# Generated by pormake.
# Topology llk, (3,12)-cn, num edge types: 1
# Building blocks:
#     Node 0, Type 0, BuildingBlock: BELTOD_clean_linker_0, # of connection points: 3
#     Node 1, Type 0, BuildingBlock: BELTOD_clean_linker_0, # of connection points: 3
#     Node 2, Type 0, BuildingBlock: BELTOD_clean_linker_0, # of connection points: 3
#     Node 3, Type 0, BuildingBlock: BELTOD_clean_linker_0, # of connection points: 3
#     Node 4, Type 0, BuildingBlock: BELTOD_clean_linker_0, # of connection points: 3
#     Node 5, Type 0, BuildingBlock: BELTOD_clean_linker_0, # of connection points: 3
#     Node 6, Type 0, BuildingBlock: BELTOD_clean_linker_0, # of connection points: 3
#     Node 7, Type 0, BuildingBlock: BELTOD_clean_linker_0, # of connection points: 3
#     Node 8, Type 0, BuildingBlock: BELTOD_clean_linker_0, # of connection points: 3
#     Node 9, Type 0, BuildingBlock: BELTOD_clean_linker_0, # of connection points: 3
#     Node 10, Type 0, BuildingBlock: BELTOD_clean_linker_0, # of connection points: 3
#     Node 11, Type 0, BuildingBlock: BELTOD_clean_linker_0, # of connection points: 3
#     Node 12, Type 0, BuildingBlock: BELTOD_clean_linker_0, # of connection points: 3
#     Node 13, Type 0, BuildingBlock: BELTOD_clean_linker_0, # of connection points: 3
#     Node 14, Type 0, BuildingBlock: BELTOD_clean_linker_0, # of connection points: 3
#     Node 15, Type 0, BuildingBlock: BELTOD_clean_linker_0, # of connection points: 3
#     Node 16, Type 0, BuildingBlock: BELTOD_clean_linker_0, # of connection points: 3
#     Node 17, Type 0, BuildingBlock: BELTOD_clean_linker_0, # of connection points: 3
#     Node 18, Type 0, BuildingBlock: BELTOD_clean_linker_0, # of connection points: 3
#     Node 19, Type 0, BuildingBlock: BELTOD_clean_linker_0, # of connection points: 3
#     Node 20, Type 0, BuildingBlock: BELTOD_clean_linker_0, # of connection points: 3
#     Node 21, Type 0, BuildingBlock: BELTOD_clean_linker_0, # of connection points: 3
#     Node 22, Type 0, BuildingBlock: BELTOD_clean_linker_0, # of connection points: 3
#     Node 23, Type 0, BuildingBlock: BELTOD_clean_linker_0, # of connection points: 3
#     Node 24, Type 1, BuildingBlock: QEWDON_clean_sbu_0, # of connection points: 12
#     Node 25, Type 1, BuildingBlock: QEWDON_clean_sbu_0, # of connection points: 12
#     Node 26, Type 1, BuildingBlock: QEWDON_clean_sbu_0, # of connection points: 12
#     Node 27, Type 1, BuildingBlock: QEWDON_clean_sbu_0, # of connection points: 12
#     Node 28, Type 1, BuildingBlock: QEWDON_clean_sbu_0, # of connection points: 12
#     Node 29, Type 1, BuildingBlock: QEWDON_clean_sbu_0, # of connection points: 12
#     Edge 30, Type (0, 1), BuildingBlock: MIFKUJ_clean_linker_0, # of connection points: 2
#     Edge 31, Type (0, 1), BuildingBlock: MIFKUJ_clean_linker_0, # of connection points: 2
#     Edge 32, Type (0, 1), BuildingBlock: MIFKUJ_clean_linker_0, # of connection points: 2
#     Edge 33, Type (0, 1), BuildingBlock: MIFKUJ_clean_linker_0, # of connection points: 2
#     Edge 34, Type (0, 1), BuildingBlock: MIFKUJ_clean_linker_0, # of connection points: 2
#     Edge 35, Type (0, 1), BuildingBlock: MIFKUJ_clean_linker_0, # of connection points: 2
#     Edge 36, Type (0, 1), BuildingBlock: MIFKUJ_clean_linker_0, # of connection points: 2
#     Edge 37, Type (0, 1), BuildingBlock: MIFKUJ_clean_linker_0, # of connection points: 2
#     Edge 38, Type (0, 1), BuildingBlock: MIFKUJ_clean_linker_0, # of connection points: 2
#     Edge 39, Type (0, 1), BuildingBlock: MIFKUJ_clean_linker_0, # of connection points: 2
#     Edge 40, Type (0, 1), BuildingBlock: MIFKUJ_clean_linker_0, # of connection points: 2
#     Edge 41, Type (0, 1), BuildingBlock: MIFKUJ_clean_linker_0, # of connection points: 2
#     Edge 42, Type (0, 1), BuildingBlock: MIFKUJ_clean_linker_0, # of connection points: 2
#     Edge 43, Type (0, 1), BuildingBlock: MIFKUJ_clean_linker_0, # of connection points: 2
#     Edge 44, Type (0, 1), BuildingBlock: MIFKUJ_clean_linker_0, # of connection points: 2
#     Edge 45, Type (0, 1), BuildingBlock: MIFKUJ_clean_linker_0, # of connection points: 2
#     Edge 46, Type (0, 1), BuildingBlock: MIFKUJ_clean_linker_0, # of connection points: 2
#     Edge 47, Type (0, 1), BuildingBlock: MIFKUJ_clean_linker_0, # of connection points: 2
#     Edge 48, Type (0, 1), BuildingBlock: MIFKUJ_clean_linker_0, # of connection points: 2
#     Edge 49, Type (0, 1), BuildingBlock: MIFKUJ_clean_linker_0, # of connection points: 2
#     Edge 50, Type (0, 1), BuildingBlock: MIFKUJ_clean_linker_0, # of connection points: 2
#     Edge 51, Type (0, 1), BuildingBlock: MIFKUJ_clean_linker_0, # of connection points: 2
#     Edge 52, Type (0, 1), BuildingBlock: MIFKUJ_clean_linker_0, # of connection points: 2
#     Edge 53, Type (0, 1), BuildingBlock: MIFKUJ_clean_linker_0, # of connection points: 2
#     Edge 54, Type (0, 1), BuildingBlock: MIFKUJ_clean_linker_0, # of connection points: 2
#     Edge 55, Type (0, 1), BuildingBlock: MIFKUJ_clean_linker_0, # of connection points: 2
#     Edge 56, Type (0, 1), BuildingBlock: MIFKUJ_clean_linker_0, # of connection points: 2
#     Edge 57, Type (0, 1), BuildingBlock: MIFKUJ_clean_linker_0, # of connection points: 2
#     Edge 58, Type (0, 1), BuildingBlock: MIFKUJ_clean_linker_0, # of connection points: 2
#     Edge 59, Type (0, 1), BuildingBlock: MIFKUJ_clean_linker_0, # of connection points: 2
#     Edge 60, Type (0, 1), BuildingBlock: MIFKUJ_clean_linker_0, # of connection points: 2
#     Edge 61, Type (0, 1), BuildingBlock: MIFKUJ_clean_linker_0, # of connection points: 2
#     Edge 62, Type (0, 1), BuildingBlock: MIFKUJ_clean_linker_0, # of connection points: 2
#     Edge 63, Type (0, 1), BuildingBlock: MIFKUJ_clean_linker_0, # of connection points: 2
#     Edge 64, Type (0, 1), BuildingBlock: MIFKUJ_clean_linker_0, # of connection points: 2
#     Edge 65, Type (0, 1), BuildingBlock: MIFKUJ_clean_linker_0, # of connection points: 2
#     Edge 66, Type (0, 1), BuildingBlock: MIFKUJ_clean_linker_0, # of connection points: 2
#     Edge 67, Type (0, 1), BuildingBlock: MIFKUJ_clean_linker_0, # of connection points: 2
#     Edge 68, Type (0, 1), BuildingBlock: MIFKUJ_clean_linker_0, # of connection points: 2
#     Edge 69, Type (0, 1), BuildingBlock: MIFKUJ_clean_linker_0, # of connection points: 2
#     Edge 70, Type (0, 1), BuildingBlock: MIFKUJ_clean_linker_0, # of connection points: 2
#     Edge 71, Type (0, 1), BuildingBlock: MIFKUJ_clean_linker_0, # of connection points: 2
#     Edge 72, Type (0, 1), BuildingBlock: MIFKUJ_clean_linker_0, # of connection points: 2
#     Edge 73, Type (0, 1), BuildingBlock: MIFKUJ_clean_linker_0, # of connection points: 2
#     Edge 74, Type (0, 1), BuildingBlock: MIFKUJ_clean_linker_0, # of connection points: 2
#     Edge 75, Type (0, 1), BuildingBlock: MIFKUJ_clean_linker_0, # of connection points: 2
#     Edge 76, Type (0, 1), BuildingBlock: MIFKUJ_clean_linker_0, # of connection points: 2
#     Edge 77, Type (0, 1), BuildingBlock: MIFKUJ_clean_linker_0, # of connection points: 2
#     Edge 78, Type (0, 1), BuildingBlock: MIFKUJ_clean_linker_0, # of connection points: 2
#     Edge 79, Type (0, 1), BuildingBlock: MIFKUJ_clean_linker_0, # of connection points: 2
#     Edge 80, Type (0, 1), BuildingBlock: MIFKUJ_clean_linker_0, # of connection points: 2
#     Edge 81, Type (0, 1), BuildingBlock: MIFKUJ_clean_linker_0, # of connection points: 2
#     Edge 82, Type (0, 1), BuildingBlock: MIFKUJ_clean_linker_0, # of connection points: 2
#     Edge 83, Type (0, 1), BuildingBlock: MIFKUJ_clean_linker_0, # of connection points: 2
#     Edge 84, Type (0, 1), BuildingBlock: MIFKUJ_clean_linker_0, # of connection points: 2
#     Edge 85, Type (0, 1), BuildingBlock: MIFKUJ_clean_linker_0, # of connection points: 2
#     Edge 86, Type (0, 1), BuildingBlock: MIFKUJ_clean_linker_0, # of connection points: 2
#     Edge 87, Type (0, 1), BuildingBlock: MIFKUJ_clean_linker_0, # of connection points: 2
#     Edge 88, Type (0, 1), BuildingBlock: MIFKUJ_clean_linker_0, # of connection points: 2
#     Edge 89, Type (0, 1), BuildingBlock: MIFKUJ_clean_linker_0, # of connection points: 2
#     Edge 90, Type (0, 1), BuildingBlock: MIFKUJ_clean_linker_0, # of connection points: 2
#     Edge 91, Type (0, 1), BuildingBlock: MIFKUJ_clean_linker_0, # of connection points: 2
#     Edge 92, Type (0, 1), BuildingBlock: MIFKUJ_clean_linker_0, # of connection points: 2
#     Edge 93, Type (0, 1), BuildingBlock: MIFKUJ_clean_linker_0, # of connection points: 2
#     Edge 94, Type (0, 1), BuildingBlock: MIFKUJ_clean_linker_0, # of connection points: 2
#     Edge 95, Type (0, 1), BuildingBlock: MIFKUJ_clean_linker_0, # of connection points: 2
#     Edge 96, Type (0, 1), BuildingBlock: MIFKUJ_clean_linker_0, # of connection points: 2
#     Edge 97, Type (0, 1), BuildingBlock: MIFKUJ_clean_linker_0, # of connection points: 2
#     Edge 98, Type (0, 1), BuildingBlock: MIFKUJ_clean_linker_0, # of connection points: 2
#     Edge 99, Type (0, 1), BuildingBlock: MIFKUJ_clean_linker_0, # of connection points: 2
#     Edge 100, Type (0, 1), BuildingBlock: MIFKUJ_clean_linker_0, # of connection points: 2
#     Edge 101, Type (0, 1), BuildingBlock: MIFKUJ_clean_linker_0, # of connection points: 2
# Relax obj value: 0.118
# Max RMSD: 0.148
# Mean RMSD: 0.135
data_MOF--net-llk--node1-QEWDON_clean_sbu_0--node2-BELTOD_clean_linker_0--edge1-MIFKUJ_clean_linker_0
_symmetry_space_group_name_H-M    P1
_symmetry_Int_Tables_number       1
_symmetry_cell_setting            triclinic
loop_
_symmetry_equiv_pos_as_xyz
'x, y, z'
_cell_length_a     63.507106
_cell_length_b     66.491919
_cell_length_c     64.82898
_cell_angle_alpha  90.028723
_cell_angle_beta   90.019978
_cell_angle_gamma 89.596201
loop_
_atom_site_label
_atom_site_type_symbol
_atom_site_fract_x
_atom_site_fract_y
_atom_site_fract_z
_atom_type_partial_charge
P0 P 0.01261 0.27448 0.27722 0.0
H1 H 0.98744 0.29676 0.24749 0.0
H2 H 0.99607 0.31418 0.21582 0.0
H3 H 0.05949 0.29016 0.21879 0.0
H4 H 0.05074 0.27331 0.25131 0.0
H5 H 0.99386 0.23506 0.27122 0.0
H6 H 0.00235 0.20214 0.28557 0.0
H7 H 0.06068 0.2257 0.30973 0.0
H8 H 0.05258 0.25829 0.29409 0.0
H9 H 0.01987 0.31793 0.27539 0.0
H10 H 0.02404 0.27091 0.32105 0.0
O11 O 0.98648 0.27398 0.27996 0.0
H12 H 0.02843 0.34273 0.30141 0.0
H13 H 0.03469 0.29531 0.34679 0.0
C14 C 0.01834 0.28343 0.25159 0.0
C15 C 0.00307 0.2948 0.24111 0.0
C16 C 0.00806 0.30477 0.22284 0.0
C17 C 0.0285 0.3036 0.21453 0.0
C18 C 0.04364 0.29162 0.22479 0.0
C19 C 0.03863 0.28175 0.24326 0.0
C20 C 0.02219 0.24931 0.2823 0.0
C21 C 0.00873 0.23301 0.27915 0.0
C22 C 0.01353 0.2142 0.2876 0.0
C23 C 0.03181 0.21138 0.29959 0.0
C24 C 0.04635 0.22726 0.3008 0.0
C25 C 0.04168 0.24601 0.29196 0.0
C26 C 0.02205 0.29235 0.29598 0.0
C27 C 0.02337 0.31278 0.29085 0.0
C28 C 0.02847 0.32704 0.30585 0.0
C29 C 0.03252 0.32119 0.32637 0.0
C30 C 0.03146 0.30059 0.33132 0.0
C31 C 0.02579 0.28644 0.31641 0.0
P32 P 0.76003 0.00447 0.22262 0.0
H33 H 0.76722 0.99849 0.17861 0.0
H34 H 0.75693 0.01819 0.14885 0.0
H35 H 0.74037 0.06798 0.18883 0.0
H36 H 0.74949 0.0475 0.21874 0.0
H37 H 0.7869 0.97673 0.24534 0.0
H38 H 0.81211 0.98164 0.27306 0.0
H39 H 0.80538 0.0461 0.26626 0.0
H40 H 0.78145 0.04094 0.23746 0.0
H41 H 0.72004 0.98272 0.22224 0.0
H42 H 0.74711 0.03258 0.25532 0.0
O43 O 0.76136 0.9809 0.21376 0.0
H44 H 0.68773 0.98619 0.24261 0.0
H45 H 0.71526 0.03589 0.27577 0.0
C46 C 0.75871 0.02133 0.20094 0.0
C47 C 0.7618 0.01379 0.181 0.0
C48 C 0.75611 0.02528 0.16386 0.0
C49 C 0.74739 0.04468 0.16632 0.0
C50 C 0.74652 0.05295 0.18632 0.0
C51 C 0.7519 0.04127 0.20349 0.0
C52 C 0.78224 0.00846 0.23931 0.0
C53 C 0.79137 0.99192 0.24936 0.0
C54 C 0.80557 0.99478 0.26549 0.0
C55 C 0.81045 0.01428 0.27235 0.0
C56 C 0.80217 0.03084 0.26141 0.0
C57 C 0.78832 0.02793 0.24492 0.0
C58 C 0.73621 0.0071 0.23752 0.0
C59 C 0.71912 0.99432 0.23394 0.0
C60 C 0.70067 0.9963 0.2456 0.0
C61 C 0.69894 0.01129 0.26084 0.0
C62 C 0.71597 0.02433 0.26401 0.0
C63 C 0.73436 0.02229 0.25243 0.0
P64 P 0.0543 0.76001 0.25412 0.0
H65 H 0.05632 0.76005 0.20898 0.0
H66 H 0.04194 0.73717 0.18307 0.0
H67 H 0.00569 0.70758 0.23037 0.0
H68 H 0.02 0.73064 0.2562 0.0
H69 H 0.06871 0.8013 0.25943 0.0
H70 H 0.05482 0.82936 0.2794 0.0
H71 H -0.00215 0.79606 0.29099 0.0
H72 H 0.01209 0.76775 0.27097 0.0
H73 H 0.06656 0.71756 0.25652 0.0
H74 H 0.05378 0.76595 0.29925 0.0
O75 O 0.07768 0.7661 0.24427 0.0
H76 H 0.06986 0.69408 0.28546 0.0
H77 H 0.05713 0.74268 0.32801 0.0
C78 C 0.03957 0.74678 0.23458 0.0
C79 C 0.0449 0.74896 0.21371 0.0
C80 C 0.03663 0.73588 0.19889 0.0
C81 C 0.02295 0.72035 0.20474 0.0
C82 C 0.01647 0.71918 0.22546 0.0
C83 C 0.02456 0.73242 0.24021 0.0
C84 C 0.04134 0.78249 0.26345 0.0
C85 C 0.05295 0.80021 0.26567 0.0
C86 C 0.04496 0.81631 0.27717 0.0
C87 C 0.02523 0.81497 0.28691 0.0
C88 C 0.01318 0.79752 0.28385 0.0
C89 C 0.02117 0.78143 0.27218 0.0
C90 C 0.05908 0.74335 0.27561 0.0
C91 C 0.06453 0.72316 0.27209 0.0
C92 C 0.06658 0.70979 0.28863 0.0
C93 C 0.06338 0.7165 0.30897 0.0
C94 C 0.05917 0.73699 0.31247 0.0
C95 C 0.0572 0.75032 0.29595 0.0
P96 P 0.25513 0.95656 0.25669 0.0
H97 H 0.21079 0.94651 0.26115 0.0
H98 H 0.17995 0.96757 0.26702 0.0
H99 H 0.21658 0.02047 0.25342 0.0
H100 H 0.24762 0.99913 0.24779 0.0
H101 H 0.29975 0.94746 0.25435 0.0
H102 H 0.32636 0.95266 0.22774 0.0
H103 H 0.27882 0.97829 0.18771 0.0
H104 H 0.25217 0.97267 0.21436 0.0
H105 H 0.25118 0.94146 0.29898 0.0
H106 H 0.28217 0.99017 0.26764 0.0
O107 O 0.24941 0.93213 0.25781 0.0
H108 H 0.26484 0.95361 0.33206 0.0
H109 H 0.29612 0.00219 0.30042 0.0
C110 C 0.23145 0.97123 0.25386 0.0
C111 C 0.21203 0.96255 0.25859 0.0
C112 C 0.19432 0.97467 0.26186 0.0
C113 C 0.19579 0.99574 0.2607 0.0
C114 C 0.21496 0.0043 0.25449 0.0
C115 C 0.23268 0.99211 0.25116 0.0
C116 C 0.27414 0.96017 0.23651 0.0
C117 C 0.29507 0.95424 0.23985 0.0
C118 C 0.31027 0.95726 0.22466 0.0
C119 C 0.30474 0.9661 0.2057 0.0
C120 C 0.28355 0.97139 0.20213 0.0
C121 C 0.26834 0.96837 0.21741 0.0
C122 C 0.2662 0.96458 0.28084 0.0
C123 C 0.26117 0.95459 0.2992 0.0
C124 C 0.26893 0.96158 0.31807 0.0
C125 C 0.28161 0.97884 0.31886 0.0
C126 C 0.28623 0.98898 0.3004 0.0
C127 C 0.2785 0.98197 0.2816 0.0
P128 P 0.972 0.76271 0.76967 0.0
H129 H 0.97408 0.77345 0.8132 0.0
H130 H 0.99037 0.75693 0.84297 0.0
H131 H 0.0203 0.71396 0.80219 0.0
H132 H 0.00442 0.73087 0.77255 0.0
H133 H 0.94999 0.79806 0.75415 0.0
H134 H 0.96166 0.82733 0.73481 0.0
H135 H 0.02628 0.80772 0.74155 0.0
H136 H 0.01439 0.7783 0.76121 0.0
H137 H 0.94981 0.72462 0.76643 0.0
H138 H 0.99117 0.75986 0.72824 0.0
O139 O 0.94765 0.7664 0.77867 0.0
H140 H 0.94792 0.69901 0.73931 0.0
H141 H 0.98967 0.73438 0.70146 0.0
C142 C 0.9877 0.75316 0.79072 0.0
C143 C 0.9845 0.76072 0.81066 0.0
C144 C 0.99372 0.75117 0.82768 0.0
C145 C 0.00638 0.7339 0.82503 0.0
C146 C 0.01073 0.72726 0.80483 0.0
C147 C 0.00151 0.73685 0.78783 0.0
C148 C 0.98135 0.78619 0.75942 0.0
C149 C 0.96672 0.80032 0.75204 0.0
C150 C 0.97342 0.81708 0.74094 0.0
C151 C 0.9949 0.81987 0.73668 0.0
C152 C 0.00962 0.80593 0.74457 0.0
C153 C 0.00289 0.78925 0.75595 0.0
C154 C 0.97037 0.74429 0.74931 0.0
C155 C 0.95837 0.72691 0.75219 0.0
C156 C 0.95741 0.71225 0.73673 0.0
C157 C 0.9685 0.71473 0.71814 0.0
C158 C 0.98056 0.73218 0.71539 0.0
C159 C 0.98154 0.74678 0.73084 0.0
P160 P 0.27573 0.94099 0.76928 0.0
H161 H 0.2725 0.92932 0.81279 0.0
H162 H 0.28752 0.94506 0.84339 0.0
H163 H 0.29876 0.99922 0.80848 0.0
H164 H 0.28448 0.98321 0.77781 0.0
H165 H 0.25285 0.91861 0.73832 0.0
H166 H 0.22917 0.929 0.71081 0.0
H167 H 0.22693 0.98909 0.7363 0.0
H168 H 0.25118 0.97866 0.76344 0.0
H169 H 0.3191 0.94645 0.78347 0.0
H170 H 0.28636 0.9451 0.72505 0.0
O171 O 0.27444 0.91647 0.77459 0.0
H172 H 0.35127 0.95683 0.76581 0.0
H173 H 0.31865 0.95478 0.70745 0.0
C174 C 0.27734 0.95506 0.79297 0.0
C175 C 0.27735 0.94487 0.8119 0.0
C176 C 0.28593 0.95391 0.82945 0.0
C177 C 0.29466 0.97324 0.8282 0.0
C178 C 0.29237 0.98422 0.8098 0.0
C179 C 0.28386 0.97516 0.79231 0.0
C180 C 0.25384 0.94781 0.75299 0.0
C181 C 0.24682 0.93389 0.73833 0.0
C182 C 0.23323 0.93989 0.72255 0.0
C183 C 0.22624 0.95997 0.72116 0.0
C184 C 0.23235 0.97361 0.73663 0.0
C185 C 0.24614 0.9676 0.75232 0.0
C186 C 0.30004 0.9456 0.75572 0.0
C187 C 0.31878 0.94827 0.76688 0.0
C188 C 0.33717 0.95417 0.75682 0.0
C189 C 0.33727 0.95681 0.73536 0.0
C190 C 0.3189 0.95289 0.72405 0.0
C191 C 0.30039 0.9474 0.73416 0.0
P192 P 0.04799 0.26515 0.75147 0.0
H193 H 0.06423 0.26524 0.79362 0.0
H194 H 0.05466 0.28493 0.82403 0.0
H195 H 1e-05 0.30806 0.79189 0.0
H196 H 0.00946 0.28787 0.76166 0.0
H197 H 0.06769 0.22602 0.74408 0.0
H198 H 0.05548 0.19665 0.72549 0.0
H199 H 0.99254 0.22173 0.72391 0.0
H200 H 0.00509 0.25148 0.74254 0.0
H201 H 0.04982 0.30897 0.74885 0.0
H202 H 0.0375 0.25953 0.7075 0.0
O203 O 0.07408 0.26292 0.75387 0.0
H204 H 0.04455 0.33264 0.7205 0.0
H205 H 0.03141 0.28305 0.67942 0.0
C206 C 0.03779 0.27542 0.77524 0.0
C207 C 0.04994 0.2742 0.79325 0.0
C208 C 0.04454 0.28561 0.8106 0.0
C209 C 0.02683 0.29846 0.81026 0.0
C210 C 0.01374 0.29836 0.79272 0.0
C211 C 0.01915 0.28684 0.77538 0.0
C212 C 0.03731 0.24098 0.74469 0.0
C213 C 0.0511 0.22498 0.74042 0.0
C214 C 0.04405 0.20808 0.72974 0.0
C215 C 0.02305 0.20689 0.72299 0.0
C216 C 0.00887 0.2223 0.72868 0.0
C217 C 0.01595 0.23919 0.73955 0.0
C218 C 0.04332 0.2825 0.73056 0.0
C219 C 0.04556 0.30322 0.7338 0.0
C220 C 0.04246 0.31674 0.71757 0.0
C221 C 0.03727 0.30977 0.69772 0.0
C222 C 0.03542 0.28895 0.69448 0.0
C223 C 0.03865 0.27545 0.71069 0.0
P224 P 0.77974 0.09483 0.78056 0.0
H225 H 0.77524 0.10603 0.82392 0.0
H226 H 0.75354 0.0929 0.85181 0.0
H227 H 0.73216 0.04533 0.81149 0.0
H228 H 0.75501 0.05784 0.78429 0.0
H229 H 0.82273 0.11051 0.78269 0.0
H230 H 0.85554 0.09789 0.76782 0.0
H231 H 0.82502 0.04178 0.75304 0.0
H232 H 0.79253 0.0543 0.76861 0.0
H233 H 0.73447 0.09126 0.77088 0.0
H234 H 0.79301 0.0947 0.73731 0.0
O235 O 0.78253 0.11932 0.78543 0.0
H236 H 0.71572 0.08469 0.73862 0.0
H237 H 0.77434 0.08826 0.70512 0.0
C238 C 0.76617 0.08329 0.80184 0.0
C239 C 0.76609 0.0926 0.82122 0.0
C240 C 0.75351 0.08514 0.83713 0.0
C241 C 0.74059 0.06829 0.83387 0.0
C242 C 0.74187 0.05826 0.81475 0.0
C243 C 0.75479 0.06553 0.79901 0.0
C244 C 0.80516 0.08338 0.77658 0.0
C245 C 0.82331 0.09523 0.77694 0.0
C246 C 0.84203 0.08805 0.76825 0.0
C247 C 0.8428 0.06899 0.75879 0.0
C248 C 0.82508 0.05648 0.76025 0.0
C249 C 0.80643 0.06362 0.76915 0.0
C250 C 0.7653 0.09245 0.75668 0.0
C251 C 0.74333 0.09047 0.75665 0.0
C252 C 0.73262 0.08677 0.7382 0.0
C253 C 0.74364 0.08557 0.71941 0.0
C254 C 0.76544 0.089 0.71935 0.0
C255 C 0.77614 0.0925 0.73782 0.0
P256 P 0.24879 0.2816 0.95753 0.0
H257 H 0.25958 0.24392 0.93688 0.0
H258 H 0.28363 0.21713 0.94676 0.0
H259 H 0.28535 0.24052 0.00898 0.0
H260 H 0.26157 0.26786 0.99864 0.0
H261 H 0.22418 0.31607 0.94612 0.0
H262 H 0.19126 0.33047 0.95832 0.0
H263 H 0.18497 0.28167 0.0019 0.0
H264 H 0.2187 0.26749 0.98972 0.0
H265 H 0.28999 0.28923 0.93992 0.0
H266 H 0.25241 0.31198 0.99032 0.0
O267 O 0.24707 0.2805 0.93186 0.0
H268 H 0.31904 0.31097 0.95038 0.0
H269 H 0.28135 0.33377 0.00082 0.0
C270 C 0.25873 0.25792 0.96701 0.0
C271 C 0.26449 0.24295 0.95284 0.0
C272 C 0.27835 0.22754 0.95856 0.0
C273 C 0.28678 0.22678 0.97862 0.0
C274 C 0.27952 0.24086 0.99328 0.0
C275 C 0.26564 0.25633 0.9875 0.0
C276 C 0.22374 0.29064 0.96685 0.0
C277 C 0.21564 0.30833 0.95818 0.0
C278 C 0.19668 0.31648 0.96511 0.0
C279 C 0.18518 0.30707 0.98088 0.0
C280 C 0.19341 0.28929 0.98972 0.0
C281 C 0.21261 0.28112 0.98273 0.0
C282 C 0.26888 0.29942 0.96398 0.0
C283 C 0.28787 0.29917 0.95301 0.0
C284 C 0.30452 0.31142 0.95913 0.0
C285 C 0.30242 0.32408 0.97639 0.0
C286 C 0.28329 0.32437 0.98728 0.0
C287 C 0.26672 0.31197 0.98124 0.0
P288 P 0.23669 0.76291 0.96697 0.0
H289 H 0.19348 0.76134 0.95162 0.0
H290 H 0.16192 0.74601 0.96594 0.0
H291 H 0.19386 0.73764 0.02416 0.0
H292 H 0.22541 0.75321 0.00979 0.0
H293 H 0.26584 0.78652 0.94321 0.0
H294 H 0.28537 0.8171 0.95033 0.0
H295 H 0.25423 0.82245 0.00934 0.0
H296 H 0.23425 0.79175 0.00184 0.0
H297 H 0.24614 0.72318 0.9501 0.0
H298 H 0.26608 0.75926 0.0017 0.0
O299 O 0.23314 0.76096 0.94153 0.0
H300 H 0.26977 0.69612 0.96106 0.0
H301 H 0.2892 0.73204 0.01325 0.0
C302 C 0.21194 0.7581 0.97952 0.0
C303 C 0.19357 0.75675 0.96764 0.0
C304 C 0.17554 0.74787 0.9758 0.0
C305 C 0.17557 0.74025 0.99603 0.0
C306 C 0.19336 0.74336 0.00852 0.0
C307 C 0.21144 0.75223 0.0003 0.0
C308 C 0.24838 0.78703 0.97185 0.0
C309 C 0.26287 0.79445 0.95753 0.0
C310 C 0.2742 0.81185 0.96171 0.0
C311 C 0.2715 0.82211 0.98048 0.0
C312 C 0.25653 0.81495 0.99467 0.0
C313 C 0.24512 0.79742 0.99043 0.0
C314 C 0.25476 0.7434 0.97478 0.0
C315 C 0.25569 0.7253 0.96375 0.0
C316 C 0.26902 0.70973 0.97022 0.0
C317 C 0.28146 0.71188 0.98805 0.0
C318 C 0.28017 0.72999 -0.00075 0.0
C319 C 0.26693 0.74559 0.99267 0.0
P320 P 0.80654 0.2579 0.97609 0.0
H321 H 0.85148 0.25694 0.96585 0.0
H322 H 0.88147 0.27235 0.98297 0.0
H323 H 0.84321 0.28332 0.03696 0.0
H324 H 0.81308 0.26813 0.01953 0.0
H325 H 0.77912 0.23367 0.95069 0.0
H326 H 0.75737 0.20435 0.95765 0.0
H327 H 0.78143 0.20195 0.0199 0.0
H328 H 0.8032 0.23157 0.01287 0.0
H329 H 0.81513 0.30058 0.98212 0.0
H330 H 0.76026 0.26275 0.9785 0.0
O331 O 0.81323 0.25807 0.95119 0.0
H332 H 0.7925 0.32987 0.98814 0.0
H333 H 0.73762 0.29214 0.98401 0.0
C334 C 0.82997 0.26162 0.99132 0.0
C335 C 0.8497 0.26199 0.98163 0.0
C336 C 0.86692 0.27078 0.9915 0.0
C337 C 0.86463 0.27939 0.0112 0.0
C338 C 0.84538 0.27709 0.02165 0.0
C339 C 0.82819 0.26823 0.01179 0.0
C340 C 0.79295 0.2347 0.98117 0.0
C341 C 0.78001 0.22669 0.96575 0.0
C342 C 0.76746 0.21001 0.96979 0.0
C343 C 0.76766 0.20093 0.98933 0.0
C344 C 0.7811 0.2086 0.00465 0.0
C345 C 0.79351 0.22553 0.00065 0.0
C346 C 0.78948 0.27931 0.98039 0.0
C347 C 0.79825 0.2985 0.98279 0.0
C348 C 0.78533 0.31525 0.98621 0.0
C349 C 0.76335 0.31321 0.98671 0.0
C350 C 0.75454 0.2941 0.98371 0.0
C351 C 0.76751 0.27727 0.98063 0.0
P352 P 0.79534 0.774 0.03196 0.0
H353 H 0.84124 0.77121 0.0335 0.0
H354 H 0.86605 0.74944 0.01544 0.0
H355 H 0.81661 0.7311 0.9738 0.0
H356 H 0.79168 0.75271 0.99232 0.0
H357 H 0.77399 0.80444 0.05572 0.0
H358 H 0.74717 0.82917 0.04642 0.0
H359 H 0.75875 0.81758 0.98191 0.0
H360 H 0.78582 0.79257 0.99135 0.0
H361 H 0.78901 0.74218 0.06274 0.0
H362 H 0.75683 0.76524 0.00901 0.0
O363 O 0.80698 0.77825 0.05463 0.0
H364 H 0.76036 0.71821 0.06826 0.0
H365 H 0.7285 0.74147 0.01431 0.0
C366 C 0.81451 0.76337 0.01449 0.0
C367 C 0.83581 0.76295 0.02015 0.0
C368 C 0.85007 0.75051 0.00969 0.0
C369 C 0.84329 0.73824 0.99333 0.0
C370 C 0.82227 0.74005 0.98659 0.0
C371 C 0.80801 0.75253 0.99708 0.0
C372 C 0.7821 0.79681 0.02425 0.0
C373 C 0.77143 0.80774 0.03955 0.0
C374 C 0.75592 0.82173 0.03424 0.0
C375 C 0.75075 0.82507 0.01348 0.0
C376 C 0.76255 0.8153 0.99804 0.0
C377 C 0.77808 0.80111 0.00341 0.0
C378 C 0.77483 0.75582 0.03576 0.0
C379 C 0.7758 0.74213 0.05218 0.0
C380 C 0.75948 0.72841 0.05526 0.0
C381 C 0.74202 0.72819 0.0419 0.0
C382 C 0.74146 0.74161 0.02518 0.0
C383 C 0.75774 0.7552 0.0221 0.0
P384 P 0.49503 0.76317 0.7584 0.0
H385 H 0.47744 0.7663 0.71679 0.0
H386 H 0.48801 0.78617 0.68709 0.0
H387 H 0.54727 0.79915 0.71693 0.0
H388 H 0.53618 0.77965 0.74698 0.0
H389 H 0.47075 0.72849 0.77193 0.0
H390 H 0.48055 0.69785 0.79023 0.0
H391 H 0.54622 0.71257 0.7834 0.0
H392 H 0.53634 0.74308 0.76406 0.0
H393 H 0.48134 0.80453 0.76359 0.0
H394 H 0.52328 0.76349 0.79511 0.0
O395 O 0.46884 0.76353 0.75605 0.0
H396 H 0.48987 0.83073 0.78855 0.0
H397 H 0.5326 0.7897 0.81936 0.0
C398 C 0.50591 0.77168 0.73424 0.0
C399 C 0.49294 0.77297 0.71677 0.0
C400 C 0.49906 0.78436 0.69968 0.0
C401 C 0.51836 0.79464 0.69969 0.0
C402 C 0.53208 0.79184 0.71656 0.0
C403 C 0.52589 0.78047 0.73368 0.0
C404 C 0.50281 0.73822 0.76668 0.0
C405 C 0.48731 0.72491 0.77365 0.0
C406 C 0.4929 0.70733 0.78416 0.0
C407 C 0.51412 0.70293 0.78832 0.0
C408 C 0.52974 0.71567 0.78038 0.0
C409 C 0.52411 0.73302 0.76928 0.0
C410 C 0.50143 0.78192 0.77749 0.0
C411 C 0.49241 0.80115 0.77584 0.0
C412 C 0.49752 0.8162 0.78999 0.0
C413 C 0.51199 0.81238 0.80599 0.0
C414 C 0.52117 0.79312 0.80743 0.0
C415 C 0.51591 0.77804 0.79337 0.0
P416 P 0.29699 0.49805 0.76551 0.0
H417 H 0.28684 0.47593 0.728 0.0
H418 H 0.27009 0.48648 0.69606 0.0
H419 H 0.27691 0.54868 0.71405 0.0
H420 H 0.29368 0.53788 0.74632 0.0
H421 H 0.34021 0.483 0.76803 0.0
H422 H 0.37077 0.49424 0.78761 0.0
H423 H 0.3367 0.54796 0.80555 0.0
H424 H 0.30599 0.53637 0.78615 0.0
H425 H 0.2537 0.51239 0.75671 0.0
H426 H 0.29098 0.49663 0.81009 0.0
O427 O 0.29952 0.47305 0.76582 0.0
H428 H 0.22382 0.52006 0.77885 0.0
H429 H 0.26079 0.50416 0.83241 0.0
C430 C 0.29161 0.50612 0.73951 0.0
C431 C 0.28548 0.49186 0.72481 0.0
C432 C 0.27587 0.49794 0.70646 0.0
C433 C 0.27199 0.51844 0.70256 0.0
C434 C 0.2795 0.53278 0.7167 0.0
C435 C 0.2893 0.52665 0.73503 0.0
C436 C 0.32072 0.50866 0.776 0.0
C437 C 0.33943 0.49736 0.77589 0.0
C438 C 0.35696 0.50388 0.78701 0.0
C439 C 0.35611 0.52189 0.7984 0.0
C440 C 0.33774 0.53384 0.79728 0.0
C441 C 0.32022 0.5273 0.78609 0.0
C442 C 0.27485 0.50435 0.78177 0.0
C443 C 0.25567 0.51085 0.7732 0.0
C444 C 0.23849 0.51526 0.78589 0.0
C445 C 0.24002 0.51287 0.80736 0.0
C446 C 0.25916 0.50611 0.8159 0.0
C447 C 0.27643 0.50189 0.80319 0.0
P448 P 0.5193 0.26367 0.75832 0.0
H449 H 0.52798 0.27183 0.71508 0.0
H450 H 0.52001 0.25242 0.68404 0.0
H451 H 0.4762 0.21645 0.71878 0.0
H452 H 0.48409 0.236 0.74973 0.0
H453 H 0.54652 0.29615 0.77162 0.0
H454 H 0.53989 0.32795 0.78879 0.0
H455 H 0.47291 0.319 0.78258 0.0
H456 H 0.47974 0.2869 0.76466 0.0
H457 H 0.53851 0.22524 0.76829 0.0
H458 H 0.48833 0.26231 0.79263 0.0
O459 O 0.54515 0.26243 0.75372 0.0
H460 H 0.53255 0.20065 0.79552 0.0
H461 H 0.48245 0.23784 0.82009 0.0
C462 C 0.50692 0.2552 0.73482 0.0
C463 C 0.51609 0.26026 0.71588 0.0
C464 C 0.51167 0.24901 0.69817 0.0
C465 C 0.49785 0.23259 0.69907 0.0
C466 C 0.48696 0.22896 0.71758 0.0
C467 C 0.4915 0.24017 0.73534 0.0
C468 C 0.51363 0.28908 0.76672 0.0
C469 C 0.53036 0.30116 0.77331 0.0
C470 C 0.52656 0.31946 0.78317 0.0
C471 C 0.50587 0.32604 0.78705 0.0
C472 C 0.48903 0.31428 0.77984 0.0
C473 C 0.4929 0.29602 0.76953 0.0
C474 C 0.51432 0.24592 0.77873 0.0
C475 C 0.52635 0.22822 0.77962 0.0
C476 C 0.52293 0.21417 0.7952 0.0
C477 C 0.50723 0.21747 0.81013 0.0
C478 C 0.49468 0.23491 0.80881 0.0
C479 C 0.49818 0.24903 0.79319 0.0
P480 P 0.73424 0.47574 0.7552 0.0
H481 H 0.69008 0.4643 0.74961 0.0
H482 H 0.65783 0.47453 0.76753 0.0
H483 H 0.69264 0.51995 0.80049 0.0
H484 H 0.72478 0.50956 0.78271 0.0
H485 H 0.75229 0.46601 0.715 0.0
H486 H 0.77817 0.48336 0.69399 0.0
H487 H 0.77185 0.53601 0.73258 0.0
H488 H 0.74577 0.5185 0.75361 0.0
H489 H 0.72853 0.4597 0.7968 0.0
H490 H 0.77935 0.48466 0.76104 0.0
O491 O 0.72965 0.45291 0.74557 0.0
H492 H 0.75162 0.45799 0.82696 0.0
H493 H 0.80177 0.48438 0.79105 0.0
C494 C 0.70985 0.48622 0.76476 0.0
C495 C 0.6907 0.47674 0.76037 0.0
C496 C 0.67228 0.48252 0.7707 0.0
C497 C 0.67269 0.49799 0.78548 0.0
C498 C 0.69172 0.50816 0.789 0.0
C499 C 0.71014 0.50227 0.77878 0.0
C500 C 0.7469 0.49097 0.73583 0.0
C501 C 0.75577 0.48155 0.71851 0.0
C502 C 0.77066 0.49152 0.70648 0.0
C503 C 0.7772 0.51103 0.71172 0.0
C504 C 0.76724 0.52094 0.72826 0.0
C505 C 0.75211 0.51101 0.74015 0.0
C506 C 0.75193 0.47284 0.77678 0.0
C507 C 0.7446 0.46489 0.79544 0.0
C508 C 0.75779 0.46407 0.81272 0.0
C509 C 0.77857 0.47125 0.81162 0.0
C510 C 0.78601 0.47846 0.79258 0.0
C511 C 0.77295 0.47897 0.77531 0.0
P512 P 0.47062 0.26553 0.26934 0.0
H513 H 0.4541 0.25444 0.30971 0.0
H514 H 0.46889 0.23485 0.33772 0.0
H515 H 0.53022 0.23753 0.30898 0.0
H516 H 0.51495 0.2567 0.2804 0.0
H517 H 0.4487 0.30334 0.26013 0.0
H518 H 0.45721 0.3309 0.23712 0.0
H519 H 0.52037 0.30712 0.23028 0.0
H520 H 0.51125 0.2789 0.25249 0.0
H521 H 0.48324 0.22265 0.27084 0.0
H522 H 0.46427 0.26602 0.22478 0.0
O523 O 0.44478 0.26737 0.27377 0.0
H524 H 0.48982 0.1979 0.24398 0.0
H525 H 0.46995 0.24096 0.19784 0.0
C526 C 0.48337 0.25729 0.2929 0.0
C527 C 0.47086 0.25141 0.30963 0.0
C528 C 0.47943 0.24012 0.3258 0.0
C529 C 0.5008 0.23437 0.32567 0.0
C530 C 0.51364 0.2414 0.3095 0.0
C531 C 0.50499 0.25272 0.29326 0.0
C532 C 0.47939 0.28904 0.25832 0.0
C533 C 0.46458 0.30428 0.25416 0.0
C534 C 0.4695 0.32016 0.2409 0.0
C535 C 0.48944 0.32125 0.23149 0.0
C536 C 0.5047 0.30663 0.23682 0.0
C537 C 0.49966 0.29062 0.24995 0.0
C538 C 0.47406 0.24651 0.24979 0.0
C539 C 0.48054 0.22695 0.25497 0.0
C540 C 0.48402 0.21263 0.23956 0.0
C541 C 0.48067 0.2175 0.21869 0.0
C542 C 0.47321 0.23686 0.21369 0.0
C543 C 0.46989 0.2512 0.22911 0.0
P544 P 0.745 0.54078 0.27816 0.0
H545 H 0.7009 0.54742 0.2674 0.0
H546 H 0.67754 0.53073 0.24347 0.0
H547 H 0.72393 0.48348 0.23482 0.0
H548 H 0.7479 0.50125 0.2579 0.0
H549 H 0.75137 0.56151 0.31716 0.0
H550 H 0.76719 0.55111 0.34969 0.0
H551 H 0.77134 0.49 0.32748 0.0
H552 H 0.75485 0.50043 0.29491 0.0
H553 H 0.7538 0.56412 0.24129 0.0
H554 H 0.78709 0.52141 0.27959 0.0
O555 O 0.73491 0.5639 0.28068 0.0
H556 H 0.7845 0.56635 0.21862 0.0
H557 H 0.81773 0.52376 0.25728 0.0
C558 C 0.72619 0.52563 0.26444 0.0
C559 C 0.70598 0.53331 0.26062 0.0
C560 C 0.69247 0.52356 0.24695 0.0
C561 C 0.69873 0.50567 0.23696 0.0
C562 C 0.71862 0.49739 0.24183 0.0
C563 C 0.73228 0.50738 0.25531 0.0
C564 C 0.75179 0.53175 0.30358 0.0
C565 C 0.75497 0.54573 0.31945 0.0
C566 C 0.76401 0.53977 0.33811 0.0
C567 C 0.77048 0.51975 0.34111 0.0
C568 C 0.76646 0.50553 0.32555 0.0
C569 C 0.75696 0.51146 0.30698 0.0
C570 C 0.76819 0.54285 0.26232 0.0
C571 C 0.76778 0.55541 0.24497 0.0
C572 C 0.78535 0.55672 0.23207 0.0
C573 C 0.80358 0.54529 0.23621 0.0
C574 C 0.80387 0.53264 0.25358 0.0
C575 C 0.78632 0.53139 0.26647 0.0
P576 P 0.58949 0.78325 0.24659 0.0
H577 H 0.60736 0.78651 0.28804 0.0
H578 H 0.59468 0.80385 0.3188 0.0
H579 H 0.53365 0.8115 0.29041 0.0
H580 H 0.54641 0.79405 0.25956 0.0
H581 H 0.61358 0.75581 0.22098 0.0
H582 H 0.60464 0.72604 0.20126 0.0
H583 H 0.54085 0.72946 0.22428 0.0
H584 H 0.5503 0.75907 0.24485 0.0
H585 H 0.60923 0.82188 0.23823 0.0
H586 H 0.55333 0.79038 0.21924 0.0
O587 O 0.61564 0.78346 0.24933 0.0
H588 H 0.59788 0.85136 0.21845 0.0
H589 H 0.54192 0.81975 0.19948 0.0
C590 C 0.57791 0.78907 0.27135 0.0
C591 C 0.59105 0.79134 0.28857 0.0
C592 C 0.58384 0.80143 0.30615 0.0
C593 C 0.56329 0.80939 0.30688 0.0
C594 C 0.54956 0.80552 0.29033 0.0
C595 C 0.55684 0.79548 0.27267 0.0
C596 C 0.58271 0.75958 0.23465 0.0
C597 C 0.59775 0.74998 0.22219 0.0
C598 C 0.59252 0.73303 0.21063 0.0
C599 C 0.57192 0.72541 0.21088 0.0
C600 C 0.55691 0.73478 0.22381 0.0
C601 C 0.56227 0.75175 0.23558 0.0
C602 C 0.58237 0.80377 0.22984 0.0
C603 C 0.59472 0.82115 0.22948 0.0
C604 C 0.58821 0.83801 0.21823 0.0
C605 C 0.56901 0.83786 0.20745 0.0
C606 C 0.55671 0.82036 0.20778 0.0
C607 C 0.56334 0.80347 0.2189 0.0
P608 P 0.29952 0.61392 0.2633 0.0
H609 H 0.28669 0.62384 0.30547 0.0
H610 H 0.25942 0.6101 0.32786 0.0
H611 H 0.24906 0.56206 0.28422 0.0
H612 H 0.27648 0.57583 0.26192 0.0
H613 H 0.33783 0.63148 0.24775 0.0
H614 H 0.36901 0.61672 0.23196 0.0
H615 H 0.34835 0.55758 0.2503 0.0
H616 H 0.31689 0.57261 0.26606 0.0
H617 H 0.2649 0.639 0.24809 0.0
H618 H 0.30142 0.58828 0.22643 0.0
O619 O 0.30268 0.63768 0.27096 0.0
H620 H 0.24311 0.63736 0.2169 0.0
H621 H 0.27976 0.58637 0.19572 0.0
C622 C 0.28355 0.60094 0.28196 0.0
C623 C 0.2789 0.61011 0.3009 0.0
C624 C 0.26317 0.60233 0.31363 0.0
C625 C 0.25185 0.58517 0.30766 0.0
C626 C 0.25753 0.57525 0.2893 0.0
C627 C 0.27322 0.58311 0.27653 0.0
C628 C 0.32513 0.6032 0.25829 0.0
C629 C 0.34037 0.61541 0.24911 0.0
C630 C 0.35826 0.60691 0.24004 0.0
C631 C 0.36116 0.58594 0.23976 0.0
C632 C 0.34648 0.57378 0.25011 0.0
C633 C 0.32858 0.58237 0.25932 0.0
C634 C 0.28507 0.61407 0.23942 0.0
C635 C 0.26846 0.62775 0.23649 0.0
C636 C 0.25596 0.62671 0.21875 0.0
C637 C 0.25984 0.61185 0.20374 0.0
C638 C 0.27666 0.59832 0.2067 0.0
C639 C 0.28907 0.59936 0.22439 0.0
P640 P 0.77046 0.77641 0.44295 0.0
H641 H 0.78328 0.73889 0.42344 0.0
H642 H 0.80518 0.71129 0.43501 0.0
H643 H 0.80349 0.73509 0.49715 0.0
H644 H 0.78276 0.76375 0.48483 0.0
H645 H 0.74468 0.80959 0.42995 0.0
H646 H 0.71568 0.82813 0.44571 0.0
H647 H 0.71556 0.78644 0.49676 0.0
H648 H 0.74476 0.76762 0.48064 0.0
H649 H 0.80964 0.78191 0.42018 0.0
H650 H 0.77756 0.81018 0.47132 0.0
O651 O 0.7655 0.7731 0.41789 0.0
H652 H 0.83799 0.80671 0.42292 0.0
H653 H 0.80548 0.83503 0.47384 0.0
C654 C 0.7809 0.75324 0.45333 0.0
C655 C 0.78711 0.73797 0.43968 0.0
C656 C 0.79971 0.72199 0.44642 0.0
C657 C 0.80634 0.72073 0.46712 0.0
C658 C 0.79911 0.73559 0.48103 0.0
C659 C 0.78681 0.75184 0.47412 0.0
C660 C 0.74692 0.78724 0.45409 0.0
C661 C 0.73825 0.8042 0.44439 0.0
C662 C 0.7218 0.81492 0.45352 0.0
C663 C 0.71356 0.80894 0.47264 0.0
C664 C 0.72165 0.79142 0.48203 0.0
C665 C 0.73837 0.78069 0.47287 0.0
C666 C 0.79121 0.79456 0.44513 0.0
C667 C 0.80862 0.79353 0.43186 0.0
C668 C 0.82481 0.8076 0.43349 0.0
C669 C 0.82371 0.82294 0.44837 0.0
C670 C 0.80647 0.82361 0.46194 0.0
C671 C 0.79048 0.80941 0.46048 0.0
P672 P 0.76433 0.27124 0.46184 0.0
H673 H 0.7218 0.26795 0.44498 0.0
H674 H 0.69078 0.24959 0.45627 0.0
H675 H 0.72289 0.23319 0.51265 0.0
H676 H 0.75382 0.25206 0.50138 0.0
H677 H 0.76517 0.31319 0.44807 0.0
H678 H 0.7827 0.34276 0.46204 0.0
H679 H 0.79854 0.30941 0.51716 0.0
H680 H 0.78114 0.27974 0.50292 0.0
H681 H 0.76611 0.2271 0.46619 0.0
H682 H 0.80999 0.27611 0.4611 0.0
O683 O 0.76102 0.27568 0.43671 0.0
H684 H 0.79544 0.20346 0.47011 0.0
H685 H 0.83936 0.25255 0.46512 0.0
C686 C 0.74025 0.2611 0.47219 0.0
C687 C 0.72209 0.26071 0.45993 0.0
C688 C 0.70437 0.25009 0.46637 0.0
C689 C 0.70447 0.23958 0.4852 0.0
C690 C 0.72223 0.24114 0.49809 0.0
C691 C 0.73996 0.25189 0.49165 0.0
C692 C 0.77199 0.29423 0.4744 0.0
C693 C 0.77196 0.31235 0.46337 0.0
C694 C 0.78197 0.3293 0.47141 0.0
C695 C 0.79226 0.32836 0.4906 0.0
C696 C 0.79104 0.31051 0.50219 0.0
C697 C 0.78091 0.29361 0.49417 0.0
C698 C 0.78581 0.2535 0.46418 0.0
C699 C 0.78201 0.23285 0.46619 0.0
C700 C 0.79881 0.21932 0.4684 0.0
C701 C 0.81972 0.22618 0.46821 0.0
C702 C 0.82345 0.24679 0.46533 0.0
C703 C 0.80664 0.2603 0.46323 0.0
P704 P 0.27528 0.76682 0.48896 0.0
H705 H 0.31802 0.76617 0.47239 0.0
H706 H 0.34991 0.78367 0.48295 0.0
H707 H 0.31951 0.8015 0.53976 0.0
H708 H 0.28751 0.78402 0.52897 0.0
H709 H 0.26076 0.73377 0.46328 0.0
H710 H 0.24126 0.70358 0.47143 0.0
H711 H 0.25134 0.7142 0.53645 0.0
H712 H 0.27082 0.74489 0.52804 0.0
H713 H 0.27377 0.8106 0.49139 0.0
H714 H 0.23166 0.76137 0.50382 0.0
O715 O 0.27696 0.76906 0.46337 0.0
H716 H 0.24586 0.83451 0.50046 0.0
H717 H 0.20415 0.78505 0.51354 0.0
C718 C 0.30027 0.77418 0.4997 0.0
C719 C 0.31838 0.77339 0.48737 0.0
C720 C 0.33667 0.78337 0.49347 0.0
C721 C 0.33714 0.79429 0.51205 0.0
C722 C 0.31951 0.79354 0.52518 0.0
C723 C 0.30125 0.78345 0.5191 0.0
C724 C 0.26744 0.74152 0.49505 0.0
C725 C 0.25947 0.72932 0.47928 0.0
C726 C 0.24824 0.71196 0.48399 0.0
C727 C 0.24458 0.70648 0.50462 0.0
C728 C 0.25369 0.71811 0.52041 0.0
C729 C 0.26508 0.73549 0.51564 0.0
C730 C 0.25505 0.78417 0.49729 0.0
C731 C 0.25869 0.80491 0.49647 0.0
C732 C 0.24276 0.81856 0.50179 0.0
C733 C 0.22281 0.81168 0.50787 0.0
C734 C 0.21929 0.79085 0.50883 0.0
C735 C 0.23519 0.77724 0.50342 0.0
P736 P 0.26261 0.25319 0.5663 0.0
H737 H 0.30788 0.24858 0.57305 0.0
H738 H 0.33446 0.22739 0.55675 0.0
H739 H 0.28942 0.21031 0.50999 0.0
H740 H 0.26264 0.23114 0.5269 0.0
H741 H 0.24616 0.2885 0.58716 0.0
H742 H 0.22742 0.31828 0.57499 0.0
H743 H 0.23807 0.29974 0.51196 0.0
H744 H 0.25714 0.26986 0.52435 0.0
H745 H 0.25118 0.22142 0.59536 0.0
H746 H 0.22588 0.24733 0.53954 0.0
O747 O 0.27155 0.25671 0.59025 0.0
H748 H 0.22188 0.19773 0.59646 0.0
H749 H 0.197 0.22359 0.54027 0.0
C750 C 0.28318 0.24127 0.55137 0.0
C751 C 0.30378 0.24055 0.5591 0.0
C752 C 0.31906 0.22845 0.54965 0.0
C753 C 0.3141 0.21689 0.53212 0.0
C754 C 0.29372 0.21865 0.52369 0.0
C755 C 0.2784 0.23072 0.53325 0.0
C756 C 0.25335 0.27709 0.55668 0.0
C757 C 0.24508 0.2911 0.57071 0.0
C758 C 0.2343 0.30815 0.56372 0.0
C759 C 0.23125 0.31136 0.54251 0.0
C760 C 0.24011 0.2976 0.52841 0.0
C761 C 0.25117 0.28063 0.53545 0.0
C762 C 0.24052 0.23641 0.56761 0.0
C763 C 0.23924 0.22215 0.58345 0.0
C764 C 0.22255 0.20854 0.58399 0.0
C765 C 0.20697 0.20887 0.56855 0.0
C766 C 0.2084 0.22321 0.55269 0.0
C767 C 0.22504 0.23679 0.5522 0.0
Zn768 Zn 0.96747 0.99679 0.46704 0.0
Zn769 Zn 0.97288 0.04568 0.47208 0.0
O770 O 0.98845 0.01922 0.47149 0.0
H771 H 0.00261 0.01685 0.47635 0.0
C772 C 0.95558 0.9801 0.51551 0.0
O773 O 0.94961 0.99883 0.51246 0.0
Zn774 Zn 0.05954 0.03426 0.53996 0.0
Zn775 Zn 0.05098 0.98631 0.54411 0.0
O776 O 0.03662 0.01372 0.54335 0.0
H777 H 0.02295 0.016 0.54946 0.0
Zn778 Zn 0.98178 1.00057 0.54501 0.0
O779 O 0.98886 0.02434 0.52684 0.0
Zn780 Zn 0.98912 0.04818 0.54531 0.0
H781 H 0.99704 0.02316 0.51434 0.0
Zn782 Zn 0.04698 0.99368 0.46254 0.0
O783 O 0.04356 0.01635 0.48279 0.0
H784 H 0.03622 0.01492 0.49575 0.0
Zn785 Zn 0.04613 0.0415 0.46626 0.0
C786 C 0.073 0.96954 0.48965 0.0
O787 O 0.07659 0.98743 0.49746 0.0
O788 O 0.93932 0.00845 0.457 0.0
O789 O 0.94329 0.04158 0.46077 0.0
O790 O 0.08256 0.9889 0.54961 0.0
O791 O 0.08751 0.02198 0.5496 0.0
O792 O 0.97043 0.00824 0.57406 0.0
O793 O 0.97514 0.04134 0.57241 0.0
C794 C 0.007 0.0637 0.45113 0.0
O795 O 0.05838 0.00308 0.43446 0.0
O796 O 0.06036 0.03624 0.43867 0.0
O797 O 0.0385 0.96441 0.56337 0.0
C798 C 0.93243 0.0264 0.45512 0.0
O799 O 0.97755 0.97149 0.45063 0.0
C800 C 0.03362 0.06376 0.5598 0.0
O801 O 0.96932 0.97632 0.52926 0.0
C802 C 0.09436 0.00406 0.55235 0.0
O803 O 0.06039 0.96792 0.47452 0.0
C804 C 0.96806 0.07014 0.51249 0.0
O805 O 0.98719 0.0653 0.45295 0.0
O806 O 0.01645 0.05068 0.46208 0.0
C807 C 0.96888 0.02574 0.58202 0.0
O808 O 0.05279 0.0586 0.55755 0.0
O809 O 0.01993 0.05372 0.54995 0.0
C810 C 0.06551 0.05917 0.50192 0.0
O811 O 0.9728 0.07075 0.53157 0.0
O812 O 0.97481 0.05551 0.50166 0.0
C813 C 0.06341 0.02044 0.42782 0.0
O814 O 0.06186 0.06226 0.48288 0.0
O815 O 0.05967 0.04272 0.51001 0.0
C816 C 0.03032 0.96943 0.58054 0.0
O817 O 0.02813 0.98861 0.58496 0.0
C818 C 0.98568 0.97435 0.43295 0.0
O819 O 0.98811 0.99291 0.42645 0.0
Zn820 Zn 0.47746 0.05965 0.03119 0.0
Zn821 Zn 0.48528 0.05614 0.98233 0.0
O822 O 0.48517 0.04032 0.00834 0.0
H823 H 0.49175 0.02733 0.01044 0.0
C824 C 0.54952 0.08329 0.05881 0.0
O825 O 0.55656 0.09165 0.04182 0.0
Zn826 Zn 0.54069 0.97761 0.97725 0.0
Zn827 Zn 0.55061 0.98242 0.02576 0.0
O828 O 0.5372 0.99589 0.00128 0.0
H829 H 0.52674 0.00648 0.00204 0.0
Zn830 Zn 0.56323 0.04935 0.03553 0.0
O831 O 0.54373 0.04603 0.01121 0.0
Zn832 Zn 0.56117 0.04673 0.98566 0.0
H833 H 0.5288 0.04357 0.01206 0.0
Zn834 Zn 0.46569 0.98578 0.02925 0.0
O835 O 0.48632 0.97675 0.00687 0.0
H836 H 0.4967 0.96612 0.00817 0.0
Zn837 Zn 0.46837 0.98318 0.98259 0.0
C838 C 0.49543 0.98147 0.06291 0.0
O839 O 0.50845 0.9866 0.0481 0.0
O840 O 0.46406 0.08597 0.02027 0.0
O841 O 0.47037 0.08313 0.9866 0.0
O842 O 0.56381 0.95497 0.01876 0.0
O843 O 0.5567 0.952 0.98532 0.0
O844 O 0.59267 0.05858 0.02665 0.0
O845 O 0.59151 0.05579 0.99245 0.0
C846 C 0.4632 0.02293 0.96336 0.0
O847 O 0.4354 0.97671 0.02266 0.0
O848 O 0.43833 0.97446 0.9886 0.0
O849 O 0.57121 1.00066 0.04109 0.0
C850 C 0.46255 0.09271 0.00191 0.0
O851 O 0.46271 0.04601 0.0558 0.0
C852 C 0.56514 0.00892 0.95775 0.0
O853 O 0.55052 0.06429 0.06058 0.0
C854 C 0.56522 0.94532 0.00183 0.0
O855 O 0.47583 0.98086 0.05909 0.0
C856 C 0.52818 0.06939 0.96465 0.0
O857 O 0.46775 0.04136 0.96114 0.0
O858 O 0.47183 0.01286 0.97768 0.0
C859 C 0.60137 0.06027 0.00904 0.0
O860 O 0.5585 0.99105 0.95543 0.0
O861 O 0.55852 0.01889 0.97323 0.0
C862 C 0.4987 0.96584 0.95524 0.0
O863 O 0.54801 0.06688 0.96615 0.0
O864 O 0.51627 0.05837 0.97553 0.0
C865 C 0.42754 0.97253 0.0051 0.0
O866 O 0.47894 0.96801 0.95755 0.0
O867 O 0.51062 0.97357 0.96875 0.0
C868 C 0.58824 0.00425 0.03155 0.0
O869 O 0.59107 0.99663 0.01304 0.0
C870 C 0.4495 0.03241 0.05137 0.0
O871 O 0.44614 0.02799 0.03189 0.0
Zn872 Zn 0.975 0.49694 0.97088 0.0
Zn873 Zn 0.97138 0.54403 0.96895 0.0
O874 O 0.99225 0.52169 0.96404 0.0
H875 H 0.00405 0.52186 0.95464 0.0
C876 C 0.98271 0.45589 0.04274 0.0
O877 O 0.00245 0.45871 0.04792 0.0
Zn878 Zn 0.06203 0.54583 0.04889 0.0
Zn879 Zn 0.08076 0.50092 0.0557 0.0
O880 O 0.05388 0.5168 0.04964 0.0
H881 H 0.04029 0.51138 0.04602 0.0
Zn882 Zn 0.97931 0.4999 0.05047 0.0
O883 O 0.98343 0.52071 0.02786 0.0
Zn884 Zn 0.98522 0.54659 0.04375 0.0
H885 H 0.98961 0.51786 0.01454 0.0
Zn886 Zn 0.0439 0.50532 0.98047 0.0
O887 O 0.03512 0.52982 0.99701 0.0
H888 H 0.0268 0.5297 0.00948 0.0
Zn889 Zn 0.03946 0.55354 0.97826 0.0
C890 C 0.04443 0.46506 0.00249 0.0
O891 O 0.02377 0.4658 0.00177 0.0
O892 O 0.94333 0.50236 0.96685 0.0
O893 O 0.94224 0.53513 0.95997 0.0
O894 O 0.10572 0.51927 0.06361 0.0
O895 O 0.09209 0.54978 0.05832 0.0
O896 O 0.96581 0.51208 0.07666 0.0
O897 O 0.96853 0.54486 0.07044 0.0
C898 C 0.00012 0.57237 0.95681 0.0
O899 O 0.06194 0.5133 0.95547 0.0
O900 O 0.06022 0.54676 0.95515 0.0
O901 O 0.07861 0.47291 0.07026 0.0
C902 C 0.93328 0.51803 0.9611 0.0
O903 O 0.98337 0.4702 0.9564 0.0
C904 C 0.0234 0.5615 0.06483 0.0
O905 O 0.97017 0.47089 0.04234 0.0
C906 C 0.10737 0.53839 0.06375 0.0
O907 O 0.05502 0.47966 0.99535 0.0
C908 C 0.9699 0.56796 0.00772 0.0
O909 O 0.98072 0.56879 0.95399 0.0
O910 O 0.01084 0.55937 0.9667 0.0
C911 C 0.96239 0.53034 0.08177 0.0
O912 O 0.04318 0.5615 0.06764 0.0
O913 O 0.01571 0.55086 0.05043 0.0
C914 C 0.05618 0.57408 0.01341 0.0
O915 O 0.97412 0.56985 0.02678 0.0
O916 O 0.97261 0.5509 0.99919 0.0
C917 C 0.06728 0.53018 0.94786 0.0
O918 O 0.04958 0.57704 0.99513 0.0
O919 O 0.05696 0.55619 0.02027 0.0
C920 C 0.0628 0.46153 0.06773 0.0
O921 O 0.04756 0.46742 0.05539 0.0
C922 C 0.00124 0.46569 0.9488 0.0
O923 O 0.01697 0.47826 0.95087 0.0
Zn924 Zn 0.50325 0.48424 -2e-05 0.0
Zn925 Zn 0.5003 0.48178 0.04889 0.0
O926 O 0.50646 0.50091 0.02587 0.0
H927 H 0.51447 0.51315 0.02698 0.0
C928 C 0.53126 0.45458 0.95887 0.0
O929 O 0.52117 0.44969 0.97581 0.0
Zn930 Zn 0.55207 0.54965 0.04748 0.0
Zn931 Zn 0.54901 0.56048 0.00039 0.0
O932 O 0.54864 0.53645 0.01988 0.0
H933 H 0.55099 0.52257 0.01606 0.0
Zn934 Zn 0.56199 0.47316 0.98841 0.0
O935 O 0.54573 0.47155 0.01536 0.0
Zn936 Zn 0.56745 0.47474 0.03791 0.0
H937 H 0.53255 0.46451 0.01669 0.0
Zn938 Zn 0.48304 0.55388 0.99411 0.0
O939 O 0.50129 0.55589 0.01964 0.0
H940 H 0.5142 0.56348 0.01957 0.0
Zn941 Zn 0.48158 0.55247 0.04376 0.0
C942 C 0.50654 0.57927 0.96525 0.0
O943 O 0.51021 0.58896 0.98254 0.0
O944 O 0.48449 0.45957 0.00509 0.0
O945 O 0.48042 0.45986 0.03923 0.0
O946 O 0.56713 0.58369 0.01188 0.0
O947 O 0.5709 0.57382 0.04447 0.0
O948 O 0.59269 0.46411 0.99297 0.0
O949 O 0.59637 0.46593 0.02711 0.0
C950 C 0.48232 0.51552 0.07025 0.0
O951 O 0.45259 0.56249 0.00092 0.0
O952 O 0.45209 0.56198 0.03533 0.0
O953 O 0.55163 0.55501 0.96889 0.0
C954 C 0.47636 0.45245 0.02149 0.0
O955 O 0.4983 0.4994 0.97237 0.0
C956 C 0.56984 0.51191 0.06481 0.0
O957 O 0.54819 0.46462 0.96031 0.0
C958 C 0.5749 0.58606 0.02986 0.0
O959 O 0.49552 0.56339 0.96585 0.0
C960 C 0.53975 0.4576 0.06622 0.0
O961 O 0.48806 0.49731 0.07269 0.0
O962 O 0.48339 0.5233 0.05235 0.0
C963 C 0.6038 0.46197 0.00922 0.0
O964 O 0.56525 0.53036 0.06782 0.0
O965 O 0.56591 0.50393 0.04738 0.0
C966 C 0.51227 0.56878 0.06971 0.0
O967 O 0.55914 0.45658 0.06156 0.0
O968 O 0.52847 0.46997 0.0561 0.0
C969 C 0.44302 0.56529 0.018 0.0
O970 O 0.4924 0.56898 0.06758 0.0
O971 O 0.52299 0.55828 0.05699 0.0
C972 C 0.54657 0.53851 0.96034 0.0
O973 O 0.53867 0.52405 0.97168 0.0
C974 C 0.4828 0.51156 0.97165 0.0
O975 O 0.47132 0.51417 0.98831 0.0
Zn976 Zn 0.98386 0.50692 0.49285 0.0
Zn977 Zn 0.98169 0.55475 0.48798 0.0
O978 O 0.00154 0.53209 0.49333 0.0
H979 H 0.01423 0.53328 0.50145 0.0
C980 C 0.93683 0.48713 0.54066 0.0
O981 O 0.93132 0.50613 0.53875 0.0
Zn982 Zn 0.06012 0.5524 0.54513 0.0
Zn983 Zn 0.06684 0.50625 0.54039 0.0
O984 O 0.04369 0.52706 0.54489 0.0
H985 H 0.0295 0.52558 0.53972 0.0
Zn986 Zn 0.9724 0.50669 0.55966 0.0
O987 O 0.97591 0.52995 0.53969 0.0
Zn988 Zn 0.9822 0.55385 0.55753 0.0
H989 H 0.97025 0.52988 0.52586 0.0
Zn990 Zn 0.06214 0.49788 0.46465 0.0
O991 O 0.05334 0.51979 0.4849 0.0
H992 H 0.05149 0.51812 0.49959 0.0
Zn993 Zn 0.05443 0.54595 0.46969 0.0
C994 C 0.09028 0.47387 0.49016 0.0
O995 O 0.09475 0.49197 0.49694 0.0
O996 O 0.95295 0.51181 0.48379 0.0
O997 O 0.95398 0.54446 0.47618 0.0
O998 O 0.09527 0.51518 0.55278 0.0
O999 O 0.08826 0.54742 0.55934 0.0
O1000 O 0.96359 0.51671 0.5885 0.0
O1001 O 0.96901 0.54966 0.58587 0.0
C1002 C 0.01473 0.57333 0.46397 0.0
O1003 O 0.07548 0.50938 0.43814 0.0
O1004 O 0.0664 0.54165 0.44075 0.0
O1005 O 0.05803 0.47734 0.54805 0.0
C1006 C 0.94428 0.52769 0.47664 0.0
O1007 O -0.00113 0.48213 0.48022 0.0
C1008 C 0.02379 0.57196 0.56436 0.0
O1009 O 0.95448 0.48286 0.5489 0.0
C1010 C 0.10043 0.53207 0.56049 0.0
O1011 O 0.0762 0.47197 0.47637 0.0
C1012 C 0.96769 0.58002 0.52622 0.0
O1013 O 0.99547 0.57514 0.46919 0.0
O1014 O 0.02505 0.55825 0.4708 0.0
C1015 C 0.96253 0.53442 0.59596 0.0
O1016 O 0.04346 0.5737 0.56098 0.0
O1017 O 0.01385 0.55729 0.55663 0.0
C1018 C 0.07771 0.56593 0.50309 0.0
O1019 O 0.96848 0.57889 0.54573 0.0
O1020 O 0.97659 0.56602 0.51611 0.0
C1021 C 0.07521 0.52721 0.43093 0.0
O1022 O 0.07569 0.56366 0.48374 0.0
O1023 O 0.06397 0.5582 0.51487 0.0
C1024 C 0.0452 0.47611 0.56302 0.0
O1025 O 0.03833 0.49277 0.5717 0.0
C1026 C 0.01157 0.48496 0.46536 0.0
O1027 O 0.01488 0.50341 0.45892 0.0
Zn1028 Zn 0.47475 0.9941 0.47179 0.0
Zn1029 Zn 0.47253 0.04243 0.47927 0.0
O1030 O 0.49256 0.0192 0.4742 0.0
H1031 H 0.50737 0.01873 0.47755 0.0
C1032 C 0.48725 0.95353 0.53033 0.0
O1033 O 0.50736 0.95089 0.53427 0.0
Zn1034 Zn 0.5679 0.04863 0.53867 0.0
Zn1035 Zn 0.57012 1.0007 0.55105 0.0
O1036 O 0.55104 0.02306 0.54044 0.0
H1037 H 0.53852 0.02062 0.53243 0.0
Zn1038 Zn 0.49588 0.99483 0.5451 0.0
O1039 O 0.49737 0.02125 0.52981 0.0
Zn1040 Zn 0.49461 0.04366 0.55065 0.0
H1041 H 0.50374 0.02261 0.51636 0.0
Zn1042 Zn 0.55189 0.99855 0.4711 0.0
O1043 O 0.54827 0.02426 0.48796 0.0
H1044 H 0.55004 0.01127 0.48161 0.0
Zn1045 Zn 0.54557 0.04692 0.46771 0.0
C1046 C 0.56072 0.95829 0.4902 0.0
O1047 O 0.54016 0.95622 0.48965 0.0
O1048 O 0.4437 0.00144 0.4668 0.0
O1049 O 0.44273 0.03481 0.47012 0.0
O1050 O 0.59849 0.01199 0.56024 0.0
O1051 O 0.59803 0.04385 0.54934 0.0
O1052 O 0.4879 0.99962 0.57518 0.0
O1053 O 0.48453 0.03284 0.57852 0.0
C1054 C 0.50246 0.06892 0.46068 0.0
O1055 O 0.55815 0.00435 0.44038 0.0
O1056 O 0.55517 0.03771 0.43918 0.0
O1057 O 0.55873 0.97624 0.5681 0.0
C1058 C 0.43367 0.01811 0.46617 0.0
O1059 O 0.48628 0.9685 0.45644 0.0
C1060 C 0.53476 0.06946 0.56115 0.0
O1061 O 0.47916 0.97094 0.53258 0.0
C1062 C 0.60731 0.02902 0.5582 0.0
O1063 O 0.56884 0.97455 0.48375 0.0
C1064 C 0.46782 0.06349 0.52087 0.0
O1065 O 0.48282 0.06693 0.46391 0.0
O1066 O 0.51474 0.05495 0.46689 0.0
C1067 C 0.48319 0.01506 0.5859 0.0
O1068 O 0.55435 0.06949 0.55713 0.0
O1069 O 0.52373 0.05552 0.55322 0.0
C1070 C 0.57096 0.07136 0.49558 0.0
O1071 O 0.47411 0.06432 0.53946 0.0
O1072 O 0.47417 0.04901 0.50959 0.0
C1073 C 0.55919 0.02086 0.43047 0.0
O1074 O 0.56393 0.06972 0.47726 0.0
O1075 O 0.56578 0.05803 0.50876 0.0
C1076 C 0.5538 0.95949 0.55996 0.0
O1077 O 0.55482 0.95755 0.53983 0.0
C1078 C 0.50403 0.96794 0.44735 0.0
O1079 O 0.51607 0.98391 0.44791 0.0
H1080 H 0.16538 0.21454 0.55865 0.0
H1081 H 0.13871 0.18872 0.55346 0.0
H1082 H 0.18313 0.1431 0.57281 0.0
H1083 H 0.21011 0.1687 0.57722 0.0
H1084 H 0.16642 0.13362 0.53719 0.0
H1085 H 0.13977 0.15593 0.60192 0.0
H1086 H 0.12705 0.18018 0.62791 0.0
H1087 H 0.075 0.19612 0.58879 0.0
H1088 H 0.08765 0.17226 0.56232 0.0
H1089 H 0.09606 0.0533 0.5305 0.0
H1090 H 0.11674 0.07888 0.54831 0.0
H1091 H 0.08102 0.12548 0.51764 0.0
H1092 H 0.06006 0.09976 0.49999 0.0
H1093 H 0.09237 0.13339 0.56166 0.0
H1094 H 0.12243 0.11469 0.49554 0.0
H1095 H 0.13493 0.09015 0.46968 0.0
H1096 H 0.18042 0.06721 0.51286 0.0
H1097 H 0.16796 0.09146 0.53908 0.0
C1098 C 0.16943 0.19901 0.56192 0.0
C1099 C 0.18994 0.19366 0.56816 0.0
C1100 C 0.15408 0.1843 0.5592 0.0
C1101 C 0.15888 0.16398 0.56284 0.0
C1102 C 0.17907 0.1587 0.56994 0.0
C1103 C 0.19444 0.17339 0.5726 0.0
C1104 C 0.14369 0.14807 0.55711 0.0
C1105 C 0.15037 0.13341 0.54292 0.0
C1106 C 0.12254 0.14807 0.56411 0.0
C1107 C 0.11484 0.16246 0.57999 0.0
C1108 C 0.12575 0.16476 0.59873 0.0
C1109 C 0.11852 0.17841 0.61357 0.0
C1110 C 0.10031 0.18976 0.60994 0.0
C1111 C 0.08917 0.18737 0.59153 0.0
C1112 C 0.09636 0.17378 0.5766 0.0
C1113 C 0.0921 0.06895 0.52821 0.0
C1114 C 0.07632 0.07458 0.5142 0.0
C1115 C 0.104 0.08355 0.53823 0.0
C1116 C 0.10032 0.10402 0.5343 0.0
C1117 C 0.08392 0.10974 0.52099 0.0
C1118 C 0.07212 0.09509 0.51083 0.0
C1119 C 0.1153 0.11919 0.54193 0.0
C1120 C 0.10854 0.13366 0.55626 0.0
C1121 C 0.13642 0.11912 0.53513 0.0
C1122 C 0.14412 0.10472 0.51932 0.0
C1123 C 0.13499 0.1043 0.49956 0.0
C1124 C 0.14208 0.09047 0.48484 0.0
C1125 C 0.15842 0.07709 0.48965 0.0
C1126 C 0.16774 0.07756 0.50917 0.0
C1127 C 0.16069 0.09135 0.52397 0.0
H1128 H 0.16389 0.06638 0.47823 0.0
H1129 H 0.09485 0.2004 0.62141 0.0
H1130 H 0.82258 0.19578 0.49635 0.0
H1131 H 0.85174 0.17217 0.5015 0.0
H1132 H 0.88651 0.20089 0.45269 0.0
H1133 H 0.85712 0.22438 0.44715 0.0
H1134 H 0.88743 0.16014 0.44921 0.0
H1135 H 0.90146 0.20811 0.50169 0.0
H1136 H 0.89344 0.23042 0.53109 0.0
H1137 H 0.87733 0.17928 0.56813 0.0
H1138 H 0.88494 0.15667 0.53887 0.0
H1139 H 0.97423 0.0939 0.47849 0.0
H1140 H 0.95282 0.12304 0.46802 0.0
H1141 H 0.90907 0.11057 0.51729 0.0
H1142 H 0.93096 0.08223 0.52822 0.0
H1143 H 0.91882 0.14823 0.51821 0.0
H1144 H 0.88632 0.10785 0.45845 0.0
H1145 H 0.8894 0.08661 0.42753 0.0
H1146 H 0.94047 0.12284 0.40554 0.0
H1147 H 0.93682 0.14496 0.43603 0.0
C1148 C 0.83638 0.19701 0.48663 0.0
C1149 C 0.83754 0.21192 0.47133 0.0
C1150 C 0.85313 0.18365 0.48974 0.0
C1151 C 0.87142 0.18496 0.47767 0.0
C1152 C 0.8726 0.19973 0.46227 0.0
C1153 C 0.85585 0.21318 0.4592 0.0
C1154 C 0.88885 0.1703 0.48073 0.0
C1155 C 0.89465 0.15783 0.46421 0.0
C1156 C 0.89815 0.16716 0.5003 0.0
C1157 C 0.89367 0.1807 0.51802 0.0
C1158 C 0.89607 0.20162 0.51606 0.0
C1159 C 0.89162 0.21433 0.53271 0.0
C1160 C 0.88485 0.20628 0.55146 0.0
C1161 C 0.88257 0.1855 0.5536 0.0
C1162 C 0.88698 0.17273 0.53699 0.0
C1163 C 0.95975 0.09716 0.48665 0.0
C1164 C 0.95406 0.08579 0.50399 0.0
C1165 C 0.94747 0.11379 0.48067 0.0
C1166 C 0.92912 0.11897 0.4917 0.0
C1167 C 0.92316 0.10702 0.50856 0.0
C1168 C 0.9356 0.09077 0.51475 0.0
C1169 C 0.91666 0.13744 0.48692 0.0
C1170 C 0.91191 0.15078 0.50313 0.0
C1171 C 0.90835 0.14144 0.4671 0.0
C1172 C 0.91161 0.12767 0.44959 0.0
C1173 C 0.89833 0.11111 0.44709 0.0
C1174 C 0.90009 0.09901 0.42957 0.0
C1175 C 0.91539 0.10313 0.41466 0.0
C1176 C 0.92874 0.11957 0.41715 0.0
C1177 C 0.9267 0.132 0.43445 0.0
H1178 H 0.91679 0.09371 0.40111 0.0
H1179 H 0.88141 0.21614 0.56433 0.0
H1180 H 0.86635 0.81694 0.44967 0.0
H1181 H 0.89359 0.84241 0.45528 0.0
H1182 H 0.84579 0.88883 0.45623 0.0
H1183 H 0.81861 0.86351 0.45064 0.0
H1184 H 0.88251 0.89979 0.43446 0.0
H1185 H 0.86182 0.87046 0.50008 0.0
H1186 H 0.85673 0.84221 0.52417 0.0
H1187 H 0.92243 0.82707 0.51986 0.0
H1188 H 0.92783 0.85509 0.49549 0.0
H1189 H 0.91885 0.98129 0.49375 0.0
H1190 H 0.90123 0.9534 0.47672 0.0
H1191 H 0.95321 0.91405 0.49236 0.0
H1192 H 0.97039 0.94175 0.5104 0.0
H1193 H 0.91942 0.89651 0.50181 0.0
H1194 H 0.94104 0.93104 0.44114 0.0
H1195 H 0.94533 0.95939 0.41696 0.0
H1196 H 0.87831 0.96481 0.41095 0.0
H1197 H 0.87349 0.93695 0.43546 0.0
C1198 C 0.86175 0.83262 0.45076 0.0
C1199 C 0.8404 0.83829 0.44992 0.0
C1200 C 0.87727 0.84711 0.454 0.0
C1201 C 0.87164 0.86745 0.45627 0.0
C1202 C 0.85044 0.87321 0.45448 0.0
C1203 C 0.83493 0.85874 0.45147 0.0
C1204 C 0.88744 0.88265 0.46216 0.0
C1205 C 0.89064 0.89919 0.44917 0.0
C1206 C 0.8984 0.88146 0.48109 0.0
C1207 C 0.89517 0.86468 0.49578 0.0
C1208 C 0.87514 0.86099 0.50413 0.0
C1209 C 0.8722 0.84505 0.51786 0.0
C1210 C 0.88923 0.83281 0.52349 0.0
C1211 C 0.90925 0.83653 0.51545 0.0
C1212 C 0.91225 0.85244 0.50168 0.0
C1213 C 0.92661 0.96674 0.49341 0.0
C1214 C 0.94587 0.96364 0.50362 0.0
C1215 C 0.91661 0.95081 0.48346 0.0
C1216 C 0.92597 0.93159 0.48298 0.0
C1217 C 0.94563 0.92869 0.49253 0.0
C1218 C 0.95543 0.94453 0.50286 0.0
C1219 C 0.91434 0.91418 0.4743 0.0
C1220 C 0.91184 0.89711 0.48683 0.0
C1221 C 0.90404 0.91497 0.4549 0.0
C1222 C 0.90692 0.93197 0.44033 0.0
C1223 C 0.92722 0.93847 0.43491 0.0
C1224 C 0.92974 0.95448 0.42118 0.0
C1225 C 0.91214 0.96398 0.41261 0.0
C1226 C 0.89194 0.95751 0.41771 0.0
C1227 C 0.8893 0.94162 0.43153 0.0
H1228 H 0.91416 0.97623 0.40188 0.0
H1229 H 0.88693 0.82048 0.53413 0.0
H1230 H 0.18188 0.80845 0.49553 0.0
H1231 H 0.15397 0.83363 0.49838 0.0
H1232 H 0.19612 0.8732 0.53079 0.0
H1233 H 0.22414 0.84772 0.52856 0.0
H1234 H 0.15334 0.8747 0.54559 0.0
H1235 H 0.19247 0.87946 0.482 0.0
H1236 H 0.20832 0.86617 0.45001 0.0
H1237 H 0.14728 0.84831 0.42849 0.0
H1238 H 0.13111 0.86122 0.46052 0.0
H1239 H 0.10572 0.96871 0.51711 0.0
H1240 H 0.1285 0.94007 0.52537 0.0
H1241 H 0.09045 0.90183 0.48681 0.0
H1242 H 0.06781 0.93042 0.47822 0.0
H1243 H 0.13081 0.89922 0.47667 0.0
H1244 H 0.09095 0.89665 0.5392 0.0
H1245 H 0.07496 0.91145 0.57039 0.0
H1246 H 0.13632 0.92578 0.59374 0.0
H1247 H 0.15263 0.91129 0.56246 0.0
C1248 C 0.18511 0.82225 0.50378 0.0
C1249 C 0.20531 0.82614 0.51168 0.0
C1250 C 0.16915 0.83666 0.50531 0.0
C1251 C 0.17309 0.85531 0.51461 0.0
C1252 C 0.19281 0.85887 0.52356 0.0
C1253 C 0.20885 0.84441 0.52205 0.0
C1254 C 0.15743 0.87177 0.51273 0.0
C1255 C 0.14847 0.88021 0.53057 0.0
C1256 C 0.15095 0.87872 0.4931 0.0
C1257 C 0.16062 0.87111 0.47374 0.0
C1258 C 0.18245 0.87255 0.47051 0.0
C1259 C 0.19149 0.86511 0.45237 0.0
C1260 C 0.17882 0.85635 0.43725 0.0
C1261 C 0.15708 0.85507 0.44023 0.0
C1262 C 0.14797 0.86245 0.45837 0.0
C1263 C 0.10199 0.95413 0.51066 0.0
C1264 C 0.0851 0.95185 0.49684 0.0
C1265 C 0.11498 0.93776 0.51547 0.0
C1266 C 0.11115 0.91882 0.5067 0.0
C1267 C 0.09372 0.91634 0.49367 0.0
C1268 C 0.0808 0.93269 0.48878 0.0
C1269 C 0.12634 0.90206 0.50949 0.0
C1270 C 0.13541 0.89363 0.49175 0.0
C1271 C 0.13279 0.8952 0.52919 0.0
C1272 C 0.12304 0.90312 0.54839 0.0
C1273 C 0.10104 0.90306 0.55093 0.0
C1274 C 0.0919 0.91141 0.5686 0.0
C1275 C 0.10459 0.91975 0.58393 0.0
C1276 C 0.12649 0.91947 0.58177 0.0
C1277 C 0.13569 0.91116 0.56409 0.0
H1278 H 0.09744 0.92643 0.59746 0.0
H1279 H 0.18585 0.8506 0.4232 0.0
H1280 H 0.47363 0.17678 0.21885 0.0
H1281 H 0.48325 0.15235 0.19217 0.0
H1282 H 0.50788 0.20014 0.15447 0.0
H1283 H 0.4989 0.22457 0.1812 0.0
H1284 H 0.48261 0.17333 0.13266 0.0
H1285 H 0.54088 0.17157 0.1808 0.0
H1286 H 0.55705 0.16742 0.21514 0.0
H1287 H 0.53336 0.1072 0.21872 0.0
H1288 H 0.51678 0.1111 0.1845 0.0
H1289 H 0.5471 0.12422 0.06026 0.0
H1290 H 0.5327 0.14513 0.08782 0.0
H1291 H 0.51705 0.09197 0.12258 0.0
H1292 H 0.53183 0.07086 0.09514 0.0
H1293 H 0.53485 0.11923 0.14684 0.0
H1294 H 0.47827 0.11937 0.09883 0.0
H1295 H 0.46059 0.12275 0.06521 0.0
H1296 H 0.47919 0.18464 0.06175 0.0
H1297 H 0.49715 0.18156 0.09537 0.0
C1298 C 0.48124 0.18209 0.20495 0.0
C1299 C 0.48553 0.20265 0.2022 0.0
C1300 C 0.48663 0.16812 0.1897 0.0
C1301 C 0.49636 0.17447 0.17144 0.0
C1302 C 0.50029 0.19498 0.16844 0.0
C1303 C 0.49504 0.20893 0.18371 0.0
C1304 C 0.50281 0.15977 0.15548 0.0
C1305 C 0.49417 0.1616 0.13567 0.0
C1306 C 0.51734 0.14408 0.15969 0.0
C1307 C 0.52739 0.14171 0.18021 0.0
C1308 C 0.53896 0.1575 0.18899 0.0
C1309 C 0.54823 0.15519 0.20842 0.0
C1310 C 0.54618 0.13708 0.21913 0.0
C1311 C 0.5349 0.12123 0.21042 0.0
C1312 C 0.52558 0.12348 0.19101 0.0
C1313 C 0.54055 0.11693 0.07373 0.0
C1314 C 0.54058 0.09587 0.0755 0.0
C1315 C 0.53221 0.12892 0.08943 0.0
C1316 C 0.52352 0.1201 0.10712 0.0
C1317 C 0.52362 0.09908 0.10902 0.0
C1318 C 0.53204 0.08705 0.09332 0.0
C1319 C 0.51491 0.13297 0.12384 0.0
C1320 C 0.52314 0.13081 0.14382 0.0
C1321 C 0.49982 0.14825 0.11984 0.0
C1322 C 0.48921 0.15018 0.09954 0.0
C1323 C 0.47874 0.13365 0.09082 0.0
C1324 C 0.46863 0.13553 0.07177 0.0
C1325 C 0.46882 0.15389 0.06128 0.0
C1326 C 0.47908 0.17042 0.06987 0.0
C1327 C 0.48919 0.16863 0.08896 0.0
H1328 H 0.46097 0.15535 0.04653 0.0
H1329 H 0.55337 0.13531 0.23417 0.0
H1330 H 0.8212 0.57859 0.2185 0.0
H1331 H 0.85118 0.57974 0.1948 0.0
H1332 H 0.85758 0.5152 0.19861 0.0
H1333 H 0.82771 0.51396 0.22227 0.0
H1334 H 0.89538 0.53296 0.20052 0.0
H1335 H 0.83322 0.53802 0.1576 0.0
H1336 H 0.7996 0.55304 0.1461 0.0
H1337 H 0.83064 0.60895 0.13387 0.0
H1338 H 0.86441 0.59432 0.14557 0.0
H1339 H 0.94636 0.50327 0.10916 0.0
H1340 H 0.92295 0.50994 0.13811 0.0
H1341 H 0.9265 0.57365 0.12622 0.0
H1342 H 0.94994 0.56712 0.09694 0.0
H1343 H 0.88619 0.56127 0.13028 0.0
H1344 H 0.94955 0.55422 0.16882 0.0
H1345 H 0.98306 0.53846 0.17951 0.0
H1346 H 0.94999 0.48585 0.1995 0.0
H1347 H 0.91628 0.50117 0.18865 0.0
C1348 C 0.82896 0.56465 0.21421 0.0
C1349 C 0.82205 0.54617 0.22221 0.0
C1350 C 0.84611 0.56533 0.20072 0.0
C1351 C 0.85652 0.54754 0.19482 0.0
C1352 C 0.84986 0.52913 0.20304 0.0
C1353 C 0.83279 0.52844 0.21658 0.0
C1354 C 0.874 0.54787 0.17965 0.0
C1355 C 0.89336 0.53905 0.18512 0.0
C1356 C 0.87155 0.55638 0.15977 0.0
C1357 C 0.85128 0.56516 0.1527 0.0
C1358 C 0.83284 0.55357 0.15262 0.0
C1359 C 0.81376 0.562 0.14603 0.0
C1360 C 0.81297 0.58196 0.13932 0.0
C1361 C 0.83127 0.59351 0.13912 0.0
C1362 C 0.85038 0.58515 0.14572 0.0
C1363 C 0.94242 0.51874 0.11279 0.0
C1364 C 0.94994 0.53464 0.1006 0.0
C1365 C 0.92909 0.52253 0.12945 0.0
C1366 C 0.92308 0.5423 0.13441 0.0
C1367 C 0.93096 0.55828 0.12264 0.0
C1368 C 0.94437 0.55451 0.10594 0.0
C1369 C 0.90743 0.54594 0.15098 0.0
C1370 C 0.88839 0.5555 0.14579 0.0
C1371 C 0.91015 0.53805 0.17108 0.0
C1372 C 0.93038 0.52882 0.1778 0.0
C1373 C 0.94943 0.53924 0.17536 0.0
C1374 C 0.96846 0.53039 0.18147 0.0
C1375 C 0.96866 0.51115 0.19015 0.0
C1376 C 0.94981 0.50075 0.19277 0.0
C1377 C 0.93073 0.50952 0.18668 0.0
H1378 H 0.98341 0.50433 0.19486 0.0
H1379 H 0.79819 0.58846 0.13422 0.0
H1380 H 0.59163 0.86202 0.18166 0.0
H1381 H 0.57885 0.89096 0.16188 0.0
H1382 H 0.517 0.88371 0.18832 0.0
H1383 H 0.52965 0.85459 0.20786 0.0
H1384 H 0.51378 0.8877 0.14878 0.0
H1385 H 0.54993 0.92361 0.20141 0.0
H1386 H 0.57927 0.93336 0.22415 0.0
H1387 H 0.6161 0.94998 0.17139 0.0
H1388 H 0.58712 0.94003 0.1483 0.0
H1389 H 0.47326 0.97268 0.09783 0.0
H1390 H 0.48554 0.95289 0.12731 0.0
H1391 H 0.54817 0.95124 0.10154 0.0
H1392 H 0.53606 0.97113 0.07212 0.0
H1393 H 0.54903 0.95386 0.14367 0.0
H1394 H 0.5141 0.91351 0.09156 0.0
H1395 H 0.48436 0.90429 0.06903 0.0
H1396 H 0.44472 0.89686 0.12207 0.0
H1397 H 0.47418 0.90623 0.14491 0.0
C1398 C 0.57538 0.86678 0.18343 0.0
C1399 C 0.5616 0.85599 0.19619 0.0
C1400 C 0.56811 0.88337 0.1722 0.0
C1401 C 0.547 0.88967 0.17376 0.0
C1402 C 0.53334 0.87913 0.18684 0.0
C1403 C 0.54055 0.86245 0.19792 0.0
C1404 C 0.53877 0.90624 0.1606 0.0
C1405 C 0.52126 0.9023 0.14804 0.0
C1406 C 0.54875 0.92519 0.15927 0.0
C1407 C 0.56639 0.93087 0.1731 0.0
C1408 C 0.56437 0.92913 0.19463 0.0
C1409 C 0.58092 0.93474 0.2076 0.0
C1410 C 0.59955 0.94223 0.19922 0.0
C1411 C 0.60167 0.94414 0.17786 0.0
C1412 C 0.58518 0.93853 0.16483 0.0
C1413 C 0.48971 0.96835 0.0986 0.0
C1414 C 0.50358 0.97305 0.08244 0.0
C1415 C 0.49671 0.95708 0.11546 0.0
C1416 C 0.51765 0.95023 0.11635 0.0
C1417 C 0.53191 0.95629 0.10108 0.0
C1418 C 0.52494 0.96762 0.08425 0.0
C1419 C 0.52424 0.93516 0.13193 0.0
C1420 C 0.54145 0.93933 0.14478 0.0
C1421 C 0.51398 0.91642 0.13364 0.0
C1422 C 0.49629 0.91072 0.11992 0.0
C1423 C 0.49901 0.91002 0.0984 0.0
C1424 C 0.48221 0.90473 0.08558 0.0
C1425 C 0.46268 0.89995 0.09412 0.0
C1426 C 0.45987 0.90051 0.11549 0.0
C1427 C 0.47661 0.9058 0.12838 0.0
H1428 H 0.44972 0.89582 0.08419 0.0
H1429 H 0.61233 0.9466 0.20929 0.0
H1430 H 0.21687 0.61418 0.20342 0.0
H1431 H 0.19322 0.6049 0.17534 0.0
H1432 H 0.24661 0.59335 0.13585 0.0
H1433 H 0.27041 0.60329 0.16369 0.0
H1434 H 0.21323 0.60974 0.11434 0.0
H1435 H 0.22623 0.55542 0.16157 0.0
H1436 H 0.22808 0.53937 0.19582 0.0
H1437 H 0.16182 0.54961 0.20442 0.0
H1438 H 0.15965 0.566 0.17033 0.0
H1439 H 0.14314 0.51927 0.07703 0.0
H1440 H 0.17246 0.53398 0.09595 0.0
H1441 H 0.14442 0.59285 0.08942 0.0
H1442 H 0.11509 0.57841 0.0703 0.0
H1443 H 0.16796 0.55178 0.13223 0.0
H1444 H 0.18608 0.62883 0.09266 0.0
H1445 H 0.18585 0.64343 0.05774 0.0
H1446 H 0.19363 0.5846 0.03141 0.0
H1447 H 0.19416 0.56963 0.06615 0.0
C1448 C 0.22359 0.61025 0.1886 0.0
C1449 C 0.24552 0.60925 0.18585 0.0
C1450 C 0.21005 0.60481 0.17261 0.0
C1451 C 0.21821 0.59811 0.15367 0.0
C1452 C 0.24002 0.59838 0.1504 0.0
C1453 C 0.25358 0.60388 0.16637 0.0
C1454 C 0.20414 0.58897 0.13812 0.0
C1455 C 0.20323 0.59712 0.11817 0.0
C1456 C 0.19161 0.57214 0.14307 0.0
C1457 C 0.19282 0.56209 0.16348 0.0
C1458 C 0.21209 0.55436 0.17083 0.0
C1459 C 0.21319 0.54519 0.1902 0.0
C1460 C 0.19509 0.54351 0.20231 0.0
C1461 C 0.17583 0.55094 0.19504 0.0
C1462 C 0.17466 0.56016 0.17568 0.0
C1463 C 0.14336 0.53541 0.07926 0.0
C1464 C 0.12663 0.54761 0.07233 0.0
C1465 C 0.16014 0.54378 0.09011 0.0
C1466 C 0.16058 0.56451 0.09415 0.0
C1467 C 0.14449 0.57688 0.08631 0.0
C1468 C 0.12768 0.56854 0.07544 0.0
C1469 C 0.17659 0.57277 0.10839 0.0
C1470 C 0.17787 0.56442 0.12823 0.0
C1471 C 0.18964 0.58918 0.10313 0.0
C1472 C 0.1897 0.59805 0.08209 0.0
C1473 C 0.18773 0.61898 0.07944 0.0
C1474 C 0.18757 0.62733 0.05966 0.0
C1475 C 0.18959 0.61494 0.04236 0.0
C1476 C 0.1919 0.59417 0.04482 0.0
C1477 C 0.19206 0.58574 0.06457 0.0
H1478 H 0.18944 0.62144 0.02706 0.0
H1479 H 0.19597 0.53641 0.21731 0.0
H1480 H 0.51696 0.85288 0.79948 0.0
H1481 H 0.52201 0.87909 0.82535 0.0
H1482 H 0.52441 0.83401 0.87316 0.0
H1483 H 0.51819 0.80784 0.84757 0.0
H1484 H 0.4986 0.86201 0.88377 0.0
H1485 H 0.56882 0.8614 0.85842 0.0
H1486 H 0.59707 0.86213 0.83236 0.0
H1487 H 0.57738 0.92124 0.81356 0.0
H1488 H 0.54881 0.92077 0.8393 0.0
H1489 H 0.53722 0.94708 0.95158 0.0
H1490 H 0.54714 0.92162 0.92586 0.0
H1491 H 0.48885 0.93236 0.89359 0.0
H1492 H 0.47852 0.95725 0.91949 0.0
H1493 H 0.54826 0.91917 0.87939 0.0
H1494 H 0.46582 0.88455 0.89188 0.0
H1495 H 0.4384 0.88389 0.9188 0.0
H1496 H 0.48536 0.89281 0.96551 0.0
H1497 H 0.5131 0.8931 0.93893 0.0
C1498 C 0.51852 0.84852 0.8155 0.0
C1499 C 0.517 0.82822 0.82142 0.0
C1500 C 0.52176 0.86352 0.83026 0.0
C1501 C 0.52383 0.85853 0.85121 0.0
C1502 C 0.52295 0.83823 0.85708 0.0
C1503 C 0.51954 0.82325 0.84238 0.0
C1504 C 0.52481 0.87454 0.86715 0.0
C1505 C 0.50964 0.87435 0.88288 0.0
C1506 C 0.53936 0.89059 0.86619 0.0
C1507 C 0.55657 0.89098 0.85072 0.0
C1508 C 0.57041 0.8745 0.84863 0.0
C1509 C 0.58651 0.87488 0.83393 0.0
C1510 C 0.589 0.89171 0.82129 0.0
C1511 C 0.57543 0.90821 0.82336 0.0
C1512 C 0.5593 0.90791 0.83802 0.0
C1513 C 0.52672 0.94427 0.93882 0.0
C1514 C 0.50687 0.95372 0.93786 0.0
C1515 C 0.53244 0.92981 0.92409 0.0
C1516 C 0.5184 0.92484 0.9082 0.0
C1517 C 0.49955 0.93569 0.90612 0.0
C1518 C 0.49372 0.94987 0.9209 0.0
C1519 C 0.52175 0.9067 0.89541 0.0
C1520 C 0.53756 0.90657 0.88034 0.0
C1521 C 0.50801 0.89012 0.89711 0.0
C1522 C 0.49152 0.88915 0.91334 0.0
C1523 C 0.47033 0.8862 0.90791 0.0
C1524 C 0.45472 0.88591 0.92311 0.0
C1525 C 0.46012 0.8884 0.94384 0.0
C1526 C 0.48117 0.89101 0.94943 0.0
C1527 C 0.49684 0.89127 0.93429 0.0
H1528 H 0.44801 0.88826 0.95558 0.0
H1529 H 0.60147 0.89197 0.80992 0.0
H1530 H 0.21299 0.54509 0.80622 0.0
H1531 H 0.18154 0.55072 0.82748 0.0
H1532 H 0.19363 0.49499 0.85953 0.0
H1533 H 0.22497 0.48924 0.83831 0.0
H1534 H 0.15166 0.49974 0.84587 0.0
H1535 H 0.20533 0.53785 0.88222 0.0
H1536 H 0.23256 0.564 0.88475 0.0
H1537 H 0.18707 0.6092 0.86798 0.0
H1538 H 0.15963 0.58326 0.86507 0.0
H1539 H 0.09296 0.49939 0.93605 0.0
H1540 H 0.11986 0.49943 0.90949 0.0
H1541 H 0.10411 0.56091 0.89429 0.0
H1542 H 0.07743 0.56124 0.9217 0.0
H1543 H 0.14486 0.55672 0.89492 0.0
H1544 H 0.09023 0.52064 0.8621 0.0
H1545 H 0.06217 0.49545 0.85849 0.0
H1546 H 0.10755 0.44785 0.86599 0.0
H1547 H 0.13586 0.47275 0.86995 0.0
C1548 C 0.20891 0.53405 0.81781 0.0
C1549 C 0.22144 0.51675 0.82067 0.0
C1550 C 0.19102 0.53733 0.82997 0.0
C1551 C 0.18533 0.52328 0.84508 0.0
C1552 C 0.19779 0.506 0.84793 0.0
C1553 C 0.21576 0.50281 0.83593 0.0
C1554 C 0.16629 0.52637 0.8579 0.0
C1555 C 0.15018 0.51211 0.8567 0.0
C1556 C 0.16401 0.54302 0.87132 0.0
C1557 C 0.18049 0.55859 0.87319 0.0
C1558 C 0.20118 0.55334 0.8789 0.0
C1559 C 0.21664 0.56813 0.88044 0.0
C1560 C 0.21157 0.58824 0.87646 0.0
C1561 C 0.19099 0.59361 0.87101 0.0
C1562 C 0.17548 0.57888 0.86943 0.0
C1563 C 0.09502 0.51292 0.92698 0.0
C1564 C 0.08292 0.53029 0.93092 0.0
C1565 C 0.11039 0.51288 0.91167 0.0
C1566 C 0.11373 0.53002 0.89952 0.0
C1567 C 0.10172 0.54746 0.90338 0.0
C1568 C 0.08646 0.54761 0.919 0.0
C1569 C 0.1304 0.52969 0.88342 0.0
C1570 C 0.14607 0.54449 0.88389 0.0
C1571 C 0.13211 0.51369 0.86905 0.0
C1572 C 0.11517 0.4986 0.86644 0.0
C1573 C 0.09422 0.50481 0.8631 0.0
C1574 C 0.07826 0.49057 0.86098 0.0
C1575 C 0.08307 0.47006 0.86204 0.0
C1576 C 0.10385 0.46374 0.86517 0.0
C1577 C 0.11987 0.47791 0.86732 0.0
H1578 H 0.07069 0.45906 0.86042 0.0
H1579 H 0.22356 0.59967 0.87767 0.0
H1580 H 0.47031 0.20234 0.8257 0.0
H1581 H 0.46642 0.17656 0.85254 0.0
H1582 H 0.53394 0.17411 0.85974 0.0
H1583 H 0.53789 0.19965 0.83313 0.0
H1584 H 0.51797 0.13737 0.855 0.0
H1585 H 0.50147 0.19713 0.89597 0.0
H1586 H 0.48099 0.22752 0.90507 0.0
H1587 H 0.42474 0.19231 0.90944 0.0
H1588 H 0.4449 0.16172 0.90023 0.0
H1589 H 0.55011 0.10012 0.94803 0.0
H1590 H 0.53838 0.12429 0.92231 0.0
H1591 H 0.47602 0.09912 0.92373 0.0
H1592 H 0.48783 0.07436 0.94946 0.0
H1593 H 0.48038 0.14536 0.92164 0.0
H1594 H 0.49946 0.08445 0.8866 0.0
H1595 H 0.52168 0.05453 0.88028 0.0
H1596 H 0.574 0.09239 0.86536 0.0
H1597 H 0.55219 0.12256 0.87194 0.0
C1598 C 0.48427 0.19643 0.83322 0.0
C1599 C 0.50443 0.20283 0.82716 0.0
C1600 C 0.48203 0.18173 0.84852 0.0
C1601 C 0.4999 0.17337 0.85808 0.0
C1602 C 0.51994 0.18019 0.85242 0.0
C1603 C 0.52219 0.19475 0.83716 0.0
C1604 C 0.49825 0.15687 0.87336 0.0
C1605 C 0.50968 0.13913 0.86952 0.0
C1606 C 0.48677 0.1588 0.892 0.0
C1607 C 0.47462 0.17722 0.89714 0.0
C1608 C 0.4847 0.19592 0.89866 0.0
C1609 C 0.47316 0.21316 0.90391 0.0
C1610 C 0.45156 0.21187 0.90774 0.0
C1611 C 0.44145 0.19331 0.90636 0.0
C1612 C 0.45292 0.17602 0.90116 0.0
C1613 C 0.53382 0.09975 0.9431 0.0
C1614 C 0.5199 0.08521 0.95077 0.0
C1615 C 0.52714 0.11366 0.92845 0.0
C1616 C 0.50641 0.11335 0.92108 0.0
C1617 C 0.49208 0.09957 0.92934 0.0
C1618 C 0.49883 0.08548 0.94405 0.0
C1619 C 0.50083 0.12643 0.90348 0.0
C1620 C 0.48808 0.14342 0.90683 0.0
C1621 C 0.51111 0.12388 0.88432 0.0
C1622 C 0.52419 0.10577 0.87986 0.0
C1623 C 0.51573 0.0864 0.88209 0.0
C1624 C 0.52826 0.06939 0.87845 0.0
C1625 C 0.54925 0.07155 0.87245 0.0
C1626 C 0.55774 0.09074 0.87001 0.0
C1627 C 0.54529 0.1078 0.87365 0.0
H1628 H 0.55893 0.05837 0.86967 0.0
H1629 H 0.44267 0.22522 0.91186 0.0
H1630 H 0.76672 0.47911 0.85168 0.0
H1631 H 0.78954 0.48449 0.88136 0.0
H1632 H 0.84412 0.47314 0.84333 0.0
H1633 H 0.82142 0.46583 0.81416 0.0
H1634 H 0.85247 0.45976 0.87835 0.0
H1635 H 0.82369 0.52243 0.85449 0.0
H1636 H 0.79562 0.54654 0.84502 0.0
H1637 H 0.77147 0.54464 0.90685 0.0
H1638 H 0.79927 0.52031 0.91661 0.0
H1639 H 0.91225 0.5429 0.93446 0.0
H1640 H 0.88204 0.53391 0.91313 0.0
H1641 H 0.87603 0.47804 0.94637 0.0
H1642 H 0.90656 0.48666 0.96738 0.0
H1643 H 0.8422 0.52434 0.91556 0.0
H1644 H 0.86781 0.44027 0.91259 0.0
H1645 H 0.90016 0.41973 0.91631 0.0
H1646 H 0.93775 0.47043 0.89911 0.0
H1647 H 0.90566 0.49119 0.8951 0.0
C1648 C 0.78354 0.47715 0.84972 0.0
C1649 C 0.79218 0.47236 0.83031 0.0
C1650 C 0.79662 0.48056 0.86669 0.0
C1651 C 0.81861 0.47984 0.86449 0.0
C1652 C 0.82722 0.474 0.84545 0.0
C1653 C 0.81417 0.47011 0.82863 0.0
C1654 C 0.83278 0.48613 0.88155 0.0
C1655 C 0.85008 0.4738 0.88658 0.0
C1656 C 0.83007 0.50471 0.892 0.0
C1657 C 0.81339 0.51938 0.88621 0.0
C1658 C 0.8123 0.52706 0.86602 0.0
C1659 C 0.79646 0.54077 0.86061 0.0
C1660 C 0.78173 0.54706 0.8753 0.0
C1661 C 0.78287 0.53971 0.89547 0.0
C1662 C 0.79866 0.52597 0.90095 0.0
C1663 C 0.90415 0.52895 0.93762 0.0
C1664 C 0.91202 0.51532 0.95233 0.0
C1665 C 0.88689 0.52381 0.92538 0.0
C1666 C 0.87716 0.50506 0.9278 0.0
C1667 C 0.88365 0.49236 0.94391 0.0
C1668 C 0.90103 0.49737 0.95597 0.0
C1669 C 0.86179 0.49798 0.91225 0.0
C1670 C 0.84432 0.51014 0.90754 0.0
C1671 C 0.86493 0.47973 0.90134 0.0
C1672 C 0.88433 0.46734 0.90381 0.0
C1673 C 0.88298 0.44702 0.90961 0.0
C1674 C 0.90127 0.43534 0.91176 0.0
C1675 C 0.92099 0.4438 0.90802 0.0
C1676 C 0.92247 0.46394 0.90211 0.0
C1677 C 0.90424 0.47567 0.89992 0.0
H1678 H 0.93512 0.43473 0.9096 0.0
H1679 H 0.76947 0.55768 0.87108 0.0
H1680 H 0.69988 0.73602 0.03911 0.0
H1681 H 0.67103 0.712 0.04102 0.0
H1682 H 0.71545 0.66426 0.05398 0.0
H1683 H 0.74451 0.68818 0.05153 0.0
H1684 H 0.6891 0.65393 0.02381 0.0
H1685 H 0.68262 0.68185 0.09136 0.0
H1686 H 0.67935 0.70863 0.1175 0.0
H1687 H 0.62085 0.72797 0.09058 0.0
H1688 H 0.62392 0.70149 0.06407 0.0
H1689 H 0.59331 0.59677 0.06641 0.0
H1690 H 0.62096 0.62161 0.07169 0.0
H1691 H 0.61766 0.63801 0.0074 0.0
H1692 H 0.59025 0.61302 0.00184 0.0
H1693 H 0.62467 0.66205 0.0664 0.0
H1694 H 0.66714 0.64438 0.9897 0.0
H1695 H 0.67095 0.61625 0.96511 0.0
H1696 H 0.65953 0.57397 0.01381 0.0
H1697 H 0.65592 0.60182 0.03872 0.0
C1698 C 0.7035 0.72041 0.04242 0.0
C1699 C 0.72446 0.71394 0.04503 0.0
C1700 C 0.68698 0.70675 0.04372 0.0
C1701 C 0.69109 0.68637 0.04777 0.0
C1702 C 0.71196 0.67994 0.05089 0.0
C1703 C 0.72851 0.69362 0.04962 0.0
C1704 C 0.67374 0.67161 0.04733 0.0
C1705 C 0.67507 0.65568 0.0332 0.0
C1706 C 0.65549 0.6738 0.05971 0.0
C1707 C 0.6536 0.68978 0.07561 0.0
C1708 C 0.66915 0.69192 0.0909 0.0
C1709 C 0.66731 0.70703 0.10581 0.0
C1710 C 0.64993 0.72003 0.10567 0.0
C1711 C 0.63432 0.71791 0.09065 0.0
C1712 C 0.63609 0.70284 0.07569 0.0
C1713 C 0.59834 0.60575 0.0534 0.0
C1714 C 0.58982 0.60266 0.03361 0.0
C1715 C 0.61408 0.62001 0.05649 0.0
C1716 C 0.62159 0.63136 0.03986 0.0
C1717 C 0.61231 0.62912 0.02036 0.0
C1718 C 0.5966 0.61487 0.01723 0.0
C1719 C 0.63995 0.64469 0.04261 0.0
C1720 C 0.63877 0.66033 0.05711 0.0
C1721 C 0.65849 0.64209 0.0308 0.0
C1722 C 0.66108 0.6252 0.01602 0.0
C1723 C 0.66555 0.62907 0.99517 0.0
C1724 C 0.66765 0.61318 0.98117 0.0
C1725 C 0.66542 0.59334 0.98788 0.0
C1726 C 0.66118 0.58934 0.00862 0.0
C1727 C 0.65908 0.60518 0.02268 0.0
H1728 H 0.66703 0.58106 0.97701 0.0
H1729 H 0.64853 0.73171 0.11723 0.0
H1730 H 0.2748 0.6711 0.98705 0.0
H1731 H 0.29986 0.64429 0.99549 0.0
H1732 H 0.34575 0.6886 0.01325 0.0
H1733 H 0.32123 0.71546 0.00386 0.0
H1734 H 0.36303 0.66246 0.98901 0.0
H1735 H 0.31991 0.65868 0.0492 0.0
H1736 H 0.28679 0.65578 0.06879 0.0
H1737 H 0.2758 0.59777 0.0419 0.0
H1738 H 0.30873 0.60043 0.02194 0.0
H1739 H 0.42061 0.58119 0.05043 0.0
H1740 H 0.38998 0.60363 0.04822 0.0
H1741 H 0.38733 0.59429 0.98245 0.0
H1742 H 0.41794 0.57205 0.98441 0.0
H1743 H 0.34879 0.60336 0.03346 0.0
H1744 H 0.38216 0.64128 0.95997 0.0
H1745 H 0.41619 0.64663 0.94265 0.0
H1746 H 0.44852 0.63961 0.00042 0.0
H1747 H 0.41461 0.63491 0.01821 0.0
C1748 C 0.29026 0.67515 0.99268 0.0
C1749 C 0.29602 0.69547 0.99465 0.0
C1750 C 0.30447 0.65979 0.99778 0.0
C1751 C 0.32464 0.66441 0.00518 0.0
C1752 C 0.33025 0.68466 0.00761 0.0
C1753 C 0.31613 0.70002 0.00239 0.0
C1754 C 0.34046 0.64827 0.00896 0.0
C1755 C 0.35987 0.64957 0.99875 0.0
C1756 C 0.33646 0.63153 0.02186 0.0
C1757 C 0.31671 0.62984 0.03393 0.0
C1758 C 0.31036 0.64537 0.04735 0.0
C1759 C 0.29163 0.64376 0.05854 0.0
C1760 C 0.27917 0.62663 0.05655 0.0
C1761 C 0.28545 0.61104 0.04341 0.0
C1762 C 0.30416 0.61258 0.03217 0.0
C1763 C 0.41321 0.58351 0.03556 0.0
C1764 C 0.42199 0.57511 0.01755 0.0
C1765 C 0.39567 0.59632 0.03434 0.0
C1766 C 0.38668 0.60092 0.01512 0.0
C1767 C 0.39426 0.59117 0.99739 0.0
C1768 C 0.41179 0.57845 0.99857 0.0
C1769 C 0.37108 0.6175 0.0132 0.0
C1770 C 0.35182 0.61628 0.02371 0.0
C1771 C 0.3753 0.63458 0.00087 0.0
C1772 C 0.39584 0.63745 0.99037 0.0
C1773 C 0.39652 0.64094 0.96899 0.0
C1774 C 0.4158 0.6439 0.9591 0.0
C1775 C 0.43453 0.64331 0.9704 0.0
C1776 C 0.43401 0.63995 0.99166 0.0
C1777 C 0.41475 0.63717 0.00167 0.0
H1778 H 0.44945 0.64554 0.96269 0.0
H1779 H 0.26467 0.62541 0.06523 0.0
H1780 H 0.34366 0.31291 0.98045 0.0
H1781 H 0.37327 0.33394 0.99097 0.0
H1782 H 0.3311 0.38457 0.99839 0.0
H1783 H 0.30143 0.36366 0.98766 0.0
H1784 H 0.3663 0.39397 0.97613 0.0
H1785 H 0.34966 0.3618 0.04003 0.0
H1786 H 0.34261 0.33313 0.06306 0.0
H1787 H 0.40469 0.30966 0.05166 0.0
H1788 H 0.41201 0.33805 0.02831 0.0
H1789 H 0.44806 0.43962 0.05049 0.0
H1790 H 0.41881 0.41642 0.04515 0.0
H1791 H 0.44016 0.40522 0.98299 0.0
H1792 H 0.46906 0.42867 0.98799 0.0
H1793 H 0.41364 0.37753 0.03479 0.0
H1794 H 0.39836 0.40313 0.95102 0.0
H1795 H 0.40469 0.43258 0.92883 0.0
H1796 H 0.40415 0.47116 0.98196 0.0
H1797 H 0.39743 0.44199 0.00444 0.0
C1798 C 0.34073 0.32854 0.98427 0.0
C1799 C 0.32027 0.33669 0.98319 0.0
C1800 C 0.35761 0.34047 0.99045 0.0
C1801 C 0.35432 0.36075 0.99559 0.0
C1802 C 0.33392 0.36892 0.99454 0.0
C1803 C 0.317 0.35696 0.98852 0.0
C1804 C 0.37232 0.37362 0.00131 0.0
C1805 C 0.37663 0.3904 0.98897 0.0
C1806 C 0.38564 0.36903 0.01819 0.0
C1807 C 0.38131 0.35196 0.03227 0.0
C1808 C 0.36175 0.35044 0.04229 0.0
C1809 C 0.35771 0.33426 0.05544 0.0
C1810 C 0.37317 0.31956 0.05879 0.0
C1811 C 0.39272 0.32105 0.04904 0.0
C1812 C 0.39682 0.33719 0.03586 0.0
C1813 C 0.44668 0.43202 0.03577 0.0
C1814 C 0.46064 0.43626 0.01953 0.0
C1815 C 0.42997 0.41875 0.03276 0.0
C1816 C 0.42704 0.4095 0.01351 0.0
C1817 C 0.44185 0.4126 0.9978 0.0
C1818 C 0.45839 0.42598 0.00071 0.0
C1819 C 0.40782 0.39766 0.00936 0.0
C1820 C 0.40329 0.38109 0.02197 0.0
C1821 C 0.39412 0.40256 0.99283 0.0
C1822 C 0.39758 0.42033 0.97942 0.0
C1823 C 0.39947 0.41792 0.95795 0.0
C1824 C 0.40316 0.43456 0.94532 0.0
C1825 C 0.40493 0.45372 0.95398 0.0
C1826 C 0.40286 0.4563 0.97528 0.0
C1827 C 0.3991 0.43971 0.98797 0.0
H1828 H 0.40785 0.46657 0.94417 0.0
H1829 H 0.37002 0.30704 0.06897 0.0
H1830 H 0.7293 0.32507 0.96407 0.0
H1831 H 0.70679 0.35468 0.96964 0.0
H1832 H 0.74387 0.37097 0.02274 0.0
H1833 H 0.76664 0.34145 0.01709 0.0
H1834 H 0.69828 0.37107 0.0286 0.0
H1835 H 0.75108 0.39782 0.98354 0.0
H1836 H 0.77359 0.39825 0.95256 0.0
H1837 H 0.71871 0.40064 0.91391 0.0
H1838 H 0.69586 0.39992 0.94465 0.0
H1839 H 0.63487 0.45857 0.03864 0.0
H1840 H 0.66706 0.43815 0.03649 0.0
H1841 H 0.65142 0.42194 0.97387 0.0
H1842 H 0.62009 0.44295 0.97554 0.0
H1843 H 0.69118 0.42492 0.97605 0.0
H1844 H 0.63869 0.39204 0.01835 0.0
H1845 H 0.61435 0.3895 0.04789 0.0
H1846 H 0.66613 0.39611 0.08991 0.0
H1847 H 0.69074 0.39892 0.06059 0.0
C1848 C 0.73261 0.33496 0.97694 0.0
C1849 C 0.74968 0.33102 0.99015 0.0
C1850 C 0.71984 0.35188 0.98004 0.0
C1851 C 0.72379 0.36502 0.99652 0.0
C1852 C 0.74066 0.36102 0.0099 0.0
C1853 C 0.75365 0.34425 0.00661 0.0
C1854 C 0.70995 0.38272 -0.00013 0.0
C1855 C 0.69698 0.38309 0.01735 0.0
C1856 C 0.70805 0.39811 0.98494 0.0
C1857 C 0.72176 0.39867 0.96641 0.0
C1858 C 0.74381 0.39828 0.96843 0.0
C1859 C 0.75663 0.3986 0.95091 0.0
C1860 C 0.74758 0.39943 0.93128 0.0
C1861 C 0.7257 0.39999 0.92913 0.0
C1862 C 0.7128 0.39964 0.9466 0.0
C1863 C 0.63855 0.45095 0.0243 0.0
C1864 C 0.62478 0.45224 0.00734 0.0
C1865 C 0.65688 0.43917 0.02313 0.0
C1866 C 0.66144 0.42806 0.00519 0.0
C1867 C 0.6483 0.43028 0.98792 0.0
C1868 C 0.63027 0.44232 0.98893 0.0
C1869 C 0.67893 0.41306 0.00454 0.0
C1870 C 0.69265 0.41314 0.98754 0.0
C1871 C 0.68122 0.39782 0.0197 0.0
C1872 C 0.66649 0.39592 0.03731 0.0
C1873 C 0.64485 0.39306 0.0339 0.0
C1874 C 0.63102 0.39156 0.05059 0.0
C1875 C 0.63868 0.39271 0.07076 0.0
C1876 C 0.66021 0.39527 0.07428 0.0
C1877 C 0.67411 0.39681 0.05764 0.0
H1878 H 0.62795 0.39157 0.08367 0.0
H1879 H 0.75754 0.39969 0.91773 0.0
H1880 H 0.97089 0.67392 0.72332 0.0
H1881 H 0.97433 0.64822 0.69653 0.0
H1882 H 0.96992 0.694 0.64959 0.0
H1883 H 0.96578 0.71975 0.67628 0.0
H1884 H 0.94956 0.65921 0.63796 0.0
H1885 H 0.01706 0.67859 0.66504 0.0
H1886 H 0.04333 0.6846 0.69234 0.0
H1887 H 0.04056 0.62248 0.71015 0.0
H1888 H 0.01402 0.61617 0.68313 0.0
H1889 H 0.01789 0.61248 0.56011 0.0
H1890 H 0.00192 0.63547 0.58565 0.0
H1891 H 0.99075 0.5853 0.62625 0.0
H1892 H 0.00632 0.5624 0.60071 0.0
H1893 H 0.01683 0.62088 0.64119 0.0
H1894 H 0.95043 0.6014 0.61222 0.0
H1895 H 0.9245 0.59599 0.58444 0.0
H1896 H 0.92628 0.65873 0.56911 0.0
H1897 H 0.95247 0.66449 0.59659 0.0
C1898 C 0.97015 0.67849 0.7073 0.0
C1899 C 0.96832 0.69892 0.70193 0.0
C1900 C 0.97224 0.66379 0.69201 0.0
C1901 C 0.97269 0.66925 0.6711 0.0
C1902 C 0.96969 0.68948 0.66564 0.0
C1903 C 0.96756 0.70418 0.68092 0.0
C1904 C 0.97823 0.65421 0.65508 0.0
C1905 C 0.96433 0.65093 0.63857 0.0
C1906 C 0.99739 0.64323 0.65602 0.0
C1907 C 0.01339 0.64697 0.67223 0.0
C1908 C 0.02193 0.66625 0.67489 0.0
C1909 C 0.03688 0.66971 0.69029 0.0
C1910 C 0.04356 0.65395 0.70301 0.0
C1911 C 0.03534 0.63469 0.70031 0.0
C1912 C 0.02035 0.63116 0.68496 0.0
C1913 C 0.01167 0.60645 0.57437 0.0
C1914 C 0.01302 0.58579 0.57852 0.0
C1915 C 0.00251 0.61948 0.58882 0.0
C1916 C 0.99504 0.61197 0.60768 0.0
C1917 C 0.99623 0.59129 0.61168 0.0
C1918 C 0.00503 0.57827 0.59712 0.0
C1919 C 0.9882 0.62589 0.62414 0.0
C1920 C 0.00198 0.62904 0.64068 0.0
C1921 C 0.96905 0.63678 0.62309 0.0
C1922 C 0.9536 0.63332 0.60632 0.0
C1923 C 0.9455 0.61399 0.60276 0.0
C1924 C 0.93069 0.61088 0.58714 0.0
C1925 C 0.92373 0.627 0.57507 0.0
C1926 C 0.93165 0.64626 0.57852 0.0
C1927 C 0.94648 0.64946 0.59411 0.0
H1928 H 0.91221 0.62456 0.56303 0.0
H1929 H 0.05515 0.65665 0.71492 0.0
H1930 H 0.35754 0.9402 0.70247 0.0
H1931 H 0.38779 0.95387 0.68376 0.0
H1932 H 0.38931 0.00454 0.72528 0.0
H1933 H 0.35927 0.99068 0.74434 0.0
H1934 H 0.38876 0.0134 0.68049 0.0
H1935 H 0.42615 0.97494 0.73107 0.0
H1936 H 0.43492 0.94494 0.75175 0.0
H1937 H 0.45082 0.91241 0.69661 0.0
H1938 H 0.44174 0.94207 0.67554 0.0
H1939 H 0.47611 0.04253 0.61715 0.0
H1940 H 0.45711 0.03641 0.64968 0.0
H1941 H 0.44873 0.9744 0.63241 0.0
H1942 H 0.46836 0.9799 0.60094 0.0
H1943 H 0.45695 0.97749 0.67252 0.0
H1944 H 0.41256 0.01097 0.62186 0.0
H1945 H 0.40204 0.03899 0.5991 0.0
H1946 H 0.39689 0.07825 0.65148 0.0
H1947 H 0.40801 0.05059 0.67451 0.0
C1948 C 0.36448 0.95415 0.70768 0.0
C1949 C 0.35622 0.96439 0.72481 0.0
C1950 C 0.38173 0.96189 0.69707 0.0
C1951 C 0.39075 0.98014 0.70326 0.0
C1952 C 0.38257 0.9904 0.72039 0.0
C1953 C 0.36554 0.98245 0.73126 0.0
C1954 C 0.40811 0.98876 0.69105 0.0
C1955 C 0.4039 0.00587 0.67904 0.0
C1956 C 0.42764 0.97866 0.68905 0.0
C1957 C 0.43305 0.96073 0.7017 0.0
C1958 C 0.43128 0.96133 0.72332 0.0
C1959 C 0.43636 0.94438 0.73512 0.0
C1960 C 0.44337 0.92676 0.7255 0.0
C1961 C 0.44535 0.92606 0.70405 0.0
C1962 C 0.44025 0.94294 0.69217 0.0
C1963 C 0.47051 0.02754 0.62053 0.0
C1964 C 0.47372 0.01172 0.60644 0.0
C1965 C 0.45958 0.02414 0.63898 0.0
C1966 C 0.45128 0.00507 0.64326 0.0
C1967 C 0.45512 0.98921 0.62952 0.0
C1968 C 0.46634 0.99244 0.61145 0.0
C1969 C 0.43725 0.00148 0.6611 0.0
C1970 C 0.44206 0.98535 0.67427 0.0
C1971 C 0.41806 0.01216 0.66376 0.0
C1972 C 0.41151 0.0288 0.64987 0.0
C1973 C 0.40947 0.02565 0.6285 0.0
C1974 C 0.40338 0.04146 0.61555 0.0
C1975 C 0.3989 0.06042 0.62382 0.0
C1976 C 0.40044 0.06357 0.64508 0.0
C1977 C 0.40671 0.04786 0.65808 0.0
H1978 H 0.39418 0.07264 0.61377 0.0
H1979 H 0.44731 0.91367 0.73467 0.0
H1980 H 0.05029 0.3055 0.65761 0.0
H1981 H 0.04703 0.32988 0.62962 0.0
H1982 H 0.01529 0.37122 0.67063 0.0
H1983 H 0.0176 0.34656 0.69848 0.0
H1984 H -0.00224 0.37211 0.63265 0.0
H1985 H 0.06842 0.37355 0.66138 0.0
H1986 H 0.10319 0.35957 0.67077 0.0
H1987 H 0.11471 0.34403 0.60745 0.0
H1988 H 0.07981 0.35758 0.59775 0.0
H1989 H 0.02132 0.46905 0.59711 0.0
H1990 H 0.01566 0.43705 0.61432 0.0
H1991 H 0.05048 0.40644 0.56638 0.0
H1992 H 0.05673 0.43865 0.54925 0.0
H1993 H 0.06484 0.39618 0.6026 0.0
H1994 H 0.99686 0.39919 0.57271 0.0
H1995 H 0.96326 0.41519 0.56265 0.0
H1996 H 0.94692 0.42306 0.62639 0.0
H1997 H 0.98058 0.40737 0.63689 0.0
C1998 C 0.04223 0.31961 0.6606 0.0
C1999 C 0.03437 0.32414 0.68037 0.0
C2000 C 0.04053 0.33359 0.6446 0.0
C2001 C 0.03118 0.35247 0.64812 0.0
C2002 C 0.02262 0.35676 0.66759 0.0
C2003 C 0.0242 0.34275 0.68357 0.0
C2004 C 0.03148 0.36828 0.63201 0.0
C2005 C 0.0124 0.37744 0.62609 0.0
C2006 C 0.05055 0.37478 0.62295 0.0
C2007 C 0.07137 0.36631 0.62889 0.0
C2008 C 0.07825 0.36693 0.6495 0.0
C2009 C 0.098 0.35912 0.65487 0.0
C2010 C 0.11111 0.35084 0.63973 0.0
C2011 C 0.1045 0.35037 0.61918 0.0
C2012 C 0.08474 0.3581 0.61374 0.0
C2013 C 0.02753 0.4555 0.59002 0.0
C2014 C 0.03963 0.45641 0.57191 0.0
C2015 C 0.02411 0.43715 0.59981 0.0
C2016 C 0.03246 0.41929 0.59154 0.0
C2017 C 0.04386 0.42004 0.573 0.0
C2018 C 0.04741 0.43845 0.56324 0.0
C2019 C 0.03117 0.40034 0.60349 0.0
C2020 C 0.05009 0.39059 0.60871 0.0
C2021 C 0.01196 0.39329 0.61177 0.0
C2022 C 0.99136 0.4022 0.60559 0.0
C2023 C 0.98616 0.4044 0.58461 0.0
C2024 C 0.9671 0.41342 0.57882 0.0
C2025 C 0.95302 0.42022 0.59387 0.0
C2026 C 0.95787 0.41782 0.61475 0.0
C2027 C 0.97693 0.40882 0.62064 0.0
H2028 H 0.93838 0.42736 0.58932 0.0
H2029 H 0.12642 0.34486 0.64391 0.0
H2030 H 0.74726 0.10275 0.68115 0.0
H2031 H 0.72956 0.09254 0.6492 0.0
H2032 H 0.69784 0.04526 0.68216 0.0
H2033 H 0.71553 0.05528 0.71403 0.0
H2034 H 0.71464 0.03256 0.64436 0.0
H2035 H 0.67328 0.0879 0.67223 0.0
H2036 H 0.66701 0.1227 0.68397 0.0
H2037 H 0.68469 0.14499 0.62432 0.0
H2038 H 0.69147 0.11032 0.61235 0.0
H2039 H 0.62226 0.00809 0.59104 0.0
H2040 H 0.65149 0.01684 0.61333 0.0
H2041 H 0.66812 0.0652 0.57238 0.0
H2042 H 0.63746 0.05758 0.55062 0.0
H2043 H 0.66396 0.07877 0.61021 0.0
H2044 H 0.70103 0.02384 0.58016 0.0
H2045 H 0.70596 0.98915 0.56754 0.0
H2046 H 0.6969 0.96643 0.62885 0.0
H2047 H 0.69158 0.00096 0.64182 0.0
C2048 C 0.73655 0.09014 0.68153 0.0
C2049 C 0.73264 0.07989 0.7001 0.0
C2050 C 0.72646 0.08436 0.66331 0.0
C2051 C 0.7124 0.06816 0.66335 0.0
C2052 C 0.70868 0.05777 0.68181 0.0
C2053 C 0.7186 0.06364 0.70003 0.0
C2054 C 0.70097 0.06228 0.64438 0.0
C2055 C 0.70358 0.04264 0.6368 0.0
C2056 C 0.68708 0.07568 0.63417 0.0
C2057 C 0.68327 0.09653 0.64152 0.0
C2058 C 0.67613 0.10023 0.66171 0.0
C2059 C 0.67242 0.11993 0.66839 0.0
C2060 C 0.67556 0.13605 0.65494 0.0
C2061 C 0.68236 0.1325 0.63476 0.0
C2062 C 0.68616 0.11283 0.62803 0.0
C2063 C 0.63228 0.02044 0.58651 0.0
C2064 C 0.62741 0.03231 0.56917 0.0
C2065 C 0.64914 0.02535 0.59927 0.0
C2066 C 0.66195 0.04183 0.59461 0.0
C2067 C 0.65806 0.05279 0.57647 0.0
C2068 C 0.64073 0.0483 0.56399 0.0
C2069 C 0.67752 0.04898 0.61001 0.0
C2070 C 0.67558 0.06885 0.61713 0.0
C2071 C 0.69218 0.03585 0.61959 0.0
C2072 C 0.69581 0.01503 0.61195 0.0
C2073 C 0.69999 0.01145 0.59095 0.0
C2074 C 0.70285 0.99181 0.58373 0.0
C2075 C 0.70171 0.9756 0.59737 0.0
C2076 C 0.69778 0.97901 0.61829 0.0
C2077 C 0.69488 0.99862 0.6256 0.0
H2078 H 0.70389 0.9604 0.59174 0.0
H2079 H 0.67263 0.15129 0.66013 0.0
H2080 H 0.0213 0.3198 0.36738 0.0
H2081 H 0.02473 0.34597 0.39315 0.0
H2082 H 0.05376 0.38476 0.34826 0.0
H2083 H 0.05242 0.35784 0.32277 0.0
H2084 H 0.06999 0.39273 0.38378 0.0
H2085 H -0.00043 0.38658 0.35913 0.0
H2086 H 0.96631 0.36959 0.35051 0.0
H2087 H 0.95774 0.35382 0.41416 0.0
H2088 H 0.99112 0.37049 0.42312 0.0
H2089 H 0.03313 0.48544 0.42885 0.0
H2090 H 0.04298 0.45651 0.40764 0.0
H2091 H 0.02067 0.41646 0.45507 0.0
H2092 H 0.01025 0.4453 0.47613 0.0
H2093 H 0.00257 0.40915 0.41877 0.0
H2094 H 0.07436 0.42078 0.44196 0.0
H2095 H 0.10544 0.44237 0.44704 0.0
H2096 H 0.10896 0.45293 0.3819 0.0
H2097 H 0.07782 0.43164 0.37635 0.0
C2098 C 0.02908 0.33357 0.36299 0.0
C2099 C 0.03631 0.33663 0.3427 0.0
C2100 C 0.03072 0.34872 0.37778 0.0
C2101 C 0.03888 0.3676 0.37251 0.0
C2102 C 0.04716 0.37042 0.35266 0.0
C2103 C 0.04605 0.35505 0.33797 0.0
C2104 C 0.03732 0.38473 0.38721 0.0
C2105 C 0.05523 0.39638 0.39137 0.0
C2106 C 0.01805 0.38964 0.39707 0.0
C2107 C -0.00204 0.37959 0.39175 0.0
C2108 C 0.99067 0.37936 0.37126 0.0
C2109 C 0.97179 0.36981 0.36632 0.0
C2110 C 0.95995 0.36058 0.38177 0.0
C2111 C 0.96695 0.36094 0.40221 0.0
C2112 C 0.98584 0.37044 0.40723 0.0
C2113 C 0.03064 0.47047 0.43492 0.0
C2114 C 0.02057 0.46764 0.45402 0.0
C2115 C 0.03644 0.45394 0.42283 0.0
C2116 C 0.0326 0.43431 0.42978 0.0
C2117 C 0.02372 0.43148 0.44939 0.0
C2118 C 0.01775 0.44798 0.46139 0.0
C2119 C 0.0353 0.41687 0.41574 0.0
C2120 C 0.01745 0.40528 0.4115 0.0
C2121 C 0.05444 0.41252 0.40541 0.0
C2122 C 0.07365 0.42471 0.40875 0.0
C2123 C 0.0817 0.42777 0.42872 0.0
C2124 C 0.09929 0.43998 0.4317 0.0
C2125 C 0.10905 0.44909 0.41485 0.0
C2126 C 0.10135 0.44589 0.39494 0.0
C2127 C 0.08376 0.43372 0.39186 0.0
H2128 H 0.12264 0.45854 0.41721 0.0
H2129 H 0.94533 0.3532 0.37792 0.0
H2130 H 0.67647 0.98096 0.2787 0.0
H2131 H 0.64727 0.98412 0.30307 0.0
H2132 H 0.64919 0.04871 0.29722 0.0
H2133 H 0.67835 0.04565 0.27278 0.0
H2134 H 0.65011 0.0376 0.3366 0.0
H2135 H 0.60797 0.02174 0.27787 0.0
H2136 H 0.59734 0.00234 0.24721 0.0
H2137 H 0.58658 0.95044 0.28503 0.0
H2138 H 0.59746 0.96943 0.3159 0.0
H2139 H 0.56582 0.05302 0.40484 0.0
H2140 H 0.5839 0.05271 0.37156 0.0
H2141 H 0.58875 0.98803 0.37417 0.0
H2142 H 0.57047 0.98811 0.40727 0.0
H2143 H 0.58202 0.00149 0.33447 0.0
H2144 H 0.6284 0.01552 0.39164 0.0
H2145 H 0.6399 0.03396 0.42263 0.0
H2146 H 0.64344 0.08854 0.38745 0.0
H2147 H 0.63166 0.07045 0.3563 0.0
C2148 C 0.67037 0.99581 0.28225 0.0
C2149 C 0.67981 0.01306 0.27391 0.0
C2150 C 0.65366 0.9976 0.29618 0.0
C2151 C 0.64597 0.01666 0.30189 0.0
C2152 C 0.65491 0.03387 0.29307 0.0
C2153 C 0.67163 0.03209 0.27918 0.0
C2154 C 0.62987 0.01871 0.31837 0.0
C2155 C 0.63502 0.03006 0.33589 0.0
C2156 C 0.61043 0.00842 0.31771 0.0
C2157 C 0.6037 0.99698 0.2992 0.0
C2158 C 0.60349 0.00614 0.27964 0.0
C2159 C 0.59739 0.99523 0.26222 0.0
C2160 C 0.59134 0.97516 0.26416 0.0
C2161 C 0.5913 0.96598 0.28355 0.0
C2162 C 0.5974 0.97683 0.30102 0.0
C2163 C 0.57039 0.03867 0.39819 0.0
C2164 C 0.56705 0.0206 0.40894 0.0
C2165 C 0.58073 0.03855 0.37916 0.0
C2166 C 0.58799 0.02038 0.3706 0.0
C2167 C 0.58334 0.00223 0.38055 0.0
C2168 C 0.57298 0.00232 0.39955 0.0
C2169 C 0.60233 0.02038 0.35255 0.0
C2170 C 0.59695 0.00931 0.3349 0.0
C2171 C 0.62167 0.03082 0.35306 0.0
C2172 C 0.62892 0.04169 0.37171 0.0
C2173 C 0.63148 0.03149 0.39056 0.0
C2174 C 0.63807 0.04187 0.40814 0.0
C2175 C 0.64233 0.06243 0.40703 0.0
C2176 C 0.64009 0.07263 0.3883 0.0
C2177 C 0.63346 0.06232 0.37068 0.0
H2178 H 0.64743 0.07044 0.42066 0.0
H2179 H 0.58664 0.96673 0.25065 0.0
H2180 H 0.03463 0.71457 0.33991 0.0
H2181 H 0.03293 0.69033 0.36798 0.0
H2182 H 0.08946 0.66131 0.34557 0.0
H2183 H 0.09105 0.68554 0.31705 0.0
H2184 H 0.06132 0.63417 0.355 0.0
H2185 H 0.09008 0.68975 0.3904 0.0
H2186 H 0.09387 0.72507 0.40131 0.0
H2187 H 0.03273 0.72357 0.4295 0.0
H2188 H 0.02843 0.68833 0.41851 0.0
H2189 H 0.0558 0.57605 0.45037 0.0
H2190 H 0.07002 0.59969 0.42514 0.0
H2191 H 0.00979 0.62981 0.42221 0.0
H2192 H 0.9952 0.60566 0.44648 0.0
H2193 H 0.04777 0.65524 0.42725 0.0
H2194 H 0.01926 0.59929 0.38818 0.0
H2195 H 0.01715 0.56397 0.37703 0.0
H2196 H 0.08082 0.56628 0.35501 0.0
H2197 H 0.08369 0.60137 0.36698 0.0
C2198 C 0.0469 0.70323 0.34112 0.0
C2199 C 0.06309 0.70207 0.3264 0.0
C2200 C 0.04594 0.68939 0.35721 0.0
C2201 C 0.06132 0.67423 0.35916 0.0
C2202 C 0.07751 0.67296 0.34444 0.0
C2203 C 0.07838 0.68676 0.32817 0.0
C2204 C 0.05963 0.65924 0.37603 0.0
C2205 C 0.05889 0.63874 0.3709 0.0
C2206 C 0.05639 0.6652 0.39677 0.0
C2207 C 0.0589 0.6864 0.40353 0.0
C2208 C 0.07738 0.69699 0.39881 0.0
C2209 C 0.07963 0.71699 0.40503 0.0
C2210 C 0.06354 0.72656 0.41607 0.0
C2211 C 0.04519 0.71613 0.42095 0.0
C2212 C 0.04285 0.69613 0.41476 0.0
C2213 C 0.04548 0.58736 0.44408 0.0
C2214 C 0.02421 0.58845 0.45001 0.0
C2215 C 0.0537 0.60102 0.42983 0.0
C2216 C 0.04085 0.6163 0.42171 0.0
C2217 C 0.0199 0.61803 0.42828 0.0
C2218 C 0.01161 0.60416 0.44214 0.0
C2219 C 0.04884 0.63039 0.40601 0.0
C2220 C 0.05075 0.6507 0.41143 0.0
C2221 C 0.05348 0.62419 0.38563 0.0
C2222 C 0.05186 0.60288 0.37894 0.0
C2223 C 0.033 0.59216 0.38143 0.0
C2224 C 0.03165 0.57217 0.37492 0.0
C2225 C 0.04891 0.56282 0.36549 0.0
C2226 C 0.06752 0.57349 0.36248 0.0
C2227 C 0.06906 0.5934 0.36924 0.0
H2228 H 0.04781 0.54736 0.3604 0.0
H2229 H 0.06531 0.74205 0.42086 0.0
H2230 H 0.29922 0.95614 0.34954 0.0
H2231 H 0.31745 0.96797 0.38033 0.0
H2232 H 0.3031 0.02938 0.3637 0.0
H2233 H 0.28477 0.0176 0.3328 0.0
H2234 H 0.34377 0.02476 0.37143 0.0
H2235 H 0.2807 0.00785 0.40659 0.0
H2236 H 0.25048 0.98682 0.41633 0.0
H2237 H 0.29254 0.94224 0.44133 0.0
H2238 H 0.32304 0.96285 0.43146 0.0
H2239 H 0.40838 0.05036 0.45582 0.0
H2240 H 0.37487 0.04912 0.43712 0.0
H2241 H 0.37614 0.98431 0.4402 0.0
H2242 H 0.40909 0.98539 0.45915 0.0
H2243 H 0.33654 0.99767 0.44234 0.0
H2244 H 0.39816 0.01 0.39924 0.0
H2245 H 0.42924 0.02943 0.38849 0.0
H2246 H 0.39003 0.08125 0.37769 0.0
H2247 H 0.35874 0.06216 0.38862 0.0
C2248 C 0.2995 0.97214 0.35268 0.0
C2249 C 0.29065 0.98593 0.33867 0.0
C2250 C 0.3099 0.9789 0.37032 0.0
C2251 C 0.31149 0.99958 0.37444 0.0
C2252 C 0.30206 0.01336 0.36084 0.0
C2253 C 0.29169 0.00661 0.34315 0.0
C2254 C 0.32482 0.00671 0.39174 0.0
C2255 C 0.34182 0.01928 0.38707 0.0
C2256 C 0.3225 0.99931 0.41208 0.0
C2257 C 0.30418 0.98689 0.41819 0.0
C2258 C 0.28352 0.99351 0.41404 0.0
C2259 C 0.26634 0.98166 0.4196 0.0
C2260 C 0.26959 0.9632 0.42942 0.0
C2261 C 0.29004 0.95655 0.43373 0.0
C2262 C 0.30729 0.96833 0.42819 0.0
C2263 C 0.40126 0.03588 0.45294 0.0
C2264 C 0.41167 0.01796 0.45857 0.0
C2265 C 0.38213 0.03519 0.44222 0.0
C2266 C 0.37324 0.0166 0.43688 0.0
C2267 C 0.38272 0.99883 0.44404 0.0
C2268 C 0.40171 0.99949 0.45478 0.0
C2269 C 0.35573 0.01518 0.4218 0.0
C2270 C 0.33802 0.00364 0.42684 0.0
C2271 C 0.35745 0.02335 0.40171 0.0
C2272 C 0.37619 0.03476 0.39498 0.0
C2273 C 0.39621 0.02558 0.39468 0.0
C2274 C 0.41385 0.03652 0.38855 0.0
C2275 C 0.41163 0.05659 0.38248 0.0
C2276 C 0.39174 0.06572 0.38245 0.0
C2277 C 0.37405 0.05486 0.38861 0.0
H2278 H 0.42531 0.06504 0.37775 0.0
H2279 H 0.25626 0.95405 0.43371 0.0
H2280 H 0.06845 0.19068 0.30948 0.0
H2281 H 0.07221 0.16179 0.33279 0.0
H2282 H 0.00503 0.16151 0.34222 0.0
H2283 H 0.00114 0.19041 0.31965 0.0
H2284 H 0.0619 0.15831 0.37375 0.0
H2285 H 0.98799 0.11313 0.3467 0.0
H2286 H 0.96918 0.10552 0.31441 0.0
H2287 H 0.02493 0.11832 0.27949 0.0
H2288 H 0.04419 0.1257 0.31155 0.0
H2289 H 0.00798 0.1043 0.45025 0.0
H2290 H 0.02125 0.12563 0.4224 0.0
H2291 H 0.0424 0.07286 0.38938 0.0
H2292 H 0.02894 0.05151 0.41732 0.0
H2293 H 0.01836 0.09715 0.3656 0.0
H2294 H 0.07855 0.10447 0.40716 0.0
H2295 H 0.09853 0.10994 0.43926 0.0
H2296 H 0.07351 0.16995 0.44365 0.0
H2297 H 0.05308 0.16474 0.41177 0.0
C2298 C 0.05447 0.18446 0.3165 0.0
C2299 C 0.03445 0.19285 0.31241 0.0
C2300 C 0.05666 0.16792 0.32978 0.0
C2301 C 0.03888 0.15932 0.33905 0.0
C2302 C 0.01894 0.16759 0.33492 0.0
C2303 C 0.01675 0.18411 0.32183 0.0
C2304 C 0.04082 0.14222 0.35373 0.0
C2305 C 0.05257 0.14484 0.37188 0.0
C2306 C 0.02909 0.12437 0.35105 0.0
C2307 C 0.01753 0.1201 0.3316 0.0
C2308 C 0.99629 0.11424 0.33215 0.0
C2309 C 0.98553 0.10998 0.31387 0.0
C2310 C 0.99584 0.11148 0.29491 0.0
C2311 C 0.01694 0.11723 0.29419 0.0
C2312 C 0.02777 0.1215 0.31242 0.0
C2313 C 0.01603 0.09735 0.43731 0.0
C2314 C 0.01807 0.07638 0.43612 0.0
C2315 C 0.02362 0.1095 0.42143 0.0
C2316 C 0.0331 0.10086 0.40393 0.0
C2317 C 0.03542 0.07985 0.40287 0.0
C2318 C 0.02801 0.0677 0.41892 0.0
C2319 C 0.03848 0.11379 0.38602 0.0
C2320 C 0.02806 0.11041 0.36728 0.0
C2321 C 0.05163 0.13077 0.38806 0.0
C2322 C 0.06419 0.13418 0.40707 0.0
C2323 C 0.07721 0.11881 0.41502 0.0
C2324 C 0.08862 0.12186 0.43318 0.0
C2325 C 0.08727 0.14027 0.4435 0.0
C2326 C 0.07455 0.15569 0.43564 0.0
C2327 C 0.06307 0.15271 0.41749 0.0
H2328 H 0.0961 0.14259 0.45758 0.0
H2329 H 0.98748 0.10816 0.28077 0.0
H2330 H 0.80953 0.99111 0.30727 0.0
H2331 H 0.82817 0.99634 0.33945 0.0
H2332 H 0.85588 0.05035 0.31493 0.0
H2333 H 0.83858 0.04432 0.28185 0.0
H2334 H 0.8839 0.03131 0.33582 0.0
H2335 H 0.81332 0.05113 0.35005 0.0
H2336 H 0.77466 0.04818 0.35107 0.0
H2337 H 0.78009 0.99672 0.39075 0.0
H2338 H 0.81881 0.99918 0.38974 0.0
H2339 H 0.92326 0.05944 0.43208 0.0
H2340 H 0.89931 0.06075 0.40262 0.0
H2341 H 0.87632 0.00181 0.41767 0.0
H2342 H 0.90056 1.00007 0.44701 0.0
H2343 H 0.84501 0.02706 0.40209 0.0
H2344 H 0.9166 0.00692 0.38425 0.0
H2345 H 0.95508 0.01176 0.38377 0.0
H2346 H 0.94677 0.06737 0.35098 0.0
H2347 H 0.90821 0.06289 0.35155 0.0
C2348 C 0.81995 0.00388 0.30842 0.0
C2349 C 0.82254 0.01726 0.29179 0.0
C2350 C 0.83029 0.00707 0.32708 0.0
C2351 C 0.84299 0.02403 0.32985 0.0
C2352 C 0.84597 0.03726 0.31324 0.0
C2353 C 0.8359 0.03387 0.29437 0.0
C2354 C 0.85345 0.02764 0.34999 0.0
C2355 C 0.87528 0.03076 0.35026 0.0
C2356 C 0.8423 0.02674 0.36892 0.0
C2357 C 0.81899 0.02526 0.36968 0.0
C2358 C 0.80628 0.0391 0.35888 0.0
C2359 C 0.78435 0.03753 0.35947 0.0
C2360 C 0.77492 0.02225 0.37093 0.0
C2361 C 0.78741 0.00854 0.38187 0.0
C2362 C 0.80936 0.01003 0.38131 0.0
C2363 C 0.91256 0.04705 0.42965 0.0
C2364 C 0.91384 0.02962 0.44183 0.0
C2365 C 0.89902 0.04779 0.41271 0.0
C2366 C 0.8864 0.03128 0.40783 0.0
C2367 C 0.88611 0.01465 0.42112 0.0
C2368 C 0.89989 0.01372 0.43791 0.0
C2369 C 0.87532 0.03045 0.38778 0.0
C2370 C 0.85345 0.02783 0.38757 0.0
C2371 C 0.88636 0.03214 0.36888 0.0
C2372 C 0.90955 0.03462 0.3681 0.0
C2373 C 0.923 0.02019 0.37703 0.0
C2374 C 0.94481 0.02287 0.37674 0.0
C2375 C 0.95337 0.03989 0.36738 0.0
C2376 C 0.94012 0.0542 0.35824 0.0
C2377 C 0.91829 0.05158 0.35852 0.0
H2378 H 0.97026 0.04197 0.36719 0.0
H2379 H 0.75794 0.02105 0.37137 0.0
H2380 H 0.02837 0.85585 0.28223 0.0
H2381 H 0.02081 0.8819 0.30785 0.0
H2382 H -0.00095 0.8367 0.35034 0.0
H2383 H 0.00664 0.81052 0.3248 0.0
H2384 H 0.97426 0.86991 0.35212 0.0
H2385 H 0.04803 0.85562 0.355 0.0
H2386 H 0.08396 0.85089 0.34136 0.0
H2387 H 0.08456 0.91224 0.32072 0.0
H2388 H 0.04848 0.91725 0.33396 0.0
H2389 H 0.98066 0.93404 0.44049 0.0
H2390 H 0.98643 0.90612 0.41645 0.0
H2391 H 0.00754 0.94787 0.37008 0.0
H2392 H 0.0018 0.9758 0.39393 0.0
H2393 H 0.03287 0.91495 0.37199 0.0
H2394 H 0.95785 0.9279 0.36616 0.0
H2395 H 0.92181 0.9325 0.37961 0.0
H2396 H 0.92445 0.87391 0.40733 0.0
H2397 H 0.96045 0.86885 0.39376 0.0
C2398 C 0.0219 0.85144 0.297 0.0
C2399 C 0.01826 0.83105 0.30148 0.0
C2400 C 0.01758 0.86635 0.31164 0.0
C2401 C 0.00971 0.86124 0.33119 0.0
C2402 C 0.00516 0.84102 0.3354 0.0
C2403 C 0.00943 0.82607 0.32072 0.0
C2404 C 0.007 0.87691 0.34741 0.0
C2405 C 0.98716 0.87957 0.35666 0.0
C2406 C 0.02374 0.88969 0.35325 0.0
C2407 C 0.04546 0.88675 0.34529 0.0
C2408 C 0.05575 0.86806 0.3474 0.0
C2409 C 0.07616 0.86533 0.33976 0.0
C2410 C 0.08652 0.88124 0.33013 0.0
C2411 C 0.0765 0.89992 0.32816 0.0
C2412 C 0.05608 0.90272 0.33573 0.0
C2413 C 0.98659 0.93727 0.4252 0.0
C2414 C 0.99063 0.95718 0.4191 0.0
C2415 C 0.98979 0.9213 0.41144 0.0
C2416 C 0.99716 0.92492 0.39135 0.0
C2417 C 0.00179 0.94471 0.38546 0.0
C2418 C -0.00151 0.96068 0.39915 0.0
C2419 C 8e-05 0.90817 0.37639 0.0
C2420 C 0.02 0.90525 0.36747 0.0
C2421 C 0.98346 0.89512 0.37093 0.0
C2422 C 0.96185 0.89805 0.37906 0.0
C2423 C 0.95075 0.91603 0.37517 0.0
C2424 C 0.93032 0.91869 0.38275 0.0
C2425 C 0.92087 0.90353 0.39436 0.0
C2426 C 0.93179 0.88562 0.39831 0.0
C2427 C 0.95216 0.88281 0.39058 0.0
H2428 H 0.90507 0.90565 0.40026 0.0
H2429 H 0.10232 0.87911 0.32423 0.0
H2430 H 0.20012 0.02751 0.28685 0.0
H2431 H 0.17338 0.04035 0.31037 0.0
H2432 H 0.12631 0.00471 0.27981 0.0
H2433 H 0.15301 0.99195 0.25582 0.0
H2434 H 0.11134 0.04371 0.30186 0.0
H2435 H 0.1494 0.97937 0.3111 0.0
H2436 H 0.1827 0.96002 0.31074 0.0
H2437 H 0.20838 0.99924 0.35684 0.0
H2438 H 0.17533 0.01907 0.35713 0.0
H2439 H 0.07291 0.98994 0.40119 0.0
H2440 H 0.09205 0.99201 0.36874 0.0
H2441 H 0.09648 0.05638 0.37548 0.0
H2442 H 0.07723 0.05452 0.40817 0.0
H2443 H 0.1323 0.00545 0.36449 0.0
H2444 H 0.09759 0.07606 0.32643 0.0
H2445 H 0.0642 0.09525 0.3261 0.0
H2446 H 0.02977 0.04106 0.33767 0.0
H2447 H 0.06296 0.02156 0.33803 0.0
C2448 C 0.18391 0.02319 0.28433 0.0
C2449 C 0.17875 0.00837 0.26972 0.0
C2450 C 0.16861 0.03059 0.29784 0.0
C2451 C 0.14799 0.02325 0.29696 0.0
C2452 C 0.14217 0.01057 0.28068 0.0
C2453 C 0.15749 0.00311 0.26714 0.0
C2454 C 0.13468 0.02424 0.31562 0.0
C2455 C 0.11591 0.0355 0.31562 0.0
C2456 C 0.14056 0.01325 0.33341 0.0
C2457 C 0.16001 1.00077 0.33401 0.0
C2458 C 0.16219 0.98389 0.3211 0.0
C2459 C 0.18101 0.97286 0.32089 0.0
C2460 C 0.19766 0.97843 0.33373 0.0
C2461 C 0.19547 0.99497 0.34688 0.0
C2462 C 0.1767 0.00611 0.34708 0.0
C2463 C 0.07777 0.0046 0.39577 0.0
C2464 C 0.07366 0.02206 0.40739 0.0
C2465 C 0.08874 0.00573 0.37721 0.0
C2466 C 0.0957 0.02432 0.36976 0.0
C2467 C 0.09111 0.04189 0.38093 0.0
C2468 C 0.08017 0.04078 0.39963 0.0
C2469 C 0.10881 0.02492 0.35091 0.0
C2470 C 0.12769 0.01387 0.35086 0.0
C2471 C 0.10282 0.03592 0.33314 0.0
C2472 C 0.08276 0.0474 0.33234 0.0
C2473 C 0.08288 0.06824 0.32878 0.0
C2474 C 0.06398 0.07917 0.32863 0.0
C2475 C 0.04486 0.06937 0.33182 0.0
C2476 C 0.0446 0.04863 0.33522 0.0
C2477 C 0.06344 0.03764 0.33545 0.0
H2478 H 0.03024 0.07779 0.33162 0.0
H2479 H 0.21225 0.9699 0.3335 0.0
H2480 H 0.9821 0.85923 0.73742 0.0
H2481 H 0.98941 0.88528 0.71182 0.0
H2482 H 0.02922 0.84375 0.67839 0.0
H2483 H 0.0222 0.81774 0.70414 0.0
H2484 H 0.04589 0.88035 0.6778 0.0
H2485 H 0.97793 0.85256 0.66382 0.0
H2486 H 0.9416 0.84233 0.67186 0.0
H2487 H 0.9252 0.90354 0.6861 0.0
H2488 H 0.96154 0.9141 0.67843 0.0
H2489 H 0.04215 0.92982 0.58042 0.0
H2490 H 0.03734 0.90512 0.60794 0.0
H2491 H 0.00345 0.94928 0.64393 0.0
H2492 H 0.0084 0.97416 0.61654 0.0
H2493 H 0.98411 0.91173 0.64328 0.0
H2494 H 0.05258 0.93926 0.65643 0.0
H2495 H 0.08903 0.9489 0.64815 0.0
H2496 H 0.10436 0.8874 0.63418 0.0
H2497 H 0.0679 0.87741 0.64217 0.0
C2498 C 0.99257 0.85572 0.72471 0.0
C2499 C 0.00146 0.8364 0.72272 0.0
C2500 C 0.99669 0.8706 0.71006 0.0
C2501 C 0.00951 0.86636 0.69292 0.0
C2502 C 0.01923 0.84737 0.69143 0.0
C2503 C 0.01525 0.83253 0.70619 0.0
C2504 C 0.01202 0.88139 0.67612 0.0
C2505 C 0.03238 0.88702 0.6701 0.0
C2506 C 0.9944 0.89037 0.66623 0.0
C2507 C 0.97251 0.88408 0.67075 0.0
C2508 C 0.96661 0.86382 0.66881 0.0
C2509 C 0.94602 0.85796 0.67328 0.0
C2510 C 0.93111 0.87227 0.67954 0.0
C2511 C 0.93677 0.89247 0.68128 0.0
C2512 C 0.95736 0.8984 0.67686 0.0
C2513 C 0.03356 0.93425 0.59412 0.0
C2514 C 0.02574 0.95398 0.59633 0.0
C2515 C 0.03093 0.92015 0.60989 0.0
C2516 C 0.02027 0.92545 0.62807 0.0
C2517 C 0.01182 0.94492 0.63005 0.0
C2518 C 0.01467 0.95911 0.61439 0.0
C2519 C 0.01794 0.91068 0.64505 0.0
C2520 C -0.0024 0.90507 0.65104 0.0
C2521 C 0.03558 0.90163 0.65477 0.0
C2522 C 0.05746 0.90761 0.64975 0.0
C2523 C 0.06367 0.92781 0.65143 0.0
C2524 C 0.08435 0.93333 0.64686 0.0
C2525 C 0.09902 0.91876 0.64072 0.0
C2526 C 0.093 0.89865 0.63903 0.0
C2527 C 0.07233 0.89305 0.64359 0.0
H2528 H 0.11502 0.92306 0.63717 0.0
H2529 H 0.91517 0.86771 0.68299 0.0
H2530 H 0.22958 0.99575 0.70035 0.0
H2531 H 0.21147 0.00585 0.6687 0.0
H2532 H 0.1781 0.94963 0.66807 0.0
H2533 H 0.19543 0.93967 0.70016 0.0
H2534 H 0.19867 0.96 0.62995 0.0
H2535 H 0.15236 0.9893 0.68177 0.0
H2536 H 0.14439 0.011 0.71167 0.0
H2537 H 0.16637 0.06256 0.67836 0.0
H2538 H 0.17474 0.04109 0.64835 0.0
H2539 H 0.11149 0.96829 0.56473 0.0
H2540 H 0.13959 0.96358 0.58952 0.0
H2541 H 0.15268 0.02717 0.58806 0.0
H2542 H 0.12358 0.03225 0.56385 0.0
H2543 H 0.14792 0.01682 0.62535 0.0
H2544 H 0.1882 0.98907 0.57113 0.0
H2545 H 0.1972 0.96804 0.54106 0.0
H2546 H 0.18971 0.91472 0.57754 0.0
H2547 H 0.17981 0.93533 0.60762 0.0
C2548 C 0.21804 0.98568 0.69379 0.0
C2549 C 0.214 0.96685 0.70286 0.0
C2550 C 0.20787 0.99143 0.67558 0.0
C2551 C 0.19359 0.97841 0.66603 0.0
C2552 C 0.18925 0.95978 0.67514 0.0
C2553 C 0.19922 0.95411 0.69346 0.0
C2554 C 0.18328 0.98402 0.64638 0.0
C2555 C 0.18742 0.97231 0.62884 0.0
C2556 C 0.16946 1.00068 0.64489 0.0
C2557 C 0.16443 0.01355 0.66293 0.0
C2558 C 0.15569 0.00523 0.6809 0.0
C2559 C 0.15105 0.01749 0.69785 0.0
C2560 C 0.15494 0.03813 0.69694 0.0
C2561 C 0.16341 0.04656 0.67906 0.0
C2562 C 0.1681 0.03436 0.66208 0.0
C2563 C 0.12061 0.98129 0.56922 0.0
C2564 C 0.11497 1.00074 0.56256 0.0
C2565 C 0.1369 0.97851 0.58337 0.0
C2566 C 0.14836 0.99499 0.59074 0.0
C2567 C 0.14397 0.01422 0.58272 0.0
C2568 C 0.1274 0.01709 0.56878 0.0
C2569 C 0.16272 0.99239 0.60869 0.0
C2570 C 0.15941 0.00469 0.62606 0.0
C2571 C 0.17752 0.97637 0.6099 0.0
C2572 C 0.18313 0.96382 0.59168 0.0
C2573 C 0.18819 0.97285 0.5727 0.0
C2574 C 0.19343 0.96099 0.55563 0.0
C2575 C 0.19395 0.94005 0.55737 0.0
C2576 C 0.18925 0.93094 0.5762 0.0
C2577 C 0.18375 0.94271 0.59326 0.0
H2578 H 0.19805 0.93089 0.54414 0.0
H2579 H 0.15133 0.04761 0.71008 0.0
H2580 H 0.03385 0.16684 0.72349 0.0
H2581 H 0.02979 0.14261 0.69541 0.0
H2582 H 0.99437 0.18649 0.66051 0.0
H2583 H -0.00104 0.211 0.68821 0.0
H2584 H -0.00112 0.12471 0.67426 0.0
H2585 H 0.01133 0.18346 0.6096 0.0
H2586 H 0.02713 0.21696 0.60495 0.0
H2587 H 0.06872 0.20595 0.656 0.0
H2588 H 0.05356 0.17223 0.66061 0.0
H2589 H 0.99443 0.07471 0.57491 0.0
H2590 H 0.98689 0.09881 0.60274 0.0
H2591 H 0.05293 0.11316 0.60627 0.0
H2592 H 0.06052 0.08914 0.57897 0.0
H2593 H 0.02955 0.14634 0.60758 0.0
H2594 H 0.02971 0.08069 0.6379 0.0
H2595 H 0.01839 0.04611 0.64531 0.0
H2596 H 0.95879 0.06835 0.66708 0.0
H2597 H 0.96921 0.10296 0.65859 0.0
C2598 C 0.02497 0.17126 0.70995 0.0
C2599 C 0.01695 0.19095 0.70803 0.0
C2600 C 0.02253 0.15734 0.69396 0.0
C2601 C 0.01208 0.16283 0.6757 0.0
C2602 C 0.00273 0.18199 0.67435 0.0
C2603 C 0.0052 0.19594 0.69032 0.0
C2604 C 0.0127 0.1492 0.65752 0.0
C2605 C 0.0053 0.12945 0.65955 0.0
C2606 C 0.02154 0.15532 0.6385 0.0
C2607 C 0.03103 0.17546 0.63566 0.0
C2608 C 0.02388 0.18818 0.61979 0.0
C2609 C 0.03275 0.2072 0.61715 0.0
C2610 C 0.04882 0.21363 0.63026 0.0
C2611 C 0.05617 0.201 0.64594 0.0
C2612 C 0.04747 0.18193 0.64856 0.0
C2613 C 0.00729 0.08297 0.58165 0.0
C2614 C 0.0281 0.07966 0.57498 0.0
C2615 C 0.00297 0.09676 0.59754 0.0
C2616 C 0.01939 0.10763 0.60676 0.0
C2617 C 0.04001 0.10492 0.59947 0.0
C2618 C 0.04432 0.09108 0.58386 0.0
C2619 C 0.0156 0.12174 0.62418 0.0
C2620 C 0.02253 0.14164 0.62205 0.0
C2621 C 0.00681 0.11553 0.64324 0.0
C2622 C 0.00011 0.09449 0.64716 0.0
C2623 C 0.01397 0.07821 0.64371 0.0
C2624 C 0.0077 0.05856 0.64813 0.0
C2625 C 0.98781 0.05499 0.65649 0.0
C2626 C 0.97412 0.07108 0.66039 0.0
C2627 C 0.98012 0.09071 0.65561 0.0
H2628 H 0.98304 0.03979 0.66004 0.0
H2629 H 0.05566 0.22836 0.62819 0.0
H2630 H 0.86177 0.03194 0.75311 0.0
H2631 H 0.88635 0.02244 0.72553 0.0
H2632 H 0.88815 0.08412 0.70513 0.0
H2633 H 0.86332 0.0936 0.73201 0.0
H2634 H 0.87753 0.0586 0.67443 0.0
H2635 H 0.93068 0.06267 0.72719 0.0
H2636 H 0.94739 0.0545 0.76051 0.0
H2637 H 0.95156 0.99229 0.74304 0.0
H2638 H 0.93459 1.00006 0.7097 0.0
H2639 H 0.95597 0.06091 0.59962 0.0
H2640 H 0.9367 0.06549 0.63168 0.0
H2641 H 0.93954 0.00163 0.64307 0.0
H2642 H 0.95869 0.99676 0.61053 0.0
H2643 H 0.94717 0.02456 0.67857 0.0
H2644 H 0.89518 0.02076 0.62531 0.0
H2645 H 0.87897 0.02912 0.5918 0.0
H2646 H 0.87249 0.09084 0.61043 0.0
H2647 H 0.88894 0.08289 0.64396 0.0
C2648 C 0.86764 0.0435 0.74291 0.0
C2649 C 0.86051 0.06352 0.74478 0.0
C2650 C 0.88179 0.03808 0.72726 0.0
C2651 C 0.88902 0.05258 0.71326 0.0
C2652 C 0.88274 0.07269 0.71576 0.0
C2653 C 0.86868 0.07811 0.73133 0.0
C2654 C 0.90139 0.04674 0.69479 0.0
C2655 C 0.89286 0.05134 0.67537 0.0
C2656 C 0.92102 0.03662 0.696 0.0
C2657 C 0.93112 0.03191 0.71606 0.0
C2658 C 0.93495 0.04722 0.73054 0.0
C2659 C 0.94452 0.04266 0.74941 0.0
C2660 C 0.95047 0.02288 0.75392 0.0
C2661 C 0.94691 0.00761 0.73954 0.0
C2662 C 0.93733 0.01208 0.72066 0.0
C2663 C 0.95263 0.04778 0.60891 0.0
C2664 C 0.95866 0.02841 0.60236 0.0
C2665 C 0.94155 0.05044 0.62724 0.0
C2666 C 0.9365 0.03388 0.63963 0.0
C2667 C 0.94325 0.01459 0.63367 0.0
C2668 C 0.9541 0.01184 0.61506 0.0
C2669 C 0.92348 0.03689 0.65834 0.0
C2670 C 0.93177 0.03167 0.6777 0.0
C2671 C 0.90355 0.04644 0.65716 0.0
C2672 C 0.89342 0.05125 0.63709 0.0
C2673 C 0.89042 0.03614 0.62221 0.0
C2674 C 0.88117 0.0408 0.60322 0.0
C2675 C 0.87473 0.06051 0.59898 0.0
C2676 C 0.87749 0.07558 0.61374 0.0
C2677 C 0.88675 0.071 0.63275 0.0
H2678 H 0.86758 0.06409 0.58426 0.0
H2679 H 0.95788 0.01939 0.76853 0.0
H2680 H 0.3439 0.98151 0.21222 0.0
H2681 H 0.37063 0.9896 0.18653 0.0
H2682 H 0.32953 0.96891 0.13811 0.0
H2683 H 0.30278 0.96031 0.16385 0.0
H2684 H 0.37161 0.95683 0.13244 0.0
H2685 H 0.33224 0.01746 0.14718 0.0
H2686 H 0.31688 0.04363 0.16968 0.0
H2687 H 0.37853 0.05877 0.19174 0.0
H2688 H 0.39424 0.03247 0.16958 0.0
H2689 H 0.41576 0.00762 0.04669 0.0
H2690 H 0.39368 0.99349 0.07374 0.0
H2691 H 0.43332 0.0204 0.12011 0.0
H2692 H 0.45527 0.03498 0.09307 0.0
H2693 H 0.39332 0.02824 0.12775 0.0
H2694 H 0.4333 0.96901 0.11179 0.0
H2695 H 0.44894 0.94393 0.08818 0.0
H2696 H 0.38725 0.92645 0.06832 0.0
H2697 H 0.37122 0.95162 0.0915 0.0
C2698 C 0.34065 0.97838 0.19614 0.0
C2699 C 0.32119 0.97033 0.19006 0.0
C2700 C 0.3559 0.98312 0.18148 0.0
C2701 C 0.35197 0.97999 0.16043 0.0
C2702 C 0.33283 0.97143 0.1543 0.0
C2703 C 0.31751 0.96673 0.16898 0.0
C2704 C 0.36742 0.98667 0.1448 0.0
C2705 C 0.37626 0.97245 0.13126 0.0
C2706 C 0.3738 0.00698 0.14362 0.0
C2707 C 0.36439 0.02286 0.15689 0.0
C2708 C 0.3425 0.02626 0.15696 0.0
C2709 C 0.33374 0.04113 0.16962 0.0
C2710 C 0.34671 0.05282 0.18217 0.0
C2711 C 0.36849 0.04969 0.18204 0.0
C2712 C 0.37734 0.03481 0.16942 0.0
C2713 C 0.41994 0.01036 0.06264 0.0
C2714 C 0.43718 0.02252 0.06775 0.0
C2715 C 0.40734 0.00218 0.0781 0.0
C2716 C 0.41193 0.00577 0.09896 0.0
C2717 C 0.42948 0.01748 0.10411 0.0
C2718 C 0.442 0.02578 0.08864 0.0
C2719 C 0.39764 0.99842 0.11534 0.0
C2720 C 0.38891 0.01255 0.12902 0.0
C2721 C 0.39149 0.97803 0.11667 0.0
C2722 C 0.40105 0.96232 0.10328 0.0
C2723 C 0.42306 0.95987 0.10232 0.0
C2724 C 0.43201 0.94565 0.089 0.0
C2725 C 0.41911 0.93368 0.07668 0.0
C2726 C 0.39723 0.93575 0.07781 0.0
C2727 C 0.3882 0.94998 0.09106 0.0
H2728 H 0.42608 0.92282 0.06627 0.0
H2729 H 0.3399 0.06433 0.19196 0.0
H2730 H 0.0658 0.32294 0.2066 0.0
H2731 H 0.07344 0.34636 0.17875 0.0
H2732 H 0.01122 0.33744 0.1538 0.0
H2733 H 0.004 0.31284 0.18072 0.0
H2734 H 0.03658 0.34251 0.12341 0.0
H2735 H 0.02369 0.37826 0.18591 0.0
H2736 H 0.02812 0.38721 0.22256 0.0
H2737 H 0.09238 0.40349 0.21119 0.0
H2738 H 0.08842 0.39436 0.17449 0.0
H2739 H 0.02874 0.43669 0.07035 0.0
H2740 H 0.02446 0.4073 0.09241 0.0
H2741 H 0.08833 0.41376 0.11402 0.0
H2742 H 0.09248 0.44355 0.09236 0.0
H2743 H 0.06238 0.40941 0.14539 0.0
H2744 H 0.07183 0.37407 0.08006 0.0
H2745 H 0.06308 0.36685 0.04374 0.0
H2746 H -0.00034 0.35268 0.06102 0.0
H2747 H 0.00801 0.35973 0.09745 0.0
C2748 C 0.0539 0.32547 0.19491 0.0
C2749 C 0.03413 0.31611 0.1962 0.0
C2750 C 0.0582 0.33916 0.1791 0.0
C2751 C 0.04271 0.34417 0.16446 0.0
C2752 C 0.0234 0.33404 0.16501 0.0
C2753 C 0.0192 0.32011 0.18062 0.0
C2754 C 0.0462 0.36066 0.14926 0.0
C2755 C 0.04211 0.35717 0.12825 0.0
C2756 C 0.05338 0.37987 0.15546 0.0
C2757 C 0.05583 0.38541 0.17751 0.0
C2758 C 0.03881 0.3836 0.19126 0.0
C2759 C 0.04123 0.38873 0.21203 0.0
C2760 C 0.06054 0.39586 0.21921 0.0
C2761 C 0.07745 0.39793 0.20561 0.0
C2762 C 0.07513 0.39279 0.18482 0.0
C2763 C 0.04196 0.43175 0.0796 0.0
C2764 C 0.0609 0.44258 0.07966 0.0
C2765 C 0.03953 0.41481 0.09216 0.0
C2766 C 0.05614 0.40813 0.1048 0.0
C2767 C 0.07527 0.4186 0.10443 0.0
C2768 C 0.07764 0.43564 0.09201 0.0
C2769 C 0.05315 0.39118 0.1195 0.0
C2770 C 0.05716 0.39466 0.1405 0.0
C2771 C 0.04536 0.37219 0.11333 0.0
C2772 C 0.04052 0.36755 0.09146 0.0
C2773 C 0.056 0.36947 0.0761 0.0
C2774 C 0.05111 0.3654 0.05549 0.0
C2775 C 0.03079 0.35944 0.05006 0.0
C2776 C 0.01538 0.35731 0.06525 0.0
C2777 C 0.0202 0.36127 0.08588 0.0
H2778 H 0.02696 0.35645 0.0341 0.0
H2779 H 0.06238 0.39982 0.2353 0.0
H2780 H 0.75678 0.04416 0.12464 0.0
H2781 H 0.73092 0.04779 0.09695 0.0
H2782 H 0.68551 0.07073 0.14053 0.0
H2783 H 0.71054 0.06623 0.1683 0.0
H2784 H 0.67657 0.03318 0.12566 0.0
H2785 H 0.69566 0.09749 0.09821 0.0
H2786 H 0.71702 0.12419 0.08236 0.0
H2787 H 0.73009 0.086 0.03046 0.0
H2788 H 0.70919 0.05892 0.04617 0.0
H2789 H 0.58588 0.02561 0.06733 0.0
H2790 H 0.61487 0.04071 0.08635 0.0
H2791 H 0.65825 0.02248 0.03851 0.0
H2792 H 0.62908 0.00792 0.019 0.0
H2793 H 0.66945 0.05772 0.05389 0.0
H2794 H 0.65258 0.99389 0.08122 0.0
H2795 H 0.63014 0.96694 0.09497 0.0
H2796 H 0.61323 0.00425 0.14653 0.0
H2797 H 0.63534 0.03158 0.13291 0.0
C2798 C 0.74148 0.05052 0.12827 0.0
C2799 C 0.73556 0.05413 0.14891 0.0
C2800 C 0.72681 0.05288 0.11232 0.0
C2801 C 0.7062 0.05919 0.11678 0.0
C2802 C 0.70134 0.06574 0.1368 0.0
C2803 C 0.71583 0.06317 0.15274 0.0
C2804 C 0.68877 0.05359 0.1028 0.0
C2805 C 0.67465 0.0391 0.11017 0.0
C2806 C 0.68709 0.06035 0.08218 0.0
C2807 C 0.70104 0.07605 0.07351 0.0
C2808 C 0.70342 0.09462 0.08361 0.0
C2809 C 0.71537 0.10988 0.0746 0.0
C2810 C 0.72498 0.10676 0.05546 0.0
C2811 C 0.72271 0.08837 0.04532 0.0
C2812 C 0.71082 0.07307 0.05427 0.0
C2813 C 0.60155 0.02496 0.06077 0.0
C2814 C 0.60533 0.0152 0.04192 0.0
C2815 C 0.6181 0.03358 0.07165 0.0
C2816 C 0.63878 0.03216 0.06413 0.0
C2817 C 0.64243 0.02352 0.0447 0.0
C2818 C 0.62578 0.01514 0.03363 0.0
C2819 C 0.65657 0.03855 0.07727 0.0
C2820 C 0.67104 0.05253 0.06962 0.0
C2821 C 0.65878 0.0313 0.09764 0.0
C2822 C 0.64547 0.01487 0.10593 0.0
C2823 C 0.64395 0.99642 0.0954 0.0
C2824 C 0.6313 0.98107 0.10319 0.0
C2825 C 0.62022 0.9839 0.12159 0.0
C2826 C 0.6218 0.00209 0.13226 0.0
C2827 C 0.6344 0.01752 0.12452 0.0
H2828 H 0.61045 0.97199 0.12761 0.0
H2829 H 0.73415 0.11859 0.04847 0.0
H2830 H 0.0092 0.72457 0.16471 0.0
H2831 H 0.00254 0.69768 0.13954 0.0
H2832 H 0.01785 0.65319 0.18562 0.0
H2833 H 0.02438 0.67985 0.21077 0.0
H2834 H 0.03956 0.64833 0.14727 0.0
H2835 H 0.9687 0.65954 0.17339 0.0
H2836 H 0.93725 0.68028 0.18077 0.0
H2837 H 0.93115 0.69442 0.11642 0.0
H2838 H 0.96276 0.67399 0.10869 0.0
H2839 H 0.01756 0.55805 0.10584 0.0
H2840 H 0.00824 0.58572 0.12899 0.0
H2841 H 0.99286 0.62296 0.07658 0.0
H2842 H 0.00171 0.59496 0.05335 0.0
H2843 H 0.97035 0.63359 0.11511 0.0
H2844 H 0.03923 0.62259 0.08773 0.0
H2845 H 0.06923 0.60069 0.07854 0.0
H2846 H 0.08042 0.5884 0.14263 0.0
H2847 H 0.04981 0.60949 0.15219 0.0
C2848 C 0.01096 0.70904 0.16948 0.0
C2849 C 0.01719 0.70432 0.18976 0.0
C2850 C 0.00711 0.69372 0.15512 0.0
C2851 C 0.00969 0.67345 0.16073 0.0
C2852 C 0.01574 0.66873 0.18098 0.0
C2853 C 0.0193 0.68398 0.19538 0.0
C2854 C 0.00687 0.65705 0.14543 0.0
C2855 C 0.0244 0.64504 0.14038 0.0
C2856 C 0.98725 0.6532 0.13584 0.0
C2857 C 0.96823 0.66543 0.1405 0.0
C2858 C 0.96077 0.66723 0.16084 0.0
C2859 C 0.94289 0.6789 0.16508 0.0
C2860 C 0.93225 0.68872 0.14909 0.0
C2861 C 0.93943 0.68684 0.1288 0.0
C2862 C 0.95732 0.67521 0.12448 0.0
C2863 C 0.01107 0.57177 0.09936 0.0
C2864 C 0.01031 0.57449 0.07794 0.0
C2865 C 0.00579 0.58759 0.11255 0.0
C2866 C 0.0003 0.6065 0.10445 0.0
C2867 C 0.99704 0.60848 0.08312 0.0
C2868 C 0.00207 0.59249 0.06987 0.0
C2869 C 0.00287 0.62461 0.11755 0.0
C2870 C 0.98549 0.637 0.12197 0.0
C2871 C 0.02275 0.62915 0.12626 0.0
C2872 C 0.04199 0.61742 0.12068 0.0
C2873 C 0.04789 0.61502 0.09988 0.0
C2874 C 0.06495 0.60266 0.09458 0.0
C2875 C 0.07665 0.59305 0.10998 0.0
C2876 C 0.07129 0.59579 0.13071 0.0
C2877 C 0.05402 0.60789 0.13608 0.0
H2878 H 0.08996 0.58362 0.10587 0.0
H2879 H 0.9184 0.69774 0.1524 0.0
H2880 H 0.28973 0.97247 0.87041 0.0
H2881 H 0.31678 0.97987 0.89648 0.0
H2882 H 0.36017 0.99605 0.84822 0.0
H2883 H 0.33352 0.98877 0.82231 0.0
H2884 H 0.3752 0.96627 0.87691 0.0
H2885 H 0.34066 0.03184 0.8753 0.0
H2886 H 0.3102 0.05476 0.87896 0.0
H2887 H 0.30223 0.036 0.94183 0.0
H2888 H 0.33249 0.01274 0.93845 0.0
H2889 H 0.46197 0.01658 0.92182 0.0
H2890 H 0.43143 0.00534 0.90162 0.0
H2891 H 0.39514 0.99998 0.95761 0.0
H2892 H 0.42556 0.01133 0.97765 0.0
H2893 H 0.3741 0.02114 0.92876 0.0
H2894 H 0.40832 0.95817 0.93304 0.0
H2895 H 0.43625 0.93229 0.93113 0.0
H2896 H 0.44274 0.94284 0.86613 0.0
H2897 H 0.41509 0.96905 0.86771 0.0
C2898 C 0.30494 0.97792 0.86546 0.0
C2899 C 0.30944 0.98023 0.84435 0.0
C2900 C 0.32032 0.98213 0.88031 0.0
C2901 C 0.34042 0.98844 0.87418 0.0
C2902 C 0.34473 0.9912 0.8532 0.0
C2903 C 0.32939 0.98724 0.83844 0.0
C2904 C 0.35753 0.99121 0.88935 0.0
C2905 C 0.3751 0.97837 0.88815 0.0
C2906 C 0.35685 0.00642 0.90454 0.0
C2907 C 0.33866 0.02037 0.90654 0.0
C2908 C 0.33227 0.03244 0.88984 0.0
C2909 C 0.31508 0.04553 0.89188 0.0
C2910 C 0.30424 0.04679 0.91059 0.0
C2911 C 0.31061 0.03499 0.92733 0.0
C2912 C 0.32779 0.02185 0.92536 0.0
C2913 C 0.44755 0.0126 0.92971 0.0
C2914 C 0.44608 0.01425 0.9512 0.0
C2915 C 0.43018 0.00617 0.91826 0.0
C2916 C 0.41109 0.00164 0.92817 0.0
C2917 C 0.40974 0.00325 0.94969 0.0
C2918 C 0.42713 0.0095 0.96111 0.0
C2919 C 0.39218 0.99658 0.9159 0.0
C2920 C 0.37422 0.00892 0.91767 0.0
C2921 C 0.39233 0.98066 0.90145 0.0
C2922 C 0.40974 0.9657 0.90055 0.0
C2923 C 0.41592 0.9552 0.91841 0.0
C2924 C 0.43163 0.94041 0.91736 0.0
C2925 C 0.44116 0.9359 0.8985 0.0
C2926 C 0.43526 0.94634 0.8807 0.0
C2927 C 0.41958 0.96116 0.88167 0.0
H2928 H 0.45305 0.92426 0.89764 0.0
H2929 H 0.29094 0.05694 0.91215 0.0
H2930 H 0.05622 0.32072 0.83067 0.0
H2931 H 0.05048 0.34663 0.85666 0.0
H2932 H 0.98357 0.33613 0.85417 0.0
H2933 H 0.98923 0.31004 0.82799 0.0
H2934 H 0.9906 0.37471 0.85259 0.0
H2935 H 0.01394 0.32201 0.89621 0.0
H2936 H 0.03633 0.29453 0.90955 0.0
H2937 H 0.08735 0.33575 0.91803 0.0
H2938 H 0.06541 0.36343 0.90437 0.0
H2939 H 0.9703 0.44007 0.93678 0.0
H2940 H 0.97365 0.40992 0.91555 0.0
H2941 H 0.04053 0.41951 0.91047 0.0
H2942 H 0.0374 0.44947 0.93234 0.0
H2943 H 0.03128 0.38004 0.91768 0.0
H2944 H 0.00667 0.43218 0.87086 0.0
H2945 H 0.98202 0.45928 0.86076 0.0
H2946 H 0.93071 0.41758 0.86162 0.0
H2947 H 0.95504 0.39027 0.87193 0.0
C2948 C 0.04029 0.32356 0.83595 0.0
C2949 C 0.02319 0.31316 0.8273 0.0
C2950 C 0.03703 0.33845 0.85084 0.0
C2951 C 0.01661 0.34323 0.85761 0.0
C2952 C -0.00052 0.33272 0.84921 0.0
C2953 C 0.00274 0.31783 0.83422 0.0
C2954 C 0.01316 0.36002 0.87249 0.0
C2955 C -0.00073 0.37565 0.86698 0.0
C2956 C 0.02462 0.36149 0.89121 0.0
C2957 C 0.03807 0.34477 0.899 0.0
C2958 C 0.03001 0.32519 0.90066 0.0
C2959 C 0.04262 0.30957 0.90834 0.0
C2960 C 0.06327 0.31338 0.91457 0.0
C2961 C 0.07137 0.33281 0.91315 0.0
C2962 C 0.05885 0.34847 0.90544 0.0
C2963 C 0.98578 0.43567 0.93135 0.0
C2964 C 0.0036 0.44711 0.93636 0.0
C2965 C 0.98763 0.41851 0.91906 0.0
C2966 C 0.0073 0.41256 0.91125 0.0
C2967 C 0.02519 0.42384 0.91633 0.0
C2968 C 0.02337 0.44097 0.92879 0.0
C2969 C 0.00912 0.39473 0.89753 0.0
C2970 C 0.02264 0.37895 0.9033 0.0
C2971 C 0.99712 0.39297 0.87922 0.0
C2972 C 0.98265 0.40921 0.87225 0.0
C2973 C 0.99012 0.4288 0.86891 0.0
C2974 C 0.97621 0.4442 0.86316 0.0
C2975 C 0.95481 0.44015 0.86055 0.0
C2976 C 0.9473 0.42068 0.8636 0.0
C2977 C 0.96114 0.40523 0.86936 0.0
H2978 H 0.94405 0.45211 0.85619 0.0
H2979 H 0.07299 0.30128 0.92055 0.0
H2980 H 0.72673 0.03012 0.84323 0.0
H2981 H 0.69719 0.02106 0.8655 0.0
H2982 H 0.68947 0.08308 0.88328 0.0
H2983 H 0.71799 0.09261 0.8602 0.0
H2984 H 0.68823 0.03917 0.91538 0.0
H2985 H 0.65579 0.08407 0.86001 0.0
H2986 H 0.65354 0.09284 0.82307 0.0
H2987 H 0.6415 0.03107 0.80802 0.0
H2988 H 0.64394 0.02196 0.8449 0.0
H2989 H 0.58212 0.04693 0.95605 0.0
H2990 H 0.61243 0.05771 0.93578 0.0
H2991 H 0.61455 0.99991 0.90577 0.0
H2992 H 0.58477 0.98872 0.92652 0.0
H2993 H 0.61871 0.04171 0.88016 0.0
H2994 H 0.65737 0.9952 0.92958 0.0
H2995 H 0.65957 0.98137 0.96489 0.0
H2996 H 0.65802 0.04109 0.98993 0.0
H2997 H 0.65607 0.05529 0.9546 0.0
C2998 C 0.71879 0.0419 0.85182 0.0
C2999 C 0.72473 0.06217 0.84963 0.0
C3000 C 0.70207 0.03662 0.86472 0.0
C3001 C 0.69123 0.05143 0.87593 0.0
C3002 C 0.69777 0.07146 0.87476 0.0
C3003 C 0.71423 0.07682 0.86162 0.0
C3004 C 0.67179 0.04632 0.88717 0.0
C3005 C 0.67302 0.04008 0.9078 0.0
C3006 C 0.65205 0.04681 0.87709 0.0
C3007 C 0.65021 0.05234 0.85508 0.0
C3008 C 0.65278 0.07237 0.84878 0.0
C3009 C 0.65146 0.0774 0.82788 0.0
C3010 C 0.64743 0.06251 0.8132 0.0
C3011 C 0.64465 0.04258 0.8194 0.0
C3012 C 0.64599 0.03748 0.84029 0.0
C3013 C 0.589 0.03648 0.94529 0.0
C3014 C 0.58126 0.01683 0.94339 0.0
C3015 C 0.60622 0.04273 0.93355 0.0
C3016 C 0.61569 0.02952 0.91944 0.0
C3017 C 0.60737 0.01028 0.91663 0.0
C3018 C 0.59034 0.00396 0.92852 0.0
C3019 C 0.63508 0.03533 0.90854 0.0
C3020 C 0.63387 0.04134 0.88789 0.0
C3021 C 0.65481 0.03442 0.91851 0.0
C3022 C 0.65672 0.02625 0.93961 0.0
C3023 C 0.65763 0.00536 0.94265 0.0
C3024 C 0.65879 0.99748 0.96261 0.0
C3025 C 0.65893 0.01039 0.97962 0.0
C3026 C 0.65781 0.03119 0.97669 0.0
C3027 C 0.6568 0.03916 0.95673 0.0
H3028 H 0.65999 0.0043 0.99506 0.0
H3029 H 0.64641 0.06643 0.79702 0.0
H3030 H 0.04443 0.71477 0.83147 0.0
H3031 H 0.05339 0.69112 0.85916 0.0
H3032 H 0.99257 0.70146 0.88695 0.0
H3033 H 0.98355 0.72499 0.8595 0.0
H3034 H 0.02227 0.69663 0.91631 0.0
H3035 H 0.00086 0.66228 0.85351 0.0
H3036 H 0.00379 0.65391 0.81653 0.0
H3037 H 0.06699 0.63245 0.82603 0.0
H3038 H 0.0645 0.64096 0.86304 0.0
H3039 H 0.98019 0.60813 0.95577 0.0
H3040 H 0.9924 0.63938 0.941 0.0
H3041 H 0.0515 0.61113 0.92495 0.0
H3042 H 0.03966 0.57976 0.94131 0.0
H3043 H 0.03364 0.62668 0.89197 0.0
H3044 H 0.04591 0.65087 0.95952 0.0
H3045 H 0.03744 0.65707 0.99604 0.0
H3046 H 0.98758 0.69734 0.97846 0.0
H3047 H 0.995 0.69083 0.94187 0.0
C3048 C 0.03307 0.71216 0.84361 0.0
C3049 C 0.01321 0.7217 0.84315 0.0
C3050 C 0.03824 0.6987 0.85947 0.0
C3051 C 0.02357 0.69433 0.87503 0.0
C3052 C 0.00421 0.70464 0.8752 0.0
C3053 C -0.00092 0.71815 0.85945 0.0
C3054 C 0.02719 0.67761 0.88991 0.0
C3055 C 0.02479 0.6813 0.91111 0.0
C3056 C 0.03112 0.65771 0.88311 0.0
C3057 C 0.0326 0.6525 0.86093 0.0
C3058 C 0.01543 0.65591 0.84766 0.0
C3059 C 0.017 0.65113 0.82672 0.0
C3060 C 0.03559 0.64272 0.81892 0.0
C3061 C 0.05262 0.63902 0.83208 0.0
C3062 C 0.05114 0.64382 0.85303 0.0
C3063 C 0.99601 0.6087 0.94962 0.0
C3064 C 0.00897 0.59155 0.94964 0.0
C3065 C 0.00297 0.62661 0.94104 0.0
C3066 C 0.02275 0.62767 0.93152 0.0
C3067 C 0.03614 0.61071 0.9322 0.0
C3068 C 0.02941 0.59283 0.94152 0.0
C3069 C 0.0278 0.64545 0.91851 0.0
C3070 C 0.03183 0.642 0.89751 0.0
C3071 C 0.02488 0.66549 0.92558 0.0
C3072 C 0.02097 0.67019 0.94774 0.0
C3073 C 0.03303 0.66095 0.96336 0.0
C3074 C 0.02845 0.66456 0.98413 0.0
C3075 C 0.01212 0.67768 0.98957 0.0
C3076 C 0.00028 0.68721 0.97424 0.0
C3077 C 0.00465 0.68353 0.95345 0.0
H3078 H 0.00861 0.68042 0.00567 0.0
H3079 H 0.03678 0.63902 0.8027 0.0
H3080 H 0.15443 0.3248 0.95751 0.0
H3081 H 0.12557 0.346 0.96931 0.0
H3082 H 0.14021 0.33085 0.03246 0.0
H3083 H 0.17027 0.31061 0.0207 0.0
H3084 H 0.09099 0.34508 0.98879 0.0
H3085 H 0.13105 0.37163 0.06301 0.0
H3086 H 0.1664 0.37353 0.07876 0.0
H3087 H 0.19442 0.37702 0.0186 0.0
H3088 H 0.15923 0.37538 0.00255 0.0
H3089 H 0.02754 0.42963 0.01666 0.0
H3090 H 0.04621 0.39772 0.02246 0.0
H3091 H 0.10501 0.42647 0.0075 0.0
H3092 H 0.08673 0.45823 0.00267 0.0
H3093 H 0.11242 0.40046 0.03538 0.0
H3094 H 0.07171 0.40084 0.97151 0.0
H3095 H 0.0386 0.40251 0.95176 0.0
H3096 H 0.01605 0.35007 0.9831 0.0
H3097 H 0.04902 0.34821 0.00326 0.0
C3098 C 0.15157 0.32594 0.97394 0.0
C3099 C 0.16512 0.31647 0.98816 0.0
C3100 C 0.1348 0.3379 0.98069 0.0
C3101 C 0.1309 0.34049 0.00184 0.0
C3102 C 0.14317 0.32952 0.01607 0.0
C3103 C 0.16026 0.31776 0.00931 0.0
C3104 C 0.11555 0.35627 0.00858 0.0
C3105 C 0.09559 0.35705 0.9992 0.0
C3106 C 0.12139 0.37199 0.02216 0.0
C3107 C 0.14258 0.37306 0.03162 0.0
C3108 C 0.14478 0.37281 0.05318 0.0
C3109 C 0.16477 0.37385 0.06215 0.0
C3110 C 0.18265 0.3753 0.04968 0.0
C3111 C 0.18057 0.37581 0.02823 0.0
C3112 C 0.16062 0.37482 0.01919 0.0
C3113 C 0.0445 0.42918 0.01508 0.0
C3114 C 0.05559 0.44641 0.00888 0.0
C3115 C 0.05517 0.41091 0.01831 0.0
C3116 C 0.07703 0.40951 0.01501 0.0
C3117 C 0.08817 0.42704 0.01012 0.0
C3118 C 0.07762 0.44525 0.0072 0.0
C3119 C 0.08844 0.38985 0.01463 0.0
C3120 C 0.10755 0.38821 0.02542 0.0
C3121 C 0.08219 0.37379 0.00165 0.0
C3122 C 0.06262 0.37463 0.98919 0.0
C3123 C 0.05963 0.38974 0.97428 0.0
C3124 C 0.0409 0.39071 0.96299 0.0
C3125 C 0.02517 0.37646 0.9662 0.0
C3126 C 0.0282 0.36114 0.98067 0.0
C3127 C 0.0469 0.36014 0.99206 0.0
H3128 H 0.01069 0.37726 0.95742 0.0
H3129 H 0.19811 0.37608 0.05665 0.0
H3130 H 0.1581 0.70956 0.97462 0.0
H3131 H 0.13219 0.68543 0.98638 0.0
H3132 H 0.12833 0.71593 0.04508 0.0
H3133 H 0.15499 0.73999 0.03342 0.0
H3134 H 0.1294 0.67831 0.05216 0.0
H3135 H 0.08689 0.71769 0.00842 0.0
H3136 H 0.07449 0.73638 0.97786 0.0
H3137 H 0.07546 0.68199 0.94214 0.0
H3138 H 0.08825 0.66303 0.97234 0.0
H3139 H 0.03317 0.60737 0.02229 0.0
H3140 H 0.04725 0.64005 0.03242 0.0
H3141 H 0.1087 0.61304 0.04058 0.0
H3142 H 0.09438 0.5803 0.03109 0.0
H3143 H 0.07228 0.6548 0.00632 0.0
H3144 H 0.14143 0.64105 0.06368 0.0
H3145 H 0.14763 0.62891 0.09922 0.0
H3146 H 0.08317 0.64114 0.11465 0.0
H3147 H 0.07637 0.65281 0.07913 0.0
C3148 C 0.15144 0.71142 0.98989 0.0
C3149 C 0.15838 0.72685 0.003 0.0
C3150 C 0.13656 0.69759 0.99662 0.0
C3151 C 0.12789 0.69903 0.0165 0.0
C3152 C 0.13468 0.71453 0.02964 0.0
C3153 C 0.14986 0.72829 0.02297 0.0
C3154 C 0.11273 0.68356 0.02365 0.0
C3155 C 0.11669 0.67335 0.04226 0.0
C3156 C 0.09556 0.67748 0.01123 0.0
C3157 C 0.0887 0.68895 0.99268 0.0
C3158 C 0.08472 0.70974 0.99399 0.0
C3159 C 0.07757 0.72038 0.97672 0.0
C3160 C 0.07422 0.71038 0.95806 0.0
C3161 C 0.07811 0.68973 0.95659 0.0
C3162 C 0.08531 0.67903 0.97379 0.0
C3163 C 0.04944 0.60831 0.02723 0.0
C3164 C 0.06276 0.59145 0.02586 0.0
C3165 C 0.0575 0.62697 0.03303 0.0
C3166 C 0.07914 0.62917 0.03698 0.0
C3167 C 0.09194 0.61182 0.03784 0.0
C3168 C 0.08375 0.59305 0.03237 0.0
C3169 C 0.08905 0.64927 0.03463 0.0
C3170 C 0.0844 0.66018 0.01664 0.0
C3171 C 0.10478 0.65651 0.04808 0.0
C3172 C 0.10835 0.64757 0.0687 0.0
C3173 C 0.12851 0.64086 0.07458 0.0
C3174 C 0.13211 0.63401 0.09468 0.0
C3175 C 0.11574 0.63398 0.10906 0.0
C3176 C 0.09574 0.64084 0.10339 0.0
C3177 C 0.09194 0.64738 0.08323 0.0
H3178 H 0.1186 0.62878 0.12464 0.0
H3179 H 0.06858 0.71863 0.94474 0.0
H3180 H 0.29265 0.1878 0.96547 0.0
H3181 H 0.32407 0.16687 0.96945 0.0
H3182 H 0.35276 0.21284 0.00685 0.0
H3183 H 0.32187 0.23436 0.00196 0.0
H3184 H 0.38048 0.19968 0.98064 0.0
H3185 H 0.33356 0.16813 0.02773 0.0
H3186 H 0.30078 0.15234 0.03977 0.0
H3187 H 0.30853 0.1051 0.99517 0.0
H3188 H 0.34123 0.12076 0.98266 0.0
H3189 H 0.45055 0.12187 0.02924 0.0
H3190 H 0.42267 0.14715 0.02462 0.0
H3191 H 0.41406 0.12752 0.96184 0.0
H3192 H 0.44245 0.10277 0.96606 0.0
H3193 H 0.37752 0.12801 0.00159 0.0
H3194 H 0.4254 0.16327 0.95408 0.0
H3195 H 0.45965 0.17892 0.94668 0.0
H3196 H 0.45058 0.22001 0.99703 0.0
H3197 H 0.41664 0.20402 0.0053 0.0
C3198 C 0.30561 0.19349 0.97457 0.0
C3199 C 0.30463 0.21282 0.98338 0.0
C3200 C 0.32354 0.1814 0.97699 0.0
C3201 C 0.3408 0.18818 0.98859 0.0
C3202 C 0.33968 0.20726 0.99782 0.0
C3203 C 0.32183 0.21944 0.99525 0.0
C3204 C 0.36021 0.1756 0.99055 0.0
C3205 C 0.37977 0.18406 0.98537 0.0
C3206 C 0.35945 0.15517 0.9967 0.0
C3207 C 0.33974 0.14574 0.00412 0.0
C3208 C 0.32818 0.15447 0.02037 0.0
C3209 C 0.30964 0.14552 0.0273 0.0
C3210 C 0.30255 0.12776 0.01821 0.0
C3211 C 0.31402 0.11888 0.00218 0.0
C3212 C 0.33258 0.12777 0.99518 0.0
C3213 C 0.44316 0.12336 0.01428 0.0
C3214 C 0.44873 0.11035 0.99805 0.0
C3215 C 0.42723 0.13776 0.01168 0.0
C3216 C 0.41644 0.1392 0.99287 0.0
C3217 C 0.42244 0.12677 0.97639 0.0
C3218 C 0.43869 0.11267 0.97883 0.0
C3219 C 0.39741 0.15202 0.99125 0.0
C3220 C 0.37802 0.14361 0.9967 0.0
C3221 C 0.39839 0.1725 0.98568 0.0
C3222 C 0.41865 0.18222 0.98053 0.0
C3223 C 0.43085 0.17541 0.9638 0.0
C3224 C 0.45017 0.18439 0.95939 0.0
C3225 C 0.45726 0.20046 0.97134 0.0
C3226 C 0.44507 0.20754 0.98779 0.0
C3227 C 0.42583 0.19848 0.99239 0.0
H3228 H 0.47219 0.20744 0.96784 0.0
H3229 H 0.28819 0.12085 0.0236 0.0
H3230 H 0.90784 0.27493 0.01106 0.0
H3231 H 0.93395 0.3012 0.01821 0.0
H3232 H 0.88403 0.34219 0.03511 0.0
H3233 H 0.858 0.3163 0.02812 0.0
H3234 H 0.91755 0.34942 0.99715 0.0
H3235 H 0.90559 0.33524 0.07122 0.0
H3236 H 0.90685 0.31278 0.10146 0.0
H3237 H 0.97293 0.30256 0.09162 0.0
H3238 H 0.97194 0.32467 0.06106 0.0
H3239 H 0.94342 0.44542 0.02982 0.0
H3240 H 0.92959 0.41176 0.0245 0.0
H3241 H 0.99 0.38607 0.04037 0.0
H3242 H 0.00394 0.41986 0.0462 0.0
H3243 H 0.95875 0.36637 0.05977 0.0
H3244 H 0.97396 0.38313 0.99097 0.0
H3245 H 0.97583 0.40316 0.9592 0.0
H3246 H 0.90829 0.4058 0.95626 0.0
H3247 H 0.90601 0.38584 0.98824 0.0
C3248 C 0.9025 0.28941 0.01677 0.0
C3249 C 0.88084 0.2935 0.01909 0.0
C3250 C 0.91742 0.30433 0.02091 0.0
C3251 C 0.91084 0.32351 0.02731 0.0
C3252 C 0.88937 0.32736 0.03044 0.0
C3253 C 0.87452 0.31248 0.02654 0.0
C3254 C 0.92572 0.34048 0.02802 0.0
C3255 C 0.92654 0.3532 0.01084 0.0
C3256 C 0.93816 0.34477 0.04551 0.0
C3257 C 0.93862 0.33134 0.06369 0.0
C3258 C 0.92031 0.32796 0.07532 0.0
C3259 C 0.92099 0.31535 0.09257 0.0
C3260 C 0.93994 0.30617 0.09841 0.0
C3261 C 0.95825 0.30962 0.08704 0.0
C3262 C 0.95764 0.32219 0.06977 0.0
C3263 C 0.95385 0.43266 0.03209 0.0
C3264 C 0.9748 0.43539 0.03843 0.0
C3265 C 0.94594 0.41338 0.02893 0.0
C3266 C 0.95881 0.39636 0.03187 0.0
C3267 C 0.9798 0.39897 0.03804 0.0
C3268 C 0.98775 0.41832 0.04125 0.0
C3269 C 0.94976 0.37597 0.0292 0.0
C3270 C 0.95009 0.36251 0.04591 0.0
C3271 C 0.93866 0.37073 0.01107 0.0
C3272 C 0.93983 0.38309 0.99207 0.0
C3273 C 0.9595 0.38813 0.98366 0.0
C3274 C 0.96062 0.39945 0.96556 0.0
C3275 C 0.94217 0.40579 0.95569 0.0
C3276 C 0.92256 0.40086 0.96392 0.0
C3277 C 0.92134 0.3895 0.98202 0.0
H3278 H 0.94301 0.41446 0.94162 0.0
H3279 H 0.94044 0.29644 0.11178 0.0
H3280 H 0.71156 0.81911 0.02843 0.0
H3281 H 0.67955 0.83851 0.02132 0.0
H3282 H 0.71428 0.8769 0.98012 0.0
H3283 H 0.74656 0.85718 0.98706 0.0
H3284 H 0.68831 0.8976 0.01026 0.0
H3285 H 0.68273 0.8469 0.95846 0.0
H3286 H 0.68343 0.8123 0.94479 0.0
H3287 H 0.63205 0.79644 0.98448 0.0
H3288 H 0.63125 0.83088 0.99863 0.0
H3289 H 0.57924 0.92535 0.9673 0.0
H3290 H 0.61018 0.90327 0.96507 0.0
H3291 H 0.61654 0.90481 0.03126 0.0
H3292 H 0.58581 0.92685 0.03371 0.0
H3293 H 0.62356 0.86626 0.98223 0.0
H3294 H 0.66854 0.91452 0.04172 0.0
H3295 H 0.6672 0.94902 0.05572 0.0
H3296 H 0.63992 0.97041 0.99918 0.0
H3297 H 0.64169 0.93619 0.98459 0.0
C3298 C 0.71237 0.83168 0.01784 0.0
C3299 C 0.73152 0.83678 0.00839 0.0
C3300 C 0.69408 0.84267 0.01371 0.0
C3301 C 0.69455 0.85907 0.00015 0.0
C3302 C 0.71363 0.86424 0.99061 0.0
C3303 C 0.73198 0.85299 0.99451 0.0
C3304 C 0.67507 0.871 0.99665 0.0
C3305 C 0.67421 0.89084 0.00395 0.0
C3306 C 0.65673 0.86216 0.98828 0.0
C3307 C 0.65703 0.84146 0.9797 0.0
C3308 C 0.67168 0.836 0.96439 0.0
C3309 C 0.67208 0.81642 0.95653 0.0
C3310 C 0.65781 0.80217 0.96379 0.0
C3311 C 0.64309 0.8075 0.97888 0.0
C3312 C 0.64264 0.82706 0.9868 0.0
C3313 C 0.58686 0.92057 0.98144 0.0
C3314 C 0.58022 0.92816 0.00067 0.0
C3315 C 0.60458 0.90798 0.98011 0.0
C3316 C 0.6159 0.90285 0.99796 0.0
C3317 C 0.60822 0.90894 0.01727 0.0
C3318 C 0.59057 0.92148 0.01863 0.0
C3319 C 0.63666 0.89262 0.99644 0.0
C3320 C 0.63774 0.87312 0.98826 0.0
C3321 C 0.65524 0.90182 0.00391 0.0
C3322 C 0.6551 0.92271 0.01212 0.0
C3323 C 0.66247 0.92662 0.03218 0.0
C3324 C 0.66164 0.94613 0.04022 0.0
C3325 C 0.6535 0.9619 0.02834 0.0
C3326 C 0.64629 0.9582 0.00834 0.0
C3327 C 0.64721 0.93874 0.00017 0.0
H3328 H 0.6528 0.97696 0.03463 0.0
H3329 H 0.65815 0.78702 0.95769 0.0
H3330 H 0.83252 0.69954 0.9842 0.0
H3331 H 0.8561 0.67121 0.9775 0.0
H3332 H 0.90945 0.71091 0.97892 0.0
H3333 H 0.88583 0.73961 0.98512 0.0
H3334 H 0.91349 0.67865 0.94958 0.0
H3335 H 0.89725 0.68924 0.02149 0.0
H3336 H 0.87338 0.69435 0.05104 0.0
H3337 H 0.84446 0.63733 0.03909 0.0
H3338 H 0.86796 0.63204 0.00923 0.0
H3339 H 0.98267 0.60688 0.01023 0.0
H3340 H 0.96415 0.63665 0.99681 0.0
H3341 H 0.91841 0.59833 0.96777 0.0
H3342 H 0.93721 0.5686 0.98063 0.0
H3343 H 0.91106 0.62994 0.00743 0.0
H3344 H 0.93114 0.61782 0.93719 0.0
H3345 H 0.95292 0.6144 0.90603 0.0
H3346 H 0.97405 0.67517 0.91299 0.0
H3347 H 0.95333 0.67863 0.94497 0.0
C3348 C 0.84917 0.70245 0.98239 0.0
C3349 C 0.85727 0.72189 0.98539 0.0
C3350 C 0.86266 0.68617 0.97869 0.0
C3351 C 0.88454 0.68892 0.97801 0.0
C3352 C 0.89261 0.70846 0.97944 0.0
C3353 C 0.8791 0.72481 0.98317 0.0
C3354 C 0.89891 0.67122 0.97846 0.0
C3355 C 0.91324 0.66804 0.96228 0.0
C3356 C 0.89819 0.6573 0.99492 0.0
C3357 C 0.88421 0.66034 0.01301 0.0
C3358 C 0.88569 0.67786 0.02507 0.0
C3359 C 0.87224 0.68078 0.04189 0.0
C3360 C 0.85737 0.6662 0.04691 0.0
C3361 C 0.85596 0.64863 0.03516 0.0
C3362 C 0.86935 0.64566 0.01829 0.0
C3363 C 0.96913 0.60484 0.0003 0.0
C3364 C 0.96147 0.58545 0.99624 0.0
C3365 C 0.95867 0.62183 0.99251 0.0
C3366 C 0.94023 0.6197 0.9808 0.0
C3367 C 0.93305 0.6003 0.97608 0.0
C3368 C 0.94376 0.58331 0.98349 0.0
C3369 C 0.92581 0.63716 0.97849 0.0
C3370 C 0.91147 0.64043 0.99461 0.0
C3371 C 0.92675 0.65109 0.96196 0.0
C3372 C 0.94097 0.6483 0.94391 0.0
C3373 C 0.94096 0.63024 0.93259 0.0
C3374 C 0.95302 0.62836 0.91462 0.0
C3375 C 0.96487 0.64457 0.90753 0.0
C3376 C 0.96486 0.66264 0.91851 0.0
C3377 C 0.95311 0.66449 0.93668 0.0
H3378 H 0.97413 0.64311 0.89358 0.0
H3379 H 0.84697 0.66848 0.05994 0.0
H3380 H 0.26028 0.85839 0.99796 0.0
H3381 H 0.28324 0.88725 0.00482 0.0
H3382 H 0.3363 0.85392 0.98066 0.0
H3383 H 0.31373 0.82511 0.9743 0.0
H3384 H 0.347 0.87263 0.01496 0.0
H3385 H 0.31092 0.88947 0.95183 0.0
H3386 H 0.28005 0.89609 0.92971 0.0
H3387 H 0.26089 0.94449 0.96953 0.0
H3388 H 0.29153 0.93797 0.99205 0.0
H3389 H 0.40579 0.96126 0.97061 0.0
H3390 H 0.37505 0.93948 0.96905 0.0
H3391 H 0.37113 0.93979 0.03544 0.0
H3392 H 0.40198 0.96153 0.03721 0.0
H3393 H 0.33386 0.93916 0.98258 0.0
H3394 H 0.36382 0.88927 0.04979 0.0
H3395 H 0.39706 0.88059 0.06753 0.0
H3396 H 0.43202 0.89567 0.01309 0.0
H3397 H 0.39901 0.90403 0.99491 0.0
C3398 C 0.27688 0.85721 0.99431 0.0
C3399 C 0.28516 0.83954 0.98541 0.0
C3400 C 0.28994 0.87374 0.99809 0.0
C3401 C 0.31146 0.8728 0.99309 0.0
C3402 C 0.31976 0.85502 0.98463 0.0
C3403 C 0.30678 0.83861 0.98082 0.0
C3404 C 0.32559 0.89023 0.99642 0.0
C3405 C 0.34396 0.88725 0.0081 0.0
C3406 C 0.32184 0.90922 0.9872 0.0
C3407 C 0.30335 0.91306 0.97377 0.0
C3408 C 0.30001 0.90139 0.95598 0.0
C3409 C 0.28258 0.90515 0.94334 0.0
C3410 C 0.26848 0.92065 0.94825 0.0
C3411 C 0.2718 0.93246 0.96577 0.0
C3412 C 0.2892 0.92874 0.97848 0.0
C3413 C 0.39815 0.95707 0.98488 0.0
C3414 C 0.4066 0.96286 0.00403 0.0
C3415 C 0.38051 0.94466 0.98395 0.0
C3416 C 0.37106 0.93773 0.00215 0.0
C3417 C 0.37842 0.94474 0.02124 0.0
C3418 C 0.39604 0.9572 0.0222 0.0
C3419 C 0.35518 0.9215 0.00113 0.0
C3420 C 0.33657 0.92469 0.98987 0.0
C3421 C 0.35895 0.90248 0.01029 0.0
C3422 C 0.37894 0.89759 0.02111 0.0
C3423 C 0.3786 0.89069 0.0416 0.0
C3424 C 0.3974 0.88576 0.05171 0.0
C3425 C 0.41664 0.8876 0.04145 0.0
C3426 C 0.41712 0.89432 0.02104 0.0
C3427 C 0.39837 0.89918 0.01084 0.0
H3428 H 0.43117 0.88382 0.04932 0.0
H3429 H 0.255 0.92355 0.93843 0.0
H3430 H 0.7257 0.19966 0.98139 0.0
H3431 H 0.70138 0.17201 0.9878 0.0
H3432 H 0.75207 0.13662 0.0136 0.0
H3433 H 0.77662 0.16448 0.00732 0.0
H3434 H 0.72574 0.11571 0.98389 0.0
H3435 H 0.72009 0.15388 0.04601 0.0
H3436 H 0.71563 0.1844 0.06717 0.0
H3437 H 0.65439 0.19439 0.04087 0.0
H3438 H 0.65859 0.16404 0.01934 0.0
H3439 H 0.62714 0.06997 0.0412 0.0
H3440 H 0.65942 0.08946 0.04019 0.0
H3441 H 0.65596 0.09177 0.97383 0.0
H3442 H 0.6233 0.07242 0.97467 0.0
H3443 H 0.66307 0.12593 0.02841 0.0
H3444 H 0.70334 0.09862 0.95327 0.0
H3445 H 0.7107 0.06721 0.93421 0.0
H3446 H 0.70599 0.03343 0.99044 0.0
H3447 H 0.69811 0.06457 0.0097 0.0
C3448 C 0.73169 0.18597 0.98839 0.0
C3449 C 0.75305 0.18417 0.99381 0.0
C3450 C 0.71777 0.17024 0.99211 0.0
C3451 C 0.72494 0.15231 0.00118 0.0
C3452 C 0.74628 0.15036 0.00656 0.0
C3453 C 0.76021 0.16627 0.0031 0.0
C3454 C 0.70989 0.13577 0.00491 0.0
C3455 C 0.71206 0.11783 0.9937 0.0
C3456 C 0.69232 0.13845 0.01802 0.0
C3457 C 0.68972 0.15672 0.03096 0.0
C3458 C 0.70573 0.16264 0.04462 0.0
C3459 C 0.70324 0.17991 0.05671 0.0
C3460 C 0.68475 0.19135 0.05534 0.0
C3461 C 0.6687 0.18552 0.04191 0.0
C3462 C 0.67112 0.16827 0.02978 0.0
C3463 C 0.6334 0.07421 0.02631 0.0
C3464 C 0.62257 0.06953 0.00799 0.0
C3465 C 0.65194 0.08534 0.02579 0.0
C3466 C 0.66037 0.09182 0.00697 0.0
C3467 C 0.65005 0.0866 0.98856 0.0
C3468 C 0.63129 0.0756 0.98906 0.0
C3469 C 0.67845 0.10593 0.00688 0.0
C3470 C 0.67681 0.12356 0.01875 0.0
C3471 C 0.6966 0.10281 0.99457 0.0
C3472 C 0.70014 0.08392 0.98291 0.0
C3473 C 0.70381 0.08447 0.96154 0.0
C3474 C 0.70801 0.06671 0.95069 0.0
C3475 C 0.70889 0.04834 0.96112 0.0
C3476 C 0.70537 0.04767 0.98238 0.0
C3477 C 0.70082 0.06535 0.99324 0.0
H3478 H 0.71217 0.0346 0.9527 0.0
H3479 H 0.68286 0.20471 0.06471 0.0
H3480 H 0.50341 0.66321 0.78586 0.0
H3481 H 0.50774 0.63747 0.81263 0.0
H3482 H 0.53925 0.68069 0.8514 0.0
H3483 H 0.53601 0.70594 0.82416 0.0
H3484 H 0.55624 0.64708 0.85842 0.0
H3485 H 0.48392 0.66837 0.85396 0.0
H3486 H 0.44924 0.67414 0.83779 0.0
H3487 H 0.44367 0.61091 0.82561 0.0
H3488 H 0.47849 0.60481 0.84141 0.0
H3489 H 0.5242 0.61596 0.95844 0.0
H3490 H 0.53154 0.63187 0.92536 0.0
H3491 H 0.51258 0.57796 0.8936 0.0
H3492 H 0.50473 0.56197 0.92679 0.0
H3493 H 0.49123 0.61226 0.88048 0.0
H3494 H 0.56271 0.59219 0.89101 0.0
H3495 H 0.59592 0.58838 0.91057 0.0
H3496 H 0.60093 0.65256 0.9153 0.0
H3497 H 0.56767 0.6567 0.89605 0.0
C3498 C 0.51166 0.66699 0.79995 0.0
C3499 C 0.51941 0.68651 0.80297 0.0
C3500 C 0.51396 0.65236 0.81535 0.0
C3501 C 0.52333 0.65719 0.83438 0.0
C3502 C 0.53192 0.67648 0.83695 0.0
C3503 C 0.53009 0.69094 0.82136 0.0
C3504 C 0.52326 0.6427 0.85202 0.0
C3505 C 0.54195 0.63961 0.86329 0.0
C3506 C 0.50477 0.6325 0.8583 0.0
C3507 C 0.48396 0.63619 0.84855 0.0
C3508 C 0.4754 0.65573 0.84763 0.0
C3509 C 0.4557 0.65905 0.83856 0.0
C3510 C 0.4443 0.64292 0.83059 0.0
C3511 C 0.45256 0.62341 0.83172 0.0
C3512 C 0.47228 0.62001 0.8407 0.0
C3513 C 0.52185 0.60733 0.94446 0.0
C3514 C 0.51353 0.58779 0.94526 0.0
C3515 C 0.52619 0.61643 0.92553 0.0
C3516 C 0.52255 0.60615 0.90698 0.0
C3517 C 0.51538 0.58622 0.90773 0.0
C3518 C 0.51088 0.57712 0.92671 0.0
C3519 C 0.52402 0.61706 0.88701 0.0
C3520 C 0.50557 0.61951 0.87537 0.0
C3521 C 0.54253 0.62708 0.88077 0.0
C3522 C 0.56263 0.6247 0.89222 0.0
C3523 C 0.57085 0.60544 0.89638 0.0
C3524 C 0.58967 0.60323 0.90737 0.0
C3525 C 0.60049 0.62021 0.9142 0.0
C3526 C 0.59253 0.63942 0.91 0.0
C3527 C 0.57371 0.6417 0.89902 0.0
H3528 H 0.61505 0.61847 0.92272 0.0
H3529 H 0.42904 0.64552 0.82361 0.0
H3530 H 0.39885 0.51866 0.79212 0.0
H3531 H 0.42691 0.52372 0.81749 0.0
H3532 H 0.38064 0.54146 0.86281 0.0
H3533 H 0.35265 0.53648 0.83764 0.0
H3534 H 0.41432 0.56438 0.86642 0.0
H3535 H 0.40212 0.49209 0.86229 0.0
H3536 H 0.40031 0.45853 0.84612 0.0
H3537 H 0.46384 0.46457 0.82442 0.0
H3538 H 0.46579 0.49837 0.84011 0.0
H3539 H 0.44702 0.53317 0.96386 0.0
H3540 H 0.4332 0.54316 0.93044 0.0
H3541 H 0.48997 0.52143 0.9011 0.0
H3542 H 0.50357 0.51062 0.93457 0.0
H3543 H 0.45925 0.5055 0.88349 0.0
H3544 H 0.47293 0.57353 0.8971 0.0
H3545 H 0.47498 0.60528 0.91688 0.0
H3546 H 0.40782 0.60612 0.92359 0.0
H3547 H 0.40533 0.57438 0.904 0.0
C3548 C 0.39468 0.52375 0.80746 0.0
C3549 C 0.37348 0.5271 0.81285 0.0
C3550 C 0.41074 0.52663 0.82195 0.0
C3551 C 0.40588 0.53272 0.84217 0.0
C3552 C 0.38482 0.53683 0.84731 0.0
C3553 C 0.3688 0.53404 0.83284 0.0
C3554 C 0.42241 0.53385 0.85839 0.0
C3555 C 0.42402 0.55144 0.87031 0.0
C3556 C 0.43578 0.51732 0.86294 0.0
C3557 C 0.43406 0.49774 0.85221 0.0
C3558 C 0.41558 0.48636 0.8538 0.0
C3559 C 0.41454 0.46729 0.84477 0.0
C3560 C 0.43193 0.45943 0.83421 0.0
C3561 C 0.45036 0.47068 0.83256 0.0
C3562 C 0.45144 0.48978 0.84151 0.0
C3563 C 0.45677 0.53084 0.95035 0.0
C3564 C 0.47622 0.52073 0.95184 0.0
C3565 C 0.44894 0.53685 0.93117 0.0
C3566 C 0.46054 0.53323 0.91307 0.0
C3567 C 0.48065 0.52438 0.91474 0.0
C3568 C 0.48841 0.51816 0.93392 0.0
C3569 C 0.45011 0.53543 0.89258 0.0
C3570 C 0.44977 0.51855 0.8796 0.0
C3571 C 0.43773 0.55247 0.88732 0.0
C3572 C 0.43901 0.57152 0.89919 0.0
C3573 C 0.45864 0.58042 0.90295 0.0
C3574 C 0.45988 0.5984 0.91406 0.0
C3575 C 0.44159 0.60762 0.92148 0.0
C3576 C 0.42198 0.59893 0.9178 0.0
C3577 C 0.42064 0.58099 0.90663 0.0
H3578 H 0.44267 0.62154 0.92999 0.0
H3579 H 0.43115 0.44461 0.82735 0.0
H3580 H 0.52498 0.36267 0.78409 0.0
H3581 H 0.52476 0.38966 0.80976 0.0
H3582 H 0.47943 0.35701 0.84594 0.0
H3583 H 0.47943 0.33005 0.82015 0.0
H3584 H 0.47288 0.39809 0.84848 0.0
H3585 H 0.53118 0.35142 0.85539 0.0
H3586 H 0.56231 0.3327 0.84287 0.0
H3587 H 0.59364 0.38829 0.82985 0.0
H3588 H 0.56253 0.40734 0.84199 0.0
H3589 H 0.49801 0.42971 0.95081 0.0
H3590 H 0.48946 0.41321 0.91824 0.0
H3591 H 0.5402 0.44472 0.8884 0.0
H3592 H 0.54894 0.46113 0.92094 0.0
H3593 H 0.54329 0.40707 0.88018 0.0
H3594 H 0.48639 0.45386 0.87892 0.0
H3595 H 0.45499 0.47215 0.8913 0.0
H3596 H 0.42036 0.41708 0.89356 0.0
H3597 H 0.45174 0.39825 0.88191 0.0
C3598 C 0.51464 0.36144 0.79731 0.0
C3599 C 0.5024 0.34412 0.80021 0.0
C3600 C 0.51454 0.37687 0.81198 0.0
C3601 C 0.50242 0.37518 0.83001 0.0
C3602 C 0.48895 0.35864 0.83218 0.0
C3603 C 0.48893 0.34324 0.81741 0.0
C3604 C 0.50554 0.3894 0.8475 0.0
C3605 C 0.48821 0.4 0.85557 0.0
C3606 C 0.52565 0.39223 0.85643 0.0
C3607 C 0.54446 0.38079 0.84939 0.0
C3608 C 0.54466 0.35964 0.84973 0.0
C3609 C 0.5623 0.34897 0.84271 0.0
C3610 C 0.57992 0.3593 0.83552 0.0
C3611 C 0.57996 0.38031 0.83539 0.0
C3612 C 0.56233 0.39106 0.84234 0.0
C3613 C 0.50714 0.43341 0.93724 0.0
C3614 C 0.52431 0.44661 0.93857 0.0
C3615 C 0.50212 0.42404 0.91853 0.0
C3616 C 0.51402 0.42781 0.90068 0.0
C3617 C 0.53066 0.44161 0.90185 0.0
C3618 C 0.53568 0.45098 0.92052 0.0
C3619 C 0.51058 0.41588 0.88147 0.0
C3620 C 0.52792 0.40553 0.87306 0.0
C3621 C 0.49043 0.41332 0.87236 0.0
C3622 C 0.47156 0.4246 0.87966 0.0
C3623 C 0.47217 0.44559 0.88225 0.0
C3624 C 0.45435 0.45608 0.88911 0.0
C3625 C 0.43569 0.44583 0.89314 0.0
C3626 C 0.43483 0.42502 0.89042 0.0
C3627 C 0.45266 0.41442 0.88374 0.0
H3628 H 0.4219 0.45403 0.89834 0.0
H3629 H 0.59356 0.35101 0.83009 0.0
H3630 H 0.65666 0.53481 0.79642 0.0
H3631 H 0.62924 0.54187 0.82198 0.0
H3632 H 0.61943 0.47824 0.83009 0.0
H3633 H 0.64666 0.47109 0.80436 0.0
H3634 H 0.58221 0.49922 0.8336 0.0
H3635 H 0.65225 0.50262 0.86152 0.0
H3636 H 0.68903 0.51415 0.86321 0.0
H3637 H 0.66769 0.57512 0.87085 0.0
H3638 H 0.63076 0.56399 0.86887 0.0
H3639 H 0.54649 0.50273 0.93926 0.0
H3640 H 0.56193 0.49607 0.90534 0.0
H3641 H 0.57478 0.55919 0.89805 0.0
H3642 H 0.55977 0.56602 0.93201 0.0
H3643 H 0.60921 0.53811 0.89321 0.0
H3644 H 0.53869 0.5344 0.86644 0.0
H3645 H 0.50204 0.52243 0.86526 0.0
H3646 H 0.52398 0.46175 0.85711 0.0
H3647 H 0.56083 0.47333 0.85822 0.0
C3648 C 0.64844 0.52234 0.80344 0.0
C3649 C 0.65398 0.5024 0.79854 0.0
C3650 C 0.63275 0.52638 0.818 0.0
C3651 C 0.62254 0.51056 0.82822 0.0
C3652 C 0.62709 0.49067 0.82241 0.0
C3653 C 0.64267 0.48662 0.8077 0.0
C3654 C 0.60891 0.51473 0.84637 0.0
C3655 C 0.58811 0.50761 0.84671 0.0
C3656 C 0.61655 0.52579 0.86344 0.0
C3657 C 0.63875 0.5325 0.86481 0.0
C3658 C 0.65541 0.51851 0.8634 0.0
C3659 C 0.67628 0.52497 0.86443 0.0
C3660 C 0.6807 0.54536 0.86708 0.0
C3661 C 0.66425 0.55933 0.86876 0.0
C3662 C 0.64334 0.55296 0.86769 0.0
C3663 C 0.55223 0.51527 0.93027 0.0
C3664 C 0.55227 0.53485 0.93851 0.0
C3665 C 0.56095 0.51144 0.9108 0.0
C3666 C 0.56959 0.52718 0.89918 0.0
C3667 C 0.56829 0.54688 0.90683 0.0
C3668 C 0.55974 0.55072 0.92627 0.0
C3669 C 0.58228 0.52304 0.88036 0.0
C3670 C 0.60311 0.52995 0.88003 0.0
C3671 C 0.57463 0.51175 0.86346 0.0
C3672 C 0.55252 0.50472 0.86262 0.0
C3673 C 0.53571 0.51848 0.86454 0.0
C3674 C 0.51491 0.51177 0.86388 0.0
C3675 C 0.51072 0.49131 0.8614 0.0
C3676 C 0.5273 0.47757 0.85921 0.0
C3677 C 0.54814 0.48421 0.85976 0.0
H3678 H 0.49463 0.48612 0.86111 0.0
H3679 H 0.69687 0.55033 0.86787 0.0
H3680 H 0.5129 0.3166 0.19621 0.0
H3681 H 0.519 0.34099 0.16887 0.0
H3682 H 0.48078 0.38467 0.20102 0.0
H3683 H 0.47516 0.36057 0.22901 0.0
H3684 H 0.47196 0.382 0.15753 0.0
H3685 H 0.53076 0.39118 0.2028 0.0
H3686 H 0.5611 0.38071 0.22407 0.0
H3687 H 0.59155 0.35596 0.17056 0.0
H3688 H 0.56124 0.36601 0.14901 0.0
H3689 H 0.50703 0.46414 0.09331 0.0
H3690 H 0.49587 0.44193 0.12154 0.0
H3691 H 0.54136 0.39736 0.10186 0.0
H3692 H 0.55316 0.41981 0.07458 0.0
H3693 H 0.54502 0.40194 0.14071 0.0
H3694 H 0.48654 0.39265 0.09531 0.0
H3695 H 0.45674 0.40344 0.07349 0.0
H3696 H 0.42578 0.42889 0.12638 0.0
H3697 H 0.45546 0.41831 0.14852 0.0
C3698 C 0.50608 0.33148 0.1978 0.0
C3699 C 0.49368 0.33655 0.21508 0.0
C3700 C 0.50941 0.34537 0.18197 0.0
C3701 C 0.50036 0.36467 0.18289 0.0
C3702 C 0.4878 0.36981 0.19992 0.0
C3703 C 0.48461 0.35597 0.21592 0.0
C3704 C 0.50461 0.3795 0.16623 0.0
C3705 C 0.48788 0.38674 0.15404 0.0
C3706 C 0.52539 0.38532 0.16141 0.0
C3707 C 0.54362 0.37916 0.17433 0.0
C3708 C 0.54384 0.38333 0.1956 0.0
C3709 C 0.56105 0.37751 0.20771 0.0
C3710 C 0.57822 0.36763 0.19869 0.0
C3711 C 0.57823 0.36358 0.17754 0.0
C3712 C 0.56104 0.36935 0.16536 0.0
C3713 C 0.51441 0.4495 0.09494 0.0
C3714 C 0.53102 0.44373 0.08184 0.0
C3715 C 0.508 0.43677 0.11103 0.0
C3716 C 0.51772 0.41785 0.11388 0.0
C3717 C 0.53368 0.41186 0.10016 0.0
C3718 C 0.54041 0.42472 0.08452 0.0
C3719 C 0.51242 0.40466 0.13177 0.0
C3720 C 0.52901 0.39758 0.14421 0.0
C3721 C 0.49152 0.39908 0.13673 0.0
C3722 C 0.47339 0.40497 0.12354 0.0
C3723 C 0.47344 0.40066 0.10228 0.0
C3724 C 0.45655 0.4067 0.08985 0.0
C3725 C 0.43942 0.41693 0.09852 0.0
C3726 C 0.43907 0.42099 0.11967 0.0
C3727 C 0.45591 0.41494 0.13218 0.0
H3728 H 0.42639 0.42165 0.08886 0.0
H3729 H 0.59153 0.36314 0.20808 0.0
H3730 H 0.71137 0.48631 0.20138 0.0
H3731 H 0.68966 0.47647 0.17219 0.0
H3732 H 0.63409 0.4969 0.20445 0.0
H3733 H 0.6554 0.50498 0.23448 0.0
H3734 H 0.62336 0.46739 0.18172 0.0
H3735 H 0.66387 0.52749 0.16932 0.0
H3736 H 0.69633 0.54746 0.1663 0.0
H3737 H 0.719 0.50783 0.11879 0.0
H3738 H 0.68676 0.48749 0.12172 0.0
H3739 H 0.5611 0.51473 0.1055 0.0
H3740 H 0.58305 0.50306 0.13403 0.0
H3741 H 0.62459 0.47321 0.09096 0.0
H3742 H 0.60251 0.48504 0.06223 0.0
H3743 H 0.64485 0.50024 0.11642 0.0
H3744 H 0.59736 0.44598 0.12464 0.0
H3745 H 0.56222 0.43106 0.12686 0.0
H3746 H 0.54984 0.46386 0.18266 0.0
H3747 H 0.58484 0.47955 0.18045 0.0
C3748 C 0.69447 0.48812 0.20266 0.0
C3749 C 0.68529 0.49691 0.22031 0.0
C3750 C 0.68206 0.48273 0.18572 0.0
C3751 C 0.66028 0.48658 0.18575 0.0
C3752 C 0.65089 0.494 0.20385 0.0
C3753 C 0.6632 0.49893 0.22097 0.0
C3754 C 0.64749 0.48458 0.16657 0.0
C3755 C 0.62807 0.47459 0.16746 0.0
C3756 C 0.65371 0.49362 0.14773 0.0
C3757 C 0.67306 0.50584 0.14593 0.0
C3758 C 0.67585 0.52297 0.15833 0.0
C3759 C 0.69419 0.53436 0.15662 0.0
C3760 C 0.70975 0.52887 0.14241 0.0
C3761 C 0.70696 0.51202 0.12983 0.0
C3762 C 0.68867 0.50056 0.1315 0.0
C3763 C 0.57455 0.50514 0.10217 0.0
C3764 C 0.58008 0.50066 0.08169 0.0
C3765 C 0.58707 0.49844 0.11849 0.0
C3766 C 0.60545 0.48721 0.11466 0.0
C3767 C 0.6104 0.48177 0.09426 0.0
C3768 C 0.59769 0.48833 0.07788 0.0
C3769 C 0.62056 0.48352 0.13176 0.0
C3770 C 0.6404 0.49254 0.1305 0.0
C3771 C 0.61445 0.47407 0.15035 0.0
C3772 C 0.59374 0.46403 0.15231 0.0
C3773 C 0.58714 0.4501 0.13735 0.0
C3774 C 0.56719 0.44152 0.1386 0.0
C3775 C 0.55373 0.44648 0.15489 0.0
C3776 C 0.56027 0.46001 0.17004 0.0
C3777 C 0.58019 0.46877 0.1688 0.0
H3778 H 0.53823 0.43988 0.15578 0.0
H3779 H 0.72394 0.5377 0.14111 0.0
H3780 H 0.54551 0.69357 0.21889 0.0
H3781 H 0.53665 0.6656 0.19595 0.0
H3782 H 0.57706 0.69016 0.14894 0.0
H3783 H 0.5851 0.71853 0.17126 0.0
H3784 H 0.54267 0.6782 0.13183 0.0
H3785 H 0.59149 0.64862 0.17936 0.0
H3786 H 0.60583 0.63917 0.21338 0.0
H3787 H 0.55036 0.60477 0.22609 0.0
H3788 H 0.53556 0.61425 0.19223 0.0
H3789 H 0.54621 0.59353 0.06633 0.0
H3790 H 0.55869 0.61799 0.09173 0.0
H3791 H 0.51091 0.5984 0.13436 0.0
H3792 H 0.4988 0.5736 0.10907 0.0
H3793 H 0.54957 0.60701 0.15388 0.0
H3794 H 0.50095 0.63803 0.1059 0.0
H3795 H 0.48809 0.64684 0.07113 0.0
H3796 H 0.54565 0.67812 0.05874 0.0
H3797 H 0.55895 0.66927 0.09337 0.0
C3798 C 0.55236 0.69312 0.2036 0.0
C3799 C 0.5662 0.70828 0.19707 0.0
C3800 C 0.54747 0.67696 0.19056 0.0
C3801 C 0.55645 0.67552 0.17077 0.0
C3802 C 0.57 0.69079 0.16414 0.0
C3803 C 0.57477 0.70696 0.17707 0.0
C3804 C 0.55152 0.65838 0.15673 0.0
C3805 C 0.54449 0.66266 0.13664 0.0
C3806 C 0.55351 0.63801 0.16296 0.0
C3807 C 0.56232 0.63233 0.18335 0.0
C3808 C 0.58227 0.63919 0.18948 0.0
C3809 C 0.59049 0.63379 0.20872 0.0
C3810 C 0.57898 0.62142 0.22191 0.0
C3811 C 0.55924 0.61438 0.21586 0.0
C3812 C 0.55093 0.61975 0.19665 0.0
C3813 C 0.53905 0.59383 0.08141 0.0
C3814 C 0.52193 0.58137 0.08589 0.0
C3815 C 0.54591 0.60805 0.09582 0.0
C3816 C 0.53564 0.61012 0.11492 0.0
C3817 C 0.51912 0.59703 0.11977 0.0
C3818 C 0.51219 0.58292 0.10531 0.0
C3819 C 0.54091 0.62694 0.12911 0.0
C3820 C 0.54789 0.62259 0.14918 0.0
C3821 C 0.53909 0.64725 0.12283 0.0
C3822 C 0.531 0.65285 0.10214 0.0
C3823 C 0.5109 0.64669 0.09571 0.0
C3824 C 0.50353 0.6517 0.07604 0.0
C3825 C 0.51606 0.663 0.06272 0.0
C3826 C 0.53597 0.66936 0.06907 0.0
C3827 C 0.54342 0.66437 0.08872 0.0
H3828 H 0.51033 0.66685 0.04749 0.0
H3829 H 0.58538 0.61726 0.23679 0.0
H3830 H 0.40211 0.59819 0.23513 0.0
H3831 H 0.42726 0.58705 0.2088 0.0
H3832 H 0.38297 0.54267 0.1877 0.0
H3833 H 0.3578 0.55373 0.21384 0.0
H3834 H 0.42243 0.52799 0.18621 0.0
H3835 H 0.38601 0.58839 0.16464 0.0
H3836 H 0.37439 0.62371 0.16805 0.0
H3837 H 0.43881 0.6429 0.16894 0.0
H3838 H 0.45081 0.60764 0.16586 0.0
H3839 H 0.44999 0.54262 0.07216 0.0
H3840 H 0.43395 0.55656 0.10348 0.0
H3841 H 0.48272 0.52867 0.14025 0.0
H3842 H 0.49821 0.51408 0.10905 0.0
H3843 H 0.44313 0.57993 0.13524 0.0
H3844 H 0.46219 0.50992 0.18341 0.0
H3845 H 0.47248 0.47444 0.17796 0.0
H3846 H 0.43839 0.47362 0.12076 0.0
H3847 H 0.42772 0.50904 0.12599 0.0
C3848 C 0.39785 0.58588 0.22505 0.0
C3849 C 0.37788 0.57695 0.2265 0.0
C3850 C 0.41223 0.57954 0.21001 0.0
C3851 C 0.40685 0.56426 0.19605 0.0
C3852 C 0.38747 0.55449 0.1983 0.0
C3853 C 0.37311 0.56078 0.21335 0.0
C3854 C 0.4206 0.55938 0.17817 0.0
C3855 C 0.42709 0.53938 0.17517 0.0
C3856 C 0.42649 0.57418 0.16358 0.0
C3857 C 0.4193 0.59538 0.16526 0.0
C3858 C 0.39769 0.60014 0.16572 0.0
C3859 C 0.39104 0.62014 0.16758 0.0
C3860 C 0.40585 0.63554 0.16877 0.0
C3861 C 0.42735 0.63096 0.16806 0.0
C3862 C 0.43409 0.61097 0.16626 0.0
C3863 C 0.45751 0.53989 0.0869 0.0
C3864 C 0.47515 0.52715 0.08829 0.0
C3865 C 0.44835 0.54782 0.10479 0.0
C3866 C 0.45683 0.54323 0.12428 0.0
C3867 C 0.47557 0.53197 0.12545 0.0
C3868 C 0.48445 0.52371 0.10764 0.0
C3869 C 0.44496 0.54855 0.14329 0.0
C3870 C 0.43876 0.56861 0.14647 0.0
C3871 C 0.43898 0.53373 0.15784 0.0
C3872 C 0.44433 0.51215 0.15502 0.0
C3873 C 0.45676 0.50211 0.16976 0.0
C3874 C 0.46269 0.48204 0.16668 0.0
C3875 C 0.45617 0.47183 0.14898 0.0
C3876 C 0.44349 0.48158 0.13442 0.0
C3877 C 0.43749 0.50165 0.13744 0.0
H3878 H 0.46096 0.45638 0.14656 0.0
H3879 H 0.40067 0.65102 0.1702 0.0
H3880 H 0.78644 0.51189 0.67045 0.0
H3881 H 0.82005 0.52075 0.65455 0.0
H3882 H 0.84443 0.53798 0.71405 0.0
H3883 H 0.81077 0.52935 0.73 0.0
H3884 H 0.86006 0.56215 0.68415 0.0
H3885 H 0.85338 0.49155 0.69605 0.0
H3886 H 0.83675 0.4582 0.6942 0.0
H3887 H 0.84068 0.45944 0.62808 0.0
H3888 H 0.85694 0.493 0.62952 0.0
H3889 H 0.95846 0.50945 0.62909 0.0
H3890 H 0.93012 0.51031 0.65462 0.0
H3891 H 0.90698 0.56586 0.62821 0.0
H3892 H 0.93608 0.56565 0.6038 0.0
H3893 H 0.89257 0.50523 0.64595 0.0
H3894 H 0.87234 0.58981 0.65785 0.0
H3895 H 0.8913 0.62193 0.6609 0.0
H3896 H 0.94571 0.59073 0.68423 0.0
H3897 H 0.927 0.55845 0.68161 0.0
C3898 C 0.79884 0.51789 0.68008 0.0
C3899 C 0.796 0.51975 0.7015 0.0
C3900 C 0.81804 0.52295 0.67099 0.0
C3901 C 0.83491 0.52966 0.68317 0.0
C3902 C 0.83167 0.53281 0.70434 0.0
C3903 C 0.81238 0.52791 0.71343 0.0
C3904 C 0.85635 0.53147 0.67416 0.0
C3905 C 0.86724 0.54974 0.67581 0.0
C3906 C 0.86601 0.51508 0.66382 0.0
C3907 C 0.85619 0.49489 0.66289 0.0
C3908 C 0.85052 0.48479 0.68111 0.0
C3909 C 0.84118 0.46585 0.68013 0.0
C3910 C 0.83761 0.45673 0.66103 0.0
C3911 C 0.84341 0.46654 0.64287 0.0
C3912 C 0.85268 0.48553 0.64375 0.0
C3913 C 0.94782 0.52225 0.62938 0.0
C3914 C 0.94948 0.53752 0.61453 0.0
C3915 C 0.9315 0.52267 0.64383 0.0
C3916 C 0.91621 0.53809 0.64339 0.0
C3917 C 0.91869 0.554 0.62933 0.0
C3918 C 0.93538 0.55388 0.61529 0.0
C3919 C 0.89639 0.53607 0.65553 0.0
C3920 C 0.88566 0.5177 0.65443 0.0
C3921 C 0.88724 0.55221 0.66678 0.0
C3922 C 0.89828 0.57168 0.66941 0.0
C3923 C 0.88828 0.58981 0.66383 0.0
C3924 C 0.89901 0.60805 0.66542 0.0
C3925 C 0.91972 0.60836 0.67269 0.0
C3926 C 0.92969 0.59046 0.67855 0.0
C3927 C 0.91903 0.57219 0.677 0.0
H3928 H 0.92804 0.62248 0.67381 0.0
H3929 H 0.8304 0.44205 0.66032 0.0
H3930 H 0.51003 0.79259 0.65794 0.0
H3931 H 0.51416 0.81928 0.63226 0.0
H3932 H 0.54143 0.85765 0.67863 0.0
H3933 H 0.53661 0.8315 0.70445 0.0
H3934 H 0.51168 0.87722 0.65746 0.0
H3935 H 0.57131 0.83424 0.63998 0.0
H3936 H 0.58813 0.8023 0.62943 0.0
H3937 H 0.55093 0.80164 0.57411 0.0
H3938 H 0.5337 0.83347 0.58446 0.0
H3939 H 0.55752 0.95613 0.60181 0.0
H3940 H 0.5498 0.92703 0.62329 0.0
H3941 H 0.52901 0.89431 0.56959 0.0
H3942 H 0.53776 0.92313 0.54781 0.0
H3943 H 0.55142 0.87047 0.59198 0.0
H3944 H 0.49461 0.91477 0.60679 0.0
H3945 H 0.47652 0.94617 0.61671 0.0
H3946 H 0.50608 0.9441 0.67624 0.0
H3947 H 0.52449 0.9127 0.66664 0.0
C3948 C 0.51696 0.80669 0.66267 0.0
C3949 C 0.52303 0.8098 0.68333 0.0
C3950 C 0.51946 0.8219 0.64791 0.0
C3951 C 0.5282 0.84049 0.65345 0.0
C3952 C 0.53465 0.84346 0.67394 0.0
C3953 C 0.53212 0.82833 0.68868 0.0
C3954 C 0.52996 0.85725 0.63831 0.0
C3955 C 0.52059 0.87582 0.64325 0.0
C3956 C 0.54071 0.8552 0.61929 0.0
C3957 C 0.55108 0.8361 0.6131 0.0
C3958 C 0.56661 0.8272 0.62565 0.0
C3959 C 0.57623 0.80914 0.61969 0.0
C3960 C 0.57056 0.79992 0.60114 0.0
C3961 C 0.55529 0.80878 0.58848 0.0
C3962 C 0.5456 0.82683 0.59438 0.0
C3963 C 0.55119 0.9428 0.59455 0.0
C3964 C 0.5481 0.94206 0.57309 0.0
C3965 C 0.54666 0.92615 0.6069 0.0
C3966 C 0.53842 0.9085 0.59819 0.0
C3967 C 0.53529 0.90772 0.57674 0.0
C3968 C 0.54018 0.92428 0.5643 0.0
C3969 C 0.53377 0.89073 0.61147 0.0
C3970 C 0.54243 0.87192 0.60612 0.0
C3971 C 0.52213 0.8925 0.63005 0.0
C3972 C 0.51103 0.91139 0.63592 0.0
C3973 C 0.49731 0.92102 0.62197 0.0
C3974 C 0.48701 0.93884 0.62754 0.0
C3975 C 0.49025 0.94718 0.64706 0.0
C3976 C 0.50364 0.93763 0.66111 0.0
C3977 C 0.51398 0.91979 0.65562 0.0
H3978 H 0.48243 0.96105 0.6513 0.0
H3979 H 0.57804 0.78594 0.59655 0.0
H3980 H 0.27146 0.50389 0.66291 0.0
H3981 H 0.24402 0.50923 0.63693 0.0
H3982 H 0.21275 0.55146 0.67733 0.0
H3983 H 0.23977 0.5458 0.70353 0.0
H3984 H 0.18622 0.5232 0.66413 0.0
H3985 H 0.23618 0.56716 0.63293 0.0
H3986 H 0.27044 0.57731 0.61857 0.0
H3987 H 0.2659 0.53134 0.57228 0.0
H3988 H 0.23173 0.52072 0.58654 0.0
H3989 H 0.10761 0.55576 0.59392 0.0
H3990 H 0.138 0.55473 0.61704 0.0
H3991 H 0.16761 0.50998 0.57831 0.0
H3992 H 0.13677 0.51038 0.55549 0.0
H3993 H 0.19525 0.54003 0.59015 0.0
H3994 H 0.14593 0.49561 0.62201 0.0
H3995 H 0.11153 0.48557 0.63612 0.0
H3996 H 0.11496 0.53277 0.68121 0.0
H3997 H 0.14928 0.54328 0.66716 0.0
C3998 C 0.2589 0.51453 0.66612 0.0
C3999 C 0.25779 0.52437 0.68532 0.0
C4000 C 0.24329 0.51767 0.65121 0.0
C4001 C 0.22631 0.53076 0.65518 0.0
C4002 C 0.2257 0.54129 0.67394 0.0
C4003 C 0.2413 0.53819 0.68883 0.0
C4004 C 0.20828 0.53208 0.64064 0.0
C4005 C 0.18816 0.52726 0.64804 0.0
C4006 C 0.21088 0.53675 0.61949 0.0
C4007 C 0.23149 0.54301 0.61095 0.0
C4008 C 0.24258 0.55908 0.61981 0.0
C4009 C 0.26197 0.56495 0.61166 0.0
C4010 C 0.27037 0.55494 0.59456 0.0
C4011 C 0.25939 0.53907 0.58554 0.0
C4012 C 0.24 0.53313 0.59364 0.0
C4013 C 0.12069 0.54586 0.5902 0.0
C4014 C 0.11989 0.5332 0.57289 0.0
C4015 C 0.13796 0.54516 0.60352 0.0
C4016 C 0.15504 0.53223 0.59943 0.0
C4017 C 0.15461 0.52007 0.58173 0.0
C4018 C 0.13704 0.52035 0.56871 0.0
C4019 C 0.17325 0.53137 0.61374 0.0
C4020 C 0.19335 0.53615 0.60628 0.0
C4021 C 0.17067 0.52668 0.63486 0.0
C4022 C 0.15007 0.52036 0.6434 0.0
C4023 C 0.13927 0.50396 0.63482 0.0
C4024 C 0.1198 0.49816 0.64283 0.0
C4025 C 0.11104 0.50856 0.65952 0.0
C4026 C 0.12176 0.52474 0.66826 0.0
C4027 C 0.14122 0.53062 0.66029 0.0
H4028 H 0.09597 0.50404 0.6657 0.0
H4029 H 0.28538 0.55952 0.58827 0.0
H4030 H 0.531 0.21646 0.6783 0.0
H4031 H 0.5308 0.19042 0.652 0.0
H4032 H 0.46292 0.18867 0.65439 0.0
H4033 H 0.46315 0.21453 0.68154 0.0
H4034 H 0.47639 0.15237 0.6522 0.0
H4035 H 0.49061 0.20941 0.61186 0.0
H4036 H 0.50711 0.2413 0.60152 0.0
H4037 H 0.56713 0.21158 0.59657 0.0
H4038 H 0.55108 0.17955 0.60718 0.0
H4039 H 0.49299 0.07923 0.56958 0.0
H4040 H 0.4799 0.10842 0.5891 0.0
H4041 H 0.5439 0.12476 0.60348 0.0
H4042 H 0.55685 0.09665 0.58331 0.0
H4043 H 0.52341 0.1566 0.59136 0.0
H4044 H 0.50559 0.10002 0.63882 0.0
H4045 H 0.48551 0.06936 0.64706 0.0
H4046 H 0.42756 0.10051 0.63399 0.0
H4047 H 0.44728 0.13127 0.62566 0.0
C4048 C 0.51597 0.21085 0.67298 0.0
C4049 C 0.49707 0.21782 0.68179 0.0
C4050 C 0.51586 0.19591 0.65785 0.0
C4051 C 0.49682 0.1878 0.65071 0.0
C4052 C 0.47784 0.19473 0.65948 0.0
C4053 C 0.47796 0.20954 0.67494 0.0
C4054 C 0.49717 0.17149 0.63483 0.0
C4055 C 0.48642 0.15347 0.63871 0.0
C4056 C 0.50984 0.17285 0.6169 0.0
C4057 C 0.51962 0.19207 0.61042 0.0
C4058 C 0.50735 0.20969 0.60869 0.0
C4059 C 0.51663 0.22779 0.60277 0.0
C4060 C 0.53815 0.22847 0.59842 0.0
C4061 C 0.55045 0.21103 0.59994 0.0
C4062 C 0.54126 0.19288 0.60588 0.0
C4063 C 0.50419 0.08912 0.5768 0.0
C4064 C 0.52596 0.08571 0.57448 0.0
C4065 C 0.49671 0.10574 0.58816 0.0
C4066 C 0.5109 0.11893 0.59784 0.0
C4067 C 0.53256 0.11505 0.59603 0.0
C4068 C 0.53997 0.09881 0.58449 0.0
C4069 C 0.5039 0.13712 0.6096 0.0
C4070 C 0.51322 0.15563 0.60475 0.0
C4071 C 0.48953 0.13633 0.62627 0.0
C4072 C 0.47789 0.11784 0.63148 0.0
C4073 C 0.48857 0.10027 0.63765 0.0
C4074 C 0.47726 0.08289 0.64235 0.0
C4075 C 0.45528 0.083 0.641 0.0
C4076 C 0.44457 0.10045 0.63502 0.0
C4077 C 0.4558 0.11785 0.63036 0.0
H4078 H 0.44652 0.06961 0.64464 0.0
H4079 H 0.5453 0.2425 0.59383 0.0
H4080 H 0.76278 0.52809 0.38179 0.0
H4081 H 0.78782 0.52537 0.41046 0.0
H4082 H 0.8336 0.49851 0.36948 0.0
H4083 H 0.80838 0.5005 0.34111 0.0
H4084 H 0.83885 0.48317 0.40584 0.0
H4085 H 0.83038 0.55049 0.37895 0.0
H4086 H 0.81068 0.58138 0.37002 0.0
H4087 H 0.79313 0.58918 0.4335 0.0
H4088 H 0.81248 0.55813 0.44275 0.0
H4089 H 0.92662 0.55237 0.44782 0.0
H4090 H 0.89321 0.54807 0.42998 0.0
H4091 H 0.87945 0.49662 0.4682 0.0
H4092 H 0.91362 0.50016 0.48522 0.0
H4093 H 0.8548 0.54933 0.43734 0.0
H4094 H 0.84968 0.4633 0.44289 0.0
H4095 H 0.87304 0.43374 0.44755 0.0
H4096 H 0.92409 0.46577 0.41967 0.0
H4097 H 0.90102 0.49538 0.41462 0.0
C4098 C 0.77802 0.52115 0.37909 0.0
C4099 C 0.78371 0.51461 0.35923 0.0
C4100 C 0.79234 0.51967 0.39544 0.0
C4101 C 0.81281 0.51218 0.39205 0.0
C4102 C 0.81795 0.50437 0.37253 0.0
C4103 C 0.80351 0.50551 0.35629 0.0
C4104 C 0.82956 0.51433 0.40796 0.0
C4105 C 0.8422 0.49759 0.4129 0.0
C4106 C 0.83421 0.53319 0.41702 0.0
C4107 C 0.82261 0.55186 0.41149 0.0
C4108 C 0.82218 0.55871 0.39097 0.0
C4109 C 0.81109 0.57625 0.38585 0.0
C4110 C 0.8006 0.58719 0.40117 0.0
C4111 C 0.80121 0.58065 0.42165 0.0
C4112 C 0.81222 0.56308 0.42683 0.0
C4113 C 0.91645 0.54018 0.45248 0.0
C4114 C 0.92292 0.52638 0.46764 0.0
C4115 C 0.89726 0.53776 0.44232 0.0
C4116 C 0.88389 0.52172 0.44734 0.0
C4117 C 0.88971 0.50872 0.46351 0.0
C4118 C 0.9092 0.51082 0.47332 0.0
C4119 C 0.86449 0.5183 0.4349 0.0
C4120 C 0.85125 0.53479 0.43067 0.0
C4121 C 0.85979 0.49939 0.42592 0.0
C4122 C 0.87369 0.48158 0.42858 0.0
C4123 C 0.86587 0.46397 0.43769 0.0
C4124 C 0.87905 0.44724 0.44042 0.0
C4125 C 0.90002 0.44792 0.43399 0.0
C4126 C 0.90786 0.46529 0.42471 0.0
C4127 C 0.89475 0.48205 0.42191 0.0
H4128 H 0.9102 0.43496 0.43615 0.0
H4129 H 0.79204 0.60078 0.39718 0.0
H4130 H 0.52639 0.81055 0.32911 0.0
H4131 H 0.51596 0.83526 0.35537 0.0
H4132 H 0.57545 0.86538 0.3479 0.0
H4133 H 0.58608 0.84049 0.32225 0.0
H4134 H 0.56654 0.86496 0.38643 0.0
H4135 H 0.52754 0.88244 0.32535 0.0
H4136 H 0.50323 0.8766 0.29631 0.0
H4137 H 0.45341 0.86333 0.33884 0.0
H4138 H 0.47752 0.86883 0.36814 0.0
H4139 H 0.54065 0.96202 0.4258 0.0
H4140 H 0.55039 0.93317 0.40436 0.0
H4141 H 0.49202 0.90417 0.42011 0.0
H4142 H 0.48203 0.93309 0.44139 0.0
H4143 H 0.49917 0.90247 0.37921 0.0
H4144 H 0.5393 0.88756 0.44047 0.0
H4145 H 0.56438 0.89479 0.4684 0.0
H4146 H 0.61315 0.9054 0.42394 0.0
H4147 H 0.58828 0.89827 0.39567 0.0
C4148 C 0.53724 0.8224 0.3332 0.0
C4149 C 0.55708 0.82351 0.32367 0.0
C4150 C 0.53125 0.83658 0.34814 0.0
C4151 C 0.54478 0.85244 0.35347 0.0
C4152 C 0.56472 0.85331 0.34418 0.0
C4153 C 0.57082 0.83901 0.32952 0.0
C4154 C 0.53822 0.8684 0.36841 0.0
C4155 C 0.55188 0.87326 0.3847 0.0
C4156 C 0.51893 0.87908 0.3665 0.0
C4157 C 0.50439 0.87583 0.34892 0.0
C4158 C 0.51144 0.87813 0.3285 0.0
C4159 C 0.4977 0.87491 0.312 0.0
C4160 C 0.47681 0.86954 0.31573 0.0
C4161 C 0.46961 0.86745 0.33597 0.0
C4162 C 0.4833 0.87063 0.35253 0.0
C4163 C 0.52993 0.94946 0.42483 0.0
C4164 C 0.51052 0.94992 0.4353 0.0
C4165 C 0.53557 0.9329 0.41263 0.0
C4166 C 0.52202 0.91638 0.41072 0.0
C4167 C 0.50274 0.91672 0.42132 0.0
C4168 C 0.49708 0.93326 0.43355 0.0
C4169 C 0.52759 0.89912 0.39705 0.0
C4170 C 0.51374 0.89404 0.381 0.0
C4171 C 0.54685 0.88845 0.39899 0.0
C4172 C 0.56187 0.89258 0.41596 0.0
C4173 C 0.55534 0.89157 0.43664 0.0
C4174 C 0.56954 0.89565 0.45255 0.0
C4175 C 0.59033 0.90072 0.44796 0.0
C4176 C 0.59702 0.90154 0.42746 0.0
C4177 C 0.58289 0.89743 0.4115 0.0
H4178 H 0.6013 0.90397 0.46026 0.0
H4179 H 0.46619 0.86705 0.30293 0.0
H4180 H 0.24049 0.54681 0.31852 0.0
H4181 H 0.20888 0.53644 0.33728 0.0
H4182 H 0.18906 0.59848 0.34202 0.0
H4183 H 0.22069 0.60889 0.32364 0.0
H4184 H 0.18286 0.58078 0.37715 0.0
H4185 H 0.16693 0.56479 0.30672 0.0
H4186 H 0.17275 0.54907 0.27271 0.0
H4187 H 0.1716 0.49049 0.30054 0.0
H4188 H 0.16606 0.50589 0.33477 0.0
H4189 H 0.08031 0.56375 0.41213 0.0
H4190 H 0.10845 0.57317 0.38853 0.0
H4191 H 0.1295 0.51142 0.38585 0.0
H4192 H 0.10127 0.50176 0.4093 0.0
H4193 H 0.13459 0.52908 0.34926 0.0
H4194 H 0.1514 0.54606 0.42012 0.0
H4195 H 0.14447 0.56246 0.45362 0.0
H4196 H 0.14296 0.62022 0.42407 0.0
H4197 H 0.14969 0.60415 0.39036 0.0
C4198 C 0.22937 0.55821 0.32357 0.0
C4199 C 0.23314 0.57867 0.31967 0.0
C4200 C 0.21126 0.55227 0.33422 0.0
C4201 C 0.19639 0.56666 0.34085 0.0
C4202 C 0.20028 0.58709 0.33713 0.0
C4203 C 0.21843 0.59303 0.32668 0.0
C4204 C 0.17687 0.56056 0.35185 0.0
C4205 C 0.1722 0.56965 0.37088 0.0
C4206 C 0.16305 0.5458 0.34391 0.0
C4207 C 0.16629 0.53651 0.32334 0.0
C4208 C 0.16807 0.54856 0.30561 0.0
C4209 C 0.1713 0.53971 0.28629 0.0
C4210 C 0.1726 0.5188 0.28447 0.0
C4211 C 0.17062 0.50669 0.30197 0.0
C4212 C 0.16742 0.51547 0.32133 0.0
C4213 C 0.09062 0.55206 0.40622 0.0
C4214 C 0.08872 0.53204 0.41295 0.0
C4215 C 0.10681 0.55751 0.3928 0.0
C4216 C 0.12145 0.54311 0.38587 0.0
C4217 C 0.11852 0.52285 0.39114 0.0
C4218 C 0.1023 0.51735 0.40456 0.0
C4219 C 0.14065 0.54933 0.37446 0.0
C4220 C 0.14527 0.54023 0.35544 0.0
C4221 C 0.15439 0.56418 0.38233 0.0
C4222 C 0.1509 0.57388 0.4027 0.0
C4223 C 0.14954 0.56225 0.42076 0.0
C4224 C 0.14565 0.57149 0.43978 0.0
C4225 C 0.14325 0.59237 0.44096 0.0
C4226 C 0.14484 0.60406 0.42313 0.0
C4227 C 0.14872 0.5949 0.40407 0.0
H4228 H 0.14017 0.59949 0.45567 0.0
H4229 H 0.17509 0.51197 0.2695 0.0
H4230 H 0.49065 0.23165 0.36685 0.0
H4231 H 0.49941 0.20456 0.39066 0.0
H4232 H 0.53877 0.17683 0.3443 0.0
H4233 H 0.52898 0.20325 0.31991 0.0
H4234 H 0.51604 0.14954 0.35971 0.0
H4235 H 0.55894 0.19886 0.39022 0.0
H4236 H 0.56915 0.23169 0.4046 0.0
H4237 H 0.52383 0.22506 0.45321 0.0
H4238 H 0.513 0.19238 0.43888 0.0
H4239 H 0.53704 0.07287 0.43536 0.0
H4240 H 0.54581 0.10207 0.41379 0.0
H4241 H 0.49354 0.13501 0.43997 0.0
H4242 H 0.48456 0.10595 0.46113 0.0
H4243 H 0.53139 0.15851 0.43417 0.0
H4244 H 0.48494 0.112 0.39678 0.0
H4245 H 0.47702 0.07841 0.38266 0.0
H4246 H 0.53419 0.07953 0.34731 0.0
H4247 H 0.54248 0.11308 0.36137 0.0
C4248 C 0.50124 0.21985 0.36167 0.0
C4249 C 0.50893 0.21967 0.3413 0.0
C4250 C 0.50651 0.20444 0.37547 0.0
C4251 C 0.51997 0.18861 0.36946 0.0
C4252 C 0.52838 0.18882 0.34941 0.0
C4253 C 0.52293 0.20414 0.3355 0.0
C4254 C 0.52365 0.17107 0.38348 0.0
C4255 C 0.51994 0.15159 0.37586 0.0
C4256 C 0.52869 0.17346 0.40467 0.0
C4257 C 0.53503 0.1932 0.41334 0.0
C4258 C 0.55099 0.20448 0.40385 0.0
C4259 C 0.55689 0.22307 0.412 0.0
C4260 C 0.5471 0.23048 0.42977 0.0
C4261 C 0.53138 0.21931 0.43943 0.0
C4262 C 0.52536 0.20074 0.43129 0.0
C4263 C 0.52772 0.08647 0.43678 0.0
C4264 C 0.51003 0.08707 0.4498 0.0
C4265 C 0.5327 0.10312 0.42443 0.0
C4266 C 0.52025 0.12069 0.42524 0.0
C4267 C 0.50338 0.12165 0.43914 0.0
C4268 C 0.49821 0.10498 0.45113 0.0
C4269 C 0.52323 0.13744 0.41037 0.0
C4270 C 0.52807 0.15666 0.41787 0.0
C4271 C 0.51964 0.13483 0.38902 0.0
C4272 C 0.51441 0.11492 0.38024 0.0
C4273 C 0.49584 0.10503 0.38606 0.0
C4274 C 0.49128 0.08602 0.37806 0.0
C4275 C 0.50512 0.07682 0.36414 0.0
C4276 C 0.52349 0.08666 0.35811 0.0
C4277 C 0.52811 0.10568 0.36606 0.0
H4278 H 0.50158 0.06209 0.35799 0.0
H4279 H 0.55174 0.24485 0.43609 0.0
H4280 H 0.67631 0.79696 0.49033 0.0
H4281 H 0.64769 0.81873 0.50313 0.0
H4282 H 0.68511 0.87108 0.48994 0.0
H4283 H 0.71364 0.84952 0.47754 0.0
H4284 H 0.66363 0.87609 0.5255 0.0
H4285 H 0.64863 0.85361 0.45545 0.0
H4286 H 0.64175 0.82833 0.42846 0.0
H4287 H 0.58914 0.80619 0.46308 0.0
H4288 H 0.59589 0.83123 0.49039 0.0
H4289 H 0.60366 0.95707 0.49046 0.0
H4290 H 0.62644 0.92844 0.49794 0.0
H4291 H 0.57219 0.89254 0.51274 0.0
H4292 H 0.54908 0.92125 0.50495 0.0
H4293 H 0.59716 0.87384 0.48541 0.0
H4294 H 0.60719 0.90398 0.55016 0.0
H4295 H 0.61337 0.93124 0.57514 0.0
H4296 H 0.67494 0.94071 0.54976 0.0
H4297 H 0.669 0.91377 0.52431 0.0
C4298 C 0.67851 0.81309 0.49054 0.0
C4299 C 0.69708 0.82156 0.48267 0.0
C4300 C 0.66214 0.82552 0.49776 0.0
C4301 C 0.66415 0.84658 0.49728 0.0
C4302 C 0.68315 0.85491 0.49046 0.0
C4303 C 0.69938 0.84257 0.4832 0.0
C4304 C 0.64616 0.86022 0.50221 0.0
C4305 C 0.64908 0.87564 0.51675 0.0
C4306 C 0.62685 0.85923 0.49134 0.0
C4307 C 0.62297 0.84403 0.47509 0.0
C4308 C 0.63574 0.84321 0.45739 0.0
C4309 C 0.63183 0.82896 0.44202 0.0
C4310 C 0.61508 0.8156 0.4441 0.0
C4311 C 0.60216 0.8165 0.46153 0.0
C4312 C 0.60602 0.8307 0.47696 0.0
C4313 C 0.59651 0.9432 0.49559 0.0
C4314 C 0.57451 0.94141 0.49688 0.0
C4315 C 0.60961 0.92685 0.50006 0.0
C4316 C 0.60107 0.90834 0.50609 0.0
C4317 C 0.57914 0.90669 0.50819 0.0
C4318 C 0.56596 0.9231 0.50367 0.0
C4319 C 0.61509 0.89042 0.50783 0.0
C4320 C 0.61143 0.87411 0.4946 0.0
C4321 C 0.63375 0.89074 0.51977 0.0
C4322 C 0.6376 0.90683 0.53524 0.0
C4323 C 0.62201 0.91194 0.5498 0.0
C4324 C 0.62547 0.92735 0.56406 0.0
C4325 C 0.64454 0.9377 0.56403 0.0
C4326 C 0.66019 0.93265 0.54976 0.0
C4327 C 0.65679 0.91729 0.53543 0.0
H4328 H 0.64719 0.94964 0.57508 0.0
H4329 H 0.61206 0.8046 0.43217 0.0
H4330 H 0.68425 0.21389 0.45926 0.0
H4331 H 0.65719 0.18955 0.46751 0.0
H4332 H 0.65804 0.20864 0.53112 0.0
H4333 H 0.68549 0.2332 0.5229 0.0
H4334 H 0.65839 0.16969 0.52975 0.0
H4335 H 0.61499 0.21859 0.49964 0.0
H4336 H 0.60302 0.24426 0.47479 0.0
H4337 H 0.59823 0.19922 0.42758 0.0
H4338 H 0.61059 0.17331 0.45201 0.0
H4339 H 0.57743 0.09075 0.53305 0.0
H4340 H 0.59628 0.12262 0.53839 0.0
H4341 H 0.61401 0.12281 0.47414 0.0
H4342 H 0.59512 0.09171 0.46876 0.0
H4343 H 0.59675 0.15787 0.48456 0.0
H4344 H 0.64911 0.11149 0.51645 0.0
H4345 H 0.66302 0.08866 0.54321 0.0
H4346 H 0.64796 0.13213 0.59007 0.0
H4347 H 0.63392 0.1552 0.56353 0.0
C4348 C 0.6784 0.21329 0.47494 0.0
C4349 C 0.68694 0.22568 0.49037 0.0
C4350 C 0.66285 0.19932 0.47965 0.0
C4351 C 0.6552 0.19746 0.49988 0.0
C4352 C 0.66358 0.20986 0.51537 0.0
C4353 C 0.6793 0.22385 0.51067 0.0
C4354 C 0.63965 0.18147 0.50477 0.0
C4355 C 0.64461 0.16736 0.52016 0.0
C4356 C 0.62145 0.17851 0.49254 0.0
C4357 C 0.61388 0.19399 0.47769 0.0
C4358 C 0.61155 0.21416 0.48393 0.0
C4359 C 0.60468 0.22876 0.46991 0.0
C4360 C 0.59996 0.22339 0.44961 0.0
C4361 C 0.60195 0.20337 0.44331 0.0
C4362 C 0.60887 0.18871 0.45725 0.0
C4363 C 0.58562 0.0975 0.52022 0.0
C4364 C 0.58455 0.08881 0.50045 0.0
C4365 C 0.59638 0.11572 0.52326 0.0
C4366 C 0.60641 0.12529 0.50659 0.0
C4367 C 0.60615 0.11597 0.48719 0.0
C4368 C 0.59536 0.09809 0.48415 0.0
C4369 C 0.61651 0.14539 0.50841 0.0
C4370 C 0.61028 0.16045 0.49441 0.0
C4371 C 0.63323 0.14941 0.52219 0.0
C4372 C 0.64021 0.1349 0.53808 0.0
C4373 C 0.64846 0.11602 0.53249 0.0
C4374 C 0.65644 0.10308 0.54762 0.0
C4375 C 0.65629 0.10893 0.56835 0.0
C4376 C 0.648 0.12762 0.57402 0.0
C4377 C 0.64004 0.14062 0.55896 0.0
H4378 H 0.66277 0.09914 0.58004 0.0
H4379 H 0.59476 0.23475 0.43876 0.0
H4380 H 0.83756 0.72363 0.49655 0.0
H4381 H 0.86506 0.69938 0.50464 0.0
H4382 H 0.84028 0.6587 0.45897 0.0
H4383 H 0.81133 0.68198 0.45229 0.0
H4384 H 0.85421 0.63727 0.48756 0.0
H4385 H 0.88479 0.69102 0.45037 0.0
H4386 H 0.89342 0.72607 0.44156 0.0
H4387 H 0.92564 0.73281 0.49937 0.0
H4388 H 0.91694 0.69787 0.50867 0.0
H4389 H 0.95029 0.58059 0.48739 0.0
H4390 H 0.92424 0.60469 0.47412 0.0
H4391 H 0.9307 0.64019 0.52939 0.0
H4392 H 0.95631 0.61594 0.54291 0.0
H4393 H 0.9272 0.66316 0.49187 0.0
H4394 H 0.89248 0.6074 0.52782 0.0
H4395 H 0.88641 0.57103 0.53214 0.0
H4396 H 0.86439 0.56712 0.46965 0.0
H4397 H 0.87054 0.60345 0.4649 0.0
C4398 C 0.83746 0.70934 0.48857 0.0
C4399 C 0.82214 0.70507 0.4735 0.0
C4400 C 0.85359 0.69557 0.49294 0.0
C4401 C 0.85533 0.67743 0.4819 0.0
C4402 C 0.83957 0.67268 0.46754 0.0
C4403 C 0.8231 0.68622 0.46353 0.0
C4404 C 0.87371 0.66364 0.48515 0.0
C4405 C 0.87015 0.64299 0.48816 0.0
C4406 C 0.89471 0.67085 0.48582 0.0
C4407 C 0.90004 0.69187 0.48029 0.0
C4408 C 0.89359 0.70001 0.46127 0.0
C4409 C 0.89851 0.71986 0.45618 0.0
C4410 C 0.91003 0.73168 0.46992 0.0
C4411 C 0.9167 0.72365 0.48876 0.0
C4412 C 0.91179 0.70381 0.49394 0.0
C4413 C 0.94636 0.59362 0.49658 0.0
C4414 C 0.95501 0.59612 0.51636 0.0
C4415 C 0.93148 0.60739 0.48899 0.0
C4416 C 0.92531 0.62404 0.50096 0.0
C4417 C 0.93512 0.62735 0.52001 0.0
C4418 C 0.94969 0.61345 0.52773 0.0
C4419 C 0.90748 0.63716 0.4946 0.0
C4420 C 0.9112 0.6576 0.49102 0.0
C4421 C 0.88677 0.62968 0.49277 0.0
C4422 C 0.88209 0.60809 0.49598 0.0
C4423 C 0.88635 0.59877 0.51501 0.0
C4424 C 0.88292 0.57817 0.51752 0.0
C4425 C 0.87507 0.56676 0.50115 0.0
C4426 C 0.87048 0.57597 0.48229 0.0
C4427 C 0.8739 0.59657 0.4797 0.0
H4428 H 0.87252 0.55079 0.50308 0.0
H4429 H 0.91382 0.74704 0.46595 0.0
H4430 H 0.33448 0.83287 0.52609 0.0
H4431 H 0.36268 0.85746 0.52884 0.0
H4432 H 0.40794 0.81259 0.50969 0.0
H4433 H 0.3797 0.78766 0.5071 0.0
H4434 H 0.42228 0.83899 0.54254 0.0
H4435 H 0.39182 0.84243 0.47474 0.0
H4436 H 0.36268 0.8448 0.4497 0.0
H4437 H 0.34415 0.90189 0.47508 0.0
H4438 H 0.37298 0.8997 0.50052 0.0
H4439 H 0.4992 0.91446 0.52292 0.0
H4440 H 0.47629 0.8853 0.5186 0.0
H4441 H 0.42163 0.9238 0.52461 0.0
H4442 H 0.44433 0.95297 0.52817 0.0
H4443 H 0.41468 0.89782 0.49597 0.0
H4444 H 0.44126 0.89337 0.56582 0.0
H4445 H 0.4691 0.89173 0.59229 0.0
H4446 H 0.49413 0.83806 0.56446 0.0
H4447 H 0.46633 0.83936 0.53781 0.0
C4448 C 0.35048 0.82803 0.52296 0.0
C4449 C 0.35482 0.80827 0.51636 0.0
C4450 C 0.36657 0.84217 0.52438 0.0
C4451 C 0.38735 0.8369 0.51925 0.0
C4452 C 0.39199 0.81696 0.51366 0.0
C4453 C 0.37583 0.80279 0.51209 0.0
C4454 C 0.40378 0.85265 0.51842 0.0
C4455 C 0.42086 0.85171 0.53214 0.0
C4456 C 0.40171 0.86937 0.50506 0.0
C4457 C 0.38446 0.87081 0.48965 0.0
C4458 C 0.38143 0.85541 0.47509 0.0
C4459 C 0.36498 0.85673 0.46081 0.0
C4460 C 0.35155 0.87346 0.46083 0.0
C4461 C 0.35456 0.88893 0.4751 0.0
C4462 C 0.37096 0.88767 0.48944 0.0
C4463 C 0.48229 0.91672 0.5231 0.0
C4464 C 0.47359 0.93605 0.52596 0.0
C4465 C 0.4692 0.9 0.5208 0.0
C4466 C 0.44719 0.90224 0.52167 0.0
C4467 C 0.43854 0.92162 0.52392 0.0
C4468 C 0.45157 0.93833 0.52597 0.0
C4469 C 0.43298 0.88455 0.52049 0.0
C4470 C 0.4163 0.88506 0.50628 0.0
C4471 C 0.43533 0.86758 0.53357 0.0
C4472 C 0.45186 0.86658 0.54972 0.0
C4473 C 0.45276 0.88127 0.5653 0.0
C4474 C 0.46853 0.8804 0.58033 0.0
C4475 C 0.48348 0.86488 0.57999 0.0
C4476 C 0.48257 0.8501 0.56468 0.0
C4477 C 0.46677 0.85086 0.54964 0.0
H4478 H 0.4957 0.86426 0.59162 0.0
H4479 H 0.33882 0.87446 0.44975 0.0
H4480 H 0.23141 0.35047 0.55563 0.0
H4481 H 0.20643 0.37722 0.54663 0.0
H4482 H 0.17462 0.33688 0.50501 0.0
H4483 H 0.19979 0.31017 0.51374 0.0
H4484 H 0.17663 0.37244 0.48817 0.0
H4485 H 0.15441 0.34792 0.5536 0.0
H4486 H 0.15707 0.33804 0.59018 0.0
H4487 H 0.17439 0.3983 0.60648 0.0
H4488 H 0.17203 0.4085 0.56995 0.0
H4489 H 0.08471 0.43423 0.48002 0.0
H4490 H 0.10766 0.40578 0.48882 0.0
H4491 H 0.14689 0.44507 0.52495 0.0
H4492 H 0.12416 0.4736 0.51614 0.0
H4493 H 0.13932 0.4088 0.54432 0.0
H4494 H 0.16175 0.43207 0.47688 0.0
H4495 H 0.15622 0.44075 0.44027 0.0
H4496 H 0.1351 0.38072 0.42799 0.0
H4497 H 0.14034 0.37173 0.46458 0.0
C4498 C 0.21915 0.34735 0.54448 0.0
C4499 C 0.21752 0.3282 0.53545 0.0
C4500 C 0.20481 0.36262 0.53942 0.0
C4501 C 0.18833 0.35897 0.52547 0.0
C4502 C 0.18713 0.34006 0.51587 0.0
C4503 C 0.20159 0.32483 0.5208 0.0
C4504 C 0.17228 0.37481 0.52106 0.0
C4505 C 0.16828 0.38017 0.50046 0.0
C4506 C 0.16141 0.38506 0.53706 0.0
C4507 C 0.16325 0.37892 0.559 0.0
C4508 C 0.15898 0.35902 0.56496 0.0
C4509 C 0.16039 0.35337 0.58569 0.0
C4510 C 0.16594 0.36752 0.60063 0.0
C4511 C 0.17011 0.38735 0.59488 0.0
C4512 C 0.16872 0.39308 0.57417 0.0
C4513 C 0.09818 0.43681 0.48989 0.0
C4514 C 0.1028 0.45625 0.49709 0.0
C4515 C 0.1113 0.42054 0.49488 0.0
C4516 C 0.12917 0.42338 0.50727 0.0
C4517 C 0.13324 0.44257 0.51527 0.0
C4518 C 0.12023 0.45887 0.51019 0.0
C4519 C 0.14397 0.40653 0.51153 0.0
C4520 C 0.14769 0.40098 0.53208 0.0
C4521 C 0.1543 0.3959 0.4955 0.0
C4522 C 0.1513 0.40127 0.47348 0.0
C4523 C 0.15583 0.42075 0.46639 0.0
C4524 C 0.1528 0.42571 0.44564 0.0
C4525 C 0.14535 0.41128 0.43181 0.0
C4526 C 0.14091 0.39187 0.43871 0.0
C4527 C 0.14394 0.38682 0.45944 0.0
H4528 H 0.14299 0.41515 0.41576 0.0
H4529 H 0.16696 0.36313 0.61668 0.0
H4530 H 0.35707 0.22063 0.52849 0.0
H4531 H 0.38258 0.19448 0.51942 0.0
H4532 H 0.33192 0.15324 0.50732 0.0
H4533 H 0.30636 0.17896 0.51742 0.0
H4534 H 0.35961 0.13586 0.53075 0.0
H4535 H 0.36392 0.17298 0.46799 0.0
H4536 H 0.36809 0.20284 0.44587 0.0
H4537 H 0.43028 0.21192 0.46998 0.0
H4538 H 0.42639 0.18228 0.49248 0.0
H4539 H 0.43106 0.0594 0.49956 0.0
H4540 H 0.40444 0.08574 0.49354 0.0
H4541 H 0.44607 0.12983 0.51989 0.0
H4542 H 0.4725 0.10353 0.5261 0.0
H4543 H 0.4214 0.14408 0.48477 0.0
H4544 H 0.41428 0.11084 0.55104 0.0
H4545 H 0.41052 0.08123 0.57362 0.0
H4546 H 0.35347 0.06516 0.54227 0.0
H4547 H 0.35706 0.09458 0.51933 0.0
C4548 C 0.35132 0.20602 0.52384 0.0
C4549 C 0.32959 0.20195 0.52382 0.0
C4550 C 0.36595 0.19112 0.51838 0.0
C4551 C 0.35923 0.17186 0.51248 0.0
C4552 C 0.33754 0.16797 0.51175 0.0
C4553 C 0.32289 0.18281 0.51735 0.0
C4554 C 0.37481 0.15537 0.50882 0.0
C4555 C 0.37281 0.13755 0.52029 0.0
C4556 C 0.39238 0.15762 0.49555 0.0
C4557 C 0.39479 0.17548 0.48205 0.0
C4558 C 0.37843 0.18143 0.4687 0.0
C4559 C 0.38075 0.19831 0.45607 0.0
C4560 C 0.39942 0.20929 0.45655 0.0
C4561 C 0.41582 0.2034 0.46964 0.0
C4562 C 0.41357 0.18655 0.48231 0.0
C4563 C 0.43479 0.07483 0.50327 0.0
C4564 C 0.45384 0.07953 0.51307 0.0
C4565 C 0.41954 0.08983 0.50002 0.0
C4566 C 0.42329 0.10971 0.50634 0.0
C4567 C 0.44292 0.11462 0.51479 0.0
C4568 C 0.45797 0.09961 0.51837 0.0
C4569 C 0.40604 0.12485 0.50668 0.0
C4570 C 0.40786 0.14237 0.49479 0.0
C4571 C 0.38827 0.1224 0.51954 0.0
C4572 C 0.38607 0.10475 0.53332 0.0
C4573 C 0.40104 0.10089 0.54884 0.0
C4574 C 0.39892 0.08417 0.56173 0.0
C4575 C 0.3818 0.07129 0.55933 0.0
C4576 C 0.36675 0.07513 0.54408 0.0
C4577 C 0.36881 0.09183 0.53114 0.0
H4578 H 0.38017 0.05836 0.56934 0.0
H4579 H 0.40119 0.22235 0.44675 0.0
H4580 H 0.78369 0.36888 0.48915 0.0
H4581 H 0.80734 0.3965 0.49805 0.0
H4582 H 0.85521 0.35358 0.51599 0.0
H4583 H 0.83163 0.326 0.50732 0.0
H4584 H 0.85364 0.3835 0.54283 0.0
H4585 H 0.85666 0.37856 0.4683 0.0
H4586 H 0.84192 0.37814 0.43308 0.0
H4587 H 0.81553 0.43708 0.44242 0.0
H4588 H 0.82998 0.43777 0.47776 0.0
H4589 H 0.94271 0.44637 0.54345 0.0
H4590 H 0.91749 0.42002 0.53506 0.0
H4591 H 0.87218 0.46508 0.51624 0.0
H4592 H 0.89749 0.49147 0.52409 0.0
H4593 H 0.87133 0.43496 0.49034 0.0
H4594 H 0.86866 0.44089 0.56403 0.0
H4595 H 0.88294 0.44199 0.5994 0.0
H4596 H 0.9078 0.38217 0.59222 0.0
H4597 H 0.89376 0.38076 0.55674 0.0
C4598 C 0.79924 0.36536 0.49505 0.0
C4599 C 0.80577 0.34525 0.49754 0.0
C4600 C 0.81277 0.38114 0.50007 0.0
C4601 C 0.8332 0.37713 0.50739 0.0
C4602 C 0.83953 0.35707 0.51038 0.0
C4603 C 0.82598 0.34131 0.50551 0.0
C4604 C 0.84815 0.39372 0.51175 0.0
C4605 C 0.85768 0.39462 0.53127 0.0
C4606 C 0.85302 0.40858 0.49689 0.0
C4607 C 0.84421 0.40813 0.47572 0.0
C4608 C 0.84758 0.39136 0.46288 0.0
C4609 C 0.83931 0.39109 0.44289 0.0
C4610 C 0.82775 0.40755 0.43554 0.0
C4611 C 0.82443 0.42432 0.44816 0.0
C4612 C 0.83267 0.42467 0.46816 0.0
C4613 C 0.92742 0.45067 0.53742 0.0
C4614 C 0.92206 0.47104 0.53458 0.0
C4615 C 0.91295 0.43559 0.53276 0.0
C4616 C 0.89275 0.44057 0.52541 0.0
C4617 C 0.88761 0.46086 0.52201 0.0
C4618 C 0.9021 0.47595 0.52655 0.0
C4619 C 0.87695 0.42465 0.52137 0.0
C4620 C 0.86725 0.42388 0.50193 0.0
C4621 C 0.87181 0.40999 0.53637 0.0
C4622 C 0.88027 0.41078 0.55769 0.0
C4623 C 0.87727 0.42801 0.56996 0.0
C4624 C 0.88527 0.42867 0.59004 0.0
C4625 C 0.89623 0.41214 0.59806 0.0
C4626 C 0.89924 0.39493 0.58601 0.0
C4627 C 0.89123 0.39418 0.56593 0.0
H4628 H 0.90246 0.41269 0.61359 0.0
H4629 H 0.82139 0.40733 0.42005 0.0
H4630 H 0.24096 0.66999 0.48524 0.0
H4631 H 0.21307 0.64521 0.48963 0.0
H4632 H 0.18631 0.68065 0.53891 0.0
H4633 H 0.21397 0.70571 0.53442 0.0
H4634 H 0.18601 0.63966 0.54724 0.0
H4635 H 0.16529 0.68379 0.49203 0.0
H4636 H 0.16951 0.70175 0.45904 0.0
H4637 H 0.17646 0.64546 0.42719 0.0
H4638 H 0.17263 0.62716 0.46004 0.0
H4639 H 0.08241 0.59131 0.53659 0.0
H4640 H 0.11264 0.61367 0.54283 0.0
H4641 H 0.14615 0.58549 0.49256 0.0
H4642 H 0.1163 0.56367 0.48616 0.0
H4643 H 0.14096 0.62543 0.48658 0.0
H4644 H 0.16661 0.58141 0.53928 0.0
H4645 H 0.16974 0.56211 0.57144 0.0
H4646 H 0.15662 0.6154 0.60678 0.0
H4647 H 0.15357 0.63512 0.57465 0.0
C4648 C 0.22921 0.67249 0.49708 0.0
C4649 C 0.22963 0.68995 0.50935 0.0
C4650 C 0.21327 0.65831 0.49957 0.0
C4651 C 0.19739 0.66128 0.51434 0.0
C4652 C 0.19836 0.67811 0.52736 0.0
C4653 C 0.21429 0.69235 0.52485 0.0
C4654 C 0.17941 0.64717 0.51562 0.0
C4655 C 0.17585 0.63679 0.53411 0.0
C4656 C 0.16652 0.64312 0.49832 0.0
C4657 C 0.16885 0.65411 0.47854 0.0
C4658 C 0.1679 0.67524 0.47802 0.0
C4659 C 0.17019 0.68549 0.45933 0.0
C4660 C 0.17329 0.67475 0.44103 0.0
C4661 C 0.17407 0.65375 0.44138 0.0
C4662 C 0.17183 0.64344 0.46002 0.0
C4663 C 0.0965 0.58958 0.52733 0.0
C4664 C 0.09691 0.57603 0.51069 0.0
C4665 C 0.11374 0.60233 0.53088 0.0
C4666 C 0.13153 0.60146 0.51792 0.0
C4667 C 0.13251 0.58666 0.50255 0.0
C4668 C 0.11541 0.57417 0.49893 0.0
C4669 C 0.14781 0.61743 0.5181 0.0
C4670 C 0.15091 0.62838 0.49983 0.0
C4671 C 0.16041 0.62177 0.5355 0.0
C4672 C 0.15955 0.60965 0.55458 0.0
C4673 C 0.16393 0.58892 0.55388 0.0
C4674 C 0.16587 0.57794 0.57214 0.0
C4675 C 0.16338 0.58751 0.5912 0.0
C4676 C 0.15856 0.60802 0.59201 0.0
C4677 C 0.15675 0.61911 0.57378 0.0
H4678 H 0.16539 0.57911 0.60535 0.0
H4679 H 0.17504 0.68271 0.42658 0.0
loop_
_geom_bond_atom_site_label_1
_geom_bond_atom_site_label_2
_geom_bond_distance
_geom_bond_site_symmetry_2
_ccdc_geom_bond_type
P0 O11 1.490 1_455 S
P0 C14 1.812 . S
P0 C20 1.803 . S
P0 C26 1.819 . S
H1 C15 0.941 1_655 S
H2 C16 0.939 . S
H3 C18 0.940 . S
H4 C19 0.940 . S
H5 C21 0.939 1_655 S
H6 C22 0.942 . S
H7 C24 0.940 . S
H8 C25 0.939 . S
H9 C27 0.962 . S
H10 C31 0.939 . S
O11 P0 1.490 1_655 S
H12 C28 0.939 . S
H13 C30 0.940 . S
C14 P0 1.812 . S
C14 C15 1.389 . S
C14 C19 1.391 . S
C15 H1 0.941 1_455 S
C15 C14 1.389 . S
C15 C16 1.397 . S
C16 H2 0.939 . S
C16 C15 1.397 . S
C16 C17 1.378 . S
C17 C16 1.378 . S
C17 C18 1.378 . S
C18 H3 0.940 . S
C18 C17 1.378 . S
C18 C19 1.396 . S
C19 H4 0.940 . S
C19 C14 1.391 . S
C19 C18 1.396 . S
C20 P0 1.803 . S
C20 C21 1.378 . S
C20 C25 1.400 . S
C21 H5 0.939 1_455 S
C21 C20 1.378 . S
C21 C22 1.361 . S
C22 H6 0.942 . S
C22 C21 1.361 . S
C22 C23 1.369 . S
C23 C22 1.369 . S
C23 C24 1.404 . S
C24 H7 0.940 . S
C24 C23 1.404 . S
C24 C25 1.389 . S
C25 H8 0.939 . S
C25 C20 1.400 . S
C25 C24 1.389 . S
C26 P0 1.819 . S
C26 C27 1.391 . S
C26 C31 1.391 . S
C27 H9 0.962 . S
C27 C26 1.391 . S
C27 C28 1.396 . S
C28 H12 0.939 . S
C28 C27 1.396 . S
C28 C29 1.397 . S
C29 C28 1.397 . S
C29 C30 1.385 . S
C30 H13 0.940 . S
C30 C29 1.385 . S
C30 C31 1.388 . S
C31 H10 0.939 . S
C31 C26 1.391 . S
C31 C30 1.388 . S
P32 O43 1.490 1_545 S
P32 C46 1.812 . S
P32 C52 1.803 . S
P32 C58 1.819 . S
H33 C47 0.941 1_565 S
H34 C48 0.939 . S
H35 C50 0.940 . S
H36 C51 0.940 . S
H37 C53 0.939 1_565 S
H38 C54 0.942 . S
H39 C56 0.940 . S
H40 C57 0.939 . S
H41 C59 0.943 . S
H42 C63 0.939 . S
O43 P32 1.490 1_565 S
H44 C60 0.939 . S
H45 C62 0.940 . S
C46 P32 1.812 . S
C46 C47 1.389 . S
C46 C51 1.391 . S
C47 H33 0.941 1_545 S
C47 C46 1.389 . S
C47 C48 1.397 . S
C48 H34 0.939 . S
C48 C47 1.397 . S
C48 C49 1.378 . S
C49 C48 1.378 . S
C49 C50 1.378 . S
C50 H35 0.940 . S
C50 C49 1.378 . S
C50 C51 1.396 . S
C51 H36 0.940 . S
C51 C46 1.391 . S
C51 C50 1.396 . S
C52 P32 1.803 . S
C52 C53 1.378 . S
C52 C57 1.400 . S
C53 H37 0.939 1_545 S
C53 C52 1.378 . S
C53 C54 1.361 . S
C54 H38 0.942 . S
C54 C53 1.361 . S
C54 C55 1.369 . S
C55 C54 1.369 . S
C55 C56 1.404 . S
C56 H39 0.940 . S
C56 C55 1.404 . S
C56 C57 1.389 . S
C57 H40 0.939 . S
C57 C52 1.400 . S
C57 C56 1.389 . S
C58 P32 1.819 . S
C58 C59 1.391 . S
C58 C63 1.391 . S
C59 H41 0.943 . S
C59 C58 1.391 . S
C59 C60 1.396 . S
C60 H44 0.939 . S
C60 C59 1.396 . S
C60 C61 1.397 . S
C61 C60 1.397 . S
C61 C62 1.385 . S
C62 H45 0.940 . S
C62 C61 1.385 . S
C62 C63 1.388 . S
C63 H42 0.939 . S
C63 C58 1.391 . S
C63 C62 1.388 . S
P64 O75 1.490 . S
P64 C78 1.812 . S
P64 C84 1.803 . S
P64 C90 1.819 . S
H65 C79 0.941 . S
H66 C80 0.939 . S
H67 C82 0.940 . S
H68 C83 0.940 . S
H69 C85 0.939 . S
H70 C86 0.942 . S
H71 C88 0.940 . S
H72 C89 0.939 . S
H73 C91 0.941 . S
H74 C95 0.939 . S
O75 P64 1.490 . S
H76 C92 0.939 . S
H77 C94 0.940 . S
C78 P64 1.812 . S
C78 C79 1.389 . S
C78 C83 1.391 . S
C79 H65 0.941 . S
C79 C78 1.389 . S
C79 C80 1.397 . S
C80 H66 0.939 . S
C80 C79 1.397 . S
C80 C81 1.378 . S
C81 C80 1.378 . S
C81 C82 1.378 . S
C82 H67 0.940 . S
C82 C81 1.378 . S
C82 C83 1.396 . S
C83 H68 0.940 . S
C83 C78 1.391 . S
C83 C82 1.396 . S
C84 P64 1.803 . S
C84 C85 1.378 . S
C84 C89 1.400 . S
C85 H69 0.939 . S
C85 C84 1.378 . S
C85 C86 1.361 . S
C86 H70 0.942 . S
C86 C85 1.361 . S
C86 C87 1.369 . S
C87 C86 1.369 . S
C87 C88 1.404 . S
C88 H71 0.940 . S
C88 C87 1.404 . S
C88 C89 1.389 . S
C89 H72 0.939 . S
C89 C84 1.400 . S
C89 C88 1.389 . S
C90 P64 1.819 . S
C90 C91 1.391 . S
C90 C95 1.391 . S
C91 H73 0.941 . S
C91 C90 1.391 . S
C91 C92 1.396 . S
C92 H76 0.939 . S
C92 C91 1.396 . S
C92 C93 1.397 . S
C93 C92 1.397 . S
C93 C94 1.385 . S
C94 H77 0.940 . S
C94 C93 1.385 . S
C94 C95 1.388 . S
C95 H74 0.939 . S
C95 C90 1.391 . S
C95 C94 1.388 . S
P96 O107 1.490 . S
P96 C110 1.812 . S
P96 C116 1.803 . S
P96 C122 1.819 . S
H97 C111 0.941 . S
H98 C112 0.939 . S
H99 C114 0.940 . S
H100 C115 0.940 . S
H101 C117 0.939 . S
H102 C118 0.942 . S
H103 C120 0.940 . S
H104 C121 0.939 . S
H105 C123 0.941 . S
H106 C127 0.939 1_545 S
O107 P96 1.490 . S
H108 C124 0.939 . S
H109 C126 0.940 . S
C110 P96 1.812 . S
C110 C111 1.389 . S
C110 C115 1.391 1_565 S
C111 H97 0.941 . S
C111 C110 1.389 . S
C111 C112 1.397 . S
C112 H98 0.939 . S
C112 C111 1.397 . S
C112 C113 1.378 . S
C113 C112 1.378 . S
C113 C114 1.378 1_565 S
C114 H99 0.940 . S
C114 C113 1.378 1_545 S
C114 C115 1.396 . S
C115 H100 0.940 . S
C115 C110 1.391 1_545 S
C115 C114 1.396 . S
C116 P96 1.803 . S
C116 C117 1.378 . S
C116 C121 1.400 1_565 S
C117 H101 0.939 . S
C117 C116 1.378 . S
C117 C118 1.361 . S
C118 H102 0.942 . S
C118 C117 1.361 . S
C118 C119 1.369 . S
C119 C118 1.369 . S
C119 C120 1.404 1_565 S
C120 H103 0.940 . S
C120 C119 1.404 1_545 S
C120 C121 1.389 . S
C121 H104 0.939 . S
C121 C116 1.400 1_545 S
C121 C120 1.389 . S
C122 P96 1.819 . S
C122 C123 1.391 . S
C122 C127 1.391 . S
C123 H105 0.941 . S
C123 C122 1.391 . S
C123 C124 1.396 . S
C124 H108 0.939 . S
C124 C123 1.396 . S
C124 C125 1.397 . S
C125 C124 1.397 . S
C125 C126 1.385 1_565 S
C126 H109 0.940 . S
C126 C125 1.385 1_545 S
C126 C127 1.388 1_545 S
C127 H106 0.939 1_565 S
C127 C122 1.391 . S
C127 C126 1.388 1_565 S
P128 O139 1.490 . S
P128 C142 1.812 . S
P128 C148 1.803 . S
P128 C154 1.819 . S
H129 C143 0.941 . S
H130 C144 0.939 . S
H131 C146 0.940 . S
H132 C147 0.949 . S
H133 C149 0.939 . S
H134 C150 0.942 . S
H135 C152 0.940 . S
H136 C153 0.962 . S
H137 C155 0.941 . S
H138 C159 0.926 1_455 S
O139 P128 1.490 . S
H140 C156 0.939 . S
H141 C158 0.940 . S
C142 P128 1.812 . S
C142 C143 1.389 . S
C142 C147 1.377 1_655 S
C143 H129 0.941 . S
C143 C142 1.389 . S
C143 C144 1.397 . S
C144 H130 0.939 . S
C144 C143 1.397 . S
C144 C145 1.378 . S
C145 C144 1.378 . S
C145 C146 1.378 1_655 S
C146 H131 0.940 . S
C146 C145 1.378 1_455 S
C146 C147 1.402 . S
C147 H132 0.949 . S
C147 C142 1.377 1_455 S
C147 C146 1.402 . S
C148 P128 1.803 . S
C148 C149 1.378 . S
C148 C153 1.364 1_655 S
C149 H133 0.939 . S
C149 C148 1.378 . S
C149 C150 1.361 . S
C150 H134 0.942 . S
C150 C149 1.361 . S
C150 C151 1.369 . S
C151 C150 1.369 . S
C151 C152 1.404 1_655 S
C152 H135 0.940 . S
C152 C151 1.404 1_455 S
C152 C153 1.404 . S
C153 H136 0.962 . S
C153 C148 1.364 1_455 S
C153 C152 1.404 . S
C154 P128 1.819 . S
C154 C155 1.391 . S
C154 C159 1.391 . S
C155 H137 0.941 . S
C155 C154 1.391 . S
C155 C156 1.396 . S
C156 H140 0.939 . S
C156 C155 1.396 . S
C156 C157 1.397 . S
C157 C156 1.397 . S
C157 C158 1.385 1_655 S
C158 H141 0.940 . S
C158 C157 1.385 1_455 S
C158 C159 1.388 1_455 S
C159 H138 0.926 1_655 S
C159 C154 1.391 . S
C159 C158 1.388 1_655 S
P160 O171 1.490 . S
P160 C174 1.812 . S
P160 C180 1.803 . S
P160 C186 1.819 . S
H161 C175 0.941 . S
H162 C176 0.939 . S
H163 C178 0.940 . S
H164 C179 0.940 . S
H165 C181 0.939 . S
H166 C182 0.942 . S
H167 C184 0.940 . S
H168 C185 0.939 . S
H169 C187 0.941 . S
H170 C191 0.939 . S
O171 P160 1.490 . S
H172 C188 0.939 . S
H173 C190 0.940 . S
C174 P160 1.812 . S
C174 C175 1.389 . S
C174 C179 1.391 1_565 S
C175 H161 0.941 . S
C175 C174 1.389 . S
C175 C176 1.397 . S
C176 H162 0.939 . S
C176 C175 1.397 . S
C176 C177 1.378 1_565 S
C177 C176 1.378 1_545 S
C177 C178 1.378 . S
C178 H163 0.940 . S
C178 C177 1.378 . S
C178 C179 1.396 . S
C179 H164 0.940 . S
C179 C174 1.391 1_545 S
C179 C178 1.396 . S
C180 P160 1.803 . S
C180 C181 1.378 . S
C180 C185 1.400 1_565 S
C181 H165 0.939 . S
C181 C180 1.378 . S
C181 C182 1.361 . S
C182 H166 0.942 . S
C182 C181 1.361 . S
C182 C183 1.369 1_565 S
C183 C182 1.369 1_545 S
C183 C184 1.404 . S
C184 H167 0.940 . S
C184 C183 1.404 . S
C184 C185 1.389 . S
C185 H168 0.939 . S
C185 C180 1.400 1_545 S
C185 C184 1.389 . S
C186 P160 1.819 . S
C186 C187 1.391 . S
C186 C191 1.391 1_565 S
C187 H169 0.941 . S
C187 C186 1.391 . S
C187 C188 1.396 . S
C188 H172 0.939 . S
C188 C187 1.396 . S
C188 C189 1.397 1_565 S
C189 C188 1.397 1_545 S
C189 C190 1.385 . S
C190 H173 0.940 . S
C190 C189 1.385 . S
C190 C191 1.388 . S
C191 H170 0.939 . S
C191 C186 1.391 1_545 S
C191 C190 1.388 . S
P192 O203 1.490 . S
P192 C206 1.812 . S
P192 C212 1.803 . S
P192 C218 1.819 . S
H193 C207 0.941 . S
H194 C208 0.939 . S
H195 C210 0.940 . S
H196 C211 0.940 . S
H197 C213 0.939 . S
H198 C214 0.942 . S
H199 C216 0.940 . S
H200 C217 0.939 . S
H201 C219 0.941 . S
H202 C223 0.939 . S
O203 P192 1.490 . S
H204 C220 0.939 . S
H205 C222 0.940 . S
C206 P192 1.812 . S
C206 C207 1.389 . S
C206 C211 1.391 . S
C207 H193 0.941 . S
C207 C206 1.389 . S
C207 C208 1.397 . S
C208 H194 0.939 . S
C208 C207 1.397 . S
C208 C209 1.378 . S
C209 C208 1.378 . S
C209 C210 1.378 . S
C210 H195 0.940 . S
C210 C209 1.378 . S
C210 C211 1.396 . S
C211 H196 0.940 . S
C211 C206 1.391 . S
C211 C210 1.396 . S
C212 P192 1.803 . S
C212 C213 1.378 . S
C212 C217 1.400 . S
C213 H197 0.939 . S
C213 C212 1.378 . S
C213 C214 1.361 . S
C214 H198 0.942 . S
C214 C213 1.361 . S
C214 C215 1.369 . S
C215 C214 1.369 . S
C215 C216 1.404 . S
C216 H199 0.940 . S
C216 C215 1.404 . S
C216 C217 1.389 . S
C217 H200 0.939 . S
C217 C212 1.400 . S
C217 C216 1.389 . S
C218 P192 1.819 . S
C218 C219 1.391 . S
C218 C223 1.391 . S
C219 H201 0.941 . S
C219 C218 1.391 . S
C219 C220 1.396 . S
C220 H204 0.939 . S
C220 C219 1.396 . S
C220 C221 1.397 . S
C221 C220 1.397 . S
C221 C222 1.385 . S
C222 H205 0.940 . S
C222 C221 1.385 . S
C222 C223 1.388 . S
C223 H202 0.939 . S
C223 C218 1.391 . S
C223 C222 1.388 . S
P224 O235 1.490 . S
P224 C238 1.812 . S
P224 C244 1.803 . S
P224 C250 1.819 . S
H225 C239 0.941 . S
H226 C240 0.939 . S
H227 C242 0.940 . S
H228 C243 0.940 . S
H229 C245 0.939 . S
H230 C246 0.942 . S
H231 C248 0.940 . S
H232 C249 0.939 . S
H233 C251 0.941 . S
H234 C255 0.939 . S
O235 P224 1.490 . S
H236 C252 0.939 . S
H237 C254 0.940 . S
C238 P224 1.812 . S
C238 C239 1.389 . S
C238 C243 1.391 . S
C239 H225 0.941 . S
C239 C238 1.389 . S
C239 C240 1.397 . S
C240 H226 0.939 . S
C240 C239 1.397 . S
C240 C241 1.378 . S
C241 C240 1.378 . S
C241 C242 1.378 . S
C242 H227 0.940 . S
C242 C241 1.378 . S
C242 C243 1.396 . S
C243 H228 0.940 . S
C243 C238 1.391 . S
C243 C242 1.396 . S
C244 P224 1.803 . S
C244 C245 1.378 . S
C244 C249 1.400 . S
C245 H229 0.939 . S
C245 C244 1.378 . S
C245 C246 1.361 . S
C246 H230 0.942 . S
C246 C245 1.361 . S
C246 C247 1.369 . S
C247 C246 1.369 . S
C247 C248 1.404 . S
C248 H231 0.940 . S
C248 C247 1.404 . S
C248 C249 1.389 . S
C249 H232 0.939 . S
C249 C244 1.400 . S
C249 C248 1.389 . S
C250 P224 1.819 . S
C250 C251 1.391 . S
C250 C255 1.391 . S
C251 H233 0.941 . S
C251 C250 1.391 . S
C251 C252 1.396 . S
C252 H236 0.939 . S
C252 C251 1.396 . S
C252 C253 1.397 . S
C253 C252 1.397 . S
C253 C254 1.385 . S
C254 H237 0.940 . S
C254 C253 1.385 . S
C254 C255 1.388 . S
C255 H234 0.939 . S
C255 C250 1.391 . S
C255 C254 1.388 . S
P256 O267 1.490 . S
P256 C270 1.817 . S
P256 C276 1.817 . S
P256 C282 1.836 . S
H257 C271 0.941 . S
H258 C272 0.939 . S
H259 C274 0.940 . S
H260 C275 0.940 . S
H261 C277 0.939 . S
H262 C278 0.942 . S
H263 C280 0.940 . S
H264 C281 0.939 . S
H265 C283 0.941 . S
H266 C287 0.939 . S
O267 P256 1.490 . S
H268 C284 0.939 . S
H269 C286 0.940 . S
C270 P256 1.817 . S
C270 C271 1.397 . S
C270 C275 1.378 1_556 S
C271 H257 0.941 . S
C271 C270 1.397 . S
C271 C272 1.397 . S
C272 H258 0.939 . S
C272 C271 1.397 . S
C272 C273 1.378 1_556 S
C273 C272 1.378 1_554 S
C273 C274 1.378 . S
C274 H259 0.940 . S
C274 C273 1.378 . S
C274 C275 1.396 . S
C275 H260 0.940 . S
C275 C270 1.378 1_554 S
C275 C274 1.396 . S
C276 P256 1.817 . S
C276 C277 1.397 . S
C276 C281 1.368 1_556 S
C277 H261 0.939 . S
C277 C276 1.397 . S
C277 C278 1.361 . S
C278 H262 0.942 . S
C278 C277 1.361 . S
C278 C279 1.369 1_556 S
C279 C278 1.369 1_554 S
C279 C280 1.404 . S
C280 H263 0.940 . S
C280 C279 1.404 . S
C280 C281 1.389 . S
C281 H264 0.939 . S
C281 C276 1.368 1_554 S
C281 C280 1.389 . S
C282 P256 1.836 . S
C282 C283 1.408 . S
C282 C287 1.360 1_556 S
C283 H265 0.941 . S
C283 C282 1.408 . S
C283 C284 1.396 . S
C284 H268 0.939 . S
C284 C283 1.396 . S
C284 C285 1.397 1_556 S
C285 C284 1.397 1_554 S
C285 C286 1.385 . S
C286 H269 0.940 . S
C286 C285 1.385 . S
C286 C287 1.388 . S
C287 H266 0.939 . S
C287 C282 1.360 1_554 S
C287 C286 1.388 . S
P288 O299 1.490 . S
P288 C302 1.812 . S
P288 C308 1.803 . S
P288 C314 1.819 . S
H289 C303 0.941 . S
H290 C304 0.939 . S
H291 C306 0.940 . S
H292 C307 0.940 . S
H293 C309 0.939 . S
H294 C310 0.942 . S
H295 C312 0.940 . S
H296 C313 0.939 . S
H297 C315 0.941 . S
H298 C319 0.939 . S
O299 P288 1.490 . S
H300 C316 0.939 . S
H301 C318 0.940 . S
C302 P288 1.812 . S
C302 C303 1.389 . S
C302 C307 1.391 1_556 S
C303 H289 0.941 . S
C303 C302 1.389 . S
C303 C304 1.397 . S
C304 H290 0.939 . S
C304 C303 1.397 . S
C304 C305 1.378 1_556 S
C305 C304 1.378 1_554 S
C305 C306 1.378 . S
C306 H291 0.940 . S
C306 C305 1.378 . S
C306 C307 1.396 . S
C307 H292 0.940 . S
C307 C302 1.391 1_554 S
C307 C306 1.396 . S
C308 P288 1.803 . S
C308 C309 1.378 . S
C308 C313 1.400 1_556 S
C309 H293 0.939 . S
C309 C308 1.378 . S
C309 C310 1.361 . S
C310 H294 0.942 . S
C310 C309 1.361 . S
C310 C311 1.369 1_556 S
C311 C310 1.369 1_554 S
C311 C312 1.404 . S
C312 H295 0.940 . S
C312 C311 1.404 . S
C312 C313 1.389 . S
C313 H296 0.939 . S
C313 C308 1.400 1_554 S
C313 C312 1.389 . S
C314 P288 1.819 . S
C314 C315 1.391 . S
C314 C319 1.391 1_556 S
C315 H297 0.941 . S
C315 C314 1.391 . S
C315 C316 1.396 . S
C316 H300 0.939 . S
C316 C315 1.396 . S
C316 C317 1.397 1_556 S
C317 C316 1.397 1_554 S
C317 C318 1.385 . S
C318 H301 0.940 . S
C318 C317 1.385 . S
C318 C319 1.388 . S
C319 H298 0.939 . S
C319 C314 1.391 1_554 S
C319 C318 1.388 . S
P320 O331 1.490 . S
P320 C334 1.812 . S
P320 C340 1.803 . S
P320 C346 1.819 . S
H321 C335 0.941 . S
H322 C336 0.939 . S
H323 C338 0.940 . S
H324 C339 0.940 . S
H325 C341 0.939 . S
H326 C342 0.942 . S
H327 C344 0.940 . S
H328 C345 0.939 . S
H329 C347 0.941 . S
H330 C351 0.939 1_554 S
O331 P320 1.490 . S
H332 C348 0.939 . S
H333 C350 0.940 . S
C334 P320 1.812 . S
C334 C335 1.389 . S
C334 C339 1.391 1_556 S
C335 H321 0.941 . S
C335 C334 1.389 . S
C335 C336 1.397 . S
C336 H322 0.939 . S
C336 C335 1.397 . S
C336 C337 1.378 . S
C337 C336 1.378 . S
C337 C338 1.378 1_556 S
C338 H323 0.940 . S
C338 C337 1.378 1_554 S
C338 C339 1.396 . S
C339 H324 0.940 . S
C339 C334 1.391 1_554 S
C339 C338 1.396 . S
C340 P320 1.803 . S
C340 C341 1.378 . S
C340 C345 1.400 1_556 S
C341 H325 0.939 . S
C341 C340 1.378 . S
C341 C342 1.361 . S
C342 H326 0.942 . S
C342 C341 1.361 . S
C342 C343 1.369 . S
C343 C342 1.369 . S
C343 C344 1.404 1_556 S
C344 H327 0.940 . S
C344 C343 1.404 1_554 S
C344 C345 1.389 . S
C345 H328 0.939 . S
C345 C340 1.400 1_554 S
C345 C344 1.389 . S
C346 P320 1.819 . S
C346 C347 1.391 . S
C346 C351 1.391 . S
C347 H329 0.941 . S
C347 C346 1.391 . S
C347 C348 1.396 . S
C348 H332 0.939 . S
C348 C347 1.396 . S
C348 C349 1.397 . S
C349 C348 1.397 . S
C349 C350 1.385 1_556 S
C350 H333 0.940 . S
C350 C349 1.385 1_554 S
C350 C351 1.388 1_554 S
C351 H330 0.939 1_556 S
C351 C346 1.391 . S
C351 C350 1.388 1_556 S
P352 O363 1.490 . S
P352 C366 1.812 . S
P352 C372 1.803 . S
P352 C378 1.819 . S
H353 C367 0.941 . S
H354 C368 0.939 . S
H355 C370 0.940 . S
H356 C371 0.940 1_556 S
H357 C373 0.939 . S
H358 C374 0.942 . S
H359 C376 0.940 . S
H360 C377 0.939 1_556 S
H361 C379 0.941 . S
H362 C383 0.939 . S
O363 P352 1.490 . S
H364 C380 0.939 . S
H365 C382 0.940 1_556 S
C366 P352 1.812 . S
C366 C367 1.389 . S
C366 C371 1.391 . S
C367 H353 0.941 . S
C367 C366 1.389 . S
C367 C368 1.397 . S
C368 H354 0.939 . S
C368 C367 1.397 . S
C368 C369 1.378 . S
C369 C368 1.378 . S
C369 C370 1.378 1_554 S
C370 H355 0.940 . S
C370 C369 1.378 1_556 S
C370 C371 1.396 1_556 S
C371 H356 0.940 1_554 S
C371 C366 1.391 . S
C371 C370 1.396 1_554 S
C372 P352 1.803 . S
C372 C373 1.378 . S
C372 C377 1.400 . S
C373 H357 0.939 . S
C373 C372 1.378 . S
C373 C374 1.361 . S
C374 H358 0.942 . S
C374 C373 1.361 . S
C374 C375 1.369 . S
C375 C374 1.369 . S
C375 C376 1.404 1_554 S
C376 H359 0.940 . S
C376 C375 1.404 1_556 S
C376 C377 1.389 1_556 S
C377 H360 0.939 1_554 S
C377 C372 1.400 . S
C377 C376 1.389 1_554 S
C378 P352 1.819 . S
C378 C379 1.391 . S
C378 C383 1.391 . S
C379 H361 0.941 . S
C379 C378 1.391 . S
C379 C380 1.396 . S
C380 H364 0.939 . S
C380 C379 1.396 . S
C380 C381 1.397 . S
C381 C380 1.397 . S
C381 C382 1.385 . S
C382 H365 0.940 1_554 S
C382 C381 1.385 . S
C382 C383 1.388 . S
C383 H362 0.939 . S
C383 C378 1.391 . S
C383 C382 1.388 . S
P384 O395 1.490 . S
P384 C398 1.812 . S
P384 C404 1.803 . S
P384 C410 1.819 . S
H385 C399 0.941 . S
H386 C400 0.939 . S
H387 C402 0.940 . S
H388 C403 0.940 . S
H389 C405 0.939 . S
H390 C406 0.942 . S
H391 C408 0.940 . S
H392 C409 0.939 . S
H393 C411 0.941 . S
H394 C415 0.939 . S
O395 P384 1.490 . S
H396 C412 0.939 . S
H397 C414 0.940 . S
C398 P384 1.812 . S
C398 C399 1.389 . S
C398 C403 1.391 . S
C399 H385 0.941 . S
C399 C398 1.389 . S
C399 C400 1.397 . S
C400 H386 0.939 . S
C400 C399 1.397 . S
C400 C401 1.378 . S
C401 C400 1.378 . S
C401 C402 1.378 . S
C402 H387 0.940 . S
C402 C401 1.378 . S
C402 C403 1.396 . S
C403 H388 0.940 . S
C403 C398 1.391 . S
C403 C402 1.396 . S
C404 P384 1.803 . S
C404 C405 1.378 . S
C404 C409 1.400 . S
C405 H389 0.939 . S
C405 C404 1.378 . S
C405 C406 1.361 . S
C406 H390 0.942 . S
C406 C405 1.361 . S
C406 C407 1.369 . S
C407 C406 1.369 . S
C407 C408 1.404 . S
C408 H391 0.940 . S
C408 C407 1.404 . S
C408 C409 1.389 . S
C409 H392 0.939 . S
C409 C404 1.400 . S
C409 C408 1.389 . S
C410 P384 1.819 . S
C410 C411 1.391 . S
C410 C415 1.391 . S
C411 H393 0.941 . S
C411 C410 1.391 . S
C411 C412 1.396 . S
C412 H396 0.939 . S
C412 C411 1.396 . S
C412 C413 1.397 . S
C413 C412 1.397 . S
C413 C414 1.385 . S
C414 H397 0.940 . S
C414 C413 1.385 . S
C414 C415 1.388 . S
C415 H394 0.939 . S
C415 C410 1.391 . S
C415 C414 1.388 . S
P416 O427 1.490 . S
P416 C430 1.812 . S
P416 C436 1.803 . S
P416 C442 1.819 . S
H417 C431 0.941 . S
H418 C432 0.939 . S
H419 C434 0.940 . S
H420 C435 0.940 . S
H421 C437 0.939 . S
H422 C438 0.942 . S
H423 C440 0.940 . S
H424 C441 0.939 . S
H425 C443 0.941 . S
H426 C447 0.939 . S
O427 P416 1.490 . S
H428 C444 0.939 . S
H429 C446 0.940 . S
C430 P416 1.812 . S
C430 C431 1.389 . S
C430 C435 1.391 . S
C431 H417 0.941 . S
C431 C430 1.389 . S
C431 C432 1.397 . S
C432 H418 0.939 . S
C432 C431 1.397 . S
C432 C433 1.378 . S
C433 C432 1.378 . S
C433 C434 1.378 . S
C434 H419 0.940 . S
C434 C433 1.378 . S
C434 C435 1.396 . S
C435 H420 0.940 . S
C435 C430 1.391 . S
C435 C434 1.396 . S
C436 P416 1.803 . S
C436 C437 1.378 . S
C436 C441 1.400 . S
C437 H421 0.939 . S
C437 C436 1.378 . S
C437 C438 1.361 . S
C438 H422 0.942 . S
C438 C437 1.361 . S
C438 C439 1.369 . S
C439 C438 1.369 . S
C439 C440 1.404 . S
C440 H423 0.940 . S
C440 C439 1.404 . S
C440 C441 1.389 . S
C441 H424 0.939 . S
C441 C436 1.400 . S
C441 C440 1.389 . S
C442 P416 1.819 . S
C442 C443 1.391 . S
C442 C447 1.391 . S
C443 H425 0.941 . S
C443 C442 1.391 . S
C443 C444 1.396 . S
C444 H428 0.939 . S
C444 C443 1.396 . S
C444 C445 1.397 . S
C445 C444 1.397 . S
C445 C446 1.385 . S
C446 H429 0.940 . S
C446 C445 1.385 . S
C446 C447 1.388 . S
C447 H426 0.939 . S
C447 C442 1.391 . S
C447 C446 1.388 . S
P448 O459 1.490 . S
P448 C462 1.812 . S
P448 C468 1.803 . S
P448 C474 1.819 . S
H449 C463 0.941 . S
H450 C464 0.939 . S
H451 C466 0.940 . S
H452 C467 0.940 . S
H453 C469 0.939 . S
H454 C470 0.942 . S
H455 C472 0.940 . S
H456 C473 0.939 . S
H457 C475 0.941 . S
H458 C479 0.939 . S
O459 P448 1.490 . S
H460 C476 0.939 . S
H461 C478 0.940 . S
C462 P448 1.812 . S
C462 C463 1.389 . S
C462 C467 1.391 . S
C463 H449 0.941 . S
C463 C462 1.389 . S
C463 C464 1.397 . S
C464 H450 0.939 . S
C464 C463 1.397 . S
C464 C465 1.378 . S
C465 C464 1.378 . S
C465 C466 1.378 . S
C466 H451 0.940 . S
C466 C465 1.378 . S
C466 C467 1.396 . S
C467 H452 0.940 . S
C467 C462 1.391 . S
C467 C466 1.396 . S
C468 P448 1.803 . S
C468 C469 1.378 . S
C468 C473 1.400 . S
C469 H453 0.939 . S
C469 C468 1.378 . S
C469 C470 1.361 . S
C470 H454 0.942 . S
C470 C469 1.361 . S
C470 C471 1.369 . S
C471 C470 1.369 . S
C471 C472 1.404 . S
C472 H455 0.940 . S
C472 C471 1.404 . S
C472 C473 1.389 . S
C473 H456 0.939 . S
C473 C468 1.400 . S
C473 C472 1.389 . S
C474 P448 1.819 . S
C474 C475 1.391 . S
C474 C479 1.391 . S
C475 H457 0.941 . S
C475 C474 1.391 . S
C475 C476 1.396 . S
C476 H460 0.939 . S
C476 C475 1.396 . S
C476 C477 1.397 . S
C477 C476 1.397 . S
C477 C478 1.385 . S
C478 H461 0.940 . S
C478 C477 1.385 . S
C478 C479 1.388 . S
C479 H458 0.939 . S
C479 C474 1.391 . S
C479 C478 1.388 . S
P480 O491 1.490 . S
P480 C494 1.812 . S
P480 C500 1.803 . S
P480 C506 1.819 . S
H481 C495 0.941 . S
H482 C496 0.939 . S
H483 C498 0.940 . S
H484 C499 0.940 . S
H485 C501 0.939 . S
H486 C502 0.942 . S
H487 C504 0.940 . S
H488 C505 0.939 . S
H489 C507 0.941 . S
H490 C511 0.939 . S
O491 P480 1.490 . S
H492 C508 0.939 . S
H493 C510 0.940 . S
C494 P480 1.812 . S
C494 C495 1.389 . S
C494 C499 1.391 . S
C495 H481 0.941 . S
C495 C494 1.389 . S
C495 C496 1.397 . S
C496 H482 0.939 . S
C496 C495 1.397 . S
C496 C497 1.378 . S
C497 C496 1.378 . S
C497 C498 1.378 . S
C498 H483 0.940 . S
C498 C497 1.378 . S
C498 C499 1.396 . S
C499 H484 0.940 . S
C499 C494 1.391 . S
C499 C498 1.396 . S
C500 P480 1.803 . S
C500 C501 1.378 . S
C500 C505 1.400 . S
C501 H485 0.939 . S
C501 C500 1.378 . S
C501 C502 1.361 . S
C502 H486 0.942 . S
C502 C501 1.361 . S
C502 C503 1.369 . S
C503 C502 1.369 . S
C503 C504 1.404 . S
C504 H487 0.940 . S
C504 C503 1.404 . S
C504 C505 1.389 . S
C505 H488 0.939 . S
C505 C500 1.400 . S
C505 C504 1.389 . S
C506 P480 1.819 . S
C506 C507 1.391 . S
C506 C511 1.391 . S
C507 H489 0.941 . S
C507 C506 1.391 . S
C507 C508 1.396 . S
C508 H492 0.939 . S
C508 C507 1.396 . S
C508 C509 1.397 . S
C509 C508 1.397 . S
C509 C510 1.385 . S
C510 H493 0.940 . S
C510 C509 1.385 . S
C510 C511 1.388 . S
C511 H490 0.939 . S
C511 C506 1.391 . S
C511 C510 1.388 . S
P512 O523 1.490 . S
P512 C526 1.812 . S
P512 C532 1.803 . S
P512 C538 1.819 . S
H513 C527 0.941 . S
H514 C528 0.939 . S
H515 C530 0.940 . S
H516 C531 0.940 . S
H517 C533 0.939 . S
H518 C534 0.942 . S
H519 C536 0.940 . S
H520 C537 0.939 . S
H521 C539 0.941 . S
H522 C543 0.939 . S
O523 P512 1.490 . S
H524 C540 0.939 . S
H525 C542 0.940 . S
C526 P512 1.812 . S
C526 C527 1.389 . S
C526 C531 1.391 . S
C527 H513 0.941 . S
C527 C526 1.389 . S
C527 C528 1.397 . S
C528 H514 0.939 . S
C528 C527 1.397 . S
C528 C529 1.378 . S
C529 C528 1.378 . S
C529 C530 1.378 . S
C530 H515 0.940 . S
C530 C529 1.378 . S
C530 C531 1.396 . S
C531 H516 0.940 . S
C531 C526 1.391 . S
C531 C530 1.396 . S
C532 P512 1.803 . S
C532 C533 1.378 . S
C532 C537 1.400 . S
C533 H517 0.939 . S
C533 C532 1.378 . S
C533 C534 1.361 . S
C534 H518 0.942 . S
C534 C533 1.361 . S
C534 C535 1.369 . S
C535 C534 1.369 . S
C535 C536 1.404 . S
C536 H519 0.940 . S
C536 C535 1.404 . S
C536 C537 1.389 . S
C537 H520 0.939 . S
C537 C532 1.400 . S
C537 C536 1.389 . S
C538 P512 1.819 . S
C538 C539 1.391 . S
C538 C543 1.391 . S
C539 H521 0.941 . S
C539 C538 1.391 . S
C539 C540 1.396 . S
C540 H524 0.939 . S
C540 C539 1.396 . S
C540 C541 1.397 . S
C541 C540 1.397 . S
C541 C542 1.385 . S
C542 H525 0.940 . S
C542 C541 1.385 . S
C542 C543 1.388 . S
C543 H522 0.939 . S
C543 C538 1.391 . S
C543 C542 1.388 . S
P544 O555 1.490 . S
P544 C558 1.812 . S
P544 C564 1.803 . S
P544 C570 1.819 . S
H545 C559 0.941 . S
H546 C560 0.939 . S
H547 C562 0.940 . S
H548 C563 0.940 . S
H549 C565 0.939 . S
H550 C566 0.942 . S
H551 C568 0.940 . S
H552 C569 0.939 . S
H553 C571 0.941 . S
H554 C575 0.939 . S
O555 P544 1.490 . S
H556 C572 0.939 . S
H557 C574 0.940 . S
C558 P544 1.812 . S
C558 C559 1.389 . S
C558 C563 1.391 . S
C559 H545 0.941 . S
C559 C558 1.389 . S
C559 C560 1.397 . S
C560 H546 0.939 . S
C560 C559 1.397 . S
C560 C561 1.378 . S
C561 C560 1.378 . S
C561 C562 1.378 . S
C562 H547 0.940 . S
C562 C561 1.378 . S
C562 C563 1.396 . S
C563 H548 0.940 . S
C563 C558 1.391 . S
C563 C562 1.396 . S
C564 P544 1.803 . S
C564 C565 1.378 . S
C564 C569 1.400 . S
C565 H549 0.939 . S
C565 C564 1.378 . S
C565 C566 1.361 . S
C566 H550 0.942 . S
C566 C565 1.361 . S
C566 C567 1.369 . S
C567 C566 1.369 . S
C567 C568 1.404 . S
C568 H551 0.940 . S
C568 C567 1.404 . S
C568 C569 1.389 . S
C569 H552 0.939 . S
C569 C564 1.400 . S
C569 C568 1.389 . S
C570 P544 1.819 . S
C570 C571 1.391 . S
C570 C575 1.391 . S
C571 H553 0.941 . S
C571 C570 1.391 . S
C571 C572 1.396 . S
C572 H556 0.939 . S
C572 C571 1.396 . S
C572 C573 1.397 . S
C573 C572 1.397 . S
C573 C574 1.385 . S
C574 H557 0.940 . S
C574 C573 1.385 . S
C574 C575 1.388 . S
C575 H554 0.939 . S
C575 C570 1.391 . S
C575 C574 1.388 . S
P576 O587 1.490 . S
P576 C590 1.812 . S
P576 C596 1.803 . S
P576 C602 1.819 . S
H577 C591 0.941 . S
H578 C592 0.939 . S
H579 C594 0.940 . S
H580 C595 0.940 . S
H581 C597 0.939 . S
H582 C598 0.942 . S
H583 C600 0.940 . S
H584 C601 0.939 . S
H585 C603 0.941 . S
H586 C607 0.939 . S
O587 P576 1.490 . S
H588 C604 0.939 . S
H589 C606 0.940 . S
C590 P576 1.812 . S
C590 C591 1.389 . S
C590 C595 1.391 . S
C591 H577 0.941 . S
C591 C590 1.389 . S
C591 C592 1.397 . S
C592 H578 0.939 . S
C592 C591 1.397 . S
C592 C593 1.378 . S
C593 C592 1.378 . S
C593 C594 1.378 . S
C594 H579 0.940 . S
C594 C593 1.378 . S
C594 C595 1.396 . S
C595 H580 0.940 . S
C595 C590 1.391 . S
C595 C594 1.396 . S
C596 P576 1.803 . S
C596 C597 1.378 . S
C596 C601 1.400 . S
C597 H581 0.939 . S
C597 C596 1.378 . S
C597 C598 1.361 . S
C598 H582 0.942 . S
C598 C597 1.361 . S
C598 C599 1.369 . S
C599 C598 1.369 . S
C599 C600 1.404 . S
C600 H583 0.940 . S
C600 C599 1.404 . S
C600 C601 1.389 . S
C601 H584 0.939 . S
C601 C596 1.400 . S
C601 C600 1.389 . S
C602 P576 1.819 . S
C602 C603 1.391 . S
C602 C607 1.391 . S
C603 H585 0.941 . S
C603 C602 1.391 . S
C603 C604 1.396 . S
C604 H588 0.939 . S
C604 C603 1.396 . S
C604 C605 1.397 . S
C605 C604 1.397 . S
C605 C606 1.385 . S
C606 H589 0.940 . S
C606 C605 1.385 . S
C606 C607 1.388 . S
C607 H586 0.939 . S
C607 C602 1.391 . S
C607 C606 1.388 . S
P608 O619 1.490 . S
P608 C622 1.812 . S
P608 C628 1.803 . S
P608 C634 1.819 . S
H609 C623 0.941 . S
H610 C624 0.939 . S
H611 C626 0.940 . S
H612 C627 0.940 . S
H613 C629 0.939 . S
H614 C630 0.942 . S
H615 C632 0.940 . S
H616 C633 0.939 . S
H617 C635 0.941 . S
H618 C639 0.939 . S
O619 P608 1.490 . S
H620 C636 0.939 . S
H621 C638 0.940 . S
C622 P608 1.812 . S
C622 C623 1.389 . S
C622 C627 1.391 . S
C623 H609 0.941 . S
C623 C622 1.389 . S
C623 C624 1.397 . S
C624 H610 0.939 . S
C624 C623 1.397 . S
C624 C625 1.378 . S
C625 C624 1.378 . S
C625 C626 1.378 . S
C626 H611 0.940 . S
C626 C625 1.378 . S
C626 C627 1.396 . S
C627 H612 0.940 . S
C627 C622 1.391 . S
C627 C626 1.396 . S
C628 P608 1.803 . S
C628 C629 1.378 . S
C628 C633 1.400 . S
C629 H613 0.939 . S
C629 C628 1.378 . S
C629 C630 1.361 . S
C630 H614 0.942 . S
C630 C629 1.361 . S
C630 C631 1.369 . S
C631 C630 1.369 . S
C631 C632 1.404 . S
C632 H615 0.940 . S
C632 C631 1.404 . S
C632 C633 1.389 . S
C633 H616 0.939 . S
C633 C628 1.400 . S
C633 C632 1.389 . S
C634 P608 1.819 . S
C634 C635 1.391 . S
C634 C639 1.391 . S
C635 H617 0.941 . S
C635 C634 1.391 . S
C635 C636 1.396 . S
C636 H620 0.939 . S
C636 C635 1.396 . S
C636 C637 1.397 . S
C637 C636 1.397 . S
C637 C638 1.385 . S
C638 H621 0.940 . S
C638 C637 1.385 . S
C638 C639 1.388 . S
C639 H618 0.939 . S
C639 C634 1.391 . S
C639 C638 1.388 . S
P640 O651 1.490 . S
P640 C654 1.812 . S
P640 C660 1.803 . S
P640 C666 1.819 . S
H641 C655 0.941 . S
H642 C656 0.939 . S
H643 C658 0.940 . S
H644 C659 0.940 . S
H645 C661 0.939 . S
H646 C662 0.942 . S
H647 C664 0.940 . S
H648 C665 0.939 . S
H649 C667 0.941 . S
H650 C671 0.939 . S
O651 P640 1.490 . S
H652 C668 0.939 . S
H653 C670 0.940 . S
C654 P640 1.812 . S
C654 C655 1.389 . S
C654 C659 1.391 . S
C655 H641 0.941 . S
C655 C654 1.389 . S
C655 C656 1.397 . S
C656 H642 0.939 . S
C656 C655 1.397 . S
C656 C657 1.378 . S
C657 C656 1.378 . S
C657 C658 1.378 . S
C658 H643 0.940 . S
C658 C657 1.378 . S
C658 C659 1.396 . S
C659 H644 0.940 . S
C659 C654 1.391 . S
C659 C658 1.396 . S
C660 P640 1.803 . S
C660 C661 1.378 . S
C660 C665 1.400 . S
C661 H645 0.939 . S
C661 C660 1.378 . S
C661 C662 1.361 . S
C662 H646 0.942 . S
C662 C661 1.361 . S
C662 C663 1.369 . S
C663 C662 1.369 . S
C663 C664 1.404 . S
C664 H647 0.940 . S
C664 C663 1.404 . S
C664 C665 1.389 . S
C665 H648 0.939 . S
C665 C660 1.400 . S
C665 C664 1.389 . S
C666 P640 1.819 . S
C666 C667 1.391 . S
C666 C671 1.391 . S
C667 H649 0.941 . S
C667 C666 1.391 . S
C667 C668 1.396 . S
C668 H652 0.939 . S
C668 C667 1.396 . S
C668 C669 1.397 . S
C669 C668 1.397 . S
C669 C670 1.385 . S
C670 H653 0.940 . S
C670 C669 1.385 . S
C670 C671 1.388 . S
C671 H650 0.939 . S
C671 C666 1.391 . S
C671 C670 1.388 . S
P672 O683 1.490 . S
P672 C686 1.812 . S
P672 C692 1.803 . S
P672 C698 1.819 . S
H673 C687 0.941 . S
H674 C688 0.939 . S
H675 C690 0.940 . S
H676 C691 0.940 . S
H677 C693 0.939 . S
H678 C694 0.942 . S
H679 C696 0.940 . S
H680 C697 0.939 . S
H681 C699 0.941 . S
H682 C703 0.939 . S
O683 P672 1.490 . S
H684 C700 0.939 . S
H685 C702 0.940 . S
C686 P672 1.812 . S
C686 C687 1.389 . S
C686 C691 1.391 . S
C687 H673 0.941 . S
C687 C686 1.389 . S
C687 C688 1.397 . S
C688 H674 0.939 . S
C688 C687 1.397 . S
C688 C689 1.378 . S
C689 C688 1.378 . S
C689 C690 1.378 . S
C690 H675 0.940 . S
C690 C689 1.378 . S
C690 C691 1.396 . S
C691 H676 0.940 . S
C691 C686 1.391 . S
C691 C690 1.396 . S
C692 P672 1.803 . S
C692 C693 1.378 . S
C692 C697 1.400 . S
C693 H677 0.939 . S
C693 C692 1.378 . S
C693 C694 1.361 . S
C694 H678 0.942 . S
C694 C693 1.361 . S
C694 C695 1.369 . S
C695 C694 1.369 . S
C695 C696 1.404 . S
C696 H679 0.940 . S
C696 C695 1.404 . S
C696 C697 1.389 . S
C697 H680 0.939 . S
C697 C692 1.400 . S
C697 C696 1.389 . S
C698 P672 1.819 . S
C698 C699 1.391 . S
C698 C703 1.391 . S
C699 H681 0.941 . S
C699 C698 1.391 . S
C699 C700 1.396 . S
C700 H684 0.939 . S
C700 C699 1.396 . S
C700 C701 1.397 . S
C701 C700 1.397 . S
C701 C702 1.385 . S
C702 H685 0.940 . S
C702 C701 1.385 . S
C702 C703 1.388 . S
C703 H682 0.939 . S
C703 C698 1.391 . S
C703 C702 1.388 . S
P704 O715 1.490 . S
P704 C718 1.812 . S
P704 C724 1.803 . S
P704 C730 1.819 . S
H705 C719 0.941 . S
H706 C720 0.939 . S
H707 C722 0.940 . S
H708 C723 0.940 . S
H709 C725 0.939 . S
H710 C726 0.942 . S
H711 C728 0.940 . S
H712 C729 0.939 . S
H713 C731 0.941 . S
H714 C735 0.939 . S
O715 P704 1.490 . S
H716 C732 0.939 . S
H717 C734 0.940 . S
C718 P704 1.812 . S
C718 C719 1.389 . S
C718 C723 1.391 . S
C719 H705 0.941 . S
C719 C718 1.389 . S
C719 C720 1.397 . S
C720 H706 0.939 . S
C720 C719 1.397 . S
C720 C721 1.378 . S
C721 C720 1.378 . S
C721 C722 1.378 . S
C722 H707 0.940 . S
C722 C721 1.378 . S
C722 C723 1.396 . S
C723 H708 0.940 . S
C723 C718 1.391 . S
C723 C722 1.396 . S
C724 P704 1.803 . S
C724 C725 1.378 . S
C724 C729 1.400 . S
C725 H709 0.939 . S
C725 C724 1.378 . S
C725 C726 1.361 . S
C726 H710 0.942 . S
C726 C725 1.361 . S
C726 C727 1.369 . S
C727 C726 1.369 . S
C727 C728 1.404 . S
C728 H711 0.940 . S
C728 C727 1.404 . S
C728 C729 1.389 . S
C729 H712 0.939 . S
C729 C724 1.400 . S
C729 C728 1.389 . S
C730 P704 1.819 . S
C730 C731 1.391 . S
C730 C735 1.391 . S
C731 H713 0.941 . S
C731 C730 1.391 . S
C731 C732 1.396 . S
C732 H716 0.939 . S
C732 C731 1.396 . S
C732 C733 1.397 . S
C733 C732 1.397 . S
C733 C734 1.385 . S
C734 H717 0.940 . S
C734 C733 1.385 . S
C734 C735 1.388 . S
C735 H714 0.939 . S
C735 C730 1.391 . S
C735 C734 1.388 . S
P736 O747 1.490 . S
P736 C750 1.812 . S
P736 C756 1.803 . S
P736 C762 1.819 . S
H737 C751 0.941 . S
H738 C752 0.939 . S
H739 C754 0.940 . S
H740 C755 0.940 . S
H741 C757 0.939 . S
H742 C758 0.942 . S
H743 C760 0.940 . S
H744 C761 0.939 . S
H745 C763 0.941 . S
H746 C767 0.939 . S
O747 P736 1.490 . S
H748 C764 0.939 . S
H749 C766 0.940 . S
C750 P736 1.812 . S
C750 C751 1.389 . S
C750 C755 1.391 . S
C751 H737 0.941 . S
C751 C750 1.389 . S
C751 C752 1.397 . S
C752 H738 0.939 . S
C752 C751 1.397 . S
C752 C753 1.378 . S
C753 C752 1.378 . S
C753 C754 1.378 . S
C754 H739 0.940 . S
C754 C753 1.378 . S
C754 C755 1.396 . S
C755 H740 0.940 . S
C755 C750 1.391 . S
C755 C754 1.396 . S
C756 P736 1.803 . S
C756 C757 1.378 . S
C756 C761 1.400 . S
C757 H741 0.939 . S
C757 C756 1.378 . S
C757 C758 1.361 . S
C758 H742 0.942 . S
C758 C757 1.361 . S
C758 C759 1.369 . S
C759 C758 1.369 . S
C759 C760 1.404 . S
C760 H743 0.940 . S
C760 C759 1.404 . S
C760 C761 1.389 . S
C761 H744 0.939 . S
C761 C756 1.400 . S
C761 C760 1.389 . S
C762 P736 1.819 . S
C762 C763 1.391 . S
C762 C767 1.391 . S
C763 H745 0.941 . S
C763 C762 1.391 . S
C763 C764 1.396 . S
C764 H748 0.939 . S
C764 C763 1.396 . S
C764 C765 1.397 . S
C765 C764 1.397 . S
C765 C766 1.385 . S
C766 H749 0.940 . S
C766 C765 1.385 . S
C766 C767 1.388 . S
C767 H746 0.939 . S
C767 C762 1.391 . S
C767 C766 1.388 . S
Zn768 O770 1.933 1_665 S
Zn768 O788 1.985 1_565 S
Zn768 O799 1.955 1_655 S
Zn769 O770 1.911 1_655 S
Zn769 O789 1.970 . S
Zn769 O805 1.945 1_655 S
Zn769 O812 1.981 . S
O770 Zn768 1.933 1_445 S
O770 Zn769 1.911 1_455 S
O770 H771 0.841 . S
H771 O770 0.841 . S
C772 O773 1.246 . S
C772 O801 1.276 . S
O773 C772 1.246 . S
Zn774 O776 1.911 . S
Zn774 O791 1.970 . S
Zn774 O808 1.945 . S
Zn774 O815 1.981 . S
Zn775 O776 1.933 1_565 S
Zn775 O790 1.980 1_565 S
Zn775 O797 1.955 . S
O776 Zn774 1.911 . S
O776 Zn775 1.933 1_545 S
O776 H777 0.841 . S
H777 O776 0.841 . S
Zn778 O779 1.933 1_565 S
Zn778 O792 1.985 1_565 S
Zn778 O801 1.955 . S
O779 Zn778 1.933 1_545 S
O779 Zn780 1.911 . S
O779 H781 0.841 . S
Zn780 O779 1.911 . S
Zn780 O793 1.970 . S
Zn780 O809 1.981 1_655 S
Zn780 O811 1.945 . S
H781 O779 0.841 . S
Zn782 O783 1.933 1_565 S
Zn782 O795 1.981 1_565 S
Zn782 O803 1.955 . S
O783 Zn782 1.933 1_545 S
O783 H784 0.841 . S
O783 Zn785 1.911 . S
H784 O783 0.841 . S
Zn785 O783 1.911 . S
Zn785 O796 1.970 . S
Zn785 O806 1.981 . S
Zn785 O814 1.945 . S
C786 O787 1.246 . S
C786 O803 1.276 . S
O787 C786 1.246 . S
O788 Zn768 1.985 1_545 S
O788 C798 1.245 . S
O789 Zn769 1.970 . S
O789 C798 1.263 . S
O790 Zn775 1.980 1_545 S
O790 C802 1.272 . S
O791 Zn774 1.970 . S
O791 C802 1.263 . S
O792 Zn778 1.985 1_545 S
O792 C807 1.245 . S
O793 Zn780 1.970 . S
O793 C807 1.263 . S
C794 O805 1.262 . S
C794 O806 1.245 . S
O795 Zn782 1.981 1_545 S
O795 C813 1.264 . S
O796 Zn785 1.970 . S
O796 C813 1.263 . S
O797 Zn775 1.955 . S
O797 C816 1.276 . S
C798 O788 1.245 . S
C798 O789 1.263 . S
O799 Zn768 1.955 1_455 S
O799 C818 1.276 . S
C800 O808 1.262 . S
C800 O809 1.245 . S
O801 C772 1.276 . S
O801 Zn778 1.955 . S
C802 O790 1.272 . S
C802 O791 1.263 . S
O803 Zn782 1.955 . S
O803 C786 1.276 . S
C804 O811 1.262 . S
C804 O812 1.245 . S
O805 Zn769 1.945 1_455 S
O805 C794 1.262 . S
O806 Zn785 1.981 . S
O806 C794 1.245 . S
C807 O792 1.245 . S
C807 O793 1.263 . S
O808 Zn774 1.945 . S
O808 C800 1.262 . S
O809 Zn780 1.981 1_455 S
O809 C800 1.245 . S
C810 O814 1.262 . S
C810 O815 1.245 . S
O811 Zn780 1.945 . S
O811 C804 1.262 . S
O812 Zn769 1.981 . S
O812 C804 1.245 . S
C813 O795 1.264 . S
C813 O796 1.263 . S
O814 Zn785 1.945 . S
O814 C810 1.262 . S
O815 Zn774 1.981 . S
O815 C810 1.245 . S
C816 O797 1.276 . S
C816 O817 1.246 . S
O817 C816 1.246 . S
C818 O799 1.276 . S
C818 O819 1.246 . S
O819 C818 1.246 . S
Zn820 O822 1.933 . S
Zn820 O840 1.985 . S
Zn820 O851 1.955 . S
Zn821 O822 1.911 1_556 S
Zn821 O841 1.970 . S
Zn821 O857 1.945 . S
Zn821 O864 1.981 . S
O822 Zn820 1.933 . S
O822 Zn821 1.911 1_554 S
O822 H823 0.841 . S
H823 O822 0.841 . S
C824 O825 1.246 . S
C824 O853 1.276 . S
O825 C824 1.246 . S
Zn826 O828 1.911 1_566 S
Zn826 O843 1.970 . S
Zn826 O860 1.945 1_565 S
Zn826 O867 1.981 . S
Zn827 O828 1.933 1_565 S
Zn827 O842 1.985 . S
Zn827 O849 1.955 1_565 S
O828 Zn826 1.911 1_544 S
O828 Zn827 1.933 1_545 S
O828 H829 0.841 . S
H829 O828 0.841 . S
Zn830 O831 1.933 . S
Zn830 O844 1.985 . S
Zn830 O853 1.955 . S
O831 Zn830 1.933 . S
O831 Zn832 1.911 1_554 S
O831 H833 0.841 . S
Zn832 O831 1.911 1_556 S
Zn832 O845 1.970 . S
Zn832 O861 1.981 . S
Zn832 O863 1.945 . S
H833 O831 0.841 . S
Zn834 O835 1.933 . S
Zn834 O847 1.985 . S
Zn834 O855 1.955 . S
O835 Zn834 1.933 . S
O835 H836 0.841 . S
O835 Zn837 1.911 1_554 S
H836 O835 0.841 . S
Zn837 O835 1.911 1_556 S
Zn837 O848 1.970 . S
Zn837 O858 1.981 1_565 S
Zn837 O866 1.945 . S
C838 O839 1.246 . S
C838 O855 1.276 . S
O839 C838 1.246 . S
O840 Zn820 1.985 . S
O840 C850 1.245 . S
O841 Zn821 1.970 . S
O841 C850 1.263 1_556 S
O842 Zn827 1.985 . S
O842 C854 1.245 . S
O843 Zn826 1.970 . S
O843 C854 1.263 1_556 S
O844 Zn830 1.985 . S
O844 C859 1.245 . S
O845 Zn832 1.970 . S
O845 C859 1.263 1_556 S
C846 O857 1.262 . S
C846 O858 1.245 . S
O847 Zn834 1.985 . S
O847 C865 1.245 . S
O848 Zn837 1.970 . S
O848 C865 1.263 1_556 S
O849 Zn827 1.955 1_545 S
O849 C868 1.276 . S
C850 O840 1.245 . S
C850 O841 1.263 1_554 S
O851 Zn820 1.955 . S
O851 C870 1.276 . S
C852 O860 1.262 . S
C852 O861 1.245 . S
O853 C824 1.276 . S
O853 Zn830 1.955 . S
C854 O842 1.245 . S
C854 O843 1.263 1_554 S
O855 Zn834 1.955 . S
O855 C838 1.276 . S
C856 O863 1.262 . S
C856 O864 1.245 . S
O857 Zn821 1.945 . S
O857 C846 1.262 . S
O858 Zn837 1.981 1_545 S
O858 C846 1.245 . S
C859 O844 1.245 . S
C859 O845 1.263 1_554 S
O860 Zn826 1.945 1_545 S
O860 C852 1.262 . S
O861 Zn832 1.981 . S
O861 C852 1.245 . S
C862 O866 1.262 . S
C862 O867 1.245 . S
O863 Zn832 1.945 . S
O863 C856 1.262 . S
O864 Zn821 1.981 . S
O864 C856 1.245 . S
C865 O847 1.245 . S
C865 O848 1.263 1_554 S
O866 Zn837 1.945 . S
O866 C862 1.262 . S
O867 Zn826 1.981 . S
O867 C862 1.245 . S
C868 O849 1.276 . S
C868 O869 1.246 . S
O869 C868 1.246 . S
C870 O851 1.276 . S
C870 O871 1.246 . S
O871 C870 1.246 . S
Zn872 O874 1.933 1_655 S
Zn872 O892 1.985 . S
Zn872 O903 1.955 1_655 S
Zn873 O874 1.911 1_655 S
Zn873 O893 1.970 . S
Zn873 O909 1.945 . S
Zn873 O916 2.008 . S
O874 Zn872 1.933 1_455 S
O874 Zn873 1.911 1_455 S
O874 H875 0.841 . S
H875 O874 0.841 . S
C876 O877 1.246 1_554 S
C876 O905 1.276 . S
O877 C876 1.246 1_556 S
Zn878 O880 1.911 . S
Zn878 O895 1.970 . S
Zn878 O912 1.945 . S
Zn878 O919 1.981 . S
Zn879 O880 1.933 . S
Zn879 O894 1.985 . S
Zn879 O901 1.955 . S
O880 Zn878 1.911 . S
O880 Zn879 1.933 . S
O880 H881 0.841 . S
H881 O880 0.841 . S
Zn882 O883 1.933 . S
Zn882 O896 1.985 . S
Zn882 O905 1.955 . S
O883 Zn882 1.933 . S
O883 Zn884 1.911 . S
O883 H885 0.841 . S
Zn884 O883 1.911 . S
Zn884 O897 1.970 . S
Zn884 O913 1.981 1_655 S
Zn884 O915 1.945 . S
H885 O883 0.841 . S
Zn886 O887 1.933 . S
Zn886 O899 1.985 . S
Zn886 O907 1.955 . S
O887 Zn886 1.933 . S
O887 H888 0.841 1_556 S
O887 Zn889 1.911 . S
H888 O887 0.841 1_554 S
Zn889 O887 1.911 . S
Zn889 O900 1.970 . S
Zn889 O910 1.981 . S
Zn889 O918 1.945 . S
C890 O891 1.246 . S
C890 O907 1.276 1_554 S
O891 C890 1.246 . S
O892 Zn872 1.985 . S
O892 C902 1.245 . S
O893 Zn873 1.970 . S
O893 C902 1.263 . S
O894 Zn879 1.985 . S
O894 C906 1.245 . S
O895 Zn878 1.970 . S
O895 C906 1.263 . S
O896 Zn882 1.985 . S
O896 C911 1.245 . S
O897 Zn884 1.970 . S
O897 C911 1.263 . S
C898 O909 1.262 1_455 S
C898 O910 1.245 . S
O899 Zn886 1.985 . S
O899 C917 1.245 . S
O900 Zn889 1.970 . S
O900 C917 1.263 . S
O901 Zn879 1.955 . S
O901 C920 1.276 . S
C902 O892 1.245 . S
C902 O893 1.263 . S
O903 Zn872 1.955 1_455 S
O903 C922 1.276 . S
C904 O912 1.262 . S
C904 O913 1.245 . S
O905 C876 1.276 . S
O905 Zn882 1.955 . S
C906 O894 1.245 . S
C906 O895 1.263 . S
O907 Zn886 1.955 . S
O907 C890 1.276 1_556 S
C908 O915 1.262 . S
C908 O916 1.227 1_554 S
O909 Zn873 1.945 . S
O909 C898 1.262 1_655 S
O910 Zn889 1.981 . S
O910 C898 1.245 . S
C911 O896 1.245 . S
C911 O897 1.263 . S
O912 Zn878 1.945 . S
O912 C904 1.262 . S
O913 Zn884 1.981 1_455 S
O913 C904 1.245 . S
C914 O918 1.262 1_554 S
C914 O919 1.245 . S
O915 Zn884 1.945 . S
O915 C908 1.262 . S
O916 Zn873 2.008 . S
O916 C908 1.227 1_556 S
C917 O899 1.245 . S
C917 O900 1.263 . S
O918 Zn889 1.945 . S
O918 C914 1.262 1_556 S
O919 Zn878 1.981 . S
O919 C914 1.245 . S
C920 O901 1.276 . S
C920 O921 1.246 . S
O921 C920 1.246 . S
C922 O903 1.276 . S
C922 O923 1.246 . S
O923 C922 1.246 . S
Zn924 O926 1.933 1_556 S
Zn924 O944 1.985 . S
Zn924 O955 1.955 . S
Zn925 O926 1.911 . S
Zn925 O945 1.970 . S
Zn925 O961 1.945 . S
Zn925 O968 1.981 . S
O926 Zn924 1.933 1_554 S
O926 Zn925 1.911 . S
O926 H927 0.841 . S
H927 O926 0.841 . S
C928 O929 1.246 . S
C928 O957 1.276 . S
O929 C928 1.246 . S
Zn930 O932 1.911 . S
Zn930 O947 1.970 . S
Zn930 O964 1.945 . S
Zn930 O971 1.981 . S
Zn931 O932 1.933 1_556 S
Zn931 O946 1.985 . S
Zn931 O953 1.955 . S
O932 Zn930 1.911 . S
O932 Zn931 1.933 1_554 S
O932 H933 0.841 . S
H933 O932 0.841 . S
Zn934 O935 1.933 1_556 S
Zn934 O948 1.985 . S
Zn934 O957 1.955 . S
O935 Zn934 1.933 1_554 S
O935 Zn936 1.911 . S
O935 H937 0.841 . S
Zn936 O935 1.911 . S
Zn936 O949 1.970 . S
Zn936 O965 1.981 . S
Zn936 O967 1.945 . S
H937 O935 0.841 . S
Zn938 O939 1.933 1_556 S
Zn938 O951 1.985 . S
Zn938 O959 1.955 . S
O939 Zn938 1.933 1_554 S
O939 H940 0.841 . S
O939 Zn941 1.911 . S
H940 O939 0.841 . S
Zn941 O939 1.911 . S
Zn941 O952 1.970 . S
Zn941 O962 1.981 . S
Zn941 O970 1.945 . S
C942 O943 1.246 . S
C942 O959 1.276 . S
O943 C942 1.246 . S
O944 Zn924 1.985 . S
O944 C954 1.245 1_556 S
O945 Zn925 1.970 . S
O945 C954 1.263 . S
O946 Zn931 1.985 . S
O946 C958 1.245 1_556 S
O947 Zn930 1.970 . S
O947 C958 1.263 . S
O948 Zn934 1.985 . S
O948 C963 1.245 1_556 S
O949 Zn936 1.970 . S
O949 C963 1.263 . S
C950 O961 1.262 . S
C950 O962 1.245 . S
O951 Zn938 1.985 . S
O951 C969 1.245 1_556 S
O952 Zn941 1.970 . S
O952 C969 1.263 . S
O953 Zn931 1.955 . S
O953 C972 1.276 . S
C954 O944 1.245 1_554 S
C954 O945 1.263 . S
O955 Zn924 1.955 . S
O955 C974 1.276 . S
C956 O964 1.262 . S
C956 O965 1.245 . S
O957 C928 1.276 . S
O957 Zn934 1.955 . S
C958 O946 1.245 1_554 S
C958 O947 1.263 . S
O959 Zn938 1.955 . S
O959 C942 1.276 . S
C960 O967 1.262 . S
C960 O968 1.245 . S
O961 Zn925 1.945 . S
O961 C950 1.262 . S
O962 Zn941 1.981 . S
O962 C950 1.245 . S
C963 O948 1.245 1_554 S
C963 O949 1.263 . S
O964 Zn930 1.945 . S
O964 C956 1.262 . S
O965 Zn936 1.981 . S
O965 C956 1.245 . S
C966 O970 1.262 . S
C966 O971 1.245 . S
O967 Zn936 1.945 . S
O967 C960 1.262 . S
O968 Zn925 1.981 . S
O968 C960 1.245 . S
C969 O951 1.245 1_554 S
C969 O952 1.263 . S
O970 Zn941 1.945 . S
O970 C966 1.262 . S
O971 Zn930 1.981 . S
O971 C966 1.245 . S
C972 O953 1.276 . S
C972 O973 1.246 . S
O973 C972 1.246 . S
C974 O955 1.276 . S
C974 O975 1.246 . S
O975 C974 1.246 . S
Zn976 O978 1.933 1_655 S
Zn976 O996 1.985 . S
Zn976 O1007 1.955 1_655 S
Zn977 O978 1.911 1_655 S
Zn977 O997 1.970 . S
Zn977 O1013 1.945 1_655 S
Zn977 O1020 1.981 . S
O978 Zn976 1.933 1_455 S
O978 Zn977 1.911 1_455 S
O978 H979 0.841 . S
H979 O978 0.841 . S
C980 O981 1.246 . S
C980 O1009 1.276 . S
O981 C980 1.246 . S
Zn982 O984 1.911 . S
Zn982 O999 1.970 . S
Zn982 O1016 1.945 . S
Zn982 O1023 1.981 . S
Zn983 O984 1.933 . S
Zn983 O998 1.985 . S
Zn983 O1005 1.955 . S
O984 Zn982 1.911 . S
O984 Zn983 1.933 . S
O984 H985 0.841 . S
H985 O984 0.841 . S
Zn986 O987 1.933 . S
Zn986 O1000 1.985 . S
Zn986 O1009 1.955 . S
O987 Zn986 1.933 . S
O987 Zn988 1.911 . S
O987 H989 0.841 . S
Zn988 O987 1.911 . S
Zn988 O1001 1.970 . S
Zn988 O1017 1.981 1_655 S
Zn988 O1019 1.945 . S
H989 O987 0.841 . S
Zn990 O991 1.933 . S
Zn990 O1003 1.985 . S
Zn990 O1011 1.955 . S
O991 Zn990 1.933 . S
O991 H992 0.841 . S
O991 Zn993 1.911 . S
H992 O991 0.841 . S
Zn993 O991 1.911 . S
Zn993 O1004 1.970 . S
Zn993 O1014 1.981 . S
Zn993 O1022 1.945 . S
C994 O995 1.246 . S
C994 O1011 1.276 . S
O995 C994 1.246 . S
O996 Zn976 1.985 . S
O996 C1006 1.245 . S
O997 Zn977 1.970 . S
O997 C1006 1.263 . S
O998 Zn983 1.985 . S
O998 C1010 1.245 . S
O999 Zn982 1.970 . S
O999 C1010 1.263 . S
O1000 Zn986 1.985 . S
O1000 C1015 1.245 . S
O1001 Zn988 1.970 . S
O1001 C1015 1.263 . S
C1002 O1013 1.262 . S
C1002 O1014 1.245 . S
O1003 Zn990 1.985 . S
O1003 C1021 1.245 . S
O1004 Zn993 1.970 . S
O1004 C1021 1.263 . S
O1005 Zn983 1.955 . S
O1005 C1024 1.276 . S
C1006 O996 1.245 . S
C1006 O997 1.263 . S
O1007 Zn976 1.955 1_455 S
O1007 C1026 1.276 . S
C1008 O1016 1.262 . S
C1008 O1017 1.245 . S
O1009 C980 1.276 . S
O1009 Zn986 1.955 . S
C1010 O998 1.245 . S
C1010 O999 1.263 . S
O1011 Zn990 1.955 . S
O1011 C994 1.276 . S
C1012 O1019 1.262 . S
C1012 O1020 1.245 . S
O1013 Zn977 1.945 1_455 S
O1013 C1002 1.262 . S
O1014 Zn993 1.981 . S
O1014 C1002 1.245 . S
C1015 O1000 1.245 . S
C1015 O1001 1.263 . S
O1016 Zn982 1.945 . S
O1016 C1008 1.262 . S
O1017 Zn988 1.981 1_455 S
O1017 C1008 1.245 . S
C1018 O1022 1.262 . S
C1018 O1023 1.245 . S
O1019 Zn988 1.945 . S
O1019 C1012 1.262 . S
O1020 Zn977 1.981 . S
O1020 C1012 1.245 . S
C1021 O1003 1.245 . S
C1021 O1004 1.263 . S
O1022 Zn993 1.945 . S
O1022 C1018 1.262 . S
O1023 Zn982 1.981 . S
O1023 C1018 1.245 . S
C1024 O1005 1.276 . S
C1024 O1025 1.246 . S
O1025 C1024 1.246 . S
C1026 O1007 1.276 . S
C1026 O1027 1.246 . S
O1027 C1026 1.246 . S
Zn1028 O1030 1.933 1_565 S
Zn1028 O1048 1.985 1_565 S
Zn1028 O1059 1.955 . S
Zn1029 O1030 1.911 . S
Zn1029 O1049 1.970 . S
Zn1029 O1065 1.945 . S
Zn1029 O1072 1.981 . S
O1030 Zn1028 1.933 1_545 S
O1030 Zn1029 1.911 . S
O1030 H1031 0.841 . S
H1031 O1030 0.841 . S
C1032 O1033 1.246 . S
C1032 O1061 1.276 . S
O1033 C1032 1.246 . S
Zn1034 O1036 1.911 . S
Zn1034 O1051 1.970 . S
Zn1034 O1068 1.945 . S
Zn1034 O1075 1.981 . S
Zn1035 O1036 1.933 1_565 S
Zn1035 O1050 1.985 1_565 S
Zn1035 O1057 1.955 . S
O1036 Zn1034 1.911 . S
O1036 Zn1035 1.933 1_545 S
O1036 H1037 0.841 . S
H1037 O1036 0.841 . S
Zn1038 O1039 1.933 1_565 S
Zn1038 O1052 1.985 1_565 S
Zn1038 O1061 1.955 . S
O1039 Zn1038 1.933 1_545 S
O1039 Zn1040 1.911 . S
O1039 H1041 0.841 . S
Zn1040 O1039 1.911 . S
Zn1040 O1053 1.970 . S
Zn1040 O1069 1.981 . S
Zn1040 O1071 1.945 . S
H1041 O1039 0.841 . S
Zn1042 O1043 1.933 1_565 S
Zn1042 O1055 1.985 1_565 S
Zn1042 O1063 1.955 . S
O1043 Zn1042 1.933 1_545 S
O1043 H1044 0.841 . S
O1043 Zn1045 1.911 . S
H1044 O1043 0.841 . S
Zn1045 O1043 1.911 . S
Zn1045 O1056 1.970 . S
Zn1045 O1066 1.981 . S
Zn1045 O1074 1.945 . S
C1046 O1047 1.246 . S
C1046 O1063 1.276 . S
O1047 C1046 1.246 . S
O1048 Zn1028 1.985 1_545 S
O1048 C1058 1.245 . S
O1049 Zn1029 1.970 . S
O1049 C1058 1.263 . S
O1050 Zn1035 1.985 1_545 S
O1050 C1062 1.245 . S
O1051 Zn1034 1.970 . S
O1051 C1062 1.263 . S
O1052 Zn1038 1.985 1_545 S
O1052 C1067 1.245 . S
O1053 Zn1040 1.970 . S
O1053 C1067 1.263 . S
C1054 O1065 1.262 . S
C1054 O1066 1.245 . S
O1055 Zn1042 1.985 1_545 S
O1055 C1073 1.245 . S
O1056 Zn1045 1.970 . S
O1056 C1073 1.263 . S
O1057 Zn1035 1.955 . S
O1057 C1076 1.276 . S
C1058 O1048 1.245 . S
C1058 O1049 1.263 . S
O1059 Zn1028 1.955 . S
O1059 C1078 1.276 . S
C1060 O1068 1.262 . S
C1060 O1069 1.245 . S
O1061 C1032 1.276 . S
O1061 Zn1038 1.955 . S
C1062 O1050 1.245 . S
C1062 O1051 1.263 . S
O1063 Zn1042 1.955 . S
O1063 C1046 1.276 . S
C1064 O1071 1.262 . S
C1064 O1072 1.245 . S
O1065 Zn1029 1.945 . S
O1065 C1054 1.262 . S
O1066 Zn1045 1.981 . S
O1066 C1054 1.245 . S
C1067 O1052 1.245 . S
C1067 O1053 1.263 . S
O1068 Zn1034 1.945 . S
O1068 C1060 1.262 . S
O1069 Zn1040 1.981 . S
O1069 C1060 1.245 . S
C1070 O1074 1.262 . S
C1070 O1075 1.245 . S
O1071 Zn1040 1.945 . S
O1071 C1064 1.262 . S
O1072 Zn1029 1.981 . S
O1072 C1064 1.245 . S
C1073 O1055 1.245 . S
C1073 O1056 1.263 . S
O1074 Zn1045 1.945 . S
O1074 C1070 1.262 . S
O1075 Zn1034 1.981 . S
O1075 C1070 1.245 . S
C1076 O1057 1.276 . S
C1076 O1077 1.246 . S
O1077 C1076 1.246 . S
C1078 O1059 1.276 . S
C1078 O1079 1.246 . S
O1079 C1078 1.246 . S
H1080 C1098 0.951 . S
H1081 C1100 0.951 . S
H1082 C1102 0.950 . S
H1083 C1103 0.950 . S
H1084 C1105 0.950 . S
H1085 C1108 0.950 . S
H1086 C1109 0.950 . S
H1087 C1111 0.950 . S
H1088 C1112 0.950 . S
H1089 C1113 0.951 . S
H1090 C1115 0.951 . S
H1091 C1117 0.950 . S
H1092 C1118 0.950 . S
H1093 C1120 0.950 . S
H1094 C1123 0.950 . S
H1095 C1124 0.950 . S
H1096 C1126 0.950 . S
H1097 C1127 0.950 . S
C1098 H1080 0.951 . S
C1098 C1099 1.366 . S
C1098 C1100 1.388 . S
C1099 C1098 1.366 . S
C1099 C1103 1.385 . S
C1100 H1081 0.951 . S
C1100 C1098 1.388 . S
C1100 C1101 1.366 . S
C1101 C1100 1.366 . S
C1101 C1102 1.414 . S
C1101 C1104 1.499 . S
C1102 H1082 0.950 . S
C1102 C1101 1.414 . S
C1102 C1103 1.374 . S
C1103 H1083 0.950 . S
C1103 C1099 1.385 . S
C1103 C1102 1.374 . S
C1104 C1101 1.499 . S
C1104 C1105 1.373 . S
C1104 C1106 1.389 . S
C1105 H1084 0.950 . S
C1105 C1104 1.373 . S
C1105 C1121 1.377 . S
C1106 C1104 1.389 . S
C1106 C1107 1.524 . S
C1106 C1120 1.377 . S
C1107 C1106 1.524 . S
C1107 C1108 1.397 . S
C1107 C1112 1.363 . S
C1108 H1085 0.950 . S
C1108 C1107 1.397 . S
C1108 C1109 1.334 . S
C1109 H1086 0.950 . S
C1109 C1108 1.334 . S
C1109 C1110 1.287 . S
C1110 C1109 1.287 . S
C1110 C1111 1.524 . S
C1110 H1129 0.913 . S
C1111 H1087 0.950 . S
C1111 C1110 1.524 . S
C1111 C1112 1.415 . S
C1112 H1088 0.950 . S
C1112 C1107 1.363 . S
C1112 C1111 1.415 . S
C1113 H1089 0.951 . S
C1113 C1114 1.366 . S
C1113 C1115 1.388 . S
C1114 C1113 1.366 . S
C1114 C1118 1.385 . S
C1115 H1090 0.951 . S
C1115 C1113 1.388 . S
C1115 C1116 1.366 . S
C1116 C1115 1.366 . S
C1116 C1117 1.414 . S
C1116 C1119 1.499 . S
C1117 H1091 0.950 . S
C1117 C1116 1.414 . S
C1117 C1118 1.374 . S
C1118 H1092 0.950 . S
C1118 C1114 1.385 . S
C1118 C1117 1.374 . S
C1119 C1116 1.499 . S
C1119 C1120 1.373 . S
C1119 C1121 1.389 . S
C1120 H1093 0.950 . S
C1120 C1106 1.377 . S
C1120 C1119 1.373 . S
C1121 C1105 1.377 . S
C1121 C1119 1.389 . S
C1121 C1122 1.524 . S
C1122 C1121 1.524 . S
C1122 C1123 1.397 . S
C1122 C1127 1.363 . S
C1123 H1094 0.950 . S
C1123 C1122 1.397 . S
C1123 C1124 1.334 . S
C1124 H1095 0.950 . S
C1124 C1123 1.334 . S
C1124 C1125 1.287 . S
C1125 C1124 1.287 . S
C1125 C1126 1.524 . S
C1125 H1128 0.999 . S
C1126 H1096 0.950 . S
C1126 C1125 1.524 . S
C1126 C1127 1.415 . S
C1127 H1097 0.950 . S
C1127 C1122 1.363 . S
C1127 C1126 1.415 . S
H1128 C1125 0.999 . S
H1129 C1110 0.913 . S
H1130 C1148 0.951 . S
H1131 C1150 0.951 . S
H1132 C1152 0.950 . S
H1133 C1153 0.950 . S
H1134 C1155 0.950 . S
H1135 C1158 0.950 . S
H1136 C1159 0.950 . S
H1137 C1161 0.950 . S
H1138 C1162 0.950 . S
H1139 C1163 0.951 . S
H1140 C1165 0.951 . S
H1141 C1167 0.950 . S
H1142 C1168 0.950 . S
H1143 C1170 0.950 . S
H1144 C1173 0.950 . S
H1145 C1174 0.950 . S
H1146 C1176 0.950 . S
H1147 C1177 0.950 . S
C1148 H1130 0.951 . S
C1148 C1149 1.366 . S
C1148 C1150 1.388 . S
C1149 C1148 1.366 . S
C1149 C1153 1.385 . S
C1150 H1131 0.951 . S
C1150 C1148 1.388 . S
C1150 C1151 1.366 . S
C1151 C1150 1.366 . S
C1151 C1152 1.414 . S
C1151 C1154 1.499 . S
C1152 H1132 0.950 . S
C1152 C1151 1.414 . S
C1152 C1153 1.374 . S
C1153 H1133 0.950 . S
C1153 C1149 1.385 . S
C1153 C1152 1.374 . S
C1154 C1151 1.499 . S
C1154 C1155 1.373 . S
C1154 C1156 1.389 . S
C1155 H1134 0.950 . S
C1155 C1154 1.373 . S
C1155 C1171 1.377 . S
C1156 C1154 1.389 . S
C1156 C1157 1.524 . S
C1156 C1170 1.377 . S
C1157 C1156 1.524 . S
C1157 C1158 1.397 . S
C1157 C1162 1.363 . S
C1158 H1135 0.950 . S
C1158 C1157 1.397 . S
C1158 C1159 1.334 . S
C1159 H1136 0.950 . S
C1159 C1158 1.334 . S
C1159 C1160 1.287 . S
C1160 C1159 1.287 . S
C1160 C1161 1.524 . S
C1160 H1179 0.913 . S
C1161 H1137 0.950 . S
C1161 C1160 1.524 . S
C1161 C1162 1.415 . S
C1162 H1138 0.950 . S
C1162 C1157 1.363 . S
C1162 C1161 1.415 . S
C1163 H1139 0.951 . S
C1163 C1164 1.366 . S
C1163 C1165 1.388 . S
C1164 C1163 1.366 . S
C1164 C1168 1.385 . S
C1165 H1140 0.951 . S
C1165 C1163 1.388 . S
C1165 C1166 1.366 . S
C1166 C1165 1.366 . S
C1166 C1167 1.414 . S
C1166 C1169 1.499 . S
C1167 H1141 0.950 . S
C1167 C1166 1.414 . S
C1167 C1168 1.374 . S
C1168 H1142 0.950 . S
C1168 C1164 1.385 . S
C1168 C1167 1.374 . S
C1169 C1166 1.499 . S
C1169 C1170 1.373 . S
C1169 C1171 1.389 . S
C1170 H1143 0.950 . S
C1170 C1156 1.377 . S
C1170 C1169 1.373 . S
C1171 C1155 1.377 . S
C1171 C1169 1.389 . S
C1171 C1172 1.524 . S
C1172 C1171 1.524 . S
C1172 C1173 1.397 . S
C1172 C1177 1.363 . S
C1173 H1144 0.950 . S
C1173 C1172 1.397 . S
C1173 C1174 1.334 . S
C1174 H1145 0.950 . S
C1174 C1173 1.334 . S
C1174 C1175 1.287 . S
C1175 C1174 1.287 . S
C1175 C1176 1.524 . S
C1175 H1178 0.999 . S
C1176 H1146 0.950 . S
C1176 C1175 1.524 . S
C1176 C1177 1.415 . S
C1177 H1147 0.950 . S
C1177 C1172 1.363 . S
C1177 C1176 1.415 . S
H1178 C1175 0.999 . S
H1179 C1160 0.913 . S
H1180 C1198 0.951 . S
H1181 C1200 0.951 . S
H1182 C1202 0.950 . S
H1183 C1203 0.950 . S
H1184 C1205 0.950 . S
H1185 C1208 0.950 . S
H1186 C1209 0.950 . S
H1187 C1211 0.950 . S
H1188 C1212 0.950 . S
H1189 C1213 0.951 . S
H1190 C1215 0.951 . S
H1191 C1217 0.950 . S
H1192 C1218 0.950 . S
H1193 C1220 0.950 . S
H1194 C1223 0.950 . S
H1195 C1224 0.950 . S
H1196 C1226 0.950 . S
H1197 C1227 0.950 . S
C1198 H1180 0.951 . S
C1198 C1199 1.366 . S
C1198 C1200 1.388 . S
C1199 C1198 1.366 . S
C1199 C1203 1.385 . S
C1200 H1181 0.951 . S
C1200 C1198 1.388 . S
C1200 C1201 1.366 . S
C1201 C1200 1.366 . S
C1201 C1202 1.414 . S
C1201 C1204 1.499 . S
C1202 H1182 0.950 . S
C1202 C1201 1.414 . S
C1202 C1203 1.374 . S
C1203 H1183 0.950 . S
C1203 C1199 1.385 . S
C1203 C1202 1.374 . S
C1204 C1201 1.499 . S
C1204 C1205 1.373 . S
C1204 C1206 1.389 . S
C1205 H1184 0.950 . S
C1205 C1204 1.373 . S
C1205 C1221 1.377 . S
C1206 C1204 1.389 . S
C1206 C1207 1.524 . S
C1206 C1220 1.377 . S
C1207 C1206 1.524 . S
C1207 C1208 1.397 . S
C1207 C1212 1.363 . S
C1208 H1185 0.950 . S
C1208 C1207 1.397 . S
C1208 C1209 1.334 . S
C1209 H1186 0.950 . S
C1209 C1208 1.334 . S
C1209 C1210 1.287 . S
C1210 C1209 1.287 . S
C1210 C1211 1.524 . S
C1210 H1229 0.913 . S
C1211 H1187 0.950 . S
C1211 C1210 1.524 . S
C1211 C1212 1.415 . S
C1212 H1188 0.950 . S
C1212 C1207 1.363 . S
C1212 C1211 1.415 . S
C1213 H1189 0.951 . S
C1213 C1214 1.366 . S
C1213 C1215 1.388 . S
C1214 C1213 1.366 . S
C1214 C1218 1.385 . S
C1215 H1190 0.951 . S
C1215 C1213 1.388 . S
C1215 C1216 1.366 . S
C1216 C1215 1.366 . S
C1216 C1217 1.414 . S
C1216 C1219 1.499 . S
C1217 H1191 0.950 . S
C1217 C1216 1.414 . S
C1217 C1218 1.374 . S
C1218 H1192 0.950 . S
C1218 C1214 1.385 . S
C1218 C1217 1.374 . S
C1219 C1216 1.499 . S
C1219 C1220 1.373 . S
C1219 C1221 1.389 . S
C1220 H1193 0.950 . S
C1220 C1206 1.377 . S
C1220 C1219 1.373 . S
C1221 C1205 1.377 . S
C1221 C1219 1.389 . S
C1221 C1222 1.524 . S
C1222 C1221 1.524 . S
C1222 C1223 1.397 . S
C1222 C1227 1.363 . S
C1223 H1194 0.950 . S
C1223 C1222 1.397 . S
C1223 C1224 1.334 . S
C1224 H1195 0.950 . S
C1224 C1223 1.334 . S
C1224 C1225 1.287 . S
C1225 C1224 1.287 . S
C1225 C1226 1.524 . S
C1225 H1228 0.999 . S
C1226 H1196 0.950 . S
C1226 C1225 1.524 . S
C1226 C1227 1.415 . S
C1227 H1197 0.950 . S
C1227 C1222 1.363 . S
C1227 C1226 1.415 . S
H1228 C1225 0.999 . S
H1229 C1210 0.913 . S
H1230 C1248 0.951 . S
H1231 C1250 0.951 . S
H1232 C1252 0.950 . S
H1233 C1253 0.950 . S
H1234 C1255 0.950 . S
H1235 C1258 0.950 . S
H1236 C1259 0.950 . S
H1237 C1261 0.950 . S
H1238 C1262 0.950 . S
H1239 C1263 0.951 . S
H1240 C1265 0.951 . S
H1241 C1267 0.950 . S
H1242 C1268 0.950 . S
H1243 C1270 0.950 . S
H1244 C1273 0.950 . S
H1245 C1274 0.950 . S
H1246 C1276 0.950 . S
H1247 C1277 0.950 . S
C1248 H1230 0.951 . S
C1248 C1249 1.366 . S
C1248 C1250 1.388 . S
C1249 C1248 1.366 . S
C1249 C1253 1.385 . S
C1250 H1231 0.951 . S
C1250 C1248 1.388 . S
C1250 C1251 1.366 . S
C1251 C1250 1.366 . S
C1251 C1252 1.414 . S
C1251 C1254 1.499 . S
C1252 H1232 0.950 . S
C1252 C1251 1.414 . S
C1252 C1253 1.374 . S
C1253 H1233 0.950 . S
C1253 C1249 1.385 . S
C1253 C1252 1.374 . S
C1254 C1251 1.499 . S
C1254 C1255 1.373 . S
C1254 C1256 1.389 . S
C1255 H1234 0.950 . S
C1255 C1254 1.373 . S
C1255 C1271 1.377 . S
C1256 C1254 1.389 . S
C1256 C1257 1.524 . S
C1256 C1270 1.377 . S
C1257 C1256 1.524 . S
C1257 C1258 1.397 . S
C1257 C1262 1.363 . S
C1258 H1235 0.950 . S
C1258 C1257 1.397 . S
C1258 C1259 1.334 . S
C1259 H1236 0.950 . S
C1259 C1258 1.334 . S
C1259 C1260 1.287 . S
C1260 C1259 1.287 . S
C1260 C1261 1.524 . S
C1260 H1279 0.913 . S
C1261 H1237 0.950 . S
C1261 C1260 1.524 . S
C1261 C1262 1.415 . S
C1262 H1238 0.950 . S
C1262 C1257 1.363 . S
C1262 C1261 1.415 . S
C1263 H1239 0.951 . S
C1263 C1264 1.366 . S
C1263 C1265 1.388 . S
C1264 C1263 1.366 . S
C1264 C1268 1.385 . S
C1265 H1240 0.951 . S
C1265 C1263 1.388 . S
C1265 C1266 1.366 . S
C1266 C1265 1.366 . S
C1266 C1267 1.414 . S
C1266 C1269 1.499 . S
C1267 H1241 0.950 . S
C1267 C1266 1.414 . S
C1267 C1268 1.374 . S
C1268 H1242 0.950 . S
C1268 C1264 1.385 . S
C1268 C1267 1.374 . S
C1269 C1266 1.499 . S
C1269 C1270 1.373 . S
C1269 C1271 1.389 . S
C1270 H1243 0.950 . S
C1270 C1256 1.377 . S
C1270 C1269 1.373 . S
C1271 C1255 1.377 . S
C1271 C1269 1.389 . S
C1271 C1272 1.524 . S
C1272 C1271 1.524 . S
C1272 C1273 1.397 . S
C1272 C1277 1.363 . S
C1273 H1244 0.950 . S
C1273 C1272 1.397 . S
C1273 C1274 1.334 . S
C1274 H1245 0.950 . S
C1274 C1273 1.334 . S
C1274 C1275 1.287 . S
C1275 C1274 1.287 . S
C1275 C1276 1.524 . S
C1275 H1278 0.999 . S
C1276 H1246 0.950 . S
C1276 C1275 1.524 . S
C1276 C1277 1.415 . S
C1277 H1247 0.950 . S
C1277 C1272 1.363 . S
C1277 C1276 1.415 . S
H1278 C1275 0.999 . S
H1279 C1260 0.913 . S
H1280 C1298 0.951 . S
H1281 C1300 0.951 . S
H1282 C1302 0.950 . S
H1283 C1303 0.950 . S
H1284 C1305 0.950 . S
H1285 C1308 0.950 . S
H1286 C1309 0.950 . S
H1287 C1311 0.950 . S
H1288 C1312 0.950 . S
H1289 C1313 0.951 . S
H1290 C1315 0.951 . S
H1291 C1317 0.950 . S
H1292 C1318 0.950 . S
H1293 C1320 0.950 . S
H1294 C1323 0.950 . S
H1295 C1324 0.950 . S
H1296 C1326 0.950 . S
H1297 C1327 0.950 . S
C1298 H1280 0.951 . S
C1298 C1299 1.366 . S
C1298 C1300 1.388 . S
C1299 C1298 1.366 . S
C1299 C1303 1.385 . S
C1300 H1281 0.951 . S
C1300 C1298 1.388 . S
C1300 C1301 1.366 . S
C1301 C1300 1.366 . S
C1301 C1302 1.414 . S
C1301 C1304 1.499 . S
C1302 H1282 0.950 . S
C1302 C1301 1.414 . S
C1302 C1303 1.374 . S
C1303 H1283 0.950 . S
C1303 C1299 1.385 . S
C1303 C1302 1.374 . S
C1304 C1301 1.499 . S
C1304 C1305 1.373 . S
C1304 C1306 1.389 . S
C1305 H1284 0.950 . S
C1305 C1304 1.373 . S
C1305 C1321 1.377 . S
C1306 C1304 1.389 . S
C1306 C1307 1.524 . S
C1306 C1320 1.377 . S
C1307 C1306 1.524 . S
C1307 C1308 1.397 . S
C1307 C1312 1.363 . S
C1308 H1285 0.950 . S
C1308 C1307 1.397 . S
C1308 C1309 1.334 . S
C1309 H1286 0.950 . S
C1309 C1308 1.334 . S
C1309 C1310 1.287 . S
C1310 C1309 1.287 . S
C1310 C1311 1.524 . S
C1310 H1329 0.913 . S
C1311 H1287 0.950 . S
C1311 C1310 1.524 . S
C1311 C1312 1.415 . S
C1312 H1288 0.950 . S
C1312 C1307 1.363 . S
C1312 C1311 1.415 . S
C1313 H1289 0.951 . S
C1313 C1314 1.366 . S
C1313 C1315 1.388 . S
C1314 C1313 1.366 . S
C1314 C1318 1.385 . S
C1315 H1290 0.951 . S
C1315 C1313 1.388 . S
C1315 C1316 1.366 . S
C1316 C1315 1.366 . S
C1316 C1317 1.414 . S
C1316 C1319 1.499 . S
C1317 H1291 0.950 . S
C1317 C1316 1.414 . S
C1317 C1318 1.374 . S
C1318 H1292 0.950 . S
C1318 C1314 1.385 . S
C1318 C1317 1.374 . S
C1319 C1316 1.499 . S
C1319 C1320 1.373 . S
C1319 C1321 1.389 . S
C1320 H1293 0.950 . S
C1320 C1306 1.377 . S
C1320 C1319 1.373 . S
C1321 C1305 1.377 . S
C1321 C1319 1.389 . S
C1321 C1322 1.524 . S
C1322 C1321 1.524 . S
C1322 C1323 1.397 . S
C1322 C1327 1.363 . S
C1323 H1294 0.950 . S
C1323 C1322 1.397 . S
C1323 C1324 1.334 . S
C1324 H1295 0.950 . S
C1324 C1323 1.334 . S
C1324 C1325 1.287 . S
C1325 C1324 1.287 . S
C1325 C1326 1.524 . S
C1325 H1328 0.999 . S
C1326 H1296 0.950 . S
C1326 C1325 1.524 . S
C1326 C1327 1.415 . S
C1327 H1297 0.950 . S
C1327 C1322 1.363 . S
C1327 C1326 1.415 . S
H1328 C1325 0.999 . S
H1329 C1310 0.913 . S
H1330 C1348 0.951 . S
H1331 C1350 0.951 . S
H1332 C1352 0.950 . S
H1333 C1353 0.950 . S
H1334 C1355 0.950 . S
H1335 C1358 0.950 . S
H1336 C1359 0.950 . S
H1337 C1361 0.950 . S
H1338 C1362 0.950 . S
H1339 C1363 0.951 . S
H1340 C1365 0.951 . S
H1341 C1367 0.950 . S
H1342 C1368 0.950 . S
H1343 C1370 0.950 . S
H1344 C1373 0.950 . S
H1345 C1374 0.950 . S
H1346 C1376 0.950 . S
H1347 C1377 0.950 . S
C1348 H1330 0.951 . S
C1348 C1349 1.366 . S
C1348 C1350 1.388 . S
C1349 C1348 1.366 . S
C1349 C1353 1.385 . S
C1350 H1331 0.951 . S
C1350 C1348 1.388 . S
C1350 C1351 1.366 . S
C1351 C1350 1.366 . S
C1351 C1352 1.414 . S
C1351 C1354 1.499 . S
C1352 H1332 0.950 . S
C1352 C1351 1.414 . S
C1352 C1353 1.374 . S
C1353 H1333 0.950 . S
C1353 C1349 1.385 . S
C1353 C1352 1.374 . S
C1354 C1351 1.499 . S
C1354 C1355 1.373 . S
C1354 C1356 1.389 . S
C1355 H1334 0.950 . S
C1355 C1354 1.373 . S
C1355 C1371 1.377 . S
C1356 C1354 1.389 . S
C1356 C1357 1.524 . S
C1356 C1370 1.377 . S
C1357 C1356 1.524 . S
C1357 C1358 1.397 . S
C1357 C1362 1.363 . S
C1358 H1335 0.950 . S
C1358 C1357 1.397 . S
C1358 C1359 1.334 . S
C1359 H1336 0.950 . S
C1359 C1358 1.334 . S
C1359 C1360 1.287 . S
C1360 C1359 1.287 . S
C1360 C1361 1.524 . S
C1360 H1379 0.913 . S
C1361 H1337 0.950 . S
C1361 C1360 1.524 . S
C1361 C1362 1.415 . S
C1362 H1338 0.950 . S
C1362 C1357 1.363 . S
C1362 C1361 1.415 . S
C1363 H1339 0.951 . S
C1363 C1364 1.366 . S
C1363 C1365 1.388 . S
C1364 C1363 1.366 . S
C1364 C1368 1.385 . S
C1365 H1340 0.951 . S
C1365 C1363 1.388 . S
C1365 C1366 1.366 . S
C1366 C1365 1.366 . S
C1366 C1367 1.414 . S
C1366 C1369 1.499 . S
C1367 H1341 0.950 . S
C1367 C1366 1.414 . S
C1367 C1368 1.374 . S
C1368 H1342 0.950 . S
C1368 C1364 1.385 . S
C1368 C1367 1.374 . S
C1369 C1366 1.499 . S
C1369 C1370 1.373 . S
C1369 C1371 1.389 . S
C1370 H1343 0.950 . S
C1370 C1356 1.377 . S
C1370 C1369 1.373 . S
C1371 C1355 1.377 . S
C1371 C1369 1.389 . S
C1371 C1372 1.524 . S
C1372 C1371 1.524 . S
C1372 C1373 1.397 . S
C1372 C1377 1.363 . S
C1373 H1344 0.950 . S
C1373 C1372 1.397 . S
C1373 C1374 1.334 . S
C1374 H1345 0.950 . S
C1374 C1373 1.334 . S
C1374 C1375 1.287 . S
C1375 C1374 1.287 . S
C1375 C1376 1.524 . S
C1375 H1378 0.999 . S
C1376 H1346 0.950 . S
C1376 C1375 1.524 . S
C1376 C1377 1.415 . S
C1377 H1347 0.950 . S
C1377 C1372 1.363 . S
C1377 C1376 1.415 . S
H1378 C1375 0.999 . S
H1379 C1360 0.913 . S
H1380 C1398 0.951 . S
H1381 C1400 0.951 . S
H1382 C1402 0.950 . S
H1383 C1403 0.950 . S
H1384 C1405 0.950 . S
H1385 C1408 0.950 . S
H1386 C1409 0.950 . S
H1387 C1411 0.950 . S
H1388 C1412 0.950 . S
H1389 C1413 0.951 . S
H1390 C1415 0.951 . S
H1391 C1417 0.950 . S
H1392 C1418 0.950 . S
H1393 C1420 0.950 . S
H1394 C1423 0.950 . S
H1395 C1424 0.950 . S
H1396 C1426 0.950 . S
H1397 C1427 0.950 . S
C1398 H1380 0.951 . S
C1398 C1399 1.366 . S
C1398 C1400 1.388 . S
C1399 C1398 1.366 . S
C1399 C1403 1.385 . S
C1400 H1381 0.951 . S
C1400 C1398 1.388 . S
C1400 C1401 1.366 . S
C1401 C1400 1.366 . S
C1401 C1402 1.414 . S
C1401 C1404 1.499 . S
C1402 H1382 0.950 . S
C1402 C1401 1.414 . S
C1402 C1403 1.374 . S
C1403 H1383 0.950 . S
C1403 C1399 1.385 . S
C1403 C1402 1.374 . S
C1404 C1401 1.499 . S
C1404 C1405 1.373 . S
C1404 C1406 1.389 . S
C1405 H1384 0.950 . S
C1405 C1404 1.373 . S
C1405 C1421 1.377 . S
C1406 C1404 1.389 . S
C1406 C1407 1.524 . S
C1406 C1420 1.377 . S
C1407 C1406 1.524 . S
C1407 C1408 1.397 . S
C1407 C1412 1.363 . S
C1408 H1385 0.950 . S
C1408 C1407 1.397 . S
C1408 C1409 1.334 . S
C1409 H1386 0.950 . S
C1409 C1408 1.334 . S
C1409 C1410 1.287 . S
C1410 C1409 1.287 . S
C1410 C1411 1.524 . S
C1410 H1429 0.913 . S
C1411 H1387 0.950 . S
C1411 C1410 1.524 . S
C1411 C1412 1.415 . S
C1412 H1388 0.950 . S
C1412 C1407 1.363 . S
C1412 C1411 1.415 . S
C1413 H1389 0.951 . S
C1413 C1414 1.366 . S
C1413 C1415 1.388 . S
C1414 C1413 1.366 . S
C1414 C1418 1.385 . S
C1415 H1390 0.951 . S
C1415 C1413 1.388 . S
C1415 C1416 1.366 . S
C1416 C1415 1.366 . S
C1416 C1417 1.414 . S
C1416 C1419 1.499 . S
C1417 H1391 0.950 . S
C1417 C1416 1.414 . S
C1417 C1418 1.374 . S
C1418 H1392 0.950 . S
C1418 C1414 1.385 . S
C1418 C1417 1.374 . S
C1419 C1416 1.499 . S
C1419 C1420 1.373 . S
C1419 C1421 1.389 . S
C1420 H1393 0.950 . S
C1420 C1406 1.377 . S
C1420 C1419 1.373 . S
C1421 C1405 1.377 . S
C1421 C1419 1.389 . S
C1421 C1422 1.524 . S
C1422 C1421 1.524 . S
C1422 C1423 1.397 . S
C1422 C1427 1.363 . S
C1423 H1394 0.950 . S
C1423 C1422 1.397 . S
C1423 C1424 1.334 . S
C1424 H1395 0.950 . S
C1424 C1423 1.334 . S
C1424 C1425 1.287 . S
C1425 C1424 1.287 . S
C1425 C1426 1.524 . S
C1425 H1428 0.999 . S
C1426 H1396 0.950 . S
C1426 C1425 1.524 . S
C1426 C1427 1.415 . S
C1427 H1397 0.950 . S
C1427 C1422 1.363 . S
C1427 C1426 1.415 . S
H1428 C1425 0.999 . S
H1429 C1410 0.913 . S
H1430 C1448 0.951 . S
H1431 C1450 0.951 . S
H1432 C1452 0.950 . S
H1433 C1453 0.950 . S
H1434 C1455 0.950 . S
H1435 C1458 0.950 . S
H1436 C1459 0.950 . S
H1437 C1461 0.950 . S
H1438 C1462 0.950 . S
H1439 C1463 0.951 . S
H1440 C1465 0.951 . S
H1441 C1467 0.950 . S
H1442 C1468 0.950 . S
H1443 C1470 0.950 . S
H1444 C1473 0.950 . S
H1445 C1474 0.950 . S
H1446 C1476 0.950 . S
H1447 C1477 0.950 . S
C1448 H1430 0.951 . S
C1448 C1449 1.366 . S
C1448 C1450 1.388 . S
C1449 C1448 1.366 . S
C1449 C1453 1.385 . S
C1450 H1431 0.951 . S
C1450 C1448 1.388 . S
C1450 C1451 1.366 . S
C1451 C1450 1.366 . S
C1451 C1452 1.414 . S
C1451 C1454 1.499 . S
C1452 H1432 0.950 . S
C1452 C1451 1.414 . S
C1452 C1453 1.374 . S
C1453 H1433 0.950 . S
C1453 C1449 1.385 . S
C1453 C1452 1.374 . S
C1454 C1451 1.499 . S
C1454 C1455 1.373 . S
C1454 C1456 1.389 . S
C1455 H1434 0.950 . S
C1455 C1454 1.373 . S
C1455 C1471 1.377 . S
C1456 C1454 1.389 . S
C1456 C1457 1.524 . S
C1456 C1470 1.377 . S
C1457 C1456 1.524 . S
C1457 C1458 1.397 . S
C1457 C1462 1.363 . S
C1458 H1435 0.950 . S
C1458 C1457 1.397 . S
C1458 C1459 1.334 . S
C1459 H1436 0.950 . S
C1459 C1458 1.334 . S
C1459 C1460 1.287 . S
C1460 C1459 1.287 . S
C1460 C1461 1.524 . S
C1460 H1479 0.913 . S
C1461 H1437 0.950 . S
C1461 C1460 1.524 . S
C1461 C1462 1.415 . S
C1462 H1438 0.950 . S
C1462 C1457 1.363 . S
C1462 C1461 1.415 . S
C1463 H1439 0.951 . S
C1463 C1464 1.366 . S
C1463 C1465 1.388 . S
C1464 C1463 1.366 . S
C1464 C1468 1.385 . S
C1465 H1440 0.951 . S
C1465 C1463 1.388 . S
C1465 C1466 1.366 . S
C1466 C1465 1.366 . S
C1466 C1467 1.414 . S
C1466 C1469 1.499 . S
C1467 H1441 0.950 . S
C1467 C1466 1.414 . S
C1467 C1468 1.374 . S
C1468 H1442 0.950 . S
C1468 C1464 1.385 . S
C1468 C1467 1.374 . S
C1469 C1466 1.499 . S
C1469 C1470 1.373 . S
C1469 C1471 1.389 . S
C1470 H1443 0.950 . S
C1470 C1456 1.377 . S
C1470 C1469 1.373 . S
C1471 C1455 1.377 . S
C1471 C1469 1.389 . S
C1471 C1472 1.524 . S
C1472 C1471 1.524 . S
C1472 C1473 1.397 . S
C1472 C1477 1.363 . S
C1473 H1444 0.950 . S
C1473 C1472 1.397 . S
C1473 C1474 1.334 . S
C1474 H1445 0.950 . S
C1474 C1473 1.334 . S
C1474 C1475 1.287 . S
C1475 C1474 1.287 . S
C1475 C1476 1.524 . S
C1475 H1478 0.999 . S
C1476 H1446 0.950 . S
C1476 C1475 1.524 . S
C1476 C1477 1.415 . S
C1477 H1447 0.950 . S
C1477 C1472 1.363 . S
C1477 C1476 1.415 . S
H1478 C1475 0.999 . S
H1479 C1460 0.913 . S
H1480 C1498 0.951 . S
H1481 C1500 0.951 . S
H1482 C1502 0.950 . S
H1483 C1503 0.950 . S
H1484 C1505 0.950 . S
H1485 C1508 0.950 . S
H1486 C1509 0.950 . S
H1487 C1511 0.950 . S
H1488 C1512 0.950 . S
H1489 C1513 0.951 . S
H1490 C1515 0.951 . S
H1491 C1517 0.950 . S
H1492 C1518 0.950 . S
H1493 C1520 0.950 . S
H1494 C1523 0.950 . S
H1495 C1524 0.950 . S
H1496 C1526 0.950 . S
H1497 C1527 0.950 . S
C1498 H1480 0.951 . S
C1498 C1499 1.366 . S
C1498 C1500 1.388 . S
C1499 C1498 1.366 . S
C1499 C1503 1.385 . S
C1500 H1481 0.951 . S
C1500 C1498 1.388 . S
C1500 C1501 1.366 . S
C1501 C1500 1.366 . S
C1501 C1502 1.414 . S
C1501 C1504 1.499 . S
C1502 H1482 0.950 . S
C1502 C1501 1.414 . S
C1502 C1503 1.374 . S
C1503 H1483 0.950 . S
C1503 C1499 1.385 . S
C1503 C1502 1.374 . S
C1504 C1501 1.499 . S
C1504 C1505 1.373 . S
C1504 C1506 1.389 . S
C1505 H1484 0.950 . S
C1505 C1504 1.373 . S
C1505 C1521 1.377 . S
C1506 C1504 1.389 . S
C1506 C1507 1.524 . S
C1506 C1520 1.377 . S
C1507 C1506 1.524 . S
C1507 C1508 1.397 . S
C1507 C1512 1.363 . S
C1508 H1485 0.950 . S
C1508 C1507 1.397 . S
C1508 C1509 1.334 . S
C1509 H1486 0.950 . S
C1509 C1508 1.334 . S
C1509 C1510 1.287 . S
C1510 C1509 1.287 . S
C1510 C1511 1.524 . S
C1510 H1529 0.913 . S
C1511 H1487 0.950 . S
C1511 C1510 1.524 . S
C1511 C1512 1.415 . S
C1512 H1488 0.950 . S
C1512 C1507 1.363 . S
C1512 C1511 1.415 . S
C1513 H1489 0.951 . S
C1513 C1514 1.366 . S
C1513 C1515 1.388 . S
C1514 C1513 1.366 . S
C1514 C1518 1.385 . S
C1515 H1490 0.951 . S
C1515 C1513 1.388 . S
C1515 C1516 1.366 . S
C1516 C1515 1.366 . S
C1516 C1517 1.414 . S
C1516 C1519 1.499 . S
C1517 H1491 0.950 . S
C1517 C1516 1.414 . S
C1517 C1518 1.374 . S
C1518 H1492 0.950 . S
C1518 C1514 1.385 . S
C1518 C1517 1.374 . S
C1519 C1516 1.499 . S
C1519 C1520 1.373 . S
C1519 C1521 1.389 . S
C1520 H1493 0.950 . S
C1520 C1506 1.377 . S
C1520 C1519 1.373 . S
C1521 C1505 1.377 . S
C1521 C1519 1.389 . S
C1521 C1522 1.524 . S
C1522 C1521 1.524 . S
C1522 C1523 1.397 . S
C1522 C1527 1.363 . S
C1523 H1494 0.950 . S
C1523 C1522 1.397 . S
C1523 C1524 1.334 . S
C1524 H1495 0.950 . S
C1524 C1523 1.334 . S
C1524 C1525 1.287 . S
C1525 C1524 1.287 . S
C1525 C1526 1.524 . S
C1525 H1528 0.999 . S
C1526 H1496 0.950 . S
C1526 C1525 1.524 . S
C1526 C1527 1.415 . S
C1527 H1497 0.950 . S
C1527 C1522 1.363 . S
C1527 C1526 1.415 . S
H1528 C1525 0.999 . S
H1529 C1510 0.913 . S
H1530 C1548 0.951 . S
H1531 C1550 0.951 . S
H1532 C1552 0.950 . S
H1533 C1553 0.950 . S
H1534 C1555 0.950 . S
H1535 C1558 0.950 . S
H1536 C1559 0.950 . S
H1537 C1561 0.950 . S
H1538 C1562 0.950 . S
H1539 C1563 0.951 . S
H1540 C1565 0.951 . S
H1541 C1567 0.950 . S
H1542 C1568 0.950 . S
H1543 C1570 0.950 . S
H1544 C1573 0.950 . S
H1545 C1574 0.950 . S
H1546 C1576 0.950 . S
H1547 C1577 0.950 . S
C1548 H1530 0.951 . S
C1548 C1549 1.366 . S
C1548 C1550 1.388 . S
C1549 C1548 1.366 . S
C1549 C1553 1.385 . S
C1550 H1531 0.951 . S
C1550 C1548 1.388 . S
C1550 C1551 1.366 . S
C1551 C1550 1.366 . S
C1551 C1552 1.414 . S
C1551 C1554 1.499 . S
C1552 H1532 0.950 . S
C1552 C1551 1.414 . S
C1552 C1553 1.374 . S
C1553 H1533 0.950 . S
C1553 C1549 1.385 . S
C1553 C1552 1.374 . S
C1554 C1551 1.499 . S
C1554 C1555 1.373 . S
C1554 C1556 1.389 . S
C1555 H1534 0.950 . S
C1555 C1554 1.373 . S
C1555 C1571 1.377 . S
C1556 C1554 1.389 . S
C1556 C1557 1.524 . S
C1556 C1570 1.377 . S
C1557 C1556 1.524 . S
C1557 C1558 1.397 . S
C1557 C1562 1.363 . S
C1558 H1535 0.950 . S
C1558 C1557 1.397 . S
C1558 C1559 1.334 . S
C1559 H1536 0.950 . S
C1559 C1558 1.334 . S
C1559 C1560 1.287 . S
C1560 C1559 1.287 . S
C1560 C1561 1.524 . S
C1560 H1579 0.913 . S
C1561 H1537 0.950 . S
C1561 C1560 1.524 . S
C1561 C1562 1.415 . S
C1562 H1538 0.950 . S
C1562 C1557 1.363 . S
C1562 C1561 1.415 . S
C1563 H1539 0.951 . S
C1563 C1564 1.366 . S
C1563 C1565 1.388 . S
C1564 C1563 1.366 . S
C1564 C1568 1.385 . S
C1565 H1540 0.951 . S
C1565 C1563 1.388 . S
C1565 C1566 1.366 . S
C1566 C1565 1.366 . S
C1566 C1567 1.414 . S
C1566 C1569 1.499 . S
C1567 H1541 0.950 . S
C1567 C1566 1.414 . S
C1567 C1568 1.374 . S
C1568 H1542 0.950 . S
C1568 C1564 1.385 . S
C1568 C1567 1.374 . S
C1569 C1566 1.499 . S
C1569 C1570 1.373 . S
C1569 C1571 1.389 . S
C1570 H1543 0.950 . S
C1570 C1556 1.377 . S
C1570 C1569 1.373 . S
C1571 C1555 1.377 . S
C1571 C1569 1.389 . S
C1571 C1572 1.524 . S
C1572 C1571 1.524 . S
C1572 C1573 1.397 . S
C1572 C1577 1.363 . S
C1573 H1544 0.950 . S
C1573 C1572 1.397 . S
C1573 C1574 1.334 . S
C1574 H1545 0.950 . S
C1574 C1573 1.334 . S
C1574 C1575 1.287 . S
C1575 C1574 1.287 . S
C1575 C1576 1.524 . S
C1575 H1578 0.999 . S
C1576 H1546 0.950 . S
C1576 C1575 1.524 . S
C1576 C1577 1.415 . S
C1577 H1547 0.950 . S
C1577 C1572 1.363 . S
C1577 C1576 1.415 . S
H1578 C1575 0.999 . S
H1579 C1560 0.913 . S
H1580 C1598 0.951 . S
H1581 C1600 0.951 . S
H1582 C1602 0.950 . S
H1583 C1603 0.950 . S
H1584 C1605 0.950 . S
H1585 C1608 0.950 . S
H1586 C1609 0.950 . S
H1587 C1611 0.950 . S
H1588 C1612 0.950 . S
H1589 C1613 0.951 . S
H1590 C1615 0.951 . S
H1591 C1617 0.950 . S
H1592 C1618 0.950 . S
H1593 C1620 0.950 . S
H1594 C1623 0.950 . S
H1595 C1624 0.950 . S
H1596 C1626 0.950 . S
H1597 C1627 0.950 . S
C1598 H1580 0.951 . S
C1598 C1599 1.366 . S
C1598 C1600 1.388 . S
C1599 C1598 1.366 . S
C1599 C1603 1.385 . S
C1600 H1581 0.951 . S
C1600 C1598 1.388 . S
C1600 C1601 1.366 . S
C1601 C1600 1.366 . S
C1601 C1602 1.414 . S
C1601 C1604 1.499 . S
C1602 H1582 0.950 . S
C1602 C1601 1.414 . S
C1602 C1603 1.374 . S
C1603 H1583 0.950 . S
C1603 C1599 1.385 . S
C1603 C1602 1.374 . S
C1604 C1601 1.499 . S
C1604 C1605 1.373 . S
C1604 C1606 1.389 . S
C1605 H1584 0.950 . S
C1605 C1604 1.373 . S
C1605 C1621 1.377 . S
C1606 C1604 1.389 . S
C1606 C1607 1.524 . S
C1606 C1620 1.377 . S
C1607 C1606 1.524 . S
C1607 C1608 1.397 . S
C1607 C1612 1.363 . S
C1608 H1585 0.950 . S
C1608 C1607 1.397 . S
C1608 C1609 1.334 . S
C1609 H1586 0.950 . S
C1609 C1608 1.334 . S
C1609 C1610 1.287 . S
C1610 C1609 1.287 . S
C1610 C1611 1.524 . S
C1610 H1629 0.913 . S
C1611 H1587 0.950 . S
C1611 C1610 1.524 . S
C1611 C1612 1.415 . S
C1612 H1588 0.950 . S
C1612 C1607 1.363 . S
C1612 C1611 1.415 . S
C1613 H1589 0.951 . S
C1613 C1614 1.366 . S
C1613 C1615 1.388 . S
C1614 C1613 1.366 . S
C1614 C1618 1.385 . S
C1615 H1590 0.951 . S
C1615 C1613 1.388 . S
C1615 C1616 1.366 . S
C1616 C1615 1.366 . S
C1616 C1617 1.414 . S
C1616 C1619 1.499 . S
C1617 H1591 0.950 . S
C1617 C1616 1.414 . S
C1617 C1618 1.374 . S
C1618 H1592 0.950 . S
C1618 C1614 1.385 . S
C1618 C1617 1.374 . S
C1619 C1616 1.499 . S
C1619 C1620 1.373 . S
C1619 C1621 1.389 . S
C1620 H1593 0.950 . S
C1620 C1606 1.377 . S
C1620 C1619 1.373 . S
C1621 C1605 1.377 . S
C1621 C1619 1.389 . S
C1621 C1622 1.524 . S
C1622 C1621 1.524 . S
C1622 C1623 1.397 . S
C1622 C1627 1.363 . S
C1623 H1594 0.950 . S
C1623 C1622 1.397 . S
C1623 C1624 1.334 . S
C1624 H1595 0.950 . S
C1624 C1623 1.334 . S
C1624 C1625 1.287 . S
C1625 C1624 1.287 . S
C1625 C1626 1.524 . S
C1625 H1628 0.999 . S
C1626 H1596 0.950 . S
C1626 C1625 1.524 . S
C1626 C1627 1.415 . S
C1627 H1597 0.950 . S
C1627 C1622 1.363 . S
C1627 C1626 1.415 . S
H1628 C1625 0.999 . S
H1629 C1610 0.913 . S
H1630 C1648 0.951 . S
H1631 C1650 0.951 . S
H1632 C1652 0.950 . S
H1633 C1653 0.950 . S
H1634 C1655 0.950 . S
H1635 C1658 0.950 . S
H1636 C1659 0.950 . S
H1637 C1661 0.950 . S
H1638 C1662 0.950 . S
H1639 C1663 0.951 . S
H1640 C1665 0.951 . S
H1641 C1667 0.950 . S
H1642 C1668 0.950 . S
H1643 C1670 0.950 . S
H1644 C1673 0.950 . S
H1645 C1674 0.950 . S
H1646 C1676 0.950 . S
H1647 C1677 0.950 . S
C1648 H1630 0.951 . S
C1648 C1649 1.366 . S
C1648 C1650 1.388 . S
C1649 C1648 1.366 . S
C1649 C1653 1.385 . S
C1650 H1631 0.951 . S
C1650 C1648 1.388 . S
C1650 C1651 1.366 . S
C1651 C1650 1.366 . S
C1651 C1652 1.414 . S
C1651 C1654 1.499 . S
C1652 H1632 0.950 . S
C1652 C1651 1.414 . S
C1652 C1653 1.374 . S
C1653 H1633 0.950 . S
C1653 C1649 1.385 . S
C1653 C1652 1.374 . S
C1654 C1651 1.499 . S
C1654 C1655 1.373 . S
C1654 C1656 1.389 . S
C1655 H1634 0.950 . S
C1655 C1654 1.373 . S
C1655 C1671 1.377 . S
C1656 C1654 1.389 . S
C1656 C1657 1.524 . S
C1656 C1670 1.377 . S
C1657 C1656 1.524 . S
C1657 C1658 1.397 . S
C1657 C1662 1.363 . S
C1658 H1635 0.950 . S
C1658 C1657 1.397 . S
C1658 C1659 1.334 . S
C1659 H1636 0.950 . S
C1659 C1658 1.334 . S
C1659 C1660 1.287 . S
C1660 C1659 1.287 . S
C1660 C1661 1.524 . S
C1660 H1679 0.913 . S
C1661 H1637 0.950 . S
C1661 C1660 1.524 . S
C1661 C1662 1.415 . S
C1662 H1638 0.950 . S
C1662 C1657 1.363 . S
C1662 C1661 1.415 . S
C1663 H1639 0.951 . S
C1663 C1664 1.366 . S
C1663 C1665 1.388 . S
C1664 C1663 1.366 . S
C1664 C1668 1.385 . S
C1665 H1640 0.951 . S
C1665 C1663 1.388 . S
C1665 C1666 1.366 . S
C1666 C1665 1.366 . S
C1666 C1667 1.414 . S
C1666 C1669 1.499 . S
C1667 H1641 0.950 . S
C1667 C1666 1.414 . S
C1667 C1668 1.374 . S
C1668 H1642 0.950 . S
C1668 C1664 1.385 . S
C1668 C1667 1.374 . S
C1669 C1666 1.499 . S
C1669 C1670 1.373 . S
C1669 C1671 1.389 . S
C1670 H1643 0.950 . S
C1670 C1656 1.377 . S
C1670 C1669 1.373 . S
C1671 C1655 1.377 . S
C1671 C1669 1.389 . S
C1671 C1672 1.524 . S
C1672 C1671 1.524 . S
C1672 C1673 1.397 . S
C1672 C1677 1.363 . S
C1673 H1644 0.950 . S
C1673 C1672 1.397 . S
C1673 C1674 1.334 . S
C1674 H1645 0.950 . S
C1674 C1673 1.334 . S
C1674 C1675 1.287 . S
C1675 C1674 1.287 . S
C1675 C1676 1.524 . S
C1675 H1678 0.999 . S
C1676 H1646 0.950 . S
C1676 C1675 1.524 . S
C1676 C1677 1.415 . S
C1677 H1647 0.950 . S
C1677 C1672 1.363 . S
C1677 C1676 1.415 . S
H1678 C1675 0.999 . S
H1679 C1660 0.913 . S
H1680 C1698 0.953 . S
H1681 C1700 0.951 . S
H1682 C1702 0.950 . S
H1683 C1703 0.950 . S
H1684 C1705 0.950 . S
H1685 C1708 0.950 . S
H1686 C1709 0.950 . S
H1687 C1711 0.950 . S
H1688 C1712 0.950 . S
H1689 C1713 0.951 . S
H1690 C1715 0.951 . S
H1691 C1717 0.950 . S
H1692 C1718 0.950 . S
H1693 C1720 0.950 . S
H1694 C1723 0.950 . S
H1695 C1724 0.950 . S
H1696 C1726 0.950 . S
H1697 C1727 0.950 . S
C1698 H1680 0.953 . S
C1698 C1699 1.366 . S
C1698 C1700 1.388 . S
C1699 C1698 1.366 . S
C1699 C1703 1.385 . S
C1700 H1681 0.951 . S
C1700 C1698 1.388 . S
C1700 C1701 1.366 . S
C1701 C1700 1.366 . S
C1701 C1702 1.414 . S
C1701 C1704 1.499 . S
C1702 H1682 0.950 . S
C1702 C1701 1.414 . S
C1702 C1703 1.374 . S
C1703 H1683 0.950 . S
C1703 C1699 1.385 . S
C1703 C1702 1.374 . S
C1704 C1701 1.499 . S
C1704 C1705 1.373 1_554 S
C1704 C1706 1.389 . S
C1705 H1684 0.950 . S
C1705 C1704 1.373 1_556 S
C1705 C1721 1.377 . S
C1706 C1704 1.389 . S
C1706 C1707 1.524 . S
C1706 C1720 1.377 . S
C1707 C1706 1.524 . S
C1707 C1708 1.397 . S
C1707 C1712 1.363 . S
C1708 H1685 0.950 . S
C1708 C1707 1.397 . S
C1708 C1709 1.334 . S
C1709 H1686 0.950 . S
C1709 C1708 1.334 . S
C1709 C1710 1.287 . S
C1710 C1709 1.287 . S
C1710 C1711 1.524 . S
C1710 H1729 0.913 . S
C1711 H1687 0.950 . S
C1711 C1710 1.524 . S
C1711 C1712 1.415 . S
C1712 H1688 0.950 . S
C1712 C1707 1.363 . S
C1712 C1711 1.415 . S
C1713 H1689 0.951 . S
C1713 C1714 1.366 . S
C1713 C1715 1.388 . S
C1714 C1713 1.366 . S
C1714 C1718 1.385 . S
C1715 H1690 0.951 . S
C1715 C1713 1.388 . S
C1715 C1716 1.366 . S
C1716 C1715 1.366 . S
C1716 C1717 1.414 . S
C1716 C1719 1.499 . S
C1717 H1691 0.950 . S
C1717 C1716 1.414 . S
C1717 C1718 1.374 . S
C1718 H1692 0.950 . S
C1718 C1714 1.385 . S
C1718 C1717 1.374 . S
C1719 C1716 1.499 . S
C1719 C1720 1.373 . S
C1719 C1721 1.389 1_554 S
C1720 H1693 0.950 . S
C1720 C1706 1.377 . S
C1720 C1719 1.373 . S
C1721 C1705 1.377 . S
C1721 C1719 1.389 1_556 S
C1721 C1722 1.524 . S
C1722 C1721 1.524 . S
C1722 C1723 1.397 . S
C1722 C1727 1.363 . S
C1723 H1694 0.950 . S
C1723 C1722 1.397 . S
C1723 C1724 1.334 . S
C1724 H1695 0.950 . S
C1724 C1723 1.334 . S
C1724 C1725 1.287 . S
C1725 C1724 1.287 . S
C1725 C1726 1.524 . S
C1725 H1728 0.999 . S
C1726 H1696 0.950 . S
C1726 C1725 1.524 . S
C1726 C1727 1.415 . S
C1727 H1697 0.950 . S
C1727 C1722 1.363 . S
C1727 C1726 1.415 . S
H1728 C1725 0.999 . S
H1729 C1710 0.913 . S
H1730 C1748 0.951 . S
H1731 C1750 0.951 . S
H1732 C1752 0.950 . S
H1733 C1753 0.950 . S
H1734 C1755 0.918 1_556 S
H1735 C1758 0.950 . S
H1736 C1759 0.950 . S
H1737 C1761 0.950 . S
H1738 C1762 0.950 . S
H1739 C1763 0.951 . S
H1740 C1765 0.951 . S
H1741 C1767 0.950 . S
H1742 C1768 0.950 . S
H1743 C1770 0.950 . S
H1744 C1773 0.950 . S
H1745 C1774 0.950 . S
H1746 C1776 0.950 . S
H1747 C1777 0.950 . S
C1748 H1730 0.951 . S
C1748 C1749 1.366 . S
C1748 C1750 1.388 . S
C1749 C1748 1.366 . S
C1749 C1753 1.385 . S
C1750 H1731 0.951 . S
C1750 C1748 1.388 . S
C1750 C1751 1.366 . S
C1751 C1750 1.366 . S
C1751 C1752 1.414 . S
C1751 C1754 1.499 . S
C1752 H1732 0.950 . S
C1752 C1751 1.414 . S
C1752 C1753 1.374 . S
C1753 H1733 0.950 . S
C1753 C1749 1.385 . S
C1753 C1752 1.374 . S
C1754 C1751 1.499 . S
C1754 C1755 1.412 . S
C1754 C1756 1.389 . S
C1755 H1734 0.918 1_554 S
C1755 C1754 1.412 . S
C1755 C1771 1.372 1_554 S
C1756 C1754 1.389 . S
C1756 C1757 1.524 . S
C1756 C1770 1.377 . S
C1757 C1756 1.524 . S
C1757 C1758 1.397 . S
C1757 C1762 1.363 . S
C1758 H1735 0.950 . S
C1758 C1757 1.397 . S
C1758 C1759 1.334 . S
C1759 H1736 0.950 . S
C1759 C1758 1.334 . S
C1759 C1760 1.287 . S
C1760 C1759 1.287 . S
C1760 C1761 1.524 . S
C1760 H1779 0.913 . S
C1761 H1737 0.950 . S
C1761 C1760 1.524 . S
C1761 C1762 1.415 . S
C1762 H1738 0.950 . S
C1762 C1757 1.363 . S
C1762 C1761 1.415 . S
C1763 H1739 0.951 . S
C1763 C1764 1.366 . S
C1763 C1765 1.388 . S
C1764 C1763 1.366 . S
C1764 C1768 1.385 . S
C1765 H1740 0.951 . S
C1765 C1763 1.388 . S
C1765 C1766 1.366 . S
C1766 C1765 1.366 . S
C1766 C1767 1.414 . S
C1766 C1769 1.499 . S
C1767 H1741 0.950 . S
C1767 C1766 1.414 . S
C1767 C1768 1.374 . S
C1768 H1742 0.950 . S
C1768 C1764 1.385 . S
C1768 C1767 1.374 . S
C1769 C1766 1.499 . S
C1769 C1770 1.373 . S
C1769 C1771 1.366 1_554 S
C1770 H1743 0.950 . S
C1770 C1756 1.377 . S
C1770 C1769 1.373 . S
C1771 C1755 1.372 1_556 S
C1771 C1769 1.366 1_556 S
C1771 C1772 1.555 . S
C1772 C1771 1.555 . S
C1772 C1773 1.397 . S
C1772 C1777 1.363 . S
C1773 H1744 0.950 . S
C1773 C1772 1.397 . S
C1773 C1774 1.334 . S
C1774 H1745 0.950 . S
C1774 C1773 1.334 . S
C1774 C1775 1.287 . S
C1775 C1774 1.287 . S
C1775 C1776 1.524 . S
C1775 H1778 0.999 . S
C1776 H1746 0.950 . S
C1776 C1775 1.524 . S
C1776 C1777 1.415 . S
C1777 H1747 0.950 . S
C1777 C1772 1.363 . S
C1777 C1776 1.415 . S
H1778 C1775 0.999 . S
H1779 C1760 0.913 . S
H1780 C1798 0.951 . S
H1781 C1800 0.951 . S
H1782 C1802 0.950 . S
H1783 C1803 0.950 . S
H1784 C1805 0.950 1_556 S
H1785 C1808 0.950 . S
H1786 C1809 0.950 . S
H1787 C1811 0.950 . S
H1788 C1812 0.950 . S
H1789 C1813 0.951 . S
H1790 C1815 0.951 . S
H1791 C1817 0.950 . S
H1792 C1818 0.950 . S
H1793 C1820 0.950 . S
H1794 C1823 0.950 . S
H1795 C1824 0.950 . S
H1796 C1826 0.950 . S
H1797 C1827 0.950 . S
C1798 H1780 0.951 . S
C1798 C1799 1.366 . S
C1798 C1800 1.388 . S
C1799 C1798 1.366 . S
C1799 C1803 1.385 . S
C1800 H1781 0.951 . S
C1800 C1798 1.388 . S
C1800 C1801 1.366 . S
C1801 C1800 1.366 . S
C1801 C1802 1.414 . S
C1801 C1804 1.499 . S
C1802 H1782 0.950 . S
C1802 C1801 1.414 . S
C1802 C1803 1.374 . S
C1803 H1783 0.950 . S
C1803 C1799 1.385 . S
C1803 C1802 1.374 . S
C1804 C1801 1.499 . S
C1804 C1805 1.373 . S
C1804 C1806 1.389 . S
C1805 H1784 0.950 1_554 S
C1805 C1804 1.373 . S
C1805 C1821 1.377 . S
C1806 C1804 1.389 . S
C1806 C1807 1.524 . S
C1806 C1820 1.377 . S
C1807 C1806 1.524 . S
C1807 C1808 1.397 . S
C1807 C1812 1.363 . S
C1808 H1785 0.950 . S
C1808 C1807 1.397 . S
C1808 C1809 1.334 . S
C1809 H1786 0.950 . S
C1809 C1808 1.334 . S
C1809 C1810 1.287 . S
C1810 C1809 1.287 . S
C1810 C1811 1.524 . S
C1810 H1829 0.913 . S
C1811 H1787 0.950 . S
C1811 C1810 1.524 . S
C1811 C1812 1.415 . S
C1812 H1788 0.950 . S
C1812 C1807 1.363 . S
C1812 C1811 1.415 . S
C1813 H1789 0.951 . S
C1813 C1814 1.366 . S
C1813 C1815 1.388 . S
C1814 C1813 1.366 . S
C1814 C1818 1.385 . S
C1815 H1790 0.951 . S
C1815 C1813 1.388 . S
C1815 C1816 1.366 . S
C1816 C1815 1.366 . S
C1816 C1817 1.414 . S
C1816 C1819 1.499 . S
C1817 H1791 0.950 . S
C1817 C1816 1.414 . S
C1817 C1818 1.374 . S
C1818 H1792 0.950 . S
C1818 C1814 1.385 . S
C1818 C1817 1.374 . S
C1819 C1816 1.499 . S
C1819 C1820 1.373 . S
C1819 C1821 1.394 . S
C1820 H1793 0.950 . S
C1820 C1806 1.377 . S
C1820 C1819 1.373 . S
C1821 C1805 1.377 . S
C1821 C1819 1.394 . S
C1821 C1822 1.519 1_554 S
C1822 C1821 1.519 1_556 S
C1822 C1823 1.397 . S
C1822 C1827 1.363 . S
C1823 H1794 0.950 . S
C1823 C1822 1.397 . S
C1823 C1824 1.334 . S
C1824 H1795 0.950 . S
C1824 C1823 1.334 . S
C1824 C1825 1.287 . S
C1825 C1824 1.287 . S
C1825 C1826 1.524 . S
C1825 H1828 0.999 . S
C1826 H1796 0.950 . S
C1826 C1825 1.524 . S
C1826 C1827 1.415 . S
C1827 H1797 0.950 . S
C1827 C1822 1.363 . S
C1827 C1826 1.415 . S
H1828 C1825 0.999 . S
H1829 C1810 0.913 . S
H1830 C1848 0.951 . S
H1831 C1850 0.951 . S
H1832 C1852 0.950 . S
H1833 C1853 0.950 . S
H1834 C1855 0.950 . S
H1835 C1858 0.950 . S
H1836 C1859 0.950 . S
H1837 C1861 0.950 . S
H1838 C1862 0.950 . S
H1839 C1863 0.951 . S
H1840 C1865 0.951 . S
H1841 C1867 0.947 1_556 S
H1842 C1868 0.950 . S
H1843 C1870 0.950 . S
H1844 C1873 0.950 . S
H1845 C1874 0.950 . S
H1846 C1876 0.950 . S
H1847 C1877 0.950 . S
C1848 H1830 0.951 . S
C1848 C1849 1.366 1_556 S
C1848 C1850 1.388 . S
C1849 C1848 1.366 1_554 S
C1849 C1853 1.385 . S
C1850 H1831 0.951 . S
C1850 C1848 1.388 . S
C1850 C1851 1.366 1_556 S
C1851 C1850 1.366 1_554 S
C1851 C1852 1.414 . S
C1851 C1854 1.499 . S
C1852 H1832 0.950 . S
C1852 C1851 1.414 . S
C1852 C1853 1.374 . S
C1853 H1833 0.950 . S
C1853 C1849 1.385 . S
C1853 C1852 1.374 . S
C1854 C1851 1.499 . S
C1854 C1855 1.373 . S
C1854 C1856 1.389 1_554 S
C1855 H1834 0.950 . S
C1855 C1854 1.373 . S
C1855 C1871 1.377 . S
C1856 C1854 1.389 1_556 S
C1856 C1857 1.524 . S
C1856 C1870 1.377 . S
C1857 C1856 1.524 . S
C1857 C1858 1.397 . S
C1857 C1862 1.363 . S
C1858 H1835 0.950 . S
C1858 C1857 1.397 . S
C1858 C1859 1.334 . S
C1859 H1836 0.950 . S
C1859 C1858 1.334 . S
C1859 C1860 1.287 . S
C1860 C1859 1.287 . S
C1860 C1861 1.524 . S
C1860 H1879 0.913 . S
C1861 H1837 0.950 . S
C1861 C1860 1.524 . S
C1861 C1862 1.415 . S
C1862 H1838 0.950 . S
C1862 C1857 1.363 . S
C1862 C1861 1.415 . S
C1863 H1839 0.951 . S
C1863 C1864 1.366 . S
C1863 C1865 1.388 . S
C1864 C1863 1.366 . S
C1864 C1868 1.385 . S
C1865 H1840 0.951 . S
C1865 C1863 1.388 . S
C1865 C1866 1.366 . S
C1866 C1865 1.366 . S
C1866 C1867 1.414 . S
C1866 C1869 1.499 . S
C1867 H1841 0.947 1_554 S
C1867 C1866 1.414 . S
C1867 C1868 1.374 . S
C1868 H1842 0.950 . S
C1868 C1864 1.385 . S
C1868 C1867 1.374 . S
C1869 C1866 1.499 . S
C1869 C1870 1.373 1_554 S
C1869 C1871 1.389 . S
C1870 H1843 0.950 . S
C1870 C1856 1.377 . S
C1870 C1869 1.373 1_556 S
C1871 C1855 1.377 . S
C1871 C1869 1.389 . S
C1871 C1872 1.524 . S
C1872 C1871 1.524 . S
C1872 C1873 1.397 . S
C1872 C1877 1.363 . S
C1873 H1844 0.950 . S
C1873 C1872 1.397 . S
C1873 C1874 1.334 . S
C1874 H1845 0.950 . S
C1874 C1873 1.334 . S
C1874 C1875 1.287 . S
C1875 C1874 1.287 . S
C1875 C1876 1.524 . S
C1875 H1878 0.999 . S
C1876 H1846 0.950 . S
C1876 C1875 1.524 . S
C1876 C1877 1.415 . S
C1877 H1847 0.950 . S
C1877 C1872 1.363 . S
C1877 C1876 1.415 . S
H1878 C1875 0.999 . S
H1879 C1860 0.913 . S
H1880 C1898 0.951 . S
H1881 C1900 0.951 . S
H1882 C1902 0.950 . S
H1883 C1903 0.950 . S
H1884 C1905 0.950 . S
H1885 C1908 0.950 . S
H1886 C1909 0.950 . S
H1887 C1911 0.950 . S
H1888 C1912 0.950 . S
H1889 C1913 0.934 1_655 S
H1890 C1915 0.951 1_655 S
H1891 C1917 0.950 . S
H1892 C1918 0.950 . S
H1893 C1920 0.950 . S
H1894 C1923 0.950 . S
H1895 C1924 0.950 . S
H1896 C1926 0.950 . S
H1897 C1927 0.950 . S
C1898 H1880 0.951 . S
C1898 C1899 1.382 . S
C1898 C1900 1.388 . S
C1899 C1898 1.382 . S
C1899 C1903 1.372 1_455 S
C1900 H1881 0.951 . S
C1900 C1898 1.388 . S
C1900 C1901 1.366 . S
C1901 C1900 1.366 . S
C1901 C1902 1.414 1_455 S
C1901 C1904 1.499 . S
C1902 H1882 0.950 . S
C1902 C1901 1.414 1_655 S
C1902 C1903 1.374 . S
C1903 H1883 0.950 . S
C1903 C1899 1.372 1_655 S
C1903 C1902 1.374 . S
C1904 C1901 1.499 . S
C1904 C1905 1.373 1_455 S
C1904 C1906 1.389 . S
C1905 H1884 0.950 . S
C1905 C1904 1.373 1_655 S
C1905 C1921 1.377 . S
C1906 C1904 1.389 . S
C1906 C1907 1.524 . S
C1906 C1920 1.377 . S
C1907 C1906 1.524 . S
C1907 C1908 1.397 . S
C1907 C1912 1.363 . S
C1908 H1885 0.950 . S
C1908 C1907 1.397 . S
C1908 C1909 1.334 . S
C1909 H1886 0.950 . S
C1909 C1908 1.334 . S
C1909 C1910 1.287 . S
C1910 C1909 1.287 . S
C1910 C1911 1.524 . S
C1910 H1929 0.913 . S
C1911 H1887 0.950 . S
C1911 C1910 1.524 . S
C1911 C1912 1.415 . S
C1912 H1888 0.950 . S
C1912 C1907 1.363 . S
C1912 C1911 1.415 . S
C1913 H1889 0.934 1_455 S
C1913 C1914 1.366 . S
C1913 C1915 1.388 . S
C1914 C1913 1.366 . S
C1914 C1918 1.385 . S
C1915 H1890 0.951 1_455 S
C1915 C1913 1.388 . S
C1915 C1916 1.366 . S
C1916 C1915 1.366 . S
C1916 C1917 1.414 . S
C1916 C1919 1.499 . S
C1917 H1891 0.950 . S
C1917 C1916 1.414 . S
C1917 C1918 1.374 . S
C1918 H1892 0.950 . S
C1918 C1914 1.385 . S
C1918 C1917 1.374 . S
C1919 C1916 1.499 . S
C1919 C1920 1.373 . S
C1919 C1921 1.389 1_455 S
C1920 H1893 0.950 . S
C1920 C1906 1.377 . S
C1920 C1919 1.373 . S
C1921 C1905 1.377 . S
C1921 C1919 1.389 1_655 S
C1921 C1922 1.524 . S
C1922 C1921 1.524 . S
C1922 C1923 1.397 . S
C1922 C1927 1.363 . S
C1923 H1894 0.950 . S
C1923 C1922 1.397 . S
C1923 C1924 1.334 . S
C1924 H1895 0.950 . S
C1924 C1923 1.334 . S
C1924 C1925 1.287 . S
C1925 C1924 1.287 . S
C1925 C1926 1.524 . S
C1925 H1928 0.999 . S
C1926 H1896 0.950 . S
C1926 C1925 1.524 . S
C1926 C1927 1.415 . S
C1927 H1897 0.950 . S
C1927 C1922 1.363 . S
C1927 C1926 1.415 . S
H1928 C1925 0.999 . S
H1929 C1910 0.913 . S
H1930 C1948 0.951 . S
H1931 C1950 0.951 . S
H1932 C1952 0.950 . S
H1933 C1953 0.950 . S
H1934 C1955 0.950 . S
H1935 C1958 0.950 . S
H1936 C1959 0.950 . S
H1937 C1961 0.950 . S
H1938 C1962 0.950 . S
H1939 C1963 0.951 . S
H1940 C1965 0.951 . S
H1941 C1967 0.950 1_565 S
H1942 C1968 0.974 . S
H1943 C1970 0.950 . S
H1944 C1973 0.950 . S
H1945 C1974 0.950 . S
H1946 C1976 0.950 . S
H1947 C1977 0.950 . S
C1948 H1930 0.951 . S
C1948 C1949 1.366 1_565 S
C1948 C1950 1.388 . S
C1949 C1948 1.366 1_545 S
C1949 C1953 1.385 . S
C1950 H1931 0.951 . S
C1950 C1948 1.388 . S
C1950 C1951 1.366 1_565 S
C1951 C1950 1.366 1_545 S
C1951 C1952 1.414 . S
C1951 C1954 1.499 . S
C1952 H1932 0.950 . S
C1952 C1951 1.414 . S
C1952 C1953 1.374 . S
C1953 H1933 0.950 . S
C1953 C1949 1.385 . S
C1953 C1952 1.374 . S
C1954 C1951 1.499 . S
C1954 C1955 1.373 . S
C1954 C1956 1.389 1_545 S
C1955 H1934 0.950 . S
C1955 C1954 1.373 . S
C1955 C1971 1.377 . S
C1956 C1954 1.389 1_565 S
C1956 C1957 1.524 . S
C1956 C1970 1.377 . S
C1957 C1956 1.524 . S
C1957 C1958 1.397 . S
C1957 C1962 1.363 . S
C1958 H1935 0.950 . S
C1958 C1957 1.397 . S
C1958 C1959 1.334 . S
C1959 H1936 0.950 . S
C1959 C1958 1.334 . S
C1959 C1960 1.287 . S
C1960 C1959 1.287 . S
C1960 C1961 1.524 . S
C1960 H1979 0.913 . S
C1961 H1937 0.950 . S
C1961 C1960 1.524 . S
C1961 C1962 1.415 . S
C1962 H1938 0.950 . S
C1962 C1957 1.363 . S
C1962 C1961 1.415 . S
C1963 H1939 0.951 . S
C1963 C1964 1.366 . S
C1963 C1965 1.388 . S
C1964 C1963 1.366 . S
C1964 C1968 1.385 . S
C1965 H1940 0.951 . S
C1965 C1963 1.388 . S
C1965 C1966 1.366 . S
C1966 C1965 1.366 . S
C1966 C1967 1.414 . S
C1966 C1969 1.499 . S
C1967 H1941 0.950 1_545 S
C1967 C1966 1.414 . S
C1967 C1968 1.374 . S
C1968 H1942 0.974 . S
C1968 C1964 1.385 . S
C1968 C1967 1.374 . S
C1969 C1966 1.499 . S
C1969 C1970 1.373 1_545 S
C1969 C1971 1.389 . S
C1970 H1943 0.950 . S
C1970 C1956 1.377 . S
C1970 C1969 1.373 1_565 S
C1971 C1955 1.377 . S
C1971 C1969 1.389 . S
C1971 C1972 1.524 . S
C1972 C1971 1.524 . S
C1972 C1973 1.397 . S
C1972 C1977 1.363 . S
C1973 H1944 0.950 . S
C1973 C1972 1.397 . S
C1973 C1974 1.334 . S
C1974 H1945 0.950 . S
C1974 C1973 1.334 . S
C1974 C1975 1.287 . S
C1975 C1974 1.287 . S
C1975 C1976 1.524 . S
C1975 H1978 0.999 . S
C1976 H1946 0.950 . S
C1976 C1975 1.524 . S
C1976 C1977 1.415 . S
C1977 H1947 0.950 . S
C1977 C1972 1.363 . S
C1977 C1976 1.415 . S
H1978 C1975 0.999 . S
H1979 C1960 0.913 . S
H1980 C1998 0.951 . S
H1981 C2000 0.951 . S
H1982 C2002 0.950 . S
H1983 C2003 0.950 . S
H1984 C2005 0.950 . S
H1985 C2008 0.950 . S
H1986 C2009 0.950 . S
H1987 C2011 0.950 . S
H1988 C2012 0.950 . S
H1989 C2013 0.951 . S
H1990 C2015 0.951 . S
H1991 C2017 0.950 1_655 S
H1992 C2018 0.950 1_655 S
H1993 C2020 0.950 . S
H1994 C2023 0.950 . S
H1995 C2024 0.950 . S
H1996 C2026 0.950 . S
H1997 C2027 0.950 . S
C1998 H1980 0.951 . S
C1998 C1999 1.366 . S
C1998 C2000 1.388 . S
C1999 C1998 1.366 . S
C1999 C2003 1.385 . S
C2000 H1981 0.951 . S
C2000 C1998 1.388 . S
C2000 C2001 1.366 . S
C2001 C2000 1.366 . S
C2001 C2002 1.414 . S
C2001 C2004 1.499 . S
C2002 H1982 0.950 . S
C2002 C2001 1.414 . S
C2002 C2003 1.374 . S
C2003 H1983 0.950 . S
C2003 C1999 1.385 . S
C2003 C2002 1.374 . S
C2004 C2001 1.499 . S
C2004 C2005 1.373 . S
C2004 C2006 1.389 . S
C2005 H1984 0.950 . S
C2005 C2004 1.373 . S
C2005 C2021 1.377 . S
C2006 C2004 1.389 . S
C2006 C2007 1.524 . S
C2006 C2020 1.377 . S
C2007 C2006 1.524 . S
C2007 C2008 1.397 . S
C2007 C2012 1.363 . S
C2008 H1985 0.950 . S
C2008 C2007 1.397 . S
C2008 C2009 1.334 . S
C2009 H1986 0.950 . S
C2009 C2008 1.334 . S
C2009 C2010 1.287 . S
C2010 C2009 1.287 . S
C2010 C2011 1.524 . S
C2010 H2029 0.913 . S
C2011 H1987 0.950 . S
C2011 C2010 1.524 . S
C2011 C2012 1.415 . S
C2012 H1988 0.950 . S
C2012 C2007 1.363 . S
C2012 C2011 1.415 . S
C2013 H1989 0.951 . S
C2013 C2014 1.366 . S
C2013 C2015 1.388 . S
C2014 C2013 1.366 . S
C2014 C2018 1.385 . S
C2015 H1990 0.951 . S
C2015 C2013 1.388 . S
C2015 C2016 1.366 . S
C2016 C2015 1.366 . S
C2016 C2017 1.414 . S
C2016 C2019 1.499 . S
C2017 H1991 0.950 1_455 S
C2017 C2016 1.414 . S
C2017 C2018 1.374 . S
C2018 H1992 0.950 1_455 S
C2018 C2014 1.385 . S
C2018 C2017 1.374 . S
C2019 C2016 1.499 . S
C2019 C2020 1.373 . S
C2019 C2021 1.389 . S
C2020 H1993 0.950 . S
C2020 C2006 1.377 . S
C2020 C2019 1.373 . S
C2021 C2005 1.377 . S
C2021 C2019 1.389 . S
C2021 C2022 1.524 . S
C2022 C2021 1.524 . S
C2022 C2023 1.397 1_455 S
C2022 C2027 1.363 . S
C2023 H1994 0.950 . S
C2023 C2022 1.397 1_655 S
C2023 C2024 1.334 . S
C2024 H1995 0.950 . S
C2024 C2023 1.334 . S
C2024 C2025 1.287 . S
C2025 C2024 1.287 . S
C2025 C2026 1.524 1_655 S
C2025 H2028 0.999 . S
C2026 H1996 0.950 . S
C2026 C2025 1.524 1_455 S
C2026 C2027 1.415 . S
C2027 H1997 0.950 . S
C2027 C2022 1.363 . S
C2027 C2026 1.415 . S
H2028 C2025 0.999 . S
H2029 C2010 0.913 . S
H2030 C2048 0.951 . S
H2031 C2050 0.951 . S
H2032 C2052 0.950 . S
H2033 C2053 0.950 . S
H2034 C2055 0.964 . S
H2035 C2058 0.950 . S
H2036 C2059 0.950 . S
H2037 C2061 0.950 . S
H2038 C2062 0.950 . S
H2039 C2063 0.951 . S
H2040 C2065 0.951 . S
H2041 C2067 0.950 . S
H2042 C2068 0.950 . S
H2043 C2070 0.950 . S
H2044 C2073 0.950 . S
H2045 C2074 0.950 . S
H2046 C2076 0.950 . S
H2047 C2077 0.950 . S
C2048 H2030 0.951 . S
C2048 C2049 1.366 . S
C2048 C2050 1.388 . S
C2049 C2048 1.366 . S
C2049 C2053 1.385 . S
C2050 H2031 0.951 . S
C2050 C2048 1.388 . S
C2050 C2051 1.366 . S
C2051 C2050 1.366 . S
C2051 C2052 1.414 . S
C2051 C2054 1.499 . S
C2052 H2032 0.950 . S
C2052 C2051 1.414 . S
C2052 C2053 1.374 . S
C2053 H2033 0.950 . S
C2053 C2049 1.385 . S
C2053 C2052 1.374 . S
C2054 C2051 1.499 . S
C2054 C2055 1.373 . S
C2054 C2056 1.389 . S
C2055 H2034 0.964 . S
C2055 C2054 1.373 . S
C2055 C2071 1.377 . S
C2056 C2054 1.389 . S
C2056 C2057 1.524 . S
C2056 C2070 1.377 . S
C2057 C2056 1.524 . S
C2057 C2058 1.397 . S
C2057 C2062 1.363 . S
C2058 H2035 0.950 . S
C2058 C2057 1.397 . S
C2058 C2059 1.334 . S
C2059 H2036 0.950 . S
C2059 C2058 1.334 . S
C2059 C2060 1.287 . S
C2060 C2059 1.287 . S
C2060 C2061 1.524 . S
C2060 H2079 0.913 . S
C2061 H2037 0.950 . S
C2061 C2060 1.524 . S
C2061 C2062 1.415 . S
C2062 H2038 0.950 . S
C2062 C2057 1.363 . S
C2062 C2061 1.415 . S
C2063 H2039 0.951 . S
C2063 C2064 1.366 . S
C2063 C2065 1.388 . S
C2064 C2063 1.366 . S
C2064 C2068 1.385 . S
C2065 H2040 0.951 . S
C2065 C2063 1.388 . S
C2065 C2066 1.366 . S
C2066 C2065 1.366 . S
C2066 C2067 1.414 . S
C2066 C2069 1.499 . S
C2067 H2041 0.950 . S
C2067 C2066 1.414 . S
C2067 C2068 1.374 . S
C2068 H2042 0.950 . S
C2068 C2064 1.385 . S
C2068 C2067 1.374 . S
C2069 C2066 1.499 . S
C2069 C2070 1.373 . S
C2069 C2071 1.389 . S
C2070 H2043 0.950 . S
C2070 C2056 1.377 . S
C2070 C2069 1.373 . S
C2071 C2055 1.377 . S
C2071 C2069 1.389 . S
C2071 C2072 1.524 1_545 S
C2072 C2071 1.524 1_565 S
C2072 C2073 1.397 . S
C2072 C2077 1.363 . S
C2073 H2044 0.950 . S
C2073 C2072 1.397 . S
C2073 C2074 1.334 . S
C2074 H2045 0.950 . S
C2074 C2073 1.334 . S
C2074 C2075 1.287 . S
C2075 C2074 1.287 . S
C2075 C2076 1.524 . S
C2075 H2078 0.999 . S
C2076 H2046 0.950 . S
C2076 C2075 1.524 . S
C2076 C2077 1.415 . S
C2077 H2047 0.950 . S
C2077 C2072 1.363 . S
C2077 C2076 1.415 . S
H2078 C2075 0.999 . S
H2079 C2060 0.913 . S
H2080 C2098 0.951 . S
H2081 C2100 0.951 . S
H2082 C2102 0.950 . S
H2083 C2103 0.950 . S
H2084 C2105 0.950 . S
H2085 C2108 0.950 1_455 S
H2086 C2109 0.950 . S
H2087 C2111 0.950 . S
H2088 C2112 0.950 . S
H2089 C2113 0.951 . S
H2090 C2115 0.951 . S
H2091 C2117 0.950 . S
H2092 C2118 0.950 . S
H2093 C2120 0.950 . S
H2094 C2123 0.950 . S
H2095 C2124 0.950 . S
H2096 C2126 0.950 . S
H2097 C2127 0.950 . S
C2098 H2080 0.951 . S
C2098 C2099 1.366 . S
C2098 C2100 1.388 . S
C2099 C2098 1.366 . S
C2099 C2103 1.385 . S
C2100 H2081 0.951 . S
C2100 C2098 1.388 . S
C2100 C2101 1.366 . S
C2101 C2100 1.366 . S
C2101 C2102 1.414 . S
C2101 C2104 1.499 . S
C2102 H2082 0.950 . S
C2102 C2101 1.414 . S
C2102 C2103 1.374 . S
C2103 H2083 0.950 . S
C2103 C2099 1.385 . S
C2103 C2102 1.374 . S
C2104 C2101 1.499 . S
C2104 C2105 1.373 . S
C2104 C2106 1.389 . S
C2105 H2084 0.950 . S
C2105 C2104 1.373 . S
C2105 C2121 1.377 . S
C2106 C2104 1.389 . S
C2106 C2107 1.524 1_455 S
C2106 C2120 1.377 . S
C2107 C2106 1.524 1_655 S
C2107 C2108 1.397 . S
C2107 C2112 1.363 . S
C2108 H2085 0.950 1_655 S
C2108 C2107 1.397 . S
C2108 C2109 1.334 . S
C2109 H2086 0.950 . S
C2109 C2108 1.334 . S
C2109 C2110 1.287 . S
C2110 C2109 1.287 . S
C2110 C2111 1.524 . S
C2110 H2129 0.913 . S
C2111 H2087 0.950 . S
C2111 C2110 1.524 . S
C2111 C2112 1.415 . S
C2112 H2088 0.950 . S
C2112 C2107 1.363 . S
C2112 C2111 1.415 . S
C2113 H2089 0.951 . S
C2113 C2114 1.366 . S
C2113 C2115 1.388 . S
C2114 C2113 1.366 . S
C2114 C2118 1.385 . S
C2115 H2090 0.951 . S
C2115 C2113 1.388 . S
C2115 C2116 1.366 . S
C2116 C2115 1.366 . S
C2116 C2117 1.414 . S
C2116 C2119 1.499 . S
C2117 H2091 0.950 . S
C2117 C2116 1.414 . S
C2117 C2118 1.374 . S
C2118 H2092 0.950 . S
C2118 C2114 1.385 . S
C2118 C2117 1.374 . S
C2119 C2116 1.499 . S
C2119 C2120 1.373 . S
C2119 C2121 1.389 . S
C2120 H2093 0.950 . S
C2120 C2106 1.377 . S
C2120 C2119 1.373 . S
C2121 C2105 1.377 . S
C2121 C2119 1.389 . S
C2121 C2122 1.524 . S
C2122 C2121 1.524 . S
C2122 C2123 1.397 . S
C2122 C2127 1.363 . S
C2123 H2094 0.950 . S
C2123 C2122 1.397 . S
C2123 C2124 1.334 . S
C2124 H2095 0.950 . S
C2124 C2123 1.334 . S
C2124 C2125 1.287 . S
C2125 C2124 1.287 . S
C2125 C2126 1.524 . S
C2125 H2128 0.999 . S
C2126 H2096 0.950 . S
C2126 C2125 1.524 . S
C2126 C2127 1.415 . S
C2127 H2097 0.950 . S
C2127 C2122 1.363 . S
C2127 C2126 1.415 . S
H2128 C2125 0.999 . S
H2129 C2110 0.913 . S
H2130 C2148 0.951 . S
H2131 C2150 0.951 . S
H2132 C2152 0.950 . S
H2133 C2153 0.950 . S
H2134 C2155 0.950 . S
H2135 C2158 0.950 . S
H2136 C2159 0.950 . S
H2137 C2161 0.950 1_565 S
H2138 C2162 0.950 1_565 S
H2139 C2163 0.951 . S
H2140 C2165 0.951 . S
H2141 C2167 0.950 1_565 S
H2142 C2168 0.950 1_565 S
H2143 C2170 0.950 . S
H2144 C2173 0.950 . S
H2145 C2174 0.950 . S
H2146 C2176 0.950 . S
H2147 C2177 0.950 . S
C2148 H2130 0.951 . S
C2148 C2149 1.366 . S
C2148 C2150 1.388 . S
C2149 C2148 1.366 . S
C2149 C2153 1.385 . S
C2150 H2131 0.951 . S
C2150 C2148 1.388 . S
C2150 C2151 1.366 . S
C2151 C2150 1.366 . S
C2151 C2152 1.414 . S
C2151 C2154 1.499 . S
C2152 H2132 0.950 . S
C2152 C2151 1.414 . S
C2152 C2153 1.374 . S
C2153 H2133 0.950 . S
C2153 C2149 1.385 . S
C2153 C2152 1.374 . S
C2154 C2151 1.499 . S
C2154 C2155 1.373 . S
C2154 C2156 1.389 . S
C2155 H2134 0.950 . S
C2155 C2154 1.373 . S
C2155 C2171 1.377 . S
C2156 C2154 1.389 . S
C2156 C2157 1.524 . S
C2156 C2170 1.377 . S
C2157 C2156 1.524 . S
C2157 C2158 1.397 . S
C2157 C2162 1.363 . S
C2158 H2135 0.950 . S
C2158 C2157 1.397 . S
C2158 C2159 1.334 . S
C2159 H2136 0.950 . S
C2159 C2158 1.334 . S
C2159 C2160 1.287 . S
C2160 C2159 1.287 . S
C2160 C2161 1.524 . S
C2160 H2179 0.913 . S
C2161 H2137 0.950 1_545 S
C2161 C2160 1.524 . S
C2161 C2162 1.415 . S
C2162 H2138 0.950 1_545 S
C2162 C2157 1.363 . S
C2162 C2161 1.415 . S
C2163 H2139 0.951 . S
C2163 C2164 1.366 . S
C2163 C2165 1.388 . S
C2164 C2163 1.366 . S
C2164 C2168 1.385 . S
C2165 H2140 0.951 . S
C2165 C2163 1.388 . S
C2165 C2166 1.366 . S
C2166 C2165 1.366 . S
C2166 C2167 1.414 . S
C2166 C2169 1.499 . S
C2167 H2141 0.950 1_545 S
C2167 C2166 1.414 . S
C2167 C2168 1.374 . S
C2168 H2142 0.950 1_545 S
C2168 C2164 1.385 . S
C2168 C2167 1.374 . S
C2169 C2166 1.499 . S
C2169 C2170 1.373 . S
C2169 C2171 1.389 . S
C2170 H2143 0.950 . S
C2170 C2156 1.377 . S
C2170 C2169 1.373 . S
C2171 C2155 1.377 . S
C2171 C2169 1.389 . S
C2171 C2172 1.524 . S
C2172 C2171 1.524 . S
C2172 C2173 1.397 . S
C2172 C2177 1.363 . S
C2173 H2144 0.950 . S
C2173 C2172 1.397 . S
C2173 C2174 1.334 . S
C2174 H2145 0.950 . S
C2174 C2173 1.334 . S
C2174 C2175 1.287 . S
C2175 C2174 1.287 . S
C2175 C2176 1.524 . S
C2175 H2178 0.999 . S
C2176 H2146 0.950 . S
C2176 C2175 1.524 . S
C2176 C2177 1.415 . S
C2177 H2147 0.950 . S
C2177 C2172 1.363 . S
C2177 C2176 1.415 . S
H2178 C2175 0.999 . S
H2179 C2160 0.913 . S
H2180 C2198 0.951 1_655 S
H2181 C2200 0.951 1_655 S
H2182 C2202 0.950 . S
H2183 C2203 0.950 . S
H2184 C2205 0.950 . S
H2185 C2208 0.950 . S
H2186 C2209 0.950 . S
H2187 C2211 0.950 . S
H2188 C2212 0.950 1_655 S
H2189 C2213 0.951 . S
H2190 C2215 0.951 . S
H2191 C2217 0.950 1_655 S
H2192 C2218 0.950 1_655 S
H2193 C2220 0.950 . S
H2194 C2223 0.950 . S
H2195 C2224 0.950 . S
H2196 C2226 0.950 . S
H2197 C2227 0.950 . S
C2198 H2180 0.951 1_455 S
C2198 C2199 1.366 . S
C2198 C2200 1.388 . S
C2199 C2198 1.366 . S
C2199 C2203 1.385 . S
C2200 H2181 0.951 1_455 S
C2200 C2198 1.388 . S
C2200 C2201 1.366 . S
C2201 C2200 1.366 . S
C2201 C2202 1.414 . S
C2201 C2204 1.499 . S
C2202 H2182 0.950 . S
C2202 C2201 1.414 . S
C2202 C2203 1.374 . S
C2203 H2183 0.950 . S
C2203 C2199 1.385 . S
C2203 C2202 1.374 . S
C2204 C2201 1.499 . S
C2204 C2205 1.373 . S
C2204 C2206 1.389 . S
C2205 H2184 0.950 . S
C2205 C2204 1.373 . S
C2205 C2221 1.377 . S
C2206 C2204 1.389 . S
C2206 C2207 1.524 . S
C2206 C2220 1.377 . S
C2207 C2206 1.524 . S
C2207 C2208 1.397 . S
C2207 C2212 1.363 . S
C2208 H2185 0.950 . S
C2208 C2207 1.397 . S
C2208 C2209 1.334 . S
C2209 H2186 0.950 . S
C2209 C2208 1.334 . S
C2209 C2210 1.287 . S
C2210 C2209 1.287 . S
C2210 C2211 1.524 1_455 S
C2210 H2229 0.913 . S
C2211 H2187 0.950 . S
C2211 C2210 1.524 1_655 S
C2211 C2212 1.415 1_655 S
C2212 H2188 0.950 1_455 S
C2212 C2207 1.363 . S
C2212 C2211 1.415 1_455 S
C2213 H2189 0.951 . S
C2213 C2214 1.366 . S
C2213 C2215 1.388 . S
C2214 C2213 1.366 . S
C2214 C2218 1.385 . S
C2215 H2190 0.951 . S
C2215 C2213 1.388 . S
C2215 C2216 1.366 . S
C2216 C2215 1.366 . S
C2216 C2217 1.414 . S
C2216 C2219 1.499 . S
C2217 H2191 0.950 1_455 S
C2217 C2216 1.414 . S
C2217 C2218 1.374 . S
C2218 H2192 0.950 1_455 S
C2218 C2214 1.385 . S
C2218 C2217 1.374 . S
C2219 C2216 1.499 . S
C2219 C2220 1.373 . S
C2219 C2221 1.389 . S
C2220 H2193 0.950 . S
C2220 C2206 1.377 . S
C2220 C2219 1.373 . S
C2221 C2205 1.377 . S
C2221 C2219 1.389 . S
C2221 C2222 1.524 . S
C2222 C2221 1.524 . S
C2222 C2223 1.397 . S
C2222 C2227 1.363 . S
C2223 H2194 0.950 . S
C2223 C2222 1.397 . S
C2223 C2224 1.334 . S
C2224 H2195 0.950 . S
C2224 C2223 1.334 . S
C2224 C2225 1.287 . S
C2225 C2224 1.287 . S
C2225 C2226 1.524 . S
C2225 H2228 0.999 . S
C2226 H2196 0.950 . S
C2226 C2225 1.524 . S
C2226 C2227 1.415 . S
C2227 H2197 0.950 . S
C2227 C2222 1.363 . S
C2227 C2226 1.415 . S
H2228 C2225 0.999 . S
H2229 C2210 0.913 . S
H2230 C2248 0.951 . S
H2231 C2250 0.951 . S
H2232 C2252 0.950 . S
H2233 C2253 0.950 . S
H2234 C2255 0.950 . S
H2235 C2258 0.950 . S
H2236 C2259 0.950 . S
H2237 C2261 0.950 . S
H2238 C2262 0.950 . S
H2239 C2263 0.951 . S
H2240 C2265 0.951 . S
H2241 C2267 0.950 . S
H2242 C2268 0.989 . S
H2243 C2270 0.950 . S
H2244 C2273 0.950 . S
H2245 C2274 0.950 . S
H2246 C2276 0.950 . S
H2247 C2277 0.950 . S
C2248 H2230 0.951 . S
C2248 C2249 1.366 1_565 S
C2248 C2250 1.388 . S
C2249 C2248 1.366 1_545 S
C2249 C2253 1.385 . S
C2250 H2231 0.951 . S
C2250 C2248 1.388 . S
C2250 C2251 1.366 1_565 S
C2251 C2250 1.366 1_545 S
C2251 C2252 1.414 . S
C2251 C2254 1.499 . S
C2252 H2232 0.950 . S
C2252 C2251 1.414 . S
C2252 C2253 1.374 . S
C2253 H2233 0.950 . S
C2253 C2249 1.385 . S
C2253 C2252 1.374 . S
C2254 C2251 1.499 . S
C2254 C2255 1.373 . S
C2254 C2256 1.389 1_545 S
C2255 H2234 0.950 . S
C2255 C2254 1.373 . S
C2255 C2271 1.377 . S
C2256 C2254 1.389 1_565 S
C2256 C2257 1.524 . S
C2256 C2270 1.377 . S
C2257 C2256 1.524 . S
C2257 C2258 1.397 . S
C2257 C2262 1.363 . S
C2258 H2235 0.950 . S
C2258 C2257 1.397 . S
C2258 C2259 1.334 . S
C2259 H2236 0.950 . S
C2259 C2258 1.334 . S
C2259 C2260 1.287 . S
C2260 C2259 1.287 . S
C2260 C2261 1.524 . S
C2260 H2279 0.913 . S
C2261 H2237 0.950 . S
C2261 C2260 1.524 . S
C2261 C2262 1.415 . S
C2262 H2238 0.950 . S
C2262 C2257 1.363 . S
C2262 C2261 1.415 . S
C2263 H2239 0.951 . S
C2263 C2264 1.366 . S
C2263 C2265 1.388 . S
C2264 C2263 1.366 . S
C2264 C2268 1.342 1_545 S
C2265 H2240 0.951 . S
C2265 C2263 1.388 . S
C2265 C2266 1.366 . S
C2266 C2265 1.366 . S
C2266 C2267 1.414 1_545 S
C2266 C2269 1.499 . S
C2267 H2241 0.950 . S
C2267 C2266 1.414 1_565 S
C2267 C2268 1.379 . S
C2268 H2242 0.989 . S
C2268 C2264 1.342 1_565 S
C2268 C2267 1.379 . S
C2269 C2266 1.499 . S
C2269 C2270 1.373 1_545 S
C2269 C2271 1.389 . S
C2270 H2243 0.950 . S
C2270 C2256 1.377 . S
C2270 C2269 1.373 1_565 S
C2271 C2255 1.377 . S
C2271 C2269 1.389 . S
C2271 C2272 1.524 . S
C2272 C2271 1.524 . S
C2272 C2273 1.397 . S
C2272 C2277 1.363 . S
C2273 H2244 0.950 . S
C2273 C2272 1.397 . S
C2273 C2274 1.334 . S
C2274 H2245 0.950 . S
C2274 C2273 1.334 . S
C2274 C2275 1.287 . S
C2275 C2274 1.287 . S
C2275 C2276 1.524 . S
C2275 H2278 0.999 . S
C2276 H2246 0.950 . S
C2276 C2275 1.524 . S
C2276 C2277 1.415 . S
C2277 H2247 0.950 . S
C2277 C2272 1.363 . S
C2277 C2276 1.415 . S
H2278 C2275 0.999 . S
H2279 C2260 0.913 . S
H2280 C2298 0.951 . S
H2281 C2300 0.951 . S
H2282 C2302 0.950 . S
H2283 C2303 0.950 . S
H2284 C2305 0.950 . S
H2285 C2308 0.941 1_655 S
H2286 C2309 0.950 . S
H2287 C2311 0.950 . S
H2288 C2312 0.950 . S
H2289 C2313 0.951 . S
H2290 C2315 0.951 . S
H2291 C2317 0.950 . S
H2292 C2318 0.950 . S
H2293 C2320 0.950 . S
H2294 C2323 0.950 . S
H2295 C2324 0.950 . S
H2296 C2326 0.950 . S
H2297 C2327 0.950 . S
C2298 H2280 0.951 . S
C2298 C2299 1.366 . S
C2298 C2300 1.388 . S
C2299 C2298 1.366 . S
C2299 C2303 1.385 . S
C2300 H2281 0.951 . S
C2300 C2298 1.388 . S
C2300 C2301 1.366 . S
C2301 C2300 1.366 . S
C2301 C2302 1.414 . S
C2301 C2304 1.499 . S
C2302 H2282 0.950 . S
C2302 C2301 1.414 . S
C2302 C2303 1.374 . S
C2303 H2283 0.950 . S
C2303 C2299 1.385 . S
C2303 C2302 1.374 . S
C2304 C2301 1.499 . S
C2304 C2305 1.373 . S
C2304 C2306 1.389 . S
C2305 H2284 0.950 . S
C2305 C2304 1.373 . S
C2305 C2321 1.377 . S
C2306 C2304 1.389 . S
C2306 C2307 1.524 . S
C2306 C2320 1.377 . S
C2307 C2306 1.524 . S
C2307 C2308 1.397 . S
C2307 C2312 1.363 . S
C2308 H2285 0.941 1_455 S
C2308 C2307 1.397 . S
C2308 C2309 1.334 1_455 S
C2309 H2286 0.950 . S
C2309 C2308 1.334 1_655 S
C2309 C2310 1.287 1_655 S
C2310 C2309 1.287 1_455 S
C2310 C2311 1.524 . S
C2310 H2329 0.913 . S
C2311 H2287 0.950 . S
C2311 C2310 1.524 . S
C2311 C2312 1.415 . S
C2312 H2288 0.950 . S
C2312 C2307 1.363 . S
C2312 C2311 1.415 . S
C2313 H2289 0.951 . S
C2313 C2314 1.366 . S
C2313 C2315 1.388 . S
C2314 C2313 1.366 . S
C2314 C2318 1.385 . S
C2315 H2290 0.951 . S
C2315 C2313 1.388 . S
C2315 C2316 1.366 . S
C2316 C2315 1.366 . S
C2316 C2317 1.414 . S
C2316 C2319 1.499 . S
C2317 H2291 0.950 . S
C2317 C2316 1.414 . S
C2317 C2318 1.374 . S
C2318 H2292 0.950 . S
C2318 C2314 1.385 . S
C2318 C2317 1.374 . S
C2319 C2316 1.499 . S
C2319 C2320 1.373 . S
C2319 C2321 1.389 . S
C2320 H2293 0.950 . S
C2320 C2306 1.377 . S
C2320 C2319 1.373 . S
C2321 C2305 1.377 . S
C2321 C2319 1.389 . S
C2321 C2322 1.524 . S
C2322 C2321 1.524 . S
C2322 C2323 1.397 . S
C2322 C2327 1.363 . S
C2323 H2294 0.950 . S
C2323 C2322 1.397 . S
C2323 C2324 1.334 . S
C2324 H2295 0.950 . S
C2324 C2323 1.334 . S
C2324 C2325 1.287 . S
C2325 C2324 1.287 . S
C2325 C2326 1.524 . S
C2325 H2328 0.999 . S
C2326 H2296 0.950 . S
C2326 C2325 1.524 . S
C2326 C2327 1.415 . S
C2327 H2297 0.950 . S
C2327 C2322 1.363 . S
C2327 C2326 1.415 . S
H2328 C2325 0.999 . S
H2329 C2310 0.913 . S
H2330 C2348 0.951 . S
H2331 C2350 0.951 . S
H2332 C2352 0.950 . S
H2333 C2353 0.950 . S
H2334 C2355 0.950 . S
H2335 C2358 0.950 . S
H2336 C2359 0.950 . S
H2337 C2361 0.950 . S
H2338 C2362 0.950 . S
H2339 C2363 0.951 . S
H2340 C2365 0.951 . S
H2341 C2367 0.950 . S
H2342 C2368 0.950 . S
H2343 C2370 0.950 . S
H2344 C2373 0.950 1_565 S
H2345 C2374 0.950 . S
H2346 C2376 0.950 . S
H2347 C2377 0.950 . S
C2348 H2330 0.951 . S
C2348 C2349 1.366 . S
C2348 C2350 1.388 . S
C2349 C2348 1.366 . S
C2349 C2353 1.385 . S
C2350 H2331 0.951 . S
C2350 C2348 1.388 . S
C2350 C2351 1.366 . S
C2351 C2350 1.366 . S
C2351 C2352 1.414 . S
C2351 C2354 1.499 . S
C2352 H2332 0.950 . S
C2352 C2351 1.414 . S
C2352 C2353 1.374 . S
C2353 H2333 0.950 . S
C2353 C2349 1.385 . S
C2353 C2352 1.374 . S
C2354 C2351 1.499 . S
C2354 C2355 1.373 . S
C2354 C2356 1.389 . S
C2355 H2334 0.950 . S
C2355 C2354 1.373 . S
C2355 C2371 1.377 . S
C2356 C2354 1.389 . S
C2356 C2357 1.524 . S
C2356 C2370 1.377 . S
C2357 C2356 1.524 . S
C2357 C2358 1.397 . S
C2357 C2362 1.363 . S
C2358 H2335 0.950 . S
C2358 C2357 1.397 . S
C2358 C2359 1.334 . S
C2359 H2336 0.950 . S
C2359 C2358 1.334 . S
C2359 C2360 1.287 . S
C2360 C2359 1.287 . S
C2360 C2361 1.524 . S
C2360 H2379 0.913 . S
C2361 H2337 0.950 . S
C2361 C2360 1.524 . S
C2361 C2362 1.415 . S
C2362 H2338 0.950 . S
C2362 C2357 1.363 . S
C2362 C2361 1.415 . S
C2363 H2339 0.951 . S
C2363 C2364 1.366 . S
C2363 C2365 1.388 . S
C2364 C2363 1.366 . S
C2364 C2368 1.385 . S
C2365 H2340 0.951 . S
C2365 C2363 1.388 . S
C2365 C2366 1.366 . S
C2366 C2365 1.366 . S
C2366 C2367 1.414 . S
C2366 C2369 1.499 . S
C2367 H2341 0.950 . S
C2367 C2366 1.414 . S
C2367 C2368 1.374 . S
C2368 H2342 0.950 . S
C2368 C2364 1.385 . S
C2368 C2367 1.374 . S
C2369 C2366 1.499 . S
C2369 C2370 1.373 . S
C2369 C2371 1.389 . S
C2370 H2343 0.950 . S
C2370 C2356 1.377 . S
C2370 C2369 1.373 . S
C2371 C2355 1.377 . S
C2371 C2369 1.389 . S
C2371 C2372 1.524 . S
C2372 C2371 1.524 . S
C2372 C2373 1.397 . S
C2372 C2377 1.363 . S
C2373 H2344 0.950 1_545 S
C2373 C2372 1.397 . S
C2373 C2374 1.334 1_545 S
C2374 H2345 0.950 . S
C2374 C2373 1.334 1_565 S
C2374 C2375 1.287 1_565 S
C2375 C2374 1.287 1_545 S
C2375 C2376 1.524 . S
C2375 H2378 1.012 . S
C2376 H2346 0.950 . S
C2376 C2375 1.524 . S
C2376 C2377 1.415 . S
C2377 H2347 0.950 . S
C2377 C2372 1.363 . S
C2377 C2376 1.415 . S
H2378 C2375 1.012 . S
H2379 C2360 0.913 . S
H2380 C2398 0.951 . S
H2381 C2400 0.951 . S
H2382 C2402 0.950 1_655 S
H2383 C2403 0.950 1_655 S
H2384 C2405 0.950 1_655 S
H2385 C2408 0.950 . S
H2386 C2409 0.950 . S
H2387 C2411 0.950 . S
H2388 C2412 0.950 . S
H2389 C2413 0.937 1_655 S
H2390 C2415 0.951 1_655 S
H2391 C2417 0.950 . S
H2392 C2418 0.950 . S
H2393 C2420 0.950 . S
H2394 C2423 0.950 1_455 S
H2395 C2424 0.950 . S
H2396 C2426 0.950 . S
H2397 C2427 0.950 . S
C2398 H2380 0.951 . S
C2398 C2399 1.366 . S
C2398 C2400 1.388 . S
C2399 C2398 1.366 . S
C2399 C2403 1.385 . S
C2400 H2381 0.951 . S
C2400 C2398 1.388 . S
C2400 C2401 1.366 . S
C2401 C2400 1.366 . S
C2401 C2402 1.414 . S
C2401 C2404 1.499 . S
C2402 H2382 0.950 1_455 S
C2402 C2401 1.414 . S
C2402 C2403 1.374 . S
C2403 H2383 0.950 1_455 S
C2403 C2399 1.385 . S
C2403 C2402 1.374 . S
C2404 C2401 1.499 . S
C2404 C2405 1.373 . S
C2404 C2406 1.389 . S
C2405 H2384 0.950 1_455 S
C2405 C2404 1.373 . S
C2405 C2421 1.377 . S
C2406 C2404 1.389 . S
C2406 C2407 1.524 . S
C2406 C2420 1.377 . S
C2407 C2406 1.524 . S
C2407 C2408 1.397 . S
C2407 C2412 1.363 . S
C2408 H2385 0.950 . S
C2408 C2407 1.397 . S
C2408 C2409 1.334 . S
C2409 H2386 0.950 . S
C2409 C2408 1.334 . S
C2409 C2410 1.287 . S
C2410 C2409 1.287 . S
C2410 C2411 1.524 . S
C2410 H2429 0.913 . S
C2411 H2387 0.950 . S
C2411 C2410 1.524 . S
C2411 C2412 1.415 . S
C2412 H2388 0.950 . S
C2412 C2407 1.363 . S
C2412 C2411 1.415 . S
C2413 H2389 0.937 1_455 S
C2413 C2414 1.366 . S
C2413 C2415 1.388 . S
C2414 C2413 1.366 . S
C2414 C2418 1.385 . S
C2415 H2390 0.951 1_455 S
C2415 C2413 1.388 . S
C2415 C2416 1.366 . S
C2416 C2415 1.366 . S
C2416 C2417 1.414 . S
C2416 C2419 1.499 . S
C2417 H2391 0.950 . S
C2417 C2416 1.414 . S
C2417 C2418 1.374 . S
C2418 H2392 0.950 . S
C2418 C2414 1.385 . S
C2418 C2417 1.374 . S
C2419 C2416 1.499 . S
C2419 C2420 1.373 . S
C2419 C2421 1.389 . S
C2420 H2393 0.950 . S
C2420 C2406 1.377 . S
C2420 C2419 1.373 . S
C2421 C2405 1.377 . S
C2421 C2419 1.389 . S
C2421 C2422 1.524 1_455 S
C2422 C2421 1.524 1_655 S
C2422 C2423 1.397 . S
C2422 C2427 1.363 . S
C2423 H2394 0.950 1_655 S
C2423 C2422 1.397 . S
C2423 C2424 1.334 . S
C2424 H2395 0.950 . S
C2424 C2423 1.334 . S
C2424 C2425 1.287 . S
C2425 C2424 1.287 . S
C2425 C2426 1.524 . S
C2425 H2428 0.999 . S
C2426 H2396 0.950 . S
C2426 C2425 1.524 . S
C2426 C2427 1.415 . S
C2427 H2397 0.950 . S
C2427 C2422 1.363 . S
C2427 C2426 1.415 . S
H2428 C2425 0.999 . S
H2429 C2410 0.913 . S
H2430 C2448 0.951 . S
H2431 C2450 0.951 . S
H2432 C2452 0.950 . S
H2433 C2453 0.948 1_565 S
H2434 C2455 0.950 . S
H2435 C2458 0.950 . S
H2436 C2459 0.950 . S
H2437 C2461 0.950 . S
H2438 C2462 0.950 . S
H2439 C2463 0.951 . S
H2440 C2465 0.951 . S
H2441 C2467 0.950 . S
H2442 C2468 0.950 . S
H2443 C2470 0.974 . S
H2444 C2473 0.950 . S
H2445 C2474 0.950 . S
H2446 C2476 0.950 . S
H2447 C2477 0.950 . S
C2448 H2430 0.951 . S
C2448 C2449 1.366 . S
C2448 C2450 1.388 . S
C2449 C2448 1.366 . S
C2449 C2453 1.385 . S
C2450 H2431 0.951 . S
C2450 C2448 1.388 . S
C2450 C2451 1.366 . S
C2451 C2450 1.366 . S
C2451 C2452 1.414 . S
C2451 C2454 1.499 . S
C2452 H2432 0.950 . S
C2452 C2451 1.414 . S
C2452 C2453 1.374 . S
C2453 H2433 0.948 1_545 S
C2453 C2449 1.385 . S
C2453 C2452 1.374 . S
C2454 C2451 1.499 . S
C2454 C2455 1.373 . S
C2454 C2456 1.389 1_545 S
C2455 H2434 0.950 . S
C2455 C2454 1.373 . S
C2455 C2471 1.377 . S
C2456 C2454 1.389 1_565 S
C2456 C2457 1.524 . S
C2456 C2470 1.383 . S
C2457 C2456 1.524 . S
C2457 C2458 1.397 . S
C2457 C2462 1.363 . S
C2458 H2435 0.950 . S
C2458 C2457 1.397 . S
C2458 C2459 1.334 . S
C2459 H2436 0.950 . S
C2459 C2458 1.334 . S
C2459 C2460 1.287 . S
C2460 C2459 1.287 . S
C2460 C2461 1.524 . S
C2460 H2479 0.913 . S
C2461 H2437 0.950 . S
C2461 C2460 1.524 . S
C2461 C2462 1.415 . S
C2462 H2438 0.950 . S
C2462 C2457 1.363 . S
C2462 C2461 1.415 . S
C2463 H2439 0.951 . S
C2463 C2464 1.366 . S
C2463 C2465 1.388 . S
C2464 C2463 1.366 . S
C2464 C2468 1.385 . S
C2465 H2440 0.951 . S
C2465 C2463 1.388 . S
C2465 C2466 1.366 . S
C2466 C2465 1.366 . S
C2466 C2467 1.414 . S
C2466 C2469 1.499 . S
C2467 H2441 0.950 . S
C2467 C2466 1.414 . S
C2467 C2468 1.374 . S
C2468 H2442 0.950 . S
C2468 C2464 1.385 . S
C2468 C2467 1.374 . S
C2469 C2466 1.499 . S
C2469 C2470 1.345 1_545 S
C2469 C2471 1.389 . S
C2470 H2443 0.974 . S
C2470 C2456 1.383 . S
C2470 C2469 1.345 1_565 S
C2471 C2455 1.377 . S
C2471 C2469 1.389 . S
C2471 C2472 1.524 . S
C2472 C2471 1.524 . S
C2472 C2473 1.397 . S
C2472 C2477 1.363 . S
C2473 H2444 0.950 . S
C2473 C2472 1.397 . S
C2473 C2474 1.334 . S
C2474 H2445 0.950 . S
C2474 C2473 1.334 . S
C2474 C2475 1.287 . S
C2475 C2474 1.287 . S
C2475 C2476 1.524 . S
C2475 H2478 0.999 . S
C2476 H2446 0.950 . S
C2476 C2475 1.524 . S
C2476 C2477 1.415 . S
C2477 H2447 0.950 . S
C2477 C2472 1.363 . S
C2477 C2476 1.415 . S
H2478 C2475 0.999 . S
H2479 C2460 0.913 . S
H2480 C2498 0.951 . S
H2481 C2500 0.951 . S
H2482 C2502 0.950 . S
H2483 C2503 0.950 . S
H2484 C2505 0.950 . S
H2485 C2508 0.950 . S
H2486 C2509 0.950 . S
H2487 C2511 0.950 . S
H2488 C2512 0.950 . S
H2489 C2513 0.951 . S
H2490 C2515 0.951 . S
H2491 C2517 0.950 . S
H2492 C2518 0.950 . S
H2493 C2520 0.950 . S
H2494 C2523 0.950 . S
H2495 C2524 0.950 . S
H2496 C2526 0.950 . S
H2497 C2527 0.950 . S
C2498 H2480 0.951 . S
C2498 C2499 1.366 1_655 S
C2498 C2500 1.388 . S
C2499 C2498 1.366 1_455 S
C2499 C2503 1.385 . S
C2500 H2481 0.951 . S
C2500 C2498 1.388 . S
C2500 C2501 1.366 1_655 S
C2501 C2500 1.366 1_455 S
C2501 C2502 1.414 . S
C2501 C2504 1.499 . S
C2502 H2482 0.950 . S
C2502 C2501 1.414 . S
C2502 C2503 1.374 . S
C2503 H2483 0.950 . S
C2503 C2499 1.385 . S
C2503 C2502 1.374 . S
C2504 C2501 1.499 . S
C2504 C2505 1.373 . S
C2504 C2506 1.389 1_455 S
C2505 H2484 0.950 . S
C2505 C2504 1.373 . S
C2505 C2521 1.377 . S
C2506 C2504 1.389 1_655 S
C2506 C2507 1.524 . S
C2506 C2520 1.377 . S
C2507 C2506 1.524 . S
C2507 C2508 1.397 . S
C2507 C2512 1.363 . S
C2508 H2485 0.950 . S
C2508 C2507 1.397 . S
C2508 C2509 1.334 . S
C2509 H2486 0.950 . S
C2509 C2508 1.334 . S
C2509 C2510 1.287 . S
C2510 C2509 1.287 . S
C2510 C2511 1.524 . S
C2510 H2529 0.913 . S
C2511 H2487 0.950 . S
C2511 C2510 1.524 . S
C2511 C2512 1.415 . S
C2512 H2488 0.950 . S
C2512 C2507 1.363 . S
C2512 C2511 1.415 . S
C2513 H2489 0.951 . S
C2513 C2514 1.366 . S
C2513 C2515 1.388 . S
C2514 C2513 1.366 . S
C2514 C2518 1.385 1_455 S
C2515 H2490 0.951 . S
C2515 C2513 1.388 . S
C2515 C2516 1.366 . S
C2516 C2515 1.366 . S
C2516 C2517 1.414 1_455 S
C2516 C2519 1.499 . S
C2517 H2491 0.950 . S
C2517 C2516 1.414 1_655 S
C2517 C2518 1.374 . S
C2518 H2492 0.950 . S
C2518 C2514 1.385 1_655 S
C2518 C2517 1.374 . S
C2519 C2516 1.499 . S
C2519 C2520 1.373 1_455 S
C2519 C2521 1.389 . S
C2520 H2493 0.950 . S
C2520 C2506 1.377 . S
C2520 C2519 1.373 1_655 S
C2521 C2505 1.377 . S
C2521 C2519 1.389 . S
C2521 C2522 1.524 . S
C2522 C2521 1.524 . S
C2522 C2523 1.397 . S
C2522 C2527 1.363 . S
C2523 H2494 0.950 . S
C2523 C2522 1.397 . S
C2523 C2524 1.334 . S
C2524 H2495 0.950 . S
C2524 C2523 1.334 . S
C2524 C2525 1.287 . S
C2525 C2524 1.287 . S
C2525 C2526 1.524 . S
C2525 H2528 0.999 . S
C2526 H2496 0.950 . S
C2526 C2525 1.524 . S
C2526 C2527 1.415 . S
C2527 H2497 0.950 . S
C2527 C2522 1.363 . S
C2527 C2526 1.415 . S
H2528 C2525 0.999 . S
H2529 C2510 0.913 . S
H2530 C2548 0.951 . S
H2531 C2550 0.951 . S
H2532 C2552 0.950 . S
H2533 C2553 0.950 . S
H2534 C2555 0.950 . S
H2535 C2558 0.950 . S
H2536 C2559 0.950 . S
H2537 C2561 0.950 . S
H2538 C2562 0.950 . S
H2539 C2563 0.951 1_565 S
H2540 C2565 0.952 1_565 S
H2541 C2567 0.950 . S
H2542 C2568 0.950 . S
H2543 C2570 0.950 . S
H2544 C2573 0.950 . S
H2545 C2574 0.950 . S
H2546 C2576 0.950 . S
H2547 C2577 0.950 . S
C2548 H2530 0.951 . S
C2548 C2549 1.366 . S
C2548 C2550 1.388 . S
C2549 C2548 1.366 . S
C2549 C2553 1.385 1_545 S
C2550 H2531 0.951 . S
C2550 C2548 1.388 . S
C2550 C2551 1.366 . S
C2551 C2550 1.366 . S
C2551 C2552 1.414 1_545 S
C2551 C2554 1.499 . S
C2552 H2532 0.950 . S
C2552 C2551 1.414 1_565 S
C2552 C2553 1.374 . S
C2553 H2533 0.950 . S
C2553 C2549 1.385 1_565 S
C2553 C2552 1.374 . S
C2554 C2551 1.499 . S
C2554 C2555 1.373 1_545 S
C2554 C2556 1.389 . S
C2555 H2534 0.950 . S
C2555 C2554 1.373 1_565 S
C2555 C2571 1.377 . S
C2556 C2554 1.389 . S
C2556 C2557 1.524 . S
C2556 C2570 1.377 . S
C2557 C2556 1.524 . S
C2557 C2558 1.397 . S
C2557 C2562 1.363 . S
C2558 H2535 0.950 . S
C2558 C2557 1.397 . S
C2558 C2559 1.334 . S
C2559 H2536 0.950 . S
C2559 C2558 1.334 . S
C2559 C2560 1.287 . S
C2560 C2559 1.287 . S
C2560 C2561 1.524 . S
C2560 H2579 0.913 . S
C2561 H2537 0.950 . S
C2561 C2560 1.524 . S
C2561 C2562 1.415 . S
C2562 H2538 0.950 . S
C2562 C2557 1.363 . S
C2562 C2561 1.415 . S
C2563 H2539 0.951 1_545 S
C2563 C2564 1.366 . S
C2563 C2565 1.388 . S
C2564 C2563 1.366 . S
C2564 C2568 1.385 . S
C2565 H2540 0.952 1_545 S
C2565 C2563 1.388 . S
C2565 C2566 1.364 . S
C2566 C2565 1.364 . S
C2566 C2567 1.414 . S
C2566 C2569 1.499 . S
C2567 H2541 0.950 . S
C2567 C2566 1.414 . S
C2567 C2568 1.374 . S
C2568 H2542 0.950 . S
C2568 C2564 1.385 . S
C2568 C2567 1.374 . S
C2569 C2566 1.499 . S
C2569 C2570 1.373 . S
C2569 C2571 1.389 1_545 S
C2570 H2543 0.950 . S
C2570 C2556 1.377 . S
C2570 C2569 1.373 . S
C2571 C2555 1.377 . S
C2571 C2569 1.389 1_565 S
C2571 C2572 1.524 . S
C2572 C2571 1.524 . S
C2572 C2573 1.397 . S
C2572 C2577 1.363 . S
C2573 H2544 0.950 . S
C2573 C2572 1.397 . S
C2573 C2574 1.334 . S
C2574 H2545 0.950 . S
C2574 C2573 1.334 . S
C2574 C2575 1.287 . S
C2575 C2574 1.287 . S
C2575 C2576 1.524 . S
C2575 H2578 0.999 . S
C2576 H2546 0.950 . S
C2576 C2575 1.524 . S
C2576 C2577 1.415 . S
C2577 H2547 0.950 . S
C2577 C2572 1.363 . S
C2577 C2576 1.415 . S
H2578 C2575 0.999 . S
H2579 C2560 0.913 . S
H2580 C2598 0.951 . S
H2581 C2600 0.951 . S
H2582 C2602 0.950 1_655 S
H2583 C2603 0.950 1_655 S
H2584 C2605 0.950 . S
H2585 C2608 0.950 . S
H2586 C2609 0.950 . S
H2587 C2611 0.950 . S
H2588 C2612 0.950 . S
H2589 C2613 0.910 1_655 S
H2590 C2615 0.951 1_655 S
H2591 C2617 0.950 . S
H2592 C2618 0.950 . S
H2593 C2620 0.950 . S
H2594 C2623 0.950 . S
H2595 C2624 0.950 . S
H2596 C2626 0.950 . S
H2597 C2627 0.950 . S
C2598 H2580 0.951 . S
C2598 C2599 1.366 . S
C2598 C2600 1.388 . S
C2599 C2598 1.366 . S
C2599 C2603 1.385 . S
C2600 H2581 0.951 . S
C2600 C2598 1.388 . S
C2600 C2601 1.366 . S
C2601 C2600 1.366 . S
C2601 C2602 1.414 . S
C2601 C2604 1.499 . S
C2602 H2582 0.950 1_455 S
C2602 C2601 1.414 . S
C2602 C2603 1.374 . S
C2603 H2583 0.950 1_455 S
C2603 C2599 1.385 . S
C2603 C2602 1.374 . S
C2604 C2601 1.499 . S
C2604 C2605 1.373 . S
C2604 C2606 1.389 . S
C2605 H2584 0.950 . S
C2605 C2604 1.373 . S
C2605 C2621 1.377 . S
C2606 C2604 1.389 . S
C2606 C2607 1.524 . S
C2606 C2620 1.377 . S
C2607 C2606 1.524 . S
C2607 C2608 1.397 . S
C2607 C2612 1.363 . S
C2608 H2585 0.950 . S
C2608 C2607 1.397 . S
C2608 C2609 1.334 . S
C2609 H2586 0.950 . S
C2609 C2608 1.334 . S
C2609 C2610 1.287 . S
C2610 C2609 1.287 . S
C2610 C2611 1.524 . S
C2610 H2629 0.913 . S
C2611 H2587 0.950 . S
C2611 C2610 1.524 . S
C2611 C2612 1.415 . S
C2612 H2588 0.950 . S
C2612 C2607 1.363 . S
C2612 C2611 1.415 . S
C2613 H2589 0.910 1_455 S
C2613 C2614 1.405 . S
C2613 C2615 1.390 . S
C2614 C2613 1.405 . S
C2614 C2618 1.385 . S
C2615 H2590 0.951 1_455 S
C2615 C2613 1.390 . S
C2615 C2616 1.366 . S
C2616 C2615 1.366 . S
C2616 C2617 1.414 . S
C2616 C2619 1.499 . S
C2617 H2591 0.950 . S
C2617 C2616 1.414 . S
C2617 C2618 1.374 . S
C2618 H2592 0.950 . S
C2618 C2614 1.385 . S
C2618 C2617 1.374 . S
C2619 C2616 1.499 . S
C2619 C2620 1.373 . S
C2619 C2621 1.389 . S
C2620 H2593 0.950 . S
C2620 C2606 1.377 . S
C2620 C2619 1.373 . S
C2621 C2605 1.377 . S
C2621 C2619 1.389 . S
C2621 C2622 1.524 1_455 S
C2622 C2621 1.524 1_655 S
C2622 C2623 1.397 1_655 S
C2622 C2627 1.363 . S
C2623 H2594 0.950 . S
C2623 C2622 1.397 1_455 S
C2623 C2624 1.334 . S
C2624 H2595 0.950 . S
C2624 C2623 1.334 . S
C2624 C2625 1.287 1_455 S
C2625 C2624 1.287 1_655 S
C2625 C2626 1.524 . S
C2625 H2628 0.999 . S
C2626 H2596 0.950 . S
C2626 C2625 1.524 . S
C2626 C2627 1.415 . S
C2627 H2597 0.950 . S
C2627 C2622 1.363 . S
C2627 C2626 1.415 . S
H2628 C2625 0.999 . S
H2629 C2610 0.913 . S
H2630 C2648 0.951 . S
H2631 C2650 0.951 . S
H2632 C2652 0.950 . S
H2633 C2653 0.950 . S
H2634 C2655 0.950 . S
H2635 C2658 0.950 . S
H2636 C2659 0.950 . S
H2637 C2661 0.950 1_565 S
H2638 C2662 0.950 1_565 S
H2639 C2663 0.951 . S
H2640 C2665 0.951 . S
H2641 C2667 0.950 1_565 S
H2642 C2668 0.950 1_565 S
H2643 C2670 0.950 . S
H2644 C2673 0.950 . S
H2645 C2674 0.950 . S
H2646 C2676 0.950 . S
H2647 C2677 0.950 . S
C2648 H2630 0.951 . S
C2648 C2649 1.366 . S
C2648 C2650 1.388 . S
C2649 C2648 1.366 . S
C2649 C2653 1.385 . S
C2650 H2631 0.951 . S
C2650 C2648 1.388 . S
C2650 C2651 1.366 . S
C2651 C2650 1.366 . S
C2651 C2652 1.414 . S
C2651 C2654 1.499 . S
C2652 H2632 0.950 . S
C2652 C2651 1.414 . S
C2652 C2653 1.374 . S
C2653 H2633 0.950 . S
C2653 C2649 1.385 . S
C2653 C2652 1.374 . S
C2654 C2651 1.499 . S
C2654 C2655 1.373 . S
C2654 C2656 1.389 . S
C2655 H2634 0.950 . S
C2655 C2654 1.373 . S
C2655 C2671 1.377 . S
C2656 C2654 1.389 . S
C2656 C2657 1.524 . S
C2656 C2670 1.377 . S
C2657 C2656 1.524 . S
C2657 C2658 1.397 . S
C2657 C2662 1.363 . S
C2658 H2635 0.950 . S
C2658 C2657 1.397 . S
C2658 C2659 1.334 . S
C2659 H2636 0.950 . S
C2659 C2658 1.334 . S
C2659 C2660 1.287 . S
C2660 C2659 1.287 . S
C2660 C2661 1.524 . S
C2660 H2679 0.913 . S
C2661 H2637 0.950 1_545 S
C2661 C2660 1.524 . S
C2661 C2662 1.415 . S
C2662 H2638 0.950 1_545 S
C2662 C2657 1.363 . S
C2662 C2661 1.415 . S
C2663 H2639 0.951 . S
C2663 C2664 1.366 . S
C2663 C2665 1.388 . S
C2664 C2663 1.366 . S
C2664 C2668 1.385 . S
C2665 H2640 0.951 . S
C2665 C2663 1.388 . S
C2665 C2666 1.366 . S
C2666 C2665 1.366 . S
C2666 C2667 1.414 . S
C2666 C2669 1.499 . S
C2667 H2641 0.950 1_545 S
C2667 C2666 1.414 . S
C2667 C2668 1.374 . S
C2668 H2642 0.950 1_545 S
C2668 C2664 1.385 . S
C2668 C2667 1.374 . S
C2669 C2666 1.499 . S
C2669 C2670 1.373 . S
C2669 C2671 1.389 . S
C2670 H2643 0.950 . S
C2670 C2656 1.377 . S
C2670 C2669 1.373 . S
C2671 C2655 1.377 . S
C2671 C2669 1.389 . S
C2671 C2672 1.524 . S
C2672 C2671 1.524 . S
C2672 C2673 1.397 . S
C2672 C2677 1.363 . S
C2673 H2644 0.950 . S
C2673 C2672 1.397 . S
C2673 C2674 1.334 . S
C2674 H2645 0.950 . S
C2674 C2673 1.334 . S
C2674 C2675 1.287 . S
C2675 C2674 1.287 . S
C2675 C2676 1.524 . S
C2675 H2678 0.999 . S
C2676 H2646 0.950 . S
C2676 C2675 1.524 . S
C2676 C2677 1.415 . S
C2677 H2647 0.950 . S
C2677 C2672 1.363 . S
C2677 C2676 1.415 . S
H2678 C2675 0.999 . S
H2679 C2660 0.913 . S
H2680 C2698 0.958 . S
H2681 C2700 0.942 1_565 S
H2682 C2702 0.950 . S
H2683 C2703 0.950 . S
H2684 C2705 0.950 . S
H2685 C2708 0.950 . S
H2686 C2709 0.950 . S
H2687 C2711 0.950 . S
H2688 C2712 0.950 . S
H2689 C2713 0.951 . S
H2690 C2715 0.951 . S
H2691 C2717 0.962 . S
H2692 C2718 0.950 . S
H2693 C2720 0.950 . S
H2694 C2723 0.950 . S
H2695 C2724 0.950 . S
H2696 C2726 0.950 . S
H2697 C2727 0.950 . S
C2698 H2680 0.958 . S
C2698 C2699 1.361 1_565 S
C2698 C2700 1.385 1_565 S
C2699 C2698 1.361 1_545 S
C2699 C2703 1.385 . S
C2700 H2681 0.942 1_545 S
C2700 C2698 1.385 1_545 S
C2700 C2701 1.380 . S
C2701 C2700 1.380 . S
C2701 C2702 1.414 . S
C2701 C2704 1.499 . S
C2702 H2682 0.950 . S
C2702 C2701 1.414 . S
C2702 C2703 1.374 . S
C2703 H2683 0.950 . S
C2703 C2699 1.385 . S
C2703 C2702 1.374 . S
C2704 C2701 1.499 . S
C2704 C2705 1.373 1_545 S
C2704 C2706 1.389 . S
C2705 H2684 0.950 . S
C2705 C2704 1.373 1_565 S
C2705 C2721 1.377 . S
C2706 C2704 1.389 . S
C2706 C2707 1.524 . S
C2706 C2720 1.377 . S
C2707 C2706 1.524 . S
C2707 C2708 1.397 . S
C2707 C2712 1.363 . S
C2708 H2685 0.950 . S
C2708 C2707 1.397 . S
C2708 C2709 1.334 . S
C2709 H2686 0.950 . S
C2709 C2708 1.334 . S
C2709 C2710 1.287 . S
C2710 C2709 1.287 . S
C2710 C2711 1.524 . S
C2710 H2729 0.913 . S
C2711 H2687 0.950 . S
C2711 C2710 1.524 . S
C2711 C2712 1.415 . S
C2712 H2688 0.950 . S
C2712 C2707 1.363 . S
C2712 C2711 1.415 . S
C2713 H2689 0.951 . S
C2713 C2714 1.366 . S
C2713 C2715 1.388 . S
C2714 C2713 1.366 . S
C2714 C2718 1.385 . S
C2715 H2690 0.951 . S
C2715 C2713 1.388 . S
C2715 C2716 1.366 . S
C2716 C2715 1.366 . S
C2716 C2717 1.414 . S
C2716 C2719 1.499 . S
C2717 H2691 0.962 . S
C2717 C2716 1.414 . S
C2717 C2718 1.374 . S
C2718 H2692 0.950 . S
C2718 C2714 1.385 . S
C2718 C2717 1.374 . S
C2719 C2716 1.499 . S
C2719 C2720 1.373 . S
C2719 C2721 1.389 1_545 S
C2720 H2693 0.950 . S
C2720 C2706 1.377 . S
C2720 C2719 1.373 . S
C2721 C2705 1.377 . S
C2721 C2719 1.389 1_565 S
C2721 C2722 1.524 . S
C2722 C2721 1.524 . S
C2722 C2723 1.397 . S
C2722 C2727 1.363 . S
C2723 H2694 0.950 . S
C2723 C2722 1.397 . S
C2723 C2724 1.334 . S
C2724 H2695 0.950 . S
C2724 C2723 1.334 . S
C2724 C2725 1.287 . S
C2725 C2724 1.287 . S
C2725 C2726 1.524 . S
C2725 H2728 0.999 . S
C2726 H2696 0.950 . S
C2726 C2725 1.524 . S
C2726 C2727 1.415 . S
C2727 H2697 0.950 . S
C2727 C2722 1.363 . S
C2727 C2726 1.415 . S
H2728 C2725 0.999 . S
H2729 C2710 0.913 . S
H2730 C2748 0.951 . S
H2731 C2750 0.951 . S
H2732 C2752 0.950 . S
H2733 C2753 0.950 . S
H2734 C2755 0.950 . S
H2735 C2758 0.969 . S
H2736 C2759 0.950 . S
H2737 C2761 0.950 . S
H2738 C2762 0.950 . S
H2739 C2763 0.951 . S
H2740 C2765 0.951 . S
H2741 C2767 0.950 . S
H2742 C2768 0.950 . S
H2743 C2770 0.950 . S
H2744 C2773 0.950 . S
H2745 C2774 0.950 . S
H2746 C2776 0.950 . S
H2747 C2777 0.950 . S
C2748 H2730 0.951 . S
C2748 C2749 1.366 . S
C2748 C2750 1.388 . S
C2749 C2748 1.366 . S
C2749 C2753 1.385 . S
C2750 H2731 0.951 . S
C2750 C2748 1.388 . S
C2750 C2751 1.366 . S
C2751 C2750 1.366 . S
C2751 C2752 1.414 . S
C2751 C2754 1.499 . S
C2752 H2732 0.950 . S
C2752 C2751 1.414 . S
C2752 C2753 1.374 . S
C2753 H2733 0.950 . S
C2753 C2749 1.385 . S
C2753 C2752 1.374 . S
C2754 C2751 1.499 . S
C2754 C2755 1.373 . S
C2754 C2756 1.389 . S
C2755 H2734 0.950 . S
C2755 C2754 1.373 . S
C2755 C2771 1.377 . S
C2756 C2754 1.389 . S
C2756 C2757 1.524 . S
C2756 C2770 1.377 . S
C2757 C2756 1.524 . S
C2757 C2758 1.360 1_455 S
C2757 C2762 1.363 . S
C2758 H2735 0.969 . S
C2758 C2757 1.360 1_655 S
C2758 C2759 1.354 . S
C2759 H2736 0.950 . S
C2759 C2758 1.354 . S
C2759 C2760 1.287 . S
C2760 C2759 1.287 . S
C2760 C2761 1.524 1_655 S
C2760 H2779 0.913 . S
C2761 H2737 0.950 . S
C2761 C2760 1.524 1_455 S
C2761 C2762 1.415 . S
C2762 H2738 0.950 . S
C2762 C2757 1.363 . S
C2762 C2761 1.415 . S
C2763 H2739 0.951 . S
C2763 C2764 1.366 . S
C2763 C2765 1.388 . S
C2764 C2763 1.366 . S
C2764 C2768 1.385 . S
C2765 H2740 0.951 . S
C2765 C2763 1.388 . S
C2765 C2766 1.366 . S
C2766 C2765 1.366 . S
C2766 C2767 1.414 . S
C2766 C2769 1.499 . S
C2767 H2741 0.950 . S
C2767 C2766 1.414 . S
C2767 C2768 1.374 . S
C2768 H2742 0.950 . S
C2768 C2764 1.385 . S
C2768 C2767 1.374 . S
C2769 C2766 1.499 . S
C2769 C2770 1.373 . S
C2769 C2771 1.389 . S
C2770 H2743 0.950 . S
C2770 C2756 1.377 . S
C2770 C2769 1.373 . S
C2771 C2755 1.377 . S
C2771 C2769 1.389 . S
C2771 C2772 1.524 . S
C2772 C2771 1.524 . S
C2772 C2773 1.397 . S
C2772 C2777 1.363 . S
C2773 H2744 0.950 . S
C2773 C2772 1.397 . S
C2773 C2774 1.334 . S
C2774 H2745 0.950 . S
C2774 C2773 1.334 . S
C2774 C2775 1.287 . S
C2775 C2774 1.287 . S
C2775 C2776 1.524 . S
C2775 H2778 0.999 . S
C2776 H2746 0.950 . S
C2776 C2775 1.524 . S
C2776 C2777 1.415 . S
C2777 H2747 0.950 . S
C2777 C2772 1.363 . S
C2777 C2776 1.415 . S
H2778 C2775 0.999 . S
H2779 C2760 0.913 . S
H2780 C2798 0.951 . S
H2781 C2800 0.951 . S
H2782 C2802 0.950 . S
H2783 C2803 0.950 . S
H2784 C2805 0.950 . S
H2785 C2808 0.950 . S
H2786 C2809 0.950 . S
H2787 C2811 0.950 . S
H2788 C2812 0.950 . S
H2789 C2813 0.951 . S
H2790 C2815 0.951 . S
H2791 C2817 0.950 . S
H2792 C2818 0.950 . S
H2793 C2820 0.950 . S
H2794 C2823 0.950 1_565 S
H2795 C2824 0.925 1_565 S
H2796 C2826 0.950 . S
H2797 C2827 0.950 . S
C2798 H2780 0.951 . S
C2798 C2799 1.366 . S
C2798 C2800 1.388 . S
C2799 C2798 1.366 . S
C2799 C2803 1.385 . S
C2800 H2781 0.951 . S
C2800 C2798 1.388 . S
C2800 C2801 1.366 . S
C2801 C2800 1.366 . S
C2801 C2802 1.414 . S
C2801 C2804 1.499 . S
C2802 H2782 0.950 . S
C2802 C2801 1.414 . S
C2802 C2803 1.374 . S
C2803 H2783 0.950 . S
C2803 C2799 1.385 . S
C2803 C2802 1.374 . S
C2804 C2801 1.499 . S
C2804 C2805 1.373 . S
C2804 C2806 1.389 . S
C2805 H2784 0.950 . S
C2805 C2804 1.373 . S
C2805 C2821 1.377 . S
C2806 C2804 1.389 . S
C2806 C2807 1.524 . S
C2806 C2820 1.377 . S
C2807 C2806 1.524 . S
C2807 C2808 1.397 . S
C2807 C2812 1.363 . S
C2808 H2785 0.950 . S
C2808 C2807 1.397 . S
C2808 C2809 1.334 . S
C2809 H2786 0.950 . S
C2809 C2808 1.334 . S
C2809 C2810 1.287 . S
C2810 C2809 1.287 . S
C2810 C2811 1.524 . S
C2810 H2829 0.913 . S
C2811 H2787 0.950 . S
C2811 C2810 1.524 . S
C2811 C2812 1.415 . S
C2812 H2788 0.950 . S
C2812 C2807 1.363 . S
C2812 C2811 1.415 . S
C2813 H2789 0.951 . S
C2813 C2814 1.366 . S
C2813 C2815 1.388 . S
C2814 C2813 1.366 . S
C2814 C2818 1.385 . S
C2815 H2790 0.951 . S
C2815 C2813 1.388 . S
C2815 C2816 1.366 . S
C2816 C2815 1.366 . S
C2816 C2817 1.414 . S
C2816 C2819 1.499 . S
C2817 H2791 0.950 . S
C2817 C2816 1.414 . S
C2817 C2818 1.374 . S
C2818 H2792 0.950 . S
C2818 C2814 1.385 . S
C2818 C2817 1.374 . S
C2819 C2816 1.499 . S
C2819 C2820 1.373 . S
C2819 C2821 1.389 . S
C2820 H2793 0.950 . S
C2820 C2806 1.377 . S
C2820 C2819 1.373 . S
C2821 C2805 1.377 . S
C2821 C2819 1.389 . S
C2821 C2822 1.524 . S
C2822 C2821 1.524 . S
C2822 C2823 1.397 . S
C2822 C2827 1.363 . S
C2823 H2794 0.950 1_545 S
C2823 C2822 1.397 . S
C2823 C2824 1.344 . S
C2824 H2795 0.925 1_545 S
C2824 C2823 1.344 . S
C2824 C2825 1.304 . S
C2825 C2824 1.304 . S
C2825 C2826 1.524 . S
C2825 H2828 0.999 . S
C2826 H2796 0.950 . S
C2826 C2825 1.524 . S
C2826 C2827 1.415 . S
C2827 H2797 0.950 . S
C2827 C2822 1.363 . S
C2827 C2826 1.415 . S
H2828 C2825 0.999 . S
H2829 C2810 0.913 . S
H2830 C2848 0.951 . S
H2831 C2850 0.951 . S
H2832 C2852 0.950 . S
H2833 C2853 0.950 . S
H2834 C2855 0.950 . S
H2835 C2858 0.950 . S
H2836 C2859 0.950 . S
H2837 C2861 0.950 . S
H2838 C2862 0.950 . S
H2839 C2863 0.951 . S
H2840 C2865 0.951 . S
H2841 C2867 0.950 . S
H2842 C2868 0.971 . S
H2843 C2870 0.921 1_655 S
H2844 C2873 0.950 . S
H2845 C2874 0.950 . S
H2846 C2876 0.950 . S
H2847 C2877 0.950 . S
C2848 H2830 0.951 . S
C2848 C2849 1.366 . S
C2848 C2850 1.388 . S
C2849 C2848 1.366 . S
C2849 C2853 1.385 . S
C2850 H2831 0.951 . S
C2850 C2848 1.388 . S
C2850 C2851 1.366 . S
C2851 C2850 1.366 . S
C2851 C2852 1.414 . S
C2851 C2854 1.499 . S
C2852 H2832 0.950 . S
C2852 C2851 1.414 . S
C2852 C2853 1.374 . S
C2853 H2833 0.950 . S
C2853 C2849 1.385 . S
C2853 C2852 1.374 . S
C2854 C2851 1.499 . S
C2854 C2855 1.373 . S
C2854 C2856 1.426 . S
C2855 H2834 0.950 . S
C2855 C2854 1.373 . S
C2855 C2871 1.377 . S
C2856 C2854 1.426 . S
C2856 C2857 1.486 1_455 S
C2856 C2870 1.376 . S
C2857 C2856 1.486 1_655 S
C2857 C2858 1.397 . S
C2857 C2862 1.363 . S
C2858 H2835 0.950 . S
C2858 C2857 1.397 . S
C2858 C2859 1.334 . S
C2859 H2836 0.950 . S
C2859 C2858 1.334 . S
C2859 C2860 1.287 . S
C2860 C2859 1.287 . S
C2860 C2861 1.524 . S
C2860 H2879 0.913 . S
C2861 H2837 0.950 . S
C2861 C2860 1.524 . S
C2861 C2862 1.415 . S
C2862 H2838 0.950 . S
C2862 C2857 1.363 . S
C2862 C2861 1.415 . S
C2863 H2839 0.951 . S
C2863 C2864 1.366 . S
C2863 C2865 1.388 . S
C2864 C2863 1.366 . S
C2864 C2868 1.385 . S
C2865 H2840 0.951 . S
C2865 C2863 1.388 . S
C2865 C2866 1.366 . S
C2866 C2865 1.366 . S
C2866 C2867 1.414 . S
C2866 C2869 1.499 . S
C2867 H2841 0.950 . S
C2867 C2866 1.414 . S
C2867 C2868 1.374 . S
C2868 H2842 0.971 . S
C2868 C2864 1.385 . S
C2868 C2867 1.374 . S
C2869 C2866 1.499 . S
C2869 C2870 1.402 . S
C2869 C2871 1.389 . S
C2870 H2843 0.921 1_455 S
C2870 C2856 1.376 . S
C2870 C2869 1.402 . S
C2871 C2855 1.377 . S
C2871 C2869 1.389 . S
C2871 C2872 1.524 . S
C2872 C2871 1.524 . S
C2872 C2873 1.397 . S
C2872 C2877 1.363 . S
C2873 H2844 0.950 . S
C2873 C2872 1.397 . S
C2873 C2874 1.334 . S
C2874 H2845 0.950 . S
C2874 C2873 1.334 . S
C2874 C2875 1.287 . S
C2875 C2874 1.287 . S
C2875 C2876 1.524 . S
C2875 H2878 0.999 . S
C2876 H2846 0.950 . S
C2876 C2875 1.524 . S
C2876 C2877 1.415 . S
C2877 H2847 0.950 . S
C2877 C2872 1.363 . S
C2877 C2876 1.415 . S
H2878 C2875 0.999 . S
H2879 C2860 0.913 . S
H2880 C2898 0.957 . S
H2881 C2900 0.951 . S
H2882 C2902 0.950 . S
H2883 C2903 0.950 . S
H2884 C2905 0.950 . S
H2885 C2908 0.950 . S
H2886 C2909 0.950 . S
H2887 C2911 0.950 . S
H2888 C2912 0.950 . S
H2889 C2913 0.951 . S
H2890 C2915 0.951 . S
H2891 C2917 0.950 . S
H2892 C2918 0.950 . S
H2893 C2920 0.950 . S
H2894 C2923 0.950 . S
H2895 C2924 0.950 . S
H2896 C2926 0.950 . S
H2897 C2927 0.950 . S
C2898 H2880 0.957 . S
C2898 C2899 1.366 . S
C2898 C2900 1.388 . S
C2899 C2898 1.366 . S
C2899 C2903 1.385 . S
C2900 H2881 0.951 . S
C2900 C2898 1.388 . S
C2900 C2901 1.366 . S
C2901 C2900 1.366 . S
C2901 C2902 1.414 . S
C2901 C2904 1.499 . S
C2902 H2882 0.950 . S
C2902 C2901 1.414 . S
C2902 C2903 1.374 . S
C2903 H2883 0.950 . S
C2903 C2899 1.385 . S
C2903 C2902 1.374 . S
C2904 C2901 1.499 . S
C2904 C2905 1.373 1_545 S
C2904 C2906 1.389 . S
C2905 H2884 0.950 . S
C2905 C2904 1.373 1_565 S
C2905 C2921 1.377 . S
C2906 C2904 1.389 . S
C2906 C2907 1.524 . S
C2906 C2920 1.377 . S
C2907 C2906 1.524 . S
C2907 C2908 1.397 . S
C2907 C2912 1.363 . S
C2908 H2885 0.950 . S
C2908 C2907 1.397 . S
C2908 C2909 1.334 . S
C2909 H2886 0.950 . S
C2909 C2908 1.334 . S
C2909 C2910 1.287 . S
C2910 C2909 1.287 . S
C2910 C2911 1.524 . S
C2910 H2929 0.913 . S
C2911 H2887 0.950 . S
C2911 C2910 1.524 . S
C2911 C2912 1.415 . S
C2912 H2888 0.950 . S
C2912 C2907 1.363 . S
C2912 C2911 1.415 . S
C2913 H2889 0.951 . S
C2913 C2914 1.366 . S
C2913 C2915 1.388 . S
C2914 C2913 1.366 . S
C2914 C2918 1.385 . S
C2915 H2890 0.951 . S
C2915 C2913 1.388 . S
C2915 C2916 1.366 . S
C2916 C2915 1.366 . S
C2916 C2917 1.414 . S
C2916 C2919 1.499 . S
C2917 H2891 0.950 . S
C2917 C2916 1.414 . S
C2917 C2918 1.374 . S
C2918 H2892 0.950 . S
C2918 C2914 1.385 . S
C2918 C2917 1.374 . S
C2919 C2916 1.499 . S
C2919 C2920 1.373 . S
C2919 C2921 1.389 1_545 S
C2920 H2893 0.950 . S
C2920 C2906 1.377 . S
C2920 C2919 1.373 . S
C2921 C2905 1.377 . S
C2921 C2919 1.389 1_565 S
C2921 C2922 1.524 . S
C2922 C2921 1.524 . S
C2922 C2923 1.397 . S
C2922 C2927 1.363 . S
C2923 H2894 0.950 . S
C2923 C2922 1.397 . S
C2923 C2924 1.334 . S
C2924 H2895 0.950 . S
C2924 C2923 1.334 . S
C2924 C2925 1.287 . S
C2925 C2924 1.287 . S
C2925 C2926 1.524 . S
C2925 H2928 0.999 . S
C2926 H2896 0.950 . S
C2926 C2925 1.524 . S
C2926 C2927 1.415 . S
C2927 H2897 0.950 . S
C2927 C2922 1.363 . S
C2927 C2926 1.415 . S
H2928 C2925 0.999 . S
H2929 C2910 0.913 . S
H2930 C2948 0.951 . S
H2931 C2950 0.951 . S
H2932 C2952 0.950 1_655 S
H2933 C2953 0.950 1_655 S
H2934 C2955 0.950 . S
H2935 C2958 0.950 . S
H2936 C2959 0.950 . S
H2937 C2961 0.950 . S
H2938 C2962 0.950 . S
H2939 C2963 0.951 1_655 S
H2940 C2965 0.951 1_655 S
H2941 C2967 0.950 . S
H2942 C2968 0.950 . S
H2943 C2970 0.950 . S
H2944 C2973 0.950 . S
H2945 C2974 0.950 . S
H2946 C2976 0.950 . S
H2947 C2977 0.950 . S
C2948 H2930 0.951 . S
C2948 C2949 1.366 . S
C2948 C2950 1.388 . S
C2949 C2948 1.366 . S
C2949 C2953 1.385 . S
C2950 H2931 0.951 . S
C2950 C2948 1.388 . S
C2950 C2951 1.366 . S
C2951 C2950 1.366 . S
C2951 C2952 1.414 . S
C2951 C2954 1.499 . S
C2952 H2932 0.950 1_455 S
C2952 C2951 1.414 . S
C2952 C2953 1.374 . S
C2953 H2933 0.950 1_455 S
C2953 C2949 1.385 . S
C2953 C2952 1.374 . S
C2954 C2951 1.499 . S
C2954 C2955 1.373 . S
C2954 C2956 1.389 . S
C2955 H2934 0.950 . S
C2955 C2954 1.373 . S
C2955 C2971 1.377 . S
C2956 C2954 1.389 . S
C2956 C2957 1.524 . S
C2956 C2970 1.377 . S
C2957 C2956 1.524 . S
C2957 C2958 1.397 . S
C2957 C2962 1.363 . S
C2958 H2935 0.950 . S
C2958 C2957 1.397 . S
C2958 C2959 1.334 . S
C2959 H2936 0.950 . S
C2959 C2958 1.334 . S
C2959 C2960 1.287 . S
C2960 C2959 1.287 . S
C2960 C2961 1.524 . S
C2960 H2979 0.913 . S
C2961 H2937 0.950 . S
C2961 C2960 1.524 . S
C2961 C2962 1.415 . S
C2962 H2938 0.950 . S
C2962 C2957 1.363 . S
C2962 C2961 1.415 . S
C2963 H2939 0.951 1_455 S
C2963 C2964 1.366 . S
C2963 C2965 1.388 . S
C2964 C2963 1.366 . S
C2964 C2968 1.385 . S
C2965 H2940 0.951 1_455 S
C2965 C2963 1.388 . S
C2965 C2966 1.366 . S
C2966 C2965 1.366 . S
C2966 C2967 1.414 . S
C2966 C2969 1.499 . S
C2967 H2941 0.950 . S
C2967 C2966 1.414 . S
C2967 C2968 1.374 . S
C2968 H2942 0.950 . S
C2968 C2964 1.385 . S
C2968 C2967 1.374 . S
C2969 C2966 1.499 . S
C2969 C2970 1.373 . S
C2969 C2971 1.389 . S
C2970 H2943 0.950 . S
C2970 C2956 1.377 . S
C2970 C2969 1.373 . S
C2971 C2955 1.377 . S
C2971 C2969 1.389 . S
C2971 C2972 1.524 . S
C2972 C2971 1.524 . S
C2972 C2973 1.397 . S
C2972 C2977 1.363 1_455 S
C2973 H2944 0.950 . S
C2973 C2972 1.397 . S
C2973 C2974 1.334 . S
C2974 H2945 0.950 . S
C2974 C2973 1.334 . S
C2974 C2975 1.287 1_455 S
C2975 C2974 1.287 1_655 S
C2975 C2976 1.524 . S
C2975 H2978 0.999 . S
C2976 H2946 0.950 . S
C2976 C2975 1.524 . S
C2976 C2977 1.415 . S
C2977 H2947 0.950 . S
C2977 C2972 1.363 1_655 S
C2977 C2976 1.415 . S
H2978 C2975 0.999 . S
H2979 C2960 0.913 . S
H2980 C2998 0.951 . S
H2981 C3000 0.951 . S
H2982 C3002 0.950 . S
H2983 C3003 0.950 . S
H2984 C3005 0.950 . S
H2985 C3008 0.950 . S
H2986 C3009 0.950 . S
H2987 C3011 0.950 1_565 S
H2988 C3012 0.950 1_565 S
H2989 C3013 0.951 . S
H2990 C3015 0.951 . S
H2991 C3017 0.957 . S
H2992 C3018 0.950 1_565 S
H2993 C3020 0.950 . S
H2994 C3023 0.950 . S
H2995 C3024 0.950 . S
H2996 C3026 0.950 . S
H2997 C3027 0.950 . S
C2998 H2980 0.951 . S
C2998 C2999 1.366 . S
C2998 C3000 1.388 . S
C2999 C2998 1.366 . S
C2999 C3003 1.385 . S
C3000 H2981 0.951 . S
C3000 C2998 1.388 . S
C3000 C3001 1.366 . S
C3001 C3000 1.366 . S
C3001 C3002 1.414 . S
C3001 C3004 1.499 . S
C3002 H2982 0.950 . S
C3002 C3001 1.414 . S
C3002 C3003 1.374 . S
C3003 H2983 0.950 . S
C3003 C2999 1.385 . S
C3003 C3002 1.374 . S
C3004 C3001 1.499 . S
C3004 C3005 1.373 . S
C3004 C3006 1.389 . S
C3005 H2984 0.950 . S
C3005 C3004 1.373 . S
C3005 C3021 1.377 . S
C3006 C3004 1.389 . S
C3006 C3007 1.524 . S
C3006 C3020 1.377 . S
C3007 C3006 1.524 . S
C3007 C3008 1.397 . S
C3007 C3012 1.363 . S
C3008 H2985 0.950 . S
C3008 C3007 1.397 . S
C3008 C3009 1.334 . S
C3009 H2986 0.950 . S
C3009 C3008 1.334 . S
C3009 C3010 1.287 . S
C3010 C3009 1.287 . S
C3010 C3011 1.524 . S
C3010 H3029 0.913 . S
C3011 H2987 0.950 1_545 S
C3011 C3010 1.524 . S
C3011 C3012 1.415 . S
C3012 H2988 0.950 1_545 S
C3012 C3007 1.363 . S
C3012 C3011 1.415 . S
C3013 H2989 0.951 . S
C3013 C3014 1.366 . S
C3013 C3015 1.388 . S
C3014 C3013 1.366 . S
C3014 C3018 1.385 . S
C3015 H2990 0.951 . S
C3015 C3013 1.388 . S
C3015 C3016 1.366 . S
C3016 C3015 1.366 . S
C3016 C3017 1.414 . S
C3016 C3019 1.499 . S
C3017 H2991 0.957 . S
C3017 C3016 1.414 . S
C3017 C3018 1.374 . S
C3018 H2992 0.950 1_545 S
C3018 C3014 1.385 . S
C3018 C3017 1.374 . S
C3019 C3016 1.499 . S
C3019 C3020 1.373 . S
C3019 C3021 1.389 . S
C3020 H2993 0.950 . S
C3020 C3006 1.377 . S
C3020 C3019 1.373 . S
C3021 C3005 1.377 . S
C3021 C3019 1.389 . S
C3021 C3022 1.524 . S
C3022 C3021 1.524 . S
C3022 C3023 1.397 . S
C3022 C3027 1.363 . S
C3023 H2994 0.950 . S
C3023 C3022 1.397 . S
C3023 C3024 1.334 . S
C3024 H2995 0.950 . S
C3024 C3023 1.334 . S
C3024 C3025 1.287 . S
C3025 C3024 1.287 . S
C3025 C3026 1.524 . S
C3025 H3028 0.999 . S
C3026 H2996 0.950 . S
C3026 C3025 1.524 . S
C3026 C3027 1.415 . S
C3027 H2997 0.950 . S
C3027 C3022 1.363 . S
C3027 C3026 1.415 . S
H3028 C3025 0.999 . S
H3029 C3010 0.913 . S
H3030 C3048 0.951 . S
H3031 C3050 0.951 . S
H3032 C3052 0.950 . S
H3033 C3053 0.950 . S
H3034 C3055 0.950 1_655 S
H3035 C3058 0.950 1_655 S
H3036 C3059 0.950 1_655 S
H3037 C3061 0.950 . S
H3038 C3062 0.950 . S
H3039 C3063 0.951 1_655 S
H3040 C3065 0.951 1_655 S
H3041 C3067 0.950 . S
H3042 C3068 0.950 . S
H3043 C3070 0.950 . S
H3044 C3073 0.950 . S
H3045 C3074 0.950 . S
H3046 C3076 0.950 . S
H3047 C3077 0.950 . S
C3048 H3030 0.951 . S
C3048 C3049 1.366 . S
C3048 C3050 1.388 . S
C3049 C3048 1.366 . S
C3049 C3053 1.385 1_455 S
C3050 H3031 0.951 . S
C3050 C3048 1.388 . S
C3050 C3051 1.366 . S
C3051 C3050 1.366 . S
C3051 C3052 1.414 1_455 S
C3051 C3054 1.499 . S
C3052 H3032 0.950 . S
C3052 C3051 1.414 1_655 S
C3052 C3053 1.374 . S
C3053 H3033 0.950 . S
C3053 C3049 1.385 1_655 S
C3053 C3052 1.374 . S
C3054 C3051 1.499 . S
C3054 C3055 1.373 . S
C3054 C3056 1.389 . S
C3055 H3034 0.950 1_455 S
C3055 C3054 1.373 . S
C3055 C3071 1.377 . S
C3056 C3054 1.389 . S
C3056 C3057 1.524 . S
C3056 C3070 1.377 . S
C3057 C3056 1.524 . S
C3057 C3058 1.397 . S
C3057 C3062 1.363 . S
C3058 H3035 0.950 1_455 S
C3058 C3057 1.397 . S
C3058 C3059 1.334 . S
C3059 H3036 0.950 1_455 S
C3059 C3058 1.334 . S
C3059 C3060 1.287 . S
C3060 C3059 1.287 . S
C3060 C3061 1.524 . S
C3060 H3079 0.913 . S
C3061 H3037 0.950 . S
C3061 C3060 1.524 . S
C3061 C3062 1.415 . S
C3062 H3038 0.950 . S
C3062 C3057 1.363 . S
C3062 C3061 1.415 . S
C3063 H3039 0.951 1_455 S
C3063 C3064 1.366 . S
C3063 C3065 1.388 . S
C3064 C3063 1.366 . S
C3064 C3068 1.385 . S
C3065 H3040 0.951 1_455 S
C3065 C3063 1.388 . S
C3065 C3066 1.365 . S
C3066 C3065 1.365 . S
C3066 C3067 1.414 . S
C3066 C3069 1.499 . S
C3067 H3041 0.950 . S
C3067 C3066 1.414 . S
C3067 C3068 1.374 . S
C3068 H3042 0.950 . S
C3068 C3064 1.385 . S
C3068 C3067 1.374 . S
C3069 C3066 1.499 . S
C3069 C3070 1.373 . S
C3069 C3071 1.389 . S
C3070 H3043 0.950 . S
C3070 C3056 1.377 . S
C3070 C3069 1.373 . S
C3071 C3055 1.377 . S
C3071 C3069 1.389 . S
C3071 C3072 1.524 . S
C3072 C3071 1.524 . S
C3072 C3073 1.397 . S
C3072 C3077 1.363 1_455 S
C3073 H3044 0.950 . S
C3073 C3072 1.397 . S
C3073 C3074 1.334 . S
C3074 H3045 0.950 . S
C3074 C3073 1.334 . S
C3074 C3075 1.287 1_455 S
C3075 C3074 1.287 1_655 S
C3075 C3076 1.524 . S
C3075 H3078 0.999 . S
C3076 H3046 0.950 . S
C3076 C3075 1.524 . S
C3076 C3077 1.415 . S
C3077 H3047 0.950 . S
C3077 C3072 1.363 1_655 S
C3077 C3076 1.415 . S
H3078 C3075 0.999 . S
H3079 C3060 0.913 . S
H3080 C3098 0.922 1_556 S
H3081 C3100 0.929 1_556 S
H3082 C3102 0.950 . S
H3083 C3103 0.950 . S
H3084 C3105 0.950 . S
H3085 C3108 0.950 . S
H3086 C3109 0.950 . S
H3087 C3111 0.950 . S
H3088 C3112 0.950 . S
H3089 C3113 0.951 . S
H3090 C3115 0.951 . S
H3091 C3117 0.950 . S
H3092 C3118 0.950 . S
H3093 C3120 0.950 . S
H3094 C3123 0.950 . S
H3095 C3124 0.950 . S
H3096 C3126 0.950 . S
H3097 C3127 0.950 . S
C3098 H3080 0.922 1_554 S
C3098 C3099 1.395 . S
C3098 C3100 1.388 . S
C3099 C3098 1.395 . S
C3099 C3103 1.385 . S
C3100 H3081 0.929 1_554 S
C3100 C3098 1.388 . S
C3100 C3101 1.387 . S
C3101 C3100 1.387 . S
C3101 C3102 1.414 . S
C3101 C3104 1.499 . S
C3102 H3082 0.950 . S
C3102 C3101 1.414 . S
C3102 C3103 1.374 . S
C3103 H3083 0.950 . S
C3103 C3099 1.385 . S
C3103 C3102 1.374 . S
C3104 C3101 1.499 . S
C3104 C3105 1.373 . S
C3104 C3106 1.389 . S
C3105 H3084 0.950 . S
C3105 C3104 1.373 . S
C3105 C3121 1.377 . S
C3106 C3104 1.389 . S
C3106 C3107 1.524 . S
C3106 C3120 1.377 . S
C3107 C3106 1.524 . S
C3107 C3108 1.397 . S
C3107 C3112 1.363 1_554 S
C3108 H3085 0.950 . S
C3108 C3107 1.397 . S
C3108 C3109 1.334 . S
C3109 H3086 0.950 . S
C3109 C3108 1.334 . S
C3109 C3110 1.287 1_554 S
C3110 C3109 1.287 1_556 S
C3110 C3111 1.524 . S
C3110 H3129 0.913 . S
C3111 H3087 0.950 . S
C3111 C3110 1.524 . S
C3111 C3112 1.415 . S
C3112 H3088 0.950 . S
C3112 C3107 1.363 1_556 S
C3112 C3111 1.415 . S
C3113 H3089 0.951 . S
C3113 C3114 1.366 . S
C3113 C3115 1.388 . S
C3114 C3113 1.366 . S
C3114 C3118 1.385 1_554 S
C3115 H3090 0.951 . S
C3115 C3113 1.388 . S
C3115 C3116 1.366 . S
C3116 C3115 1.366 . S
C3116 C3117 1.414 1_554 S
C3116 C3119 1.499 . S
C3117 H3091 0.950 . S
C3117 C3116 1.414 1_556 S
C3117 C3118 1.374 . S
C3118 H3092 0.950 . S
C3118 C3114 1.385 1_556 S
C3118 C3117 1.374 . S
C3119 C3116 1.499 . S
C3119 C3120 1.373 . S
C3119 C3121 1.389 . S
C3120 H3093 0.950 . S
C3120 C3106 1.377 . S
C3120 C3119 1.373 . S
C3121 C3105 1.377 . S
C3121 C3119 1.389 . S
C3121 C3122 1.524 . S
C3122 C3121 1.524 . S
C3122 C3123 1.397 . S
C3122 C3127 1.363 . S
C3123 H3094 0.950 . S
C3123 C3122 1.397 . S
C3123 C3124 1.334 . S
C3124 H3095 0.950 . S
C3124 C3123 1.334 . S
C3124 C3125 1.287 . S
C3125 C3124 1.287 . S
C3125 C3126 1.524 . S
C3125 H3128 0.999 . S
C3126 H3096 0.950 . S
C3126 C3125 1.524 . S
C3126 C3127 1.415 . S
C3127 H3097 0.950 . S
C3127 C3122 1.363 . S
C3127 C3126 1.415 . S
H3128 C3125 0.999 . S
H3129 C3110 0.913 . S
H3130 C3148 0.951 1_556 S
H3131 C3150 0.921 1_556 S
H3132 C3152 0.950 . S
H3133 C3153 0.950 . S
H3134 C3155 0.950 . S
H3135 C3158 0.950 . S
H3136 C3159 0.950 . S
H3137 C3161 0.950 . S
H3138 C3162 0.950 . S
H3139 C3163 0.951 . S
H3140 C3165 0.951 . S
H3141 C3167 0.933 1_556 S
H3142 C3168 0.939 1_556 S
H3143 C3170 0.950 . S
H3144 C3173 0.950 . S
H3145 C3174 0.950 . S
H3146 C3176 0.950 . S
H3147 C3177 0.950 . S
C3148 H3130 0.951 1_554 S
C3148 C3149 1.366 . S
C3148 C3150 1.390 . S
C3149 C3148 1.366 . S
C3149 C3153 1.385 . S
C3150 H3131 0.921 1_554 S
C3150 C3148 1.390 . S
C3150 C3151 1.396 . S
C3151 C3150 1.396 . S
C3151 C3152 1.414 . S
C3151 C3154 1.499 . S
C3152 H3132 0.950 . S
C3152 C3151 1.414 . S
C3152 C3153 1.374 . S
C3153 H3133 0.950 . S
C3153 C3149 1.385 . S
C3153 C3152 1.374 . S
C3154 C3151 1.499 . S
C3154 C3155 1.373 . S
C3154 C3156 1.389 1_554 S
C3155 H3134 0.950 . S
C3155 C3154 1.373 . S
C3155 C3171 1.377 . S
C3156 C3154 1.389 1_556 S
C3156 C3157 1.524 . S
C3156 C3170 1.377 . S
C3157 C3156 1.524 . S
C3157 C3158 1.397 . S
C3157 C3162 1.363 . S
C3158 H3135 0.950 . S
C3158 C3157 1.397 . S
C3158 C3159 1.334 . S
C3159 H3136 0.950 . S
C3159 C3158 1.334 . S
C3159 C3160 1.287 . S
C3160 C3159 1.287 . S
C3160 C3161 1.524 . S
C3160 H3179 0.913 . S
C3161 H3137 0.950 . S
C3161 C3160 1.524 . S
C3161 C3162 1.415 . S
C3162 H3138 0.950 . S
C3162 C3157 1.363 . S
C3162 C3161 1.415 . S
C3163 H3139 0.951 . S
C3163 C3164 1.366 . S
C3163 C3165 1.388 . S
C3164 C3163 1.366 . S
C3164 C3168 1.395 . S
C3165 H3140 0.951 . S
C3165 C3163 1.388 . S
C3165 C3166 1.366 . S
C3166 C3165 1.366 . S
C3166 C3167 1.432 . S
C3166 C3169 1.499 . S
C3167 H3141 0.933 1_554 S
C3167 C3166 1.432 . S
C3167 C3168 1.374 . S
C3168 H3142 0.939 1_554 S
C3168 C3164 1.395 . S
C3168 C3167 1.374 . S
C3169 C3166 1.499 . S
C3169 C3170 1.373 1_554 S
C3169 C3171 1.389 . S
C3170 H3143 0.950 . S
C3170 C3156 1.377 . S
C3170 C3169 1.373 1_556 S
C3171 C3155 1.377 . S
C3171 C3169 1.389 . S
C3171 C3172 1.524 . S
C3172 C3171 1.524 . S
C3172 C3173 1.397 . S
C3172 C3177 1.363 . S
C3173 H3144 0.950 . S
C3173 C3172 1.397 . S
C3173 C3174 1.334 . S
C3174 H3145 0.950 . S
C3174 C3173 1.334 . S
C3174 C3175 1.287 . S
C3175 C3174 1.287 . S
C3175 C3176 1.524 . S
C3175 H3178 0.999 . S
C3176 H3146 0.950 . S
C3176 C3175 1.524 . S
C3176 C3177 1.415 . S
C3177 H3147 0.950 . S
C3177 C3172 1.363 . S
C3177 C3176 1.415 . S
H3178 C3175 0.999 . S
H3179 C3160 0.913 . S
H3180 C3198 0.951 . S
H3181 C3200 0.951 . S
H3182 C3202 0.950 . S
H3183 C3203 0.950 . S
H3184 C3205 0.950 . S
H3185 C3208 0.950 . S
H3186 C3209 0.950 . S
H3187 C3211 0.950 . S
H3188 C3212 0.950 . S
H3189 C3213 0.951 . S
H3190 C3215 0.951 . S
H3191 C3217 0.950 1_556 S
H3192 C3218 0.934 1_556 S
H3193 C3220 0.950 . S
H3194 C3223 0.950 . S
H3195 C3224 0.950 . S
H3196 C3226 0.950 . S
H3197 C3227 0.950 . S
C3198 H3180 0.951 . S
C3198 C3199 1.366 . S
C3198 C3200 1.388 . S
C3199 C3198 1.366 . S
C3199 C3203 1.385 . S
C3200 H3181 0.951 . S
C3200 C3198 1.388 . S
C3200 C3201 1.366 . S
C3201 C3200 1.366 . S
C3201 C3202 1.414 . S
C3201 C3204 1.499 . S
C3202 H3182 0.950 . S
C3202 C3201 1.414 . S
C3202 C3203 1.374 . S
C3203 H3183 0.950 . S
C3203 C3199 1.385 . S
C3203 C3202 1.374 . S
C3204 C3201 1.499 . S
C3204 C3205 1.373 . S
C3204 C3206 1.389 . S
C3205 H3184 0.950 . S
C3205 C3204 1.373 . S
C3205 C3221 1.377 . S
C3206 C3204 1.389 . S
C3206 C3207 1.524 . S
C3206 C3220 1.377 . S
C3207 C3206 1.524 . S
C3207 C3208 1.397 . S
C3207 C3212 1.363 . S
C3208 H3185 0.950 . S
C3208 C3207 1.397 . S
C3208 C3209 1.334 . S
C3209 H3186 0.950 . S
C3209 C3208 1.334 . S
C3209 C3210 1.287 . S
C3210 C3209 1.287 . S
C3210 C3211 1.524 . S
C3210 H3229 0.913 . S
C3211 H3187 0.950 . S
C3211 C3210 1.524 . S
C3211 C3212 1.415 . S
C3212 H3188 0.950 . S
C3212 C3207 1.363 . S
C3212 C3211 1.415 . S
C3213 H3189 0.951 . S
C3213 C3214 1.366 . S
C3213 C3215 1.388 . S
C3214 C3213 1.366 . S
C3214 C3218 1.400 . S
C3215 H3190 0.951 . S
C3215 C3213 1.388 . S
C3215 C3216 1.366 . S
C3216 C3215 1.366 . S
C3216 C3217 1.414 . S
C3216 C3219 1.499 . S
C3217 H3191 0.950 1_554 S
C3217 C3216 1.414 . S
C3217 C3218 1.376 . S
C3218 H3192 0.934 1_554 S
C3218 C3214 1.400 . S
C3218 C3217 1.376 . S
C3219 C3216 1.499 . S
C3219 C3220 1.373 . S
C3219 C3221 1.389 . S
C3220 H3193 0.950 . S
C3220 C3206 1.377 . S
C3220 C3219 1.373 . S
C3221 C3205 1.377 . S
C3221 C3219 1.389 . S
C3221 C3222 1.524 1_554 S
C3222 C3221 1.524 1_556 S
C3222 C3223 1.397 . S
C3222 C3227 1.363 1_556 S
C3223 H3194 0.950 . S
C3223 C3222 1.397 . S
C3223 C3224 1.334 . S
C3224 H3195 0.950 . S
C3224 C3223 1.334 . S
C3224 C3225 1.287 . S
C3225 C3224 1.287 . S
C3225 C3226 1.524 . S
C3225 H3228 0.999 . S
C3226 H3196 0.950 . S
C3226 C3225 1.524 . S
C3226 C3227 1.415 1_556 S
C3227 H3197 0.950 . S
C3227 C3222 1.363 1_554 S
C3227 C3226 1.415 1_554 S
H3228 C3225 0.999 . S
H3229 C3210 0.913 . S
H3230 C3248 0.951 . S
H3231 C3250 0.951 . S
H3232 C3252 0.950 . S
H3233 C3253 0.950 . S
H3234 C3255 0.950 . S
H3235 C3258 0.950 . S
H3236 C3259 0.950 . S
H3237 C3261 0.950 . S
H3238 C3262 0.950 . S
H3239 C3263 0.951 . S
H3240 C3265 0.951 . S
H3241 C3267 0.950 . S
H3242 C3268 0.950 . S
H3243 C3270 0.950 . S
H3244 C3273 0.950 . S
H3245 C3274 0.950 . S
H3246 C3276 0.950 . S
H3247 C3277 0.950 . S
C3248 H3230 0.951 . S
C3248 C3249 1.366 . S
C3248 C3250 1.388 . S
C3249 C3248 1.366 . S
C3249 C3253 1.385 1_554 S
C3250 H3231 0.951 . S
C3250 C3248 1.388 . S
C3250 C3251 1.366 . S
C3251 C3250 1.366 . S
C3251 C3252 1.414 1_554 S
C3251 C3254 1.499 . S
C3252 H3232 0.950 . S
C3252 C3251 1.414 1_556 S
C3252 C3253 1.374 . S
C3253 H3233 0.950 . S
C3253 C3249 1.385 1_556 S
C3253 C3252 1.374 . S
C3254 C3251 1.499 . S
C3254 C3255 1.373 1_554 S
C3254 C3256 1.389 . S
C3255 H3234 0.950 . S
C3255 C3254 1.373 1_556 S
C3255 C3271 1.377 . S
C3256 C3254 1.389 . S
C3256 C3257 1.524 . S
C3256 C3270 1.377 . S
C3257 C3256 1.524 . S
C3257 C3258 1.397 . S
C3257 C3262 1.363 . S
C3258 H3235 0.950 . S
C3258 C3257 1.397 . S
C3258 C3259 1.334 . S
C3259 H3236 0.950 . S
C3259 C3258 1.334 . S
C3259 C3260 1.287 . S
C3260 C3259 1.287 . S
C3260 C3261 1.524 . S
C3260 H3279 0.913 . S
C3261 H3237 0.950 . S
C3261 C3260 1.524 . S
C3261 C3262 1.415 . S
C3262 H3238 0.950 . S
C3262 C3257 1.363 . S
C3262 C3261 1.415 . S
C3263 H3239 0.951 . S
C3263 C3264 1.366 1_556 S
C3263 C3265 1.388 . S
C3264 C3263 1.366 1_554 S
C3264 C3268 1.385 . S
C3265 H3240 0.951 . S
C3265 C3263 1.388 . S
C3265 C3266 1.366 1_556 S
C3266 C3265 1.366 1_554 S
C3266 C3267 1.414 . S
C3266 C3269 1.499 . S
C3267 H3241 0.950 . S
C3267 C3266 1.414 . S
C3267 C3268 1.374 . S
C3268 H3242 0.950 . S
C3268 C3264 1.385 . S
C3268 C3267 1.374 . S
C3269 C3266 1.499 . S
C3269 C3270 1.373 . S
C3269 C3271 1.389 1_554 S
C3270 H3243 0.950 . S
C3270 C3256 1.377 . S
C3270 C3269 1.373 . S
C3271 C3255 1.377 . S
C3271 C3269 1.389 1_556 S
C3271 C3272 1.524 . S
C3272 C3271 1.524 . S
C3272 C3273 1.397 . S
C3272 C3277 1.363 . S
C3273 H3244 0.950 . S
C3273 C3272 1.397 . S
C3273 C3274 1.334 . S
C3274 H3245 0.950 . S
C3274 C3273 1.334 . S
C3274 C3275 1.287 . S
C3275 C3274 1.287 . S
C3275 C3276 1.524 . S
C3275 H3278 0.999 . S
C3276 H3246 0.950 . S
C3276 C3275 1.524 . S
C3276 C3277 1.415 . S
C3277 H3247 0.950 . S
C3277 C3272 1.363 . S
C3277 C3276 1.415 . S
H3278 C3275 0.999 . S
H3279 C3260 0.913 . S
H3280 C3298 0.951 . S
H3281 C3300 0.951 . S
H3282 C3302 0.948 1_556 S
H3283 C3303 0.949 1_556 S
H3284 C3305 0.950 . S
H3285 C3308 0.950 . S
H3286 C3309 0.950 . S
H3287 C3311 0.950 . S
H3288 C3312 0.950 . S
H3289 C3313 0.951 . S
H3290 C3315 0.951 . S
H3291 C3317 0.950 . S
H3292 C3318 0.950 . S
H3293 C3320 0.950 . S
H3294 C3323 0.950 . S
H3295 C3324 0.950 . S
H3296 C3326 0.950 . S
H3297 C3327 0.950 . S
C3298 H3280 0.951 . S
C3298 C3299 1.366 . S
C3298 C3300 1.388 . S
C3299 C3298 1.366 . S
C3299 C3303 1.386 . S
C3300 H3281 0.951 . S
C3300 C3298 1.388 . S
C3300 C3301 1.366 . S
C3301 C3300 1.366 . S
C3301 C3302 1.417 . S
C3301 C3304 1.499 . S
C3302 H3282 0.948 1_554 S
C3302 C3301 1.417 . S
C3302 C3303 1.374 . S
C3303 H3283 0.949 1_554 S
C3303 C3299 1.386 . S
C3303 C3302 1.374 . S
C3304 C3301 1.499 . S
C3304 C3305 1.373 . S
C3304 C3306 1.389 1_554 S
C3305 H3284 0.950 . S
C3305 C3304 1.373 . S
C3305 C3321 1.377 . S
C3306 C3304 1.389 1_556 S
C3306 C3307 1.524 . S
C3306 C3320 1.377 . S
C3307 C3306 1.524 . S
C3307 C3308 1.397 . S
C3307 C3312 1.363 . S
C3308 H3285 0.950 . S
C3308 C3307 1.397 . S
C3308 C3309 1.334 . S
C3309 H3286 0.950 . S
C3309 C3308 1.334 . S
C3309 C3310 1.287 . S
C3310 C3309 1.287 . S
C3310 C3311 1.524 . S
C3310 H3329 0.913 . S
C3311 H3287 0.950 . S
C3311 C3310 1.524 . S
C3311 C3312 1.415 . S
C3312 H3288 0.950 . S
C3312 C3307 1.363 . S
C3312 C3311 1.415 . S
C3313 H3289 0.951 . S
C3313 C3314 1.366 . S
C3313 C3315 1.388 . S
C3314 C3313 1.366 . S
C3314 C3318 1.385 . S
C3315 H3290 0.951 . S
C3315 C3313 1.388 . S
C3315 C3316 1.366 . S
C3316 C3315 1.366 . S
C3316 C3317 1.414 . S
C3316 C3319 1.499 . S
C3317 H3291 0.950 . S
C3317 C3316 1.414 . S
C3317 C3318 1.374 . S
C3318 H3292 0.950 . S
C3318 C3314 1.385 . S
C3318 C3317 1.374 . S
C3319 C3316 1.499 . S
C3319 C3320 1.373 1_554 S
C3319 C3321 1.389 . S
C3320 H3293 0.950 . S
C3320 C3306 1.377 . S
C3320 C3319 1.373 1_556 S
C3321 C3305 1.377 . S
C3321 C3319 1.389 . S
C3321 C3322 1.524 . S
C3322 C3321 1.524 . S
C3322 C3323 1.397 . S
C3322 C3327 1.363 . S
C3323 H3294 0.950 . S
C3323 C3322 1.397 . S
C3323 C3324 1.334 . S
C3324 H3295 0.950 . S
C3324 C3323 1.334 . S
C3324 C3325 1.287 . S
C3325 C3324 1.287 . S
C3325 C3326 1.524 . S
C3325 H3328 0.999 . S
C3326 H3296 0.950 . S
C3326 C3325 1.524 . S
C3326 C3327 1.415 . S
C3327 H3297 0.950 . S
C3327 C3322 1.363 . S
C3327 C3326 1.415 . S
H3328 C3325 0.999 . S
H3329 C3310 0.913 . S
H3330 C3348 0.951 . S
H3331 C3350 0.951 . S
H3332 C3352 0.950 . S
H3333 C3353 0.950 . S
H3334 C3355 0.950 . S
H3335 C3358 0.950 . S
H3336 C3359 0.950 . S
H3337 C3361 0.950 . S
H3338 C3362 0.950 . S
H3339 C3363 0.951 . S
H3340 C3365 0.951 . S
H3341 C3367 0.950 . S
H3342 C3368 0.950 . S
H3343 C3370 0.950 . S
H3344 C3373 0.950 . S
H3345 C3374 0.950 . S
H3346 C3376 0.950 . S
H3347 C3377 0.950 . S
C3348 H3330 0.951 . S
C3348 C3349 1.366 . S
C3348 C3350 1.388 . S
C3349 C3348 1.366 . S
C3349 C3353 1.385 . S
C3350 H3331 0.951 . S
C3350 C3348 1.388 . S
C3350 C3351 1.366 . S
C3351 C3350 1.366 . S
C3351 C3352 1.414 . S
C3351 C3354 1.499 . S
C3352 H3332 0.950 . S
C3352 C3351 1.414 . S
C3352 C3353 1.374 . S
C3353 H3333 0.950 . S
C3353 C3349 1.385 . S
C3353 C3352 1.374 . S
C3354 C3351 1.499 . S
C3354 C3355 1.373 1_554 S
C3354 C3356 1.389 . S
C3355 H3334 0.950 . S
C3355 C3354 1.373 1_556 S
C3355 C3371 1.377 . S
C3356 C3354 1.389 . S
C3356 C3357 1.524 . S
C3356 C3370 1.377 . S
C3357 C3356 1.524 . S
C3357 C3358 1.397 . S
C3357 C3362 1.363 . S
C3358 H3335 0.950 . S
C3358 C3357 1.397 . S
C3358 C3359 1.334 . S
C3359 H3336 0.950 . S
C3359 C3358 1.334 . S
C3359 C3360 1.287 . S
C3360 C3359 1.287 . S
C3360 C3361 1.524 . S
C3360 H3379 0.913 . S
C3361 H3337 0.950 . S
C3361 C3360 1.524 . S
C3361 C3362 1.415 . S
C3362 H3338 0.950 . S
C3362 C3357 1.363 . S
C3362 C3361 1.415 . S
C3363 H3339 0.951 . S
C3363 C3364 1.366 . S
C3363 C3365 1.388 . S
C3364 C3363 1.366 . S
C3364 C3368 1.385 . S
C3365 H3340 0.951 . S
C3365 C3363 1.388 . S
C3365 C3366 1.366 . S
C3366 C3365 1.366 . S
C3366 C3367 1.414 . S
C3366 C3369 1.499 . S
C3367 H3341 0.950 . S
C3367 C3366 1.414 . S
C3367 C3368 1.374 . S
C3368 H3342 0.950 . S
C3368 C3364 1.385 . S
C3368 C3367 1.374 . S
C3369 C3366 1.499 . S
C3369 C3370 1.373 . S
C3369 C3371 1.389 1_554 S
C3370 H3343 0.950 . S
C3370 C3356 1.377 . S
C3370 C3369 1.373 . S
C3371 C3355 1.377 . S
C3371 C3369 1.389 1_556 S
C3371 C3372 1.524 . S
C3372 C3371 1.524 . S
C3372 C3373 1.397 . S
C3372 C3377 1.363 . S
C3373 H3344 0.950 . S
C3373 C3372 1.397 . S
C3373 C3374 1.334 . S
C3374 H3345 0.950 . S
C3374 C3373 1.334 . S
C3374 C3375 1.287 . S
C3375 C3374 1.287 . S
C3375 C3376 1.524 . S
C3375 H3378 0.999 . S
C3376 H3346 0.950 . S
C3376 C3375 1.524 . S
C3376 C3377 1.415 . S
C3377 H3347 0.950 . S
C3377 C3372 1.363 . S
C3377 C3376 1.415 . S
H3378 C3375 0.999 . S
H3379 C3360 0.913 . S
H3380 C3398 0.951 . S
H3381 C3400 0.951 . S
H3382 C3402 0.950 . S
H3383 C3403 0.950 . S
H3384 C3405 0.950 . S
H3385 C3408 0.950 . S
H3386 C3409 0.950 . S
H3387 C3411 0.950 . S
H3388 C3412 0.950 . S
H3389 C3413 0.951 . S
H3390 C3415 0.951 . S
H3391 C3417 0.950 . S
H3392 C3418 0.950 . S
H3393 C3420 0.943 1_556 S
H3394 C3423 0.950 . S
H3395 C3424 0.950 . S
H3396 C3426 0.950 . S
H3397 C3427 0.950 . S
C3398 H3380 0.951 . S
C3398 C3399 1.366 . S
C3398 C3400 1.388 . S
C3399 C3398 1.366 . S
C3399 C3403 1.385 . S
C3400 H3381 0.951 . S
C3400 C3398 1.388 . S
C3400 C3401 1.366 . S
C3401 C3400 1.366 . S
C3401 C3402 1.414 . S
C3401 C3404 1.499 . S
C3402 H3382 0.950 . S
C3402 C3401 1.414 . S
C3402 C3403 1.374 . S
C3403 H3383 0.950 . S
C3403 C3399 1.385 . S
C3403 C3402 1.374 . S
C3404 C3401 1.499 . S
C3404 C3405 1.373 . S
C3404 C3406 1.379 1_554 S
C3405 H3384 0.950 . S
C3405 C3404 1.373 . S
C3405 C3421 1.377 . S
C3406 C3404 1.379 1_556 S
C3406 C3407 1.537 . S
C3406 C3420 1.376 1_556 S
C3407 C3406 1.537 . S
C3407 C3408 1.397 . S
C3407 C3412 1.363 . S
C3408 H3385 0.950 . S
C3408 C3407 1.397 . S
C3408 C3409 1.334 . S
C3409 H3386 0.950 . S
C3409 C3408 1.334 . S
C3409 C3410 1.287 . S
C3410 C3409 1.287 . S
C3410 C3411 1.524 . S
C3410 H3429 0.913 . S
C3411 H3387 0.950 . S
C3411 C3410 1.524 . S
C3411 C3412 1.415 . S
C3412 H3388 0.950 . S
C3412 C3407 1.363 . S
C3412 C3411 1.415 . S
C3413 H3389 0.951 . S
C3413 C3414 1.366 . S
C3413 C3415 1.388 . S
C3414 C3413 1.366 . S
C3414 C3418 1.385 . S
C3415 H3390 0.951 . S
C3415 C3413 1.388 . S
C3415 C3416 1.366 . S
C3416 C3415 1.366 . S
C3416 C3417 1.414 . S
C3416 C3419 1.499 . S
C3417 H3391 0.950 . S
C3417 C3416 1.414 . S
C3417 C3418 1.374 . S
C3418 H3392 0.950 . S
C3418 C3414 1.385 . S
C3418 C3417 1.374 . S
C3419 C3416 1.499 . S
C3419 C3420 1.381 . S
C3419 C3421 1.389 . S
C3420 H3393 0.943 1_554 S
C3420 C3406 1.376 1_554 S
C3420 C3419 1.381 . S
C3421 C3405 1.377 . S
C3421 C3419 1.389 . S
C3421 C3422 1.524 . S
C3422 C3421 1.524 . S
C3422 C3423 1.397 . S
C3422 C3427 1.363 . S
C3423 H3394 0.950 . S
C3423 C3422 1.397 . S
C3423 C3424 1.334 . S
C3424 H3395 0.950 . S
C3424 C3423 1.334 . S
C3424 C3425 1.287 . S
C3425 C3424 1.287 . S
C3425 C3426 1.524 . S
C3425 H3428 0.999 . S
C3426 H3396 0.950 . S
C3426 C3425 1.524 . S
C3426 C3427 1.415 . S
C3427 H3397 0.950 . S
C3427 C3422 1.363 . S
C3427 C3426 1.415 . S
H3428 C3425 0.999 . S
H3429 C3410 0.913 . S
H3430 C3448 0.951 . S
H3431 C3450 0.951 . S
H3432 C3452 0.950 . S
H3433 C3453 0.950 . S
H3434 C3455 0.944 1_556 S
H3435 C3458 0.950 . S
H3436 C3459 0.950 . S
H3437 C3461 0.950 . S
H3438 C3462 0.950 1_556 S
H3439 C3463 0.951 . S
H3440 C3465 0.951 . S
H3441 C3467 0.950 . S
H3442 C3468 0.950 . S
H3443 C3470 0.950 . S
H3444 C3473 0.950 . S
H3445 C3474 0.950 . S
H3446 C3476 0.948 . S
H3447 C3477 0.950 . S
C3448 H3430 0.951 . S
C3448 C3449 1.366 1_556 S
C3448 C3450 1.388 . S
C3449 C3448 1.366 1_554 S
C3449 C3453 1.385 . S
C3450 H3431 0.951 . S
C3450 C3448 1.388 . S
C3450 C3451 1.366 1_556 S
C3451 C3450 1.366 1_554 S
C3451 C3452 1.414 . S
C3451 C3454 1.499 . S
C3452 H3432 0.950 . S
C3452 C3451 1.414 . S
C3452 C3453 1.374 . S
C3453 H3433 0.950 . S
C3453 C3449 1.385 . S
C3453 C3452 1.374 . S
C3454 C3451 1.499 . S
C3454 C3455 1.382 . S
C3454 C3456 1.389 . S
C3455 H3434 0.944 1_554 S
C3455 C3454 1.382 . S
C3455 C3471 1.376 1_554 S
C3456 C3454 1.389 . S
C3456 C3457 1.524 . S
C3456 C3470 1.377 . S
C3457 C3456 1.524 . S
C3457 C3458 1.397 . S
C3457 C3462 1.363 . S
C3458 H3435 0.950 . S
C3458 C3457 1.397 . S
C3458 C3459 1.334 . S
C3459 H3436 0.950 . S
C3459 C3458 1.334 . S
C3459 C3460 1.287 . S
C3460 C3459 1.287 . S
C3460 C3461 1.524 . S
C3460 H3479 0.913 . S
C3461 H3437 0.950 . S
C3461 C3460 1.524 . S
C3461 C3462 1.415 . S
C3462 H3438 0.950 1_554 S
C3462 C3457 1.363 . S
C3462 C3461 1.415 . S
C3463 H3439 0.951 . S
C3463 C3464 1.366 . S
C3463 C3465 1.388 . S
C3464 C3463 1.366 . S
C3464 C3468 1.385 1_554 S
C3465 H3440 0.951 . S
C3465 C3463 1.388 . S
C3465 C3466 1.366 . S
C3466 C3465 1.366 . S
C3466 C3467 1.414 1_554 S
C3466 C3469 1.499 . S
C3467 H3441 0.950 . S
C3467 C3466 1.414 1_556 S
C3467 C3468 1.374 . S
C3468 H3442 0.950 . S
C3468 C3464 1.385 1_556 S
C3468 C3467 1.374 . S
C3469 C3466 1.499 . S
C3469 C3470 1.373 . S
C3469 C3471 1.389 1_554 S
C3470 H3443 0.950 . S
C3470 C3456 1.377 . S
C3470 C3469 1.373 . S
C3471 C3455 1.376 1_556 S
C3471 C3469 1.389 1_556 S
C3471 C3472 1.525 . S
C3472 C3471 1.525 . S
C3472 C3473 1.397 . S
C3472 C3477 1.363 1_556 S
C3473 H3444 0.950 . S
C3473 C3472 1.397 . S
C3473 C3474 1.334 . S
C3474 H3445 0.950 . S
C3474 C3473 1.334 . S
C3474 C3475 1.287 . S
C3475 C3474 1.287 . S
C3475 C3476 1.524 . S
C3475 H3478 0.999 . S
C3476 H3446 0.948 . S
C3476 C3475 1.524 . S
C3476 C3477 1.415 1_556 S
C3477 H3447 0.950 . S
C3477 C3472 1.363 1_554 S
C3477 C3476 1.415 1_554 S
H3478 C3475 0.999 . S
H3479 C3460 0.913 . S
H3480 C3498 0.951 . S
H3481 C3500 0.951 . S
H3482 C3502 0.950 . S
H3483 C3503 0.950 . S
H3484 C3505 0.950 . S
H3485 C3508 0.950 . S
H3486 C3509 0.950 . S
H3487 C3511 0.950 . S
H3488 C3512 0.950 . S
H3489 C3513 0.951 . S
H3490 C3515 0.951 . S
H3491 C3517 0.950 . S
H3492 C3518 0.950 . S
H3493 C3520 0.950 . S
H3494 C3523 0.950 . S
H3495 C3524 0.950 . S
H3496 C3526 0.950 . S
H3497 C3527 0.950 . S
C3498 H3480 0.951 . S
C3498 C3499 1.366 . S
C3498 C3500 1.388 . S
C3499 C3498 1.366 . S
C3499 C3503 1.385 . S
C3500 H3481 0.951 . S
C3500 C3498 1.388 . S
C3500 C3501 1.366 . S
C3501 C3500 1.366 . S
C3501 C3502 1.414 . S
C3501 C3504 1.499 . S
C3502 H3482 0.950 . S
C3502 C3501 1.414 . S
C3502 C3503 1.374 . S
C3503 H3483 0.950 . S
C3503 C3499 1.385 . S
C3503 C3502 1.374 . S
C3504 C3501 1.499 . S
C3504 C3505 1.373 . S
C3504 C3506 1.389 . S
C3505 H3484 0.950 . S
C3505 C3504 1.373 . S
C3505 C3521 1.377 . S
C3506 C3504 1.389 . S
C3506 C3507 1.524 . S
C3506 C3520 1.377 . S
C3507 C3506 1.524 . S
C3507 C3508 1.397 . S
C3507 C3512 1.363 . S
C3508 H3485 0.950 . S
C3508 C3507 1.397 . S
C3508 C3509 1.334 . S
C3509 H3486 0.950 . S
C3509 C3508 1.334 . S
C3509 C3510 1.287 . S
C3510 C3509 1.287 . S
C3510 C3511 1.524 . S
C3510 H3529 0.913 . S
C3511 H3487 0.950 . S
C3511 C3510 1.524 . S
C3511 C3512 1.415 . S
C3512 H3488 0.950 . S
C3512 C3507 1.363 . S
C3512 C3511 1.415 . S
C3513 H3489 0.951 . S
C3513 C3514 1.366 . S
C3513 C3515 1.388 . S
C3514 C3513 1.366 . S
C3514 C3518 1.385 . S
C3515 H3490 0.951 . S
C3515 C3513 1.388 . S
C3515 C3516 1.366 . S
C3516 C3515 1.366 . S
C3516 C3517 1.414 . S
C3516 C3519 1.499 . S
C3517 H3491 0.950 . S
C3517 C3516 1.414 . S
C3517 C3518 1.374 . S
C3518 H3492 0.950 . S
C3518 C3514 1.385 . S
C3518 C3517 1.374 . S
C3519 C3516 1.499 . S
C3519 C3520 1.373 . S
C3519 C3521 1.389 . S
C3520 H3493 0.950 . S
C3520 C3506 1.377 . S
C3520 C3519 1.373 . S
C3521 C3505 1.377 . S
C3521 C3519 1.389 . S
C3521 C3522 1.524 . S
C3522 C3521 1.524 . S
C3522 C3523 1.397 . S
C3522 C3527 1.363 . S
C3523 H3494 0.950 . S
C3523 C3522 1.397 . S
C3523 C3524 1.334 . S
C3524 H3495 0.950 . S
C3524 C3523 1.334 . S
C3524 C3525 1.287 . S
C3525 C3524 1.287 . S
C3525 C3526 1.524 . S
C3525 H3528 0.999 . S
C3526 H3496 0.950 . S
C3526 C3525 1.524 . S
C3526 C3527 1.415 . S
C3527 H3497 0.950 . S
C3527 C3522 1.363 . S
C3527 C3526 1.415 . S
H3528 C3525 0.999 . S
H3529 C3510 0.913 . S
H3530 C3548 0.951 . S
H3531 C3550 0.951 . S
H3532 C3552 0.950 . S
H3533 C3553 0.950 . S
H3534 C3555 0.950 . S
H3535 C3558 0.950 . S
H3536 C3559 0.950 . S
H3537 C3561 0.950 . S
H3538 C3562 0.950 . S
H3539 C3563 0.951 . S
H3540 C3565 0.951 . S
H3541 C3567 0.950 . S
H3542 C3568 0.950 . S
H3543 C3570 0.950 . S
H3544 C3573 0.950 . S
H3545 C3574 0.950 . S
H3546 C3576 0.950 . S
H3547 C3577 0.950 . S
C3548 H3530 0.951 . S
C3548 C3549 1.366 . S
C3548 C3550 1.388 . S
C3549 C3548 1.366 . S
C3549 C3553 1.385 . S
C3550 H3531 0.951 . S
C3550 C3548 1.388 . S
C3550 C3551 1.366 . S
C3551 C3550 1.366 . S
C3551 C3552 1.414 . S
C3551 C3554 1.499 . S
C3552 H3532 0.950 . S
C3552 C3551 1.414 . S
C3552 C3553 1.374 . S
C3553 H3533 0.950 . S
C3553 C3549 1.385 . S
C3553 C3552 1.374 . S
C3554 C3551 1.499 . S
C3554 C3555 1.373 . S
C3554 C3556 1.389 . S
C3555 H3534 0.950 . S
C3555 C3554 1.373 . S
C3555 C3571 1.377 . S
C3556 C3554 1.389 . S
C3556 C3557 1.524 . S
C3556 C3570 1.377 . S
C3557 C3556 1.524 . S
C3557 C3558 1.397 . S
C3557 C3562 1.363 . S
C3558 H3535 0.950 . S
C3558 C3557 1.397 . S
C3558 C3559 1.334 . S
C3559 H3536 0.950 . S
C3559 C3558 1.334 . S
C3559 C3560 1.287 . S
C3560 C3559 1.287 . S
C3560 C3561 1.524 . S
C3560 H3579 0.913 . S
C3561 H3537 0.950 . S
C3561 C3560 1.524 . S
C3561 C3562 1.415 . S
C3562 H3538 0.950 . S
C3562 C3557 1.363 . S
C3562 C3561 1.415 . S
C3563 H3539 0.951 . S
C3563 C3564 1.366 . S
C3563 C3565 1.388 . S
C3564 C3563 1.366 . S
C3564 C3568 1.385 . S
C3565 H3540 0.951 . S
C3565 C3563 1.388 . S
C3565 C3566 1.366 . S
C3566 C3565 1.366 . S
C3566 C3567 1.414 . S
C3566 C3569 1.499 . S
C3567 H3541 0.950 . S
C3567 C3566 1.414 . S
C3567 C3568 1.374 . S
C3568 H3542 0.950 . S
C3568 C3564 1.385 . S
C3568 C3567 1.374 . S
C3569 C3566 1.499 . S
C3569 C3570 1.373 . S
C3569 C3571 1.389 . S
C3570 H3543 0.950 . S
C3570 C3556 1.377 . S
C3570 C3569 1.373 . S
C3571 C3555 1.377 . S
C3571 C3569 1.389 . S
C3571 C3572 1.524 . S
C3572 C3571 1.524 . S
C3572 C3573 1.397 . S
C3572 C3577 1.363 . S
C3573 H3544 0.950 . S
C3573 C3572 1.397 . S
C3573 C3574 1.334 . S
C3574 H3545 0.950 . S
C3574 C3573 1.334 . S
C3574 C3575 1.287 . S
C3575 C3574 1.287 . S
C3575 C3576 1.524 . S
C3575 H3578 0.999 . S
C3576 H3546 0.950 . S
C3576 C3575 1.524 . S
C3576 C3577 1.415 . S
C3577 H3547 0.950 . S
C3577 C3572 1.363 . S
C3577 C3576 1.415 . S
H3578 C3575 0.999 . S
H3579 C3560 0.913 . S
H3580 C3598 0.951 . S
H3581 C3600 0.951 . S
H3582 C3602 0.950 . S
H3583 C3603 0.950 . S
H3584 C3605 0.950 . S
H3585 C3608 0.950 . S
H3586 C3609 0.950 . S
H3587 C3611 0.950 . S
H3588 C3612 0.950 . S
H3589 C3613 0.951 . S
H3590 C3615 0.951 . S
H3591 C3617 0.950 . S
H3592 C3618 0.950 . S
H3593 C3620 0.950 . S
H3594 C3623 0.950 . S
H3595 C3624 0.950 . S
H3596 C3626 0.950 . S
H3597 C3627 0.950 . S
C3598 H3580 0.951 . S
C3598 C3599 1.366 . S
C3598 C3600 1.388 . S
C3599 C3598 1.366 . S
C3599 C3603 1.385 . S
C3600 H3581 0.951 . S
C3600 C3598 1.388 . S
C3600 C3601 1.366 . S
C3601 C3600 1.366 . S
C3601 C3602 1.414 . S
C3601 C3604 1.499 . S
C3602 H3582 0.950 . S
C3602 C3601 1.414 . S
C3602 C3603 1.374 . S
C3603 H3583 0.950 . S
C3603 C3599 1.385 . S
C3603 C3602 1.374 . S
C3604 C3601 1.499 . S
C3604 C3605 1.373 . S
C3604 C3606 1.389 . S
C3605 H3584 0.950 . S
C3605 C3604 1.373 . S
C3605 C3621 1.377 . S
C3606 C3604 1.389 . S
C3606 C3607 1.524 . S
C3606 C3620 1.377 . S
C3607 C3606 1.524 . S
C3607 C3608 1.397 . S
C3607 C3612 1.363 . S
C3608 H3585 0.950 . S
C3608 C3607 1.397 . S
C3608 C3609 1.334 . S
C3609 H3586 0.950 . S
C3609 C3608 1.334 . S
C3609 C3610 1.287 . S
C3610 C3609 1.287 . S
C3610 C3611 1.524 . S
C3610 H3629 0.913 . S
C3611 H3587 0.950 . S
C3611 C3610 1.524 . S
C3611 C3612 1.415 . S
C3612 H3588 0.950 . S
C3612 C3607 1.363 . S
C3612 C3611 1.415 . S
C3613 H3589 0.951 . S
C3613 C3614 1.366 . S
C3613 C3615 1.388 . S
C3614 C3613 1.366 . S
C3614 C3618 1.385 . S
C3615 H3590 0.951 . S
C3615 C3613 1.388 . S
C3615 C3616 1.366 . S
C3616 C3615 1.366 . S
C3616 C3617 1.414 . S
C3616 C3619 1.499 . S
C3617 H3591 0.950 . S
C3617 C3616 1.414 . S
C3617 C3618 1.374 . S
C3618 H3592 0.950 . S
C3618 C3614 1.385 . S
C3618 C3617 1.374 . S
C3619 C3616 1.499 . S
C3619 C3620 1.373 . S
C3619 C3621 1.389 . S
C3620 H3593 0.950 . S
C3620 C3606 1.377 . S
C3620 C3619 1.373 . S
C3621 C3605 1.377 . S
C3621 C3619 1.389 . S
C3621 C3622 1.524 . S
C3622 C3621 1.524 . S
C3622 C3623 1.397 . S
C3622 C3627 1.363 . S
C3623 H3594 0.950 . S
C3623 C3622 1.397 . S
C3623 C3624 1.334 . S
C3624 H3595 0.950 . S
C3624 C3623 1.334 . S
C3624 C3625 1.287 . S
C3625 C3624 1.287 . S
C3625 C3626 1.524 . S
C3625 H3628 0.999 . S
C3626 H3596 0.950 . S
C3626 C3625 1.524 . S
C3626 C3627 1.415 . S
C3627 H3597 0.950 . S
C3627 C3622 1.363 . S
C3627 C3626 1.415 . S
H3628 C3625 0.999 . S
H3629 C3610 0.913 . S
H3630 C3648 0.951 . S
H3631 C3650 0.951 . S
H3632 C3652 0.950 . S
H3633 C3653 0.950 . S
H3634 C3655 0.950 . S
H3635 C3658 0.950 . S
H3636 C3659 0.950 . S
H3637 C3661 0.950 . S
H3638 C3662 0.950 . S
H3639 C3663 0.951 . S
H3640 C3665 0.951 . S
H3641 C3667 0.950 . S
H3642 C3668 0.950 . S
H3643 C3670 0.950 . S
H3644 C3673 0.950 . S
H3645 C3674 0.950 . S
H3646 C3676 0.950 . S
H3647 C3677 0.950 . S
C3648 H3630 0.951 . S
C3648 C3649 1.366 . S
C3648 C3650 1.388 . S
C3649 C3648 1.366 . S
C3649 C3653 1.385 . S
C3650 H3631 0.951 . S
C3650 C3648 1.388 . S
C3650 C3651 1.366 . S
C3651 C3650 1.366 . S
C3651 C3652 1.414 . S
C3651 C3654 1.499 . S
C3652 H3632 0.950 . S
C3652 C3651 1.414 . S
C3652 C3653 1.374 . S
C3653 H3633 0.950 . S
C3653 C3649 1.385 . S
C3653 C3652 1.374 . S
C3654 C3651 1.499 . S
C3654 C3655 1.373 . S
C3654 C3656 1.389 . S
C3655 H3634 0.950 . S
C3655 C3654 1.373 . S
C3655 C3671 1.377 . S
C3656 C3654 1.389 . S
C3656 C3657 1.524 . S
C3656 C3670 1.377 . S
C3657 C3656 1.524 . S
C3657 C3658 1.397 . S
C3657 C3662 1.363 . S
C3658 H3635 0.950 . S
C3658 C3657 1.397 . S
C3658 C3659 1.334 . S
C3659 H3636 0.950 . S
C3659 C3658 1.334 . S
C3659 C3660 1.287 . S
C3660 C3659 1.287 . S
C3660 C3661 1.524 . S
C3660 H3679 0.913 . S
C3661 H3637 0.950 . S
C3661 C3660 1.524 . S
C3661 C3662 1.415 . S
C3662 H3638 0.950 . S
C3662 C3657 1.363 . S
C3662 C3661 1.415 . S
C3663 H3639 0.951 . S
C3663 C3664 1.366 . S
C3663 C3665 1.388 . S
C3664 C3663 1.366 . S
C3664 C3668 1.385 . S
C3665 H3640 0.951 . S
C3665 C3663 1.388 . S
C3665 C3666 1.366 . S
C3666 C3665 1.366 . S
C3666 C3667 1.414 . S
C3666 C3669 1.499 . S
C3667 H3641 0.950 . S
C3667 C3666 1.414 . S
C3667 C3668 1.374 . S
C3668 H3642 0.950 . S
C3668 C3664 1.385 . S
C3668 C3667 1.374 . S
C3669 C3666 1.499 . S
C3669 C3670 1.373 . S
C3669 C3671 1.389 . S
C3670 H3643 0.950 . S
C3670 C3656 1.377 . S
C3670 C3669 1.373 . S
C3671 C3655 1.377 . S
C3671 C3669 1.389 . S
C3671 C3672 1.524 . S
C3672 C3671 1.524 . S
C3672 C3673 1.397 . S
C3672 C3677 1.363 . S
C3673 H3644 0.950 . S
C3673 C3672 1.397 . S
C3673 C3674 1.334 . S
C3674 H3645 0.950 . S
C3674 C3673 1.334 . S
C3674 C3675 1.287 . S
C3675 C3674 1.287 . S
C3675 C3676 1.524 . S
C3675 H3678 0.999 . S
C3676 H3646 0.950 . S
C3676 C3675 1.524 . S
C3676 C3677 1.415 . S
C3677 H3647 0.950 . S
C3677 C3672 1.363 . S
C3677 C3676 1.415 . S
H3678 C3675 0.999 . S
H3679 C3660 0.913 . S
H3680 C3698 0.951 . S
H3681 C3700 0.951 . S
H3682 C3702 0.950 . S
H3683 C3703 0.950 . S
H3684 C3705 0.950 . S
H3685 C3708 0.950 . S
H3686 C3709 0.950 . S
H3687 C3711 0.950 . S
H3688 C3712 0.950 . S
H3689 C3713 0.951 . S
H3690 C3715 0.951 . S
H3691 C3717 0.950 . S
H3692 C3718 0.950 . S
H3693 C3720 0.950 . S
H3694 C3723 0.950 . S
H3695 C3724 0.950 . S
H3696 C3726 0.950 . S
H3697 C3727 0.950 . S
C3698 H3680 0.951 . S
C3698 C3699 1.366 . S
C3698 C3700 1.388 . S
C3699 C3698 1.366 . S
C3699 C3703 1.385 . S
C3700 H3681 0.951 . S
C3700 C3698 1.388 . S
C3700 C3701 1.366 . S
C3701 C3700 1.366 . S
C3701 C3702 1.414 . S
C3701 C3704 1.499 . S
C3702 H3682 0.950 . S
C3702 C3701 1.414 . S
C3702 C3703 1.374 . S
C3703 H3683 0.950 . S
C3703 C3699 1.385 . S
C3703 C3702 1.374 . S
C3704 C3701 1.499 . S
C3704 C3705 1.373 . S
C3704 C3706 1.389 . S
C3705 H3684 0.950 . S
C3705 C3704 1.373 . S
C3705 C3721 1.377 . S
C3706 C3704 1.389 . S
C3706 C3707 1.524 . S
C3706 C3720 1.377 . S
C3707 C3706 1.524 . S
C3707 C3708 1.397 . S
C3707 C3712 1.363 . S
C3708 H3685 0.950 . S
C3708 C3707 1.397 . S
C3708 C3709 1.334 . S
C3709 H3686 0.950 . S
C3709 C3708 1.334 . S
C3709 C3710 1.287 . S
C3710 C3709 1.287 . S
C3710 C3711 1.524 . S
C3710 H3729 0.913 . S
C3711 H3687 0.950 . S
C3711 C3710 1.524 . S
C3711 C3712 1.415 . S
C3712 H3688 0.950 . S
C3712 C3707 1.363 . S
C3712 C3711 1.415 . S
C3713 H3689 0.951 . S
C3713 C3714 1.366 . S
C3713 C3715 1.388 . S
C3714 C3713 1.366 . S
C3714 C3718 1.385 . S
C3715 H3690 0.951 . S
C3715 C3713 1.388 . S
C3715 C3716 1.366 . S
C3716 C3715 1.366 . S
C3716 C3717 1.414 . S
C3716 C3719 1.499 . S
C3717 H3691 0.950 . S
C3717 C3716 1.414 . S
C3717 C3718 1.374 . S
C3718 H3692 0.950 . S
C3718 C3714 1.385 . S
C3718 C3717 1.374 . S
C3719 C3716 1.499 . S
C3719 C3720 1.373 . S
C3719 C3721 1.389 . S
C3720 H3693 0.950 . S
C3720 C3706 1.377 . S
C3720 C3719 1.373 . S
C3721 C3705 1.377 . S
C3721 C3719 1.389 . S
C3721 C3722 1.524 . S
C3722 C3721 1.524 . S
C3722 C3723 1.397 . S
C3722 C3727 1.363 . S
C3723 H3694 0.950 . S
C3723 C3722 1.397 . S
C3723 C3724 1.334 . S
C3724 H3695 0.950 . S
C3724 C3723 1.334 . S
C3724 C3725 1.287 . S
C3725 C3724 1.287 . S
C3725 C3726 1.524 . S
C3725 H3728 0.999 . S
C3726 H3696 0.950 . S
C3726 C3725 1.524 . S
C3726 C3727 1.415 . S
C3727 H3697 0.950 . S
C3727 C3722 1.363 . S
C3727 C3726 1.415 . S
H3728 C3725 0.999 . S
H3729 C3710 0.913 . S
H3730 C3748 0.951 . S
H3731 C3750 0.951 . S
H3732 C3752 0.950 . S
H3733 C3753 0.950 . S
H3734 C3755 0.950 . S
H3735 C3758 0.950 . S
H3736 C3759 0.950 . S
H3737 C3761 0.950 . S
H3738 C3762 0.950 . S
H3739 C3763 0.951 . S
H3740 C3765 0.951 . S
H3741 C3767 0.950 . S
H3742 C3768 0.950 . S
H3743 C3770 0.950 . S
H3744 C3773 0.950 . S
H3745 C3774 0.950 . S
H3746 C3776 0.950 . S
H3747 C3777 0.950 . S
C3748 H3730 0.951 . S
C3748 C3749 1.366 . S
C3748 C3750 1.388 . S
C3749 C3748 1.366 . S
C3749 C3753 1.385 . S
C3750 H3731 0.951 . S
C3750 C3748 1.388 . S
C3750 C3751 1.366 . S
C3751 C3750 1.366 . S
C3751 C3752 1.414 . S
C3751 C3754 1.499 . S
C3752 H3732 0.950 . S
C3752 C3751 1.414 . S
C3752 C3753 1.374 . S
C3753 H3733 0.950 . S
C3753 C3749 1.385 . S
C3753 C3752 1.374 . S
C3754 C3751 1.499 . S
C3754 C3755 1.373 . S
C3754 C3756 1.389 . S
C3755 H3734 0.950 . S
C3755 C3754 1.373 . S
C3755 C3771 1.377 . S
C3756 C3754 1.389 . S
C3756 C3757 1.524 . S
C3756 C3770 1.377 . S
C3757 C3756 1.524 . S
C3757 C3758 1.397 . S
C3757 C3762 1.363 . S
C3758 H3735 0.950 . S
C3758 C3757 1.397 . S
C3758 C3759 1.334 . S
C3759 H3736 0.950 . S
C3759 C3758 1.334 . S
C3759 C3760 1.287 . S
C3760 C3759 1.287 . S
C3760 C3761 1.524 . S
C3760 H3779 0.913 . S
C3761 H3737 0.950 . S
C3761 C3760 1.524 . S
C3761 C3762 1.415 . S
C3762 H3738 0.950 . S
C3762 C3757 1.363 . S
C3762 C3761 1.415 . S
C3763 H3739 0.951 . S
C3763 C3764 1.366 . S
C3763 C3765 1.388 . S
C3764 C3763 1.366 . S
C3764 C3768 1.385 . S
C3765 H3740 0.951 . S
C3765 C3763 1.388 . S
C3765 C3766 1.366 . S
C3766 C3765 1.366 . S
C3766 C3767 1.414 . S
C3766 C3769 1.499 . S
C3767 H3741 0.950 . S
C3767 C3766 1.414 . S
C3767 C3768 1.374 . S
C3768 H3742 0.950 . S
C3768 C3764 1.385 . S
C3768 C3767 1.374 . S
C3769 C3766 1.499 . S
C3769 C3770 1.373 . S
C3769 C3771 1.389 . S
C3770 H3743 0.950 . S
C3770 C3756 1.377 . S
C3770 C3769 1.373 . S
C3771 C3755 1.377 . S
C3771 C3769 1.389 . S
C3771 C3772 1.524 . S
C3772 C3771 1.524 . S
C3772 C3773 1.397 . S
C3772 C3777 1.363 . S
C3773 H3744 0.950 . S
C3773 C3772 1.397 . S
C3773 C3774 1.334 . S
C3774 H3745 0.950 . S
C3774 C3773 1.334 . S
C3774 C3775 1.287 . S
C3775 C3774 1.287 . S
C3775 C3776 1.524 . S
C3775 H3778 0.999 . S
C3776 H3746 0.950 . S
C3776 C3775 1.524 . S
C3776 C3777 1.415 . S
C3777 H3747 0.950 . S
C3777 C3772 1.363 . S
C3777 C3776 1.415 . S
H3778 C3775 0.999 . S
H3779 C3760 0.913 . S
H3780 C3798 0.951 . S
H3781 C3800 0.951 . S
H3782 C3802 0.950 . S
H3783 C3803 0.950 . S
H3784 C3805 0.950 . S
H3785 C3808 0.950 . S
H3786 C3809 0.950 . S
H3787 C3811 0.950 . S
H3788 C3812 0.950 . S
H3789 C3813 0.951 . S
H3790 C3815 0.951 . S
H3791 C3817 0.950 . S
H3792 C3818 0.950 . S
H3793 C3820 0.950 . S
H3794 C3823 0.950 . S
H3795 C3824 0.950 . S
H3796 C3826 0.950 . S
H3797 C3827 0.950 . S
C3798 H3780 0.951 . S
C3798 C3799 1.366 . S
C3798 C3800 1.388 . S
C3799 C3798 1.366 . S
C3799 C3803 1.385 . S
C3800 H3781 0.951 . S
C3800 C3798 1.388 . S
C3800 C3801 1.366 . S
C3801 C3800 1.366 . S
C3801 C3802 1.414 . S
C3801 C3804 1.499 . S
C3802 H3782 0.950 . S
C3802 C3801 1.414 . S
C3802 C3803 1.374 . S
C3803 H3783 0.950 . S
C3803 C3799 1.385 . S
C3803 C3802 1.374 . S
C3804 C3801 1.499 . S
C3804 C3805 1.373 . S
C3804 C3806 1.389 . S
C3805 H3784 0.950 . S
C3805 C3804 1.373 . S
C3805 C3821 1.377 . S
C3806 C3804 1.389 . S
C3806 C3807 1.524 . S
C3806 C3820 1.377 . S
C3807 C3806 1.524 . S
C3807 C3808 1.397 . S
C3807 C3812 1.363 . S
C3808 H3785 0.950 . S
C3808 C3807 1.397 . S
C3808 C3809 1.334 . S
C3809 H3786 0.950 . S
C3809 C3808 1.334 . S
C3809 C3810 1.287 . S
C3810 C3809 1.287 . S
C3810 C3811 1.524 . S
C3810 H3829 0.913 . S
C3811 H3787 0.950 . S
C3811 C3810 1.524 . S
C3811 C3812 1.415 . S
C3812 H3788 0.950 . S
C3812 C3807 1.363 . S
C3812 C3811 1.415 . S
C3813 H3789 0.951 . S
C3813 C3814 1.366 . S
C3813 C3815 1.388 . S
C3814 C3813 1.366 . S
C3814 C3818 1.385 . S
C3815 H3790 0.951 . S
C3815 C3813 1.388 . S
C3815 C3816 1.366 . S
C3816 C3815 1.366 . S
C3816 C3817 1.414 . S
C3816 C3819 1.499 . S
C3817 H3791 0.950 . S
C3817 C3816 1.414 . S
C3817 C3818 1.374 . S
C3818 H3792 0.950 . S
C3818 C3814 1.385 . S
C3818 C3817 1.374 . S
C3819 C3816 1.499 . S
C3819 C3820 1.373 . S
C3819 C3821 1.389 . S
C3820 H3793 0.950 . S
C3820 C3806 1.377 . S
C3820 C3819 1.373 . S
C3821 C3805 1.377 . S
C3821 C3819 1.389 . S
C3821 C3822 1.524 . S
C3822 C3821 1.524 . S
C3822 C3823 1.397 . S
C3822 C3827 1.363 . S
C3823 H3794 0.950 . S
C3823 C3822 1.397 . S
C3823 C3824 1.334 . S
C3824 H3795 0.950 . S
C3824 C3823 1.334 . S
C3824 C3825 1.287 . S
C3825 C3824 1.287 . S
C3825 C3826 1.524 . S
C3825 H3828 0.999 . S
C3826 H3796 0.950 . S
C3826 C3825 1.524 . S
C3826 C3827 1.415 . S
C3827 H3797 0.950 . S
C3827 C3822 1.363 . S
C3827 C3826 1.415 . S
H3828 C3825 0.999 . S
H3829 C3810 0.913 . S
H3830 C3848 0.951 . S
H3831 C3850 0.951 . S
H3832 C3852 0.950 . S
H3833 C3853 0.950 . S
H3834 C3855 0.950 . S
H3835 C3858 0.950 . S
H3836 C3859 0.950 . S
H3837 C3861 0.950 . S
H3838 C3862 0.950 . S
H3839 C3863 0.951 . S
H3840 C3865 0.951 . S
H3841 C3867 0.950 . S
H3842 C3868 0.950 . S
H3843 C3870 0.950 . S
H3844 C3873 0.950 . S
H3845 C3874 0.950 . S
H3846 C3876 0.950 . S
H3847 C3877 0.950 . S
C3848 H3830 0.951 . S
C3848 C3849 1.366 . S
C3848 C3850 1.388 . S
C3849 C3848 1.366 . S
C3849 C3853 1.385 . S
C3850 H3831 0.951 . S
C3850 C3848 1.388 . S
C3850 C3851 1.366 . S
C3851 C3850 1.366 . S
C3851 C3852 1.414 . S
C3851 C3854 1.499 . S
C3852 H3832 0.950 . S
C3852 C3851 1.414 . S
C3852 C3853 1.374 . S
C3853 H3833 0.950 . S
C3853 C3849 1.385 . S
C3853 C3852 1.374 . S
C3854 C3851 1.499 . S
C3854 C3855 1.373 . S
C3854 C3856 1.389 . S
C3855 H3834 0.950 . S
C3855 C3854 1.373 . S
C3855 C3871 1.377 . S
C3856 C3854 1.389 . S
C3856 C3857 1.524 . S
C3856 C3870 1.377 . S
C3857 C3856 1.524 . S
C3857 C3858 1.397 . S
C3857 C3862 1.363 . S
C3858 H3835 0.950 . S
C3858 C3857 1.397 . S
C3858 C3859 1.334 . S
C3859 H3836 0.950 . S
C3859 C3858 1.334 . S
C3859 C3860 1.287 . S
C3860 C3859 1.287 . S
C3860 C3861 1.524 . S
C3860 H3879 0.913 . S
C3861 H3837 0.950 . S
C3861 C3860 1.524 . S
C3861 C3862 1.415 . S
C3862 H3838 0.950 . S
C3862 C3857 1.363 . S
C3862 C3861 1.415 . S
C3863 H3839 0.951 . S
C3863 C3864 1.366 . S
C3863 C3865 1.388 . S
C3864 C3863 1.366 . S
C3864 C3868 1.385 . S
C3865 H3840 0.951 . S
C3865 C3863 1.388 . S
C3865 C3866 1.366 . S
C3866 C3865 1.366 . S
C3866 C3867 1.414 . S
C3866 C3869 1.499 . S
C3867 H3841 0.950 . S
C3867 C3866 1.414 . S
C3867 C3868 1.374 . S
C3868 H3842 0.950 . S
C3868 C3864 1.385 . S
C3868 C3867 1.374 . S
C3869 C3866 1.499 . S
C3869 C3870 1.373 . S
C3869 C3871 1.389 . S
C3870 H3843 0.950 . S
C3870 C3856 1.377 . S
C3870 C3869 1.373 . S
C3871 C3855 1.377 . S
C3871 C3869 1.389 . S
C3871 C3872 1.524 . S
C3872 C3871 1.524 . S
C3872 C3873 1.397 . S
C3872 C3877 1.363 . S
C3873 H3844 0.950 . S
C3873 C3872 1.397 . S
C3873 C3874 1.334 . S
C3874 H3845 0.950 . S
C3874 C3873 1.334 . S
C3874 C3875 1.287 . S
C3875 C3874 1.287 . S
C3875 C3876 1.524 . S
C3875 H3878 0.999 . S
C3876 H3846 0.950 . S
C3876 C3875 1.524 . S
C3876 C3877 1.415 . S
C3877 H3847 0.950 . S
C3877 C3872 1.363 . S
C3877 C3876 1.415 . S
H3878 C3875 0.999 . S
H3879 C3860 0.913 . S
H3880 C3898 0.951 . S
H3881 C3900 0.951 . S
H3882 C3902 0.950 . S
H3883 C3903 0.950 . S
H3884 C3905 0.950 . S
H3885 C3908 0.950 . S
H3886 C3909 0.950 . S
H3887 C3911 0.950 . S
H3888 C3912 0.950 . S
H3889 C3913 0.951 . S
H3890 C3915 0.951 . S
H3891 C3917 0.950 . S
H3892 C3918 0.950 . S
H3893 C3920 0.950 . S
H3894 C3923 0.950 . S
H3895 C3924 0.950 . S
H3896 C3926 0.950 . S
H3897 C3927 0.950 . S
C3898 H3880 0.951 . S
C3898 C3899 1.366 . S
C3898 C3900 1.388 . S
C3899 C3898 1.366 . S
C3899 C3903 1.385 . S
C3900 H3881 0.951 . S
C3900 C3898 1.388 . S
C3900 C3901 1.366 . S
C3901 C3900 1.366 . S
C3901 C3902 1.414 . S
C3901 C3904 1.499 . S
C3902 H3882 0.950 . S
C3902 C3901 1.414 . S
C3902 C3903 1.374 . S
C3903 H3883 0.950 . S
C3903 C3899 1.385 . S
C3903 C3902 1.374 . S
C3904 C3901 1.499 . S
C3904 C3905 1.373 . S
C3904 C3906 1.389 . S
C3905 H3884 0.950 . S
C3905 C3904 1.373 . S
C3905 C3921 1.377 . S
C3906 C3904 1.389 . S
C3906 C3907 1.524 . S
C3906 C3920 1.377 . S
C3907 C3906 1.524 . S
C3907 C3908 1.397 . S
C3907 C3912 1.363 . S
C3908 H3885 0.950 . S
C3908 C3907 1.397 . S
C3908 C3909 1.334 . S
C3909 H3886 0.950 . S
C3909 C3908 1.334 . S
C3909 C3910 1.287 . S
C3910 C3909 1.287 . S
C3910 C3911 1.524 . S
C3910 H3929 0.913 . S
C3911 H3887 0.950 . S
C3911 C3910 1.524 . S
C3911 C3912 1.415 . S
C3912 H3888 0.950 . S
C3912 C3907 1.363 . S
C3912 C3911 1.415 . S
C3913 H3889 0.951 . S
C3913 C3914 1.366 . S
C3913 C3915 1.388 . S
C3914 C3913 1.366 . S
C3914 C3918 1.385 . S
C3915 H3890 0.951 . S
C3915 C3913 1.388 . S
C3915 C3916 1.366 . S
C3916 C3915 1.366 . S
C3916 C3917 1.414 . S
C3916 C3919 1.499 . S
C3917 H3891 0.950 . S
C3917 C3916 1.414 . S
C3917 C3918 1.374 . S
C3918 H3892 0.950 . S
C3918 C3914 1.385 . S
C3918 C3917 1.374 . S
C3919 C3916 1.499 . S
C3919 C3920 1.373 . S
C3919 C3921 1.389 . S
C3920 H3893 0.950 . S
C3920 C3906 1.377 . S
C3920 C3919 1.373 . S
C3921 C3905 1.377 . S
C3921 C3919 1.389 . S
C3921 C3922 1.524 . S
C3922 C3921 1.524 . S
C3922 C3923 1.397 . S
C3922 C3927 1.363 . S
C3923 H3894 0.950 . S
C3923 C3922 1.397 . S
C3923 C3924 1.334 . S
C3924 H3895 0.950 . S
C3924 C3923 1.334 . S
C3924 C3925 1.287 . S
C3925 C3924 1.287 . S
C3925 C3926 1.524 . S
C3925 H3928 0.999 . S
C3926 H3896 0.950 . S
C3926 C3925 1.524 . S
C3926 C3927 1.415 . S
C3927 H3897 0.950 . S
C3927 C3922 1.363 . S
C3927 C3926 1.415 . S
H3928 C3925 0.999 . S
H3929 C3910 0.913 . S
H3930 C3948 0.951 . S
H3931 C3950 0.951 . S
H3932 C3952 0.950 . S
H3933 C3953 0.950 . S
H3934 C3955 0.950 . S
H3935 C3958 0.950 . S
H3936 C3959 0.950 . S
H3937 C3961 0.950 . S
H3938 C3962 0.950 . S
H3939 C3963 0.951 . S
H3940 C3965 0.951 . S
H3941 C3967 0.950 . S
H3942 C3968 0.950 . S
H3943 C3970 0.950 . S
H3944 C3973 0.950 . S
H3945 C3974 0.950 . S
H3946 C3976 0.950 . S
H3947 C3977 0.950 . S
C3948 H3930 0.951 . S
C3948 C3949 1.366 . S
C3948 C3950 1.388 . S
C3949 C3948 1.366 . S
C3949 C3953 1.385 . S
C3950 H3931 0.951 . S
C3950 C3948 1.388 . S
C3950 C3951 1.366 . S
C3951 C3950 1.366 . S
C3951 C3952 1.414 . S
C3951 C3954 1.499 . S
C3952 H3932 0.950 . S
C3952 C3951 1.414 . S
C3952 C3953 1.374 . S
C3953 H3933 0.950 . S
C3953 C3949 1.385 . S
C3953 C3952 1.374 . S
C3954 C3951 1.499 . S
C3954 C3955 1.373 . S
C3954 C3956 1.389 . S
C3955 H3934 0.950 . S
C3955 C3954 1.373 . S
C3955 C3971 1.377 . S
C3956 C3954 1.389 . S
C3956 C3957 1.524 . S
C3956 C3970 1.377 . S
C3957 C3956 1.524 . S
C3957 C3958 1.397 . S
C3957 C3962 1.363 . S
C3958 H3935 0.950 . S
C3958 C3957 1.397 . S
C3958 C3959 1.334 . S
C3959 H3936 0.950 . S
C3959 C3958 1.334 . S
C3959 C3960 1.287 . S
C3960 C3959 1.287 . S
C3960 C3961 1.524 . S
C3960 H3979 0.913 . S
C3961 H3937 0.950 . S
C3961 C3960 1.524 . S
C3961 C3962 1.415 . S
C3962 H3938 0.950 . S
C3962 C3957 1.363 . S
C3962 C3961 1.415 . S
C3963 H3939 0.951 . S
C3963 C3964 1.366 . S
C3963 C3965 1.388 . S
C3964 C3963 1.366 . S
C3964 C3968 1.385 . S
C3965 H3940 0.951 . S
C3965 C3963 1.388 . S
C3965 C3966 1.366 . S
C3966 C3965 1.366 . S
C3966 C3967 1.414 . S
C3966 C3969 1.499 . S
C3967 H3941 0.950 . S
C3967 C3966 1.414 . S
C3967 C3968 1.374 . S
C3968 H3942 0.950 . S
C3968 C3964 1.385 . S
C3968 C3967 1.374 . S
C3969 C3966 1.499 . S
C3969 C3970 1.373 . S
C3969 C3971 1.389 . S
C3970 H3943 0.950 . S
C3970 C3956 1.377 . S
C3970 C3969 1.373 . S
C3971 C3955 1.377 . S
C3971 C3969 1.389 . S
C3971 C3972 1.524 . S
C3972 C3971 1.524 . S
C3972 C3973 1.397 . S
C3972 C3977 1.363 . S
C3973 H3944 0.950 . S
C3973 C3972 1.397 . S
C3973 C3974 1.334 . S
C3974 H3945 0.950 . S
C3974 C3973 1.334 . S
C3974 C3975 1.287 . S
C3975 C3974 1.287 . S
C3975 C3976 1.524 . S
C3975 H3978 0.999 . S
C3976 H3946 0.950 . S
C3976 C3975 1.524 . S
C3976 C3977 1.415 . S
C3977 H3947 0.950 . S
C3977 C3972 1.363 . S
C3977 C3976 1.415 . S
H3978 C3975 0.999 . S
H3979 C3960 0.913 . S
H3980 C3998 0.951 . S
H3981 C4000 0.951 . S
H3982 C4002 0.950 . S
H3983 C4003 0.950 . S
H3984 C4005 0.950 . S
H3985 C4008 0.950 . S
H3986 C4009 0.950 . S
H3987 C4011 0.950 . S
H3988 C4012 0.950 . S
H3989 C4013 0.951 . S
H3990 C4015 0.951 . S
H3991 C4017 0.950 . S
H3992 C4018 0.950 . S
H3993 C4020 0.950 . S
H3994 C4023 0.950 . S
H3995 C4024 0.950 . S
H3996 C4026 0.950 . S
H3997 C4027 0.950 . S
C3998 H3980 0.951 . S
C3998 C3999 1.366 . S
C3998 C4000 1.388 . S
C3999 C3998 1.366 . S
C3999 C4003 1.385 . S
C4000 H3981 0.951 . S
C4000 C3998 1.388 . S
C4000 C4001 1.366 . S
C4001 C4000 1.366 . S
C4001 C4002 1.414 . S
C4001 C4004 1.499 . S
C4002 H3982 0.950 . S
C4002 C4001 1.414 . S
C4002 C4003 1.374 . S
C4003 H3983 0.950 . S
C4003 C3999 1.385 . S
C4003 C4002 1.374 . S
C4004 C4001 1.499 . S
C4004 C4005 1.373 . S
C4004 C4006 1.389 . S
C4005 H3984 0.950 . S
C4005 C4004 1.373 . S
C4005 C4021 1.377 . S
C4006 C4004 1.389 . S
C4006 C4007 1.524 . S
C4006 C4020 1.377 . S
C4007 C4006 1.524 . S
C4007 C4008 1.397 . S
C4007 C4012 1.363 . S
C4008 H3985 0.950 . S
C4008 C4007 1.397 . S
C4008 C4009 1.334 . S
C4009 H3986 0.950 . S
C4009 C4008 1.334 . S
C4009 C4010 1.287 . S
C4010 C4009 1.287 . S
C4010 C4011 1.524 . S
C4010 H4029 0.913 . S
C4011 H3987 0.950 . S
C4011 C4010 1.524 . S
C4011 C4012 1.415 . S
C4012 H3988 0.950 . S
C4012 C4007 1.363 . S
C4012 C4011 1.415 . S
C4013 H3989 0.951 . S
C4013 C4014 1.366 . S
C4013 C4015 1.388 . S
C4014 C4013 1.366 . S
C4014 C4018 1.385 . S
C4015 H3990 0.951 . S
C4015 C4013 1.388 . S
C4015 C4016 1.366 . S
C4016 C4015 1.366 . S
C4016 C4017 1.414 . S
C4016 C4019 1.499 . S
C4017 H3991 0.950 . S
C4017 C4016 1.414 . S
C4017 C4018 1.374 . S
C4018 H3992 0.950 . S
C4018 C4014 1.385 . S
C4018 C4017 1.374 . S
C4019 C4016 1.499 . S
C4019 C4020 1.373 . S
C4019 C4021 1.389 . S
C4020 H3993 0.950 . S
C4020 C4006 1.377 . S
C4020 C4019 1.373 . S
C4021 C4005 1.377 . S
C4021 C4019 1.389 . S
C4021 C4022 1.524 . S
C4022 C4021 1.524 . S
C4022 C4023 1.397 . S
C4022 C4027 1.363 . S
C4023 H3994 0.950 . S
C4023 C4022 1.397 . S
C4023 C4024 1.334 . S
C4024 H3995 0.950 . S
C4024 C4023 1.334 . S
C4024 C4025 1.287 . S
C4025 C4024 1.287 . S
C4025 C4026 1.524 . S
C4025 H4028 0.999 . S
C4026 H3996 0.950 . S
C4026 C4025 1.524 . S
C4026 C4027 1.415 . S
C4027 H3997 0.950 . S
C4027 C4022 1.363 . S
C4027 C4026 1.415 . S
H4028 C4025 0.999 . S
H4029 C4010 0.913 . S
H4030 C4048 0.951 . S
H4031 C4050 0.951 . S
H4032 C4052 0.950 . S
H4033 C4053 0.950 . S
H4034 C4055 0.950 . S
H4035 C4058 0.950 . S
H4036 C4059 0.950 . S
H4037 C4061 0.950 . S
H4038 C4062 0.950 . S
H4039 C4063 0.951 . S
H4040 C4065 0.951 . S
H4041 C4067 0.950 . S
H4042 C4068 0.950 . S
H4043 C4070 0.950 . S
H4044 C4073 0.950 . S
H4045 C4074 0.950 . S
H4046 C4076 0.950 . S
H4047 C4077 0.950 . S
C4048 H4030 0.951 . S
C4048 C4049 1.366 . S
C4048 C4050 1.388 . S
C4049 C4048 1.366 . S
C4049 C4053 1.385 . S
C4050 H4031 0.951 . S
C4050 C4048 1.388 . S
C4050 C4051 1.366 . S
C4051 C4050 1.366 . S
C4051 C4052 1.414 . S
C4051 C4054 1.499 . S
C4052 H4032 0.950 . S
C4052 C4051 1.414 . S
C4052 C4053 1.374 . S
C4053 H4033 0.950 . S
C4053 C4049 1.385 . S
C4053 C4052 1.374 . S
C4054 C4051 1.499 . S
C4054 C4055 1.373 . S
C4054 C4056 1.389 . S
C4055 H4034 0.950 . S
C4055 C4054 1.373 . S
C4055 C4071 1.377 . S
C4056 C4054 1.389 . S
C4056 C4057 1.524 . S
C4056 C4070 1.377 . S
C4057 C4056 1.524 . S
C4057 C4058 1.397 . S
C4057 C4062 1.363 . S
C4058 H4035 0.950 . S
C4058 C4057 1.397 . S
C4058 C4059 1.334 . S
C4059 H4036 0.950 . S
C4059 C4058 1.334 . S
C4059 C4060 1.287 . S
C4060 C4059 1.287 . S
C4060 C4061 1.524 . S
C4060 H4079 0.913 . S
C4061 H4037 0.950 . S
C4061 C4060 1.524 . S
C4061 C4062 1.415 . S
C4062 H4038 0.950 . S
C4062 C4057 1.363 . S
C4062 C4061 1.415 . S
C4063 H4039 0.951 . S
C4063 C4064 1.366 . S
C4063 C4065 1.388 . S
C4064 C4063 1.366 . S
C4064 C4068 1.385 . S
C4065 H4040 0.951 . S
C4065 C4063 1.388 . S
C4065 C4066 1.366 . S
C4066 C4065 1.366 . S
C4066 C4067 1.414 . S
C4066 C4069 1.499 . S
C4067 H4041 0.950 . S
C4067 C4066 1.414 . S
C4067 C4068 1.374 . S
C4068 H4042 0.950 . S
C4068 C4064 1.385 . S
C4068 C4067 1.374 . S
C4069 C4066 1.499 . S
C4069 C4070 1.373 . S
C4069 C4071 1.389 . S
C4070 H4043 0.950 . S
C4070 C4056 1.377 . S
C4070 C4069 1.373 . S
C4071 C4055 1.377 . S
C4071 C4069 1.389 . S
C4071 C4072 1.524 . S
C4072 C4071 1.524 . S
C4072 C4073 1.397 . S
C4072 C4077 1.363 . S
C4073 H4044 0.950 . S
C4073 C4072 1.397 . S
C4073 C4074 1.334 . S
C4074 H4045 0.950 . S
C4074 C4073 1.334 . S
C4074 C4075 1.287 . S
C4075 C4074 1.287 . S
C4075 C4076 1.524 . S
C4075 H4078 0.999 . S
C4076 H4046 0.950 . S
C4076 C4075 1.524 . S
C4076 C4077 1.415 . S
C4077 H4047 0.950 . S
C4077 C4072 1.363 . S
C4077 C4076 1.415 . S
H4078 C4075 0.999 . S
H4079 C4060 0.913 . S
H4080 C4098 0.951 . S
H4081 C4100 0.951 . S
H4082 C4102 0.950 . S
H4083 C4103 0.950 . S
H4084 C4105 0.950 . S
H4085 C4108 0.950 . S
H4086 C4109 0.950 . S
H4087 C4111 0.950 . S
H4088 C4112 0.950 . S
H4089 C4113 0.951 . S
H4090 C4115 0.951 . S
H4091 C4117 0.950 . S
H4092 C4118 0.950 . S
H4093 C4120 0.950 . S
H4094 C4123 0.950 . S
H4095 C4124 0.950 . S
H4096 C4126 0.950 . S
H4097 C4127 0.950 . S
C4098 H4080 0.951 . S
C4098 C4099 1.366 . S
C4098 C4100 1.388 . S
C4099 C4098 1.366 . S
C4099 C4103 1.385 . S
C4100 H4081 0.951 . S
C4100 C4098 1.388 . S
C4100 C4101 1.366 . S
C4101 C4100 1.366 . S
C4101 C4102 1.414 . S
C4101 C4104 1.499 . S
C4102 H4082 0.950 . S
C4102 C4101 1.414 . S
C4102 C4103 1.374 . S
C4103 H4083 0.950 . S
C4103 C4099 1.385 . S
C4103 C4102 1.374 . S
C4104 C4101 1.499 . S
C4104 C4105 1.373 . S
C4104 C4106 1.389 . S
C4105 H4084 0.950 . S
C4105 C4104 1.373 . S
C4105 C4121 1.377 . S
C4106 C4104 1.389 . S
C4106 C4107 1.524 . S
C4106 C4120 1.377 . S
C4107 C4106 1.524 . S
C4107 C4108 1.397 . S
C4107 C4112 1.363 . S
C4108 H4085 0.950 . S
C4108 C4107 1.397 . S
C4108 C4109 1.334 . S
C4109 H4086 0.950 . S
C4109 C4108 1.334 . S
C4109 C4110 1.287 . S
C4110 C4109 1.287 . S
C4110 C4111 1.524 . S
C4110 H4129 0.913 . S
C4111 H4087 0.950 . S
C4111 C4110 1.524 . S
C4111 C4112 1.415 . S
C4112 H4088 0.950 . S
C4112 C4107 1.363 . S
C4112 C4111 1.415 . S
C4113 H4089 0.951 . S
C4113 C4114 1.366 . S
C4113 C4115 1.388 . S
C4114 C4113 1.366 . S
C4114 C4118 1.385 . S
C4115 H4090 0.951 . S
C4115 C4113 1.388 . S
C4115 C4116 1.366 . S
C4116 C4115 1.366 . S
C4116 C4117 1.414 . S
C4116 C4119 1.499 . S
C4117 H4091 0.950 . S
C4117 C4116 1.414 . S
C4117 C4118 1.374 . S
C4118 H4092 0.950 . S
C4118 C4114 1.385 . S
C4118 C4117 1.374 . S
C4119 C4116 1.499 . S
C4119 C4120 1.373 . S
C4119 C4121 1.389 . S
C4120 H4093 0.950 . S
C4120 C4106 1.377 . S
C4120 C4119 1.373 . S
C4121 C4105 1.377 . S
C4121 C4119 1.389 . S
C4121 C4122 1.524 . S
C4122 C4121 1.524 . S
C4122 C4123 1.397 . S
C4122 C4127 1.363 . S
C4123 H4094 0.950 . S
C4123 C4122 1.397 . S
C4123 C4124 1.334 . S
C4124 H4095 0.950 . S
C4124 C4123 1.334 . S
C4124 C4125 1.287 . S
C4125 C4124 1.287 . S
C4125 C4126 1.524 . S
C4125 H4128 0.999 . S
C4126 H4096 0.950 . S
C4126 C4125 1.524 . S
C4126 C4127 1.415 . S
C4127 H4097 0.950 . S
C4127 C4122 1.363 . S
C4127 C4126 1.415 . S
H4128 C4125 0.999 . S
H4129 C4110 0.913 . S
H4130 C4148 0.951 . S
H4131 C4150 0.951 . S
H4132 C4152 0.950 . S
H4133 C4153 0.950 . S
H4134 C4155 0.950 . S
H4135 C4158 0.950 . S
H4136 C4159 0.950 . S
H4137 C4161 0.950 . S
H4138 C4162 0.950 . S
H4139 C4163 0.951 . S
H4140 C4165 0.951 . S
H4141 C4167 0.950 . S
H4142 C4168 0.950 . S
H4143 C4170 0.950 . S
H4144 C4173 0.950 . S
H4145 C4174 0.950 . S
H4146 C4176 0.950 . S
H4147 C4177 0.950 . S
C4148 H4130 0.951 . S
C4148 C4149 1.366 . S
C4148 C4150 1.388 . S
C4149 C4148 1.366 . S
C4149 C4153 1.385 . S
C4150 H4131 0.951 . S
C4150 C4148 1.388 . S
C4150 C4151 1.366 . S
C4151 C4150 1.366 . S
C4151 C4152 1.414 . S
C4151 C4154 1.499 . S
C4152 H4132 0.950 . S
C4152 C4151 1.414 . S
C4152 C4153 1.374 . S
C4153 H4133 0.950 . S
C4153 C4149 1.385 . S
C4153 C4152 1.374 . S
C4154 C4151 1.499 . S
C4154 C4155 1.373 . S
C4154 C4156 1.389 . S
C4155 H4134 0.950 . S
C4155 C4154 1.373 . S
C4155 C4171 1.377 . S
C4156 C4154 1.389 . S
C4156 C4157 1.524 . S
C4156 C4170 1.377 . S
C4157 C4156 1.524 . S
C4157 C4158 1.397 . S
C4157 C4162 1.363 . S
C4158 H4135 0.950 . S
C4158 C4157 1.397 . S
C4158 C4159 1.334 . S
C4159 H4136 0.950 . S
C4159 C4158 1.334 . S
C4159 C4160 1.287 . S
C4160 C4159 1.287 . S
C4160 C4161 1.524 . S
C4160 H4179 0.913 . S
C4161 H4137 0.950 . S
C4161 C4160 1.524 . S
C4161 C4162 1.415 . S
C4162 H4138 0.950 . S
C4162 C4157 1.363 . S
C4162 C4161 1.415 . S
C4163 H4139 0.951 . S
C4163 C4164 1.366 . S
C4163 C4165 1.388 . S
C4164 C4163 1.366 . S
C4164 C4168 1.385 . S
C4165 H4140 0.951 . S
C4165 C4163 1.388 . S
C4165 C4166 1.366 . S
C4166 C4165 1.366 . S
C4166 C4167 1.414 . S
C4166 C4169 1.499 . S
C4167 H4141 0.950 . S
C4167 C4166 1.414 . S
C4167 C4168 1.374 . S
C4168 H4142 0.950 . S
C4168 C4164 1.385 . S
C4168 C4167 1.374 . S
C4169 C4166 1.499 . S
C4169 C4170 1.373 . S
C4169 C4171 1.389 . S
C4170 H4143 0.950 . S
C4170 C4156 1.377 . S
C4170 C4169 1.373 . S
C4171 C4155 1.377 . S
C4171 C4169 1.389 . S
C4171 C4172 1.524 . S
C4172 C4171 1.524 . S
C4172 C4173 1.397 . S
C4172 C4177 1.363 . S
C4173 H4144 0.950 . S
C4173 C4172 1.397 . S
C4173 C4174 1.334 . S
C4174 H4145 0.950 . S
C4174 C4173 1.334 . S
C4174 C4175 1.287 . S
C4175 C4174 1.287 . S
C4175 C4176 1.524 . S
C4175 H4178 0.999 . S
C4176 H4146 0.950 . S
C4176 C4175 1.524 . S
C4176 C4177 1.415 . S
C4177 H4147 0.950 . S
C4177 C4172 1.363 . S
C4177 C4176 1.415 . S
H4178 C4175 0.999 . S
H4179 C4160 0.913 . S
H4180 C4198 0.951 . S
H4181 C4200 0.951 . S
H4182 C4202 0.950 . S
H4183 C4203 0.950 . S
H4184 C4205 0.950 . S
H4185 C4208 0.950 . S
H4186 C4209 0.950 . S
H4187 C4211 0.950 . S
H4188 C4212 0.950 . S
H4189 C4213 0.951 . S
H4190 C4215 0.951 . S
H4191 C4217 0.950 . S
H4192 C4218 0.950 . S
H4193 C4220 0.950 . S
H4194 C4223 0.950 . S
H4195 C4224 0.950 . S
H4196 C4226 0.950 . S
H4197 C4227 0.950 . S
C4198 H4180 0.951 . S
C4198 C4199 1.366 . S
C4198 C4200 1.388 . S
C4199 C4198 1.366 . S
C4199 C4203 1.385 . S
C4200 H4181 0.951 . S
C4200 C4198 1.388 . S
C4200 C4201 1.366 . S
C4201 C4200 1.366 . S
C4201 C4202 1.414 . S
C4201 C4204 1.499 . S
C4202 H4182 0.950 . S
C4202 C4201 1.414 . S
C4202 C4203 1.374 . S
C4203 H4183 0.950 . S
C4203 C4199 1.385 . S
C4203 C4202 1.374 . S
C4204 C4201 1.499 . S
C4204 C4205 1.373 . S
C4204 C4206 1.389 . S
C4205 H4184 0.950 . S
C4205 C4204 1.373 . S
C4205 C4221 1.377 . S
C4206 C4204 1.389 . S
C4206 C4207 1.524 . S
C4206 C4220 1.377 . S
C4207 C4206 1.524 . S
C4207 C4208 1.397 . S
C4207 C4212 1.363 . S
C4208 H4185 0.950 . S
C4208 C4207 1.397 . S
C4208 C4209 1.334 . S
C4209 H4186 0.950 . S
C4209 C4208 1.334 . S
C4209 C4210 1.287 . S
C4210 C4209 1.287 . S
C4210 C4211 1.524 . S
C4210 H4229 0.913 . S
C4211 H4187 0.950 . S
C4211 C4210 1.524 . S
C4211 C4212 1.415 . S
C4212 H4188 0.950 . S
C4212 C4207 1.363 . S
C4212 C4211 1.415 . S
C4213 H4189 0.951 . S
C4213 C4214 1.366 . S
C4213 C4215 1.388 . S
C4214 C4213 1.366 . S
C4214 C4218 1.385 . S
C4215 H4190 0.951 . S
C4215 C4213 1.388 . S
C4215 C4216 1.366 . S
C4216 C4215 1.366 . S
C4216 C4217 1.414 . S
C4216 C4219 1.499 . S
C4217 H4191 0.950 . S
C4217 C4216 1.414 . S
C4217 C4218 1.374 . S
C4218 H4192 0.950 . S
C4218 C4214 1.385 . S
C4218 C4217 1.374 . S
C4219 C4216 1.499 . S
C4219 C4220 1.373 . S
C4219 C4221 1.389 . S
C4220 H4193 0.950 . S
C4220 C4206 1.377 . S
C4220 C4219 1.373 . S
C4221 C4205 1.377 . S
C4221 C4219 1.389 . S
C4221 C4222 1.524 . S
C4222 C4221 1.524 . S
C4222 C4223 1.397 . S
C4222 C4227 1.363 . S
C4223 H4194 0.950 . S
C4223 C4222 1.397 . S
C4223 C4224 1.334 . S
C4224 H4195 0.950 . S
C4224 C4223 1.334 . S
C4224 C4225 1.287 . S
C4225 C4224 1.287 . S
C4225 C4226 1.524 . S
C4225 H4228 0.999 . S
C4226 H4196 0.950 . S
C4226 C4225 1.524 . S
C4226 C4227 1.415 . S
C4227 H4197 0.950 . S
C4227 C4222 1.363 . S
C4227 C4226 1.415 . S
H4228 C4225 0.999 . S
H4229 C4210 0.913 . S
H4230 C4248 0.951 . S
H4231 C4250 0.951 . S
H4232 C4252 0.950 . S
H4233 C4253 0.950 . S
H4234 C4255 0.950 . S
H4235 C4258 0.950 . S
H4236 C4259 0.950 . S
H4237 C4261 0.950 . S
H4238 C4262 0.950 . S
H4239 C4263 0.951 . S
H4240 C4265 0.951 . S
H4241 C4267 0.950 . S
H4242 C4268 0.950 . S
H4243 C4270 0.950 . S
H4244 C4273 0.950 . S
H4245 C4274 0.950 . S
H4246 C4276 0.950 . S
H4247 C4277 0.950 . S
C4248 H4230 0.951 . S
C4248 C4249 1.366 . S
C4248 C4250 1.388 . S
C4249 C4248 1.366 . S
C4249 C4253 1.385 . S
C4250 H4231 0.951 . S
C4250 C4248 1.388 . S
C4250 C4251 1.366 . S
C4251 C4250 1.366 . S
C4251 C4252 1.414 . S
C4251 C4254 1.499 . S
C4252 H4232 0.950 . S
C4252 C4251 1.414 . S
C4252 C4253 1.374 . S
C4253 H4233 0.950 . S
C4253 C4249 1.385 . S
C4253 C4252 1.374 . S
C4254 C4251 1.499 . S
C4254 C4255 1.373 . S
C4254 C4256 1.389 . S
C4255 H4234 0.950 . S
C4255 C4254 1.373 . S
C4255 C4271 1.377 . S
C4256 C4254 1.389 . S
C4256 C4257 1.524 . S
C4256 C4270 1.377 . S
C4257 C4256 1.524 . S
C4257 C4258 1.397 . S
C4257 C4262 1.363 . S
C4258 H4235 0.950 . S
C4258 C4257 1.397 . S
C4258 C4259 1.334 . S
C4259 H4236 0.950 . S
C4259 C4258 1.334 . S
C4259 C4260 1.287 . S
C4260 C4259 1.287 . S
C4260 C4261 1.524 . S
C4260 H4279 0.913 . S
C4261 H4237 0.950 . S
C4261 C4260 1.524 . S
C4261 C4262 1.415 . S
C4262 H4238 0.950 . S
C4262 C4257 1.363 . S
C4262 C4261 1.415 . S
C4263 H4239 0.951 . S
C4263 C4264 1.366 . S
C4263 C4265 1.388 . S
C4264 C4263 1.366 . S
C4264 C4268 1.385 . S
C4265 H4240 0.951 . S
C4265 C4263 1.388 . S
C4265 C4266 1.366 . S
C4266 C4265 1.366 . S
C4266 C4267 1.414 . S
C4266 C4269 1.499 . S
C4267 H4241 0.950 . S
C4267 C4266 1.414 . S
C4267 C4268 1.374 . S
C4268 H4242 0.950 . S
C4268 C4264 1.385 . S
C4268 C4267 1.374 . S
C4269 C4266 1.499 . S
C4269 C4270 1.373 . S
C4269 C4271 1.389 . S
C4270 H4243 0.950 . S
C4270 C4256 1.377 . S
C4270 C4269 1.373 . S
C4271 C4255 1.377 . S
C4271 C4269 1.389 . S
C4271 C4272 1.524 . S
C4272 C4271 1.524 . S
C4272 C4273 1.397 . S
C4272 C4277 1.363 . S
C4273 H4244 0.950 . S
C4273 C4272 1.397 . S
C4273 C4274 1.334 . S
C4274 H4245 0.950 . S
C4274 C4273 1.334 . S
C4274 C4275 1.287 . S
C4275 C4274 1.287 . S
C4275 C4276 1.524 . S
C4275 H4278 0.999 . S
C4276 H4246 0.950 . S
C4276 C4275 1.524 . S
C4276 C4277 1.415 . S
C4277 H4247 0.950 . S
C4277 C4272 1.363 . S
C4277 C4276 1.415 . S
H4278 C4275 0.999 . S
H4279 C4260 0.913 . S
H4280 C4298 0.951 . S
H4281 C4300 0.951 . S
H4282 C4302 0.950 . S
H4283 C4303 0.950 . S
H4284 C4305 0.950 . S
H4285 C4308 0.950 . S
H4286 C4309 0.950 . S
H4287 C4311 0.950 . S
H4288 C4312 0.950 . S
H4289 C4313 0.951 . S
H4290 C4315 0.951 . S
H4291 C4317 0.950 . S
H4292 C4318 0.950 . S
H4293 C4320 0.950 . S
H4294 C4323 0.950 . S
H4295 C4324 0.950 . S
H4296 C4326 0.950 . S
H4297 C4327 0.950 . S
C4298 H4280 0.951 . S
C4298 C4299 1.366 . S
C4298 C4300 1.388 . S
C4299 C4298 1.366 . S
C4299 C4303 1.385 . S
C4300 H4281 0.951 . S
C4300 C4298 1.388 . S
C4300 C4301 1.366 . S
C4301 C4300 1.366 . S
C4301 C4302 1.414 . S
C4301 C4304 1.499 . S
C4302 H4282 0.950 . S
C4302 C4301 1.414 . S
C4302 C4303 1.374 . S
C4303 H4283 0.950 . S
C4303 C4299 1.385 . S
C4303 C4302 1.374 . S
C4304 C4301 1.499 . S
C4304 C4305 1.373 . S
C4304 C4306 1.389 . S
C4305 H4284 0.950 . S
C4305 C4304 1.373 . S
C4305 C4321 1.377 . S
C4306 C4304 1.389 . S
C4306 C4307 1.524 . S
C4306 C4320 1.377 . S
C4307 C4306 1.524 . S
C4307 C4308 1.397 . S
C4307 C4312 1.363 . S
C4308 H4285 0.950 . S
C4308 C4307 1.397 . S
C4308 C4309 1.334 . S
C4309 H4286 0.950 . S
C4309 C4308 1.334 . S
C4309 C4310 1.287 . S
C4310 C4309 1.287 . S
C4310 C4311 1.524 . S
C4310 H4329 0.913 . S
C4311 H4287 0.950 . S
C4311 C4310 1.524 . S
C4311 C4312 1.415 . S
C4312 H4288 0.950 . S
C4312 C4307 1.363 . S
C4312 C4311 1.415 . S
C4313 H4289 0.951 . S
C4313 C4314 1.366 . S
C4313 C4315 1.388 . S
C4314 C4313 1.366 . S
C4314 C4318 1.385 . S
C4315 H4290 0.951 . S
C4315 C4313 1.388 . S
C4315 C4316 1.366 . S
C4316 C4315 1.366 . S
C4316 C4317 1.414 . S
C4316 C4319 1.499 . S
C4317 H4291 0.950 . S
C4317 C4316 1.414 . S
C4317 C4318 1.374 . S
C4318 H4292 0.950 . S
C4318 C4314 1.385 . S
C4318 C4317 1.374 . S
C4319 C4316 1.499 . S
C4319 C4320 1.373 . S
C4319 C4321 1.389 . S
C4320 H4293 0.950 . S
C4320 C4306 1.377 . S
C4320 C4319 1.373 . S
C4321 C4305 1.377 . S
C4321 C4319 1.389 . S
C4321 C4322 1.524 . S
C4322 C4321 1.524 . S
C4322 C4323 1.397 . S
C4322 C4327 1.363 . S
C4323 H4294 0.950 . S
C4323 C4322 1.397 . S
C4323 C4324 1.334 . S
C4324 H4295 0.950 . S
C4324 C4323 1.334 . S
C4324 C4325 1.287 . S
C4325 C4324 1.287 . S
C4325 C4326 1.524 . S
C4325 H4328 0.999 . S
C4326 H4296 0.950 . S
C4326 C4325 1.524 . S
C4326 C4327 1.415 . S
C4327 H4297 0.950 . S
C4327 C4322 1.363 . S
C4327 C4326 1.415 . S
H4328 C4325 0.999 . S
H4329 C4310 0.913 . S
H4330 C4348 0.951 . S
H4331 C4350 0.951 . S
H4332 C4352 0.950 . S
H4333 C4353 0.950 . S
H4334 C4355 0.950 . S
H4335 C4358 0.950 . S
H4336 C4359 0.950 . S
H4337 C4361 0.950 . S
H4338 C4362 0.950 . S
H4339 C4363 0.951 . S
H4340 C4365 0.951 . S
H4341 C4367 0.950 . S
H4342 C4368 0.950 . S
H4343 C4370 0.950 . S
H4344 C4373 0.950 . S
H4345 C4374 0.950 . S
H4346 C4376 0.950 . S
H4347 C4377 0.950 . S
C4348 H4330 0.951 . S
C4348 C4349 1.366 . S
C4348 C4350 1.388 . S
C4349 C4348 1.366 . S
C4349 C4353 1.385 . S
C4350 H4331 0.951 . S
C4350 C4348 1.388 . S
C4350 C4351 1.366 . S
C4351 C4350 1.366 . S
C4351 C4352 1.414 . S
C4351 C4354 1.499 . S
C4352 H4332 0.950 . S
C4352 C4351 1.414 . S
C4352 C4353 1.374 . S
C4353 H4333 0.950 . S
C4353 C4349 1.385 . S
C4353 C4352 1.374 . S
C4354 C4351 1.499 . S
C4354 C4355 1.373 . S
C4354 C4356 1.389 . S
C4355 H4334 0.950 . S
C4355 C4354 1.373 . S
C4355 C4371 1.377 . S
C4356 C4354 1.389 . S
C4356 C4357 1.524 . S
C4356 C4370 1.377 . S
C4357 C4356 1.524 . S
C4357 C4358 1.397 . S
C4357 C4362 1.363 . S
C4358 H4335 0.950 . S
C4358 C4357 1.397 . S
C4358 C4359 1.334 . S
C4359 H4336 0.950 . S
C4359 C4358 1.334 . S
C4359 C4360 1.287 . S
C4360 C4359 1.287 . S
C4360 C4361 1.524 . S
C4360 H4379 0.913 . S
C4361 H4337 0.950 . S
C4361 C4360 1.524 . S
C4361 C4362 1.415 . S
C4362 H4338 0.950 . S
C4362 C4357 1.363 . S
C4362 C4361 1.415 . S
C4363 H4339 0.951 . S
C4363 C4364 1.366 . S
C4363 C4365 1.388 . S
C4364 C4363 1.366 . S
C4364 C4368 1.385 . S
C4365 H4340 0.951 . S
C4365 C4363 1.388 . S
C4365 C4366 1.366 . S
C4366 C4365 1.366 . S
C4366 C4367 1.414 . S
C4366 C4369 1.499 . S
C4367 H4341 0.950 . S
C4367 C4366 1.414 . S
C4367 C4368 1.374 . S
C4368 H4342 0.950 . S
C4368 C4364 1.385 . S
C4368 C4367 1.374 . S
C4369 C4366 1.499 . S
C4369 C4370 1.373 . S
C4369 C4371 1.389 . S
C4370 H4343 0.950 . S
C4370 C4356 1.377 . S
C4370 C4369 1.373 . S
C4371 C4355 1.377 . S
C4371 C4369 1.389 . S
C4371 C4372 1.524 . S
C4372 C4371 1.524 . S
C4372 C4373 1.397 . S
C4372 C4377 1.363 . S
C4373 H4344 0.950 . S
C4373 C4372 1.397 . S
C4373 C4374 1.334 . S
C4374 H4345 0.950 . S
C4374 C4373 1.334 . S
C4374 C4375 1.287 . S
C4375 C4374 1.287 . S
C4375 C4376 1.524 . S
C4375 H4378 0.999 . S
C4376 H4346 0.950 . S
C4376 C4375 1.524 . S
C4376 C4377 1.415 . S
C4377 H4347 0.950 . S
C4377 C4372 1.363 . S
C4377 C4376 1.415 . S
H4378 C4375 0.999 . S
H4379 C4360 0.913 . S
H4380 C4398 0.951 . S
H4381 C4400 0.951 . S
H4382 C4402 0.950 . S
H4383 C4403 0.950 . S
H4384 C4405 0.950 . S
H4385 C4408 0.950 . S
H4386 C4409 0.950 . S
H4387 C4411 0.950 . S
H4388 C4412 0.950 . S
H4389 C4413 0.951 . S
H4390 C4415 0.951 . S
H4391 C4417 0.950 . S
H4392 C4418 0.950 . S
H4393 C4420 0.950 . S
H4394 C4423 0.950 . S
H4395 C4424 0.950 . S
H4396 C4426 0.950 . S
H4397 C4427 0.950 . S
C4398 H4380 0.951 . S
C4398 C4399 1.366 . S
C4398 C4400 1.388 . S
C4399 C4398 1.366 . S
C4399 C4403 1.385 . S
C4400 H4381 0.951 . S
C4400 C4398 1.388 . S
C4400 C4401 1.366 . S
C4401 C4400 1.366 . S
C4401 C4402 1.414 . S
C4401 C4404 1.499 . S
C4402 H4382 0.950 . S
C4402 C4401 1.414 . S
C4402 C4403 1.374 . S
C4403 H4383 0.950 . S
C4403 C4399 1.385 . S
C4403 C4402 1.374 . S
C4404 C4401 1.499 . S
C4404 C4405 1.373 . S
C4404 C4406 1.389 . S
C4405 H4384 0.950 . S
C4405 C4404 1.373 . S
C4405 C4421 1.377 . S
C4406 C4404 1.389 . S
C4406 C4407 1.524 . S
C4406 C4420 1.377 . S
C4407 C4406 1.524 . S
C4407 C4408 1.397 . S
C4407 C4412 1.363 . S
C4408 H4385 0.950 . S
C4408 C4407 1.397 . S
C4408 C4409 1.334 . S
C4409 H4386 0.950 . S
C4409 C4408 1.334 . S
C4409 C4410 1.287 . S
C4410 C4409 1.287 . S
C4410 C4411 1.524 . S
C4410 H4429 0.913 . S
C4411 H4387 0.950 . S
C4411 C4410 1.524 . S
C4411 C4412 1.415 . S
C4412 H4388 0.950 . S
C4412 C4407 1.363 . S
C4412 C4411 1.415 . S
C4413 H4389 0.951 . S
C4413 C4414 1.366 . S
C4413 C4415 1.388 . S
C4414 C4413 1.366 . S
C4414 C4418 1.385 . S
C4415 H4390 0.951 . S
C4415 C4413 1.388 . S
C4415 C4416 1.366 . S
C4416 C4415 1.366 . S
C4416 C4417 1.414 . S
C4416 C4419 1.499 . S
C4417 H4391 0.950 . S
C4417 C4416 1.414 . S
C4417 C4418 1.374 . S
C4418 H4392 0.950 . S
C4418 C4414 1.385 . S
C4418 C4417 1.374 . S
C4419 C4416 1.499 . S
C4419 C4420 1.373 . S
C4419 C4421 1.389 . S
C4420 H4393 0.950 . S
C4420 C4406 1.377 . S
C4420 C4419 1.373 . S
C4421 C4405 1.377 . S
C4421 C4419 1.389 . S
C4421 C4422 1.524 . S
C4422 C4421 1.524 . S
C4422 C4423 1.397 . S
C4422 C4427 1.363 . S
C4423 H4394 0.950 . S
C4423 C4422 1.397 . S
C4423 C4424 1.334 . S
C4424 H4395 0.950 . S
C4424 C4423 1.334 . S
C4424 C4425 1.287 . S
C4425 C4424 1.287 . S
C4425 C4426 1.524 . S
C4425 H4428 0.999 . S
C4426 H4396 0.950 . S
C4426 C4425 1.524 . S
C4426 C4427 1.415 . S
C4427 H4397 0.950 . S
C4427 C4422 1.363 . S
C4427 C4426 1.415 . S
H4428 C4425 0.999 . S
H4429 C4410 0.913 . S
H4430 C4448 0.951 . S
H4431 C4450 0.951 . S
H4432 C4452 0.950 . S
H4433 C4453 0.950 . S
H4434 C4455 0.950 . S
H4435 C4458 0.950 . S
H4436 C4459 0.950 . S
H4437 C4461 0.950 . S
H4438 C4462 0.950 . S
H4439 C4463 0.951 . S
H4440 C4465 0.951 . S
H4441 C4467 0.950 . S
H4442 C4468 0.950 . S
H4443 C4470 0.950 . S
H4444 C4473 0.950 . S
H4445 C4474 0.950 . S
H4446 C4476 0.950 . S
H4447 C4477 0.950 . S
C4448 H4430 0.951 . S
C4448 C4449 1.366 . S
C4448 C4450 1.388 . S
C4449 C4448 1.366 . S
C4449 C4453 1.385 . S
C4450 H4431 0.951 . S
C4450 C4448 1.388 . S
C4450 C4451 1.366 . S
C4451 C4450 1.366 . S
C4451 C4452 1.414 . S
C4451 C4454 1.499 . S
C4452 H4432 0.950 . S
C4452 C4451 1.414 . S
C4452 C4453 1.374 . S
C4453 H4433 0.950 . S
C4453 C4449 1.385 . S
C4453 C4452 1.374 . S
C4454 C4451 1.499 . S
C4454 C4455 1.373 . S
C4454 C4456 1.389 . S
C4455 H4434 0.950 . S
C4455 C4454 1.373 . S
C4455 C4471 1.377 . S
C4456 C4454 1.389 . S
C4456 C4457 1.524 . S
C4456 C4470 1.377 . S
C4457 C4456 1.524 . S
C4457 C4458 1.397 . S
C4457 C4462 1.363 . S
C4458 H4435 0.950 . S
C4458 C4457 1.397 . S
C4458 C4459 1.334 . S
C4459 H4436 0.950 . S
C4459 C4458 1.334 . S
C4459 C4460 1.287 . S
C4460 C4459 1.287 . S
C4460 C4461 1.524 . S
C4460 H4479 0.913 . S
C4461 H4437 0.950 . S
C4461 C4460 1.524 . S
C4461 C4462 1.415 . S
C4462 H4438 0.950 . S
C4462 C4457 1.363 . S
C4462 C4461 1.415 . S
C4463 H4439 0.951 . S
C4463 C4464 1.366 . S
C4463 C4465 1.388 . S
C4464 C4463 1.366 . S
C4464 C4468 1.385 . S
C4465 H4440 0.951 . S
C4465 C4463 1.388 . S
C4465 C4466 1.366 . S
C4466 C4465 1.366 . S
C4466 C4467 1.414 . S
C4466 C4469 1.499 . S
C4467 H4441 0.950 . S
C4467 C4466 1.414 . S
C4467 C4468 1.374 . S
C4468 H4442 0.950 . S
C4468 C4464 1.385 . S
C4468 C4467 1.374 . S
C4469 C4466 1.499 . S
C4469 C4470 1.373 . S
C4469 C4471 1.389 . S
C4470 H4443 0.950 . S
C4470 C4456 1.377 . S
C4470 C4469 1.373 . S
C4471 C4455 1.377 . S
C4471 C4469 1.389 . S
C4471 C4472 1.524 . S
C4472 C4471 1.524 . S
C4472 C4473 1.397 . S
C4472 C4477 1.363 . S
C4473 H4444 0.950 . S
C4473 C4472 1.397 . S
C4473 C4474 1.334 . S
C4474 H4445 0.950 . S
C4474 C4473 1.334 . S
C4474 C4475 1.287 . S
C4475 C4474 1.287 . S
C4475 C4476 1.524 . S
C4475 H4478 0.999 . S
C4476 H4446 0.950 . S
C4476 C4475 1.524 . S
C4476 C4477 1.415 . S
C4477 H4447 0.950 . S
C4477 C4472 1.363 . S
C4477 C4476 1.415 . S
H4478 C4475 0.999 . S
H4479 C4460 0.913 . S
H4480 C4498 0.951 . S
H4481 C4500 0.951 . S
H4482 C4502 0.950 . S
H4483 C4503 0.950 . S
H4484 C4505 0.950 . S
H4485 C4508 0.950 . S
H4486 C4509 0.950 . S
H4487 C4511 0.950 . S
H4488 C4512 0.950 . S
H4489 C4513 0.951 . S
H4490 C4515 0.951 . S
H4491 C4517 0.950 . S
H4492 C4518 0.950 . S
H4493 C4520 0.950 . S
H4494 C4523 0.950 . S
H4495 C4524 0.950 . S
H4496 C4526 0.950 . S
H4497 C4527 0.950 . S
C4498 H4480 0.951 . S
C4498 C4499 1.366 . S
C4498 C4500 1.388 . S
C4499 C4498 1.366 . S
C4499 C4503 1.385 . S
C4500 H4481 0.951 . S
C4500 C4498 1.388 . S
C4500 C4501 1.366 . S
C4501 C4500 1.366 . S
C4501 C4502 1.414 . S
C4501 C4504 1.499 . S
C4502 H4482 0.950 . S
C4502 C4501 1.414 . S
C4502 C4503 1.374 . S
C4503 H4483 0.950 . S
C4503 C4499 1.385 . S
C4503 C4502 1.374 . S
C4504 C4501 1.499 . S
C4504 C4505 1.373 . S
C4504 C4506 1.389 . S
C4505 H4484 0.950 . S
C4505 C4504 1.373 . S
C4505 C4521 1.377 . S
C4506 C4504 1.389 . S
C4506 C4507 1.524 . S
C4506 C4520 1.377 . S
C4507 C4506 1.524 . S
C4507 C4508 1.397 . S
C4507 C4512 1.363 . S
C4508 H4485 0.950 . S
C4508 C4507 1.397 . S
C4508 C4509 1.334 . S
C4509 H4486 0.950 . S
C4509 C4508 1.334 . S
C4509 C4510 1.287 . S
C4510 C4509 1.287 . S
C4510 C4511 1.524 . S
C4510 H4529 0.913 . S
C4511 H4487 0.950 . S
C4511 C4510 1.524 . S
C4511 C4512 1.415 . S
C4512 H4488 0.950 . S
C4512 C4507 1.363 . S
C4512 C4511 1.415 . S
C4513 H4489 0.951 . S
C4513 C4514 1.366 . S
C4513 C4515 1.388 . S
C4514 C4513 1.366 . S
C4514 C4518 1.385 . S
C4515 H4490 0.951 . S
C4515 C4513 1.388 . S
C4515 C4516 1.366 . S
C4516 C4515 1.366 . S
C4516 C4517 1.414 . S
C4516 C4519 1.499 . S
C4517 H4491 0.950 . S
C4517 C4516 1.414 . S
C4517 C4518 1.374 . S
C4518 H4492 0.950 . S
C4518 C4514 1.385 . S
C4518 C4517 1.374 . S
C4519 C4516 1.499 . S
C4519 C4520 1.373 . S
C4519 C4521 1.389 . S
C4520 H4493 0.950 . S
C4520 C4506 1.377 . S
C4520 C4519 1.373 . S
C4521 C4505 1.377 . S
C4521 C4519 1.389 . S
C4521 C4522 1.524 . S
C4522 C4521 1.524 . S
C4522 C4523 1.397 . S
C4522 C4527 1.363 . S
C4523 H4494 0.950 . S
C4523 C4522 1.397 . S
C4523 C4524 1.334 . S
C4524 H4495 0.950 . S
C4524 C4523 1.334 . S
C4524 C4525 1.287 . S
C4525 C4524 1.287 . S
C4525 C4526 1.524 . S
C4525 H4528 0.999 . S
C4526 H4496 0.950 . S
C4526 C4525 1.524 . S
C4526 C4527 1.415 . S
C4527 H4497 0.950 . S
C4527 C4522 1.363 . S
C4527 C4526 1.415 . S
H4528 C4525 0.999 . S
H4529 C4510 0.913 . S
H4530 C4548 0.951 . S
H4531 C4550 0.951 . S
H4532 C4552 0.950 . S
H4533 C4553 0.950 . S
H4534 C4555 0.950 . S
H4535 C4558 0.950 . S
H4536 C4559 0.950 . S
H4537 C4561 0.950 . S
H4538 C4562 0.950 . S
H4539 C4563 0.951 . S
H4540 C4565 0.951 . S
H4541 C4567 0.950 . S
H4542 C4568 0.950 . S
H4543 C4570 0.950 . S
H4544 C4573 0.950 . S
H4545 C4574 0.950 . S
H4546 C4576 0.950 . S
H4547 C4577 0.950 . S
C4548 H4530 0.951 . S
C4548 C4549 1.366 . S
C4548 C4550 1.388 . S
C4549 C4548 1.366 . S
C4549 C4553 1.385 . S
C4550 H4531 0.951 . S
C4550 C4548 1.388 . S
C4550 C4551 1.366 . S
C4551 C4550 1.366 . S
C4551 C4552 1.414 . S
C4551 C4554 1.499 . S
C4552 H4532 0.950 . S
C4552 C4551 1.414 . S
C4552 C4553 1.374 . S
C4553 H4533 0.950 . S
C4553 C4549 1.385 . S
C4553 C4552 1.374 . S
C4554 C4551 1.499 . S
C4554 C4555 1.373 . S
C4554 C4556 1.389 . S
C4555 H4534 0.950 . S
C4555 C4554 1.373 . S
C4555 C4571 1.377 . S
C4556 C4554 1.389 . S
C4556 C4557 1.524 . S
C4556 C4570 1.377 . S
C4557 C4556 1.524 . S
C4557 C4558 1.397 . S
C4557 C4562 1.363 . S
C4558 H4535 0.950 . S
C4558 C4557 1.397 . S
C4558 C4559 1.334 . S
C4559 H4536 0.950 . S
C4559 C4558 1.334 . S
C4559 C4560 1.287 . S
C4560 C4559 1.287 . S
C4560 C4561 1.524 . S
C4560 H4579 0.913 . S
C4561 H4537 0.950 . S
C4561 C4560 1.524 . S
C4561 C4562 1.415 . S
C4562 H4538 0.950 . S
C4562 C4557 1.363 . S
C4562 C4561 1.415 . S
C4563 H4539 0.951 . S
C4563 C4564 1.366 . S
C4563 C4565 1.388 . S
C4564 C4563 1.366 . S
C4564 C4568 1.385 . S
C4565 H4540 0.951 . S
C4565 C4563 1.388 . S
C4565 C4566 1.366 . S
C4566 C4565 1.366 . S
C4566 C4567 1.414 . S
C4566 C4569 1.499 . S
C4567 H4541 0.950 . S
C4567 C4566 1.414 . S
C4567 C4568 1.374 . S
C4568 H4542 0.950 . S
C4568 C4564 1.385 . S
C4568 C4567 1.374 . S
C4569 C4566 1.499 . S
C4569 C4570 1.373 . S
C4569 C4571 1.389 . S
C4570 H4543 0.950 . S
C4570 C4556 1.377 . S
C4570 C4569 1.373 . S
C4571 C4555 1.377 . S
C4571 C4569 1.389 . S
C4571 C4572 1.524 . S
C4572 C4571 1.524 . S
C4572 C4573 1.397 . S
C4572 C4577 1.363 . S
C4573 H4544 0.950 . S
C4573 C4572 1.397 . S
C4573 C4574 1.334 . S
C4574 H4545 0.950 . S
C4574 C4573 1.334 . S
C4574 C4575 1.287 . S
C4575 C4574 1.287 . S
C4575 C4576 1.524 . S
C4575 H4578 0.999 . S
C4576 H4546 0.950 . S
C4576 C4575 1.524 . S
C4576 C4577 1.415 . S
C4577 H4547 0.950 . S
C4577 C4572 1.363 . S
C4577 C4576 1.415 . S
H4578 C4575 0.999 . S
H4579 C4560 0.913 . S
H4580 C4598 0.951 . S
H4581 C4600 0.951 . S
H4582 C4602 0.950 . S
H4583 C4603 0.950 . S
H4584 C4605 0.950 . S
H4585 C4608 0.950 . S
H4586 C4609 0.950 . S
H4587 C4611 0.950 . S
H4588 C4612 0.950 . S
H4589 C4613 0.951 . S
H4590 C4615 0.951 . S
H4591 C4617 0.950 . S
H4592 C4618 0.950 . S
H4593 C4620 0.950 . S
H4594 C4623 0.950 . S
H4595 C4624 0.950 . S
H4596 C4626 0.950 . S
H4597 C4627 0.950 . S
C4598 H4580 0.951 . S
C4598 C4599 1.366 . S
C4598 C4600 1.388 . S
C4599 C4598 1.366 . S
C4599 C4603 1.385 . S
C4600 H4581 0.951 . S
C4600 C4598 1.388 . S
C4600 C4601 1.366 . S
C4601 C4600 1.366 . S
C4601 C4602 1.414 . S
C4601 C4604 1.499 . S
C4602 H4582 0.950 . S
C4602 C4601 1.414 . S
C4602 C4603 1.374 . S
C4603 H4583 0.950 . S
C4603 C4599 1.385 . S
C4603 C4602 1.374 . S
C4604 C4601 1.499 . S
C4604 C4605 1.373 . S
C4604 C4606 1.389 . S
C4605 H4584 0.950 . S
C4605 C4604 1.373 . S
C4605 C4621 1.377 . S
C4606 C4604 1.389 . S
C4606 C4607 1.524 . S
C4606 C4620 1.377 . S
C4607 C4606 1.524 . S
C4607 C4608 1.397 . S
C4607 C4612 1.363 . S
C4608 H4585 0.950 . S
C4608 C4607 1.397 . S
C4608 C4609 1.334 . S
C4609 H4586 0.950 . S
C4609 C4608 1.334 . S
C4609 C4610 1.287 . S
C4610 C4609 1.287 . S
C4610 C4611 1.524 . S
C4610 H4629 0.913 . S
C4611 H4587 0.950 . S
C4611 C4610 1.524 . S
C4611 C4612 1.415 . S
C4612 H4588 0.950 . S
C4612 C4607 1.363 . S
C4612 C4611 1.415 . S
C4613 H4589 0.951 . S
C4613 C4614 1.366 . S
C4613 C4615 1.388 . S
C4614 C4613 1.366 . S
C4614 C4618 1.385 . S
C4615 H4590 0.951 . S
C4615 C4613 1.388 . S
C4615 C4616 1.366 . S
C4616 C4615 1.366 . S
C4616 C4617 1.414 . S
C4616 C4619 1.499 . S
C4617 H4591 0.950 . S
C4617 C4616 1.414 . S
C4617 C4618 1.374 . S
C4618 H4592 0.950 . S
C4618 C4614 1.385 . S
C4618 C4617 1.374 . S
C4619 C4616 1.499 . S
C4619 C4620 1.373 . S
C4619 C4621 1.389 . S
C4620 H4593 0.950 . S
C4620 C4606 1.377 . S
C4620 C4619 1.373 . S
C4621 C4605 1.377 . S
C4621 C4619 1.389 . S
C4621 C4622 1.524 . S
C4622 C4621 1.524 . S
C4622 C4623 1.397 . S
C4622 C4627 1.363 . S
C4623 H4594 0.950 . S
C4623 C4622 1.397 . S
C4623 C4624 1.334 . S
C4624 H4595 0.950 . S
C4624 C4623 1.334 . S
C4624 C4625 1.287 . S
C4625 C4624 1.287 . S
C4625 C4626 1.524 . S
C4625 H4628 0.999 . S
C4626 H4596 0.950 . S
C4626 C4625 1.524 . S
C4626 C4627 1.415 . S
C4627 H4597 0.950 . S
C4627 C4622 1.363 . S
C4627 C4626 1.415 . S
H4628 C4625 0.999 . S
H4629 C4610 0.913 . S
H4630 C4648 0.951 . S
H4631 C4650 0.951 . S
H4632 C4652 0.950 . S
H4633 C4653 0.950 . S
H4634 C4655 0.950 . S
H4635 C4658 0.950 . S
H4636 C4659 0.950 . S
H4637 C4661 0.950 . S
H4638 C4662 0.950 . S
H4639 C4663 0.951 . S
H4640 C4665 0.951 . S
H4641 C4667 0.950 . S
H4642 C4668 0.950 . S
H4643 C4670 0.950 . S
H4644 C4673 0.950 . S
H4645 C4674 0.950 . S
H4646 C4676 0.950 . S
H4647 C4677 0.950 . S
C4648 H4630 0.951 . S
C4648 C4649 1.366 . S
C4648 C4650 1.388 . S
C4649 C4648 1.366 . S
C4649 C4653 1.385 . S
C4650 H4631 0.951 . S
C4650 C4648 1.388 . S
C4650 C4651 1.366 . S
C4651 C4650 1.366 . S
C4651 C4652 1.414 . S
C4651 C4654 1.499 . S
C4652 H4632 0.950 . S
C4652 C4651 1.414 . S
C4652 C4653 1.374 . S
C4653 H4633 0.950 . S
C4653 C4649 1.385 . S
C4653 C4652 1.374 . S
C4654 C4651 1.499 . S
C4654 C4655 1.373 . S
C4654 C4656 1.389 . S
C4655 H4634 0.950 . S
C4655 C4654 1.373 . S
C4655 C4671 1.377 . S
C4656 C4654 1.389 . S
C4656 C4657 1.524 . S
C4656 C4670 1.377 . S
C4657 C4656 1.524 . S
C4657 C4658 1.397 . S
C4657 C4662 1.363 . S
C4658 H4635 0.950 . S
C4658 C4657 1.397 . S
C4658 C4659 1.334 . S
C4659 H4636 0.950 . S
C4659 C4658 1.334 . S
C4659 C4660 1.287 . S
C4660 C4659 1.287 . S
C4660 C4661 1.524 . S
C4660 H4679 0.913 . S
C4661 H4637 0.950 . S
C4661 C4660 1.524 . S
C4661 C4662 1.415 . S
C4662 H4638 0.950 . S
C4662 C4657 1.363 . S
C4662 C4661 1.415 . S
C4663 H4639 0.951 . S
C4663 C4664 1.366 . S
C4663 C4665 1.388 . S
C4664 C4663 1.366 . S
C4664 C4668 1.385 . S
C4665 H4640 0.951 . S
C4665 C4663 1.388 . S
C4665 C4666 1.366 . S
C4666 C4665 1.366 . S
C4666 C4667 1.414 . S
C4666 C4669 1.499 . S
C4667 H4641 0.950 . S
C4667 C4666 1.414 . S
C4667 C4668 1.374 . S
C4668 H4642 0.950 . S
C4668 C4664 1.385 . S
C4668 C4667 1.374 . S
C4669 C4666 1.499 . S
C4669 C4670 1.373 . S
C4669 C4671 1.389 . S
C4670 H4643 0.950 . S
C4670 C4656 1.377 . S
C4670 C4669 1.373 . S
C4671 C4655 1.377 . S
C4671 C4669 1.389 . S
C4671 C4672 1.524 . S
C4672 C4671 1.524 . S
C4672 C4673 1.397 . S
C4672 C4677 1.363 . S
C4673 H4644 0.950 . S
C4673 C4672 1.397 . S
C4673 C4674 1.334 . S
C4674 H4645 0.950 . S
C4674 C4673 1.334 . S
C4674 C4675 1.287 . S
C4675 C4674 1.287 . S
C4675 C4676 1.524 . S
C4675 H4678 0.999 . S
C4676 H4646 0.950 . S
C4676 C4675 1.524 . S
C4676 C4677 1.415 . S
C4677 H4647 0.950 . S
C4677 C4672 1.363 . S
C4677 C4676 1.415 . S
H4678 C4675 0.999 . S
H4679 C4660 0.913 . S
C1114 C810 0.957 . S
C1099 C765 0.972 . S
C1149 C701 1.021 . S
C1164 C804 0.998 . S
C1214 C772 1.144 . S
C1199 C669 1.175 . S
C1249 C733 1.180 . S
C1264 C786 1.137 . S
C1314 C824 1.644 . S
C1299 C541 1.710 . S
C1364 C911 1.077 . S
C1349 C573 1.072 . S
C1399 C605 1.793 . S
C1414 C838 1.729 . S
C1464 C906 0.702 . S
C1449 C637 0.700 . S
C1499 C413 1.767 . S
C1514 C862 1.725 . S
C1564 C917 1.175 . S
C1549 C445 1.168 . S
C1599 C477 1.667 . S
C1614 C856 1.649 . S
C1649 C509 0.726 . S
C1664 C902 0.727 . S
C1714 C958 0.748 . S
C1699 C381 0.749 . S
C1749 C317 1.248 . S
C1764 C969 1.256 . S
C1799 C285 0.846 . S
C1814 C954 0.851 . S
C1864 C963 1.289 . S
C1849 C349 1.291 1_554 S
C1899 C157 1.121 1_455 S
C1914 C1008 1.101 . S
C1949 C189 0.270 . S
C1964 C1067 0.289 . S
C1999 C221 1.306 . S
C2014 C1024 1.249 . S
C2049 C253 0.660 . S
C2064 C1062 0.663 . S
C2114 C1026 1.287 . S
C2099 C29 1.327 . S
C2164 C1073 0.282 . S
C2149 C61 0.375 . S
C2199 C93 1.103 . S
C2214 C1002 1.077 . S
C2264 C1058 0.613 . S
C2249 C125 0.601 1_545 S
C2314 C794 1.689 . S
C2299 C23 1.691 . S
C2349 C55 1.372 . S
C2364 C798 1.421 . S
C2399 C87 1.726 . S
C2414 C818 1.694 . S
C2449 C113 1.055 1_545 S
C2464 C813 1.083 . S
C2499 C151 1.760 1_455 S
C2514 C816 1.728 . S
C2564 C802 1.368 . S
C2549 C183 1.341 . S
C2599 C215 1.689 . S
C2614 C800 1.664 . S
C2664 C807 1.060 . S
C2649 C247 1.022 . S
C2714 C870 1.679 . S
C2699 C119 1.713 1_545 S
C2749 C17 2.058 . S
C2764 C920 2.055 . S
C2814 C868 1.315 . S
C2799 C49 1.334 . S
C2864 C904 1.928 . S
C2849 C81 1.946 . S
C2899 C177 1.257 . S
C2914 C846 1.235 . S
C2964 C922 2.017 . S
C2949 C209 2.029 . S
C3014 C852 1.640 . S
C2999 C241 1.672 . S
C3064 C898 1.954 . S
C3049 C145 1.980 1_455 S
C3114 C890 1.708 . S
C3099 C279 1.666 . S
C3149 C305 1.494 . S
C3164 C914 1.534 . S
C3214 C850 1.364 . S
C3199 C273 1.330 . S
C3264 C876 1.561 . S
C3249 C337 1.527 1_554 S
C3299 C375 1.253 . S
C3314 C854 1.291 . S
C3349 C369 1.605 . S
C3364 C908 1.639 . S
C3414 C865 1.697 . S
C3399 C311 1.604 . S
C3464 C859 1.743 . S
C3449 C343 1.655 1_554 S
C3514 C942 2.173 . S
C3499 C407 2.137 . S
C3564 C974 1.712 . S
C3549 C439 1.653 . S
C3599 C471 2.088 . S
C3614 C928 2.145 . S
C3664 C972 1.287 . S
C3649 C497 1.282 . S
C3714 C960 2.115 . S
C3699 C535 2.084 . S
C3749 C561 1.570 . S
C3764 C956 1.616 . S
C3799 C599 2.175 . S
C3814 C966 2.209 . S
C3864 C950 1.229 . S
C3849 C631 1.207 . S
C3914 C1015 1.553 . S
C3899 C503 1.523 . S
C3949 C401 1.742 . S
C3964 C1076 1.778 . S
C4014 C1010 1.253 . S
C3999 C433 1.184 . S
C4064 C1060 1.745 . S
C4049 C465 1.674 . S
C4114 C1006 1.161 . S
C4099 C567 1.096 . S
C4149 C593 1.688 . S
C4164 C1078 1.706 . S
C4214 C1021 1.511 . S
C4199 C625 1.493 . S
C4264 C1054 1.620 . S
C4249 C529 1.612 . S
C4314 C1046 1.834 . S
C4299 C663 1.830 . S
C4349 C689 1.956 . S
C4364 C1070 1.925 . S
C4414 C1012 1.557 . S
C4399 C657 1.580 . S
C4449 C721 2.005 . S
C4464 C1032 1.993 . S
C4514 C994 1.591 . S
C4499 C759 1.614 . S
C4564 C1064 1.737 . S
C4549 C753 1.738 . S
C4614 C980 1.561 . S
C4599 C695 1.596 . S
C4649 C727 1.524 . S
C4664 C1018 1.506 . S
