# Generated by pormake.
# Topology pyr, (3,6)-cn, num edge types: 1
# Building blocks:
#     Node 0, Type 0, BuildingBlock: BETDAH_clean_linker_0, # of connection points: 3
#     Node 1, Type 0, BuildingBlock: BETDAH_clean_linker_0, # of connection points: 3
#     Node 2, Type 0, BuildingBlock: BETDAH_clean_linker_0, # of connection points: 3
#     Node 3, Type 0, BuildingBlock: BETDAH_clean_linker_0, # of connection points: 3
#     Node 4, Type 0, BuildingBlock: BETDAH_clean_linker_0, # of connection points: 3
#     Node 5, Type 0, BuildingBlock: BETDAH_clean_linker_0, # of connection points: 3
#     Node 6, Type 0, BuildingBlock: BETDAH_clean_linker_0, # of connection points: 3
#     Node 7, Type 0, BuildingBlock: BETDAH_clean_linker_0, # of connection points: 3
#     Node 8, Type 1, BuildingBlock: BETDAH_clean_sbu_0, # of connection points: 6
#     Node 9, Type 1, BuildingBlock: BETDAH_clean_sbu_0, # of connection points: 6
#     Node 10, Type 1, BuildingBlock: BETDAH_clean_sbu_0, # of connection points: 6
#     Node 11, Type 1, BuildingBlock: BETDAH_clean_sbu_0, # of connection points: 6
#     Edge 12, Type (0, 1), BuildingBlock: EZIPEK_clean_linker_0, # of connection points: 2
#     Edge 13, Type (0, 1), BuildingBlock: EZIPEK_clean_linker_0, # of connection points: 2
#     Edge 14, Type (0, 1), BuildingBlock: EZIPEK_clean_linker_0, # of connection points: 2
#     Edge 15, Type (0, 1), BuildingBlock: EZIPEK_clean_linker_0, # of connection points: 2
#     Edge 16, Type (0, 1), BuildingBlock: EZIPEK_clean_linker_0, # of connection points: 2
#     Edge 17, Type (0, 1), BuildingBlock: EZIPEK_clean_linker_0, # of connection points: 2
#     Edge 18, Type (0, 1), BuildingBlock: EZIPEK_clean_linker_0, # of connection points: 2
#     Edge 19, Type (0, 1), BuildingBlock: EZIPEK_clean_linker_0, # of connection points: 2
#     Edge 20, Type (0, 1), BuildingBlock: EZIPEK_clean_linker_0, # of connection points: 2
#     Edge 21, Type (0, 1), BuildingBlock: EZIPEK_clean_linker_0, # of connection points: 2
#     Edge 22, Type (0, 1), BuildingBlock: EZIPEK_clean_linker_0, # of connection points: 2
#     Edge 23, Type (0, 1), BuildingBlock: EZIPEK_clean_linker_0, # of connection points: 2
#     Edge 24, Type (0, 1), BuildingBlock: EZIPEK_clean_linker_0, # of connection points: 2
#     Edge 25, Type (0, 1), BuildingBlock: EZIPEK_clean_linker_0, # of connection points: 2
#     Edge 26, Type (0, 1), BuildingBlock: EZIPEK_clean_linker_0, # of connection points: 2
#     Edge 27, Type (0, 1), BuildingBlock: EZIPEK_clean_linker_0, # of connection points: 2
#     Edge 28, Type (0, 1), BuildingBlock: EZIPEK_clean_linker_0, # of connection points: 2
#     Edge 29, Type (0, 1), BuildingBlock: EZIPEK_clean_linker_0, # of connection points: 2
#     Edge 30, Type (0, 1), BuildingBlock: EZIPEK_clean_linker_0, # of connection points: 2
#     Edge 31, Type (0, 1), BuildingBlock: EZIPEK_clean_linker_0, # of connection points: 2
#     Edge 32, Type (0, 1), BuildingBlock: EZIPEK_clean_linker_0, # of connection points: 2
#     Edge 33, Type (0, 1), BuildingBlock: EZIPEK_clean_linker_0, # of connection points: 2
#     Edge 34, Type (0, 1), BuildingBlock: EZIPEK_clean_linker_0, # of connection points: 2
#     Edge 35, Type (0, 1), BuildingBlock: EZIPEK_clean_linker_0, # of connection points: 2
# Relax obj value: 0.213
# Max RMSD: 0.195
# Mean RMSD: 0.143
data_MOF--net-pyr--node1-BETDAH_clean_sbu_0--node2-BETDAH_clean_linker_0--edge1-EZIPEK_clean_linker_0
_symmetry_space_group_name_H-M    P1
_symmetry_Int_Tables_number       1
_symmetry_cell_setting            triclinic
loop_
_symmetry_equiv_pos_as_xyz
'x, y, z'
_cell_length_a     27.005092
_cell_length_b     29.756614
_cell_length_c     27.390712
_cell_angle_alpha  91.445112
_cell_angle_beta   90.084621
_cell_angle_gamma 109.89699
loop_
_atom_site_label
_atom_site_type_symbol
_atom_site_fract_x
_atom_site_fract_y
_atom_site_fract_z
_atom_type_partial_charge
H0 H 0.41493 0.28625 0.30608 0.0
H1 H 0.52558 0.39021 0.21754 0.0
H2 H 0.41194 0.42897 0.3031 0.0
C3 C 0.433 0.32303 0.29526 0.0
C4 C 0.41049 0.35708 0.30988 0.0
C5 C 0.47473 0.33481 0.26222 0.0
C6 C 0.49547 0.38171 0.24529 0.0
C7 C 0.47275 0.41591 0.25952 0.0
C8 C 0.43098 0.40356 0.29284 0.0
N9 N 0.48688 0.45986 0.23495 0.0
C10 C 0.44842 0.4793 0.22322 0.0
H11 H 0.26035 0.83897 0.78084 0.0
H12 H 0.12582 0.88179 0.75848 0.0
H13 H 0.1797 0.81094 0.64192 0.0
C14 C 0.22776 0.83954 0.75792 0.0
C15 C 0.22227 0.81998 0.71041 0.0
C16 C 0.19365 0.86253 0.77495 0.0
C17 C 0.15248 0.86442 0.74497 0.0
C18 C 0.14841 0.84731 0.69647 0.0
C19 C 0.18236 0.82375 0.67955 0.0
N20 N 0.11506 0.85913 0.66315 0.0
C21 C 0.12619 0.90649 0.65033 0.0
H22 H 0.74265 0.39069 1.01845 0.0
H23 H 0.76364 0.49272 0.9039 0.0
H24 H 0.63866 0.35669 0.89359 0.0
C25 C 0.72997 0.40097 0.98421 0.0
C26 C 0.68588 0.36878 0.95942 0.0
C27 C 0.75875 0.44575 0.96459 0.0
C28 C 0.7413 0.45902 0.91993 0.0
C29 C 0.69764 0.42693 0.89415 0.0
C30 C 0.67111 0.38195 0.91401 0.0
N31 N 0.68528 0.43427 0.84474 0.0
C32 C 0.67621 0.47394 0.825 0.0
H33 H 0.84484 0.80985 0.51173 0.0
H34 H 0.97889 0.809 0.42691 0.0
H35 H 0.8414 0.68251 0.43198 0.0
C36 C 0.86317 0.7919 0.48634 0.0
C37 C 0.83667 0.74351 0.47364 0.0
C38 C 0.91458 0.81637 0.46988 0.0
C39 C 0.93838 0.79179 0.4377 0.0
C40 C 0.91131 0.74397 0.42192 0.0
C41 C 0.86071 0.7202 0.44067 0.0
N42 N 0.9397 0.71598 0.40015 0.0
C43 C 0.94963 0.71055 0.35034 0.0
H44 H 0.78538 0.82586 0.94474 0.0
H45 H 0.63873 0.77918 1.02193 0.0
H46 H 0.65448 0.86178 0.89225 0.0
C47 C 0.74458 0.82372 0.94805 0.0
C48 C 0.7233 0.8468 0.91455 0.0
C49 C 0.71434 0.79896 0.98653 0.0
C50 C 0.662 0.79736 0.99153 0.0
C51 C 0.64073 0.82136 0.9583 0.0
C52 C 0.67107 0.84483 0.91902 0.0
N53 N 0.5895 0.82294 0.96553 0.0
C54 C 0.58017 0.86614 0.96885 0.0
H55 H 0.85294 0.20616 0.48298 0.0
H56 H 0.93128 0.30939 0.59586 0.0
H57 H 0.84787 0.34813 0.47888 0.0
C58 C 0.86307 0.24173 0.49945 0.0
C59 C 0.84815 0.27625 0.4759 0.0
C60 C 0.89389 0.25349 0.54221 0.0
C61 C 0.90757 0.29996 0.56273 0.0
C62 C 0.88909 0.33375 0.54146 0.0
C63 C 0.86013 0.3219 0.49732 0.0
N64 N 0.89973 0.37917 0.56499 0.0
C65 C 0.86807 0.40661 0.55697 0.0
H66 H 0.35288 0.83898 0.19999 0.0
H67 H 0.35772 0.73403 0.30451 0.0
H68 H 0.47552 0.87495 0.309 0.0
C69 C 0.37161 0.82889 0.23085 0.0
C70 C 0.41701 0.86251 0.25201 0.0
C71 C 0.3499 0.78243 0.24925 0.0
C72 C 0.37454 0.76938 0.28977 0.0
C73 C 0.42018 0.80292 0.31165 0.0
C74 C 0.44067 0.84909 0.29232 0.0
N75 N 0.44629 0.7937 0.35396 0.0
C76 C 0.44043 0.75079 0.37751 0.0
H77 H 0.26392 0.40743 0.69153 0.0
H78 H 0.2515 0.51613 0.79391 0.0
H79 H 0.13368 0.37527 0.7898 0.0
C80 C 0.2435 0.41844 0.72104 0.0
C81 C 0.19658 0.3855 0.73843 0.0
C82 C 0.26407 0.4656 0.74062 0.0
C83 C 0.23673 0.47985 0.77917 0.0
C84 C 0.18954 0.44695 0.79743 0.0
C85 C 0.17022 0.4003 0.77651 0.0
N86 N 0.1572 0.45867 0.8337 0.0
C87 C 0.168 0.49567 0.86944 0.0
Ho88 Ho 0.06883 0.12279 0.55097 0.0
Ho89 Ho 0.05187 0.08126 0.65053 0.0
C90 C 0.11058 0.19267 0.64746 0.0
C91 C 0.07812 0.17391 0.47468 0.0
C92 C 0.12534 0.20718 0.45271 0.0
C93 C 0.12214 0.24453 0.42415 0.0
C94 C 0.16755 0.27563 0.40286 0.0
C95 C 0.21622 0.26909 0.40967 0.0
C96 C 0.21949 0.23267 0.43954 0.0
C97 C 0.17443 0.20213 0.4612 0.0
C98 C 0.14584 0.08902 0.58123 0.0
C99 C 1.01429 1.01072 0.55496 0.0
C100 C 0.03793 1.03062 0.72771 0.0
C101 C 0.98867 1.00222 0.75032 0.0
C102 C 0.98906 0.98043 0.79491 0.0
C103 C 0.94151 0.95494 0.81695 0.0
C104 C 0.89348 0.95102 0.79433 0.0
C105 C 0.89314 0.97225 0.74937 0.0
C106 C 0.94057 0.99793 0.72755 0.0
C107 C 0.97291 0.11185 0.61847 0.0
O108 O 0.09166 0.18835 0.60224 0.0
O109 O 0.10887 0.15426 0.67172 0.0
O110 O 0.07469 0.12904 0.47269 0.0
O111 O 0.06642 0.18721 0.51764 0.0
O112 O 0.13182 0.09061 0.53637 0.0
O113 O 0.12221 0.1111 0.60658 0.0
O114 O 0.03587 1.01633 0.59916 0.0
O115 O 1.01305 1.0486 0.53136 0.0
O116 O 0.04736 0.07663 0.72915 0.0
O117 O 0.04608 1.01503 0.68461 0.0
O118 O 0.98907 0.11458 0.66312 0.0
O119 O 0.99793 0.09073 0.59391 0.0
H120 H 0.0846 0.24925 0.41793 0.0
H121 H 0.16461 0.30377 0.37995 0.0
H122 H 0.2568 0.22733 0.44525 0.0
H123 H 0.1778 0.17407 0.48401 0.0
H124 H 1.02594 0.98359 0.81282 0.0
H125 H 0.94206 0.93867 0.85179 0.0
H126 H 0.85627 0.96956 0.73172 0.0
H127 H 0.93982 1.01493 0.69317 0.0
Ho128 Ho 0.58638 0.12098 0.12092 0.0
Ho129 Ho 0.48493 0.10385 0.07738 0.0
C130 C 0.51289 0.17409 0.16623 0.0
C131 C 0.68357 0.149 0.14963 0.0
C132 C 0.7098 0.16802 0.19666 0.0
C133 C 0.74718 0.21435 0.19913 0.0
C134 C 0.7694 0.23479 0.24393 0.0
C135 C 0.75506 0.20889 0.28679 0.0
C136 C 0.7182 0.16241 0.28445 0.0
C137 C 0.69546 0.14215 0.23974 0.0
C138 C 0.50796 1.05375 0.1703 0.0
C139 C 0.55054 1.03915 1.03728 0.0
C140 C 0.39105 0.07738 1.04003 0.0
C141 C 0.35432 1.03681 1.01253 0.0
C142 C 0.3003 1.02992 1.01351 0.0
C143 C 0.26566 0.99695 0.98115 0.0
C144 C 0.28508 0.97107 0.94736 0.0
C145 C 0.33849 0.97564 0.94863 0.0
C146 C 0.37298 1.00822 0.98123 0.0
C147 C 0.56 0.18656 1.04652 0.0
O148 O 0.56182 0.18021 0.154 0.0
O149 O 0.47489 0.13627 0.14952 0.0
O150 O 0.65338 0.10411 0.14751 0.0
O151 O 0.66234 0.17669 0.12806 0.0
O152 O 0.54688 0.08762 0.19072 0.0
O153 O 0.51268 0.0582 0.12474 0.0
O154 O 0.50544 1.04706 1.03544 0.0
O155 O 0.59043 0.06621 0.06452 0.0
O156 O 0.43345 0.10204 1.01683 0.0
O157 O 0.40048 0.07041 0.08552 0.0
O158 O 0.51398 0.18268 0.06254 0.0
O159 O 0.56559 0.14624 1.05072 0.0
H160 H 0.7585 0.23503 0.16644 0.0
H161 H 0.79789 0.27071 0.24523 0.0
H162 H 0.70686 0.142 0.3173 0.0
H163 H 0.66628 0.10657 0.23908 0.0
H164 H 0.28537 1.05174 1.03752 0.0
H165 H 0.22451 0.99381 0.98032 0.0
H166 H 0.3539 0.95582 0.92265 0.0
H167 H 0.41451 1.01289 0.98013 0.0
Ho168 Ho 0.54123 0.56592 0.57671 0.0
Ho169 Ho 0.55581 0.65313 0.63463 0.0
C170 C 0.59755 0.57501 0.68044 0.0
C171 C 0.55362 0.50396 0.51473 0.0
C172 C 0.60078 0.49011 0.508 0.0
C173 C 0.65057 0.52523 0.50141 0.0
C174 C 0.69631 0.51359 0.50488 0.0
C175 C 0.69302 0.46683 0.51519 0.0
C176 C 0.64347 0.43116 0.51921 0.0
C177 C 0.59759 0.44271 0.51549 0.0
C178 C 0.46297 0.5557 0.64387 0.0
C179 C 0.49784 0.64263 0.52806 0.0
C180 C 0.53893 0.72174 0.6831 0.0
C181 C 0.49205 0.73588 0.68158 0.0
C182 C 0.44727 0.70689 0.65549 0.0
C183 C 0.40162 0.71878 0.65461 0.0
C184 C 0.4 0.75948 0.6804 0.0
C185 C 0.44493 0.78884 0.70609 0.0
C186 C 0.49088 0.7771 0.70662 0.0
C187 C 0.64597 0.65476 0.58726 0.0
O188 O 0.60002 0.56173 0.63437 0.0
O189 O 0.57392 0.60618 0.69116 0.0
O190 O 0.52959 0.49211 0.55619 0.0
O191 O 0.55837 0.54749 0.50325 0.0
O192 O 0.48111 0.52252 0.63001 0.0
O193 O 0.48396 0.59156 0.61778 0.0
O194 O 0.51781 0.67042 0.56683 0.0
O195 O 0.49808 0.59822 0.52479 0.0
O196 O 0.56633 0.7284 0.64298 0.0
O197 O 0.53083 0.67951 0.70088 0.0
O198 O 0.6447 0.67327 0.63044 0.0
O199 O 0.59926 0.63847 0.57134 0.0
H200 H 0.65454 0.56222 0.496 0.0
H201 H 0.73434 0.54145 0.5017 0.0
H202 H 0.64046 0.39486 0.52723 0.0
H203 H 0.55979 0.41517 0.52101 0.0
H204 H 0.44743 0.67461 0.63648 0.0
H205 H 0.36726 0.69579 0.63471 0.0
H206 H 0.44413 0.82044 0.72613 0.0
H207 H 0.5251 0.79973 0.72695 0.0
Ho208 Ho 0.05913 0.56282 0.13148 0.0
Ho209 Ho 0.05599 0.6585 0.07618 0.0
C210 C 0.15595 0.66691 0.14627 0.0
C211 C 0.09 0.49187 0.15023 0.0
C212 C 0.14211 0.49062 0.1645 0.0
C213 C 0.15558 0.4499 0.15402 0.0
C214 C 0.20645 0.45006 0.16439 0.0
C215 C 0.24462 0.49126 0.18464 0.0
C216 C 0.23098 0.53185 0.19531 0.0
C217 C 0.18 0.53132 0.18585 0.0
C218 C 1.01369 0.61555 0.18788 0.0
C219 C 0.95602 0.55659 0.06625 0.0
C220 C 1.03084 0.73269 0.05922 0.0
C221 C 0.98073 0.74225 0.06117 0.0
C222 C 0.94869 0.73222 0.10281 0.0
C223 C 0.89889 0.73699 0.10198 0.0
C224 C 0.88089 0.75237 0.05966 0.0
C225 C 0.91333 0.76351 1.01858 0.0
C226 C 0.96284 0.7585 1.01933 0.0
C227 C 0.10465 0.60688 1.02075 0.0
O228 O 0.13662 0.6201 0.15366 0.0
O229 O 0.1325 0.68949 0.118 0.0
O230 O 0.06685 0.51113 0.18236 0.0
O231 O 0.08692 0.50627 0.10596 0.0
O232 O 1.01983 0.57617 0.20153 0.0
O233 O 1.03054 0.62204 0.14456 0.0
O234 O 0.97491 0.60373 0.06061 0.0
O235 O 0.9812 0.53253 0.09073 0.0
O236 O 1.03334 0.70208 1.02487 0.0
O237 O 0.05122 0.72641 0.10096 0.0
O238 O 0.09963 0.64692 1.00773 0.0
O239 O 0.08482 0.59939 0.06297 0.0
H240 H 0.12701 0.41826 0.13732 0.0
H241 H 0.21635 0.4184 0.15593 0.0
H242 H 0.25985 0.56392 0.21096 0.0
H243 H 0.17046 0.56293 0.19488 0.0
H244 H 0.9618 0.72008 0.13567 0.0
H245 H 0.87432 0.72839 0.13402 0.0
H246 H 0.89994 0.77552 0.98567 0.0
H247 H 0.98679 0.76638 0.98683 0.0
C248 C 0.31323 0.31667 0.30751 0.0
C249 C 0.3593 0.34137 0.33512 0.0
C250 C 0.30736 0.3296 0.40974 0.0
C251 C 0.26365 0.29793 0.38318 0.0
N252 N 0.22701 0.25595 0.30755 0.0
N253 N 0.40192 0.37095 0.41249 0.0
C254 C 0.26685 0.29031 0.33214 0.0
C255 C 0.35684 0.34816 0.38629 0.0
N256 N 0.31363 0.31898 0.25774 0.0
N257 N 0.30116 0.34229 0.45704 0.0
H258 H 0.4385 0.38604 0.39608 0.0
H259 H 0.40368 0.37244 0.45049 0.0
H260 H 0.26514 0.32955 0.4749 0.0
H261 H 0.33017 0.36851 0.47704 0.0
H262 H 0.27979 0.30533 0.23608 0.0
H263 H 0.34666 0.33918 0.23853 0.0
H264 H 0.23024 0.24526 0.27153 0.0
H265 H 0.19244 0.23497 0.32412 0.0
C266 C 0.19966 0.86829 0.86624 0.0
C267 C 0.20729 0.89145 0.82086 0.0
C268 C 0.25222 0.96852 0.86214 0.0
C269 C 0.25185 0.94428 0.9061 0.0
N270 N 0.22629 0.8718 0.95142 0.0
N271 N 0.24519 0.96276 0.77408 0.0
C272 C 0.2253 0.89434 0.90875 0.0
C273 C 0.23398 0.94151 0.8184 0.0
N274 N 0.16775 0.82157 0.86838 0.0
N275 N 0.27053 1.01741 0.86217 0.0
H276 H 0.23301 0.94457 0.74079 0.0
H277 H 0.27015 0.99782 0.76985 0.0
H278 H 0.28593 1.03858 0.89323 0.0
H279 H 0.26626 1.03708 0.83254 0.0
H280 H 0.1568 0.80351 0.90084 0.0
H281 H 0.14861 0.80185 0.8376 0.0
H282 H 0.21292 0.83481 0.95452 0.0
H283 H 0.24301 0.89032 0.98359 0.0
C284 C 0.69338 0.53533 0.75935 0.0
C285 C 0.65865 0.5055 0.79354 0.0
C286 C 0.58415 0.5208 0.75366 0.0
C287 C 0.61903 0.55264 0.72082 0.0
N288 N 0.70836 0.59862 0.7008 0.0
N289 N 0.57285 0.47817 0.82977 0.0
C290 C 0.67416 0.56226 0.72608 0.0
C291 C 0.60469 0.50115 0.79282 0.0
N292 N 0.74458 0.53714 0.75785 0.0
N293 N 0.53108 0.50691 0.7458 0.0
H294 H 0.58653 0.46313 0.8586 0.0
H295 H 0.53448 0.47794 0.83431 0.0
H296 H 0.51472 0.51908 0.71682 0.0
H297 H 0.50361 0.48007 0.76502 0.0
H298 H 0.77031 0.55344 0.73015 0.0
H299 H 0.76036 0.51965 0.78285 0.0
H300 H 0.74904 0.61038 0.7059 0.0
H301 H 0.69557 0.62034 0.67835 0.0
C302 C 0.93226 0.67464 0.26444 0.0
C303 C 0.96794 0.69592 0.30353 0.0
C304 C 0.03597 0.67093 0.2626 0.0
C305 C 1.00078 0.64986 0.22298 0.0
N306 N 0.9183 0.6382 0.18231 0.0
N307 N 0.05745 0.72559 0.33306 0.0
C308 C 0.9499 0.65423 0.22256 0.0
C309 C 1.02099 0.69776 0.30022 0.0
N310 N 0.88112 0.67266 0.26816 0.0
N311 N 0.08306 0.66343 0.2657 0.0
H312 H 0.04785 0.74559 0.36099 0.0
H313 H 0.09779 0.7326 0.32972 0.0
H314 H 0.09691 0.64612 0.23819 0.0
H315 H 0.10728 0.67222 0.29662 0.0
H316 H 0.8513 0.65362 0.24384 0.0
H317 H 0.868 0.68877 0.2973 0.0
H318 H 0.88212 0.64279 0.17751 0.0
H319 H 0.93074 0.62395 0.15143 0.0
C320 C 0.52492 0.27747 0.25588 0.0
C321 C 0.48668 0.2952 0.23668 0.0
C322 C 0.46419 0.23309 0.17178 0.0
C323 C 0.50046 0.21327 0.19256 0.0
N324 N 0.55834 0.21144 0.25908 0.0
N325 N 0.41519 0.28728 0.18043 0.0
C326 C 0.52909 0.23421 0.23587 0.0
C327 C 0.45514 0.27229 0.19578 0.0
N328 N 0.5576 0.30242 0.29283 0.0
N329 N 0.43998 0.21646 0.12779 0.0
H330 H 0.40986 0.31842 0.19365 0.0
H331 H 0.3853 0.26741 0.1565 0.0
H332 H 0.43972 0.18524 0.11003 0.0
H333 H 0.42158 0.23523 0.10707 0.0
H334 H 0.58996 0.29439 0.30533 0.0
H335 H 0.55472 0.33372 0.3086 0.0
H336 H 0.57634 0.22228 0.29305 0.0
H337 H 0.56067 0.17884 0.24653 0.0
C338 C 0.14928 0.99408 0.66771 0.0
C339 C 0.14092 0.9553 0.63362 0.0
C340 C 0.16177 1.01124 0.56642 0.0
C341 C 0.15995 1.04799 0.59947 0.0
N342 N 0.17732 0.08033 0.68121 0.0
N343 N 0.13897 0.92614 0.55034 0.0
C344 C 0.16176 1.04127 0.65025 0.0
C345 C 0.14783 0.96371 0.58292 0.0
N346 N 0.14229 0.98551 0.71639 0.0
N347 N 0.17994 1.02244 0.52022 0.0
H348 H 0.13017 0.89089 0.56103 0.0
H349 H 0.13682 0.92948 0.51271 0.0
H350 H 0.1961 0.05779 0.50938 0.0
H351 H 0.18582 0.99784 0.49522 0.0
H352 H 0.14288 1.01135 0.74289 0.0
H353 H 0.1321 0.95141 0.73013 0.0
H354 H 0.18291 0.07889 0.71864 0.0
H355 H 0.1906 0.115 0.66816 0.0
C356 C 0.85855 0.48634 0.96632 0.0
C357 C 0.80916 0.47675 0.98982 0.0
C358 C 0.85658 0.51562 0.06538 0.0
C359 C 0.90523 0.52907 1.04032 0.0
N360 N 0.95075 0.53578 0.96366 0.0
N361 N 0.76121 0.49101 0.05925 0.0
C362 C 0.90558 0.51717 0.98975 0.0
C363 C 0.80825 0.49391 1.03874 0.0
N364 N 0.86124 0.46393 0.92273 0.0
N365 N 0.8565 0.52291 0.1148 0.0
H366 H 0.72538 0.47664 1.04051 0.0
H367 H 0.75812 0.50696 0.09285 0.0
H368 H 0.89098 0.53877 0.1352 0.0
H369 H 0.82293 0.50964 0.136 0.0
H370 H 0.89669 0.46552 0.9066 0.0
H371 H 0.8284 0.43976 0.90503 0.0
H372 H 0.95198 0.53246 0.92577 0.0
H373 H 0.98598 0.55829 0.97924 0.0
C374 C 0.74031 0.72963 0.49094 0.0
C375 C 0.78577 0.71684 0.4988 0.0
C376 C 0.73524 0.65659 0.55693 0.0
C377 C 0.69272 0.67432 0.5545 0.0
N378 N 0.65793 0.73286 0.52313 0.0
N379 N 0.82873 0.6729 0.54597 0.0
C380 C 0.69597 0.7121 0.52234 0.0
C381 C 0.78377 0.6814 0.53347 0.0
N382 N 0.73908 0.75789 0.45272 0.0
N383 N 0.72886 0.61514 0.58048 0.0
H384 H 0.86526 0.69077 0.5307 0.0
H385 H 0.83075 0.65135 0.57476 0.0
H386 H 0.69315 0.59503 0.5958 0.0
H387 H 0.75673 0.59806 0.58002 0.0
H388 H 0.70525 0.76444 0.44183 0.0
H389 H 0.77054 0.77096 0.42889 0.0
H390 H 0.66106 0.76375 0.50446 0.0
H391 H 0.62528 0.72191 0.54578 0.0
C392 C 0.37211 0.50049 0.25104 0.0
C393 C 0.4013 0.49025 0.21213 0.0
C394 C 0.33191 0.48967 0.15425 0.0
C395 C 0.29926 0.49226 0.19408 0.0
N396 N 0.28575 0.49364 0.28122 0.0
N397 N 0.40878 0.47187 0.12689 0.0
C398 C 0.31878 0.49631 0.24279 0.0
C399 C 0.38128 0.48415 0.16368 0.0
N400 N 0.39552 0.51456 0.29577 0.0
N401 N 0.31648 0.494 0.10756 0.0
H402 H 0.44614 0.46962 0.13217 0.0
H403 H 0.39331 0.46121 0.09194 0.0
H404 H 0.28103 0.49903 0.0993 0.0
H405 H 0.34082 0.49708 0.07746 0.0
H406 H 0.37774 0.5268 0.32442 0.0
H407 H 0.4348 0.51834 0.30261 0.0
H408 H 0.2965 0.49128 0.31735 0.0
H409 H 0.24601 0.48929 0.27682 0.0
C410 C 0.60055 0.30955 0.98988 0.0
C411 C 0.65495 0.32085 0.98042 0.0
C412 C 0.64884 0.24116 1.01054 0.0
C413 C 0.59342 0.22931 1.01764 0.0
N414 N 0.51653 0.24625 0.98988 0.0
N415 N 0.72787 0.29219 0.97072 0.0
C416 C 0.56924 0.26178 1.00035 0.0
C417 C 0.67834 0.28518 0.98777 0.0
N418 N 0.57841 0.34455 0.98983 0.0
N419 N 0.67391 0.21095 1.0252 0.0
H420 H 0.75003 0.32303 0.95295 0.0
H421 H 0.74506 0.26572 0.96994 0.0
H422 H 0.65434 0.17616 1.03566 0.0
H423 H 0.71474 0.22105 1.02815 0.0
H424 H 0.53984 0.33864 1.00095 0.0
H425 H 0.60004 0.38034 0.98384 0.0
H426 H 0.498 0.26796 0.97413 0.0
H427 H 0.4933 0.21018 0.98923 0.0
C428 C 0.96636 0.90586 0.46032 0.0
C429 C 0.9443 0.86603 0.49079 0.0
C430 C 0.96255 0.92175 0.56201 0.0
C431 C 0.99027 0.96092 0.53248 0.0
N432 N 1.03079 0.98537 0.4543 0.0
N433 N 0.93814 0.8366 0.57279 0.0
C434 C 0.99573 0.95163 0.48179 0.0
C435 C 0.94772 0.87418 0.54231 0.0
N436 N 0.95781 0.90085 0.41104 0.0
N437 N 0.94724 0.92957 0.60802 0.0
H438 H 0.93006 0.80149 0.55997 0.0
H439 H 0.94448 0.84119 0.61043 0.0
H440 H 0.95221 0.96357 0.6224 0.0
H441 H 0.92337 0.90212 0.62925 0.0
H442 H 0.96874 0.92982 0.38792 0.0
H443 H 0.93523 0.86867 0.39397 0.0
H444 H 0.03942 0.97865 0.41835 0.0
H445 H 0.05587 1.0178 0.46894 0.0
C446 C 0.2614 0.75544 0.71207 0.0
C447 C 0.26211 0.79945 0.69304 0.0
C448 C 0.34766 0.81051 0.65575 0.0
C449 C 0.35071 0.77087 0.68165 0.0
N450 N 0.3126 0.70728 0.73787 0.0
N451 N 0.30726 0.87141 0.64975 0.0
C452 C 0.30786 0.74332 0.7103 0.0
C453 C 0.30529 0.82746 0.66507 0.0
N454 N 0.21619 0.72545 0.73194 0.0
N455 N 0.38499 0.83154 0.62193 0.0
H456 H 0.27676 0.88496 0.65522 0.0
H457 H 0.34059 0.89585 0.6345 0.0
H458 H 0.41656 0.81988 0.61427 0.0
H459 H 0.38208 0.8575 0.59841 0.0
H460 H 0.2115 0.69086 0.74242 0.0
H461 H 0.18156 0.73361 0.73359 0.0
H462 H 0.28502 0.68956 0.76364 0.0
H463 H 0.34612 0.69741 0.73792 0.0
C464 C 0.78324 0.9254 0.88558 0.0
C465 C 0.75805 0.87558 0.87688 0.0
C466 C 0.81752 0.87632 0.80943 0.0
C467 C 0.84346 0.92588 0.81891 0.0
N468 N 0.84429 1.00013 0.8568 0.0
N469 N 0.74172 0.80568 0.82474 0.0
C470 C 0.82391 0.95129 0.85394 0.0
C471 C 0.77209 0.85174 0.83666 0.0
N472 N 0.77036 0.94734 0.92566 0.0
N473 N 0.83761 0.85258 0.77582 0.0
H474 H 0.70813 0.78707 0.84427 0.0
H475 H 0.7469 0.78733 0.79342 0.0
H476 H 0.86989 0.86987 0.75414 0.0
H477 H 0.82423 0.81556 0.77105 0.0
H478 H 0.79175 0.98208 0.93749 0.0
H479 H 0.73984 0.92993 0.94907 0.0
H480 H 0.82813 1.02106 0.87801 0.0
H481 H 0.87492 1.02015 0.83474 0.0
C482 C 0.77029 0.2559 0.41841 0.0
C483 C 0.82481 0.26521 0.4262 0.0
C484 C 0.83344 0.23726 0.34302 0.0
C485 C 0.7795 0.2301 0.33422 0.0
N486 N 0.6993 0.24229 0.35936 0.0
N487 N 0.91078 0.2774 0.39267 0.0
C488 C 0.74867 0.24242 0.37069 0.0
C489 C 0.8572 0.25991 0.38737 0.0
N490 N 0.73894 0.25824 0.45682 0.0
N491 N 0.86141 0.22045 0.3101 0.0
H492 H 0.92956 0.29541 0.42437 0.0
H493 H 0.9365 0.27855 0.36405 0.0
H494 H 0.8453 0.20284 0.27738 0.0
H495 H 0.89915 0.22005 0.31725 0.0
H496 H 0.698 0.24666 0.45448 0.0
H497 H 0.75366 0.26876 0.49209 0.0
H498 H 0.67696 0.25543 0.38298 0.0
H499 H 0.68244 0.23297 0.32463 0.0
C500 C 0.49612 0.70412 0.40638 0.0
C501 C 0.44916 0.71545 0.41054 0.0
C502 C 0.43063 0.67407 0.48923 0.0
C503 C 0.47826 0.66369 0.48566 0.0
N504 N 0.55266 0.66253 0.4378 0.0
N505 N 0.36731 0.70487 0.45093 0.0
C506 C 0.50961 0.67651 0.44304 0.0
C507 C 0.41502 0.69831 0.4505 0.0
N508 N 0.52908 0.72165 0.36819 0.0
N509 N 0.40074 0.6612 0.53015 0.0
H510 H 0.35519 0.72222 0.42307 0.0
H511 H 0.33824 0.69057 0.4766 0.0
H512 H 0.40908 0.64061 0.55712 0.0
H513 H 0.36873 0.67182 0.5384 0.0
H514 H 0.56699 0.72041 0.36549 0.0
H515 H 0.5192 0.73959 0.33955 0.0
H516 H 0.57425 0.6659 0.40586 0.0
H517 H 0.56551 0.64476 0.46469 0.0
C518 C 0.12118 0.49932 0.94729 0.0
C519 C 0.15932 0.52334 0.91248 0.0
C520 C 0.17164 0.59902 0.95842 0.0
C521 C 0.12696 0.57626 0.98801 0.0
N522 N 0.05407 0.50405 1.00317 0.0
N523 N 0.21938 0.59719 0.88326 0.0
C524 C 0.10083 0.52607 0.98093 0.0
C525 C 0.18429 0.57356 0.91769 0.0
N526 N 0.10403 0.45052 0.94841 0.0
N527 N 0.20328 0.64464 0.97031 0.0
H528 H 0.23069 0.57936 0.8544 0.0
H529 H 0.23454 0.63432 0.88162 0.0
H530 H 0.19697 0.66334 1.00103 0.0
H531 H 0.23878 0.66188 0.95306 0.0
H532 H 0.08046 0.43124 0.97614 0.0
H533 H 0.11777 0.42962 0.92456 0.0
H534 H 1.02994 0.46912 0.99466 0.0
H535 H 0.03702 0.5221 1.02673 0.0
C536 C 0.53102 0.90707 1.01822 0.0
C537 C 0.56787 0.90908 0.9809 0.0
C538 C 0.59125 0.99622 0.9781 0.0
C539 C 0.55366 0.99428 1.01484 0.0
N540 N 0.48074 0.94682 0.06397 0.0
N541 N 0.62321 0.95267 0.91696 0.0
C542 C 0.52109 0.94937 1.03279 0.0
C543 C 0.59514 0.95284 0.95832 0.0
N544 N 0.50691 0.86494 1.04116 0.0
N545 N 0.6234 1.03954 0.96232 0.0
H546 H 0.62413 0.92115 0.9004 0.0
H547 H 0.64068 0.98271 0.89624 0.0
H548 H 0.61925 0.07184 0.97347 0.0
H549 H 0.65589 1.04374 0.94018 0.0
H550 H 0.48509 0.86218 0.07292 0.0
H551 H 0.51115 0.83264 1.03015 0.0
H552 H 0.45163 0.91491 0.07291 0.0
H553 H 0.47373 0.97644 0.07902 0.0
C554 C 0.89699 0.19928 0.61112 0.0
C555 C 0.91272 0.21666 0.56368 0.0
C556 C 0.94488 0.15049 0.54828 0.0
C557 C 0.94162 0.14032 0.59849 0.0
N558 N 0.90561 0.14977 0.67728 0.0
N559 N 0.96111 0.21316 0.49026 0.0
C560 C 0.91519 0.16335 0.63 0.0
C561 C 0.93981 0.19368 0.53329 0.0
N562 N 0.86214 0.21471 0.63678 0.0
N563 N 0.94871 0.11751 0.51447 0.0
H564 H 0.96151 0.24666 0.47956 0.0
H565 H 0.98306 0.19828 0.46798 0.0
H566 H 0.94228 0.08229 0.52383 0.0
H567 H 0.94861 0.12272 0.47697 0.0
H568 H 0.84513 0.19993 0.66934 0.0
H569 H 0.84636 0.23951 0.6235 0.0
H570 H 0.89463 0.17003 0.70395 0.0
H571 H 0.9081 0.11777 0.68966 0.0
C572 C 0.30079 0.71374 0.19086 0.0
C573 C 0.29963 0.74901 0.22639 0.0
C574 C 0.20576 0.7329 0.20706 0.0
C575 C 0.20593 0.69581 0.17307 0.0
N576 N 0.2527 0.64791 0.13572 0.0
N577 N 0.24918 0.7858 0.27507 0.0
C578 C 0.25313 0.68511 0.16627 0.0
C579 C 0.25152 0.75669 0.23632 0.0
N580 N 0.34803 0.70915 0.17898 0.0
N581 N 0.16205 0.74601 0.21127 0.0
H582 H 0.28174 0.80371 0.29723 0.0
H583 H 0.21426 0.78882 0.28819 0.0
H584 H 0.12637 0.72794 0.19367 0.0
H585 H 0.16178 0.77669 0.23023 0.0
H586 H 0.35321 0.68841 0.14959 0.0
H587 H 0.3832 0.72855 0.19691 0.0
H588 H 0.28316 0.63395 0.13405 0.0
H589 H 0.22069 0.62927 0.11331 0.0
C590 C 0.31388 0.50958 0.66785 0.0
C591 C 0.31372 0.49916 0.71835 0.0
C592 C 0.40936 0.54273 0.72123 0.0
C593 C 0.41089 0.5442 0.66945 0.0
N594 N 0.36367 0.52826 0.5927 0.0
N595 N 0.36353 0.50288 0.7925 0.0
C596 C 0.36275 0.52793 0.64255 0.0
C597 C 0.362 0.51554 0.74508 0.0
N598 N 0.2671 0.50241 0.64425 0.0
N599 N 0.45299 0.56832 0.74782 0.0
H600 H 0.33016 0.48279 0.81134 0.0
H601 H 0.39856 0.50903 0.81188 0.0
H602 H 0.48721 0.58986 0.73129 0.0
H603 H 0.45325 0.57227 0.78574 0.0
H604 H 0.26438 0.5132 0.60877 0.0
H605 H 0.23098 0.48995 0.66199 0.0
H606 H 0.33066 0.51163 0.57075 0.0
H607 H 0.39826 0.54291 0.57308 0.0
C608 C 0.77442 0.80848 0.05749 0.0
C609 C 0.74078 0.77759 1.02195 0.0
C610 C 0.78753 0.72074 1.03042 0.0
C611 C 0.82777 0.75649 0.05685 0.0
N612 N 0.85896 0.8328 0.09966 0.0
N613 N 0.71024 0.70233 0.97775 0.0
C614 C 0.82041 0.79947 0.07277 0.0
C615 C 0.74499 0.73241 1.01039 0.0
N616 N 0.7629 0.84712 0.07501 0.0
N617 N 0.79093 0.67621 1.02391 0.0
H618 H 0.67762 0.70959 0.96434 0.0
H619 H 0.71432 0.67124 0.96297 0.0
H620 H 0.82198 0.6672 1.03838 0.0
H621 H 0.7613 0.64732 1.00793 0.0
H622 H 0.78351 0.8696 0.10344 0.0
H623 H 0.72937 0.8541 0.06366 0.0
H624 H 0.85904 0.86718 0.10777 0.0
H625 H 0.89239 0.82661 0.11245 0.0
C626 C 0.48435 0.92237 0.20003 0.0
C627 C 0.44032 0.91186 0.2315 0.0
C628 C 0.43919 0.99398 0.2216 0.0
C629 C 0.48538 1.00538 0.19283 0.0
N630 N 0.55753 0.98272 0.1622 0.0
N631 N 0.37967 0.93921 0.27751 0.0
C632 C 0.50951 0.97016 0.18422 0.0
C633 C 0.4188 0.94817 0.24371 0.0
N634 N 0.50129 0.88624 0.18398 0.0
N635 N 0.41403 1.02662 0.22683 0.0
H636 H 0.36331 0.90609 0.29367 0.0
H637 H 0.36595 0.96531 0.29221 0.0
H638 H 0.42869 0.06073 0.21249 0.0
H639 H 0.3771 1.01905 0.24251 0.0
H640 H 0.52913 0.89016 0.1567 0.0
H641 H 0.48437 0.85104 0.19506 0.0
H642 H 0.57989 0.96037 0.15944 0.0
H643 H 0.57743 1.01709 0.15032 0.0
C644 C 0.12599 0.32145 0.68894 0.0
C645 C 0.1743 0.3357 0.71569 0.0
C646 C 0.18358 0.25791 0.69365 0.0
C647 C 0.13261 0.24178 0.67152 0.0
N648 N 0.05072 0.25583 0.65795 0.0
N649 N 0.24418 0.31344 0.751 0.0
C650 C 0.10257 0.27296 0.67186 0.0
C651 C 0.20166 0.30269 0.7202 0.0
N652 N 0.10319 0.35462 0.67818 0.0
N653 N 0.21604 0.2317 0.6873 0.0
H654 H 0.25824 0.34541 0.77141 0.0
H655 H 0.26235 0.28889 0.7598 0.0
H656 H 0.20528 0.19998 0.6665 0.0
H657 H 0.25545 0.24389 0.69824 0.0
H658 H 0.07114 0.34753 0.65439 0.0
H659 H 0.11936 0.39051 0.68915 0.0
H660 H 1.02548 0.27543 0.66211 0.0
H661 H 1.03135 0.22033 0.6471 0.0
C662 C 0.7962 0.43411 0.5861 0.0
C663 C 0.82909 0.42897 0.5477 0.0
C664 C 0.7741 0.4503 0.4878 0.0
C665 C 0.7415 0.45612 0.52626 0.0
N666 N 0.72814 0.46515 0.61255 0.0
N667 N 0.85794 0.44325 0.46463 0.0
C668 C 0.75463 0.4516 0.57568 0.0
C669 C 0.82079 0.44069 0.49931 0.0
N670 N 0.80377 0.42096 0.63224 0.0
N671 N 0.75936 0.45214 0.44033 0.0
H672 H 0.89279 0.43684 0.47233 0.0
H673 H 0.85661 0.45583 0.4297 0.0
H674 H 0.72566 0.4596 0.4306 0.0
H675 H 0.77831 0.44293 0.41064 0.0
H676 H 0.77731 0.41833 0.66054 0.0
H677 H 0.83528 0.40999 0.64161 0.0
H678 H 0.73939 0.46743 0.64917 0.0
H679 H 0.69749 0.47824 0.60628 0.0
loop_
_geom_bond_atom_site_label_1
_geom_bond_atom_site_label_2
_geom_bond_distance
_geom_bond_site_symmetry_2
_ccdc_geom_bond_type
H0 C3 0.929 . S
H1 C6 0.929 . S
H2 C8 0.930 . S
C3 H0 0.929 . S
C3 C4 1.398 . S
C3 C5 1.396 . S
C4 C3 1.398 . S
C4 C8 1.407 . S
C5 C3 1.396 . S
C5 C6 1.394 . S
C6 H1 0.929 . S
C6 C5 1.394 . S
C6 C7 1.382 . S
C7 C6 1.382 . S
C7 C8 1.392 . S
C7 N9 1.420 . S
C8 H2 0.930 . S
C8 C4 1.407 . S
C8 C7 1.392 . S
N9 C7 1.420 . S
N9 C10 1.244 . S
C10 N9 1.244 . S
H11 C14 0.929 . S
H12 C17 0.929 . S
H13 C19 0.930 . S
C14 H11 0.929 . S
C14 C15 1.398 . S
C14 C16 1.396 . S
C15 C14 1.398 . S
C15 C19 1.407 . S
C16 C14 1.396 . S
C16 C17 1.394 . S
C17 H12 0.929 . S
C17 C16 1.394 . S
C17 C18 1.382 . S
C18 C17 1.382 . S
C18 C19 1.392 . S
C18 N20 1.420 . S
C19 H13 0.930 . S
C19 C15 1.407 . S
C19 C18 1.392 . S
N20 C18 1.420 . S
N20 C21 1.244 . S
C21 N20 1.244 . S
H22 C25 0.929 . S
H23 C28 0.929 . S
H24 C30 0.930 . S
C25 H22 0.929 . S
C25 C26 1.398 . S
C25 C27 1.396 . S
C26 C25 1.398 . S
C26 C30 1.407 . S
C27 C25 1.396 . S
C27 C28 1.394 . S
C28 H23 0.929 . S
C28 C27 1.394 . S
C28 C29 1.382 . S
C29 C28 1.382 . S
C29 C30 1.392 . S
C29 N31 1.420 . S
C30 H24 0.930 . S
C30 C26 1.407 . S
C30 C29 1.392 . S
N31 C29 1.420 . S
N31 C32 1.244 . S
C32 N31 1.244 . S
H33 C36 0.929 . S
H34 C39 0.929 . S
H35 C41 0.930 . S
C36 H33 0.929 . S
C36 C37 1.398 . S
C36 C38 1.396 . S
C37 C36 1.398 . S
C37 C41 1.407 . S
C38 C36 1.396 . S
C38 C39 1.394 . S
C39 H34 0.929 . S
C39 C38 1.394 . S
C39 C40 1.382 . S
C40 C39 1.382 . S
C40 C41 1.392 . S
C40 N42 1.420 . S
C41 H35 0.930 . S
C41 C37 1.407 . S
C41 C40 1.392 . S
N42 C40 1.420 . S
N42 C43 1.244 . S
C43 N42 1.244 . S
H44 C47 0.929 . S
H45 C50 0.929 . S
H46 C52 0.930 . S
C47 H44 0.929 . S
C47 C48 1.398 . S
C47 C49 1.396 . S
C48 C47 1.398 . S
C48 C52 1.407 . S
C49 C47 1.396 . S
C49 C50 1.394 . S
C50 H45 0.929 . S
C50 C49 1.394 . S
C50 C51 1.382 . S
C51 C50 1.382 . S
C51 C52 1.392 . S
C51 N53 1.420 . S
C52 H46 0.930 . S
C52 C48 1.407 . S
C52 C51 1.392 . S
N53 C51 1.420 . S
N53 C54 1.244 . S
C54 N53 1.244 . S
H55 C58 0.929 . S
H56 C61 0.929 . S
H57 C63 0.930 . S
C58 H55 0.929 . S
C58 C59 1.398 . S
C58 C60 1.396 . S
C59 C58 1.398 . S
C59 C63 1.407 . S
C60 C58 1.396 . S
C60 C61 1.394 . S
C61 H56 0.929 . S
C61 C60 1.394 . S
C61 C62 1.382 . S
C62 C61 1.382 . S
C62 C63 1.392 . S
C62 N64 1.420 . S
C63 H57 0.930 . S
C63 C59 1.407 . S
C63 C62 1.392 . S
N64 C62 1.420 . S
N64 C65 1.244 . S
C65 N64 1.244 . S
H66 C69 0.929 . S
H67 C72 0.929 . S
H68 C74 0.930 . S
C69 H66 0.929 . S
C69 C70 1.398 . S
C69 C71 1.396 . S
C70 C69 1.398 . S
C70 C74 1.407 . S
C71 C69 1.396 . S
C71 C72 1.394 . S
C72 H67 0.929 . S
C72 C71 1.394 . S
C72 C73 1.382 . S
C73 C72 1.382 . S
C73 C74 1.392 . S
C73 N75 1.420 . S
C74 H68 0.930 . S
C74 C70 1.407 . S
C74 C73 1.392 . S
N75 C73 1.420 . S
N75 C76 1.244 . S
C76 N75 1.244 . S
H77 C80 0.929 . S
H78 C83 0.929 . S
H79 C85 0.930 . S
C80 H77 0.929 . S
C80 C81 1.398 . S
C80 C82 1.396 . S
C81 C80 1.398 . S
C81 C85 1.407 . S
C82 C80 1.396 . S
C82 C83 1.394 . S
C83 H78 0.929 . S
C83 C82 1.394 . S
C83 C84 1.382 . S
C84 C83 1.382 . S
C84 C85 1.392 . S
C84 N86 1.420 . S
C85 H79 0.930 . S
C85 C81 1.407 . S
C85 C84 1.392 . S
N86 C84 1.420 . S
N86 C87 1.244 . S
C87 N86 1.244 . S
Ho88 C91 2.811 . S
Ho88 O108 2.322 . S
Ho88 O110 2.378 . S
Ho88 O111 2.524 . S
Ho88 O112 2.381 . S
Ho88 O113 2.669 . S
Ho88 O115 2.346 1_445 S
Ho88 O119 2.305 1_455 S
Ho89 C100 2.811 1_545 S
Ho89 O109 2.346 1_655 S
Ho89 O113 2.305 1_655 S
Ho89 O114 2.322 1_545 S
Ho89 O116 2.378 1_545 S
Ho89 O117 2.524 1_545 S
Ho89 O118 2.381 . S
Ho89 O119 2.669 . S
C90 O108 1.259 . S
C90 O109 1.268 . S
C91 Ho88 2.811 . S
C91 C92 1.488 . S
C91 O110 1.215 . S
C91 O111 1.289 . S
C92 C91 1.488 . S
C92 C93 1.348 . S
C92 C97 1.413 . S
C93 C92 1.348 . S
C93 C94 1.442 . S
C93 H120 0.930 . S
C94 C93 1.442 . S
C94 C95 1.381 . S
C94 H121 0.931 . S
C95 C94 1.381 . S
C95 C96 1.321 . S
C96 C95 1.321 . S
C96 C97 1.403 . S
C96 H122 0.934 . S
C97 C92 1.413 . S
C97 C96 1.403 . S
C97 H123 0.930 . S
C98 O112 1.275 1_565 S
C98 O113 1.256 1_565 S
C99 O114 1.259 . S
C99 O115 1.268 . S
C100 Ho89 2.811 1_565 S
C100 C101 1.488 . S
C100 O116 1.215 . S
C100 O117 1.289 . S
C101 C100 1.488 . S
C101 C102 1.348 . S
C101 C106 1.413 . S
C102 C101 1.348 . S
C102 C103 1.442 . S
C102 H124 0.930 . S
C103 C102 1.442 . S
C103 C104 1.381 . S
C103 H125 0.931 . S
C104 C103 1.381 . S
C104 C105 1.321 . S
C105 C104 1.321 . S
C105 C106 1.403 . S
C105 H126 0.934 . S
C106 C101 1.413 . S
C106 C105 1.403 . S
C106 H127 0.930 . S
C107 O118 1.275 . S
C107 O119 1.256 . S
O108 Ho88 2.322 . S
O108 C90 1.259 . S
O109 Ho89 2.346 1_455 S
O109 C90 1.268 . S
O110 Ho88 2.378 . S
O110 C91 1.215 . S
O111 Ho88 2.524 . S
O111 C91 1.289 . S
O112 Ho88 2.381 . S
O112 C98 1.275 1_545 S
O113 Ho88 2.669 . S
O113 Ho89 2.305 1_455 S
O113 C98 1.256 1_545 S
O114 Ho89 2.322 1_565 S
O114 C99 1.259 . S
O115 Ho88 2.346 1_665 S
O115 C99 1.268 . S
O116 Ho89 2.378 1_565 S
O116 C100 1.215 . S
O117 Ho89 2.524 1_565 S
O117 C100 1.289 . S
O118 Ho89 2.381 . S
O118 C107 1.275 . S
O119 Ho88 2.305 1_655 S
O119 Ho89 2.669 . S
O119 C107 1.256 . S
H120 C93 0.930 . S
H121 C94 0.931 . S
H122 C96 0.934 . S
H123 C97 0.930 . S
H124 C102 0.930 . S
H125 C103 0.931 . S
H126 C105 0.934 . S
H127 C106 0.930 . S
Ho128 C131 2.811 . S
Ho128 O148 2.322 . S
Ho128 O150 2.378 . S
Ho128 O151 2.524 . S
Ho128 O152 2.381 1_545 S
Ho128 O153 2.669 1_545 S
Ho128 O155 2.346 1_545 S
Ho128 O159 2.305 . S
Ho129 C140 2.811 1_544 S
Ho129 O149 2.346 . S
Ho129 O153 2.305 1_545 S
Ho129 O154 2.322 1_554 S
Ho129 O156 2.378 1_554 S
Ho129 O157 2.524 1_544 S
Ho129 O158 2.381 1_554 S
Ho129 O159 2.669 . S
C130 O148 1.259 . S
C130 O149 1.268 . S
C131 Ho128 2.811 . S
C131 C132 1.488 . S
C131 O150 1.215 . S
C131 O151 1.289 . S
C132 C131 1.488 . S
C132 C133 1.348 . S
C132 C137 1.413 . S
C133 C132 1.348 . S
C133 C134 1.442 . S
C133 H160 0.930 . S
C134 C133 1.442 . S
C134 C135 1.381 . S
C134 H161 0.931 . S
C135 C134 1.381 . S
C135 C136 1.321 . S
C136 C135 1.321 . S
C136 C137 1.403 . S
C136 H162 0.934 . S
C137 C132 1.413 . S
C137 C136 1.403 . S
C137 H163 0.930 . S
C138 O152 1.275 . S
C138 O153 1.256 . S
C139 O154 1.259 1_564 S
C139 O155 1.268 . S
C140 Ho129 2.811 1_566 S
C140 C141 1.488 . S
C140 O156 1.215 1_565 S
C140 O157 1.289 . S
C141 C140 1.488 . S
C141 C142 1.348 . S
C141 C146 1.413 . S
C142 C141 1.348 . S
C142 C143 1.442 . S
C142 H164 0.930 . S
C143 C142 1.442 . S
C143 C144 1.381 . S
C143 H165 0.931 . S
C144 C143 1.381 . S
C144 C145 1.321 . S
C145 C144 1.321 . S
C145 C146 1.403 . S
C145 H166 0.934 . S
C146 C141 1.413 . S
C146 C145 1.403 . S
C146 H167 0.937 . S
C147 O158 1.275 1_554 S
C147 O159 1.256 . S
O148 Ho128 2.322 . S
O148 C130 1.259 . S
O149 Ho129 2.346 . S
O149 C130 1.268 . S
O150 Ho128 2.378 . S
O150 C131 1.215 . S
O151 Ho128 2.524 . S
O151 C131 1.289 . S
O152 Ho128 2.381 1_565 S
O152 C138 1.275 . S
O153 Ho128 2.669 1_565 S
O153 Ho129 2.305 1_565 S
O153 C138 1.256 . S
O154 Ho129 2.322 1_556 S
O154 C139 1.259 1_546 S
O155 Ho128 2.346 1_565 S
O155 C139 1.268 . S
O156 Ho129 2.378 1_556 S
O156 C140 1.215 1_545 S
O157 Ho129 2.524 1_566 S
O157 C140 1.289 . S
O158 Ho129 2.381 1_556 S
O158 C147 1.275 1_556 S
O159 Ho128 2.305 . S
O159 Ho129 2.669 . S
O159 C147 1.256 . S
H160 C133 0.930 . S
H161 C134 0.931 . S
H162 C136 0.934 . S
H163 C137 0.930 . S
H164 C142 0.930 . S
H165 C143 0.931 . S
H166 C145 0.934 . S
H167 C146 0.937 . S
Ho168 C171 2.811 . S
Ho168 O188 2.322 . S
Ho168 O190 2.378 . S
Ho168 O191 2.524 . S
Ho168 O192 2.381 . S
Ho168 O193 2.669 . S
Ho168 O195 2.346 . S
Ho168 O199 2.305 . S
Ho169 C180 2.811 . S
Ho169 O189 2.346 . S
Ho169 O193 2.305 . S
Ho169 O194 2.322 . S
Ho169 O196 2.378 . S
Ho169 O197 2.524 . S
Ho169 O198 2.381 . S
Ho169 O199 2.669 . S
C170 O188 1.259 . S
C170 O189 1.268 . S
C171 Ho168 2.811 . S
C171 C172 1.488 . S
C171 O190 1.215 . S
C171 O191 1.289 . S
C172 C171 1.488 . S
C172 C173 1.348 . S
C172 C177 1.413 . S
C173 C172 1.348 . S
C173 C174 1.442 . S
C173 H200 0.930 . S
C174 C173 1.442 . S
C174 C175 1.381 . S
C174 H201 0.931 . S
C175 C174 1.381 . S
C175 C176 1.321 . S
C176 C175 1.321 . S
C176 C177 1.403 . S
C176 H202 0.934 . S
C177 C172 1.413 . S
C177 C176 1.403 . S
C177 H203 0.930 . S
C178 O192 1.275 . S
C178 O193 1.256 . S
C179 O194 1.259 . S
C179 O195 1.268 . S
C180 Ho169 2.811 . S
C180 C181 1.488 . S
C180 O196 1.215 . S
C180 O197 1.289 . S
C181 C180 1.488 . S
C181 C182 1.348 . S
C181 C186 1.413 . S
C182 C181 1.348 . S
C182 C183 1.442 . S
C182 H204 0.930 . S
C183 C182 1.442 . S
C183 C184 1.381 . S
C183 H205 0.931 . S
C184 C183 1.381 . S
C184 C185 1.321 . S
C185 C184 1.321 . S
C185 C186 1.403 . S
C185 H206 0.934 . S
C186 C181 1.413 . S
C186 C185 1.403 . S
C186 H207 0.930 . S
C187 O198 1.275 . S
C187 O199 1.256 . S
O188 Ho168 2.322 . S
O188 C170 1.259 . S
O189 Ho169 2.346 . S
O189 C170 1.268 . S
O190 Ho168 2.378 . S
O190 C171 1.215 . S
O191 Ho168 2.524 . S
O191 C171 1.289 . S
O192 Ho168 2.381 . S
O192 C178 1.275 . S
O193 Ho168 2.669 . S
O193 Ho169 2.305 . S
O193 C178 1.256 . S
O194 Ho169 2.322 . S
O194 C179 1.259 . S
O195 Ho168 2.346 . S
O195 C179 1.268 . S
O196 Ho169 2.378 . S
O196 C180 1.215 . S
O197 Ho169 2.524 . S
O197 C180 1.289 . S
O198 Ho169 2.381 . S
O198 C187 1.275 . S
O199 Ho168 2.305 . S
O199 Ho169 2.669 . S
O199 C187 1.256 . S
H200 C173 0.930 . S
H201 C174 0.931 . S
H202 C176 0.934 . S
H203 C177 0.930 . S
H204 C182 0.930 . S
H205 C183 0.931 . S
H206 C185 0.934 . S
H207 C186 0.930 . S
Ho208 C211 2.811 . S
Ho208 O228 2.322 . S
Ho208 O230 2.378 . S
Ho208 O231 2.524 . S
Ho208 O232 2.381 1_455 S
Ho208 O233 2.656 1_455 S
Ho208 O235 2.346 1_455 S
Ho208 O239 2.305 1_554 S
Ho209 C220 2.811 1_455 S
Ho209 O229 2.346 1_556 S
Ho209 O233 2.300 1_456 S
Ho209 O234 2.322 1_455 S
Ho209 O236 2.378 1_455 S
Ho209 O237 2.524 1_455 S
Ho209 O238 2.381 . S
Ho209 O239 2.669 . S
C210 O228 1.259 . S
C210 O229 1.268 . S
C211 Ho208 2.811 . S
C211 C212 1.488 . S
C211 O230 1.215 . S
C211 O231 1.289 . S
C212 C211 1.488 . S
C212 C213 1.348 . S
C212 C217 1.413 . S
C213 C212 1.348 . S
C213 C214 1.442 . S
C213 H240 0.930 . S
C214 C213 1.442 . S
C214 C215 1.381 . S
C214 H241 0.931 . S
C215 C214 1.381 . S
C215 C216 1.321 . S
C216 C215 1.321 . S
C216 C217 1.403 . S
C216 H242 0.934 . S
C217 C212 1.413 . S
C217 C216 1.403 . S
C217 H243 0.930 . S
C218 O232 1.275 . S
C218 O233 1.261 . S
C219 O234 1.259 . S
C219 O235 1.268 1_556 S
C220 Ho209 2.811 1_655 S
C220 C221 1.488 . S
C220 O236 1.215 . S
C220 O237 1.289 . S
C221 C220 1.488 . S
C221 C222 1.348 . S
C221 C226 1.413 . S
C222 C221 1.348 . S
C222 C223 1.442 . S
C222 H244 0.930 . S
C223 C222 1.442 . S
C223 C224 1.381 . S
C223 H245 0.931 . S
C224 C223 1.381 . S
C224 C225 1.321 . S
C225 C224 1.321 . S
C225 C226 1.403 . S
C225 H246 0.934 . S
C226 C221 1.413 . S
C226 C225 1.403 . S
C226 H247 0.930 . S
C227 O238 1.275 . S
C227 O239 1.256 . S
O228 Ho208 2.322 . S
O228 C210 1.259 . S
O229 Ho209 2.346 1_554 S
O229 C210 1.268 . S
O230 Ho208 2.378 . S
O230 C211 1.215 . S
O231 Ho208 2.524 . S
O231 C211 1.289 . S
O232 Ho208 2.381 1_655 S
O232 C218 1.275 . S
O233 Ho208 2.656 1_655 S
O233 Ho209 2.300 1_654 S
O233 C218 1.261 . S
O234 Ho209 2.322 1_655 S
O234 C219 1.259 . S
O235 Ho208 2.346 1_655 S
O235 C219 1.268 1_554 S
O236 Ho209 2.378 1_655 S
O236 C220 1.215 . S
O237 Ho209 2.524 1_655 S
O237 C220 1.289 . S
O238 Ho209 2.381 . S
O238 C227 1.275 . S
O239 Ho208 2.305 1_556 S
O239 Ho209 2.669 . S
O239 C227 1.256 . S
H240 C213 0.930 . S
H241 C214 0.931 . S
H242 C216 0.934 . S
H243 C217 0.930 . S
H244 C222 0.930 . S
H245 C223 0.931 . S
H246 C225 0.934 . S
H247 C226 0.930 . S
C248 C249 1.363 . S
C248 C254 1.379 . S
C248 N256 1.356 . S
C249 C248 1.363 . S
C249 C255 1.363 . S
C250 C251 1.363 . S
C250 C255 1.379 . S
C250 N257 1.356 . S
C251 C250 1.363 . S
C251 C254 1.363 . S
N252 C254 1.356 . S
N252 H264 0.984 . S
N252 H265 0.985 . S
N253 C255 1.356 . S
N253 H258 0.984 . S
N253 H259 0.985 . S
C254 C248 1.379 . S
C254 C251 1.363 . S
C254 N252 1.356 . S
C255 C249 1.363 . S
C255 C250 1.379 . S
C255 N253 1.356 . S
N256 C248 1.356 . S
N256 H262 0.984 . S
N256 H263 0.984 . S
N257 C250 1.356 . S
N257 H260 0.984 . S
N257 H261 0.985 . S
H258 N253 0.984 . S
H259 N253 0.985 . S
H260 N257 0.984 . S
H261 N257 0.985 . S
H262 N256 0.984 . S
H263 N256 0.984 . S
H264 N252 0.984 . S
H265 N252 0.985 . S
C266 C267 1.363 . S
C266 C272 1.379 . S
C266 N274 1.356 . S
C267 C266 1.363 . S
C267 C273 1.363 . S
C268 C269 1.363 . S
C268 C273 1.379 . S
C268 N275 1.356 . S
C269 C268 1.363 . S
C269 C272 1.363 . S
N270 C272 1.356 . S
N270 H282 0.984 . S
N270 H283 0.985 . S
N271 C273 1.356 . S
N271 H276 0.984 . S
N271 H277 0.985 . S
C272 C266 1.379 . S
C272 C269 1.363 . S
C272 N270 1.356 . S
C273 C267 1.363 . S
C273 C268 1.379 . S
C273 N271 1.356 . S
N274 C266 1.356 . S
N274 H280 0.984 . S
N274 H281 0.984 . S
N275 C268 1.356 . S
N275 H278 0.984 . S
N275 H279 0.985 . S
H276 N271 0.984 . S
H277 N271 0.985 . S
H278 N275 0.984 . S
H279 N275 0.985 . S
H280 N274 0.984 . S
H281 N274 0.984 . S
H282 N270 0.984 . S
H283 N270 0.985 . S
C284 C285 1.363 . S
C284 C290 1.379 . S
C284 N292 1.356 . S
C285 C284 1.363 . S
C285 C291 1.363 . S
C286 C287 1.363 . S
C286 C291 1.379 . S
C286 N293 1.356 . S
C287 C286 1.363 . S
C287 C290 1.363 . S
N288 C290 1.356 . S
N288 H300 0.984 . S
N288 H301 0.985 . S
N289 C291 1.356 . S
N289 H294 0.984 . S
N289 H295 0.985 . S
C290 C284 1.379 . S
C290 C287 1.363 . S
C290 N288 1.356 . S
C291 C285 1.363 . S
C291 C286 1.379 . S
C291 N289 1.356 . S
N292 C284 1.356 . S
N292 H298 0.984 . S
N292 H299 0.984 . S
N293 C286 1.356 . S
N293 H296 0.984 . S
N293 H297 0.985 . S
H294 N289 0.984 . S
H295 N289 0.985 . S
H296 N293 0.984 . S
H297 N293 0.985 . S
H298 N292 0.984 . S
H299 N292 0.984 . S
H300 N288 0.984 . S
H301 N288 0.985 . S
C302 C303 1.363 . S
C302 C308 1.379 . S
C302 N310 1.356 . S
C303 C302 1.363 . S
C303 C309 1.363 . S
C304 C305 1.363 . S
C304 C309 1.379 . S
C304 N311 1.356 1_655 S
C305 C304 1.363 . S
C305 C308 1.363 . S
N306 C308 1.356 . S
N306 H318 0.984 . S
N306 H319 0.985 . S
N307 C309 1.356 . S
N307 H312 0.984 . S
N307 H313 0.985 1_655 S
C308 C302 1.379 . S
C308 C305 1.363 . S
C308 N306 1.356 . S
C309 C303 1.363 . S
C309 C304 1.379 . S
C309 N307 1.356 . S
N310 C302 1.356 . S
N310 H316 0.984 . S
N310 H317 0.984 . S
N311 C304 1.356 1_455 S
N311 H314 0.984 . S
N311 H315 0.985 . S
H312 N307 0.984 . S
H313 N307 0.985 1_455 S
H314 N311 0.984 . S
H315 N311 0.985 . S
H316 N310 0.984 . S
H317 N310 0.984 . S
H318 N306 0.984 . S
H319 N306 0.985 . S
C320 C321 1.363 . S
C320 C326 1.379 . S
C320 N328 1.356 . S
C321 C320 1.363 . S
C321 C327 1.363 . S
C322 C323 1.363 . S
C322 C327 1.379 . S
C322 N329 1.356 . S
C323 C322 1.363 . S
C323 C326 1.363 . S
N324 C326 1.356 . S
N324 H336 0.984 . S
N324 H337 0.985 . S
N325 C327 1.356 . S
N325 H330 0.984 . S
N325 H331 0.985 . S
C326 C320 1.379 . S
C326 C323 1.363 . S
C326 N324 1.356 . S
C327 C321 1.363 . S
C327 C322 1.379 . S
C327 N325 1.356 . S
N328 C320 1.356 . S
N328 H334 0.984 . S
N328 H335 0.984 . S
N329 C322 1.356 . S
N329 H332 0.984 . S
N329 H333 0.985 . S
H330 N325 0.984 . S
H331 N325 0.985 . S
H332 N329 0.984 . S
H333 N329 0.985 . S
H334 N328 0.984 . S
H335 N328 0.984 . S
H336 N324 0.984 . S
H337 N324 0.985 . S
C338 C339 1.363 . S
C338 C344 1.379 . S
C338 N346 1.356 . S
C339 C338 1.363 . S
C339 C345 1.363 . S
C340 C341 1.363 . S
C340 C345 1.379 . S
C340 N347 1.356 1_565 S
C341 C340 1.363 . S
C341 C344 1.363 . S
N342 C344 1.356 . S
N342 H354 0.984 1_455 S
N342 H355 0.985 1_565 S
N343 C345 1.356 . S
N343 H348 0.984 . S
N343 H349 0.985 . S
C344 C338 1.379 . S
C344 C341 1.363 . S
C344 N342 1.356 . S
C345 C339 1.363 . S
C345 C340 1.379 . S
C345 N343 1.356 . S
N346 C338 1.356 . S
N346 H352 0.984 . S
N346 H353 0.984 . S
N347 C340 1.356 1_545 S
N347 H350 0.984 . S
N347 H351 0.985 . S
H348 N343 0.984 . S
H349 N343 0.985 . S
H350 N347 0.984 . S
H351 N347 0.985 . S
H352 N346 0.984 . S
H353 N346 0.984 . S
H354 N342 0.984 1_655 S
H355 N342 0.985 1_545 S
C356 C357 1.363 . S
C356 C362 1.379 . S
C356 N364 1.356 . S
C357 C356 1.363 . S
C357 C363 1.363 . S
C358 C359 1.363 . S
C358 C363 1.379 . S
C358 N365 1.356 1_556 S
C359 C358 1.363 . S
C359 C362 1.363 . S
N360 C362 1.356 . S
N360 H372 0.984 . S
N360 H373 0.985 . S
N361 C363 1.356 . S
N361 H366 0.984 . S
N361 H367 0.985 1_556 S
C362 C356 1.379 . S
C362 C359 1.363 . S
C362 N360 1.356 . S
C363 C357 1.363 . S
C363 C358 1.379 . S
C363 N361 1.356 . S
N364 C356 1.356 . S
N364 H370 0.984 . S
N364 H371 0.984 . S
N365 C358 1.356 1_554 S
N365 H368 0.984 . S
N365 H369 0.985 . S
H366 N361 0.984 . S
H367 N361 0.985 1_554 S
H368 N365 0.984 . S
H369 N365 0.985 . S
H370 N364 0.984 . S
H371 N364 0.984 . S
H372 N360 0.984 . S
H373 N360 0.985 . S
C374 C375 1.363 . S
C374 C380 1.379 . S
C374 N382 1.356 . S
C375 C374 1.363 . S
C375 C381 1.363 . S
C376 C377 1.363 . S
C376 C381 1.379 . S
C376 N383 1.356 . S
C377 C376 1.363 . S
C377 C380 1.363 . S
N378 C380 1.356 . S
N378 H390 0.984 . S
N378 H391 0.985 . S
N379 C381 1.356 . S
N379 H384 0.984 . S
N379 H385 0.985 . S
C380 C374 1.379 . S
C380 C377 1.363 . S
C380 N378 1.356 . S
C381 C375 1.363 . S
C381 C376 1.379 . S
C381 N379 1.356 . S
N382 C374 1.356 . S
N382 H388 0.984 . S
N382 H389 0.984 . S
N383 C376 1.356 . S
N383 H386 0.984 . S
N383 H387 0.985 . S
H384 N379 0.984 . S
H385 N379 0.985 . S
H386 N383 0.984 . S
H387 N383 0.985 . S
H388 N382 0.984 . S
H389 N382 0.984 . S
H390 N378 0.984 . S
H391 N378 0.985 . S
C392 C393 1.363 . S
C392 C398 1.379 . S
C392 N400 1.356 . S
C393 C392 1.363 . S
C393 C399 1.363 . S
C394 C395 1.363 . S
C394 C399 1.379 . S
C394 N401 1.356 . S
C395 C394 1.363 . S
C395 C398 1.363 . S
N396 C398 1.356 . S
N396 H408 0.984 . S
N396 H409 0.985 . S
N397 C399 1.356 . S
N397 H402 0.984 . S
N397 H403 0.985 . S
C398 C392 1.379 . S
C398 C395 1.363 . S
C398 N396 1.356 . S
C399 C393 1.363 . S
C399 C394 1.379 . S
C399 N397 1.356 . S
N400 C392 1.356 . S
N400 H406 0.984 . S
N400 H407 0.984 . S
N401 C394 1.356 . S
N401 H404 0.984 . S
N401 H405 0.985 . S
H402 N397 0.984 . S
H403 N397 0.985 . S
H404 N401 0.984 . S
H405 N401 0.985 . S
H406 N400 0.984 . S
H407 N400 0.984 . S
H408 N396 0.984 . S
H409 N396 0.985 . S
C410 C411 1.363 . S
C410 C416 1.379 . S
C410 N418 1.356 . S
C411 C410 1.363 . S
C411 C417 1.363 . S
C412 C413 1.363 . S
C412 C417 1.379 . S
C412 N419 1.356 . S
C413 C412 1.363 . S
C413 C416 1.363 . S
N414 C416 1.356 . S
N414 H426 0.984 . S
N414 H427 0.985 . S
N415 C417 1.356 . S
N415 H420 0.984 . S
N415 H421 0.985 . S
C416 C410 1.379 . S
C416 C413 1.363 . S
C416 N414 1.356 . S
C417 C411 1.363 . S
C417 C412 1.379 . S
C417 N415 1.356 . S
N418 C410 1.356 . S
N418 H424 0.984 . S
N418 H425 0.984 . S
N419 C412 1.356 . S
N419 H422 0.984 1_556 S
N419 H423 0.985 . S
H420 N415 0.984 . S
H421 N415 0.985 . S
H422 N419 0.984 1_554 S
H423 N419 0.985 . S
H424 N418 0.984 . S
H425 N418 0.984 . S
H426 N414 0.984 . S
H427 N414 0.985 . S
C428 C429 1.363 . S
C428 C434 1.379 . S
C428 N436 1.356 . S
C429 C428 1.363 . S
C429 C435 1.363 . S
C430 C431 1.363 . S
C430 C435 1.379 . S
C430 N437 1.356 . S
C431 C430 1.363 . S
C431 C434 1.363 . S
N432 C434 1.356 . S
N432 H444 0.984 . S
N432 H445 0.985 . S
N433 C435 1.356 . S
N433 H438 0.984 . S
N433 H439 0.985 . S
C434 C428 1.379 . S
C434 C431 1.363 . S
C434 N432 1.356 . S
C435 C429 1.363 . S
C435 C430 1.379 . S
C435 N433 1.356 . S
N436 C428 1.356 . S
N436 H442 0.984 . S
N436 H443 0.984 . S
N437 C430 1.356 . S
N437 H440 0.984 . S
N437 H441 0.985 . S
H438 N433 0.984 . S
H439 N433 0.985 . S
H440 N437 0.984 . S
H441 N437 0.985 . S
H442 N436 0.984 . S
H443 N436 0.984 . S
H444 N432 0.984 . S
H445 N432 0.985 . S
C446 C447 1.363 . S
C446 C452 1.379 . S
C446 N454 1.356 . S
C447 C446 1.363 . S
C447 C453 1.363 . S
C448 C449 1.363 . S
C448 C453 1.379 . S
C448 N455 1.356 . S
C449 C448 1.363 . S
C449 C452 1.363 . S
N450 C452 1.356 . S
N450 H462 0.984 . S
N450 H463 0.985 . S
N451 C453 1.356 . S
N451 H456 0.984 . S
N451 H457 0.985 . S
C452 C446 1.379 . S
C452 C449 1.363 . S
C452 N450 1.356 . S
C453 C447 1.363 . S
C453 C448 1.379 . S
C453 N451 1.356 . S
N454 C446 1.356 . S
N454 H460 0.984 . S
N454 H461 0.984 . S
N455 C448 1.356 . S
N455 H458 0.984 . S
N455 H459 0.985 . S
H456 N451 0.984 . S
H457 N451 0.985 . S
H458 N455 0.984 . S
H459 N455 0.985 . S
H460 N454 0.984 . S
H461 N454 0.984 . S
H462 N450 0.984 . S
H463 N450 0.985 . S
C464 C465 1.363 . S
C464 C470 1.379 . S
C464 N472 1.356 . S
C465 C464 1.363 . S
C465 C471 1.363 . S
C466 C467 1.363 . S
C466 C471 1.379 . S
C466 N473 1.356 . S
C467 C466 1.363 . S
C467 C470 1.363 . S
N468 C470 1.356 . S
N468 H480 0.984 . S
N468 H481 0.985 . S
N469 C471 1.356 . S
N469 H474 0.984 . S
N469 H475 0.985 . S
C470 C464 1.379 . S
C470 C467 1.363 . S
C470 N468 1.356 . S
C471 C465 1.363 . S
C471 C466 1.379 . S
C471 N469 1.356 . S
N472 C464 1.356 . S
N472 H478 0.984 . S
N472 H479 0.984 . S
N473 C466 1.356 . S
N473 H476 0.984 . S
N473 H477 0.985 . S
H474 N469 0.984 . S
H475 N469 0.985 . S
H476 N473 0.984 . S
H477 N473 0.985 . S
H478 N472 0.984 . S
H479 N472 0.984 . S
H480 N468 0.984 . S
H481 N468 0.985 . S
C482 C483 1.363 . S
C482 C488 1.379 . S
C482 N490 1.356 . S
C483 C482 1.363 . S
C483 C489 1.363 . S
C484 C485 1.363 . S
C484 C489 1.379 . S
C484 N491 1.356 . S
C485 C484 1.363 . S
C485 C488 1.363 . S
N486 C488 1.356 . S
N486 H498 0.984 . S
N486 H499 0.985 . S
N487 C489 1.356 . S
N487 H492 0.984 . S
N487 H493 0.985 . S
C488 C482 1.379 . S
C488 C485 1.363 . S
C488 N486 1.356 . S
C489 C483 1.363 . S
C489 C484 1.379 . S
C489 N487 1.356 . S
N490 C482 1.356 . S
N490 H496 0.984 . S
N490 H497 0.984 . S
N491 C484 1.356 . S
N491 H494 0.984 . S
N491 H495 0.985 . S
H492 N487 0.984 . S
H493 N487 0.985 . S
H494 N491 0.984 . S
H495 N491 0.985 . S
H496 N490 0.984 . S
H497 N490 0.984 . S
H498 N486 0.984 . S
H499 N486 0.985 . S
C500 C501 1.363 . S
C500 C506 1.379 . S
C500 N508 1.356 . S
C501 C500 1.363 . S
C501 C507 1.363 . S
C502 C503 1.363 . S
C502 C507 1.379 . S
C502 N509 1.356 . S
C503 C502 1.363 . S
C503 C506 1.363 . S
N504 C506 1.356 . S
N504 H516 0.984 . S
N504 H517 0.985 . S
N505 C507 1.356 . S
N505 H510 0.984 . S
N505 H511 0.985 . S
C506 C500 1.379 . S
C506 C503 1.363 . S
C506 N504 1.356 . S
C507 C501 1.363 . S
C507 C502 1.379 . S
C507 N505 1.356 . S
N508 C500 1.356 . S
N508 H514 0.984 . S
N508 H515 0.984 . S
N509 C502 1.356 . S
N509 H512 0.984 . S
N509 H513 0.985 . S
H510 N505 0.984 . S
H511 N505 0.985 . S
H512 N509 0.984 . S
H513 N509 0.985 . S
H514 N508 0.984 . S
H515 N508 0.984 . S
H516 N504 0.984 . S
H517 N504 0.985 . S
C518 C519 1.363 . S
C518 C524 1.379 . S
C518 N526 1.356 . S
C519 C518 1.363 . S
C519 C525 1.363 . S
C520 C521 1.363 . S
C520 C525 1.379 . S
C520 N527 1.356 . S
C521 C520 1.363 . S
C521 C524 1.363 . S
N522 C524 1.356 . S
N522 H534 0.984 . S
N522 H535 0.985 . S
N523 C525 1.356 . S
N523 H528 0.984 . S
N523 H529 0.985 . S
C524 C518 1.379 . S
C524 C521 1.363 . S
C524 N522 1.356 . S
C525 C519 1.363 . S
C525 C520 1.379 . S
C525 N523 1.356 . S
N526 C518 1.356 . S
N526 H532 0.984 . S
N526 H533 0.984 . S
N527 C520 1.356 . S
N527 H530 0.984 . S
N527 H531 0.985 . S
H528 N523 0.984 . S
H529 N523 0.985 . S
H530 N527 0.984 . S
H531 N527 0.985 . S
H532 N526 0.984 . S
H533 N526 0.984 . S
H534 N522 0.984 . S
H535 N522 0.985 . S
C536 C537 1.363 . S
C536 C542 1.379 . S
C536 N544 1.356 . S
C537 C536 1.363 . S
C537 C543 1.363 . S
C538 C539 1.363 . S
C538 C543 1.379 . S
C538 N545 1.356 . S
C539 C538 1.363 . S
C539 C542 1.363 . S
N540 C542 1.356 1_554 S
N540 H552 0.984 . S
N540 H553 0.985 . S
N541 C543 1.356 . S
N541 H546 0.984 . S
N541 H547 0.985 . S
C542 C536 1.379 . S
C542 C539 1.363 . S
C542 N540 1.356 1_556 S
C543 C537 1.363 . S
C543 C538 1.379 . S
C543 N541 1.356 . S
N544 C536 1.356 . S
N544 H550 0.984 . S
N544 H551 0.984 . S
N545 C538 1.356 . S
N545 H548 0.984 . S
N545 H549 0.985 . S
H546 N541 0.984 . S
H547 N541 0.985 . S
H548 N545 0.984 . S
H549 N545 0.985 . S
H550 N544 0.984 . S
H551 N544 0.984 . S
H552 N540 0.984 . S
H553 N540 0.985 . S
C554 C555 1.363 . S
C554 C560 1.379 . S
C554 N562 1.356 . S
C555 C554 1.363 . S
C555 C561 1.363 . S
C556 C557 1.363 . S
C556 C561 1.379 . S
C556 N563 1.356 . S
C557 C556 1.363 . S
C557 C560 1.363 . S
N558 C560 1.356 . S
N558 H570 0.984 . S
N558 H571 0.985 . S
N559 C561 1.356 . S
N559 H564 0.984 . S
N559 H565 0.985 . S
C560 C554 1.379 . S
C560 C557 1.363 . S
C560 N558 1.356 . S
C561 C555 1.363 . S
C561 C556 1.379 . S
C561 N559 1.356 . S
N562 C554 1.356 . S
N562 H568 0.984 . S
N562 H569 0.984 . S
N563 C556 1.356 . S
N563 H566 0.984 . S
N563 H567 0.985 . S
H564 N559 0.984 . S
H565 N559 0.985 . S
H566 N563 0.984 . S
H567 N563 0.985 . S
H568 N562 0.984 . S
H569 N562 0.984 . S
H570 N558 0.984 . S
H571 N558 0.985 . S
C572 C573 1.363 . S
C572 C578 1.379 . S
C572 N580 1.356 . S
C573 C572 1.363 . S
C573 C579 1.363 . S
C574 C575 1.363 . S
C574 C579 1.379 . S
C574 N581 1.356 . S
C575 C574 1.363 . S
C575 C578 1.363 . S
N576 C578 1.356 . S
N576 H588 0.984 . S
N576 H589 0.985 . S
N577 C579 1.356 . S
N577 H582 0.984 . S
N577 H583 0.985 . S
C578 C572 1.379 . S
C578 C575 1.363 . S
C578 N576 1.356 . S
C579 C573 1.363 . S
C579 C574 1.379 . S
C579 N577 1.356 . S
N580 C572 1.356 . S
N580 H586 0.984 . S
N580 H587 0.984 . S
N581 C574 1.356 . S
N581 H584 0.984 . S
N581 H585 0.985 . S
H582 N577 0.984 . S
H583 N577 0.985 . S
H584 N581 0.984 . S
H585 N581 0.985 . S
H586 N580 0.984 . S
H587 N580 0.984 . S
H588 N576 0.984 . S
H589 N576 0.985 . S
C590 C591 1.363 . S
C590 C596 1.379 . S
C590 N598 1.356 . S
C591 C590 1.363 . S
C591 C597 1.363 . S
C592 C593 1.363 . S
C592 C597 1.379 . S
C592 N599 1.356 . S
C593 C592 1.363 . S
C593 C596 1.363 . S
N594 C596 1.356 . S
N594 H606 0.984 . S
N594 H607 0.985 . S
N595 C597 1.356 . S
N595 H600 0.984 . S
N595 H601 0.985 . S
C596 C590 1.379 . S
C596 C593 1.363 . S
C596 N594 1.356 . S
C597 C591 1.363 . S
C597 C592 1.379 . S
C597 N595 1.356 . S
N598 C590 1.356 . S
N598 H604 0.984 . S
N598 H605 0.984 . S
N599 C592 1.356 . S
N599 H602 0.984 . S
N599 H603 0.985 . S
H600 N595 0.984 . S
H601 N595 0.985 . S
H602 N599 0.984 . S
H603 N599 0.985 . S
H604 N598 0.984 . S
H605 N598 0.984 . S
H606 N594 0.984 . S
H607 N594 0.985 . S
C608 C609 1.363 . S
C608 C614 1.379 . S
C608 N616 1.356 . S
C609 C608 1.363 . S
C609 C615 1.363 . S
C610 C611 1.363 . S
C610 C615 1.379 . S
C610 N617 1.356 . S
C611 C610 1.363 . S
C611 C614 1.363 . S
N612 C614 1.356 . S
N612 H624 0.984 . S
N612 H625 0.985 . S
N613 C615 1.356 . S
N613 H618 0.984 . S
N613 H619 0.985 . S
C614 C608 1.379 . S
C614 C611 1.363 . S
C614 N612 1.356 . S
C615 C609 1.363 . S
C615 C610 1.379 . S
C615 N613 1.356 . S
N616 C608 1.356 . S
N616 H622 0.984 . S
N616 H623 0.984 . S
N617 C610 1.356 . S
N617 H620 0.984 . S
N617 H621 0.985 . S
H618 N613 0.984 . S
H619 N613 0.985 . S
H620 N617 0.984 . S
H621 N617 0.985 . S
H622 N616 0.984 . S
H623 N616 0.984 . S
H624 N612 0.984 . S
H625 N612 0.985 . S
C626 C627 1.363 . S
C626 C632 1.379 . S
C626 N634 1.356 . S
C627 C626 1.363 . S
C627 C633 1.363 . S
C628 C629 1.363 . S
C628 C633 1.379 . S
C628 N635 1.356 . S
C629 C628 1.363 . S
C629 C632 1.363 . S
N630 C632 1.356 . S
N630 H642 0.984 . S
N630 H643 0.985 . S
N631 C633 1.356 . S
N631 H636 0.984 . S
N631 H637 0.985 . S
C632 C626 1.379 . S
C632 C629 1.363 . S
C632 N630 1.356 . S
C633 C627 1.363 . S
C633 C628 1.379 . S
C633 N631 1.356 . S
N634 C626 1.356 . S
N634 H640 0.984 . S
N634 H641 0.984 . S
N635 C628 1.356 . S
N635 H638 0.984 . S
N635 H639 0.985 . S
H636 N631 0.984 . S
H637 N631 0.985 . S
H638 N635 0.984 . S
H639 N635 0.985 . S
H640 N634 0.984 . S
H641 N634 0.984 . S
H642 N630 0.984 . S
H643 N630 0.985 . S
C644 C645 1.363 . S
C644 C650 1.379 . S
C644 N652 1.356 . S
C645 C644 1.363 . S
C645 C651 1.363 . S
C646 C647 1.363 . S
C646 C651 1.379 . S
C646 N653 1.356 . S
C647 C646 1.363 . S
C647 C650 1.363 . S
N648 C650 1.356 . S
N648 H660 0.984 . S
N648 H661 0.985 . S
N649 C651 1.356 . S
N649 H654 0.984 . S
N649 H655 0.985 . S
C650 C644 1.379 . S
C650 C647 1.363 . S
C650 N648 1.356 . S
C651 C645 1.363 . S
C651 C646 1.379 . S
C651 N649 1.356 . S
N652 C644 1.356 . S
N652 H658 0.984 . S
N652 H659 0.984 . S
N653 C646 1.356 . S
N653 H656 0.984 . S
N653 H657 0.985 . S
H654 N649 0.984 . S
H655 N649 0.985 . S
H656 N653 0.984 . S
H657 N653 0.985 . S
H658 N652 0.984 . S
H659 N652 0.984 . S
H660 N648 0.984 . S
H661 N648 0.985 . S
C662 C663 1.363 . S
C662 C668 1.379 . S
C662 N670 1.356 . S
C663 C662 1.363 . S
C663 C669 1.363 . S
C664 C665 1.363 . S
C664 C669 1.379 . S
C664 N671 1.356 . S
C665 C664 1.363 . S
C665 C668 1.363 . S
N666 C668 1.356 . S
N666 H678 0.984 . S
N666 H679 0.985 . S
N667 C669 1.356 . S
N667 H672 0.984 . S
N667 H673 0.985 . S
C668 C662 1.379 . S
C668 C665 1.363 . S
C668 N666 1.356 . S
C669 C663 1.363 . S
C669 C664 1.379 . S
C669 N667 1.356 . S
N670 C662 1.356 . S
N670 H676 0.984 . S
N670 H677 0.984 . S
N671 C664 1.356 . S
N671 H674 0.984 . S
N671 H675 0.985 . S
H672 N667 0.984 . S
H673 N667 0.985 . S
H674 N671 0.984 . S
H675 N671 0.985 . S
H676 N670 0.984 . S
H677 N670 0.984 . S
H678 N666 0.984 . S
H679 N666 0.985 . S
C249 C4 1.133 . S
C251 C95 1.163 . S
C267 C16 1.267 . S
C269 C144 1.285 . S
C287 C170 2.162 . S
C285 C32 2.201 . S
C303 C43 2.373 . S
C305 C218 2.327 . S
C323 C130 2.529 . S
C321 C5 2.361 . S
C341 C98 0.552 . S
C339 C21 0.593 . S
C359 C219 1.962 . S
C357 C27 2.019 . S
C377 C187 1.756 . S
C375 C37 1.750 . S
C393 C10 1.451 . S
C395 C215 1.490 . S
C413 C147 2.523 1_556 S
C411 C26 2.604 . S
C429 C38 2.146 . S
C431 C99 2.146 . S
C447 C15 1.328 . S
C449 C184 1.358 . S
C467 C104 1.236 . S
C465 C48 1.222 . S
C483 C59 1.183 . S
C485 C135 1.188 . S
C501 C76 2.506 . S
C503 C179 2.459 . S
C519 C87 2.237 . S
C521 C227 2.232 . S
C537 C54 1.907 . S
C539 C139 2.080 1_556 S
C557 C107 1.301 . S
C555 C60 1.322 . S
C575 C210 1.853 . S
C573 C71 1.897 . S
C593 C178 1.713 . S
C591 C82 1.775 . S
C609 C49 1.667 . S
C611 C224 1.808 . S
C629 C138 2.049 . S
C627 C70 2.125 . S
C647 C90 2.534 . S
C645 C81 2.544 . S
C663 C65 1.093 . S
C665 C175 1.112 . S
