# Generated by pormake.
# Topology rtl, (3,6)-cn, num edge types: 1
# Building blocks:
#     Node 0, Type 0, BuildingBlock: ESEHIV_clean_linker_0, # of connection points: 3
#     Node 1, Type 0, BuildingBlock: ESEHIV_clean_linker_0, # of connection points: 3
#     Node 2, Type 0, BuildingBlock: ESEHIV_clean_linker_0, # of connection points: 3
#     Node 3, Type 0, BuildingBlock: ESEHIV_clean_linker_0, # of connection points: 3
#     Node 4, Type 1, BuildingBlock: CIFDUS_clean_sbu_1, # of connection points: 6
#     Node 5, Type 1, BuildingBlock: CIFDUS_clean_sbu_1, # of connection points: 6
#     Edge 6, Type (0, 1), BuildingBlock: EZIPEK_clean_linker_0, # of connection points: 2
#     Edge 7, Type (0, 1), BuildingBlock: EZIPEK_clean_linker_0, # of connection points: 2
#     Edge 8, Type (0, 1), BuildingBlock: EZIPEK_clean_linker_0, # of connection points: 2
#     Edge 9, Type (0, 1), BuildingBlock: EZIPEK_clean_linker_0, # of connection points: 2
#     Edge 10, Type (0, 1), BuildingBlock: EZIPEK_clean_linker_0, # of connection points: 2
#     Edge 11, Type (0, 1), BuildingBlock: EZIPEK_clean_linker_0, # of connection points: 2
#     Edge 12, Type (0, 1), BuildingBlock: EZIPEK_clean_linker_0, # of connection points: 2
#     Edge 13, Type (0, 1), BuildingBlock: EZIPEK_clean_linker_0, # of connection points: 2
#     Edge 14, Type (0, 1), BuildingBlock: EZIPEK_clean_linker_0, # of connection points: 2
#     Edge 15, Type (0, 1), BuildingBlock: EZIPEK_clean_linker_0, # of connection points: 2
#     Edge 16, Type (0, 1), BuildingBlock: EZIPEK_clean_linker_0, # of connection points: 2
#     Edge 17, Type (0, 1), BuildingBlock: EZIPEK_clean_linker_0, # of connection points: 2
# Relax obj value: 0.029
# Max RMSD: 0.062
# Mean RMSD: 0.046
data_MOF--net-rtl--node1-CIFDUS_clean_sbu_1--node2-ESEHIV_clean_linker_0--edge1-EZIPEK_clean_linker_0
_symmetry_space_group_name_H-M    P1
_symmetry_Int_Tables_number       1
_symmetry_cell_setting            triclinic
loop_
_symmetry_equiv_pos_as_xyz
'x, y, z'
_cell_length_a     20.821191
_cell_length_b     23.455136
_cell_length_c     16.121831
_cell_angle_alpha  90.237864
_cell_angle_beta   97.859583
_cell_angle_gamma 90.013203
loop_
_atom_site_label
_atom_site_type_symbol
_atom_site_fract_x
_atom_site_fract_y
_atom_site_fract_z
_atom_type_partial_charge
H0 H 0.18966 0.9649 0.09663 0.0
H1 H 0.31358 0.84604 0.24549 0.0
H2 H 0.29048 0.83546 0.97719 0.0
C3 C 0.22535 0.93101 0.10136 0.0
C4 C 0.24081 0.90516 0.02754 0.0
C5 C 0.25148 0.91011 0.18082 0.0
C6 C 0.29522 0.86401 0.18506 0.0
C7 C 0.3068 0.8352 0.11216 0.0
C8 C 0.28236 0.85797 0.03375 0.0
H9 H 0.66834 0.58803 0.58356 0.0
H10 H 0.7855 0.71027 0.47351 0.0
H11 H 0.79714 0.69991 0.74125 0.0
C12 C 0.70475 0.62137 0.59058 0.0
C13 C 0.73027 0.641 0.67131 0.0
C14 C 0.72522 0.64588 0.51885 0.0
C15 C 0.77026 0.69082 0.52853 0.0
C16 C 0.79613 0.71065 0.60853 0.0
C17 C 0.77754 0.68437 0.67953 0.0
H18 H 0.85182 0.09194 0.02346 0.0
H19 H 0.72887 0.20758 0.13623 0.0
H20 H 0.70145 0.18405 0.86874 0.0
C21 C 0.81191 0.122 0.01706 0.0
C22 C 0.77954 0.1353 0.93702 0.0
C23 C 0.79281 0.14713 0.08898 0.0
C24 C 0.74299 0.18771 0.08061 0.0
C25 C 0.71033 0.20192 1.00121 0.0
C26 C 0.72718 0.17393 0.92996 0.0
H27 H 0.32347 0.46129 0.52242 0.0
H28 H 0.21037 0.3378 0.63537 0.0
H29 H 0.20675 0.33988 0.3682 0.0
C30 C 0.28662 0.42828 0.51599 0.0
C31 C 0.26448 0.40577 0.43628 0.0
C32 C 0.26737 0.40381 0.58822 0.0
C33 C 0.22303 0.35842 0.57973 0.0
C34 C 0.20038 0.33553 0.50037 0.0
C35 C 0.22052 0.35988 0.42877 0.0
O36 O 0.95484 0.05873 0.45418 0.0
Mn37 Mn 0.0106 0.01811 0.55706 0.0
O38 O 0.92048 0.99051 0.36093 0.0
Mn39 Mn 0.97056 0.93508 0.41669 0.0
O40 O 0.06631 0.97815 0.66094 0.0
O41 O 0.05088 0.09632 0.58756 0.0
Mn42 Mn 0.05603 0.10199 0.69744 0.0
O43 O 0.93462 0.03406 0.62889 0.0
O44 O 0.11274 0.04792 0.74424 0.0
O45 O 0.08785 0.00307 0.48631 0.0
O46 O 0.05431 0.93316 0.39543 0.0
O47 O 0.08796 0.16933 0.66746 0.0
O48 O 0.97422 0.09827 0.72682 0.0
C49 C 0.94102 0.88922 0.51443 0.0
C50 C 0.92262 0.04219 0.38426 0.0
C51 C 0.1058 0.99576 0.72465 0.0
C52 C 0.07737 0.14689 0.59326 0.0
C53 C 0.92891 0.0663 0.69242 0.0
C54 C 0.09743 0.96773 0.42784 0.0
O55 O 0.96841 0.93962 0.5262 0.0
O56 O 0.93298 0.86902 0.43873 0.0
O57 O 0.56254 0.55665 0.16182 0.0
Mn58 Mn 0.50369 0.5156 0.0568 0.0
O59 O 0.63081 0.49052 0.21222 0.0
Mn60 Mn 0.56374 0.4421 0.18261 0.0
O61 O 0.44583 0.47784 0.95181 0.0
O62 O 0.45435 0.59309 0.03989 0.0
Mn63 Mn 0.45376 0.60077 0.93012 0.0
O64 O 0.57826 0.53948 0.98334 0.0
O65 O 0.39961 0.54881 0.873 0.0
O66 O 0.43182 0.49085 0.1298 0.0
O67 O 0.49261 0.45141 0.23835 0.0
O68 O 0.41766 0.6657 0.95576 0.0
O69 O 0.53334 0.60686 0.89723 0.0
C70 C 0.57036 0.38272 0.09124 0.0
C71 C 0.61627 0.54238 0.20693 0.0
C72 C 0.40636 0.49639 0.88908 0.0
C73 C 0.42316 0.64213 0.02909 0.0
C74 C 0.58181 0.577 0.9256 0.0
C75 C 0.43772 0.46794 0.20264 0.0
O76 O 0.54434 0.43331 0.07152 0.0
O77 O 0.58865 0.37097 0.16944 0.0
C78 C 0.09851 0.27585 0.47186 0.0
C79 C 0.16676 0.27927 0.49508 0.0
C80 C 0.1697 0.17731 0.52817 0.0
C81 C 0.10183 0.1779 0.52485 0.0
N82 N -0.00055 0.22235 0.48262 0.0
N83 N 0.26868 0.23258 0.54244 0.0
C84 C 0.06549 0.22516 0.49066 0.0
C85 C 0.20299 0.22938 0.52051 0.0
N86 N 0.06556 0.32143 0.43473 0.0
N87 N 0.20195 0.127 0.54373 0.0
H88 H 0.29524 0.26946 0.5358 0.0
H89 H 0.29661 0.19968 0.57158 0.0
H90 H 0.17713 0.08903 0.55106 0.0
H91 H 0.25139 0.12194 0.54174 0.0
H92 H 0.01658 0.32041 0.41069 0.0
H93 H 0.08845 0.35953 0.423 0.0
H94 H 0.96875 0.25667 0.46625 0.0
H95 H 0.97565 0.18458 0.49428 0.0
C96 C 0.28932 0.73189 0.07476 0.0
C97 C 0.33016 0.77494 0.11624 0.0
C98 C 0.41263 0.70185 0.15262 0.0
C99 C 0.38229 0.66735 0.08786 0.0
N100 N 0.28515 0.64281 0.99711 0.0
N101 N 0.4322 0.7986 0.20089 0.0
C102 C 0.31745 0.67954 0.05409 0.0
C103 C 0.39182 0.75914 0.15899 0.0
N104 N 0.22417 0.74104 0.05576 0.0
N105 N 0.45917 0.67885 0.20956 0.0
H106 H 0.42039 0.84168 0.20354 0.0
H107 H 0.47943 0.7887 0.2273 0.0
H108 H 0.47227 0.63604 0.20521 0.0
H109 H 0.47674 0.7 0.26506 0.0
H110 H 0.19173 0.70986 0.02997 0.0
H111 H 0.20174 0.77786 0.07422 0.0
H112 H 0.24112 0.65248 0.96103 0.0
H113 H 0.30481 0.60329 0.98419 0.0
C114 C 0.82101 0.81556 0.62873 0.0
C115 C 0.84302 0.7592 0.61626 0.0
C116 C 0.94717 0.79795 0.58827 0.0
C117 C 0.9191 0.85291 0.57994 0.0
N118 N 0.83038 0.91571 0.595 0.0
N119 N 0.92904 0.69572 0.59025 0.0
C120 C 0.8571 0.86257 0.6038 0.0
C121 C 0.90737 0.75006 0.59954 0.0
N122 N 0.76502 0.82409 0.66221 0.0
N123 N 0.01146 0.79201 0.58138 0.0
H124 H 0.902 0.65984 0.60181 0.0
H125 H 0.97242 0.68609 0.56798 0.0
H126 H 0.04051 0.82724 0.57266 0.0
H127 H 0.0368 0.75385 0.59148 0.0
H128 H 0.74995 0.864 0.68046 0.0
H129 H 0.73672 0.79066 0.679 0.0
H130 H 0.7823 0.92458 0.60137 0.0
H131 H 0.85627 0.95073 0.57766 0.0
C132 C 0.6628 0.29913 0.95779 0.0
C133 C 0.65679 0.24478 0.99519 0.0
C134 C 0.56234 0.27942 0.05544 0.0
C135 C 0.57636 0.33545 0.03049 0.0
N136 N 0.61108 0.38982 0.92056 0.0
N137 N 0.58813 0.17814 0.05478 0.0
C138 C 0.61709 0.34245 0.96901 0.0
C139 C 0.60179 0.23314 0.0355 0.0
N140 N 0.71467 0.31139 0.91778 0.0
N141 N 0.51208 0.27172 0.10013 0.0
H142 H 0.61563 0.14373 0.03834 0.0
H143 H 0.54764 0.1659 0.08161 0.0
H144 H 0.47921 0.30454 0.10524 0.0
H145 H 0.50215 0.23399 0.12957 0.0
H146 H 0.72413 0.3522 0.8971 0.0
H147 H 0.75064 0.28191 0.91071 0.0
H148 H 0.63245 0.39297 0.86598 0.0
H149 H 0.57778 0.42169 0.92949 0.0
C150 C 0.21718 0.98885 0.27582 0.0
C151 C 0.22491 0.92971 0.25837 0.0
C152 C 0.18457 0.90793 0.39012 0.0
C153 C 0.15996 0.96362 0.39389 0.0
N154 N 0.15333 0.0592 0.33977 0.0
N155 N 0.19618 0.83275 0.29236 0.0
C156 C 0.17745 0.00523 0.33754 0.0
C157 C 0.20451 0.88884 0.31457 0.0
N158 N 0.24787 0.02903 0.23449 0.0
N159 N 0.18232 0.87178 0.45565 0.0
H160 H 0.19872 0.81761 0.23207 0.0
H161 H 0.17737 0.80289 0.3303 0.0
H162 H 0.16576 0.88537 0.5108 0.0
H163 H 0.20292 0.83117 0.45757 0.0
H164 H 0.24719 0.07234 0.24906 0.0
H165 H 0.27944 0.01829 0.19193 0.0
H166 H 0.15804 0.08944 0.2938 0.0
H167 H 0.12614 0.07255 0.38601 0.0
C168 C 0.71161 0.56683 0.78142 0.0
C169 C 0.70165 0.62266 0.74728 0.0
C170 C 0.64761 0.64966 0.86665 0.0
C171 C 0.64228 0.59175 0.88866 0.0
N172 N 0.68661 0.49784 0.88596 0.0
N173 N 0.64912 0.71428 0.75157 0.0
C174 C 0.67978 0.55075 0.85173 0.0
C175 C 0.6675 0.66361 0.78904 0.0
N176 N 0.7514 0.52999 0.7468 0.0
N177 N 0.63054 0.69112 0.91909 0.0
H178 H 0.65677 0.72399 0.69065 0.0
H179 H 0.61931 0.74344 0.77686 0.0
H180 H 0.61614 0.68117 0.97694 0.0
H181 H 0.63747 0.73444 0.90906 0.0
H182 H 0.7627 0.48909 0.76865 0.0
H183 H 0.77542 0.54135 0.69658 0.0
H184 H 0.71116 0.46445 0.86175 0.0
H185 H 0.67042 0.48886 0.94284 0.0
C186 C 0.88254 0.15158 0.2111 0.0
C187 C 0.82248 0.1283 0.17372 0.0
C188 C 0.81982 0.06733 0.29607 0.0
C189 C 0.88489 0.0825 0.32565 0.0
N190 N 0.98004 0.13821 0.31029 0.0
N191 N 0.73523 0.06102 0.17738 0.0
C192 C 0.91649 0.12533 0.28396 0.0
C193 C 0.79103 0.08578 0.21579 0.0
N194 N 0.90699 0.19866 0.17681 0.0
N195 N 0.78584 0.03482 0.34527 0.0
H196 H 0.71199 0.07379 0.11898 0.0
H197 H 0.71454 0.02499 0.20047 0.0
H198 H 0.80571 0.02169 0.40514 0.0
H199 H 0.73658 0.02592 0.33063 0.0
H200 H 0.94707 0.22123 0.20567 0.0
H201 H 0.88379 0.21803 0.1227 0.0
H202 H 0.00795 0.16397 0.27674 0.0
H203 H 0.00623 0.12071 0.36381 0.0
C204 C 0.36917 0.40748 0.69211 0.0
C205 C 0.30182 0.41926 0.67274 0.0
C206 C 0.3026 0.45977 0.81343 0.0
C207 C 0.37129 0.45756 0.82594 0.0
N208 N 0.47104 0.43555 0.77222 0.0
N209 N 0.20453 0.46061 0.71308 0.0
C210 C 0.40496 0.43233 0.76451 0.0
C211 C 0.26821 0.44582 0.73339 0.0
N212 N 0.39886 0.37179 0.64203 0.0
N213 N 0.27063 0.47596 0.87825 0.0
H214 H 0.17808 0.45191 0.65469 0.0
H215 H 0.17937 0.48544 0.75155 0.0
H216 H 0.29518 0.48609 0.93737 0.0
H217 H 0.22044 0.47398 0.87586 0.0
H218 H 0.44646 0.35776 0.6573 0.0
H219 H 0.37388 0.35133 0.5899 0.0
H220 H 0.49754 0.42432 0.7243 0.0
H221 H 0.4991 0.45368 0.82407 0.0
C222 C 0.64966 0.6518 0.38178 0.0
C223 C 0.70149 0.62408 0.43267 0.0
C224 C 0.71447 0.56031 0.31488 0.0
C225 C 0.65517 0.58087 0.27081 0.0
N226 N 0.59743 0.66788 0.24015 0.0
N227 N 0.78591 0.55298 0.44662 0.0
C228 C 0.63086 0.63291 0.29767 0.0
C229 C 0.7352 0.579 0.39849 0.0
N230 N 0.61678 0.69495 0.41436 0.0
N231 N 0.75332 0.52649 0.27372 0.0
H232 H 0.8039 0.56664 0.50701 0.0
H233 H 0.8075 0.51564 0.42889 0.0
H234 H 0.74224 0.51759 0.20984 0.0
H235 H 0.79972 0.51371 0.29905 0.0
H236 H 0.57445 0.71248 0.38256 0.0
H237 H 0.62926 0.71025 0.47532 0.0
H238 H 0.58732 0.71021 0.25348 0.0
H239 H 0.58874 0.65711 0.17673 0.0
C240 C 0.82313 0.15103 0.80044 0.0
C241 C 0.80414 0.1125 0.86036 0.0
C242 C 0.84909 0.03348 0.78569 0.0
C243 C 0.86677 0.0729 0.72641 0.0
N244 N 0.84701 0.16318 0.65889 0.0
N245 N 0.78277 0.01491 0.89559 0.0
C246 C 0.84345 0.12923 0.72656 0.0
C247 C 0.81148 0.05278 0.84808 0.0
N248 N 0.82973 0.20783 0.81818 0.0
N249 N 0.87119 0.9788 0.78509 0.0
H250 H 0.75389 0.02795 0.9402 0.0
H251 H 0.78263 0.97104 0.88521 0.0
H252 H 0.89665 0.96376 0.73808 0.0
H253 H 0.86651 0.94961 0.83244 0.0
H254 H 0.8478 0.23684 0.77835 0.0
H255 H 0.82675 0.22422 0.87758 0.0
H256 H 0.8273 0.2041 0.65385 0.0
H257 H 0.86385 0.14756 0.60501 0.0
C258 C 0.2864 0.46997 0.31651 0.0
C259 C 0.30034 0.41979 0.36505 0.0
C260 C 0.38461 0.3946 0.28049 0.0
C261 C 0.38064 0.44956 0.24365 0.0
N262 N 0.32078 0.53698 0.21537 0.0
N263 N 0.36832 0.33723 0.39886 0.0
C264 C 0.32876 0.48644 0.25733 0.0
C265 C 0.35057 0.38271 0.34807 0.0
N266 N 0.23326 0.50167 0.3281 0.0
N267 N 0.42007 0.35287 0.2488 0.0
H268 H 0.34442 0.32573 0.44875 0.0
H269 H 0.41039 0.31371 0.39579 0.0
H270 H 0.44274 0.35964 0.19611 0.0
H271 H 0.42029 0.31047 0.26795 0.0
H272 H 0.21754 0.53737 0.2931 0.0
H273 H 0.20243 0.49031 0.3712 0.0
H274 H 0.28592 0.56725 0.22429 0.0
H275 H 0.34978 0.54936 0.17093 0.0
C276 C 0.13717 0.91467 0.92747 0.0
C277 C 0.20566 0.9211 0.94369 0.0
C278 C 0.20603 0.95224 0.79836 0.0
C279 C 0.13764 0.9559 0.78812 0.0
N280 N 0.0373 0.94534 0.84531 0.0
N281 N 0.30554 0.95062 0.89583 0.0
C282 C 0.10288 0.93768 0.85294 0.0
C283 C 0.24042 0.9404 0.87901 0.0
N284 N 0.10491 0.8852 0.98201 0.0
N285 N 0.23777 0.96095 0.73075 0.0
H286 H 0.33206 0.94444 0.9548 0.0
H287 H 0.33224 0.96986 0.85351 0.0
H288 H 0.21288 0.96951 0.67136 0.0
H289 H 0.28729 0.95411 0.7317 0.0
H290 H 0.05584 0.87498 0.96939 0.0
H291 H 0.12825 0.86574 0.03587 0.0
H292 H 0.0106 0.94063 0.89502 0.0
H293 H 0.01017 0.95976 0.79028 0.0
loop_
_geom_bond_atom_site_label_1
_geom_bond_atom_site_label_2
_geom_bond_distance
_geom_bond_site_symmetry_2
_ccdc_geom_bond_type
H0 C3 0.931 . S
H1 C6 0.928 . S
H2 C8 0.930 1_556 S
C3 H0 0.931 . S
C3 C4 1.413 . S
C3 C5 1.360 . S
C4 C3 1.413 . S
C4 C8 1.429 . S
C5 C3 1.360 . S
C5 C6 1.372 . S
C6 H1 0.928 . S
C6 C5 1.372 . S
C6 C7 1.404 . S
C7 C6 1.404 . S
C7 C8 1.391 . S
C8 H2 0.930 1_554 S
C8 C4 1.429 . S
C8 C7 1.391 . S
H9 C12 0.931 . S
H10 C15 0.928 . S
H11 C17 0.930 . S
C12 H9 0.931 . S
C12 C13 1.413 . S
C12 C14 1.360 . S
C13 C12 1.413 . S
C13 C17 1.429 . S
C14 C12 1.360 . S
C14 C15 1.372 . S
C15 H10 0.928 . S
C15 C14 1.372 . S
C15 C16 1.404 . S
C16 C15 1.404 . S
C16 C17 1.391 . S
C17 H11 0.930 . S
C17 C13 1.429 . S
C17 C16 1.391 . S
H18 C21 0.931 . S
H19 C24 0.928 . S
H20 C26 0.930 . S
C21 H18 0.931 . S
C21 C22 1.413 1_554 S
C21 C23 1.360 . S
C22 C21 1.413 1_556 S
C22 C26 1.429 . S
C23 C21 1.360 . S
C23 C24 1.372 . S
C24 H19 0.928 . S
C24 C23 1.372 . S
C24 C25 1.404 . S
C25 C24 1.404 . S
C25 C26 1.391 1_554 S
C26 H20 0.930 . S
C26 C22 1.429 . S
C26 C25 1.391 1_556 S
H27 C30 0.931 . S
H28 C33 0.928 . S
H29 C35 0.930 . S
C30 H27 0.931 . S
C30 C31 1.413 . S
C30 C32 1.360 . S
C31 C30 1.413 . S
C31 C35 1.429 . S
C32 C30 1.360 . S
C32 C33 1.372 . S
C33 H28 0.928 . S
C33 C32 1.372 . S
C33 C34 1.404 . S
C34 C33 1.404 . S
C34 C35 1.391 . S
C35 H29 0.930 . S
C35 C31 1.429 . S
C35 C34 1.391 . S
O36 Mn37 2.163 1_655 S
O36 C50 1.244 . S
Mn37 O36 2.163 1_455 S
Mn37 O40 2.160 1_545 S
Mn37 O41 2.221 . S
Mn37 O43 2.163 1_455 S
Mn37 O45 2.160 1_545 S
Mn37 O55 2.221 1_445 S
O38 Mn39 2.087 . S
O38 C50 1.256 1_565 S
Mn39 O38 2.087 . S
Mn39 O46 2.089 1_655 S
Mn39 O55 2.290 . S
Mn39 O56 2.251 . S
O40 Mn37 2.160 1_565 S
O40 C51 1.239 . S
O41 Mn37 2.221 . S
O41 Mn42 2.290 . S
O41 C52 1.278 . S
Mn42 O41 2.290 . S
Mn42 O44 2.089 . S
Mn42 O47 2.251 . S
Mn42 O48 2.087 1_455 S
O43 Mn37 2.163 1_655 S
O43 C53 1.244 . S
O44 Mn42 2.089 . S
O44 C51 1.256 1_545 S
O45 Mn37 2.160 1_565 S
O45 C54 1.239 . S
O46 Mn39 2.089 1_455 S
O46 C54 1.256 . S
O47 Mn42 2.251 . S
O47 C52 1.241 . S
O48 Mn42 2.087 1_655 S
O48 C53 1.256 . S
C49 O55 1.278 . S
C49 O56 1.241 . S
C50 O36 1.244 . S
C50 O38 1.256 1_545 S
C51 O40 1.239 . S
C51 O44 1.256 1_565 S
C52 O41 1.278 . S
C52 O47 1.241 . S
C53 O43 1.244 . S
C53 O48 1.256 . S
C54 O45 1.239 . S
C54 O46 1.256 . S
O55 Mn37 2.221 1_665 S
O55 Mn39 2.290 . S
O55 C49 1.278 . S
O56 Mn39 2.251 . S
O56 C49 1.241 . S
O57 Mn58 2.163 . S
O57 C71 1.244 . S
Mn58 O57 2.163 . S
Mn58 O61 2.160 1_554 S
Mn58 O62 2.221 . S
Mn58 O64 2.163 1_554 S
Mn58 O66 2.160 . S
Mn58 O76 2.221 . S
O59 Mn60 2.087 . S
O59 C71 1.256 . S
Mn60 O59 2.087 . S
Mn60 O67 2.089 . S
Mn60 O76 2.290 . S
Mn60 O77 2.251 . S
O61 Mn58 2.160 1_556 S
O61 C72 1.239 . S
O62 Mn58 2.221 . S
O62 Mn63 2.290 1_554 S
O62 C73 1.278 . S
Mn63 O62 2.290 1_556 S
Mn63 O65 2.089 . S
Mn63 O68 2.251 . S
Mn63 O69 2.087 . S
O64 Mn58 2.163 1_556 S
O64 C74 1.244 . S
O65 Mn63 2.089 . S
O65 C72 1.256 . S
O66 Mn58 2.160 . S
O66 C75 1.239 . S
O67 Mn60 2.089 . S
O67 C75 1.256 . S
O68 Mn63 2.251 . S
O68 C73 1.241 1_556 S
O69 Mn63 2.087 . S
O69 C74 1.256 . S
C70 O76 1.278 . S
C70 O77 1.241 . S
C71 O57 1.244 . S
C71 O59 1.256 . S
C72 O61 1.239 . S
C72 O65 1.256 . S
C73 O62 1.278 . S
C73 O68 1.241 1_554 S
C74 O64 1.244 . S
C74 O69 1.256 . S
C75 O66 1.239 . S
C75 O67 1.256 . S
O76 Mn58 2.221 . S
O76 Mn60 2.290 . S
O76 C70 1.278 . S
O77 Mn60 2.251 . S
O77 C70 1.241 . S
C78 C79 1.363 . S
C78 C84 1.379 . S
C78 N86 1.356 . S
C79 C78 1.363 . S
C79 C85 1.363 . S
C80 C81 1.363 . S
C80 C85 1.379 . S
C80 N87 1.356 . S
C81 C80 1.363 . S
C81 C84 1.363 . S
N82 C84 1.356 . S
N82 H94 0.981 1_455 S
N82 H95 0.985 . S
N83 C85 1.356 . S
N83 H88 0.984 . S
N83 H89 0.985 . S
C84 C78 1.379 . S
C84 C81 1.363 . S
C84 N82 1.356 . S
C85 C79 1.363 . S
C85 C80 1.379 . S
C85 N83 1.356 . S
N86 C78 1.356 . S
N86 H92 0.984 . S
N86 H93 0.984 . S
N87 C80 1.356 . S
N87 H90 0.984 . S
N87 H91 0.985 . S
H88 N83 0.984 . S
H89 N83 0.985 . S
H90 N87 0.984 . S
H91 N87 0.985 . S
H92 N86 0.984 . S
H93 N86 0.984 . S
H94 N82 0.981 1_655 S
H95 N82 0.985 . S
C96 C97 1.363 . S
C96 C102 1.379 . S
C96 N104 1.356 1_554 S
C97 C96 1.363 . S
C97 C103 1.363 . S
C98 C99 1.363 . S
C98 C103 1.379 . S
C98 N105 1.356 . S
C99 C98 1.363 . S
C99 C102 1.363 . S
N100 C102 1.356 1_556 S
N100 H112 0.984 . S
N100 H113 0.985 . S
N101 C103 1.356 . S
N101 H106 0.984 . S
N101 H107 0.985 . S
C102 C96 1.379 . S
C102 C99 1.363 . S
C102 N100 1.356 1_554 S
C103 C97 1.363 . S
C103 C98 1.379 . S
C103 N101 1.356 . S
N104 C96 1.356 1_556 S
N104 H110 0.984 . S
N104 H111 0.984 . S
N105 C98 1.356 . S
N105 H108 0.984 . S
N105 H109 0.985 . S
H106 N101 0.984 . S
H107 N101 0.985 . S
H108 N105 0.984 . S
H109 N105 0.985 . S
H110 N104 0.984 . S
H111 N104 0.984 . S
H112 N100 0.984 . S
H113 N100 0.985 . S
C114 C115 1.363 . S
C114 C120 1.379 . S
C114 N122 1.356 . S
C115 C114 1.363 . S
C115 C121 1.363 . S
C116 C117 1.363 . S
C116 C121 1.379 . S
C116 N123 1.356 . S
C117 C116 1.363 . S
C117 C120 1.363 . S
N118 C120 1.356 . S
N118 H130 0.984 . S
N118 H131 0.985 . S
N119 C121 1.356 . S
N119 H124 0.984 . S
N119 H125 0.985 . S
C120 C114 1.379 . S
C120 C117 1.363 . S
C120 N118 1.356 . S
C121 C115 1.363 . S
C121 C116 1.379 . S
C121 N119 1.356 . S
N122 C114 1.356 . S
N122 H128 0.984 . S
N122 H129 0.984 . S
N123 C116 1.356 . S
N123 H126 0.984 . S
N123 H127 0.985 . S
H124 N119 0.984 . S
H125 N119 0.985 . S
H126 N123 0.984 . S
H127 N123 0.985 . S
H128 N122 0.984 . S
H129 N122 0.984 . S
H130 N118 0.984 . S
H131 N118 0.985 . S
C132 C133 1.363 1_556 S
C132 C138 1.379 . S
C132 N140 1.356 . S
C133 C132 1.363 1_554 S
C133 C139 1.363 . S
C134 C135 1.363 . S
C134 C139 1.379 . S
C134 N141 1.356 . S
C135 C134 1.363 . S
C135 C138 1.363 1_554 S
N136 C138 1.356 . S
N136 H148 0.984 . S
N136 H149 0.985 . S
N137 C139 1.356 . S
N137 H142 0.984 . S
N137 H143 0.985 . S
C138 C132 1.379 . S
C138 C135 1.363 1_556 S
C138 N136 1.356 . S
C139 C133 1.363 . S
C139 C134 1.379 . S
C139 N137 1.356 . S
N140 C132 1.356 . S
N140 H146 0.984 . S
N140 H147 0.984 . S
N141 C134 1.356 . S
N141 H144 0.984 . S
N141 H145 0.985 . S
H142 N137 0.984 . S
H143 N137 0.985 . S
H144 N141 0.984 . S
H145 N141 0.985 . S
H146 N140 0.984 . S
H147 N140 0.984 . S
H148 N136 0.984 . S
H149 N136 0.985 . S
C150 C151 1.363 . S
C150 C156 1.379 . S
C150 N158 1.356 . S
C151 C150 1.363 . S
C151 C157 1.363 . S
C152 C153 1.363 . S
C152 C157 1.379 . S
C152 N159 1.356 . S
C153 C152 1.363 . S
C153 C156 1.363 . S
N154 C156 1.356 1_545 S
N154 H166 0.984 . S
N154 H167 0.985 . S
N155 C157 1.356 . S
N155 H160 0.984 . S
N155 H161 0.985 . S
C156 C150 1.379 . S
C156 C153 1.363 . S
C156 N154 1.356 1_565 S
C157 C151 1.363 . S
C157 C152 1.379 . S
C157 N155 1.356 . S
N158 C150 1.356 . S
N158 H164 0.984 1_565 S
N158 H165 0.984 . S
N159 C152 1.356 . S
N159 H162 0.984 . S
N159 H163 0.985 . S
H160 N155 0.984 . S
H161 N155 0.985 . S
H162 N159 0.984 . S
H163 N159 0.985 . S
H164 N158 0.984 1_545 S
H165 N158 0.984 . S
H166 N154 0.984 . S
H167 N154 0.985 . S
C168 C169 1.363 . S
C168 C174 1.379 . S
C168 N176 1.356 . S
C169 C168 1.363 . S
C169 C175 1.363 . S
C170 C171 1.363 . S
C170 C175 1.379 . S
C170 N177 1.356 . S
C171 C170 1.363 . S
C171 C174 1.363 . S
N172 C174 1.356 . S
N172 H184 0.984 . S
N172 H185 0.985 . S
N173 C175 1.356 . S
N173 H178 0.984 . S
N173 H179 0.985 . S
C174 C168 1.379 . S
C174 C171 1.363 . S
C174 N172 1.356 . S
C175 C169 1.363 . S
C175 C170 1.379 . S
C175 N173 1.356 . S
N176 C168 1.356 . S
N176 H182 0.984 . S
N176 H183 0.984 . S
N177 C170 1.356 . S
N177 H180 0.984 . S
N177 H181 0.985 . S
H178 N173 0.984 . S
H179 N173 0.985 . S
H180 N177 0.984 . S
H181 N177 0.985 . S
H182 N176 0.984 . S
H183 N176 0.984 . S
H184 N172 0.984 . S
H185 N172 0.985 . S
C186 C187 1.363 . S
C186 C192 1.379 . S
C186 N194 1.356 . S
C187 C186 1.363 . S
C187 C193 1.363 . S
C188 C189 1.363 . S
C188 C193 1.379 . S
C188 N195 1.359 . S
C189 C188 1.363 . S
C189 C192 1.363 . S
N190 C192 1.356 . S
N190 H202 0.984 . S
N190 H203 0.985 . S
N191 C193 1.356 . S
N191 H196 0.984 . S
N191 H197 0.985 1_545 S
C192 C186 1.379 . S
C192 C189 1.363 . S
C192 N190 1.356 . S
C193 C187 1.363 . S
C193 C188 1.379 . S
C193 N191 1.356 . S
N194 C186 1.356 . S
N194 H200 0.984 . S
N194 H201 0.984 . S
N195 C188 1.359 . S
N195 H198 0.985 . S
N195 H199 0.981 1_545 S
H196 N191 0.984 . S
H197 N191 0.985 1_565 S
H198 N195 0.985 . S
H199 N195 0.981 1_565 S
H200 N194 0.984 . S
H201 N194 0.984 . S
H202 N190 0.984 . S
H203 N190 0.985 . S
C204 C205 1.363 . S
C204 C210 1.379 . S
C204 N212 1.356 . S
C205 C204 1.363 . S
C205 C211 1.363 . S
C206 C207 1.363 . S
C206 C211 1.379 . S
C206 N213 1.356 . S
C207 C206 1.363 . S
C207 C210 1.363 . S
N208 C210 1.356 . S
N208 H220 0.984 . S
N208 H221 0.985 . S
N209 C211 1.356 . S
N209 H214 0.984 . S
N209 H215 0.985 . S
C210 C204 1.379 . S
C210 C207 1.363 . S
C210 N208 1.356 . S
C211 C205 1.363 . S
C211 C206 1.379 . S
C211 N209 1.356 . S
N212 C204 1.356 . S
N212 H218 0.984 . S
N212 H219 0.984 . S
N213 C206 1.356 . S
N213 H216 0.984 . S
N213 H217 0.985 . S
H214 N209 0.984 . S
H215 N209 0.985 . S
H216 N213 0.984 . S
H217 N213 0.985 . S
H218 N212 0.984 . S
H219 N212 0.984 . S
H220 N208 0.984 . S
H221 N208 0.985 . S
C222 C223 1.363 . S
C222 C228 1.379 . S
C222 N230 1.356 . S
C223 C222 1.363 . S
C223 C229 1.363 . S
C224 C225 1.363 . S
C224 C229 1.379 . S
C224 N231 1.356 . S
C225 C224 1.363 . S
C225 C228 1.363 . S
N226 C228 1.356 . S
N226 H238 0.984 . S
N226 H239 0.985 . S
N227 C229 1.356 . S
N227 H232 0.984 . S
N227 H233 0.985 . S
C228 C222 1.379 . S
C228 C225 1.363 . S
C228 N226 1.356 . S
C229 C223 1.363 . S
C229 C224 1.379 . S
C229 N227 1.356 . S
N230 C222 1.356 . S
N230 H236 0.984 . S
N230 H237 0.984 . S
N231 C224 1.356 . S
N231 H234 0.984 . S
N231 H235 0.985 . S
H232 N227 0.984 . S
H233 N227 0.985 . S
H234 N231 0.984 . S
H235 N231 0.985 . S
H236 N230 0.984 . S
H237 N230 0.984 . S
H238 N226 0.984 . S
H239 N226 0.985 . S
C240 C241 1.363 . S
C240 C246 1.379 . S
C240 N248 1.356 . S
C241 C240 1.363 . S
C241 C247 1.363 . S
C242 C243 1.363 . S
C242 C247 1.379 . S
C242 N249 1.356 1_545 S
C243 C242 1.363 . S
C243 C246 1.363 . S
N244 C246 1.356 . S
N244 H256 0.984 . S
N244 H257 0.985 . S
N245 C247 1.356 . S
N245 H250 0.984 . S
N245 H251 0.985 1_545 S
C246 C240 1.379 . S
C246 C243 1.363 . S
C246 N244 1.356 . S
C247 C241 1.363 . S
C247 C242 1.379 . S
C247 N245 1.356 . S
N248 C240 1.356 . S
N248 H254 0.984 . S
N248 H255 0.984 . S
N249 C242 1.356 1_565 S
N249 H252 0.984 . S
N249 H253 0.985 . S
H250 N245 0.984 . S
H251 N245 0.985 1_565 S
H252 N249 0.984 . S
H253 N249 0.985 . S
H254 N248 0.984 . S
H255 N248 0.984 . S
H256 N244 0.984 . S
H257 N244 0.985 . S
C258 C259 1.363 . S
C258 C264 1.379 . S
C258 N266 1.356 . S
C259 C258 1.363 . S
C259 C265 1.363 . S
C260 C261 1.363 . S
C260 C265 1.379 . S
C260 N267 1.356 . S
C261 C260 1.363 . S
C261 C264 1.363 . S
N262 C264 1.356 . S
N262 H274 0.984 . S
N262 H275 0.985 . S
N263 C265 1.356 . S
N263 H268 0.984 . S
N263 H269 0.985 . S
C264 C258 1.379 . S
C264 C261 1.363 . S
C264 N262 1.356 . S
C265 C259 1.363 . S
C265 C260 1.379 . S
C265 N263 1.356 . S
N266 C258 1.356 . S
N266 H272 0.984 . S
N266 H273 0.984 . S
N267 C260 1.356 . S
N267 H270 0.984 . S
N267 H271 0.985 . S
H268 N263 0.984 . S
H269 N263 0.985 . S
H270 N267 0.984 . S
H271 N267 0.985 . S
H272 N266 0.984 . S
H273 N266 0.984 . S
H274 N262 0.984 . S
H275 N262 0.985 . S
C276 C277 1.363 . S
C276 C282 1.379 . S
C276 N284 1.356 1_556 S
C277 C276 1.363 . S
C277 C283 1.363 . S
C278 C279 1.363 . S
C278 C283 1.379 . S
C278 N285 1.356 . S
C279 C278 1.363 . S
C279 C282 1.363 . S
N280 C282 1.356 . S
N280 H292 0.984 1_565 S
N280 H293 0.985 . S
N281 C283 1.356 . S
N281 H286 0.984 . S
N281 H287 0.985 . S
C282 C276 1.379 . S
C282 C279 1.363 . S
C282 N280 1.356 . S
C283 C277 1.363 . S
C283 C278 1.379 . S
C283 N281 1.356 . S
N284 C276 1.356 1_554 S
N284 H290 0.984 . S
N284 H291 0.984 . S
N285 C278 1.356 . S
N285 H288 0.984 . S
N285 H289 0.985 . S
H286 N281 0.984 . S
H287 N281 0.985 . S
H288 N285 0.984 . S
H289 N285 0.985 . S
H290 N284 0.984 . S
H291 N284 0.984 . S
H292 N280 0.984 1_545 S
H293 N280 0.985 . S
C81 C52 1.280 . S
C79 C34 1.457 . S
C97 C7 1.463 . S
C99 C73 1.281 . S
C115 C16 1.576 . S
C117 C49 1.370 . S
C133 C25 1.576 . S
C135 C70 1.370 . S
C153 C54 1.496 . S
C151 C5 1.512 . S
C171 C74 1.498 . S
C169 C13 1.545 . S
C187 C23 1.538 . S
C189 C50 1.477 . S
C205 C32 1.508 . S
C207 C72 1.448 . S
C225 C71 1.476 . S
C223 C14 1.537 . S
C243 C53 1.497 . S
C241 C22 1.543 . S
C261 C75 1.495 . S
C259 C31 1.505 . S
C277 C4 1.512 1_556 S
C279 C51 1.447 . S
