# Generated by pormake.
# Topology pyr, (3,6)-cn, num edge types: 1
# Building blocks:
#     Node 0, Type 0, BuildingBlock: BETDAH_clean_linker_0, # of connection points: 3
#     Node 1, Type 0, BuildingBlock: BETDAH_clean_linker_0, # of connection points: 3
#     Node 2, Type 0, BuildingBlock: BETDAH_clean_linker_0, # of connection points: 3
#     Node 3, Type 0, BuildingBlock: BETDAH_clean_linker_0, # of connection points: 3
#     Node 4, Type 0, BuildingBlock: BETDAH_clean_linker_0, # of connection points: 3
#     Node 5, Type 0, BuildingBlock: BETDAH_clean_linker_0, # of connection points: 3
#     Node 6, Type 0, BuildingBlock: BETDAH_clean_linker_0, # of connection points: 3
#     Node 7, Type 0, BuildingBlock: BETDAH_clean_linker_0, # of connection points: 3
#     Node 8, Type 1, BuildingBlock: MIFKUJ_clean_sbu_0, # of connection points: 6
#     Node 9, Type 1, BuildingBlock: MIFKUJ_clean_sbu_0, # of connection points: 6
#     Node 10, Type 1, BuildingBlock: MIFKUJ_clean_sbu_0, # of connection points: 6
#     Node 11, Type 1, BuildingBlock: MIFKUJ_clean_sbu_0, # of connection points: 6
#     Edge 12, Type (0, 1), BuildingBlock: OJICUG_clean_linker_0, # of connection points: 2
#     Edge 13, Type (0, 1), BuildingBlock: OJICUG_clean_linker_0, # of connection points: 2
#     Edge 14, Type (0, 1), BuildingBlock: OJICUG_clean_linker_0, # of connection points: 2
#     Edge 15, Type (0, 1), BuildingBlock: OJICUG_clean_linker_0, # of connection points: 2
#     Edge 16, Type (0, 1), BuildingBlock: OJICUG_clean_linker_0, # of connection points: 2
#     Edge 17, Type (0, 1), BuildingBlock: OJICUG_clean_linker_0, # of connection points: 2
#     Edge 18, Type (0, 1), BuildingBlock: OJICUG_clean_linker_0, # of connection points: 2
#     Edge 19, Type (0, 1), BuildingBlock: OJICUG_clean_linker_0, # of connection points: 2
#     Edge 20, Type (0, 1), BuildingBlock: OJICUG_clean_linker_0, # of connection points: 2
#     Edge 21, Type (0, 1), BuildingBlock: OJICUG_clean_linker_0, # of connection points: 2
#     Edge 22, Type (0, 1), BuildingBlock: OJICUG_clean_linker_0, # of connection points: 2
#     Edge 23, Type (0, 1), BuildingBlock: OJICUG_clean_linker_0, # of connection points: 2
#     Edge 24, Type (0, 1), BuildingBlock: OJICUG_clean_linker_0, # of connection points: 2
#     Edge 25, Type (0, 1), BuildingBlock: OJICUG_clean_linker_0, # of connection points: 2
#     Edge 26, Type (0, 1), BuildingBlock: OJICUG_clean_linker_0, # of connection points: 2
#     Edge 27, Type (0, 1), BuildingBlock: OJICUG_clean_linker_0, # of connection points: 2
#     Edge 28, Type (0, 1), BuildingBlock: OJICUG_clean_linker_0, # of connection points: 2
#     Edge 29, Type (0, 1), BuildingBlock: OJICUG_clean_linker_0, # of connection points: 2
#     Edge 30, Type (0, 1), BuildingBlock: OJICUG_clean_linker_0, # of connection points: 2
#     Edge 31, Type (0, 1), BuildingBlock: OJICUG_clean_linker_0, # of connection points: 2
#     Edge 32, Type (0, 1), BuildingBlock: OJICUG_clean_linker_0, # of connection points: 2
#     Edge 33, Type (0, 1), BuildingBlock: OJICUG_clean_linker_0, # of connection points: 2
#     Edge 34, Type (0, 1), BuildingBlock: OJICUG_clean_linker_0, # of connection points: 2
#     Edge 35, Type (0, 1), BuildingBlock: OJICUG_clean_linker_0, # of connection points: 2
# Relax obj value: 0.059
# Max RMSD: 0.193
# Mean RMSD: 0.125
data_MOF--net-pyr--node1-MIFKUJ_clean_sbu_0--node2-BETDAH_clean_linker_0--edge1-OJICUG_clean_linker_0
_symmetry_space_group_name_H-M    P1
_symmetry_Int_Tables_number       1
_symmetry_cell_setting            triclinic
loop_
_symmetry_equiv_pos_as_xyz
'x, y, z'
_cell_length_a     28.400964
_cell_length_b     25.669426
_cell_length_c     28.046748
_cell_angle_alpha  85.305837
_cell_angle_beta   88.235472
_cell_angle_gamma 105.29326
loop_
_atom_site_label
_atom_site_type_symbol
_atom_site_fract_x
_atom_site_fract_y
_atom_site_fract_z
_atom_type_partial_charge
H0 H 0.22627 0.10733 0.26824 0.0
H1 H 0.29764 0.26025 0.18952 0.0
H2 H 0.16706 0.24477 0.27635 0.0
C3 C 0.22816 0.14953 0.25822 0.0
C4 C 0.19267 0.17228 0.27742 0.0
C5 C 0.2664 0.18073 0.22672 0.0
C6 C 0.26787 0.23496 0.21295 0.0
C7 C 0.23121 0.25723 0.22954 0.0
C8 C 0.19368 0.22606 0.26179 0.0
N9 N 0.2344 0.31229 0.21588 0.0
C10 C 0.19768 0.32777 0.19174 0.0
H11 H 0.44184 0.82402 0.76851 0.0
H12 H 0.37935 0.95698 0.78738 0.0
H13 H 0.34745 0.8678 0.66429 0.0
C14 C 0.41875 0.8494 0.75652 0.0
C15 C 0.3963 0.84138 0.71268 0.0
C16 C 0.41283 0.89066 0.78431 0.0
C17 C 0.38335 0.9237 0.76767 0.0
C18 C 0.35888 0.91487 0.72533 0.0
C19 C 0.36542 0.87375 0.69769 0.0
N20 N 0.3299 0.95006 0.71079 0.0
C21 C 0.29008 0.9368 0.6823 0.0
H22 H 0.70532 0.35565 0.94886 0.0
H23 H 0.72921 0.44462 0.80874 0.0
H24 H 0.61593 0.29636 0.83362 0.0
C25 C 0.6955 0.36089 0.9121 0.0
C26 C 0.65729 0.32112 0.89516 0.0
C27 C 0.72247 0.40567 0.88133 0.0
C28 C 0.70831 0.41172 0.83383 0.0
C29 C 0.66924 0.37311 0.81708 0.0
C30 C 0.64461 0.32737 0.84744 0.0
N31 N 0.65968 0.37563 0.76784 0.0
C32 C 0.63278 0.40879 0.74715 0.0
H33 H 0.80113 0.71212 0.41151 0.0
H34 H 0.88585 0.73171 0.27753 0.0
H35 H 0.7485 0.61179 0.29861 0.0
C36 C 0.80638 0.69958 0.37626 0.0
C37 C 0.77059 0.65664 0.35996 0.0
C38 C 0.84787 0.72783 0.34667 0.0
C39 C 0.85435 0.71067 0.30091 0.0
C40 C 0.81849 0.66829 0.28415 0.0
C41 C 0.77671 0.64259 0.31322 0.0
N42 N 0.8204 0.6545 0.23635 0.0
C43 C 0.86098 0.64521 0.2132 0.0
H44 H 0.94222 0.85735 0.78399 0.0
H45 H 0.81742 0.81314 0.88492 0.0
H46 H 0.80757 0.89338 0.74722 0.0
C47 C 0.90461 0.85603 0.79342 0.0
C48 C 0.87769 0.87823 0.7601 0.0
C49 C 0.88326 0.83133 0.83834 0.0
C50 C 0.83525 0.8327 0.85097 0.0
C51 C 0.80854 0.85594 0.81829 0.0
C52 C 0.82939 0.8776 0.77279 0.0
N53 N 0.7592 0.85394 0.82928 0.0
C54 C 0.74583 0.88011 0.86669 0.0
H55 H 0.71055 0.11527 0.32631 0.0
H56 H 0.72242 0.16725 0.46849 0.0
H57 H 0.60493 0.19028 0.38389 0.0
C58 C 0.69702 0.1338 0.35529 0.0
C59 C 0.6548 0.15215 0.34981 0.0
C60 C 0.72174 0.13891 0.39798 0.0
C61 C 0.70365 0.16258 0.43539 0.0
C62 C 0.66204 0.18154 0.43054 0.0
C63 C 0.63769 0.17656 0.38755 0.0
N64 N 0.64565 0.20442 0.47016 0.0
C65 C 0.60972 0.23218 0.46946 0.0
H66 H 0.30496 0.75765 0.12725 0.0
H67 H 0.26111 0.61586 0.22724 0.0
H68 H 0.39841 0.73249 0.24096 0.0
C69 C 0.31245 0.73344 0.15815 0.0
C70 C 0.35601 0.75146 0.18207 0.0
C71 C 0.27786 0.68496 0.1746 0.0
C72 C 0.28752 0.65369 0.21441 0.0
C73 C 0.33061 0.66996 0.23826 0.0
C74 C 0.3653 0.71904 0.22209 0.0
N75 N 0.336 0.63537 0.27866 0.0
C76 C 0.37463 0.64195 0.30877 0.0
H77 H 0.20594 0.32816 0.62236 0.0
H78 H 0.16267 0.43259 0.71737 0.0
H79 H 0.06564 0.27653 0.6991 0.0
C80 C 0.17966 0.33511 0.64826 0.0
C81 C 0.13517 0.29545 0.65893 0.0
C82 C 0.19012 0.38451 0.66911 0.0
C83 C 0.15504 0.39455 0.70119 0.0
C84 C 0.10992 0.35555 0.71179 0.0
C85 C 0.10023 0.30653 0.6903 0.0
N86 N 0.0728 0.36426 0.74292 0.0
C87 C 0.07962 0.40196 0.77685 0.0
Zn88 Zn 0.05855 0.99636 0.52765 0.0
Zn89 Zn 0.96109 0.01471 0.47917 0.0
C90 C 0.10554 0.096 0.56618 0.0
O91 O 0.14416 0.08047 0.55313 0.0
C92 C 0.9494 0.93409 0.41059 0.0
O93 O 0.96303 0.9774 0.37982 0.0
O94 O 0.11487 0.96866 0.55175 0.0
O95 O 0.99638 0.94209 0.55259 0.0
O96 O 0.95872 0.00645 0.55126 0.0
C97 C 0.11375 0.94717 0.5944 0.0
O98 O 0.07404 0.93998 0.62219 0.0
O99 O 0.06336 0.06698 0.55788 0.0
C100 C 0.89752 0.06774 0.42363 0.0
O101 O 0.93229 0.07795 0.38948 0.0
O102 O 0.90286 0.04258 0.46319 0.0
O103 O 0.02069 0.06494 0.44358 0.0
O104 O 0.07086 0.01313 0.4567 0.0
O105 O 0.94766 0.94004 0.45515 0.0
C106 C 0.96589 0.96346 0.57172 0.0
C107 C 0.05923 0.0514 0.43237 0.0
Zn108 Zn 0.56044 1.00141 0.03055 0.0
Zn109 Zn 0.49605 0.07384 0.10133 0.0
C110 C 0.51607 0.93309 0.95803 0.0
O111 O 0.54893 0.90739 0.96977 0.0
C112 C 0.55115 0.12465 0.17495 0.0
O113 O 0.53674 0.16517 0.15425 0.0
O114 O 0.6192 0.97379 0.0153 0.0
O115 O 0.58091 0.08295 0.01332 0.0
O116 O 0.53222 0.12559 0.04732 0.0
C117 C 0.64849 0.99759 0.98019 0.0
O118 O 0.6431 0.043 0.95892 0.0
O119 O 0.51235 0.97291 0.9807 0.0
C120 C 0.41874 0.08765 0.16169 0.0
O121 O 0.43251 0.05149 0.18979 0.0
O122 O 0.44059 0.10345 0.12082 0.0
O123 O 0.4646 0.99601 0.09049 0.0
O124 O 0.52957 0.96499 0.09554 0.0
O125 O 0.5392 0.07896 0.15763 0.0
C126 C 0.56705 0.12556 0.01798 0.0
C127 C 0.48406 0.95849 0.10408 0.0
Zn128 Zn 0.50547 0.49655 0.52097 0.0
Zn129 Zn 0.47467 0.5865 0.58013 0.0
C130 C 0.58568 0.5455 0.45917 0.0
O131 O 0.5559 0.51306 0.43277 0.0
C132 C 0.37127 0.54095 0.6001 0.0
O133 O 0.37106 0.59092 0.58591 0.0
O134 O 0.51217 0.42719 0.49485 0.0
O135 O 0.49505 0.47951 0.59252 0.0
O136 O 0.53101 0.56167 0.60978 0.0
C137 C 0.50175 0.3805 0.51787 0.0
O138 O 0.4795 0.3734 0.56059 0.0
O139 O 0.57185 0.54905 0.50212 0.0
C140 C 0.45536 0.69142 0.59522 0.0
O141 O 0.45415 0.69746 0.54837 0.0
O142 O 0.46583 0.64979 0.61506 0.0
O143 O 0.47738 0.60768 0.50816 0.0
O144 O 0.45647 0.52502 0.48432 0.0
O145 O 0.41159 0.52803 0.59868 0.0
C146 C 0.52338 0.51063 0.61847 0.0
C147 C 0.46023 0.57558 0.47678 0.0
Zn148 Zn 0.99638 0.59102 0.97318 0.0
Zn149 Zn 0.03287 0.50647 0.04462 0.0
C150 C 0.9066 0.5477 0.92849 0.0
O151 O 0.92731 0.58788 0.89623 0.0
C152 C 0.09666 0.57835 0.09661 0.0
O153 O 0.06262 0.55019 0.12846 0.0
O154 O 0.99333 0.66191 0.93891 0.0
O155 O 0.00289 0.6067 0.04299 0.0
O156 O 0.97295 0.52265 0.07357 0.0
C157 C 0.96538 0.6873 0.95713 0.0
O158 O 0.94319 0.66895 0.99931 0.0
O159 O 0.92944 0.53939 0.96555 0.0
C160 C 0.0853 0.43185 0.07086 0.0
O161 O 0.10629 0.45361 0.02889 0.0
O162 O 0.0484 0.44603 0.08628 0.0
O163 O 0.03082 0.4832 0.9777 0.0
O164 O 0.04558 0.56268 0.93548 0.0
O165 O 0.09202 0.56924 0.05281 0.0
C166 C 0.97657 0.57286 0.07515 0.0
C167 C 0.04543 0.51286 0.93877 0.0
C168 C 0.17292 0.10771 0.35149 0.0
C169 C 0.15738 0.14087 0.31633 0.0
H170 H 0.15422 0.05345 0.41507 0.0
C171 C 0.1088 0.14435 0.31961 0.0
H172 H 0.21039 0.10518 0.35101 0.0
C173 C 0.07658 0.11519 0.35723 0.0
C174 C 0.0923 0.08173 0.39194 0.0
H175 H 0.09557 0.16923 0.29297 0.0
H176 H 0.03936 0.11859 0.35896 0.0
C177 C 0.14073 0.07822 0.38852 0.0
C178 C 0.48497 0.89104 0.83459 0.0
C179 C 0.43853 0.90023 0.82978 0.0
H180 H 0.54512 0.89322 0.87911 0.0
C181 C 0.41731 0.91927 0.86858 0.0
H182 H 0.50339 0.8779 0.80537 0.0
C183 C 0.44229 0.92988 0.91047 0.0
C184 C 0.48837 0.92023 0.91496 0.0
H185 H 0.38127 0.92585 0.86684 0.0
H186 H 0.42538 0.94515 0.93948 0.0
C187 C 0.50921 0.90018 0.87688 0.0
C188 C 0.56045 0.40566 0.70097 0.0
C189 C 0.60295 0.43647 0.71953 0.0
H190 H 0.50177 0.40503 0.65501 0.0
C191 C 0.61792 0.49276 0.70749 0.0
H192 H 0.54846 0.36211 0.70971 0.0
C193 C 0.59112 0.51772 0.676 0.0
C194 C 0.54936 0.48648 0.65583 0.0
H195 H 0.65095 0.51713 0.7213 0.0
H196 H 0.60403 0.56099 0.66617 0.0
C197 C 0.53392 0.43032 0.66947 0.0
C198 C 0.92777 0.66579 0.15038 0.0
C199 C 0.8954 0.62825 0.18327 0.0
H200 H 0.97953 0.67779 0.09067 0.0
C201 C 0.89196 0.57284 0.18266 0.0
H202 H 0.93049 0.70873 0.15005 0.0
C203 C 0.91943 0.55486 0.14844 0.0
C204 C 0.95069 0.5921 0.11409 0.0
H205 H 0.86668 0.54323 0.20754 0.0
H206 H 0.91503 0.51169 0.14805 0.0
C207 C 0.95544 0.64791 0.11622 0.0
C208 C 0.32383 0.12252 0.24132 0.0
C209 C 0.30547 0.15694 0.20977 0.0
H210 H 0.37371 0.07352 0.25085 0.0
C211 C 0.32468 0.16828 0.16214 0.0
H212 H 0.31048 0.11374 0.27849 0.0
C213 C 0.36139 0.14566 0.14644 0.0
C214 C 0.37949 0.11105 0.178 0.0
H215 H 0.31095 0.19414 0.13683 0.0
H216 H 0.37542 0.15512 0.1095 0.0
C217 C 0.36027 0.09966 0.22556 0.0
C218 C 0.20048 0.91052 0.68304 0.0
C219 C 0.24559 0.93076 0.65738 0.0
H220 H 0.12308 0.8993 0.68302 0.0
C221 C 0.24708 0.95188 0.60955 0.0
H222 H 0.19879 0.89455 0.72022 0.0
C223 C 0.20384 0.95478 0.5881 0.0
C224 C 0.15857 0.93703 0.61446 0.0
H225 H 0.28177 0.96824 0.58941 0.0
H226 H 0.20618 0.97312 0.55163 0.0
C227 C 0.15727 0.91354 0.66176 0.0
C228 C 0.79866 0.42397 0.92842 0.0
C229 C 0.76764 0.44334 0.89731 0.0
H230 H 0.86659 0.44188 0.96323 0.0
C231 C 0.78174 0.49833 0.87941 0.0
H232 H 0.78975 0.38174 0.94234 0.0
C233 C 0.82645 0.53225 0.89044 0.0
C234 C 0.85779 0.51241 0.92042 0.0
H235 H 0.75852 0.51521 0.85633 0.0
H236 H 0.83664 0.57409 0.87515 0.0
C237 C 0.843 0.4583 0.94022 0.0
C238 C 0.70219 0.65485 0.42101 0.0
C239 C 0.72571 0.62751 0.39028 0.0
H240 H 0.63935 0.64993 0.46788 0.0
C241 C 0.70451 0.57199 0.38663 0.0
H242 H 0.71704 0.69766 0.42455 0.0
C243 C 0.65964 0.54552 0.41019 0.0
C244 C 0.63541 0.57327 0.43926 0.0
H245 H 0.7221 0.54896 0.36474 0.0
H246 H 0.64355 0.50319 0.40526 0.0
C247 C 0.65759 0.62772 0.44572 0.0
C248 C 0.12601 0.36426 0.18141 0.0
C249 C 0.16478 0.34738 0.16162 0.0
H250 H 0.06941 0.40391 0.16777 0.0
C251 C 0.17427 0.35359 0.11197 0.0
H252 H 0.11841 0.35978 0.21985 0.0
C253 C 0.14664 0.37873 0.08227 0.0
C254 C 0.10901 0.39803 0.10186 0.0
H255 H 0.20417 0.34069 0.09622 0.0
H256 H 0.15585 0.38461 0.04409 0.0
C257 C 0.09804 0.38928 0.15163 0.0
C258 C 0.63194 0.22003 0.91121 0.0
C259 C 0.63325 0.27116 0.9264 0.0
H260 H 0.61063 0.13394 0.92857 0.0
C261 C 0.61301 0.27423 0.97207 0.0
H262 H 0.64771 0.21666 0.8763 0.0
C263 C 0.59128 0.2269 1.0018 0.0
C264 C 0.59047 0.17571 0.98684 0.0
H265 H 0.61366 0.31323 0.98456 0.0
H266 H 0.57562 0.23037 0.03673 0.0
C267 C 0.61117 0.17279 0.9413 0.0
C268 C 0.89215 0.78287 0.41024 0.0
C269 C 0.88102 0.77846 0.36191 0.0
H270 H 0.92258 0.8353 0.46358 0.0
C271 C 0.89747 0.82475 0.32908 0.0
H272 H 0.88096 0.74788 0.43639 0.0
C273 C 0.92189 0.87471 0.3446 0.0
C274 C 0.93014 0.87976 0.39338 0.0
H275 H 0.88919 0.82323 0.29171 0.0
H276 H 0.93222 0.90988 0.31857 0.0
C277 C 0.91623 0.83297 0.42583 0.0
C278 C 0.41754 0.81423 0.6322 0.0
C279 C 0.40792 0.8013 0.68187 0.0
H280 H 0.44053 0.79003 0.56595 0.0
C281 C 0.4132 0.75143 0.70245 0.0
H282 H 0.41449 0.85257 0.61524 0.0
C283 C 0.42911 0.71618 0.67441 0.0
C284 C 0.43959 0.72956 0.62495 0.0
H285 H 0.40529 0.73966 0.74042 0.0
H286 H 0.4329 0.67824 0.69157 0.0
C287 C 0.43303 0.77866 0.60402 0.0
C288 C 0.92768 0.87208 0.68671 0.0
C289 C 0.8995 0.89982 0.71144 0.0
H290 H 0.97047 0.87019 0.62319 0.0
C291 C 0.89231 0.94804 0.68933 0.0
H292 H 0.93311 0.83426 0.70242 0.0
C293 C 0.91341 0.96844 0.64367 0.0
C294 C 0.94215 0.94103 0.61928 0.0
H295 H 0.87107 0.9705 0.70766 0.0
H296 H 0.90766 0.00602 0.62779 0.0
C297 C 0.94883 0.89249 0.64117 0.0
C298 C 0.61182 0.18757 0.28275 0.0
C299 C 0.62845 0.14514 0.30483 0.0
H300 H 0.57492 0.21457 0.22427 0.0
C301 C 0.61993 0.09596 0.28355 0.0
H302 H 0.61827 0.2261 0.298 0.0
C303 C 0.59514 0.08929 0.24121 0.0
C304 C 0.57851 0.13176 0.21913 0.0
H305 H 0.63184 0.06229 0.30002 0.0
H306 H 0.58882 0.05078 0.22595 0.0
C307 C 0.58727 0.18101 0.2403 0.0
C308 C 0.41765 0.58247 0.35034 0.0
C309 C 0.40488 0.63168 0.34688 0.0
H310 H 0.44512 0.5261 0.39413 0.0
C311 C 0.41353 0.66464 0.38485 0.0
H312 H 0.41047 0.55607 0.32164 0.0
C313 C 0.43339 0.64754 0.4266 0.0
C314 C 0.44389 0.59676 0.43119 0.0
H315 H 0.40295 0.70231 0.38314 0.0
H316 H 0.43843 0.67295 0.45598 0.0
C317 C 0.4369 0.56508 0.39208 0.0
C318 C 0.07213 0.48628 0.81023 0.0
C319 C 0.07807 0.43366 0.81697 0.0
H320 H 0.05757 0.55326 0.84366 0.0
C321 C 0.07664 0.40897 0.86356 0.0
H322 H 0.07257 0.50576 0.7744 0.0
C323 C 0.06766 0.43561 0.903 0.0
C324 C 0.05997 0.48769 0.89669 0.0
H325 H 0.08072 0.36816 0.86947 0.0
H326 H 0.06556 0.41468 0.93846 0.0
C327 C 0.06344 0.5133 0.84984 0.0
C328 C 0.73609 0.96674 0.88972 0.0
C329 C 0.72839 0.91085 0.90051 0.0
H330 H 0.71739 0.03852 0.90732 0.0
C331 C 0.69918 0.88459 0.9411 0.0
H332 H 0.75852 0.98751 0.85832 0.0
C333 C 0.67566 0.91366 0.96938 0.0
C334 C 0.68076 0.96921 0.95695 0.0
H335 H 0.69278 0.84127 0.94968 0.0
H336 H 0.65139 0.89197 0.99926 0.0
C337 C 0.71251 0.99578 0.91776 0.0
C338 C 0.7731 0.09152 0.44714 0.0
C339 C 0.76635 0.11955 0.40381 0.0
H340 H 0.81947 0.05321 0.48733 0.0
C341 C 0.80288 0.12973 0.36662 0.0
H342 H 0.74536 0.08233 0.47624 0.0
C343 C 0.84546 0.11282 0.3729 0.0
C344 C 0.85234 0.08528 0.41646 0.0
H345 H 0.79899 0.15168 0.33297 0.0
H346 H 0.87307 0.12165 0.3437 0.0
C347 C 0.81554 0.0746 0.45339 0.0
C348 C 0.18712 0.65105 0.18055 0.0
C349 C 0.2307 0.66652 0.15177 0.0
H350 H 0.11068 0.6122 0.18538 0.0
C351 C 0.22897 0.65906 0.10269 0.0
H352 H 0.18738 0.65709 0.21834 0.0
C353 C 0.18474 0.63293 0.08356 0.0
C354 C 0.14174 0.6142 0.11333 0.0
H355 H 0.26217 0.67067 0.0798 0.0
H356 H 0.18473 0.62503 0.04622 0.0
C357 C 0.1432 0.62534 0.16157 0.0
C358 C 0.28096 0.40992 0.6514 0.0
C359 C 0.23722 0.42567 0.65532 0.0
H360 H 0.35741 0.43366 0.63079 0.0
C361 C 0.23831 0.47998 0.64231 0.0
H362 H 0.28137 0.36842 0.66162 0.0
C363 C 0.28186 0.51732 0.62443 0.0
C364 C 0.32535 0.50124 0.61942 0.0
H365 H 0.20517 0.49321 0.64444 0.0
H366 H 0.28127 0.55872 0.61412 0.0
C367 C 0.32452 0.44727 0.63371 0.0
C368 C 0.93813 0.76948 0.84907 0.0
C369 C 0.90935 0.79977 0.86962 0.0
H370 H 0.97917 0.71127 0.86054 0.0
C371 C 0.9033 0.79646 0.91984 0.0
H372 H 0.94292 0.76993 0.81058 0.0
C373 C 0.92344 0.76166 0.94858 0.0
C374 C 0.95054 0.73001 0.92771 0.0
H375 H 0.88216 0.81989 0.93696 0.0
H376 H 0.91671 0.7585 0.98708 0.0
C377 C 0.95883 0.73545 0.87777 0.0
C378 C 0.37154 0.84999 0.15459 0.0
C379 C 0.39017 0.80514 0.16566 0.0
H380 H 0.38626 0.93301 0.12704 0.0
C381 C 0.44072 0.8117 0.15871 0.0
H382 H 0.3329 0.84654 0.16032 0.0
C383 C 0.47165 0.86166 0.13935 0.0
C384 C 0.45258 0.90603 0.12691 0.0
H385 H 0.45608 0.7778 0.16682 0.0
H386 H 0.51026 0.86519 0.13337 0.0
C387 C 0.40227 0.89969 0.13556 0.0
C388 C 0.16438 0.21823 0.63117 0.0
C389 C 0.12604 0.24278 0.63711 0.0
H390 H 0.18803 0.15342 0.60414 0.0
C391 C 0.07992 0.21738 0.62084 0.0
H392 H 0.20006 0.23573 0.64426 0.0
C393 C 0.07279 0.1693 0.59824 0.0
C394 C 0.11172 0.1459 0.59118 0.0
H395 H 0.04964 0.23529 0.6245 0.0
H396 H 0.03709 0.15105 0.58555 0.0
C397 C 0.15741 0.17074 0.60828 0.0
C398 C 0.58027 0.31237 0.44669 0.0
C399 C 0.57601 0.26454 0.47627 0.0
H400 H 0.5593 0.38653 0.4362 0.0
C401 C 0.54323 0.25199 0.51651 0.0
H402 H 0.60578 0.32282 0.41566 0.0
C403 C 0.51668 0.2883 0.52853 0.0
C404 C 0.52277 0.3379 0.50054 0.0
H405 H 0.53984 0.21531 0.53994 0.0
H406 H 0.4932 0.2786 0.56098 0.0
C407 C 0.5537 0.34874 0.4586 0.0
loop_
_geom_bond_atom_site_label_1
_geom_bond_atom_site_label_2
_geom_bond_distance
_geom_bond_site_symmetry_2
_ccdc_geom_bond_type
H0 C3 0.929 . S
H1 C6 0.929 . S
H2 C8 0.930 . S
C3 H0 0.929 . S
C3 C4 1.398 . S
C3 C5 1.396 . S
C4 C3 1.398 . S
C4 C8 1.407 . S
C5 C3 1.396 . S
C5 C6 1.394 . S
C6 H1 0.929 . S
C6 C5 1.394 . S
C6 C7 1.382 . S
C7 C6 1.382 . S
C7 C8 1.392 . S
C7 N9 1.420 . S
C8 H2 0.930 . S
C8 C4 1.407 . S
C8 C7 1.392 . S
N9 C7 1.420 . S
N9 C10 1.244 . S
C10 N9 1.244 . S
H11 C14 0.929 . S
H12 C17 0.929 . S
H13 C19 0.930 . S
C14 H11 0.929 . S
C14 C15 1.398 . S
C14 C16 1.396 . S
C15 C14 1.398 . S
C15 C19 1.407 . S
C16 C14 1.396 . S
C16 C17 1.394 . S
C17 H12 0.929 . S
C17 C16 1.394 . S
C17 C18 1.382 . S
C18 C17 1.382 . S
C18 C19 1.392 . S
C18 N20 1.420 . S
C19 H13 0.930 . S
C19 C15 1.407 . S
C19 C18 1.392 . S
N20 C18 1.420 . S
N20 C21 1.244 . S
C21 N20 1.244 . S
H22 C25 0.929 . S
H23 C28 0.929 . S
H24 C30 0.930 . S
C25 H22 0.929 . S
C25 C26 1.398 . S
C25 C27 1.396 . S
C26 C25 1.398 . S
C26 C30 1.407 . S
C27 C25 1.396 . S
C27 C28 1.394 . S
C28 H23 0.929 . S
C28 C27 1.394 . S
C28 C29 1.382 . S
C29 C28 1.382 . S
C29 C30 1.392 . S
C29 N31 1.420 . S
C30 H24 0.930 . S
C30 C26 1.407 . S
C30 C29 1.392 . S
N31 C29 1.420 . S
N31 C32 1.244 . S
C32 N31 1.244 . S
H33 C36 0.929 . S
H34 C39 0.929 . S
H35 C41 0.930 . S
C36 H33 0.929 . S
C36 C37 1.398 . S
C36 C38 1.396 . S
C37 C36 1.398 . S
C37 C41 1.407 . S
C38 C36 1.396 . S
C38 C39 1.394 . S
C39 H34 0.929 . S
C39 C38 1.394 . S
C39 C40 1.382 . S
C40 C39 1.382 . S
C40 C41 1.392 . S
C40 N42 1.420 . S
C41 H35 0.930 . S
C41 C37 1.407 . S
C41 C40 1.392 . S
N42 C40 1.420 . S
N42 C43 1.244 . S
C43 N42 1.244 . S
H44 C47 0.929 . S
H45 C50 0.929 . S
H46 C52 0.930 . S
C47 H44 0.929 . S
C47 C48 1.398 . S
C47 C49 1.396 . S
C48 C47 1.398 . S
C48 C52 1.407 . S
C49 C47 1.396 . S
C49 C50 1.394 . S
C50 H45 0.929 . S
C50 C49 1.394 . S
C50 C51 1.382 . S
C51 C50 1.382 . S
C51 C52 1.392 . S
C51 N53 1.420 . S
C52 H46 0.930 . S
C52 C48 1.407 . S
C52 C51 1.392 . S
N53 C51 1.420 . S
N53 C54 1.244 . S
C54 N53 1.244 . S
H55 C58 0.929 . S
H56 C61 0.929 . S
H57 C63 0.930 . S
C58 H55 0.929 . S
C58 C59 1.398 . S
C58 C60 1.396 . S
C59 C58 1.398 . S
C59 C63 1.407 . S
C60 C58 1.396 . S
C60 C61 1.394 . S
C61 H56 0.929 . S
C61 C60 1.394 . S
C61 C62 1.382 . S
C62 C61 1.382 . S
C62 C63 1.392 . S
C62 N64 1.420 . S
C63 H57 0.930 . S
C63 C59 1.407 . S
C63 C62 1.392 . S
N64 C62 1.420 . S
N64 C65 1.244 . S
C65 N64 1.244 . S
H66 C69 0.929 . S
H67 C72 0.929 . S
H68 C74 0.930 . S
C69 H66 0.929 . S
C69 C70 1.398 . S
C69 C71 1.396 . S
C70 C69 1.398 . S
C70 C74 1.407 . S
C71 C69 1.396 . S
C71 C72 1.394 . S
C72 H67 0.929 . S
C72 C71 1.394 . S
C72 C73 1.382 . S
C73 C72 1.382 . S
C73 C74 1.392 . S
C73 N75 1.420 . S
C74 H68 0.930 . S
C74 C70 1.407 . S
C74 C73 1.392 . S
N75 C73 1.420 . S
N75 C76 1.244 . S
C76 N75 1.244 . S
H77 C80 0.929 . S
H78 C83 0.929 . S
H79 C85 0.930 . S
C80 H77 0.929 . S
C80 C81 1.398 . S
C80 C82 1.396 . S
C81 C80 1.398 . S
C81 C85 1.407 . S
C82 C80 1.396 . S
C82 C83 1.394 . S
C83 H78 0.929 . S
C83 C82 1.394 . S
C83 C84 1.382 . S
C84 C83 1.382 . S
C84 C85 1.392 . S
C84 N86 1.420 . S
C85 H79 0.930 . S
C85 C81 1.407 . S
C85 C84 1.392 . S
N86 C84 1.420 . S
N86 C87 1.244 . S
C87 N86 1.244 . S
Zn88 O94 1.969 1_545 S
Zn88 O95 1.965 1_545 S
Zn88 O99 2.024 . S
Zn88 O104 1.969 . S
Zn89 O96 1.969 1_545 S
Zn89 O102 1.969 . S
Zn89 O103 1.965 1_655 S
Zn89 O105 2.024 1_545 S
C90 O91 1.229 . S
C90 O99 1.058 . S
O91 C90 1.229 . S
C92 O93 1.229 . S
C92 O105 1.058 . S
O93 C92 1.229 . S
O94 Zn88 1.969 1_565 S
O94 C97 1.267 . S
O95 Zn88 1.965 1_565 S
O95 C106 1.260 1_455 S
O96 Zn89 1.969 1_565 S
O96 C106 1.258 . S
C97 O94 1.267 . S
C97 O98 1.228 . S
O98 C97 1.228 . S
O99 Zn88 2.024 . S
O99 C90 1.058 . S
C100 O101 1.228 . S
C100 O102 1.267 . S
O101 C100 1.228 . S
O102 Zn89 1.969 . S
O102 C100 1.267 . S
O103 Zn89 1.965 1_455 S
O103 C107 1.260 . S
O104 Zn88 1.969 . S
O104 C107 1.258 . S
O105 Zn89 2.024 1_565 S
O105 C92 1.058 . S
C106 O95 1.260 1_655 S
C106 O96 1.258 . S
C107 O103 1.260 . S
C107 O104 1.258 . S
Zn108 O114 1.969 . S
Zn108 O115 1.965 1_566 S
Zn108 O119 2.024 . S
Zn108 O124 1.969 1_556 S
Zn109 O116 1.969 . S
Zn109 O122 1.969 . S
Zn109 O123 1.965 1_545 S
Zn109 O125 2.024 . S
C110 O111 1.229 . S
C110 O119 1.058 . S
O111 C110 1.229 . S
C112 O113 1.229 . S
C112 O125 1.058 . S
O113 C112 1.229 . S
O114 Zn108 1.969 . S
O114 C117 1.267 . S
O115 Zn108 1.965 1_544 S
O115 C126 1.260 . S
O116 Zn109 1.969 . S
O116 C126 1.258 . S
C117 O114 1.267 . S
C117 O118 1.228 . S
O118 C117 1.228 . S
O119 Zn108 2.024 . S
O119 C110 1.058 . S
C120 O121 1.228 . S
C120 O122 1.267 . S
O121 C120 1.228 . S
O122 Zn109 1.969 . S
O122 C120 1.267 . S
O123 Zn109 1.965 1_565 S
O123 C127 1.260 . S
O124 Zn108 1.969 1_554 S
O124 C127 1.258 . S
O125 Zn109 2.024 . S
O125 C112 1.058 . S
C126 O115 1.260 . S
C126 O116 1.258 . S
C127 O123 1.260 . S
C127 O124 1.258 . S
Zn128 O134 1.969 . S
Zn128 O135 1.965 . S
Zn128 O139 2.024 . S
Zn128 O144 1.969 . S
Zn129 O136 1.969 . S
Zn129 O142 1.969 . S
Zn129 O143 1.965 . S
Zn129 O145 2.024 . S
C130 O131 1.229 . S
C130 O139 1.058 . S
O131 C130 1.229 . S
C132 O133 1.229 . S
C132 O145 1.058 . S
O133 C132 1.229 . S
O134 Zn128 1.969 . S
O134 C137 1.267 . S
O135 Zn128 1.965 . S
O135 C146 1.260 . S
O136 Zn129 1.969 . S
O136 C146 1.258 . S
C137 O134 1.267 . S
C137 O138 1.228 . S
O138 C137 1.228 . S
O139 Zn128 2.024 . S
O139 C130 1.058 . S
C140 O141 1.228 . S
C140 O142 1.267 . S
O141 C140 1.228 . S
O142 Zn129 1.969 . S
O142 C140 1.267 . S
O143 Zn129 1.965 . S
O143 C147 1.260 . S
O144 Zn128 1.969 . S
O144 C147 1.258 . S
O145 Zn129 2.024 . S
O145 C132 1.058 . S
C146 O135 1.260 . S
C146 O136 1.258 . S
C147 O143 1.260 . S
C147 O144 1.258 . S
Zn148 O154 1.969 . S
Zn148 O155 1.965 1_556 S
Zn148 O159 2.024 . S
Zn148 O164 1.969 1_655 S
Zn149 O156 1.969 . S
Zn149 O162 1.969 . S
Zn149 O163 1.965 1_554 S
Zn149 O165 2.024 . S
C150 O151 1.229 . S
C150 O159 1.058 . S
O151 C150 1.229 . S
C152 O153 1.229 . S
C152 O165 1.058 . S
O153 C152 1.229 . S
O154 Zn148 1.969 . S
O154 C157 1.267 . S
O155 Zn148 1.965 1_554 S
O155 C166 1.260 . S
O156 Zn149 1.969 . S
O156 C166 1.258 1_455 S
C157 O154 1.267 . S
C157 O158 1.228 . S
O158 C157 1.228 . S
O159 Zn148 2.024 . S
O159 C150 1.058 . S
C160 O161 1.228 . S
C160 O162 1.267 . S
O161 C160 1.228 . S
O162 Zn149 1.969 . S
O162 C160 1.267 . S
O163 Zn149 1.965 1_556 S
O163 C167 1.260 . S
O164 Zn148 1.969 1_455 S
O164 C167 1.258 . S
O165 Zn149 2.024 . S
O165 C152 1.058 . S
C166 O155 1.260 . S
C166 O156 1.258 1_655 S
C167 O163 1.260 . S
C167 O164 1.258 . S
C168 C169 1.387 . S
C168 H172 0.950 . S
C168 C177 1.390 . S
C169 C168 1.387 . S
C169 C171 1.387 . S
H170 C177 0.950 . S
C171 C169 1.387 . S
C171 C173 1.390 . S
C171 H175 0.950 . S
H172 C168 0.950 . S
C173 C171 1.390 . S
C173 C174 1.387 . S
C173 H176 0.950 . S
C174 C173 1.387 . S
C174 C177 1.387 . S
H175 C171 0.950 . S
H176 C173 0.950 . S
C177 C168 1.390 . S
C177 H170 0.950 . S
C177 C174 1.387 . S
C178 C179 1.387 . S
C178 H182 0.950 . S
C178 C187 1.390 . S
C179 C178 1.387 . S
C179 C181 1.387 . S
H180 C187 0.950 . S
C181 C179 1.387 . S
C181 C183 1.390 . S
C181 H185 0.950 . S
H182 C178 0.950 . S
C183 C181 1.390 . S
C183 C184 1.387 . S
C183 H186 0.950 . S
C184 C183 1.387 . S
C184 C187 1.387 . S
H185 C181 0.950 . S
H186 C183 0.950 . S
C187 C178 1.390 . S
C187 H180 0.950 . S
C187 C184 1.387 . S
C188 C189 1.387 . S
C188 H192 0.950 . S
C188 C197 1.390 . S
C189 C188 1.387 . S
C189 C191 1.387 . S
H190 C197 0.950 . S
C191 C189 1.387 . S
C191 C193 1.390 . S
C191 H195 0.950 . S
H192 C188 0.950 . S
C193 C191 1.390 . S
C193 C194 1.387 . S
C193 H196 0.950 . S
C194 C193 1.387 . S
C194 C197 1.387 . S
H195 C191 0.950 . S
H196 C193 0.950 . S
C197 C188 1.390 . S
C197 H190 0.950 . S
C197 C194 1.387 . S
C198 C199 1.387 . S
C198 H202 0.950 . S
C198 C207 1.390 . S
C199 C198 1.387 . S
C199 C201 1.387 . S
H200 C207 0.950 . S
C201 C199 1.387 . S
C201 C203 1.390 . S
C201 H205 0.950 . S
H202 C198 0.950 . S
C203 C201 1.390 . S
C203 C204 1.387 . S
C203 H206 0.950 . S
C204 C203 1.387 . S
C204 C207 1.387 . S
H205 C201 0.950 . S
H206 C203 0.950 . S
C207 C198 1.390 . S
C207 H200 0.950 . S
C207 C204 1.387 . S
C208 C209 1.387 . S
C208 H212 0.950 . S
C208 C217 1.390 . S
C209 C208 1.387 . S
C209 C211 1.387 . S
H210 C217 0.950 . S
C211 C209 1.387 . S
C211 C213 1.390 . S
C211 H215 0.950 . S
H212 C208 0.950 . S
C213 C211 1.390 . S
C213 C214 1.387 . S
C213 H216 0.950 . S
C214 C213 1.387 . S
C214 C217 1.387 . S
H215 C211 0.950 . S
H216 C213 0.950 . S
C217 C208 1.390 . S
C217 H210 0.950 . S
C217 C214 1.387 . S
C218 C219 1.387 . S
C218 H222 0.950 . S
C218 C227 1.390 . S
C219 C218 1.387 . S
C219 C221 1.387 . S
H220 C227 0.950 . S
C221 C219 1.387 . S
C221 C223 1.390 . S
C221 H225 0.950 . S
H222 C218 0.950 . S
C223 C221 1.390 . S
C223 C224 1.387 . S
C223 H226 0.950 1_565 S
C224 C223 1.387 . S
C224 C227 1.387 . S
H225 C221 0.950 . S
H226 C223 0.950 1_545 S
C227 C218 1.390 . S
C227 H220 0.950 . S
C227 C224 1.387 . S
C228 C229 1.387 . S
C228 H232 0.950 . S
C228 C237 1.390 . S
C229 C228 1.387 . S
C229 C231 1.387 . S
H230 C237 0.950 . S
C231 C229 1.387 . S
C231 C233 1.390 . S
C231 H235 0.950 . S
H232 C228 0.950 . S
C233 C231 1.390 . S
C233 C234 1.387 . S
C233 H236 0.950 . S
C234 C233 1.387 . S
C234 C237 1.387 . S
H235 C231 0.950 . S
H236 C233 0.950 . S
C237 C228 1.390 . S
C237 H230 0.950 . S
C237 C234 1.387 . S
C238 C239 1.387 . S
C238 H242 0.950 . S
C238 C247 1.390 . S
C239 C238 1.387 . S
C239 C241 1.387 . S
H240 C247 0.950 . S
C241 C239 1.387 . S
C241 C243 1.390 . S
C241 H245 0.950 . S
H242 C238 0.950 . S
C243 C241 1.390 . S
C243 C244 1.387 . S
C243 H246 0.950 . S
C244 C243 1.387 . S
C244 C247 1.387 . S
H245 C241 0.950 . S
H246 C243 0.950 . S
C247 C238 1.390 . S
C247 H240 0.950 . S
C247 C244 1.387 . S
C248 C249 1.387 . S
C248 H252 0.950 . S
C248 C257 1.390 . S
C249 C248 1.387 . S
C249 C251 1.387 . S
H250 C257 0.950 . S
C251 C249 1.387 . S
C251 C253 1.390 . S
C251 H255 0.950 . S
H252 C248 0.950 . S
C253 C251 1.390 . S
C253 C254 1.387 . S
C253 H256 0.950 . S
C254 C253 1.387 . S
C254 C257 1.387 . S
H255 C251 0.950 . S
H256 C253 0.950 . S
C257 C248 1.390 . S
C257 H250 0.950 . S
C257 C254 1.387 . S
C258 C259 1.387 . S
C258 H262 0.950 . S
C258 C267 1.390 . S
C259 C258 1.387 . S
C259 C261 1.387 . S
H260 C267 0.950 . S
C261 C259 1.387 . S
C261 C263 1.390 . S
C261 H265 0.950 . S
H262 C258 0.950 . S
C263 C261 1.390 . S
C263 C264 1.387 . S
C263 H266 0.950 1_556 S
C264 C263 1.387 . S
C264 C267 1.387 . S
H265 C261 0.950 . S
H266 C263 0.950 1_554 S
C267 C258 1.390 . S
C267 H260 0.950 . S
C267 C264 1.387 . S
C268 C269 1.387 . S
C268 H272 0.950 . S
C268 C277 1.390 . S
C269 C268 1.387 . S
C269 C271 1.387 . S
H270 C277 0.950 . S
C271 C269 1.387 . S
C271 C273 1.390 . S
C271 H275 0.950 . S
H272 C268 0.950 . S
C273 C271 1.390 . S
C273 C274 1.387 . S
C273 H276 0.950 . S
C274 C273 1.387 . S
C274 C277 1.387 . S
H275 C271 0.950 . S
H276 C273 0.950 . S
C277 C268 1.390 . S
C277 H270 0.950 . S
C277 C274 1.387 . S
C278 C279 1.387 . S
C278 H282 0.950 . S
C278 C287 1.390 . S
C279 C278 1.387 . S
C279 C281 1.387 . S
H280 C287 0.950 . S
C281 C279 1.387 . S
C281 C283 1.390 . S
C281 H285 0.950 . S
H282 C278 0.950 . S
C283 C281 1.390 . S
C283 C284 1.387 . S
C283 H286 0.950 . S
C284 C283 1.387 . S
C284 C287 1.387 . S
H285 C281 0.950 . S
H286 C283 0.950 . S
C287 C278 1.390 . S
C287 H280 0.950 . S
C287 C284 1.387 . S
C288 C289 1.387 . S
C288 H292 0.950 . S
C288 C297 1.390 . S
C289 C288 1.387 . S
C289 C291 1.387 . S
H290 C297 0.950 . S
C291 C289 1.387 . S
C291 C293 1.390 . S
C291 H295 0.950 . S
H292 C288 0.950 . S
C293 C291 1.390 . S
C293 C294 1.387 . S
C293 H296 0.932 1_565 S
C294 C293 1.387 . S
C294 C297 1.387 . S
H295 C291 0.950 . S
H296 C293 0.932 1_545 S
C297 C288 1.390 . S
C297 H290 0.950 . S
C297 C294 1.387 . S
C298 C299 1.387 . S
C298 H302 0.950 . S
C298 C307 1.390 . S
C299 C298 1.387 . S
C299 C301 1.387 . S
H300 C307 0.950 . S
C301 C299 1.387 . S
C301 C303 1.390 . S
C301 H305 0.950 . S
H302 C298 0.950 . S
C303 C301 1.390 . S
C303 C304 1.387 . S
C303 H306 0.950 . S
C304 C303 1.387 . S
C304 C307 1.387 . S
H305 C301 0.950 . S
H306 C303 0.950 . S
C307 C298 1.390 . S
C307 H300 0.950 . S
C307 C304 1.387 . S
C308 C309 1.387 . S
C308 H312 0.950 . S
C308 C317 1.390 . S
C309 C308 1.387 . S
C309 C311 1.387 . S
H310 C317 0.950 . S
C311 C309 1.387 . S
C311 C313 1.390 . S
C311 H315 0.950 . S
H312 C308 0.950 . S
C313 C311 1.390 . S
C313 C314 1.387 . S
C313 H316 0.950 . S
C314 C313 1.387 . S
C314 C317 1.387 . S
H315 C311 0.950 . S
H316 C313 0.950 . S
C317 C308 1.390 . S
C317 H310 0.950 . S
C317 C314 1.387 . S
C318 C319 1.387 . S
C318 H322 0.950 . S
C318 C327 1.390 . S
C319 C318 1.387 . S
C319 C321 1.387 . S
H320 C327 0.950 . S
C321 C319 1.387 . S
C321 C323 1.390 . S
C321 H325 0.950 . S
H322 C318 0.950 . S
C323 C321 1.390 . S
C323 C324 1.387 . S
C323 H326 0.950 . S
C324 C323 1.387 . S
C324 C327 1.387 . S
H325 C321 0.950 . S
H326 C323 0.950 . S
C327 C318 1.390 . S
C327 H320 0.950 . S
C327 C324 1.387 . S
C328 C329 1.387 . S
C328 H332 0.950 . S
C328 C337 1.390 . S
C329 C328 1.387 . S
C329 C331 1.387 . S
H330 C337 0.950 . S
C331 C329 1.387 . S
C331 C333 1.390 . S
C331 H335 0.950 . S
H332 C328 0.950 . S
C333 C331 1.390 . S
C333 C334 1.387 . S
C333 H336 0.950 . S
C334 C333 1.387 . S
C334 C337 1.387 . S
H335 C331 0.950 . S
H336 C333 0.950 . S
C337 C328 1.390 . S
C337 H330 0.950 . S
C337 C334 1.387 . S
C338 C339 1.387 . S
C338 H342 0.950 . S
C338 C347 1.390 . S
C339 C338 1.387 . S
C339 C341 1.387 . S
H340 C347 0.950 . S
C341 C339 1.387 . S
C341 C343 1.390 . S
C341 H345 0.950 . S
H342 C338 0.950 . S
C343 C341 1.390 . S
C343 C344 1.387 . S
C343 H346 0.950 . S
C344 C343 1.387 . S
C344 C347 1.387 . S
H345 C341 0.950 . S
H346 C343 0.950 . S
C347 C338 1.390 . S
C347 H340 0.950 . S
C347 C344 1.387 . S
C348 C349 1.387 . S
C348 H352 0.950 . S
C348 C357 1.390 . S
C349 C348 1.387 . S
C349 C351 1.387 . S
H350 C357 0.950 . S
C351 C349 1.387 . S
C351 C353 1.390 . S
C351 H355 0.950 . S
H352 C348 0.950 . S
C353 C351 1.390 . S
C353 C354 1.387 . S
C353 H356 0.950 . S
C354 C353 1.387 . S
C354 C357 1.387 . S
H355 C351 0.950 . S
H356 C353 0.950 . S
C357 C348 1.390 . S
C357 H350 0.950 . S
C357 C354 1.387 . S
C358 C359 1.387 . S
C358 H362 0.950 . S
C358 C367 1.390 . S
C359 C358 1.387 . S
C359 C361 1.387 . S
H360 C367 0.950 . S
C361 C359 1.387 . S
C361 C363 1.390 . S
C361 H365 0.950 . S
H362 C358 0.950 . S
C363 C361 1.390 . S
C363 C364 1.387 . S
C363 H366 0.950 . S
C364 C363 1.387 . S
C364 C367 1.387 . S
H365 C361 0.950 . S
H366 C363 0.950 . S
C367 C358 1.390 . S
C367 H360 0.950 . S
C367 C364 1.387 . S
C368 C369 1.387 . S
C368 H372 0.950 . S
C368 C377 1.390 . S
C369 C368 1.387 . S
C369 C371 1.387 . S
H370 C377 0.950 . S
C371 C369 1.387 . S
C371 C373 1.390 . S
C371 H375 0.950 . S
H372 C368 0.950 . S
C373 C371 1.390 . S
C373 C374 1.387 . S
C373 H376 0.950 . S
C374 C373 1.387 . S
C374 C377 1.387 . S
H375 C371 0.950 . S
H376 C373 0.950 . S
C377 C368 1.390 . S
C377 H370 0.950 . S
C377 C374 1.387 . S
C378 C379 1.387 . S
C378 H382 0.950 . S
C378 C387 1.390 . S
C379 C378 1.387 . S
C379 C381 1.387 . S
H380 C387 0.950 . S
C381 C379 1.387 . S
C381 C383 1.390 . S
C381 H385 0.950 . S
H382 C378 0.950 . S
C383 C381 1.390 . S
C383 C384 1.387 . S
C383 H386 0.950 . S
C384 C383 1.387 . S
C384 C387 1.387 . S
H385 C381 0.950 . S
H386 C383 0.950 . S
C387 C378 1.390 . S
C387 H380 0.950 . S
C387 C384 1.387 . S
C388 C389 1.387 . S
C388 H392 0.950 . S
C388 C397 1.390 . S
C389 C388 1.387 . S
C389 C391 1.387 . S
H390 C397 0.950 . S
C391 C389 1.387 . S
C391 C393 1.390 . S
C391 H395 0.950 . S
H392 C388 0.950 . S
C393 C391 1.390 . S
C393 C394 1.387 . S
C393 H396 0.950 . S
C394 C393 1.387 . S
C394 C397 1.387 . S
H395 C391 0.950 . S
H396 C393 0.950 . S
C397 C388 1.390 . S
C397 H390 0.950 . S
C397 C394 1.387 . S
C398 C399 1.387 . S
C398 H402 0.950 . S
C398 C407 1.390 . S
C399 C398 1.387 . S
C399 C401 1.387 . S
H400 C407 0.950 . S
C401 C399 1.387 . S
C401 C403 1.390 . S
C401 H405 0.950 . S
H402 C398 0.950 . S
C403 C401 1.390 . S
C403 C404 1.387 . S
C403 H406 0.950 . S
C404 C403 1.387 . S
C404 C407 1.387 . S
H405 C401 0.950 . S
H406 C403 0.950 . S
C407 C398 1.390 . S
C407 H400 0.950 . S
C407 C404 1.387 . S
C169 C4 1.598 . S
C174 C107 1.592 . S
C179 C16 1.456 . S
C184 C110 1.407 . S
C194 C146 1.469 . S
C189 C32 1.497 . S
C199 C43 1.591 . S
C204 C166 1.590 . S
C214 C120 1.945 . S
C209 C5 1.960 . S
C224 C97 1.272 . S
C219 C21 1.304 . S
C234 C150 1.489 . S
C229 C27 1.555 . S
C244 C130 1.303 . S
C239 C37 1.417 . S
C249 C10 1.401 . S
C254 C160 1.315 . S
C264 C126 1.771 1_556 S
C259 C26 1.799 . S
C269 C38 1.467 . S
C274 C92 1.444 . S
C279 C15 1.459 . S
C284 C140 1.404 . S
C294 C106 1.633 . S
C289 C48 1.637 . S
C299 C59 1.329 . S
C304 C112 1.302 . S
C309 C76 1.755 . S
C314 C147 1.744 . S
C319 C87 1.488 . S
C324 C167 1.460 . S
C329 C54 1.508 . S
C334 C117 1.470 . S
C344 C100 1.828 . S
C339 C60 1.816 . S
C354 C152 1.462 . S
C349 C71 1.616 . S
C364 C132 1.319 . S
C359 C82 1.351 . S
C369 C49 1.596 . S
C374 C157 1.502 . S
C384 C127 1.462 . S
C379 C70 1.476 . S
C394 C90 1.676 . S
C389 C81 1.718 . S
C399 C65 1.324 . S
C404 C137 1.275 . S
