# Generated by pormake.
# Topology pyr, (3,6)-cn, num edge types: 1
# Building blocks:
#     Node 0, Type 0, BuildingBlock: MIDCAF_clean_linker_0, # of connection points: 3
#     Node 1, Type 0, BuildingBlock: MIDCAF_clean_linker_0, # of connection points: 3
#     Node 2, Type 0, BuildingBlock: MIDCAF_clean_linker_0, # of connection points: 3
#     Node 3, Type 0, BuildingBlock: MIDCAF_clean_linker_0, # of connection points: 3
#     Node 4, Type 0, BuildingBlock: MIDCAF_clean_linker_0, # of connection points: 3
#     Node 5, Type 0, BuildingBlock: MIDCAF_clean_linker_0, # of connection points: 3
#     Node 6, Type 0, BuildingBlock: MIDCAF_clean_linker_0, # of connection points: 3
#     Node 7, Type 0, BuildingBlock: MIDCAF_clean_linker_0, # of connection points: 3
#     Node 8, Type 1, BuildingBlock: MIFKUJ_clean_sbu_0, # of connection points: 6
#     Node 9, Type 1, BuildingBlock: MIFKUJ_clean_sbu_0, # of connection points: 6
#     Node 10, Type 1, BuildingBlock: MIFKUJ_clean_sbu_0, # of connection points: 6
#     Node 11, Type 1, BuildingBlock: MIFKUJ_clean_sbu_0, # of connection points: 6
#     Edge 12, Type (0, 1), None
#     Edge 13, Type (0, 1), None
#     Edge 14, Type (0, 1), None
#     Edge 15, Type (0, 1), None
#     Edge 16, Type (0, 1), None
#     Edge 17, Type (0, 1), None
#     Edge 18, Type (0, 1), None
#     Edge 19, Type (0, 1), None
#     Edge 20, Type (0, 1), None
#     Edge 21, Type (0, 1), None
#     Edge 22, Type (0, 1), None
#     Edge 23, Type (0, 1), None
#     Edge 24, Type (0, 1), None
#     Edge 25, Type (0, 1), None
#     Edge 26, Type (0, 1), None
#     Edge 27, Type (0, 1), None
#     Edge 28, Type (0, 1), None
#     Edge 29, Type (0, 1), None
#     Edge 30, Type (0, 1), None
#     Edge 31, Type (0, 1), None
#     Edge 32, Type (0, 1), None
#     Edge 33, Type (0, 1), None
#     Edge 34, Type (0, 1), None
#     Edge 35, Type (0, 1), None
# Relax obj value: 0.038
# Max RMSD: 0.090
# Mean RMSD: 0.053
data_MOF--net-pyr--node1-MIFKUJ_clean_sbu_0--node2-MIDCAF_clean_linker_0--edge1-none
_symmetry_space_group_name_H-M    P1
_symmetry_Int_Tables_number       1
_symmetry_cell_setting            triclinic
loop_
_symmetry_equiv_pos_as_xyz
'x, y, z'
_cell_length_a     27.015854
_cell_length_b     24.240676
_cell_length_c     25.236802
_cell_angle_alpha  84.307142
_cell_angle_beta   87.034324
_cell_angle_gamma 96.231578
loop_
_atom_site_label
_atom_site_type_symbol
_atom_site_fract_x
_atom_site_fract_y
_atom_site_fract_z
_atom_type_partial_charge
C0 C 0.05498 0.09421 0.35317 0.0
C1 C 0.08478 0.07609 0.39405 0.0
C2 C 0.13693 0.0848 0.38532 0.0
C3 C 0.15892 0.10985 0.33638 0.0
H4 H 0.27339 0.0811 0.23148 0.0
H5 H 0.34609 0.04126 0.19831 0.0
H6 H 0.34179 0.13765 0.04544 0.0
H7 H 0.26882 0.17785 0.07864 0.0
H8 H 0.19445 0.26733 0.06822 0.0
H9 H 0.1685 0.34912 0.01913 0.0
H10 H 0.04951 0.3527 0.13944 0.0
H11 H 0.07556 0.27012 0.1892 0.0
H12 H 0.0535 0.13418 0.27344 0.0
H13 H 0.01467 0.08833 0.35903 0.0
H14 H 0.16085 0.07129 0.41606 0.0
H15 H 0.19925 0.11519 0.33064 0.0
N16 N 0.19607 0.13362 0.22528 0.0
N17 N 0.1993 0.1956 0.14772 0.0
N18 N 0.13365 0.19312 0.213 0.0
C19 C 0.21913 0.1547 0.17742 0.0
C20 C 0.15676 0.21529 0.16518 0.0
C21 C 0.15336 0.15228 0.24322 0.0
C22 C 0.26489 0.13248 0.15767 0.0
C23 C 0.28785 0.094 0.1908 0.0
C24 C 0.32969 0.07112 0.17177 0.0
C25 C 0.34953 0.08594 0.1191 0.0
C26 C 0.32722 0.12512 0.08616 0.0
C27 C 0.28541 0.14825 0.10527 0.0
C28 C 0.1375 0.26224 0.13315 0.0
C29 C 0.16244 0.28497 0.08426 0.0
C30 C 0.14749 0.33204 0.05592 0.0
C31 C 0.10714 0.35767 0.07554 0.0
C32 C 0.08073 0.33381 0.12324 0.0
C33 C 0.09581 0.28657 0.15183 0.0
C34 C 0.12932 0.12807 0.29548 0.0
C35 C 0.07713 0.12074 0.30447 0.0
C36 C 0.18714 0.93226 0.70274 0.0
C37 C 0.17024 0.93108 0.65108 0.0
C38 C 0.19645 0.90391 0.6138 0.0
C39 C 0.23905 0.8792 0.62764 0.0
H40 H 0.33021 0.76056 0.58278 0.0
H41 H 0.36621 0.69484 0.52924 0.0
H42 H 0.4907 0.69244 0.63 0.0
H43 H 0.45501 0.75789 0.6834 0.0
H44 H 0.42274 0.77793 0.81009 0.0
H45 H 0.47182 0.80043 0.88473 0.0
H46 H 0.4174 0.96199 0.87903 0.0
H47 H 0.3673 0.93888 0.80439 0.0
H48 H 0.24216 0.91022 0.75647 0.0
H49 H 0.16789 0.95293 0.73241 0.0
H50 H 0.1844 0.90224 0.57365 0.0
H51 H 0.25858 0.85914 0.5977 0.0
N52 N 0.32387 0.8235 0.66027 0.0
N53 N 0.38694 0.8116 0.71912 0.0
N54 N 0.32465 0.86782 0.73901 0.0
C55 C 0.36611 0.80082 0.67302 0.0
C56 C 0.36665 0.84493 0.75222 0.0
C57 C 0.30281 0.85693 0.69315 0.0
C58 C 0.3893 0.76406 0.63785 0.0
C59 C 0.36548 0.74646 0.59324 0.0
C60 C 0.3862 0.70884 0.56245 0.0
C61 C 0.43121 0.68821 0.57555 0.0
C62 C 0.45598 0.70749 0.61884 0.0
C63 C 0.43525 0.74488 0.64966 0.0
C64 C 0.39155 0.85687 0.80117 0.0
C65 C 0.42081 0.81804 0.82511 0.0
C66 C 0.44883 0.83088 0.868 0.0
C67 C 0.4489 0.88321 0.88732 0.0
C68 C 0.41834 0.92145 0.86463 0.0
C69 C 0.38949 0.90816 0.82217 0.0
C70 C 0.25667 0.88151 0.67896 0.0
C71 C 0.22996 0.90797 0.71645 0.0
C72 C 0.61541 0.15088 0.92605 0.0
C73 C 0.56512 0.13207 0.92047 0.0
C74 C 0.53738 0.16416 0.88614 0.0
C75 C 0.55949 0.21439 0.85837 0.0
H76 H 0.55975 0.31713 0.71401 0.0
H77 H 0.52269 0.35951 0.63692 0.0
H78 H 0.61961 0.51248 0.64281 0.0
H79 H 0.65731 0.46974 0.7204 0.0
H80 H 0.76479 0.44768 0.78292 0.0
H81 H 0.84243 0.4871 0.81681 0.0
H82 H 0.81234 0.37518 0.9619 0.0
H83 H 0.73518 0.33558 0.92812 0.0
H84 H 0.67601 0.21459 0.90462 0.0
H85 H 0.63786 0.12717 0.95213 0.0
H86 H 0.49857 0.15062 0.88088 0.0
H87 H 0.53709 0.2385 0.83258 0.0
N88 N 0.61241 0.31342 0.79538 0.0
N89 N 0.67678 0.38768 0.78906 0.0
N90 N 0.67517 0.31293 0.85584 0.0
C91 C 0.63416 0.36323 0.77059 0.0
C92 C 0.69738 0.36264 0.83191 0.0
C93 C 0.63282 0.28801 0.83796 0.0
C94 C 0.61162 0.38993 0.72359 0.0
C95 C 0.57325 0.35985 0.69917 0.0
C96 C 0.55197 0.38419 0.65473 0.0
C97 C 0.56815 0.43944 0.63368 0.0
C98 C 0.60624 0.46986 0.65816 0.0
C99 C 0.62794 0.44527 0.70254 0.0
C100 C 0.74378 0.38835 0.85264 0.0
C101 C 0.77465 0.43163 0.82209 0.0
C102 C 0.81926 0.45403 0.84146 0.0
C103 C 0.83362 0.43405 0.89199 0.0
C104 C 0.8024 0.39142 0.92282 0.0
C105 C 0.75815 0.36866 0.90328 0.0
C106 C 0.60953 0.23375 0.86501 0.0
C107 C 0.63726 0.20122 0.8989 0.0
C108 C 0.67158 0.56198 0.41134 0.0
C109 C 0.64428 0.52382 0.38258 0.0
C110 C 0.66456 0.5124 0.33288 0.0
C111 C 0.71144 0.53831 0.31259 0.0
H112 H 0.82905 0.52384 0.20613 0.0
H113 H 0.87367 0.4872 0.13379 0.0
H114 H 0.9961 0.61663 0.13865 0.0
H115 H 0.95145 0.65354 0.21127 0.0
H116 H 0.92858 0.76218 0.28903 0.0
H117 H 0.95198 0.84723 0.33221 0.0
H118 H 0.84577 0.78573 0.46424 0.0
H119 H 0.82321 0.70224 0.42252 0.0
H120 H 0.73811 0.61742 0.41428 0.0
H121 H 0.657 0.57164 0.44972 0.0
H122 H 0.64449 0.48295 0.30983 0.0
H123 H 0.72606 0.52855 0.27427 0.0
N124 N 0.81351 0.58718 0.27848 0.0
N125 N 0.87908 0.65878 0.28292 0.0
N126 N 0.8087 0.64947 0.34286 0.0
C127 C 0.85906 0.61353 0.25964 0.0
C128 C 0.8538 0.67675 0.3249 0.0
C129 C 0.78815 0.605 0.32013 0.0
C130 C 0.88652 0.59188 0.21482 0.0
C131 C 0.8655 0.54469 0.19196 0.0
C132 C 0.89117 0.52342 0.1504 0.0
C133 C 0.93856 0.54875 0.13041 0.0
C134 C 0.95965 0.59596 0.15309 0.0
C135 C 0.93398 0.61725 0.19478 0.0
C136 C 0.87342 0.7257 0.35177 0.0
C137 C 0.91088 0.76672 0.3276 0.0
C138 C 0.92419 0.81538 0.35224 0.0
C139 C 0.90008 0.82358 0.40121 0.0
C140 C 0.86445 0.78136 0.4261 0.0
C141 C 0.85148 0.73321 0.40194 0.0
C142 C 0.73873 0.57662 0.34134 0.0
C143 C 0.71813 0.58826 0.39087 0.0
C144 C 0.6847 0.92798 0.84608 0.0
C145 C 0.6645 0.91273 0.89855 0.0
C146 C 0.68667 0.87343 0.93149 0.0
C147 C 0.7287 0.85056 0.91255 0.0
H148 H 0.8194 0.7303 0.94864 0.0
H149 H 0.84543 0.64814 0.99694 0.0
H150 H 0.96522 0.64666 0.87704 0.0
H151 H 0.93913 0.72969 0.8281 0.0
H152 H 0.96177 0.86554 0.74563 0.0
H153 H 0.00119 0.91169 0.66045 0.0
H154 H 0.85558 0.93187 0.60328 0.0
H155 H 0.81658 0.88758 0.6883 0.0
H156 H 0.74147 0.9186 0.7867 0.0
H157 H 0.66841 0.95795 0.81955 0.0
H158 H 0.67182 0.86059 0.97206 0.0
H159 H 0.7452 0.82085 0.93916 0.0
N160 N 0.81508 0.80344 0.87006 0.0
N161 N 0.88122 0.80692 0.80517 0.0
N162 N 0.81897 0.86666 0.79329 0.0
C163 C 0.85774 0.784 0.85257 0.0
C164 C 0.8618 0.84825 0.77537 0.0
C165 C 0.79552 0.84484 0.84073 0.0
C166 C 0.87681 0.73657 0.88404 0.0
C167 C 0.8516 0.71304 0.93253 0.0
C168 C 0.8666 0.66576 0.96041 0.0
C169 C 0.90725 0.64064 0.94072 0.0
C170 C 0.93379 0.66514 0.89331 0.0
C171 C 0.91869 0.71264 0.8652 0.0
C172 C 0.88619 0.87314 0.7235 0.0
C173 C 0.93838 0.87981 0.7147 0.0
C174 C 0.96088 0.90655 0.66624 0.0
C175 C 0.93141 0.92558 0.62543 0.0
C176 C 0.87924 0.91771 0.63402 0.0
C177 C 0.85691 0.89241 0.68272 0.0
C178 C 0.74957 0.86675 0.86035 0.0
C179 C 0.72675 0.90537 0.82724 0.0
C180 C 0.59549 0.07454 0.15169 0.0
C181 C 0.56574 0.11354 0.12877 0.0
C182 C 0.56708 0.1662 0.14762 0.0
C183 C 0.59548 0.17863 0.19034 0.0
H184 H 0.56152 0.23838 0.33207 0.0
H185 H 0.52629 0.30461 0.38479 0.0
H186 H 0.65162 0.30379 0.48447 0.0
H187 H 0.68719 0.23719 0.43153 0.0
H188 H 0.75947 0.1392 0.4166 0.0
H189 H 0.83246 0.09408 0.44118 0.0
H190 H 0.84102 0.03112 0.28707 0.0
H191 H 0.76806 0.07595 0.26244 0.0
H192 H 0.64619 0.05609 0.212 0.0
H193 H 0.59547 0.03374 0.13763 0.0
H194 H 0.54477 0.19724 0.13069 0.0
H195 H 0.5945 0.21903 0.20503 0.0
N196 N 0.62941 0.18481 0.29623 0.0
N197 N 0.6919 0.17149 0.35552 0.0
N198 N 0.69017 0.12647 0.27717 0.0
C199 C 0.65031 0.19534 0.34234 0.0
C200 C 0.71215 0.13707 0.32304 0.0
C201 C 0.64892 0.15061 0.26351 0.0
C202 C 0.62763 0.23285 0.37711 0.0
C203 C 0.58161 0.25193 0.36539 0.0
C204 C 0.56113 0.28978 0.39584 0.0
C205 C 0.58621 0.30967 0.43867 0.0
C206 C 0.63138 0.28929 0.45161 0.0
C207 C 0.65185 0.25117 0.42121 0.0
C208 C 0.75753 0.11101 0.3376 0.0
C209 C 0.77697 0.11596 0.38779 0.0
C210 C 0.81892 0.09009 0.40193 0.0
C211 C 0.84256 0.05889 0.36613 0.0
C212 C 0.82374 0.05482 0.31562 0.0
C213 C 0.78169 0.08044 0.30157 0.0
C214 C 0.62384 0.13903 0.21458 0.0
C215 C 0.6247 0.08739 0.194 0.0
C216 C 0.195 0.54327 0.17432 0.0
C217 C 0.18071 0.56341 0.12381 0.0
C218 C 0.21203 0.60597 0.09303 0.0
C219 C 0.2563 0.62856 0.11261 0.0
H220 H 0.33753 0.78275 0.11197 0.0
H221 H 0.3753 0.87042 0.06461 0.0
H222 H 0.5148 0.84756 0.13566 0.0
H223 H 0.47667 0.75944 0.18378 0.0
H224 H 0.45482 0.67974 0.30162 0.0
H225 H 0.49225 0.63714 0.37832 0.0
H226 H 0.3957 0.48397 0.37205 0.0
H227 H 0.35762 0.52695 0.29482 0.0
H228 H 0.24946 0.5494 0.23291 0.0
H229 H 0.17174 0.51023 0.19891 0.0
H230 H 0.20215 0.62231 0.05395 0.0
H231 H 0.27934 0.66163 0.08781 0.0
N232 N 0.33887 0.6844 0.16038 0.0
N233 N 0.4018 0.6838 0.22061 0.0
N234 N 0.33772 0.60925 0.22665 0.0
C235 C 0.38116 0.70939 0.17828 0.0
C236 C 0.38031 0.63376 0.24513 0.0
C237 C 0.31692 0.63447 0.18404 0.0
C238 C 0.40417 0.76386 0.15145 0.0
C239 C 0.37625 0.79632 0.11769 0.0
C240 C 0.39787 0.84679 0.09063 0.0
C241 C 0.44811 0.86582 0.09617 0.0
C242 C 0.47601 0.83384 0.13042 0.0
C243 C 0.45414 0.78348 0.15809 0.0
C244 C 0.4031 0.60687 0.29187 0.0
C245 C 0.44148 0.63692 0.31628 0.0
C246 C 0.46297 0.61245 0.3605 0.0
C247 C 0.44701 0.55709 0.38134 0.0
C248 C 0.40891 0.52667 0.35685 0.0
C249 C 0.387 0.5514 0.31269 0.0
C250 C 0.27058 0.60877 0.16325 0.0
C251 C 0.23965 0.56551 0.19374 0.0
C252 C 0.17915 0.18117 0.63599 0.0
C253 C 0.12912 0.15832 0.63653 0.0
C254 C 0.09241 0.18402 0.66357 0.0
C255 C 0.10561 0.23286 0.68788 0.0
H256 H 0.06843 0.33973 0.81115 0.0
H257 H 0.02212 0.37774 0.88183 0.0
H258 H 0.13866 0.51515 0.87897 0.0
H259 H 0.18488 0.47747 0.80843 0.0
H260 H 0.2893 0.4744 0.74107 0.0
H261 H 0.36938 0.52186 0.7029 0.0
H262 H 0.36086 0.42194 0.57039 0.0
H263 H 0.28123 0.37419 0.60859 0.0
H264 H 0.23123 0.24601 0.65767 0.0
H265 H 0.20857 0.16225 0.61626 0.0
H266 H 0.05351 0.16716 0.66492 0.0
H267 H 0.07662 0.2528 0.70715 0.0
N268 N 0.14323 0.33219 0.74343 0.0
N269 N 0.20365 0.41043 0.74016 0.0
N270 N 0.21434 0.3406 0.68458 0.0
C271 C 0.15963 0.38201 0.76129 0.0
C272 C 0.23101 0.39003 0.70152 0.0
C273 C 0.17092 0.31119 0.70513 0.0
C274 C 0.13056 0.40529 0.80389 0.0
C275 C 0.0842 0.37809 0.82543 0.0
C276 C 0.05757 0.4 0.86601 0.0
C277 C 0.07664 0.44959 0.88616 0.0
C278 C 0.12277 0.47697 0.86441 0.0
C279 C 0.14933 0.45517 0.82383 0.0
C280 C 0.27887 0.42043 0.67802 0.0
C281 C 0.30443 0.46267 0.70376 0.0
C282 C 0.35046 0.48962 0.682 0.0
C283 C 0.37151 0.4754 0.63372 0.0
C284 C 0.34565 0.43375 0.60764 0.0
C285 C 0.30001 0.40635 0.62969 0.0
C286 C 0.15564 0.25674 0.68515 0.0
C287 C 0.19218 0.22953 0.65984 0.0
Zn288 Zn 0.06702 0.01966 0.5632 0.0
Zn289 Zn 0.9504 0.97861 0.45556 0.0
C290 C 0.11654 0.10902 0.60732 0.0
O291 O 0.15169 0.09013 0.57853 0.0
C292 C 0.90935 0.87617 0.4263 0.0
O293 O 0.87678 0.88766 0.46293 0.0
O294 O 0.11743 0.9681 0.58673 0.0
O295 O 0.99798 0.97833 0.56998 0.0
O296 O 0.92958 0.9498 0.53219 0.0
C297 C 0.1272 0.96062 0.63549 0.0
O298 O 0.10162 0.98395 0.67109 0.0
O299 O 0.07233 0.08469 0.60831 0.0
C300 C 0.88521 0.02876 0.38208 0.0
O301 O 0.90706 -0.00035 0.3484 0.0
O302 O 0.89893 0.02765 0.42957 0.0
O303 O 0.01899 0.02168 0.44941 0.0
O304 O 0.08712 0.05137 0.48724 0.0
O305 O 0.94777 0.91101 0.4134 0.0
C306 C 0.95431 0.9524 0.57351 0.0
C307 C 0.06225 0.04873 0.44597 0.0
Zn308 Zn 0.54537 0.9664 0.98917 0.0
Zn309 Zn 0.46778 0.03145 0.02757 0.0
C310 C 0.48271 0.89841 0.92899 0.0
O311 O 0.50511 0.85998 0.95567 0.0
C312 C 0.53145 0.09883 0.08738 0.0
O313 O 0.50944 0.13765 0.06078 0.0
O314 O 0.60427 0.92794 0.96704 0.0
O315 O 0.56878 0.04853 0.9777 0.0
O316 O 0.49481 0.06777 0.95496 0.0
C317 C 0.62096 0.93843 0.91866 0.0
O318 O 0.5994 0.97339 0.88672 0.0
O319 O 0.4934 0.94915 0.93685 0.0
C320 C 0.39281 0.05995 0.09877 0.0
O321 O 0.41451 0.02507 0.13066 0.0
O322 O 0.40915 0.07012 0.05025 0.0
O323 O 0.44427 0.94931 0.03885 0.0
O324 O 0.51825 0.93031 0.06176 0.0
O325 O 0.52005 0.04817 0.07966 0.0
C326 C 0.5419 0.07989 0.95142 0.0
C327 C 0.47119 0.91805 0.06521 0.0
Zn328 Zn 0.51776 0.44823 0.48078 0.0
Zn329 Zn 0.49803 0.5487 0.53407 0.0
C330 C 0.59553 0.49493 0.40478 0.0
O331 O 0.56754 0.46442 0.37511 0.0
C332 C 0.41987 0.50446 0.61059 0.0
O333 O 0.44775 0.53617 0.63934 0.0
O334 O 0.52816 0.37527 0.45306 0.0
O335 O 0.51598 0.43342 0.56082 0.0
O336 O 0.55506 0.51581 0.56979 0.0
C337 C 0.56756 0.35472 0.46676 0.0
O338 O 0.59511 0.37907 0.50111 0.0
O339 O 0.58115 0.49689 0.45335 0.0
C340 C 0.44978 0.64328 0.54727 0.0
O341 O 0.42219 0.6192 0.51278 0.0
O342 O 0.48882 0.62216 0.56129 0.0
O343 O 0.49933 0.56311 0.45402 0.0
O344 O 0.46054 0.48061 0.44494 0.0
O345 O 0.43437 0.50082 0.56235 0.0
C346 C 0.54554 0.46419 0.58599 0.0
C347 C 0.46981 0.53228 0.42888 0.0
Zn348 Zn 0.95444 0.48365 0.98521 0.0
Zn349 Zn 0.05996 0.51465 0.03047 0.0
C350 C 0.88086 0.45766 0.91234 0.0
O351 O 0.91328 0.49148 0.88048 0.0
C352 C 0.13345 0.54007 0.10339 0.0
O353 O 0.10086 0.50638 0.13517 0.0
O354 O 0.95617 0.56363 0.95241 0.0
O355 O 0.94671 0.48372 0.06565 0.0
O356 O 0.00613 0.55333 0.06481 0.0
C357 C 0.91868 0.58688 0.96772 0.0
O358 O 0.88662 0.55933 0.00453 0.0
O359 O 0.89045 0.44627 0.96082 0.0
C360 C 0.09602 0.41144 0.04828 0.0
O361 O 0.1287 0.43924 0.01223 0.0
O362 O 0.05816 0.43451 0.06286 0.0
O363 O 0.06744 0.51526 0.95004 0.0
O364 O 0.00864 0.44498 0.95133 0.0
O365 O 0.12398 0.55161 0.05489 0.0
C366 C 0.96545 0.52693 0.08551 0.0
C367 C 0.04914 0.4717 0.93048 0.0
loop_
_geom_bond_atom_site_label_1
_geom_bond_atom_site_label_2
_geom_bond_distance
_geom_bond_site_symmetry_2
_ccdc_geom_bond_type
C0 C1 1.384 . S
C0 H13 0.947 . S
C0 C35 1.382 . S
C1 C0 1.384 . S
C1 C2 1.378 . S
C2 C1 1.378 . S
C2 C3 1.378 . S
C2 H14 0.952 . S
C3 C2 1.378 . S
C3 H15 0.950 . S
C3 C34 1.383 . S
H4 C23 0.947 . S
H5 C24 0.946 . S
H6 C26 0.953 . S
H7 C27 0.945 . S
H8 C29 0.952 . S
H9 C30 0.949 . S
H10 C32 0.950 . S
H11 C33 0.948 . S
H12 C35 0.951 . S
H13 C0 0.947 . S
H14 C2 0.952 . S
H15 C3 0.950 . S
N16 C19 1.382 . S
N16 C21 1.363 . S
N17 C19 1.371 . S
N17 C20 1.372 . S
N18 C20 1.361 . S
N18 C21 1.377 . S
C19 N16 1.382 . S
C19 N17 1.371 . S
C19 C22 1.480 . S
C20 N17 1.372 . S
C20 N18 1.361 . S
C20 C28 1.457 . S
C21 N16 1.363 . S
C21 N18 1.377 . S
C21 C34 1.479 . S
C22 C19 1.480 . S
C22 C23 1.383 . S
C22 C27 1.385 . S
C23 H4 0.947 . S
C23 C22 1.383 . S
C23 C24 1.388 . S
C24 H5 0.946 . S
C24 C23 1.388 . S
C24 C25 1.384 . S
C25 C24 1.384 . S
C25 C26 1.377 . S
C26 H6 0.953 . S
C26 C25 1.377 . S
C26 C27 1.369 . S
C27 H7 0.945 . S
C27 C22 1.385 . S
C27 C26 1.369 . S
C28 C20 1.457 . S
C28 C29 1.372 . S
C28 C33 1.364 . S
C29 H8 0.952 . S
C29 C28 1.372 . S
C29 C30 1.389 . S
C30 H9 0.949 . S
C30 C29 1.389 . S
C30 C31 1.387 . S
C31 C30 1.387 . S
C31 C32 1.372 . S
C32 H10 0.950 . S
C32 C31 1.372 . S
C32 C33 1.379 . S
C33 H11 0.948 . S
C33 C28 1.364 . S
C33 C32 1.379 . S
C34 C3 1.383 . S
C34 C21 1.479 . S
C34 C35 1.398 . S
C35 C0 1.382 . S
C35 H12 0.951 . S
C35 C34 1.398 . S
C36 C37 1.384 . S
C36 H49 0.947 . S
C36 C71 1.382 . S
C37 C36 1.384 . S
C37 C38 1.378 . S
C38 C37 1.378 . S
C38 C39 1.378 . S
C38 H50 0.952 . S
C39 C38 1.378 . S
C39 H51 0.950 . S
C39 C70 1.383 . S
H40 C59 0.947 . S
H41 C60 0.946 . S
H42 C62 0.953 . S
H43 C63 0.945 . S
H44 C65 0.952 . S
H45 C66 0.949 . S
H46 C68 0.950 . S
H47 C69 0.948 . S
H48 C71 0.951 . S
H49 C36 0.947 . S
H50 C38 0.952 . S
H51 C39 0.950 . S
N52 C55 1.382 . S
N52 C57 1.363 . S
N53 C55 1.371 . S
N53 C56 1.372 . S
N54 C56 1.361 . S
N54 C57 1.377 . S
C55 N52 1.382 . S
C55 N53 1.371 . S
C55 C58 1.480 . S
C56 N53 1.372 . S
C56 N54 1.361 . S
C56 C64 1.457 . S
C57 N52 1.363 . S
C57 N54 1.377 . S
C57 C70 1.479 . S
C58 C55 1.480 . S
C58 C59 1.383 . S
C58 C63 1.385 . S
C59 H40 0.947 . S
C59 C58 1.383 . S
C59 C60 1.388 . S
C60 H41 0.946 . S
C60 C59 1.388 . S
C60 C61 1.384 . S
C61 C60 1.384 . S
C61 C62 1.377 . S
C62 H42 0.953 . S
C62 C61 1.377 . S
C62 C63 1.369 . S
C63 H43 0.945 . S
C63 C58 1.385 . S
C63 C62 1.369 . S
C64 C56 1.457 . S
C64 C65 1.372 . S
C64 C69 1.364 . S
C65 H44 0.952 . S
C65 C64 1.372 . S
C65 C66 1.389 . S
C66 H45 0.949 . S
C66 C65 1.389 . S
C66 C67 1.387 . S
C67 C66 1.387 . S
C67 C68 1.372 . S
C68 H46 0.950 . S
C68 C67 1.372 . S
C68 C69 1.379 . S
C69 H47 0.948 . S
C69 C64 1.364 . S
C69 C68 1.379 . S
C70 C39 1.383 . S
C70 C57 1.479 . S
C70 C71 1.398 . S
C71 C36 1.382 . S
C71 H48 0.951 . S
C71 C70 1.398 . S
C72 C73 1.384 . S
C72 H85 0.947 . S
C72 C107 1.382 . S
C73 C72 1.384 . S
C73 C74 1.378 . S
C74 C73 1.378 . S
C74 C75 1.378 . S
C74 H86 0.952 . S
C75 C74 1.378 . S
C75 H87 0.950 . S
C75 C106 1.383 . S
H76 C95 0.947 . S
H77 C96 0.946 . S
H78 C98 0.953 . S
H79 C99 0.945 . S
H80 C101 0.952 . S
H81 C102 0.949 . S
H82 C104 0.950 . S
H83 C105 0.948 . S
H84 C107 0.951 . S
H85 C72 0.947 . S
H86 C74 0.952 . S
H87 C75 0.950 . S
N88 C91 1.382 . S
N88 C93 1.363 . S
N89 C91 1.371 . S
N89 C92 1.372 . S
N90 C92 1.361 . S
N90 C93 1.377 . S
C91 N88 1.382 . S
C91 N89 1.371 . S
C91 C94 1.480 . S
C92 N89 1.372 . S
C92 N90 1.361 . S
C92 C100 1.457 . S
C93 N88 1.363 . S
C93 N90 1.377 . S
C93 C106 1.479 . S
C94 C91 1.480 . S
C94 C95 1.383 . S
C94 C99 1.385 . S
C95 H76 0.947 . S
C95 C94 1.383 . S
C95 C96 1.388 . S
C96 H77 0.946 . S
C96 C95 1.388 . S
C96 C97 1.384 . S
C97 C96 1.384 . S
C97 C98 1.377 . S
C98 H78 0.953 . S
C98 C97 1.377 . S
C98 C99 1.369 . S
C99 H79 0.945 . S
C99 C94 1.385 . S
C99 C98 1.369 . S
C100 C92 1.457 . S
C100 C101 1.372 . S
C100 C105 1.364 . S
C101 H80 0.952 . S
C101 C100 1.372 . S
C101 C102 1.389 . S
C102 H81 0.949 . S
C102 C101 1.389 . S
C102 C103 1.387 . S
C103 C102 1.387 . S
C103 C104 1.372 . S
C104 H82 0.950 . S
C104 C103 1.372 . S
C104 C105 1.379 . S
C105 H83 0.948 . S
C105 C100 1.364 . S
C105 C104 1.379 . S
C106 C75 1.383 . S
C106 C93 1.479 . S
C106 C107 1.398 . S
C107 C72 1.382 . S
C107 H84 0.951 . S
C107 C106 1.398 . S
C108 C109 1.384 . S
C108 H121 0.947 . S
C108 C143 1.382 . S
C109 C108 1.384 . S
C109 C110 1.378 . S
C110 C109 1.378 . S
C110 C111 1.378 . S
C110 H122 0.952 . S
C111 C110 1.378 . S
C111 H123 0.950 . S
C111 C142 1.383 . S
H112 C131 0.947 . S
H113 C132 0.946 . S
H114 C134 0.953 . S
H115 C135 0.945 . S
H116 C137 0.952 . S
H117 C138 0.949 . S
H118 C140 0.950 . S
H119 C141 0.948 . S
H120 C143 0.951 . S
H121 C108 0.947 . S
H122 C110 0.952 . S
H123 C111 0.950 . S
N124 C127 1.382 . S
N124 C129 1.363 . S
N125 C127 1.371 . S
N125 C128 1.372 . S
N126 C128 1.361 . S
N126 C129 1.377 . S
C127 N124 1.382 . S
C127 N125 1.371 . S
C127 C130 1.480 . S
C128 N125 1.372 . S
C128 N126 1.361 . S
C128 C136 1.457 . S
C129 N124 1.363 . S
C129 N126 1.377 . S
C129 C142 1.479 . S
C130 C127 1.480 . S
C130 C131 1.383 . S
C130 C135 1.385 . S
C131 H112 0.947 . S
C131 C130 1.383 . S
C131 C132 1.388 . S
C132 H113 0.946 . S
C132 C131 1.388 . S
C132 C133 1.384 . S
C133 C132 1.384 . S
C133 C134 1.377 . S
C134 H114 0.953 . S
C134 C133 1.377 . S
C134 C135 1.369 . S
C135 H115 0.945 . S
C135 C130 1.385 . S
C135 C134 1.369 . S
C136 C128 1.457 . S
C136 C137 1.372 . S
C136 C141 1.364 . S
C137 H116 0.952 . S
C137 C136 1.372 . S
C137 C138 1.389 . S
C138 H117 0.949 . S
C138 C137 1.389 . S
C138 C139 1.387 . S
C139 C138 1.387 . S
C139 C140 1.372 . S
C140 H118 0.950 . S
C140 C139 1.372 . S
C140 C141 1.379 . S
C141 H119 0.948 . S
C141 C136 1.364 . S
C141 C140 1.379 . S
C142 C111 1.383 . S
C142 C129 1.479 . S
C142 C143 1.398 . S
C143 C108 1.382 . S
C143 H120 0.951 . S
C143 C142 1.398 . S
C144 C145 1.384 . S
C144 H157 0.947 . S
C144 C179 1.382 . S
C145 C144 1.384 . S
C145 C146 1.378 . S
C146 C145 1.378 . S
C146 C147 1.378 . S
C146 H158 0.952 . S
C147 C146 1.378 . S
C147 H159 0.950 . S
C147 C178 1.383 . S
H148 C167 0.947 . S
H149 C168 0.946 . S
H150 C170 0.953 . S
H151 C171 0.945 . S
H152 C173 0.952 . S
H153 C174 0.949 . S
H154 C176 0.950 . S
H155 C177 0.948 . S
H156 C179 0.951 . S
H157 C144 0.947 . S
H158 C146 0.952 . S
H159 C147 0.950 . S
N160 C163 1.382 . S
N160 C165 1.363 . S
N161 C163 1.371 . S
N161 C164 1.372 . S
N162 C164 1.361 . S
N162 C165 1.377 . S
C163 N160 1.382 . S
C163 N161 1.371 . S
C163 C166 1.480 . S
C164 N161 1.372 . S
C164 N162 1.361 . S
C164 C172 1.457 . S
C165 N160 1.363 . S
C165 N162 1.377 . S
C165 C178 1.479 . S
C166 C163 1.480 . S
C166 C167 1.383 . S
C166 C171 1.385 . S
C167 H148 0.947 . S
C167 C166 1.383 . S
C167 C168 1.388 . S
C168 H149 0.946 . S
C168 C167 1.388 . S
C168 C169 1.384 . S
C169 C168 1.384 . S
C169 C170 1.377 . S
C170 H150 0.953 . S
C170 C169 1.377 . S
C170 C171 1.369 . S
C171 H151 0.945 . S
C171 C166 1.385 . S
C171 C170 1.369 . S
C172 C164 1.457 . S
C172 C173 1.372 . S
C172 C177 1.364 . S
C173 H152 0.952 . S
C173 C172 1.372 . S
C173 C174 1.389 . S
C174 H153 0.949 . S
C174 C173 1.389 . S
C174 C175 1.387 . S
C175 C174 1.387 . S
C175 C176 1.372 . S
C176 H154 0.950 . S
C176 C175 1.372 . S
C176 C177 1.379 . S
C177 H155 0.948 . S
C177 C172 1.364 . S
C177 C176 1.379 . S
C178 C147 1.383 . S
C178 C165 1.479 . S
C178 C179 1.398 . S
C179 C144 1.382 . S
C179 H156 0.951 . S
C179 C178 1.398 . S
C180 C181 1.384 . S
C180 H193 0.947 . S
C180 C215 1.382 . S
C181 C180 1.384 . S
C181 C182 1.378 . S
C182 C181 1.378 . S
C182 C183 1.378 . S
C182 H194 0.952 . S
C183 C182 1.378 . S
C183 H195 0.950 . S
C183 C214 1.383 . S
H184 C203 0.947 . S
H185 C204 0.946 . S
H186 C206 0.953 . S
H187 C207 0.945 . S
H188 C209 0.952 . S
H189 C210 0.949 . S
H190 C212 0.950 . S
H191 C213 0.948 . S
H192 C215 0.951 . S
H193 C180 0.947 . S
H194 C182 0.952 . S
H195 C183 0.950 . S
N196 C199 1.382 . S
N196 C201 1.363 . S
N197 C199 1.371 . S
N197 C200 1.372 . S
N198 C200 1.361 . S
N198 C201 1.377 . S
C199 N196 1.382 . S
C199 N197 1.371 . S
C199 C202 1.480 . S
C200 N197 1.372 . S
C200 N198 1.361 . S
C200 C208 1.457 . S
C201 N196 1.363 . S
C201 N198 1.377 . S
C201 C214 1.479 . S
C202 C199 1.480 . S
C202 C203 1.383 . S
C202 C207 1.385 . S
C203 H184 0.947 . S
C203 C202 1.383 . S
C203 C204 1.388 . S
C204 H185 0.946 . S
C204 C203 1.388 . S
C204 C205 1.384 . S
C205 C204 1.384 . S
C205 C206 1.377 . S
C206 H186 0.953 . S
C206 C205 1.377 . S
C206 C207 1.369 . S
C207 H187 0.945 . S
C207 C202 1.385 . S
C207 C206 1.369 . S
C208 C200 1.457 . S
C208 C209 1.372 . S
C208 C213 1.364 . S
C209 H188 0.952 . S
C209 C208 1.372 . S
C209 C210 1.389 . S
C210 H189 0.949 . S
C210 C209 1.389 . S
C210 C211 1.387 . S
C211 C210 1.387 . S
C211 C212 1.372 . S
C212 H190 0.950 . S
C212 C211 1.372 . S
C212 C213 1.379 . S
C213 H191 0.948 . S
C213 C208 1.364 . S
C213 C212 1.379 . S
C214 C183 1.383 . S
C214 C201 1.479 . S
C214 C215 1.398 . S
C215 C180 1.382 . S
C215 H192 0.951 . S
C215 C214 1.398 . S
C216 C217 1.384 . S
C216 H229 0.947 . S
C216 C251 1.382 . S
C217 C216 1.384 . S
C217 C218 1.378 . S
C218 C217 1.378 . S
C218 C219 1.378 . S
C218 H230 0.952 . S
C219 C218 1.378 . S
C219 H231 0.950 . S
C219 C250 1.383 . S
H220 C239 0.947 . S
H221 C240 0.946 . S
H222 C242 0.953 . S
H223 C243 0.945 . S
H224 C245 0.952 . S
H225 C246 0.949 . S
H226 C248 0.950 . S
H227 C249 0.948 . S
H228 C251 0.951 . S
H229 C216 0.947 . S
H230 C218 0.952 . S
H231 C219 0.950 . S
N232 C235 1.382 . S
N232 C237 1.363 . S
N233 C235 1.371 . S
N233 C236 1.372 . S
N234 C236 1.361 . S
N234 C237 1.377 . S
C235 N232 1.382 . S
C235 N233 1.371 . S
C235 C238 1.480 . S
C236 N233 1.372 . S
C236 N234 1.361 . S
C236 C244 1.457 . S
C237 N232 1.363 . S
C237 N234 1.377 . S
C237 C250 1.479 . S
C238 C235 1.480 . S
C238 C239 1.383 . S
C238 C243 1.385 . S
C239 H220 0.947 . S
C239 C238 1.383 . S
C239 C240 1.388 . S
C240 H221 0.946 . S
C240 C239 1.388 . S
C240 C241 1.384 . S
C241 C240 1.384 . S
C241 C242 1.377 . S
C242 H222 0.953 . S
C242 C241 1.377 . S
C242 C243 1.369 . S
C243 H223 0.945 . S
C243 C238 1.385 . S
C243 C242 1.369 . S
C244 C236 1.457 . S
C244 C245 1.372 . S
C244 C249 1.364 . S
C245 H224 0.952 . S
C245 C244 1.372 . S
C245 C246 1.389 . S
C246 H225 0.949 . S
C246 C245 1.389 . S
C246 C247 1.387 . S
C247 C246 1.387 . S
C247 C248 1.372 . S
C248 H226 0.950 . S
C248 C247 1.372 . S
C248 C249 1.379 . S
C249 H227 0.948 . S
C249 C244 1.364 . S
C249 C248 1.379 . S
C250 C219 1.383 . S
C250 C237 1.479 . S
C250 C251 1.398 . S
C251 C216 1.382 . S
C251 H228 0.951 . S
C251 C250 1.398 . S
C252 C253 1.384 . S
C252 H265 0.947 . S
C252 C287 1.382 . S
C253 C252 1.384 . S
C253 C254 1.378 . S
C254 C253 1.378 . S
C254 C255 1.378 . S
C254 H266 0.952 . S
C255 C254 1.378 . S
C255 H267 0.950 . S
C255 C286 1.383 . S
H256 C275 0.947 . S
H257 C276 0.946 . S
H258 C278 0.953 . S
H259 C279 0.945 . S
H260 C281 0.952 . S
H261 C282 0.949 . S
H262 C284 0.950 . S
H263 C285 0.948 . S
H264 C287 0.951 . S
H265 C252 0.947 . S
H266 C254 0.952 . S
H267 C255 0.950 . S
N268 C271 1.382 . S
N268 C273 1.363 . S
N269 C271 1.371 . S
N269 C272 1.372 . S
N270 C272 1.361 . S
N270 C273 1.377 . S
C271 N268 1.382 . S
C271 N269 1.371 . S
C271 C274 1.480 . S
C272 N269 1.372 . S
C272 N270 1.361 . S
C272 C280 1.457 . S
C273 N268 1.363 . S
C273 N270 1.377 . S
C273 C286 1.479 . S
C274 C271 1.480 . S
C274 C275 1.383 . S
C274 C279 1.385 . S
C275 H256 0.947 . S
C275 C274 1.383 . S
C275 C276 1.388 . S
C276 H257 0.946 . S
C276 C275 1.388 . S
C276 C277 1.384 . S
C277 C276 1.384 . S
C277 C278 1.377 . S
C278 H258 0.953 . S
C278 C277 1.377 . S
C278 C279 1.369 . S
C279 H259 0.945 . S
C279 C274 1.385 . S
C279 C278 1.369 . S
C280 C272 1.457 . S
C280 C281 1.372 . S
C280 C285 1.364 . S
C281 H260 0.952 . S
C281 C280 1.372 . S
C281 C282 1.389 . S
C282 H261 0.949 . S
C282 C281 1.389 . S
C282 C283 1.387 . S
C283 C282 1.387 . S
C283 C284 1.372 . S
C284 H262 0.950 . S
C284 C283 1.372 . S
C284 C285 1.379 . S
C285 H263 0.948 . S
C285 C280 1.364 . S
C285 C284 1.379 . S
C286 C255 1.383 . S
C286 C273 1.479 . S
C286 C287 1.398 . S
C287 C252 1.382 . S
C287 H264 0.951 . S
C287 C286 1.398 . S
Zn288 O294 1.969 1_545 S
Zn288 O295 1.965 1_545 S
Zn288 O299 2.024 . S
Zn288 O304 1.969 . S
Zn289 O296 1.969 . S
Zn289 O302 1.969 1_565 S
Zn289 O303 1.965 1_665 S
Zn289 O305 2.024 . S
C290 O291 1.229 . S
C290 O299 1.058 . S
O291 C290 1.229 . S
C292 O293 1.229 . S
C292 O305 1.058 . S
O293 C292 1.229 . S
O294 Zn288 1.969 1_565 S
O294 C297 1.267 . S
O295 Zn288 1.965 1_565 S
O295 C306 1.260 1_455 S
O296 Zn289 1.969 . S
O296 C306 1.258 . S
C297 O294 1.267 . S
C297 O298 1.228 . S
O298 C297 1.228 . S
O299 Zn288 2.024 . S
O299 C290 1.058 . S
C300 O301 1.228 . S
C300 O302 1.267 . S
O301 C300 1.228 . S
O302 Zn289 1.969 1_545 S
O302 C300 1.267 . S
O303 Zn289 1.965 1_445 S
O303 C307 1.260 . S
O304 Zn288 1.969 . S
O304 C307 1.258 . S
O305 Zn289 2.024 . S
O305 C292 1.058 . S
C306 O295 1.260 1_655 S
C306 O296 1.258 . S
C307 O303 1.260 . S
C307 O304 1.258 . S
Zn308 O314 1.969 . S
Zn308 O315 1.965 1_565 S
Zn308 O319 2.024 . S
Zn308 O324 1.969 1_556 S
Zn309 O316 1.969 . S
Zn309 O322 1.969 . S
Zn309 O323 1.965 1_545 S
Zn309 O325 2.024 . S
C310 O311 1.229 . S
C310 O319 1.058 . S
O311 C310 1.229 . S
C312 O313 1.229 . S
C312 O325 1.058 . S
O313 C312 1.229 . S
O314 Zn308 1.969 . S
O314 C317 1.267 . S
O315 Zn308 1.965 1_545 S
O315 C326 1.260 . S
O316 Zn309 1.969 . S
O316 C326 1.258 1_554 S
C317 O314 1.267 . S
C317 O318 1.228 . S
O318 C317 1.228 . S
O319 Zn308 2.024 . S
O319 C310 1.058 . S
C320 O321 1.228 . S
C320 O322 1.267 . S
O321 C320 1.228 . S
O322 Zn309 1.969 . S
O322 C320 1.267 . S
O323 Zn309 1.965 1_565 S
O323 C327 1.260 . S
O324 Zn308 1.969 1_554 S
O324 C327 1.258 . S
O325 Zn309 2.024 . S
O325 C312 1.058 . S
C326 O315 1.260 . S
C326 O316 1.258 1_556 S
C327 O323 1.260 . S
C327 O324 1.258 . S
Zn328 O334 1.969 . S
Zn328 O335 1.965 . S
Zn328 O339 2.024 . S
Zn328 O344 1.969 . S
Zn329 O336 1.969 . S
Zn329 O342 1.969 . S
Zn329 O343 1.965 . S
Zn329 O345 2.024 . S
C330 O331 1.229 . S
C330 O339 1.058 . S
O331 C330 1.229 . S
C332 O333 1.229 . S
C332 O345 1.058 . S
O333 C332 1.229 . S
O334 Zn328 1.969 . S
O334 C337 1.267 . S
O335 Zn328 1.965 . S
O335 C346 1.260 . S
O336 Zn329 1.969 . S
O336 C346 1.258 . S
C337 O334 1.267 . S
C337 O338 1.228 . S
O338 C337 1.228 . S
O339 Zn328 2.024 . S
O339 C330 1.058 . S
C340 O341 1.228 . S
C340 O342 1.267 . S
O341 C340 1.228 . S
O342 Zn329 1.969 . S
O342 C340 1.267 . S
O343 Zn329 1.965 . S
O343 C347 1.260 . S
O344 Zn328 1.969 . S
O344 C347 1.258 . S
O345 Zn329 2.024 . S
O345 C332 1.058 . S
C346 O335 1.260 . S
C346 O336 1.258 . S
C347 O343 1.260 . S
C347 O344 1.258 . S
Zn348 O354 1.969 . S
Zn348 O355 1.965 1_556 S
Zn348 O359 2.024 . S
Zn348 O364 1.969 1_655 S
Zn349 O356 1.969 . S
Zn349 O362 1.969 . S
Zn349 O363 1.965 1_554 S
Zn349 O365 2.024 . S
C350 O351 1.229 . S
C350 O359 1.058 . S
O351 C350 1.229 . S
C352 O353 1.229 . S
C352 O365 1.058 . S
O353 C352 1.229 . S
O354 Zn348 1.969 . S
O354 C357 1.267 . S
O355 Zn348 1.965 1_554 S
O355 C366 1.260 . S
O356 Zn349 1.969 . S
O356 C366 1.258 1_455 S
C357 O354 1.267 . S
C357 O358 1.228 . S
O358 C357 1.228 . S
O359 Zn348 2.024 . S
O359 C350 1.058 . S
C360 O361 1.228 . S
C360 O362 1.267 . S
O361 C360 1.228 . S
O362 Zn349 1.969 . S
O362 C360 1.267 . S
O363 Zn349 1.965 1_556 S
O363 C367 1.260 . S
O364 Zn348 1.969 1_455 S
O364 C367 1.258 . S
O365 Zn349 2.024 . S
O365 C352 1.058 . S
C366 O355 1.260 . S
C366 O356 1.258 1_655 S
C367 O363 1.260 . S
C367 O364 1.258 . S
C1 C307 1.840 . S
C67 C310 1.409 . S
C346 C97 2.226 . S
C133 C366 2.020 . S
C320 C25 1.755 . S
C297 C37 1.479 . S
C350 C103 1.836 . S
C330 C109 1.613 . S
C31 C360 1.382 . S
C326 C73 1.955 . S
C139 C292 2.012 . S
C61 C340 1.106 . S
C306 C175 1.724 . S
C181 C312 1.323 . S
C247 C347 2.200 . S
C277 C367 2.011 . S
C145 C317 1.691 . S
C300 C211 1.467 . S
C352 C217 1.766 . S
C332 C283 1.594 . S
C169 C357 1.248 . S
C327 C241 1.950 . S
C290 C253 2.019 . S
C205 C337 1.087 . S
