# Generated by pormake.
# Topology anh, (6,3)-cn, num edge types: 1
# Building blocks:
#     Node 0, Type 0, BuildingBlock: VOLQOD_clean_sbu_1, # of connection points: 6
#     Node 1, Type 0, BuildingBlock: VOLQOD_clean_sbu_1, # of connection points: 6
#     Node 2, Type 0, BuildingBlock: VOLQOD_clean_sbu_1, # of connection points: 6
#     Node 3, Type 1, BuildingBlock: VETTIZ_charged_linker_0, # of connection points: 3
#     Node 4, Type 1, BuildingBlock: VETTIZ_charged_linker_0, # of connection points: 3
#     Node 5, Type 1, BuildingBlock: VETTIZ_charged_linker_0, # of connection points: 3
#     Node 6, Type 1, BuildingBlock: VETTIZ_charged_linker_0, # of connection points: 3
#     Node 7, Type 1, BuildingBlock: VETTIZ_charged_linker_0, # of connection points: 3
#     Node 8, Type 1, BuildingBlock: VETTIZ_charged_linker_0, # of connection points: 3
#     Edge 9, Type (0, 1), BuildingBlock: EZIPEK_clean_linker_0, # of connection points: 2
#     Edge 10, Type (0, 1), BuildingBlock: EZIPEK_clean_linker_0, # of connection points: 2
#     Edge 11, Type (0, 1), BuildingBlock: EZIPEK_clean_linker_0, # of connection points: 2
#     Edge 12, Type (0, 1), BuildingBlock: EZIPEK_clean_linker_0, # of connection points: 2
#     Edge 13, Type (0, 1), BuildingBlock: EZIPEK_clean_linker_0, # of connection points: 2
#     Edge 14, Type (0, 1), BuildingBlock: EZIPEK_clean_linker_0, # of connection points: 2
#     Edge 15, Type (0, 1), BuildingBlock: EZIPEK_clean_linker_0, # of connection points: 2
#     Edge 16, Type (0, 1), BuildingBlock: EZIPEK_clean_linker_0, # of connection points: 2
#     Edge 17, Type (0, 1), BuildingBlock: EZIPEK_clean_linker_0, # of connection points: 2
#     Edge 18, Type (0, 1), BuildingBlock: EZIPEK_clean_linker_0, # of connection points: 2
#     Edge 19, Type (0, 1), BuildingBlock: EZIPEK_clean_linker_0, # of connection points: 2
#     Edge 20, Type (0, 1), BuildingBlock: EZIPEK_clean_linker_0, # of connection points: 2
#     Edge 21, Type (0, 1), BuildingBlock: EZIPEK_clean_linker_0, # of connection points: 2
#     Edge 22, Type (0, 1), BuildingBlock: EZIPEK_clean_linker_0, # of connection points: 2
#     Edge 23, Type (0, 1), BuildingBlock: EZIPEK_clean_linker_0, # of connection points: 2
#     Edge 24, Type (0, 1), BuildingBlock: EZIPEK_clean_linker_0, # of connection points: 2
#     Edge 25, Type (0, 1), BuildingBlock: EZIPEK_clean_linker_0, # of connection points: 2
#     Edge 26, Type (0, 1), BuildingBlock: EZIPEK_clean_linker_0, # of connection points: 2
# Relax obj value: 0.169
# Max RMSD: 0.231
# Mean RMSD: 0.116
data_MOF--net-anh--node1-VOLQOD_clean_sbu_1--node2-VETTIZ_charged_linker_0--edge1-EZIPEK_clean_linker_0
_symmetry_space_group_name_H-M    P1
_symmetry_Int_Tables_number       1
_symmetry_cell_setting            triclinic
loop_
_symmetry_equiv_pos_as_xyz
'x, y, z'
_cell_length_a     27.014932
_cell_length_b     26.950109
_cell_length_c     58.543233
_cell_angle_alpha  90.107454
_cell_angle_beta   89.766558
_cell_angle_gamma 119.94073
loop_
_atom_site_label
_atom_site_type_symbol
_atom_site_fract_x
_atom_site_fract_y
_atom_site_fract_z
_atom_type_partial_charge
O0 O -0.00277 0.56395 0.20582 0.0
Zn1 Zn 0.00738 0.56764 0.17143 0.0
O2 O 0.02214 0.50681 0.16154 0.0
Zn3 Zn 0.96658 0.45947 0.13892 0.0
Zn4 Zn 0.01932 0.4593 0.18683 0.0
Zn5 Zn 0.09711 0.5413 0.14829 0.0
O6 O 0.00171 0.47489 0.1075 0.0
O7 O 0.09288 0.53898 0.11406 0.0
O8 O 0.93706 0.56115 0.15649 0.0
O9 O 0.90522 0.4799 0.13726 0.0
O10 O 0.92499 0.37628 0.14744 0.0
O11 O 0.94901 0.38289 0.18412 0.0
O12 O 0.08709 0.44658 0.1874 0.0
O13 O 0.07471 0.6457 0.16466 0.0
O14 O 0.139 0.50193 0.15856 0.0
O15 O 0.14182 0.62295 0.15786 0.0
C16 C 0.00304 0.53374 0.22118 0.0
C17 C 0.05193 0.50985 0.10037 0.0
C18 C 0.9186 0.3544 0.16723 0.0
C19 C 0.89951 0.52163 0.14401 0.0
C20 C 0.13059 0.46617 0.17433 0.0
C21 C 0.12699 0.65997 0.16225 0.0
O22 O 0.01397 0.49412 0.2163 0.0
O23 O 0.46851 0.00361 0.4451 0.0
Zn24 Zn 0.44525 0.00472 0.47759 0.0
O25 O 0.5006 0.00296 0.49851 0.0
Zn26 Zn 0.53763 0.07267 0.5162 0.0
Zn27 Zn 0.55934 -0.00425 0.48141 0.0
Zn28 Zn 0.46054 0.93979 0.51967 0.0
O29 O 0.5313 0.05848 0.54992 0.0
O30 O 0.46736 0.96574 0.5522 0.0
O31 O 0.43599 0.07384 0.48294 0.0
O32 O 0.50082 0.11897 0.51007 0.0
O33 O 0.6196 0.12088 0.50761 0.0
O34 O 0.63635 0.06807 0.48354 0.0
O35 O 0.56568 0.92806 0.49247 0.0
O36 O 0.36865 0.9337 0.48095 0.0
O37 O 0.4953 0.89007 0.51816 0.0
O38 O 0.37781 0.89035 0.51159 0.0
C39 C 0.50467 0.99224 0.43608 0.0
C40 C 0.49939 0.01394 0.56158 0.0
C41 C 0.65404 0.11422 0.49488 0.0
C42 C 0.4618 0.11514 0.49692 0.0
C43 C 0.53611 0.89001 0.50729 0.0
C44 C 0.34817 0.89268 0.49524 0.0
O45 O 0.54001 0.98517 0.44799 0.0
O46 O 0.46513 0.45372 0.78033 0.0
Zn47 Zn 0.42552 0.43421 0.81104 0.0
O48 O 0.47614 0.48838 0.83443 0.0
Zn49 Zn 0.43975 0.52575 0.84937 0.0
Zn50 Zn 0.54825 0.54718 0.82081 0.0
Zn51 Zn 0.4909 0.44676 0.85774 0.0
O52 O 0.43125 0.51384 0.88332 0.0
O53 O 0.46943 0.45877 0.88918 0.0
O54 O 0.35186 0.43651 0.80827 0.0
O55 O 0.36334 0.49757 0.83619 0.0
O56 O 0.48236 0.6095 0.84379 0.0
O57 O 0.55731 0.6266 0.823 0.0
O58 O 0.61595 0.54772 0.83552 0.0
O59 O 0.40551 0.35273 0.81873 0.0
O60 O 0.57329 0.47176 0.85838 0.0
O61 O 0.44964 0.36322 0.85148 0.0
C62 C 0.51491 0.49181 0.77387 0.0
C63 C 0.44604 0.48644 0.89666 0.0
C64 C 0.52799 0.64471 0.83351 0.0
C65 C 0.334 0.46403 0.82018 0.0
C66 C 0.61799 0.51265 0.84949 0.0
C67 C 0.41713 0.33103 0.8358 0.0
O68 O 0.5506 0.52904 0.78763 0.0
C69 C 0.67348 0.11766 0.19291 0.0
C70 C 0.72523 0.15546 0.20355 0.0
C71 C 0.73111 0.15223 0.22725 0.0
C72 C 0.63228 0.07731 0.22988 0.0
C73 C 0.6273 0.0796 0.20644 0.0
C74 C 0.56723 0.04124 0.19835 0.0
H75 H 0.30212 0.82555 0.22132 0.0
C76 C 0.57568 0.03583 0.23909 0.0
C77 C 0.53742 0.01441 0.22073 0.0
H78 H 0.36512 0.91646 0.15755 0.0
H79 H 0.4556 0.98146 0.17543 0.0
H80 H 0.41698 0.83094 0.24138 0.0
H81 H 0.34161 0.9377 0.24824 0.0
H82 H 0.3809 0.94877 0.27339 0.0
H83 H 0.32207 0.87826 0.26699 0.0
H84 H 0.35019 0.81032 0.25543 0.0
H85 H 0.41671 0.84804 0.27054 0.0
C86 C 0.56768 -0.00333 0.18179 0.0
C87 C 0.54477 0.07889 0.18762 0.0
C88 C 0.54751 0.00285 0.32459 0.0
C89 C 0.49905 0.96868 0.33796 0.0
C90 C 0.44713 0.93045 0.32734 0.0
C91 C 0.44307 0.92741 0.30349 0.0
C92 C 0.49136 0.96336 0.29023 0.0
C93 C 0.54261 -0.00021 0.3008 0.0
C94 C 0.58887 0.03596 0.28398 0.0
C95 C 0.55643 0.01644 0.26164 0.0
C96 C 0.49955 0.97383 0.26543 0.0
C97 C 0.63624 0.01966 0.28563 0.0
C98 C 0.60919 0.09977 0.28909 0.0
C99 C 0.3356 0.85943 0.21122 0.0
C100 C 0.32784 0.86475 0.18783 0.0
C101 C 0.37117 0.91078 0.17543 0.0
C102 C 0.4234 0.94827 0.18584 0.0
C103 C 0.43132 0.94078 0.20904 0.0
C104 C 0.38688 0.89856 0.22155 0.0
C105 C 0.4 0.90196 0.24661 0.0
C106 C 0.46126 0.95079 0.24681 0.0
C107 C 0.47969 0.97231 0.22471 0.0
C108 C 0.39555 0.8448 0.25407 0.0
C109 C 0.35905 0.9171 0.25962 0.0
H110 H 0.69155 0.11324 0.25855 0.0
H111 H 0.66815 0.12044 0.17471 0.0
H112 H 0.56863 0.12378 0.19395 0.0
H113 H 0.49972 0.06396 0.1923 0.0
H114 H 0.54894 0.08038 0.16872 0.0
H115 H 0.59161 0.97706 0.18936 0.0
H116 H 0.58879 0.01719 0.1654 0.0
H117 H 0.52463 0.96094 0.17795 0.0
H118 H 0.58777 0.03259 0.33253 0.0
H119 H 0.40954 0.90377 0.33756 0.0
H120 H 0.40237 0.89779 0.2963 0.0
H121 H 0.61769 0.97331 0.28952 0.0
H122 H 0.6671 0.04415 0.29939 0.0
H123 H 0.65972 0.02607 0.26941 0.0
H124 H 0.57282 0.10524 0.29475 0.0
H125 H 0.62675 0.12761 0.27394 0.0
H126 H 0.64165 0.11648 0.30288 0.0
H127 H 0.77099 0.18147 0.23557 0.0
C128 C 0.68493 0.11298 0.2405 0.0
C129 C 0.53347 0.64965 0.53478 0.0
C130 C 0.54553 0.7009 0.5456 0.0
C131 C 0.55158 0.70549 0.5695 0.0
C132 C 0.5307 0.60719 0.57161 0.0
C133 C 0.52484 0.60306 0.54813 0.0
C134 C 0.5047 0.54346 0.53961 0.0
H135 H 0.4543 0.27643 0.55973 0.0
C136 C 0.51699 0.55047 0.58042 0.0
C137 C 0.50087 0.51279 0.56182 0.0
H138 H 0.44034 0.34879 0.49601 0.0
H139 H 0.45903 0.43563 0.51545 0.0
H140 H 0.5634 0.38996 0.58019 0.0
H141 H 0.38228 0.32133 0.58916 0.0
H142 H 0.41499 0.35338 0.61513 0.0
H143 H 0.42009 0.29307 0.60451 0.0
H144 H 0.51727 0.3229 0.59408 0.0
H145 H 0.54772 0.38921 0.60954 0.0
C146 C 0.55132 0.54578 0.52344 0.0
C147 C 0.44524 0.52062 0.52835 0.0
C148 C 0.54541 0.52695 0.66442 0.0
C149 C 0.54209 0.48168 0.67783 0.0
C150 C 0.51752 0.42706 0.66715 0.0
C151 C 0.50493 0.41999 0.64372 0.0
C152 C 0.51457 0.46734 0.63055 0.0
C153 C 0.53328 0.5194 0.64108 0.0
C154 C 0.53787 0.56461 0.62481 0.0
C155 C 0.5196 0.53113 0.60265 0.0
C156 C 0.50589 0.47409 0.60608 0.0
C157 C 0.60119 0.61296 0.62412 0.0
C158 C 0.49538 0.5843 0.63254 0.0
C159 C 0.45468 0.31102 0.55017 0.0
C160 C 0.44699 0.30697 0.5264 0.0
C161 C 0.4467 0.35182 0.51433 0.0
C162 C 0.45793 0.40212 0.52564 0.0
C163 C 0.46911 0.40721 0.54923 0.0
C164 C 0.46544 0.36144 0.56127 0.0
C165 C 0.47632 0.37408 0.58641 0.0
C166 C 0.48932 0.43579 0.58725 0.0
C167 C 0.48578 0.45493 0.56535 0.0
C168 C 0.52874 0.36858 0.59311 0.0
C169 C 0.4209 0.33329 0.59965 0.0
H170 H 0.5489 0.66468 0.60074 0.0
H171 H 0.52769 0.64507 0.51644 0.0
H172 H 0.42303 0.54322 0.53487 0.0
H173 H 0.41558 0.47495 0.53234 0.0
H174 H 0.44905 0.52636 0.50952 0.0
H175 H 0.59451 0.57283 0.53092 0.0
H176 H 0.5505 0.56457 0.50667 0.0
H177 H 0.54744 0.5036 0.52045 0.0
H178 H 0.55558 0.56779 0.67158 0.0
H179 H 0.50586 0.38855 0.67668 0.0
H180 H 0.48766 0.37767 0.6368 0.0
H181 H 0.63009 0.59464 0.62368 0.0
H182 H 0.6121 0.64063 0.6395 0.0
H183 H 0.61224 0.6402 0.6088 0.0
H184 H 0.45802 0.54947 0.64168 0.0
H185 H 0.47661 0.59524 0.61798 0.0
H186 H 0.51608 0.62157 0.64428 0.0
H187 H 0.56052 0.74479 0.57805 0.0
C188 C 0.54447 0.65892 0.58258 0.0
C189 C 0.11854 0.50216 0.84576 0.0
C190 C 0.1647 0.49456 0.85124 0.0
C191 C 0.1844 0.50223 0.87389 0.0
C192 C 0.11106 0.52341 0.88557 0.0
C193 C 0.09267 0.51702 0.86316 0.0
C194 C 0.04335 0.52735 0.8604 0.0
H195 H 0.83164 0.55023 0.90944 0.0
C196 C 0.07397 0.53698 0.89961 0.0
C197 C 0.03471 0.54013 0.88492 0.0
H198 H 0.86343 0.5424 0.83762 0.0
H199 H 0.95455 0.55336 0.84632 0.0
H200 H 0.87241 0.46474 0.92722 0.0
H201 H 0.95649 0.64789 0.92046 0.0
H202 H 0.98662 0.63462 0.94458 0.0
H203 H 0.91128 0.61168 0.94444 0.0
H204 H 0.85456 0.50951 0.94399 0.0
H205 H 0.90994 0.49528 0.95261 0.0
C206 C 0.99202 0.47118 0.85141 0.0
C207 C 0.06209 0.57984 0.84452 0.0
C208 C 0.08815 0.53934 0.98629 0.0
C209 C 0.05535 0.54546 0.00355 0.0
C210 C 0.01281 0.55867 0.99769 0.0
C211 C 0.00138 0.5636 0.9748 0.0
C212 C 0.0322 0.55429 0.9576 0.0
C213 C 0.07571 0.54381 0.96342 0.0
C214 C 0.1043 0.53598 0.94271 0.0
C215 C 0.07015 0.54271 0.92359 0.0
C216 C 0.02758 0.55264 0.9325 0.0
C217 C 0.09571 0.4747 0.94363 0.0
C218 C 0.16761 0.58446 0.94242 0.0
C219 C 0.855 0.54543 0.89548 0.0
C220 C 0.83314 0.53181 0.873 0.0
C221 C 0.87334 0.54156 0.85542 0.0
C222 C 0.92744 0.54957 0.86043 0.0
C223 C 0.94283 0.55026 0.88327 0.0
C224 C 0.90853 0.55198 0.9003 0.0
C225 C 0.93361 0.55705 0.92365 0.0
C226 C 0.98734 0.55501 0.91772 0.0
C227 C 0.99195 0.55032 0.89404 0.0
C228 C 0.89062 0.50428 0.93781 0.0
C229 C 0.9475 0.61556 0.93402 0.0
H230 H 0.17478 0.52204 0.90804 0.0
H231 H 0.10331 0.49693 0.82834 0.0
H232 H 0.10934 0.60799 0.84419 0.0
H233 H 0.04567 0.60801 0.85045 0.0
H234 H 0.048 0.56633 0.82666 0.0
H235 H 0.98649 0.43392 0.86159 0.0
H236 H -0.00112 0.46365 0.8333 0.0
H237 H 0.95099 0.47041 0.85251 0.0
H238 H 0.12156 0.52988 0.99054 0.0
H239 H 0.98778 0.5642 0.01091 0.0
H240 H 0.968 0.57306 0.97138 0.0
H241 H 0.05163 0.44344 0.94941 0.0
H242 H 0.126 0.4725 0.95581 0.0
H243 H 0.10045 0.45876 0.92689 0.0
H244 H 0.17263 0.62423 0.95039 0.0
H245 H 0.18473 0.59737 0.92491 0.0
H246 H 0.19503 0.57189 0.95202 0.0
H247 H 0.22036 0.49676 0.87822 0.0
C248 C 0.15797 0.51686 0.8911 0.0
C249 C 0.86833 0.36456 0.46128 0.0
C250 C 0.82498 0.31477 0.45102 0.0
C251 C 0.81494 0.31466 0.42743 0.0
C252 C 0.89014 0.41393 0.42483 0.0
C253 C 0.89936 0.41377 0.44803 0.0
C254 C 0.94329 0.47159 0.45675 0.0
H255 H 0.14567 0.74435 0.43464 0.0
C256 C 0.92875 0.47242 0.41622 0.0
C257 C 0.95904 0.50662 0.43495 0.0
H258 H 0.10163 0.65675 0.49951 0.0
H259 H 0.02212 0.57379 0.48211 0.0
H260 H 0.1345 0.64135 0.40663 0.0
H261 H 0.01447 0.6999 0.41746 0.0
H262 H 0.00539 0.67554 0.38911 0.0
H263 H 0.07329 0.73495 0.39791 0.0
H264 H 0.14278 0.70583 0.39411 0.0
H265 H 0.10219 0.63754 0.38025 0.0
C266 C -0.00603 0.46637 0.46625 0.0
C267 C 0.91424 0.4919 0.47443 0.0
C268 C 0.94952 0.51185 0.33084 0.0
C269 C 0.98448 0.56138 0.31809 0.0
C270 C 0.01758 0.61388 0.32938 0.0
C271 C 0.01806 0.61658 0.35326 0.0
C272 C 0.98529 0.56617 0.36593 0.0
C273 C 0.95045 0.51524 0.35473 0.0
C274 C 0.91726 0.46653 0.37109 0.0
C275 C 0.94002 0.49616 0.39389 0.0
C276 C 0.98017 0.55435 0.3907 0.0
C277 C 0.93344 0.4198 0.36649 0.0
C278 C 0.85278 0.44576 0.36824 0.0
C279 C 0.11769 0.70766 0.44507 0.0
C280 C 0.12898 0.70644 0.46834 0.0
C281 C 0.09288 0.65812 0.48155 0.0
C282 C 0.04731 0.61003 0.47134 0.0
C283 C 0.03848 0.6103 0.44767 0.0
C284 C 0.07248 0.65911 0.43506 0.0
C285 C 0.05832 0.65096 0.41004 0.0
C286 C 0.01049 0.58903 0.40966 0.0
C287 C -0.00051 0.56538 0.43169 0.0
C288 C 0.11204 0.65962 0.39688 0.0
C289 C 0.0371 0.69262 0.40306 0.0
H290 H 0.83795 0.36154 0.39637 0.0
H291 H 0.87634 0.36567 0.47945 0.0
H292 H 0.8683 0.47457 0.47037 0.0
H293 H 0.93266 0.53889 0.47447 0.0
H294 H 0.91661 0.47744 0.49194 0.0
H295 H 0.00269 0.43786 0.45524 0.0
H296 H 0.9845 0.44792 0.48374 0.0
H297 H 0.03453 0.50746 0.46656 0.0
H298 H 0.92338 0.47119 0.32237 0.0
H299 H 0.04442 0.65239 0.31967 0.0
H300 H 0.04513 0.65753 0.36094 0.0
H301 H 0.98056 0.43942 0.36468 0.0
H302 H 0.91355 0.39627 0.35045 0.0
H303 H 0.9209 0.38838 0.38045 0.0
H304 H 0.84581 0.48059 0.36176 0.0
H305 H 0.82926 0.43277 0.38466 0.0
H306 H 0.83247 0.40961 0.35596 0.0
H307 H 0.78146 0.27651 0.41932 0.0
C308 C 0.8475 0.36399 0.41424 0.0
C309 C 0.5168 0.87745 0.80488 0.0
C310 C 0.52763 0.83689 0.79435 0.0
C311 C 0.52985 0.83507 0.77036 0.0
C312 C 0.50923 0.91263 0.76769 0.0
C313 C 0.50645 0.9139 0.79125 0.0
C314 C 0.48785 0.95498 0.79954 0.0
H315 H 0.43705 0.17101 0.77575 0.0
C316 C 0.49606 0.9557 0.75856 0.0
C317 C 0.48314 0.98045 0.7771 0.0
H318 H 0.41523 0.08547 0.8404 0.0
H319 H 0.44177 0.02042 0.82289 0.0
H320 H 0.54847 0.16715 0.75706 0.0
H321 H 0.36758 0.05639 0.74893 0.0
H322 H 0.39853 0.0531 0.72302 0.0
H323 H 0.40658 0.12059 0.73243 0.0
H324 H 0.50418 0.18602 0.74073 0.0
H325 H 0.53567 0.14716 0.72811 0.0
C326 C 0.53548 0.00024 0.81491 0.0
C327 C 0.42909 0.92025 0.81169 0.0
C328 C 0.50507 0.99072 0.6731 0.0
C329 C 0.4969 0.02929 0.65985 0.0
C330 C 0.48621 0.06976 0.67056 0.0
C331 C 0.48245 0.07101 0.69439 0.0
C332 C 0.4895 0.03136 0.70753 0.0
C333 C 0.50134 0.99261 0.69688 0.0
C334 C 0.50802 0.95414 0.7136 0.0
C335 C 0.49673 0.97519 0.73601 0.0
C336 C 0.48587 0.02029 0.73231 0.0
C337 C 0.57031 0.96618 0.71186 0.0
C338 C 0.46179 0.89136 0.70845 0.0
C339 C 0.43818 0.13827 0.78607 0.0
C340 C 0.42568 0.134 0.80951 0.0
C341 C 0.42577 0.08988 0.82236 0.0
C342 C 0.44108 0.0523 0.81219 0.0
C343 C 0.45474 0.0579 0.7888 0.0
C344 C 0.45149 0.09928 0.77604 0.0
C345 C 0.46157 0.09518 0.75104 0.0
C346 C 0.47289 0.04544 0.75098 0.0
C347 C 0.47017 0.02468 0.77318 0.0
C348 C 0.515 0.15182 0.74363 0.0
C349 C 0.4061 0.08098 0.738 0.0
H350 H 0.52315 0.86937 0.73879 0.0
H351 H 0.5141 0.87899 0.82331 0.0
H352 H 0.40633 0.87454 0.80632 0.0
H353 H 0.39943 0.93594 0.8073 0.0
H354 H 0.434 0.9211 0.83054 0.0
H355 H 0.57781 0.01779 0.80637 0.0
H356 H 0.53745 0.981 0.83141 0.0
H357 H 0.52976 0.0372 0.81864 0.0
H358 H 0.51343 0.95937 0.66507 0.0
H359 H 0.48004 0.09981 0.66041 0.0
H360 H 0.47374 0.10247 0.70161 0.0
H361 H 0.6006 0.01273 0.70941 0.0
H362 H 0.57555 0.94319 0.69711 0.0
H363 H 0.585 0.95471 0.72749 0.0
H364 H 0.42218 0.88901 0.70175 0.0
H365 H 0.44774 0.86404 0.72386 0.0
H366 H 0.47704 0.87193 0.69545 0.0
H367 H 0.53787 0.80382 0.76202 0.0
C368 C 0.52114 0.873 0.75697 0.0
C369 C 0.64393 0.49335 0.12502 0.0
C370 C 0.69507 0.51901 0.1123 0.0
C371 C 0.69595 0.54177 0.09055 0.0
C372 C 0.59463 0.50714 0.09329 0.0
C373 C 0.59468 0.48946 0.11542 0.0
C374 C 0.53811 0.4695 0.12718 0.0
H375 H 0.27152 0.43272 0.12155 0.0
C376 C 0.5364 0.49456 0.08786 0.0
C377 C 0.50331 0.47411 0.10781 0.0
H378 H 0.35976 0.42498 0.1815 0.0
H379 H 0.43919 0.43646 0.15782 0.0
H380 H 0.37356 0.53542 0.09724 0.0
H381 H 0.30527 0.35401 0.09016 0.0
H382 H 0.33193 0.38327 0.0631 0.0
H383 H 0.27446 0.39041 0.07554 0.0
H384 H 0.30503 0.48764 0.08498 0.0
H385 H 0.36892 0.51922 0.06786 0.0
C386 C 0.54723 0.5115 0.14702 0.0
C387 C 0.51399 0.40671 0.13486 0.0
C388 C 0.48326 0.50077 0.00536 0.0
C389 C 0.43128 0.48607 0.99477 0.0
C390 C 0.38229 0.47014 0.00817 0.0
C391 C 0.38483 0.46748 0.03202 0.0
C392 C 0.43695 0.48107 0.04245 0.0
C393 C 0.48512 0.49776 0.02915 0.0
C394 C 0.5367 0.51045 0.04312 0.0
C395 C 0.51081 0.49587 0.06694 0.0
C396 C 0.45269 0.47926 0.06643 0.0
C397 C 0.58146 0.57502 0.04058 0.0
C398 C 0.55832 0.46971 0.03522 0.0
C399 C 0.30776 0.43279 0.12945 0.0
C400 C 0.31057 0.42922 0.15323 0.0
C401 C 0.35758 0.42845 0.16314 0.0
C402 C 0.40357 0.43571 0.14944 0.0
C403 C 0.40193 0.44346 0.12573 0.0
C404 C 0.35371 0.44001 0.11606 0.0
C405 C 0.35898 0.44863 0.09064 0.0
C406 C 0.42001 0.46239 0.08686 0.0
C407 C 0.44494 0.45909 0.1074 0.0
C408 C 0.35093 0.50018 0.08467 0.0
C409 C 0.31533 0.39148 0.07912 0.0
H410 H 0.64885 0.55196 0.06402 0.0
H411 H 0.64254 0.47711 0.14206 0.0
H412 H 0.5176 0.38086 0.12079 0.0
H413 H 0.46823 0.38558 0.13942 0.0
H414 H 0.53796 0.40416 0.14976 0.0
H415 H 0.58587 0.55413 0.14423 0.0
H416 H 0.55273 0.49485 0.16359 0.0
H417 H 0.51181 0.52076 0.14858 0.0
H418 H 0.52141 0.5135 0.99524 0.0
H419 H 0.34203 0.45902 0.00011 0.0
H420 H 0.34612 0.45474 0.0414 0.0
H421 H 0.56209 0.60018 0.03402 0.0
H422 H 0.61617 0.58173 0.02854 0.0
H423 H 0.60052 0.59511 0.0572 0.0
H424 H 0.52236 0.42477 0.03455 0.0
H425 H 0.59044 0.46964 0.04673 0.0
H426 H 0.57757 0.48151 0.01787 0.0
H427 H 0.73525 0.56285 0.08073 0.0
C428 C 0.64588 0.53527 0.08087 0.0
C429 C 0.23006 0.49174 0.18312 0.0
C430 C 0.17402 0.44881 0.17737 0.0
C431 C 0.20962 0.38454 0.16652 0.0
C432 C 0.26598 0.43177 0.16717 0.0
N433 N 0.33127 0.53077 0.17659 0.0
N434 N 0.10829 0.35263 0.16495 0.0
C435 C 0.27684 0.48517 0.17623 0.0
C436 C 0.16287 0.39402 0.17004 0.0
N437 N 0.23813 0.53907 0.19486 0.0
N438 N 0.20135 0.3312 0.16199 0.0
H439 H 0.07305 0.35785 0.16787 0.0
H440 H 0.09804 0.31415 0.15697 0.0
H441 H 0.23548 0.32394 0.15937 0.0
H442 H 0.16171 0.29397 0.16288 0.0
H443 H 0.27749 0.56991 0.20132 0.0
H444 H 0.20402 0.54435 0.20008 0.0
H445 H 0.3409 0.57249 0.18019 0.0
H446 H 0.36695 0.52766 0.17206 0.0
C447 C 0.72304 0.21974 0.49727 0.0
C448 C 0.7118 0.16504 0.48992 0.0
C449 C 0.79028 0.21213 0.46212 0.0
C450 C 0.78853 0.2636 0.46523 0.0
N451 N 0.74852 0.3147 0.48497 0.0
N452 N 0.74821 0.11064 0.47074 0.0
C453 C 0.75409 0.26723 0.48276 0.0
C454 C 0.74985 0.16161 0.47397 0.0
N455 N 0.70632 0.22679 0.51848 0.0
N456 N 0.83155 0.21232 0.44845 0.0
H457 H 0.72724 0.07661 0.48215 0.0
H458 H 0.7686 0.10245 0.45737 0.0
H459 H 0.86244 0.24904 0.44011 0.0
H460 H 0.83799 0.17761 0.44649 0.0
H461 H 0.71689 0.26684 0.52508 0.0
H462 H 0.6897 0.19386 0.53054 0.0
H463 H 0.71945 0.31643 0.49625 0.0
H464 H 0.76837 0.3499 0.47405 0.0
C465 C 0.49795 0.71876 0.83679 0.0
C466 C 0.54065 0.70535 0.83057 0.0
C467 C 0.58625 0.79308 0.8074 0.0
C468 C 0.53439 0.79464 0.80829 0.0
N469 N 0.43735 0.75328 0.82256 0.0
N470 N 0.63572 0.7406 0.81563 0.0
C471 C 0.48939 0.75637 0.82284 0.0
C472 C 0.58831 0.74607 0.81761 0.0
N473 N 0.46718 0.69754 0.85644 0.0
N474 N 0.63361 0.83737 0.7975 0.0
H475 H 0.6428 0.71394 0.82637 0.0
H476 H 0.66838 0.76323 0.80388 0.0
H477 H 0.63368 0.87311 0.79065 0.0
H478 H 0.67391 0.84128 0.79767 0.0
H479 H 0.43777 0.70916 0.86219 0.0
H480 H 0.47754 0.67574 0.8685 0.0
H481 H 0.40222 0.72203 0.83158 0.0
H482 H 0.42748 0.77753 0.81161 0.0
C483 C 0.81709 0.53955 0.15127 0.0
C484 C 0.84881 0.5245 0.13613 0.0
C485 C 0.77453 0.49716 0.10734 0.0
C486 C 0.74735 0.52016 0.12101 0.0
N487 N 0.75189 0.5763 0.15405 0.0
N488 N 0.86514 0.50657 0.09701 0.0
C489 C 0.77128 0.54533 0.14244 0.0
C490 C 0.82981 0.50856 0.11331 0.0
N491 N 0.82832 0.54547 0.17415 0.0
N492 N 0.74704 0.46265 0.08912 0.0
H493 H 0.90786 0.51932 0.1001 0.0
H494 H 0.854 0.49934 0.07979 0.0
H495 H 0.70485 0.44993 0.08496 0.0
H496 H 0.76397 0.44138 0.07991 0.0
H497 H 0.80266 0.55133 0.18594 0.0
H498 H 0.85895 0.53814 0.18168 0.0
H499 H 0.77163 0.59957 0.16876 0.0
H500 H 0.72018 0.58377 0.14771 0.0
C501 C 0.24174 0.84915 0.49289 0.0
C502 C 0.29088 0.8431 0.49091 0.0
C503 C 0.23283 0.74606 0.4756 0.0
C504 C 0.18366 0.75189 0.4778 0.0
N505 N 0.13812 0.80362 0.49133 0.0
N506 N 0.33344 0.78433 0.48319 0.0
C507 C 0.18716 0.80191 0.48734 0.0
C508 C 0.28636 0.79089 0.4833 0.0
N509 N 0.24763 0.90039 0.49972 0.0
N510 N 0.22868 0.69865 0.46512 0.0
H511 H 0.37457 0.81749 0.48662 0.0
H512 H 0.33168 0.74519 0.48091 0.0
H513 H 0.18998 0.66368 0.46004 0.0
H514 H 0.26367 0.69487 0.46014 0.0
H515 H 0.21495 0.91016 0.49914 0.0
H516 H 0.28643 0.93465 0.50517 0.0
H517 H 0.13664 0.83643 0.50012 0.0
H518 H 0.09774 0.76988 0.48712 0.0
C519 C 0.36221 0.23065 0.81914 0.0
C520 C 0.40135 0.26917 0.83545 0.0
C521 C 0.44808 0.21217 0.83816 0.0
C522 C 0.41288 0.17623 0.82038 0.0
N523 N 0.32477 0.13933 0.79941 0.0
N524 N 0.45232 0.2717 0.86969 0.0
C525 C 0.36597 0.18163 0.81256 0.0
C526 C 0.43491 0.25199 0.84805 0.0
N527 N 0.32123 0.24057 0.81035 0.0
N528 N 0.49599 0.21118 0.8448 0.0
H529 H 0.43678 0.2947 0.87858 0.0
H530 H 0.47437 0.25746 0.87985 0.0
H531 H 0.50967 0.18508 0.83722 0.0
H532 H 0.52523 0.24075 0.85632 0.0
H533 H 0.29623 0.21909 0.79627 0.0
H534 H 0.31201 0.27051 0.81756 0.0
H535 H 0.28745 0.13844 0.79437 0.0
H536 H 0.32565 0.1022 0.79508 0.0
C537 C 0.596 0.85071 0.5231 0.0
C538 C 0.54613 0.84191 0.51166 0.0
C539 C 0.49723 0.74031 0.52108 0.0
C540 C 0.54731 0.74837 0.53222 0.0
N541 N 0.64868 0.80727 0.53848 0.0
N542 N 0.45814 0.77681 0.49296 0.0
C543 C 0.59827 0.8024 0.53145 0.0
C544 C 0.49977 0.78598 0.50833 0.0
N545 N 0.63969 0.90502 0.52709 0.0
N546 N 0.44628 0.69073 0.5239 0.0
H547 H 0.46024 0.80979 0.48292 0.0
H548 H 0.42562 0.73608 0.4884 0.0
H549 H 0.44132 0.65687 0.5341 0.0
H550 H 0.40764 0.68549 0.51797 0.0
H551 H 0.67404 0.91413 0.53772 0.0
H552 H 0.63993 0.94135 0.52086 0.0
H553 H 0.68804 0.84444 0.53641 0.0
H554 H 0.65172 0.7724 0.54441 0.0
C555 C 0.68818 0.52015 0.87852 0.0
C556 C 0.67294 0.5168 0.8552 0.0
C557 C 0.74903 0.4965 0.84518 0.0
C558 C 0.7711 0.51229 0.86762 0.0
N559 N 0.73041 0.48531 0.90537 0.0
N560 N 0.68761 0.49907 0.81587 0.0
C561 C 0.73235 0.50933 0.88467 0.0
C562 C 0.70311 0.50442 0.83832 0.0
N563 N 0.66085 0.53388 0.89488 0.0
N564 N 0.76465 0.46465 0.83204 0.0
H565 H 0.65207 0.50087 0.81014 0.0
H566 H 0.71245 0.49643 0.80277 0.0
H567 H 0.79016 0.44897 0.83851 0.0
H568 H 0.74606 0.447 0.81635 0.0
H569 H 0.67412 0.5409 0.91188 0.0
H570 H 0.62877 0.54337 0.89108 0.0
H571 H 0.69939 0.47768 0.91768 0.0
H572 H 0.754 0.46498 0.90854 0.0
C573 C 0.22162 0.7413 0.1508 0.0
C574 C 0.17274 0.72041 0.16509 0.0
C575 C 0.22134 0.80932 0.18696 0.0
C576 C 0.27394 0.82138 0.17687 0.0
N577 N 0.32442 0.79285 0.15032 0.0
N578 N 0.12945 0.73379 0.1994 0.0
C579 C 0.27435 0.78645 0.15877 0.0
C580 C 0.17272 0.75457 0.18367 0.0
N581 N 0.21774 0.71772 0.12975 0.0
N582 N 0.2183 0.84964 0.20009 0.0
H583 H 0.09432 0.69265 0.19906 0.0
H584 H 0.13151 0.75582 0.21435 0.0
H585 H 0.25339 0.89055 0.20246 0.0
H586 H 0.17983 0.8444 0.20641 0.0
H587 H 0.25151 0.73441 0.11808 0.0
H588 H 0.17893 0.686 0.12307 0.0
H589 H 0.32577 0.7642 0.13869 0.0
H590 H 0.36447 0.82287 0.15647 0.0
C591 C 0.39919 0.15397 0.50959 0.0
C592 C 0.44871 0.16194 0.49793 0.0
C593 C 0.49354 0.26561 0.50185 0.0
C594 C 0.44463 0.25794 0.51403 0.0
N595 N 0.34585 0.19764 0.52449 0.0
N596 N 0.53426 0.22336 0.47685 0.0
C597 C 0.39556 0.20287 0.51616 0.0
C598 C 0.4928 0.21734 0.4919 0.0
N599 N 0.35744 0.10005 0.51553 0.0
N600 N 0.54208 0.31813 0.50115 0.0
H601 H 0.5342 0.18818 0.46931 0.0
H602 H 0.56497 0.26263 0.47015 0.0
H603 H 0.54508 0.3548 0.50848 0.0
H604 H 0.58098 0.32463 0.49484 0.0
H605 H 0.32365 0.09175 0.52645 0.0
H606 H 0.35808 0.06333 0.51034 0.0
H607 H 0.30717 0.15923 0.52465 0.0
H608 H 0.34228 0.23295 0.52945 0.0
C609 C 0.22919 0.41279 0.82605 0.0
C610 C 0.27807 0.45893 0.81597 0.0
C611 C 0.23806 0.52183 0.8204 0.0
C612 C 0.19356 0.47851 0.83368 0.0
N613 N 0.13486 0.37862 0.84259 0.0
N614 N 0.32004 0.54781 0.79567 0.0
C615 C 0.18477 0.42213 0.83399 0.0
C616 C 0.27861 0.50997 0.8101 0.0
N617 N 0.22784 0.36209 0.82965 0.0
N618 N 0.24397 0.57516 0.81923 0.0
H619 H 0.35013 0.5389 0.78838 0.0
H620 H 0.32165 0.58478 0.78949 0.0
H621 H 0.21413 0.58464 0.82626 0.0
H622 H 0.2792 0.61045 0.81202 0.0
H623 H 0.1966 0.32852 0.83925 0.0
H624 H 0.25937 0.35429 0.82317 0.0
H625 H 0.12397 0.33575 0.84219 0.0
H626 H 0.10215 0.38537 0.84847 0.0
C627 C 0.86774 0.24887 0.17392 0.0
C628 C 0.86608 0.30037 0.17222 0.0
C629 C 0.7675 0.25264 0.18622 0.0
C630 C 0.77147 0.20294 0.19052 0.0
N631 N 0.82305 0.1515 0.18852 0.0
N632 N 0.81692 0.35385 0.1772 0.0
C633 C 0.82082 0.20018 0.18416 0.0
C634 C 0.81628 0.30273 0.1781 0.0
N635 N 0.9141 0.24689 0.1656 0.0
N636 N 0.71724 0.25211 0.19013 0.0
H637 H 0.85105 0.3913 0.17061 0.0
H638 H 0.78517 0.36048 0.18414 0.0
H639 H 0.68154 0.21787 0.19765 0.0
H640 H 0.70927 0.28415 0.18462 0.0
H641 H 0.91679 0.20978 0.16463 0.0
H642 H 0.9489 0.2823 0.15811 0.0
H643 H 0.85957 0.14818 0.18658 0.0
H644 H 0.78827 0.11429 0.19497 0.0
C645 C 0.08031 0.57611 0.06664 0.0
C646 C 0.06131 0.52034 0.07551 0.0
C647 C 0.04284 0.48105 0.03673 0.0
C648 C 0.06393 0.53712 0.02792 0.0
N649 N 0.11639 0.63911 0.03381 0.0
N650 N 0.03814 0.42274 0.06906 0.0
C651 C 0.08736 0.58505 0.0427 0.0
C652 C 0.04689 0.47369 0.06054 0.0
N653 N 0.08777 0.61973 0.08081 0.0
N654 N 0.01643 0.43465 0.02258 0.0
H655 H 0.04171 0.41632 0.08641 0.0
H656 H 0.03295 0.38889 0.05878 0.0
H657 H 0.01283 0.4381 0.00501 0.0
H658 H -0.00564 0.3926 0.02849 0.0
H659 H 0.09542 0.65936 0.07487 0.0
H660 H 0.08103 0.61508 0.0984 0.0
H661 H 0.13929 0.67561 0.04379 0.0
H662 H 0.12229 0.64695 0.01627 0.0
C663 C 0.5144 0.03345 0.397 0.0
C664 C 0.50519 0.98669 0.411 0.0
C665 C 0.49911 0.93074 0.37703 0.0
C666 C 0.50187 0.97504 0.36312 0.0
N667 N 0.50208 0.06446 0.35975 0.0
N668 N 0.47871 0.88712 0.41453 0.0
C669 C 0.50675 0.02534 0.37306 0.0
C670 C 0.49499 0.93428 0.4011 0.0
N671 N 0.53251 0.08616 0.40647 0.0
N672 N 0.50185 0.88603 0.36729 0.0
H673 H 0.47397 0.88747 0.43221 0.0
H674 H 0.46479 0.84633 0.40797 0.0
H675 H 0.50493 0.88205 0.34969 0.0
H676 H 0.50616 0.85567 0.37672 0.0
H677 H 0.54566 0.12312 0.39682 0.0
H678 H 0.53979 0.09416 0.42393 0.0
H679 H 0.49908 0.09871 0.36644 0.0
H680 H 0.49598 0.05996 0.34212 0.0
C681 C 0.55507 0.54288 0.73666 0.0
C682 C 0.53273 0.492 0.74988 0.0
C683 C 0.5489 0.44397 0.71743 0.0
C684 C 0.55671 0.4898 0.70319 0.0
N685 N 0.61627 0.59226 0.70469 0.0
N686 N 0.51594 0.39529 0.75373 0.0
C687 C 0.57447 0.5428 0.71421 0.0
C688 C 0.53206 0.4428 0.74058 0.0
N689 N 0.55561 0.5906 0.74489 0.0
N690 N 0.56687 0.40756 0.71 0.0
H691 H 0.50844 0.39426 0.77125 0.0
H692 H 0.50802 0.35622 0.74695 0.0
H693 H 0.58867 0.41442 0.6945 0.0
H694 H 0.56743 0.37628 0.72024 0.0
H695 H 0.56727 0.62661 0.73476 0.0
H696 H 0.53961 0.59236 0.76092 0.0
H697 H 0.63437 0.63162 0.71308 0.0
H698 H 0.63759 0.59179 0.68983 0.0
C699 C 0.44729 0.00445 0.59818 0.0
C700 C 0.499 0.01845 0.5867 0.0
C701 C 0.55047 0.0457 0.62303 0.0
C702 C 0.4978 0.02614 0.63464 0.0
N703 N 0.39477 0.97751 0.63386 0.0
N704 N 0.59793 0.04278 0.5883 0.0
C705 C 0.44576 0.00282 0.62239 0.0
C706 C 0.55022 0.03662 0.59913 0.0
N707 N 0.4003 0.99506 0.586 0.0
N708 N 0.60075 0.0742 0.63475 0.0
H709 H 0.59921 0.03548 0.57087 0.0
H710 H 0.63459 0.04998 0.59691 0.0
H711 H 0.60256 0.08148 0.65232 0.0
H712 H 0.64062 0.09485 0.62681 0.0
H713 H 0.36338 0.99075 0.59356 0.0
H714 H 0.39995 -0.00298 0.56821 0.0
H715 H 0.35544 0.95424 0.62577 0.0
H716 H 0.39178 0.97536 0.65164 0.0
C717 C 0.46323 0.53952 0.93374 0.0
C718 C 0.43661 0.48698 0.92152 0.0
C719 C 0.40432 0.43352 0.95741 0.0
C720 C 0.42849 0.48608 0.96952 0.0
N721 N 0.46958 0.58858 0.96931 0.0
N722 N 0.37057 0.38524 0.92109 0.0
C723 C 0.45423 0.53898 0.95767 0.0
C724 C 0.40367 0.43429 0.93318 0.0
N725 N 0.49977 0.58951 0.92279 0.0
N726 N 0.38427 0.38302 0.969 0.0
H727 H 0.36821 0.38442 0.9033 0.0
H728 H 0.34127 0.34662 0.9287 0.0
H729 H 0.38362 0.38047 0.98678 0.0
H730 H 0.37239 0.34414 0.96099 0.0
H731 H 0.52524 0.62793 0.93132 0.0
H732 H 0.50861 0.59189 0.90535 0.0
H733 H 0.48318 0.62779 0.96129 0.0
H734 H 0.46365 0.58959 0.98689 0.0
C735 C 0.04709 0.56166 0.2598 0.0
C736 C -0.00081 0.54592 0.24555 0.0
C737 C 0.9444 0.54907 0.27847 0.0
C738 C 0.98984 0.55754 0.29301 0.0
N739 N 0.08106 0.56281 0.29805 0.0
N740 N 0.89965 0.51762 0.2414 0.0
C741 C 0.0404 0.56154 0.28383 0.0
C742 C 0.94714 0.5381 0.25485 0.0
N743 N 0.09946 0.57842 0.2503 0.0
N744 N 0.89924 0.55263 0.28716 0.0
H745 H 0.89981 0.50885 0.22405 0.0
H746 H 0.85903 0.505 0.24778 0.0
H747 H 0.89581 0.56033 0.30441 0.0
H748 H 0.86771 0.55279 0.27704 0.0
H749 H 0.13705 0.596 0.25975 0.0
H750 H 0.1063 0.58023 0.23269 0.0
H751 H 0.11567 0.55927 0.29227 0.0
H752 H 0.0777 0.5622 0.31582 0.0
loop_
_geom_bond_atom_site_label_1
_geom_bond_atom_site_label_2
_geom_bond_distance
_geom_bond_site_symmetry_2
_ccdc_geom_bond_type
O0 Zn1 1.953 . S
O0 C16 1.225 1_655 S
Zn1 O0 1.953 . S
Zn1 O2 1.949 1_655 S
Zn1 O8 1.919 . S
Zn1 O13 1.924 1_655 S
O2 Zn1 1.949 1_455 S
O2 Zn3 1.923 1_455 S
O2 Zn4 1.950 . S
O2 Zn5 1.945 . S
Zn3 O2 1.923 1_655 S
Zn3 O6 1.933 . S
Zn3 O9 1.941 . S
Zn3 O10 1.965 . S
Zn4 O2 1.950 . S
Zn4 O11 1.938 1_455 S
Zn4 O12 1.906 . S
Zn4 O22 1.953 . S
Zn5 O2 1.945 . S
Zn5 O7 1.932 . S
Zn5 O14 1.977 . S
Zn5 O15 1.910 . S
O6 Zn3 1.933 . S
O6 C17 1.226 1_655 S
O7 Zn5 1.932 . S
O7 C17 1.307 . S
O8 Zn1 1.919 . S
O8 C19 1.253 . S
O9 Zn3 1.941 . S
O9 C19 1.283 . S
O10 Zn3 1.965 . S
O10 C18 1.303 . S
O11 Zn4 1.938 1_655 S
O11 C18 1.247 . S
O12 Zn4 1.906 . S
O12 C20 1.304 . S
O13 Zn1 1.924 1_455 S
O13 C21 1.311 . S
O14 Zn5 1.977 . S
O14 C20 1.272 . S
O15 Zn5 1.910 . S
O15 C21 1.231 . S
C16 O0 1.225 1_455 S
C16 O22 1.298 . S
C17 O6 1.226 1_455 S
C17 O7 1.307 . S
C18 O10 1.303 . S
C18 O11 1.247 . S
C19 O8 1.253 . S
C19 O9 1.283 . S
C20 O12 1.304 . S
C20 O14 1.272 . S
C21 O13 1.311 . S
C21 O15 1.231 . S
O22 Zn4 1.953 . S
O22 C16 1.298 . S
O23 Zn24 1.953 . S
O23 C39 1.225 . S
Zn24 O23 1.953 . S
Zn24 O25 1.949 . S
Zn24 O31 1.919 . S
Zn24 O36 1.924 1_545 S
O25 Zn24 1.949 . S
O25 Zn26 1.923 . S
O25 Zn27 1.950 1_545 S
O25 Zn28 1.945 1_545 S
Zn26 O25 1.923 . S
Zn26 O29 1.933 . S
Zn26 O32 1.941 . S
Zn26 O33 1.965 . S
Zn27 O25 1.950 1_565 S
Zn27 O34 1.938 1_565 S
Zn27 O35 1.906 . S
Zn27 O45 1.953 . S
Zn28 O25 1.945 1_565 S
Zn28 O30 1.932 . S
Zn28 O37 1.977 . S
Zn28 O38 1.910 . S
O29 Zn26 1.933 . S
O29 C40 1.226 . S
O30 Zn28 1.932 . S
O30 C40 1.307 1_565 S
O31 Zn24 1.919 . S
O31 C42 1.253 . S
O32 Zn26 1.941 . S
O32 C42 1.283 . S
O33 Zn26 1.965 . S
O33 C41 1.303 . S
O34 Zn27 1.938 1_545 S
O34 C41 1.247 . S
O35 Zn27 1.906 . S
O35 C43 1.304 . S
O36 Zn24 1.924 1_565 S
O36 C44 1.311 . S
O37 Zn28 1.977 . S
O37 C43 1.272 . S
O38 Zn28 1.910 . S
O38 C44 1.231 . S
C39 O23 1.225 . S
C39 O45 1.298 1_545 S
C40 O29 1.226 . S
C40 O30 1.307 1_545 S
C41 O33 1.303 . S
C41 O34 1.247 . S
C42 O31 1.253 . S
C42 O32 1.283 . S
C43 O35 1.304 . S
C43 O37 1.272 . S
C44 O36 1.311 . S
C44 O38 1.231 . S
O45 Zn27 1.953 . S
O45 C39 1.298 1_565 S
O46 Zn47 1.953 . S
O46 C62 1.225 . S
Zn47 O46 1.953 . S
Zn47 O48 1.949 . S
Zn47 O54 1.919 . S
Zn47 O59 1.924 . S
O48 Zn47 1.949 . S
O48 Zn49 1.923 . S
O48 Zn50 1.950 . S
O48 Zn51 1.945 . S
Zn49 O48 1.923 . S
Zn49 O52 1.933 . S
Zn49 O55 1.941 . S
Zn49 O56 1.965 . S
Zn50 O48 1.950 . S
Zn50 O57 1.938 . S
Zn50 O58 1.906 . S
Zn50 O68 1.953 . S
Zn51 O48 1.945 . S
Zn51 O53 1.932 . S
Zn51 O60 1.977 . S
Zn51 O61 1.910 . S
O52 Zn49 1.933 . S
O52 C63 1.226 . S
O53 Zn51 1.932 . S
O53 C63 1.307 . S
O54 Zn47 1.919 . S
O54 C65 1.253 . S
O55 Zn49 1.941 . S
O55 C65 1.283 . S
O56 Zn49 1.965 . S
O56 C64 1.303 . S
O57 Zn50 1.938 . S
O57 C64 1.247 . S
O58 Zn50 1.906 . S
O58 C66 1.304 . S
O59 Zn47 1.924 . S
O59 C67 1.311 . S
O60 Zn51 1.977 . S
O60 C66 1.272 . S
O61 Zn51 1.910 . S
O61 C67 1.231 . S
C62 O46 1.225 . S
C62 O68 1.298 . S
C63 O52 1.226 . S
C63 O53 1.307 . S
C64 O56 1.303 . S
C64 O57 1.247 . S
C65 O54 1.253 . S
C65 O55 1.283 . S
C66 O58 1.304 . S
C66 O60 1.272 . S
C67 O59 1.311 . S
C67 O61 1.231 . S
O68 Zn50 1.953 . S
O68 C62 1.298 . S
C69 C70 1.391 . S
C69 C73 1.391 . S
C69 H111 0.948 . S
C70 C69 1.391 . S
C70 C71 1.391 . S
C71 C70 1.391 . S
C71 H127 0.947 . S
C71 C128 1.392 . S
C72 C73 1.391 . S
C72 C76 1.397 . S
C72 C128 1.419 . S
C73 C69 1.391 . S
C73 C72 1.391 . S
C73 C74 1.399 . S
C74 C73 1.399 . S
C74 C77 1.396 . S
C74 C86 1.453 . S
C74 C87 1.684 . S
H75 C99 0.948 . S
C76 C72 1.397 . S
C76 C77 1.394 . S
C76 C95 1.723 . S
C77 C74 1.396 . S
C77 C76 1.394 . S
C77 C107 1.723 1_545 S
H78 C101 0.947 . S
H79 C102 0.948 . S
H80 C108 0.982 . S
H81 C109 0.979 . S
H82 C109 0.980 . S
H83 C109 0.983 . S
H84 C108 0.979 . S
H85 C108 0.977 . S
C86 C74 1.453 . S
C86 H115 0.982 . S
C86 H116 0.979 . S
C86 H117 0.977 1_545 S
C87 C74 1.684 . S
C87 H112 0.979 . S
C87 H113 0.980 . S
C87 H114 0.983 . S
C88 C89 1.391 . S
C88 C93 1.391 . S
C88 H118 0.948 . S
C89 C88 1.391 . S
C89 C90 1.391 1_545 S
C90 C89 1.391 1_565 S
C90 C91 1.392 . S
C90 H119 0.947 . S
C91 C90 1.392 . S
C91 C92 1.419 . S
C91 H120 0.948 . S
C92 C91 1.419 . S
C92 C93 1.391 1_565 S
C92 C96 1.397 1_565 S
C93 C88 1.391 . S
C93 C92 1.391 1_545 S
C93 C94 1.399 . S
C94 C93 1.399 . S
C94 C95 1.396 . S
C94 C97 1.453 . S
C94 C98 1.684 . S
C95 C76 1.723 . S
C95 C94 1.396 . S
C95 C96 1.405 . S
C96 C92 1.397 1_545 S
C96 C95 1.405 . S
C96 C106 1.713 1_545 S
C97 C94 1.453 . S
C97 H121 0.982 . S
C97 H122 0.979 . S
C97 H123 0.977 . S
C98 C94 1.684 . S
C98 H124 0.979 . S
C98 H125 0.980 . S
C98 H126 0.983 . S
C99 H75 0.948 . S
C99 C100 1.391 . S
C99 C104 1.391 . S
C100 C99 1.391 . S
C100 C101 1.391 . S
C101 H78 0.947 . S
C101 C100 1.391 . S
C101 C102 1.392 . S
C102 H79 0.948 . S
C102 C101 1.392 . S
C102 C103 1.419 . S
C103 C102 1.419 . S
C103 C104 1.391 . S
C103 C107 1.397 . S
C104 C99 1.391 . S
C104 C103 1.391 . S
C104 C105 1.399 . S
C105 C104 1.399 . S
C105 C106 1.396 . S
C105 C108 1.453 . S
C105 C109 1.684 . S
C106 C96 1.713 1_565 S
C106 C105 1.396 . S
C106 C107 1.394 . S
C107 C77 1.723 1_565 S
C107 C103 1.397 . S
C107 C106 1.394 . S
C108 H80 0.982 . S
C108 H84 0.979 . S
C108 H85 0.977 . S
C108 C105 1.453 . S
C109 H81 0.979 . S
C109 H82 0.980 . S
C109 H83 0.983 . S
C109 C105 1.684 . S
H110 C128 0.948 . S
H111 C69 0.948 . S
H112 C87 0.979 . S
H113 C87 0.980 . S
H114 C87 0.983 . S
H115 C86 0.982 . S
H116 C86 0.979 . S
H117 C86 0.977 1_565 S
H118 C88 0.948 . S
H119 C90 0.947 . S
H120 C91 0.948 . S
H121 C97 0.982 . S
H122 C97 0.979 . S
H123 C97 0.977 . S
H124 C98 0.979 . S
H125 C98 0.980 . S
H126 C98 0.983 . S
H127 C71 0.947 . S
C128 C71 1.392 . S
C128 C72 1.419 . S
C128 H110 0.948 . S
C129 C130 1.391 . S
C129 C133 1.391 . S
C129 H171 0.948 . S
C130 C129 1.391 . S
C130 C131 1.391 . S
C131 C130 1.391 . S
C131 H187 0.947 . S
C131 C188 1.392 . S
C132 C133 1.391 . S
C132 C136 1.397 . S
C132 C188 1.419 . S
C133 C129 1.391 . S
C133 C132 1.391 . S
C133 C134 1.399 . S
C134 C133 1.399 . S
C134 C137 1.396 . S
C134 C146 1.453 . S
C134 C147 1.684 . S
H135 C159 0.948 . S
C136 C132 1.397 . S
C136 C137 1.394 . S
C136 C155 1.723 . S
C137 C134 1.396 . S
C137 C136 1.394 . S
C137 C167 1.723 . S
H138 C161 0.947 . S
H139 C162 0.948 . S
H140 C168 0.982 . S
H141 C169 0.979 . S
H142 C169 0.980 . S
H143 C169 0.983 . S
H144 C168 0.979 . S
H145 C168 0.977 . S
C146 C134 1.453 . S
C146 H175 0.982 . S
C146 H176 0.979 . S
C146 H177 0.977 . S
C147 C134 1.684 . S
C147 H172 0.979 . S
C147 H173 0.980 . S
C147 H174 0.983 . S
C148 C149 1.391 . S
C148 C153 1.391 . S
C148 H178 0.948 . S
C149 C148 1.391 . S
C149 C150 1.391 . S
C150 C149 1.391 . S
C150 C151 1.392 . S
C150 H179 0.947 . S
C151 C150 1.392 . S
C151 C152 1.419 . S
C151 H180 0.948 . S
C152 C151 1.419 . S
C152 C153 1.391 . S
C152 C156 1.397 . S
C153 C148 1.391 . S
C153 C152 1.391 . S
C153 C154 1.399 . S
C154 C153 1.399 . S
C154 C155 1.396 . S
C154 C157 1.453 . S
C154 C158 1.684 . S
C155 C136 1.723 . S
C155 C154 1.396 . S
C155 C156 1.394 . S
C156 C152 1.397 . S
C156 C155 1.394 . S
C156 C166 1.723 . S
C157 C154 1.453 . S
C157 H181 0.982 . S
C157 H182 0.979 . S
C157 H183 0.977 . S
C158 C154 1.684 . S
C158 H184 0.979 . S
C158 H185 0.980 . S
C158 H186 0.983 . S
C159 H135 0.948 . S
C159 C160 1.391 . S
C159 C164 1.391 . S
C160 C159 1.391 . S
C160 C161 1.391 . S
C161 H138 0.947 . S
C161 C160 1.391 . S
C161 C162 1.392 . S
C162 H139 0.948 . S
C162 C161 1.392 . S
C162 C163 1.419 . S
C163 C162 1.419 . S
C163 C164 1.391 . S
C163 C167 1.397 . S
C164 C159 1.391 . S
C164 C163 1.391 . S
C164 C165 1.399 . S
C165 C164 1.399 . S
C165 C166 1.396 . S
C165 C168 1.453 . S
C165 C169 1.684 . S
C166 C156 1.723 . S
C166 C165 1.396 . S
C166 C167 1.394 . S
C167 C137 1.723 . S
C167 C163 1.397 . S
C167 C166 1.394 . S
C168 H140 0.982 . S
C168 H144 0.979 . S
C168 H145 0.977 . S
C168 C165 1.453 . S
C169 H141 0.979 . S
C169 H142 0.980 . S
C169 H143 0.983 . S
C169 C165 1.684 . S
H170 C188 0.948 . S
H171 C129 0.948 . S
H172 C147 0.979 . S
H173 C147 0.980 . S
H174 C147 0.983 . S
H175 C146 0.982 . S
H176 C146 0.979 . S
H177 C146 0.977 . S
H178 C148 0.948 . S
H179 C150 0.947 . S
H180 C151 0.948 . S
H181 C157 0.982 . S
H182 C157 0.979 . S
H183 C157 0.977 . S
H184 C158 0.979 . S
H185 C158 0.980 . S
H186 C158 0.983 . S
H187 C131 0.947 . S
C188 C131 1.392 . S
C188 C132 1.419 . S
C188 H170 0.948 . S
C189 C190 1.391 . S
C189 C193 1.391 . S
C189 H231 0.948 . S
C190 C189 1.391 . S
C190 C191 1.391 . S
C191 C190 1.391 . S
C191 H247 0.947 . S
C191 C248 1.392 . S
C192 C193 1.391 . S
C192 C196 1.397 . S
C192 C248 1.419 . S
C193 C189 1.391 . S
C193 C192 1.391 . S
C193 C194 1.399 . S
C194 C193 1.399 . S
C194 C197 1.396 . S
C194 C206 1.453 . S
C194 C207 1.684 . S
H195 C219 0.948 . S
C196 C192 1.397 . S
C196 C197 1.394 . S
C196 C215 1.723 . S
C197 C194 1.396 . S
C197 C196 1.394 . S
C197 C227 1.723 1_455 S
H198 C221 0.947 . S
H199 C222 0.948 . S
H200 C228 0.982 . S
H201 C229 0.979 . S
H202 C229 0.980 . S
H203 C229 0.983 . S
H204 C228 0.979 . S
H205 C228 0.977 . S
C206 C194 1.453 . S
C206 H235 0.982 . S
C206 H236 0.979 . S
C206 H237 0.977 1_455 S
C207 C194 1.684 . S
C207 H232 0.979 . S
C207 H233 0.980 . S
C207 H234 0.983 . S
C208 C209 1.391 1_556 S
C208 C213 1.391 . S
C208 H238 0.934 1_556 S
C209 C208 1.391 1_554 S
C209 C210 1.391 1_454 S
C210 C209 1.391 1_656 S
C210 C211 1.392 . S
C210 H239 0.947 1_556 S
C211 C210 1.392 . S
C211 C212 1.419 1_655 S
C211 H240 0.948 . S
C212 C211 1.419 1_455 S
C212 C213 1.391 . S
C212 C216 1.397 . S
C213 C208 1.391 . S
C213 C212 1.391 . S
C213 C214 1.399 . S
C214 C213 1.399 . S
C214 C215 1.396 . S
C214 C217 1.453 . S
C214 C218 1.684 . S
C215 C196 1.723 . S
C215 C214 1.396 . S
C215 C216 1.394 . S
C216 C212 1.397 . S
C216 C215 1.394 . S
C216 C226 1.723 1_455 S
C217 C214 1.453 . S
C217 H241 0.982 . S
C217 H242 0.979 . S
C217 H243 0.977 . S
C218 C214 1.684 . S
C218 H244 0.979 . S
C218 H245 0.980 . S
C218 H246 0.983 . S
C219 H195 0.948 . S
C219 C220 1.391 . S
C219 C224 1.391 . S
C220 C219 1.391 . S
C220 C221 1.391 . S
C221 H198 0.947 . S
C221 C220 1.391 . S
C221 C222 1.392 . S
C222 H199 0.948 . S
C222 C221 1.392 . S
C222 C223 1.419 . S
C223 C222 1.419 . S
C223 C224 1.391 . S
C223 C227 1.397 . S
C224 C219 1.391 . S
C224 C223 1.391 . S
C224 C225 1.399 . S
C225 C224 1.399 . S
C225 C226 1.396 . S
C225 C228 1.453 . S
C225 C229 1.684 . S
C226 C216 1.723 1_655 S
C226 C225 1.396 . S
C226 C227 1.394 . S
C227 C197 1.723 1_655 S
C227 C223 1.397 . S
C227 C226 1.394 . S
C228 H200 0.982 . S
C228 H204 0.979 . S
C228 H205 0.977 . S
C228 C225 1.453 . S
C229 H201 0.979 . S
C229 H202 0.980 . S
C229 H203 0.983 . S
C229 C225 1.684 . S
H230 C248 0.948 . S
H231 C189 0.948 . S
H232 C207 0.979 . S
H233 C207 0.980 . S
H234 C207 0.983 . S
H235 C206 0.982 . S
H236 C206 0.979 . S
H237 C206 0.977 1_655 S
H238 C208 0.934 1_554 S
H239 C210 0.947 1_554 S
H240 C211 0.948 . S
H241 C217 0.982 . S
H242 C217 0.979 . S
H243 C217 0.977 . S
H244 C218 0.979 . S
H245 C218 0.980 . S
H246 C218 0.983 . S
H247 C191 0.947 . S
C248 C191 1.392 . S
C248 C192 1.419 . S
C248 H230 0.948 . S
C249 C250 1.391 . S
C249 C253 1.391 . S
C249 H291 0.948 . S
C250 C249 1.391 . S
C250 C251 1.391 . S
C251 C250 1.391 . S
C251 H307 0.947 . S
C251 C308 1.392 . S
C252 C253 1.391 . S
C252 C256 1.397 . S
C252 C308 1.419 . S
C253 C249 1.391 . S
C253 C252 1.391 . S
C253 C254 1.399 . S
C254 C253 1.399 . S
C254 C257 1.396 . S
C254 C266 1.453 . S
C254 C267 1.684 . S
H255 C279 0.948 . S
C256 C252 1.397 . S
C256 C257 1.394 . S
C256 C275 1.723 . S
C257 C254 1.396 . S
C257 C256 1.394 . S
C257 C287 1.723 1_655 S
H258 C281 0.947 . S
H259 C282 0.948 . S
H260 C288 0.982 . S
H261 C289 0.979 . S
H262 C289 0.980 . S
H263 C289 0.983 . S
H264 C288 0.979 . S
H265 C288 0.977 . S
C266 C254 1.453 . S
C266 H295 0.982 1_655 S
C266 H296 0.979 . S
C266 H297 0.977 1_655 S
C267 C254 1.684 . S
C267 H292 0.979 . S
C267 H293 0.980 . S
C267 H294 0.983 . S
C268 C269 1.391 1_655 S
C268 C273 1.391 . S
C268 H298 0.948 . S
C269 C268 1.391 1_455 S
C269 C270 1.391 . S
C270 C269 1.391 . S
C270 C271 1.392 . S
C270 H299 0.947 . S
C271 C270 1.392 . S
C271 C272 1.419 . S
C271 H300 0.948 . S
C272 C271 1.419 . S
C272 C273 1.391 1_455 S
C272 C276 1.397 . S
C273 C268 1.391 . S
C273 C272 1.391 1_655 S
C273 C274 1.399 . S
C274 C273 1.399 . S
C274 C275 1.396 . S
C274 C277 1.453 . S
C274 C278 1.684 . S
C275 C256 1.723 . S
C275 C274 1.396 . S
C275 C276 1.394 1_655 S
C276 C272 1.397 . S
C276 C275 1.394 1_455 S
C276 C286 1.723 . S
C277 C274 1.453 . S
C277 H301 0.982 . S
C277 H302 0.979 . S
C277 H303 0.977 . S
C278 C274 1.684 . S
C278 H304 0.979 . S
C278 H305 0.980 . S
C278 H306 0.983 . S
C279 H255 0.948 . S
C279 C280 1.391 . S
C279 C284 1.391 . S
C280 C279 1.391 . S
C280 C281 1.391 . S
C281 H258 0.947 . S
C281 C280 1.391 . S
C281 C282 1.392 . S
C282 H259 0.948 . S
C282 C281 1.392 . S
C282 C283 1.419 . S
C283 C282 1.419 . S
C283 C284 1.391 . S
C283 C287 1.397 . S
C284 C279 1.391 . S
C284 C283 1.391 . S
C284 C285 1.399 . S
C285 C284 1.399 . S
C285 C286 1.396 . S
C285 C288 1.453 . S
C285 C289 1.684 . S
C286 C276 1.723 . S
C286 C285 1.396 . S
C286 C287 1.394 . S
C287 C257 1.723 1_455 S
C287 C283 1.397 . S
C287 C286 1.394 . S
C288 H260 0.982 . S
C288 H264 0.979 . S
C288 H265 0.977 . S
C288 C285 1.453 . S
C289 H261 0.979 . S
C289 H262 0.980 . S
C289 H263 0.983 . S
C289 C285 1.684 . S
H290 C308 0.948 . S
H291 C249 0.948 . S
H292 C267 0.979 . S
H293 C267 0.980 . S
H294 C267 0.983 . S
H295 C266 0.982 1_455 S
H296 C266 0.979 . S
H297 C266 0.977 1_455 S
H298 C268 0.948 . S
H299 C270 0.947 . S
H300 C271 0.948 . S
H301 C277 0.982 . S
H302 C277 0.979 . S
H303 C277 0.977 . S
H304 C278 0.979 . S
H305 C278 0.980 . S
H306 C278 0.983 . S
H307 C251 0.947 . S
C308 C251 1.392 . S
C308 C252 1.419 . S
C308 H290 0.948 . S
C309 C310 1.391 . S
C309 C313 1.391 . S
C309 H351 0.948 . S
C310 C309 1.391 . S
C310 C311 1.391 . S
C311 C310 1.391 . S
C311 H367 0.947 . S
C311 C368 1.392 . S
C312 C313 1.391 . S
C312 C316 1.397 . S
C312 C368 1.419 . S
C313 C309 1.391 . S
C313 C312 1.391 . S
C313 C314 1.399 . S
C314 C313 1.399 . S
C314 C317 1.396 . S
C314 C326 1.453 . S
C314 C327 1.684 . S
H315 C339 0.948 . S
C316 C312 1.397 . S
C316 C317 1.394 . S
C316 C335 1.723 . S
C317 C314 1.396 . S
C317 C316 1.394 . S
C317 C347 1.723 1_565 S
H318 C341 0.947 . S
H319 C342 0.948 . S
H320 C348 0.982 . S
H321 C349 0.979 . S
H322 C349 0.980 . S
H323 C349 0.983 . S
H324 C348 0.979 . S
H325 C348 0.977 . S
C326 C314 1.453 . S
C326 H355 0.982 1_565 S
C326 H356 0.979 . S
C326 H357 0.977 1_565 S
C327 C314 1.684 . S
C327 H352 0.979 . S
C327 H353 0.980 . S
C327 H354 0.983 . S
C328 C329 1.391 1_565 S
C328 C333 1.391 . S
C328 H358 0.948 . S
C329 C328 1.391 1_545 S
C329 C330 1.391 . S
C330 C329 1.391 . S
C330 C331 1.392 . S
C330 H359 0.947 . S
C331 C330 1.392 . S
C331 C332 1.419 . S
C331 H360 0.948 . S
C332 C331 1.419 . S
C332 C333 1.391 1_545 S
C332 C336 1.397 . S
C333 C328 1.391 . S
C333 C332 1.391 1_565 S
C333 C334 1.399 . S
C334 C333 1.399 . S
C334 C335 1.396 . S
C334 C337 1.453 . S
C334 C338 1.684 . S
C335 C316 1.723 . S
C335 C334 1.396 . S
C335 C336 1.394 1_565 S
C336 C332 1.397 . S
C336 C335 1.394 1_545 S
C336 C346 1.723 . S
C337 C334 1.453 . S
C337 H361 0.982 . S
C337 H362 0.979 . S
C337 H363 0.977 . S
C338 C334 1.684 . S
C338 H364 0.979 . S
C338 H365 0.980 . S
C338 H366 0.983 . S
C339 H315 0.948 . S
C339 C340 1.391 . S
C339 C344 1.391 . S
C340 C339 1.391 . S
C340 C341 1.391 . S
C341 H318 0.947 . S
C341 C340 1.391 . S
C341 C342 1.392 . S
C342 H319 0.948 . S
C342 C341 1.392 . S
C342 C343 1.419 . S
C343 C342 1.419 . S
C343 C344 1.391 . S
C343 C347 1.397 . S
C344 C339 1.391 . S
C344 C343 1.391 . S
C344 C345 1.399 . S
C345 C344 1.399 . S
C345 C346 1.396 . S
C345 C348 1.453 . S
C345 C349 1.684 . S
C346 C336 1.723 . S
C346 C345 1.396 . S
C346 C347 1.394 . S
C347 C317 1.723 1_545 S
C347 C343 1.397 . S
C347 C346 1.394 . S
C348 H320 0.982 . S
C348 H324 0.979 . S
C348 H325 0.977 . S
C348 C345 1.453 . S
C349 H321 0.979 . S
C349 H322 0.980 . S
C349 H323 0.983 . S
C349 C345 1.684 . S
H350 C368 0.948 . S
H351 C309 0.948 . S
H352 C327 0.979 . S
H353 C327 0.980 . S
H354 C327 0.983 . S
H355 C326 0.982 1_545 S
H356 C326 0.979 . S
H357 C326 0.977 1_545 S
H358 C328 0.948 . S
H359 C330 0.947 . S
H360 C331 0.948 . S
H361 C337 0.982 . S
H362 C337 0.979 . S
H363 C337 0.977 . S
H364 C338 0.979 . S
H365 C338 0.980 . S
H366 C338 0.983 . S
H367 C311 0.947 . S
C368 C311 1.392 . S
C368 C312 1.419 . S
C368 H350 0.948 . S
C369 C370 1.391 . S
C369 C373 1.391 . S
C369 H411 0.948 . S
C370 C369 1.391 . S
C370 C371 1.391 . S
C371 C370 1.391 . S
C371 H427 0.947 . S
C371 C428 1.392 . S
C372 C373 1.391 . S
C372 C376 1.397 . S
C372 C428 1.419 . S
C373 C369 1.391 . S
C373 C372 1.391 . S
C373 C374 1.399 . S
C374 C373 1.399 . S
C374 C377 1.396 . S
C374 C386 1.453 . S
C374 C387 1.684 . S
H375 C399 0.948 . S
C376 C372 1.397 . S
C376 C377 1.394 . S
C376 C395 1.723 . S
C377 C374 1.396 . S
C377 C376 1.394 . S
C377 C407 1.723 . S
H378 C401 0.947 . S
H379 C402 0.948 . S
H380 C408 0.982 . S
H381 C409 0.979 . S
H382 C409 0.980 . S
H383 C409 0.983 . S
H384 C408 0.979 . S
H385 C408 0.977 . S
C386 C374 1.453 . S
C386 H415 0.982 . S
C386 H416 0.979 . S
C386 H417 0.977 . S
C387 C374 1.684 . S
C387 H412 0.979 . S
C387 H413 0.980 . S
C387 H414 0.983 . S
C388 C389 1.391 1_554 S
C388 C393 1.391 . S
C388 H418 0.935 1_554 S
C389 C388 1.391 1_556 S
C389 C390 1.391 1_556 S
C390 C389 1.391 1_554 S
C390 C391 1.392 . S
C390 H419 0.947 1_554 S
C391 C390 1.392 . S
C391 C392 1.419 . S
C391 H420 0.948 . S
C392 C391 1.419 . S
C392 C393 1.391 . S
C392 C396 1.397 . S
C393 C388 1.391 . S
C393 C392 1.391 . S
C393 C394 1.399 . S
C394 C393 1.399 . S
C394 C395 1.396 . S
C394 C397 1.453 . S
C394 C398 1.684 . S
C395 C376 1.723 . S
C395 C394 1.396 . S
C395 C396 1.394 . S
C396 C392 1.397 . S
C396 C395 1.394 . S
C396 C406 1.723 . S
C397 C394 1.453 . S
C397 H421 0.982 . S
C397 H422 0.979 . S
C397 H423 0.977 . S
C398 C394 1.684 . S
C398 H424 0.979 . S
C398 H425 0.980 . S
C398 H426 0.983 . S
C399 H375 0.948 . S
C399 C400 1.391 . S
C399 C404 1.391 . S
C400 C399 1.391 . S
C400 C401 1.391 . S
C401 H378 0.947 . S
C401 C400 1.391 . S
C401 C402 1.392 . S
C402 H379 0.948 . S
C402 C401 1.392 . S
C402 C403 1.419 . S
C403 C402 1.419 . S
C403 C404 1.391 . S
C403 C407 1.397 . S
C404 C399 1.391 . S
C404 C403 1.391 . S
C404 C405 1.399 . S
C405 C404 1.399 . S
C405 C406 1.396 . S
C405 C408 1.453 . S
C405 C409 1.684 . S
C406 C396 1.723 . S
C406 C405 1.396 . S
C406 C407 1.394 . S
C407 C377 1.723 . S
C407 C403 1.397 . S
C407 C406 1.394 . S
C408 H380 0.982 . S
C408 H384 0.979 . S
C408 H385 0.977 . S
C408 C405 1.453 . S
C409 H381 0.979 . S
C409 H382 0.980 . S
C409 H383 0.983 . S
C409 C405 1.684 . S
H410 C428 0.948 . S
H411 C369 0.948 . S
H412 C387 0.979 . S
H413 C387 0.980 . S
H414 C387 0.983 . S
H415 C386 0.982 . S
H416 C386 0.979 . S
H417 C386 0.977 . S
H418 C388 0.935 1_556 S
H419 C390 0.947 1_556 S
H420 C391 0.948 . S
H421 C397 0.982 . S
H422 C397 0.979 . S
H423 C397 0.977 . S
H424 C398 0.979 . S
H425 C398 0.980 . S
H426 C398 0.983 . S
H427 C371 0.947 . S
C428 C371 1.392 . S
C428 C372 1.419 . S
C428 H410 0.948 . S
C429 C430 1.363 . S
C429 C435 1.379 . S
C429 N437 1.356 . S
C430 C429 1.363 . S
C430 C436 1.363 . S
C431 C432 1.363 . S
C431 C436 1.379 . S
C431 N438 1.356 . S
C432 C431 1.363 . S
C432 C435 1.363 . S
N433 C435 1.356 . S
N433 H445 0.984 . S
N433 H446 0.985 . S
N434 C436 1.356 . S
N434 H439 0.984 . S
N434 H440 0.985 . S
C435 C429 1.379 . S
C435 C432 1.363 . S
C435 N433 1.356 . S
C436 C430 1.363 . S
C436 C431 1.379 . S
C436 N434 1.356 . S
N437 C429 1.356 . S
N437 H443 0.984 . S
N437 H444 0.984 . S
N438 C431 1.356 . S
N438 H441 0.984 . S
N438 H442 0.985 . S
H439 N434 0.984 . S
H440 N434 0.985 . S
H441 N438 0.984 . S
H442 N438 0.985 . S
H443 N437 0.984 . S
H444 N437 0.984 . S
H445 N433 0.984 . S
H446 N433 0.985 . S
C447 C448 1.363 . S
C447 C453 1.379 . S
C447 N455 1.356 . S
C448 C447 1.363 . S
C448 C454 1.363 . S
C449 C450 1.363 . S
C449 C454 1.379 . S
C449 N456 1.356 . S
C450 C449 1.363 . S
C450 C453 1.363 . S
N451 C453 1.356 . S
N451 H463 0.984 . S
N451 H464 0.985 . S
N452 C454 1.356 . S
N452 H457 0.984 . S
N452 H458 0.985 . S
C453 C447 1.379 . S
C453 C450 1.363 . S
C453 N451 1.356 . S
C454 C448 1.363 . S
C454 C449 1.379 . S
C454 N452 1.356 . S
N455 C447 1.356 . S
N455 H461 0.984 . S
N455 H462 0.984 . S
N456 C449 1.356 . S
N456 H459 0.984 . S
N456 H460 0.985 . S
H457 N452 0.984 . S
H458 N452 0.985 . S
H459 N456 0.984 . S
H460 N456 0.985 . S
H461 N455 0.984 . S
H462 N455 0.984 . S
H463 N451 0.984 . S
H464 N451 0.985 . S
C465 C466 1.363 . S
C465 C471 1.379 . S
C465 N473 1.356 . S
C466 C465 1.363 . S
C466 C472 1.363 . S
C467 C468 1.363 . S
C467 C472 1.379 . S
C467 N474 1.356 . S
C468 C467 1.363 . S
C468 C471 1.363 . S
N469 C471 1.356 . S
N469 H481 0.984 . S
N469 H482 0.985 . S
N470 C472 1.356 . S
N470 H475 0.984 . S
N470 H476 0.985 . S
C471 C465 1.379 . S
C471 C468 1.363 . S
C471 N469 1.356 . S
C472 C466 1.363 . S
C472 C467 1.379 . S
C472 N470 1.356 . S
N473 C465 1.356 . S
N473 H479 0.984 . S
N473 H480 0.984 . S
N474 C467 1.356 . S
N474 H477 0.984 . S
N474 H478 0.985 . S
H475 N470 0.984 . S
H476 N470 0.985 . S
H477 N474 0.984 . S
H478 N474 0.985 . S
H479 N473 0.984 . S
H480 N473 0.984 . S
H481 N469 0.984 . S
H482 N469 0.985 . S
C483 C484 1.363 . S
C483 C489 1.379 . S
C483 N491 1.356 . S
C484 C483 1.363 . S
C484 C490 1.363 . S
C485 C486 1.363 . S
C485 C490 1.379 . S
C485 N492 1.356 . S
C486 C485 1.363 . S
C486 C489 1.363 . S
N487 C489 1.356 . S
N487 H499 0.984 . S
N487 H500 0.985 . S
N488 C490 1.356 . S
N488 H493 0.984 . S
N488 H494 0.985 . S
C489 C483 1.379 . S
C489 C486 1.363 . S
C489 N487 1.356 . S
C490 C484 1.363 . S
C490 C485 1.379 . S
C490 N488 1.356 . S
N491 C483 1.356 . S
N491 H497 0.984 . S
N491 H498 0.984 . S
N492 C485 1.356 . S
N492 H495 0.984 . S
N492 H496 0.985 . S
H493 N488 0.984 . S
H494 N488 0.985 . S
H495 N492 0.984 . S
H496 N492 0.985 . S
H497 N491 0.984 . S
H498 N491 0.984 . S
H499 N487 0.984 . S
H500 N487 0.985 . S
C501 C502 1.363 . S
C501 C507 1.379 . S
C501 N509 1.356 . S
C502 C501 1.363 . S
C502 C508 1.363 . S
C503 C504 1.363 . S
C503 C508 1.379 . S
C503 N510 1.356 . S
C504 C503 1.363 . S
C504 C507 1.363 . S
N505 C507 1.356 . S
N505 H517 0.984 . S
N505 H518 0.985 . S
N506 C508 1.356 . S
N506 H511 0.984 . S
N506 H512 0.985 . S
C507 C501 1.379 . S
C507 C504 1.363 . S
C507 N505 1.356 . S
C508 C502 1.363 . S
C508 C503 1.379 . S
C508 N506 1.356 . S
N509 C501 1.356 . S
N509 H515 0.984 . S
N509 H516 0.984 . S
N510 C503 1.356 . S
N510 H513 0.984 . S
N510 H514 0.985 . S
H511 N506 0.984 . S
H512 N506 0.985 . S
H513 N510 0.984 . S
H514 N510 0.985 . S
H515 N509 0.984 . S
H516 N509 0.984 . S
H517 N505 0.984 . S
H518 N505 0.985 . S
C519 C520 1.363 . S
C519 C525 1.379 . S
C519 N527 1.356 . S
C520 C519 1.363 . S
C520 C526 1.363 . S
C521 C522 1.363 . S
C521 C526 1.379 . S
C521 N528 1.356 . S
C522 C521 1.363 . S
C522 C525 1.363 . S
N523 C525 1.356 . S
N523 H535 0.984 . S
N523 H536 0.985 . S
N524 C526 1.356 . S
N524 H529 0.984 . S
N524 H530 0.985 . S
C525 C519 1.379 . S
C525 C522 1.363 . S
C525 N523 1.356 . S
C526 C520 1.363 . S
C526 C521 1.379 . S
C526 N524 1.356 . S
N527 C519 1.356 . S
N527 H533 0.984 . S
N527 H534 0.984 . S
N528 C521 1.356 . S
N528 H531 0.984 . S
N528 H532 0.985 . S
H529 N524 0.984 . S
H530 N524 0.985 . S
H531 N528 0.984 . S
H532 N528 0.985 . S
H533 N527 0.984 . S
H534 N527 0.984 . S
H535 N523 0.984 . S
H536 N523 0.985 . S
C537 C538 1.363 . S
C537 C543 1.379 . S
C537 N545 1.356 . S
C538 C537 1.363 . S
C538 C544 1.363 . S
C539 C540 1.363 . S
C539 C544 1.379 . S
C539 N546 1.356 . S
C540 C539 1.363 . S
C540 C543 1.363 . S
N541 C543 1.356 . S
N541 H553 0.984 . S
N541 H554 0.985 . S
N542 C544 1.356 . S
N542 H547 0.984 . S
N542 H548 0.985 . S
C543 C537 1.379 . S
C543 C540 1.363 . S
C543 N541 1.356 . S
C544 C538 1.363 . S
C544 C539 1.379 . S
C544 N542 1.356 . S
N545 C537 1.356 . S
N545 H551 0.984 . S
N545 H552 0.984 . S
N546 C539 1.356 . S
N546 H549 0.984 . S
N546 H550 0.985 . S
H547 N542 0.984 . S
H548 N542 0.985 . S
H549 N546 0.984 . S
H550 N546 0.985 . S
H551 N545 0.984 . S
H552 N545 0.984 . S
H553 N541 0.984 . S
H554 N541 0.985 . S
C555 C556 1.363 . S
C555 C561 1.379 . S
C555 N563 1.356 . S
C556 C555 1.363 . S
C556 C562 1.363 . S
C557 C558 1.363 . S
C557 C562 1.379 . S
C557 N564 1.356 . S
C558 C557 1.363 . S
C558 C561 1.363 . S
N559 C561 1.356 . S
N559 H571 0.984 . S
N559 H572 0.985 . S
N560 C562 1.356 . S
N560 H565 0.984 . S
N560 H566 0.985 . S
C561 C555 1.379 . S
C561 C558 1.363 . S
C561 N559 1.356 . S
C562 C556 1.363 . S
C562 C557 1.379 . S
C562 N560 1.356 . S
N563 C555 1.356 . S
N563 H569 0.984 . S
N563 H570 0.984 . S
N564 C557 1.356 . S
N564 H567 0.984 . S
N564 H568 0.985 . S
H565 N560 0.984 . S
H566 N560 0.985 . S
H567 N564 0.984 . S
H568 N564 0.985 . S
H569 N563 0.984 . S
H570 N563 0.984 . S
H571 N559 0.984 . S
H572 N559 0.985 . S
C573 C574 1.363 . S
C573 C579 1.379 . S
C573 N581 1.356 . S
C574 C573 1.363 . S
C574 C580 1.363 . S
C575 C576 1.363 . S
C575 C580 1.379 . S
C575 N582 1.356 . S
C576 C575 1.363 . S
C576 C579 1.363 . S
N577 C579 1.356 . S
N577 H589 0.984 . S
N577 H590 0.985 . S
N578 C580 1.356 . S
N578 H583 0.984 . S
N578 H584 0.985 . S
C579 C573 1.379 . S
C579 C576 1.363 . S
C579 N577 1.356 . S
C580 C574 1.363 . S
C580 C575 1.379 . S
C580 N578 1.356 . S
N581 C573 1.356 . S
N581 H587 0.984 . S
N581 H588 0.984 . S
N582 C575 1.356 . S
N582 H585 0.984 . S
N582 H586 0.985 . S
H583 N578 0.984 . S
H584 N578 0.985 . S
H585 N582 0.984 . S
H586 N582 0.985 . S
H587 N581 0.984 . S
H588 N581 0.984 . S
H589 N577 0.984 . S
H590 N577 0.985 . S
C591 C592 1.363 . S
C591 C597 1.379 . S
C591 N599 1.356 . S
C592 C591 1.363 . S
C592 C598 1.363 . S
C593 C594 1.363 . S
C593 C598 1.379 . S
C593 N600 1.356 . S
C594 C593 1.363 . S
C594 C597 1.363 . S
N595 C597 1.356 . S
N595 H607 0.984 . S
N595 H608 0.985 . S
N596 C598 1.356 . S
N596 H601 0.984 . S
N596 H602 0.985 . S
C597 C591 1.379 . S
C597 C594 1.363 . S
C597 N595 1.356 . S
C598 C592 1.363 . S
C598 C593 1.379 . S
C598 N596 1.356 . S
N599 C591 1.356 . S
N599 H605 0.984 . S
N599 H606 0.984 . S
N600 C593 1.356 . S
N600 H603 0.984 . S
N600 H604 0.985 . S
H601 N596 0.984 . S
H602 N596 0.985 . S
H603 N600 0.984 . S
H604 N600 0.985 . S
H605 N599 0.984 . S
H606 N599 0.984 . S
H607 N595 0.984 . S
H608 N595 0.985 . S
C609 C610 1.363 . S
C609 C615 1.379 . S
C609 N617 1.356 . S
C610 C609 1.363 . S
C610 C616 1.363 . S
C611 C612 1.363 . S
C611 C616 1.379 . S
C611 N618 1.356 . S
C612 C611 1.363 . S
C612 C615 1.363 . S
N613 C615 1.356 . S
N613 H625 0.984 . S
N613 H626 0.985 . S
N614 C616 1.356 . S
N614 H619 0.984 . S
N614 H620 0.985 . S
C615 C609 1.379 . S
C615 C612 1.363 . S
C615 N613 1.356 . S
C616 C610 1.363 . S
C616 C611 1.379 . S
C616 N614 1.356 . S
N617 C609 1.356 . S
N617 H623 0.984 . S
N617 H624 0.984 . S
N618 C611 1.356 . S
N618 H621 0.984 . S
N618 H622 0.985 . S
H619 N614 0.984 . S
H620 N614 0.985 . S
H621 N618 0.984 . S
H622 N618 0.985 . S
H623 N617 0.984 . S
H624 N617 0.984 . S
H625 N613 0.984 . S
H626 N613 0.985 . S
C627 C628 1.363 . S
C627 C633 1.379 . S
C627 N635 1.356 . S
C628 C627 1.363 . S
C628 C634 1.363 . S
C629 C630 1.363 . S
C629 C634 1.379 . S
C629 N636 1.356 . S
C630 C629 1.363 . S
C630 C633 1.363 . S
N631 C633 1.356 . S
N631 H643 0.984 . S
N631 H644 0.985 . S
N632 C634 1.356 . S
N632 H637 0.984 . S
N632 H638 0.985 . S
C633 C627 1.379 . S
C633 C630 1.363 . S
C633 N631 1.356 . S
C634 C628 1.363 . S
C634 C629 1.379 . S
C634 N632 1.356 . S
N635 C627 1.356 . S
N635 H641 0.984 . S
N635 H642 0.984 . S
N636 C629 1.356 . S
N636 H639 0.984 . S
N636 H640 0.985 . S
H637 N632 0.984 . S
H638 N632 0.985 . S
H639 N636 0.984 . S
H640 N636 0.985 . S
H641 N635 0.984 . S
H642 N635 0.984 . S
H643 N631 0.984 . S
H644 N631 0.985 . S
C645 C646 1.363 . S
C645 C651 1.379 . S
C645 N653 1.356 . S
C646 C645 1.363 . S
C646 C652 1.363 . S
C647 C648 1.363 . S
C647 C652 1.379 . S
C647 N654 1.356 . S
C648 C647 1.363 . S
C648 C651 1.363 . S
N649 C651 1.356 . S
N649 H661 0.984 . S
N649 H662 0.985 . S
N650 C652 1.356 . S
N650 H655 0.984 . S
N650 H656 0.985 . S
C651 C645 1.379 . S
C651 C648 1.363 . S
C651 N649 1.356 . S
C652 C646 1.363 . S
C652 C647 1.379 . S
C652 N650 1.356 . S
N653 C645 1.356 . S
N653 H659 0.984 . S
N653 H660 0.984 . S
N654 C647 1.356 . S
N654 H657 0.984 . S
N654 H658 0.985 . S
H655 N650 0.984 . S
H656 N650 0.985 . S
H657 N654 0.984 . S
H658 N654 0.985 . S
H659 N653 0.984 . S
H660 N653 0.984 . S
H661 N649 0.984 . S
H662 N649 0.985 . S
C663 C664 1.363 . S
C663 C669 1.379 . S
C663 N671 1.356 . S
C664 C663 1.363 . S
C664 C670 1.363 1_545 S
C665 C666 1.363 1_565 S
C665 C670 1.379 . S
C665 N672 1.356 . S
C666 C665 1.363 1_545 S
C666 C669 1.363 . S
N667 C669 1.356 . S
N667 H679 0.984 . S
N667 H680 0.985 . S
N668 C670 1.356 . S
N668 H673 0.984 . S
N668 H674 0.985 . S
C669 C663 1.379 . S
C669 C666 1.363 . S
C669 N667 1.356 . S
C670 C664 1.363 1_565 S
C670 C665 1.379 . S
C670 N668 1.356 . S
N671 C663 1.356 . S
N671 H677 0.984 . S
N671 H678 0.984 . S
N672 C665 1.356 . S
N672 H675 0.984 . S
N672 H676 0.985 . S
H673 N668 0.984 . S
H674 N668 0.985 . S
H675 N672 0.984 . S
H676 N672 0.985 . S
H677 N671 0.984 . S
H678 N671 0.984 . S
H679 N667 0.984 . S
H680 N667 0.985 . S
C681 C682 1.363 . S
C681 C687 1.379 . S
C681 N689 1.356 . S
C682 C681 1.363 . S
C682 C688 1.363 . S
C683 C684 1.363 . S
C683 C688 1.379 . S
C683 N690 1.356 . S
C684 C683 1.363 . S
C684 C687 1.363 . S
N685 C687 1.356 . S
N685 H697 0.984 . S
N685 H698 0.985 . S
N686 C688 1.356 . S
N686 H691 0.984 . S
N686 H692 0.985 . S
C687 C681 1.379 . S
C687 C684 1.363 . S
C687 N685 1.356 . S
C688 C682 1.363 . S
C688 C683 1.379 . S
C688 N686 1.356 . S
N689 C681 1.356 . S
N689 H695 0.984 . S
N689 H696 0.984 . S
N690 C683 1.356 . S
N690 H693 0.984 . S
N690 H694 0.985 . S
H691 N686 0.984 . S
H692 N686 0.985 . S
H693 N690 0.984 . S
H694 N690 0.985 . S
H695 N689 0.984 . S
H696 N689 0.984 . S
H697 N685 0.984 . S
H698 N685 0.985 . S
C699 C700 1.363 1_565 S
C699 C705 1.379 . S
C699 N707 1.356 . S
C700 C699 1.363 1_545 S
C700 C706 1.363 . S
C701 C702 1.364 . S
C701 C706 1.379 . S
C701 N708 1.356 . S
C702 C701 1.364 . S
C702 C705 1.362 1_545 S
N703 C705 1.356 . S
N703 H715 0.984 . S
N703 H716 0.985 . S
N704 C706 1.356 . S
N704 H709 0.984 . S
N704 H710 0.985 . S
C705 C699 1.379 . S
C705 C702 1.362 1_565 S
C705 N703 1.356 . S
C706 C700 1.363 . S
C706 C701 1.379 . S
C706 N704 1.356 . S
N707 C699 1.356 . S
N707 H713 0.984 . S
N707 H714 0.984 . S
N708 C701 1.356 . S
N708 H711 0.984 . S
N708 H712 0.985 . S
H709 N704 0.984 . S
H710 N704 0.985 . S
H711 N708 0.984 . S
H712 N708 0.985 . S
H713 N707 0.984 . S
H714 N707 0.984 . S
H715 N703 0.984 . S
H716 N703 0.985 . S
C717 C718 1.363 . S
C717 C723 1.379 . S
C717 N725 1.356 . S
C718 C717 1.363 . S
C718 C724 1.363 . S
C719 C720 1.363 . S
C719 C724 1.379 . S
C719 N726 1.356 . S
C720 C719 1.363 . S
C720 C723 1.363 . S
N721 C723 1.356 . S
N721 H733 0.984 . S
N721 H734 0.985 . S
N722 C724 1.356 . S
N722 H727 0.984 . S
N722 H728 0.985 . S
C723 C717 1.379 . S
C723 C720 1.363 . S
C723 N721 1.356 . S
C724 C718 1.363 . S
C724 C719 1.379 . S
C724 N722 1.356 . S
N725 C717 1.356 . S
N725 H731 0.984 . S
N725 H732 0.984 . S
N726 C719 1.356 . S
N726 H729 0.984 . S
N726 H730 0.985 . S
H727 N722 0.984 . S
H728 N722 0.985 . S
H729 N726 0.984 . S
H730 N726 0.985 . S
H731 N725 0.984 . S
H732 N725 0.984 . S
H733 N721 0.984 . S
H734 N721 0.985 . S
C735 C736 1.363 . S
C735 C741 1.379 . S
C735 N743 1.356 . S
C736 C735 1.363 . S
C736 C742 1.363 1_455 S
C737 C738 1.363 1_655 S
C737 C742 1.379 . S
C737 N744 1.356 . S
C738 C737 1.363 1_455 S
C738 C741 1.363 . S
N739 C741 1.356 . S
N739 H751 0.984 . S
N739 H752 0.985 . S
N740 C742 1.356 . S
N740 H745 0.984 . S
N740 H746 0.985 . S
C741 C735 1.379 . S
C741 C738 1.363 . S
C741 N739 1.356 . S
C742 C736 1.363 1_655 S
C742 C737 1.379 . S
C742 N740 1.356 . S
N743 C735 1.356 . S
N743 H749 0.984 . S
N743 H750 0.984 . S
N744 C737 1.356 . S
N744 H747 0.984 . S
N744 H748 0.985 . S
H745 N740 0.984 . S
H746 N740 0.985 . S
H747 N744 0.984 . S
H748 N744 0.985 . S
H749 N743 0.984 . S
H750 N743 0.984 . S
H751 N739 0.984 . S
H752 N739 0.985 . S
C430 C20 1.273 . S
C432 C400 1.319 . S
C448 C41 1.368 . S
C450 C250 1.310 . S
C466 C64 1.401 . S
C468 C310 1.346 . S
C484 C19 1.324 . S
C486 C370 1.352 . S
C504 C280 1.347 . S
C502 C44 1.348 . S
C522 C340 1.334 . S
C520 C67 1.330 . S
C538 C43 1.273 . S
C540 C130 1.279 . S
C556 C66 1.274 . S
C558 C220 1.320 . S
C574 C21 1.346 . S
C576 C100 1.346 . S
C594 C160 1.363 . S
C592 C42 1.310 . S
C612 C190 1.352 . S
C610 C65 1.324 . S
C628 C18 1.371 . S
C630 C70 1.314 . S
C648 C209 1.450 . S
C646 C17 1.471 . S
C664 C39 1.466 . S
C666 C89 1.443 . S
C682 C62 1.482 . S
C684 C149 1.455 . S
C702 C329 1.431 . S
C700 C40 1.453 . S
C720 C389 1.450 . S
C718 C63 1.471 . S
C736 C16 1.466 . S
C738 C269 1.443 . S
