# Generated by pormake.
# Topology zzz, (3,6)-cn, num edge types: 1
# Building blocks:
#     Node 0, Type 0, BuildingBlock: CUQRIR_clean_linker_1, # of connection points: 3
#     Node 1, Type 0, BuildingBlock: CUQRIR_clean_linker_1, # of connection points: 3
#     Node 2, Type 0, BuildingBlock: CUQRIR_clean_linker_1, # of connection points: 3
#     Node 3, Type 0, BuildingBlock: CUQRIR_clean_linker_1, # of connection points: 3
#     Node 4, Type 0, BuildingBlock: CUQRIR_clean_linker_1, # of connection points: 3
#     Node 5, Type 0, BuildingBlock: CUQRIR_clean_linker_1, # of connection points: 3
#     Node 6, Type 0, BuildingBlock: CUQRIR_clean_linker_1, # of connection points: 3
#     Node 7, Type 0, BuildingBlock: CUQRIR_clean_linker_1, # of connection points: 3
#     Node 8, Type 1, BuildingBlock: PAMTOO_clean_sbu_0, # of connection points: 6
#     Node 9, Type 1, BuildingBlock: PAMTOO_clean_sbu_0, # of connection points: 6
#     Node 10, Type 1, BuildingBlock: PAMTOO_clean_sbu_0, # of connection points: 6
#     Node 11, Type 1, BuildingBlock: PAMTOO_clean_sbu_0, # of connection points: 6
#     Edge 12, Type (0, 1), BuildingBlock: EZIPEK_clean_linker_0, # of connection points: 2
#     Edge 13, Type (0, 1), BuildingBlock: EZIPEK_clean_linker_0, # of connection points: 2
#     Edge 14, Type (0, 1), BuildingBlock: EZIPEK_clean_linker_0, # of connection points: 2
#     Edge 15, Type (0, 1), BuildingBlock: EZIPEK_clean_linker_0, # of connection points: 2
#     Edge 16, Type (0, 1), BuildingBlock: EZIPEK_clean_linker_0, # of connection points: 2
#     Edge 17, Type (0, 1), BuildingBlock: EZIPEK_clean_linker_0, # of connection points: 2
#     Edge 18, Type (0, 1), BuildingBlock: EZIPEK_clean_linker_0, # of connection points: 2
#     Edge 19, Type (0, 1), BuildingBlock: EZIPEK_clean_linker_0, # of connection points: 2
#     Edge 20, Type (0, 1), BuildingBlock: EZIPEK_clean_linker_0, # of connection points: 2
#     Edge 21, Type (0, 1), BuildingBlock: EZIPEK_clean_linker_0, # of connection points: 2
#     Edge 22, Type (0, 1), BuildingBlock: EZIPEK_clean_linker_0, # of connection points: 2
#     Edge 23, Type (0, 1), BuildingBlock: EZIPEK_clean_linker_0, # of connection points: 2
#     Edge 24, Type (0, 1), BuildingBlock: EZIPEK_clean_linker_0, # of connection points: 2
#     Edge 25, Type (0, 1), BuildingBlock: EZIPEK_clean_linker_0, # of connection points: 2
#     Edge 26, Type (0, 1), BuildingBlock: EZIPEK_clean_linker_0, # of connection points: 2
#     Edge 27, Type (0, 1), BuildingBlock: EZIPEK_clean_linker_0, # of connection points: 2
#     Edge 28, Type (0, 1), BuildingBlock: EZIPEK_clean_linker_0, # of connection points: 2
#     Edge 29, Type (0, 1), BuildingBlock: EZIPEK_clean_linker_0, # of connection points: 2
#     Edge 30, Type (0, 1), BuildingBlock: EZIPEK_clean_linker_0, # of connection points: 2
#     Edge 31, Type (0, 1), BuildingBlock: EZIPEK_clean_linker_0, # of connection points: 2
#     Edge 32, Type (0, 1), BuildingBlock: EZIPEK_clean_linker_0, # of connection points: 2
#     Edge 33, Type (0, 1), BuildingBlock: EZIPEK_clean_linker_0, # of connection points: 2
#     Edge 34, Type (0, 1), BuildingBlock: EZIPEK_clean_linker_0, # of connection points: 2
#     Edge 35, Type (0, 1), BuildingBlock: EZIPEK_clean_linker_0, # of connection points: 2
# Relax obj value: 0.363
# Max RMSD: 0.258
# Mean RMSD: 0.137
data_MOF--net-zzz--node1-PAMTOO_clean_sbu_0--node2-CUQRIR_clean_linker_1--edge1-EZIPEK_clean_linker_0
_symmetry_space_group_name_H-M    P1
_symmetry_Int_Tables_number       1
_symmetry_cell_setting            triclinic
loop_
_symmetry_equiv_pos_as_xyz
'x, y, z'
_cell_length_a     39.514712
_cell_length_b     32.23182
_cell_length_c     10.232571
_cell_angle_alpha  93.522507
_cell_angle_beta   74.677289
_cell_angle_gamma 86.370195
loop_
_atom_site_label
_atom_site_type_symbol
_atom_site_fract_x
_atom_site_fract_y
_atom_site_fract_z
_atom_type_partial_charge
C0 C 0.81271 0.57973 0.71792 0.0
N1 N 0.84283 0.55398 0.69695 0.0
N2 N 0.79891 0.57622 0.60863 0.0
C3 C 0.79567 0.60552 0.84831 0.0
C4 C 0.82217 0.54816 0.52122 0.0
N5 N 0.84699 0.53257 0.5777 0.0
C6 C 0.81882 0.53304 0.38318 0.0
H7 H 0.79144 0.58512 0.93382 0.0
H8 H 0.77018 0.62149 0.84561 0.0
H9 H 0.81356 0.62902 0.86681 0.0
H10 H 0.81336 0.56011 0.32766 0.0
H11 H 0.79641 0.51327 0.39481 0.0
H12 H 0.84327 0.51484 0.32221 0.0
C13 C 0.99049 0.7307 0.64015 0.0
N14 N 1.01169 0.76282 0.63693 0.0
N15 N 1.00229 0.70375 0.5255 0.0
C16 C 0.95789 0.72658 0.75132 0.0
C17 C 1.03123 0.72054 0.45407 0.0
N18 N 0.03637 0.75626 0.51928 0.0
C19 C 0.05288 0.70385 0.31399 0.0
H20 H 0.96529 0.7108 0.83433 0.0
H21 H 0.93946 0.7077 0.7131 0.0
H22 H 0.94482 0.75783 0.79374 0.0
H23 H 0.03921 0.71383 0.23799 0.0
H24 H 0.05573 0.66927 0.30529 0.0
H25 H 0.07937 0.71579 0.28929 0.0
C26 C 0.79671 1.00286 0.57532 0.0
N27 N 0.76361 0.9961 0.56285 0.0
N28 N 0.8221 0.99456 0.45292 0.0
C29 C 0.80396 0.0194 0.70408 0.0
C30 C 0.8031 0.98213 0.36756 0.0
N31 N 0.76832 0.98406 0.43212 0.0
C32 C 0.81855 0.97024 0.21808 0.0
H33 H 0.79762 0.05369 0.71719 0.0
H34 H 0.83211 0.01262 0.70029 0.0
H35 H 0.78686 1.00569 0.79238 0.0
H36 H 0.84248 0.94852 0.20228 0.0
H37 H 0.82669 0.99855 0.16555 0.0
H38 H 0.79938 0.95536 0.17216 0.0
C39 C 0.54206 0.7686 0.48591 0.0
N40 N 0.53497 0.72771 0.50145 0.0
N41 N 0.54123 0.77995 0.35932 0.0
C42 C 0.54745 0.79823 0.59573 0.0
C43 C 0.53311 0.74457 0.3 0.0
N44 N 0.52839 0.71382 0.38607 0.0
C45 C 0.52956 0.7402 0.15704 0.0
H46 H 0.5276 0.82528 0.61365 0.0
H47 H 0.57378 0.81028 0.56157 0.0
H48 H 0.5452 0.78305 0.69173 0.0
H49 H 0.54841 0.75912 0.09034 0.0
H50 H 0.50256 0.75192 0.15698 0.0
H51 H 0.53424 0.70711 0.11527 0.0
C52 C 0.25886 0.47953 0.18743 0.0
N53 N 0.22972 0.50633 0.19621 0.0
N54 N 0.27867 0.49444 0.26927 0.0
C55 C 0.26915 0.44069 0.09308 0.0
C56 C 0.26109 0.5311 0.32503 0.0
N57 N 0.23275 0.53886 0.27809 0.0
C58 C 0.27155 0.55944 0.42916 0.0
H59 H 0.2552 0.41452 0.14177 0.0
H60 H 0.29793 0.43235 0.06949 0.0
H61 H 0.26139 0.44514 0.99792 0.0
H62 H 0.29103 0.58022 0.37535 0.0
H63 H 0.28369 0.54104 0.49562 0.0
H64 H 0.24904 0.57947 0.49533 0.0
C65 C 0.07035 0.28729 0.25956 0.0
N66 N 0.0499 0.2545 0.26132 0.0
N67 N 0.05912 0.3127 0.37789 0.0
C68 C 0.10078 0.29469 0.14304 0.0
C69 C 1.0308 0.29458 0.44928 0.0
N70 N 1.02552 0.25965 0.37989 0.0
C71 C 1.00784 0.31174 0.58647 0.0
H72 H 0.12477 0.27707 0.15415 0.0
H73 H 0.10531 0.32832 0.14248 0.0
H74 H 0.09604 0.28324 0.04539 0.0
H75 H 0.9897 0.33773 0.57246 0.0
H76 H 1.0242 0.32443 0.65005 0.0
H77 H 0.9918 0.28785 0.64039 0.0
C78 C 0.27466 0.01587 0.33104 0.0
N79 N 0.30893 1.00513 0.3324 0.0
N80 N 0.25071 1.00796 0.45082 0.0
C81 C 0.26469 0.03277 0.21234 0.0
C82 C 0.27188 0.99228 0.52337 0.0
N83 N 0.30612 0.98999 0.45229 0.0
C84 C 0.25897 0.97766 0.66366 0.0
H85 H 0.27232 0.06524 0.20357 0.0
H86 H 0.23593 0.0326 0.22482 0.0
H87 H 0.27945 0.01407 0.11737 0.0
H88 H 0.25328 0.9445 0.65437 0.0
H89 H 0.23441 0.99618 0.72201 0.0
H90 H 0.27918 0.97995 0.7206 0.0
C91 C 0.53253 0.24752 0.40055 0.0
N92 N 0.53895 0.28884 0.3953 0.0
N93 N 0.54153 0.23065 0.50847 0.0
C94 C 0.51706 0.22411 0.30248 0.0
C95 C 0.55438 0.26311 0.56516 0.0
N96 N 0.5529 0.29775 0.49738 0.0
C97 C 0.56474 0.26212 0.69688 0.0
H98 H 0.48839 0.23323 0.32779 0.0
H99 H 0.52122 0.18994 0.30768 0.0
H100 H 0.52899 0.23259 0.19768 0.0
H101 H 0.59064 0.24412 0.6782 0.0
H102 H 0.54523 0.24617 0.77174 0.0
H103 H 0.56708 0.29368 0.74141 0.0
Dy104 Dy 1.01751 0.01507 0.83387 0.0
Dy105 Dy 0.05297 0.99729 0.06582 0.0
C106 C 0.10202 1.00887 0.75783 0.0
O107 O 0.03669 0.94757 0.79822 0.0
O108 O 0.03554 0.93323 1.01276 0.0
O109 O 1.0116 0.99759 0.6341 0.0
O110 O 0.97004 0.03498 0.78344 0.0
O111 O 0.99681 1.00704 0.19525 0.0
O112 O 0.97202 1.00512 0.01817 0.0
O113 O 0.03979 0.06621 0.09276 0.0
O114 O 1.02996 0.08112 0.89021 0.0
O115 O 0.06015 0.97821 0.25409 0.0
O116 O 0.09981 0.01198 0.12457 0.0
C117 C 1.03277 0.92081 0.89068 0.0
O118 O 0.07411 0.02668 0.72857 0.0
O119 O 0.09765 0.98924 0.87008 0.0
C120 C 0.97148 0.04094 0.55688 0.0
C121 C 0.96007 0.11512 0.45012 0.0
C122 C 0.9921 0.09097 0.39603 0.0
C123 C 0.99835 0.0545 0.45381 0.0
C124 C 0.93686 0.05917 0.58161 0.0
C125 C 0.93114 0.09706 0.52926 0.0
C126 C 0.98011 0.01661 0.66068 0.0
C127 C 0.96872 1.00587 0.14997 0.0
C128 C 0.03696 0.09335 1.00556 0.0
C129 C 0.11764 0.96398 0.26194 0.0
C130 C 0.1244 0.88242 0.31913 0.0
C131 C 0.14025 0.89276 0.18701 0.0
C132 C 0.13651 0.93425 0.15762 0.0
C133 C 0.1116 0.95495 0.39737 0.0
C134 C 0.11416 0.91366 0.42611 0.0
C135 C 0.09101 0.99283 0.23528 0.0
H136 H 1.01446 0.10473 0.33332 0.0
H137 H 1.0251 0.04054 0.43119 0.0
H138 H 0.91557 0.04801 0.65813 0.0
H139 H 0.90603 0.11512 0.56917 0.0
H140 H 0.14871 0.86864 0.104 0.0
H141 H 0.14197 0.94113 0.05209 0.0
H142 H 0.09752 0.97787 0.47854 0.0
H143 H 0.10189 0.90585 0.52844 0.0
Dy144 Dy 0.53781 0.9746 0.8057 0.0
Dy145 Dy 0.53446 0.03169 0.0636 0.0
C146 C 0.53052 0.07613 0.78899 0.0
O147 O 0.59555 0.98728 0.75768 0.0
O148 O 0.59422 0.01497 0.96951 0.0
O149 O 0.54176 0.96045 0.59306 0.0
O150 O 0.53357 0.91168 0.73061 0.0
O151 O 0.52646 0.96652 0.13218 0.0
O152 O 0.559 0.93169 0.93883 0.0
O153 O 0.47578 0.03375 0.08903 0.0
O154 O 0.47817 0.98315 0.92083 0.0
O155 O 0.51664 0.04395 0.28229 0.0
O156 O 0.55503 0.08143 0.16317 0.0
C157 C 0.61242 1.00179 0.84364 0.0
O158 O 0.53513 0.03858 0.72452 0.0
O159 O 0.52777 0.0808 0.92051 0.0
C160 C 0.49922 0.91451 0.57533 0.0
C161 C 0.43046 0.92099 0.54995 0.0
C162 C 0.45745 0.93735 0.4541 0.0
C163 C 0.49159 0.93422 0.46703 0.0
C164 C 0.47264 0.89451 0.66348 0.0
C165 C 0.43828 0.89814 0.65164 0.0
C166 C 0.53171 0.92305 0.61267 0.0
C167 C 0.54458 0.93222 0.06984 0.0
C168 C 0.45919 1.0082 0.02685 0.0
C169 C 0.56988 0.04917 0.33858 0.0
C170 C 0.63465 0.01409 0.3616 0.0
C171 C 0.61057 0.9886 0.32683 0.0
C172 C 0.57791 1.00573 0.3217 0.0
C173 C 0.59404 0.07467 0.37156 0.0
C174 C 0.62534 0.05721 0.39075 0.0
C175 C 0.5426 0.06702 0.28116 0.0
H176 H 0.45157 0.95528 0.3754 0.0
H177 H 0.51143 0.94996 0.39848 0.0
H178 H 0.4776 0.87908 0.74849 0.0
H179 H 0.41748 0.8858 0.72712 0.0
H180 H 0.61756 0.95573 0.2981 0.0
H181 H 0.5605 0.98511 0.29142 0.0
H182 H 0.59 0.10797 0.37032 0.0
H183 H 0.64391 0.0778 0.41445 0.0
Dy184 Dy 0.56988 0.51884 0.98924 0.0
Dy185 Dy 0.48649 0.50968 0.96526 0.0
C186 C 0.52516 0.4408 0.12036 0.0
O187 O 0.57558 0.4646 0.83552 0.0
O188 O 0.52698 0.48732 0.76983 0.0
O189 O 0.58815 0.52698 0.16438 0.0
O190 O 0.62619 0.53075 0.96536 0.0
O191 O 0.5024 0.57389 0.90105 0.0
O192 O 0.56309 0.56445 0.8334 0.0
O193 O 0.47835 0.53789 0.1763 0.0
O194 O 0.52989 0.56769 0.10708 0.0
O195 O 0.43776 0.53796 0.93586 0.0
O196 O 0.44601 0.47117 0.92894 0.0
C197 C 0.55419 0.46026 0.7573 0.0
O198 O 0.5554 0.45728 0.07529 0.0
O199 O 0.49529 0.45951 0.10789 0.0
C200 C 0.64579 0.54187 0.18125 0.0
C201 C 0.69052 0.56271 0.35021 0.0
C202 C 0.65589 0.55278 0.40689 0.0
C203 C 0.63439 0.54144 0.324 0.0
C204 C 0.68026 0.55258 0.12367 0.0
C205 C 0.70251 0.56241 0.2071 0.0
C206 C 0.62028 0.53329 0.09884 0.0
C207 C 0.53322 0.58625 0.83392 0.0
C208 C 0.50089 0.56328 0.19998 0.0
C209 C 0.40986 0.49748 0.79469 0.0
C210 C 0.37742 0.48657 0.57725 0.0
C211 C 0.41342 0.49363 0.55158 0.0
C212 C 0.42941 0.49942 0.6589 0.0
C213 C 0.37432 0.48933 0.81997 0.0
C214 C 0.35819 0.48471 0.71367 0.0
C215 C 0.42566 0.50238 0.91167 0.0
H216 H 0.64564 0.55282 0.51616 0.0
H217 H 0.60841 0.53266 0.37315 0.0
H218 H 0.68991 0.5536 0.01475 0.0
H219 H 0.72908 0.56996 0.15994 0.0
H220 H 0.42896 0.49554 0.44826 0.0
H221 H 0.457 0.50519 0.63576 0.0
H222 H 0.3589 0.4861 0.92249 0.0
H223 H 0.33052 0.47927 0.73829 0.0
Dy224 Dy 0.05138 0.55276 0.84646 0.0
Dy225 Dy 1.02497 0.47586 0.99758 0.0
C226 C 0.06396 0.46487 0.68769 0.0
O227 O 0.99827 0.54983 0.80396 0.0
O228 O 0.97503 0.50597 0.9628 0.0
O229 O 0.08824 0.58139 0.68978 0.0
O230 O 0.04833 0.6201 0.85071 0.0
O231 O 1.00114 0.52441 0.1714 0.0
O232 O 1.02748 0.57879 0.06166 0.0
O233 O 0.07195 0.48696 0.07945 0.0
O234 O 0.09897 0.52376 0.90383 0.0
O235 O 1.01518 0.4264 0.12789 0.0
O236 O 1.0065 0.41916 0.92767 0.0
C237 C 0.97113 0.53145 0.8716 0.0
O238 O 0.05344 0.50357 0.67796 0.0
O239 O 0.06698 0.45539 0.80632 0.0
C240 C 0.08829 0.65607 0.68412 0.0
C241 C 0.14985 0.68159 0.53114 0.0
C242 C 0.12311 0.67393 0.46779 0.0
C243 C 0.09294 0.65805 0.54436 0.0
C244 C 0.10875 0.67926 0.74988 0.0
C245 C 0.13949 0.6941 0.67079 0.0
C246 C 0.07493 0.61865 0.74319 0.0
C247 C 1.00776 0.56401 0.17 0.0
C248 C 0.10011 0.5044 1.01287 0.0
C249 C 0.96689 0.39133 0.10623 0.0
C250 C 0.90727 0.39068 0.32082 0.0
C251 C 0.90711 0.4174 0.21757 0.0
C252 C 0.93764 0.41906 0.11414 0.0
C253 C 0.96316 0.35778 0.18717 0.0
C254 C 0.93368 0.35813 0.29859 0.0
C255 C 1.0021 0.40385 0.04549 0.0
H256 H 0.12936 0.66814 0.35822 0.0
H257 H 0.07719 0.6409 0.49159 0.0
H258 H 0.10473 0.67942 0.85886 0.0
H259 H 0.15863 0.70503 0.72072 0.0
H260 H 0.88663 0.44263 0.23213 0.0
H261 H 0.93984 0.44545 0.05399 0.0
H262 H 0.98521 0.33533 0.17538 0.0
H263 H 0.93377 0.33731 0.3774 0.0
C264 C 0.1914 0.04789 0.55272 0.0
C265 C 0.21179 0.00992 0.49632 0.0
C266 C 0.16094 0.97151 0.61073 0.0
C267 C 0.13941 1.00948 0.66191 0.0
N268 N 0.13428 0.08467 0.66645 0.0
N269 N 0.21245 0.93652 0.44491 0.0
C270 C 0.1546 0.04788 0.62637 0.0
C271 C 0.19517 0.97218 0.51694 0.0
N272 N 0.2079 0.08394 0.54266 0.0
N273 N 0.14932 0.93438 0.65383 0.0
H274 H 0.23715 0.93655 0.37557 0.0
H275 H 0.20093 0.90837 0.4432 0.0
H276 H 0.12395 0.93129 0.71344 0.0
H277 H 0.16547 0.90665 0.63487 0.0
H278 H 0.19644 0.11234 0.59416 0.0
H279 H 0.23417 0.08469 0.48794 0.0
H280 H 0.14214 0.11315 0.63164 0.0
H281 H 0.10868 0.08662 0.72945 0.0
C282 C 0.50457 0.17507 0.62416 0.0
C283 C 0.53809 0.18918 0.5619 0.0
C284 C 0.566 0.13043 0.65323 0.0
C285 C 0.53276 0.11464 0.70785 0.0
N286 N 0.47065 0.11901 0.7274 0.0
N287 N 0.60085 0.1763 0.49968 0.0
C288 C 0.50215 0.13607 0.68728 0.0
C289 C 0.56875 0.16571 0.57271 0.0
N290 N 0.47498 0.20023 0.63076 0.0
N291 N 0.59528 0.11136 0.67755 0.0
H292 H 0.60342 0.20051 0.43546 0.0
H293 H 0.62455 0.159 0.49179 0.0
H294 H 0.59484 0.0833 0.72304 0.0
H295 H 0.61959 0.12388 0.65676 0.0
H296 H 0.44989 0.19432 0.68661 0.0
H297 H 0.47592 0.22898 0.58918 0.0
H298 H 0.44794 0.13039 0.70361 0.0
H299 H 0.46796 0.09139 0.77597 0.0
C300 C 0.31137 0.44892 0.39082 0.0
C301 C 0.3115 0.47954 0.29719 0.0
C302 C 0.35963 0.51123 0.36813 0.0
C303 C 0.35919 0.48096 0.46448 0.0
N304 N 0.34373 0.41216 0.52589 0.0
N305 N 0.3428 0.531 0.16701 0.0
C306 C 0.33814 0.44675 0.46146 0.0
C307 C 0.33917 0.50643 0.27279 0.0
N308 N 0.28419 0.42402 0.42054 0.0
N309 N 0.37598 0.54701 0.37663 0.0
H310 H 0.32582 0.53024 0.10426 0.0
H311 H 0.36392 0.5492 0.13611 0.0
H312 H 0.38838 0.55427 0.45202 0.0
H313 H 0.37387 0.57183 0.31795 0.0
H314 H 0.28035 0.40451 0.49981 0.0
H315 H 0.26434 0.42494 0.3708 0.0
H316 H 0.33096 0.38514 0.51871 0.0
H317 H 0.36395 0.40903 0.57366 0.0
C318 C 0.04651 0.38903 0.41027 0.0
C319 C 0.06891 0.3538 0.41628 0.0
C320 C 0.09588 0.39677 0.56298 0.0
C321 C 0.06949 0.43027 0.57435 0.0
N322 N 1.02445 0.46083 0.47893 0.0
N323 N 0.11461 0.32293 0.50077 0.0
C324 C 0.04649 0.4274 0.48809 0.0
C325 C 0.09403 0.35761 0.49135 0.0
N326 N 1.02222 0.38375 0.34003 0.0
N327 N 0.12363 0.40309 0.6159 0.0
H328 H 0.11405 0.29459 0.44643 0.0
H329 H 0.13059 0.32165 0.56686 0.0
H330 H 0.12697 0.43201 0.66039 0.0
H331 H 0.14521 0.38142 0.60221 0.0
H332 H 0.99988 0.40384 0.35279 0.0
H333 H 1.02434 0.35778 0.27194 0.0
H334 H 1.01249 0.46297 0.40006 0.0
H335 H 1.0185 0.48737 0.54576 0.0
C336 C 0.87055 0.03811 0.34402 0.0
C337 C 0.8599 1.00148 0.40865 0.0
C338 C 0.92217 0.97118 0.32781 0.0
C339 C 0.93191 1.00574 0.24863 0.0
N340 N 0.91497 0.07297 0.18473 0.0
N341 N 0.87517 0.93257 0.45961 0.0
C342 C 0.90591 0.03954 0.25868 0.0
C343 C 0.88586 0.96817 0.40136 0.0
N344 N 0.84644 0.0718 0.36573 0.0
N345 N 0.94756 0.94083 0.33164 0.0
H346 H 0.84931 0.93043 0.51688 0.0
H347 H 0.89112 0.90486 0.44667 0.0
H348 H 0.97365 0.94059 0.27428 0.0
H349 H 0.94343 0.91721 0.39759 0.0
H350 H 0.85222 0.10105 0.33267 0.0
H351 H 0.82084 0.07115 0.42742 0.0
H352 H 0.89696 0.09642 0.17285 0.0
H353 H 0.9408 0.07671 0.13053 0.0
C354 C 0.57501 0.83736 0.24313 0.0
C355 C 0.54241 0.82088 0.30226 0.0
C356 C 0.51263 0.87373 0.19474 0.0
C357 C 0.54462 0.89272 0.14522 0.0
N358 N 0.60623 0.89415 0.13184 0.0
N359 N 0.47968 0.82751 0.35164 0.0
C360 C 0.57584 0.87485 0.17218 0.0
C361 C 0.51115 0.84047 0.28272 0.0
N362 N 0.60533 0.81609 0.25057 0.0
N363 N 0.48367 0.8869 0.15471 0.0
H364 H 0.47788 0.80528 0.42254 0.0
H365 H 0.45553 0.84119 0.34784 0.0
H366 H 0.48384 0.91113 0.09186 0.0
H367 H 0.46047 0.87199 0.17424 0.0
H368 H 0.6304 0.82328 0.19876 0.0
H369 H 0.60517 0.78932 0.30307 0.0
H370 H 0.62927 0.88536 0.15768 0.0
H371 H 0.60765 0.92113 0.08007 0.0
C372 C 0.7579 0.61487 0.50497 0.0
C373 C 0.76342 0.58548 0.59596 0.0
C374 C 0.71936 0.5436 0.53643 0.0
C375 C 0.71409 0.57219 0.44139 0.0
N376 N 0.71976 0.64245 0.3736 0.0
N377 N 0.73673 0.53491 0.74367 0.0
C378 C 0.73061 0.61036 0.43787 0.0
C379 C 0.73947 0.55458 0.62787 0.0
N380 N 0.77998 0.64592 0.47852 0.0
N381 N 0.70785 0.50458 0.53302 0.0
H382 H 0.75109 0.5431 0.81208 0.0
H383 H 0.71796 0.51379 0.7767 0.0
H384 H 0.69577 0.49346 0.46036 0.0
H385 H 0.71407 0.4817 0.59261 0.0
H386 H 0.78011 0.66608 0.40268 0.0
H387 H 0.79909 0.65001 0.53086 0.0
H388 H 0.7288 0.67205 0.37753 0.0
H389 H 0.69912 0.64059 0.32814 0.0
C390 C 1.0034 0.62736 0.50351 0.0
C391 C 0.98904 0.66609 0.47791 0.0
C392 C 0.97291 0.63069 0.28521 0.0
C393 C 0.99454 0.59443 0.29334 0.0
N394 N 1.0324 0.55933 0.40867 0.0
N395 N 0.9579 0.70511 0.3489 0.0
C396 C 1.00963 0.59258 0.4043 0.0
C397 C 0.97236 0.66761 0.37155 0.0
N398 N 1.01243 0.62467 0.62156 0.0
N399 N 0.95328 0.62969 0.19374 0.0
H400 H 0.95633 0.7317 0.41463 0.0
H401 H 0.94882 0.71012 0.26403 0.0
H402 H 0.95286 0.60265 0.13269 0.0
H403 H 0.93523 0.65393 0.18733 0.0
H404 H 1.0222 0.59692 0.64831 0.0
H405 H 1.00774 0.6498 0.6951 0.0
H406 H 0.04809 0.55865 0.47589 0.0
H407 H 0.03756 0.53344 0.33812 0.0
C408 C 0.97198 0.22529 0.37352 0.0
C409 C 1.00075 0.22986 0.4299 0.0
C410 C 0.98498 0.17053 0.56002 0.0
C411 C 0.96326 0.15977 0.47494 0.0
N412 N 0.93213 0.17807 0.31237 0.0
N413 N 0.03591 0.20629 0.57476 0.0
C414 C 0.95485 0.18801 0.387 0.0
C415 C 1.00721 0.20286 0.5253 0.0
N416 N 0.96187 0.25655 0.30581 0.0
N417 N 0.98571 0.14804 0.66804 0.0
H418 H 0.05323 0.22937 0.54882 0.0
H419 H 0.04413 0.18441 0.63308 0.0
H420 H 0.96888 0.12463 0.69705 0.0
H421 H 1.00044 0.15525 0.73549 0.0
H422 H 0.93975 0.25697 0.26857 0.0
H423 H 0.97511 0.28341 0.29715 0.0
H424 H 0.92751 0.1956 0.2358 0.0
H425 H 0.91848 0.15129 0.3263 0.0
C426 C 0.35329 0.99594 0.56482 0.0
C427 C 0.33468 0.97091 0.49476 0.0
C428 C 0.37337 0.90916 0.49817 0.0
C429 C 0.39392 0.93509 0.55669 0.0
N430 N 0.39908 0.99899 0.68236 0.0
N431 N 0.3206 0.90348 0.42134 0.0
C432 C 0.38235 0.97732 0.60219 0.0
C433 C 0.34272 0.92726 0.46993 0.0
N434 N 0.34324 0.03757 0.5928 0.0
N435 N 0.38364 0.86766 0.46817 0.0
H436 H 0.2981 0.91633 0.39904 0.0
H437 H 0.32322 0.87108 0.40933 0.0
H438 H 0.40342 0.85307 0.5034 0.0
H439 H 0.37269 0.84761 0.41012 0.0
H440 H 0.35765 0.05889 0.63082 0.0
H441 H 0.32062 0.05115 0.57309 0.0
H442 H 0.39066 0.02901 0.72729 0.0
H443 H 0.42007 0.98551 0.71348 0.0
C444 C 0.5242 0.35596 0.65872 0.0
C445 C 0.55355 0.33935 0.55458 0.0
C446 C 0.58289 0.40375 0.56965 0.0
C447 C 0.55434 0.41914 0.6819 0.0
N448 N 0.50104 0.40543 0.84747 0.0
N449 N 0.61244 0.34347 0.41731 0.0
C450 C 0.52575 0.39416 0.72877 0.0
C451 C 0.58341 0.36222 0.51099 0.0
N452 N 0.49457 0.33479 0.69228 0.0
N453 N 0.60884 0.42902 0.51819 0.0
H454 H 0.6131 0.31296 0.37568 0.0
H455 H 0.63632 0.3568 0.38792 0.0
H456 H 0.60888 0.45939 0.55993 0.0
H457 H 0.62889 0.42111 0.42947 0.0
H458 H 0.47033 0.34829 0.75208 0.0
H459 H 0.49319 0.30464 0.65258 0.0
H460 H 0.48337 0.38571 0.90069 0.0
H461 H 0.50027 0.43404 0.89709 0.0
C462 C 0.18512 0.57482 0.45243 0.0
C463 C 0.20916 0.57545 0.32414 0.0
C464 C 0.20183 0.65182 0.34618 0.0
C465 C 0.18053 0.65052 0.48038 0.0
N466 N 0.17092 0.6094 0.67607 0.0
N467 N 0.24893 0.61534 0.16856 0.0
C468 C 0.17762 0.61161 0.539 0.0
C469 C 0.21988 0.61428 0.27529 0.0
N470 N 0.17321 0.53816 0.49778 0.0
N471 N 0.2045 0.68867 0.28705 0.0
H472 H 0.26438 0.58843 0.1211 0.0
H473 H 0.25948 0.64303 0.13694 0.0
H474 H 0.19284 0.71684 0.34089 0.0
H475 H 0.21688 0.69057 0.18436 0.0
H476 H 0.15414 0.53669 0.58959 0.0
H477 H 0.18044 0.51005 0.43816 0.0
H478 H 0.17036 0.58114 0.7207 0.0
H479 H 0.17216 0.63487 0.74172 0.0
C480 C 0.09199 0.78938 0.49359 0.0
C481 C 0.05986 0.7862 0.45934 0.0
C482 C 0.07317 0.84226 0.31026 0.0
C483 C 0.10629 0.84411 0.34111 0.0
N484 N 0.14839 0.81728 0.45406 0.0
N485 N 1.02246 0.80375 0.31591 0.0
C486 C 0.11625 0.81641 0.42811 0.0
C487 C 0.05144 0.81058 0.3607 0.0
N488 N 0.09985 0.76719 0.59098 0.0
N489 N 0.06072 0.87294 0.24444 0.0
H490 H 1.00421 0.78305 0.35802 0.0
H491 H 1.01782 0.81659 0.23058 0.0
H492 H 0.07531 0.8967 0.20159 0.0
H493 H 0.03469 0.87653 0.2397 0.0
H494 H 0.08292 0.74685 0.64435 0.0
H495 H 0.08292 0.74685 0.64435 0.0
H496 H 0.15631 0.79763 0.51985 0.0
H497 H 0.1673 0.83659 0.40588 0.0
C498 C 0.73166 0.01708 0.29977 0.0
C499 C 0.74002 0.98283 0.36888 0.0
C500 C 0.68051 0.96231 0.41048 0.0
C501 C 0.67147 0.99775 0.34636 0.0
N502 N 0.69343 0.04363 0.17 0.0
N503 N 0.7257 0.91503 0.44351 0.0
C504 C 0.69883 0.01996 0.26998 0.0
C505 C 0.71594 0.95235 0.40388 0.0
N506 N 0.75334 0.04857 0.2727 0.0
N507 N 0.65645 0.93873 0.48575 0.0
H508 H 0.75176 0.90602 0.44087 0.0
H509 H 0.75176 0.90602 0.44087 0.0
H510 H 0.62927 0.94517 0.50822 0.0
H511 H 0.62927 0.94517 0.50822 0.0
H512 H 0.74609 0.07606 0.23469 0.0
H513 H 0.77705 0.04895 0.29873 0.0
H514 H 0.71361 0.05808 0.10623 0.0
H515 H 0.66997 0.04446 0.14105 0.0
C516 C 0.53572 0.63703 0.37353 0.0
C517 C 0.51554 0.67376 0.36312 0.0
C518 C 0.4713 0.63144 0.30599 0.0
C519 C 0.49249 0.59526 0.31436 0.0
N520 N 0.53392 0.56447 0.42061 0.0
N521 N 0.4586 0.70589 0.36355 0.0
C522 C 0.52035 0.59877 0.37477 0.0
C523 C 0.48135 0.67106 0.34384 0.0
N524 N 0.5701 0.63838 0.37352 0.0
N525 N 0.44313 0.62798 0.25391 0.0
H526 H 0.46503 0.73498 0.39506 0.0
H527 H 0.43246 0.7051 0.36113 0.0
H528 H 0.43465 0.59903 0.23179 0.0
H529 H 0.42915 0.65349 0.22936 0.0
H530 H 0.58637 0.61172 0.3739 0.0
H531 H 0.58283 0.66582 0.36028 0.0
H532 H 0.55267 0.56628 0.47537 0.0
H533 H 0.52324 0.53575 0.41553 0.0
C534 C 0.83901 0.45674 0.55422 0.0
C535 C 0.86167 0.48989 0.54892 0.0
C536 C 0.91067 0.43809 0.50552 0.0
C537 C 0.89051 0.40886 0.45973 0.0
N538 N 0.83395 0.38637 0.46476 0.0
N539 N 0.92086 0.51098 0.50276 0.0
C540 C 0.85383 0.41659 0.49558 0.0
C541 C 0.89822 0.48036 0.52084 0.0
N542 N 0.804 0.46359 0.61664 0.0
N543 N 0.94204 0.42549 0.52663 0.0
H544 H 0.91213 0.54226 0.50367 0.0
H545 H 0.94814 0.50447 0.47479 0.0
H546 H 0.95011 0.39383 0.52133 0.0
H547 H 0.95707 0.4461 0.56455 0.0
H548 H 0.78654 0.44036 0.62651 0.0
H549 H 0.79367 0.49149 0.67309 0.0
H550 H 0.80705 0.39129 0.47456 0.0
H551 H 0.84545 0.35662 0.42451 0.0
C552 C 0.07539 0.18183 0.17416 0.0
C553 C 0.05385 0.21766 0.16467 0.0
C554 C 1.02248 0.17364 0.03615 0.0
C555 C 0.04478 0.13773 0.04171 0.0
N556 N 0.10063 0.11283 0.07497 0.0
N557 N 1.01617 0.24946 0.04415 0.0
C558 C 0.0738 0.14352 0.09805 0.0
C559 C 1.03055 0.21405 0.08087 0.0
N560 N 0.09665 0.18393 0.25941 0.0
N561 N 0.99222 0.16927 0.99842 0.0
H562 H 1.02307 0.27872 0.07248 0.0
H563 H 1.00077 0.24929 0.97566 0.0
H564 H 0.98442 0.14027 0.97286 0.0
H565 H 0.97357 0.19415 1.00406 0.0
H566 H 0.10994 0.15769 0.28312 0.0
H567 H 0.09908 0.21171 0.31283 0.0
H568 H 0.12359 0.11643 0.10483 0.0
H569 H 0.10174 0.08592 1.01138 0.0
C570 C 0.36189 0.97233 0.14966 0.0
C571 C 0.34334 1.00827 0.2306 0.0
C572 C 0.39713 0.04589 0.1425 0.0
C573 C 0.41811 1.00805 0.08195 0.0
N574 N 0.4174 0.93336 0.03358 0.0
N575 N 0.34452 0.07969 0.30666 0.0
C576 C 0.39947 0.97088 0.08563 0.0
C577 C 0.36141 0.04512 0.22702 0.0
N578 N 0.34305 0.93951 0.13103 0.0
N579 N 0.41052 0.08326 0.11245 0.0
H580 H 0.31815 0.08073 0.36213 0.0
H581 H 0.35715 0.10609 0.32375 0.0
H582 H 0.43471 0.08553 0.04228 0.0
H583 H 0.39589 0.11188 0.14294 0.0
H584 H 0.35331 0.91364 0.06271 0.0
H585 H 0.3159 0.94052 0.174 0.0
H586 H 0.40661 0.90493 0.05178 0.0
H587 H 0.44357 0.92984 0.97801 0.0
C588 C 0.50066 0.34852 0.35046 0.0
C589 C 0.53124 0.32034 0.30591 0.0
C590 C 0.55286 0.36566 0.11917 0.0
C591 C 0.52585 0.39819 0.18125 0.0
N592 N 0.47694 0.42059 0.37534 0.0
N593 N 0.58755 0.30314 0.1471 0.0
C594 C 0.50025 0.38937 0.30141 0.0
C595 C 0.55758 0.3293 0.18965 0.0
N596 N 0.47159 0.3359 0.43836 0.0
N597 N 0.57299 0.36818 0.9896 0.0
H598 H 0.59069 0.27549 0.19226 0.0
H599 H 0.60974 0.31012 0.07331 0.0
H600 H 0.56895 0.39232 0.9312 0.0
H601 H 0.5907 0.34394 0.93463 0.0
H602 H 0.44746 0.35369 0.46774 0.0
H603 H 0.47092 0.3055 0.46811 0.0
H604 H 0.46001 0.41675 0.47016 0.0
H605 H 0.47761 0.4513 0.34951 0.0
C606 C 0.19108 0.53157 0.05444 0.0
C607 C 0.19953 0.50149 0.13829 0.0
C608 C 0.14558 0.46804 0.12216 0.0
C609 C 0.13411 0.50287 0.05932 0.0
N610 N 0.14414 0.57429 1.00704 0.0
N611 N 0.18069 0.44338 0.26913 0.0
C612 C 0.15641 0.53645 0.03679 0.0
C613 C 0.17558 0.47029 0.17704 0.0
N614 N 0.21675 0.55462 0.9866 0.0
N615 N 0.12924 0.43191 0.12421 0.0
H616 H 0.20187 0.44422 0.31176 0.0
H617 H 0.16217 0.42304 0.31237 0.0
H618 H 0.1094 0.4273 0.0765 0.0
H619 H 0.1383 0.40475 0.15889 0.0
H620 H 0.21275 0.57543 0.91692 0.0
H621 H 0.24295 0.54799 0.98633 0.0
H622 H 0.1589 0.60017 0.99966 0.0
H623 H 0.11795 0.58146 1.00856 0.0
C624 C 0.99156 0.83782 0.70878 0.0
C625 C 1.00839 0.79998 0.73171 0.0
C626 C 0.03804 0.83981 0.8779 0.0
C627 C 1.02164 0.87811 0.85335 0.0
N628 N 0.97297 0.91049 0.7842 0.0
N629 N 0.03647 0.7643 0.87839 0.0
C630 C 0.99539 0.8761 0.7804 0.0
C631 C 1.02783 0.80086 0.83027 0.0
N632 N 0.97218 0.8372 0.61659 0.0
N633 N 0.06511 0.84029 0.93733 0.0
H634 H 1.02924 0.73588 0.84401 0.0
H635 H 0.04805 0.76282 0.95863 0.0
H636 H 0.07457 0.86787 0.96607 0.0
H637 H 0.08012 0.8134 0.94647 0.0
H638 H 0.96302 0.86403 0.58053 0.0
H639 H 0.96665 0.80934 0.57213 0.0
H640 H 0.95163 0.91025 0.74241 0.0
H641 H 0.97319 0.93802 0.84291 0.0
C642 C 0.70619 0.03824 0.68643 0.0
C643 C 0.72845 1.00061 0.66402 0.0
C644 C 0.67564 0.96408 0.77362 0.0
C645 C 0.65317 1.00189 0.79686 0.0
N646 N 0.65169 0.07682 0.81899 0.0
N647 N 0.73642 0.93163 0.72093 0.0
C648 C 0.66991 0.03956 0.76669 0.0
C649 C 0.71346 0.96482 0.72058 0.0
N650 N 0.71942 0.07268 0.62772 0.0
N651 N 0.66082 0.92723 0.79761 0.0
H652 H 0.72924 0.90425 0.76617 0.0
H653 H 0.72924 0.90425 0.76617 0.0
H654 H 0.63385 0.92576 0.83872 0.0
H655 H 0.67472 0.89817 0.76788 0.0
H656 H 0.70378 0.09985 0.62644 0.0
H657 H 0.74577 0.07274 0.57306 0.0
H658 H 0.66313 0.10512 0.81041 0.0
H659 H 0.62625 0.07875 0.88361 0.0
C660 C 0.56392 0.68638 0.65193 0.0
C661 C 0.53313 0.70172 0.61695 0.0
C662 C 0.50358 0.64159 0.7175 0.0
C663 C 0.53341 0.62699 0.76179 0.0
N664 N 0.58732 0.64755 0.80898 0.0
N665 N 0.47056 0.70179 0.66627 0.0
C666 C 0.56227 0.65297 0.74051 0.0
C667 C 0.50185 0.6823 0.66986 0.0
N668 N 0.59523 0.70213 0.59598 0.0
N669 N 0.47836 0.61555 0.70624 0.0
H670 H 0.46917 0.73146 0.63132 0.0
H671 H 0.44641 0.69033 0.71024 0.0
H672 H 0.48104 0.58361 0.71555 0.0
H673 H 0.45768 0.62432 0.66548 0.0
H674 H 0.61917 0.689 0.60553 0.0
H675 H 0.5974 0.72616 0.53136 0.0
H676 H 0.60726 0.66756 0.80385 0.0
H677 H 0.58548 0.62699 0.88468 0.0
C678 C 0.89301 0.58495 0.76504 0.0
C679 C 0.86963 0.55282 0.7728 0.0
C680 C 0.91301 0.50632 0.83969 0.0
C681 C 0.93529 0.53932 0.84341 0.0
N682 N 0.93923 0.61395 0.8479 0.0
N683 N 0.85348 0.48722 0.85736 0.0
C684 C 0.92306 0.57986 0.81798 0.0
C685 C 0.8782 0.51526 0.8261 0.0
N686 N 0.88805 0.61938 0.69904 0.0
N687 N 0.92602 0.46587 0.83443 0.0
H688 H 0.82803 0.49361 0.84802 0.0
H689 H 0.85734 0.46014 0.90412 0.0
H690 H 0.95256 0.45747 0.824 0.0
H691 H 0.91162 0.44063 0.82187 0.0
H692 H 0.90659 0.64132 0.6763 0.0
H693 H 0.86698 0.62408 0.65682 0.0
H694 H 0.9291 0.64431 0.84354 0.0
H695 H 0.96017 0.61222 0.89194 0.0
loop_
_geom_bond_atom_site_label_1
_geom_bond_atom_site_label_2
_geom_bond_distance
_geom_bond_site_symmetry_2
_ccdc_geom_bond_type
C0 N1 1.317 . S
C0 N2 1.348 . S
C0 C3 1.485 1_556 S
N1 C0 1.317 . S
N1 N5 1.370 . S
N2 C0 1.348 . S
N2 C4 1.346 . S
C3 C0 1.485 1_554 S
C3 H7 0.960 . S
C3 H8 0.961 . S
C3 H9 0.960 . S
C4 N2 1.346 . S
C4 N5 1.307 . S
C4 C6 1.486 . S
N5 N1 1.370 . S
N5 C4 1.307 . S
C6 C4 1.486 . S
C6 H10 0.960 . S
C6 H11 0.960 . S
C6 H12 0.959 . S
H7 C3 0.960 . S
H8 C3 0.961 . S
H9 C3 0.960 . S
H10 C6 0.960 . S
H11 C6 0.960 . S
H12 C6 0.959 . S
C13 N14 1.317 . S
C13 N15 1.348 . S
C13 C16 1.485 . S
N14 C13 1.317 . S
N14 N18 1.368 . S
N15 C13 1.348 . S
N15 C17 1.346 1_655 S
C16 C13 1.485 . S
C16 H20 0.960 1_655 S
C16 H21 0.961 . S
C16 H22 0.960 . S
C17 N15 1.346 1_455 S
C17 N18 1.310 1_455 S
C17 C19 1.486 . S
N18 N14 1.368 . S
N18 C17 1.310 1_655 S
C19 C17 1.486 . S
C19 H23 0.960 1_455 S
C19 H24 0.960 . S
C19 H25 0.959 . S
H20 C16 0.960 1_455 S
H21 C16 0.961 . S
H22 C16 0.960 . S
H23 C19 0.960 1_655 S
H24 C19 0.960 . S
H25 C19 0.959 . S
C26 N27 1.317 . S
C26 N28 1.348 . S
C26 C29 1.485 . S
N27 C26 1.317 . S
N27 N31 1.372 . S
N28 C26 1.348 . S
N28 C30 1.346 1_565 S
C29 C26 1.485 . S
C29 H33 0.960 1_565 S
C29 H34 0.961 . S
C29 H35 0.960 . S
C30 N28 1.346 1_545 S
C30 N31 1.304 1_545 S
C30 C32 1.487 . S
N31 N27 1.372 . S
N31 C30 1.304 1_565 S
C32 C30 1.487 . S
C32 H36 0.960 1_545 S
C32 H37 0.960 . S
C32 H38 0.959 . S
H33 C29 0.960 1_545 S
H34 C29 0.961 . S
H35 C29 0.960 . S
H36 C32 0.960 1_565 S
H37 C32 0.960 . S
H38 C32 0.959 . S
C39 N40 1.317 . S
C39 N41 1.348 . S
C39 C42 1.485 . S
N40 C39 1.317 . S
N40 N44 1.370 . S
N41 C39 1.348 . S
N41 C43 1.346 . S
C42 C39 1.485 . S
C42 H46 0.960 . S
C42 H47 0.961 . S
C42 H48 0.960 . S
C43 N41 1.346 . S
C43 N44 1.307 . S
C43 C45 1.486 . S
N44 N40 1.370 . S
N44 C43 1.307 . S
C45 C43 1.486 . S
C45 H49 0.960 . S
C45 H50 0.960 . S
C45 H51 0.959 . S
H46 C42 0.960 . S
H47 C42 0.961 . S
H48 C42 0.960 . S
H49 C45 0.960 . S
H50 C45 0.960 . S
H51 C45 0.959 . S
C52 N53 1.317 . S
C52 N54 1.348 1_556 S
C52 C55 1.485 . S
N53 C52 1.317 . S
N53 N57 1.370 1_556 S
N54 C52 1.348 1_554 S
N54 C56 1.346 . S
C55 C52 1.485 . S
C55 H59 0.960 . S
C55 H60 0.961 . S
C55 H61 0.960 . S
C56 N54 1.346 . S
C56 N57 1.307 . S
C56 C58 1.486 . S
N57 N53 1.370 1_554 S
N57 C56 1.307 . S
C58 C56 1.486 . S
C58 H62 0.960 . S
C58 H63 0.960 . S
C58 H64 0.959 . S
H59 C55 0.960 . S
H60 C55 0.961 . S
H61 C55 0.960 . S
H62 C58 0.960 . S
H63 C58 0.960 . S
H64 C58 0.959 . S
C65 N66 1.317 . S
C65 N67 1.358 . S
C65 C68 1.485 1_554 S
N66 C65 1.317 . S
N66 N70 1.371 . S
N67 C65 1.358 . S
N67 C69 1.342 1_655 S
C68 C65 1.485 1_556 S
C68 H72 0.960 1_655 S
C68 H73 0.961 1_556 S
C68 H74 0.960 . S
C69 N67 1.342 1_455 S
C69 N70 1.304 1_455 S
C69 C71 1.489 . S
N70 N66 1.371 . S
N70 C69 1.304 1_655 S
C71 C69 1.489 . S
C71 H75 0.960 1_455 S
C71 H76 0.960 . S
C71 H77 0.959 . S
H72 C68 0.960 1_455 S
H73 C68 0.961 1_554 S
H74 C68 0.960 . S
H75 C71 0.960 1_655 S
H76 C71 0.960 . S
H77 C71 0.959 . S
C78 N79 1.317 . S
C78 N80 1.348 . S
C78 C81 1.485 . S
N79 C78 1.317 . S
N79 N83 1.370 . S
N80 C78 1.348 . S
N80 C82 1.346 1_565 S
C81 C78 1.485 . S
C81 H85 0.960 1_565 S
C81 H86 0.961 . S
C81 H87 0.960 . S
C82 N80 1.346 1_545 S
C82 N83 1.309 1_545 S
C82 C84 1.485 . S
N83 N79 1.370 . S
N83 C82 1.309 1_565 S
C84 C82 1.485 . S
C84 H88 0.960 1_545 S
C84 H89 0.960 . S
C84 H90 0.959 . S
H85 C81 0.960 1_545 S
H86 C81 0.961 . S
H87 C81 0.960 . S
H88 C84 0.960 1_565 S
H89 C84 0.960 . S
H90 C84 0.959 . S
C91 N92 1.317 . S
C91 N93 1.348 . S
C91 C94 1.485 . S
N92 C91 1.317 . S
N92 N96 1.370 . S
N93 C91 1.348 . S
N93 C95 1.346 . S
C94 C91 1.485 . S
C94 H98 0.960 . S
C94 H99 0.961 . S
C94 H100 0.960 . S
C95 N93 1.346 . S
C95 N96 1.307 . S
C95 C97 1.486 . S
N96 N92 1.370 . S
N96 C95 1.307 . S
C97 C95 1.486 . S
C97 H101 0.960 . S
C97 H102 0.960 . S
C97 H103 0.959 . S
H98 C94 0.960 . S
H99 C94 0.961 . S
H100 C94 0.960 . S
H101 C97 0.960 . S
H102 C97 0.960 . S
H103 C97 0.959 . S
Dy104 O107 2.307 1_545 S
Dy104 O109 2.395 1_655 S
Dy104 O110 2.379 . S
Dy104 O112 2.339 . S
Dy104 O114 2.298 . S
Dy104 O118 2.275 1_655 S
Dy104 C126 2.738 . S
Dy105 O108 2.298 1_554 S
Dy105 O111 2.275 1_455 S
Dy105 O113 2.307 1_565 S
Dy105 O115 2.395 1_455 S
Dy105 O116 2.379 . S
Dy105 O119 2.339 1_554 S
Dy105 C135 2.738 . S
C106 O118 1.254 1_565 S
C106 O119 1.257 . S
O107 Dy104 2.307 1_565 S
O107 C117 1.266 . S
O108 Dy105 2.298 1_556 S
O108 C117 1.236 1_455 S
O109 Dy104 2.395 1_455 S
O109 C126 1.255 1_455 S
O110 Dy104 2.379 . S
O110 C126 1.249 . S
O111 Dy105 2.275 1_655 S
O111 C127 1.254 1_565 S
O112 Dy104 2.339 . S
O112 C127 1.257 1_556 S
O113 Dy105 2.307 1_545 S
O113 C128 1.266 . S
O114 Dy104 2.298 . S
O114 C128 1.236 1_656 S
O115 Dy105 2.395 1_655 S
O115 C135 1.255 1_655 S
O116 Dy105 2.379 . S
O116 C135 1.249 . S
C117 O107 1.266 . S
C117 O108 1.236 1_655 S
O118 Dy104 2.275 1_455 S
O118 C106 1.254 1_545 S
O119 Dy105 2.339 1_556 S
O119 C106 1.257 . S
C120 C123 1.344 1_655 S
C120 C124 1.328 . S
C120 C126 1.516 . S
C121 C122 1.304 1_655 S
C121 C125 1.323 . S
C122 C121 1.304 1_455 S
C122 C123 1.371 . S
C122 H136 0.930 . S
C123 C120 1.344 1_455 S
C123 C122 1.371 . S
C123 H137 0.931 . S
C124 C120 1.328 . S
C124 C125 1.433 . S
C124 H138 0.931 . S
C125 C121 1.323 . S
C125 C124 1.433 . S
C125 H139 0.933 . S
C126 Dy104 2.738 . S
C126 O109 1.255 1_655 S
C126 O110 1.249 . S
C126 C120 1.516 . S
C127 O111 1.254 1_545 S
C127 O112 1.257 1_554 S
C128 O113 1.266 . S
C128 O114 1.236 1_454 S
C129 C132 1.344 1_455 S
C129 C133 1.328 . S
C129 C135 1.516 . S
C130 C131 1.304 1_455 S
C130 C134 1.323 . S
C131 C130 1.304 1_655 S
C131 C132 1.371 . S
C131 H140 0.930 . S
C132 C129 1.344 1_655 S
C132 C131 1.371 . S
C132 H141 0.931 . S
C133 C129 1.328 . S
C133 C134 1.433 . S
C133 H142 0.931 . S
C134 C130 1.323 . S
C134 C133 1.433 . S
C134 H143 0.933 . S
C135 Dy105 2.738 . S
C135 O115 1.255 1_455 S
C135 O116 1.249 . S
C135 C129 1.516 . S
H136 C122 0.930 . S
H137 C123 0.931 . S
H138 C124 0.931 . S
H139 C125 0.933 . S
H140 C131 0.930 . S
H141 C132 0.931 . S
H142 C133 0.931 . S
H143 C134 0.933 . S
Dy144 O147 2.307 . S
Dy144 O149 2.395 1_565 S
Dy144 O150 2.379 . S
Dy144 O152 2.339 . S
Dy144 O154 2.298 . S
Dy144 O158 2.275 1_565 S
Dy144 C166 2.738 . S
Dy145 O148 2.298 1_554 S
Dy145 O151 2.275 1_545 S
Dy145 O153 2.307 . S
Dy145 O155 2.395 1_545 S
Dy145 O156 2.379 . S
Dy145 O159 2.339 1_554 S
Dy145 C175 2.738 . S
C146 O158 1.254 . S
C146 O159 1.257 . S
O147 Dy144 2.307 . S
O147 C157 1.266 . S
O148 Dy145 2.298 1_556 S
O148 C157 1.236 1_545 S
O149 Dy144 2.395 1_545 S
O149 C166 1.255 1_545 S
O150 Dy144 2.379 . S
O150 C166 1.249 . S
O151 Dy145 2.275 1_565 S
O151 C167 1.254 1_554 S
O152 Dy144 2.339 . S
O152 C167 1.257 . S
O153 Dy145 2.307 . S
O153 C168 1.266 . S
O154 Dy144 2.298 . S
O154 C168 1.236 1_566 S
O155 Dy145 2.395 1_565 S
O155 C175 1.255 1_565 S
O156 Dy145 2.379 . S
O156 C175 1.249 . S
C157 O147 1.266 . S
C157 O148 1.236 1_565 S
O158 Dy144 2.275 1_545 S
O158 C146 1.254 . S
O159 Dy145 2.339 1_556 S
O159 C146 1.257 . S
C160 C163 1.344 . S
C160 C164 1.328 . S
C160 C166 1.516 . S
C161 C162 1.304 . S
C161 C165 1.323 . S
C162 C161 1.304 . S
C162 C163 1.371 . S
C162 H176 0.930 1_565 S
C163 C160 1.344 . S
C163 C162 1.371 . S
C163 H177 0.931 1_565 S
C164 C160 1.328 . S
C164 C165 1.433 . S
C164 H178 0.931 . S
C165 C161 1.323 . S
C165 C164 1.433 . S
C165 H179 0.933 . S
C166 Dy144 2.738 . S
C166 O149 1.255 1_565 S
C166 O150 1.249 . S
C166 C160 1.516 . S
C167 O151 1.254 1_556 S
C167 O152 1.257 . S
C168 O153 1.266 . S
C168 O154 1.236 1_544 S
C169 C172 1.344 . S
C169 C173 1.328 . S
C169 C175 1.516 . S
C170 C171 1.304 . S
C170 C174 1.323 . S
C171 C170 1.304 . S
C171 C172 1.371 . S
C171 H180 0.930 1_545 S
C172 C169 1.344 . S
C172 C171 1.371 . S
C172 H181 0.931 1_545 S
C173 C169 1.328 . S
C173 C174 1.433 . S
C173 H182 0.931 . S
C174 C170 1.323 . S
C174 C173 1.433 . S
C174 H183 0.933 . S
C175 Dy145 2.738 . S
C175 O155 1.255 1_545 S
C175 O156 1.249 . S
C175 C169 1.516 . S
H176 C162 0.930 1_545 S
H177 C163 0.931 1_545 S
H178 C164 0.931 . S
H179 C165 0.933 . S
H180 C171 0.930 1_565 S
H181 C172 0.931 1_565 S
H182 C173 0.931 . S
H183 C174 0.933 . S
Dy184 O187 2.307 . S
Dy184 O189 2.395 1_556 S
Dy184 O190 2.379 . S
Dy184 O192 2.339 . S
Dy184 O194 2.298 1_556 S
Dy184 O198 2.275 1_556 S
Dy184 C206 2.738 1_556 S
Dy185 O188 2.298 . S
Dy185 O191 2.275 . S
Dy185 O193 2.307 1_556 S
Dy185 O195 2.395 . S
Dy185 O196 2.379 . S
Dy185 O199 2.339 1_556 S
Dy185 C215 2.738 . S
C186 O198 1.254 . S
C186 O199 1.257 . S
O187 Dy184 2.307 . S
O187 C197 1.266 . S
O188 Dy185 2.298 . S
O188 C197 1.236 . S
O189 Dy184 2.395 1_554 S
O189 C206 1.255 . S
O190 Dy184 2.379 . S
O190 C206 1.249 1_556 S
O191 Dy185 2.275 . S
O191 C207 1.254 . S
O192 Dy184 2.339 . S
O192 C207 1.257 . S
O193 Dy185 2.307 1_554 S
O193 C208 1.266 . S
O194 Dy184 2.298 1_554 S
O194 C208 1.236 . S
O195 Dy185 2.395 . S
O195 C215 1.255 . S
O196 Dy185 2.379 . S
O196 C215 1.249 . S
C197 O187 1.266 . S
C197 O188 1.236 . S
O198 Dy184 2.275 1_554 S
O198 C186 1.254 . S
O199 Dy185 2.339 1_554 S
O199 C186 1.257 . S
C200 C203 1.344 . S
C200 C204 1.328 . S
C200 C206 1.516 . S
C201 C202 1.304 . S
C201 C205 1.323 . S
C202 C201 1.304 . S
C202 C203 1.371 . S
C202 H216 0.930 . S
C203 C200 1.344 . S
C203 C202 1.371 . S
C203 H217 0.931 . S
C204 C200 1.328 . S
C204 C205 1.433 . S
C204 H218 0.931 . S
C205 C201 1.323 . S
C205 C204 1.433 . S
C205 H219 0.933 . S
C206 Dy184 2.738 1_554 S
C206 O189 1.255 . S
C206 O190 1.249 1_554 S
C206 C200 1.516 . S
C207 O191 1.254 . S
C207 O192 1.257 . S
C208 O193 1.266 . S
C208 O194 1.236 . S
C209 C212 1.344 . S
C209 C213 1.328 . S
C209 C215 1.516 . S
C210 C211 1.304 . S
C210 C214 1.323 . S
C211 C210 1.304 . S
C211 C212 1.371 . S
C211 H220 0.930 . S
C212 C209 1.344 . S
C212 C211 1.371 . S
C212 H221 0.931 . S
C213 C209 1.328 . S
C213 C214 1.433 . S
C213 H222 0.931 . S
C214 C210 1.323 . S
C214 C213 1.433 . S
C214 H223 0.933 . S
C215 Dy185 2.738 . S
C215 O195 1.255 . S
C215 O196 1.249 . S
C215 C209 1.516 . S
H216 C202 0.930 . S
H217 C203 0.931 . S
H218 C204 0.931 . S
H219 C205 0.933 . S
H220 C211 0.930 . S
H221 C212 0.931 . S
H222 C213 0.931 . S
H223 C214 0.933 . S
Dy224 O227 2.307 1_455 S
Dy224 O229 2.395 . S
Dy224 O230 2.379 . S
Dy224 O232 2.339 . S
Dy224 O234 2.298 . S
Dy224 O238 2.275 . S
Dy224 C246 2.738 . S
Dy225 O228 2.298 1_554 S
Dy225 O231 2.275 . S
Dy225 O233 2.307 1_655 S
Dy225 O235 2.395 . S
Dy225 O236 2.379 . S
Dy225 O239 2.339 1_554 S
Dy225 C255 2.738 . S
C226 O238 1.254 1_655 S
C226 O239 1.257 . S
O227 Dy224 2.307 1_655 S
O227 C237 1.266 . S
O228 Dy225 2.298 1_556 S
O228 C237 1.236 . S
O229 Dy224 2.395 . S
O229 C246 1.255 . S
O230 Dy224 2.379 . S
O230 C246 1.249 . S
O231 Dy225 2.275 . S
O231 C247 1.254 1_655 S
O232 Dy224 2.339 . S
O232 C247 1.257 1_556 S
O233 Dy225 2.307 1_455 S
O233 C248 1.266 1_554 S
O234 Dy224 2.298 . S
O234 C248 1.236 . S
O235 Dy225 2.395 . S
O235 C255 1.255 . S
O236 Dy225 2.379 . S
O236 C255 1.249 . S
C237 O227 1.266 . S
C237 O228 1.236 . S
O238 Dy224 2.275 . S
O238 C226 1.254 1_455 S
O239 Dy225 2.339 1_556 S
O239 C226 1.257 . S
C240 C243 1.344 . S
C240 C244 1.328 . S
C240 C246 1.516 . S
C241 C242 1.304 . S
C241 C245 1.323 . S
C242 C241 1.304 . S
C242 C243 1.371 . S
C242 H256 0.930 . S
C243 C240 1.344 . S
C243 C242 1.371 . S
C243 H257 0.931 . S
C244 C240 1.328 . S
C244 C245 1.433 . S
C244 H258 0.931 . S
C245 C241 1.323 . S
C245 C244 1.433 . S
C245 H259 0.933 . S
C246 Dy224 2.738 . S
C246 O229 1.255 . S
C246 O230 1.249 . S
C246 C240 1.516 . S
C247 O231 1.254 1_455 S
C247 O232 1.257 1_554 S
C248 O233 1.266 1_556 S
C248 O234 1.236 . S
C249 C252 1.344 . S
C249 C253 1.328 . S
C249 C255 1.516 . S
C250 C251 1.304 . S
C250 C254 1.323 . S
C251 C250 1.304 . S
C251 C252 1.371 . S
C251 H260 0.930 . S
C252 C249 1.344 . S
C252 C251 1.371 . S
C252 H261 0.931 . S
C253 C249 1.328 . S
C253 C254 1.433 . S
C253 H262 0.931 . S
C254 C250 1.323 . S
C254 C253 1.433 . S
C254 H263 0.933 . S
C255 Dy225 2.738 . S
C255 O235 1.255 . S
C255 O236 1.249 . S
C255 C249 1.516 . S
H256 C242 0.930 . S
H257 C243 0.931 . S
H258 C244 0.931 . S
H259 C245 0.933 . S
H260 C251 0.930 . S
H261 C252 0.931 . S
H262 C253 0.931 . S
H263 C254 0.933 . S
C264 C265 1.365 . S
C264 C270 1.379 . S
C264 N272 1.356 . S
C265 C264 1.365 . S
C265 C271 1.361 1_545 S
C266 C267 1.358 1_565 S
C266 C271 1.379 . S
C266 N273 1.356 . S
C267 C266 1.358 1_545 S
C267 C270 1.369 . S
N268 C270 1.356 . S
N268 H280 0.984 . S
N268 H281 0.985 . S
N269 C271 1.356 . S
N269 H274 0.984 . S
N269 H275 0.985 . S
C270 C264 1.379 . S
C270 C267 1.369 . S
C270 N268 1.356 . S
C271 C265 1.361 1_565 S
C271 C266 1.379 . S
C271 N269 1.356 . S
N272 C264 1.356 . S
N272 H278 0.984 . S
N272 H279 0.984 . S
N273 C266 1.356 . S
N273 H276 0.984 . S
N273 H277 0.985 . S
H274 N269 0.984 . S
H275 N269 0.985 . S
H276 N273 0.984 . S
H277 N273 0.985 . S
H278 N272 0.984 . S
H279 N272 0.984 . S
H280 N268 0.984 . S
H281 N268 0.985 . S
C282 C283 1.363 . S
C282 C288 1.379 . S
C282 N290 1.356 . S
C283 C282 1.363 . S
C283 C289 1.363 . S
C284 C285 1.363 . S
C284 C289 1.379 . S
C284 N291 1.356 . S
C285 C284 1.363 . S
C285 C288 1.363 . S
N286 C288 1.356 . S
N286 H298 0.984 . S
N286 H299 0.985 . S
N287 C289 1.356 . S
N287 H292 0.984 . S
N287 H293 0.985 . S
C288 C282 1.379 . S
C288 C285 1.363 . S
C288 N286 1.356 . S
C289 C283 1.363 . S
C289 C284 1.379 . S
C289 N287 1.356 . S
N290 C282 1.356 . S
N290 H296 0.984 . S
N290 H297 0.984 . S
N291 C284 1.356 . S
N291 H294 0.984 . S
N291 H295 0.985 . S
H292 N287 0.984 . S
H293 N287 0.985 . S
H294 N291 0.984 . S
H295 N291 0.985 . S
H296 N290 0.984 . S
H297 N290 0.984 . S
H298 N286 0.984 . S
H299 N286 0.985 . S
C300 C301 1.363 . S
C300 C306 1.379 . S
C300 N308 1.356 . S
C301 C300 1.363 . S
C301 C307 1.363 . S
C302 C303 1.363 . S
C302 C307 1.379 . S
C302 N309 1.356 . S
C303 C302 1.363 . S
C303 C306 1.363 . S
N304 C306 1.356 . S
N304 H316 0.984 . S
N304 H317 0.985 . S
N305 C307 1.356 . S
N305 H310 0.984 1_554 S
N305 H311 0.985 . S
C306 C300 1.379 . S
C306 C303 1.363 . S
C306 N304 1.356 . S
C307 C301 1.363 . S
C307 C302 1.379 . S
C307 N305 1.356 . S
N308 C300 1.356 . S
N308 H314 0.984 . S
N308 H315 0.984 . S
N309 C302 1.356 . S
N309 H312 0.984 . S
N309 H313 0.985 . S
H310 N305 0.984 1_556 S
H311 N305 0.985 . S
H312 N309 0.984 . S
H313 N309 0.985 . S
H314 N308 0.984 . S
H315 N308 0.984 . S
H316 N304 0.984 . S
H317 N304 0.985 . S
C318 C319 1.363 1_655 S
C318 C324 1.379 . S
C318 N326 1.356 . S
C319 C318 1.363 1_455 S
C319 C325 1.363 . S
C320 C321 1.363 . S
C320 C325 1.379 . S
C320 N327 1.356 . S
C321 C320 1.363 . S
C321 C324 1.363 1_455 S
N322 C324 1.356 . S
N322 H334 0.984 . S
N322 H335 0.985 . S
N323 C325 1.356 . S
N323 H328 0.984 . S
N323 H329 0.985 . S
C324 C318 1.379 . S
C324 C321 1.363 1_655 S
C324 N322 1.356 . S
C325 C319 1.363 . S
C325 C320 1.379 . S
C325 N323 1.356 . S
N326 C318 1.356 . S
N326 H332 0.984 . S
N326 H333 0.984 . S
N327 C320 1.356 . S
N327 H330 0.984 . S
N327 H331 0.985 . S
H328 N323 0.984 . S
H329 N323 0.985 . S
H330 N327 0.984 . S
H331 N327 0.985 . S
H332 N326 0.984 . S
H333 N326 0.984 . S
H334 N322 0.984 . S
H335 N322 0.985 . S
C336 C337 1.365 1_545 S
C336 C342 1.379 . S
C336 N344 1.356 . S
C337 C336 1.365 1_565 S
C337 C343 1.361 . S
C338 C339 1.365 . S
C338 C343 1.379 . S
C338 N345 1.356 . S
C339 C338 1.365 . S
C339 C342 1.361 1_565 S
N340 C342 1.356 . S
N340 H352 0.984 . S
N340 H353 0.985 . S
N341 C343 1.356 . S
N341 H346 0.984 . S
N341 H347 0.985 . S
C342 C336 1.379 . S
C342 C339 1.361 1_545 S
C342 N340 1.356 . S
C343 C337 1.361 . S
C343 C338 1.379 . S
C343 N341 1.356 . S
N344 C336 1.356 . S
N344 H350 0.984 . S
N344 H351 0.984 . S
N345 C338 1.356 . S
N345 H348 0.984 . S
N345 H349 0.985 . S
H346 N341 0.984 . S
H347 N341 0.985 . S
H348 N345 0.984 . S
H349 N345 0.985 . S
H350 N344 0.984 . S
H351 N344 0.984 . S
H352 N340 0.984 . S
H353 N340 0.985 . S
C354 C355 1.363 . S
C354 C360 1.379 . S
C354 N362 1.356 . S
C355 C354 1.363 . S
C355 C361 1.363 . S
C356 C357 1.363 . S
C356 C361 1.379 . S
C356 N363 1.356 . S
C357 C356 1.363 . S
C357 C360 1.363 . S
N358 C360 1.356 1_556 S
N358 H370 0.984 . S
N358 H371 0.985 . S
N359 C361 1.356 . S
N359 H364 0.984 . S
N359 H365 0.985 . S
C360 C354 1.379 . S
C360 C357 1.363 . S
C360 N358 1.356 1_554 S
C361 C355 1.363 . S
C361 C356 1.379 . S
C361 N359 1.356 . S
N362 C354 1.356 . S
N362 H368 0.984 . S
N362 H369 0.984 . S
N363 C356 1.356 . S
N363 H366 0.984 . S
N363 H367 0.985 . S
H364 N359 0.984 . S
H365 N359 0.985 . S
H366 N363 0.984 . S
H367 N363 0.985 . S
H368 N362 0.984 . S
H369 N362 0.984 . S
H370 N358 0.984 . S
H371 N358 0.985 . S
C372 C373 1.363 . S
C372 C378 1.379 . S
C372 N380 1.356 . S
C373 C372 1.363 . S
C373 C379 1.363 . S
C374 C375 1.363 . S
C374 C379 1.379 . S
C374 N381 1.356 . S
C375 C374 1.363 . S
C375 C378 1.363 . S
N376 C378 1.356 . S
N376 H388 0.984 . S
N376 H389 0.985 . S
N377 C379 1.356 . S
N377 H382 0.984 . S
N377 H383 0.985 . S
C378 C372 1.379 . S
C378 C375 1.363 . S
C378 N376 1.356 . S
C379 C373 1.363 . S
C379 C374 1.379 . S
C379 N377 1.356 . S
N380 C372 1.356 . S
N380 H386 0.984 . S
N380 H387 0.984 . S
N381 C374 1.356 . S
N381 H384 0.984 . S
N381 H385 0.985 . S
H382 N377 0.984 . S
H383 N377 0.985 . S
H384 N381 0.984 . S
H385 N381 0.985 . S
H386 N380 0.984 . S
H387 N380 0.984 . S
H388 N376 0.984 . S
H389 N376 0.985 . S
C390 C391 1.363 1_455 S
C390 C396 1.379 . S
C390 N398 1.356 . S
C391 C390 1.363 1_655 S
C391 C397 1.363 . S
C392 C393 1.363 . S
C392 C397 1.379 . S
C392 N399 1.356 . S
C393 C392 1.363 . S
C393 C396 1.363 1_655 S
N394 C396 1.356 . S
N394 H406 0.984 . S
N394 H407 0.985 . S
N395 C397 1.356 . S
N395 H400 0.984 . S
N395 H401 0.985 . S
C396 C390 1.379 . S
C396 C393 1.363 1_455 S
C396 N394 1.356 . S
C397 C391 1.363 . S
C397 C392 1.379 . S
C397 N395 1.356 . S
N398 C390 1.356 . S
N398 H404 0.984 . S
N398 H405 0.984 . S
N399 C392 1.356 . S
N399 H402 0.984 . S
N399 H403 0.985 . S
H400 N395 0.984 . S
H401 N395 0.985 . S
H402 N399 0.984 . S
H403 N399 0.985 . S
H404 N398 0.984 . S
H405 N398 0.984 . S
H406 N394 0.984 . S
H407 N394 0.985 . S
C408 C409 1.363 1_655 S
C408 C414 1.379 . S
C408 N416 1.356 . S
C409 C408 1.363 1_455 S
C409 C415 1.363 . S
C410 C411 1.363 . S
C410 C415 1.379 1_655 S
C410 N417 1.356 . S
C411 C410 1.363 . S
C411 C414 1.363 . S
N412 C414 1.356 . S
N412 H424 0.984 . S
N412 H425 0.985 . S
N413 C415 1.356 . S
N413 H418 0.984 . S
N413 H419 0.985 . S
C414 C408 1.379 . S
C414 C411 1.363 . S
C414 N412 1.356 . S
C415 C409 1.363 . S
C415 C410 1.379 1_455 S
C415 N413 1.356 . S
N416 C408 1.356 . S
N416 H422 0.984 . S
N416 H423 0.984 . S
N417 C410 1.356 . S
N417 H420 0.984 . S
N417 H421 0.985 1_655 S
H418 N413 0.984 . S
H419 N413 0.985 . S
H420 N417 0.984 . S
H421 N417 0.985 1_455 S
H422 N416 0.984 . S
H423 N416 0.984 . S
H424 N412 0.984 . S
H425 N412 0.985 . S
C426 C427 1.363 1_545 S
C426 C432 1.379 1_545 S
C426 N434 1.356 . S
C427 C426 1.363 1_565 S
C427 C433 1.363 . S
C428 C429 1.363 . S
C428 C433 1.379 . S
C428 N435 1.356 . S
C429 C428 1.363 . S
C429 C432 1.363 . S
N430 C432 1.356 . S
N430 H442 0.984 1_565 S
N430 H443 0.985 . S
N431 C433 1.356 . S
N431 H436 0.984 . S
N431 H437 0.985 . S
C432 C426 1.379 1_565 S
C432 C429 1.363 . S
C432 N430 1.356 . S
C433 C427 1.363 . S
C433 C428 1.379 . S
C433 N431 1.356 . S
N434 C426 1.356 . S
N434 H440 0.984 . S
N434 H441 0.984 . S
N435 C428 1.356 . S
N435 H438 0.984 . S
N435 H439 0.985 . S
H436 N431 0.984 . S
H437 N431 0.985 . S
H438 N435 0.984 . S
H439 N435 0.985 . S
H440 N434 0.984 . S
H441 N434 0.984 . S
H442 N430 0.984 1_545 S
H443 N430 0.985 . S
C444 C445 1.363 . S
C444 C450 1.379 . S
C444 N452 1.356 . S
C445 C444 1.363 . S
C445 C451 1.363 . S
C446 C447 1.363 . S
C446 C451 1.379 . S
C446 N453 1.356 . S
C447 C446 1.363 . S
C447 C450 1.363 . S
N448 C450 1.356 . S
N448 H460 0.984 . S
N448 H461 0.985 . S
N449 C451 1.356 . S
N449 H454 0.984 . S
N449 H455 0.985 . S
C450 C444 1.379 . S
C450 C447 1.363 . S
C450 N448 1.356 . S
C451 C445 1.363 . S
C451 C446 1.379 . S
C451 N449 1.356 . S
N452 C444 1.356 . S
N452 H458 0.984 . S
N452 H459 0.984 . S
N453 C446 1.356 . S
N453 H456 0.984 . S
N453 H457 0.985 . S
H454 N449 0.984 . S
H455 N449 0.985 . S
H456 N453 0.984 . S
H457 N453 0.985 . S
H458 N452 0.984 . S
H459 N452 0.984 . S
H460 N448 0.984 . S
H461 N448 0.985 . S
C462 C463 1.363 . S
C462 C468 1.379 . S
C462 N470 1.356 . S
C463 C462 1.363 . S
C463 C469 1.363 . S
C464 C465 1.363 . S
C464 C469 1.379 . S
C464 N471 1.356 . S
C465 C464 1.363 . S
C465 C468 1.363 . S
N466 C468 1.356 . S
N466 H478 0.984 . S
N466 H479 0.985 . S
N467 C469 1.356 1_556 S
N467 H472 0.984 . S
N467 H473 0.985 . S
C468 C462 1.379 . S
C468 C465 1.363 . S
C468 N466 1.356 . S
C469 C463 1.363 . S
C469 C464 1.379 . S
C469 N467 1.356 1_554 S
N470 C462 1.356 . S
N470 H476 0.984 . S
N470 H477 0.984 . S
N471 C464 1.356 . S
N471 H474 0.984 . S
N471 H475 0.985 . S
H472 N467 0.984 . S
H473 N467 0.985 . S
H474 N471 0.984 . S
H475 N471 0.985 . S
H476 N470 0.984 . S
H477 N470 0.984 . S
H478 N466 0.984 . S
H479 N466 0.985 . S
C480 C481 1.363 1_455 S
C480 C486 1.379 . S
C480 N488 1.356 . S
C481 C480 1.363 1_655 S
C481 C487 1.363 . S
C482 C483 1.363 . S
C482 C487 1.379 1_455 S
C482 N489 1.356 . S
C483 C482 1.363 . S
C483 C486 1.363 . S
N484 C486 1.356 . S
N484 H496 0.984 . S
N484 H497 0.985 . S
N485 C487 1.356 . S
N485 H490 0.984 . S
N485 H491 0.985 . S
C486 C480 1.379 . S
C486 C483 1.363 . S
C486 N484 1.356 . S
C487 C481 1.363 . S
C487 C482 1.379 1_655 S
C487 N485 1.356 . S
N488 C480 1.356 . S
N488 H494 0.984 . S
N488 H495 0.984 . S
N489 C482 1.356 . S
N489 H492 0.984 . S
N489 H493 0.985 1_455 S
H490 N485 0.984 . S
H491 N485 0.985 . S
H492 N489 0.984 . S
H493 N489 0.985 1_655 S
H494 N488 0.984 . S
H495 N488 0.984 . S
H496 N484 0.984 . S
H497 N484 0.985 . S
C498 C499 1.363 . S
C498 C504 1.379 . S
C498 N506 1.356 . S
C499 C498 1.363 . S
C499 C505 1.363 . S
C500 C501 1.363 . S
C500 C505 1.379 . S
C500 N507 1.356 . S
C501 C500 1.363 . S
C501 C504 1.363 . S
N502 C504 1.356 . S
N502 H514 0.984 . S
N502 H515 0.985 . S
N503 C505 1.356 1_565 S
N503 H508 0.984 . S
N503 H509 0.985 . S
C504 C498 1.379 . S
C504 C501 1.363 . S
C504 N502 1.356 . S
C505 C499 1.363 . S
C505 C500 1.379 . S
C505 N503 1.356 1_545 S
N506 C498 1.356 . S
N506 H512 0.984 . S
N506 H513 0.984 1_545 S
N507 C500 1.356 . S
N507 H510 0.984 . S
N507 H511 0.985 . S
H508 N503 0.984 . S
H509 N503 0.985 . S
H510 N507 0.984 . S
H511 N507 0.985 . S
H512 N506 0.984 . S
H513 N506 0.984 1_565 S
H514 N502 0.984 . S
H515 N502 0.985 . S
C516 C517 1.363 . S
C516 C522 1.379 . S
C516 N524 1.356 . S
C517 C516 1.363 . S
C517 C523 1.363 . S
C518 C519 1.363 . S
C518 C523 1.379 . S
C518 N525 1.356 . S
C519 C518 1.363 . S
C519 C522 1.363 . S
N520 C522 1.356 . S
N520 H532 0.984 . S
N520 H533 0.985 . S
N521 C523 1.356 . S
N521 H526 0.984 . S
N521 H527 0.985 . S
C522 C516 1.379 . S
C522 C519 1.363 . S
C522 N520 1.356 . S
C523 C517 1.363 . S
C523 C518 1.379 . S
C523 N521 1.356 . S
N524 C516 1.356 . S
N524 H530 0.984 . S
N524 H531 0.984 . S
N525 C518 1.356 . S
N525 H528 0.984 . S
N525 H529 0.985 1_554 S
H526 N521 0.984 . S
H527 N521 0.985 . S
H528 N525 0.984 . S
H529 N525 0.985 1_556 S
H530 N524 0.984 . S
H531 N524 0.984 . S
H532 N520 0.984 . S
H533 N520 0.985 . S
C534 C535 1.363 . S
C534 C540 1.379 . S
C534 N542 1.356 . S
C535 C534 1.363 . S
C535 C541 1.363 . S
C536 C537 1.363 . S
C536 C541 1.379 . S
C536 N543 1.356 . S
C537 C536 1.363 . S
C537 C540 1.363 . S
N538 C540 1.356 . S
N538 H550 0.984 . S
N538 H551 0.985 . S
N539 C541 1.356 . S
N539 H544 0.984 . S
N539 H545 0.985 . S
C540 C534 1.379 . S
C540 C537 1.363 . S
C540 N538 1.356 . S
C541 C535 1.363 . S
C541 C536 1.379 . S
C541 N539 1.356 . S
N542 C534 1.356 . S
N542 H548 0.984 . S
N542 H549 0.984 . S
N543 C536 1.356 . S
N543 H546 0.984 . S
N543 H547 0.985 . S
H544 N539 0.984 . S
H545 N539 0.985 . S
H546 N543 0.984 . S
H547 N543 0.985 . S
H548 N542 0.984 . S
H549 N542 0.984 . S
H550 N538 0.984 . S
H551 N538 0.985 . S
C552 C553 1.363 . S
C552 C558 1.379 . S
C552 N560 1.356 . S
C553 C552 1.363 . S
C553 C559 1.363 1_454 S
C554 C555 1.363 1_656 S
C554 C559 1.379 . S
C554 N561 1.356 . S
C555 C554 1.363 1_454 S
C555 C558 1.363 . S
N556 C558 1.356 . S
N556 H568 0.984 . S
N556 H569 0.985 . S
N557 C559 1.356 . S
N557 H562 0.984 . S
N557 H563 0.985 . S
C558 C552 1.379 . S
C558 C555 1.363 . S
C558 N556 1.356 . S
C559 C553 1.363 1_656 S
C559 C554 1.379 . S
C559 N557 1.356 . S
N560 C552 1.356 . S
N560 H566 0.984 . S
N560 H567 0.984 . S
N561 C554 1.356 . S
N561 H564 0.984 . S
N561 H565 0.985 . S
H562 N557 0.984 . S
H563 N557 0.985 . S
H564 N561 0.984 . S
H565 N561 0.985 . S
H566 N560 0.984 . S
H567 N560 0.984 . S
H568 N556 0.984 . S
H569 N556 0.985 . S
C570 C571 1.363 1_565 S
C570 C576 1.379 . S
C570 N578 1.356 1_554 S
C571 C570 1.363 1_545 S
C571 C577 1.363 . S
C572 C573 1.363 . S
C572 C577 1.379 . S
C572 N579 1.356 . S
C573 C572 1.363 . S
C573 C576 1.363 1_545 S
N574 C576 1.356 1_556 S
N574 H586 0.984 . S
N574 H587 0.985 . S
N575 C577 1.356 . S
N575 H580 0.984 . S
N575 H581 0.985 . S
C576 C570 1.379 . S
C576 C573 1.363 1_565 S
C576 N574 1.356 1_554 S
C577 C571 1.363 . S
C577 C572 1.379 . S
C577 N575 1.356 . S
N578 C570 1.356 1_556 S
N578 H584 0.984 . S
N578 H585 0.984 1_556 S
N579 C572 1.356 . S
N579 H582 0.984 . S
N579 H583 0.985 . S
H580 N575 0.984 . S
H581 N575 0.985 . S
H582 N579 0.984 . S
H583 N579 0.985 . S
H584 N578 0.984 . S
H585 N578 0.984 1_554 S
H586 N574 0.984 . S
H587 N574 0.985 . S
C588 C589 1.363 . S
C588 C594 1.379 . S
C588 N596 1.356 . S
C589 C588 1.363 . S
C589 C595 1.363 . S
C590 C591 1.363 . S
C590 C595 1.379 . S
C590 N597 1.356 . S
C591 C590 1.363 . S
C591 C594 1.363 . S
N592 C594 1.356 . S
N592 H604 0.984 . S
N592 H605 0.985 . S
N593 C595 1.356 . S
N593 H598 0.984 . S
N593 H599 0.985 . S
C594 C588 1.379 . S
C594 C591 1.363 . S
C594 N592 1.356 . S
C595 C589 1.363 . S
C595 C590 1.379 . S
C595 N593 1.356 . S
N596 C588 1.356 . S
N596 H602 0.984 . S
N596 H603 0.984 . S
N597 C590 1.356 . S
N597 H600 0.984 . S
N597 H601 0.985 1_554 S
H598 N593 0.984 . S
H599 N593 0.985 . S
H600 N597 0.984 . S
H601 N597 0.985 1_556 S
H602 N596 0.984 . S
H603 N596 0.984 . S
H604 N592 0.984 . S
H605 N592 0.985 . S
C606 C607 1.363 . S
C606 C612 1.379 . S
C606 N614 1.356 1_556 S
C607 C606 1.363 . S
C607 C613 1.363 . S
C608 C609 1.363 . S
C608 C613 1.379 . S
C608 N615 1.356 . S
C609 C608 1.363 . S
C609 C612 1.363 . S
N610 C612 1.356 1_554 S
N610 H622 0.984 . S
N610 H623 0.985 . S
N611 C613 1.356 . S
N611 H616 0.984 . S
N611 H617 0.985 . S
C612 C606 1.379 . S
C612 C609 1.363 . S
C612 N610 1.356 1_556 S
C613 C607 1.363 . S
C613 C608 1.379 . S
C613 N611 1.356 . S
N614 C606 1.356 1_554 S
N614 H620 0.984 . S
N614 H621 0.984 1_554 S
N615 C608 1.356 . S
N615 H618 0.984 . S
N615 H619 0.985 . S
H616 N611 0.984 . S
H617 N611 0.985 . S
H618 N615 0.984 . S
H619 N615 0.985 . S
H620 N614 0.984 . S
H621 N614 0.984 1_556 S
H622 N610 0.984 . S
H623 N610 0.985 . S
C624 C625 1.363 . S
C624 C630 1.379 . S
C624 N632 1.356 . S
C625 C624 1.363 . S
C625 C631 1.363 1_655 S
C626 C627 1.363 1_455 S
C626 C631 1.379 . S
C626 N633 1.356 . S
C627 C626 1.363 1_655 S
C627 C630 1.363 . S
N628 C630 1.356 1_554 S
N628 H640 0.984 . S
N628 H641 0.985 1_554 S
N629 C631 1.356 . S
N629 H634 0.984 . S
N629 H635 0.985 . S
C630 C624 1.379 . S
C630 C627 1.363 . S
C630 N628 1.356 1_556 S
C631 C625 1.363 1_455 S
C631 C626 1.379 . S
C631 N629 1.356 . S
N632 C624 1.356 . S
N632 H638 0.984 1_556 S
N632 H639 0.984 . S
N633 C626 1.356 . S
N633 H636 0.984 . S
N633 H637 0.985 . S
H634 N629 0.984 . S
H635 N629 0.985 . S
H636 N633 0.984 . S
H637 N633 0.985 . S
H638 N632 0.984 1_554 S
H639 N632 0.984 . S
H640 N628 0.984 . S
H641 N628 0.985 1_556 S
C642 C643 1.363 1_545 S
C642 C648 1.379 . S
C642 N650 1.356 . S
C643 C642 1.363 1_565 S
C643 C649 1.363 . S
C644 C645 1.363 . S
C644 C649 1.379 . S
C644 N651 1.356 . S
C645 C644 1.363 . S
C645 C648 1.363 1_565 S
N646 C648 1.356 . S
N646 H658 0.984 . S
N646 H659 0.985 . S
N647 C649 1.356 . S
N647 H652 0.984 . S
N647 H653 0.985 . S
C648 C642 1.379 . S
C648 C645 1.363 1_545 S
C648 N646 1.356 . S
C649 C643 1.363 . S
C649 C644 1.379 . S
C649 N647 1.356 . S
N650 C642 1.356 . S
N650 H656 0.984 . S
N650 H657 0.984 . S
N651 C644 1.356 . S
N651 H654 0.984 . S
N651 H655 0.985 . S
H652 N647 0.984 . S
H653 N647 0.985 . S
H654 N651 0.984 . S
H655 N651 0.985 . S
H656 N650 0.984 . S
H657 N650 0.984 . S
H658 N646 0.984 . S
H659 N646 0.985 . S
C660 C661 1.363 . S
C660 C666 1.379 . S
C660 N668 1.356 . S
C661 C660 1.363 . S
C661 C667 1.363 . S
C662 C663 1.363 . S
C662 C667 1.379 . S
C662 N669 1.356 . S
C663 C662 1.363 . S
C663 C666 1.363 . S
N664 C666 1.356 . S
N664 H676 0.984 . S
N664 H677 0.985 . S
N665 C667 1.356 . S
N665 H670 0.984 . S
N665 H671 0.985 . S
C666 C660 1.379 . S
C666 C663 1.363 . S
C666 N664 1.356 . S
C667 C661 1.363 . S
C667 C662 1.379 . S
C667 N665 1.356 . S
N668 C660 1.356 . S
N668 H674 0.984 . S
N668 H675 0.984 . S
N669 C662 1.356 . S
N669 H672 0.984 . S
N669 H673 0.985 . S
H670 N665 0.984 . S
H671 N665 0.985 . S
H672 N669 0.984 . S
H673 N669 0.985 . S
H674 N668 0.984 . S
H675 N668 0.984 . S
H676 N664 0.984 . S
H677 N664 0.985 . S
C678 C679 1.363 . S
C678 C684 1.379 . S
C678 N686 1.356 . S
C679 C678 1.363 . S
C679 C685 1.363 . S
C680 C681 1.363 . S
C680 C685 1.379 . S
C680 N687 1.356 . S
C681 C680 1.363 . S
C681 C684 1.363 . S
N682 C684 1.356 . S
N682 H694 0.984 . S
N682 H695 0.985 . S
N683 C685 1.356 . S
N683 H688 0.984 . S
N683 H689 0.985 . S
C684 C678 1.379 . S
C684 C681 1.363 . S
C684 N682 1.356 . S
C685 C679 1.363 . S
C685 C680 1.379 . S
C685 N683 1.356 . S
N686 C678 1.356 . S
N686 H692 0.984 . S
N686 H693 0.984 . S
N687 C680 1.356 . S
N687 H690 0.984 . S
N687 H691 0.985 . S
H688 N683 0.984 . S
H689 N683 0.985 . S
H690 N687 0.984 . S
H691 N687 0.985 . S
H692 N686 0.984 . S
H693 N686 0.984 . S
H694 N682 0.984 . S
H695 N682 0.985 . S
C265 N80 2.199 1_545 S
C267 C106 2.251 1_545 S
C285 C146 2.098 . S
C283 N93 2.062 . S
C303 C210 1.961 . S
C301 N54 1.881 . S
C321 C226 1.885 1_455 S
C319 N67 1.666 1_455 S
C339 C127 2.254 1_565 S
C337 N28 2.201 . S
C355 N41 2.071 . S
C357 C167 2.101 1_554 S
C373 N2 1.890 . S
C375 C201 1.962 . S
C391 N15 1.672 . S
C393 C247 1.883 1_655 S
C411 C121 0.652 . S
C409 N70 0.620 1_455 S
C429 C161 0.921 . S
C427 N83 0.960 . S
C447 C197 1.064 . S
C445 N96 1.109 . S
C463 N57 0.896 . S
C465 C241 0.855 . S
C481 N18 0.622 . S
C483 C130 0.651 . S
C501 C170 0.921 . S
C499 N31 0.962 1_545 S
C519 C208 1.064 . S
C517 N44 1.112 . S
C535 N5 0.902 . S
C537 C250 0.861 . S
C553 N66 1.988 1_455 S
C555 C128 2.122 . S
C571 N79 2.207 1_545 S
C573 C168 2.284 . S
C591 C186 1.828 . S
C589 N92 1.863 . S
C609 C248 2.562 . S
C607 N53 2.420 . S
C625 N14 1.981 . S
C627 C117 2.127 . S
C645 C157 2.284 . S
C643 N27 2.196 . S
C663 C207 1.828 . S
C661 N40 1.868 . S
C679 N1 2.426 . S
C681 C237 2.566 . S
