# Generated by pormake.
# Topology anh, (6,3)-cn, num edge types: 1
# Building blocks:
#     Node 0, Type 0, BuildingBlock: BETFEN_clean_sbu_0, # of connection points: 6
#     Node 1, Type 0, BuildingBlock: BETFEN_clean_sbu_0, # of connection points: 6
#     Node 2, Type 0, BuildingBlock: BETFEN_clean_sbu_0, # of connection points: 6
#     Node 3, Type 1, BuildingBlock: PAMTOO_clean_linker_0, # of connection points: 3
#     Node 4, Type 1, BuildingBlock: PAMTOO_clean_linker_0, # of connection points: 3
#     Node 5, Type 1, BuildingBlock: PAMTOO_clean_linker_0, # of connection points: 3
#     Node 6, Type 1, BuildingBlock: PAMTOO_clean_linker_0, # of connection points: 3
#     Node 7, Type 1, BuildingBlock: PAMTOO_clean_linker_0, # of connection points: 3
#     Node 8, Type 1, BuildingBlock: PAMTOO_clean_linker_0, # of connection points: 3
#     Edge 9, Type (0, 1), BuildingBlock: CIFDUS_clean_linker_0, # of connection points: 2
#     Edge 10, Type (0, 1), BuildingBlock: CIFDUS_clean_linker_0, # of connection points: 2
#     Edge 11, Type (0, 1), BuildingBlock: CIFDUS_clean_linker_0, # of connection points: 2
#     Edge 12, Type (0, 1), BuildingBlock: CIFDUS_clean_linker_0, # of connection points: 2
#     Edge 13, Type (0, 1), BuildingBlock: CIFDUS_clean_linker_0, # of connection points: 2
#     Edge 14, Type (0, 1), BuildingBlock: CIFDUS_clean_linker_0, # of connection points: 2
#     Edge 15, Type (0, 1), BuildingBlock: CIFDUS_clean_linker_0, # of connection points: 2
#     Edge 16, Type (0, 1), BuildingBlock: CIFDUS_clean_linker_0, # of connection points: 2
#     Edge 17, Type (0, 1), BuildingBlock: CIFDUS_clean_linker_0, # of connection points: 2
#     Edge 18, Type (0, 1), BuildingBlock: CIFDUS_clean_linker_0, # of connection points: 2
#     Edge 19, Type (0, 1), BuildingBlock: CIFDUS_clean_linker_0, # of connection points: 2
#     Edge 20, Type (0, 1), BuildingBlock: CIFDUS_clean_linker_0, # of connection points: 2
#     Edge 21, Type (0, 1), BuildingBlock: CIFDUS_clean_linker_0, # of connection points: 2
#     Edge 22, Type (0, 1), BuildingBlock: CIFDUS_clean_linker_0, # of connection points: 2
#     Edge 23, Type (0, 1), BuildingBlock: CIFDUS_clean_linker_0, # of connection points: 2
#     Edge 24, Type (0, 1), BuildingBlock: CIFDUS_clean_linker_0, # of connection points: 2
#     Edge 25, Type (0, 1), BuildingBlock: CIFDUS_clean_linker_0, # of connection points: 2
#     Edge 26, Type (0, 1), BuildingBlock: CIFDUS_clean_linker_0, # of connection points: 2
# Relax obj value: 0.182
# Max RMSD: 0.192
# Mean RMSD: 0.120
data_MOF--net-anh--node1-BETFEN_clean_sbu_0--node2-PAMTOO_clean_linker_0--edge1-CIFDUS_clean_linker_0
_symmetry_space_group_name_H-M    P1
_symmetry_Int_Tables_number       1
_symmetry_cell_setting            triclinic
loop_
_symmetry_equiv_pos_as_xyz
'x, y, z'
_cell_length_a     26.407956
_cell_length_b     27.874188
_cell_length_c     43.230621
_cell_angle_alpha  86.932422
_cell_angle_beta   92.960134
_cell_angle_gamma 101.45463
loop_
_atom_site_label
_atom_site_type_symbol
_atom_site_fract_x
_atom_site_fract_y
_atom_site_fract_z
_atom_type_partial_charge
Pr0 Pr 0.09335 0.52945 0.14594 0.0
Pr1 Pr 0.11995 0.64259 0.14266 0.0
C2 C 0.0523 0.43549 0.159 0.0
C3 C 1.00028 0.4092 0.16705 0.0
C4 C 0.96655 0.38544 0.144 0.0
C5 C 0.91748 0.35999 0.15132 0.0
C6 C 0.90138 0.35727 0.18192 0.0
C7 C 0.93456 0.38212 0.20486 0.0
C8 C 0.98354 0.40799 0.19748 0.0
C9 C 0.1147 0.57136 0.08709 0.0
C10 C 0.99528 0.59095 0.14081 0.0
C11 C 0.15389 0.73391 0.12092 0.0
C12 C 0.19886 0.7718 0.12832 0.0
C13 C 0.21765 0.7788 0.15906 0.0
C14 C 0.26045 0.81558 0.16552 0.0
C15 C 0.2853 0.84521 0.14124 0.0
C16 C 0.26808 0.83584 0.11044 0.0
C17 C 0.22497 0.79962 0.10407 0.0
C18 C 0.11844 0.61144 0.20564 0.0
C19 C 0.2168 0.57897 0.14993 0.0
O20 O 0.07843 0.46428 0.17973 0.0
O21 O 0.05698 0.45401 0.13059 0.0
O22 O 0.08714 0.58648 0.10609 0.0
O23 O 0.13198 0.53322 0.09841 0.0
O24 O 1.02863 0.63288 0.13677 0.0
O25 O 1.01104 0.5491 0.1465 0.0
O26 O 0.16447 0.69569 0.10815 0.0
O27 O 0.11854 0.72317 0.14181 0.0
O28 O 0.11032 0.58507 0.18259 0.0
O29 O 0.13009 0.65726 0.19655 0.0
O30 O 0.18195 0.53961 0.15733 0.0
O31 O 0.20279 0.62076 0.1407 0.0
H32 H 0.9782 0.38616 0.12029 0.0
H33 H 0.89236 0.34191 0.13305 0.0
H34 H 0.92343 0.38025 0.22873 0.0
H35 H 1.00847 0.42632 0.21574 0.0
H36 H 0.19882 0.75645 0.17806 0.0
H37 H 0.27287 0.82181 0.18948 0.0
H38 H 0.28748 0.85704 0.09123 0.0
H39 H 0.21181 0.79347 0.08019 0.0
Pr40 Pr 0.64948 0.10739 0.51639 0.0
Pr41 Pr 0.53771 0.07711 0.51409 0.0
C42 C 0.74947 0.14799 0.50914 0.0
C43 C 0.78076 0.19499 0.49774 0.0
C44 C 0.80391 0.23053 0.51877 0.0
C45 C 0.83734 0.27307 0.50847 0.0
C46 C 0.8484 0.28079 0.47695 0.0
C47 C 0.82316 0.24641 0.45577 0.0
C48 C 0.78996 0.20386 0.46606 0.0
C49 C 0.60933 0.07829 0.57398 0.0
C50 C 0.58438 0.20165 0.51671 0.0
C51 C 0.43546 1.04865 0.51894 0.0
C52 C 0.39906 1.0047 0.50849 0.0
C53 C 0.39795 0.99021 0.47776 0.0
C54 C 0.36462 0.94754 0.46848 0.0
C55 C 0.3319 0.91836 0.48974 0.0
C56 C 0.3341 0.93232 0.52067 0.0
C57 C 0.36743 0.97503 0.52993 0.0
C58 C 0.57889 0.07295 0.45631 0.0
C59 C 0.60299 0.98363 0.51822 0.0
O60 O 0.7216 0.11976 0.48869 0.0
O61 O 0.72621 0.14857 0.53505 0.0
O62 O 0.59165 0.1058 0.55412 0.0
O63 O 0.65003 1.06464 0.5648 0.0
O64 O 0.54274 0.16528 0.5159 0.0
O65 O 0.6307 0.18956 0.51665 0.0
O66 O 0.46856 1.04065 0.54129 0.0
O67 O 0.45596 0.08041 0.49737 0.0
O68 O 0.59239 0.10803 0.47421 0.0
O69 O 0.54464 1.03866 0.46864 0.0
O70 O 0.64315 1.01948 0.51126 0.0
O71 O 0.55888 0.99666 0.52441 0.0
H72 H 0.79743 0.22482 0.54335 0.0
H73 H 0.8562 0.29876 0.5254 0.0
H74 H 0.82986 0.2519 0.43122 0.0
H75 H 0.77244 0.17748 0.4492 0.0
H76 H 0.42296 1.01165 0.46086 0.0
H77 H 0.36464 0.9373 0.44466 0.0
H78 H 0.3092 0.91089 0.53762 0.0
H79 H 0.36844 0.98497 0.55388 0.0
Pr80 Pr 0.65445 0.56312 0.81985 0.0
Pr81 Pr 0.68142 0.66801 0.83399 0.0
C82 C 0.63959 0.47472 0.7972 0.0
C83 C 0.59532 0.43475 0.80009 0.0
C84 C 0.54541 0.44168 0.79079 0.0
C85 C 0.50293 0.40508 0.79708 0.0
C86 C 0.50987 0.36144 0.81283 0.0
C87 C 0.55955 0.3551 0.8228 0.0
C88 C 0.6021 0.39156 0.81632 0.0
C89 C 0.65303 0.57944 0.8825 0.0
C90 C 0.78021 0.61836 0.82516 0.0
C91 C 0.70393 0.74409 0.86978 0.0
C92 C 0.66764 0.77394 0.87695 0.0
C93 C 0.67733 0.82272 0.86596 0.0
C94 C 0.63619 0.84596 0.85944 0.0
C95 C 0.58561 0.82077 0.86477 0.0
C96 C 0.57635 0.77391 0.87865 0.0
C97 C 0.61736 0.75047 0.88497 0.0
C98 C 0.66447 0.66723 0.76947 0.0
C99 C 0.55526 0.61783 0.82838 0.0
O100 O 0.66548 0.48535 0.82334 0.0
O101 O 0.63219 0.51318 0.78013 0.0
O102 O 0.68748 0.59926 0.86404 0.0
O103 O 0.6165 0.54874 0.86856 0.0
O104 O 0.76445 0.65915 0.82869 0.0
O105 O 0.74688 0.57691 0.82053 0.0
O106 O 0.69312 0.6991 0.88113 0.0
O107 O 0.71568 0.7475 0.84054 0.0
O108 O 0.66086 0.62983 0.78754 0.0
O109 O 0.67469 0.70719 0.7847 0.0
O110 O 0.56842 0.57845 0.81768 0.0
O111 O 0.59126 0.65444 0.8384 0.0
H112 H 0.53899 0.47538 0.779 0.0
H113 H 0.4647 0.4105 0.7893 0.0
H114 H 0.56566 0.32136 0.83466 0.0
H115 H 0.6403 0.38636 0.82432 0.0
H116 H 0.71563 0.84075 0.85913 0.0
H117 H 0.64351 0.88234 0.84834 0.0
H118 H 0.53731 0.7547 0.88302 0.0
H119 H 0.60871 0.71248 0.89327 0.0
H120 H 0.69491 0.1678 0.27298 0.0
H121 H 0.56952 1.04255 0.26896 0.0
H122 H 0.63339 0.11155 0.18515 0.0
H123 H 0.52143 0.08176 0.17908 0.0
C124 C 0.51563 1.05549 0.1995 0.0
O125 O 0.56241 1.04355 0.20877 0.0
H126 H 0.49983 0.07304 0.2184 0.0
C127 C 0.66783 0.14127 0.25987 0.0
C128 C 0.66907 0.1435 0.22735 0.0
C129 C 0.6322 0.10514 0.2755 0.0
C130 C 0.59731 0.07129 0.25785 0.0
C131 C 0.5978 0.07423 0.22547 0.0
C132 C 0.63377 0.10979 0.21027 0.0
H133 H 0.62155 0.71126 0.58349 0.0
H134 H 0.62341 0.55792 0.58104 0.0
H135 H 0.58643 0.63764 0.49712 0.0
H136 H 0.53282 0.50018 0.5172 0.0
C137 C 0.57042 0.49967 0.52982 0.0
O138 O 0.60379 0.54588 0.52282 0.0
H139 H 0.56198 0.49759 0.55482 0.0
C140 C 0.6162 0.67862 0.57025 0.0
C141 C 0.60359 0.68259 0.53833 0.0
C142 C 0.62214 0.63432 0.58589 0.0
C143 C 0.61759 0.59162 0.56908 0.0
C144 C 0.60408 0.59035 0.53729 0.0
C145 C 0.59613 0.63678 0.52174 0.0
H146 H 0.05196 0.59906 0.90202 0.0
H147 H 0.21176 0.59058 0.89516 0.0
H148 H 0.11542 0.59543 0.81238 0.0
H149 H 0.2494 0.65812 0.84099 0.0
C150 C 0.24889 0.62614 0.82648 0.0
O151 O 0.20965 0.58759 0.8354 0.0
H152 H 0.24062 0.63779 0.80209 0.0
C153 C 0.08477 0.59904 0.88795 0.0
C154 C 0.0777 0.59923 0.85542 0.0
C155 C 0.1326 0.59563 0.90266 0.0
C156 C 0.17443 0.5932 0.88432 0.0
C157 C 0.16877 0.59322 0.85195 0.0
C158 C 0.12013 0.59603 0.8374 0.0
H159 H 0.03933 0.50545 0.38555 0.0
H160 H 0.14768 0.6401 0.40339 0.0
H161 H 0.06522 0.55991 0.47763 0.0
H162 H 0.08958 0.66922 0.48776 0.0
C163 C 0.11521 0.67722 0.46776 0.0
O164 O 0.13388 0.63601 0.46198 0.0
H165 H 0.09183 0.68847 0.44741 0.0
C166 C 0.05889 0.5329 0.40113 0.0
C167 C 0.04641 0.52836 0.43274 0.0
C168 C 0.09636 0.5726 0.38978 0.0
C169 C 0.12047 0.60776 0.4109 0.0
C170 C 0.10923 0.6026 0.4422 0.0
C171 C 0.07268 0.56321 0.45311 0.0
H172 H 0.48282 0.97982 0.74308 0.0
H173 H 0.42108 0.11046 0.72138 0.0
H174 H 0.4133 1.04602 0.81306 0.0
H175 H 0.32787 0.09246 0.80111 0.0
C176 C 0.34243 0.11635 0.78072 0.0
O177 O 0.39388 0.1167 0.77757 0.0
H178 H 0.31927 0.10316 0.75949 0.0
C179 C 0.46238 1.00767 0.74949 0.0
C180 C 0.44841 1.00883 0.7802 0.0
C181 C 0.45263 1.04418 0.72773 0.0
C182 C 0.42704 0.08026 0.73707 0.0
C183 C 0.41217 0.07954 0.76758 0.0
C184 C 0.42289 1.04431 0.78908 0.0
H185 H 0.71774 0.59203 0.06779 0.0
H186 H 0.55802 0.60215 0.07294 0.0
H187 H 0.65691 0.6132 0.1556 0.0
H188 H 0.53212 0.55961 0.1645 0.0
C189 C 0.52164 0.57346 0.14093 0.0
O190 O 0.56046 0.61263 0.13216 0.0
H191 H 0.51898 0.54297 0.12491 0.0
C192 C 0.6857 0.59653 0.08132 0.0
C193 C 0.69403 0.60304 0.11335 0.0
C194 C 0.63709 0.59614 0.06637 0.0
C195 C 0.59566 0.6017 0.08405 0.0
C196 C 0.60204 0.60709 0.11616 0.0
C197 C 0.65159 0.60828 0.13088 0.0
H198 H 0.3026 0.64222 0.12567 0.0
H199 H 0.2578 0.50521 0.17804 0.0
H200 H 0.34647 0.49342 0.1804 0.0
H201 H 0.43696 0.51981 0.1671 0.0
H202 H 0.48444 0.65433 0.11334 0.0
H203 H 0.39566 0.66919 0.11216 0.0
C204 C 0.31232 0.60999 0.13779 0.0
C205 C 0.27279 0.57473 0.15172 0.0
C206 C 0.36431 0.60289 0.1389 0.0
C207 C 0.28664 0.53305 0.16701 0.0
C208 C 0.33769 0.52616 0.16844 0.0
C209 C 0.42804 0.55275 0.15543 0.0
C210 C 0.46789 0.58636 0.14105 0.0
C211 C 0.3768 0.56057 0.15443 0.0
C212 C 0.45514 0.62821 0.12527 0.0
C213 C 0.4041 0.63659 0.12446 0.0
H214 H 0.86676 0.37541 0.49537 0.0
H215 H 0.92134 0.27978 0.43497 0.0
H216 H 0.98687 0.3476 0.41626 0.0
H217 H 1.02913 0.43341 0.41694 0.0
H218 H 0.97486 0.53037 0.47644 0.0
H219 H 0.9105 0.46216 0.4966 0.0
C220 C 0.89324 0.36936 0.47829 0.0
C221 C 0.88853 0.32267 0.46626 0.0
C222 C 0.93134 0.40858 0.4677 0.0
C223 C 0.92312 0.31556 0.44406 0.0
C224 C 0.96098 0.35423 0.43351 0.0
C225 C 1.0027 0.43993 0.4339 0.0
C226 C 1.00666 0.48708 0.44481 0.0
C227 C 0.96521 0.40089 0.44498 0.0
C228 C 0.97303 0.49437 0.46766 0.0
C229 C 0.93592 0.45545 0.4791 0.0
H230 H 0.57192 0.90747 0.8793 0.0
H231 H 0.50711 0.78363 0.82459 0.0
H232 H 0.44868 0.83051 0.79673 0.0
H233 H 0.42999 0.91123 0.78163 0.0
H234 H 0.50743 1.03756 0.83091 0.0
H235 H 0.54832 0.98565 0.86727 0.0
C236 C 0.54387 0.89073 0.86182 0.0
C237 C 0.54285 0.84299 0.85378 0.0
C238 C 0.51401 0.91867 0.84463 0.0
C239 C 0.50715 0.8205 0.83124 0.0
C240 C 0.47461 0.8474 0.81508 0.0
C241 C 0.45513 0.92676 0.80075 0.0
C242 C 0.46641 0.97722 0.80397 0.0
C243 C 0.47977 0.89717 0.8206 0.0
C244 C 0.49849 0.99822 0.82856 0.0
C245 C 0.52179 0.96883 0.84915 0.0
H246 H 0.93314 0.65663 0.15508 0.0
H247 H 0.92826 0.51713 0.11497 0.0
H248 H 0.8353 0.50646 0.10617 0.0
H249 H 0.75505 0.53679 0.10779 0.0
H250 H 0.75542 0.67484 0.14795 0.0
H251 H 0.8491 0.68514 0.15973 0.0
C252 C 0.91161 0.62403 0.14439 0.0
C253 C 0.93819 0.58779 0.13565 0.0
C254 C 0.8569 0.61738 0.1398 0.0
C255 C 0.90929 0.54555 0.12212 0.0
C256 C 0.85583 0.53928 0.11705 0.0
C257 C 0.77544 0.56887 0.11955 0.0
C258 C 0.748 0.60498 0.12688 0.0
C259 C 0.82921 0.57483 0.12569 0.0
C260 C 0.77523 0.64617 0.14228 0.0
C261 C 0.82906 0.65234 0.14865 0.0
H262 H 0.30458 0.83005 0.52081 0.0
H263 H 0.27374 0.90891 0.43543 0.0
H264 H 0.20668 0.83994 0.42005 0.0
H265 H 0.15225 0.75966 0.43257 0.0
H266 H 0.17939 0.68291 0.51911 0.0
H267 H 0.25224 0.74876 0.53253 0.0
C268 C 0.28303 0.83228 0.49891 0.0
C269 C 0.29398 0.8748 0.47946 0.0
C270 C 0.2435 0.79307 0.49058 0.0
C271 C 0.26654 0.8765 0.45077 0.0
C272 C 0.22781 0.83724 0.44204 0.0
C273 C 0.17408 0.75765 0.4544 0.0
C274 C 0.16006 0.71748 0.4753 0.0
C275 C 0.21526 0.7958 0.46204 0.0
C276 C 0.1892 0.71429 0.50312 0.0
C277 C 0.23076 0.75172 0.51069 0.0
H278 H 0.44384 0.32825 0.76668 0.0
H279 H 0.48167 0.30124 0.86345 0.0
H280 H 0.41735 0.22467 0.86395 0.0
H281 H 0.3607 0.16118 0.83451 0.0
H282 H 0.33137 0.18589 0.73658 0.0
H283 H 0.38017 0.26943 0.73902 0.0
C284 C 0.4365 0.30649 0.78815 0.0
C285 C 0.46646 0.32006 0.81506 0.0
C286 C 0.40044 0.26279 0.78805 0.0
C287 C 0.45849 0.29101 0.84254 0.0
C288 C 0.42178 0.24758 0.84282 0.0
C289 C 0.36199 0.18618 0.8143 0.0
C290 C 0.34155 0.16827 0.78558 0.0
C291 C 0.39335 0.2327 0.81549 0.0
C292 C 0.34521 0.1998 0.75905 0.0
C293 C 0.37441 0.24698 0.7603 0.0
H294 H 0.53693 0.89352 0.49899 0.0
H295 H 0.68402 0.94697 0.54562 0.0
H296 H 0.69789 0.86303 0.55378 0.0
H297 H 0.66956 0.77298 0.54908 0.0
H298 H 0.52511 0.71636 0.50083 0.0
H299 H 0.51072 0.8008 0.49115 0.0
C300 C 0.57228 0.88711 0.51086 0.0
C301 C 0.60939 0.92881 0.52167 0.0
C302 C 0.58118 0.83707 0.51485 0.0
C303 C 0.65463 0.91757 0.5367 0.0
C304 C 0.66268 0.86878 0.54145 0.0
C305 C 0.6349 0.77844 0.536 0.0
C306 C 0.59882 0.73585 0.52575 0.0
C307 C 0.62655 0.82798 0.53068 0.0
C308 C 0.55459 0.74639 0.50887 0.0
C309 C 0.54595 0.79551 0.50364 0.0
H310 H 0.84417 0.56097 0.80269 0.0
H311 H 0.84306 0.68029 0.86234 0.0
H312 H 0.93467 0.68791 0.87407 0.0
H313 H 1.01524 0.66021 0.86927 0.0
H314 H 1.02068 0.54079 0.81112 0.0
H315 H 0.9286 0.53504 0.79613 0.0
C316 C 0.86419 0.58857 0.81815 0.0
C317 C 0.83649 0.6202 0.83128 0.0
C318 C 0.91807 0.59334 0.82485 0.0
C319 C 0.86315 0.65584 0.85137 0.0
C320 C 0.91581 0.66033 0.85825 0.0
C321 C 0.99645 0.63307 0.85312 0.0
C322 C 1.02484 0.60075 0.84159 0.0
C323 C 0.94364 0.62933 0.84523 0.0
C324 C 0.99993 0.56637 0.82026 0.0
C325 C 0.94706 0.5627 0.81197 0.0
H326 H 0.36392 0.85111 0.18526 0.0
H327 H 0.29868 0.93554 0.11248 0.0
H328 H 0.36575 1.00676 0.12299 0.0
H329 H 0.44131 1.04608 0.15371 0.0
H330 H 0.50308 0.96458 0.22912 0.0
H331 H 0.4385 0.89137 0.21712 0.0
C332 C 0.36425 0.88517 0.17184 0.0
C333 C 0.32679 0.88782 0.14786 0.0
C334 C 0.40223 0.9265 0.1785 0.0
C335 C 0.32788 0.93214 0.13055 0.0
C336 C 0.36592 0.97307 0.13671 0.0
C337 C 0.44081 1.01209 0.16725 0.0
C338 C 0.4775 1.01007 0.19158 0.0
C339 C 0.40314 0.9707 0.16063 0.0
C340 C 0.47581 0.96641 0.2097 0.0
C341 C 0.43885 0.92471 0.20296 0.0
H342 H 0.65845 0.29427 0.51883 0.0
H343 H 0.49419 0.23623 0.51786 0.0
H344 H 0.47763 0.31871 0.51997 0.0
H345 H 0.50696 0.40868 0.52296 0.0
H346 H 0.66959 0.47092 0.52574 0.0
H347 H 0.6886 0.38805 0.52191 0.0
C348 C 0.61884 0.29931 0.51896 0.0
C349 C 0.57768 0.25642 0.51797 0.0
C350 C 0.60888 0.34893 0.52027 0.0
C351 C 0.5272 0.26627 0.51841 0.0
C352 C 0.51746 0.31435 0.51963 0.0
C353 C 0.54689 0.40483 0.5221 0.0
C354 C 0.58632 0.44843 0.52349 0.0
C355 C 0.55759 0.35619 0.52052 0.0
C356 C 0.6376 0.44011 0.52368 0.0
C357 C 0.64854 0.39182 0.52175 0.0
H358 H 0.46224 0.5485 0.82056 0.0
H359 H 0.52162 0.70108 0.83733 0.0
H360 H 0.43459 0.71535 0.8404 0.0
H361 H 0.3412 0.68685 0.83706 0.0
H362 H 0.27754 0.53622 0.81859 0.0
H363 H 0.36531 0.51911 0.81746 0.0
C364 C 0.45615 0.58484 0.82486 0.0
C365 C 0.49955 0.62355 0.82908 0.0
C366 C 0.40474 0.59332 0.82639 0.0
C367 C 0.48994 0.67027 0.83451 0.0
C368 C 0.4398 0.67871 0.83613 0.0
C369 C 0.34643 0.65002 0.83325 0.0
C370 C 0.30253 0.61272 0.82873 0.0
C371 C 0.39694 0.64075 0.83212 0.0
C372 C 0.31038 0.56553 0.8229 0.0
C373 C 0.36079 0.55583 0.82203 0.0
H374 H 0.86067 0.26726 0.1613 0.0
H375 H 0.83133 0.37622 0.22178 0.0
H376 H 0.75362 0.32044 0.23918 0.0
H377 H 0.69739 0.23947 0.23932 0.0
H378 H 0.72826 0.12995 0.1799 0.0
H379 H 0.80074 0.18854 0.15852 0.0
C380 C 0.83664 0.27934 0.17772 0.0
C381 C 0.85174 0.32572 0.1903 0.0
C382 C 0.79223 0.24724 0.18756 0.0
C383 C 0.82082 0.3404 0.21207 0.0
C384 C 0.77632 0.3087 0.22189 0.0
C385 C 0.72005 0.2285 0.22169 0.0
C386 C 0.70828 0.18042 0.21157 0.0
C387 C 0.76228 0.26179 0.21019 0.0
C388 C 0.73673 0.16689 0.18805 0.0
C389 C 0.77837 0.20017 0.17602 0.0
H390 H 0.16412 0.53474 0.04382 0.0
H391 H 0.07091 0.64257 0.05555 0.0
H392 H 0.06994 0.66174 -0.0006 0.0
H393 H 0.09239 0.64418 0.94651 0.0
H394 H 0.18283 0.53311 0.93645 0.0
H395 H 0.18838 0.51931 -0.00765 0.0
C396 C 0.1438 0.56268 0.03418 0.0
C397 C 0.11727 0.58685 0.05377 0.0
C398 C 0.14287 0.57289 0.00207 0.0
C399 C 0.09144 0.62323 0.04091 0.0
C400 C 0.09079 0.63408 0.0088 0.0
C401 C 0.11334 0.617 0.95659 0.0
C402 C 0.13756 0.59001 0.93712 0.0
C403 C 0.11574 0.60851 0.98906 0.0
C404 C 0.16479 0.5552 0.95069 0.0
C405 C 0.16763 0.54691 0.98273 0.0
H406 H 0.6634 0.10746 0.42211 0.0
H407 H 0.49893 1.05203 0.41483 0.0
H408 H 0.50042 1.05928 0.35843 0.0
H409 H 0.54816 0.07996 0.3113 0.0
H410 H 0.71435 0.1263 0.31774 0.0
H411 H 0.7123 0.1251 0.37403 0.0
C412 C 0.62807 0.0972 0.40802 0.0
C413 C 0.58122 0.07918 0.42239 0.0
C414 C 0.62941 0.09996 0.37545 0.0
C415 C 0.53555 1.06565 0.40413 0.0
C416 C 0.53631 0.06984 0.37191 0.0
C417 C 0.58417 0.08901 0.32488 0.0
C418 C 0.63124 0.1033 0.31 0.0
C419 C 0.58307 0.08643 0.35732 0.0
C420 C 0.67724 0.11607 0.3283 0.0
C421 C 0.67626 0.11499 0.36063 0.0
H422 H 0.69284 0.60846 0.72789 0.0
H423 H 0.60578 0.72227 0.7358 0.0
H424 H 0.58173 0.71951 0.68036 0.0
H425 H 0.58629 0.68553 0.62974 0.0
H426 H 0.68394 0.58023 0.62019 0.0
H427 H 0.70192 0.57806 0.67602 0.0
C428 C 0.66869 0.63264 0.71735 0.0
C429 C 0.65107 0.66555 0.7358 0.0
C430 C 0.65672 0.6322 0.68517 0.0
C431 C 0.6201 0.69695 0.72196 0.0
C432 C 0.60625 0.69526 0.6903 0.0
C433 C 0.61236 0.6627 0.63957 0.0
C434 C 0.6335 0.63304 0.62029 0.0
C435 C 0.62472 0.66335 0.67162 0.0
C436 C 0.66599 0.60278 0.63413 0.0
C437 C 0.67684 0.60185 0.66618 0.0
H438 H 0.51575 0.0889 0.58984 0.0
H439 H 0.65294 1.03964 0.6258 0.0
H440 H 0.6155 1.02278 0.67697 0.0
H441 H 0.54534 1.02635 0.71146 0.0
H442 H 0.40587 0.07014 0.67359 0.0
H443 H 0.4429 0.08489 0.62272 0.0
C444 C 0.53722 0.07393 0.60878 0.0
C445 C 0.58688 1.06556 0.60432 0.0
C446 C 0.51518 1.06359 0.6376 0.0
C447 C 0.61451 1.04628 0.62891 0.0
C448 C 0.59317 1.03673 0.65805 0.0
C449 C 0.52248 1.03798 0.69196 0.0
C450 C 0.47301 1.04755 0.69635 0.0
C451 C 0.54365 1.04563 0.66266 0.0
C452 C 0.44439 1.06342 0.67092 0.0
C453 C 0.4654 0.07167 0.64182 0.0
H454 H 0.58116 0.54372 0.92586 0.0
H455 H 0.73236 0.63456 0.91513 0.0
H456 H 0.73857 0.65095 0.97009 0.0
H457 H 0.70307 0.63741 0.02161 0.0
H458 H 0.55529 0.54131 0.03415 0.0
H459 H 0.54567 0.52928 0.97835 0.0
C460 C 0.61545 0.56703 0.9356 0.0
C461 C 0.65598 0.58836 0.91621 0.0
C462 C 0.61951 0.57524 0.96766 0.0
C463 C 0.70019 0.61833 0.92929 0.0
C464 C 0.70397 0.62752 0.96083 0.0
C465 C 0.6689 0.61345 0.01225 0.0
C466 C 0.63013 0.59014 0.03221 0.0
C467 C 0.66416 0.60581 0.98029 0.0
C468 C 0.58558 0.56015 0.01939 0.0
C469 C 0.58021 0.55296 0.98746 0.0
H470 H 0.18118 0.63699 0.2561 0.0
H471 H 1.03633 0.54627 0.22772 0.0
H472 H 1.01605 0.52531 0.28214 0.0
H473 H 1.03681 0.53879 0.33759 0.0
H474 H 0.18912 0.61799 0.36528 0.0
H475 H 0.20849 0.63795 0.31151 0.0
C476 C 0.14549 0.61218 0.26193 0.0
C477 C 0.1099 0.59374 0.23815 0.0
C478 C 0.13496 0.59896 0.29317 0.0
C479 C 0.06418 0.56098 0.24579 0.0
C480 C 0.05252 0.5492 0.27687 0.0
C481 C 0.07477 0.55946 0.33222 0.0
C482 C 0.11026 0.57849 0.35625 0.0
C483 C 0.08726 0.56874 0.30084 0.0
C484 C 0.15933 0.605 0.3479 0.0
C485 C 0.17105 0.61597 0.31689 0.0
loop_
_geom_bond_atom_site_label_1
_geom_bond_atom_site_label_2
_geom_bond_distance
_geom_bond_site_symmetry_2
_ccdc_geom_bond_type
Pr0 C2 2.880 . S
Pr0 O20 2.562 . S
Pr0 O21 2.490 . S
Pr0 O22 2.695 1_655 S
Pr0 O23 2.512 . S
Pr0 O25 2.437 . S
Pr0 O28 2.436 . S
Pr0 O30 2.438 1_655 S
Pr1 C11 2.880 . S
Pr1 O22 2.436 . S
Pr1 O24 2.438 1_455 S
Pr1 O26 2.562 . S
Pr1 O27 2.490 . S
Pr1 O28 2.695 1_455 S
Pr1 O29 2.512 . S
Pr1 O31 2.437 . S
C2 Pr0 2.880 . S
C2 C3 1.491 . S
C2 O20 1.254 . S
C2 O21 1.225 . S
C3 C2 1.491 . S
C3 C4 1.392 . S
C3 C8 1.356 . S
C4 C3 1.392 . S
C4 C5 1.368 . S
C4 H32 0.929 . S
C5 C4 1.368 . S
C5 C6 1.386 . S
C5 H33 0.929 . S
C6 C5 1.386 . S
C6 C7 1.373 . S
C7 C6 1.373 . S
C7 C8 1.409 . S
C7 H34 0.931 . S
C8 C3 1.356 . S
C8 C7 1.409 . S
C8 H35 0.930 . S
C9 O22 1.270 . S
C9 O23 1.248 1_455 S
C10 O24 1.267 . S
C10 O25 1.278 . S
C11 Pr1 2.880 . S
C11 C12 1.491 . S
C11 O26 1.254 . S
C11 O27 1.225 . S
C12 C11 1.491 . S
C12 C13 1.392 . S
C12 C17 1.356 . S
C13 C12 1.392 . S
C13 C14 1.368 . S
C13 H36 0.929 . S
C14 C13 1.368 . S
C14 C15 1.386 . S
C14 H37 0.929 . S
C15 C14 1.386 . S
C15 C16 1.373 . S
C16 C15 1.373 . S
C16 C17 1.409 . S
C16 H38 0.931 . S
C17 C12 1.356 . S
C17 C16 1.409 . S
C17 H39 0.930 . S
C18 O28 1.270 1_455 S
C18 O29 1.248 . S
C19 O30 1.267 . S
C19 O31 1.278 . S
O20 Pr0 2.562 . S
O20 C2 1.254 . S
O21 Pr0 2.490 . S
O21 C2 1.225 . S
O22 Pr0 2.695 1_455 S
O22 Pr1 2.436 . S
O22 C9 1.270 . S
O23 Pr0 2.512 . S
O23 C9 1.248 1_655 S
O24 Pr1 2.438 1_655 S
O24 C10 1.267 . S
O25 Pr0 2.437 . S
O25 C10 1.278 . S
O26 Pr1 2.562 . S
O26 C11 1.254 . S
O27 Pr1 2.490 . S
O27 C11 1.225 . S
O28 Pr0 2.436 . S
O28 Pr1 2.695 1_655 S
O28 C18 1.270 1_655 S
O29 Pr1 2.512 . S
O29 C18 1.248 . S
O30 Pr0 2.438 1_455 S
O30 C19 1.267 . S
O31 Pr1 2.437 . S
O31 C19 1.278 . S
H32 C4 0.929 . S
H33 C5 0.929 . S
H34 C7 0.931 . S
H35 C8 0.930 . S
H36 C13 0.929 . S
H37 C14 0.929 . S
H38 C16 0.931 . S
H39 C17 0.930 . S
Pr40 C42 2.880 . S
Pr40 O60 2.562 . S
Pr40 O61 2.490 . S
Pr40 O62 2.695 . S
Pr40 O63 2.512 . S
Pr40 O65 2.437 . S
Pr40 O68 2.436 . S
Pr40 O70 2.438 1_545 S
Pr41 C51 2.880 . S
Pr41 O62 2.436 1_565 S
Pr41 O64 2.438 1_565 S
Pr41 O66 2.562 . S
Pr41 O67 2.490 . S
Pr41 O68 2.695 1_565 S
Pr41 O69 2.512 1_565 S
Pr41 O71 2.437 . S
C42 Pr40 2.880 . S
C42 C43 1.491 . S
C42 O60 1.254 . S
C42 O61 1.225 . S
C43 C42 1.491 . S
C43 C44 1.392 . S
C43 C48 1.356 . S
C44 C43 1.392 . S
C44 C45 1.368 . S
C44 H72 0.929 . S
C45 C44 1.368 . S
C45 C46 1.386 . S
C45 H73 0.929 . S
C46 C45 1.386 . S
C46 C47 1.373 . S
C47 C46 1.373 . S
C47 C48 1.409 . S
C47 H74 0.931 . S
C48 C43 1.356 . S
C48 C47 1.409 . S
C48 H75 0.930 . S
C49 O62 1.270 . S
C49 O63 1.248 . S
C50 O64 1.267 . S
C50 O65 1.278 . S
C51 Pr41 2.880 . S
C51 C52 1.491 . S
C51 O66 1.254 . S
C51 O67 1.225 . S
C52 C51 1.491 . S
C52 C53 1.392 . S
C52 C57 1.356 . S
C53 C52 1.392 . S
C53 C54 1.368 . S
C53 H76 0.929 . S
C54 C53 1.368 . S
C54 C55 1.386 . S
C54 H77 0.929 . S
C55 C54 1.386 . S
C55 C56 1.373 . S
C56 C55 1.373 . S
C56 C57 1.409 . S
C56 H78 0.931 . S
C57 C52 1.356 . S
C57 C56 1.409 . S
C57 H79 0.930 . S
C58 O68 1.270 . S
C58 O69 1.248 . S
C59 O70 1.267 . S
C59 O71 1.278 . S
O60 Pr40 2.562 . S
O60 C42 1.254 . S
O61 Pr40 2.490 . S
O61 C42 1.225 . S
O62 Pr40 2.695 . S
O62 Pr41 2.436 1_545 S
O62 C49 1.270 . S
O63 Pr40 2.512 . S
O63 C49 1.248 . S
O64 Pr41 2.438 1_545 S
O64 C50 1.267 . S
O65 Pr40 2.437 . S
O65 C50 1.278 . S
O66 Pr41 2.562 . S
O66 C51 1.254 . S
O67 Pr41 2.490 . S
O67 C51 1.225 . S
O68 Pr40 2.436 . S
O68 Pr41 2.695 1_545 S
O68 C58 1.270 . S
O69 Pr41 2.512 1_545 S
O69 C58 1.248 . S
O70 Pr40 2.438 1_565 S
O70 C59 1.267 . S
O71 Pr41 2.437 . S
O71 C59 1.278 . S
H72 C44 0.929 . S
H73 C45 0.929 . S
H74 C47 0.931 . S
H75 C48 0.930 . S
H76 C53 0.929 . S
H77 C54 0.929 . S
H78 C56 0.931 . S
H79 C57 0.930 . S
Pr80 C82 2.880 . S
Pr80 O100 2.562 . S
Pr80 O101 2.490 . S
Pr80 O102 2.695 . S
Pr80 O103 2.512 . S
Pr80 O105 2.437 . S
Pr80 O108 2.436 . S
Pr80 O110 2.438 . S
Pr81 C91 2.880 . S
Pr81 O102 2.436 . S
Pr81 O104 2.438 . S
Pr81 O106 2.562 . S
Pr81 O107 2.490 . S
Pr81 O108 2.695 . S
Pr81 O109 2.512 . S
Pr81 O111 2.437 . S
C82 Pr80 2.880 . S
C82 C83 1.491 . S
C82 O100 1.254 . S
C82 O101 1.225 . S
C83 C82 1.491 . S
C83 C84 1.392 . S
C83 C88 1.356 . S
C84 C83 1.392 . S
C84 C85 1.368 . S
C84 H112 0.929 . S
C85 C84 1.368 . S
C85 C86 1.386 . S
C85 H113 0.929 . S
C86 C85 1.386 . S
C86 C87 1.373 . S
C87 C86 1.373 . S
C87 C88 1.409 . S
C87 H114 0.931 . S
C88 C83 1.356 . S
C88 C87 1.409 . S
C88 H115 0.930 . S
C89 O102 1.270 . S
C89 O103 1.248 . S
C90 O104 1.267 . S
C90 O105 1.278 . S
C91 Pr81 2.880 . S
C91 C92 1.491 . S
C91 O106 1.254 . S
C91 O107 1.225 . S
C92 C91 1.491 . S
C92 C93 1.392 . S
C92 C97 1.356 . S
C93 C92 1.392 . S
C93 C94 1.368 . S
C93 H116 0.929 . S
C94 C93 1.368 . S
C94 C95 1.386 . S
C94 H117 0.929 . S
C95 C94 1.386 . S
C95 C96 1.373 . S
C96 C95 1.373 . S
C96 C97 1.409 . S
C96 H118 0.931 . S
C97 C92 1.356 . S
C97 C96 1.409 . S
C97 H119 0.930 . S
C98 O108 1.270 . S
C98 O109 1.248 . S
C99 O110 1.267 . S
C99 O111 1.278 . S
O100 Pr80 2.562 . S
O100 C82 1.254 . S
O101 Pr80 2.490 . S
O101 C82 1.225 . S
O102 Pr80 2.695 . S
O102 Pr81 2.436 . S
O102 C89 1.270 . S
O103 Pr80 2.512 . S
O103 C89 1.248 . S
O104 Pr81 2.438 . S
O104 C90 1.267 . S
O105 Pr80 2.437 . S
O105 C90 1.278 . S
O106 Pr81 2.562 . S
O106 C91 1.254 . S
O107 Pr81 2.490 . S
O107 C91 1.225 . S
O108 Pr80 2.436 . S
O108 Pr81 2.695 . S
O108 C98 1.270 . S
O109 Pr81 2.512 . S
O109 C98 1.248 . S
O110 Pr80 2.438 . S
O110 C99 1.267 . S
O111 Pr81 2.437 . S
O111 C99 1.278 . S
H112 C84 0.929 . S
H113 C85 0.929 . S
H114 C87 0.931 . S
H115 C88 0.930 . S
H116 C93 0.929 . S
H117 C94 0.929 . S
H118 C96 0.931 . S
H119 C97 0.930 . S
H120 C127 0.929 . S
H121 C130 0.930 1_565 S
H122 C132 0.929 . S
H123 C124 0.969 . S
C124 H123 0.969 . S
C124 O125 1.550 . S
C124 H126 0.973 . S
O125 C124 1.550 . S
O125 C131 1.412 1_565 S
H126 C124 0.973 . S
C127 H120 0.929 . S
C127 C128 1.400 . S
C127 C129 1.364 . S
C128 C127 1.400 . S
C128 C132 1.377 . S
C129 C127 1.364 . S
C129 C130 1.374 . S
C130 H121 0.930 1_545 S
C130 C129 1.374 . S
C130 C131 1.383 . S
C131 O125 1.412 1_545 S
C131 C130 1.383 . S
C131 C132 1.394 . S
C132 H122 0.929 . S
C132 C128 1.377 . S
C132 C131 1.394 . S
H133 C140 0.929 . S
H134 C143 0.930 . S
H135 C145 0.929 . S
H136 C137 0.969 . S
C137 H136 0.969 . S
C137 O138 1.550 . S
C137 H139 0.973 . S
O138 C137 1.550 . S
O138 C144 1.412 . S
H139 C137 0.973 . S
C140 H133 0.929 . S
C140 C141 1.400 . S
C140 C142 1.364 . S
C141 C140 1.400 . S
C141 C145 1.377 . S
C142 C140 1.364 . S
C142 C143 1.374 . S
C143 H134 0.930 . S
C143 C142 1.374 . S
C143 C144 1.383 . S
C144 O138 1.412 . S
C144 C143 1.383 . S
C144 C145 1.394 . S
C145 H135 0.929 . S
C145 C141 1.377 . S
C145 C144 1.394 . S
H146 C153 0.923 1_655 S
H147 C156 0.930 . S
H148 C158 0.929 . S
H149 C150 0.969 . S
C150 H149 0.969 . S
C150 O151 1.550 . S
C150 H152 0.973 . S
O151 C150 1.550 . S
O151 C157 1.412 . S
H152 C150 0.973 . S
C153 H146 0.923 1_455 S
C153 C154 1.399 1_455 S
C153 C155 1.369 . S
C154 C153 1.399 1_655 S
C154 C158 1.377 1_655 S
C155 C153 1.369 . S
C155 C156 1.374 . S
C156 H147 0.930 . S
C156 C155 1.374 . S
C156 C157 1.383 . S
C157 O151 1.412 . S
C157 C156 1.383 . S
C157 C158 1.394 . S
C158 H148 0.929 . S
C158 C154 1.377 1_455 S
C158 C157 1.394 . S
H159 C166 0.937 . S
H160 C169 0.930 . S
H161 C171 0.929 . S
H162 C163 0.969 . S
C163 H162 0.969 . S
C163 O164 1.550 . S
C163 H165 0.973 . S
O164 C163 1.550 . S
O164 C170 1.412 . S
H165 C163 0.973 . S
C166 H159 0.937 . S
C166 C167 1.400 1_655 S
C166 C168 1.356 1_655 S
C167 C166 1.400 1_455 S
C167 C171 1.381 . S
C168 C166 1.356 1_455 S
C168 C169 1.374 . S
C169 H160 0.930 . S
C169 C168 1.374 . S
C169 C170 1.383 . S
C170 O164 1.412 . S
C170 C169 1.383 . S
C170 C171 1.394 . S
C171 H161 0.929 . S
C171 C167 1.381 . S
C171 C170 1.394 . S
H172 C179 0.929 . S
H173 C182 0.930 . S
H174 C184 0.929 . S
H175 C176 0.969 . S
C176 H175 0.969 . S
C176 O177 1.550 . S
C176 H178 0.973 . S
O177 C176 1.550 . S
O177 C183 1.412 . S
H178 C176 0.973 . S
C179 H172 0.929 . S
C179 C180 1.400 . S
C179 C181 1.364 1_565 S
C180 C179 1.400 . S
C180 C184 1.377 . S
C181 C179 1.364 1_545 S
C181 C182 1.374 . S
C182 H173 0.930 . S
C182 C181 1.374 . S
C182 C183 1.383 . S
C183 O177 1.412 . S
C183 C182 1.383 . S
C183 C184 1.394 1_545 S
C184 H174 0.929 . S
C184 C180 1.377 . S
C184 C183 1.394 1_565 S
H185 C192 0.929 . S
H186 C195 0.930 . S
H187 C197 0.929 . S
H188 C189 0.969 . S
C189 H188 0.969 . S
C189 O190 1.550 . S
C189 H191 0.973 . S
O190 C189 1.550 . S
O190 C196 1.412 . S
H191 C189 0.973 . S
C192 H185 0.929 . S
C192 C193 1.400 . S
C192 C194 1.364 . S
C193 C192 1.400 . S
C193 C197 1.377 . S
C194 C192 1.364 . S
C194 C195 1.374 . S
C195 H186 0.930 . S
C195 C194 1.374 . S
C195 C196 1.383 . S
C196 O190 1.412 . S
C196 C195 1.383 . S
C196 C197 1.394 . S
C197 H187 0.929 . S
C197 C193 1.377 . S
C197 C196 1.394 . S
H198 C204 0.930 . S
H199 C207 0.930 . S
H200 C208 0.930 . S
H201 C209 0.930 . S
H202 C212 0.930 . S
H203 C213 0.930 . S
C204 H198 0.930 . S
C204 C205 1.355 . S
C204 C206 1.415 . S
C205 C204 1.355 . S
C205 C207 1.419 . S
C206 C204 1.415 . S
C206 C211 1.425 . S
C206 C213 1.409 . S
C207 H199 0.930 . S
C207 C205 1.419 . S
C207 C208 1.362 . S
C208 H200 0.930 . S
C208 C207 1.362 . S
C208 C211 1.409 . S
C209 H201 0.930 . S
C209 C210 1.355 . S
C209 C211 1.415 . S
C210 C209 1.355 . S
C210 C212 1.419 . S
C211 C206 1.425 . S
C211 C208 1.409 . S
C211 C209 1.415 . S
C212 H202 0.930 . S
C212 C210 1.419 . S
C212 C213 1.362 . S
C213 H203 0.930 . S
C213 C206 1.409 . S
C213 C212 1.362 . S
H214 C220 0.930 . S
H215 C223 0.930 . S
H216 C224 0.930 . S
H217 C225 0.930 1_455 S
H218 C228 0.930 . S
H219 C229 0.930 . S
C220 H214 0.930 . S
C220 C221 1.355 . S
C220 C222 1.415 . S
C221 C220 1.355 . S
C221 C223 1.419 . S
C222 C220 1.415 . S
C222 C227 1.425 . S
C222 C229 1.409 . S
C223 H215 0.930 . S
C223 C221 1.419 . S
C223 C224 1.362 . S
C224 H216 0.930 . S
C224 C223 1.362 . S
C224 C227 1.409 . S
C225 H217 0.930 1_655 S
C225 C226 1.355 . S
C225 C227 1.415 . S
C226 C225 1.355 . S
C226 C228 1.419 . S
C227 C222 1.425 . S
C227 C224 1.409 . S
C227 C225 1.415 . S
C228 H218 0.930 . S
C228 C226 1.419 . S
C228 C229 1.362 . S
C229 H219 0.930 . S
C229 C222 1.409 . S
C229 C228 1.362 . S
H230 C236 0.930 . S
H231 C239 0.930 . S
H232 C240 0.930 . S
H233 C241 0.930 . S
H234 C244 0.930 . S
H235 C245 0.930 . S
C236 H230 0.930 . S
C236 C237 1.355 . S
C236 C238 1.415 . S
C237 C236 1.355 . S
C237 C239 1.419 . S
C238 C236 1.415 . S
C238 C243 1.425 . S
C238 C245 1.409 . S
C239 H231 0.930 . S
C239 C237 1.419 . S
C239 C240 1.362 . S
C240 H232 0.930 . S
C240 C239 1.362 . S
C240 C243 1.409 . S
C241 H233 0.930 . S
C241 C242 1.355 . S
C241 C243 1.415 . S
C242 C241 1.355 . S
C242 C244 1.419 . S
C243 C238 1.425 . S
C243 C240 1.409 . S
C243 C241 1.415 . S
C244 H234 0.930 . S
C244 C242 1.419 . S
C244 C245 1.362 . S
C245 H235 0.930 . S
C245 C238 1.409 . S
C245 C244 1.362 . S
H246 C252 0.930 . S
H247 C255 0.930 . S
H248 C256 0.930 . S
H249 C257 0.930 . S
H250 C260 0.930 . S
H251 C261 0.930 . S
C252 H246 0.930 . S
C252 C253 1.355 . S
C252 C254 1.415 . S
C253 C252 1.355 . S
C253 C255 1.419 . S
C254 C252 1.415 . S
C254 C259 1.425 . S
C254 C261 1.409 . S
C255 H247 0.930 . S
C255 C253 1.419 . S
C255 C256 1.362 . S
C256 H248 0.930 . S
C256 C255 1.362 . S
C256 C259 1.409 . S
C257 H249 0.930 . S
C257 C258 1.355 . S
C257 C259 1.415 . S
C258 C257 1.355 . S
C258 C260 1.419 . S
C259 C254 1.425 . S
C259 C256 1.409 . S
C259 C257 1.415 . S
C260 H250 0.930 . S
C260 C258 1.419 . S
C260 C261 1.362 . S
C261 H251 0.930 . S
C261 C254 1.409 . S
C261 C260 1.362 . S
H262 C268 0.930 . S
H263 C271 0.930 . S
H264 C272 0.930 . S
H265 C273 0.930 . S
H266 C276 0.930 . S
H267 C277 0.930 . S
C268 H262 0.930 . S
C268 C269 1.355 . S
C268 C270 1.415 . S
C269 C268 1.355 . S
C269 C271 1.419 . S
C270 C268 1.415 . S
C270 C275 1.425 . S
C270 C277 1.409 . S
C271 H263 0.930 . S
C271 C269 1.419 . S
C271 C272 1.362 . S
C272 H264 0.930 . S
C272 C271 1.362 . S
C272 C275 1.409 . S
C273 H265 0.930 . S
C273 C274 1.355 . S
C273 C275 1.415 . S
C274 C273 1.355 . S
C274 C276 1.419 . S
C275 C270 1.425 . S
C275 C272 1.409 . S
C275 C273 1.415 . S
C276 H266 0.930 . S
C276 C274 1.419 . S
C276 C277 1.362 . S
C277 H267 0.930 . S
C277 C270 1.409 . S
C277 C276 1.362 . S
H278 C284 0.930 . S
H279 C287 0.930 . S
H280 C288 0.930 . S
H281 C289 0.930 . S
H282 C292 0.930 . S
H283 C293 0.930 . S
C284 H278 0.930 . S
C284 C285 1.355 . S
C284 C286 1.415 . S
C285 C284 1.355 . S
C285 C287 1.419 . S
C286 C284 1.415 . S
C286 C291 1.425 . S
C286 C293 1.409 . S
C287 H279 0.930 . S
C287 C285 1.419 . S
C287 C288 1.362 . S
C288 H280 0.930 . S
C288 C287 1.362 . S
C288 C291 1.409 . S
C289 H281 0.930 . S
C289 C290 1.355 . S
C289 C291 1.415 . S
C290 C289 1.355 . S
C290 C292 1.419 . S
C291 C286 1.425 . S
C291 C288 1.409 . S
C291 C289 1.415 . S
C292 H282 0.930 . S
C292 C290 1.419 . S
C292 C293 1.362 . S
C293 H283 0.930 . S
C293 C286 1.409 . S
C293 C292 1.362 . S
H294 C300 0.930 . S
H295 C303 0.930 . S
H296 C304 0.930 . S
H297 C305 0.930 . S
H298 C308 0.930 . S
H299 C309 0.930 . S
C300 H294 0.930 . S
C300 C301 1.355 . S
C300 C302 1.415 . S
C301 C300 1.355 . S
C301 C303 1.419 . S
C302 C300 1.415 . S
C302 C307 1.425 . S
C302 C309 1.409 . S
C303 H295 0.930 . S
C303 C301 1.419 . S
C303 C304 1.362 . S
C304 H296 0.930 . S
C304 C303 1.362 . S
C304 C307 1.409 . S
C305 H297 0.930 . S
C305 C306 1.355 . S
C305 C307 1.415 . S
C306 C305 1.355 . S
C306 C308 1.419 . S
C307 C302 1.425 . S
C307 C304 1.409 . S
C307 C305 1.415 . S
C308 H298 0.930 . S
C308 C306 1.419 . S
C308 C309 1.362 . S
C309 H299 0.930 . S
C309 C302 1.409 . S
C309 C308 1.362 . S
H310 C316 0.930 . S
H311 C319 0.930 . S
H312 C320 0.930 . S
H313 C321 0.930 . S
H314 C324 0.930 . S
H315 C325 0.930 . S
C316 H310 0.930 . S
C316 C317 1.355 . S
C316 C318 1.415 . S
C317 C316 1.355 . S
C317 C319 1.419 . S
C318 C316 1.415 . S
C318 C323 1.425 . S
C318 C325 1.409 . S
C319 H311 0.930 . S
C319 C317 1.419 . S
C319 C320 1.362 . S
C320 H312 0.930 . S
C320 C319 1.362 . S
C320 C323 1.409 . S
C321 H313 0.930 . S
C321 C322 1.355 . S
C321 C323 1.415 . S
C322 C321 1.355 . S
C322 C324 1.419 . S
C323 C318 1.425 . S
C323 C320 1.409 . S
C323 C321 1.415 . S
C324 H314 0.930 . S
C324 C322 1.419 . S
C324 C325 1.362 . S
C325 H315 0.930 . S
C325 C318 1.409 . S
C325 C324 1.362 . S
H326 C332 0.930 . S
H327 C335 0.930 . S
H328 C336 0.930 . S
H329 C337 0.930 . S
H330 C340 0.930 . S
H331 C341 0.930 . S
C332 H326 0.930 . S
C332 C333 1.355 . S
C332 C334 1.415 . S
C333 C332 1.355 . S
C333 C335 1.419 . S
C334 C332 1.415 . S
C334 C339 1.425 . S
C334 C341 1.409 . S
C335 H327 0.930 . S
C335 C333 1.419 . S
C335 C336 1.362 . S
C336 H328 0.930 . S
C336 C335 1.362 . S
C336 C339 1.409 . S
C337 H329 0.930 . S
C337 C338 1.355 . S
C337 C339 1.415 . S
C338 C337 1.355 . S
C338 C340 1.419 . S
C339 C334 1.425 . S
C339 C336 1.409 . S
C339 C337 1.415 . S
C340 H330 0.930 . S
C340 C338 1.419 . S
C340 C341 1.362 . S
C341 H331 0.930 . S
C341 C334 1.409 . S
C341 C340 1.362 . S
H342 C348 0.930 . S
H343 C351 0.930 . S
H344 C352 0.930 . S
H345 C353 0.930 . S
H346 C356 0.930 . S
H347 C357 0.930 . S
C348 H342 0.930 . S
C348 C349 1.355 . S
C348 C350 1.415 . S
C349 C348 1.355 . S
C349 C351 1.419 . S
C350 C348 1.415 . S
C350 C355 1.425 . S
C350 C357 1.409 . S
C351 H343 0.930 . S
C351 C349 1.419 . S
C351 C352 1.362 . S
C352 H344 0.930 . S
C352 C351 1.362 . S
C352 C355 1.409 . S
C353 H345 0.930 . S
C353 C354 1.355 . S
C353 C355 1.415 . S
C354 C353 1.355 . S
C354 C356 1.419 . S
C355 C350 1.425 . S
C355 C352 1.409 . S
C355 C353 1.415 . S
C356 H346 0.930 . S
C356 C354 1.419 . S
C356 C357 1.362 . S
C357 H347 0.930 . S
C357 C350 1.409 . S
C357 C356 1.362 . S
H358 C364 0.930 . S
H359 C367 0.930 . S
H360 C368 0.930 . S
H361 C369 0.930 . S
H362 C372 0.930 . S
H363 C373 0.930 . S
C364 H358 0.930 . S
C364 C365 1.355 . S
C364 C366 1.415 . S
C365 C364 1.355 . S
C365 C367 1.419 . S
C366 C364 1.415 . S
C366 C371 1.425 . S
C366 C373 1.409 . S
C367 H359 0.930 . S
C367 C365 1.419 . S
C367 C368 1.362 . S
C368 H360 0.930 . S
C368 C367 1.362 . S
C368 C371 1.409 . S
C369 H361 0.930 . S
C369 C370 1.355 . S
C369 C371 1.415 . S
C370 C369 1.355 . S
C370 C372 1.419 . S
C371 C366 1.425 . S
C371 C368 1.409 . S
C371 C369 1.415 . S
C372 H362 0.930 . S
C372 C370 1.419 . S
C372 C373 1.362 . S
C373 H363 0.930 . S
C373 C366 1.409 . S
C373 C372 1.362 . S
H374 C380 0.930 . S
H375 C383 0.930 . S
H376 C384 0.930 . S
H377 C385 0.930 . S
H378 C388 0.930 . S
H379 C389 0.930 . S
C380 H374 0.930 . S
C380 C381 1.355 . S
C380 C382 1.415 . S
C381 C380 1.355 . S
C381 C383 1.419 . S
C382 C380 1.415 . S
C382 C387 1.425 . S
C382 C389 1.409 . S
C383 H375 0.930 . S
C383 C381 1.419 . S
C383 C384 1.362 . S
C384 H376 0.930 . S
C384 C383 1.362 . S
C384 C387 1.409 . S
C385 H377 0.930 . S
C385 C386 1.355 . S
C385 C387 1.415 . S
C386 C385 1.355 . S
C386 C388 1.419 . S
C387 C382 1.425 . S
C387 C384 1.409 . S
C387 C385 1.415 . S
C388 H378 0.930 . S
C388 C386 1.419 . S
C388 C389 1.362 . S
C389 H379 0.930 . S
C389 C382 1.409 . S
C389 C388 1.362 . S
H390 C396 0.930 1_655 S
H391 C399 0.930 . S
H392 C400 0.930 . S
H393 C401 0.930 . S
H394 C404 0.930 1_655 S
H395 C405 0.930 . S
C396 H390 0.930 1_455 S
C396 C397 1.355 . S
C396 C398 1.415 . S
C397 C396 1.355 . S
C397 C399 1.419 . S
C398 C396 1.415 . S
C398 C403 1.432 . S
C398 C405 1.409 1_454 S
C399 H391 0.930 . S
C399 C397 1.419 . S
C399 C400 1.362 . S
C400 H392 0.930 . S
C400 C399 1.362 . S
C400 C403 1.431 . S
C401 H393 0.930 . S
C401 C402 1.355 . S
C401 C403 1.386 1_556 S
C402 C401 1.355 . S
C402 C404 1.419 . S
C403 C398 1.432 . S
C403 C400 1.431 . S
C403 C401 1.386 1_554 S
C404 H394 0.930 1_455 S
C404 C402 1.419 . S
C404 C405 1.362 1_455 S
C405 H395 0.930 . S
C405 C398 1.409 1_656 S
C405 C404 1.362 1_655 S
H406 C412 0.930 . S
H407 C415 0.930 1_565 S
H408 C416 0.930 1_565 S
H409 C417 0.930 . S
H410 C420 0.930 . S
H411 C421 0.930 . S
C412 H406 0.930 . S
C412 C413 1.355 . S
C412 C414 1.415 . S
C413 C412 1.355 . S
C413 C415 1.419 . S
C414 C412 1.415 . S
C414 C419 1.425 . S
C414 C421 1.409 . S
C415 H407 0.930 1_545 S
C415 C413 1.419 . S
C415 C416 1.362 . S
C416 H408 0.930 1_545 S
C416 C415 1.362 . S
C416 C419 1.409 . S
C417 H409 0.930 . S
C417 C418 1.355 . S
C417 C419 1.415 . S
C418 C417 1.355 . S
C418 C420 1.419 . S
C419 C414 1.425 . S
C419 C416 1.409 . S
C419 C417 1.415 . S
C420 H410 0.930 . S
C420 C418 1.419 . S
C420 C421 1.362 . S
C421 H411 0.930 . S
C421 C414 1.409 . S
C421 C420 1.362 . S
H422 C428 0.930 . S
H423 C431 0.930 . S
H424 C432 0.930 . S
H425 C433 0.930 . S
H426 C436 0.930 . S
H427 C437 0.930 . S
C428 H422 0.930 . S
C428 C429 1.355 . S
C428 C430 1.415 . S
C429 C428 1.355 . S
C429 C431 1.419 . S
C430 C428 1.415 . S
C430 C435 1.425 . S
C430 C437 1.409 . S
C431 H423 0.930 . S
C431 C429 1.419 . S
C431 C432 1.362 . S
C432 H424 0.930 . S
C432 C431 1.362 . S
C432 C435 1.409 . S
C433 H425 0.930 . S
C433 C434 1.355 . S
C433 C435 1.415 . S
C434 C433 1.355 . S
C434 C436 1.419 . S
C435 C430 1.425 . S
C435 C432 1.409 . S
C435 C433 1.415 . S
C436 H426 0.930 . S
C436 C434 1.419 . S
C436 C437 1.362 . S
C437 H427 0.930 . S
C437 C430 1.409 . S
C437 C436 1.362 . S
H438 C444 0.930 . S
H439 C447 0.930 . S
H440 C448 0.930 . S
H441 C449 0.930 . S
H442 C452 0.930 . S
H443 C453 0.930 . S
C444 H438 0.930 . S
C444 C445 1.355 . S
C444 C446 1.415 . S
C445 C444 1.355 . S
C445 C447 1.419 1_545 S
C446 C444 1.415 . S
C446 C451 1.425 1_545 S
C446 C453 1.409 . S
C447 H439 0.930 . S
C447 C445 1.419 1_565 S
C447 C448 1.362 . S
C448 H440 0.930 . S
C448 C447 1.362 . S
C448 C451 1.409 . S
C449 H441 0.930 . S
C449 C450 1.355 1_565 S
C449 C451 1.415 . S
C450 C449 1.355 1_545 S
C450 C452 1.419 . S
C451 C446 1.425 1_565 S
C451 C448 1.409 . S
C451 C449 1.415 . S
C452 H442 0.930 . S
C452 C450 1.419 . S
C452 C453 1.362 . S
C453 H443 0.930 . S
C453 C446 1.409 . S
C453 C452 1.362 . S
H454 C460 0.930 . S
H455 C463 0.930 . S
H456 C464 0.930 . S
H457 C465 0.930 . S
H458 C468 0.930 . S
H459 C469 0.930 1_556 S
C460 H454 0.930 . S
C460 C461 1.355 . S
C460 C462 1.415 . S
C461 C460 1.355 . S
C461 C463 1.419 . S
C462 C460 1.415 . S
C462 C467 1.425 1_556 S
C462 C469 1.409 1_556 S
C463 H455 0.930 . S
C463 C461 1.419 . S
C463 C464 1.362 . S
C464 H456 0.930 . S
C464 C463 1.362 . S
C464 C467 1.409 1_556 S
C465 H457 0.930 . S
C465 C466 1.355 . S
C465 C467 1.415 . S
C466 C465 1.355 . S
C466 C468 1.419 . S
C467 C462 1.425 1_554 S
C467 C464 1.409 1_554 S
C467 C465 1.415 . S
C468 H458 0.930 . S
C468 C466 1.419 . S
C468 C469 1.362 . S
C469 H459 0.930 1_554 S
C469 C462 1.409 1_554 S
C469 C468 1.362 . S
H470 C476 0.930 . S
H471 C479 0.930 . S
H472 C480 0.930 . S
H473 C481 0.930 . S
H474 C484 0.930 . S
H475 C485 0.930 . S
C476 H470 0.930 . S
C476 C477 1.355 . S
C476 C478 1.415 . S
C477 C476 1.355 . S
C477 C479 1.419 1_455 S
C478 C476 1.415 . S
C478 C483 1.425 1_455 S
C478 C485 1.409 . S
C479 H471 0.930 . S
C479 C477 1.419 1_655 S
C479 C480 1.362 . S
C480 H472 0.930 . S
C480 C479 1.362 . S
C480 C483 1.409 . S
C481 H473 0.930 . S
C481 C482 1.355 1_655 S
C481 C483 1.415 . S
C482 C481 1.355 1_455 S
C482 C484 1.419 . S
C483 C478 1.425 1_655 S
C483 C480 1.409 . S
C483 C481 1.415 . S
C484 H474 0.930 . S
C484 C482 1.419 . S
C484 C485 1.362 . S
C485 H475 0.930 . S
C485 C478 1.409 . S
C485 C484 1.362 . S
C205 C19 1.944 . S
C210 C189 1.813 . S
C221 C46 1.251 . S
C226 C167 1.285 1_655 S
C237 C95 0.391 . S
C242 C180 0.338 . S
C253 C10 1.899 . S
C258 C193 1.860 . S
C274 C163 1.348 . S
C269 C55 1.320 . S
C290 C176 0.915 . S
C285 C86 0.932 . S
C301 C59 3.043 . S
C306 C141 3.002 . S
C317 C90 1.876 . S
C322 C154 1.883 . S
C333 C15 1.331 . S
C338 C124 1.290 . S
C354 C137 2.917 . S
C349 C50 3.057 . S
C370 C150 1.775 . S
C365 C99 1.959 . S
C381 C6 1.156 . S
C386 C128 1.134 . S
C402 C155 1.444 . S
C397 C9 1.435 . S
C413 C58 1.439 . S
C418 C129 1.581 . S
C429 C98 1.689 . S
C434 C142 1.747 . S
C450 C181 1.311 . S
C445 C49 1.281 . S
C466 C194 1.430 . S
C461 C89 1.414 . S
C477 C18 1.491 . S
C482 C168 1.541 . S
