# Generated by pormake.
# Topology zzz, (3,6)-cn, num edge types: 1
# Building blocks:
#     Node 0, Type 0, BuildingBlock: ESEHIV_clean_linker_0, # of connection points: 3
#     Node 1, Type 0, BuildingBlock: ESEHIV_clean_linker_0, # of connection points: 3
#     Node 2, Type 0, BuildingBlock: ESEHIV_clean_linker_0, # of connection points: 3
#     Node 3, Type 0, BuildingBlock: ESEHIV_clean_linker_0, # of connection points: 3
#     Node 4, Type 0, BuildingBlock: ESEHIV_clean_linker_0, # of connection points: 3
#     Node 5, Type 0, BuildingBlock: ESEHIV_clean_linker_0, # of connection points: 3
#     Node 6, Type 0, BuildingBlock: ESEHIV_clean_linker_0, # of connection points: 3
#     Node 7, Type 0, BuildingBlock: ESEHIV_clean_linker_0, # of connection points: 3
#     Node 8, Type 1, BuildingBlock: VOLQOD_clean_sbu_1, # of connection points: 6
#     Node 9, Type 1, BuildingBlock: VOLQOD_clean_sbu_1, # of connection points: 6
#     Node 10, Type 1, BuildingBlock: VOLQOD_clean_sbu_1, # of connection points: 6
#     Node 11, Type 1, BuildingBlock: VOLQOD_clean_sbu_1, # of connection points: 6
#     Edge 12, Type (0, 1), BuildingBlock: MIFKUJ_clean_linker_0, # of connection points: 2
#     Edge 13, Type (0, 1), BuildingBlock: MIFKUJ_clean_linker_0, # of connection points: 2
#     Edge 14, Type (0, 1), BuildingBlock: MIFKUJ_clean_linker_0, # of connection points: 2
#     Edge 15, Type (0, 1), BuildingBlock: MIFKUJ_clean_linker_0, # of connection points: 2
#     Edge 16, Type (0, 1), BuildingBlock: MIFKUJ_clean_linker_0, # of connection points: 2
#     Edge 17, Type (0, 1), BuildingBlock: MIFKUJ_clean_linker_0, # of connection points: 2
#     Edge 18, Type (0, 1), BuildingBlock: MIFKUJ_clean_linker_0, # of connection points: 2
#     Edge 19, Type (0, 1), BuildingBlock: MIFKUJ_clean_linker_0, # of connection points: 2
#     Edge 20, Type (0, 1), BuildingBlock: MIFKUJ_clean_linker_0, # of connection points: 2
#     Edge 21, Type (0, 1), BuildingBlock: MIFKUJ_clean_linker_0, # of connection points: 2
#     Edge 22, Type (0, 1), BuildingBlock: MIFKUJ_clean_linker_0, # of connection points: 2
#     Edge 23, Type (0, 1), BuildingBlock: MIFKUJ_clean_linker_0, # of connection points: 2
#     Edge 24, Type (0, 1), BuildingBlock: MIFKUJ_clean_linker_0, # of connection points: 2
#     Edge 25, Type (0, 1), BuildingBlock: MIFKUJ_clean_linker_0, # of connection points: 2
#     Edge 26, Type (0, 1), BuildingBlock: MIFKUJ_clean_linker_0, # of connection points: 2
#     Edge 27, Type (0, 1), BuildingBlock: MIFKUJ_clean_linker_0, # of connection points: 2
#     Edge 28, Type (0, 1), BuildingBlock: MIFKUJ_clean_linker_0, # of connection points: 2
#     Edge 29, Type (0, 1), BuildingBlock: MIFKUJ_clean_linker_0, # of connection points: 2
#     Edge 30, Type (0, 1), BuildingBlock: MIFKUJ_clean_linker_0, # of connection points: 2
#     Edge 31, Type (0, 1), BuildingBlock: MIFKUJ_clean_linker_0, # of connection points: 2
#     Edge 32, Type (0, 1), BuildingBlock: MIFKUJ_clean_linker_0, # of connection points: 2
#     Edge 33, Type (0, 1), BuildingBlock: MIFKUJ_clean_linker_0, # of connection points: 2
#     Edge 34, Type (0, 1), BuildingBlock: MIFKUJ_clean_linker_0, # of connection points: 2
#     Edge 35, Type (0, 1), BuildingBlock: MIFKUJ_clean_linker_0, # of connection points: 2
# Relax obj value: 0.361
# Max RMSD: 0.258
# Mean RMSD: 0.208
data_MOF--net-zzz--node1-VOLQOD_clean_sbu_1--node2-ESEHIV_clean_linker_0--edge1-MIFKUJ_clean_linker_0
_symmetry_space_group_name_H-M    P1
_symmetry_Int_Tables_number       1
_symmetry_cell_setting            triclinic
loop_
_symmetry_equiv_pos_as_xyz
'x, y, z'
_cell_length_a     58.683469
_cell_length_b     57.742424
_cell_length_c     23.066782
_cell_angle_alpha  90.086402
_cell_angle_beta   90.220641
_cell_angle_gamma 92.211115
loop_
_atom_site_label
_atom_site_type_symbol
_atom_site_fract_x
_atom_site_fract_y
_atom_site_fract_z
_atom_type_partial_charge
H0 H 0.82563 0.46034 0.19585 0.0
H1 H 0.77764 0.44662 0.05747 0.0
H2 H 0.75757 0.48448 0.20884 0.0
C3 C 0.80859 0.46115 0.17782 0.0
C4 C 0.79197 0.47258 0.2093 0.0
C5 C 0.80377 0.45186 0.1227 0.0
C6 C 0.78172 0.45384 0.09981 0.0
C7 C 0.76498 0.46567 0.13027 0.0
C8 C 0.7703 0.4753 0.18496 0.0
H9 H 0.02869 0.78751 0.24053 0.0
H10 H 0.02419 0.74717 0.08453 0.0
H11 H -4e-05 0.71803 0.24599 0.0
C12 C 0.02427 0.77136 0.21849 0.0
C13 C 0.01373 0.75313 0.24986 0.0
C14 C 0.02803 0.7695 0.15881 0.0
C15 C 0.02216 0.74847 0.13105 0.0
C16 C 0.01261 0.72946 0.16204 0.0
C17 C 0.00788 0.73215 0.22155 0.0
H18 H 0.72085 0.04829 0.22431 0.0
H19 H 0.75661 0.0455 0.06227 0.0
H20 H 0.78663 0.01851 0.21728 0.0
C21 C 0.73565 0.04387 0.19934 0.0
C22 C 0.75336 0.0326 0.22731 0.0
C23 C 0.73613 0.04813 0.13949 0.0
C24 C 0.7559 0.04282 0.10868 0.0
C25 C 0.77453 0.03287 0.13656 0.0
C26 C 0.77283 0.02704 0.19572 0.0
H27 H 0.50622 0.70411 0.21476 0.0
H28 H 0.53271 0.77355 0.2464 0.0
H29 H 0.50301 0.75528 0.08054 0.0
C30 C 0.50891 0.72187 0.20025 0.0
C31 C 0.50327 0.72772 0.14326 0.0
C32 C 0.51939 0.73826 0.23776 0.0
C33 C 0.52429 0.76092 0.21795 0.0
C34 C 0.51781 0.76726 0.16154 0.0
C35 C 0.50744 0.75055 0.12455 0.0
H36 H 0.21473 0.56311 0.15972 0.0
H37 H 0.25976 0.56086 0.30626 0.0
H38 H 0.28197 0.53753 0.13887 0.0
C39 C 0.23129 0.55959 0.17792 0.0
C40 C 0.24781 0.54988 0.14247 0.0
C41 C 0.23534 0.56349 0.23712 0.0
C42 C 0.2568 0.55872 0.26014 0.0
C43 C 0.27399 0.54978 0.22509 0.0
C44 C 0.26919 0.54498 0.16622 0.0
H45 H 0.08724 0.19139 0.16452 0.0
H46 H 0.09441 0.24432 0.29528 0.0
H47 H 0.0824 0.26277 0.11703 0.0
C48 C 0.08887 0.20952 0.17682 0.0
C49 C 0.08589 0.22631 0.13412 0.0
C50 C 0.09168 0.21571 0.23525 0.0
C51 C 0.09259 0.23929 0.25013 0.0
C52 C 0.08932 0.25639 0.20785 0.0
C53 C 0.08577 0.24982 0.14959 0.0
H54 H 0.32611 0.99283 0.1464 0.0
H55 H 0.28125 0.98551 0.2919 0.0
H56 H 0.25631 0.01156 0.12896 0.0
C57 C 0.30943 0.99465 0.16561 0.0
C58 C 0.29189 0.00348 0.13192 0.0
C59 C 0.3057 0.98793 0.2231 0.0
C60 C 0.28394 0.99001 0.2468 0.0
C61 C 0.26573 0.99807 0.21332 0.0
C62 C 0.26998 0.00529 0.15568 0.0
H63 H 0.49215 0.29271 0.11363 0.0
H64 H 0.46084 0.22523 0.08053 0.0
H65 H 0.48645 0.24298 0.251 0.0
C66 C 0.48714 0.27547 0.12864 0.0
C67 C 0.4907 0.26968 0.18668 0.0
C68 C 0.47645 0.25967 0.08999 0.0
C69 C 0.46909 0.23758 0.10999 0.0
C70 C 0.47255 0.23164 0.16854 0.0
C71 C 0.48333 0.24777 0.20628 0.0
O72 O 0.06941 0.99671 0.62417 0.0
Zn73 Zn 0.04705 0.99754 0.69171 0.0
O74 O 0.01518 0.99268 0.66439 0.0
Zn75 Zn 0.99826 0.02066 0.67567 0.0
Zn76 Zn 0.01498 0.98497 0.58227 0.0
Zn77 Zn 0.99958 0.96754 0.70608 0.0
O78 O 0.96919 0.0149 0.72122 0.0
O79 O 0.97154 0.97809 0.74723 0.0
O80 O 0.05126 0.02894 0.73164 0.0
O81 O 0.01728 0.04402 0.72014 0.0
O82 O 0.99257 0.03607 0.5996 0.0
O83 O 0.00151 0.00987 0.53409 0.0
O84 O 0.00027 0.95365 0.56606 0.0
O85 O 0.05479 0.97281 0.75069 0.0
O86 O 0.99076 0.94052 0.65335 0.0
O87 O 0.02063 0.95566 0.76605 0.0
C88 C 0.06647 0.99066 0.57135 0.0
C89 C 0.9614 0.99719 0.74877 0.0
C90 C 0.99479 0.02992 0.54698 0.0
C91 C 0.0377 0.04544 0.73888 0.0
C92 C 0.99198 0.93768 0.59867 0.0
C93 C 0.04178 0.95832 0.77767 0.0
O94 O 0.04678 0.98471 0.55206 0.0
O95 O 0.50803 0.05624 0.61965 0.0
Zn96 Zn 0.51255 0.03639 0.69123 0.0
O97 O 0.52355 0.00566 0.66911 0.0
Zn98 Zn 0.50062 0.98185 0.69019 0.0
Zn99 Zn 0.52906 0.00465 0.58572 0.0
Zn100 Zn 0.55208 0.99903 0.70861 0.0
O101 O 0.51293 0.95925 0.74715 0.0
O102 O 0.54865 0.97161 0.76332 0.0
O103 O 0.48181 0.03363 0.73144 0.0
O104 O 0.47357 0.99585 0.7279 0.0
O105 O 0.48869 0.96467 0.62007 0.0
O106 O 0.50873 0.98031 0.54771 0.0
O107 O 0.56188 0.99879 0.56678 0.0
O108 O 0.53513 0.05284 0.746 0.0
O109 O 0.57768 0.99319 0.65282 0.0
O110 O 0.56207 0.02683 0.75469 0.0
C111 C 0.51223 0.05313 0.56602 0.0
C112 C 0.53195 0.95742 0.77319 0.0
C113 C 0.4934 0.96602 0.56633 0.0
C114 C 0.46834 0.0163 0.74188 0.0
C115 C 0.57914 0.99427 0.59783 0.0
C116 C 0.5542 0.04654 0.76602 0.0
O117 O 0.52081 0.03453 0.54813 0.0
O118 O 0.46695 0.49917 0.62696 0.0
Zn119 Zn 0.49 0.49586 0.69215 0.0
O120 O 0.52128 0.49655 0.66035 0.0
Zn121 Zn 0.53615 0.46798 0.67947 0.0
Zn122 Zn 0.52042 0.49988 0.57638 0.0
Zn123 Zn 0.5394 0.52256 0.69226 0.0
O124 O 0.56242 0.47371 0.73481 0.0
O125 O 0.56573 0.51206 0.74098 0.0
O126 O 0.48239 0.46491 0.7316 0.0
O127 O 0.51373 0.44531 0.71556 0.0
O128 O 0.54763 0.45216 0.60847 0.0
O129 O 0.53634 0.47435 0.53634 0.0
O130 O 0.53424 0.53058 0.5511 0.0
O131 O 0.48583 0.52266 0.74817 0.0
O132 O 0.55035 0.54517 0.63089 0.0
O133 O 0.51973 0.54108 0.74309 0.0
C134 C 0.46885 0.49919 0.5719 0.0
C135 C 0.57239 0.49205 0.75471 0.0
C136 C 0.54623 0.45652 0.55455 0.0
C137 C 0.49351 0.4464 0.73475 0.0
C138 C 0.54588 0.54655 0.57698 0.0
C139 C 0.49939 0.53959 0.76195 0.0
O140 O 0.48821 0.49866 0.54746 0.0
O141 O 0.97927 0.52123 0.60767 0.0
Zn142 Zn 0.0092 0.52373 0.65261 0.0
O143 O 0.01975 0.49285 0.67409 0.0
Zn144 Zn 0.02162 0.49029 0.75859 0.0
Zn145 Zn 0.9987 0.46883 0.6436 0.0
Zn146 Zn 0.04981 0.48806 0.64154 0.0
O147 O 0.05429 0.48798 0.78546 0.0
O148 O 0.07382 0.4858 0.70361 0.0
O149 O 0.00383 0.54292 0.72399 0.0
O150 O 0.00969 0.51879 0.79705 0.0
O151 O 0.00232 0.46319 0.78787 0.0
O152 O 0.98453 0.45013 0.70844 0.0
O153 O 0.01398 0.44729 0.58771 0.0
O154 O 0.03279 0.54137 0.60451 0.0
O155 O 0.05023 0.45973 0.59073 0.0
O156 O 0.05947 0.51533 0.5932 0.0
C157 C 0.9669 0.50371 0.5916 0.0
C158 C 0.07314 0.48643 0.75873 0.0
C159 C 0.98783 0.44947 0.76299 0.0
C160 C 0.00401 0.53844 0.77802 0.0
C161 C 0.03466 0.44564 0.57203 0.0
C162 C 0.05167 0.53521 0.58365 0.0
O163 O 0.97274 0.48315 0.60236 0.0
H164 H 0.24617 0.96563 0.28536 0.0
H165 H 0.21035 0.96699 0.33655 0.0
H166 H 0.19525 0.03064 0.24905 0.0
H167 H 0.23244 0.03037 0.20057 0.0
H168 H 0.18302 0.0346 0.35512 0.0
H169 H 0.16716 0.97703 0.21428 0.0
H170 H 0.17294 0.94245 0.15404 0.0
H171 H 0.17161 0.89966 0.30614 0.0
H172 H 0.16612 0.93401 0.36743 0.0
H173 H 0.06549 0.97902 0.45662 0.0
H174 H 0.09616 0.9829 0.38628 0.0
H175 H 0.14194 0.00878 0.52022 0.0
H176 H 0.11104 0.0054 0.59119 0.0
H177 H 0.13413 0.96306 0.37549 0.0
H178 H 0.18024 0.04779 0.46381 0.0
H179 H 0.16963 0.08433 0.51035 0.0
H180 H 0.10221 0.07656 0.43821 0.0
H181 H 0.11245 0.04012 0.39088 0.0
C182 C 0.23546 0.98014 0.27723 0.0
C183 C 0.24247 0.99809 0.23931 0.0
C184 C 0.21467 0.98067 0.30598 0.0
C185 C 0.19978 0.99871 0.29616 0.0
C186 C 0.2064 0.01648 0.25734 0.0
C187 C 0.22755 0.01618 0.22913 0.0
C188 C 0.17777 0.999 0.32819 0.0
C189 C 0.17227 0.01899 0.35925 0.0
C190 C 0.16313 0.97895 0.33214 0.0
C191 C 0.16635 0.95815 0.2955 0.0
C192 C 0.16824 0.96026 0.23494 0.0
C193 C 0.17144 0.9407 0.20059 0.0
C194 C 0.17267 0.91888 0.22625 0.0
C195 C 0.17065 0.91657 0.28632 0.0
C196 C 0.16744 0.93608 0.32088 0.0
C197 C 0.08207 0.98552 0.47144 0.0
C198 C 0.08576 0.99187 0.52982 0.0
C199 C 0.09962 0.98772 0.43096 0.0
C200 C 0.12132 0.99634 0.44766 0.0
C201 C 0.12522 0.00244 0.50604 0.0
C202 C 0.10759 0.0003 0.54672 0.0
C203 C 0.13999 0.99829 0.40425 0.0
C204 C 0.14478 0.97872 0.37098 0.0
C205 C 0.15325 0.01903 0.39623 0.0
C206 C 0.14708 0.04108 0.42428 0.0
C207 C 0.16318 0.05391 0.45775 0.0
C208 C 0.15721 0.07459 0.48434 0.0
C209 C 0.13522 0.08269 0.47749 0.0
C210 C 0.11918 0.07019 0.44383 0.0
C211 C 0.12505 0.0495 0.4172 0.0
H212 H 0.13063 0.0987 0.49811 0.0
H213 H 0.17517 0.90375 0.19959 0.0
H214 H 0.48935 0.19003 0.1378 0.0
H215 H 0.48926 0.15541 0.19947 0.0
H216 H 0.44285 0.18737 0.31706 0.0
H217 H 0.44302 0.22187 0.25571 0.0
H218 H 0.48334 0.17793 0.36758 0.0
H219 H 0.42691 0.13743 0.25193 0.0
H220 H 0.40914 0.12114 0.16303 0.0
H221 H 0.46692 0.07905 0.13627 0.0
H222 H 0.48518 0.09527 0.22468 0.0
H223 H 0.48498 0.09015 0.58161 0.0
H224 H 0.47269 0.11762 0.50839 0.0
H225 H 0.5127 0.08358 0.37943 0.0
H226 H 0.52452 0.05567 0.45191 0.0
H227 H 0.47288 0.09333 0.33457 0.0
H228 H 0.53069 0.13578 0.44354 0.0
H229 H 0.54939 0.15204 0.53132 0.0
H230 H 0.49027 0.19106 0.56774 0.0
H231 H 0.4711 0.1748 0.48053 0.0
C232 C 0.47828 0.18912 0.17528 0.0
C233 C 0.46621 0.20852 0.19221 0.0
C234 C 0.47831 0.16941 0.21066 0.0
C235 C 0.46621 0.16891 0.26318 0.0
C236 C 0.45237 0.18742 0.27689 0.0
C237 C 0.45235 0.20704 0.24168 0.0
C238 C 0.47108 0.1514 0.30817 0.0
C239 C 0.48061 0.15943 0.36076 0.0
C240 C 0.46829 0.12728 0.29845 0.0
C241 C 0.45752 0.11776 0.24469 0.0
C242 C 0.43595 0.12489 0.22677 0.0
C243 C 0.42575 0.11561 0.17655 0.0
C244 C 0.43692 0.09912 0.14393 0.0
C245 C 0.4583 0.09184 0.16154 0.0
C246 C 0.46857 0.10106 0.21175 0.0
C247 C 0.4913 0.0886 0.53778 0.0
C248 C 0.50585 0.07078 0.52278 0.0
C249 C 0.48424 0.10432 0.49588 0.0
C250 C 0.49193 0.10282 0.43838 0.0
C251 C 0.50647 0.08506 0.42338 0.0
C252 C 0.51333 0.0692 0.46505 0.0
C253 C 0.48507 0.11991 0.39399 0.0
C254 C 0.47537 0.11184 0.3415 0.0
C255 C 0.48787 0.14408 0.4034 0.0
C256 C 0.49937 0.15388 0.45587 0.0
C257 C 0.52161 0.14769 0.47052 0.0
C258 C 0.5323 0.15693 0.52012 0.0
C259 C 0.521 0.17252 0.55518 0.0
C260 C 0.49899 0.17895 0.54061 0.0
C261 C 0.48821 0.16974 0.49108 0.0
H262 H 0.52931 0.17966 0.59355 0.0
H263 H 0.42901 0.09194 0.10509 0.0
H264 H 0.30045 0.51221 0.20532 0.0
H265 H 0.33525 0.50217 0.25665 0.0
H266 H 0.33199 0.56458 0.35901 0.0
H267 H 0.29824 0.57543 0.30544 0.0
H268 H 0.37379 0.5581 0.3371 0.0
H269 H 0.31184 0.5095 0.4081 0.0
H270 H 0.27941 0.48116 0.40111 0.0
H271 H 0.32354 0.43048 0.33162 0.0
H272 H 0.35619 0.45865 0.33751 0.0
H273 H 0.42889 0.51947 0.59844 0.0
H274 H 0.39675 0.52601 0.53281 0.0
H275 H 0.43029 0.48915 0.39694 0.0
H276 H 0.46281 0.48318 0.46151 0.0
H277 H 0.37503 0.48104 0.43195 0.0
H278 H 0.43717 0.53364 0.3613 0.0
H279 H 0.46807 0.563 0.37914 0.0
H280 H 0.4206 0.60729 0.461 0.0
H281 H 0.38948 0.57798 0.44435 0.0
C282 C 0.30744 0.52406 0.23781 0.0
C283 C 0.29634 0.54449 0.25175 0.0
C284 C 0.32718 0.51814 0.26772 0.0
C285 C 0.33597 0.53233 0.31276 0.0
C286 C 0.3255 0.55322 0.32482 0.0
C287 C 0.30602 0.55929 0.29449 0.0
C288 C 0.35558 0.52525 0.34884 0.0
C289 C 0.37393 0.54124 0.35777 0.0
C290 C 0.35597 0.50324 0.37604 0.0
C291 C 0.33639 0.48626 0.37261 0.0
C292 C 0.31459 0.49237 0.39093 0.0
C293 C 0.29618 0.47633 0.38723 0.0
C294 C 0.2994 0.45406 0.36576 0.0
C295 C 0.32106 0.44776 0.34812 0.0
C296 C 0.33953 0.46374 0.35166 0.0
C297 C 0.42928 0.51252 0.55483 0.0
C298 C 0.44837 0.50093 0.53494 0.0
C299 C 0.41097 0.51629 0.51747 0.0
C300 C 0.41131 0.50811 0.46021 0.0
C301 C 0.42982 0.49559 0.44104 0.0
C302 C 0.44836 0.49227 0.47789 0.0
C303 C 0.3929 0.51385 0.41953 0.0
C304 C 0.37483 0.4977 0.41029 0.0
C305 C 0.39251 0.53582 0.39292 0.0
C306 C 0.4111 0.55354 0.4022 0.0
C307 C 0.43338 0.54954 0.3836 0.0
C308 C 0.45092 0.56619 0.39337 0.0
C309 C 0.44632 0.58697 0.42136 0.0
C310 C 0.42415 0.59117 0.43942 0.0
C311 C 0.40656 0.57456 0.42979 0.0
H312 H 0.45992 0.59983 0.42891 0.0
H313 H 0.28512 0.44166 0.36293 0.0
H314 H 0.1199 0.28368 0.26807 0.0
H315 H 0.11203 0.31942 0.32034 0.0
H316 H 0.04402 0.31795 0.24817 0.0
H317 H 0.05223 0.28266 0.19415 0.0
H318 H 0.05899 0.36169 0.26307 0.0
H319 H 0.05477 0.29308 0.37835 0.0
H320 H 0.06864 0.25677 0.41918 0.0
H321 H 0.12348 0.29474 0.50457 0.0
H322 H 0.1102 0.33127 0.46323 0.0
H323 H 0.00616 0.42009 0.50008 0.0
H324 H 0.01665 0.39052 0.42974 0.0
H325 H 0.08725 0.40009 0.4798 0.0
H326 H 0.07702 0.42984 0.5496 0.0
H327 H 0.07061 0.35289 0.47508 0.0
H328 H 0.07209 0.42238 0.35843 0.0
H329 H 0.05579 0.45754 0.31746 0.0
H330 H 0.00208 0.41615 0.23714 0.0
H331 H 0.01789 0.38074 0.27836 0.0
C332 C 0.10356 0.29148 0.26199 0.0
C333 C 0.08664 0.28051 0.22735 0.0
C334 C 0.09899 0.31175 0.29213 0.0
C335 C 0.07721 0.321 0.28942 0.0
C336 C 0.0609 0.31107 0.25117 0.0
C337 C 0.06561 0.29097 0.2202 0.0
C338 C 0.07077 0.33937 0.33075 0.0
C339 C 0.06136 0.35968 0.30943 0.0
C340 C 0.07382 0.33677 0.39138 0.0
C341 C 0.08162 0.31489 0.41722 0.0
C342 C 0.06987 0.29368 0.40554 0.0
C343 C 0.07762 0.27305 0.42876 0.0
C344 C 0.09695 0.27344 0.46436 0.0
C345 C 0.10853 0.29447 0.47692 0.0
C346 C 0.1009 0.31514 0.45359 0.0
C347 C 0.02391 0.41587 0.4962 0.0
C348 C 0.04076 0.42732 0.53044 0.0
C349 C 0.02988 0.39908 0.4558 0.0
C350 C 0.05274 0.39327 0.4494 0.0
C351 C 0.06953 0.4044 0.48404 0.0
C352 C 0.06364 0.42141 0.52381 0.0
C353 C 0.05915 0.37527 0.40731 0.0
C354 C 0.06839 0.35494 0.42866 0.0
C355 C 0.05551 0.37768 0.34698 0.0
C356 C 0.04605 0.39894 0.32199 0.0
C357 C 0.05669 0.42079 0.33247 0.0
C358 C 0.04756 0.44076 0.30911 0.0
C359 C 0.02788 0.43909 0.27485 0.0
C360 C 0.01731 0.41742 0.26376 0.0
C361 C 0.02636 0.3974 0.28706 0.0
H362 H 0.02084 0.45457 0.2568 0.0
H363 H 0.10293 0.25746 0.48231 0.0
H364 H 0.79942 0.99348 0.13506 0.0
H365 H 0.83248 0.98573 0.07395 0.0
H366 H 0.82913 0.054 0.99947 0.0
H367 H 0.79656 0.06194 0.06082 0.0
H368 H 0.83519 0.98474 0.95556 0.0
H369 H 0.8822 0.07502 0.96814 0.0
H370 H 0.88881 0.10673 0.0387 0.0
H371 H 0.87853 0.05882 0.17922 0.0
H372 H 0.87219 0.02677 0.10956 0.0
H373 H 0.93518 0.03501 0.76397 0.0
H374 H 0.90378 0.03923 0.83197 0.0
H375 H 0.91095 0.96879 0.88915 0.0
H376 H 0.94206 0.96426 0.82063 0.0
H377 H 0.90423 0.03699 0.94737 0.0
H378 H 0.85932 0.9464 0.93495 0.0
H379 H 0.85259 0.91465 0.8645 0.0
H380 H 0.85849 0.96318 0.72399 0.0
H381 H 0.86496 0.99524 0.79359 0.0
C382 C 0.80599 0.00692 0.10626 0.0
C383 C 0.79538 0.02831 0.10266 0.0
C384 C 0.82474 0.00242 0.0711 0.0
C385 C 0.83337 0.01934 0.03241 0.0
C386 C 0.82297 0.04078 0.02945 0.0
C387 C 0.80424 0.04524 0.06424 0.0
C388 C 0.85275 0.01453 0.99349 0.0
C389 C 0.85049 0.9959 0.95445 0.0
C390 C 0.87248 0.02939 0.99123 0.0
C391 C 0.87651 0.04853 0.03354 0.0
C392 C 0.88144 0.07123 0.01409 0.0
C393 C 0.88513 0.08927 0.05394 0.0
C394 C 0.88403 0.0848 0.1134 0.0
C395 C 0.8793 0.06227 0.13314 0.0
C396 C 0.87562 0.04417 0.09349 0.0
C397 C 0.92993 0.02031 0.79048 0.0
C398 C 0.94116 0.99927 0.78663 0.0
C399 C 0.91203 0.02279 0.82957 0.0
C400 C 0.90491 0.00431 0.86553 0.0
C401 C 0.91589 0.9832 0.86131 0.0
C402 C 0.93374 0.98067 0.8221 0.0
C403 C 0.88652 0.00743 0.90871 0.0
C404 C 0.889 0.02573 0.94866 0.0
C405 C 0.86701 0.99226 0.91179 0.0
C406 C 0.86288 0.97317 0.8695 0.0
C407 C 0.85911 0.95029 0.88902 0.0
C408 C 0.85535 0.93224 0.84924 0.0
C409 C 0.85519 0.93688 0.7898 0.0
C410 C 0.85871 0.95959 0.77003 0.0
C411 C 0.86246 0.97771 0.80963 0.0
H412 H 0.8523 0.92288 0.75908 0.0
H413 H 0.88687 0.0988 0.14417 0.0
H414 H 0.48691 0.7955 0.11503 0.0
H415 H 0.49475 0.83052 0.05809 0.0
H416 H 0.56643 0.82713 0.09766 0.0
H417 H 0.55854 0.79194 0.15559 0.0
H418 H 0.54915 0.87438 0.08868 0.0
H419 H 0.55184 0.80357 0.98128 0.0
H420 H 0.53759 0.76451 0.95232 0.0
H421 H 0.47683 0.79311 0.88273 0.0
H422 H 0.49048 0.83231 0.91249 0.0
H423 H 0.57004 0.9461 0.83569 0.0
H424 H 0.57297 0.91534 0.90824 0.0
H425 H 0.50182 0.89631 0.88259 0.0
H426 H 0.49886 0.92644 0.80979 0.0
H427 H 0.52646 0.859 0.88423 0.0
H428 H 0.52206 0.92894 0.00169 0.0
H429 H 0.53554 0.96787 0.03397 0.0
H430 H 0.59995 0.94095 0.08366 0.0
H431 H 0.5869 0.90189 0.05111 0.0
C432 C 0.50425 0.8026 0.11287 0.0
C433 C 0.52216 0.79099 0.13905 0.0
C434 C 0.50871 0.82257 0.08042 0.0
C435 C 0.5312 0.83115 0.07294 0.0
C436 C 0.54897 0.82073 0.10296 0.0
C437 C 0.54446 0.8007 0.13595 0.0
C438 C 0.53603 0.84887 0.02779 0.0
C439 C 0.54461 0.87098 0.04375 0.0
C440 C 0.53008 0.84434 0.96924 0.0
C441 C 0.52213 0.82088 0.94948 0.0
C442 C 0.53538 0.80152 0.96009 0.0
C443 C 0.52741 0.77935 0.94356 0.0
C444 C 0.50631 0.77633 0.91578 0.0
C445 C 0.49317 0.79548 0.90429 0.0
C446 C 0.50103 0.81769 0.92096 0.0
C447 C 0.55504 0.93532 0.84546 0.0
C448 C 0.53422 0.93876 0.81677 0.0
C449 C 0.55672 0.91782 0.88715 0.0
C450 C 0.53756 0.90361 0.90121 0.0
C451 C 0.51686 0.907 0.87241 0.0
C452 C 0.51519 0.92431 0.83074 0.0
C453 C 0.53872 0.88494 0.94525 0.0
C454 C 0.53137 0.86244 0.92892 0.0
C455 C 0.54589 0.88917 0.0032 0.0
C456 C 0.5536 0.91257 0.02339 0.0
C457 C 0.53914 0.93136 0.01918 0.0
C458 C 0.5467 0.95344 0.03758 0.0
C459 C 0.56862 0.9569 0.06067 0.0
C460 C 0.58299 0.93826 0.06567 0.0
C461 C 0.57552 0.91615 0.04731 0.0
H462 H 0.57443 0.97401 0.07482 0.0
H463 H 0.50015 0.75914 0.90307 0.0
H464 H 0.73741 0.43224 0.08034 0.0
H465 H 0.70302 0.43767 0.02256 0.0
H466 H 0.70746 0.511 0.05919 0.0
H467 H 0.74181 0.50556 0.1179 0.0
H468 H 0.66326 0.49449 0.05751 0.0
H469 H 0.72865 0.49086 0.9349 0.0
H470 H 0.76365 0.47405 0.89727 0.0
H471 H 0.72514 0.41301 0.84312 0.0
H472 H 0.68995 0.4293 0.88137 0.0
H473 H 0.59533 0.52679 0.81477 0.0
H474 H 0.62677 0.52306 0.8836 0.0
H475 H 0.62466 0.44908 0.85658 0.0
H476 H 0.59336 0.4526 0.78752 0.0
H477 H 0.66798 0.4676 0.85355 0.0
H478 H 0.60247 0.47165 0.97776 0.0
H479 H 0.56778 0.48893 0.01586 0.0
H480 H 0.60684 0.55023 0.06552 0.0
H481 H 0.64173 0.53344 0.02696 0.0
C482 C 0.73086 0.44947 0.07664 0.0
C483 C 0.74237 0.46853 0.10296 0.0
C484 C 0.71126 0.45256 0.04361 0.0
C485 C 0.70299 0.47482 0.03552 0.0
C486 C 0.71363 0.4937 0.06465 0.0
C487 C 0.7332 0.49057 0.09821 0.0
C488 C 0.68421 0.47846 0.99365 0.0
C489 C 0.66438 0.48889 0.01273 0.0
C490 C 0.68561 0.47092 0.93534 0.0
C491 C 0.70669 0.46122 0.91148 0.0
C492 C 0.72766 0.47379 0.91531 0.0
C493 C 0.74754 0.46436 0.89385 0.0
C494 C 0.74662 0.44246 0.86793 0.0
C495 C 0.72582 0.42997 0.86327 0.0
C496 C 0.7059 0.43929 0.88481 0.0
C497 C 0.60156 0.50972 0.82334 0.0
C498 C 0.59177 0.48999 0.7956 0.0
C499 C 0.61946 0.50761 0.86295 0.0
C500 C 0.62789 0.48576 0.87562 0.0
C501 C 0.61837 0.4661 0.8475 0.0
C502 C 0.60044 0.46816 0.80809 0.0
C503 C 0.64687 0.48334 0.91755 0.0
C504 C 0.66684 0.47322 0.89832 0.0
C505 C 0.64561 0.4913 0.97551 0.0
C506 C 0.62467 0.50138 0.99892 0.0
C507 C 0.60363 0.48889 0.99637 0.0
C508 C 0.58393 0.49858 0.01813 0.0
C509 C 0.58509 0.52069 0.04295 0.0
C510 C 0.60596 0.53312 0.04621 0.0
C511 C 0.62571 0.52352 0.02445 0.0
H512 H 0.56982 0.52816 0.05977 0.0
H513 H 0.76203 0.43518 0.85135 0.0
H514 H 0.97575 0.69863 0.17591 0.0
H515 H 0.96674 0.66345 0.11872 0.0
H516 H 0.02796 0.67561 0.01906 0.0
H517 H 0.03782 0.7097 0.07743 0.0
H518 H 0.9778 0.66822 0.95958 0.0
H519 H 0.03488 0.63961 0.10099 0.0
H520 H 0.04596 0.63083 0.20142 0.0
H521 H 0.9857 0.58694 0.22082 0.0
H522 H 0.97394 0.59607 0.12085 0.0
H523 H 0.01292 0.58469 0.7671 0.0
H524 H 0.00682 0.61485 0.83859 0.0
H525 H 0.9755 0.56403 0.95357 0.0
H526 H 0.98325 0.53347 0.88334 0.0
H527 H -0.00029 0.58918 0.01538 0.0
H528 H 0.94453 0.60871 0.87862 0.0
H529 H 0.92706 0.61658 0.78367 0.0
H530 H 0.97305 0.67546 0.76067 0.0
H531 H 0.99105 0.66777 0.85509 0.0
C532 C 0.98753 0.69357 0.1426 0.0
C533 C 0.0074 0.70723 0.13089 0.0
C534 C 0.98223 0.6736 0.10972 0.0
C535 C 0.99661 0.6672 0.0645 0.0
C536 C 0.01656 0.68048 0.05347 0.0
C537 C 0.02207 0.70005 0.08675 0.0
C538 C 0.99109 0.64695 0.02714 0.0
C539 C 0.98249 0.65086 0.97143 0.0
C540 C 0.9961 0.62424 0.04405 0.0
C541 C 0.00336 0.61881 0.10385 0.0
C542 C 0.02383 0.62837 0.12693 0.0
C543 C 0.03027 0.62326 0.18375 0.0
C544 C 0.01652 0.60834 0.21756 0.0
C545 C 0.9963 0.59853 0.19463 0.0
C546 C 0.98973 0.6037 0.13796 0.0
C547 C 0.00453 0.58001 0.80741 0.0
C548 C 0.99851 0.55679 0.8197 0.0
C549 C 0.00081 0.59732 0.84819 0.0
C550 C 0.99015 0.59196 0.90131 0.0
C551 C 0.98371 0.56873 0.91307 0.0
C552 C 0.98809 0.55127 0.8729 0.0
C553 C 0.98736 0.61042 0.94576 0.0
C554 C 0.99438 0.60627 0.00308 0.0
C555 C 0.97997 0.63277 0.93089 0.0
C556 C 0.96922 0.63757 0.87394 0.0
C557 C 0.95103 0.62326 0.85318 0.0
C558 C 0.94102 0.6277 0.79944 0.0
C559 C 0.94896 0.64649 0.76613 0.0
C560 C 0.96691 0.66091 0.78654 0.0
C561 C 0.977 0.65654 0.84023 0.0
H562 H 0.94119 0.64989 0.72454 0.0
H563 H 0.02154 0.60428 0.26145 0.0
H564 H 0.10927 0.17231 0.23429 0.0
H565 H 0.09461 0.13896 0.28982 0.0
H566 H 0.05458 0.18402 0.39409 0.0
H567 H 0.06809 0.21724 0.33725 0.0
H568 H 0.07501 0.14121 0.45182 0.0
H569 H 0.02955 0.16769 0.28538 0.0
H570 H 0.02729 0.17833 0.18204 0.0
H571 H 0.04859 0.1107 0.13357 0.0
H572 H 0.05154 0.09988 0.23681 0.0
H573 H 0.98519 0.07567 0.55878 0.0
H574 H 0.0025 0.10706 0.50156 0.0
H575 H 0.02632 0.0576 0.37773 0.0
H576 H 0.00897 0.026 0.43437 0.0
H577 H 0.01742 0.09987 0.32678 0.0
H578 H 0.06059 0.07039 0.4814 0.0
H579 H 0.069 0.05712 0.58041 0.0
H580 H 0.05806 0.12531 0.6467 0.0
H581 H 0.04931 0.13895 0.54795 0.0
C582 C 0.09775 0.17521 0.26991 0.0
C583 C 0.08937 0.19737 0.2802 0.0
C584 C 0.08955 0.15616 0.30178 0.0
C585 C 0.07327 0.15912 0.34515 0.0
C586 C 0.06714 0.1815 0.36058 0.0
C587 C 0.075 0.20052 0.32808 0.0
C588 C 0.05969 0.13902 0.36705 0.0
C589 C 0.06227 0.13228 0.42485 0.0
C590 C 0.04376 0.1269 0.33079 0.0
C591 C 0.04097 0.13306 0.26879 0.0
C592 C 0.03389 0.15514 0.25271 0.0
C593 C 0.0325 0.16121 0.19417 0.0
C594 C 0.03783 0.14521 0.15128 0.0
C595 C 0.0445 0.12308 0.16685 0.0
C596 C 0.04604 0.11698 0.22537 0.0
C597 C 0.99328 0.07144 0.51819 0.0
C598 C 0.99629 0.04824 0.50217 0.0
C599 C 0.00332 0.08943 0.48573 0.0
C600 C 0.01634 0.0845 0.43669 0.0
C601 C 0.01659 0.06168 0.41599 0.0
C602 C 0.00656 0.04363 0.44845 0.0
C603 C 0.03212 0.10253 0.41242 0.0
C604 C 0.0301 0.10877 0.35398 0.0
C605 C 0.04907 0.11373 0.44765 0.0
C606 C 0.05408 0.10565 0.50731 0.0
C607 C 0.05976 0.08252 0.51713 0.0
C608 C 0.06464 0.07493 0.57317 0.0
C609 C 0.06406 0.09037 0.61979 0.0
C610 C 0.05852 0.11339 0.61048 0.0
C611 C 0.05362 0.12107 0.55446 0.0
H612 H 0.06802 0.08451 0.66306 0.0
H613 H 0.03673 0.14994 0.10601 0.0
H614 H 0.30366 0.9515 0.29948 0.0
H615 H 0.33513 0.93581 0.35538 0.0
H616 H 0.38175 0.98659 0.27928 0.0
H617 H 0.3504 0.00294 0.22528 0.0
H618 H 0.39769 0.93998 0.28053 0.0
H619 H 0.36352 0.99701 0.40761 0.0
H620 H 0.33164 0.01298 0.46224 0.0
H621 H 0.32254 0.94885 0.55485 0.0
H622 H 0.35426 0.93244 0.50027 0.0
H623 H 0.49093 0.97333 0.44977 0.0
H624 H 0.45883 0.96308 0.38738 0.0
H625 H 0.42855 0.92115 0.5237 0.0
H626 H 0.4604 0.93225 0.5877 0.0
H627 H 0.40049 0.95118 0.49364 0.0
H628 H 0.44186 0.89818 0.38455 0.0
H629 H 0.47419 0.88246 0.33134 0.0
H630 H 0.4702 0.9368 0.2053 0.0
H631 H 0.43807 0.95307 0.25812 0.0
C632 C 0.32057 0.95948 0.29513 0.0
C633 C 0.32454 0.97846 0.25779 0.0
C634 C 0.33852 0.95034 0.32661 0.0
C635 C 0.36071 0.95994 0.32088 0.0
C636 C 0.36476 0.97875 0.28352 0.0
C637 C 0.34683 0.98804 0.25265 0.0
C638 C 0.37972 0.95137 0.35584 0.0
C639 C 0.39844 0.9423 0.32718 0.0
C640 C 0.38011 0.95357 0.41678 0.0
C641 C 0.361 0.9634 0.4493 0.0
C642 C 0.35456 0.98625 0.43921 0.0
C643 C 0.33656 0.99539 0.47025 0.0
C644 C 0.32498 0.98189 0.51176 0.0
C645 C 0.33144 0.95924 0.52246 0.0
C646 C 0.34944 0.95003 0.49156 0.0
C647 C 0.47787 0.9613 0.46606 0.0
C648 C 0.47798 0.95403 0.52418 0.0
C649 C 0.4595 0.95525 0.42995 0.0
C650 C 0.44113 0.94135 0.45075 0.0
C651 C 0.44243 0.93203 0.50681 0.0
C652 C 0.46068 0.93836 0.54333 0.0
C653 C 0.41922 0.94049 0.41833 0.0
C654 C 0.39976 0.94791 0.44733 0.0
C655 C 0.41819 0.9366 0.35773 0.0
C656 C 0.43753 0.92688 0.3255 0.0
C657 C 0.44795 0.90687 0.34568 0.0
C658 C 0.46624 0.89785 0.31554 0.0
C659 C 0.47424 0.90863 0.26498 0.0
C660 C 0.46396 0.92845 0.24442 0.0
C661 C 0.44566 0.93755 0.2744 0.0
H662 H 0.48841 0.90162 0.24172 0.0
H663 H 0.31109 0.98901 0.53584 0.0
H664 H 0.52794 0.29842 0.16657 0.0
H665 H 0.54387 0.32895 0.23 0.0
H666 H 0.49448 0.30982 0.36127 0.0
H667 H 0.47797 0.27979 0.29732 0.0
H668 H 0.49544 0.35507 0.34241 0.0
H669 H 0.55043 0.29777 0.37818 0.0
H670 H 0.57866 0.26901 0.35221 0.0
H671 H 0.62052 0.32228 0.27141 0.0
H672 H 0.59236 0.35132 0.2962 0.0
H673 H 0.5626 0.41365 0.57704 0.0
H674 H 0.56137 0.38068 0.51062 0.0
H675 H 0.5425 0.42546 0.37045 0.0
H676 H 0.54354 0.45854 0.43631 0.0
H677 H 0.57699 0.36625 0.39795 0.0
H678 H 0.49231 0.40224 0.32018 0.0
H679 H 0.46388 0.42979 0.35306 0.0
H680 H 0.48042 0.41527 0.5305 0.0
H681 H 0.50862 0.38738 0.49866 0.0
C682 C 0.5205 0.30072 0.209 0.0
C683 C 0.50163 0.28682 0.22689 0.0
C684 C 0.52977 0.31799 0.24538 0.0
C685 C 0.52043 0.32153 0.30042 0.0
C686 C 0.50195 0.30731 0.31894 0.0
C687 C 0.49264 0.29007 0.28256 0.0
C688 C 0.52891 0.34106 0.33714 0.0
C689 C 0.51327 0.35743 0.35451 0.0
C690 C 0.55215 0.34407 0.3533 0.0
C691 C 0.56918 0.32668 0.33861 0.0
C692 C 0.56557 0.30332 0.35448 0.0
C693 C 0.58157 0.28697 0.34004 0.0
C694 C 0.60135 0.2938 0.31006 0.0
C695 C 0.60518 0.31701 0.29459 0.0
C696 C 0.58922 0.33343 0.30888 0.0
C697 C 0.55896 0.41668 0.53168 0.0
C698 C 0.55249 0.43859 0.5123 0.0
C699 C 0.5584 0.39781 0.49374 0.0
C700 C 0.55137 0.40065 0.43616 0.0
C701 C 0.54771 0.42297 0.41505 0.0
C702 C 0.54826 0.44184 0.45287 0.0
C703 C 0.54356 0.38023 0.40199 0.0
C704 C 0.55923 0.36378 0.38535 0.0
C705 C 0.52024 0.3768 0.38737 0.0
C706 C 0.50273 0.39293 0.40698 0.0
C707 C 0.48977 0.40485 0.36619 0.0
C708 C 0.47371 0.42053 0.38465 0.0
C709 C 0.4704 0.42434 0.44382 0.0
C710 C 0.48304 0.41237 0.48468 0.0
C711 C 0.49907 0.39663 0.46644 0.0
H712 H 0.458 0.43652 0.45801 0.0
H713 H 0.61372 0.28112 0.29891 0.0
H714 H 0.23748 0.59308 0.33119 0.0
H715 H 0.20649 0.60187 0.39796 0.0
H716 H 0.1598 0.55882 0.29628 0.0
H717 H 0.19048 0.54918 0.23139 0.0
H718 H 0.14191 0.60146 0.32931 0.0
H719 H 0.18476 0.538 0.41051 0.0
H720 H 0.2185 0.52028 0.45311 0.0
H721 H 0.21996 0.57071 0.59022 0.0
H722 H 0.18652 0.58908 0.5476 0.0
H723 H 0.05863 0.53432 0.46831 0.0
H724 H 0.0892 0.55509 0.4158 0.0
H725 H 0.10873 0.59199 0.57226 0.0
H726 H 0.0777 0.57136 0.62463 0.0
H727 H 0.14323 0.56743 0.52651 0.0
H728 H 0.09468 0.62425 0.45915 0.0
H729 H 0.06003 0.64116 0.41928 0.0
H730 H 0.06815 0.60331 0.26075 0.0
H731 H 0.10268 0.58605 0.29975 0.0
C732 C 0.22061 0.58547 0.32313 0.0
C733 C 0.21651 0.57048 0.27564 0.0
C734 C 0.20293 0.59066 0.36106 0.0
C735 C 0.18089 0.58107 0.35175 0.0
C736 C 0.17665 0.56664 0.30372 0.0
C737 C 0.19426 0.56124 0.26642 0.0
C738 C 0.16222 0.58454 0.39328 0.0
C739 C 0.14217 0.59421 0.37266 0.0
C740 C 0.16298 0.57593 0.45062 0.0
C741 C 0.18346 0.56524 0.47512 0.0
C742 C 0.19252 0.54557 0.44914 0.0
C743 C 0.21154 0.53536 0.47342 0.0
C744 C 0.22146 0.54446 0.52413 0.0
C745 C 0.21236 0.56378 0.55072 0.0
C746 C 0.19341 0.57413 0.52645 0.0
C747 C 0.06888 0.54758 0.49067 0.0
C748 C 0.06582 0.55159 0.54992 0.0
C749 C 0.08629 0.55947 0.46079 0.0
C750 C 0.10112 0.57523 0.49008 0.0
C751 C 0.09731 0.58009 0.54882 0.0
C752 C 0.07961 0.56843 0.57853 0.0
C753 C 0.1225 0.5832 0.46134 0.0
C754 C 0.14311 0.57564 0.48421 0.0
C755 C 0.12227 0.59375 0.40617 0.0
C756 C 0.10131 0.60385 0.38245 0.0
C757 C 0.08899 0.61942 0.4159 0.0
C758 C 0.06938 0.62912 0.3934 0.0
C759 C 0.06191 0.62339 0.33746 0.0
C760 C 0.07398 0.60786 0.30397 0.0
C761 C 0.09362 0.59815 0.32621 0.0
H762 H 0.04678 0.63103 0.32011 0.0
H763 H 0.23613 0.53647 0.54298 0.0
H764 H 0.01788 0.8149 0.176 0.0
H765 H 0.02846 0.84813 0.11654 0.0
H766 H 0.06617 0.80453 0.00265 0.0
H767 H 0.05679 0.77102 0.0644 0.0
H768 H 0.0871 0.84861 0.01657 0.0
H769 H 0.01308 0.81571 0.96723 0.0
H770 H 0.9742 0.80042 0.98862 0.0
H771 H 0.95708 0.86632 0.05934 0.0
H772 H 0.99597 0.88191 0.03907 0.0
H773 H 0.07234 0.92424 0.76812 0.0
H774 H 0.07797 0.89335 0.83939 0.0
H775 H 0.03611 0.92898 0.96159 0.0
H776 H 0.02989 0.9592 0.88987 0.0
H777 H 0.01921 0.88701 0.93923 0.0
H778 H 0.09346 0.92031 0.98686 0.0
H779 H 0.13259 0.93514 0.96661 0.0
H780 H 0.14941 0.86888 0.89755 0.0
H781 H 0.11028 0.85373 0.91671 0.0
C782 C 0.02897 0.81228 0.13942 0.0
C783 C 0.03627 0.79009 0.12489 0.0
C784 C 0.03486 0.83137 0.10511 0.0
C785 C 0.04773 0.82869 0.05464 0.0
C786 C 0.0561 0.8069 0.04131 0.0
C787 C 0.05044 0.78773 0.07622 0.0
C788 C 0.0504 0.84825 0.0135 0.0
C789 C 0.07232 0.85692 0.99899 0.0
C790 C 0.03107 0.8591 0.99104 0.0
C791 C 0.00749 0.84992 0.00199 0.0
C792 C 0.00105 0.82691 0.98757 0.0
C793 C 0.97902 0.81819 0.99949 0.0
C794 C 0.9632 0.83238 0.02543 0.0
C795 C 0.96936 0.85535 0.03928 0.0
C796 C 0.99138 0.86414 0.02751 0.0
C797 C 0.06514 0.9258 0.81107 0.0
C798 C 0.05078 0.94395 0.82405 0.0
C799 C 0.06833 0.90819 0.85169 0.0
C800 C 0.05736 0.90882 0.90574 0.0
C801 C 0.04463 0.9281 0.9201 0.0
C802 C 0.04118 0.9454 0.87937 0.0
C803 C 0.05595 0.88809 0.94355 0.0
C804 C 0.03411 0.8789 0.95682 0.0
C805 C 0.07536 0.87685 0.96439 0.0
C806 C 0.09886 0.88596 0.95266 0.0
C807 C 0.10544 0.90896 0.96685 0.0
C808 C 0.12763 0.91741 0.95569 0.0
C809 C 0.14345 0.90298 0.93065 0.0
C810 C 0.13713 0.88005 0.91686 0.0
C811 C 0.11495 0.87152 0.92792 0.0
H812 H 0.16063 0.90955 0.92207 0.0
H813 H 0.94616 0.82559 0.03471 0.0
H814 H 0.69102 0.03988 0.16907 0.0
H815 H 0.65737 0.05097 0.11754 0.0
H816 H 0.69922 0.08285 0.98421 0.0
H817 H 0.73337 0.07466 0.03982 0.0
H818 H 0.66311 0.10572 0.99141 0.0
H819 H 0.67577 0.02419 0.97729 0.0
H820 H 0.68193 0.9846 0.01255 0.0
H821 H 0.61765 0.98402 0.10096 0.0
H822 H 0.61118 0.02368 0.06655 0.0
H823 H 0.5958 0.06642 0.74701 0.0
H824 H 0.623 0.07933 0.82214 0.0
H825 H 0.57056 0.07032 0.95154 0.0
H826 H 0.54312 0.05803 0.87588 0.0
H827 H 0.60838 0.0396 0.95552 0.0
H828 H 0.59431 0.12036 0.94792 0.0
H829 H 0.58948 0.1582 0.90105 0.0
H830 H 0.65831 0.15796 0.8387 0.0
H831 H 0.66348 0.11994 0.88445 0.0
C832 C 0.6934 0.05008 0.13014 0.0
C833 C 0.71533 0.05619 0.10894 0.0
C834 C 0.6739 0.05599 0.09986 0.0
C835 C 0.67567 0.067 0.04587 0.0
C836 C 0.69736 0.07406 0.02548 0.0
C837 C 0.71697 0.06896 0.05698 0.0
C838 C 0.65505 0.06967 0.00918 0.0
C839 C 0.65122 0.09122 0.98326 0.0
C840 C 0.63926 0.05086 0.99912 0.0
C841 C 0.64313 0.027 0.01992 0.0
C842 C 0.66302 0.01567 0.00455 0.0
C843 C 0.66654 0.9932 0.02429 0.0
C844 C 0.6502 0.98181 0.05904 0.0
C845 C 0.63028 0.99285 0.07401 0.0
C846 C 0.62667 0.01532 0.05438 0.0
C847 C 0.58985 0.06843 0.79107 0.0
C848 C 0.56748 0.06148 0.80601 0.0
C849 C 0.60534 0.07581 0.83391 0.0
C850 C 0.59874 0.07578 0.89227 0.0
C851 C 0.57585 0.07069 0.9066 0.0
C852 C 0.56021 0.06376 0.86349 0.0
C853 C 0.61657 0.07551 0.93759 0.0
C854 C 0.62001 0.05424 0.96471 0.0
C855 C 0.63225 0.09432 0.94702 0.0
C856 C 0.62922 0.11719 0.91934 0.0
C857 C 0.60836 0.12826 0.92378 0.0
C858 C 0.60558 0.14977 0.8975 0.0
C859 C 0.62357 0.16046 0.86683 0.0
C860 C 0.64439 0.14966 0.86247 0.0
C861 C 0.64727 0.12814 0.88865 0.0
H862 H 0.62138 0.17712 0.84654 0.0
H863 H 0.65296 0.96442 0.07428 0.0
H864 H 0.47053 0.69342 0.16221 0.0
H865 H 0.45933 0.66131 0.09732 0.0
H866 H 0.50611 0.68846 0.96807 0.0
H867 H 0.51707 0.72063 0.03219 0.0
H868 H 0.4683 0.67281 0.91752 0.0
H869 H 0.52154 0.64056 0.05918 0.0
H870 H 0.53471 0.63087 0.15765 0.0
H871 H 0.47005 0.59668 0.19341 0.0
H872 H 0.45676 0.60557 0.0944 0.0
H873 H 0.51687 0.58366 0.76531 0.0
H874 H 0.50606 0.61511 0.82831 0.0
H875 H 0.45348 0.57083 0.90472 0.0
H876 H 0.46426 0.53888 0.84083 0.0
H877 H 0.48207 0.59309 0.98565 0.0
H878 H 0.43793 0.61436 0.8236 0.0
H879 H 0.42955 0.62199 0.72079 0.0
H880 H 0.47973 0.67808 0.72015 0.0
H881 H 0.48891 0.67042 0.82247 0.0
C882 C 0.47829 0.69258 0.11976 0.0
C883 C 0.49473 0.7095 0.10234 0.0
C884 C 0.47191 0.67421 0.08281 0.0
C885 C 0.48211 0.67228 0.02812 0.0
C886 C 0.49793 0.68961 0.00996 0.0
C887 C 0.50417 0.70804 0.04662 0.0
C888 C 0.47732 0.65178 0.99047 0.0
C889 C 0.47128 0.65536 0.9323 0.0
C890 C 0.48037 0.62892 0.01026 0.0
C891 C 0.48809 0.62396 0.06992 0.0
C892 C 0.51011 0.6311 0.08825 0.0
C893 C 0.51761 0.62572 0.14405 0.0
C894 C 0.50313 0.61346 0.18206 0.0
C895 C 0.4812 0.60628 0.16404 0.0
C896 C 0.47373 0.61134 0.10799 0.0
C897 C 0.5029 0.58055 0.79524 0.0
C898 C 0.49154 0.55871 0.79855 0.0
C899 C 0.49659 0.59866 0.83084 0.0
C900 C 0.47881 0.59538 0.87072 0.0
C901 C 0.46714 0.57371 0.87382 0.0
C902 C 0.4733 0.55553 0.83743 0.0
C903 C 0.47412 0.61425 0.91202 0.0
C904 C 0.47834 0.6104 0.97102 0.0
C905 C 0.46973 0.6369 0.89261 0.0
C906 C 0.46417 0.64173 0.83092 0.0
C907 C 0.44733 0.62821 0.80149 0.0
C908 C 0.44244 0.63254 0.74322 0.0
C909 C 0.45411 0.65049 0.71394 0.0
C910 C 0.47066 0.6642 0.74293 0.0
C911 C 0.47574 0.65985 0.80107 0.0
H912 H 0.45033 0.65379 0.66881 0.0
H913 H 0.50895 0.6094 0.22531 0.0
H914 H 0.83896 0.42558 0.16117 0.0
H915 H 0.87188 0.41342 0.10578 0.0
H916 H 0.84305 0.44152 0.95015 0.0
H917 H 0.81074 0.45492 0.00525 0.0
H918 H 0.86463 0.39551 0.93895 0.0
H919 H 0.87919 0.47543 0.00865 0.0
H920 H 0.88361 0.50599 0.08306 0.0
H921 H 0.93199 0.46558 0.17464 0.0
H922 H 0.9279 0.43482 0.10037 0.0
H923 H 0.9444 0.43527 0.73608 0.0
H924 H 0.91506 0.4222 0.80347 0.0
H925 H 0.96554 0.4183 0.93956 0.0
H926 H 0.99486 0.43301 0.87257 0.0
H927 H 0.93538 0.44312 0.97538 0.0
H928 H 0.92973 0.36916 0.88904 0.0
H929 H 0.92757 0.33968 0.81163 0.0
H930 H 0.86397 0.36578 0.75297 0.0
H931 H 0.86588 0.39565 0.82945 0.0
C932 C 0.83956 0.42922 0.11517 0.0
C933 C 0.82221 0.44151 0.08797 0.0
C934 C 0.85829 0.42202 0.08356 0.0
C935 C 0.8598 0.42658 0.02403 0.0
C936 C 0.84201 0.43765 0.99604 0.0
C937 C 0.82348 0.44523 0.02772 0.0
C938 C 0.88089 0.42206 0.99182 0.0
C939 C 0.88022 0.40578 0.94664 0.0
C940 C 0.90135 0.43485 0.00364 0.0
C941 C 0.90301 0.45276 0.04956 0.0
C942 C 0.89056 0.47297 0.04504 0.0
C943 C 0.89311 0.49038 0.08698 0.0
C944 C 0.90803 0.48771 0.13367 0.0
C945 C 0.92042 0.46761 0.13851 0.0
C946 C 0.91803 0.45022 0.09646 0.0
C947 C 0.94942 0.43093 0.77986 0.0
C948 C 0.97188 0.43546 0.79928 0.0
C949 C 0.93257 0.42321 0.8185 0.0
C950 C 0.93794 0.41913 0.87695 0.0
C951 C 0.96086 0.42147 0.89487 0.0
C952 C 0.97764 0.42982 0.85656 0.0
C953 C 0.91935 0.41681 0.92054 0.0
C954 C 0.9203 0.43201 0.96818 0.0
C955 C 0.89933 0.40272 0.91117 0.0
C956 C 0.898 0.38473 0.86502 0.0
C957 C 0.91534 0.36872 0.85944 0.0
C958 C 0.91415 0.35192 0.81572 0.0
C959 C 0.89565 0.35087 0.77739 0.0
C960 C 0.87828 0.3666 0.78274 0.0
C961 C 0.87939 0.38344 0.82637 0.0
H962 H 0.89477 0.33785 0.74356 0.0
H963 H 0.91007 0.50124 0.166 0.0
H964 H 0.11508 0.21898 0.04541 0.0
H965 H 0.10748 0.19247 0.96354 0.0
H966 H 0.03679 0.18581 0.01363 0.0
H967 H 0.04437 0.21239 0.09482 0.0
H968 H 0.05927 0.14435 0.01408 0.0
H969 H 0.04917 0.20948 0.88822 0.0
H970 H 0.06027 0.24656 0.84143 0.0
H971 H 0.11833 0.21545 0.7652 0.0
H972 H 0.10776 0.17824 0.81225 0.0
H973 H 0.01958 0.08799 0.7314 0.0
H974 H 0.03004 0.12272 0.78736 0.0
H975 H 0.08354 0.08631 0.87238 0.0
H976 H 0.07329 0.05134 0.81582 0.0
H977 H 0.07046 0.15004 0.80147 0.0
H978 H 0.07985 0.10308 0.01976 0.0
H979 H 0.06701 0.06681 0.06806 0.0
H980 H 0.00704 0.06308 0.96068 0.0
H981 H 0.01933 0.09952 0.91248 0.0
C982 C 0.09773 0.21277 0.03687 0.0
C983 C 0.08018 0.21798 0.07534 0.0
C984 C 0.09343 0.19751 0.99054 0.0
C985 C 0.07159 0.18714 0.98277 0.0
C986 C 0.05373 0.1937 0.01881 0.0
C987 C 0.05798 0.20906 0.06468 0.0
C988 C 0.06802 0.16713 0.94305 0.0
C989 C 0.06172 0.14562 0.96758 0.0
C990 C 0.07141 0.16879 0.88255 0.0
C991 C 0.0778 0.19114 0.85428 0.0
C992 C 0.06443 0.2106 0.86195 0.0
C993 C 0.0706 0.23163 0.83527 0.0
C994 C 0.09003 0.23338 0.8005 0.0
C995 C 0.1033 0.21408 0.79222 0.0
C996 C 0.09722 0.19301 0.81884 0.0
C997 C 0.03368 0.08736 0.76175 0.0
C998 C 0.04543 0.06682 0.76982 0.0
C999 C 0.03975 0.10731 0.79329 0.0
C1000 C 0.05743 0.10702 0.83425 0.0
C1001 C 0.06975 0.08681 0.84109 0.0
C1002 C 0.0639 0.06688 0.80882 0.0
C1003 C 0.06164 0.12734 0.87266 0.0
C1004 C 0.06817 0.14882 0.84803 0.0
C1005 C 0.05834 0.12576 0.93324 0.0
C1006 C 0.05072 0.10382 0.96187 0.0
C1007 C 0.06393 0.09451 0.00646 0.0
C1008 C 0.05674 0.07394 0.03387 0.0
C1009 C 0.03629 0.06258 0.01723 0.0
C1010 C 0.02294 0.07183 0.97331 0.0
C1011 C 0.03004 0.09242 0.94587 0.0
H1012 H 0.03075 0.04665 0.03849 0.0
H1013 H 0.09478 0.24967 0.77987 0.0
H1014 H 0.30025 0.97481 0.04271 0.0
H1015 H 0.32387 0.98467 0.9588 0.0
H1016 H 0.32186 0.05716 0.00356 0.0
H1017 H 0.29861 0.04708 0.08884 0.0
H1018 H 0.32644 0.00973 0.86307 0.0
H1019 H 0.37548 0.08144 0.98719 0.0
H1020 H 0.38226 0.09565 0.08702 0.0
H1021 H 0.37065 0.02669 0.15267 0.0
H1022 H 0.36384 0.01209 0.05329 0.0
H1023 H 0.45059 0.0571 0.77947 0.0
H1024 H 0.41411 0.06216 0.82843 0.0
H1025 H 0.39967 0.98843 0.81932 0.0
H1026 H 0.43567 0.98326 0.76993 0.0
H1027 H 0.40004 0.04566 0.93044 0.0
H1028 H 0.34403 0.97582 0.80813 0.0
H1029 H 0.34021 0.95988 0.70914 0.0
H1030 H 0.36846 0.02349 0.63894 0.0
H1031 H 0.37215 0.03995 0.73738 0.0
C1032 C 0.30398 0.99292 0.033 0.0
C1033 C 0.29758 0.01021 0.07183 0.0
C1034 C 0.3176 0.99857 0.98521 0.0
C1035 C 0.32515 0.02161 0.97557 0.0
C1036 C 0.3166 0.03921 0.01071 0.0
C1037 C 0.30304 0.03351 0.05892 0.0
C1038 C 0.34428 0.02635 0.93451 0.0
C1039 C 0.34251 0.01767 0.87766 0.0
C1040 C 0.36516 0.03722 0.95295 0.0
C1041 C 0.36885 0.04578 0.01297 0.0
C1042 C 0.37432 0.06935 0.02301 0.0
C1043 C 0.37816 0.07746 0.07949 0.0
C1044 C 0.37677 0.0621 0.1262 0.0
C1045 C 0.37156 0.03859 0.11652 0.0
C1046 C 0.36766 0.03039 0.06014 0.0
C1047 C 0.43956 0.04199 0.78749 0.0
C1048 C 0.44612 0.01977 0.77069 0.0
C1049 C 0.4187 0.04492 0.81544 0.0
C1050 C 0.40394 0.02573 0.82673 0.0
C1051 C 0.41047 0.00359 0.8099 0.0
C1052 C 0.43123 0.00064 0.78202 0.0
C1053 C 0.38243 0.02838 0.85961 0.0
C1054 C 0.3838 0.03838 0.91501 0.0
C1055 C 0.36128 0.01861 0.83987 0.0
C1056 C 0.35848 0.00907 0.78029 0.0
C1057 C 0.34925 0.98649 0.77157 0.0
C1058 C 0.34716 0.97734 0.71555 0.0
C1059 C 0.35415 0.99064 0.66783 0.0
C1060 C 0.36312 0.01318 0.67598 0.0
C1061 C 0.36524 0.02242 0.73189 0.0
H1062 H 0.35265 0.98349 0.62457 0.0
H1063 H 0.37984 0.0684 0.16987 0.0
H1064 H 0.43599 0.26353 0.03214 0.0
H1065 H 0.42983 0.28818 0.94718 0.0
H1066 H 0.50264 0.30064 0.93275 0.0
H1067 H 0.50863 0.27539 0.01497 0.0
H1068 H 0.43708 0.33123 0.9452 0.0
H1069 H 0.52084 0.3199 0.80993 0.0
H1070 H 0.54287 0.28786 0.77143 0.0
H1071 H 0.48366 0.24203 0.78161 0.0
H1072 H 0.46114 0.27386 0.81936 0.0
H1073 H 0.48332 0.43731 0.84748 0.0
H1074 H 0.4716 0.3997 0.8888 0.0
H1075 H 0.4676 0.37016 0.71664 0.0
H1076 H 0.48078 0.40749 0.67609 0.0
H1077 H 0.48794 0.34246 0.77569 0.0
H1078 H 0.4185 0.37742 0.80821 0.0
H1079 H 0.39174 0.40714 0.83738 0.0
H1080 H 0.41365 0.40133 0.01439 0.0
H1081 H 0.4408 0.37183 0.98622 0.0
C1082 C 0.45062 0.27062 0.00872 0.0
C1083 C 0.47278 0.26758 0.02981 0.0
C1084 C 0.44712 0.28495 0.96068 0.0
C1085 C 0.46574 0.2964 0.9332 0.0
C1086 C 0.48793 0.29174 0.95183 0.0
C1087 C 0.49139 0.27732 0.99916 0.0
C1088 C 0.46237 0.31573 0.89156 0.0
C1089 C 0.44795 0.33352 0.90758 0.0
C1090 C 0.47582 0.31851 0.84102 0.0
C1091 C 0.48929 0.29932 0.8177 0.0
C1092 C 0.51244 0.30305 0.80354 0.0
C1093 C 0.52504 0.2849 0.78196 0.0
C1094 C 0.51468 0.26292 0.77414 0.0
C1095 C 0.49168 0.25905 0.78782 0.0
C1096 C 0.479 0.27714 0.8094 0.0
C1097 C 0.47945 0.42284 0.81867 0.0
C1098 C 0.48272 0.42515 0.75883 0.0
C1099 C 0.47261 0.40134 0.84212 0.0
C1100 C 0.46835 0.38195 0.80593 0.0
C1101 C 0.47078 0.3847 0.74568 0.0
C1102 C 0.47815 0.40604 0.72245 0.0
C1103 C 0.46365 0.35849 0.8314 0.0
C1104 C 0.47659 0.33997 0.81231 0.0
C1105 C 0.44809 0.35469 0.87753 0.0
C1106 C 0.43179 0.37245 0.89498 0.0
C1107 C 0.41773 0.38258 0.85331 0.0
C1108 C 0.40247 0.39938 0.86968 0.0
C1109 C 0.40101 0.40613 0.92769 0.0
C1110 C 0.41479 0.39607 0.96947 0.0
C1111 C 0.43009 0.37927 0.95333 0.0
H1112 H 0.38918 0.41914 0.94028 0.0
H1113 H 0.52447 0.24889 0.75746 0.0
H1114 H 0.22762 0.57569 0.05933 0.0
H1115 H 0.20526 0.56054 0.97722 0.0
H1116 H 0.22971 0.49223 0.00958 0.0
H1117 H 0.25172 0.50729 0.09285 0.0
H1118 H 0.20694 0.53595 0.87688 0.0
H1119 H 0.18313 0.45532 0.01191 0.0
H1120 H 0.18457 0.44205 0.11355 0.0
H1121 H 0.17946 0.51217 0.17294 0.0
H1122 H 0.17765 0.52577 0.07178 0.0
H1123 H 0.1162 0.47799 0.7199 0.0
H1124 H 0.15223 0.48418 0.77248 0.0
H1125 H 0.11523 0.5051 0.92395 0.0
H1126 H 0.0793 0.49817 0.87257 0.0
H1127 H 0.14836 0.48068 0.95688 0.0
H1128 H 0.14092 0.54435 0.82231 0.0
H1129 H 0.137 0.56211 0.72574 0.0
H1130 H 0.19993 0.53328 0.67225 0.0
H1131 H 0.20406 0.51506 0.76832 0.0
C1132 C 0.22883 0.5576 0.04765 0.0
C1133 C 0.24105 0.54258 0.08298 0.0
C1134 C 0.21612 0.54896 0.00055 0.0
C1135 C 0.21541 0.52516 0.98808 0.0
C1136 C 0.2298 0.51062 0.01897 0.0
C1137 C 0.2425 0.51927 0.06629 0.0
C1138 C 0.19677 0.51532 0.95069 0.0
C1139 C 0.1943 0.52358 0.89389 0.0
C1140 C 0.17998 0.49959 0.97337 0.0
C1141 C 0.18056 0.49155 0.03435 0.0
C1142 C 0.18225 0.46787 0.04672 0.0
C1143 C 0.18313 0.4603 0.10422 0.0
C1144 C 0.1822 0.47627 0.14967 0.0
C1145 C 0.18026 0.49983 0.13772 0.0
C1146 C 0.1793 0.50747 0.08033 0.0
C1147 C 0.11574 0.48362 0.76467 0.0
C1148 C 0.09484 0.48768 0.79194 0.0
C1149 C 0.13638 0.48729 0.79456 0.0
C1150 C 0.13653 0.49552 0.85191 0.0
C1151 C 0.11563 0.49876 0.87974 0.0
C1152 C 0.09503 0.49479 0.85024 0.0
C1153 C 0.15823 0.50151 0.883 0.0
C1154 C 0.16126 0.49254 0.93891 0.0
C1155 C 0.17512 0.51712 0.85995 0.0
C1156 C 0.17265 0.5281 0.80225 0.0
C1157 C 0.15383 0.54164 0.7898 0.0
C1158 C 0.15159 0.55181 0.73518 0.0
C1159 C 0.16817 0.54876 0.69282 0.0
C1160 C 0.18707 0.53558 0.70506 0.0
C1161 C 0.18937 0.52533 0.75958 0.0
H1162 H 0.16641 0.55665 0.65057 0.0
H1163 H 0.18294 0.47038 0.19413 0.0
H1164 H 0.97115 0.74909 0.2968 0.0
H1165 H 0.95831 0.77111 0.38072 0.0
H1166 H 0.02815 0.79185 0.41968 0.0
H1167 H 0.04093 0.76917 0.33779 0.0
H1168 H 0.00455 0.79367 0.51513 0.0
H1169 H 0.99548 0.82067 0.31526 0.0
H1170 H 0.97973 0.81793 0.21594 0.0
H1171 H 0.9117 0.8167 0.28383 0.0
H1172 H 0.92704 0.81919 0.3836 0.0
H1173 H 0.99676 0.92433 0.48605 0.0
H1174 H 0.99183 0.88558 0.44587 0.0
H1175 H 0.96783 0.85996 0.61126 0.0
H1176 H 0.97347 0.89888 0.65268 0.0
H1177 H 0.95899 0.85543 0.42801 0.0
H1178 H 0.98584 0.80412 0.62714 0.0
H1179 H 0.00699 0.80988 0.71914 0.0
H1180 H 0.04802 0.86464 0.64175 0.0
H1181 H 0.02728 0.859 0.54922 0.0
C1182 C 0.98378 0.7573 0.32528 0.0
C1183 C 0.00698 0.75785 0.31038 0.0
C1184 C 0.97643 0.77009 0.37287 0.0
C1185 C 0.9922 0.78384 0.40525 0.0
C1186 C 0.01559 0.78164 0.39512 0.0
C1187 C 0.02292 0.76868 0.34816 0.0
C1188 C 0.98482 0.80365 0.44094 0.0
C1189 C 0.99417 0.80696 0.49663 0.0
C1190 C 0.97156 0.82124 0.41664 0.0
C1191 C 0.96237 0.81981 0.35677 0.0
C1192 C 0.97716 0.8197 0.30895 0.0
C1193 C 0.96833 0.81819 0.25263 0.0
C1194 C 0.94475 0.81707 0.24361 0.0
C1195 C 0.92995 0.81751 0.2909 0.0
C1196 C 0.93869 0.81895 0.34732 0.0
C1197 C 0.99018 0.91059 0.51395 0.0
C1198 C 0.98577 0.91474 0.57285 0.0
C1199 C 0.98726 0.88836 0.49075 0.0
C1200 C 0.97973 0.86972 0.52564 0.0
C1201 C 0.97404 0.87398 0.5837 0.0
C1202 C 0.97717 0.89627 0.60723 0.0
C1203 C 0.97947 0.84584 0.50122 0.0
C1204 C 0.96861 0.84178 0.44766 0.0
C1205 C 0.99204 0.82797 0.52658 0.0
C1206 C 0.0048 0.83134 0.58166 0.0
C1207 C 0.9994 0.81736 0.62983 0.0
C1208 C 0.01131 0.8206 0.68202 0.0
C1209 C 0.02877 0.83769 0.68636 0.0
C1210 C 0.03443 0.85148 0.63841 0.0
C1211 C 0.0226 0.84828 0.58611 0.0
H1212 H 0.03794 0.84019 0.72682 0.0
H1213 H 0.93796 0.81592 0.19996 0.0
H1214 H 0.74055 0.05814 0.31998 0.0
H1215 H 0.72013 0.0431 0.40418 0.0
H1216 H 0.73602 0.9734 0.35489 0.0
H1217 H 0.75572 0.98856 0.26872 0.0
H1218 H 0.69334 0.97522 0.36184 0.0
H1219 H 0.75113 0.99722 0.49303 0.0
H1220 H 0.78184 0.02121 0.53885 0.0
H1221 H 0.73384 0.0725 0.58367 0.0
H1222 H 0.70287 0.04902 0.53737 0.0
H1223 H 0.61922 0.98122 0.64788 0.0
H1224 H 0.65659 0.97897 0.60178 0.0
H1225 H 0.62736 0.9999 0.43905 0.0
H1226 H 0.59005 0.00153 0.4841 0.0
H1227 H 0.68324 0.01052 0.55568 0.0
H1228 H 0.65276 0.97862 0.32609 0.0
H1229 H 0.62372 0.95137 0.28447 0.0
H1230 H 0.62104 0.91334 0.44427 0.0
H1231 H 0.65031 0.94015 0.48663 0.0
C1232 C 0.74048 0.03968 0.32843 0.0
C1233 C 0.74943 0.02449 0.28751 0.0
C1234 C 0.72887 0.03104 0.37691 0.0
C1235 C 0.72632 0.00702 0.38602 0.0
C1236 C 0.7376 0.99198 0.34869 0.0
C1237 C 0.74909 0.00066 0.29975 0.0
C1238 C 0.7085 0.99794 0.4268 0.0
C1239 C 0.69138 0.98266 0.40464 0.0
C1240 C 0.7061 0.00702 0.48344 0.0
C1241 C 0.72464 0.02132 0.51154 0.0
C1242 C 0.74712 0.01368 0.51233 0.0
C1243 C 0.76459 0.02719 0.53845 0.0
C1244 C 0.7598 0.04837 0.56414 0.0
C1245 C 0.73752 0.05608 0.56382 0.0
C1246 C 0.71999 0.04264 0.53775 0.0
C1247 C 0.62071 0.98505 0.60207 0.0
C1248 C 0.60157 0.99148 0.56966 0.0
C1249 C 0.64211 0.98381 0.57584 0.0
C1250 C 0.6448 0.98894 0.51672 0.0
C1251 C 0.62569 0.99527 0.48436 0.0
C1252 C 0.60431 0.99633 0.51034 0.0
C1253 C 0.66766 0.98905 0.48893 0.0
C1254 C 0.68559 0.00261 0.51357 0.0
C1255 C 0.67112 0.97789 0.43518 0.0
C1256 C 0.65369 0.96149 0.40964 0.0
C1257 C 0.64611 0.96435 0.35225 0.0
C1258 C 0.62957 0.949 0.32855 0.0
C1259 C 0.62052 0.93066 0.36173 0.0
C1260 C 0.62802 0.9276 0.41866 0.0
C1261 C 0.64457 0.94288 0.44256 0.0
H1262 H 0.6077 0.91881 0.34331 0.0
H1263 H 0.77335 0.05881 0.58432 0.0
H1264 H 0.56251 0.73742 0.28162 0.0
H1265 H 0.57478 0.71164 0.35921 0.0
H1266 H 0.50444 0.69406 0.3988 0.0
H1267 H 0.49224 0.71987 0.32191 0.0
H1268 H 0.53202 0.68921 0.49498 0.0
H1269 H 0.52843 0.66751 0.29237 0.0
H1270 H 0.53866 0.67343 0.1898 0.0
H1271 H 0.60913 0.6639 0.2308 0.0
H1272 H 0.5994 0.65895 0.33423 0.0
H1273 H 0.5341 0.55786 0.46616 0.0
H1274 H 0.53709 0.59593 0.4212 0.0
H1275 H 0.57368 0.62301 0.57071 0.0
H1276 H 0.5702 0.58496 0.617 0.0
H1277 H 0.56879 0.62617 0.38754 0.0
H1278 H 0.55598 0.67706 0.59808 0.0
H1279 H 0.54153 0.66982 0.69711 0.0
H1280 H 0.49535 0.61633 0.63227 0.0
H1281 H 0.50935 0.62341 0.53284 0.0
C1282 C 0.54974 0.72898 0.30899 0.0
C1283 C 0.52648 0.73034 0.29569 0.0
C1284 C 0.55674 0.71419 0.35312 0.0
C1285 C 0.54051 0.70058 0.38389 0.0
C1286 C 0.51725 0.70434 0.37557 0.0
C1287 C 0.51028 0.71904 0.33153 0.0
C1288 C 0.54713 0.67921 0.41421 0.0
C1289 C 0.54048 0.6756 0.47198 0.0
C1290 C 0.55748 0.66113 0.38353 0.0
C1291 C 0.56324 0.6632 0.32112 0.0
C1292 C 0.54613 0.66687 0.27961 0.0
C1293 C 0.55184 0.67013 0.22136 0.0
C1294 C 0.57453 0.66904 0.20378 0.0
C1295 C 0.59156 0.66478 0.24451 0.0
C1296 C 0.58598 0.66187 0.30301 0.0
C1297 C 0.54315 0.57175 0.48925 0.0
C1298 C 0.55163 0.56838 0.54561 0.0
C1299 C 0.5449 0.59356 0.46332 0.0
C1300 C 0.55525 0.61245 0.49299 0.0
C1301 C 0.56524 0.60878 0.54747 0.0
C1302 C 0.56333 0.58697 0.57374 0.0
C1303 C 0.55376 0.63612 0.46849 0.0
C1304 C 0.56112 0.64006 0.41143 0.0
C1305 C 0.54333 0.65415 0.49921 0.0
C1306 C 0.53393 0.65058 0.55825 0.0
C1307 C 0.54265 0.66386 0.60496 0.0
C1308 C 0.53457 0.65975 0.66113 0.0
C1309 C 0.51768 0.64249 0.671 0.0
C1310 C 0.50854 0.62957 0.6246 0.0
C1311 C 0.51654 0.63363 0.56835 0.0
H1312 H 0.51168 0.63911 0.71459 0.0
H1313 H 0.57891 0.67144 0.1586 0.0
H1314 H 0.7948 0.51796 0.24268 0.0
H1315 H 0.81642 0.53348 0.32657 0.0
H1316 H 0.82609 0.4638 0.38674 0.0
H1317 H 0.80455 0.44844 0.30352 0.0
H1318 H 0.82485 0.49518 0.47783 0.0
H1319 H 0.85992 0.48736 0.2876 0.0
H1320 H 0.86137 0.49684 0.1837 0.0
H1321 H 0.87446 0.56872 0.22479 0.0
H1322 H 0.87183 0.55977 0.32928 0.0
H1323 H 0.93397 0.47062 0.56698 0.0
H1324 H 0.89775 0.47522 0.51786 0.0
H1325 H 0.91305 0.54845 0.49867 0.0
H1326 H 0.94977 0.54402 0.54825 0.0
H1327 H 0.89761 0.5276 0.39717 0.0
H1328 H 0.87217 0.53207 0.59127 0.0
H1329 H 0.86923 0.52114 0.69431 0.0
H1330 H 0.83951 0.4547 0.64647 0.0
H1331 H 0.84257 0.46507 0.54308 0.0
C1332 C 0.8007 0.50612 0.27535 0.0
C1333 C 0.79827 0.48207 0.26682 0.0
C1334 C 0.81307 0.51495 0.32308 0.0
C1335 C 0.82317 0.49976 0.36233 0.0
C1336 C 0.81847 0.47584 0.35707 0.0
C1337 C 0.80625 0.46705 0.30945 0.0
C1338 C 0.84203 0.50781 0.40129 0.0
C1339 C 0.8407 0.5025 0.46051 0.0
C1340 C 0.86259 0.51777 0.37871 0.0
C1341 C 0.86534 0.52296 0.31616 0.0
C1342 C 0.86295 0.50521 0.2745 0.0
C1343 C 0.86391 0.5105 0.21548 0.0
C1344 C 0.86807 0.53338 0.19757 0.0
C1345 C 0.8712 0.55102 0.23873 0.0
C1346 C 0.86982 0.54587 0.29786 0.0
C1347 C 0.92973 0.48778 0.55258 0.0
C1348 C 0.94486 0.50696 0.56155 0.0
C1349 C 0.90886 0.4904 0.52489 0.0
C1350 C 0.90251 0.51224 0.5055 0.0
C1351 C 0.91756 0.53148 0.51385 0.0
C1352 C 0.93851 0.5289 0.54209 0.0
C1353 C 0.8807 0.51423 0.47352 0.0
C1354 C 0.88154 0.52122 0.41535 0.0
C1355 C 0.85977 0.50566 0.49707 0.0
C1356 C 0.85766 0.49935 0.5593 0.0
C1357 C 0.86512 0.51507 0.60267 0.0
C1358 C 0.86342 0.50898 0.66117 0.0
C1359 C 0.8542 0.48724 0.67693 0.0
C1360 C 0.84662 0.47155 0.6342 0.0
C1361 C 0.8483 0.47755 0.57563 0.0
H1362 H 0.85291 0.48255 0.72224 0.0
H1363 H 0.86888 0.53745 0.15183 0.0
loop_
_geom_bond_atom_site_label_1
_geom_bond_atom_site_label_2
_geom_bond_distance
_geom_bond_site_symmetry_2
_ccdc_geom_bond_type
H0 C3 0.931 . S
H1 C6 0.928 . S
H2 C8 0.930 . S
C3 H0 0.931 . S
C3 C4 1.413 . S
C3 C5 1.360 1_554 S
C4 C3 1.413 . S
C4 C8 1.429 . S
C5 C3 1.360 1_556 S
C5 C6 1.372 . S
C6 H1 0.928 . S
C6 C5 1.372 . S
C6 C7 1.404 1_556 S
C7 C6 1.404 1_554 S
C7 C8 1.391 . S
C8 H2 0.930 . S
C8 C4 1.429 . S
C8 C7 1.391 . S
H9 C12 0.931 . S
H10 C15 0.928 . S
H11 C17 0.930 . S
C12 H9 0.931 . S
C12 C13 1.413 . S
C12 C14 1.360 . S
C13 C12 1.413 . S
C13 C17 1.429 . S
C14 C12 1.360 . S
C14 C15 1.372 . S
C15 H10 0.928 . S
C15 C14 1.372 . S
C15 C16 1.404 . S
C16 C15 1.404 . S
C16 C17 1.391 . S
C17 H11 0.930 . S
C17 C13 1.429 . S
C17 C16 1.391 . S
H18 C21 0.931 . S
H19 C24 0.928 1_556 S
H20 C26 0.930 1_545 S
C21 H18 0.931 . S
C21 C22 1.413 . S
C21 C23 1.360 . S
C22 C21 1.413 . S
C22 C26 1.430 . S
C23 C21 1.360 . S
C23 C24 1.373 . S
C24 H19 0.928 1_554 S
C24 C23 1.373 . S
C24 C25 1.404 . S
C25 C24 1.404 . S
C25 C26 1.390 . S
C26 H20 0.930 1_565 S
C26 C22 1.430 . S
C26 C25 1.390 . S
H27 C30 0.931 . S
H28 C33 0.928 . S
H29 C35 0.930 . S
C30 H27 0.931 . S
C30 C31 1.413 . S
C30 C32 1.360 . S
C31 C30 1.413 . S
C31 C35 1.429 1_554 S
C32 C30 1.360 . S
C32 C33 1.372 . S
C33 H28 0.928 . S
C33 C32 1.372 . S
C33 C34 1.404 . S
C34 C33 1.404 . S
C34 C35 1.391 1_554 S
C35 H29 0.930 . S
C35 C31 1.429 1_556 S
C35 C34 1.391 1_556 S
H36 C39 0.931 . S
H37 C42 0.928 . S
H38 C44 0.930 . S
C39 H36 0.931 . S
C39 C40 1.413 . S
C39 C41 1.360 . S
C40 C39 1.413 . S
C40 C44 1.429 . S
C41 C39 1.360 . S
C41 C42 1.372 . S
C42 H37 0.928 . S
C42 C41 1.372 . S
C42 C43 1.404 . S
C43 C42 1.404 . S
C43 C44 1.391 . S
C44 H38 0.930 . S
C44 C40 1.429 . S
C44 C43 1.391 . S
H45 C48 0.931 . S
H46 C51 0.928 . S
H47 C53 0.930 . S
C48 H45 0.931 . S
C48 C49 1.413 . S
C48 C50 1.360 . S
C49 C48 1.413 . S
C49 C53 1.429 . S
C50 C48 1.360 . S
C50 C51 1.372 . S
C51 H46 0.928 . S
C51 C50 1.372 . S
C51 C52 1.404 . S
C52 C51 1.404 . S
C52 C53 1.391 . S
C53 H47 0.930 . S
C53 C49 1.429 . S
C53 C52 1.391 . S
H54 C57 0.930 . S
H55 C60 0.928 . S
H56 C62 0.929 . S
C57 H54 0.930 . S
C57 C58 1.413 . S
C57 C59 1.360 . S
C58 C57 1.413 . S
C58 C62 1.429 1_565 S
C59 C57 1.360 . S
C59 C60 1.372 . S
C60 H55 0.928 . S
C60 C59 1.372 . S
C60 C61 1.404 . S
C61 C60 1.404 . S
C61 C62 1.391 1_565 S
C62 H56 0.929 . S
C62 C58 1.429 1_545 S
C62 C61 1.391 1_545 S
H63 C66 0.931 . S
H64 C69 0.928 . S
H65 C71 0.930 . S
C66 H63 0.931 . S
C66 C67 1.413 . S
C66 C68 1.360 . S
C67 C66 1.413 . S
C67 C71 1.429 . S
C68 C66 1.360 . S
C68 C69 1.372 . S
C69 H64 0.928 . S
C69 C68 1.372 . S
C69 C70 1.404 . S
C70 C69 1.404 . S
C70 C71 1.391 . S
C71 H65 0.930 . S
C71 C67 1.429 . S
C71 C70 1.391 . S
O72 Zn73 1.954 . S
O72 C88 1.233 . S
Zn73 O72 1.954 . S
Zn73 O74 1.948 . S
Zn73 O80 1.884 1_565 S
Zn73 O85 1.967 . S
O74 Zn73 1.948 . S
O74 Zn75 1.902 1_565 S
O74 Zn76 1.953 . S
O74 Zn77 1.962 . S
Zn75 O74 1.902 1_545 S
Zn75 O78 1.933 1_455 S
Zn75 O81 1.941 . S
Zn75 O82 1.965 . S
Zn76 O74 1.953 . S
Zn76 O83 1.938 1_565 S
Zn76 O84 1.906 . S
Zn76 O94 1.953 . S
Zn77 O74 1.962 . S
Zn77 O79 1.932 1_455 S
Zn77 O86 1.977 . S
Zn77 O87 1.910 . S
O78 Zn75 1.933 1_655 S
O78 C89 1.226 . S
O79 Zn77 1.932 1_655 S
O79 C89 1.307 1_565 S
O80 Zn73 1.884 1_545 S
O80 C91 1.253 . S
O81 Zn75 1.941 . S
O81 C91 1.283 . S
O82 Zn75 1.965 . S
O82 C90 1.303 . S
O83 Zn76 1.938 1_545 S
O83 C90 1.247 . S
O84 Zn76 1.906 . S
O84 C92 1.304 . S
O85 Zn73 1.967 . S
O85 C93 1.311 . S
O86 Zn77 1.977 . S
O86 C92 1.272 . S
O87 Zn77 1.910 . S
O87 C93 1.231 . S
C88 O72 1.233 . S
C88 O94 1.298 . S
C89 O78 1.226 . S
C89 O79 1.307 1_545 S
C90 O82 1.303 . S
C90 O83 1.247 . S
C91 O80 1.253 . S
C91 O81 1.283 . S
C92 O84 1.304 . S
C92 O86 1.272 . S
C93 O85 1.311 . S
C93 O87 1.231 . S
O94 Zn76 1.953 . S
O94 C88 1.298 . S
O95 Zn96 1.953 . S
O95 C111 1.225 . S
Zn96 O95 1.953 . S
Zn96 O97 1.949 . S
Zn96 O103 1.919 . S
Zn96 O108 1.924 . S
O97 Zn96 1.949 . S
O97 Zn98 1.923 1_545 S
O97 Zn99 1.950 . S
O97 Zn100 1.945 1_545 S
Zn98 O97 1.923 1_565 S
Zn98 O101 1.933 . S
Zn98 O104 1.941 . S
Zn98 O105 1.965 . S
Zn99 O97 1.950 . S
Zn99 O106 1.938 . S
Zn99 O107 1.888 1_545 S
Zn99 O117 1.953 . S
Zn100 O97 1.945 1_565 S
Zn100 O102 1.932 . S
Zn100 O109 1.977 . S
Zn100 O110 1.910 1_565 S
O101 Zn98 1.933 . S
O101 C112 1.226 . S
O102 Zn100 1.932 . S
O102 C112 1.307 . S
O103 Zn96 1.919 . S
O103 C114 1.253 . S
O104 Zn98 1.941 . S
O104 C114 1.283 1_565 S
O105 Zn98 1.965 . S
O105 C113 1.303 . S
O106 Zn99 1.938 . S
O106 C113 1.247 1_545 S
O107 Zn99 1.888 1_565 S
O107 C115 1.331 . S
O108 Zn96 1.924 . S
O108 C116 1.311 . S
O109 Zn100 1.977 . S
O109 C115 1.272 . S
O110 Zn100 1.910 1_545 S
O110 C116 1.231 . S
C111 O95 1.225 . S
C111 O117 1.298 . S
C112 O101 1.226 . S
C112 O102 1.307 . S
C113 O105 1.303 . S
C113 O106 1.247 1_565 S
C114 O103 1.253 . S
C114 O104 1.283 1_545 S
C115 O107 1.331 . S
C115 O109 1.272 . S
C116 O108 1.311 . S
C116 O110 1.231 . S
O117 Zn99 1.953 . S
O117 C111 1.298 . S
O118 Zn119 1.953 . S
O118 C134 1.225 . S
Zn119 O118 1.953 . S
Zn119 O120 1.949 . S
Zn119 O126 1.919 . S
Zn119 O131 1.924 . S
O120 Zn119 1.949 . S
O120 Zn121 1.923 . S
O120 Zn122 1.950 . S
O120 Zn123 1.945 . S
Zn121 O120 1.923 . S
Zn121 O124 1.933 . S
Zn121 O127 1.941 . S
Zn121 O128 1.965 . S
Zn122 O120 1.950 . S
Zn122 O129 1.938 . S
Zn122 O130 1.906 . S
Zn122 O140 1.953 . S
Zn123 O120 1.945 . S
Zn123 O125 1.932 . S
Zn123 O132 1.977 . S
Zn123 O133 1.910 . S
O124 Zn121 1.933 . S
O124 C135 1.226 . S
O125 Zn123 1.932 . S
O125 C135 1.307 . S
O126 Zn119 1.919 . S
O126 C137 1.253 . S
O127 Zn121 1.941 . S
O127 C137 1.283 . S
O128 Zn121 1.965 . S
O128 C136 1.303 . S
O129 Zn122 1.938 . S
O129 C136 1.247 . S
O130 Zn122 1.906 . S
O130 C138 1.304 . S
O131 Zn119 1.924 . S
O131 C139 1.311 . S
O132 Zn123 1.977 . S
O132 C138 1.272 . S
O133 Zn123 1.910 . S
O133 C139 1.231 . S
C134 O118 1.225 . S
C134 O140 1.298 . S
C135 O124 1.226 . S
C135 O125 1.307 . S
C136 O128 1.303 . S
C136 O129 1.247 . S
C137 O126 1.253 . S
C137 O127 1.283 . S
C138 O130 1.304 . S
C138 O132 1.272 . S
C139 O131 1.311 . S
C139 O133 1.231 . S
O140 Zn122 1.953 . S
O140 C134 1.298 . S
O141 Zn142 1.953 1_655 S
O141 C157 1.225 . S
Zn142 O141 1.953 1_455 S
Zn142 O143 1.949 . S
Zn142 O149 1.919 . S
Zn142 O154 1.924 . S
O143 Zn142 1.949 . S
O143 Zn144 1.923 . S
O143 Zn145 1.950 1_455 S
O143 Zn146 1.945 . S
Zn144 O143 1.923 . S
Zn144 O147 1.933 . S
Zn144 O150 1.941 . S
Zn144 O151 1.965 1_455 S
Zn145 O143 1.950 1_655 S
Zn145 O152 1.938 . S
Zn145 O153 1.906 1_655 S
Zn145 O163 1.953 . S
Zn146 O143 1.945 . S
Zn146 O148 1.932 . S
Zn146 O155 1.977 . S
Zn146 O156 1.910 . S
O147 Zn144 1.933 . S
O147 C158 1.226 . S
O148 Zn146 1.932 . S
O148 C158 1.307 . S
O149 Zn142 1.919 . S
O149 C160 1.253 . S
O150 Zn144 1.941 . S
O150 C160 1.283 . S
O151 Zn144 1.965 1_655 S
O151 C159 1.303 . S
O152 Zn145 1.938 . S
O152 C159 1.247 . S
O153 Zn145 1.906 1_455 S
O153 C161 1.304 . S
O154 Zn142 1.924 . S
O154 C162 1.311 . S
O155 Zn146 1.977 . S
O155 C161 1.272 . S
O156 Zn146 1.910 . S
O156 C162 1.231 . S
C157 O141 1.225 . S
C157 O163 1.298 . S
C158 O147 1.226 . S
C158 O148 1.307 . S
C159 O151 1.303 . S
C159 O152 1.247 . S
C160 O149 1.253 . S
C160 O150 1.283 . S
C161 O153 1.304 . S
C161 O155 1.272 . S
C162 O154 1.311 . S
C162 O156 1.231 . S
O163 Zn145 1.953 . S
O163 C157 1.298 . S
H164 C182 0.951 . S
H165 C184 0.951 . S
H166 C186 0.950 . S
H167 C187 0.950 . S
H168 C189 0.950 . S
H169 C192 0.950 . S
H170 C193 0.950 . S
H171 C195 0.950 . S
H172 C196 0.950 . S
H173 C197 0.951 . S
H174 C199 0.951 . S
H175 C201 0.950 . S
H176 C202 0.950 . S
H177 C204 0.950 . S
H178 C207 0.950 . S
H179 C208 0.950 . S
H180 C210 0.950 . S
H181 C211 0.950 . S
C182 H164 0.951 . S
C182 C183 1.371 . S
C182 C184 1.388 . S
C183 C182 1.371 . S
C183 C187 1.380 1_565 S
C184 H165 0.951 . S
C184 C182 1.388 . S
C184 C185 1.366 . S
C185 C184 1.366 . S
C185 C186 1.414 1_565 S
C185 C188 1.499 . S
C186 H166 0.950 . S
C186 C185 1.414 1_545 S
C186 C187 1.374 . S
C187 H167 0.950 . S
C187 C183 1.380 1_545 S
C187 C186 1.374 . S
C188 C185 1.499 . S
C188 C189 1.373 1_565 S
C188 C190 1.389 . S
C189 H168 0.950 . S
C189 C188 1.373 1_545 S
C189 C205 1.377 . S
C190 C188 1.389 . S
C190 C191 1.524 . S
C190 C204 1.377 . S
C191 C190 1.524 . S
C191 C192 1.397 . S
C191 C196 1.363 . S
C192 H169 0.950 . S
C192 C191 1.397 . S
C192 C193 1.334 . S
C193 H170 0.950 . S
C193 C192 1.334 . S
C193 C194 1.287 . S
C194 C193 1.287 . S
C194 C195 1.524 . S
C194 H213 0.913 . S
C195 H171 0.950 . S
C195 C194 1.524 . S
C195 C196 1.415 . S
C196 H172 0.950 . S
C196 C191 1.363 . S
C196 C195 1.415 . S
C197 H173 0.951 . S
C197 C198 1.366 1_545 S
C197 C199 1.388 . S
C198 C197 1.366 1_565 S
C198 C202 1.385 . S
C199 H174 0.951 . S
C199 C197 1.388 . S
C199 C200 1.366 1_545 S
C200 C199 1.366 1_565 S
C200 C201 1.414 . S
C200 C203 1.499 . S
C201 H175 0.950 . S
C201 C200 1.414 . S
C201 C202 1.374 . S
C202 H176 0.950 . S
C202 C198 1.385 . S
C202 C201 1.374 . S
C203 C200 1.499 . S
C203 C204 1.373 . S
C203 C205 1.389 1_565 S
C204 H177 0.950 . S
C204 C190 1.377 . S
C204 C203 1.373 . S
C205 C189 1.377 . S
C205 C203 1.389 1_545 S
C205 C206 1.524 . S
C206 C205 1.524 . S
C206 C207 1.397 . S
C206 C211 1.363 . S
C207 H178 0.950 . S
C207 C206 1.397 . S
C207 C208 1.334 . S
C208 H179 0.950 . S
C208 C207 1.334 . S
C208 C209 1.287 . S
C209 C208 1.287 . S
C209 C210 1.524 . S
C209 H212 0.999 . S
C210 H180 0.950 . S
C210 C209 1.524 . S
C210 C211 1.415 . S
C211 H181 0.950 . S
C211 C206 1.363 . S
C211 C210 1.415 . S
H212 C209 0.999 . S
H213 C194 0.913 . S
H214 C232 0.951 . S
H215 C234 0.951 . S
H216 C236 0.950 . S
H217 C237 0.950 . S
H218 C239 0.950 . S
H219 C242 0.950 . S
H220 C243 0.950 . S
H221 C245 0.950 . S
H222 C246 0.950 . S
H223 C247 0.951 . S
H224 C249 0.951 . S
H225 C251 0.950 . S
H226 C252 0.950 . S
H227 C254 0.950 . S
H228 C257 0.950 . S
H229 C258 0.950 . S
H230 C260 0.950 . S
H231 C261 0.950 . S
C232 H214 0.951 . S
C232 C233 1.366 . S
C232 C234 1.388 . S
C233 C232 1.366 . S
C233 C237 1.385 . S
C234 H215 0.951 . S
C234 C232 1.388 . S
C234 C235 1.366 . S
C235 C234 1.366 . S
C235 C236 1.414 . S
C235 C238 1.499 . S
C236 H216 0.950 . S
C236 C235 1.414 . S
C236 C237 1.374 . S
C237 H217 0.950 . S
C237 C233 1.385 . S
C237 C236 1.374 . S
C238 C235 1.499 . S
C238 C239 1.373 . S
C238 C240 1.389 . S
C239 H218 0.950 . S
C239 C238 1.373 . S
C239 C255 1.377 . S
C240 C238 1.389 . S
C240 C241 1.524 . S
C240 C254 1.377 . S
C241 C240 1.524 . S
C241 C242 1.397 . S
C241 C246 1.363 . S
C242 H219 0.950 . S
C242 C241 1.397 . S
C242 C243 1.334 . S
C243 H220 0.950 . S
C243 C242 1.334 . S
C243 C244 1.287 . S
C244 C243 1.287 . S
C244 C245 1.524 . S
C244 H263 0.913 . S
C245 H221 0.950 . S
C245 C244 1.524 . S
C245 C246 1.415 . S
C246 H222 0.950 . S
C246 C241 1.363 . S
C246 C245 1.415 . S
C247 H223 0.951 . S
C247 C248 1.366 . S
C247 C249 1.388 . S
C248 C247 1.366 . S
C248 C252 1.385 . S
C249 H224 0.951 . S
C249 C247 1.388 . S
C249 C250 1.366 . S
C250 C249 1.366 . S
C250 C251 1.414 . S
C250 C253 1.499 . S
C251 H225 0.950 . S
C251 C250 1.414 . S
C251 C252 1.374 . S
C252 H226 0.950 . S
C252 C248 1.385 . S
C252 C251 1.374 . S
C253 C250 1.499 . S
C253 C254 1.373 . S
C253 C255 1.389 . S
C254 H227 0.950 . S
C254 C240 1.377 . S
C254 C253 1.373 . S
C255 C239 1.377 . S
C255 C253 1.389 . S
C255 C256 1.524 . S
C256 C255 1.524 . S
C256 C257 1.397 . S
C256 C261 1.363 . S
C257 H228 0.950 . S
C257 C256 1.397 . S
C257 C258 1.334 . S
C258 H229 0.950 . S
C258 C257 1.334 . S
C258 C259 1.287 . S
C259 C258 1.287 . S
C259 C260 1.524 . S
C259 H262 0.999 . S
C260 H230 0.950 . S
C260 C259 1.524 . S
C260 C261 1.415 . S
C261 H231 0.950 . S
C261 C256 1.363 . S
C261 C260 1.415 . S
H262 C259 0.999 . S
H263 C244 0.913 . S
H264 C282 0.951 . S
H265 C284 0.951 . S
H266 C286 0.950 . S
H267 C287 0.950 . S
H268 C289 0.950 . S
H269 C292 0.950 . S
H270 C293 0.950 . S
H271 C295 0.950 . S
H272 C296 0.950 . S
H273 C297 0.951 . S
H274 C299 0.951 . S
H275 C301 0.950 . S
H276 C302 0.950 . S
H277 C304 0.950 . S
H278 C307 0.950 . S
H279 C308 0.950 . S
H280 C310 0.950 . S
H281 C311 0.950 . S
C282 H264 0.951 . S
C282 C283 1.366 . S
C282 C284 1.388 . S
C283 C282 1.366 . S
C283 C287 1.385 . S
C284 H265 0.951 . S
C284 C282 1.388 . S
C284 C285 1.366 . S
C285 C284 1.366 . S
C285 C286 1.414 . S
C285 C288 1.499 . S
C286 H266 0.950 . S
C286 C285 1.414 . S
C286 C287 1.374 . S
C287 H267 0.950 . S
C287 C283 1.385 . S
C287 C286 1.374 . S
C288 C285 1.499 . S
C288 C289 1.373 . S
C288 C290 1.389 . S
C289 H268 0.950 . S
C289 C288 1.373 . S
C289 C305 1.377 . S
C290 C288 1.389 . S
C290 C291 1.524 . S
C290 C304 1.377 . S
C291 C290 1.524 . S
C291 C292 1.397 . S
C291 C296 1.363 . S
C292 H269 0.950 . S
C292 C291 1.397 . S
C292 C293 1.334 . S
C293 H270 0.950 . S
C293 C292 1.334 . S
C293 C294 1.287 . S
C294 C293 1.287 . S
C294 C295 1.524 . S
C294 H313 0.913 . S
C295 H271 0.950 . S
C295 C294 1.524 . S
C295 C296 1.415 . S
C296 H272 0.950 . S
C296 C291 1.363 . S
C296 C295 1.415 . S
C297 H273 0.951 . S
C297 C298 1.366 . S
C297 C299 1.388 . S
C298 C297 1.366 . S
C298 C302 1.385 . S
C299 H274 0.951 . S
C299 C297 1.388 . S
C299 C300 1.366 . S
C300 C299 1.366 . S
C300 C301 1.414 . S
C300 C303 1.499 . S
C301 H275 0.950 . S
C301 C300 1.414 . S
C301 C302 1.374 . S
C302 H276 0.950 . S
C302 C298 1.385 . S
C302 C301 1.374 . S
C303 C300 1.499 . S
C303 C304 1.373 . S
C303 C305 1.389 . S
C304 H277 0.950 . S
C304 C290 1.377 . S
C304 C303 1.373 . S
C305 C289 1.377 . S
C305 C303 1.389 . S
C305 C306 1.524 . S
C306 C305 1.524 . S
C306 C307 1.397 . S
C306 C311 1.363 . S
C307 H278 0.950 . S
C307 C306 1.397 . S
C307 C308 1.334 . S
C308 H279 0.950 . S
C308 C307 1.334 . S
C308 C309 1.287 . S
C309 C308 1.287 . S
C309 C310 1.524 . S
C309 H312 0.999 . S
C310 H280 0.950 . S
C310 C309 1.524 . S
C310 C311 1.415 . S
C311 H281 0.950 . S
C311 C306 1.363 . S
C311 C310 1.415 . S
H312 C309 0.999 . S
H313 C294 0.913 . S
H314 C332 0.951 . S
H315 C334 0.951 . S
H316 C336 0.950 . S
H317 C337 0.950 . S
H318 C339 0.950 . S
H319 C342 0.950 . S
H320 C343 0.950 . S
H321 C345 0.950 . S
H322 C346 0.950 . S
H323 C347 0.951 . S
H324 C349 0.951 . S
H325 C351 0.950 . S
H326 C352 0.950 . S
H327 C354 0.950 . S
H328 C357 0.950 . S
H329 C358 0.950 . S
H330 C360 0.950 . S
H331 C361 0.950 . S
C332 H314 0.951 . S
C332 C333 1.366 . S
C332 C334 1.388 . S
C333 C332 1.366 . S
C333 C337 1.385 . S
C334 H315 0.951 . S
C334 C332 1.388 . S
C334 C335 1.366 . S
C335 C334 1.366 . S
C335 C336 1.414 . S
C335 C338 1.499 . S
C336 H316 0.950 . S
C336 C335 1.414 . S
C336 C337 1.374 . S
C337 H317 0.950 . S
C337 C333 1.385 . S
C337 C336 1.374 . S
C338 C335 1.499 . S
C338 C339 1.373 . S
C338 C340 1.389 . S
C339 H318 0.950 . S
C339 C338 1.373 . S
C339 C355 1.377 . S
C340 C338 1.389 . S
C340 C341 1.524 . S
C340 C354 1.377 . S
C341 C340 1.524 . S
C341 C342 1.397 . S
C341 C346 1.363 . S
C342 H319 0.950 . S
C342 C341 1.397 . S
C342 C343 1.334 . S
C343 H320 0.950 . S
C343 C342 1.334 . S
C343 C344 1.287 . S
C344 C343 1.287 . S
C344 C345 1.524 . S
C344 H363 0.913 . S
C345 H321 0.950 . S
C345 C344 1.524 . S
C345 C346 1.415 . S
C346 H322 0.950 . S
C346 C341 1.363 . S
C346 C345 1.415 . S
C347 H323 0.951 . S
C347 C348 1.366 . S
C347 C349 1.388 . S
C348 C347 1.366 . S
C348 C352 1.385 . S
C349 H324 0.951 . S
C349 C347 1.388 . S
C349 C350 1.366 . S
C350 C349 1.366 . S
C350 C351 1.414 . S
C350 C353 1.499 . S
C351 H325 0.950 . S
C351 C350 1.414 . S
C351 C352 1.374 . S
C352 H326 0.950 . S
C352 C348 1.385 . S
C352 C351 1.374 . S
C353 C350 1.499 . S
C353 C354 1.373 . S
C353 C355 1.389 . S
C354 H327 0.950 . S
C354 C340 1.377 . S
C354 C353 1.373 . S
C355 C339 1.377 . S
C355 C353 1.389 . S
C355 C356 1.524 . S
C356 C355 1.524 . S
C356 C357 1.397 . S
C356 C361 1.363 . S
C357 H328 0.950 . S
C357 C356 1.397 . S
C357 C358 1.334 . S
C358 H329 0.950 . S
C358 C357 1.334 . S
C358 C359 1.287 . S
C359 C358 1.287 . S
C359 C360 1.524 . S
C359 H362 0.999 . S
C360 H330 0.950 . S
C360 C359 1.524 . S
C360 C361 1.415 . S
C361 H331 0.950 . S
C361 C356 1.363 . S
C361 C360 1.415 . S
H362 C359 0.999 . S
H363 C344 0.913 . S
H364 C382 0.951 . S
H365 C384 0.951 . S
H366 C386 0.950 . S
H367 C387 0.950 . S
H368 C389 0.950 . S
H369 C392 0.950 . S
H370 C393 0.950 . S
H371 C395 0.950 . S
H372 C396 0.950 . S
H373 C397 0.951 . S
H374 C399 0.947 1_565 S
H375 C401 0.950 . S
H376 C402 0.950 . S
H377 C404 0.950 . S
H378 C407 0.950 . S
H379 C408 0.950 . S
H380 C410 0.950 . S
H381 C411 0.950 . S
C382 H364 0.951 . S
C382 C383 1.367 . S
C382 C384 1.388 . S
C383 C382 1.367 . S
C383 C387 1.383 1_544 S
C384 H365 0.951 . S
C384 C382 1.388 . S
C384 C385 1.366 1_554 S
C385 C384 1.366 1_556 S
C385 C386 1.414 1_545 S
C385 C388 1.499 . S
C386 H366 0.950 . S
C386 C385 1.414 1_565 S
C386 C387 1.374 . S
C387 H367 0.950 . S
C387 C383 1.383 1_566 S
C387 C386 1.374 . S
C388 C385 1.499 . S
C388 C389 1.373 1_545 S
C388 C390 1.389 . S
C389 H368 0.950 . S
C389 C388 1.373 1_565 S
C389 C405 1.377 . S
C390 C388 1.389 . S
C390 C391 1.524 . S
C390 C404 1.377 . S
C391 C390 1.524 . S
C391 C392 1.397 . S
C391 C396 1.363 1_556 S
C392 H369 0.950 . S
C392 C391 1.397 . S
C392 C393 1.334 . S
C393 H370 0.950 . S
C393 C392 1.334 . S
C393 C394 1.287 1_556 S
C394 C393 1.287 1_554 S
C394 C395 1.524 . S
C394 H413 0.913 . S
C395 H371 0.950 . S
C395 C394 1.524 . S
C395 C396 1.415 . S
C396 H372 0.950 . S
C396 C391 1.363 1_554 S
C396 C395 1.415 . S
C397 H373 0.951 . S
C397 C398 1.366 . S
C397 C399 1.388 . S
C398 C397 1.366 . S
C398 C402 1.385 . S
C399 H374 0.947 1_545 S
C399 C397 1.388 . S
C399 C400 1.366 . S
C400 C399 1.366 . S
C400 C401 1.414 . S
C400 C403 1.499 . S
C401 H375 0.950 . S
C401 C400 1.414 . S
C401 C402 1.374 . S
C402 H376 0.950 . S
C402 C398 1.385 . S
C402 C401 1.374 . S
C403 C400 1.499 . S
C403 C404 1.373 . S
C403 C405 1.389 1_545 S
C404 H377 0.950 . S
C404 C390 1.377 . S
C404 C403 1.373 . S
C405 C389 1.377 . S
C405 C403 1.389 1_565 S
C405 C406 1.524 . S
C406 C405 1.524 . S
C406 C407 1.397 . S
C406 C411 1.363 . S
C407 H378 0.950 . S
C407 C406 1.397 . S
C407 C408 1.334 . S
C408 H379 0.950 . S
C408 C407 1.334 . S
C408 C409 1.287 . S
C409 C408 1.287 . S
C409 C410 1.524 . S
C409 H412 0.999 . S
C410 H380 0.950 . S
C410 C409 1.524 . S
C410 C411 1.415 . S
C411 H381 0.950 . S
C411 C406 1.363 . S
C411 C410 1.415 . S
H412 C409 0.999 . S
H413 C394 0.913 . S
H414 C432 0.951 . S
H415 C434 0.951 . S
H416 C436 0.950 . S
H417 C437 0.950 . S
H418 C439 0.950 . S
H419 C442 0.950 . S
H420 C443 0.950 . S
H421 C445 0.950 . S
H422 C446 0.950 . S
H423 C447 0.951 . S
H424 C449 0.951 . S
H425 C451 0.950 . S
H426 C452 0.950 . S
H427 C454 0.950 . S
H428 C457 0.950 . S
H429 C458 0.950 . S
H430 C460 0.933 1_554 S
H431 C461 0.939 1_554 S
C432 H414 0.951 . S
C432 C433 1.366 1_556 S
C432 C434 1.388 . S
C433 C432 1.366 1_554 S
C433 C437 1.385 . S
C434 H415 0.951 . S
C434 C432 1.388 . S
C434 C435 1.366 . S
C435 C434 1.366 . S
C435 C436 1.414 1_556 S
C435 C438 1.499 . S
C436 H416 0.950 . S
C436 C435 1.414 1_554 S
C436 C437 1.374 . S
C437 H417 0.950 . S
C437 C433 1.385 . S
C437 C436 1.374 . S
C438 C435 1.499 . S
C438 C439 1.373 . S
C438 C440 1.389 . S
C439 H418 0.950 . S
C439 C438 1.373 . S
C439 C455 1.377 . S
C440 C438 1.389 . S
C440 C441 1.524 . S
C440 C454 1.377 . S
C441 C440 1.524 . S
C441 C442 1.397 . S
C441 C446 1.363 . S
C442 H419 0.950 . S
C442 C441 1.397 . S
C442 C443 1.334 . S
C443 H420 0.950 . S
C443 C442 1.334 . S
C443 C444 1.287 . S
C444 C443 1.287 . S
C444 C445 1.524 . S
C444 H463 0.913 . S
C445 H421 0.950 . S
C445 C444 1.524 . S
C445 C446 1.415 . S
C446 H422 0.950 . S
C446 C441 1.363 . S
C446 C445 1.415 . S
C447 H423 0.951 . S
C447 C448 1.366 . S
C447 C449 1.388 . S
C448 C447 1.366 . S
C448 C452 1.385 . S
C449 H424 0.951 . S
C449 C447 1.388 . S
C449 C450 1.366 . S
C450 C449 1.366 . S
C450 C451 1.414 . S
C450 C453 1.499 . S
C451 H425 0.950 . S
C451 C450 1.414 . S
C451 C452 1.374 . S
C452 H426 0.950 . S
C452 C448 1.385 . S
C452 C451 1.374 . S
C453 C450 1.499 . S
C453 C454 1.373 . S
C453 C455 1.389 . S
C454 H427 0.950 . S
C454 C440 1.377 . S
C454 C453 1.373 . S
C455 C439 1.377 . S
C455 C453 1.389 . S
C455 C456 1.524 . S
C456 C455 1.524 . S
C456 C457 1.397 . S
C456 C461 1.363 . S
C457 H428 0.950 . S
C457 C456 1.397 . S
C457 C458 1.334 . S
C458 H429 0.950 . S
C458 C457 1.334 . S
C458 C459 1.287 . S
C459 C458 1.287 . S
C459 C460 1.536 . S
C459 H462 0.999 . S
C460 H430 0.933 1_556 S
C460 C459 1.536 . S
C460 C461 1.422 . S
C461 H431 0.939 1_556 S
C461 C456 1.363 . S
C461 C460 1.422 . S
H462 C459 0.999 . S
H463 C444 0.913 . S
H464 C482 0.951 . S
H465 C484 0.951 . S
H466 C486 0.950 . S
H467 C487 0.950 . S
H468 C489 0.950 . S
H469 C492 0.950 . S
H470 C493 0.950 . S
H471 C495 0.950 . S
H472 C496 0.950 . S
H473 C497 0.951 . S
H474 C499 0.951 . S
H475 C501 0.950 . S
H476 C502 0.950 . S
H477 C504 0.950 . S
H478 C507 0.950 . S
H479 C508 0.950 . S
H480 C510 0.950 1_554 S
H481 C511 0.950 . S
C482 H464 0.951 . S
C482 C483 1.365 1_556 S
C482 C484 1.388 . S
C483 C482 1.365 1_554 S
C483 C487 1.385 . S
C484 H465 0.951 . S
C484 C482 1.388 . S
C484 C485 1.366 . S
C485 C484 1.366 . S
C485 C486 1.414 . S
C485 C488 1.499 . S
C486 H466 0.950 . S
C486 C485 1.414 . S
C486 C487 1.374 1_556 S
C487 H467 0.950 . S
C487 C483 1.385 . S
C487 C486 1.374 1_554 S
C488 C485 1.499 . S
C488 C489 1.373 . S
C488 C490 1.389 . S
C489 H468 0.950 . S
C489 C488 1.373 . S
C489 C505 1.377 . S
C490 C488 1.389 . S
C490 C491 1.524 . S
C490 C504 1.377 . S
C491 C490 1.524 . S
C491 C492 1.397 . S
C491 C496 1.363 . S
C492 H469 0.950 . S
C492 C491 1.397 . S
C492 C493 1.334 . S
C493 H470 0.950 . S
C493 C492 1.334 . S
C493 C494 1.287 . S
C494 C493 1.287 . S
C494 C495 1.524 . S
C494 H513 0.913 . S
C495 H471 0.950 . S
C495 C494 1.524 . S
C495 C496 1.415 . S
C496 H472 0.950 . S
C496 C491 1.363 . S
C496 C495 1.415 . S
C497 H473 0.951 . S
C497 C498 1.366 . S
C497 C499 1.388 . S
C498 C497 1.366 . S
C498 C502 1.385 . S
C499 H474 0.951 . S
C499 C497 1.388 . S
C499 C500 1.366 . S
C500 C499 1.366 . S
C500 C501 1.414 . S
C500 C503 1.499 . S
C501 H475 0.950 . S
C501 C500 1.414 . S
C501 C502 1.374 . S
C502 H476 0.950 . S
C502 C498 1.385 . S
C502 C501 1.374 . S
C503 C500 1.499 . S
C503 C504 1.373 . S
C503 C505 1.389 . S
C504 H477 0.950 . S
C504 C490 1.377 . S
C504 C503 1.373 . S
C505 C489 1.377 . S
C505 C503 1.389 . S
C505 C506 1.524 . S
C506 C505 1.524 . S
C506 C507 1.397 . S
C506 C511 1.363 . S
C507 H478 0.950 . S
C507 C506 1.397 . S
C507 C508 1.334 . S
C508 H479 0.950 . S
C508 C507 1.334 . S
C508 C509 1.287 . S
C509 C508 1.287 . S
C509 C510 1.524 . S
C509 H512 0.999 . S
C510 H480 0.950 1_556 S
C510 C509 1.524 . S
C510 C511 1.415 . S
C511 H481 0.950 . S
C511 C506 1.363 . S
C511 C510 1.415 . S
H512 C509 0.999 . S
H513 C494 0.913 . S
H514 C532 0.951 . S
H515 C534 0.951 . S
H516 C536 0.950 . S
H517 C537 0.950 . S
H518 C539 0.950 . S
H519 C542 0.950 . S
H520 C543 0.950 . S
H521 C545 0.950 . S
H522 C546 0.950 . S
H523 C547 0.951 . S
H524 C549 0.951 . S
H525 C551 0.950 . S
H526 C552 0.950 . S
H527 C554 0.950 . S
H528 C557 0.950 . S
H529 C558 0.950 . S
H530 C560 0.950 . S
H531 C561 0.950 . S
C532 H514 0.951 . S
C532 C533 1.366 . S
C532 C534 1.388 . S
C533 C532 1.366 . S
C533 C537 1.385 1_655 S
C534 H515 0.951 . S
C534 C532 1.388 . S
C534 C535 1.366 1_554 S
C535 C534 1.366 1_556 S
C535 C536 1.414 1_655 S
C535 C538 1.498 1_655 S
C536 H516 0.950 . S
C536 C535 1.414 1_455 S
C536 C537 1.374 1_556 S
C537 H517 0.950 . S
C537 C533 1.385 1_455 S
C537 C536 1.374 1_554 S
C538 C535 1.498 1_455 S
C538 C539 1.374 . S
C538 C540 1.389 1_455 S
C539 H518 0.950 . S
C539 C538 1.374 . S
C539 C555 1.377 . S
C540 C538 1.389 1_655 S
C540 C541 1.524 1_556 S
C540 C554 1.377 . S
C541 C540 1.524 1_554 S
C541 C542 1.397 1_655 S
C541 C546 1.363 . S
C542 H519 0.950 . S
C542 C541 1.397 1_455 S
C542 C543 1.334 . S
C543 H520 0.950 . S
C543 C542 1.334 . S
C543 C544 1.287 1_455 S
C544 C543 1.287 1_655 S
C544 C545 1.524 . S
C544 H563 0.913 . S
C545 H521 0.950 . S
C545 C544 1.524 . S
C545 C546 1.415 . S
C546 H522 0.950 . S
C546 C541 1.363 . S
C546 C545 1.415 . S
C547 H523 0.951 . S
C547 C548 1.366 . S
C547 C549 1.388 . S
C548 C547 1.366 . S
C548 C552 1.385 1_455 S
C549 H524 0.951 . S
C549 C547 1.388 . S
C549 C550 1.366 . S
C550 C549 1.366 . S
C550 C551 1.414 1_455 S
C550 C553 1.499 . S
C551 H525 0.950 . S
C551 C550 1.414 1_655 S
C551 C552 1.374 . S
C552 H526 0.950 . S
C552 C548 1.385 1_655 S
C552 C551 1.374 . S
C553 C550 1.499 . S
C553 C554 1.373 1_455 S
C553 C555 1.389 . S
C554 H527 0.950 . S
C554 C540 1.377 . S
C554 C553 1.373 1_655 S
C555 C539 1.377 . S
C555 C553 1.389 . S
C555 C556 1.524 . S
C556 C555 1.524 . S
C556 C557 1.397 1_455 S
C556 C561 1.363 . S
C557 H528 0.950 . S
C557 C556 1.397 1_655 S
C557 C558 1.334 . S
C558 H529 0.950 . S
C558 C557 1.334 . S
C558 C559 1.287 1_655 S
C559 C558 1.287 1_455 S
C559 C560 1.524 . S
C559 H562 0.999 . S
C560 H530 0.950 . S
C560 C559 1.524 . S
C560 C561 1.415 . S
C561 H531 0.950 . S
C561 C556 1.363 . S
C561 C560 1.415 . S
H562 C559 0.999 . S
H563 C544 0.913 . S
H564 C582 0.951 . S
H565 C584 0.951 . S
H566 C586 0.950 . S
H567 C587 0.950 . S
H568 C589 0.950 . S
H569 C592 0.950 . S
H570 C593 0.950 . S
H571 C595 0.950 . S
H572 C596 0.950 . S
H573 C597 0.951 . S
H574 C599 0.951 . S
H575 C601 0.950 . S
H576 C602 0.950 . S
H577 C604 0.950 . S
H578 C607 0.950 . S
H579 C608 0.950 . S
H580 C610 0.950 . S
H581 C611 0.950 . S
C582 H564 0.951 . S
C582 C583 1.366 . S
C582 C584 1.388 . S
C583 C582 1.366 . S
C583 C587 1.385 . S
C584 H565 0.951 . S
C584 C582 1.388 . S
C584 C585 1.366 . S
C585 C584 1.366 . S
C585 C586 1.414 . S
C585 C588 1.499 . S
C586 H566 0.950 . S
C586 C585 1.414 . S
C586 C587 1.374 . S
C587 H567 0.950 . S
C587 C583 1.385 . S
C587 C586 1.374 . S
C588 C585 1.499 . S
C588 C589 1.373 . S
C588 C590 1.389 . S
C589 H568 0.950 . S
C589 C588 1.373 . S
C589 C605 1.377 . S
C590 C588 1.389 . S
C590 C591 1.524 . S
C590 C604 1.377 . S
C591 C590 1.524 . S
C591 C592 1.397 . S
C591 C596 1.363 . S
C592 H569 0.950 . S
C592 C591 1.397 . S
C592 C593 1.334 . S
C593 H570 0.950 . S
C593 C592 1.334 . S
C593 C594 1.287 . S
C594 C593 1.287 . S
C594 C595 1.524 . S
C594 H613 0.913 . S
C595 H571 0.950 . S
C595 C594 1.524 . S
C595 C596 1.415 . S
C596 H572 0.950 . S
C596 C591 1.363 . S
C596 C595 1.415 . S
C597 H573 0.951 . S
C597 C598 1.366 . S
C597 C599 1.388 . S
C598 C597 1.366 . S
C598 C602 1.385 . S
C599 H574 0.951 . S
C599 C597 1.388 . S
C599 C600 1.366 . S
C600 C599 1.366 . S
C600 C601 1.414 . S
C600 C603 1.499 . S
C601 H575 0.950 . S
C601 C600 1.414 . S
C601 C602 1.374 . S
C602 H576 0.950 . S
C602 C598 1.385 . S
C602 C601 1.374 . S
C603 C600 1.499 . S
C603 C604 1.373 . S
C603 C605 1.389 . S
C604 H577 0.950 . S
C604 C590 1.377 . S
C604 C603 1.373 . S
C605 C589 1.377 . S
C605 C603 1.389 . S
C605 C606 1.524 . S
C606 C605 1.524 . S
C606 C607 1.397 . S
C606 C611 1.363 . S
C607 H578 0.950 . S
C607 C606 1.397 . S
C607 C608 1.334 . S
C608 H579 0.950 . S
C608 C607 1.334 . S
C608 C609 1.287 1_455 S
C609 C608 1.287 1_655 S
C609 C610 1.524 . S
C609 H612 0.999 . S
C610 H580 0.950 . S
C610 C609 1.524 . S
C610 C611 1.415 1_655 S
C611 H581 0.950 . S
C611 C606 1.363 . S
C611 C610 1.415 1_455 S
H612 C609 0.999 . S
H613 C594 0.913 . S
H614 C632 0.951 . S
H615 C634 0.950 . S
H616 C636 0.950 . S
H617 C637 0.950 . S
H618 C639 0.950 . S
H619 C642 0.950 . S
H620 C643 0.950 . S
H621 C645 0.950 . S
H622 C646 0.950 . S
H623 C647 0.951 . S
H624 C649 0.951 . S
H625 C651 0.950 . S
H626 C652 0.950 . S
H627 C654 0.950 . S
H628 C657 0.950 . S
H629 C658 0.950 . S
H630 C660 0.950 . S
H631 C661 0.950 . S
C632 H614 0.951 . S
C632 C633 1.365 1_565 S
C632 C634 1.388 . S
C633 C632 1.365 1_545 S
C633 C637 1.385 . S
C634 H615 0.950 . S
C634 C632 1.388 . S
C634 C635 1.366 1_565 S
C635 C634 1.366 1_545 S
C635 C636 1.414 . S
C635 C638 1.498 . S
C636 H616 0.950 . S
C636 C635 1.414 . S
C636 C637 1.377 . S
C637 H617 0.950 . S
C637 C633 1.385 . S
C637 C636 1.377 . S
C638 C635 1.498 . S
C638 C639 1.355 1_545 S
C638 C640 1.405 . S
C639 H618 0.950 . S
C639 C638 1.355 1_565 S
C639 C655 1.377 . S
C640 C638 1.405 . S
C640 C641 1.524 . S
C640 C654 1.377 . S
C641 C640 1.524 . S
C641 C642 1.397 . S
C641 C646 1.363 . S
C642 H619 0.950 . S
C642 C641 1.397 . S
C642 C643 1.334 . S
C643 H620 0.950 . S
C643 C642 1.334 . S
C643 C644 1.287 . S
C644 C643 1.287 . S
C644 C645 1.524 . S
C644 H663 0.913 . S
C645 H621 0.950 . S
C645 C644 1.524 . S
C645 C646 1.415 . S
C646 H622 0.950 . S
C646 C641 1.363 . S
C646 C645 1.415 . S
C647 H623 0.951 . S
C647 C648 1.366 . S
C647 C649 1.388 . S
C648 C647 1.366 . S
C648 C652 1.385 . S
C649 H624 0.951 . S
C649 C647 1.388 . S
C649 C650 1.366 . S
C650 C649 1.366 . S
C650 C651 1.414 . S
C650 C653 1.499 . S
C651 H625 0.950 . S
C651 C650 1.414 . S
C651 C652 1.374 . S
C652 H626 0.950 . S
C652 C648 1.385 . S
C652 C651 1.374 . S
C653 C650 1.499 . S
C653 C654 1.373 1_565 S
C653 C655 1.389 . S
C654 H627 0.950 . S
C654 C640 1.377 . S
C654 C653 1.373 1_545 S
C655 C639 1.377 . S
C655 C653 1.389 . S
C655 C656 1.524 . S
C656 C655 1.524 . S
C656 C657 1.397 . S
C656 C661 1.363 . S
C657 H628 0.950 . S
C657 C656 1.397 . S
C657 C658 1.334 . S
C658 H629 0.950 . S
C658 C657 1.334 . S
C658 C659 1.287 . S
C659 C658 1.287 . S
C659 C660 1.524 . S
C659 H662 0.999 . S
C660 H630 0.950 . S
C660 C659 1.524 . S
C660 C661 1.415 . S
C661 H631 0.950 . S
C661 C656 1.363 . S
C661 C660 1.415 . S
H662 C659 0.999 . S
H663 C644 0.913 . S
H664 C682 0.951 . S
H665 C684 0.951 . S
H666 C686 0.950 . S
H667 C687 0.950 . S
H668 C689 0.950 . S
H669 C692 0.950 . S
H670 C693 0.950 . S
H671 C695 0.950 . S
H672 C696 0.950 . S
H673 C697 0.951 . S
H674 C699 0.951 . S
H675 C701 0.950 . S
H676 C702 0.950 . S
H677 C704 0.950 . S
H678 C707 0.950 . S
H679 C708 0.950 . S
H680 C710 0.950 . S
H681 C711 0.950 . S
C682 H664 0.951 . S
C682 C683 1.366 . S
C682 C684 1.388 . S
C683 C682 1.366 . S
C683 C687 1.385 . S
C684 H665 0.951 . S
C684 C682 1.388 . S
C684 C685 1.366 . S
C685 C684 1.366 . S
C685 C686 1.414 . S
C685 C688 1.499 . S
C686 H666 0.950 . S
C686 C685 1.414 . S
C686 C687 1.374 . S
C687 H667 0.950 . S
C687 C683 1.385 . S
C687 C686 1.374 . S
C688 C685 1.499 . S
C688 C689 1.373 . S
C688 C690 1.389 . S
C689 H668 0.950 . S
C689 C688 1.373 . S
C689 C705 1.377 . S
C690 C688 1.389 . S
C690 C691 1.524 . S
C690 C704 1.377 . S
C691 C690 1.524 . S
C691 C692 1.397 . S
C691 C696 1.363 . S
C692 H669 0.950 . S
C692 C691 1.397 . S
C692 C693 1.334 . S
C693 H670 0.950 . S
C693 C692 1.334 . S
C693 C694 1.287 . S
C694 C693 1.287 . S
C694 C695 1.524 . S
C694 H713 0.913 . S
C695 H671 0.950 . S
C695 C694 1.524 . S
C695 C696 1.415 . S
C696 H672 0.950 . S
C696 C691 1.363 . S
C696 C695 1.415 . S
C697 H673 0.951 . S
C697 C698 1.366 . S
C697 C699 1.388 . S
C698 C697 1.366 . S
C698 C702 1.385 . S
C699 H674 0.951 . S
C699 C697 1.388 . S
C699 C700 1.366 . S
C700 C699 1.366 . S
C700 C701 1.414 . S
C700 C703 1.499 . S
C701 H675 0.950 . S
C701 C700 1.414 . S
C701 C702 1.374 . S
C702 H676 0.950 . S
C702 C698 1.385 . S
C702 C701 1.374 . S
C703 C700 1.499 . S
C703 C704 1.373 . S
C703 C705 1.389 . S
C704 H677 0.950 . S
C704 C690 1.377 . S
C704 C703 1.373 . S
C705 C689 1.377 . S
C705 C703 1.389 . S
C705 C706 1.524 . S
C706 C705 1.524 . S
C706 C707 1.397 . S
C706 C711 1.363 . S
C707 H678 0.950 . S
C707 C706 1.397 . S
C707 C708 1.334 . S
C708 H679 0.950 . S
C708 C707 1.334 . S
C708 C709 1.287 . S
C709 C708 1.287 . S
C709 C710 1.524 . S
C709 H712 0.999 . S
C710 H680 0.950 . S
C710 C709 1.524 . S
C710 C711 1.415 . S
C711 H681 0.950 . S
C711 C706 1.363 . S
C711 C710 1.415 . S
H712 C709 0.999 . S
H713 C694 0.913 . S
H714 C732 0.951 . S
H715 C734 0.951 . S
H716 C736 0.950 . S
H717 C737 0.950 . S
H718 C739 0.950 . S
H719 C742 0.950 . S
H720 C743 0.950 . S
H721 C745 0.950 . S
H722 C746 0.950 . S
H723 C747 0.951 . S
H724 C749 0.951 . S
H725 C751 0.950 . S
H726 C752 0.950 . S
H727 C754 0.950 . S
H728 C757 0.950 . S
H729 C758 0.950 . S
H730 C760 0.950 . S
H731 C761 0.950 . S
C732 H714 0.951 . S
C732 C733 1.366 . S
C732 C734 1.388 . S
C733 C732 1.366 . S
C733 C737 1.385 . S
C734 H715 0.951 . S
C734 C732 1.388 . S
C734 C735 1.366 . S
C735 C734 1.366 . S
C735 C736 1.414 . S
C735 C738 1.499 . S
C736 H716 0.950 . S
C736 C735 1.414 . S
C736 C737 1.374 . S
C737 H717 0.950 . S
C737 C733 1.385 . S
C737 C736 1.374 . S
C738 C735 1.499 . S
C738 C739 1.373 . S
C738 C740 1.389 . S
C739 H718 0.950 . S
C739 C738 1.373 . S
C739 C755 1.377 . S
C740 C738 1.389 . S
C740 C741 1.524 . S
C740 C754 1.377 . S
C741 C740 1.524 . S
C741 C742 1.397 . S
C741 C746 1.363 . S
C742 H719 0.950 . S
C742 C741 1.397 . S
C742 C743 1.334 . S
C743 H720 0.950 . S
C743 C742 1.334 . S
C743 C744 1.287 . S
C744 C743 1.287 . S
C744 C745 1.524 . S
C744 H763 0.913 . S
C745 H721 0.950 . S
C745 C744 1.524 . S
C745 C746 1.415 . S
C746 H722 0.950 . S
C746 C741 1.363 . S
C746 C745 1.415 . S
C747 H723 0.951 . S
C747 C748 1.366 . S
C747 C749 1.388 . S
C748 C747 1.366 . S
C748 C752 1.385 . S
C749 H724 0.951 . S
C749 C747 1.388 . S
C749 C750 1.366 . S
C750 C749 1.366 . S
C750 C751 1.414 . S
C750 C753 1.499 . S
C751 H725 0.950 . S
C751 C750 1.414 . S
C751 C752 1.374 . S
C752 H726 0.950 . S
C752 C748 1.385 . S
C752 C751 1.374 . S
C753 C750 1.499 . S
C753 C754 1.373 . S
C753 C755 1.389 . S
C754 H727 0.950 . S
C754 C740 1.377 . S
C754 C753 1.373 . S
C755 C739 1.377 . S
C755 C753 1.389 . S
C755 C756 1.524 . S
C756 C755 1.524 . S
C756 C757 1.397 . S
C756 C761 1.363 . S
C757 H728 0.950 . S
C757 C756 1.397 . S
C757 C758 1.334 . S
C758 H729 0.950 . S
C758 C757 1.334 . S
C758 C759 1.287 . S
C759 C758 1.287 . S
C759 C760 1.524 . S
C759 H762 0.999 . S
C760 H730 0.950 . S
C760 C759 1.524 . S
C760 C761 1.415 . S
C761 H731 0.950 . S
C761 C756 1.363 . S
C761 C760 1.415 . S
H762 C759 0.999 . S
H763 C744 0.913 . S
H764 C782 0.951 . S
H765 C784 0.951 . S
H766 C786 0.950 . S
H767 C787 0.950 1_556 S
H768 C789 0.950 . S
H769 C792 0.950 . S
H770 C793 0.950 . S
H771 C795 0.950 . S
H772 C796 0.950 . S
H773 C797 0.951 . S
H774 C799 0.951 . S
H775 C801 0.950 . S
H776 C802 0.950 . S
H777 C804 0.950 1_655 S
H778 C807 0.950 . S
H779 C808 0.950 . S
H780 C810 0.950 . S
H781 C811 0.950 . S
C782 H764 0.951 . S
C782 C783 1.366 . S
C782 C784 1.388 . S
C783 C782 1.366 . S
C783 C787 1.385 1_655 S
C784 H765 0.951 . S
C784 C782 1.388 . S
C784 C785 1.366 1_654 S
C785 C784 1.366 1_456 S
C785 C786 1.414 . S
C785 C788 1.499 . S
C786 H766 0.950 . S
C786 C785 1.414 . S
C786 C787 1.374 1_556 S
C787 H767 0.950 1_554 S
C787 C783 1.385 1_455 S
C787 C786 1.374 1_554 S
C788 C785 1.499 . S
C788 C789 1.373 . S
C788 C790 1.389 1_455 S
C789 H768 0.950 . S
C789 C788 1.373 . S
C789 C805 1.377 . S
C790 C788 1.389 1_655 S
C790 C791 1.524 . S
C790 C804 1.377 1_655 S
C791 C790 1.524 . S
C791 C792 1.397 . S
C791 C796 1.363 . S
C792 H769 0.950 . S
C792 C791 1.397 . S
C792 C793 1.334 . S
C793 H770 0.950 . S
C793 C792 1.334 . S
C793 C794 1.287 . S
C794 C793 1.287 . S
C794 C795 1.524 . S
C794 H813 0.913 . S
C795 H771 0.950 . S
C795 C794 1.524 . S
C795 C796 1.415 . S
C796 H772 0.950 . S
C796 C791 1.363 . S
C796 C795 1.415 . S
C797 H773 0.951 . S
C797 C798 1.366 . S
C797 C799 1.388 . S
C798 C797 1.366 . S
C798 C802 1.385 . S
C799 H774 0.951 . S
C799 C797 1.388 . S
C799 C800 1.366 . S
C800 C799 1.366 . S
C800 C801 1.414 . S
C800 C803 1.499 . S
C801 H775 0.950 . S
C801 C800 1.414 . S
C801 C802 1.374 . S
C802 H776 0.950 . S
C802 C798 1.385 . S
C802 C801 1.374 . S
C803 C800 1.499 . S
C803 C804 1.373 . S
C803 C805 1.389 . S
C804 H777 0.950 1_455 S
C804 C790 1.377 1_455 S
C804 C803 1.373 . S
C805 C789 1.377 . S
C805 C803 1.389 . S
C805 C806 1.524 . S
C806 C805 1.524 . S
C806 C807 1.397 . S
C806 C811 1.363 . S
C807 H778 0.950 . S
C807 C806 1.397 . S
C807 C808 1.334 . S
C808 H779 0.950 . S
C808 C807 1.334 . S
C808 C809 1.287 . S
C809 C808 1.287 . S
C809 C810 1.524 . S
C809 H812 0.999 . S
C810 H780 0.950 . S
C810 C809 1.524 . S
C810 C811 1.415 . S
C811 H781 0.950 . S
C811 C806 1.363 . S
C811 C810 1.415 . S
H812 C809 0.999 . S
H813 C794 0.913 . S
H814 C832 0.951 . S
H815 C834 0.951 1_554 S
H816 C836 0.950 . S
H817 C837 0.950 . S
H818 C839 0.950 . S
H819 C842 0.950 . S
H820 C843 0.950 . S
H821 C845 0.950 . S
H822 C846 0.950 . S
H823 C847 0.951 . S
H824 C849 0.951 . S
H825 C851 0.972 . S
H826 C852 0.950 . S
H827 C854 0.950 . S
H828 C857 0.950 . S
H829 C858 0.950 . S
H830 C860 0.950 . S
H831 C861 0.950 . S
C832 H814 0.951 . S
C832 C833 1.366 . S
C832 C834 1.388 1_554 S
C833 C832 1.366 . S
C833 C837 1.385 1_564 S
C834 H815 0.951 1_556 S
C834 C832 1.388 1_556 S
C834 C835 1.366 1_565 S
C835 C834 1.366 1_545 S
C835 C836 1.414 . S
C835 C838 1.499 . S
C836 H816 0.950 . S
C836 C835 1.414 . S
C836 C837 1.374 . S
C837 H817 0.950 . S
C837 C833 1.385 1_546 S
C837 C836 1.374 . S
C838 C835 1.499 . S
C838 C839 1.373 . S
C838 C840 1.389 1_545 S
C839 H818 0.950 . S
C839 C838 1.373 . S
C839 C855 1.377 . S
C840 C838 1.389 1_565 S
C840 C841 1.524 . S
C840 C854 1.377 . S
C841 C840 1.524 . S
C841 C842 1.397 . S
C841 C846 1.363 . S
C842 H819 0.950 . S
C842 C841 1.397 . S
C842 C843 1.334 . S
C843 H820 0.950 . S
C843 C842 1.334 . S
C843 C844 1.287 . S
C844 C843 1.287 . S
C844 C845 1.524 . S
C844 H863 0.913 . S
C845 H821 0.950 . S
C845 C844 1.524 . S
C845 C846 1.415 . S
C846 H822 0.950 . S
C846 C841 1.363 . S
C846 C845 1.415 . S
C847 H823 0.951 . S
C847 C848 1.366 . S
C847 C849 1.388 . S
C848 C847 1.366 . S
C848 C852 1.385 . S
C849 H824 0.951 . S
C849 C847 1.388 . S
C849 C850 1.366 . S
C850 C849 1.366 . S
C850 C851 1.414 . S
C850 C853 1.499 . S
C851 H825 0.972 . S
C851 C850 1.414 . S
C851 C852 1.374 . S
C852 H826 0.950 . S
C852 C848 1.385 . S
C852 C851 1.374 . S
C853 C850 1.499 . S
C853 C854 1.373 1_545 S
C853 C855 1.389 . S
C854 H827 0.950 . S
C854 C840 1.377 . S
C854 C853 1.373 1_565 S
C855 C839 1.377 . S
C855 C853 1.389 . S
C855 C856 1.524 . S
C856 C855 1.524 . S
C856 C857 1.397 . S
C856 C861 1.363 . S
C857 H828 0.950 . S
C857 C856 1.397 . S
C857 C858 1.334 . S
C858 H829 0.950 . S
C858 C857 1.334 . S
C858 C859 1.287 . S
C859 C858 1.287 . S
C859 C860 1.524 . S
C859 H862 0.999 . S
C860 H830 0.950 . S
C860 C859 1.524 . S
C860 C861 1.415 . S
C861 H831 0.950 . S
C861 C856 1.363 . S
C861 C860 1.415 . S
H862 C859 0.999 . S
H863 C844 0.913 . S
H864 C882 0.951 . S
H865 C884 0.951 1_554 S
H866 C886 0.950 . S
H867 C887 0.950 . S
H868 C889 0.950 . S
H869 C892 0.950 . S
H870 C893 0.950 . S
H871 C895 0.950 . S
H872 C896 0.950 . S
H873 C897 0.951 . S
H874 C899 0.951 . S
H875 C901 0.950 . S
H876 C902 0.950 . S
H877 C904 0.950 . S
H878 C907 0.950 . S
H879 C908 0.950 . S
H880 C910 0.950 . S
H881 C911 0.950 . S
C882 H864 0.951 . S
C882 C883 1.366 . S
C882 C884 1.388 1_554 S
C883 C882 1.366 . S
C883 C887 1.385 1_554 S
C884 H865 0.951 1_556 S
C884 C882 1.388 1_556 S
C884 C885 1.366 . S
C885 C884 1.366 . S
C885 C886 1.414 . S
C885 C888 1.499 . S
C886 H866 0.950 . S
C886 C885 1.414 . S
C886 C887 1.374 . S
C887 H867 0.950 . S
C887 C883 1.385 1_556 S
C887 C886 1.374 . S
C888 C885 1.499 . S
C888 C889 1.373 . S
C888 C890 1.389 . S
C889 H868 0.950 . S
C889 C888 1.373 . S
C889 C905 1.377 . S
C890 C888 1.389 . S
C890 C891 1.524 . S
C890 C904 1.377 . S
C891 C890 1.524 . S
C891 C892 1.397 . S
C891 C896 1.363 1_556 S
C892 H869 0.950 . S
C892 C891 1.397 . S
C892 C893 1.334 1_556 S
C893 H870 0.950 . S
C893 C892 1.334 1_554 S
C893 C894 1.287 . S
C894 C893 1.287 . S
C894 C895 1.524 . S
C894 H913 0.913 . S
C895 H871 0.950 . S
C895 C894 1.524 . S
C895 C896 1.415 . S
C896 H872 0.950 . S
C896 C891 1.363 1_554 S
C896 C895 1.415 . S
C897 H873 0.951 . S
C897 C898 1.366 . S
C897 C899 1.388 . S
C898 C897 1.366 . S
C898 C902 1.385 . S
C899 H874 0.951 . S
C899 C897 1.388 . S
C899 C900 1.366 . S
C900 C899 1.366 . S
C900 C901 1.414 . S
C900 C903 1.499 . S
C901 H875 0.950 . S
C901 C900 1.414 . S
C901 C902 1.374 . S
C902 H876 0.950 . S
C902 C898 1.385 . S
C902 C901 1.374 . S
C903 C900 1.499 . S
C903 C904 1.373 . S
C903 C905 1.389 . S
C904 H877 0.950 . S
C904 C890 1.377 . S
C904 C903 1.373 . S
C905 C889 1.377 . S
C905 C903 1.389 . S
C905 C906 1.524 . S
C906 C905 1.524 . S
C906 C907 1.397 . S
C906 C911 1.363 . S
C907 H878 0.950 . S
C907 C906 1.397 . S
C907 C908 1.334 . S
C908 H879 0.950 . S
C908 C907 1.334 . S
C908 C909 1.287 . S
C909 C908 1.287 . S
C909 C910 1.524 . S
C909 H912 0.999 . S
C910 H880 0.950 . S
C910 C909 1.524 . S
C910 C911 1.415 . S
C911 H881 0.950 . S
C911 C906 1.363 . S
C911 C910 1.415 . S
H912 C909 0.999 . S
H913 C894 0.913 . S
H914 C932 0.951 . S
H915 C934 0.951 1_554 S
H916 C936 0.950 . S
H917 C937 0.950 . S
H918 C939 0.950 . S
H919 C942 0.950 . S
H920 C943 0.950 . S
H921 C945 0.950 . S
H922 C946 0.950 . S
H923 C947 0.951 . S
H924 C949 0.951 . S
H925 C951 0.950 . S
H926 C952 0.950 . S
H927 C954 0.950 . S
H928 C957 0.950 . S
H929 C958 0.950 . S
H930 C960 0.950 . S
H931 C961 0.950 . S
C932 H914 0.951 . S
C932 C933 1.366 1_554 S
C932 C934 1.388 1_554 S
C933 C932 1.366 1_556 S
C933 C937 1.385 . S
C934 H915 0.951 1_556 S
C934 C932 1.388 1_556 S
C934 C935 1.366 . S
C935 C934 1.366 . S
C935 C936 1.414 . S
C935 C938 1.499 . S
C936 H916 0.950 . S
C936 C935 1.414 . S
C936 C937 1.374 . S
C937 H917 0.950 . S
C937 C933 1.385 . S
C937 C936 1.374 . S
C938 C935 1.499 . S
C938 C939 1.373 . S
C938 C940 1.389 . S
C939 H918 0.950 . S
C939 C938 1.373 . S
C939 C955 1.377 . S
C940 C938 1.389 . S
C940 C941 1.524 . S
C940 C954 1.377 . S
C941 C940 1.524 . S
C941 C942 1.397 . S
C941 C946 1.363 . S
C942 H919 0.950 . S
C942 C941 1.397 . S
C942 C943 1.334 . S
C943 H920 0.950 . S
C943 C942 1.334 . S
C943 C944 1.287 1_556 S
C944 C943 1.287 1_554 S
C944 C945 1.524 . S
C944 H963 0.913 . S
C945 H921 0.950 . S
C945 C944 1.524 . S
C945 C946 1.415 1_554 S
C946 H922 0.950 . S
C946 C941 1.363 . S
C946 C945 1.415 1_556 S
C947 H923 0.951 . S
C947 C948 1.366 . S
C947 C949 1.388 . S
C948 C947 1.366 . S
C948 C952 1.385 . S
C949 H924 0.951 . S
C949 C947 1.388 . S
C949 C950 1.366 . S
C950 C949 1.366 . S
C950 C951 1.414 . S
C950 C953 1.499 . S
C951 H925 0.950 . S
C951 C950 1.414 . S
C951 C952 1.374 . S
C952 H926 0.950 . S
C952 C948 1.385 . S
C952 C951 1.374 . S
C953 C950 1.499 . S
C953 C954 1.373 . S
C953 C955 1.389 . S
C954 H927 0.950 . S
C954 C940 1.377 . S
C954 C953 1.373 . S
C955 C939 1.377 . S
C955 C953 1.389 . S
C955 C956 1.524 . S
C956 C955 1.524 . S
C956 C957 1.397 . S
C956 C961 1.363 . S
C957 H928 0.950 . S
C957 C956 1.397 . S
C957 C958 1.334 . S
C958 H929 0.950 . S
C958 C957 1.334 . S
C958 C959 1.287 . S
C959 C958 1.287 . S
C959 C960 1.524 . S
C959 H962 0.999 . S
C960 H930 0.950 . S
C960 C959 1.524 . S
C960 C961 1.415 . S
C961 H931 0.950 . S
C961 C956 1.363 . S
C961 C960 1.415 . S
H962 C959 0.999 . S
H963 C944 0.913 . S
H964 C982 0.951 . S
H965 C984 0.951 . S
H966 C986 0.950 . S
H967 C987 0.950 . S
H968 C989 0.950 . S
H969 C992 0.950 . S
H970 C993 0.950 . S
H971 C995 0.950 . S
H972 C996 0.950 . S
H973 C997 0.951 . S
H974 C999 0.951 1_554 S
H975 C1001 0.950 . S
H976 C1002 0.950 . S
H977 C1004 0.950 . S
H978 C1007 0.950 1_556 S
H979 C1008 0.950 . S
H980 C1010 0.950 . S
H981 C1011 0.950 . S
C982 H964 0.951 . S
C982 C983 1.366 . S
C982 C984 1.388 . S
C983 C982 1.366 . S
C983 C987 1.385 . S
C984 H965 0.951 . S
C984 C982 1.388 . S
C984 C985 1.366 . S
C985 C984 1.366 . S
C985 C986 1.414 . S
C985 C988 1.499 . S
C986 H966 0.950 . S
C986 C985 1.414 . S
C986 C987 1.374 . S
C987 H967 0.950 . S
C987 C983 1.385 . S
C987 C986 1.374 . S
C988 C985 1.499 . S
C988 C989 1.373 . S
C988 C990 1.389 . S
C989 H968 0.950 . S
C989 C988 1.373 . S
C989 C1005 1.377 . S
C990 C988 1.389 . S
C990 C991 1.524 . S
C990 C1004 1.377 1_554 S
C991 C990 1.524 . S
C991 C992 1.397 . S
C991 C996 1.363 1_554 S
C992 H969 0.950 . S
C992 C991 1.397 . S
C992 C993 1.334 . S
C993 H970 0.950 . S
C993 C992 1.334 . S
C993 C994 1.287 . S
C994 C993 1.287 . S
C994 C995 1.524 1_554 S
C994 H1013 0.913 . S
C995 H971 0.950 . S
C995 C994 1.524 1_556 S
C995 C996 1.415 . S
C996 H972 0.950 . S
C996 C991 1.363 1_556 S
C996 C995 1.415 . S
C997 H973 0.951 . S
C997 C998 1.366 . S
C997 C999 1.388 . S
C998 C997 1.366 . S
C998 C1002 1.385 . S
C999 H974 0.951 1_556 S
C999 C997 1.388 . S
C999 C1000 1.366 . S
C1000 C999 1.366 . S
C1000 C1001 1.414 . S
C1000 C1003 1.499 1_556 S
C1001 H975 0.950 . S
C1001 C1000 1.414 . S
C1001 C1002 1.374 . S
C1002 H976 0.950 . S
C1002 C998 1.385 . S
C1002 C1001 1.374 . S
C1003 C1000 1.499 1_554 S
C1003 C1004 1.373 1_554 S
C1003 C1005 1.389 . S
C1004 H977 0.950 . S
C1004 C990 1.377 1_556 S
C1004 C1003 1.373 1_556 S
C1005 C989 1.377 . S
C1005 C1003 1.389 . S
C1005 C1006 1.524 . S
C1006 C1005 1.524 . S
C1006 C1007 1.397 . S
C1006 C1011 1.363 . S
C1007 H978 0.950 1_554 S
C1007 C1006 1.397 . S
C1007 C1008 1.334 . S
C1008 H979 0.950 . S
C1008 C1007 1.334 . S
C1008 C1009 1.287 . S
C1009 C1008 1.287 . S
C1009 C1010 1.524 . S
C1009 H1012 0.999 . S
C1010 H980 0.950 . S
C1010 C1009 1.524 . S
C1010 C1011 1.415 . S
C1011 H981 0.950 . S
C1011 C1006 1.363 . S
C1011 C1010 1.415 . S
H1012 C1009 0.999 . S
H1013 C994 0.913 . S
H1014 C1032 0.951 . S
H1015 C1034 0.951 . S
H1016 C1036 0.950 . S
H1017 C1037 0.950 . S
H1018 C1039 0.950 . S
H1019 C1042 0.950 . S
H1020 C1043 0.950 . S
H1021 C1045 0.950 . S
H1022 C1046 0.950 . S
H1023 C1047 0.951 . S
H1024 C1049 0.951 . S
H1025 C1051 0.950 . S
H1026 C1052 0.950 . S
H1027 C1054 0.950 . S
H1028 C1057 0.950 . S
H1029 C1058 0.950 . S
H1030 C1060 0.950 . S
H1031 C1061 0.950 . S
C1032 H1014 0.951 . S
C1032 C1033 1.366 . S
C1032 C1034 1.388 . S
C1033 C1032 1.366 . S
C1033 C1037 1.385 1_545 S
C1034 H1015 0.951 . S
C1034 C1032 1.388 . S
C1034 C1035 1.366 . S
C1035 C1034 1.366 . S
C1035 C1036 1.414 1_545 S
C1035 C1038 1.499 . S
C1036 H1016 0.950 . S
C1036 C1035 1.414 1_565 S
C1036 C1037 1.374 . S
C1037 H1017 0.950 . S
C1037 C1033 1.385 1_565 S
C1037 C1036 1.374 . S
C1038 C1035 1.499 . S
C1038 C1039 1.373 1_545 S
C1038 C1040 1.389 . S
C1039 H1018 0.950 . S
C1039 C1038 1.373 1_565 S
C1039 C1055 1.377 1_554 S
C1040 C1038 1.389 . S
C1040 C1041 1.524 . S
C1040 C1054 1.377 . S
C1041 C1040 1.524 . S
C1041 C1042 1.397 . S
C1041 C1046 1.363 . S
C1042 H1019 0.950 . S
C1042 C1041 1.397 . S
C1042 C1043 1.334 . S
C1043 H1020 0.950 . S
C1043 C1042 1.334 . S
C1043 C1044 1.287 . S
C1044 C1043 1.287 . S
C1044 C1045 1.524 . S
C1044 H1063 0.913 . S
C1045 H1021 0.950 . S
C1045 C1044 1.524 . S
C1045 C1046 1.415 . S
C1046 H1022 0.950 . S
C1046 C1041 1.363 . S
C1046 C1045 1.415 . S
C1047 H1023 0.951 . S
C1047 C1048 1.367 . S
C1047 C1049 1.388 . S
C1048 C1047 1.367 . S
C1048 C1052 1.384 1_565 S
C1049 H1024 0.951 . S
C1049 C1047 1.388 . S
C1049 C1050 1.366 . S
C1050 C1049 1.366 . S
C1050 C1051 1.414 1_565 S
C1050 C1053 1.499 . S
C1051 H1025 0.950 . S
C1051 C1050 1.414 1_545 S
C1051 C1052 1.374 . S
C1052 H1026 0.950 . S
C1052 C1048 1.384 1_545 S
C1052 C1051 1.374 . S
C1053 C1050 1.499 . S
C1053 C1054 1.373 1_566 S
C1053 C1055 1.389 . S
C1054 H1027 0.950 . S
C1054 C1040 1.377 . S
C1054 C1053 1.373 1_544 S
C1055 C1039 1.377 1_556 S
C1055 C1053 1.389 . S
C1055 C1056 1.524 . S
C1056 C1055 1.524 . S
C1056 C1057 1.397 . S
C1056 C1061 1.363 . S
C1057 H1028 0.950 . S
C1057 C1056 1.397 . S
C1057 C1058 1.334 . S
C1058 H1029 0.950 . S
C1058 C1057 1.334 . S
C1058 C1059 1.287 . S
C1059 C1058 1.287 . S
C1059 C1060 1.524 . S
C1059 H1062 0.999 . S
C1060 H1030 0.950 . S
C1060 C1059 1.524 . S
C1060 C1061 1.415 . S
C1061 H1031 0.950 . S
C1061 C1056 1.363 . S
C1061 C1060 1.415 . S
H1062 C1059 0.999 . S
H1063 C1044 0.913 . S
H1064 C1082 0.951 . S
H1065 C1084 0.951 . S
H1066 C1086 0.950 . S
H1067 C1087 0.950 . S
H1068 C1089 0.950 . S
H1069 C1092 0.950 . S
H1070 C1093 0.950 . S
H1071 C1095 0.950 . S
H1072 C1096 0.950 . S
H1073 C1097 0.951 . S
H1074 C1099 0.951 . S
H1075 C1101 0.950 . S
H1076 C1102 0.950 . S
H1077 C1104 0.950 . S
H1078 C1107 0.950 . S
H1079 C1108 0.950 . S
H1080 C1110 0.950 . S
H1081 C1111 0.950 . S
C1082 H1064 0.951 . S
C1082 C1083 1.366 . S
C1082 C1084 1.388 . S
C1083 C1082 1.366 . S
C1083 C1087 1.385 . S
C1084 H1065 0.951 . S
C1084 C1082 1.388 . S
C1084 C1085 1.366 . S
C1085 C1084 1.366 . S
C1085 C1086 1.414 . S
C1085 C1088 1.499 . S
C1086 H1066 0.950 . S
C1086 C1085 1.414 . S
C1086 C1087 1.374 . S
C1087 H1067 0.950 . S
C1087 C1083 1.385 . S
C1087 C1086 1.374 . S
C1088 C1085 1.499 . S
C1088 C1089 1.373 . S
C1088 C1090 1.389 1_554 S
C1089 H1068 0.950 . S
C1089 C1088 1.373 . S
C1089 C1105 1.377 1_554 S
C1090 C1088 1.389 1_556 S
C1090 C1091 1.524 . S
C1090 C1104 1.377 . S
C1091 C1090 1.524 . S
C1091 C1092 1.397 1_556 S
C1091 C1096 1.363 . S
C1092 H1069 0.950 . S
C1092 C1091 1.397 1_554 S
C1092 C1093 1.334 . S
C1093 H1070 0.950 . S
C1093 C1092 1.334 . S
C1093 C1094 1.287 1_554 S
C1094 C1093 1.287 1_556 S
C1094 C1095 1.524 . S
C1094 H1113 0.913 . S
C1095 H1071 0.950 . S
C1095 C1094 1.524 . S
C1095 C1096 1.415 . S
C1096 H1072 0.950 . S
C1096 C1091 1.363 . S
C1096 C1095 1.415 . S
C1097 H1073 0.951 . S
C1097 C1098 1.366 . S
C1097 C1099 1.388 . S
C1098 C1097 1.366 . S
C1098 C1102 1.385 . S
C1099 H1074 0.951 . S
C1099 C1097 1.388 . S
C1099 C1100 1.366 . S
C1100 C1099 1.366 . S
C1100 C1101 1.414 . S
C1100 C1103 1.499 . S
C1101 H1075 0.950 . S
C1101 C1100 1.414 . S
C1101 C1102 1.374 . S
C1102 H1076 0.950 . S
C1102 C1098 1.385 . S
C1102 C1101 1.374 . S
C1103 C1100 1.499 . S
C1103 C1104 1.373 . S
C1103 C1105 1.389 . S
C1104 H1077 0.950 . S
C1104 C1090 1.377 . S
C1104 C1103 1.373 . S
C1105 C1089 1.377 1_556 S
C1105 C1103 1.389 . S
C1105 C1106 1.524 . S
C1106 C1105 1.524 . S
C1106 C1107 1.397 . S
C1106 C1111 1.363 1_556 S
C1107 H1078 0.950 . S
C1107 C1106 1.397 . S
C1107 C1108 1.334 . S
C1108 H1079 0.950 . S
C1108 C1107 1.334 . S
C1108 C1109 1.287 . S
C1109 C1108 1.287 . S
C1109 C1110 1.524 1_556 S
C1109 H1112 0.999 . S
C1110 H1080 0.950 . S
C1110 C1109 1.524 1_554 S
C1110 C1111 1.415 . S
C1111 H1081 0.950 . S
C1111 C1106 1.363 1_554 S
C1111 C1110 1.415 . S
H1112 C1109 0.999 . S
H1113 C1094 0.913 . S
H1114 C1132 0.951 . S
H1115 C1134 0.951 . S
H1116 C1136 0.950 . S
H1117 C1137 0.950 . S
H1118 C1139 0.950 . S
H1119 C1142 0.950 . S
H1120 C1143 0.950 . S
H1121 C1145 0.950 . S
H1122 C1146 0.950 . S
H1123 C1147 0.951 . S
H1124 C1149 0.951 . S
H1125 C1151 0.950 . S
H1126 C1152 0.950 . S
H1127 C1154 0.950 . S
H1128 C1157 0.950 . S
H1129 C1158 0.950 . S
H1130 C1160 0.950 . S
H1131 C1161 0.950 . S
C1132 H1114 0.951 . S
C1132 C1133 1.366 . S
C1132 C1134 1.388 . S
C1133 C1132 1.366 . S
C1133 C1137 1.385 . S
C1134 H1115 0.951 . S
C1134 C1132 1.388 . S
C1134 C1135 1.366 . S
C1135 C1134 1.366 . S
C1135 C1136 1.414 . S
C1135 C1138 1.499 . S
C1136 H1116 0.950 . S
C1136 C1135 1.414 . S
C1136 C1137 1.374 . S
C1137 H1117 0.950 . S
C1137 C1133 1.385 . S
C1137 C1136 1.374 . S
C1138 C1135 1.499 . S
C1138 C1139 1.373 1_554 S
C1138 C1140 1.389 . S
C1139 H1118 0.950 . S
C1139 C1138 1.373 1_556 S
C1139 C1155 1.377 . S
C1140 C1138 1.389 . S
C1140 C1141 1.524 . S
C1140 C1154 1.377 1_554 S
C1141 C1140 1.524 . S
C1141 C1142 1.397 . S
C1141 C1146 1.363 . S
C1142 H1119 0.950 . S
C1142 C1141 1.397 . S
C1142 C1143 1.334 . S
C1143 H1120 0.950 . S
C1143 C1142 1.334 . S
C1143 C1144 1.287 . S
C1144 C1143 1.287 . S
C1144 C1145 1.524 . S
C1144 H1163 0.913 . S
C1145 H1121 0.950 . S
C1145 C1144 1.524 . S
C1145 C1146 1.415 . S
C1146 H1122 0.950 . S
C1146 C1141 1.363 . S
C1146 C1145 1.415 . S
C1147 H1123 0.951 . S
C1147 C1148 1.366 . S
C1147 C1149 1.388 . S
C1148 C1147 1.366 . S
C1148 C1152 1.385 . S
C1149 H1124 0.951 . S
C1149 C1147 1.388 . S
C1149 C1150 1.366 . S
C1150 C1149 1.366 . S
C1150 C1151 1.414 . S
C1150 C1153 1.499 . S
C1151 H1125 0.950 . S
C1151 C1150 1.414 . S
C1151 C1152 1.374 . S
C1152 H1126 0.950 . S
C1152 C1148 1.385 . S
C1152 C1151 1.374 . S
C1153 C1150 1.499 . S
C1153 C1154 1.373 . S
C1153 C1155 1.389 . S
C1154 H1127 0.950 . S
C1154 C1140 1.377 1_556 S
C1154 C1153 1.373 . S
C1155 C1139 1.377 . S
C1155 C1153 1.389 . S
C1155 C1156 1.524 . S
C1156 C1155 1.524 . S
C1156 C1157 1.397 . S
C1156 C1161 1.363 . S
C1157 H1128 0.950 . S
C1157 C1156 1.397 . S
C1157 C1158 1.334 . S
C1158 H1129 0.950 . S
C1158 C1157 1.334 . S
C1158 C1159 1.287 . S
C1159 C1158 1.287 . S
C1159 C1160 1.524 . S
C1159 H1162 0.999 . S
C1160 H1130 0.950 . S
C1160 C1159 1.524 . S
C1160 C1161 1.415 . S
C1161 H1131 0.950 . S
C1161 C1156 1.363 . S
C1161 C1160 1.415 . S
H1162 C1159 0.999 . S
H1163 C1144 0.913 . S
H1164 C1182 0.951 . S
H1165 C1184 0.951 . S
H1166 C1186 0.950 . S
H1167 C1187 0.950 . S
H1168 C1189 0.950 . S
H1169 C1192 0.950 . S
H1170 C1193 0.950 . S
H1171 C1195 0.950 . S
H1172 C1196 0.950 . S
H1173 C1197 0.951 . S
H1174 C1199 0.951 . S
H1175 C1201 0.950 . S
H1176 C1202 0.950 . S
H1177 C1204 0.950 . S
H1178 C1207 0.950 . S
H1179 C1208 0.950 . S
H1180 C1210 0.950 . S
H1181 C1211 0.950 . S
C1182 H1164 0.951 . S
C1182 C1183 1.366 . S
C1182 C1184 1.388 . S
C1183 C1182 1.366 . S
C1183 C1187 1.385 1_655 S
C1184 H1165 0.951 . S
C1184 C1182 1.388 . S
C1184 C1185 1.366 . S
C1185 C1184 1.366 . S
C1185 C1186 1.414 1_655 S
C1185 C1188 1.499 . S
C1186 H1166 0.950 . S
C1186 C1185 1.414 1_455 S
C1186 C1187 1.374 . S
C1187 H1167 0.950 . S
C1187 C1183 1.385 1_455 S
C1187 C1186 1.374 . S
C1188 C1185 1.499 . S
C1188 C1189 1.373 1_655 S
C1188 C1190 1.389 . S
C1189 H1168 0.950 . S
C1189 C1188 1.373 1_455 S
C1189 C1205 1.377 . S
C1190 C1188 1.389 . S
C1190 C1191 1.524 . S
C1190 C1204 1.377 . S
C1191 C1190 1.524 . S
C1191 C1192 1.397 . S
C1191 C1196 1.363 . S
C1192 H1169 0.950 . S
C1192 C1191 1.397 . S
C1192 C1193 1.334 . S
C1193 H1170 0.950 . S
C1193 C1192 1.334 . S
C1193 C1194 1.287 . S
C1194 C1193 1.287 . S
C1194 C1195 1.524 . S
C1194 H1213 0.913 . S
C1195 H1171 0.950 . S
C1195 C1194 1.524 . S
C1195 C1196 1.415 . S
C1196 H1172 0.950 . S
C1196 C1191 1.363 . S
C1196 C1195 1.415 . S
C1197 H1173 0.951 . S
C1197 C1198 1.366 1_455 S
C1197 C1199 1.388 . S
C1198 C1197 1.366 1_655 S
C1198 C1202 1.385 . S
C1199 H1174 0.951 . S
C1199 C1197 1.388 . S
C1199 C1200 1.366 1_455 S
C1200 C1199 1.366 1_655 S
C1200 C1201 1.414 . S
C1200 C1203 1.499 . S
C1201 H1175 0.950 . S
C1201 C1200 1.414 . S
C1201 C1202 1.374 . S
C1202 H1176 0.950 . S
C1202 C1198 1.385 . S
C1202 C1201 1.374 . S
C1203 C1200 1.499 . S
C1203 C1204 1.373 . S
C1203 C1205 1.389 1_655 S
C1204 H1177 0.950 . S
C1204 C1190 1.377 . S
C1204 C1203 1.373 . S
C1205 C1189 1.377 . S
C1205 C1203 1.389 1_455 S
C1205 C1206 1.524 . S
C1206 C1205 1.524 . S
C1206 C1207 1.397 . S
C1206 C1211 1.363 . S
C1207 H1178 0.950 . S
C1207 C1206 1.397 . S
C1207 C1208 1.334 . S
C1208 H1179 0.950 . S
C1208 C1207 1.334 . S
C1208 C1209 1.287 . S
C1209 C1208 1.287 . S
C1209 C1210 1.524 . S
C1209 H1212 0.999 . S
C1210 H1180 0.950 . S
C1210 C1209 1.524 . S
C1210 C1211 1.415 . S
C1211 H1181 0.950 . S
C1211 C1206 1.363 . S
C1211 C1210 1.415 . S
H1212 C1209 0.999 . S
H1213 C1194 0.913 . S
H1214 C1232 0.951 . S
H1215 C1234 0.951 . S
H1216 C1236 0.950 . S
H1217 C1237 0.950 . S
H1218 C1239 0.950 . S
H1219 C1242 0.950 . S
H1220 C1243 0.948 . S
H1221 C1245 0.950 . S
H1222 C1246 0.950 . S
H1223 C1247 0.951 . S
H1224 C1249 0.951 . S
H1225 C1251 0.950 . S
H1226 C1252 0.950 . S
H1227 C1254 0.950 1_545 S
H1228 C1257 0.972 . S
H1229 C1258 0.950 . S
H1230 C1260 0.950 . S
H1231 C1261 0.950 . S
C1232 H1214 0.951 . S
C1232 C1233 1.366 1_545 S
C1232 C1234 1.388 . S
C1233 C1232 1.366 1_565 S
C1233 C1237 1.385 . S
C1234 H1215 0.951 . S
C1234 C1232 1.388 . S
C1234 C1235 1.366 1_545 S
C1235 C1234 1.366 1_565 S
C1235 C1236 1.414 . S
C1235 C1238 1.499 . S
C1236 H1216 0.950 . S
C1236 C1235 1.414 . S
C1236 C1237 1.374 . S
C1237 H1217 0.950 . S
C1237 C1233 1.385 . S
C1237 C1236 1.374 . S
C1238 C1235 1.499 . S
C1238 C1239 1.373 . S
C1238 C1240 1.389 . S
C1239 H1218 0.950 . S
C1239 C1238 1.373 . S
C1239 C1255 1.377 . S
C1240 C1238 1.389 . S
C1240 C1241 1.524 1_565 S
C1240 C1254 1.377 . S
C1241 C1240 1.524 1_545 S
C1241 C1242 1.397 1_545 S
C1241 C1246 1.363 . S
C1242 H1219 0.950 . S
C1242 C1241 1.397 1_565 S
C1242 C1243 1.333 . S
C1243 H1220 0.948 . S
C1243 C1242 1.333 . S
C1243 C1244 1.290 1_565 S
C1244 C1243 1.290 1_545 S
C1244 C1245 1.524 . S
C1244 H1263 0.913 . S
C1245 H1221 0.950 . S
C1245 C1244 1.524 . S
C1245 C1246 1.415 . S
C1246 H1222 0.950 . S
C1246 C1241 1.363 . S
C1246 C1245 1.415 . S
C1247 H1223 0.951 . S
C1247 C1248 1.366 . S
C1247 C1249 1.388 . S
C1248 C1247 1.366 . S
C1248 C1252 1.385 1_565 S
C1249 H1224 0.951 . S
C1249 C1247 1.388 . S
C1249 C1250 1.366 . S
C1250 C1249 1.366 . S
C1250 C1251 1.414 1_565 S
C1250 C1253 1.499 . S
C1251 H1225 0.950 . S
C1251 C1250 1.414 1_545 S
C1251 C1252 1.374 . S
C1252 H1226 0.950 . S
C1252 C1248 1.385 1_545 S
C1252 C1251 1.374 . S
C1253 C1250 1.499 . S
C1253 C1254 1.373 . S
C1253 C1255 1.389 . S
C1254 H1227 0.950 1_565 S
C1254 C1240 1.377 . S
C1254 C1253 1.373 . S
C1255 C1239 1.377 . S
C1255 C1253 1.389 . S
C1255 C1256 1.524 . S
C1256 C1255 1.524 . S
C1256 C1257 1.397 . S
C1256 C1261 1.363 . S
C1257 H1228 0.972 . S
C1257 C1256 1.397 . S
C1257 C1258 1.334 . S
C1258 H1229 0.950 . S
C1258 C1257 1.334 . S
C1258 C1259 1.287 . S
C1259 C1258 1.287 . S
C1259 C1260 1.524 . S
C1259 H1262 0.999 . S
C1260 H1230 0.950 . S
C1260 C1259 1.524 . S
C1260 C1261 1.415 . S
C1261 H1231 0.950 . S
C1261 C1256 1.363 . S
C1261 C1260 1.415 . S
H1262 C1259 0.999 . S
H1263 C1244 0.913 . S
H1264 C1282 0.951 . S
H1265 C1284 0.951 . S
H1266 C1286 0.950 . S
H1267 C1287 0.950 . S
H1268 C1289 0.950 . S
H1269 C1292 0.950 . S
H1270 C1293 0.950 . S
H1271 C1295 0.950 . S
H1272 C1296 0.950 . S
H1273 C1297 0.951 . S
H1274 C1299 0.951 . S
H1275 C1301 0.950 . S
H1276 C1302 0.950 . S
H1277 C1304 0.950 . S
H1278 C1307 0.950 . S
H1279 C1308 0.950 . S
H1280 C1310 0.950 . S
H1281 C1311 0.950 . S
C1282 H1264 0.951 . S
C1282 C1283 1.366 . S
C1282 C1284 1.388 . S
C1283 C1282 1.366 . S
C1283 C1287 1.385 . S
C1284 H1265 0.951 . S
C1284 C1282 1.388 . S
C1284 C1285 1.366 . S
C1285 C1284 1.366 . S
C1285 C1286 1.414 . S
C1285 C1288 1.499 . S
C1286 H1266 0.950 . S
C1286 C1285 1.414 . S
C1286 C1287 1.374 . S
C1287 H1267 0.950 . S
C1287 C1283 1.385 . S
C1287 C1286 1.374 . S
C1288 C1285 1.499 . S
C1288 C1289 1.373 . S
C1288 C1290 1.389 . S
C1289 H1268 0.950 . S
C1289 C1288 1.373 . S
C1289 C1305 1.377 . S
C1290 C1288 1.389 . S
C1290 C1291 1.524 . S
C1290 C1304 1.377 . S
C1291 C1290 1.524 . S
C1291 C1292 1.397 . S
C1291 C1296 1.363 . S
C1292 H1269 0.950 . S
C1292 C1291 1.397 . S
C1292 C1293 1.334 . S
C1293 H1270 0.950 . S
C1293 C1292 1.334 . S
C1293 C1294 1.287 . S
C1294 C1293 1.287 . S
C1294 C1295 1.524 . S
C1294 H1313 0.913 . S
C1295 H1271 0.950 . S
C1295 C1294 1.524 . S
C1295 C1296 1.415 . S
C1296 H1272 0.950 . S
C1296 C1291 1.363 . S
C1296 C1295 1.415 . S
C1297 H1273 0.951 . S
C1297 C1298 1.366 . S
C1297 C1299 1.388 . S
C1298 C1297 1.366 . S
C1298 C1302 1.385 . S
C1299 H1274 0.951 . S
C1299 C1297 1.388 . S
C1299 C1300 1.366 . S
C1300 C1299 1.366 . S
C1300 C1301 1.414 . S
C1300 C1303 1.499 . S
C1301 H1275 0.950 . S
C1301 C1300 1.414 . S
C1301 C1302 1.374 . S
C1302 H1276 0.950 . S
C1302 C1298 1.385 . S
C1302 C1301 1.374 . S
C1303 C1300 1.499 . S
C1303 C1304 1.373 . S
C1303 C1305 1.389 . S
C1304 H1277 0.950 . S
C1304 C1290 1.377 . S
C1304 C1303 1.373 . S
C1305 C1289 1.377 . S
C1305 C1303 1.389 . S
C1305 C1306 1.524 . S
C1306 C1305 1.524 . S
C1306 C1307 1.397 . S
C1306 C1311 1.363 . S
C1307 H1278 0.950 . S
C1307 C1306 1.397 . S
C1307 C1308 1.334 . S
C1308 H1279 0.950 . S
C1308 C1307 1.334 . S
C1308 C1309 1.287 . S
C1309 C1308 1.287 . S
C1309 C1310 1.524 . S
C1309 H1312 0.999 . S
C1310 H1280 0.950 . S
C1310 C1309 1.524 . S
C1310 C1311 1.415 . S
C1311 H1281 0.950 . S
C1311 C1306 1.363 . S
C1311 C1310 1.415 . S
H1312 C1309 0.999 . S
H1313 C1294 0.913 . S
H1314 C1332 0.951 . S
H1315 C1334 0.951 . S
H1316 C1336 0.950 . S
H1317 C1337 0.950 . S
H1318 C1339 0.950 . S
H1319 C1342 0.950 . S
H1320 C1343 0.950 . S
H1321 C1345 0.950 . S
H1322 C1346 0.950 . S
H1323 C1347 0.951 . S
H1324 C1349 0.951 . S
H1325 C1351 0.950 . S
H1326 C1352 0.950 . S
H1327 C1354 0.950 . S
H1328 C1357 0.950 . S
H1329 C1358 0.950 . S
H1330 C1360 0.950 . S
H1331 C1361 0.950 . S
C1332 H1314 0.951 . S
C1332 C1333 1.366 . S
C1332 C1334 1.388 . S
C1333 C1332 1.366 . S
C1333 C1337 1.385 . S
C1334 H1315 0.951 . S
C1334 C1332 1.388 . S
C1334 C1335 1.366 . S
C1335 C1334 1.366 . S
C1335 C1336 1.414 . S
C1335 C1338 1.499 . S
C1336 H1316 0.950 . S
C1336 C1335 1.414 . S
C1336 C1337 1.374 . S
C1337 H1317 0.950 . S
C1337 C1333 1.385 . S
C1337 C1336 1.374 . S
C1338 C1335 1.499 . S
C1338 C1339 1.373 . S
C1338 C1340 1.389 . S
C1339 H1318 0.950 . S
C1339 C1338 1.373 . S
C1339 C1355 1.377 . S
C1340 C1338 1.389 . S
C1340 C1341 1.524 . S
C1340 C1354 1.377 . S
C1341 C1340 1.524 . S
C1341 C1342 1.397 . S
C1341 C1346 1.363 . S
C1342 H1319 0.950 . S
C1342 C1341 1.397 . S
C1342 C1343 1.334 . S
C1343 H1320 0.950 . S
C1343 C1342 1.334 . S
C1343 C1344 1.287 . S
C1344 C1343 1.287 . S
C1344 C1345 1.524 . S
C1344 H1363 0.913 . S
C1345 H1321 0.950 . S
C1345 C1344 1.524 . S
C1345 C1346 1.415 . S
C1346 H1322 0.950 . S
C1346 C1341 1.363 . S
C1346 C1345 1.415 . S
C1347 H1323 0.951 . S
C1347 C1348 1.366 . S
C1347 C1349 1.388 . S
C1348 C1347 1.366 . S
C1348 C1352 1.385 . S
C1349 H1324 0.951 . S
C1349 C1347 1.388 . S
C1349 C1350 1.366 . S
C1350 C1349 1.366 . S
C1350 C1351 1.414 . S
C1350 C1353 1.499 . S
C1351 H1325 0.950 . S
C1351 C1350 1.414 . S
C1351 C1352 1.374 . S
C1352 H1326 0.950 . S
C1352 C1348 1.385 . S
C1352 C1351 1.374 . S
C1353 C1350 1.499 . S
C1353 C1354 1.373 . S
C1353 C1355 1.389 . S
C1354 H1327 0.950 . S
C1354 C1340 1.377 . S
C1354 C1353 1.373 . S
C1355 C1339 1.377 . S
C1355 C1353 1.389 . S
C1355 C1356 1.524 . S
C1356 C1355 1.524 . S
C1356 C1357 1.397 . S
C1356 C1361 1.363 . S
C1357 H1328 0.950 . S
C1357 C1356 1.397 . S
C1357 C1358 1.334 . S
C1358 H1329 0.950 . S
C1358 C1357 1.334 . S
C1358 C1359 1.287 . S
C1359 C1358 1.287 . S
C1359 C1360 1.524 . S
C1359 H1362 0.999 . S
C1360 H1330 0.950 . S
C1360 C1359 1.524 . S
C1360 C1361 1.415 . S
C1361 H1331 0.950 . S
C1361 C1356 1.363 . S
C1361 C1360 1.415 . S
H1362 C1359 0.999 . S
H1363 C1344 0.913 . S
C183 C61 1.449 . S
C198 C88 1.456 . S
C248 C111 1.591 . S
C233 C70 1.584 . S
C298 C134 1.549 . S
C283 C43 1.536 . S
C348 C161 1.449 . S
C333 C52 1.503 . S
C398 C89 1.463 . S
C383 C25 1.452 1_545 S
C433 C34 1.413 . S
C448 C112 1.429 . S
C483 C7 1.308 . S
C498 C135 1.319 . S
C533 C16 1.479 . S
C548 C160 1.485 . S
C598 C90 0.302 . S
C583 C50 0.493 . S
C648 C113 0.401 . S
C633 C59 0.394 1_545 S
C698 C136 0.265 . S
C683 C67 0.301 . S
C733 C41 0.246 . S
C748 C162 0.496 . S
C783 C14 0.222 . S
C798 C93 0.545 . S
C848 C116 0.611 . S
C833 C23 0.214 . S
C898 C139 0.580 . S
C883 C31 0.309 . S
C933 C5 0.262 . S
C948 C159 0.308 . S
C983 C49 1.613 . S
C998 C91 1.617 . S
C1033 C58 1.500 1_545 S
C1048 C114 1.513 1_565 S
C1098 C137 1.520 . S
C1083 C68 1.499 . S
C1148 C158 1.244 . S
C1133 C40 1.208 . S
C1183 C13 1.557 . S
C1198 C92 1.518 1_655 S
C1248 C115 1.463 . S
C1233 C22 1.502 . S
C1298 C138 1.441 . S
C1283 C32 1.480 . S
C1333 C4 1.620 . S
C1348 C157 1.668 . S
