# Generated by pormake.
# Topology ssc, (4,4)-cn, num edge types: 1
# Building blocks:
#     Node 0, Type 0, BuildingBlock: CEKHIL_clean_sbu_0, # of connection points: 4
#     Node 1, Type 0, BuildingBlock: CEKHIL_clean_sbu_0, # of connection points: 4
#     Node 2, Type 0, BuildingBlock: CEKHIL_clean_sbu_0, # of connection points: 4
#     Node 3, Type 0, BuildingBlock: CEKHIL_clean_sbu_0, # of connection points: 4
#     Node 4, Type 0, BuildingBlock: CEKHIL_clean_sbu_0, # of connection points: 4
#     Node 5, Type 0, BuildingBlock: CEKHIL_clean_sbu_0, # of connection points: 4
#     Node 6, Type 0, BuildingBlock: CEKHIL_clean_sbu_0, # of connection points: 4
#     Node 7, Type 0, BuildingBlock: CEKHIL_clean_sbu_0, # of connection points: 4
#     Node 8, Type 0, BuildingBlock: CEKHIL_clean_sbu_0, # of connection points: 4
#     Node 9, Type 0, BuildingBlock: CEKHIL_clean_sbu_0, # of connection points: 4
#     Node 10, Type 0, BuildingBlock: CEKHIL_clean_sbu_0, # of connection points: 4
#     Node 11, Type 0, BuildingBlock: CEKHIL_clean_sbu_0, # of connection points: 4
#     Node 12, Type 1, BuildingBlock: KUFVIS_clean_linker_0, # of connection points: 4
#     Node 13, Type 1, BuildingBlock: KUFVIS_clean_linker_0, # of connection points: 4
#     Node 14, Type 1, BuildingBlock: KUFVIS_clean_linker_0, # of connection points: 4
#     Node 15, Type 1, BuildingBlock: KUFVIS_clean_linker_0, # of connection points: 4
#     Node 16, Type 1, BuildingBlock: KUFVIS_clean_linker_0, # of connection points: 4
#     Node 17, Type 1, BuildingBlock: KUFVIS_clean_linker_0, # of connection points: 4
#     Node 18, Type 1, BuildingBlock: KUFVIS_clean_linker_0, # of connection points: 4
#     Node 19, Type 1, BuildingBlock: KUFVIS_clean_linker_0, # of connection points: 4
#     Node 20, Type 1, BuildingBlock: KUFVIS_clean_linker_0, # of connection points: 4
#     Node 21, Type 1, BuildingBlock: KUFVIS_clean_linker_0, # of connection points: 4
#     Node 22, Type 1, BuildingBlock: KUFVIS_clean_linker_0, # of connection points: 4
#     Node 23, Type 1, BuildingBlock: KUFVIS_clean_linker_0, # of connection points: 4
#     Edge 24, Type (0, 1), BuildingBlock: KIFKEQ_clean_linker_1, # of connection points: 2
#     Edge 25, Type (0, 1), BuildingBlock: KIFKEQ_clean_linker_1, # of connection points: 2
#     Edge 26, Type (0, 1), BuildingBlock: KIFKEQ_clean_linker_1, # of connection points: 2
#     Edge 27, Type (0, 1), BuildingBlock: KIFKEQ_clean_linker_1, # of connection points: 2
#     Edge 28, Type (0, 1), BuildingBlock: KIFKEQ_clean_linker_1, # of connection points: 2
#     Edge 29, Type (0, 1), BuildingBlock: KIFKEQ_clean_linker_1, # of connection points: 2
#     Edge 30, Type (0, 1), BuildingBlock: KIFKEQ_clean_linker_1, # of connection points: 2
#     Edge 31, Type (0, 1), BuildingBlock: KIFKEQ_clean_linker_1, # of connection points: 2
#     Edge 32, Type (0, 1), BuildingBlock: KIFKEQ_clean_linker_1, # of connection points: 2
#     Edge 33, Type (0, 1), BuildingBlock: KIFKEQ_clean_linker_1, # of connection points: 2
#     Edge 34, Type (0, 1), BuildingBlock: KIFKEQ_clean_linker_1, # of connection points: 2
#     Edge 35, Type (0, 1), BuildingBlock: KIFKEQ_clean_linker_1, # of connection points: 2
#     Edge 36, Type (0, 1), BuildingBlock: KIFKEQ_clean_linker_1, # of connection points: 2
#     Edge 37, Type (0, 1), BuildingBlock: KIFKEQ_clean_linker_1, # of connection points: 2
#     Edge 38, Type (0, 1), BuildingBlock: KIFKEQ_clean_linker_1, # of connection points: 2
#     Edge 39, Type (0, 1), BuildingBlock: KIFKEQ_clean_linker_1, # of connection points: 2
#     Edge 40, Type (0, 1), BuildingBlock: KIFKEQ_clean_linker_1, # of connection points: 2
#     Edge 41, Type (0, 1), BuildingBlock: KIFKEQ_clean_linker_1, # of connection points: 2
#     Edge 42, Type (0, 1), BuildingBlock: KIFKEQ_clean_linker_1, # of connection points: 2
#     Edge 43, Type (0, 1), BuildingBlock: KIFKEQ_clean_linker_1, # of connection points: 2
#     Edge 44, Type (0, 1), BuildingBlock: KIFKEQ_clean_linker_1, # of connection points: 2
#     Edge 45, Type (0, 1), BuildingBlock: KIFKEQ_clean_linker_1, # of connection points: 2
#     Edge 46, Type (0, 1), BuildingBlock: KIFKEQ_clean_linker_1, # of connection points: 2
#     Edge 47, Type (0, 1), BuildingBlock: KIFKEQ_clean_linker_1, # of connection points: 2
#     Edge 48, Type (0, 1), BuildingBlock: KIFKEQ_clean_linker_1, # of connection points: 2
#     Edge 49, Type (0, 1), BuildingBlock: KIFKEQ_clean_linker_1, # of connection points: 2
#     Edge 50, Type (0, 1), BuildingBlock: KIFKEQ_clean_linker_1, # of connection points: 2
#     Edge 51, Type (0, 1), BuildingBlock: KIFKEQ_clean_linker_1, # of connection points: 2
#     Edge 52, Type (0, 1), BuildingBlock: KIFKEQ_clean_linker_1, # of connection points: 2
#     Edge 53, Type (0, 1), BuildingBlock: KIFKEQ_clean_linker_1, # of connection points: 2
#     Edge 54, Type (0, 1), BuildingBlock: KIFKEQ_clean_linker_1, # of connection points: 2
#     Edge 55, Type (0, 1), BuildingBlock: KIFKEQ_clean_linker_1, # of connection points: 2
#     Edge 56, Type (0, 1), BuildingBlock: KIFKEQ_clean_linker_1, # of connection points: 2
#     Edge 57, Type (0, 1), BuildingBlock: KIFKEQ_clean_linker_1, # of connection points: 2
#     Edge 58, Type (0, 1), BuildingBlock: KIFKEQ_clean_linker_1, # of connection points: 2
#     Edge 59, Type (0, 1), BuildingBlock: KIFKEQ_clean_linker_1, # of connection points: 2
#     Edge 60, Type (0, 1), BuildingBlock: KIFKEQ_clean_linker_1, # of connection points: 2
#     Edge 61, Type (0, 1), BuildingBlock: KIFKEQ_clean_linker_1, # of connection points: 2
#     Edge 62, Type (0, 1), BuildingBlock: KIFKEQ_clean_linker_1, # of connection points: 2
#     Edge 63, Type (0, 1), BuildingBlock: KIFKEQ_clean_linker_1, # of connection points: 2
#     Edge 64, Type (0, 1), BuildingBlock: KIFKEQ_clean_linker_1, # of connection points: 2
#     Edge 65, Type (0, 1), BuildingBlock: KIFKEQ_clean_linker_1, # of connection points: 2
#     Edge 66, Type (0, 1), BuildingBlock: KIFKEQ_clean_linker_1, # of connection points: 2
#     Edge 67, Type (0, 1), BuildingBlock: KIFKEQ_clean_linker_1, # of connection points: 2
#     Edge 68, Type (0, 1), BuildingBlock: KIFKEQ_clean_linker_1, # of connection points: 2
#     Edge 69, Type (0, 1), BuildingBlock: KIFKEQ_clean_linker_1, # of connection points: 2
#     Edge 70, Type (0, 1), BuildingBlock: KIFKEQ_clean_linker_1, # of connection points: 2
#     Edge 71, Type (0, 1), BuildingBlock: KIFKEQ_clean_linker_1, # of connection points: 2
# Relax obj value: 0.121
# Max RMSD: 0.311
# Mean RMSD: 0.273
data_MOF--net-ssc--node1-CEKHIL_clean_sbu_0--node2-KUFVIS_clean_linker_0--edge1-KIFKEQ_clean_linker_1
_symmetry_space_group_name_H-M    P1
_symmetry_Int_Tables_number       1
_symmetry_cell_setting            triclinic
loop_
_symmetry_equiv_pos_as_xyz
'x, y, z'
_cell_length_a     31.285803
_cell_length_b     31.385994
_cell_length_c     31.315761
_cell_angle_alpha  91.293847
_cell_angle_beta   89.851367
_cell_angle_gamma 93.078228
loop_
_atom_site_label
_atom_site_type_symbol
_atom_site_fract_x
_atom_site_fract_y
_atom_site_fract_z
_atom_type_partial_charge
Co0 Co 0.03586 0.26453 0.13462 0.0
O1 O 0.0829 0.28337 0.09864 0.0
O2 O 0.02089 0.31409 0.10401 0.0
C3 C 0.07465 0.25516 0.19382 0.0
O4 O 0.98101 0.25763 0.16912 0.0
Co5 Co 0.0274 0.17417 0.17214 0.0
O6 O 0.97698 0.19531 0.20306 0.0
C7 C 0.01183 0.18502 0.08076 0.0
C8 C 0.05904 0.31398 0.08764 0.0
C9 C 0.96231 0.23133 0.19485 0.0
O10 O 0.01204 0.2257 0.08728 0.0
O11 O 0.0213 0.15907 0.10975 0.0
O12 O 0.06375 0.293 0.18365 0.0
O13 O 0.06528 0.22488 0.16618 0.0
Co14 Co 0.03287 0.75354 0.42496 0.0
O15 O 0.06665 0.74123 0.4743 0.0
O16 O 0.00754 0.70459 0.45346 0.0
C17 C 0.08747 0.76377 0.37848 0.0
O18 O 0.98974 0.75366 0.37636 0.0
Co19 Co 0.03976 0.84046 0.3789 0.0
O20 O 0.99873 0.81276 0.33748 0.0
C21 C 0.99876 0.83451 0.4634 0.0
C22 C 0.03868 0.70979 0.4807 0.0
C23 C 0.98022 0.77644 0.34452 0.0
O24 O 0.99909 0.79349 0.46137 0.0
O25 O 0.01594 0.85895 0.43528 0.0
O26 O 0.07281 0.72527 0.38696 0.0
O27 O 0.07128 0.79401 0.40069 0.0
Co28 Co 0.54228 0.7598 0.63648 0.0
O29 O 0.58851 0.77367 0.59738 0.0
O30 O 0.52812 0.80733 0.6023 0.0
C31 C 0.58236 0.7535 0.69538 0.0
O32 O 0.48803 0.75713 0.67297 0.0
Co33 Co 0.53286 0.67248 0.6811 0.0
O34 O 0.4839 0.69725 0.71113 0.0
C35 C 0.51361 0.67714 0.58972 0.0
C36 C 0.56509 0.80368 0.58404 0.0
C37 C 0.46951 0.7328 0.70077 0.0
O38 O 0.51639 0.71816 0.59267 0.0
O39 O 0.52172 0.65287 0.62061 0.0
O40 O 0.57254 0.79091 0.68269 0.0
O41 O 0.57128 0.72174 0.6701 0.0
Co42 Co 0.53723 0.2413 0.92412 0.0
O43 O 0.57537 0.22522 0.96847 0.0
O44 O 0.51465 0.18976 0.95037 0.0
C45 C 0.5881 0.25492 0.87442 0.0
O46 O 0.49 0.24542 0.87984 0.0
Co47 Co 0.54138 0.33161 0.88472 0.0
O48 O 0.49597 0.30777 0.84579 0.0
C49 C 0.50827 0.3194 0.97217 0.0
C50 C 0.54851 0.19279 0.97435 0.0
C51 C 0.47784 0.27099 0.85133 0.0
O52 O 0.50709 0.2785 0.96683 0.0
O53 O 0.52393 0.34547 0.94467 0.0
O54 O 0.5735 0.21593 0.88057 0.0
O55 O 0.57389 0.28349 0.90015 0.0
Co56 Co 0.12162 0.01101 0.27727 0.0
O57 O 0.16105 0.97539 0.24781 0.0
O58 O 0.16021 0.98745 0.31768 0.0
C59 C 0.06242 0.98518 0.2426 0.0
O60 O 0.08494 0.0433 0.31994 0.0
Co61 Co 0.06906 0.07689 0.2304 0.0
O62 O 0.03367 0.07371 0.283 0.0
C63 C 0.16134 0.09505 0.24497 0.0
C64 C 0.1773 0.96852 0.285 0.0
C65 C 0.04916 0.0616 0.31802 0.0
O66 O 0.16226 0.06234 0.26907 0.0
O67 O 0.12789 0.10496 0.22476 0.0
O68 O 0.07728 0.96467 0.27453 0.0
O69 O 0.0854 0.01822 0.23086 0.0
Co70 Co 0.2319 0.91141 0.54315 0.0
O71 O 0.21265 0.95324 0.58368 0.0
O72 O 0.18379 0.93952 0.51997 0.0
C73 C 0.23868 0.85866 0.58981 0.0
O74 O 0.24049 0.86926 0.49381 0.0
Co75 Co 0.3214 0.87307 0.54967 0.0
O76 O 0.29307 0.82749 0.51286 0.0
C77 C 0.31441 0.96112 0.52036 0.0
C78 C 0.1835 0.96109 0.55587 0.0
C79 C 0.26113 0.83507 0.48956 0.0
O80 O 0.2734 0.95519 0.51781 0.0
O81 O 0.33873 0.93351 0.53527 0.0
O82 O 0.20126 0.8659 0.57432 0.0
O83 O 0.26932 0.88566 0.57974 0.0
Co84 Co 0.40722 0.05014 0.79039 0.0
O85 O 0.36441 0.07717 0.75776 0.0
O86 O 0.36499 0.07374 0.82821 0.0
C87 C 0.46337 0.07844 0.75313 0.0
O88 O 0.44576 0.02735 0.83619 0.0
Co89 Co 0.47028 0.98695 0.75029 0.0
O90 O 0.49896 0.99111 0.80678 0.0
C91 C 0.37825 0.9629 0.75804 0.0
C92 C 0.34664 0.0867 0.79404 0.0
C93 C 0.48067 0.00776 0.83895 0.0
O94 O 0.37323 0.99381 0.78508 0.0
O95 O 0.41293 0.95776 0.73726 0.0
O96 O 0.44638 0.10067 0.78377 0.0
O97 O 0.445 0.0415 0.74523 0.0
Co98 Co 0.26993 0.12321 0.0295 0.0
O99 O 0.28729 0.08187 0.06985 0.0
O100 O 0.3217 0.09783 0.00994 0.0
C101 C 0.25583 0.17573 0.07741 0.0
O102 O 0.26408 0.16416 0.98042 0.0
Co103 Co 0.17785 0.15582 0.02867 0.0
O104 O 0.19971 0.19271 0.98199 0.0
C105 C 0.19263 0.06761 0.0015 0.0
C106 C 0.31917 0.0753 0.04421 0.0
C107 C 0.23677 0.18926 0.96565 0.0
O108 O 0.23317 0.07708 -0.00072 0.0
O109 O 0.16585 0.09339 0.0167 0.0
O110 O 0.29496 0.17026 0.06506 0.0
O111 O 0.22763 0.14736 0.0635 0.0
Co112 Co 0.76391 0.41783 0.04515 0.0
O113 O 0.75452 0.46614 0.08254 0.0
O114 O 0.71865 0.45031 0.02288 0.0
C115 C 0.76718 0.36891 0.09662 0.0
O116 O 0.76108 0.37048 -0.00038 0.0
Co117 Co 0.84484 0.36452 0.04801 0.0
O118 O 0.80658 0.32113 0.01793 0.0
C119 C 0.84949 0.44907 0.00768 0.0
C120 C 0.72407 0.47497 0.05649 0.0
C121 C 0.77483 0.3327 0.99648 0.0
O122 O 0.80871 0.45211 0.01191 0.0
O123 O 0.86972 0.41812 0.02225 0.0
O124 O 0.73028 0.38054 0.08337 0.0
O125 O 0.80015 0.38967 0.08125 0.0
Co126 Co 0.90124 0.54707 0.28914 0.0
O127 O 0.86057 0.58016 0.2601 0.0
O128 O 0.86281 0.57225 0.33004 0.0
C129 C 0.95882 0.57235 0.25187 0.0
O130 O 0.93864 0.51748 0.33185 0.0
Co131 Co 0.95464 0.47988 0.24192 0.0
O132 O 0.98134 0.47202 0.29818 0.0
C133 C 0.86195 0.46329 0.25453 0.0
C134 C 0.84459 0.58869 0.29748 0.0
C135 C 0.96803 0.49028 0.33204 0.0
O136 O 0.86126 0.49474 0.28169 0.0
O137 O 0.89514 0.45469 0.23268 0.0
O138 O 0.94484 0.59407 0.28446 0.0
O139 O 0.93657 0.53791 0.24188 0.0
Co140 Co 0.79653 0.63519 0.53744 0.0
O141 O 0.81409 0.59655 0.58043 0.0
O142 O 0.85026 0.61184 0.52137 0.0
C143 C 0.77709 0.68719 0.58357 0.0
O144 O 0.79243 0.67436 0.48674 0.0
Co145 Co 0.70448 0.66687 0.52885 0.0
O146 O 0.72907 0.70456 0.48431 0.0
C147 C 0.72245 0.57809 0.50478 0.0
C148 C 0.84768 0.59111 0.55673 0.0
C149 C 0.76683 0.70011 0.47025 0.0
O150 O 0.76316 0.58656 0.50722 0.0
O151 O 0.69449 0.60473 0.51522 0.0
O152 O 0.81719 0.68407 0.5733 0.0
O153 O 0.75102 0.65791 0.56779 0.0
Co154 Co 0.61798 0.51784 0.77313 0.0
O155 O 0.6572 0.48122 0.7446 0.0
O156 O 0.65596 0.49414 0.81427 0.0
C157 C 0.55852 0.49253 0.73821 0.0
O158 O 0.5815 0.55166 0.81448 0.0
Co159 Co 0.56904 0.58408 0.72213 0.0
O160 O 0.5419 0.5964 0.77803 0.0
C161 C 0.66119 0.59722 0.73611 0.0
C162 C 0.67315 0.47462 0.78197 0.0
C163 C 0.55332 0.58 0.81281 0.0
O164 O 0.65936 0.56868 0.76507 0.0
O165 O 0.62991 0.60444 0.7116 0.0
O166 O 0.57283 0.47216 0.77051 0.0
O167 O 0.58242 0.52475 0.72609 0.0
H168 H 0.94401 0.40707 0.71626 0.0
H169 H 0.95686 0.28135 0.76446 0.0
H170 H 0.03657 0.32644 0.6602 0.0
H171 H 0.99316 0.23534 0.65361 0.0
H172 H 0.0804 0.15314 0.71203 0.0
H173 H 0.0597 0.27582 0.76949 0.0
C174 C 0.96061 0.37758 0.71646 0.0
C175 C 0.99257 0.37106 0.68598 0.0
C176 C 0.94695 0.34548 0.74444 0.0
C177 C 0.96724 0.30657 0.74308 0.0
C178 C 1.00036 0.29991 0.71338 0.0
C179 C 0.0122 0.3319 0.68408 0.0
C180 C 0.02224 0.25931 0.71284 0.0
C181 C 0.01464 0.22889 0.6795 0.0
C182 C 0.03498 0.19011 0.67987 0.0
C183 C 0.06319 0.18229 0.71305 0.0
C184 C 0.07283 0.21301 0.74507 0.0
C185 C 0.05199 0.25155 0.74514 0.0
H186 H 0.93031 0.63574 0.78008 0.0
H187 H 0.04303 0.6934 0.83925 0.0
H188 H 0.98798 0.75185 0.73034 0.0
H189 H 0.08477 0.74486 0.7264 0.0
H190 H 0.14741 0.8452 0.8026 0.0
H191 H 0.03299 0.78094 0.84944 0.0
C192 C 0.95657 0.65982 0.77982 0.0
C193 C 0.95608 0.693 0.7507 0.0
C194 C 0.98734 0.66011 0.812 0.0
C195 C 0.01958 0.6927 0.81376 0.0
C196 C 0.02099 0.72496 0.78328 0.0
C197 C 0.98873 0.72548 0.75205 0.0
C198 C 0.05429 0.7598 0.78687 0.0
C199 C 0.08567 0.76533 0.75476 0.0
C200 C 0.11918 0.79638 0.76058 0.0
C201 C 0.12107 0.82156 0.79796 0.0
C202 C 0.09043 0.8161 0.82999 0.0
C203 C 0.05669 0.78547 0.82439 0.0
H204 H 0.4317 0.89572 0.20298 0.0
H205 H 0.46981 0.78522 0.26841 0.0
H206 H 0.52828 0.81938 0.14778 0.0
H207 H 0.51203 0.7354 0.14976 0.0
H208 H 0.59947 0.66286 0.21983 0.0
H209 H 0.55889 0.78117 0.27325 0.0
C210 C 0.45274 0.86946 0.20549 0.0
C211 C 0.48119 0.86143 0.17213 0.0
C212 C 0.44792 0.84198 0.23987 0.0
C213 C 0.47386 0.80698 0.24213 0.0
C214 C 0.50392 0.79919 0.20954 0.0
C215 C 0.50667 0.82604 0.17391 0.0
C216 C 0.53083 0.76183 0.21202 0.0
C217 C 0.53087 0.73127 0.17822 0.0
C218 C 0.55489 0.69503 0.18163 0.0
C219 C 0.57932 0.68991 0.21827 0.0
C220 C 0.58149 0.72081 0.25109 0.0
C221 C 0.55693 0.75679 0.24815 0.0
H222 H 0.38277 0.19953 0.33418 0.0
H223 H 0.50748 0.22289 0.38829 0.0
H224 H 0.47664 0.27789 0.26739 0.0
H225 H 0.55482 0.26327 0.26208 0.0
H226 H 0.65303 0.3334 0.3335 0.0
H227 H 0.5348 0.29695 0.39519 0.0
C228 C 0.41444 0.21543 0.33293 0.0
C229 C 0.4262 0.23956 0.29735 0.0
C230 C 0.44353 0.20919 0.36553 0.0
C231 C 0.48482 0.22823 0.36307 0.0
C232 C 0.49698 0.25408 0.32839 0.0
C233 C 0.46766 0.25888 0.29477 0.0
C234 C 0.53997 0.27646 0.32881 0.0
C235 C 0.56611 0.27776 0.29198 0.0
C236 C 0.60737 0.29744 0.29441 0.0
C237 C 0.62194 0.31627 0.3329 0.0
C238 C 0.59628 0.31634 0.36935 0.0
C239 C 0.55519 0.2964 0.36717 0.0
H240 H 0.74306 0.92241 0.38257 0.0
H241 H 0.79035 0.96982 0.26286 0.0
H242 H 0.66777 0.00593 0.31111 0.0
H243 H 0.66728 0.98502 0.22344 0.0
H244 H 0.71274 0.09068 0.14794 0.0
H245 H 0.77822 0.06335 0.26356 0.0
C246 C 0.74032 0.94361 0.35589 0.0
C247 C 0.70269 0.96506 0.35127 0.0
C248 C 0.77169 0.94443 0.3239 0.0
C249 C 0.76668 0.9698 0.28822 0.0
C250 C 0.72978 0.99313 0.28411 0.0
C251 C 0.69722 0.98981 0.3152 0.0
C252 C 0.72488 0.01959 0.24637 0.0
C253 C 0.69087 0.01081 0.21755 0.0
C254 C 0.68724 0.03583 0.18133 0.0
C255 C 0.71715 0.06979 0.17457 0.0
C256 C 0.74937 0.08043 0.2044 0.0
C257 C 0.75366 0.05487 0.24002 0.0
H258 H 0.10649 0.31369 0.47129 0.0
H259 H 0.17832 0.37188 0.57592 0.0
H260 H 0.22299 0.26005 0.51061 0.0
H261 H 0.2251 0.25394 0.60431 0.0
H262 H 0.34576 0.31374 0.64327 0.0
H263 H 0.26692 0.37732 0.55562 0.0
C264 C 0.13277 0.31293 0.49378 0.0
C265 C 0.16356 0.28262 0.4877 0.0
C266 C 0.13776 0.34531 0.52519 0.0
C267 C 0.17365 0.34639 0.55219 0.0
C268 C 0.20363 0.31446 0.54822 0.0
C269 C 0.19868 0.28303 0.5155 0.0
C270 C 0.24188 0.31517 0.57602 0.0
C271 C 0.24893 0.28019 0.6023 0.0
C272 C 0.28667 0.27968 0.62637 0.0
C273 C 0.31709 0.31369 0.62375 0.0
C274 C 0.31025 0.34892 0.59878 0.0
C275 C 0.27229 0.35007 0.57519 0.0
H276 H 0.82027 0.13841 0.85378 0.0
H277 H 0.737 0.0635 0.76881 0.0
H278 H 0.85988 0.01833 0.8046 0.0
H279 H 0.85331 0.01246 0.72228 0.0
H280 H 0.7808 0.90133 0.67621 0.0
H281 H 0.73173 0.97561 0.78034 0.0
C282 C 0.81419 0.11022 0.83349 0.0
C283 C 0.84445 0.07923 0.83146 0.0
C284 C 0.7754 0.10474 0.81138 0.0
C285 C 0.76683 0.06767 0.7863 0.0
C286 C 0.79787 0.03678 0.78283 0.0
C287 C 0.83627 0.04239 0.80626 0.0
C288 C 0.7919 -0.0002 0.75302 0.0
C289 C 0.82457 0.9916 0.72329 0.0
C290 C 0.82103 0.95555 0.6962 0.0
C291 C 0.78375 0.9292 0.6974 0.0
C292 C 0.75181 0.93558 0.72785 0.0
C293 C 0.75567 0.97114 0.75581 0.0
H294 H 0.37592 0.73278 0.93041 0.0
H295 H 0.31975 0.69068 0.04849 0.0
H296 H 0.2534 0.77614 0.96856 0.0
H297 H 0.28258 0.7877 0.0817 0.0
H298 H 0.1588 0.74635 0.12892 0.0
H299 H 0.21005 0.68363 0.01842 0.0
C300 C 0.3504 0.73406 0.95392 0.0
C301 C 0.31496 0.75785 0.94554 0.0
C302 C 0.35228 0.70947 0.99047 0.0
C303 C 0.31855 0.70963 0.02005 0.0
C304 C 0.28322 0.73453 0.01266 0.0
C305 C 0.28108 0.75794 0.97491 0.0
C306 C 0.24896 0.73715 0.04479 0.0
C307 C 0.25339 0.76767 0.0784 0.0
C308 C 0.22036 0.77143 0.10829 0.0
C309 C 0.18333 0.7448 0.10438 0.0
C310 C 0.17953 0.71264 0.07292 0.0
C311 C 0.21247 0.70875 0.04276 0.0
H312 H 0.60799 0.823 0.97582 0.0
H313 H 0.68487 0.8755 0.07947 0.0
H314 H 0.71735 0.75779 0.01669 0.0
H315 H 0.7272 0.74911 0.10275 0.0
H316 H 0.84853 0.80638 0.14314 0.0
H317 H 0.76672 0.87722 0.06509 0.0
C318 C 0.63354 0.81957 0.99868 0.0
C319 C 0.66095 0.78598 0.9933 0.0
C320 C 0.64205 0.85203 0.0294 0.0
C321 C 0.67737 0.84971 0.05665 0.0
C322 C 0.70371 0.81468 0.05342 0.0
C323 C 0.69544 0.78312 0.02141 0.0
C324 C 0.74267 0.81302 0.07998 0.0
C325 C 0.75081 0.77568 0.10237 0.0
C326 C 0.78932 0.77319 0.12479 0.0
C327 C 0.81934 0.80774 0.12459 0.0
C328 C 0.81134 0.84522 0.1037 0.0
C329 C 0.77277 0.84819 0.08163 0.0
H330 H 0.32186 0.63434 0.35532 0.0
H331 H 0.24866 0.55803 0.26338 0.0
H332 H 0.36926 0.51604 0.31009 0.0
H333 H 0.37225 0.49997 0.23543 0.0
H334 H 0.30048 0.39188 0.18175 0.0
H335 H 0.23818 0.47749 0.26728 0.0
C336 C 0.31872 0.60618 0.33454 0.0
C337 C 0.3504 0.57655 0.33482 0.0
C338 C 0.28227 0.59991 0.30902 0.0
C339 C 0.27678 0.56273 0.28341 0.0
C340 C 0.3086 0.53236 0.28304 0.0
C341 C 0.34497 0.53937 0.30945 0.0
C342 C 0.30535 0.49397 0.25429 0.0
C343 C 0.34229 0.48117 0.23239 0.0
C344 C 0.34095 0.44375 0.20713 0.0
C345 C 0.30209 0.42035 0.20217 0.0
C346 C 0.26513 0.43218 0.22345 0.0
C347 C 0.26654 0.46901 0.2498 0.0
H348 H 0.88445 0.2291 0.43537 0.0
H349 H 0.82581 0.18865 0.55303 0.0
H350 H 0.7639 0.27716 0.4731 0.0
H351 H 0.79074 0.28884 0.5854 0.0
H352 H 0.66385 0.25282 0.6281 0.0
H353 H 0.71791 0.18499 0.52232 0.0
C354 C 0.85926 0.23163 0.45906 0.0
C355 C 0.82468 0.25659 0.45049 0.0
C356 C 0.8599 0.20665 0.49553 0.0
C357 C 0.82593 0.2081 0.52486 0.0
C358 C 0.79187 0.23457 0.51733 0.0
C359 C 0.79089 0.25806 0.4797 0.0
C360 C 0.7571 0.2383 0.5486 0.0
C361 C 0.76108 0.2697 0.58136 0.0
C362 C 0.727 0.27538 0.6096 0.0
C363 C 0.68924 0.24997 0.60462 0.0
C364 C 0.68594 0.21672 0.57428 0.0
C365 C 0.71999 0.21086 0.54587 0.0
H366 H 0.23058 0.43124 0.88881 0.0
H367 H 0.25645 0.4621 0.75815 0.0
H368 H 0.16023 0.52733 0.82919 0.0
H369 H 0.135 0.50317 0.74502 0.0
H370 H 0.18217 0.59608 0.65568 0.0
H371 H 0.26485 0.55681 0.75491 0.0
C372 C 0.22605 0.45166 0.86184 0.0
C373 C 0.19403 0.48113 0.86401 0.0
C374 C 0.24804 0.44388 0.82372 0.0
C375 C 0.24007 0.46837 0.78802 0.0
C376 C 0.20923 0.49939 0.79027 0.0
C377 C 0.1854 0.50489 0.82797 0.0
C378 C 0.20152 0.52539 0.75281 0.0
C379 C 0.16109 0.52353 0.73279 0.0
C380 C 0.15465 0.54846 0.69704 0.0
C381 C 0.18819 0.57528 0.68201 0.0
C382 C 0.22772 0.579 0.70288 0.0
C383 C 0.23454 0.55359 0.73811 0.0
H384 H 0.01335 0.37486 0.04994 0.0
H385 H 0.14094 0.32993 0.06084 0.0
H386 H 0.04034 0.43052 0.00167 0.0
H387 H 0.16772 0.38523 0.013 0.0
H388 H 0.21706 0.49544 0.94686 0.0
H389 H 0.17918 0.46422 0.00785 0.0
H390 H 0.07075 0.42937 0.92689 0.0
H391 H 0.10861 0.46107 0.86611 0.0
C392 C 0.04715 0.37705 0.04223 0.0
C393 C 0.07504 0.3479 0.0589 0.0
C394 C 0.06254 0.40893 0.01473 0.0
C395 C 0.10618 0.41258 0.004 0.0
C396 C 0.13406 0.38385 0.02138 0.0
C397 C 0.11865 0.35179 0.04837 0.0
C398 C 0.18431 0.48301 0.94272 0.0
C399 C 0.16584 0.48015 0.90188 0.0
C400 C 0.16284 0.46471 0.97742 0.0
C401 C 0.12261 0.44324 0.97175 0.0
C402 C 0.10181 0.44554 0.93217 0.0
C403 C 0.12335 0.46395 0.89739 0.0
H404 H 0.92509 0.82444 0.30291 0.0
H405 H 0.95587 0.69357 0.32152 0.0
H406 H 0.86848 0.80041 0.25348 0.0
H407 H 0.89896 0.66953 0.27069 0.0
H408 H 0.85044 0.71493 0.11772 0.0
H409 H 0.8933 0.69916 0.17992 0.0
H410 H 0.7938 0.74192 0.26269 0.0
H411 H 0.75084 0.75839 0.20068 0.0
C412 C 0.91966 0.79051 0.2965 0.0
C413 C 0.94507 0.76092 0.3158 0.0
C414 C 0.88695 0.77674 0.26864 0.0
C415 C 0.87911 0.73313 0.25899 0.0
C416 C 0.9042 0.70323 0.27823 0.0
C417 C 0.93663 0.71703 0.30707 0.0
C418 C 0.83626 0.71788 0.14917 0.0
C419 C 0.79785 0.73883 0.1545 0.0
C420 C 0.86102 0.70923 0.18481 0.0
C421 C 0.84709 0.72097 0.22577 0.0
C422 C 0.80523 0.73396 0.23111 0.0
C423 C 0.78038 0.74245 0.19562 0.0
H424 H 0.5329 0.70412 0.50975 0.0
H425 H 0.46307 0.60468 0.57792 0.0
H426 H 0.50674 0.673 0.44218 0.0
H427 H 0.43395 0.57529 0.51101 0.0
H428 H 0.38762 0.52127 0.3884 0.0
H429 H 0.43838 0.54029 0.44567 0.0
H430 H 0.44482 0.67119 0.40427 0.0
H431 H 0.39754 0.65122 0.34563 0.0
C432 C 0.51169 0.67567 0.51013 0.0
C433 C 0.49948 0.65705 0.54888 0.0
C434 C 0.49649 0.65784 0.47146 0.0
C435 C 0.46753 0.62185 0.4708 0.0
C436 C 0.45665 0.6025 0.5098 0.0
C437 C 0.4729 0.61962 0.54835 0.0
C438 C 0.40126 0.55369 0.39078 0.0
C439 C 0.38789 0.58499 0.36321 0.0
C440 C 0.42982 0.56485 0.42403 0.0
C441 C 0.44501 0.60762 0.43062 0.0
C442 C 0.43429 0.63792 0.40057 0.0
C443 C 0.40655 0.6266 0.36705 0.0
H444 H 0.61713 0.33492 0.85197 0.0
H445 H 0.62577 0.20151 0.81763 0.0
H446 H 0.66543 0.35443 0.79321 0.0
H447 H 0.67394 0.22108 0.75913 0.0
H448 H 0.77684 0.25472 0.67473 0.0
H449 H 0.74915 0.25616 0.74727 0.0
H450 H 0.65729 0.34644 0.71106 0.0
H451 H 0.68452 0.34413 0.63802 0.0
C452 C 0.6295 0.30976 0.83203 0.0
C453 C 0.61767 0.26661 0.83931 0.0
C454 C 0.65722 0.32102 0.79856 0.0
C455 C 0.67403 0.28928 0.77223 0.0
C456 C 0.66227 0.24619 0.77966 0.0
C457 C 0.63434 0.23496 0.81283 0.0
C458 C 0.75281 0.27717 0.68292 0.0
C459 C 0.73212 0.29859 0.65076 0.0
C460 C 0.73628 0.27725 0.7243 0.0
C461 C 0.70028 0.30037 0.73435 0.0
C462 C 0.68493 0.3281 0.70407 0.0
C463 C 0.70104 0.32744 0.66242 0.0
H464 H 0.08256 0.72588 0.55472 0.0
H465 H 0.00211 0.62929 0.48923 0.0
H466 H 0.0911 0.67769 0.61373 0.0
H467 H 0.01175 0.58048 0.54809 0.0
H468 H 0.1253 0.51001 0.6236 0.0
H469 H 0.08097 0.54609 0.57322 0.0
H470 H 0.04895 0.63656 0.67257 0.0
H471 H 0.09292 0.59995 0.72294 0.0
C472 C 0.06643 0.69447 0.55313 0.0
C473 C 0.04195 0.68125 0.5173 0.0
C474 C 0.07084 0.66704 0.58715 0.0
C475 C 0.05149 0.6255 0.58575 0.0
C476 C 0.02645 0.61246 0.5502 0.0
C477 C 0.0212 0.64032 0.51651 0.0
C478 C 0.10637 0.53573 0.63532 0.0
C479 C 0.11256 0.55239 0.67696 0.0
C480 C 0.08132 0.55674 0.60637 0.0
C481 C 0.06267 0.59487 0.61878 0.0
C482 C 0.06359 0.60759 0.6621 0.0
C483 C 0.0882 0.58625 0.69111 0.0
H484 H 0.62586 0.81375 0.74395 0.0
H485 H 0.58406 0.68028 0.74134 0.0
H486 H 0.65407 0.80654 0.81575 0.0
H487 H 0.61139 0.67347 0.81422 0.0
H488 H 0.72297 0.77926 0.93345 0.0
H489 H 0.71164 0.76002 0.85807 0.0
H490 H 0.58096 0.71868 0.88559 0.0
H491 H 0.59198 0.73872 0.96097 0.0
C492 C 0.62314 0.78277 0.75856 0.0
C493 C 0.60249 0.7477 0.73725 0.0
C494 C 0.63954 0.77857 0.7995 0.0
C495 C 0.63479 0.73945 0.82034 0.0
C496 C 0.61533 0.70391 0.79868 0.0
C497 C 0.59975 0.70788 0.75713 0.0
C498 C 0.69245 0.76418 0.92377 0.0
C499 C 0.65826 0.7606 0.95288 0.0
C500 C 0.68595 0.75343 0.88065 0.0
C501 C 0.64541 0.73819 0.86622 0.0
C502 C 0.61259 0.73005 0.89609 0.0
C503 C 0.61885 0.74154 0.93913 0.0
H504 H 0.4715 0.39524 0.98072 0.0
H505 H 0.5059 0.28631 0.05237 0.0
H506 H 0.44195 0.42719 0.0445 0.0
H507 H 0.47854 0.31949 0.11754 0.0
H508 H 0.36678 0.36236 0.20249 0.0
H509 H 0.41445 0.33322 0.14988 0.0
H510 H 0.45208 0.46108 0.11026 0.0
H511 H 0.40106 0.4899 0.16083 0.0
C512 C 0.47326 0.37841 0.01044 0.0
C513 C 0.49053 0.3381 0.01156 0.0
C514 C 0.45685 0.39704 0.04732 0.0
C515 C 0.45805 0.37627 0.08661 0.0
C516 C 0.47641 0.33624 0.08785 0.0
C517 C 0.49205 0.31712 0.05057 0.0
C518 C 0.38559 0.38429 0.18278 0.0
C519 C 0.37907 0.42829 0.18461 0.0
C520 C 0.41347 0.36757 0.15283 0.0
C521 C 0.43633 0.39461 0.12467 0.0
C522 C 0.43373 0.43913 0.13027 0.0
C523 C 0.40504 0.45583 0.15974 0.0
H524 H 0.89865 0.18088 0.23055 0.0
H525 H 0.94055 0.31279 0.21351 0.0
H526 H 0.84666 0.20268 0.28331 0.0
H527 H 0.88887 0.33461 0.26705 0.0
H528 H 0.76836 0.23547 0.3868 0.0
H529 H 0.78558 0.24106 0.31087 0.0
H530 H 0.89666 0.32329 0.34292 0.0
H531 H 0.87907 0.31775 0.41817 0.0
C532 C 0.89595 0.21463 0.2373 0.0
C533 C 0.92445 0.245 0.21881 0.0
C534 C 0.8657 0.22729 0.26718 0.0
C535 C 0.86378 0.27052 0.27965 0.0
C536 C 0.88948 0.30117 0.25802 0.0
C537 C 0.91927 0.28856 0.22755 0.0
C538 C 0.79494 0.25672 0.37724 0.0
C539 C 0.82284 0.27571 0.40802 0.0
C540 C 0.80507 0.25959 0.33383 0.0
C541 C 0.84317 0.28152 0.32094 0.0
C542 C 0.86712 0.30602 0.35157 0.0
C543 C 0.85711 0.30293 0.39485 0.0
H544 H 0.9632 0.06023 0.32706 0.0
H545 H 0.08058 0.08301 0.39809 0.0
H546 H 0.92236 0.08365 0.38842 0.0
H547 H 0.03933 0.1073 0.46018 0.0
H548 H 0.94626 0.22237 0.49789 0.0
H549 H 0.99776 0.1744 0.46774 0.0
H550 H 0.89992 0.07198 0.46414 0.0
H551 H 0.84838 0.12032 0.4941 0.0
C552 C 0.9802 0.06962 0.35618 0.0
C553 C 0.02504 0.07031 0.35766 0.0
C554 C 0.95675 0.08254 0.39162 0.0
C555 C 0.97756 0.09717 0.42934 0.0
C556 C 0.02243 0.09605 0.43159 0.0
C557 C 0.04598 0.0822 0.39614 0.0
C558 C 0.93648 0.18898 0.49288 0.0
C559 C 0.8933 0.17511 0.4977 0.0
C560 C 0.96597 0.16145 0.47552 0.0
C561 C 0.95253 0.11974 0.46244 0.0
C562 C 0.91093 0.10422 0.47324 0.0
C563 C 0.8815 0.13174 0.49084 0.0
H564 H 0.18298 0.7907 0.60406 0.0
H565 H 0.31449 0.83632 0.62383 0.0
H566 H 0.19914 0.7225 0.63479 0.0
H567 H 0.33011 0.76802 0.65546 0.0
H568 H 0.25627 0.64485 0.75473 0.0
H569 H 0.27191 0.71716 0.72953 0.0
H570 H 0.27685 0.6687 0.59993 0.0
H571 H 0.26196 0.59624 0.62494 0.0
C572 C 0.21516 0.78633 0.61522 0.0
C573 C 0.24748 0.8187 0.61129 0.0
C574 C 0.22438 0.74741 0.63269 0.0
C575 C 0.2659 0.74036 0.64684 0.0
C576 C 0.29802 0.77296 0.64436 0.0
C577 C 0.28893 0.81184 0.62636 0.0
C578 C 0.26352 0.64928 0.72122 0.0
C579 C 0.25727 0.61524 0.69159 0.0
C580 C 0.27208 0.69071 0.70683 0.0
C581 C 0.27468 0.69812 0.66292 0.0
C582 C 0.27487 0.66344 0.63397 0.0
C583 C 0.2666 0.62207 0.6483 0.0
H584 H 0.45492 0.94291 0.88903 0.0
H585 H 0.54459 0.05165 0.88338 0.0
H586 H 0.49093 0.91807 0.95153 0.0
H587 H 0.58005 0.02842 0.94785 0.0
H588 H 0.67116 0.92585 0.99488 0.0
H589 H 0.62695 0.97627 0.96086 0.0
H590 H 0.51461 0.91724 0.02084 0.0
H591 H 0.55934 0.86482 0.05234 0.0
C592 C 0.48164 0.96222 0.90232 0.0
C593 C 0.49736 0.99881 0.88148 0.0
C594 C 0.50224 0.94829 0.93854 0.0
C595 C 0.53906 0.97083 0.95496 0.0
C596 C 0.55253 0.00955 0.93576 0.0
C597 C 0.53213 0.02314 0.89903 0.0
C598 C 0.63725 0.92492 0.00219 0.0
C599 C 0.61853 0.89135 0.02576 0.0
C600 C 0.61161 0.95391 0.98259 0.0
C601 C 0.56667 0.95011 0.98661 0.0
C602 C 0.54883 0.92017 0.01548 0.0
C603 C 0.57445 0.89052 0.03423 0.0
H604 H 0.17521 0.20071 0.09621 0.0
H605 H 0.3091 0.23413 0.11941 0.0
H606 H 0.15561 0.26266 0.13992 0.0
H607 H 0.28919 0.29549 0.16322 0.0
H608 H 0.20671 0.42674 0.15935 0.0
H609 H 0.19087 0.3568 0.12567 0.0
H610 H 0.22925 0.29657 0.2407 0.0
H611 H 0.2441 0.36632 0.27456 0.0
C612 C 0.20041 0.22115 0.11067 0.0
C613 C 0.2438 0.21271 0.10417 0.0
C614 C 0.18905 0.25646 0.13557 0.0
C615 C 0.22086 0.28337 0.15488 0.0
C616 C 0.26412 0.27484 0.1487 0.0
C617 C 0.2755 0.2399 0.12354 0.0
C618 C 0.20818 0.39864 0.17867 0.0
C619 C 0.22775 0.40179 0.21909 0.0
C620 C 0.19983 0.35854 0.15908 0.0
C621 C 0.2103 0.32161 0.18024 0.0
C622 C 0.22162 0.32472 0.22356 0.0
C623 C 0.22925 0.36476 0.24329 0.0
H624 H 0.01691 0.90885 0.24782 0.0
H625 H 0.01726 0.03121 0.1871 0.0
H626 H 0.9534 0.88484 0.20642 0.0
H627 H 0.95327 0.0071 0.14636 0.0
H628 H 0.80401 0.91845 0.15045 0.0
H629 H 0.86465 0.96036 0.18291 0.0
H630 H 0.95223 0.89045 0.10536 0.0
H631 H 0.89191 0.8491 0.07265 0.0
C632 C 0.00314 0.93075 0.22614 0.0
C633 C 0.02212 0.97178 0.22053 0.0
C634 C 0.96698 0.91702 0.20249 0.0
C635 C 0.94892 0.94429 0.17339 0.0
C636 C 0.96684 0.98573 0.16872 0.0
C637 C 0.00339 0.99932 0.19195 0.0
C638 C 0.83607 0.91391 0.13863 0.0
C639 C 0.84349 0.88101 0.10882 0.0
C640 C 0.87064 0.93742 0.15751 0.0
C641 C 0.91272 0.92805 0.14669 0.0
C642 C 0.91991 0.89807 0.11399 0.0
C643 C 0.88549 0.87486 0.09499 0.0
H644 H 0.25463 0.74984 0.49903 0.0
H645 H 0.23683 0.84753 0.40693 0.0
H646 H 0.23849 0.6949 0.44461 0.0
H647 H 0.22216 0.79221 0.35152 0.0
H648 H 0.28968 0.67859 0.27583 0.0
H649 H 0.2695 0.74076 0.31724 0.0
H650 H 0.18576 0.66021 0.39437 0.0
H651 H 0.20815 0.59755 0.35421 0.0
C652 C 0.24668 0.75943 0.4671 0.0
C653 C 0.2473 0.80273 0.45696 0.0
C654 C 0.23681 0.728 0.43601 0.0
C655 C 0.22824 0.73911 0.39375 0.0
C656 C 0.22775 0.78263 0.38388 0.0
C657 C 0.23644 0.81424 0.41546 0.0
C658 C 0.26476 0.6745 0.29973 0.0
C659 C 0.25094 0.63331 0.31232 0.0
C660 C 0.25341 0.71019 0.32376 0.0
C661 C 0.22696 0.70523 0.35978 0.0
C662 C 0.20704 0.6648 0.36733 0.0
C663 C 0.21907 0.62897 0.34374 0.0
H664 H 0.51196 0.03271 0.69896 0.0
H665 H 0.49194 0.16164 0.74268 0.0
H666 H 0.56255 0.05965 0.64538 0.0
H667 H 0.54295 0.18867 0.68899 0.0
H668 H 0.60122 0.22916 0.56649 0.0
H669 H 0.54556 0.19184 0.60843 0.0
H670 H 0.63489 0.09784 0.64177 0.0
H671 H 0.69041 0.13528 0.59972 0.0
C672 C 0.51873 0.06684 0.69741 0.0
C673 C 0.49801 0.09514 0.72501 0.0
C674 C 0.54765 0.08219 0.66664 0.0
C675 C 0.55611 0.12622 0.66247 0.0
C676 C 0.53628 0.15454 0.69087 0.0
C677 C 0.5076 0.13913 0.72201 0.0
C678 C 0.60816 0.19923 0.58091 0.0
C679 C 0.64997 0.18497 0.57985 0.0
C680 C 0.57667 0.17843 0.60568 0.0
C681 C 0.58635 0.14277 0.62942 0.0
C682 C 0.6266 0.12544 0.62402 0.0
C683 C 0.65823 0.14644 0.59937 0.0
H684 H 0.3175 0.21459 0.93781 0.0
H685 H 0.18335 0.22499 0.91 0.0
H686 H 0.33589 0.26886 0.88473 0.0
H687 H 0.20142 0.27885 0.8579 0.0
H688 H 0.22733 0.37645 0.77164 0.0
H689 H 0.23471 0.30329 0.79219 0.0
H690 H 0.32423 0.34615 0.89084 0.0
H691 H 0.31565 0.41971 0.87081 0.0
C692 C 0.29202 0.22778 0.9198 0.0
C693 C 0.24889 0.21643 0.92896 0.0
C694 C 0.30257 0.25879 0.8894 0.0
C695 C 0.27018 0.27852 0.86729 0.0
C696 C 0.22734 0.26423 0.87394 0.0
C697 C 0.21685 0.23373 0.90443 0.0
C698 C 0.25063 0.37007 0.79592 0.0
C699 C 0.27033 0.40364 0.82019 0.0
C700 C 0.25461 0.32797 0.80802 0.0
C701 C 0.27923 0.31875 0.84387 0.0
C702 C 0.30483 0.35197 0.8632 0.0
C703 C 0.30018 0.39423 0.8516 0.0
H704 H 0.40207 0.07152 0.01578 0.0
H705 H 0.30596 0.00509 0.09235 0.0
H706 H 0.45329 0.01733 0.03264 0.0
H707 H 0.35631 0.95076 0.1078 0.0
H708 H 0.43598 0.84125 0.10075 0.0
H709 H 0.40189 0.8937 0.05749 0.0
H710 H 0.48185 0.99451 0.1165 0.0
H711 H 0.51513 0.94202 0.16066 0.0
C712 C 0.39179 0.04516 0.03576 0.0
C713 C 0.35012 0.04257 0.053 0.0
C714 C 0.421 0.01426 0.04525 0.0
C715 C 0.4084 0.9797 0.07094 0.0
C716 C 0.36653 0.97678 0.08734 0.0
C717 C 0.33787 0.00807 0.07884 0.0
C718 C 0.44805 0.87426 0.10257 0.0
C719 C 0.47816 0.88769 0.13386 0.0
C720 C 0.42827 0.90429 0.07815 0.0
C721 C 0.4389 0.94806 0.08423 0.0
C722 C 0.47323 0.96091 0.11119 0.0
C723 C 0.49251 0.93089 0.13621 0.0
H724 H 0.93155 0.44522 0.97859 0.0
H725 H 0.82475 0.52732 0.98256 0.0
H726 H 0.97246 0.49747 0.93662 0.0
H727 H 0.86627 0.57975 0.94053 0.0
H728 H 0.98982 0.57387 0.80732 0.0
H729 H 0.96077 0.52354 0.85997 0.0
H730 H 0.93637 0.62875 0.94632 0.0
H731 H 0.96619 0.67896 0.89375 0.0
C732 C 0.91684 0.47455 0.97087 0.0
C733 C 0.87467 0.48198 0.98379 0.0
C734 C 0.94038 0.50438 0.94677 0.0
C735 C 0.92253 0.54255 0.93552 0.0
C736 C 0.88088 0.55068 0.94928 0.0
C737 C 0.85703 0.52054 0.973 0.0
C738 C 0.97968 0.58592 0.83821 0.0
C739 C 0.98061 0.62996 0.84697 0.0
C740 C 0.96292 0.55731 0.86819 0.0
C741 C 0.94606 0.57244 0.90695 0.0
C742 C 0.94896 0.61642 0.91652 0.0
C743 C 0.96644 0.645 0.88681 0.0
H744 H 0.80117 0.62527 0.23421 0.0
H745 H 0.80188 0.61088 0.37115 0.0
H746 H 0.73734 0.66599 0.24034 0.0
H747 H 0.73734 0.6522 0.37695 0.0
H748 H 0.5869 0.65918 0.31039 0.0
H749 H 0.65478 0.63307 0.33484 0.0
H750 H 0.72167 0.74463 0.28445 0.0
H751 H 0.65398 0.7709 0.26049 0.0
C752 C 0.78807 0.6312 0.2657 0.0
C753 C 0.80683 0.61501 0.30219 0.0
C754 C 0.75171 0.65485 0.2692 0.0
C755 C 0.73343 0.66343 0.30921 0.0
C756 C 0.75162 0.64695 0.34587 0.0
C757 C 0.78835 0.62323 0.34244 0.0
C758 C 0.61584 0.67941 0.30712 0.0
C759 C 0.61532 0.71697 0.28347 0.0
C760 C 0.6547 0.66433 0.32086 0.0
C761 C 0.69339 0.68651 0.31077 0.0
C762 C 0.69226 0.72685 0.29234 0.0
C763 C 0.65342 0.74217 0.27908 0.0
H764 H 0.7549 0.50048 0.52003 0.0
H765 H 0.65191 0.5602 0.45711 0.0
H766 H 0.7214 0.43006 0.50183 0.0
H767 H 0.61972 0.49089 0.43705 0.0
H768 H 0.55105 0.37157 0.41818 0.0
H769 H 0.58163 0.43065 0.46163 0.0
H770 H 0.70753 0.38209 0.4448 0.0
H771 H 0.67626 0.32111 0.40488 0.0
C772 C 0.72551 0.49842 0.5017 0.0
C773 C 0.70592 0.53557 0.48991 0.0
C774 C 0.70615 0.45819 0.49146 0.0
C775 C 0.66726 0.45458 0.4687 0.0
C776 C 0.64866 0.4921 0.45602 0.0
C777 C 0.6675 0.53198 0.46686 0.0
C778 C 0.5849 0.37239 0.42553 0.0
C779 C 0.61147 0.34252 0.40691 0.0
C780 C 0.60268 0.40678 0.44972 0.0
C781 C 0.64738 0.41238 0.45487 0.0
C782 C 0.6731 0.37938 0.44107 0.0
C783 C 0.65517 0.34447 0.41783 0.0
H784 H 0.22724 0.95844 0.35575 0.0
H785 H 0.21072 0.91683 0.22412 0.0
H786 H 0.29187 0.91765 0.36011 0.0
H787 H 0.27414 0.87554 0.22891 0.0
H788 H 0.37674 0.78946 0.24717 0.0
H789 H 0.30643 0.81214 0.27009 0.0
H790 H 0.36463 0.93186 0.31675 0.0
H791 H 0.43475 0.9093 0.29358 0.0
C792 C 0.23693 0.94005 0.32803 0.0
C793 C 0.2141 0.94114 0.28944 0.0
C794 C 0.27376 0.91664 0.33063 0.0
C795 C 0.28774 0.89317 0.29499 0.0
C796 C 0.26374 0.89277 0.25712 0.0
C797 C 0.22763 0.91679 0.25425 0.0
C798 C 0.37473 0.81964 0.26436 0.0
C799 C 0.41103 0.84769 0.26867 0.0
C800 C 0.33447 0.8328 0.277 0.0
C801 C 0.33007 0.87399 0.29447 0.0
C802 C 0.3671 0.89989 0.30353 0.0
C803 C 0.40725 0.88696 0.29042 0.0
H804 H 0.1576 0.98749 0.63409 0.0
H805 H 0.13611 0.00527 0.49964 0.0
H806 H 0.10585 0.04031 0.65161 0.0
H807 H 0.08447 0.05956 0.51746 0.0
H808 H 0.07056 0.19698 0.60102 0.0
H809 H 0.09674 0.13622 0.5602 0.0
H810 H 0.02323 0.04994 0.64086 0.0
H811 H 0.9972 0.11062 0.68147 0.0
C812 C 0.14165 0.00262 0.60826 0.0
C813 C 0.15098 0.99239 0.56554 0.0
C814 C 0.11165 0.03254 0.61828 0.0
C815 C 0.09072 0.05357 0.58586 0.0
C816 C 0.09989 0.04346 0.54298 0.0
C817 C 0.12939 0.01256 0.53288 0.0
C818 C 0.05786 0.16513 0.60815 0.0
C819 C 0.03204 0.15831 0.64439 0.0
C820 C 0.07309 0.13032 0.585 0.0
C821 C 0.06273 0.08849 0.59812 0.0
C822 C 0.03202 0.08192 0.63046 0.0
C823 C 0.01675 0.11661 0.65341 0.0
H824 H 0.77899 0.48082 0.27293 0.0
H825 H 0.85658 0.38269 0.22014 0.0
H826 H 0.7151 0.43373 0.26246 0.0
H827 H 0.79327 0.33493 0.21237 0.0
H828 H 0.67932 0.25628 0.27789 0.0
H829 H 0.74392 0.29732 0.25799 0.0
H830 H 0.66732 0.39617 0.21005 0.0
H831 H 0.60258 0.35573 0.23248 0.0
C832 C 0.7824 0.44922 0.25911 0.0
C833 C 0.8229 0.43528 0.24791 0.0
C834 C 0.74575 0.42242 0.25252 0.0
C835 C 0.74895 0.38082 0.2354 0.0
C836 C 0.78952 0.36702 0.2244 0.0
C837 C 0.82591 0.39423 0.22962 0.0
C838 C 0.67617 0.28536 0.26041 0.0
C839 C 0.63618 0.30338 0.25758 0.0
C840 C 0.71332 0.30933 0.2496 0.0
C841 C 0.7107 0.35071 0.23394 0.0
C842 C 0.67026 0.36492 0.22339 0.0
C843 C 0.6331 0.34121 0.23503 0.0
H844 H 0.70704 0.64579 0.79457 0.0
H845 H 0.70644 0.60287 0.6628 0.0
H846 H 0.77736 0.68207 0.78429 0.0
H847 H 0.77768 0.63684 0.653 0.0
H848 H 0.924 0.63855 0.68879 0.0
H849 H 0.84778 0.62402 0.67689 0.0
H850 H 0.82075 0.73829 0.74908 0.0
H851 H 0.89737 0.75251 0.76128 0.0
C852 C 0.72198 0.64459 0.76334 0.0
C853 C 0.70183 0.62162 0.72948 0.0
C854 C 0.76193 0.6657 0.7572 0.0
C855 C 0.78287 0.66313 0.71741 0.0
C856 C 0.76209 0.6404 0.68357 0.0
C857 C 0.72153 0.62064 0.68928 0.0
C858 C 0.90188 0.66181 0.69995 0.0
C859 C 0.91634 0.69643 0.72615 0.0
C860 C 0.85811 0.65333 0.69347 0.0
C861 C 0.82819 0.67923 0.71324 0.0
C862 C 0.84307 0.71712 0.73445 0.0
C863 C 0.88694 0.72576 0.74069 0.0
H864 H 0.62326 0.78731 0.52192 0.0
H865 H 0.5389 0.88321 0.56704 0.0
H866 H 0.64604 0.83308 0.46294 0.0
H867 H 0.56298 0.92963 0.50852 0.0
H868 H 0.6917 0.99725 0.43168 0.0
H869 H 0.65029 0.96125 0.48845 0.0
H870 H 0.5983 0.86874 0.39596 0.0
H871 H 0.6386 0.90546 0.3392 0.0
C872 C 0.60975 0.81821 0.51931 0.0
C873 C 0.57934 0.83174 0.54898 0.0
C874 C 0.62255 0.84421 0.48548 0.0
C875 C 0.60589 0.88456 0.48123 0.0
C876 C 0.57596 0.89849 0.51115 0.0
C877 C 0.56231 0.87199 0.54447 0.0
C878 C 0.66955 0.97066 0.42332 0.0
C879 C 0.66754 0.95445 0.38118 0.0
C880 C 0.64622 0.94992 0.4557 0.0
C881 C 0.62151 0.91221 0.44635 0.0
C882 C 0.61712 0.89785 0.40375 0.0
C883 C 0.63972 0.91906 0.37132 0.0
H884 H 0.45553 0.19189 0.81636 0.0
H885 H 0.4157 0.32133 0.82614 0.0
H886 H 0.39681 0.17391 0.76568 0.0
H887 H 0.35718 0.30343 0.77705 0.0
H888 H 0.2489 0.27409 0.70361 0.0
H889 H 0.28912 0.25705 0.76732 0.0
H890 H 0.38543 0.20202 0.6884 0.0
H891 H 0.34532 0.21873 0.62467 0.0
C892 C 0.43374 0.21615 0.80831 0.0
C893 C 0.44036 0.25814 0.82456 0.0
C894 C 0.40025 0.20585 0.77949 0.0
C895 C 0.37225 0.23712 0.76771 0.0
C896 C 0.37777 0.27841 0.78595 0.0
C897 C 0.41162 0.28887 0.81368 0.0
C898 C 0.27702 0.25562 0.69996 0.0
C899 C 0.29424 0.24802 0.65929 0.0
C900 C 0.30036 0.24667 0.73636 0.0
C901 C 0.34078 0.22967 0.73262 0.0
C902 C 0.35437 0.21531 0.69228 0.0
C903 C 0.33115 0.22446 0.65574 0.0
H904 H 0.01554 0.10259 0.05062 0.0
H905 H 0.97612 0.22694 0.01528 0.0
H906 H 0.98663 0.07217 0.98375 0.0
H907 H 0.94619 0.1964 0.94938 0.0
H908 H 0.90705 0.14192 0.82549 0.0
H909 H 0.9585 0.16463 0.88108 0.0
H910 H 0.91633 0.05587 0.95565 0.0
H911 H 0.8663 0.03259 0.89905 0.0
C912 C 0.00093 0.12351 0.02854 0.0
C913 C 0.99777 0.16718 0.03857 0.0
C914 C 0.98428 0.10601 0.99023 0.0
C915 C 0.96394 0.13172 0.96117 0.0
C916 C 0.96227 0.17568 0.97056 0.0
C917 C 0.97914 0.1932 0.00866 0.0
C918 C 0.91018 0.12213 0.85311 0.0
C919 C 0.88301 0.08558 0.85824 0.0
C920 C 0.93915 0.13535 0.88517 0.0
C921 C 0.94089 0.11263 0.92329 0.0
C922 C 0.91611 0.07403 0.92667 0.0
C923 C 0.88746 0.06056 0.89428 0.0
H924 H 0.12681 0.70706 0.32616 0.0
H925 H 0.11589 0.84207 0.3507 0.0
H926 H 0.17365 0.72312 0.26556 0.0
H927 H 0.16236 0.85802 0.28977 0.0
H928 H 0.17702 0.83963 0.13592 0.0
H929 H 0.15248 0.84527 0.20969 0.0
H930 H 0.24668 0.75784 0.24695 0.0
H931 H 0.27148 0.75283 0.17345 0.0
C932 C 0.13474 0.74012 0.31888 0.0
C933 C 0.11759 0.77322 0.34311 0.0
C934 C 0.16187 0.74938 0.28443 0.0
C935 C 0.17223 0.79192 0.27337 0.0
C936 C 0.15531 0.82504 0.29781 0.0
C937 C 0.12858 0.81579 0.33258 0.0
C938 C 0.19452 0.82418 0.16048 0.0
C939 C 0.22568 0.79534 0.14908 0.0
C940 C 0.18 0.82679 0.20265 0.0
C941 C 0.19681 0.80083 0.23376 0.0
C942 C 0.2327 0.77758 0.22348 0.0
C943 C 0.24753 0.7754 0.18147 0.0
H944 H 0.59249 0.2054 0.04822 0.0
H945 H 0.52305 0.10786 0.97279 0.0
H946 H 0.6101 0.15209 0.09999 0.0
H947 H 0.54208 0.0539 0.02445 0.0
H948 H 0.68163 0.00925 0.09814 0.0
H949 H 0.63244 0.03816 0.0469 0.0
H950 H 0.56065 0.0915 0.15099 0.0
H951 H 0.609 0.0615 0.20215 0.0
C952 C 0.58076 0.1726 0.04293 0.0
C953 C 0.55655 0.16069 0.00659 0.0
C954 C 0.59049 0.14221 0.07266 0.0
C955 C 0.57698 0.09916 0.06621 0.0
C956 C 0.55238 0.08705 0.03013 0.0
C957 C 0.54162 0.11782 0.00077 0.0
C958 C 0.65359 0.02458 0.11 0.0
C959 C 0.64893 0.03324 0.15393 0.0
C960 C 0.6256 0.04129 0.08074 0.0
C961 C 0.59329 0.06742 0.09523 0.0
C962 C 0.58532 0.07128 0.13924 0.0
C963 C 0.61278 0.05389 0.16847 0.0
H964 H 0.07171 0.18224 0.24057 0.0
H965 H 0.12598 0.31155 0.23885 0.0
H966 H 0.10279 0.17332 0.31162 0.0
H967 H 0.15762 0.30253 0.30876 0.0
H968 H 0.22415 0.28033 0.42563 0.0
H969 H 0.21074 0.26138 0.35052 0.0
H970 H 0.08427 0.21036 0.3832 0.0
H971 H 0.09775 0.22939 0.4582 0.0
C972 C 0.09088 0.20842 0.25508 0.0
C973 C 0.09624 0.24772 0.23456 0.0
C974 C 0.10868 0.20329 0.29558 0.0
C975 C 0.13287 0.23711 0.31561 0.0
C976 C 0.13975 0.27563 0.29394 0.0
C977 C 0.12126 0.281 0.2541 0.0
C978 C 0.19434 0.26315 0.41703 0.0
C979 C 0.16181 0.25668 0.44755 0.0
C980 C 0.1865 0.25268 0.37401 0.0
C981 C 0.14616 0.23524 0.36096 0.0
C982 C 0.11565 0.22378 0.39227 0.0
C983 C 0.12334 0.23465 0.43522 0.0
H984 H 0.95464 0.90678 0.46434 0.0
H985 H 0.99805 0.80866 0.54559 0.0
H986 H 0.91949 0.93986 0.52503 0.0
H987 H 0.96566 0.84317 0.60714 0.0
H988 H 0.85104 0.87646 0.68871 0.0
H989 H 0.89866 0.85 0.63491 0.0
H990 H 0.92305 0.97843 0.58976 0.0
H991 H 0.87188 0.00442 0.64227 0.0
C992 C 0.95707 0.89269 0.49545 0.0
C993 C 0.97828 0.85482 0.50032 0.0
C994 C 0.93744 0.91193 0.53041 0.0
C995 C 0.93947 0.89422 0.5712 0.0
C996 C 0.96238 0.8572 0.57613 0.0
C997 C 0.98101 0.83735 0.54094 0.0
C998 C 0.86659 0.89913 0.66731 0.0
C999 C 0.85679 0.9423 0.66877 0.0
C1000 C 0.89459 0.88403 0.63673 0.0
C1001 C 0.91454 0.9119 0.60739 0.0
C1002 C 0.9074 0.95584 0.61111 0.0
C1003 C 0.87859 0.97091 0.64149 0.0
H1004 H 0.4057 0.68252 0.73533 0.0
H1005 H 0.44535 0.81465 0.71651 0.0
H1006 H 0.34998 0.70397 0.78371 0.0
H1007 H 0.38883 0.83656 0.76534 0.0
H1008 H 0.36571 0.82379 0.91658 0.0
H1009 H 0.3887 0.82925 0.84269 0.0
H1010 H 0.28604 0.73884 0.80466 0.0
H1011 H 0.26342 0.73349 0.87898 0.0
C1012 C 0.40186 0.7163 0.74086 0.0
C1013 C 0.43068 0.74683 0.72307 0.0
C1014 C 0.36936 0.72875 0.76821 0.0
C1015 C 0.3651 0.7721 0.77895 0.0
C1016 C 0.39151 0.8029 0.7581 0.0
C1017 C 0.4239 0.79036 0.73017 0.0
C1018 C 0.34647 0.80724 0.89202 0.0
C1019 C 0.31328 0.77774 0.90335 0.0
C1020 C 0.35972 0.81017 0.84949 0.0
C1021 C 0.34014 0.7833 0.81782 0.0
C1022 C 0.30242 0.75927 0.8284 0.0
C1023 C 0.28906 0.75653 0.87096 0.0
H1024 H 0.53 0.53392 0.88353 0.0
H1025 H 0.53093 0.66026 0.83168 0.0
H1026 H 0.48883 0.5588 0.94558 0.0
H1027 H 0.49159 0.68515 0.89351 0.0
H1028 H 0.43543 0.73319 0.00571 0.0
H1029 H 0.49528 0.69582 0.9753 0.0
H1030 H 0.4101 0.58632 0.94635 0.0
H1031 H 0.35037 0.62379 0.97707 0.0
C1032 C 0.52232 0.56714 0.88594 0.0
C1033 C 0.53333 0.59515 0.85275 0.0
C1034 C 0.49888 0.5813 0.92134 0.0
C1035 C 0.48742 0.62398 0.92458 0.0
C1036 C 0.50055 0.65227 0.89235 0.0
C1037 C 0.52278 0.63794 0.85669 0.0
C1038 C 0.43013 0.70017 0.99531 0.0
C1039 C 0.38842 0.68134 0.99351 0.0
C1040 C 0.46425 0.67893 0.97751 0.0
C1041 C 0.45706 0.6386 0.9576 0.0
C1042 C 0.41657 0.61735 0.96153 0.0
C1043 C 0.38237 0.63868 0.97936 0.0
H1044 H 0.84124 0.33091 0.11506 0.0
H1045 H 0.70403 0.31751 0.13208 0.0
H1046 H 0.84892 0.26286 0.14998 0.0
H1047 H 0.71206 0.2498 0.16755 0.0
H1048 H 0.80445 0.10885 0.14254 0.0
H1049 H 0.81733 0.18378 0.12368 0.0
H1050 H 0.75173 0.22255 0.23828 0.0
H1051 H 0.7402 0.14788 0.25781 0.0
C1052 C 0.81274 0.31366 0.12649 0.0
C1053 C 0.77189 0.32944 0.12059 0.0
C1054 C 0.8173 0.27484 0.14656 0.0
C1055 C 0.78117 0.25157 0.16176 0.0
C1056 C 0.74047 0.26767 0.15668 0.0
C1057 C 0.73583 0.3062 0.13615 0.0
C1058 C 0.79497 0.13359 0.16475 0.0
C1059 C 0.77152 0.12289 0.20161 0.0
C1060 C 0.80205 0.17634 0.1539 0.0
C1061 C 0.78484 0.20866 0.17929 0.0
C1062 C 0.76505 0.19811 0.21818 0.0
C1063 C 0.75888 0.15548 0.22953 0.0
H1064 H 0.97906 0.40954 0.35494 0.0
H1065 H 0.99564 0.53979 0.40159 0.0
H1066 H 0.01253 0.38485 0.41918 0.0
H1067 H 0.03092 0.51488 0.46627 0.0
H1068 H 0.05177 0.33964 0.53799 0.0
H1069 H 0.00159 0.38438 0.50286 0.0
H1070 H 0.10588 0.47327 0.4703 0.0
H1071 H 0.15615 0.42825 0.50534 0.0
C1072 C 0.98961 0.43286 0.37926 0.0
C1073 C 0.98512 0.47653 0.3732 0.0
C1074 C 0.00839 0.41872 0.41627 0.0
C1075 C 0.02404 0.44792 0.4479 0.0
C1076 C 0.01884 0.49173 0.44247 0.0
C1077 C 0.99878 0.50591 0.40561 0.0
C1078 C 0.0636 0.36996 0.52547 0.0
C1079 C 0.10783 0.38029 0.52386 0.0
C1080 C 0.03493 0.39544 0.50514 0.0
C1081 C 0.05003 0.43175 0.48308 0.0
C1082 C 0.09338 0.44547 0.48709 0.0
C1083 C 0.12219 0.41978 0.50733 0.0
H1084 H 0.82463 0.74387 0.63409 0.0
H1085 H 0.69425 0.70388 0.60151 0.0
H1086 H 0.79821 0.79645 0.68504 0.0
H1087 H 0.66798 0.75701 0.65202 0.0
H1088 H 0.68165 0.91377 0.67907 0.0
H1089 H 0.67719 0.84106 0.65008 0.0
H1090 H 0.75156 0.80048 0.7561 0.0
H1091 H 0.75507 0.87315 0.78539 0.0
C1092 C 0.79041 0.74633 0.63777 0.0
C1093 C 0.76161 0.7201 0.61348 0.0
C1094 C 0.77522 0.77587 0.66744 0.0
C1095 C 0.73096 0.78013 0.67302 0.0
C1096 C 0.70214 0.75392 0.64875 0.0
C1097 C 0.71732 0.72389 0.61958 0.0
C1098 C 0.69384 0.8887 0.6981 0.0
C1099 C 0.72051 0.89927 0.73325 0.0
C1100 C 0.69207 0.84707 0.68099 0.0
C1101 C 0.71602 0.81588 0.69981 0.0
C1102 C 0.73396 0.82445 0.74036 0.0
C1103 C 0.73509 0.86595 0.75766 0.0
H1104 H 0.51646 0.41433 0.73949 0.0
H1105 H 0.51235 0.53859 0.68344 0.0
H1106 H 0.45521 0.38889 0.69569 0.0
H1107 H 0.45021 0.51312 0.64038 0.0
H1108 H 0.30392 0.42676 0.63755 0.0
H1109 H 0.36487 0.46945 0.66838 0.0
H1110 H 0.452 0.38982 0.60103 0.0
H1111 H 0.3914 0.34789 0.56968 0.0
C1112 C 0.50214 0.43632 0.71828 0.0
C1113 C 0.51922 0.47835 0.71477 0.0
C1114 C 0.46733 0.42173 0.69313 0.0
C1115 C 0.4485 0.44911 0.66463 0.0
C1116 C 0.46444 0.49155 0.6621 0.0
C1117 C 0.49987 0.50596 0.68669 0.0
C1118 C 0.33607 0.42016 0.62735 0.0
C1119 C 0.34314 0.38437 0.60104 0.0
C1120 C 0.37084 0.44418 0.64535 0.0
C1121 C 0.4128 0.43231 0.63735 0.0
C1122 C 0.41982 0.39936 0.60762 0.0
C1123 C 0.38524 0.37578 0.58932 0.0
H1124 H 0.76367 0.24724 0.005 0.0
H1125 H 0.74033 0.34864 0.91855 0.0
H1126 H 0.7392 0.19466 0.95115 0.0
H1127 H 0.71664 0.29564 0.8638 0.0
H1128 H 0.78114 0.18459 0.78091 0.0
H1129 H 0.76161 0.2456 0.82436 0.0
H1130 H 0.6826 0.16225 0.90337 0.0
H1131 H 0.70392 0.10082 0.86059 0.0
C1132 C 0.75254 0.25822 0.97462 0.0
C1133 C 0.75449 0.30183 0.96563 0.0
C1134 C 0.73784 0.22815 0.94392 0.0
C1135 C 0.72553 0.24097 0.9032 0.0
C1136 C 0.72536 0.28484 0.89499 0.0
C1137 C 0.73919 0.3151 0.9262 0.0
C1138 C 0.75737 0.17967 0.80581 0.0
C1139 C 0.74459 0.13814 0.818 0.0
C1140 C 0.74636 0.21465 0.83099 0.0
C1141 C 0.72165 0.20849 0.86807 0.0
C1142 C 0.70249 0.16772 0.87545 0.0
C1143 C 0.71405 0.1326 0.85054 0.0
H1144 H 0.99143 0.65443 0.24459 0.0
H1145 H 0.00349 0.52645 0.19403 0.0
H1146 H 0.04192 0.68163 0.19059 0.0
H1147 H 0.05418 0.55365 0.14028 0.0
H1148 H 0.18464 0.63039 0.0961 0.0
H1149 H 0.12958 0.59155 0.13781 0.0
H1150 H 0.03981 0.68642 0.10856 0.0
H1151 H 0.09476 0.72489 0.06673 0.0
C1152 C 0.00534 0.6321 0.22238 0.0
C1153 C 0.99356 0.58838 0.2235 0.0
C1154 C 0.03374 0.64766 0.19112 0.0
C1155 C 0.0513 0.61976 0.16076 0.0
C1156 C 0.04091 0.57585 0.16307 0.0
C1157 C 0.01202 0.56036 0.1939 0.0
C1158 C 0.15242 0.64144 0.0965 0.0
C1159 C 0.14381 0.68049 0.07814 0.0
C1160 C 0.12109 0.61963 0.12094 0.0
C1161 C 0.08091 0.63678 0.12741 0.0
C1162 C 0.07086 0.67307 0.10484 0.0
C1163 C 0.10197 0.69458 0.08017 0.0
H1164 H 0.84936 0.72746 0.45127 0.0
H1165 H 0.71869 0.73347 0.40851 0.0
H1166 H 0.87212 0.78172 0.39942 0.0
H1167 H 0.74131 0.78666 0.35695 0.0
H1168 H 0.77384 0.87794 0.26852 0.0
H1169 H 0.78727 0.807 0.29225 0.0
H1170 H 0.84977 0.86081 0.40519 0.0
H1171 H 0.83426 0.93206 0.38231 0.0
C1172 C 0.82574 0.73946 0.43004 0.0
C1173 C 0.7821 0.72692 0.43447 0.0
C1174 C 0.83883 0.77033 0.40036 0.0
C1175 C 0.80857 0.78826 0.37405 0.0
C1176 C 0.76556 0.77297 0.37623 0.0
C1177 C 0.75243 0.74297 0.40631 0.0
C1178 C 0.79309 0.87484 0.2969 0.0
C1179 C 0.80219 0.91022 0.32413 0.0
C1180 C 0.80067 0.83397 0.31061 0.0
C1181 C 0.81879 0.82821 0.35093 0.0
C1182 C 0.8356 0.8642 0.374 0.0
C1183 C 0.82701 0.90513 0.3608 0.0
H1184 H 0.86303 0.56281 0.63622 0.0
H1185 H 0.90841 0.55513 0.50609 0.0
H1186 H 0.91754 0.51541 0.65802 0.0
H1187 H 0.9621 0.50544 0.52781 0.0
H1188 H 0.97293 0.366 0.60152 0.0
H1189 H 0.95004 0.42678 0.5615 0.0
H1190 H 0.00208 0.5128 0.6599 0.0
H1191 H 0.02498 0.45208 0.69972 0.0
C1192 C 0.88493 0.55134 0.61235 0.0
C1193 C 0.88152 0.56287 0.56957 0.0
C1194 C 0.91638 0.52438 0.62484 0.0
C1195 C 0.94449 0.50734 0.59466 0.0
C1196 C 0.94113 0.51859 0.55171 0.0
C1197 C 0.91038 0.54683 0.53938 0.0
C1198 C 0.98188 0.398 0.61317 0.0
C1199 C 1.00006 0.40449 0.65391 0.0
C1200 C 0.96855 0.43282 0.59041 0.0
C1201 C 0.97327 0.47426 0.60834 0.0
C1202 C 0.99755 0.48104 0.64576 0.0
C1203 C 0.011 0.44635 0.66835 0.0
H1204 H 0.27751 0.02232 0.4742 0.0
H1205 H 0.39743 0.99131 0.53114 0.0
H1206 H 0.31208 0.08652 0.44511 0.0
H1207 H 0.43169 0.05627 0.50301 0.0
H1208 H 0.48373 0.13914 0.38993 0.0
H1209 H 0.4538 0.08185 0.43416 0.0
H1210 H 0.34414 0.15592 0.46236 0.0
H1211 H 0.37371 0.2125 0.41699 0.0
C1212 C 0.3111 0.02946 0.48101 0.0
C1213 C 0.33474 0.00145 0.50468 0.0
C1214 C 0.33088 0.06651 0.46463 0.0
C1215 C 0.37468 0.07659 0.47184 0.0
C1216 C 0.39805 0.04916 0.49646 0.0
C1217 C 0.37834 0.01195 0.51263 0.0
C1218 C 0.45387 0.14354 0.40666 0.0
C1219 C 0.43078 0.17987 0.39998 0.0
C1220 C 0.43665 0.11078 0.43195 0.0
C1221 C 0.3962 0.11404 0.45119 0.0
C1222 C 0.37485 0.15201 0.44712 0.0
C1223 C 0.39188 0.18452 0.42155 0.0
H1224 H 0.30971 0.12725 0.72901 0.0
H1225 H 0.29484 0.10155 0.86336 0.0
H1226 H 0.24385 0.16516 0.73048 0.0
H1227 H 0.22822 0.13971 0.86458 0.0
H1228 H 0.08344 0.14814 0.80019 0.0
H1229 H 0.15268 0.12281 0.82216 0.0
H1230 H 0.21615 0.23445 0.76878 0.0
H1231 H 0.14739 0.26055 0.74809 0.0
C1232 C 0.29253 0.12988 0.75895 0.0
C1233 C 0.30743 0.11118 0.79599 0.0
C1234 C 0.25499 0.15198 0.75987 0.0
C1235 C 0.2313 0.15586 0.79778 0.0
C1236 C 0.24612 0.13742 0.83503 0.0
C1237 C 0.28415 0.11561 0.83425 0.0
C1238 C 0.11214 0.16836 0.79535 0.0
C1239 C 0.11016 0.20637 0.77259 0.0
C1240 C 0.15172 0.15377 0.80769 0.0
C1241 C 0.18981 0.1766 0.79665 0.0
C1242 C 0.18735 0.21646 0.77763 0.0
C1243 C 0.1479 0.23153 0.76614 0.0
H1244 H 0.11071 0.03324 0.00777 0.0
H1245 H 0.23567 0.00664 0.95757 0.0
H1246 H 0.08136 0.9661 0.97703 0.0
H1247 H 0.20597 0.93996 0.92603 0.0
H1248 H 0.15238 0.81237 0.88943 0.0
H1249 H 0.17505 0.86933 0.94018 0.0
H1250 H 0.06549 0.9393 0.9053 0.0
H1251 H 0.04255 0.88157 0.85546 0.0
C1252 C 0.13202 0.01306 0.99028 0.0
C1253 C 0.17556 0.02558 0.98479 0.0
C1254 C 0.11509 0.97457 0.97265 0.0
C1255 C 0.14124 0.94769 0.94907 0.0
C1256 C 0.18504 0.95959 0.94463 0.0
C1257 C 0.20203 0.99805 0.96239 0.0
C1258 C 0.13234 0.83921 0.89412 0.0
C1259 C 0.09568 0.84279 0.869 0.0
C1260 C 0.14557 0.87205 0.92262 0.0
C1261 C 0.12256 0.90921 0.92612 0.0
C1262 C 0.08383 0.91101 0.90356 0.0
C1263 C 0.07049 0.87796 0.87516 0.0
H1264 H 0.70671 0.42225 0.72174 0.0
H1265 H 0.72311 0.46508 0.85298 0.0
H1266 H 0.77039 0.38142 0.72682 0.0
H1267 H 0.78779 0.4244 0.8578 0.0
H1268 H 0.93151 0.41212 0.79879 0.0
H1269 H 0.86094 0.43594 0.81865 0.0
H1270 H 0.80256 0.31901 0.76575 0.0
H1271 H 0.8731 0.29534 0.74519 0.0
C1272 C 0.72361 0.42253 0.75189 0.0
C1273 C 0.70994 0.44714 0.78685 0.0
C1274 C 0.75993 0.39877 0.75492 0.0
C1275 C 0.78396 0.39945 0.7928 0.0
C1276 C 0.7698 0.42318 0.82825 0.0
C1277 C 0.73286 0.44648 0.82543 0.0
C1278 C 0.90367 0.39076 0.79297 0.0
C1279 C 0.90772 0.3521 0.77001 0.0
C1280 C 0.86325 0.40439 0.80434 0.0
C1281 C 0.82614 0.3797 0.79274 0.0
C1282 C 0.83058 0.33894 0.77421 0.0
C1283 C 0.87102 0.32517 0.76299 0.0
H1284 H 0.71251 0.51463 0.13331 0.0
H1285 H 0.66841 0.51175 0.00256 0.0
H1286 H 0.65984 0.56656 0.15197 0.0
H1287 H 0.61607 0.56494 0.02144 0.0
H1288 H 0.5939 0.70766 0.10491 0.0
H1289 H 0.63028 0.65212 0.06472 0.0
H1290 H 0.5673 0.55586 0.14238 0.0
H1291 H 0.53063 0.61108 0.182 0.0
C1292 C 0.69196 0.52547 0.10844 0.0
C1293 C 0.69462 0.50914 0.06648 0.0
C1294 C 0.66164 0.5549 0.1192 0.0
C1295 C 0.63381 0.56919 0.08815 0.0
C1296 C 0.63713 0.55408 0.04586 0.0
C1297 C 0.66705 0.52383 0.03518 0.0
C1298 C 0.58582 0.67444 0.11149 0.0
C1299 C 0.55955 0.66348 0.14645 0.0
C1300 C 0.6069 0.64275 0.08879 0.0
C1301 C 0.60189 0.60002 0.10107 0.0
C1302 C 0.57163 0.58869 0.13252 0.0
C1303 C 0.55038 0.62018 0.15487 0.0
H1304 H 0.33725 0.90853 0.81279 0.0
H1305 H 0.33894 0.94903 0.68208 0.0
H1306 H 0.27795 0.85677 0.796 0.0
H1307 H 0.27834 0.89877 0.66561 0.0
H1308 H 0.13063 0.85603 0.69995 0.0
H1309 H 0.20041 0.89282 0.68957 0.0
H1310 H 0.26101 0.78982 0.75002 0.0
H1311 H 0.19113 0.7528 0.75999 0.0
C1312 C 0.3247 0.90629 0.78055 0.0
C1313 C 0.34209 0.9326 0.74872 0.0
C1314 C 0.2913 0.8764 0.77071 0.0
C1315 C 0.27419 0.87311 0.72912 0.0
C1316 C 0.29146 0.89995 0.69752 0.0
C1317 C 0.32574 0.92888 0.70704 0.0
C1318 C 0.15912 0.83984 0.70815 0.0
C1319 C 0.15565 0.80196 0.7312 0.0
C1320 C 0.19906 0.86122 0.70289 0.0
C1321 C 0.23574 0.84469 0.7206 0.0
C1322 C 0.23291 0.80344 0.73709 0.0
C1323 C 0.19305 0.7819 0.74194 0.0
H1324 H 0.16885 0.17854 0.22129 0.0
H1325 H 0.24359 0.07286 0.25605 0.0
H1326 H 0.23417 0.22395 0.21625 0.0
H1327 H 0.30891 0.11789 0.24887 0.0
H1328 H 0.42345 0.19037 0.22545 0.0
H1329 H 0.35578 0.15875 0.19785 0.0
H1330 H 0.28772 0.25361 0.26842 0.0
H1331 H 0.35536 0.28538 0.29509 0.0
C1332 C 0.19921 0.16488 0.22728 0.0
C1333 C 0.20099 0.12225 0.23974 0.0
C1334 C 0.23668 0.19086 0.22377 0.0
C1335 C 0.27681 0.17443 0.23089 0.0
C1336 C 0.27859 0.13136 0.24202 0.0
C1337 C 0.24111 0.10569 0.24678 0.0
C1338 C 0.39425 0.20624 0.23249 0.0
C1339 C 0.3944 0.23987 0.26277 0.0
C1340 C 0.35541 0.18763 0.21744 0.0
C1341 C 0.31644 0.20269 0.23238 0.0
C1342 C 0.31714 0.24103 0.25652 0.0
C1343 C 0.356 0.25962 0.2715 0.0
loop_
_geom_bond_atom_site_label_1
_geom_bond_atom_site_label_2
_geom_bond_distance
_geom_bond_site_symmetry_2
_ccdc_geom_bond_type
Co0 O1 2.216 . S
Co0 O2 2.091 . S
Co0 O4 2.004 1_455 S
Co0 O10 2.021 1_455 S
Co0 O12 2.137 . S
Co0 O13 2.244 . S
O1 Co0 2.216 . S
O1 C8 1.247 . S
O2 Co0 2.091 . S
O2 C8 1.261 . S
C3 O12 1.247 . S
C3 O13 1.272 . S
O4 Co0 2.004 1_655 S
O4 C9 1.259 . S
Co5 O6 2.061 1_455 S
Co5 O11 2.052 1_455 S
Co5 O13 2.135 . S
O6 Co5 2.061 1_655 S
O6 C9 1.235 . S
C7 O10 1.238 . S
C7 O11 1.241 . S
C8 O1 1.247 . S
C8 O2 1.261 . S
C9 O4 1.259 . S
C9 O6 1.235 . S
O10 Co0 2.021 1_655 S
O10 C7 1.238 . S
O11 Co5 2.052 1_655 S
O11 C7 1.241 . S
O12 Co0 2.137 . S
O12 C3 1.247 . S
O13 Co0 2.244 . S
O13 C3 1.272 . S
O13 Co5 2.135 . S
Co14 O15 2.216 . S
Co14 O16 2.091 1_455 S
Co14 O18 2.004 1_455 S
Co14 O24 2.021 1_455 S
Co14 O26 2.137 . S
Co14 O27 2.244 . S
O15 Co14 2.216 . S
O15 C22 1.247 . S
O16 Co14 2.091 1_655 S
O16 C22 1.258 1_655 S
C17 O26 1.247 . S
C17 O27 1.272 . S
O18 Co14 2.004 1_655 S
O18 C23 1.259 . S
Co19 O20 2.061 1_455 S
Co19 O25 2.052 1_455 S
Co19 O27 2.135 . S
O20 Co19 2.061 1_655 S
O20 C23 1.235 . S
C21 O24 1.238 . S
C21 O25 1.241 . S
C22 O15 1.247 . S
C22 O16 1.258 1_455 S
C23 O18 1.259 . S
C23 O20 1.235 . S
O24 Co14 2.021 1_655 S
O24 C21 1.238 . S
O25 Co19 2.052 1_655 S
O25 C21 1.241 . S
O26 Co14 2.137 . S
O26 C17 1.247 . S
O27 Co14 2.244 . S
O27 C17 1.272 . S
O27 Co19 2.135 . S
Co28 O29 2.216 . S
Co28 O30 2.091 . S
Co28 O32 2.004 . S
Co28 O38 2.021 . S
Co28 O40 2.137 . S
Co28 O41 2.244 . S
O29 Co28 2.216 . S
O29 C36 1.247 . S
O30 Co28 2.091 . S
O30 C36 1.261 . S
C31 O40 1.247 . S
C31 O41 1.272 . S
O32 Co28 2.004 . S
O32 C37 1.259 . S
Co33 O34 2.061 . S
Co33 O39 2.052 . S
Co33 O41 2.135 . S
O34 Co33 2.061 . S
O34 C37 1.235 . S
C35 O38 1.238 . S
C35 O39 1.241 . S
C36 O29 1.247 . S
C36 O30 1.261 . S
C37 O32 1.259 . S
C37 O34 1.235 . S
O38 Co28 2.021 . S
O38 C35 1.238 . S
O39 Co33 2.052 . S
O39 C35 1.241 . S
O40 Co28 2.137 . S
O40 C31 1.247 . S
O41 Co28 2.244 . S
O41 C31 1.272 . S
O41 Co33 2.135 . S
Co42 O43 2.216 . S
Co42 O44 2.091 . S
Co42 O46 2.004 . S
Co42 O52 2.021 . S
Co42 O54 2.137 . S
Co42 O55 2.244 . S
O43 Co42 2.216 . S
O43 C50 1.247 . S
O44 Co42 2.091 . S
O44 C50 1.261 . S
C45 O54 1.247 . S
C45 O55 1.272 . S
O46 Co42 2.004 . S
O46 C51 1.259 . S
Co47 O48 2.061 . S
Co47 O53 2.052 . S
Co47 O55 2.135 . S
O48 Co47 2.061 . S
O48 C51 1.235 . S
C49 O52 1.238 . S
C49 O53 1.241 . S
C50 O43 1.247 . S
C50 O44 1.261 . S
C51 O46 1.259 . S
C51 O48 1.235 . S
O52 Co42 2.021 . S
O52 C49 1.238 . S
O53 Co47 2.052 . S
O53 C49 1.241 . S
O54 Co42 2.137 . S
O54 C45 1.247 . S
O55 Co42 2.244 . S
O55 C45 1.272 . S
O55 Co47 2.135 . S
Co56 O57 2.216 . S
Co56 O58 2.091 . S
Co56 O60 2.004 1_565 S
Co56 O66 2.021 1_565 S
Co56 O68 2.137 . S
Co56 O69 2.244 1_565 S
O57 Co56 2.216 . S
O57 C64 1.247 . S
O58 Co56 2.091 . S
O58 C64 1.261 . S
C59 O68 1.247 . S
C59 O69 1.272 1_565 S
O60 Co56 2.004 1_545 S
O60 C65 1.259 . S
Co61 O62 2.061 . S
Co61 O67 2.052 . S
Co61 O69 2.135 . S
O62 Co61 2.061 . S
O62 C65 1.235 . S
C63 O66 1.238 . S
C63 O67 1.241 . S
C64 O57 1.247 . S
C64 O58 1.261 . S
C65 O60 1.259 . S
C65 O62 1.235 . S
O66 Co56 2.021 1_545 S
O66 C63 1.238 . S
O67 Co61 2.052 . S
O67 C63 1.241 . S
O68 Co56 2.137 . S
O68 C59 1.247 . S
O69 Co56 2.244 1_545 S
O69 C59 1.272 1_545 S
O69 Co61 2.135 . S
Co70 O71 2.216 . S
Co70 O72 2.091 . S
Co70 O74 2.004 . S
Co70 O80 2.021 . S
Co70 O82 2.137 . S
Co70 O83 2.244 . S
O71 Co70 2.216 . S
O71 C78 1.247 . S
O72 Co70 2.091 . S
O72 C78 1.261 . S
C73 O82 1.247 . S
C73 O83 1.272 . S
O74 Co70 2.004 . S
O74 C79 1.259 . S
Co75 O76 2.061 . S
Co75 O81 2.052 . S
Co75 O83 2.135 . S
O76 Co75 2.061 . S
O76 C79 1.235 . S
C77 O80 1.238 . S
C77 O81 1.241 . S
C78 O71 1.247 . S
C78 O72 1.261 . S
C79 O74 1.259 . S
C79 O76 1.235 . S
O80 Co70 2.021 . S
O80 C77 1.238 . S
O81 Co75 2.052 . S
O81 C77 1.241 . S
O82 Co70 2.137 . S
O82 C73 1.247 . S
O83 Co70 2.244 . S
O83 C73 1.272 . S
O83 Co75 2.135 . S
Co84 O85 2.216 . S
Co84 O86 2.091 . S
Co84 O88 2.004 . S
Co84 O94 2.021 . S
Co84 O96 2.137 . S
Co84 O97 2.244 . S
O85 Co84 2.216 . S
O85 C92 1.247 . S
O86 Co84 2.091 . S
O86 C92 1.261 . S
C87 O96 1.247 . S
C87 O97 1.272 . S
O88 Co84 2.004 . S
O88 C93 1.259 . S
Co89 O90 2.061 . S
Co89 O95 2.052 . S
Co89 O97 2.135 1_565 S
O90 Co89 2.061 . S
O90 C93 1.235 1_565 S
C91 O94 1.238 1_565 S
C91 O95 1.241 . S
C92 O85 1.247 . S
C92 O86 1.261 . S
C93 O88 1.259 . S
C93 O90 1.235 1_545 S
O94 Co84 2.021 . S
O94 C91 1.238 1_545 S
O95 Co89 2.052 . S
O95 C91 1.241 . S
O96 Co84 2.137 . S
O96 C87 1.247 . S
O97 Co84 2.244 . S
O97 C87 1.272 . S
O97 Co89 2.135 1_545 S
Co98 O99 2.216 . S
Co98 O100 2.091 1_554 S
Co98 O102 2.004 1_554 S
Co98 O108 2.021 1_554 S
Co98 O110 2.137 . S
Co98 O111 2.244 . S
O99 Co98 2.216 . S
O99 C106 1.247 . S
O100 Co98 2.091 1_556 S
O100 C106 1.261 1_556 S
C101 O110 1.247 . S
C101 O111 1.272 . S
O102 Co98 2.004 1_556 S
O102 C107 1.259 . S
Co103 O104 2.061 1_554 S
Co103 O109 2.052 1_554 S
Co103 O111 2.135 . S
O104 Co103 2.061 1_556 S
O104 C107 1.235 . S
C105 O108 1.238 . S
C105 O109 1.241 . S
C106 O99 1.247 . S
C106 O100 1.261 1_554 S
C107 O102 1.259 . S
C107 O104 1.235 . S
O108 Co98 2.021 1_556 S
O108 C105 1.238 . S
O109 Co103 2.052 1_556 S
O109 C105 1.241 . S
O110 Co98 2.137 . S
O110 C101 1.247 . S
O111 Co98 2.244 . S
O111 C101 1.272 . S
O111 Co103 2.135 . S
Co112 O113 2.216 . S
Co112 O114 2.091 . S
Co112 O116 2.004 1_554 S
Co112 O122 2.021 1_554 S
Co112 O124 2.137 . S
Co112 O125 2.244 . S
O113 Co112 2.216 . S
O113 C120 1.247 . S
O114 Co112 2.091 . S
O114 C120 1.261 . S
C115 O124 1.247 . S
C115 O125 1.272 . S
O116 Co112 2.004 1_556 S
O116 C121 1.259 . S
Co117 O118 2.061 1_554 S
Co117 O123 2.052 . S
Co117 O125 2.135 . S
O118 Co117 2.061 1_556 S
O118 C121 1.235 . S
C119 O122 1.238 . S
C119 O123 1.241 1_556 S
C120 O113 1.247 . S
C120 O114 1.261 . S
C121 O116 1.259 . S
C121 O118 1.235 . S
O122 Co112 2.021 1_556 S
O122 C119 1.238 . S
O123 Co117 2.052 . S
O123 C119 1.241 1_554 S
O124 Co112 2.137 . S
O124 C115 1.247 . S
O125 Co112 2.244 . S
O125 C115 1.272 . S
O125 Co117 2.135 . S
Co126 O127 2.216 . S
Co126 O128 2.091 . S
Co126 O130 2.004 . S
Co126 O136 2.021 . S
Co126 O138 2.137 . S
Co126 O139 2.244 . S
O127 Co126 2.216 . S
O127 C134 1.247 . S
O128 Co126 2.091 . S
O128 C134 1.261 . S
C129 O138 1.247 . S
C129 O139 1.272 . S
O130 Co126 2.004 . S
O130 C135 1.259 . S
Co131 O132 2.061 . S
Co131 O137 2.052 . S
Co131 O139 2.135 . S
O132 Co131 2.061 . S
O132 C135 1.235 . S
C133 O136 1.238 . S
C133 O137 1.241 . S
C134 O127 1.247 . S
C134 O128 1.261 . S
C135 O130 1.259 . S
C135 O132 1.235 . S
O136 Co126 2.021 . S
O136 C133 1.238 . S
O137 Co131 2.052 . S
O137 C133 1.241 . S
O138 Co126 2.137 . S
O138 C129 1.247 . S
O139 Co126 2.244 . S
O139 C129 1.272 . S
O139 Co131 2.135 . S
Co140 O141 2.216 . S
Co140 O142 2.091 . S
Co140 O144 2.004 . S
Co140 O150 2.021 . S
Co140 O152 2.137 . S
Co140 O153 2.244 . S
O141 Co140 2.216 . S
O141 C148 1.247 . S
O142 Co140 2.091 . S
O142 C148 1.261 . S
C143 O152 1.247 . S
C143 O153 1.272 . S
O144 Co140 2.004 . S
O144 C149 1.259 . S
Co145 O146 2.061 . S
Co145 O151 2.052 . S
Co145 O153 2.135 . S
O146 Co145 2.061 . S
O146 C149 1.235 . S
C147 O150 1.238 . S
C147 O151 1.241 . S
C148 O141 1.247 . S
C148 O142 1.261 . S
C149 O144 1.259 . S
C149 O146 1.235 . S
O150 Co140 2.021 . S
O150 C147 1.238 . S
O151 Co145 2.052 . S
O151 C147 1.241 . S
O152 Co140 2.137 . S
O152 C143 1.247 . S
O153 Co140 2.244 . S
O153 C143 1.272 . S
O153 Co145 2.135 . S
Co154 O155 2.216 . S
Co154 O156 2.091 . S
Co154 O158 2.004 . S
Co154 O164 2.021 . S
Co154 O166 2.137 . S
Co154 O167 2.244 . S
O155 Co154 2.216 . S
O155 C162 1.247 . S
O156 Co154 2.091 . S
O156 C162 1.261 . S
C157 O166 1.247 . S
C157 O167 1.272 . S
O158 Co154 2.004 . S
O158 C163 1.259 . S
Co159 O160 2.061 . S
Co159 O165 2.052 . S
Co159 O167 2.135 . S
O160 Co159 2.061 . S
O160 C163 1.235 . S
C161 O164 1.238 . S
C161 O165 1.241 . S
C162 O155 1.247 . S
C162 O156 1.261 . S
C163 O158 1.259 . S
C163 O160 1.235 . S
O164 Co154 2.021 . S
O164 C161 1.238 . S
O165 Co159 2.052 . S
O165 C161 1.241 . S
O166 Co154 2.137 . S
O166 C157 1.247 . S
O167 Co154 2.244 . S
O167 C157 1.272 . S
O167 Co159 2.135 . S
H168 C174 0.930 . S
H169 C177 0.931 . S
H170 C179 0.931 . S
H171 C181 0.930 . S
H172 C183 0.930 . S
H173 C185 0.931 . S
C174 H168 0.930 . S
C174 C175 1.380 . S
C174 C176 1.394 . S
C175 C174 1.380 . S
C175 C179 1.382 . S
C176 C174 1.394 . S
C176 C177 1.400 . S
C177 H169 0.931 . S
C177 C176 1.400 . S
C177 C178 1.375 . S
C178 C177 1.375 . S
C178 C179 1.415 . S
C178 C180 1.501 1_655 S
C179 H170 0.931 . S
C179 C175 1.382 . S
C179 C178 1.415 . S
C180 C178 1.501 1_455 S
C180 C181 1.384 . S
C180 C185 1.408 . S
C181 H171 0.930 . S
C181 C180 1.384 . S
C181 C182 1.389 . S
C182 C181 1.389 . S
C182 C183 1.405 . S
C183 H172 0.930 . S
C183 C182 1.405 . S
C183 C184 1.364 . S
C184 C183 1.364 . S
C184 C185 1.400 . S
C185 H173 0.931 . S
C185 C180 1.408 . S
C185 C184 1.400 . S
H186 C192 0.930 . S
H187 C195 0.931 1_455 S
H188 C197 0.931 . S
H189 C199 0.930 . S
H190 C201 0.930 . S
H191 C203 0.931 . S
C192 H186 0.930 . S
C192 C193 1.380 . S
C192 C194 1.394 . S
C193 C192 1.380 . S
C193 C197 1.382 . S
C194 C192 1.394 . S
C194 C195 1.400 . S
C195 H187 0.931 1_655 S
C195 C194 1.400 . S
C195 C196 1.375 . S
C196 C195 1.375 . S
C196 C197 1.415 . S
C196 C198 1.501 1_655 S
C197 H188 0.931 . S
C197 C193 1.382 . S
C197 C196 1.415 . S
C198 C196 1.501 1_455 S
C198 C199 1.384 . S
C198 C203 1.408 . S
C199 H189 0.930 . S
C199 C198 1.384 . S
C199 C200 1.389 . S
C200 C199 1.389 . S
C200 C201 1.405 . S
C201 H190 0.930 . S
C201 C200 1.405 . S
C201 C202 1.364 . S
C202 C201 1.364 . S
C202 C203 1.400 . S
C203 H191 0.931 . S
C203 C198 1.408 . S
C203 C202 1.400 . S
H204 C210 0.930 . S
H205 C213 0.931 . S
H206 C215 0.931 . S
H207 C217 0.930 . S
H208 C219 0.930 . S
H209 C221 0.931 . S
C210 H204 0.930 . S
C210 C211 1.380 . S
C210 C212 1.394 . S
C211 C210 1.380 . S
C211 C215 1.382 . S
C212 C210 1.394 . S
C212 C213 1.400 . S
C213 H205 0.931 . S
C213 C212 1.400 . S
C213 C214 1.375 . S
C214 C213 1.375 . S
C214 C215 1.415 . S
C214 C216 1.501 . S
C215 H206 0.931 . S
C215 C211 1.382 . S
C215 C214 1.415 . S
C216 C214 1.501 . S
C216 C217 1.384 . S
C216 C221 1.408 . S
C217 H207 0.930 . S
C217 C216 1.384 . S
C217 C218 1.389 . S
C218 C217 1.389 . S
C218 C219 1.405 . S
C219 H208 0.930 . S
C219 C218 1.405 . S
C219 C220 1.364 . S
C220 C219 1.364 . S
C220 C221 1.400 . S
C221 H209 0.931 . S
C221 C216 1.408 . S
C221 C220 1.400 . S
H222 C228 0.930 . S
H223 C231 0.931 . S
H224 C233 0.931 . S
H225 C235 0.930 . S
H226 C237 0.930 . S
H227 C239 0.931 . S
C228 H222 0.930 . S
C228 C229 1.380 . S
C228 C230 1.394 . S
C229 C228 1.380 . S
C229 C233 1.382 . S
C230 C228 1.394 . S
C230 C231 1.400 . S
C231 H223 0.931 . S
C231 C230 1.400 . S
C231 C232 1.375 . S
C232 C231 1.375 . S
C232 C233 1.415 . S
C232 C234 1.501 . S
C233 H224 0.931 . S
C233 C229 1.382 . S
C233 C232 1.415 . S
C234 C232 1.501 . S
C234 C235 1.384 . S
C234 C239 1.408 . S
C235 H225 0.930 . S
C235 C234 1.384 . S
C235 C236 1.389 . S
C236 C235 1.389 . S
C236 C237 1.405 . S
C237 H226 0.930 . S
C237 C236 1.405 . S
C237 C238 1.364 . S
C238 C237 1.364 . S
C238 C239 1.400 . S
C239 H227 0.931 . S
C239 C234 1.408 . S
C239 C238 1.400 . S
H240 C246 0.930 . S
H241 C249 0.927 1_545 S
H242 C251 0.938 . S
H243 C253 0.930 . S
H244 C255 0.930 . S
H245 C257 0.931 . S
C246 H240 0.930 . S
C246 C247 1.380 . S
C246 C248 1.394 . S
C247 C246 1.380 . S
C247 C251 1.372 1_565 S
C248 C246 1.394 . S
C248 C249 1.400 . S
C249 H241 0.927 1_565 S
C249 C248 1.400 . S
C249 C250 1.375 1_565 S
C250 C249 1.375 1_545 S
C250 C251 1.419 . S
C250 C252 1.501 . S
C251 H242 0.938 . S
C251 C247 1.372 1_545 S
C251 C250 1.419 . S
C252 C250 1.501 . S
C252 C253 1.384 . S
C252 C257 1.408 . S
C253 H243 0.930 . S
C253 C252 1.384 . S
C253 C254 1.389 . S
C254 C253 1.389 . S
C254 C255 1.405 . S
C255 H244 0.930 . S
C255 C254 1.405 . S
C255 C256 1.364 . S
C256 C255 1.364 . S
C256 C257 1.400 . S
C257 H245 0.931 . S
C257 C252 1.408 . S
C257 C256 1.400 . S
H258 C264 0.930 . S
H259 C267 0.931 . S
H260 C269 0.931 . S
H261 C271 0.930 . S
H262 C273 0.930 . S
H263 C275 0.931 . S
C264 H258 0.930 . S
C264 C265 1.380 . S
C264 C266 1.394 . S
C265 C264 1.380 . S
C265 C269 1.382 . S
C266 C264 1.394 . S
C266 C267 1.400 . S
C267 H259 0.931 . S
C267 C266 1.400 . S
C267 C268 1.375 . S
C268 C267 1.375 . S
C268 C269 1.415 . S
C268 C270 1.501 . S
C269 H260 0.931 . S
C269 C265 1.382 . S
C269 C268 1.415 . S
C270 C268 1.501 . S
C270 C271 1.384 . S
C270 C275 1.408 . S
C271 H261 0.930 . S
C271 C270 1.384 . S
C271 C272 1.389 . S
C272 C271 1.389 . S
C272 C273 1.405 . S
C273 H262 0.930 . S
C273 C272 1.405 . S
C273 C274 1.364 . S
C274 C273 1.364 . S
C274 C275 1.400 . S
C275 H263 0.931 . S
C275 C270 1.408 . S
C275 C274 1.400 . S
H276 C282 0.930 . S
H277 C285 0.931 . S
H278 C287 0.931 . S
H279 C289 0.930 . S
H280 C291 0.930 . S
H281 C293 0.931 . S
C282 H276 0.930 . S
C282 C283 1.380 . S
C282 C284 1.394 . S
C283 C282 1.380 . S
C283 C287 1.382 . S
C284 C282 1.394 . S
C284 C285 1.400 . S
C285 H277 0.931 . S
C285 C284 1.400 . S
C285 C286 1.375 . S
C286 C285 1.375 . S
C286 C287 1.415 . S
C286 C288 1.501 1_545 S
C287 H278 0.931 . S
C287 C283 1.382 . S
C287 C286 1.415 . S
C288 C286 1.501 1_565 S
C288 C289 1.384 . S
C288 C293 1.408 . S
C289 H279 0.930 . S
C289 C288 1.384 . S
C289 C290 1.389 . S
C290 C289 1.389 . S
C290 C291 1.405 . S
C291 H280 0.930 . S
C291 C290 1.405 . S
C291 C292 1.364 . S
C292 C291 1.364 . S
C292 C293 1.400 . S
C293 H281 0.931 . S
C293 C288 1.408 . S
C293 C292 1.400 . S
H294 C300 0.930 . S
H295 C303 0.931 . S
H296 C305 0.931 . S
H297 C307 0.930 . S
H298 C309 0.930 . S
H299 C311 0.931 . S
C300 H294 0.930 . S
C300 C301 1.380 . S
C300 C302 1.394 . S
C301 C300 1.380 . S
C301 C305 1.382 1_556 S
C302 C300 1.394 . S
C302 C303 1.400 1_556 S
C303 H295 0.931 . S
C303 C302 1.400 1_554 S
C303 C304 1.375 . S
C304 C303 1.375 . S
C304 C305 1.415 . S
C304 C306 1.501 . S
C305 H296 0.931 . S
C305 C301 1.382 1_554 S
C305 C304 1.415 . S
C306 C304 1.501 . S
C306 C307 1.384 . S
C306 C311 1.408 . S
C307 H297 0.930 . S
C307 C306 1.384 . S
C307 C308 1.389 . S
C308 C307 1.389 . S
C308 C309 1.405 . S
C309 H298 0.930 . S
C309 C308 1.405 . S
C309 C310 1.364 . S
C310 C309 1.364 . S
C310 C311 1.400 . S
C311 H299 0.931 . S
C311 C306 1.408 . S
C311 C310 1.400 . S
H312 C318 0.930 . S
H313 C321 0.931 . S
H314 C323 0.931 . S
H315 C325 0.930 . S
H316 C327 0.930 . S
H317 C329 0.931 . S
C318 H312 0.930 . S
C318 C319 1.380 . S
C318 C320 1.394 . S
C319 C318 1.380 . S
C319 C323 1.382 . S
C320 C318 1.394 . S
C320 C321 1.400 1_556 S
C321 H313 0.931 . S
C321 C320 1.400 1_554 S
C321 C322 1.375 . S
C322 C321 1.375 . S
C322 C323 1.415 1_554 S
C322 C324 1.501 . S
C323 H314 0.931 . S
C323 C319 1.382 . S
C323 C322 1.415 1_556 S
C324 C322 1.501 . S
C324 C325 1.384 . S
C324 C329 1.408 . S
C325 H315 0.930 . S
C325 C324 1.384 . S
C325 C326 1.389 . S
C326 C325 1.389 . S
C326 C327 1.405 . S
C327 H316 0.930 . S
C327 C326 1.405 . S
C327 C328 1.364 . S
C328 C327 1.364 . S
C328 C329 1.400 . S
C329 H317 0.931 . S
C329 C324 1.408 . S
C329 C328 1.400 . S
H330 C336 0.930 . S
H331 C339 0.931 . S
H332 C341 0.931 . S
H333 C343 0.930 . S
H334 C345 0.930 . S
H335 C347 0.931 . S
C336 H330 0.930 . S
C336 C337 1.380 . S
C336 C338 1.394 . S
C337 C336 1.380 . S
C337 C341 1.382 . S
C338 C336 1.394 . S
C338 C339 1.400 . S
C339 H331 0.931 . S
C339 C338 1.400 . S
C339 C340 1.375 . S
C340 C339 1.375 . S
C340 C341 1.415 . S
C340 C342 1.501 . S
C341 H332 0.931 . S
C341 C337 1.382 . S
C341 C340 1.415 . S
C342 C340 1.501 . S
C342 C343 1.384 . S
C342 C347 1.408 . S
C343 H333 0.930 . S
C343 C342 1.384 . S
C343 C344 1.389 . S
C344 C343 1.389 . S
C344 C345 1.405 . S
C345 H334 0.930 . S
C345 C344 1.405 . S
C345 C346 1.364 . S
C346 C345 1.364 . S
C346 C347 1.400 . S
C347 H335 0.931 . S
C347 C342 1.408 . S
C347 C346 1.400 . S
H348 C354 0.930 . S
H349 C357 0.931 . S
H350 C359 0.931 . S
H351 C361 0.930 . S
H352 C363 0.930 . S
H353 C365 0.931 . S
C354 H348 0.930 . S
C354 C355 1.380 . S
C354 C356 1.394 . S
C355 C354 1.380 . S
C355 C359 1.382 . S
C356 C354 1.394 . S
C356 C357 1.400 . S
C357 H349 0.931 . S
C357 C356 1.400 . S
C357 C358 1.375 . S
C358 C357 1.375 . S
C358 C359 1.415 . S
C358 C360 1.501 . S
C359 H350 0.931 . S
C359 C355 1.382 . S
C359 C358 1.415 . S
C360 C358 1.501 . S
C360 C361 1.384 . S
C360 C365 1.408 . S
C361 H351 0.930 . S
C361 C360 1.384 . S
C361 C362 1.389 . S
C362 C361 1.389 . S
C362 C363 1.405 . S
C363 H352 0.930 . S
C363 C362 1.405 . S
C363 C364 1.364 . S
C364 C363 1.364 . S
C364 C365 1.400 . S
C365 H353 0.931 . S
C365 C360 1.408 . S
C365 C364 1.400 . S
H366 C372 0.930 . S
H367 C375 0.931 . S
H368 C377 0.931 . S
H369 C379 0.930 . S
H370 C381 0.930 . S
H371 C383 0.931 . S
C372 H366 0.930 . S
C372 C373 1.380 . S
C372 C374 1.394 . S
C373 C372 1.380 . S
C373 C377 1.382 . S
C374 C372 1.394 . S
C374 C375 1.400 . S
C375 H367 0.931 . S
C375 C374 1.400 . S
C375 C376 1.375 . S
C376 C375 1.375 . S
C376 C377 1.415 . S
C376 C378 1.501 . S
C377 H368 0.931 . S
C377 C373 1.382 . S
C377 C376 1.415 . S
C378 C376 1.501 . S
C378 C379 1.384 . S
C378 C383 1.408 . S
C379 H369 0.930 . S
C379 C378 1.384 . S
C379 C380 1.389 . S
C380 C379 1.389 . S
C380 C381 1.405 . S
C381 H370 0.930 . S
C381 C380 1.405 . S
C381 C382 1.364 . S
C382 C381 1.364 . S
C382 C383 1.400 . S
C383 H371 0.931 . S
C383 C378 1.408 . S
C383 C382 1.400 . S
H384 C392 0.957 . S
H385 C397 0.950 . S
H386 C394 0.950 . S
H387 C396 0.950 . S
H388 C398 0.950 . S
H389 C400 0.950 . S
H390 C402 0.950 . S
H391 C403 0.950 . S
C392 H384 0.957 . S
C392 C393 1.386 . S
C392 C394 1.391 1_554 S
C393 C392 1.386 . S
C393 C397 1.393 . S
C394 H386 0.950 . S
C394 C392 1.391 1_556 S
C394 C395 1.400 . S
C395 C394 1.400 . S
C395 C396 1.398 1_556 S
C395 C401 1.491 . S
C396 H387 0.950 . S
C396 C395 1.398 1_554 S
C396 C397 1.391 . S
C397 H385 0.950 . S
C397 C393 1.393 . S
C397 C396 1.391 . S
C398 H388 0.950 . S
C398 C399 1.386 . S
C398 C400 1.391 . S
C399 C398 1.386 . S
C399 C403 1.393 . S
C400 H389 0.950 . S
C400 C398 1.391 . S
C400 C401 1.400 . S
C401 C395 1.491 . S
C401 C400 1.400 . S
C401 C402 1.398 . S
C402 H390 0.950 . S
C402 C401 1.398 . S
C402 C403 1.391 . S
C403 H391 0.950 . S
C403 C399 1.393 . S
C403 C402 1.391 . S
H404 C412 0.950 . S
H405 C417 0.950 . S
H406 C414 0.950 . S
H407 C416 0.950 . S
H408 C418 0.950 . S
H409 C420 0.950 . S
H410 C422 0.950 . S
H411 C423 0.950 . S
C412 H404 0.950 . S
C412 C413 1.386 . S
C412 C414 1.391 . S
C413 C412 1.386 . S
C413 C417 1.393 . S
C414 H406 0.950 . S
C414 C412 1.391 . S
C414 C415 1.400 . S
C415 C414 1.400 . S
C415 C416 1.398 . S
C415 C421 1.491 . S
C416 H407 0.950 . S
C416 C415 1.398 . S
C416 C417 1.391 . S
C417 H405 0.950 . S
C417 C413 1.393 . S
C417 C416 1.391 . S
C418 H408 0.950 . S
C418 C419 1.386 . S
C418 C420 1.391 . S
C419 C418 1.386 . S
C419 C423 1.393 . S
C420 H409 0.950 . S
C420 C418 1.391 . S
C420 C421 1.400 . S
C421 C415 1.491 . S
C421 C420 1.400 . S
C421 C422 1.398 . S
C422 H410 0.950 . S
C422 C421 1.398 . S
C422 C423 1.391 . S
C423 H411 0.950 . S
C423 C419 1.393 . S
C423 C422 1.391 . S
H424 C432 0.950 . S
H425 C437 0.950 . S
H426 C434 0.950 . S
H427 C436 0.950 . S
H428 C438 0.950 . S
H429 C440 0.950 . S
H430 C442 0.950 . S
H431 C443 0.950 . S
C432 H424 0.950 . S
C432 C433 1.386 . S
C432 C434 1.391 . S
C433 C432 1.386 . S
C433 C437 1.393 . S
C434 H426 0.950 . S
C434 C432 1.391 . S
C434 C435 1.400 . S
C435 C434 1.400 . S
C435 C436 1.398 . S
C435 C441 1.491 . S
C436 H427 0.950 . S
C436 C435 1.398 . S
C436 C437 1.391 . S
C437 H425 0.950 . S
C437 C433 1.393 . S
C437 C436 1.391 . S
C438 H428 0.950 . S
C438 C439 1.386 . S
C438 C440 1.391 . S
C439 C438 1.386 . S
C439 C443 1.393 . S
C440 H429 0.950 . S
C440 C438 1.391 . S
C440 C441 1.400 . S
C441 C435 1.491 . S
C441 C440 1.400 . S
C441 C442 1.398 . S
C442 H430 0.950 . S
C442 C441 1.398 . S
C442 C443 1.391 . S
C443 H431 0.950 . S
C443 C439 1.393 . S
C443 C442 1.391 . S
H444 C452 0.950 . S
H445 C457 0.950 . S
H446 C454 0.950 . S
H447 C456 0.950 . S
H448 C458 0.950 . S
H449 C460 0.950 . S
H450 C462 0.950 . S
H451 C463 0.950 . S
C452 H444 0.950 . S
C452 C453 1.386 . S
C452 C454 1.391 . S
C453 C452 1.386 . S
C453 C457 1.393 . S
C454 H446 0.950 . S
C454 C452 1.391 . S
C454 C455 1.400 . S
C455 C454 1.400 . S
C455 C456 1.398 . S
C455 C461 1.491 . S
C456 H447 0.950 . S
C456 C455 1.398 . S
C456 C457 1.391 . S
C457 H445 0.950 . S
C457 C453 1.393 . S
C457 C456 1.391 . S
C458 H448 0.950 . S
C458 C459 1.386 . S
C458 C460 1.391 . S
C459 C458 1.386 . S
C459 C463 1.393 . S
C460 H449 0.950 . S
C460 C458 1.391 . S
C460 C461 1.400 . S
C461 C455 1.491 . S
C461 C460 1.400 . S
C461 C462 1.398 . S
C462 H450 0.950 . S
C462 C461 1.398 . S
C462 C463 1.391 . S
C463 H451 0.950 . S
C463 C459 1.393 . S
C463 C462 1.391 . S
H464 C472 0.950 . S
H465 C477 0.950 . S
H466 C474 0.950 . S
H467 C476 0.950 . S
H468 C478 0.950 . S
H469 C480 0.950 . S
H470 C482 0.950 . S
H471 C483 0.950 . S
C472 H464 0.950 . S
C472 C473 1.386 . S
C472 C474 1.391 . S
C473 C472 1.386 . S
C473 C477 1.393 . S
C474 H466 0.950 . S
C474 C472 1.391 . S
C474 C475 1.400 . S
C475 C474 1.400 . S
C475 C476 1.398 . S
C475 C481 1.491 . S
C476 H467 0.950 . S
C476 C475 1.398 . S
C476 C477 1.391 . S
C477 H465 0.950 . S
C477 C473 1.393 . S
C477 C476 1.391 . S
C478 H468 0.950 . S
C478 C479 1.386 . S
C478 C480 1.391 . S
C479 C478 1.386 . S
C479 C483 1.393 . S
C480 H469 0.950 . S
C480 C478 1.391 . S
C480 C481 1.400 . S
C481 C475 1.491 . S
C481 C480 1.400 . S
C481 C482 1.398 . S
C482 H470 0.950 . S
C482 C481 1.398 . S
C482 C483 1.391 . S
C483 H471 0.950 . S
C483 C479 1.393 . S
C483 C482 1.391 . S
H484 C492 0.950 . S
H485 C497 0.950 . S
H486 C494 0.950 . S
H487 C496 0.950 . S
H488 C498 0.950 . S
H489 C500 0.950 . S
H490 C502 0.950 . S
H491 C503 0.950 . S
C492 H484 0.950 . S
C492 C493 1.386 . S
C492 C494 1.391 . S
C493 C492 1.386 . S
C493 C497 1.393 . S
C494 H486 0.950 . S
C494 C492 1.391 . S
C494 C495 1.400 . S
C495 C494 1.400 . S
C495 C496 1.398 . S
C495 C501 1.491 . S
C496 H487 0.950 . S
C496 C495 1.398 . S
C496 C497 1.391 . S
C497 H485 0.950 . S
C497 C493 1.393 . S
C497 C496 1.391 . S
C498 H488 0.950 . S
C498 C499 1.386 . S
C498 C500 1.391 . S
C499 C498 1.386 . S
C499 C503 1.393 . S
C500 H489 0.950 . S
C500 C498 1.391 . S
C500 C501 1.400 . S
C501 C495 1.491 . S
C501 C500 1.400 . S
C501 C502 1.398 . S
C502 H490 0.950 . S
C502 C501 1.398 . S
C502 C503 1.391 . S
C503 H491 0.950 . S
C503 C499 1.393 . S
C503 C502 1.391 . S
H504 C512 0.950 . S
H505 C517 0.950 . S
H506 C514 0.950 . S
H507 C516 0.950 . S
H508 C518 0.950 . S
H509 C520 0.950 . S
H510 C522 0.950 . S
H511 C523 0.950 . S
C512 H504 0.950 . S
C512 C513 1.386 . S
C512 C514 1.391 1_556 S
C513 C512 1.386 . S
C513 C517 1.393 1_556 S
C514 H506 0.950 . S
C514 C512 1.391 1_554 S
C514 C515 1.400 . S
C515 C514 1.400 . S
C515 C516 1.398 . S
C515 C521 1.491 . S
C516 H507 0.950 . S
C516 C515 1.398 . S
C516 C517 1.391 . S
C517 H505 0.950 . S
C517 C513 1.393 1_554 S
C517 C516 1.391 . S
C518 H508 0.950 . S
C518 C519 1.386 . S
C518 C520 1.391 . S
C519 C518 1.386 . S
C519 C523 1.393 . S
C520 H509 0.950 . S
C520 C518 1.391 . S
C520 C521 1.400 . S
C521 C515 1.491 . S
C521 C520 1.400 . S
C521 C522 1.398 . S
C522 H510 0.950 . S
C522 C521 1.398 . S
C522 C523 1.391 . S
C523 H511 0.950 . S
C523 C519 1.393 . S
C523 C522 1.391 . S
H524 C532 0.950 . S
H525 C537 0.950 . S
H526 C534 0.950 . S
H527 C536 0.950 . S
H528 C538 0.950 . S
H529 C540 0.950 . S
H530 C542 0.950 . S
H531 C543 0.950 . S
C532 H524 0.950 . S
C532 C533 1.386 . S
C532 C534 1.391 . S
C533 C532 1.386 . S
C533 C537 1.393 . S
C534 H526 0.950 . S
C534 C532 1.391 . S
C534 C535 1.400 . S
C535 C534 1.400 . S
C535 C536 1.398 . S
C535 C541 1.491 . S
C536 H527 0.950 . S
C536 C535 1.398 . S
C536 C537 1.391 . S
C537 H525 0.950 . S
C537 C533 1.393 . S
C537 C536 1.391 . S
C538 H528 0.950 . S
C538 C539 1.386 . S
C538 C540 1.391 . S
C539 C538 1.386 . S
C539 C543 1.393 . S
C540 H529 0.950 . S
C540 C538 1.391 . S
C540 C541 1.400 . S
C541 C535 1.491 . S
C541 C540 1.400 . S
C541 C542 1.398 . S
C542 H530 0.950 . S
C542 C541 1.398 . S
C542 C543 1.391 . S
C543 H531 0.950 . S
C543 C539 1.393 . S
C543 C542 1.391 . S
H544 C552 0.950 1_565 S
H545 C557 0.950 . S
H546 C554 0.950 . S
H547 C556 0.948 1_655 S
H548 C558 0.950 . S
H549 C560 0.950 . S
H550 C562 0.950 . S
H551 C563 0.950 . S
C552 H544 0.950 1_545 S
C552 C553 1.386 . S
C552 C554 1.391 1_455 S
C553 C552 1.386 . S
C553 C557 1.393 . S
C554 H546 0.950 . S
C554 C552 1.391 1_655 S
C554 C555 1.400 . S
C555 C554 1.400 . S
C555 C556 1.387 1_655 S
C555 C561 1.491 . S
C556 H547 0.948 1_455 S
C556 C555 1.387 1_455 S
C556 C557 1.404 . S
C557 H545 0.950 . S
C557 C553 1.393 . S
C557 C556 1.404 . S
C558 H548 0.950 . S
C558 C559 1.386 . S
C558 C560 1.391 . S
C559 C558 1.386 . S
C559 C563 1.393 . S
C560 H549 0.950 . S
C560 C558 1.391 . S
C560 C561 1.400 . S
C561 C555 1.491 . S
C561 C560 1.400 . S
C561 C562 1.398 . S
C562 H550 0.950 . S
C562 C561 1.398 . S
C562 C563 1.391 . S
C563 H551 0.950 . S
C563 C559 1.393 . S
C563 C562 1.391 . S
H564 C572 0.950 . S
H565 C577 0.950 . S
H566 C574 0.950 . S
H567 C576 0.950 . S
H568 C578 0.950 . S
H569 C580 0.950 . S
H570 C582 0.950 . S
H571 C583 0.950 . S
C572 H564 0.950 . S
C572 C573 1.386 . S
C572 C574 1.391 . S
C573 C572 1.386 . S
C573 C577 1.393 . S
C574 H566 0.950 . S
C574 C572 1.391 . S
C574 C575 1.400 . S
C575 C574 1.400 . S
C575 C576 1.398 . S
C575 C581 1.491 . S
C576 H567 0.950 . S
C576 C575 1.398 . S
C576 C577 1.391 . S
C577 H565 0.950 . S
C577 C573 1.393 . S
C577 C576 1.391 . S
C578 H568 0.950 . S
C578 C579 1.386 . S
C578 C580 1.391 . S
C579 C578 1.386 . S
C579 C583 1.393 . S
C580 H569 0.950 . S
C580 C578 1.391 . S
C580 C581 1.400 . S
C581 C575 1.491 . S
C581 C580 1.400 . S
C581 C582 1.398 . S
C582 H570 0.950 . S
C582 C581 1.398 . S
C582 C583 1.391 . S
C583 H571 0.950 . S
C583 C579 1.393 . S
C583 C582 1.391 . S
H584 C592 0.950 . S
H585 C597 0.950 . S
H586 C594 0.950 . S
H587 C596 0.950 . S
H588 C598 0.950 . S
H589 C600 0.950 . S
H590 C602 0.950 . S
H591 C603 0.950 1_554 S
C592 H584 0.950 . S
C592 C593 1.386 . S
C592 C594 1.391 . S
C593 C592 1.386 . S
C593 C597 1.393 . S
C594 H586 0.950 . S
C594 C592 1.391 . S
C594 C595 1.400 . S
C595 C594 1.400 . S
C595 C596 1.398 . S
C595 C601 1.491 . S
C596 H587 0.950 . S
C596 C595 1.398 . S
C596 C597 1.391 . S
C597 H585 0.950 . S
C597 C593 1.393 . S
C597 C596 1.391 . S
C598 H588 0.950 . S
C598 C599 1.386 . S
C598 C600 1.391 . S
C599 C598 1.386 . S
C599 C603 1.393 . S
C600 H589 0.950 . S
C600 C598 1.391 . S
C600 C601 1.400 . S
C601 C595 1.491 . S
C601 C600 1.400 . S
C601 C602 1.398 . S
C602 H590 0.950 . S
C602 C601 1.398 . S
C602 C603 1.391 . S
C603 H591 0.950 1_556 S
C603 C599 1.393 . S
C603 C602 1.391 . S
H604 C612 0.950 . S
H605 C617 0.950 . S
H606 C614 0.950 . S
H607 C616 0.950 . S
H608 C618 0.950 . S
H609 C620 0.950 . S
H610 C622 0.950 . S
H611 C623 0.950 . S
C612 H604 0.950 . S
C612 C613 1.386 . S
C612 C614 1.391 . S
C613 C612 1.386 . S
C613 C617 1.393 . S
C614 H606 0.950 . S
C614 C612 1.391 . S
C614 C615 1.400 . S
C615 C614 1.400 . S
C615 C616 1.398 . S
C615 C621 1.491 . S
C616 H607 0.950 . S
C616 C615 1.398 . S
C616 C617 1.391 . S
C617 H605 0.950 . S
C617 C613 1.393 . S
C617 C616 1.391 . S
C618 H608 0.950 . S
C618 C619 1.386 . S
C618 C620 1.391 . S
C619 C618 1.386 . S
C619 C623 1.393 . S
C620 H609 0.950 . S
C620 C618 1.391 . S
C620 C621 1.400 . S
C621 C615 1.491 . S
C621 C620 1.400 . S
C621 C622 1.398 . S
C622 H610 0.950 . S
C622 C621 1.398 . S
C622 C623 1.391 . S
C623 H611 0.950 . S
C623 C619 1.393 . S
C623 C622 1.391 . S
H624 C632 0.950 . S
H625 C637 0.950 . S
H626 C634 0.950 . S
H627 C636 0.950 . S
H628 C638 0.950 . S
H629 C640 0.950 . S
H630 C642 0.950 . S
H631 C643 0.950 . S
C632 H624 0.950 . S
C632 C633 1.386 . S
C632 C634 1.391 . S
C633 C632 1.386 . S
C633 C637 1.393 . S
C634 H626 0.950 . S
C634 C632 1.391 . S
C634 C635 1.400 1_455 S
C635 C634 1.400 1_655 S
C635 C636 1.398 . S
C635 C641 1.491 . S
C636 H627 0.950 . S
C636 C635 1.398 . S
C636 C637 1.391 1_655 S
C637 H625 0.950 . S
C637 C633 1.393 . S
C637 C636 1.391 1_455 S
C638 H628 0.950 . S
C638 C639 1.386 . S
C638 C640 1.391 . S
C639 C638 1.386 . S
C639 C643 1.393 . S
C640 H629 0.950 . S
C640 C638 1.391 . S
C640 C641 1.400 . S
C641 C635 1.491 . S
C641 C640 1.400 . S
C641 C642 1.398 . S
C642 H630 0.950 . S
C642 C641 1.398 . S
C642 C643 1.391 . S
C643 H631 0.950 . S
C643 C639 1.393 . S
C643 C642 1.391 . S
H644 C652 0.950 . S
H645 C657 0.950 . S
H646 C654 0.950 . S
H647 C656 0.950 . S
H648 C658 0.950 . S
H649 C660 0.950 . S
H650 C662 0.950 . S
H651 C663 0.950 . S
C652 H644 0.950 . S
C652 C653 1.386 . S
C652 C654 1.391 . S
C653 C652 1.386 . S
C653 C657 1.393 . S
C654 H646 0.950 . S
C654 C652 1.391 . S
C654 C655 1.400 . S
C655 C654 1.400 . S
C655 C656 1.398 . S
C655 C661 1.491 . S
C656 H647 0.950 . S
C656 C655 1.398 . S
C656 C657 1.391 . S
C657 H645 0.950 . S
C657 C653 1.393 . S
C657 C656 1.391 . S
C658 H648 0.950 . S
C658 C659 1.386 . S
C658 C660 1.391 . S
C659 C658 1.386 . S
C659 C663 1.393 . S
C660 H649 0.950 . S
C660 C658 1.391 . S
C660 C661 1.400 . S
C661 C655 1.491 . S
C661 C660 1.400 . S
C661 C662 1.398 . S
C662 H650 0.950 . S
C662 C661 1.398 . S
C662 C663 1.391 . S
C663 H651 0.950 . S
C663 C659 1.393 . S
C663 C662 1.391 . S
H664 C672 0.950 . S
H665 C677 0.950 . S
H666 C674 0.950 . S
H667 C676 0.950 . S
H668 C678 0.950 . S
H669 C680 0.950 . S
H670 C682 0.950 . S
H671 C683 0.950 . S
C672 H664 0.950 . S
C672 C673 1.386 . S
C672 C674 1.391 . S
C673 C672 1.386 . S
C673 C677 1.393 . S
C674 H666 0.950 . S
C674 C672 1.391 . S
C674 C675 1.400 . S
C675 C674 1.400 . S
C675 C676 1.398 . S
C675 C681 1.491 . S
C676 H667 0.950 . S
C676 C675 1.398 . S
C676 C677 1.391 . S
C677 H665 0.950 . S
C677 C673 1.393 . S
C677 C676 1.391 . S
C678 H668 0.950 . S
C678 C679 1.386 . S
C678 C680 1.391 . S
C679 C678 1.386 . S
C679 C683 1.393 . S
C680 H669 0.950 . S
C680 C678 1.391 . S
C680 C681 1.400 . S
C681 C675 1.491 . S
C681 C680 1.400 . S
C681 C682 1.398 . S
C682 H670 0.950 . S
C682 C681 1.398 . S
C682 C683 1.391 . S
C683 H671 0.950 . S
C683 C679 1.393 . S
C683 C682 1.391 . S
H684 C692 0.950 . S
H685 C697 0.950 . S
H686 C694 0.950 . S
H687 C696 0.950 . S
H688 C698 0.950 . S
H689 C700 0.950 . S
H690 C702 0.950 . S
H691 C703 0.950 . S
C692 H684 0.950 . S
C692 C693 1.386 . S
C692 C694 1.391 . S
C693 C692 1.386 . S
C693 C697 1.393 . S
C694 H686 0.950 . S
C694 C692 1.391 . S
C694 C695 1.400 . S
C695 C694 1.400 . S
C695 C696 1.398 . S
C695 C701 1.491 . S
C696 H687 0.950 . S
C696 C695 1.398 . S
C696 C697 1.391 . S
C697 H685 0.950 . S
C697 C693 1.393 . S
C697 C696 1.391 . S
C698 H688 0.950 . S
C698 C699 1.386 . S
C698 C700 1.391 . S
C699 C698 1.386 . S
C699 C703 1.393 . S
C700 H689 0.950 . S
C700 C698 1.391 . S
C700 C701 1.400 . S
C701 C695 1.491 . S
C701 C700 1.400 . S
C701 C702 1.398 . S
C702 H690 0.950 . S
C702 C701 1.398 . S
C702 C703 1.391 . S
C703 H691 0.950 . S
C703 C699 1.393 . S
C703 C702 1.391 . S
H704 C712 0.950 . S
H705 C717 0.950 . S
H706 C714 0.950 . S
H707 C716 0.950 . S
H708 C718 0.950 . S
H709 C720 0.950 . S
H710 C722 0.950 . S
H711 C723 0.950 . S
C712 H704 0.950 . S
C712 C713 1.386 . S
C712 C714 1.391 . S
C713 C712 1.386 . S
C713 C717 1.393 . S
C714 H706 0.950 . S
C714 C712 1.391 . S
C714 C715 1.400 1_545 S
C715 C714 1.400 1_565 S
C715 C716 1.398 . S
C715 C721 1.491 . S
C716 H707 0.950 . S
C716 C715 1.398 . S
C716 C717 1.391 1_565 S
C717 H705 0.950 . S
C717 C713 1.393 . S
C717 C716 1.391 1_545 S
C718 H708 0.950 . S
C718 C719 1.386 . S
C718 C720 1.391 . S
C719 C718 1.386 . S
C719 C723 1.393 . S
C720 H709 0.950 . S
C720 C718 1.391 . S
C720 C721 1.400 . S
C721 C715 1.491 . S
C721 C720 1.400 . S
C721 C722 1.398 . S
C722 H710 0.950 . S
C722 C721 1.398 . S
C722 C723 1.391 . S
C723 H711 0.950 . S
C723 C719 1.393 . S
C723 C722 1.391 . S
H724 C732 0.963 . S
H725 C737 0.950 . S
H726 C734 0.950 1_554 S
H727 C736 0.950 . S
H728 C738 0.950 . S
H729 C740 0.950 . S
H730 C742 0.950 . S
H731 C743 0.950 . S
C732 H724 0.963 . S
C732 C733 1.377 1_554 S
C732 C734 1.386 1_554 S
C733 C732 1.377 1_556 S
C733 C737 1.393 . S
C734 H726 0.950 1_556 S
C734 C732 1.386 1_556 S
C734 C735 1.400 . S
C735 C734 1.400 . S
C735 C736 1.398 . S
C735 C741 1.491 . S
C736 H727 0.950 . S
C736 C735 1.398 . S
C736 C737 1.391 . S
C737 H725 0.950 . S
C737 C733 1.393 . S
C737 C736 1.391 . S
C738 H728 0.950 . S
C738 C739 1.386 . S
C738 C740 1.391 . S
C739 C738 1.386 . S
C739 C743 1.393 . S
C740 H729 0.950 . S
C740 C738 1.391 . S
C740 C741 1.400 . S
C741 C735 1.491 . S
C741 C740 1.400 . S
C741 C742 1.398 . S
C742 H730 0.950 . S
C742 C741 1.398 . S
C742 C743 1.391 . S
C743 H731 0.950 . S
C743 C739 1.393 . S
C743 C742 1.391 . S
H744 C752 0.950 . S
H745 C757 0.950 . S
H746 C754 0.950 . S
H747 C756 0.950 . S
H748 C758 0.950 . S
H749 C760 0.950 . S
H750 C762 0.950 . S
H751 C763 0.950 . S
C752 H744 0.950 . S
C752 C753 1.386 . S
C752 C754 1.391 . S
C753 C752 1.386 . S
C753 C757 1.393 . S
C754 H746 0.950 . S
C754 C752 1.391 . S
C754 C755 1.400 . S
C755 C754 1.400 . S
C755 C756 1.398 . S
C755 C761 1.491 . S
C756 H747 0.950 . S
C756 C755 1.398 . S
C756 C757 1.391 . S
C757 H745 0.950 . S
C757 C753 1.393 . S
C757 C756 1.391 . S
C758 H748 0.950 . S
C758 C759 1.386 . S
C758 C760 1.391 . S
C759 C758 1.386 . S
C759 C763 1.393 . S
C760 H749 0.950 . S
C760 C758 1.391 . S
C760 C761 1.400 . S
C761 C755 1.491 . S
C761 C760 1.400 . S
C761 C762 1.398 . S
C762 H750 0.950 . S
C762 C761 1.398 . S
C762 C763 1.391 . S
C763 H751 0.950 . S
C763 C759 1.393 . S
C763 C762 1.391 . S
H764 C772 0.950 . S
H765 C777 0.950 . S
H766 C774 0.950 . S
H767 C776 0.950 . S
H768 C778 0.950 . S
H769 C780 0.950 . S
H770 C782 0.950 . S
H771 C783 0.950 . S
C772 H764 0.950 . S
C772 C773 1.386 . S
C772 C774 1.391 . S
C773 C772 1.386 . S
C773 C777 1.393 . S
C774 H766 0.950 . S
C774 C772 1.391 . S
C774 C775 1.400 . S
C775 C774 1.400 . S
C775 C776 1.398 . S
C775 C781 1.491 . S
C776 H767 0.950 . S
C776 C775 1.398 . S
C776 C777 1.391 . S
C777 H765 0.950 . S
C777 C773 1.393 . S
C777 C776 1.391 . S
C778 H768 0.950 . S
C778 C779 1.386 . S
C778 C780 1.391 . S
C779 C778 1.386 . S
C779 C783 1.393 . S
C780 H769 0.950 . S
C780 C778 1.391 . S
C780 C781 1.400 . S
C781 C775 1.491 . S
C781 C780 1.400 . S
C781 C782 1.398 . S
C782 H770 0.950 . S
C782 C781 1.398 . S
C782 C783 1.391 . S
C783 H771 0.950 . S
C783 C779 1.393 . S
C783 C782 1.391 . S
H784 C792 0.950 . S
H785 C797 0.950 . S
H786 C794 0.950 . S
H787 C796 0.950 . S
H788 C798 0.950 . S
H789 C800 0.950 . S
H790 C802 0.950 . S
H791 C803 0.950 . S
C792 H784 0.950 . S
C792 C793 1.386 . S
C792 C794 1.391 . S
C793 C792 1.386 . S
C793 C797 1.393 . S
C794 H786 0.950 . S
C794 C792 1.391 . S
C794 C795 1.400 . S
C795 C794 1.400 . S
C795 C796 1.398 . S
C795 C801 1.491 . S
C796 H787 0.950 . S
C796 C795 1.398 . S
C796 C797 1.391 . S
C797 H785 0.950 . S
C797 C793 1.393 . S
C797 C796 1.391 . S
C798 H788 0.950 . S
C798 C799 1.386 . S
C798 C800 1.391 . S
C799 C798 1.386 . S
C799 C803 1.393 . S
C800 H789 0.950 . S
C800 C798 1.391 . S
C800 C801 1.400 . S
C801 C795 1.491 . S
C801 C800 1.400 . S
C801 C802 1.398 . S
C802 H790 0.950 . S
C802 C801 1.398 . S
C802 C803 1.391 . S
C803 H791 0.950 . S
C803 C799 1.393 . S
C803 C802 1.391 . S
H804 C812 0.950 . S
H805 C817 0.950 . S
H806 C814 0.950 . S
H807 C816 0.950 . S
H808 C818 0.950 . S
H809 C820 0.950 . S
H810 C822 0.950 . S
H811 C823 0.950 . S
C812 H804 0.950 . S
C812 C813 1.386 . S
C812 C814 1.391 1_565 S
C813 C812 1.386 . S
C813 C817 1.393 1_565 S
C814 H806 0.950 . S
C814 C812 1.391 1_545 S
C814 C815 1.400 . S
C815 C814 1.400 . S
C815 C816 1.398 . S
C815 C821 1.491 . S
C816 H807 0.950 . S
C816 C815 1.398 . S
C816 C817 1.391 . S
C817 H805 0.950 . S
C817 C813 1.393 1_545 S
C817 C816 1.391 . S
C818 H808 0.950 . S
C818 C819 1.386 . S
C818 C820 1.391 . S
C819 C818 1.386 . S
C819 C823 1.393 . S
C820 H809 0.950 . S
C820 C818 1.391 . S
C820 C821 1.400 . S
C821 C815 1.491 . S
C821 C820 1.400 . S
C821 C822 1.398 . S
C822 H810 0.950 . S
C822 C821 1.398 . S
C822 C823 1.391 . S
C823 H811 0.950 . S
C823 C819 1.393 . S
C823 C822 1.391 . S
H824 C832 0.950 . S
H825 C837 0.950 . S
H826 C834 0.950 . S
H827 C836 0.950 . S
H828 C838 0.950 . S
H829 C840 0.950 . S
H830 C842 0.950 . S
H831 C843 0.950 . S
C832 H824 0.950 . S
C832 C833 1.386 . S
C832 C834 1.391 . S
C833 C832 1.386 . S
C833 C837 1.393 . S
C834 H826 0.950 . S
C834 C832 1.391 . S
C834 C835 1.400 . S
C835 C834 1.400 . S
C835 C836 1.398 . S
C835 C841 1.491 . S
C836 H827 0.950 . S
C836 C835 1.398 . S
C836 C837 1.391 . S
C837 H825 0.950 . S
C837 C833 1.393 . S
C837 C836 1.391 . S
C838 H828 0.950 . S
C838 C839 1.386 . S
C838 C840 1.391 . S
C839 C838 1.386 . S
C839 C843 1.393 . S
C840 H829 0.950 . S
C840 C838 1.391 . S
C840 C841 1.400 . S
C841 C835 1.491 . S
C841 C840 1.400 . S
C841 C842 1.398 . S
C842 H830 0.950 . S
C842 C841 1.398 . S
C842 C843 1.391 . S
C843 H831 0.950 . S
C843 C839 1.393 . S
C843 C842 1.391 . S
H844 C852 0.950 . S
H845 C857 0.950 . S
H846 C854 0.950 . S
H847 C856 0.950 . S
H848 C858 0.950 . S
H849 C860 0.950 . S
H850 C862 0.950 . S
H851 C863 0.950 . S
C852 H844 0.950 . S
C852 C853 1.386 . S
C852 C854 1.391 . S
C853 C852 1.386 . S
C853 C857 1.393 . S
C854 H846 0.950 . S
C854 C852 1.391 . S
C854 C855 1.400 . S
C855 C854 1.400 . S
C855 C856 1.398 . S
C855 C861 1.491 . S
C856 H847 0.950 . S
C856 C855 1.398 . S
C856 C857 1.391 . S
C857 H845 0.950 . S
C857 C853 1.393 . S
C857 C856 1.391 . S
C858 H848 0.950 . S
C858 C859 1.386 . S
C858 C860 1.391 . S
C859 C858 1.386 . S
C859 C863 1.393 . S
C860 H849 0.950 . S
C860 C858 1.391 . S
C860 C861 1.400 . S
C861 C855 1.491 . S
C861 C860 1.400 . S
C861 C862 1.398 . S
C862 H850 0.950 . S
C862 C861 1.398 . S
C862 C863 1.391 . S
C863 H851 0.950 . S
C863 C859 1.393 . S
C863 C862 1.391 . S
H864 C872 0.950 . S
H865 C877 0.950 . S
H866 C874 0.950 . S
H867 C876 0.950 . S
H868 C878 0.950 . S
H869 C880 0.950 . S
H870 C882 0.950 . S
H871 C883 0.950 . S
C872 H864 0.950 . S
C872 C873 1.386 . S
C872 C874 1.391 . S
C873 C872 1.386 . S
C873 C877 1.393 . S
C874 H866 0.950 . S
C874 C872 1.391 . S
C874 C875 1.400 . S
C875 C874 1.400 . S
C875 C876 1.398 . S
C875 C881 1.491 . S
C876 H867 0.950 . S
C876 C875 1.398 . S
C876 C877 1.391 . S
C877 H865 0.950 . S
C877 C873 1.393 . S
C877 C876 1.391 . S
C878 H868 0.950 . S
C878 C879 1.386 . S
C878 C880 1.391 . S
C879 C878 1.386 . S
C879 C883 1.393 . S
C880 H869 0.950 . S
C880 C878 1.391 . S
C880 C881 1.400 . S
C881 C875 1.491 . S
C881 C880 1.400 . S
C881 C882 1.398 . S
C882 H870 0.950 . S
C882 C881 1.398 . S
C882 C883 1.391 . S
C883 H871 0.950 . S
C883 C879 1.393 . S
C883 C882 1.391 . S
H884 C892 0.950 . S
H885 C897 0.950 . S
H886 C894 0.950 . S
H887 C896 0.950 . S
H888 C898 0.950 . S
H889 C900 0.950 . S
H890 C902 0.950 . S
H891 C903 0.950 . S
C892 H884 0.950 . S
C892 C893 1.386 . S
C892 C894 1.391 . S
C893 C892 1.386 . S
C893 C897 1.393 . S
C894 H886 0.950 . S
C894 C892 1.391 . S
C894 C895 1.400 . S
C895 C894 1.400 . S
C895 C896 1.398 . S
C895 C901 1.491 . S
C896 H887 0.950 . S
C896 C895 1.398 . S
C896 C897 1.391 . S
C897 H885 0.950 . S
C897 C893 1.393 . S
C897 C896 1.391 . S
C898 H888 0.950 . S
C898 C899 1.386 . S
C898 C900 1.391 . S
C899 C898 1.386 . S
C899 C903 1.393 . S
C900 H889 0.950 . S
C900 C898 1.391 . S
C900 C901 1.400 . S
C901 C895 1.491 . S
C901 C900 1.400 . S
C901 C902 1.398 . S
C902 H890 0.950 . S
C902 C901 1.398 . S
C902 C903 1.391 . S
C903 H891 0.950 . S
C903 C899 1.393 . S
C903 C902 1.391 . S
H904 C912 0.950 1_455 S
H905 C917 0.950 . S
H906 C914 0.950 1_556 S
H907 C916 0.950 . S
H908 C918 0.950 . S
H909 C920 0.950 . S
H910 C922 0.950 . S
H911 C923 0.950 . S
C912 H904 0.950 1_655 S
C912 C913 1.386 . S
C912 C914 1.391 . S
C913 C912 1.386 . S
C913 C917 1.393 . S
C914 H906 0.950 1_554 S
C914 C912 1.391 . S
C914 C915 1.400 1_554 S
C915 C914 1.400 1_556 S
C915 C916 1.398 1_556 S
C915 C921 1.491 . S
C916 H907 0.950 . S
C916 C915 1.398 1_554 S
C916 C917 1.391 . S
C917 H905 0.950 . S
C917 C913 1.393 . S
C917 C916 1.391 . S
C918 H908 0.950 . S
C918 C919 1.386 . S
C918 C920 1.391 . S
C919 C918 1.386 . S
C919 C923 1.393 . S
C920 H909 0.950 . S
C920 C918 1.391 . S
C920 C921 1.400 . S
C921 C915 1.491 . S
C921 C920 1.400 . S
C921 C922 1.398 . S
C922 H910 0.950 . S
C922 C921 1.398 . S
C922 C923 1.391 . S
C923 H911 0.950 . S
C923 C919 1.393 . S
C923 C922 1.391 . S
H924 C932 0.950 . S
H925 C937 0.950 . S
H926 C934 0.950 . S
H927 C936 0.950 . S
H928 C938 0.950 . S
H929 C940 0.950 . S
H930 C942 0.950 . S
H931 C943 0.950 . S
C932 H924 0.950 . S
C932 C933 1.386 . S
C932 C934 1.391 . S
C933 C932 1.386 . S
C933 C937 1.393 . S
C934 H926 0.950 . S
C934 C932 1.391 . S
C934 C935 1.400 . S
C935 C934 1.400 . S
C935 C936 1.398 . S
C935 C941 1.491 . S
C936 H927 0.950 . S
C936 C935 1.398 . S
C936 C937 1.391 . S
C937 H925 0.950 . S
C937 C933 1.393 . S
C937 C936 1.391 . S
C938 H928 0.950 . S
C938 C939 1.386 . S
C938 C940 1.391 . S
C939 C938 1.386 . S
C939 C943 1.393 . S
C940 H929 0.950 . S
C940 C938 1.391 . S
C940 C941 1.400 . S
C941 C935 1.491 . S
C941 C940 1.400 . S
C941 C942 1.398 . S
C942 H930 0.950 . S
C942 C941 1.398 . S
C942 C943 1.391 . S
C943 H931 0.950 . S
C943 C939 1.393 . S
C943 C942 1.391 . S
H944 C952 0.950 . S
H945 C957 0.950 1_556 S
H946 C954 0.950 . S
H947 C956 0.950 . S
H948 C958 0.950 . S
H949 C960 0.950 . S
H950 C962 0.950 . S
H951 C963 0.950 . S
C952 H944 0.950 . S
C952 C953 1.386 . S
C952 C954 1.391 . S
C953 C952 1.386 . S
C953 C957 1.393 . S
C954 H946 0.950 . S
C954 C952 1.391 . S
C954 C955 1.400 . S
C955 C954 1.400 . S
C955 C956 1.398 . S
C955 C961 1.491 . S
C956 H947 0.950 . S
C956 C955 1.398 . S
C956 C957 1.391 . S
C957 H945 0.950 1_554 S
C957 C953 1.393 . S
C957 C956 1.391 . S
C958 H948 0.950 . S
C958 C959 1.386 . S
C958 C960 1.391 . S
C959 C958 1.386 . S
C959 C963 1.393 . S
C960 H949 0.950 . S
C960 C958 1.391 . S
C960 C961 1.400 . S
C961 C955 1.491 . S
C961 C960 1.400 . S
C961 C962 1.398 . S
C962 H950 0.950 . S
C962 C961 1.398 . S
C962 C963 1.391 . S
C963 H951 0.950 . S
C963 C959 1.393 . S
C963 C962 1.391 . S
H964 C972 0.950 . S
H965 C977 0.950 . S
H966 C974 0.950 . S
H967 C976 0.950 . S
H968 C978 0.950 . S
H969 C980 0.950 . S
H970 C982 0.950 . S
H971 C983 0.950 . S
C972 H964 0.950 . S
C972 C973 1.386 . S
C972 C974 1.391 . S
C973 C972 1.386 . S
C973 C977 1.393 . S
C974 H966 0.950 . S
C974 C972 1.391 . S
C974 C975 1.400 . S
C975 C974 1.400 . S
C975 C976 1.398 . S
C975 C981 1.491 . S
C976 H967 0.950 . S
C976 C975 1.398 . S
C976 C977 1.391 . S
C977 H965 0.950 . S
C977 C973 1.393 . S
C977 C976 1.391 . S
C978 H968 0.950 . S
C978 C979 1.386 . S
C978 C980 1.391 . S
C979 C978 1.386 . S
C979 C983 1.393 . S
C980 H969 0.950 . S
C980 C978 1.391 . S
C980 C981 1.400 . S
C981 C975 1.491 . S
C981 C980 1.400 . S
C981 C982 1.398 . S
C982 H970 0.950 . S
C982 C981 1.398 . S
C982 C983 1.391 . S
C983 H971 0.950 . S
C983 C979 1.393 . S
C983 C982 1.391 . S
H984 C992 0.950 . S
H985 C997 0.950 1_455 S
H986 C994 0.950 . S
H987 C996 0.950 . S
H988 C998 0.950 . S
H989 C1000 0.950 . S
H990 C1002 0.950 . S
H991 C1003 0.950 . S
C992 H984 0.950 . S
C992 C993 1.386 . S
C992 C994 1.391 . S
C993 C992 1.386 . S
C993 C997 1.393 . S
C994 H986 0.950 . S
C994 C992 1.391 . S
C994 C995 1.400 . S
C995 C994 1.400 . S
C995 C996 1.398 . S
C995 C1001 1.491 . S
C996 H987 0.950 . S
C996 C995 1.398 . S
C996 C997 1.391 . S
C997 H985 0.950 1_655 S
C997 C993 1.393 . S
C997 C996 1.391 . S
C998 H988 0.950 . S
C998 C999 1.386 . S
C998 C1000 1.391 . S
C999 C998 1.386 . S
C999 C1003 1.393 . S
C1000 H989 0.950 . S
C1000 C998 1.391 . S
C1000 C1001 1.400 . S
C1001 C995 1.491 . S
C1001 C1000 1.400 . S
C1001 C1002 1.398 . S
C1002 H990 0.950 . S
C1002 C1001 1.398 . S
C1002 C1003 1.391 . S
C1003 H991 0.950 . S
C1003 C999 1.393 . S
C1003 C1002 1.391 . S
H1004 C1012 0.950 . S
H1005 C1017 0.950 . S
H1006 C1014 0.950 . S
H1007 C1016 0.950 . S
H1008 C1018 0.950 . S
H1009 C1020 0.950 . S
H1010 C1022 0.950 . S
H1011 C1023 0.950 . S
C1012 H1004 0.950 . S
C1012 C1013 1.386 . S
C1012 C1014 1.391 . S
C1013 C1012 1.386 . S
C1013 C1017 1.393 . S
C1014 H1006 0.950 . S
C1014 C1012 1.391 . S
C1014 C1015 1.400 . S
C1015 C1014 1.400 . S
C1015 C1016 1.398 . S
C1015 C1021 1.491 . S
C1016 H1007 0.950 . S
C1016 C1015 1.398 . S
C1016 C1017 1.391 . S
C1017 H1005 0.950 . S
C1017 C1013 1.393 . S
C1017 C1016 1.391 . S
C1018 H1008 0.950 . S
C1018 C1019 1.386 . S
C1018 C1020 1.391 . S
C1019 C1018 1.386 . S
C1019 C1023 1.393 . S
C1020 H1009 0.950 . S
C1020 C1018 1.391 . S
C1020 C1021 1.400 . S
C1021 C1015 1.491 . S
C1021 C1020 1.400 . S
C1021 C1022 1.398 . S
C1022 H1010 0.950 . S
C1022 C1021 1.398 . S
C1022 C1023 1.391 . S
C1023 H1011 0.950 . S
C1023 C1019 1.393 . S
C1023 C1022 1.391 . S
H1024 C1032 0.950 . S
H1025 C1037 0.950 . S
H1026 C1034 0.950 . S
H1027 C1036 0.950 . S
H1028 C1038 0.950 . S
H1029 C1040 0.950 . S
H1030 C1042 0.950 . S
H1031 C1043 0.950 . S
C1032 H1024 0.950 . S
C1032 C1033 1.386 . S
C1032 C1034 1.391 . S
C1033 C1032 1.386 . S
C1033 C1037 1.393 . S
C1034 H1026 0.950 . S
C1034 C1032 1.391 . S
C1034 C1035 1.400 . S
C1035 C1034 1.400 . S
C1035 C1036 1.398 . S
C1035 C1041 1.491 . S
C1036 H1027 0.950 . S
C1036 C1035 1.398 . S
C1036 C1037 1.391 . S
C1037 H1025 0.950 . S
C1037 C1033 1.393 . S
C1037 C1036 1.391 . S
C1038 H1028 0.950 . S
C1038 C1039 1.386 . S
C1038 C1040 1.391 . S
C1039 C1038 1.386 . S
C1039 C1043 1.393 . S
C1040 H1029 0.950 . S
C1040 C1038 1.391 . S
C1040 C1041 1.400 . S
C1041 C1035 1.491 . S
C1041 C1040 1.400 . S
C1041 C1042 1.398 . S
C1042 H1030 0.950 . S
C1042 C1041 1.398 . S
C1042 C1043 1.391 . S
C1043 H1031 0.950 . S
C1043 C1039 1.393 . S
C1043 C1042 1.391 . S
H1044 C1052 0.950 . S
H1045 C1057 0.950 . S
H1046 C1054 0.950 . S
H1047 C1056 0.950 . S
H1048 C1058 0.950 . S
H1049 C1060 0.950 . S
H1050 C1062 0.950 . S
H1051 C1063 0.950 . S
C1052 H1044 0.950 . S
C1052 C1053 1.386 . S
C1052 C1054 1.391 . S
C1053 C1052 1.386 . S
C1053 C1057 1.393 . S
C1054 H1046 0.950 . S
C1054 C1052 1.391 . S
C1054 C1055 1.400 . S
C1055 C1054 1.400 . S
C1055 C1056 1.398 . S
C1055 C1061 1.491 . S
C1056 H1047 0.950 . S
C1056 C1055 1.398 . S
C1056 C1057 1.391 . S
C1057 H1045 0.950 . S
C1057 C1053 1.393 . S
C1057 C1056 1.391 . S
C1058 H1048 0.950 . S
C1058 C1059 1.386 . S
C1058 C1060 1.391 . S
C1059 C1058 1.386 . S
C1059 C1063 1.393 . S
C1060 H1049 0.950 . S
C1060 C1058 1.391 . S
C1060 C1061 1.400 . S
C1061 C1055 1.491 . S
C1061 C1060 1.400 . S
C1061 C1062 1.398 . S
C1062 H1050 0.950 . S
C1062 C1061 1.398 . S
C1062 C1063 1.391 . S
C1063 H1051 0.950 . S
C1063 C1059 1.393 . S
C1063 C1062 1.391 . S
H1064 C1072 0.959 . S
H1065 C1077 0.950 . S
H1066 C1074 0.950 . S
H1067 C1076 0.950 . S
H1068 C1078 0.950 . S
H1069 C1080 0.950 . S
H1070 C1082 0.950 . S
H1071 C1083 0.950 . S
C1072 H1064 0.959 . S
C1072 C1073 1.397 . S
C1072 C1074 1.371 1_655 S
C1073 C1072 1.397 . S
C1073 C1077 1.393 . S
C1074 H1066 0.950 . S
C1074 C1072 1.371 1_455 S
C1074 C1075 1.400 . S
C1075 C1074 1.400 . S
C1075 C1076 1.398 . S
C1075 C1081 1.491 . S
C1076 H1067 0.950 . S
C1076 C1075 1.398 . S
C1076 C1077 1.391 1_455 S
C1077 H1065 0.950 . S
C1077 C1073 1.393 . S
C1077 C1076 1.391 1_655 S
C1078 H1068 0.950 . S
C1078 C1079 1.386 . S
C1078 C1080 1.391 . S
C1079 C1078 1.386 . S
C1079 C1083 1.393 . S
C1080 H1069 0.950 . S
C1080 C1078 1.391 . S
C1080 C1081 1.400 . S
C1081 C1075 1.491 . S
C1081 C1080 1.400 . S
C1081 C1082 1.398 . S
C1082 H1070 0.950 . S
C1082 C1081 1.398 . S
C1082 C1083 1.391 . S
C1083 H1071 0.950 . S
C1083 C1079 1.393 . S
C1083 C1082 1.391 . S
H1084 C1092 0.950 . S
H1085 C1097 0.950 . S
H1086 C1094 0.950 . S
H1087 C1096 0.950 . S
H1088 C1098 0.950 . S
H1089 C1100 0.950 . S
H1090 C1102 0.950 . S
H1091 C1103 0.950 . S
C1092 H1084 0.950 . S
C1092 C1093 1.386 . S
C1092 C1094 1.391 . S
C1093 C1092 1.386 . S
C1093 C1097 1.393 . S
C1094 H1086 0.950 . S
C1094 C1092 1.391 . S
C1094 C1095 1.400 . S
C1095 C1094 1.400 . S
C1095 C1096 1.398 . S
C1095 C1101 1.491 . S
C1096 H1087 0.950 . S
C1096 C1095 1.398 . S
C1096 C1097 1.391 . S
C1097 H1085 0.950 . S
C1097 C1093 1.393 . S
C1097 C1096 1.391 . S
C1098 H1088 0.950 . S
C1098 C1099 1.386 . S
C1098 C1100 1.391 . S
C1099 C1098 1.386 . S
C1099 C1103 1.393 . S
C1100 H1089 0.950 . S
C1100 C1098 1.391 . S
C1100 C1101 1.400 . S
C1101 C1095 1.491 . S
C1101 C1100 1.400 . S
C1101 C1102 1.398 . S
C1102 H1090 0.950 . S
C1102 C1101 1.398 . S
C1102 C1103 1.391 . S
C1103 H1091 0.950 . S
C1103 C1099 1.393 . S
C1103 C1102 1.391 . S
H1104 C1112 0.950 . S
H1105 C1117 0.950 . S
H1106 C1114 0.950 . S
H1107 C1116 0.950 . S
H1108 C1118 0.950 . S
H1109 C1120 0.950 . S
H1110 C1122 0.950 . S
H1111 C1123 0.950 . S
C1112 H1104 0.950 . S
C1112 C1113 1.386 . S
C1112 C1114 1.391 . S
C1113 C1112 1.386 . S
C1113 C1117 1.393 . S
C1114 H1106 0.950 . S
C1114 C1112 1.391 . S
C1114 C1115 1.400 . S
C1115 C1114 1.400 . S
C1115 C1116 1.398 . S
C1115 C1121 1.491 . S
C1116 H1107 0.950 . S
C1116 C1115 1.398 . S
C1116 C1117 1.391 . S
C1117 H1105 0.950 . S
C1117 C1113 1.393 . S
C1117 C1116 1.391 . S
C1118 H1108 0.950 . S
C1118 C1119 1.386 . S
C1118 C1120 1.391 . S
C1119 C1118 1.386 . S
C1119 C1123 1.393 . S
C1120 H1109 0.950 . S
C1120 C1118 1.391 . S
C1120 C1121 1.400 . S
C1121 C1115 1.491 . S
C1121 C1120 1.400 . S
C1121 C1122 1.398 . S
C1122 H1110 0.950 . S
C1122 C1121 1.398 . S
C1122 C1123 1.391 . S
C1123 H1111 0.950 . S
C1123 C1119 1.393 . S
C1123 C1122 1.391 . S
H1124 C1132 0.950 . S
H1125 C1137 0.950 . S
H1126 C1134 0.950 . S
H1127 C1136 0.950 . S
H1128 C1138 0.950 . S
H1129 C1140 0.950 . S
H1130 C1142 0.950 . S
H1131 C1143 0.950 . S
C1132 H1124 0.950 . S
C1132 C1133 1.386 . S
C1132 C1134 1.391 . S
C1133 C1132 1.386 . S
C1133 C1137 1.393 . S
C1134 H1126 0.950 . S
C1134 C1132 1.391 . S
C1134 C1135 1.400 . S
C1135 C1134 1.400 . S
C1135 C1136 1.398 . S
C1135 C1141 1.491 . S
C1136 H1127 0.950 . S
C1136 C1135 1.398 . S
C1136 C1137 1.391 . S
C1137 H1125 0.950 . S
C1137 C1133 1.393 . S
C1137 C1136 1.391 . S
C1138 H1128 0.950 . S
C1138 C1139 1.386 . S
C1138 C1140 1.391 . S
C1139 C1138 1.386 . S
C1139 C1143 1.393 . S
C1140 H1129 0.950 . S
C1140 C1138 1.391 . S
C1140 C1141 1.400 . S
C1141 C1135 1.491 . S
C1141 C1140 1.400 . S
C1141 C1142 1.398 . S
C1142 H1130 0.950 . S
C1142 C1141 1.398 . S
C1142 C1143 1.391 . S
C1143 H1131 0.950 . S
C1143 C1139 1.393 . S
C1143 C1142 1.391 . S
H1144 C1152 0.950 . S
H1145 C1157 0.950 . S
H1146 C1154 0.950 . S
H1147 C1156 0.950 . S
H1148 C1158 0.950 . S
H1149 C1160 0.950 . S
H1150 C1162 0.950 . S
H1151 C1163 0.950 . S
C1152 H1144 0.950 . S
C1152 C1153 1.386 . S
C1152 C1154 1.391 1_655 S
C1153 C1152 1.386 . S
C1153 C1157 1.393 1_655 S
C1154 H1146 0.950 . S
C1154 C1152 1.391 1_455 S
C1154 C1155 1.400 . S
C1155 C1154 1.400 . S
C1155 C1156 1.398 . S
C1155 C1161 1.491 . S
C1156 H1147 0.950 . S
C1156 C1155 1.398 . S
C1156 C1157 1.391 . S
C1157 H1145 0.950 . S
C1157 C1153 1.393 1_455 S
C1157 C1156 1.391 . S
C1158 H1148 0.950 . S
C1158 C1159 1.386 . S
C1158 C1160 1.391 . S
C1159 C1158 1.386 . S
C1159 C1163 1.393 . S
C1160 H1149 0.950 . S
C1160 C1158 1.391 . S
C1160 C1161 1.400 . S
C1161 C1155 1.491 . S
C1161 C1160 1.400 . S
C1161 C1162 1.398 . S
C1162 H1150 0.950 . S
C1162 C1161 1.398 . S
C1162 C1163 1.391 . S
C1163 H1151 0.950 . S
C1163 C1159 1.393 . S
C1163 C1162 1.391 . S
H1164 C1172 0.950 . S
H1165 C1177 0.950 . S
H1166 C1174 0.950 . S
H1167 C1176 0.950 . S
H1168 C1178 0.950 . S
H1169 C1180 0.950 . S
H1170 C1182 0.950 . S
H1171 C1183 0.950 . S
C1172 H1164 0.950 . S
C1172 C1173 1.386 . S
C1172 C1174 1.391 . S
C1173 C1172 1.386 . S
C1173 C1177 1.393 . S
C1174 H1166 0.950 . S
C1174 C1172 1.391 . S
C1174 C1175 1.400 . S
C1175 C1174 1.400 . S
C1175 C1176 1.398 . S
C1175 C1181 1.491 . S
C1176 H1167 0.950 . S
C1176 C1175 1.398 . S
C1176 C1177 1.391 . S
C1177 H1165 0.950 . S
C1177 C1173 1.393 . S
C1177 C1176 1.391 . S
C1178 H1168 0.950 . S
C1178 C1179 1.386 . S
C1178 C1180 1.391 . S
C1179 C1178 1.386 . S
C1179 C1183 1.393 . S
C1180 H1169 0.950 . S
C1180 C1178 1.391 . S
C1180 C1181 1.400 . S
C1181 C1175 1.491 . S
C1181 C1180 1.400 . S
C1181 C1182 1.398 . S
C1182 H1170 0.950 . S
C1182 C1181 1.398 . S
C1182 C1183 1.391 . S
C1183 H1171 0.950 . S
C1183 C1179 1.393 . S
C1183 C1182 1.391 . S
H1184 C1192 0.950 . S
H1185 C1197 0.950 . S
H1186 C1194 0.950 . S
H1187 C1196 0.950 . S
H1188 C1198 0.950 . S
H1189 C1200 0.950 . S
H1190 C1202 0.950 . S
H1191 C1203 0.950 . S
C1192 H1184 0.950 . S
C1192 C1193 1.386 . S
C1192 C1194 1.391 . S
C1193 C1192 1.386 . S
C1193 C1197 1.393 . S
C1194 H1186 0.950 . S
C1194 C1192 1.391 . S
C1194 C1195 1.400 . S
C1195 C1194 1.400 . S
C1195 C1196 1.398 . S
C1195 C1201 1.491 . S
C1196 H1187 0.950 . S
C1196 C1195 1.398 . S
C1196 C1197 1.391 . S
C1197 H1185 0.950 . S
C1197 C1193 1.393 . S
C1197 C1196 1.391 . S
C1198 H1188 0.950 . S
C1198 C1199 1.386 . S
C1198 C1200 1.391 . S
C1199 C1198 1.386 . S
C1199 C1203 1.393 . S
C1200 H1189 0.950 . S
C1200 C1198 1.391 . S
C1200 C1201 1.400 . S
C1201 C1195 1.491 . S
C1201 C1200 1.400 . S
C1201 C1202 1.398 . S
C1202 H1190 0.950 . S
C1202 C1201 1.398 . S
C1202 C1203 1.391 . S
C1203 H1191 0.950 . S
C1203 C1199 1.393 . S
C1203 C1202 1.391 . S
H1204 C1212 0.950 . S
H1205 C1217 0.950 1_565 S
H1206 C1214 0.950 . S
H1207 C1216 0.950 . S
H1208 C1218 0.950 . S
H1209 C1220 0.950 . S
H1210 C1222 0.950 . S
H1211 C1223 0.950 . S
C1212 H1204 0.950 . S
C1212 C1213 1.386 . S
C1212 C1214 1.391 1_565 S
C1213 C1212 1.386 . S
C1213 C1217 1.393 1_565 S
C1214 H1206 0.950 . S
C1214 C1212 1.391 1_545 S
C1214 C1215 1.400 . S
C1215 C1214 1.400 . S
C1215 C1216 1.398 . S
C1215 C1221 1.491 . S
C1216 H1207 0.950 . S
C1216 C1215 1.398 . S
C1216 C1217 1.391 . S
C1217 H1205 0.950 1_545 S
C1217 C1213 1.393 1_545 S
C1217 C1216 1.391 . S
C1218 H1208 0.950 . S
C1218 C1219 1.386 . S
C1218 C1220 1.391 . S
C1219 C1218 1.386 . S
C1219 C1223 1.393 . S
C1220 H1209 0.950 . S
C1220 C1218 1.391 . S
C1220 C1221 1.400 . S
C1221 C1215 1.491 . S
C1221 C1220 1.400 . S
C1221 C1222 1.398 . S
C1222 H1210 0.950 . S
C1222 C1221 1.398 . S
C1222 C1223 1.391 . S
C1223 H1211 0.950 . S
C1223 C1219 1.393 . S
C1223 C1222 1.391 . S
H1224 C1232 0.950 . S
H1225 C1237 0.950 . S
H1226 C1234 0.950 . S
H1227 C1236 0.950 . S
H1228 C1238 0.950 . S
H1229 C1240 0.950 . S
H1230 C1242 0.950 . S
H1231 C1243 0.950 . S
C1232 H1224 0.950 . S
C1232 C1233 1.386 . S
C1232 C1234 1.391 . S
C1233 C1232 1.386 . S
C1233 C1237 1.393 . S
C1234 H1226 0.950 . S
C1234 C1232 1.391 . S
C1234 C1235 1.400 . S
C1235 C1234 1.400 . S
C1235 C1236 1.398 . S
C1235 C1241 1.491 . S
C1236 H1227 0.950 . S
C1236 C1235 1.398 . S
C1236 C1237 1.391 . S
C1237 H1225 0.950 . S
C1237 C1233 1.393 . S
C1237 C1236 1.391 . S
C1238 H1228 0.950 . S
C1238 C1239 1.386 . S
C1238 C1240 1.391 . S
C1239 C1238 1.386 . S
C1239 C1243 1.393 . S
C1240 H1229 0.950 . S
C1240 C1238 1.391 . S
C1240 C1241 1.400 . S
C1241 C1235 1.491 . S
C1241 C1240 1.400 . S
C1241 C1242 1.398 . S
C1242 H1230 0.950 . S
C1242 C1241 1.398 . S
C1242 C1243 1.391 . S
C1243 H1231 0.950 . S
C1243 C1239 1.393 . S
C1243 C1242 1.391 . S
H1244 C1252 0.950 1_554 S
H1245 C1257 0.950 . S
H1246 C1254 0.954 . S
H1247 C1256 0.950 . S
H1248 C1258 0.950 . S
H1249 C1260 0.950 . S
H1250 C1262 0.950 . S
H1251 C1263 0.950 . S
C1252 H1244 0.950 1_556 S
C1252 C1253 1.386 . S
C1252 C1254 1.382 1_545 S
C1253 C1252 1.386 . S
C1253 C1257 1.393 . S
C1254 H1246 0.954 . S
C1254 C1252 1.382 1_565 S
C1254 C1255 1.406 . S
C1255 C1254 1.406 . S
C1255 C1256 1.398 . S
C1255 C1261 1.491 . S
C1256 H1247 0.950 . S
C1256 C1255 1.398 . S
C1256 C1257 1.391 1_565 S
C1257 H1245 0.950 . S
C1257 C1253 1.393 . S
C1257 C1256 1.391 1_545 S
C1258 H1248 0.950 . S
C1258 C1259 1.386 . S
C1258 C1260 1.391 . S
C1259 C1258 1.386 . S
C1259 C1263 1.393 . S
C1260 H1249 0.950 . S
C1260 C1258 1.391 . S
C1260 C1261 1.400 . S
C1261 C1255 1.491 . S
C1261 C1260 1.400 . S
C1261 C1262 1.398 . S
C1262 H1250 0.950 . S
C1262 C1261 1.398 . S
C1262 C1263 1.391 . S
C1263 H1251 0.950 . S
C1263 C1259 1.393 . S
C1263 C1262 1.391 . S
H1264 C1272 0.950 . S
H1265 C1277 0.950 . S
H1266 C1274 0.950 . S
H1267 C1276 0.950 . S
H1268 C1278 0.950 . S
H1269 C1280 0.950 . S
H1270 C1282 0.950 . S
H1271 C1283 0.950 . S
C1272 H1264 0.950 . S
C1272 C1273 1.386 . S
C1272 C1274 1.391 . S
C1273 C1272 1.386 . S
C1273 C1277 1.393 . S
C1274 H1266 0.950 . S
C1274 C1272 1.391 . S
C1274 C1275 1.400 . S
C1275 C1274 1.400 . S
C1275 C1276 1.398 . S
C1275 C1281 1.491 . S
C1276 H1267 0.950 . S
C1276 C1275 1.398 . S
C1276 C1277 1.391 . S
C1277 H1265 0.950 . S
C1277 C1273 1.393 . S
C1277 C1276 1.391 . S
C1278 H1268 0.950 . S
C1278 C1279 1.386 . S
C1278 C1280 1.391 . S
C1279 C1278 1.386 . S
C1279 C1283 1.393 . S
C1280 H1269 0.950 . S
C1280 C1278 1.391 . S
C1280 C1281 1.400 . S
C1281 C1275 1.491 . S
C1281 C1280 1.400 . S
C1281 C1282 1.398 . S
C1282 H1270 0.950 . S
C1282 C1281 1.398 . S
C1282 C1283 1.391 . S
C1283 H1271 0.950 . S
C1283 C1279 1.393 . S
C1283 C1282 1.391 . S
H1284 C1292 0.950 . S
H1285 C1297 0.950 . S
H1286 C1294 0.950 . S
H1287 C1296 0.950 . S
H1288 C1298 0.950 . S
H1289 C1300 0.950 . S
H1290 C1302 0.950 . S
H1291 C1303 0.950 . S
C1292 H1284 0.950 . S
C1292 C1293 1.386 . S
C1292 C1294 1.391 . S
C1293 C1292 1.386 . S
C1293 C1297 1.393 . S
C1294 H1286 0.950 . S
C1294 C1292 1.391 . S
C1294 C1295 1.400 . S
C1295 C1294 1.400 . S
C1295 C1296 1.398 . S
C1295 C1301 1.491 . S
C1296 H1287 0.950 . S
C1296 C1295 1.398 . S
C1296 C1297 1.391 . S
C1297 H1285 0.950 . S
C1297 C1293 1.393 . S
C1297 C1296 1.391 . S
C1298 H1288 0.950 . S
C1298 C1299 1.386 . S
C1298 C1300 1.391 . S
C1299 C1298 1.386 . S
C1299 C1303 1.393 . S
C1300 H1289 0.950 . S
C1300 C1298 1.391 . S
C1300 C1301 1.400 . S
C1301 C1295 1.491 . S
C1301 C1300 1.400 . S
C1301 C1302 1.398 . S
C1302 H1290 0.950 . S
C1302 C1301 1.398 . S
C1302 C1303 1.391 . S
C1303 H1291 0.950 . S
C1303 C1299 1.393 . S
C1303 C1302 1.391 . S
H1304 C1312 0.950 . S
H1305 C1317 0.950 . S
H1306 C1314 0.950 . S
H1307 C1316 0.950 . S
H1308 C1318 0.950 . S
H1309 C1320 0.950 . S
H1310 C1322 0.950 . S
H1311 C1323 0.950 . S
C1312 H1304 0.950 . S
C1312 C1313 1.386 . S
C1312 C1314 1.391 . S
C1313 C1312 1.386 . S
C1313 C1317 1.393 . S
C1314 H1306 0.950 . S
C1314 C1312 1.391 . S
C1314 C1315 1.400 . S
C1315 C1314 1.400 . S
C1315 C1316 1.398 . S
C1315 C1321 1.491 . S
C1316 H1307 0.950 . S
C1316 C1315 1.398 . S
C1316 C1317 1.391 . S
C1317 H1305 0.950 . S
C1317 C1313 1.393 . S
C1317 C1316 1.391 . S
C1318 H1308 0.950 . S
C1318 C1319 1.386 . S
C1318 C1320 1.391 . S
C1319 C1318 1.386 . S
C1319 C1323 1.393 . S
C1320 H1309 0.950 . S
C1320 C1318 1.391 . S
C1320 C1321 1.400 . S
C1321 C1315 1.491 . S
C1321 C1320 1.400 . S
C1321 C1322 1.398 . S
C1322 H1310 0.950 . S
C1322 C1321 1.398 . S
C1322 C1323 1.391 . S
C1323 H1311 0.950 . S
C1323 C1319 1.393 . S
C1323 C1322 1.391 . S
H1324 C1332 0.950 . S
H1325 C1337 0.950 . S
H1326 C1334 0.950 . S
H1327 C1336 0.950 . S
H1328 C1338 0.950 . S
H1329 C1340 0.950 . S
H1330 C1342 0.950 . S
H1331 C1343 0.950 . S
C1332 H1324 0.950 . S
C1332 C1333 1.386 . S
C1332 C1334 1.391 . S
C1333 C1332 1.386 . S
C1333 C1337 1.393 . S
C1334 H1326 0.950 . S
C1334 C1332 1.391 . S
C1334 C1335 1.400 . S
C1335 C1334 1.400 . S
C1335 C1336 1.398 . S
C1335 C1341 1.491 . S
C1336 H1327 0.950 . S
C1336 C1335 1.398 . S
C1336 C1337 1.391 . S
C1337 H1325 0.950 . S
C1337 C1333 1.393 . S
C1337 C1336 1.391 . S
C1338 H1328 0.950 . S
C1338 C1339 1.386 . S
C1338 C1340 1.391 . S
C1339 C1338 1.386 . S
C1339 C1343 1.393 . S
C1340 H1329 0.950 . S
C1340 C1338 1.391 . S
C1340 C1341 1.400 . S
C1341 C1335 1.491 . S
C1341 C1340 1.400 . S
C1341 C1342 1.398 . S
C1342 H1330 0.950 . S
C1342 C1341 1.398 . S
C1342 C1343 1.391 . S
C1343 H1331 0.950 . S
C1343 C1339 1.393 . S
C1343 C1342 1.391 . S
C399 C373 1.249 . S
C393 C8 1.310 . S
C413 C23 1.156 . S
C419 C326 1.050 . S
C433 C35 1.328 . S
C439 C337 1.251 . S
C459 C362 1.007 . S
C453 C45 1.174 . S
C473 C22 1.317 . S
C479 C380 1.228 . S
C499 C319 0.993 . S
C493 C31 1.100 . S
C519 C344 1.244 . S
C513 C49 1.339 . S
C539 C355 1.019 . S
C533 C9 1.126 . S
C553 C65 1.294 . S
C559 C356 1.289 . S
C579 C382 1.023 . S
C573 C73 1.150 . S
C599 C320 1.332 . S
C593 C93 1.297 1_565 S
C619 C346 1.009 . S
C613 C101 1.142 . S
C633 C59 1.277 . S
C639 C328 1.244 . S
C653 C79 1.144 . S
C659 C338 1.033 . S
C673 C87 1.288 . S
C679 C364 1.203 . S
C699 C374 1.128 . S
C693 C107 1.232 . S
C719 C211 1.352 . S
C713 C106 1.383 . S
C739 C194 1.233 . S
C733 C119 1.296 . S
C759 C220 1.088 . S
C753 C134 1.180 . S
C779 C238 1.182 . S
C773 C147 1.280 . S
C793 C64 1.179 . S
C799 C212 1.060 . S
C813 C78 1.333 . S
C819 C182 1.272 . S
C833 C133 1.209 . S
C839 C236 0.972 . S
C853 C161 1.191 . S
C859 C193 1.044 . S
C879 C247 1.238 . S
C873 C36 1.302 . S
C899 C272 1.067 . S
C893 C51 1.189 . S
C913 C7 1.325 . S
C919 C283 1.272 . S
C933 C17 1.149 . S
C939 C308 0.998 . S
C959 C254 1.260 . S
C953 C50 1.329 1_554 S
C979 C265 1.004 . S
C973 C3 1.123 . S
C993 C21 1.339 . S
C999 C290 1.243 . S
C1019 C301 1.036 . S
C1013 C37 1.114 . S
C1033 C163 1.297 . S
C1039 C302 1.274 . S
C1053 C115 1.160 . S
C1059 C256 1.068 . S
C1079 C266 1.301 . S
C1073 C135 1.304 . S
C1093 C143 1.122 . S
C1099 C292 0.978 . S
C1119 C274 1.230 . S
C1113 C157 1.273 . S
C1133 C121 1.147 . S
C1139 C284 1.031 . S
C1159 C310 1.220 . S
C1153 C129 1.270 . S
C1179 C248 1.152 . S
C1173 C149 1.230 . S
C1199 C175 1.338 . S
C1193 C148 1.377 . S
C1219 C230 1.213 . S
C1213 C77 1.299 . S
C1233 C92 1.179 . S
C1239 C184 1.097 . S
C1259 C202 1.216 . S
C1253 C105 1.280 . S
C1279 C176 1.062 . S
C1273 C162 1.155 . S
C1293 C120 1.333 . S
C1299 C218 1.271 . S
C1313 C91 1.218 . S
C1319 C200 1.027 . S
C1333 C63 1.192 . S
C1339 C229 1.042 . S
