# Generated by pormake.
# Topology anh, (6,3)-cn, num edge types: 1
# Building blocks:
#     Node 0, Type 0, BuildingBlock: VOLQOD_clean_sbu_1, # of connection points: 6
#     Node 1, Type 0, BuildingBlock: VOLQOD_clean_sbu_1, # of connection points: 6
#     Node 2, Type 0, BuildingBlock: VOLQOD_clean_sbu_1, # of connection points: 6
#     Node 3, Type 1, BuildingBlock: CUQRIR_clean_linker_1, # of connection points: 3
#     Node 4, Type 1, BuildingBlock: CUQRIR_clean_linker_1, # of connection points: 3
#     Node 5, Type 1, BuildingBlock: CUQRIR_clean_linker_1, # of connection points: 3
#     Node 6, Type 1, BuildingBlock: CUQRIR_clean_linker_1, # of connection points: 3
#     Node 7, Type 1, BuildingBlock: CUQRIR_clean_linker_1, # of connection points: 3
#     Node 8, Type 1, BuildingBlock: CUQRIR_clean_linker_1, # of connection points: 3
#     Edge 9, Type (0, 1), BuildingBlock: MIFKUJ_clean_linker_0, # of connection points: 2
#     Edge 10, Type (0, 1), BuildingBlock: MIFKUJ_clean_linker_0, # of connection points: 2
#     Edge 11, Type (0, 1), BuildingBlock: MIFKUJ_clean_linker_0, # of connection points: 2
#     Edge 12, Type (0, 1), BuildingBlock: MIFKUJ_clean_linker_0, # of connection points: 2
#     Edge 13, Type (0, 1), BuildingBlock: MIFKUJ_clean_linker_0, # of connection points: 2
#     Edge 14, Type (0, 1), BuildingBlock: MIFKUJ_clean_linker_0, # of connection points: 2
#     Edge 15, Type (0, 1), BuildingBlock: MIFKUJ_clean_linker_0, # of connection points: 2
#     Edge 16, Type (0, 1), BuildingBlock: MIFKUJ_clean_linker_0, # of connection points: 2
#     Edge 17, Type (0, 1), BuildingBlock: MIFKUJ_clean_linker_0, # of connection points: 2
#     Edge 18, Type (0, 1), BuildingBlock: MIFKUJ_clean_linker_0, # of connection points: 2
#     Edge 19, Type (0, 1), BuildingBlock: MIFKUJ_clean_linker_0, # of connection points: 2
#     Edge 20, Type (0, 1), BuildingBlock: MIFKUJ_clean_linker_0, # of connection points: 2
#     Edge 21, Type (0, 1), BuildingBlock: MIFKUJ_clean_linker_0, # of connection points: 2
#     Edge 22, Type (0, 1), BuildingBlock: MIFKUJ_clean_linker_0, # of connection points: 2
#     Edge 23, Type (0, 1), BuildingBlock: MIFKUJ_clean_linker_0, # of connection points: 2
#     Edge 24, Type (0, 1), BuildingBlock: MIFKUJ_clean_linker_0, # of connection points: 2
#     Edge 25, Type (0, 1), BuildingBlock: MIFKUJ_clean_linker_0, # of connection points: 2
#     Edge 26, Type (0, 1), BuildingBlock: MIFKUJ_clean_linker_0, # of connection points: 2
# Relax obj value: 0.185
# Max RMSD: 0.221
# Mean RMSD: 0.171
data_MOF--net-anh--node1-VOLQOD_clean_sbu_1--node2-CUQRIR_clean_linker_1--edge1-MIFKUJ_clean_linker_0
_symmetry_space_group_name_H-M    P1
_symmetry_Int_Tables_number       1
_symmetry_cell_setting            triclinic
loop_
_symmetry_equiv_pos_as_xyz
'x, y, z'
_cell_length_a     35.402198
_cell_length_b     35.300655
_cell_length_c     70.302948
_cell_angle_alpha  85.570845
_cell_angle_beta   89.842095
_cell_angle_gamma 120.08088
loop_
_atom_site_label
_atom_site_type_symbol
_atom_site_fract_x
_atom_site_fract_y
_atom_site_fract_z
_atom_type_partial_charge
O0 O 0.99513 0.51712 0.20393 0.0
Zn1 Zn -0.00163 0.53125 0.17536 0.0
O2 O 0.00392 0.48805 0.16161 0.0
Zn3 Zn 0.95359 0.45797 0.14616 0.0
Zn4 Zn 0.00795 0.44583 0.17999 0.0
Zn5 Zn 0.05569 0.51716 0.14461 0.0
O6 O 0.97083 0.45855 0.11859 0.0
O7 O 0.04119 0.50939 0.11708 0.0
O8 O 0.94675 0.53706 0.16715 0.0
O9 O 0.91915 0.48891 0.1454 0.0
O10 O 0.91377 0.39641 0.15801 0.0
O11 O 0.95269 0.38718 0.18076 0.0
O12 O 0.06024 0.43915 0.17401 0.0
O13 O 0.05189 0.59071 0.16996 0.0
O14 O 0.09332 0.49084 0.14999 0.0
O15 O 0.09163 0.58129 0.14838 0.0
C16 C 0.00418 0.49154 0.21415 0.0
C17 C 0.00676 0.48317 0.10898 0.0
C18 C 0.91783 0.37281 0.1716 0.0
C19 C 0.91917 0.51871 0.15451 0.0
C20 C 0.09169 0.46047 0.16156 0.0
C21 C 0.08604 0.60579 0.15905 0.0
O22 O 0.01242 0.4646 0.20663 0.0
O23 O 0.58574 0.06333 0.45733 0.0
Zn24 Zn 0.5744 0.06952 0.48454 0.0
O25 O 0.61542 0.06246 0.50077 0.0
Zn26 Zn 0.65129 0.11562 0.51313 0.0
Zn27 Zn 0.65305 0.04891 0.4857 0.0
Zn28 Zn 0.58221 0.0154 0.5204 0.0
O29 O 0.6435 0.10515 0.54192 0.0
O30 O 0.58578 0.03783 0.54607 0.0
O31 O 0.5769 0.12732 0.48696 0.0
O32 O 0.63216 0.15905 0.50605 0.0
O33 O 0.7143 0.14507 0.50394 0.0
O34 O 0.7139 0.10228 0.48226 0.0
O35 O 0.65567 0.99631 0.49859 0.0
O36 O 0.51269 0.0205 0.49062 0.0
O37 O 0.607 0.97601 0.5228 0.0
O38 O 0.51939 0.97861 0.51396 0.0
C39 C 0.60618 0.04691 0.44956 0.0
C40 C 0.6137 0.07338 0.55273 0.0
C41 C 0.73366 0.13725 0.49082 0.0
C42 C 0.60272 0.15986 0.49599 0.0
C43 C 0.63505 0.97121 0.51358 0.0
C44 C 0.49619 0.98571 0.50202 0.0
O45 O 0.63094 0.03667 0.45906 0.0
O46 O 0.52291 0.62786 0.79341 0.0
Zn47 Zn 0.5144 0.6092 0.82173 0.0
O48 O 0.56727 0.64471 0.83517 0.0
Zn49 Zn 0.55775 0.67922 0.85268 0.0
Zn50 Zn 0.61459 0.68286 0.81648 0.0
Zn51 Zn 0.58192 0.60691 0.85056 0.0
O52 O 0.57818 0.6748 0.87927 0.0
O53 O 0.57826 0.61222 0.87846 0.0
O54 O 0.46282 0.6099 0.83366 0.0
O55 O 0.49335 0.65508 0.85643 0.0
O56 O 0.58564 0.7419 0.84141 0.0
O57 O 0.62813 0.74554 0.81714 0.0
O58 O 0.66849 0.67752 0.82081 0.0
O59 O 0.50023 0.54605 0.82362 0.0
O60 O 0.64334 0.62373 0.84431 0.0
O61 O 0.54467 0.54422 0.8454 0.0
C62 C 0.55786 0.64763 0.78276 0.0
C63 C 0.58047 0.64278 0.88771 0.0
C64 C 0.61301 0.76359 0.82743 0.0
C65 C 0.45978 0.62858 0.84793 0.0
C66 C 0.67391 0.65154 0.83261 0.0
C67 C 0.51436 0.52503 0.83396 0.0
O68 O 0.59535 0.66693 0.78987 0.0
C69 C 0.48389 -0.00178 0.2269 0.0
N70 N 0.51172 0.01327 0.24122 0.0
N71 N 0.44636 0.9615 0.23328 0.0
C72 C 0.49404 0.01854 0.20656 0.0
C73 C 0.45249 0.95432 0.25191 0.0
N74 N 0.49248 0.98569 0.25672 0.0
C75 C 0.41986 0.91603 0.26518 0.0
H76 H 0.49161 0.04875 0.20564 0.0
H77 H 0.471 0.99621 0.19655 0.0
H78 H 0.52794 0.02808 0.20203 0.0
H79 H 0.42631 0.88844 0.26462 0.0
H80 H 0.38595 0.90441 0.26092 0.0
H81 H 0.42276 0.92501 0.28011 0.0
C82 C 0.54521 0.51915 0.56353 0.0
N83 N 0.54762 0.54714 0.57614 0.0
N84 N 0.53277 0.47919 0.57261 0.0
C85 C 0.55931 0.53203 0.54273 0.0
C86 C 0.52808 0.48404 0.59122 0.0
N87 N 0.53691 0.52537 0.59333 0.0
C88 C 0.51906 0.44988 0.60742 0.0
H89 H 0.5443 0.50289 0.53437 0.0
H90 H 0.59538 0.54746 0.54125 0.0
H91 H 0.55043 0.55646 0.53683 0.0
H92 H 0.55049 0.45688 0.6136 0.0
H93 H 0.50301 0.41647 0.60241 0.0
H94 H 0.49816 0.45121 0.61884 0.0
C95 C 0.01248 0.52867 0.87509 0.0
N96 N 0.02831 0.52005 0.89133 0.0
N97 N 0.97344 0.52549 0.87872 0.0
C98 C 0.03542 0.54111 0.85566 0.0
C99 C 0.96591 0.51435 0.89779 0.0
N100 N -0.00092 0.51066 0.90542 0.0
C101 C 0.92939 0.51337 0.90922 0.0
H102 H 0.05654 0.57736 0.85343 0.0
H103 H 0.01127 0.53044 0.84435 0.0
H104 H 0.05625 0.52608 0.85441 0.0
H105 H 0.89772 0.49207 0.9029 0.0
H106 H 0.93428 0.54706 0.90859 0.0
H107 H 0.92785 0.50103 0.92437 0.0
C108 C 0.0958 0.58876 0.43882 0.0
N109 N 0.0744 0.56021 0.42565 0.0
N110 N 0.12594 0.62835 0.4302 0.0
C111 C 0.08869 0.57719 0.46007 0.0
C112 C 0.12252 0.62273 0.41134 0.0
N113 N 0.09134 0.58109 0.40855 0.0
C114 C 0.15033 0.6578 0.39576 0.0
H115 H 0.11343 0.60388 0.46808 0.0
H116 H 0.0895 0.54648 0.4638 0.0
H117 H 0.05583 0.57093 0.46455 0.0
H118 H 0.16072 0.69102 0.40014 0.0
H119 H 0.13243 0.65311 0.38242 0.0
H120 H 0.18016 0.65595 0.39285 0.0
C121 C 0.5554 0.14487 0.7766 0.0
N122 N 0.56427 0.12451 0.76317 0.0
N123 N 0.54801 0.17627 0.76824 0.0
C124 C 0.5579 0.13698 0.79778 0.0
C125 C 0.55281 0.17441 0.7493 0.0
N126 N 0.56307 0.14324 0.74623 0.0
C127 C 0.54429 0.20075 0.73383 0.0
H128 H 0.52512 0.1114 0.80383 0.0
H129 H 0.56805 0.16739 0.80492 0.0
H130 H 0.58129 0.12532 0.80089 0.0
H131 H 0.57541 0.23129 0.72934 0.0
H132 H 0.52063 0.20997 0.73904 0.0
H133 H 0.53136 0.18192 0.72117 0.0
C134 C 0.53175 0.53719 0.12028 0.0
N135 N 0.56086 0.55574 0.10506 0.0
N136 N 0.49036 0.51707 0.1144 0.0
C137 C 0.54335 0.5352 0.14077 0.0
C138 C 0.49501 0.52388 0.09516 0.0
N139 N 0.53777 0.54688 0.08948 0.0
C140 C 0.45778 0.50965 0.08197 0.0
H141 H 0.5155 0.50811 0.14959 0.0
H142 H 0.55187 0.56666 0.14664 0.0
H143 H 0.57197 0.53039 0.14181 0.0
H144 H 0.46728 0.53295 0.06896 0.0
H145 H 0.42861 0.50709 0.08922 0.0
H146 H 0.44894 0.47683 0.07751 0.0
H147 H 0.15789 0.49396 0.13443 0.0
H148 H 0.21854 0.48065 0.13243 0.0
H149 H 0.16865 0.39155 0.18361 0.0
H150 H 0.10717 0.40513 0.18591 0.0
H151 H 0.25694 0.44907 0.18406 0.0
H152 H 0.16232 0.34788 0.14283 0.0
H153 H 0.10899 0.31961 0.11773 0.0
H154 H 0.20448 0.41586 0.0761 0.0
H155 H 0.25822 0.44519 0.10098 0.0
H156 H 0.42775 0.43212 0.11558 0.0
H157 H 0.35458 0.39841 0.1313 0.0
H158 H 0.38946 0.52247 0.1531 0.0
H159 H 0.46283 0.55491 0.13811 0.0
H160 H 0.29733 0.41681 0.12222 0.0
H161 H 0.32865 0.51527 0.18977 0.0
H162 H 0.38006 0.53848 0.21575 0.0
H163 H 0.40783 0.43564 0.20709 0.0
H164 H 0.35608 0.41131 0.18125 0.0
C165 C 0.15942 0.47132 0.14528 0.0
C166 C 0.12754 0.45056 0.16033 0.0
C167 C 0.1941 0.46354 0.14403 0.0
C168 C 0.19771 0.43458 0.1577 0.0
C169 C 0.16618 0.41377 0.17285 0.0
C170 C 0.13111 0.42148 0.1741 0.0
C171 C 0.23585 0.42826 0.15615 0.0
C172 C 0.26572 0.44138 0.1707 0.0
C173 C 0.24635 0.41645 0.13898 0.0
C174 C 0.21434 0.39875 0.12382 0.0
C175 C 0.17191 0.36317 0.12834 0.0
C176 C 0.1416 0.34694 0.11414 0.0
C177 C 0.15334 0.36592 0.09533 0.0
C178 C 0.19546 0.40114 0.09067 0.0
C179 C 0.2259 0.41751 0.10482 0.0
C180 C 0.41977 0.45142 0.12426 0.0
C181 C 0.45028 0.4958 0.1258 0.0
C182 C 0.37817 0.43237 0.13319 0.0
C183 C 0.3664 0.45769 0.14356 0.0
C184 C 0.39786 0.50173 0.14568 0.0
C185 C 0.43962 0.52047 0.13702 0.0
C186 C 0.32002 0.44067 0.14965 0.0
C187 C 0.28844 0.42313 0.1359 0.0
C188 C 0.30774 0.44739 0.16773 0.0
C189 C 0.33847 0.46151 0.1835 0.0
C190 C 0.3454 0.49733 0.1935 0.0
C191 C 0.37471 0.51077 0.20818 0.0
C192 C 0.39723 0.48859 0.21305 0.0
C193 C 0.39043 0.45286 0.20327 0.0
C194 C 0.36115 0.43927 0.18859 0.0
H195 H 0.41993 0.49907 0.22441 0.0
H196 H 0.12981 0.35334 0.08436 0.0
H197 H 0.77238 0.14933 0.45546 0.0
H198 H 0.83762 0.21558 0.4414 0.0
H199 H 0.85884 0.27206 0.49532 0.0
H200 H 0.79337 0.20633 0.50942 0.0
H201 H 0.84414 0.2991 0.43961 0.0
H202 H 0.97089 0.3385 0.49789 0.0
H203 H 0.99327 0.29884 0.5214 0.0
H204 H 0.94558 0.19065 0.48657 0.0
H205 H 0.92349 0.2299 0.46272 0.0
H206 H 0.99515 0.52606 0.44311 0.0
H207 H 0.94235 0.44781 0.45145 0.0
H208 H 0.03008 0.41328 0.42528 0.0
H209 H 0.08291 0.49187 0.41701 0.0
H210 H 0.99515 0.36933 0.46222 0.0
H211 H 0.94885 0.40308 0.4031 0.0
H212 H 0.92673 0.44451 0.38056 0.0
H213 H 0.81308 0.4065 0.41661 0.0
H214 H 0.8352 0.36594 0.43971 0.0
C215 C 0.79155 0.17535 0.46447 0.0
C216 C 0.7776 0.17267 0.48354 0.0
C217 C 0.82864 0.21327 0.45637 0.0
C218 C 0.85292 0.24867 0.46731 0.0
C219 C 0.84067 0.24497 0.48666 0.0
C220 C 0.80323 0.2074 0.49469 0.0
C221 C 0.88837 0.29115 0.4582 0.0
C222 C 0.87728 0.31439 0.44441 0.0
C223 C 0.93157 0.31073 0.46442 0.0
C224 C 0.94524 0.28706 0.47858 0.0
C225 C 0.96538 0.30635 0.49519 0.0
C226 C 0.97798 0.28391 0.5086 0.0
C227 C 0.97075 0.24221 0.50551 0.0
C228 C 0.95102 0.22289 0.48898 0.0
C229 C 0.93838 0.24519 0.47553 0.0
C230 C 0.00285 0.50155 0.43917 0.0
C231 C 0.04267 0.51438 0.42949 0.0
C232 C 0.97288 0.45709 0.44387 0.0
C233 C 0.98241 0.42487 0.43897 0.0
C234 C 0.02227 0.43772 0.42923 0.0
C235 C 0.05212 0.48228 0.42439 0.0
C236 C 0.95051 0.3778 0.44409 0.0
C237 C 0.9622 0.35382 0.45719 0.0
C238 C 0.90774 0.35765 0.4373 0.0
C239 C 0.89384 0.38143 0.42321 0.0
C240 C 0.91926 0.40368 0.4063 0.0
C241 C 0.90674 0.42709 0.39342 0.0
C242 C 0.86847 0.42804 0.39712 0.0
C243 C 0.8427 0.40567 0.41374 0.0
C244 C 0.85526 0.38249 0.42675 0.0
H245 H 0.8588 0.44613 0.38711 0.0
H246 H 0.98051 0.22489 0.5159 0.0
H247 H 0.5755 0.80718 0.84189 0.0
H248 H 0.57876 0.87393 0.82762 0.0
H249 H 0.67392 0.88921 0.78482 0.0
H250 H 0.67053 0.82168 0.79881 0.0
H251 H 0.6827 0.97267 0.8035 0.0
H252 H 0.59049 0.84907 0.76766 0.0
H253 H 0.5338 0.77179 0.76527 0.0
H254 H 0.44082 0.79197 0.79561 0.0
H255 H 0.49724 0.86921 0.79848 0.0
H256 H 0.63483 0.12283 0.74949 0.0
H257 H 0.65234 0.06416 0.7564 0.0
H258 H 0.53355 0.99018 0.79187 0.0
H259 H 0.51534 0.04778 0.78418 0.0
H260 H 0.54519 0.93706 0.77163 0.0
H261 H 0.63503 0.05538 0.81048 0.0
H262 H 0.69019 0.13162 0.81575 0.0
H263 H 0.78583 0.12156 0.7822 0.0
H264 H 0.731 0.04538 0.77653 0.0
C265 C 0.59796 0.82512 0.82972 0.0
C266 C 0.62232 0.80868 0.82134 0.0
C267 C 0.59974 0.86329 0.8216 0.0
C268 C 0.62623 0.88601 0.80511 0.0
C269 C 0.65329 0.87192 0.79756 0.0
C270 C 0.65119 0.83332 0.80556 0.0
C271 C 0.62131 0.92114 0.79476 0.0
C272 C 0.65318 0.96512 0.79612 0.0
C273 C 0.58242 0.91092 0.78547 0.0
C274 C 0.54817 0.86479 0.78341 0.0
C275 C 0.55805 0.83692 0.77395 0.0
C276 C 0.52596 0.79315 0.77249 0.0
C277 C 0.48375 0.77695 0.78032 0.0
C278 C 0.47353 0.80455 0.78957 0.0
C279 C 0.50554 0.84834 0.7911 0.0
C280 C 0.61233 0.09362 0.7585 0.0
C281 C 0.57396 0.08963 0.76647 0.0
C282 C 0.62244 0.06038 0.76256 0.0
C283 C 0.59456 0.02307 0.77488 0.0
C284 C 0.5556 0.01868 0.78236 0.0
C285 C 0.54536 0.05162 0.77814 0.0
C286 C 0.60614 0.98904 0.78069 0.0
C287 C 0.57533 0.94498 0.77853 0.0
C288 C 0.64585 -0.0007 0.7894 0.0
C289 C 0.67883 0.04493 0.7929 0.0
C290 C 0.66775 0.06955 0.80412 0.0
C291 C 0.69895 0.11272 0.80719 0.0
C292 C 0.74145 0.13147 0.79927 0.0
C293 C 0.75287 0.10703 0.7883 0.0
C294 C 0.72176 0.06386 0.78515 0.0
H295 H 0.76557 0.1649 0.80166 0.0
H296 H 0.45896 0.74304 0.77918 0.0
H297 H 0.90037 0.5729 0.17351 0.0
H298 H 0.84858 0.59746 0.16463 0.0
H299 H 0.81546 0.52258 0.11554 0.0
H300 H 0.86667 0.49787 0.12422 0.0
H301 H 0.83083 0.60791 0.10719 0.0
H302 H 0.74946 0.48268 0.15425 0.0
H303 H 0.73662 0.44235 0.18604 0.0
H304 H 0.73644 0.5484 0.21206 0.0
H305 H 0.74987 0.58961 0.18041 0.0
H306 H 0.61008 0.53208 0.08547 0.0
H307 H 0.68495 0.55049 0.09188 0.0
H308 H 0.69079 0.63668 0.13347 0.0
H309 H 0.61653 0.62016 0.12618 0.0
H310 H 0.69848 0.56376 0.14814 0.0
H311 H 0.76726 0.68371 0.10173 0.0
H312 H 0.78875 0.73105 0.07147 0.0
H313 H 0.81618 0.64126 0.04502 0.0
H314 H 0.79464 0.59318 0.07512 0.0
C315 C 0.88201 0.56165 0.16084 0.0
C316 C 0.88751 0.53326 0.14963 0.0
C317 C 0.85249 0.57571 0.15581 0.0
C318 C 0.82829 0.56179 0.13944 0.0
C319 C 0.83401 0.53381 0.12818 0.0
C320 C 0.8631 0.51949 0.13326 0.0
C321 C 0.79616 0.57533 0.13402 0.0
C322 C 0.80168 0.59809 0.11604 0.0
C323 C 0.75933 0.56424 0.14602 0.0
C324 C 0.75125 0.53946 0.16501 0.0
C325 C 0.74709 0.49756 0.16677 0.0
C326 C 0.73962 0.47451 0.18476 0.0
C327 C 0.73588 0.49287 0.20107 0.0
C328 C 0.73946 0.53427 0.19942 0.0
C329 C 0.74699 0.55748 0.18146 0.0
C330 C 0.62812 0.55663 0.09524 0.0
C331 C 0.6075 0.57433 0.10551 0.0
C332 C 0.67084 0.56703 0.09897 0.0
C333 C 0.69328 0.59477 0.11322 0.0
C334 C 0.674 0.61522 0.12241 0.0
C335 C 0.63161 0.60555 0.11836 0.0
C336 C 0.73223 0.59499 0.12091 0.0
C337 C 0.72796 0.5745 0.13936 0.0
C338 C 0.77028 0.60838 0.10935 0.0
C339 C 0.77905 0.63468 0.09069 0.0
C340 C 0.77716 0.67364 0.08939 0.0
C341 C 0.78973 0.70082 0.0723 0.0
C342 C 0.80417 0.68935 0.05637 0.0
C343 C 0.80531 0.65026 0.05741 0.0
C344 C 0.79294 0.62305 0.07449 0.0
H345 H 0.81412 0.71056 0.04318 0.0
H346 H 0.73007 0.47496 0.21498 0.0
H347 H 0.43137 0.99307 0.48404 0.0
H348 H 0.3617 0.93279 0.47465 0.0
H349 H 0.39025 0.83863 0.50369 0.0
H350 H 0.45932 0.8984 0.51354 0.0
H351 H 0.37579 0.83897 0.46009 0.0
H352 H 0.31504 0.83603 0.5227 0.0
H353 H 0.29741 0.86967 0.5482 0.0
H354 H 0.22203 0.90256 0.50975 0.0
H355 H 0.23979 0.86968 0.48392 0.0
H356 H 0.19543 0.63234 0.44694 0.0
H357 H 0.25475 0.69596 0.46085 0.0
H358 H 0.19108 0.77081 0.44653 0.0
H359 H 0.13147 0.70653 0.43284 0.0
H360 H 0.2222 0.7849 0.48172 0.0
H361 H 0.27777 0.78919 0.41985 0.0
H362 H 0.29756 0.76362 0.39188 0.0
H363 H 0.38467 0.73749 0.42529 0.0
H364 H 0.36485 0.76222 0.45357 0.0
C365 C 0.42229 0.95955 0.48884 0.0
C366 C 0.45095 0.95047 0.49944 0.0
C367 C 0.38252 0.92526 0.48349 0.0
C368 C 0.37116 0.88151 0.48847 0.0
C369 C 0.3986 0.87233 0.49981 0.0
C370 C 0.43794 0.90654 0.50546 0.0
C371 C 0.33353 0.84546 0.47997 0.0
C372 C 0.34217 0.82655 0.46498 0.0
C373 C 0.2899 0.83119 0.4858 0.0
C374 C 0.2792 0.85089 0.50132 0.0
C375 C 0.29513 0.85088 0.51962 0.0
C376 C 0.285 0.8697 0.53415 0.0
C377 C 0.25874 0.88838 0.53058 0.0
C378 C 0.24244 0.88816 0.51248 0.0
C379 C 0.25249 0.8694 0.4979 0.0
C380 C 0.19431 0.66244 0.44694 0.0
C381 C 0.15947 0.66513 0.43893 0.0
C382 C 0.22807 0.6987 0.45474 0.0
C383 C 0.22758 0.7383 0.4545 0.0
C384 C 0.19212 0.74062 0.44682 0.0
C385 C 0.15831 0.70421 0.43901 0.0
C386 C 0.2644 0.77717 0.46216 0.0
C387 C 0.25574 0.79703 0.47683 0.0
C388 C 0.30819 0.79311 0.45575 0.0
C389 C 0.31938 0.77706 0.43891 0.0
C390 C 0.30073 0.77747 0.42131 0.0
C391 C 0.31206 0.76325 0.40537 0.0
C392 C 0.34226 0.74882 0.40682 0.0
C393 C 0.3612 0.74858 0.4242 0.0
C394 C 0.34992 0.76269 0.44019 0.0
H395 H 0.35107 0.73793 0.39445 0.0
H396 H 0.25093 0.90292 0.54185 0.0
H397 H 0.51988 0.46449 0.85842 0.0
H398 H 0.51296 0.39524 0.85047 0.0
H399 H 0.47147 0.41306 0.7945 0.0
H400 H 0.47729 0.48189 0.8025 0.0
H401 H 0.43354 0.32602 0.80701 0.0
H402 H 0.577 0.45405 0.80075 0.0
H403 H 0.64087 0.51943 0.8117 0.0
H404 H 0.65846 0.43792 0.85513 0.0
H405 H 0.59419 0.37209 0.84463 0.0
H406 H 0.59314 0.26407 0.76156 0.0
H407 H 0.57743 0.31654 0.7753 0.0
H408 H 0.47029 0.20986 0.80974 0.0
H409 H 0.48505 0.15714 0.79518 0.0
H410 H 0.57945 0.33849 0.80961 0.0
H411 H 0.39056 0.23721 0.8163 0.0
H412 H 0.32939 0.17749 0.80092 0.0
H413 H 0.40794 0.21431 0.74878 0.0
H414 H 0.4693 0.27458 0.76377 0.0
C415 C 0.50807 0.45302 0.84462 0.0
C416 C 0.49991 0.47894 0.83095 0.0
C417 C 0.50411 0.41347 0.84011 0.0
C418 C 0.49273 0.39968 0.82176 0.0
C419 C 0.48046 0.42328 0.80872 0.0
C420 C 0.48389 0.46265 0.81331 0.0
C421 C 0.49988 0.36482 0.81528 0.0
C422 C 0.46527 0.32841 0.80772 0.0
C423 C 0.54167 0.36872 0.81576 0.0
C424 C 0.58048 0.40821 0.82205 0.0
C425 C 0.59428 0.45011 0.81273 0.0
C426 C 0.63057 0.48724 0.81885 0.0
C427 C 0.65364 0.48285 0.83413 0.0
C428 C 0.6405 0.44129 0.84331 0.0
C429 C 0.60414 0.40405 0.83729 0.0
C430 C 0.56607 0.25201 0.77195 0.0
C431 C 0.53997 0.20685 0.77724 0.0
C432 C 0.5573 0.28187 0.7799 0.0
C433 C 0.52242 0.26709 0.79341 0.0
C434 C 0.49694 0.22191 0.79912 0.0
C435 C 0.50555 0.19194 0.79099 0.0
C436 C 0.51307 0.29935 0.80134 0.0
C437 C 0.54743 0.33549 0.80917 0.0
C438 C 0.47148 0.29587 0.80047 0.0
C439 C 0.43466 0.26003 0.79125 0.0
C440 C 0.3947 0.23261 0.80154 0.0
C441 C 0.36001 0.19867 0.79289 0.0
C442 C 0.36483 0.19201 0.77391 0.0
C443 C 0.4043 0.21939 0.76351 0.0
C444 C 0.43906 0.2534 0.77208 0.0
H445 H 0.33795 0.1657 0.76724 0.0
H446 H 0.68175 0.51164 0.83883 0.0
H447 H 0.60519 0.92106 0.54742 0.0
H448 H 0.6078 0.85546 0.55773 0.0
H449 H 0.68286 0.87143 0.50623 0.0
H450 H 0.67941 0.93747 0.49539 0.0
H451 H 0.61729 0.79052 0.51182 0.0
H452 H 0.729 0.88376 0.55067 0.0
H453 H 0.76638 0.94055 0.57302 0.0
H454 H 0.66568 0.86178 0.61641 0.0
H455 H 0.62724 0.8049 0.59423 0.0
H456 H 0.63035 0.61153 0.5789 0.0
H457 H 0.66093 0.68988 0.56815 0.0
H458 H 0.53247 0.66342 0.5528 0.0
H459 H 0.50238 0.58527 0.56358 0.0
H460 H 0.64519 0.75373 0.57791 0.0
H461 H 0.54176 0.72067 0.51037 0.0
H462 H 0.50843 0.66327 0.48798 0.0
H463 H 0.60249 0.62329 0.5009 0.0
H464 H 0.63697 0.68102 0.52304 0.0
C465 C 0.62276 0.91114 0.53828 0.0
C466 C 0.64181 0.93441 0.52046 0.0
C467 C 0.62462 0.8737 0.54435 0.0
C468 C 0.64604 0.85876 0.53291 0.0
C469 C 0.66636 0.88256 0.51534 0.0
C470 C 0.66445 0.9203 0.50918 0.0
C471 C 0.64287 0.8159 0.53869 0.0
C472 C 0.62396 0.78268 0.52619 0.0
C473 C 0.65235 0.80575 0.55733 0.0
C474 C 0.67517 0.84006 0.57073 0.0
C475 C 0.71464 0.87868 0.56493 0.0
C476 C 0.73604 0.91089 0.57758 0.0
C477 C 0.71841 0.9048 0.59612 0.0
C478 C 0.67932 0.86647 0.60205 0.0
C479 C 0.65774 0.83421 0.58944 0.0
C480 C 0.60887 0.62303 0.57356 0.0
C481 C 0.56427 0.59327 0.57209 0.0
C482 C 0.62619 0.66743 0.56738 0.0
C483 C 0.59905 0.68221 0.55941 0.0
C484 C 0.55405 0.65249 0.55863 0.0
C485 C 0.53682 0.6082 0.56487 0.0
C486 C 0.61764 0.72838 0.55139 0.0
C487 C 0.63939 0.76197 0.56345 0.0
C488 C 0.61153 0.73904 0.53226 0.0
C489 C 0.59177 0.70505 0.51849 0.0
C490 C 0.55557 0.69989 0.50832 0.0
C491 C 0.53644 0.66725 0.49568 0.0
C492 C 0.55327 0.6396 0.49305 0.0
C493 C 0.58942 0.64467 0.50298 0.0
C494 C 0.60877 0.67735 0.51558 0.0
H495 H 0.53833 0.61427 0.4833 0.0
H496 H 0.73505 0.92976 0.6059 0.0
H497 H 0.70414 0.62137 0.86184 0.0
H498 H 0.76967 0.6156 0.86194 0.0
H499 H 0.80423 0.67594 0.80407 0.0
H500 H 0.7379 0.68208 0.80384 0.0
H501 H 0.80693 0.59608 0.81086 0.0
H502 H 0.8667 0.73495 0.83554 0.0
H503 H 0.86824 0.78999 0.85558 0.0
H504 H 0.86175 0.71025 0.90618 0.0
H505 H 0.85951 0.65441 0.88648 0.0
H506 H 0.01068 0.60928 0.86382 0.0
H507 H 0.97432 0.64443 0.84681 0.0
H508 H 0.85346 0.51997 0.85117 0.0
H509 H 0.89052 0.48477 0.86767 0.0
H510 H 0.91186 0.6522 0.86233 0.0
H511 H 0.78793 0.51638 0.81605 0.0
H512 H 0.78692 0.46224 0.7956 0.0
H513 H 0.92627 0.54011 0.78625 0.0
H514 H 0.92811 0.5951 0.80639 0.0
C515 C 0.72577 0.63386 0.84915 0.0
C516 C 0.71589 0.65218 0.83282 0.0
C517 C 0.76332 0.63068 0.84927 0.0
C518 C 0.79184 0.64566 0.83307 0.0
C519 C 0.78256 0.66444 0.81673 0.0
C520 C 0.74494 0.66811 0.81666 0.0
C521 C 0.82993 0.63921 0.83342 0.0
C522 C 0.83048 0.60882 0.82186 0.0
C523 C 0.86105 0.65671 0.84752 0.0
C524 C 0.8629 0.69044 0.8595 0.0
C525 C 0.86539 0.72904 0.85094 0.0
C526 C 0.8664 0.7604 0.86225 0.0
C527 C 0.86509 0.75362 0.88214 0.0
C528 C 0.86283 0.71549 0.89077 0.0
C529 C 0.86179 0.68401 0.87954 0.0
C530 C 0.9767 0.58938 0.86056 0.0
C531 C 0.95317 0.54448 0.86687 0.0
C532 C 0.95594 0.6094 0.85097 0.0
C533 C 0.91129 0.58479 0.84757 0.0
C534 C 0.88814 0.53946 0.85329 0.0
C535 C 0.90902 0.51943 0.86285 0.0
C536 C 0.88754 0.6072 0.84043 0.0
C537 C 0.88949 0.64044 0.85085 0.0
C538 C 0.85911 0.59257 0.82517 0.0
C539 C 0.85815 0.55982 0.81283 0.0
C540 C 0.81834 0.52215 0.80953 0.0
C541 C 0.81763 0.49125 0.79802 0.0
C542 C 0.85651 0.49769 0.78966 0.0
C543 C 0.89619 0.5351 0.79278 0.0
C544 C 0.89709 0.56611 0.80427 0.0
H545 H 0.85588 0.47372 0.78076 0.0
H546 H 0.86584 0.77792 0.89087 0.0
H547 H 0.08478 0.66938 0.17852 0.0
H548 H 0.14768 0.73897 0.18573 0.0
H549 H 0.23162 0.71444 0.15047 0.0
H550 H 0.16904 0.64483 0.14312 0.0
H551 H 0.25514 0.72618 0.18822 0.0
H552 H 0.21787 0.79806 0.13712 0.0
H553 H 0.16909 0.81691 0.11901 0.0
H554 H 0.14902 0.87211 0.16772 0.0
H555 H 0.1972 0.85303 0.18623 0.0
H556 H 0.45055 0.91362 0.20655 0.0
H557 H 0.38972 0.86097 0.18875 0.0
H558 H 0.30198 0.89103 0.21814 0.0
H559 H 0.36365 0.94517 0.23529 0.0
H560 H 0.28125 0.87853 0.18156 0.0
H561 H 0.3102 0.8026 0.23355 0.0
H562 H 0.35552 0.78238 0.25361 0.0
H563 H 0.38566 0.73165 0.20586 0.0
H564 H 0.34109 0.75228 0.18541 0.0
C565 C 0.11643 0.67921 0.17193 0.0
C566 C 0.122 0.65127 0.16046 0.0
C567 C 0.15228 0.71911 0.17599 0.0
C568 C 0.19418 0.73164 0.16864 0.0
C569 C 0.19944 0.70519 0.15625 0.0
C570 C 0.16361 0.66545 0.15207 0.0
C571 C 0.23295 0.76899 0.17593 0.0
C572 C 0.26141 0.75969 0.18641 0.0
C573 C 0.2398 0.81217 0.17423 0.0
C574 C 0.21087 0.82376 0.16311 0.0
C575 C 0.20276 0.81387 0.14403 0.0
C576 C 0.17527 0.82467 0.13368 0.0
C577 C 0.15589 0.8456 0.14222 0.0
C578 C 0.16403 0.85587 0.16112 0.0
C579 C 0.19147 0.84511 0.17154 0.0
C580 C 0.41828 0.90921 0.20888 0.0
C581 C 0.41116 0.93272 0.22222 0.0
C582 C 0.38366 0.87923 0.19884 0.0
C583 C 0.34124 0.87163 0.20237 0.0
C584 C 0.33445 0.8964 0.21523 0.0
C585 C 0.36933 0.92688 0.22509 0.0
C586 C 0.30368 0.83572 0.19364 0.0
C587 C 0.27527 0.84512 0.18311 0.0
C588 C 0.29619 0.79226 0.19558 0.0
C589 C 0.32268 0.7794 0.2079 0.0
C590 C 0.32675 0.78742 0.22729 0.0
C591 C 0.35227 0.77586 0.23874 0.0
C592 C 0.37354 0.75584 0.23101 0.0
C593 C 0.36922 0.74723 0.21182 0.0
C594 C 0.34383 0.75884 0.20029 0.0
H595 H 0.39328 0.7469 0.23989 0.0
H596 H 0.13463 0.85394 0.13418 0.0
H597 H 0.66289 0.24293 0.50329 0.0
H598 H 0.64815 0.29968 0.5125 0.0
H599 H 0.51232 0.21852 0.50067 0.0
H600 H 0.52702 0.16171 0.49101 0.0
H601 H 0.54549 0.31115 0.49309 0.0
H602 H 0.54469 0.20701 0.54227 0.0
H603 H 0.5785 0.16849 0.55913 0.0
H604 H 0.68083 0.29095 0.57639 0.0
H605 H 0.64894 0.33055 0.55885 0.0
H606 H 0.47018 0.41161 0.55556 0.0
H607 H 0.47814 0.3554 0.54021 0.0
H608 H 0.61218 0.41532 0.55659 0.0
H609 H 0.60337 0.47046 0.57224 0.0
H610 H 0.57453 0.32921 0.56182 0.0
H611 H 0.58493 0.43449 0.51156 0.0
H612 H 0.56005 0.4789 0.49262 0.0
H613 H 0.44765 0.36123 0.47706 0.0
H614 H 0.47148 0.31606 0.49622 0.0
C615 C 0.63012 0.23767 0.50212 0.0
C616 C 0.59588 0.1976 0.49682 0.0
C617 C 0.62179 0.27013 0.50735 0.0
C618 C 0.57898 0.26266 0.50771 0.0
C619 C 0.54553 0.22464 0.50058 0.0
C620 C 0.55396 0.19224 0.49511 0.0
C621 C 0.56832 0.29117 0.5181 0.0
C622 C 0.55125 0.31476 0.50817 0.0
C623 C 0.5766 0.29616 0.53773 0.0
C624 C 0.59465 0.2719 0.549 0.0
C625 C 0.57472 0.22586 0.54943 0.0
C626 C 0.59371 0.20383 0.55902 0.0
C627 C 0.63191 0.22732 0.56873 0.0
C628 C 0.65132 0.27285 0.5688 0.0
C629 C 0.63291 0.29512 0.55896 0.0
C630 C 0.50094 0.412 0.55598 0.0
C631 C 0.53619 0.44461 0.56497 0.0
C632 C 0.50565 0.38034 0.54718 0.0
C633 C 0.54595 0.38153 0.54706 0.0
C634 C 0.58082 0.41373 0.55653 0.0
C635 C 0.57593 0.44509 0.56541 0.0
C636 C 0.55245 0.35005 0.53675 0.0
C637 C 0.56847 0.32552 0.54677 0.0
C638 C 0.54394 0.34481 0.51716 0.0
C639 C 0.52973 0.37189 0.5055 0.0
C640 C 0.55473 0.41807 0.50423 0.0
C641 C 0.54084 0.44339 0.49344 0.0
C642 C 0.50224 0.4229 0.48368 0.0
C643 C 0.4775 0.37705 0.48466 0.0
C644 C 0.49118 0.35157 0.49548 0.0
H645 H 0.49154 0.44256 0.47532 0.0
H646 H 0.64629 0.21026 0.57636 0.0
H647 H 0.43804 0.63352 0.88444 0.0
H648 H 0.36534 0.60858 0.89845 0.0
H649 H 0.31063 0.57303 0.84342 0.0
H650 H 0.38311 0.59585 0.82956 0.0
H651 H 0.31005 0.6325 0.89459 0.0
H652 H 0.20982 0.48919 0.84651 0.0
H653 H 0.21854 0.43339 0.83112 0.0
H654 H 0.31266 0.44278 0.87168 0.0
H655 H 0.30406 0.49815 0.88749 0.0
H656 H 0.1017 0.59643 0.88148 0.0
H657 H 0.17623 0.60979 0.88138 0.0
H658 H 0.12897 0.47833 0.9079 0.0
H659 H 0.05352 0.4643 0.90678 0.0
H660 H 0.18148 0.49196 0.87975 0.0
H661 H 0.19403 0.57108 0.93193 0.0
H662 H 0.18533 0.62142 0.95151 0.0
H663 H 0.2676 0.73041 0.91096 0.0
H664 H 0.27611 0.68056 0.89095 0.0
C665 C 0.4105 0.62048 0.87531 0.0
C666 C 0.41618 0.61653 0.8559 0.0
C667 C 0.36893 0.60616 0.88336 0.0
C668 C 0.33229 0.58813 0.87212 0.0
C669 C 0.33816 0.58555 0.85256 0.0
C670 C 0.37963 0.59899 0.84458 0.0
C671 C 0.28807 0.57309 0.88066 0.0
C672 C 0.28199 0.60163 0.89146 0.0
C673 C 0.25161 0.53187 0.87741 0.0
C674 C 0.25648 0.49807 0.86811 0.0
C675 C 0.23218 0.47916 0.85222 0.0
C676 C 0.23715 0.44765 0.8434 0.0
C677 C 0.26621 0.43463 0.85039 0.0
C678 C 0.29026 0.45299 0.86625 0.0
C679 C 0.28538 0.48447 0.87513 0.0
C680 C 0.10741 0.5705 0.88726 0.0
C681 C 0.07226 0.52912 0.89372 0.0
C682 C 0.14999 0.5783 0.88752 0.0
C683 C 0.15839 0.54519 0.89478 0.0
C684 C 0.12328 0.50434 0.90219 0.0
C685 C 0.0804 0.49638 0.90166 0.0
C686 C 0.20332 0.55245 0.89276 0.0
C687 C 0.20962 0.52243 0.88322 0.0
C688 C 0.24012 0.59147 0.89788 0.0
C689 C 0.23555 0.62193 0.9099 0.0
C690 C 0.21003 0.60572 0.92713 0.0
C691 C 0.20515 0.63419 0.93831 0.0
C692 C 0.22589 0.6791 0.93248 0.0
C693 C 0.25159 0.69561 0.91546 0.0
C694 C 0.2565 0.66725 0.90421 0.0
H695 H 0.22208 0.70111 0.94115 0.0
H696 H 0.27004 0.41027 0.84353 0.0
H697 H 0.91596 0.30645 0.19531 0.0
H698 H 0.85106 0.24158 0.21067 0.0
H699 H 0.76825 0.27961 0.18 0.0
H700 H 0.83251 0.34383 0.16432 0.0
H701 H 0.75583 0.26411 0.22266 0.0
H702 H 0.76924 0.19974 0.16573 0.0
H703 H 0.80897 0.17886 0.14389 0.0
H704 H 0.82369 0.10101 0.1901 0.0
H705 H 0.78454 0.12197 0.21227 0.0
H706 H 0.5378 0.09689 0.22872 0.0
H707 H 0.61287 0.15605 0.22117 0.0
H708 H 0.66049 0.07087 0.24323 0.0
H709 H 0.58471 0.01072 0.24964 0.0
H710 H 0.69922 0.10868 0.21028 0.0
H711 H 0.67436 0.15965 0.26589 0.0
H712 H 0.63705 0.17987 0.28924 0.0
H713 H 0.64738 0.28275 0.24891 0.0
H714 H 0.6842 0.26269 0.2252 0.0
C715 C 0.8839 0.30054 0.19158 0.0
C716 C 0.87935 0.3303 0.17862 0.0
C717 C 0.84698 0.26361 0.2004 0.0
C718 C 0.80514 0.25629 0.19655 0.0
C719 C 0.80043 0.28503 0.18318 0.0
C720 C 0.83718 0.32148 0.17414 0.0
C721 C 0.76604 0.2198 0.20698 0.0
C722 C 0.74308 0.23006 0.21995 0.0
C723 C 0.75107 0.17549 0.20404 0.0
C724 C 0.77451 0.16289 0.1907 0.0
C725 C 0.78136 0.17855 0.17127 0.0
C726 C 0.80367 0.16661 0.15882 0.0
C727 C 0.81899 0.13875 0.16561 0.0
C728 C 0.8119 0.12267 0.18486 0.0
C729 C 0.78964 0.13455 0.19737 0.0
C730 C 0.56443 0.09105 0.23196 0.0
C731 C 0.55588 0.04946 0.23947 0.0
C732 C 0.60729 0.1249 0.2279 0.0
C733 C 0.64244 0.11805 0.23176 0.0
C734 C 0.6339 0.07688 0.2401 0.0
C735 C 0.59083 0.04276 0.24391 0.0
C736 C 0.68754 0.15289 0.22553 0.0
C737 C 0.71197 0.14249 0.21339 0.0
C738 C 0.70425 0.1971 0.22952 0.0
C739 C 0.68209 0.20953 0.24373 0.0
C740 C 0.66858 0.18647 0.26197 0.0
C741 C 0.64747 0.19791 0.27527 0.0
C742 C 0.63986 0.2326 0.27057 0.0
C743 C 0.65335 0.25591 0.25254 0.0
C744 C 0.67442 0.24454 0.23917 0.0
H745 H 0.62351 0.24143 0.28088 0.0
H746 H 0.83624 0.12953 0.15595 0.0
H747 H 0.0792 0.52269 0.08459 0.0
H748 H 0.08182 0.52634 0.04974 0.0
H749 H 0.94137 0.44637 0.05073 0.0
H750 H 0.93831 0.44256 0.08565 0.0
H751 H 0.05393 0.46368 0.02362 0.0
H752 H 0.90646 0.48983 0.01426 0.0
H753 H 0.86727 0.51912 0.03153 0.0
H754 H 0.98453 0.60372 0.05916 0.0
H755 H 0.02454 0.5754 0.04186 0.0
H756 H 0.97754 0.43788 0.92843 0.0
H757 H 0.98431 0.43325 0.96328 0.0
H758 H 0.04314 0.57421 0.96183 0.0
H759 H 0.03628 0.57836 0.927 0.0
H760 H 0.97626 0.53039 0.98911 0.0
H761 H 0.1045 0.52894 0.96854 0.0
H762 H 0.14516 0.50217 0.95069 0.0
H763 H 0.07333 0.3757 0.98238 0.0
H764 H 0.0314 0.40128 1.00014 0.0
C765 C 0.04883 0.50559 0.07744 0.0
C766 C 0.00848 0.48261 0.08793 0.0
C767 C 0.05046 0.50755 0.05751 0.0
C768 C 0.01181 0.48697 0.04767 0.0
C769 C 0.97157 0.46283 0.05808 0.0
C770 C 0.9699 0.46062 0.07803 0.0
C771 C 0.01345 0.49267 0.02651 0.0
C772 C 0.0369 0.47816 0.01605 0.0
C773 C 0.99187 0.5123 0.01667 0.0
C774 C 0.96834 0.53013 0.02691 0.0
C775 C 0.9239 0.51481 0.02397 0.0
C776 C 0.90155 0.53123 0.03377 0.0
C777 C 0.92336 0.56315 0.04649 0.0
C778 C 0.96763 0.57887 0.04937 0.0
C779 C 0.99014 0.56261 0.03958 0.0
C780 C 0.99246 0.46767 0.93568 0.0
C781 C 0.00673 0.50843 0.92537 0.0
C782 C 0.99632 0.46514 0.95545 0.0
C783 C 0.01434 0.50344 0.96511 0.0
C784 C 0.02913 0.54431 0.95465 0.0
C785 C 0.02548 0.54677 0.93488 0.0
C786 C 0.01608 0.5007 0.98619 0.0
C787 C 0.99326 0.51581 0.99665 0.0
C788 C 0.03865 0.48209 0.99597 0.0
C789 C 0.0645 0.46693 0.98557 0.0
C790 C 0.0971 0.49531 0.97162 0.0
C791 C 0.1204 0.48037 0.96151 0.0
C792 C 0.11181 0.43729 0.96538 0.0
C793 C 0.07993 0.40906 0.97939 0.0
C794 C 0.05637 0.42375 0.98948 0.0
H795 H 0.1299 0.42581 0.95753 0.0
H796 H 0.90598 0.57577 0.05408 0.0
H797 H 0.54341 0.04767 0.42745 0.0
H798 H 0.53025 0.03106 0.3943 0.0
H799 H 0.63954 0.00918 0.39233 0.0
H800 H 0.65301 0.02562 0.42575 0.0
H801 H 0.63822 0.06149 0.36058 0.0
H802 H 0.54295 0.92321 0.39478 0.0
H803 H 0.48647 0.87068 0.41885 0.0
H804 H 0.39245 0.89939 0.39348 0.0
H805 H 0.44854 0.95268 0.36942 0.0
H806 H 0.50096 0.92393 0.2782 0.0
H807 H 0.5275 0.92922 0.31068 0.0
H808 H 0.55335 0.06265 0.30887 0.0
H809 H 0.52559 0.05674 0.27663 0.0
H810 H 0.49325 0.9445 0.34239 0.0
H811 H 0.64583 0.12103 0.33416 0.0
H812 H 0.70388 0.16946 0.3098 0.0
H813 H 0.68597 0.05697 0.28278 0.0
H814 H 0.6285 0.00781 0.30717 0.0
C815 C 0.56482 0.03946 0.42001 0.0
C816 C 0.59929 0.03795 0.42926 0.0
C817 C 0.55705 0.02973 0.40108 0.0
C818 C 0.58364 0.01847 0.39097 0.0
C819 C 0.61857 0.01764 0.39997 0.0
C820 C 0.62614 0.02696 0.41904 0.0
C821 C 0.57489 0.00826 0.37089 0.0
C822 C 0.60665 0.03577 0.35657 0.0
C823 C 0.53399 0.97402 0.36578 0.0
C824 C 0.50014 0.94227 0.38036 0.0
C825 C 0.51036 0.91868 0.39443 0.0
C826 C 0.47837 0.88869 0.40806 0.0
C827 C 0.43592 0.88177 0.40772 0.0
C828 C 0.42536 0.90481 0.39373 0.0
C829 C 0.45724 0.9349 0.38009 0.0
C830 C 0.51214 0.95418 0.28487 0.0
C831 C 0.51078 0.98975 0.27519 0.0
C832 C 0.52745 0.95728 0.30329 0.0
C833 C 0.54241 0.99632 0.31212 0.0
C834 C 0.5423 0.03236 0.30221 0.0
C835 C 0.52654 0.02905 0.28388 0.0
C836 C 0.55596 -0.00121 0.33208 0.0
C837 C 0.52501 0.96989 0.34639 0.0
C838 C 0.59778 0.03131 0.33716 0.0
C839 C 0.63261 0.06072 0.32248 0.0
C840 C 0.65446 0.10659 0.32311 0.0
C841 C 0.68731 0.13418 0.3093 0.0
C842 C 0.69871 0.11628 0.29481 0.0
C843 C 0.67716 0.07078 0.29404 0.0
C844 C 0.64441 0.04304 0.30784 0.0
H845 H 0.72418 0.13768 0.28415 0.0
H846 H 0.4112 0.85851 0.41827 0.0
H847 H 0.4844 0.6146 0.76191 0.0
H848 H 0.47938 0.60197 0.72809 0.0
H849 H 0.61946 0.66058 0.72248 0.0
H850 H 0.62494 0.67431 0.75613 0.0
H851 H 0.58964 0.68182 0.69088 0.0
H852 H 0.5538 0.54986 0.73026 0.0
H853 H 0.51411 0.49132 0.75629 0.0
H854 H 0.39297 0.45322 0.72938 0.0
H855 H 0.43189 0.51203 0.70332 0.0
H856 H 0.6082 0.57342 0.61273 0.0
H857 H 0.61029 0.60193 0.64378 0.0
H858 H 0.47027 0.54598 0.6445 0.0
H859 H 0.46865 0.51745 0.61346 0.0
H860 H 0.49719 0.52575 0.67784 0.0
H861 H 0.53927 0.65594 0.63568 0.0
H862 H 0.58381 0.71274 0.60972 0.0
H863 H 0.69865 0.75283 0.64191 0.0
H864 H 0.65506 0.69567 0.66788 0.0
C865 C 0.51423 0.6254 0.75343 0.0
C866 C 0.55503 0.64495 0.76182 0.0
C867 C 0.51128 0.61807 0.7341 0.0
C868 C 0.54897 0.62955 0.72284 0.0
C869 C 0.58993 0.65132 0.7309 0.0
C870 C 0.59296 0.65899 0.75019 0.0
C871 C 0.54553 0.61589 0.70317 0.0
C872 C 0.56962 0.6477 0.68802 0.0
C873 C 0.51913 0.57137 0.69942 0.0
C874 C 0.49569 0.53565 0.71496 0.0
C875 C 0.51866 0.5292 0.72996 0.0
C876 C 0.49631 0.49595 0.74471 0.0
C877 C 0.45104 0.46865 0.74452 0.0
C878 C 0.42803 0.47445 0.72953 0.0
C879 C 0.45022 0.50772 0.71476 0.0
C880 C 0.57819 0.56798 0.61952 0.0
C881 C 0.53834 0.54386 0.61093 0.0
C882 C 0.57929 0.58417 0.63715 0.0
C883 C 0.54046 0.5765 0.64635 0.0
C884 C 0.50059 0.55242 0.63762 0.0
C885 C 0.49959 0.53628 0.61998 0.0
C886 C 0.54119 0.59166 0.6655 0.0
C887 C 0.51673 0.56001 0.68061 0.0
C888 C 0.5678 0.6362 0.66919 0.0
C889 C 0.59388 0.67123 0.6537 0.0
C890 C 0.57407 0.67666 0.63718 0.0
C891 C 0.59915 0.70894 0.62246 0.0
C892 C 0.64402 0.73633 0.62417 0.0
C893 C 0.66389 0.73157 0.64061 0.0
C894 C 0.639 0.69924 0.65534 0.0
H895 H 0.66345 0.76127 0.61278 0.0
H896 H 0.4338 0.44295 0.75595 0.0
H897 H 0.56102 0.00996 0.58078 0.0
H898 H 0.55301 0.01892 0.61442 0.0
H899 H 0.65019 0.15646 0.60493 0.0
H900 H 0.65877 0.14778 0.57129 0.0
H901 H 0.61146 0.04573 0.64292 0.0
H902 H 0.61507 0.21342 0.63171 0.0
H903 H 0.58867 0.25231 0.60986 0.0
H904 H 0.49433 0.12991 0.58936 0.0
H905 H 0.51964 0.09018 0.61127 0.0
H906 H 0.6235 0.19909 0.71953 0.0
H907 H 0.6343 0.18377 0.68716 0.0
H908 H 0.53291 0.04838 0.69962 0.0
H909 H 0.52196 0.06413 0.73204 0.0
H910 H 0.57097 0.15461 0.66052 0.0
H911 H 0.56033 0.98632 0.67192 0.0
H912 H 0.57393 0.94284 0.69728 0.0
H913 H 0.67251 0.06158 0.719 0.0
H914 H 0.66014 0.10574 0.69357 0.0
C915 C 0.58086 0.04212 0.58584 0.0
C916 C 0.61037 0.07827 0.5733 0.0
C917 C 0.57628 0.04711 0.60509 0.0
C918 C 0.60067 0.08841 0.6121 0.0
C919 C 0.63068 0.12439 0.59973 0.0
C920 C 0.63562 0.11935 0.58053 0.0
C921 C 0.59457 0.09407 0.63231 0.0
C922 C 0.60222 0.06925 0.64678 0.0
C923 C 0.58275 0.12493 0.63732 0.0
C924 C 0.56962 0.14887 0.62302 0.0
C925 C 0.5888 0.19481 0.62249 0.0
C926 C 0.57384 0.21697 0.61018 0.0
C927 C 0.5396 0.19354 0.59836 0.0
C928 C 0.52073 0.14798 0.59859 0.0
C929 C 0.53552 0.12564 0.61089 0.0
C930 C 0.60381 0.16611 0.71528 0.0
C931 C 0.57177 0.13279 0.72799 0.0
C932 C 0.60996 0.15736 0.69691 0.0
C933 C 0.5844 0.11499 0.69104 0.0
C934 C 0.55321 0.0812 0.70396 0.0
C935 C 0.54697 0.09008 0.72238 0.0
C936 C 0.58883 0.10716 0.67102 0.0
C937 C 0.58062 0.13141 0.6566 0.0
C938 C 0.5996 0.0755 0.66614 0.0
C939 C 0.60894 0.04931 0.68093 0.0
C940 C 0.58515 0.00314 0.68201 0.0
C941 C 0.59262 0.97838 0.69642 0.0
C942 C 0.62393 -0.00057 0.70979 0.0
C943 C 0.64815 0.0453 0.70868 0.0
C944 C 0.64092 0.07021 0.69427 0.0
H945 H 0.62949 0.98021 0.721 0.0
H946 H 0.52794 0.21075 0.58891 0.0
H947 H 0.57937 0.57561 0.91007 0.0
H948 H 0.57861 0.56646 0.94476 0.0
H949 H 0.58794 0.69231 0.94799 0.0
H950 H 0.58852 0.70192 0.913 0.0
H951 H 0.64284 0.67397 0.97366 0.0
H952 H 0.49346 0.60999 0.95611 0.0
H953 H 0.42982 0.56312 0.9378 0.0
H954 H 0.43489 0.44897 0.95987 0.0
H955 H 0.49904 0.49528 0.97809 0.0
H956 H 0.57496 0.62972 0.07335 0.0
H957 H 0.5887 0.65268 0.03894 0.0
H958 H 0.55055 0.51978 0.02783 0.0
H959 H 0.53504 0.49702 0.06215 0.0
H960 H 0.50963 0.54713 0.00587 0.0
H961 H 0.65861 0.60903 0.02294 0.0
H962 H 0.72239 0.65409 0.04127 0.0
H963 H 0.72082 0.77056 0.01979 0.0
H964 H 0.6558 0.72573 0.00174 0.0
C965 C 0.58163 0.60165 0.91805 0.0
C966 C 0.58363 0.63939 0.90872 0.0
C967 C 0.58117 0.59628 0.93791 0.0
C968 C 0.58278 0.6285 0.94888 0.0
C969 C 0.5866 0.66708 0.9397 0.0
C970 C 0.58677 0.67241 0.91974 0.0
C971 C 0.57818 0.62034 0.96994 0.0
C972 C 0.61352 0.64672 0.98081 0.0
C973 C 0.54023 0.5842 0.9791 0.0
C974 C 0.50128 0.55617 0.96835 0.0
C975 C 0.48121 0.57494 0.95695 0.0
C976 C 0.44501 0.54847 0.9466 0.0
C977 C 0.42837 0.50311 0.94764 0.0
C978 C 0.44783 0.48412 0.95907 0.0
C979 C 0.48409 0.51046 0.96943 0.0
C980 C 0.57078 0.60601 0.06346 0.0
C981 C 0.55457 0.56192 0.07012 0.0
C982 C 0.57847 0.61895 0.04386 0.0
C983 C 0.57082 0.58799 0.03073 0.0
C984 C 0.55651 0.54423 0.03762 0.0
C985 C 0.54813 0.53128 0.05715 0.0
C986 C 0.57476 0.60015 0.00979 0.0
C987 C 0.53904 0.57456 0.99887 0.0
C988 C 0.61252 0.63681 0.00063 0.0
C989 C 0.65205 0.66396 0.01116 0.0
C990 C 0.67163 0.64421 0.02223 0.0
C991 C 0.70808 0.66977 0.03258 0.0
C992 C 0.72581 0.71529 0.03171 0.0
C993 C 0.70704 0.7353 0.02047 0.0
C994 C 0.67031 0.70981 0.01021 0.0
H995 H 0.7541 0.73513 0.03969 0.0
H996 H 0.40035 0.48267 0.93961 0.0
H997 H 0.9903 0.54573 0.23542 0.0
H998 H 0.00011 0.55381 0.26955 0.0
H999 H 0.03487 0.45266 0.27442 0.0
H1000 H 0.02455 0.44383 0.24038 0.0
H1001 H 0.98401 0.44475 0.30481 0.0
H1002 H 0.1136 0.55923 0.27047 0.0
H1003 H 0.15556 0.62199 0.24641 0.0
H1004 H 0.10869 0.69674 0.27332 0.0
H1005 H 0.06595 0.63416 0.2974 0.0
H1006 H 0.14461 0.57987 0.38155 0.0
H1007 H 0.12558 0.55649 0.34932 0.0
H1008 H 0.99079 0.51543 0.36293 0.0
H1009 H 0.01023 0.53985 0.39514 0.0
H1010 H 0.09224 0.59238 0.32338 0.0
H1011 H 0.92868 0.42437 0.3335 0.0
H1012 H 0.89239 0.35793 0.35615 0.0
H1013 H 0.01652 0.38685 0.3777 0.0
H1014 H 0.05372 0.45271 0.35483 0.0
C1015 C -0.00034 0.5249 0.24375 0.0
C1016 C 0.00702 0.4944 0.23508 0.0
C1017 C 0.00533 0.52963 0.26326 0.0
C1018 C 0.01876 0.50422 0.27447 0.0
C1019 C 0.02452 0.47262 0.26603 0.0
C1020 C 0.01879 0.46779 0.24653 0.0
C1021 C 0.02902 0.51214 0.29473 0.0
C1022 C 0.00743 0.47705 0.30894 0.0
C1023 C 0.06037 0.55409 0.30001 0.0
C1024 C 0.08624 0.59186 0.28562 0.0
C1025 C 0.11199 0.58894 0.27117 0.0
C1026 C 0.13595 0.62449 0.25755 0.0
C1027 C 0.1347 0.66329 0.25831 0.0
C1028 C 0.10957 0.66664 0.27273 0.0
C1029 C 0.0855 0.63116 0.28638 0.0
C1030 C 0.11097 0.56575 0.3776 0.0
C1031 C 0.07898 0.56236 0.39055 0.0
C1032 C 0.10008 0.55226 0.3593 0.0
C1033 C 0.05683 0.53445 0.35372 0.0
C1034 C 0.0243 0.52886 0.367 0.0
C1035 C 0.03534 0.54275 0.38532 0.0
C1036 C 0.04675 0.52512 0.33359 0.0
C1037 C 0.06843 0.5601 0.31936 0.0
C1038 C 0.01608 0.48287 0.32834 0.0
C1039 C 0.99396 0.44393 0.34257 0.0
C1040 C 0.94828 0.41653 0.34303 0.0
C1041 C 0.92756 0.3788 0.35584 0.0
C1042 C 0.95215 0.36809 0.3683 0.0
C1043 C -0.00249 0.39517 0.36802 0.0
C1044 C 0.01843 0.43278 0.35515 0.0
H1045 H 0.93603 0.33895 0.37825 0.0
H1046 H 0.15327 0.69077 0.24774 0.0
loop_
_geom_bond_atom_site_label_1
_geom_bond_atom_site_label_2
_geom_bond_distance
_geom_bond_site_symmetry_2
_ccdc_geom_bond_type
O0 Zn1 1.953 . S
O0 C16 1.225 . S
Zn1 O0 1.953 . S
Zn1 O2 1.949 . S
Zn1 O8 1.919 1_455 S
Zn1 O13 1.924 . S
O2 Zn1 1.949 . S
O2 Zn3 1.923 1_455 S
O2 Zn4 1.950 . S
O2 Zn5 1.945 . S
Zn3 O2 1.923 1_655 S
Zn3 O6 1.933 . S
Zn3 O9 1.941 . S
Zn3 O10 1.965 . S
Zn4 O2 1.950 . S
Zn4 O11 1.938 1_455 S
Zn4 O12 1.906 . S
Zn4 O22 1.953 . S
Zn5 O2 1.945 . S
Zn5 O7 1.932 . S
Zn5 O14 1.977 . S
Zn5 O15 1.910 . S
O6 Zn3 1.933 . S
O6 C17 1.226 1_655 S
O7 Zn5 1.932 . S
O7 C17 1.307 . S
O8 Zn1 1.919 1_655 S
O8 C19 1.253 . S
O9 Zn3 1.941 . S
O9 C19 1.283 . S
O10 Zn3 1.965 . S
O10 C18 1.303 . S
O11 Zn4 1.938 1_655 S
O11 C18 1.247 . S
O12 Zn4 1.906 . S
O12 C20 1.304 . S
O13 Zn1 1.924 . S
O13 C21 1.311 . S
O14 Zn5 1.977 . S
O14 C20 1.272 . S
O15 Zn5 1.910 . S
O15 C21 1.231 . S
C16 O0 1.225 . S
C16 O22 1.298 . S
C17 O6 1.226 1_455 S
C17 O7 1.307 . S
C18 O10 1.303 . S
C18 O11 1.247 . S
C19 O8 1.253 . S
C19 O9 1.283 . S
C20 O12 1.304 . S
C20 O14 1.272 . S
C21 O13 1.311 . S
C21 O15 1.231 . S
O22 Zn4 1.953 . S
O22 C16 1.298 . S
O23 Zn24 1.953 . S
O23 C39 1.225 . S
Zn24 O23 1.953 . S
Zn24 O25 1.949 . S
Zn24 O31 1.919 . S
Zn24 O36 1.924 . S
O25 Zn24 1.949 . S
O25 Zn26 1.923 . S
O25 Zn27 1.950 . S
O25 Zn28 1.945 . S
Zn26 O25 1.923 . S
Zn26 O29 1.933 . S
Zn26 O32 1.941 . S
Zn26 O33 1.965 . S
Zn27 O25 1.950 . S
Zn27 O34 1.938 . S
Zn27 O35 1.906 . S
Zn27 O45 1.953 . S
Zn28 O25 1.945 . S
Zn28 O30 1.932 . S
Zn28 O37 1.977 1_545 S
Zn28 O38 1.910 1_545 S
O29 Zn26 1.933 . S
O29 C40 1.226 . S
O30 Zn28 1.932 . S
O30 C40 1.307 . S
O31 Zn24 1.919 . S
O31 C42 1.253 . S
O32 Zn26 1.941 . S
O32 C42 1.283 . S
O33 Zn26 1.965 . S
O33 C41 1.303 . S
O34 Zn27 1.938 . S
O34 C41 1.247 . S
O35 Zn27 1.906 . S
O35 C43 1.304 1_545 S
O36 Zn24 1.924 . S
O36 C44 1.311 1_545 S
O37 Zn28 1.977 1_565 S
O37 C43 1.272 . S
O38 Zn28 1.910 1_565 S
O38 C44 1.231 . S
C39 O23 1.225 . S
C39 O45 1.298 . S
C40 O29 1.226 . S
C40 O30 1.307 . S
C41 O33 1.303 . S
C41 O34 1.247 . S
C42 O31 1.253 . S
C42 O32 1.283 . S
C43 O35 1.304 1_565 S
C43 O37 1.272 . S
C44 O36 1.311 1_565 S
C44 O38 1.231 . S
O45 Zn27 1.953 . S
O45 C39 1.298 . S
O46 Zn47 1.953 . S
O46 C62 1.225 . S
Zn47 O46 1.953 . S
Zn47 O48 1.949 . S
Zn47 O54 1.919 . S
Zn47 O59 1.924 . S
O48 Zn47 1.949 . S
O48 Zn49 1.923 . S
O48 Zn50 1.950 . S
O48 Zn51 1.945 . S
Zn49 O48 1.923 . S
Zn49 O52 1.933 . S
Zn49 O55 1.941 . S
Zn49 O56 1.965 . S
Zn50 O48 1.950 . S
Zn50 O57 1.938 . S
Zn50 O58 1.906 . S
Zn50 O68 1.953 . S
Zn51 O48 1.945 . S
Zn51 O53 1.932 . S
Zn51 O60 1.977 . S
Zn51 O61 1.910 . S
O52 Zn49 1.933 . S
O52 C63 1.226 . S
O53 Zn51 1.932 . S
O53 C63 1.307 . S
O54 Zn47 1.919 . S
O54 C65 1.253 . S
O55 Zn49 1.941 . S
O55 C65 1.283 . S
O56 Zn49 1.965 . S
O56 C64 1.303 . S
O57 Zn50 1.938 . S
O57 C64 1.247 . S
O58 Zn50 1.906 . S
O58 C66 1.304 . S
O59 Zn47 1.924 . S
O59 C67 1.311 . S
O60 Zn51 1.977 . S
O60 C66 1.272 . S
O61 Zn51 1.910 . S
O61 C67 1.231 . S
C62 O46 1.225 . S
C62 O68 1.298 . S
C63 O52 1.226 . S
C63 O53 1.307 . S
C64 O56 1.303 . S
C64 O57 1.247 . S
C65 O54 1.253 . S
C65 O55 1.283 . S
C66 O58 1.304 . S
C66 O60 1.272 . S
C67 O59 1.311 . S
C67 O61 1.231 . S
O68 Zn50 1.953 . S
O68 C62 1.298 . S
C69 N70 1.317 . S
C69 N71 1.348 1_545 S
C69 C72 1.485 . S
N70 C69 1.317 . S
N70 N74 1.370 . S
N71 C69 1.348 1_565 S
N71 C73 1.346 . S
C72 C69 1.485 . S
C72 H76 0.960 . S
C72 H77 0.961 . S
C72 H78 0.960 . S
C73 N71 1.346 . S
C73 N74 1.307 1_565 S
C73 C75 1.486 . S
N74 N70 1.370 . S
N74 C73 1.307 1_545 S
C75 C73 1.486 . S
C75 H79 0.960 . S
C75 H80 0.960 . S
C75 H81 0.959 . S
H76 C72 0.960 . S
H77 C72 0.961 . S
H78 C72 0.960 . S
H79 C75 0.960 . S
H80 C75 0.960 . S
H81 C75 0.959 . S
C82 N83 1.317 . S
C82 N84 1.348 . S
C82 C85 1.485 . S
N83 C82 1.317 . S
N83 N87 1.370 . S
N84 C82 1.348 . S
N84 C86 1.346 . S
C85 C82 1.485 . S
C85 H89 0.960 . S
C85 H90 0.961 . S
C85 H91 0.960 . S
C86 N84 1.346 . S
C86 N87 1.307 . S
C86 C88 1.486 . S
N87 N83 1.370 . S
N87 C86 1.307 . S
C88 C86 1.486 . S
C88 H92 0.960 . S
C88 H93 0.960 . S
C88 H94 0.959 . S
H89 C85 0.960 . S
H90 C85 0.961 . S
H91 C85 0.960 . S
H92 C88 0.960 . S
H93 C88 0.960 . S
H94 C88 0.959 . S
C95 N96 1.317 . S
C95 N97 1.348 . S
C95 C98 1.485 . S
N96 C95 1.317 . S
N96 N100 1.370 . S
N97 C95 1.348 . S
N97 C99 1.346 . S
C98 C95 1.485 . S
C98 H102 0.960 . S
C98 H103 0.961 . S
C98 H104 0.960 . S
C99 N97 1.346 . S
C99 N100 1.307 . S
C99 C101 1.486 1_455 S
N100 N96 1.370 . S
N100 C99 1.307 . S
C101 C99 1.486 1_655 S
C101 H105 0.960 . S
C101 H106 0.960 . S
C101 H107 0.959 . S
H102 C98 0.960 . S
H103 C98 0.961 . S
H104 C98 0.960 . S
H105 C101 0.960 . S
H106 C101 0.960 . S
H107 C101 0.959 . S
C108 N109 1.317 . S
C108 N110 1.348 . S
C108 C111 1.485 . S
N109 C108 1.317 . S
N109 N113 1.370 . S
N110 C108 1.348 . S
N110 C112 1.346 . S
C111 C108 1.485 . S
C111 H115 0.960 . S
C111 H116 0.961 . S
C111 H117 0.960 . S
C112 N110 1.346 . S
C112 N113 1.307 . S
C112 C114 1.486 . S
N113 N109 1.370 . S
N113 C112 1.307 . S
C114 C112 1.486 . S
C114 H118 0.960 . S
C114 H119 0.960 . S
C114 H120 0.959 . S
H115 C111 0.960 . S
H116 C111 0.961 . S
H117 C111 0.960 . S
H118 C114 0.960 . S
H119 C114 0.960 . S
H120 C114 0.959 . S
C121 N122 1.317 . S
C121 N123 1.348 . S
C121 C124 1.485 . S
N122 C121 1.317 . S
N122 N126 1.370 . S
N123 C121 1.348 . S
N123 C125 1.346 . S
C124 C121 1.485 . S
C124 H128 0.960 . S
C124 H129 0.961 . S
C124 H130 0.960 . S
C125 N123 1.346 . S
C125 N126 1.307 . S
C125 C127 1.486 . S
N126 N122 1.370 . S
N126 C125 1.307 . S
C127 C125 1.486 . S
C127 H131 0.960 . S
C127 H132 0.960 . S
C127 H133 0.959 . S
H128 C124 0.960 . S
H129 C124 0.961 . S
H130 C124 0.960 . S
H131 C127 0.960 . S
H132 C127 0.960 . S
H133 C127 0.959 . S
C134 N135 1.317 . S
C134 N136 1.348 . S
C134 C137 1.485 . S
N135 C134 1.317 . S
N135 N139 1.370 . S
N136 C134 1.348 . S
N136 C138 1.346 . S
C137 C134 1.485 . S
C137 H141 0.960 . S
C137 H142 0.961 . S
C137 H143 0.960 . S
C138 N136 1.346 . S
C138 N139 1.307 . S
C138 C140 1.486 . S
N139 N135 1.370 . S
N139 C138 1.307 . S
C140 C138 1.486 . S
C140 H144 0.960 . S
C140 H145 0.960 . S
C140 H146 0.959 . S
H141 C137 0.960 . S
H142 C137 0.961 . S
H143 C137 0.960 . S
H144 C140 0.960 . S
H145 C140 0.960 . S
H146 C140 0.959 . S
H147 C165 0.951 . S
H148 C167 0.951 . S
H149 C169 0.950 . S
H150 C170 0.950 . S
H151 C172 0.950 . S
H152 C175 0.950 . S
H153 C176 0.950 . S
H154 C178 0.950 . S
H155 C179 0.950 . S
H156 C180 0.951 . S
H157 C182 0.951 . S
H158 C184 0.950 . S
H159 C185 0.950 . S
H160 C187 0.950 . S
H161 C190 0.950 . S
H162 C191 0.950 . S
H163 C193 0.950 . S
H164 C194 0.950 . S
C165 H147 0.951 . S
C165 C166 1.366 . S
C165 C167 1.388 . S
C166 C165 1.366 . S
C166 C170 1.385 . S
C167 H148 0.951 . S
C167 C165 1.388 . S
C167 C168 1.366 . S
C168 C167 1.366 . S
C168 C169 1.414 . S
C168 C171 1.499 . S
C169 H149 0.950 . S
C169 C168 1.414 . S
C169 C170 1.374 . S
C170 H150 0.950 . S
C170 C166 1.385 . S
C170 C169 1.374 . S
C171 C168 1.499 . S
C171 C172 1.373 . S
C171 C173 1.389 . S
C172 H151 0.950 . S
C172 C171 1.373 . S
C172 C188 1.377 . S
C173 C171 1.389 . S
C173 C174 1.524 . S
C173 C187 1.377 . S
C174 C173 1.524 . S
C174 C175 1.397 . S
C174 C179 1.363 . S
C175 H152 0.950 . S
C175 C174 1.397 . S
C175 C176 1.334 . S
C176 H153 0.950 . S
C176 C175 1.334 . S
C176 C177 1.287 . S
C177 C176 1.287 . S
C177 C178 1.524 . S
C177 H196 0.913 . S
C178 H154 0.950 . S
C178 C177 1.524 . S
C178 C179 1.415 . S
C179 H155 0.950 . S
C179 C174 1.363 . S
C179 C178 1.415 . S
C180 H156 0.951 . S
C180 C181 1.366 . S
C180 C182 1.388 . S
C181 C180 1.366 . S
C181 C185 1.385 . S
C182 H157 0.951 . S
C182 C180 1.388 . S
C182 C183 1.366 . S
C183 C182 1.366 . S
C183 C184 1.414 . S
C183 C186 1.499 . S
C184 H158 0.950 . S
C184 C183 1.414 . S
C184 C185 1.374 . S
C185 H159 0.950 . S
C185 C181 1.385 . S
C185 C184 1.374 . S
C186 C183 1.499 . S
C186 C187 1.373 . S
C186 C188 1.389 . S
C187 H160 0.950 . S
C187 C173 1.377 . S
C187 C186 1.373 . S
C188 C172 1.377 . S
C188 C186 1.389 . S
C188 C189 1.524 . S
C189 C188 1.524 . S
C189 C190 1.397 . S
C189 C194 1.363 . S
C190 H161 0.950 . S
C190 C189 1.397 . S
C190 C191 1.334 . S
C191 H162 0.950 . S
C191 C190 1.334 . S
C191 C192 1.287 . S
C192 C191 1.287 . S
C192 C193 1.524 . S
C192 H195 0.999 . S
C193 H163 0.950 . S
C193 C192 1.524 . S
C193 C194 1.415 . S
C194 H164 0.950 . S
C194 C189 1.363 . S
C194 C193 1.415 . S
H195 C192 0.999 . S
H196 C177 0.913 . S
H197 C215 0.951 . S
H198 C217 0.951 . S
H199 C219 0.950 . S
H200 C220 0.950 . S
H201 C222 0.950 . S
H202 C225 0.950 . S
H203 C226 0.950 . S
H204 C228 0.950 . S
H205 C229 0.950 . S
H206 C230 0.951 . S
H207 C232 0.951 . S
H208 C234 0.950 1_455 S
H209 C235 0.950 . S
H210 C237 0.950 . S
H211 C240 0.950 . S
H212 C241 0.950 . S
H213 C243 0.950 . S
H214 C244 0.950 . S
C215 H197 0.951 . S
C215 C216 1.366 . S
C215 C217 1.388 . S
C216 C215 1.366 . S
C216 C220 1.385 . S
C217 H198 0.951 . S
C217 C215 1.388 . S
C217 C218 1.366 . S
C218 C217 1.366 . S
C218 C219 1.414 . S
C218 C221 1.499 . S
C219 H199 0.950 . S
C219 C218 1.414 . S
C219 C220 1.374 . S
C220 H200 0.950 . S
C220 C216 1.385 . S
C220 C219 1.374 . S
C221 C218 1.499 . S
C221 C222 1.373 . S
C221 C223 1.389 . S
C222 H201 0.950 . S
C222 C221 1.373 . S
C222 C238 1.377 . S
C223 C221 1.389 . S
C223 C224 1.524 . S
C223 C237 1.377 . S
C224 C223 1.524 . S
C224 C225 1.397 . S
C224 C229 1.363 . S
C225 H202 0.950 . S
C225 C224 1.397 . S
C225 C226 1.334 . S
C226 H203 0.950 . S
C226 C225 1.334 . S
C226 C227 1.287 . S
C227 C226 1.287 . S
C227 C228 1.524 . S
C227 H246 0.913 . S
C228 H204 0.950 . S
C228 C227 1.524 . S
C228 C229 1.415 . S
C229 H205 0.950 . S
C229 C224 1.363 . S
C229 C228 1.415 . S
C230 H206 0.951 . S
C230 C231 1.366 1_655 S
C230 C232 1.388 . S
C231 C230 1.366 1_455 S
C231 C235 1.385 . S
C232 H207 0.951 . S
C232 C230 1.388 . S
C232 C233 1.366 . S
C233 C232 1.366 . S
C233 C234 1.414 . S
C233 C236 1.499 . S
C234 H208 0.950 1_655 S
C234 C233 1.414 . S
C234 C235 1.374 1_655 S
C235 H209 0.950 . S
C235 C231 1.385 . S
C235 C234 1.374 1_455 S
C236 C233 1.499 . S
C236 C237 1.373 . S
C236 C238 1.389 . S
C237 H210 0.950 . S
C237 C223 1.377 . S
C237 C236 1.373 . S
C238 C222 1.377 . S
C238 C236 1.389 . S
C238 C239 1.524 . S
C239 C238 1.524 . S
C239 C240 1.397 . S
C239 C244 1.363 . S
C240 H211 0.950 . S
C240 C239 1.397 . S
C240 C241 1.334 . S
C241 H212 0.950 . S
C241 C240 1.334 . S
C241 C242 1.287 . S
C242 C241 1.287 . S
C242 C243 1.524 . S
C242 H245 0.999 . S
C243 H213 0.950 . S
C243 C242 1.524 . S
C243 C244 1.415 . S
C244 H214 0.950 . S
C244 C239 1.363 . S
C244 C243 1.415 . S
H245 C242 0.999 . S
H246 C227 0.913 . S
H247 C265 0.951 . S
H248 C267 0.951 . S
H249 C269 0.950 . S
H250 C270 0.950 . S
H251 C272 0.950 . S
H252 C275 0.950 . S
H253 C276 0.950 . S
H254 C278 0.950 . S
H255 C279 0.950 . S
H256 C280 0.951 . S
H257 C282 0.951 . S
H258 C284 0.950 . S
H259 C285 0.950 . S
H260 C287 0.950 . S
H261 C290 0.950 . S
H262 C291 0.950 . S
H263 C293 0.950 . S
H264 C294 0.950 . S
C265 H247 0.951 . S
C265 C266 1.366 . S
C265 C267 1.388 . S
C266 C265 1.366 . S
C266 C270 1.385 . S
C267 H248 0.951 . S
C267 C265 1.388 . S
C267 C268 1.366 . S
C268 C267 1.366 . S
C268 C269 1.414 . S
C268 C271 1.499 . S
C269 H249 0.950 . S
C269 C268 1.414 . S
C269 C270 1.374 . S
C270 H250 0.950 . S
C270 C266 1.385 . S
C270 C269 1.374 . S
C271 C268 1.499 . S
C271 C272 1.373 . S
C271 C273 1.389 . S
C272 H251 0.950 . S
C272 C271 1.373 . S
C272 C288 1.377 . S
C273 C271 1.389 . S
C273 C274 1.524 . S
C273 C287 1.377 . S
C274 C273 1.524 . S
C274 C275 1.397 . S
C274 C279 1.363 . S
C275 H252 0.950 . S
C275 C274 1.397 . S
C275 C276 1.334 . S
C276 H253 0.950 . S
C276 C275 1.334 . S
C276 C277 1.287 . S
C277 C276 1.287 . S
C277 C278 1.524 . S
C277 H296 0.913 . S
C278 H254 0.950 . S
C278 C277 1.524 . S
C278 C279 1.415 . S
C279 H255 0.950 . S
C279 C274 1.363 . S
C279 C278 1.415 . S
C280 H256 0.951 . S
C280 C281 1.366 . S
C280 C282 1.388 1_545 S
C281 C280 1.366 . S
C281 C285 1.385 . S
C282 H257 0.951 . S
C282 C280 1.388 1_565 S
C282 C283 1.366 . S
C283 C282 1.366 . S
C283 C284 1.414 . S
C283 C286 1.499 . S
C284 H258 0.950 . S
C284 C283 1.414 . S
C284 C285 1.374 1_565 S
C285 H259 0.950 . S
C285 C281 1.385 . S
C285 C284 1.374 1_545 S
C286 C283 1.499 . S
C286 C287 1.373 . S
C286 C288 1.389 . S
C287 H260 0.950 . S
C287 C273 1.377 . S
C287 C286 1.373 . S
C288 C272 1.377 . S
C288 C286 1.389 . S
C288 C289 1.524 . S
C289 C288 1.524 . S
C289 C290 1.397 1_565 S
C289 C294 1.363 . S
C290 H261 0.950 . S
C290 C289 1.397 1_545 S
C290 C291 1.334 . S
C291 H262 0.950 . S
C291 C290 1.334 . S
C291 C292 1.287 . S
C292 C291 1.287 . S
C292 C293 1.524 1_545 S
C292 H295 0.999 . S
C293 H263 0.950 . S
C293 C292 1.524 1_565 S
C293 C294 1.415 . S
C294 H264 0.950 . S
C294 C289 1.363 . S
C294 C293 1.415 . S
H295 C292 0.999 . S
H296 C277 0.913 . S
H297 C315 0.951 . S
H298 C317 0.951 . S
H299 C319 0.950 . S
H300 C320 0.950 . S
H301 C322 0.950 . S
H302 C325 0.950 . S
H303 C326 0.950 . S
H304 C328 0.950 . S
H305 C329 0.950 . S
H306 C330 0.951 . S
H307 C332 0.951 . S
H308 C334 0.950 . S
H309 C335 0.950 . S
H310 C337 0.950 . S
H311 C340 0.950 . S
H312 C341 0.950 . S
H313 C343 0.950 . S
H314 C344 0.950 . S
C315 H297 0.951 . S
C315 C316 1.366 . S
C315 C317 1.388 . S
C316 C315 1.366 . S
C316 C320 1.385 . S
C317 H298 0.951 . S
C317 C315 1.388 . S
C317 C318 1.366 . S
C318 C317 1.366 . S
C318 C319 1.414 . S
C318 C321 1.499 . S
C319 H299 0.950 . S
C319 C318 1.414 . S
C319 C320 1.374 . S
C320 H300 0.950 . S
C320 C316 1.385 . S
C320 C319 1.374 . S
C321 C318 1.499 . S
C321 C322 1.373 . S
C321 C323 1.389 . S
C322 H301 0.950 . S
C322 C321 1.373 . S
C322 C338 1.377 . S
C323 C321 1.389 . S
C323 C324 1.524 . S
C323 C337 1.377 . S
C324 C323 1.524 . S
C324 C325 1.397 . S
C324 C329 1.363 . S
C325 H302 0.950 . S
C325 C324 1.397 . S
C325 C326 1.334 . S
C326 H303 0.950 . S
C326 C325 1.334 . S
C326 C327 1.287 . S
C327 C326 1.287 . S
C327 C328 1.524 . S
C327 H346 0.913 . S
C328 H304 0.950 . S
C328 C327 1.524 . S
C328 C329 1.415 . S
C329 H305 0.950 . S
C329 C324 1.363 . S
C329 C328 1.415 . S
C330 H306 0.951 . S
C330 C331 1.366 . S
C330 C332 1.388 . S
C331 C330 1.366 . S
C331 C335 1.385 . S
C332 H307 0.951 . S
C332 C330 1.388 . S
C332 C333 1.366 . S
C333 C332 1.366 . S
C333 C334 1.414 . S
C333 C336 1.499 . S
C334 H308 0.950 . S
C334 C333 1.414 . S
C334 C335 1.374 . S
C335 H309 0.950 . S
C335 C331 1.385 . S
C335 C334 1.374 . S
C336 C333 1.499 . S
C336 C337 1.373 . S
C336 C338 1.389 . S
C337 H310 0.950 . S
C337 C323 1.377 . S
C337 C336 1.373 . S
C338 C322 1.377 . S
C338 C336 1.389 . S
C338 C339 1.524 . S
C339 C338 1.524 . S
C339 C340 1.397 . S
C339 C344 1.363 . S
C340 H311 0.950 . S
C340 C339 1.397 . S
C340 C341 1.334 . S
C341 H312 0.950 . S
C341 C340 1.334 . S
C341 C342 1.287 . S
C342 C341 1.287 . S
C342 C343 1.524 . S
C342 H345 0.999 . S
C343 H313 0.950 . S
C343 C342 1.524 . S
C343 C344 1.415 . S
C344 H314 0.950 . S
C344 C339 1.363 . S
C344 C343 1.415 . S
H345 C342 0.999 . S
H346 C327 0.913 . S
H347 C365 0.951 . S
H348 C367 0.951 . S
H349 C369 0.950 . S
H350 C370 0.950 . S
H351 C372 0.950 . S
H352 C375 0.950 . S
H353 C376 0.950 . S
H354 C378 0.950 . S
H355 C379 0.950 . S
H356 C380 0.951 . S
H357 C382 0.951 . S
H358 C384 0.950 . S
H359 C385 0.950 . S
H360 C387 0.950 . S
H361 C390 0.950 . S
H362 C391 0.950 . S
H363 C393 0.950 . S
H364 C394 0.950 . S
C365 H347 0.951 . S
C365 C366 1.366 . S
C365 C367 1.388 . S
C366 C365 1.366 . S
C366 C370 1.385 . S
C367 H348 0.951 . S
C367 C365 1.388 . S
C367 C368 1.366 . S
C368 C367 1.366 . S
C368 C369 1.414 . S
C368 C371 1.499 . S
C369 H349 0.950 . S
C369 C368 1.414 . S
C369 C370 1.374 . S
C370 H350 0.950 . S
C370 C366 1.385 . S
C370 C369 1.374 . S
C371 C368 1.499 . S
C371 C372 1.373 . S
C371 C373 1.389 . S
C372 H351 0.950 . S
C372 C371 1.373 . S
C372 C388 1.377 . S
C373 C371 1.389 . S
C373 C374 1.524 . S
C373 C387 1.377 . S
C374 C373 1.524 . S
C374 C375 1.397 . S
C374 C379 1.363 . S
C375 H352 0.950 . S
C375 C374 1.397 . S
C375 C376 1.334 . S
C376 H353 0.950 . S
C376 C375 1.334 . S
C376 C377 1.287 . S
C377 C376 1.287 . S
C377 C378 1.524 . S
C377 H396 0.913 . S
C378 H354 0.950 . S
C378 C377 1.524 . S
C378 C379 1.415 . S
C379 H355 0.950 . S
C379 C374 1.363 . S
C379 C378 1.415 . S
C380 H356 0.951 . S
C380 C381 1.366 . S
C380 C382 1.388 . S
C381 C380 1.366 . S
C381 C385 1.385 . S
C382 H357 0.951 . S
C382 C380 1.388 . S
C382 C383 1.366 . S
C383 C382 1.366 . S
C383 C384 1.414 . S
C383 C386 1.499 . S
C384 H358 0.950 . S
C384 C383 1.414 . S
C384 C385 1.374 . S
C385 H359 0.950 . S
C385 C381 1.385 . S
C385 C384 1.374 . S
C386 C383 1.499 . S
C386 C387 1.373 . S
C386 C388 1.389 . S
C387 H360 0.950 . S
C387 C373 1.377 . S
C387 C386 1.373 . S
C388 C372 1.377 . S
C388 C386 1.389 . S
C388 C389 1.524 . S
C389 C388 1.524 . S
C389 C390 1.397 . S
C389 C394 1.363 . S
C390 H361 0.950 . S
C390 C389 1.397 . S
C390 C391 1.334 . S
C391 H362 0.950 . S
C391 C390 1.334 . S
C391 C392 1.287 . S
C392 C391 1.287 . S
C392 C393 1.524 . S
C392 H395 0.999 . S
C393 H363 0.950 . S
C393 C392 1.524 . S
C393 C394 1.415 . S
C394 H364 0.950 . S
C394 C389 1.363 . S
C394 C393 1.415 . S
H395 C392 0.999 . S
H396 C377 0.913 . S
H397 C415 0.951 . S
H398 C417 0.951 . S
H399 C419 0.950 . S
H400 C420 0.950 . S
H401 C422 0.950 . S
H402 C425 0.950 . S
H403 C426 0.950 . S
H404 C428 0.950 . S
H405 C429 0.950 . S
H406 C430 0.951 . S
H407 C432 0.951 . S
H408 C434 0.950 . S
H409 C435 0.950 . S
H410 C437 0.950 . S
H411 C440 0.950 . S
H412 C441 0.950 . S
H413 C443 0.950 . S
H414 C444 0.950 . S
C415 H397 0.951 . S
C415 C416 1.366 . S
C415 C417 1.388 . S
C416 C415 1.366 . S
C416 C420 1.385 . S
C417 H398 0.951 . S
C417 C415 1.388 . S
C417 C418 1.366 . S
C418 C417 1.366 . S
C418 C419 1.414 . S
C418 C421 1.499 . S
C419 H399 0.950 . S
C419 C418 1.414 . S
C419 C420 1.374 . S
C420 H400 0.950 . S
C420 C416 1.385 . S
C420 C419 1.374 . S
C421 C418 1.499 . S
C421 C422 1.373 . S
C421 C423 1.389 . S
C422 H401 0.950 . S
C422 C421 1.373 . S
C422 C438 1.377 . S
C423 C421 1.389 . S
C423 C424 1.524 . S
C423 C437 1.377 . S
C424 C423 1.524 . S
C424 C425 1.397 . S
C424 C429 1.363 . S
C425 H402 0.950 . S
C425 C424 1.397 . S
C425 C426 1.334 . S
C426 H403 0.950 . S
C426 C425 1.334 . S
C426 C427 1.287 . S
C427 C426 1.287 . S
C427 C428 1.524 . S
C427 H446 0.913 . S
C428 H404 0.950 . S
C428 C427 1.524 . S
C428 C429 1.415 . S
C429 H405 0.950 . S
C429 C424 1.363 . S
C429 C428 1.415 . S
C430 H406 0.951 . S
C430 C431 1.366 . S
C430 C432 1.388 . S
C431 C430 1.366 . S
C431 C435 1.385 . S
C432 H407 0.951 . S
C432 C430 1.388 . S
C432 C433 1.366 . S
C433 C432 1.366 . S
C433 C434 1.414 . S
C433 C436 1.499 . S
C434 H408 0.950 . S
C434 C433 1.414 . S
C434 C435 1.374 . S
C435 H409 0.950 . S
C435 C431 1.385 . S
C435 C434 1.374 . S
C436 C433 1.499 . S
C436 C437 1.373 . S
C436 C438 1.389 . S
C437 H410 0.950 . S
C437 C423 1.377 . S
C437 C436 1.373 . S
C438 C422 1.377 . S
C438 C436 1.389 . S
C438 C439 1.524 . S
C439 C438 1.524 . S
C439 C440 1.397 . S
C439 C444 1.363 . S
C440 H411 0.950 . S
C440 C439 1.397 . S
C440 C441 1.334 . S
C441 H412 0.950 . S
C441 C440 1.334 . S
C441 C442 1.287 . S
C442 C441 1.287 . S
C442 C443 1.524 . S
C442 H445 0.999 . S
C443 H413 0.950 . S
C443 C442 1.524 . S
C443 C444 1.415 . S
C444 H414 0.950 . S
C444 C439 1.363 . S
C444 C443 1.415 . S
H445 C442 0.999 . S
H446 C427 0.913 . S
H447 C465 0.951 . S
H448 C467 0.951 . S
H449 C469 0.950 . S
H450 C470 0.950 . S
H451 C472 0.950 . S
H452 C475 0.950 . S
H453 C476 0.950 . S
H454 C478 0.950 . S
H455 C479 0.950 . S
H456 C480 0.951 . S
H457 C482 0.951 . S
H458 C484 0.950 . S
H459 C485 0.950 . S
H460 C487 0.950 . S
H461 C490 0.950 . S
H462 C491 0.950 . S
H463 C493 0.950 . S
H464 C494 0.950 . S
C465 H447 0.951 . S
C465 C466 1.366 . S
C465 C467 1.388 . S
C466 C465 1.366 . S
C466 C470 1.385 . S
C467 H448 0.951 . S
C467 C465 1.388 . S
C467 C468 1.366 . S
C468 C467 1.366 . S
C468 C469 1.414 . S
C468 C471 1.499 . S
C469 H449 0.950 . S
C469 C468 1.414 . S
C469 C470 1.374 . S
C470 H450 0.950 . S
C470 C466 1.385 . S
C470 C469 1.374 . S
C471 C468 1.499 . S
C471 C472 1.373 . S
C471 C473 1.389 . S
C472 H451 0.950 . S
C472 C471 1.373 . S
C472 C488 1.377 . S
C473 C471 1.389 . S
C473 C474 1.524 . S
C473 C487 1.377 . S
C474 C473 1.524 . S
C474 C475 1.397 . S
C474 C479 1.363 . S
C475 H452 0.950 . S
C475 C474 1.397 . S
C475 C476 1.334 . S
C476 H453 0.950 . S
C476 C475 1.334 . S
C476 C477 1.287 . S
C477 C476 1.287 . S
C477 C478 1.524 . S
C477 H496 0.913 . S
C478 H454 0.950 . S
C478 C477 1.524 . S
C478 C479 1.415 . S
C479 H455 0.950 . S
C479 C474 1.363 . S
C479 C478 1.415 . S
C480 H456 0.951 . S
C480 C481 1.366 . S
C480 C482 1.388 . S
C481 C480 1.366 . S
C481 C485 1.385 . S
C482 H457 0.951 . S
C482 C480 1.388 . S
C482 C483 1.366 . S
C483 C482 1.366 . S
C483 C484 1.414 . S
C483 C486 1.499 . S
C484 H458 0.950 . S
C484 C483 1.414 . S
C484 C485 1.374 . S
C485 H459 0.950 . S
C485 C481 1.385 . S
C485 C484 1.374 . S
C486 C483 1.499 . S
C486 C487 1.373 . S
C486 C488 1.389 . S
C487 H460 0.950 . S
C487 C473 1.377 . S
C487 C486 1.373 . S
C488 C472 1.377 . S
C488 C486 1.389 . S
C488 C489 1.524 . S
C489 C488 1.524 . S
C489 C490 1.397 . S
C489 C494 1.363 . S
C490 H461 0.950 . S
C490 C489 1.397 . S
C490 C491 1.334 . S
C491 H462 0.950 . S
C491 C490 1.334 . S
C491 C492 1.287 . S
C492 C491 1.287 . S
C492 C493 1.524 . S
C492 H495 0.999 . S
C493 H463 0.950 . S
C493 C492 1.524 . S
C493 C494 1.415 . S
C494 H464 0.950 . S
C494 C489 1.363 . S
C494 C493 1.415 . S
H495 C492 0.999 . S
H496 C477 0.913 . S
H497 C515 0.951 . S
H498 C517 0.951 . S
H499 C519 0.950 . S
H500 C520 0.950 . S
H501 C522 0.950 . S
H502 C525 0.950 . S
H503 C526 0.950 . S
H504 C528 0.950 . S
H505 C529 0.950 . S
H506 C530 0.943 1_455 S
H507 C532 0.951 . S
H508 C534 0.950 . S
H509 C535 0.950 . S
H510 C537 0.950 . S
H511 C540 0.950 . S
H512 C541 0.950 . S
H513 C543 0.950 . S
H514 C544 0.950 . S
C515 H497 0.951 . S
C515 C516 1.366 . S
C515 C517 1.388 . S
C516 C515 1.366 . S
C516 C520 1.385 . S
C517 H498 0.951 . S
C517 C515 1.388 . S
C517 C518 1.366 . S
C518 C517 1.366 . S
C518 C519 1.414 . S
C518 C521 1.499 . S
C519 H499 0.950 . S
C519 C518 1.414 . S
C519 C520 1.374 . S
C520 H500 0.950 . S
C520 C516 1.385 . S
C520 C519 1.374 . S
C521 C518 1.499 . S
C521 C522 1.373 . S
C521 C523 1.389 . S
C522 H501 0.950 . S
C522 C521 1.373 . S
C522 C538 1.377 . S
C523 C521 1.389 . S
C523 C524 1.524 . S
C523 C537 1.377 . S
C524 C523 1.524 . S
C524 C525 1.397 . S
C524 C529 1.363 . S
C525 H502 0.950 . S
C525 C524 1.397 . S
C525 C526 1.334 . S
C526 H503 0.950 . S
C526 C525 1.334 . S
C526 C527 1.287 . S
C527 C526 1.287 . S
C527 C528 1.524 . S
C527 H546 0.913 . S
C528 H504 0.950 . S
C528 C527 1.524 . S
C528 C529 1.415 . S
C529 H505 0.950 . S
C529 C524 1.363 . S
C529 C528 1.415 . S
C530 H506 0.943 1_655 S
C530 C531 1.363 . S
C530 C532 1.399 . S
C531 C530 1.363 . S
C531 C535 1.385 . S
C532 H507 0.951 . S
C532 C530 1.399 . S
C532 C533 1.366 . S
C533 C532 1.366 . S
C533 C534 1.414 . S
C533 C536 1.499 . S
C534 H508 0.950 . S
C534 C533 1.414 . S
C534 C535 1.374 . S
C535 H509 0.950 . S
C535 C531 1.385 . S
C535 C534 1.374 . S
C536 C533 1.499 . S
C536 C537 1.373 . S
C536 C538 1.389 . S
C537 H510 0.950 . S
C537 C523 1.377 . S
C537 C536 1.373 . S
C538 C522 1.377 . S
C538 C536 1.389 . S
C538 C539 1.524 . S
C539 C538 1.524 . S
C539 C540 1.397 . S
C539 C544 1.363 . S
C540 H511 0.950 . S
C540 C539 1.397 . S
C540 C541 1.334 . S
C541 H512 0.950 . S
C541 C540 1.334 . S
C541 C542 1.287 . S
C542 C541 1.287 . S
C542 C543 1.524 . S
C542 H545 0.999 . S
C543 H513 0.950 . S
C543 C542 1.524 . S
C543 C544 1.415 . S
C544 H514 0.950 . S
C544 C539 1.363 . S
C544 C543 1.415 . S
H545 C542 0.999 . S
H546 C527 0.913 . S
H547 C565 0.951 . S
H548 C567 0.951 . S
H549 C569 0.950 . S
H550 C570 0.950 . S
H551 C572 0.950 . S
H552 C575 0.950 . S
H553 C576 0.950 . S
H554 C578 0.950 . S
H555 C579 0.950 . S
H556 C580 0.951 . S
H557 C582 0.951 . S
H558 C584 0.950 . S
H559 C585 0.950 . S
H560 C587 0.950 . S
H561 C590 0.950 . S
H562 C591 0.950 . S
H563 C593 0.950 . S
H564 C594 0.950 . S
C565 H547 0.951 . S
C565 C566 1.366 . S
C565 C567 1.388 . S
C566 C565 1.366 . S
C566 C570 1.385 . S
C567 H548 0.951 . S
C567 C565 1.388 . S
C567 C568 1.366 . S
C568 C567 1.366 . S
C568 C569 1.414 . S
C568 C571 1.499 . S
C569 H549 0.950 . S
C569 C568 1.414 . S
C569 C570 1.374 . S
C570 H550 0.950 . S
C570 C566 1.385 . S
C570 C569 1.374 . S
C571 C568 1.499 . S
C571 C572 1.373 . S
C571 C573 1.389 . S
C572 H551 0.950 . S
C572 C571 1.373 . S
C572 C588 1.377 . S
C573 C571 1.389 . S
C573 C574 1.524 . S
C573 C587 1.377 . S
C574 C573 1.524 . S
C574 C575 1.397 . S
C574 C579 1.363 . S
C575 H552 0.950 . S
C575 C574 1.397 . S
C575 C576 1.334 . S
C576 H553 0.950 . S
C576 C575 1.334 . S
C576 C577 1.287 . S
C577 C576 1.287 . S
C577 C578 1.524 . S
C577 H596 0.913 . S
C578 H554 0.950 . S
C578 C577 1.524 . S
C578 C579 1.415 . S
C579 H555 0.950 . S
C579 C574 1.363 . S
C579 C578 1.415 . S
C580 H556 0.951 . S
C580 C581 1.366 . S
C580 C582 1.388 . S
C581 C580 1.366 . S
C581 C585 1.385 . S
C582 H557 0.951 . S
C582 C580 1.388 . S
C582 C583 1.366 . S
C583 C582 1.366 . S
C583 C584 1.414 . S
C583 C586 1.499 . S
C584 H558 0.950 . S
C584 C583 1.414 . S
C584 C585 1.374 . S
C585 H559 0.950 . S
C585 C581 1.385 . S
C585 C584 1.374 . S
C586 C583 1.499 . S
C586 C587 1.373 . S
C586 C588 1.389 . S
C587 H560 0.950 . S
C587 C573 1.377 . S
C587 C586 1.373 . S
C588 C572 1.377 . S
C588 C586 1.389 . S
C588 C589 1.524 . S
C589 C588 1.524 . S
C589 C590 1.397 . S
C589 C594 1.363 . S
C590 H561 0.950 . S
C590 C589 1.397 . S
C590 C591 1.334 . S
C591 H562 0.950 . S
C591 C590 1.334 . S
C591 C592 1.287 . S
C592 C591 1.287 . S
C592 C593 1.524 . S
C592 H595 0.999 . S
C593 H563 0.950 . S
C593 C592 1.524 . S
C593 C594 1.415 . S
C594 H564 0.950 . S
C594 C589 1.363 . S
C594 C593 1.415 . S
H595 C592 0.999 . S
H596 C577 0.913 . S
H597 C615 0.951 . S
H598 C617 0.951 . S
H599 C619 0.950 . S
H600 C620 0.950 . S
H601 C622 0.950 . S
H602 C625 0.950 . S
H603 C626 0.950 . S
H604 C628 0.950 . S
H605 C629 0.950 . S
H606 C630 0.951 . S
H607 C632 0.951 . S
H608 C634 0.950 . S
H609 C635 0.950 . S
H610 C637 0.950 . S
H611 C640 0.950 . S
H612 C641 0.950 . S
H613 C643 0.950 . S
H614 C644 0.950 . S
C615 H597 0.951 . S
C615 C616 1.366 . S
C615 C617 1.388 . S
C616 C615 1.366 . S
C616 C620 1.385 . S
C617 H598 0.951 . S
C617 C615 1.388 . S
C617 C618 1.366 . S
C618 C617 1.366 . S
C618 C619 1.414 . S
C618 C621 1.499 . S
C619 H599 0.950 . S
C619 C618 1.414 . S
C619 C620 1.374 . S
C620 H600 0.950 . S
C620 C616 1.385 . S
C620 C619 1.374 . S
C621 C618 1.499 . S
C621 C622 1.373 . S
C621 C623 1.389 . S
C622 H601 0.950 . S
C622 C621 1.373 . S
C622 C638 1.377 . S
C623 C621 1.389 . S
C623 C624 1.524 . S
C623 C637 1.377 . S
C624 C623 1.524 . S
C624 C625 1.397 . S
C624 C629 1.363 . S
C625 H602 0.950 . S
C625 C624 1.397 . S
C625 C626 1.334 . S
C626 H603 0.950 . S
C626 C625 1.334 . S
C626 C627 1.287 . S
C627 C626 1.287 . S
C627 C628 1.524 . S
C627 H646 0.913 . S
C628 H604 0.950 . S
C628 C627 1.524 . S
C628 C629 1.415 . S
C629 H605 0.950 . S
C629 C624 1.363 . S
C629 C628 1.415 . S
C630 H606 0.951 . S
C630 C631 1.366 . S
C630 C632 1.388 . S
C631 C630 1.366 . S
C631 C635 1.385 . S
C632 H607 0.951 . S
C632 C630 1.388 . S
C632 C633 1.366 . S
C633 C632 1.366 . S
C633 C634 1.414 . S
C633 C636 1.499 . S
C634 H608 0.950 . S
C634 C633 1.414 . S
C634 C635 1.374 . S
C635 H609 0.950 . S
C635 C631 1.385 . S
C635 C634 1.374 . S
C636 C633 1.499 . S
C636 C637 1.373 . S
C636 C638 1.389 . S
C637 H610 0.950 . S
C637 C623 1.377 . S
C637 C636 1.373 . S
C638 C622 1.377 . S
C638 C636 1.389 . S
C638 C639 1.524 . S
C639 C638 1.524 . S
C639 C640 1.397 . S
C639 C644 1.363 . S
C640 H611 0.950 . S
C640 C639 1.397 . S
C640 C641 1.334 . S
C641 H612 0.950 . S
C641 C640 1.334 . S
C641 C642 1.287 . S
C642 C641 1.287 . S
C642 C643 1.524 . S
C642 H645 0.999 . S
C643 H613 0.950 . S
C643 C642 1.524 . S
C643 C644 1.415 . S
C644 H614 0.950 . S
C644 C639 1.363 . S
C644 C643 1.415 . S
H645 C642 0.999 . S
H646 C627 0.913 . S
H647 C665 0.951 . S
H648 C667 0.951 . S
H649 C669 0.950 . S
H650 C670 0.950 . S
H651 C672 0.950 . S
H652 C675 0.950 . S
H653 C676 0.950 . S
H654 C678 0.950 . S
H655 C679 0.950 . S
H656 C680 0.951 . S
H657 C682 0.951 . S
H658 C684 0.950 . S
H659 C685 0.950 . S
H660 C687 0.950 . S
H661 C690 0.950 . S
H662 C691 0.950 . S
H663 C693 0.950 . S
H664 C694 0.950 . S
C665 H647 0.951 . S
C665 C666 1.366 . S
C665 C667 1.388 . S
C666 C665 1.366 . S
C666 C670 1.385 . S
C667 H648 0.951 . S
C667 C665 1.388 . S
C667 C668 1.366 . S
C668 C667 1.366 . S
C668 C669 1.414 . S
C668 C671 1.499 . S
C669 H649 0.950 . S
C669 C668 1.414 . S
C669 C670 1.374 . S
C670 H650 0.950 . S
C670 C666 1.385 . S
C670 C669 1.374 . S
C671 C668 1.499 . S
C671 C672 1.373 . S
C671 C673 1.389 . S
C672 H651 0.950 . S
C672 C671 1.373 . S
C672 C688 1.377 . S
C673 C671 1.389 . S
C673 C674 1.524 . S
C673 C687 1.377 . S
C674 C673 1.524 . S
C674 C675 1.397 . S
C674 C679 1.363 . S
C675 H652 0.950 . S
C675 C674 1.397 . S
C675 C676 1.334 . S
C676 H653 0.950 . S
C676 C675 1.334 . S
C676 C677 1.287 . S
C677 C676 1.287 . S
C677 C678 1.524 . S
C677 H696 0.913 . S
C678 H654 0.950 . S
C678 C677 1.524 . S
C678 C679 1.415 . S
C679 H655 0.950 . S
C679 C674 1.363 . S
C679 C678 1.415 . S
C680 H656 0.951 . S
C680 C681 1.366 . S
C680 C682 1.388 . S
C681 C680 1.366 . S
C681 C685 1.385 . S
C682 H657 0.951 . S
C682 C680 1.388 . S
C682 C683 1.366 . S
C683 C682 1.366 . S
C683 C684 1.414 . S
C683 C686 1.499 . S
C684 H658 0.950 . S
C684 C683 1.414 . S
C684 C685 1.374 . S
C685 H659 0.950 . S
C685 C681 1.385 . S
C685 C684 1.374 . S
C686 C683 1.499 . S
C686 C687 1.373 . S
C686 C688 1.389 . S
C687 H660 0.950 . S
C687 C673 1.377 . S
C687 C686 1.373 . S
C688 C672 1.377 . S
C688 C686 1.389 . S
C688 C689 1.524 . S
C689 C688 1.524 . S
C689 C690 1.397 . S
C689 C694 1.363 . S
C690 H661 0.950 . S
C690 C689 1.397 . S
C690 C691 1.334 . S
C691 H662 0.950 . S
C691 C690 1.334 . S
C691 C692 1.287 . S
C692 C691 1.287 . S
C692 C693 1.524 . S
C692 H695 0.999 . S
C693 H663 0.950 . S
C693 C692 1.524 . S
C693 C694 1.415 . S
C694 H664 0.950 . S
C694 C689 1.363 . S
C694 C693 1.415 . S
H695 C692 0.999 . S
H696 C677 0.913 . S
H697 C715 0.951 . S
H698 C717 0.951 . S
H699 C719 0.950 . S
H700 C720 0.950 . S
H701 C722 0.950 . S
H702 C725 0.950 . S
H703 C726 0.950 . S
H704 C728 0.950 . S
H705 C729 0.950 . S
H706 C730 0.951 . S
H707 C732 0.951 . S
H708 C734 0.950 . S
H709 C735 0.950 . S
H710 C737 0.950 . S
H711 C740 0.950 . S
H712 C741 0.950 . S
H713 C743 0.950 . S
H714 C744 0.950 . S
C715 H697 0.951 . S
C715 C716 1.366 . S
C715 C717 1.388 . S
C716 C715 1.366 . S
C716 C720 1.385 . S
C717 H698 0.951 . S
C717 C715 1.388 . S
C717 C718 1.366 . S
C718 C717 1.366 . S
C718 C719 1.414 . S
C718 C721 1.499 . S
C719 H699 0.950 . S
C719 C718 1.414 . S
C719 C720 1.374 . S
C720 H700 0.950 . S
C720 C716 1.385 . S
C720 C719 1.374 . S
C721 C718 1.499 . S
C721 C722 1.373 . S
C721 C723 1.389 . S
C722 H701 0.950 . S
C722 C721 1.373 . S
C722 C738 1.377 . S
C723 C721 1.389 . S
C723 C724 1.524 . S
C723 C737 1.377 . S
C724 C723 1.524 . S
C724 C725 1.397 . S
C724 C729 1.363 . S
C725 H702 0.950 . S
C725 C724 1.397 . S
C725 C726 1.334 . S
C726 H703 0.950 . S
C726 C725 1.334 . S
C726 C727 1.287 . S
C727 C726 1.287 . S
C727 C728 1.524 . S
C727 H746 0.913 . S
C728 H704 0.950 . S
C728 C727 1.524 . S
C728 C729 1.415 . S
C729 H705 0.950 . S
C729 C724 1.363 . S
C729 C728 1.415 . S
C730 H706 0.951 . S
C730 C731 1.366 . S
C730 C732 1.388 . S
C731 C730 1.366 . S
C731 C735 1.385 . S
C732 H707 0.951 . S
C732 C730 1.388 . S
C732 C733 1.366 . S
C733 C732 1.366 . S
C733 C734 1.414 . S
C733 C736 1.499 . S
C734 H708 0.950 . S
C734 C733 1.414 . S
C734 C735 1.374 . S
C735 H709 0.950 . S
C735 C731 1.385 . S
C735 C734 1.374 . S
C736 C733 1.499 . S
C736 C737 1.373 . S
C736 C738 1.389 . S
C737 H710 0.950 . S
C737 C723 1.377 . S
C737 C736 1.373 . S
C738 C722 1.377 . S
C738 C736 1.389 . S
C738 C739 1.524 . S
C739 C738 1.524 . S
C739 C740 1.397 . S
C739 C744 1.363 . S
C740 H711 0.950 . S
C740 C739 1.397 . S
C740 C741 1.334 . S
C741 H712 0.950 . S
C741 C740 1.334 . S
C741 C742 1.287 . S
C742 C741 1.287 . S
C742 C743 1.524 . S
C742 H745 0.999 . S
C743 H713 0.950 . S
C743 C742 1.524 . S
C743 C744 1.415 . S
C744 H714 0.950 . S
C744 C739 1.363 . S
C744 C743 1.415 . S
H745 C742 0.999 . S
H746 C727 0.913 . S
H747 C765 0.951 . S
H748 C767 0.951 . S
H749 C769 0.950 . S
H750 C770 0.950 . S
H751 C772 0.950 . S
H752 C775 0.950 . S
H753 C776 0.950 . S
H754 C778 0.950 . S
H755 C779 0.950 . S
H756 C780 0.951 . S
H757 C782 0.951 . S
H758 C784 0.950 . S
H759 C785 0.950 . S
H760 C787 0.950 1_656 S
H761 C790 0.950 . S
H762 C791 0.950 . S
H763 C793 0.950 . S
H764 C794 0.958 . S
C765 H747 0.951 . S
C765 C766 1.366 . S
C765 C767 1.388 . S
C766 C765 1.366 . S
C766 C770 1.385 . S
C767 H748 0.951 . S
C767 C765 1.388 . S
C767 C768 1.366 . S
C768 C767 1.366 . S
C768 C769 1.414 . S
C768 C771 1.499 . S
C769 H749 0.950 . S
C769 C768 1.414 . S
C769 C770 1.374 . S
C770 H750 0.950 . S
C770 C766 1.385 . S
C770 C769 1.374 . S
C771 C768 1.499 . S
C771 C772 1.373 . S
C771 C773 1.389 . S
C772 H751 0.950 . S
C772 C771 1.373 . S
C772 C788 1.377 . S
C773 C771 1.389 . S
C773 C774 1.524 1_455 S
C773 C787 1.377 . S
C774 C773 1.524 1_655 S
C774 C775 1.397 . S
C774 C779 1.363 . S
C775 H752 0.950 . S
C775 C774 1.397 . S
C775 C776 1.334 . S
C776 H753 0.950 . S
C776 C775 1.334 . S
C776 C777 1.287 . S
C777 C776 1.287 . S
C777 C778 1.524 . S
C777 H796 0.913 . S
C778 H754 0.950 . S
C778 C777 1.524 . S
C778 C779 1.415 . S
C779 H755 0.950 . S
C779 C774 1.363 . S
C779 C778 1.415 . S
C780 H756 0.951 . S
C780 C781 1.366 . S
C780 C782 1.388 . S
C781 C780 1.366 . S
C781 C785 1.385 . S
C782 H757 0.951 . S
C782 C780 1.388 . S
C782 C783 1.366 . S
C783 C782 1.366 . S
C783 C784 1.414 . S
C783 C786 1.499 . S
C784 H758 0.950 . S
C784 C783 1.414 . S
C784 C785 1.374 . S
C785 H759 0.950 . S
C785 C781 1.385 . S
C785 C784 1.374 . S
C786 C783 1.499 . S
C786 C787 1.373 1_556 S
C786 C788 1.389 1_556 S
C787 H760 0.950 1_454 S
C787 C773 1.377 . S
C787 C786 1.373 1_554 S
C788 C772 1.377 . S
C788 C786 1.389 1_554 S
C788 C789 1.524 1_554 S
C789 C788 1.524 1_556 S
C789 C790 1.397 . S
C789 C794 1.360 1_556 S
C790 H761 0.950 . S
C790 C789 1.397 . S
C790 C791 1.334 . S
C791 H762 0.950 . S
C791 C790 1.334 . S
C791 C792 1.287 . S
C792 C791 1.287 . S
C792 C793 1.524 . S
C792 H795 0.999 . S
C793 H763 0.950 . S
C793 C792 1.524 . S
C793 C794 1.410 1_556 S
C794 H764 0.958 . S
C794 C789 1.360 1_554 S
C794 C793 1.410 1_554 S
H795 C792 0.999 . S
H796 C777 0.913 . S
H797 C815 0.951 . S
H798 C817 0.951 . S
H799 C819 0.950 . S
H800 C820 0.950 . S
H801 C822 0.950 . S
H802 C825 0.950 . S
H803 C826 0.950 . S
H804 C828 0.950 . S
H805 C829 0.950 . S
H806 C830 0.951 . S
H807 C832 0.951 . S
H808 C834 0.950 . S
H809 C835 0.950 . S
H810 C837 0.950 1_565 S
H811 C840 0.950 . S
H812 C841 0.950 . S
H813 C843 0.950 . S
H814 C844 0.950 . S
C815 H797 0.951 . S
C815 C816 1.366 . S
C815 C817 1.388 . S
C816 C815 1.366 . S
C816 C820 1.385 . S
C817 H798 0.951 . S
C817 C815 1.388 . S
C817 C818 1.366 . S
C818 C817 1.366 . S
C818 C819 1.414 . S
C818 C821 1.499 . S
C819 H799 0.950 . S
C819 C818 1.414 . S
C819 C820 1.374 . S
C820 H800 0.950 . S
C820 C816 1.385 . S
C820 C819 1.374 . S
C821 C818 1.499 . S
C821 C822 1.373 . S
C821 C823 1.389 . S
C822 H801 0.950 . S
C822 C821 1.373 . S
C822 C838 1.377 . S
C823 C821 1.389 . S
C823 C824 1.524 1_545 S
C823 C837 1.377 . S
C824 C823 1.524 1_565 S
C824 C825 1.397 . S
C824 C829 1.363 . S
C825 H802 0.950 . S
C825 C824 1.397 . S
C825 C826 1.334 . S
C826 H803 0.950 . S
C826 C825 1.334 . S
C826 C827 1.287 . S
C827 C826 1.287 . S
C827 C828 1.524 . S
C827 H846 0.913 . S
C828 H804 0.950 . S
C828 C827 1.524 . S
C828 C829 1.415 . S
C829 H805 0.950 . S
C829 C824 1.363 . S
C829 C828 1.415 . S
C830 H806 0.951 . S
C830 C831 1.366 . S
C830 C832 1.388 . S
C831 C830 1.366 . S
C831 C835 1.385 . S
C832 H807 0.951 . S
C832 C830 1.388 . S
C832 C833 1.366 . S
C833 C832 1.366 . S
C833 C834 1.414 . S
C833 C836 1.499 . S
C834 H808 0.950 . S
C834 C833 1.414 . S
C834 C835 1.374 . S
C835 H809 0.950 . S
C835 C831 1.385 . S
C835 C834 1.374 . S
C836 C833 1.499 . S
C836 C837 1.373 . S
C836 C838 1.389 . S
C837 H810 0.950 1_545 S
C837 C823 1.377 . S
C837 C836 1.373 . S
C838 C822 1.377 . S
C838 C836 1.389 . S
C838 C839 1.524 . S
C839 C838 1.524 . S
C839 C840 1.397 . S
C839 C844 1.363 . S
C840 H811 0.950 . S
C840 C839 1.397 . S
C840 C841 1.334 . S
C841 H812 0.950 . S
C841 C840 1.334 . S
C841 C842 1.287 . S
C842 C841 1.287 . S
C842 C843 1.524 . S
C842 H845 0.999 . S
C843 H813 0.950 . S
C843 C842 1.524 . S
C843 C844 1.415 . S
C844 H814 0.950 . S
C844 C839 1.363 . S
C844 C843 1.415 . S
H845 C842 0.999 . S
H846 C827 0.913 . S
H847 C865 0.951 . S
H848 C867 0.951 . S
H849 C869 0.950 . S
H850 C870 0.950 . S
H851 C872 0.950 . S
H852 C875 0.950 . S
H853 C876 0.950 . S
H854 C878 0.950 . S
H855 C879 0.950 . S
H856 C880 0.951 . S
H857 C882 0.951 . S
H858 C884 0.950 . S
H859 C885 0.950 . S
H860 C887 0.950 . S
H861 C890 0.950 . S
H862 C891 0.950 . S
H863 C893 0.950 . S
H864 C894 0.950 . S
C865 H847 0.951 . S
C865 C866 1.366 . S
C865 C867 1.388 . S
C866 C865 1.366 . S
C866 C870 1.385 . S
C867 H848 0.951 . S
C867 C865 1.388 . S
C867 C868 1.366 . S
C868 C867 1.366 . S
C868 C869 1.414 . S
C868 C871 1.499 . S
C869 H849 0.950 . S
C869 C868 1.414 . S
C869 C870 1.374 . S
C870 H850 0.950 . S
C870 C866 1.385 . S
C870 C869 1.374 . S
C871 C868 1.499 . S
C871 C872 1.373 . S
C871 C873 1.389 . S
C872 H851 0.950 . S
C872 C871 1.373 . S
C872 C888 1.377 . S
C873 C871 1.389 . S
C873 C874 1.524 . S
C873 C887 1.377 . S
C874 C873 1.524 . S
C874 C875 1.397 . S
C874 C879 1.363 . S
C875 H852 0.950 . S
C875 C874 1.397 . S
C875 C876 1.334 . S
C876 H853 0.950 . S
C876 C875 1.334 . S
C876 C877 1.287 . S
C877 C876 1.287 . S
C877 C878 1.524 . S
C877 H896 0.913 . S
C878 H854 0.950 . S
C878 C877 1.524 . S
C878 C879 1.415 . S
C879 H855 0.950 . S
C879 C874 1.363 . S
C879 C878 1.415 . S
C880 H856 0.951 . S
C880 C881 1.366 . S
C880 C882 1.388 . S
C881 C880 1.366 . S
C881 C885 1.385 . S
C882 H857 0.951 . S
C882 C880 1.388 . S
C882 C883 1.366 . S
C883 C882 1.366 . S
C883 C884 1.414 . S
C883 C886 1.499 . S
C884 H858 0.950 . S
C884 C883 1.414 . S
C884 C885 1.374 . S
C885 H859 0.950 . S
C885 C881 1.385 . S
C885 C884 1.374 . S
C886 C883 1.499 . S
C886 C887 1.373 . S
C886 C888 1.389 . S
C887 H860 0.950 . S
C887 C873 1.377 . S
C887 C886 1.373 . S
C888 C872 1.377 . S
C888 C886 1.389 . S
C888 C889 1.524 . S
C889 C888 1.524 . S
C889 C890 1.397 . S
C889 C894 1.363 . S
C890 H861 0.950 . S
C890 C889 1.397 . S
C890 C891 1.334 . S
C891 H862 0.950 . S
C891 C890 1.334 . S
C891 C892 1.287 . S
C892 C891 1.287 . S
C892 C893 1.524 . S
C892 H895 0.999 . S
C893 H863 0.950 . S
C893 C892 1.524 . S
C893 C894 1.415 . S
C894 H864 0.950 . S
C894 C889 1.363 . S
C894 C893 1.415 . S
H895 C892 0.999 . S
H896 C877 0.913 . S
H897 C915 0.951 . S
H898 C917 0.951 . S
H899 C919 0.950 . S
H900 C920 0.950 . S
H901 C922 0.950 . S
H902 C925 0.950 . S
H903 C926 0.950 . S
H904 C928 0.950 . S
H905 C929 0.950 . S
H906 C930 0.951 . S
H907 C932 0.951 . S
H908 C934 0.950 . S
H909 C935 0.950 . S
H910 C937 0.950 . S
H911 C940 0.950 . S
H912 C941 0.950 . S
H913 C943 0.950 . S
H914 C944 0.950 . S
C915 H897 0.951 . S
C915 C916 1.366 . S
C915 C917 1.388 . S
C916 C915 1.366 . S
C916 C920 1.385 . S
C917 H898 0.951 . S
C917 C915 1.388 . S
C917 C918 1.366 . S
C918 C917 1.366 . S
C918 C919 1.414 . S
C918 C921 1.499 . S
C919 H899 0.950 . S
C919 C918 1.414 . S
C919 C920 1.374 . S
C920 H900 0.950 . S
C920 C916 1.385 . S
C920 C919 1.374 . S
C921 C918 1.499 . S
C921 C922 1.373 . S
C921 C923 1.389 . S
C922 H901 0.950 . S
C922 C921 1.373 . S
C922 C938 1.377 . S
C923 C921 1.389 . S
C923 C924 1.524 . S
C923 C937 1.377 . S
C924 C923 1.524 . S
C924 C925 1.397 . S
C924 C929 1.363 . S
C925 H902 0.950 . S
C925 C924 1.397 . S
C925 C926 1.334 . S
C926 H903 0.950 . S
C926 C925 1.334 . S
C926 C927 1.287 . S
C927 C926 1.287 . S
C927 C928 1.524 . S
C927 H946 0.913 . S
C928 H904 0.950 . S
C928 C927 1.524 . S
C928 C929 1.415 . S
C929 H905 0.950 . S
C929 C924 1.363 . S
C929 C928 1.415 . S
C930 H906 0.951 . S
C930 C931 1.366 . S
C930 C932 1.388 . S
C931 C930 1.366 . S
C931 C935 1.385 . S
C932 H907 0.951 . S
C932 C930 1.388 . S
C932 C933 1.366 . S
C933 C932 1.366 . S
C933 C934 1.414 . S
C933 C936 1.499 . S
C934 H908 0.950 . S
C934 C933 1.414 . S
C934 C935 1.374 . S
C935 H909 0.950 . S
C935 C931 1.385 . S
C935 C934 1.374 . S
C936 C933 1.499 . S
C936 C937 1.373 . S
C936 C938 1.389 . S
C937 H910 0.950 . S
C937 C923 1.377 . S
C937 C936 1.373 . S
C938 C922 1.377 . S
C938 C936 1.389 . S
C938 C939 1.524 1_545 S
C939 C938 1.524 1_565 S
C939 C940 1.397 . S
C939 C944 1.363 . S
C940 H911 0.950 . S
C940 C939 1.397 . S
C940 C941 1.334 . S
C941 H912 0.950 . S
C941 C940 1.334 . S
C941 C942 1.287 . S
C942 C941 1.287 . S
C942 C943 1.524 . S
C942 H945 0.999 . S
C943 H913 0.950 . S
C943 C942 1.524 . S
C943 C944 1.415 . S
C944 H914 0.950 . S
C944 C939 1.363 . S
C944 C943 1.415 . S
H945 C942 0.999 . S
H946 C927 0.913 . S
H947 C965 0.951 . S
H948 C967 0.951 . S
H949 C969 0.950 . S
H950 C970 0.950 . S
H951 C972 0.950 . S
H952 C975 0.950 . S
H953 C976 0.950 . S
H954 C978 0.950 . S
H955 C979 0.950 . S
H956 C980 0.951 . S
H957 C982 0.951 . S
H958 C984 0.950 . S
H959 C985 0.950 . S
H960 C987 0.950 1_554 S
H961 C990 0.950 . S
H962 C991 0.950 . S
H963 C993 0.950 . S
H964 C994 0.950 1_556 S
C965 H947 0.951 . S
C965 C966 1.366 . S
C965 C967 1.388 . S
C966 C965 1.366 . S
C966 C970 1.385 . S
C967 H948 0.951 . S
C967 C965 1.388 . S
C967 C968 1.366 . S
C968 C967 1.366 . S
C968 C969 1.414 . S
C968 C971 1.499 . S
C969 H949 0.950 . S
C969 C968 1.414 . S
C969 C970 1.374 . S
C970 H950 0.950 . S
C970 C966 1.385 . S
C970 C969 1.374 . S
C971 C968 1.499 . S
C971 C972 1.373 . S
C971 C973 1.389 . S
C972 H951 0.950 . S
C972 C971 1.373 . S
C972 C988 1.377 . S
C973 C971 1.389 . S
C973 C974 1.524 . S
C973 C987 1.377 . S
C974 C973 1.524 . S
C974 C975 1.397 . S
C974 C979 1.363 . S
C975 H952 0.950 . S
C975 C974 1.397 . S
C975 C976 1.334 . S
C976 H953 0.950 . S
C976 C975 1.334 . S
C976 C977 1.287 . S
C977 C976 1.287 . S
C977 C978 1.524 . S
C977 H996 0.913 . S
C978 H954 0.950 . S
C978 C977 1.524 . S
C978 C979 1.415 . S
C979 H955 0.950 . S
C979 C974 1.363 . S
C979 C978 1.415 . S
C980 H956 0.951 . S
C980 C981 1.366 . S
C980 C982 1.388 . S
C981 C980 1.366 . S
C981 C985 1.385 . S
C982 H957 0.951 . S
C982 C980 1.388 . S
C982 C983 1.366 . S
C983 C982 1.366 . S
C983 C984 1.414 . S
C983 C986 1.499 . S
C984 H958 0.950 . S
C984 C983 1.414 . S
C984 C985 1.374 . S
C985 H959 0.950 . S
C985 C981 1.385 . S
C985 C984 1.374 . S
C986 C983 1.499 . S
C986 C987 1.373 1_554 S
C986 C988 1.389 1_554 S
C987 H960 0.950 1_556 S
C987 C973 1.377 . S
C987 C986 1.373 1_556 S
C988 C972 1.377 . S
C988 C986 1.389 1_556 S
C988 C989 1.524 1_556 S
C989 C988 1.524 1_554 S
C989 C990 1.397 . S
C989 C994 1.363 . S
C990 H961 0.950 . S
C990 C989 1.397 . S
C990 C991 1.334 . S
C991 H962 0.950 . S
C991 C990 1.334 . S
C991 C992 1.287 . S
C992 C991 1.287 . S
C992 C993 1.524 . S
C992 H995 0.999 . S
C993 H963 0.950 . S
C993 C992 1.524 . S
C993 C994 1.415 . S
C994 H964 0.950 1_554 S
C994 C989 1.363 . S
C994 C993 1.415 . S
H995 C992 0.999 . S
H996 C977 0.913 . S
H997 C1015 0.951 . S
H998 C1017 0.951 . S
H999 C1019 0.950 . S
H1000 C1020 0.950 . S
H1001 C1022 0.950 1_655 S
H1002 C1025 0.950 . S
H1003 C1026 0.950 . S
H1004 C1028 0.950 . S
H1005 C1029 0.950 . S
H1006 C1030 0.951 . S
H1007 C1032 0.951 . S
H1008 C1034 0.950 . S
H1009 C1035 0.950 . S
H1010 C1037 0.950 . S
H1011 C1040 0.950 . S
H1012 C1041 0.950 . S
H1013 C1043 0.950 . S
H1014 C1044 0.950 . S
C1015 H997 0.951 . S
C1015 C1016 1.366 . S
C1015 C1017 1.388 . S
C1016 C1015 1.366 . S
C1016 C1020 1.385 . S
C1017 H998 0.951 . S
C1017 C1015 1.388 . S
C1017 C1018 1.366 . S
C1018 C1017 1.366 . S
C1018 C1019 1.414 . S
C1018 C1021 1.499 . S
C1019 H999 0.950 . S
C1019 C1018 1.414 . S
C1019 C1020 1.374 . S
C1020 H1000 0.950 . S
C1020 C1016 1.385 . S
C1020 C1019 1.374 . S
C1021 C1018 1.499 . S
C1021 C1022 1.373 . S
C1021 C1023 1.389 . S
C1022 H1001 0.950 1_455 S
C1022 C1021 1.373 . S
C1022 C1038 1.377 . S
C1023 C1021 1.389 . S
C1023 C1024 1.524 . S
C1023 C1037 1.377 . S
C1024 C1023 1.524 . S
C1024 C1025 1.397 . S
C1024 C1029 1.363 . S
C1025 H1002 0.950 . S
C1025 C1024 1.397 . S
C1025 C1026 1.334 . S
C1026 H1003 0.950 . S
C1026 C1025 1.334 . S
C1026 C1027 1.287 . S
C1027 C1026 1.287 . S
C1027 C1028 1.524 . S
C1027 H1046 0.913 . S
C1028 H1004 0.950 . S
C1028 C1027 1.524 . S
C1028 C1029 1.415 . S
C1029 H1005 0.950 . S
C1029 C1024 1.363 . S
C1029 C1028 1.415 . S
C1030 H1006 0.951 . S
C1030 C1031 1.366 . S
C1030 C1032 1.388 . S
C1031 C1030 1.366 . S
C1031 C1035 1.385 . S
C1032 H1007 0.951 . S
C1032 C1030 1.388 . S
C1032 C1033 1.366 . S
C1033 C1032 1.366 . S
C1033 C1034 1.414 . S
C1033 C1036 1.499 . S
C1034 H1008 0.950 . S
C1034 C1033 1.414 . S
C1034 C1035 1.374 . S
C1035 H1009 0.950 . S
C1035 C1031 1.385 . S
C1035 C1034 1.374 . S
C1036 C1033 1.499 . S
C1036 C1037 1.373 . S
C1036 C1038 1.389 . S
C1037 H1010 0.950 . S
C1037 C1023 1.377 . S
C1037 C1036 1.373 . S
C1038 C1022 1.377 . S
C1038 C1036 1.389 . S
C1038 C1039 1.524 1_455 S
C1039 C1038 1.524 1_655 S
C1039 C1040 1.397 . S
C1039 C1044 1.363 . S
C1040 H1011 0.950 . S
C1040 C1039 1.397 . S
C1040 C1041 1.334 . S
C1041 H1012 0.950 . S
C1041 C1040 1.334 . S
C1041 C1042 1.287 . S
C1042 C1041 1.287 . S
C1042 C1043 1.524 . S
C1042 H1045 0.999 . S
C1043 H1013 0.950 . S
C1043 C1042 1.524 . S
C1043 C1044 1.415 . S
C1044 H1014 0.950 . S
C1044 C1039 1.363 . S
C1044 C1043 1.415 . S
H1045 C1042 0.999 . S
H1046 C1027 0.913 . S
C166 C20 0.827 . S
C181 N136 0.838 . S
C216 C41 1.201 . S
C231 N109 1.193 . S
C266 C64 1.202 . S
C281 N122 1.195 . S
C316 C19 1.547 . S
C331 N135 1.576 . S
C381 N110 1.257 . S
C366 C44 1.258 . S
C431 N123 1.249 . S
C416 C67 1.250 . S
C466 C43 1.117 . S
C481 N83 1.157 . S
C516 C66 0.827 . S
C531 N97 0.838 1_655 S
C566 C21 1.251 . S
C581 N71 1.252 . S
C631 N84 1.254 . S
C616 C42 1.233 . S
C681 N96 1.576 . S
C666 C65 1.546 . S
C716 C18 1.180 . S
C731 N70 1.173 . S
C781 N100 1.499 . S
C766 C17 1.533 . S
C816 C39 1.547 . S
C831 N74 1.540 . S
C866 C62 1.544 . S
C881 N87 1.538 . S
C931 N126 1.524 . S
C916 C40 1.537 . S
C981 N139 1.499 . S
C966 C63 1.532 . S
C1016 C16 1.530 . S
C1031 N113 1.523 . S
