# Generated by pormake.
# Topology pyr, (3,6)-cn, num edge types: 1
# Building blocks:
#     Node 0, Type 0, BuildingBlock: KAKCAD_clean_linker_0, # of connection points: 3
#     Node 1, Type 0, BuildingBlock: KAKCAD_clean_linker_0, # of connection points: 3
#     Node 2, Type 0, BuildingBlock: KAKCAD_clean_linker_0, # of connection points: 3
#     Node 3, Type 0, BuildingBlock: KAKCAD_clean_linker_0, # of connection points: 3
#     Node 4, Type 0, BuildingBlock: KAKCAD_clean_linker_0, # of connection points: 3
#     Node 5, Type 0, BuildingBlock: KAKCAD_clean_linker_0, # of connection points: 3
#     Node 6, Type 0, BuildingBlock: KAKCAD_clean_linker_0, # of connection points: 3
#     Node 7, Type 0, BuildingBlock: KAKCAD_clean_linker_0, # of connection points: 3
#     Node 8, Type 1, BuildingBlock: VOLQOD_clean_sbu_1, # of connection points: 6
#     Node 9, Type 1, BuildingBlock: VOLQOD_clean_sbu_1, # of connection points: 6
#     Node 10, Type 1, BuildingBlock: VOLQOD_clean_sbu_1, # of connection points: 6
#     Node 11, Type 1, BuildingBlock: VOLQOD_clean_sbu_1, # of connection points: 6
#     Edge 12, Type (0, 1), BuildingBlock: AJUNOK_clean_linker_0, # of connection points: 2
#     Edge 13, Type (0, 1), BuildingBlock: AJUNOK_clean_linker_0, # of connection points: 2
#     Edge 14, Type (0, 1), BuildingBlock: AJUNOK_clean_linker_0, # of connection points: 2
#     Edge 15, Type (0, 1), BuildingBlock: AJUNOK_clean_linker_0, # of connection points: 2
#     Edge 16, Type (0, 1), BuildingBlock: AJUNOK_clean_linker_0, # of connection points: 2
#     Edge 17, Type (0, 1), BuildingBlock: AJUNOK_clean_linker_0, # of connection points: 2
#     Edge 18, Type (0, 1), BuildingBlock: AJUNOK_clean_linker_0, # of connection points: 2
#     Edge 19, Type (0, 1), BuildingBlock: AJUNOK_clean_linker_0, # of connection points: 2
#     Edge 20, Type (0, 1), BuildingBlock: AJUNOK_clean_linker_0, # of connection points: 2
#     Edge 21, Type (0, 1), BuildingBlock: AJUNOK_clean_linker_0, # of connection points: 2
#     Edge 22, Type (0, 1), BuildingBlock: AJUNOK_clean_linker_0, # of connection points: 2
#     Edge 23, Type (0, 1), BuildingBlock: AJUNOK_clean_linker_0, # of connection points: 2
#     Edge 24, Type (0, 1), BuildingBlock: AJUNOK_clean_linker_0, # of connection points: 2
#     Edge 25, Type (0, 1), BuildingBlock: AJUNOK_clean_linker_0, # of connection points: 2
#     Edge 26, Type (0, 1), BuildingBlock: AJUNOK_clean_linker_0, # of connection points: 2
#     Edge 27, Type (0, 1), BuildingBlock: AJUNOK_clean_linker_0, # of connection points: 2
#     Edge 28, Type (0, 1), BuildingBlock: AJUNOK_clean_linker_0, # of connection points: 2
#     Edge 29, Type (0, 1), BuildingBlock: AJUNOK_clean_linker_0, # of connection points: 2
#     Edge 30, Type (0, 1), BuildingBlock: AJUNOK_clean_linker_0, # of connection points: 2
#     Edge 31, Type (0, 1), BuildingBlock: AJUNOK_clean_linker_0, # of connection points: 2
#     Edge 32, Type (0, 1), BuildingBlock: AJUNOK_clean_linker_0, # of connection points: 2
#     Edge 33, Type (0, 1), BuildingBlock: AJUNOK_clean_linker_0, # of connection points: 2
#     Edge 34, Type (0, 1), BuildingBlock: AJUNOK_clean_linker_0, # of connection points: 2
#     Edge 35, Type (0, 1), BuildingBlock: AJUNOK_clean_linker_0, # of connection points: 2
# Relax obj value: 0.035
# Max RMSD: 0.119
# Mean RMSD: 0.043
data_MOF--net-pry--node1-VOLQOD_clean_sbu_1--node2-KAKCAD_clean_linker_0--edge1-AJUNOK_clean_linker_0
_symmetry_space_group_name_H-M    P1
_symmetry_Int_Tables_number       1
_symmetry_cell_setting            triclinic
loop_
_symmetry_equiv_pos_as_xyz
'x, y, z'
_cell_length_a     36.191226
_cell_length_b     36.17212
_cell_length_c     36.287992
_cell_angle_alpha  90.436949
_cell_angle_beta   89.852145
_cell_angle_gamma 90.240756
loop_
_atom_site_label
_atom_site_type_symbol
_atom_site_fract_x
_atom_site_fract_y
_atom_site_fract_z
_atom_type_partial_charge
C0 C 0.04514 0.09071 0.24198 0.0
C1 C 0.0699 0.08048 0.26983 0.0
C2 C 0.05831 0.10144 0.2074 0.0
C3 C 0.09648 0.10223 0.20011 0.0
C4 C 0.12114 0.092 0.22809 0.0
C5 C 0.10798 0.08121 0.26252 0.0
C6 C 0.1109 0.11469 0.16392 0.0
C7 C 0.09592 0.14586 0.14669 0.0
C8 C 0.11172 0.15977 0.11418 0.0
C9 C 0.14244 0.1418 0.09864 0.0
C10 C 0.15783 0.11077 0.11562 0.0
C11 C 0.14153 0.09706 0.14787 0.0
C12 C 0.19284 0.0948 0.10159 0.0
C13 C 0.19861 0.08921 0.06363 0.0
C14 C 0.22156 0.08682 0.12623 0.0
C15 C 0.25556 0.07425 0.1132 0.0
C16 C 0.26163 0.06941 0.07525 0.0
C17 C 0.09816 0.19481 0.09824 0.0
C18 C 0.0601 0.2019 0.0954 0.0
C19 C 0.12347 0.22205 0.08693 0.0
C20 C 0.11107 0.25562 0.07311 0.0
C21 C 0.07309 0.26268 0.07013 0.0
C22 C 0.04767 0.23559 0.0815 0.0
C23 C 0.23268 0.07647 0.05059 0.0
H24 H 0.01565 0.09098 0.24711 0.0
H25 H 0.03864 0.10906 0.18637 0.0
H26 H 0.15073 0.09298 0.22366 0.0
H27 H 0.12766 0.07341 0.2835 0.0
H28 H 0.07327 0.16055 0.15967 0.0
H29 H 0.15309 0.0728 0.16079 0.0
H30 H 0.15522 0.15281 0.07399 0.0
H31 H 0.17681 0.09477 0.04407 0.0
H32 H 0.21816 0.09141 0.15558 0.0
H33 H 0.2775 0.06929 0.13279 0.0
H34 H 0.03997 0.18136 0.10379 0.0
H35 H 0.15294 0.21782 0.08963 0.0
H36 H 0.23641 0.07224 0.02124 0.0
H37 H 0.01823 0.24044 0.07951 0.0
H38 H 0.13125 0.27643 0.06552 0.0
C39 C 0.40036 0.9514 0.75816 0.0
C40 C 0.4385 0.95191 0.76507 0.0
C41 C 0.38694 0.94004 0.72387 0.0
C42 C 0.41141 0.92903 0.69574 0.0
C43 C 0.44965 0.93096 0.70221 0.0
C44 C 0.46307 0.9424 0.73654 0.0
C45 C 0.39679 0.91299 0.66093 0.0
C46 C 0.36564 0.92833 0.64398 0.0
C47 C 0.34851 0.91049 0.61395 0.0
C48 C 0.36386 0.87745 0.60025 0.0
C49 C 0.39556 0.86223 0.61632 0.0
C50 C 0.41191 0.88025 0.64655 0.0
C51 C 0.41013 0.82614 0.60333 0.0
C52 C 0.3859 0.79649 0.59634 0.0
C53 C 0.44834 0.82072 0.59899 0.0
C54 C 0.46204 0.78624 0.58808 0.0
C55 C 0.43778 0.75648 0.58161 0.0
C56 C 0.31328 0.92486 0.59861 0.0
C57 C 0.28661 0.94084 0.6221 0.0
C58 C 0.30515 0.92122 0.5608 0.0
C59 C 0.27085 0.9322 0.54713 0.0
C60 C 0.24441 0.94763 0.57086 0.0
C61 C 0.25266 0.95239 0.60827 0.0
C62 C 0.39958 0.76204 0.58559 0.0
H63 H 0.38083 0.95844 0.77975 0.0
H64 H 0.35732 0.93839 0.71994 0.0
H65 H 0.46916 0.92313 0.68088 0.0
H66 H 0.49265 0.94335 0.74095 0.0
H67 H 0.35451 0.95405 0.65461 0.0
H68 H 0.43521 0.86758 0.6602 0.0
H69 H 0.35063 0.8629 0.57763 0.0
H70 H 0.35637 0.79965 0.60001 0.0
H71 H 0.46762 0.84322 0.60382 0.0
H72 H 0.49156 0.78293 0.58445 0.0
H73 H 0.29137 0.94341 0.65145 0.0
H74 H 0.32516 0.90966 0.54175 0.0
H75 H 0.38029 0.7395 0.58104 0.0
H76 H 0.23234 0.96397 0.627 0.0
H77 H 0.26485 0.92845 0.5181 0.0
C78 C 0.73797 0.46778 0.93829 0.0
C79 C 0.7654 0.44262 0.94876 0.0
C80 C 0.70361 0.45502 0.92588 0.0
C81 C 0.69623 0.41686 0.9235 0.0
C82 C 0.72391 0.39183 0.93383 0.0
C83 C 0.75806 0.40458 0.94635 0.0
C84 C 0.66035 0.40284 0.90925 0.0
C85 C 0.64391 0.41891 0.87824 0.0
C86 C 0.61187 0.40343 0.86257 0.0
C87 C 0.59596 0.37186 0.87856 0.0
C88 C 0.61206 0.35549 0.90952 0.0
C89 C 0.64384 0.37151 0.925 0.0
C90 C 0.59758 0.32001 0.9239 0.0
C91 C 0.55945 0.31418 0.92859 0.0
C92 C 0.62211 0.29117 0.93193 0.0
C93 C 0.60882 0.25711 0.94399 0.0
C94 C 0.57072 0.25108 0.9483 0.0
C95 C 0.59691 0.41838 0.82774 0.0
C96 C 0.59333 0.45668 0.8227 0.0
C97 C 0.58741 0.39428 0.7987 0.0
C98 C 0.57511 0.40816 0.76517 0.0
C99 C 0.57201 0.44645 0.7599 0.0
C100 C 0.58082 0.4706 0.78913 0.0
C101 C 0.54614 0.28005 0.94086 0.0
H102 H 0.7431 0.49727 0.93987 0.0
H103 H 0.6828 0.47498 0.91832 0.0
H104 H 0.71952 0.36227 0.93144 0.0
H105 H 0.7791 0.38462 0.95335 0.0
H106 H 0.6572 0.44223 0.86502 0.0
H107 H 0.65603 0.35918 0.94921 0.0
H108 H 0.5717 0.35931 0.86616 0.0
H109 H 0.53997 0.33606 0.92294 0.0
H110 H 0.65161 0.29462 0.928 0.0
H111 H 0.62837 0.23516 0.94918 0.0
H112 H 0.60011 0.47586 0.84476 0.0
H113 H 0.59044 0.36465 0.80153 0.0
H114 H 0.51666 0.27636 0.94464 0.0
H115 H 0.57796 0.5002 0.78608 0.0
H116 H 0.56881 0.38893 0.74301 0.0
C117 C 0.90571 0.56595 0.25938 0.0
C118 C 0.94367 0.5673 0.2515 0.0
C119 C 0.89226 0.579 0.2931 0.0
C120 C 0.9165 0.59361 0.31978 0.0
C121 C 0.95461 0.59453 0.31198 0.0
C122 C 0.96803 0.58167 0.27809 0.0
C123 C 0.90175 0.60931 0.35482 0.0
C124 C 0.87153 0.59255 0.37262 0.0
C125 C 0.85532 0.609 0.40385 0.0
C126 C 0.87021 0.64204 0.41788 0.0
C127 C 0.90034 0.65923 0.40052 0.0
C128 C 0.91613 0.64258 0.36918 0.0
C129 C 0.91341 0.69597 0.4135 0.0
C130 C 0.88774 0.72362 0.42268 0.0
C131 C 0.95136 0.704 0.41603 0.0
C132 C 0.96335 0.73899 0.42762 0.0
C133 C 0.93758 0.76653 0.43675 0.0
C134 C 0.82084 0.59367 0.41991 0.0
C135 C 0.79172 0.58272 0.3967 0.0
C136 C 0.81574 0.59226 0.4583 0.0
C137 C 0.78188 0.58093 0.47315 0.0
C138 C 0.75246 0.57108 0.44985 0.0
C139 C 0.75791 0.57156 0.41151 0.0
C140 C 0.89971 0.75853 0.43413 0.0
H141 H 0.88628 0.55575 0.23901 0.0
H142 H 0.8627 0.57864 0.29775 0.0
H143 H 0.97407 0.60526 0.33205 0.0
H144 H 0.99745 0.58294 0.2726 0.0
H145 H 0.86031 0.56678 0.362 0.0
H146 H 0.93836 0.65662 0.35484 0.0
H147 H 0.85749 0.65515 0.44166 0.0
H148 H 0.85832 0.7185 0.4204 0.0
H149 H 0.97174 0.68318 0.40919 0.0
H150 H 0.99273 0.7447 0.42891 0.0
H151 H 0.79459 0.58405 0.36702 0.0
H152 H 0.83787 0.60017 0.47684 0.0
H153 H 0.87931 0.77932 0.44103 0.0
H154 H 0.73562 0.56432 0.3929 0.0
H155 H 0.77868 0.58001 0.50281 0.0
C156 C 0.94094 0.91069 0.76794 0.0
C157 C 0.94319 0.9486 0.76022 0.0
C158 C 0.93093 0.89867 0.80299 0.0
C159 C 0.92278 0.92429 0.83113 0.0
C160 C 0.92462 0.96228 0.82333 0.0
C161 C 0.93471 0.97434 0.78814 0.0
C162 C 0.91095 0.91108 0.86795 0.0
C163 C 0.92843 0.88054 0.884 0.0
C164 C 0.91462 0.86494 0.91655 0.0
C165 C 0.88394 0.88112 0.93387 0.0
C166 C 0.86566 0.91118 0.91794 0.0
C167 C 0.87974 0.92642 0.88526 0.0
C168 C 0.82932 0.92325 0.9327 0.0
C169 C 0.80334 0.89662 0.94408 0.0
C170 C 0.81928 0.96078 0.93333 0.0
C171 C 0.78364 0.97127 0.9441 0.0
C172 C 0.75747 0.94436 0.95411 0.0
C173 C 0.92905 0.82907 0.92975 0.0
C174 C 0.90416 0.80091 0.93979 0.0
C175 C 0.96716 0.82168 0.9301 0.0
C176 C 0.98002 0.78662 0.93972 0.0
C177 C 0.95494 0.75841 0.94898 0.0
C178 C 0.91698 0.76601 0.94926 0.0
C179 C 0.76793 0.9071 0.95485 0.0
H180 H 0.94632 0.89025 0.74664 0.0
H181 H 0.92877 0.86922 0.80779 0.0
H182 H 0.91848 0.98265 0.84449 0.0
H183 H 0.9362 0.00373 0.78281 0.0
H184 H 0.95175 0.86782 0.87016 0.0
H185 H 0.86491 0.94853 0.87188 0.0
H186 H 0.87338 0.86933 0.95918 0.0
H187 H 0.80986 0.86743 0.94344 0.0
H188 H 0.83879 0.98193 0.92501 0.0
H189 H 0.77616 0.00022 0.94347 0.0
H190 H 0.8746 0.80544 0.93914 0.0
H191 H 0.98696 0.84285 0.92253 0.0
H192 H 0.74839 0.8859 0.96305 0.0
H193 H 0.89711 0.74471 0.95638 0.0
H194 H 0.00944 0.78126 0.93893 0.0
C195 C 0.57514 0.03887 0.29022 0.0
C196 C 0.56734 0.06409 0.26205 0.0
C197 C 0.5839 0.05157 0.32569 0.0
C198 C 0.58481 0.08969 0.33356 0.0
C199 C 0.57671 0.11476 0.30531 0.0
C200 C 0.56811 0.1021 0.26998 0.0
C201 C 0.59588 0.1038 0.37044 0.0
C202 C 0.62708 0.08951 0.38818 0.0
C203 C 0.64088 0.10631 0.42042 0.0
C204 C 0.62272 0.13738 0.43513 0.0
C205 C 0.59144 0.152 0.41774 0.0
C206 C 0.57771 0.13439 0.38598 0.0
C207 C 0.57609 0.18815 0.42991 0.0
C208 C 0.57343 0.19752 0.46753 0.0
C209 C 0.56665 0.21476 0.40353 0.0
C210 C 0.55619 0.25022 0.41439 0.0
C211 C 0.55537 0.2601 0.45183 0.0
C212 C 0.67649 0.09387 0.43621 0.0
C213 C 0.68444 0.05602 0.43931 0.0
C214 C 0.70369 0.11991 0.44627 0.0
C215 C 0.73842 0.10837 0.45809 0.0
C216 C 0.74676 0.07058 0.45996 0.0
C217 C 0.71922 0.04448 0.45119 0.0
C218 C 0.56307 0.23322 0.4784 0.0
H219 H 0.57515 0.00941 0.28464 0.0
H220 H 0.59004 0.03163 0.34691 0.0
H221 H 0.57787 0.14431 0.31025 0.0
H222 H 0.56214 0.12209 0.24875 0.0
H223 H 0.64212 0.06686 0.37552 0.0
H224 H 0.5534 0.14527 0.37253 0.0
H225 H 0.63401 0.15118 0.45922 0.0
H226 H 0.58007 0.17751 0.48853 0.0
H227 H 0.56881 0.20877 0.37432 0.0
H228 H 0.54969 0.2703 0.3934 0.0
H229 H 0.66388 0.03534 0.4322 0.0
H230 H 0.69867 0.14927 0.44365 0.0
H231 H 0.56242 0.2402 0.50748 0.0
H232 H 0.72474 0.01515 0.45311 0.0
H233 H 0.75923 0.12904 0.46447 0.0
C234 C 0.26997 0.56411 0.10546 0.0
C235 C 0.2629 0.56285 0.06749 0.0
C236 C 0.30478 0.57419 0.11847 0.0
C237 C 0.33333 0.58328 0.09376 0.0
C238 C 0.32654 0.58108 0.05567 0.0
C239 C 0.29158 0.5709 0.04263 0.0
C240 C 0.36884 0.59792 0.10816 0.0
C241 C 0.38461 0.58267 0.13983 0.0
C242 C 0.41435 0.60018 0.15769 0.0
C243 C 0.42958 0.63241 0.14236 0.0
C244 C 0.41453 0.64769 0.11025 0.0
C245 C 0.38443 0.63002 0.09313 0.0
C246 C 0.4274 0.68426 0.09705 0.0
C247 C 0.4015 0.7115 0.08784 0.0
C248 C 0.46528 0.69282 0.09506 0.0
C249 C 0.47695 0.72803 0.08423 0.0
C250 C 0.45092 0.75526 0.07542 0.0
C251 C 0.42645 0.58722 0.19444 0.0
C252 C 0.39994 0.57635 0.22066 0.0
C253 C 0.464 0.58722 0.20431 0.0
C254 C 0.4747 0.57684 0.23977 0.0
C255 C 0.44804 0.56628 0.26593 0.0
C256 C 0.41063 0.56595 0.25593 0.0
C257 C 0.41314 0.7466 0.07719 0.0
H258 H 0.2483 0.55791 0.12515 0.0
H259 H 0.30887 0.57624 0.14798 0.0
H260 H 0.34805 0.58783 0.036 0.0
H261 H 0.28665 0.57048 0.0132 0.0
H262 H 0.37283 0.55769 0.15135 0.0
H263 H 0.37196 0.64236 0.06907 0.0
H264 H 0.45145 0.64704 0.15678 0.0
H265 H 0.37211 0.706 0.08975 0.0
H266 H 0.48582 0.67234 0.102 0.0
H267 H 0.50625 0.73424 0.08353 0.0
H268 H 0.37073 0.57677 0.21429 0.0
H269 H 0.48505 0.59541 0.1847 0.0
H270 H 0.39255 0.76714 0.07052 0.0
H271 H 0.38953 0.55788 0.27556 0.0
H272 H 0.50371 0.57788 0.24698 0.0
C273 C 0.09098 0.27221 0.56173 0.0
C274 C 0.0553 0.26096 0.57211 0.0
C275 C 0.10322 0.3081 0.56892 0.0
C276 C 0.07968 0.33427 0.58554 0.0
C277 C 0.04308 0.32362 0.59372 0.0
C278 C 0.0311 0.28729 0.5873 0.0
C279 C 0.09443 0.37125 0.5969 0.0
C280 C 0.1235 0.38785 0.57711 0.0
C281 C 0.14273 0.4185 0.5915 0.0
C282 C 0.13033 0.43479 0.6245 0.0
C283 C 0.10049 0.41957 0.64408 0.0
C284 C 0.08284 0.38775 0.63018 0.0
C285 C 0.09053 0.43406 0.68119 0.0
C286 C 0.11838 0.44351 0.70656 0.0
C287 C 0.05335 0.43648 0.6923 0.0
C288 C 0.04429 0.44701 0.72835 0.0
C289 C 0.07226 0.4551 0.75395 0.0
C290 C 0.17888 0.4298 0.57544 0.0
C291 C 0.20411 0.40258 0.5638 0.0
C292 C 0.19018 0.46708 0.57536 0.0
C293 C 0.22647 0.47662 0.56583 0.0
C294 C 0.25207 0.44906 0.55631 0.0
C295 C 0.24019 0.41214 0.55416 0.0
C296 C 0.10931 0.45407 0.74249 0.0
H297 H 0.10988 0.25302 0.54864 0.0
H298 H 0.13172 0.31465 0.56258 0.0
H299 H 0.02382 0.34311 0.60577 0.0
H300 H 0.00325 0.27956 0.59518 0.0
H301 H 0.1324 0.37598 0.5511 0.0
H302 H 0.0618 0.37443 0.64675 0.0
H303 H 0.14515 0.45822 0.63605 0.0
H304 H 0.1473 0.44152 0.69911 0.0
H305 H 0.0313 0.42971 0.67325 0.0
H306 H 0.0155 0.44771 0.73655 0.0
H307 H 0.19665 0.37356 0.56389 0.0
H308 H 0.17132 0.48876 0.58371 0.0
H309 H 0.13136 0.46081 0.76155 0.0
H310 H 0.25921 0.39046 0.54613 0.0
H311 H 0.23493 0.50535 0.56743 0.0
O312 O 0.98447 0.09392 0.55062 0.0
Zn313 Zn 0.96501 0.04155 0.54458 0.0
O314 O 0.9976 0.01213 0.51237 0.0
Zn315 Zn 0.97087 0.99743 0.46804 0.0
Zn316 Zn 0.04101 0.04118 0.49889 0.0
Zn317 Zn 0.01402 0.96776 0.5375 0.0
O318 O 0.96832 0.94221 0.4625 0.0
O319 O 0.99559 0.9214 0.51277 0.0
O320 O 0.9133 0.04439 0.52374 0.0
O321 O 0.91859 0.01524 0.47004 0.0
O322 O 0.99466 0.01807 0.42254 0.0
O323 O 0.04325 0.04879 0.44407 0.0
O324 O 0.08849 0.01707 0.51441 0.0
O325 O 0.96215 0.01885 0.59544 0.0
O326 O 0.06929 0.96438 0.53891 0.0
O327 O 0.9964 0.96832 0.58975 0.0
C328 C 0.01521 0.10855 0.54153 0.0
C329 C 0.97864 0.91552 0.48262 0.0
C330 C 0.02323 0.03797 0.41723 0.0
C331 C 0.89923 0.03283 0.49359 0.0
C332 C 0.09523 0.98611 0.52932 0.0
C333 C 0.97649 0.98992 0.60916 0.0
O334 O 0.03934 0.09096 0.52296 0.0
O335 O 0.499 0.08627 0.97693 0.0
Zn336 Zn 0.4773 0.03535 0.98206 0.0
O337 O 0.5084 0.00431 0.01307 0.0
Zn338 Zn 0.52447 0.96134 0.98467 0.0
Zn339 Zn 0.5516 0.03254 0.02975 0.0
Zn340 Zn 0.48015 0.98754 0.05569 0.0
O341 O 0.50876 0.91359 0.00822 0.0
O342 O 0.47701 0.93217 0.05718 0.0
O343 O 0.47178 0.01385 0.93098 0.0
O344 O 0.50394 0.96199 0.93343 0.0
O345 O 0.5794 0.96093 0.97966 0.0
O346 O 0.59911 0.00999 0.01096 0.0
O347 O 0.55372 0.03501 0.08519 0.0
O348 O 0.42642 0.04081 0.00377 0.0
O349 O 0.50362 0.00451 0.10308 0.0
O350 O 0.42833 0.00718 0.05457 0.0
C351 C 0.52764 0.10202 0.99006 0.0
C352 C 0.48982 0.90636 0.03688 0.0
C353 C 0.60556 0.98159 0.99102 0.0
C354 C 0.48388 0.98448 0.91571 0.0
C355 C 0.53278 0.0228 0.11066 0.0
C356 C 0.41091 0.02803 0.03252 0.0
O357 O 0.54976 0.08472 0.01097 0.0
O358 O 0.54203 0.52066 0.59746 0.0
Zn359 Zn 0.53643 0.54269 0.54689 0.0
O360 O 0.50524 0.51089 0.51567 0.0
Zn361 Zn 0.53378 0.49379 0.47342 0.0
Zn362 Zn 0.48797 0.46804 0.54352 0.0
Zn363 Zn 0.46276 0.53869 0.49805 0.0
O364 O 0.51221 0.51074 0.42556 0.0
O365 O 0.46307 0.54284 0.44283 0.0
O366 O 0.58776 0.54866 0.52529 0.0
O367 O 0.58556 0.51277 0.47554 0.0
O368 O 0.53673 0.43876 0.47187 0.0
O369 O 0.50522 0.41991 0.5207 0.0
O370 O 0.43249 0.46653 0.5458 0.0
O371 O 0.51389 0.59339 0.55305 0.0
O372 O 0.4147 0.5148 0.51316 0.0
O373 O 0.46319 0.59014 0.51892 0.0
C374 C 0.52871 0.49196 0.61279 0.0
C375 C 0.48422 0.53025 0.41766 0.0
C376 C 0.52463 0.4129 0.49219 0.0
C377 C 0.60321 0.53441 0.49701 0.0
C378 C 0.40702 0.4865 0.53242 0.0
C379 C 0.48476 0.60812 0.54022 0.0
O380 O 0.50732 0.46996 0.59535 0.0
O381 O 0.97774 0.49888 0.08702 0.0
Zn382 Zn 0.9825 0.4776 0.03591 0.0
O383 O 0.01342 0.50906 0.00477 0.0
Zn384 Zn 0.98516 0.52596 0.96221 0.0
Zn385 Zn 0.03082 0.55162 0.03349 0.0
Zn386 Zn 0.05571 0.48077 0.98739 0.0
O387 O 0.00749 0.50824 0.91408 0.0
O388 O 0.05676 0.47737 0.9325 0.0
O389 O 0.93132 0.47312 0.01502 0.0
O390 O 0.93281 0.507 0.96439 0.0
O391 O 0.98321 0.58147 0.96122 0.0
O392 O 0.01493 0.59941 0.01046 0.0
O393 O 0.08624 0.55216 0.03682 0.0
O394 O 0.00332 0.42615 0.04034 0.0
O395 O 0.10361 0.5032 0.00417 0.0
O396 O 0.05396 0.42891 0.00596 0.0
C397 C 0.99022 0.52791 0.10274 0.0
C398 C 0.03606 0.48901 0.90688 0.0
C399 C 0.99618 0.607 0.98188 0.0
C400 C 0.9154 0.4863 0.98681 0.0
C401 C 0.11152 0.53142 0.02376 0.0
C402 C 0.03186 0.41093 0.02646 0.0
O403 O 0.01068 0.55063 0.08533 0.0
C404 C 0.07261 0.08586 0.33839 0.0
C405 C 0.05645 0.06984 0.30689 0.0
C406 C 0.06146 0.07555 0.3738 0.0
C407 C 0.03364 0.04878 0.3792 0.0
H408 H 0.09405 0.10667 0.33565 0.0
H409 H 0.07487 0.08877 0.39711 0.0
S410 S 0.98325 0.99783 0.30538 0.0
N411 N 0.01182 0.02546 0.28304 0.0
N412 N 0.99038 0.00618 0.34959 0.0
C413 C 0.01705 0.03268 0.34779 0.0
C414 C 0.02853 0.0432 0.31167 0.0
C415 C 0.43926 0.99224 0.82136 0.0
C416 C 0.4522 0.96073 0.80258 0.0
C417 C 0.45006 -8e-05 0.85767 0.0
C418 C 0.47406 0.97622 0.87675 0.0
H419 H 0.42049 0.01108 0.80791 0.0
H420 H 0.4391 0.02446 0.87093 0.0
S421 S 0.51541 0.88967 0.83952 0.0
N422 N 0.48995 0.90546 0.80548 0.0
N423 N 0.51069 0.91984 0.87354 0.0
C424 C 0.4875 0.94472 0.85799 0.0
C425 C 0.4765 0.93701 0.82097 0.0
C426 C 0.52922 0.44498 0.70595 0.0
C427 C 0.56008 0.46073 0.72362 0.0
C428 C 0.5189 0.45588 0.67053 0.0
C429 C 0.53899 0.48305 0.65129 0.0
H430 H 0.51305 0.42377 0.71952 0.0
H431 H 0.49512 0.44255 0.65805 0.0
S432 S 0.62228 0.53279 0.68552 0.0
N433 N 0.6108 0.50476 0.7194 0.0
N434 N 0.5912 0.52577 0.65297 0.0
C435 C 0.56952 0.49964 0.66901 0.0
C436 C 0.58009 0.48837 0.70512 0.0
C437 C 0.97908 0.57967 0.19368 0.0
C438 C 0.95745 0.55542 0.21483 0.0
C439 C 0.99004 0.57025 0.15777 0.0
C440 C 0.97989 0.53612 0.14163 0.0
H441 H 0.98672 0.60659 0.20458 0.0
H442 H 0.00602 0.59029 0.14237 0.0
S443 S 0.92627 0.46145 0.18743 0.0
N444 N 0.92834 0.49498 0.21848 0.0
N445 N 0.9488 0.47697 0.15104 0.0
C446 C 0.95922 0.5111 0.16315 0.0
C447 C 0.94802 0.52083 0.19969 0.0
C448 C 0.31664 0.02809 0.07854 0.0
C449 C 0.29856 0.05787 0.06181 0.0
C450 C 0.35265 0.01832 0.06841 0.0
C451 C 0.37207 0.03795 0.04109 0.0
H452 H 0.30291 0.01234 0.0999 0.0
H453 H 0.3654 0.99532 0.08239 0.0
S454 S 0.33697 0.11863 0.98915 0.0
N455 N 0.30262 0.1072 0.01688 0.0
N456 N 0.37018 0.08866 0.99732 0.0
C457 C 0.354 0.06746 0.02364 0.0
C458 C 0.31729 0.07745 0.03411 0.0
C459 C 0.19615 0.99417 0.55604 0.0
C460 C 0.20734 0.95709 0.55728 0.0
C461 C 0.16007 0.00343 0.54568 0.0
C462 C 0.13387 0.97581 0.53713 0.0
H463 H 0.2153 0.01606 0.56351 0.0
H464 H 0.15234 0.03233 0.54558 0.0
S465 S 0.15032 0.87461 0.53547 0.0
N466 N 0.19033 0.89274 0.54812 0.0
N467 N 0.12218 0.90988 0.52946 0.0
C468 C 0.14505 0.93862 0.53784 0.0
C469 C 0.18193 0.92932 0.54771 0.0
C470 C 0.8226 0.47996 0.93826 0.0
C471 C 0.8023 0.45574 0.96068 0.0
C472 C 0.85886 0.49015 0.94729 0.0
C473 C 0.87618 0.47663 0.97921 0.0
H474 H 0.81077 0.49022 0.91293 0.0
H475 H 0.87357 0.50827 0.92866 0.0
S476 S 0.83295 0.41506 0.04886 0.0
N477 N 0.8007 0.42046 0.0173 0.0
N478 N 0.86883 0.4394 0.03455 0.0
C479 C 0.85549 0.45335 0.00256 0.0
C480 C 0.8186 0.44293 0.99322 0.0
C481 C 0.69735 0.5294 0.45127 0.0
C482 C 0.71573 0.56087 0.46499 0.0
C483 C 0.66138 0.52075 0.46252 0.0
C484 C 0.64227 0.54318 0.48804 0.0
H485 H 0.71074 0.51149 0.43129 0.0
H486 H 0.64836 0.49639 0.45071 0.0
S487 S 0.67841 0.62871 0.53251 0.0
N488 N 0.71245 0.61455 0.50559 0.0
N489 N 0.64488 0.59803 0.52727 0.0
C490 C 0.66072 0.57426 0.50278 0.0
C491 C 0.69743 0.58316 0.49114 0.0
C492 C 0.03464 0.31961 0.07726 0.0
C493 C 0.06029 0.29896 0.05658 0.0
C494 C 0.02479 0.35545 0.06678 0.0
C495 C 0.04033 0.37195 0.03529 0.0
H496 H 0.02305 0.30849 0.10242 0.0
H497 H 0.00573 0.37071 0.08416 0.0
S498 S 0.10513 0.32731 0.96918 0.0
N499 N 0.09828 0.29598 0.00135 0.0
N500 N 0.08015 0.36339 0.98169 0.0
C501 C 0.06484 0.35088 0.01352 0.0
C502 C 0.07473 0.31439 0.02416 0.0
C503 C 0.5738 0.19643 0.98988 0.0
C504 C 0.5571 0.21425 0.95996 0.0
C505 C 0.56356 0.16049 -0.00022 0.0
C506 C 0.53614 0.14089 0.98019 0.0
H507 H 0.59524 0.21029 0.0056 0.0
H508 H 0.57757 0.14792 0.02282 0.0
S509 S 0.48403 0.17536 0.89937 0.0
N510 N 0.51196 0.20979 0.91066 0.0
N511 N 0.49216 0.1424 0.92947 0.0
C512 C 0.51864 0.15875 0.95061 0.0
C513 C 0.52923 0.19537 0.94047 0.0
C514 C 0.935 0.8351 0.43073 0.0
C515 C 0.94979 0.80398 0.44821 0.0
C516 C 0.94493 0.87091 0.44174 0.0
C517 C 0.96986 0.87708 0.47092 0.0
H518 H 0.91555 0.83172 0.40829 0.0
H519 H 0.93249 0.89391 0.42749 0.0
S520 S 0.01655 0.80445 0.52552 0.0
N521 N 0.99062 0.78125 0.49589 0.0
N522 N 0.00962 0.84859 0.51671 0.0
C523 C 0.98515 0.84604 0.48844 0.0
C524 C 0.9751 0.80951 0.47702 0.0
C525 C 0.43567 0.70061 0.54082 0.0
C526 C 0.4519 0.71956 0.57063 0.0
C527 C 0.44696 0.66495 0.53094 0.0
C528 C 0.47502 0.6467 0.55045 0.0
H529 H 0.4139 0.71344 0.52501 0.0
H530 H 0.43333 0.65156 0.50786 0.0
S531 S 0.5261 0.68438 0.63119 0.0
N532 N 0.49718 0.71758 0.61991 0.0
N533 N 0.51889 0.65061 0.60116 0.0
C534 C 0.49193 0.66562 0.58006 0.0
C535 C 0.48028 0.70201 0.59017 0.0
C536 C 0.93149 0.98641 0.70389 0.0
C537 C 0.95365 0.96096 0.72276 0.0
C538 C 0.93942 0.99621 0.66737 0.0
C539 C 0.96975 0.98082 0.6484 0.0
H540 H 0.90724 0.99801 0.71709 0.0
H541 H 0.92109 0.01526 0.65366 0.0
S542 S 0.03885 0.91634 0.68739 0.0
N543 N 0.00895 0.92316 0.72115 0.0
N544 N 0.02381 0.94115 0.65256 0.0
C545 C 0.99288 0.95635 0.66755 0.0
C546 C 0.98484 0.94653 0.70469 0.0
C547 C 0.57869 0.06668 0.19427 0.0
C548 C 0.55922 0.0513 0.22404 0.0
C549 C 0.5704 0.05671 0.15788 0.0
C550 C 0.54206 0.03114 0.14972 0.0
H551 H 0.60047 0.08676 0.19917 0.0
H552 H 0.58602 0.06973 0.13599 0.0
S553 S 0.48326 0.98249 0.2183 0.0
N554 N 0.5108 0.009 0.24339 0.0
N555 N 0.49506 0.98994 0.175 0.0
C556 C 0.52273 0.01508 0.17944 0.0
C557 C 0.53139 0.02519 0.21656 0.0
C558 C 0.43988 0.5736 0.33386 0.0
C559 C 0.45864 0.55698 0.30414 0.0
C560 C 0.44843 0.56478 0.3703 0.0
C561 C 0.47614 0.53895 0.37858 0.0
H562 H 0.41846 0.59379 0.32891 0.0
H563 H 0.43314 0.57851 0.39212 0.0
S564 S 0.53268 0.4868 0.31027 0.0
N565 N 0.50553 0.51296 0.28502 0.0
N566 N 0.52206 0.49641 0.35356 0.0
C567 C 0.49523 0.52213 0.34898 0.0
C568 C 0.48641 0.53117 0.31179 0.0
C569 C 0.03671 0.49022 0.80203 0.0
C570 C 0.063 0.46313 0.79297 0.0
C571 C 0.02805 0.49838 0.8389 0.0
C572 C 0.04535 0.47968 0.86804 0.0
H573 H 0.02309 0.50555 0.78046 0.0
H574 H 0.00791 0.51977 0.84453 0.0
S575 S 0.11382 0.40383 0.85842 0.0
N576 N 0.10451 0.41594 0.81569 0.0
N577 N 0.08864 0.43121 0.88489 0.0
C578 C 0.07123 0.45195 0.85916 0.0
C579 C 0.07995 0.4437 0.82167 0.0
C580 C 0.71071 0.98177 0.98895 0.0
C581 C 0.71877 0.95463 0.96227 0.0
C582 C 0.67403 0.9905 0.99799 0.0
C583 C 0.64415 0.97245 0.98055 0.0
H584 H 0.73289 0.99582 0.00344 0.0
H585 H 0.66915 0.01122 0.01913 0.0
S586 S 0.65117 0.90174 0.90595 0.0
N587 N 0.6944 0.91163 0.91664 0.0
N588 N 0.62558 0.92767 0.93347 0.0
C589 C 0.65208 0.94588 0.95305 0.0
C590 C 0.68934 0.93708 0.94394 0.0
C591 C 0.80269 0.07363 0.50038 0.0
C592 C 0.78476 0.05875 0.46927 0.0
C593 C 0.83942 0.06457 0.50839 0.0
C594 C 0.85977 0.04054 0.48539 0.0
H595 H 0.78825 0.09258 0.51858 0.0
H596 H 0.85205 0.07705 0.53251 0.0
S597 S 0.82505 0.99425 0.40031 0.0
N598 N 0.78979 0.01898 0.41529 0.0
N599 N 0.85858 0.00154 0.43027 0.0
C600 C 0.84184 0.02512 0.45436 0.0
C601 C 0.80442 0.03429 0.44635 0.0
C602 C 0.19531 0.57527 0.06922 0.0
C603 C 0.22498 0.55511 0.05436 0.0
C604 C 0.15893 0.56784 0.05857 0.0
C605 C 0.15068 0.53974 0.03277 0.0
H606 H 0.20027 0.597 0.08935 0.0
H607 H 0.1371 0.584 0.07119 0.0
S608 S 0.21906 0.47935 0.98531 0.0
N609 N 0.24424 0.5063 0.01234 0.0
N610 N 0.17579 0.49213 0.99197 0.0
C611 C 0.18033 0.51969 0.01724 0.0
C612 C 0.21748 0.52747 0.02807 0.0
C613 C 0.302 0.48666 0.52641 0.0
C614 C 0.29159 0.45838 0.55068 0.0
C615 C 0.33932 0.49555 0.52071 0.0
C616 C 0.36768 0.47661 0.53922 0.0
H617 H 0.28114 0.50171 0.51138 0.0
H618 H 0.34592 0.51734 0.50144 0.0
S619 S 0.35434 0.40205 0.608 0.0
N620 N 0.31213 0.41284 0.59494 0.0
N621 N 0.38219 0.42916 0.58422 0.0
C622 C 0.35742 0.4486 0.56408 0.0
C623 C 0.31944 0.4396 0.56981 0.0
C624 C 0.95177 0.69045 0.93774 0.0
C625 C 0.96773 0.72045 0.95675 0.0
C626 C 0.96176 0.65406 0.94558 0.0
C627 C 0.98796 0.64612 0.97301 0.0
H628 H 0.9312 0.69515 0.91666 0.0
H629 H 0.94823 0.632 0.93036 0.0
S630 S 0.03848 0.71539 0.03016 0.0
N631 N 0.01139 0.74032 0.00363 0.0
N632 N 0.03049 0.67185 0.01858 0.0
C633 C 0.00466 0.67607 0.99184 0.0
C634 C 0.99453 0.71323 0.98362 0.0
C635 C 0.44707 0.82347 0.08453 0.0
C636 C 0.46266 0.79321 0.06576 0.0
C637 C 0.45646 0.85978 0.07528 0.0
C638 C 0.48167 0.86736 0.04664 0.0
H639 H 0.42738 0.81904 0.10663 0.0
H640 H 0.4434 0.88204 0.09053 0.0
S641 S 0.53034 0.79733 0.98906 0.0
N642 N 0.50453 0.77274 0.01745 0.0
N643 N 0.52248 0.84103 -0.00017 0.0
C644 C 0.49778 0.83717 0.02783 0.0
C645 C 0.48826 0.80011 0.03748 0.0
C646 C 0.00908 0.21254 0.55252 0.0
C647 C 0.04386 0.22166 0.56751 0.0
C648 C -0.00089 0.17558 0.54555 0.0
C649 C 0.02382 0.14673 0.55288 0.0
H650 H 0.98993 0.23412 0.54501 0.0
H651 H 0.9726 0.16967 0.53297 0.0
S652 S 0.11562 0.15508 0.59709 0.0
N653 N 0.10091 0.19807 0.59377 0.0
N654 N 0.08277 0.12901 0.57886 0.0
C655 C 0.0579 0.15525 0.56918 0.0
C656 C 0.06777 0.19262 0.57697 0.0
C657 C 0.52135 0.30773 0.48913 0.0
C658 C 0.5485 0.29899 0.46276 0.0
C659 C 0.51393 0.34462 0.49874 0.0
C660 C 0.53348 0.37403 0.48235 0.0
H661 H 0.5053 0.28595 0.50192 0.0
H662 H 0.49237 0.35008 0.51879 0.0
S663 S 0.61011 0.36506 0.41446 0.0
N664 N 0.59687 0.32216 0.42245 0.0
N665 N 0.583 0.39135 0.44011 0.0
C666 C 0.56143 0.36539 0.4566 0.0
C667 C 0.56892 0.32793 0.44693 0.0
loop_
_geom_bond_atom_site_label_1
_geom_bond_atom_site_label_2
_geom_bond_distance
_geom_bond_site_symmetry_2
_ccdc_geom_bond_type
C0 C1 1.386 . S
C0 C2 1.397 . S
C0 H24 0.931 . S
C1 C0 1.386 . S
C1 C5 1.397 . S
C2 C0 1.397 . S
C2 C3 1.384 . S
C2 H25 0.930 . S
C3 C2 1.384 . S
C3 C4 1.377 . S
C3 C6 1.481 . S
C4 C3 1.377 . S
C4 C5 1.389 . S
C4 H26 0.929 . S
C5 C1 1.397 . S
C5 C4 1.389 . S
C5 H27 0.931 . S
C6 C3 1.481 . S
C6 C7 1.387 . S
C6 C11 1.390 . S
C7 C6 1.387 . S
C7 C8 1.401 . S
C7 H28 0.930 . S
C8 C7 1.401 . S
C8 C9 1.376 . S
C8 C17 1.511 . S
C9 C8 1.376 . S
C9 C10 1.392 . S
C9 H30 0.931 . S
C10 C9 1.392 . S
C10 C11 1.361 . S
C10 C12 1.500 . S
C11 C6 1.390 . S
C11 C10 1.361 . S
C11 H29 0.931 . S
C12 C10 1.500 . S
C12 C13 1.371 . S
C12 C14 1.365 . S
C13 C12 1.371 . S
C13 C23 1.386 . S
C13 H31 0.931 . S
C14 C12 1.365 . S
C14 C15 1.409 . S
C14 H32 0.929 . S
C15 C14 1.409 . S
C15 C16 1.380 . S
C15 H33 0.930 . S
C16 C15 1.380 . S
C16 C23 1.357 . S
C17 C8 1.511 . S
C17 C18 1.341 . S
C17 C19 1.371 . S
C18 C17 1.341 . S
C18 C22 1.394 . S
C18 H34 0.930 . S
C19 C17 1.371 . S
C19 C20 1.392 . S
C19 H35 0.931 . S
C20 C19 1.392 . S
C20 C21 1.331 . S
C20 H38 0.932 . S
C21 C20 1.331 . S
C21 C22 1.336 . S
C22 C18 1.394 . S
C22 C21 1.336 . S
C22 H37 0.929 . S
C23 C13 1.386 . S
C23 C16 1.357 . S
C23 H36 0.928 . S
H24 C0 0.931 . S
H25 C2 0.930 . S
H26 C4 0.929 . S
H27 C5 0.931 . S
H28 C7 0.930 . S
H29 C11 0.931 . S
H30 C9 0.931 . S
H31 C13 0.931 . S
H32 C14 0.929 . S
H33 C15 0.930 . S
H34 C18 0.930 . S
H35 C19 0.931 . S
H36 C23 0.928 . S
H37 C22 0.929 . S
H38 C20 0.932 . S
C39 C40 1.386 . S
C39 C41 1.397 . S
C39 H63 0.931 . S
C40 C39 1.386 . S
C40 C44 1.397 . S
C41 C39 1.397 . S
C41 C42 1.384 . S
C41 H64 0.930 . S
C42 C41 1.384 . S
C42 C43 1.377 . S
C42 C45 1.481 . S
C43 C42 1.377 . S
C43 C44 1.389 . S
C43 H65 0.929 . S
C44 C40 1.397 . S
C44 C43 1.389 . S
C44 H66 0.931 . S
C45 C42 1.481 . S
C45 C46 1.387 . S
C45 C50 1.390 . S
C46 C45 1.387 . S
C46 C47 1.401 . S
C46 H67 0.930 . S
C47 C46 1.401 . S
C47 C48 1.376 . S
C47 C56 1.511 . S
C48 C47 1.376 . S
C48 C49 1.392 . S
C48 H69 0.931 . S
C49 C48 1.392 . S
C49 C50 1.361 . S
C49 C51 1.500 . S
C50 C45 1.390 . S
C50 C49 1.361 . S
C50 H68 0.931 . S
C51 C49 1.500 . S
C51 C52 1.371 . S
C51 C53 1.365 . S
C52 C51 1.371 . S
C52 C62 1.386 . S
C52 H70 0.931 . S
C53 C51 1.365 . S
C53 C54 1.409 . S
C53 H71 0.929 . S
C54 C53 1.409 . S
C54 C55 1.380 . S
C54 H72 0.930 . S
C55 C54 1.380 . S
C55 C62 1.357 . S
C56 C47 1.511 . S
C56 C57 1.341 . S
C56 C58 1.371 . S
C57 C56 1.341 . S
C57 C61 1.394 . S
C57 H73 0.930 . S
C58 C56 1.371 . S
C58 C59 1.392 . S
C58 H74 0.931 . S
C59 C58 1.392 . S
C59 C60 1.331 . S
C59 H77 0.932 . S
C60 C59 1.331 . S
C60 C61 1.336 . S
C61 C57 1.394 . S
C61 C60 1.336 . S
C61 H76 0.929 . S
C62 C52 1.386 . S
C62 C55 1.357 . S
C62 H75 0.928 . S
H63 C39 0.931 . S
H64 C41 0.930 . S
H65 C43 0.929 . S
H66 C44 0.931 . S
H67 C46 0.930 . S
H68 C50 0.931 . S
H69 C48 0.931 . S
H70 C52 0.931 . S
H71 C53 0.929 . S
H72 C54 0.930 . S
H73 C57 0.930 . S
H74 C58 0.931 . S
H75 C62 0.928 . S
H76 C61 0.929 . S
H77 C59 0.932 . S
C78 C79 1.386 . S
C78 C80 1.397 . S
C78 H102 0.931 . S
C79 C78 1.386 . S
C79 C83 1.397 . S
C80 C78 1.397 . S
C80 C81 1.384 . S
C80 H103 0.930 . S
C81 C80 1.384 . S
C81 C82 1.377 . S
C81 C84 1.481 . S
C82 C81 1.377 . S
C82 C83 1.389 . S
C82 H104 0.929 . S
C83 C79 1.397 . S
C83 C82 1.389 . S
C83 H105 0.931 . S
C84 C81 1.481 . S
C84 C85 1.387 . S
C84 C89 1.390 . S
C85 C84 1.387 . S
C85 C86 1.401 . S
C85 H106 0.930 . S
C86 C85 1.401 . S
C86 C87 1.376 . S
C86 C95 1.511 . S
C87 C86 1.376 . S
C87 C88 1.392 . S
C87 H108 0.931 . S
C88 C87 1.392 . S
C88 C89 1.361 . S
C88 C90 1.500 . S
C89 C84 1.390 . S
C89 C88 1.361 . S
C89 H107 0.931 . S
C90 C88 1.500 . S
C90 C91 1.371 . S
C90 C92 1.365 . S
C91 C90 1.371 . S
C91 C101 1.386 . S
C91 H109 0.931 . S
C92 C90 1.365 . S
C92 C93 1.409 . S
C92 H110 0.929 . S
C93 C92 1.409 . S
C93 C94 1.380 . S
C93 H111 0.930 . S
C94 C93 1.380 . S
C94 C101 1.357 . S
C95 C86 1.511 . S
C95 C96 1.341 . S
C95 C97 1.371 . S
C96 C95 1.341 . S
C96 C100 1.394 . S
C96 H112 0.930 . S
C97 C95 1.371 . S
C97 C98 1.392 . S
C97 H113 0.931 . S
C98 C97 1.392 . S
C98 C99 1.331 . S
C98 H116 0.932 . S
C99 C98 1.331 . S
C99 C100 1.336 . S
C100 C96 1.394 . S
C100 C99 1.336 . S
C100 H115 0.929 . S
C101 C91 1.386 . S
C101 C94 1.357 . S
C101 H114 0.928 . S
H102 C78 0.931 . S
H103 C80 0.930 . S
H104 C82 0.929 . S
H105 C83 0.931 . S
H106 C85 0.930 . S
H107 C89 0.931 . S
H108 C87 0.931 . S
H109 C91 0.931 . S
H110 C92 0.929 . S
H111 C93 0.930 . S
H112 C96 0.930 . S
H113 C97 0.931 . S
H114 C101 0.928 . S
H115 C100 0.929 . S
H116 C98 0.932 . S
C117 C118 1.386 . S
C117 C119 1.397 . S
C117 H141 0.931 . S
C118 C117 1.386 . S
C118 C122 1.397 . S
C119 C117 1.397 . S
C119 C120 1.384 . S
C119 H142 0.930 . S
C120 C119 1.384 . S
C120 C121 1.377 . S
C120 C123 1.481 . S
C121 C120 1.377 . S
C121 C122 1.389 . S
C121 H143 0.929 . S
C122 C118 1.397 . S
C122 C121 1.389 . S
C122 H144 0.931 . S
C123 C120 1.481 . S
C123 C124 1.387 . S
C123 C128 1.390 . S
C124 C123 1.387 . S
C124 C125 1.401 . S
C124 H145 0.930 . S
C125 C124 1.401 . S
C125 C126 1.376 . S
C125 C134 1.511 . S
C126 C125 1.376 . S
C126 C127 1.392 . S
C126 H147 0.931 . S
C127 C126 1.392 . S
C127 C128 1.361 . S
C127 C129 1.500 . S
C128 C123 1.390 . S
C128 C127 1.361 . S
C128 H146 0.931 . S
C129 C127 1.500 . S
C129 C130 1.371 . S
C129 C131 1.365 . S
C130 C129 1.371 . S
C130 C140 1.386 . S
C130 H148 0.931 . S
C131 C129 1.365 . S
C131 C132 1.409 . S
C131 H149 0.929 . S
C132 C131 1.409 . S
C132 C133 1.380 . S
C132 H150 0.930 . S
C133 C132 1.380 . S
C133 C140 1.357 . S
C134 C125 1.511 . S
C134 C135 1.341 . S
C134 C136 1.371 . S
C135 C134 1.341 . S
C135 C139 1.394 . S
C135 H151 0.930 . S
C136 C134 1.371 . S
C136 C137 1.392 . S
C136 H152 0.931 . S
C137 C136 1.392 . S
C137 C138 1.331 . S
C137 H155 0.932 . S
C138 C137 1.331 . S
C138 C139 1.336 . S
C139 C135 1.394 . S
C139 C138 1.336 . S
C139 H154 0.929 . S
C140 C130 1.386 . S
C140 C133 1.357 . S
C140 H153 0.928 . S
H141 C117 0.931 . S
H142 C119 0.930 . S
H143 C121 0.929 . S
H144 C122 0.931 . S
H145 C124 0.930 . S
H146 C128 0.931 . S
H147 C126 0.931 . S
H148 C130 0.931 . S
H149 C131 0.929 . S
H150 C132 0.930 . S
H151 C135 0.930 . S
H152 C136 0.931 . S
H153 C140 0.928 . S
H154 C139 0.929 . S
H155 C137 0.932 . S
C156 C157 1.386 . S
C156 C158 1.397 . S
C156 H180 0.931 . S
C157 C156 1.386 . S
C157 C161 1.397 1_565 S
C158 C156 1.397 . S
C158 C159 1.384 . S
C158 H181 0.930 . S
C159 C158 1.384 . S
C159 C160 1.377 . S
C159 C162 1.481 . S
C160 C159 1.377 . S
C160 C161 1.389 1_565 S
C160 H182 0.929 1_565 S
C161 C157 1.397 1_545 S
C161 C160 1.389 1_545 S
C161 H183 0.931 . S
C162 C159 1.481 . S
C162 C163 1.387 . S
C162 C167 1.390 . S
C163 C162 1.387 . S
C163 C164 1.401 . S
C163 H184 0.930 . S
C164 C163 1.401 . S
C164 C165 1.376 . S
C164 C173 1.511 . S
C165 C164 1.376 . S
C165 C166 1.392 . S
C165 H186 0.931 . S
C166 C165 1.392 . S
C166 C167 1.361 . S
C166 C168 1.500 . S
C167 C162 1.390 . S
C167 C166 1.361 . S
C167 H185 0.931 . S
C168 C166 1.500 . S
C168 C169 1.371 . S
C168 C170 1.365 . S
C169 C168 1.371 . S
C169 C179 1.386 . S
C169 H187 0.931 . S
C170 C168 1.365 . S
C170 C171 1.409 1_565 S
C170 H188 0.929 1_565 S
C171 C170 1.409 1_545 S
C171 C172 1.380 1_545 S
C171 H189 0.930 . S
C172 C171 1.380 1_565 S
C172 C179 1.357 . S
C173 C164 1.511 . S
C173 C174 1.341 . S
C173 C175 1.371 . S
C174 C173 1.341 . S
C174 C178 1.394 . S
C174 H190 0.930 . S
C175 C173 1.371 . S
C175 C176 1.392 . S
C175 H191 0.931 . S
C176 C175 1.392 . S
C176 C177 1.331 . S
C176 H194 0.932 1_556 S
C177 C176 1.331 . S
C177 C178 1.336 . S
C178 C174 1.394 . S
C178 C177 1.336 . S
C178 H193 0.929 . S
C179 C169 1.386 . S
C179 C172 1.357 . S
C179 H192 0.928 . S
H180 C156 0.931 . S
H181 C158 0.930 . S
H182 C160 0.929 1_545 S
H183 C161 0.931 . S
H184 C163 0.930 . S
H185 C167 0.931 . S
H186 C165 0.931 . S
H187 C169 0.931 . S
H188 C170 0.929 1_545 S
H189 C171 0.930 . S
H190 C174 0.930 . S
H191 C175 0.931 . S
H192 C179 0.928 . S
H193 C178 0.929 . S
H194 C176 0.932 1_554 S
C195 C196 1.386 . S
C195 C197 1.397 . S
C195 H219 0.931 1_545 S
C196 C195 1.386 . S
C196 C200 1.397 . S
C197 C195 1.397 . S
C197 C198 1.384 . S
C197 H220 0.930 . S
C198 C197 1.384 . S
C198 C199 1.377 . S
C198 C201 1.481 . S
C199 C198 1.377 . S
C199 C200 1.389 . S
C199 H221 0.929 . S
C200 C196 1.397 . S
C200 C199 1.389 . S
C200 H222 0.931 . S
C201 C198 1.481 . S
C201 C202 1.387 . S
C201 C206 1.390 . S
C202 C201 1.387 . S
C202 C203 1.401 . S
C202 H223 0.930 . S
C203 C202 1.401 . S
C203 C204 1.376 . S
C203 C212 1.511 . S
C204 C203 1.376 . S
C204 C205 1.392 . S
C204 H225 0.931 . S
C205 C204 1.392 . S
C205 C206 1.361 . S
C205 C207 1.500 . S
C206 C201 1.390 . S
C206 C205 1.361 . S
C206 H224 0.931 . S
C207 C205 1.500 . S
C207 C208 1.371 . S
C207 C209 1.365 . S
C208 C207 1.371 . S
C208 C218 1.386 . S
C208 H226 0.931 . S
C209 C207 1.365 . S
C209 C210 1.409 . S
C209 H227 0.929 . S
C210 C209 1.409 . S
C210 C211 1.380 . S
C210 H228 0.930 . S
C211 C210 1.380 . S
C211 C218 1.357 . S
C212 C203 1.511 . S
C212 C213 1.341 . S
C212 C214 1.371 . S
C213 C212 1.341 . S
C213 C217 1.394 . S
C213 H229 0.930 . S
C214 C212 1.371 . S
C214 C215 1.392 . S
C214 H230 0.931 . S
C215 C214 1.392 . S
C215 C216 1.331 . S
C215 H233 0.932 . S
C216 C215 1.331 . S
C216 C217 1.336 . S
C217 C213 1.394 . S
C217 C216 1.336 . S
C217 H232 0.929 1_545 S
C218 C208 1.386 . S
C218 C211 1.357 . S
C218 H231 0.928 . S
H219 C195 0.931 1_565 S
H220 C197 0.930 . S
H221 C199 0.929 . S
H222 C200 0.931 . S
H223 C202 0.930 . S
H224 C206 0.931 . S
H225 C204 0.931 . S
H226 C208 0.931 . S
H227 C209 0.929 . S
H228 C210 0.930 . S
H229 C213 0.930 . S
H230 C214 0.931 . S
H231 C218 0.928 . S
H232 C217 0.929 1_565 S
H233 C215 0.932 . S
C234 C235 1.386 . S
C234 C236 1.397 . S
C234 H258 0.931 . S
C235 C234 1.386 . S
C235 C239 1.397 . S
C236 C234 1.397 . S
C236 C237 1.384 . S
C236 H259 0.930 . S
C237 C236 1.384 . S
C237 C238 1.377 . S
C237 C240 1.481 . S
C238 C237 1.377 . S
C238 C239 1.389 . S
C238 H260 0.929 . S
C239 C235 1.397 . S
C239 C238 1.389 . S
C239 H261 0.931 1_554 S
C240 C237 1.481 . S
C240 C241 1.387 . S
C240 C245 1.390 . S
C241 C240 1.387 . S
C241 C242 1.401 . S
C241 H262 0.930 . S
C242 C241 1.401 . S
C242 C243 1.376 . S
C242 C251 1.511 . S
C243 C242 1.376 . S
C243 C244 1.392 . S
C243 H264 0.931 . S
C244 C243 1.392 . S
C244 C245 1.361 . S
C244 C246 1.500 . S
C245 C240 1.390 . S
C245 C244 1.361 . S
C245 H263 0.931 . S
C246 C244 1.500 . S
C246 C247 1.371 . S
C246 C248 1.365 . S
C247 C246 1.371 . S
C247 C257 1.386 . S
C247 H265 0.931 . S
C248 C246 1.365 . S
C248 C249 1.409 . S
C248 H266 0.929 . S
C249 C248 1.409 . S
C249 C250 1.380 . S
C249 H267 0.930 1_554 S
C250 C249 1.380 . S
C250 C257 1.357 . S
C251 C242 1.511 . S
C251 C252 1.341 . S
C251 C253 1.371 . S
C252 C251 1.341 . S
C252 C256 1.394 . S
C252 H268 0.930 . S
C253 C251 1.371 . S
C253 C254 1.392 . S
C253 H269 0.931 . S
C254 C253 1.392 . S
C254 C255 1.331 . S
C254 H272 0.932 . S
C255 C254 1.331 . S
C255 C256 1.336 . S
C256 C252 1.394 . S
C256 C255 1.336 . S
C256 H271 0.929 . S
C257 C247 1.386 . S
C257 C250 1.357 . S
C257 H270 0.928 . S
H258 C234 0.931 . S
H259 C236 0.930 . S
H260 C238 0.929 . S
H261 C239 0.931 1_556 S
H262 C241 0.930 . S
H263 C245 0.931 . S
H264 C243 0.931 . S
H265 C247 0.931 . S
H266 C248 0.929 . S
H267 C249 0.930 1_556 S
H268 C252 0.930 . S
H269 C253 0.931 . S
H270 C257 0.928 . S
H271 C256 0.929 . S
H272 C254 0.932 . S
C273 C274 1.386 . S
C273 C275 1.397 . S
C273 H297 0.931 . S
C274 C273 1.386 . S
C274 C278 1.397 . S
C275 C273 1.397 . S
C275 C276 1.384 . S
C275 H298 0.930 . S
C276 C275 1.384 . S
C276 C277 1.377 . S
C276 C279 1.481 . S
C277 C276 1.377 . S
C277 C278 1.389 . S
C277 H299 0.929 . S
C278 C274 1.397 . S
C278 C277 1.389 . S
C278 H300 0.931 . S
C279 C276 1.481 . S
C279 C280 1.387 . S
C279 C284 1.390 . S
C280 C279 1.387 . S
C280 C281 1.401 . S
C280 H301 0.930 . S
C281 C280 1.401 . S
C281 C282 1.376 . S
C281 C290 1.511 . S
C282 C281 1.376 . S
C282 C283 1.392 . S
C282 H303 0.931 . S
C283 C282 1.392 . S
C283 C284 1.361 . S
C283 C285 1.500 . S
C284 C279 1.390 . S
C284 C283 1.361 . S
C284 H302 0.931 . S
C285 C283 1.500 . S
C285 C286 1.371 . S
C285 C287 1.365 . S
C286 C285 1.371 . S
C286 C296 1.386 . S
C286 H304 0.931 . S
C287 C285 1.365 . S
C287 C288 1.409 . S
C287 H305 0.929 . S
C288 C287 1.409 . S
C288 C289 1.380 . S
C288 H306 0.930 . S
C289 C288 1.380 . S
C289 C296 1.357 . S
C290 C281 1.511 . S
C290 C291 1.341 . S
C290 C292 1.371 . S
C291 C290 1.341 . S
C291 C295 1.394 . S
C291 H307 0.930 . S
C292 C290 1.371 . S
C292 C293 1.392 . S
C292 H308 0.931 . S
C293 C292 1.392 . S
C293 C294 1.331 . S
C293 H311 0.932 . S
C294 C293 1.331 . S
C294 C295 1.336 . S
C295 C291 1.394 . S
C295 C294 1.336 . S
C295 H310 0.929 . S
C296 C286 1.386 . S
C296 C289 1.357 . S
C296 H309 0.928 . S
H297 C273 0.931 . S
H298 C275 0.930 . S
H299 C277 0.929 . S
H300 C278 0.931 . S
H301 C280 0.930 . S
H302 C284 0.931 . S
H303 C282 0.931 . S
H304 C286 0.931 . S
H305 C287 0.929 . S
H306 C288 0.930 . S
H307 C291 0.930 . S
H308 C292 0.931 . S
H309 C296 0.928 . S
H310 C295 0.929 . S
H311 C293 0.932 . S
O312 Zn313 1.953 . S
O312 C328 1.225 1_655 S
Zn313 O312 1.953 . S
Zn313 O314 1.949 1_655 S
Zn313 O320 1.919 . S
Zn313 O325 1.924 . S
O314 Zn313 1.949 1_455 S
O314 Zn315 1.923 1_445 S
O314 Zn316 1.950 . S
O314 Zn317 1.945 1_545 S
Zn315 O314 1.923 1_665 S
Zn315 O318 1.933 . S
Zn315 O321 1.941 1_565 S
Zn315 O322 1.965 1_665 S
Zn316 O314 1.950 . S
Zn316 O323 1.938 . S
Zn316 O324 1.900 1_545 S
Zn316 O334 1.953 . S
Zn317 O314 1.945 1_565 S
Zn317 O319 1.932 1_455 S
Zn317 O326 1.977 . S
Zn317 O327 1.910 1_455 S
O318 Zn315 1.933 . S
O318 C329 1.226 . S
O319 Zn317 1.932 1_655 S
O319 C329 1.307 . S
O320 Zn313 1.919 . S
O320 C331 1.253 . S
O321 Zn315 1.941 1_545 S
O321 C331 1.283 . S
O322 Zn315 1.965 1_445 S
O322 C330 1.303 . S
O323 Zn316 1.938 . S
O323 C330 1.247 . S
O324 Zn316 1.900 1_565 S
O324 C332 1.312 . S
O325 Zn313 1.924 . S
O325 C333 1.295 1_545 S
O326 Zn317 1.977 . S
O326 C332 1.272 . S
O327 Zn317 1.910 1_655 S
O327 C333 1.249 . S
C328 O312 1.225 1_455 S
C328 O334 1.298 . S
C329 O318 1.226 . S
C329 O319 1.307 . S
C330 O322 1.303 . S
C330 O323 1.247 . S
C331 O320 1.253 . S
C331 O321 1.283 . S
C332 O324 1.312 . S
C332 O326 1.272 . S
C333 O325 1.295 1_565 S
C333 O327 1.249 . S
O334 Zn316 1.953 . S
O334 C328 1.298 . S
O335 Zn336 1.953 . S
O335 C351 1.225 . S
Zn336 O335 1.953 . S
Zn336 O337 1.949 1_556 S
Zn336 O343 1.919 . S
Zn336 O348 1.924 1_556 S
O337 Zn336 1.949 1_554 S
O337 Zn338 1.923 1_544 S
O337 Zn339 1.950 . S
O337 Zn340 1.945 1_545 S
Zn338 O337 1.923 1_566 S
Zn338 O341 1.933 1_556 S
Zn338 O344 1.941 . S
Zn338 O345 1.965 . S
Zn339 O337 1.950 . S
Zn339 O346 1.938 . S
Zn339 O347 1.906 . S
Zn339 O357 1.953 . S
Zn340 O337 1.945 1_565 S
Zn340 O342 1.932 . S
Zn340 O349 1.977 1_565 S
Zn340 O350 1.910 1_565 S
O341 Zn338 1.933 1_554 S
O341 C352 1.226 . S
O342 Zn340 1.932 . S
O342 C352 1.307 . S
O343 Zn336 1.919 . S
O343 C354 1.253 1_545 S
O344 Zn338 1.941 . S
O344 C354 1.283 . S
O345 Zn338 1.965 . S
O345 C353 1.303 . S
O346 Zn339 1.938 . S
O346 C353 1.247 1_544 S
O347 Zn339 1.906 . S
O347 C355 1.304 . S
O348 Zn336 1.924 1_554 S
O348 C356 1.311 . S
O349 Zn340 1.977 1_545 S
O349 C355 1.272 . S
O350 Zn340 1.910 1_545 S
O350 C356 1.231 . S
C351 O335 1.225 . S
C351 O357 1.298 1_556 S
C352 O341 1.226 . S
C352 O342 1.307 . S
C353 O345 1.303 . S
C353 O346 1.247 1_566 S
C354 O343 1.253 1_565 S
C354 O344 1.283 . S
C355 O347 1.304 . S
C355 O349 1.272 . S
C356 O348 1.311 . S
C356 O350 1.231 . S
O357 Zn339 1.953 . S
O357 C351 1.298 1_554 S
O358 Zn359 1.953 . S
O358 C374 1.225 . S
Zn359 O358 1.953 . S
Zn359 O360 1.949 . S
Zn359 O366 1.919 . S
Zn359 O371 1.924 . S
O360 Zn359 1.949 . S
O360 Zn361 1.923 . S
O360 Zn362 1.950 . S
O360 Zn363 1.945 . S
Zn361 O360 1.923 . S
Zn361 O364 1.933 . S
Zn361 O367 1.941 . S
Zn361 O368 1.965 . S
Zn362 O360 1.950 . S
Zn362 O369 1.938 . S
Zn362 O370 1.906 . S
Zn362 O380 1.953 . S
Zn363 O360 1.945 . S
Zn363 O365 1.932 . S
Zn363 O372 1.977 . S
Zn363 O373 1.910 . S
O364 Zn361 1.933 . S
O364 C375 1.226 . S
O365 Zn363 1.932 . S
O365 C375 1.307 . S
O366 Zn359 1.919 . S
O366 C377 1.253 . S
O367 Zn361 1.941 . S
O367 C377 1.283 . S
O368 Zn361 1.965 . S
O368 C376 1.303 . S
O369 Zn362 1.938 . S
O369 C376 1.247 . S
O370 Zn362 1.906 . S
O370 C378 1.304 . S
O371 Zn359 1.924 . S
O371 C379 1.311 . S
O372 Zn363 1.977 . S
O372 C378 1.272 . S
O373 Zn363 1.910 . S
O373 C379 1.231 . S
C374 O358 1.225 . S
C374 O380 1.298 . S
C375 O364 1.226 . S
C375 O365 1.307 . S
C376 O368 1.303 . S
C376 O369 1.247 . S
C377 O366 1.253 . S
C377 O367 1.283 . S
C378 O370 1.304 . S
C378 O372 1.272 . S
C379 O371 1.311 . S
C379 O373 1.231 . S
O380 Zn362 1.953 . S
O380 C374 1.298 . S
O381 Zn382 1.953 . S
O381 C397 1.225 . S
Zn382 O381 1.953 . S
Zn382 O383 1.949 1_655 S
Zn382 O389 1.919 . S
Zn382 O394 1.924 . S
O383 Zn382 1.949 1_455 S
O383 Zn384 1.923 1_454 S
O383 Zn385 1.950 . S
O383 Zn386 1.945 1_554 S
Zn384 O383 1.923 1_656 S
Zn384 O387 1.933 1_655 S
Zn384 O390 1.941 . S
Zn384 O391 1.965 . S
Zn385 O383 1.950 . S
Zn385 O392 1.938 . S
Zn385 O393 1.906 . S
Zn385 O403 1.953 . S
Zn386 O383 1.945 1_556 S
Zn386 O388 1.932 . S
Zn386 O395 1.977 1_556 S
Zn386 O396 1.910 1_556 S
O387 Zn384 1.933 1_455 S
O387 C398 1.226 . S
O388 Zn386 1.932 . S
O388 C398 1.307 . S
O389 Zn382 1.919 . S
O389 C400 1.253 1_554 S
O390 Zn384 1.941 . S
O390 C400 1.283 . S
O391 Zn384 1.965 . S
O391 C399 1.303 . S
O392 Zn385 1.938 . S
O392 C399 1.247 1_454 S
O393 Zn385 1.906 . S
O393 C401 1.304 . S
O394 Zn382 1.924 . S
O394 C402 1.311 1_655 S
O395 Zn386 1.977 1_554 S
O395 C401 1.272 . S
O396 Zn386 1.910 1_554 S
O396 C402 1.231 . S
C397 O381 1.225 . S
C397 O403 1.298 1_655 S
C398 O387 1.226 . S
C398 O388 1.307 . S
C399 O391 1.303 . S
C399 O392 1.247 1_656 S
C400 O389 1.253 1_556 S
C400 O390 1.283 . S
C401 O393 1.304 . S
C401 O395 1.272 . S
C402 O394 1.311 1_455 S
C402 O396 1.231 . S
O403 Zn385 1.953 . S
O403 C397 1.298 1_455 S
C404 C405 1.369 . S
C404 C406 1.419 . S
C404 H408 0.930 . S
C405 C404 1.369 . S
C405 C414 1.429 . S
C406 C404 1.419 . S
C406 C407 1.363 . S
C406 H409 0.929 . S
C407 C406 1.363 . S
C407 C413 1.428 . S
H408 C404 0.930 . S
H409 C406 0.929 . S
S410 N411 1.613 1_565 S
S410 N412 1.614 . S
N411 S410 1.613 1_545 S
N411 C414 1.350 . S
N412 S410 1.614 . S
N412 C413 1.341 1_565 S
C413 C407 1.428 . S
C413 N412 1.341 1_545 S
C413 C414 1.434 . S
C414 C405 1.429 . S
C414 N411 1.350 . S
C414 C413 1.434 . S
C415 C416 1.369 . S
C415 C417 1.419 . S
C415 H419 0.930 . S
C416 C415 1.369 . S
C416 C425 1.429 . S
C417 C415 1.419 . S
C417 C418 1.363 . S
C417 H420 0.929 . S
C418 C417 1.363 . S
C418 C424 1.428 . S
H419 C415 0.930 . S
H420 C417 0.929 . S
S421 N422 1.613 . S
S421 N423 1.610 . S
N422 S421 1.613 . S
N422 C425 1.350 . S
N423 S421 1.610 . S
N423 C424 1.351 . S
C424 C418 1.428 . S
C424 N423 1.351 . S
C424 C425 1.434 . S
C425 C416 1.429 . S
C425 N422 1.350 . S
C425 C424 1.434 . S
C426 C427 1.369 . S
C426 C428 1.419 . S
C426 H430 0.930 . S
C427 C426 1.369 . S
C427 C436 1.429 . S
C428 C426 1.419 . S
C428 C429 1.363 . S
C428 H431 0.929 . S
C429 C428 1.363 . S
C429 C435 1.428 . S
H430 C426 0.930 . S
H431 C428 0.929 . S
S432 N433 1.613 . S
S432 N434 1.610 . S
N433 S432 1.613 . S
N433 C436 1.350 . S
N434 S432 1.610 . S
N434 C435 1.351 . S
C435 C429 1.428 . S
C435 N434 1.351 . S
C435 C436 1.434 . S
C436 C427 1.429 . S
C436 N433 1.350 . S
C436 C435 1.434 . S
C437 C438 1.369 . S
C437 C439 1.419 . S
C437 H441 0.930 . S
C438 C437 1.369 . S
C438 C447 1.429 . S
C439 C437 1.419 . S
C439 C440 1.363 . S
C439 H442 0.929 . S
C440 C439 1.363 . S
C440 C446 1.428 . S
H441 C437 0.930 . S
H442 C439 0.929 . S
S443 N444 1.613 . S
S443 N445 1.610 . S
N444 S443 1.613 . S
N444 C447 1.350 1_455 S
N445 S443 1.610 . S
N445 C446 1.351 1_455 S
C446 C440 1.428 . S
C446 N445 1.351 1_655 S
C446 C447 1.434 . S
C447 C438 1.429 . S
C447 N444 1.350 1_655 S
C447 C446 1.434 . S
C448 C449 1.369 . S
C448 C450 1.419 . S
C448 H452 0.930 . S
C449 C448 1.369 . S
C449 C458 1.429 . S
C450 C448 1.419 . S
C450 C451 1.363 . S
C450 H453 0.929 . S
C451 C450 1.363 . S
C451 C457 1.428 . S
H452 C448 0.930 . S
H453 C450 0.929 . S
S454 N455 1.613 . S
S454 N456 1.610 . S
N455 S454 1.613 . S
N455 C458 1.350 . S
N456 S454 1.610 . S
N456 C457 1.351 . S
C457 C451 1.428 . S
C457 N456 1.351 . S
C457 C458 1.434 . S
C458 C449 1.429 . S
C458 N455 1.350 . S
C458 C457 1.434 . S
C459 C460 1.369 . S
C459 C461 1.419 . S
C459 H463 0.930 . S
C460 C459 1.369 . S
C460 C469 1.429 . S
C461 C459 1.419 . S
C461 C462 1.363 . S
C461 H464 0.929 . S
C462 C461 1.363 . S
C462 C468 1.428 . S
H463 C459 0.930 . S
H464 C461 0.929 . S
S465 N466 1.613 . S
S465 N467 1.610 . S
N466 S465 1.613 . S
N466 C469 1.350 . S
N467 S465 1.610 . S
N467 C468 1.351 . S
C468 C462 1.428 . S
C468 N467 1.351 . S
C468 C469 1.434 . S
C469 C460 1.429 . S
C469 N466 1.350 . S
C469 C468 1.434 . S
C470 C471 1.369 . S
C470 C472 1.419 . S
C470 H474 0.930 . S
C471 C470 1.369 . S
C471 C480 1.429 . S
C472 C470 1.419 . S
C472 C473 1.363 . S
C472 H475 0.929 . S
C473 C472 1.363 . S
C473 C479 1.428 . S
H474 C470 0.930 . S
H475 C472 0.929 . S
S476 N477 1.613 1_554 S
S476 N478 1.610 1_554 S
N477 S476 1.613 1_556 S
N477 C480 1.350 . S
N478 S476 1.610 1_556 S
N478 C479 1.351 . S
C479 C473 1.428 . S
C479 N478 1.351 . S
C479 C480 1.434 . S
C480 C471 1.429 . S
C480 N477 1.350 . S
C480 C479 1.434 . S
C481 C482 1.369 . S
C481 C483 1.419 . S
C481 H485 0.930 . S
C482 C481 1.369 . S
C482 C491 1.429 . S
C483 C481 1.419 . S
C483 C484 1.363 . S
C483 H486 0.929 . S
C484 C483 1.363 . S
C484 C490 1.428 . S
H485 C481 0.930 . S
H486 C483 0.929 . S
S487 N488 1.613 . S
S487 N489 1.610 . S
N488 S487 1.613 . S
N488 C491 1.350 . S
N489 S487 1.610 . S
N489 C490 1.351 . S
C490 C484 1.428 . S
C490 N489 1.351 . S
C490 C491 1.434 . S
C491 C482 1.429 . S
C491 N488 1.350 . S
C491 C490 1.434 . S
C492 C493 1.369 . S
C492 C494 1.419 . S
C492 H496 0.930 . S
C493 C492 1.369 . S
C493 C502 1.429 . S
C494 C492 1.419 . S
C494 C495 1.363 . S
C494 H497 0.929 . S
C495 C494 1.363 . S
C495 C501 1.428 . S
H496 C492 0.930 . S
H497 C494 0.929 . S
S498 N499 1.613 1_556 S
S498 N500 1.610 . S
N499 S498 1.613 1_554 S
N499 C502 1.350 . S
N500 S498 1.610 . S
N500 C501 1.351 1_556 S
C501 C495 1.428 . S
C501 N500 1.351 1_554 S
C501 C502 1.434 . S
C502 C493 1.429 . S
C502 N499 1.350 . S
C502 C501 1.434 . S
C503 C504 1.369 . S
C503 C505 1.420 . S
C503 H507 0.930 1_556 S
C504 C503 1.369 . S
C504 C513 1.429 . S
C505 C503 1.420 . S
C505 C506 1.368 . S
C505 H508 0.923 1_556 S
C506 C505 1.368 . S
C506 C512 1.428 . S
H507 C503 0.930 1_554 S
H508 C505 0.923 1_554 S
S509 N510 1.613 . S
S509 N511 1.610 . S
N510 S509 1.613 . S
N510 C513 1.350 . S
N511 S509 1.610 . S
N511 C512 1.351 . S
C512 C506 1.428 . S
C512 N511 1.351 . S
C512 C513 1.434 . S
C513 C504 1.429 . S
C513 N510 1.350 . S
C513 C512 1.434 . S
C514 C515 1.369 . S
C514 C516 1.419 . S
C514 H518 0.930 . S
C515 C514 1.369 . S
C515 C524 1.429 . S
C516 C514 1.419 . S
C516 C517 1.363 . S
C516 H519 0.929 . S
C517 C516 1.363 . S
C517 C523 1.428 . S
H518 C514 0.930 . S
H519 C516 0.929 . S
S520 N521 1.613 . S
S520 N522 1.610 . S
N521 S520 1.613 . S
N521 C524 1.350 . S
N522 S520 1.610 . S
N522 C523 1.351 . S
C523 C517 1.428 . S
C523 N522 1.351 . S
C523 C524 1.434 . S
C524 C515 1.429 . S
C524 N521 1.350 . S
C524 C523 1.434 . S
C525 C526 1.369 . S
C525 C527 1.419 . S
C525 H529 0.930 . S
C526 C525 1.369 . S
C526 C535 1.429 . S
C527 C525 1.419 . S
C527 C528 1.363 . S
C527 H530 0.929 . S
C528 C527 1.363 . S
C528 C534 1.428 . S
H529 C525 0.930 . S
H530 C527 0.929 . S
S531 N532 1.613 . S
S531 N533 1.610 . S
N532 S531 1.613 . S
N532 C535 1.350 . S
N533 S531 1.610 . S
N533 C534 1.351 . S
C534 C528 1.428 . S
C534 N533 1.351 . S
C534 C535 1.434 . S
C535 C526 1.429 . S
C535 N532 1.350 . S
C535 C534 1.434 . S
C536 C537 1.369 . S
C536 C538 1.419 . S
C536 H540 0.930 . S
C537 C536 1.369 . S
C537 C546 1.429 1_545 S
C538 C536 1.419 . S
C538 C539 1.363 . S
C538 H541 0.929 . S
C539 C538 1.363 . S
C539 C545 1.428 1_545 S
H540 C536 0.930 . S
H541 C538 0.929 . S
S542 N543 1.613 . S
S542 N544 1.610 . S
N543 S542 1.613 . S
N543 C546 1.350 1_455 S
N544 S542 1.610 . S
N544 C545 1.351 1_455 S
C545 C539 1.428 1_565 S
C545 N544 1.351 1_655 S
C545 C546 1.434 . S
C546 C537 1.429 1_565 S
C546 N543 1.350 1_655 S
C546 C545 1.434 . S
C547 C548 1.369 1_565 S
C547 C549 1.419 . S
C547 H551 0.930 . S
C548 C547 1.369 1_545 S
C548 C557 1.429 . S
C549 C547 1.419 . S
C549 C550 1.363 1_565 S
C549 H552 0.929 . S
C550 C549 1.363 1_545 S
C550 C556 1.428 . S
H551 C547 0.930 . S
H552 C549 0.929 . S
S553 N554 1.613 . S
S553 N555 1.610 . S
N554 S553 1.613 . S
N554 C557 1.350 . S
N555 S553 1.610 . S
N555 C556 1.351 . S
C556 C550 1.428 . S
C556 N555 1.351 . S
C556 C557 1.434 . S
C557 C548 1.429 . S
C557 N554 1.350 . S
C557 C556 1.434 . S
C558 C559 1.369 . S
C558 C560 1.419 . S
C558 H562 0.930 . S
C559 C558 1.369 . S
C559 C568 1.429 . S
C560 C558 1.419 . S
C560 C561 1.363 . S
C560 H563 0.929 . S
C561 C560 1.363 . S
C561 C567 1.428 . S
H562 C558 0.930 . S
H563 C560 0.929 . S
S564 N565 1.613 . S
S564 N566 1.610 . S
N565 S564 1.613 . S
N565 C568 1.350 . S
N566 S564 1.610 . S
N566 C567 1.351 . S
C567 C561 1.428 . S
C567 N566 1.351 . S
C567 C568 1.434 . S
C568 C559 1.429 . S
C568 N565 1.350 . S
C568 C567 1.434 . S
C569 C570 1.369 . S
C569 C571 1.419 . S
C569 H573 0.930 . S
C570 C569 1.369 . S
C570 C579 1.429 . S
C571 C569 1.419 . S
C571 C572 1.363 . S
C571 H574 0.929 . S
C572 C571 1.363 . S
C572 C578 1.428 . S
H573 C569 0.930 . S
H574 C571 0.929 . S
S575 N576 1.613 . S
S575 N577 1.610 . S
N576 S575 1.613 . S
N576 C579 1.350 . S
N577 S575 1.610 . S
N577 C578 1.351 . S
C578 C572 1.428 . S
C578 N577 1.351 . S
C578 C579 1.434 . S
C579 C570 1.429 . S
C579 N576 1.350 . S
C579 C578 1.434 . S
C580 C581 1.370 1_544 S
C580 C582 1.419 . S
C580 H584 0.930 . S
C581 C580 1.370 1_566 S
C581 C590 1.428 . S
C582 C580 1.419 . S
C582 C583 1.363 1_544 S
C582 H585 0.929 . S
C583 C582 1.363 1_566 S
C583 C589 1.428 . S
H584 C580 0.930 . S
H585 C582 0.929 . S
S586 N587 1.613 . S
S586 N588 1.610 . S
N587 S586 1.613 . S
N587 C590 1.350 . S
N588 S586 1.610 . S
N588 C589 1.351 . S
C589 C583 1.428 . S
C589 N588 1.351 . S
C589 C590 1.434 . S
C590 C581 1.428 . S
C590 N587 1.350 . S
C590 C589 1.434 . S
C591 C592 1.369 1_565 S
C591 C593 1.420 . S
C591 H595 0.930 . S
C592 C591 1.369 1_545 S
C592 C601 1.429 . S
C593 C591 1.420 . S
C593 C594 1.346 1_565 S
C593 H596 0.946 . S
C594 C593 1.346 1_545 S
C594 C600 1.428 . S
H595 C591 0.930 . S
H596 C593 0.946 . S
S597 N598 1.613 . S
S597 N599 1.610 . S
N598 S597 1.613 . S
N598 C601 1.350 . S
N599 S597 1.610 . S
N599 C600 1.351 . S
C600 C594 1.428 . S
C600 N599 1.351 . S
C600 C601 1.434 . S
C601 C592 1.429 . S
C601 N598 1.350 . S
C601 C600 1.434 . S
C602 C603 1.369 1_556 S
C602 C604 1.419 . S
C602 H606 0.930 . S
C603 C602 1.369 1_554 S
C603 C612 1.429 . S
C604 C602 1.419 . S
C604 C605 1.363 1_556 S
C604 H607 0.929 . S
C605 C604 1.363 1_554 S
C605 C611 1.428 . S
H606 C602 0.930 . S
H607 C604 0.929 . S
S608 N609 1.613 . S
S608 N610 1.610 . S
N609 S608 1.613 . S
N609 C612 1.350 . S
N610 S608 1.610 . S
N610 C611 1.351 . S
C611 C605 1.428 . S
C611 N610 1.351 . S
C611 C612 1.434 . S
C612 C603 1.429 . S
C612 N609 1.350 . S
C612 C611 1.434 . S
C613 C614 1.369 . S
C613 C615 1.419 . S
C613 H617 0.930 . S
C614 C613 1.369 . S
C614 C623 1.429 . S
C615 C613 1.419 . S
C615 C616 1.363 . S
C615 H618 0.929 . S
C616 C615 1.363 . S
C616 C622 1.428 . S
H617 C613 0.930 . S
H618 C615 0.929 . S
S619 N620 1.613 . S
S619 N621 1.610 . S
N620 S619 1.613 . S
N620 C623 1.350 . S
N621 S619 1.610 . S
N621 C622 1.351 . S
C622 C616 1.428 . S
C622 N621 1.351 . S
C622 C623 1.434 . S
C623 C614 1.429 . S
C623 N620 1.350 . S
C623 C622 1.434 . S
C624 C625 1.375 . S
C624 C626 1.418 . S
C624 H628 0.924 1_655 S
C625 C624 1.375 . S
C625 C634 1.429 1_556 S
C626 C624 1.418 . S
C626 C627 1.382 . S
C626 H629 0.910 1_655 S
C627 C626 1.382 . S
C627 C633 1.428 1_556 S
H628 C624 0.924 1_455 S
H629 C626 0.910 1_455 S
S630 N631 1.613 . S
S630 N632 1.610 . S
N631 S630 1.613 . S
N631 C634 1.350 . S
N632 S630 1.610 . S
N632 C633 1.351 . S
C633 C627 1.428 1_554 S
C633 N632 1.351 . S
C633 C634 1.434 . S
C634 C625 1.429 1_554 S
C634 N631 1.350 . S
C634 C633 1.434 . S
C635 C636 1.369 . S
C635 C637 1.419 . S
C635 H639 0.930 . S
C636 C635 1.369 . S
C636 C645 1.429 . S
C637 C635 1.419 . S
C637 C638 1.363 . S
C637 H640 0.929 . S
C638 C637 1.363 . S
C638 C644 1.428 . S
H639 C635 0.930 . S
H640 C637 0.929 . S
S641 N642 1.613 . S
S641 N643 1.610 . S
N642 S641 1.613 . S
N642 C645 1.350 1_556 S
N643 S641 1.610 . S
N643 C644 1.351 1_556 S
C644 C638 1.428 . S
C644 N643 1.351 1_554 S
C644 C645 1.434 . S
C645 C636 1.429 . S
C645 N642 1.350 1_554 S
C645 C644 1.434 . S
C646 C647 1.369 . S
C646 C648 1.419 . S
C646 H650 0.930 1_455 S
C647 C646 1.369 . S
C647 C656 1.429 . S
C648 C646 1.419 . S
C648 C649 1.363 . S
C648 H651 0.929 1_455 S
C649 C648 1.363 . S
C649 C655 1.428 . S
H650 C646 0.930 1_655 S
H651 C648 0.929 1_655 S
S652 N653 1.613 . S
S652 N654 1.610 . S
N653 S652 1.613 . S
N653 C656 1.350 . S
N654 S652 1.610 . S
N654 C655 1.351 . S
C655 C649 1.428 . S
C655 N654 1.351 . S
C655 C656 1.434 . S
C656 C647 1.429 . S
C656 N653 1.350 . S
C656 C655 1.434 . S
C657 C658 1.369 . S
C657 C659 1.419 . S
C657 H661 0.930 . S
C658 C657 1.369 . S
C658 C667 1.429 . S
C659 C657 1.419 . S
C659 C660 1.363 . S
C659 H662 0.929 . S
C660 C659 1.363 . S
C660 C666 1.428 . S
H661 C657 0.930 . S
H662 C659 0.929 . S
S663 N664 1.613 . S
S663 N665 1.610 . S
N664 S663 1.613 . S
N664 C667 1.350 . S
N665 S663 1.610 . S
N665 C666 1.351 . S
C666 C660 1.428 . S
C666 N665 1.351 . S
C666 C667 1.434 . S
C667 C658 1.429 . S
C667 N664 1.350 . S
C667 C666 1.434 . S
C405 C1 1.619 . S
C407 C330 1.600 . S
C416 C40 1.602 . S
C418 C354 1.566 . S
C429 C374 1.500 . S
C427 C99 1.482 . S
C438 C118 1.479 . S
C440 C397 1.505 . S
C451 C356 1.650 . S
C449 C16 1.697 . S
C462 C332 1.639 . S
C460 C60 1.677 . S
C473 C400 1.604 . S
C471 C79 1.670 . S
C484 C377 1.567 . S
C482 C138 1.621 . S
C493 C21 1.452 . S
C495 C402 1.398 . S
C506 C351 1.668 . S
C504 C94 1.640 . S
C515 C133 1.619 . S
C517 C329 1.639 . S
C526 C55 1.445 . S
C528 C379 1.401 . S
C539 C333 1.788 1_545 S
C537 C157 1.715 1_545 S
C548 C196 1.683 . S
C550 C355 1.714 . S
C559 C255 1.775 . S
C561 C375 1.831 . S
C570 C289 1.786 . S
C572 C398 1.834 . S
C581 C172 1.677 . S
C583 C353 1.681 . S
C594 C331 1.750 . S
C592 C216 1.673 . S
C605 C401 1.586 . S
C603 C235 1.594 . S
C616 C378 1.592 . S
C614 C294 1.585 . S
C625 C177 1.897 . S
C627 C399 1.896 . S
C638 C352 1.693 . S
C636 C250 1.659 . S
C649 C328 1.687 . S
C647 C274 1.636 . S
C658 C211 1.880 . S
C660 C376 1.875 . S
