# Generated by pormake.
# Topology anh, (6,3)-cn, num edge types: 1
# Building blocks:
#     Node 0, Type 0, BuildingBlock: BETFEN_clean_sbu_0, # of connection points: 6
#     Node 1, Type 0, BuildingBlock: BETFEN_clean_sbu_0, # of connection points: 6
#     Node 2, Type 0, BuildingBlock: BETFEN_clean_sbu_0, # of connection points: 6
#     Node 3, Type 1, BuildingBlock: CUQRIR_clean_linker_1, # of connection points: 3
#     Node 4, Type 1, BuildingBlock: CUQRIR_clean_linker_1, # of connection points: 3
#     Node 5, Type 1, BuildingBlock: CUQRIR_clean_linker_1, # of connection points: 3
#     Node 6, Type 1, BuildingBlock: CUQRIR_clean_linker_1, # of connection points: 3
#     Node 7, Type 1, BuildingBlock: CUQRIR_clean_linker_1, # of connection points: 3
#     Node 8, Type 1, BuildingBlock: CUQRIR_clean_linker_1, # of connection points: 3
#     Edge 9, Type (0, 1), BuildingBlock: XIVTED_clean_linker_0, # of connection points: 2
#     Edge 10, Type (0, 1), BuildingBlock: XIVTED_clean_linker_0, # of connection points: 2
#     Edge 11, Type (0, 1), BuildingBlock: XIVTED_clean_linker_0, # of connection points: 2
#     Edge 12, Type (0, 1), BuildingBlock: XIVTED_clean_linker_0, # of connection points: 2
#     Edge 13, Type (0, 1), BuildingBlock: XIVTED_clean_linker_0, # of connection points: 2
#     Edge 14, Type (0, 1), BuildingBlock: XIVTED_clean_linker_0, # of connection points: 2
#     Edge 15, Type (0, 1), BuildingBlock: XIVTED_clean_linker_0, # of connection points: 2
#     Edge 16, Type (0, 1), BuildingBlock: XIVTED_clean_linker_0, # of connection points: 2
#     Edge 17, Type (0, 1), BuildingBlock: XIVTED_clean_linker_0, # of connection points: 2
#     Edge 18, Type (0, 1), BuildingBlock: XIVTED_clean_linker_0, # of connection points: 2
#     Edge 19, Type (0, 1), BuildingBlock: XIVTED_clean_linker_0, # of connection points: 2
#     Edge 20, Type (0, 1), BuildingBlock: XIVTED_clean_linker_0, # of connection points: 2
#     Edge 21, Type (0, 1), BuildingBlock: XIVTED_clean_linker_0, # of connection points: 2
#     Edge 22, Type (0, 1), BuildingBlock: XIVTED_clean_linker_0, # of connection points: 2
#     Edge 23, Type (0, 1), BuildingBlock: XIVTED_clean_linker_0, # of connection points: 2
#     Edge 24, Type (0, 1), BuildingBlock: XIVTED_clean_linker_0, # of connection points: 2
#     Edge 25, Type (0, 1), BuildingBlock: XIVTED_clean_linker_0, # of connection points: 2
#     Edge 26, Type (0, 1), BuildingBlock: XIVTED_clean_linker_0, # of connection points: 2
# Relax obj value: 0.197
# Max RMSD: 0.213
# Mean RMSD: 0.162
data_MOF--net-anh--node1-BETFEN_clean_sbu_0--node2-CUQRIR_clean_linker_1--edge1-XIVTED_clean_linker_0
_symmetry_space_group_name_H-M    P1
_symmetry_Int_Tables_number       1
_symmetry_cell_setting            triclinic
loop_
_symmetry_equiv_pos_as_xyz
'x, y, z'
_cell_length_a     27.959574
_cell_length_b     29.839311
_cell_length_c     47.245022
_cell_angle_alpha  85.965109
_cell_angle_beta   91.085997
_cell_angle_gamma 102.12288
loop_
_atom_site_label
_atom_site_type_symbol
_atom_site_fract_x
_atom_site_fract_y
_atom_site_fract_z
_atom_type_partial_charge
Pr0 Pr 0.05654 0.49304 0.15094 0.0
Pr1 Pr 0.07917 0.59508 0.14081 0.0
C2 C 1.01998 0.40436 0.16814 0.0
C3 C 0.97366 0.37165 0.17569 0.0
C4 C 0.9583 0.33325 0.15972 0.0
C5 C 0.91614 0.30044 0.16716 0.0
C6 C 0.8884 0.30498 0.19094 0.0
C7 C 0.90345 0.34388 0.2067 0.0
C8 C 0.94561 0.37687 0.19917 0.0
C9 C 0.08635 0.52299 0.09554 0.0
C10 C 0.96492 0.54711 0.13426 0.0
C11 C 0.11754 0.68428 0.12616 0.0
C12 C 0.15839 0.72024 0.13563 0.0
C13 C 0.16307 0.73133 0.16412 0.0
C14 C 0.20206 0.76525 0.17271 0.0
C15 C 0.23746 0.78858 0.15309 0.0
C16 C 0.23292 0.7772 0.12463 0.0
C17 C 0.19365 0.7435 0.11599 0.0
C18 C 0.05436 0.56524 0.19717 0.0
C19 C 0.1729 0.54055 0.15284 0.0
O20 O 0.03743 0.43601 0.18564 0.0
O21 O 1.02629 0.41899 0.14147 0.0
O22 O 0.05661 0.53952 0.10942 0.0
O23 O 0.0996 0.48866 0.10965 0.0
O24 O 0.99864 0.58172 0.12367 0.0
O25 O 0.97806 0.51229 0.1491 0.0
O26 O 0.12946 0.65052 0.11363 0.0
O27 O 0.08037 0.6707 0.14331 0.0
O28 O 0.08269 0.54886 0.18223 0.0
O29 O 0.03906 0.59856 0.18328 0.0
O30 O 0.14085 0.50233 0.15997 0.0
O31 O 0.15823 0.57846 0.14387 0.0
H32 H 0.97925 0.32836 0.14155 0.0
H33 H 0.90528 0.27149 0.15417 0.0
H34 H 0.88333 0.34835 0.2253 0.0
H35 H 0.95653 0.40605 0.21198 0.0
H36 H 0.13677 0.7137 0.17985 0.0
H37 H 0.20489 0.77274 0.19486 0.0
H38 H 0.25936 0.79481 0.10897 0.0
H39 H 0.19083 0.73555 0.09391 0.0
Pr40 Pr 0.63201 0.08918 0.52171 0.0
Pr41 Pr 0.52433 0.06804 0.52063 0.0
C42 C 0.72698 0.12659 0.50963 0.0
C43 C 0.7594 0.1721 0.50193 0.0
C44 C 0.80176 0.18732 0.51798 0.0
C45 C 0.83434 0.22872 0.51005 0.0
C46 C 0.82569 0.25604 0.48567 0.0
C47 C 0.78273 0.24095 0.46986 0.0
C48 C 0.75004 0.19968 0.4779 0.0
C49 C 0.58908 0.07421 0.57511 0.0
C50 C 0.57345 0.18237 0.52308 0.0
C51 C 0.42822 1.02935 0.52758 0.0
C52 C 0.39551 0.98538 0.52098 0.0
C53 C 0.41419 0.95014 0.50985 0.0
C54 C 0.38277 0.90911 0.50293 0.0
C55 C 0.33182 0.90248 0.50678 0.0
C56 C 0.31343 0.9379 0.51813 0.0
C57 C 0.34493 0.97881 0.52516 0.0
C58 C 0.5647 0.08783 0.46675 0.0
C59 C 0.58383 0.97429 0.52464 0.0
O60 O 0.69476 0.10941 0.49074 0.0
O61 O 0.71033 0.11847 0.53559 0.0
O62 O 0.57676 0.09866 0.55469 0.0
O63 O 0.62517 0.05542 0.56871 0.0
O64 O 0.53277 0.14999 0.52821 0.0
O65 O 0.61419 0.16748 0.51736 0.0
O66 O 0.4612 1.02726 0.54738 0.0
O67 O 0.44531 0.05726 0.50584 0.0
O68 O 0.57937 0.06197 0.48589 0.0
O69 O 0.52788 0.10349 0.47515 0.0
O70 O 0.62533 1.00598 0.52099 0.0
O71 O 0.5424 0.9899 0.52658 0.0
H72 H 0.80999 0.16686 0.53658 0.0
H73 H 0.86633 0.2393 0.52317 0.0
H74 H 0.77479 0.26042 0.45079 0.0
H75 H 0.7178 0.18907 0.46496 0.0
H76 H 0.45304 0.95452 0.50618 0.0
H77 H 0.39836 0.88304 0.49392 0.0
H78 H 0.2746 0.93395 0.52178 0.0
H79 H 0.32968 1.00549 0.53373 0.0
Pr80 Pr 0.60587 0.56453 0.8205 0.0
Pr81 Pr 0.6255 0.66191 0.83234 0.0
C82 C 0.57072 0.48213 0.80013 0.0
C83 C 0.5247 0.44737 0.80178 0.0
C84 C 0.4794 0.45857 0.79442 0.0
C85 C 0.43646 0.42453 0.79571 0.0
C86 C 0.43812 0.37903 0.80476 0.0
C87 C 0.48339 0.36829 0.81261 0.0
C88 C 0.52622 0.40209 0.81104 0.0
C89 C 0.62498 0.57758 0.87781 0.0
C90 C 0.72088 0.61285 0.82415 0.0
C91 C 0.64923 0.74831 0.84841 0.0
C92 C 0.61875 0.7827 0.84929 0.0
C93 C 0.63569 0.82702 0.83674 0.0
C94 C 0.60333 0.85648 0.8313 0.0
C95 C 0.55353 0.84191 0.83832 0.0
C96 C 0.53753 0.79872 0.85275 0.0
C97 C 0.56979 0.76929 0.8581 0.0
C98 C 0.6038 0.64667 0.77531 0.0
C99 C 0.50999 0.61169 0.83576 0.0
O100 O 0.59647 0.48715 0.8235 0.0
O101 O 0.57002 0.52101 0.78563 0.0
O102 O 0.59825 0.59832 0.8622 0.0
O103 O 0.64117 0.54748 0.86424 0.0
O104 O 0.70408 0.64448 0.83685 0.0
O105 O 0.69033 0.58006 0.81173 0.0
O106 O 0.63846 0.71255 0.86656 0.0
O107 O 0.65764 0.7375 0.82293 0.0
O108 O 0.63305 0.6281 0.79042 0.0
O109 O 0.58374 0.67319 0.78976 0.0
O110 O 0.5247 0.57729 0.82468 0.0
O111 O 0.54225 0.64793 0.8431 0.0
H112 H 0.47713 0.49343 0.78745 0.0
H113 H 0.40206 0.4337 0.78955 0.0
H114 H 0.48601 0.33333 0.81912 0.0
H115 H 0.56071 0.39272 0.8168 0.0
H116 H 0.67317 0.83776 0.82953 0.0
H117 H 0.61671 0.88942 0.81995 0.0
H118 H 0.49958 0.78688 0.85885 0.0
H119 H 0.55567 0.73513 0.8677 0.0
C120 C 0.55938 1.04151 0.21749 0.0
N121 N 0.58665 0.06535 0.23774 0.0
N122 N 0.51856 1.01389 0.22899 0.0
C123 C 0.57055 1.04784 0.18629 0.0
C124 C 0.5222 1.02168 0.25693 0.0
N125 N 0.56328 0.053 0.26217 0.0
C126 C 0.48639 0.99777 0.27933 0.0
H127 H 0.5365 1.04037 0.17347 0.0
H128 H 0.5939 1.02372 0.18113 0.0
H129 H 0.59069 0.08337 0.18045 0.0
H130 H 0.46769 0.96322 0.27318 0.0
H131 H 0.45844 1.01861 0.28194 0.0
H132 H 0.505 0.99427 0.30007 0.0
C133 C 0.58064 0.57941 0.52671 0.0
N134 N 0.57891 0.61502 0.54429 0.0
N135 N 0.57662 0.5362 0.54143 0.0
C136 C 0.58469 0.58656 0.49515 0.0
C137 C 0.57297 0.54786 0.56849 0.0
N138 N 0.57422 0.59365 0.57018 0.0
C139 C 0.56874 0.51374 0.59392 0.0
H140 H 0.57474 0.55334 0.48508 0.0
H141 H 0.62297 0.60318 0.48955 0.0
H142 H 0.5608 0.60999 0.48699 0.0
H143 H 0.58861 0.48614 0.59033 0.0
H144 H 0.52956 0.49771 0.59734 0.0
H145 H 0.58318 0.5303 0.61349 0.0
C146 C 0.11616 0.60209 0.84776 0.0
N147 N 0.15075 0.60033 0.86841 0.0
N148 N 0.07289 0.60574 0.85915 0.0
C149 C 0.12514 0.60309 0.81648 0.0
C150 C 0.08222 0.60599 0.88729 0.0
N151 N 0.12926 0.6034 0.89294 0.0
C152 C 0.04417 0.60579 0.90955 0.0
H153 H 0.16279 0.62209 0.81119 0.0
H154 H 0.09825 0.6192 0.80416 0.0
H155 H 0.12117 0.56732 0.81026 0.0
H156 H 0.05015 0.58389 0.92871 0.0
H157 H 1.00664 0.59307 0.90144 0.0
H158 H 0.04705 0.64137 0.91589 0.0
C159 C 0.08583 0.57996 0.44961 0.0
N160 N 0.06133 0.55255 0.42988 0.0
N161 N 0.11009 0.62066 0.43719 0.0
C162 C 0.0831 0.56859 0.48111 0.0
C163 C 0.09951 0.61696 0.40926 0.0
N164 N 0.06979 0.57597 0.40483 0.0
C165 C 0.11984 0.65274 0.38607 0.0
H166 H 0.09064 0.60025 0.49287 0.0
H167 H 0.11093 0.54814 0.48735 0.0
H168 H 0.04654 0.54782 0.48718 0.0
H169 H 0.1252 0.63651 0.36628 0.0
H170 H 0.15522 0.67415 0.39255 0.0
H171 H 0.09343 0.67537 0.38152 0.0
C172 C 0.29826 1.04568 0.76152 0.0
N173 N 0.32968 1.02797 0.74648 0.0
N174 N 0.29363 0.08765 0.75012 0.0
C175 C 0.27708 1.02445 0.7896 0.0
C176 C 0.32113 0.09302 0.72623 0.0
N177 N 0.34382 0.05747 0.72439 0.0
C178 C 0.32964 0.13545 0.70618 0.0
H179 H 0.24881 1.04215 0.79685 0.0
H180 H 0.30664 1.02614 0.80575 0.0
H181 H 0.26063 0.98759 0.78755 0.0
H182 H 0.35352 0.16426 0.71658 0.0
H183 H 0.2944 0.14543 0.70081 0.0
H184 H 0.34674 0.12981 0.68611 0.0
C185 C 0.56978 0.54498 0.12938 0.0
N186 N 0.60581 0.55194 0.10943 0.0
N187 N 0.52687 0.55194 0.11762 0.0
C188 C 0.57695 0.53427 0.16049 0.0
C189 C 0.53798 0.56326 0.08997 0.0
N190 N 0.58563 0.56373 0.08502 0.0
C191 C 0.50124 0.57135 0.06745 0.0
H192 H 0.57295 0.49659 0.16453 0.0
H193 H 0.54911 0.54541 0.1732 0.0
H194 H 0.61413 0.55123 0.16734 0.0
H195 H 0.50288 0.60881 0.06407 0.0
H196 H 0.4635 0.55425 0.0739 0.0
H197 H 0.50957 0.55842 0.04705 0.0
H198 H 0.22024 0.4679 0.16206 0.0
H199 H 0.48501 0.62407 0.12321 0.0
H200 H 0.24887 0.6148 0.14388 0.0
H201 H 0.46116 0.47754 0.13935 0.0
H202 H 0.39979 0.62138 0.13588 0.0
H203 H 0.30841 0.47034 0.15842 0.0
C204 C 0.24494 0.50072 0.1576 0.0
C205 C 0.22666 0.54117 0.15318 0.0
C206 C 0.41308 0.58973 0.13714 0.0
C207 C 0.32803 0.54417 0.1489 0.0
C208 C 0.46188 0.59143 0.13016 0.0
C209 C 0.48018 0.5511 0.13063 0.0
C210 C 0.3817 0.54717 0.14437 0.0
C211 C 0.44853 0.50944 0.13918 0.0
C212 C 0.29537 0.50205 0.15546 0.0
C213 C 0.26079 0.58259 0.14735 0.0
N214 N 0.40074 0.50845 0.14547 0.0
N215 N 0.30941 0.58293 0.14529 0.0
H216 H 0.92656 0.27466 0.49007 0.0
H217 H 0.96622 0.52927 0.41414 0.0
H218 H 0.80745 0.3372 0.46002 0.0
H219 H 0.0807 0.47609 0.45817 0.0
H220 H 0.90865 0.4564 0.42655 0.0
H221 H 0.98416 0.34558 0.47531 0.0
C222 C 0.91226 0.30326 0.48058 0.0
C223 C 0.86157 0.29948 0.47653 0.0
C224 C 0.94639 0.46049 0.43342 0.0
C225 C 0.9282 0.38119 0.45888 0.0
C226 C 0.97927 0.50191 0.42611 0.0
C227 C 0.02817 0.50855 0.43514 0.0
C228 C 0.9626 0.42523 0.44976 0.0
C229 C 0.04318 0.47231 0.45098 0.0
C230 C 0.94541 0.34379 0.47194 0.0
C231 C 0.84596 0.33784 0.46337 0.0
N232 N 1.01061 0.4323 0.45779 0.0
N233 N 0.879 0.37686 0.45506 0.0
H234 H 0.56254 0.93531 0.83747 0.0
H235 H 0.30969 0.93517 0.75427 0.0
H236 H 0.4634 0.81131 0.81493 0.0
H237 H 0.41772 0.0569 0.76927 0.0
H238 H 0.36244 0.88825 0.77916 0.0
H239 H 0.50631 0.9803 0.81573 0.0
C240 C 0.52883 0.91757 0.82807 0.0
C241 C 0.51772 0.86954 0.82797 0.0
C242 C 0.37469 0.92523 0.7769 0.0
C243 C 0.45319 0.92069 0.803 0.0
C244 C 0.34476 0.95167 0.76269 0.0
C245 C 0.36026 0.99939 0.75958 0.0
C246 C 0.41991 0.94712 0.78814 0.0
C247 C 0.40539 1.01992 0.77102 0.0
C248 C 0.4967 0.94321 0.81568 0.0
C249 C 0.47318 0.84826 0.81581 0.0
N250 N 0.43372 0.99369 0.78481 0.0
N251 N 0.44265 0.874 0.80367 0.0
H252 H 0.92352 0.61379 0.10613 0.0
H253 H 0.64424 0.48334 0.13594 0.0
H254 H 0.88419 0.48193 0.15281 0.0
H255 H 0.68489 0.61706 0.09213 0.0
H256 H 0.73142 0.48156 0.14213 0.0
H257 H 0.83657 0.61481 0.10021 0.0
C258 C 0.89672 0.58494 0.11512 0.0
C259 C 0.91169 0.5477 0.13002 0.0
C260 C 0.72137 0.51135 0.13116 0.0
C261 C 0.81112 0.54872 0.12329 0.0
C262 C 0.67155 0.51244 0.1278 0.0
C263 C 0.65719 0.55045 0.11356 0.0
C264 C 0.7574 0.54855 0.12019 0.0
C265 C 0.69425 0.5869 0.10299 0.0
C266 C 0.84686 0.58559 0.11174 0.0
C267 C 0.87476 0.51143 0.14115 0.0
N268 N 0.74239 0.58506 0.1065 0.0
N269 N 0.82647 0.51287 0.13758 0.0
H270 H 0.34496 0.81306 0.51304 0.0
H271 H 0.09487 0.70722 0.43311 0.0
H272 H 0.24122 0.89312 0.48123 0.0
H273 H 0.19091 0.62394 0.4704 0.0
H274 H 0.14768 0.77546 0.45145 0.0
H275 H 0.28966 0.74357 0.49811 0.0
C276 C 0.31067 0.81616 0.50287 0.0
C277 C 0.29799 0.85935 0.49844 0.0
C278 C 0.15725 0.74233 0.45585 0.0
C279 C 0.23406 0.77942 0.48138 0.0
C280 C 0.12706 0.70345 0.44537 0.0
C281 C 0.13872 0.66009 0.45024 0.0
C282 C 0.1998 0.73802 0.47124 0.0
C283 C 0.18067 0.65682 0.46636 0.0
C284 C 0.27892 0.77632 0.4945 0.0
C285 C 0.25254 0.86077 0.48549 0.0
N286 N 0.2099 0.69528 0.47612 0.0
N287 N 0.22251 0.82161 0.47737 0.0
H288 H 0.36987 0.36312 0.76226 0.0
H289 H 0.33756 0.1077 0.80027 0.0
H290 H 0.40658 0.30937 0.8451 0.0
H291 H 0.24373 0.15595 0.73698 0.0
H292 H 0.34997 0.1804 0.82148 0.0
H293 H 0.31166 0.29086 0.75595 0.0
C294 C 0.36451 0.33667 0.7795 0.0
C295 C 0.39407 0.34159 0.8039 0.0
C296 C 0.32552 0.17505 0.80341 0.0
C297 C 0.32828 0.25888 0.79667 0.0
C298 C 0.31783 0.13298 0.79144 0.0
C299 C 0.2897 0.12563 0.76662 0.0
C300 C 0.30701 0.21112 0.78976 0.0
C301 C 0.2667 0.16068 0.75565 0.0
C302 C 0.33128 0.29539 0.77588 0.0
C303 C 0.38557 0.30634 0.82558 0.0
N304 N 0.27715 0.20259 0.76673 0.0
N305 N 0.35427 0.26608 0.8212 0.0
H306 H 0.50769 0.89747 0.54021 0.0
H307 H 0.6479 0.68543 0.51565 0.0
H308 H 0.65787 0.92368 0.51394 0.0
H309 H 0.51164 0.66557 0.56001 0.0
H310 H 0.6502 0.76947 0.51083 0.0
H311 H 0.50657 0.8142 0.54377 0.0
C312 C 0.54079 0.88641 0.53506 0.0
C313 C 0.58305 0.92037 0.52676 0.0
C314 C 0.61945 0.74698 0.52152 0.0
C315 C 0.58167 0.82009 0.53059 0.0
C316 C 0.61789 0.69801 0.52411 0.0
C317 C 0.57921 0.66594 0.5382 0.0
C318 C 0.58181 0.7663 0.53269 0.0
C319 C 0.54253 0.68713 0.54896 0.0
C320 C 0.54004 0.83777 0.53717 0.0
C321 C 0.62398 0.90082 0.52054 0.0
N322 N 0.54467 0.73434 0.54588 0.0
N323 N 0.62209 0.85347 0.52241 0.0
H324 H 0.79461 0.68078 0.84225 0.0
H325 H 1.00947 0.54166 0.83123 0.0
H326 H 0.77057 0.54765 0.8079 0.0
H327 H 0.0304 0.67871 0.85876 0.0
H328 H 0.92381 0.54425 0.81885 0.0
H329 H 0.88185 0.68149 0.84559 0.0
C330 C 0.80759 0.65164 0.83529 0.0
C331 C 0.77471 0.61399 0.82487 0.0
C332 C 0.94736 0.57411 0.82709 0.0
C333 C 0.87577 0.61453 0.82879 0.0
C334 C 0.99632 0.57275 0.83383 0.0
C335 C 1.027 0.61024 0.84571 0.0
C336 C 0.92895 0.61317 0.8325 0.0
C337 C 1.00796 0.64935 0.84936 0.0
C338 C 0.85771 0.65213 0.83716 0.0
C339 C 0.79431 0.57744 0.81609 0.0
N340 N 0.9603 0.64966 0.84306 0.0
N341 N 0.84336 0.57847 0.81843 0.0
H342 H 0.23467 0.85692 0.18838 0.0
H343 H 0.52513 0.9467 0.19456 0.0
H344 H 0.33464 0.80222 0.13903 0.0
H345 H 0.42234 1.0143 0.23163 0.0
H346 H 0.45654 0.89335 0.17368 0.0
H347 H 0.30337 0.91416 0.20484 0.0
C348 C 0.27113 0.85691 0.18104 0.0
C349 C 0.27891 0.82456 0.1624 0.0
C350 C 0.44896 0.92001 0.18625 0.0
C351 C 0.35796 0.89028 0.18109 0.0
C352 C 0.48804 0.95043 0.19801 0.0
C353 C 0.47908 0.98449 0.21494 0.0
C354 C 0.40065 0.92364 0.19165 0.0
C355 C 0.43052 0.98795 0.21905 0.0
C356 C 0.31035 0.8898 0.19031 0.0
C357 C 0.32691 0.82669 0.15325 0.0
N358 N 0.39312 0.95775 0.20767 0.0
N359 N 0.36466 0.85877 0.16283 0.0
H360 H 0.65004 0.26122 0.51232 0.0
H361 H 0.49963 0.46082 0.54745 0.0
H362 H 0.49865 0.23004 0.53649 0.0
H363 H 0.64901 0.49488 0.51983 0.0
H364 H 0.49876 0.37867 0.54271 0.0
H365 H 0.65077 0.34405 0.51435 0.0
C366 C 0.61658 0.27108 0.51808 0.0
C367 C 0.57414 0.23593 0.52416 0.0
C368 C 0.5318 0.40371 0.53721 0.0
C369 C 0.57488 0.33543 0.52669 0.0
C370 C 0.5322 0.45164 0.53966 0.0
C371 C 0.57389 0.48734 0.53319 0.0
C372 C 0.5738 0.38856 0.52855 0.0
C373 C 0.61506 0.47051 0.5243 0.0
C374 C 0.61713 0.31944 0.51923 0.0
C375 C 0.53273 0.25387 0.53146 0.0
N376 N 0.61385 0.42368 0.52236 0.0
N377 N 0.5343 0.30085 0.53249 0.0
H378 H 0.46766 0.67314 0.86186 0.0
H379 H 0.18899 0.5411 0.8388 0.0
H380 H 0.42973 0.54519 0.82136 0.0
H381 H 0.22992 0.65758 0.88944 0.0
H382 H 0.27613 0.54286 0.83081 0.0
H383 H 0.38093 0.66915 0.87054 0.0
C384 C 0.44121 0.64412 0.85472 0.0
C385 C 0.45658 0.60942 0.8408 0.0
C386 C 0.26617 0.56799 0.84375 0.0
C387 C 0.35602 0.60474 0.85076 0.0
C388 C 0.21638 0.56707 0.84821 0.0
C389 C 0.20209 0.59936 0.86472 0.0
C390 C 0.3023 0.6017 0.85571 0.0
C391 C 0.23924 0.63186 0.87675 0.0
C392 C 0.39143 0.64186 0.85978 0.0
C393 C 0.41999 0.57279 0.83216 0.0
N394 N 0.28738 0.63237 0.87189 0.0
N395 N 0.37166 0.5715 0.8372 0.0
H396 H 0.87608 0.21139 0.18927 0.0
H397 H 0.60239 0.15444 0.24981 0.0
H398 H 0.80058 0.31572 0.21222 0.0
H399 H 0.67117 0.05404 0.2156 0.0
H400 H 0.67707 0.21328 0.24013 0.0
H401 H 0.80356 0.15276 0.20206 0.0
C402 C 0.84419 0.22211 0.19683 0.0
C403 C 0.84455 0.26883 0.1994 0.0
C404 C 0.67603 0.17836 0.23487 0.0
C405 C 0.76125 0.20135 0.21464 0.0
C406 C 0.63364 0.14483 0.24062 0.0
C407 C 0.63112 0.09955 0.23363 0.0
C408 C 0.71616 0.16636 0.22206 0.0
C409 C 0.67198 0.08874 0.2212 0.0
C410 C 0.80282 0.18847 0.20432 0.0
C411 C 0.80233 0.28023 0.21006 0.0
N412 N 0.71284 0.12189 0.21579 0.0
N413 N 0.76243 0.24679 0.21722 0.0
H414 H 0.07502 0.60162 0.06491 0.0
H415 H 0.15336 0.52758 0.91858 0.0
H416 H 0.13566 0.48098 0.05972 0.0
H417 H 0.14376 0.66643 0.93179 0.0
H418 H 0.15305 0.51047 0.97026 0.0
H419 H 0.10188 0.62643 0.01614 0.0
C420 C 0.09403 0.58041 0.0535 0.0
C421 C 0.10274 0.53901 0.06625 0.0
C422 C 0.15251 0.54511 0.96194 0.0
C423 C 0.13358 0.56705 0.01046 0.0
C424 C 0.15353 0.55495 0.93249 0.0
C425 C 0.14868 0.59841 0.92115 0.0
C426 C 0.14576 0.57889 0.97994 0.0
C427 C 0.14777 0.63258 0.93993 0.0
C428 C 0.10972 0.59472 0.02575 0.0
C429 C 0.12794 0.51302 0.0506 0.0
N430 N 0.14503 0.62187 0.96838 0.0
N431 N 0.14194 0.52715 0.02343 0.0
H432 H 0.62167 1.03866 0.44001 0.0
H433 H 0.53133 0.11869 0.2873 0.0
H434 H 0.53771 0.14387 0.42463 0.0
H435 H 0.62586 1.02241 0.29904 0.0
H436 H 0.54288 0.13562 0.33723 0.0
H437 H 0.63304 1.03837 0.38853 0.0
C438 C 0.60625 0.0621 0.42583 0.0
C439 C 0.57805 0.0908 0.43648 0.0
C440 C 0.56203 0.11142 0.32893 0.0
C441 C 0.59072 0.09066 0.37786 0.0
C442 C 0.55565 0.10218 0.30044 0.0
C443 C 0.57827 0.06979 0.28935 0.0
C444 C 0.5903 0.08709 0.34662 0.0
C445 C 0.60853 1.04813 0.30706 0.0
C446 C 0.6127 0.06193 0.39649 0.0
C447 C 0.55909 0.12068 0.41727 0.0
N448 N 0.61322 0.05667 0.33502 0.0
N449 N 0.56534 0.11949 0.38896 0.0
H450 H 0.53406 0.67439 0.74115 0.0
H451 H 0.49855 0.60242 0.60228 0.0
H452 H 0.66018 0.61285 0.73854 0.0
H453 H 0.65549 0.62832 0.59927 0.0
H454 H 0.50329 0.62038 0.65237 0.0
H455 H 0.52485 0.67013 0.68963 0.0
C456 C 0.55973 0.65984 0.72973 0.0
C457 C 0.59771 0.6436 0.74418 0.0
C458 C 0.53683 0.6237 0.64059 0.0
C459 C 0.58747 0.6387 0.68518 0.0
C460 C 0.53401 0.61379 0.612 0.0
C461 C 0.57673 0.61544 0.5966 0.0
C462 C 0.58279 0.63408 0.65404 0.0
C463 C 0.62192 0.6281 0.61037 0.0
C464 C 0.5543 0.65723 0.70034 0.0
C465 C 0.63013 0.6254 0.72827 0.0
N466 N 0.62381 0.63617 0.63844 0.0
N467 N 0.62446 0.62371 0.69962 0.0
H468 H 0.57122 0.14279 0.60449 0.0
H469 H 0.35561 0.98813 0.69322 0.0
H470 H 0.54884 0.99527 0.60685 0.0
H471 H 0.42642 0.123 0.7165 0.0
H472 H 0.42414 0.98837 0.66103 0.0
H473 H 0.517 0.13599 0.64516 0.0
C474 C 0.55563 0.10894 0.61412 0.0
C475 C 0.56477 0.06954 0.60274 0.0
C476 C 0.42471 1.01778 0.67331 0.0
C477 C 0.50118 0.0613 0.64848 0.0
C478 C 0.38564 1.01772 0.69142 0.0
C479 C 0.38467 0.05637 0.70643 0.0
C480 C 0.46274 0.05692 0.67028 0.0
C481 C 0.42485 0.09347 0.70421 0.0
C482 C 0.5246 0.10503 0.63725 0.0
C483 C 0.54315 1.02639 0.6155 0.0
N484 N 0.46186 0.09316 0.68611 0.0
N485 N 0.51145 1.0233 0.63748 0.0
H486 H 0.59654 0.64028 0.90953 0.0
H487 H 0.62569 0.50443 0.05739 0.0
H488 H 0.66298 0.52193 0.91667 0.0
H489 H 0.59469 0.63997 0.0499 0.0
H490 H 0.64546 0.51172 0.00651 0.0
H491 H 0.59926 0.64223 0.96118 0.0
C492 C 0.61199 0.61487 0.922 0.0
C493 C 0.6292 0.58069 0.90886 0.0
C494 C 0.63528 0.54028 0.01608 0.0
C495 C 0.63218 0.58241 0.96805 0.0
C496 C 0.62447 0.53618 0.04508 0.0
C497 C 0.60834 0.57156 0.0575 0.0
C498 C 0.62929 0.57985 -0.00046 0.0
C499 C 0.60667 0.61191 0.04082 0.0
C500 C 0.61372 0.61606 0.95149 0.0
C501 C 0.64907 0.54872 0.92601 0.0
N502 N 0.61619 0.61472 0.0126 0.0
N503 N 0.6495 0.55001 0.95476 0.0
H504 H 0.09864 0.50987 0.23362 0.0
H505 H 1.00318 0.60591 0.37112 0.0
H506 H 0.99653 0.60012 0.23162 0.0
H507 H 0.10271 0.51377 0.37587 0.0
H508 H 0.99123 0.59461 0.32039 0.0
H509 H 0.09322 0.50219 0.2857 0.0
C510 C 0.07475 0.52768 0.24412 0.0
C511 C 0.04848 0.55615 0.22831 0.0
C512 C 1.01498 0.57599 0.33249 0.0
C513 C 0.04201 0.54753 0.28775 0.0
C514 C 1.02127 0.58214 0.36145 0.0
C515 C 0.05341 0.56029 0.37747 0.0
C516 C 0.04186 0.54841 0.3193 0.0
C517 C 0.07709 0.53059 0.3641 0.0
C518 C 0.07163 0.52329 0.27383 0.0
C519 C 1.01787 0.57822 0.24296 0.0
N520 N 0.07142 0.52597 0.33565 0.0
N521 N 1.01579 0.57374 0.27176 0.0
loop_
_geom_bond_atom_site_label_1
_geom_bond_atom_site_label_2
_geom_bond_distance
_geom_bond_site_symmetry_2
_ccdc_geom_bond_type
Pr0 C2 2.880 . S
Pr0 O20 2.562 . S
Pr0 O21 2.490 . S
Pr0 O22 2.695 1_655 S
Pr0 O23 2.512 . S
Pr0 O25 2.437 . S
Pr0 O28 2.436 . S
Pr0 O30 2.438 1_655 S
Pr1 C11 2.880 . S
Pr1 O22 2.436 . S
Pr1 O24 2.438 1_455 S
Pr1 O26 2.562 . S
Pr1 O27 2.490 . S
Pr1 O28 2.695 1_455 S
Pr1 O29 2.512 . S
Pr1 O31 2.437 . S
C2 Pr0 2.880 . S
C2 C3 1.491 . S
C2 O20 1.254 . S
C2 O21 1.225 . S
C3 C2 1.491 . S
C3 C4 1.392 . S
C3 C8 1.356 . S
C4 C3 1.392 . S
C4 C5 1.368 . S
C4 H32 0.929 . S
C5 C4 1.368 . S
C5 C6 1.386 . S
C5 H33 0.929 . S
C6 C5 1.386 . S
C6 C7 1.373 . S
C7 C6 1.373 . S
C7 C8 1.409 . S
C7 H34 0.931 . S
C8 C3 1.356 . S
C8 C7 1.409 . S
C8 H35 0.930 . S
C9 O22 1.270 . S
C9 O23 1.248 1_455 S
C10 O24 1.267 . S
C10 O25 1.278 . S
C11 Pr1 2.880 . S
C11 C12 1.491 . S
C11 O26 1.254 . S
C11 O27 1.225 . S
C12 C11 1.491 . S
C12 C13 1.392 . S
C12 C17 1.356 . S
C13 C12 1.392 . S
C13 C14 1.368 . S
C13 H36 0.929 . S
C14 C13 1.368 . S
C14 C15 1.386 . S
C14 H37 0.929 . S
C15 C14 1.386 . S
C15 C16 1.373 . S
C16 C15 1.373 . S
C16 C17 1.409 . S
C16 H38 0.931 . S
C17 C12 1.356 . S
C17 C16 1.409 . S
C17 H39 0.930 . S
C18 O28 1.270 1_455 S
C18 O29 1.248 . S
C19 O30 1.267 . S
C19 O31 1.278 . S
O20 Pr0 2.562 . S
O20 C2 1.254 . S
O21 Pr0 2.490 . S
O21 C2 1.225 . S
O22 Pr0 2.695 1_455 S
O22 Pr1 2.436 . S
O22 C9 1.270 . S
O23 Pr0 2.512 . S
O23 C9 1.248 1_655 S
O24 Pr1 2.438 1_655 S
O24 C10 1.267 . S
O25 Pr0 2.437 . S
O25 C10 1.278 . S
O26 Pr1 2.562 . S
O26 C11 1.254 . S
O27 Pr1 2.490 . S
O27 C11 1.225 . S
O28 Pr0 2.436 . S
O28 Pr1 2.695 1_655 S
O28 C18 1.270 1_655 S
O29 Pr1 2.512 . S
O29 C18 1.248 . S
O30 Pr0 2.438 1_455 S
O30 C19 1.267 . S
O31 Pr1 2.437 . S
O31 C19 1.278 . S
H32 C4 0.929 . S
H33 C5 0.929 . S
H34 C7 0.931 . S
H35 C8 0.930 . S
H36 C13 0.929 . S
H37 C14 0.929 . S
H38 C16 0.931 . S
H39 C17 0.930 . S
Pr40 C42 2.880 . S
Pr40 O60 2.562 . S
Pr40 O61 2.490 . S
Pr40 O62 2.695 . S
Pr40 O63 2.512 . S
Pr40 O65 2.437 . S
Pr40 O68 2.436 . S
Pr40 O70 2.438 1_545 S
Pr41 C51 2.880 . S
Pr41 O62 2.436 1_565 S
Pr41 O64 2.438 1_565 S
Pr41 O66 2.562 . S
Pr41 O67 2.490 . S
Pr41 O68 2.695 1_565 S
Pr41 O69 2.512 . S
Pr41 O71 2.437 . S
C42 Pr40 2.880 . S
C42 C43 1.491 . S
C42 O60 1.254 . S
C42 O61 1.225 . S
C43 C42 1.491 . S
C43 C44 1.392 . S
C43 C48 1.356 . S
C44 C43 1.392 . S
C44 C45 1.368 . S
C44 H72 0.929 . S
C45 C44 1.368 . S
C45 C46 1.386 . S
C45 H73 0.929 . S
C46 C45 1.386 . S
C46 C47 1.373 . S
C47 C46 1.373 . S
C47 C48 1.409 . S
C47 H74 0.931 . S
C48 C43 1.356 . S
C48 C47 1.409 . S
C48 H75 0.930 . S
C49 O62 1.270 . S
C49 O63 1.248 . S
C50 O64 1.267 . S
C50 O65 1.278 . S
C51 Pr41 2.880 . S
C51 C52 1.491 . S
C51 O66 1.254 . S
C51 O67 1.225 . S
C52 C51 1.491 . S
C52 C53 1.392 . S
C52 C57 1.356 . S
C53 C52 1.392 . S
C53 C54 1.368 . S
C53 H76 0.929 . S
C54 C53 1.368 . S
C54 C55 1.386 . S
C54 H77 0.929 . S
C55 C54 1.386 . S
C55 C56 1.373 . S
C56 C55 1.373 . S
C56 C57 1.409 . S
C56 H78 0.931 . S
C57 C52 1.356 . S
C57 C56 1.409 . S
C57 H79 0.930 . S
C58 O68 1.270 . S
C58 O69 1.248 1_545 S
C59 O70 1.267 . S
C59 O71 1.278 . S
O60 Pr40 2.562 . S
O60 C42 1.254 . S
O61 Pr40 2.490 . S
O61 C42 1.225 . S
O62 Pr40 2.695 . S
O62 Pr41 2.436 1_545 S
O62 C49 1.270 . S
O63 Pr40 2.512 . S
O63 C49 1.248 . S
O64 Pr41 2.438 1_545 S
O64 C50 1.267 . S
O65 Pr40 2.437 . S
O65 C50 1.278 . S
O66 Pr41 2.562 . S
O66 C51 1.254 . S
O67 Pr41 2.490 . S
O67 C51 1.225 . S
O68 Pr40 2.436 . S
O68 Pr41 2.695 1_545 S
O68 C58 1.270 . S
O69 Pr41 2.512 . S
O69 C58 1.248 1_565 S
O70 Pr40 2.438 1_565 S
O70 C59 1.267 . S
O71 Pr41 2.437 . S
O71 C59 1.278 . S
H72 C44 0.929 . S
H73 C45 0.929 . S
H74 C47 0.931 . S
H75 C48 0.930 . S
H76 C53 0.929 . S
H77 C54 0.929 . S
H78 C56 0.931 . S
H79 C57 0.930 . S
Pr80 C82 2.880 . S
Pr80 O100 2.562 . S
Pr80 O101 2.490 . S
Pr80 O102 2.695 . S
Pr80 O103 2.512 . S
Pr80 O105 2.437 . S
Pr80 O108 2.436 . S
Pr80 O110 2.438 . S
Pr81 C91 2.880 . S
Pr81 O102 2.436 . S
Pr81 O104 2.438 . S
Pr81 O106 2.562 . S
Pr81 O107 2.490 . S
Pr81 O108 2.695 . S
Pr81 O109 2.512 . S
Pr81 O111 2.437 . S
C82 Pr80 2.880 . S
C82 C83 1.491 . S
C82 O100 1.254 . S
C82 O101 1.225 . S
C83 C82 1.491 . S
C83 C84 1.392 . S
C83 C88 1.356 . S
C84 C83 1.392 . S
C84 C85 1.368 . S
C84 H112 0.929 . S
C85 C84 1.368 . S
C85 C86 1.386 . S
C85 H113 0.929 . S
C86 C85 1.386 . S
C86 C87 1.373 . S
C87 C86 1.373 . S
C87 C88 1.409 . S
C87 H114 0.931 . S
C88 C83 1.356 . S
C88 C87 1.409 . S
C88 H115 0.930 . S
C89 O102 1.270 . S
C89 O103 1.248 . S
C90 O104 1.267 . S
C90 O105 1.278 . S
C91 Pr81 2.880 . S
C91 C92 1.491 . S
C91 O106 1.254 . S
C91 O107 1.225 . S
C92 C91 1.491 . S
C92 C93 1.392 . S
C92 C97 1.356 . S
C93 C92 1.392 . S
C93 C94 1.368 . S
C93 H116 0.929 . S
C94 C93 1.368 . S
C94 C95 1.386 . S
C94 H117 0.929 . S
C95 C94 1.386 . S
C95 C96 1.373 . S
C96 C95 1.373 . S
C96 C97 1.409 . S
C96 H118 0.931 . S
C97 C92 1.356 . S
C97 C96 1.409 . S
C97 H119 0.930 . S
C98 O108 1.270 . S
C98 O109 1.248 . S
C99 O110 1.267 . S
C99 O111 1.278 . S
O100 Pr80 2.562 . S
O100 C82 1.254 . S
O101 Pr80 2.490 . S
O101 C82 1.225 . S
O102 Pr80 2.695 . S
O102 Pr81 2.436 . S
O102 C89 1.270 . S
O103 Pr80 2.512 . S
O103 C89 1.248 . S
O104 Pr81 2.438 . S
O104 C90 1.267 . S
O105 Pr80 2.437 . S
O105 C90 1.278 . S
O106 Pr81 2.562 . S
O106 C91 1.254 . S
O107 Pr81 2.490 . S
O107 C91 1.225 . S
O108 Pr80 2.436 . S
O108 Pr81 2.695 . S
O108 C98 1.270 . S
O109 Pr81 2.512 . S
O109 C98 1.248 . S
O110 Pr80 2.438 . S
O110 C99 1.267 . S
O111 Pr81 2.437 . S
O111 C99 1.278 . S
H112 C84 0.929 . S
H113 C85 0.929 . S
H114 C87 0.931 . S
H115 C88 0.930 . S
H116 C93 0.929 . S
H117 C94 0.929 . S
H118 C96 0.931 . S
H119 C97 0.930 . S
C120 N121 1.317 . S
C120 N122 1.348 1_545 S
C120 C123 1.485 . S
N121 C120 1.317 . S
N121 N125 1.370 . S
N122 C120 1.348 1_565 S
N122 C124 1.346 . S
C123 C120 1.485 . S
C123 H127 0.960 . S
C123 H128 0.961 1_545 S
C123 H129 0.960 . S
C124 N122 1.346 . S
C124 N125 1.307 1_565 S
C124 C126 1.486 . S
N125 N121 1.370 . S
N125 C124 1.307 1_545 S
C126 C124 1.486 . S
C126 H130 0.960 . S
C126 H131 0.960 . S
C126 H132 0.959 . S
H127 C123 0.960 . S
H128 C123 0.961 1_565 S
H129 C123 0.960 . S
H130 C126 0.960 . S
H131 C126 0.960 . S
H132 C126 0.959 . S
C133 N134 1.317 . S
C133 N135 1.348 . S
C133 C136 1.485 . S
N134 C133 1.317 . S
N134 N138 1.370 . S
N135 C133 1.348 . S
N135 C137 1.346 . S
C136 C133 1.485 . S
C136 H140 0.960 . S
C136 H141 0.961 . S
C136 H142 0.960 . S
C137 N135 1.346 . S
C137 N138 1.307 . S
C137 C139 1.486 . S
N138 N134 1.370 . S
N138 C137 1.307 . S
C139 C137 1.486 . S
C139 H143 0.960 . S
C139 H144 0.960 . S
C139 H145 0.959 . S
H140 C136 0.960 . S
H141 C136 0.961 . S
H142 C136 0.960 . S
H143 C139 0.960 . S
H144 C139 0.960 . S
H145 C139 0.959 . S
C146 N147 1.317 . S
C146 N148 1.348 1_455 S
C146 C149 1.485 . S
N147 C146 1.317 . S
N147 N151 1.370 . S
N148 C146 1.348 1_655 S
N148 C150 1.346 . S
C149 C146 1.485 . S
C149 H153 0.960 . S
C149 H154 0.961 . S
C149 H155 0.960 . S
C150 N148 1.346 . S
C150 N151 1.307 1_655 S
C150 C152 1.486 . S
N151 N147 1.370 . S
N151 C150 1.307 1_455 S
C152 C150 1.486 . S
C152 H156 0.960 . S
C152 H157 0.960 . S
C152 H158 0.959 . S
H153 C149 0.960 . S
H154 C149 0.961 . S
H155 C149 0.960 . S
H156 C152 0.960 . S
H157 C152 0.960 . S
H158 C152 0.959 . S
C159 N160 1.317 . S
C159 N161 1.348 . S
C159 C162 1.485 . S
N160 C159 1.317 . S
N160 N164 1.370 . S
N161 C159 1.348 . S
N161 C163 1.346 . S
C162 C159 1.485 . S
C162 H166 0.960 . S
C162 H167 0.961 . S
C162 H168 0.960 . S
C163 N161 1.346 . S
C163 N164 1.307 . S
C163 C165 1.486 . S
N164 N160 1.370 . S
N164 C163 1.307 . S
C165 C163 1.486 . S
C165 H169 0.960 . S
C165 H170 0.960 . S
C165 H171 0.959 . S
H166 C162 0.960 . S
H167 C162 0.961 . S
H168 C162 0.960 . S
H169 C165 0.960 . S
H170 C165 0.960 . S
H171 C165 0.959 . S
C172 N173 1.317 . S
C172 N174 1.348 . S
C172 C175 1.485 . S
N173 C172 1.317 . S
N173 N177 1.370 . S
N174 C172 1.348 . S
N174 C176 1.346 . S
C175 C172 1.485 . S
C175 H179 0.960 . S
C175 H180 0.961 . S
C175 H181 0.960 . S
C176 N174 1.346 . S
C176 N177 1.307 . S
C176 C178 1.486 . S
N177 N173 1.370 . S
N177 C176 1.307 . S
C178 C176 1.486 . S
C178 H182 0.960 . S
C178 H183 0.960 . S
C178 H184 0.959 . S
H179 C175 0.960 . S
H180 C175 0.961 . S
H181 C175 0.960 . S
H182 C178 0.960 . S
H183 C178 0.960 . S
H184 C178 0.959 . S
C185 N186 1.317 . S
C185 N187 1.348 . S
C185 C188 1.485 . S
N186 C185 1.317 . S
N186 N190 1.370 . S
N187 C185 1.348 . S
N187 C189 1.346 . S
C188 C185 1.485 . S
C188 H192 0.960 . S
C188 H193 0.961 . S
C188 H194 0.960 . S
C189 N187 1.346 . S
C189 N190 1.307 . S
C189 C191 1.486 . S
N190 N186 1.370 . S
N190 C189 1.307 . S
C191 C189 1.486 . S
C191 H195 0.960 . S
C191 H196 0.960 . S
C191 H197 0.959 . S
H192 C188 0.960 . S
H193 C188 0.961 . S
H194 C188 0.960 . S
H195 C191 0.960 . S
H196 C191 0.960 . S
H197 C191 0.959 . S
H198 C204 0.930 . S
H199 C208 0.930 . S
H200 C213 0.929 . S
H201 C211 0.929 . S
H202 C206 0.929 . S
H203 C212 0.929 . S
C204 H198 0.930 . S
C204 C205 1.367 . S
C204 C212 1.378 . S
C205 C204 1.367 . S
C205 C213 1.433 . S
C206 H202 0.929 . S
C206 C208 1.378 . S
C206 C210 1.350 . S
C207 C210 1.463 . S
C207 C212 1.350 . S
C207 N215 1.427 . S
C208 H199 0.930 . S
C208 C206 1.378 . S
C208 C209 1.367 . S
C209 C208 1.367 . S
C209 C211 1.433 . S
C210 C206 1.350 . S
C210 C207 1.463 . S
C210 N214 1.427 . S
C211 H201 0.929 . S
C211 C209 1.433 . S
C211 N214 1.384 . S
C212 H203 0.929 . S
C212 C204 1.378 . S
C212 C207 1.350 . S
C213 H200 0.929 . S
C213 C205 1.433 . S
C213 N215 1.384 . S
N214 C210 1.427 . S
N214 C211 1.384 . S
N215 C207 1.427 . S
N215 C213 1.384 . S
H216 C222 0.930 . S
H217 C226 0.930 . S
H218 C231 0.929 . S
H219 C229 0.929 . S
H220 C224 0.929 . S
H221 C230 0.929 . S
C222 H216 0.930 . S
C222 C223 1.367 . S
C222 C230 1.378 . S
C223 C222 1.367 . S
C223 C231 1.433 . S
C224 H220 0.929 . S
C224 C226 1.378 . S
C224 C228 1.350 . S
C225 C228 1.463 . S
C225 C230 1.350 . S
C225 N233 1.427 . S
C226 H217 0.930 . S
C226 C224 1.378 . S
C226 C227 1.367 . S
C227 C226 1.367 . S
C227 C229 1.433 1_655 S
C228 C224 1.350 . S
C228 C225 1.463 . S
C228 N232 1.427 . S
C229 H219 0.929 . S
C229 C227 1.433 1_455 S
C229 N232 1.384 1_455 S
C230 H221 0.929 . S
C230 C222 1.378 . S
C230 C225 1.350 . S
C231 H218 0.929 . S
C231 C223 1.433 . S
C231 N233 1.384 . S
N232 C228 1.427 . S
N232 C229 1.384 1_655 S
N233 C225 1.427 . S
N233 C231 1.384 . S
H234 C240 0.930 . S
H235 C244 0.930 . S
H236 C249 0.929 . S
H237 C247 0.929 1_545 S
H238 C242 0.929 . S
H239 C248 0.929 . S
C240 H234 0.930 . S
C240 C241 1.367 . S
C240 C248 1.378 . S
C241 C240 1.367 . S
C241 C249 1.433 . S
C242 H238 0.929 . S
C242 C244 1.378 . S
C242 C246 1.350 . S
C243 C246 1.463 . S
C243 C248 1.350 . S
C243 N251 1.427 . S
C244 H235 0.930 . S
C244 C242 1.378 . S
C244 C245 1.367 1_565 S
C245 C244 1.367 1_545 S
C245 C247 1.433 1_545 S
C246 C242 1.350 . S
C246 C243 1.463 . S
C246 N250 1.427 . S
C247 H237 0.929 1_565 S
C247 C245 1.433 1_565 S
C247 N250 1.384 . S
C248 H239 0.929 . S
C248 C240 1.378 . S
C248 C243 1.350 . S
C249 H236 0.929 . S
C249 C241 1.433 . S
C249 N251 1.384 . S
N250 C246 1.427 . S
N250 C247 1.384 . S
N251 C243 1.427 . S
N251 C249 1.384 . S
H252 C258 0.930 . S
H253 C262 0.930 . S
H254 C267 0.929 . S
H255 C265 0.929 . S
H256 C260 0.929 . S
H257 C266 0.929 . S
C258 H252 0.930 . S
C258 C259 1.367 . S
C258 C266 1.378 . S
C259 C258 1.367 . S
C259 C267 1.433 . S
C260 H256 0.929 . S
C260 C262 1.378 . S
C260 C264 1.350 . S
C261 C264 1.463 . S
C261 C266 1.350 . S
C261 N269 1.427 . S
C262 H253 0.930 . S
C262 C260 1.378 . S
C262 C263 1.367 . S
C263 C262 1.367 . S
C263 C265 1.433 . S
C264 C260 1.350 . S
C264 C261 1.463 . S
C264 N268 1.427 . S
C265 H255 0.929 . S
C265 C263 1.433 . S
C265 N268 1.384 . S
C266 H257 0.929 . S
C266 C258 1.378 . S
C266 C261 1.350 . S
C267 H254 0.929 . S
C267 C259 1.433 . S
C267 N269 1.384 . S
N268 C264 1.427 . S
N268 C265 1.384 . S
N269 C261 1.427 . S
N269 C267 1.384 . S
H270 C276 0.930 . S
H271 C280 0.930 . S
H272 C285 0.929 . S
H273 C283 0.929 . S
H274 C278 0.929 . S
H275 C284 0.929 . S
C276 H270 0.930 . S
C276 C277 1.367 . S
C276 C284 1.378 . S
C277 C276 1.367 . S
C277 C285 1.433 . S
C278 H274 0.929 . S
C278 C280 1.378 . S
C278 C282 1.350 . S
C279 C282 1.463 . S
C279 C284 1.350 . S
C279 N287 1.427 . S
C280 H271 0.930 . S
C280 C278 1.378 . S
C280 C281 1.367 . S
C281 C280 1.367 . S
C281 C283 1.433 . S
C282 C278 1.350 . S
C282 C279 1.463 . S
C282 N286 1.427 . S
C283 H273 0.929 . S
C283 C281 1.433 . S
C283 N286 1.384 . S
C284 H275 0.929 . S
C284 C276 1.378 . S
C284 C279 1.350 . S
C285 H272 0.929 . S
C285 C277 1.433 . S
C285 N287 1.384 . S
N286 C282 1.427 . S
N286 C283 1.384 . S
N287 C279 1.427 . S
N287 C285 1.384 . S
H288 C294 0.930 . S
H289 C298 0.930 . S
H290 C303 0.929 . S
H291 C301 0.929 . S
H292 C296 0.929 . S
H293 C302 0.929 . S
C294 H288 0.930 . S
C294 C295 1.367 . S
C294 C302 1.378 . S
C295 C294 1.367 . S
C295 C303 1.433 . S
C296 H292 0.929 . S
C296 C298 1.378 . S
C296 C300 1.350 . S
C297 C300 1.463 . S
C297 C302 1.350 . S
C297 N305 1.427 . S
C298 H289 0.930 . S
C298 C296 1.378 . S
C298 C299 1.367 . S
C299 C298 1.367 . S
C299 C301 1.433 . S
C300 C296 1.350 . S
C300 C297 1.463 . S
C300 N304 1.427 . S
C301 H291 0.929 . S
C301 C299 1.433 . S
C301 N304 1.384 . S
C302 H293 0.929 . S
C302 C294 1.378 . S
C302 C297 1.350 . S
C303 H290 0.929 . S
C303 C295 1.433 . S
C303 N305 1.384 . S
N304 C300 1.427 . S
N304 C301 1.384 . S
N305 C297 1.427 . S
N305 C303 1.384 . S
H306 C312 0.930 . S
H307 C316 0.930 . S
H308 C321 0.929 . S
H309 C319 0.929 . S
H310 C314 0.929 . S
H311 C320 0.929 . S
C312 H306 0.930 . S
C312 C313 1.367 . S
C312 C320 1.378 . S
C313 C312 1.367 . S
C313 C321 1.433 . S
C314 H310 0.929 . S
C314 C316 1.378 . S
C314 C318 1.350 . S
C315 C318 1.463 . S
C315 C320 1.350 . S
C315 N323 1.427 . S
C316 H307 0.930 . S
C316 C314 1.378 . S
C316 C317 1.367 . S
C317 C316 1.367 . S
C317 C319 1.433 . S
C318 C314 1.350 . S
C318 C315 1.463 . S
C318 N322 1.427 . S
C319 H309 0.929 . S
C319 C317 1.433 . S
C319 N322 1.384 . S
C320 H311 0.929 . S
C320 C312 1.378 . S
C320 C315 1.350 . S
C321 H308 0.929 . S
C321 C313 1.433 . S
C321 N323 1.384 . S
N322 C318 1.427 . S
N322 C319 1.384 . S
N323 C315 1.427 . S
N323 C321 1.384 . S
H324 C330 0.930 . S
H325 C334 0.930 . S
H326 C339 0.929 . S
H327 C337 0.929 . S
H328 C332 0.929 . S
H329 C338 0.929 . S
C330 H324 0.930 . S
C330 C331 1.367 . S
C330 C338 1.378 . S
C331 C330 1.367 . S
C331 C339 1.433 . S
C332 H328 0.929 . S
C332 C334 1.378 . S
C332 C336 1.350 . S
C333 C336 1.463 . S
C333 C338 1.350 . S
C333 N341 1.427 . S
C334 H325 0.930 . S
C334 C332 1.378 . S
C334 C335 1.367 . S
C335 C334 1.367 . S
C335 C337 1.433 . S
C336 C332 1.350 . S
C336 C333 1.463 . S
C336 N340 1.427 . S
C337 H327 0.929 . S
C337 C335 1.433 . S
C337 N340 1.384 . S
C338 H329 0.929 . S
C338 C330 1.378 . S
C338 C333 1.350 . S
C339 H326 0.929 . S
C339 C331 1.433 . S
C339 N341 1.384 . S
N340 C336 1.427 . S
N340 C337 1.384 . S
N341 C333 1.427 . S
N341 C339 1.384 . S
H342 C348 0.930 . S
H343 C352 0.930 . S
H344 C357 0.929 . S
H345 C355 0.929 . S
H346 C350 0.929 . S
H347 C356 0.929 . S
C348 H342 0.930 . S
C348 C349 1.367 . S
C348 C356 1.378 . S
C349 C348 1.367 . S
C349 C357 1.433 . S
C350 H346 0.929 . S
C350 C352 1.378 . S
C350 C354 1.350 . S
C351 C354 1.463 . S
C351 C356 1.350 . S
C351 N359 1.427 . S
C352 H343 0.930 . S
C352 C350 1.378 . S
C352 C353 1.367 . S
C353 C352 1.367 . S
C353 C355 1.433 . S
C354 C350 1.350 . S
C354 C351 1.463 . S
C354 N358 1.427 . S
C355 H345 0.929 . S
C355 C353 1.433 . S
C355 N358 1.384 . S
C356 H347 0.929 . S
C356 C348 1.378 . S
C356 C351 1.350 . S
C357 H344 0.929 . S
C357 C349 1.433 . S
C357 N359 1.384 . S
N358 C354 1.427 . S
N358 C355 1.384 . S
N359 C351 1.427 . S
N359 C357 1.384 . S
H360 C366 0.930 . S
H361 C370 0.930 . S
H362 C375 0.929 . S
H363 C373 0.929 . S
H364 C368 0.929 . S
H365 C374 0.929 . S
C366 H360 0.930 . S
C366 C367 1.367 . S
C366 C374 1.378 . S
C367 C366 1.367 . S
C367 C375 1.433 . S
C368 H364 0.929 . S
C368 C370 1.378 . S
C368 C372 1.350 . S
C369 C372 1.463 . S
C369 C374 1.350 . S
C369 N377 1.427 . S
C370 H361 0.930 . S
C370 C368 1.378 . S
C370 C371 1.367 . S
C371 C370 1.367 . S
C371 C373 1.433 . S
C372 C368 1.350 . S
C372 C369 1.463 . S
C372 N376 1.427 . S
C373 H363 0.929 . S
C373 C371 1.433 . S
C373 N376 1.384 . S
C374 H365 0.929 . S
C374 C366 1.378 . S
C374 C369 1.350 . S
C375 H362 0.929 . S
C375 C367 1.433 . S
C375 N377 1.384 . S
N376 C372 1.427 . S
N376 C373 1.384 . S
N377 C369 1.427 . S
N377 C375 1.384 . S
H378 C384 0.930 . S
H379 C388 0.930 . S
H380 C393 0.929 . S
H381 C391 0.929 . S
H382 C386 0.929 . S
H383 C392 0.929 . S
C384 H378 0.930 . S
C384 C385 1.367 . S
C384 C392 1.378 . S
C385 C384 1.367 . S
C385 C393 1.433 . S
C386 H382 0.929 . S
C386 C388 1.378 . S
C386 C390 1.350 . S
C387 C390 1.463 . S
C387 C392 1.350 . S
C387 N395 1.427 . S
C388 H379 0.930 . S
C388 C386 1.378 . S
C388 C389 1.367 . S
C389 C388 1.367 . S
C389 C391 1.433 . S
C390 C386 1.350 . S
C390 C387 1.463 . S
C390 N394 1.427 . S
C391 H381 0.929 . S
C391 C389 1.433 . S
C391 N394 1.384 . S
C392 H383 0.929 . S
C392 C384 1.378 . S
C392 C387 1.350 . S
C393 H380 0.929 . S
C393 C385 1.433 . S
C393 N395 1.384 . S
N394 C390 1.427 . S
N394 C391 1.384 . S
N395 C387 1.427 . S
N395 C393 1.384 . S
H396 C402 0.930 . S
H397 C406 0.930 . S
H398 C411 0.929 . S
H399 C409 0.929 . S
H400 C404 0.929 . S
H401 C410 0.929 . S
C402 H396 0.930 . S
C402 C403 1.367 . S
C402 C410 1.378 . S
C403 C402 1.367 . S
C403 C411 1.433 . S
C404 H400 0.929 . S
C404 C406 1.378 . S
C404 C408 1.350 . S
C405 C408 1.463 . S
C405 C410 1.350 . S
C405 N413 1.427 . S
C406 H397 0.930 . S
C406 C404 1.378 . S
C406 C407 1.367 . S
C407 C406 1.367 . S
C407 C409 1.433 . S
C408 C404 1.350 . S
C408 C405 1.463 . S
C408 N412 1.427 . S
C409 H399 0.929 . S
C409 C407 1.433 . S
C409 N412 1.384 . S
C410 H401 0.929 . S
C410 C402 1.378 . S
C410 C405 1.350 . S
C411 H398 0.929 . S
C411 C403 1.433 . S
C411 N413 1.384 . S
N412 C408 1.427 . S
N412 C409 1.384 . S
N413 C405 1.427 . S
N413 C411 1.384 . S
H414 C420 0.930 . S
H415 C424 0.930 1_655 S
H416 C429 0.929 . S
H417 C427 0.929 . S
H418 C422 0.929 1_655 S
H419 C428 0.929 . S
C420 H414 0.930 . S
C420 C421 1.367 . S
C420 C428 1.378 . S
C421 C420 1.367 . S
C421 C429 1.433 1_455 S
C422 H418 0.929 1_455 S
C422 C424 1.378 . S
C422 C426 1.350 . S
C423 C426 1.463 1_554 S
C423 C428 1.350 . S
C423 N431 1.427 1_455 S
C424 H415 0.930 1_455 S
C424 C422 1.378 . S
C424 C425 1.367 . S
C425 C424 1.367 . S
C425 C427 1.433 . S
C426 C422 1.350 . S
C426 C423 1.463 1_556 S
C426 N430 1.427 . S
C427 H417 0.929 . S
C427 C425 1.433 . S
C427 N430 1.384 . S
C428 H419 0.929 . S
C428 C420 1.378 . S
C428 C423 1.350 . S
C429 H416 0.929 . S
C429 C421 1.433 1_655 S
C429 N431 1.384 . S
N430 C426 1.427 . S
N430 C427 1.384 . S
N431 C423 1.427 1_655 S
N431 C429 1.384 . S
H432 C438 0.930 . S
H433 C442 0.930 . S
H434 C447 0.929 . S
H435 C445 0.929 . S
H436 C440 0.929 . S
H437 C446 0.929 . S
C438 H432 0.930 . S
C438 C439 1.367 . S
C438 C446 1.378 . S
C439 C438 1.367 . S
C439 C447 1.433 1_545 S
C440 H436 0.929 . S
C440 C442 1.378 . S
C440 C444 1.350 1_565 S
C441 C444 1.463 . S
C441 C446 1.350 . S
C441 N449 1.427 1_545 S
C442 H433 0.930 . S
C442 C440 1.378 . S
C442 C443 1.367 1_565 S
C443 C442 1.367 1_545 S
C443 C445 1.433 . S
C444 C440 1.350 1_545 S
C444 C441 1.463 . S
C444 N448 1.427 . S
C445 H435 0.929 . S
C445 C443 1.433 . S
C445 N448 1.384 . S
C446 H437 0.929 . S
C446 C438 1.378 . S
C446 C441 1.350 . S
C447 H434 0.929 . S
C447 C439 1.433 1_565 S
C447 N449 1.384 . S
N448 C444 1.427 . S
N448 C445 1.384 . S
N449 C441 1.427 1_565 S
N449 C447 1.384 . S
H450 C456 0.930 . S
H451 C460 0.930 . S
H452 C465 0.929 . S
H453 C463 0.929 . S
H454 C458 0.929 . S
H455 C464 0.929 . S
C456 H450 0.930 . S
C456 C457 1.367 . S
C456 C464 1.378 . S
C457 C456 1.367 . S
C457 C465 1.433 . S
C458 H454 0.929 . S
C458 C460 1.378 . S
C458 C462 1.350 . S
C459 C462 1.463 . S
C459 C464 1.350 . S
C459 N467 1.427 . S
C460 H451 0.930 . S
C460 C458 1.378 . S
C460 C461 1.367 . S
C461 C460 1.367 . S
C461 C463 1.433 . S
C462 C458 1.350 . S
C462 C459 1.463 . S
C462 N466 1.427 . S
C463 H453 0.929 . S
C463 C461 1.433 . S
C463 N466 1.384 . S
C464 H455 0.929 . S
C464 C456 1.378 . S
C464 C459 1.350 . S
C465 H452 0.929 . S
C465 C457 1.433 . S
C465 N467 1.384 . S
N466 C462 1.427 . S
N466 C463 1.384 . S
N467 C459 1.427 . S
N467 C465 1.384 . S
H468 C474 0.930 . S
H469 C478 0.930 . S
H470 C483 0.929 . S
H471 C481 0.929 . S
H472 C476 0.929 . S
H473 C482 0.929 . S
C474 H468 0.930 . S
C474 C475 1.367 . S
C474 C482 1.378 . S
C475 C474 1.367 . S
C475 C483 1.433 1_545 S
C476 H472 0.929 . S
C476 C478 1.378 . S
C476 C480 1.350 1_565 S
C477 C480 1.463 . S
C477 C482 1.350 . S
C477 N485 1.427 1_545 S
C478 H469 0.930 . S
C478 C476 1.378 . S
C478 C479 1.367 1_565 S
C479 C478 1.367 1_545 S
C479 C481 1.433 . S
C480 C476 1.350 1_545 S
C480 C477 1.463 . S
C480 N484 1.427 . S
C481 H471 0.929 . S
C481 C479 1.433 . S
C481 N484 1.384 . S
C482 H473 0.929 . S
C482 C474 1.378 . S
C482 C477 1.350 . S
C483 H470 0.929 . S
C483 C475 1.433 1_565 S
C483 N485 1.384 . S
N484 C480 1.427 . S
N484 C481 1.384 . S
N485 C477 1.427 1_565 S
N485 C483 1.384 . S
H486 C492 0.930 . S
H487 C496 0.930 . S
H488 C501 0.929 . S
H489 C499 0.929 . S
H490 C494 0.929 . S
H491 C500 0.929 . S
C492 H486 0.930 . S
C492 C493 1.367 . S
C492 C500 1.378 . S
C493 C492 1.367 . S
C493 C501 1.433 . S
C494 H490 0.929 . S
C494 C496 1.378 . S
C494 C498 1.350 . S
C495 C498 1.463 1_556 S
C495 C500 1.350 . S
C495 N503 1.427 . S
C496 H487 0.930 . S
C496 C494 1.378 . S
C496 C497 1.367 . S
C497 C496 1.367 . S
C497 C499 1.433 . S
C498 C494 1.350 . S
C498 C495 1.463 1_554 S
C498 N502 1.427 . S
C499 H489 0.929 . S
C499 C497 1.433 . S
C499 N502 1.384 . S
C500 H491 0.929 . S
C500 C492 1.378 . S
C500 C495 1.350 . S
C501 H488 0.929 . S
C501 C493 1.433 . S
C501 N503 1.384 . S
N502 C498 1.427 . S
N502 C499 1.384 . S
N503 C495 1.427 . S
N503 C501 1.384 . S
H504 C510 0.930 . S
H505 C514 0.930 . S
H506 C519 0.929 . S
H507 C517 0.929 . S
H508 C512 0.929 . S
H509 C518 0.929 . S
C510 H504 0.930 . S
C510 C511 1.367 . S
C510 C518 1.378 . S
C511 C510 1.367 . S
C511 C519 1.433 1_455 S
C512 H508 0.929 . S
C512 C514 1.378 . S
C512 C516 1.350 . S
C513 C516 1.463 . S
C513 C518 1.350 . S
C513 N521 1.427 . S
C514 H505 0.930 . S
C514 C512 1.378 . S
C514 C515 1.367 . S
C515 C514 1.367 . S
C515 C517 1.433 . S
C516 C512 1.350 . S
C516 C513 1.463 . S
C516 N520 1.427 . S
C517 H507 0.929 . S
C517 C515 1.433 . S
C517 N520 1.384 . S
C518 H509 0.929 . S
C518 C510 1.378 . S
C518 C513 1.350 . S
C519 H506 0.929 . S
C519 C511 1.433 1_655 S
C519 N521 1.384 1_655 S
N520 C516 1.427 . S
N520 C517 1.384 . S
N521 C513 1.427 . S
N521 C519 1.384 1_455 S
C205 C19 1.648 . S
C209 N187 1.616 . S
C223 C46 1.218 . S
C227 N160 1.216 1_655 S
C241 C95 0.415 . S
C245 N173 0.323 . S
C259 C10 2.144 . S
C263 N186 2.191 . S
C281 N161 1.381 . S
C277 C55 1.351 . S
C299 N174 0.719 . S
C295 C86 0.726 . S
C313 C59 2.994 . S
C317 N134 2.993 . S
C331 C90 1.706 . S
C335 N148 1.682 . S
C349 C15 1.342 . S
C353 N122 1.379 . S
C371 N135 3.054 . S
C367 C50 3.045 . S
C389 N147 2.150 . S
C385 C99 2.125 . S
C403 C6 1.087 . S
C407 N121 1.091 . S
C425 N151 1.446 . S
C421 C9 1.457 . S
C439 C58 1.513 . S
C443 N125 1.604 . S
C457 C98 1.702 . S
C461 N138 1.731 . S
C479 N177 1.329 . S
C475 C49 1.315 . S
C497 N190 1.426 . S
C493 C89 1.402 . S
C511 C18 1.463 . S
C515 N164 1.523 . S
