# Generated by pormake.
# Topology pyr, (3,6)-cn, num edge types: 1
# Building blocks:
#     Node 0, Type 0, BuildingBlock: KAKCAD_clean_linker_0, # of connection points: 3
#     Node 1, Type 0, BuildingBlock: KAKCAD_clean_linker_0, # of connection points: 3
#     Node 2, Type 0, BuildingBlock: KAKCAD_clean_linker_0, # of connection points: 3
#     Node 3, Type 0, BuildingBlock: KAKCAD_clean_linker_0, # of connection points: 3
#     Node 4, Type 0, BuildingBlock: KAKCAD_clean_linker_0, # of connection points: 3
#     Node 5, Type 0, BuildingBlock: KAKCAD_clean_linker_0, # of connection points: 3
#     Node 6, Type 0, BuildingBlock: KAKCAD_clean_linker_0, # of connection points: 3
#     Node 7, Type 0, BuildingBlock: KAKCAD_clean_linker_0, # of connection points: 3
#     Node 8, Type 1, BuildingBlock: GEDQOX_clean_sbu_0, # of connection points: 6
#     Node 9, Type 1, BuildingBlock: GEDQOX_clean_sbu_0, # of connection points: 6
#     Node 10, Type 1, BuildingBlock: GEDQOX_clean_sbu_0, # of connection points: 6
#     Node 11, Type 1, BuildingBlock: GEDQOX_clean_sbu_0, # of connection points: 6
#     Edge 12, Type (0, 1), BuildingBlock: XIVTED_clean_linker_0, # of connection points: 2
#     Edge 13, Type (0, 1), BuildingBlock: XIVTED_clean_linker_0, # of connection points: 2
#     Edge 14, Type (0, 1), BuildingBlock: XIVTED_clean_linker_0, # of connection points: 2
#     Edge 15, Type (0, 1), BuildingBlock: XIVTED_clean_linker_0, # of connection points: 2
#     Edge 16, Type (0, 1), BuildingBlock: XIVTED_clean_linker_0, # of connection points: 2
#     Edge 17, Type (0, 1), BuildingBlock: XIVTED_clean_linker_0, # of connection points: 2
#     Edge 18, Type (0, 1), BuildingBlock: XIVTED_clean_linker_0, # of connection points: 2
#     Edge 19, Type (0, 1), BuildingBlock: XIVTED_clean_linker_0, # of connection points: 2
#     Edge 20, Type (0, 1), BuildingBlock: XIVTED_clean_linker_0, # of connection points: 2
#     Edge 21, Type (0, 1), BuildingBlock: XIVTED_clean_linker_0, # of connection points: 2
#     Edge 22, Type (0, 1), BuildingBlock: XIVTED_clean_linker_0, # of connection points: 2
#     Edge 23, Type (0, 1), BuildingBlock: XIVTED_clean_linker_0, # of connection points: 2
#     Edge 24, Type (0, 1), BuildingBlock: XIVTED_clean_linker_0, # of connection points: 2
#     Edge 25, Type (0, 1), BuildingBlock: XIVTED_clean_linker_0, # of connection points: 2
#     Edge 26, Type (0, 1), BuildingBlock: XIVTED_clean_linker_0, # of connection points: 2
#     Edge 27, Type (0, 1), BuildingBlock: XIVTED_clean_linker_0, # of connection points: 2
#     Edge 28, Type (0, 1), BuildingBlock: XIVTED_clean_linker_0, # of connection points: 2
#     Edge 29, Type (0, 1), BuildingBlock: XIVTED_clean_linker_0, # of connection points: 2
#     Edge 30, Type (0, 1), BuildingBlock: XIVTED_clean_linker_0, # of connection points: 2
#     Edge 31, Type (0, 1), BuildingBlock: XIVTED_clean_linker_0, # of connection points: 2
#     Edge 32, Type (0, 1), BuildingBlock: XIVTED_clean_linker_0, # of connection points: 2
#     Edge 33, Type (0, 1), BuildingBlock: XIVTED_clean_linker_0, # of connection points: 2
#     Edge 34, Type (0, 1), BuildingBlock: XIVTED_clean_linker_0, # of connection points: 2
#     Edge 35, Type (0, 1), BuildingBlock: XIVTED_clean_linker_0, # of connection points: 2
# Relax obj value: 0.103
# Max RMSD: 0.152
# Mean RMSD: 0.061
data_MOF--net-pyr--node1-GEDQOX_clean_sbu_0--node2-KAKCAD_clean_linker_0--edge1-XIVTED_clean_linker_0
_symmetry_space_group_name_H-M    P1
_symmetry_Int_Tables_number       1
_symmetry_cell_setting            triclinic
loop_
_symmetry_equiv_pos_as_xyz
'x, y, z'
_cell_length_a     48.600382
_cell_length_b     49.174567
_cell_length_c     43.021177
_cell_angle_alpha  87.703935
_cell_angle_beta   90.729552
_cell_angle_gamma 86.903821
loop_
_atom_site_label
_atom_site_type_symbol
_atom_site_fract_x
_atom_site_fract_y
_atom_site_fract_z
_atom_type_partial_charge
C0 C 0.13465 0.14768 0.24987 0.0
C1 C 0.14972 0.13163 0.27278 0.0
C2 C 0.14776 0.15987 0.2242 0.0
C3 C 0.17664 0.15692 0.22049 0.0
C4 C 0.19169 0.14079 0.2435 0.0
C5 C 0.17849 0.12828 0.26897 0.0
C6 C 0.19082 0.17081 0.19315 0.0
C7 C 0.17975 0.19586 0.17964 0.0
C8 C 0.19215 0.20925 0.15411 0.0
C9 C 0.21696 0.19717 0.14235 0.0
C10 C 0.22902 0.17209 0.15524 0.0
C11 C 0.21538 0.15926 0.18044 0.0
C12 C 0.25572 0.15904 0.14265 0.0
C13 C 0.26218 0.16062 0.11069 0.0
C14 C 0.27506 0.14432 0.1626 0.0
C15 C 0.2995 0.13168 0.15121 0.0
C16 C 0.30595 0.13308 0.11926 0.0
C17 C 0.17877 0.23584 0.14021 0.0
C18 C 0.14983 0.23953 0.13706 0.0
C19 C 0.19434 0.2581 0.13094 0.0
C20 C 0.18144 0.28318 0.11971 0.0
C21 C 0.15239 0.28702 0.11698 0.0
C22 C 0.13697 0.26443 0.12564 0.0
C23 C 0.28667 0.14787 0.09925 0.0
H24 H 0.11247 0.15048 0.25144 0.0
H25 H 0.13497 0.17137 0.20701 0.0
H26 H 0.21389 0.13815 0.2423 0.0
H27 H 0.19103 0.1164 0.28612 0.0
H28 H 0.16159 0.20555 0.18961 0.0
H29 H 0.2236 0.13967 0.1897 0.0
H30 H 0.22686 0.20735 0.12309 0.0
H31 H 0.24806 0.1714 0.09423 0.0
H32 H 0.2715 0.14268 0.18737 0.0
H33 H 0.31319 0.12039 0.16769 0.0
H34 H 0.1369 0.22295 0.14326 0.0
H35 H 0.21659 0.25644 0.13316 0.0
H36 H 0.29058 0.14994 0.07458 0.0
H37 H 0.11475 0.26571 0.12333 0.0
H38 H 0.19442 0.29976 0.11385 0.0
C39 C 0.37911 0.84087 0.84963 0.0
C40 C 0.40747 0.84493 0.85083 0.0
C41 C 0.36844 0.8233 0.82833 0.0
C42 C 0.38582 0.80966 0.80736 0.0
C43 C 0.41433 0.81329 0.80913 0.0
C44 C 0.42503 0.83061 0.83073 0.0
C45 C 0.37409 0.79303 0.78265 0.0
C46 C 0.34899 0.80177 0.76774 0.0
C47 C 0.33852 0.7874 0.74316 0.0
C48 C 0.35309 0.76398 0.73352 0.0
C49 C 0.37789 0.75447 0.74826 0.0
C50 C 0.38832 0.76916 0.77284 0.0
C51 C 0.39303 0.72987 0.73659 0.0
C52 C 0.37842 0.70788 0.72642 0.0
C53 C 0.42174 0.72915 0.7328 0.0
C54 C 0.43522 0.70769 0.71761 0.0
C55 C 0.42028 0.68658 0.7056 0.0
C56 C 0.31271 0.79703 0.72665 0.0
C57 C 0.28839 0.80234 0.74311 0.0
C58 C 0.31209 0.79981 0.69407 0.0
C59 C 0.28752 0.80732 0.67813 0.0
C60 C 0.26287 0.81191 0.69438 0.0
C61 C 0.26364 0.80956 0.72712 0.0
C62 C 0.39178 0.68668 0.71091 0.0
H63 H 0.36515 0.85132 0.86517 0.0
H64 H 0.34648 0.82058 0.82817 0.0
H65 H 0.42833 0.8035 0.79312 0.0
H66 H 0.44696 0.83353 0.83094 0.0
H67 H 0.33806 0.82042 0.77428 0.0
H68 H 0.40735 0.76185 0.78448 0.0
H69 H 0.34511 0.75332 0.71406 0.0
H70 H 0.35637 0.70745 0.72955 0.0
H71 H 0.43365 0.74574 0.74031 0.0
H72 H 0.45729 0.70802 0.71469 0.0
H73 H 0.28836 0.80012 0.76826 0.0
H74 H 0.33069 0.79618 0.68089 0.0
H75 H 0.3794 0.67103 0.70193 0.0
H76 H 0.24505 0.81269 0.7404 0.0
H77 H 0.28794 0.80966 0.65301 0.0
C78 C 0.81158 0.45586 0.87752 0.0
C79 C 0.83192 0.43747 0.891 0.0
C80 C 0.78618 0.44672 0.86804 0.0
C81 C 0.78065 0.41904 0.87189 0.0
C82 C 0.80112 0.40067 0.88504 0.0
C83 C 0.82644 0.40977 0.8945 0.0
C84 C 0.75374 0.40911 0.86214 0.0
C85 C 0.74148 0.41795 0.83343 0.0
C86 C 0.7171 0.40689 0.82332 0.0
C87 C 0.70461 0.38749 0.84233 0.0
C88 C 0.71616 0.37892 0.87132 0.0
C89 C 0.74076 0.38979 0.88108 0.0
C90 C 0.70313 0.35745 0.89024 0.0
C91 C 0.67431 0.35771 0.89253 0.0
C92 C 0.71914 0.33531 0.90371 0.0
C93 C 0.70649 0.31308 0.91741 0.0
C94 C 0.67759 0.31253 0.91781 0.0
C95 C 0.70454 0.41484 0.79267 0.0
C96 C 0.69685 0.44219 0.78497 0.0
C97 C 0.69797 0.39465 0.77209 0.0
C98 C 0.68287 0.40152 0.74488 0.0
C99 C 0.67371 0.4287 0.73787 0.0
C100 C 0.68143 0.44908 0.75786 0.0
C101 C 0.66167 0.33547 0.90606 0.0
H102 H 0.81511 0.47738 0.87482 0.0
H103 H 0.7707 0.46138 0.85819 0.0
H104 H 0.79769 0.37912 0.8877 0.0
H105 H 0.84188 0.39503 0.90423 0.0
H106 H 0.75145 0.43251 0.81837 0.0
H107 H 0.74975 0.38328 0.90352 0.0
H108 H 0.68594 0.37875 0.8342 0.0
H109 H 0.66146 0.37472 0.88282 0.0
H110 H 0.7414 0.33451 0.90226 0.0
H111 H 0.71934 0.29591 0.92674 0.0
H112 H 0.70159 0.45805 0.80066 0.0
H113 H 0.70402 0.37343 0.77745 0.0
H114 H 0.63938 0.33571 0.90575 0.0
H115 H 0.67453 0.47019 0.75333 0.0
H116 H 0.67793 0.38542 0.72964 0.0
C117 C 0.82296 0.75585 0.20231 0.0
C118 C 0.85032 0.74614 0.1984 0.0
C119 C 0.81641 0.77325 0.22632 0.0
C120 C 0.83718 0.78129 0.24649 0.0
C121 C 0.86483 0.7743 0.24007 0.0
C122 C 0.87136 0.75672 0.21625 0.0
C123 C 0.82992 0.7906 0.27771 0.0
C124 C 0.81364 0.77407 0.29636 0.0
C125 C 0.81022 0.7788 0.32796 0.0
C126 C 0.82218 0.80124 0.34061 0.0
C127 C 0.8388 0.81802 0.32241 0.0
C128 C 0.84261 0.8125 0.29083 0.0
C129 C 0.85361 0.83993 0.33715 0.0
C130 C 0.85703 0.86506 0.32124 0.0
C131 C 0.86449 0.83574 0.36754 0.0
C132 C 0.87762 0.8564 0.38203 0.0
C133 C 0.88064 0.88157 0.36634 0.0
C134 C 0.79732 0.75813 0.3482 0.0
C135 C 0.77377 0.74553 0.33799 0.0
C136 C 0.81033 0.7487 0.37627 0.0
C137 C 0.80064 0.72641 0.39311 0.0
C138 C 0.77782 0.71308 0.38215 0.0
C139 C 0.76413 0.72321 0.35478 0.0
C140 C 0.87059 0.88566 0.33567 0.0
H141 H 0.80638 0.74797 0.18887 0.0
H142 H 0.79493 0.77846 0.23087 0.0
H143 H 0.8812 0.7801 0.25539 0.0
H144 H 0.89265 0.74969 0.21338 0.0
H145 H 0.80552 0.75602 0.28678 0.0
H146 H 0.8563 0.8244 0.27679 0.0
H147 H 0.819 0.8052 0.36494 0.0
H148 H 0.84879 0.869 0.2979 0.0
H149 H 0.86305 0.81639 0.38017 0.0
H150 H 0.88567 0.8526 0.4055 0.0
H151 H 0.76316 0.75256 0.31662 0.0
H152 H 0.8288 0.7577 0.38448 0.0
H153 H 0.87266 0.90499 0.32317 0.0
H154 H 0.74611 0.71371 0.34616 0.0
H155 H 0.81168 0.71895 0.41404 0.0
C156 C 0.90784 0.88169 0.76132 0.0
C157 C 0.90655 0.91034 0.75673 0.0
C158 C 0.89487 0.86884 0.78665 0.0
C159 C 0.88018 0.88399 0.8089 0.0
C160 C 0.87885 0.91265 0.80437 0.0
C161 C 0.89167 0.92552 0.77884 0.0
C162 C 0.86655 0.86988 0.83646 0.0
C163 C 0.87818 0.84498 0.84979 0.0
C164 C 0.86556 0.83052 0.87447 0.0
C165 C 0.84067 0.84225 0.88649 0.0
C166 C 0.82867 0.86764 0.8745 0.0
C167 C 0.8419 0.88096 0.84941 0.0
C168 C 0.80223 0.88034 0.88777 0.0
C169 C 0.77964 0.86458 0.89545 0.0
C170 C 0.79905 0.90862 0.89239 0.0
C171 C 0.77441 0.92064 0.90413 0.0
C172 C 0.75163 0.90499 0.91129 0.0
C173 C 0.87877 0.80335 0.88737 0.0
C174 C 0.89424 0.78575 0.86811 0.0
C175 C 0.87674 0.79477 0.91899 0.0
C176 C 0.88988 0.76999 0.93078 0.0
C177 C 0.90582 0.75282 0.91156 0.0
C178 C 0.90757 0.76122 0.87995 0.0
C179 C 0.7548 0.87668 0.90669 0.0
H180 H 0.91924 0.8689 0.74553 0.0
H181 H 0.89623 0.8468 0.78848 0.0
H182 H 0.86815 0.92538 0.82079 0.0
H183 H 0.88956 0.94751 0.7764 0.0
H184 H 0.89775 0.83709 0.8413 0.0
H185 H 0.83238 0.89974 0.83932 0.0
H186 H 0.83055 0.83168 0.9053 0.0
H187 H 0.78092 0.84284 0.89217 0.0
H188 H 0.81582 0.92161 0.8871 0.0
H189 H 0.77304 0.94244 0.90699 0.0
H190 H 0.89594 0.7907 0.8435 0.0
H191 H 0.86548 0.80746 0.935 0.0
H192 H 0.73807 0.86369 0.91205 0.0
H193 H 0.919 0.74857 0.86401 0.0
H194 H 0.88804 0.76464 0.95529 0.0
C195 C 0.67356 0.17654 0.20587 0.0
C196 C 0.65247 0.18594 0.1848 0.0
C197 C 0.68541 0.19428 0.22603 0.0
C198 C 0.67681 0.22207 0.2255 0.0
C199 C 0.65588 0.2316 0.20426 0.0
C200 C 0.64382 0.21374 0.18418 0.0
C201 C 0.68965 0.24078 0.24724 0.0
C202 C 0.718 0.23741 0.25461 0.0
C203 C 0.73015 0.2534 0.27681 0.0
C204 C 0.71378 0.27379 0.29067 0.0
C205 C 0.68569 0.27804 0.28313 0.0
C206 C 0.67361 0.26127 0.26169 0.0
C207 C 0.66918 0.29924 0.29934 0.0
C208 C 0.64492 0.2929 0.31478 0.0
C209 C 0.67919 0.32533 0.30196 0.0
C210 C 0.66593 0.34432 0.3207 0.0
C211 C 0.64242 0.33763 0.33746 0.0
C212 C 0.75921 0.24758 0.28756 0.0
C213 C 0.77003 0.22052 0.29156 0.0
C214 C 0.77556 0.2688 0.29657 0.0
C215 C 0.80127 0.26302 0.31094 0.0
C216 C 0.81144 0.23594 0.31604 0.0
C217 C 0.79593 0.21479 0.30547 0.0
C218 C 0.63169 0.3119 0.33374 0.0
H219 H 0.68111 0.15539 0.20676 0.0
H220 H 0.70114 0.18603 0.24236 0.0
H221 H 0.6489 0.25291 0.20297 0.0
H222 H 0.62745 0.22169 0.16851 0.0
H223 H 0.73069 0.22218 0.24311 0.0
H224 H 0.65171 0.26398 0.25668 0.0
H225 H 0.72256 0.28567 0.30862 0.0
H226 H 0.63694 0.27283 0.31339 0.0
H227 H 0.69769 0.33082 0.28999 0.0
H228 H 0.67436 0.36416 0.32239 0.0
H229 H 0.75796 0.2036 0.28539 0.0
H230 H 0.76821 0.28991 0.29323 0.0
H231 H 0.61373 0.306 0.34646 0.0
H232 H 0.80319 0.1937 0.30942 0.0
H233 H 0.81301 0.2797 0.31859 0.0
C234 C 0.23301 0.59929 0.17983 0.0
C235 C 0.22767 0.59853 0.14769 0.0
C236 C 0.25849 0.60687 0.19086 0.0
C237 C 0.27915 0.61399 0.17 0.0
C238 C 0.27388 0.61324 0.13787 0.0
C239 C 0.24843 0.60553 0.12683 0.0
C240 C 0.30594 0.62265 0.18174 0.0
C241 C 0.31948 0.60837 0.20706 0.0
C242 C 0.34462 0.61686 0.21834 0.0
C243 C 0.35595 0.63994 0.20487 0.0
C244 C 0.3424 0.65478 0.18023 0.0
C245 C 0.31768 0.64579 0.16827 0.0
C246 C 0.35372 0.6804 0.16854 0.0
C247 C 0.36057 0.69995 0.18976 0.0
C248 C 0.35942 0.68477 0.13689 0.0
C249 C 0.37323 0.70775 0.12693 0.0
C250 C 0.38131 0.72666 0.14852 0.0
C251 C 0.35902 0.60273 0.2451 0.0
C252 C 0.34848 0.60523 0.27509 0.0
C253 C 0.38526 0.59015 0.24122 0.0
C254 C 0.40119 0.58094 0.26712 0.0
C255 C 0.3913 0.58467 0.29727 0.0
C256 C 0.36462 0.59644 0.30107 0.0
C257 C 0.37408 0.72289 0.17985 0.0
H258 H 0.21732 0.59446 0.19652 0.0
H259 H 0.26183 0.60769 0.21574 0.0
H260 H 0.28956 0.61833 0.12128 0.0
H261 H 0.24515 0.60472 0.10194 0.0
H262 H 0.31073 0.59051 0.21771 0.0
H263 H 0.30702 0.6575 0.14944 0.0
H264 H 0.37521 0.64671 0.21407 0.0
H265 H 0.3559 0.6972 0.21421 0.0
H266 H 0.3543 0.66988 0.12016 0.0
H267 H 0.37856 0.71011 0.10264 0.0
H268 H 0.32839 0.61524 0.27844 0.0
H269 H 0.39379 0.58839 0.2182 0.0
H270 H 0.37932 0.73746 0.1969 0.0
H271 H 0.35654 0.59938 0.32412 0.0
H272 H 0.42178 0.57212 0.2636 0.0
C273 C 0.18185 0.15301 0.70378 0.0
C274 C 0.17089 0.1577 0.67357 0.0
C275 C 0.19552 0.17348 0.71836 0.0
C276 C 0.19813 0.19902 0.70306 0.0
C277 C 0.18612 0.20384 0.67327 0.0
C278 C 0.1729 0.18334 0.65861 0.0
C279 C 0.2135 0.22064 0.71759 0.0
C280 C 0.22938 0.23774 0.6989 0.0
C281 C 0.24174 0.26004 0.71134 0.0
C282 C 0.23965 0.26421 0.74321 0.0
C283 C 0.22417 0.2473 0.76237 0.0
C284 C 0.21096 0.2256 0.74947 0.0
C285 C 0.21808 0.25618 0.79406 0.0
C286 C 0.23963 0.26365 0.81352 0.0
C287 C 0.19078 0.26373 0.80148 0.0
C288 C 0.18538 0.28142 0.82549 0.0
C289 C 0.20719 0.29149 0.84256 0.0
C290 C 0.25366 0.28108 0.69074 0.0
C291 C 0.27761 0.29363 0.69976 0.0
C292 C 0.23951 0.29069 0.66341 0.0
C293 C 0.24863 0.31294 0.64604 0.0
C294 C 0.27203 0.32607 0.65568 0.0
C295 C 0.2867 0.3159 0.68241 0.0
C296 C 0.23419 0.28112 0.83777 0.0
H297 H 0.1805 0.13332 0.71571 0.0
H298 H 0.20459 0.16908 0.74126 0.0
H299 H 0.18689 0.22352 0.66117 0.0
H300 H 0.16412 0.18758 0.63553 0.0
H301 H 0.23161 0.23418 0.67434 0.0
H302 H 0.19784 0.21344 0.76396 0.0
H303 H 0.24811 0.28213 0.75271 0.0
H304 H 0.26085 0.25804 0.80813 0.0
H305 H 0.17384 0.2584 0.78669 0.0
H306 H 0.16436 0.28907 0.82899 0.0
H307 H 0.28907 0.28649 0.72054 0.0
H308 H 0.22069 0.28176 0.65616 0.0
H309 H 0.25133 0.28867 0.85059 0.0
H310 H 0.30518 0.32523 0.69002 0.0
H311 H 0.2368 0.32043 0.62565 0.0
Nd312 Nd 0.04206 0.99618 0.50823 0.0
Nd313 Nd 1.01251 0.04837 0.52133 0.0
C314 C 0.0587 0.94472 0.50169 0.0
C315 C 0.07205 0.92496 0.52423 0.0
C316 C 0.07995 0.89852 0.51574 0.0
C317 C 0.0955 0.88098 0.53645 0.0
C318 C 0.10357 0.88978 0.56583 0.0
C319 C 0.09459 0.91607 0.57449 0.0
C320 C 0.07892 0.93341 0.55394 0.0
C321 C 0.07182 0.02871 0.545 0.0
C322 C 1.00166 0.99913 0.57024 0.0
C323 C 0.99607 0.09987 0.52794 0.0
C324 C 0.98463 0.1203 0.50487 0.0
C325 C 0.97672 0.14674 0.51336 0.0
C326 C 0.96323 0.16507 0.49173 0.0
C327 C 0.95726 0.15707 0.46137 0.0
C328 C 0.96616 0.13072 0.45287 0.0
C329 C 0.97979 0.11259 0.47435 0.0
C330 C 0.9828 0.01549 0.48511 0.0
C331 C 0.05267 0.04532 0.4589 0.0
O332 O 0.03315 0.95238 0.50742 0.0
O333 O 0.07357 0.96521 0.49399 0.0
O334 O 0.08258 1.01407 0.52353 0.0
O335 O 0.04662 0.02492 0.54774 0.0
O336 O 1.01185 0.9839 0.54789 0.0
O337 O 1.0037 0.02586 0.56812 0.0
O338 O 1.02191 0.0919 0.52433 0.0
O339 O 0.9804 0.07953 0.5336 0.0
O340 O 0.97209 0.02994 0.5068 0.0
O341 O 1.00792 0.01956 0.48195 0.0
O342 O 0.04159 0.06076 0.48058 0.0
O343 O 0.05157 0.01852 0.46167 0.0
H344 H 0.07474 0.89172 0.49286 0.0
H345 H 0.10167 0.86074 0.52919 0.0
H346 H 0.10073 0.92383 0.59657 0.0
H347 H 0.07304 0.95387 0.56077 0.0
H348 H 0.98038 0.15298 0.53686 0.0
H349 H 0.95705 0.1853 0.49897 0.0
H350 H 0.96156 0.12354 0.43002 0.0
H351 H 0.98569 0.09215 0.46747 0.0
Nd352 Nd 0.53198 1.00051 0.04093 0.0
Nd353 Nd 0.5251 0.03488 0.99024 0.0
C354 C 0.53934 0.95792 0.08034 0.0
C355 C 0.52353 0.93401 0.08728 0.0
C356 C 0.53604 0.91134 0.10352 0.0
C357 C 0.52134 0.88807 0.10915 0.0
C358 C 0.49386 0.88721 0.09862 0.0
C359 C 0.48148 0.91007 0.08219 0.0
C360 C 0.49625 0.93326 0.07648 0.0
C361 C 0.48672 0.03707 0.04942 0.0
C362 C 0.49474 0.98105 0.98309 0.0
C363 C 0.51918 0.07779 0.95122 0.0
C364 C 0.53637 0.10114 0.94677 0.0
C365 C 0.52512 0.12584 0.93363 0.0
C366 C 0.54095 0.14875 0.93209 0.0
C367 C 0.56822 0.14717 0.94369 0.0
C368 C 0.57943 0.12223 0.95657 0.0
C369 C 0.5636 0.09944 0.95819 0.0
C370 C 0.5705 0.9984 0.98244 0.0
C371 C 0.5626 0.05399 0.04829 0.0
O372 O 0.55001 0.95899 0.0527 0.0
O373 O 0.52796 0.98129 0.08802 0.0
O374 O 0.50638 0.03117 0.06955 0.0
O375 O 0.49161 0.02443 0.02467 0.0
O376 O 0.51189 0.973 1.00589 0.0
O377 O 0.49215 1.00696 0.97461 0.0
O378 O 0.50707 0.07635 0.97805 0.0
O379 O 0.53021 0.05432 0.94341 0.0
O380 O 0.55077 1.00361 0.9622 0.0
O381 O 0.56541 1.01149 1.00679 0.0
O382 O 0.54553 0.06235 0.02549 0.0
O383 O 0.56503 0.02804 0.05638 0.0
H384 H 0.55723 0.91154 0.11162 0.0
H385 H 0.53161 0.87065 0.12142 0.0
H386 H 0.46029 0.91021 0.0741 0.0
H387 H 0.4864 0.95061 0.06361 0.0
H388 H 0.50402 0.12751 0.92505 0.0
H389 H 0.5319 0.16768 0.92181 0.0
H390 H 0.60022 0.12051 0.96611 0.0
H391 H 0.57245 0.0806 0.96894 0.0
Nd392 Nd 0.50258 0.49712 0.51826 0.0
Nd393 Nd 0.55761 0.52619 0.52412 0.0
C394 C 0.45173 0.48502 0.50468 0.0
C395 C 0.42538 0.48187 0.52006 0.0
C396 C 0.40137 0.48065 0.50196 0.0
C397 C 0.37696 0.47303 0.51575 0.0
C398 C 0.37634 0.46629 0.54782 0.0
C399 C 0.40005 0.46954 0.56616 0.0
C400 C 0.42439 0.47732 0.55237 0.0
C401 C 0.53601 0.47885 0.56728 0.0
C402 C 0.50516 0.55146 0.56087 0.0
C403 C 0.60843 0.5396 0.5361 0.0
C404 C 0.63352 0.54582 0.51947 0.0
C405 C 0.65821 0.54746 0.53622 0.0
C406 C 0.68118 0.55784 0.52171 0.0
C407 C 0.67963 0.5669 0.49027 0.0
C408 C 0.65529 0.56344 0.4731 0.0
C409 C 0.63242 0.55292 0.4876 0.0
C410 C 0.52424 0.5434 0.47437 0.0
C411 C 0.55535 0.47076 0.4833 0.0
O412 O 0.46024 0.5098 0.50158 0.0
O413 O 0.47139 0.46675 0.51282 0.0
O414 O 0.51956 0.46309 0.55337 0.0
O415 O 0.53199 0.50308 0.55746 0.0
O416 O 0.48939 0.53591 0.54457 0.0
O417 O 0.53231 0.54843 0.56057 0.0
O418 O 0.60127 0.51431 0.53642 0.0
O419 O 0.5876 0.55737 0.53158 0.0
O420 O 0.53993 0.55975 0.4884 0.0
O421 O 0.52874 0.51949 0.48485 0.0
O422 O 0.57089 0.48616 0.50011 0.0
O423 O 0.52824 0.47441 0.48254 0.0
H424 H 0.40183 0.48434 0.47697 0.0
H425 H 0.35892 0.47118 0.5011 0.0
H426 H 0.40044 0.46427 0.59085 0.0
H427 H 0.4428 0.47833 0.56666 0.0
H428 H 0.65936 0.54188 0.56085 0.0
H429 H 0.69976 0.55981 0.53541 0.0
H430 H 0.65324 0.57046 0.44896 0.0
H431 H 0.61344 0.55171 0.47436 0.0
Nd432 Nd 1.00537 0.51585 0.03655 0.0
Nd433 Nd 0.05424 0.52602 0.99533 0.0
C434 C 0.95554 0.51295 0.05989 0.0
C435 C 0.93552 0.53472 0.06828 0.0
C436 C 0.91186 0.52897 0.08509 0.0
C437 C 0.89445 0.55036 0.0953 0.0
C438 C 0.90038 0.57762 0.0883 0.0
C439 C 0.92364 0.5831 0.07064 0.0
C440 C 0.9412 0.56187 0.06116 0.0
C441 C 0.04719 0.54127 0.06467 0.0
C442 C 1.00566 0.57373 0.99155 0.0
C443 C 0.10413 0.52829 0.97211 0.0
C444 C 0.12387 0.50593 0.96479 0.0
C445 C 0.14926 0.51091 0.95118 0.0
C446 C 0.16685 0.48901 0.94261 0.0
C447 C 0.15935 0.46202 0.94818 0.0
C448 C 0.13424 0.45728 0.96257 0.0
C449 C 0.11654 0.47902 0.97036 0.0
C450 C 1.01229 0.50035 0.96763 0.0
C451 C 0.05402 0.46813 0.04017 0.0
O452 O 0.9605 0.51157 0.03014 0.0
O453 O 0.97806 0.51095 0.07698 0.0
O454 O 0.03286 0.52322 0.07888 0.0
O455 O 0.03827 0.54644 0.03737 0.0
O456 O 0.99113 0.55527 1.00647 0.0
O457 O 0.03246 0.56889 0.98754 0.0
O458 O 0.09907 0.53062 1.00172 0.0
O459 O 0.08168 0.53003 0.95489 0.0
O460 O 1.02628 0.51855 0.9532 0.0
O461 O 1.02157 0.49535 0.99476 0.0
O462 O 0.06858 0.48669 0.02551 0.0
O463 O 1.02718 0.47292 0.04398 0.0
H464 H 0.90735 0.5081 0.0911 0.0
H465 H 0.87676 0.54569 0.1092 0.0
H466 H 0.92915 0.60387 0.06566 0.0
H467 H 0.95983 0.56677 0.0493 0.0
H468 H 0.15511 0.5316 0.94649 0.0
H469 H 0.18601 0.4931 0.93117 0.0
H470 H 0.12757 0.43675 0.96632 0.0
H471 H 0.09668 0.47474 0.9798 0.0
H472 H 0.15981 0.08022 0.3009 0.0
H473 H 0.0502 0.09948 0.4384 0.0
H474 H 0.10693 0.15287 0.30815 0.0
H475 H 0.08686 0.0211 0.41576 0.0
H476 H 0.07331 0.12025 0.39361 0.0
H477 H 0.13635 0.05942 0.34536 0.0
C478 C 0.1434 0.09194 0.31185 0.0
C479 C 0.13552 0.11852 0.30035 0.0
C480 C 0.0763 0.09849 0.39838 0.0
C481 C 0.10829 0.09451 0.35195 0.0
C482 C 0.0631 0.08656 0.4241 0.0
C483 C 0.0664 0.05833 0.43115 0.0
C484 C 0.09344 0.08231 0.37948 0.0
C485 C 0.08347 0.04286 0.41141 0.0
C486 C 0.12983 0.07991 0.33724 0.0
C487 C 0.11372 0.13231 0.31568 0.0
N488 N 0.09636 0.055 0.3868 0.0
N489 N 0.1011 0.1203 0.34057 0.0
H490 H 0.38737 0.89686 0.86078 0.0
H491 H 0.5016 0.92552 0.989 0.0
H492 H 0.45295 0.83821 0.88929 0.0
H493 H 0.45414 0.9899 0.93823 0.0
H494 H 0.47913 0.89202 0.95842 0.0
H495 H 0.40693 0.92992 0.89477 0.0
C496 C 0.40575 0.89088 0.87442 0.0
C497 C 0.4186 0.86477 0.8722 0.0
C498 C 0.4736 0.91347 0.95403 0.0
C499 C 0.44104 0.90245 0.91107 0.0
C500 C 0.48633 0.93264 0.97155 0.0
C501 C 0.47987 0.96062 0.96603 0.0
C502 C 0.45402 0.92226 0.93102 0.0
C503 C 0.45986 0.96857 0.94315 0.0
C504 C 0.41698 0.90979 0.89363 0.0
C505 C 0.44255 0.8582 0.89011 0.0
N506 N 0.44764 0.94948 0.92648 0.0
N507 N 0.45295 0.87688 0.90886 0.0
H508 H 0.67251 0.4738 0.69783 0.0
H509 H 0.54593 0.42804 0.59499 0.0
H510 H 0.63164 0.39915 0.71652 0.0
H511 H 0.57292 0.51022 0.59449 0.0
H512 H 0.58076 0.41485 0.63545 0.0
H513 H 0.63954 0.4854 0.65541 0.0
C514 C 0.65664 0.45985 0.69306 0.0
C515 C 0.65488 0.43547 0.71087 0.0
C516 C 0.57902 0.43575 0.62642 0.0
C517 C 0.61728 0.44848 0.66209 0.0
C518 C 0.5592 0.44324 0.60339 0.0
C519 C 0.55659 0.47021 0.59154 0.0
C520 C 0.59639 0.45538 0.63731 0.0
C521 C 0.57427 0.48918 0.60307 0.0
C522 C 0.63788 0.46644 0.66877 0.0
C523 C 0.63412 0.41796 0.70317 0.0
N524 N 0.59346 0.48139 0.62527 0.0
N525 N 0.61612 0.42482 0.6794 0.0
H526 H 0.87858 0.69979 0.21855 0.0
H527 H 0.87966 0.62541 0.05999 0.0
H528 H 0.83415 0.73607 0.1385 0.0
H529 H 0.88759 0.58231 0.14923 0.0
H530 H 0.86412 0.6668 0.08623 0.0
H531 H 0.88532 0.65749 0.19136 0.0
C532 C 0.87059 0.69893 0.195 0.0
C533 C 0.85617 0.72152 0.1805 0.0
C534 C 0.86871 0.64811 0.09994 0.0
C535 C 0.86338 0.673 0.14945 0.0
C536 C 0.87751 0.62456 0.08504 0.0
C537 C 0.88499 0.60053 0.10256 0.0
C538 C 0.86802 0.64765 0.13254 0.0
C539 C 0.88187 0.60038 0.13489 0.0
C540 C 0.87408 0.67466 0.17969 0.0
C541 C 0.84558 0.71909 0.1503 0.0
N542 N 0.8741 0.62374 0.1489 0.0
N543 N 0.84963 0.69525 0.13555 0.0
H544 H 0.31623 0.10948 0.06204 0.0
H545 H 0.47477 0.06222 0.10352 0.0
H546 H 0.35739 0.12485 0.14849 0.0
H547 H 0.43699 0.04606 1.01553 0.0
H548 H 0.43176 0.08534 0.11931 0.0
H549 H 0.3592 0.08707 0.04391 0.0
C550 C 0.33416 0.10841 0.0773 0.0
C551 C 0.33252 0.11932 0.10719 0.0
C552 C 0.43268 0.07683 0.0965 0.0
C553 C 0.38251 0.09298 0.08621 0.0
C554 C 0.45743 0.06351 0.08736 0.0
C555 C 0.45988 0.05192 0.05803 0.0
C556 C 0.40954 0.0789 0.07635 0.0
C557 C 0.43634 0.05456 0.03834 0.0
C558 C 0.35882 0.09534 0.06685 0.0
C559 C 0.3569 0.11657 0.12559 0.0
N560 N 0.41231 0.06764 0.04783 0.0
N561 N 0.3805 0.10385 0.1149 0.0
H562 H 0.24544 0.79278 0.63873 0.0
H563 H 0.10494 0.88488 0.62987 0.0
H564 H 0.22015 0.84746 0.71046 0.0
H565 H 0.14736 0.85623 0.54878 0.0
H566 H 0.14158 0.86262 0.66278 0.0
H567 H 0.20406 0.80768 0.60864 0.0
C568 C 0.23126 0.80794 0.6482 0.0
C569 C 0.23664 0.8192 0.67704 0.0
C570 C 0.14264 0.86103 0.63778 0.0
C571 C 0.18882 0.83576 0.64293 0.0
C572 C 0.1218 0.8738 0.61893 0.0
C573 C 0.12318 0.87285 0.58636 0.0
C574 C 0.16486 0.84692 0.62405 0.0
C575 C 0.1452 0.85746 0.57369 0.0
C576 C 0.20755 0.81626 0.63106 0.0
C577 C 0.21693 0.8381 0.68847 0.0
N578 N 0.16525 0.84526 0.59254 0.0
N579 N 0.19396 0.84588 0.67131 0.0
H580 H 0.86425 0.47439 0.8617 0.0
H581 H 0.98091 0.46243 0.99545 0.0
H582 H 0.86061 0.42229 0.94456 0.0
H583 H 0.98557 0.51435 0.91266 0.0
H584 H 0.93708 0.4469 0.97654 0.0
H585 H 0.90875 0.48928 0.87965 0.0
C586 C 0.87275 0.4662 0.88374 0.0
C587 C 0.85873 0.44703 0.90163 0.0
C588 C 0.94769 0.46161 0.96241 0.0
C589 C 0.90971 0.46374 0.92215 0.0
C590 C 0.97272 0.47043 0.97318 0.0
C591 C 0.98675 0.48969 0.95556 0.0
C592 C 0.93663 0.47216 0.93381 0.0
C593 C 0.97533 0.49944 0.9269 0.0
C594 C 0.89822 0.47457 0.89388 0.0
C595 C 0.87087 0.43682 0.9298 0.0
N596 N 0.95085 0.49062 0.91693 0.0
N597 N 0.89563 0.44531 0.93918 0.0
H598 H 0.76245 0.66588 0.35709 0.0
H599 H 0.70904 0.6053 0.51817 0.0
H600 H 0.77263 0.70375 0.44498 0.0
H601 H 0.69979 0.56623 0.4308 0.0
H602 H 0.73869 0.63756 0.49302 0.0
H603 H 0.74473 0.62623 0.38453 0.0
C604 C 0.76093 0.66584 0.38219 0.0
C605 C 0.76859 0.68831 0.39876 0.0
C606 C 0.7305 0.62171 0.47941 0.0
C607 C 0.74863 0.64289 0.43035 0.0
C608 C 0.71375 0.60305 0.49385 0.0
C609 C 0.70159 0.58316 0.47649 0.0
C610 C 0.73496 0.62069 0.44731 0.0
C611 C 0.70821 0.5816 0.44492 0.0
C612 C 0.75104 0.6431 0.39786 0.0
C613 C 0.76691 0.68688 0.4313 0.0
N614 N 0.72416 0.60036 0.43124 0.0
N615 N 0.75684 0.66467 0.44601 0.0
H616 H 0.17133 0.32714 0.07581 0.0
H617 H 0.03262 0.42546 0.0747 0.0
H618 H 0.10049 0.31005 0.13137 0.0
H619 H 0.10819 0.44904 0.03259 0.0
H620 H 0.05618 0.38225 0.0932 0.0
H621 H 0.14808 0.37047 0.05792 0.0
C622 C 0.15102 0.33231 0.08455 0.0
C623 C 0.13822 0.31418 0.10542 0.0
C624 C 0.06766 0.39684 0.07989 0.0
C625 C 0.11082 0.36455 0.08406 0.0
C626 C 0.05413 0.42167 0.06921 0.0
C627 C 0.0682 0.44132 0.05183 0.0
C628 C 0.09563 0.39112 0.07309 0.0
C629 C 0.09623 0.43479 0.04573 0.0
C630 C 0.1376 0.35723 0.07403 0.0
C631 C 0.11141 0.32257 0.11497 0.0
N632 N 0.10884 0.41045 0.05616 0.0
N633 N 0.09879 0.34681 0.10427 0.0
H634 H 0.69428 0.25992 0.90624 0.0
H635 H 0.55242 0.19931 0.95841 0.0
H636 H 0.62954 0.30748 0.9502 0.0
H637 H 0.62209 0.15015 0.92704 0.0
H638 H 0.58048 0.23915 0.95637 0.0
H639 H 0.66891 0.21919 0.91587 0.0
C640 C 0.67498 0.26177 0.91848 0.0
C641 C 0.664 0.28726 0.92729 0.0
C642 C 0.58966 0.21962 0.95008 0.0
C643 C 0.6344 0.24065 0.93761 0.0
C644 C 0.5736 0.19695 0.95098 0.0
C645 C 0.58493 0.17145 0.94272 0.0
C646 C 0.61719 0.21679 0.94062 0.0
C647 C 0.61261 0.1694 0.9338 0.0
C648 C 0.66035 0.23848 0.92371 0.0
C649 C 0.63858 0.28835 0.94251 0.0
N650 N 0.62774 0.19181 0.93282 0.0
N651 N 0.62452 0.26541 0.94693 0.0
H652 H 0.86918 0.90034 0.42361 0.0
H653 H 0.99995 0.99011 0.43288 0.0
H654 H 0.92266 0.91209 0.34555 0.0
H655 H 0.9305 0.99993 0.49369 0.0
H656 H 0.97393 0.95907 0.40208 0.0
H657 H 0.89332 0.93453 0.45143 0.0
C658 C 0.886 0.91024 0.41235 0.0
C659 C 0.89407 0.90343 0.38236 0.0
C660 C 0.96436 0.96818 0.42202 0.0
C661 C 0.92185 0.94233 0.41401 0.0
C662 C 0.9792 0.98578 0.43962 0.0
C663 C 0.96727 0.9975 0.46577 0.0
C664 C 0.93765 0.96203 0.431 0.0
C665 C 0.94038 0.9913 0.4736 0.0
C666 C 0.89967 0.9298 0.42815 0.0
C667 C 0.91579 0.91694 0.36862 0.0
N668 N 0.92651 0.9738 0.45641 0.0
N669 N 0.92917 0.93562 0.38471 0.0
H670 H 0.40866 0.63244 0.70118 0.0
H671 H 0.52811 0.59633 0.58282 0.0
H672 H 0.46272 0.69251 0.66454 0.0
H673 H 0.45361 0.55242 0.5865 0.0
H674 H 0.50798 0.62878 0.61882 0.0
H675 H 0.42856 0.59973 0.66532 0.0
C676 C 0.42464 0.63887 0.68567 0.0
C677 C 0.43382 0.66553 0.68595 0.0
C678 C 0.49602 0.61209 0.61168 0.0
C679 C 0.45708 0.62778 0.64532 0.0
C680 C 0.50749 0.59352 0.59121 0.0
C681 C 0.49248 0.57166 0.58164 0.0
C682 C 0.46952 0.60854 0.62318 0.0
C683 C 0.46581 0.56909 0.59316 0.0
C684 C 0.43602 0.6201 0.66527 0.0
C685 C 0.45517 0.67221 0.66572 0.0
N686 N 0.45523 0.58721 0.61357 0.0
N687 N 0.46607 0.65348 0.64632 0.0
H688 H 0.92861 0.96163 0.75195 0.0
H689 H 0.98794 0.94561 0.57917 0.0
H690 H 0.91711 0.89104 0.69766 0.0
H691 H 0.98373 0.02216 0.62479 0.0
H692 H 0.96504 0.9245 0.62376 0.0
H693 H 0.951 0.98315 0.70744 0.0
C694 C 0.93049 0.95054 0.7308 0.0
C695 C 0.92059 0.92413 0.72924 0.0
C696 C 0.9691 0.94592 0.62409 0.0
C697 C 0.94728 0.94898 0.67757 0.0
C698 C 0.9823 0.95806 0.59854 0.0
C699 C 0.98792 0.98589 0.59786 0.0
C700 C 0.96148 0.96147 0.64972 0.0
C701 C 0.9799 1.00073 0.62396 0.0
C702 C 0.94358 0.96293 0.70527 0.0
C703 C 0.9246 0.91106 0.70082 0.0
N704 N 0.96727 0.98839 0.64866 0.0
N705 N 0.93755 0.92349 0.67646 0.0
H706 H 0.64048 0.1329 0.19828 0.0
H707 H 0.56654 0.1089 0.03554 0.0
H708 H 0.6343 0.1947 0.12392 0.0
H709 H 0.59255 0.04425 0.10206 0.0
H710 H 0.58897 0.14149 0.06791 0.0
H711 H 0.62033 0.10103 0.16392 0.0
C712 C 0.63512 0.13978 0.17464 0.0
C713 C 0.63941 0.16659 0.16402 0.0
C714 C 0.58986 0.12014 0.07527 0.0
C715 C 0.61565 0.13006 0.12451 0.0
C716 C 0.57706 0.10153 0.05683 0.0
C717 C 0.57757 0.0738 0.06616 0.0
C718 C 0.60297 0.11095 0.10336 0.0
C719 C 0.59159 0.0654 0.09392 0.0
C720 C 0.62346 0.12153 0.15503 0.0
C721 C 0.6312 0.17437 0.13331 0.0
N722 N 0.60353 0.0839 0.11158 0.0
N723 N 0.61969 0.15621 0.11465 0.0
H724 H 0.42202 0.53741 0.31029 0.0
H725 H 0.50483 0.59434 0.45293 0.0
H726 H 0.40263 0.617 0.34544 0.0
H727 H 0.49937 0.50866 0.43731 0.0
H728 H 0.47129 0.60474 0.41013 0.0
H729 H 0.4546 0.52786 0.35369 0.0
C730 C 0.42458 0.55279 0.32728 0.0
C731 C 0.4096 0.57793 0.32449 0.0
C732 C 0.4775 0.5837 0.4162 0.0
C733 C 0.44696 0.56738 0.37382 0.0
C734 C 0.49666 0.57781 0.44041 0.0
C735 C 0.50482 0.55067 0.4485 0.0
C736 C 0.46691 0.56225 0.39989 0.0
C737 C 0.4936 0.52989 0.43178 0.0
C738 C 0.4431 0.54736 0.35202 0.0
C739 C 0.4136 0.59723 0.34707 0.0
N740 N 0.47533 0.53612 0.40819 0.0
N741 N 0.4321 0.59164 0.37073 0.0
H742 H 0.18228 0.33896 0.82102 0.0
H743 H 0.17609 0.41367 0.97819 0.0
H744 H 0.22277 0.30119 0.90278 0.0
H745 H 0.17744 0.45698 0.8891 0.0
H746 H 0.19205 0.37171 0.9533 0.0
H747 H 0.17706 0.38172 0.84763 0.0
C748 C 0.18975 0.33965 0.8448 0.0
C749 C 0.20254 0.31651 0.86001 0.0
C750 C 0.18947 0.39056 0.93941 0.0
C751 C 0.19702 0.36545 0.89042 0.0
C752 C 0.18044 0.41443 0.95354 0.0
C753 C 0.17535 0.43869 0.93555 0.0
C754 C 0.19276 0.39098 0.90706 0.0
C755 C 0.18123 0.43872 0.90377 0.0
C756 C 0.18714 0.36413 0.85979 0.0
C757 C 0.21254 0.31862 0.8905 0.0
N758 N 0.1891 0.41507 0.8904 0.0
N759 N 0.20926 0.34269 0.90497 0.0
H760 H 0.69781 0.8939 0.89616 0.0
H761 H 0.62216 0.99905 1.01159 0.0
H762 H 0.74336 0.94642 0.95317 0.0
H763 H 0.58107 0.96455 0.93439 0.0
H764 H 0.66602 0.97649 0.99526 0.0
H765 H 0.6547 0.91569 0.91441 0.0
C766 C 0.6989 0.90985 0.91269 0.0
C767 C 0.72472 0.91811 0.92293 0.0
C768 C 0.64739 0.9738 0.98193 0.0
C769 C 0.67459 0.94348 0.94434 0.0
C770 C 0.62223 0.98661 0.99137 0.0
C771 C 0.59761 0.98386 0.97441 0.0
C772 C 0.64811 0.95758 0.95556 0.0
C773 C 0.59934 0.96746 0.94826 0.0
C774 C 0.6741 0.92247 0.92302 0.0
C775 C 0.72424 0.93933 0.9442 0.0
N776 N 0.62385 0.955 0.93984 0.0
N777 N 0.69981 0.95105 0.95422 0.0
H778 H 0.85508 0.20102 0.30264 0.0
H779 H 0.91324 0.19199 0.47462 0.0
H780 H 0.82528 0.25569 0.37214 0.0
H781 H 0.96123 0.16291 0.39764 0.0
H782 H 0.88123 0.21611 0.43769 0.0
H783 H 0.89427 0.18663 0.33694 0.0
C784 C 0.85701 0.21019 0.32499 0.0
C785 C 0.83695 0.22948 0.33466 0.0
C786 C 0.89898 0.20474 0.42892 0.0
C787 C 0.88137 0.21294 0.37409 0.0
C788 C 0.91744 0.19106 0.45003 0.0
C789 C 0.9399 0.17501 0.43934 0.0
C790 C 0.9027 0.20205 0.39686 0.0
C791 C 0.94384 0.17437 0.40704 0.0
C792 C 0.87939 0.20208 0.34448 0.0
C793 C 0.84042 0.24087 0.36376 0.0
N794 N 0.9252 0.18732 0.38696 0.0
N795 N 0.86198 0.23213 0.38267 0.0
H796 H 0.1961 0.5582 0.17114 0.0
H797 H 0.07947 0.57942 0.03831 0.0
H798 H 0.19739 0.62049 0.09759 0.0
H799 H 0.07283 0.5262 0.11974 0.0
H800 H 0.12324 0.59417 0.05879 0.0
H801 H 0.15138 0.5455 0.15183 0.0
C802 C 0.18691 0.56935 0.15105 0.0
C803 C 0.20054 0.59049 0.13601 0.0
C804 C 0.11213 0.57938 0.07226 0.0
C805 C 0.14944 0.57578 0.11349 0.0
C806 C 0.08719 0.57099 0.06059 0.0
C807 C 0.07265 0.55158 0.0774 0.0
C808 C 0.12258 0.56814 0.10084 0.0
C809 C 0.08345 0.54124 0.1061 0.0
C810 C 0.16141 0.562 0.13994 0.0
C811 C 0.18783 0.60383 0.10968 0.0
N812 N 0.10785 0.54956 0.11686 0.0
N813 N 0.163 0.59623 0.09925 0.0
H814 H 0.27452 0.33459 0.59248 0.0
H815 H 0.35312 0.47208 0.60538 0.0
H816 H 0.28978 0.37315 0.67895 0.0
H817 H 0.34642 0.4276 0.52131 0.0
H818 H 0.32145 0.44143 0.63062 0.0
H819 H 0.29248 0.37374 0.56424 0.0
C820 C 0.28136 0.35144 0.6055 0.0
C821 C 0.28109 0.35043 0.63812 0.0
C822 C 0.32659 0.4387 0.60648 0.0
C823 C 0.30183 0.39519 0.60602 0.0
C824 C 0.34467 0.45616 0.59208 0.0
C825 C 0.35281 0.45216 0.56134 0.0
C826 C 0.31667 0.41706 0.59003 0.0
C827 C 0.34074 0.43157 0.54501 0.0
C828 C 0.29168 0.37375 0.58939 0.0
C829 C 0.29028 0.37281 0.65382 0.0
N830 N 0.3236 0.41456 0.5597 0.0
N831 N 0.3005 0.39417 0.63763 0.0
H832 H 0.88846 0.71488 0.95587 0.0
H833 H 1.02674 0.61591 0.95588 0.0
H834 H 0.95718 0.72981 0.89634 0.0
H835 H 0.95161 0.59305 0.99959 0.0
H836 H 1.00299 0.65891 0.93688 0.0
H837 H 0.91244 0.67217 0.9752 0.0
C838 C 0.90863 0.70941 0.9469 0.0
C839 C 0.92053 0.72641 0.92417 0.0
C840 C 0.99168 0.64452 0.95067 0.0
C841 C 0.94848 0.67678 0.94656 0.0
C842 C 1.0053 0.61983 0.96165 0.0
C843 C 0.99142 0.60044 0.97965 0.0
C844 C 0.96381 0.65039 0.95784 0.0
C845 C 0.96347 0.6071 0.98604 0.0
C846 C 0.92231 0.68476 0.95789 0.0
C847 C 0.94676 0.71754 0.91347 0.0
N848 N 0.95079 0.63132 0.97537 0.0
N849 N 0.95974 0.69365 0.92475 0.0
H850 H 0.37661 0.76026 0.09573 0.0
H851 H 0.49433 0.85518 0.1521 0.0
H852 H 0.42538 0.74481 0.17979 0.0
H853 H 0.45719 0.86355 0.06024 0.0
H854 H 0.46795 0.8153 0.16287 0.0
H855 H 0.40482 0.79877 0.08221 0.0
C856 C 0.3933 0.76487 0.11123 0.0
C857 C 0.39843 0.74953 0.13911 0.0
C858 C 0.46561 0.82577 0.14029 0.0
C859 C 0.43051 0.7935 0.12399 0.0
C860 C 0.48081 0.84849 0.13406 0.0
C861 C 0.47805 0.86273 0.10519 0.0
C862 C 0.44734 0.81722 0.11758 0.0
C863 C 0.45971 0.85341 0.08297 0.0
C864 C 0.40931 0.78687 0.10357 0.0
C865 C 0.42024 0.75647 0.15843 0.0
N866 N 0.44499 0.83125 0.08965 0.0
N867 N 0.43537 0.77797 0.15056 0.0
H868 H 0.12943 0.12615 0.69375 0.0
H869 H 0.12465 0.04311 0.53802 0.0
H870 H 0.18257 0.1402 0.61589 0.0
H871 H 0.05473 0.05262 0.59819 0.0
H872 H 0.1503 0.0724 0.57125 0.0
H873 H 0.10587 0.0925 0.66378 0.0
C874 C 0.13627 0.12189 0.67049 0.0
C875 C 0.15776 0.13596 0.65708 0.0
C876 C 0.12937 0.06801 0.57722 0.0
C877 C 0.13124 0.09776 0.62298 0.0
C878 C 0.11478 0.05128 0.55834 0.0
C879 C 0.08758 0.04562 0.5654 0.0
C880 C 0.11673 0.07886 0.60349 0.0
C881 C 0.07568 0.05667 0.59195 0.0
C882 C 0.12278 0.1029 0.65339 0.0
C883 C 0.16587 0.12992 0.62686 0.0
N884 N 0.09037 0.07279 0.61014 0.0
N885 N 0.15261 0.11124 0.61081 0.0
H886 H 0.66886 0.37036 0.37702 0.0
H887 H 0.52963 0.43507 0.4472 0.0
H888 H 0.58749 0.34905 0.34879 0.0
H889 H 0.61055 0.45954 0.473 0.0
H890 H 0.55074 0.4024 0.41247 0.0
H891 H 0.64813 0.40228 0.41311 0.0
C892 C 0.64661 0.37252 0.3782 0.0
C893 C 0.6299 0.35707 0.35959 0.0
C894 C 0.56393 0.41486 0.42572 0.0
C895 C 0.60602 0.39336 0.40141 0.0
C896 C 0.55189 0.43358 0.44564 0.0
C897 C 0.56833 0.45022 0.46304 0.0
C898 C 0.59269 0.41266 0.42304 0.0
C899 C 0.59705 0.44718 0.46004 0.0
C900 C 0.6348 0.39064 0.39902 0.0
C901 C 0.60121 0.36032 0.36279 0.0
N902 N 0.60832 0.42881 0.44035 0.0
N903 N 0.59021 0.37812 0.38322 0.0
loop_
_geom_bond_atom_site_label_1
_geom_bond_atom_site_label_2
_geom_bond_distance
_geom_bond_site_symmetry_2
_ccdc_geom_bond_type
C0 C1 1.386 . S
C0 C2 1.397 . S
C0 H24 0.931 . S
C1 C0 1.386 . S
C1 C5 1.397 . S
C2 C0 1.397 . S
C2 C3 1.384 . S
C2 H25 0.930 . S
C3 C2 1.384 . S
C3 C4 1.377 . S
C3 C6 1.481 . S
C4 C3 1.377 . S
C4 C5 1.389 . S
C4 H26 0.929 . S
C5 C1 1.397 . S
C5 C4 1.389 . S
C5 H27 0.931 . S
C6 C3 1.481 . S
C6 C7 1.387 . S
C6 C11 1.390 . S
C7 C6 1.387 . S
C7 C8 1.401 . S
C7 H28 0.930 . S
C8 C7 1.401 . S
C8 C9 1.376 . S
C8 C17 1.511 . S
C9 C8 1.376 . S
C9 C10 1.392 . S
C9 H30 0.931 . S
C10 C9 1.392 . S
C10 C11 1.361 . S
C10 C12 1.500 . S
C11 C6 1.390 . S
C11 C10 1.361 . S
C11 H29 0.931 . S
C12 C10 1.500 . S
C12 C13 1.371 . S
C12 C14 1.365 . S
C13 C12 1.371 . S
C13 C23 1.386 . S
C13 H31 0.931 . S
C14 C12 1.365 . S
C14 C15 1.409 . S
C14 H32 0.929 . S
C15 C14 1.409 . S
C15 C16 1.380 . S
C15 H33 0.930 . S
C16 C15 1.380 . S
C16 C23 1.357 . S
C17 C8 1.511 . S
C17 C18 1.341 . S
C17 C19 1.371 . S
C18 C17 1.341 . S
C18 C22 1.394 . S
C18 H34 0.930 . S
C19 C17 1.371 . S
C19 C20 1.392 . S
C19 H35 0.931 . S
C20 C19 1.392 . S
C20 C21 1.331 . S
C20 H38 0.932 . S
C21 C20 1.331 . S
C21 C22 1.336 . S
C22 C18 1.394 . S
C22 C21 1.336 . S
C22 H37 0.929 . S
C23 C13 1.386 . S
C23 C16 1.357 . S
C23 H36 0.928 . S
H24 C0 0.931 . S
H25 C2 0.930 . S
H26 C4 0.929 . S
H27 C5 0.931 . S
H28 C7 0.930 . S
H29 C11 0.931 . S
H30 C9 0.931 . S
H31 C13 0.931 . S
H32 C14 0.929 . S
H33 C15 0.930 . S
H34 C18 0.930 . S
H35 C19 0.931 . S
H36 C23 0.928 . S
H37 C22 0.929 . S
H38 C20 0.932 . S
C39 C40 1.386 . S
C39 C41 1.397 . S
C39 H63 0.931 . S
C40 C39 1.386 . S
C40 C44 1.397 . S
C41 C39 1.397 . S
C41 C42 1.384 . S
C41 H64 0.930 . S
C42 C41 1.384 . S
C42 C43 1.377 . S
C42 C45 1.481 . S
C43 C42 1.377 . S
C43 C44 1.389 . S
C43 H65 0.929 . S
C44 C40 1.397 . S
C44 C43 1.389 . S
C44 H66 0.931 . S
C45 C42 1.481 . S
C45 C46 1.387 . S
C45 C50 1.390 . S
C46 C45 1.387 . S
C46 C47 1.401 . S
C46 H67 0.930 . S
C47 C46 1.401 . S
C47 C48 1.376 . S
C47 C56 1.511 . S
C48 C47 1.376 . S
C48 C49 1.392 . S
C48 H69 0.931 . S
C49 C48 1.392 . S
C49 C50 1.361 . S
C49 C51 1.500 . S
C50 C45 1.390 . S
C50 C49 1.361 . S
C50 H68 0.931 . S
C51 C49 1.500 . S
C51 C52 1.371 . S
C51 C53 1.365 . S
C52 C51 1.371 . S
C52 C62 1.386 . S
C52 H70 0.931 . S
C53 C51 1.365 . S
C53 C54 1.409 . S
C53 H71 0.929 . S
C54 C53 1.409 . S
C54 C55 1.380 . S
C54 H72 0.930 . S
C55 C54 1.380 . S
C55 C62 1.357 . S
C56 C47 1.511 . S
C56 C57 1.341 . S
C56 C58 1.371 . S
C57 C56 1.341 . S
C57 C61 1.394 . S
C57 H73 0.930 . S
C58 C56 1.371 . S
C58 C59 1.392 . S
C58 H74 0.931 . S
C59 C58 1.392 . S
C59 C60 1.331 . S
C59 H77 0.932 . S
C60 C59 1.331 . S
C60 C61 1.336 . S
C61 C57 1.394 . S
C61 C60 1.336 . S
C61 H76 0.929 . S
C62 C52 1.386 . S
C62 C55 1.357 . S
C62 H75 0.928 . S
H63 C39 0.931 . S
H64 C41 0.930 . S
H65 C43 0.929 . S
H66 C44 0.931 . S
H67 C46 0.930 . S
H68 C50 0.931 . S
H69 C48 0.931 . S
H70 C52 0.931 . S
H71 C53 0.929 . S
H72 C54 0.930 . S
H73 C57 0.930 . S
H74 C58 0.931 . S
H75 C62 0.928 . S
H76 C61 0.929 . S
H77 C59 0.932 . S
C78 C79 1.386 . S
C78 C80 1.397 . S
C78 H102 0.931 . S
C79 C78 1.386 . S
C79 C83 1.397 . S
C80 C78 1.397 . S
C80 C81 1.384 . S
C80 H103 0.930 . S
C81 C80 1.384 . S
C81 C82 1.377 . S
C81 C84 1.481 . S
C82 C81 1.377 . S
C82 C83 1.389 . S
C82 H104 0.929 . S
C83 C79 1.397 . S
C83 C82 1.389 . S
C83 H105 0.931 . S
C84 C81 1.481 . S
C84 C85 1.387 . S
C84 C89 1.390 . S
C85 C84 1.387 . S
C85 C86 1.401 . S
C85 H106 0.930 . S
C86 C85 1.401 . S
C86 C87 1.376 . S
C86 C95 1.511 . S
C87 C86 1.376 . S
C87 C88 1.392 . S
C87 H108 0.931 . S
C88 C87 1.392 . S
C88 C89 1.361 . S
C88 C90 1.500 . S
C89 C84 1.390 . S
C89 C88 1.361 . S
C89 H107 0.931 . S
C90 C88 1.500 . S
C90 C91 1.371 . S
C90 C92 1.365 . S
C91 C90 1.371 . S
C91 C101 1.386 . S
C91 H109 0.931 . S
C92 C90 1.365 . S
C92 C93 1.409 . S
C92 H110 0.929 . S
C93 C92 1.409 . S
C93 C94 1.380 . S
C93 H111 0.930 . S
C94 C93 1.380 . S
C94 C101 1.357 . S
C95 C86 1.511 . S
C95 C96 1.341 . S
C95 C97 1.371 . S
C96 C95 1.341 . S
C96 C100 1.394 . S
C96 H112 0.930 . S
C97 C95 1.371 . S
C97 C98 1.392 . S
C97 H113 0.931 . S
C98 C97 1.392 . S
C98 C99 1.331 . S
C98 H116 0.932 . S
C99 C98 1.331 . S
C99 C100 1.336 . S
C100 C96 1.394 . S
C100 C99 1.336 . S
C100 H115 0.929 . S
C101 C91 1.386 . S
C101 C94 1.357 . S
C101 H114 0.928 . S
H102 C78 0.931 . S
H103 C80 0.930 . S
H104 C82 0.929 . S
H105 C83 0.931 . S
H106 C85 0.930 . S
H107 C89 0.931 . S
H108 C87 0.931 . S
H109 C91 0.931 . S
H110 C92 0.929 . S
H111 C93 0.930 . S
H112 C96 0.930 . S
H113 C97 0.931 . S
H114 C101 0.928 . S
H115 C100 0.929 . S
H116 C98 0.932 . S
C117 C118 1.386 . S
C117 C119 1.397 . S
C117 H141 0.931 . S
C118 C117 1.386 . S
C118 C122 1.397 . S
C119 C117 1.397 . S
C119 C120 1.384 . S
C119 H142 0.930 . S
C120 C119 1.384 . S
C120 C121 1.377 . S
C120 C123 1.481 . S
C121 C120 1.377 . S
C121 C122 1.389 . S
C121 H143 0.929 . S
C122 C118 1.397 . S
C122 C121 1.389 . S
C122 H144 0.931 . S
C123 C120 1.481 . S
C123 C124 1.387 . S
C123 C128 1.390 . S
C124 C123 1.387 . S
C124 C125 1.401 . S
C124 H145 0.930 . S
C125 C124 1.401 . S
C125 C126 1.376 . S
C125 C134 1.511 . S
C126 C125 1.376 . S
C126 C127 1.392 . S
C126 H147 0.931 . S
C127 C126 1.392 . S
C127 C128 1.361 . S
C127 C129 1.500 . S
C128 C123 1.390 . S
C128 C127 1.361 . S
C128 H146 0.931 . S
C129 C127 1.500 . S
C129 C130 1.371 . S
C129 C131 1.365 . S
C130 C129 1.371 . S
C130 C140 1.386 . S
C130 H148 0.931 . S
C131 C129 1.365 . S
C131 C132 1.409 . S
C131 H149 0.929 . S
C132 C131 1.409 . S
C132 C133 1.380 . S
C132 H150 0.930 . S
C133 C132 1.380 . S
C133 C140 1.357 . S
C134 C125 1.511 . S
C134 C135 1.341 . S
C134 C136 1.371 . S
C135 C134 1.341 . S
C135 C139 1.394 . S
C135 H151 0.930 . S
C136 C134 1.371 . S
C136 C137 1.392 . S
C136 H152 0.931 . S
C137 C136 1.392 . S
C137 C138 1.331 . S
C137 H155 0.932 . S
C138 C137 1.331 . S
C138 C139 1.336 . S
C139 C135 1.394 . S
C139 C138 1.336 . S
C139 H154 0.929 . S
C140 C130 1.386 . S
C140 C133 1.357 . S
C140 H153 0.928 . S
H141 C117 0.931 . S
H142 C119 0.930 . S
H143 C121 0.929 . S
H144 C122 0.931 . S
H145 C124 0.930 . S
H146 C128 0.931 . S
H147 C126 0.931 . S
H148 C130 0.931 . S
H149 C131 0.929 . S
H150 C132 0.930 . S
H151 C135 0.930 . S
H152 C136 0.931 . S
H153 C140 0.928 . S
H154 C139 0.929 . S
H155 C137 0.932 . S
C156 C157 1.386 . S
C156 C158 1.397 . S
C156 H180 0.931 . S
C157 C156 1.386 . S
C157 C161 1.397 . S
C158 C156 1.397 . S
C158 C159 1.384 . S
C158 H181 0.930 . S
C159 C158 1.384 . S
C159 C160 1.377 . S
C159 C162 1.481 . S
C160 C159 1.377 . S
C160 C161 1.389 . S
C160 H182 0.929 . S
C161 C157 1.397 . S
C161 C160 1.389 . S
C161 H183 0.931 . S
C162 C159 1.481 . S
C162 C163 1.387 . S
C162 C167 1.390 . S
C163 C162 1.387 . S
C163 C164 1.401 . S
C163 H184 0.930 . S
C164 C163 1.401 . S
C164 C165 1.376 . S
C164 C173 1.511 . S
C165 C164 1.376 . S
C165 C166 1.392 . S
C165 H186 0.931 . S
C166 C165 1.392 . S
C166 C167 1.361 . S
C166 C168 1.500 . S
C167 C162 1.390 . S
C167 C166 1.361 . S
C167 H185 0.931 . S
C168 C166 1.500 . S
C168 C169 1.371 . S
C168 C170 1.365 . S
C169 C168 1.371 . S
C169 C179 1.386 . S
C169 H187 0.931 . S
C170 C168 1.365 . S
C170 C171 1.409 . S
C170 H188 0.929 . S
C171 C170 1.409 . S
C171 C172 1.380 . S
C171 H189 0.930 . S
C172 C171 1.380 . S
C172 C179 1.357 . S
C173 C164 1.511 . S
C173 C174 1.341 . S
C173 C175 1.371 . S
C174 C173 1.341 . S
C174 C178 1.394 . S
C174 H190 0.930 . S
C175 C173 1.371 . S
C175 C176 1.392 . S
C175 H191 0.931 . S
C176 C175 1.392 . S
C176 C177 1.331 . S
C176 H194 0.932 . S
C177 C176 1.331 . S
C177 C178 1.336 . S
C178 C174 1.394 . S
C178 C177 1.336 . S
C178 H193 0.929 . S
C179 C169 1.386 . S
C179 C172 1.357 . S
C179 H192 0.928 . S
H180 C156 0.931 . S
H181 C158 0.930 . S
H182 C160 0.929 . S
H183 C161 0.931 . S
H184 C163 0.930 . S
H185 C167 0.931 . S
H186 C165 0.931 . S
H187 C169 0.931 . S
H188 C170 0.929 . S
H189 C171 0.930 . S
H190 C174 0.930 . S
H191 C175 0.931 . S
H192 C179 0.928 . S
H193 C178 0.929 . S
H194 C176 0.932 . S
C195 C196 1.386 . S
C195 C197 1.397 . S
C195 H219 0.931 . S
C196 C195 1.386 . S
C196 C200 1.397 . S
C197 C195 1.397 . S
C197 C198 1.384 . S
C197 H220 0.930 . S
C198 C197 1.384 . S
C198 C199 1.377 . S
C198 C201 1.481 . S
C199 C198 1.377 . S
C199 C200 1.389 . S
C199 H221 0.929 . S
C200 C196 1.397 . S
C200 C199 1.389 . S
C200 H222 0.931 . S
C201 C198 1.481 . S
C201 C202 1.387 . S
C201 C206 1.390 . S
C202 C201 1.387 . S
C202 C203 1.401 . S
C202 H223 0.930 . S
C203 C202 1.401 . S
C203 C204 1.376 . S
C203 C212 1.511 . S
C204 C203 1.376 . S
C204 C205 1.392 . S
C204 H225 0.931 . S
C205 C204 1.392 . S
C205 C206 1.361 . S
C205 C207 1.500 . S
C206 C201 1.390 . S
C206 C205 1.361 . S
C206 H224 0.931 . S
C207 C205 1.500 . S
C207 C208 1.371 . S
C207 C209 1.365 . S
C208 C207 1.371 . S
C208 C218 1.386 . S
C208 H226 0.931 . S
C209 C207 1.365 . S
C209 C210 1.409 . S
C209 H227 0.929 . S
C210 C209 1.409 . S
C210 C211 1.380 . S
C210 H228 0.930 . S
C211 C210 1.380 . S
C211 C218 1.357 . S
C212 C203 1.511 . S
C212 C213 1.341 . S
C212 C214 1.371 . S
C213 C212 1.341 . S
C213 C217 1.394 . S
C213 H229 0.930 . S
C214 C212 1.371 . S
C214 C215 1.392 . S
C214 H230 0.931 . S
C215 C214 1.392 . S
C215 C216 1.331 . S
C215 H233 0.932 . S
C216 C215 1.331 . S
C216 C217 1.336 . S
C217 C213 1.394 . S
C217 C216 1.336 . S
C217 H232 0.929 . S
C218 C208 1.386 . S
C218 C211 1.357 . S
C218 H231 0.928 . S
H219 C195 0.931 . S
H220 C197 0.930 . S
H221 C199 0.929 . S
H222 C200 0.931 . S
H223 C202 0.930 . S
H224 C206 0.931 . S
H225 C204 0.931 . S
H226 C208 0.931 . S
H227 C209 0.929 . S
H228 C210 0.930 . S
H229 C213 0.930 . S
H230 C214 0.931 . S
H231 C218 0.928 . S
H232 C217 0.929 . S
H233 C215 0.932 . S
C234 C235 1.386 . S
C234 C236 1.397 . S
C234 H258 0.931 . S
C235 C234 1.386 . S
C235 C239 1.397 . S
C236 C234 1.397 . S
C236 C237 1.384 . S
C236 H259 0.930 . S
C237 C236 1.384 . S
C237 C238 1.377 . S
C237 C240 1.481 . S
C238 C237 1.377 . S
C238 C239 1.389 . S
C238 H260 0.929 . S
C239 C235 1.397 . S
C239 C238 1.389 . S
C239 H261 0.931 . S
C240 C237 1.481 . S
C240 C241 1.387 . S
C240 C245 1.390 . S
C241 C240 1.387 . S
C241 C242 1.401 . S
C241 H262 0.930 . S
C242 C241 1.401 . S
C242 C243 1.376 . S
C242 C251 1.511 . S
C243 C242 1.376 . S
C243 C244 1.392 . S
C243 H264 0.931 . S
C244 C243 1.392 . S
C244 C245 1.361 . S
C244 C246 1.500 . S
C245 C240 1.390 . S
C245 C244 1.361 . S
C245 H263 0.931 . S
C246 C244 1.500 . S
C246 C247 1.371 . S
C246 C248 1.365 . S
C247 C246 1.371 . S
C247 C257 1.386 . S
C247 H265 0.931 . S
C248 C246 1.365 . S
C248 C249 1.409 . S
C248 H266 0.929 . S
C249 C248 1.409 . S
C249 C250 1.380 . S
C249 H267 0.930 . S
C250 C249 1.380 . S
C250 C257 1.357 . S
C251 C242 1.511 . S
C251 C252 1.341 . S
C251 C253 1.371 . S
C252 C251 1.341 . S
C252 C256 1.394 . S
C252 H268 0.930 . S
C253 C251 1.371 . S
C253 C254 1.392 . S
C253 H269 0.931 . S
C254 C253 1.392 . S
C254 C255 1.331 . S
C254 H272 0.932 . S
C255 C254 1.331 . S
C255 C256 1.336 . S
C256 C252 1.394 . S
C256 C255 1.336 . S
C256 H271 0.929 . S
C257 C247 1.386 . S
C257 C250 1.357 . S
C257 H270 0.928 . S
H258 C234 0.931 . S
H259 C236 0.930 . S
H260 C238 0.929 . S
H261 C239 0.931 . S
H262 C241 0.930 . S
H263 C245 0.931 . S
H264 C243 0.931 . S
H265 C247 0.931 . S
H266 C248 0.929 . S
H267 C249 0.930 . S
H268 C252 0.930 . S
H269 C253 0.931 . S
H270 C257 0.928 . S
H271 C256 0.929 . S
H272 C254 0.932 . S
C273 C274 1.386 . S
C273 C275 1.397 . S
C273 H297 0.931 . S
C274 C273 1.386 . S
C274 C278 1.397 . S
C275 C273 1.397 . S
C275 C276 1.384 . S
C275 H298 0.930 . S
C276 C275 1.384 . S
C276 C277 1.377 . S
C276 C279 1.481 . S
C277 C276 1.377 . S
C277 C278 1.389 . S
C277 H299 0.929 . S
C278 C274 1.397 . S
C278 C277 1.389 . S
C278 H300 0.931 . S
C279 C276 1.481 . S
C279 C280 1.387 . S
C279 C284 1.390 . S
C280 C279 1.387 . S
C280 C281 1.401 . S
C280 H301 0.930 . S
C281 C280 1.401 . S
C281 C282 1.376 . S
C281 C290 1.511 . S
C282 C281 1.376 . S
C282 C283 1.392 . S
C282 H303 0.931 . S
C283 C282 1.392 . S
C283 C284 1.361 . S
C283 C285 1.500 . S
C284 C279 1.390 . S
C284 C283 1.361 . S
C284 H302 0.931 . S
C285 C283 1.500 . S
C285 C286 1.371 . S
C285 C287 1.365 . S
C286 C285 1.371 . S
C286 C296 1.386 . S
C286 H304 0.931 . S
C287 C285 1.365 . S
C287 C288 1.409 . S
C287 H305 0.929 . S
C288 C287 1.409 . S
C288 C289 1.380 . S
C288 H306 0.930 . S
C289 C288 1.380 . S
C289 C296 1.357 . S
C290 C281 1.511 . S
C290 C291 1.341 . S
C290 C292 1.371 . S
C291 C290 1.341 . S
C291 C295 1.394 . S
C291 H307 0.930 . S
C292 C290 1.371 . S
C292 C293 1.392 . S
C292 H308 0.931 . S
C293 C292 1.392 . S
C293 C294 1.331 . S
C293 H311 0.932 . S
C294 C293 1.331 . S
C294 C295 1.336 . S
C295 C291 1.394 . S
C295 C294 1.336 . S
C295 H310 0.929 . S
C296 C286 1.386 . S
C296 C289 1.357 . S
C296 H309 0.928 . S
H297 C273 0.931 . S
H298 C275 0.930 . S
H299 C277 0.929 . S
H300 C278 0.931 . S
H301 C280 0.930 . S
H302 C284 0.931 . S
H303 C282 0.931 . S
H304 C286 0.931 . S
H305 C287 0.929 . S
H306 C288 0.930 . S
H307 C291 0.930 . S
H308 C292 0.931 . S
H309 C296 0.928 . S
H310 C295 0.929 . S
H311 C293 0.932 . S
Nd312 C314 2.836 . S
Nd312 O332 2.500 . S
Nd312 O333 2.492 . S
Nd312 O334 2.487 1_565 S
Nd312 O335 2.682 1_565 S
Nd312 O336 2.410 . S
Nd312 O341 2.414 1_455 S
Nd312 O343 2.424 1_565 S
Nd313 C323 2.836 . S
Nd313 O335 2.414 1_655 S
Nd313 O337 2.424 1_545 S
Nd313 O338 2.500 . S
Nd313 O339 2.492 . S
Nd313 O340 2.487 1_545 S
Nd313 O341 2.682 1_545 S
Nd313 O342 2.410 . S
C314 Nd312 2.836 . S
C314 C315 1.498 . S
C314 O332 1.258 . S
C314 O333 1.239 . S
C315 C314 1.498 . S
C315 C316 1.366 . S
C315 C320 1.407 . S
C316 C315 1.366 . S
C316 C317 1.392 . S
C316 H344 0.930 . S
C317 C316 1.392 . S
C317 C318 1.398 . S
C317 H345 0.929 . S
C318 C317 1.398 . S
C318 C319 1.352 . S
C319 C318 1.352 . S
C319 C320 1.384 . S
C319 H346 0.930 . S
C320 C315 1.407 . S
C320 C319 1.384 . S
C320 H347 0.929 . S
C321 O334 1.241 . S
C321 O335 1.273 . S
C322 O336 1.251 1_655 S
C322 O337 1.268 . S
C323 Nd313 2.836 . S
C323 C324 1.498 . S
C323 O338 1.258 . S
C323 O339 1.239 . S
C324 C323 1.498 . S
C324 C325 1.366 . S
C324 C329 1.407 . S
C325 C324 1.366 . S
C325 C326 1.392 . S
C325 H348 0.930 . S
C326 C325 1.392 . S
C326 C327 1.398 . S
C326 H349 0.929 . S
C327 C326 1.398 . S
C327 C328 1.352 . S
C328 C327 1.352 . S
C328 C329 1.384 . S
C328 H350 0.930 . S
C329 C324 1.407 . S
C329 C328 1.384 . S
C329 H351 0.929 . S
C330 O340 1.241 . S
C330 O341 1.273 . S
C331 O342 1.251 1_455 S
C331 O343 1.268 . S
O332 Nd312 2.500 . S
O332 C314 1.258 . S
O333 Nd312 2.492 . S
O333 C314 1.239 . S
O334 Nd312 2.487 1_545 S
O334 C321 1.241 . S
O335 Nd312 2.682 1_545 S
O335 Nd313 2.414 1_455 S
O335 C321 1.273 . S
O336 Nd312 2.410 . S
O336 C322 1.251 1_455 S
O337 Nd313 2.424 1_565 S
O337 C322 1.268 . S
O338 Nd313 2.500 . S
O338 C323 1.258 . S
O339 Nd313 2.492 . S
O339 C323 1.239 . S
O340 Nd313 2.487 1_565 S
O340 C330 1.241 . S
O341 Nd312 2.414 1_655 S
O341 Nd313 2.682 1_565 S
O341 C330 1.273 . S
O342 Nd313 2.410 . S
O342 C331 1.251 1_655 S
O343 Nd312 2.424 1_545 S
O343 C331 1.268 . S
H344 C316 0.930 . S
H345 C317 0.929 . S
H346 C319 0.930 . S
H347 C320 0.929 . S
H348 C325 0.930 . S
H349 C326 0.929 . S
H350 C328 0.930 . S
H351 C329 0.929 . S
Nd352 C354 2.836 . S
Nd352 O372 2.500 . S
Nd352 O373 2.492 . S
Nd352 O374 2.487 1_565 S
Nd352 O375 2.682 1_565 S
Nd352 O376 2.410 1_554 S
Nd352 O381 2.414 1_554 S
Nd352 O383 2.424 1_565 S
Nd353 C363 2.836 . S
Nd353 O375 2.414 1_556 S
Nd353 O377 2.424 1_545 S
Nd353 O378 2.500 . S
Nd353 O379 2.492 . S
Nd353 O380 2.489 1_545 S
Nd353 O381 2.682 1_545 S
Nd353 O382 2.410 1_556 S
C354 Nd352 2.836 . S
C354 C355 1.498 . S
C354 O372 1.258 . S
C354 O373 1.239 . S
C355 C354 1.498 . S
C355 C356 1.366 . S
C355 C360 1.407 . S
C356 C355 1.366 . S
C356 C357 1.392 . S
C356 H384 0.930 . S
C357 C356 1.392 . S
C357 C358 1.398 . S
C357 H385 0.929 . S
C358 C357 1.398 . S
C358 C359 1.352 . S
C359 C358 1.352 . S
C359 C360 1.384 . S
C359 H386 0.930 . S
C360 C355 1.407 . S
C360 C359 1.384 . S
C360 H387 0.929 . S
C361 O374 1.241 . S
C361 O375 1.273 . S
C362 O376 1.251 . S
C362 O377 1.268 . S
C363 Nd353 2.836 . S
C363 C364 1.498 . S
C363 O378 1.258 . S
C363 O379 1.239 . S
C364 C363 1.498 . S
C364 C365 1.366 . S
C364 C369 1.407 . S
C365 C364 1.366 . S
C365 C366 1.392 . S
C365 H388 0.930 . S
C366 C365 1.392 . S
C366 C367 1.398 . S
C366 H389 0.929 . S
C367 C366 1.398 . S
C367 C368 1.352 . S
C368 C367 1.352 . S
C368 C369 1.384 . S
C368 H390 0.930 . S
C369 C364 1.407 . S
C369 C368 1.384 . S
C369 H391 0.929 . S
C370 O380 1.239 . S
C370 O381 1.273 . S
C371 O382 1.251 . S
C371 O383 1.268 . S
O372 Nd352 2.500 . S
O372 C354 1.258 . S
O373 Nd352 2.492 . S
O373 C354 1.239 . S
O374 Nd352 2.487 1_545 S
O374 C361 1.241 . S
O375 Nd352 2.682 1_545 S
O375 Nd353 2.414 1_554 S
O375 C361 1.273 . S
O376 Nd352 2.410 1_556 S
O376 C362 1.251 . S
O377 Nd353 2.424 1_565 S
O377 C362 1.268 . S
O378 Nd353 2.500 . S
O378 C363 1.258 . S
O379 Nd353 2.492 . S
O379 C363 1.239 . S
O380 Nd353 2.489 1_565 S
O380 C370 1.239 . S
O381 Nd352 2.414 1_556 S
O381 Nd353 2.682 1_565 S
O381 C370 1.273 . S
O382 Nd353 2.410 1_554 S
O382 C371 1.251 . S
O383 Nd352 2.424 1_545 S
O383 C371 1.268 . S
H384 C356 0.930 . S
H385 C357 0.929 . S
H386 C359 0.930 . S
H387 C360 0.929 . S
H388 C365 0.930 . S
H389 C366 0.929 . S
H390 C368 0.930 . S
H391 C369 0.929 . S
Nd392 C394 2.836 . S
Nd392 O412 2.500 . S
Nd392 O413 2.492 . S
Nd392 O414 2.487 . S
Nd392 O415 2.682 . S
Nd392 O416 2.410 . S
Nd392 O421 2.414 . S
Nd392 O423 2.424 . S
Nd393 C403 2.836 . S
Nd393 O415 2.414 . S
Nd393 O417 2.424 . S
Nd393 O418 2.500 . S
Nd393 O419 2.492 . S
Nd393 O420 2.487 . S
Nd393 O421 2.682 . S
Nd393 O422 2.410 . S
C394 Nd392 2.836 . S
C394 C395 1.498 . S
C394 O412 1.258 . S
C394 O413 1.239 . S
C395 C394 1.498 . S
C395 C396 1.366 . S
C395 C400 1.407 . S
C396 C395 1.366 . S
C396 C397 1.392 . S
C396 H424 0.930 . S
C397 C396 1.392 . S
C397 C398 1.398 . S
C397 H425 0.929 . S
C398 C397 1.398 . S
C398 C399 1.352 . S
C399 C398 1.352 . S
C399 C400 1.384 . S
C399 H426 0.930 . S
C400 C395 1.407 . S
C400 C399 1.384 . S
C400 H427 0.929 . S
C401 O414 1.241 . S
C401 O415 1.273 . S
C402 O416 1.251 . S
C402 O417 1.268 . S
C403 Nd393 2.836 . S
C403 C404 1.498 . S
C403 O418 1.258 . S
C403 O419 1.239 . S
C404 C403 1.498 . S
C404 C405 1.366 . S
C404 C409 1.407 . S
C405 C404 1.366 . S
C405 C406 1.392 . S
C405 H428 0.930 . S
C406 C405 1.392 . S
C406 C407 1.398 . S
C406 H429 0.929 . S
C407 C406 1.398 . S
C407 C408 1.352 . S
C408 C407 1.352 . S
C408 C409 1.384 . S
C408 H430 0.930 . S
C409 C404 1.407 . S
C409 C408 1.384 . S
C409 H431 0.929 . S
C410 O420 1.241 . S
C410 O421 1.273 . S
C411 O422 1.251 . S
C411 O423 1.268 . S
O412 Nd392 2.500 . S
O412 C394 1.258 . S
O413 Nd392 2.492 . S
O413 C394 1.239 . S
O414 Nd392 2.487 . S
O414 C401 1.241 . S
O415 Nd392 2.682 . S
O415 Nd393 2.414 . S
O415 C401 1.273 . S
O416 Nd392 2.410 . S
O416 C402 1.251 . S
O417 Nd393 2.424 . S
O417 C402 1.268 . S
O418 Nd393 2.500 . S
O418 C403 1.258 . S
O419 Nd393 2.492 . S
O419 C403 1.239 . S
O420 Nd393 2.487 . S
O420 C410 1.241 . S
O421 Nd392 2.414 . S
O421 Nd393 2.682 . S
O421 C410 1.273 . S
O422 Nd393 2.410 . S
O422 C411 1.251 . S
O423 Nd392 2.424 . S
O423 C411 1.268 . S
H424 C396 0.930 . S
H425 C397 0.929 . S
H426 C399 0.930 . S
H427 C400 0.929 . S
H428 C405 0.930 . S
H429 C406 0.929 . S
H430 C408 0.930 . S
H431 C409 0.929 . S
Nd432 C434 2.836 . S
Nd432 O452 2.500 . S
Nd432 O453 2.492 . S
Nd432 O454 2.487 1_655 S
Nd432 O455 2.682 1_655 S
Nd432 O456 2.410 . S
Nd432 O461 2.414 1_554 S
Nd432 O463 2.424 1_655 S
Nd433 C443 2.836 . S
Nd433 O455 2.414 1_556 S
Nd433 O457 2.424 1_455 S
Nd433 O458 2.500 . S
Nd433 O459 2.492 . S
Nd433 O460 2.487 1_455 S
Nd433 O461 2.682 1_455 S
Nd433 O462 2.410 . S
C434 Nd432 2.836 . S
C434 C435 1.498 . S
C434 O452 1.258 . S
C434 O453 1.239 . S
C435 C434 1.498 . S
C435 C436 1.366 . S
C435 C440 1.407 . S
C436 C435 1.366 . S
C436 C437 1.392 . S
C436 H464 0.930 . S
C437 C436 1.392 . S
C437 C438 1.398 . S
C437 H465 0.929 . S
C438 C437 1.398 . S
C438 C439 1.352 . S
C439 C438 1.352 . S
C439 C440 1.384 . S
C439 H466 0.930 . S
C440 C435 1.407 . S
C440 C439 1.384 . S
C440 H467 0.929 . S
C441 O454 1.241 . S
C441 O455 1.273 . S
C442 O456 1.251 1_556 S
C442 O457 1.268 . S
C443 Nd433 2.836 . S
C443 C444 1.498 . S
C443 O458 1.258 . S
C443 O459 1.239 . S
C444 C443 1.498 . S
C444 C445 1.366 . S
C444 C449 1.407 . S
C445 C444 1.366 . S
C445 C446 1.392 . S
C445 H468 0.930 . S
C446 C445 1.392 . S
C446 C447 1.398 . S
C446 H469 0.929 . S
C447 C446 1.398 . S
C447 C448 1.352 . S
C448 C447 1.352 . S
C448 C449 1.384 . S
C448 H470 0.930 . S
C449 C444 1.407 . S
C449 C448 1.384 . S
C449 H471 0.929 . S
C450 O460 1.241 . S
C450 O461 1.273 . S
C451 O462 1.251 1_554 S
C451 O463 1.268 . S
O452 Nd432 2.500 . S
O452 C434 1.258 . S
O453 Nd432 2.492 . S
O453 C434 1.239 . S
O454 Nd432 2.487 1_455 S
O454 C441 1.241 . S
O455 Nd432 2.682 1_455 S
O455 Nd433 2.414 1_554 S
O455 C441 1.273 . S
O456 Nd432 2.410 . S
O456 C442 1.251 1_554 S
O457 Nd433 2.424 1_655 S
O457 C442 1.268 . S
O458 Nd433 2.500 . S
O458 C443 1.258 . S
O459 Nd433 2.492 . S
O459 C443 1.239 . S
O460 Nd433 2.487 1_655 S
O460 C450 1.241 . S
O461 Nd432 2.414 1_556 S
O461 Nd433 2.682 1_655 S
O461 C450 1.273 . S
O462 Nd433 2.410 . S
O462 C451 1.251 1_556 S
O463 Nd432 2.424 1_455 S
O463 C451 1.268 . S
H464 C436 0.930 . S
H465 C437 0.929 . S
H466 C439 0.930 . S
H467 C440 0.929 . S
H468 C445 0.930 . S
H469 C446 0.929 . S
H470 C448 0.930 . S
H471 C449 0.929 . S
H472 C478 0.930 . S
H473 C482 0.930 . S
H474 C487 0.929 . S
H475 C485 0.929 . S
H476 C480 0.929 . S
H477 C486 0.929 . S
C478 H472 0.930 . S
C478 C479 1.367 . S
C478 C486 1.378 . S
C479 C478 1.367 . S
C479 C487 1.433 . S
C480 H476 0.929 . S
C480 C482 1.378 . S
C480 C484 1.350 . S
C481 C484 1.463 . S
C481 C486 1.350 . S
C481 N489 1.427 . S
C482 H473 0.930 . S
C482 C480 1.378 . S
C482 C483 1.367 . S
C483 C482 1.367 . S
C483 C485 1.433 . S
C484 C480 1.350 . S
C484 C481 1.463 . S
C484 N488 1.427 . S
C485 H475 0.929 . S
C485 C483 1.433 . S
C485 N488 1.384 . S
C486 H477 0.929 . S
C486 C478 1.378 . S
C486 C481 1.350 . S
C487 H474 0.929 . S
C487 C479 1.433 . S
C487 N489 1.384 . S
N488 C484 1.427 . S
N488 C485 1.384 . S
N489 C481 1.427 . S
N489 C487 1.384 . S
H490 C496 0.930 . S
H491 C500 0.930 . S
H492 C505 0.929 . S
H493 C503 0.929 . S
H494 C498 0.929 . S
H495 C504 0.929 . S
C496 H490 0.930 . S
C496 C497 1.367 . S
C496 C504 1.378 . S
C497 C496 1.367 . S
C497 C505 1.433 . S
C498 H494 0.929 . S
C498 C500 1.378 . S
C498 C502 1.350 . S
C499 C502 1.463 . S
C499 C504 1.350 . S
C499 N507 1.427 . S
C500 H491 0.930 . S
C500 C498 1.378 . S
C500 C501 1.367 . S
C501 C500 1.367 . S
C501 C503 1.433 . S
C502 C498 1.350 . S
C502 C499 1.463 . S
C502 N506 1.427 . S
C503 H493 0.929 . S
C503 C501 1.433 . S
C503 N506 1.384 . S
C504 H495 0.929 . S
C504 C496 1.378 . S
C504 C499 1.350 . S
C505 H492 0.929 . S
C505 C497 1.433 . S
C505 N507 1.384 . S
N506 C502 1.427 . S
N506 C503 1.384 . S
N507 C499 1.427 . S
N507 C505 1.384 . S
H508 C514 0.930 . S
H509 C518 0.930 . S
H510 C523 0.929 . S
H511 C521 0.929 . S
H512 C516 0.929 . S
H513 C522 0.929 . S
C514 H508 0.930 . S
C514 C515 1.367 . S
C514 C522 1.378 . S
C515 C514 1.367 . S
C515 C523 1.433 . S
C516 H512 0.929 . S
C516 C518 1.378 . S
C516 C520 1.350 . S
C517 C520 1.463 . S
C517 C522 1.350 . S
C517 N525 1.427 . S
C518 H509 0.930 . S
C518 C516 1.378 . S
C518 C519 1.367 . S
C519 C518 1.367 . S
C519 C521 1.433 . S
C520 C516 1.350 . S
C520 C517 1.463 . S
C520 N524 1.427 . S
C521 H511 0.929 . S
C521 C519 1.433 . S
C521 N524 1.384 . S
C522 H513 0.929 . S
C522 C514 1.378 . S
C522 C517 1.350 . S
C523 H510 0.929 . S
C523 C515 1.433 . S
C523 N525 1.384 . S
N524 C520 1.427 . S
N524 C521 1.384 . S
N525 C517 1.427 . S
N525 C523 1.384 . S
H526 C532 0.930 . S
H527 C536 0.930 . S
H528 C541 0.929 . S
H529 C539 0.929 . S
H530 C534 0.929 . S
H531 C540 0.929 . S
C532 H526 0.930 . S
C532 C533 1.367 . S
C532 C540 1.378 . S
C533 C532 1.367 . S
C533 C541 1.433 . S
C534 H530 0.929 . S
C534 C536 1.378 . S
C534 C538 1.350 . S
C535 C538 1.463 . S
C535 C540 1.350 . S
C535 N543 1.427 . S
C536 H527 0.930 . S
C536 C534 1.378 . S
C536 C537 1.367 . S
C537 C536 1.367 . S
C537 C539 1.433 . S
C538 C534 1.350 . S
C538 C535 1.463 . S
C538 N542 1.427 . S
C539 H529 0.929 . S
C539 C537 1.433 . S
C539 N542 1.384 . S
C540 H531 0.929 . S
C540 C532 1.378 . S
C540 C535 1.350 . S
C541 H528 0.929 . S
C541 C533 1.433 . S
C541 N543 1.384 . S
N542 C538 1.427 . S
N542 C539 1.384 . S
N543 C535 1.427 . S
N543 C541 1.384 . S
H544 C550 0.930 . S
H545 C554 0.930 . S
H546 C559 0.929 . S
H547 C557 0.909 1_556 S
H548 C552 0.929 . S
H549 C558 0.929 . S
C550 H544 0.930 . S
C550 C551 1.367 . S
C550 C558 1.378 . S
C551 C550 1.367 . S
C551 C559 1.433 . S
C552 H548 0.929 . S
C552 C554 1.378 . S
C552 C556 1.350 . S
C553 C556 1.463 . S
C553 C558 1.350 . S
C553 N561 1.427 . S
C554 H545 0.930 . S
C554 C552 1.378 . S
C554 C555 1.367 . S
C555 C554 1.367 . S
C555 C557 1.433 . S
C556 C552 1.350 . S
C556 C553 1.463 . S
C556 N560 1.427 . S
C557 H547 0.909 1_554 S
C557 C555 1.433 . S
C557 N560 1.384 . S
C558 H549 0.929 . S
C558 C550 1.378 . S
C558 C553 1.350 . S
C559 H546 0.929 . S
C559 C551 1.433 . S
C559 N561 1.384 . S
N560 C556 1.427 . S
N560 C557 1.384 . S
N561 C553 1.427 . S
N561 C559 1.384 . S
H562 C568 0.930 . S
H563 C572 0.930 . S
H564 C577 0.929 . S
H565 C575 0.929 . S
H566 C570 0.929 . S
H567 C576 0.929 . S
C568 H562 0.930 . S
C568 C569 1.367 . S
C568 C576 1.378 . S
C569 C568 1.367 . S
C569 C577 1.433 . S
C570 H566 0.929 . S
C570 C572 1.378 . S
C570 C574 1.350 . S
C571 C574 1.463 . S
C571 C576 1.350 . S
C571 N579 1.427 . S
C572 H563 0.930 . S
C572 C570 1.378 . S
C572 C573 1.367 . S
C573 C572 1.367 . S
C573 C575 1.433 . S
C574 C570 1.350 . S
C574 C571 1.463 . S
C574 N578 1.427 . S
C575 H565 0.929 . S
C575 C573 1.433 . S
C575 N578 1.384 . S
C576 H567 0.929 . S
C576 C568 1.378 . S
C576 C571 1.350 . S
C577 H564 0.929 . S
C577 C569 1.433 . S
C577 N579 1.384 . S
N578 C574 1.427 . S
N578 C575 1.384 . S
N579 C571 1.427 . S
N579 C577 1.384 . S
H580 C586 0.930 . S
H581 C590 0.930 . S
H582 C595 0.929 . S
H583 C593 0.929 . S
H584 C588 0.929 . S
H585 C594 0.929 . S
C586 H580 0.930 . S
C586 C587 1.367 . S
C586 C594 1.378 . S
C587 C586 1.367 . S
C587 C595 1.433 . S
C588 H584 0.929 . S
C588 C590 1.378 . S
C588 C592 1.350 . S
C589 C592 1.463 . S
C589 C594 1.350 . S
C589 N597 1.427 . S
C590 H581 0.930 . S
C590 C588 1.378 . S
C590 C591 1.367 . S
C591 C590 1.367 . S
C591 C593 1.433 . S
C592 C588 1.350 . S
C592 C589 1.463 . S
C592 N596 1.427 . S
C593 H583 0.929 . S
C593 C591 1.433 . S
C593 N596 1.384 . S
C594 H585 0.929 . S
C594 C586 1.378 . S
C594 C589 1.350 . S
C595 H582 0.929 . S
C595 C587 1.433 . S
C595 N597 1.384 . S
N596 C592 1.427 . S
N596 C593 1.384 . S
N597 C589 1.427 . S
N597 C595 1.384 . S
H598 C604 0.930 . S
H599 C608 0.930 . S
H600 C613 0.929 . S
H601 C611 0.929 . S
H602 C606 0.929 . S
H603 C612 0.929 . S
C604 H598 0.930 . S
C604 C605 1.367 . S
C604 C612 1.378 . S
C605 C604 1.367 . S
C605 C613 1.433 . S
C606 H602 0.929 . S
C606 C608 1.378 . S
C606 C610 1.350 . S
C607 C610 1.463 . S
C607 C612 1.350 . S
C607 N615 1.427 . S
C608 H599 0.930 . S
C608 C606 1.378 . S
C608 C609 1.367 . S
C609 C608 1.367 . S
C609 C611 1.433 . S
C610 C606 1.350 . S
C610 C607 1.463 . S
C610 N614 1.427 . S
C611 H601 0.929 . S
C611 C609 1.433 . S
C611 N614 1.384 . S
C612 H603 0.929 . S
C612 C604 1.378 . S
C612 C607 1.350 . S
C613 H600 0.929 . S
C613 C605 1.433 . S
C613 N615 1.384 . S
N614 C610 1.427 . S
N614 C611 1.384 . S
N615 C607 1.427 . S
N615 C613 1.384 . S
H616 C622 0.930 . S
H617 C626 0.930 1_556 S
H618 C631 0.929 . S
H619 C629 0.929 . S
H620 C624 0.929 . S
H621 C630 0.929 . S
C622 H616 0.930 . S
C622 C623 1.367 . S
C622 C630 1.378 . S
C623 C622 1.367 . S
C623 C631 1.433 . S
C624 H620 0.929 . S
C624 C626 1.378 . S
C624 C628 1.350 . S
C625 C628 1.463 . S
C625 C630 1.350 . S
C625 N633 1.427 . S
C626 H617 0.930 1_554 S
C626 C624 1.378 . S
C626 C627 1.367 . S
C627 C626 1.367 . S
C627 C629 1.433 . S
C628 C624 1.350 . S
C628 C625 1.463 . S
C628 N632 1.427 . S
C629 H619 0.929 . S
C629 C627 1.433 . S
C629 N632 1.384 . S
C630 H621 0.929 . S
C630 C622 1.378 . S
C630 C625 1.350 . S
C631 H618 0.929 . S
C631 C623 1.433 . S
C631 N633 1.384 . S
N632 C628 1.427 . S
N632 C629 1.384 . S
N633 C625 1.427 . S
N633 C631 1.384 . S
H634 C640 0.930 . S
H635 C644 0.930 . S
H636 C649 0.929 . S
H637 C647 0.929 . S
H638 C642 0.929 . S
H639 C648 0.929 . S
C640 H634 0.930 . S
C640 C641 1.367 . S
C640 C648 1.378 . S
C641 C640 1.367 . S
C641 C649 1.433 . S
C642 H638 0.929 . S
C642 C644 1.378 . S
C642 C646 1.350 . S
C643 C646 1.463 . S
C643 C648 1.350 . S
C643 N651 1.427 . S
C644 H635 0.930 . S
C644 C642 1.378 . S
C644 C645 1.367 . S
C645 C644 1.367 . S
C645 C647 1.433 . S
C646 C642 1.350 . S
C646 C643 1.463 . S
C646 N650 1.427 . S
C647 H637 0.929 . S
C647 C645 1.433 . S
C647 N650 1.384 . S
C648 H639 0.929 . S
C648 C640 1.378 . S
C648 C643 1.350 . S
C649 H636 0.929 . S
C649 C641 1.433 . S
C649 N651 1.384 . S
N650 C646 1.427 . S
N650 C647 1.384 . S
N651 C643 1.427 . S
N651 C649 1.384 . S
H652 C658 0.930 . S
H653 C662 0.930 . S
H654 C667 0.929 . S
H655 C665 0.929 . S
H656 C660 0.929 . S
H657 C666 0.929 . S
C658 H652 0.930 . S
C658 C659 1.367 . S
C658 C666 1.378 . S
C659 C658 1.367 . S
C659 C667 1.433 . S
C660 H656 0.929 . S
C660 C662 1.378 . S
C660 C664 1.350 . S
C661 C664 1.463 . S
C661 C666 1.350 . S
C661 N669 1.427 . S
C662 H653 0.930 . S
C662 C660 1.378 . S
C662 C663 1.367 . S
C663 C662 1.367 . S
C663 C665 1.433 . S
C664 C660 1.350 . S
C664 C661 1.463 . S
C664 N668 1.427 . S
C665 H655 0.929 . S
C665 C663 1.433 . S
C665 N668 1.384 . S
C666 H657 0.929 . S
C666 C658 1.378 . S
C666 C661 1.350 . S
C667 H654 0.929 . S
C667 C659 1.433 . S
C667 N669 1.384 . S
N668 C664 1.427 . S
N668 C665 1.384 . S
N669 C661 1.427 . S
N669 C667 1.384 . S
H670 C676 0.930 . S
H671 C680 0.930 . S
H672 C685 0.929 . S
H673 C683 0.929 . S
H674 C678 0.929 . S
H675 C684 0.929 . S
C676 H670 0.930 . S
C676 C677 1.367 . S
C676 C684 1.378 . S
C677 C676 1.367 . S
C677 C685 1.433 . S
C678 H674 0.929 . S
C678 C680 1.378 . S
C678 C682 1.350 . S
C679 C682 1.463 . S
C679 C684 1.350 . S
C679 N687 1.427 . S
C680 H671 0.930 . S
C680 C678 1.378 . S
C680 C681 1.367 . S
C681 C680 1.367 . S
C681 C683 1.433 . S
C682 C678 1.350 . S
C682 C679 1.463 . S
C682 N686 1.427 . S
C683 H673 0.929 . S
C683 C681 1.433 . S
C683 N686 1.384 . S
C684 H675 0.929 . S
C684 C676 1.378 . S
C684 C679 1.350 . S
C685 H672 0.929 . S
C685 C677 1.433 . S
C685 N687 1.384 . S
N686 C682 1.427 . S
N686 C683 1.384 . S
N687 C679 1.427 . S
N687 C685 1.384 . S
H688 C694 0.930 . S
H689 C698 0.930 . S
H690 C703 0.929 . S
H691 C701 0.929 . S
H692 C696 0.929 . S
H693 C702 0.929 . S
C694 H688 0.930 . S
C694 C695 1.367 . S
C694 C702 1.378 . S
C695 C694 1.367 . S
C695 C703 1.433 . S
C696 H692 0.929 . S
C696 C698 1.378 . S
C696 C700 1.350 . S
C697 C700 1.463 . S
C697 C702 1.350 . S
C697 N705 1.427 . S
C698 H689 0.930 . S
C698 C696 1.378 . S
C698 C699 1.367 . S
C699 C698 1.367 . S
C699 C701 1.433 . S
C700 C696 1.350 . S
C700 C697 1.463 . S
C700 N704 1.427 . S
C701 H691 0.929 . S
C701 C699 1.433 . S
C701 N704 1.384 . S
C702 H693 0.929 . S
C702 C694 1.378 . S
C702 C697 1.350 . S
C703 H690 0.929 . S
C703 C695 1.433 . S
C703 N705 1.384 . S
N704 C700 1.427 . S
N704 C701 1.384 . S
N705 C697 1.427 . S
N705 C703 1.384 . S
H706 C712 0.930 . S
H707 C716 0.930 . S
H708 C721 0.929 . S
H709 C719 0.929 . S
H710 C714 0.929 . S
H711 C720 0.929 . S
C712 H706 0.930 . S
C712 C713 1.367 . S
C712 C720 1.378 . S
C713 C712 1.367 . S
C713 C721 1.433 . S
C714 H710 0.929 . S
C714 C716 1.378 . S
C714 C718 1.350 . S
C715 C718 1.463 . S
C715 C720 1.350 . S
C715 N723 1.427 . S
C716 H707 0.930 . S
C716 C714 1.378 . S
C716 C717 1.367 . S
C717 C716 1.367 . S
C717 C719 1.433 . S
C718 C714 1.350 . S
C718 C715 1.463 . S
C718 N722 1.427 . S
C719 H709 0.929 . S
C719 C717 1.433 . S
C719 N722 1.384 . S
C720 H711 0.929 . S
C720 C712 1.378 . S
C720 C715 1.350 . S
C721 H708 0.929 . S
C721 C713 1.433 . S
C721 N723 1.384 . S
N722 C718 1.427 . S
N722 C719 1.384 . S
N723 C715 1.427 . S
N723 C721 1.384 . S
H724 C730 0.930 . S
H725 C734 0.930 . S
H726 C739 0.929 . S
H727 C737 0.929 . S
H728 C732 0.929 . S
H729 C738 0.929 . S
C730 H724 0.930 . S
C730 C731 1.367 . S
C730 C738 1.378 . S
C731 C730 1.367 . S
C731 C739 1.433 . S
C732 H728 0.929 . S
C732 C734 1.378 . S
C732 C736 1.350 . S
C733 C736 1.463 . S
C733 C738 1.350 . S
C733 N741 1.427 . S
C734 H725 0.930 . S
C734 C732 1.378 . S
C734 C735 1.367 . S
C735 C734 1.367 . S
C735 C737 1.433 . S
C736 C732 1.350 . S
C736 C733 1.463 . S
C736 N740 1.427 . S
C737 H727 0.929 . S
C737 C735 1.433 . S
C737 N740 1.384 . S
C738 H729 0.929 . S
C738 C730 1.378 . S
C738 C733 1.350 . S
C739 H726 0.929 . S
C739 C731 1.433 . S
C739 N741 1.384 . S
N740 C736 1.427 . S
N740 C737 1.384 . S
N741 C733 1.427 . S
N741 C739 1.384 . S
H742 C748 0.930 . S
H743 C752 0.930 . S
H744 C757 0.929 . S
H745 C755 0.929 . S
H746 C750 0.929 . S
H747 C756 0.929 . S
C748 H742 0.930 . S
C748 C749 1.367 . S
C748 C756 1.378 . S
C749 C748 1.367 . S
C749 C757 1.433 . S
C750 H746 0.929 . S
C750 C752 1.378 . S
C750 C754 1.350 . S
C751 C754 1.463 . S
C751 C756 1.350 . S
C751 N759 1.427 . S
C752 H743 0.930 . S
C752 C750 1.378 . S
C752 C753 1.367 . S
C753 C752 1.367 . S
C753 C755 1.433 . S
C754 C750 1.350 . S
C754 C751 1.463 . S
C754 N758 1.427 . S
C755 H745 0.929 . S
C755 C753 1.433 . S
C755 N758 1.384 . S
C756 H747 0.929 . S
C756 C748 1.378 . S
C756 C751 1.350 . S
C757 H744 0.929 . S
C757 C749 1.433 . S
C757 N759 1.384 . S
N758 C754 1.427 . S
N758 C755 1.384 . S
N759 C751 1.427 . S
N759 C757 1.384 . S
H760 C766 0.930 . S
H761 C770 0.930 . S
H762 C775 0.929 . S
H763 C773 0.929 . S
H764 C768 0.929 . S
H765 C774 0.929 . S
C766 H760 0.930 . S
C766 C767 1.367 . S
C766 C774 1.378 . S
C767 C766 1.367 . S
C767 C775 1.433 . S
C768 H764 0.929 . S
C768 C770 1.378 . S
C768 C772 1.350 . S
C769 C772 1.463 . S
C769 C774 1.350 . S
C769 N777 1.427 . S
C770 H761 0.930 . S
C770 C768 1.378 . S
C770 C771 1.367 . S
C771 C770 1.367 . S
C771 C773 1.433 . S
C772 C768 1.350 . S
C772 C769 1.463 . S
C772 N776 1.427 . S
C773 H763 0.929 . S
C773 C771 1.433 . S
C773 N776 1.384 . S
C774 H765 0.929 . S
C774 C766 1.378 . S
C774 C769 1.350 . S
C775 H762 0.929 . S
C775 C767 1.433 . S
C775 N777 1.384 . S
N776 C772 1.427 . S
N776 C773 1.384 . S
N777 C769 1.427 . S
N777 C775 1.384 . S
H778 C784 0.930 . S
H779 C788 0.930 . S
H780 C793 0.929 . S
H781 C791 0.929 . S
H782 C786 0.929 . S
H783 C792 0.929 . S
C784 H778 0.930 . S
C784 C785 1.367 . S
C784 C792 1.378 . S
C785 C784 1.367 . S
C785 C793 1.433 . S
C786 H782 0.929 . S
C786 C788 1.378 . S
C786 C790 1.350 . S
C787 C790 1.463 . S
C787 C792 1.350 . S
C787 N795 1.427 . S
C788 H779 0.930 . S
C788 C786 1.378 . S
C788 C789 1.367 . S
C789 C788 1.367 . S
C789 C791 1.433 . S
C790 C786 1.350 . S
C790 C787 1.463 . S
C790 N794 1.427 . S
C791 H781 0.929 . S
C791 C789 1.433 . S
C791 N794 1.384 . S
C792 H783 0.929 . S
C792 C784 1.378 . S
C792 C787 1.350 . S
C793 H780 0.929 . S
C793 C785 1.433 . S
C793 N795 1.384 . S
N794 C790 1.427 . S
N794 C791 1.384 . S
N795 C787 1.427 . S
N795 C793 1.384 . S
H796 C802 0.930 . S
H797 C806 0.930 . S
H798 C811 0.929 . S
H799 C809 0.929 . S
H800 C804 0.929 . S
H801 C810 0.929 . S
C802 H796 0.930 . S
C802 C803 1.367 . S
C802 C810 1.378 . S
C803 C802 1.367 . S
C803 C811 1.433 . S
C804 H800 0.929 . S
C804 C806 1.378 . S
C804 C808 1.350 . S
C805 C808 1.463 . S
C805 C810 1.350 . S
C805 N813 1.427 . S
C806 H797 0.930 . S
C806 C804 1.378 . S
C806 C807 1.367 . S
C807 C806 1.367 . S
C807 C809 1.433 . S
C808 C804 1.350 . S
C808 C805 1.463 . S
C808 N812 1.427 . S
C809 H799 0.929 . S
C809 C807 1.433 . S
C809 N812 1.384 . S
C810 H801 0.929 . S
C810 C802 1.378 . S
C810 C805 1.350 . S
C811 H798 0.929 . S
C811 C803 1.433 . S
C811 N813 1.384 . S
N812 C808 1.427 . S
N812 C809 1.384 . S
N813 C805 1.427 . S
N813 C811 1.384 . S
H814 C820 0.930 . S
H815 C824 0.930 . S
H816 C829 0.929 . S
H817 C827 0.929 . S
H818 C822 0.929 . S
H819 C828 0.929 . S
C820 H814 0.930 . S
C820 C821 1.367 . S
C820 C828 1.378 . S
C821 C820 1.367 . S
C821 C829 1.433 . S
C822 H818 0.929 . S
C822 C824 1.378 . S
C822 C826 1.350 . S
C823 C826 1.463 . S
C823 C828 1.350 . S
C823 N831 1.427 . S
C824 H815 0.930 . S
C824 C822 1.378 . S
C824 C825 1.367 . S
C825 C824 1.367 . S
C825 C827 1.433 . S
C826 C822 1.350 . S
C826 C823 1.463 . S
C826 N830 1.427 . S
C827 H817 0.929 . S
C827 C825 1.433 . S
C827 N830 1.384 . S
C828 H819 0.929 . S
C828 C820 1.378 . S
C828 C823 1.350 . S
C829 H816 0.929 . S
C829 C821 1.433 . S
C829 N831 1.384 . S
N830 C826 1.427 . S
N830 C827 1.384 . S
N831 C823 1.427 . S
N831 C829 1.384 . S
H832 C838 0.930 . S
H833 C842 0.930 . S
H834 C847 0.929 . S
H835 C845 0.929 . S
H836 C840 0.929 . S
H837 C846 0.930 . S
C838 H832 0.930 . S
C838 C839 1.367 . S
C838 C846 1.378 . S
C839 C838 1.367 . S
C839 C847 1.433 . S
C840 H836 0.929 . S
C840 C842 1.378 . S
C840 C844 1.350 . S
C841 C844 1.463 . S
C841 C846 1.350 . S
C841 N849 1.427 . S
C842 H833 0.930 . S
C842 C840 1.378 . S
C842 C843 1.367 . S
C843 C842 1.367 . S
C843 C845 1.433 1_556 S
C844 C840 1.350 . S
C844 C841 1.463 . S
C844 N848 1.427 . S
C845 H835 0.929 . S
C845 C843 1.433 1_554 S
C845 N848 1.384 1_554 S
C846 H837 0.930 . S
C846 C838 1.378 . S
C846 C841 1.350 . S
C847 H834 0.929 . S
C847 C839 1.433 . S
C847 N849 1.384 . S
N848 C844 1.427 . S
N848 C845 1.384 1_556 S
N849 C841 1.427 . S
N849 C847 1.384 . S
H850 C856 0.930 . S
H851 C860 0.930 . S
H852 C865 0.929 . S
H853 C863 0.929 . S
H854 C858 0.929 . S
H855 C864 0.929 . S
C856 H850 0.930 . S
C856 C857 1.367 . S
C856 C864 1.378 . S
C857 C856 1.367 . S
C857 C865 1.433 . S
C858 H854 0.929 . S
C858 C860 1.378 . S
C858 C862 1.350 . S
C859 C862 1.463 . S
C859 C864 1.350 . S
C859 N867 1.427 . S
C860 H851 0.930 . S
C860 C858 1.378 . S
C860 C861 1.367 . S
C861 C860 1.367 . S
C861 C863 1.433 . S
C862 C858 1.350 . S
C862 C859 1.463 . S
C862 N866 1.427 . S
C863 H853 0.929 . S
C863 C861 1.433 . S
C863 N866 1.384 . S
C864 H855 0.929 . S
C864 C856 1.378 . S
C864 C859 1.350 . S
C865 H852 0.929 . S
C865 C857 1.433 . S
C865 N867 1.384 . S
N866 C862 1.427 . S
N866 C863 1.384 . S
N867 C859 1.427 . S
N867 C865 1.384 . S
H868 C874 0.930 . S
H869 C878 0.930 . S
H870 C883 0.929 . S
H871 C881 0.929 . S
H872 C876 0.929 . S
H873 C882 0.929 . S
C874 H868 0.930 . S
C874 C875 1.367 . S
C874 C882 1.378 . S
C875 C874 1.367 . S
C875 C883 1.433 . S
C876 H872 0.929 . S
C876 C878 1.378 . S
C876 C880 1.350 . S
C877 C880 1.463 . S
C877 C882 1.350 . S
C877 N885 1.427 . S
C878 H869 0.930 . S
C878 C876 1.378 . S
C878 C879 1.367 . S
C879 C878 1.367 . S
C879 C881 1.433 . S
C880 C876 1.350 . S
C880 C877 1.463 . S
C880 N884 1.427 . S
C881 H871 0.929 . S
C881 C879 1.433 . S
C881 N884 1.384 . S
C882 H873 0.929 . S
C882 C874 1.378 . S
C882 C877 1.350 . S
C883 H870 0.929 . S
C883 C875 1.433 . S
C883 N885 1.384 . S
N884 C880 1.427 . S
N884 C881 1.384 . S
N885 C877 1.427 . S
N885 C883 1.384 . S
H886 C892 0.930 . S
H887 C896 0.930 . S
H888 C901 0.929 . S
H889 C899 0.929 . S
H890 C894 0.929 . S
H891 C900 0.929 . S
C892 H886 0.930 . S
C892 C893 1.367 . S
C892 C900 1.378 . S
C893 C892 1.367 . S
C893 C901 1.433 . S
C894 H890 0.929 . S
C894 C896 1.378 . S
C894 C898 1.350 . S
C895 C898 1.463 . S
C895 C900 1.350 . S
C895 N903 1.427 . S
C896 H887 0.930 . S
C896 C894 1.378 . S
C896 C897 1.367 . S
C897 C896 1.367 . S
C897 C899 1.433 . S
C898 C894 1.350 . S
C898 C895 1.463 . S
C898 N902 1.427 . S
C899 H889 0.929 . S
C899 C897 1.433 . S
C899 N902 1.384 . S
C900 H891 0.929 . S
C900 C892 1.378 . S
C900 C895 1.350 . S
C901 H888 0.929 . S
C901 C893 1.433 . S
C901 N903 1.384 . S
N902 C898 1.427 . S
N902 C899 1.384 . S
N903 C895 1.427 . S
N903 C901 1.384 . S
C479 C1 2.916 . S
C483 C331 2.892 . S
C497 C40 2.418 . S
C501 C362 2.513 . S
C519 C401 1.364 . S
C515 C99 1.405 . S
C533 C118 0.479 . S
C537 C438 0.492 . S
C555 C361 2.823 . S
C551 C16 2.911 . S
C573 C318 1.537 . S
C569 C60 1.517 . S
C591 C450 1.436 . S
C587 C79 1.482 . S
C609 C407 1.029 . S
C605 C138 1.048 . S
C623 C21 2.301 . S
C627 C451 2.301 . S
C645 C367 1.304 . S
C641 C94 1.299 . S
C659 C133 0.517 . S
C663 C330 0.562 . S
C677 C55 2.523 . S
C681 C402 2.559 . S
C699 C322 2.896 . S
C695 C157 2.920 . S
C713 C196 2.408 . S
C717 C371 2.511 . S
C731 C255 1.398 . S
C735 C410 1.372 . S
C749 C289 0.484 . S
C753 C447 0.505 . S
C767 C172 2.910 . S
C771 C370 2.823 . S
C789 C327 1.534 . S
C785 C216 1.504 . S
C807 C441 1.438 . S
C803 C235 1.482 . S
C825 C398 1.040 . S
C821 C294 1.053 . S
C839 C177 2.300 . S
C843 C442 2.300 . S
C861 C358 1.306 . S
C857 C250 1.306 . S
C879 C321 0.576 . S
C875 C274 0.525 . S
C893 C211 2.524 . S
C897 C411 2.551 . S
