# Generated by pormake.
# Topology anh, (6,3)-cn, num edge types: 1
# Building blocks:
#     Node 0, Type 0, BuildingBlock: BETDAH_clean_sbu_0, # of connection points: 6
#     Node 1, Type 0, BuildingBlock: BETDAH_clean_sbu_0, # of connection points: 6
#     Node 2, Type 0, BuildingBlock: BETDAH_clean_sbu_0, # of connection points: 6
#     Node 3, Type 1, BuildingBlock: ESEHIV_clean_linker_0, # of connection points: 3
#     Node 4, Type 1, BuildingBlock: ESEHIV_clean_linker_0, # of connection points: 3
#     Node 5, Type 1, BuildingBlock: ESEHIV_clean_linker_0, # of connection points: 3
#     Node 6, Type 1, BuildingBlock: ESEHIV_clean_linker_0, # of connection points: 3
#     Node 7, Type 1, BuildingBlock: ESEHIV_clean_linker_0, # of connection points: 3
#     Node 8, Type 1, BuildingBlock: ESEHIV_clean_linker_0, # of connection points: 3
#     Edge 9, Type (0, 1), BuildingBlock: TEMPAE_clean_linker_10, # of connection points: 2
#     Edge 10, Type (0, 1), BuildingBlock: TEMPAE_clean_linker_10, # of connection points: 2
#     Edge 11, Type (0, 1), BuildingBlock: TEMPAE_clean_linker_10, # of connection points: 2
#     Edge 12, Type (0, 1), BuildingBlock: TEMPAE_clean_linker_10, # of connection points: 2
#     Edge 13, Type (0, 1), BuildingBlock: TEMPAE_clean_linker_10, # of connection points: 2
#     Edge 14, Type (0, 1), BuildingBlock: TEMPAE_clean_linker_10, # of connection points: 2
#     Edge 15, Type (0, 1), BuildingBlock: TEMPAE_clean_linker_10, # of connection points: 2
#     Edge 16, Type (0, 1), BuildingBlock: TEMPAE_clean_linker_10, # of connection points: 2
#     Edge 17, Type (0, 1), BuildingBlock: TEMPAE_clean_linker_10, # of connection points: 2
#     Edge 18, Type (0, 1), BuildingBlock: TEMPAE_clean_linker_10, # of connection points: 2
#     Edge 19, Type (0, 1), BuildingBlock: TEMPAE_clean_linker_10, # of connection points: 2
#     Edge 20, Type (0, 1), BuildingBlock: TEMPAE_clean_linker_10, # of connection points: 2
#     Edge 21, Type (0, 1), BuildingBlock: TEMPAE_clean_linker_10, # of connection points: 2
#     Edge 22, Type (0, 1), BuildingBlock: TEMPAE_clean_linker_10, # of connection points: 2
#     Edge 23, Type (0, 1), BuildingBlock: TEMPAE_clean_linker_10, # of connection points: 2
#     Edge 24, Type (0, 1), BuildingBlock: TEMPAE_clean_linker_10, # of connection points: 2
#     Edge 25, Type (0, 1), BuildingBlock: TEMPAE_clean_linker_10, # of connection points: 2
#     Edge 26, Type (0, 1), BuildingBlock: TEMPAE_clean_linker_10, # of connection points: 2
# Relax obj value: 0.214
# Max RMSD: 0.227
# Mean RMSD: 0.165
data_MOF--net-anh--node1-BETDAH_clean_sbu_0--node2-ESEHIV_clean_linker_0--edge1-TEMPAE_clean_linker_10
_symmetry_space_group_name_H-M    P1
_symmetry_Int_Tables_number       1
_symmetry_cell_setting            triclinic
loop_
_symmetry_equiv_pos_as_xyz
'x, y, z'
_cell_length_a     28.518493
_cell_length_b     35.329304
_cell_length_c     52.307602
_cell_angle_alpha  91.858234
_cell_angle_beta   89.438682
_cell_angle_gamma 130.2084
loop_
_atom_site_label
_atom_site_type_symbol
_atom_site_fract_x
_atom_site_fract_y
_atom_site_fract_z
_atom_type_partial_charge
Ho0 Ho 0.20106 0.5755 0.13936 0.0
Ho1 Ho 0.1224 0.59865 0.16165 0.0
C2 C 0.26036 0.69024 0.15163 0.0
C3 C 0.26862 0.56524 0.11249 0.0
C4 C 0.26642 0.52314 0.10709 0.0
C5 C 0.32122 0.53181 0.10328 0.0
C6 C 0.32045 0.49207 0.10005 0.0
C7 C 0.26471 0.44286 0.10048 0.0
C8 C 0.2097 0.43434 0.10412 0.0
C9 C 0.21058 0.47419 0.10749 0.0
C10 C 0.18866 0.56928 0.19021 0.0
C11 C 1.06361 0.48321 0.15135 0.0
C12 C 1.04329 0.59646 0.18747 0.0
C13 C 0.97756 0.55448 0.19131 0.0
C14 C 0.95767 0.50782 0.19782 0.0
C15 C 0.89595 0.46554 0.19503 0.0
C16 C 0.85301 0.4691 0.18568 0.0
C17 C 0.87206 0.51632 0.18138 0.0
C18 C 0.93386 0.55865 0.18417 0.0
C19 C 0.13215 0.60026 0.11033 0.0
O20 O 0.26072 0.65927 0.13671 0.0
O21 O 0.21358 0.67407 0.16662 0.0
O22 O 0.22397 0.56191 0.10265 0.0
O23 O 0.28144 0.58185 0.13627 0.0
O24 O 0.19319 0.54086 0.17621 0.0
O25 O 0.1959 0.60191 0.17705 0.0
O26 O 1.06016 0.51493 0.16327 0.0
O27 O 0.11189 0.49762 0.13803 0.0
O28 O 1.05767 0.61131 0.16395 0.0
O29 O 1.08236 0.59373 0.19807 0.0
O30 O 0.13154 0.63159 0.12359 0.0
O31 O 0.12484 0.56906 0.12463 0.0
H32 H 0.36476 0.56936 0.10331 0.0
H33 H 0.36378 0.49995 0.09781 0.0
H34 H 0.16605 0.39693 0.10435 0.0
H35 H 0.16776 0.46675 0.11069 0.0
H36 H 0.9901 0.5033 0.20351 0.0
H37 H 0.88245 0.42975 0.19884 0.0
H38 H 0.84016 0.52028 0.17393 0.0
H39 H 0.94812 0.59416 0.17898 0.0
Ho40 Ho 0.69508 0.05822 0.47459 0.0
Ho41 Ho 0.60914 0.07801 0.46382 0.0
C42 C 0.54946 0.96619 0.46311 0.0
C43 C 0.74518 0.02424 0.49249 0.0
C44 C 0.72494 0.97491 0.49811 0.0
C45 C 0.7203 0.96169 0.5236 0.0
C46 C 0.70365 0.91605 0.52924 0.0
C47 C 0.69181 0.88285 0.50947 0.0
C48 C 0.69566 0.89576 0.48396 0.0
C49 C 0.71197 0.94127 0.47831 0.0
C50 C 0.68961 0.0752 0.42538 0.0
C51 C 0.75688 0.17124 0.47318 0.0
C52 C 0.56028 0.11443 0.44851 0.0
C53 C 0.57367 0.16067 0.45686 0.0
C54 C 0.55977 0.18363 0.44107 0.0
C55 C 0.57377 0.22815 0.44921 0.0
C56 C 0.60176 0.25025 0.47331 0.0
C57 C 0.61594 0.22701 0.48889 0.0
C58 C 0.60249 0.18297 0.48067 0.0
C59 C 0.61703 0.06274 0.51311 0.0
O60 O 0.59973 0.98224 0.47574 0.0
O61 O 0.54636 0.9976 0.452 0.0
O62 O 0.74702 0.03391 0.4684 0.0
O63 O 0.7235 0.04048 0.50708 0.0
O64 O 0.73938 0.08995 0.43675 0.0
O65 O 0.64451 0.04956 0.44008 0.0
O66 O 0.70244 0.1554 0.46562 0.0
O67 O 0.7655 0.14054 0.48018 0.0
O68 O 0.53564 0.08065 0.46582 0.0
O69 O 0.60465 0.12014 0.43632 0.0
O70 O 0.56642 0.04672 0.50211 0.0
O71 O 0.66108 0.08819 0.49802 0.0
H72 H 0.73042 0.987 0.53923 0.0
H73 H 0.70182 0.90737 0.54908 0.0
H74 H 0.68631 0.87071 0.46835 0.0
H75 H 0.71502 0.9502 0.45843 0.0
H76 H 0.53828 0.16722 0.42248 0.0
H77 H 0.56298 0.24535 0.43657 0.0
H78 H 0.6364 0.24224 0.50772 0.0
H79 H 0.61422 0.16606 0.49304 0.0
Ho80 Ho 0.63772 0.5708 0.84556 0.0
Ho81 Ho 0.54339 0.45804 0.8434 0.0
C82 C 0.48884 0.51392 0.84572 0.0
C83 C 0.70069 0.6632 0.83561 0.0
C84 C 0.68803 0.69582 0.82787 0.0
C85 C 0.69835 0.71107 0.8025 0.0
C86 C 0.68751 0.74226 0.7947 0.0
C87 C 0.66682 0.75959 0.81217 0.0
C88 C 0.65638 0.74428 0.8376 0.0
C89 C 0.66689 0.71273 0.84538 0.0
C90 C 0.60704 0.52637 0.89071 0.0
C91 C 0.6931 0.51557 0.84497 0.0
C92 C 0.48497 0.36536 0.8506 0.0
C93 C 0.49928 0.33329 0.8432 0.0
C94 C 0.48679 0.29756 0.85987 0.0
C95 C 0.50297 0.26858 0.85333 0.0
C96 C 0.53196 0.27496 0.82997 0.0
C97 C 0.54441 0.31099 0.8134 0.0
C98 C 0.5287 0.34007 0.82003 0.0
C99 C 0.57481 0.50102 0.79778 0.0
O100 O 0.54594 0.5547 0.84075 0.0
O101 O 0.477 0.47187 0.85075 0.0
O102 O 0.68643 0.64668 0.85887 0.0
O103 O 0.68712 0.62937 0.81856 0.0
O104 O 0.66261 0.56588 0.88554 0.0
O105 O 0.57137 0.51463 0.87236 0.0
O106 O 0.63532 0.47407 0.84792 0.0
O107 O 0.70588 0.55831 0.84121 0.0
O108 O 0.4721 0.38112 0.83186 0.0
O109 O 0.52217 0.40038 0.86768 0.0
O110 O 0.52012 0.46094 0.80295 0.0
O111 O 0.61061 0.51386 0.81629 0.0
H112 H 0.71485 0.69882 0.78858 0.0
H113 H 0.69504 0.75255 0.77488 0.0
H114 H 0.64112 0.75737 0.85163 0.0
H115 H 0.6588 0.70193 0.86512 0.0
H116 H 0.46507 0.2924 0.87804 0.0
H117 H 0.49341 0.24163 0.86667 0.0
H118 H 0.56567 0.31641 0.79509 0.0
H119 H 0.5397 0.36797 0.807 0.0
H120 H 0.59388 1.00931 0.22984 0.0
H121 H 0.73973 0.16697 0.23231 0.0
H122 H 0.66765 0.08753 0.1596 0.0
C123 C 0.62641 0.0436 0.21995 0.0
C124 C 0.6263 0.04272 0.19308 0.0
C125 C 0.66698 0.08807 0.23427 0.0
C126 C 0.7072 0.13251 0.22139 0.0
C127 C 0.7078 0.13285 0.19451 0.0
C128 C 0.66723 0.08768 0.18032 0.0
H129 H 0.65108 0.61982 0.61024 0.0
H130 H 0.65752 0.50166 0.60279 0.0
H131 H 0.64726 0.56361 0.53575 0.0
C132 C 0.65291 0.59497 0.59851 0.0
C133 C 0.65251 0.59742 0.5718 0.0
C134 C 0.65364 0.56 0.61005 0.0
C135 C 0.65401 0.52724 0.59422 0.0
C136 C 0.65007 0.52714 0.5674 0.0
C137 C 0.64972 0.56275 0.55635 0.0
H138 H 1.03372 0.54048 0.91519 0.0
H139 H 0.1934 0.5535 0.91576 0.0
H140 H 0.09261 0.51581 0.84503 0.0
C141 C 1.06654 0.54009 0.90488 0.0
C142 C 1.05945 0.53141 0.8782 0.0
C143 C 0.11457 0.54846 0.91857 0.0
C144 C 0.15462 0.54483 0.90542 0.0
C145 C 0.14601 0.53009 0.87933 0.0
C146 C 0.09871 0.52481 0.86535 0.0
H147 H 1.07203 0.48425 0.38409 0.0
H148 H 0.23444 0.63665 0.38534 0.0
H149 H 0.14812 0.56636 0.45632 0.0
C150 C 0.10592 0.51825 0.39504 0.0
C151 C 0.10239 0.51958 0.42196 0.0
C152 C 0.1525 0.56045 0.38183 0.0
C153 C 0.19809 0.60413 0.39565 0.0
C154 C 0.19804 0.60648 0.42249 0.0
C155 C 0.14924 0.56431 0.43565 0.0
H156 H 0.62103 0.0946 0.71058 0.0
H157 H 0.622 0.97349 0.70428 0.0
H158 H 0.59834 0.01741 0.77754 0.0
C159 C 0.61656 0.06498 0.7192 0.0
C160 C 0.60736 0.05889 0.74569 0.0
C161 C 0.6202 0.03361 0.70381 0.0
C162 C 0.61864 0.99768 0.71573 0.0
C163 C 0.61275 0.99261 0.74243 0.0
C164 C 0.60607 0.02284 0.75718 0.0
H165 H 0.38016 0.27797 0.03428 0.0
H166 H 0.54869 0.30434 0.03863 0.0
H167 H 0.42826 0.24727 0.10332 0.0
C168 C 0.40898 0.27311 0.04433 0.0
C169 C 0.39522 0.2569 0.06954 0.0
C170 C 0.46472 0.29117 0.0334 0.0
C171 C 0.50482 0.28885 0.04695 0.0
C172 C 0.4928 0.27388 0.07251 0.0
C173 C 0.43666 0.25614 0.08328 0.0
C174 C 0.30392 0.40347 0.08001 0.0
C175 C 0.26472 0.40094 0.0976 0.0
C176 C 0.30984 0.36713 0.07878 0.0
C177 C 0.27479 0.3266 0.09529 0.0
C178 C 0.23225 0.32209 0.11201 0.0
C179 C 0.22811 0.35964 0.11315 0.0
C180 C 0.35573 0.37341 0.0605 0.0
C181 C 0.19318 0.27913 0.12958 0.0
C182 C 0.29335 0.23644 0.0708 0.0
C183 C 0.34896 0.2565 0.08307 0.0
C184 C 0.26229 0.25394 0.07723 0.0
C185 C 0.28794 0.2923 0.09617 0.0
C186 C 0.33785 0.3062 0.11146 0.0
C187 C 0.36786 0.28802 0.10472 0.0
C188 C 0.20712 0.23632 0.06143 0.0
C189 C 0.36556 0.34597 0.13237 0.0
H190 H 0.33108 0.43458 0.06748 0.0
H191 H 0.1978 0.35747 0.12688 0.0
H192 H 0.39195 0.37734 0.07138 0.0
H193 H 0.33271 0.34017 0.04756 0.0
H194 H 0.37823 0.40646 0.0486 0.0
H195 H 0.15059 0.27249 0.13479 0.0
H196 H 0.18039 0.24452 0.12078 0.0
H197 H 0.21939 0.28775 0.14749 0.0
H198 H 0.27781 0.21115 0.05442 0.0
H199 H 0.41054 0.30355 0.11449 0.0
H200 H 0.22203 0.26286 0.04608 0.0
H201 H 0.17336 0.23457 0.07332 0.0
H202 H 0.18424 0.1992 0.05229 0.0
H203 H 0.3928 0.38279 0.12361 0.0
H204 H 0.39641 0.3461 0.14526 0.0
H205 H 0.32921 0.34086 0.14396 0.0
C206 C 0.86427 0.2401 0.46024 0.0
C207 C 0.81029 0.2248 0.47186 0.0
C208 C 0.91239 0.29034 0.4553 0.0
C209 C 0.90755 0.3265 0.46319 0.0
C210 C 0.85454 0.31138 0.47646 0.0
C211 C 0.80584 0.26055 0.48002 0.0
C212 C 0.96661 0.30421 0.44017 0.0
C213 C 0.84827 0.34859 0.4862 0.0
C214 C 1.058 0.45992 0.45848 0.0
C215 C 1.05002 0.47342 0.43496 0.0
C216 C 1.01061 0.41342 0.46883 0.0
C217 C 0.95472 0.37884 0.45493 0.0
C218 C 0.94548 0.3931 0.43182 0.0
C219 C 0.99228 0.44044 0.4226 0.0
C220 C 1.02117 0.40071 0.4942 0.0
C221 C 0.88735 0.3574 0.41598 0.0
H222 H 0.86734 0.21237 0.4536 0.0
H223 H 0.76407 0.24871 0.48907 0.0
H224 H 0.96848 0.31989 0.42176 0.0
H225 H 1.01006 0.33321 0.45074 0.0
H226 H 0.96416 0.27193 0.436 0.0
H227 H 0.81117 0.33245 0.50047 0.0
H228 H 0.89206 0.38167 0.49506 0.0
H229 H 0.83716 0.36126 0.47004 0.0
H230 H 0.10191 0.48479 0.46843 0.0
H231 H 0.98404 0.45094 0.40506 0.0
H232 H 1.0286 0.37374 0.49108 0.0
H233 H 0.98026 0.38305 0.50645 0.0
H234 H 1.06188 0.43399 0.5046 0.0
H235 H 0.88129 0.32379 0.41062 0.0
H236 H 0.88778 0.37397 0.39819 0.0
H237 H 0.84685 0.34519 0.42725 0.0
C238 C 0.60626 0.78871 0.81232 0.0
C239 C 0.65692 0.79387 0.8038 0.0
C240 C 0.59591 0.82021 0.80394 0.0
C241 C 0.63688 0.85744 0.78645 0.0
C242 C 0.68835 0.86313 0.77798 0.0
C243 C 0.69792 0.83155 0.78687 0.0
C244 C 0.54082 0.8133 0.81355 0.0
C245 C 0.73307 0.90233 0.75929 0.0
C246 C 0.5852 0.90921 0.74335 0.0
C247 C 0.61445 0.95617 0.75488 0.0
C248 C 0.59074 0.87615 0.75381 0.0
C249 C 0.62576 0.89009 0.77654 0.0
C250 C 0.65333 0.93657 0.78886 0.0
C251 C 0.64764 0.96914 0.77781 0.0
C252 C 0.56078 0.82696 0.74007 0.0
C253 C 0.69059 0.9526 0.81324 0.0
H254 H 0.57399 0.75943 0.8252 0.0
H255 H 0.73786 0.83652 0.78057 0.0
H256 H 0.55562 0.84856 0.82238 0.0
H257 H 0.50956 0.80329 0.7973 0.0
H258 H 0.51472 0.78391 0.82786 0.0
H259 H 0.77082 0.90192 0.7546 0.0
H260 H 0.70858 0.89653 0.74129 0.0
H261 H 0.75347 0.93963 0.76732 0.0
H262 H 0.55839 0.89841 0.72593 0.0
H263 H 0.67088 1.00549 0.78675 0.0
H264 H 0.53099 0.79616 0.75332 0.0
H265 H 0.5966 0.82545 0.73337 0.0
H266 H 0.53265 0.82069 0.72329 0.0
H267 H 0.66394 0.92352 0.82764 0.0
H268 H 0.70453 0.98793 0.8216 0.0
H269 H 0.73261 0.95765 0.80935 0.0
C270 C 0.73981 0.42013 0.18004 0.0
C271 C 0.79157 0.42411 0.17649 0.0
C272 C 0.68532 0.38435 0.16615 0.0
C273 C 0.68274 0.35181 0.14844 0.0
C274 C 0.73228 0.35184 0.14715 0.0
C275 C 0.78657 0.38861 0.16083 0.0
C276 C 0.63305 0.38501 0.16841 0.0
C277 C 0.73118 0.3169 0.12928 0.0
C278 C 0.53322 0.26036 0.11074 0.0
C279 C 0.54392 0.28871 0.08971 0.0
C280 C 0.57876 0.27931 0.12971 0.0
C281 C 0.63613 0.32748 0.12746 0.0
C282 C 0.64847 0.3548 0.10549 0.0
C283 C 0.6022 0.33536 0.0871 0.0
C284 C 0.56466 0.24878 0.15262 0.0
C285 C 0.70968 0.40594 0.10199 0.0
H286 H 0.7432 0.44703 0.19244 0.0
H287 H 0.82663 0.39192 0.15752 0.0
H288 H 0.63262 0.40303 0.15152 0.0
H289 H 0.58831 0.34674 0.1687 0.0
H290 H 0.63753 0.40586 0.18592 0.0
H291 H 0.75676 0.30655 0.13793 0.0
H292 H 0.68383 0.2825 0.12457 0.0
H293 H 0.7542 0.33586 0.11123 0.0
H294 H 0.48857 0.22409 0.11281 0.0
H295 H 0.61099 0.35837 0.07142 0.0
H296 H 0.55963 0.26526 0.16972 0.0
H297 H 0.60297 0.24902 0.15667 0.0
H298 H 0.5216 0.20976 0.14985 0.0
H299 H 0.71692 0.43187 0.11726 0.0
H300 H 0.71287 0.42109 0.08316 0.0
H301 H 0.74754 0.40483 0.10358 0.0
C302 C 0.45094 0.89287 0.44208 0.0
C303 C 0.49633 0.91205 0.46103 0.0
C304 C 0.40154 0.84162 0.43927 0.0
C305 C 0.39648 0.80855 0.45613 0.0
C306 C 0.44112 0.82784 0.47585 0.0
C307 C 0.4908 0.87924 0.47789 0.0
C308 C 0.35577 0.82273 0.41767 0.0
C309 C 0.43696 0.79412 0.49452 0.0
C310 C 0.23941 0.67838 0.4535 0.0
C311 C 0.24989 0.65406 0.43574 0.0
C312 C 0.2876 0.72795 0.46166 0.0
C313 C 0.34731 0.75375 0.45161 0.0
C314 C 0.35871 0.72807 0.43506 0.0
C315 C 0.31015 0.67859 0.42758 0.0
C316 C 0.27382 0.75355 0.47987 0.0
C317 C 0.42131 0.75381 0.42375 0.0
H318 H 0.45483 0.91784 0.42893 0.0
H319 H 0.52529 0.89374 0.49279 0.0
H320 H 0.35706 0.79831 0.40436 0.0
H321 H 0.30857 0.80016 0.42527 0.0
H322 H 0.36509 0.85329 0.40666 0.0
H323 H 0.47186 0.81518 0.51017 0.0
H324 H 0.39063 0.76948 0.50305 0.0
H325 H 0.44378 0.76999 0.48434 0.0
H326 H 0.19302 0.65973 0.45987 0.0
H327 H 0.31873 0.65969 0.41415 0.0
H328 H 0.27394 0.78035 0.46932 0.0
H329 H 0.30973 0.7748 0.49509 0.0
H330 H 0.22834 0.72682 0.48893 0.0
H331 H 0.43242 0.78278 0.41076 0.0
H332 H 0.42371 0.7277 0.41272 0.0
H333 H 0.45714 0.77259 0.43902 0.0
C334 C 0.5072 0.19256 0.82688 0.0
C335 C 0.5479 0.24353 0.82236 0.0
C336 C 0.51877 0.1617 0.81734 0.0
C337 C 0.57185 0.18218 0.80265 0.0
C338 C 0.61454 0.23391 0.79907 0.0
C339 C 0.60229 0.26398 0.80913 0.0
C340 C 0.47263 0.1068 0.82192 0.0
C341 C 0.67157 0.25723 0.78342 0.0
C342 C 0.62258 0.10789 0.78563 0.0
C343 C 0.5972 0.08934 0.76094 0.0
C344 C 0.61377 0.13738 0.79974 0.0
C345 C 0.5795 0.14909 0.78876 0.0
C346 C 0.55332 0.1301 0.76399 0.0
C347 C 0.56192 0.10011 0.75054 0.0
C348 C 0.64164 0.15645 0.82625 0.0
C349 C 0.51677 0.14195 0.75149 0.0
H350 H 0.46493 0.17631 0.83696 0.0
H351 H 0.63479 0.30351 0.8061 0.0
H352 H 0.44802 0.08639 0.80375 0.0
H353 H 0.49617 0.09316 0.82841 0.0
H354 H 0.4382 0.09773 0.83639 0.0
H355 H 0.70267 0.29838 0.78428 0.0
H356 H 0.69729 0.24568 0.79017 0.0
H357 H 0.65825 0.24424 0.76314 0.0
H358 H 0.65024 0.1001 0.79377 0.0
H359 H 0.54078 0.08497 0.73177 0.0
H360 H 0.60574 0.14608 0.84017 0.0
H361 H 0.67638 0.19753 0.82667 0.0
H362 H 0.66403 0.14171 0.83261 0.0
H363 H 0.47679 0.12906 0.76342 0.0
H364 H 0.49975 0.12444 0.73205 0.0
H365 H 0.54563 0.18269 0.74998 0.0
C366 C 0.70945 0.82249 0.50271 0.0
C367 C 0.6786 0.83608 0.51553 0.0
C368 C 0.70185 0.78089 0.50981 0.0
C369 C 0.66228 0.75214 0.53014 0.0
C370 C 0.62896 0.76442 0.54241 0.0
C371 C 0.63771 0.8064 0.53501 0.0
C372 C 0.73844 0.76915 0.49637 0.0
C373 C 0.58588 0.73436 0.56401 0.0
C374 C 0.61525 0.6256 0.54048 0.0
C375 C 0.65554 0.63678 0.56034 0.0
C376 C 0.61689 0.66278 0.53032 0.0
C377 C 0.66012 0.71216 0.54016 0.0
C378 C 0.7015 0.72366 0.55993 0.0
C379 C 0.6986 0.68583 0.56978 0.0
C380 C 0.57191 0.64917 0.50934 0.0
C381 C 0.74868 0.77595 0.57078 0.0
H382 H 0.74152 0.84559 0.48779 0.0
H383 H 0.61315 0.81642 0.54471 0.0
H384 H 0.77289 0.77556 0.50987 0.0
H385 H 0.70797 0.72953 0.49 0.0
H386 H 0.76287 0.79236 0.47949 0.0
H387 H 0.55928 0.74606 0.56994 0.0
H388 H 0.55325 0.69439 0.55829 0.0
H389 H 0.61258 0.73858 0.5808 0.0
H390 H 0.58161 0.58761 0.53328 0.0
H391 H 0.73036 0.69467 0.5849 0.0
H392 H 0.59693 0.67166 0.49236 0.0
H393 H 0.5424 0.65769 0.5159 0.0
H394 H 0.54202 0.60927 0.50344 0.0
H395 H 0.77853 0.8013 0.55531 0.0
H396 H 0.77816 0.77877 0.58582 0.0
H397 H 0.7254 0.78913 0.57917 0.0
C398 C 0.74553 0.48531 0.86362 0.0
C399 C 0.74509 0.51421 0.84591 0.0
C400 C 0.79617 0.48659 0.86597 0.0
C401 C 0.84741 0.51586 0.84949 0.0
C402 C 0.84557 0.54313 0.8307 0.0
C403 C 0.79561 0.5429 0.82955 0.0
C404 C 0.79587 0.45806 0.88689 0.0
C405 C 0.89688 0.57316 0.81184 0.0
C406 C 1.00615 0.56683 0.8743 0.0
C407 C 1.01078 0.53097 0.86582 0.0
C408 C 0.95412 0.56225 0.8691 0.0
C409 C 0.90509 0.52197 0.85367 0.0
C410 C 0.91136 0.48761 0.84319 0.0
C411 C 0.96331 0.49199 0.84966 0.0
C412 C 0.95037 0.59946 0.88146 0.0
C413 C 0.86223 0.44518 0.82571 0.0
H414 H 0.70718 0.46314 0.87648 0.0
H415 H 0.79584 0.56499 0.81555 0.0
H416 H 0.80092 0.43161 0.87858 0.0
H417 H 0.83561 0.48405 0.90006 0.0
H418 H 0.75304 0.43708 0.89817 0.0
H419 H 0.88465 0.58584 0.79607 0.0
H420 H 0.93861 0.60627 0.82176 0.0
H421 H 0.90865 0.55097 0.80351 0.0
H422 H 1.04246 0.59769 0.88646 0.0
H423 H 0.96538 0.46378 0.84293 0.0
H424 H 0.90899 0.58004 0.89356 0.0
H425 H 0.94575 0.6186 0.86662 0.0
H426 H 0.99137 0.62791 0.89356 0.0
H427 H 0.82193 0.41637 0.83714 0.0
H428 H 0.8786 0.42789 0.81522 0.0
H429 H 0.84658 0.45796 0.81164 0.0
C430 C 0.36283 0.76412 0.13508 0.0
C431 C 0.3148 0.74409 0.1525 0.0
C432 C 0.41612 0.81447 0.13696 0.0
C433 C 0.42188 0.84536 0.15693 0.0
C434 C 0.37272 0.82566 0.17404 0.0
C435 C 0.31983 0.77551 0.17153 0.0
C436 C 0.46701 0.8342 0.11809 0.0
C437 C 0.37695 0.85708 0.19575 0.0
C438 C 0.57526 0.95318 0.18697 0.0
C439 C 0.58191 0.99404 0.17918 0.0
C440 C 0.52532 0.90477 0.17856 0.0
C441 C 0.48098 0.89685 0.1617 0.0
C442 C 0.49016 0.93827 0.15208 0.0
C443 C 0.54058 0.98651 0.161 0.0
C444 C 0.51768 0.86193 0.1893 0.0
C445 C 0.44457 0.93151 0.13376 0.0
H446 H 0.35923 0.74033 0.12014 0.0
H447 H 0.2831 0.76061 0.18508 0.0
H448 H 0.48249 0.86947 0.11032 0.0
H449 H 0.50708 0.84236 0.12793 0.0
H450 H 0.45259 0.80738 0.10192 0.0
H451 H 0.33356 0.83694 0.20658 0.0
H452 H 0.41442 0.86886 0.2092 0.0
H453 H 0.38835 0.89116 0.1883 0.0
H454 H 0.60765 0.95896 0.20077 0.0
H455 H 0.54545 0.01795 0.15497 0.0
H456 H 0.50813 0.83564 0.17372 0.0
H457 H 0.47783 0.8413 0.20229 0.0
H458 H 0.559 0.87442 0.20021 0.0
H459 H 0.43103 0.90347 0.11846 0.0
H460 H 0.46323 0.9668 0.12479 0.0
H461 H 0.4024 0.91776 0.14421 0.0
C462 C 0.57188 0.30324 0.47831 0.0
C463 C 0.61425 0.29626 0.48282 0.0
C464 C 0.57995 0.34379 0.48952 0.0
C465 C 0.63097 0.37764 0.50604 0.0
C466 C 0.67526 0.37206 0.5098 0.0
C467 C 0.66674 0.33182 0.49791 0.0
C468 C 0.53236 0.34907 0.48463 0.0
C469 C 0.73002 0.40707 0.52745 0.0
C470 C 0.67375 0.50063 0.52742 0.0
C471 C 0.6448 0.48897 0.55121 0.0
C472 C 0.66873 0.46459 0.51221 0.0
C473 C 0.63506 0.41604 0.52123 0.0
C474 C 0.60574 0.40402 0.54516 0.0
C475 C 0.61028 0.44035 0.55965 0.0
C476 C 0.69965 0.47847 0.48656 0.0
C477 C 0.56991 0.3528 0.55561 0.0
H478 H 0.53097 0.27593 0.46685 0.0
H479 H 0.70064 0.32756 0.50097 0.0
H480 H 0.50559 0.34074 0.50223 0.0
H481 H 0.55484 0.38774 0.47973 0.0
H482 H 0.49995 0.32362 0.46889 0.0
H483 H 0.76244 0.39968 0.52691 0.0
H484 H 0.75515 0.44606 0.52229 0.0
H485 H 0.71409 0.40323 0.54738 0.0
H486 H 0.70106 0.53812 0.52078 0.0
H487 H 0.58635 0.43043 0.57764 0.0
H488 H 0.66566 0.45282 0.47131 0.0
H489 H 0.73537 0.47471 0.48652 0.0
H490 H 0.7215 0.51708 0.48174 0.0
H491 H 0.53135 0.32488 0.54239 0.0
H492 H 0.55092 0.34978 0.5748 0.0
H493 H 0.59993 0.3432 0.55705 0.0
C494 C 0.44772 0.55884 0.85571 0.0
C495 C 0.43732 0.51598 0.84664 0.0
C496 C 0.3991 0.56018 0.85825 0.0
C497 C 0.33807 0.51837 0.85058 0.0
C498 C 0.32806 0.47588 0.8402 0.0
C499 C 0.37701 0.4748 0.83892 0.0
C500 C 0.41282 0.6059 0.87017 0.0
C501 C 0.26521 0.43112 0.83054 0.0
C502 C 0.20265 0.49751 0.88441 0.0
C503 C 0.18789 0.52051 0.86876 0.0
C504 C 0.25065 0.49682 0.87873 0.0
C505 C 0.28424 0.51724 0.85586 0.0
C506 C 0.26672 0.53715 0.83884 0.0
C507 C 0.21969 0.53923 0.8456 0.0
C508 C 0.26723 0.4761 0.89802 0.0
C509 C 0.29874 0.55757 0.81371 0.0
H510 H 0.49378 0.59096 0.86181 0.0
H511 H 0.36807 0.44162 0.83156 0.0
H512 H 0.39882 0.62097 0.85691 0.0
H513 H 0.38579 0.59605 0.88786 0.0
H514 H 0.4623 0.63543 0.87507 0.0
H515 H 0.26642 0.40427 0.81962 0.0
H516 H 0.23391 0.41192 0.84689 0.0
H517 H 0.24542 0.44267 0.81806 0.0
H518 H 0.17795 0.48156 0.90207 0.0
H519 H 0.2095 0.55709 0.83315 0.0
H520 H 0.3161 0.50488 0.90401 0.0
H521 H 0.26187 0.44445 0.88932 0.0
H522 H 0.23838 0.46324 0.91535 0.0
H523 H 0.3447 0.59436 0.81716 0.0
H524 H 0.27254 0.56215 0.80051 0.0
H525 H 0.30557 0.5329 0.80424 0.0
C526 C 1.00696 0.40707 0.1764 0.0
C527 C 1.01227 0.42992 0.15397 0.0
C528 C 0.9566 0.35685 0.18002 0.0
C529 C 0.90948 0.32923 0.16103 0.0
C530 C 0.91535 0.3524 0.13811 0.0
C531 C 0.96712 0.40245 0.13479 0.0
C532 C 0.95335 0.33363 0.20443 0.0
C533 C 0.86772 0.32547 0.11687 0.0
C534 C 0.79675 0.18833 0.16532 0.0
C535 C 0.75298 0.18102 0.18201 0.0
C536 C 0.84687 0.23626 0.15749 0.0
C537 C 0.85275 0.27757 0.1663 0.0
C538 C 0.80628 0.26962 0.18187 0.0
C539 C 0.75735 0.22161 0.18961 0.0
C540 C 0.89525 0.24306 0.14092 0.0
C541 C 0.80893 0.31152 0.19188 0.0
H542 H 1.04216 0.42866 0.1912 0.0
H543 H 0.97149 0.42043 0.11743 0.0
H544 H 0.91676 0.32683 0.21668 0.0
H545 H 0.94145 0.29731 0.20012 0.0
H546 H 0.99735 0.35773 0.21545 0.0
H547 H 0.85776 0.34911 0.11005 0.0
H548 H 0.88667 0.31871 0.10043 0.0
H549 H 0.82408 0.28939 0.12246 0.0
H550 H 0.79369 0.15703 0.15959 0.0
H551 H 0.72342 0.21606 0.20245 0.0
H552 H 0.94041 0.26788 0.15103 0.0
H553 H 0.89976 0.26111 0.12301 0.0
H554 H 0.88437 0.20733 0.13585 0.0
H555 H 0.82191 0.31869 0.21249 0.0
H556 H 0.76288 0.30087 0.19034 0.0
H557 H 0.84238 0.34635 0.18174 0.0
C558 C 0.17987 0.63513 0.06815 0.0
C559 C 0.13105 0.59612 0.0823 0.0
C560 C 0.18107 0.62982 0.04144 0.0
C561 C 0.13097 0.58523 0.02871 0.0
C562 C 1.0808 0.54629 0.04307 0.0
C563 C 1.08219 0.55183 0.06979 0.0
C564 C 0.23656 0.67127 0.02697 0.0
C565 C 1.02553 0.49888 0.03022 0.0
C566 C 0.10551 0.58706 0.95772 0.0
C567 C 0.12222 0.56041 0.94678 0.0
C568 C 0.10811 0.59539 0.98429 0.0
C569 C 0.13083 0.57887 0.0004 0.0
C570 C 0.15065 0.55417 0.98953 0.0
C571 C 0.14484 0.54427 0.963 0.0
C572 C 1.08479 0.62058 -0.00483 0.0
C573 C 0.17706 0.53738 0.00598 0.0
H574 H 0.21803 0.66903 0.07808 0.0
H575 H 1.04459 0.52174 0.08095 0.0
H576 H 0.25701 0.65724 0.01656 0.0
H577 H 0.22289 0.68486 0.01247 0.0
H578 H 0.27225 0.70302 0.03979 0.0
H579 H 0.98875 0.47364 0.044 0.0
H580 H 1.00646 0.50748 0.01532 0.0
H581 H 1.03921 0.479 0.02052 0.0
H582 H 0.08974 0.60121 0.94557 0.0
H583 H 0.15704 0.52296 0.95513 0.0
H584 H 0.12179 0.65478 0.00623 0.0
H585 H 1.04687 0.5957 0.00859 0.0
H586 H 1.06768 0.63056 0.98007 0.0
H587 H 0.21327 0.5682 0.01903 0.0
H588 H 0.19706 0.5241 0.99437 0.0
H589 H 0.14059 0.50677 0.01806 0.0
C590 C 0.73839 0.10926 0.38327 0.0
C591 C 0.68516 0.08096 0.39795 0.0
C592 C 0.73502 0.11284 0.35684 0.0
C593 C 0.67696 0.08737 0.34485 0.0
C594 C 0.62316 0.05994 0.35976 0.0
C595 C 0.62793 0.05714 0.38621 0.0
C596 C 0.79346 0.14267 0.34164 0.0
C597 C 0.56047 0.03233 0.34765 0.0
C598 C 0.67355 0.12384 0.27773 0.0
C599 C 0.66836 0.08767 0.26266 0.0
C600 C 0.67567 0.12394 0.30456 0.0
C601 C 0.67246 0.08698 0.31654 0.0
C602 C 0.66673 0.05018 0.30143 0.0
C603 C 0.66494 0.05107 0.27471 0.0
C604 C 0.6818 0.16376 0.32007 0.0
C605 C 0.66334 0.0102 0.31349 0.0
H606 H 0.78275 0.12804 0.39238 0.0
H607 H 0.58673 0.03543 0.39759 0.0
H608 H 0.79306 0.11772 0.32802 0.0
H609 H 0.79661 0.17011 0.33018 0.0
H610 H 0.83512 0.1627 0.35406 0.0
H611 H 0.52365 0.01539 0.3621 0.0
H612 H 0.55963 0.05771 0.33614 0.0
H613 H 0.55009 1.00248 0.33444 0.0
H614 H 0.67551 0.15189 0.26855 0.0
H615 H 0.66192 0.02347 0.26319 0.0
H616 H 0.72477 0.18586 0.33172 0.0
H617 H 0.64312 0.14661 0.33355 0.0
H618 H 0.6825 0.18926 0.30785 0.0
H619 H 0.70609 0.02727 0.32462 0.0
H620 H 0.65703 0.98342 0.29905 0.0
H621 H 0.62465 0.9895 0.32704 0.0
C622 C 0.55434 0.5157 0.75489 0.0
C623 C 0.59461 0.51886 0.77171 0.0
C624 C 0.56971 0.52797 0.72921 0.0
C625 C 0.62565 0.54183 0.72004 0.0
C626 C 0.66724 0.54631 0.73721 0.0
C627 C 0.6516 0.53555 0.76304 0.0
C628 C 0.52511 0.52445 0.71173 0.0
C629 C 0.72644 0.55953 0.72804 0.0
C630 C 0.61873 0.50986 0.6496 0.0
C631 C 0.65114 0.55626 0.63849 0.0
C632 C 0.61285 0.50519 0.67619 0.0
C633 C 0.63789 0.5476 0.69215 0.0
C634 C 0.67128 0.59463 0.68127 0.0
C635 C 0.6785 0.59853 0.65464 0.0
C636 C 0.57819 0.45448 0.68713 0.0
C637 C 0.69742 0.64053 0.69764 0.0
H638 H 0.51048 0.50313 0.76178 0.0
H639 H 0.6825 0.53764 0.77614 0.0
H640 H 0.54935 0.55863 0.70065 0.0
H641 H 0.50462 0.49289 0.6978 0.0
H642 H 0.48734 0.51887 0.72245 0.0
H643 H 0.75593 0.56542 0.74411 0.0
H644 H 0.71584 0.52914 0.71522 0.0
H645 H 0.75275 0.59356 0.71675 0.0
H646 H 0.59624 0.47668 0.63754 0.0
H647 H 0.70498 0.6348 0.64649 0.0
H648 H 0.53445 0.44207 0.69539 0.0
H649 H 0.60534 0.45598 0.70281 0.0
H650 H 0.56741 0.42633 0.67244 0.0
H651 H 0.65949 0.63641 0.7072 0.0
H652 H 0.72405 0.67463 0.68633 0.0
H653 H 0.7277 0.64532 0.71292 0.0
C654 C 0.57518 0.01268 0.55202 0.0
C655 C 0.6228 0.05657 0.54023 0.0
C656 C 0.57823 1.00706 0.57822 0.0
C657 C 0.6289 0.04718 0.59308 0.0
C658 C 0.67769 0.09133 0.58105 0.0
C659 C 0.67459 0.09509 0.55458 0.0
C660 C 0.52647 0.95868 0.59011 0.0
C661 C 0.73146 0.13553 0.59632 0.0
C662 C 0.59415 0.05184 0.66269 0.0
C663 C 0.62375 0.03769 0.67533 0.0
C664 C 0.59719 0.05648 0.6361 0.0
C665 C 0.62812 0.04443 0.62142 0.0
C666 C 0.65703 0.02908 0.63378 0.0
C667 C 0.65558 0.02686 0.6606 0.0
C668 C 0.56692 0.07411 0.62371 0.0
C669 C 0.68875 0.01437 0.61866 0.0
H670 H 0.53554 0.9827 0.54071 0.0
H671 H 0.71127 0.12907 0.54533 0.0
H672 H 0.54504 0.9456 0.60214 0.0
H673 H 0.49973 0.96422 0.60272 0.0
H674 H 0.49471 0.92925 0.57546 0.0
H675 H 0.76708 0.16607 0.58392 0.0
H676 H 0.71507 0.14977 0.60966 0.0
H677 H 0.7529 0.12462 0.6081 0.0
H678 H 0.56774 0.05888 0.67349 0.0
H679 H 0.67961 0.01671 0.66994 0.0
H680 H 0.52809 0.04399 0.61128 0.0
H681 H 0.60012 0.10582 0.61139 0.0
H682 H 0.54913 0.08587 0.63802 0.0
H683 H 0.65612 0.98419 0.60451 0.0
H684 H 0.7071 1.00153 0.63108 0.0
H685 H 0.72721 0.04621 0.60777 0.0
C686 C 0.63387 0.50177 0.9286 0.0
C687 C 0.5895 0.49361 0.91213 0.0
C688 C 0.61681 0.46866 0.94808 0.0
C689 C 0.55413 0.42633 0.95082 0.0
C690 C 0.50937 0.418 0.93411 0.0
C691 C 0.52753 0.45215 0.91524 0.0
C692 C 0.66562 0.47916 0.96588 0.0
C693 C 0.44219 0.37308 0.93619 0.0
C694 C 0.5077 0.31719 0.98918 0.0
C695 C 0.48811 0.32495 0.01185 0.0
C696 C 0.53018 0.3503 0.96908 0.0
C697 C 0.53431 0.39241 0.9722 0.0
C698 C 0.5161 0.40089 -0.00457 0.0
C699 C 0.49294 0.36693 0.01487 0.0
C700 C 0.54823 0.33974 0.94437 0.0
C701 C 0.52036 0.44556 -0.00034 0.0
H702 H 0.68183 0.53381 0.92617 0.0
H703 H 0.49308 0.44587 0.90257 0.0
H704 H 0.65617 0.48394 0.98583 0.0
H705 H 0.66469 0.44727 0.9654 0.0
H706 H 0.7124 0.51304 0.96084 0.0
H707 H 0.41381 0.37052 0.92068 0.0
H708 H 0.43619 0.33875 0.93542 0.0
H709 H 0.42452 0.37453 0.95486 0.0
H710 H 0.50441 0.28492 0.98705 0.0
H711 H 0.47895 0.3734 0.0327 0.0
H712 H 0.59635 0.37186 0.93973 0.0
H713 H 0.51877 0.3343 0.92844 0.0
H714 H 0.54384 0.30619 0.94524 0.0
H715 H 0.56786 0.48006 -0.00378 0.0
H716 H 0.50723 0.44797 0.01934 0.0
H717 H 0.48971 0.44386 0.98586 0.0
C718 C 0.12348 0.54045 0.22853 0.0
C719 C 0.18172 0.56655 0.218 0.0
C720 C 0.11595 0.53773 0.25513 0.0
C721 C 0.16805 0.56112 0.27138 0.0
C722 C 0.22699 0.58678 0.26064 0.0
C723 C 0.23311 0.58927 0.23395 0.0
C724 C 1.05246 0.51027 0.26582 0.0
C725 C 0.28352 0.61178 0.27732 0.0
C726 C 0.16364 0.59734 0.33988 0.0
C727 C 0.15389 0.55927 0.35346 0.0
C728 C 0.16723 0.59789 0.31312 0.0
C729 C 0.16128 0.55957 0.29963 0.0
C730 C 0.15052 0.52061 0.3132 0.0
C731 C 0.14676 0.52085 0.33998 0.0
C732 C 0.17807 0.63977 0.29931 0.0
C733 C 0.14423 0.47925 0.29946 0.0
H734 H 1.08389 0.52212 0.21593 0.0
H735 H 0.27802 0.60904 0.22553 0.0
H736 H 1.04073 0.48037 0.27819 0.0
H737 H 1.05127 0.53599 0.27794 0.0
H738 H 1.01673 0.49358 0.25054 0.0
H739 H 0.32567 0.62912 0.26593 0.0
H740 H 0.29011 0.6409 0.28983 0.0
H741 H 0.27763 0.58441 0.28997 0.0
H742 H 0.16832 0.62673 0.35024 0.0
H743 H 0.13972 0.49159 0.35045 0.0
H744 H 0.14116 0.62468 0.28482 0.0
H745 H 0.22213 0.66092 0.28896 0.0
H746 H 0.17961 0.66579 0.31256 0.0
H747 H 0.10698 0.46074 0.2848 0.0
H748 H 0.13409 0.45093 0.31273 0.0
H749 H 0.18736 0.49472 0.28932 0.0
loop_
_geom_bond_atom_site_label_1
_geom_bond_atom_site_label_2
_geom_bond_distance
_geom_bond_site_symmetry_2
_ccdc_geom_bond_type
Ho0 C3 2.811 . S
Ho0 O20 2.322 . S
Ho0 O22 2.378 . S
Ho0 O23 2.524 . S
Ho0 O24 2.381 . S
Ho0 O25 2.669 . S
Ho0 O27 2.346 1_455 S
Ho0 O31 2.305 . S
Ho1 C12 2.811 . S
Ho1 O21 2.346 1_655 S
Ho1 O25 2.305 1_655 S
Ho1 O26 2.322 . S
Ho1 O28 2.378 . S
Ho1 O29 2.524 . S
Ho1 O30 2.381 . S
Ho1 O31 2.669 1_655 S
C2 O20 1.259 . S
C2 O21 1.268 . S
C3 Ho0 2.811 . S
C3 C4 1.488 . S
C3 O22 1.215 . S
C3 O23 1.289 . S
C4 C3 1.488 . S
C4 C5 1.348 . S
C4 C9 1.413 . S
C5 C4 1.348 . S
C5 C6 1.442 . S
C5 H32 0.930 . S
C6 C5 1.442 . S
C6 C7 1.381 . S
C6 H33 0.931 . S
C7 C6 1.381 . S
C7 C8 1.321 . S
C8 C7 1.321 . S
C8 C9 1.403 . S
C8 H34 0.934 . S
C9 C4 1.413 . S
C9 C8 1.403 . S
C9 H35 0.930 . S
C10 O24 1.275 . S
C10 O25 1.256 . S
C11 O26 1.259 . S
C11 O27 1.268 . S
C12 Ho1 2.811 . S
C12 C13 1.488 . S
C12 O28 1.215 . S
C12 O29 1.289 . S
C13 C12 1.488 . S
C13 C14 1.348 . S
C13 C18 1.413 . S
C14 C13 1.348 . S
C14 C15 1.442 . S
C14 H36 0.930 . S
C15 C14 1.442 . S
C15 C16 1.381 . S
C15 H37 0.931 . S
C16 C15 1.381 . S
C16 C17 1.321 . S
C17 C16 1.321 . S
C17 C18 1.403 . S
C17 H38 0.934 . S
C18 C13 1.413 . S
C18 C17 1.403 . S
C18 H39 0.930 . S
C19 O30 1.275 1_455 S
C19 O31 1.256 . S
O20 Ho0 2.322 . S
O20 C2 1.259 . S
O21 Ho1 2.346 1_455 S
O21 C2 1.268 . S
O22 Ho0 2.378 . S
O22 C3 1.215 . S
O23 Ho0 2.524 . S
O23 C3 1.289 . S
O24 Ho0 2.381 . S
O24 C10 1.275 . S
O25 Ho0 2.669 . S
O25 Ho1 2.305 1_455 S
O25 C10 1.256 . S
O26 Ho1 2.322 . S
O26 C11 1.259 . S
O27 Ho0 2.346 1_655 S
O27 C11 1.268 . S
O28 Ho1 2.378 . S
O28 C12 1.215 . S
O29 Ho1 2.524 . S
O29 C12 1.289 . S
O30 Ho1 2.381 . S
O30 C19 1.275 1_655 S
O31 Ho0 2.305 . S
O31 Ho1 2.669 1_455 S
O31 C19 1.256 . S
H32 C5 0.930 . S
H33 C6 0.931 . S
H34 C8 0.934 . S
H35 C9 0.930 . S
H36 C14 0.930 . S
H37 C15 0.931 . S
H38 C17 0.934 . S
H39 C18 0.930 . S
Ho40 C43 2.811 . S
Ho40 O60 2.322 . S
Ho40 O62 2.378 . S
Ho40 O63 2.524 . S
Ho40 O64 2.381 . S
Ho40 O65 2.669 1_565 S
Ho40 O67 2.346 1_565 S
Ho40 O71 2.317 . S
Ho41 C52 2.811 . S
Ho41 O61 2.346 1_545 S
Ho41 O65 2.305 . S
Ho41 O66 2.322 . S
Ho41 O68 2.378 . S
Ho41 O69 2.524 . S
Ho41 O70 2.381 . S
Ho41 O71 2.650 1_545 S
C42 O60 1.259 . S
C42 O61 1.268 . S
C43 Ho40 2.811 . S
C43 C44 1.488 . S
C43 O62 1.215 . S
C43 O63 1.289 . S
C44 C43 1.488 . S
C44 C45 1.348 . S
C44 C49 1.413 . S
C45 C44 1.348 . S
C45 C46 1.442 . S
C45 H72 0.930 . S
C46 C45 1.442 . S
C46 C47 1.381 . S
C46 H73 0.931 . S
C47 C46 1.381 . S
C47 C48 1.321 . S
C48 C47 1.321 . S
C48 C49 1.403 . S
C48 H74 0.934 . S
C49 C44 1.413 . S
C49 C48 1.403 . S
C49 H75 0.930 . S
C50 O64 1.275 1_545 S
C50 O65 1.256 . S
C51 O66 1.259 . S
C51 O67 1.268 . S
C52 Ho41 2.811 . S
C52 C53 1.488 . S
C52 O68 1.215 . S
C52 O69 1.289 . S
C53 C52 1.488 . S
C53 C54 1.348 . S
C53 C58 1.413 . S
C54 C53 1.348 . S
C54 C55 1.442 . S
C54 H76 0.930 . S
C55 C54 1.442 . S
C55 C56 1.381 . S
C55 H77 0.931 . S
C56 C55 1.381 . S
C56 C57 1.321 . S
C57 C56 1.321 . S
C57 C58 1.403 . S
C57 H78 0.934 . S
C58 C53 1.413 . S
C58 C57 1.403 . S
C58 H79 0.930 . S
C59 O70 1.275 . S
C59 O71 1.245 1_545 S
O60 Ho40 2.322 . S
O60 C42 1.259 . S
O61 Ho41 2.346 1_565 S
O61 C42 1.268 . S
O62 Ho40 2.378 . S
O62 C43 1.215 . S
O63 Ho40 2.524 . S
O63 C43 1.289 . S
O64 Ho40 2.381 . S
O64 C50 1.275 1_565 S
O65 Ho40 2.669 1_545 S
O65 Ho41 2.305 . S
O65 C50 1.256 . S
O66 Ho41 2.322 . S
O66 C51 1.259 . S
O67 Ho40 2.346 1_545 S
O67 C51 1.268 . S
O68 Ho41 2.378 . S
O68 C52 1.215 . S
O69 Ho41 2.524 . S
O69 C52 1.289 . S
O70 Ho41 2.381 . S
O70 C59 1.275 . S
O71 Ho40 2.317 . S
O71 Ho41 2.650 1_565 S
O71 C59 1.245 1_565 S
H72 C45 0.930 . S
H73 C46 0.931 . S
H74 C48 0.934 . S
H75 C49 0.930 . S
H76 C54 0.930 . S
H77 C55 0.931 . S
H78 C57 0.934 . S
H79 C58 0.930 . S
Ho80 C83 2.811 . S
Ho80 O100 2.322 . S
Ho80 O102 2.378 . S
Ho80 O103 2.524 . S
Ho80 O104 2.381 . S
Ho80 O105 2.669 . S
Ho80 O107 2.346 . S
Ho80 O111 2.305 . S
Ho81 C92 2.811 . S
Ho81 O101 2.346 . S
Ho81 O105 2.305 . S
Ho81 O106 2.322 . S
Ho81 O108 2.378 . S
Ho81 O109 2.524 . S
Ho81 O110 2.381 . S
Ho81 O111 2.669 . S
C82 O100 1.259 . S
C82 O101 1.268 . S
C83 Ho80 2.811 . S
C83 C84 1.488 . S
C83 O102 1.215 . S
C83 O103 1.289 . S
C84 C83 1.488 . S
C84 C85 1.348 . S
C84 C89 1.413 . S
C85 C84 1.348 . S
C85 C86 1.442 . S
C85 H112 0.930 . S
C86 C85 1.442 . S
C86 C87 1.381 . S
C86 H113 0.931 . S
C87 C86 1.381 . S
C87 C88 1.321 . S
C88 C87 1.321 . S
C88 C89 1.403 . S
C88 H114 0.934 . S
C89 C84 1.413 . S
C89 C88 1.403 . S
C89 H115 0.930 . S
C90 O104 1.275 . S
C90 O105 1.256 . S
C91 O106 1.259 . S
C91 O107 1.268 . S
C92 Ho81 2.811 . S
C92 C93 1.488 . S
C92 O108 1.215 . S
C92 O109 1.289 . S
C93 C92 1.488 . S
C93 C94 1.348 . S
C93 C98 1.413 . S
C94 C93 1.348 . S
C94 C95 1.442 . S
C94 H116 0.930 . S
C95 C94 1.442 . S
C95 C96 1.381 . S
C95 H117 0.931 . S
C96 C95 1.381 . S
C96 C97 1.321 . S
C97 C96 1.321 . S
C97 C98 1.403 . S
C97 H118 0.934 . S
C98 C93 1.413 . S
C98 C97 1.403 . S
C98 H119 0.930 . S
C99 O110 1.275 . S
C99 O111 1.256 . S
O100 Ho80 2.322 . S
O100 C82 1.259 . S
O101 Ho81 2.346 . S
O101 C82 1.268 . S
O102 Ho80 2.378 . S
O102 C83 1.215 . S
O103 Ho80 2.524 . S
O103 C83 1.289 . S
O104 Ho80 2.381 . S
O104 C90 1.275 . S
O105 Ho80 2.669 . S
O105 Ho81 2.305 . S
O105 C90 1.256 . S
O106 Ho81 2.322 . S
O106 C91 1.259 . S
O107 Ho80 2.346 . S
O107 C91 1.268 . S
O108 Ho81 2.378 . S
O108 C92 1.215 . S
O109 Ho81 2.524 . S
O109 C92 1.289 . S
O110 Ho81 2.381 . S
O110 C99 1.275 . S
O111 Ho80 2.305 . S
O111 Ho81 2.669 . S
O111 C99 1.256 . S
H112 C85 0.930 . S
H113 C86 0.931 . S
H114 C88 0.934 . S
H115 C89 0.930 . S
H116 C94 0.930 . S
H117 C95 0.931 . S
H118 C97 0.934 . S
H119 C98 0.930 . S
H120 C123 0.931 . S
H121 C126 0.928 . S
H122 C128 0.930 . S
C123 H120 0.931 . S
C123 C124 1.413 . S
C123 C125 1.360 1_565 S
C124 C123 1.413 . S
C124 C128 1.429 1_565 S
C125 C123 1.360 1_545 S
C125 C126 1.372 . S
C126 H121 0.928 . S
C126 C125 1.372 . S
C126 C127 1.404 . S
C127 C126 1.404 . S
C127 C128 1.391 . S
C128 H122 0.930 . S
C128 C124 1.429 1_545 S
C128 C127 1.391 . S
H129 C132 0.931 . S
H130 C135 0.928 . S
H131 C137 0.930 . S
C132 H129 0.931 . S
C132 C133 1.413 . S
C132 C134 1.360 . S
C133 C132 1.413 . S
C133 C137 1.429 . S
C134 C132 1.360 . S
C134 C135 1.372 . S
C135 H130 0.928 . S
C135 C134 1.372 . S
C135 C136 1.404 . S
C136 C135 1.404 . S
C136 C137 1.391 . S
C137 H131 0.930 . S
C137 C133 1.429 . S
C137 C136 1.391 . S
H138 C141 0.931 1_655 S
H139 C144 0.928 . S
H140 C146 0.930 . S
C141 H138 0.931 1_455 S
C141 C142 1.413 . S
C141 C143 1.360 . S
C142 C141 1.413 . S
C142 C146 1.429 . S
C143 C141 1.360 . S
C143 C144 1.372 . S
C144 H139 0.928 . S
C144 C143 1.372 . S
C144 C145 1.404 . S
C145 C144 1.404 . S
C145 C146 1.391 . S
C146 H140 0.930 . S
C146 C142 1.429 . S
C146 C145 1.391 . S
H147 C150 0.931 . S
H148 C153 0.928 . S
H149 C155 0.930 . S
C150 H147 0.931 . S
C150 C151 1.413 . S
C150 C152 1.360 1_655 S
C151 C150 1.413 . S
C151 C155 1.429 1_655 S
C152 C150 1.360 1_455 S
C152 C153 1.372 . S
C153 H148 0.928 . S
C153 C152 1.372 . S
C153 C154 1.404 . S
C154 C153 1.404 . S
C154 C155 1.391 . S
C155 H149 0.930 . S
C155 C151 1.429 1_455 S
C155 C154 1.391 . S
H156 C159 0.931 . S
H157 C162 0.928 . S
H158 C164 0.930 . S
C159 H156 0.931 . S
C159 C160 1.413 . S
C159 C161 1.331 1_545 S
C160 C159 1.413 . S
C160 C164 1.429 . S
C161 C159 1.331 1_565 S
C161 C162 1.401 . S
C162 H157 0.928 . S
C162 C161 1.401 . S
C162 C163 1.404 . S
C163 C162 1.404 . S
C163 C164 1.391 1_565 S
C164 H158 0.930 . S
C164 C160 1.429 . S
C164 C163 1.391 1_545 S
H165 C168 0.931 . S
H166 C171 0.928 . S
H167 C173 0.930 . S
C168 H165 0.931 . S
C168 C169 1.413 . S
C168 C170 1.360 . S
C169 C168 1.413 . S
C169 C173 1.429 . S
C170 C168 1.360 . S
C170 C171 1.372 . S
C171 H166 0.928 . S
C171 C170 1.372 . S
C171 C172 1.404 . S
C172 C171 1.404 . S
C172 C173 1.391 . S
C173 H167 0.930 . S
C173 C169 1.429 . S
C173 C172 1.391 . S
C174 C175 1.391 . S
C174 C176 1.394 . S
C174 H190 0.931 . S
C175 C174 1.391 . S
C175 C179 1.376 . S
C176 C174 1.394 . S
C176 C177 1.369 . S
C176 C180 1.531 . S
C177 C176 1.369 . S
C177 C178 1.410 . S
C177 C185 1.503 . S
C178 C177 1.410 . S
C178 C179 1.392 . S
C178 C181 1.511 . S
C179 C175 1.376 . S
C179 C178 1.392 . S
C179 H191 0.929 . S
C180 C176 1.531 . S
C180 H192 0.960 . S
C180 H193 0.962 . S
C180 H194 0.960 . S
C181 C178 1.511 . S
C181 H195 0.961 . S
C181 H196 0.961 . S
C181 H197 0.961 . S
C182 C183 1.370 . S
C182 C184 1.363 . S
C182 H198 0.931 . S
C183 C182 1.370 . S
C183 C187 1.408 . S
C184 C182 1.363 . S
C184 C185 1.370 . S
C184 C188 1.524 . S
C185 C177 1.503 . S
C185 C184 1.370 . S
C185 C186 1.403 . S
C186 C185 1.403 . S
C186 C187 1.404 . S
C186 C189 1.539 . S
C187 C183 1.408 . S
C187 C186 1.404 . S
C187 H199 0.930 . S
C188 C184 1.524 . S
C188 H200 0.956 . S
C188 H201 0.961 . S
C188 H202 0.961 . S
C189 C186 1.539 . S
C189 H203 0.958 . S
C189 H204 0.961 . S
C189 H205 0.960 . S
H190 C174 0.931 . S
H191 C179 0.929 . S
H192 C180 0.960 . S
H193 C180 0.962 . S
H194 C180 0.960 . S
H195 C181 0.961 . S
H196 C181 0.961 . S
H197 C181 0.961 . S
H198 C182 0.931 . S
H199 C187 0.930 . S
H200 C188 0.956 . S
H201 C188 0.961 . S
H202 C188 0.961 . S
H203 C189 0.958 . S
H204 C189 0.961 . S
H205 C189 0.960 . S
C206 C207 1.391 . S
C206 C208 1.394 . S
C206 H222 0.931 . S
C207 C206 1.391 . S
C207 C211 1.376 . S
C208 C206 1.394 . S
C208 C209 1.369 . S
C208 C212 1.531 . S
C209 C208 1.369 . S
C209 C210 1.410 . S
C209 C217 1.503 . S
C210 C209 1.410 . S
C210 C211 1.392 . S
C210 C213 1.511 . S
C211 C207 1.376 . S
C211 C210 1.392 . S
C211 H223 0.929 . S
C212 C208 1.531 . S
C212 H224 0.960 . S
C212 H225 0.962 . S
C212 H226 0.960 . S
C213 C210 1.511 . S
C213 H227 0.961 . S
C213 H228 0.961 . S
C213 H229 0.961 . S
C214 C215 1.370 . S
C214 C216 1.363 . S
C214 H230 0.931 . S
C215 C214 1.370 . S
C215 C219 1.408 . S
C216 C214 1.363 . S
C216 C217 1.370 . S
C216 C220 1.524 . S
C217 C209 1.503 . S
C217 C216 1.370 . S
C217 C218 1.403 . S
C218 C217 1.403 . S
C218 C219 1.404 . S
C218 C221 1.539 . S
C219 C215 1.408 . S
C219 C218 1.404 . S
C219 H231 0.930 . S
C220 C216 1.524 . S
C220 H232 0.956 . S
C220 H233 0.961 . S
C220 H234 0.961 . S
C221 C218 1.539 . S
C221 H235 0.958 . S
C221 H236 0.961 . S
C221 H237 0.960 . S
H222 C206 0.931 . S
H223 C211 0.929 . S
H224 C212 0.960 . S
H225 C212 0.962 . S
H226 C212 0.960 . S
H227 C213 0.961 . S
H228 C213 0.961 . S
H229 C213 0.961 . S
H230 C214 0.931 . S
H231 C219 0.930 . S
H232 C220 0.956 . S
H233 C220 0.961 . S
H234 C220 0.961 . S
H235 C221 0.958 . S
H236 C221 0.961 . S
H237 C221 0.960 . S
C238 C239 1.391 . S
C238 C240 1.394 . S
C238 H254 0.931 . S
C239 C238 1.391 . S
C239 C243 1.376 . S
C240 C238 1.394 . S
C240 C241 1.369 . S
C240 C244 1.531 . S
C241 C240 1.369 . S
C241 C242 1.410 . S
C241 C249 1.503 . S
C242 C241 1.410 . S
C242 C243 1.392 . S
C242 C245 1.511 . S
C243 C239 1.376 . S
C243 C242 1.392 . S
C243 H255 0.929 . S
C244 C240 1.531 . S
C244 H256 0.960 . S
C244 H257 0.962 . S
C244 H258 0.960 . S
C245 C242 1.511 . S
C245 H259 0.961 . S
C245 H260 0.961 . S
C245 H261 0.961 . S
C246 C247 1.370 . S
C246 C248 1.363 . S
C246 H262 0.931 . S
C247 C246 1.370 . S
C247 C251 1.408 . S
C248 C246 1.363 . S
C248 C249 1.370 . S
C248 C252 1.524 . S
C249 C241 1.503 . S
C249 C248 1.370 . S
C249 C250 1.403 . S
C250 C249 1.403 . S
C250 C251 1.404 . S
C250 C253 1.539 . S
C251 C247 1.408 . S
C251 C250 1.404 . S
C251 H263 0.930 1_565 S
C252 C248 1.524 . S
C252 H264 0.956 . S
C252 H265 0.961 . S
C252 H266 0.961 . S
C253 C250 1.539 . S
C253 H267 0.958 . S
C253 H268 0.961 1_565 S
C253 H269 0.960 . S
H254 C238 0.931 . S
H255 C243 0.929 . S
H256 C244 0.960 . S
H257 C244 0.962 . S
H258 C244 0.960 . S
H259 C245 0.961 . S
H260 C245 0.961 . S
H261 C245 0.961 . S
H262 C246 0.931 . S
H263 C251 0.930 1_545 S
H264 C252 0.956 . S
H265 C252 0.961 . S
H266 C252 0.961 . S
H267 C253 0.958 . S
H268 C253 0.961 1_545 S
H269 C253 0.960 . S
C270 C271 1.391 . S
C270 C272 1.394 . S
C270 H286 0.931 . S
C271 C270 1.391 . S
C271 C275 1.376 . S
C272 C270 1.394 . S
C272 C273 1.369 . S
C272 C276 1.531 . S
C273 C272 1.369 . S
C273 C274 1.410 . S
C273 C281 1.503 . S
C274 C273 1.410 . S
C274 C275 1.392 . S
C274 C277 1.511 . S
C275 C271 1.376 . S
C275 C274 1.392 . S
C275 H287 0.929 . S
C276 C272 1.531 . S
C276 H288 0.960 . S
C276 H289 0.962 . S
C276 H290 0.960 . S
C277 C274 1.511 . S
C277 H291 0.961 . S
C277 H292 0.961 . S
C277 H293 0.961 . S
C278 C279 1.370 . S
C278 C280 1.363 . S
C278 H294 0.931 . S
C279 C278 1.370 . S
C279 C283 1.408 . S
C280 C278 1.363 . S
C280 C281 1.370 . S
C280 C284 1.524 . S
C281 C273 1.503 . S
C281 C280 1.370 . S
C281 C282 1.403 . S
C282 C281 1.403 . S
C282 C283 1.404 . S
C282 C285 1.539 . S
C283 C279 1.408 . S
C283 C282 1.404 . S
C283 H295 0.930 . S
C284 C280 1.524 . S
C284 H296 0.956 . S
C284 H297 0.961 . S
C284 H298 0.961 . S
C285 C282 1.539 . S
C285 H299 0.958 . S
C285 H300 0.961 . S
C285 H301 0.960 . S
H286 C270 0.931 . S
H287 C275 0.929 . S
H288 C276 0.960 . S
H289 C276 0.962 . S
H290 C276 0.960 . S
H291 C277 0.961 . S
H292 C277 0.961 . S
H293 C277 0.961 . S
H294 C278 0.931 . S
H295 C283 0.930 . S
H296 C284 0.956 . S
H297 C284 0.961 . S
H298 C284 0.961 . S
H299 C285 0.958 . S
H300 C285 0.961 . S
H301 C285 0.960 . S
C302 C303 1.391 . S
C302 C304 1.394 . S
C302 H318 0.931 . S
C303 C302 1.391 . S
C303 C307 1.376 . S
C304 C302 1.394 . S
C304 C305 1.369 . S
C304 C308 1.531 . S
C305 C304 1.369 . S
C305 C306 1.410 . S
C305 C313 1.503 . S
C306 C305 1.410 . S
C306 C307 1.392 . S
C306 C309 1.511 . S
C307 C303 1.376 . S
C307 C306 1.392 . S
C307 H319 0.929 . S
C308 C304 1.531 . S
C308 H320 0.960 . S
C308 H321 0.962 . S
C308 H322 0.960 . S
C309 C306 1.511 . S
C309 H323 0.961 . S
C309 H324 0.961 . S
C309 H325 0.961 . S
C310 C311 1.370 . S
C310 C312 1.363 . S
C310 H326 0.931 . S
C311 C310 1.370 . S
C311 C315 1.408 . S
C312 C310 1.363 . S
C312 C313 1.370 . S
C312 C316 1.524 . S
C313 C305 1.503 . S
C313 C312 1.370 . S
C313 C314 1.403 . S
C314 C313 1.403 . S
C314 C315 1.404 . S
C314 C317 1.539 . S
C315 C311 1.408 . S
C315 C314 1.404 . S
C315 H327 0.930 . S
C316 C312 1.524 . S
C316 H328 0.956 . S
C316 H329 0.961 . S
C316 H330 0.961 . S
C317 C314 1.539 . S
C317 H331 0.958 . S
C317 H332 0.961 . S
C317 H333 0.960 . S
H318 C302 0.931 . S
H319 C307 0.929 . S
H320 C308 0.960 . S
H321 C308 0.962 . S
H322 C308 0.960 . S
H323 C309 0.961 . S
H324 C309 0.961 . S
H325 C309 0.961 . S
H326 C310 0.931 . S
H327 C315 0.930 . S
H328 C316 0.956 . S
H329 C316 0.961 . S
H330 C316 0.961 . S
H331 C317 0.958 . S
H332 C317 0.961 . S
H333 C317 0.960 . S
C334 C335 1.391 . S
C334 C336 1.394 . S
C334 H350 0.931 . S
C335 C334 1.391 . S
C335 C339 1.376 . S
C336 C334 1.394 . S
C336 C337 1.369 . S
C336 C340 1.531 . S
C337 C336 1.369 . S
C337 C338 1.410 . S
C337 C345 1.503 . S
C338 C337 1.410 . S
C338 C339 1.392 . S
C338 C341 1.511 . S
C339 C335 1.376 . S
C339 C338 1.392 . S
C339 H351 0.929 . S
C340 C336 1.531 . S
C340 H352 0.960 . S
C340 H353 0.962 . S
C340 H354 0.960 . S
C341 C338 1.511 . S
C341 H355 0.961 . S
C341 H356 0.961 . S
C341 H357 0.961 . S
C342 C343 1.370 . S
C342 C344 1.363 . S
C342 H358 0.931 . S
C343 C342 1.370 . S
C343 C347 1.408 . S
C344 C342 1.363 . S
C344 C345 1.370 . S
C344 C348 1.524 . S
C345 C337 1.503 . S
C345 C344 1.370 . S
C345 C346 1.403 . S
C346 C345 1.403 . S
C346 C347 1.404 . S
C346 C349 1.539 . S
C347 C343 1.408 . S
C347 C346 1.404 . S
C347 H359 0.930 . S
C348 C344 1.524 . S
C348 H360 0.956 . S
C348 H361 0.961 . S
C348 H362 0.961 . S
C349 C346 1.539 . S
C349 H363 0.958 . S
C349 H364 0.961 . S
C349 H365 0.960 . S
H350 C334 0.931 . S
H351 C339 0.929 . S
H352 C340 0.960 . S
H353 C340 0.962 . S
H354 C340 0.960 . S
H355 C341 0.961 . S
H356 C341 0.961 . S
H357 C341 0.961 . S
H358 C342 0.931 . S
H359 C347 0.930 . S
H360 C348 0.956 . S
H361 C348 0.961 . S
H362 C348 0.961 . S
H363 C349 0.958 . S
H364 C349 0.961 . S
H365 C349 0.960 . S
C366 C367 1.391 . S
C366 C368 1.394 . S
C366 H382 0.931 . S
C367 C366 1.391 . S
C367 C371 1.376 . S
C368 C366 1.394 . S
C368 C369 1.369 . S
C368 C372 1.531 . S
C369 C368 1.369 . S
C369 C370 1.410 . S
C369 C377 1.503 . S
C370 C369 1.410 . S
C370 C371 1.392 . S
C370 C373 1.511 . S
C371 C367 1.376 . S
C371 C370 1.392 . S
C371 H383 0.929 . S
C372 C368 1.531 . S
C372 H384 0.960 . S
C372 H385 0.962 . S
C372 H386 0.960 . S
C373 C370 1.511 . S
C373 H387 0.961 . S
C373 H388 0.961 . S
C373 H389 0.961 . S
C374 C375 1.370 . S
C374 C376 1.363 . S
C374 H390 0.931 . S
C375 C374 1.370 . S
C375 C379 1.408 . S
C376 C374 1.363 . S
C376 C377 1.370 . S
C376 C380 1.524 . S
C377 C369 1.503 . S
C377 C376 1.370 . S
C377 C378 1.403 . S
C378 C377 1.403 . S
C378 C379 1.404 . S
C378 C381 1.539 . S
C379 C375 1.408 . S
C379 C378 1.404 . S
C379 H391 0.930 . S
C380 C376 1.524 . S
C380 H392 0.956 . S
C380 H393 0.961 . S
C380 H394 0.961 . S
C381 C378 1.539 . S
C381 H395 0.958 . S
C381 H396 0.961 . S
C381 H397 0.960 . S
H382 C366 0.931 . S
H383 C371 0.929 . S
H384 C372 0.960 . S
H385 C372 0.962 . S
H386 C372 0.960 . S
H387 C373 0.961 . S
H388 C373 0.961 . S
H389 C373 0.961 . S
H390 C374 0.931 . S
H391 C379 0.930 . S
H392 C380 0.956 . S
H393 C380 0.961 . S
H394 C380 0.961 . S
H395 C381 0.958 . S
H396 C381 0.961 . S
H397 C381 0.960 . S
C398 C399 1.391 . S
C398 C400 1.394 . S
C398 H414 0.931 . S
C399 C398 1.391 . S
C399 C403 1.376 . S
C400 C398 1.394 . S
C400 C401 1.369 . S
C400 C404 1.531 . S
C401 C400 1.369 . S
C401 C402 1.410 . S
C401 C409 1.503 . S
C402 C401 1.410 . S
C402 C403 1.392 . S
C402 C405 1.511 . S
C403 C399 1.376 . S
C403 C402 1.392 . S
C403 H415 0.929 . S
C404 C400 1.531 . S
C404 H416 0.960 . S
C404 H417 0.962 . S
C404 H418 0.960 . S
C405 C402 1.511 . S
C405 H419 0.961 . S
C405 H420 0.961 . S
C405 H421 0.961 . S
C406 C407 1.370 . S
C406 C408 1.363 . S
C406 H422 0.931 . S
C407 C406 1.370 . S
C407 C411 1.408 . S
C408 C406 1.363 . S
C408 C409 1.370 . S
C408 C412 1.524 . S
C409 C401 1.503 . S
C409 C408 1.370 . S
C409 C410 1.403 . S
C410 C409 1.403 . S
C410 C411 1.404 . S
C410 C413 1.539 . S
C411 C407 1.408 . S
C411 C410 1.404 . S
C411 H423 0.930 . S
C412 C408 1.524 . S
C412 H424 0.956 . S
C412 H425 0.961 . S
C412 H426 0.961 . S
C413 C410 1.539 . S
C413 H427 0.958 . S
C413 H428 0.961 . S
C413 H429 0.960 . S
H414 C398 0.931 . S
H415 C403 0.929 . S
H416 C404 0.960 . S
H417 C404 0.962 . S
H418 C404 0.960 . S
H419 C405 0.961 . S
H420 C405 0.961 . S
H421 C405 0.961 . S
H422 C406 0.931 . S
H423 C411 0.930 . S
H424 C412 0.956 . S
H425 C412 0.961 . S
H426 C412 0.961 . S
H427 C413 0.958 . S
H428 C413 0.961 . S
H429 C413 0.960 . S
C430 C431 1.391 . S
C430 C432 1.394 . S
C430 H446 0.931 . S
C431 C430 1.391 . S
C431 C435 1.376 . S
C432 C430 1.394 . S
C432 C433 1.369 . S
C432 C436 1.531 . S
C433 C432 1.369 . S
C433 C434 1.410 . S
C433 C441 1.503 . S
C434 C433 1.410 . S
C434 C435 1.392 . S
C434 C437 1.511 . S
C435 C431 1.376 . S
C435 C434 1.392 . S
C435 H447 0.929 . S
C436 C432 1.531 . S
C436 H448 0.960 . S
C436 H449 0.962 . S
C436 H450 0.960 . S
C437 C434 1.511 . S
C437 H451 0.961 . S
C437 H452 0.961 . S
C437 H453 0.961 . S
C438 C439 1.370 . S
C438 C440 1.363 . S
C438 H454 0.931 . S
C439 C438 1.370 . S
C439 C443 1.408 . S
C440 C438 1.363 . S
C440 C441 1.370 . S
C440 C444 1.524 . S
C441 C433 1.503 . S
C441 C440 1.370 . S
C441 C442 1.403 . S
C442 C441 1.403 . S
C442 C443 1.404 . S
C442 C445 1.539 . S
C443 C439 1.408 . S
C443 C442 1.404 . S
C443 H455 0.930 . S
C444 C440 1.524 . S
C444 H456 0.956 . S
C444 H457 0.961 . S
C444 H458 0.961 . S
C445 C442 1.539 . S
C445 H459 0.958 . S
C445 H460 0.961 . S
C445 H461 0.960 . S
H446 C430 0.931 . S
H447 C435 0.929 . S
H448 C436 0.960 . S
H449 C436 0.962 . S
H450 C436 0.960 . S
H451 C437 0.961 . S
H452 C437 0.961 . S
H453 C437 0.961 . S
H454 C438 0.931 . S
H455 C443 0.930 . S
H456 C444 0.956 . S
H457 C444 0.961 . S
H458 C444 0.961 . S
H459 C445 0.958 . S
H460 C445 0.961 . S
H461 C445 0.960 . S
C462 C463 1.391 . S
C462 C464 1.394 . S
C462 H478 0.931 . S
C463 C462 1.391 . S
C463 C467 1.376 . S
C464 C462 1.394 . S
C464 C465 1.369 . S
C464 C468 1.531 . S
C465 C464 1.369 . S
C465 C466 1.410 . S
C465 C473 1.503 . S
C466 C465 1.410 . S
C466 C467 1.392 . S
C466 C469 1.511 . S
C467 C463 1.376 . S
C467 C466 1.392 . S
C467 H479 0.929 . S
C468 C464 1.531 . S
C468 H480 0.960 . S
C468 H481 0.962 . S
C468 H482 0.960 . S
C469 C466 1.511 . S
C469 H483 0.961 . S
C469 H484 0.961 . S
C469 H485 0.961 . S
C470 C471 1.370 . S
C470 C472 1.363 . S
C470 H486 0.931 . S
C471 C470 1.370 . S
C471 C475 1.408 . S
C472 C470 1.363 . S
C472 C473 1.370 . S
C472 C476 1.524 . S
C473 C465 1.503 . S
C473 C472 1.370 . S
C473 C474 1.403 . S
C474 C473 1.403 . S
C474 C475 1.404 . S
C474 C477 1.539 . S
C475 C471 1.408 . S
C475 C474 1.404 . S
C475 H487 0.930 . S
C476 C472 1.524 . S
C476 H488 0.956 . S
C476 H489 0.961 . S
C476 H490 0.961 . S
C477 C474 1.539 . S
C477 H491 0.958 . S
C477 H492 0.961 . S
C477 H493 0.960 . S
H478 C462 0.931 . S
H479 C467 0.929 . S
H480 C468 0.960 . S
H481 C468 0.962 . S
H482 C468 0.960 . S
H483 C469 0.961 . S
H484 C469 0.961 . S
H485 C469 0.961 . S
H486 C470 0.931 . S
H487 C475 0.930 . S
H488 C476 0.956 . S
H489 C476 0.961 . S
H490 C476 0.961 . S
H491 C477 0.958 . S
H492 C477 0.961 . S
H493 C477 0.960 . S
C494 C495 1.391 . S
C494 C496 1.394 . S
C494 H510 0.931 . S
C495 C494 1.391 . S
C495 C499 1.376 . S
C496 C494 1.394 . S
C496 C497 1.369 . S
C496 C500 1.531 . S
C497 C496 1.369 . S
C497 C498 1.410 . S
C497 C505 1.503 . S
C498 C497 1.410 . S
C498 C499 1.392 . S
C498 C501 1.511 . S
C499 C495 1.376 . S
C499 C498 1.392 . S
C499 H511 0.929 . S
C500 C496 1.531 . S
C500 H512 0.960 . S
C500 H513 0.962 . S
C500 H514 0.960 . S
C501 C498 1.511 . S
C501 H515 0.961 . S
C501 H516 0.961 . S
C501 H517 0.961 . S
C502 C503 1.370 . S
C502 C504 1.363 . S
C502 H518 0.931 . S
C503 C502 1.370 . S
C503 C507 1.408 . S
C504 C502 1.363 . S
C504 C505 1.370 . S
C504 C508 1.524 . S
C505 C497 1.503 . S
C505 C504 1.370 . S
C505 C506 1.403 . S
C506 C505 1.403 . S
C506 C507 1.404 . S
C506 C509 1.539 . S
C507 C503 1.408 . S
C507 C506 1.404 . S
C507 H519 0.930 . S
C508 C504 1.524 . S
C508 H520 0.956 . S
C508 H521 0.961 . S
C508 H522 0.961 . S
C509 C506 1.539 . S
C509 H523 0.958 . S
C509 H524 0.961 . S
C509 H525 0.960 . S
H510 C494 0.931 . S
H511 C499 0.929 . S
H512 C500 0.960 . S
H513 C500 0.962 . S
H514 C500 0.960 . S
H515 C501 0.961 . S
H516 C501 0.961 . S
H517 C501 0.961 . S
H518 C502 0.931 . S
H519 C507 0.930 . S
H520 C508 0.956 . S
H521 C508 0.961 . S
H522 C508 0.961 . S
H523 C509 0.958 . S
H524 C509 0.961 . S
H525 C509 0.960 . S
C526 C527 1.391 . S
C526 C528 1.394 . S
C526 H542 0.931 . S
C527 C526 1.391 . S
C527 C531 1.376 . S
C528 C526 1.394 . S
C528 C529 1.369 . S
C528 C532 1.531 . S
C529 C528 1.369 . S
C529 C530 1.410 . S
C529 C537 1.503 . S
C530 C529 1.410 . S
C530 C531 1.392 . S
C530 C533 1.511 . S
C531 C527 1.376 . S
C531 C530 1.392 . S
C531 H543 0.929 . S
C532 C528 1.531 . S
C532 H544 0.960 . S
C532 H545 0.962 . S
C532 H546 0.960 . S
C533 C530 1.511 . S
C533 H547 0.961 . S
C533 H548 0.961 . S
C533 H549 0.961 . S
C534 C535 1.370 . S
C534 C536 1.363 . S
C534 H550 0.931 . S
C535 C534 1.370 . S
C535 C539 1.408 . S
C536 C534 1.363 . S
C536 C537 1.370 . S
C536 C540 1.524 . S
C537 C529 1.503 . S
C537 C536 1.370 . S
C537 C538 1.403 . S
C538 C537 1.403 . S
C538 C539 1.404 . S
C538 C541 1.539 . S
C539 C535 1.408 . S
C539 C538 1.404 . S
C539 H551 0.930 . S
C540 C536 1.524 . S
C540 H552 0.956 . S
C540 H553 0.961 . S
C540 H554 0.961 . S
C541 C538 1.539 . S
C541 H555 0.958 . S
C541 H556 0.961 . S
C541 H557 0.960 . S
H542 C526 0.931 . S
H543 C531 0.929 . S
H544 C532 0.960 . S
H545 C532 0.962 . S
H546 C532 0.960 . S
H547 C533 0.961 . S
H548 C533 0.961 . S
H549 C533 0.961 . S
H550 C534 0.931 . S
H551 C539 0.930 . S
H552 C540 0.956 . S
H553 C540 0.961 . S
H554 C540 0.961 . S
H555 C541 0.958 . S
H556 C541 0.961 . S
H557 C541 0.960 . S
C558 C559 1.391 . S
C558 C560 1.394 . S
C558 H574 0.931 . S
C559 C558 1.391 . S
C559 C563 1.376 . S
C560 C558 1.394 . S
C560 C561 1.369 . S
C560 C564 1.531 . S
C561 C560 1.369 . S
C561 C562 1.410 . S
C561 C569 1.503 . S
C562 C561 1.410 . S
C562 C563 1.392 . S
C562 C565 1.511 1_455 S
C563 C559 1.376 . S
C563 C562 1.392 . S
C563 H575 0.929 1_455 S
C564 C560 1.531 . S
C564 H576 0.960 . S
C564 H577 0.962 . S
C564 H578 0.960 . S
C565 C562 1.511 1_655 S
C565 H579 0.961 . S
C565 H580 0.961 . S
C565 H581 0.961 . S
C566 C567 1.370 . S
C566 C568 1.363 . S
C566 H582 0.931 . S
C567 C566 1.370 . S
C567 C571 1.408 . S
C568 C566 1.363 . S
C568 C569 1.370 1_556 S
C568 C572 1.524 1_456 S
C569 C561 1.503 . S
C569 C568 1.370 1_554 S
C569 C570 1.403 1_554 S
C570 C569 1.403 1_556 S
C570 C571 1.404 . S
C570 C573 1.539 1_556 S
C571 C567 1.408 . S
C571 C570 1.404 . S
C571 H583 0.930 . S
C572 C568 1.524 1_654 S
C572 H584 0.956 1_655 S
C572 H585 0.961 . S
C572 H586 0.961 1_554 S
C573 C570 1.539 1_554 S
C573 H587 0.958 . S
C573 H588 0.961 1_554 S
C573 H589 0.960 . S
H574 C558 0.931 . S
H575 C563 0.929 1_655 S
H576 C564 0.960 . S
H577 C564 0.962 . S
H578 C564 0.960 . S
H579 C565 0.961 . S
H580 C565 0.961 . S
H581 C565 0.961 . S
H582 C566 0.931 . S
H583 C571 0.930 . S
H584 C572 0.956 1_455 S
H585 C572 0.961 . S
H586 C572 0.961 1_556 S
H587 C573 0.958 . S
H588 C573 0.961 1_556 S
H589 C573 0.960 . S
C590 C591 1.391 1_565 S
C590 C592 1.394 . S
C590 H606 0.931 . S
C591 C590 1.391 1_545 S
C591 C595 1.376 . S
C592 C590 1.394 . S
C592 C593 1.369 1_565 S
C592 C596 1.531 . S
C593 C592 1.369 1_545 S
C593 C594 1.410 . S
C593 C601 1.503 . S
C594 C593 1.410 . S
C594 C595 1.392 . S
C594 C597 1.511 . S
C595 C591 1.376 . S
C595 C594 1.392 . S
C595 H607 0.929 . S
C596 C592 1.531 . S
C596 H608 0.960 . S
C596 H609 0.962 . S
C596 H610 0.960 . S
C597 C594 1.511 . S
C597 H611 0.961 . S
C597 H612 0.961 . S
C597 H613 0.961 . S
C598 C599 1.370 . S
C598 C600 1.363 . S
C598 H614 0.931 . S
C599 C598 1.370 . S
C599 C603 1.408 1_545 S
C600 C598 1.363 . S
C600 C601 1.370 . S
C600 C604 1.524 . S
C601 C593 1.503 . S
C601 C600 1.370 . S
C601 C602 1.403 1_545 S
C602 C601 1.403 1_565 S
C602 C603 1.404 . S
C602 C605 1.539 . S
C603 C599 1.408 1_565 S
C603 C602 1.404 . S
C603 H615 0.930 . S
C604 C600 1.524 . S
C604 H616 0.956 . S
C604 H617 0.961 . S
C604 H618 0.961 . S
C605 C602 1.539 . S
C605 H619 0.958 . S
C605 H620 0.961 . S
C605 H621 0.960 . S
H606 C590 0.931 . S
H607 C595 0.929 . S
H608 C596 0.960 . S
H609 C596 0.962 . S
H610 C596 0.960 . S
H611 C597 0.961 . S
H612 C597 0.961 . S
H613 C597 0.961 . S
H614 C598 0.931 . S
H615 C603 0.930 . S
H616 C604 0.956 . S
H617 C604 0.961 . S
H618 C604 0.961 . S
H619 C605 0.958 . S
H620 C605 0.961 . S
H621 C605 0.960 . S
C622 C623 1.391 . S
C622 C624 1.394 . S
C622 H638 0.931 . S
C623 C622 1.391 . S
C623 C627 1.376 . S
C624 C622 1.394 . S
C624 C625 1.369 . S
C624 C628 1.531 . S
C625 C624 1.369 . S
C625 C626 1.410 . S
C625 C633 1.503 . S
C626 C625 1.410 . S
C626 C627 1.392 . S
C626 C629 1.511 . S
C627 C623 1.376 . S
C627 C626 1.392 . S
C627 H639 0.929 . S
C628 C624 1.531 . S
C628 H640 0.960 . S
C628 H641 0.962 . S
C628 H642 0.960 . S
C629 C626 1.511 . S
C629 H643 0.961 . S
C629 H644 0.961 . S
C629 H645 0.961 . S
C630 C631 1.370 . S
C630 C632 1.363 . S
C630 H646 0.931 . S
C631 C630 1.370 . S
C631 C635 1.408 . S
C632 C630 1.363 . S
C632 C633 1.370 . S
C632 C636 1.524 . S
C633 C625 1.503 . S
C633 C632 1.370 . S
C633 C634 1.403 . S
C634 C633 1.403 . S
C634 C635 1.404 . S
C634 C637 1.539 . S
C635 C631 1.408 . S
C635 C634 1.404 . S
C635 H647 0.930 . S
C636 C632 1.524 . S
C636 H648 0.956 . S
C636 H649 0.961 . S
C636 H650 0.961 . S
C637 C634 1.539 . S
C637 H651 0.958 . S
C637 H652 0.961 . S
C637 H653 0.960 . S
H638 C622 0.931 . S
H639 C627 0.929 . S
H640 C628 0.960 . S
H641 C628 0.962 . S
H642 C628 0.960 . S
H643 C629 0.961 . S
H644 C629 0.961 . S
H645 C629 0.961 . S
H646 C630 0.931 . S
H647 C635 0.930 . S
H648 C636 0.956 . S
H649 C636 0.961 . S
H650 C636 0.961 . S
H651 C637 0.958 . S
H652 C637 0.961 . S
H653 C637 0.960 . S
C654 C655 1.391 1_565 S
C654 C656 1.394 . S
C654 H670 0.931 . S
C655 C654 1.391 1_545 S
C655 C659 1.376 . S
C656 C654 1.394 . S
C656 C657 1.369 1_565 S
C656 C660 1.531 . S
C657 C656 1.369 1_545 S
C657 C658 1.410 . S
C657 C665 1.503 . S
C658 C657 1.410 . S
C658 C659 1.392 . S
C658 C661 1.511 . S
C659 C655 1.376 . S
C659 C658 1.392 . S
C659 H671 0.929 . S
C660 C656 1.531 . S
C660 H672 0.960 . S
C660 H673 0.962 . S
C660 H674 0.960 . S
C661 C658 1.511 . S
C661 H675 0.961 . S
C661 H676 0.961 . S
C661 H677 0.961 . S
C662 C663 1.365 . S
C662 C664 1.363 . S
C662 H678 0.931 . S
C663 C662 1.365 . S
C663 C667 1.413 1_565 S
C664 C662 1.363 . S
C664 C665 1.370 1_565 S
C664 C668 1.524 . S
C665 C657 1.503 . S
C665 C664 1.370 1_545 S
C665 C666 1.403 . S
C666 C665 1.403 . S
C666 C667 1.404 . S
C666 C669 1.539 . S
C667 C663 1.413 1_545 S
C667 C666 1.404 . S
C667 H679 0.930 . S
C668 C664 1.524 . S
C668 H680 0.956 . S
C668 H681 0.961 1_565 S
C668 H682 0.961 . S
C669 C666 1.539 . S
C669 H683 0.958 1_545 S
C669 H684 0.961 . S
C669 H685 0.960 . S
H670 C654 0.931 . S
H671 C659 0.929 . S
H672 C660 0.960 . S
H673 C660 0.962 . S
H674 C660 0.960 . S
H675 C661 0.961 . S
H676 C661 0.961 . S
H677 C661 0.961 . S
H678 C662 0.931 . S
H679 C667 0.930 . S
H680 C668 0.956 . S
H681 C668 0.961 1_545 S
H682 C668 0.961 . S
H683 C669 0.958 1_565 S
H684 C669 0.961 . S
H685 C669 0.960 . S
C686 C687 1.391 . S
C686 C688 1.394 . S
C686 H702 0.931 . S
C687 C686 1.391 . S
C687 C691 1.376 . S
C688 C686 1.394 . S
C688 C689 1.369 . S
C688 C692 1.531 . S
C689 C688 1.369 . S
C689 C690 1.410 . S
C689 C697 1.503 . S
C690 C689 1.410 . S
C690 C691 1.392 . S
C690 C693 1.511 . S
C691 C687 1.376 . S
C691 C690 1.392 . S
C691 H703 0.929 . S
C692 C688 1.531 . S
C692 H704 0.960 . S
C692 H705 0.962 . S
C692 H706 0.960 . S
C693 C690 1.511 . S
C693 H707 0.961 . S
C693 H708 0.961 . S
C693 H709 0.961 . S
C694 C695 1.370 . S
C694 C696 1.363 1_554 S
C694 H710 0.931 . S
C695 C694 1.370 . S
C695 C699 1.408 . S
C696 C694 1.363 1_556 S
C696 C697 1.370 . S
C696 C700 1.524 . S
C697 C689 1.503 . S
C697 C696 1.370 . S
C697 C698 1.401 1_556 S
C698 C697 1.401 1_554 S
C698 C699 1.406 . S
C698 C701 1.538 1_554 S
C699 C695 1.408 . S
C699 C698 1.406 . S
C699 H711 0.930 . S
C700 C696 1.524 . S
C700 H712 0.956 . S
C700 H713 0.961 . S
C700 H714 0.961 . S
C701 C698 1.538 1_556 S
C701 H715 0.958 . S
C701 H716 0.961 1_556 S
C701 H717 0.960 . S
H702 C686 0.931 . S
H703 C691 0.929 . S
H704 C692 0.960 . S
H705 C692 0.962 . S
H706 C692 0.960 . S
H707 C693 0.961 . S
H708 C693 0.961 . S
H709 C693 0.961 . S
H710 C694 0.931 . S
H711 C699 0.930 . S
H712 C700 0.956 . S
H713 C700 0.961 . S
H714 C700 0.961 . S
H715 C701 0.958 . S
H716 C701 0.961 1_554 S
H717 C701 0.960 . S
C718 C719 1.391 1_655 S
C718 C720 1.394 . S
C718 H734 0.931 . S
C719 C718 1.391 1_455 S
C719 C723 1.376 . S
C720 C718 1.394 . S
C720 C721 1.369 1_655 S
C720 C724 1.531 . S
C721 C720 1.369 1_455 S
C721 C722 1.410 . S
C721 C729 1.503 . S
C722 C721 1.410 . S
C722 C723 1.392 . S
C722 C725 1.511 . S
C723 C719 1.376 . S
C723 C722 1.392 . S
C723 H735 0.929 . S
C724 C720 1.531 . S
C724 H736 0.960 . S
C724 H737 0.962 . S
C724 H738 0.960 . S
C725 C722 1.511 . S
C725 H739 0.961 . S
C725 H740 0.961 . S
C725 H741 0.961 . S
C726 C727 1.370 . S
C726 C728 1.363 . S
C726 H742 0.931 . S
C727 C726 1.370 . S
C727 C731 1.408 1_455 S
C728 C726 1.363 . S
C728 C729 1.370 . S
C728 C732 1.524 . S
C729 C721 1.503 . S
C729 C728 1.370 . S
C729 C730 1.403 1_455 S
C730 C729 1.403 1_655 S
C730 C731 1.404 . S
C730 C733 1.539 . S
C731 C727 1.408 1_655 S
C731 C730 1.404 . S
C731 H743 0.930 . S
C732 C728 1.524 . S
C732 H744 0.956 . S
C732 H745 0.961 . S
C732 H746 0.961 . S
C733 C730 1.539 . S
C733 H747 0.958 . S
C733 H748 0.961 . S
C733 H749 0.960 . S
H734 C718 0.931 . S
H735 C723 0.929 . S
H736 C724 0.960 . S
H737 C724 0.962 . S
H738 C724 0.960 . S
H739 C725 0.961 . S
H740 C725 0.961 . S
H741 C725 0.961 . S
H742 C726 0.931 . S
H743 C731 0.930 . S
H744 C732 0.956 . S
H745 C732 0.961 . S
H746 C732 0.961 . S
H747 C733 0.958 . S
H748 C733 0.961 . S
H749 C733 0.960 . S
C175 C7 0.760 . S
C183 C169 0.695 . S
C207 C51 1.822 . S
C215 C151 1.797 . S
C239 C87 1.346 . S
C247 C163 1.359 . S
C271 C16 0.510 . S
C279 C172 0.538 . S
C311 C154 1.832 . S
C303 C42 1.844 . S
C343 C160 1.391 . S
C335 C96 1.323 . S
C367 C47 1.248 . S
C375 C133 1.311 . S
C399 C91 2.991 . S
C407 C142 2.966 1_655 S
C431 C2 1.889 . S
C439 C124 1.901 . S
C471 C136 1.383 . S
C463 C56 1.298 . S
C503 C145 2.905 . S
C495 C82 2.898 . S
C527 C11 1.814 . S
C535 C127 1.790 . S
C567 C143 1.790 . S
C559 C19 1.750 . S
C591 C50 1.326 . S
C599 C125 1.365 . S
C623 C99 1.478 . S
C631 C134 1.507 . S
C663 C161 1.479 . S
C655 C59 1.461 . S
C695 C170 1.054 . S
C687 C90 1.014 . S
C719 C10 1.292 . S
C727 C152 1.351 . S
