# Generated by pormake.
# Topology pyr, (3,6)-cn, num edge types: 1
# Building blocks:
#     Node 0, Type 0, BuildingBlock: PAMTOO_clean_linker_0, # of connection points: 3
#     Node 1, Type 0, BuildingBlock: PAMTOO_clean_linker_0, # of connection points: 3
#     Node 2, Type 0, BuildingBlock: PAMTOO_clean_linker_0, # of connection points: 3
#     Node 3, Type 0, BuildingBlock: PAMTOO_clean_linker_0, # of connection points: 3
#     Node 4, Type 0, BuildingBlock: PAMTOO_clean_linker_0, # of connection points: 3
#     Node 5, Type 0, BuildingBlock: PAMTOO_clean_linker_0, # of connection points: 3
#     Node 6, Type 0, BuildingBlock: PAMTOO_clean_linker_0, # of connection points: 3
#     Node 7, Type 0, BuildingBlock: PAMTOO_clean_linker_0, # of connection points: 3
#     Node 8, Type 1, BuildingBlock: MIFKUJ_clean_sbu_0, # of connection points: 6
#     Node 9, Type 1, BuildingBlock: MIFKUJ_clean_sbu_0, # of connection points: 6
#     Node 10, Type 1, BuildingBlock: MIFKUJ_clean_sbu_0, # of connection points: 6
#     Node 11, Type 1, BuildingBlock: MIFKUJ_clean_sbu_0, # of connection points: 6
#     Edge 12, Type (0, 1), BuildingBlock: AJUNOK_clean_linker_0, # of connection points: 2
#     Edge 13, Type (0, 1), BuildingBlock: AJUNOK_clean_linker_0, # of connection points: 2
#     Edge 14, Type (0, 1), BuildingBlock: AJUNOK_clean_linker_0, # of connection points: 2
#     Edge 15, Type (0, 1), BuildingBlock: AJUNOK_clean_linker_0, # of connection points: 2
#     Edge 16, Type (0, 1), BuildingBlock: AJUNOK_clean_linker_0, # of connection points: 2
#     Edge 17, Type (0, 1), BuildingBlock: AJUNOK_clean_linker_0, # of connection points: 2
#     Edge 18, Type (0, 1), BuildingBlock: AJUNOK_clean_linker_0, # of connection points: 2
#     Edge 19, Type (0, 1), BuildingBlock: AJUNOK_clean_linker_0, # of connection points: 2
#     Edge 20, Type (0, 1), BuildingBlock: AJUNOK_clean_linker_0, # of connection points: 2
#     Edge 21, Type (0, 1), BuildingBlock: AJUNOK_clean_linker_0, # of connection points: 2
#     Edge 22, Type (0, 1), BuildingBlock: AJUNOK_clean_linker_0, # of connection points: 2
#     Edge 23, Type (0, 1), BuildingBlock: AJUNOK_clean_linker_0, # of connection points: 2
#     Edge 24, Type (0, 1), BuildingBlock: AJUNOK_clean_linker_0, # of connection points: 2
#     Edge 25, Type (0, 1), BuildingBlock: AJUNOK_clean_linker_0, # of connection points: 2
#     Edge 26, Type (0, 1), BuildingBlock: AJUNOK_clean_linker_0, # of connection points: 2
#     Edge 27, Type (0, 1), BuildingBlock: AJUNOK_clean_linker_0, # of connection points: 2
#     Edge 28, Type (0, 1), BuildingBlock: AJUNOK_clean_linker_0, # of connection points: 2
#     Edge 29, Type (0, 1), BuildingBlock: AJUNOK_clean_linker_0, # of connection points: 2
#     Edge 30, Type (0, 1), BuildingBlock: AJUNOK_clean_linker_0, # of connection points: 2
#     Edge 31, Type (0, 1), BuildingBlock: AJUNOK_clean_linker_0, # of connection points: 2
#     Edge 32, Type (0, 1), BuildingBlock: AJUNOK_clean_linker_0, # of connection points: 2
#     Edge 33, Type (0, 1), BuildingBlock: AJUNOK_clean_linker_0, # of connection points: 2
#     Edge 34, Type (0, 1), BuildingBlock: AJUNOK_clean_linker_0, # of connection points: 2
#     Edge 35, Type (0, 1), BuildingBlock: AJUNOK_clean_linker_0, # of connection points: 2
# Relax obj value: 0.095
# Max RMSD: 0.218
# Mean RMSD: 0.139
data_MOF--net-pyr--node1-MIFKUJ_clean_sbu_0--node2-PAMTOO_clean_linker_0--edge1-AJUNOK_clean_linker_0
_symmetry_space_group_name_H-M    P1
_symmetry_Int_Tables_number       1
_symmetry_cell_setting            triclinic
loop_
_symmetry_equiv_pos_as_xyz
'x, y, z'
_cell_length_a     28.637877
_cell_length_b     26.865375
_cell_length_c     27.609278
_cell_angle_alpha  84.336064
_cell_angle_beta   88.847643
_cell_angle_gamma 102.72538
loop_
_atom_site_label
_atom_site_type_symbol
_atom_site_fract_x
_atom_site_fract_y
_atom_site_fract_z
_atom_type_partial_charge
H0 H 0.14124 0.21616 0.28064 0.0
H1 H 0.2432 0.12148 0.3065 0.0
H2 H 0.26405 0.23417 0.18233 0.0
H3 H 0.2746 0.13832 0.15819 0.0
C4 C 0.28722 0.12149 0.19259 0.0
O5 O 0.29454 0.15737 0.22585 0.0
H6 H 0.25868 0.08789 0.20757 0.0
C7 C 0.17491 0.20674 0.27112 0.0
C8 C 0.20146 0.23169 0.2288 0.0
C9 C 0.19024 0.168 0.3003 0.0
C10 C 0.23147 0.15227 0.28531 0.0
C11 C 0.25746 0.17568 0.24243 0.0
C12 C 0.24319 0.21609 0.21508 0.0
H13 H 0.31743 0.9316 0.75153 0.0
H14 H 0.29919 0.83899 0.6312 0.0
H15 H 0.41651 0.83694 0.72497 0.0
H16 H 0.43703 0.84479 0.62073 0.0
C17 C 0.40746 0.81284 0.61205 0.0
O18 O 0.37368 0.79902 0.65011 0.0
H19 H 0.39051 0.82707 0.57917 0.0
C20 C 0.32902 0.90444 0.73012 0.0
C21 C 0.37025 0.88677 0.74253 0.0
C22 C 0.30339 0.88801 0.68949 0.0
C23 C 0.31892 0.8527 0.66213 0.0
C24 C 0.35954 0.83422 0.67522 0.0
C25 C 0.38518 0.85151 0.71509 0.0
H26 H 0.74668 0.27098 0.91216 0.0
H27 H 0.64023 0.27468 0.8043 0.0
H28 H 0.76103 0.40191 0.80549 0.0
H29 H 0.66431 0.42481 0.79443 0.0
C30 C 0.64997 0.39726 0.76789 0.0
O31 O 0.68181 0.36619 0.7619 0.0
H32 H 0.615 0.37321 0.78284 0.0
C33 C 0.73328 0.29017 0.88078 0.0
C34 C 0.7587 0.33893 0.86129 0.0
C35 C 0.69051 0.26638 0.86047 0.0
C36 C 0.67323 0.29234 0.8203 0.0
C37 C 0.69856 0.34127 0.80055 0.0
C38 C 0.74136 0.36433 0.82101 0.0
H39 H 0.82636 0.71388 0.36479 0.0
H40 H 0.83307 0.59914 0.26879 0.0
H41 H 0.95578 0.72271 0.27903 0.0
H42 H 0.93326 0.68818 0.17566 0.0
C43 C 0.91897 0.64673 0.18771 0.0
O44 O 0.92183 0.63859 0.23757 0.0
H45 H 0.88091 0.63643 0.17754 0.0
C46 C 0.84584 0.69948 0.33718 0.0
C47 C 0.89346 0.72412 0.3241 0.0
C48 C 0.82388 0.65469 0.31751 0.0
C49 C 0.84929 0.63478 0.28308 0.0
C50 C 0.89661 0.65979 0.26854 0.0
C51 C 0.91865 0.70471 0.28885 0.0
H52 H 0.80635 0.9129 0.75465 0.0
H53 H 0.78537 0.79274 0.87415 0.0
H54 H 0.90517 0.81349 0.77279 0.0
H55 H 0.85696 0.71052 0.79599 0.0
C56 C 0.84717 0.70967 0.83534 0.0
O57 O 0.86033 0.7583 0.84983 0.0
H58 H 0.80765 0.69585 0.84018 0.0
C59 C 0.81713 0.88063 0.77439 0.0
C60 C 0.85867 0.86612 0.7586 0.0
C61 C 0.79061 0.85482 0.81655 0.0
C62 C 0.80559 0.81354 0.842 0.0
C63 C 0.84659 0.7986 0.8259 0.0
C64 C 0.87339 0.82532 0.78481 0.0
H65 H 0.77061 0.1024 0.27284 0.0
H66 H 0.68252 0.21349 0.26483 0.0
H67 H 0.77646 0.20677 0.383 0.0
H68 H 0.67193 0.20823 0.40546 0.0
C69 C 0.66847 0.23742 0.37498 0.0
O70 O 0.70999 0.25044 0.34598 0.0
H71 H 0.63786 0.21993 0.35339 0.0
C72 C 0.7587 0.13352 0.28784 0.0
C73 C 0.7784 0.15235 0.33054 0.0
C74 C 0.72454 0.15596 0.26374 0.0
C75 C 0.70951 0.19654 0.28277 0.0
C76 C 0.72758 0.21411 0.32606 0.0
C77 C 0.76243 0.1926 0.34957 0.0
H78 H 0.33779 0.72312 0.11124 0.0
H79 H 0.31908 0.60807 0.2346 0.0
H80 H 0.44573 0.72882 0.21872 0.0
H81 H 0.45951 0.62555 0.24091 0.0
C82 C 0.42955 0.61019 0.26847 0.0
O83 O 0.40141 0.64543 0.27158 0.0
H84 H 0.4079 0.57443 0.25598 0.0
C85 C 0.35088 0.70739 0.14462 0.0
C86 C 0.39478 0.73246 0.16224 0.0
C87 C 0.32313 0.6628 0.17085 0.0
C88 C 0.33988 0.64277 0.21435 0.0
C89 C 0.38414 0.66649 0.23122 0.0
C90 C 0.41127 0.71127 0.20544 0.0
H91 H 0.11003 0.27958 0.79858 0.0
H92 H 0.21477 0.42339 0.78753 0.0
H93 H 0.2242 0.31388 0.68768 0.0
H94 H 0.30955 0.35509 0.73472 0.0
C95 C 0.30829 0.39645 0.73077 0.0
O96 O 0.26434 0.40225 0.71473 0.0
H97 H 0.31387 0.41072 0.76716 0.0
C98 C 0.14116 0.30561 0.78039 0.0
C99 C 0.16528 0.2905 0.74131 0.0
C100 C 0.15907 0.35375 0.79726 0.0
C101 C 0.20028 0.38659 0.77444 0.0
C102 C 0.22338 0.37197 0.73506 0.0
C103 C 0.20549 0.32468 0.71811 0.0
Zn104 Zn 0.08021 0.03263 0.58234 0.0
Zn105 Zn 0.97382 0.99069 0.47351 0.0
C106 C 0.12602 0.10778 0.6415 0.0
O107 O 0.16321 0.0952 0.62147 0.0
C108 C 0.94915 0.88974 0.4439 0.0
O109 O 0.92402 0.88211 0.48534 0.0
O110 O 0.12808 0.98815 0.5997 0.0
O111 O 0.01192 0.99121 0.58228 0.0
O112 O 0.9485 0.96093 0.54172 0.0
C113 C 0.13787 0.97424 0.64303 0.0
O114 O 0.11366 0.98568 0.67961 0.0
O115 O 0.08432 0.08581 0.63012 0.0
C116 C 0.93183 0.07263 0.42325 0.0
O117 O 0.9753 0.10185 0.42067 0.0
O118 O 0.92473 0.02719 0.4442 0.0
O119 O 0.03972 0.03701 0.47446 0.0
O120 O 0.10213 0.07029 0.51579 0.0
O121 O 0.97555 0.93384 0.43104 0.0
C122 C 0.96904 0.96524 0.58199 0.0
C123 C 0.08115 0.06598 0.47576 0.0
Zn124 Zn 0.57058 0.96345 0.96165 0.0
Zn125 Zn 0.52745 0.03922 0.05733 0.0
C126 C 0.48782 0.92825 0.90742 0.0
O127 O 0.48303 0.88946 0.94127 0.0
C128 C 0.61383 0.09656 0.09798 0.0
O129 O 0.61229 0.13122 0.06137 0.0
O130 O 0.62186 0.92996 0.93561 0.0
O131 O 0.60513 0.03532 0.97329 0.0
O132 O 0.54789 0.075 0.98929 0.0
C133 C 0.63058 0.93165 0.88998 0.0
O134 O 0.60593 0.95544 0.85967 0.0
O135 O 0.52313 0.96633 0.90813 0.0
C136 C 0.4524 0.0498 0.12404 0.0
O137 O 0.46135 0.00696 0.14463 0.0
O138 O 0.47584 0.07141 0.08508 0.0
O139 O 0.50299 0.96225 0.0673 0.0
O140 O 0.53504 0.91619 0.01874 0.0
O141 O 0.58234 0.05471 0.10215 0.0
C142 C 0.58609 0.07369 0.96555 0.0
C143 C 0.50796 0.91929 0.05488 0.0
Zn144 Zn 0.57556 0.48811 0.48166 0.0
Zn145 Zn 0.54024 0.56869 0.54502 0.0
C146 C 0.63862 0.55212 0.40791 0.0
O147 O 0.60421 0.53213 0.38014 0.0
C148 C 0.47218 0.5138 0.61258 0.0
O149 O 0.50064 0.54625 0.63745 0.0
O150 O 0.5852 0.42724 0.44921 0.0
O151 O 0.58205 0.46999 0.55354 0.0
O152 O 0.59509 0.54648 0.58045 0.0
C153 C 0.62385 0.41297 0.45851 0.0
O154 O 0.65256 0.43627 0.48987 0.0
O155 O 0.63266 0.54248 0.45399 0.0
C156 C 0.48357 0.63936 0.55952 0.0
O157 O 0.45732 0.60753 0.53229 0.0
O158 O 0.52477 0.63219 0.5706 0.0
O159 O 0.54336 0.58522 0.47162 0.0
O160 O 0.51405 0.50537 0.45888 0.0
O161 O 0.48194 0.51308 0.56757 0.0
C162 C 0.59735 0.49936 0.58595 0.0
C163 C 0.51635 0.55286 0.44817 0.0
Zn164 Zn 0.01001 0.51095 0.97084 0.0
Zn165 Zn 0.08452 0.46054 0.06475 0.0
C166 C 0.93932 0.44254 0.93189 0.0
O167 O 0.97053 0.46311 0.89604 0.0
C168 C 0.14415 0.53913 0.11274 0.0
O169 O 0.10944 0.52198 0.14609 0.0
O170 O 0.99056 0.56741 0.92785 0.0
O171 O 0.03045 0.54366 0.03183 0.0
O172 O 0.02376 0.48003 0.08958 0.0
C173 C 0.95233 0.57675 0.94542 0.0
O174 O 0.93499 0.55355 0.98822 0.0
O175 O 0.9479 0.45572 0.97457 0.0
C176 C 0.13425 0.38557 0.10214 0.0
O177 O 0.15992 0.40418 0.06192 0.0
O178 O 0.09774 0.40302 0.1121 0.0
O179 O 0.08946 0.43826 0.99608 0.0
O180 O 0.05817 0.48139 0.93683 0.0
O181 O 0.1411 0.51972 0.07236 0.0
C182 C 0.01459 0.52276 0.07381 0.0
C183 C 0.0821 0.44847 0.95112 0.0
C184 C 0.1495 0.08881 0.35405 0.0
C185 C 0.16194 0.14273 0.34532 0.0
C186 C 0.12199 0.06418 0.3958 0.0
C187 C 0.10661 0.09262 0.43049 0.0
H188 H 0.16067 0.06545 0.32819 0.0
H189 H 0.11345 0.02263 0.40145 0.0
S190 S 0.12927 0.23416 0.42535 0.0
N191 N 0.15641 0.22362 0.37525 0.0
N192 N 0.10515 0.17695 0.45383 0.0
C193 C 0.11871 0.14631 0.42247 0.0
C194 C 0.14621 0.17147 0.37978 0.0
C195 C 0.44469 0.93262 0.77865 0.0
C196 C 0.39738 0.90345 0.78511 0.0
C197 C 0.47311 0.94341 0.81878 0.0
C198 C 0.45535 0.9242 0.86643 0.0
H199 H 0.46014 0.94597 0.74227 0.0
H200 H 0.5099 0.96455 0.81226 0.0
S201 S 0.33282 0.84823 0.90233 0.0
N202 N 0.33313 0.85806 0.8423 0.0
N203 N 0.38671 0.87704 0.91781 0.0
C204 C 0.40754 0.89642 0.87325 0.0
C205 C 0.37846 0.88634 0.83252 0.0
C206 C 0.64219 0.405 0.6757 0.0
C207 C 0.64144 0.42646 0.72014 0.0
C208 C 0.62945 0.42976 0.63233 0.0
C209 C 0.61501 0.47678 0.6316 0.0
H210 H 0.65178 0.36832 0.67449 0.0
H211 H 0.63017 0.41135 0.59922 0.0
S212 S 0.60399 0.54713 0.73887 0.0
N213 N 0.62317 0.49625 0.76108 0.0
N214 N 0.59963 0.5429 0.67983 0.0
C215 C 0.61423 0.49862 0.67579 0.0
C216 C 0.62702 0.47329 0.71992 0.0
C217 C 0.97977 0.63661 0.12414 0.0
C218 C 0.94643 0.61395 0.16237 0.0
C219 C 1.00222 0.60672 0.09668 0.0
C220 C 0.99247 0.55284 0.10636 0.0
H221 H 0.98786 0.67778 0.11461 0.0
H222 H 0.02713 0.62618 0.06718 0.0
S223 S 0.90789 0.47474 0.20276 0.0
N224 N 0.90454 0.53448 0.20866 0.0
N225 N 0.94745 0.47814 0.15747 0.0
C226 C 0.95998 0.52969 0.14523 0.0
C227 C 0.93669 0.56024 0.17299 0.0
C228 C 0.33071 0.0518 0.1789 0.0
C229 C 0.33258 0.1044 0.18047 0.0
C230 C 0.37009 0.0347 0.16156 0.0
C231 C 0.41255 0.06955 0.14403 0.0
H232 H 0.29809 0.02358 0.19013 0.0
H233 H 0.36668 0.99385 0.16041 0.0
S234 S 0.43748 0.21094 0.14383 0.0
N235 N 0.3816 0.19109 0.1657 0.0
N236 N 0.45557 0.15881 0.13231 0.0
C237 C 0.4155 0.12216 0.14637 0.0
C238 C 0.37552 0.13961 0.16474 0.0
C239 C 0.22294 0.90416 0.71058 0.0
C240 C 0.26051 0.90791 0.6759 0.0
C241 C 0.18296 0.9246 0.69917 0.0
C242 C 0.17901 0.94971 0.65266 0.0
H243 H 0.22457 0.8854 0.7469 0.0
H244 H 0.1551 0.92101 0.72725 0.0
S245 S 0.26936 0.97193 0.5498 0.0
N246 N 0.29225 0.93976 0.5938 0.0
N247 N 0.21728 0.97825 0.57209 0.0
C248 C 0.21641 0.95347 0.61757 0.0
C249 C 0.25709 0.93258 0.62926 0.0
C250 C 0.80574 0.39445 0.91938 0.0
C251 C 0.80452 0.36225 0.882 0.0
C252 C 0.84952 0.41792 0.9382 0.0
C253 C 0.89321 0.41008 0.91978 0.0
H254 H 0.77278 0.40227 0.93339 0.0
H255 H 0.84932 0.44419 0.96551 0.0
S256 S 0.90828 0.32586 0.8246 0.0
N257 N 0.84984 0.32111 0.82955 0.0
N258 N 0.93205 0.3655 0.86414 0.0
C259 C 0.89199 0.37654 0.88354 0.0
C260 C 0.84762 0.35253 0.86481 0.0
C261 C 0.73463 0.62674 0.31461 0.0
C262 C 0.77702 0.62576 0.33894 0.0
C263 C 0.68975 0.60336 0.33742 0.0
C264 C 0.68602 0.57893 0.38542 0.0
H265 H 0.73618 0.64635 0.27819 0.0
H266 H 0.65777 0.60485 0.31755 0.0
S267 S 0.78754 0.56411 0.46297 0.0
N268 N 0.81319 0.59724 0.41214 0.0
N269 N 0.72929 0.55356 0.45529 0.0
C270 C 0.72852 0.57751 0.40968 0.0
C271 C 0.77393 0.60085 0.38632 0.0
C272 C 0.18586 0.27185 0.14641 0.0
C273 C 0.18405 0.27175 0.19746 0.0
C274 C 0.16923 0.30857 0.11602 0.0
C275 C 0.14911 0.34593 0.13543 0.0
H276 H 0.19983 0.24303 0.12967 0.0
H277 H 0.17174 0.30739 0.07695 0.0
S278 S 0.1388 0.36505 0.26597 0.0
N279 N 0.16334 0.31492 0.26568 0.0
N280 N 0.12983 0.38217 0.20841 0.0
C281 C 0.14685 0.34641 0.18621 0.0
C282 C 0.16484 0.30976 0.21723 0.0
C283 C 0.61498 0.20825 0.89779 0.0
C284 C 0.66339 0.21529 0.88278 0.0
C285 C 0.59012 0.16209 0.9237 0.0
C286 C 0.61254 0.12092 0.93528 0.0
H287 H 0.59662 0.23929 0.89092 0.0
H288 H 0.55316 0.15904 0.93536 0.0
S289 S 0.73797 0.11871 0.89974 0.0
N290 N 0.73206 0.17641 0.87814 0.0
N291 N 0.68568 0.08966 0.92653 0.0
C292 C 0.66054 0.12691 0.91855 0.0
C293 C 0.68586 0.17405 0.89248 0.0
C294 C 0.91427 0.757 0.4035 0.0
C295 C 0.91686 0.76611 0.35238 0.0
C296 C 0.927 0.79713 0.43256 0.0
C297 C 0.94336 0.84805 0.41174 0.0
H298 H 0.90018 0.71861 0.42123 0.0
H299 H 0.9225 0.78827 0.47174 0.0
S300 S 0.96043 0.89185 0.27947 0.0
N301 N 0.93964 0.82913 0.28185 0.0
N302 N 0.96454 0.90514 0.33663 0.0
C303 C 0.94904 0.85747 0.36058 0.0
C304 C 0.93561 0.81631 0.33083 0.0
C305 C 0.40176 0.73157 0.57215 0.0
C306 C 0.42705 0.76708 0.60161 0.0
C307 C 0.42017 0.69019 0.55954 0.0
C308 C 0.4646 0.68246 0.57603 0.0
H309 H 0.36784 0.7364 0.558 0.0
H310 H 0.3995 0.66453 0.53598 0.0
S311 S 0.54163 0.76124 0.65968 0.0
N312 N 0.49625 0.78941 0.65108 0.0
N313 N 0.5313 0.7118 0.62718 0.0
C314 C 0.48915 0.71645 0.60755 0.0
C315 C 0.47018 0.75858 0.62052 0.0
C316 C 0.86661 0.89101 0.66876 0.0
C317 C 0.88683 0.89321 0.71455 0.0
C318 C 0.89362 0.91418 0.6263 0.0
C319 C 0.94178 0.94101 0.62806 0.0
H320 H 0.82991 0.87044 0.66568 0.0
H321 H 0.87643 0.91087 0.59181 0.0
S322 S 0.00982 0.95985 0.74049 0.0
N323 N 0.95669 0.92498 0.76008 0.0
N324 N 0.00749 0.96964 0.68065 0.0
C325 C 0.96195 0.94411 0.67411 0.0
C326 C 0.93448 0.91993 0.71723 0.0
C327 C 0.66721 0.09138 0.22273 0.0
C328 C 0.70287 0.13683 0.21927 0.0
C329 C 0.64004 0.07738 0.18254 0.0
C330 C 0.64756 0.10852 0.13757 0.0
H331 H 0.65876 0.06784 0.25732 0.0
H332 H 0.61157 0.04305 0.1875 0.0
S333 S 0.74143 0.22827 0.10916 0.0
N334 N 0.74748 0.2106 0.16728 0.0
N335 N 0.69705 0.1844 0.09126 0.0
C336 C 0.68521 0.15262 0.13321 0.0
C337 C 0.71266 0.1668 0.17423 0.0
C338 C 0.49573 0.62439 0.32815 0.0
C339 C 0.44955 0.59827 0.31725 0.0
C340 C 0.51666 0.61064 0.37154 0.0
C341 C 0.49215 0.57014 0.40516 0.0
H342 H 0.51628 0.65466 0.30235 0.0
H343 H 0.55289 0.63052 0.37791 0.0
S344 S 0.36766 0.49573 0.39746 0.0
N345 N 0.37779 0.53474 0.34636 0.0
N346 N 0.41757 0.50808 0.42742 0.0
C347 C 0.44509 0.54569 0.39593 0.0
C348 C 0.42356 0.56015 0.35216 0.0
C349 C 0.09343 0.38702 0.83429 0.0
C350 C 0.13643 0.37054 0.83942 0.0
C351 C 0.07597 0.41177 0.87086 0.0
C352 C 0.1007 0.42047 0.91401 0.0
H353 H 0.07423 0.38261 0.801 0.0
H354 H 0.0431 0.42464 0.86497 0.0
S355 S 0.21433 0.38249 0.94504 0.0
N356 N 0.20273 0.36295 0.8908 0.0
N357 N 0.16996 0.40913 0.95968 0.0
C358 C 0.14298 0.40249 0.91999 0.0
C359 C 0.16087 0.37769 0.88261 0.0
C360 C 0.74466 0.88146 0.88395 0.0
C361 C 0.74825 0.87195 0.83494 0.0
C362 C 0.70606 0.89978 0.90171 0.0
C363 C 0.6696 0.9094 0.87111 0.0
H364 H 0.77249 0.87578 0.90853 0.0
H365 H 0.70543 0.90753 0.93946 0.0
S366 S 0.65966 0.88499 0.74115 0.0
N367 N 0.71026 0.86943 0.75713 0.0
N368 N 0.63791 0.9042 0.79011 0.0
C369 C 0.6721 0.89853 0.82233 0.0
C370 C 0.71136 0.87978 0.80435 0.0
C371 C 0.86052 0.16368 0.36278 0.0
C372 C 0.81641 0.13099 0.35488 0.0
C373 C 0.8975 0.14448 0.38494 0.0
C374 C 0.89155 0.0919 0.4007 0.0
H375 H 0.86673 0.20439 0.35106 0.0
H376 H 0.93098 0.1712 0.38978 0.0
S377 S 0.78133 0.99077 0.3903 0.0
N378 N 0.76793 0.04409 0.36554 0.0
N379 N 0.83694 0.00761 0.40768 0.0
C380 C 0.84704 0.05891 0.39368 0.0
C381 C 0.80963 0.07853 0.37059 0.0
C382 C 0.27502 0.61025 0.11142 0.0
C383 C 0.27662 0.63649 0.15315 0.0
C384 C 0.23167 0.58039 0.09735 0.0
C385 C 0.18843 0.57584 0.12454 0.0
H386 H 0.30776 0.61136 0.09057 0.0
H387 H 0.23244 0.55929 0.06599 0.0
S388 S 0.1734 0.64285 0.23336 0.0
N389 N 0.23141 0.65981 0.2191 0.0
N390 N 0.14983 0.60455 0.19269 0.0
C391 C 0.18952 0.60414 0.16503 0.0
C392 C 0.23364 0.6342 0.17936 0.0
C393 C 0.37754 0.40184 0.67063 0.0
C394 C 0.34737 0.42669 0.69554 0.0
C395 C 0.4168 0.43016 0.64112 0.0
C396 C 0.42696 0.48398 0.63609 0.0
H397 H 0.37161 0.36038 0.67513 0.0
H398 H 0.44051 0.41003 0.62407 0.0
S399 S 0.35599 0.56686 0.68874 0.0
N400 N 0.32798 0.50782 0.70956 0.0
N401 N 0.40204 0.56098 0.65453 0.0
C402 C 0.39588 0.50907 0.65883 0.0
C403 C 0.3559 0.4804 0.68845 0.0
C404 C 0.92366 0.68383 0.85904 0.0
C405 C 0.87337 0.67457 0.86405 0.0
C406 C 0.94922 0.65174 0.88499 0.0
C407 C 0.9253 0.60971 0.91725 0.0
H408 H 0.94328 0.7162 0.83481 0.0
H409 H 0.98792 0.66033 0.88033 0.0
S410 S 0.79376 0.56692 0.94094 0.0
N411 N 0.80053 0.61905 0.90206 0.0
N412 N 0.84839 0.55889 0.9509 0.0
C413 C 0.87499 0.5997 0.92214 0.0
C414 C 0.84903 0.63211 0.89554 0.0
C415 C 0.43452 0.78288 0.08527 0.0
C416 C 0.42377 0.78043 0.13551 0.0
C417 C 0.46283 0.82742 0.05965 0.0
C418 C 0.48069 0.87151 0.08312 0.0
H419 H 0.42143 0.74989 0.06571 0.0
H420 H 0.47008 0.82744 0.02106 0.0
S421 S 0.46405 0.88436 0.21456 0.0
N422 N 0.4338 0.82575 0.20794 0.0
N423 N 0.48734 0.90899 0.15995 0.0
C424 C 0.47059 0.86931 0.13343 0.0
C425 C 0.44207 0.82394 0.15956 0.0
C426 C 0.10667 0.22146 0.70524 0.0
C427 C 0.15146 0.23854 0.72507 0.0
C428 C 0.09759 0.17739 0.68019 0.0
C429 C 0.1332 0.14941 0.67396 0.0
H430 H 0.07958 0.24383 0.70669 0.0
H431 H 0.06341 0.1668 0.66349 0.0
S432 S 0.25354 0.17427 0.72626 0.0
N433 N 0.22934 0.22085 0.74236 0.0
N434 N 0.2128 0.1388 0.69503 0.0
C435 C 0.17685 0.16434 0.69669 0.0
C436 C 0.18581 0.20868 0.72236 0.0
C437 C 0.67181 0.29507 0.44198 0.0
C438 C 0.65853 0.28438 0.39474 0.0
C439 C 0.66093 0.33726 0.46203 0.0
C440 C 0.63616 0.36998 0.43561 0.0
H441 H 0.6901 0.27017 0.46384 0.0
H442 H 0.67104 0.3436 0.4989 0.0
S443 S 0.60005 0.36292 0.3078 0.0
N444 N 0.62426 0.31291 0.32006 0.0
N445 N 0.60301 0.39196 0.35806 0.0
C446 C 0.62449 0.36099 0.38757 0.0
C447 C 0.63609 0.31834 0.36696 0.0
loop_
_geom_bond_atom_site_label_1
_geom_bond_atom_site_label_2
_geom_bond_distance
_geom_bond_site_symmetry_2
_ccdc_geom_bond_type
H0 C7 0.929 . S
H1 C10 0.930 . S
H2 C12 0.929 . S
H3 C4 0.969 . S
C4 H3 0.969 . S
C4 O5 1.550 . S
C4 H6 0.973 . S
O5 C4 1.550 . S
O5 C11 1.412 . S
H6 C4 0.973 . S
C7 H0 0.929 . S
C7 C8 1.400 . S
C7 C9 1.364 . S
C8 C7 1.400 . S
C8 C12 1.377 . S
C9 C7 1.364 . S
C9 C10 1.374 . S
C10 H1 0.930 . S
C10 C9 1.374 . S
C10 C11 1.383 . S
C11 O5 1.412 . S
C11 C10 1.383 . S
C11 C12 1.394 . S
C12 H2 0.929 . S
C12 C8 1.377 . S
C12 C11 1.394 . S
H13 C20 0.929 . S
H14 C23 0.930 . S
H15 C25 0.929 . S
H16 C17 0.969 . S
C17 H16 0.969 . S
C17 O18 1.550 . S
C17 H19 0.973 . S
O18 C17 1.550 . S
O18 C24 1.412 . S
H19 C17 0.973 . S
C20 H13 0.929 . S
C20 C21 1.400 . S
C20 C22 1.364 . S
C21 C20 1.400 . S
C21 C25 1.377 . S
C22 C20 1.364 . S
C22 C23 1.374 . S
C23 H14 0.930 . S
C23 C22 1.374 . S
C23 C24 1.383 . S
C24 O18 1.412 . S
C24 C23 1.383 . S
C24 C25 1.394 . S
C25 H15 0.929 . S
C25 C21 1.377 . S
C25 C24 1.394 . S
H26 C33 0.929 . S
H27 C36 0.930 . S
H28 C38 0.929 . S
H29 C30 0.969 . S
C30 H29 0.969 . S
C30 O31 1.550 . S
C30 H32 0.973 . S
O31 C30 1.550 . S
O31 C37 1.412 . S
H32 C30 0.973 . S
C33 H26 0.929 . S
C33 C34 1.400 . S
C33 C35 1.364 . S
C34 C33 1.400 . S
C34 C38 1.377 . S
C35 C33 1.364 . S
C35 C36 1.374 . S
C36 H27 0.930 . S
C36 C35 1.374 . S
C36 C37 1.383 . S
C37 O31 1.412 . S
C37 C36 1.383 . S
C37 C38 1.394 . S
C38 H28 0.929 . S
C38 C34 1.377 . S
C38 C37 1.394 . S
H39 C46 0.929 . S
H40 C49 0.930 . S
H41 C51 0.929 . S
H42 C43 0.969 . S
C43 H42 0.969 . S
C43 O44 1.550 . S
C43 H45 0.973 . S
O44 C43 1.550 . S
O44 C50 1.412 . S
H45 C43 0.973 . S
C46 H39 0.929 . S
C46 C47 1.400 . S
C46 C48 1.364 . S
C47 C46 1.400 . S
C47 C51 1.377 . S
C48 C46 1.364 . S
C48 C49 1.374 . S
C49 H40 0.930 . S
C49 C48 1.374 . S
C49 C50 1.383 . S
C50 O44 1.412 . S
C50 C49 1.383 . S
C50 C51 1.394 . S
C51 H41 0.929 . S
C51 C47 1.377 . S
C51 C50 1.394 . S
H52 C59 0.929 . S
H53 C62 0.930 . S
H54 C64 0.929 . S
H55 C56 0.969 . S
C56 H55 0.969 . S
C56 O57 1.550 . S
C56 H58 0.973 . S
O57 C56 1.550 . S
O57 C63 1.412 . S
H58 C56 0.973 . S
C59 H52 0.929 . S
C59 C60 1.400 . S
C59 C61 1.364 . S
C60 C59 1.400 . S
C60 C64 1.377 . S
C61 C59 1.364 . S
C61 C62 1.374 . S
C62 H53 0.930 . S
C62 C61 1.374 . S
C62 C63 1.383 . S
C63 O57 1.412 . S
C63 C62 1.383 . S
C63 C64 1.394 . S
C64 H54 0.929 . S
C64 C60 1.377 . S
C64 C63 1.394 . S
H65 C72 0.929 . S
H66 C75 0.930 . S
H67 C77 0.929 . S
H68 C69 0.969 . S
C69 H68 0.969 . S
C69 O70 1.550 . S
C69 H71 0.973 . S
O70 C69 1.550 . S
O70 C76 1.412 . S
H71 C69 0.973 . S
C72 H65 0.929 . S
C72 C73 1.400 . S
C72 C74 1.364 . S
C73 C72 1.400 . S
C73 C77 1.377 . S
C74 C72 1.364 . S
C74 C75 1.374 . S
C75 H66 0.930 . S
C75 C74 1.374 . S
C75 C76 1.383 . S
C76 O70 1.412 . S
C76 C75 1.383 . S
C76 C77 1.394 . S
C77 H67 0.929 . S
C77 C73 1.377 . S
C77 C76 1.394 . S
H78 C85 0.929 . S
H79 C88 0.930 . S
H80 C90 0.929 . S
H81 C82 0.969 . S
C82 H81 0.969 . S
C82 O83 1.550 . S
C82 H84 0.973 . S
O83 C82 1.550 . S
O83 C89 1.412 . S
H84 C82 0.973 . S
C85 H78 0.929 . S
C85 C86 1.400 . S
C85 C87 1.364 . S
C86 C85 1.400 . S
C86 C90 1.377 . S
C87 C85 1.364 . S
C87 C88 1.374 . S
C88 H79 0.930 . S
C88 C87 1.374 . S
C88 C89 1.383 . S
C89 O83 1.412 . S
C89 C88 1.383 . S
C89 C90 1.394 . S
C90 H80 0.929 . S
C90 C86 1.377 . S
C90 C89 1.394 . S
H91 C98 0.929 . S
H92 C101 0.930 . S
H93 C103 0.929 . S
H94 C95 0.969 . S
C95 H94 0.969 . S
C95 O96 1.550 . S
C95 H97 0.973 . S
O96 C95 1.550 . S
O96 C102 1.412 . S
H97 C95 0.973 . S
C98 H91 0.929 . S
C98 C99 1.400 . S
C98 C100 1.364 . S
C99 C98 1.400 . S
C99 C103 1.377 . S
C100 C98 1.364 . S
C100 C101 1.374 . S
C101 H92 0.930 . S
C101 C100 1.374 . S
C101 C102 1.383 . S
C102 O96 1.412 . S
C102 C101 1.383 . S
C102 C103 1.394 . S
C103 H93 0.929 . S
C103 C99 1.377 . S
C103 C102 1.394 . S
Zn104 O110 1.969 1_545 S
Zn104 O111 1.965 1_545 S
Zn104 O115 2.024 . S
Zn104 O120 1.969 . S
Zn105 O112 1.969 . S
Zn105 O118 1.969 1_565 S
Zn105 O119 1.965 1_665 S
Zn105 O121 2.024 . S
C106 O107 1.229 . S
C106 O115 1.058 . S
O107 C106 1.229 . S
C108 O109 1.229 . S
C108 O121 1.058 . S
O109 C108 1.229 . S
O110 Zn104 1.969 1_565 S
O110 C113 1.267 . S
O111 Zn104 1.965 1_565 S
O111 C122 1.260 1_455 S
O112 Zn105 1.969 . S
O112 C122 1.258 . S
C113 O110 1.267 . S
C113 O114 1.228 . S
O114 C113 1.228 . S
O115 Zn104 2.024 . S
O115 C106 1.058 . S
C116 O117 1.228 . S
C116 O118 1.267 . S
O117 C116 1.228 . S
O118 Zn105 1.969 1_545 S
O118 C116 1.267 . S
O119 Zn105 1.965 1_445 S
O119 C123 1.260 . S
O120 Zn104 1.969 . S
O120 C123 1.258 . S
O121 Zn105 2.024 . S
O121 C108 1.058 . S
C122 O111 1.260 1_655 S
C122 O112 1.258 . S
C123 O119 1.260 . S
C123 O120 1.258 . S
Zn124 O130 1.969 . S
Zn124 O131 1.965 1_565 S
Zn124 O135 2.024 . S
Zn124 O140 1.969 1_556 S
Zn125 O132 1.969 . S
Zn125 O138 1.969 . S
Zn125 O139 1.965 1_545 S
Zn125 O141 2.024 . S
C126 O127 1.229 . S
C126 O135 1.058 . S
O127 C126 1.229 . S
C128 O129 1.229 . S
C128 O141 1.058 . S
O129 C128 1.229 . S
O130 Zn124 1.969 . S
O130 C133 1.267 . S
O131 Zn124 1.965 1_545 S
O131 C142 1.260 . S
O132 Zn125 1.969 . S
O132 C142 1.258 1_554 S
C133 O130 1.267 . S
C133 O134 1.228 . S
O134 C133 1.228 . S
O135 Zn124 2.024 . S
O135 C126 1.058 . S
C136 O137 1.228 . S
C136 O138 1.267 . S
O137 C136 1.228 . S
O138 Zn125 1.969 . S
O138 C136 1.267 . S
O139 Zn125 1.965 1_565 S
O139 C143 1.260 . S
O140 Zn124 1.969 1_554 S
O140 C143 1.258 . S
O141 Zn125 2.024 . S
O141 C128 1.058 . S
C142 O131 1.260 . S
C142 O132 1.258 1_556 S
C143 O139 1.260 . S
C143 O140 1.258 . S
Zn144 O150 1.969 . S
Zn144 O151 1.965 . S
Zn144 O155 2.024 . S
Zn144 O160 1.969 . S
Zn145 O152 1.969 . S
Zn145 O158 1.969 . S
Zn145 O159 1.965 . S
Zn145 O161 2.024 . S
C146 O147 1.229 . S
C146 O155 1.058 . S
O147 C146 1.229 . S
C148 O149 1.229 . S
C148 O161 1.058 . S
O149 C148 1.229 . S
O150 Zn144 1.969 . S
O150 C153 1.267 . S
O151 Zn144 1.965 . S
O151 C162 1.260 . S
O152 Zn145 1.969 . S
O152 C162 1.258 . S
C153 O150 1.267 . S
C153 O154 1.228 . S
O154 C153 1.228 . S
O155 Zn144 2.024 . S
O155 C146 1.058 . S
C156 O157 1.228 . S
C156 O158 1.267 . S
O157 C156 1.228 . S
O158 Zn145 1.969 . S
O158 C156 1.267 . S
O159 Zn145 1.965 . S
O159 C163 1.260 . S
O160 Zn144 1.969 . S
O160 C163 1.258 . S
O161 Zn145 2.024 . S
O161 C148 1.058 . S
C162 O151 1.260 . S
C162 O152 1.258 . S
C163 O159 1.260 . S
C163 O160 1.258 . S
Zn164 O170 1.969 . S
Zn164 O171 1.965 1_656 S
Zn164 O175 2.024 . S
Zn164 O180 1.969 1_655 S
Zn165 O172 1.969 . S
Zn165 O178 1.969 . S
Zn165 O179 1.965 . S
Zn165 O181 2.024 . S
C166 O167 1.229 . S
C166 O175 1.058 . S
O167 C166 1.229 . S
C168 O169 1.229 . S
C168 O181 1.058 . S
O169 C168 1.229 . S
O170 Zn164 1.969 . S
O170 C173 1.267 . S
O171 Zn164 1.965 1_454 S
O171 C182 1.260 . S
O172 Zn165 1.969 . S
O172 C182 1.258 . S
C173 O170 1.267 . S
C173 O174 1.228 . S
O174 C173 1.228 . S
O175 Zn164 2.024 . S
O175 C166 1.058 . S
C176 O177 1.228 . S
C176 O178 1.267 . S
O177 C176 1.228 . S
O178 Zn165 1.969 . S
O178 C176 1.267 . S
O179 Zn165 1.965 . S
O179 C183 1.260 1_554 S
O180 Zn164 1.969 1_455 S
O180 C183 1.258 . S
O181 Zn165 2.024 . S
O181 C168 1.058 . S
C182 O171 1.260 . S
C182 O172 1.258 . S
C183 O179 1.260 1_556 S
C183 O180 1.258 . S
C184 C185 1.369 . S
C184 C186 1.419 . S
C184 H188 0.930 . S
C185 C184 1.369 . S
C185 C194 1.429 . S
C186 C184 1.419 . S
C186 C187 1.363 . S
C186 H189 0.929 . S
C187 C186 1.363 . S
C187 C193 1.428 . S
H188 C184 0.930 . S
H189 C186 0.929 . S
S190 N191 1.613 . S
S190 N192 1.610 . S
N191 S190 1.613 . S
N191 C194 1.350 . S
N192 S190 1.610 . S
N192 C193 1.351 . S
C193 C187 1.428 . S
C193 N192 1.351 . S
C193 C194 1.434 . S
C194 C185 1.429 . S
C194 N191 1.350 . S
C194 C193 1.434 . S
C195 C196 1.369 . S
C195 C197 1.419 . S
C195 H199 0.930 . S
C196 C195 1.369 . S
C196 C205 1.429 . S
C197 C195 1.419 . S
C197 C198 1.363 . S
C197 H200 0.929 . S
C198 C197 1.363 . S
C198 C204 1.428 . S
H199 C195 0.930 . S
H200 C197 0.929 . S
S201 N202 1.613 . S
S201 N203 1.610 . S
N202 S201 1.613 . S
N202 C205 1.350 . S
N203 S201 1.610 . S
N203 C204 1.351 . S
C204 C198 1.428 . S
C204 N203 1.351 . S
C204 C205 1.434 . S
C205 C196 1.429 . S
C205 N202 1.350 . S
C205 C204 1.434 . S
C206 C207 1.369 . S
C206 C208 1.419 . S
C206 H210 0.930 . S
C207 C206 1.369 . S
C207 C216 1.429 . S
C208 C206 1.419 . S
C208 C209 1.363 . S
C208 H211 0.929 . S
C209 C208 1.363 . S
C209 C215 1.428 . S
H210 C206 0.930 . S
H211 C208 0.929 . S
S212 N213 1.613 . S
S212 N214 1.610 . S
N213 S212 1.613 . S
N213 C216 1.350 . S
N214 S212 1.610 . S
N214 C215 1.351 . S
C215 C209 1.428 . S
C215 N214 1.351 . S
C215 C216 1.434 . S
C216 C207 1.429 . S
C216 N213 1.350 . S
C216 C215 1.434 . S
C217 C218 1.369 . S
C217 C219 1.419 . S
C217 H221 0.930 . S
C218 C217 1.369 . S
C218 C227 1.429 . S
C219 C217 1.419 . S
C219 C220 1.363 . S
C219 H222 0.929 1_655 S
C220 C219 1.363 . S
C220 C226 1.428 . S
H221 C217 0.930 . S
H222 C219 0.929 1_455 S
S223 N224 1.613 . S
S223 N225 1.610 . S
N224 S223 1.613 . S
N224 C227 1.350 . S
N225 S223 1.610 . S
N225 C226 1.351 . S
C226 C220 1.428 . S
C226 N225 1.351 . S
C226 C227 1.434 . S
C227 C218 1.429 . S
C227 N224 1.350 . S
C227 C226 1.434 . S
C228 C229 1.369 . S
C228 C230 1.419 . S
C228 H232 0.930 . S
C229 C228 1.369 . S
C229 C238 1.429 . S
C230 C228 1.419 . S
C230 C231 1.363 . S
C230 H233 0.929 . S
C231 C230 1.363 . S
C231 C237 1.428 . S
H232 C228 0.930 . S
H233 C230 0.929 . S
S234 N235 1.613 . S
S234 N236 1.610 . S
N235 S234 1.613 . S
N235 C238 1.350 . S
N236 S234 1.610 . S
N236 C237 1.351 . S
C237 C231 1.428 . S
C237 N236 1.351 . S
C237 C238 1.434 . S
C238 C229 1.429 . S
C238 N235 1.350 . S
C238 C237 1.434 . S
C239 C240 1.369 . S
C239 C241 1.419 . S
C239 H243 0.930 . S
C240 C239 1.369 . S
C240 C249 1.429 . S
C241 C239 1.419 . S
C241 C242 1.363 . S
C241 H244 0.929 . S
C242 C241 1.363 . S
C242 C248 1.428 . S
H243 C239 0.930 . S
H244 C241 0.929 . S
S245 N246 1.613 . S
S245 N247 1.610 . S
N246 S245 1.613 . S
N246 C249 1.350 . S
N247 S245 1.610 . S
N247 C248 1.351 . S
C248 C242 1.428 . S
C248 N247 1.351 . S
C248 C249 1.434 . S
C249 C240 1.429 . S
C249 N246 1.350 . S
C249 C248 1.434 . S
C250 C251 1.369 . S
C250 C252 1.419 . S
C250 H254 0.930 . S
C251 C250 1.369 . S
C251 C260 1.429 . S
C252 C250 1.419 . S
C252 C253 1.363 . S
C252 H255 0.929 . S
C253 C252 1.363 . S
C253 C259 1.428 . S
H254 C250 0.930 . S
H255 C252 0.929 . S
S256 N257 1.613 . S
S256 N258 1.610 . S
N257 S256 1.613 . S
N257 C260 1.350 . S
N258 S256 1.610 . S
N258 C259 1.351 . S
C259 C253 1.428 . S
C259 N258 1.351 . S
C259 C260 1.434 . S
C260 C251 1.429 . S
C260 N257 1.350 . S
C260 C259 1.434 . S
C261 C262 1.369 . S
C261 C263 1.419 . S
C261 H265 0.930 . S
C262 C261 1.369 . S
C262 C271 1.429 . S
C263 C261 1.419 . S
C263 C264 1.363 . S
C263 H266 0.929 . S
C264 C263 1.363 . S
C264 C270 1.428 . S
H265 C261 0.930 . S
H266 C263 0.929 . S
S267 N268 1.613 . S
S267 N269 1.610 . S
N268 S267 1.613 . S
N268 C271 1.350 . S
N269 S267 1.610 . S
N269 C270 1.351 . S
C270 C264 1.428 . S
C270 N269 1.351 . S
C270 C271 1.434 . S
C271 C262 1.429 . S
C271 N268 1.350 . S
C271 C270 1.434 . S
C272 C273 1.369 . S
C272 C274 1.419 . S
C272 H276 0.930 . S
C273 C272 1.369 . S
C273 C282 1.429 . S
C274 C272 1.419 . S
C274 C275 1.363 . S
C274 H277 0.929 . S
C275 C274 1.363 . S
C275 C281 1.428 . S
H276 C272 0.930 . S
H277 C274 0.929 . S
S278 N279 1.613 . S
S278 N280 1.610 . S
N279 S278 1.613 . S
N279 C282 1.350 . S
N280 S278 1.610 . S
N280 C281 1.351 . S
C281 C275 1.428 . S
C281 N280 1.351 . S
C281 C282 1.434 . S
C282 C273 1.429 . S
C282 N279 1.350 . S
C282 C281 1.434 . S
C283 C284 1.369 . S
C283 C285 1.419 . S
C283 H287 0.930 . S
C284 C283 1.369 . S
C284 C293 1.429 . S
C285 C283 1.419 . S
C285 C286 1.363 . S
C285 H288 0.929 . S
C286 C285 1.363 . S
C286 C292 1.428 . S
H287 C283 0.930 . S
H288 C285 0.929 . S
S289 N290 1.613 . S
S289 N291 1.610 . S
N290 S289 1.613 . S
N290 C293 1.350 . S
N291 S289 1.610 . S
N291 C292 1.351 . S
C292 C286 1.428 . S
C292 N291 1.351 . S
C292 C293 1.434 . S
C293 C284 1.429 . S
C293 N290 1.350 . S
C293 C292 1.434 . S
C294 C295 1.369 . S
C294 C296 1.419 . S
C294 H298 0.930 . S
C295 C294 1.369 . S
C295 C304 1.429 . S
C296 C294 1.419 . S
C296 C297 1.363 . S
C296 H299 0.929 . S
C297 C296 1.363 . S
C297 C303 1.428 . S
H298 C294 0.930 . S
H299 C296 0.929 . S
S300 N301 1.613 . S
S300 N302 1.610 . S
N301 S300 1.613 . S
N301 C304 1.350 . S
N302 S300 1.610 . S
N302 C303 1.351 . S
C303 C297 1.428 . S
C303 N302 1.351 . S
C303 C304 1.434 . S
C304 C295 1.429 . S
C304 N301 1.350 . S
C304 C303 1.434 . S
C305 C306 1.369 . S
C305 C307 1.419 . S
C305 H309 0.930 . S
C306 C305 1.369 . S
C306 C315 1.429 . S
C307 C305 1.419 . S
C307 C308 1.363 . S
C307 H310 0.929 . S
C308 C307 1.363 . S
C308 C314 1.428 . S
H309 C305 0.930 . S
H310 C307 0.929 . S
S311 N312 1.613 . S
S311 N313 1.610 . S
N312 S311 1.613 . S
N312 C315 1.350 . S
N313 S311 1.610 . S
N313 C314 1.351 . S
C314 C308 1.428 . S
C314 N313 1.351 . S
C314 C315 1.434 . S
C315 C306 1.429 . S
C315 N312 1.350 . S
C315 C314 1.434 . S
C316 C317 1.369 . S
C316 C318 1.419 . S
C316 H320 0.930 . S
C317 C316 1.369 . S
C317 C326 1.429 . S
C318 C316 1.419 . S
C318 C319 1.363 . S
C318 H321 0.929 . S
C319 C318 1.363 . S
C319 C325 1.428 . S
H320 C316 0.930 . S
H321 C318 0.929 . S
S322 N323 1.613 . S
S322 N324 1.610 . S
N323 S322 1.613 . S
N323 C326 1.350 . S
N324 S322 1.610 . S
N324 C325 1.351 . S
C325 C319 1.428 . S
C325 N324 1.351 . S
C325 C326 1.434 . S
C326 C317 1.429 . S
C326 N323 1.350 . S
C326 C325 1.434 . S
C327 C328 1.369 . S
C327 C329 1.419 . S
C327 H331 0.930 . S
C328 C327 1.369 . S
C328 C337 1.429 . S
C329 C327 1.419 . S
C329 C330 1.363 . S
C329 H332 0.929 . S
C330 C329 1.363 . S
C330 C336 1.428 . S
H331 C327 0.930 . S
H332 C329 0.929 . S
S333 N334 1.613 . S
S333 N335 1.610 . S
N334 S333 1.613 . S
N334 C337 1.350 . S
N335 S333 1.610 . S
N335 C336 1.351 . S
C336 C330 1.428 . S
C336 N335 1.351 . S
C336 C337 1.434 . S
C337 C328 1.429 . S
C337 N334 1.350 . S
C337 C336 1.434 . S
C338 C339 1.369 . S
C338 C340 1.419 . S
C338 H342 0.930 . S
C339 C338 1.369 . S
C339 C348 1.429 . S
C340 C338 1.419 . S
C340 C341 1.363 . S
C340 H343 0.929 . S
C341 C340 1.363 . S
C341 C347 1.428 . S
H342 C338 0.930 . S
H343 C340 0.929 . S
S344 N345 1.613 . S
S344 N346 1.610 . S
N345 S344 1.613 . S
N345 C348 1.350 . S
N346 S344 1.610 . S
N346 C347 1.351 . S
C347 C341 1.428 . S
C347 N346 1.351 . S
C347 C348 1.434 . S
C348 C339 1.429 . S
C348 N345 1.350 . S
C348 C347 1.434 . S
C349 C350 1.369 . S
C349 C351 1.419 . S
C349 H353 0.930 . S
C350 C349 1.369 . S
C350 C359 1.429 . S
C351 C349 1.419 . S
C351 C352 1.363 . S
C351 H354 0.929 . S
C352 C351 1.363 . S
C352 C358 1.428 . S
H353 C349 0.930 . S
H354 C351 0.929 . S
S355 N356 1.613 . S
S355 N357 1.610 . S
N356 S355 1.613 . S
N356 C359 1.350 . S
N357 S355 1.610 . S
N357 C358 1.351 . S
C358 C352 1.428 . S
C358 N357 1.351 . S
C358 C359 1.434 . S
C359 C350 1.429 . S
C359 N356 1.350 . S
C359 C358 1.434 . S
C360 C361 1.369 . S
C360 C362 1.419 . S
C360 H364 0.930 . S
C361 C360 1.369 . S
C361 C370 1.429 . S
C362 C360 1.419 . S
C362 C363 1.363 . S
C362 H365 0.929 . S
C363 C362 1.363 . S
C363 C369 1.428 . S
H364 C360 0.930 . S
H365 C362 0.929 . S
S366 N367 1.613 . S
S366 N368 1.610 . S
N367 S366 1.613 . S
N367 C370 1.350 . S
N368 S366 1.610 . S
N368 C369 1.351 . S
C369 C363 1.428 . S
C369 N368 1.351 . S
C369 C370 1.434 . S
C370 C361 1.429 . S
C370 N367 1.350 . S
C370 C369 1.434 . S
C371 C372 1.369 . S
C371 C373 1.419 . S
C371 H375 0.930 . S
C372 C371 1.369 . S
C372 C381 1.429 . S
C373 C371 1.419 . S
C373 C374 1.363 . S
C373 H376 0.929 . S
C374 C373 1.363 . S
C374 C380 1.428 . S
H375 C371 0.930 . S
H376 C373 0.929 . S
S377 N378 1.613 1_565 S
S377 N379 1.613 . S
N378 S377 1.613 1_545 S
N378 C381 1.350 . S
N379 S377 1.613 . S
N379 C380 1.329 1_565 S
C380 C374 1.428 . S
C380 N379 1.329 1_545 S
C380 C381 1.434 . S
C381 C372 1.429 . S
C381 N378 1.350 . S
C381 C380 1.434 . S
C382 C383 1.369 . S
C382 C384 1.419 . S
C382 H386 0.930 . S
C383 C382 1.369 . S
C383 C392 1.429 . S
C384 C382 1.419 . S
C384 C385 1.363 . S
C384 H387 0.929 . S
C385 C384 1.363 . S
C385 C391 1.428 . S
H386 C382 0.930 . S
H387 C384 0.929 . S
S388 N389 1.613 . S
S388 N390 1.610 . S
N389 S388 1.613 . S
N389 C392 1.350 . S
N390 S388 1.610 . S
N390 C391 1.351 . S
C391 C385 1.428 . S
C391 N390 1.351 . S
C391 C392 1.434 . S
C392 C383 1.429 . S
C392 N389 1.350 . S
C392 C391 1.434 . S
C393 C394 1.369 . S
C393 C395 1.419 . S
C393 H397 0.930 . S
C394 C393 1.369 . S
C394 C403 1.429 . S
C395 C393 1.419 . S
C395 C396 1.363 . S
C395 H398 0.929 . S
C396 C395 1.363 . S
C396 C402 1.428 . S
H397 C393 0.930 . S
H398 C395 0.929 . S
S399 N400 1.613 . S
S399 N401 1.610 . S
N400 S399 1.613 . S
N400 C403 1.350 . S
N401 S399 1.610 . S
N401 C402 1.351 . S
C402 C396 1.428 . S
C402 N401 1.351 . S
C402 C403 1.434 . S
C403 C394 1.429 . S
C403 N400 1.350 . S
C403 C402 1.434 . S
C404 C405 1.369 . S
C404 C406 1.419 . S
C404 H408 0.930 . S
C405 C404 1.369 . S
C405 C414 1.429 . S
C406 C404 1.419 . S
C406 C407 1.363 . S
C406 H409 0.929 . S
C407 C406 1.363 . S
C407 C413 1.428 . S
H408 C404 0.930 . S
H409 C406 0.929 . S
S410 N411 1.613 . S
S410 N412 1.610 . S
N411 S410 1.613 . S
N411 C414 1.350 . S
N412 S410 1.610 . S
N412 C413 1.351 . S
C413 C407 1.428 . S
C413 N412 1.351 . S
C413 C414 1.434 . S
C414 C405 1.429 . S
C414 N411 1.350 . S
C414 C413 1.434 . S
C415 C416 1.369 . S
C415 C417 1.419 . S
C415 H419 0.930 . S
C416 C415 1.369 . S
C416 C425 1.429 . S
C417 C415 1.419 . S
C417 C418 1.363 . S
C417 H420 0.929 . S
C418 C417 1.363 . S
C418 C424 1.428 . S
H419 C415 0.930 . S
H420 C417 0.929 . S
S421 N422 1.613 . S
S421 N423 1.610 . S
N422 S421 1.613 . S
N422 C425 1.350 . S
N423 S421 1.610 . S
N423 C424 1.351 . S
C424 C418 1.428 . S
C424 N423 1.351 . S
C424 C425 1.434 . S
C425 C416 1.429 . S
C425 N422 1.350 . S
C425 C424 1.434 . S
C426 C427 1.369 . S
C426 C428 1.419 . S
C426 H430 0.930 . S
C427 C426 1.369 . S
C427 C436 1.429 . S
C428 C426 1.419 . S
C428 C429 1.363 . S
C428 H431 0.929 . S
C429 C428 1.363 . S
C429 C435 1.428 . S
H430 C426 0.930 . S
H431 C428 0.929 . S
S432 N433 1.613 . S
S432 N434 1.610 . S
N433 S432 1.613 . S
N433 C436 1.350 . S
N434 S432 1.610 . S
N434 C435 1.351 . S
C435 C429 1.428 . S
C435 N434 1.351 . S
C435 C436 1.434 . S
C436 C427 1.429 . S
C436 N433 1.350 . S
C436 C435 1.434 . S
C437 C438 1.369 . S
C437 C439 1.419 . S
C437 H441 0.930 . S
C438 C437 1.369 . S
C438 C447 1.429 . S
C439 C437 1.419 . S
C439 C440 1.363 . S
C439 H442 0.929 . S
C440 C439 1.363 . S
C440 C446 1.428 . S
H441 C437 0.930 . S
H442 C439 0.929 . S
S443 N444 1.613 . S
S443 N445 1.610 . S
N444 S443 1.613 . S
N444 C447 1.350 . S
N445 S443 1.610 . S
N445 C446 1.351 . S
C446 C440 1.428 . S
C446 N445 1.351 . S
C446 C447 1.434 . S
C447 C438 1.429 . S
C447 N444 1.350 . S
C447 C446 1.434 . S
C185 C9 1.782 . S
C187 C123 1.777 . S
C196 C21 1.350 . S
C198 C126 1.368 . S
C209 C162 1.530 . S
C207 C30 1.521 . S
C218 C43 1.554 . S
C220 C182 1.563 1_655 S
C231 C136 1.534 . S
C229 C4 1.535 . S
C242 C113 1.899 . S
C240 C22 1.900 . S
C253 C166 1.336 . S
C251 C34 1.473 . S
C264 C146 1.256 . S
C262 C48 1.326 . S
C273 C8 1.458 . S
C275 C176 1.396 . S
C286 C142 1.735 . S
C284 C35 1.746 . S
C295 C47 1.723 . S
C297 C108 1.700 . S
C306 C17 1.261 . S
C308 C156 1.203 . S
C319 C122 1.459 . S
C317 C60 1.471 . S
C328 C74 1.431 . S
C330 C128 1.378 . S
C339 C82 1.391 . S
C341 C163 1.419 . S
C350 C100 1.938 . S
C352 C183 1.905 . S
C361 C61 1.887 . S
C363 C133 1.859 . S
C374 C116 1.545 . S
C372 C73 1.575 . S
C385 C168 1.696 . S
C383 C87 1.764 . S
C396 C148 1.187 . S
C394 C95 1.321 . S
C405 C56 1.434 . S
C407 C173 1.337 . S
C418 C143 1.721 . S
C416 C86 1.757 . S
C429 C106 1.705 . S
C427 C99 1.708 . S
C438 C69 1.230 . S
C440 C153 1.237 . S
