# Generated by pormake.
# Topology ctn, (3,4)-cn, num edge types: 1
# Building blocks:
#     Node 0, Type 0, BuildingBlock: QEWDON_clean_linker_0, # of connection points: 3
#     Node 1, Type 0, BuildingBlock: QEWDON_clean_linker_0, # of connection points: 3
#     Node 2, Type 0, BuildingBlock: QEWDON_clean_linker_0, # of connection points: 3
#     Node 3, Type 0, BuildingBlock: QEWDON_clean_linker_0, # of connection points: 3
#     Node 4, Type 0, BuildingBlock: QEWDON_clean_linker_0, # of connection points: 3
#     Node 5, Type 0, BuildingBlock: QEWDON_clean_linker_0, # of connection points: 3
#     Node 6, Type 0, BuildingBlock: QEWDON_clean_linker_0, # of connection points: 3
#     Node 7, Type 0, BuildingBlock: QEWDON_clean_linker_0, # of connection points: 3
#     Node 8, Type 0, BuildingBlock: QEWDON_clean_linker_0, # of connection points: 3
#     Node 9, Type 0, BuildingBlock: QEWDON_clean_linker_0, # of connection points: 3
#     Node 10, Type 0, BuildingBlock: QEWDON_clean_linker_0, # of connection points: 3
#     Node 11, Type 0, BuildingBlock: QEWDON_clean_linker_0, # of connection points: 3
#     Node 12, Type 0, BuildingBlock: QEWDON_clean_linker_0, # of connection points: 3
#     Node 13, Type 0, BuildingBlock: QEWDON_clean_linker_0, # of connection points: 3
#     Node 14, Type 0, BuildingBlock: QEWDON_clean_linker_0, # of connection points: 3
#     Node 15, Type 0, BuildingBlock: QEWDON_clean_linker_0, # of connection points: 3
#     Node 16, Type 1, BuildingBlock: UXUYUI_clean_sbu_0, # of connection points: 4
#     Node 17, Type 1, BuildingBlock: UXUYUI_clean_sbu_0, # of connection points: 4
#     Node 18, Type 1, BuildingBlock: UXUYUI_clean_sbu_0, # of connection points: 4
#     Node 19, Type 1, BuildingBlock: UXUYUI_clean_sbu_0, # of connection points: 4
#     Node 20, Type 1, BuildingBlock: UXUYUI_clean_sbu_0, # of connection points: 4
#     Node 21, Type 1, BuildingBlock: UXUYUI_clean_sbu_0, # of connection points: 4
#     Node 22, Type 1, BuildingBlock: UXUYUI_clean_sbu_0, # of connection points: 4
#     Node 23, Type 1, BuildingBlock: UXUYUI_clean_sbu_0, # of connection points: 4
#     Node 24, Type 1, BuildingBlock: UXUYUI_clean_sbu_0, # of connection points: 4
#     Node 25, Type 1, BuildingBlock: UXUYUI_clean_sbu_0, # of connection points: 4
#     Node 26, Type 1, BuildingBlock: UXUYUI_clean_sbu_0, # of connection points: 4
#     Node 27, Type 1, BuildingBlock: UXUYUI_clean_sbu_0, # of connection points: 4
#     Edge 28, Type (0, 1), BuildingBlock: AJUNOK_clean_linker_0, # of connection points: 2
#     Edge 29, Type (0, 1), BuildingBlock: AJUNOK_clean_linker_0, # of connection points: 2
#     Edge 30, Type (0, 1), BuildingBlock: AJUNOK_clean_linker_0, # of connection points: 2
#     Edge 31, Type (0, 1), BuildingBlock: AJUNOK_clean_linker_0, # of connection points: 2
#     Edge 32, Type (0, 1), BuildingBlock: AJUNOK_clean_linker_0, # of connection points: 2
#     Edge 33, Type (0, 1), BuildingBlock: AJUNOK_clean_linker_0, # of connection points: 2
#     Edge 34, Type (0, 1), BuildingBlock: AJUNOK_clean_linker_0, # of connection points: 2
#     Edge 35, Type (0, 1), BuildingBlock: AJUNOK_clean_linker_0, # of connection points: 2
#     Edge 36, Type (0, 1), BuildingBlock: AJUNOK_clean_linker_0, # of connection points: 2
#     Edge 37, Type (0, 1), BuildingBlock: AJUNOK_clean_linker_0, # of connection points: 2
#     Edge 38, Type (0, 1), BuildingBlock: AJUNOK_clean_linker_0, # of connection points: 2
#     Edge 39, Type (0, 1), BuildingBlock: AJUNOK_clean_linker_0, # of connection points: 2
#     Edge 40, Type (0, 1), BuildingBlock: AJUNOK_clean_linker_0, # of connection points: 2
#     Edge 41, Type (0, 1), BuildingBlock: AJUNOK_clean_linker_0, # of connection points: 2
#     Edge 42, Type (0, 1), BuildingBlock: AJUNOK_clean_linker_0, # of connection points: 2
#     Edge 43, Type (0, 1), BuildingBlock: AJUNOK_clean_linker_0, # of connection points: 2
#     Edge 44, Type (0, 1), BuildingBlock: AJUNOK_clean_linker_0, # of connection points: 2
#     Edge 45, Type (0, 1), BuildingBlock: AJUNOK_clean_linker_0, # of connection points: 2
#     Edge 46, Type (0, 1), BuildingBlock: AJUNOK_clean_linker_0, # of connection points: 2
#     Edge 47, Type (0, 1), BuildingBlock: AJUNOK_clean_linker_0, # of connection points: 2
#     Edge 48, Type (0, 1), BuildingBlock: AJUNOK_clean_linker_0, # of connection points: 2
#     Edge 49, Type (0, 1), BuildingBlock: AJUNOK_clean_linker_0, # of connection points: 2
#     Edge 50, Type (0, 1), BuildingBlock: AJUNOK_clean_linker_0, # of connection points: 2
#     Edge 51, Type (0, 1), BuildingBlock: AJUNOK_clean_linker_0, # of connection points: 2
#     Edge 52, Type (0, 1), BuildingBlock: AJUNOK_clean_linker_0, # of connection points: 2
#     Edge 53, Type (0, 1), BuildingBlock: AJUNOK_clean_linker_0, # of connection points: 2
#     Edge 54, Type (0, 1), BuildingBlock: AJUNOK_clean_linker_0, # of connection points: 2
#     Edge 55, Type (0, 1), BuildingBlock: AJUNOK_clean_linker_0, # of connection points: 2
#     Edge 56, Type (0, 1), BuildingBlock: AJUNOK_clean_linker_0, # of connection points: 2
#     Edge 57, Type (0, 1), BuildingBlock: AJUNOK_clean_linker_0, # of connection points: 2
#     Edge 58, Type (0, 1), BuildingBlock: AJUNOK_clean_linker_0, # of connection points: 2
#     Edge 59, Type (0, 1), BuildingBlock: AJUNOK_clean_linker_0, # of connection points: 2
#     Edge 60, Type (0, 1), BuildingBlock: AJUNOK_clean_linker_0, # of connection points: 2
#     Edge 61, Type (0, 1), BuildingBlock: AJUNOK_clean_linker_0, # of connection points: 2
#     Edge 62, Type (0, 1), BuildingBlock: AJUNOK_clean_linker_0, # of connection points: 2
#     Edge 63, Type (0, 1), BuildingBlock: AJUNOK_clean_linker_0, # of connection points: 2
#     Edge 64, Type (0, 1), BuildingBlock: AJUNOK_clean_linker_0, # of connection points: 2
#     Edge 65, Type (0, 1), BuildingBlock: AJUNOK_clean_linker_0, # of connection points: 2
#     Edge 66, Type (0, 1), BuildingBlock: AJUNOK_clean_linker_0, # of connection points: 2
#     Edge 67, Type (0, 1), BuildingBlock: AJUNOK_clean_linker_0, # of connection points: 2
#     Edge 68, Type (0, 1), BuildingBlock: AJUNOK_clean_linker_0, # of connection points: 2
#     Edge 69, Type (0, 1), BuildingBlock: AJUNOK_clean_linker_0, # of connection points: 2
#     Edge 70, Type (0, 1), BuildingBlock: AJUNOK_clean_linker_0, # of connection points: 2
#     Edge 71, Type (0, 1), BuildingBlock: AJUNOK_clean_linker_0, # of connection points: 2
#     Edge 72, Type (0, 1), BuildingBlock: AJUNOK_clean_linker_0, # of connection points: 2
#     Edge 73, Type (0, 1), BuildingBlock: AJUNOK_clean_linker_0, # of connection points: 2
#     Edge 74, Type (0, 1), BuildingBlock: AJUNOK_clean_linker_0, # of connection points: 2
#     Edge 75, Type (0, 1), BuildingBlock: AJUNOK_clean_linker_0, # of connection points: 2
# Relax obj value: 0.118
# Max RMSD: 0.279
# Mean RMSD: 0.160
data_MOF--net-ctn--node1-UXUYUI_clean_sbu_0--node2-QEWDON_clean_linker_0--edge1-AJUNOK_clean_linker_0
_symmetry_space_group_name_H-M    P1
_symmetry_Int_Tables_number       1
_symmetry_cell_setting            triclinic
loop_
_symmetry_equiv_pos_as_xyz
'x, y, z'
_cell_length_a     51.202854
_cell_length_b     53.453357
_cell_length_c     56.941388
_cell_angle_alpha  98.049291
_cell_angle_beta   91.924405
_cell_angle_gamma 95.418356
loop_
_atom_site_label
_atom_site_type_symbol
_atom_site_fract_x
_atom_site_fract_y
_atom_site_fract_z
_atom_type_partial_charge
H0 H 0.11014 0.04265 0.05445 0.0
C1 C 0.09767 0.04027 0.06915 0.0
C2 C 0.098 0.01831 0.08027 0.0
C3 C 0.08319 0.06018 0.07826 0.0
H4 H 0.08402 1.0 0.10971 0.0
C5 C 0.08328 0.01646 0.10064 0.0
C6 C 0.06843 0.03621 0.10983 0.0
C7 C 0.06816 0.05766 0.09812 0.0
C8 C 0.08745 0.08548 0.07027 0.0
H9 H 0.05692 0.07305 0.105 0.0
C10 C 0.08113 0.0895 0.04681 0.0
C11 C 0.08566 0.11409 0.04035 0.0
C12 C 0.09818 0.10611 0.08692 0.0
H13 H 0.10326 0.10346 0.10498 0.0
C14 C 0.10268 0.13028 0.08052 0.0
H15 H 0.07269 0.07379 0.03384 0.0
C16 C 0.09646 0.13428 0.05745 0.0
H17 H 0.09979 0.15334 0.05298 0.0
H18 H 0.11093 0.14601 0.09353 0.0
H19 H 0.35371 0.75459 0.25042 0.0
C20 C 0.34013 0.73754 0.2487 0.0
C21 C 0.34604 0.717 0.26024 0.0
C22 C 0.31609 0.73689 0.23593 0.0
H23 H 0.33175 0.67979 0.26755 0.0
C24 C 0.32791 0.69522 0.25786 0.0
C25 C 0.30403 0.69393 0.24453 0.0
C26 C 0.29829 0.71497 0.23362 0.0
C27 C 0.30741 0.76084 0.22974 0.0
H28 H 0.27947 0.71478 0.22425 0.0
C29 C 0.30714 0.76662 0.2063 0.0
C30 C 0.2993 0.79015 0.20156 0.0
C31 C 0.29953 0.7784 0.24815 0.0
H32 H 0.29962 0.77423 0.26624 0.0
C33 C 0.29141 0.8014 0.24346 0.0
H34 H 0.31358 0.75325 0.1921 0.0
C35 C 0.2913 0.80727 0.2204 0.0
H36 H 0.28483 0.82529 0.21724 0.0
H37 H 0.28524 0.81477 0.25778 0.0
H38 H 0.02981 0.48511 0.05884 0.0
C39 C 0.0138 0.49695 0.05833 0.0
C40 C 1.00776 0.5127 0.07902 0.0
C41 C 1.00003 0.49717 0.0367 0.0
H42 H 0.98158 0.53982 0.09376 0.0
C43 C 0.98652 0.52767 0.07799 0.0
C44 C 0.97189 0.52721 0.05647 0.0
C45 C 0.97917 0.51223 0.03595 0.0
C46 C 1.00865 0.48353 0.0143 0.0
H47 H 0.96876 0.5126 0.01911 0.0
C48 C 1.00957 0.457 0.01094 0.0
C49 C 0.0161 0.44448 0.98881 0.0
C50 C 0.01514 0.49732 0.99567 0.0
H51 H 0.0147 0.51774 0.99794 0.0
C52 C 0.02221 0.48494 0.97397 0.0
H53 H 1.00428 0.44612 0.02507 0.0
C54 C 0.02253 0.45864 0.97047 0.0
H55 H 0.02763 0.44926 0.95335 0.0
H56 H 0.02716 0.49572 0.95972 0.0
H57 H 0.78668 0.82643 0.25702 0.0
C58 C 0.78435 0.81701 0.23881 0.0
C59 C 0.7966 0.8284 0.22071 0.0
C60 C 0.77057 0.79278 0.23392 0.0
H61 H 0.80483 0.82359 0.18357 0.0
C62 C 0.79472 0.8152 0.1974 0.0
C63 C 0.78084 0.79086 0.1921 0.0
C64 C 0.76857 0.77998 0.21058 0.0
C65 C 0.76283 0.77903 0.25378 0.0
H66 H 0.75837 0.76102 0.20708 0.0
C67 C 0.7367 0.77641 0.26085 0.0
C68 C 0.73029 0.76315 0.28002 0.0
C69 C 0.78235 0.76834 0.26581 0.0
H70 H 0.80252 0.77019 0.26058 0.0
C71 C 0.77606 0.75511 0.28459 0.0
H72 H 0.72157 0.78454 0.25148 0.0
C73 C 0.75027 0.75252 0.29167 0.0
H74 H 0.746 0.74246 0.30656 0.0
H75 H 0.79126 0.74692 0.29378 0.0
H76 H 0.11405 0.97826 0.50095 0.0
C77 C 0.09988 0.98278 0.48802 0.0
C78 C 0.1047 1.00502 0.47739 0.0
C79 C 0.07761 0.96553 0.48089 0.0
H80 H 0.09087 0.02634 0.4508 0.0
C81 C 0.08667 1.00991 0.45975 0.0
C82 C 0.06437 0.99283 0.45229 0.0
C83 C 0.05972 0.97109 0.46349 0.0
C84 C 0.07588 0.93927 0.48705 0.0
H85 H 0.04268 0.95768 0.45794 0.0
C86 C 0.07199 0.93352 0.51033 0.0
C87 C 0.07041 0.90792 0.51464 0.0
C88 C 0.07815 0.91939 0.46852 0.0
H89 H 0.0812 0.92332 0.45059 0.0
C90 C 0.07669 0.89432 0.47279 0.0
H91 H 0.07016 0.94865 0.52477 0.0
C92 C 0.07286 0.88861 0.49559 0.0
H93 H 0.07151 0.86888 0.49832 0.0
H94 H 0.07846 0.87922 0.45832 0.0
H95 H 0.28498 0.69171 0.78431 0.0
C96 C 0.28156 0.70208 0.80152 0.0
C97 C 0.29313 0.69523 0.82214 0.0
C98 C 0.26662 0.7229 0.80263 0.0
H99 H 0.29859 0.705 0.86031 0.0
C100 C 0.28943 0.70974 0.8443 0.0
C101 C 0.27452 0.73083 0.84572 0.0
C102 C 0.26293 0.73695 0.82474 0.0
C103 C 0.25834 0.73204 0.78038 0.0
H104 H 0.2519 0.75338 0.8255 0.0
C105 C 0.23172 0.73421 0.77436 0.0
C106 C 0.22473 0.74272 0.75278 0.0
C107 C 0.27775 0.73879 0.76495 0.0
H108 H 0.29829 0.73744 0.76931 0.0
C109 C 0.27099 0.74767 0.74396 0.0
H110 H 0.21664 0.72857 0.78601 0.0
C111 C 0.24477 0.74964 0.7379 0.0
H112 H 0.24014 0.75669 0.72147 0.0
H113 H 0.28616 0.75302 0.73229 0.0
H114 H 0.98574 0.60422 0.48564 0.0
C115 C 0.97384 0.58774 0.4899 0.0
C116 C 0.96639 0.58682 0.51339 0.0
C117 C 0.96482 0.56816 0.47158 0.0
H118 H 0.9436 0.56496 0.53613 0.0
C119 C 0.95013 0.56557 0.5183 0.0
C120 C 0.94117 0.54559 0.50014 0.0
C121 C 0.94856 0.54722 0.47678 0.0
C122 C 0.96796 0.57189 0.44656 0.0
H123 H 0.94045 0.53291 0.46233 0.0
C124 C 0.99035 0.56542 0.43419 0.0
C125 C 0.99241 0.56931 0.41024 0.0
C126 C 0.9478 0.58215 0.43496 0.0
H127 H 0.93047 0.58719 0.44422 0.0
C128 C 0.94978 0.58604 0.41138 0.0
H129 H 1.00603 0.55763 0.44317 0.0
C130 C 0.97186 0.57969 0.3991 0.0
H131 H 0.97274 0.58263 0.38069 0.0
H132 H 0.9341 0.59394 0.40256 0.0
H133 H 0.83613 0.82207 0.79666 0.0
C134 C 0.8343 0.80819 0.80883 0.0
C135 C 0.85041 0.78799 0.80687 0.0
C136 C 0.81669 0.81138 0.82715 0.0
H137 H 0.86075 0.75547 0.82292 0.0
C138 C 0.848 0.77057 0.82348 0.0
C139 C 0.82943 0.77279 0.8412 0.0
C140 C 0.8141 0.79335 0.84288 0.0
C141 C 0.80338 0.83503 0.83208 0.0
H142 H 0.80065 0.79588 0.85714 0.0
C143 C 0.78742 0.84377 0.81477 0.0
C144 C 0.77428 0.86571 0.82091 0.0
C145 C 0.80658 0.84894 0.85505 0.0
H146 H 0.81897 0.84288 0.86855 0.0
C147 C 0.79401 0.8708 0.86088 0.0
H148 H 0.78463 0.83325 0.79702 0.0
C149 C 0.77787 0.87907 0.84401 0.0
H150 H 0.76804 0.89598 0.849 0.0
H151 H 0.79666 0.8813 0.87863 0.0
H152 H 0.33671 0.32379 0.29417 0.0
C153 C 0.33497 0.31022 0.30665 0.0
C154 C 0.35097 0.29003 0.30475 0.0
C155 C 0.31831 0.31408 0.32564 0.0
H156 H 0.36266 0.2583 0.32103 0.0
C157 C 0.34989 0.27343 0.32204 0.0
C158 C 0.33291 0.2768 0.34096 0.0
C159 C 0.31685 0.29682 0.34216 0.0
C160 C 0.30508 0.33779 0.33045 0.0
H161 H 0.30352 0.29946 0.3565 0.0
C162 C 0.28943 0.34658 0.31296 0.0
C163 C 0.2767 0.36878 0.31882 0.0
C164 C 0.30828 0.35189 0.35335 0.0
H165 H 0.32051 0.34587 0.367 0.0
C166 C 0.29599 0.37396 0.35893 0.0
H167 H 0.28666 0.33596 0.29525 0.0
C168 C 0.28022 0.38231 0.34185 0.0
H169 H 0.27062 0.39941 0.34661 0.0
H170 H 0.29863 0.38459 0.37662 0.0
H171 H 0.52739 0.9838 0.55877 0.0
C172 C 0.51105 0.99529 0.55856 0.0
C173 C 0.50497 1.01054 0.57951 0.0
C174 C 0.49708 0.99574 0.53705 0.0
H175 H 0.47903 0.03764 0.59476 0.0
C176 C 0.48377 0.0256 0.57886 0.0
C177 C 0.46907 0.02548 0.55746 0.0
C178 C 0.47594 1.01056 0.53676 0.0
C179 C 0.50627 0.98321 0.51436 0.0
H180 H 0.46522 0.0111 0.52011 0.0
C181 C 0.51037 0.95726 0.51089 0.0
C182 C 0.51936 0.94608 0.48912 0.0
C183 C 0.51136 0.99776 0.49598 0.0
H184 H 0.50858 0.01779 0.49832 0.0
C185 C 0.52047 0.98678 0.47457 0.0
H186 H 0.50647 0.94586 0.52493 0.0
C187 C 0.52448 0.96114 0.47113 0.0
H188 H 0.53124 0.95293 0.4542 0.0
H189 H 0.5244 0.99817 0.46056 0.0
H190 H 0.27841 0.31949 0.75499 0.0
C191 C 0.27877 0.31065 0.73668 0.0
C192 C 0.29315 0.32314 0.72029 0.0
C193 C 0.26625 0.2861 0.7299 0.0
H194 H 0.30672 0.31978 0.68454 0.0
C195 C 0.29465 0.31076 0.69686 0.0
C196 C 0.28221 0.28603 0.6899 0.0
C197 C 0.26716 0.27447 0.70636 0.0
C198 C 0.25676 0.2704 0.74795 0.0
H199 H 0.25706 0.25564 0.70125 0.0
C200 C 0.23523 0.27606 0.76185 0.0
C201 C 0.22636 0.25982 0.77815 0.0
C202 C 0.2696 0.24885 0.7508 0.0
H203 H 0.28626 0.24424 0.74036 0.0
C204 C 0.26117 0.23308 0.76709 0.0
H205 H 0.22536 0.29274 0.75979 0.0
C206 C 0.23969 0.23841 0.78059 0.0
H207 H 0.23318 0.22545 0.79272 0.0
H208 H 0.27118 0.21649 0.7691 0.0
H209 H 0.84996 0.25236 0.75263 0.0
C210 C 0.83652 0.23517 0.74947 0.0
C211 C 0.84248 0.21366 0.75942 0.0
C212 C 0.81254 0.23527 0.73679 0.0
H213 H 0.82821 0.17585 0.76497 0.0
C214 C 0.82408 0.19211 0.75655 0.0
C215 C 0.79999 0.19178 0.7438 0.0
C216 C 0.79442 0.2135 0.73386 0.0
C217 C 0.80468 0.25952 0.73053 0.0
H218 H 0.77558 0.21387 0.7247 0.0
C219 C 0.8047 0.26507 0.70702 0.0
C220 C 0.79798 0.28891 0.70205 0.0
C221 C 0.79764 0.27768 0.74884 0.0
H222 H 0.79754 0.27371 0.767 0.0
C223 C 0.79066 0.30103 0.74396 0.0
H224 H 0.81054 0.25123 0.69291 0.0
C225 C 0.79086 0.30666 0.7208 0.0
H226 H 0.78527 0.32495 0.71749 0.0
H227 H 0.78515 0.31488 0.7582 0.0
H228 H 0.60807 0.54163 0.55667 0.0
C229 C 0.59432 0.53764 0.57004 0.0
C230 C 0.59366 0.51438 0.57922 0.0
C231 C 0.57897 0.55673 0.57947 0.0
H232 H 0.57649 0.49289 0.60541 0.0
C233 C 0.57713 0.51057 0.59808 0.0
C234 C 0.56155 0.52954 0.60765 0.0
C235 C 0.56245 0.55234 0.59798 0.0
C236 C 0.58318 0.58275 0.57302 0.0
H237 H 0.55117 0.56736 0.6057 0.0
C238 C 0.57886 0.58793 0.54958 0.0
C239 C 0.58289 0.61315 0.54454 0.0
C240 C 0.59167 0.60286 0.59107 0.0
H241 H 0.59526 0.59934 0.60913 0.0
C242 C 0.59584 0.62764 0.58609 0.0
H243 H 0.5723 0.57256 0.53552 0.0
C244 C 0.59148 0.63278 0.56306 0.0
H245 H 0.59448 0.65231 0.55978 0.0
H246 H 0.60238 0.64296 0.60017 0.0
H247 H 0.61451 0.48133 0.99737 0.0
C248 C 0.59914 0.48574 0.98552 0.0
C249 C 0.60262 0.50797 0.97474 0.0
C250 C 0.57702 0.46796 0.97921 0.0
H251 H 0.58546 0.52991 0.95025 0.0
C252 C 0.58297 0.51286 0.95859 0.0
C253 C 0.56103 0.49522 0.95182 0.0
C254 C 0.55825 0.4728 0.96218 0.0
C255 C 0.57639 0.442 0.98589 0.0
H256 H 0.54193 0.45859 0.95633 0.0
C257 C 0.57124 0.43654 1.00905 0.0
C258 C 0.57086 0.41125 0.01404 0.0
C259 C 0.58095 0.42213 0.96809 0.0
H260 H 0.5849 0.42588 0.95026 0.0
C261 C 0.58066 0.39734 0.97303 0.0
H262 H 0.56757 0.45168 0.02293 0.0
C263 C 0.5757 0.39192 0.99576 0.0
H264 H 0.57539 0.37242 0.99906 0.0
H265 H 0.58424 0.38222 0.95913 0.0
H266 H 0.78514 0.19273 0.28403 0.0
C267 C 0.7827 0.20397 0.30105 0.0
C268 C 0.79664 0.19914 0.32134 0.0
C269 C 0.76615 0.22355 0.30212 0.0
H270 H 0.80293 0.20975 0.35929 0.0
C271 C 0.7924 0.21336 0.34347 0.0
C272 C 0.77508 0.23263 0.34514 0.0
C273 C 0.76225 0.23763 0.3242 0.0
C274 C 0.75566 0.23087 0.27964 0.0
H275 H 0.75029 0.25337 0.32486 0.0
C276 C 0.72878 0.23381 0.27568 0.0
C277 C 0.71961 0.23934 0.2535 0.0
C278 C 0.7731 0.23446 0.26155 0.0
H279 H 0.79386 0.23268 0.26422 0.0
C280 C 0.76408 0.24044 0.23988 0.0
H281 H 0.71504 0.23097 0.28936 0.0
C282 C 0.73751 0.24272 0.23579 0.0
H283 H 0.73084 0.24708 0.2187 0.0
H284 H 0.77771 0.24312 0.22611 0.0
H285 H 0.48408 0.10644 0.98664 0.0
C286 C 0.47222 0.08956 0.99011 0.0
C287 C 0.46393 0.08779 0.01317 0.0
C288 C 0.4646 0.07013 0.97123 0.0
H289 H 0.44019 0.0651 0.03455 0.0
C290 C 0.44779 0.0661 0.01714 0.0
C291 C 0.43982 0.04653 0.99835 0.0
C292 C 0.4485 0.04864 0.97545 0.0
C293 C 0.46976 0.07435 0.94662 0.0
H294 H 0.44181 0.03406 0.96071 0.0
C295 C 0.48819 0.06132 0.93309 0.0
C296 C 0.4921 0.06573 0.90955 0.0
C297 C 0.45561 0.09176 0.93654 0.0
H298 H 0.44141 0.10194 0.9467 0.0
C299 C 0.45941 0.09599 0.91324 0.0
H300 H 0.49931 0.04794 0.94077 0.0
C301 C 0.47748 0.08302 0.89979 0.0
H302 H 0.48025 0.08666 0.88174 0.0
H303 H 0.44832 0.10936 0.90558 0.0
Li304 Li 0.29247 0.90103 0.02138 0.0
Li305 Li 0.27436 0.87038 0.04526 0.0
Li306 Li 0.26621 0.86238 1.00169 0.0
Li307 Li 0.24502 0.89829 0.02894 0.0
C308 C 0.3226 0.85701 0.01249 0.0
N309 N 0.36945 0.84088 0.99655 0.0
C310 C 0.34124 0.85046 0.02847 0.0
C311 C 0.32776 0.85524 0.98839 0.0
C312 C 0.36482 0.8424 0.02007 0.0
C313 C 0.35155 0.84706 0.98069 0.0
C314 C 0.29289 0.91774 0.07035 0.0
C315 C 0.30399 0.94501 0.10748 0.0
N316 N 0.32845 0.93708 0.10752 0.0
C317 C 0.31812 0.90982 0.07079 0.0
C318 C 0.28572 0.93546 0.08885 0.0
C319 C 0.33583 0.91984 0.08971 0.0
C320 C 0.3156 0.95091 0.02003 0.0
N321 N 0.32147 0.92641 0.01802 0.0
C322 C 0.36648 0.93969 0.01183 0.0
C323 C 0.3465 0.92063 0.01431 0.0
C324 C 0.36069 0.96495 0.01307 0.0
C325 C 0.33487 0.97049 0.01723 0.0
H326 H 0.29583 0.95526 0.02376 0.0
H327 H 0.3512 0.90133 0.01336 0.0
C328 C 0.29024 0.83046 0.06953 0.0
N329 N 0.28018 0.85332 0.07233 0.0
C330 C 0.2946 0.81803 0.08919 0.0
C331 C 0.27803 0.85283 0.11414 0.0
C332 C 0.27377 0.86443 0.09404 0.0
C333 C 0.28865 0.82937 0.11188 0.0
H334 H 0.29487 0.82188 0.05201 0.0
H335 H 0.26524 0.8823 0.09577 0.0
C336 C 0.26875 0.91687 0.98367 0.0
N337 N 0.2831 0.95419 0.95623 0.0
C338 C 0.25734 0.93978 0.98683 0.0
C339 C 0.28715 0.91278 0.96631 0.0
C340 C 0.26493 0.95845 0.97283 0.0
C341 C 0.29425 0.93193 0.9527 0.0
C342 C 0.22877 0.84389 0.04126 0.0
C343 C 0.23217 0.81806 0.03673 0.0
C344 C 0.21522 0.85316 0.06102 0.0
C345 C 0.22212 0.80189 0.05224 0.0
C346 C 0.20547 0.83637 0.07609 0.0
N347 N 0.20911 0.81131 0.07145 0.0
C348 C 0.27331 0.81432 0.97587 0.0
C349 C 0.25326 0.84144 0.95282 0.0
C350 C 0.27442 0.79604 0.95583 0.0
N351 N 0.26312 0.83662 0.97401 0.0
C352 C 0.25374 0.82357 0.93234 0.0
C353 C 0.26466 0.80053 0.93358 0.0
H354 H 0.2815 0.8111 0.99283 0.0
H355 H 0.24555 0.85942 0.95169 0.0
C356 C 0.22163 0.94168 0.04801 0.0
N357 N 0.2156 0.91809 0.03554 0.0
C358 C 0.20182 0.95709 0.05497 0.0
C359 C 0.1697 0.92404 0.03561 0.0
C360 C 0.1902 0.90908 0.02921 0.0
C361 C 0.17541 0.94836 0.04882 0.0
H362 H 0.24195 0.94852 0.05268 0.0
H363 H 0.18582 0.89018 0.01947 0.0
O364 O 0.29939 0.86486 0.02045 0.0
O365 O 0.27511 0.90805 0.05209 0.0
O366 O 0.26184 0.89854 0.99746 0.0
O367 O 0.23932 0.86019 0.02684 0.0
H368 H 0.3376 0.8517 0.04718 0.0
H369 H 0.31359 0.86014 0.97576 0.0
H370 H 0.37944 0.83735 0.03225 0.0
H371 H 0.3558 0.84563 0.96209 0.0
H372 H 0.29869 0.9587 0.12194 0.0
H373 H 0.324 0.8961 0.05672 0.0
H374 H 0.2662 0.94163 0.08893 0.0
H375 H 0.35542 0.91388 0.09025 0.0
H376 H 0.38619 0.93467 1.00859 0.0
H377 H 0.32971 0.98981 0.01854 0.0
H378 H 0.30293 0.80002 0.08675 0.0
H379 H 0.2729 0.86204 0.1313 0.0
H380 H 0.24295 0.94319 1.00008 0.0
H381 H 0.29596 0.89509 0.96347 0.0
H382 H 0.2564 0.97634 0.9752 0.0
H383 H 0.30861 0.9291 0.93933 0.0
H384 H 0.24273 0.81065 0.02157 0.0
H385 H 0.21261 0.87316 0.06482 0.0
H386 H 0.22475 0.78187 0.04907 0.0
H387 H 0.1951 0.84328 0.09155 0.0
H388 H 0.28368 0.77899 0.95765 0.0
H389 H 0.24591 0.82788 0.91563 0.0
H390 H 0.20712 0.97576 0.06497 0.0
H391 H 0.14958 0.91647 0.03072 0.0
Li392 Li 0.12737 0.52183 0.28015 0.0
Li393 Li 0.15682 0.4933 0.25867 0.0
Li394 Li 0.16258 0.54067 0.25685 0.0
Li395 Li 0.12518 0.51382 0.2356 0.0
C396 C 0.17501 0.52574 0.3079 0.0
N397 N 0.19354 0.53263 0.35475 0.0
C398 C 0.17764 0.50475 0.31965 0.0
C399 C 0.18215 0.5502 0.31991 0.0
C400 C 0.18697 0.50864 0.34334 0.0
C401 C 0.19135 0.55329 0.34361 0.0
C402 C 0.10997 0.46614 0.26558 0.0
C403 C 0.09106 0.42258 0.25704 0.0
N404 N 0.0962 0.41962 0.28002 0.0
C405 C 0.11503 0.46266 0.28909 0.0
C406 C 0.0979 0.44594 0.24938 0.0
C407 C 0.10794 0.43901 0.29606 0.0
C408 C 0.08346 0.53961 0.3025 0.0
N409 N 0.10569 0.52877 0.30718 0.0
C410 C 0.09499 0.52982 0.34802 0.0
C411 C 0.11161 0.52371 0.32945 0.0
C412 C 0.07215 0.54137 0.34368 0.0
C413 C 0.06649 0.54625 0.32055 0.0
H414 H 0.07896 0.54326 0.28468 0.0
H415 H 0.12913 0.51493 0.33296 0.0
C416 C 0.20231 0.47231 0.2707 0.0
N417 N 0.17758 0.46526 0.26112 0.0
C418 C 0.21861 0.45407 0.27587 0.0
C419 C 0.18449 0.42133 0.25973 0.0
C420 C 0.16876 0.44029 0.25493 0.0
C421 C 0.20957 0.42815 0.27093 0.0
H422 H 0.20908 0.49226 0.27514 0.0
H423 H 0.14941 0.43496 0.24663 0.0
C424 C 0.12248 0.57163 0.26329 0.0
N425 N 0.11823 0.62283 0.27613 0.0
C426 C 0.11243 0.58583 0.24688 0.0
C427 C 0.13011 0.58341 0.28628 0.0
C428 C 0.11052 0.61171 0.25369 0.0
C429 C 0.12786 0.60932 0.29242 0.0
C430 C 0.16371 0.50211 0.20752 0.0
C431 C 0.17255 0.51777 0.19113 0.0
C432 C 0.15425 0.47683 0.1997 0.0
C433 C 0.17165 0.50784 0.16704 0.0
C434 C 0.15367 0.46763 0.17547 0.0
N435 N 0.1623 0.48319 0.15978 0.0
C436 C 0.2114 0.57073 0.26693 0.0
C437 C 0.18261 0.58575 0.23983 0.0
C438 C 0.23062 0.59058 0.26483 0.0
N439 N 0.1879 0.56878 0.25461 0.0
C440 C 0.20118 0.60601 0.23734 0.0
C441 C 0.22563 0.60849 0.24981 0.0
H442 H 0.21529 0.55672 0.27823 0.0
H443 H 0.16408 0.58337 0.22971 0.0
C444 C 0.08199 0.49448 0.20159 0.0
N445 N 0.10288 0.51225 0.20736 0.0
C446 C 0.06621 0.49462 0.181 0.0
C447 C 0.09327 0.53171 0.17309 0.0
C448 C 0.10855 0.53077 0.19368 0.0
C449 C 0.07192 0.51329 0.16629 0.0
H450 H 0.07745 0.48029 0.21298 0.0
H451 H 0.12496 0.54498 0.19889 0.0
O452 O 0.16621 0.52232 0.28459 0.0
O453 O 0.11722 0.48902 0.25831 0.0
O454 O 0.12487 0.54635 0.25682 0.0
O455 O 0.1637 0.51164 0.23106 0.0
H456 H 0.17229 0.48566 0.31068 0.0
H457 H 0.18078 0.56665 0.311 0.0
H458 H 0.18893 0.49258 0.35268 0.0
H459 H 0.19686 0.57213 0.35313 0.0
H460 H 0.08181 0.40676 0.24467 0.0
H461 H 0.12457 0.47797 0.30176 0.0
H462 H 0.09425 0.44811 0.231 0.0
H463 H 0.11185 0.43604 0.3142 0.0
H464 H 0.10017 0.52592 0.36565 0.0
H465 H 0.04895 0.55495 0.3164 0.0
H466 H 0.23773 0.46027 0.28455 0.0
H467 H 0.17697 0.40157 0.25505 0.0
H468 H 0.10629 0.57699 0.22905 0.0
H469 H 0.13756 0.57263 0.29927 0.0
H470 H 0.10291 0.62296 0.24114 0.0
H471 H 0.13374 0.61868 0.31016 0.0
H472 H 0.1798 0.53743 0.19695 0.0
H473 H 0.14714 0.46457 0.2122 0.0
H474 H 0.17831 0.51975 0.15411 0.0
H475 H 0.14629 0.44813 0.16912 0.0
H476 H 0.24913 0.59201 0.27495 0.0
H477 H 0.19669 0.61933 0.22545 0.0
H478 H 0.04988 0.48012 0.1765 0.0
H479 H 0.09798 0.54691 0.16273 0.0
Li480 Li 0.77518 0.63641 1.00197 0.0
Li481 Li 0.79622 0.67393 0.02915 0.0
Li482 Li 0.80576 0.66683 0.9848 0.0
Li483 Li 0.82413 0.64044 0.0131 0.0
C484 C 0.74625 0.67408 0.9945 0.0
N485 N 0.69373 0.67482 0.9822 0.0
C486 C 0.72919 0.68355 0.01144 0.0
C487 C 0.7367 0.66526 0.97126 0.0
C488 C 0.70267 0.6837 1.00488 0.0
C489 C 0.71005 0.66571 0.9654 0.0
C490 C 0.79286 0.63435 0.05673 0.0
C491 C 0.81399 0.63912 0.09582 0.0
N492 N 0.79176 0.62807 0.10405 0.0
C493 C 0.7703 0.62284 0.06552 0.0
C494 C 0.81494 0.6424 0.07194 0.0
C495 C 0.77011 0.61991 0.08951 0.0
C496 C 0.74382 0.59142 0.98069 0.0
N497 N 0.74382 0.61274 0.99681 0.0
C498 C 0.69987 0.59981 1.00667 0.0
C499 C 0.72254 0.61701 1.00995 0.0
C500 C 0.69911 0.5778 0.98985 0.0
C501 C 0.72167 0.5736 0.97699 0.0
H502 H 0.76116 0.58808 0.97084 0.0
H503 H 0.72317 0.63374 0.02311 0.0
C504 C 0.80673 0.72017 0.06166 0.0
N505 N 0.79104 0.69788 0.05677 0.0
C506 C 0.80431 0.73662 0.08273 0.0
C507 C 0.76938 0.70714 0.09313 0.0
C508 C 0.77218 0.69149 0.07174 0.0
C509 C 0.7857 0.72993 0.09892 0.0
H510 H 0.82146 0.72495 0.04941 0.0
H511 H 0.75951 0.67401 0.06725 0.0
C512 C 0.81242 0.62129 0.95895 0.0
N513 N 0.82712 0.60654 0.91325 0.0
C514 C 0.83805 0.61536 0.9549 0.0
C515 C 0.7942 0.61946 0.93982 0.0
C516 C 0.84511 0.60798 0.93165 0.0
C517 C 0.80204 0.61207 0.91682 0.0
C518 C 0.85627 0.68636 0.01882 0.0
C519 C 0.8734 0.69016 1.00076 0.0
C520 C 0.86568 0.69136 0.0425 0.0
C521 C 0.89979 0.69849 1.00668 0.0
C522 C 0.89221 0.69963 0.04771 0.0
N523 N 0.90858 0.70297 0.02984 0.0
C524 C 0.79535 0.70224 0.95355 0.0
C525 C 0.83104 0.67914 0.94179 0.0
C526 C 0.79798 0.71558 0.93412 0.0
N527 N 0.81161 0.68423 0.95702 0.0
C528 C 0.83435 0.69204 0.92207 0.0
C529 C 0.81752 0.71042 0.91784 0.0
H530 H 0.78034 0.70644 0.96601 0.0
H531 H 0.84414 0.66516 0.94492 0.0
C532 C 0.84461 0.60094 0.03349 0.0
N533 N 0.85212 0.62095 0.02203 0.0
C534 C 0.86314 0.58589 0.0412 0.0
C535 C 0.89701 0.61176 0.02474 0.0
C536 C 0.8778 0.62646 0.01746 0.0
C537 C 0.88976 0.59102 0.03667 0.0
H538 H 0.82411 0.59658 0.03668 0.0
H539 H 0.88345 0.64199 1.00788 0.0
O540 O 0.77219 0.67345 1.00066 0.0
O541 O 0.7933 0.6376 0.03333 0.0
O542 O 0.80519 0.62864 0.98157 0.0
O543 O 0.83036 0.67824 0.01332 0.0
H544 H 0.73632 0.69055 0.02948 0.0
H545 H 0.74972 0.65809 0.95792 0.0
H546 H 0.6892 0.69084 0.01783 0.0
H547 H 0.70235 0.65883 0.9475 0.0
H548 H 0.83093 0.64532 0.10779 0.0
H549 H 0.75309 0.61634 0.05396 0.0
H550 H 0.83267 0.65092 0.06534 0.0
H551 H 0.75274 0.61115 0.09658 0.0
H552 H 0.68302 0.60384 0.01703 0.0
H553 H 0.72236 0.55655 0.96437 0.0
H554 H 0.81735 0.75399 0.08667 0.0
H555 H 0.75467 0.70145 0.1051 0.0
H556 H 0.85236 0.61661 0.96953 0.0
H557 H 0.77423 0.62374 0.94268 0.0
H558 H 0.86491 0.60346 0.92822 0.0
H559 H 0.78818 0.6107 0.90183 0.0
H560 H 0.86644 0.68656 0.98237 0.0
H561 H 0.85263 0.68906 0.05674 0.0
H562 H 0.91329 0.70136 0.99287 0.0
H563 H 0.89977 0.70348 0.06596 0.0
H564 H 0.78502 0.73009 0.93207 0.0
H565 H 0.84978 0.68749 0.91011 0.0
H566 H 0.85664 0.57038 0.05065 0.0
H567 H 0.91727 0.61623 0.02061 0.0
Li568 Li 0.91757 0.04948 0.28547 0.0
Li569 Li 0.94853 0.02228 0.30237 0.0
Li570 Li 0.95067 0.0296 0.25908 0.0
Li571 Li 0.91472 1.00197 0.27159 0.0
C572 C 0.96395 0.07984 0.29578 0.0
N573 N 0.97709 0.13119 0.30988 0.0
C574 C 0.97549 0.08857 0.31839 0.0
C575 C 0.95921 0.09717 0.2803 0.0
C576 C 0.98198 0.11462 0.32519 0.0
C577 C 0.96594 0.12307 0.28777 0.0
C578 C 0.90335 0.01711 0.32634 0.0
C579 C 0.90262 0.99165 0.35817 0.0
N580 N 0.89175 1.01025 0.37222 0.0
C581 C 0.89204 0.0359 0.34106 0.0
C582 C 0.90856 0.99475 0.33492 0.0
C583 C 0.88636 0.03209 0.36421 0.0
C584 C 0.87409 0.07873 0.28106 0.0
N585 N 0.89672 0.07798 0.29411 0.0
C586 C 0.88826 0.11593 0.31954 0.0
C587 C 0.90374 0.09591 0.31334 0.0
C588 C 0.86539 0.11754 0.3058 0.0
C589 C 0.85831 0.09861 0.28639 0.0
H590 H 0.86833 0.0639 0.26636 0.0
H591 H 0.92118 0.09456 0.3241 0.0
C592 C 0.99085 1.00509 0.32717 0.0
N593 N 0.96974 0.01862 0.33042 0.0
C594 C 1.00648 1.00093 0.34662 0.0
C595 C 0.97897 0.02536 0.37257 0.0
C596 C 0.96407 0.02933 0.35257 0.0
C597 C 1.00029 1.0106 0.36982 0.0
H598 H 0.99553 0.9974 0.30939 0.0
H599 H 0.94782 0.04082 0.3548 0.0
C600 C 0.91244 0.03826 0.23024 0.0
N601 N 0.9137 0.0541 0.18601 0.0
C602 C 0.91763 0.02146 0.2102 0.0
C603 C 0.9082 0.06325 0.22772 0.0
C604 C 0.91813 0.02979 0.18802 0.0
C605 C 0.90881 0.07085 0.20523 0.0
C606 C 0.95172 0.97164 0.26792 0.0
C607 C 0.9497 0.96004 0.24425 0.0
C608 C 0.95188 0.95656 0.28609 0.0
C609 C 0.94763 0.93357 0.23917 0.0
C610 C 0.94978 0.93015 0.28029 0.0
N611 N 0.94769 0.91929 0.25715 0.0
C612 C 0.99008 0.01392 0.22736 0.0
C613 C 0.97622 0.05371 0.22172 0.0
C614 C 1.00613 0.01408 0.20793 0.0
N615 N 0.97498 0.03324 0.2336 0.0
C616 C 0.99211 0.0547 0.20222 0.0
C617 C 1.00721 0.03459 0.19494 0.0
H618 H 0.98961 0.99821 0.2374 0.0
H619 H 0.96441 0.06905 0.22695 0.0
C620 C 0.87736 0.96 0.27823 0.0
N621 N 0.89057 0.97163 0.26174 0.0
C622 C 0.86139 0.93719 0.27152 0.0
C623 C 0.87216 0.93898 0.23083 0.0
C624 C 0.88771 0.96181 0.23831 0.0
C625 C 0.85905 0.92616 0.24757 0.0
H626 H 0.87936 0.96821 0.29667 0.0
H627 H 0.89799 0.97132 0.22539 0.0
O628 O 0.9571 0.05446 0.28897 0.0
O629 O 0.90931 0.02067 0.30369 0.0
O630 O 0.91184 0.03041 0.25216 0.0
O631 O 0.95312 0.99755 0.27326 0.0
H632 H 0.9793 0.07539 0.33058 0.0
H633 H 0.95007 0.09074 0.26285 0.0
H634 H 0.99086 0.12167 0.34266 0.0
H635 H 0.96223 0.13672 0.27603 0.0
H636 H 0.9067 0.97449 0.36505 0.0
H637 H 0.88761 0.05321 0.33471 0.0
H638 H 0.91732 0.98002 0.32383 0.0
H639 H 0.87766 0.04651 0.3758 0.0
H640 H 0.89426 0.13017 0.3347 0.0
H641 H 0.8407 0.0992 0.27548 0.0
H642 H 0.02334 0.99035 0.34345 0.0
H643 H 0.97359 0.03344 0.39004 0.0
H644 H 0.92205 1.00242 0.21178 0.0
H645 H 0.90491 0.07682 0.24295 0.0
H646 H 0.92228 0.01699 0.17245 0.0
H647 H 0.90558 0.09012 0.20309 0.0
H648 H 0.94918 0.97131 0.22991 0.0
H649 H 0.95357 0.96511 0.30449 0.0
H650 H 0.9458 0.92437 0.22094 0.0
H651 H 0.94979 0.91829 0.2942 0.0
H652 H 0.01774 0.99836 0.20318 0.0
H653 H 0.99213 0.07082 0.19262 0.0
H654 H 0.85147 0.92797 0.28497 0.0
H655 H 0.87046 0.93137 0.21212 0.0
Li656 Li 0.29888 0.17209 0.52483 0.0
Li657 Li 0.27735 0.13356 0.4975 0.0
Li658 Li 0.32472 0.13809 0.50706 0.0
Li659 Li 0.3065 0.16419 0.47974 0.0
C660 C 0.29868 0.11561 0.54032 0.0
N661 N 0.30759 0.07405 0.56224 0.0
C662 C 0.29608 0.09127 0.52724 0.0
C663 C 0.30571 0.11881 0.56456 0.0
C664 C 0.3007 0.0705 0.53865 0.0
C665 C 0.31014 0.09755 0.57532 0.0
C666 C 0.24658 0.16884 0.49223 0.0
C667 C 0.20864 0.15757 0.4652 0.0
N668 N 0.19274 0.1634 0.48341 0.0
C669 C 0.22983 0.17458 0.5107 0.0
C670 C 0.23587 0.16019 0.46931 0.0
C671 C 0.20269 0.17178 0.50587 0.0
C672 C 0.27959 0.21407 0.55538 0.0
N673 N 0.29683 0.1961 0.55309 0.0
C674 C 0.31353 0.2095 0.59308 0.0
C675 C 0.31382 0.19382 0.57133 0.0
C676 C 0.29475 0.22709 0.59663 0.0
C677 C 0.27798 0.22961 0.57717 0.0
H678 H 0.2668 0.21616 0.54044 0.0
H679 H 0.32764 0.17968 0.56898 0.0
C680 C 0.24261 0.09 0.4759 0.0
N681 N 0.24588 0.10952 0.49419 0.0
C682 C 0.22022 0.07248 0.47382 0.0
C683 C 0.20508 0.09492 0.50974 0.0
C684 C 0.22785 0.11192 0.51121 0.0
C685 C 0.20105 0.07478 0.49089 0.0
H686 H 0.25753 0.08774 0.46305 0.0
H687 H 0.23124 0.12698 0.52609 0.0
C688 C 0.35899 0.17949 0.51027 0.0
N689 N 0.41316 0.18682 0.51566 0.0
C690 C 0.37444 0.17082 0.49166 0.0
C691 C 0.37113 0.19237 0.53147 0.0
C692 C 0.40177 0.17458 0.49475 0.0
C693 C 0.39853 0.19575 0.53391 0.0
C694 C 0.31169 0.11982 0.45239 0.0
C695 C 0.33756 0.11732 0.44607 0.0
C696 C 0.29152 0.11568 0.43471 0.0
C697 C 0.34286 0.11108 0.42217 0.0
C698 C 0.2976 0.10946 0.411 0.0
N699 N 0.32293 0.10732 0.40527 0.0
C700 C 0.35725 0.09699 0.50333 0.0
C701 C 0.3663 0.12736 0.53777 0.0
C702 C 0.37565 0.0819 0.51123 0.0
N703 N 0.353 0.11934 0.51653 0.0
C704 C 0.38482 0.11279 0.54641 0.0
C705 C 0.38946 0.08951 0.53324 0.0
H706 H 0.34581 0.09045 0.48696 0.0
H707 H 0.36191 0.1447 0.54842 0.0
C708 C 0.33355 0.20123 0.45507 0.0
N709 N 0.31313 0.18263 0.45256 0.0
C710 C 0.33892 0.21592 0.43694 0.0
C711 C 0.30206 0.1925 0.41372 0.0
C712 C 0.29748 0.17813 0.43226 0.0
C713 C 0.32281 0.21199 0.416 0.0
H714 H 0.34553 0.20507 0.47137 0.0
H715 H 0.28107 0.16373 0.43045 0.0
O716 O 0.29533 0.13626 0.52922 0.0
O717 O 0.27322 0.17103 0.49663 0.0
O718 O 0.33216 0.17563 0.50761 0.0
O719 O 0.30607 0.1259 0.47574 0.0
H720 H 0.29107 0.08849 0.50839 0.0
H721 H 0.30786 0.1375 0.57494 0.0
H722 H 0.29896 0.05158 0.52871 0.0
H723 H 0.31568 0.09975 0.59405 0.0
H724 H 0.20014 0.1508 0.44754 0.0
H725 H 0.2376 0.1805 0.5287 0.0
H726 H 0.24841 0.15516 0.45492 0.0
H727 H 0.18953 0.17606 0.52003 0.0
H728 H 0.32783 0.20763 0.60699 0.0
H729 H 0.26334 0.24303 0.57889 0.0
H730 H 0.21784 0.05739 0.45886 0.0
H731 H 0.19096 0.09727 0.52342 0.0
H732 H 0.36539 0.16155 0.47491 0.0
H733 H 0.35958 0.19974 0.54589 0.0
H734 H 0.41393 0.16786 0.48049 0.0
H735 H 0.40816 0.20553 0.55029 0.0
H736 H 0.35344 0.12001 0.45942 0.0
H737 H 0.2714 0.11775 0.43914 0.0
H738 H 0.36282 0.10915 0.41707 0.0
H739 H 0.28217 0.10644 0.39715 0.0
H740 H 0.3789 0.06434 0.50024 0.0
H741 H 0.39484 0.11931 0.56353 0.0
H742 H 0.35547 0.23037 0.43942 0.0
H743 H 0.28897 0.18886 0.39801 0.0
Li744 Li 0.44459 0.51919 0.80075 0.0
Li745 Li 0.41299 0.54446 0.78422 0.0
Li746 Li 0.40967 0.49678 0.77241 0.0
Li747 Li 0.44652 0.52532 0.75844 0.0
C748 C 0.39419 0.50708 0.82205 0.0
N749 N 0.37104 0.48716 0.85943 0.0
C750 C 0.38217 0.52276 0.83932 0.0
C751 C 0.39424 0.48126 0.82369 0.0
C752 C 0.37064 0.51234 0.85812 0.0
C753 C 0.38248 0.47155 0.84274 0.0
C754 C 0.46 0.57111 0.80519 0.0
C755 C 0.48941 0.60772 0.82166 0.0
N756 N 0.47538 0.61012 0.84158 0.0
C757 C 0.44586 0.57392 0.82581 0.0
C758 C 0.48195 0.58811 0.80307 0.0
C759 C 0.45395 0.59376 0.84401 0.0
C760 C 0.49159 0.51222 0.8275 0.0
N761 N 0.46587 0.51645 0.82939 0.0
C762 C 0.46975 0.51627 0.87153 0.0
C763 C 0.45505 0.51902 0.85104 0.0
C764 C 0.49594 0.51083 0.86986 0.0
C765 C 0.50689 0.50889 0.84748 0.0
H766 H 0.50031 0.51131 0.81044 0.0
H767 H 0.43503 0.52337 0.8526 0.0
C768 C 0.36667 0.56724 0.79751 0.0
N769 N 0.39174 0.5727 0.7912 0.0
C770 C 0.35061 0.5867 0.80383 0.0
C771 C 0.38614 0.6172 0.79657 0.0
C772 C 0.40157 0.59713 0.79044 0.0
C773 C 0.36031 0.61218 0.80364 0.0
H774 H 0.35917 0.54769 0.79784 0.0
H775 H 0.42144 0.6011 0.78512 0.0
C776 C 0.46713 0.47843 0.77683 0.0
N777 N 0.50635 0.44868 0.78655 0.0
C778 C 0.49104 0.48072 0.76578 0.0
C779 C 0.46311 0.46082 0.79267 0.0
C780 C 0.51063 0.46554 0.77095 0.0
C781 C 0.4832 0.44602 0.79741 0.0
C782 C 0.40144 0.53988 0.73572 0.0
C783 C 0.37944 0.53342 0.72011 0.0
C784 C 0.41716 0.56262 0.73514 0.0
C785 C 0.37352 0.54986 0.7041 0.0
C786 C 0.41057 0.57855 0.71887 0.0
N787 N 0.38907 0.57189 0.70381 0.0
C788 C 0.3604 0.4661 0.76133 0.0
C789 C 0.39845 0.44409 0.75786 0.0
C790 C 0.34427 0.44337 0.75442 0.0
N791 N 0.38697 0.466 0.76302 0.0
C792 C 0.38312 0.421 0.75115 0.0
C793 C 0.35565 0.4204 0.74952 0.0
H794 H 0.35176 0.48382 0.76538 0.0
H795 H 0.41959 0.44451 0.75892 0.0
C796 C 0.49229 0.5406 0.73334 0.0
N797 N 0.46796 0.5276 0.73128 0.0
C798 C 0.50798 0.54047 0.71359 0.0
C799 C 0.47315 0.51406 0.68987 0.0
C800 C 0.45823 0.51453 0.71007 0.0
C801 C 0.49854 0.52689 0.69148 0.0
H802 H 0.49967 0.55076 0.7504 0.0
H803 H 0.43892 0.50419 0.7089 0.0
O804 O 0.40566 0.51703 0.80359 0.0
O805 O 0.45256 0.55176 0.78717 0.0
O806 O 0.44775 0.49321 0.772 0.0
O807 O 0.40739 0.52407 0.7516 0.0
H808 H 0.38203 0.54282 0.83839 0.0
H809 H 0.40314 0.46881 0.81038 0.0
H810 H 0.36141 0.52427 0.87168 0.0
H811 H 0.38241 0.45159 0.84424 0.0
H812 H 0.50637 0.62104 0.82026 0.0
H813 H 0.42881 0.56097 0.82775 0.0
H814 H 0.4931 0.58617 0.7872 0.0
H815 H 0.44318 0.59616 0.86006 0.0
H816 H 0.46059 0.518 0.88848 0.0
H817 H 0.52718 0.50511 0.84552 0.0
H818 H 0.33085 0.58185 0.80908 0.0
H819 H 0.39428 0.63642 0.79545 0.0
H820 H 0.4945 0.4941 0.75339 0.0
H821 H 0.44479 0.45873 0.80138 0.0
H822 H 0.52924 0.46719 0.76257 0.0
H823 H 0.4804 0.43245 0.80974 0.0
H824 H 0.36707 0.51589 0.72041 0.0
H825 H 0.43423 0.56794 0.74713 0.0
H826 H 0.35654 0.54511 0.6919 0.0
H827 H 0.42254 0.59621 0.71822 0.0
H828 H 0.32314 0.44366 0.7533 0.0
H829 H 0.39267 0.40377 0.74709 0.0
H830 H 0.52724 0.55102 0.71556 0.0
H831 H 0.46509 0.50335 0.67323 0.0
Li832 Li 0.79126 0.40196 0.52271 0.0
Li833 Li 0.773 0.36898 0.54588 0.0
Li834 Li 0.76481 0.36297 0.50177 0.0
Li835 Li 0.74315 0.39549 0.5298 0.0
C836 C 0.81951 0.35826 0.508 0.0
N837 N 0.86059 0.34187 0.48171 0.0
C838 C 0.83437 0.33995 0.51545 0.0
C839 C 0.82554 0.36826 0.48723 0.0
C840 C 0.85507 0.3319 0.5019 0.0
C841 C 0.84639 0.35973 0.47417 0.0
C842 C 0.78093 0.40981 0.57644 0.0
C843 C 0.77149 0.40681 0.61721 0.0
N844 N 0.79722 0.41393 0.62368 0.0
C845 C 0.80725 0.41719 0.58348 0.0
C846 C 0.76284 0.40468 0.59342 0.0
C847 C 0.81511 0.41915 0.60746 0.0
C848 C 0.81444 0.45047 0.51482 0.0
N849 N 0.82007 0.4274 0.5199 0.0
C850 C 0.86619 0.44091 0.52131 0.0
C851 C 0.8454 0.42252 0.52355 0.0
C852 C 0.86093 0.4646 0.5152 0.0
C853 C 0.83457 0.46928 0.51218 0.0
H854 H 0.79428 0.45442 0.51295 0.0
H855 H 0.84952 0.40441 0.52843 0.0
C856 C 0.75963 0.33782 0.58115 0.0
N857 N 0.78003 0.35085 0.57198 0.0
C858 C 0.76381 0.32531 0.60072 0.0
C859 C 0.81007 0.33927 0.60081 0.0
C860 C 0.80499 0.35154 0.58121 0.0
C861 C 0.7893 0.32597 0.61089 0.0
H862 H 0.74 0.33747 0.5735 0.0
H863 H 0.8209 0.36195 0.57355 0.0
C864 C 0.76035 0.41614 0.48368 0.0
N865 N 0.76009 0.45112 0.45226 0.0
C866 C 0.74786 0.43824 0.4892 0.0
C867 C 0.77237 0.41167 0.46202 0.0
C868 C 0.74804 0.45574 0.47312 0.0
C869 C 0.77213 0.42964 0.44642 0.0
C870 C 0.71286 0.35187 0.52605 0.0
C871 C 0.69974 0.34143 0.50449 0.0
C872 C 0.69853 0.35717 0.54632 0.0
C873 C 0.6724 0.33653 0.50354 0.0
C874 C 0.67121 0.35202 0.54463 0.0
N875 N 0.65883 0.3419 0.52345 0.0
C876 C 0.77511 0.31659 0.4747 0.0
C877 C 0.75144 0.3421 0.45258 0.0
C878 C 0.7765 0.2986 0.45451 0.0
N879 N 0.76308 0.33804 0.47337 0.0
C880 C 0.75205 0.32438 0.43199 0.0
C881 C 0.76492 0.30237 0.43275 0.0
H882 H 0.78399 0.31358 0.49143 0.0
H883 H 0.74192 0.35922 0.4519 0.0
C884 C 0.71651 0.43368 0.55514 0.0
N885 N 0.71292 0.41461 0.53646 0.0
C886 C 0.69642 0.44892 0.56154 0.0
C887 C 0.66895 0.42494 0.52933 0.0
C888 C 0.68976 0.41023 0.52337 0.0
C889 C 0.67214 0.44473 0.54865 0.0
H890 H 0.73517 0.43732 0.56503 0.0
H891 H 0.68734 0.39528 0.50835 0.0
O892 O 0.79905 0.36617 0.52097 0.0
O893 O 0.773 0.40702 0.55297 0.0
O894 O 0.76014 0.39868 0.49913 0.0
O895 O 0.73959 0.35686 0.52732 0.0
H896 H 0.82989 0.332 0.53149 0.0
H897 H 0.81436 0.38258 0.4814 0.0
H898 H 0.86673 0.31771 0.50742 0.0
H899 H 0.8513 0.36734 0.45807 0.0
H900 H 0.75776 0.40271 0.63053 0.0
H901 H 0.8215 0.42112 0.57054 0.0
H902 H 0.74242 0.39877 0.58821 0.0
H903 H 0.83545 0.42472 0.61316 0.0
H904 H 0.88614 0.43672 0.52465 0.0
H905 H 0.82951 0.48728 0.50761 0.0
H906 H 0.74712 0.31586 0.60823 0.0
H907 H 0.83001 0.34032 0.60812 0.0
H908 H 0.73839 0.44202 0.50583 0.0
H909 H 0.78166 0.39447 0.45718 0.0
H910 H 0.73862 0.473 0.47725 0.0
H911 H 0.78144 0.42645 0.42963 0.0
H912 H 0.71052 0.3372 0.48865 0.0
H913 H 0.70835 0.36552 0.5631 0.0
H914 H 0.66197 0.32849 0.48696 0.0
H915 H 0.65986 0.35618 0.56012 0.0
H916 H 0.78646 0.28183 0.45591 0.0
H917 H 0.74309 0.32815 0.41551 0.0
H918 H 0.70003 0.46413 0.57632 0.0
H919 H 0.6505 0.42063 0.51906 0.0
Li920 Li 0.65493 0.98964 0.75822 0.0
Li921 Li 0.62456 0.01759 0.77876 0.0
Li922 Li 0.62335 1.0101 0.73507 0.0
Li923 Li 0.65979 0.0375 0.75641 0.0
C924 C 0.60714 0.96511 0.76925 0.0
N925 N 0.59088 0.92587 0.79391 0.0
C926 C 0.61854 0.96392 0.79163 0.0
C927 C 0.58742 0.94636 0.75939 0.0
C928 C 0.61007 0.94395 0.80383 0.0
C929 C 0.57947 0.92666 0.77213 0.0
C930 C 0.67418 0.02582 0.80663 0.0
C931 C 0.69053 0.0582 0.83901 0.0
N932 N 0.69661 0.03986 0.85199 0.0
C933 C 0.68101 1.00731 0.82018 0.0
C934 C 0.67935 0.05149 0.81601 0.0
C935 C 0.69216 0.01479 0.84311 0.0
C936 C 0.70085 0.9685 0.76943 0.0
N937 N 0.67556 0.96174 0.76126 0.0
C938 C 0.68099 0.91786 0.76249 0.0
C939 C 0.66561 0.93691 0.75717 0.0
C940 C 0.70681 0.92446 0.77213 0.0
C941 C 0.71684 0.95015 0.77502 0.0
H942 H 0.70833 0.98836 0.77248 0.0
H943 H 0.64555 0.93189 0.75038 0.0
C944 C 0.57796 0.029 0.79998 0.0
N945 N 0.60233 0.02273 0.80544 0.0
C946 C 0.56005 0.03352 0.81768 0.0
C947 C 0.59236 0.02476 0.84649 0.0
C948 C 0.60977 0.02051 0.82819 0.0
C949 C 0.56704 0.03123 0.84131 0.0
H950 H 0.57255 0.03076 0.7818 0.0
H951 H 0.62912 0.01539 0.83224 0.0
C952 C 0.6619 1.00063 0.70698 0.0
N953 N 0.65994 0.98512 0.65857 0.0
C954 C 0.66915 0.01801 0.6916 0.0
C955 C 0.65384 0.97534 0.69781 0.0
C956 C 0.66797 1.00979 0.66715 0.0
C957 C 0.65293 0.96788 0.67326 0.0
C958 C 0.6174 0.06707 0.76374 0.0
C959 C 0.60693 0.08176 0.74797 0.0
C960 C 0.62293 0.07758 0.78746 0.0
C961 C 0.60269 0.10688 0.7561 0.0
C962 C 0.61838 0.10275 0.79493 0.0
N963 N 0.60848 0.11677 0.77921 0.0
C964 C 0.58236 0.98882 0.69943 0.0
C965 C 0.60529 0.02808 0.69416 0.0
C966 C 0.56634 0.98905 0.67898 0.0
N967 N 0.60141 1.00818 0.70655 0.0
C968 C 0.58983 0.02907 0.6737 0.0
C969 C 0.57011 1.00932 0.66574 0.0
H970 H 0.57952 0.97327 0.70964 0.0
H971 H 0.62043 0.04333 0.70029 0.0
C972 C 0.7091 0.06716 0.76475 0.0
N973 N 0.68469 0.06605 0.75423 0.0
C974 C 0.72802 0.08721 0.76245 0.0
C975 C 0.69647 0.10451 0.73834 0.0
C976 C 0.6782 0.08407 0.74103 0.0
C977 C 0.72183 0.10615 0.74898 0.0
H978 H 0.71394 0.05234 0.77478 0.0
H979 H 0.65896 0.08236 0.73222 0.0
O980 O 0.61535 0.98435 0.75687 0.0
O981 O 0.66339 0.01886 0.78403 0.0
O982 O 0.66215 1.00842 0.73088 0.0
O983 O 0.62177 0.04245 0.75599 0.0
H984 H 0.63377 0.97823 0.79945 0.0
H985 H 0.57841 0.94694 0.74204 0.0
H986 H 0.61879 0.94281 0.82117 0.0
H987 H 0.56426 0.912 0.7647 0.0
H988 H 0.69451 0.078 0.84649 0.0
H989 H 0.67773 0.98735 0.81315 0.0
H990 H 0.6751 0.06615 0.80558 0.0
H991 H 0.69735 1.00064 0.85382 0.0
H992 H 0.6726 0.89826 0.75951 0.0
H993 H 0.73652 0.95619 0.78252 0.0
H994 H 0.54106 0.0392 0.81293 0.0
H995 H 0.59858 0.02285 0.86446 0.0
H996 H 0.67535 0.03767 0.69848 0.0
H997 H 0.64806 0.96172 0.70955 0.0
H998 H 0.67337 0.02305 0.655 0.0
H999 H 0.64658 0.94841 0.66588 0.0
H1000 H 0.60221 0.0739 0.72961 0.0
H1001 H 0.63038 0.06638 0.80006 0.0
H1002 H 0.59476 0.11849 0.74403 0.0
H1003 H 0.62263 0.1111 0.81325 0.0
H1004 H 0.55137 0.97344 0.67344 0.0
H1005 H 0.59309 0.0453 0.66434 0.0
H1006 H 0.74724 0.08795 0.77119 0.0
H1007 H 0.69102 0.11862 0.72766 0.0
Li1008 Li 0.05941 0.24174 0.87778 0.0
Li1009 Li 0.03052 0.26017 0.90961 0.0
Li1010 Li 0.03705 0.21551 0.90497 0.0
Li1011 Li 1.00948 0.23132 0.87641 0.0
C1012 C 0.08143 0.23688 0.92763 0.0
N1013 N 0.11449 0.21734 0.95817 0.0
C1014 C 0.07738 0.23998 0.95197 0.0
C1015 C 0.1024 0.22406 0.91882 0.0
C1016 C 0.09428 0.22987 0.96712 0.0
C1017 C 0.11889 0.2143 0.93456 0.0
C1018 C 0.02964 0.28995 0.87645 0.0
C1019 C 1.006 0.32701 0.88406 0.0
N1020 N 0.02821 0.34196 0.88086 0.0
C1021 C 0.05218 0.30568 0.87309 0.0
C1022 C 1.00629 0.30067 0.88179 0.0
C1023 C 0.05107 0.33193 0.87541 0.0
C1024 C 0.08879 0.23823 0.83637 0.0
N1025 N 0.08919 0.24864 0.85958 0.0
C1026 C 0.13207 0.26976 0.85681 0.0
C1027 C 0.11018 0.26425 0.86992 0.0
C1028 C 0.13245 0.25897 0.83285 0.0
C1029 C 0.1104 0.24294 0.82269 0.0
H1030 H 0.07178 0.22595 0.82857 0.0
H1031 H 0.10985 0.27248 0.88837 0.0
C1032 C 1.00509 0.29446 0.94218 0.0
N1033 N 0.02786 0.29046 0.93128 0.0
C1034 C 1.00202 0.3181 0.9552 0.0
C1035 C 0.0464 0.33253 0.94668 0.0
C1036 C 0.04863 0.30861 0.93387 0.0
C1037 C 0.02259 0.33772 0.95696 0.0
H1038 H 0.98903 0.2796 0.94016 0.0
H1039 H 0.06653 0.30486 0.92505 0.0
C1040 C 0.0414 0.18321 0.86446 0.0
N1041 N 0.04872 0.13234 0.85434 0.0
C1042 C 0.02138 0.16467 0.86801 0.0
C1043 C 0.06513 0.17589 0.8557 0.0
C1044 C 0.02547 0.13905 0.86283 0.0
C1045 C 0.06845 0.15007 0.85069 0.0
C1046 C 0.97785 0.22268 0.9099 0.0
C1047 C 0.96994 0.1973 0.91176 0.0
C1048 C 0.95889 0.23918 0.9065 0.0
C1049 C 0.94319 0.18884 0.91012 0.0
C1050 C 0.93233 0.22998 0.90489 0.0
N1051 N 0.9251 0.20522 0.90672 0.0
C1052 C 0.02984 0.18965 0.94474 0.0
C1053 C 0.06088 0.17211 0.91905 0.0
C1054 C 0.03536 0.17357 0.96126 0.0
N1055 N 0.04269 0.18885 0.92415 0.0
C1056 C 0.06693 0.15561 0.93503 0.0
C1057 C 0.05456 0.15663 0.95675 0.0
H1058 H 0.01607 0.2036 0.94885 0.0
H1059 H 0.07171 0.17231 0.90316 0.0
C1060 C 0.97521 0.2446 0.84139 0.0
N1061 N 0.97946 0.22551 0.85411 0.0
C1062 C 0.95371 0.24228 0.82522 0.0
C1063 C 0.94139 0.20039 0.83496 0.0
C1064 C 0.9632 0.20352 0.85098 0.0
C1065 C 0.93645 0.21993 0.82179 0.0
H1066 H 0.98851 0.26175 0.84379 0.0
H1067 H 0.96697 0.18843 0.86099 0.0
O1068 O 0.06455 0.24581 0.91243 0.0
O1069 O 0.03054 0.26424 0.87493 0.0
O1070 O 0.03777 0.20839 0.86937 0.0
O1071 O 1.00398 0.23129 0.91127 0.0
H1072 H 0.06114 0.24977 0.95901 0.0
H1073 H 0.10563 0.22132 0.89998 0.0
H1074 H 0.09126 0.23191 0.98597 0.0
H1075 H 0.13508 0.20415 0.92798 0.0
H1076 H 0.98813 0.33556 0.88845 0.0
H1077 H 0.07039 0.29776 0.86888 0.0
H1078 H 0.98866 0.28881 0.88448 0.0
H1079 H 0.06841 0.34433 0.87297 0.0
H1080 H 0.14858 0.28226 0.86537 0.0
H1081 H 0.11006 0.23355 0.80454 0.0
H1082 H 0.98353 0.32123 0.96327 0.0
H1083 H 0.06268 0.34717 0.94755 0.0
H1084 H 1.00302 0.16999 0.87497 0.0
H1085 H 0.08094 0.18997 0.85304 0.0
H1086 H 0.01018 0.12451 0.86562 0.0
H1087 H 0.08674 0.14413 0.84398 0.0
H1088 H 0.98427 0.18416 0.91418 0.0
H1089 H 0.96459 0.25881 0.90482 0.0
H1090 H 0.93682 0.16923 0.91145 0.0
H1091 H 0.91748 0.24252 0.90211 0.0
H1092 H 0.02563 0.17529 0.97793 0.0
H1093 H 0.08175 0.14274 0.93074 0.0
H1094 H 0.9504 0.25802 0.81578 0.0
H1095 H 0.9286 0.1828 0.8328 0.0
Li1096 Li 0.5603 0.73832 0.37509 0.0
Li1097 Li 0.53502 0.76152 0.40798 0.0
Li1098 Li 0.54134 0.71464 0.40589 0.0
Li1099 Li 0.51253 0.72918 0.3771 0.0
C1100 C 0.59399 0.74192 0.41527 0.0
N1101 N 0.64609 0.73612 0.42496 0.0
C1102 C 0.61045 0.76202 0.42785 0.0
C1103 C 0.60396 0.71888 0.40763 0.0
C1104 C 0.63676 0.75871 0.43257 0.0
C1105 C 0.63037 0.71631 0.4127 0.0
C1106 C 0.51776 0.77161 0.35748 0.0
C1107 C 0.48056 0.79368 0.34849 0.0
N1108 N 0.48503 0.78866 0.32496 0.0
C1109 C 0.52212 0.7668 0.33325 0.0
C1110 C 0.49696 0.78529 0.36523 0.0
C1111 C 0.5053 0.77556 0.31707 0.0
C1112 C 0.59064 0.72731 0.33454 0.0
N1113 N 0.58906 0.7433 0.35511 0.0
C1114 C 0.62883 0.76763 0.34773 0.0
C1115 C 0.60745 0.76333 0.36177 0.0
C1116 C 0.63116 0.75137 0.32641 0.0
C1117 C 0.61166 0.73098 0.31988 0.0
H1118 H 0.57559 0.71168 0.32954 0.0
H1119 H 0.6056 0.77588 0.37813 0.0
C1120 C 0.52398 0.79507 0.44956 0.0
N1121 N 0.53341 0.79325 0.42739 0.0
C1122 C 0.52227 0.81896 0.46282 0.0
C1123 C 0.54034 0.83839 0.43026 0.0
C1124 C 0.54169 0.81425 0.4177 0.0
C1125 C 0.53037 0.84102 0.45307 0.0
H1126 H 0.51766 0.778 0.45687 0.0
H1127 H 0.54907 0.81219 0.40002 0.0
C1128 C 0.53681 0.6793 0.36377 0.0
N1129 N 0.532 0.62737 0.34987 0.0
C1130 C 0.512 0.66558 0.36114 0.0
C1131 C 0.55914 0.66666 0.35899 0.0
C1132 C 0.50999 0.63933 0.35417 0.0
C1133 C 0.55631 0.64038 0.35209 0.0
C1134 C 0.48598 0.72266 0.41935 0.0
C1135 C 0.4793 0.69643 0.41561 0.0
C1136 C 0.46865 0.73863 0.43059 0.0
C1137 C 0.45514 0.68657 0.4229 0.0
C1138 C 0.44467 0.72805 0.4376 0.0
N1139 N 0.43846 0.70246 0.43363 0.0
C1140 C 0.55923 0.70105 0.44853 0.0
C1141 C 0.54172 0.66464 0.4222 0.0
C1142 C 0.56535 0.68606 0.46576 0.0
N1143 N 0.54785 0.69026 0.42713 0.0
C1144 C 0.54728 0.64887 0.4391 0.0
C1145 C 0.55938 0.6596 0.4612 0.0
H1146 H 0.56358 0.72144 0.45226 0.0
H1147 H 0.5324 0.65631 0.40529 0.0
C1148 C 0.48282 0.71303 0.33374 0.0
N1149 N 0.4809 0.72287 0.35692 0.0
C1150 C 0.46131 0.71152 0.3176 0.0
C1151 C 0.43592 0.72935 0.34961 0.0
C1152 C 0.45798 0.73085 0.36503 0.0
C1153 C 0.43758 0.72023 0.32538 0.0
H1154 H 0.50141 0.70728 0.3276 0.0
H1155 H 0.457 0.73932 0.38326 0.0
O1156 O 0.56826 0.74491 0.4103 0.0
O1157 O 0.5334 0.76239 0.3735 0.0
O1158 O 0.53922 0.70505 0.3703 0.0
O1159 O 0.50946 0.73276 0.41229 0.0
H1160 H 0.60298 0.78 0.43383 0.0
H1161 H 0.59141 0.70316 0.39793 0.0
H1162 H 0.64977 0.77411 0.44227 0.0
H1163 H 0.63836 0.69857 0.4069 0.0
H1164 H 0.46422 0.80408 0.35419 0.0
H1165 H 0.53811 0.75614 0.32701 0.0
H1166 H 0.49327 0.789 0.38395 0.0
H1167 H 0.5083 0.77183 0.29824 0.0
H1168 H 0.6437 0.78317 0.35381 0.0
H1169 H 0.61268 0.718 0.3036 0.0
H1170 H 0.51482 0.82016 0.48047 0.0
H1171 H 0.54658 0.85489 0.42201 0.0
H1172 H 0.49447 0.67506 0.36447 0.0
H1173 H 0.57846 0.67704 0.36052 0.0
H1174 H 0.49092 0.62847 0.35218 0.0
H1175 H 0.57343 0.63034 0.34844 0.0
H1176 H 0.49262 0.68381 0.40724 0.0
H1177 H 0.47355 0.75901 0.43361 0.0
H1178 H 0.44968 0.66629 0.42005 0.0
H1179 H 0.43098 0.74019 0.44617 0.0
H1180 H 0.57439 0.69514 0.48267 0.0
H1181 H 0.54247 0.62854 0.43484 0.0
H1182 H 0.4635 0.70443 0.29907 0.0
H1183 H 0.41787 0.73567 0.35657 0.0
Li1184 Li 0.02324 0.79427 0.64541 0.0
Li1185 Li 0.99574 0.77574 0.67878 0.0
Li1186 Li 0.04264 0.76911 0.67369 0.0
Li1187 Li 0.01032 0.74816 0.64426 0.0
C1188 C 0.04608 0.81456 0.69722 0.0
N1189 N 0.08593 0.83681 0.72944 0.0
C1190 C 0.04486 0.81137 0.72111 0.0
C1191 C 0.06743 0.82916 0.6897 0.0
C1192 C 0.06525 0.82275 0.73713 0.0
C1193 C 0.08741 0.84025 0.70628 0.0
C1194 C 0.96773 0.76374 0.62788 0.0
C1195 C 0.92802 0.73562 0.61834 0.0
N1196 N 0.93113 0.73675 0.59486 0.0
C1197 C 0.97048 0.76476 0.60369 0.0
C1198 C 0.94632 0.74916 0.63532 0.0
C1199 C 0.95178 0.75092 0.58726 0.0
C1200 C 0.03819 0.81183 0.60347 0.0
N1201 N 0.03009 0.82046 0.62536 0.0
C1202 C 0.03478 0.86331 0.61655 0.0
C1203 C 0.02815 0.84568 0.63212 0.0
C1204 C 0.04373 0.85486 0.59398 0.0
C1205 C 0.04523 0.8287 0.58756 0.0
H1206 H 0.03946 0.79173 0.59842 0.0
H1207 H 0.0218 0.85217 0.64967 0.0
C1208 C 0.97232 0.76986 0.72224 0.0
N1209 N 0.96919 0.78043 0.70204 0.0
C1210 C 0.95309 0.77074 0.73915 0.0
C1211 C 0.92826 0.79465 0.71497 0.0
C1212 C 0.94776 0.79285 0.69821 0.0
C1213 C 0.93066 0.78315 0.73557 0.0
H1214 H 0.98959 0.76023 0.72499 0.0
H1215 H 0.94565 0.80109 0.68203 0.0
C1216 C 0.06582 0.75361 0.63136 0.0
N1217 N 0.10895 0.72915 0.6169 0.0
C1218 C 0.06742 0.72843 0.6348 0.0
C1219 C 0.08607 0.76633 0.62042 0.0
C1220 C 0.0894 0.71639 0.6274 0.0
C1221 C 0.10775 0.75364 0.61329 0.0
C1222 C 1.00576 0.72061 0.68332 0.0
C1223 C 0.02439 0.70323 0.68432 0.0
C1224 C 0.97964 0.7136 0.68798 0.0
C1225 C 0.01648 0.67896 0.68953 0.0
C1226 C 0.97253 0.68916 0.69316 0.0
N1227 N 0.99093 0.67248 0.69379 0.0
C1228 C 0.07358 0.75379 0.71104 0.0
C1229 C 0.09818 0.77442 0.68353 0.0
C1230 C 0.09669 0.7497 0.72322 0.0
N1231 N 0.07473 0.76558 0.69133 0.0
C1232 C 0.12169 0.77044 0.69493 0.0
C1233 C 0.12114 0.7577 0.71488 0.0
H1234 H 0.0547 0.74725 0.71712 0.0
H1235 H 0.09867 0.78442 0.66831 0.0
C1236 C 0.01208 0.71751 0.59955 0.0
N1237 N 1.00095 0.71794 0.62097 0.0
C1238 C 1.007 0.69637 0.58196 0.0
C1239 C 0.97851 0.67654 0.60839 0.0
C1240 C 0.98395 0.69817 0.62539 0.0
C1241 C 0.99033 0.67535 0.58643 0.0
H1242 H 0.02496 0.73366 0.59607 0.0
H1243 H 0.97427 0.69915 0.64191 0.0
O1244 O 0.02685 0.80281 0.68113 0.0
O1245 O 0.98632 0.77637 0.64417 0.0
O1246 O 0.04459 0.76584 0.63869 0.0
O1247 O 0.01321 0.74463 0.67867 0.0
H1248 H 0.02851 0.79996 0.72714 0.0
H1249 H 0.06871 0.83161 0.6712 0.0
H1250 H 0.06468 0.82032 0.75565 0.0
H1251 H 0.10415 0.85148 0.70071 0.0
H1252 H 0.91142 0.72413 0.62381 0.0
H1253 H 0.98706 0.77587 0.59768 0.0
H1254 H 0.94402 0.74811 0.654 0.0
H1255 H 0.95374 0.75137 0.56847 0.0
H1256 H 0.0335 0.88333 0.62227 0.0
H1257 H 0.05176 0.82131 0.57029 0.0
H1258 H 0.95572 0.76185 0.75492 0.0
H1259 H 0.91122 0.80443 0.71164 0.0
H1260 H 0.05178 0.71826 0.64295 0.0
H1261 H 0.08519 0.78588 0.61771 0.0
H1262 H 0.09089 0.6969 0.62997 0.0
H1263 H 0.12363 0.76328 0.60491 0.0
H1264 H 0.04479 0.70845 0.68131 0.0
H1265 H 0.9649 0.72669 0.68715 0.0
H1266 H 0.03069 0.66531 0.69029 0.0
H1267 H 0.95235 0.68343 0.6966 0.0
H1268 H 0.09549 0.73976 0.73853 0.0
H1269 H 0.14018 0.77715 0.68815 0.0
H1270 H 0.01629 0.69631 0.56515 0.0
H1271 H 0.9649 0.66103 0.61227 0.0
Li1272 Li 0.52454 0.297 0.14479 0.0
Li1273 Li 0.49589 0.2784 0.17602 0.0
Li1274 Li 0.54117 0.27148 0.17312 0.0
Li1275 Li 0.51112 0.24998 0.14164 0.0
C1276 C 0.54134 0.31845 0.19854 0.0
N1277 N 0.57224 0.34542 0.23604 0.0
C1278 C 0.53988 0.31121 0.22115 0.0
C1279 C 0.55825 0.33955 0.19502 0.0
C1280 C 0.55576 0.32505 0.23987 0.0
C1281 C 0.57377 0.35291 0.21422 0.0
C1282 C 0.47666 0.28188 0.11986 0.0
C1283 C 0.44209 0.29665 0.09723 0.0
N1284 N 0.45449 0.28972 0.07693 0.0
C1285 C 0.48905 0.27487 0.09878 0.0
C1286 C 0.453 0.29285 0.11912 0.0
C1287 C 0.47754 0.27901 0.07726 0.0
C1288 C 0.5431 0.31601 0.10421 0.0
N1289 N 0.53142 0.32358 0.12477 0.0
C1290 C 0.53148 0.3658 0.11462 0.0
C1291 C 0.52539 0.34797 0.13015 0.0
C1292 C 0.54403 0.35845 0.09348 0.0
C1293 C 0.54967 0.33311 0.08843 0.0
H1294 H 0.5476 0.29656 0.10012 0.0
H1295 H 0.51603 0.35365 0.14653 0.0
C1296 C 0.47056 0.27069 0.21795 0.0
N1297 N 0.4685 0.28287 0.19862 0.0
C1298 C 0.45123 0.27144 0.23473 0.0
C1299 C 0.42836 0.29836 0.21224 0.0
C1300 C 0.44799 0.29672 0.19558 0.0
C1301 C 0.42958 0.28529 0.23205 0.0
H1302 H 0.48716 0.26003 0.22025 0.0
H1303 H 0.44686 0.30652 0.18026 0.0
C1304 C 0.57316 0.26972 0.13839 0.0
N1305 N 0.62746 0.27305 0.1401 0.0
C1306 C 0.58616 0.24782 0.13805 0.0
C1307 C 0.58787 0.29335 0.13981 0.0
C1308 C 0.6136 0.24989 0.13893 0.0
C1309 C 0.61527 0.29462 0.14054 0.0
C1310 C 0.49164 0.22685 0.17785 0.0
C1311 C 0.49623 0.20681 0.19031 0.0
C1312 C 0.46659 0.22781 0.16759 0.0
C1313 C 0.47576 0.18811 0.19228 0.0
C1314 C 0.44665 0.20875 0.16995 0.0
N1315 N 0.4516 0.18945 0.18214 0.0
C1316 C 0.59302 0.2847 0.19691 0.0
C1317 C 0.57234 0.24397 0.20034 0.0
C1318 C 0.61543 0.27984 0.20959 0.0
N1319 N 0.57205 0.26677 0.19236 0.0
C1320 C 0.59433 0.23831 0.21309 0.0
C1321 C 0.61645 0.25623 0.21755 0.0
H1322 H 0.59276 0.30255 0.19017 0.0
H1323 H 0.55567 0.2299 0.19636 0.0
C1324 C 0.47707 0.21518 0.10816 0.0
N1325 N 0.50123 0.21926 0.11956 0.0
C1326 C 0.4703 0.19332 0.09171 0.0
C1327 C 0.51288 0.1796 0.09965 0.0
C1328 C 0.51886 0.20177 0.11588 0.0
C1329 C 0.48837 0.17522 0.08718 0.0
H1330 H 0.46298 0.22888 0.11177 0.0
H1331 H 0.53763 0.20503 0.1255 0.0
O1332 O 0.52609 0.30512 0.17996 0.0
O1333 O 0.48776 0.2783 0.14117 0.0
O1334 O 0.54626 0.26816 0.138 0.0
O1335 O 0.51164 0.24526 0.17574 0.0
H1336 H 0.52687 0.29492 0.22412 0.0
H1337 H 0.55952 0.34539 0.1776 0.0
H1338 H 0.55501 0.31957 0.25744 0.0
H1339 H 0.58707 0.3692 0.21175 0.0
H1340 H 0.42378 0.30513 0.09638 0.0
H1341 H 0.50733 0.26627 0.09905 0.0
H1342 H 0.44318 0.29839 0.13529 0.0
H1343 H 0.48693 0.27369 0.06081 0.0
H1344 H 0.52688 0.38518 0.11928 0.0
H1345 H 0.55902 0.32647 0.07225 0.0
H1346 H 0.45314 0.26096 0.24955 0.0
H1347 H 0.41259 0.30999 0.20971 0.0
H1348 H 0.57529 0.22943 0.13751 0.0
H1349 H 0.57834 0.31063 0.14094 0.0
H1350 H 0.62386 0.23309 0.1388 0.0
H1351 H 0.62684 0.3128 0.14171 0.0
H1352 H 0.51538 0.20566 0.19844 0.0
H1353 H 0.46242 0.24311 0.15799 0.0
H1354 H 0.47908 0.17252 0.20189 0.0
H1355 H 0.42722 0.20931 0.1621 0.0
H1356 H 0.63216 0.29409 0.21239 0.0
H1357 H 0.59415 0.21997 0.21913 0.0
H1358 H 0.45108 0.19056 0.08265 0.0
H1359 H 0.52751 0.1663 0.09653 0.0
C1360 C 0.27812 0.77428 0.86972 0.0
C1361 C 0.27244 0.74783 0.86865 0.0
C1362 C 0.27555 0.79099 0.89067 0.0
C1363 C 0.26708 0.78206 0.91155 0.0
H1364 H 0.2848 0.78218 0.8542 0.0
H1365 H 0.28055 0.81111 0.89052 0.0
S1366 S 0.2485 0.71451 0.91788 0.0
N1367 N 0.2574 0.71349 0.89018 0.0
N1368 N 0.2522 0.74481 0.92949 0.0
C1369 C 0.2613 0.7556 0.91074 0.0
C1370 C 0.26407 0.73854 0.88936 0.0
C1371 C 0.02726 0.58017 0.38249 0.0
C1372 C 0.01548 0.56263 0.39622 0.0
C1373 C 0.04616 0.57333 0.36618 0.0
C1374 C 0.05422 0.54871 0.36298 0.0
H1375 H 0.02124 0.59919 0.38388 0.0
H1376 H 0.05417 0.58733 0.35562 0.0
S1377 S 0.03023 0.49586 0.39505 0.0
N1378 N 0.01387 0.51971 0.406 0.0
N1379 N 0.04964 0.50691 0.37545 0.0
C1380 C 0.04349 0.53126 0.37729 0.0
C1381 C 0.0241 0.53822 0.3939 0.0
C1382 C 0.84843 0.74982 0.8727 0.0
C1383 C 0.82656 0.75463 0.85895 0.0
C1384 C 0.84548 0.73505 0.8913 0.0
C1385 C 0.82054 0.7245 0.89691 0.0
H1386 H 0.86785 0.75828 0.86963 0.0
H1387 H 0.86278 0.7326 0.90187 0.0
S1388 S 0.75754 0.72855 0.86408 0.0
N1389 N 0.77949 0.74566 0.85082 0.0
N1390 N 0.77397 0.71789 0.88543 0.0
C1391 C 0.79872 0.72825 0.88255 0.0
C1392 C 0.80172 0.74328 0.8637 0.0
C1393 C 0.03914 0.02088 0.42959 0.0
C1394 C 0.04727 0.99674 0.43148 0.0
C1395 C 0.02382 0.02514 0.40981 0.0
C1396 C 0.01606 1.00549 0.39098 0.0
H1397 H 0.04464 0.03664 0.44354 0.0
H1398 H 0.01841 0.04413 0.40911 0.0
S1399 S 0.03195 0.9387 0.38722 0.0
N1400 N 0.04666 0.95299 0.41243 0.0
N1401 N 0.01703 0.9607 0.37599 0.0
C1402 C 0.02382 0.9812 0.39278 0.0
C1403 C 0.03955 0.9769 0.41281 0.0
C1404 C 0.28466 0.28216 0.64525 0.0
C1405 C 0.28652 0.27121 0.66627 0.0
C1406 C 0.28747 0.26792 0.62288 0.0
C1407 C 0.29222 0.24212 0.62058 0.0
H1408 H 0.28058 0.30177 0.64605 0.0
H1409 H 0.286 0.27727 0.60727 0.0
S1410 S 0.29962 0.20467 0.67031 0.0
N1411 N 0.29511 0.23336 0.68338 0.0
N1412 N 0.29824 0.20626 0.64158 0.0
C1413 C 0.29425 0.23104 0.64154 0.0
C1414 C 0.29194 0.24564 0.66426 0.0
C1415 C 0.51899 0.53211 0.62832 0.0
C1416 C 0.54538 0.52667 0.62869 0.0
C1417 C 0.50395 0.53175 0.64851 0.0
C1418 C 0.51478 0.52631 0.67008 0.0
H1419 H 0.50992 0.53692 0.61229 0.0
H1420 H 0.48384 0.53635 0.64737 0.0
S1421 S 0.58278 0.51021 0.68038 0.0
N1422 N 0.58155 0.51528 0.65242 0.0
N1423 N 0.55335 0.5145 0.69028 0.0
C1424 C 0.54104 0.5205 0.67061 0.0
C1425 C 0.55628 0.52064 0.64997 0.0
C1426 C 0.81069 0.31994 0.67426 0.0
C1427 C 0.79841 0.29608 0.67767 0.0
C1428 C 0.8085 0.32894 0.65238 0.0
C1429 C 0.79382 0.31453 0.63295 0.0
H1430 H 0.82156 0.33209 0.68889 0.0
H1431 H 0.81749 0.34783 0.651 0.0
S1432 S 0.75984 0.24983 0.63182 0.0
N1433 N 0.77237 0.25754 0.65928 0.0
N1434 N 0.76858 0.27426 0.61797 0.0
C1435 C 0.78244 0.29013 0.63575 0.0
C1436 C 0.78473 0.28092 0.6581 0.0
C1437 C 0.51035 1.00672 0.62302 0.0
C1438 C 0.52167 0.01133 0.60165 0.0
C1439 C 0.52608 1.00586 0.64362 0.0
C1440 C 0.55369 1.00992 0.64368 0.0
H1441 H 0.48922 1.00327 0.62371 0.0
H1442 H 0.51655 1.00219 0.65966 0.0
S1443 S 0.59294 0.02334 0.59244 0.0
N1444 N 0.56216 0.02067 0.58204 0.0
N1445 N 0.59157 0.01868 0.62044 0.0
C1446 C 0.56517 0.01481 0.62248 0.0
C1447 C 0.54922 0.01561 0.60157 0.0
C1448 C 0.86555 0.20744 0.79745 0.0
C1449 C 0.86692 0.21441 0.77454 0.0
C1450 C 0.88814 0.2089 0.81242 0.0
C1451 C 0.91301 0.21738 0.80509 0.0
H1452 H 0.84676 0.20135 0.80407 0.0
H1453 H 0.88602 0.20391 0.8301 0.0
S1454 S 0.92753 0.23549 0.74593 0.0
N1455 N 0.89535 0.22858 0.74469 0.0
N1456 N 0.93785 0.23116 0.77272 0.0
C1457 C 0.91473 0.2238 0.78199 0.0
C1458 C 0.8917 0.22237 0.76677 0.0
C1459 C 0.54684 0.91114 0.47561 0.0
C1460 C 0.52298 0.91864 0.48432 0.0
C1461 C 0.54943 0.88575 0.46672 0.0
C1462 C 0.52821 0.86686 0.46607 0.0
H1463 H 0.56337 0.9252 0.47487 0.0
H1464 H 0.56797 0.881 0.45957 0.0
S1465 S 0.46185 0.87654 0.48775 0.0
N1466 N 0.4781 0.90511 0.4928 0.0
N1467 N 0.48282 0.85731 0.47588 0.0
C1468 C 0.50461 0.8739 0.47582 0.0
C1469 C 0.50203 0.89982 0.48498 0.0
C1470 C 0.20396 0.26148 0.81664 0.0
C1471 C 0.20286 0.26404 0.79236 0.0
C1472 C 0.18129 0.26086 0.82973 0.0
C1473 C 0.15648 0.26285 0.81913 0.0
H1474 H 0.22245 0.25901 0.82543 0.0
H1475 H 0.18312 0.25765 0.84805 0.0
S1476 S 0.14328 0.27281 0.75675 0.0
N1477 N 0.17517 0.27035 0.75861 0.0
N1478 N 0.1326 0.27009 0.78342 0.0
C1479 C 0.15529 0.26691 0.7952 0.0
C1480 C 0.17846 0.2674 0.7818 0.0
C1481 C 0.597 0.63588 0.51088 0.0
C1482 C 0.57782 0.62008 0.52045 0.0
C1483 C 0.59118 0.6475 0.49099 0.0
C1484 C 0.56595 0.64376 0.47975 0.0
H1485 H 0.6164 0.64023 0.51952 0.0
H1486 H 0.60634 0.66024 0.48485 0.0
S1487 S 0.50916 0.60285 0.4968 0.0
N1488 N 0.53294 0.6002 0.51637 0.0
N1489 N 0.52199 0.62194 0.47884 0.0
C1490 C 0.54699 0.62682 0.48823 0.0
C1491 C 0.55293 0.61499 0.5086 0.0
C1492 C 0.88522 0.80829 0.78306 0.0
C1493 C 0.87062 0.78612 0.78829 0.0
C1494 C 0.90425 0.80724 0.76579 0.0
C1495 C 0.90987 0.78395 0.75327 0.0
H1496 H 0.88224 0.8267 0.79264 0.0
H1497 H 0.91501 0.82475 0.76251 0.0
S1498 S 0.87668 0.72049 0.75874 0.0
N1499 N 0.86242 0.74018 0.77808 0.0
N1500 N 0.89898 0.7383 0.74652 0.0
C1501 C 0.89554 0.76167 0.75813 0.0
C1502 C 0.8758 0.76272 0.7754 0.0
C1503 C 0.08304 0.88417 0.54741 0.0
C1504 C 0.06589 0.90006 0.53846 0.0
C1505 C 0.07627 0.8708 0.56622 0.0
C1506 C 0.05206 0.87274 0.577 0.0
H1507 H 0.10128 0.88095 0.5389 0.0
H1508 H 0.0897 0.85801 0.57174 0.0
S1509 S 1.00098 0.91328 0.56148 0.0
N1510 N 0.02431 0.9182 0.54281 0.0
N1511 N 0.01161 0.89321 0.57834 0.0
C1512 C 0.03544 0.88984 0.56929 0.0
C1513 C 0.04235 0.90346 0.55 0.0
C1514 C 0.18864 0.73496 0.72106 0.0
C1515 C 0.19685 0.74407 0.74485 0.0
C1516 C 0.16392 0.73893 0.71181 0.0
C1517 C 0.14614 0.75189 0.726 0.0
H1518 H 0.20172 0.72515 0.70925 0.0
H1519 H 0.1588 0.73211 0.69324 0.0
S1520 S 0.15716 0.77855 0.78963 0.0
N1521 N 0.18465 0.76602 0.78262 0.0
N1522 N 0.13782 0.77296 0.76526 0.0
C1523 C 0.15346 0.76011 0.75007 0.0
C1524 C 0.17886 0.75628 0.7595 0.0
C1525 C 0.97095 0.6339 0.52731 0.0
C1526 C 0.97357 0.6091 0.53223 0.0
C1527 C 0.97662 0.65516 0.54483 0.0
C1528 C 0.9849 0.65252 0.56807 0.0
H1529 H 0.96394 0.63692 0.50987 0.0
H1530 H 0.974 0.6738 0.54025 0.0
S1531 S 0.99694 0.59221 0.58986 0.0
N1532 N 0.98666 0.58346 0.56185 0.0
N1533 N 0.99676 0.62338 0.59484 0.0
C1534 C 0.98795 0.62795 0.57322 0.0
C1535 C 0.98241 0.60629 0.55532 0.0
C1536 C 0.80233 0.87374 0.24063 0.0
C1537 C 0.81263 0.85342 0.22666 0.0
C1538 C 0.81739 0.89719 0.24727 0.0
C1539 C 0.84331 0.90127 0.24015 0.0
H1540 H 0.78242 0.8715 0.24644 0.0
H1541 H 0.80861 0.91232 0.25794 0.0
S1542 S 0.88028 0.8537 0.20516 0.0
N1543 N 0.85095 0.83859 0.2071 0.0
N1544 N 0.87909 0.88266 0.21939 0.0
C1545 C 0.85392 0.88109 0.22635 0.0
C1546 C 0.83864 0.8572 0.21965 0.0
C1547 C 0.81626 0.16097 0.3339 0.0
C1548 C 0.81607 0.17971 0.31877 0.0
C1549 C 0.83272 0.14117 0.33006 0.0
C1550 C 0.84946 0.13938 0.31091 0.0
H1551 H 0.80301 0.16112 0.34834 0.0
H1552 H 0.83184 0.1268 0.34174 0.0
S1553 S 0.85896 0.185 0.26791 0.0
N1554 N 0.83638 0.19635 0.28531 0.0
N1555 N 0.86632 0.15881 0.2778 0.0
C1556 C 0.85018 0.15839 0.29624 0.0
C1557 C 0.83378 0.17863 0.30025 0.0
C1558 C 0.39681 0.02008 0.98804 0.0
C1559 C 0.42035 0.02515 1.00214 0.0
C1560 C 0.37758 1.00072 0.99182 0.0
C1561 C 0.38134 0.98542 1.00959 0.0
H1562 H 0.39303 0.03149 0.97423 0.0
H1563 H 0.3597 0.99756 0.98063 0.0
S1564 S 0.43952 0.99075 0.05122 0.0
N1565 N 0.4463 0.01326 0.03458 0.0
N1566 N 0.41029 0.97664 0.04147 0.0
C1567 C 0.40485 0.99012 0.02368 0.0
C1568 C 0.42428 1.01006 0.02005 0.0
C1569 C 0.26941 0.39561 0.28713 0.0
C1570 C 0.25905 0.3784 0.30176 0.0
C1571 C 0.25303 0.41054 0.27595 0.0
C1572 C 0.22573 0.40886 0.27908 0.0
H1573 H 0.29045 0.39869 0.28554 0.0
H1574 H 0.26198 0.42432 0.26563 0.0
S1575 S 0.18911 0.36553 0.31485 0.0
N1576 N 0.21998 0.35947 0.31789 0.0
N1577 N 0.18916 0.38751 0.29715 0.0
C1578 C 0.21507 0.39063 0.29265 0.0
C1579 C 0.23176 0.37546 0.30398 0.0
C1580 C 0.12875 0.04874 0.48754 0.0
C1581 C 0.12957 0.02224 0.48284 0.0
C1582 C 0.15189 0.0655 0.49067 0.0
C1583 C 0.17683 0.05649 0.4889 0.0
H1584 H 0.11002 0.05661 0.48855 0.0
H1585 H 0.15021 0.08573 0.49386 0.0
S1586 S 0.18992 0.98884 0.47752 0.0
N1587 N 0.15756 0.98782 0.47695 0.0
N1588 N 0.20092 0.01923 0.48308 0.0
C1589 C 0.17795 0.03003 0.48464 0.0
C1590 C 0.1544 0.01296 0.48161 0.0
C1591 C 0.75396 0.1734 0.74923 0.0
C1592 C 0.77983 0.16961 0.74297 0.0
C1593 C 0.73523 0.1528 0.75073 0.0
C1594 C 0.74166 0.12761 0.74616 0.0
H1595 H 0.74835 0.19246 0.75375 0.0
H1596 H 0.71576 0.15665 0.75616 0.0
S1597 S 0.80568 0.10729 0.72644 0.0
N1598 N 0.81018 0.13862 0.73023 0.0
N1599 N 0.77507 0.09998 0.73326 0.0
C1600 C 0.76717 0.12352 0.73914 0.0
C1601 C 0.7862 0.14448 0.7375 0.0
C1602 C 0.45288 0.06843 0.55792 0.0
C1603 C 0.44744 0.04188 0.55555 0.0
C1604 C 0.43377 0.08383 0.55144 0.0
C1605 C 0.40857 0.07322 0.54232 0.0
H1606 H 0.47241 0.07719 0.56365 0.0
H1607 H 0.43917 0.10407 0.55259 0.0
S1608 S 0.38363 1.00498 0.53597 0.0
N1609 N 0.41454 1.00587 0.54558 0.0
N1610 N 0.3785 0.03467 0.53399 0.0
C1611 C 0.40254 0.04681 0.54125 0.0
C1612 C 0.42199 0.0312 0.5477 0.0
C1613 C 0.62669 0.4841 0.58714 0.0
C1614 C 0.61203 0.49515 0.57066 0.0
C1615 C 0.64553 0.4675 0.5798 0.0
C1616 C 0.65063 0.46111 0.55563 0.0
H1617 H 0.62417 0.48885 0.60599 0.0
H1618 H 0.65636 0.45975 0.59329 0.0
S1619 S 0.61681 0.48394 0.50515 0.0
N1620 N 0.60303 0.49743 0.52885 0.0
N1621 N 0.63893 0.46696 0.51515 0.0
C1622 C 0.6357 0.47157 0.53889 0.0
C1623 C 0.6164 0.48843 0.54637 0.0
C1624 C 0.79387 0.25916 0.38322 0.0
C1625 C 0.77179 0.24896 0.36829 0.0
C1626 C 0.79144 0.27608 0.40413 0.0
C1627 C 0.76685 0.28369 0.41091 0.0
H1628 H 0.81333 0.25461 0.37839 0.0
H1629 H 0.80905 0.28378 0.41477 0.0
S1630 S 0.70259 0.26045 0.37967 0.0
N1631 N 0.72419 0.24616 0.36307 0.0
N1632 N 0.7198 0.27828 0.40199 0.0
C1633 C 0.74456 0.27315 0.39655 0.0
C1634 C 0.74697 0.25574 0.37539 0.0
C1635 C 0.53844 0.06111 0.89834 0.0
C1636 C 0.51152 0.05294 0.89469 0.0
C1637 C 0.55654 0.05307 0.88152 0.0
C1638 C 0.54828 0.03666 0.86045 0.0
H1639 H 0.54533 0.07483 0.91366 0.0
H1640 H 0.5769 0.0608 0.88448 0.0
S1641 S 0.48025 1.00732 0.84439 0.0
N1642 N 0.47775 0.02598 0.86974 0.0
N1643 N 0.51164 1.01034 0.83842 0.0
C1644 C 0.52158 0.02721 0.85743 0.0
C1645 C 0.50324 0.0355 0.87446 0.0
C1646 C 0.32889 0.23371 0.35482 0.0
C1647 C 0.33241 0.26037 0.36024 0.0
C1648 C 0.32604 0.2182 0.37287 0.0
C1649 C 0.32689 0.2287 0.39708 0.0
H1650 H 0.32759 0.22478 0.33648 0.0
H1651 H 0.32308 0.1978 0.3678 0.0
S1652 S 0.33681 0.29747 0.42073 0.0
N1653 N 0.33784 0.29651 0.39168 0.0
N1654 N 0.33178 0.26762 0.42532 0.0
C1655 C 0.33096 0.25533 0.40269 0.0
C1656 C 0.33388 0.27105 0.38438 0.0
C1657 C 0.53912 0.48053 0.91148 0.0
C1658 C 0.54288 0.49898 0.93185 0.0
C1659 C 0.52402 0.48455 0.89152 0.0
C1660 C 0.51174 0.50699 0.8913 0.0
H1661 H 0.54852 0.46312 0.91073 0.0
H1662 H 0.52187 0.46994 0.87615 0.0
S1663 S 0.51504 0.56102 0.94025 0.0
N1664 N 0.53287 0.54042 0.95061 0.0
N1665 N 0.50423 0.54782 0.91327 0.0
C1666 C 0.51498 0.5254 0.91168 0.0
C1667 C 0.53064 0.52145 0.93187 0.0
C1668 C 0.78572 0.74991 0.16564 0.0
C1669 C 0.78123 0.77576 0.16792 0.0
C1670 C 0.78689 0.73529 0.1433 0.0
C1671 C 0.78403 0.74594 0.12227 0.0
H1672 H 0.78882 0.74092 0.18127 0.0
H1673 H 0.79054 0.71555 0.14249 0.0
S1674 S 0.77045 0.81206 0.11796 0.0
N1675 N 0.7725 0.8109 0.1468 0.0
N1676 N 0.77567 0.78351 0.10488 0.0
C1677 C 0.77947 0.77163 0.12413 0.0
C1678 C 0.77786 0.7865 0.1469 0.0
C1679 C 0.03723 0.01394 0.13552 0.0
C1680 C 0.05417 0.0354 0.1323 0.0
C1681 C 0.02239 0.01368 0.15591 0.0
C1682 C 0.02384 0.03488 0.17386 0.0
H1683 H 0.03492 0.99746 0.12191 0.0
H1684 H 1.0092 0.99694 0.15736 0.0
S1685 S 0.06773 0.09449 0.17552 0.0
N1686 N 0.07333 0.07747 0.15002 0.0
N1687 N 0.0453 0.07704 0.18793 0.0
C1688 C 0.04134 0.05609 0.17121 0.0
C1689 C 0.05653 0.05632 0.15059 0.0
C1690 C 0.31084 0.82222 0.1746 0.0
C1691 C 0.29958 0.79779 0.17737 0.0
C1692 C 0.30794 0.83184 0.15312 0.0
C1693 C 0.29383 0.81739 0.13341 0.0
H1694 H 0.32135 0.83434 0.18944 0.0
H1695 H 0.31637 0.851 0.15207 0.0
S1696 S 0.26155 0.75191 0.13087 0.0
N1697 N 0.27457 0.75897 0.15822 0.0
N1698 N 0.26936 0.77701 0.11764 0.0
C1699 C 0.28351 0.79249 0.1355 0.0
C1700 C 0.28636 0.78269 0.15751 0.0
C1701 C 0.0127 0.51112 0.12302 0.0
C1702 C 0.02431 0.51389 0.10134 0.0
C1703 C 0.02815 0.51083 0.14389 0.0
C1704 C 0.05581 0.51354 0.14396 0.0
H1705 H 0.99152 0.50869 0.12377 0.0
H1706 H 0.01834 0.50863 0.16015 0.0
S1707 S 0.09587 0.52199 0.09196 0.0
N1708 N 0.06521 0.52027 0.08147 0.0
N1709 N 0.09407 0.51896 0.12033 0.0
C1710 C 0.06762 0.51656 0.12243 0.0
C1711 C 0.05194 0.51691 0.10125 0.0
C1712 C 0.38524 0.69804 0.27567 0.0
C1713 C 0.37009 0.71878 0.27624 0.0
C1714 C 0.40717 0.69875 0.29134 0.0
C1715 C 0.41484 0.72022 0.3083 0.0
H1716 H 0.38005 0.68103 0.26303 0.0
H1717 H 0.41789 0.68215 0.29047 0.0
S1718 S 0.38248 0.77994 0.31676 0.0
N1719 N 0.36447 0.76148 0.29537 0.0
N1720 N 0.40633 0.76327 0.32387 0.0
C1721 C 0.40024 0.74131 0.30873 0.0
C1722 C 0.37777 0.7405 0.29294 0.0
C1723 C 0.03589 0.40402 0.99213 0.0
C1724 C 0.01523 0.41652 0.98391 0.0
C1725 C 0.03768 0.37818 0.98405 0.0
C1726 C 0.01873 0.36403 0.96766 0.0
H1727 H 0.05134 0.41454 1.00402 0.0
H1728 H 0.05434 0.36937 0.99018 0.0
S1729 S 0.96043 0.38823 0.94151 0.0
N1730 N 0.97516 0.413 0.95924 0.0
N1731 N 0.97837 0.36456 0.94401 0.0
C1732 C 0.99748 0.37625 0.96007 0.0
C1733 C 0.99579 0.40249 0.96818 0.0
C1734 C 0.69212 0.73639 0.29295 0.0
C1735 C 0.70315 0.76036 0.28861 0.0
C1736 C 0.66837 0.73358 0.30432 0.0
C1737 C 0.65468 0.75464 0.31195 0.0
H1738 H 0.70235 0.71972 0.28812 0.0
H1739 H 0.66127 0.71486 0.30804 0.0
S1740 S 0.67391 0.82123 0.30295 0.0
N1741 N 0.69778 0.80536 0.29158 0.0
N1742 N 0.65284 0.80004 0.31256 0.0
C1743 C 0.66485 0.77856 0.30673 0.0
C1744 C 0.68908 0.78142 0.29509 0.0
C1745 C 0.05208 0.1179 1.00827 0.0
C1746 C 0.07857 0.11982 0.01627 0.0
C1747 C 0.04448 0.12889 0.98835 0.0
C1748 C 0.06314 0.14197 0.97561 0.0
H1749 H 0.037 0.1092 0.01828 0.0
H1750 H 0.02377 0.12786 0.98334 0.0
S1751 S 0.13522 0.15074 0.98868 0.0
N1752 N 0.12357 0.13439 1.00925 0.0
N1753 N 0.10946 0.15513 0.97207 0.0
C1754 C 0.08982 0.14282 0.98281 0.0
C1755 C 0.09748 0.13173 1.00306 0.0
C1756 C 0.39735 0.28899 0.29198 0.0
C1757 C 0.3704 0.28779 0.28583 0.0
C1758 C 0.41619 0.28839 0.27456 0.0
C1759 C 0.4089 0.28625 0.25017 0.0
H1760 H 0.40399 0.29098 0.31047 0.0
H1761 H 0.43672 0.28999 0.28036 0.0
S1762 S 0.3404 0.28038 0.22479 0.0
N1763 N 0.33714 0.28346 0.25378 0.0
N1764 N 0.37229 0.28136 0.22093 0.0
C1765 C 0.38185 0.28452 0.24382 0.0
C1766 C 0.36271 0.2855 0.26163 0.0
C1767 C 0.58381 0.39064 0.04885 0.0
C1768 C 0.56541 0.40377 0.03784 0.0
C1769 C 0.57712 0.37739 0.06776 0.0
C1770 C 0.55169 0.37658 0.0765 0.0
H1771 H 0.60317 0.38946 0.04191 0.0
H1772 H 0.59171 0.36675 0.07494 0.0
S1773 S 0.49675 0.40926 0.05491 0.0
N1774 N 0.52113 0.41643 0.03796 0.0
N1775 N 0.50846 0.39151 0.07355 0.0
C1776 C 0.53356 0.39094 0.06664 0.0
C1777 C 0.54043 0.40451 0.0473 0.0
C1778 C 0.67941 0.26273 0.25671 0.0
C1779 C 0.69143 0.24103 0.24776 0.0
C1780 C 0.6547 0.26714 0.24745 0.0
C1781 C 0.64112 0.24991 0.22905 0.0
H1782 H 0.68975 0.27697 0.27008 0.0
H1783 H 0.64645 0.28449 0.2543 0.0
S1784 S 0.66411 0.18976 0.20027 0.0
N1785 N 0.68777 0.20178 0.22022 0.0
N1786 N 0.64151 0.20994 0.20279 0.0
C1787 C 0.6526 0.22764 0.22069 0.0
C1788 C 0.67772 0.22327 0.23004 0.0
C1789 C 0.46636 0.13438 0.02837 0.0
C1790 C 0.47031 0.10961 0.03252 0.0
C1791 C 0.47198 0.15533 0.0462 0.0
C1792 C 0.48197 0.15245 0.06888 0.0
H1793 H 0.45861 0.1376 0.01123 0.0
H1794 H 0.4688 0.17402 0.04206 0.0
S1795 S 0.4955 0.09165 0.08904 0.0
N1796 N 0.48473 0.08342 0.0611 0.0
N1797 N 0.49503 0.12277 0.09469 0.0
C1798 C 0.48591 0.12779 0.07334 0.0
C1799 C 0.48007 0.1064 0.05518 0.0
C1800 C 0.30585 0.36894 0.7162 0.0
C1801 C 0.30872 0.34803 0.72827 0.0
C1802 C 0.32061 0.3925 0.72348 0.0
C1803 C 0.33912 0.39582 0.7428 0.0
H1804 H 0.292 0.36709 0.7011 0.0
H1805 H 0.31793 0.40807 0.71363 0.0
S1806 S 0.35419 0.34702 0.78019 0.0
N1807 N 0.33154 0.33223 0.76043 0.0
N1808 N 0.35919 0.37632 0.77402 0.0
C1809 C 0.34212 0.37507 0.75499 0.0
C1810 C 0.32695 0.35124 0.74776 0.0
C1811 C 0.30093 0.6506 0.80526 0.0
C1812 C 0.30994 0.67361 0.81973 0.0
C1813 C 0.31712 0.63082 0.80057 0.0
C1814 C 0.34319 0.63317 0.80997 0.0
H1815 H 0.28122 0.64796 0.79719 0.0
H1816 H 0.30932 0.61379 0.78892 0.0
S1817 S 0.3761 0.68901 0.84983 0.0
N1818 N 0.34657 0.69727 0.84393 0.0
N1819 N 0.37679 0.66001 0.83551 0.0
C1820 C 0.35227 0.65583 0.82495 0.0
C1821 C 0.33572 0.67598 0.82979 0.0
C1822 C 0.90009 0.52945 0.51853 0.0
C1823 C 0.92204 0.52428 0.50508 0.0
C1824 C 0.88079 0.51004 0.52202 0.0
C1825 C 0.88255 0.48458 0.51223 0.0
H1826 H 0.8974 0.54878 0.52593 0.0
H1827 H 0.86423 0.51508 0.53241 0.0
S1828 S 0.93659 0.46075 0.47625 0.0
N1829 N 0.94498 0.4916 0.48277 0.0
N1830 N 0.90833 0.45527 0.48866 0.0
C1831 C 0.90465 0.47906 0.49909 0.0
C1832 C 0.92439 0.49884 0.49563 0.0
C1833 C 0.76607 0.8906 0.78775 0.0
C1834 C 0.75611 0.87518 0.8041 0.0
C1835 C 0.74969 0.9054 0.77636 0.0
C1836 C 0.72275 0.90532 0.78093 0.0
H1837 H 0.78693 0.89243 0.78486 0.0
H1838 H 0.7584 0.91781 0.76463 0.0
S1839 S 0.68711 0.86692 0.82152 0.0
N1840 N 0.71766 0.85962 0.82345 0.0
N1841 N 0.68689 0.88738 0.80232 0.0
C1842 C 0.7124 0.88885 0.79633 0.0
C1843 C 0.72908 0.87386 0.80788 0.0
C1844 C 0.63818 0.53474 1.00143 0.0
C1845 C 0.62774 0.52503 0.97843 0.0
C1846 C 0.6612 0.55173 1.005 0.0
C1847 C 0.67487 0.55948 0.98571 0.0
H1848 H 0.62823 0.52952 0.01679 0.0
H1849 H 0.66844 0.55874 0.02304 0.0
S1850 S 0.65617 0.5388 0.92188 0.0
N1851 N 0.63352 0.52362 0.93605 0.0
N1852 N 0.67605 0.55595 0.94273 0.0
C1853 C 0.66476 0.54961 0.96263 0.0
C1854 C 0.64143 0.53233 0.95901 0.0
C1855 C 0.2578 0.67548 0.24907 0.0
C1856 C 0.28405 0.67168 0.24421 0.0
C1857 C 0.23898 0.65495 0.2505 0.0
C1858 C 0.2457 0.62982 0.24731 0.0
H1859 H 0.25186 0.69452 0.25245 0.0
H1860 H 0.21915 0.65881 0.25472 0.0
S1861 S 0.31097 0.60933 0.23192 0.0
N1862 N 0.31523 0.64062 0.23447 0.0
N1863 N 0.27994 0.60211 0.23752 0.0
C1864 C 0.27167 0.62567 0.24189 0.0
C1865 C 0.2908 0.64655 0.24026 0.0
C1866 C 0.95349 0.56957 0.06041 0.0
C1867 C 0.94965 0.54299 0.05446 0.0
C1868 C 0.93392 0.58497 0.05496 0.0
C1869 C 0.90971 0.57436 0.04356 0.0
H1870 H 0.97212 0.57858 0.06844 0.0
H1871 H 0.9379 0.60538 0.05945 0.0
S1872 S 0.88966 0.50559 0.02527 0.0
N1873 N 0.91947 0.50665 0.03757 0.0
N1874 N 0.88302 0.53541 0.02701 0.0
C1875 C 0.90542 0.54772 0.03823 0.0
C1876 C 0.92529 0.53212 0.04375 0.0
C1877 C 0.13468 0.99199 0.08818 0.0
C1878 C 0.116 0.99874 0.07208 0.0
C1879 C 0.15349 0.97546 0.08056 0.0
C1880 C 0.15419 0.96465 0.05657 0.0
H1881 H 0.13529 1.00019 0.10672 0.0
H1882 H 0.16777 0.97123 0.09354 0.0
S1883 S 0.10898 0.97532 1.00747 0.0
N1884 N 0.09895 0.99271 0.03114 0.0
N1885 N 0.1341 0.96151 0.01688 0.0
C1886 C 0.13519 0.97069 0.04041 0.0
C1887 C 0.11623 0.98778 0.04812 0.0
loop_
_geom_bond_atom_site_label_1
_geom_bond_atom_site_label_2
_geom_bond_distance
_geom_bond_site_symmetry_2
_ccdc_geom_bond_type
H0 C1 0.949 . S
C1 H0 0.949 . S
C1 C2 1.395 . S
C1 C3 1.391 . S
C2 C1 1.395 . S
C2 C5 1.390 . S
C3 C1 1.391 . S
C3 C7 1.387 . S
C3 C8 1.491 . S
H4 C5 0.950 1_565 S
C5 C2 1.390 . S
C5 H4 0.950 1_545 S
C5 C6 1.378 . S
C6 C5 1.378 . S
C6 C7 1.409 . S
C7 C3 1.387 . S
C7 C6 1.409 . S
C7 H9 0.951 . S
C8 C3 1.491 . S
C8 C10 1.382 . S
C8 C12 1.404 . S
H9 C7 0.951 . S
C10 C8 1.382 . S
C10 C11 1.365 1_554 S
C10 H15 0.949 . S
C11 C10 1.365 1_556 S
C11 C16 1.382 1_556 S
C12 C8 1.404 . S
C12 H13 0.950 . S
C12 C14 1.375 . S
H13 C12 0.950 . S
C14 C12 1.375 . S
C14 C16 1.382 . S
C14 H18 0.950 . S
H15 C10 0.949 . S
C16 C11 1.382 1_554 S
C16 C14 1.382 . S
C16 H17 0.952 . S
H17 C16 0.952 . S
H18 C14 0.950 . S
H19 C20 0.949 . S
C20 H19 0.949 . S
C20 C21 1.395 . S
C20 C22 1.391 . S
C21 C20 1.395 . S
C21 C24 1.390 . S
C22 C20 1.391 . S
C22 C26 1.387 . S
C22 C27 1.491 . S
H23 C24 0.950 . S
C24 C21 1.390 . S
C24 H23 0.950 . S
C24 C25 1.378 . S
C25 C24 1.378 . S
C25 C26 1.409 . S
C26 C22 1.387 . S
C26 C25 1.409 . S
C26 H28 0.951 . S
C27 C22 1.491 . S
C27 C29 1.382 . S
C27 C31 1.404 . S
H28 C26 0.951 . S
C29 C27 1.382 . S
C29 C30 1.390 . S
C29 H34 0.949 . S
C30 C29 1.390 . S
C30 C35 1.399 . S
C31 C27 1.404 . S
C31 H32 0.950 . S
C31 C33 1.375 . S
H32 C31 0.950 . S
C33 C31 1.375 . S
C33 C35 1.382 . S
C33 H37 0.950 . S
H34 C29 0.949 . S
C35 C30 1.399 . S
C35 C33 1.382 . S
C35 H36 0.952 . S
H36 C35 0.952 . S
H37 C33 0.950 . S
H38 C39 0.949 . S
C39 H38 0.949 . S
C39 C40 1.395 . S
C39 C41 1.391 1_455 S
C40 C39 1.395 . S
C40 C43 1.390 1_455 S
C41 C39 1.391 1_655 S
C41 C45 1.387 . S
C41 C46 1.487 1_654 S
H42 C43 0.950 . S
C43 C40 1.390 1_655 S
C43 H42 0.950 . S
C43 C44 1.378 . S
C44 C43 1.378 . S
C44 C45 1.409 . S
C45 C41 1.387 . S
C45 C44 1.409 . S
C45 H47 0.951 1_554 S
C46 C41 1.487 1_456 S
C46 C48 1.387 . S
C46 C50 1.404 . S
H47 C45 0.951 1_556 S
C48 C46 1.387 . S
C48 C49 1.390 . S
C48 H53 0.949 1_556 S
C49 C48 1.390 . S
C49 C54 1.399 . S
C50 C46 1.404 . S
C50 H51 0.947 1_455 S
C50 C52 1.378 . S
H51 C50 0.947 1_655 S
C52 C50 1.378 . S
C52 C54 1.382 . S
C52 H56 0.950 . S
H53 C48 0.949 1_554 S
C54 C49 1.399 . S
C54 C52 1.382 . S
C54 H55 0.952 . S
H55 C54 0.952 . S
H56 C52 0.950 . S
H57 C58 0.949 . S
C58 H57 0.949 . S
C58 C59 1.395 . S
C58 C60 1.391 . S
C59 C58 1.395 . S
C59 C62 1.390 . S
C60 C58 1.391 . S
C60 C64 1.387 . S
C60 C65 1.491 . S
H61 C62 0.950 . S
C62 C59 1.390 . S
C62 H61 0.950 . S
C62 C63 1.378 . S
C63 C62 1.378 . S
C63 C64 1.409 . S
C64 C60 1.387 . S
C64 C63 1.409 . S
C64 H66 0.951 . S
C65 C60 1.491 . S
C65 C67 1.382 . S
C65 C69 1.404 . S
H66 C64 0.951 . S
C67 C65 1.382 . S
C67 C68 1.390 . S
C67 H72 0.949 . S
C68 C67 1.390 . S
C68 C73 1.399 . S
C69 C65 1.404 . S
C69 H70 0.950 . S
C69 C71 1.375 . S
H70 C69 0.950 . S
C71 C69 1.375 . S
C71 C73 1.382 . S
C71 H75 0.950 . S
H72 C67 0.949 . S
C73 C68 1.399 . S
C73 C71 1.382 . S
C73 H74 0.952 . S
H74 C73 0.952 . S
H75 C71 0.950 . S
H76 C77 0.949 . S
C77 H76 0.949 . S
C77 C78 1.395 . S
C77 C79 1.391 . S
C78 C77 1.395 . S
C78 C81 1.389 1_565 S
C79 C77 1.391 . S
C79 C83 1.387 . S
C79 C84 1.491 . S
H80 C81 0.953 . S
C81 C78 1.389 1_545 S
C81 H80 0.953 . S
C81 C82 1.377 1_545 S
C82 C81 1.377 1_565 S
C82 C83 1.409 . S
C83 C79 1.387 . S
C83 C82 1.409 . S
C83 H85 0.951 . S
C84 C79 1.491 . S
C84 C86 1.382 . S
C84 C88 1.404 . S
H85 C83 0.951 . S
C86 C84 1.382 . S
C86 C87 1.390 . S
C86 H91 0.949 . S
C87 C86 1.390 . S
C87 C92 1.399 . S
C88 C84 1.404 . S
C88 H89 0.950 . S
C88 C90 1.375 . S
H89 C88 0.950 . S
C90 C88 1.375 . S
C90 C92 1.382 . S
C90 H94 0.950 . S
H91 C86 0.949 . S
C92 C87 1.399 . S
C92 C90 1.382 . S
C92 H93 0.952 . S
H93 C92 0.952 . S
H94 C90 0.950 . S
H95 C96 0.949 . S
C96 H95 0.949 . S
C96 C97 1.395 . S
C96 C98 1.391 . S
C97 C96 1.395 . S
C97 C100 1.390 . S
C98 C96 1.391 . S
C98 C102 1.387 . S
C98 C103 1.491 . S
H99 C100 0.950 . S
C100 C97 1.390 . S
C100 H99 0.950 . S
C100 C101 1.378 . S
C101 C100 1.378 . S
C101 C102 1.409 . S
C102 C98 1.387 . S
C102 C101 1.409 . S
C102 H104 0.951 . S
C103 C98 1.491 . S
C103 C105 1.382 . S
C103 C107 1.404 . S
H104 C102 0.951 . S
C105 C103 1.382 . S
C105 C106 1.390 . S
C105 H110 0.949 . S
C106 C105 1.390 . S
C106 C111 1.399 . S
C107 C103 1.404 . S
C107 H108 0.950 . S
C107 C109 1.375 . S
H108 C107 0.950 . S
C109 C107 1.375 . S
C109 C111 1.382 . S
C109 H113 0.950 . S
H110 C105 0.949 . S
C111 C106 1.399 . S
C111 C109 1.382 . S
C111 H112 0.952 . S
H112 C111 0.952 . S
H113 C109 0.950 . S
H114 C115 0.949 . S
C115 H114 0.949 . S
C115 C116 1.395 . S
C115 C117 1.391 . S
C116 C115 1.395 . S
C116 C119 1.390 . S
C117 C115 1.391 . S
C117 C121 1.387 . S
C117 C122 1.491 . S
H118 C119 0.950 . S
C119 C116 1.390 . S
C119 H118 0.950 . S
C119 C120 1.378 . S
C120 C119 1.378 . S
C120 C121 1.409 . S
C121 C117 1.387 . S
C121 C120 1.409 . S
C121 H123 0.951 . S
C122 C117 1.491 . S
C122 C124 1.368 1_655 S
C122 C126 1.404 . S
H123 C121 0.951 . S
C124 C122 1.368 1_455 S
C124 C125 1.394 . S
C124 H129 0.958 . S
C125 C124 1.394 . S
C125 C130 1.399 1_455 S
C126 C122 1.404 . S
C126 H127 0.950 . S
C126 C128 1.375 . S
H127 C126 0.950 . S
C128 C126 1.375 . S
C128 C130 1.382 . S
C128 H132 0.950 . S
H129 C124 0.958 . S
C130 C125 1.399 1_655 S
C130 C128 1.382 . S
C130 H131 0.952 . S
H131 C130 0.952 . S
H132 C128 0.950 . S
H133 C134 0.949 . S
C134 H133 0.949 . S
C134 C135 1.395 . S
C134 C136 1.391 . S
C135 C134 1.395 . S
C135 C138 1.390 . S
C136 C134 1.391 . S
C136 C140 1.387 . S
C136 C141 1.491 . S
H137 C138 0.950 . S
C138 C135 1.390 . S
C138 H137 0.950 . S
C138 C139 1.378 . S
C139 C138 1.378 . S
C139 C140 1.409 . S
C140 C136 1.387 . S
C140 C139 1.409 . S
C140 H142 0.951 . S
C141 C136 1.491 . S
C141 C143 1.382 . S
C141 C145 1.404 . S
H142 C140 0.951 . S
C143 C141 1.382 . S
C143 C144 1.390 . S
C143 H148 0.949 . S
C144 C143 1.390 . S
C144 C149 1.399 . S
C145 C141 1.404 . S
C145 H146 0.950 . S
C145 C147 1.375 . S
H146 C145 0.950 . S
C147 C145 1.375 . S
C147 C149 1.382 . S
C147 H151 0.950 . S
H148 C143 0.949 . S
C149 C144 1.399 . S
C149 C147 1.382 . S
C149 H150 0.952 . S
H150 C149 0.952 . S
H151 C147 0.950 . S
H152 C153 0.949 . S
C153 H152 0.949 . S
C153 C154 1.395 . S
C153 C155 1.391 . S
C154 C153 1.395 . S
C154 C157 1.390 . S
C155 C153 1.391 . S
C155 C159 1.387 . S
C155 C160 1.491 . S
H156 C157 0.950 . S
C157 C154 1.390 . S
C157 H156 0.950 . S
C157 C158 1.378 . S
C158 C157 1.378 . S
C158 C159 1.409 . S
C159 C155 1.387 . S
C159 C158 1.409 . S
C159 H161 0.951 . S
C160 C155 1.491 . S
C160 C162 1.382 . S
C160 C164 1.404 . S
H161 C159 0.951 . S
C162 C160 1.382 . S
C162 C163 1.390 . S
C162 H167 0.949 . S
C163 C162 1.390 . S
C163 C168 1.399 . S
C164 C160 1.404 . S
C164 H165 0.950 . S
C164 C166 1.375 . S
H165 C164 0.950 . S
C166 C164 1.375 . S
C166 C168 1.382 . S
C166 H170 0.950 . S
H167 C162 0.949 . S
C168 C163 1.399 . S
C168 C166 1.382 . S
C168 H169 0.952 . S
H169 C168 0.952 . S
H170 C166 0.950 . S
H171 C172 0.949 . S
C172 H171 0.949 . S
C172 C173 1.395 . S
C172 C174 1.391 . S
C173 C172 1.395 . S
C173 C176 1.390 1_565 S
C174 C172 1.391 . S
C174 C178 1.387 . S
C174 C179 1.491 . S
H175 C176 0.950 . S
C176 C173 1.390 1_545 S
C176 H175 0.950 . S
C176 C177 1.378 . S
C177 C176 1.378 . S
C177 C178 1.409 1_545 S
C178 C174 1.387 . S
C178 C177 1.409 1_565 S
C178 H180 0.951 . S
C179 C174 1.491 . S
C179 C181 1.382 . S
C179 C183 1.404 . S
H180 C178 0.951 . S
C181 C179 1.382 . S
C181 C182 1.390 . S
C181 H186 0.949 . S
C182 C181 1.390 . S
C182 C187 1.399 . S
C183 C179 1.404 . S
C183 H184 0.950 . S
C183 C185 1.375 . S
H184 C183 0.950 . S
C185 C183 1.375 . S
C185 C187 1.382 . S
C185 H189 0.950 . S
H186 C181 0.949 . S
C187 C182 1.399 . S
C187 C185 1.382 . S
C187 H188 0.952 . S
H188 C187 0.952 . S
H189 C185 0.950 . S
H190 C191 0.949 . S
C191 H190 0.949 . S
C191 C192 1.395 . S
C191 C193 1.391 . S
C192 C191 1.395 . S
C192 C195 1.390 . S
C193 C191 1.391 . S
C193 C197 1.387 . S
C193 C198 1.491 . S
H194 C195 0.950 . S
C195 C192 1.390 . S
C195 H194 0.950 . S
C195 C196 1.378 . S
C196 C195 1.378 . S
C196 C197 1.409 . S
C197 C193 1.387 . S
C197 C196 1.409 . S
C197 H199 0.951 . S
C198 C193 1.491 . S
C198 C200 1.382 . S
C198 C202 1.404 . S
H199 C197 0.951 . S
C200 C198 1.382 . S
C200 C201 1.390 . S
C200 H205 0.949 . S
C201 C200 1.390 . S
C201 C206 1.399 . S
C202 C198 1.404 . S
C202 H203 0.950 . S
C202 C204 1.375 . S
H203 C202 0.950 . S
C204 C202 1.375 . S
C204 C206 1.382 . S
C204 H208 0.950 . S
H205 C200 0.949 . S
C206 C201 1.399 . S
C206 C204 1.382 . S
C206 H207 0.952 . S
H207 C206 0.952 . S
H208 C204 0.950 . S
H209 C210 0.949 . S
C210 H209 0.949 . S
C210 C211 1.395 . S
C210 C212 1.391 . S
C211 C210 1.395 . S
C211 C214 1.390 . S
C212 C210 1.391 . S
C212 C216 1.387 . S
C212 C217 1.491 . S
H213 C214 0.950 . S
C214 C211 1.390 . S
C214 H213 0.950 . S
C214 C215 1.378 . S
C215 C214 1.378 . S
C215 C216 1.409 . S
C216 C212 1.387 . S
C216 C215 1.409 . S
C216 H218 0.951 . S
C217 C212 1.491 . S
C217 C219 1.382 . S
C217 C221 1.404 . S
H218 C216 0.951 . S
C219 C217 1.382 . S
C219 C220 1.390 . S
C219 H224 0.949 . S
C220 C219 1.390 . S
C220 C225 1.399 . S
C221 C217 1.404 . S
C221 H222 0.950 . S
C221 C223 1.375 . S
H222 C221 0.950 . S
C223 C221 1.375 . S
C223 C225 1.382 . S
C223 H227 0.950 . S
H224 C219 0.949 . S
C225 C220 1.399 . S
C225 C223 1.382 . S
C225 H226 0.952 . S
H226 C225 0.952 . S
H227 C223 0.950 . S
H228 C229 0.949 . S
C229 H228 0.949 . S
C229 C230 1.395 . S
C229 C231 1.391 . S
C230 C229 1.395 . S
C230 C233 1.390 . S
C231 C229 1.391 . S
C231 C235 1.387 . S
C231 C236 1.491 . S
H232 C233 0.950 . S
C233 C230 1.390 . S
C233 H232 0.950 . S
C233 C234 1.378 . S
C234 C233 1.378 . S
C234 C235 1.409 . S
C235 C231 1.387 . S
C235 C234 1.409 . S
C235 H237 0.951 . S
C236 C231 1.491 . S
C236 C238 1.382 . S
C236 C240 1.404 . S
H237 C235 0.951 . S
C238 C236 1.382 . S
C238 C239 1.390 . S
C238 H243 0.949 . S
C239 C238 1.390 . S
C239 C244 1.399 . S
C240 C236 1.404 . S
C240 H241 0.950 . S
C240 C242 1.375 . S
H241 C240 0.950 . S
C242 C240 1.375 . S
C242 C244 1.382 . S
C242 H246 0.950 . S
H243 C238 0.949 . S
C244 C239 1.399 . S
C244 C242 1.382 . S
C244 H245 0.952 . S
H245 C244 0.952 . S
H246 C242 0.950 . S
H247 C248 0.924 1_554 S
C248 H247 0.924 1_556 S
C248 C249 1.411 . S
C248 C250 1.400 . S
C249 C248 1.411 . S
C249 C252 1.390 . S
C250 C248 1.400 . S
C250 C254 1.387 . S
C250 C255 1.491 . S
H251 C252 0.950 . S
C252 C249 1.390 . S
C252 H251 0.950 . S
C252 C253 1.378 . S
C253 C252 1.378 . S
C253 C254 1.409 . S
C254 C250 1.387 . S
C254 C253 1.409 . S
C254 H256 0.951 . S
C255 C250 1.491 . S
C255 C257 1.382 1_556 S
C255 C259 1.404 . S
H256 C254 0.951 . S
C257 C255 1.382 1_554 S
C257 C258 1.390 . S
C257 H262 0.949 . S
C258 C257 1.390 . S
C258 C263 1.399 . S
C259 C255 1.404 . S
C259 H260 0.950 . S
C259 C261 1.375 . S
H260 C259 0.950 . S
C261 C259 1.375 . S
C261 C263 1.382 1_556 S
C261 H265 0.950 . S
H262 C257 0.949 . S
C263 C258 1.399 . S
C263 C261 1.382 1_554 S
C263 H264 0.952 . S
H264 C263 0.952 . S
H265 C261 0.950 . S
H266 C267 0.949 . S
C267 H266 0.949 . S
C267 C268 1.395 . S
C267 C269 1.391 . S
C268 C267 1.395 . S
C268 C271 1.390 . S
C269 C267 1.391 . S
C269 C273 1.387 . S
C269 C274 1.491 . S
H270 C271 0.950 . S
C271 C268 1.390 . S
C271 H270 0.950 . S
C271 C272 1.378 . S
C272 C271 1.378 . S
C272 C273 1.409 . S
C273 C269 1.387 . S
C273 C272 1.409 . S
C273 H275 0.951 . S
C274 C269 1.491 . S
C274 C276 1.382 . S
C274 C278 1.404 . S
H275 C273 0.951 . S
C276 C274 1.382 . S
C276 C277 1.390 . S
C276 H281 0.949 . S
C277 C276 1.390 . S
C277 C282 1.399 . S
C278 C274 1.404 . S
C278 H279 0.950 . S
C278 C280 1.375 . S
H279 C278 0.950 . S
C280 C278 1.375 . S
C280 C282 1.382 . S
C280 H284 0.950 . S
H281 C276 0.949 . S
C282 C277 1.399 . S
C282 C280 1.382 . S
C282 H283 0.952 . S
H283 C282 0.952 . S
H284 C280 0.950 . S
H285 C286 0.949 . S
C286 H285 0.949 . S
C286 C287 1.395 . S
C286 C288 1.391 . S
C287 C286 1.395 . S
C287 C290 1.390 . S
C288 C286 1.391 . S
C288 C292 1.387 . S
C288 C293 1.491 . S
H289 C290 0.950 1_554 S
C290 C287 1.390 . S
C290 H289 0.950 1_556 S
C290 C291 1.378 . S
C291 C290 1.378 . S
C291 C292 1.409 . S
C292 C288 1.387 . S
C292 C291 1.409 . S
C292 H294 0.951 . S
C293 C288 1.491 . S
C293 C295 1.382 . S
C293 C297 1.404 . S
H294 C292 0.951 . S
C295 C293 1.382 . S
C295 C296 1.390 . S
C295 H300 0.949 . S
C296 C295 1.390 . S
C296 C301 1.399 . S
C297 C293 1.404 . S
C297 H298 0.950 . S
C297 C299 1.375 . S
H298 C297 0.950 . S
C299 C297 1.375 . S
C299 C301 1.382 . S
C299 H303 0.950 . S
H300 C295 0.949 . S
C301 C296 1.399 . S
C301 C299 1.382 . S
C301 H302 0.952 . S
H302 C301 0.952 . S
H303 C299 0.950 . S
Li304 N321 1.990 . S
Li304 O364 1.956 . S
Li304 O365 1.970 . S
Li304 O366 1.961 . S
Li305 N329 1.990 . S
Li305 O364 1.970 . S
Li305 O365 1.956 . S
Li305 O367 1.961 . S
Li306 N351 1.990 1_554 S
Li306 O364 1.961 . S
Li306 O366 1.956 . S
Li306 O367 1.970 . S
Li307 N357 1.990 . S
Li307 O365 1.961 . S
Li307 O366 1.970 . S
Li307 O367 1.956 . S
C308 C310 1.348 . S
C308 C311 1.356 . S
C308 O364 1.325 . S
N309 C312 1.314 . S
N309 C313 1.279 . S
C310 C308 1.348 . S
C310 C312 1.353 . S
C310 H368 0.929 . S
C311 C308 1.356 . S
C311 C313 1.358 . S
C311 H369 0.930 1_554 S
C312 N309 1.314 . S
C312 C310 1.353 . S
C312 H370 0.930 . S
C313 N309 1.279 . S
C313 C311 1.358 . S
C313 H371 0.930 1_554 S
C314 C317 1.348 . S
C314 C318 1.356 . S
C314 O365 1.325 . S
C315 N316 1.279 . S
C315 C318 1.358 . S
C315 H372 0.930 . S
N316 C315 1.279 . S
N316 C319 1.314 . S
C317 C314 1.348 . S
C317 C319 1.353 . S
C317 H373 0.929 . S
C318 C314 1.356 . S
C318 C315 1.358 . S
C318 H374 0.930 . S
C319 N316 1.314 . S
C319 C317 1.353 . S
C319 H375 0.930 . S
C320 N321 1.314 . S
C320 C325 1.353 . S
C320 H326 0.930 . S
N321 Li304 1.990 . S
N321 C320 1.314 . S
N321 C323 1.279 . S
C322 C323 1.358 . S
C322 C324 1.356 . S
C322 H376 0.930 . S
C323 N321 1.279 . S
C323 C322 1.358 . S
C323 H327 0.930 . S
C324 C322 1.356 . S
C324 C325 1.348 . S
C325 C320 1.353 . S
C325 C324 1.348 . S
C325 H377 0.929 . S
H326 C320 0.930 . S
H327 C323 0.930 . S
C328 N329 1.314 . S
C328 C330 1.353 . S
C328 H334 0.930 . S
N329 Li305 1.990 . S
N329 C328 1.314 . S
N329 C332 1.279 . S
C330 C328 1.353 . S
C330 C333 1.348 . S
C330 H378 0.929 . S
C331 C332 1.358 . S
C331 C333 1.356 . S
C331 H379 0.930 . S
C332 N329 1.279 . S
C332 C331 1.358 . S
C332 H335 0.930 . S
C333 C330 1.348 . S
C333 C331 1.356 . S
H334 C328 0.930 . S
H335 C332 0.930 . S
C336 C338 1.348 . S
C336 C339 1.356 . S
C336 O366 1.325 1_556 S
N337 C340 1.314 . S
N337 C341 1.279 . S
C338 C336 1.348 . S
C338 C340 1.353 . S
C338 H380 0.929 . S
C339 C336 1.356 . S
C339 C341 1.358 . S
C339 H381 0.930 . S
C340 N337 1.314 . S
C340 C338 1.353 . S
C340 H382 0.930 . S
C341 N337 1.279 . S
C341 C339 1.358 . S
C341 H383 0.930 . S
C342 C343 1.348 . S
C342 C344 1.356 . S
C342 O367 1.325 . S
C343 C342 1.348 . S
C343 C345 1.353 . S
C343 H384 0.929 . S
C344 C342 1.356 . S
C344 C346 1.358 . S
C344 H385 0.930 . S
C345 C343 1.353 . S
C345 N347 1.314 . S
C345 H386 0.930 . S
C346 C344 1.358 . S
C346 N347 1.279 . S
C346 H387 0.930 . S
N347 C345 1.314 . S
N347 C346 1.279 . S
C348 C350 1.353 . S
C348 N351 1.314 . S
C348 H354 0.930 . S
C349 N351 1.279 . S
C349 C352 1.358 . S
C349 H355 0.930 . S
C350 C348 1.353 . S
C350 C353 1.348 . S
C350 H388 0.929 . S
N351 Li306 1.990 1_556 S
N351 C348 1.314 . S
N351 C349 1.279 . S
C352 C349 1.358 . S
C352 C353 1.356 . S
C352 H389 0.930 . S
C353 C350 1.348 . S
C353 C352 1.356 . S
H354 C348 0.930 . S
H355 C349 0.930 . S
C356 N357 1.314 . S
C356 C358 1.353 . S
C356 H362 0.930 . S
N357 Li307 1.990 . S
N357 C356 1.314 . S
N357 C360 1.279 . S
C358 C356 1.353 . S
C358 C361 1.348 . S
C358 H390 0.929 . S
C359 C360 1.358 . S
C359 C361 1.356 . S
C359 H391 0.930 . S
C360 N357 1.279 . S
C360 C359 1.358 . S
C360 H363 0.930 . S
C361 C358 1.348 . S
C361 C359 1.356 . S
H362 C356 0.930 . S
H363 C360 0.930 . S
O364 Li304 1.956 . S
O364 Li305 1.970 . S
O364 Li306 1.961 . S
O364 C308 1.325 . S
O365 Li304 1.970 . S
O365 Li305 1.956 . S
O365 Li307 1.961 . S
O365 C314 1.325 . S
O366 Li304 1.961 . S
O366 Li306 1.956 . S
O366 Li307 1.970 . S
O366 C336 1.325 1_554 S
O367 Li305 1.961 . S
O367 Li306 1.970 . S
O367 Li307 1.956 . S
O367 C342 1.325 . S
H368 C310 0.929 . S
H369 C311 0.930 1_556 S
H370 C312 0.930 . S
H371 C313 0.930 1_556 S
H372 C315 0.930 . S
H373 C317 0.929 . S
H374 C318 0.930 . S
H375 C319 0.930 . S
H376 C322 0.930 . S
H377 C325 0.929 . S
H378 C330 0.929 . S
H379 C331 0.930 . S
H380 C338 0.929 . S
H381 C339 0.930 . S
H382 C340 0.930 . S
H383 C341 0.930 . S
H384 C343 0.929 . S
H385 C344 0.930 . S
H386 C345 0.930 . S
H387 C346 0.930 . S
H388 C350 0.929 . S
H389 C352 0.930 . S
H390 C358 0.929 . S
H391 C359 0.930 . S
Li392 N409 1.990 . S
Li392 O452 1.956 . S
Li392 O453 1.970 . S
Li392 O454 1.961 . S
Li393 N417 1.990 . S
Li393 O452 1.970 . S
Li393 O453 1.956 . S
Li393 O455 1.961 . S
Li394 N439 1.990 . S
Li394 O452 1.961 . S
Li394 O454 1.956 . S
Li394 O455 1.970 . S
Li395 N445 1.990 . S
Li395 O453 1.961 . S
Li395 O454 1.970 . S
Li395 O455 1.956 . S
C396 C398 1.348 . S
C396 C399 1.356 . S
C396 O452 1.325 . S
N397 C400 1.314 . S
N397 C401 1.279 . S
C398 C396 1.348 . S
C398 C400 1.353 . S
C398 H456 0.929 . S
C399 C396 1.356 . S
C399 C401 1.358 . S
C399 H457 0.930 . S
C400 N397 1.314 . S
C400 C398 1.353 . S
C400 H458 0.930 . S
C401 N397 1.279 . S
C401 C399 1.358 . S
C401 H459 0.930 . S
C402 C405 1.348 . S
C402 C406 1.356 . S
C402 O453 1.325 . S
C403 N404 1.279 . S
C403 C406 1.358 . S
C403 H460 0.930 . S
N404 C403 1.279 . S
N404 C407 1.314 . S
C405 C402 1.348 . S
C405 C407 1.353 . S
C405 H461 0.929 . S
C406 C402 1.356 . S
C406 C403 1.358 . S
C406 H462 0.930 . S
C407 N404 1.314 . S
C407 C405 1.353 . S
C407 H463 0.930 . S
C408 N409 1.314 . S
C408 C413 1.353 . S
C408 H414 0.930 . S
N409 Li392 1.990 . S
N409 C408 1.314 . S
N409 C411 1.279 . S
C410 C411 1.358 . S
C410 C412 1.356 . S
C410 H464 0.930 . S
C411 N409 1.279 . S
C411 C410 1.358 . S
C411 H415 0.930 . S
C412 C410 1.356 . S
C412 C413 1.348 . S
C413 C408 1.353 . S
C413 C412 1.348 . S
C413 H465 0.929 . S
H414 C408 0.930 . S
H415 C411 0.930 . S
C416 N417 1.314 . S
C416 C418 1.353 . S
C416 H422 0.930 . S
N417 Li393 1.990 . S
N417 C416 1.314 . S
N417 C420 1.279 . S
C418 C416 1.353 . S
C418 C421 1.348 . S
C418 H466 0.929 . S
C419 C420 1.358 . S
C419 C421 1.356 . S
C419 H467 0.930 . S
C420 N417 1.279 . S
C420 C419 1.358 . S
C420 H423 0.930 . S
C421 C418 1.348 . S
C421 C419 1.356 . S
H422 C416 0.930 . S
H423 C420 0.930 . S
C424 C426 1.348 . S
C424 C427 1.356 . S
C424 O454 1.325 . S
N425 C428 1.314 . S
N425 C429 1.279 . S
C426 C424 1.348 . S
C426 C428 1.353 . S
C426 H468 0.929 . S
C427 C424 1.356 . S
C427 C429 1.358 . S
C427 H469 0.930 . S
C428 N425 1.314 . S
C428 C426 1.353 . S
C428 H470 0.930 . S
C429 N425 1.279 . S
C429 C427 1.358 . S
C429 H471 0.930 . S
C430 C431 1.348 . S
C430 C432 1.356 . S
C430 O455 1.325 . S
C431 C430 1.348 . S
C431 C433 1.353 . S
C431 H472 0.929 . S
C432 C430 1.356 . S
C432 C434 1.358 . S
C432 H473 0.930 . S
C433 C431 1.353 . S
C433 N435 1.314 . S
C433 H474 0.930 . S
C434 C432 1.358 . S
C434 N435 1.279 . S
C434 H475 0.930 . S
N435 C433 1.314 . S
N435 C434 1.279 . S
C436 C438 1.353 . S
C436 N439 1.314 . S
C436 H442 0.930 . S
C437 N439 1.279 . S
C437 C440 1.358 . S
C437 H443 0.930 . S
C438 C436 1.353 . S
C438 C441 1.348 . S
C438 H476 0.929 . S
N439 Li394 1.990 . S
N439 C436 1.314 . S
N439 C437 1.279 . S
C440 C437 1.358 . S
C440 C441 1.356 . S
C440 H477 0.930 . S
C441 C438 1.348 . S
C441 C440 1.356 . S
H442 C436 0.930 . S
H443 C437 0.930 . S
C444 N445 1.314 . S
C444 C446 1.353 . S
C444 H450 0.930 . S
N445 Li395 1.990 . S
N445 C444 1.314 . S
N445 C448 1.279 . S
C446 C444 1.353 . S
C446 C449 1.348 . S
C446 H478 0.929 . S
C447 C448 1.358 . S
C447 C449 1.356 . S
C447 H479 0.930 . S
C448 N445 1.279 . S
C448 C447 1.358 . S
C448 H451 0.930 . S
C449 C446 1.348 . S
C449 C447 1.356 . S
H450 C444 0.930 . S
H451 C448 0.930 . S
O452 Li392 1.956 . S
O452 Li393 1.970 . S
O452 Li394 1.961 . S
O452 C396 1.325 . S
O453 Li392 1.970 . S
O453 Li393 1.956 . S
O453 Li395 1.961 . S
O453 C402 1.325 . S
O454 Li392 1.961 . S
O454 Li394 1.956 . S
O454 Li395 1.970 . S
O454 C424 1.325 . S
O455 Li393 1.961 . S
O455 Li394 1.970 . S
O455 Li395 1.956 . S
O455 C430 1.325 . S
H456 C398 0.929 . S
H457 C399 0.930 . S
H458 C400 0.930 . S
H459 C401 0.930 . S
H460 C403 0.930 . S
H461 C405 0.929 . S
H462 C406 0.930 . S
H463 C407 0.930 . S
H464 C410 0.930 . S
H465 C413 0.929 . S
H466 C418 0.929 . S
H467 C419 0.930 . S
H468 C426 0.929 . S
H469 C427 0.930 . S
H470 C428 0.930 . S
H471 C429 0.930 . S
H472 C431 0.929 . S
H473 C432 0.930 . S
H474 C433 0.930 . S
H475 C434 0.930 . S
H476 C438 0.929 . S
H477 C440 0.930 . S
H478 C446 0.929 . S
H479 C447 0.930 . S
Li480 N497 1.990 . S
Li480 O540 1.956 1_556 S
Li480 O541 1.970 1_556 S
Li480 O542 1.961 . S
Li481 N505 1.990 . S
Li481 O540 1.970 . S
Li481 O541 1.956 . S
Li481 O543 1.961 . S
Li482 N527 1.990 . S
Li482 O540 1.961 1_556 S
Li482 O542 1.956 . S
Li482 O543 1.970 1_556 S
Li483 N533 1.990 . S
Li483 O541 1.961 . S
Li483 O542 1.970 1_554 S
Li483 O543 1.956 . S
C484 C486 1.384 . S
C484 C487 1.318 1_554 S
C484 O540 1.329 . S
N485 C488 1.314 1_556 S
N485 C489 1.279 . S
C486 C484 1.384 . S
C486 C488 1.353 . S
C486 H544 0.929 . S
C487 C484 1.318 1_556 S
C487 C489 1.358 . S
C487 H545 0.930 . S
C488 N485 1.314 1_554 S
C488 C486 1.353 . S
C488 H546 0.930 . S
C489 N485 1.279 . S
C489 C487 1.358 . S
C489 H547 0.930 . S
C490 C493 1.348 . S
C490 C494 1.356 . S
C490 O541 1.325 . S
C491 N492 1.279 . S
C491 C494 1.358 . S
C491 H548 0.930 . S
N492 C491 1.279 . S
N492 C495 1.314 . S
C493 C490 1.348 . S
C493 C495 1.353 . S
C493 H549 0.929 . S
C494 C490 1.356 . S
C494 C491 1.358 . S
C494 H550 0.930 . S
C495 N492 1.314 . S
C495 C493 1.353 . S
C495 H551 0.930 . S
C496 N497 1.314 . S
C496 C501 1.353 . S
C496 H502 0.930 . S
N497 Li480 1.990 . S
N497 C496 1.314 . S
N497 C499 1.279 . S
C498 C499 1.358 . S
C498 C500 1.356 . S
C498 H552 0.930 . S
C499 N497 1.279 . S
C499 C498 1.358 . S
C499 H503 0.930 1_556 S
C500 C498 1.356 . S
C500 C501 1.348 . S
C501 C496 1.353 . S
C501 C500 1.348 . S
C501 H553 0.929 . S
H502 C496 0.930 . S
H503 C499 0.930 1_554 S
C504 N505 1.314 . S
C504 C506 1.353 . S
C504 H510 0.930 . S
N505 Li481 1.990 . S
N505 C504 1.314 . S
N505 C508 1.279 . S
C506 C504 1.353 . S
C506 C509 1.348 . S
C506 H554 0.929 . S
C507 C508 1.358 . S
C507 C509 1.356 . S
C507 H555 0.930 . S
C508 N505 1.279 . S
C508 C507 1.358 . S
C508 H511 0.930 . S
C509 C506 1.348 . S
C509 C507 1.356 . S
H510 C504 0.930 . S
H511 C508 0.930 . S
C512 C514 1.348 . S
C512 C515 1.356 . S
C512 O542 1.325 . S
N513 C516 1.314 . S
N513 C517 1.279 . S
C514 C512 1.348 . S
C514 C516 1.353 . S
C514 H556 0.929 . S
C515 C512 1.356 . S
C515 C517 1.358 . S
C515 H557 0.930 . S
C516 N513 1.314 . S
C516 C514 1.353 . S
C516 H558 0.930 . S
C517 N513 1.279 . S
C517 C515 1.358 . S
C517 H559 0.930 . S
C518 C519 1.348 1_554 S
C518 C520 1.356 . S
C518 O543 1.325 . S
C519 C518 1.348 1_556 S
C519 C521 1.353 . S
C519 H560 0.929 . S
C520 C518 1.356 . S
C520 C522 1.358 . S
C520 H561 0.930 . S
C521 C519 1.353 . S
C521 N523 1.314 1_556 S
C521 H562 0.930 . S
C522 C520 1.358 . S
C522 N523 1.279 . S
C522 H563 0.930 . S
N523 C521 1.314 1_554 S
N523 C522 1.279 . S
C524 C526 1.353 . S
C524 N527 1.314 . S
C524 H530 0.930 . S
C525 N527 1.279 . S
C525 C528 1.358 . S
C525 H531 0.930 . S
C526 C524 1.353 . S
C526 C529 1.348 . S
C526 H564 0.929 . S
N527 Li482 1.990 . S
N527 C524 1.314 . S
N527 C525 1.279 . S
C528 C525 1.358 . S
C528 C529 1.356 . S
C528 H565 0.930 . S
C529 C526 1.348 . S
C529 C528 1.356 . S
H530 C524 0.930 . S
H531 C525 0.930 . S
C532 N533 1.314 . S
C532 C534 1.353 . S
C532 H538 0.930 . S
N533 Li483 1.990 . S
N533 C532 1.314 . S
N533 C536 1.279 . S
C534 C532 1.353 . S
C534 C537 1.348 . S
C534 H566 0.929 . S
C535 C536 1.358 . S
C535 C537 1.356 . S
C535 H567 0.928 . S
C536 N533 1.279 . S
C536 C535 1.358 . S
C536 H539 0.925 1_554 S
C537 C534 1.348 . S
C537 C535 1.356 . S
H538 C532 0.930 . S
H539 C536 0.925 1_556 S
O540 Li480 1.956 1_554 S
O540 Li481 1.970 . S
O540 Li482 1.961 1_554 S
O540 C484 1.329 . S
O541 Li480 1.970 1_554 S
O541 Li481 1.956 . S
O541 Li483 1.961 . S
O541 C490 1.325 . S
O542 Li480 1.961 . S
O542 Li482 1.956 . S
O542 Li483 1.970 1_556 S
O542 C512 1.325 . S
O543 Li481 1.961 . S
O543 Li482 1.970 1_554 S
O543 Li483 1.956 . S
O543 C518 1.325 . S
H544 C486 0.929 . S
H545 C487 0.930 . S
H546 C488 0.930 . S
H547 C489 0.930 . S
H548 C491 0.930 . S
H549 C493 0.929 . S
H550 C494 0.930 . S
H551 C495 0.930 . S
H552 C498 0.930 . S
H553 C501 0.929 . S
H554 C506 0.929 . S
H555 C507 0.930 . S
H556 C514 0.929 . S
H557 C515 0.930 . S
H558 C516 0.930 . S
H559 C517 0.930 . S
H560 C519 0.929 . S
H561 C520 0.930 . S
H562 C521 0.930 . S
H563 C522 0.930 . S
H564 C526 0.929 . S
H565 C528 0.930 . S
H566 C534 0.929 . S
H567 C535 0.928 . S
Li568 N585 1.990 . S
Li568 O628 1.956 . S
Li568 O629 1.970 . S
Li568 O630 1.961 . S
Li569 N593 1.990 . S
Li569 O628 1.970 . S
Li569 O629 1.956 . S
Li569 O631 1.961 1_545 S
Li570 N615 1.990 . S
Li570 O628 1.961 . S
Li570 O630 1.956 . S
Li570 O631 1.970 1_545 S
Li571 N621 1.990 . S
Li571 O629 1.961 1_565 S
Li571 O630 1.970 1_565 S
Li571 O631 1.956 . S
C572 C574 1.348 . S
C572 C575 1.356 . S
C572 O628 1.325 . S
N573 C576 1.313 1_455 S
N573 C577 1.279 1_455 S
C574 C572 1.348 . S
C574 C576 1.367 . S
C574 H632 0.929 . S
C575 C572 1.356 . S
C575 C577 1.358 . S
C575 H633 0.930 . S
C576 N573 1.313 1_655 S
C576 C574 1.367 . S
C576 H634 0.916 1_655 S
C577 N573 1.279 1_655 S
C577 C575 1.358 . S
C577 H635 0.930 . S
C578 C581 1.348 . S
C578 C582 1.356 1_545 S
C578 O629 1.325 . S
C579 N580 1.279 1_565 S
C579 C582 1.358 . S
C579 H636 0.930 . S
N580 C579 1.279 1_545 S
N580 C583 1.314 . S
C581 C578 1.348 . S
C581 C583 1.353 . S
C581 H637 0.929 . S
C582 C578 1.356 1_565 S
C582 C579 1.358 . S
C582 H638 0.930 . S
C583 N580 1.314 . S
C583 C581 1.353 . S
C583 H639 0.930 . S
C584 N585 1.314 . S
C584 C589 1.353 . S
C584 H590 0.930 . S
N585 Li568 1.990 . S
N585 C584 1.314 . S
N585 C587 1.279 . S
C586 C587 1.358 . S
C586 C588 1.356 . S
C586 H640 0.930 . S
C587 N585 1.279 . S
C587 C586 1.358 . S
C587 H591 0.930 . S
C588 C586 1.356 . S
C588 C589 1.348 . S
C589 C584 1.353 . S
C589 C588 1.348 . S
C589 H641 0.929 . S
H590 C584 0.930 . S
H591 C587 0.930 . S
C592 N593 1.314 1_455 S
C592 C594 1.353 . S
C592 H598 0.930 . S
N593 Li569 1.990 . S
N593 C592 1.314 1_655 S
N593 C596 1.279 . S
C594 C592 1.353 . S
C594 C597 1.348 . S
C594 H642 0.929 . S
C595 C596 1.358 . S
C595 C597 1.356 1_655 S
C595 H643 0.930 . S
C596 N593 1.279 . S
C596 C595 1.358 . S
C596 H599 0.930 . S
C597 C594 1.348 . S
C597 C595 1.356 1_455 S
H598 C592 0.930 . S
H599 C596 0.930 . S
C600 C602 1.348 1_545 S
C600 C603 1.356 . S
C600 O630 1.325 . S
N601 C604 1.306 1_545 S
N601 C605 1.279 . S
C602 C600 1.348 1_565 S
C602 C604 1.356 . S
C602 H644 0.929 . S
C603 C600 1.356 . S
C603 C605 1.358 . S
C603 H645 0.930 . S
C604 N601 1.306 1_565 S
C604 C602 1.356 . S
C604 H646 0.936 . S
C605 N601 1.279 . S
C605 C603 1.358 . S
C605 H647 0.930 . S
C606 C607 1.348 . S
C606 C608 1.356 . S
C606 O631 1.325 . S
C607 C606 1.348 . S
C607 C609 1.353 . S
C607 H648 0.929 . S
C608 C606 1.356 . S
C608 C610 1.358 . S
C608 H649 0.930 . S
C609 C607 1.353 . S
C609 N611 1.310 1_655 S
C609 H650 0.930 1_655 S
C610 C608 1.358 . S
C610 N611 1.269 1_655 S
C610 H651 0.930 . S
N611 C609 1.310 1_455 S
N611 C610 1.269 1_455 S
C612 C614 1.353 1_655 S
C612 N615 1.314 . S
C612 H618 0.930 1_655 S
C613 N615 1.279 . S
C613 C616 1.358 . S
C613 H619 0.930 . S
C614 C612 1.353 1_455 S
C614 C617 1.348 . S
C614 H652 0.929 . S
N615 Li570 1.990 . S
N615 C612 1.314 . S
N615 C613 1.279 . S
C616 C613 1.358 . S
C616 C617 1.356 1_655 S
C616 H653 0.930 . S
C617 C614 1.348 . S
C617 C616 1.356 1_455 S
H618 C612 0.930 1_455 S
H619 C613 0.930 . S
C620 N621 1.314 . S
C620 C622 1.353 . S
C620 H626 0.930 . S
N621 Li571 1.990 . S
N621 C620 1.314 . S
N621 C624 1.279 . S
C622 C620 1.353 . S
C622 C625 1.348 . S
C622 H654 0.929 . S
C623 C624 1.358 . S
C623 C625 1.356 . S
C623 H655 0.930 . S
C624 N621 1.279 . S
C624 C623 1.358 . S
C624 H627 0.930 . S
C625 C622 1.348 . S
C625 C623 1.356 . S
H626 C620 0.930 . S
H627 C624 0.930 . S
O628 Li568 1.956 . S
O628 Li569 1.970 . S
O628 Li570 1.961 . S
O628 C572 1.325 . S
O629 Li568 1.970 . S
O629 Li569 1.956 . S
O629 Li571 1.961 1_545 S
O629 C578 1.325 . S
O630 Li568 1.961 . S
O630 Li570 1.956 . S
O630 Li571 1.970 1_545 S
O630 C600 1.325 . S
O631 Li569 1.961 1_565 S
O631 Li570 1.970 1_565 S
O631 Li571 1.956 . S
O631 C606 1.325 . S
H632 C574 0.929 . S
H633 C575 0.930 . S
H634 C576 0.916 1_455 S
H635 C577 0.930 . S
H636 C579 0.930 . S
H637 C581 0.929 . S
H638 C582 0.930 . S
H639 C583 0.930 . S
H640 C586 0.930 . S
H641 C589 0.929 . S
H642 C594 0.929 . S
H643 C595 0.930 . S
H644 C602 0.929 . S
H645 C603 0.930 . S
H646 C604 0.936 . S
H647 C605 0.930 . S
H648 C607 0.929 . S
H649 C608 0.930 . S
H650 C609 0.930 1_455 S
H651 C610 0.930 . S
H652 C614 0.929 . S
H653 C616 0.930 . S
H654 C622 0.929 . S
H655 C623 0.930 . S
Li656 N673 1.990 . S
Li656 O716 1.956 . S
Li656 O717 1.970 . S
Li656 O718 1.961 . S
Li657 N681 1.990 . S
Li657 O716 1.970 . S
Li657 O717 1.956 . S
Li657 O719 1.961 . S
Li658 N703 1.990 . S
Li658 O716 1.961 . S
Li658 O718 1.956 . S
Li658 O719 1.970 . S
Li659 N709 1.990 . S
Li659 O717 1.961 . S
Li659 O718 1.970 . S
Li659 O719 1.956 . S
C660 C662 1.348 . S
C660 C663 1.356 . S
C660 O716 1.325 . S
N661 C664 1.314 . S
N661 C665 1.279 . S
C662 C660 1.348 . S
C662 C664 1.353 . S
C662 H720 0.929 . S
C663 C660 1.356 . S
C663 C665 1.358 . S
C663 H721 0.930 . S
C664 N661 1.314 . S
C664 C662 1.353 . S
C664 H722 0.930 . S
C665 N661 1.279 . S
C665 C663 1.358 . S
C665 H723 0.930 . S
C666 C669 1.348 . S
C666 C670 1.356 . S
C666 O717 1.325 . S
C667 N668 1.279 . S
C667 C670 1.358 . S
C667 H724 0.930 . S
N668 C667 1.279 . S
N668 C671 1.314 . S
C669 C666 1.348 . S
C669 C671 1.353 . S
C669 H725 0.929 . S
C670 C666 1.356 . S
C670 C667 1.358 . S
C670 H726 0.930 . S
C671 N668 1.314 . S
C671 C669 1.353 . S
C671 H727 0.930 . S
C672 N673 1.314 . S
C672 C677 1.353 . S
C672 H678 0.930 . S
N673 Li656 1.990 . S
N673 C672 1.314 . S
N673 C675 1.279 . S
C674 C675 1.358 . S
C674 C676 1.356 . S
C674 H728 0.930 . S
C675 N673 1.279 . S
C675 C674 1.358 . S
C675 H679 0.930 . S
C676 C674 1.356 . S
C676 C677 1.348 . S
C677 C672 1.353 . S
C677 C676 1.348 . S
C677 H729 0.929 . S
H678 C672 0.930 . S
H679 C675 0.930 . S
C680 N681 1.314 . S
C680 C682 1.353 . S
C680 H686 0.930 . S
N681 Li657 1.990 . S
N681 C680 1.314 . S
N681 C684 1.279 . S
C682 C680 1.353 . S
C682 C685 1.348 . S
C682 H730 0.929 . S
C683 C684 1.358 . S
C683 C685 1.356 . S
C683 H731 0.930 . S
C684 N681 1.279 . S
C684 C683 1.358 . S
C684 H687 0.930 . S
C685 C682 1.348 . S
C685 C683 1.356 . S
H686 C680 0.930 . S
H687 C684 0.930 . S
C688 C690 1.348 . S
C688 C691 1.356 . S
C688 O718 1.325 . S
N689 C692 1.314 . S
N689 C693 1.279 . S
C690 C688 1.348 . S
C690 C692 1.353 . S
C690 H732 0.929 . S
C691 C688 1.356 . S
C691 C693 1.358 . S
C691 H733 0.930 . S
C692 N689 1.314 . S
C692 C690 1.353 . S
C692 H734 0.930 . S
C693 N689 1.279 . S
C693 C691 1.358 . S
C693 H735 0.930 . S
C694 C695 1.348 . S
C694 C696 1.356 . S
C694 O719 1.325 . S
C695 C694 1.348 . S
C695 C697 1.353 . S
C695 H736 0.929 . S
C696 C694 1.356 . S
C696 C698 1.358 . S
C696 H737 0.930 . S
C697 C695 1.353 . S
C697 N699 1.314 . S
C697 H738 0.930 . S
C698 C696 1.358 . S
C698 N699 1.279 . S
C698 H739 0.930 . S
N699 C697 1.314 . S
N699 C698 1.279 . S
C700 C702 1.353 . S
C700 N703 1.314 . S
C700 H706 0.930 . S
C701 N703 1.279 . S
C701 C704 1.358 . S
C701 H707 0.930 . S
C702 C700 1.353 . S
C702 C705 1.348 . S
C702 H740 0.929 . S
N703 Li658 1.990 . S
N703 C700 1.314 . S
N703 C701 1.279 . S
C704 C701 1.358 . S
C704 C705 1.356 . S
C704 H741 0.930 . S
C705 C702 1.348 . S
C705 C704 1.356 . S
H706 C700 0.930 . S
H707 C701 0.930 . S
C708 N709 1.314 . S
C708 C710 1.353 . S
C708 H714 0.930 . S
N709 Li659 1.990 . S
N709 C708 1.314 . S
N709 C712 1.279 . S
C710 C708 1.353 . S
C710 C713 1.348 . S
C710 H742 0.929 . S
C711 C712 1.358 . S
C711 C713 1.356 . S
C711 H743 0.930 . S
C712 N709 1.279 . S
C712 C711 1.358 . S
C712 H715 0.930 . S
C713 C710 1.348 . S
C713 C711 1.356 . S
H714 C708 0.930 . S
H715 C712 0.930 . S
O716 Li656 1.956 . S
O716 Li657 1.970 . S
O716 Li658 1.961 . S
O716 C660 1.325 . S
O717 Li656 1.970 . S
O717 Li657 1.956 . S
O717 Li659 1.961 . S
O717 C666 1.325 . S
O718 Li656 1.961 . S
O718 Li658 1.956 . S
O718 Li659 1.970 . S
O718 C688 1.325 . S
O719 Li657 1.961 . S
O719 Li658 1.970 . S
O719 Li659 1.956 . S
O719 C694 1.325 . S
H720 C662 0.929 . S
H721 C663 0.930 . S
H722 C664 0.930 . S
H723 C665 0.930 . S
H724 C667 0.930 . S
H725 C669 0.929 . S
H726 C670 0.930 . S
H727 C671 0.930 . S
H728 C674 0.930 . S
H729 C677 0.929 . S
H730 C682 0.929 . S
H731 C683 0.930 . S
H732 C690 0.929 . S
H733 C691 0.930 . S
H734 C692 0.930 . S
H735 C693 0.930 . S
H736 C695 0.929 . S
H737 C696 0.930 . S
H738 C697 0.930 . S
H739 C698 0.930 . S
H740 C702 0.929 . S
H741 C704 0.930 . S
H742 C710 0.929 . S
H743 C711 0.930 . S
Li744 N761 1.990 . S
Li744 O804 1.956 . S
Li744 O805 1.970 . S
Li744 O806 1.961 . S
Li745 N769 1.990 . S
Li745 O804 1.970 . S
Li745 O805 1.956 . S
Li745 O807 1.961 . S
Li746 N791 1.990 . S
Li746 O804 1.961 . S
Li746 O806 1.956 . S
Li746 O807 1.970 . S
Li747 N797 1.990 . S
Li747 O805 1.961 . S
Li747 O806 1.970 . S
Li747 O807 1.956 . S
C748 C750 1.348 . S
C748 C751 1.356 . S
C748 O804 1.325 . S
N749 C752 1.314 . S
N749 C753 1.279 . S
C750 C748 1.348 . S
C750 C752 1.353 . S
C750 H808 0.929 . S
C751 C748 1.356 . S
C751 C753 1.358 . S
C751 H809 0.930 . S
C752 N749 1.314 . S
C752 C750 1.353 . S
C752 H810 0.930 . S
C753 N749 1.279 . S
C753 C751 1.358 . S
C753 H811 0.930 . S
C754 C757 1.348 . S
C754 C758 1.356 . S
C754 O805 1.325 . S
C755 N756 1.279 . S
C755 C758 1.358 . S
C755 H812 0.930 . S
N756 C755 1.279 . S
N756 C759 1.314 . S
C757 C754 1.348 . S
C757 C759 1.353 . S
C757 H813 0.929 . S
C758 C754 1.356 . S
C758 C755 1.358 . S
C758 H814 0.930 . S
C759 N756 1.314 . S
C759 C757 1.353 . S
C759 H815 0.930 . S
C760 N761 1.314 . S
C760 C765 1.353 . S
C760 H766 0.930 . S
N761 Li744 1.990 . S
N761 C760 1.314 . S
N761 C763 1.279 . S
C762 C763 1.358 . S
C762 C764 1.356 . S
C762 H816 0.930 . S
C763 N761 1.279 . S
C763 C762 1.358 . S
C763 H767 0.930 . S
C764 C762 1.356 . S
C764 C765 1.348 . S
C765 C760 1.353 . S
C765 C764 1.348 . S
C765 H817 0.929 . S
H766 C760 0.930 . S
H767 C763 0.930 . S
C768 N769 1.314 . S
C768 C770 1.353 . S
C768 H774 0.930 . S
N769 Li745 1.990 . S
N769 C768 1.314 . S
N769 C772 1.279 . S
C770 C768 1.353 . S
C770 C773 1.348 . S
C770 H818 0.929 . S
C771 C772 1.358 . S
C771 C773 1.356 . S
C771 H819 0.930 . S
C772 N769 1.279 . S
C772 C771 1.358 . S
C772 H775 0.930 . S
C773 C770 1.348 . S
C773 C771 1.356 . S
H774 C768 0.930 . S
H775 C772 0.930 . S
C776 C778 1.348 . S
C776 C779 1.356 . S
C776 O806 1.325 . S
N777 C780 1.314 . S
N777 C781 1.279 . S
C778 C776 1.348 . S
C778 C780 1.353 . S
C778 H820 0.929 . S
C779 C776 1.356 . S
C779 C781 1.358 . S
C779 H821 0.930 . S
C780 N777 1.314 . S
C780 C778 1.353 . S
C780 H822 0.930 . S
C781 N777 1.279 . S
C781 C779 1.358 . S
C781 H823 0.930 . S
C782 C783 1.348 . S
C782 C784 1.356 . S
C782 O807 1.325 . S
C783 C782 1.348 . S
C783 C785 1.353 . S
C783 H824 0.929 . S
C784 C782 1.356 . S
C784 C786 1.358 . S
C784 H825 0.930 . S
C785 C783 1.353 . S
C785 N787 1.314 . S
C785 H826 0.930 . S
C786 C784 1.358 . S
C786 N787 1.279 . S
C786 H827 0.930 . S
N787 C785 1.314 . S
N787 C786 1.279 . S
C788 C790 1.353 . S
C788 N791 1.314 . S
C788 H794 0.930 . S
C789 N791 1.279 . S
C789 C792 1.358 . S
C789 H795 0.930 . S
C790 C788 1.353 . S
C790 C793 1.348 . S
C790 H828 0.929 . S
N791 Li746 1.990 . S
N791 C788 1.314 . S
N791 C789 1.279 . S
C792 C789 1.358 . S
C792 C793 1.356 . S
C792 H829 0.930 . S
C793 C790 1.348 . S
C793 C792 1.356 . S
H794 C788 0.930 . S
H795 C789 0.930 . S
C796 N797 1.314 . S
C796 C798 1.353 . S
C796 H802 0.930 . S
N797 Li747 1.990 . S
N797 C796 1.314 . S
N797 C800 1.279 . S
C798 C796 1.353 . S
C798 C801 1.348 . S
C798 H830 0.929 . S
C799 C800 1.358 . S
C799 C801 1.356 . S
C799 H831 0.930 . S
C800 N797 1.279 . S
C800 C799 1.358 . S
C800 H803 0.930 . S
C801 C798 1.348 . S
C801 C799 1.356 . S
H802 C796 0.930 . S
H803 C800 0.930 . S
O804 Li744 1.956 . S
O804 Li745 1.970 . S
O804 Li746 1.961 . S
O804 C748 1.325 . S
O805 Li744 1.970 . S
O805 Li745 1.956 . S
O805 Li747 1.961 . S
O805 C754 1.325 . S
O806 Li744 1.961 . S
O806 Li746 1.956 . S
O806 Li747 1.970 . S
O806 C776 1.325 . S
O807 Li745 1.961 . S
O807 Li746 1.970 . S
O807 Li747 1.956 . S
O807 C782 1.325 . S
H808 C750 0.929 . S
H809 C751 0.930 . S
H810 C752 0.930 . S
H811 C753 0.930 . S
H812 C755 0.930 . S
H813 C757 0.929 . S
H814 C758 0.930 . S
H815 C759 0.930 . S
H816 C762 0.930 . S
H817 C765 0.929 . S
H818 C770 0.929 . S
H819 C771 0.930 . S
H820 C778 0.929 . S
H821 C779 0.930 . S
H822 C780 0.930 . S
H823 C781 0.930 . S
H824 C783 0.929 . S
H825 C784 0.930 . S
H826 C785 0.930 . S
H827 C786 0.930 . S
H828 C790 0.929 . S
H829 C792 0.930 . S
H830 C798 0.929 . S
H831 C799 0.930 . S
Li832 N849 1.990 . S
Li832 O892 1.956 . S
Li832 O893 1.970 . S
Li832 O894 1.961 . S
Li833 N857 1.990 . S
Li833 O892 1.970 . S
Li833 O893 1.956 . S
Li833 O895 1.961 . S
Li834 N879 1.990 . S
Li834 O892 1.961 . S
Li834 O894 1.956 . S
Li834 O895 1.970 . S
Li835 N885 1.990 . S
Li835 O893 1.961 . S
Li835 O894 1.970 . S
Li835 O895 1.956 . S
C836 C838 1.348 . S
C836 C839 1.356 . S
C836 O892 1.325 . S
N837 C840 1.314 . S
N837 C841 1.279 . S
C838 C836 1.348 . S
C838 C840 1.353 . S
C838 H896 0.929 . S
C839 C836 1.356 . S
C839 C841 1.358 . S
C839 H897 0.930 . S
C840 N837 1.314 . S
C840 C838 1.353 . S
C840 H898 0.930 . S
C841 N837 1.279 . S
C841 C839 1.358 . S
C841 H899 0.930 . S
C842 C845 1.348 . S
C842 C846 1.356 . S
C842 O893 1.325 . S
C843 N844 1.279 . S
C843 C846 1.358 . S
C843 H900 0.930 . S
N844 C843 1.279 . S
N844 C847 1.314 . S
C845 C842 1.348 . S
C845 C847 1.353 . S
C845 H901 0.929 . S
C846 C842 1.356 . S
C846 C843 1.358 . S
C846 H902 0.930 . S
C847 N844 1.314 . S
C847 C845 1.353 . S
C847 H903 0.930 . S
C848 N849 1.314 . S
C848 C853 1.353 . S
C848 H854 0.930 . S
N849 Li832 1.990 . S
N849 C848 1.314 . S
N849 C851 1.279 . S
C850 C851 1.358 . S
C850 C852 1.356 . S
C850 H904 0.930 . S
C851 N849 1.279 . S
C851 C850 1.358 . S
C851 H855 0.930 . S
C852 C850 1.356 . S
C852 C853 1.348 . S
C853 C848 1.353 . S
C853 C852 1.348 . S
C853 H905 0.929 . S
H854 C848 0.930 . S
H855 C851 0.930 . S
C856 N857 1.314 . S
C856 C858 1.353 . S
C856 H862 0.930 . S
N857 Li833 1.990 . S
N857 C856 1.314 . S
N857 C860 1.279 . S
C858 C856 1.353 . S
C858 C861 1.348 . S
C858 H906 0.929 . S
C859 C860 1.358 . S
C859 C861 1.356 . S
C859 H907 0.930 . S
C860 N857 1.279 . S
C860 C859 1.358 . S
C860 H863 0.930 . S
C861 C858 1.348 . S
C861 C859 1.356 . S
H862 C856 0.930 . S
H863 C860 0.930 . S
C864 C866 1.348 . S
C864 C867 1.356 . S
C864 O894 1.325 . S
N865 C868 1.314 . S
N865 C869 1.279 . S
C866 C864 1.348 . S
C866 C868 1.353 . S
C866 H908 0.929 . S
C867 C864 1.356 . S
C867 C869 1.358 . S
C867 H909 0.930 . S
C868 N865 1.314 . S
C868 C866 1.353 . S
C868 H910 0.930 . S
C869 N865 1.279 . S
C869 C867 1.358 . S
C869 H911 0.930 . S
C870 C871 1.348 . S
C870 C872 1.356 . S
C870 O895 1.325 . S
C871 C870 1.348 . S
C871 C873 1.353 . S
C871 H912 0.929 . S
C872 C870 1.356 . S
C872 C874 1.358 . S
C872 H913 0.930 . S
C873 C871 1.353 . S
C873 N875 1.314 . S
C873 H914 0.930 . S
C874 C872 1.358 . S
C874 N875 1.279 . S
C874 H915 0.930 . S
N875 C873 1.314 . S
N875 C874 1.279 . S
C876 C878 1.353 . S
C876 N879 1.314 . S
C876 H882 0.930 . S
C877 N879 1.279 . S
C877 C880 1.358 . S
C877 H883 0.930 . S
C878 C876 1.353 . S
C878 C881 1.348 . S
C878 H916 0.929 . S
N879 Li834 1.990 . S
N879 C876 1.314 . S
N879 C877 1.279 . S
C880 C877 1.358 . S
C880 C881 1.356 . S
C880 H917 0.930 . S
C881 C878 1.348 . S
C881 C880 1.356 . S
H882 C876 0.930 . S
H883 C877 0.930 . S
C884 N885 1.314 . S
C884 C886 1.353 . S
C884 H890 0.930 . S
N885 Li835 1.990 . S
N885 C884 1.314 . S
N885 C888 1.279 . S
C886 C884 1.353 . S
C886 C889 1.348 . S
C886 H918 0.929 . S
C887 C888 1.358 . S
C887 C889 1.356 . S
C887 H919 0.930 . S
C888 N885 1.279 . S
C888 C887 1.358 . S
C888 H891 0.930 . S
C889 C886 1.348 . S
C889 C887 1.356 . S
H890 C884 0.930 . S
H891 C888 0.930 . S
O892 Li832 1.956 . S
O892 Li833 1.970 . S
O892 Li834 1.961 . S
O892 C836 1.325 . S
O893 Li832 1.970 . S
O893 Li833 1.956 . S
O893 Li835 1.961 . S
O893 C842 1.325 . S
O894 Li832 1.961 . S
O894 Li834 1.956 . S
O894 Li835 1.970 . S
O894 C864 1.325 . S
O895 Li833 1.961 . S
O895 Li834 1.970 . S
O895 Li835 1.956 . S
O895 C870 1.325 . S
H896 C838 0.929 . S
H897 C839 0.930 . S
H898 C840 0.930 . S
H899 C841 0.930 . S
H900 C843 0.930 . S
H901 C845 0.929 . S
H902 C846 0.930 . S
H903 C847 0.930 . S
H904 C850 0.930 . S
H905 C853 0.929 . S
H906 C858 0.929 . S
H907 C859 0.930 . S
H908 C866 0.929 . S
H909 C867 0.930 . S
H910 C868 0.930 . S
H911 C869 0.930 . S
H912 C871 0.929 . S
H913 C872 0.930 . S
H914 C873 0.930 . S
H915 C874 0.930 . S
H916 C878 0.929 . S
H917 C880 0.930 . S
H918 C886 0.929 . S
H919 C887 0.930 . S
Li920 N937 1.980 1_545 S
Li920 O980 1.956 1_545 S
Li920 O981 1.979 . S
Li920 O982 1.968 . S
Li921 N945 1.990 . S
Li921 O980 1.970 1_545 S
Li921 O981 1.956 . S
Li921 O983 1.961 . S
Li922 N967 1.990 . S
Li922 O980 1.961 1_545 S
Li922 O982 1.956 . S
Li922 O983 1.970 . S
Li923 N973 1.990 . S
Li923 O981 1.961 . S
Li923 O982 1.970 . S
Li923 O983 1.956 . S
C924 C926 1.348 . S
C924 C927 1.356 . S
C924 O980 1.325 . S
N925 C928 1.314 . S
N925 C929 1.279 . S
C926 C924 1.348 . S
C926 C928 1.353 . S
C926 H984 0.929 . S
C927 C924 1.356 . S
C927 C929 1.358 . S
C927 H985 0.930 . S
C928 N925 1.314 . S
C928 C926 1.353 . S
C928 H986 0.930 . S
C929 N925 1.279 . S
C929 C927 1.358 . S
C929 H987 0.930 . S
C930 C933 1.348 . S
C930 C934 1.356 . S
C930 O981 1.325 . S
C931 N932 1.279 . S
C931 C934 1.358 . S
C931 H988 0.930 . S
N932 C931 1.279 . S
N932 C935 1.314 . S
C933 C930 1.348 . S
C933 C935 1.353 . S
C933 H989 0.929 . S
C934 C930 1.356 . S
C934 C931 1.358 . S
C934 H990 0.930 . S
C935 N932 1.314 . S
C935 C933 1.353 . S
C935 H991 0.930 . S
C936 N937 1.314 . S
C936 C941 1.353 . S
C936 H942 0.930 . S
N937 Li920 1.980 1_565 S
N937 C936 1.314 . S
N937 C939 1.279 . S
C938 C939 1.358 . S
C938 C940 1.356 . S
C938 H992 0.930 . S
C939 N937 1.279 . S
C939 C938 1.358 . S
C939 H943 0.930 . S
C940 C938 1.356 . S
C940 C941 1.348 . S
C941 C936 1.353 . S
C941 C940 1.348 . S
C941 H993 0.929 . S
H942 C936 0.930 . S
H943 C939 0.930 . S
C944 N945 1.314 . S
C944 C946 1.353 . S
C944 H950 0.930 . S
N945 Li921 1.990 . S
N945 C944 1.314 . S
N945 C948 1.279 . S
C946 C944 1.353 . S
C946 C949 1.348 . S
C946 H994 0.929 . S
C947 C948 1.358 . S
C947 C949 1.356 . S
C947 H995 0.930 . S
C948 N945 1.279 . S
C948 C947 1.358 . S
C948 H951 0.930 . S
C949 C946 1.348 . S
C949 C947 1.356 . S
H950 C944 0.930 . S
H951 C948 0.930 . S
C952 C954 1.348 . S
C952 C955 1.356 1_545 S
C952 O982 1.325 . S
N953 C956 1.314 . S
N953 C957 1.279 1_545 S
C954 C952 1.348 . S
C954 C956 1.353 . S
C954 H996 0.929 . S
C955 C952 1.356 1_565 S
C955 C957 1.358 . S
C955 H997 0.930 . S
C956 N953 1.314 . S
C956 C954 1.353 . S
C956 H998 0.930 . S
C957 N953 1.279 1_565 S
C957 C955 1.358 . S
C957 H999 0.930 . S
C958 C959 1.348 . S
C958 C960 1.356 . S
C958 O983 1.325 . S
C959 C958 1.348 . S
C959 C961 1.353 . S
C959 H1000 0.929 . S
C960 C958 1.356 . S
C960 C962 1.358 . S
C960 H1001 0.930 . S
C961 C959 1.353 . S
C961 N963 1.314 . S
C961 H1002 0.930 . S
C962 C960 1.358 . S
C962 N963 1.279 . S
C962 H1003 0.930 . S
N963 C961 1.314 . S
N963 C962 1.279 . S
C964 C966 1.353 1_545 S
C964 N967 1.316 . S
C964 H970 0.922 1_545 S
C965 N967 1.279 . S
C965 C968 1.358 . S
C965 H971 0.930 . S
C966 C964 1.353 1_565 S
C966 C969 1.348 . S
C966 H1004 0.929 . S
N967 Li922 1.990 . S
N967 C964 1.316 . S
N967 C965 1.279 . S
C968 C965 1.358 . S
C968 C969 1.356 1_545 S
C968 H1005 0.930 . S
C969 C966 1.348 . S
C969 C968 1.356 1_565 S
H970 C964 0.922 1_565 S
H971 C965 0.930 . S
C972 N973 1.314 . S
C972 C974 1.353 . S
C972 H978 0.930 . S
N973 Li923 1.990 . S
N973 C972 1.314 . S
N973 C976 1.279 . S
C974 C972 1.353 . S
C974 C977 1.348 . S
C974 H1006 0.929 . S
C975 C976 1.358 . S
C975 C977 1.356 . S
C975 H1007 0.930 . S
C976 N973 1.279 . S
C976 C975 1.358 . S
C976 H979 0.930 . S
C977 C974 1.348 . S
C977 C975 1.356 . S
H978 C972 0.930 . S
H979 C976 0.930 . S
O980 Li920 1.956 1_565 S
O980 Li921 1.970 1_565 S
O980 Li922 1.961 1_565 S
O980 C924 1.325 . S
O981 Li920 1.979 . S
O981 Li921 1.956 . S
O981 Li923 1.961 . S
O981 C930 1.325 . S
O982 Li920 1.968 . S
O982 Li922 1.956 . S
O982 Li923 1.970 . S
O982 C952 1.325 . S
O983 Li921 1.961 . S
O983 Li922 1.970 . S
O983 Li923 1.956 . S
O983 C958 1.325 . S
H984 C926 0.929 . S
H985 C927 0.930 . S
H986 C928 0.930 . S
H987 C929 0.930 . S
H988 C931 0.930 . S
H989 C933 0.929 . S
H990 C934 0.930 . S
H991 C935 0.930 . S
H992 C938 0.930 . S
H993 C941 0.929 . S
H994 C946 0.929 . S
H995 C947 0.930 . S
H996 C954 0.929 . S
H997 C955 0.930 . S
H998 C956 0.930 . S
H999 C957 0.930 . S
H1000 C959 0.929 . S
H1001 C960 0.930 . S
H1002 C961 0.930 . S
H1003 C962 0.930 . S
H1004 C966 0.929 . S
H1005 C968 0.930 . S
H1006 C974 0.929 . S
H1007 C975 0.930 . S
Li1008 N1025 1.990 . S
Li1008 O1068 1.956 . S
Li1008 O1069 1.970 . S
Li1008 O1070 1.961 . S
Li1009 N1033 1.995 . S
Li1009 O1068 1.970 . S
Li1009 O1069 1.956 . S
Li1009 O1071 1.961 1_455 S
Li1010 N1055 1.990 . S
Li1010 O1068 1.961 . S
Li1010 O1070 1.956 . S
Li1010 O1071 1.970 1_455 S
Li1011 N1061 1.990 . S
Li1011 O1069 1.961 1_655 S
Li1011 O1070 1.970 1_655 S
Li1011 O1071 1.956 . S
C1012 C1014 1.348 . S
C1012 C1015 1.356 . S
C1012 O1068 1.325 . S
N1013 C1016 1.314 . S
N1013 C1017 1.279 . S
C1014 C1012 1.348 . S
C1014 C1016 1.353 . S
C1014 H1072 0.929 . S
C1015 C1012 1.356 . S
C1015 C1017 1.358 . S
C1015 H1073 0.930 . S
C1016 N1013 1.314 . S
C1016 C1014 1.353 . S
C1016 H1074 0.930 . S
C1017 N1013 1.279 . S
C1017 C1015 1.358 . S
C1017 H1075 0.930 . S
C1018 C1021 1.348 . S
C1018 C1022 1.356 1_455 S
C1018 O1069 1.325 . S
C1019 N1020 1.313 . S
C1019 C1022 1.358 . S
C1019 H1076 0.930 . S
N1020 C1019 1.313 . S
N1020 C1023 1.275 1_655 S
C1021 C1018 1.348 . S
C1021 C1023 1.353 . S
C1021 H1077 0.929 . S
C1022 C1018 1.356 1_655 S
C1022 C1019 1.358 . S
C1022 H1078 0.930 . S
C1023 N1020 1.275 1_455 S
C1023 C1021 1.353 . S
C1023 H1079 0.930 . S
C1024 N1025 1.314 . S
C1024 C1029 1.353 . S
C1024 H1030 0.930 . S
N1025 Li1008 1.990 . S
N1025 C1024 1.314 . S
N1025 C1027 1.279 . S
C1026 C1027 1.358 . S
C1026 C1028 1.356 . S
C1026 H1080 0.930 . S
C1027 N1025 1.279 . S
C1027 C1026 1.358 . S
C1027 H1031 0.930 . S
C1028 C1026 1.356 . S
C1028 C1029 1.348 . S
C1029 C1024 1.353 . S
C1029 C1028 1.348 . S
C1029 H1081 0.929 . S
H1030 C1024 0.930 . S
H1031 C1027 0.930 . S
C1032 N1033 1.308 1_655 S
C1032 C1034 1.353 . S
C1032 H1038 0.930 . S
N1033 Li1009 1.995 . S
N1033 C1032 1.308 1_455 S
N1033 C1036 1.283 . S
C1034 C1032 1.353 . S
C1034 C1037 1.348 1_655 S
C1034 H1082 0.929 . S
C1035 C1036 1.358 . S
C1035 C1037 1.356 . S
C1035 H1083 0.930 . S
C1036 N1033 1.283 . S
C1036 C1035 1.358 . S
C1036 H1039 0.930 . S
C1037 C1034 1.348 1_455 S
C1037 C1035 1.356 . S
H1038 C1032 0.930 . S
H1039 C1036 0.930 . S
C1040 C1042 1.348 1_455 S
C1040 C1043 1.356 . S
C1040 O1070 1.325 . S
N1041 C1044 1.314 1_455 S
N1041 C1045 1.279 . S
C1042 C1040 1.348 1_655 S
C1042 C1044 1.353 . S
C1042 H1084 0.929 . S
C1043 C1040 1.356 . S
C1043 C1045 1.358 . S
C1043 H1085 0.930 . S
C1044 N1041 1.314 1_655 S
C1044 C1042 1.353 . S
C1044 H1086 0.930 . S
C1045 N1041 1.279 . S
C1045 C1043 1.358 . S
C1045 H1087 0.930 . S
C1046 C1047 1.348 . S
C1046 C1048 1.356 . S
C1046 O1071 1.325 . S
C1047 C1046 1.348 . S
C1047 C1049 1.353 . S
C1047 H1088 0.929 . S
C1048 C1046 1.356 . S
C1048 C1050 1.358 . S
C1048 H1089 0.930 . S
C1049 C1047 1.353 . S
C1049 N1051 1.314 . S
C1049 H1090 0.930 . S
C1050 C1048 1.358 . S
C1050 N1051 1.279 . S
C1050 H1091 0.930 . S
N1051 C1049 1.314 . S
N1051 C1050 1.279 . S
C1052 C1054 1.353 . S
C1052 N1055 1.314 . S
C1052 H1058 0.930 . S
C1053 N1055 1.279 . S
C1053 C1056 1.358 . S
C1053 H1059 0.932 . S
C1054 C1052 1.353 . S
C1054 C1057 1.348 . S
C1054 H1092 0.929 . S
N1055 Li1010 1.990 . S
N1055 C1052 1.314 . S
N1055 C1053 1.279 . S
C1056 C1053 1.358 . S
C1056 C1057 1.356 . S
C1056 H1093 0.930 . S
C1057 C1054 1.348 . S
C1057 C1056 1.356 . S
H1058 C1052 0.930 . S
H1059 C1053 0.932 . S
C1060 N1061 1.314 . S
C1060 C1062 1.353 . S
C1060 H1066 0.930 . S
N1061 Li1011 1.990 . S
N1061 C1060 1.314 . S
N1061 C1064 1.279 . S
C1062 C1060 1.353 . S
C1062 C1065 1.348 . S
C1062 H1094 0.929 . S
C1063 C1064 1.358 . S
C1063 C1065 1.356 . S
C1063 H1095 0.930 . S
C1064 N1061 1.279 . S
C1064 C1063 1.358 . S
C1064 H1067 0.930 . S
C1065 C1062 1.348 . S
C1065 C1063 1.356 . S
H1066 C1060 0.930 . S
H1067 C1064 0.930 . S
O1068 Li1008 1.956 . S
O1068 Li1009 1.970 . S
O1068 Li1010 1.961 . S
O1068 C1012 1.325 . S
O1069 Li1008 1.970 . S
O1069 Li1009 1.956 . S
O1069 Li1011 1.961 1_455 S
O1069 C1018 1.325 . S
O1070 Li1008 1.961 . S
O1070 Li1010 1.956 . S
O1070 Li1011 1.970 1_455 S
O1070 C1040 1.325 . S
O1071 Li1009 1.961 1_655 S
O1071 Li1010 1.970 1_655 S
O1071 Li1011 1.956 . S
O1071 C1046 1.325 . S
H1072 C1014 0.929 . S
H1073 C1015 0.930 . S
H1074 C1016 0.930 . S
H1075 C1017 0.930 . S
H1076 C1019 0.930 . S
H1077 C1021 0.929 . S
H1078 C1022 0.930 . S
H1079 C1023 0.930 . S
H1080 C1026 0.930 . S
H1081 C1029 0.929 . S
H1082 C1034 0.929 . S
H1083 C1035 0.930 . S
H1084 C1042 0.929 . S
H1085 C1043 0.930 . S
H1086 C1044 0.930 . S
H1087 C1045 0.930 . S
H1088 C1047 0.929 . S
H1089 C1048 0.930 . S
H1090 C1049 0.930 . S
H1091 C1050 0.930 . S
H1092 C1054 0.929 . S
H1093 C1056 0.930 . S
H1094 C1062 0.929 . S
H1095 C1063 0.930 . S
Li1096 N1113 1.990 . S
Li1096 O1156 1.956 . S
Li1096 O1157 1.970 . S
Li1096 O1158 1.961 . S
Li1097 N1121 1.990 . S
Li1097 O1156 1.970 . S
Li1097 O1157 1.956 . S
Li1097 O1159 1.961 . S
Li1098 N1143 1.990 . S
Li1098 O1156 1.961 . S
Li1098 O1158 1.956 . S
Li1098 O1159 1.970 . S
Li1099 N1149 1.990 . S
Li1099 O1157 1.961 . S
Li1099 O1158 1.970 . S
Li1099 O1159 1.956 . S
C1100 C1102 1.348 . S
C1100 C1103 1.356 . S
C1100 O1156 1.325 . S
N1101 C1104 1.314 . S
N1101 C1105 1.279 . S
C1102 C1100 1.348 . S
C1102 C1104 1.353 . S
C1102 H1160 0.929 . S
C1103 C1100 1.356 . S
C1103 C1105 1.358 . S
C1103 H1161 0.930 . S
C1104 N1101 1.314 . S
C1104 C1102 1.353 . S
C1104 H1162 0.930 . S
C1105 N1101 1.279 . S
C1105 C1103 1.358 . S
C1105 H1163 0.930 . S
C1106 C1109 1.348 . S
C1106 C1110 1.356 . S
C1106 O1157 1.325 . S
C1107 N1108 1.279 . S
C1107 C1110 1.358 . S
C1107 H1164 0.930 . S
N1108 C1107 1.279 . S
N1108 C1111 1.314 . S
C1109 C1106 1.348 . S
C1109 C1111 1.353 . S
C1109 H1165 0.929 . S
C1110 C1106 1.356 . S
C1110 C1107 1.358 . S
C1110 H1166 0.930 . S
C1111 N1108 1.314 . S
C1111 C1109 1.353 . S
C1111 H1167 0.930 . S
C1112 N1113 1.314 . S
C1112 C1117 1.353 . S
C1112 H1118 0.930 . S
N1113 Li1096 1.990 . S
N1113 C1112 1.314 . S
N1113 C1115 1.279 . S
C1114 C1115 1.358 . S
C1114 C1116 1.356 . S
C1114 H1168 0.930 . S
C1115 N1113 1.279 . S
C1115 C1114 1.358 . S
C1115 H1119 0.930 . S
C1116 C1114 1.356 . S
C1116 C1117 1.348 . S
C1117 C1112 1.353 . S
C1117 C1116 1.348 . S
C1117 H1169 0.929 . S
H1118 C1112 0.930 . S
H1119 C1115 0.930 . S
C1120 N1121 1.314 . S
C1120 C1122 1.353 . S
C1120 H1126 0.930 . S
N1121 Li1097 1.990 . S
N1121 C1120 1.314 . S
N1121 C1124 1.279 . S
C1122 C1120 1.353 . S
C1122 C1125 1.348 . S
C1122 H1170 0.929 . S
C1123 C1124 1.358 . S
C1123 C1125 1.356 . S
C1123 H1171 0.930 . S
C1124 N1121 1.279 . S
C1124 C1123 1.358 . S
C1124 H1127 0.930 . S
C1125 C1122 1.348 . S
C1125 C1123 1.356 . S
H1126 C1120 0.930 . S
H1127 C1124 0.930 . S
C1128 C1130 1.348 . S
C1128 C1131 1.356 . S
C1128 O1158 1.325 . S
N1129 C1132 1.314 . S
N1129 C1133 1.279 . S
C1130 C1128 1.348 . S
C1130 C1132 1.353 . S
C1130 H1172 0.929 . S
C1131 C1128 1.356 . S
C1131 C1133 1.358 . S
C1131 H1173 0.930 . S
C1132 N1129 1.314 . S
C1132 C1130 1.353 . S
C1132 H1174 0.930 . S
C1133 N1129 1.279 . S
C1133 C1131 1.358 . S
C1133 H1175 0.930 . S
C1134 C1135 1.348 . S
C1134 C1136 1.356 . S
C1134 O1159 1.325 . S
C1135 C1134 1.348 . S
C1135 C1137 1.353 . S
C1135 H1176 0.929 . S
C1136 C1134 1.356 . S
C1136 C1138 1.358 . S
C1136 H1177 0.930 . S
C1137 C1135 1.353 . S
C1137 N1139 1.314 . S
C1137 H1178 0.930 . S
C1138 C1136 1.358 . S
C1138 N1139 1.279 . S
C1138 H1179 0.930 . S
N1139 C1137 1.314 . S
N1139 C1138 1.279 . S
C1140 C1142 1.353 . S
C1140 N1143 1.314 . S
C1140 H1146 0.930 . S
C1141 N1143 1.279 . S
C1141 C1144 1.358 . S
C1141 H1147 0.930 . S
C1142 C1140 1.353 . S
C1142 C1145 1.348 . S
C1142 H1180 0.929 . S
N1143 Li1098 1.990 . S
N1143 C1140 1.314 . S
N1143 C1141 1.279 . S
C1144 C1141 1.358 . S
C1144 C1145 1.356 . S
C1144 H1181 0.930 . S
C1145 C1142 1.348 . S
C1145 C1144 1.356 . S
H1146 C1140 0.930 . S
H1147 C1141 0.930 . S
C1148 N1149 1.314 . S
C1148 C1150 1.353 . S
C1148 H1154 0.930 . S
N1149 Li1099 1.990 . S
N1149 C1148 1.314 . S
N1149 C1152 1.279 . S
C1150 C1148 1.353 . S
C1150 C1153 1.348 . S
C1150 H1182 0.929 . S
C1151 C1152 1.358 . S
C1151 C1153 1.356 . S
C1151 H1183 0.930 . S
C1152 N1149 1.279 . S
C1152 C1151 1.358 . S
C1152 H1155 0.930 . S
C1153 C1150 1.348 . S
C1153 C1151 1.356 . S
H1154 C1148 0.930 . S
H1155 C1152 0.930 . S
O1156 Li1096 1.956 . S
O1156 Li1097 1.970 . S
O1156 Li1098 1.961 . S
O1156 C1100 1.325 . S
O1157 Li1096 1.970 . S
O1157 Li1097 1.956 . S
O1157 Li1099 1.961 . S
O1157 C1106 1.325 . S
O1158 Li1096 1.961 . S
O1158 Li1098 1.956 . S
O1158 Li1099 1.970 . S
O1158 C1128 1.325 . S
O1159 Li1097 1.961 . S
O1159 Li1098 1.970 . S
O1159 Li1099 1.956 . S
O1159 C1134 1.325 . S
H1160 C1102 0.929 . S
H1161 C1103 0.930 . S
H1162 C1104 0.930 . S
H1163 C1105 0.930 . S
H1164 C1107 0.930 . S
H1165 C1109 0.929 . S
H1166 C1110 0.930 . S
H1167 C1111 0.930 . S
H1168 C1114 0.930 . S
H1169 C1117 0.929 . S
H1170 C1122 0.929 . S
H1171 C1123 0.930 . S
H1172 C1130 0.929 . S
H1173 C1131 0.930 . S
H1174 C1132 0.930 . S
H1175 C1133 0.930 . S
H1176 C1135 0.929 . S
H1177 C1136 0.930 . S
H1178 C1137 0.930 . S
H1179 C1138 0.930 . S
H1180 C1142 0.929 . S
H1181 C1144 0.930 . S
H1182 C1150 0.929 . S
H1183 C1151 0.930 . S
Li1184 N1201 1.990 . S
Li1184 O1244 1.956 . S
Li1184 O1245 1.970 1_455 S
Li1184 O1246 1.961 . S
Li1185 N1209 1.990 . S
Li1185 O1244 1.970 1_655 S
Li1185 O1245 1.956 . S
Li1185 O1247 1.961 . S
Li1186 N1231 1.990 . S
Li1186 O1244 1.961 . S
Li1186 O1246 1.956 . S
Li1186 O1247 1.970 1_455 S
Li1187 N1237 1.990 . S
Li1187 O1245 1.961 . S
Li1187 O1246 1.970 1_655 S
Li1187 O1247 1.956 . S
C1188 C1190 1.348 1_455 S
C1188 C1191 1.356 . S
C1188 O1244 1.325 . S
N1189 C1192 1.349 . S
N1189 C1193 1.279 . S
C1190 C1188 1.348 1_655 S
C1190 C1192 1.347 1_655 S
C1190 H1248 0.929 . S
C1191 C1188 1.356 . S
C1191 C1193 1.358 . S
C1191 H1249 0.930 . S
C1192 N1189 1.349 . S
C1192 C1190 1.347 1_455 S
C1192 H1250 0.898 1_455 S
C1193 N1189 1.279 . S
C1193 C1191 1.358 . S
C1193 H1251 0.930 . S
C1194 C1197 1.348 . S
C1194 C1198 1.356 . S
C1194 O1245 1.325 . S
C1195 N1196 1.279 . S
C1195 C1198 1.358 . S
C1195 H1252 0.930 . S
N1196 C1195 1.279 . S
N1196 C1199 1.314 . S
C1197 C1194 1.348 . S
C1197 C1199 1.353 . S
C1197 H1253 0.929 . S
C1198 C1194 1.356 . S
C1198 C1195 1.358 . S
C1198 H1254 0.930 . S
C1199 N1196 1.314 . S
C1199 C1197 1.353 . S
C1199 H1255 0.930 . S
C1200 N1201 1.314 . S
C1200 C1205 1.353 . S
C1200 H1206 0.930 . S
N1201 Li1184 1.990 . S
N1201 C1200 1.314 . S
N1201 C1203 1.279 . S
C1202 C1203 1.358 . S
C1202 C1204 1.356 . S
C1202 H1256 0.930 . S
C1203 N1201 1.279 . S
C1203 C1202 1.358 . S
C1203 H1207 0.930 . S
C1204 C1202 1.356 . S
C1204 C1205 1.348 . S
C1205 C1200 1.353 . S
C1205 C1204 1.348 . S
C1205 H1257 0.929 . S
H1206 C1200 0.930 . S
H1207 C1203 0.930 . S
C1208 N1209 1.314 . S
C1208 C1210 1.353 . S
C1208 H1214 0.930 . S
N1209 Li1185 1.990 . S
N1209 C1208 1.314 . S
N1209 C1212 1.279 . S
C1210 C1208 1.353 . S
C1210 C1213 1.348 . S
C1210 H1258 0.929 . S
C1211 C1212 1.358 . S
C1211 C1213 1.356 . S
C1211 H1259 0.930 . S
C1212 N1209 1.279 . S
C1212 C1211 1.358 . S
C1212 H1215 0.930 . S
C1213 C1210 1.348 . S
C1213 C1211 1.356 . S
H1214 C1208 0.930 . S
H1215 C1212 0.930 . S
C1216 C1218 1.348 . S
C1216 C1219 1.356 . S
C1216 O1246 1.325 . S
N1217 C1220 1.314 . S
N1217 C1221 1.279 . S
C1218 C1216 1.348 . S
C1218 C1220 1.353 . S
C1218 H1260 0.929 . S
C1219 C1216 1.356 . S
C1219 C1221 1.358 . S
C1219 H1261 0.930 . S
C1220 N1217 1.314 . S
C1220 C1218 1.353 . S
C1220 H1262 0.930 . S
C1221 N1217 1.279 . S
C1221 C1219 1.358 . S
C1221 H1263 0.930 . S
C1222 C1223 1.348 1_655 S
C1222 C1224 1.356 . S
C1222 O1247 1.325 . S
C1223 C1222 1.348 1_455 S
C1223 C1225 1.353 1_455 S
C1223 H1264 0.929 . S
C1224 C1222 1.356 . S
C1224 C1226 1.358 . S
C1224 H1265 0.930 . S
C1225 C1223 1.353 1_655 S
C1225 N1227 1.314 . S
C1225 H1266 0.930 1_655 S
C1226 C1224 1.358 . S
C1226 N1227 1.279 . S
C1226 H1267 0.930 . S
N1227 C1225 1.314 . S
N1227 C1226 1.279 . S
C1228 C1230 1.353 . S
C1228 N1231 1.314 . S
C1228 H1234 0.930 . S
C1229 N1231 1.279 . S
C1229 C1232 1.358 . S
C1229 H1235 0.930 . S
C1230 C1228 1.353 . S
C1230 C1233 1.348 . S
C1230 H1268 0.929 . S
N1231 Li1186 1.990 . S
N1231 C1228 1.314 . S
N1231 C1229 1.279 . S
C1232 C1229 1.358 . S
C1232 C1233 1.356 . S
C1232 H1269 0.930 . S
C1233 C1230 1.348 . S
C1233 C1232 1.356 . S
H1234 C1228 0.930 . S
H1235 C1229 0.930 . S
C1236 N1237 1.314 . S
C1236 C1238 1.353 . S
C1236 H1242 0.930 . S
N1237 Li1187 1.990 . S
N1237 C1236 1.314 . S
N1237 C1240 1.279 . S
C1238 C1236 1.353 . S
C1238 C1241 1.348 . S
C1238 H1270 0.929 . S
C1239 C1240 1.358 . S
C1239 C1241 1.356 . S
C1239 H1271 0.930 . S
C1240 N1237 1.279 . S
C1240 C1239 1.358 . S
C1240 H1243 0.930 . S
C1241 C1238 1.348 . S
C1241 C1239 1.356 . S
H1242 C1236 0.930 . S
H1243 C1240 0.930 . S
O1244 Li1184 1.956 . S
O1244 Li1185 1.970 1_455 S
O1244 Li1186 1.961 . S
O1244 C1188 1.325 . S
O1245 Li1184 1.970 1_655 S
O1245 Li1185 1.956 . S
O1245 Li1187 1.961 . S
O1245 C1194 1.325 . S
O1246 Li1184 1.961 . S
O1246 Li1186 1.956 . S
O1246 Li1187 1.970 1_455 S
O1246 C1216 1.325 . S
O1247 Li1185 1.961 . S
O1247 Li1186 1.970 1_655 S
O1247 Li1187 1.956 . S
O1247 C1222 1.325 . S
H1248 C1190 0.929 . S
H1249 C1191 0.930 . S
H1250 C1192 0.898 1_655 S
H1251 C1193 0.930 . S
H1252 C1195 0.930 . S
H1253 C1197 0.929 . S
H1254 C1198 0.930 . S
H1255 C1199 0.930 . S
H1256 C1202 0.930 . S
H1257 C1205 0.929 . S
H1258 C1210 0.929 . S
H1259 C1211 0.930 . S
H1260 C1218 0.929 . S
H1261 C1219 0.930 . S
H1262 C1220 0.930 . S
H1263 C1221 0.930 . S
H1264 C1223 0.929 . S
H1265 C1224 0.930 . S
H1266 C1225 0.930 1_455 S
H1267 C1226 0.930 . S
H1268 C1230 0.929 . S
H1269 C1232 0.930 . S
H1270 C1238 0.929 . S
H1271 C1239 0.930 . S
Li1272 N1289 1.990 . S
Li1272 O1332 1.956 . S
Li1272 O1333 1.970 . S
Li1272 O1334 1.961 . S
Li1273 N1297 1.990 . S
Li1273 O1332 1.970 . S
Li1273 O1333 1.956 . S
Li1273 O1335 1.961 . S
Li1274 N1319 1.990 . S
Li1274 O1332 1.961 . S
Li1274 O1334 1.956 . S
Li1274 O1335 1.970 . S
Li1275 N1325 1.990 . S
Li1275 O1333 1.961 . S
Li1275 O1334 1.970 . S
Li1275 O1335 1.956 . S
C1276 C1278 1.348 . S
C1276 C1279 1.356 . S
C1276 O1332 1.325 . S
N1277 C1280 1.314 . S
N1277 C1281 1.279 . S
C1278 C1276 1.348 . S
C1278 C1280 1.353 . S
C1278 H1336 0.929 . S
C1279 C1276 1.356 . S
C1279 C1281 1.358 . S
C1279 H1337 0.930 . S
C1280 N1277 1.314 . S
C1280 C1278 1.353 . S
C1280 H1338 0.930 . S
C1281 N1277 1.279 . S
C1281 C1279 1.358 . S
C1281 H1339 0.930 . S
C1282 C1285 1.348 . S
C1282 C1286 1.356 . S
C1282 O1333 1.325 . S
C1283 N1284 1.279 . S
C1283 C1286 1.358 . S
C1283 H1340 0.930 . S
N1284 C1283 1.279 . S
N1284 C1287 1.314 . S
C1285 C1282 1.348 . S
C1285 C1287 1.353 . S
C1285 H1341 0.929 . S
C1286 C1282 1.356 . S
C1286 C1283 1.358 . S
C1286 H1342 0.930 . S
C1287 N1284 1.314 . S
C1287 C1285 1.353 . S
C1287 H1343 0.930 . S
C1288 N1289 1.314 . S
C1288 C1293 1.353 . S
C1288 H1294 0.930 . S
N1289 Li1272 1.990 . S
N1289 C1288 1.314 . S
N1289 C1291 1.279 . S
C1290 C1291 1.358 . S
C1290 C1292 1.356 . S
C1290 H1344 0.930 . S
C1291 N1289 1.279 . S
C1291 C1290 1.358 . S
C1291 H1295 0.930 . S
C1292 C1290 1.356 . S
C1292 C1293 1.348 . S
C1293 C1288 1.353 . S
C1293 C1292 1.348 . S
C1293 H1345 0.929 . S
H1294 C1288 0.930 . S
H1295 C1291 0.930 . S
C1296 N1297 1.314 . S
C1296 C1298 1.353 . S
C1296 H1302 0.930 . S
N1297 Li1273 1.990 . S
N1297 C1296 1.314 . S
N1297 C1300 1.279 . S
C1298 C1296 1.353 . S
C1298 C1301 1.348 . S
C1298 H1346 0.929 . S
C1299 C1300 1.358 . S
C1299 C1301 1.356 . S
C1299 H1347 0.930 . S
C1300 N1297 1.279 . S
C1300 C1299 1.358 . S
C1300 H1303 0.930 . S
C1301 C1298 1.348 . S
C1301 C1299 1.356 . S
H1302 C1296 0.930 . S
H1303 C1300 0.930 . S
C1304 C1306 1.348 . S
C1304 C1307 1.356 . S
C1304 O1334 1.325 . S
N1305 C1308 1.314 . S
N1305 C1309 1.279 . S
C1306 C1304 1.348 . S
C1306 C1308 1.353 . S
C1306 H1348 0.929 . S
C1307 C1304 1.356 . S
C1307 C1309 1.358 . S
C1307 H1349 0.930 . S
C1308 N1305 1.314 . S
C1308 C1306 1.353 . S
C1308 H1350 0.930 . S
C1309 N1305 1.279 . S
C1309 C1307 1.358 . S
C1309 H1351 0.930 . S
C1310 C1311 1.348 . S
C1310 C1312 1.356 . S
C1310 O1335 1.325 . S
C1311 C1310 1.348 . S
C1311 C1313 1.353 . S
C1311 H1352 0.929 . S
C1312 C1310 1.356 . S
C1312 C1314 1.358 . S
C1312 H1353 0.930 . S
C1313 C1311 1.353 . S
C1313 N1315 1.314 . S
C1313 H1354 0.930 . S
C1314 C1312 1.358 . S
C1314 N1315 1.279 . S
C1314 H1355 0.930 . S
N1315 C1313 1.314 . S
N1315 C1314 1.279 . S
C1316 C1318 1.353 . S
C1316 N1319 1.314 . S
C1316 H1322 0.930 . S
C1317 N1319 1.279 . S
C1317 C1320 1.358 . S
C1317 H1323 0.930 . S
C1318 C1316 1.353 . S
C1318 C1321 1.348 . S
C1318 H1356 0.929 . S
N1319 Li1274 1.990 . S
N1319 C1316 1.314 . S
N1319 C1317 1.279 . S
C1320 C1317 1.358 . S
C1320 C1321 1.356 . S
C1320 H1357 0.930 . S
C1321 C1318 1.348 . S
C1321 C1320 1.356 . S
H1322 C1316 0.930 . S
H1323 C1317 0.930 . S
C1324 N1325 1.314 . S
C1324 C1326 1.353 . S
C1324 H1330 0.930 . S
N1325 Li1275 1.990 . S
N1325 C1324 1.314 . S
N1325 C1328 1.279 . S
C1326 C1324 1.353 . S
C1326 C1329 1.348 . S
C1326 H1358 0.929 . S
C1327 C1328 1.358 . S
C1327 C1329 1.356 . S
C1327 H1359 0.930 . S
C1328 N1325 1.279 . S
C1328 C1327 1.358 . S
C1328 H1331 0.930 . S
C1329 C1326 1.348 . S
C1329 C1327 1.356 . S
H1330 C1324 0.930 . S
H1331 C1328 0.930 . S
O1332 Li1272 1.956 . S
O1332 Li1273 1.970 . S
O1332 Li1274 1.961 . S
O1332 C1276 1.325 . S
O1333 Li1272 1.970 . S
O1333 Li1273 1.956 . S
O1333 Li1275 1.961 . S
O1333 C1282 1.325 . S
O1334 Li1272 1.961 . S
O1334 Li1274 1.956 . S
O1334 Li1275 1.970 . S
O1334 C1304 1.325 . S
O1335 Li1273 1.961 . S
O1335 Li1274 1.970 . S
O1335 Li1275 1.956 . S
O1335 C1310 1.325 . S
H1336 C1278 0.929 . S
H1337 C1279 0.930 . S
H1338 C1280 0.930 . S
H1339 C1281 0.930 . S
H1340 C1283 0.930 . S
H1341 C1285 0.929 . S
H1342 C1286 0.930 . S
H1343 C1287 0.930 . S
H1344 C1290 0.930 . S
H1345 C1293 0.929 . S
H1346 C1298 0.929 . S
H1347 C1299 0.930 . S
H1348 C1306 0.929 . S
H1349 C1307 0.930 . S
H1350 C1308 0.930 . S
H1351 C1309 0.930 . S
H1352 C1311 0.929 . S
H1353 C1312 0.930 . S
H1354 C1313 0.930 . S
H1355 C1314 0.930 . S
H1356 C1318 0.929 . S
H1357 C1320 0.930 . S
H1358 C1326 0.929 . S
H1359 C1327 0.930 . S
C1360 C1361 1.369 . S
C1360 C1362 1.419 . S
C1360 H1364 0.930 . S
C1361 C1360 1.369 . S
C1361 C1370 1.429 . S
C1362 C1360 1.419 . S
C1362 C1363 1.363 . S
C1362 H1365 0.929 . S
C1363 C1362 1.363 . S
C1363 C1369 1.428 . S
H1364 C1360 0.930 . S
H1365 C1362 0.929 . S
S1366 N1367 1.613 . S
S1366 N1368 1.610 . S
N1367 S1366 1.613 . S
N1367 C1370 1.350 . S
N1368 S1366 1.610 . S
N1368 C1369 1.351 . S
C1369 C1363 1.428 . S
C1369 N1368 1.351 . S
C1369 C1370 1.434 . S
C1370 C1361 1.429 . S
C1370 N1367 1.350 . S
C1370 C1369 1.434 . S
C1371 C1372 1.369 . S
C1371 C1373 1.419 . S
C1371 H1375 0.930 . S
C1372 C1371 1.369 . S
C1372 C1381 1.429 . S
C1373 C1371 1.419 . S
C1373 C1374 1.363 . S
C1373 H1376 0.929 . S
C1374 C1373 1.363 . S
C1374 C1380 1.428 . S
H1375 C1371 0.930 . S
H1376 C1373 0.929 . S
S1377 N1378 1.617 1_655 S
S1377 N1379 1.606 1_655 S
N1378 S1377 1.617 1_455 S
N1378 C1381 1.373 . S
N1379 S1377 1.606 1_455 S
N1379 C1380 1.351 . S
C1380 C1374 1.428 . S
C1380 N1379 1.351 . S
C1380 C1381 1.434 . S
C1381 C1372 1.429 . S
C1381 N1378 1.373 . S
C1381 C1380 1.434 . S
C1382 C1383 1.369 . S
C1382 C1384 1.419 . S
C1382 H1386 0.930 . S
C1383 C1382 1.369 . S
C1383 C1392 1.429 . S
C1384 C1382 1.419 . S
C1384 C1385 1.363 . S
C1384 H1387 0.929 . S
C1385 C1384 1.363 . S
C1385 C1391 1.428 . S
H1386 C1382 0.930 . S
H1387 C1384 0.929 . S
S1388 N1389 1.613 . S
S1388 N1390 1.610 . S
N1389 S1388 1.613 . S
N1389 C1392 1.350 . S
N1390 S1388 1.610 . S
N1390 C1391 1.351 . S
C1391 C1385 1.428 . S
C1391 N1390 1.351 . S
C1391 C1392 1.434 . S
C1392 C1383 1.429 . S
C1392 N1389 1.350 . S
C1392 C1391 1.434 . S
C1393 C1394 1.369 1_545 S
C1393 C1395 1.419 . S
C1393 H1397 0.930 . S
C1394 C1393 1.369 1_565 S
C1394 C1403 1.429 . S
C1395 C1393 1.419 . S
C1395 C1396 1.363 . S
C1395 H1398 0.929 . S
C1396 C1395 1.363 . S
C1396 C1402 1.428 1_545 S
H1397 C1393 0.930 . S
H1398 C1395 0.929 . S
S1399 N1400 1.613 . S
S1399 N1401 1.610 . S
N1400 S1399 1.613 . S
N1400 C1403 1.350 . S
N1401 S1399 1.610 . S
N1401 C1402 1.351 . S
C1402 C1396 1.428 1_565 S
C1402 N1401 1.351 . S
C1402 C1403 1.434 . S
C1403 C1394 1.429 . S
C1403 N1400 1.350 . S
C1403 C1402 1.434 . S
C1404 C1405 1.369 . S
C1404 C1406 1.419 . S
C1404 H1408 0.930 . S
C1405 C1404 1.369 . S
C1405 C1414 1.429 . S
C1406 C1404 1.419 . S
C1406 C1407 1.363 . S
C1406 H1409 0.929 . S
C1407 C1406 1.363 . S
C1407 C1413 1.428 . S
H1408 C1404 0.930 . S
H1409 C1406 0.929 . S
S1410 N1411 1.613 . S
S1410 N1412 1.610 . S
N1411 S1410 1.613 . S
N1411 C1414 1.350 . S
N1412 S1410 1.610 . S
N1412 C1413 1.351 . S
C1413 C1407 1.428 . S
C1413 N1412 1.351 . S
C1413 C1414 1.434 . S
C1414 C1405 1.429 . S
C1414 N1411 1.350 . S
C1414 C1413 1.434 . S
C1415 C1416 1.369 . S
C1415 C1417 1.419 . S
C1415 H1419 0.930 . S
C1416 C1415 1.369 . S
C1416 C1425 1.429 . S
C1417 C1415 1.419 . S
C1417 C1418 1.363 . S
C1417 H1420 0.929 . S
C1418 C1417 1.363 . S
C1418 C1424 1.428 . S
H1419 C1415 0.930 . S
H1420 C1417 0.929 . S
S1421 N1422 1.613 . S
S1421 N1423 1.610 . S
N1422 S1421 1.613 . S
N1422 C1425 1.350 . S
N1423 S1421 1.610 . S
N1423 C1424 1.351 . S
C1424 C1418 1.428 . S
C1424 N1423 1.351 . S
C1424 C1425 1.434 . S
C1425 C1416 1.429 . S
C1425 N1422 1.350 . S
C1425 C1424 1.434 . S
C1426 C1427 1.369 . S
C1426 C1428 1.419 . S
C1426 H1430 0.930 . S
C1427 C1426 1.369 . S
C1427 C1436 1.429 . S
C1428 C1426 1.419 . S
C1428 C1429 1.363 . S
C1428 H1431 0.929 . S
C1429 C1428 1.363 . S
C1429 C1435 1.428 . S
H1430 C1426 0.930 . S
H1431 C1428 0.929 . S
S1432 N1433 1.613 . S
S1432 N1434 1.610 . S
N1433 S1432 1.613 . S
N1433 C1436 1.350 . S
N1434 S1432 1.610 . S
N1434 C1435 1.351 . S
C1435 C1429 1.428 . S
C1435 N1434 1.351 . S
C1435 C1436 1.434 . S
C1436 C1427 1.429 . S
C1436 N1433 1.350 . S
C1436 C1435 1.434 . S
C1437 C1438 1.378 . S
C1437 C1439 1.424 . S
C1437 H1441 0.916 1_565 S
C1438 C1437 1.378 . S
C1438 C1447 1.429 . S
C1439 C1437 1.424 . S
C1439 C1440 1.367 . S
C1439 H1442 0.927 1_565 S
C1440 C1439 1.367 . S
C1440 C1446 1.428 . S
H1441 C1437 0.916 1_545 S
H1442 C1439 0.927 1_545 S
S1443 N1444 1.613 . S
S1443 N1445 1.610 . S
N1444 S1443 1.613 . S
N1444 C1447 1.350 . S
N1445 S1443 1.610 . S
N1445 C1446 1.351 . S
C1446 C1440 1.428 . S
C1446 N1445 1.351 . S
C1446 C1447 1.434 . S
C1447 C1438 1.429 . S
C1447 N1444 1.350 . S
C1447 C1446 1.434 . S
C1448 C1449 1.369 . S
C1448 C1450 1.419 . S
C1448 H1452 0.930 . S
C1449 C1448 1.369 . S
C1449 C1458 1.429 . S
C1450 C1448 1.419 . S
C1450 C1451 1.363 . S
C1450 H1453 0.929 . S
C1451 C1450 1.363 . S
C1451 C1457 1.428 . S
H1452 C1448 0.930 . S
H1453 C1450 0.929 . S
S1454 N1455 1.613 . S
S1454 N1456 1.610 . S
N1455 S1454 1.613 . S
N1455 C1458 1.350 . S
N1456 S1454 1.610 . S
N1456 C1457 1.351 . S
C1457 C1451 1.428 . S
C1457 N1456 1.351 . S
C1457 C1458 1.434 . S
C1458 C1449 1.429 . S
C1458 N1455 1.350 . S
C1458 C1457 1.434 . S
C1459 C1460 1.369 . S
C1459 C1461 1.419 . S
C1459 H1463 0.930 . S
C1460 C1459 1.369 . S
C1460 C1469 1.429 . S
C1461 C1459 1.419 . S
C1461 C1462 1.363 . S
C1461 H1464 0.929 . S
C1462 C1461 1.363 . S
C1462 C1468 1.428 . S
H1463 C1459 0.930 . S
H1464 C1461 0.929 . S
S1465 N1466 1.613 . S
S1465 N1467 1.610 . S
N1466 S1465 1.613 . S
N1466 C1469 1.350 . S
N1467 S1465 1.610 . S
N1467 C1468 1.351 . S
C1468 C1462 1.428 . S
C1468 N1467 1.351 . S
C1468 C1469 1.434 . S
C1469 C1460 1.429 . S
C1469 N1466 1.350 . S
C1469 C1468 1.434 . S
C1470 C1471 1.369 . S
C1470 C1472 1.419 . S
C1470 H1474 0.930 . S
C1471 C1470 1.369 . S
C1471 C1480 1.429 . S
C1472 C1470 1.419 . S
C1472 C1473 1.363 . S
C1472 H1475 0.929 . S
C1473 C1472 1.363 . S
C1473 C1479 1.428 . S
H1474 C1470 0.930 . S
H1475 C1472 0.929 . S
S1476 N1477 1.613 . S
S1476 N1478 1.610 . S
N1477 S1476 1.613 . S
N1477 C1480 1.350 . S
N1478 S1476 1.610 . S
N1478 C1479 1.351 . S
C1479 C1473 1.428 . S
C1479 N1478 1.351 . S
C1479 C1480 1.434 . S
C1480 C1471 1.429 . S
C1480 N1477 1.350 . S
C1480 C1479 1.434 . S
C1481 C1482 1.369 . S
C1481 C1483 1.419 . S
C1481 H1485 0.930 . S
C1482 C1481 1.369 . S
C1482 C1491 1.429 . S
C1483 C1481 1.419 . S
C1483 C1484 1.363 . S
C1483 H1486 0.929 . S
C1484 C1483 1.363 . S
C1484 C1490 1.428 . S
H1485 C1481 0.930 . S
H1486 C1483 0.929 . S
S1487 N1488 1.613 . S
S1487 N1489 1.610 . S
N1488 S1487 1.613 . S
N1488 C1491 1.350 . S
N1489 S1487 1.610 . S
N1489 C1490 1.351 . S
C1490 C1484 1.428 . S
C1490 N1489 1.351 . S
C1490 C1491 1.434 . S
C1491 C1482 1.429 . S
C1491 N1488 1.350 . S
C1491 C1490 1.434 . S
C1492 C1493 1.369 . S
C1492 C1494 1.419 . S
C1492 H1496 0.930 . S
C1493 C1492 1.369 . S
C1493 C1502 1.429 . S
C1494 C1492 1.419 . S
C1494 C1495 1.363 . S
C1494 H1497 0.929 . S
C1495 C1494 1.363 . S
C1495 C1501 1.428 . S
H1496 C1492 0.930 . S
H1497 C1494 0.929 . S
S1498 N1499 1.613 . S
S1498 N1500 1.610 . S
N1499 S1498 1.613 . S
N1499 C1502 1.350 . S
N1500 S1498 1.610 . S
N1500 C1501 1.351 . S
C1501 C1495 1.428 . S
C1501 N1500 1.351 . S
C1501 C1502 1.434 . S
C1502 C1493 1.429 . S
C1502 N1499 1.350 . S
C1502 C1501 1.434 . S
C1503 C1504 1.369 . S
C1503 C1505 1.419 . S
C1503 H1507 0.930 . S
C1504 C1503 1.369 . S
C1504 C1513 1.429 . S
C1505 C1503 1.419 . S
C1505 C1506 1.363 . S
C1505 H1508 0.929 . S
C1506 C1505 1.363 . S
C1506 C1512 1.428 . S
H1507 C1503 0.930 . S
H1508 C1505 0.929 . S
S1509 N1510 1.613 . S
S1509 N1511 1.610 . S
N1510 S1509 1.613 . S
N1510 C1513 1.350 . S
N1511 S1509 1.610 . S
N1511 C1512 1.351 . S
C1512 C1506 1.428 . S
C1512 N1511 1.351 . S
C1512 C1513 1.434 . S
C1513 C1504 1.429 . S
C1513 N1510 1.350 . S
C1513 C1512 1.434 . S
C1514 C1515 1.369 . S
C1514 C1516 1.419 . S
C1514 H1518 0.930 . S
C1515 C1514 1.369 . S
C1515 C1524 1.429 . S
C1516 C1514 1.419 . S
C1516 C1517 1.363 . S
C1516 H1519 0.929 . S
C1517 C1516 1.363 . S
C1517 C1523 1.428 . S
H1518 C1514 0.930 . S
H1519 C1516 0.929 . S
S1520 N1521 1.613 . S
S1520 N1522 1.610 . S
N1521 S1520 1.613 . S
N1521 C1524 1.350 . S
N1522 S1520 1.610 . S
N1522 C1523 1.351 . S
C1523 C1517 1.428 . S
C1523 N1522 1.351 . S
C1523 C1524 1.434 . S
C1524 C1515 1.429 . S
C1524 N1521 1.350 . S
C1524 C1523 1.434 . S
C1525 C1526 1.369 . S
C1525 C1527 1.419 . S
C1525 H1529 0.930 . S
C1526 C1525 1.369 . S
C1526 C1535 1.429 . S
C1527 C1525 1.419 . S
C1527 C1528 1.363 . S
C1527 H1530 0.929 . S
C1528 C1527 1.363 . S
C1528 C1534 1.428 . S
H1529 C1525 0.930 . S
H1530 C1527 0.929 . S
S1531 N1532 1.613 . S
S1531 N1533 1.610 . S
N1532 S1531 1.613 . S
N1532 C1535 1.350 1_455 S
N1533 S1531 1.610 . S
N1533 C1534 1.351 1_455 S
C1534 C1528 1.428 . S
C1534 N1533 1.351 1_655 S
C1534 C1535 1.434 . S
C1535 C1526 1.429 . S
C1535 N1532 1.350 1_655 S
C1535 C1534 1.434 . S
C1536 C1537 1.369 . S
C1536 C1538 1.419 . S
C1536 H1540 0.930 . S
C1537 C1536 1.369 . S
C1537 C1546 1.429 . S
C1538 C1536 1.419 . S
C1538 C1539 1.363 . S
C1538 H1541 0.929 . S
C1539 C1538 1.363 . S
C1539 C1545 1.428 . S
H1540 C1536 0.930 . S
H1541 C1538 0.929 . S
S1542 N1543 1.613 . S
S1542 N1544 1.610 . S
N1543 S1542 1.613 . S
N1543 C1546 1.350 . S
N1544 S1542 1.610 . S
N1544 C1545 1.351 . S
C1545 C1539 1.428 . S
C1545 N1544 1.351 . S
C1545 C1546 1.434 . S
C1546 C1537 1.429 . S
C1546 N1543 1.350 . S
C1546 C1545 1.434 . S
C1547 C1548 1.369 . S
C1547 C1549 1.419 . S
C1547 H1551 0.930 . S
C1548 C1547 1.369 . S
C1548 C1557 1.429 . S
C1549 C1547 1.419 . S
C1549 C1550 1.363 . S
C1549 H1552 0.929 . S
C1550 C1549 1.363 . S
C1550 C1556 1.428 . S
H1551 C1547 0.930 . S
H1552 C1549 0.929 . S
S1553 N1554 1.613 . S
S1553 N1555 1.610 . S
N1554 S1553 1.613 . S
N1554 C1557 1.350 . S
N1555 S1553 1.610 . S
N1555 C1556 1.351 . S
C1556 C1550 1.428 . S
C1556 N1555 1.351 . S
C1556 C1557 1.434 . S
C1557 C1548 1.429 . S
C1557 N1554 1.350 . S
C1557 C1556 1.434 . S
C1558 C1559 1.369 . S
C1558 C1560 1.413 1_546 S
C1558 H1562 0.930 . S
C1559 C1558 1.369 . S
C1559 C1568 1.429 1_546 S
C1560 C1558 1.413 1_564 S
C1560 C1561 1.369 . S
C1560 H1563 0.929 1_554 S
C1561 C1560 1.369 . S
C1561 C1567 1.428 . S
H1562 C1558 0.930 . S
H1563 C1560 0.929 1_556 S
S1564 N1565 1.613 . S
S1564 N1566 1.610 . S
N1565 S1564 1.613 . S
N1565 C1568 1.350 . S
N1566 S1564 1.610 . S
N1566 C1567 1.351 . S
C1567 C1561 1.428 . S
C1567 N1566 1.351 . S
C1567 C1568 1.434 . S
C1568 C1559 1.429 1_564 S
C1568 N1565 1.350 . S
C1568 C1567 1.434 . S
C1569 C1570 1.369 . S
C1569 C1571 1.419 . S
C1569 H1573 0.930 . S
C1570 C1569 1.369 . S
C1570 C1579 1.429 . S
C1571 C1569 1.419 . S
C1571 C1572 1.363 . S
C1571 H1574 0.929 . S
C1572 C1571 1.363 . S
C1572 C1578 1.428 . S
H1573 C1569 0.930 . S
H1574 C1571 0.929 . S
S1575 N1576 1.613 . S
S1575 N1577 1.610 . S
N1576 S1575 1.613 . S
N1576 C1579 1.350 . S
N1577 S1575 1.610 . S
N1577 C1578 1.351 . S
C1578 C1572 1.428 . S
C1578 N1577 1.351 . S
C1578 C1579 1.434 . S
C1579 C1570 1.429 . S
C1579 N1576 1.350 . S
C1579 C1578 1.434 . S
C1580 C1581 1.369 . S
C1580 C1582 1.419 . S
C1580 H1584 0.930 . S
C1581 C1580 1.369 . S
C1581 C1590 1.429 . S
C1582 C1580 1.419 . S
C1582 C1583 1.363 . S
C1582 H1585 0.929 . S
C1583 C1582 1.363 . S
C1583 C1589 1.428 . S
H1584 C1580 0.930 . S
H1585 C1582 0.929 . S
S1586 N1587 1.613 . S
S1586 N1588 1.610 1_565 S
N1587 S1586 1.613 . S
N1587 C1590 1.350 1_565 S
N1588 S1586 1.610 1_545 S
N1588 C1589 1.351 . S
C1589 C1583 1.428 . S
C1589 N1588 1.351 . S
C1589 C1590 1.434 . S
C1590 C1581 1.429 . S
C1590 N1587 1.350 1_545 S
C1590 C1589 1.434 . S
C1591 C1592 1.369 . S
C1591 C1593 1.419 . S
C1591 H1595 0.930 . S
C1592 C1591 1.369 . S
C1592 C1601 1.429 . S
C1593 C1591 1.419 . S
C1593 C1594 1.363 . S
C1593 H1596 0.929 . S
C1594 C1593 1.363 . S
C1594 C1600 1.428 . S
H1595 C1591 0.930 . S
H1596 C1593 0.929 . S
S1597 N1598 1.613 . S
S1597 N1599 1.610 . S
N1598 S1597 1.613 . S
N1598 C1601 1.350 . S
N1599 S1597 1.610 . S
N1599 C1600 1.351 . S
C1600 C1594 1.428 . S
C1600 N1599 1.351 . S
C1600 C1601 1.434 . S
C1601 C1592 1.429 . S
C1601 N1598 1.350 . S
C1601 C1600 1.434 . S
C1602 C1603 1.369 . S
C1602 C1604 1.419 . S
C1602 H1606 0.930 . S
C1603 C1602 1.369 . S
C1603 C1612 1.429 . S
C1604 C1602 1.419 . S
C1604 C1605 1.363 . S
C1604 H1607 0.929 . S
C1605 C1604 1.363 . S
C1605 C1611 1.428 . S
H1606 C1602 0.930 . S
H1607 C1604 0.929 . S
S1608 N1609 1.613 . S
S1608 N1610 1.610 . S
N1609 S1608 1.613 . S
N1609 C1612 1.350 . S
N1610 S1608 1.610 . S
N1610 C1611 1.351 . S
C1611 C1605 1.428 . S
C1611 N1610 1.351 . S
C1611 C1612 1.434 . S
C1612 C1603 1.429 . S
C1612 N1609 1.350 . S
C1612 C1611 1.434 . S
C1613 C1614 1.369 . S
C1613 C1615 1.419 . S
C1613 H1617 0.930 . S
C1614 C1613 1.369 . S
C1614 C1623 1.429 . S
C1615 C1613 1.419 . S
C1615 C1616 1.363 . S
C1615 H1618 0.929 . S
C1616 C1615 1.363 . S
C1616 C1622 1.428 . S
H1617 C1613 0.930 . S
H1618 C1615 0.929 . S
S1619 N1620 1.613 . S
S1619 N1621 1.610 . S
N1620 S1619 1.613 . S
N1620 C1623 1.350 . S
N1621 S1619 1.610 . S
N1621 C1622 1.351 . S
C1622 C1616 1.428 . S
C1622 N1621 1.351 . S
C1622 C1623 1.434 . S
C1623 C1614 1.429 . S
C1623 N1620 1.350 . S
C1623 C1622 1.434 . S
C1624 C1625 1.369 . S
C1624 C1626 1.419 . S
C1624 H1628 0.930 . S
C1625 C1624 1.369 . S
C1625 C1634 1.429 . S
C1626 C1624 1.419 . S
C1626 C1627 1.363 . S
C1626 H1629 0.929 . S
C1627 C1626 1.363 . S
C1627 C1633 1.428 . S
H1628 C1624 0.930 . S
H1629 C1626 0.929 . S
S1630 N1631 1.613 . S
S1630 N1632 1.610 . S
N1631 S1630 1.613 . S
N1631 C1634 1.350 . S
N1632 S1630 1.610 . S
N1632 C1633 1.351 . S
C1633 C1627 1.428 . S
C1633 N1632 1.351 . S
C1633 C1634 1.434 . S
C1634 C1625 1.429 . S
C1634 N1631 1.350 . S
C1634 C1633 1.434 . S
C1635 C1636 1.369 . S
C1635 C1637 1.419 . S
C1635 H1639 0.930 . S
C1636 C1635 1.369 . S
C1636 C1645 1.429 . S
C1637 C1635 1.419 . S
C1637 C1638 1.363 . S
C1637 H1640 0.929 . S
C1638 C1637 1.363 . S
C1638 C1644 1.428 . S
H1639 C1635 0.930 . S
H1640 C1637 0.929 . S
S1641 N1642 1.613 1_565 S
S1641 N1643 1.610 1_565 S
N1642 S1641 1.613 1_545 S
N1642 C1645 1.350 . S
N1643 S1641 1.610 1_545 S
N1643 C1644 1.351 . S
C1644 C1638 1.428 . S
C1644 N1643 1.351 . S
C1644 C1645 1.434 . S
C1645 C1636 1.429 . S
C1645 N1642 1.350 . S
C1645 C1644 1.434 . S
C1646 C1647 1.369 . S
C1646 C1648 1.419 . S
C1646 H1650 0.930 . S
C1647 C1646 1.369 . S
C1647 C1656 1.429 . S
C1648 C1646 1.419 . S
C1648 C1649 1.363 . S
C1648 H1651 0.929 . S
C1649 C1648 1.363 . S
C1649 C1655 1.428 . S
H1650 C1646 0.930 . S
H1651 C1648 0.929 . S
S1652 N1653 1.613 . S
S1652 N1654 1.610 . S
N1653 S1652 1.613 . S
N1653 C1656 1.350 . S
N1654 S1652 1.610 . S
N1654 C1655 1.351 . S
C1655 C1649 1.428 . S
C1655 N1654 1.351 . S
C1655 C1656 1.434 . S
C1656 C1647 1.429 . S
C1656 N1653 1.350 . S
C1656 C1655 1.434 . S
C1657 C1658 1.369 . S
C1657 C1659 1.419 . S
C1657 H1661 0.930 . S
C1658 C1657 1.369 . S
C1658 C1667 1.429 . S
C1659 C1657 1.419 . S
C1659 C1660 1.363 . S
C1659 H1662 0.929 . S
C1660 C1659 1.363 . S
C1660 C1666 1.428 . S
H1661 C1657 0.930 . S
H1662 C1659 0.929 . S
S1663 N1664 1.613 . S
S1663 N1665 1.610 . S
N1664 S1663 1.613 . S
N1664 C1667 1.350 . S
N1665 S1663 1.610 . S
N1665 C1666 1.351 . S
C1666 C1660 1.428 . S
C1666 N1665 1.351 . S
C1666 C1667 1.434 . S
C1667 C1658 1.429 . S
C1667 N1664 1.350 . S
C1667 C1666 1.434 . S
C1668 C1669 1.369 . S
C1668 C1670 1.419 . S
C1668 H1672 0.930 . S
C1669 C1668 1.369 . S
C1669 C1678 1.429 . S
C1670 C1668 1.419 . S
C1670 C1671 1.363 . S
C1670 H1673 0.929 . S
C1671 C1670 1.363 . S
C1671 C1677 1.428 . S
H1672 C1668 0.930 . S
H1673 C1670 0.929 . S
S1674 N1675 1.613 . S
S1674 N1676 1.610 . S
N1675 S1674 1.613 . S
N1675 C1678 1.350 . S
N1676 S1674 1.610 . S
N1676 C1677 1.351 . S
C1677 C1671 1.428 . S
C1677 N1676 1.351 . S
C1677 C1678 1.434 . S
C1678 C1669 1.429 . S
C1678 N1675 1.350 . S
C1678 C1677 1.434 . S
C1679 C1680 1.369 . S
C1679 C1681 1.419 . S
C1679 H1683 0.930 1_545 S
C1680 C1679 1.369 . S
C1680 C1689 1.429 . S
C1681 C1679 1.419 . S
C1681 C1682 1.363 . S
C1681 H1684 0.929 . S
C1682 C1681 1.363 . S
C1682 C1688 1.428 . S
H1683 C1679 0.930 1_565 S
H1684 C1681 0.929 . S
S1685 N1686 1.613 . S
S1685 N1687 1.610 . S
N1686 S1685 1.613 . S
N1686 C1689 1.350 1_655 S
N1687 S1685 1.610 . S
N1687 C1688 1.351 1_655 S
C1688 C1682 1.428 . S
C1688 N1687 1.351 1_455 S
C1688 C1689 1.434 . S
C1689 C1680 1.429 . S
C1689 N1686 1.350 1_455 S
C1689 C1688 1.434 . S
C1690 C1691 1.369 . S
C1690 C1692 1.419 . S
C1690 H1694 0.930 . S
C1691 C1690 1.369 . S
C1691 C1700 1.429 . S
C1692 C1690 1.419 . S
C1692 C1693 1.363 . S
C1692 H1695 0.929 . S
C1693 C1692 1.363 . S
C1693 C1699 1.428 . S
H1694 C1690 0.930 . S
H1695 C1692 0.929 . S
S1696 N1697 1.613 . S
S1696 N1698 1.610 . S
N1697 S1696 1.613 . S
N1697 C1700 1.350 . S
N1698 S1696 1.610 . S
N1698 C1699 1.351 . S
C1699 C1693 1.428 . S
C1699 N1698 1.351 . S
C1699 C1700 1.434 . S
C1700 C1691 1.429 . S
C1700 N1697 1.350 . S
C1700 C1699 1.434 . S
C1701 C1702 1.369 . S
C1701 C1703 1.419 . S
C1701 H1705 0.930 . S
C1702 C1701 1.369 . S
C1702 C1711 1.429 . S
C1703 C1701 1.419 . S
C1703 C1704 1.363 . S
C1703 H1706 0.929 . S
C1704 C1703 1.363 . S
C1704 C1710 1.428 . S
H1705 C1701 0.930 . S
H1706 C1703 0.929 . S
S1707 N1708 1.613 . S
S1707 N1709 1.610 . S
N1708 S1707 1.613 . S
N1708 C1711 1.350 . S
N1709 S1707 1.610 . S
N1709 C1710 1.351 . S
C1710 C1704 1.428 . S
C1710 N1709 1.351 . S
C1710 C1711 1.434 . S
C1711 C1702 1.429 . S
C1711 N1708 1.350 . S
C1711 C1710 1.434 . S
C1712 C1713 1.369 . S
C1712 C1714 1.419 . S
C1712 H1716 0.930 . S
C1713 C1712 1.369 . S
C1713 C1722 1.429 . S
C1714 C1712 1.419 . S
C1714 C1715 1.363 . S
C1714 H1717 0.929 . S
C1715 C1714 1.363 . S
C1715 C1721 1.428 . S
H1716 C1712 0.930 . S
H1717 C1714 0.929 . S
S1718 N1719 1.613 . S
S1718 N1720 1.610 . S
N1719 S1718 1.613 . S
N1719 C1722 1.350 . S
N1720 S1718 1.610 . S
N1720 C1721 1.351 . S
C1721 C1715 1.428 . S
C1721 N1720 1.351 . S
C1721 C1722 1.434 . S
C1722 C1713 1.429 . S
C1722 N1719 1.350 . S
C1722 C1721 1.434 . S
C1723 C1724 1.369 . S
C1723 C1725 1.419 . S
C1723 H1727 0.930 . S
C1724 C1723 1.369 . S
C1724 C1733 1.429 1_455 S
C1725 C1723 1.419 . S
C1725 C1726 1.363 . S
C1725 H1728 0.929 . S
C1726 C1725 1.363 . S
C1726 C1732 1.428 1_455 S
H1727 C1723 0.930 . S
H1728 C1725 0.929 . S
S1729 N1730 1.613 . S
S1729 N1731 1.610 . S
N1730 S1729 1.613 . S
N1730 C1733 1.350 . S
N1731 S1729 1.610 . S
N1731 C1732 1.351 . S
C1732 C1726 1.428 1_655 S
C1732 N1731 1.351 . S
C1732 C1733 1.434 . S
C1733 C1724 1.429 1_655 S
C1733 N1730 1.350 . S
C1733 C1732 1.434 . S
C1734 C1735 1.369 . S
C1734 C1736 1.419 . S
C1734 H1738 0.930 . S
C1735 C1734 1.369 . S
C1735 C1744 1.429 . S
C1736 C1734 1.419 . S
C1736 C1737 1.363 . S
C1736 H1739 0.929 . S
C1737 C1736 1.363 . S
C1737 C1743 1.428 . S
H1738 C1734 0.930 . S
H1739 C1736 0.929 . S
S1740 N1741 1.613 . S
S1740 N1742 1.610 . S
N1741 S1740 1.613 . S
N1741 C1744 1.350 . S
N1742 S1740 1.610 . S
N1742 C1743 1.351 . S
C1743 C1737 1.428 . S
C1743 N1742 1.351 . S
C1743 C1744 1.434 . S
C1744 C1735 1.429 . S
C1744 N1741 1.350 . S
C1744 C1743 1.434 . S
C1745 C1746 1.369 . S
C1745 C1747 1.419 . S
C1745 H1749 0.930 . S
C1746 C1745 1.369 . S
C1746 C1755 1.429 . S
C1747 C1745 1.419 . S
C1747 C1748 1.363 . S
C1747 H1750 0.929 . S
C1748 C1747 1.363 . S
C1748 C1754 1.428 . S
H1749 C1745 0.930 . S
H1750 C1747 0.929 . S
S1751 N1752 1.613 . S
S1751 N1753 1.610 . S
N1752 S1751 1.613 . S
N1752 C1755 1.350 . S
N1753 S1751 1.610 . S
N1753 C1754 1.351 . S
C1754 C1748 1.428 . S
C1754 N1753 1.351 . S
C1754 C1755 1.434 . S
C1755 C1746 1.429 . S
C1755 N1752 1.350 . S
C1755 C1754 1.434 . S
C1756 C1757 1.369 . S
C1756 C1758 1.419 . S
C1756 H1760 0.930 . S
C1757 C1756 1.369 . S
C1757 C1766 1.429 . S
C1758 C1756 1.419 . S
C1758 C1759 1.363 . S
C1758 H1761 0.929 . S
C1759 C1758 1.363 . S
C1759 C1765 1.428 . S
H1760 C1756 0.930 . S
H1761 C1758 0.929 . S
S1762 N1763 1.613 . S
S1762 N1764 1.610 . S
N1763 S1762 1.613 . S
N1763 C1766 1.350 . S
N1764 S1762 1.610 . S
N1764 C1765 1.351 . S
C1765 C1759 1.428 . S
C1765 N1764 1.351 . S
C1765 C1766 1.434 . S
C1766 C1757 1.429 . S
C1766 N1763 1.350 . S
C1766 C1765 1.434 . S
C1767 C1768 1.369 . S
C1767 C1769 1.419 . S
C1767 H1771 0.930 . S
C1768 C1767 1.369 . S
C1768 C1777 1.429 . S
C1769 C1767 1.419 . S
C1769 C1770 1.363 . S
C1769 H1772 0.929 . S
C1770 C1769 1.363 . S
C1770 C1776 1.428 . S
H1771 C1767 0.930 . S
H1772 C1769 0.929 . S
S1773 N1774 1.613 . S
S1773 N1775 1.610 . S
N1774 S1773 1.613 . S
N1774 C1777 1.350 . S
N1775 S1773 1.610 . S
N1775 C1776 1.351 . S
C1776 C1770 1.428 . S
C1776 N1775 1.351 . S
C1776 C1777 1.434 . S
C1777 C1768 1.429 . S
C1777 N1774 1.350 . S
C1777 C1776 1.434 . S
C1778 C1779 1.369 . S
C1778 C1780 1.419 . S
C1778 H1782 0.930 . S
C1779 C1778 1.369 . S
C1779 C1788 1.429 . S
C1780 C1778 1.419 . S
C1780 C1781 1.363 . S
C1780 H1783 0.929 . S
C1781 C1780 1.363 . S
C1781 C1787 1.428 . S
H1782 C1778 0.930 . S
H1783 C1780 0.929 . S
S1784 N1785 1.613 . S
S1784 N1786 1.610 . S
N1785 S1784 1.613 . S
N1785 C1788 1.350 . S
N1786 S1784 1.610 . S
N1786 C1787 1.351 . S
C1787 C1781 1.428 . S
C1787 N1786 1.351 . S
C1787 C1788 1.434 . S
C1788 C1779 1.429 . S
C1788 N1785 1.350 . S
C1788 C1787 1.434 . S
C1789 C1790 1.369 . S
C1789 C1791 1.419 . S
C1789 H1793 0.930 1_554 S
C1790 C1789 1.369 . S
C1790 C1799 1.429 . S
C1791 C1789 1.419 . S
C1791 C1792 1.363 . S
C1791 H1794 0.929 . S
C1792 C1791 1.363 . S
C1792 C1798 1.428 . S
H1793 C1789 0.930 1_556 S
H1794 C1791 0.929 . S
S1795 N1796 1.613 . S
S1795 N1797 1.610 . S
N1796 S1795 1.613 . S
N1796 C1799 1.350 . S
N1797 S1795 1.610 . S
N1797 C1798 1.351 . S
C1798 C1792 1.428 . S
C1798 N1797 1.351 . S
C1798 C1799 1.434 . S
C1799 C1790 1.429 . S
C1799 N1796 1.350 . S
C1799 C1798 1.434 . S
C1800 C1801 1.369 . S
C1800 C1802 1.419 . S
C1800 H1804 0.930 . S
C1801 C1800 1.369 . S
C1801 C1810 1.429 . S
C1802 C1800 1.419 . S
C1802 C1803 1.363 . S
C1802 H1805 0.929 . S
C1803 C1802 1.363 . S
C1803 C1809 1.428 . S
H1804 C1800 0.930 . S
H1805 C1802 0.929 . S
S1806 N1807 1.613 . S
S1806 N1808 1.610 . S
N1807 S1806 1.613 . S
N1807 C1810 1.350 . S
N1808 S1806 1.610 . S
N1808 C1809 1.351 . S
C1809 C1803 1.428 . S
C1809 N1808 1.351 . S
C1809 C1810 1.434 . S
C1810 C1801 1.429 . S
C1810 N1807 1.350 . S
C1810 C1809 1.434 . S
C1811 C1812 1.369 . S
C1811 C1813 1.419 . S
C1811 H1815 0.930 . S
C1812 C1811 1.369 . S
C1812 C1821 1.429 . S
C1813 C1811 1.419 . S
C1813 C1814 1.363 . S
C1813 H1816 0.929 . S
C1814 C1813 1.363 . S
C1814 C1820 1.428 . S
H1815 C1811 0.930 . S
H1816 C1813 0.929 . S
S1817 N1818 1.613 . S
S1817 N1819 1.610 . S
N1818 S1817 1.613 . S
N1818 C1821 1.350 . S
N1819 S1817 1.610 . S
N1819 C1820 1.351 . S
C1820 C1814 1.428 . S
C1820 N1819 1.351 . S
C1820 C1821 1.434 . S
C1821 C1812 1.429 . S
C1821 N1818 1.350 . S
C1821 C1820 1.434 . S
C1822 C1823 1.369 . S
C1822 C1824 1.419 . S
C1822 H1826 0.930 . S
C1823 C1822 1.369 . S
C1823 C1832 1.429 . S
C1824 C1822 1.419 . S
C1824 C1825 1.363 . S
C1824 H1827 0.929 . S
C1825 C1824 1.363 . S
C1825 C1831 1.428 . S
H1826 C1822 0.930 . S
H1827 C1824 0.929 . S
S1828 N1829 1.613 . S
S1828 N1830 1.610 . S
N1829 S1828 1.613 . S
N1829 C1832 1.350 . S
N1830 S1828 1.610 . S
N1830 C1831 1.351 . S
C1831 C1825 1.428 . S
C1831 N1830 1.351 . S
C1831 C1832 1.434 . S
C1832 C1823 1.429 . S
C1832 N1829 1.350 . S
C1832 C1831 1.434 . S
C1833 C1834 1.369 . S
C1833 C1835 1.419 . S
C1833 H1837 0.930 . S
C1834 C1833 1.369 . S
C1834 C1843 1.429 . S
C1835 C1833 1.419 . S
C1835 C1836 1.363 . S
C1835 H1838 0.929 . S
C1836 C1835 1.363 . S
C1836 C1842 1.428 . S
H1837 C1833 0.930 . S
H1838 C1835 0.929 . S
S1839 N1840 1.613 . S
S1839 N1841 1.610 . S
N1840 S1839 1.613 . S
N1840 C1843 1.350 . S
N1841 S1839 1.610 . S
N1841 C1842 1.351 . S
C1842 C1836 1.428 . S
C1842 N1841 1.351 . S
C1842 C1843 1.434 . S
C1843 C1834 1.429 . S
C1843 N1840 1.350 . S
C1843 C1842 1.434 . S
C1844 C1845 1.369 1_554 S
C1844 C1846 1.419 . S
C1844 H1848 0.930 . S
C1845 C1844 1.369 1_556 S
C1845 C1854 1.429 . S
C1846 C1844 1.419 . S
C1846 C1847 1.363 1_554 S
C1846 H1849 0.929 . S
C1847 C1846 1.363 1_556 S
C1847 C1853 1.428 . S
H1848 C1844 0.930 . S
H1849 C1846 0.929 . S
S1850 N1851 1.613 . S
S1850 N1852 1.610 . S
N1851 S1850 1.613 . S
N1851 C1854 1.350 . S
N1852 S1850 1.610 . S
N1852 C1853 1.351 . S
C1853 C1847 1.428 . S
C1853 N1852 1.351 . S
C1853 C1854 1.434 . S
C1854 C1845 1.429 . S
C1854 N1851 1.350 . S
C1854 C1853 1.434 . S
C1855 C1856 1.369 . S
C1855 C1857 1.419 . S
C1855 H1859 0.930 . S
C1856 C1855 1.369 . S
C1856 C1865 1.429 . S
C1857 C1855 1.419 . S
C1857 C1858 1.363 . S
C1857 H1860 0.929 . S
C1858 C1857 1.363 . S
C1858 C1864 1.428 . S
H1859 C1855 0.930 . S
H1860 C1857 0.929 . S
S1861 N1862 1.613 . S
S1861 N1863 1.610 . S
N1862 S1861 1.613 . S
N1862 C1865 1.350 . S
N1863 S1861 1.610 . S
N1863 C1864 1.351 . S
C1864 C1858 1.428 . S
C1864 N1863 1.351 . S
C1864 C1865 1.434 . S
C1865 C1856 1.429 . S
C1865 N1862 1.350 . S
C1865 C1864 1.434 . S
C1866 C1867 1.369 . S
C1866 C1868 1.419 . S
C1866 H1870 0.930 . S
C1867 C1866 1.369 . S
C1867 C1876 1.429 . S
C1868 C1866 1.419 . S
C1868 C1869 1.363 . S
C1868 H1871 0.929 . S
C1869 C1868 1.363 . S
C1869 C1875 1.428 1_554 S
H1870 C1866 0.930 . S
H1871 C1868 0.929 . S
S1872 N1873 1.613 . S
S1872 N1874 1.610 . S
N1873 S1872 1.613 . S
N1873 C1876 1.350 1_556 S
N1874 S1872 1.610 . S
N1874 C1875 1.351 . S
C1875 C1869 1.428 1_556 S
C1875 N1874 1.351 . S
C1875 C1876 1.434 1_556 S
C1876 C1867 1.429 . S
C1876 N1873 1.350 1_554 S
C1876 C1875 1.434 1_554 S
C1877 C1878 1.369 1_545 S
C1877 C1879 1.419 1_545 S
C1877 H1881 0.930 . S
C1878 C1877 1.369 1_565 S
C1878 C1887 1.429 . S
C1879 C1877 1.419 1_565 S
C1879 C1880 1.363 . S
C1879 H1882 0.929 1_565 S
C1880 C1879 1.363 . S
C1880 C1886 1.428 . S
H1881 C1877 0.930 . S
H1882 C1879 0.929 1_545 S
S1883 N1884 1.613 . S
S1883 N1885 1.610 . S
N1884 S1883 1.613 . S
N1884 C1887 1.350 . S
N1885 S1883 1.610 . S
N1885 C1886 1.351 . S
C1886 C1880 1.428 . S
C1886 N1885 1.351 . S
C1886 C1887 1.434 . S
C1887 C1878 1.429 . S
C1887 N1884 1.350 . S
C1887 C1886 1.434 . S
C1363 C353 1.879 . S
C1361 C101 1.866 . S
C1374 C412 1.141 . S
C1372 C125 1.041 . S
C1383 C139 2.053 . S
C1385 C529 2.045 . S
C1396 C597 1.830 . S
C1394 C82 1.859 . S
C1407 C676 1.632 . S
C1405 C196 1.665 . S
C1418 C801 1.888 . S
C1416 C234 1.903 . S
C1427 C220 0.912 . S
C1429 C861 0.937 . S
C1440 C969 1.710 . S
C1438 C173 1.708 . S
C1449 C211 1.390 . S
C1451 C1065 1.397 . S
C1462 C1125 1.167 . S
C1460 C182 1.137 . S
C1471 C201 1.372 . S
C1473 C1028 1.524 . S
C1484 C1145 1.412 . S
C1482 C239 1.368 . S
C1493 C135 1.684 . S
C1495 C1213 1.690 . S
C1504 C87 1.781 . S
C1506 C1204 1.942 . S
C1515 C106 1.125 . S
C1517 C1233 1.269 . S
C1526 C116 1.284 . S
C1528 C1241 1.312 . S
C1537 C59 1.908 . S
C1539 C625 1.921 . S
C1548 C268 2.217 . S
C1550 C588 2.224 . S
C1561 C324 1.261 . S
C1559 C291 1.279 . S
C1572 C421 1.483 . S
C1570 C163 1.366 . S
C1581 C78 2.038 1_545 S
C1583 C685 2.074 . S
C1594 C977 1.205 . S
C1592 C215 1.199 . S
C1605 C705 1.696 . S
C1603 C177 1.733 . S
C1616 C889 1.847 . S
C1614 C230 1.833 . S
C1627 C881 1.894 . S
C1625 C272 1.876 . S
C1636 C296 1.046 . S
C1638 C949 1.150 . S
C1647 C158 2.051 . S
C1649 C713 2.045 . S
C1660 C764 1.811 . S
C1658 C253 1.841 . S
C1669 C63 1.652 . S
C1671 C509 1.626 . S
C1682 C617 1.894 . S
C1680 C6 1.906 . S
C1693 C333 0.936 . S
C1691 C30 0.907 . S
C1704 C449 1.715 . S
C1702 C40 1.715 . S
C1713 C21 1.408 . S
C1715 C1153 1.403 . S
C1724 C49 1.101 . S
C1726 C1037 1.137 . S
C1735 C68 1.357 . S
C1737 C1116 1.515 . S
C1746 C11 1.411 . S
C1748 C1057 1.410 . S
C1759 C1301 1.659 . S
C1757 C154 1.658 . S
C1770 C1292 1.951 . S
C1768 C258 1.785 . S
C1781 C1321 1.311 . S
C1779 C277 1.164 . S
C1790 C287 1.284 1_554 S
C1792 C1329 1.320 . S
C1801 C192 1.905 . S
C1803 C793 1.919 . S
C1814 C773 2.204 . S
C1812 C97 2.190 . S
C1825 C852 1.256 . S
C1823 C120 1.279 . S
C1836 C940 1.488 . S
C1834 C144 1.372 . S
C1845 C249 2.034 . S
C1847 C500 2.075 . S
C1858 C441 1.228 . S
C1856 C25 1.220 . S
C1867 C44 1.702 . S
C1869 C537 1.662 . S
C1880 C361 1.848 . S
C1878 C2 1.831 1_565 S
