# Generated by pormake.
# Topology pyr, (3,6)-cn, num edge types: 1
# Building blocks:
#     Node 0, Type 0, BuildingBlock: BELTOD_clean_linker_0, # of connection points: 3
#     Node 1, Type 0, BuildingBlock: BELTOD_clean_linker_0, # of connection points: 3
#     Node 2, Type 0, BuildingBlock: BELTOD_clean_linker_0, # of connection points: 3
#     Node 3, Type 0, BuildingBlock: BELTOD_clean_linker_0, # of connection points: 3
#     Node 4, Type 0, BuildingBlock: BELTOD_clean_linker_0, # of connection points: 3
#     Node 5, Type 0, BuildingBlock: BELTOD_clean_linker_0, # of connection points: 3
#     Node 6, Type 0, BuildingBlock: BELTOD_clean_linker_0, # of connection points: 3
#     Node 7, Type 0, BuildingBlock: BELTOD_clean_linker_0, # of connection points: 3
#     Node 8, Type 1, BuildingBlock: BETDEL_clean_sbu_0, # of connection points: 6
#     Node 9, Type 1, BuildingBlock: BETDEL_clean_sbu_0, # of connection points: 6
#     Node 10, Type 1, BuildingBlock: BETDEL_clean_sbu_0, # of connection points: 6
#     Node 11, Type 1, BuildingBlock: BETDEL_clean_sbu_0, # of connection points: 6
#     Edge 12, Type (0, 1), BuildingBlock: XIVTED_clean_linker_0, # of connection points: 2
#     Edge 13, Type (0, 1), BuildingBlock: XIVTED_clean_linker_0, # of connection points: 2
#     Edge 14, Type (0, 1), BuildingBlock: XIVTED_clean_linker_0, # of connection points: 2
#     Edge 15, Type (0, 1), BuildingBlock: XIVTED_clean_linker_0, # of connection points: 2
#     Edge 16, Type (0, 1), BuildingBlock: XIVTED_clean_linker_0, # of connection points: 2
#     Edge 17, Type (0, 1), BuildingBlock: XIVTED_clean_linker_0, # of connection points: 2
#     Edge 18, Type (0, 1), BuildingBlock: XIVTED_clean_linker_0, # of connection points: 2
#     Edge 19, Type (0, 1), BuildingBlock: XIVTED_clean_linker_0, # of connection points: 2
#     Edge 20, Type (0, 1), BuildingBlock: XIVTED_clean_linker_0, # of connection points: 2
#     Edge 21, Type (0, 1), BuildingBlock: XIVTED_clean_linker_0, # of connection points: 2
#     Edge 22, Type (0, 1), BuildingBlock: XIVTED_clean_linker_0, # of connection points: 2
#     Edge 23, Type (0, 1), BuildingBlock: XIVTED_clean_linker_0, # of connection points: 2
#     Edge 24, Type (0, 1), BuildingBlock: XIVTED_clean_linker_0, # of connection points: 2
#     Edge 25, Type (0, 1), BuildingBlock: XIVTED_clean_linker_0, # of connection points: 2
#     Edge 26, Type (0, 1), BuildingBlock: XIVTED_clean_linker_0, # of connection points: 2
#     Edge 27, Type (0, 1), BuildingBlock: XIVTED_clean_linker_0, # of connection points: 2
#     Edge 28, Type (0, 1), BuildingBlock: XIVTED_clean_linker_0, # of connection points: 2
#     Edge 29, Type (0, 1), BuildingBlock: XIVTED_clean_linker_0, # of connection points: 2
#     Edge 30, Type (0, 1), BuildingBlock: XIVTED_clean_linker_0, # of connection points: 2
#     Edge 31, Type (0, 1), BuildingBlock: XIVTED_clean_linker_0, # of connection points: 2
#     Edge 32, Type (0, 1), BuildingBlock: XIVTED_clean_linker_0, # of connection points: 2
#     Edge 33, Type (0, 1), BuildingBlock: XIVTED_clean_linker_0, # of connection points: 2
#     Edge 34, Type (0, 1), BuildingBlock: XIVTED_clean_linker_0, # of connection points: 2
#     Edge 35, Type (0, 1), BuildingBlock: XIVTED_clean_linker_0, # of connection points: 2
# Relax obj value: 0.028
# Max RMSD: 0.092
# Mean RMSD: 0.040
data_MOF--net-pyr--node1-BETDEL_clean_sbu_0--node2-BELTOD_clean_linker_0--edge1-XIVTED_clean_linker_0
_symmetry_space_group_name_H-M    P1
_symmetry_Int_Tables_number       1
_symmetry_cell_setting            triclinic
loop_
_symmetry_equiv_pos_as_xyz
'x, y, z'
_cell_length_a     42.008255
_cell_length_b     44.151509
_cell_length_c     40.034112
_cell_angle_alpha  91.889805
_cell_angle_beta   89.304082
_cell_angle_gamma 94.872662
loop_
_atom_site_label
_atom_site_type_symbol
_atom_site_fract_x
_atom_site_fract_y
_atom_site_fract_z
_atom_type_partial_charge
P0 P 0.24701 0.244 0.22761 0.0
H1 H 0.31526 0.23739 0.21723 0.0
H2 H 0.34409 0.20465 0.17928 0.0
H3 H 0.2545 0.16688 0.13722 0.0
H4 H 0.22584 0.19959 0.17538 0.0
H5 H 0.19548 0.28078 0.2473 0.0
H6 H 0.16203 0.31185 0.21588 0.0
H7 H 0.22084 0.29901 0.12791 0.0
H8 H 0.25342 0.26691 0.15933 0.0
H9 H 0.25046 0.21075 0.28916 0.0
H10 H 0.18152 0.22038 0.21204 0.0
O11 O 0.27173 0.26268 0.25501 0.0
H12 H 0.21257 0.17412 0.31673 0.0
H13 H 0.14373 0.18397 0.23933 0.0
C14 C 0.26846 0.22065 0.19928 0.0
C15 C 0.30185 0.2221 0.19983 0.0
C16 C 0.31828 0.20351 0.178 0.0
C17 C 0.3015 0.18319 0.1553 0.0
C18 C 0.26801 0.18202 0.15471 0.0
C19 C 0.25164 0.20072 0.17645 0.0
C20 C 0.2263 0.2709 0.20541 0.0
C21 C 0.20127 0.28485 0.2213 0.0
C22 C 0.18229 0.3028 0.20329 0.0
C23 C 0.18848 0.30765 0.16917 0.0
C24 C 0.2149 0.29509 0.15389 0.0
C25 C 0.23369 0.27686 0.17191 0.0
C26 C 0.21845 0.21889 0.24915 0.0
C27 C 0.22705 0.20528 0.27843 0.0
C28 C 0.20552 0.18419 0.29394 0.0
C29 C 0.17514 0.17637 0.28023 0.0
C30 C 0.16673 0.18998 0.25077 0.0
C31 C 0.18833 0.21085 0.23521 0.0
P32 P 0.29941 0.84172 0.62547 0.0
H33 H 0.3613 0.86779 0.64807 0.0
H34 H 0.38184 0.88506 0.70265 0.0
H35 H 0.28963 0.85949 0.74739 0.0
H36 H 0.26968 0.84097 0.69251 0.0
H37 H 0.35391 0.81947 0.59032 0.0
H38 H 0.37474 0.76973 0.58543 0.0
H39 H 0.29371 0.73095 0.64161 0.0
H40 H 0.2728 0.78135 0.64652 0.0
H41 H 0.26038 0.88942 0.64828 0.0
H42 H 0.24699 0.80493 0.59113 0.0
O43 O 0.31784 0.86445 0.59745 0.0
H44 H 0.20664 0.90106 0.63471 0.0
H45 H 0.19248 0.81591 0.57817 0.0
C46 C 0.31372 0.85414 0.66615 0.0
C47 C 0.34546 0.86605 0.6696 0.0
C48 C 0.35711 0.87603 0.70086 0.0
C49 C 0.33717 0.87433 0.72938 0.0
C50 C 0.3056 0.86122 0.72599 0.0
C51 C 0.29406 0.85094 0.69459 0.0
C52 C 0.3114 0.80394 0.61806 0.0
C53 C 0.34022 0.80024 0.60108 0.0
C54 C 0.35232 0.77183 0.59861 0.0
C55 C 0.33594 0.74649 0.61329 0.0
C56 C 0.30668 0.75006 0.62983 0.0
C57 C 0.29469 0.77874 0.63255 0.0
C58 C 0.25742 0.84594 0.62148 0.0
C59 C 0.24539 0.87279 0.63382 0.0
C60 C 0.2145 0.8794 0.62605 0.0
C61 C 0.19504 0.8594 0.60539 0.0
C62 C 0.20686 0.83195 0.59394 0.0
C63 C 0.23793 0.82543 0.60166 0.0
P64 P 0.66978 0.29629 0.81084 0.0
H65 H 0.73465 0.28244 0.82596 0.0
H66 H 0.77835 0.31052 0.85622 0.0
H67 H 0.71829 0.38376 0.87743 0.0
H68 H 0.67478 0.35563 0.84627 0.0
H69 H 0.61194 0.25622 0.7995 0.0
H70 H 0.58125 0.22009 0.83497 0.0
H71 H 0.64045 0.25089 0.91895 0.0
H72 H 0.67102 0.28682 0.88343 0.0
H73 H 0.69431 0.33345 0.75698 0.0
H74 H 0.60393 0.31624 0.80797 0.0
O75 O 0.68579 0.27119 0.78499 0.0
H76 H 0.66996 0.36615 0.71853 0.0
H77 H 0.57893 0.34832 0.76871 0.0
C78 C 0.70176 0.31726 0.83333 0.0
C79 C 0.73094 0.30462 0.83692 0.0
C80 C 0.75583 0.3206 0.85455 0.0
C81 C 0.75188 0.34945 0.86923 0.0
C82 C 0.72231 0.36183 0.86599 0.0
C83 C 0.6974 0.34577 0.84829 0.0
C84 C 0.64349 0.27456 0.83879 0.0
C85 C 0.61778 0.25574 0.82575 0.0
C86 C 0.60028 0.23506 0.84607 0.0
C87 C 0.60849 0.23253 0.8798 0.0
C88 C 0.63374 0.25206 0.89301 0.0
C89 C 0.65108 0.27286 0.8727 0.0
C90 C 0.65085 0.322 0.78493 0.0
C91 C 0.66913 0.33671 0.75985 0.0
C92 C 0.65511 0.35527 0.73774 0.0
C93 C 0.62232 0.35947 0.7401 0.0
C94 C 0.60423 0.3456 0.76618 0.0
C95 C 0.61843 0.32702 0.78848 0.0
P96 P 0.78638 0.6869 0.28512 0.0
H97 H 0.84657 0.72309 0.27116 0.0
H98 H 0.87561 0.76571 0.30109 0.0
H99 H 0.80464 0.75957 0.3802 0.0
H100 H 0.77629 0.71657 0.35055 0.0
H101 H 0.77211 0.65431 0.22222 0.0
H102 H 0.80316 0.6233 0.18454 0.0
H103 H 0.88283 0.63559 0.25223 0.0
H104 H 0.85129 0.66632 0.29024 0.0
H105 H 0.71977 0.6631 0.27854 0.0
H106 H 0.79619 0.65668 0.34818 0.0
O107 O 0.76362 0.70568 0.26049 0.0
H108 H 0.68342 0.63247 0.31435 0.0
H109 H 0.75977 0.62567 0.38437 0.0
C110 C 0.81001 0.71566 0.30926 0.0
C111 C 0.83777 0.73032 0.29541 0.0
C112 C 0.85411 0.75505 0.31235 0.0
C113 C 0.84261 0.76605 0.34322 0.0
C114 C 0.81466 0.75132 0.35691 0.0
C115 C 0.79841 0.72658 0.33996 0.0
C116 C 0.80972 0.66335 0.25852 0.0
C117 C 0.79627 0.65038 0.22897 0.0
C118 C 0.81398 0.63251 0.20753 0.0
C119 C 0.84555 0.62726 0.21526 0.0
C120 C 0.85874 0.6397 0.24535 0.0
C121 C 0.84077 0.65726 0.26706 0.0
C122 C 0.76046 0.66277 0.31112 0.0
C123 C 0.72876 0.65504 0.30157 0.0
C124 C 0.70803 0.63728 0.32198 0.0
C125 C 0.71863 0.62672 0.35235 0.0
C126 C 0.75075 0.63381 0.36139 0.0
C127 C 0.77159 0.65144 0.34073 0.0
P128 P 0.84554 0.87275 0.92049 0.0
H129 H 0.81384 0.89592 0.97995 0.0
H130 H 0.75792 0.89996 0.99458 0.0
H131 H 0.72983 0.85462 0.90077 0.0
H132 H 0.78614 0.85176 0.88582 0.0
H133 H 0.90452 0.85341 0.94724 0.0
H134 H 0.92351 0.80326 0.95474 0.0
H135 H 0.83369 0.7609 0.9179 0.0
H136 H 0.81488 0.81099 0.91043 0.0
H137 H 0.81511 0.91114 0.87419 0.0
H138 H 0.89295 0.85331 0.87199 0.0
O139 O 0.86719 0.89919 0.94317 0.0
H140 H 0.82592 0.92326 0.81596 0.0
H141 H 0.90493 0.86645 0.81439 0.0
C142 C 0.80408 0.87412 0.93157 0.0
C143 C 0.79566 0.88689 0.96252 0.0
C144 C 0.76358 0.88882 0.97101 0.0
C145 C 0.73929 0.87761 0.94883 0.0
C146 C 0.74791 0.86388 0.91821 0.0
C147 C 0.78006 0.86214 0.90968 0.0
C148 C 0.85804 0.83592 0.92899 0.0
C149 C 0.88875 0.83334 0.94125 0.0
C150 C 0.89967 0.80471 0.94523 0.0
C151 C 0.88001 0.77824 0.93696 0.0
C152 C 0.84915 0.78093 0.92491 0.0
C153 C 0.83837 0.80958 0.92068 0.0
C154 C 0.85258 0.88059 0.87714 0.0
C155 C 0.83432 0.90078 0.86108 0.0
C156 C 0.8408 0.90799 0.82786 0.0
C157 C 0.86625 0.89574 0.81035 0.0
C158 C 0.88469 0.87574 0.82677 0.0
C159 C 0.87795 0.86831 0.85987 0.0
P160 P 0.78484 0.24912 0.29162 0.0
H161 H 0.7864 0.31464 0.30674 0.0
H162 H 0.74749 0.34643 0.33256 0.0
H163 H 0.68469 0.26599 0.3517 0.0
H164 H 0.72336 0.23452 0.32505 0.0
H165 H 0.84173 0.2172 0.2805 0.0
H166 H 0.87029 0.18396 0.31495 0.0
H167 H 0.80372 0.19757 0.39618 0.0
H168 H 0.77593 0.2314 0.3619 0.0
H169 H 0.76288 0.25613 0.22367 0.0
H170 H 0.75405 0.18756 0.29827 0.0
O171 O 0.81078 0.27133 0.26949 0.0
H172 H 0.72655 0.22418 0.18727 0.0
H173 H 0.71795 0.1555 0.26203 0.0
C174 C 0.75765 0.27226 0.31369 0.0
C175 C 0.76432 0.30385 0.31661 0.0
C176 C 0.74207 0.322 0.33156 0.0
C177 C 0.7128 0.3088 0.34402 0.0
C178 C 0.70667 0.27698 0.34179 0.0
C179 C 0.72888 0.25891 0.32674 0.0
C180 C 0.807 0.2271 0.31874 0.0
C181 C 0.83361 0.21336 0.30592 0.0
C182 C 0.8497 0.19411 0.32554 0.0
C183 C 0.83926 0.188 0.35834 0.0
C184 C 0.81269 0.2021 0.37121 0.0
C185 C 0.79665 0.22142 0.35154 0.0
C186 C 0.76159 0.22396 0.26336 0.0
C187 C 0.75362 0.23395 0.23192 0.0
C188 C 0.73289 0.21568 0.21116 0.0
C189 C 0.71941 0.18734 0.22182 0.0
C190 C 0.72777 0.17732 0.25325 0.0
C191 C 0.74865 0.19551 0.27385 0.0
P192 P 0.36956 0.6571 0.14233 0.0
H193 H 0.34257 0.59755 0.119 0.0
H194 H 0.29002 0.57838 0.09892 0.0
H195 H 0.25823 0.66888 0.11018 0.0
H196 H 0.31061 0.68743 0.13206 0.0
H197 H 0.39378 0.68861 0.08357 0.0
H198 H 0.40649 0.74212 0.07177 0.0
H199 H 0.37516 0.76717 0.17139 0.0
H200 H 0.36297 0.71322 0.18314 0.0
H201 H 0.33283 0.61416 0.1859 0.0
H202 H 0.41671 0.67748 0.19329 0.0
O203 O 0.39634 0.63831 0.12078 0.0
H204 H 0.34447 0.59435 0.24003 0.0
H205 H 0.4282 0.65786 0.24807 0.0
C206 C 0.33064 0.64396 0.12657 0.0
C207 C 0.3243 0.61327 0.11702 0.0
C208 C 0.29419 0.6024 0.10529 0.0
C209 C 0.26976 0.6221 0.10241 0.0
C210 C 0.27624 0.65293 0.11227 0.0
C211 C 0.30635 0.66369 0.12451 0.0
C212 C 0.37826 0.69694 0.1345 0.0
C213 C 0.38979 0.70561 0.10295 0.0
C214 C 0.39673 0.73629 0.09611 0.0
C215 C 0.39198 0.75905 0.12065 0.0
C216 C 0.37961 0.75024 0.15209 0.0
C217 C 0.37261 0.71943 0.15887 0.0
C218 C 0.37368 0.64767 0.18554 0.0
C219 C 0.35337 0.62438 0.19938 0.0
C220 C 0.36013 0.61286 0.23037 0.0
C221 C 0.38733 0.62443 0.24821 0.0
C222 C 0.40689 0.64869 0.23504 0.0
C223 C 0.4003 0.65997 0.20378 0.0
P224 P 0.20055 0.30214 0.70969 0.0
H225 H 0.21107 0.2386 0.69503 0.0
H226 H 0.17988 0.19715 0.66547 0.0
H227 H 0.10862 0.25824 0.64285 0.0
H228 H 0.14006 0.29984 0.67289 0.0
H229 H 0.25975 0.33942 0.72224 0.0
H230 H 0.29681 0.36935 0.68651 0.0
H231 H 0.23395 0.34846 0.60262 0.0
H232 H 0.1974 0.31774 0.63855 0.0
H233 H 0.16726 0.28949 0.77231 0.0
H234 H 0.17738 0.36304 0.70379 0.0
O235 O 0.22432 0.28576 0.73553 0.0
H236 H 0.1365 0.32009 0.81057 0.0
H237 H 0.14588 0.39371 0.74158 0.0
C238 C 0.17761 0.27218 0.68663 0.0
C239 C 0.18868 0.24313 0.68388 0.0
C240 C 0.17078 0.21939 0.66703 0.0
C241 C 0.14162 0.22433 0.65211 0.0
C242 C 0.13101 0.25375 0.65405 0.0
C243 C 0.14884 0.27748 0.67131 0.0
C244 C 0.22617 0.32584 0.68294 0.0
C245 C 0.25394 0.34129 0.69614 0.0
C246 C 0.275 0.35868 0.67567 0.0
C247 C 0.26855 0.3613 0.64151 0.0
C248 C 0.24003 0.34653 0.62862 0.0
C249 C 0.21899 0.32902 0.64919 0.0
C250 C 0.17504 0.32417 0.73553 0.0
C251 C 0.16255 0.31218 0.76537 0.0
C252 C 0.14475 0.32968 0.78714 0.0
C253 C 0.13885 0.35954 0.77937 0.0
C254 C 0.15048 0.37105 0.74872 0.0
C255 C 0.16836 0.35348 0.72696 0.0
Dy256 Dy 0.00036 0.00798 0.46503 0.0
C257 C 0.93944 0.96853 0.58606 0.0
C258 C 0.0283 0.03531 0.41076 0.0
Dy259 Dy 0.96576 0.99316 0.52951 0.0
O260 O 0.03905 0.01291 0.42604 0.0
O261 O 0.00187 0.04259 0.4248 0.0
O262 O 0.02443 0.96504 0.4671 0.0
O263 O 0.0145 0.98879 0.51199 0.0
C264 C 0.0251 0.96494 0.4995 0.0
C265 C 0.94088 0.03556 0.49388 0.0
O266 O 0.00397 0.02672 0.54992 0.0
O267 O 0.01692 0.04794 0.49898 0.0
O268 O 0.93221 0.99369 0.57348 0.0
O269 O 0.96112 0.9566 0.56773 0.0
O270 O 0.94076 0.03602 0.52628 0.0
O271 O 0.95189 0.01167 0.48249 0.0
O272 O 0.96409 0.97277 0.4442 0.0
O273 O 0.94803 0.95354 0.4956 0.0
C274 C 0.01817 0.04881 0.53209 0.0
C275 C 0.94861 0.95157 0.46239 0.0
Dy276 Dy 0.51349 0.0226 0.05045 0.0
C277 C 0.43975 0.96095 0.94003 0.0
C278 C 0.55602 0.06073 0.08569 0.0
Dy279 Dy 0.46928 0.99295 0.99168 0.0
O280 O 0.52743 0.05162 0.09594 0.0
O281 O 0.56135 0.04908 0.05612 0.0
O282 O 0.49965 0.98728 0.08934 0.0
O283 O 0.47917 0.98438 0.04266 0.0
C284 C 0.47945 0.97133 0.06998 0.0
C285 C 0.49679 0.04915 0.98197 0.0
O286 O 0.4338 0.0161 0.02352 0.0
O287 O 0.47177 0.05064 0.04933 0.0
O288 O 0.46672 0.97748 0.93828 0.0
O289 O 0.4286 0.96135 0.97061 0.0
O290 O 0.46933 0.03894 0.96985 0.0
O291 O 0.50925 0.02819 0.99652 0.0
O292 O 0.54592 0.99001 0.02857 0.0
O293 O 0.51051 0.96345 0.99096 0.0
C294 C 0.44184 0.04158 0.04118 0.0
C295 C 0.53848 0.96767 0.00638 0.0
Dy296 Dy 0.50739 0.47226 0.479 0.0
C297 C 0.44969 0.56193 0.56159 0.0
C298 C 0.54877 0.43822 0.44447 0.0
Dy299 Dy 0.48501 0.52251 0.5263 0.0
O300 O 0.51795 0.43192 0.44573 0.0
O301 O 0.55667 0.46302 0.46172 0.0
O302 O 0.45826 0.44789 0.47799 0.0
O303 O 0.47354 0.47363 0.52074 0.0
C304 C 0.44983 0.45905 0.50697 0.0
C305 C 0.54235 0.53498 0.49706 0.0
O306 O 0.50394 0.49286 0.56468 0.0
O307 O 0.53238 0.46424 0.527 0.0
O308 O 0.48067 0.56286 0.56126 0.0
O309 O 0.43792 0.5391 0.54303 0.0
O310 O 0.5351 0.54561 0.52657 0.0
O311 O 0.51799 0.521 0.48419 0.0
O312 O 0.48619 0.50011 0.44078 0.0
O313 O 0.45983 0.53106 0.47819 0.0
C314 C 0.52541 0.47302 0.55809 0.0
C315 C 0.46571 0.52087 0.44725 0.0
Dy316 Dy 0.00709 0.46803 0.01724 0.0
C317 C 0.96376 0.57606 0.96888 0.0
C318 C 0.03479 0.42103 0.04432 0.0
Dy319 Dy 0.99195 0.52531 0.98497 0.0
O320 O 0.01795 0.44001 0.06049 0.0
O321 O 0.036 0.42718 0.01279 0.0
O322 O 0.96547 0.4728 0.05188 0.0
O323 O 0.99305 0.51203 0.03661 0.0
C324 C 0.96881 0.50229 0.05325 0.0
C325 C 0.02911 0.49104 0.94726 0.0
O326 O 0.03338 0.54405 0.01594 0.0
O327 O 0.05345 0.49737 0.02057 0.0
O328 O 0.99017 0.56773 0.95576 0.0
O329 O 0.95266 0.55661 0.99059 0.0
O330 O 0.0307 0.52051 0.94649 0.0
O331 O 0.00598 0.48148 0.96549 0.0
O332 O 0.96518 0.44762 0.98847 0.0
O333 O 0.94768 0.49391 0.9739 0.0
C334 C 0.057 0.52742 0.02299 0.0
C335 C 0.94338 0.4638 0.97569 0.0
H336 H 0.18751 0.12173 0.30509 0.0
H337 H 0.01219 0.08666 0.38108 0.0
H338 H 0.11109 0.17946 0.29152 0.0
H339 H 0.08602 0.02459 0.38373 0.0
H340 H 0.04674 0.11974 0.34543 0.0
H341 H 0.14984 0.08499 0.3323 0.0
C342 C 0.16279 0.12668 0.30796 0.0
C343 C 0.15242 0.15373 0.29628 0.0
C344 C 0.05523 0.0987 0.35348 0.0
C345 C 0.10909 0.11174 0.32711 0.0
C346 C 0.03549 0.07981 0.3737 0.0
C347 C 0.04647 0.05307 0.38544 0.0
C348 C 0.08614 0.09077 0.34528 0.0
C349 C 0.07677 0.04515 0.37528 0.0
C350 C 0.14123 0.10561 0.32323 0.0
C351 C 0.12001 0.15879 0.30006 0.0
N352 N 0.09571 0.06409 0.35604 0.0
N353 N 0.09951 0.13807 0.31537 0.0
H354 H 0.32568 0.8516 0.79235 0.0
H355 H 0.45881 0.96713 0.87597 0.0
H356 H 0.37631 0.92603 0.74128 0.0
H357 H 0.38439 0.92234 0.93642 0.0
H358 H 0.43215 0.94598 0.82597 0.0
H359 H 0.34894 0.87214 0.8453 0.0
C360 C 0.34144 0.87231 0.79223 0.0
C361 C 0.34943 0.88683 0.76214 0.0
C362 C 0.42152 0.94073 0.8501 0.0
C363 C 0.37633 0.90996 0.82232 0.0
C364 C 0.43683 0.95267 0.87872 0.0
C365 C 0.42369 0.94652 0.91035 0.0
C366 C 0.39291 0.92216 0.85292 0.0
C367 C 0.39517 0.92763 0.91239 0.0
C368 C 0.35474 0.88391 0.82242 0.0
C369 C 0.37013 0.9135 0.76356 0.0
N370 N 0.38066 0.91595 0.88392 0.0
N371 N 0.38301 0.924 0.79301 0.0
H372 H 0.57622 0.40027 0.74866 0.0
H373 H 0.57317 0.43488 0.55347 0.0
H374 H 0.63363 0.3587 0.67275 0.0
H375 H 0.51225 0.47684 0.62585 0.0
H376 H 0.59625 0.40818 0.59802 0.0
H377 H 0.55261 0.42917 0.70524 0.0
C378 C 0.5838 0.39713 0.72293 0.0
C379 C 0.60718 0.37716 0.71445 0.0
C380 C 0.57788 0.42324 0.60433 0.0
C381 C 0.58046 0.41028 0.66475 0.0
C382 C 0.56463 0.43859 0.57879 0.0
C383 C 0.54056 0.45813 0.58579 0.0
C384 C 0.5671 0.42724 0.63739 0.0
C385 C 0.53075 0.46201 0.61926 0.0
C386 C 0.57044 0.41376 0.69819 0.0
C387 C 0.61621 0.37422 0.68068 0.0
N388 N 0.54398 0.44661 0.64383 0.0
N389 N 0.60289 0.39055 0.65722 0.0
H390 H 0.90725 0.64013 0.19344 0.0
H391 H 0.91373 0.48479 0.08628 0.0
H392 H 0.82691 0.57295 0.18341 0.0
H393 H 0.98123 0.56253 0.07177 0.0
H394 H 0.88378 0.51527 0.12567 0.0
H395 H 0.93729 0.61033 0.1531 0.0
C396 C 0.89603 0.61901 0.18291 0.0
C397 C 0.86452 0.609 0.19176 0.0
C398 C 0.90507 0.52573 0.11381 0.0
C399 C 0.89868 0.57489 0.14563 0.0
C400 C 0.92219 0.50834 0.09136 0.0
C401 C 0.95 0.52117 0.07584 0.0
C402 C 0.91604 0.55613 0.12116 0.0
C403 C 0.95988 0.5518 0.08324 0.0
C404 C 0.91308 0.60216 0.15972 0.0
C405 C 0.85103 0.58164 0.17709 0.0
N406 N 0.94302 0.56822 0.10558 0.0
N407 N 0.8682 0.5655 0.15489 0.0
H408 H 0.35569 0.19816 0.11915 0.0
H409 H 0.37795 0.02743 0.05496 0.0
H410 H 0.28702 0.12261 0.13984 0.0
H411 H 0.45036 0.10262 0.05013 0.0
H412 H 0.34019 0.06269 0.0778 0.0
H413 H 0.38671 0.16408 0.08549 0.0
C414 C 0.34715 0.17436 0.11656 0.0
C415 C 0.31902 0.1631 0.13267 0.0
C416 C 0.36429 0.0714 0.07142 0.0
C417 C 0.35433 0.12387 0.09405 0.0
C418 C 0.38572 0.05136 0.0583 0.0
C419 C 0.41736 0.06211 0.05123 0.0
C420 C 0.37471 0.10227 0.077 0.0
C421 C 0.42633 0.09327 0.0559 0.0
C422 C 0.36477 0.15491 0.09722 0.0
C423 C 0.30862 0.13219 0.1278 0.0
N424 N 0.4052 0.11216 0.06863 0.0
N425 N 0.32646 0.11353 0.10916 0.0
H426 H 0.15029 0.89088 0.6397 0.0
H427 H 0.05162 0.91497 0.47447 0.0
H428 H 0.16955 0.85015 0.54279 0.0
H429 H 0.0416 0.96803 0.56583 0.0
H430 H 0.08806 0.88423 0.50256 0.0
H431 H 0.10414 0.91271 0.61625 0.0
C432 C 0.1447 0.88627 0.61359 0.0
C433 C 0.16416 0.86886 0.59315 0.0
C434 C 0.07775 0.90242 0.51662 0.0
C435 C 0.11116 0.89358 0.56629 0.0
C436 C 0.05691 0.91997 0.50059 0.0
C437 C 0.044 0.94432 0.51776 0.0
C438 C 0.08586 0.90929 0.5501 0.0
C439 C 0.05133 0.94959 0.55165 0.0
C440 C 0.11828 0.89868 0.60028 0.0
C441 C 0.15525 0.86316 0.55968 0.0
N442 N 0.07209 0.93239 0.56668 0.0
N443 N 0.12963 0.87569 0.54728 0.0
H444 H 0.79464 0.32732 0.91154 0.0
H445 H 0.89486 0.48805 0.94307 0.0
H446 H 0.7704 0.41063 0.86846 0.0
H447 H 0.92449 0.40284 0.97644 0.0
H448 H 0.84708 0.46077 0.919 0.0
H449 H 0.84029 0.35532 0.93878 0.0
C450 C 0.79894 0.3515 0.90772 0.0
C451 C 0.77872 0.36657 0.88744 0.0
C452 C 0.86402 0.44806 0.93164 0.0
C453 C 0.83088 0.3989 0.91894 0.0
C454 C 0.89133 0.46363 0.94544 0.0
C455 C 0.91387 0.44773 0.96171 0.0
C456 C 0.8591 0.41636 0.9342 0.0
C457 C 0.9079 0.41608 0.96402 0.0
C458 C 0.82496 0.36751 0.92344 0.0
C459 C 0.78514 0.39808 0.88407 0.0
N460 N 0.88114 0.40146 0.95039 0.0
N461 N 0.81071 0.41316 0.89954 0.0
H462 H 0.67276 0.58119 0.33502 0.0
H463 H 0.59443 0.57186 0.51831 0.0
H464 H 0.71223 0.63252 0.42062 0.0
H465 H 0.55604 0.52118 0.43185 0.0
H466 H 0.64017 0.59136 0.48428 0.0
H467 H 0.63226 0.55606 0.37127 0.0
C468 C 0.67296 0.58713 0.36149 0.0
C469 C 0.69579 0.60923 0.37471 0.0
C470 C 0.62186 0.57579 0.47282 0.0
C471 C 0.64938 0.58041 0.41655 0.0
C472 C 0.59579 0.56465 0.49224 0.0
C473 C 0.57138 0.54503 0.47781 0.0
C474 C 0.62344 0.56725 0.43872 0.0
C475 C 0.57431 0.53634 0.44397 0.0
C476 C 0.64987 0.57267 0.38223 0.0
C477 C 0.69521 0.61554 0.40934 0.0
N478 N 0.59973 0.54763 0.42556 0.0
N479 N 0.67221 0.60141 0.42901 0.0
H480 H 0.15806 0.35785 0.18904 0.0
H481 H 0.07589 0.38238 0.01557 0.0
H482 H 0.16877 0.29616 0.10438 0.0
H483 H 0.03906 0.4131 0.11074 0.0
H484 H 0.11383 0.3536 0.04525 0.0
H485 H 0.11884 0.38284 0.15795 0.0
C486 C 0.15214 0.34946 0.16396 0.0
C487 C 0.16658 0.32464 0.14948 0.0
C488 C 0.09715 0.36642 0.0595 0.0
C489 C 0.12199 0.35354 0.11354 0.0
C490 C 0.07551 0.38268 0.04264 0.0
C491 C 0.05449 0.40012 0.06082 0.0
C492 C 0.09791 0.36818 0.09459 0.0
C493 C 0.05495 0.39997 0.0958 0.0
C494 C 0.12977 0.36379 0.14621 0.0
C495 C 0.15853 0.31539 0.11647 0.0
N496 N 0.07657 0.38454 0.11156 0.0
N497 N 0.13674 0.32988 0.09956 0.0
H498 H 0.63496 0.19509 0.92323 0.0
H499 H 0.46959 0.09612 0.95549 0.0
H500 H 0.54439 0.21476 0.88306 0.0
H501 H 0.56019 0.07001 0.98907 0.0
H502 H 0.49621 0.14328 0.93528 0.0
H503 H 0.60772 0.15295 0.95352 0.0
C504 C 0.60928 0.19083 0.92113 0.0
C505 C 0.59195 0.20843 0.9004 0.0
C506 C 0.51036 0.12743 0.94724 0.0
C507 C 0.56069 0.16001 0.93478 0.0
C508 C 0.49514 0.10048 0.95884 0.0
C509 C 0.5128 0.07904 0.97364 0.0
C510 C 0.54361 0.13302 0.95025 0.0
C511 C 0.54576 0.08597 0.97769 0.0
C512 C 0.59379 0.16663 0.93828 0.0
C513 C 0.55879 0.20156 0.89833 0.0
N514 N 0.56021 0.11229 0.96574 0.0
N515 N 0.54431 0.17787 0.91517 0.0
H516 H 0.86987 0.81816 0.3152 0.0
H517 H 0.91723 0.90152 0.4906 0.0
H518 H 0.85219 0.77676 0.41059 0.0
H519 H 0.94198 0.93984 0.39492 0.0
H520 H 0.89162 0.85645 0.46179 0.0
H521 H 0.89535 0.8633 0.34396 0.0
C522 C 0.87158 0.81839 0.34217 0.0
C523 C 0.85887 0.79346 0.36044 0.0
C524 C 0.90261 0.87473 0.44708 0.0
C525 C 0.88763 0.84551 0.39365 0.0
C526 C 0.91719 0.90057 0.46353 0.0
C527 C 0.93184 0.92461 0.4452 0.0
C528 C 0.90257 0.87284 0.41199 0.0
C529 C 0.93104 0.92193 0.41014 0.0
C530 C 0.88595 0.84433 0.35861 0.0
C531 C 0.86127 0.79549 0.39544 0.0
N532 N 0.91669 0.89654 0.39472 0.0
N533 N 0.87532 0.82102 0.41087 0.0
H534 H 0.30695 0.68979 0.59721 0.0
H535 H 0.47217 0.61159 0.59892 0.0
H536 H 0.39746 0.73592 0.62636 0.0
H537 H 0.38536 0.56709 0.5577 0.0
H538 H 0.44274 0.65461 0.61727 0.0
H539 H 0.33287 0.64211 0.5904 0.0
C540 C 0.33216 0.68978 0.60255 0.0
C541 C 0.3502 0.71687 0.61191 0.0
C542 C 0.42998 0.63535 0.60449 0.0
C543 C 0.37993 0.66266 0.60419 0.0
C544 C 0.44678 0.61075 0.59412 0.0
C545 C 0.43118 0.58594 0.57656 0.0
C546 C 0.39734 0.63522 0.59712 0.0
C547 C 0.39826 0.58592 0.57106 0.0
C548 C 0.34696 0.66264 0.59853 0.0
C549 C 0.3828 0.71565 0.61846 0.0
N550 N 0.38244 0.61036 0.58104 0.0
N551 N 0.39661 0.68908 0.61432 0.0
H552 H 0.88759 0.86044 0.75815 0.0
H553 H 0.89906 0.99518 0.62909 0.0
H554 H 0.86386 0.95178 0.78336 0.0
H555 H 0.94941 0.91455 0.61424 0.0
H556 H 0.87875 0.97625 0.68257 0.0
H557 H 0.90374 0.87688 0.70226 0.0
C558 C 0.88578 0.88393 0.75202 0.0
C559 C 0.87443 0.90477 0.77566 0.0
C560 C 0.89417 0.96265 0.6676 0.0
C561 C 0.89235 0.92349 0.71157 0.0
C562 C 0.90569 0.97339 0.63707 0.0
C563 C 0.92603 0.95642 0.61745 0.0
C564 C 0.90289 0.93463 0.67846 0.0
C565 C 0.93386 0.92833 0.62882 0.0
C566 C 0.89488 0.89322 0.72006 0.0
C567 C 0.87199 0.93476 0.76595 0.0
N568 N 0.92227 0.91826 0.6587 0.0
N569 N 0.88091 0.9432 0.7347 0.0
H570 H 0.72183 0.17492 0.15428 0.0
H571 H 0.5497 0.08193 0.14986 0.0
H572 H 0.66281 0.15806 0.24178 0.0
H573 H 0.61538 0.08398 0.06615 0.0
H574 H 0.58943 0.11323 0.18283 0.0
H575 H 0.68168 0.14488 0.12038 0.0
C576 C 0.70039 0.16494 0.16632 0.0
C577 C 0.69569 0.16886 0.2009 0.0
C578 C 0.59519 0.10687 0.15725 0.0
C579 C 0.64973 0.13457 0.16236 0.0
C580 C 0.57249 0.08909 0.13842 0.0
C581 C 0.57939 0.08038 0.10534 0.0
C582 C 0.62493 0.11613 0.14279 0.0
C583 C 0.60923 0.09021 0.09166 0.0
C584 C 0.67758 0.14771 0.14701 0.0
C585 C 0.66761 0.15525 0.21528 0.0
N586 N 0.63094 0.10761 0.11045 0.0
N587 N 0.64567 0.1388 0.19594 0.0
H588 H 0.40668 0.65128 0.30839 0.0
H589 H 0.45858 0.49822 0.38315 0.0
H590 H 0.38947 0.56376 0.2578 0.0
H591 H 0.4403 0.57611 0.44625 0.0
H592 H 0.43765 0.52331 0.33553 0.0
H593 H 0.42363 0.62572 0.35801 0.0
C594 C 0.40641 0.62671 0.30779 0.0
C595 C 0.39653 0.60959 0.27903 0.0
C596 C 0.43803 0.53483 0.35984 0.0
C597 C 0.41614 0.58033 0.33535 0.0
C598 C 0.45005 0.52056 0.38703 0.0
C599 C 0.45119 0.53507 0.41875 0.0
C600 C 0.42759 0.5641 0.3642 0.0
C601 C 0.43971 0.56401 0.42228 0.0
C602 C 0.41591 0.61216 0.3361 0.0
C603 C 0.39654 0.5778 0.27958 0.0
N604 N 0.42868 0.57771 0.39526 0.0
N605 N 0.40643 0.56424 0.30715 0.0
H606 H 0.08739 0.34256 0.81991 0.0
H607 H 0.07682 0.50892 0.90359 0.0
H608 H 0.15111 0.42055 0.79472 0.0
H609 H 0.02014 0.42928 0.93668 0.0
H610 H 0.10335 0.4771 0.86253 0.0
H611 H 0.06135 0.3741 0.86151 0.0
C612 C 0.09601 0.36628 0.82313 0.0
C613 C 0.12162 0.37881 0.80369 0.0
C614 C 0.08517 0.46652 0.87879 0.0
C615 C 0.09157 0.41522 0.85124 0.0
C616 C 0.07004 0.48469 0.90224 0.0
C617 C 0.0462 0.47171 0.92346 0.0
C618 C 0.07633 0.4351 0.87641 0.0
C619 C 0.03838 0.44019 0.92075 0.0
C620 C 0.08101 0.38432 0.84685 0.0
C621 C 0.13124 0.4099 0.80869 0.0
N622 N 0.05332 0.42298 0.89756 0.0
N623 N 0.11626 0.42696 0.83195 0.0
H624 H 0.70881 0.87309 0.00973 0.0
H625 H 0.54784 0.9364 0.94731 0.0
H626 H 0.69233 0.89227 0.90654 0.0
H627 H 0.58527 0.95168 0.04691 0.0
H628 H 0.59326 0.90674 0.93281 0.0
H629 H 0.65566 0.88831 0.02407 0.0
C630 C 0.69398 0.88028 0.99003 0.0
C631 C 0.70538 0.88202 0.95698 0.0
C632 C 0.59119 0.91631 0.95792 0.0
C633 C 0.64437 0.89891 0.9732 0.0
C634 C 0.56532 0.93308 0.96623 0.0
C635 C 0.56317 0.9468 0.99818 0.0
C636 C 0.61457 0.91288 0.98198 0.0
C637 C 0.58637 0.94187 0.02182 0.0
C638 C 0.66361 0.8888 0.99823 0.0
C639 C 0.68462 0.89056 0.93235 0.0
N640 N 0.61119 0.92539 0.0132 0.0
N641 N 0.65521 0.89902 0.94102 0.0
H642 H 0.85291 0.19234 0.4254 0.0
H643 H 0.93328 0.03404 0.42617 0.0
H644 H 0.86244 0.13415 0.33768 0.0
H645 H 0.91735 0.08863 0.51516 0.0
H646 H 0.90974 0.07176 0.39286 0.0
H647 H 0.8784 0.15572 0.45838 0.0
C648 C 0.86026 0.17184 0.41307 0.0
C649 C 0.85547 0.16636 0.37867 0.0
C650 C 0.9114 0.07554 0.41966 0.0
C651 C 0.88499 0.12443 0.41627 0.0
C652 C 0.92489 0.05404 0.43865 0.0
C653 C 0.92718 0.05828 0.47342 0.0
C654 C 0.90013 0.10145 0.43559 0.0
C655 C 0.9159 0.08451 0.48839 0.0
C656 C 0.87497 0.151 0.4319 0.0
C657 C 0.866 0.13959 0.36399 0.0
N658 N 0.90283 0.10511 0.4694 0.0
N659 N 0.88019 0.11964 0.38286 0.0
H660 H 0.2102 0.63934 0.12113 0.0
H661 H 0.11468 0.50348 0.02071 0.0
H662 H 0.25603 0.57781 0.05359 0.0
H663 H 0.07045 0.58523 0.04963 0.0
H664 H 0.1662 0.52786 0.03878 0.0
H665 H 0.1582 0.61793 0.10045 0.0
C666 C 0.20949 0.62158 0.1018 0.0
C667 C 0.23779 0.61028 0.08936 0.0
C668 C 0.14525 0.54052 0.04108 0.0
C669 C 0.17819 0.58523 0.06627 0.0
C670 C 0.11579 0.52657 0.03094 0.0
C671 C 0.08822 0.54236 0.03369 0.0
C672 C 0.14718 0.57032 0.05464 0.0
C673 C 0.09116 0.5723 0.04695 0.0
C674 C 0.17973 0.60928 0.09016 0.0
C675 C 0.23505 0.58683 0.06466 0.0
N676 N 0.12012 0.58528 0.05722 0.0
N677 N 0.20585 0.57495 0.05419 0.0
H678 H 0.28551 0.34713 0.57662 0.0
H679 H 0.43096 0.47601 0.56995 0.0
H680 H 0.30581 0.41442 0.6559 0.0
H681 H 0.40208 0.41721 0.48561 0.0
H682 H 0.3844 0.4547 0.60136 0.0
H683 H 0.32687 0.37344 0.54231 0.0
C684 C 0.29832 0.36764 0.58673 0.0
C685 C 0.29214 0.37838 0.61941 0.0
C686 C 0.38809 0.44659 0.57591 0.0
C687 C 0.34017 0.40841 0.58027 0.0
C688 C 0.41466 0.45877 0.55797 0.0
C689 C 0.42045 0.44821 0.52522 0.0
C690 C 0.36727 0.42352 0.56106 0.0
C691 C 0.39855 0.4259 0.51086 0.0
C692 C 0.32214 0.38257 0.56714 0.0
C693 C 0.31006 0.40487 0.63117 0.0
N694 N 0.37308 0.41412 0.52895 0.0
N695 N 0.33333 0.41882 0.61174 0.0
H696 H 0.93806 0.76007 0.91727 0.0
H697 H 0.90759 0.59495 0.99295 0.0
H698 H 0.84897 0.72752 0.96369 0.0
H699 H 0.98811 0.62168 0.92944 0.0
H700 H 0.88606 0.64376 0.98375 0.0
H701 H 0.9576 0.70997 0.92318 0.0
C702 C 0.92269 0.74237 0.92884 0.0
C703 C 0.89194 0.74792 0.94017 0.0
C704 C 0.90833 0.63888 0.97165 0.0
C705 C 0.91399 0.69057 0.94683 0.0
C706 C 0.9206 0.61108 0.9769 0.0
C707 C 0.94963 0.60447 0.96194 0.0
C708 C 0.92543 0.66024 0.95156 0.0
C709 C 0.96562 0.62601 0.94141 0.0
C710 C 0.93374 0.71374 0.93199 0.0
C711 C 0.87277 0.72409 0.95447 0.0
N712 N 0.95339 0.65307 0.93696 0.0
N713 N 0.88419 0.69646 0.95757 0.0
H714 H 0.38353 0.78926 0.06275 0.0
H715 H 0.47901 0.94374 0.12946 0.0
H716 H 0.4212 0.80322 0.16242 0.0
H717 H 0.44316 0.9311 0.02908 0.0
H718 H 0.45487 0.89328 0.14266 0.0
H719 H 0.40219 0.84178 0.0506 0.0
C720 C 0.39569 0.80335 0.08212 0.0
C721 C 0.40095 0.79163 0.11364 0.0
C722 C 0.45207 0.90149 0.11777 0.0
C723 C 0.4222 0.85198 0.09989 0.0
C724 C 0.46585 0.93034 0.11022 0.0
C725 C 0.4631 0.94152 0.07812 0.0
C726 C 0.43548 0.88351 0.09297 0.0
C727 C 0.44577 0.92326 0.05415 0.0
C728 C 0.40621 0.8334 0.07518 0.0
C729 C 0.41632 0.81122 0.13789 0.0
N730 N 0.43273 0.89504 0.06201 0.0
N731 N 0.42653 0.84029 0.13044 0.0
H732 H 0.12769 0.16661 0.674 0.0
H733 H 0.04136 0.10304 0.50591 0.0
H734 H 0.11185 0.22349 0.59127 0.0
H735 H 0.03592 0.05445 0.5979 0.0
H736 H 0.07058 0.14613 0.53515 0.0
H737 H 0.09748 0.12406 0.64495 0.0
C738 C 0.1179 0.17012 0.64965 0.0
C739 C 0.12239 0.19865 0.63499 0.0
C740 C 0.06294 0.12605 0.54893 0.0
C741 C 0.08772 0.14994 0.60154 0.0
C742 C 0.04636 0.10136 0.53223 0.0
C743 C 0.03616 0.075 0.54944 0.0
C744 C 0.06971 0.12432 0.58305 0.0
C745 C 0.04322 0.07428 0.5836 0.0
C746 C 0.10051 0.14586 0.63316 0.0
C747 C 0.10879 0.20197 0.60359 0.0
N748 N 0.05966 0.09849 0.59921 0.0
N749 N 0.09225 0.17786 0.58781 0.0
H750 H 0.72273 0.36007 0.38452 0.0
H751 H 0.53691 0.38488 0.40797 0.0
H752 H 0.64755 0.30177 0.3371 0.0
H753 H 0.61339 0.44868 0.44363 0.0
H754 H 0.57671 0.35318 0.38285 0.0
H755 H 0.68266 0.39197 0.40762 0.0
C756 C 0.69782 0.35403 0.37879 0.0
C757 C 0.68858 0.32816 0.35877 0.0
C758 C 0.58475 0.37417 0.39608 0.0
C759 C 0.6424 0.36449 0.38555 0.0
C760 C 0.56207 0.39223 0.41036 0.0
C761 C 0.57196 0.41934 0.42786 0.0
C762 C 0.61748 0.38331 0.39955 0.0
C763 C 0.60478 0.42789 0.43033 0.0
C764 C 0.6749 0.37221 0.39213 0.0
C765 C 0.65581 0.32123 0.35277 0.0
N766 N 0.62635 0.4099 0.41644 0.0
N767 N 0.63393 0.33927 0.3661 0.0
loop_
_geom_bond_atom_site_label_1
_geom_bond_atom_site_label_2
_geom_bond_distance
_geom_bond_site_symmetry_2
_ccdc_geom_bond_type
P0 O11 1.490 . S
P0 C14 1.812 . S
P0 C20 1.803 . S
P0 C26 1.819 . S
H1 C15 0.941 . S
H2 C16 0.939 . S
H3 C18 0.940 . S
H4 C19 0.940 . S
H5 C21 0.939 . S
H6 C22 0.942 . S
H7 C24 0.940 . S
H8 C25 0.939 . S
H9 C27 0.941 . S
H10 C31 0.939 . S
O11 P0 1.490 . S
H12 C28 0.939 . S
H13 C30 0.940 . S
C14 P0 1.812 . S
C14 C15 1.389 . S
C14 C19 1.391 . S
C15 H1 0.941 . S
C15 C14 1.389 . S
C15 C16 1.397 . S
C16 H2 0.939 . S
C16 C15 1.397 . S
C16 C17 1.378 . S
C17 C16 1.378 . S
C17 C18 1.378 . S
C18 H3 0.940 . S
C18 C17 1.378 . S
C18 C19 1.396 . S
C19 H4 0.940 . S
C19 C14 1.391 . S
C19 C18 1.396 . S
C20 P0 1.803 . S
C20 C21 1.378 . S
C20 C25 1.400 . S
C21 H5 0.939 . S
C21 C20 1.378 . S
C21 C22 1.361 . S
C22 H6 0.942 . S
C22 C21 1.361 . S
C22 C23 1.369 . S
C23 C22 1.369 . S
C23 C24 1.404 . S
C24 H7 0.940 . S
C24 C23 1.404 . S
C24 C25 1.389 . S
C25 H8 0.939 . S
C25 C20 1.400 . S
C25 C24 1.389 . S
C26 P0 1.819 . S
C26 C27 1.391 . S
C26 C31 1.391 . S
C27 H9 0.941 . S
C27 C26 1.391 . S
C27 C28 1.396 . S
C28 H12 0.939 . S
C28 C27 1.396 . S
C28 C29 1.397 . S
C29 C28 1.397 . S
C29 C30 1.385 . S
C30 H13 0.940 . S
C30 C29 1.385 . S
C30 C31 1.388 . S
C31 H10 0.939 . S
C31 C26 1.391 . S
C31 C30 1.388 . S
P32 O43 1.490 . S
P32 C46 1.812 . S
P32 C52 1.803 . S
P32 C58 1.819 . S
H33 C47 0.941 . S
H34 C48 0.939 . S
H35 C50 0.940 . S
H36 C51 0.940 . S
H37 C53 0.939 . S
H38 C54 0.942 . S
H39 C56 0.940 . S
H40 C57 0.939 . S
H41 C59 0.941 . S
H42 C63 0.939 . S
O43 P32 1.490 . S
H44 C60 0.939 . S
H45 C62 0.940 . S
C46 P32 1.812 . S
C46 C47 1.389 . S
C46 C51 1.391 . S
C47 H33 0.941 . S
C47 C46 1.389 . S
C47 C48 1.397 . S
C48 H34 0.939 . S
C48 C47 1.397 . S
C48 C49 1.378 . S
C49 C48 1.378 . S
C49 C50 1.378 . S
C50 H35 0.940 . S
C50 C49 1.378 . S
C50 C51 1.396 . S
C51 H36 0.940 . S
C51 C46 1.391 . S
C51 C50 1.396 . S
C52 P32 1.803 . S
C52 C53 1.378 . S
C52 C57 1.400 . S
C53 H37 0.939 . S
C53 C52 1.378 . S
C53 C54 1.361 . S
C54 H38 0.942 . S
C54 C53 1.361 . S
C54 C55 1.369 . S
C55 C54 1.369 . S
C55 C56 1.404 . S
C56 H39 0.940 . S
C56 C55 1.404 . S
C56 C57 1.389 . S
C57 H40 0.939 . S
C57 C52 1.400 . S
C57 C56 1.389 . S
C58 P32 1.819 . S
C58 C59 1.391 . S
C58 C63 1.391 . S
C59 H41 0.941 . S
C59 C58 1.391 . S
C59 C60 1.396 . S
C60 H44 0.939 . S
C60 C59 1.396 . S
C60 C61 1.397 . S
C61 C60 1.397 . S
C61 C62 1.385 . S
C62 H45 0.940 . S
C62 C61 1.385 . S
C62 C63 1.388 . S
C63 H42 0.939 . S
C63 C58 1.391 . S
C63 C62 1.388 . S
P64 O75 1.490 . S
P64 C78 1.812 . S
P64 C84 1.803 . S
P64 C90 1.819 . S
H65 C79 0.941 . S
H66 C80 0.939 . S
H67 C82 0.940 . S
H68 C83 0.940 . S
H69 C85 0.939 . S
H70 C86 0.942 . S
H71 C88 0.940 . S
H72 C89 0.939 . S
H73 C91 0.941 . S
H74 C95 0.939 . S
O75 P64 1.490 . S
H76 C92 0.939 . S
H77 C94 0.940 . S
C78 P64 1.812 . S
C78 C79 1.389 . S
C78 C83 1.391 . S
C79 H65 0.941 . S
C79 C78 1.389 . S
C79 C80 1.397 . S
C80 H66 0.939 . S
C80 C79 1.397 . S
C80 C81 1.378 . S
C81 C80 1.378 . S
C81 C82 1.378 . S
C82 H67 0.940 . S
C82 C81 1.378 . S
C82 C83 1.396 . S
C83 H68 0.940 . S
C83 C78 1.391 . S
C83 C82 1.396 . S
C84 P64 1.803 . S
C84 C85 1.378 . S
C84 C89 1.400 . S
C85 H69 0.939 . S
C85 C84 1.378 . S
C85 C86 1.361 . S
C86 H70 0.942 . S
C86 C85 1.361 . S
C86 C87 1.369 . S
C87 C86 1.369 . S
C87 C88 1.404 . S
C88 H71 0.940 . S
C88 C87 1.404 . S
C88 C89 1.389 . S
C89 H72 0.939 . S
C89 C84 1.400 . S
C89 C88 1.389 . S
C90 P64 1.819 . S
C90 C91 1.391 . S
C90 C95 1.391 . S
C91 H73 0.941 . S
C91 C90 1.391 . S
C91 C92 1.396 . S
C92 H76 0.939 . S
C92 C91 1.396 . S
C92 C93 1.397 . S
C93 C92 1.397 . S
C93 C94 1.385 . S
C94 H77 0.940 . S
C94 C93 1.385 . S
C94 C95 1.388 . S
C95 H74 0.939 . S
C95 C90 1.391 . S
C95 C94 1.388 . S
P96 O107 1.490 . S
P96 C110 1.812 . S
P96 C116 1.803 . S
P96 C122 1.819 . S
H97 C111 0.941 . S
H98 C112 0.939 . S
H99 C114 0.940 . S
H100 C115 0.940 . S
H101 C117 0.939 . S
H102 C118 0.942 . S
H103 C120 0.940 . S
H104 C121 0.939 . S
H105 C123 0.941 . S
H106 C127 0.939 . S
O107 P96 1.490 . S
H108 C124 0.939 . S
H109 C126 0.940 . S
C110 P96 1.812 . S
C110 C111 1.389 . S
C110 C115 1.391 . S
C111 H97 0.941 . S
C111 C110 1.389 . S
C111 C112 1.397 . S
C112 H98 0.939 . S
C112 C111 1.397 . S
C112 C113 1.378 . S
C113 C112 1.378 . S
C113 C114 1.378 . S
C114 H99 0.940 . S
C114 C113 1.378 . S
C114 C115 1.396 . S
C115 H100 0.940 . S
C115 C110 1.391 . S
C115 C114 1.396 . S
C116 P96 1.803 . S
C116 C117 1.378 . S
C116 C121 1.400 . S
C117 H101 0.939 . S
C117 C116 1.378 . S
C117 C118 1.361 . S
C118 H102 0.942 . S
C118 C117 1.361 . S
C118 C119 1.369 . S
C119 C118 1.369 . S
C119 C120 1.404 . S
C120 H103 0.940 . S
C120 C119 1.404 . S
C120 C121 1.389 . S
C121 H104 0.939 . S
C121 C116 1.400 . S
C121 C120 1.389 . S
C122 P96 1.819 . S
C122 C123 1.391 . S
C122 C127 1.391 . S
C123 H105 0.941 . S
C123 C122 1.391 . S
C123 C124 1.396 . S
C124 H108 0.939 . S
C124 C123 1.396 . S
C124 C125 1.397 . S
C125 C124 1.397 . S
C125 C126 1.385 . S
C126 H109 0.940 . S
C126 C125 1.385 . S
C126 C127 1.388 . S
C127 H106 0.939 . S
C127 C122 1.391 . S
C127 C126 1.388 . S
P128 O139 1.490 . S
P128 C142 1.812 . S
P128 C148 1.803 . S
P128 C154 1.819 . S
H129 C143 0.941 . S
H130 C144 0.939 . S
H131 C146 0.940 . S
H132 C147 0.940 . S
H133 C149 0.939 . S
H134 C150 0.942 . S
H135 C152 0.940 . S
H136 C153 0.939 . S
H137 C155 0.941 . S
H138 C159 0.939 . S
O139 P128 1.490 . S
H140 C156 0.939 . S
H141 C158 0.940 . S
C142 P128 1.812 . S
C142 C143 1.389 . S
C142 C147 1.391 . S
C143 H129 0.941 . S
C143 C142 1.389 . S
C143 C144 1.397 . S
C144 H130 0.939 . S
C144 C143 1.397 . S
C144 C145 1.378 . S
C145 C144 1.378 . S
C145 C146 1.378 . S
C146 H131 0.940 . S
C146 C145 1.378 . S
C146 C147 1.396 . S
C147 H132 0.940 . S
C147 C142 1.391 . S
C147 C146 1.396 . S
C148 P128 1.803 . S
C148 C149 1.378 . S
C148 C153 1.400 . S
C149 H133 0.939 . S
C149 C148 1.378 . S
C149 C150 1.361 . S
C150 H134 0.942 . S
C150 C149 1.361 . S
C150 C151 1.369 . S
C151 C150 1.369 . S
C151 C152 1.404 . S
C152 H135 0.940 . S
C152 C151 1.404 . S
C152 C153 1.389 . S
C153 H136 0.939 . S
C153 C148 1.400 . S
C153 C152 1.389 . S
C154 P128 1.819 . S
C154 C155 1.391 . S
C154 C159 1.391 . S
C155 H137 0.941 . S
C155 C154 1.391 . S
C155 C156 1.396 . S
C156 H140 0.939 . S
C156 C155 1.396 . S
C156 C157 1.397 . S
C157 C156 1.397 . S
C157 C158 1.385 . S
C158 H141 0.940 . S
C158 C157 1.385 . S
C158 C159 1.388 . S
C159 H138 0.939 . S
C159 C154 1.391 . S
C159 C158 1.388 . S
P160 O171 1.490 . S
P160 C174 1.812 . S
P160 C180 1.803 . S
P160 C186 1.819 . S
H161 C175 0.941 . S
H162 C176 0.939 . S
H163 C178 0.940 . S
H164 C179 0.940 . S
H165 C181 0.939 . S
H166 C182 0.942 . S
H167 C184 0.940 . S
H168 C185 0.939 . S
H169 C187 0.941 . S
H170 C191 0.939 . S
O171 P160 1.490 . S
H172 C188 0.939 . S
H173 C190 0.940 . S
C174 P160 1.812 . S
C174 C175 1.389 . S
C174 C179 1.391 . S
C175 H161 0.941 . S
C175 C174 1.389 . S
C175 C176 1.397 . S
C176 H162 0.939 . S
C176 C175 1.397 . S
C176 C177 1.378 . S
C177 C176 1.378 . S
C177 C178 1.378 . S
C178 H163 0.940 . S
C178 C177 1.378 . S
C178 C179 1.396 . S
C179 H164 0.940 . S
C179 C174 1.391 . S
C179 C178 1.396 . S
C180 P160 1.803 . S
C180 C181 1.378 . S
C180 C185 1.400 . S
C181 H165 0.939 . S
C181 C180 1.378 . S
C181 C182 1.361 . S
C182 H166 0.942 . S
C182 C181 1.361 . S
C182 C183 1.369 . S
C183 C182 1.369 . S
C183 C184 1.404 . S
C184 H167 0.940 . S
C184 C183 1.404 . S
C184 C185 1.389 . S
C185 H168 0.939 . S
C185 C180 1.400 . S
C185 C184 1.389 . S
C186 P160 1.819 . S
C186 C187 1.391 . S
C186 C191 1.391 . S
C187 H169 0.941 . S
C187 C186 1.391 . S
C187 C188 1.396 . S
C188 H172 0.939 . S
C188 C187 1.396 . S
C188 C189 1.397 . S
C189 C188 1.397 . S
C189 C190 1.385 . S
C190 H173 0.940 . S
C190 C189 1.385 . S
C190 C191 1.388 . S
C191 H170 0.939 . S
C191 C186 1.391 . S
C191 C190 1.388 . S
P192 O203 1.490 . S
P192 C206 1.812 . S
P192 C212 1.803 . S
P192 C218 1.819 . S
H193 C207 0.941 . S
H194 C208 0.939 . S
H195 C210 0.940 . S
H196 C211 0.940 . S
H197 C213 0.939 . S
H198 C214 0.942 . S
H199 C216 0.940 . S
H200 C217 0.939 . S
H201 C219 0.941 . S
H202 C223 0.939 . S
O203 P192 1.490 . S
H204 C220 0.939 . S
H205 C222 0.940 . S
C206 P192 1.812 . S
C206 C207 1.389 . S
C206 C211 1.391 . S
C207 H193 0.941 . S
C207 C206 1.389 . S
C207 C208 1.397 . S
C208 H194 0.939 . S
C208 C207 1.397 . S
C208 C209 1.378 . S
C209 C208 1.378 . S
C209 C210 1.378 . S
C210 H195 0.940 . S
C210 C209 1.378 . S
C210 C211 1.396 . S
C211 H196 0.940 . S
C211 C206 1.391 . S
C211 C210 1.396 . S
C212 P192 1.803 . S
C212 C213 1.378 . S
C212 C217 1.400 . S
C213 H197 0.939 . S
C213 C212 1.378 . S
C213 C214 1.361 . S
C214 H198 0.942 . S
C214 C213 1.361 . S
C214 C215 1.369 . S
C215 C214 1.369 . S
C215 C216 1.404 . S
C216 H199 0.940 . S
C216 C215 1.404 . S
C216 C217 1.389 . S
C217 H200 0.939 . S
C217 C212 1.400 . S
C217 C216 1.389 . S
C218 P192 1.819 . S
C218 C219 1.391 . S
C218 C223 1.391 . S
C219 H201 0.941 . S
C219 C218 1.391 . S
C219 C220 1.396 . S
C220 H204 0.939 . S
C220 C219 1.396 . S
C220 C221 1.397 . S
C221 C220 1.397 . S
C221 C222 1.385 . S
C222 H205 0.940 . S
C222 C221 1.385 . S
C222 C223 1.388 . S
C223 H202 0.939 . S
C223 C218 1.391 . S
C223 C222 1.388 . S
P224 O235 1.490 . S
P224 C238 1.812 . S
P224 C244 1.803 . S
P224 C250 1.819 . S
H225 C239 0.941 . S
H226 C240 0.939 . S
H227 C242 0.940 . S
H228 C243 0.940 . S
H229 C245 0.939 . S
H230 C246 0.942 . S
H231 C248 0.940 . S
H232 C249 0.939 . S
H233 C251 0.941 . S
H234 C255 0.939 . S
O235 P224 1.490 . S
H236 C252 0.939 . S
H237 C254 0.940 . S
C238 P224 1.812 . S
C238 C239 1.389 . S
C238 C243 1.391 . S
C239 H225 0.941 . S
C239 C238 1.389 . S
C239 C240 1.397 . S
C240 H226 0.939 . S
C240 C239 1.397 . S
C240 C241 1.378 . S
C241 C240 1.378 . S
C241 C242 1.378 . S
C242 H227 0.940 . S
C242 C241 1.378 . S
C242 C243 1.396 . S
C243 H228 0.940 . S
C243 C238 1.391 . S
C243 C242 1.396 . S
C244 P224 1.803 . S
C244 C245 1.378 . S
C244 C249 1.400 . S
C245 H229 0.939 . S
C245 C244 1.378 . S
C245 C246 1.361 . S
C246 H230 0.942 . S
C246 C245 1.361 . S
C246 C247 1.369 . S
C247 C246 1.369 . S
C247 C248 1.404 . S
C248 H231 0.940 . S
C248 C247 1.404 . S
C248 C249 1.389 . S
C249 H232 0.939 . S
C249 C244 1.400 . S
C249 C248 1.389 . S
C250 P224 1.819 . S
C250 C251 1.391 . S
C250 C255 1.391 . S
C251 H233 0.941 . S
C251 C250 1.391 . S
C251 C252 1.396 . S
C252 H236 0.939 . S
C252 C251 1.396 . S
C252 C253 1.397 . S
C253 C252 1.397 . S
C253 C254 1.385 . S
C254 H237 0.940 . S
C254 C253 1.385 . S
C254 C255 1.388 . S
C255 H234 0.939 . S
C255 C250 1.391 . S
C255 C254 1.388 . S
Dy256 O260 2.398 . S
Dy256 O261 2.491 . S
Dy256 O262 2.403 1_545 S
Dy256 O263 2.664 1_545 S
Dy256 O267 2.326 . S
Dy256 O271 2.310 1_455 S
Dy256 O272 2.351 1_445 S
C257 O268 1.185 . S
C257 O269 1.355 . S
C258 O260 1.185 . S
C258 O261 1.355 . S
Dy259 O263 2.309 1_645 S
Dy259 O266 2.354 1_655 S
Dy259 O268 2.396 1_545 S
Dy259 O269 2.489 1_545 S
Dy259 O270 2.405 . S
Dy259 O271 2.666 . S
Dy259 O273 2.324 1_545 S
O260 Dy256 2.398 . S
O260 C258 1.185 . S
O261 Dy256 2.491 . S
O261 C258 1.355 . S
O262 Dy256 2.403 1_565 S
O262 C264 1.254 . S
O263 Dy256 2.664 1_565 S
O263 Dy259 2.309 1_465 S
O263 C264 1.268 . S
C264 O262 1.254 . S
C264 O263 1.268 . S
C265 O270 1.254 . S
C265 O271 1.268 . S
O266 Dy259 2.354 1_455 S
O266 C274 1.249 . S
O267 Dy256 2.326 . S
O267 C274 1.267 . S
O268 C257 1.185 . S
O268 Dy259 2.396 1_565 S
O269 C257 1.355 . S
O269 Dy259 2.489 1_565 S
O270 Dy259 2.405 . S
O270 C265 1.254 . S
O271 Dy256 2.310 1_655 S
O271 Dy259 2.666 . S
O271 C265 1.268 . S
O272 Dy256 2.351 1_665 S
O272 C275 1.249 . S
O273 Dy259 2.324 1_565 S
O273 C275 1.267 . S
C274 O266 1.249 . S
C274 O267 1.267 . S
C275 O272 1.249 . S
C275 O273 1.267 . S
Dy276 O280 2.398 . S
Dy276 O281 2.491 . S
Dy276 O282 2.403 1_545 S
Dy276 O283 2.664 1_545 S
Dy276 O287 2.326 . S
Dy276 O291 2.310 . S
Dy276 O292 2.351 1_544 S
C277 O288 1.214 . S
C277 O289 1.355 . S
C278 O280 1.185 . S
C278 O281 1.355 . S
Dy279 O283 2.310 1_546 S
Dy279 O286 2.351 1_556 S
Dy279 O288 2.395 1_545 S
Dy279 O289 2.491 1_545 S
Dy279 O290 2.403 . S
Dy279 O291 2.664 1_556 S
Dy279 O293 2.326 1_545 S
O280 Dy276 2.398 . S
O280 C278 1.185 . S
O281 Dy276 2.491 . S
O281 C278 1.355 . S
O282 Dy276 2.403 1_565 S
O282 C284 1.254 . S
O283 Dy276 2.664 1_565 S
O283 Dy279 2.310 1_564 S
O283 C284 1.268 . S
C284 O282 1.254 . S
C284 O283 1.268 . S
C285 O290 1.254 . S
C285 O291 1.268 1_556 S
O286 Dy279 2.351 1_554 S
O286 C294 1.249 . S
O287 Dy276 2.326 . S
O287 C294 1.267 . S
O288 C277 1.214 . S
O288 Dy279 2.395 1_565 S
O289 C277 1.355 . S
O289 Dy279 2.491 1_565 S
O290 Dy279 2.403 . S
O290 C285 1.254 . S
O291 Dy276 2.310 . S
O291 Dy279 2.664 1_554 S
O291 C285 1.268 1_554 S
O292 Dy276 2.351 1_566 S
O292 C295 1.249 . S
O293 Dy279 2.326 1_565 S
O293 C295 1.267 . S
C294 O286 1.249 . S
C294 O287 1.267 . S
C295 O292 1.249 . S
C295 O293 1.267 . S
Dy296 O300 2.398 . S
Dy296 O301 2.491 . S
Dy296 O302 2.403 . S
Dy296 O303 2.664 . S
Dy296 O307 2.326 . S
Dy296 O311 2.310 . S
Dy296 O312 2.351 . S
C297 O308 1.185 . S
C297 O309 1.355 . S
C298 O300 1.185 . S
C298 O301 1.355 . S
Dy299 O303 2.310 . S
Dy299 O306 2.351 . S
Dy299 O308 2.398 . S
Dy299 O309 2.491 . S
Dy299 O310 2.403 . S
Dy299 O311 2.664 . S
Dy299 O313 2.326 . S
O300 Dy296 2.398 . S
O300 C298 1.185 . S
O301 Dy296 2.491 . S
O301 C298 1.355 . S
O302 Dy296 2.403 . S
O302 C304 1.254 . S
O303 Dy296 2.664 . S
O303 Dy299 2.310 . S
O303 C304 1.268 . S
C304 O302 1.254 . S
C304 O303 1.268 . S
C305 O310 1.254 . S
C305 O311 1.268 . S
O306 Dy299 2.351 . S
O306 C314 1.249 . S
O307 Dy296 2.326 . S
O307 C314 1.267 . S
O308 C297 1.185 . S
O308 Dy299 2.398 . S
O309 C297 1.355 . S
O309 Dy299 2.491 . S
O310 Dy299 2.403 . S
O310 C305 1.254 . S
O311 Dy296 2.310 . S
O311 Dy299 2.664 . S
O311 C305 1.268 . S
O312 Dy296 2.351 . S
O312 C315 1.249 . S
O313 Dy299 2.326 . S
O313 C315 1.267 . S
C314 O306 1.249 . S
C314 O307 1.267 . S
C315 O312 1.249 . S
C315 O313 1.267 . S
Dy316 O320 2.398 . S
Dy316 O321 2.491 . S
Dy316 O322 2.403 1_455 S
Dy316 O323 2.664 1_455 S
Dy316 O327 2.326 . S
Dy316 O331 2.310 1_554 S
Dy316 O332 2.350 1_454 S
C317 O328 1.185 . S
C317 O329 1.355 . S
C318 O320 1.185 . S
C318 O321 1.355 . S
Dy319 O323 2.310 1_556 S
Dy319 O326 2.351 1_656 S
Dy319 O328 2.398 . S
Dy319 O329 2.491 . S
Dy319 O330 2.403 1_655 S
Dy319 O331 2.664 1_655 S
Dy319 O333 2.326 . S
O320 Dy316 2.398 . S
O320 C318 1.185 . S
O321 Dy316 2.491 . S
O321 C318 1.355 . S
O322 Dy316 2.403 1_655 S
O322 C324 1.254 . S
O323 Dy316 2.664 1_655 S
O323 Dy319 2.310 1_554 S
O323 C324 1.268 . S
C324 O322 1.254 . S
C324 O323 1.268 . S
C325 O330 1.254 . S
C325 O331 1.268 . S
O326 Dy319 2.351 1_454 S
O326 C334 1.249 . S
O327 Dy316 2.326 . S
O327 C334 1.267 . S
O328 C317 1.185 . S
O328 Dy319 2.398 . S
O329 C317 1.355 . S
O329 Dy319 2.491 . S
O330 Dy319 2.403 1_455 S
O330 C325 1.254 . S
O331 Dy316 2.310 1_556 S
O331 Dy319 2.664 1_455 S
O331 C325 1.268 . S
O332 Dy316 2.350 1_656 S
O332 C335 1.251 . S
O333 Dy319 2.326 . S
O333 C335 1.267 . S
C334 O326 1.249 . S
C334 O327 1.267 . S
C335 O332 1.251 . S
C335 O333 1.267 . S
H336 C342 0.930 . S
H337 C346 0.930 . S
H338 C351 0.929 . S
H339 C349 0.929 . S
H340 C344 0.929 . S
H341 C350 0.929 . S
C342 H336 0.930 . S
C342 C343 1.367 . S
C342 C350 1.378 . S
C343 C342 1.367 . S
C343 C351 1.433 . S
C344 H340 0.929 . S
C344 C346 1.378 . S
C344 C348 1.350 . S
C345 C348 1.463 . S
C345 C350 1.350 . S
C345 N353 1.427 . S
C346 H337 0.930 . S
C346 C344 1.378 . S
C346 C347 1.367 . S
C347 C346 1.367 . S
C347 C349 1.433 . S
C348 C344 1.350 . S
C348 C345 1.463 . S
C348 N352 1.427 . S
C349 H339 0.929 . S
C349 C347 1.433 . S
C349 N352 1.384 . S
C350 H341 0.929 . S
C350 C342 1.378 . S
C350 C345 1.350 . S
C351 H338 0.929 . S
C351 C343 1.433 . S
C351 N353 1.384 . S
N352 C348 1.427 . S
N352 C349 1.384 . S
N353 C345 1.427 . S
N353 C351 1.384 . S
H354 C360 0.930 . S
H355 C364 0.930 . S
H356 C369 0.929 . S
H357 C367 0.929 . S
H358 C362 0.929 . S
H359 C368 0.929 . S
C360 H354 0.930 . S
C360 C361 1.367 . S
C360 C368 1.378 . S
C361 C360 1.367 . S
C361 C369 1.433 . S
C362 H358 0.929 . S
C362 C364 1.378 . S
C362 C366 1.350 . S
C363 C366 1.463 . S
C363 C368 1.350 . S
C363 N371 1.427 . S
C364 H355 0.930 . S
C364 C362 1.378 . S
C364 C365 1.367 . S
C365 C364 1.367 . S
C365 C367 1.433 . S
C366 C362 1.350 . S
C366 C363 1.463 . S
C366 N370 1.427 . S
C367 H357 0.929 . S
C367 C365 1.433 . S
C367 N370 1.384 . S
C368 H359 0.929 . S
C368 C360 1.378 . S
C368 C363 1.350 . S
C369 H356 0.929 . S
C369 C361 1.433 . S
C369 N371 1.384 . S
N370 C366 1.427 . S
N370 C367 1.384 . S
N371 C363 1.427 . S
N371 C369 1.384 . S
H372 C378 0.930 . S
H373 C382 0.930 . S
H374 C387 0.929 . S
H375 C385 0.929 . S
H376 C380 0.929 . S
H377 C386 0.929 . S
C378 H372 0.930 . S
C378 C379 1.367 . S
C378 C386 1.378 . S
C379 C378 1.367 . S
C379 C387 1.433 . S
C380 H376 0.929 . S
C380 C382 1.378 . S
C380 C384 1.350 . S
C381 C384 1.463 . S
C381 C386 1.350 . S
C381 N389 1.427 . S
C382 H373 0.930 . S
C382 C380 1.378 . S
C382 C383 1.367 . S
C383 C382 1.367 . S
C383 C385 1.433 . S
C384 C380 1.350 . S
C384 C381 1.463 . S
C384 N388 1.427 . S
C385 H375 0.929 . S
C385 C383 1.433 . S
C385 N388 1.384 . S
C386 H377 0.929 . S
C386 C378 1.378 . S
C386 C381 1.350 . S
C387 H374 0.929 . S
C387 C379 1.433 . S
C387 N389 1.384 . S
N388 C384 1.427 . S
N388 C385 1.384 . S
N389 C381 1.427 . S
N389 C387 1.384 . S
H390 C396 0.930 . S
H391 C400 0.930 . S
H392 C405 0.929 . S
H393 C403 0.929 1_455 S
H394 C398 0.929 . S
H395 C404 0.929 . S
C396 H390 0.930 . S
C396 C397 1.367 . S
C396 C404 1.378 . S
C397 C396 1.367 . S
C397 C405 1.433 . S
C398 H394 0.929 . S
C398 C400 1.378 . S
C398 C402 1.350 . S
C399 C402 1.463 . S
C399 C404 1.350 . S
C399 N407 1.427 . S
C400 H391 0.930 . S
C400 C398 1.378 . S
C400 C401 1.367 . S
C401 C400 1.367 . S
C401 C403 1.433 . S
C402 C398 1.350 . S
C402 C399 1.463 . S
C402 N406 1.427 . S
C403 H393 0.929 1_655 S
C403 C401 1.433 . S
C403 N406 1.384 . S
C404 H395 0.929 . S
C404 C396 1.378 . S
C404 C399 1.350 . S
C405 H392 0.929 . S
C405 C397 1.433 . S
C405 N407 1.384 . S
N406 C402 1.427 . S
N406 C403 1.384 . S
N407 C399 1.427 . S
N407 C405 1.384 . S
H408 C414 0.930 . S
H409 C418 0.930 . S
H410 C423 0.929 . S
H411 C421 0.929 . S
H412 C416 0.929 . S
H413 C422 0.929 . S
C414 H408 0.930 . S
C414 C415 1.367 . S
C414 C422 1.378 . S
C415 C414 1.367 . S
C415 C423 1.433 . S
C416 H412 0.929 . S
C416 C418 1.378 . S
C416 C420 1.350 . S
C417 C420 1.463 . S
C417 C422 1.350 . S
C417 N425 1.427 . S
C418 H409 0.930 . S
C418 C416 1.378 . S
C418 C419 1.367 . S
C419 C418 1.367 . S
C419 C421 1.433 . S
C420 C416 1.350 . S
C420 C417 1.463 . S
C420 N424 1.427 . S
C421 H411 0.929 . S
C421 C419 1.433 . S
C421 N424 1.384 . S
C422 H413 0.929 . S
C422 C414 1.378 . S
C422 C417 1.350 . S
C423 H410 0.929 . S
C423 C415 1.433 . S
C423 N425 1.384 . S
N424 C420 1.427 . S
N424 C421 1.384 . S
N425 C417 1.427 . S
N425 C423 1.384 . S
H426 C432 0.930 . S
H427 C436 0.930 . S
H428 C441 0.929 . S
H429 C439 0.929 1_545 S
H430 C434 0.929 . S
H431 C440 0.929 . S
C432 H426 0.930 . S
C432 C433 1.367 . S
C432 C440 1.378 . S
C433 C432 1.367 . S
C433 C441 1.433 . S
C434 H430 0.929 . S
C434 C436 1.378 . S
C434 C438 1.350 . S
C435 C438 1.463 . S
C435 C440 1.350 . S
C435 N443 1.427 . S
C436 H427 0.930 . S
C436 C434 1.378 . S
C436 C437 1.367 . S
C437 C436 1.367 . S
C437 C439 1.433 . S
C438 C434 1.350 . S
C438 C435 1.463 . S
C438 N442 1.427 . S
C439 H429 0.929 1_565 S
C439 C437 1.433 . S
C439 N442 1.384 . S
C440 H431 0.929 . S
C440 C432 1.378 . S
C440 C435 1.350 . S
C441 H428 0.929 . S
C441 C433 1.433 . S
C441 N443 1.384 . S
N442 C438 1.427 . S
N442 C439 1.384 . S
N443 C435 1.427 . S
N443 C441 1.384 . S
H444 C450 0.930 . S
H445 C454 0.930 . S
H446 C459 0.929 . S
H447 C457 0.929 . S
H448 C452 0.929 . S
H449 C458 0.929 . S
C450 H444 0.930 . S
C450 C451 1.367 . S
C450 C458 1.378 . S
C451 C450 1.367 . S
C451 C459 1.433 . S
C452 H448 0.929 . S
C452 C454 1.378 . S
C452 C456 1.350 . S
C453 C456 1.463 . S
C453 C458 1.350 . S
C453 N461 1.427 . S
C454 H445 0.930 . S
C454 C452 1.378 . S
C454 C455 1.367 . S
C455 C454 1.367 . S
C455 C457 1.433 . S
C456 C452 1.350 . S
C456 C453 1.463 . S
C456 N460 1.427 . S
C457 H447 0.929 . S
C457 C455 1.433 . S
C457 N460 1.384 . S
C458 H449 0.929 . S
C458 C450 1.378 . S
C458 C453 1.350 . S
C459 H446 0.929 . S
C459 C451 1.433 . S
C459 N461 1.384 . S
N460 C456 1.427 . S
N460 C457 1.384 . S
N461 C453 1.427 . S
N461 C459 1.384 . S
H462 C468 0.930 . S
H463 C472 0.930 . S
H464 C477 0.929 . S
H465 C475 0.929 . S
H466 C470 0.929 . S
H467 C476 0.929 . S
C468 H462 0.930 . S
C468 C469 1.367 . S
C468 C476 1.378 . S
C469 C468 1.367 . S
C469 C477 1.433 . S
C470 H466 0.929 . S
C470 C472 1.378 . S
C470 C474 1.350 . S
C471 C474 1.463 . S
C471 C476 1.350 . S
C471 N479 1.427 . S
C472 H463 0.930 . S
C472 C470 1.378 . S
C472 C473 1.367 . S
C473 C472 1.367 . S
C473 C475 1.433 . S
C474 C470 1.350 . S
C474 C471 1.463 . S
C474 N478 1.427 . S
C475 H465 0.929 . S
C475 C473 1.433 . S
C475 N478 1.384 . S
C476 H467 0.929 . S
C476 C468 1.378 . S
C476 C471 1.350 . S
C477 H464 0.929 . S
C477 C469 1.433 . S
C477 N479 1.384 . S
N478 C474 1.427 . S
N478 C475 1.384 . S
N479 C471 1.427 . S
N479 C477 1.384 . S
H480 C486 0.930 . S
H481 C490 0.930 . S
H482 C495 0.929 . S
H483 C493 0.929 . S
H484 C488 0.929 . S
H485 C494 0.929 . S
C486 H480 0.930 . S
C486 C487 1.367 . S
C486 C494 1.378 . S
C487 C486 1.367 . S
C487 C495 1.433 . S
C488 H484 0.929 . S
C488 C490 1.378 . S
C488 C492 1.350 . S
C489 C492 1.463 . S
C489 C494 1.350 . S
C489 N497 1.427 . S
C490 H481 0.930 . S
C490 C488 1.378 . S
C490 C491 1.367 . S
C491 C490 1.367 . S
C491 C493 1.433 . S
C492 C488 1.350 . S
C492 C489 1.463 . S
C492 N496 1.427 . S
C493 H483 0.929 . S
C493 C491 1.433 . S
C493 N496 1.384 . S
C494 H485 0.929 . S
C494 C486 1.378 . S
C494 C489 1.350 . S
C495 H482 0.929 . S
C495 C487 1.433 . S
C495 N497 1.384 . S
N496 C492 1.427 . S
N496 C493 1.384 . S
N497 C489 1.427 . S
N497 C495 1.384 . S
H498 C504 0.930 . S
H499 C508 0.930 . S
H500 C513 0.929 . S
H501 C511 0.929 . S
H502 C506 0.929 . S
H503 C512 0.929 . S
C504 H498 0.930 . S
C504 C505 1.367 . S
C504 C512 1.378 . S
C505 C504 1.367 . S
C505 C513 1.433 . S
C506 H502 0.929 . S
C506 C508 1.378 . S
C506 C510 1.350 . S
C507 C510 1.463 . S
C507 C512 1.350 . S
C507 N515 1.427 . S
C508 H499 0.930 . S
C508 C506 1.378 . S
C508 C509 1.367 . S
C509 C508 1.367 . S
C509 C511 1.433 . S
C510 C506 1.350 . S
C510 C507 1.463 . S
C510 N514 1.427 . S
C511 H501 0.929 . S
C511 C509 1.433 . S
C511 N514 1.384 . S
C512 H503 0.929 . S
C512 C504 1.378 . S
C512 C507 1.350 . S
C513 H500 0.929 . S
C513 C505 1.433 . S
C513 N515 1.384 . S
N514 C510 1.427 . S
N514 C511 1.384 . S
N515 C507 1.427 . S
N515 C513 1.384 . S
H516 C522 0.930 . S
H517 C526 0.930 1_455 S
H518 C531 0.929 . S
H519 C529 0.929 . S
H520 C524 0.929 . S
H521 C530 0.929 . S
C522 H516 0.930 . S
C522 C523 1.367 . S
C522 C530 1.378 . S
C523 C522 1.367 . S
C523 C531 1.433 . S
C524 H520 0.929 . S
C524 C526 1.378 . S
C524 C528 1.350 . S
C525 C528 1.463 . S
C525 C530 1.350 . S
C525 N533 1.427 . S
C526 H517 0.930 1_655 S
C526 C524 1.378 . S
C526 C527 1.367 . S
C527 C526 1.367 . S
C527 C529 1.433 . S
C528 C524 1.350 . S
C528 C525 1.463 . S
C528 N532 1.427 . S
C529 H519 0.929 . S
C529 C527 1.433 . S
C529 N532 1.384 . S
C530 H521 0.929 . S
C530 C522 1.378 . S
C530 C525 1.350 . S
C531 H518 0.929 . S
C531 C523 1.433 . S
C531 N533 1.384 . S
N532 C528 1.427 . S
N532 C529 1.384 . S
N533 C525 1.427 . S
N533 C531 1.384 . S
H534 C540 0.930 . S
H535 C544 0.930 . S
H536 C549 0.929 . S
H537 C547 0.929 . S
H538 C542 0.929 . S
H539 C548 0.929 . S
C540 H534 0.930 . S
C540 C541 1.367 . S
C540 C548 1.378 . S
C541 C540 1.367 . S
C541 C549 1.433 . S
C542 H538 0.929 . S
C542 C544 1.378 . S
C542 C546 1.350 . S
C543 C546 1.463 . S
C543 C548 1.350 . S
C543 N551 1.427 . S
C544 H535 0.930 . S
C544 C542 1.378 . S
C544 C545 1.367 . S
C545 C544 1.367 . S
C545 C547 1.433 . S
C546 C542 1.350 . S
C546 C543 1.463 . S
C546 N550 1.427 . S
C547 H537 0.929 . S
C547 C545 1.433 . S
C547 N550 1.384 . S
C548 H539 0.929 . S
C548 C540 1.378 . S
C548 C543 1.350 . S
C549 H536 0.929 . S
C549 C541 1.433 . S
C549 N551 1.384 . S
N550 C546 1.427 . S
N550 C547 1.384 . S
N551 C543 1.427 . S
N551 C549 1.384 . S
H552 C558 0.930 . S
H553 C562 0.930 . S
H554 C567 0.929 . S
H555 C565 0.929 . S
H556 C560 0.929 . S
H557 C566 0.929 . S
C558 H552 0.930 . S
C558 C559 1.367 . S
C558 C566 1.378 . S
C559 C558 1.367 . S
C559 C567 1.433 . S
C560 H556 0.929 . S
C560 C562 1.378 . S
C560 C564 1.350 . S
C561 C564 1.463 . S
C561 C566 1.350 . S
C561 N569 1.427 . S
C562 H553 0.930 . S
C562 C560 1.378 . S
C562 C563 1.367 . S
C563 C562 1.367 . S
C563 C565 1.433 . S
C564 C560 1.350 . S
C564 C561 1.463 . S
C564 N568 1.427 . S
C565 H555 0.929 . S
C565 C563 1.433 . S
C565 N568 1.384 . S
C566 H557 0.929 . S
C566 C558 1.378 . S
C566 C561 1.350 . S
C567 H554 0.929 . S
C567 C559 1.433 . S
C567 N569 1.384 . S
N568 C564 1.427 . S
N568 C565 1.384 . S
N569 C561 1.427 . S
N569 C567 1.384 . S
H570 C576 0.930 . S
H571 C580 0.930 . S
H572 C585 0.929 . S
H573 C583 0.929 . S
H574 C578 0.929 . S
H575 C584 0.929 . S
C576 H570 0.930 . S
C576 C577 1.367 . S
C576 C584 1.378 . S
C577 C576 1.367 . S
C577 C585 1.433 . S
C578 H574 0.929 . S
C578 C580 1.378 . S
C578 C582 1.350 . S
C579 C582 1.463 . S
C579 C584 1.350 . S
C579 N587 1.427 . S
C580 H571 0.930 . S
C580 C578 1.378 . S
C580 C581 1.367 . S
C581 C580 1.367 . S
C581 C583 1.433 . S
C582 C578 1.350 . S
C582 C579 1.463 . S
C582 N586 1.427 . S
C583 H573 0.929 . S
C583 C581 1.433 . S
C583 N586 1.384 . S
C584 H575 0.929 . S
C584 C576 1.378 . S
C584 C579 1.350 . S
C585 H572 0.929 . S
C585 C577 1.433 . S
C585 N587 1.384 . S
N586 C582 1.427 . S
N586 C583 1.384 . S
N587 C579 1.427 . S
N587 C585 1.384 . S
H588 C594 0.930 . S
H589 C598 0.930 . S
H590 C603 0.929 . S
H591 C601 0.929 . S
H592 C596 0.929 . S
H593 C602 0.929 . S
C594 H588 0.930 . S
C594 C595 1.367 . S
C594 C602 1.378 . S
C595 C594 1.367 . S
C595 C603 1.433 . S
C596 H592 0.929 . S
C596 C598 1.378 . S
C596 C600 1.350 . S
C597 C600 1.463 . S
C597 C602 1.350 . S
C597 N605 1.427 . S
C598 H589 0.930 . S
C598 C596 1.378 . S
C598 C599 1.367 . S
C599 C598 1.367 . S
C599 C601 1.433 . S
C600 C596 1.350 . S
C600 C597 1.463 . S
C600 N604 1.427 . S
C601 H591 0.929 . S
C601 C599 1.433 . S
C601 N604 1.384 . S
C602 H593 0.929 . S
C602 C594 1.378 . S
C602 C597 1.350 . S
C603 H590 0.929 . S
C603 C595 1.433 . S
C603 N605 1.384 . S
N604 C600 1.427 . S
N604 C601 1.384 . S
N605 C597 1.427 . S
N605 C603 1.384 . S
H606 C612 0.930 . S
H607 C616 0.930 . S
H608 C621 0.929 . S
H609 C619 0.947 . S
H610 C614 0.929 . S
H611 C620 0.929 . S
C612 H606 0.930 . S
C612 C613 1.367 . S
C612 C620 1.378 . S
C613 C612 1.367 . S
C613 C621 1.433 . S
C614 H610 0.929 . S
C614 C616 1.378 . S
C614 C618 1.350 . S
C615 C618 1.463 . S
C615 C620 1.350 . S
C615 N623 1.427 . S
C616 H607 0.930 . S
C616 C614 1.378 . S
C616 C617 1.367 . S
C617 C616 1.367 . S
C617 C619 1.433 . S
C618 C614 1.350 . S
C618 C615 1.463 . S
C618 N622 1.427 . S
C619 H609 0.947 . S
C619 C617 1.433 . S
C619 N622 1.384 . S
C620 H611 0.929 . S
C620 C612 1.378 . S
C620 C615 1.350 . S
C621 H608 0.929 . S
C621 C613 1.433 . S
C621 N623 1.384 . S
N622 C618 1.427 . S
N622 C619 1.384 . S
N623 C615 1.427 . S
N623 C621 1.384 . S
H624 C630 0.930 . S
H625 C634 0.930 . S
H626 C639 0.929 . S
H627 C637 0.929 . S
H628 C632 0.929 . S
H629 C638 0.929 . S
C630 H624 0.930 . S
C630 C631 1.367 . S
C630 C638 1.378 . S
C631 C630 1.367 . S
C631 C639 1.433 . S
C632 H628 0.929 . S
C632 C634 1.378 . S
C632 C636 1.350 . S
C633 C636 1.463 . S
C633 C638 1.350 . S
C633 N641 1.427 . S
C634 H625 0.930 . S
C634 C632 1.378 . S
C634 C635 1.367 . S
C635 C634 1.367 . S
C635 C637 1.433 . S
C636 C632 1.350 . S
C636 C633 1.463 . S
C636 N640 1.427 . S
C637 H627 0.929 . S
C637 C635 1.433 . S
C637 N640 1.384 . S
C638 H629 0.929 . S
C638 C630 1.378 . S
C638 C633 1.350 . S
C639 H626 0.929 . S
C639 C631 1.433 . S
C639 N641 1.384 . S
N640 C636 1.427 . S
N640 C637 1.384 . S
N641 C633 1.427 . S
N641 C639 1.384 . S
H642 C648 0.930 . S
H643 C652 0.930 . S
H644 C657 0.929 . S
H645 C655 0.929 . S
H646 C650 0.929 . S
H647 C656 0.929 . S
C648 H642 0.930 . S
C648 C649 1.367 . S
C648 C656 1.378 . S
C649 C648 1.367 . S
C649 C657 1.433 . S
C650 H646 0.929 . S
C650 C652 1.378 . S
C650 C654 1.350 . S
C651 C654 1.463 . S
C651 C656 1.350 . S
C651 N659 1.427 . S
C652 H643 0.930 . S
C652 C650 1.378 . S
C652 C653 1.367 . S
C653 C652 1.367 . S
C653 C655 1.433 . S
C654 C650 1.350 . S
C654 C651 1.463 . S
C654 N658 1.427 . S
C655 H645 0.929 . S
C655 C653 1.433 . S
C655 N658 1.384 . S
C656 H647 0.929 . S
C656 C648 1.378 . S
C656 C651 1.350 . S
C657 H644 0.929 . S
C657 C649 1.433 . S
C657 N659 1.384 . S
N658 C654 1.427 . S
N658 C655 1.384 . S
N659 C651 1.427 . S
N659 C657 1.384 . S
H660 C666 0.930 . S
H661 C670 0.930 1_556 S
H662 C675 0.929 . S
H663 C673 0.929 . S
H664 C668 0.929 . S
H665 C674 0.929 . S
C666 H660 0.930 . S
C666 C667 1.367 . S
C666 C674 1.378 . S
C667 C666 1.367 . S
C667 C675 1.433 . S
C668 H664 0.929 . S
C668 C670 1.378 . S
C668 C672 1.350 . S
C669 C672 1.463 . S
C669 C674 1.350 . S
C669 N677 1.427 . S
C670 H661 0.930 1_554 S
C670 C668 1.378 . S
C670 C671 1.367 . S
C671 C670 1.367 . S
C671 C673 1.433 . S
C672 C668 1.350 . S
C672 C669 1.463 . S
C672 N676 1.427 . S
C673 H663 0.929 . S
C673 C671 1.433 . S
C673 N676 1.384 . S
C674 H665 0.929 . S
C674 C666 1.378 . S
C674 C669 1.350 . S
C675 H662 0.929 . S
C675 C667 1.433 . S
C675 N677 1.384 . S
N676 C672 1.427 . S
N676 C673 1.384 . S
N677 C669 1.427 . S
N677 C675 1.384 . S
H678 C684 0.930 . S
H679 C688 0.930 . S
H680 C693 0.929 . S
H681 C691 0.929 . S
H682 C686 0.929 . S
H683 C692 0.929 . S
C684 H678 0.930 . S
C684 C685 1.367 . S
C684 C692 1.378 . S
C685 C684 1.367 . S
C685 C693 1.433 . S
C686 H682 0.929 . S
C686 C688 1.378 . S
C686 C690 1.350 . S
C687 C690 1.463 . S
C687 C692 1.350 . S
C687 N695 1.427 . S
C688 H679 0.930 . S
C688 C686 1.378 . S
C688 C689 1.367 . S
C689 C688 1.367 . S
C689 C691 1.433 . S
C690 C686 1.350 . S
C690 C687 1.463 . S
C690 N694 1.427 . S
C691 H681 0.929 . S
C691 C689 1.433 . S
C691 N694 1.384 . S
C692 H683 0.929 . S
C692 C684 1.378 . S
C692 C687 1.350 . S
C693 H680 0.929 . S
C693 C685 1.433 . S
C693 N695 1.384 . S
N694 C690 1.427 . S
N694 C691 1.384 . S
N695 C687 1.427 . S
N695 C693 1.384 . S
H696 C702 0.930 . S
H697 C706 0.930 . S
H698 C711 0.929 . S
H699 C709 0.929 . S
H700 C704 0.929 . S
H701 C710 0.929 . S
C702 H696 0.930 . S
C702 C703 1.367 . S
C702 C710 1.378 . S
C703 C702 1.367 . S
C703 C711 1.433 . S
C704 H700 0.929 . S
C704 C706 1.378 . S
C704 C708 1.350 . S
C705 C708 1.463 . S
C705 C710 1.350 . S
C705 N713 1.427 . S
C706 H697 0.930 . S
C706 C704 1.378 . S
C706 C707 1.367 . S
C707 C706 1.367 . S
C707 C709 1.433 . S
C708 C704 1.350 . S
C708 C705 1.463 . S
C708 N712 1.427 . S
C709 H699 0.929 . S
C709 C707 1.433 . S
C709 N712 1.384 . S
C710 H701 0.929 . S
C710 C702 1.378 . S
C710 C705 1.350 . S
C711 H698 0.929 . S
C711 C703 1.433 . S
C711 N713 1.384 . S
N712 C708 1.427 . S
N712 C709 1.384 . S
N713 C705 1.427 . S
N713 C711 1.384 . S
H714 C720 0.930 . S
H715 C724 0.930 . S
H716 C729 0.929 . S
H717 C727 0.929 . S
H718 C722 0.929 . S
H719 C728 0.929 . S
C720 H714 0.930 . S
C720 C721 1.367 . S
C720 C728 1.378 . S
C721 C720 1.367 . S
C721 C729 1.433 . S
C722 H718 0.929 . S
C722 C724 1.378 . S
C722 C726 1.350 . S
C723 C726 1.463 . S
C723 C728 1.350 . S
C723 N731 1.427 . S
C724 H715 0.930 . S
C724 C722 1.378 . S
C724 C725 1.367 . S
C725 C724 1.367 . S
C725 C727 1.433 . S
C726 C722 1.350 . S
C726 C723 1.463 . S
C726 N730 1.427 . S
C727 H717 0.929 . S
C727 C725 1.433 . S
C727 N730 1.384 . S
C728 H719 0.929 . S
C728 C720 1.378 . S
C728 C723 1.350 . S
C729 H716 0.929 . S
C729 C721 1.433 . S
C729 N731 1.384 . S
N730 C726 1.427 . S
N730 C727 1.384 . S
N731 C723 1.427 . S
N731 C729 1.384 . S
H732 C738 0.930 . S
H733 C742 0.930 . S
H734 C747 0.929 . S
H735 C745 0.929 . S
H736 C740 0.929 . S
H737 C746 0.929 . S
C738 H732 0.930 . S
C738 C739 1.367 . S
C738 C746 1.378 . S
C739 C738 1.367 . S
C739 C747 1.433 . S
C740 H736 0.929 . S
C740 C742 1.378 . S
C740 C744 1.350 . S
C741 C744 1.463 . S
C741 C746 1.350 . S
C741 N749 1.427 . S
C742 H733 0.930 . S
C742 C740 1.378 . S
C742 C743 1.367 . S
C743 C742 1.367 . S
C743 C745 1.433 . S
C744 C740 1.350 . S
C744 C741 1.463 . S
C744 N748 1.427 . S
C745 H735 0.929 . S
C745 C743 1.433 . S
C745 N748 1.384 . S
C746 H737 0.929 . S
C746 C738 1.378 . S
C746 C741 1.350 . S
C747 H734 0.929 . S
C747 C739 1.433 . S
C747 N749 1.384 . S
N748 C744 1.427 . S
N748 C745 1.384 . S
N749 C741 1.427 . S
N749 C747 1.384 . S
H750 C756 0.930 . S
H751 C760 0.930 . S
H752 C765 0.929 . S
H753 C763 0.929 . S
H754 C758 0.929 . S
H755 C764 0.929 . S
C756 H750 0.930 . S
C756 C757 1.367 . S
C756 C764 1.378 . S
C757 C756 1.367 . S
C757 C765 1.433 . S
C758 H754 0.929 . S
C758 C760 1.378 . S
C758 C762 1.350 . S
C759 C762 1.463 . S
C759 C764 1.350 . S
C759 N767 1.427 . S
C760 H751 0.930 . S
C760 C758 1.378 . S
C760 C761 1.367 . S
C761 C760 1.367 . S
C761 C763 1.433 . S
C762 C758 1.350 . S
C762 C759 1.463 . S
C762 N766 1.427 . S
C763 H753 0.929 . S
C763 C761 1.433 . S
C763 N766 1.384 . S
C764 H755 0.929 . S
C764 C756 1.378 . S
C764 C759 1.350 . S
C765 H752 0.929 . S
C765 C757 1.433 . S
C765 N767 1.384 . S
N766 C762 1.427 . S
N766 C763 1.384 . S
N767 C759 1.427 . S
N767 C765 1.384 . S
C343 C29 1.543 . S
C347 C258 1.530 . S
C361 C49 1.314 . S
C365 C277 1.295 . S
C383 C314 1.775 . S
C379 C93 1.759 . S
C397 C119 1.614 . S
C401 C324 1.617 . S
C419 C294 1.901 . S
C415 C17 1.904 . S
C437 C264 1.431 . S
C433 C61 1.502 . S
C455 C335 1.498 . S
C451 C81 1.490 . S
C473 C305 1.449 . S
C469 C125 1.416 . S
C487 C23 1.688 . S
C491 C318 1.675 . S
C509 C285 1.669 . S
C505 C87 1.692 . S
C523 C113 1.713 . S
C527 C275 1.765 . S
C541 C55 1.225 . S
C545 C297 1.234 . S
C563 C257 1.483 . S
C559 C157 1.381 . S
C577 C189 1.307 . S
C581 C278 1.333 . S
C595 C221 1.745 . S
C599 C315 1.740 . S
C613 C253 1.677 . S
C617 C325 1.689 . S
C631 C145 1.832 . S
C635 C295 1.964 . S
C653 C265 1.384 . S
C649 C183 1.395 . S
C671 C334 1.538 . S
C667 C209 1.537 . S
C689 C304 1.404 . S
C685 C247 1.386 . S
C703 C151 1.590 . S
C707 C317 1.686 . S
C725 C284 1.670 . S
C721 C215 1.700 . S
C743 C274 1.732 . S
C739 C241 1.678 . S
C757 C177 1.211 . S
C761 C298 1.228 . S
