# Generated by pormake.
# Topology pyr, (3,6)-cn, num edge types: 1
# Building blocks:
#     Node 0, Type 0, BuildingBlock: MIDCAF_clean_linker_0, # of connection points: 3
#     Node 1, Type 0, BuildingBlock: MIDCAF_clean_linker_0, # of connection points: 3
#     Node 2, Type 0, BuildingBlock: MIDCAF_clean_linker_0, # of connection points: 3
#     Node 3, Type 0, BuildingBlock: MIDCAF_clean_linker_0, # of connection points: 3
#     Node 4, Type 0, BuildingBlock: MIDCAF_clean_linker_0, # of connection points: 3
#     Node 5, Type 0, BuildingBlock: MIDCAF_clean_linker_0, # of connection points: 3
#     Node 6, Type 0, BuildingBlock: MIDCAF_clean_linker_0, # of connection points: 3
#     Node 7, Type 0, BuildingBlock: MIDCAF_clean_linker_0, # of connection points: 3
#     Node 8, Type 1, BuildingBlock: MIFKUJ_clean_sbu_0, # of connection points: 6
#     Node 9, Type 1, BuildingBlock: MIFKUJ_clean_sbu_0, # of connection points: 6
#     Node 10, Type 1, BuildingBlock: MIFKUJ_clean_sbu_0, # of connection points: 6
#     Node 11, Type 1, BuildingBlock: MIFKUJ_clean_sbu_0, # of connection points: 6
#     Edge 12, Type (0, 1), BuildingBlock: EZIPEK_clean_linker_0, # of connection points: 2
#     Edge 13, Type (0, 1), BuildingBlock: EZIPEK_clean_linker_0, # of connection points: 2
#     Edge 14, Type (0, 1), BuildingBlock: EZIPEK_clean_linker_0, # of connection points: 2
#     Edge 15, Type (0, 1), BuildingBlock: EZIPEK_clean_linker_0, # of connection points: 2
#     Edge 16, Type (0, 1), BuildingBlock: EZIPEK_clean_linker_0, # of connection points: 2
#     Edge 17, Type (0, 1), BuildingBlock: EZIPEK_clean_linker_0, # of connection points: 2
#     Edge 18, Type (0, 1), BuildingBlock: EZIPEK_clean_linker_0, # of connection points: 2
#     Edge 19, Type (0, 1), BuildingBlock: EZIPEK_clean_linker_0, # of connection points: 2
#     Edge 20, Type (0, 1), BuildingBlock: EZIPEK_clean_linker_0, # of connection points: 2
#     Edge 21, Type (0, 1), BuildingBlock: EZIPEK_clean_linker_0, # of connection points: 2
#     Edge 22, Type (0, 1), BuildingBlock: EZIPEK_clean_linker_0, # of connection points: 2
#     Edge 23, Type (0, 1), BuildingBlock: EZIPEK_clean_linker_0, # of connection points: 2
#     Edge 24, Type (0, 1), BuildingBlock: EZIPEK_clean_linker_0, # of connection points: 2
#     Edge 25, Type (0, 1), BuildingBlock: EZIPEK_clean_linker_0, # of connection points: 2
#     Edge 26, Type (0, 1), BuildingBlock: EZIPEK_clean_linker_0, # of connection points: 2
#     Edge 27, Type (0, 1), BuildingBlock: EZIPEK_clean_linker_0, # of connection points: 2
#     Edge 28, Type (0, 1), BuildingBlock: EZIPEK_clean_linker_0, # of connection points: 2
#     Edge 29, Type (0, 1), BuildingBlock: EZIPEK_clean_linker_0, # of connection points: 2
#     Edge 30, Type (0, 1), BuildingBlock: EZIPEK_clean_linker_0, # of connection points: 2
#     Edge 31, Type (0, 1), BuildingBlock: EZIPEK_clean_linker_0, # of connection points: 2
#     Edge 32, Type (0, 1), BuildingBlock: EZIPEK_clean_linker_0, # of connection points: 2
#     Edge 33, Type (0, 1), BuildingBlock: EZIPEK_clean_linker_0, # of connection points: 2
#     Edge 34, Type (0, 1), BuildingBlock: EZIPEK_clean_linker_0, # of connection points: 2
#     Edge 35, Type (0, 1), BuildingBlock: EZIPEK_clean_linker_0, # of connection points: 2
# Relax obj value: 0.030
# Max RMSD: 0.083
# Mean RMSD: 0.049
data_MOF--net-pyr--node1-MIFKUJ_clean_sbu_0--node2-MIDCAF_clean_linker_0--edge1-EZIPEK_clean_linker_0
_symmetry_space_group_name_H-M    P1
_symmetry_Int_Tables_number       1
_symmetry_cell_setting            triclinic
loop_
_symmetry_equiv_pos_as_xyz
'x, y, z'
_cell_length_a     37.996544
_cell_length_b     34.22891
_cell_length_c     36.415919
_cell_angle_alpha  85.080795
_cell_angle_beta   87.564689
_cell_angle_gamma 96.431307
loop_
_atom_site_label
_atom_site_type_symbol
_atom_site_fract_x
_atom_site_fract_y
_atom_site_fract_z
_atom_type_partial_charge
C0 C 0.14657 0.15522 0.35046 0.0
C1 C 0.15406 0.11724 0.36257 0.0
C2 C 0.18353 0.10229 0.3468 0.0
C3 C 0.20407 0.12426 0.31771 0.0
H4 H 0.28121 0.11578 0.23845 0.0
H5 H 0.32312 0.08339 0.20235 0.0
H6 H 0.33553 0.1827 0.11988 0.0
H7 H 0.29338 0.21558 0.15561 0.0
H8 H 0.23614 0.2881 0.16453 0.0
H9 H 0.20057 0.33167 0.12815 0.0
H10 H 0.10559 0.27616 0.18888 0.0
H11 H 0.14059 0.23377 0.22579 0.0
H12 H 0.15978 0.20593 0.3121 0.0
H13 H 0.124 0.16725 0.36246 0.0
H14 H 0.18967 0.07299 0.35598 0.0
H15 H 0.22569 0.1113 0.30494 0.0
N16 N 0.24142 0.16886 0.25301 0.0
N17 N 0.2399 0.21601 0.20241 0.0
N18 N 0.19804 0.21225 0.25204 0.0
C19 C 0.25522 0.18579 0.21952 0.0
C20 C 0.21124 0.22932 0.21861 0.0
C21 C 0.21302 0.1823 0.26963 0.0
C22 C 0.28367 0.16824 0.19983 0.0
C23 C 0.29308 0.1311 0.21288 0.0
C24 C 0.31693 0.11241 0.19227 0.0
C25 C 0.33196 0.13058 0.15842 0.0
C26 C 0.32384 0.16822 0.14588 0.0
C27 C 0.29981 0.1869 0.16638 0.0
C28 C 0.19114 0.25766 0.19802 0.0
C29 C 0.20772 0.28553 0.17023 0.0
C30 C 0.18752 0.31027 0.14947 0.0
C31 C 0.15051 0.30665 0.15574 0.0
C32 C 0.1341 0.27918 0.18366 0.0
C33 C 0.15422 0.25519 0.20484 0.0
C34 C 0.19537 0.16151 0.30404 0.0
C35 C 0.16706 0.1772 0.32156 0.0
C36 C 0.22467 0.91017 0.65769 0.0
C37 C 0.2044 0.88693 0.63456 0.0
C38 C 0.2158 0.85147 0.62486 0.0
C39 C 0.24696 0.83917 0.63839 0.0
H40 H 0.36425 0.80614 0.60478 0.0
H41 H 0.39292 0.75537 0.57506 0.0
H42 H 0.38859 0.68492 0.67966 0.0
H43 H 0.36223 0.73694 0.7098 0.0
H44 H 0.40244 0.83434 0.75545 0.0
H45 H 0.4278 0.86271 0.80885 0.0
H46 H 0.33486 0.92175 0.82611 0.0
H47 H 0.30908 0.89382 0.77204 0.0
H48 H 0.27053 0.91583 0.68987 0.0
H49 H 0.21622 0.9377 0.66533 0.0
H50 H 0.20037 0.83318 0.60709 0.0
H51 H 0.25488 0.8114 0.63079 0.0
N52 N 0.31539 0.81994 0.66182 0.0
N53 N 0.35552 0.81851 0.70894 0.0
N54 N 0.31115 0.86091 0.70991 0.0
C55 C 0.34366 0.80534 0.67711 0.0
C56 C 0.33956 0.84655 0.72539 0.0
C57 C 0.29883 0.84755 0.67822 0.0
C58 C 0.36114 0.77517 0.65942 0.0
C59 C 0.36978 0.77991 0.62134 0.0
C60 C 0.38611 0.75104 0.60444 0.0
C61 C 0.39265 0.71626 0.62511 0.0
C62 C 0.38385 0.71154 0.66323 0.0
C63 C 0.36881 0.74114 0.68037 0.0
C64 C 0.3538 0.86203 0.7592 0.0
C65 C 0.38714 0.85313 0.77057 0.0
C66 C 0.40173 0.86932 0.8011 0.0
C67 C 0.38329 0.89451 0.82105 0.0
C68 C 0.34951 0.90255 0.81075 0.0
C69 C 0.33494 0.88662 0.77986 0.0
C70 C 0.26695 0.86185 0.66234 0.0
C71 C 0.25559 0.89759 0.6717 0.0
C72 C 0.62398 0.21551 0.89429 0.0
C73 C 0.59852 0.19176 0.87681 0.0
C74 C 0.59166 0.20237 0.83991 0.0
C75 C 0.60984 0.23652 0.8209 0.0
H76 H 0.59987 0.3241 0.73569 0.0
H77 H 0.5748 0.35824 0.68296 0.0
H78 H 0.6599 0.45304 0.67982 0.0
H79 H 0.68538 0.41936 0.73263 0.0
H80 H 0.72064 0.42177 0.83216 0.0
H81 H 0.77461 0.44844 0.86072 0.0
H82 H 0.81502 0.33571 0.85907 0.0
H83 H 0.76023 0.30841 0.83254 0.0
H84 H 0.66208 0.26671 0.88954 0.0
H85 H 0.62965 0.20779 0.92274 0.0
H86 H 0.57223 0.18426 0.82591 0.0
H87 H 0.60398 0.24413 0.7925 0.0
N88 N 0.64214 0.31459 0.7884 0.0
N89 N 0.68989 0.36489 0.78536 0.0
N90 N 0.68606 0.31221 0.83157 0.0
C91 C 0.65935 0.34892 0.77152 0.0
C92 C 0.70345 0.34638 0.81515 0.0
C93 C 0.65524 0.29626 0.8186 0.0
C94 C 0.64464 0.36899 0.7387 0.0
C95 C 0.61345 0.35213 0.72383 0.0
C96 C 0.59907 0.3715 0.6936 0.0
C97 C 0.61558 0.40802 0.67757 0.0
C98 C 0.64692 0.42476 0.69181 0.0
C99 C 0.66134 0.40544 0.72207 0.0
C100 C 0.73656 0.36319 0.83018 0.0
C101 C 0.74111 0.40282 0.83795 0.0
C102 C 0.77171 0.41793 0.8544 0.0
C103 C 0.79865 0.39394 0.86219 0.0
C104 C 0.7944 0.35454 0.85358 0.0
C105 C 0.76327 0.33908 0.83835 0.0
C106 C 0.63567 0.2601 0.83829 0.0
C107 C 0.64257 0.24911 0.87517 0.0
C108 C 0.72115 0.62825 0.36582 0.0
C109 C 0.70031 0.59762 0.35018 0.0
C110 C 0.71843 0.57737 0.32418 0.0
C111 C 0.75251 0.59163 0.30956 0.0
H112 H 0.81714 0.59654 0.21016 0.0
H113 H 0.84365 0.56683 0.1582 0.0
H114 H 0.94659 0.62428 0.17963 0.0
H115 H 0.92047 0.65465 0.23093 0.0
H116 H 0.88262 0.75967 0.26763 0.0
H117 H 0.90633 0.81931 0.2956 0.0
H118 H 0.89922 0.75306 0.40243 0.0
H119 H 0.87372 0.69401 0.37483 0.0
H120 H 0.76958 0.66705 0.36343 0.0
H121 H 0.71181 0.64136 0.38975 0.0
H122 H 0.70729 0.54975 0.31506 0.0
H123 H 0.76445 0.57591 0.2886 0.0
N124 N 0.8196 0.62798 0.274 0.0
N125 N 0.86982 0.67493 0.27258 0.0
N126 N 0.82535 0.67212 0.31978 0.0
C127 C 0.85144 0.64421 0.25773 0.0
C128 C 0.85694 0.68877 0.30366 0.0
C129 C 0.80634 0.64185 0.30506 0.0
C130 C 0.8667 0.6278 0.22493 0.0
C131 C 0.84539 0.60303 0.2037 0.0
C132 C 0.86044 0.5861 0.17397 0.0
C133 C 0.89711 0.5931 0.16534 0.0
C134 C 0.91826 0.61844 0.18593 0.0
C135 C 0.90322 0.6358 0.21525 0.0
C136 C 0.87619 0.72262 0.31927 0.0
C137 C 0.8867 0.75784 0.29697 0.0
C138 C 0.90022 0.79179 0.31286 0.0
C139 C 0.90428 0.79057 0.35108 0.0
C140 C 0.89611 0.75457 0.37293 0.0
C141 C 0.88152 0.72101 0.35723 0.0
C142 C 0.77099 0.6252 0.3221 0.0
C143 C 0.7554 0.64244 0.35143 0.0
C144 C 0.6902 0.87395 0.82098 0.0
C145 C 0.68391 0.86455 0.8591 0.0
C146 C 0.70397 0.8382 0.87793 0.0
C147 C 0.73077 0.82212 0.85902 0.0
H148 H 0.78886 0.71845 0.85451 0.0
H149 H 0.82155 0.67006 0.88806 0.0
H150 H 0.91945 0.7256 0.83303 0.0
H151 H 0.88699 0.77337 0.79872 0.0
H152 H 0.87494 0.81445 0.71736 0.0
H153 H 0.90048 0.84572 0.65945 0.0
H154 H 0.81033 0.91257 0.64939 0.0
H155 H 0.78578 0.88166 0.70724 0.0
H156 H 0.72226 0.86671 0.77279 0.0
H157 H 0.67485 0.89438 0.80617 0.0
H158 H 0.6994 0.83082 0.9074 0.0
H159 H 0.74635 0.80253 0.87458 0.0
N160 N 0.78615 0.79005 0.81953 0.0
N161 N 0.82924 0.79693 0.77084 0.0
N162 N 0.78242 0.8361 0.76864 0.0
C163 C 0.81614 0.77909 0.80403 0.0
C164 C 0.81249 0.82526 0.75278 0.0
C165 C 0.76916 0.81861 0.80212 0.0
C166 C 0.83542 0.74953 0.82395 0.0
C167 C 0.81734 0.72027 0.84956 0.0
C168 C 0.83589 0.69269 0.86869 0.0
C169 C 0.87281 0.69448 0.86294 0.0
C170 C 0.89093 0.72384 0.83766 0.0
C171 C 0.87235 0.75091 0.81803 0.0
C172 C 0.82767 0.8446 0.71666 0.0
C173 C 0.8602 0.83529 0.70226 0.0
C174 C 0.87466 0.85304 0.66828 0.0
C175 C 0.85671 0.87987 0.64645 0.0
C176 C 0.82487 0.8906 0.66226 0.0
C177 C 0.81047 0.87292 0.69653 0.0
C178 C 0.73829 0.83259 0.82102 0.0
C179 C 0.71732 0.85822 0.80206 0.0
C180 C 0.65095 0.0901 0.20616 0.0
C181 C 0.61488 0.0924 0.20084 0.0
C182 C 0.59397 0.1073 0.22778 0.0
C183 C 0.60922 0.12141 0.25893 0.0
H184 H 0.59478 0.20608 0.32979 0.0
H185 H 0.56689 0.25815 0.35786 0.0
H186 H 0.66286 0.29075 0.41244 0.0
H187 H 0.69093 0.23851 0.38509 0.0
H188 H 0.75717 0.191 0.37355 0.0
H189 H 0.81294 0.17217 0.39679 0.0
H190 H 0.79439 0.06054 0.35021 0.0
H191 H 0.73884 0.0793 0.32619 0.0
H192 H 0.69431 0.1027 0.24068 0.0
H193 H 0.66744 0.07884 0.18546 0.0
H194 H 0.56607 0.10928 0.224 0.0
H195 H 0.5926 0.13375 0.27878 0.0
N196 N 0.64654 0.16758 0.31102 0.0
N197 N 0.69369 0.17644 0.34995 0.0
N198 N 0.69374 0.12918 0.30693 0.0
C199 C 0.66214 0.1865 0.33841 0.0
C200 C 0.70954 0.14769 0.33455 0.0
C201 C 0.6622 0.13905 0.29504 0.0
C202 C 0.64512 0.21803 0.35522 0.0
C203 C 0.61002 0.22427 0.34776 0.0
C204 C 0.594 0.25396 0.36374 0.0
C205 C 0.61292 0.27821 0.38705 0.0
C206 C 0.64793 0.27226 0.39445 0.0
C207 C 0.66386 0.24234 0.37883 0.0
C208 C 0.74357 0.13661 0.34801 0.0
C209 C 0.76493 0.16244 0.36818 0.0
C210 C 0.79678 0.15181 0.38147 0.0
C211 C 0.80755 0.11497 0.37531 0.0
C212 C 0.78639 0.08911 0.3552 0.0
C213 C 0.75476 0.09993 0.34144 0.0
C214 C 0.64561 0.12042 0.26391 0.0
C215 C 0.66618 0.10373 0.23767 0.0
C216 C 0.2281 0.58063 0.17929 0.0
C217 C 0.21981 0.59413 0.14357 0.0
C218 C 0.2428 0.62387 0.12327 0.0
C219 C 0.27361 0.64009 0.13859 0.0
H220 H 0.34582 0.73729 0.1257 0.0
H221 H 0.37817 0.79758 0.09461 0.0
H222 H 0.46019 0.792 0.17238 0.0
H223 H 0.42815 0.73151 0.20395 0.0
H224 H 0.42894 0.63808 0.24727 0.0
H225 H 0.45416 0.60733 0.30158 0.0
H226 H 0.34893 0.56921 0.34967 0.0
H227 H 0.32339 0.5985 0.29429 0.0
H228 H 0.26482 0.58554 0.22216 0.0
H229 H 0.21063 0.55755 0.19526 0.0
H230 H 0.2369 0.63442 0.09556 0.0
H231 H 0.29087 0.66292 0.12208 0.0
N232 N 0.33387 0.67693 0.17313 0.0
N233 N 0.37753 0.67401 0.2164 0.0
N234 N 0.32814 0.6256 0.22083 0.0
C235 C 0.3648 0.69255 0.18615 0.0
C236 C 0.35937 0.64065 0.23394 0.0
C237 C 0.3154 0.64353 0.19011 0.0
C238 C 0.38436 0.72935 0.16739 0.0
C239 C 0.3707 0.74875 0.13637 0.0
C240 C 0.38907 0.78327 0.11854 0.0
C241 C 0.42139 0.79911 0.13135 0.0
C242 C 0.43516 0.78014 0.16228 0.0
C243 C 0.4168 0.74555 0.18019 0.0
C244 C 0.37419 0.62078 0.26657 0.0
C245 C 0.41112 0.6229 0.26927 0.0
C246 C 0.42559 0.60527 0.30026 0.0
C247 C 0.40349 0.58601 0.32977 0.0
C248 C 0.3665 0.58373 0.32717 0.0
C249 C 0.35196 0.60046 0.29557 0.0
C250 C 0.28224 0.62657 0.17439 0.0
C251 C 0.2591 0.5966 0.19455 0.0
C252 C 0.14488 0.21534 0.65416 0.0
C253 C 0.11081 0.19916 0.66736 0.0
C254 C 0.09442 0.21457 0.69728 0.0
C255 C 0.11217 0.24603 0.71386 0.0
H256 H 0.0982 0.34178 0.77762 0.0
H257 H 0.06939 0.37266 0.82701 0.0
H258 H 0.17161 0.4154 0.86428 0.0
H259 H 0.20088 0.38539 0.81408 0.0
H260 H 0.26175 0.40558 0.73648 0.0
H261 H 0.31697 0.43559 0.70289 0.0
H262 H 0.30643 0.34628 0.62636 0.0
H263 H 0.25191 0.31586 0.65943 0.0
H264 H 0.18899 0.25819 0.65965 0.0
H265 H 0.15786 0.20359 0.63113 0.0
H266 H 0.06807 0.20217 0.70778 0.0
H267 H 0.09901 0.25745 0.73692 0.0
N268 N 0.15103 0.3121 0.74634 0.0
N269 N 0.20214 0.3577 0.74724 0.0
N270 N 0.19876 0.3107 0.70403 0.0
C271 C 0.16901 0.343 0.76136 0.0
C272 C 0.21713 0.34157 0.71835 0.0
C273 C 0.16589 0.29567 0.71773 0.0
C274 C 0.15186 0.36123 0.79186 0.0
C275 C 0.11464 0.35768 0.79631 0.0
C276 C 0.09809 0.37535 0.82447 0.0
C277 C 0.11836 0.39637 0.84918 0.0
C278 C 0.15554 0.39945 0.84531 0.0
C279 C 0.17217 0.38238 0.81663 0.0
C280 C 0.25211 0.35842 0.70063 0.0
C281 C 0.27137 0.39202 0.7128 0.0
C282 C 0.30291 0.40917 0.69372 0.0
C283 C 0.31554 0.39302 0.66225 0.0
C284 C 0.29703 0.35901 0.65065 0.0
C285 C 0.26576 0.34178 0.66968 0.0
C286 C 0.14655 0.26233 0.70072 0.0
C287 C 0.16261 0.24655 0.67063 0.0
Zn288 Zn 0.03704 0.00411 0.55136 0.0
Zn289 Zn 0.96857 0.99359 0.46313 0.0
C290 C 0.0694 0.07167 0.58123 0.0
O291 O 0.09747 0.06043 0.5647 0.0
C292 C 0.93638 0.93764 0.41633 0.0
O293 O 0.91289 0.96287 0.41272 0.0
O294 O 0.07776 0.97517 0.56707 0.0
O295 O 0.99097 0.97136 0.56924 0.0
O296 O 0.96591 0.97549 0.51632 0.0
C297 C 0.07459 0.94086 0.58398 0.0
O298 O 0.04303 0.92114 0.59121 0.0
O299 O 0.03931 0.05206 0.57926 0.0
C300 C 0.93469 0.05945 0.43123 0.0
O301 O 0.96712 0.07499 0.42076 0.0
O302 O 0.92952 0.02661 0.45083 0.0
O303 O 0.01548 0.02293 0.44622 0.0
O304 O 0.04609 0.02255 0.49669 0.0
O305 O 0.96257 0.94464 0.43622 0.0
C306 C 0.96428 0.96396 0.55032 0.0
C307 C 0.04412 0.03114 0.46215 0.0
Zn308 Zn 0.52536 0.96479 0.98224 0.0
Zn309 Zn 0.48123 0.024 0.03309 0.0
C310 C 0.48021 0.95402 0.92351 0.0
O311 O 0.50938 0.97031 0.90514 0.0
C312 C 0.54391 0.05589 0.06893 0.0
O313 O 0.55275 0.07617 0.03704 0.0
O314 O 0.56172 0.93266 0.96167 0.0
O315 O 0.54188 0.02062 0.9645 0.0
O316 O 0.50215 0.05609 0.98642 0.0
C317 C 0.58252 0.94711 0.93439 0.0
O318 O 0.58111 0.98345 0.92026 0.0
O319 O 0.47953 0.94947 0.95849 0.0
C320 C 0.42093 0.03811 0.0777 0.0
O321 O 0.42471 0.00303 0.09346 0.0
O322 O 0.44104 0.05252 0.05002 0.0
O323 O 0.46475 0.9651 0.03696 0.0
O324 O 0.51908 0.94875 0.03664 0.0
O325 O 0.51585 0.03172 0.07273 0.0
C326 C 0.52864 0.05291 0.96488 0.0
C327 C 0.48668 0.94149 0.04751 0.0
Zn328 Zn 0.52754 0.47036 0.48054 0.0
Zn329 Zn 0.49011 0.52968 0.53535 0.0
C330 C 0.57131 0.51955 0.42632 0.0
O331 O 0.54477 0.50668 0.4069 0.0
C332 C 0.43641 0.48356 0.58572 0.0
O333 O 0.44561 0.51144 0.60717 0.0
O334 O 0.53333 0.41985 0.4577 0.0
O335 O 0.53127 0.45657 0.53554 0.0
O336 O 0.53808 0.51711 0.55251 0.0
C337 C 0.56416 0.40916 0.45472 0.0
O338 O 0.59108 0.4304 0.46746 0.0
O339 O 0.5702 0.50905 0.46074 0.0
C340 C 0.44724 0.58622 0.55775 0.0
O341 O 0.42402 0.56187 0.54282 0.0
O342 O 0.47915 0.57854 0.55849 0.0
O343 O 0.48304 0.54545 0.48214 0.0
O344 O 0.4836 0.48863 0.45812 0.0
O345 O 0.45192 0.48428 0.55392 0.0
C346 C 0.54361 0.48114 0.55735 0.0
C347 C 0.4748 0.52343 0.45681 0.0
Zn348 Zn 0.97057 0.5081 0.96848 0.0
Zn349 Zn 0.04209 0.47739 0.04582 0.0
C350 C 0.9284 0.45961 0.9234 0.0
O351 O 0.95791 0.46541 0.90256 0.0
C352 C 0.09014 0.5195 0.09048 0.0
O353 O 0.06459 0.50776 0.11573 0.0
O354 O 0.96735 0.5604 0.94045 0.0
O355 O 0.96434 0.51866 0.02171 0.0
O356 O 0.00056 0.50278 0.0655 0.0
C357 C 0.93642 0.57105 0.94262 0.0
O358 O 0.91155 0.54898 0.96357 0.0
O359 O 0.92756 0.47341 0.9547 0.0
C360 C 0.07269 0.41047 0.06814 0.0
O361 O 0.09454 0.42715 0.04088 0.0
O362 O 0.04441 0.42563 0.07491 0.0
O363 O 0.04809 0.46701 0.9928 0.0
O364 O 0.013 0.48464 0.94866 0.0
O365 O 0.08648 0.51096 0.0575 0.0
C366 C 0.97312 0.51765 0.05498 0.0
C367 C 0.03991 0.46899 0.9594 0.0
C368 C 0.12588 0.10237 0.42659 0.0
C369 C 0.12909 0.09231 0.38975 0.0
C370 C 0.08313 0.03658 0.40435 0.0
C371 C 0.07561 0.05059 0.43913 0.0
N372 N 0.08665 0.1017 0.48069 0.0
N373 N 0.10603 0.05401 0.3415 0.0
C374 C 0.09637 0.08459 0.44985 0.0
C375 C 0.10649 0.06047 0.37802 0.0
N376 N 0.15104 0.12884 0.43933 0.0
N377 N 0.0688 -0.00012 0.39676 0.0
H378 H 0.12232 0.07111 0.32102 0.0
H379 H 0.08708 0.034 0.33115 0.0
H380 H 0.05322 0.98035 0.4161 0.0
H381 H 0.07579 0.98711 0.37293 0.0
H382 H 0.15192 0.1344 0.46699 0.0
H383 H 0.17298 0.14233 0.42291 0.0
H384 H 0.09894 0.12865 0.4876 0.0
H385 H 0.06407 0.09127 0.49737 0.0
C386 C 0.40613 0.88833 0.88419 0.0
C387 C 0.40054 0.91281 0.85213 0.0
C388 C 0.43756 0.96756 0.87525 0.0
C389 C 0.449 0.94079 0.90288 0.0
N390 N 0.44644 0.87403 0.9317 0.0
N391 N 0.41226 0.97563 0.81562 0.0
C392 C 0.43341 0.90083 0.90744 0.0
C393 C 0.41614 0.95266 0.84746 0.0
N394 N 0.38561 0.85294 0.89198 0.0
N395 N 0.44695 0.00722 0.87584 0.0
H396 H 0.39656 0.96602 0.79463 0.0
H397 H 0.4266 0.00327 0.80891 0.0
H398 H 0.462 0.01902 0.89643 0.0
H399 H 0.43683 0.02843 0.85834 0.0
H400 H 0.38622 0.83539 0.91673 0.0
H401 H 0.36542 0.84319 0.87522 0.0
H402 H 0.43848 0.84379 0.93318 0.0
H403 H 0.46759 0.88128 0.94801 0.0
C404 C 0.57061 0.45163 0.65509 0.0
C405 C 0.59898 0.42961 0.64689 0.0
C406 C 0.59587 0.44963 0.58088 0.0
C407 C 0.56456 0.46716 0.58859 0.0
N408 N 0.52128 0.48435 0.63296 0.0
N409 N 0.63733 0.40474 0.60223 0.0
C410 C 0.55191 0.46841 0.62574 0.0
C411 C 0.61139 0.42794 0.60983 0.0
N412 N 0.56204 0.45715 0.691 0.0
N413 N 0.61163 0.45532 0.5461 0.0
H414 H 0.64981 0.38911 0.62275 0.0
H415 H 0.64473 0.3987 0.57563 0.0
H416 H 0.60174 0.47263 0.52484 0.0
H417 H 0.63626 0.44655 0.53927 0.0
H418 H 0.5443 0.47636 0.69881 0.0
H419 H 0.57475 0.4448 0.71324 0.0
H420 H 0.50783 0.48135 0.65873 0.0
H421 H 0.50802 0.49881 0.61252 0.0
C422 C 0.92937 0.59575 0.10322 0.0
C423 C 0.91396 0.57307 0.13555 0.0
C424 C 0.93262 0.5131 0.11188 0.0
C425 C 0.95176 0.53654 0.08199 0.0
N426 N 0.9728 0.60101 0.05184 0.0
N427 N 0.90504 0.51088 0.17333 0.0
C428 C 0.95121 0.57812 0.07823 0.0
C429 C 0.9165 0.53185 0.14055 0.0
N430 N 0.92244 0.63391 0.09598 0.0
N431 N 0.92908 0.47287 0.11239 0.0
H432 H 0.89342 0.52342 0.19524 0.0
H433 H 0.90975 0.48181 0.18005 0.0
H434 H 0.94058 0.45816 0.09188 0.0
H435 H 0.91219 0.45426 0.13124 0.0
H436 H 0.92988 0.65066 0.07106 0.0
H437 H 0.90629 0.64765 0.11353 0.0
H438 H 0.97655 0.63172 0.05048 0.0
H439 H 0.98932 0.58934 0.03306 0.0
C440 C 0.34233 0.09059 0.10514 0.0
C441 C 0.35565 0.10943 0.13581 0.0
C442 C 0.41193 0.08173 0.12796 0.0
C443 C 0.39893 0.06386 0.09667 0.0
N444 N 0.35509 0.05654 0.05115 0.0
N445 N 0.4046 0.12933 0.17261 0.0
C446 C 0.36515 0.07005 0.08383 0.0
C447 C 0.39094 0.10685 0.14613 0.0
N448 N 0.30745 0.09093 0.09739 0.0
N449 N 0.44418 0.07429 0.14051 0.0
H450 H 0.38989 0.14802 0.18648 0.0
H451 H 0.43118 0.13206 0.17887 0.0
H452 H 0.46132 0.058 0.12674 0.0
H453 H 0.45334 0.08239 0.16563 0.0
H454 H 0.29507 0.07413 0.07808 0.0
H455 H 0.28995 0.10593 0.11214 0.0
H456 H 0.33249 0.06376 0.03817 0.0
H457 H 0.37079 0.04037 0.03545 0.0
C458 C 0.16769 0.91111 0.5834 0.0
C459 C 0.17055 0.89918 0.62133 0.0
C460 C 0.11054 0.91546 0.63509 0.0
C461 C 0.10665 0.92427 0.59679 0.0
N462 N 0.12847 0.92254 0.53385 0.0
N463 N 0.14231 0.88187 0.68209 0.0
C464 C 0.13436 0.91975 0.57071 0.0
C465 C 0.14123 0.8989 0.64686 0.0
N466 N 0.19708 0.91568 0.55975 0.0
N467 N 0.08588 0.92475 0.66037 0.0
H468 H 0.16419 0.869 0.6917 0.0
H469 H 0.12034 0.87719 0.7007 0.0
H470 H 0.06325 0.93756 0.65304 0.0
H471 H 0.08949 0.92311 0.68864 0.0
H472 H 0.19731 0.92834 0.53268 0.0
H473 H 0.22211 0.91011 0.56807 0.0
H474 H 0.1465 0.91551 0.51379 0.0
H475 H 0.10414 0.92815 0.52357 0.0
C476 C 0.85463 0.44104 0.85751 0.0
C477 C 0.83185 0.41055 0.87823 0.0
C478 C 0.87403 0.40995 0.9275 0.0
C479 C 0.89517 0.44258 0.90812 0.0
N480 N 0.90043 0.49567 0.85927 0.0
N481 N 0.81909 0.36854 0.93577 0.0
C482 C 0.88411 0.45992 0.87433 0.0
C483 C 0.84116 0.39585 0.91383 0.0
N484 N 0.84905 0.45097 0.82122 0.0
N485 N 0.88507 0.39204 0.95927 0.0
H486 H 0.79375 0.35737 0.92896 0.0
H487 H 0.79375 0.35737 0.92896 0.0
H488 H 0.9096 0.40026 0.96989 0.0
H489 H 0.8701 0.3679 0.9741 0.0
H490 H 0.86704 0.47007 0.80387 0.0
H491 H 0.82837 0.43716 0.80736 0.0
H492 H 0.8909 0.51169 0.83695 0.0
H493 H 0.92114 0.51141 0.87148 0.0
C494 C 0.64312 0.54992 0.35141 0.0
C495 C 0.66189 0.5839 0.36388 0.0
C496 C 0.61594 0.58072 0.41435 0.0
C497 C 0.60362 0.54163 0.40676 0.0
N498 N 0.61049 0.4869 0.37033 0.0
N499 N 0.64759 0.64325 0.38913 0.0
C500 C 0.61862 0.52567 0.37591 0.0
C501 C 0.64346 0.60302 0.39077 0.0
N502 N 0.64378 0.54443 0.31478 0.0
N503 N 0.60137 0.59674 0.44366 0.0
H504 H 0.66204 0.66037 0.36726 0.0
H505 H 0.63279 0.65941 0.40571 0.0
H506 H 0.57998 0.58228 0.46022 0.0
H507 H 0.61206 0.62332 0.45286 0.0
H508 H 0.62801 0.52148 0.30424 0.0
H509 H 0.65602 0.56616 0.29498 0.0
H510 H 0.62279 0.47392 0.34908 0.0
H511 H 0.59495 0.46719 0.38945 0.0
C512 C 0.12176 0.32359 0.09636 0.0
C513 C 0.12829 0.33143 0.13332 0.0
C514 C 0.08649 0.38094 0.13083 0.0
C515 C 0.08403 0.37755 0.09241 0.0
N516 N 0.09251 0.34104 0.03988 0.0
N517 N 0.12132 0.37113 0.18416 0.0
C518 C 0.09975 0.34734 0.07555 0.0
C519 C 0.11166 0.36085 0.1502 0.0
N520 N 0.1367 0.29355 0.08145 0.0
N521 N 0.0644 0.40236 0.14929 0.0
H522 H 0.14013 0.35758 0.19916 0.0
H523 H 0.11339 0.39565 0.19588 0.0
H524 H 0.04419 0.41607 0.13722 0.0
H525 H 0.06293 0.40228 0.17792 0.0
H526 H 0.13392 0.28615 0.05458 0.0
H527 H 0.15207 0.27504 0.09632 0.0
H528 H 0.10347 0.32071 0.02462 0.0
H529 H 0.07401 0.35583 0.0255 0.0
C530 C 0.54275 0.15152 0.90539 0.0
C531 C 0.57988 0.15528 0.89729 0.0
C532 C 0.5838 0.09486 0.93704 0.0
C533 C 0.5461 0.08818 0.94139 0.0
N534 N 0.48976 0.10619 0.92087 0.0
N535 N 0.63403 0.12453 0.89746 0.0
C536 C 0.52549 0.11538 0.92306 0.0
C537 C 0.59985 0.12499 0.91054 0.0
N538 N 0.52403 0.18275 0.89748 0.0
N539 N 0.6046 0.07443 0.95961 0.0
H540 H 0.6465 0.14563 0.87728 0.0
H541 H 0.64847 0.10088 0.90374 0.0
H542 H 0.59456 0.05456 0.98183 0.0
H543 H 0.63208 0.08098 0.95918 0.0
H544 H 0.49757 0.18265 0.90636 0.0
H545 H 0.53576 0.21004 0.88527 0.0
H546 H 0.47434 0.1237 0.90495 0.0
H547 H 0.4762 0.07908 0.93124 0.0
C548 C 0.94736 0.85003 0.36079 0.0
C549 C 0.91368 0.82766 0.36874 0.0
C550 C 0.89849 0.87402 0.41281 0.0
C551 C 0.92984 0.89908 0.40108 0.0
N552 N 0.98254 0.91374 0.36071 0.0
N553 N 0.85425 0.82302 0.39673 0.0
C554 C 0.95401 0.88783 0.37427 0.0
C555 C 0.88842 0.84086 0.39331 0.0
N556 N 0.97326 0.8347 0.34131 0.0
N557 N 0.87885 0.88111 0.44337 0.0
H558 H 0.84508 0.79964 0.38179 0.0
H559 H 0.83408 0.83411 0.4115 0.0
H560 H 0.88586 0.90463 0.45905 0.0
H561 H 0.85783 0.86132 0.45536 0.0
H562 H -0.00063 0.84795 0.33776 0.0
H563 H 0.96945 0.80686 0.3315 0.0
H564 H -0.00113 0.90886 0.33826 0.0
H565 H 0.98828 0.94164 0.36999 0.0
C566 C 0.43961 0.67036 0.61922 0.0
C567 C 0.40803 0.68436 0.60679 0.0
C568 C 0.40837 0.64085 0.55712 0.0
C569 C 0.43563 0.62149 0.57381 0.0
N570 N 0.47123 0.61332 0.62727 0.0
N571 N 0.3575 0.67499 0.56886 0.0
C572 C 0.44986 0.635 0.60663 0.0
C573 C 0.39092 0.66734 0.57714 0.0
N574 N 0.46025 0.69106 0.64241 0.0
N575 N 0.40002 0.63551 0.52162 0.0
H576 H 0.34279 0.69252 0.58412 0.0
H577 H 0.34305 0.66027 0.54943 0.0
H578 H 0.41443 0.61945 0.50451 0.0
H579 H 0.38194 0.65139 0.50779 0.0
H580 H 0.48513 0.68366 0.64949 0.0
H581 H 0.45435 0.71794 0.65114 0.0
H582 H 0.47946 0.6209 0.65293 0.0
H583 H 0.47718 0.5855 0.62142 0.0
C584 C 0.87209 0.93755 0.59622 0.0
C585 C 0.874 0.89776 0.60946 0.0
C586 C 0.92943 0.89886 0.57209 0.0
C587 C 0.93186 0.9407 0.56774 0.0
N588 N 0.90485 0.00047 0.57462 0.0
N589 N 0.89199 0.83731 0.59048 0.0
C590 C 0.90295 0.96027 0.57937 0.0
C591 C 0.89889 0.87724 0.59107 0.0
N592 N 0.83998 0.95123 0.59296 0.0
N593 N 0.95683 0.88004 0.55957 0.0
H594 H 0.86845 0.82189 0.60252 0.0
H595 H 0.90738 0.82045 0.57529 0.0
H596 H 0.97909 0.89498 0.54463 0.0
H597 H 0.95837 0.85001 0.56561 0.0
H598 H 0.83703 0.9796 0.58159 0.0
H599 H 0.81677 0.93171 0.59395 0.0
H600 H 0.88567 0.01603 0.58607 0.0
H601 H 0.92662 0.01823 0.56138 0.0
C602 C 0.59227 0.04274 0.15762 0.0
C603 C 0.5993 0.0826 0.16567 0.0
C604 C 0.56809 0.10434 0.11167 0.0
C605 C 0.56376 0.06499 0.1017 0.0
N606 N 0.57704 -0.00232 0.11133 0.0
N607 N 0.60146 0.152 0.14584 0.0
C608 C 0.57739 0.03437 0.12358 0.0
C609 C 0.5896 0.11362 0.14122 0.0
N610 N 0.59863 0.01289 0.18298 0.0
N611 N 0.54998 0.13244 0.0945 0.0
H612 H 0.61771 0.16006 0.16698 0.0
H613 H 0.59814 0.17546 0.12659 0.0
H614 H 0.53245 0.12666 0.07385 0.0
H615 H 0.54936 0.16046 0.10347 0.0
H616 H 0.59043 0.98323 0.18041 0.0
H617 H 0.6097 0.01794 0.20812 0.0
H618 H 0.58973 0.97526 0.12429 0.0
H619 H 0.56679 0.99065 0.08629 0.0
C620 C 0.41394 0.52891 0.37572 0.0
C621 C 0.41959 0.56981 0.36376 0.0
C622 C 0.46439 0.579 0.40958 0.0
C623 C 0.45558 0.53921 0.42478 0.0
N624 N 0.41404 0.4798 0.42751 0.0
N625 N 0.44276 0.63536 0.37721 0.0
C626 C 0.42805 0.51505 0.40936 0.0
C627 C 0.44243 0.59537 0.38325 0.0
N628 N 0.39627 0.50295 0.35451 0.0
N629 N 0.49484 0.60065 0.41828 0.0
H630 H 0.42608 0.64853 0.3591 0.0
H631 H 0.45669 0.655 0.39326 0.0
H632 H 0.51377 0.58894 0.43447 0.0
H633 H 0.50346 0.62869 0.40544 0.0
H634 H 0.39462 0.47243 0.36038 0.0
H635 H 0.38638 0.51163 0.32919 0.0
H636 H 0.39194 0.46291 0.41874 0.0
H637 H 0.42155 0.46973 0.45351 0.0
C638 C 0.10225 0.457 0.87775 0.0
C639 C 0.10027 0.41519 0.87896 0.0
C640 C 0.05761 0.40879 0.93227 0.0
C641 C 0.06143 0.45049 0.93243 0.0
N642 N 0.09238 0.51398 0.91044 0.0
N643 N 0.08191 0.35137 0.91171 0.0
C644 C 0.08531 0.47452 0.9067 0.0
C645 C 0.07963 0.39108 0.90755 0.0
N646 N 0.11884 0.47998 0.84807 0.0
N647 N 0.03213 0.38618 0.9549 0.0
H648 H 0.0982 0.33744 0.89448 0.0
H649 H 0.07031 0.33283 0.93419 0.0
H650 H 0.01579 0.39801 0.97375 0.0
H651 H 0.02526 0.35613 0.953 0.0
H652 H 0.11783 0.51029 0.84377 0.0
H653 H 0.13113 0.4684 0.82597 0.0
H654 H 0.11252 0.53226 0.89513 0.0
H655 H 0.08014 0.52783 0.93112 0.0
C656 C 0.6228 0.86605 0.88747 0.0
C657 C 0.65798 0.88448 0.87996 0.0
C658 C 0.64483 0.93961 0.91477 0.0
C659 C 0.60862 0.92368 0.9183 0.0
N660 N 0.56182 0.87432 0.90396 0.0
N661 N 0.70214 0.94047 0.88285 0.0
C662 C 0.5972 0.88734 0.90392 0.0
C663 C 0.66891 0.92178 0.89258 0.0
N664 N 0.61394 0.82818 0.87899 0.0
N665 N 0.65644 0.97085 0.93391 0.0
H666 H 0.72117 0.92773 0.86789 0.0
H667 H 0.71004 0.96973 0.88731 0.0
H668 H 0.63976 0.98388 0.9515 0.0
H669 H 0.6831 0.98135 0.93536 0.0
H670 H 0.58994 0.81152 0.88768 0.0
H671 H 0.63165 0.81225 0.8656 0.0
H672 H 0.55174 0.85037 0.89026 0.0
H673 H 0.54203 0.8893 0.91499 0.0
C674 C 0.84409 0.09544 0.4284 0.0
C675 C 0.84117 0.10339 0.38981 0.0
C676 C 0.89969 0.08212 0.37818 0.0
C677 C 0.90382 0.07731 0.41683 0.0
N678 N 0.88335 0.08732 0.47852 0.0
N679 N 0.86909 0.11274 0.32844 0.0
C680 C 0.87702 0.0864 0.44191 0.0
C681 C 0.86992 0.09938 0.36482 0.0
N682 N 0.81504 0.09474 0.45202 0.0
N683 N 0.92293 0.0681 0.35425 0.0
H684 H 0.84781 0.12588 0.31765 0.0
H685 H 0.89085 0.11424 0.30977 0.0
H686 H 0.94457 0.05409 0.36272 0.0
H687 H 0.91881 0.06691 0.32625 0.0
H688 H 0.81472 0.08493 0.47993 0.0
H689 H 0.79025 0.10057 0.44321 0.0
H690 H 0.86613 0.09762 0.49749 0.0
H691 H 0.90742 0.0814 0.48927 0.0
C692 C 0.18612 0.53731 0.11634 0.0
C693 C 0.18735 0.57627 0.12713 0.0
C694 C 0.12673 0.58007 0.10745 0.0
C695 C 0.12412 0.53958 0.10123 0.0
N696 N 0.14945 0.47791 0.10385 0.0
N697 N 0.15814 0.63403 0.13626 0.0
C698 C 0.15337 0.51773 0.10659 0.0
C699 C 0.15753 0.59763 0.12334 0.0
N700 N 0.2165 0.51944 0.11449 0.0
N701 N 0.10002 0.60183 0.09752 0.0
H702 H 0.18022 0.64793 0.14797 0.0
H703 H 0.13599 0.64928 0.13794 0.0
H704 H 0.07696 0.58968 0.08618 0.0
H705 H 0.10188 0.6324 0.09762 0.0
H706 H 0.21805 0.49277 0.10309 0.0
H707 H 0.24106 0.53301 0.12124 0.0
H708 H 0.16851 0.4596 0.11154 0.0
H709 H 0.12587 0.46253 0.09677 0.0
C710 C 0.34206 0.44246 0.61106 0.0
C711 C 0.34691 0.41304 0.63973 0.0
C712 C 0.41127 0.4234 0.62626 0.0
C713 C 0.4063 0.45353 0.59841 0.0
N714 N 0.36761 0.48316 0.55655 0.0
N715 N 0.38457 0.36995 0.67056 0.0
C716 C 0.37181 0.46031 0.58833 0.0
C717 C 0.38112 0.40165 0.64599 0.0
N718 N 0.30916 0.45414 0.60629 0.0
N719 N 0.44496 0.41623 0.63401 0.0
H720 H 0.3631 0.35423 0.68619 0.0
H721 H 0.40816 0.35769 0.67411 0.0
H722 H 0.46707 0.42935 0.61767 0.0
H723 H 0.45119 0.39806 0.65661 0.0
H724 H 0.30464 0.47864 0.58892 0.0
H725 H 0.28645 0.44097 0.62163 0.0
H726 H 0.34308 0.48689 0.54593 0.0
H727 H 0.38897 0.49476 0.53851 0.0
C728 C 0.89628 0.66653 0.92173 0.0
C729 C 0.8926 0.66535 0.88322 0.0
C730 C 0.92874 0.61048 0.88287 0.0
C731 C 0.92738 0.60742 0.92202 0.0
N732 N 0.91095 0.6327 0.97936 0.0
N733 N 0.90093 0.63297 0.82768 0.0
C734 C 0.91155 0.63565 0.94164 0.0
C735 C 0.90795 0.63671 0.86383 0.0
N736 N 0.88602 0.69769 0.93898 0.0
N737 N 0.94972 0.58848 0.86371 0.0
H738 H 0.88521 0.65105 0.81278 0.0
H739 H 0.90786 0.60959 0.81346 0.0
H740 H 0.96522 0.56853 0.87625 0.0
H741 H 0.95444 0.59279 0.83519 0.0
H742 H 0.89099 0.7023 0.96625 0.0
H743 H 0.87499 0.72095 0.92513 0.0
H744 H 0.89584 0.64885 0.99561 0.0
H745 H 0.92481 0.61286 0.99465 0.0
C746 C 0.46044 0.83221 0.07782 0.0
C747 C 0.44119 0.83515 0.11152 0.0
C748 C 0.4596 0.90637 0.1068 0.0
C749 C 0.47397 0.90436 0.07057 0.0
N750 N 0.48777 0.86564 0.02059 0.0
N751 N 0.41951 0.87517 0.15697 0.0
C752 C 0.47467 0.86728 0.05589 0.0
C753 C 0.4401 0.87226 0.12585 0.0
N754 N 0.46566 0.79582 0.06721 0.0
N755 N 0.46599 0.94045 0.12361 0.0
H756 H 0.40516 0.85077 0.17199 0.0
H757 H 0.41451 0.90205 0.16628 0.0
H758 H 0.48142 0.96544 0.11084 0.0
H759 H 0.45917 0.94268 0.15129 0.0
H760 H 0.48256 0.79153 0.04504 0.0
H761 H 0.45538 0.76954 0.0825 0.0
H762 H 0.48511 0.84019 0.00675 0.0
H763 H 0.49955 0.89037 0.00407 0.0
C764 C 0.10037 0.12662 0.66178 0.0
C765 C 0.09316 0.16531 0.64975 0.0
C766 C 0.0642 0.14109 0.59575 0.0
C767 C 0.07387 0.10308 0.60647 0.0
N768 N 0.09262 0.05666 0.65301 0.0
N769 N 0.06515 0.20988 0.60883 0.0
C770 C 0.08932 0.09493 0.64062 0.0
C771 C 0.07367 0.17258 0.61795 0.0
N772 N 0.11917 0.12069 0.69259 0.0
N773 N 0.04651 0.14683 0.56412 0.0
H774 H 0.07138 0.23315 0.62503 0.0
H775 H 0.05133 0.21819 0.586 0.0
H776 H 0.03868 0.12402 0.54795 0.0
H777 H 0.03899 0.17367 0.55367 0.0
H778 H 0.12919 0.09439 0.7006 0.0
H779 H 0.12613 0.14291 0.70974 0.0
H780 H 0.10063 0.04796 0.67911 0.0
H781 H 0.08462 0.03276 0.63814 0.0
C782 C 0.58892 0.30644 0.44298 0.0
C783 C 0.59607 0.30975 0.4042 0.0
C784 C 0.57115 0.37276 0.3988 0.0
C785 C 0.57015 0.37271 0.43771 0.0
N786 N 0.57836 0.34019 0.4976 0.0
N787 N 0.59842 0.34861 0.34534 0.0
C788 C 0.57902 0.33964 0.46008 0.0
C789 C 0.58809 0.34345 0.38201 0.0
N790 N 0.59067 0.27125 0.46323 0.0
N791 N 0.55575 0.40054 0.37788 0.0
H792 H 0.61156 0.32822 0.33201 0.0
H793 H 0.59686 0.37476 0.32892 0.0
H794 H 0.54258 0.4221 0.38935 0.0
H795 H 0.55299 0.3998 0.3496 0.0
H796 H 0.58243 0.26585 0.49102 0.0
H797 H 0.59725 0.24613 0.45143 0.0
H798 H 0.5886 0.3191 0.5151 0.0
H799 H 0.5691 0.36298 0.51117 0.0
loop_
_geom_bond_atom_site_label_1
_geom_bond_atom_site_label_2
_geom_bond_distance
_geom_bond_site_symmetry_2
_ccdc_geom_bond_type
C0 C1 1.384 . S
C0 H13 0.947 . S
C0 C35 1.382 . S
C1 C0 1.384 . S
C1 C2 1.378 . S
C2 C1 1.378 . S
C2 C3 1.378 . S
C2 H14 0.952 . S
C3 C2 1.378 . S
C3 H15 0.950 . S
C3 C34 1.383 . S
H4 C23 0.947 . S
H5 C24 0.946 . S
H6 C26 0.953 . S
H7 C27 0.945 . S
H8 C29 0.952 . S
H9 C30 0.949 . S
H10 C32 0.950 . S
H11 C33 0.948 . S
H12 C35 0.951 . S
H13 C0 0.947 . S
H14 C2 0.952 . S
H15 C3 0.950 . S
N16 C19 1.382 . S
N16 C21 1.363 . S
N17 C19 1.371 . S
N17 C20 1.372 . S
N18 C20 1.361 . S
N18 C21 1.377 . S
C19 N16 1.382 . S
C19 N17 1.371 . S
C19 C22 1.480 . S
C20 N17 1.372 . S
C20 N18 1.361 . S
C20 C28 1.457 . S
C21 N16 1.363 . S
C21 N18 1.377 . S
C21 C34 1.479 . S
C22 C19 1.480 . S
C22 C23 1.383 . S
C22 C27 1.385 . S
C23 H4 0.947 . S
C23 C22 1.383 . S
C23 C24 1.388 . S
C24 H5 0.946 . S
C24 C23 1.388 . S
C24 C25 1.384 . S
C25 C24 1.384 . S
C25 C26 1.377 . S
C26 H6 0.953 . S
C26 C25 1.377 . S
C26 C27 1.369 . S
C27 H7 0.945 . S
C27 C22 1.385 . S
C27 C26 1.369 . S
C28 C20 1.457 . S
C28 C29 1.372 . S
C28 C33 1.364 . S
C29 H8 0.952 . S
C29 C28 1.372 . S
C29 C30 1.389 . S
C30 H9 0.949 . S
C30 C29 1.389 . S
C30 C31 1.387 . S
C31 C30 1.387 . S
C31 C32 1.372 . S
C32 H10 0.950 . S
C32 C31 1.372 . S
C32 C33 1.379 . S
C33 H11 0.948 . S
C33 C28 1.364 . S
C33 C32 1.379 . S
C34 C3 1.383 . S
C34 C21 1.479 . S
C34 C35 1.398 . S
C35 C0 1.382 . S
C35 H12 0.951 . S
C35 C34 1.398 . S
C36 C37 1.384 . S
C36 H49 0.947 . S
C36 C71 1.382 . S
C37 C36 1.384 . S
C37 C38 1.378 . S
C38 C37 1.378 . S
C38 C39 1.378 . S
C38 H50 0.952 . S
C39 C38 1.378 . S
C39 H51 0.950 . S
C39 C70 1.383 . S
H40 C59 0.947 . S
H41 C60 0.946 . S
H42 C62 0.953 . S
H43 C63 0.945 . S
H44 C65 0.952 . S
H45 C66 0.949 . S
H46 C68 0.950 . S
H47 C69 0.948 . S
H48 C71 0.951 . S
H49 C36 0.947 . S
H50 C38 0.952 . S
H51 C39 0.950 . S
N52 C55 1.382 . S
N52 C57 1.363 . S
N53 C55 1.371 . S
N53 C56 1.372 . S
N54 C56 1.361 . S
N54 C57 1.377 . S
C55 N52 1.382 . S
C55 N53 1.371 . S
C55 C58 1.480 . S
C56 N53 1.372 . S
C56 N54 1.361 . S
C56 C64 1.457 . S
C57 N52 1.363 . S
C57 N54 1.377 . S
C57 C70 1.479 . S
C58 C55 1.480 . S
C58 C59 1.383 . S
C58 C63 1.385 . S
C59 H40 0.947 . S
C59 C58 1.383 . S
C59 C60 1.388 . S
C60 H41 0.946 . S
C60 C59 1.388 . S
C60 C61 1.384 . S
C61 C60 1.384 . S
C61 C62 1.377 . S
C62 H42 0.953 . S
C62 C61 1.377 . S
C62 C63 1.369 . S
C63 H43 0.945 . S
C63 C58 1.385 . S
C63 C62 1.369 . S
C64 C56 1.457 . S
C64 C65 1.372 . S
C64 C69 1.364 . S
C65 H44 0.952 . S
C65 C64 1.372 . S
C65 C66 1.389 . S
C66 H45 0.949 . S
C66 C65 1.389 . S
C66 C67 1.387 . S
C67 C66 1.387 . S
C67 C68 1.372 . S
C68 H46 0.950 . S
C68 C67 1.372 . S
C68 C69 1.379 . S
C69 H47 0.948 . S
C69 C64 1.364 . S
C69 C68 1.379 . S
C70 C39 1.383 . S
C70 C57 1.479 . S
C70 C71 1.398 . S
C71 C36 1.382 . S
C71 H48 0.951 . S
C71 C70 1.398 . S
C72 C73 1.384 . S
C72 H85 0.947 . S
C72 C107 1.382 . S
C73 C72 1.384 . S
C73 C74 1.378 . S
C74 C73 1.378 . S
C74 C75 1.378 . S
C74 H86 0.952 . S
C75 C74 1.378 . S
C75 H87 0.950 . S
C75 C106 1.383 . S
H76 C95 0.947 . S
H77 C96 0.946 . S
H78 C98 0.953 . S
H79 C99 0.945 . S
H80 C101 0.952 . S
H81 C102 0.949 . S
H82 C104 0.950 . S
H83 C105 0.948 . S
H84 C107 0.951 . S
H85 C72 0.947 . S
H86 C74 0.952 . S
H87 C75 0.950 . S
N88 C91 1.382 . S
N88 C93 1.363 . S
N89 C91 1.371 . S
N89 C92 1.372 . S
N90 C92 1.361 . S
N90 C93 1.377 . S
C91 N88 1.382 . S
C91 N89 1.371 . S
C91 C94 1.480 . S
C92 N89 1.372 . S
C92 N90 1.361 . S
C92 C100 1.457 . S
C93 N88 1.363 . S
C93 N90 1.377 . S
C93 C106 1.479 . S
C94 C91 1.480 . S
C94 C95 1.383 . S
C94 C99 1.385 . S
C95 H76 0.947 . S
C95 C94 1.383 . S
C95 C96 1.388 . S
C96 H77 0.946 . S
C96 C95 1.388 . S
C96 C97 1.384 . S
C97 C96 1.384 . S
C97 C98 1.377 . S
C98 H78 0.953 . S
C98 C97 1.377 . S
C98 C99 1.369 . S
C99 H79 0.945 . S
C99 C94 1.385 . S
C99 C98 1.369 . S
C100 C92 1.457 . S
C100 C101 1.372 . S
C100 C105 1.364 . S
C101 H80 0.952 . S
C101 C100 1.372 . S
C101 C102 1.389 . S
C102 H81 0.949 . S
C102 C101 1.389 . S
C102 C103 1.387 . S
C103 C102 1.387 . S
C103 C104 1.372 . S
C104 H82 0.950 . S
C104 C103 1.372 . S
C104 C105 1.379 . S
C105 H83 0.948 . S
C105 C100 1.364 . S
C105 C104 1.379 . S
C106 C75 1.383 . S
C106 C93 1.479 . S
C106 C107 1.398 . S
C107 C72 1.382 . S
C107 H84 0.951 . S
C107 C106 1.398 . S
C108 C109 1.384 . S
C108 H121 0.947 . S
C108 C143 1.382 . S
C109 C108 1.384 . S
C109 C110 1.378 . S
C110 C109 1.378 . S
C110 C111 1.378 . S
C110 H122 0.952 . S
C111 C110 1.378 . S
C111 H123 0.950 . S
C111 C142 1.383 . S
H112 C131 0.947 . S
H113 C132 0.946 . S
H114 C134 0.953 . S
H115 C135 0.945 . S
H116 C137 0.952 . S
H117 C138 0.949 . S
H118 C140 0.950 . S
H119 C141 0.948 . S
H120 C143 0.951 . S
H121 C108 0.947 . S
H122 C110 0.952 . S
H123 C111 0.950 . S
N124 C127 1.382 . S
N124 C129 1.363 . S
N125 C127 1.371 . S
N125 C128 1.372 . S
N126 C128 1.361 . S
N126 C129 1.377 . S
C127 N124 1.382 . S
C127 N125 1.371 . S
C127 C130 1.480 . S
C128 N125 1.372 . S
C128 N126 1.361 . S
C128 C136 1.457 . S
C129 N124 1.363 . S
C129 N126 1.377 . S
C129 C142 1.479 . S
C130 C127 1.480 . S
C130 C131 1.383 . S
C130 C135 1.385 . S
C131 H112 0.947 . S
C131 C130 1.383 . S
C131 C132 1.388 . S
C132 H113 0.946 . S
C132 C131 1.388 . S
C132 C133 1.384 . S
C133 C132 1.384 . S
C133 C134 1.377 . S
C134 H114 0.953 . S
C134 C133 1.377 . S
C134 C135 1.369 . S
C135 H115 0.945 . S
C135 C130 1.385 . S
C135 C134 1.369 . S
C136 C128 1.457 . S
C136 C137 1.372 . S
C136 C141 1.364 . S
C137 H116 0.952 . S
C137 C136 1.372 . S
C137 C138 1.389 . S
C138 H117 0.949 . S
C138 C137 1.389 . S
C138 C139 1.387 . S
C139 C138 1.387 . S
C139 C140 1.372 . S
C140 H118 0.950 . S
C140 C139 1.372 . S
C140 C141 1.379 . S
C141 H119 0.948 . S
C141 C136 1.364 . S
C141 C140 1.379 . S
C142 C111 1.383 . S
C142 C129 1.479 . S
C142 C143 1.398 . S
C143 C108 1.382 . S
C143 H120 0.951 . S
C143 C142 1.398 . S
C144 C145 1.384 . S
C144 H157 0.947 . S
C144 C179 1.382 . S
C145 C144 1.384 . S
C145 C146 1.378 . S
C146 C145 1.378 . S
C146 C147 1.378 . S
C146 H158 0.952 . S
C147 C146 1.378 . S
C147 H159 0.950 . S
C147 C178 1.383 . S
H148 C167 0.947 . S
H149 C168 0.946 . S
H150 C170 0.953 . S
H151 C171 0.945 . S
H152 C173 0.952 . S
H153 C174 0.949 . S
H154 C176 0.950 . S
H155 C177 0.948 . S
H156 C179 0.951 . S
H157 C144 0.947 . S
H158 C146 0.952 . S
H159 C147 0.950 . S
N160 C163 1.382 . S
N160 C165 1.363 . S
N161 C163 1.371 . S
N161 C164 1.372 . S
N162 C164 1.361 . S
N162 C165 1.377 . S
C163 N160 1.382 . S
C163 N161 1.371 . S
C163 C166 1.480 . S
C164 N161 1.372 . S
C164 N162 1.361 . S
C164 C172 1.457 . S
C165 N160 1.363 . S
C165 N162 1.377 . S
C165 C178 1.479 . S
C166 C163 1.480 . S
C166 C167 1.383 . S
C166 C171 1.385 . S
C167 H148 0.947 . S
C167 C166 1.383 . S
C167 C168 1.388 . S
C168 H149 0.946 . S
C168 C167 1.388 . S
C168 C169 1.384 . S
C169 C168 1.384 . S
C169 C170 1.377 . S
C170 H150 0.953 . S
C170 C169 1.377 . S
C170 C171 1.369 . S
C171 H151 0.945 . S
C171 C166 1.385 . S
C171 C170 1.369 . S
C172 C164 1.457 . S
C172 C173 1.372 . S
C172 C177 1.364 . S
C173 H152 0.952 . S
C173 C172 1.372 . S
C173 C174 1.389 . S
C174 H153 0.949 . S
C174 C173 1.389 . S
C174 C175 1.387 . S
C175 C174 1.387 . S
C175 C176 1.372 . S
C176 H154 0.950 . S
C176 C175 1.372 . S
C176 C177 1.379 . S
C177 H155 0.948 . S
C177 C172 1.364 . S
C177 C176 1.379 . S
C178 C147 1.383 . S
C178 C165 1.479 . S
C178 C179 1.398 . S
C179 C144 1.382 . S
C179 H156 0.951 . S
C179 C178 1.398 . S
C180 C181 1.384 . S
C180 H193 0.947 . S
C180 C215 1.382 . S
C181 C180 1.384 . S
C181 C182 1.378 . S
C182 C181 1.378 . S
C182 C183 1.378 . S
C182 H194 0.952 . S
C183 C182 1.378 . S
C183 H195 0.950 . S
C183 C214 1.383 . S
H184 C203 0.947 . S
H185 C204 0.946 . S
H186 C206 0.953 . S
H187 C207 0.945 . S
H188 C209 0.952 . S
H189 C210 0.949 . S
H190 C212 0.950 . S
H191 C213 0.948 . S
H192 C215 0.951 . S
H193 C180 0.947 . S
H194 C182 0.952 . S
H195 C183 0.950 . S
N196 C199 1.382 . S
N196 C201 1.363 . S
N197 C199 1.371 . S
N197 C200 1.372 . S
N198 C200 1.361 . S
N198 C201 1.377 . S
C199 N196 1.382 . S
C199 N197 1.371 . S
C199 C202 1.480 . S
C200 N197 1.372 . S
C200 N198 1.361 . S
C200 C208 1.457 . S
C201 N196 1.363 . S
C201 N198 1.377 . S
C201 C214 1.479 . S
C202 C199 1.480 . S
C202 C203 1.383 . S
C202 C207 1.385 . S
C203 H184 0.947 . S
C203 C202 1.383 . S
C203 C204 1.388 . S
C204 H185 0.946 . S
C204 C203 1.388 . S
C204 C205 1.384 . S
C205 C204 1.384 . S
C205 C206 1.377 . S
C206 H186 0.953 . S
C206 C205 1.377 . S
C206 C207 1.369 . S
C207 H187 0.945 . S
C207 C202 1.385 . S
C207 C206 1.369 . S
C208 C200 1.457 . S
C208 C209 1.372 . S
C208 C213 1.364 . S
C209 H188 0.952 . S
C209 C208 1.372 . S
C209 C210 1.389 . S
C210 H189 0.949 . S
C210 C209 1.389 . S
C210 C211 1.387 . S
C211 C210 1.387 . S
C211 C212 1.372 . S
C212 H190 0.950 . S
C212 C211 1.372 . S
C212 C213 1.379 . S
C213 H191 0.948 . S
C213 C208 1.364 . S
C213 C212 1.379 . S
C214 C183 1.383 . S
C214 C201 1.479 . S
C214 C215 1.398 . S
C215 C180 1.382 . S
C215 H192 0.951 . S
C215 C214 1.398 . S
C216 C217 1.384 . S
C216 H229 0.947 . S
C216 C251 1.382 . S
C217 C216 1.384 . S
C217 C218 1.378 . S
C218 C217 1.378 . S
C218 C219 1.378 . S
C218 H230 0.952 . S
C219 C218 1.378 . S
C219 H231 0.950 . S
C219 C250 1.383 . S
H220 C239 0.947 . S
H221 C240 0.946 . S
H222 C242 0.953 . S
H223 C243 0.945 . S
H224 C245 0.952 . S
H225 C246 0.949 . S
H226 C248 0.950 . S
H227 C249 0.948 . S
H228 C251 0.951 . S
H229 C216 0.947 . S
H230 C218 0.952 . S
H231 C219 0.950 . S
N232 C235 1.382 . S
N232 C237 1.363 . S
N233 C235 1.371 . S
N233 C236 1.372 . S
N234 C236 1.361 . S
N234 C237 1.377 . S
C235 N232 1.382 . S
C235 N233 1.371 . S
C235 C238 1.480 . S
C236 N233 1.372 . S
C236 N234 1.361 . S
C236 C244 1.457 . S
C237 N232 1.363 . S
C237 N234 1.377 . S
C237 C250 1.479 . S
C238 C235 1.480 . S
C238 C239 1.383 . S
C238 C243 1.385 . S
C239 H220 0.947 . S
C239 C238 1.383 . S
C239 C240 1.388 . S
C240 H221 0.946 . S
C240 C239 1.388 . S
C240 C241 1.384 . S
C241 C240 1.384 . S
C241 C242 1.377 . S
C242 H222 0.953 . S
C242 C241 1.377 . S
C242 C243 1.369 . S
C243 H223 0.945 . S
C243 C238 1.385 . S
C243 C242 1.369 . S
C244 C236 1.457 . S
C244 C245 1.372 . S
C244 C249 1.364 . S
C245 H224 0.952 . S
C245 C244 1.372 . S
C245 C246 1.389 . S
C246 H225 0.949 . S
C246 C245 1.389 . S
C246 C247 1.387 . S
C247 C246 1.387 . S
C247 C248 1.372 . S
C248 H226 0.950 . S
C248 C247 1.372 . S
C248 C249 1.379 . S
C249 H227 0.948 . S
C249 C244 1.364 . S
C249 C248 1.379 . S
C250 C219 1.383 . S
C250 C237 1.479 . S
C250 C251 1.398 . S
C251 C216 1.382 . S
C251 H228 0.951 . S
C251 C250 1.398 . S
C252 C253 1.384 . S
C252 H265 0.947 . S
C252 C287 1.382 . S
C253 C252 1.384 . S
C253 C254 1.378 . S
C254 C253 1.378 . S
C254 C255 1.378 . S
C254 H266 0.952 . S
C255 C254 1.378 . S
C255 H267 0.950 . S
C255 C286 1.383 . S
H256 C275 0.947 . S
H257 C276 0.946 . S
H258 C278 0.953 . S
H259 C279 0.945 . S
H260 C281 0.952 . S
H261 C282 0.949 . S
H262 C284 0.950 . S
H263 C285 0.948 . S
H264 C287 0.951 . S
H265 C252 0.947 . S
H266 C254 0.952 . S
H267 C255 0.950 . S
N268 C271 1.382 . S
N268 C273 1.363 . S
N269 C271 1.371 . S
N269 C272 1.372 . S
N270 C272 1.361 . S
N270 C273 1.377 . S
C271 N268 1.382 . S
C271 N269 1.371 . S
C271 C274 1.480 . S
C272 N269 1.372 . S
C272 N270 1.361 . S
C272 C280 1.457 . S
C273 N268 1.363 . S
C273 N270 1.377 . S
C273 C286 1.479 . S
C274 C271 1.480 . S
C274 C275 1.383 . S
C274 C279 1.385 . S
C275 H256 0.947 . S
C275 C274 1.383 . S
C275 C276 1.388 . S
C276 H257 0.946 . S
C276 C275 1.388 . S
C276 C277 1.384 . S
C277 C276 1.384 . S
C277 C278 1.377 . S
C278 H258 0.953 . S
C278 C277 1.377 . S
C278 C279 1.369 . S
C279 H259 0.945 . S
C279 C274 1.385 . S
C279 C278 1.369 . S
C280 C272 1.457 . S
C280 C281 1.372 . S
C280 C285 1.364 . S
C281 H260 0.952 . S
C281 C280 1.372 . S
C281 C282 1.389 . S
C282 H261 0.949 . S
C282 C281 1.389 . S
C282 C283 1.387 . S
C283 C282 1.387 . S
C283 C284 1.372 . S
C284 H262 0.950 . S
C284 C283 1.372 . S
C284 C285 1.379 . S
C285 H263 0.948 . S
C285 C280 1.364 . S
C285 C284 1.379 . S
C286 C255 1.383 . S
C286 C273 1.479 . S
C286 C287 1.398 . S
C287 C252 1.382 . S
C287 H264 0.951 . S
C287 C286 1.398 . S
Zn288 O294 1.969 1_545 S
Zn288 O295 1.965 1_545 S
Zn288 O299 2.024 . S
Zn288 O304 1.969 . S
Zn289 O296 1.969 . S
Zn289 O302 1.969 1_565 S
Zn289 O303 1.965 1_665 S
Zn289 O305 2.024 . S
C290 O291 1.229 . S
C290 O299 1.058 . S
O291 C290 1.229 . S
C292 O293 1.229 . S
C292 O305 1.058 . S
O293 C292 1.229 . S
O294 Zn288 1.969 1_565 S
O294 C297 1.267 . S
O295 Zn288 1.965 1_565 S
O295 C306 1.260 1_455 S
O296 Zn289 1.969 . S
O296 C306 1.258 . S
C297 O294 1.267 . S
C297 O298 1.228 . S
O298 C297 1.228 . S
O299 Zn288 2.024 . S
O299 C290 1.058 . S
C300 O301 1.228 . S
C300 O302 1.267 . S
O301 C300 1.228 . S
O302 Zn289 1.969 1_545 S
O302 C300 1.267 . S
O303 Zn289 1.965 1_445 S
O303 C307 1.260 . S
O304 Zn288 1.969 . S
O304 C307 1.258 . S
O305 Zn289 2.024 . S
O305 C292 1.058 . S
C306 O295 1.260 1_655 S
C306 O296 1.258 . S
C307 O303 1.260 . S
C307 O304 1.258 . S
Zn308 O314 1.969 . S
Zn308 O315 1.965 1_565 S
Zn308 O319 2.024 . S
Zn308 O324 1.969 1_556 S
Zn309 O316 1.969 . S
Zn309 O322 1.969 . S
Zn309 O323 1.965 1_545 S
Zn309 O325 2.024 . S
C310 O311 1.229 . S
C310 O319 1.058 . S
O311 C310 1.229 . S
C312 O313 1.229 . S
C312 O325 1.058 . S
O313 C312 1.229 . S
O314 Zn308 1.969 . S
O314 C317 1.267 . S
O315 Zn308 1.965 1_545 S
O315 C326 1.260 . S
O316 Zn309 1.969 . S
O316 C326 1.258 1_554 S
C317 O314 1.267 . S
C317 O318 1.228 . S
O318 C317 1.228 . S
O319 Zn308 2.024 . S
O319 C310 1.058 . S
C320 O321 1.228 . S
C320 O322 1.267 . S
O321 C320 1.228 . S
O322 Zn309 1.969 . S
O322 C320 1.267 . S
O323 Zn309 1.965 1_565 S
O323 C327 1.260 . S
O324 Zn308 1.969 1_554 S
O324 C327 1.258 . S
O325 Zn309 2.024 . S
O325 C312 1.058 . S
C326 O315 1.260 . S
C326 O316 1.258 1_556 S
C327 O323 1.260 . S
C327 O324 1.258 . S
Zn328 O334 1.969 . S
Zn328 O335 1.965 . S
Zn328 O339 2.024 . S
Zn328 O344 1.969 . S
Zn329 O336 1.969 . S
Zn329 O342 1.969 . S
Zn329 O343 1.965 . S
Zn329 O345 2.024 . S
C330 O331 1.229 . S
C330 O339 1.058 . S
O331 C330 1.229 . S
C332 O333 1.229 . S
C332 O345 1.058 . S
O333 C332 1.229 . S
O334 Zn328 1.969 . S
O334 C337 1.267 . S
O335 Zn328 1.965 . S
O335 C346 1.260 . S
O336 Zn329 1.969 . S
O336 C346 1.258 . S
C337 O334 1.267 . S
C337 O338 1.228 . S
O338 C337 1.228 . S
O339 Zn328 2.024 . S
O339 C330 1.058 . S
C340 O341 1.228 . S
C340 O342 1.267 . S
O341 C340 1.228 . S
O342 Zn329 1.969 . S
O342 C340 1.267 . S
O343 Zn329 1.965 . S
O343 C347 1.260 . S
O344 Zn328 1.969 . S
O344 C347 1.258 . S
O345 Zn329 2.024 . S
O345 C332 1.058 . S
C346 O335 1.260 . S
C346 O336 1.258 . S
C347 O343 1.260 . S
C347 O344 1.258 . S
Zn348 O354 1.969 . S
Zn348 O355 1.965 1_556 S
Zn348 O359 2.024 . S
Zn348 O364 1.969 1_655 S
Zn349 O356 1.969 . S
Zn349 O362 1.969 . S
Zn349 O363 1.965 1_554 S
Zn349 O365 2.024 . S
C350 O351 1.229 . S
C350 O359 1.058 . S
O351 C350 1.229 . S
C352 O353 1.229 . S
C352 O365 1.058 . S
O353 C352 1.229 . S
O354 Zn348 1.969 . S
O354 C357 1.267 . S
O355 Zn348 1.965 1_554 S
O355 C366 1.260 . S
O356 Zn349 1.969 . S
O356 C366 1.258 1_455 S
C357 O354 1.267 . S
C357 O358 1.228 . S
O358 C357 1.228 . S
O359 Zn348 2.024 . S
O359 C350 1.058 . S
C360 O361 1.228 . S
C360 O362 1.267 . S
O361 C360 1.228 . S
O362 Zn349 1.969 . S
O362 C360 1.267 . S
O363 Zn349 1.965 1_556 S
O363 C367 1.260 . S
O364 Zn348 1.969 1_455 S
O364 C367 1.258 . S
O365 Zn349 2.024 . S
O365 C352 1.058 . S
C366 O355 1.260 . S
C366 O356 1.258 1_655 S
C367 O363 1.260 . S
C367 O364 1.258 . S
C368 C369 1.363 . S
C368 C374 1.379 . S
C368 N376 1.356 . S
C369 C368 1.363 . S
C369 C375 1.363 . S
C370 C371 1.363 . S
C370 C375 1.379 . S
C370 N377 1.356 . S
C371 C370 1.363 . S
C371 C374 1.363 . S
N372 C374 1.356 . S
N372 H384 0.984 . S
N372 H385 0.985 . S
N373 C375 1.356 . S
N373 H378 0.984 . S
N373 H379 0.985 . S
C374 C368 1.379 . S
C374 C371 1.363 . S
C374 N372 1.356 . S
C375 C369 1.363 . S
C375 C370 1.379 . S
C375 N373 1.356 . S
N376 C368 1.356 . S
N376 H382 0.984 . S
N376 H383 0.984 . S
N377 C370 1.356 . S
N377 H380 0.984 . S
N377 H381 0.985 . S
H378 N373 0.984 . S
H379 N373 0.985 . S
H380 N377 0.984 . S
H381 N377 0.985 . S
H382 N376 0.984 . S
H383 N376 0.984 . S
H384 N372 0.984 . S
H385 N372 0.985 . S
C386 C387 1.363 . S
C386 C392 1.379 . S
C386 N394 1.356 . S
C387 C386 1.363 . S
C387 C393 1.363 . S
C388 C389 1.363 . S
C388 C393 1.379 . S
C388 N395 1.356 1_565 S
C389 C388 1.363 . S
C389 C392 1.363 . S
N390 C392 1.356 . S
N390 H402 0.984 . S
N390 H403 0.985 . S
N391 C393 1.356 . S
N391 H396 0.984 . S
N391 H397 0.985 . S
C392 C386 1.379 . S
C392 C389 1.363 . S
C392 N390 1.356 . S
C393 C387 1.363 . S
C393 C388 1.379 . S
C393 N391 1.356 . S
N394 C386 1.356 . S
N394 H400 0.984 . S
N394 H401 0.984 . S
N395 C388 1.356 1_545 S
N395 H398 0.984 . S
N395 H399 0.985 . S
H396 N391 0.984 . S
H397 N391 0.985 . S
H398 N395 0.984 . S
H399 N395 0.985 . S
H400 N394 0.984 . S
H401 N394 0.984 . S
H402 N390 0.984 . S
H403 N390 0.985 . S
C404 C405 1.363 . S
C404 C410 1.379 . S
C404 N412 1.356 . S
C405 C404 1.363 . S
C405 C411 1.363 . S
C406 C407 1.363 . S
C406 C411 1.379 . S
C406 N413 1.356 . S
C407 C406 1.363 . S
C407 C410 1.363 . S
N408 C410 1.356 . S
N408 H420 0.984 . S
N408 H421 0.985 . S
N409 C411 1.356 . S
N409 H414 0.984 . S
N409 H415 0.985 . S
C410 C404 1.379 . S
C410 C407 1.363 . S
C410 N408 1.356 . S
C411 C405 1.363 . S
C411 C406 1.379 . S
C411 N409 1.356 . S
N412 C404 1.356 . S
N412 H418 0.984 . S
N412 H419 0.984 . S
N413 C406 1.356 . S
N413 H416 0.984 . S
N413 H417 0.985 . S
H414 N409 0.984 . S
H415 N409 0.985 . S
H416 N413 0.984 . S
H417 N413 0.985 . S
H418 N412 0.984 . S
H419 N412 0.984 . S
H420 N408 0.984 . S
H421 N408 0.985 . S
C422 C423 1.363 . S
C422 C428 1.379 . S
C422 N430 1.356 . S
C423 C422 1.363 . S
C423 C429 1.363 . S
C424 C425 1.363 . S
C424 C429 1.379 . S
C424 N431 1.356 . S
C425 C424 1.363 . S
C425 C428 1.363 . S
N426 C428 1.356 . S
N426 H438 0.984 . S
N426 H439 0.985 . S
N427 C429 1.356 . S
N427 H432 0.984 . S
N427 H433 0.985 . S
C428 C422 1.379 . S
C428 C425 1.363 . S
C428 N426 1.356 . S
C429 C423 1.363 . S
C429 C424 1.379 . S
C429 N427 1.356 . S
N430 C422 1.356 . S
N430 H436 0.984 . S
N430 H437 0.984 . S
N431 C424 1.356 . S
N431 H434 0.984 . S
N431 H435 0.985 . S
H432 N427 0.984 . S
H433 N427 0.985 . S
H434 N431 0.984 . S
H435 N431 0.985 . S
H436 N430 0.984 . S
H437 N430 0.984 . S
H438 N426 0.984 . S
H439 N426 0.985 . S
C440 C441 1.363 . S
C440 C446 1.379 . S
C440 N448 1.356 . S
C441 C440 1.363 . S
C441 C447 1.363 . S
C442 C443 1.363 . S
C442 C447 1.379 . S
C442 N449 1.356 . S
C443 C442 1.363 . S
C443 C446 1.363 . S
N444 C446 1.356 . S
N444 H456 0.984 . S
N444 H457 0.985 . S
N445 C447 1.356 . S
N445 H450 0.984 . S
N445 H451 0.985 . S
C446 C440 1.379 . S
C446 C443 1.363 . S
C446 N444 1.356 . S
C447 C441 1.363 . S
C447 C442 1.379 . S
C447 N445 1.356 . S
N448 C440 1.356 . S
N448 H454 0.984 . S
N448 H455 0.984 . S
N449 C442 1.356 . S
N449 H452 0.984 . S
N449 H453 0.985 . S
H450 N445 0.984 . S
H451 N445 0.985 . S
H452 N449 0.984 . S
H453 N449 0.985 . S
H454 N448 0.984 . S
H455 N448 0.984 . S
H456 N444 0.984 . S
H457 N444 0.985 . S
C458 C459 1.363 . S
C458 C464 1.379 . S
C458 N466 1.356 . S
C459 C458 1.363 . S
C459 C465 1.363 . S
C460 C461 1.363 . S
C460 C465 1.379 . S
C460 N467 1.356 . S
C461 C460 1.363 . S
C461 C464 1.363 . S
N462 C464 1.356 . S
N462 H474 0.984 . S
N462 H475 0.985 . S
N463 C465 1.356 . S
N463 H468 0.984 . S
N463 H469 0.985 . S
C464 C458 1.379 . S
C464 C461 1.363 . S
C464 N462 1.356 . S
C465 C459 1.363 . S
C465 C460 1.379 . S
C465 N463 1.356 . S
N466 C458 1.356 . S
N466 H472 0.984 . S
N466 H473 0.984 . S
N467 C460 1.356 . S
N467 H470 0.984 . S
N467 H471 0.985 . S
H468 N463 0.984 . S
H469 N463 0.985 . S
H470 N467 0.984 . S
H471 N467 0.985 . S
H472 N466 0.984 . S
H473 N466 0.984 . S
H474 N462 0.984 . S
H475 N462 0.985 . S
C476 C477 1.363 . S
C476 C482 1.379 . S
C476 N484 1.356 . S
C477 C476 1.363 . S
C477 C483 1.363 . S
C478 C479 1.363 . S
C478 C483 1.379 . S
C478 N485 1.356 . S
C479 C478 1.363 . S
C479 C482 1.363 . S
N480 C482 1.356 . S
N480 H492 0.984 . S
N480 H493 0.985 . S
N481 C483 1.356 . S
N481 H486 0.984 . S
N481 H487 0.985 . S
C482 C476 1.379 . S
C482 C479 1.363 . S
C482 N480 1.356 . S
C483 C477 1.363 . S
C483 C478 1.379 . S
C483 N481 1.356 . S
N484 C476 1.356 . S
N484 H490 0.984 . S
N484 H491 0.984 . S
N485 C478 1.356 . S
N485 H488 0.984 . S
N485 H489 0.985 . S
H486 N481 0.984 . S
H487 N481 0.985 . S
H488 N485 0.984 . S
H489 N485 0.985 . S
H490 N484 0.984 . S
H491 N484 0.984 . S
H492 N480 0.984 . S
H493 N480 0.985 . S
C494 C495 1.363 . S
C494 C500 1.379 . S
C494 N502 1.356 . S
C495 C494 1.363 . S
C495 C501 1.363 . S
C496 C497 1.363 . S
C496 C501 1.379 . S
C496 N503 1.356 . S
C497 C496 1.363 . S
C497 C500 1.363 . S
N498 C500 1.356 . S
N498 H510 0.984 . S
N498 H511 0.985 . S
N499 C501 1.356 . S
N499 H504 0.984 . S
N499 H505 0.985 . S
C500 C494 1.379 . S
C500 C497 1.363 . S
C500 N498 1.356 . S
C501 C495 1.363 . S
C501 C496 1.379 . S
C501 N499 1.356 . S
N502 C494 1.356 . S
N502 H508 0.984 . S
N502 H509 0.984 . S
N503 C496 1.356 . S
N503 H506 0.984 . S
N503 H507 0.985 . S
H504 N499 0.984 . S
H505 N499 0.985 . S
H506 N503 0.984 . S
H507 N503 0.985 . S
H508 N502 0.984 . S
H509 N502 0.984 . S
H510 N498 0.984 . S
H511 N498 0.985 . S
C512 C513 1.363 . S
C512 C518 1.379 . S
C512 N520 1.356 . S
C513 C512 1.363 . S
C513 C519 1.363 . S
C514 C515 1.363 . S
C514 C519 1.379 . S
C514 N521 1.356 . S
C515 C514 1.363 . S
C515 C518 1.363 . S
N516 C518 1.356 . S
N516 H528 0.984 . S
N516 H529 0.985 . S
N517 C519 1.356 . S
N517 H522 0.984 . S
N517 H523 0.985 . S
C518 C512 1.379 . S
C518 C515 1.363 . S
C518 N516 1.356 . S
C519 C513 1.363 . S
C519 C514 1.379 . S
C519 N517 1.356 . S
N520 C512 1.356 . S
N520 H526 0.984 . S
N520 H527 0.984 . S
N521 C514 1.356 . S
N521 H524 0.984 . S
N521 H525 0.985 . S
H522 N517 0.984 . S
H523 N517 0.985 . S
H524 N521 0.984 . S
H525 N521 0.985 . S
H526 N520 0.984 . S
H527 N520 0.984 . S
H528 N516 0.984 . S
H529 N516 0.985 . S
C530 C531 1.363 . S
C530 C536 1.379 . S
C530 N538 1.356 . S
C531 C530 1.363 . S
C531 C537 1.363 . S
C532 C533 1.363 . S
C532 C537 1.379 . S
C532 N539 1.356 . S
C533 C532 1.363 . S
C533 C536 1.363 . S
N534 C536 1.356 . S
N534 H546 0.984 . S
N534 H547 0.985 . S
N535 C537 1.356 . S
N535 H540 0.984 . S
N535 H541 0.985 . S
C536 C530 1.379 . S
C536 C533 1.363 . S
C536 N534 1.356 . S
C537 C531 1.363 . S
C537 C532 1.379 . S
C537 N535 1.356 . S
N538 C530 1.356 . S
N538 H544 0.984 . S
N538 H545 0.984 . S
N539 C532 1.356 . S
N539 H542 0.984 . S
N539 H543 0.985 . S
H540 N535 0.984 . S
H541 N535 0.985 . S
H542 N539 0.984 . S
H543 N539 0.985 . S
H544 N538 0.984 . S
H545 N538 0.984 . S
H546 N534 0.984 . S
H547 N534 0.985 . S
C548 C549 1.363 . S
C548 C554 1.379 . S
C548 N556 1.356 . S
C549 C548 1.363 . S
C549 C555 1.363 . S
C550 C551 1.363 . S
C550 C555 1.379 . S
C550 N557 1.356 . S
C551 C550 1.363 . S
C551 C554 1.363 . S
N552 C554 1.356 . S
N552 H564 0.984 1_655 S
N552 H565 0.985 . S
N553 C555 1.356 . S
N553 H558 0.984 . S
N553 H559 0.985 . S
C554 C548 1.379 . S
C554 C551 1.363 . S
C554 N552 1.356 . S
C555 C549 1.363 . S
C555 C550 1.379 . S
C555 N553 1.356 . S
N556 C548 1.356 . S
N556 H562 0.984 . S
N556 H563 0.984 . S
N557 C550 1.356 . S
N557 H560 0.984 . S
N557 H561 0.985 . S
H558 N553 0.984 . S
H559 N553 0.985 . S
H560 N557 0.984 . S
H561 N557 0.985 . S
H562 N556 0.984 . S
H563 N556 0.984 . S
H564 N552 0.984 1_455 S
H565 N552 0.985 . S
C566 C567 1.363 . S
C566 C572 1.379 . S
C566 N574 1.356 . S
C567 C566 1.363 . S
C567 C573 1.363 . S
C568 C569 1.363 . S
C568 C573 1.379 . S
C568 N575 1.356 . S
C569 C568 1.363 . S
C569 C572 1.363 . S
N570 C572 1.356 . S
N570 H582 0.984 . S
N570 H583 0.985 . S
N571 C573 1.356 . S
N571 H576 0.984 . S
N571 H577 0.985 . S
C572 C566 1.379 . S
C572 C569 1.363 . S
C572 N570 1.356 . S
C573 C567 1.363 . S
C573 C568 1.379 . S
C573 N571 1.356 . S
N574 C566 1.356 . S
N574 H580 0.984 . S
N574 H581 0.984 . S
N575 C568 1.356 . S
N575 H578 0.984 . S
N575 H579 0.985 . S
H576 N571 0.984 . S
H577 N571 0.985 . S
H578 N575 0.984 . S
H579 N575 0.985 . S
H580 N574 0.984 . S
H581 N574 0.984 . S
H582 N570 0.984 . S
H583 N570 0.985 . S
C584 C585 1.363 . S
C584 C590 1.379 . S
C584 N592 1.356 . S
C585 C584 1.363 . S
C585 C591 1.363 . S
C586 C587 1.363 . S
C586 C591 1.379 . S
C586 N593 1.356 . S
C587 C586 1.363 . S
C587 C590 1.363 . S
N588 C590 1.356 1_545 S
N588 H600 0.984 . S
N588 H601 0.985 . S
N589 C591 1.356 . S
N589 H594 0.984 . S
N589 H595 0.985 . S
C590 C584 1.379 . S
C590 C587 1.363 . S
C590 N588 1.356 1_565 S
C591 C585 1.363 . S
C591 C586 1.379 . S
C591 N589 1.356 . S
N592 C584 1.356 . S
N592 H598 0.984 . S
N592 H599 0.984 . S
N593 C586 1.356 . S
N593 H596 0.984 1_655 S
N593 H597 0.985 . S
H594 N589 0.984 . S
H595 N589 0.985 . S
H596 N593 0.984 1_455 S
H597 N593 0.985 . S
H598 N592 0.984 . S
H599 N592 0.984 . S
H600 N588 0.984 . S
H601 N588 0.985 . S
C602 C603 1.363 . S
C602 C608 1.379 . S
C602 N610 1.356 . S
C603 C602 1.363 . S
C603 C609 1.363 . S
C604 C605 1.363 . S
C604 C609 1.379 . S
C604 N611 1.356 . S
C605 C604 1.363 . S
C605 C608 1.363 . S
N606 C608 1.356 . S
N606 H618 0.984 1_545 S
N606 H619 0.983 1_545 S
N607 C609 1.356 . S
N607 H612 0.984 . S
N607 H613 0.985 . S
C608 C602 1.379 . S
C608 C605 1.363 . S
C608 N606 1.356 . S
C609 C603 1.363 . S
C609 C604 1.379 . S
C609 N607 1.356 . S
N610 C602 1.356 . S
N610 H616 0.984 . S
N610 H617 0.984 . S
N611 C604 1.356 . S
N611 H614 0.984 . S
N611 H615 0.985 . S
H612 N607 0.984 . S
H613 N607 0.985 . S
H614 N611 0.984 . S
H615 N611 0.985 . S
H616 N610 0.984 . S
H617 N610 0.984 . S
H618 N606 0.984 1_565 S
H619 N606 0.983 1_565 S
C620 C621 1.363 . S
C620 C626 1.379 . S
C620 N628 1.356 . S
C621 C620 1.363 . S
C621 C627 1.363 . S
C622 C623 1.363 . S
C622 C627 1.379 . S
C622 N629 1.356 . S
C623 C622 1.363 . S
C623 C626 1.363 . S
N624 C626 1.356 . S
N624 H636 0.984 . S
N624 H637 0.985 . S
N625 C627 1.356 . S
N625 H630 0.984 . S
N625 H631 0.985 . S
C626 C620 1.379 . S
C626 C623 1.363 . S
C626 N624 1.356 . S
C627 C621 1.363 . S
C627 C622 1.379 . S
C627 N625 1.356 . S
N628 C620 1.356 . S
N628 H634 0.984 . S
N628 H635 0.984 . S
N629 C622 1.356 . S
N629 H632 0.984 . S
N629 H633 0.985 . S
H630 N625 0.984 . S
H631 N625 0.985 . S
H632 N629 0.984 . S
H633 N629 0.985 . S
H634 N628 0.984 . S
H635 N628 0.984 . S
H636 N624 0.984 . S
H637 N624 0.985 . S
C638 C639 1.363 . S
C638 C644 1.379 . S
C638 N646 1.356 . S
C639 C638 1.363 . S
C639 C645 1.363 . S
C640 C641 1.363 . S
C640 C645 1.379 . S
C640 N647 1.356 . S
C641 C640 1.363 . S
C641 C644 1.363 . S
N642 C644 1.356 . S
N642 H654 0.984 . S
N642 H655 0.985 . S
N643 C645 1.356 . S
N643 H648 0.984 . S
N643 H649 0.985 . S
C644 C638 1.379 . S
C644 C641 1.363 . S
C644 N642 1.356 . S
C645 C639 1.363 . S
C645 C640 1.379 . S
C645 N643 1.356 . S
N646 C638 1.356 . S
N646 H652 0.984 . S
N646 H653 0.984 . S
N647 C640 1.356 . S
N647 H650 0.984 . S
N647 H651 0.985 . S
H648 N643 0.984 . S
H649 N643 0.985 . S
H650 N647 0.984 . S
H651 N647 0.985 . S
H652 N646 0.984 . S
H653 N646 0.984 . S
H654 N642 0.984 . S
H655 N642 0.985 . S
C656 C657 1.363 . S
C656 C662 1.379 . S
C656 N664 1.356 . S
C657 C656 1.363 . S
C657 C663 1.363 . S
C658 C659 1.363 . S
C658 C663 1.379 . S
C658 N665 1.356 . S
C659 C658 1.363 . S
C659 C662 1.363 . S
N660 C662 1.356 . S
N660 H672 0.984 . S
N660 H673 0.985 . S
N661 C663 1.356 . S
N661 H666 0.984 . S
N661 H667 0.985 . S
C662 C656 1.379 . S
C662 C659 1.363 . S
C662 N660 1.356 . S
C663 C657 1.363 . S
C663 C658 1.379 . S
C663 N661 1.356 . S
N664 C656 1.356 . S
N664 H670 0.984 . S
N664 H671 0.984 . S
N665 C658 1.356 . S
N665 H668 0.984 . S
N665 H669 0.985 1_565 S
H666 N661 0.984 . S
H667 N661 0.985 . S
H668 N665 0.984 . S
H669 N665 0.985 1_545 S
H670 N664 0.984 . S
H671 N664 0.984 . S
H672 N660 0.984 . S
H673 N660 0.985 . S
C674 C675 1.363 . S
C674 C680 1.379 . S
C674 N682 1.356 . S
C675 C674 1.363 . S
C675 C681 1.363 . S
C676 C677 1.363 . S
C676 C681 1.379 . S
C676 N683 1.356 . S
C677 C676 1.363 . S
C677 C680 1.363 . S
N678 C680 1.356 . S
N678 H690 0.984 . S
N678 H691 0.985 . S
N679 C681 1.356 . S
N679 H684 0.984 . S
N679 H685 0.985 . S
C680 C674 1.379 . S
C680 C677 1.363 . S
C680 N678 1.356 . S
C681 C675 1.363 . S
C681 C676 1.379 . S
C681 N679 1.356 . S
N682 C674 1.356 . S
N682 H688 0.984 . S
N682 H689 0.984 . S
N683 C676 1.356 . S
N683 H686 0.984 . S
N683 H687 0.985 . S
H684 N679 0.984 . S
H685 N679 0.985 . S
H686 N683 0.984 . S
H687 N683 0.985 . S
H688 N682 0.984 . S
H689 N682 0.984 . S
H690 N678 0.984 . S
H691 N678 0.985 . S
C692 C693 1.363 . S
C692 C698 1.379 . S
C692 N700 1.356 . S
C693 C692 1.363 . S
C693 C699 1.363 . S
C694 C695 1.363 . S
C694 C699 1.379 . S
C694 N701 1.356 . S
C695 C694 1.363 . S
C695 C698 1.363 . S
N696 C698 1.356 . S
N696 H708 0.984 . S
N696 H709 0.985 . S
N697 C699 1.356 . S
N697 H702 0.984 . S
N697 H703 0.985 . S
C698 C692 1.379 . S
C698 C695 1.363 . S
C698 N696 1.356 . S
C699 C693 1.363 . S
C699 C694 1.379 . S
C699 N697 1.356 . S
N700 C692 1.356 . S
N700 H706 0.984 . S
N700 H707 0.984 . S
N701 C694 1.356 . S
N701 H704 0.984 . S
N701 H705 0.985 . S
H702 N697 0.984 . S
H703 N697 0.985 . S
H704 N701 0.984 . S
H705 N701 0.985 . S
H706 N700 0.984 . S
H707 N700 0.984 . S
H708 N696 0.984 . S
H709 N696 0.985 . S
C710 C711 1.363 . S
C710 C716 1.379 . S
C710 N718 1.356 . S
C711 C710 1.363 . S
C711 C717 1.363 . S
C712 C713 1.363 . S
C712 C717 1.379 . S
C712 N719 1.356 . S
C713 C712 1.363 . S
C713 C716 1.363 . S
N714 C716 1.356 . S
N714 H726 0.984 . S
N714 H727 0.985 . S
N715 C717 1.356 . S
N715 H720 0.984 . S
N715 H721 0.985 . S
C716 C710 1.379 . S
C716 C713 1.363 . S
C716 N714 1.356 . S
C717 C711 1.363 . S
C717 C712 1.379 . S
C717 N715 1.356 . S
N718 C710 1.356 . S
N718 H724 0.984 . S
N718 H725 0.984 . S
N719 C712 1.356 . S
N719 H722 0.984 . S
N719 H723 0.985 . S
H720 N715 0.984 . S
H721 N715 0.985 . S
H722 N719 0.984 . S
H723 N719 0.985 . S
H724 N718 0.984 . S
H725 N718 0.984 . S
H726 N714 0.984 . S
H727 N714 0.985 . S
C728 C729 1.363 . S
C728 C734 1.379 . S
C728 N736 1.356 . S
C729 C728 1.363 . S
C729 C735 1.363 . S
C730 C731 1.363 . S
C730 C735 1.379 . S
C730 N737 1.356 . S
C731 C730 1.363 . S
C731 C734 1.363 . S
N732 C734 1.356 . S
N732 H744 0.984 . S
N732 H745 0.985 . S
N733 C735 1.356 . S
N733 H738 0.984 . S
N733 H739 0.985 . S
C734 C728 1.379 . S
C734 C731 1.363 . S
C734 N732 1.356 . S
C735 C729 1.363 . S
C735 C730 1.379 . S
C735 N733 1.356 . S
N736 C728 1.356 . S
N736 H742 0.984 . S
N736 H743 0.984 . S
N737 C730 1.356 . S
N737 H740 0.984 . S
N737 H741 0.985 . S
H738 N733 0.984 . S
H739 N733 0.985 . S
H740 N737 0.984 . S
H741 N737 0.985 . S
H742 N736 0.984 . S
H743 N736 0.984 . S
H744 N732 0.984 . S
H745 N732 0.985 . S
C746 C747 1.363 . S
C746 C752 1.379 . S
C746 N754 1.356 . S
C747 C746 1.363 . S
C747 C753 1.363 . S
C748 C749 1.363 . S
C748 C753 1.379 . S
C748 N755 1.356 . S
C749 C748 1.363 . S
C749 C752 1.363 . S
N750 C752 1.356 . S
N750 H762 0.984 . S
N750 H763 0.985 . S
N751 C753 1.356 . S
N751 H756 0.984 . S
N751 H757 0.985 . S
C752 C746 1.379 . S
C752 C749 1.363 . S
C752 N750 1.356 . S
C753 C747 1.363 . S
C753 C748 1.379 . S
C753 N751 1.356 . S
N754 C746 1.356 . S
N754 H760 0.984 . S
N754 H761 0.984 . S
N755 C748 1.356 . S
N755 H758 0.984 . S
N755 H759 0.985 . S
H756 N751 0.984 . S
H757 N751 0.985 . S
H758 N755 0.984 . S
H759 N755 0.985 . S
H760 N754 0.984 . S
H761 N754 0.984 . S
H762 N750 0.984 . S
H763 N750 0.985 . S
C764 C765 1.363 . S
C764 C770 1.379 . S
C764 N772 1.356 . S
C765 C764 1.363 . S
C765 C771 1.363 . S
C766 C767 1.363 . S
C766 C771 1.379 . S
C766 N773 1.356 . S
C767 C766 1.363 . S
C767 C770 1.363 . S
N768 C770 1.356 . S
N768 H780 0.984 . S
N768 H781 0.985 . S
N769 C771 1.356 . S
N769 H774 0.984 . S
N769 H775 0.985 . S
C770 C764 1.379 . S
C770 C767 1.363 . S
C770 N768 1.356 . S
C771 C765 1.363 . S
C771 C766 1.379 . S
C771 N769 1.356 . S
N772 C764 1.356 . S
N772 H778 0.984 . S
N772 H779 0.984 . S
N773 C766 1.356 . S
N773 H776 0.984 . S
N773 H777 0.985 . S
H774 N769 0.984 . S
H775 N769 0.985 . S
H776 N773 0.984 . S
H777 N773 0.985 . S
H778 N772 0.984 . S
H779 N772 0.984 . S
H780 N768 0.984 . S
H781 N768 0.985 . S
C782 C783 1.363 . S
C782 C788 1.379 . S
C782 N790 1.356 . S
C783 C782 1.363 . S
C783 C789 1.363 . S
C784 C785 1.363 . S
C784 C789 1.379 . S
C784 N791 1.356 . S
C785 C784 1.363 . S
C785 C788 1.363 . S
N786 C788 1.356 . S
N786 H798 0.984 . S
N786 H799 0.985 . S
N787 C789 1.356 . S
N787 H792 0.984 . S
N787 H793 0.985 . S
C788 C782 1.379 . S
C788 C785 1.363 . S
C788 N786 1.356 . S
C789 C783 1.363 . S
C789 C784 1.379 . S
C789 N787 1.356 . S
N790 C782 1.356 . S
N790 H796 0.984 . S
N790 H797 0.984 . S
N791 C784 1.356 . S
N791 H794 0.984 . S
N791 H795 0.985 . S
H792 N787 0.984 . S
H793 N787 0.985 . S
H794 N791 0.984 . S
H795 N791 0.985 . S
H796 N790 0.984 . S
H797 N790 0.984 . S
H798 N786 0.984 . S
H799 N786 0.985 . S
C369 C1 1.555 . S
C371 C307 1.492 . S
C387 C67 1.304 . S
C389 C310 1.266 . S
C407 C346 1.781 . S
C405 C97 1.802 . S
C423 C133 1.691 . S
C425 C366 1.695 . S
C443 C320 1.641 . S
C441 C25 1.687 . S
C461 C297 1.473 . S
C459 C37 1.492 . S
C479 C350 1.569 . S
C477 C103 1.715 . S
C497 C330 1.416 . S
C495 C109 1.505 . S
C513 C31 1.414 . S
C515 C360 1.331 . S
C533 C326 1.644 . S
C531 C73 1.664 . S
C549 C139 1.655 . S
C551 C292 1.630 . S
C567 C61 1.329 . S
C569 C340 1.299 . S
C587 C306 1.500 . S
C585 C175 1.517 . S
C603 C181 1.284 . S
C605 C312 1.253 . S
C621 C247 1.806 . S
C623 C347 1.794 . S
C639 C277 1.682 . S
C641 C367 1.689 . S
C657 C145 1.660 . S
C659 C317 1.638 . S
C677 C300 1.479 . S
C675 C211 1.495 . S
C695 C352 1.562 . S
C693 C217 1.688 . S
C713 C332 1.431 . S
C711 C283 1.502 . S
C729 C169 1.371 . S
C731 C357 1.328 . S
C749 C327 1.655 . S
C747 C241 1.660 . S
C767 C290 1.611 . S
C765 C253 1.657 . S
C783 C205 1.334 . S
C785 C337 1.302 . S
