# Generated by pormake.
# Topology cml, (3,6)-cn, num edge types: 1
# Building blocks:
#     Node 0, Type 0, BuildingBlock: QEWDON_clean_linker_0, # of connection points: 3
#     Node 1, Type 0, BuildingBlock: QEWDON_clean_linker_0, # of connection points: 3
#     Node 2, Type 0, BuildingBlock: QEWDON_clean_linker_0, # of connection points: 3
#     Node 3, Type 0, BuildingBlock: QEWDON_clean_linker_0, # of connection points: 3
#     Node 4, Type 0, BuildingBlock: QEWDON_clean_linker_0, # of connection points: 3
#     Node 5, Type 0, BuildingBlock: QEWDON_clean_linker_0, # of connection points: 3
#     Node 6, Type 0, BuildingBlock: QEWDON_clean_linker_0, # of connection points: 3
#     Node 7, Type 0, BuildingBlock: QEWDON_clean_linker_0, # of connection points: 3
#     Node 8, Type 1, BuildingBlock: IZENUY_clean_sbu_0, # of connection points: 6
#     Node 9, Type 1, BuildingBlock: IZENUY_clean_sbu_0, # of connection points: 6
#     Node 10, Type 1, BuildingBlock: IZENUY_clean_sbu_0, # of connection points: 6
#     Node 11, Type 1, BuildingBlock: IZENUY_clean_sbu_0, # of connection points: 6
#     Edge 12, Type (0, 1), BuildingBlock: XIVTED_clean_linker_0, # of connection points: 2
#     Edge 13, Type (0, 1), BuildingBlock: XIVTED_clean_linker_0, # of connection points: 2
#     Edge 14, Type (0, 1), BuildingBlock: XIVTED_clean_linker_0, # of connection points: 2
#     Edge 15, Type (0, 1), BuildingBlock: XIVTED_clean_linker_0, # of connection points: 2
#     Edge 16, Type (0, 1), BuildingBlock: XIVTED_clean_linker_0, # of connection points: 2
#     Edge 17, Type (0, 1), BuildingBlock: XIVTED_clean_linker_0, # of connection points: 2
#     Edge 18, Type (0, 1), BuildingBlock: XIVTED_clean_linker_0, # of connection points: 2
#     Edge 19, Type (0, 1), BuildingBlock: XIVTED_clean_linker_0, # of connection points: 2
#     Edge 20, Type (0, 1), BuildingBlock: XIVTED_clean_linker_0, # of connection points: 2
#     Edge 21, Type (0, 1), BuildingBlock: XIVTED_clean_linker_0, # of connection points: 2
#     Edge 22, Type (0, 1), BuildingBlock: XIVTED_clean_linker_0, # of connection points: 2
#     Edge 23, Type (0, 1), BuildingBlock: XIVTED_clean_linker_0, # of connection points: 2
#     Edge 24, Type (0, 1), BuildingBlock: XIVTED_clean_linker_0, # of connection points: 2
#     Edge 25, Type (0, 1), BuildingBlock: XIVTED_clean_linker_0, # of connection points: 2
#     Edge 26, Type (0, 1), BuildingBlock: XIVTED_clean_linker_0, # of connection points: 2
#     Edge 27, Type (0, 1), BuildingBlock: XIVTED_clean_linker_0, # of connection points: 2
#     Edge 28, Type (0, 1), BuildingBlock: XIVTED_clean_linker_0, # of connection points: 2
#     Edge 29, Type (0, 1), BuildingBlock: XIVTED_clean_linker_0, # of connection points: 2
#     Edge 30, Type (0, 1), BuildingBlock: XIVTED_clean_linker_0, # of connection points: 2
#     Edge 31, Type (0, 1), BuildingBlock: XIVTED_clean_linker_0, # of connection points: 2
#     Edge 32, Type (0, 1), BuildingBlock: XIVTED_clean_linker_0, # of connection points: 2
#     Edge 33, Type (0, 1), BuildingBlock: XIVTED_clean_linker_0, # of connection points: 2
#     Edge 34, Type (0, 1), BuildingBlock: XIVTED_clean_linker_0, # of connection points: 2
#     Edge 35, Type (0, 1), BuildingBlock: XIVTED_clean_linker_0, # of connection points: 2
# Relax obj value: 0.010
# Max RMSD: 0.128
# Mean RMSD: 0.094
data_MOF--net-cml--node1-IZENUY_clean_sbu_0--node2-QEWDON_clean_linker_0--edge1-XIVTED_clean_linker_0
_symmetry_space_group_name_H-M    P1
_symmetry_Int_Tables_number       1
_symmetry_cell_setting            triclinic
loop_
_symmetry_equiv_pos_as_xyz
'x, y, z'
_cell_length_a     39.408325
_cell_length_b     42.257174
_cell_length_c     36.954134
_cell_angle_alpha  90.024829
_cell_angle_beta   89.924177
_cell_angle_gamma 89.608453
loop_
_atom_site_label
_atom_site_type_symbol
_atom_site_fract_x
_atom_site_fract_y
_atom_site_fract_z
_atom_type_partial_charge
H0 H 0.28048 0.41403 0.96694 0.0
C1 C 0.29375 0.40892 0.99196 0.0
C2 C 0.32788 0.41795 0.9961 0.0
C3 C 0.2763 0.3946 0.02086 0.0
H4 H 0.36993 0.4204 0.0335 0.0
C5 C 0.34412 0.41243 0.02938 0.0
C6 C 0.32706 0.39811 0.0582 0.0
C7 C 0.29334 0.3888 0.05365 0.0
C8 C 0.23927 0.38925 0.01907 0.0
H9 H 0.27978 0.37847 0.07626 0.0
C10 C 0.22481 0.3689 0.99318 0.0
C11 C 0.18961 0.3626 0.99387 0.0
C12 C 0.21833 0.40395 0.04492 0.0
H13 H 0.22893 0.41982 0.06492 0.0
C14 C 0.18364 0.39819 0.04548 0.0
H15 H 0.24101 0.35768 0.97317 0.0
C16 C 0.1694 0.37751 0.0205 0.0
H17 H 0.14255 0.37267 0.02278 0.0
H18 H 0.16777 0.4094 0.06577 0.0
H19 H 0.73654 0.59989 0.4765 0.0
C20 C 0.72521 0.60774 0.50172 0.0
C21 C 0.69114 0.60069 0.50957 0.0
C22 C 0.74533 0.62407 0.52681 0.0
H23 H 0.65153 0.60529 0.54989 0.0
C24 C 0.67732 0.61133 0.54257 0.0
C25 C 0.69709 0.62784 0.56774 0.0
C26 C 0.73131 0.63386 0.55995 0.0
C27 C 0.78197 0.62737 0.51988 0.0
H28 H 0.74705 0.64568 0.57975 0.0
C29 C 0.79486 0.65374 0.50127 0.0
C30 C 0.82961 0.65509 0.49242 0.0
C31 C 0.80396 0.60278 0.53023 0.0
H32 H 0.79433 0.58228 0.54443 0.0
C33 C 0.83842 0.60423 0.52181 0.0
H34 H 0.77785 0.67264 0.49296 0.0
C35 C 0.85118 0.63009 0.50283 0.0
H36 H 0.87803 0.6307 0.49651 0.0
H37 H 0.85525 0.58512 0.52978 0.0
H38 H 0.71066 0.38248 0.95709 0.0
C39 C 0.70481 0.38434 0.98568 0.0
C40 C 0.6927 0.41322 1.00007 0.0
C41 C 0.70715 0.35723 0.00767 0.0
H42 H 0.67478 0.43676 0.04816 0.0
C43 C 0.6843 0.41473 0.03705 0.0
C44 C 0.68534 0.38768 0.05918 0.0
C45 C 0.69741 0.35917 0.04427 0.0
C46 C 0.71426 0.32562 0.99171 0.0
H47 H 0.69744 0.33782 0.06049 0.0
C48 C 0.74504 0.31848 0.97371 0.0
C49 C 0.75156 0.28744 0.96082 0.0
C50 C 0.68982 0.30186 0.99582 0.0
H51 H 0.6659 0.30687 0.00923 0.0
C52 C 0.69596 0.27142 0.98304 0.0
H53 H 0.76382 0.33684 0.97032 0.0
C54 C 0.72657 0.26413 0.96607 0.0
H55 H 0.73082 0.23986 0.95778 0.0
H56 H 0.67707 0.25323 0.98677 0.0
H57 H 0.31414 0.64138 0.45932 0.0
C58 C 0.319 0.64073 0.48816 0.0
C59 C 0.33135 0.61278 0.50454 0.0
C60 C 0.31495 0.66853 0.50859 0.0
H61 H 0.3508 0.59253 0.55394 0.0
C62 C 0.33907 0.61317 0.54175 0.0
C63 C 0.33486 0.64078 0.56258 0.0
C64 C 0.32205 0.66812 0.54576 0.0
C65 C 0.30952 0.69949 0.4908 0.0
H66 H 0.31897 0.68978 0.56117 0.0
C67 C 0.27823 0.70806 0.47508 0.0
C68 C 0.27311 0.73903 0.46143 0.0
C69 C 0.33596 0.72153 0.49184 0.0
H70 H 0.3602 0.71533 0.50383 0.0
C71 C 0.33129 0.75186 0.47811 0.0
H72 H 0.25801 0.69085 0.47417 0.0
C73 C 0.30012 0.76071 0.46345 0.0
H74 H 0.29712 0.78496 0.45453 0.0
H75 H 0.35172 0.76882 0.47949 0.0
H76 H 0.78263 0.92971 0.968 0.0
C77 C 0.79526 0.91813 0.99049 0.0
C78 C 0.82929 0.92509 0.99817 0.0
C79 C 0.77677 0.89778 0.01312 0.0
H80 H 0.87098 0.91646 0.03468 0.0
C81 C 0.84488 0.9108 0.02822 0.0
C82 C 0.82657 0.89095 0.05143 0.0
C83 C 0.79247 0.88435 0.04364 0.0
C84 C 0.73992 0.89407 0.00764 0.0
H85 H 0.77784 0.8698 0.06202 0.0
C86 C 0.72604 0.86479 0.99748 0.0
C87 C 0.69068 0.86166 0.99329 0.0
C88 C 0.71838 0.92017 0.01337 0.0
H89 H 0.72868 0.94286 0.02123 0.0
C90 C 0.68337 0.91707 0.00954 0.0
H91 H 0.74264 0.84461 0.99293 0.0
C92 C 0.66954 0.88803 0.99968 0.0
H93 H 0.6423 0.8863 0.99639 0.0
H94 H 0.66689 0.93728 0.01416 0.0
H95 H 0.23336 0.09845 0.45706 0.0
C96 C 0.2226 0.10468 0.48314 0.0
C97 C 0.18956 0.09502 0.4922 0.0
C98 C 0.24249 0.12141 0.50816 0.0
H99 H 0.15207 0.0941 0.53496 0.0
C100 C 0.17687 0.10244 0.52679 0.0
C101 C 0.19636 0.11931 0.55187 0.0
C102 C 0.22911 0.1291 0.54233 0.0
C103 C 0.27895 0.12576 0.50086 0.0
H104 H 0.24483 0.14097 0.56212 0.0
C105 C 0.29141 0.15354 0.48474 0.0
C106 C 0.32616 0.15592 0.47609 0.0
C107 C 0.30137 0.10085 0.50901 0.0
H108 H 0.29211 0.07932 0.5214 0.0
C109 C 0.3358 0.10335 0.50092 0.0
H110 H 0.27412 0.17274 0.47814 0.0
C111 C 0.34813 0.13059 0.48436 0.0
H112 H 0.37495 0.13198 0.47811 0.0
H113 H 0.35294 0.084 0.50723 0.0
H114 H 0.19763 0.88739 0.94975 0.0
C115 C 0.19761 0.88818 0.97903 0.0
C116 C 0.18974 0.9166 0.99745 0.0
C117 C 0.20287 0.85987 0.99845 0.0
H118 H 0.18665 0.9381 0.05027 0.0
C119 C 0.18964 0.91613 0.03554 0.0
C120 C 0.18985 0.88752 0.05491 0.0
C121 C 0.19773 0.85951 0.03611 0.0
C122 C 0.20695 0.82932 0.97932 0.0
H123 H 0.19779 0.837 0.05011 0.0
C124 C 0.23918 0.8176 0.96905 0.0
C125 C 0.24276 0.78672 0.95442 0.0
C126 C 0.17822 0.81052 0.97429 0.0
H127 H 0.15334 0.81908 0.98232 0.0
C128 C 0.1814 0.78023 0.95986 0.0
H129 H 0.26117 0.83245 0.97285 0.0
C130 C 0.21326 0.76826 0.95044 0.0
H131 H 0.21459 0.74412 0.94078 0.0
H132 H 0.15911 0.76567 0.95662 0.0
H133 H 0.81116 0.12978 0.44852 0.0
C134 C 0.81675 0.13017 0.47722 0.0
C135 C 0.83141 0.10349 0.49401 0.0
C136 C 0.81085 0.15812 0.49684 0.0
H137 H 0.85306 0.0856 0.54346 0.0
C138 C 0.83971 0.10523 0.53098 0.0
C139 C 0.83395 0.13305 0.55112 0.0
C140 C 0.81899 0.1593 0.53376 0.0
C141 C 0.80311 0.1878 0.47736 0.0
H142 H 0.81512 0.18125 0.54842 0.0
C143 C 0.76988 0.20015 0.47499 0.0
C144 C 0.76399 0.2294 0.45755 0.0
C145 C 0.83013 0.20448 0.46186 0.0
H146 H 0.85582 0.19528 0.4635 0.0
C147 C 0.82434 0.23326 0.44449 0.0
H148 H 0.74896 0.18738 0.48704 0.0
C149 C 0.79157 0.24573 0.44244 0.0
H150 H 0.7877 0.26806 0.42859 0.0
H151 H 0.84535 0.24599 0.43264 0.0
Fe152 Fe 0.00948 0.84159 0.32194 0.0
Fe153 Fe 1.00282 0.88103 0.39172 0.0
O154 O 1.00468 0.87881 0.34387 0.0
Fe155 Fe 1.00208 0.91387 0.31792 0.0
O156 O 0.96425 0.90006 0.295 0.0
O157 O 0.98452 0.85283 0.2818 0.0
O158 O 0.97045 0.82706 0.34176 0.0
C159 C 0.96425 0.82629 0.37526 0.0
C160 C 0.05208 0.87778 0.28091 0.0
O161 O 0.98122 0.84288 0.39728 0.0
C162 C 0.0427 0.93424 0.3728 0.0
O163 O 0.03523 0.82359 0.35807 0.0
O164 O 0.04464 0.863 0.39555 0.0
O165 O 0.02976 0.89945 0.28161 0.0
O166 O 0.04905 0.85347 0.30045 0.0
C167 C 0.95475 0.92536 0.37477 0.0
O168 O 0.02385 0.91959 0.39484 0.0
O169 O 0.03984 0.93003 0.33916 0.0
C170 C 0.05305 0.83658 0.38229 0.0
O171 O 0.96106 0.89971 0.39106 0.0
O172 O 0.97393 0.93483 0.34953 0.0
C173 C 0.9628 0.8747 0.27701 0.0
Fe174 Fe 0.01495 0.1395 0.89128 0.0
Fe175 Fe 0.01633 0.10268 0.81986 0.0
O176 O 0.01533 0.13927 0.84335 0.0
Fe177 Fe 0.01451 0.17573 0.81939 0.0
O178 O 0.05344 0.18888 0.8409 0.0
O179 O 0.03705 0.17739 0.89598 0.0
O180 O 0.05597 0.11953 0.89337 0.0
C181 C 0.06211 0.09308 0.87853 0.0
C182 C 0.96727 0.18495 0.87642 0.0
O183 O 0.04301 0.08253 0.85372 0.0
C184 C 0.97112 0.14051 0.77779 0.0
O185 O 0.99261 0.10201 0.89615 0.0
O186 O 0.97719 0.08936 0.84115 0.0
O187 O 0.98729 0.1964 0.85294 0.0
O188 O 0.97379 0.15887 0.89162 0.0
C189 C 0.06012 0.13746 0.77819 0.0
O190 O 0.99017 0.11649 0.78182 0.0
O191 O 0.97579 0.16541 0.79588 0.0
C192 C 0.973 0.08755 0.87491 0.0
O193 O 0.05528 0.11294 0.79686 0.0
O194 O 0.04104 0.16154 0.78159 0.0
C195 C 0.05657 0.19194 0.87461 0.0
Fe196 Fe 0.50822 0.35314 0.32913 0.0
Fe197 Fe 0.50071 0.38928 0.40132 0.0
O198 O 0.50441 0.38926 0.35342 0.0
Fe199 Fe 0.5044 0.42568 0.32982 0.0
O200 O 0.46658 0.41505 0.30509 0.0
O201 O 0.48381 0.3672 0.2897 0.0
O202 O 0.46846 0.33881 0.34715 0.0
C203 C 0.46107 0.33637 0.3802 0.0
C204 C 0.55247 0.38929 0.29017 0.0
O205 O 0.47728 0.35177 0.40391 0.0
C206 C 0.54417 0.44121 0.38711 0.0
O207 O 0.53309 0.33279 0.36443 0.0
O208 O 0.5413 0.36921 0.40611 0.0
O209 O 0.53176 0.4121 0.29293 0.0
O210 O 0.54847 0.36456 0.30874 0.0
C211 C 0.45551 0.43636 0.38496 0.0
O212 O 0.52355 0.42675 0.40752 0.0
O213 O 0.54242 0.43851 0.35317 0.0
C214 C 0.54971 0.34347 0.3911 0.0
O215 O 0.45983 0.40974 0.3999 0.0
O216 O 0.4767 0.44637 0.36198 0.0
C217 C 0.46368 0.39054 0.28585 0.0
Fe218 Fe 0.51123 0.63112 0.90365 0.0
Fe219 Fe 0.51426 0.60116 0.82824 0.0
O220 O 0.5121 0.63522 0.85597 0.0
Fe221 Fe 0.5106 0.67345 0.83619 0.0
O222 O 0.54938 0.6849 0.85898 0.0
O223 O 0.53356 0.66845 0.91272 0.0
O224 O 0.55245 0.61125 0.904 0.0
C225 C 0.55895 0.58628 0.88632 0.0
C226 C 0.46347 0.67772 0.89378 0.0
O227 O 0.54026 0.57806 0.86007 0.0
C228 C 0.46812 0.64124 0.79095 0.0
O229 O 0.48897 0.59305 0.90354 0.0
O230 O 0.4749 0.5858 0.84673 0.0
O231 O 0.48372 0.69102 0.87196 0.0
O232 O 0.46978 0.65036 0.90591 0.0
C233 C 0.55741 0.64007 0.79147 0.0
O234 O 0.4887 0.6181 0.79155 0.0
O235 O 0.47181 0.66454 0.81192 0.0
C236 C 0.47046 0.58016 0.87985 0.0
O237 O 0.55366 0.61409 0.80772 0.0
O238 O 0.53693 0.66285 0.79679 0.0
C239 C 0.5531 0.68468 0.89286 0.0
H240 H 0.21641 0.30677 0.96635 0.0
H241 H 0.041 0.23228 0.92915 0.0
H242 H 0.12609 0.36529 0.96349 0.0
H243 H 0.12057 0.20962 0.85298 0.0
H244 H 0.07553 0.2755 0.95277 0.0
H245 H 0.18584 0.26582 0.93251 0.0
C246 C 0.19046 0.31135 0.9582 0.0
C247 C 0.17367 0.33943 0.96863 0.0
C248 C 0.0854 0.26103 0.93089 0.0
C249 C 0.1386 0.2923 0.93106 0.0
C250 C 0.0659 0.23629 0.91761 0.0
C251 C 0.07806 0.21742 0.88915 0.0
C252 C 0.11772 0.26643 0.91637 0.0
C253 C 0.11037 0.2238 0.8749 0.0
C254 C 0.17307 0.28787 0.93906 0.0
C255 C 0.13985 0.3437 0.95737 0.0
N256 N 0.12942 0.24763 0.88902 0.0
N257 N 0.12327 0.32016 0.93994 0.0
H258 H 0.82497 0.71818 0.50888 0.0
H259 H 0.93944 0.77342 0.34159 0.0
H260 H 0.86698 0.65338 0.43034 0.0
H261 H 0.93326 0.82593 0.44163 0.0
H262 H 0.90231 0.73316 0.36769 0.0
H263 H 0.85407 0.76196 0.47814 0.0
C264 C 0.83991 0.71331 0.48486 0.0
C265 C 0.84382 0.68222 0.47217 0.0
C266 C 0.90894 0.75362 0.3838 0.0
C267 C 0.87685 0.73188 0.43696 0.0
C268 C 0.93002 0.77667 0.3689 0.0
C269 C 0.93974 0.80296 0.38958 0.0
C270 C 0.89704 0.7571 0.41943 0.0
C271 C 0.92671 0.80587 0.42486 0.0
C272 C 0.85663 0.73818 0.46752 0.0
C273 C 0.86361 0.67704 0.4411 0.0
N274 N 0.90604 0.78322 0.43868 0.0
N275 N 0.87938 0.7016 0.42454 0.0
H276 H 0.81656 0.30857 0.97593 0.0
H277 H 0.90605 0.16021 0.89364 0.0
H278 H 0.7622 0.24495 0.90557 0.0
H279 H 0.95784 0.24935 0.88342 0.0
H280 H 0.85412 0.1888 0.91057 0.0
H281 H 0.87025 0.28655 0.9526 0.0
C282 C 0.81574 0.29041 0.9553 0.0
C283 C 0.78452 0.27819 0.94341 0.0
C284 C 0.87687 0.20207 0.9046 0.0
C285 C 0.8458 0.25241 0.91769 0.0
C286 C 0.9065 0.18582 0.89516 0.0
C287 C 0.93618 0.20248 0.88706 0.0
C288 C 0.87711 0.23519 0.90703 0.0
C289 C 0.93534 0.2357 0.88926 0.0
C290 C 0.84642 0.27778 0.9422 0.0
C291 C 0.78539 0.25442 0.9167 0.0
N292 N 0.9063 0.25105 0.89952 0.0
N293 N 0.81539 0.24192 0.90536 0.0
H294 H 0.26087 0.78198 0.40687 0.0
H295 H 0.06319 0.77302 0.39241 0.0
H296 H 0.20835 0.7207 0.48169 0.0
H297 H 0.11316 0.86318 0.40108 0.0
H298 H 0.11622 0.74658 0.41138 0.0
H299 H 0.20653 0.80503 0.38923 0.0
C300 C 0.23808 0.77329 0.41974 0.0
C301 C 0.23962 0.74978 0.44669 0.0
C302 C 0.11533 0.77213 0.40923 0.0
C303 C 0.17709 0.77536 0.42506 0.0
C304 C 0.08529 0.78718 0.39839 0.0
C305 C 0.08391 0.8203 0.3954 0.0
C306 C 0.1443 0.79032 0.41576 0.0
C307 C 0.11316 0.83763 0.40339 0.0
C308 C 0.20708 0.78641 0.40938 0.0
C309 C 0.2087 0.73866 0.46086 0.0
N310 N 0.14236 0.8224 0.41269 0.0
N311 N 0.17864 0.75155 0.44985 0.0
H312 H 0.70848 0.82503 0.93503 0.0
H313 H 0.5569 0.70228 0.9641 0.0
H314 H 0.63775 0.83008 0.02398 0.0
H315 H 0.60441 0.71798 0.86036 0.0
H316 H 0.59409 0.74202 0.99072 0.0
H317 H 0.67828 0.77856 0.91183 0.0
C318 C 0.68694 0.81601 0.94995 0.0
C319 C 0.67542 0.83144 0.98132 0.0
C320 C 0.59649 0.73662 0.96217 0.0
C321 C 0.64087 0.77856 0.95506 0.0
C322 C 0.57533 0.71386 0.94694 0.0
C323 C 0.57727 0.70697 0.90981 0.0
C324 C 0.62006 0.75243 0.94028 0.0
C325 C 0.60178 0.72276 0.88901 0.0
C326 C 0.6696 0.7897 0.9366 0.0
C327 C 0.64722 0.81901 0.99951 0.0
N328 N 0.62217 0.7448 0.90451 0.0
N329 N 0.63088 0.79335 0.9861 0.0
H330 H 0.36137 0.15769 0.41296 0.0
H331 H 0.42751 0.2938 0.33748 0.0
H332 H 0.32368 0.21783 0.49841 0.0
H333 H 0.43673 0.32413 0.44863 0.0
H334 H 0.38973 0.25163 0.35695 0.0
H335 H 0.39037 0.20298 0.38638 0.0
C336 C 0.35877 0.18067 0.42572 0.0
C337 C 0.34004 0.18417 0.45775 0.0
C338 C 0.40021 0.26735 0.37712 0.0
C339 C 0.37304 0.23626 0.42749 0.0
C340 C 0.42161 0.29166 0.36601 0.0
C341 C 0.43589 0.3123 0.39152 0.0
C342 C 0.39292 0.26353 0.41407 0.0
C343 C 0.42675 0.30852 0.42806 0.0
C344 C 0.3751 0.20659 0.41041 0.0
C345 C 0.33764 0.21434 0.47346 0.0
N346 N 0.40593 0.28453 0.43826 0.0
N347 N 0.35444 0.23921 0.45847 0.0
H348 H 0.25769 0.74282 0.90116 0.0
H349 H 0.45571 0.74113 0.90742 0.0
H350 H 0.3064 0.799 0.98377 0.0
H351 H 0.40059 0.65335 0.90598 0.0
H352 H 0.40275 0.7693 0.92333 0.0
H353 H 0.31159 0.71628 0.88947 0.0
C354 C 0.27944 0.7496 0.91715 0.0
C355 C 0.27675 0.77291 0.94433 0.0
C356 C 0.40247 0.74386 0.91973 0.0
C357 C 0.33931 0.74328 0.92933 0.0
C358 C 0.4325 0.72782 0.91059 0.0
C359 C 0.43246 0.69486 0.90557 0.0
C360 C 0.37208 0.72694 0.92252 0.0
C361 C 0.40174 0.67871 0.90994 0.0
C362 C 0.31031 0.73447 0.91011 0.0
C363 C 0.3068 0.78141 0.96251 0.0
N364 N 0.37266 0.69497 0.91758 0.0
N365 N 0.33685 0.7667 0.95458 0.0
H366 H 0.70595 0.20136 0.43242 0.0
H367 H 0.59678 0.36215 0.44118 0.0
H368 H 0.74379 0.28941 0.47466 0.0
H369 H 0.56954 0.28277 0.37387 0.0
H370 H 0.64644 0.33257 0.46222 0.0
H371 H 0.6513 0.22753 0.41979 0.0
C372 C 0.70252 0.22603 0.4396 0.0
C373 C 0.72942 0.24333 0.45438 0.0
C374 C 0.6295 0.32155 0.44298 0.0
C375 C 0.6673 0.27339 0.43993 0.0
C376 C 0.60106 0.33841 0.431 0.0
C377 C 0.57896 0.32505 0.40552 0.0
C378 C 0.63592 0.29094 0.42966 0.0
C379 C 0.58595 0.29414 0.39333 0.0
C380 C 0.67149 0.24101 0.43214 0.0
C381 C 0.72378 0.27532 0.46291 0.0
N382 N 0.61382 0.27817 0.40546 0.0
N383 N 0.69345 0.28931 0.45547 0.0
H384 H 0.39347 0.4098 0.97392 0.0
H385 H 0.40783 0.56474 0.85251 0.0
H386 H 0.30477 0.46776 0.95449 0.0
H387 H 0.48216 0.53639 0.9319 0.0
H388 H 0.37079 0.52137 0.87329 0.0
H389 H 0.42753 0.44741 0.93957 0.0
C390 C 0.38103 0.43014 0.96185 0.0
C391 C 0.34636 0.43603 0.96782 0.0
C392 C 0.39532 0.52471 0.88585 0.0
C393 C 0.38519 0.47888 0.92813 0.0
C394 C 0.41636 0.54928 0.87407 0.0
C395 C 0.44784 0.55421 0.89084 0.0
C396 C 0.40655 0.50453 0.9136 0.0
C397 C 0.45789 0.53362 0.91861 0.0
C398 C 0.40049 0.45156 0.94232 0.0
C399 C 0.33144 0.46238 0.95071 0.0
N400 N 0.43742 0.50957 0.92893 0.0
N401 N 0.35106 0.48316 0.93195 0.0
H402 H 0.71272 0.5503 0.46755 0.0
H403 H 0.53201 0.47706 0.44688 0.0
H404 H 0.62243 0.60343 0.49605 0.0
H405 H 0.60651 0.46091 0.36309 0.0
H406 H 0.56806 0.51834 0.47232 0.0
H407 H 0.67737 0.51311 0.43398 0.0
C408 C 0.68564 0.5546 0.46636 0.0
C409 C 0.67065 0.58005 0.48524 0.0
C410 C 0.57645 0.50579 0.44833 0.0
C411 C 0.63014 0.53674 0.4479 0.0
C412 C 0.55609 0.48208 0.43399 0.0
C413 C 0.56641 0.46553 0.40292 0.0
C414 C 0.60775 0.51249 0.43206 0.0
C415 C 0.59769 0.47322 0.38706 0.0
C416 C 0.66551 0.53315 0.44736 0.0
C417 C 0.63521 0.58377 0.48298 0.0
N418 N 0.61756 0.49597 0.40209 0.0
N419 N 0.61616 0.56207 0.46524 0.0
H420 H 0.66208 0.41169 0.93343 0.0
H421 H 0.60172 0.59169 0.94512 0.0
H422 H 0.70045 0.47706 0.01301 0.0
H423 H 0.577 0.5293 0.85657 0.0
H424 H 0.64149 0.5516 0.968 0.0
H425 H 0.63552 0.45589 0.90163 0.0
C426 C 0.66572 0.4354 0.94378 0.0
C427 C 0.68327 0.44047 0.9763 0.0
C428 C 0.6276 0.54686 0.94335 0.0
C429 C 0.6518 0.49134 0.94048 0.0
C430 C 0.60482 0.56975 0.9303 0.0
C431 C 0.58558 0.56381 0.89908 0.0
C432 C 0.63104 0.51773 0.9252 0.0
C433 C 0.59093 0.53492 0.88094 0.0
C434 C 0.65016 0.46069 0.92576 0.0
C435 C 0.68657 0.47186 0.98849 0.0
N436 N 0.61281 0.51294 0.89444 0.0
N437 N 0.67054 0.49599 0.97094 0.0
H438 H 0.32446 0.54983 0.52239 0.0
H439 H 0.43465 0.49118 0.35306 0.0
H440 H 0.36024 0.61066 0.43682 0.0
H441 H 0.41635 0.43304 0.44701 0.0
H442 H 0.3977 0.53192 0.37837 0.0
H443 H 0.34858 0.5042 0.49034 0.0
C444 C 0.33704 0.55361 0.4967 0.0
C445 C 0.3406 0.58434 0.48257 0.0
C446 C 0.40148 0.51018 0.39338 0.0
C447 C 0.368 0.53204 0.4456 0.0
C448 C 0.4226 0.48681 0.37893 0.0
C449 C 0.42911 0.45877 0.39819 0.0
C450 C 0.38665 0.5057 0.42751 0.0
C451 C 0.41227 0.45435 0.43132 0.0
C452 C 0.35074 0.5275 0.47841 0.0
C453 C 0.35657 0.58757 0.44878 0.0
N454 N 0.39211 0.47776 0.44515 0.0
N455 N 0.3699 0.56185 0.43169 0.0
H456 H 0.83417 0.9329 0.92416 0.0
H457 H 0.95174 0.08572 0.94472 0.0
H458 H 0.86552 0.97405 0.02549 0.0
H459 H 0.93647 0.03987 0.84164 0.0
H460 H 0.91427 0.04774 0.9729 0.0
H461 H 0.86609 0.97414 0.89182 0.0
C462 C 0.84767 0.95063 0.93954 0.0
C463 C 0.84763 0.94982 0.97754 0.0
C464 C 0.91895 0.04586 0.94409 0.0
C465 C 0.88374 0.99692 0.94097 0.0
C466 C 0.94042 0.06764 0.9279 0.0
C467 C 0.94769 0.06577 0.89078 0.0
C468 C 0.90446 0.02174 0.92322 0.0
C469 C 0.93172 0.04207 0.87039 0.0
C470 C 0.8659 0.97404 0.92112 0.0
C471 C 0.86543 0.97334 0.9962 0.0
N472 N 0.911 0.02075 0.88695 0.0
N473 N 0.88271 0.9958 0.97777 0.0
H474 H 0.21117 0.04726 0.44629 0.0
H475 H 0.03076 0.97162 0.43119 0.0
H476 H 0.12067 0.09679 0.48137 0.0
H477 H 0.10382 0.95514 0.34608 0.0
H478 H 0.06658 0.01364 0.45503 0.0
H479 H 0.17549 1.01029 0.41246 0.0
C480 C 0.18394 0.0508 0.44644 0.0
C481 C 0.16897 0.07503 0.46732 0.0
C482 C 0.07472 1.00095 0.43103 0.0
C483 C 0.12819 0.0322 0.42952 0.0
C484 C 0.05445 0.97682 0.41757 0.0
C485 C 0.06445 0.95985 0.38669 0.0
C486 C 0.10569 1.00776 0.41408 0.0
C487 C 0.09524 0.96778 0.36992 0.0
C488 C 0.16364 0.02954 0.42726 0.0
C489 C 0.13342 0.07801 0.46665 0.0
N490 N 0.11511 0.99096 0.38414 0.0
N491 N 0.11429 0.05657 0.44864 0.0
H492 H 0.20385 0.93823 0.92748 0.0
H493 H 0.08873 0.09365 0.94704 0.0
H494 H 0.14374 0.96105 0.0222 0.0
H495 H 0.09441 0.0431 0.84569 0.0
H496 H 0.12523 0.05317 0.97457 0.0
H497 H 0.17785 0.98388 0.89655 0.0
C498 C 0.18568 0.95273 0.94206 0.0
C499 C 0.17674 0.94555 0.97806 0.0
C500 C 0.11883 0.05124 0.94616 0.0
C501 C 0.14784 0.99836 0.94297 0.0
C502 C 0.09816 0.0744 0.93039 0.0
C503 C 0.08816 0.07156 0.89413 0.0
C504 C 0.13012 0.02534 0.92542 0.0
C505 C 0.10117 0.04597 0.87389 0.0
C506 C 0.17103 0.97888 0.92435 0.0
C507 C 0.15297 0.96575 0.9952 0.0
N508 N 0.12139 0.02374 0.88983 0.0
N509 N 0.13967 0.99111 0.97766 0.0
H510 H 0.85804 0.10166 0.42525 0.0
H511 H 0.91756 0.92134 0.438 0.0
H512 H 0.82971 0.04057 0.51377 0.0
H513 H 0.93289 0.98069 0.3444 0.0
H514 H 0.88134 0.96276 0.4644 0.0
H515 H 0.88124 0.05604 0.39334 0.0
C516 C 0.85604 0.0786 0.43777 0.0
C517 C 0.84194 0.07516 0.47247 0.0
C518 C 0.89232 0.96651 0.43789 0.0
C519 C 0.86955 0.02257 0.43621 0.0
C520 C 0.91294 0.94282 0.42275 0.0
C521 C 0.92872 0.94765 0.38911 0.0
C522 C 0.88755 0.99524 0.4193 0.0
C523 C 0.9217 0.976 0.3706 0.0
C524 C 0.86963 0.05248 0.41958 0.0
C525 C 0.84087 0.04454 0.48739 0.0
N526 N 0.902 0.99876 0.38608 0.0
N527 N 0.85481 0.01952 0.46938 0.0
H528 H 0.33582 0.34548 0.10078 0.0
H529 H 0.42816 0.44112 0.25886 0.0
H530 H 0.35595 0.44556 0.09663 0.0
H531 H 0.44391 0.34081 0.24301 0.0
H532 H 0.39179 0.4422 0.20552 0.0
H533 H 0.36621 0.34256 0.15894 0.0
C534 C 0.34646 0.3668 0.1123 0.0
C535 C 0.34376 0.39574 0.09394 0.0
C536 C 0.40309 0.41993 0.21382 0.0
C537 C 0.37789 0.39271 0.16008 0.0
C538 C 0.42377 0.41924 0.24437 0.0
C539 C 0.43943 0.39087 0.25527 0.0
C540 C 0.39763 0.39201 0.19415 0.0
C541 C 0.43264 0.36327 0.23538 0.0
C542 C 0.36383 0.36512 0.14526 0.0
C543 C 0.35789 0.42274 0.10982 0.0
N544 N 0.41226 0.36452 0.2057 0.0
N545 N 0.37428 0.42059 0.14199 0.0
H546 H 0.64163 0.665 0.57994 0.0
H547 H 0.61213 0.60112 0.77836 0.0
H548 H 0.71712 0.60888 0.63515 0.0
H549 H 0.56063 0.68411 0.73726 0.0
H550 H 0.65064 0.60278 0.7263 0.0
H551 H 0.61127 0.67212 0.63728 0.0
C552 C 0.65205 0.65467 0.60439 0.0
C553 C 0.68188 0.63646 0.60304 0.0
C554 C 0.63116 0.62082 0.72895 0.0
C555 C 0.64696 0.64371 0.66843 0.0
C556 C 0.60907 0.61983 0.75857 0.0
C557 C 0.58291 0.64236 0.76206 0.0
C558 C 0.62669 0.64418 0.70232 0.0
C559 C 0.58034 0.66619 0.73568 0.0
C560 C 0.63476 0.65868 0.63705 0.0
C561 C 0.69431 0.62331 0.63528 0.0
N562 N 0.60163 0.66621 0.70671 0.0
N563 N 0.6765 0.62678 0.66664 0.0
H564 H 0.70423 0.35417 0.12074 0.0
H565 H 0.5655 0.43858 0.245 0.0
H566 H 0.63013 0.42217 0.08236 0.0
H567 H 0.59754 0.3426 0.26743 0.0
H568 H 0.60146 0.43874 0.19162 0.0
H569 H 0.67572 0.3545 0.17998 0.0
C570 C 0.68222 0.36927 0.12461 0.0
C571 C 0.67 0.38848 0.09625 0.0
C572 C 0.6008 0.41769 0.20832 0.0
C573 C 0.638 0.3894 0.16417 0.0
C574 C 0.58032 0.41754 0.23896 0.0
C575 C 0.57795 0.3903 0.26056 0.0
C576 C 0.61948 0.39054 0.19906 0.0
C577 C 0.5983 0.364 0.25137 0.0
C578 C 0.66611 0.36946 0.15847 0.0
C579 C 0.64147 0.4077 0.1033 0.0
N580 N 0.61813 0.36467 0.22108 0.0
N581 N 0.62668 0.40775 0.13643 0.0
H582 H 0.33306 0.59417 0.6148 0.0
H583 H 0.43698 0.69346 0.7614 0.0
H584 H 0.36662 0.6901 0.59713 0.0
H585 H 0.44032 0.59151 0.75488 0.0
H586 H 0.39867 0.69443 0.70912 0.0
H587 H 0.36051 0.59492 0.67416 0.0
C588 C 0.34592 0.61546 0.62336 0.0
C589 C 0.34764 0.64201 0.60055 0.0
C590 C 0.40758 0.67187 0.71944 0.0
C591 C 0.37844 0.64315 0.66882 0.0
C592 C 0.42929 0.67129 0.74931 0.0
C593 C 0.44215 0.64237 0.76217 0.0
C594 C 0.3983 0.64333 0.70278 0.0
C595 C 0.43135 0.61434 0.74548 0.0
C596 C 0.36143 0.61587 0.65732 0.0
C597 C 0.36408 0.66916 0.6137 0.0
N598 N 0.41012 0.61551 0.71658 0.0
N599 N 0.37893 0.66896 0.64685 0.0
H600 H 0.88633 0.85889 0.06078 0.0
H601 H 0.9049 0.90963 0.26545 0.0
H602 H 0.80347 0.90133 0.12005 0.0
H603 H 0.96585 0.83483 0.21865 0.0
H604 H 0.86802 0.90824 0.21215 0.0
H605 H 0.91663 0.85041 0.11792 0.0
C606 C 0.87432 0.86586 0.08597 0.0
C607 C 0.84238 0.88069 0.08586 0.0
C608 C 0.88925 0.8919 0.21378 0.0
C609 C 0.87712 0.87191 0.15105 0.0
C610 C 0.91039 0.89278 0.2441 0.0
C611 C 0.93863 0.87245 0.24644 0.0
C612 C 0.89676 0.87097 0.18528 0.0
C613 C 0.94439 0.85095 0.21803 0.0
C614 C 0.89157 0.86107 0.11851 0.0
C615 C 0.82794 0.88953 0.11911 0.0
N616 N 0.92393 0.85108 0.18843 0.0
N617 N 0.84565 0.88547 0.15037 0.0
H618 H 0.18436 0.17506 0.58798 0.0
H619 H 0.10023 0.08737 0.75778 0.0
H620 H 0.17745 0.07383 0.59933 0.0
H621 H 0.07901 0.18514 0.73169 0.0
H622 H 0.1386 0.0844 0.70611 0.0
H623 H 0.1555 0.18131 0.64682 0.0
C624 C 0.17723 0.15423 0.60319 0.0
C625 C 0.18299 0.12391 0.58894 0.0
C626 C 0.12571 0.10657 0.71181 0.0
C627 C 0.15031 0.13074 0.65572 0.0
C628 C 0.1038 0.10834 0.7414 0.0
C629 C 0.08593 0.13645 0.74892 0.0
C630 C 0.13006 0.13313 0.68951 0.0
C631 C 0.09195 0.16287 0.72674 0.0
C632 C 0.16065 0.15776 0.63653 0.0
C633 C 0.17319 0.09759 0.60941 0.0
N634 N 0.11336 0.16052 0.6979 0.0
N635 N 0.15728 0.10161 0.64169 0.0
H636 H 0.20475 0.8459 0.11164 0.0
H637 H 0.07129 0.93002 0.24374 0.0
H638 H 0.14151 0.92659 0.08468 0.0
H639 H 0.09516 0.83065 0.25519 0.0
H640 H 0.11046 0.93304 0.19315 0.0
H641 H 0.17614 0.84327 0.17081 0.0
C642 C 0.18532 0.86324 0.11802 0.0
C643 C 0.17611 0.88678 0.09276 0.0
C644 C 0.10734 0.91056 0.20679 0.0
C645 C 0.14398 0.88414 0.16066 0.0
C646 C 0.08492 0.90879 0.23575 0.0
C647 C 0.07931 0.87986 0.2533 0.0
C648 C 0.12444 0.88324 0.19495 0.0
C649 C 0.09843 0.85335 0.24213 0.0
C650 C 0.16912 0.86172 0.15186 0.0
C651 C 0.15076 0.90863 0.10309 0.0
N652 N 0.11994 0.85555 0.21327 0.0
N653 N 0.13583 0.90676 0.136 0.0
H654 H 0.83513 0.08738 0.60432 0.0
H655 H 0.93991 0.19152 0.74572 0.0
H656 H 0.86399 0.18422 0.58407 0.0
H657 H 0.94392 0.08944 0.74295 0.0
H658 H 0.90134 0.19085 0.6938 0.0
H659 H 0.86439 0.08971 0.66256 0.0
C660 C 0.84737 0.10921 0.61212 0.0
C661 C 0.84731 0.13552 0.58882 0.0
C662 C 0.9105 0.16862 0.70478 0.0
C663 C 0.88037 0.13842 0.6559 0.0
C664 C 0.93241 0.16895 0.73448 0.0
C665 C 0.94545 0.14048 0.7485 0.0
C666 C 0.90116 0.13961 0.6893 0.0
C667 C 0.9348 0.11196 0.73278 0.0
C668 C 0.86397 0.1105 0.64544 0.0
C669 C 0.86295 0.16339 0.60103 0.0
N670 N 0.91333 0.11225 0.70401 0.0
N671 N 0.87897 0.16403 0.63359 0.0
loop_
_geom_bond_atom_site_label_1
_geom_bond_atom_site_label_2
_geom_bond_distance
_geom_bond_site_symmetry_2
_ccdc_geom_bond_type
H0 C1 0.949 . S
C1 H0 0.949 . S
C1 C2 1.398 . S
C1 C3 1.391 1_556 S
C2 C1 1.398 . S
C2 C5 1.366 1_556 S
C3 C1 1.391 1_554 S
C3 C7 1.387 . S
C3 C8 1.491 . S
H4 C5 0.950 . S
C5 C2 1.366 1_554 S
C5 H4 0.950 . S
C5 C6 1.378 . S
C6 C5 1.378 . S
C6 C7 1.409 . S
C7 C3 1.387 . S
C7 C6 1.409 . S
C7 H9 0.951 . S
C8 C3 1.491 . S
C8 C10 1.382 1_554 S
C8 C12 1.404 . S
H9 C7 0.951 . S
C10 C8 1.382 1_556 S
C10 C11 1.390 . S
C10 H15 0.949 . S
C11 C10 1.390 . S
C11 C16 1.399 1_556 S
C12 C8 1.404 . S
C12 H13 0.950 . S
C12 C14 1.375 . S
H13 C12 0.950 . S
C14 C12 1.375 . S
C14 C16 1.382 . S
C14 H18 0.950 . S
H15 C10 0.949 . S
C16 C11 1.399 1_554 S
C16 C14 1.382 . S
C16 H17 0.952 . S
H17 C16 0.952 . S
H18 C14 0.950 . S
H19 C20 0.949 . S
C20 H19 0.949 . S
C20 C21 1.395 . S
C20 C22 1.391 . S
C21 C20 1.395 . S
C21 C24 1.390 . S
C22 C20 1.391 . S
C22 C26 1.387 . S
C22 C27 1.491 . S
H23 C24 0.950 . S
C24 C21 1.390 . S
C24 H23 0.950 . S
C24 C25 1.378 . S
C25 C24 1.378 . S
C25 C26 1.409 . S
C26 C22 1.387 . S
C26 C25 1.409 . S
C26 H28 0.951 . S
C27 C22 1.491 . S
C27 C29 1.382 . S
C27 C31 1.404 . S
H28 C26 0.951 . S
C29 C27 1.382 . S
C29 C30 1.390 . S
C29 H34 0.949 . S
C30 C29 1.390 . S
C30 C35 1.399 . S
C31 C27 1.404 . S
C31 H32 0.950 . S
C31 C33 1.375 . S
H32 C31 0.950 . S
C33 C31 1.375 . S
C33 C35 1.382 . S
C33 H37 0.950 . S
H34 C29 0.949 . S
C35 C30 1.399 . S
C35 C33 1.382 . S
C35 H36 0.952 . S
H36 C35 0.952 . S
H37 C33 0.950 . S
H38 C39 0.949 . S
C39 H38 0.949 . S
C39 C40 1.395 . S
C39 C41 1.391 1_556 S
C40 C39 1.395 . S
C40 C43 1.390 1_556 S
C41 C39 1.391 1_554 S
C41 C45 1.387 . S
C41 C46 1.491 . S
H42 C43 0.950 . S
C43 C40 1.390 1_554 S
C43 H42 0.950 . S
C43 C44 1.378 . S
C44 C43 1.378 . S
C44 C45 1.409 . S
C45 C41 1.387 . S
C45 C44 1.409 . S
C45 H47 0.951 . S
C46 C41 1.491 . S
C46 C48 1.382 1_554 S
C46 C50 1.404 . S
H47 C45 0.951 . S
C48 C46 1.382 1_556 S
C48 C49 1.390 . S
C48 H53 0.949 . S
C49 C48 1.390 . S
C49 C54 1.399 . S
C50 C46 1.404 . S
C50 H51 0.950 . S
C50 C52 1.375 . S
H51 C50 0.950 . S
C52 C50 1.375 . S
C52 C54 1.382 1_554 S
C52 H56 0.950 . S
H53 C48 0.949 . S
C54 C49 1.399 . S
C54 C52 1.382 1_556 S
C54 H55 0.952 . S
H55 C54 0.952 . S
H56 C52 0.950 . S
H57 C58 0.949 . S
C58 H57 0.949 . S
C58 C59 1.395 . S
C58 C60 1.391 . S
C59 C58 1.395 . S
C59 C62 1.390 . S
C60 C58 1.391 . S
C60 C64 1.387 . S
C60 C65 1.491 . S
H61 C62 0.950 . S
C62 C59 1.390 . S
C62 H61 0.950 . S
C62 C63 1.378 . S
C63 C62 1.378 . S
C63 C64 1.409 . S
C64 C60 1.387 . S
C64 C63 1.409 . S
C64 H66 0.951 . S
C65 C60 1.491 . S
C65 C67 1.382 . S
C65 C69 1.404 . S
H66 C64 0.951 . S
C67 C65 1.382 . S
C67 C68 1.390 . S
C67 H72 0.949 . S
C68 C67 1.390 . S
C68 C73 1.399 . S
C69 C65 1.404 . S
C69 H70 0.950 . S
C69 C71 1.375 . S
H70 C69 0.950 . S
C71 C69 1.375 . S
C71 C73 1.382 . S
C71 H75 0.950 . S
H72 C67 0.949 . S
C73 C68 1.399 . S
C73 C71 1.382 . S
C73 H74 0.952 . S
H74 C73 0.952 . S
H75 C71 0.950 . S
H76 C77 0.949 . S
C77 H76 0.949 . S
C77 C78 1.398 . S
C77 C79 1.391 1_556 S
C78 C77 1.398 . S
C78 C81 1.366 1_556 S
C79 C77 1.391 1_554 S
C79 C83 1.387 . S
C79 C84 1.491 . S
H80 C81 0.950 . S
C81 C78 1.366 1_554 S
C81 H80 0.950 . S
C81 C82 1.378 . S
C82 C81 1.378 . S
C82 C83 1.409 . S
C83 C79 1.387 . S
C83 C82 1.409 . S
C83 H85 0.951 . S
C84 C79 1.491 . S
C84 C86 1.382 1_554 S
C84 C88 1.404 . S
H85 C83 0.951 . S
C86 C84 1.382 1_556 S
C86 C87 1.390 . S
C86 H91 0.949 . S
C87 C86 1.390 . S
C87 C92 1.399 1_556 S
C88 C84 1.404 . S
C88 H89 0.950 . S
C88 C90 1.375 . S
H89 C88 0.950 . S
C90 C88 1.375 . S
C90 C92 1.382 . S
C90 H94 0.950 . S
H91 C86 0.949 . S
C92 C87 1.399 1_554 S
C92 C90 1.382 . S
C92 H93 0.952 . S
H93 C92 0.952 . S
H94 C90 0.950 . S
H95 C96 0.949 . S
C96 H95 0.949 . S
C96 C97 1.395 . S
C96 C98 1.391 . S
C97 C96 1.395 . S
C97 C100 1.390 . S
C98 C96 1.391 . S
C98 C102 1.387 . S
C98 C103 1.491 . S
H99 C100 0.950 . S
C100 C97 1.390 . S
C100 H99 0.950 . S
C100 C101 1.378 . S
C101 C100 1.378 . S
C101 C102 1.409 . S
C102 C98 1.387 . S
C102 C101 1.409 . S
C102 H104 0.951 . S
C103 C98 1.491 . S
C103 C105 1.382 . S
C103 C107 1.404 . S
H104 C102 0.951 . S
C105 C103 1.382 . S
C105 C106 1.390 . S
C105 H110 0.949 . S
C106 C105 1.390 . S
C106 C111 1.399 . S
C107 C103 1.404 . S
C107 H108 0.950 . S
C107 C109 1.375 . S
H108 C107 0.950 . S
C109 C107 1.375 . S
C109 C111 1.382 . S
C109 H113 0.950 . S
H110 C105 0.949 . S
C111 C106 1.399 . S
C111 C109 1.382 . S
C111 H112 0.952 . S
H112 C111 0.952 . S
H113 C109 0.950 . S
H114 C115 0.949 . S
C115 H114 0.949 . S
C115 C116 1.395 . S
C115 C117 1.391 1_556 S
C116 C115 1.395 . S
C116 C119 1.390 1_556 S
C117 C115 1.391 1_554 S
C117 C121 1.387 . S
C117 C122 1.491 . S
H118 C119 0.950 . S
C119 C116 1.390 1_554 S
C119 H118 0.950 . S
C119 C120 1.378 . S
C120 C119 1.378 . S
C120 C121 1.409 . S
C121 C117 1.387 . S
C121 C120 1.409 . S
C121 H123 0.951 . S
C122 C117 1.491 . S
C122 C124 1.382 1_554 S
C122 C126 1.404 . S
H123 C121 0.951 . S
C124 C122 1.382 1_556 S
C124 C125 1.390 . S
C124 H129 0.949 . S
C125 C124 1.390 . S
C125 C130 1.399 . S
C126 C122 1.404 . S
C126 H127 0.950 . S
C126 C128 1.375 . S
H127 C126 0.950 . S
C128 C126 1.375 . S
C128 C130 1.382 1_554 S
C128 H132 0.950 . S
H129 C124 0.949 . S
C130 C125 1.399 . S
C130 C128 1.382 1_556 S
C130 H131 0.952 . S
H131 C130 0.952 . S
H132 C128 0.950 . S
H133 C134 0.949 . S
C134 H133 0.949 . S
C134 C135 1.395 . S
C134 C136 1.391 . S
C135 C134 1.395 . S
C135 C138 1.390 . S
C136 C134 1.391 . S
C136 C140 1.387 . S
C136 C141 1.491 . S
H137 C138 0.950 . S
C138 C135 1.390 . S
C138 H137 0.950 . S
C138 C139 1.378 . S
C139 C138 1.378 . S
C139 C140 1.409 . S
C140 C136 1.387 . S
C140 C139 1.409 . S
C140 H142 0.951 . S
C141 C136 1.491 . S
C141 C143 1.382 . S
C141 C145 1.404 . S
H142 C140 0.951 . S
C143 C141 1.382 . S
C143 C144 1.390 . S
C143 H148 0.949 . S
C144 C143 1.390 . S
C144 C149 1.399 . S
C145 C141 1.404 . S
C145 H146 0.950 . S
C145 C147 1.375 . S
H146 C145 0.950 . S
C147 C145 1.375 . S
C147 C149 1.382 . S
C147 H151 0.950 . S
H148 C143 0.949 . S
C149 C144 1.399 . S
C149 C147 1.382 . S
C149 H150 0.952 . S
H150 C149 0.952 . S
H151 C147 0.950 . S
Fe152 O154 1.918 . S
Fe152 O157 1.997 1_455 S
Fe152 O158 2.002 1_455 S
Fe152 O163 1.976 . S
Fe152 O166 1.996 . S
Fe153 O154 1.918 . S
Fe153 O161 1.997 1_455 S
Fe153 O164 1.996 . S
Fe153 O168 1.976 . S
Fe153 O171 2.002 1_455 S
O154 Fe152 1.918 . S
O154 Fe153 1.918 . S
O154 Fe155 1.918 . S
Fe155 O154 1.918 . S
Fe155 O156 2.002 1_455 S
Fe155 O165 1.976 . S
Fe155 O169 1.996 . S
Fe155 O172 1.997 1_455 S
O156 Fe155 2.002 1_655 S
O156 C173 1.295 . S
O157 Fe152 1.997 1_655 S
O157 C173 1.235 . S
O158 Fe152 2.002 1_655 S
O158 C159 1.295 . S
C159 O158 1.295 . S
C159 O161 1.235 . S
C160 O165 1.287 . S
C160 O166 1.255 . S
O161 Fe153 1.997 1_655 S
O161 C159 1.235 . S
C162 O168 1.287 . S
C162 O169 1.255 . S
O163 Fe152 1.976 . S
O163 C170 1.287 . S
O164 Fe153 1.996 . S
O164 C170 1.255 . S
O165 Fe155 1.976 . S
O165 C160 1.287 . S
O166 Fe152 1.996 . S
O166 C160 1.255 . S
C167 O171 1.295 . S
C167 O172 1.235 . S
O168 Fe153 1.976 . S
O168 C162 1.287 . S
O169 Fe155 1.996 . S
O169 C162 1.255 . S
C170 O163 1.287 . S
C170 O164 1.255 . S
O171 Fe153 2.002 1_655 S
O171 C167 1.295 . S
O172 Fe155 1.997 1_655 S
O172 C167 1.235 . S
C173 O156 1.295 . S
C173 O157 1.235 . S
Fe174 O176 1.918 . S
Fe174 O179 1.997 1_655 S
Fe174 O180 2.002 1_655 S
Fe174 O185 1.976 . S
Fe174 O188 1.996 . S
Fe175 O176 1.918 . S
Fe175 O183 1.997 1_655 S
Fe175 O186 1.996 . S
Fe175 O190 1.976 . S
Fe175 O193 2.002 1_655 S
O176 Fe174 1.918 . S
O176 Fe175 1.918 . S
O176 Fe177 1.918 . S
Fe177 O176 1.918 . S
Fe177 O178 2.002 1_655 S
Fe177 O187 1.976 . S
Fe177 O191 1.996 . S
Fe177 O194 1.997 1_655 S
O178 Fe177 2.002 1_455 S
O178 C195 1.295 . S
O179 Fe174 1.997 1_455 S
O179 C195 1.235 . S
O180 Fe174 2.002 1_455 S
O180 C181 1.295 . S
C181 O180 1.295 . S
C181 O183 1.235 . S
C182 O187 1.287 . S
C182 O188 1.255 . S
O183 Fe175 1.997 1_455 S
O183 C181 1.235 . S
C184 O190 1.287 . S
C184 O191 1.255 . S
O185 Fe174 1.976 . S
O185 C192 1.287 . S
O186 Fe175 1.996 . S
O186 C192 1.255 . S
O187 Fe177 1.976 . S
O187 C182 1.287 . S
O188 Fe174 1.996 . S
O188 C182 1.255 . S
C189 O193 1.295 . S
C189 O194 1.235 . S
O190 Fe175 1.976 . S
O190 C184 1.287 . S
O191 Fe177 1.996 . S
O191 C184 1.255 . S
C192 O185 1.287 . S
C192 O186 1.255 . S
O193 Fe175 2.002 1_455 S
O193 C189 1.295 . S
O194 Fe177 1.997 1_455 S
O194 C189 1.235 . S
C195 O178 1.295 . S
C195 O179 1.235 . S
Fe196 O198 1.918 . S
Fe196 O201 1.997 . S
Fe196 O202 2.002 . S
Fe196 O207 1.976 . S
Fe196 O210 1.996 . S
Fe197 O198 1.918 . S
Fe197 O205 1.997 . S
Fe197 O208 1.996 . S
Fe197 O212 1.976 . S
Fe197 O215 2.002 . S
O198 Fe196 1.918 . S
O198 Fe197 1.918 . S
O198 Fe199 1.918 . S
Fe199 O198 1.918 . S
Fe199 O200 2.002 . S
Fe199 O209 1.976 . S
Fe199 O213 1.996 . S
Fe199 O216 1.997 . S
O200 Fe199 2.002 . S
O200 C217 1.295 . S
O201 Fe196 1.997 . S
O201 C217 1.235 . S
O202 Fe196 2.002 . S
O202 C203 1.295 . S
C203 O202 1.295 . S
C203 O205 1.235 . S
C204 O209 1.287 . S
C204 O210 1.255 . S
O205 Fe197 1.997 . S
O205 C203 1.235 . S
C206 O212 1.287 . S
C206 O213 1.255 . S
O207 Fe196 1.976 . S
O207 C214 1.287 . S
O208 Fe197 1.996 . S
O208 C214 1.255 . S
O209 Fe199 1.976 . S
O209 C204 1.287 . S
O210 Fe196 1.996 . S
O210 C204 1.255 . S
C211 O215 1.295 . S
C211 O216 1.235 . S
O212 Fe197 1.976 . S
O212 C206 1.287 . S
O213 Fe199 1.996 . S
O213 C206 1.255 . S
C214 O207 1.287 . S
C214 O208 1.255 . S
O215 Fe197 2.002 . S
O215 C211 1.295 . S
O216 Fe199 1.997 . S
O216 C211 1.235 . S
C217 O200 1.295 . S
C217 O201 1.235 . S
Fe218 O220 1.918 . S
Fe218 O223 1.997 . S
Fe218 O224 2.002 . S
Fe218 O229 1.976 . S
Fe218 O232 1.996 . S
Fe219 O220 1.918 . S
Fe219 O227 1.997 . S
Fe219 O230 1.996 . S
Fe219 O234 1.976 . S
Fe219 O237 2.002 . S
O220 Fe218 1.918 . S
O220 Fe219 1.918 . S
O220 Fe221 1.918 . S
Fe221 O220 1.918 . S
Fe221 O222 2.002 . S
Fe221 O231 1.976 . S
Fe221 O235 1.996 . S
Fe221 O238 1.997 . S
O222 Fe221 2.002 . S
O222 C239 1.295 . S
O223 Fe218 1.997 . S
O223 C239 1.235 . S
O224 Fe218 2.002 . S
O224 C225 1.295 . S
C225 O224 1.295 . S
C225 O227 1.235 . S
C226 O231 1.287 . S
C226 O232 1.255 . S
O227 Fe219 1.997 . S
O227 C225 1.235 . S
C228 O234 1.287 . S
C228 O235 1.255 . S
O229 Fe218 1.976 . S
O229 C236 1.287 . S
O230 Fe219 1.996 . S
O230 C236 1.255 . S
O231 Fe221 1.976 . S
O231 C226 1.287 . S
O232 Fe218 1.996 . S
O232 C226 1.255 . S
C233 O237 1.295 . S
C233 O238 1.235 . S
O234 Fe219 1.976 . S
O234 C228 1.287 . S
O235 Fe221 1.996 . S
O235 C228 1.255 . S
C236 O229 1.287 . S
C236 O230 1.255 . S
O237 Fe219 2.002 . S
O237 C233 1.295 . S
O238 Fe221 1.997 . S
O238 C233 1.235 . S
C239 O222 1.295 . S
C239 O223 1.235 . S
H240 C246 0.930 . S
H241 C250 0.930 . S
H242 C255 0.929 . S
H243 C253 0.929 . S
H244 C248 0.929 . S
H245 C254 0.929 . S
C246 H240 0.930 . S
C246 C247 1.367 . S
C246 C254 1.378 . S
C247 C246 1.367 . S
C247 C255 1.433 . S
C248 H244 0.929 . S
C248 C250 1.378 . S
C248 C252 1.350 . S
C249 C252 1.463 . S
C249 C254 1.350 . S
C249 N257 1.427 . S
C250 H241 0.930 . S
C250 C248 1.378 . S
C250 C251 1.367 . S
C251 C250 1.367 . S
C251 C253 1.433 . S
C252 C248 1.350 . S
C252 C249 1.463 . S
C252 N256 1.427 . S
C253 H243 0.929 . S
C253 C251 1.433 . S
C253 N256 1.384 . S
C254 H245 0.929 . S
C254 C246 1.378 . S
C254 C249 1.350 . S
C255 H242 0.929 . S
C255 C247 1.433 . S
C255 N257 1.384 . S
N256 C252 1.427 . S
N256 C253 1.384 . S
N257 C249 1.427 . S
N257 C255 1.384 . S
H258 C264 0.930 . S
H259 C268 0.930 . S
H260 C273 0.929 . S
H261 C271 0.929 . S
H262 C266 0.929 . S
H263 C272 0.929 . S
C264 H258 0.930 . S
C264 C265 1.367 . S
C264 C272 1.378 . S
C265 C264 1.367 . S
C265 C273 1.433 . S
C266 H262 0.929 . S
C266 C268 1.378 . S
C266 C270 1.350 . S
C267 C270 1.463 . S
C267 C272 1.350 . S
C267 N275 1.427 . S
C268 H259 0.930 . S
C268 C266 1.378 . S
C268 C269 1.367 . S
C269 C268 1.367 . S
C269 C271 1.433 . S
C270 C266 1.350 . S
C270 C267 1.463 . S
C270 N274 1.427 . S
C271 H261 0.929 . S
C271 C269 1.433 . S
C271 N274 1.384 . S
C272 H263 0.929 . S
C272 C264 1.378 . S
C272 C267 1.350 . S
C273 H260 0.929 . S
C273 C265 1.433 . S
C273 N275 1.384 . S
N274 C270 1.427 . S
N274 C271 1.384 . S
N275 C267 1.427 . S
N275 C273 1.384 . S
H276 C282 0.930 . S
H277 C286 0.930 . S
H278 C291 0.929 . S
H279 C289 0.929 . S
H280 C284 0.929 . S
H281 C290 0.929 . S
C282 H276 0.930 . S
C282 C283 1.367 . S
C282 C290 1.378 . S
C283 C282 1.367 . S
C283 C291 1.433 . S
C284 H280 0.929 . S
C284 C286 1.378 . S
C284 C288 1.350 . S
C285 C288 1.463 . S
C285 C290 1.350 . S
C285 N293 1.427 . S
C286 H277 0.930 . S
C286 C284 1.378 . S
C286 C287 1.367 . S
C287 C286 1.367 . S
C287 C289 1.433 . S
C288 C284 1.350 . S
C288 C285 1.463 . S
C288 N292 1.427 . S
C289 H279 0.929 . S
C289 C287 1.433 . S
C289 N292 1.384 . S
C290 H281 0.929 . S
C290 C282 1.378 . S
C290 C285 1.350 . S
C291 H278 0.929 . S
C291 C283 1.433 . S
C291 N293 1.384 . S
N292 C288 1.427 . S
N292 C289 1.384 . S
N293 C285 1.427 . S
N293 C291 1.384 . S
H294 C300 0.930 . S
H295 C304 0.930 . S
H296 C309 0.929 . S
H297 C307 0.929 . S
H298 C302 0.929 . S
H299 C308 0.929 . S
C300 H294 0.930 . S
C300 C301 1.367 . S
C300 C308 1.378 . S
C301 C300 1.367 . S
C301 C309 1.433 . S
C302 H298 0.929 . S
C302 C304 1.378 . S
C302 C306 1.350 . S
C303 C306 1.463 . S
C303 C308 1.350 . S
C303 N311 1.427 . S
C304 H295 0.930 . S
C304 C302 1.378 . S
C304 C305 1.367 . S
C305 C304 1.367 . S
C305 C307 1.433 . S
C306 C302 1.350 . S
C306 C303 1.463 . S
C306 N310 1.427 . S
C307 H297 0.929 . S
C307 C305 1.433 . S
C307 N310 1.384 . S
C308 H299 0.929 . S
C308 C300 1.378 . S
C308 C303 1.350 . S
C309 H296 0.929 . S
C309 C301 1.433 . S
C309 N311 1.384 . S
N310 C306 1.427 . S
N310 C307 1.384 . S
N311 C303 1.427 . S
N311 C309 1.384 . S
H312 C318 0.930 . S
H313 C322 0.930 . S
H314 C327 0.929 1_554 S
H315 C325 0.929 . S
H316 C320 0.929 . S
H317 C326 0.929 . S
C318 H312 0.930 . S
C318 C319 1.367 . S
C318 C326 1.378 . S
C319 C318 1.367 . S
C319 C327 1.433 . S
C320 H316 0.929 . S
C320 C322 1.378 . S
C320 C324 1.350 . S
C321 C324 1.463 . S
C321 C326 1.350 . S
C321 N329 1.427 . S
C322 H313 0.930 . S
C322 C320 1.378 . S
C322 C323 1.367 . S
C323 C322 1.367 . S
C323 C325 1.433 . S
C324 C320 1.350 . S
C324 C321 1.463 . S
C324 N328 1.427 . S
C325 H315 0.929 . S
C325 C323 1.433 . S
C325 N328 1.384 . S
C326 H317 0.929 . S
C326 C318 1.378 . S
C326 C321 1.350 . S
C327 H314 0.929 1_556 S
C327 C319 1.433 . S
C327 N329 1.384 . S
N328 C324 1.427 . S
N328 C325 1.384 . S
N329 C321 1.427 . S
N329 C327 1.384 . S
H330 C336 0.930 . S
H331 C340 0.930 . S
H332 C345 0.929 . S
H333 C343 0.929 . S
H334 C338 0.929 . S
H335 C344 0.929 . S
C336 H330 0.930 . S
C336 C337 1.367 . S
C336 C344 1.378 . S
C337 C336 1.367 . S
C337 C345 1.433 . S
C338 H334 0.929 . S
C338 C340 1.378 . S
C338 C342 1.350 . S
C339 C342 1.463 . S
C339 C344 1.350 . S
C339 N347 1.427 . S
C340 H331 0.930 . S
C340 C338 1.378 . S
C340 C341 1.367 . S
C341 C340 1.367 . S
C341 C343 1.433 . S
C342 C338 1.350 . S
C342 C339 1.463 . S
C342 N346 1.427 . S
C343 H333 0.929 . S
C343 C341 1.433 . S
C343 N346 1.384 . S
C344 H335 0.929 . S
C344 C336 1.378 . S
C344 C339 1.350 . S
C345 H332 0.929 . S
C345 C337 1.433 . S
C345 N347 1.384 . S
N346 C342 1.427 . S
N346 C343 1.384 . S
N347 C339 1.427 . S
N347 C345 1.384 . S
H348 C354 0.930 . S
H349 C358 0.930 . S
H350 C363 0.929 . S
H351 C361 0.929 . S
H352 C356 0.929 . S
H353 C362 0.929 . S
C354 H348 0.930 . S
C354 C355 1.367 . S
C354 C362 1.378 . S
C355 C354 1.367 . S
C355 C363 1.433 . S
C356 H352 0.929 . S
C356 C358 1.378 . S
C356 C360 1.350 . S
C357 C360 1.463 . S
C357 C362 1.350 . S
C357 N365 1.427 . S
C358 H349 0.930 . S
C358 C356 1.378 . S
C358 C359 1.367 . S
C359 C358 1.367 . S
C359 C361 1.433 . S
C360 C356 1.350 . S
C360 C357 1.463 . S
C360 N364 1.427 . S
C361 H351 0.929 . S
C361 C359 1.433 . S
C361 N364 1.384 . S
C362 H353 0.929 . S
C362 C354 1.378 . S
C362 C357 1.350 . S
C363 H350 0.929 . S
C363 C355 1.433 . S
C363 N365 1.384 . S
N364 C360 1.427 . S
N364 C361 1.384 . S
N365 C357 1.427 . S
N365 C363 1.384 . S
H366 C372 0.930 . S
H367 C376 0.930 . S
H368 C381 0.929 . S
H369 C379 0.929 . S
H370 C374 0.929 . S
H371 C380 0.929 . S
C372 H366 0.930 . S
C372 C373 1.367 . S
C372 C380 1.378 . S
C373 C372 1.367 . S
C373 C381 1.433 . S
C374 H370 0.929 . S
C374 C376 1.378 . S
C374 C378 1.350 . S
C375 C378 1.463 . S
C375 C380 1.350 . S
C375 N383 1.427 . S
C376 H367 0.930 . S
C376 C374 1.378 . S
C376 C377 1.367 . S
C377 C376 1.367 . S
C377 C379 1.433 . S
C378 C374 1.350 . S
C378 C375 1.463 . S
C378 N382 1.427 . S
C379 H369 0.929 . S
C379 C377 1.433 . S
C379 N382 1.384 . S
C380 H371 0.929 . S
C380 C372 1.378 . S
C380 C375 1.350 . S
C381 H368 0.929 . S
C381 C373 1.433 . S
C381 N383 1.384 . S
N382 C378 1.427 . S
N382 C379 1.384 . S
N383 C375 1.427 . S
N383 C381 1.384 . S
H384 C390 0.930 1_554 S
H385 C394 0.930 . S
H386 C399 0.929 . S
H387 C397 0.929 . S
H388 C392 0.929 . S
H389 C398 0.929 . S
C390 H384 0.930 1_556 S
C390 C391 1.367 . S
C390 C398 1.378 . S
C391 C390 1.367 . S
C391 C399 1.433 . S
C392 H388 0.929 . S
C392 C394 1.378 . S
C392 C396 1.350 . S
C393 C396 1.463 . S
C393 C398 1.350 . S
C393 N401 1.427 . S
C394 H385 0.930 . S
C394 C392 1.378 . S
C394 C395 1.367 . S
C395 C394 1.367 . S
C395 C397 1.433 . S
C396 C392 1.350 . S
C396 C393 1.463 . S
C396 N400 1.427 . S
C397 H387 0.929 . S
C397 C395 1.433 . S
C397 N400 1.384 . S
C398 H389 0.929 . S
C398 C390 1.378 . S
C398 C393 1.350 . S
C399 H386 0.929 . S
C399 C391 1.433 . S
C399 N401 1.384 . S
N400 C396 1.427 . S
N400 C397 1.384 . S
N401 C393 1.427 . S
N401 C399 1.384 . S
H402 C408 0.930 . S
H403 C412 0.930 . S
H404 C417 0.929 . S
H405 C415 0.929 . S
H406 C410 0.929 . S
H407 C416 0.929 . S
C408 H402 0.930 . S
C408 C409 1.367 . S
C408 C416 1.378 . S
C409 C408 1.367 . S
C409 C417 1.433 . S
C410 H406 0.929 . S
C410 C412 1.378 . S
C410 C414 1.350 . S
C411 C414 1.463 . S
C411 C416 1.350 . S
C411 N419 1.427 . S
C412 H403 0.930 . S
C412 C410 1.378 . S
C412 C413 1.367 . S
C413 C412 1.367 . S
C413 C415 1.433 . S
C414 C410 1.350 . S
C414 C411 1.463 . S
C414 N418 1.427 . S
C415 H405 0.929 . S
C415 C413 1.433 . S
C415 N418 1.384 . S
C416 H407 0.929 . S
C416 C408 1.378 . S
C416 C411 1.350 . S
C417 H404 0.929 . S
C417 C409 1.433 . S
C417 N419 1.384 . S
N418 C414 1.427 . S
N418 C415 1.384 . S
N419 C411 1.427 . S
N419 C417 1.384 . S
H420 C426 0.930 . S
H421 C430 0.930 . S
H422 C435 0.929 . S
H423 C433 0.929 . S
H424 C428 0.929 . S
H425 C434 0.929 . S
C426 H420 0.930 . S
C426 C427 1.367 . S
C426 C434 1.378 . S
C427 C426 1.367 . S
C427 C435 1.433 . S
C428 H424 0.929 . S
C428 C430 1.378 . S
C428 C432 1.350 . S
C429 C432 1.463 . S
C429 C434 1.350 . S
C429 N437 1.427 . S
C430 H421 0.930 . S
C430 C428 1.378 . S
C430 C431 1.367 . S
C431 C430 1.367 . S
C431 C433 1.433 . S
C432 C428 1.350 . S
C432 C429 1.463 . S
C432 N436 1.427 . S
C433 H423 0.929 . S
C433 C431 1.433 . S
C433 N436 1.384 . S
C434 H425 0.929 . S
C434 C426 1.378 . S
C434 C429 1.350 . S
C435 H422 0.929 . S
C435 C427 1.433 . S
C435 N437 1.384 . S
N436 C432 1.427 . S
N436 C433 1.384 . S
N437 C429 1.427 . S
N437 C435 1.384 . S
H438 C444 0.930 . S
H439 C448 0.930 . S
H440 C453 0.929 . S
H441 C451 0.929 . S
H442 C446 0.929 . S
H443 C452 0.929 . S
C444 H438 0.930 . S
C444 C445 1.367 . S
C444 C452 1.378 . S
C445 C444 1.367 . S
C445 C453 1.433 . S
C446 H442 0.929 . S
C446 C448 1.378 . S
C446 C450 1.350 . S
C447 C450 1.463 . S
C447 C452 1.350 . S
C447 N455 1.427 . S
C448 H439 0.930 . S
C448 C446 1.378 . S
C448 C449 1.367 . S
C449 C448 1.367 . S
C449 C451 1.433 . S
C450 C446 1.350 . S
C450 C447 1.463 . S
C450 N454 1.427 . S
C451 H441 0.929 . S
C451 C449 1.433 . S
C451 N454 1.384 . S
C452 H443 0.929 . S
C452 C444 1.378 . S
C452 C447 1.350 . S
C453 H440 0.929 . S
C453 C445 1.433 . S
C453 N455 1.384 . S
N454 C450 1.427 . S
N454 C451 1.384 . S
N455 C447 1.427 . S
N455 C453 1.384 . S
H456 C462 0.930 . S
H457 C466 0.930 . S
H458 C471 0.929 1_554 S
H459 C469 0.929 . S
H460 C464 0.929 . S
H461 C470 0.929 . S
C462 H456 0.930 . S
C462 C463 1.367 . S
C462 C470 1.378 . S
C463 C462 1.367 . S
C463 C471 1.433 . S
C464 H460 0.929 . S
C464 C466 1.378 . S
C464 C468 1.350 1_545 S
C465 C468 1.463 . S
C465 C470 1.350 . S
C465 N473 1.427 . S
C466 H457 0.930 . S
C466 C464 1.378 . S
C466 C467 1.367 . S
C467 C466 1.367 . S
C467 C469 1.433 . S
C468 C464 1.350 1_565 S
C468 C465 1.463 . S
C468 N472 1.427 . S
C469 H459 0.929 . S
C469 C467 1.433 . S
C469 N472 1.384 1_545 S
C470 H461 0.929 . S
C470 C462 1.378 . S
C470 C465 1.350 . S
C471 H458 0.929 1_556 S
C471 C463 1.433 . S
C471 N473 1.384 . S
N472 C468 1.427 . S
N472 C469 1.384 1_565 S
N473 C465 1.427 . S
N473 C471 1.384 . S
H474 C480 0.930 . S
H475 C484 0.930 . S
H476 C489 0.929 . S
H477 C487 0.929 . S
H478 C482 0.935 . S
H479 C488 0.929 . S
C480 H474 0.930 . S
C480 C481 1.367 . S
C480 C488 1.378 . S
C481 C480 1.367 . S
C481 C489 1.433 . S
C482 H478 0.935 . S
C482 C484 1.365 1_545 S
C482 C486 1.356 . S
C483 C486 1.463 . S
C483 C488 1.350 . S
C483 N491 1.427 . S
C484 H475 0.930 . S
C484 C482 1.365 1_565 S
C484 C485 1.367 . S
C485 C484 1.367 . S
C485 C487 1.433 . S
C486 C482 1.356 . S
C486 C483 1.463 . S
C486 N490 1.426 1_545 S
C487 H477 0.929 . S
C487 C485 1.433 . S
C487 N490 1.385 . S
C488 H479 0.929 . S
C488 C480 1.378 . S
C488 C483 1.350 . S
C489 H476 0.929 . S
C489 C481 1.433 . S
C489 N491 1.384 . S
N490 C486 1.426 1_565 S
N490 C487 1.385 . S
N491 C483 1.427 . S
N491 C489 1.384 . S
H492 C498 0.930 . S
H493 C502 0.930 . S
H494 C507 0.929 1_554 S
H495 C505 0.929 . S
H496 C500 0.929 . S
H497 C506 0.929 . S
C498 H492 0.930 . S
C498 C499 1.367 . S
C498 C506 1.378 . S
C499 C498 1.367 . S
C499 C507 1.433 . S
C500 H496 0.929 . S
C500 C502 1.378 . S
C500 C504 1.350 1_545 S
C501 C504 1.463 . S
C501 C506 1.350 . S
C501 N509 1.427 . S
C502 H493 0.930 . S
C502 C500 1.378 . S
C502 C503 1.367 . S
C503 C502 1.367 . S
C503 C505 1.433 . S
C504 C500 1.350 1_565 S
C504 C501 1.463 . S
C504 N508 1.427 . S
C505 H495 0.929 . S
C505 C503 1.433 . S
C505 N508 1.384 1_545 S
C506 H497 0.929 . S
C506 C498 1.378 . S
C506 C501 1.350 . S
C507 H494 0.929 1_556 S
C507 C499 1.433 . S
C507 N509 1.384 . S
N508 C504 1.427 . S
N508 C505 1.384 1_565 S
N509 C501 1.427 . S
N509 C507 1.384 . S
H510 C516 0.930 . S
H511 C520 0.930 . S
H512 C525 0.929 . S
H513 C523 0.929 . S
H514 C518 0.929 . S
H515 C524 0.929 . S
C516 H510 0.930 . S
C516 C517 1.367 . S
C516 C524 1.378 . S
C517 C516 1.367 . S
C517 C525 1.433 . S
C518 H514 0.929 . S
C518 C520 1.378 . S
C518 C522 1.350 1_565 S
C519 C522 1.463 . S
C519 C524 1.350 . S
C519 N527 1.427 . S
C520 H511 0.930 . S
C520 C518 1.378 . S
C520 C521 1.367 . S
C521 C520 1.367 . S
C521 C523 1.433 . S
C522 C518 1.350 1_545 S
C522 C519 1.463 . S
C522 N526 1.427 . S
C523 H513 0.929 . S
C523 C521 1.433 . S
C523 N526 1.384 1_565 S
C524 H515 0.929 . S
C524 C516 1.378 . S
C524 C519 1.350 . S
C525 H512 0.929 . S
C525 C517 1.433 . S
C525 N527 1.384 . S
N526 C522 1.427 . S
N526 C523 1.384 1_545 S
N527 C519 1.427 . S
N527 C525 1.384 . S
H528 C534 0.930 . S
H529 C538 0.930 . S
H530 C543 0.929 . S
H531 C541 0.929 . S
H532 C536 0.929 . S
H533 C542 0.929 . S
C534 H528 0.930 . S
C534 C535 1.367 . S
C534 C542 1.378 . S
C535 C534 1.367 . S
C535 C543 1.433 . S
C536 H532 0.929 . S
C536 C538 1.378 . S
C536 C540 1.350 . S
C537 C540 1.463 . S
C537 C542 1.350 . S
C537 N545 1.427 . S
C538 H529 0.930 . S
C538 C536 1.378 . S
C538 C539 1.367 . S
C539 C538 1.367 . S
C539 C541 1.433 . S
C540 C536 1.350 . S
C540 C537 1.463 . S
C540 N544 1.427 . S
C541 H531 0.929 . S
C541 C539 1.433 . S
C541 N544 1.384 . S
C542 H533 0.929 . S
C542 C534 1.378 . S
C542 C537 1.350 . S
C543 H530 0.929 . S
C543 C535 1.433 . S
C543 N545 1.384 . S
N544 C540 1.427 . S
N544 C541 1.384 . S
N545 C537 1.427 . S
N545 C543 1.384 . S
H546 C552 0.930 . S
H547 C556 0.930 . S
H548 C561 0.929 . S
H549 C559 0.929 . S
H550 C554 0.929 . S
H551 C560 0.929 . S
C552 H546 0.930 . S
C552 C553 1.367 . S
C552 C560 1.378 . S
C553 C552 1.367 . S
C553 C561 1.433 . S
C554 H550 0.929 . S
C554 C556 1.378 . S
C554 C558 1.350 . S
C555 C558 1.463 . S
C555 C560 1.350 . S
C555 N563 1.427 . S
C556 H547 0.930 . S
C556 C554 1.378 . S
C556 C557 1.367 . S
C557 C556 1.367 . S
C557 C559 1.433 . S
C558 C554 1.350 . S
C558 C555 1.463 . S
C558 N562 1.427 . S
C559 H549 0.929 . S
C559 C557 1.433 . S
C559 N562 1.384 . S
C560 H551 0.929 . S
C560 C552 1.378 . S
C560 C555 1.350 . S
C561 H548 0.929 . S
C561 C553 1.433 . S
C561 N563 1.384 . S
N562 C558 1.427 . S
N562 C559 1.384 . S
N563 C555 1.427 . S
N563 C561 1.384 . S
H564 C570 0.930 . S
H565 C574 0.930 . S
H566 C579 0.929 . S
H567 C577 0.929 . S
H568 C572 0.929 . S
H569 C578 0.929 . S
C570 H564 0.930 . S
C570 C571 1.367 . S
C570 C578 1.378 . S
C571 C570 1.367 . S
C571 C579 1.433 . S
C572 H568 0.929 . S
C572 C574 1.378 . S
C572 C576 1.350 . S
C573 C576 1.463 . S
C573 C578 1.350 . S
C573 N581 1.427 . S
C574 H565 0.930 . S
C574 C572 1.378 . S
C574 C575 1.367 . S
C575 C574 1.367 . S
C575 C577 1.433 . S
C576 C572 1.350 . S
C576 C573 1.463 . S
C576 N580 1.427 . S
C577 H567 0.929 . S
C577 C575 1.433 . S
C577 N580 1.384 . S
C578 H569 0.929 . S
C578 C570 1.378 . S
C578 C573 1.350 . S
C579 H566 0.929 . S
C579 C571 1.433 . S
C579 N581 1.384 . S
N580 C576 1.427 . S
N580 C577 1.384 . S
N581 C573 1.427 . S
N581 C579 1.384 . S
H582 C588 0.930 . S
H583 C592 0.930 . S
H584 C597 0.929 . S
H585 C595 0.929 . S
H586 C590 0.929 . S
H587 C596 0.929 . S
C588 H582 0.930 . S
C588 C589 1.367 . S
C588 C596 1.378 . S
C589 C588 1.367 . S
C589 C597 1.433 . S
C590 H586 0.929 . S
C590 C592 1.378 . S
C590 C594 1.350 . S
C591 C594 1.463 . S
C591 C596 1.350 . S
C591 N599 1.427 . S
C592 H583 0.930 . S
C592 C590 1.378 . S
C592 C593 1.367 . S
C593 C592 1.367 . S
C593 C595 1.433 . S
C594 C590 1.350 . S
C594 C591 1.463 . S
C594 N598 1.427 . S
C595 H585 0.929 . S
C595 C593 1.433 . S
C595 N598 1.384 . S
C596 H587 0.929 . S
C596 C588 1.378 . S
C596 C591 1.350 . S
C597 H584 0.929 . S
C597 C589 1.433 . S
C597 N599 1.384 . S
N598 C594 1.427 . S
N598 C595 1.384 . S
N599 C591 1.427 . S
N599 C597 1.384 . S
H600 C606 0.930 . S
H601 C610 0.930 . S
H602 C615 0.929 . S
H603 C613 0.929 . S
H604 C608 0.929 . S
H605 C614 0.929 . S
C606 H600 0.930 . S
C606 C607 1.367 . S
C606 C614 1.378 . S
C607 C606 1.367 . S
C607 C615 1.433 . S
C608 H604 0.929 . S
C608 C610 1.378 . S
C608 C612 1.350 . S
C609 C612 1.463 . S
C609 C614 1.350 . S
C609 N617 1.427 . S
C610 H601 0.930 . S
C610 C608 1.378 . S
C610 C611 1.367 . S
C611 C610 1.367 . S
C611 C613 1.433 . S
C612 C608 1.350 . S
C612 C609 1.463 . S
C612 N616 1.427 . S
C613 H603 0.929 . S
C613 C611 1.433 . S
C613 N616 1.384 . S
C614 H605 0.929 . S
C614 C606 1.378 . S
C614 C609 1.350 . S
C615 H602 0.929 . S
C615 C607 1.433 . S
C615 N617 1.384 . S
N616 C612 1.427 . S
N616 C613 1.384 . S
N617 C609 1.427 . S
N617 C615 1.384 . S
H618 C624 0.930 . S
H619 C628 0.930 . S
H620 C633 0.929 . S
H621 C631 0.929 . S
H622 C626 0.929 . S
H623 C632 0.929 . S
C624 H618 0.930 . S
C624 C625 1.367 . S
C624 C632 1.378 . S
C625 C624 1.367 . S
C625 C633 1.433 . S
C626 H622 0.929 . S
C626 C628 1.378 . S
C626 C630 1.350 . S
C627 C630 1.463 . S
C627 C632 1.350 . S
C627 N635 1.427 . S
C628 H619 0.930 . S
C628 C626 1.378 . S
C628 C629 1.367 . S
C629 C628 1.367 . S
C629 C631 1.433 . S
C630 C626 1.350 . S
C630 C627 1.463 . S
C630 N634 1.427 . S
C631 H621 0.929 . S
C631 C629 1.433 . S
C631 N634 1.384 . S
C632 H623 0.929 . S
C632 C624 1.378 . S
C632 C627 1.350 . S
C633 H620 0.929 . S
C633 C625 1.433 . S
C633 N635 1.384 . S
N634 C630 1.427 . S
N634 C631 1.384 . S
N635 C627 1.427 . S
N635 C633 1.384 . S
H636 C642 0.930 . S
H637 C646 0.930 . S
H638 C651 0.929 . S
H639 C649 0.929 . S
H640 C644 0.929 . S
H641 C650 0.929 . S
C642 H636 0.930 . S
C642 C643 1.367 . S
C642 C650 1.378 . S
C643 C642 1.367 . S
C643 C651 1.433 . S
C644 H640 0.929 . S
C644 C646 1.378 . S
C644 C648 1.350 . S
C645 C648 1.463 . S
C645 C650 1.350 . S
C645 N653 1.427 . S
C646 H637 0.930 . S
C646 C644 1.378 . S
C646 C647 1.367 . S
C647 C646 1.367 . S
C647 C649 1.433 . S
C648 C644 1.350 . S
C648 C645 1.463 . S
C648 N652 1.427 . S
C649 H639 0.929 . S
C649 C647 1.433 . S
C649 N652 1.384 . S
C650 H641 0.929 . S
C650 C642 1.378 . S
C650 C645 1.350 . S
C651 H638 0.929 . S
C651 C643 1.433 . S
C651 N653 1.384 . S
N652 C648 1.427 . S
N652 C649 1.384 . S
N653 C645 1.427 . S
N653 C651 1.384 . S
H654 C660 0.930 . S
H655 C664 0.930 . S
H656 C669 0.929 . S
H657 C667 0.929 . S
H658 C662 0.929 . S
H659 C668 0.929 . S
C660 H654 0.930 . S
C660 C661 1.367 . S
C660 C668 1.378 . S
C661 C660 1.367 . S
C661 C669 1.433 . S
C662 H658 0.929 . S
C662 C664 1.378 . S
C662 C666 1.350 . S
C663 C666 1.463 . S
C663 C668 1.350 . S
C663 N671 1.427 . S
C664 H655 0.930 . S
C664 C662 1.378 . S
C664 C665 1.367 . S
C665 C664 1.367 . S
C665 C667 1.433 . S
C666 C662 1.350 . S
C666 C663 1.463 . S
C666 N670 1.427 . S
C667 H657 0.929 . S
C667 C665 1.433 . S
C667 N670 1.384 . S
C668 H659 0.929 . S
C668 C660 1.378 . S
C668 C663 1.350 . S
C669 H656 0.929 . S
C669 C661 1.433 . S
C669 N671 1.384 . S
N670 C666 1.427 . S
N670 C667 1.384 . S
N671 C663 1.427 . S
N671 C669 1.384 . S
C247 C11 1.486 . S
C251 C195 1.554 . S
C269 C159 1.554 . S
C265 C30 1.474 . S
C287 C182 1.567 . S
C283 C49 1.399 . S
C305 C170 1.562 . S
C301 C68 1.374 . S
C323 C239 1.556 . S
C319 C87 1.487 . S
C341 C203 1.561 . S
C337 C106 1.473 . S
C355 C125 1.374 . S
C359 C226 1.563 . S
C377 C214 1.566 . S
C373 C144 1.398 . S
C391 C2 1.559 . S
C395 C236 1.596 . S
C413 C206 1.595 . S
C409 C21 1.555 . S
C427 C40 1.571 . S
C431 C225 1.617 . S
C445 C59 1.577 . S
C449 C211 1.615 . S
C467 C192 1.595 . S
C463 C78 1.571 . S
C481 C97 1.556 . S
C485 C162 1.595 . S
C503 C181 1.613 . S
C499 C116 1.579 . S
C521 C167 1.614 . S
C517 C135 1.578 . S
C539 C217 1.569 . S
C535 C6 1.572 . S
C557 C233 1.572 . S
C553 C25 1.569 . S
C571 C44 1.533 . S
C575 C204 1.540 . S
C593 C228 1.541 . S
C589 C63 1.530 . S
C611 C173 1.573 . S
C607 C82 1.569 . S
C625 C101 1.571 . S
C629 C189 1.571 . S
C643 C120 1.531 . S
C647 C160 1.541 . S
C661 C139 1.529 . S
C665 C184 1.541 . S
