# Generated by pormake.
# Topology ctn, (3,4)-cn, num edge types: 1
# Building blocks:
#     Node 0, Type 0, BuildingBlock: QEWDON_clean_linker_0, # of connection points: 3
#     Node 1, Type 0, BuildingBlock: QEWDON_clean_linker_0, # of connection points: 3
#     Node 2, Type 0, BuildingBlock: QEWDON_clean_linker_0, # of connection points: 3
#     Node 3, Type 0, BuildingBlock: QEWDON_clean_linker_0, # of connection points: 3
#     Node 4, Type 0, BuildingBlock: QEWDON_clean_linker_0, # of connection points: 3
#     Node 5, Type 0, BuildingBlock: QEWDON_clean_linker_0, # of connection points: 3
#     Node 6, Type 0, BuildingBlock: QEWDON_clean_linker_0, # of connection points: 3
#     Node 7, Type 0, BuildingBlock: QEWDON_clean_linker_0, # of connection points: 3
#     Node 8, Type 0, BuildingBlock: QEWDON_clean_linker_0, # of connection points: 3
#     Node 9, Type 0, BuildingBlock: QEWDON_clean_linker_0, # of connection points: 3
#     Node 10, Type 0, BuildingBlock: QEWDON_clean_linker_0, # of connection points: 3
#     Node 11, Type 0, BuildingBlock: QEWDON_clean_linker_0, # of connection points: 3
#     Node 12, Type 0, BuildingBlock: QEWDON_clean_linker_0, # of connection points: 3
#     Node 13, Type 0, BuildingBlock: QEWDON_clean_linker_0, # of connection points: 3
#     Node 14, Type 0, BuildingBlock: QEWDON_clean_linker_0, # of connection points: 3
#     Node 15, Type 0, BuildingBlock: QEWDON_clean_linker_0, # of connection points: 3
#     Node 16, Type 1, BuildingBlock: TATPOV_clean_sbu_0, # of connection points: 4
#     Node 17, Type 1, BuildingBlock: TATPOV_clean_sbu_0, # of connection points: 4
#     Node 18, Type 1, BuildingBlock: TATPOV_clean_sbu_0, # of connection points: 4
#     Node 19, Type 1, BuildingBlock: TATPOV_clean_sbu_0, # of connection points: 4
#     Node 20, Type 1, BuildingBlock: TATPOV_clean_sbu_0, # of connection points: 4
#     Node 21, Type 1, BuildingBlock: TATPOV_clean_sbu_0, # of connection points: 4
#     Node 22, Type 1, BuildingBlock: TATPOV_clean_sbu_0, # of connection points: 4
#     Node 23, Type 1, BuildingBlock: TATPOV_clean_sbu_0, # of connection points: 4
#     Node 24, Type 1, BuildingBlock: TATPOV_clean_sbu_0, # of connection points: 4
#     Node 25, Type 1, BuildingBlock: TATPOV_clean_sbu_0, # of connection points: 4
#     Node 26, Type 1, BuildingBlock: TATPOV_clean_sbu_0, # of connection points: 4
#     Node 27, Type 1, BuildingBlock: TATPOV_clean_sbu_0, # of connection points: 4
#     Edge 28, Type (0, 1), BuildingBlock: CIFDUS_clean_linker_0, # of connection points: 2
#     Edge 29, Type (0, 1), BuildingBlock: CIFDUS_clean_linker_0, # of connection points: 2
#     Edge 30, Type (0, 1), BuildingBlock: CIFDUS_clean_linker_0, # of connection points: 2
#     Edge 31, Type (0, 1), BuildingBlock: CIFDUS_clean_linker_0, # of connection points: 2
#     Edge 32, Type (0, 1), BuildingBlock: CIFDUS_clean_linker_0, # of connection points: 2
#     Edge 33, Type (0, 1), BuildingBlock: CIFDUS_clean_linker_0, # of connection points: 2
#     Edge 34, Type (0, 1), BuildingBlock: CIFDUS_clean_linker_0, # of connection points: 2
#     Edge 35, Type (0, 1), BuildingBlock: CIFDUS_clean_linker_0, # of connection points: 2
#     Edge 36, Type (0, 1), BuildingBlock: CIFDUS_clean_linker_0, # of connection points: 2
#     Edge 37, Type (0, 1), BuildingBlock: CIFDUS_clean_linker_0, # of connection points: 2
#     Edge 38, Type (0, 1), BuildingBlock: CIFDUS_clean_linker_0, # of connection points: 2
#     Edge 39, Type (0, 1), BuildingBlock: CIFDUS_clean_linker_0, # of connection points: 2
#     Edge 40, Type (0, 1), BuildingBlock: CIFDUS_clean_linker_0, # of connection points: 2
#     Edge 41, Type (0, 1), BuildingBlock: CIFDUS_clean_linker_0, # of connection points: 2
#     Edge 42, Type (0, 1), BuildingBlock: CIFDUS_clean_linker_0, # of connection points: 2
#     Edge 43, Type (0, 1), BuildingBlock: CIFDUS_clean_linker_0, # of connection points: 2
#     Edge 44, Type (0, 1), BuildingBlock: CIFDUS_clean_linker_0, # of connection points: 2
#     Edge 45, Type (0, 1), BuildingBlock: CIFDUS_clean_linker_0, # of connection points: 2
#     Edge 46, Type (0, 1), BuildingBlock: CIFDUS_clean_linker_0, # of connection points: 2
#     Edge 47, Type (0, 1), BuildingBlock: CIFDUS_clean_linker_0, # of connection points: 2
#     Edge 48, Type (0, 1), BuildingBlock: CIFDUS_clean_linker_0, # of connection points: 2
#     Edge 49, Type (0, 1), BuildingBlock: CIFDUS_clean_linker_0, # of connection points: 2
#     Edge 50, Type (0, 1), BuildingBlock: CIFDUS_clean_linker_0, # of connection points: 2
#     Edge 51, Type (0, 1), BuildingBlock: CIFDUS_clean_linker_0, # of connection points: 2
#     Edge 52, Type (0, 1), BuildingBlock: CIFDUS_clean_linker_0, # of connection points: 2
#     Edge 53, Type (0, 1), BuildingBlock: CIFDUS_clean_linker_0, # of connection points: 2
#     Edge 54, Type (0, 1), BuildingBlock: CIFDUS_clean_linker_0, # of connection points: 2
#     Edge 55, Type (0, 1), BuildingBlock: CIFDUS_clean_linker_0, # of connection points: 2
#     Edge 56, Type (0, 1), BuildingBlock: CIFDUS_clean_linker_0, # of connection points: 2
#     Edge 57, Type (0, 1), BuildingBlock: CIFDUS_clean_linker_0, # of connection points: 2
#     Edge 58, Type (0, 1), BuildingBlock: CIFDUS_clean_linker_0, # of connection points: 2
#     Edge 59, Type (0, 1), BuildingBlock: CIFDUS_clean_linker_0, # of connection points: 2
#     Edge 60, Type (0, 1), BuildingBlock: CIFDUS_clean_linker_0, # of connection points: 2
#     Edge 61, Type (0, 1), BuildingBlock: CIFDUS_clean_linker_0, # of connection points: 2
#     Edge 62, Type (0, 1), BuildingBlock: CIFDUS_clean_linker_0, # of connection points: 2
#     Edge 63, Type (0, 1), BuildingBlock: CIFDUS_clean_linker_0, # of connection points: 2
#     Edge 64, Type (0, 1), BuildingBlock: CIFDUS_clean_linker_0, # of connection points: 2
#     Edge 65, Type (0, 1), BuildingBlock: CIFDUS_clean_linker_0, # of connection points: 2
#     Edge 66, Type (0, 1), BuildingBlock: CIFDUS_clean_linker_0, # of connection points: 2
#     Edge 67, Type (0, 1), BuildingBlock: CIFDUS_clean_linker_0, # of connection points: 2
#     Edge 68, Type (0, 1), BuildingBlock: CIFDUS_clean_linker_0, # of connection points: 2
#     Edge 69, Type (0, 1), BuildingBlock: CIFDUS_clean_linker_0, # of connection points: 2
#     Edge 70, Type (0, 1), BuildingBlock: CIFDUS_clean_linker_0, # of connection points: 2
#     Edge 71, Type (0, 1), BuildingBlock: CIFDUS_clean_linker_0, # of connection points: 2
#     Edge 72, Type (0, 1), BuildingBlock: CIFDUS_clean_linker_0, # of connection points: 2
#     Edge 73, Type (0, 1), BuildingBlock: CIFDUS_clean_linker_0, # of connection points: 2
#     Edge 74, Type (0, 1), BuildingBlock: CIFDUS_clean_linker_0, # of connection points: 2
#     Edge 75, Type (0, 1), BuildingBlock: CIFDUS_clean_linker_0, # of connection points: 2
# Relax obj value: 0.116
# Max RMSD: 0.277
# Mean RMSD: 0.151
data_MOF--net-ctn--node1-TATPOV_clean_sbu_0--node2-QEWDON_clean_linker_0--edge1-CIFDUS_clean_linker_0
_symmetry_space_group_name_H-M    P1
_symmetry_Int_Tables_number       1
_symmetry_cell_setting            triclinic
loop_
_symmetry_equiv_pos_as_xyz
'x, y, z'
_cell_length_a     45.785093
_cell_length_b     48.116379
_cell_length_c     51.292562
_cell_angle_alpha  99.922887
_cell_angle_beta   93.220936
_cell_angle_gamma 97.526906
loop_
_atom_site_label
_atom_site_type_symbol
_atom_site_fract_x
_atom_site_fract_y
_atom_site_fract_z
_atom_type_partial_charge
H0 H 0.11389 0.02012 0.03953 0.0
C1 C 0.09563 0.016 0.05155 0.0
C2 C 0.09357 0.9922 0.06439 0.0
C3 C 0.07579 0.03596 0.05614 0.0
H4 H 0.06916 0.97048 0.09185 0.0
C5 C 0.0709 0.98849 0.08165 0.0
C6 C 0.05042 0.00793 0.08582 0.0
C7 C 0.05304 0.03146 0.07285 0.0
C8 C 0.08215 0.06432 0.04842 0.0
H9 H 0.03829 0.0473 0.07695 0.0
C10 C 0.07628 0.06881 0.02223 0.0
C11 C 0.0805 0.09679 0.01662 0.0
C12 C 0.09301 0.08769 0.06852 0.0
H13 H 0.09763 0.08466 0.08871 0.0
C14 C 0.09781 0.11512 0.06289 0.0
H15 H 0.06762 0.05091 0.00667 0.0
C16 C 0.0915 0.1197 0.03723 0.0
H17 H 0.09542 0.14129 0.03343 0.0
H18 H 0.10625 0.13297 0.07855 0.0
H19 H 0.33753 0.74989 0.2445 0.0
C20 C 0.32133 0.73237 0.24738 0.0
C21 C 0.33033 0.70955 0.25834 0.0
C22 C 0.29126 0.7336 0.24151 0.0
H23 H 0.3151 0.67007 0.27121 0.0
C24 C 0.30855 0.68772 0.26286 0.0
C25 C 0.27831 0.68868 0.25703 0.0
C26 C 0.27001 0.71173 0.24632 0.0
C27 C 0.28151 0.75879 0.23244 0.0
H28 H 0.24685 0.71273 0.24153 0.0
C29 C 0.28871 0.76597 0.20784 0.0
C30 C 0.27783 0.78924 0.19901 0.0
C31 C 0.2638 0.77522 0.24834 0.0
H32 H 0.25799 0.77003 0.2673 0.0
C33 C 0.25357 0.79856 0.24005 0.0
H34 H 0.30186 0.75288 0.19533 0.0
C35 C 0.26049 0.80556 0.21563 0.0
H36 H 0.25242 0.82398 0.20988 0.0
H37 H 0.24015 0.81126 0.25258 0.0
H38 H 0.06677 0.46919 0.0543 0.0
C39 C 0.04861 0.48076 0.05064 0.0
C40 C 0.03157 0.49021 0.07146 0.0
C41 C 0.04289 0.48678 0.0253 0.0
H42 H 0.99544 0.51334 0.08271 0.0
C43 C 0.00819 0.50553 0.06654 0.0
C44 C 1.00236 0.51193 0.04108 0.0
C45 C 0.01968 0.50198 0.02062 0.0
C46 C 0.06209 0.47874 0.00383 0.0
H47 H 0.01508 0.50593 1.00072 0.0
C48 C 0.06667 0.45025 0.99591 0.0
C49 C 0.08369 0.44269 0.9744 0.0
C50 C 0.07525 0.49979 0.99062 0.0
H51 H 0.0721 0.52186 0.99652 0.0
C52 C 0.09253 0.49258 0.9697 0.0
H53 H 0.0565 0.43404 0.00614 0.0
C54 C 0.09658 0.46429 0.96148 0.0
H55 H 0.10919 0.4593 0.94448 0.0
H56 H 0.10245 0.50892 0.95952 0.0
H57 H 0.81101 0.78896 0.24138 0.0
C58 C 0.81331 0.77599 0.22232 0.0
C59 C 0.82643 0.78853 0.20212 0.0
C60 C 0.80478 0.74642 0.21873 0.0
H61 H 0.84028 0.78021 0.16223 0.0
C62 C 0.83017 0.77089 0.1779 0.0
C63 C 0.82162 0.74117 0.17406 0.0
C64 C 0.80894 0.72923 0.19467 0.0
C65 C 0.79358 0.733 0.24077 0.0
H66 H 0.80218 0.7064 0.19207 0.0
C67 C 0.76587 0.73719 0.25002 0.0
C68 C 0.75514 0.72402 0.2709 0.0
C69 C 0.81063 0.71547 0.25232 0.0
H70 H 0.83198 0.71192 0.24537 0.0
C71 C 0.80043 0.70268 0.27314 0.0
H72 H 0.75252 0.75011 0.24042 0.0
C73 C 0.77301 0.70696 0.28246 0.0
H74 H 0.76604 0.69714 0.29898 0.0
H75 H 0.8139 0.68945 0.28217 0.0
H76 H 0.13473 0.95623 0.46915 0.0
C77 C 0.11605 0.96186 0.45825 0.0
C78 C 0.11904 0.98736 0.44814 0.0
C79 C 0.08952 0.94295 0.45331 0.0
H80 H 0.09739 0.0135 0.42519 0.0
C81 C 0.09501 0.99401 0.43327 0.0
C82 C 0.06829 0.97517 0.42801 0.0
C83 C 0.06577 0.94967 0.43821 0.0
C84 C 0.08823 0.91431 0.46033 0.0
H85 H 0.0457 0.93445 0.43354 0.0
C86 C 0.08568 0.90995 0.48666 0.0
C87 C 0.08524 0.88234 0.49271 0.0
C88 C 0.09027 0.89107 0.44019 0.0
H89 H 0.0923 0.89409 0.41988 0.0
C90 C 0.09005 0.86386 0.4461 0.0
H91 H 0.08404 0.92788 0.50224 0.0
C92 C 0.08757 0.85947 0.4721 0.0
H93 H 0.0868 0.83796 0.47597 0.0
H94 H 0.09164 0.84604 0.43043 0.0
H95 H 0.28419 0.67612 0.75604 0.0
C96 C 0.27996 0.68826 0.77496 0.0
C97 C 0.28773 0.67906 0.79859 0.0
C98 C 0.26664 0.71301 0.77536 0.0
H99 H 0.28795 0.68824 0.8412 0.0
C100 C 0.28194 0.69522 0.82292 0.0
C101 C 0.26936 0.72068 0.82391 0.0
C102 C 0.26129 0.72905 0.79977 0.0
C103 C 0.26134 0.72341 0.75021 0.0
H104 H 0.2524 0.74885 0.79986 0.0
C105 C 0.23256 0.72502 0.73977 0.0
C106 C 0.22817 0.73258 0.71458 0.0
C107 C 0.28558 0.7304 0.7358 0.0
H108 H 0.30785 0.72932 0.74352 0.0
C109 C 0.28135 0.7387 0.71131 0.0
H110 H 0.21371 0.7192 0.75058 0.0
C111 C 0.25288 0.7396 0.70066 0.0
H112 H 0.25012 0.74575 0.68141 0.0
H113 H 0.30018 0.74409 0.70037 0.0
H114 H 0.97543 0.61571 0.4847 0.0
C115 C 0.96594 0.59447 0.48699 0.0
C116 C 0.95799 0.58964 0.51197 0.0
C117 C 0.96144 0.57237 0.46484 0.0
H118 H 0.93809 0.55875 0.53394 0.0
C119 C 0.94501 0.56235 0.51478 0.0
C120 C 0.94005 0.53995 0.49268 0.0
C121 C 0.94896 0.54496 0.46784 0.0
C122 C 0.96747 0.57905 0.43837 0.0
H123 H 0.94464 0.52802 0.4506 0.0
C124 C 0.9876 0.56539 0.42275 0.0
C125 C 0.99502 0.57413 0.39879 0.0
C126 C 0.95407 0.60069 0.42939 0.0
H127 H 0.93844 0.6114 0.44107 0.0
C128 C 0.96078 0.60883 0.40538 0.0
H129 H 0.99834 0.54897 0.42976 0.0
C130 C 0.98124 0.59581 0.39024 0.0
H131 H 0.98624 0.60261 0.37172 0.0
H132 H 0.95029 0.62549 0.39862 0.0
H133 H 0.86159 0.85603 0.81622 0.0
C134 C 0.86288 0.83926 0.82772 0.0
C135 C 0.87809 0.8164 0.81849 0.0
C136 C 0.8501 0.84116 0.85206 0.0
H137 H 0.89221 0.77766 0.82704 0.0
C138 C 0.88048 0.79528 0.83408 0.0
C139 C 0.86737 0.79658 0.85841 0.0
C140 C 0.85229 0.8197 0.86716 0.0
C141 C 0.83507 0.86593 0.8621 0.0
H142 H 0.84145 0.82071 0.88547 0.0
C143 C 0.81463 0.87567 0.84545 0.0
C144 C 0.80115 0.89968 0.85502 0.0
C145 C 0.84157 0.88027 0.88848 0.0
H146 H 0.85737 0.87337 0.90163 0.0
C147 C 0.82823 0.90404 0.89802 0.0
H148 H 0.80932 0.8647 0.8251 0.0
C149 C 0.80823 0.91377 0.88142 0.0
H150 H 0.79799 0.93217 0.88933 0.0
H151 H 0.83347 0.91501 0.91834 0.0
H152 H 0.36317 0.34615 0.32002 0.0
C153 C 0.36119 0.32838 0.33054 0.0
C154 C 0.37636 0.30505 0.32269 0.0
C155 C 0.34445 0.32967 0.35268 0.0
H156 H 0.38575 0.26466 0.33158 0.0
C157 C 0.37431 0.28279 0.33745 0.0
C158 C 0.35763 0.28379 0.35978 0.0
C159 C 0.3428 0.30738 0.36716 0.0
C160 C 0.32981 0.355 0.36156 0.0
H161 H 0.32948 0.30826 0.38402 0.0
C162 C 0.31121 0.36536 0.34375 0.0
C163 C 0.29795 0.38978 0.35245 0.0
C164 C 0.3348 0.36914 0.38809 0.0
H165 H 0.34912 0.36165 0.4021 0.0
C166 C 0.32181 0.39339 0.39671 0.0
H167 H 0.30709 0.35451 0.32327 0.0
C168 C 0.30358 0.40372 0.37904 0.0
H169 H 0.29349 0.42242 0.38627 0.0
H170 H 0.32589 0.40421 0.41717 0.0
H171 H 0.56529 0.96413 0.55345 0.0
C172 C 0.54724 0.97588 0.54988 0.0
C173 C 0.53083 0.98603 0.57091 0.0
C174 C 0.54097 0.98134 0.5244 0.0
H175 H 0.49533 0.00981 0.58248 0.0
C176 C 0.50758 1.00149 0.56613 0.0
C177 C 0.50117 0.00732 0.54057 0.0
C178 C 0.5179 0.99678 0.51986 0.0
C179 C 0.55932 0.97217 0.50258 0.0
H180 H 0.51287 1.0003 0.49988 0.0
C181 C 0.56288 0.94335 0.4951 0.0
C182 C 0.57924 0.9347 0.47341 0.0
C183 C 0.57275 0.99244 0.48868 0.0
H184 H 0.57034 0.01475 0.49422 0.0
C185 C 0.58942 0.98414 0.46757 0.0
H186 H 0.55246 0.92772 0.50584 0.0
C187 C 0.59253 0.95552 0.45984 0.0
H188 H 0.60471 0.94965 0.44273 0.0
H189 H 0.5996 0.99988 0.45687 0.0
H190 H 0.30472 0.2742 0.73958 0.0
C191 C 0.31037 0.26635 0.7197 0.0
C192 C 0.32706 0.28479 0.70565 0.0
C193 C 0.30165 0.23741 0.70873 0.0
H194 H 0.34663 0.28743 0.66853 0.0
C195 C 0.33364 0.27385 0.67966 0.0
C196 C 0.32392 0.24522 0.66793 0.0
C197 C 0.30824 0.22716 0.68275 0.0
C198 C 0.28743 0.21746 0.72502 0.0
H199 H 0.30152 0.20485 0.67419 0.0
C200 C 0.26416 0.22464 0.74051 0.0
C201 C 0.25173 0.20634 0.75707 0.0
C202 C 0.2979 0.19143 0.72582 0.0
H203 H 0.31599 0.18544 0.71436 0.0
C204 C 0.28572 0.17318 0.742 0.0
H205 H 0.25551 0.24431 0.73926 0.0
C206 C 0.26298 0.18058 0.75764 0.0
H207 H 0.25461 0.16627 0.77049 0.0
H208 H 0.29424 0.15334 0.7427 0.0
H209 H 0.84729 0.25143 0.75778 0.0
C210 C 0.82954 0.23415 0.75782 0.0
C211 C 0.83473 0.2108 0.76975 0.0
C212 C 0.80116 0.23605 0.7471 0.0
H213 H 0.81481 0.17159 0.78028 0.0
C214 C 0.81101 0.18933 0.77072 0.0
C215 C 0.78241 0.19086 0.75988 0.0
C216 C 0.77782 0.21435 0.74798 0.0
C217 C 0.79501 0.26231 0.73792 0.0
H218 H 0.75599 0.21609 0.73965 0.0
C219 C 0.79712 0.26543 0.71127 0.0
C220 C 0.79049 0.29054 0.70287 0.0
C221 C 0.78631 0.28428 0.75616 0.0
H222 H 0.78451 0.28215 0.77672 0.0
C223 C 0.77983 0.30914 0.74804 0.0
H224 H 0.80354 0.24825 0.69717 0.0
C225 C 0.78191 0.31232 0.72165 0.0
H226 H 0.77725 0.33209 0.71607 0.0
H227 H 0.77327 0.32608 0.76229 0.0
H228 H 0.6121 0.52688 0.5348 0.0
C229 C 0.59697 0.52093 0.54907 0.0
C230 C 0.59859 0.49558 0.5591 0.0
C231 C 0.57758 0.5398 0.55906 0.0
H232 H 0.58121 0.46983 0.58678 0.0
C233 C 0.57979 0.48907 0.57878 0.0
C234 C 0.55984 0.50749 0.58874 0.0
C235 C 0.55894 0.53272 0.57854 0.0
C236 C 0.5797 0.56897 0.55271 0.0
H237 H 0.54396 0.54732 0.58603 0.0
C238 C 0.57292 0.57414 0.52685 0.0
C239 C 0.57293 0.60244 0.52259 0.0
C240 C 0.58755 0.59223 0.57368 0.0
H241 H 0.59301 0.5888 0.59361 0.0
C242 C 0.5883 0.62006 0.56931 0.0
H243 H 0.56656 0.5564 0.51055 0.0
C244 C 0.58085 0.62516 0.54405 0.0
H245 H 0.58126 0.64701 0.54122 0.0
H246 H 0.59437 0.63777 0.58566 0.0
H247 H 0.64226 0.48274 0.97961 0.0
C248 C 0.62345 0.48541 0.96691 0.0
C249 C 0.62564 0.50812 0.953 0.0
C250 C 0.59793 0.46515 0.96343 0.0
H251 H 0.60368 0.52826 0.92468 0.0
C252 C 0.60183 0.51075 0.93552 0.0
C253 C 0.57563 0.4911 0.9323 0.0
C254 C 0.57386 0.46835 0.94654 0.0
C255 C 0.59854 0.43888 0.97475 0.0
H256 H 0.55441 0.45233 0.94344 0.0
C257 C 0.57887 0.4314 0.99344 0.0
C258 C 0.58174 0.40732 0.00523 0.0
C259 C 0.62033 0.42169 0.96738 0.0
H260 H 0.63558 0.42702 0.95299 0.0
C261 C 0.6227 0.39754 0.97844 0.0
H262 H 0.56225 0.44478 0.99944 0.0
C263 C 0.60368 0.39043 0.99727 0.0
H264 H 0.606 0.37149 0.00551 0.0
H265 H 0.63948 0.38437 0.97251 0.0
H266 H 0.78622 0.18068 0.25542 0.0
C267 C 0.78175 0.19228 0.27441 0.0
C268 C 0.79566 0.18725 0.2981 0.0
C269 C 0.76223 0.21262 0.27469 0.0
H270 H 0.8002 0.20091 0.34093 0.0
C271 C 0.78993 0.20398 0.32237 0.0
C272 C 0.77146 0.22539 0.32297 0.0
C273 C 0.75716 0.22887 0.29901 0.0
C274 C 0.74853 0.21815 0.24937 0.0
H275 H 0.74262 0.24493 0.29917 0.0
C276 C 0.71857 0.22227 0.24679 0.0
C277 C 0.70613 0.22839 0.22298 0.0
C278 C 0.76577 0.2201 0.22774 0.0
H279 H 0.78893 0.21758 0.2292 0.0
C280 C 0.75352 0.22594 0.20413 0.0
H281 H 0.70502 0.22086 0.2633 0.0
C282 C 0.72399 0.23007 0.20171 0.0
H283 H 0.71501 0.23429 0.18302 0.0
H284 H 0.76702 0.22737 0.18762 0.0
H285 H 0.47626 0.12286 0.98348 0.0
C286 C 0.46457 0.10209 0.9848 0.0
C287 C 0.45483 0.09701 0.00917 0.0
C288 C 0.45852 0.08099 0.96192 0.0
H289 H 0.43073 0.06677 0.02943 0.0
C290 C 0.43857 0.0706 0.01063 0.0
C291 C 0.43312 0.04887 0.98804 0.0
C292 C 0.44346 0.05411 0.96373 0.0
C293 C 0.46592 0.08834 0.93601 0.0
H294 H 0.43868 0.03774 0.94606 0.0
C295 C 0.48561 0.07403 0.92043 0.0
C296 C 0.49429 0.08318 0.89697 0.0
C297 C 0.45426 0.11119 0.92757 0.0
H298 H 0.43903 0.12245 0.93929 0.0
C299 C 0.46219 0.1198 0.90405 0.0
H300 H 0.49504 0.0567 0.9271 0.0
C301 C 0.48219 0.10604 0.8889 0.0
H302 H 0.48811 0.11319 0.87074 0.0
H303 H 0.45303 0.13737 0.89766 0.0
Zn304 Zn 0.32312 0.85237 0.01686 0.0
Zn305 Zn 0.27051 0.86772 0.00979 0.0
O306 O 0.27096 0.85145 0.04529 0.0
O307 O 0.31603 0.84171 0.05227 0.0
O308 O 0.23115 0.88431 0.00903 0.0
O309 O 0.34463 0.89049 0.01376 0.0
O310 O 0.30085 0.90412 0.00938 0.0
C311 C 0.29023 0.8426 0.05966 0.0
C312 C 0.28975 0.82019 0.96887 0.0
O313 O 0.27 0.83617 0.97525 0.0
O314 O 0.31325 0.82296 0.9839 0.0
C315 C 0.22364 0.89774 0.03078 0.0
O316 O 0.2407 0.89939 0.05262 0.0
C317 C 0.32901 0.90964 0.01059 0.0
Zn318 Zn 0.10287 0.43935 0.2561 0.0
Zn319 Zn 0.14084 0.48922 0.26364 0.0
O320 O 0.11163 0.49917 0.29159 0.0
O321 O 0.08234 0.45815 0.28737 0.0
O322 O 0.17176 0.52373 0.26604 0.0
O323 O 0.13757 0.41806 0.26362 0.0
O324 O 0.16612 0.45951 0.2723 0.0
C325 C 0.08969 0.4839 0.29882 0.0
C326 C 0.10292 0.46696 0.21051 0.0
O327 O 0.12293 0.48435 0.22537 0.0
O328 O 0.09012 0.44554 0.21881 0.0
C329 C 0.16728 0.54958 0.27024 0.0
O330 O 0.14059 0.5555 0.27466 0.0
C331 C 0.16265 0.43265 0.27128 0.0
Zn332 Zn 0.84814 0.59666 0.9288 0.0
Zn333 Zn 0.83865 0.63221 0.97299 0.0
O334 O 0.87287 0.61183 0.98528 0.0
O335 O 0.88192 0.58395 0.94869 0.0
O336 O 0.83242 0.65964 0.00633 0.0
O337 O 0.85595 0.6296 0.90961 0.0
O338 O 0.84874 0.65901 0.94584 0.0
C339 C 0.88763 0.59357 0.97327 0.0
C340 C 0.78882 0.58574 0.94468 0.0
O341 O 0.79819 0.60643 0.96365 0.0
O342 O 0.80601 0.57725 0.92745 0.0
C343 C 0.83469 0.65239 0.02899 0.0
O344 O 0.84055 0.62666 0.03043 0.0
C345 C 0.85471 0.65469 0.92156 0.0
Zn346 Zn 0.89047 1.00307 0.30056 0.0
Zn347 Zn 0.92406 0.00606 0.26046 0.0
O348 O 0.90071 0.04153 0.26196 0.0
O349 O 0.87797 0.04119 0.29874 0.0
O350 O 0.95256 0.00802 0.23093 0.0
O351 O 0.92478 1.00051 0.32569 0.0
O352 O 0.9534 0.00629 0.29345 0.0
C353 C 0.88441 0.05285 0.27913 0.0
C354 C 0.87544 0.95464 0.25831 0.0
O355 O 0.89772 0.96665 0.24849 0.0
O356 O 0.86683 0.96675 0.27988 0.0
C357 C 0.94541 0.00502 0.2061 0.0
O358 O 0.91729 1.00135 0.19773 0.0
C359 C 0.95034 1.00309 0.31743 0.0
Zn360 Zn 0.34079 0.0834 0.42986 0.0
Zn361 Zn 0.32881 0.11748 0.47339 0.0
O362 O 0.36541 0.10054 0.48612 0.0
O363 O 0.3784 0.07687 0.44885 0.0
O364 O 0.31928 0.14235 0.50689 0.0
O365 O 0.34166 0.11599 0.40974 0.0
O366 O 0.33614 0.14519 0.44662 0.0
C367 C 0.38303 0.08566 0.47364 0.0
C368 C 0.28424 0.06505 0.4474 0.0
O369 O 0.29077 0.08821 0.46419 0.0
O370 O 0.30255 0.05729 0.43098 0.0
C371 C 0.33844 0.16073 0.52168 0.0
O372 O 0.36563 0.16462 0.51465 0.0
C373 C 0.34009 0.14095 0.42187 0.0
Zn374 Zn 0.39459 0.49776 0.79963 0.0
Zn375 Zn 0.42797 0.50837 0.76057 0.0
O376 O 0.40212 0.54185 0.76584 0.0
O377 O 0.37354 0.53148 0.79696 0.0
O378 O 0.45394 0.51642 0.73033 0.0
O379 O 0.43042 0.50185 0.82505 0.0
O380 O 0.45866 0.50854 0.79269 0.0
C381 C 0.38146 0.54767 0.78085 0.0
C382 C 0.38643 0.45096 0.75621 0.0
O383 O 0.40423 0.46797 0.74597 0.0
O384 O 0.37882 0.45858 0.7794 0.0
C385 C 0.46193 0.49677 0.71331 0.0
O386 O 0.45341 0.47003 0.715 0.0
C387 C 0.45593 0.50576 0.81685 0.0
Zn388 Zn 0.82045 0.34288 0.5139 0.0
Zn389 Zn 0.76947 0.36578 0.51351 0.0
O390 O 0.77184 0.34844 0.54808 0.0
O391 O 0.81478 0.3327 0.54995 0.0
O392 O 0.73237 0.38593 0.5174 0.0
O393 O 0.84365 0.38066 0.51017 0.0
O394 O 0.80233 0.39947 0.51241 0.0
C395 C 0.7908 0.33681 0.56011 0.0
C396 C 0.77866 0.31608 0.46926 0.0
O397 O 0.763 0.33525 0.47821 0.0
O398 O 0.80307 0.31452 0.48141 0.0
C399 C 0.73084 0.40091 0.54024 0.0
O400 O 0.75238 0.40215 0.55863 0.0
C401 C 0.83022 0.40212 0.51065 0.0
Zn402 Zn 0.60242 0.9432 0.75856 0.0
Zn403 Zn 0.63981 0.99345 0.76453 0.0
O404 O 0.61009 0.00411 0.79172 0.0
O405 O 0.58124 0.96303 0.78885 0.0
O406 O 0.67048 0.02802 0.76651 0.0
O407 O 0.63739 0.92285 0.76742 0.0
O408 O 0.66531 0.96463 0.77463 0.0
C409 C 0.5882 0.98913 0.79932 0.0
C410 C 0.60286 0.96864 0.71155 0.0
O411 O 0.62252 0.98684 0.72599 0.0
O412 O 0.59023 0.94771 0.72066 0.0
C413 C 0.66552 0.05344 0.76676 0.0
O414 O 0.63819 0.05902 0.76688 0.0
C415 C 0.66227 0.93798 0.7747 0.0
Zn416 Zn 0.06145 0.26312 0.83644 0.0
Zn417 Zn 0.05161 0.22326 0.86556 0.0
O418 O 0.08971 0.21428 0.84622 0.0
O419 O 0.09812 0.24965 0.82419 0.0
O420 O 0.04605 0.19517 0.89133 0.0
O421 O 0.06521 0.29471 0.86758 0.0
O422 O 0.05642 0.26184 0.89234 0.0
C423 C 0.10554 0.22746 0.83112 0.0
C424 C 0.00488 0.22877 0.82174 0.0
O425 O 0.01229 0.21664 0.84093 0.0
O426 O 0.02252 0.24868 0.81556 0.0
C427 C 0.058 0.17277 0.89201 0.0
O428 O 0.07507 0.1644 0.87332 0.0
C429 C 0.0619 0.28797 0.89007 0.0
Zn430 Zn 0.54758 0.75491 0.33653 0.0
Zn431 Zn 0.54586 0.71539 0.36646 0.0
O432 O 0.58373 0.71143 0.34531 0.0
O433 O 0.5844 0.74511 0.32111 0.0
O434 O 0.54637 0.68537 0.39042 0.0
O435 O 0.55123 0.78573 0.36858 0.0
O436 O 0.54954 0.75309 0.39406 0.0
C437 C 0.5961 0.72516 0.32863 0.0
C438 C 0.49324 0.71732 0.32598 0.0
O439 O 0.50444 0.70623 0.34447 0.0
O440 O 0.50796 0.73809 0.31825 0.0
C441 C 0.52753 0.68451 0.4077 0.0
O442 O 0.5075 0.7018 0.40832 0.0
C443 C 0.55156 0.77912 0.39139 0.0
Zn444 Zn 0.96485 0.79805 0.63177 0.0
Zn445 Zn 0.01455 0.78327 0.64967 0.0
O446 O 0.02774 0.81487 0.62755 0.0
O447 O 0.98627 0.83024 0.61689 0.0
O448 O 0.05299 0.77595 0.66743 0.0
O449 O 0.94889 0.80464 0.66753 0.0
O450 O 0.99062 0.7931 0.6827 0.0
C451 C 0.01401 0.83167 0.61628 0.0
C452 C 0.97336 0.74011 0.60914 0.0
O453 O 0.99689 0.74548 0.62479 0.0
O454 O 0.9566 0.75901 0.60849 0.0
C455 C 0.06987 0.75876 0.65721 0.0
O456 O 0.06279 0.74436 0.63301 0.0
C457 C 0.96531 0.80067 0.6868 0.0
Zn458 Zn 0.45022 0.29901 0.12723 0.0
Zn459 Zn 0.49973 0.28764 0.15164 0.0
O460 O 0.51275 0.31872 0.12964 0.0
O461 O 0.473 0.32767 0.10839 0.0
O462 O 0.53959 0.28263 0.16829 0.0
O463 O 0.43521 0.31066 0.16312 0.0
O464 O 0.47384 0.29786 0.18305 0.0
C465 C 0.50078 0.33205 0.11341 0.0
C466 C 0.46057 0.24023 0.11293 0.0
O467 O 0.48433 0.24881 0.12797 0.0
O468 O 0.44228 0.25726 0.1099 0.0
C469 C 0.54569 0.26339 0.18106 0.0
O470 O 0.52433 0.24409 0.18538 0.0
C471 C 0.44885 0.30694 0.18415 0.0
H472 H 0.30717 0.72999 0.86849 0.0
H473 H 0.22631 0.75462 0.83845 0.0
H474 H 0.22463 0.78726 0.88044 0.0
H475 H 0.2472 0.80988 0.92597 0.0
H476 H 0.32678 0.7817 0.95492 0.0
H477 H 0.32706 0.74903 0.9136 0.0
C478 C 0.28865 0.74184 0.87112 0.0
C479 C 0.26689 0.73951 0.85006 0.0
C480 C 0.28751 0.76016 0.8954 0.0
C481 C 0.2437 0.75605 0.85402 0.0
C482 C 0.24259 0.77467 0.87818 0.0
C483 C 0.26439 0.7964 0.92329 0.0
C484 C 0.28705 0.79872 0.94373 0.0
C485 C 0.26455 0.77711 0.89906 0.0
C486 C 0.30911 0.78087 0.93973 0.0
C487 C 0.3094 0.76201 0.91596 0.0
H488 H 0.99815 0.51779 0.38235 0.0
H489 H 0.04181 0.60191 0.37882 0.0
H490 H 0.07616 0.58146 0.34879 0.0
H491 H 0.09192 0.53983 0.32144 0.0
H492 H 0.0471 0.45566 0.32369 0.0
H493 H 0.01536 0.47589 0.35634 0.0
C494 C 0.01547 0.53155 0.37527 0.0
C495 C 0.01738 0.56127 0.38265 0.0
C496 C 0.03484 0.51965 0.35762 0.0
C497 C 0.03973 0.57894 0.37316 0.0
C498 C 0.05939 0.56727 0.35602 0.0
C499 C 0.0754 0.52588 0.32923 0.0
C500 C 0.07187 0.49628 0.31997 0.0
C501 C 0.05685 0.53767 0.34775 0.0
C502 C 0.05023 0.47855 0.33029 0.0
C503 C 0.03203 0.49009 0.34901 0.0
H504 H 0.86262 0.73932 0.84013 0.0
H505 H 0.8739 0.8016 0.91269 0.0
H506 H 0.8709 0.76352 0.93871 0.0
H507 H 0.86359 0.71221 0.94091 0.0
H508 H 0.85484 0.65051 0.86801 0.0
H509 H 0.85895 0.68866 0.84231 0.0
C510 C 0.86502 0.74469 0.86163 0.0
C511 C 0.86822 0.7734 0.8743 0.0
C512 C 0.86367 0.7227 0.87653 0.0
C513 C 0.87081 0.77972 0.90228 0.0
C514 C 0.86926 0.75793 0.91724 0.0
C515 C 0.8627 0.70714 0.91941 0.0
C516 C 0.85875 0.67846 0.9065 0.0
C517 C 0.86533 0.72929 0.90458 0.0
C518 C 0.85789 0.67233 0.87859 0.0
C519 C 0.86018 0.69416 0.86378 0.0
H520 H 0.07073 0.99298 0.38027 0.0
H521 H 0.01001 0.97073 0.4372 0.0
H522 H 0.96858 0.97844 0.40847 0.0
H523 H 0.94944 0.99007 0.36685 0.0
H524 H 0.00942 0.01107 0.30888 0.0
H525 H 0.05133 0.00555 0.33846 0.0
C526 C 0.04845 0.99016 0.38649 0.0
C527 C 0.04346 0.9813 0.41088 0.0
C528 C 0.02462 0.99433 0.36968 0.0
C529 C 0.01441 0.97731 0.41847 0.0
C530 C 0.99073 0.98179 0.40208 0.0
C531 C 0.97166 0.99363 0.36064 0.0
C532 C 0.97618 1.00101 0.33559 0.0
C533 C 0.99555 0.99006 0.37756 0.0
C534 C 0.00522 0.00537 0.32799 0.0
C535 C 0.02921 1.00219 0.34491 0.0
H536 H 0.28698 0.21068 0.62879 0.0
H537 H 0.37655 0.25371 0.64554 0.0
H538 H 0.38859 0.23251 0.60132 0.0
H539 H 0.37428 0.19989 0.55868 0.0
H540 H 0.28477 0.15629 0.54249 0.0
H541 H 0.27223 0.17943 0.58572 0.0
C542 C 0.30917 0.21536 0.62278 0.0
C543 C 0.33085 0.23365 0.64051 0.0
C544 C 0.316 0.20289 0.59745 0.0
C545 C 0.35935 0.23991 0.63223 0.0
C546 C 0.36631 0.22764 0.607 0.0
C547 C 0.35198 0.19555 0.56453 0.0
C548 C 0.33057 0.17622 0.54734 0.0
C549 C 0.34489 0.20885 0.58954 0.0
C550 C 0.30175 0.17097 0.55528 0.0
C551 C 0.29454 0.18418 0.58005 0.0
H552 H 0.5449 0.5446 0.6313 0.0
H553 H 0.53144 0.45547 0.59513 0.0
H554 H 0.50077 0.44444 0.63042 0.0
H555 H 0.47727 0.45992 0.67135 0.0
H556 H 0.48901 0.54919 0.70669 0.0
H557 H 0.52028 0.56028 0.67165 0.0
C558 C 0.53498 0.52277 0.63084 0.0
C559 C 0.54069 0.50093 0.61036 0.0
C560 C 0.51691 0.51656 0.65108 0.0
C561 C 0.52797 0.47274 0.61069 0.0
C562 C 0.51019 0.4664 0.63082 0.0
C563 C 0.48664 0.48184 0.67146 0.0
C564 C 0.48073 0.50367 0.69179 0.0
C565 C 0.50451 0.48811 0.65113 0.0
C566 C 0.49306 0.53193 0.69138 0.0
C567 C 0.51102 0.5383 0.67132 0.0
H568 H 0.75335 0.31422 0.67236 0.0
H569 H 0.83377 0.27632 0.67042 0.0
H570 H 0.84021 0.28629 0.62583 0.0
H571 H 0.82448 0.30792 0.58838 0.0
H572 H 0.74465 0.34684 0.59059 0.0
H573 H 0.73677 0.33462 0.63423 0.0
C574 C 0.77236 0.30822 0.66223 0.0
C575 C 0.79314 0.29467 0.67489 0.0
C576 C 0.77616 0.31439 0.63671 0.0
C577 C 0.81728 0.28651 0.66116 0.0
C578 C 0.82111 0.29242 0.63571 0.0
C579 C 0.80528 0.31371 0.59833 0.0
C580 C 0.78528 0.32845 0.58618 0.0
C581 C 0.80091 0.30667 0.62345 0.0
C582 C 0.76044 0.33555 0.5994 0.0
C583 C 0.75593 0.32858 0.6244 0.0
H584 H 0.58482 0.9992 0.59752 0.0
H585 H 0.49532 0.96236 0.60473 0.0
H586 H 0.50998 0.95227 0.64853 0.0
H587 H 0.54859 0.95381 0.68463 0.0
H588 H 0.63731 0.99363 0.67819 0.0
H589 H 0.62278 1.00241 0.63408 0.0
C590 C 0.56858 0.98894 0.60873 0.0
C591 C 0.53912 0.98134 0.59798 0.0
C592 C 0.5771 0.98359 0.63389 0.0
C593 C 0.51811 0.96846 0.61275 0.0
C594 C 0.52653 0.96258 0.63767 0.0
C595 C 0.56475 0.96419 0.67343 0.0
C596 C 0.59405 0.9728 0.68448 0.0
C597 C 0.55601 0.96993 0.64839 0.0
C598 C 0.61465 0.98675 0.67004 0.0
C599 C 0.60636 0.9918 0.64486 0.0
H600 H 0.88764 0.22203 0.74943 0.0
H601 H 0.84897 0.19643 0.81787 0.0
H602 H 0.8982 0.19646 0.83902 0.0
H603 H 0.95266 0.20736 0.83945 0.0
H604 H 0.99052 0.2346 0.77126 0.0
H605 H 0.94145 0.23015 0.74872 0.0
C606 C 0.88999 0.21648 0.76899 0.0
C607 C 0.86464 0.20943 0.78207 0.0
C608 C 0.91834 0.21681 0.78114 0.0
C609 C 0.86809 0.20178 0.80723 0.0
C610 C 0.89626 0.20191 0.81942 0.0
C611 C 0.95013 0.21177 0.81947 0.0
C612 C 0.97523 0.22141 0.80713 0.0
C613 C 0.92162 0.20977 0.80672 0.0
C614 C 0.97157 0.22732 0.78131 0.0
C615 C 0.94349 0.22487 0.76839 0.0
H616 H 0.53576 0.88906 0.46988 0.0
H617 H 0.62693 0.9112 0.45466 0.0
H618 H 0.62743 0.86301 0.43055 0.0
H619 H 0.59992 0.8169 0.40849 0.0
H620 H 0.50941 0.79396 0.42419 0.0
H621 H 0.51086 0.8399 0.45413 0.0
C622 C 0.55602 0.88318 0.46199 0.0
C623 C 0.58105 0.90403 0.46354 0.0
C624 C 0.55622 0.85529 0.44818 0.0
C625 C 0.60705 0.89588 0.45308 0.0
C626 C 0.60743 0.86827 0.43939 0.0
C627 C 0.58089 0.8217 0.41922 0.0
C628 C 0.55467 0.80233 0.41445 0.0
C629 C 0.58185 0.84816 0.43599 0.0
C630 C 0.52991 0.8086 0.42799 0.0
C631 C 0.53068 0.83493 0.44484 0.0
H632 H 0.20498 0.17103 0.77076 0.0
H633 H 0.24373 0.25962 0.78198 0.0
H634 H 0.20276 0.27331 0.807 0.0
H635 H 0.15495 0.26072 0.82385 0.0
H636 H 0.11694 0.17255 0.81563 0.0
H637 H 0.15942 0.15797 0.79221 0.0
C638 C 0.20488 0.19331 0.77905 0.0
C639 C 0.22737 0.21426 0.77385 0.0
C640 C 0.18152 0.20109 0.79416 0.0
C641 C 0.22641 0.24302 0.78473 0.0
C642 C 0.20311 0.25091 0.79937 0.0
C643 C 0.15613 0.23825 0.81719 0.0
C644 C 0.1328 0.21771 0.82117 0.0
C645 C 0.18039 0.23019 0.80384 0.0
C646 C 0.13472 0.1887 0.81283 0.0
C647 C 0.15886 0.18044 0.79927 0.0
H648 H 0.52768 0.63001 0.51117 0.0
H649 H 0.59929 0.59169 0.4759 0.0
H650 H 0.59068 0.61236 0.436 0.0
H651 H 0.5657 0.64561 0.41326 0.0
H652 H 0.49389 0.6833 0.44961 0.0
H653 H 0.49959 0.65863 0.48674 0.0
C654 C 0.54097 0.62571 0.49446 0.0
C655 C 0.56405 0.60938 0.49639 0.0
C656 C 0.5361 0.63794 0.4719 0.0
C657 C 0.5812 0.60397 0.47472 0.0
C658 C 0.57645 0.61604 0.45205 0.0
C659 C 0.5511 0.64817 0.42916 0.0
C660 C 0.52961 0.66668 0.42865 0.0
C661 C 0.55445 0.63375 0.45071 0.0
C662 C 0.51076 0.66947 0.4494 0.0
C663 C 0.51398 0.65534 0.47075 0.0
H664 H 0.93257 0.80329 0.80564 0.0
H665 H 0.85182 0.82517 0.77229 0.0
H666 H 0.87212 0.82324 0.72921 0.0
H667 H 0.91224 0.81495 0.70085 0.0
H668 H 0.99315 0.79243 0.73322 0.0
H669 H 0.97333 0.795 0.77679 0.0
C670 C 0.91938 0.80743 0.78887 0.0
C671 C 0.89074 0.81447 0.79224 0.0
C672 C 0.93122 0.80627 0.764 0.0
C673 C 0.87405 0.82007 0.77037 0.0
C674 C 0.88559 0.81887 0.74567 0.0
C675 C 0.92569 0.81069 0.7174 0.0
C676 C 0.9542 0.80351 0.71367 0.0
C677 C 0.91413 0.81203 0.74227 0.0
C678 C 0.97117 0.79806 0.73546 0.0
C679 C 0.95981 0.79945 0.76039 0.0
H680 H 0.04489 0.90116 0.52615 0.0
H681 H 0.11538 0.84969 0.52012 0.0
H682 H 0.10221 0.83237 0.56057 0.0
H683 H 0.06642 0.82684 0.59407 0.0
H684 H 0.99483 0.87711 0.59897 0.0
H685 H 0.01304 0.90029 0.56317 0.0
C686 C 0.05784 0.88675 0.53408 0.0
C687 C 0.08082 0.87645 0.51991 0.0
C688 C 0.04978 0.87642 0.55713 0.0
C689 C 0.09726 0.85759 0.5304 0.0
C690 C 0.08975 0.84767 0.55356 0.0
C691 C 0.05526 0.8434 0.58779 0.0
C692 C 0.02911 0.84996 0.59906 0.0
C693 C 0.06539 0.85616 0.56659 0.0
C694 C 0.01486 0.87141 0.59051 0.0
C695 C 0.02519 0.88464 0.56992 0.0
H696 H 0.18337 0.75995 0.73459 0.0
H697 H 0.20602 0.70453 0.66564 0.0
H698 H 0.15878 0.70692 0.64213 0.0
H699 H 0.11213 0.72653 0.64024 0.0
H700 H 0.08962 0.78327 0.70851 0.0
H701 H 0.13547 0.77861 0.73309 0.0
C702 C 0.17769 0.74814 0.71456 0.0
C703 C 0.19813 0.73214 0.70183 0.0
C704 C 0.15061 0.75005 0.70091 0.0
C705 C 0.19068 0.71713 0.67577 0.0
C706 C 0.1637 0.71851 0.6623 0.0
C707 C 0.11714 0.73782 0.66053 0.0
C708 C 0.09741 0.75532 0.67239 0.0
C709 C 0.14368 0.73524 0.67451 0.0
C710 C 0.10439 0.76973 0.69876 0.0
C711 C 0.13064 0.76706 0.71289 0.0
H712 H 0.93287 0.63727 0.51472 0.0
H713 H 0.99153 0.59629 0.55908 0.0
H714 H 1.00153 0.63926 0.59382 0.0
H715 H 0.9953 0.68971 0.61013 0.0
H716 H 0.93472 0.72894 0.56541 0.0
H717 H 0.92377 0.68556 0.53237 0.0
C718 C 0.94762 0.63775 0.53216 0.0
C719 C 0.9616 0.61395 0.53443 0.0
C720 C 0.95306 0.66229 0.55188 0.0
C721 C 0.9805 0.6145 0.55709 0.0
C722 C 0.98631 0.63907 0.57681 0.0
C723 C 0.97961 0.68865 0.59322 0.0
C724 C 0.96603 0.71268 0.59025 0.0
C725 C 0.97303 0.66331 0.57422 0.0
C726 C 0.94553 0.71086 0.56831 0.0
C727 C 0.93924 0.68603 0.54929 0.0
H728 H 0.80069 0.8323 0.22804 0.0
H729 H 0.87827 0.81495 0.18763 0.0
H730 H 0.89896 0.86531 0.1989 0.0
H731 H 0.89697 0.91383 0.22356 0.0
H732 H 0.82038 0.93012 0.26594 0.0
H733 H 0.7976 0.88087 0.25071 0.0
C734 C 0.82214 0.83949 0.2217 0.0
C735 C 0.83787 0.81968 0.2071 0.0
C736 C 0.83425 0.86842 0.22875 0.0
C737 C 0.86542 0.82963 0.19863 0.0
C738 C 0.87743 0.85847 0.20526 0.0
C739 C 0.87511 0.9067 0.2291 0.0
C740 C 0.86052 0.92568 0.24599 0.0
C741 C 0.86229 0.87801 0.22072 0.0
C742 C 0.83225 0.91598 0.25312 0.0
C743 C 0.81917 0.88775 0.24445 0.0
H744 H 0.79779 0.13917 0.25961 0.0
H745 H 0.84226 0.18494 0.33448 0.0
H746 H 0.87369 0.14826 0.33468 0.0
H747 H 0.88781 0.10196 0.31464 0.0
H748 H 0.84874 0.06001 0.23722 0.0
H749 H 0.81721 0.0974 0.23639 0.0
C750 C 0.81474 0.14199 0.27578 0.0
C751 C 0.81655 0.16519 0.29732 0.0
C752 C 0.83427 0.12152 0.27515 0.0
C753 C 0.8388 0.16716 0.31806 0.0
C754 C 0.8574 0.14627 0.31805 0.0
C755 C 0.87289 0.10146 0.29731 0.0
C756 C 0.87069 0.0784 0.27593 0.0
C757 C 0.85515 0.12322 0.29686 0.0
C758 C 0.85116 0.07779 0.25369 0.0
C759 C 0.83289 0.099 0.25339 0.0
H760 H 0.37882 0.03776 0.00609 0.0
H761 H 0.45079 0.99708 0.97402 0.0
H762 H 0.42497 0.95048 0.97846 0.0
H763 H 0.38245 0.92151 0.99208 0.0
H764 H 0.30875 0.96125 0.02161 0.0
H765 H 0.33462 0.00809 0.01751 0.0
C766 C 0.38874 0.01861 1.0001 0.0
C767 C 0.4167 0.02072 0.9899 0.0
C768 C 0.3735 0.99185 1.00228 0.0
C769 C 0.42926 0.99586 0.98185 0.0
C770 C 0.41455 0.96928 0.98446 0.0
C771 C 0.37204 0.94043 0.99768 0.0
C772 C 0.34387 0.93798 0.00742 0.0
C773 C 0.38676 0.96706 0.99477 0.0
C774 C 0.33045 0.9626 0.01411 0.0
C775 C 0.34526 0.98936 0.01182 0.0
H776 H 0.24976 0.36055 0.32121 0.0
H777 H 0.30089 0.44406 0.34357 0.0
H778 H 0.26474 0.46419 0.3183 0.0
H779 H 0.21681 0.45887 0.29318 0.0
H780 H 0.16397 0.37592 0.27227 0.0
H781 H 0.20267 0.35472 0.29332 0.0
C782 C 0.25316 0.38304 0.3201 0.0
C783 C 0.27784 0.40085 0.33429 0.0
C784 C 0.23188 0.3946 0.30598 0.0
C785 C 0.28191 0.43001 0.33296 0.0
C786 C 0.26126 0.44151 0.31854 0.0
C787 C 0.2138 0.43608 0.29291 0.0
C788 C 0.18734 0.41909 0.28128 0.0
C789 C 0.23584 0.42414 0.30549 0.0
C790 C 0.18401 0.38958 0.28116 0.0
C791 C 0.20613 0.37743 0.29325 0.0
H792 H 0.17145 0.97159 0.43481 0.0
H793 H 0.13123 0.04453 0.4677 0.0
H794 H 0.17917 0.07509 0.47161 0.0
H795 H 0.23251 0.08102 0.4647 0.0
H796 H 0.27138 0.00809 0.42895 0.0
H797 H 0.22413 0.97756 0.42724 0.0
C798 C 0.17331 0.99414 0.44306 0.0
C799 C 0.14804 0.00583 0.4512 0.0
C800 C 0.20069 0.01156 0.44465 0.0
C801 C 0.15049 0.03514 0.46135 0.0
C802 C 0.17786 0.05256 0.4636 0.0
C803 C 0.23062 0.05842 0.45668 0.0
C804 C 0.25545 0.04684 0.44703 0.0
C805 C 0.20312 0.04102 0.45519 0.0
C806 C 0.25259 0.01757 0.43641 0.0
C807 C 0.22559 1.00006 0.43546 0.0
H808 H 0.78275 0.13344 0.75434 0.0
H809 H 0.72529 0.19773 0.76997 0.0
H810 H 0.68412 0.16108 0.77306 0.0
H811 H 0.66439 0.11071 0.77182 0.0
H812 H 0.72275 0.04696 0.75844 0.0
H813 H 0.76362 0.08356 0.75465 0.0
C814 C 0.76134 0.13956 0.75875 0.0
C815 C 0.75726 0.1684 0.76177 0.0
C816 C 0.73785 0.11844 0.76107 0.0
C817 C 0.72909 0.1757 0.76701 0.0
C818 C 0.70552 0.15476 0.76903 0.0
C819 C 0.68606 0.10483 0.76813 0.0
C820 C 0.6904 0.07608 0.76539 0.0
C821 C 0.70964 0.12605 0.76611 0.0
C822 C 0.7187 0.06889 0.7607 0.0
C823 C 0.74213 0.08982 0.75846 0.0
H824 H 0.50229 0.04677 0.50837 0.0
H825 H 0.44636 0.00667 0.56032 0.0
H826 H 0.40572 0.0309 0.54695 0.0
H827 H 0.3844 0.05933 0.51652 0.0
H828 H 0.43942 0.09404 0.46105 0.0
H829 H 0.48196 0.07589 0.47947 0.0
C830 C 0.48118 0.0431 0.51671 0.0
C831 C 0.47734 0.02443 0.53499 0.0
C832 C 0.45764 0.05611 0.50813 0.0
C833 C 0.45007 0.0209 0.54625 0.0
C834 C 0.42671 0.0346 0.53844 0.0
C835 C 0.4059 0.06331 0.50893 0.0
C836 C 0.40901 0.07811 0.48764 0.0
C837 C 0.43 0.05169 0.51888 0.0
C838 C 0.4367 0.08276 0.4775 0.0
C839 C 0.46094 0.07232 0.48796 0.0
H840 H 0.63483 0.4723 0.59044 0.0
H841 H 0.61399 0.47735 0.50855 0.0
H842 H 0.6519 0.44742 0.49496 0.0
H843 H 0.69202 0.42029 0.50667 0.0
H844 H 0.71299 0.41741 0.58917 0.0
H845 H 0.67388 0.44543 0.602 0.0
C846 C 0.63827 0.46658 0.56956 0.0
C847 C 0.62134 0.47694 0.55056 0.0
C848 C 0.66025 0.44961 0.56195 0.0
C849 C 0.62673 0.4698 0.52364 0.0
C850 C 0.64836 0.45257 0.51585 0.0
C851 C 0.68781 0.42561 0.5274 0.0
C852 C 0.70552 0.41666 0.54689 0.0
C853 C 0.6654 0.44239 0.53484 0.0
C854 C 0.69991 0.42405 0.57371 0.0
C855 C 0.67748 0.44012 0.58113 0.0
H856 H 0.76689 0.21361 0.37332 0.0
H857 H 0.76987 0.28289 0.32965 0.0
H858 H 0.76739 0.31645 0.37052 0.0
H859 H 0.76908 0.3272 0.4195 0.0
H860 H 0.77066 0.25873 0.46341 0.0
H861 H 0.76651 0.22403 0.42198 0.0
C862 C 0.76705 0.23603 0.3727 0.0
C863 C 0.76852 0.24547 0.34821 0.0
C864 C 0.76632 0.25552 0.3965 0.0
C865 C 0.76826 0.2747 0.34798 0.0
C866 C 0.76704 0.29408 0.37145 0.0
C867 C 0.76763 0.30459 0.41986 0.0
C868 C 0.7696 0.29541 0.44438 0.0
C869 C 0.7665 0.28485 0.39591 0.0
C870 C 0.76869 0.26617 0.4447 0.0
C871 C 0.7666 0.24636 0.42102 0.0
H872 H 0.49552 0.02648 0.8805 0.0
H873 H 0.54229 0.10951 0.87734 0.0
H874 H 0.57639 0.08776 0.84788 0.0
H875 H 0.5914 0.04536 0.8212 0.0
H876 H 0.54386 0.96226 0.82344 0.0
H877 H 0.51188 0.98377 0.85514 0.0
C878 C 0.51343 0.03972 0.87362 0.0
C879 C 0.51627 0.06953 0.88092 0.0
C880 C 0.53276 0.02709 0.85638 0.0
C881 C 0.53943 0.0865 0.87169 0.0
C882 C 0.55897 0.07409 0.8549 0.0
C883 C 0.5742 0.03191 0.82876 0.0
C884 C 0.57002 1.00225 0.8198 0.0
C885 C 0.55559 0.04443 0.84679 0.0
C886 C 0.54754 0.98519 0.82983 0.0
C887 C 0.52919 0.99746 0.84801 0.0
H888 H 0.35076 0.22652 0.34104 0.0
H889 H 0.35945 0.28817 0.41387 0.0
H890 H 0.35401 0.24976 0.43953 0.0
H891 H 0.34687 0.19839 0.44136 0.0
H892 H 0.33976 0.13716 0.36826 0.0
H893 H 0.34483 0.17558 0.34287 0.0
C894 C 0.35185 0.23161 0.36254 0.0
C895 C 0.35543 0.26026 0.37542 0.0
C896 C 0.34895 0.20941 0.37723 0.0
C897 C 0.35628 0.26633 0.40333 0.0
C898 C 0.35332 0.24435 0.41807 0.0
C899 C 0.34637 0.19346 0.41989 0.0
C900 C 0.34289 0.16484 0.40684 0.0
C901 C 0.34953 0.21577 0.40524 0.0
C902 C 0.34246 0.15893 0.37895 0.0
C903 C 0.34535 0.18092 0.36432 0.0
H904 H 0.57734 0.50373 0.88221 0.0
H905 H 0.51706 0.48477 0.94062 0.0
H906 H 0.47525 0.4884 0.91036 0.0
H907 H 0.45568 0.49624 0.86746 0.0
H908 H 0.51507 0.51467 0.80823 0.0
H909 H 0.5574 0.51236 0.83887 0.0
C910 C 0.55506 0.50066 0.8884 0.0
C911 C 0.55039 0.49391 0.91371 0.0
C912 C 0.53099 0.50273 0.8708 0.0
C913 C 0.52132 0.48962 0.92121 0.0
C914 C 0.49739 0.49184 0.90396 0.0
C915 C 0.47785 0.49992 0.86115 0.0
C916 C 0.48208 0.50567 0.83547 0.0
C917 C 0.50195 0.49825 0.8787 0.0
C918 C 0.51108 0.51023 0.82782 0.0
C919 C 0.5353 0.50887 0.84534 0.0
H920 H 0.81229 0.74948 0.12292 0.0
H921 H 0.8428 0.69028 0.16897 0.0
H922 H 0.84909 0.65773 0.12837 0.0
H923 H 0.84546 0.64562 0.07991 0.0
H924 H 0.81628 0.70488 0.0333 0.0
H925 H 0.81026 0.73791 0.07394 0.0
C926 C 0.8206 0.7296 0.12405 0.0
C927 C 0.82674 0.72226 0.14902 0.0
C928 C 0.82437 0.71092 0.10052 0.0
C929 C 0.83732 0.69627 0.15007 0.0
C930 C 0.84109 0.67767 0.12685 0.0
C931 C 0.83775 0.66574 0.07857 0.0
C932 C 0.83121 0.67265 0.05355 0.0
C933 C 0.83448 0.68466 0.10198 0.0
C934 C 0.82146 0.69896 0.05228 0.0
C935 C 0.818 0.71788 0.07553 0.0
H936 H 0.05729 1.00291 0.13803 0.0
H937 H 0.9913 0.00736 0.07618 0.0
H938 H 0.95302 0.00637 0.10757 0.0
H939 H 0.93841 0.00568 0.15293 0.0
H940 H 0.0047 0.00354 0.21549 0.0
H941 H 0.04256 1.00232 0.18371 0.0
C942 C 0.03445 0.00329 0.13142 0.0
C943 C 0.02709 0.00497 0.10474 0.0
C944 C 0.0126 0.00342 0.14981 0.0
C945 C 0.99749 0.006 0.09657 0.0
C946 C 0.97561 0.0055 0.11454 0.0
C947 C 0.96112 0.00491 0.15967 0.0
C948 C 0.96855 0.00472 0.18669 0.0
C949 C 0.98292 0.0045 0.14128 0.0
C950 C 0.99822 0.00383 0.19491 0.0
C951 C 0.01994 1.00305 0.17669 0.0
H952 H 0.24062 0.80698 0.16372 0.0
H953 H 0.32976 0.78849 0.17489 0.0
H954 H 0.34104 0.80277 0.13271 0.0
H955 H 0.3262 0.82188 0.09344 0.0
H956 H 0.23752 0.84173 0.08273 0.0
H957 H 0.22569 0.82604 0.12428 0.0
C958 C 0.26262 0.80628 0.15709 0.0
C959 C 0.28434 0.79675 0.17266 0.0
C960 C 0.26911 0.81495 0.13298 0.0
C961 C 0.3125 0.7954 0.16331 0.0
C962 C 0.31904 0.80379 0.13925 0.0
C963 C 0.30424 0.82281 0.10012 0.0
C964 C 0.2828 0.83308 0.08489 0.0
C965 C 0.2976 0.8138 0.12404 0.0
C966 C 0.25447 0.834 0.09397 0.0
C967 C 0.24769 0.825 0.11775 0.0
H968 H 0.08521 0.50312 0.09876 0.0
H969 H 0.99563 0.46543 0.10444 0.0
H970 H 0.00998 0.45363 0.14763 0.0
H971 H 0.04851 0.45348 0.18345 0.0
H972 H 0.13735 0.49387 0.17837 0.0
H973 H 0.12295 0.50487 0.13513 0.0
C974 C 0.06885 0.49234 0.10952 0.0
C975 C 0.03947 0.48496 0.09846 0.0
C976 C 0.07723 0.48591 0.13429 0.0
C977 C 0.01835 0.47139 0.11268 0.0
C978 C 0.0266 0.46451 0.13724 0.0
C979 C 0.06471 0.4645 0.17273 0.0
C980 C 0.09404 0.47258 0.18393 0.0
C981 C 0.05605 0.47148 0.14816 0.0
C982 C 0.11469 0.48735 0.17012 0.0
C983 C 0.10646 0.49368 0.14542 0.0
H984 H 0.3549 0.69172 0.30165 0.0
H985 H 0.37807 0.72628 0.23197 0.0
H986 H 0.43033 0.72948 0.24584 0.0
H987 H 0.46937 0.72541 0.27892 0.0
H988 H 0.44709 0.68975 0.34805 0.0
H989 H 0.39454 0.68296 0.3326 0.0
C990 C 0.3713 0.69942 0.28915 0.0
C991 C 0.36229 0.70913 0.2659 0.0
C992 C 0.40151 0.70087 0.29707 0.0
C993 C 0.38412 0.71933 0.25027 0.0
C994 C 0.41411 0.72096 0.25807 0.0
C995 C 0.45307 0.7158 0.29049 0.0
C996 C 0.46215 0.70833 0.31475 0.0
C997 C 0.42302 0.71227 0.28164 0.0
C998 C 0.44075 0.69561 0.32929 0.0
C999 C 0.41067 0.69197 0.32056 0.0
H1000 H 0.04185 0.39548 0.97016 0.0
H1001 H 0.13243 0.42146 0.95531 0.0
H1002 H 0.13464 0.37413 0.93015 0.0
H1003 H 0.10873 0.3277 0.90724 0.0
H1004 H 0.01926 0.30042 0.92332 0.0
H1005 H 0.01894 0.34568 0.95385 0.0
C1006 C 0.06237 0.39063 0.96212 0.0
C1007 C 0.08666 0.41238 0.96401 0.0
C1008 C 0.06364 0.36316 0.94782 0.0
C1009 C 0.11304 0.4055 0.95341 0.0
C1010 C 0.11442 0.37836 0.93912 0.0
C1011 C 0.08952 0.33144 0.91809 0.0
C1012 C 0.06406 0.31107 0.91319 0.0
C1013 C 0.08953 0.3574 0.93538 0.0
C1014 C 0.03917 0.31588 0.92712 0.0
C1015 C 0.03892 0.34182 0.94432 0.0
H1016 H 0.71534 0.68564 0.28957 0.0
H1017 H 0.72826 0.77208 0.27489 0.0
H1018 H 0.68011 0.77911 0.29037 0.0
H1019 H 0.6349 0.76147 0.30871 0.0
H1020 H 0.62265 0.67672 0.32709 0.0
H1021 H 0.67053 0.66859 0.31016 0.0
C1022 C 0.70791 0.70619 0.29006 0.0
C1023 C 0.72562 0.7282 0.28075 0.0
C1024 C 0.68039 0.71046 0.29979 0.0
C1025 C 0.71509 0.75445 0.28123 0.0
C1026 C 0.68758 0.75864 0.29036 0.0
C1027 C 0.64255 0.7411 0.30894 0.0
C1028 C 0.62506 0.7196 0.31891 0.0
C1029 C 0.67011 0.73682 0.29965 0.0
C1030 C 0.63565 0.69358 0.31948 0.0
C1031 C 0.66298 0.68895 0.30976 0.0
H1032 H 0.04731 0.13576 0.00372 0.0
H1033 H 0.09911 0.0724 0.96921 0.0
H1034 H 0.09503 0.08897 0.92664 0.0
H1035 H 0.08081 0.12482 0.90074 0.0
H1036 H 0.0292 0.1882 0.93624 0.0
H1037 H 0.02916 0.1683 0.97679 0.0
C1038 C 0.0574 0.12535 0.98675 0.0
C1039 C 0.07372 0.10306 0.98966 0.0
C1040 C 0.05528 0.13524 0.96258 0.0
C1041 C 0.08634 0.08951 0.96745 0.0
C1042 C 0.08422 0.09917 0.94319 0.0
C1043 C 0.06927 0.1341 0.91722 0.0
C1044 C 0.05532 0.15828 0.9154 0.0
C1045 C 0.06938 0.12254 0.94073 0.0
C1046 C 0.04029 0.16978 0.93699 0.0
C1047 C 0.04027 0.15841 0.96028 0.0
H1048 H 0.36371 0.32286 0.27621 0.0
H1049 H 0.42981 0.28534 0.31619 0.0
H1050 H 0.45875 0.28354 0.27749 0.0
H1051 H 0.46488 0.29192 0.23169 0.0
H1052 H 0.39901 0.33107 0.19311 0.0
H1053 H 0.37111 0.33374 0.23217 0.0
C1054 C 0.38467 0.31469 0.27675 0.0
C1055 C 0.39437 0.30418 0.29921 0.0
C1056 C 0.40148 0.31419 0.25465 0.0
C1057 C 0.42138 0.29312 0.29908 0.0
C1058 C 0.43814 0.29232 0.27701 0.0
C1059 C 0.44462 0.30135 0.23196 0.0
C1060 C 0.43411 0.31116 0.20934 0.0
C1061 C 0.42836 0.3027 0.2546 0.0
C1062 C 0.40768 0.32321 0.21009 0.0
C1063 C 0.39158 0.3247 0.23244 0.0
H1064 H 0.59838 0.39229 0.05182 0.0
H1065 H 0.52145 0.40402 0.00476 0.0
H1066 H 0.48934 0.38415 0.0357 0.0
H1067 H 0.4833 0.35898 0.07357 0.0
H1068 H 0.56082 0.34623 0.11954 0.0
H1069 H 0.59245 0.37093 0.09157 0.0
C1070 C 0.57456 0.39065 0.04841 0.0
C1071 C 0.56229 0.39925 0.02582 0.0
C1072 C 0.55634 0.37879 0.06598 0.0
C1073 C 0.53144 0.39758 0.022 0.0
C1074 C 0.51309 0.38603 0.03959 0.0
C1075 C 0.5071 0.36193 0.07772 0.0
C1076 C 0.51959 0.35043 0.09855 0.0
C1077 C 0.5253 0.3759 0.06128 0.0
C1078 C 0.55051 0.35461 0.10361 0.0
C1079 C 0.56868 0.36872 0.08757 0.0
H1080 H 0.68399 0.2697 0.20129 0.0
H1081 H 0.6574 0.19694 0.23759 0.0
H1082 H 0.60537 0.20197 0.22896 0.0
H1083 H 0.56734 0.22552 0.20869 0.0
H1084 H 0.59475 0.29809 0.17213 0.0
H1085 H 0.64639 0.29447 0.18309 0.0
C1086 C 0.66681 0.25491 0.2073 0.0
C1087 C 0.6746 0.23282 0.21986 0.0
C1088 C 0.63701 0.25779 0.20207 0.0
C1089 C 0.65205 0.21422 0.22802 0.0
C1090 C 0.62228 0.21698 0.22291 0.0
C1091 C 0.58459 0.24064 0.20325 0.0
C1092 C 0.57701 0.26192 0.18941 0.0
C1093 C 0.61447 0.23845 0.2096 0.0
C1094 C 0.59978 0.28141 0.18268 0.0
C1095 C 0.6294 0.27937 0.18893 0.0
H1096 H 0.41465 0.12376 0.0364 0.0
H1097 H 0.50826 0.1226 0.03313 0.0
H1098 H 0.5185 0.16541 0.06774 0.0
H1099 H 0.50072 0.20578 0.09558 0.0
H1100 H 0.40702 0.20909 0.09554 0.0
H1101 H 0.39681 0.16285 0.06589 0.0
C1102 C 0.43721 0.13265 0.04375 0.0
C1103 C 0.4607 0.12017 0.03255 0.0
C1104 C 0.44287 0.1578 0.06286 0.0
C1105 C 0.48992 0.13198 0.0417 0.0
C1106 C 0.49574 0.15644 0.06136 0.0
C1107 C 0.47808 0.1961 0.08941 0.0
C1108 C 0.45467 0.21082 0.09765 0.0
C1109 C 0.4724 0.16995 0.07162 0.0
C1110 C 0.42543 0.19823 0.0893 0.0
C1111 C 0.41956 0.1718 0.07234 0.0
H1112 H 0.33705 0.3327 0.68252 0.0
H1113 H 0.34437 0.30527 0.75837 0.0
H1114 H 0.36156 0.35391 0.78016 0.0
H1115 H 0.3752 0.40423 0.7782 0.0
H1116 H 0.37425 0.43172 0.70255 0.0
H1117 H 0.35482 0.3829 0.68012 0.0
C1118 C 0.34277 0.33711 0.70375 0.0
C1119 C 0.3386 0.31494 0.71863 0.0
C1120 C 0.35404 0.36523 0.71626 0.0
C1121 C 0.34607 0.32164 0.74625 0.0
C1122 C 0.35636 0.34956 0.75884 0.0
C1123 C 0.37067 0.39956 0.75678 0.0
C1124 C 0.37575 0.42156 0.74206 0.0
C1125 C 0.36032 0.37149 0.74409 0.0
C1126 C 0.37041 0.41511 0.7143 0.0
C1127 C 0.35926 0.38724 0.70152 0.0
H1128 H 0.33146 0.66203 0.76758 0.0
H1129 H 0.2771 0.6371 0.8281 0.0
H1130 H 0.30121 0.59476 0.82779 0.0
H1131 H 0.3375 0.56478 0.81057 0.0
H1132 H 0.39194 0.58877 0.74977 0.0
H1133 H 0.36771 0.63126 0.74973 0.0
C1134 C 0.32466 0.6472 0.78053 0.0
C1135 C 0.30243 0.65294 0.79791 0.0
C1136 C 0.3386 0.62267 0.78017 0.0
C1137 C 0.29434 0.63359 0.8148 0.0
C1138 C 0.30802 0.60922 0.81452 0.0
C1139 C 0.34415 0.5792 0.79721 0.0
C1140 C 0.36664 0.57342 0.78018 0.0
C1141 C 0.3302 0.60358 0.79735 0.0
C1142 C 0.37477 0.59255 0.76309 0.0
C1143 C 0.3609 0.6169 0.76308 0.0
H1144 H 0.88661 0.52977 0.51207 0.0
H1145 H 0.95657 0.48744 0.47801 0.0
H1146 H 0.929 0.44103 0.48104 0.0
H1147 H 0.88481 0.4126 0.49303 0.0
H1148 H 0.81353 0.45483 0.52477 0.0
H1149 H 0.84174 0.50118 0.52298 0.0
C1150 C 0.89585 0.51034 0.50553 0.0
C1151 C 0.92367 0.51192 0.49508 0.0
C1152 C 0.87959 0.48378 0.50682 0.0
C1153 C 0.93522 0.48666 0.48616 0.0
C1154 C 0.91947 0.46018 0.48791 0.0
C1155 C 0.87546 0.43194 0.49963 0.0
C1156 C 0.84713 0.43022 0.50915 0.0
C1157 C 0.89161 0.45849 0.49814 0.0
C1158 C 0.83523 0.45551 0.51731 0.0
C1159 C 0.85139 0.48204 0.51635 0.0
H1160 H 0.75265 0.86923 0.82503 0.0
H1161 H 0.80127 0.95395 0.84684 0.0
H1162 H 0.76364 0.97282 0.82209 0.0
H1163 H 0.71557 0.96588 0.79697 0.0
H1164 H 0.66528 0.88168 0.77652 0.0
H1165 H 0.70503 0.86192 0.79773 0.0
C1166 C 0.75513 0.89173 0.82399 0.0
C1167 C 0.77958 0.91023 0.83781 0.0
C1168 C 0.73306 0.90254 0.81011 0.0
C1169 C 0.78247 0.93939 0.83655 0.0
C1170 C 0.761 0.95016 0.82239 0.0
C1171 C 0.71333 0.94314 0.79687 0.0
C1172 C 0.68734 0.92534 0.78524 0.0
C1173 C 0.73596 0.93204 0.80952 0.0
C1174 C 0.68496 0.89592 0.78538 0.0
C1175 C 0.70768 0.8846 0.79756 0.0
H1176 H 0.66104 0.51634 0.91392 0.0
H1177 H 0.6539 0.54201 0.99771 0.0
H1178 H 0.70335 0.56994 1.00255 0.0
H1179 H 0.74986 0.5847 0.98317 0.0
H1180 H 0.75777 0.55554 0.89979 0.0
H1181 H 0.70702 0.53141 0.89454 0.0
C1182 C 0.67022 0.52848 0.9331 0.0
C1183 C 0.65393 0.5275 0.95537 0.0
C1184 C 0.69896 0.54359 0.93585 0.0
C1185 C 0.66613 0.54272 0.9803 0.0
C1186 C 0.69438 0.55855 0.98306 0.0
C1187 C 0.74037 0.57321 0.96385 0.0
C1188 C 0.75765 0.57186 0.94195 0.0
C1189 C 0.71123 0.55878 0.96104 0.0
C1190 C 0.74509 0.55672 0.91705 0.0
C1191 C 0.71599 0.54297 0.91397 0.0
H1192 H 0.27961 0.63124 0.24901 0.0
H1193 H 0.22505 0.69496 0.27741 0.0
H1194 H 0.18614 0.65779 0.28423 0.0
H1195 H 0.16705 0.60707 0.2813 0.0
H1196 H 0.2224 0.54353 0.25438 0.0
H1197 H 0.26165 0.58078 0.24842 0.0
C1198 C 0.25941 0.63707 0.25705 0.0
C1199 C 0.25526 0.66592 0.26241 0.0
C1200 C 0.23719 0.61559 0.26127 0.0
C1201 C 0.22868 0.67293 0.27254 0.0
C1202 C 0.20645 0.65168 0.27665 0.0
C1203 C 0.18773 0.60136 0.27424 0.0
C1204 C 0.19163 0.5725 0.26819 0.0
C1205 C 0.21034 0.62292 0.27087 0.0
C1206 C 0.2187 0.56555 0.2592 0.0
C1207 C 0.2412 0.58685 0.25571 0.0
H1208 H 0.00498 0.55252 0.01011 0.0
H1209 H 0.9466 0.51061 0.05911 0.0
H1210 H 0.90648 0.53512 0.04492 0.0
H1211 H 0.8866 0.56475 0.01467 0.0
H1212 H 0.94446 0.60143 0.96226 0.0
H1213 H 0.98604 0.58239 0.9813 0.0
C1214 C 0.98345 0.5485 0.01762 0.0
C1215 C 0.97876 0.52924 0.03529 0.0
C1216 C 0.96028 0.56166 0.00854 0.0
C1217 C 0.95094 0.52527 0.04551 0.0
C1218 C 0.92789 0.53912 0.03721 0.0
C1219 C 0.90848 0.56884 0.00784 0.0
C1220 C 0.91271 0.58453 0.98726 0.0
C1221 C 0.93209 0.55683 0.01821 0.0
C1222 C 0.94089 0.58944 0.97814 0.0
C1223 C 0.96459 0.57853 0.98897 0.0
H1224 H 0.117 0.96824 0.01908 0.0
H1225 H 0.12264 0.97294 0.10401 0.0
H1226 H 0.16222 0.94347 0.10088 0.0
H1227 H 0.19664 0.91788 0.0745 0.0
H1228 H 0.19113 0.91189 0.98945 0.0
H1229 H 0.15018 0.94014 0.99212 0.0
C1230 C 0.12688 0.96274 0.03687 0.0
C1231 C 0.11672 0.97284 0.06177 0.0
C1232 C 0.14973 0.94556 0.03492 0.0
C1233 C 0.12965 0.96526 0.08458 0.0
C1234 C 0.15246 0.94851 0.08283 0.0
C1235 C 0.18644 0.92261 0.05647 0.0
C1236 C 0.19717 0.91286 0.0318 0.0
C1237 C 0.16285 0.93873 0.05816 0.0
C1238 C 0.18337 0.91903 0.00869 0.0
C1239 C 0.16 0.93531 0.01024 0.0
loop_
_geom_bond_atom_site_label_1
_geom_bond_atom_site_label_2
_geom_bond_distance
_geom_bond_site_symmetry_2
_ccdc_geom_bond_type
H0 C1 0.949 . S
C1 H0 0.949 . S
C1 C2 1.395 . S
C1 C3 1.391 . S
C2 C1 1.395 . S
C2 C5 1.390 1_545 S
C3 C1 1.391 . S
C3 C7 1.387 . S
C3 C8 1.491 . S
H4 C5 0.951 . S
C5 C2 1.390 1_565 S
C5 H4 0.951 . S
C5 C6 1.377 1_565 S
C6 C5 1.377 1_545 S
C6 C7 1.409 . S
C7 C3 1.387 . S
C7 C6 1.409 . S
C7 H9 0.951 . S
C8 C3 1.491 . S
C8 C10 1.382 . S
C8 C12 1.404 . S
H9 C7 0.951 . S
C10 C8 1.382 . S
C10 C11 1.390 1_554 S
C10 H15 0.949 1_554 S
C11 C10 1.390 1_556 S
C11 C16 1.399 1_556 S
C12 C8 1.404 . S
C12 H13 0.950 . S
C12 C14 1.375 . S
H13 C12 0.950 . S
C14 C12 1.375 . S
C14 C16 1.382 . S
C14 H18 0.950 . S
H15 C10 0.949 1_556 S
C16 C11 1.399 1_554 S
C16 C14 1.382 . S
C16 H17 0.963 . S
H17 C16 0.963 . S
H18 C14 0.950 . S
H19 C20 0.949 . S
C20 H19 0.949 . S
C20 C21 1.395 . S
C20 C22 1.391 . S
C21 C20 1.395 . S
C21 C24 1.390 . S
C22 C20 1.391 . S
C22 C26 1.387 . S
C22 C27 1.491 . S
H23 C24 0.950 . S
C24 C21 1.390 . S
C24 H23 0.950 . S
C24 C25 1.378 . S
C25 C24 1.378 . S
C25 C26 1.409 . S
C26 C22 1.387 . S
C26 C25 1.409 . S
C26 H28 0.951 . S
C27 C22 1.491 . S
C27 C29 1.382 . S
C27 C31 1.404 . S
H28 C26 0.951 . S
C29 C27 1.382 . S
C29 C30 1.390 . S
C29 H34 0.949 . S
C30 C29 1.390 . S
C30 C35 1.399 . S
C31 C27 1.404 . S
C31 H32 0.950 . S
C31 C33 1.375 . S
H32 C31 0.950 . S
C33 C31 1.375 . S
C33 C35 1.382 . S
C33 H37 0.950 . S
H34 C29 0.949 . S
C35 C30 1.399 . S
C35 C33 1.382 . S
C35 H36 0.952 . S
H36 C35 0.952 . S
H37 C33 0.950 . S
H38 C39 0.949 1_455 S
C39 H38 0.949 1_655 S
C39 C40 1.395 . S
C39 C41 1.391 . S
C40 C39 1.395 . S
C40 C43 1.390 . S
C41 C39 1.391 . S
C41 C45 1.387 . S
C41 C46 1.468 1_554 S
H42 C43 0.950 . S
C43 C40 1.390 . S
C43 H42 0.950 . S
C43 C44 1.378 . S
C44 C43 1.378 . S
C44 C45 1.409 . S
C45 C41 1.387 . S
C45 C44 1.409 . S
C45 H47 0.951 . S
C46 C41 1.468 1_556 S
C46 C48 1.374 1_556 S
C46 C50 1.435 . S
H47 C45 0.951 . S
C48 C46 1.374 1_554 S
C48 C49 1.390 1_554 S
C48 H53 0.949 . S
C49 C48 1.390 1_556 S
C49 C54 1.399 . S
C50 C46 1.435 . S
C50 H51 0.950 . S
C50 C52 1.375 . S
H51 C50 0.950 . S
C52 C50 1.375 . S
C52 C54 1.382 . S
C52 H56 0.950 . S
H53 C48 0.949 . S
C54 C49 1.399 . S
C54 C52 1.382 . S
C54 H55 0.952 . S
H55 C54 0.952 . S
H56 C52 0.950 . S
H57 C58 0.949 . S
C58 H57 0.949 . S
C58 C59 1.395 . S
C58 C60 1.391 . S
C59 C58 1.395 . S
C59 C62 1.390 . S
C60 C58 1.391 . S
C60 C64 1.387 . S
C60 C65 1.491 . S
H61 C62 0.950 . S
C62 C59 1.390 . S
C62 H61 0.950 . S
C62 C63 1.378 . S
C63 C62 1.378 . S
C63 C64 1.409 . S
C64 C60 1.387 . S
C64 C63 1.409 . S
C64 H66 0.951 . S
C65 C60 1.491 . S
C65 C67 1.382 . S
C65 C69 1.404 . S
H66 C64 0.951 . S
C67 C65 1.382 . S
C67 C68 1.390 . S
C67 H72 0.949 . S
C68 C67 1.390 . S
C68 C73 1.399 . S
C69 C65 1.404 . S
C69 H70 0.950 . S
C69 C71 1.375 . S
H70 C69 0.950 . S
C71 C69 1.375 . S
C71 C73 1.382 . S
C71 H75 0.950 . S
H72 C67 0.949 . S
C73 C68 1.399 . S
C73 C71 1.382 . S
C73 H74 0.952 . S
H74 C73 0.952 . S
H75 C71 0.950 . S
H76 C77 0.949 . S
C77 H76 0.949 . S
C77 C78 1.395 . S
C77 C79 1.391 . S
C78 C77 1.395 . S
C78 C81 1.390 . S
C79 C77 1.391 . S
C79 C83 1.387 . S
C79 C84 1.491 . S
H80 C81 0.950 1_545 S
C81 C78 1.390 . S
C81 H80 0.950 1_565 S
C81 C82 1.378 . S
C82 C81 1.378 . S
C82 C83 1.409 . S
C83 C79 1.387 . S
C83 C82 1.409 . S
C83 H85 0.951 . S
C84 C79 1.491 . S
C84 C86 1.382 . S
C84 C88 1.404 . S
H85 C83 0.951 . S
C86 C84 1.382 . S
C86 C87 1.390 . S
C86 H91 0.949 . S
C87 C86 1.390 . S
C87 C92 1.399 . S
C88 C84 1.404 . S
C88 H89 0.950 . S
C88 C90 1.375 . S
H89 C88 0.950 . S
C90 C88 1.375 . S
C90 C92 1.382 . S
C90 H94 0.950 . S
H91 C86 0.949 . S
C92 C87 1.399 . S
C92 C90 1.382 . S
C92 H93 0.952 . S
H93 C92 0.952 . S
H94 C90 0.950 . S
H95 C96 0.949 . S
C96 H95 0.949 . S
C96 C97 1.395 . S
C96 C98 1.391 . S
C97 C96 1.395 . S
C97 C100 1.390 . S
C98 C96 1.391 . S
C98 C102 1.387 . S
C98 C103 1.491 . S
H99 C100 0.950 . S
C100 C97 1.390 . S
C100 H99 0.950 . S
C100 C101 1.378 . S
C101 C100 1.378 . S
C101 C102 1.409 . S
C102 C98 1.387 . S
C102 C101 1.409 . S
C102 H104 0.951 . S
C103 C98 1.491 . S
C103 C105 1.382 . S
C103 C107 1.404 . S
H104 C102 0.951 . S
C105 C103 1.382 . S
C105 C106 1.390 . S
C105 H110 0.949 . S
C106 C105 1.390 . S
C106 C111 1.399 . S
C107 C103 1.404 . S
C107 H108 0.950 . S
C107 C109 1.375 . S
H108 C107 0.950 . S
C109 C107 1.375 . S
C109 C111 1.382 . S
C109 H113 0.950 . S
H110 C105 0.949 . S
C111 C106 1.399 . S
C111 C109 1.382 . S
C111 H112 0.952 . S
H112 C111 0.952 . S
H113 C109 0.950 . S
H114 C115 0.949 . S
C115 H114 0.949 . S
C115 C116 1.395 . S
C115 C117 1.391 . S
C116 C115 1.395 . S
C116 C119 1.390 . S
C117 C115 1.391 . S
C117 C121 1.387 . S
C117 C122 1.491 . S
H118 C119 0.950 . S
C119 C116 1.390 . S
C119 H118 0.950 . S
C119 C120 1.378 . S
C120 C119 1.378 . S
C120 C121 1.409 . S
C121 C117 1.387 . S
C121 C120 1.409 . S
C121 H123 0.951 . S
C122 C117 1.491 . S
C122 C124 1.382 . S
C122 C126 1.404 . S
H123 C121 0.951 . S
C124 C122 1.382 . S
C124 C125 1.389 1_655 S
C124 H129 0.949 1_655 S
C125 C124 1.389 1_455 S
C125 C130 1.399 1_455 S
C126 C122 1.404 . S
C126 H127 0.950 . S
C126 C128 1.375 . S
H127 C126 0.950 . S
C128 C126 1.375 . S
C128 C130 1.382 . S
C128 H132 0.950 . S
H129 C124 0.949 1_455 S
C130 C125 1.399 1_655 S
C130 C128 1.382 . S
C130 H131 0.952 . S
H131 C130 0.952 . S
H132 C128 0.950 . S
H133 C134 0.949 . S
C134 H133 0.949 . S
C134 C135 1.395 . S
C134 C136 1.391 . S
C135 C134 1.395 . S
C135 C138 1.390 . S
C136 C134 1.391 . S
C136 C140 1.387 . S
C136 C141 1.491 . S
H137 C138 0.950 . S
C138 C135 1.390 . S
C138 H137 0.950 . S
C138 C139 1.378 . S
C139 C138 1.378 . S
C139 C140 1.409 . S
C140 C136 1.387 . S
C140 C139 1.409 . S
C140 H142 0.951 . S
C141 C136 1.491 . S
C141 C143 1.382 . S
C141 C145 1.404 . S
H142 C140 0.951 . S
C143 C141 1.382 . S
C143 C144 1.390 . S
C143 H148 0.949 . S
C144 C143 1.390 . S
C144 C149 1.399 . S
C145 C141 1.404 . S
C145 H146 0.950 . S
C145 C147 1.375 . S
H146 C145 0.950 . S
C147 C145 1.375 . S
C147 C149 1.382 . S
C147 H151 0.950 . S
H148 C143 0.949 . S
C149 C144 1.399 . S
C149 C147 1.382 . S
C149 H150 0.952 . S
H150 C149 0.952 . S
H151 C147 0.950 . S
H152 C153 0.949 . S
C153 H152 0.949 . S
C153 C154 1.395 . S
C153 C155 1.391 . S
C154 C153 1.395 . S
C154 C157 1.390 . S
C155 C153 1.391 . S
C155 C159 1.387 . S
C155 C160 1.491 . S
H156 C157 0.950 . S
C157 C154 1.390 . S
C157 H156 0.950 . S
C157 C158 1.378 . S
C158 C157 1.378 . S
C158 C159 1.409 . S
C159 C155 1.387 . S
C159 C158 1.409 . S
C159 H161 0.951 . S
C160 C155 1.491 . S
C160 C162 1.382 . S
C160 C164 1.404 . S
H161 C159 0.951 . S
C162 C160 1.382 . S
C162 C163 1.390 . S
C162 H167 0.949 . S
C163 C162 1.390 . S
C163 C168 1.399 . S
C164 C160 1.404 . S
C164 H165 0.950 . S
C164 C166 1.375 . S
H165 C164 0.950 . S
C166 C164 1.375 . S
C166 C168 1.382 . S
C166 H170 0.950 . S
H167 C162 0.949 . S
C168 C163 1.399 . S
C168 C166 1.382 . S
C168 H169 0.952 . S
H169 C168 0.952 . S
H170 C166 0.950 . S
H171 C172 0.949 . S
C172 H171 0.949 . S
C172 C173 1.395 . S
C172 C174 1.391 . S
C173 C172 1.395 . S
C173 C176 1.390 . S
C174 C172 1.391 . S
C174 C178 1.387 . S
C174 C179 1.491 . S
H175 C176 0.950 1_545 S
C176 C173 1.390 . S
C176 H175 0.950 1_565 S
C176 C177 1.378 . S
C177 C176 1.378 . S
C177 C178 1.409 . S
C178 C174 1.387 . S
C178 C177 1.409 . S
C178 H180 0.951 . S
C179 C174 1.491 . S
C179 C181 1.382 . S
C179 C183 1.404 . S
H180 C178 0.951 . S
C181 C179 1.382 . S
C181 C182 1.390 . S
C181 H186 0.949 . S
C182 C181 1.390 . S
C182 C187 1.399 . S
C183 C179 1.404 . S
C183 H184 0.950 . S
C183 C185 1.375 . S
H184 C183 0.950 . S
C185 C183 1.375 . S
C185 C187 1.382 . S
C185 H189 0.950 . S
H186 C181 0.949 . S
C187 C182 1.399 . S
C187 C185 1.382 . S
C187 H188 0.952 . S
H188 C187 0.952 . S
H189 C185 0.950 . S
H190 C191 0.949 . S
C191 H190 0.949 . S
C191 C192 1.395 . S
C191 C193 1.391 . S
C192 C191 1.395 . S
C192 C195 1.390 . S
C193 C191 1.391 . S
C193 C197 1.387 . S
C193 C198 1.491 . S
H194 C195 0.950 . S
C195 C192 1.390 . S
C195 H194 0.950 . S
C195 C196 1.378 . S
C196 C195 1.378 . S
C196 C197 1.409 . S
C197 C193 1.387 . S
C197 C196 1.409 . S
C197 H199 0.951 . S
C198 C193 1.491 . S
C198 C200 1.382 . S
C198 C202 1.404 . S
H199 C197 0.951 . S
C200 C198 1.382 . S
C200 C201 1.390 . S
C200 H205 0.949 . S
C201 C200 1.390 . S
C201 C206 1.399 . S
C202 C198 1.404 . S
C202 H203 0.950 . S
C202 C204 1.375 . S
H203 C202 0.950 . S
C204 C202 1.375 . S
C204 C206 1.382 . S
C204 H208 0.950 . S
H205 C200 0.949 . S
C206 C201 1.399 . S
C206 C204 1.382 . S
C206 H207 0.952 . S
H207 C206 0.952 . S
H208 C204 0.950 . S
H209 C210 0.949 . S
C210 H209 0.949 . S
C210 C211 1.395 . S
C210 C212 1.391 . S
C211 C210 1.395 . S
C211 C214 1.390 . S
C212 C210 1.391 . S
C212 C216 1.387 . S
C212 C217 1.491 . S
H213 C214 0.950 . S
C214 C211 1.390 . S
C214 H213 0.950 . S
C214 C215 1.378 . S
C215 C214 1.378 . S
C215 C216 1.409 . S
C216 C212 1.387 . S
C216 C215 1.409 . S
C216 H218 0.951 . S
C217 C212 1.491 . S
C217 C219 1.382 . S
C217 C221 1.404 . S
H218 C216 0.951 . S
C219 C217 1.382 . S
C219 C220 1.390 . S
C219 H224 0.949 . S
C220 C219 1.390 . S
C220 C225 1.399 . S
C221 C217 1.404 . S
C221 H222 0.950 . S
C221 C223 1.375 . S
H222 C221 0.950 . S
C223 C221 1.375 . S
C223 C225 1.382 . S
C223 H227 0.950 . S
H224 C219 0.949 . S
C225 C220 1.399 . S
C225 C223 1.382 . S
C225 H226 0.952 . S
H226 C225 0.952 . S
H227 C223 0.950 . S
H228 C229 0.949 . S
C229 H228 0.949 . S
C229 C230 1.395 . S
C229 C231 1.391 . S
C230 C229 1.395 . S
C230 C233 1.390 . S
C231 C229 1.391 . S
C231 C235 1.387 . S
C231 C236 1.491 . S
H232 C233 0.950 . S
C233 C230 1.390 . S
C233 H232 0.950 . S
C233 C234 1.378 . S
C234 C233 1.378 . S
C234 C235 1.409 . S
C235 C231 1.387 . S
C235 C234 1.409 . S
C235 H237 0.951 . S
C236 C231 1.491 . S
C236 C238 1.382 . S
C236 C240 1.404 . S
H237 C235 0.951 . S
C238 C236 1.382 . S
C238 C239 1.390 . S
C238 H243 0.949 . S
C239 C238 1.390 . S
C239 C244 1.399 . S
C240 C236 1.404 . S
C240 H241 0.950 . S
C240 C242 1.375 . S
H241 C240 0.950 . S
C242 C240 1.375 . S
C242 C244 1.382 . S
C242 H246 0.950 . S
H243 C238 0.949 . S
C244 C239 1.399 . S
C244 C242 1.382 . S
C244 H245 0.952 . S
H245 C244 0.952 . S
H246 C242 0.950 . S
H247 C248 0.949 . S
C248 H247 0.949 . S
C248 C249 1.395 . S
C248 C250 1.391 . S
C249 C248 1.395 . S
C249 C252 1.390 . S
C250 C248 1.391 . S
C250 C254 1.387 . S
C250 C255 1.491 . S
H251 C252 0.950 . S
C252 C249 1.390 . S
C252 H251 0.950 . S
C252 C253 1.378 . S
C253 C252 1.378 . S
C253 C254 1.409 . S
C254 C250 1.387 . S
C254 C253 1.409 . S
C254 H256 0.951 . S
C255 C250 1.491 . S
C255 C257 1.382 1_556 S
C255 C259 1.404 . S
H256 C254 0.951 . S
C257 C255 1.382 1_554 S
C257 C258 1.390 . S
C257 H262 0.949 . S
C258 C257 1.390 . S
C258 C263 1.399 1_554 S
C259 C255 1.404 . S
C259 H260 0.950 . S
C259 C261 1.375 . S
H260 C259 0.950 . S
C261 C259 1.375 . S
C261 C263 1.382 . S
C261 H265 0.950 . S
H262 C257 0.949 . S
C263 C258 1.399 1_556 S
C263 C261 1.382 . S
C263 H264 0.952 1_556 S
H264 C263 0.952 1_554 S
H265 C261 0.950 . S
H266 C267 0.949 . S
C267 H266 0.949 . S
C267 C268 1.395 . S
C267 C269 1.391 . S
C268 C267 1.395 . S
C268 C271 1.390 . S
C269 C267 1.391 . S
C269 C273 1.387 . S
C269 C274 1.491 . S
H270 C271 0.950 . S
C271 C268 1.390 . S
C271 H270 0.950 . S
C271 C272 1.378 . S
C272 C271 1.378 . S
C272 C273 1.409 . S
C273 C269 1.387 . S
C273 C272 1.409 . S
C273 H275 0.951 . S
C274 C269 1.491 . S
C274 C276 1.382 . S
C274 C278 1.404 . S
H275 C273 0.951 . S
C276 C274 1.382 . S
C276 C277 1.390 . S
C276 H281 0.949 . S
C277 C276 1.390 . S
C277 C282 1.399 . S
C278 C274 1.404 . S
C278 H279 0.950 . S
C278 C280 1.375 . S
H279 C278 0.950 . S
C280 C278 1.375 . S
C280 C282 1.382 . S
C280 H284 0.950 . S
H281 C276 0.949 . S
C282 C277 1.399 . S
C282 C280 1.382 . S
C282 H283 0.952 . S
H283 C282 0.952 . S
H284 C280 0.950 . S
H285 C286 0.949 . S
C286 H285 0.949 . S
C286 C287 1.395 . S
C286 C288 1.391 . S
C287 C286 1.395 . S
C287 C290 1.390 . S
C288 C286 1.391 . S
C288 C292 1.387 . S
C288 C293 1.491 . S
H289 C290 0.950 . S
C290 C287 1.390 . S
C290 H289 0.950 . S
C290 C291 1.378 . S
C291 C290 1.378 . S
C291 C292 1.409 . S
C292 C288 1.387 . S
C292 C291 1.409 . S
C292 H294 0.951 . S
C293 C288 1.491 . S
C293 C295 1.382 . S
C293 C297 1.404 . S
H294 C292 0.951 . S
C295 C293 1.382 . S
C295 C296 1.390 . S
C295 H300 0.949 . S
C296 C295 1.390 . S
C296 C301 1.399 . S
C297 C293 1.404 . S
C297 H298 0.950 . S
C297 C299 1.375 . S
H298 C297 0.950 . S
C299 C297 1.375 . S
C299 C301 1.382 . S
C299 H303 0.950 . S
H300 C295 0.949 . S
C301 C296 1.399 . S
C301 C299 1.382 . S
C301 H302 0.952 . S
H302 C301 0.952 . S
H303 C299 0.950 . S
Zn304 O307 2.031 . S
Zn304 O309 2.049 . S
Zn304 O314 2.067 1_554 S
Zn305 O306 1.962 . S
Zn305 O308 1.986 . S
Zn305 O310 1.996 . S
Zn305 O313 1.943 . S
O306 Zn305 1.962 . S
O306 C311 1.254 . S
O307 Zn304 2.031 . S
O307 C311 1.269 . S
O308 Zn305 1.986 . S
O308 C315 1.262 . S
O309 Zn304 2.049 . S
O309 C317 1.260 . S
O310 Zn305 1.996 . S
O310 C317 1.257 . S
C311 O306 1.254 . S
C311 O307 1.269 . S
C312 O313 1.249 1_556 S
C312 O314 1.270 . S
O313 Zn305 1.943 . S
O313 C312 1.249 1_554 S
O314 Zn304 2.067 1_556 S
O314 C312 1.270 . S
C315 O308 1.262 . S
C315 O316 1.232 . S
O316 C315 1.232 . S
C317 O309 1.260 . S
C317 O310 1.257 . S
Zn318 O321 2.031 . S
Zn318 O323 2.049 . S
Zn318 O328 2.067 . S
Zn319 O320 1.962 . S
Zn319 O322 1.986 . S
Zn319 O324 1.996 . S
Zn319 O327 1.943 . S
O320 Zn319 1.962 . S
O320 C325 1.254 . S
O321 Zn318 2.031 . S
O321 C325 1.269 . S
O322 Zn319 1.986 . S
O322 C329 1.262 . S
O323 Zn318 2.049 . S
O323 C331 1.260 . S
O324 Zn319 1.996 . S
O324 C331 1.257 . S
C325 O320 1.254 . S
C325 O321 1.269 . S
C326 O327 1.249 . S
C326 O328 1.270 . S
O327 Zn319 1.943 . S
O327 C326 1.249 . S
O328 Zn318 2.067 . S
O328 C326 1.270 . S
C329 O322 1.262 . S
C329 O330 1.232 . S
O330 C329 1.232 . S
C331 O323 1.260 . S
C331 O324 1.257 . S
Zn332 O335 2.031 . S
Zn332 O337 2.049 . S
Zn332 O342 2.067 . S
Zn333 O334 1.962 . S
Zn333 O336 1.986 . S
Zn333 O338 1.996 1_554 S
Zn333 O341 1.943 . S
O334 Zn333 1.962 . S
O334 C339 1.254 . S
O335 Zn332 2.031 . S
O335 C339 1.269 1_556 S
O336 Zn333 1.986 . S
O336 C343 1.262 . S
O337 Zn332 2.049 . S
O337 C345 1.260 . S
O338 Zn333 1.996 1_556 S
O338 C345 1.257 . S
C339 O334 1.254 . S
C339 O335 1.269 1_554 S
C340 O341 1.249 1_556 S
C340 O342 1.270 . S
O341 Zn333 1.943 . S
O341 C340 1.249 1_554 S
O342 Zn332 2.067 . S
O342 C340 1.270 . S
C343 O336 1.262 . S
C343 O344 1.232 . S
O344 C343 1.232 . S
C345 O337 1.260 . S
C345 O338 1.257 . S
Zn346 O349 2.031 . S
Zn346 O351 2.049 . S
Zn346 O356 2.067 1_545 S
Zn347 O348 1.962 . S
Zn347 O350 1.986 1_655 S
Zn347 O352 1.996 . S
Zn347 O355 1.943 1_545 S
O348 Zn347 1.962 . S
O348 C353 1.254 . S
O349 Zn346 2.031 . S
O349 C353 1.269 . S
O350 Zn347 1.986 1_455 S
O350 C357 1.262 1_455 S
O351 Zn346 2.049 . S
O351 C359 1.260 . S
O352 Zn347 1.996 . S
O352 C359 1.257 . S
C353 O348 1.254 . S
C353 O349 1.269 . S
C354 O355 1.249 . S
C354 O356 1.270 . S
O355 Zn347 1.943 1_565 S
O355 C354 1.249 . S
O356 Zn346 2.067 1_565 S
O356 C354 1.270 . S
C357 O350 1.262 1_655 S
C357 O358 1.232 . S
O358 C357 1.232 . S
C359 O351 1.260 . S
C359 O352 1.257 . S
Zn360 O363 2.031 . S
Zn360 O365 2.049 . S
Zn360 O370 2.067 . S
Zn361 O362 1.962 . S
Zn361 O364 1.986 . S
Zn361 O366 1.996 . S
Zn361 O369 1.943 . S
O362 Zn361 1.962 . S
O362 C367 1.254 . S
O363 Zn360 2.031 . S
O363 C367 1.269 . S
O364 Zn361 1.986 . S
O364 C371 1.262 . S
O365 Zn360 2.049 . S
O365 C373 1.260 . S
O366 Zn361 1.996 . S
O366 C373 1.257 . S
C367 O362 1.254 . S
C367 O363 1.269 . S
C368 O369 1.249 . S
C368 O370 1.270 . S
O369 Zn361 1.943 . S
O369 C368 1.249 . S
O370 Zn360 2.067 . S
O370 C368 1.270 . S
C371 O364 1.262 . S
C371 O372 1.232 . S
O372 C371 1.232 . S
C373 O365 1.260 . S
C373 O366 1.257 . S
Zn374 O377 2.031 . S
Zn374 O379 2.049 . S
Zn374 O384 2.067 . S
Zn375 O376 1.962 . S
Zn375 O378 1.986 . S
Zn375 O380 1.996 . S
Zn375 O383 1.943 . S
O376 Zn375 1.962 . S
O376 C381 1.254 . S
O377 Zn374 2.031 . S
O377 C381 1.269 . S
O378 Zn375 1.986 . S
O378 C385 1.262 . S
O379 Zn374 2.049 . S
O379 C387 1.260 . S
O380 Zn375 1.996 . S
O380 C387 1.257 . S
C381 O376 1.254 . S
C381 O377 1.269 . S
C382 O383 1.249 . S
C382 O384 1.270 . S
O383 Zn375 1.943 . S
O383 C382 1.249 . S
O384 Zn374 2.067 . S
O384 C382 1.270 . S
C385 O378 1.262 . S
C385 O386 1.232 . S
O386 C385 1.232 . S
C387 O379 1.260 . S
C387 O380 1.257 . S
Zn388 O391 2.031 . S
Zn388 O393 2.049 . S
Zn388 O398 2.067 . S
Zn389 O390 1.962 . S
Zn389 O392 1.986 . S
Zn389 O394 1.996 . S
Zn389 O397 1.943 . S
O390 Zn389 1.962 . S
O390 C395 1.254 . S
O391 Zn388 2.031 . S
O391 C395 1.269 . S
O392 Zn389 1.986 . S
O392 C399 1.262 . S
O393 Zn388 2.049 . S
O393 C401 1.260 . S
O394 Zn389 1.996 . S
O394 C401 1.257 . S
C395 O390 1.254 . S
C395 O391 1.269 . S
C396 O397 1.249 . S
C396 O398 1.270 . S
O397 Zn389 1.943 . S
O397 C396 1.249 . S
O398 Zn388 2.067 . S
O398 C396 1.270 . S
C399 O392 1.262 . S
C399 O400 1.232 . S
O400 C399 1.232 . S
C401 O393 1.260 . S
C401 O394 1.257 . S
Zn402 O405 2.031 1_565 S
Zn402 O407 2.049 . S
Zn402 O412 2.067 . S
Zn403 O404 1.962 . S
Zn403 O406 1.986 . S
Zn403 O408 1.996 1_545 S
Zn403 O411 1.943 . S
O404 Zn403 1.962 . S
O404 C409 1.254 . S
O405 Zn402 2.031 1_545 S
O405 C409 1.269 . S
O406 Zn403 1.986 . S
O406 C413 1.262 . S
O407 Zn402 2.049 . S
O407 C415 1.260 . S
O408 Zn403 1.996 1_565 S
O408 C415 1.257 . S
C409 O404 1.254 . S
C409 O405 1.269 . S
C410 O411 1.249 1_565 S
C410 O412 1.270 . S
O411 Zn403 1.943 . S
O411 C410 1.249 1_545 S
O412 Zn402 2.067 . S
O412 C410 1.270 . S
C413 O406 1.262 . S
C413 O414 1.232 . S
O414 C413 1.232 . S
C415 O407 1.260 . S
C415 O408 1.257 . S
Zn416 O419 2.031 . S
Zn416 O421 2.035 1_455 S
Zn416 O426 2.067 1_455 S
Zn417 O418 1.962 . S
Zn417 O420 1.986 . S
Zn417 O422 1.996 . S
Zn417 O425 1.943 1_455 S
O418 Zn417 1.962 . S
O418 C423 1.254 . S
O419 Zn416 2.031 . S
O419 C423 1.269 . S
O420 Zn417 1.986 . S
O420 C427 1.262 . S
O421 Zn416 2.035 1_655 S
O421 C429 1.253 1_655 S
O422 Zn417 1.996 . S
O422 C429 1.257 . S
C423 O418 1.254 . S
C423 O419 1.269 . S
C424 O425 1.249 . S
C424 O426 1.270 . S
O425 Zn417 1.943 1_655 S
O425 C424 1.249 . S
O426 Zn416 2.067 1_655 S
O426 C424 1.270 . S
C427 O420 1.262 . S
C427 O428 1.232 . S
O428 C427 1.232 . S
C429 O421 1.253 1_455 S
C429 O422 1.257 . S
Zn430 O433 2.031 . S
Zn430 O435 2.049 . S
Zn430 O440 2.067 . S
Zn431 O432 1.962 . S
Zn431 O434 1.986 . S
Zn431 O436 1.996 . S
Zn431 O439 1.943 . S
O432 Zn431 1.962 . S
O432 C437 1.254 . S
O433 Zn430 2.031 . S
O433 C437 1.269 . S
O434 Zn431 1.986 . S
O434 C441 1.262 . S
O435 Zn430 2.049 . S
O435 C443 1.260 . S
O436 Zn431 1.996 . S
O436 C443 1.257 . S
C437 O432 1.254 . S
C437 O433 1.269 . S
C438 O439 1.249 . S
C438 O440 1.270 . S
O439 Zn431 1.943 . S
O439 C438 1.249 . S
O440 Zn430 2.067 . S
O440 C438 1.270 . S
C441 O434 1.262 . S
C441 O442 1.232 . S
O442 C441 1.232 . S
C443 O435 1.260 . S
C443 O436 1.257 . S
Zn444 O447 2.031 1_655 S
Zn444 O449 2.049 . S
Zn444 O454 2.067 . S
Zn445 O446 1.962 . S
Zn445 O448 1.986 . S
Zn445 O450 1.996 1_455 S
Zn445 O453 1.943 . S
O446 Zn445 1.962 . S
O446 C451 1.254 . S
O447 Zn444 2.031 1_455 S
O447 C451 1.269 . S
O448 Zn445 1.986 . S
O448 C455 1.262 . S
O449 Zn444 2.049 . S
O449 C457 1.260 . S
O450 Zn445 1.996 1_655 S
O450 C457 1.257 . S
C451 O446 1.254 . S
C451 O447 1.269 . S
C452 O453 1.249 1_655 S
C452 O454 1.270 . S
O453 Zn445 1.943 . S
O453 C452 1.249 1_455 S
O454 Zn444 2.067 . S
O454 C452 1.270 . S
C455 O448 1.262 . S
C455 O456 1.232 . S
O456 C455 1.232 . S
C457 O449 1.260 . S
C457 O450 1.257 . S
Zn458 O461 2.031 . S
Zn458 O463 2.049 . S
Zn458 O468 2.067 . S
Zn459 O460 1.962 . S
Zn459 O462 1.986 . S
Zn459 O464 1.996 . S
Zn459 O467 1.943 . S
O460 Zn459 1.962 . S
O460 C465 1.254 . S
O461 Zn458 2.031 . S
O461 C465 1.269 . S
O462 Zn459 1.986 . S
O462 C469 1.262 . S
O463 Zn458 2.049 . S
O463 C471 1.260 . S
O464 Zn459 1.996 . S
O464 C471 1.257 . S
C465 O460 1.254 . S
C465 O461 1.269 . S
C466 O467 1.249 . S
C466 O468 1.270 . S
O467 Zn459 1.943 . S
O467 C466 1.249 . S
O468 Zn458 2.067 . S
O468 C466 1.270 . S
C469 O462 1.262 . S
C469 O470 1.232 . S
O470 C469 1.232 . S
C471 O463 1.260 . S
C471 O464 1.257 . S
H472 C478 0.930 . S
H473 C481 0.930 . S
H474 C482 0.930 . S
H475 C483 0.930 . S
H476 C486 0.930 . S
H477 C487 0.930 . S
C478 H472 0.930 . S
C478 C479 1.355 . S
C478 C480 1.415 . S
C479 C478 1.355 . S
C479 C481 1.419 . S
C480 C478 1.415 . S
C480 C485 1.425 . S
C480 C487 1.409 . S
C481 H473 0.930 . S
C481 C479 1.419 . S
C481 C482 1.362 . S
C482 H474 0.930 . S
C482 C481 1.362 . S
C482 C485 1.409 . S
C483 H475 0.930 . S
C483 C484 1.355 . S
C483 C485 1.415 . S
C484 C483 1.355 . S
C484 C486 1.419 . S
C485 C480 1.425 . S
C485 C482 1.409 . S
C485 C483 1.415 . S
C486 H476 0.930 . S
C486 C484 1.419 . S
C486 C487 1.362 . S
C487 H477 0.930 . S
C487 C480 1.409 . S
C487 C486 1.362 . S
H488 C494 0.930 . S
H489 C497 0.930 1_655 S
H490 C498 0.930 . S
H491 C499 0.930 . S
H492 C502 0.930 . S
H493 C503 0.930 . S
C494 H488 0.930 . S
C494 C495 1.355 . S
C494 C496 1.415 . S
C495 C494 1.355 . S
C495 C497 1.419 . S
C496 C494 1.415 . S
C496 C501 1.425 . S
C496 C503 1.409 . S
C497 H489 0.930 1_455 S
C497 C495 1.419 . S
C497 C498 1.362 . S
C498 H490 0.930 . S
C498 C497 1.362 . S
C498 C501 1.409 . S
C499 H491 0.930 . S
C499 C500 1.355 . S
C499 C501 1.415 . S
C500 C499 1.355 . S
C500 C502 1.419 . S
C501 C496 1.425 . S
C501 C498 1.409 . S
C501 C499 1.415 . S
C502 H492 0.930 . S
C502 C500 1.419 . S
C502 C503 1.362 . S
C503 H493 0.930 . S
C503 C496 1.409 . S
C503 C502 1.362 . S
H504 C510 0.930 . S
H505 C513 0.930 . S
H506 C514 0.930 . S
H507 C515 0.930 . S
H508 C518 0.930 . S
H509 C519 0.930 . S
C510 H504 0.930 . S
C510 C511 1.355 . S
C510 C512 1.415 . S
C511 C510 1.355 . S
C511 C513 1.419 . S
C512 C510 1.415 . S
C512 C517 1.425 . S
C512 C519 1.409 . S
C513 H505 0.930 . S
C513 C511 1.419 . S
C513 C514 1.362 . S
C514 H506 0.930 . S
C514 C513 1.362 . S
C514 C517 1.409 . S
C515 H507 0.930 . S
C515 C516 1.355 . S
C515 C517 1.415 . S
C516 C515 1.355 . S
C516 C518 1.419 . S
C517 C512 1.425 . S
C517 C514 1.409 . S
C517 C515 1.415 . S
C518 H508 0.930 . S
C518 C516 1.419 . S
C518 C519 1.362 . S
C519 H509 0.930 . S
C519 C512 1.409 . S
C519 C518 1.362 . S
H520 C526 0.930 . S
H521 C529 0.930 . S
H522 C530 0.930 . S
H523 C531 0.930 . S
H524 C534 0.930 . S
H525 C535 0.930 . S
C526 H520 0.930 . S
C526 C527 1.355 . S
C526 C528 1.415 . S
C527 C526 1.355 . S
C527 C529 1.419 1_565 S
C528 C526 1.415 . S
C528 C533 1.425 1_565 S
C528 C535 1.409 . S
C529 H521 0.930 . S
C529 C527 1.419 1_545 S
C529 C530 1.362 . S
C530 H522 0.930 . S
C530 C529 1.362 . S
C530 C533 1.409 . S
C531 H523 0.930 . S
C531 C532 1.355 . S
C531 C533 1.415 . S
C532 C531 1.355 . S
C532 C534 1.419 1_545 S
C533 C528 1.425 1_545 S
C533 C530 1.409 . S
C533 C531 1.415 . S
C534 H524 0.930 . S
C534 C532 1.419 1_565 S
C534 C535 1.362 . S
C535 H525 0.930 . S
C535 C528 1.409 . S
C535 C534 1.362 . S
H536 C542 0.930 . S
H537 C545 0.930 . S
H538 C546 0.930 . S
H539 C547 0.930 . S
H540 C550 0.930 . S
H541 C551 0.930 . S
C542 H536 0.930 . S
C542 C543 1.355 . S
C542 C544 1.415 . S
C543 C542 1.355 . S
C543 C545 1.419 . S
C544 C542 1.415 . S
C544 C549 1.425 . S
C544 C551 1.409 . S
C545 H537 0.930 . S
C545 C543 1.419 . S
C545 C546 1.362 . S
C546 H538 0.930 . S
C546 C545 1.362 . S
C546 C549 1.409 . S
C547 H539 0.930 . S
C547 C548 1.355 . S
C547 C549 1.415 . S
C548 C547 1.355 . S
C548 C550 1.419 . S
C549 C544 1.425 . S
C549 C546 1.409 . S
C549 C547 1.415 . S
C550 H540 0.930 . S
C550 C548 1.419 . S
C550 C551 1.362 . S
C551 H541 0.930 . S
C551 C544 1.409 . S
C551 C550 1.362 . S
H552 C558 0.930 . S
H553 C561 0.930 . S
H554 C562 0.930 . S
H555 C563 0.930 . S
H556 C566 0.930 . S
H557 C567 0.930 . S
C558 H552 0.930 . S
C558 C559 1.355 . S
C558 C560 1.415 . S
C559 C558 1.355 . S
C559 C561 1.419 . S
C560 C558 1.415 . S
C560 C565 1.425 . S
C560 C567 1.409 . S
C561 H553 0.930 . S
C561 C559 1.419 . S
C561 C562 1.362 . S
C562 H554 0.930 . S
C562 C561 1.362 . S
C562 C565 1.409 . S
C563 H555 0.930 . S
C563 C564 1.355 . S
C563 C565 1.415 . S
C564 C563 1.355 . S
C564 C566 1.419 . S
C565 C560 1.425 . S
C565 C562 1.409 . S
C565 C563 1.415 . S
C566 H556 0.930 . S
C566 C564 1.419 . S
C566 C567 1.362 . S
C567 H557 0.930 . S
C567 C560 1.409 . S
C567 C566 1.362 . S
H568 C574 0.930 . S
H569 C577 0.930 . S
H570 C578 0.930 . S
H571 C579 0.930 . S
H572 C582 0.930 . S
H573 C583 0.930 . S
C574 H568 0.930 . S
C574 C575 1.355 . S
C574 C576 1.415 . S
C575 C574 1.355 . S
C575 C577 1.419 . S
C576 C574 1.415 . S
C576 C581 1.425 . S
C576 C583 1.409 . S
C577 H569 0.930 . S
C577 C575 1.419 . S
C577 C578 1.362 . S
C578 H570 0.930 . S
C578 C577 1.362 . S
C578 C581 1.409 . S
C579 H571 0.930 . S
C579 C580 1.355 . S
C579 C581 1.415 . S
C580 C579 1.355 . S
C580 C582 1.419 . S
C581 C576 1.425 . S
C581 C578 1.409 . S
C581 C579 1.415 . S
C582 H572 0.930 . S
C582 C580 1.419 . S
C582 C583 1.362 . S
C583 H573 0.930 . S
C583 C576 1.409 . S
C583 C582 1.362 . S
H584 C590 0.930 . S
H585 C593 0.930 . S
H586 C594 0.930 1_545 S
H587 C595 0.922 1_545 S
H588 C598 0.930 . S
H589 C599 0.930 . S
C590 H584 0.930 . S
C590 C591 1.355 . S
C590 C592 1.415 . S
C591 C590 1.355 . S
C591 C593 1.419 . S
C592 C590 1.415 . S
C592 C597 1.425 . S
C592 C599 1.409 . S
C593 H585 0.930 . S
C593 C591 1.419 . S
C593 C594 1.362 . S
C594 H586 0.930 1_565 S
C594 C593 1.362 . S
C594 C597 1.409 . S
C595 H587 0.922 1_565 S
C595 C596 1.362 . S
C595 C597 1.416 . S
C596 C595 1.362 . S
C596 C598 1.419 . S
C597 C592 1.425 . S
C597 C594 1.409 . S
C597 C595 1.416 . S
C598 H588 0.930 . S
C598 C596 1.419 . S
C598 C599 1.362 . S
C599 H589 0.930 . S
C599 C592 1.409 . S
C599 C598 1.362 . S
H600 C606 0.930 . S
H601 C609 0.930 . S
H602 C610 0.930 . S
H603 C611 0.930 . S
H604 C614 0.930 . S
H605 C615 0.930 . S
C606 H600 0.930 . S
C606 C607 1.355 . S
C606 C608 1.415 . S
C607 C606 1.355 . S
C607 C609 1.419 . S
C608 C606 1.415 . S
C608 C613 1.425 . S
C608 C615 1.409 . S
C609 H601 0.930 . S
C609 C607 1.419 . S
C609 C610 1.362 . S
C610 H602 0.930 . S
C610 C609 1.362 . S
C610 C613 1.409 . S
C611 H603 0.930 . S
C611 C612 1.355 . S
C611 C613 1.415 . S
C612 C611 1.355 . S
C612 C614 1.419 . S
C613 C608 1.425 . S
C613 C610 1.409 . S
C613 C611 1.415 . S
C614 H604 0.930 . S
C614 C612 1.419 . S
C614 C615 1.362 . S
C615 H605 0.930 . S
C615 C608 1.409 . S
C615 C614 1.362 . S
H616 C622 0.930 . S
H617 C625 0.930 . S
H618 C626 0.930 . S
H619 C627 0.930 . S
H620 C630 0.930 . S
H621 C631 0.930 . S
C622 H616 0.930 . S
C622 C623 1.355 . S
C622 C624 1.415 . S
C623 C622 1.355 . S
C623 C625 1.419 . S
C624 C622 1.415 . S
C624 C629 1.425 . S
C624 C631 1.409 . S
C625 H617 0.930 . S
C625 C623 1.419 . S
C625 C626 1.362 . S
C626 H618 0.930 . S
C626 C625 1.362 . S
C626 C629 1.409 . S
C627 H619 0.930 . S
C627 C628 1.355 . S
C627 C629 1.415 . S
C628 C627 1.355 . S
C628 C630 1.419 . S
C629 C624 1.425 . S
C629 C626 1.409 . S
C629 C627 1.415 . S
C630 H620 0.930 . S
C630 C628 1.419 . S
C630 C631 1.362 . S
C631 H621 0.930 . S
C631 C624 1.409 . S
C631 C630 1.362 . S
H632 C638 0.930 . S
H633 C641 0.930 . S
H634 C642 0.930 . S
H635 C643 0.930 . S
H636 C646 0.930 . S
H637 C647 0.930 . S
C638 H632 0.930 . S
C638 C639 1.355 . S
C638 C640 1.415 . S
C639 C638 1.355 . S
C639 C641 1.419 . S
C640 C638 1.415 . S
C640 C645 1.425 . S
C640 C647 1.409 . S
C641 H633 0.930 . S
C641 C639 1.419 . S
C641 C642 1.362 . S
C642 H634 0.930 . S
C642 C641 1.362 . S
C642 C645 1.409 . S
C643 H635 0.930 . S
C643 C644 1.355 . S
C643 C645 1.415 . S
C644 C643 1.355 . S
C644 C646 1.419 . S
C645 C640 1.425 . S
C645 C642 1.409 . S
C645 C643 1.415 . S
C646 H636 0.930 . S
C646 C644 1.419 . S
C646 C647 1.362 . S
C647 H637 0.930 . S
C647 C640 1.409 . S
C647 C646 1.362 . S
H648 C654 0.930 . S
H649 C657 0.930 . S
H650 C658 0.930 . S
H651 C659 0.930 . S
H652 C662 0.930 . S
H653 C663 0.930 . S
C654 H648 0.930 . S
C654 C655 1.355 . S
C654 C656 1.415 . S
C655 C654 1.355 . S
C655 C657 1.419 . S
C656 C654 1.415 . S
C656 C661 1.425 . S
C656 C663 1.409 . S
C657 H649 0.930 . S
C657 C655 1.419 . S
C657 C658 1.362 . S
C658 H650 0.930 . S
C658 C657 1.362 . S
C658 C661 1.409 . S
C659 H651 0.930 . S
C659 C660 1.355 . S
C659 C661 1.415 . S
C660 C659 1.355 . S
C660 C662 1.419 . S
C661 C656 1.425 . S
C661 C658 1.409 . S
C661 C659 1.415 . S
C662 H652 0.930 . S
C662 C660 1.419 . S
C662 C663 1.362 . S
C663 H653 0.930 . S
C663 C656 1.409 . S
C663 C662 1.362 . S
H664 C670 0.930 . S
H665 C673 0.930 . S
H666 C674 0.930 . S
H667 C675 0.930 . S
H668 C678 0.930 . S
H669 C679 0.930 . S
C670 H664 0.930 . S
C670 C671 1.355 . S
C670 C672 1.415 . S
C671 C670 1.355 . S
C671 C673 1.419 . S
C672 C670 1.415 . S
C672 C677 1.425 . S
C672 C679 1.409 . S
C673 H665 0.930 . S
C673 C671 1.419 . S
C673 C674 1.362 . S
C674 H666 0.930 . S
C674 C673 1.362 . S
C674 C677 1.409 . S
C675 H667 0.930 . S
C675 C676 1.355 . S
C675 C677 1.415 . S
C676 C675 1.355 . S
C676 C678 1.419 . S
C677 C672 1.425 . S
C677 C674 1.409 . S
C677 C675 1.415 . S
C678 H668 0.930 . S
C678 C676 1.419 . S
C678 C679 1.362 . S
C679 H669 0.930 . S
C679 C672 1.409 . S
C679 C678 1.362 . S
H680 C686 0.930 . S
H681 C689 0.930 . S
H682 C690 0.930 . S
H683 C691 0.930 . S
H684 C694 0.930 . S
H685 C695 0.930 . S
C686 H680 0.930 . S
C686 C687 1.355 . S
C686 C688 1.415 . S
C687 C686 1.355 . S
C687 C689 1.419 . S
C688 C686 1.415 . S
C688 C693 1.425 . S
C688 C695 1.409 . S
C689 H681 0.930 . S
C689 C687 1.419 . S
C689 C690 1.362 . S
C690 H682 0.930 . S
C690 C689 1.362 . S
C690 C693 1.409 . S
C691 H683 0.930 . S
C691 C692 1.355 . S
C691 C693 1.415 . S
C692 C691 1.355 . S
C692 C694 1.419 . S
C693 C688 1.425 . S
C693 C690 1.409 . S
C693 C691 1.415 . S
C694 H684 0.930 . S
C694 C692 1.419 . S
C694 C695 1.362 . S
C695 H685 0.930 . S
C695 C688 1.409 . S
C695 C694 1.362 . S
H696 C702 0.930 . S
H697 C705 0.930 . S
H698 C706 0.930 . S
H699 C707 0.930 . S
H700 C710 0.930 . S
H701 C711 0.930 . S
C702 H696 0.930 . S
C702 C703 1.355 . S
C702 C704 1.415 . S
C703 C702 1.355 . S
C703 C705 1.419 . S
C704 C702 1.415 . S
C704 C709 1.425 . S
C704 C711 1.409 . S
C705 H697 0.930 . S
C705 C703 1.419 . S
C705 C706 1.362 . S
C706 H698 0.930 . S
C706 C705 1.362 . S
C706 C709 1.409 . S
C707 H699 0.930 . S
C707 C708 1.355 . S
C707 C709 1.415 . S
C708 C707 1.355 . S
C708 C710 1.419 . S
C709 C704 1.425 . S
C709 C706 1.409 . S
C709 C707 1.415 . S
C710 H700 0.930 . S
C710 C708 1.419 . S
C710 C711 1.362 . S
C711 H701 0.930 . S
C711 C704 1.409 . S
C711 C710 1.362 . S
H712 C718 0.930 . S
H713 C721 0.930 . S
H714 C722 0.930 . S
H715 C723 0.930 . S
H716 C726 0.930 . S
H717 C727 0.930 . S
C718 H712 0.930 . S
C718 C719 1.355 . S
C718 C720 1.415 . S
C719 C718 1.355 . S
C719 C721 1.419 . S
C720 C718 1.415 . S
C720 C725 1.425 . S
C720 C727 1.409 . S
C721 H713 0.930 . S
C721 C719 1.419 . S
C721 C722 1.362 . S
C722 H714 0.930 . S
C722 C721 1.362 . S
C722 C725 1.409 . S
C723 H715 0.930 . S
C723 C724 1.355 . S
C723 C725 1.415 . S
C724 C723 1.355 . S
C724 C726 1.419 . S
C725 C720 1.425 . S
C725 C722 1.409 . S
C725 C723 1.415 . S
C726 H716 0.930 . S
C726 C724 1.419 . S
C726 C727 1.362 . S
C727 H717 0.930 . S
C727 C720 1.409 . S
C727 C726 1.362 . S
H728 C734 0.930 . S
H729 C737 0.930 . S
H730 C738 0.930 . S
H731 C739 0.930 . S
H732 C742 0.930 . S
H733 C743 0.930 . S
C734 H728 0.930 . S
C734 C735 1.355 . S
C734 C736 1.415 . S
C735 C734 1.355 . S
C735 C737 1.419 . S
C736 C734 1.415 . S
C736 C741 1.425 . S
C736 C743 1.409 . S
C737 H729 0.930 . S
C737 C735 1.419 . S
C737 C738 1.362 . S
C738 H730 0.930 . S
C738 C737 1.362 . S
C738 C741 1.409 . S
C739 H731 0.930 . S
C739 C740 1.355 . S
C739 C741 1.415 . S
C740 C739 1.355 . S
C740 C742 1.419 . S
C741 C736 1.425 . S
C741 C738 1.409 . S
C741 C739 1.415 . S
C742 H732 0.930 . S
C742 C740 1.419 . S
C742 C743 1.362 . S
C743 H733 0.930 . S
C743 C736 1.409 . S
C743 C742 1.362 . S
H744 C750 0.930 . S
H745 C753 0.930 . S
H746 C754 0.930 . S
H747 C755 0.930 . S
H748 C758 0.930 . S
H749 C759 0.930 . S
C750 H744 0.930 . S
C750 C751 1.355 . S
C750 C752 1.415 . S
C751 C750 1.355 . S
C751 C753 1.419 . S
C752 C750 1.415 . S
C752 C757 1.425 . S
C752 C759 1.409 . S
C753 H745 0.930 . S
C753 C751 1.419 . S
C753 C754 1.362 . S
C754 H746 0.930 . S
C754 C753 1.362 . S
C754 C757 1.409 . S
C755 H747 0.930 . S
C755 C756 1.355 . S
C755 C757 1.415 . S
C756 C755 1.355 . S
C756 C758 1.419 . S
C757 C752 1.425 . S
C757 C754 1.409 . S
C757 C755 1.415 . S
C758 H748 0.930 . S
C758 C756 1.419 . S
C758 C759 1.362 . S
C759 H749 0.930 . S
C759 C752 1.409 . S
C759 C758 1.362 . S
H760 C766 0.930 . S
H761 C769 0.925 1_554 S
H762 C770 0.930 . S
H763 C771 0.930 . S
H764 C774 0.930 . S
H765 C775 0.930 . S
C766 H760 0.930 . S
C766 C767 1.355 . S
C766 C768 1.415 1_545 S
C767 C766 1.355 . S
C767 C769 1.455 . S
C768 C766 1.415 1_565 S
C768 C773 1.425 1_556 S
C768 C775 1.409 . S
C769 H761 0.925 1_556 S
C769 C767 1.455 . S
C769 C770 1.332 1_556 S
C770 H762 0.930 . S
C770 C769 1.332 1_554 S
C770 C773 1.409 1_545 S
C771 H763 0.930 . S
C771 C772 1.355 . S
C771 C773 1.415 . S
C772 C771 1.355 . S
C772 C774 1.419 1_554 S
C773 C768 1.425 1_554 S
C773 C770 1.409 1_565 S
C773 C771 1.415 . S
C774 H764 0.930 . S
C774 C772 1.419 1_556 S
C774 C775 1.362 . S
C775 H765 0.930 . S
C775 C768 1.409 . S
C775 C774 1.362 . S
H776 C782 0.930 . S
H777 C785 0.930 . S
H778 C786 0.930 . S
H779 C787 0.930 . S
H780 C790 0.930 . S
H781 C791 0.930 . S
C782 H776 0.930 . S
C782 C783 1.355 . S
C782 C784 1.415 . S
C783 C782 1.355 . S
C783 C785 1.419 . S
C784 C782 1.415 . S
C784 C789 1.425 . S
C784 C791 1.409 . S
C785 H777 0.930 . S
C785 C783 1.419 . S
C785 C786 1.362 . S
C786 H778 0.930 . S
C786 C785 1.362 . S
C786 C789 1.409 . S
C787 H779 0.930 . S
C787 C788 1.355 . S
C787 C789 1.415 . S
C788 C787 1.355 . S
C788 C790 1.419 . S
C789 C784 1.425 . S
C789 C786 1.409 . S
C789 C787 1.415 . S
C790 H780 0.930 . S
C790 C788 1.419 . S
C790 C791 1.362 . S
C791 H781 0.930 . S
C791 C784 1.409 . S
C791 C790 1.362 . S
H792 C798 0.930 1_565 S
H793 C801 0.930 . S
H794 C802 0.930 . S
H795 C803 0.930 . S
H796 C806 0.930 . S
H797 C807 0.930 . S
C798 H792 0.930 1_545 S
C798 C799 1.355 . S
C798 C800 1.415 . S
C799 C798 1.355 . S
C799 C801 1.419 . S
C800 C798 1.415 . S
C800 C805 1.425 . S
C800 C807 1.409 . S
C801 H793 0.930 . S
C801 C799 1.419 . S
C801 C802 1.362 . S
C802 H794 0.930 . S
C802 C801 1.362 . S
C802 C805 1.409 . S
C803 H795 0.930 . S
C803 C804 1.355 . S
C803 C805 1.415 . S
C804 C803 1.355 . S
C804 C806 1.419 . S
C805 C800 1.425 . S
C805 C802 1.409 . S
C805 C803 1.415 . S
C806 H796 0.930 . S
C806 C804 1.419 . S
C806 C807 1.362 . S
C807 H797 0.930 . S
C807 C800 1.409 . S
C807 C806 1.362 . S
H808 C814 0.930 . S
H809 C817 0.930 . S
H810 C818 0.930 . S
H811 C819 0.930 . S
H812 C822 0.930 . S
H813 C823 0.930 . S
C814 H808 0.930 . S
C814 C815 1.355 . S
C814 C816 1.415 . S
C815 C814 1.355 . S
C815 C817 1.419 . S
C816 C814 1.415 . S
C816 C821 1.425 . S
C816 C823 1.409 . S
C817 H809 0.930 . S
C817 C815 1.419 . S
C817 C818 1.362 . S
C818 H810 0.930 . S
C818 C817 1.362 . S
C818 C821 1.409 . S
C819 H811 0.930 . S
C819 C820 1.355 . S
C819 C821 1.415 . S
C820 C819 1.355 . S
C820 C822 1.419 . S
C821 C816 1.425 . S
C821 C818 1.409 . S
C821 C819 1.415 . S
C822 H812 0.930 . S
C822 C820 1.419 . S
C822 C823 1.362 . S
C823 H813 0.930 . S
C823 C816 1.409 . S
C823 C822 1.362 . S
H824 C830 0.930 . S
H825 C833 0.930 . S
H826 C834 0.930 . S
H827 C835 0.930 . S
H828 C838 0.930 . S
H829 C839 0.930 . S
C830 H824 0.930 . S
C830 C831 1.355 . S
C830 C832 1.415 . S
C831 C830 1.355 . S
C831 C833 1.419 . S
C832 C830 1.415 . S
C832 C837 1.425 . S
C832 C839 1.409 . S
C833 H825 0.930 . S
C833 C831 1.419 . S
C833 C834 1.362 . S
C834 H826 0.930 . S
C834 C833 1.362 . S
C834 C837 1.409 . S
C835 H827 0.930 . S
C835 C836 1.355 . S
C835 C837 1.415 . S
C836 C835 1.355 . S
C836 C838 1.419 . S
C837 C832 1.425 . S
C837 C834 1.409 . S
C837 C835 1.415 . S
C838 H828 0.930 . S
C838 C836 1.419 . S
C838 C839 1.362 . S
C839 H829 0.930 . S
C839 C832 1.409 . S
C839 C838 1.362 . S
H840 C846 0.930 . S
H841 C849 0.930 . S
H842 C850 0.930 . S
H843 C851 0.930 . S
H844 C854 0.930 . S
H845 C855 0.930 . S
C846 H840 0.930 . S
C846 C847 1.355 . S
C846 C848 1.415 . S
C847 C846 1.355 . S
C847 C849 1.419 . S
C848 C846 1.415 . S
C848 C853 1.425 . S
C848 C855 1.409 . S
C849 H841 0.930 . S
C849 C847 1.419 . S
C849 C850 1.362 . S
C850 H842 0.930 . S
C850 C849 1.362 . S
C850 C853 1.409 . S
C851 H843 0.930 . S
C851 C852 1.355 . S
C851 C853 1.415 . S
C852 C851 1.355 . S
C852 C854 1.419 . S
C853 C848 1.425 . S
C853 C850 1.409 . S
C853 C851 1.415 . S
C854 H844 0.930 . S
C854 C852 1.419 . S
C854 C855 1.362 . S
C855 H845 0.930 . S
C855 C848 1.409 . S
C855 C854 1.362 . S
H856 C862 0.930 . S
H857 C865 0.930 . S
H858 C866 0.930 . S
H859 C867 0.930 . S
H860 C870 0.930 . S
H861 C871 0.930 . S
C862 H856 0.930 . S
C862 C863 1.355 . S
C862 C864 1.415 . S
C863 C862 1.355 . S
C863 C865 1.419 . S
C864 C862 1.415 . S
C864 C869 1.425 . S
C864 C871 1.409 . S
C865 H857 0.930 . S
C865 C863 1.419 . S
C865 C866 1.362 . S
C866 H858 0.930 . S
C866 C865 1.362 . S
C866 C869 1.409 . S
C867 H859 0.930 . S
C867 C868 1.355 . S
C867 C869 1.415 . S
C868 C867 1.355 . S
C868 C870 1.419 . S
C869 C864 1.425 . S
C869 C866 1.409 . S
C869 C867 1.415 . S
C870 H860 0.930 . S
C870 C868 1.419 . S
C870 C871 1.362 . S
C871 H861 0.930 . S
C871 C864 1.409 . S
C871 C870 1.362 . S
H872 C878 0.930 . S
H873 C881 0.930 . S
H874 C882 0.930 . S
H875 C883 0.930 . S
H876 C886 0.930 . S
H877 C887 0.930 . S
C878 H872 0.930 . S
C878 C879 1.355 . S
C878 C880 1.415 . S
C879 C878 1.355 . S
C879 C881 1.419 . S
C880 C878 1.415 . S
C880 C885 1.425 . S
C880 C887 1.409 . S
C881 H873 0.930 . S
C881 C879 1.419 . S
C881 C882 1.362 . S
C882 H874 0.930 . S
C882 C881 1.362 . S
C882 C885 1.409 . S
C883 H875 0.930 . S
C883 C884 1.355 . S
C883 C885 1.415 . S
C884 C883 1.355 . S
C884 C886 1.419 . S
C885 C880 1.425 . S
C885 C882 1.409 . S
C885 C883 1.415 . S
C886 H876 0.930 . S
C886 C884 1.419 . S
C886 C887 1.362 . S
C887 H877 0.930 . S
C887 C880 1.409 . S
C887 C886 1.362 . S
H888 C894 0.930 . S
H889 C897 0.930 . S
H890 C898 0.930 . S
H891 C899 0.930 . S
H892 C902 0.930 . S
H893 C903 0.930 . S
C894 H888 0.930 . S
C894 C895 1.355 . S
C894 C896 1.415 . S
C895 C894 1.355 . S
C895 C897 1.419 . S
C896 C894 1.415 . S
C896 C901 1.425 . S
C896 C903 1.409 . S
C897 H889 0.930 . S
C897 C895 1.419 . S
C897 C898 1.362 . S
C898 H890 0.930 . S
C898 C897 1.362 . S
C898 C901 1.409 . S
C899 H891 0.930 . S
C899 C900 1.355 . S
C899 C901 1.415 . S
C900 C899 1.355 . S
C900 C902 1.419 . S
C901 C896 1.425 . S
C901 C898 1.409 . S
C901 C899 1.415 . S
C902 H892 0.930 . S
C902 C900 1.419 . S
C902 C903 1.362 . S
C903 H893 0.930 . S
C903 C896 1.409 . S
C903 C902 1.362 . S
H904 C910 0.930 . S
H905 C913 0.930 . S
H906 C914 0.930 . S
H907 C915 0.930 . S
H908 C918 0.930 . S
H909 C919 0.930 . S
C910 H904 0.930 . S
C910 C911 1.355 . S
C910 C912 1.415 . S
C911 C910 1.355 . S
C911 C913 1.419 . S
C912 C910 1.415 . S
C912 C917 1.425 . S
C912 C919 1.409 . S
C913 H905 0.930 . S
C913 C911 1.419 . S
C913 C914 1.362 . S
C914 H906 0.930 . S
C914 C913 1.362 . S
C914 C917 1.409 . S
C915 H907 0.930 . S
C915 C916 1.355 . S
C915 C917 1.415 . S
C916 C915 1.355 . S
C916 C918 1.419 . S
C917 C912 1.425 . S
C917 C914 1.409 . S
C917 C915 1.415 . S
C918 H908 0.930 . S
C918 C916 1.419 . S
C918 C919 1.362 . S
C919 H909 0.930 . S
C919 C912 1.409 . S
C919 C918 1.362 . S
H920 C926 0.930 . S
H921 C929 0.930 . S
H922 C930 0.930 . S
H923 C931 0.930 . S
H924 C934 0.930 . S
H925 C935 0.930 . S
C926 H920 0.930 . S
C926 C927 1.355 . S
C926 C928 1.415 . S
C927 C926 1.355 . S
C927 C929 1.419 . S
C928 C926 1.415 . S
C928 C933 1.425 . S
C928 C935 1.409 . S
C929 H921 0.930 . S
C929 C927 1.419 . S
C929 C930 1.362 . S
C930 H922 0.930 . S
C930 C929 1.362 . S
C930 C933 1.409 . S
C931 H923 0.930 . S
C931 C932 1.355 . S
C931 C933 1.415 . S
C932 C931 1.355 . S
C932 C934 1.419 . S
C933 C928 1.425 . S
C933 C930 1.409 . S
C933 C931 1.415 . S
C934 H924 0.930 . S
C934 C932 1.419 . S
C934 C935 1.362 . S
C935 H925 0.930 . S
C935 C928 1.409 . S
C935 C934 1.362 . S
H936 C942 0.930 . S
H937 C945 0.930 . S
H938 C946 0.930 1_655 S
H939 C947 0.930 1_655 S
H940 C950 0.930 . S
H941 C951 0.930 . S
C942 H936 0.930 . S
C942 C943 1.355 . S
C942 C944 1.415 . S
C943 C942 1.355 . S
C943 C945 1.419 . S
C944 C942 1.415 . S
C944 C949 1.425 . S
C944 C951 1.409 . S
C945 H937 0.930 . S
C945 C943 1.419 . S
C945 C946 1.362 . S
C946 H938 0.930 1_455 S
C946 C945 1.362 . S
C946 C949 1.409 . S
C947 H939 0.930 1_455 S
C947 C948 1.355 . S
C947 C949 1.415 . S
C948 C947 1.355 . S
C948 C950 1.419 . S
C949 C944 1.425 . S
C949 C946 1.409 . S
C949 C947 1.415 . S
C950 H940 0.930 . S
C950 C948 1.419 . S
C950 C951 1.362 . S
C951 H941 0.930 . S
C951 C944 1.409 . S
C951 C950 1.362 . S
H952 C958 0.930 . S
H953 C961 0.930 . S
H954 C962 0.930 . S
H955 C963 0.930 . S
H956 C966 0.930 . S
H957 C967 0.930 . S
C958 H952 0.930 . S
C958 C959 1.355 . S
C958 C960 1.415 . S
C959 C958 1.355 . S
C959 C961 1.419 . S
C960 C958 1.415 . S
C960 C965 1.425 . S
C960 C967 1.409 . S
C961 H953 0.930 . S
C961 C959 1.419 . S
C961 C962 1.362 . S
C962 H954 0.930 . S
C962 C961 1.362 . S
C962 C965 1.409 . S
C963 H955 0.930 . S
C963 C964 1.355 . S
C963 C965 1.415 . S
C964 C963 1.355 . S
C964 C966 1.419 . S
C965 C960 1.425 . S
C965 C962 1.409 . S
C965 C963 1.415 . S
C966 H956 0.930 . S
C966 C964 1.419 . S
C966 C967 1.362 . S
C967 H957 0.930 . S
C967 C960 1.409 . S
C967 C966 1.362 . S
H968 C974 0.930 . S
H969 C977 0.930 1_655 S
H970 C978 0.930 . S
H971 C979 0.930 . S
H972 C982 0.930 . S
H973 C983 0.930 . S
C974 H968 0.930 . S
C974 C975 1.355 . S
C974 C976 1.415 . S
C975 C974 1.355 . S
C975 C977 1.419 . S
C976 C974 1.415 . S
C976 C981 1.425 . S
C976 C983 1.409 . S
C977 H969 0.930 1_455 S
C977 C975 1.419 . S
C977 C978 1.362 . S
C978 H970 0.930 . S
C978 C977 1.362 . S
C978 C981 1.409 . S
C979 H971 0.930 . S
C979 C980 1.355 . S
C979 C981 1.415 . S
C980 C979 1.355 . S
C980 C982 1.419 . S
C981 C976 1.425 . S
C981 C978 1.409 . S
C981 C979 1.415 . S
C982 H972 0.930 . S
C982 C980 1.419 . S
C982 C983 1.362 . S
C983 H973 0.930 . S
C983 C976 1.409 . S
C983 C982 1.362 . S
H984 C990 0.930 . S
H985 C993 0.930 . S
H986 C994 0.930 . S
H987 C995 0.930 . S
H988 C998 0.930 . S
H989 C999 0.930 . S
C990 H984 0.930 . S
C990 C991 1.355 . S
C990 C992 1.415 . S
C991 C990 1.355 . S
C991 C993 1.419 . S
C992 C990 1.415 . S
C992 C997 1.425 . S
C992 C999 1.409 . S
C993 H985 0.930 . S
C993 C991 1.419 . S
C993 C994 1.362 . S
C994 H986 0.930 . S
C994 C993 1.362 . S
C994 C997 1.409 . S
C995 H987 0.930 . S
C995 C996 1.355 . S
C995 C997 1.415 . S
C996 C995 1.355 . S
C996 C998 1.419 . S
C997 C992 1.425 . S
C997 C994 1.409 . S
C997 C995 1.415 . S
C998 H988 0.930 . S
C998 C996 1.419 . S
C998 C999 1.362 . S
C999 H989 0.930 . S
C999 C992 1.409 . S
C999 C998 1.362 . S
H1000 C1006 0.930 . S
H1001 C1009 0.930 . S
H1002 C1010 0.930 . S
H1003 C1011 0.930 . S
H1004 C1014 0.930 . S
H1005 C1015 0.930 . S
C1006 H1000 0.930 . S
C1006 C1007 1.355 . S
C1006 C1008 1.415 . S
C1007 C1006 1.355 . S
C1007 C1009 1.419 1_655 S
C1008 C1006 1.415 . S
C1008 C1013 1.425 1_655 S
C1008 C1015 1.409 . S
C1009 H1001 0.930 . S
C1009 C1007 1.419 1_455 S
C1009 C1010 1.362 . S
C1010 H1002 0.930 . S
C1010 C1009 1.362 . S
C1010 C1013 1.409 . S
C1011 H1003 0.930 . S
C1011 C1012 1.355 1_455 S
C1011 C1013 1.415 . S
C1012 C1011 1.355 1_655 S
C1012 C1014 1.419 . S
C1013 C1008 1.425 1_455 S
C1013 C1010 1.409 . S
C1013 C1011 1.415 . S
C1014 H1004 0.930 . S
C1014 C1012 1.419 . S
C1014 C1015 1.362 . S
C1015 H1005 0.930 . S
C1015 C1008 1.409 . S
C1015 C1014 1.362 . S
H1016 C1022 0.930 . S
H1017 C1025 0.930 . S
H1018 C1026 0.930 . S
H1019 C1027 0.930 . S
H1020 C1030 0.930 . S
H1021 C1031 0.930 . S
C1022 H1016 0.930 . S
C1022 C1023 1.355 . S
C1022 C1024 1.415 . S
C1023 C1022 1.355 . S
C1023 C1025 1.419 . S
C1024 C1022 1.415 . S
C1024 C1029 1.425 . S
C1024 C1031 1.409 . S
C1025 H1017 0.930 . S
C1025 C1023 1.419 . S
C1025 C1026 1.362 . S
C1026 H1018 0.930 . S
C1026 C1025 1.362 . S
C1026 C1029 1.409 . S
C1027 H1019 0.930 . S
C1027 C1028 1.355 . S
C1027 C1029 1.415 . S
C1028 C1027 1.355 . S
C1028 C1030 1.419 . S
C1029 C1024 1.425 . S
C1029 C1026 1.409 . S
C1029 C1027 1.415 . S
C1030 H1020 0.930 . S
C1030 C1028 1.419 . S
C1030 C1031 1.362 . S
C1031 H1021 0.930 . S
C1031 C1024 1.409 . S
C1031 C1030 1.362 . S
H1032 C1038 0.930 . S
H1033 C1041 0.930 . S
H1034 C1042 0.930 . S
H1035 C1043 0.930 . S
H1036 C1046 0.930 1_655 S
H1037 C1047 0.930 1_655 S
C1038 H1032 0.930 . S
C1038 C1039 1.355 . S
C1038 C1040 1.415 . S
C1039 C1038 1.355 . S
C1039 C1041 1.419 . S
C1040 C1038 1.415 . S
C1040 C1045 1.425 . S
C1040 C1047 1.409 . S
C1041 H1033 0.930 . S
C1041 C1039 1.419 . S
C1041 C1042 1.362 . S
C1042 H1034 0.930 . S
C1042 C1041 1.362 . S
C1042 C1045 1.409 . S
C1043 H1035 0.930 . S
C1043 C1044 1.355 . S
C1043 C1045 1.415 . S
C1044 C1043 1.355 . S
C1044 C1046 1.419 . S
C1045 C1040 1.425 . S
C1045 C1042 1.409 . S
C1045 C1043 1.415 . S
C1046 H1036 0.930 1_455 S
C1046 C1044 1.419 . S
C1046 C1047 1.362 . S
C1047 H1037 0.930 1_455 S
C1047 C1040 1.409 . S
C1047 C1046 1.362 . S
H1048 C1054 0.930 . S
H1049 C1057 0.930 . S
H1050 C1058 0.930 . S
H1051 C1059 0.930 . S
H1052 C1062 0.930 . S
H1053 C1063 0.930 . S
C1054 H1048 0.930 . S
C1054 C1055 1.355 . S
C1054 C1056 1.415 . S
C1055 C1054 1.355 . S
C1055 C1057 1.419 . S
C1056 C1054 1.415 . S
C1056 C1061 1.425 . S
C1056 C1063 1.409 . S
C1057 H1049 0.930 . S
C1057 C1055 1.419 . S
C1057 C1058 1.362 . S
C1058 H1050 0.930 . S
C1058 C1057 1.362 . S
C1058 C1061 1.409 . S
C1059 H1051 0.930 . S
C1059 C1060 1.355 . S
C1059 C1061 1.415 . S
C1060 C1059 1.355 . S
C1060 C1062 1.419 . S
C1061 C1056 1.425 . S
C1061 C1058 1.409 . S
C1061 C1059 1.415 . S
C1062 H1052 0.930 . S
C1062 C1060 1.419 . S
C1062 C1063 1.362 . S
C1063 H1053 0.930 . S
C1063 C1056 1.409 . S
C1063 C1062 1.362 . S
H1064 C1070 0.930 . S
H1065 C1073 0.930 . S
H1066 C1074 0.930 . S
H1067 C1075 0.930 . S
H1068 C1078 0.930 . S
H1069 C1079 0.930 . S
C1070 H1064 0.930 . S
C1070 C1071 1.355 . S
C1070 C1072 1.415 . S
C1071 C1070 1.355 . S
C1071 C1073 1.419 . S
C1072 C1070 1.415 . S
C1072 C1077 1.425 . S
C1072 C1079 1.409 . S
C1073 H1065 0.930 . S
C1073 C1071 1.419 . S
C1073 C1074 1.362 . S
C1074 H1066 0.930 . S
C1074 C1073 1.362 . S
C1074 C1077 1.409 . S
C1075 H1067 0.930 . S
C1075 C1076 1.355 . S
C1075 C1077 1.415 . S
C1076 C1075 1.355 . S
C1076 C1078 1.419 . S
C1077 C1072 1.425 . S
C1077 C1074 1.409 . S
C1077 C1075 1.415 . S
C1078 H1068 0.930 . S
C1078 C1076 1.419 . S
C1078 C1079 1.362 . S
C1079 H1069 0.930 . S
C1079 C1072 1.409 . S
C1079 C1078 1.362 . S
H1080 C1086 0.930 . S
H1081 C1089 0.930 . S
H1082 C1090 0.930 . S
H1083 C1091 0.930 . S
H1084 C1094 0.930 . S
H1085 C1095 0.930 . S
C1086 H1080 0.930 . S
C1086 C1087 1.355 . S
C1086 C1088 1.415 . S
C1087 C1086 1.355 . S
C1087 C1089 1.419 . S
C1088 C1086 1.415 . S
C1088 C1093 1.425 . S
C1088 C1095 1.409 . S
C1089 H1081 0.930 . S
C1089 C1087 1.419 . S
C1089 C1090 1.362 . S
C1090 H1082 0.930 . S
C1090 C1089 1.362 . S
C1090 C1093 1.409 . S
C1091 H1083 0.930 . S
C1091 C1092 1.355 . S
C1091 C1093 1.415 . S
C1092 C1091 1.355 . S
C1092 C1094 1.419 . S
C1093 C1088 1.425 . S
C1093 C1090 1.409 . S
C1093 C1091 1.415 . S
C1094 H1084 0.930 . S
C1094 C1092 1.419 . S
C1094 C1095 1.362 . S
C1095 H1085 0.930 . S
C1095 C1088 1.409 . S
C1095 C1094 1.362 . S
H1096 C1102 0.930 . S
H1097 C1105 0.930 . S
H1098 C1106 0.930 . S
H1099 C1107 0.930 . S
H1100 C1110 0.930 . S
H1101 C1111 0.930 . S
C1102 H1096 0.930 . S
C1102 C1103 1.355 1_554 S
C1102 C1104 1.415 . S
C1103 C1102 1.355 1_556 S
C1103 C1105 1.419 . S
C1104 C1102 1.415 . S
C1104 C1109 1.425 . S
C1104 C1111 1.409 . S
C1105 H1097 0.930 . S
C1105 C1103 1.419 . S
C1105 C1106 1.362 1_556 S
C1106 H1098 0.930 . S
C1106 C1105 1.362 1_554 S
C1106 C1109 1.409 . S
C1107 H1099 0.930 . S
C1107 C1108 1.355 . S
C1107 C1109 1.415 . S
C1108 C1107 1.355 . S
C1108 C1110 1.419 . S
C1109 C1104 1.425 . S
C1109 C1106 1.409 . S
C1109 C1107 1.415 . S
C1110 H1100 0.930 . S
C1110 C1108 1.419 . S
C1110 C1111 1.362 . S
C1111 H1101 0.930 . S
C1111 C1104 1.409 . S
C1111 C1110 1.362 . S
H1112 C1118 0.930 . S
H1113 C1121 0.930 . S
H1114 C1122 0.930 . S
H1115 C1123 0.930 . S
H1116 C1126 0.930 . S
H1117 C1127 0.930 . S
C1118 H1112 0.930 . S
C1118 C1119 1.355 . S
C1118 C1120 1.415 . S
C1119 C1118 1.355 . S
C1119 C1121 1.419 . S
C1120 C1118 1.415 . S
C1120 C1125 1.425 . S
C1120 C1127 1.409 . S
C1121 H1113 0.930 . S
C1121 C1119 1.419 . S
C1121 C1122 1.362 . S
C1122 H1114 0.930 . S
C1122 C1121 1.362 . S
C1122 C1125 1.409 . S
C1123 H1115 0.930 . S
C1123 C1124 1.355 . S
C1123 C1125 1.415 . S
C1124 C1123 1.355 . S
C1124 C1126 1.419 . S
C1125 C1120 1.425 . S
C1125 C1122 1.409 . S
C1125 C1123 1.415 . S
C1126 H1116 0.930 . S
C1126 C1124 1.419 . S
C1126 C1127 1.362 . S
C1127 H1117 0.930 . S
C1127 C1120 1.409 . S
C1127 C1126 1.362 . S
H1128 C1134 0.930 . S
H1129 C1137 0.930 . S
H1130 C1138 0.930 . S
H1131 C1139 0.930 . S
H1132 C1142 0.930 . S
H1133 C1143 0.930 . S
C1134 H1128 0.930 . S
C1134 C1135 1.355 . S
C1134 C1136 1.415 . S
C1135 C1134 1.355 . S
C1135 C1137 1.419 . S
C1136 C1134 1.415 . S
C1136 C1141 1.425 . S
C1136 C1143 1.409 . S
C1137 H1129 0.930 . S
C1137 C1135 1.419 . S
C1137 C1138 1.362 . S
C1138 H1130 0.930 . S
C1138 C1137 1.362 . S
C1138 C1141 1.409 . S
C1139 H1131 0.930 . S
C1139 C1140 1.355 . S
C1139 C1141 1.415 . S
C1140 C1139 1.355 . S
C1140 C1142 1.419 . S
C1141 C1136 1.425 . S
C1141 C1138 1.409 . S
C1141 C1139 1.415 . S
C1142 H1132 0.930 . S
C1142 C1140 1.419 . S
C1142 C1143 1.362 . S
C1143 H1133 0.930 . S
C1143 C1136 1.409 . S
C1143 C1142 1.362 . S
H1144 C1150 0.930 . S
H1145 C1153 0.930 . S
H1146 C1154 0.930 . S
H1147 C1155 0.930 . S
H1148 C1158 0.930 . S
H1149 C1159 0.930 . S
C1150 H1144 0.930 . S
C1150 C1151 1.355 . S
C1150 C1152 1.415 . S
C1151 C1150 1.355 . S
C1151 C1153 1.419 . S
C1152 C1150 1.415 . S
C1152 C1157 1.425 . S
C1152 C1159 1.409 . S
C1153 H1145 0.930 . S
C1153 C1151 1.419 . S
C1153 C1154 1.362 . S
C1154 H1146 0.930 . S
C1154 C1153 1.362 . S
C1154 C1157 1.409 . S
C1155 H1147 0.930 . S
C1155 C1156 1.355 . S
C1155 C1157 1.415 . S
C1156 C1155 1.355 . S
C1156 C1158 1.419 . S
C1157 C1152 1.425 . S
C1157 C1154 1.409 . S
C1157 C1155 1.415 . S
C1158 H1148 0.930 . S
C1158 C1156 1.419 . S
C1158 C1159 1.362 . S
C1159 H1149 0.930 . S
C1159 C1152 1.409 . S
C1159 C1158 1.362 . S
H1160 C1166 0.930 . S
H1161 C1169 0.930 . S
H1162 C1170 0.930 . S
H1163 C1171 0.930 . S
H1164 C1174 0.930 . S
H1165 C1175 0.930 . S
C1166 H1160 0.930 . S
C1166 C1167 1.355 . S
C1166 C1168 1.415 . S
C1167 C1166 1.355 . S
C1167 C1169 1.419 . S
C1168 C1166 1.415 . S
C1168 C1173 1.425 . S
C1168 C1175 1.409 . S
C1169 H1161 0.930 . S
C1169 C1167 1.419 . S
C1169 C1170 1.362 . S
C1170 H1162 0.930 . S
C1170 C1169 1.362 . S
C1170 C1173 1.409 . S
C1171 H1163 0.930 . S
C1171 C1172 1.355 . S
C1171 C1173 1.415 . S
C1172 C1171 1.355 . S
C1172 C1174 1.419 . S
C1173 C1168 1.425 . S
C1173 C1170 1.409 . S
C1173 C1171 1.415 . S
C1174 H1164 0.930 . S
C1174 C1172 1.419 . S
C1174 C1175 1.362 . S
C1175 H1165 0.930 . S
C1175 C1168 1.409 . S
C1175 C1174 1.362 . S
H1176 C1182 0.930 . S
H1177 C1185 0.930 . S
H1178 C1186 0.930 . S
H1179 C1187 0.930 . S
H1180 C1190 0.930 . S
H1181 C1191 0.930 . S
C1182 H1176 0.930 . S
C1182 C1183 1.355 . S
C1182 C1184 1.415 . S
C1183 C1182 1.355 . S
C1183 C1185 1.419 1_556 S
C1184 C1182 1.415 . S
C1184 C1189 1.425 . S
C1184 C1191 1.409 . S
C1185 H1177 0.930 . S
C1185 C1183 1.419 1_554 S
C1185 C1186 1.362 . S
C1186 H1178 0.930 . S
C1186 C1185 1.362 . S
C1186 C1189 1.409 1_554 S
C1187 H1179 0.930 . S
C1187 C1188 1.355 1_554 S
C1187 C1189 1.415 1_554 S
C1188 C1187 1.355 1_556 S
C1188 C1190 1.419 . S
C1189 C1184 1.425 . S
C1189 C1186 1.409 1_556 S
C1189 C1187 1.415 1_556 S
C1190 H1180 0.930 . S
C1190 C1188 1.419 . S
C1190 C1191 1.362 . S
C1191 H1181 0.930 . S
C1191 C1184 1.409 . S
C1191 C1190 1.362 . S
H1192 C1198 0.930 . S
H1193 C1201 0.930 . S
H1194 C1202 0.930 . S
H1195 C1203 0.930 . S
H1196 C1206 0.930 . S
H1197 C1207 0.930 . S
C1198 H1192 0.930 . S
C1198 C1199 1.355 . S
C1198 C1200 1.415 . S
C1199 C1198 1.355 . S
C1199 C1201 1.419 . S
C1200 C1198 1.415 . S
C1200 C1205 1.425 . S
C1200 C1207 1.409 . S
C1201 H1193 0.930 . S
C1201 C1199 1.419 . S
C1201 C1202 1.362 . S
C1202 H1194 0.930 . S
C1202 C1201 1.362 . S
C1202 C1205 1.409 . S
C1203 H1195 0.930 . S
C1203 C1204 1.355 . S
C1203 C1205 1.415 . S
C1204 C1203 1.355 . S
C1204 C1206 1.419 . S
C1205 C1200 1.425 . S
C1205 C1202 1.409 . S
C1205 C1203 1.415 . S
C1206 H1196 0.930 . S
C1206 C1204 1.419 . S
C1206 C1207 1.362 . S
C1207 H1197 0.930 . S
C1207 C1200 1.409 . S
C1207 C1206 1.362 . S
H1208 C1214 0.930 . S
H1209 C1217 0.930 . S
H1210 C1218 0.930 . S
H1211 C1219 0.930 . S
H1212 C1222 0.957 . S
H1213 C1223 0.930 1_556 S
C1214 H1208 0.930 . S
C1214 C1215 1.355 . S
C1214 C1216 1.415 . S
C1215 C1214 1.355 . S
C1215 C1217 1.419 . S
C1216 C1214 1.415 . S
C1216 C1221 1.425 . S
C1216 C1223 1.409 . S
C1217 H1209 0.930 . S
C1217 C1215 1.419 . S
C1217 C1218 1.362 . S
C1218 H1210 0.930 . S
C1218 C1217 1.362 . S
C1218 C1221 1.409 . S
C1219 H1211 0.930 . S
C1219 C1220 1.355 . S
C1219 C1221 1.415 . S
C1220 C1219 1.355 . S
C1220 C1222 1.404 1_554 S
C1221 C1216 1.425 . S
C1221 C1218 1.409 . S
C1221 C1219 1.415 . S
C1222 H1212 0.957 . S
C1222 C1220 1.404 1_556 S
C1222 C1223 1.352 1_556 S
C1223 H1213 0.930 1_554 S
C1223 C1216 1.409 . S
C1223 C1222 1.352 1_554 S
H1224 C1230 0.930 . S
H1225 C1233 0.930 1_545 S
H1226 C1234 0.930 . S
H1227 C1235 0.930 . S
H1228 C1238 0.930 . S
H1229 C1239 0.930 1_556 S
C1230 H1224 0.930 . S
C1230 C1231 1.355 . S
C1230 C1232 1.415 . S
C1231 C1230 1.355 . S
C1231 C1233 1.419 . S
C1232 C1230 1.415 . S
C1232 C1237 1.425 . S
C1232 C1239 1.409 . S
C1233 H1225 0.930 1_565 S
C1233 C1231 1.419 . S
C1233 C1234 1.362 . S
C1234 H1226 0.930 . S
C1234 C1233 1.362 . S
C1234 C1237 1.409 . S
C1235 H1227 0.930 . S
C1235 C1236 1.355 . S
C1235 C1237 1.415 . S
C1236 C1235 1.355 . S
C1236 C1238 1.419 . S
C1237 C1232 1.425 . S
C1237 C1234 1.409 . S
C1237 C1235 1.415 . S
C1238 H1228 0.930 . S
C1238 C1236 1.419 . S
C1238 C1239 1.362 . S
C1239 H1229 0.930 1_554 S
C1239 C1232 1.409 . S
C1239 C1238 1.362 . S
C484 C312 1.850 . S
C479 C101 1.890 . S
C500 C325 1.174 . S
C495 C125 1.103 . S
C511 C139 2.067 . S
C516 C345 1.889 . S
C532 C359 1.558 1_455 S
C527 C82 1.663 . S
C548 C371 1.633 . S
C543 C196 1.645 . S
C564 C385 1.751 . S
C559 C234 1.772 . S
C575 C220 0.880 . S
C580 C395 0.906 . S
C596 C410 1.677 . S
C591 C173 1.696 . S
C607 C211 1.099 . S
C612 C424 1.036 . S
C628 C443 1.068 . S
C623 C182 0.953 . S
C639 C201 1.368 . S
C644 C423 1.467 . S
C660 C441 1.342 . S
C655 C239 1.225 . S
C671 C135 1.801 . S
C676 C457 1.725 . S
C687 C87 1.700 . S
C692 C451 1.876 . S
C703 C106 1.174 . S
C708 C455 1.366 . S
C719 C116 1.259 . S
C724 C452 1.263 . S
C735 C59 1.829 . S
C740 C354 1.831 . S
C751 C268 2.082 . S
C756 C353 2.088 . S
C772 C317 1.243 . S
C767 C291 1.254 . S
C788 C331 1.421 . S
C783 C163 1.446 . S
C799 C78 1.969 1_545 S
C804 C368 1.985 . S
C820 C413 1.264 . S
C815 C215 1.249 . S
C836 C367 1.582 . S
C831 C177 1.603 1_545 S
C852 C399 1.744 . S
C847 C230 1.740 . S
C868 C396 1.861 . S
C863 C272 1.887 . S
C879 C296 1.111 . S
C884 C409 1.171 . S
C895 C158 2.061 . S
C900 C373 1.882 . S
C916 C387 1.570 . S
C911 C253 1.663 . S
C927 C63 1.643 . S
C932 C343 1.643 . S
C948 C357 1.772 1_455 S
C943 C6 1.765 . S
C964 C311 0.929 . S
C959 C30 0.939 . S
C980 C326 1.672 . S
C975 C40 1.694 1_455 S
C991 C21 1.169 . S
C996 C438 1.108 . S
C1007 C49 1.026 . S
C1012 C429 1.009 1_655 S
C1023 C68 1.371 . S
C1028 C437 1.466 . S
C1039 C11 1.289 . S
C1044 C427 1.320 . S
C1060 C471 1.668 . S
C1055 C154 1.779 . S
C1076 C465 1.879 . S
C1071 C258 1.758 . S
C1092 C469 1.353 . S
C1087 C277 1.257 . S
C1103 C287 1.310 . S
C1108 C466 1.273 . S
C1119 C192 1.840 . S
C1124 C382 1.844 . S
C1140 C381 2.093 . S
C1135 C97 2.101 . S
C1156 C401 1.245 . S
C1151 C120 1.253 . S
C1172 C415 1.426 . S
C1167 C144 1.432 . S
C1183 C249 1.988 . S
C1188 C340 1.975 . S
C1204 C329 1.260 . S
C1199 C25 1.244 . S
C1215 C44 1.604 . S
C1220 C339 1.586 . S
C1236 C315 1.739 . S
C1231 C2 1.709 1_565 S
