# Generated by pormake.
# Topology pyr, (3,6)-cn, num edge types: 1
# Building blocks:
#     Node 0, Type 0, BuildingBlock: VETTIZ_charged_linker_0, # of connection points: 3
#     Node 1, Type 0, BuildingBlock: VETTIZ_charged_linker_0, # of connection points: 3
#     Node 2, Type 0, BuildingBlock: VETTIZ_charged_linker_0, # of connection points: 3
#     Node 3, Type 0, BuildingBlock: VETTIZ_charged_linker_0, # of connection points: 3
#     Node 4, Type 0, BuildingBlock: VETTIZ_charged_linker_0, # of connection points: 3
#     Node 5, Type 0, BuildingBlock: VETTIZ_charged_linker_0, # of connection points: 3
#     Node 6, Type 0, BuildingBlock: VETTIZ_charged_linker_0, # of connection points: 3
#     Node 7, Type 0, BuildingBlock: VETTIZ_charged_linker_0, # of connection points: 3
#     Node 8, Type 1, BuildingBlock: INOVEN_clean_sbu_0, # of connection points: 6
#     Node 9, Type 1, BuildingBlock: INOVEN_clean_sbu_0, # of connection points: 6
#     Node 10, Type 1, BuildingBlock: INOVEN_clean_sbu_0, # of connection points: 6
#     Node 11, Type 1, BuildingBlock: INOVEN_clean_sbu_0, # of connection points: 6
#     Edge 12, Type (0, 1), BuildingBlock: XUDNAN_clean_linker_2, # of connection points: 2
#     Edge 13, Type (0, 1), BuildingBlock: XUDNAN_clean_linker_2, # of connection points: 2
#     Edge 14, Type (0, 1), BuildingBlock: XUDNAN_clean_linker_2, # of connection points: 2
#     Edge 15, Type (0, 1), BuildingBlock: XUDNAN_clean_linker_2, # of connection points: 2
#     Edge 16, Type (0, 1), BuildingBlock: XUDNAN_clean_linker_2, # of connection points: 2
#     Edge 17, Type (0, 1), BuildingBlock: XUDNAN_clean_linker_2, # of connection points: 2
#     Edge 18, Type (0, 1), BuildingBlock: XUDNAN_clean_linker_2, # of connection points: 2
#     Edge 19, Type (0, 1), BuildingBlock: XUDNAN_clean_linker_2, # of connection points: 2
#     Edge 20, Type (0, 1), BuildingBlock: XUDNAN_clean_linker_2, # of connection points: 2
#     Edge 21, Type (0, 1), BuildingBlock: XUDNAN_clean_linker_2, # of connection points: 2
#     Edge 22, Type (0, 1), BuildingBlock: XUDNAN_clean_linker_2, # of connection points: 2
#     Edge 23, Type (0, 1), BuildingBlock: XUDNAN_clean_linker_2, # of connection points: 2
#     Edge 24, Type (0, 1), BuildingBlock: XUDNAN_clean_linker_2, # of connection points: 2
#     Edge 25, Type (0, 1), BuildingBlock: XUDNAN_clean_linker_2, # of connection points: 2
#     Edge 26, Type (0, 1), BuildingBlock: XUDNAN_clean_linker_2, # of connection points: 2
#     Edge 27, Type (0, 1), BuildingBlock: XUDNAN_clean_linker_2, # of connection points: 2
#     Edge 28, Type (0, 1), BuildingBlock: XUDNAN_clean_linker_2, # of connection points: 2
#     Edge 29, Type (0, 1), BuildingBlock: XUDNAN_clean_linker_2, # of connection points: 2
#     Edge 30, Type (0, 1), BuildingBlock: XUDNAN_clean_linker_2, # of connection points: 2
#     Edge 31, Type (0, 1), BuildingBlock: XUDNAN_clean_linker_2, # of connection points: 2
#     Edge 32, Type (0, 1), BuildingBlock: XUDNAN_clean_linker_2, # of connection points: 2
#     Edge 33, Type (0, 1), BuildingBlock: XUDNAN_clean_linker_2, # of connection points: 2
#     Edge 34, Type (0, 1), BuildingBlock: XUDNAN_clean_linker_2, # of connection points: 2
#     Edge 35, Type (0, 1), BuildingBlock: XUDNAN_clean_linker_2, # of connection points: 2
# Relax obj value: 0.094
# Max RMSD: 0.127
# Mean RMSD: 0.060
data_MOF--net-pyr--node1-INOVEN_clean_sbu_0--node2-VETTIZ_charged_linker_0--edge1-XUDNAN_clean_linker_2
_symmetry_space_group_name_H-M    P1
_symmetry_Int_Tables_number       1
_symmetry_cell_setting            triclinic
loop_
_symmetry_equiv_pos_as_xyz
'x, y, z'
_cell_length_a     46.956692
_cell_length_b     47.732472
_cell_length_c     42.357025
_cell_angle_alpha  90.357356
_cell_angle_beta   88.057613
_cell_angle_gamma 100.16181
loop_
_atom_site_label
_atom_site_type_symbol
_atom_site_fract_x
_atom_site_fract_y
_atom_site_fract_z
_atom_type_partial_charge
C0 C 0.30537 0.28178 0.35403 0.0
C1 C 0.28356 0.29492 0.3681 0.0
C2 C 0.2759 0.31868 0.35311 0.0
C3 C 0.3073 0.31215 0.30809 0.0
C4 C 0.31673 0.29054 0.32403 0.0
C5 C 0.33703 0.27621 0.30404 0.0
H6 H 0.39186 0.24997 0.15978 0.0
C7 C 0.31911 0.31242 0.27528 0.0
C8 C 0.33662 0.29153 0.27278 0.0
H9 H 0.40976 0.21649 0.25021 0.0
H10 H 0.38016 0.24619 0.27671 0.0
H11 H 0.39861 0.31661 0.18442 0.0
H12 H 0.3237 0.25065 0.17446 0.0
H13 H 0.31515 0.28285 0.16112 0.0
H14 H 0.34345 0.26799 0.14087 0.0
H15 H 0.38623 0.30336 0.14659 0.0
H16 H 0.37119 0.33115 0.16651 0.0
C17 C 0.36732 0.2824 0.31875 0.0
C18 C 0.3238 0.24413 0.30159 0.0
C19 C 0.28166 0.37306 0.19417 0.0
C20 C 0.28337 0.37377 0.16113 0.0
C21 C 0.30067 0.35691 0.14466 0.0
C22 C 0.31604 0.33926 0.16117 0.0
C23 C 0.31352 0.33814 0.19439 0.0
C24 C 0.29655 0.35497 0.21025 0.0
C25 C 0.2941 0.34939 0.24514 0.0
C26 C 0.313 0.32693 0.24789 0.0
C27 C 0.32449 0.32044 0.21817 0.0
C28 C 0.3071 0.37716 0.26238 0.0
C29 C 0.2618 0.33779 0.25418 0.0
C30 C 0.38916 0.24904 0.18527 0.0
C31 C 0.40304 0.23083 0.20299 0.0
C32 C 0.39946 0.23048 0.23613 0.0
C33 C 0.3822 0.2477 0.25149 0.0
C34 C 0.36815 0.26547 0.23363 0.0
C35 C 0.37213 0.26646 0.20115 0.0
C36 C 0.35643 0.28788 0.18654 0.0
C37 C 0.34253 0.29945 0.21568 0.0
C38 C 0.34904 0.28567 0.24301 0.0
C39 C 0.37912 0.31099 0.16989 0.0
C40 C 0.33355 0.27174 0.16436 0.0
H41 H 0.28021 0.34491 0.31243 0.0
H42 H 0.31164 0.26336 0.36477 0.0
H43 H 0.30014 0.24129 0.29773 0.0
H44 H 0.33282 0.23327 0.28159 0.0
H45 H 0.32689 0.23267 0.3236 0.0
H46 H 0.36998 0.30173 0.33396 0.0
H47 H 0.371 0.26439 0.33366 0.0
H48 H 0.38505 0.28702 0.30058 0.0
H49 H 0.26782 0.38533 0.20719 0.0
H50 H 0.30184 0.35707 0.11907 0.0
H51 H 0.32871 0.32666 0.14746 0.0
H52 H 0.32732 0.38783 0.24992 0.0
H53 H 0.29169 0.39235 0.26322 0.0
H54 H 0.31339 0.37337 0.28668 0.0
H55 H 0.24953 0.32843 0.23348 0.0
H56 H 0.25908 0.32015 0.27142 0.0
H57 H 0.25075 0.35491 0.26377 0.0
H58 H 0.2595 0.32946 0.36372 0.0
C59 C 0.28778 0.32746 0.32324 0.0
C60 C 0.15641 0.8653 0.63614 0.0
C61 C 0.14716 0.88513 0.65695 0.0
C62 C 0.15935 0.88965 0.68678 0.0
C63 C 0.19077 0.85571 0.67435 0.0
C64 C 0.17848 0.85109 0.64516 0.0
C65 C 0.19288 0.83123 0.62492 0.0
H66 H 0.30368 0.75886 0.60415 0.0
C67 C 0.21446 0.83924 0.67564 0.0
C68 C 0.21598 0.82496 0.64672 0.0
H69 H 0.23572 0.7639 0.53939 0.0
H70 H 0.21309 0.79219 0.57754 0.0
H71 H 0.31264 0.82398 0.62945 0.0
H72 H 0.26242 0.74501 0.66317 0.0
H73 H 0.27446 0.76455 0.69687 0.0
H74 H 0.30061 0.75405 0.669 0.0
H75 H 0.32842 0.79549 0.64485 0.0
H76 H 0.31724 0.82212 0.67037 0.0
C77 C 0.20613 0.84766 0.59495 0.0
C78 C 0.17027 0.8043 0.61818 0.0
C79 C 0.2761 0.8472 0.77226 0.0
C80 C 0.30147 0.83702 0.77933 0.0
C81 C 0.31232 0.81845 0.75792 0.0
C82 C 0.29875 0.81114 0.72929 0.0
C83 C 0.27416 0.82262 0.72196 0.0
C84 C 0.26301 0.83995 0.74354 0.0
C85 C 0.23734 0.85095 0.73155 0.0
C86 C 0.23467 0.8371 0.69923 0.0
C87 C 0.25634 0.82072 0.69368 0.0
C88 C 0.24517 0.88392 0.72944 0.0
C89 C 0.21085 0.83968 0.75358 0.0
C90 C 0.28417 0.7665 0.598 0.0
C91 C 0.27177 0.76002 0.5686 0.0
C92 C 0.24577 0.76919 0.5618 0.0
C93 C 0.23278 0.78551 0.58395 0.0
C94 C 0.24585 0.79231 0.61315 0.0
C95 C 0.27086 0.78233 0.61986 0.0
C96 C 0.28103 0.78998 0.6525 0.0
C97 C 0.25835 0.80679 0.66426 0.0
C98 C 0.23802 0.80849 0.64104 0.0
C99 C 0.3115 0.80874 0.64942 0.0
C100 C 0.27984 0.76209 0.6715 0.0
H101 H 0.18952 0.87928 0.71872 0.0
H102 H 0.14753 0.86191 0.61286 0.0
H103 H 0.15487 0.79898 0.6387 0.0
H104 H 0.18017 0.78514 0.61443 0.0
H105 H 0.15743 0.80747 0.59736 0.0
H106 H 0.21652 0.86971 0.6011 0.0
H107 H 0.18919 0.84914 0.57766 0.0
H108 H 0.22337 0.83813 0.5831 0.0
H109 H 0.26698 0.86122 0.78839 0.0
H110 H 0.33194 0.81046 0.76274 0.0
H111 H 0.30839 0.79745 0.71363 0.0
H112 H 0.26895 0.89124 0.72634 0.0
H113 H 0.23794 0.89415 0.75118 0.0
H114 H 0.23604 0.89263 0.70867 0.0
H115 H 0.2108 0.81719 0.76039 0.0
H116 H 0.18997 0.83943 0.74225 0.0
H117 H 0.21125 0.85244 0.77563 0.0
H118 H 0.15239 0.90497 0.70296 0.0
C119 C 0.18092 0.8748 0.69575 0.0
C120 C 0.62934 0.29255 0.93384 0.0
C121 C 0.60452 0.27455 0.92316 0.0
C122 C 0.58822 0.28497 0.8999 0.0
C123 C 0.6223 0.3299 0.89749 0.0
C124 C 0.63769 0.31985 0.92088 0.0
C125 C 0.66376 0.34109 0.92972 0.0
H126 H 0.75805 0.46295 0.90117 0.0
C127 C 0.63764 0.35901 0.88856 0.0
C128 C 0.6618 0.3656 0.90766 0.0
H129 H 0.76106 0.39815 0.97111 0.0
H130 H 0.71412 0.37374 0.95689 0.0
H131 H 0.68782 0.46566 0.91623 0.0
H132 H 0.7301 0.42064 0.84503 0.0
H133 H 0.70474 0.4385 0.82752 0.0
H134 H 0.73513 0.45883 0.84682 0.0
H135 H 0.70753 0.48377 0.88306 0.0
H136 H 0.67012 0.46681 0.88048 0.0
C137 C 0.65981 0.34934 0.9649 0.0
C138 C 0.69095 0.32759 0.9221 0.0
C139 C 0.60236 0.41246 0.79788 0.0
C140 C 0.61226 0.4392 0.78365 0.0
C141 C 0.63637 0.45701 0.79641 0.0
C142 C 0.65088 0.44798 0.82204 0.0
C143 C 0.64117 0.42087 0.83539 0.0
C144 C 0.6169 0.40385 0.82362 0.0
C145 C 0.60905 0.37603 0.84119 0.0
C146 C 0.63271 0.37891 0.86523 0.0
C147 C 0.65179 0.40516 0.86157 0.0
C148 C 0.57874 0.37476 0.85724 0.0
C149 C 0.61104 0.35154 0.81754 0.0
C150 C 0.74817 0.44376 0.91363 0.0
C151 C 0.76329 0.43227 0.9372 0.0
C152 C 0.74987 0.40726 0.95286 0.0
C153 C 0.72262 0.39301 0.94439 0.0
C154 C 0.70838 0.40358 0.91967 0.0
C155 C 0.72062 0.429 0.90527 0.0
C156 C 0.70143 0.43695 0.87997 0.0
C157 C 0.6765 0.41156 0.88088 0.0
C158 C 0.68106 0.39203 0.90405 0.0
C159 C 0.69123 0.46486 0.89014 0.0
C160 C 0.71864 0.43904 0.84805 0.0
H161 H 0.58389 0.31892 0.86905 0.0
H162 H 0.64212 0.28554 0.95207 0.0
H163 H 0.68827 0.3148 0.89999 0.0
H164 H 0.71079 0.34342 0.91765 0.0
H165 H 0.69479 0.31318 0.94138 0.0
H166 H 0.6365 0.34716 0.97209 0.0
H167 H 0.66967 0.33556 0.98078 0.0
H168 H 0.66889 0.37191 0.96967 0.0
H169 H 0.58369 0.39837 0.78901 0.0
H170 H 0.64459 0.47759 0.78589 0.0
H171 H 0.6694 0.4623 0.83022 0.0
H172 H 0.57579 0.39617 0.86583 0.0
H173 H 0.56135 0.36722 0.84046 0.0
H174 H 0.57542 0.36107 0.87843 0.0
H175 H 0.63048 0.35704 0.80152 0.0
H176 H 0.61344 0.33152 0.82915 0.0
H177 H 0.59171 0.34741 0.80267 0.0
H178 H 0.56903 0.2716 0.89115 0.0
C179 C 0.59699 0.31243 0.88698 0.0
C180 C 0.91189 0.79667 0.39557 0.0
C181 C 0.90253 0.81405 0.41956 0.0
C182 C 0.87655 0.80368 0.43666 0.0
C183 C 0.86948 0.76016 0.40576 0.0
C184 C 0.89505 0.76993 0.38906 0.0
C185 C 0.90138 0.74884 0.36413 0.0
H186 H 0.85675 0.62408 0.28687 0.0
C187 C 0.85651 0.73213 0.39269 0.0
C188 C 0.87498 0.72531 0.3681 0.0
H189 H 0.93855 0.68141 0.27346 0.0
H190 H 0.92366 0.71295 0.3133 0.0
H191 H 0.85824 0.62534 0.36168 0.0
H192 H 0.81576 0.67159 0.29609 0.0
H193 H 0.79122 0.66056 0.32774 0.0
H194 H 0.80441 0.6342 0.30333 0.0
H195 H 0.8274 0.60867 0.34032 0.0
H196 H 0.82339 0.6265 0.37743 0.0
C197 C 0.92961 0.73847 0.37252 0.0
C198 C 0.90274 0.76338 0.33146 0.0
C199 C 0.75978 0.68147 0.43851 0.0
C200 C 0.74061 0.6565 0.43036 0.0
C201 C 0.74889 0.63972 0.40526 0.0
C202 C 0.77536 0.64796 0.38835 0.0
C203 C 0.79391 0.67331 0.3965 0.0
C204 C 0.78588 0.68952 0.42124 0.0
C205 C 0.8075 0.71632 0.42604 0.0
C206 C 0.83017 0.71341 0.40038 0.0
C207 C 0.82223 0.68817 0.38318 0.0
C208 C 0.81964 0.71523 0.45949 0.0
C209 C 0.7923 0.7421 0.42019 0.0
C210 C 0.87178 0.64323 0.29252 0.0
C211 C 0.89912 0.64985 0.27685 0.0
C212 C 0.9173 0.67564 0.28473 0.0
C213 C 0.90872 0.69386 0.30819 0.0
C214 C 0.88171 0.68627 0.32425 0.0
C215 C 0.86382 0.66123 0.31622 0.0
C216 C 0.8365 0.65556 0.33652 0.0
C217 C 0.84078 0.68127 0.35815 0.0
C218 C 0.86716 0.69951 0.35075 0.0
C219 C 0.83603 0.62749 0.3549 0.0
C220 C 0.81045 0.65522 0.31498 0.0
H221 H 0.84057 0.77063 0.44386 0.0
H222 H 0.93189 0.80366 0.38215 0.0
H223 H 0.88473 0.77555 0.32957 0.0
H224 H 0.90032 0.74808 0.31172 0.0
H225 H 0.92344 0.77852 0.32777 0.0
H226 H 0.93101 0.73637 0.39854 0.0
H227 H 0.94897 0.7537 0.36397 0.0
H228 H 0.93079 0.71711 0.363 0.0
H229 H 0.75458 0.69476 0.45792 0.0
H230 H 0.7346 0.62057 0.3981 0.0
H231 H 0.7802 0.63442 0.36931 0.0
H232 H 0.82264 0.69325 0.4653 0.0
H233 H 0.80462 0.72182 0.47777 0.0
H234 H 0.84125 0.72849 0.46175 0.0
H235 H 0.77464 0.73668 0.40314 0.0
H236 H 0.80697 0.76039 0.40926 0.0
H237 H 0.78252 0.74917 0.44243 0.0
H238 H 0.86836 0.81654 0.4548 0.0
C239 C 0.86015 0.77698 0.43 0.0
C240 C 0.71924 0.72344 0.9409 0.0
C241 C 0.73562 0.70291 0.93053 0.0
C242 C 0.7402 0.69883 0.89799 0.0
C243 C 0.71661 0.73848 0.88663 0.0
C244 C 0.7093 0.74061 0.91831 0.0
C245 C 0.69083 0.76316 0.92407 0.0
H246 H 0.63934 0.87623 0.86595 0.0
C247 C 0.70679 0.76156 0.86958 0.0
C248 C 0.69065 0.77562 0.89104 0.0
H249 H 0.62436 0.84103 0.96002 0.0
H250 H 0.65053 0.80307 0.94511 0.0
H251 H 0.63166 0.81601 0.82529 0.0
H252 H 0.70088 0.87556 0.86333 0.0
H253 H 0.71789 0.85929 0.83264 0.0
H254 H 0.68982 0.87921 0.8238 0.0
H255 H 0.64359 0.85194 0.81191 0.0
H256 H 0.65978 0.82309 0.79611 0.0
C257 C 0.66028 0.74829 0.93553 0.0
C258 C 0.70612 0.7852 0.94767 0.0
C259 C 0.75698 0.79377 0.76483 0.0
C260 C 0.75901 0.81941 0.7479 0.0
C261 C 0.73831 0.83696 0.7549 0.0
C262 C 0.71775 0.83026 0.77962 0.0
C263 C 0.71835 0.80634 0.7985 0.0
C264 C 0.7372 0.78811 0.79051 0.0
C265 C 0.73616 0.76477 0.8145 0.0
C266 C 0.71449 0.77295 0.83895 0.0
C267 C 0.70413 0.7972 0.8293 0.0
C268 C 0.72478 0.73581 0.79853 0.0
C269 C 0.7669 0.76712 0.82772 0.0
C270 C 0.64142 0.86026 0.88338 0.0
C271 C 0.62992 0.86179 0.91425 0.0
C272 C 0.63289 0.84028 0.93601 0.0
C273 C 0.64823 0.81839 0.92736 0.0
C274 C 0.66081 0.81812 0.89671 0.0
C275 C 0.65692 0.83873 0.87531 0.0
C276 C 0.67313 0.83667 0.84452 0.0
C277 C 0.68619 0.81038 0.85011 0.0
C278 C 0.67927 0.79966 0.88081 0.0
C279 C 0.65104 0.83183 0.81786 0.0
C280 C 0.69654 0.86402 0.8406 0.0
H281 H 0.73532 0.71285 0.8515 0.0
H282 H 0.71487 0.72638 0.96586 0.0
H283 H 0.72942 0.79155 0.94073 0.0
H284 H 0.69707 0.80499 0.94852 0.0
H285 H 0.70473 0.77619 0.97191 0.0
H286 H 0.65442 0.72691 0.92451 0.0
H287 H 0.65916 0.74532 0.96156 0.0
H288 H 0.64313 0.75996 0.92868 0.0
H289 H 0.77164 0.77913 0.75952 0.0
H290 H 0.73893 0.85693 0.74274 0.0
H291 H 0.70314 0.84482 0.78407 0.0
H292 H 0.71365 0.73848 0.77626 0.0
H293 H 0.7427 0.7241 0.79254 0.0
H294 H 0.7083 0.7221 0.81365 0.0
H295 H 0.77526 0.78938 0.83511 0.0
H296 H 0.7678 0.75374 0.84855 0.0
H297 H 0.78226 0.76098 0.80953 0.0
H298 H 0.75247 0.68286 0.88969 0.0
C299 C 0.73057 0.71638 0.87596 0.0
C300 C 0.85639 0.23475 0.47149 0.0
C301 C 0.8699 0.21867 0.44954 0.0
C302 C 0.85509 0.20777 0.42258 0.0
C303 C 0.81185 0.22324 0.44326 0.0
C304 C 0.82737 0.23706 0.46767 0.0
C305 C 0.80879 0.25198 0.48941 0.0
H306 H 0.67417 0.27197 0.53474 0.0
C307 C 0.78113 0.2249 0.44913 0.0
C308 C 0.77915 0.24221 0.47574 0.0
H309 H 0.75556 0.31864 0.56611 0.0
H310 H 0.78159 0.28933 0.53271 0.0
H311 H 0.69402 0.20659 0.52881 0.0
H312 H 0.6901 0.27717 0.46737 0.0
H313 H 0.68197 0.24652 0.44406 0.0
H314 H 0.65847 0.25145 0.4775 0.0
H315 H 0.66082 0.21686 0.51748 0.0
H316 H 0.6782 0.19306 0.49352 0.0
C317 C 0.8102 0.24087 0.52346 0.0
C318 C 0.81904 0.28457 0.48589 0.0
C319 C 0.70504 0.16007 0.38774 0.0
C320 C 0.67473 0.15584 0.38864 0.0
C321 C 0.66014 0.17126 0.41024 0.0
C322 C 0.67572 0.19051 0.43119 0.0
C323 C 0.70617 0.19463 0.43004 0.0
C324 C 0.72029 0.17973 0.40834 0.0
C325 C 0.75265 0.18777 0.40937 0.0
C326 C 0.75567 0.20979 0.43563 0.0
C327 C 0.72843 0.21336 0.44787 0.0
C328 C 0.76458 0.16076 0.41843 0.0
C329 C 0.7644 0.20088 0.37703 0.0
C330 C 0.69758 0.27513 0.53536 0.0
C331 C 0.71293 0.29701 0.55355 0.0
C332 C 0.74341 0.30152 0.55257 0.0
C333 C 0.75839 0.28481 0.53292 0.0
C334 C 0.74264 0.2639 0.51366 0.0
C335 C 0.71274 0.25932 0.51523 0.0
C336 C 0.69948 0.23858 0.49079 0.0
C337 C 0.72635 0.23174 0.47391 0.0
C338 C 0.75155 0.2462 0.4877 0.0
C339 C 0.68201 0.21236 0.50832 0.0
C340 C 0.68136 0.25396 0.46881 0.0
H341 H 0.8154 0.19998 0.39916 0.0
H342 H 0.86761 0.24357 0.49221 0.0
H343 H 0.83145 0.2901 0.46327 0.0
H344 H 0.80066 0.29623 0.48516 0.0
H345 H 0.83329 0.29325 0.50534 0.0
H346 H 0.80674 0.2172 0.52366 0.0
H347 H 0.83165 0.24893 0.53351 0.0
H348 H 0.79344 0.24706 0.5396 0.0
H349 H 0.71664 0.14892 0.37064 0.0
H350 H 0.63672 0.1684 0.4108 0.0
H351 H 0.66345 0.20161 0.44722 0.0
H352 H 0.75201 0.14995 0.43901 0.0
H353 H 0.76289 0.14538 0.39849 0.0
H354 H 0.78729 0.16516 0.42545 0.0
H355 H 0.74738 0.20905 0.36399 0.0
H356 H 0.78177 0.21966 0.37967 0.0
H357 H 0.77262 0.18494 0.36163 0.0
H358 H 0.86515 0.19529 0.40546 0.0
C359 C 0.82607 0.21002 0.41931 0.0
C360 C 0.39839 0.68415 0.31265 0.0
C361 C 0.38763 0.65719 0.32597 0.0
C362 C 0.36085 0.64215 0.31612 0.0
C363 C 0.35662 0.67967 0.27902 0.0
C364 C 0.38256 0.69493 0.28917 0.0
C365 C 0.3913 0.72246 0.27098 0.0
H366 H 0.36142 0.81229 0.15687 0.0
C367 C 0.34628 0.69578 0.25315 0.0
C368 C 0.36647 0.72105 0.24836 0.0
H369 H 0.43572 0.8239 0.21608 0.0
H370 H 0.41786 0.77844 0.24128 0.0
H371 H 0.31393 0.78759 0.21047 0.0
H372 H 0.3623 0.74628 0.14189 0.0
H373 H 0.32676 0.72714 0.14354 0.0
H374 H 0.33327 0.76386 0.13114 0.0
H375 H 0.30695 0.78726 0.16905 0.0
H376 H 0.29006 0.75871 0.1948 0.0
C377 C 0.39226 0.74741 0.29459 0.0
C378 C 0.42047 0.72162 0.25318 0.0
C379 C 0.25482 0.65255 0.19598 0.0
C380 C 0.2401 0.66172 0.17054 0.0
C381 C 0.2504 0.68903 0.15781 0.0
C382 C 0.27519 0.70641 0.16947 0.0
C383 C 0.29007 0.69657 0.19426 0.0
C384 C 0.27955 0.67019 0.20737 0.0
C385 C 0.29797 0.66324 0.2337 0.0
C386 C 0.32162 0.68954 0.23389 0.0
C387 C 0.31696 0.70897 0.21064 0.0
C388 C 0.27922 0.66039 0.26473 0.0
C389 C 0.31013 0.63612 0.2242 0.0
C390 C 0.3738 0.80517 0.1754 0.0
C391 C 0.39998 0.82195 0.18457 0.0
C392 C 0.41561 0.81142 0.20837 0.0
C393 C 0.40508 0.78506 0.22314 0.0
C394 C 0.37868 0.76874 0.21391 0.0
C395 C 0.36372 0.77884 0.19014 0.0
C396 C 0.3365 0.7585 0.18257 0.0
C397 C 0.33718 0.73471 0.20603 0.0
C398 C 0.36191 0.74073 0.22454 0.0
C399 C 0.31036 0.77367 0.18928 0.0
C400 C 0.33954 0.74843 0.14795 0.0
H401 H 0.32526 0.64042 0.28637 0.0
H402 H 0.41916 0.69597 0.31938 0.0
H403 H 0.42124 0.69984 0.24407 0.0
H404 H 0.42388 0.73545 0.23211 0.0
H405 H 0.43895 0.72771 0.26898 0.0
H406 H 0.37346 0.74332 0.31166 0.0
H407 H 0.41231 0.75025 0.30833 0.0
H408 H 0.3908 0.76774 0.28305 0.0
H409 H 0.24736 0.63195 0.20678 0.0
H410 H 0.23978 0.69667 0.13813 0.0
H411 H 0.28204 0.72675 0.15838 0.0
H412 H 0.26334 0.67516 0.26483 0.0
H413 H 0.26684 0.63844 0.26771 0.0
H414 H 0.29207 0.66633 0.28589 0.0
H415 H 0.3158 0.63623 0.19847 0.0
H416 H 0.3304 0.63444 0.23589 0.0
H417 H 0.29395 0.6166 0.22931 0.0
H418 H 0.3523 0.62131 0.32586 0.0
C419 C 0.34528 0.65324 0.293 0.0
C420 C 0.11749 0.2966 0.69341 0.0
C421 C 0.12972 0.28329 0.66783 0.0
C422 C 0.15799 0.29475 0.65678 0.0
C423 C 0.16075 0.3333 0.69472 0.0
C424 C 0.13337 0.32164 0.7064 0.0
C425 C 0.12328 0.33976 0.73238 0.0
H426 H 0.15128 0.45494 0.82933 0.0
C427 C 0.17079 0.36024 0.71183 0.0
C428 C 0.14899 0.36416 0.73411 0.0
H429 H 0.07322 0.39149 0.82538 0.0
H430 H 0.09375 0.36848 0.78204 0.0
H431 H 0.1559 0.46328 0.75354 0.0
H432 H 0.19843 0.4134 0.81515 0.0
H433 H 0.22435 0.43224 0.78832 0.0
H434 H 0.20474 0.45164 0.81543 0.0
H435 H 0.18552 0.47927 0.77704 0.0
H436 H 0.19135 0.46482 0.73833 0.0
C437 C 0.09565 0.35011 0.72163 0.0
C438 C 0.11892 0.32183 0.76303 0.0
C439 C 0.26717 0.42167 0.67898 0.0
C440 C 0.28151 0.44859 0.68869 0.0
C441 C 0.2694 0.46211 0.71429 0.0
C442 C 0.24328 0.44939 0.72947 0.0
C443 C 0.22877 0.42287 0.71888 0.0
C444 C 0.24089 0.40939 0.69416 0.0
C445 C 0.22208 0.38174 0.68541 0.0
C446 C 0.19653 0.38097 0.70862 0.0
C447 C 0.20055 0.40508 0.7283 0.0
C448 C 0.21316 0.38411 0.65074 0.0
C449 C 0.23904 0.35733 0.69149 0.0
C450 C 0.13849 0.43621 0.81908 0.0
C451 C 0.1108 0.42468 0.83196 0.0
C452 C 0.09501 0.40038 0.81721 0.0
C453 C 0.10689 0.38701 0.79168 0.0
C454 C 0.13486 0.39809 0.77996 0.0
C455 C 0.14995 0.42269 0.79309 0.0
C456 C 0.17871 0.43228 0.77599 0.0
C457 C 0.17878 0.40879 0.75146 0.0
C458 C 0.15304 0.38865 0.75407 0.0
C459 C 0.17815 0.46151 0.76052 0.0
C460 C 0.203 0.43265 0.79985 0.0
H461 H 0.19476 0.32722 0.66014 0.0
H462 H 0.09566 0.28847 0.7021 0.0
H463 H 0.13699 0.30983 0.76555 0.0
H464 H 0.11888 0.33485 0.78462 0.0
H465 H 0.09843 0.30613 0.76274 0.0
H466 H 0.09617 0.353 0.69556 0.0
H467 H 0.07586 0.33454 0.72814 0.0
H468 H 0.09353 0.37121 0.73136 0.0
H469 H 0.27564 0.41083 0.65919 0.0
H470 H 0.28013 0.48269 0.72251 0.0
H471 H 0.23523 0.46084 0.74868 0.0
H472 H 0.20959 0.40602 0.64552 0.0
H473 H 0.23025 0.37921 0.63388 0.0
H474 H 0.19246 0.37025 0.64549 0.0
H475 H 0.25317 0.36224 0.71209 0.0
H476 H 0.22475 0.33702 0.6977 0.0
H477 H 0.25312 0.35395 0.67072 0.0
H478 H 0.16781 0.28487 0.63712 0.0
C479 C 0.17356 0.31947 0.67011 0.0
Gd480 Gd 0.04011 0.05803 0.51046 0.0
Gd481 Gd 0.994 0.04549 0.56076 0.0
C482 C 0.04249 0.10376 0.5658 0.0
C483 C 0.07432 0.07217 0.46222 0.0
C484 C 0.09613 0.09794 0.45636 0.0
C485 C 0.12465 0.09519 0.44799 0.0
C486 C 0.08968 0.12514 0.46269 0.0
C487 C 0.1402 0.14627 0.45344 0.0
C488 C 0.11151 0.14914 0.46097 0.0
C489 C 0.14655 0.11914 0.44667 0.0
C490 C 0.05218 1.02573 0.55873 0.0
C491 C 0.98968 1.00306 0.50189 0.0
C492 C 0.96344 1.0304 0.61153 0.0
C493 C 0.94606 1.00343 0.62277 0.0
C494 C 0.92009 1.00377 0.63992 0.0
C495 C 0.95426 0.97724 0.61506 0.0
C496 C 0.91076 0.95201 0.64192 0.0
C497 C 0.93685 0.95173 0.62478 0.0
C498 C 0.90253 0.97827 0.64936 0.0
C499 C 0.97997 0.07724 0.51302 0.0
O500 O 0.05012 0.09916 0.53626 0.0
O501 O 0.02331 0.08465 0.58157 0.0
O502 O 0.08035 0.05593 0.48487 0.0
O503 O 0.04713 0.07527 0.46306 0.0
O504 O 0.07086 0.04619 0.54618 0.0
O505 O 0.02867 1.0234 0.54504 0.0
O506 O 0.98331 1.00496 0.53241 0.0
O507 O 0.00848 1.02321 0.48744 0.0
O508 O 0.95328 1.04171 0.58724 0.0
O509 O 0.99156 1.03166 0.60949 0.0
O510 O 0.96193 0.05748 0.52767 0.0
O511 O 1.00435 0.07986 0.52526 0.0
H512 H 0.13013 0.07439 0.44335 0.0
H513 H 0.06794 0.12785 0.46979 0.0
H514 H 0.10613 0.16984 0.46637 0.0
H515 H 0.16846 0.11647 0.44037 0.0
H516 H 0.91331 1.02376 0.64583 0.0
H517 H 0.97398 0.97649 0.60135 0.0
H518 H 0.94358 0.93178 0.61855 0.0
H519 H 0.88269 0.9791 0.66288 0.0
Gd520 Gd 0.53779 0.0485 0.06424 0.0
Gd521 Gd 0.48153 1.03949 1.03453 0.0
C522 C 0.48808 0.08259 0.09181 0.0
C523 C 0.58597 0.06654 0.09123 0.0
C524 C 0.5937 0.06946 0.12449 0.0
C525 C 0.58067 0.04924 0.14696 0.0
C526 C 0.61288 0.09356 0.13428 0.0
C527 C 0.6058 0.0774 0.18875 0.0
C528 C 0.61884 0.09756 0.16621 0.0
C529 C 0.58687 0.05308 0.17884 0.0
C530 C 0.50104 1.00126 0.08569 0.0
C531 C 0.53322 1.01094 1.00498 0.0
C532 C 0.43263 1.01889 1.00984 0.0
C533 C 0.41975 0.99347 0.99249 0.0
C534 C 0.39089 0.99055 0.9839 0.0
C535 C 0.43617 0.97277 0.98322 0.0
C536 C 0.39544 0.94751 0.95461 0.0
C537 C 0.42407 0.94987 0.9644 0.0
C538 C 0.37878 0.96772 0.96516 0.0
C539 C 0.51666 0.0882 1.01541 0.0
O540 O 0.5156 0.07999 0.09078 0.0
O541 O 0.46904 0.0669 0.0739 0.0
O542 O 0.57865 1.04052 0.08077 0.0
O543 O 0.56898 0.08357 0.08185 0.0
O544 O 0.5286 1.00265 0.08114 0.0
O545 O 0.49447 1.02519 0.08023 0.0
O546 O 0.50538 1.0058 1.01305 0.0
O547 O 0.55022 1.03272 1.01733 0.0
O548 O 0.4534 1.03603 0.99482 0.0
O549 O 0.43814 1.01509 1.03938 0.0
O550 O 0.48893 0.08568 1.02018 0.0
O551 O 0.52448 0.06446 1.0193 0.0
H552 H 0.56539 1.03069 0.13997 0.0
H553 H 0.62293 0.10945 0.11727 0.0
H554 H 0.63373 0.11637 0.17329 0.0
H555 H 0.57637 1.0374 0.19583 0.0
H556 H 0.37791 1.00628 0.99109 0.0
H557 H 0.4585 0.9747 0.98981 0.0
H558 H 0.43744 0.93472 0.95646 0.0
H559 H 0.35651 0.96617 0.95839 0.0
Gd560 Gd 0.51326 0.52173 0.52926 0.0
Gd561 Gd 0.50281 0.57152 0.56742 0.0
C562 C 0.53161 0.52404 0.60075 0.0
C563 C 0.53429 0.48541 0.49482 0.0
C564 C 0.55324 0.46567 0.50483 0.0
C565 C 0.54264 0.43632 0.50672 0.0
C566 C 0.58092 0.47635 0.51612 0.0
C567 C 0.58634 0.42899 0.53246 0.0
C568 C 0.59724 0.45823 0.52977 0.0
C569 C 0.55902 0.41813 0.52047 0.0
C570 C 0.46434 0.51234 0.56658 0.0
C571 C 0.48253 0.56697 0.49386 0.0
C572 C 0.4799 0.61176 0.59221 0.0
C573 C 0.4564 0.6253 0.58014 0.0
C574 C 0.46206 0.64545 0.55557 0.0
C575 C 0.42766 0.6163 0.59103 0.0
C576 C 0.41073 0.64665 0.55247 0.0
C577 C 0.40506 0.6268 0.57727 0.0
C578 C 0.43947 0.65597 0.54189 0.0
C579 C 0.55846 0.57588 0.54536 0.0
O580 O 0.5395 0.51809 0.57168 0.0
O581 O 0.51352 0.54215 0.60596 0.0
O582 O 0.50764 0.48034 0.50633 0.0
O583 O 0.5457 0.51247 0.49533 0.0
O584 O 0.48122 0.49377 0.56245 0.0
O585 O 0.47376 0.53416 0.55035 0.0
O586 O 0.48494 0.58211 0.5203 0.0
O587 O 0.49119 0.54213 0.49186 0.0
O588 O 0.50439 0.61644 0.57577 0.0
O589 O 0.47252 0.58521 0.60142 0.0
O590 O 0.55081 0.58378 0.57329 0.0
O591 O 0.53591 0.56641 0.53052 0.0
H592 H 0.52136 0.42755 0.49834 0.0
H593 H 0.58978 0.49889 0.51536 0.0
H594 H 0.61812 0.46726 0.53896 0.0
H595 H 0.5503 0.39558 0.52173 0.0
H596 H 0.4839 0.6528 0.54643 0.0
H597 H 0.42259 0.60082 0.6099 0.0
H598 H 0.38317 0.6197 0.58643 0.0
H599 H 0.44449 0.67123 0.52282 0.0
Gd600 Gd 0.00708 0.50723 0.06938 0.0
Gd601 Gd 1.00083 0.56413 1.04291 0.0
C602 C 0.06002 0.56155 0.07545 0.0
C603 C 0.02634 0.46209 0.08561 0.0
C604 C 0.05541 0.45625 0.09206 0.0
C605 C 0.07381 0.47362 0.11252 0.0
C606 C 0.0656 0.43402 0.076 0.0
C607 C 0.11234 0.44666 0.10052 0.0
C608 C 0.09378 0.4293 0.08011 0.0
C609 C 0.10194 0.46881 0.11679 0.0
C610 C 0.97495 0.53636 0.10684 0.0
C611 C 0.95013 0.50837 1.0315 0.0
C612 C 0.98091 0.60991 1.03053 0.0
C613 C 0.95224 0.6164 1.02338 0.0
C614 C 0.93392 0.5994 1.00256 0.0
C615 C 0.94246 0.63919 1.03881 0.0
C616 C 0.89637 0.62797 1.01274 0.0
C617 C 0.9148 0.64493 1.03358 0.0
C618 C 0.90636 0.60526 0.99714 0.0
C619 C 0.02927 0.53188 1.00396 0.0
O620 O 0.05179 0.53365 0.07361 0.0
O621 O 0.0426 0.57907 0.06749 0.0
O622 O 0.015 0.47816 0.10587 0.0
O623 O 0.02233 0.46834 0.05632 0.0
O624 O 0.96942 0.50904 0.10237 0.0
O625 O 0.99805 0.54721 0.09178 0.0
O626 O 0.9566 0.53652 1.03391 0.0
O627 O 0.96808 0.49197 1.04108 0.0
O628 O 0.99355 0.59591 1.00916 0.0
O629 O 0.98334 0.60093 0.05921 0.0
O630 O 0.03621 0.5595 1.00538 0.0
O631 O 0.0074 0.52381 1.02161 0.0
H632 H 0.06664 0.49113 0.125 0.0
H633 H 0.05189 0.42058 0.05982 0.0
H634 H 0.10116 0.41233 0.06683 0.0
H635 H 0.11543 0.48235 0.13304 0.0
H636 H 0.94081 0.58152 0.99053 0.0
H637 H 0.95613 0.65236 0.05525 0.0
H638 H 0.90771 0.6624 1.0462 0.0
H639 H 0.89301 0.59223 0.98039 0.0
H640 H 0.22484 0.28534 0.37354 0.0
H641 H 0.30108 0.2696 0.42054 0.0
H642 H 0.27027 0.2341 0.45483 0.0
H643 H 0.17219 0.27111 0.44547 0.0
H644 H 0.14382 0.2546 0.42029 0.0
H645 H 0.17072 0.28373 0.40563 0.0
H646 H 0.18251 0.25234 0.35857 0.0
H647 H 0.15631 0.22297 0.3733 0.0
H648 H 0.19337 0.21869 0.36626 0.0
H649 H 0.23349 0.19323 0.47436 0.0
H650 H 0.19279 0.15284 0.48094 0.0
H651 H 0.14036 0.19593 0.42208 0.0
C652 C 0.23493 0.27567 0.39223 0.0
C653 C 0.26534 0.28036 0.3945 0.0
C654 C 0.27781 0.26631 0.41842 0.0
C655 C 0.26046 0.24621 0.43807 0.0
C656 C 0.23067 0.24077 0.43384 0.0
C657 C 0.21791 0.25559 0.41196 0.0
C658 C 0.18614 0.24321 0.40893 0.0
C659 C 0.16709 0.26443 0.4208 0.0
C660 C 0.17922 0.23374 0.37475 0.0
C661 C 0.18345 0.218 0.43092 0.0
C662 C 0.20921 0.21721 0.4455 0.0
C663 C 0.21297 0.19407 0.46386 0.0
C664 C 0.18989 0.17114 0.46721 0.0
C665 C 0.16349 0.17153 0.45222 0.0
C666 C 0.16011 0.19551 0.43442 0.0
H667 H 0.31163 0.89144 0.80113 0.0
H668 H 0.32808 0.80682 0.82125 0.0
H669 H 0.35478 0.82563 0.86861 0.0
H670 H 0.37959 0.93004 0.82501 0.0
H671 H 0.36408 0.95903 0.84164 0.0
H672 H 0.34697 0.93867 0.80937 0.0
H673 H 0.29891 0.9276 0.84264 0.0
H674 H 0.31588 0.9479 0.87503 0.0
H675 H 0.29872 0.91137 0.88099 0.0
H676 H 0.37942 0.85453 0.91435 0.0
H677 H 0.39933 0.89058 0.95399 0.0
H678 H 0.36529 0.9551 0.90268 0.0
C679 C 0.32052 0.87671 0.81565 0.0
C680 C 0.31756 0.84762 0.80773 0.0
C681 C 0.33021 0.82923 0.82689 0.0
C682 C 0.34528 0.8397 0.85384 0.0
C683 C 0.3475 0.86854 0.86109 0.0
C684 C 0.33543 0.88671 0.84244 0.0
C685 C 0.34059 0.91673 0.85506 0.0
C686 C 0.3589 0.93732 0.83136 0.0
C687 C 0.31182 0.92646 0.86396 0.0
C688 C 0.35733 0.91271 0.88395 0.0
C689 C 0.36128 0.88486 0.88711 0.0
C690 C 0.37641 0.87638 0.91209 0.0
C691 C 0.38769 0.89695 0.93439 0.0
C692 C 0.38355 0.9255 0.93153 0.0
C693 C 0.36829 0.93332 0.90586 0.0
H694 H 0.59601 0.49089 0.7688 0.0
H695 H 0.59821 0.40626 0.73183 0.0
H696 H 0.5769 0.41887 0.68266 0.0
H697 H 0.52701 0.49797 0.73499 0.0
H698 H 0.53778 0.53529 0.72609 0.0
H699 H 0.55326 0.51996 0.75878 0.0
H700 H 0.60472 0.53825 0.73523 0.0
H701 H 0.58941 0.55367 0.7025 0.0
H702 H 0.61368 0.52881 0.69529 0.0
H703 H 0.55795 0.44067 0.63667 0.0
H704 H 0.53971 0.46964 0.59688 0.0
H705 H 0.54638 0.54039 0.66273 0.0
C706 C 0.59196 0.47505 0.75033 0.0
C707 C 0.59873 0.44744 0.75435 0.0
C708 C 0.59293 0.42734 0.72961 0.0
C709 C 0.58093 0.43436 0.70147 0.0
C710 C 0.57445 0.46158 0.69829 0.0
C711 C 0.57949 0.48161 0.72204 0.0
C712 C 0.57012 0.50925 0.71225 0.0
C713 C 0.54558 0.51601 0.73435 0.0
C714 C 0.59603 0.53396 0.71126 0.0
C715 C 0.55935 0.50164 0.6792 0.0
C716 C 0.56233 0.47402 0.67177 0.0
C717 C 0.55524 0.4622 0.64235 0.0
C718 C 0.54494 0.47895 0.61983 0.0
C719 C 0.54137 0.50729 0.62663 0.0
C720 C 0.54843 0.51869 0.65696 0.0
H721 H 0.93464 0.66036 0.22211 0.0
H722 H 0.88665 0.59163 0.27976 0.0
H723 H 0.89972 0.55682 0.24178 0.0
H724 H 0.91875 0.62826 0.14593 0.0
H725 H 0.95447 0.63993 0.12872 0.0
H726 H 0.94081 0.6605 0.15973 0.0
H727 H 0.98545 0.6573 0.19288 0.0
H728 H 0.99935 0.6369 0.16188 0.0
H729 H 0.99411 0.62288 0.20148 0.0
H730 H 0.91564 0.52911 0.1976 0.0
H731 H 0.93804 0.50913 0.15154 0.0
H732 H 0.9805 0.59397 0.12314 0.0
C733 C 0.92702 0.63801 0.22691 0.0
C734 C 0.9088 0.62906 0.25383 0.0
C735 C 0.89957 0.59943 0.25896 0.0
C736 C 0.90713 0.5793 0.23758 0.0
C737 C 0.9245 0.58882 0.21122 0.0
C738 C 0.93478 0.61736 0.20589 0.0
C739 C 0.95404 0.62136 0.17593 0.0
C740 C 0.94125 0.63854 0.15111 0.0
C741 C 0.98508 0.63545 0.1835 0.0
C742 C 0.95278 0.59059 0.16543 0.0
C743 C 0.93525 0.57238 0.18611 0.0
C744 C 0.92965 0.54311 0.18138 0.0
C745 C 0.94249 0.53197 0.15499 0.0
C746 C 0.9612 0.54988 0.13367 0.0
C747 C 0.9664 0.5797 0.13901 0.0
H748 H 0.38952 0.19402 0.15338 0.0
H749 H 0.45734 0.22479 0.21858 0.0
H750 H 0.48612 0.19001 0.19723 0.0
H751 H 0.39428 0.12093 0.15898 0.0
H752 H 0.388 0.11292 0.11789 0.0
H753 H 0.37327 0.14147 0.13659 0.0
H754 H 0.39902 0.17683 0.09413 0.0
H755 H 0.41351 0.14829 0.07505 0.0
H756 H 0.43754 0.18001 0.08703 0.0
H757 H 0.50659 0.1511 0.17081 0.0
H758 H 0.5189 0.11135 0.13897 0.0
H759 H 0.43768 0.10475 0.0909 0.0
C760 C 0.41068 0.19374 0.16266 0.0
C761 C 0.4213 0.21205 0.18758 0.0
C762 C 0.44882 0.21081 0.19959 0.0
C763 C 0.46531 0.19117 0.18761 0.0
C764 C 0.45394 0.17291 0.16364 0.0
C765 C 0.42739 0.17408 0.15108 0.0
C766 C 0.41997 0.15137 0.126 0.0
C767 C 0.39223 0.13044 0.13545 0.0
C768 C 0.41736 0.16494 0.09363 0.0
C769 C 0.4464 0.13718 0.12667 0.0
C770 C 0.46571 0.15005 0.14852 0.0
C771 C 0.49172 0.14089 0.15352 0.0
C772 C 0.49847 0.11823 0.13534 0.0
C773 C 0.47923 0.10486 0.11247 0.0
C774 C 0.45271 0.11434 0.10837 0.0
H775 H 0.15767 0.94218 0.64788 0.0
H776 H 0.09105 0.8672 0.64151 0.0
H777 H 0.05731 0.89679 0.6211 0.0
H778 H 0.11024 0.99412 0.6685 0.0
H779 H 0.13118 1.02152 0.644 0.0
H780 H 0.14858 0.99522 0.66213 0.0
H781 H 0.16827 0.98188 0.60718 0.0
H782 H 0.15098 1.00809 0.58892 0.0
H783 H 0.14332 0.97156 0.57602 0.0
H784 H 0.03231 0.93368 0.5986 0.0
H785 H 0.01867 0.97435 0.57099 0.0
H786 H 0.10256 1.02519 0.5894 0.0
C787 C 0.13572 0.93225 0.64281 0.0
C788 C 0.12651 0.9027 0.64662 0.0
C789 C 0.09812 0.88995 0.63893 0.0
C790 C 0.07891 0.90658 0.62753 0.0
C791 C 0.08869 0.93573 0.62375 0.0
C792 C 0.1165 0.94844 0.63091 0.0
C793 C 0.1226 0.97956 0.62161 0.0
C794 C 0.12849 0.99873 0.65081 0.0
C795 C 0.14777 0.98561 0.59697 0.0
C796 C 0.09407 0.98225 0.60746 0.0
C797 C 0.07463 0.95686 0.60954 0.0
C798 C 0.04722 0.95372 0.59709 0.0
C799 C 0.03966 0.97698 0.58155 0.0
C800 C 0.05956 1.00288 0.57829 0.0
C801 C 0.08692 1.00566 0.5918 0.0
H802 H 0.78807 0.48338 0.96515 0.0
H803 H 0.8078 0.40497 0.92499 0.0
H804 H 0.85785 0.41739 0.94286 0.0
H805 H 0.86129 0.52731 0.94691 0.0
H806 H 0.86151 0.54694 0.98337 0.0
H807 H 0.82772 0.53388 0.96492 0.0
H808 H 0.80798 0.50768 1.01645 0.0
H809 H 0.84166 0.52073 1.03508 0.0
H810 H 0.82793 0.48302 1.03382 0.0
H811 H 0.90306 0.4345 0.9699 0.0
H812 H 0.94401 0.45809 1.00038 0.0
H813 H 0.89808 0.52759 1.02241 0.0
C814 C 0.80329 0.46937 0.95937 0.0
C815 C 0.79422 0.4433 0.9434 0.0
C816 C 0.81444 0.42509 0.93693 0.0
C817 C 0.84287 0.43193 0.94708 0.0
C818 C 0.85098 0.45723 0.96359 0.0
C819 C 0.83209 0.47599 0.96934 0.0
C820 C 0.84657 0.50123 0.98874 0.0
C821 C 0.84942 0.52899 0.96982 0.0
C822 C 0.83004 0.50327 1.0204 0.0
C823 C 0.87611 0.49319 0.99365 0.0
C824 C 0.87793 0.46765 0.97887 0.0
C825 C 0.9021 0.45471 0.98121 0.0
C826 C 0.92521 0.46824 0.99888 0.0
C827 C 0.92438 0.49471 1.01393 0.0
C828 C 0.89947 0.50746 1.01105 0.0
H829 H 0.70994 0.60284 0.44659 0.0
H830 H 0.70531 0.69291 0.45202 0.0
H831 H 0.65913 0.68155 0.48207 0.0
H832 H 0.63254 0.57904 0.4355 0.0
H833 H 0.63065 0.54723 0.45877 0.0
H834 H 0.66385 0.56212 0.43779 0.0
H835 H 0.69129 0.56452 0.49001 0.0
H836 H 0.65815 0.54975 0.51114 0.0
H837 H 0.67889 0.58326 0.5234 0.0
H838 H 0.61482 0.66142 0.51329 0.0
H839 H 0.57247 0.63288 0.541 0.0
H840 H 0.60252 0.55529 0.51296 0.0
C841 C 0.6991 0.62017 0.45379 0.0
C842 C 0.7118 0.6489 0.44729 0.0
C843 C 0.69673 0.67083 0.45738 0.0
C844 C 0.67025 0.66459 0.47429 0.0
C845 C 0.65867 0.63624 0.48069 0.0
C846 C 0.67231 0.6143 0.4705 0.0
C847 C 0.65468 0.58564 0.48041 0.0
C848 C 0.64485 0.56744 0.45138 0.0
C849 C 0.67178 0.56987 0.50255 0.0
C850 C 0.62916 0.59505 0.49788 0.0
C851 C 0.63216 0.6244 0.49787 0.0
C852 C 0.6121 0.63843 0.51328 0.0
C853 C 0.58821 0.62209 0.52904 0.0
C854 C 0.58438 0.59204 0.52905 0.0
C855 C 0.605 0.57828 0.51313 0.0
H856 H 0.23199 0.35267 0.13568 0.0
H857 H 0.29142 0.43111 0.15244 0.0
H858 H 0.25533 0.45879 0.13349 0.0
H859 H 0.19651 0.37665 0.06544 0.0
H860 H 0.16149 0.35757 0.07832 0.0
H861 H 0.19377 0.34423 0.08783 0.0
H862 H 0.17843 0.3438 0.14721 0.0
H863 H 0.14634 0.3574 0.13798 0.0
H864 H 0.17128 0.37614 0.16558 0.0
H865 H 0.21092 0.47762 0.11802 0.0
H866 H 0.16187 0.48641 0.10752 0.0
H867 H 0.13068 0.39523 0.1042 0.0
C868 C 0.23769 0.37564 0.1341 0.0
C869 C 0.26457 0.38995 0.14448 0.0
C870 C 0.27108 0.41998 0.1437 0.0
C871 C 0.25073 0.43577 0.13308 0.0
C872 C 0.224 0.42107 0.12366 0.0
C873 C 0.21749 0.39164 0.12397 0.0
C874 C 0.18626 0.38105 0.11594 0.0
C875 C 0.18441 0.36386 0.08504 0.0
C876 C 0.16961 0.36358 0.14331 0.0
C877 C 0.17599 0.40907 0.11182 0.0
C878 C 0.19813 0.4319 0.11592 0.0
C879 C 0.19348 0.4599 0.11452 0.0
C880 C 0.16544 0.46466 0.10887 0.0
C881 C 0.1423 0.44153 0.10506 0.0
C882 C 0.1479 0.41342 0.10637 0.0
H883 H 0.55028 0.24558 0.94204 0.0
H884 H 0.64048 0.23638 0.9331 0.0
H885 H 0.62806 0.18799 0.95557 0.0
H886 H 0.53509 0.20885 1.01618 0.0
H887 H 0.49899 0.19208 1.00645 0.0
H888 H 0.51478 0.22579 0.98896 0.0
H889 H 0.5057 0.20437 0.93309 0.0
H890 H 0.48979 0.17062 0.95042 0.0
H891 H 0.51966 0.17269 0.92216 0.0
H892 H 0.60578 0.14018 0.97927 0.0
H893 H 0.57524 0.09717 1.00267 0.0
H894 H 0.49978 0.13759 0.99704 0.0
C895 C 0.56736 0.23328 0.94453 0.0
C896 C 0.59641 0.24492 0.93582 0.0
C897 C 0.61814 0.22815 0.93989 0.0
C898 C 0.61128 0.20054 0.95253 0.0
C899 C 0.58254 0.18983 0.96116 0.0
C900 C 0.56091 0.20568 0.95738 0.0
C901 C 0.53183 0.18933 0.96912 0.0
C902 C 0.51945 0.20494 0.99682 0.0
C903 C 0.51049 0.18393 0.94208 0.0
C904 C 0.54046 0.16183 0.97999 0.0
C905 C 0.56981 0.1625 0.97512 0.0
C906 C 0.58277 0.13945 0.98318 0.0
C907 C 0.56528 0.1151 0.99645 0.0
C908 C 0.53517 0.11399 1.00165 0.0
C909 C 0.52274 0.13778 0.99337 0.0
H910 H 0.91075 0.84151 0.47721 0.0
H911 H 0.93087 0.85336 0.37681 0.0
H912 H 0.95519 0.90257 0.38708 0.0
H913 H 0.89413 0.91105 0.49163 0.0
H914 H 0.90982 0.9147 0.53002 0.0
H915 H 0.89515 0.8799 0.51513 0.0
H916 H 0.94422 0.86363 0.52302 0.0
H917 H 0.95896 0.89836 0.53808 0.0
H918 H 0.9768 0.88378 0.50512 0.0
H919 H 0.97623 0.95105 0.40798 0.0
H920 H 0.99373 0.99472 0.43805 0.0
H921 H 0.95871 0.95215 0.52488 0.0
C922 C 0.92017 0.8544 0.45729 0.0
C923 C 0.91884 0.8433 0.4261 0.0
C924 C 0.93192 0.86099 0.40093 0.0
C925 C 0.9456 0.88914 0.40651 0.0
C926 C 0.94607 0.89944 0.4374 0.0
C927 C 0.9338 0.8826 0.46241 0.0
C928 C 0.93702 0.899 0.49333 0.0
C929 C 0.90726 0.9013 0.50841 0.0
C930 C 0.95535 0.88538 0.51623 0.0
C931 C 0.95292 0.92775 0.48177 0.0
C932 C 0.95795 0.9275 0.44943 0.0
C933 C 0.97242 0.95146 0.43331 0.0
C934 C 0.98228 0.97622 0.45066 0.0
C935 C 0.9776 0.97703 0.48389 0.0
C936 C 0.9625 0.95239 0.49951 0.0
H937 H 0.32679 0.77149 0.54577 0.0
H938 H 0.24895 0.70784 0.54531 0.0
H939 H 0.27751 0.67203 0.52607 0.0
H940 H 0.3698 0.73792 0.47835 0.0
H941 H 0.40247 0.7481 0.4999 0.0
H942 H 0.37529 0.77053 0.50082 0.0
H943 H 0.37365 0.76857 0.56193 0.0
H944 H 0.40012 0.74581 0.56135 0.0
H945 H 0.36557 0.73447 0.58145 0.0
H946 H 0.31473 0.64126 0.52426 0.0
H947 H 0.35665 0.61905 0.53684 0.0
H948 H 0.41079 0.70243 0.53992 0.0
C949 C 0.3157 0.75039 0.53965 0.0
C950 C 0.28585 0.74229 0.54656 0.0
C951 C 0.27178 0.71445 0.53945 0.0
C952 C 0.2879 0.694 0.52861 0.0
C953 C 0.31789 0.70199 0.52463 0.0
C954 C 0.33161 0.72983 0.52918 0.0
C955 C 0.36415 0.73204 0.52966 0.0
C956 C 0.37878 0.74809 0.50043 0.0
C957 C 0.37654 0.746 0.56042 0.0
C958 C 0.36644 0.70089 0.52798 0.0
C959 C 0.33971 0.68392 0.52394 0.0
C960 C 0.33588 0.65434 0.52639 0.0
C961 C 0.35971 0.64192 0.53393 0.0
C962 C 0.38692 0.65908 0.53929 0.0
C963 C 0.39043 0.68878 0.53511 0.0
H964 H 0.76274 0.85553 0.69624 0.0
H965 H 0.8145 0.80848 0.75209 0.0
H966 H 0.85821 0.83178 0.72336 0.0
H967 H 0.80955 0.86328 0.62221 0.0
H968 H 0.80424 0.89939 0.61668 0.0
H969 H 0.776 0.87369 0.63529 0.0
H970 H 0.77524 0.90703 0.68373 0.0
H971 H 0.80354 0.93265 0.66547 0.0
H972 H 0.80826 0.91898 0.70416 0.0
H973 H 0.89729 0.86533 0.69539 0.0
H974 H 0.92827 0.90769 0.67163 0.0
H975 H 0.85205 0.93623 0.63783 0.0
C976 C 0.7831 0.84965 0.70223 0.0
C977 C 0.78466 0.82976 0.72651 0.0
C978 C 0.81208 0.82283 0.73309 0.0
C979 C 0.83732 0.83618 0.71698 0.0
C980 C 0.83506 0.85665 0.69442 0.0
C981 C 0.80863 0.86337 0.687 0.0
C982 C 0.81246 0.88905 0.66542 0.0
C983 C 0.79981 0.88085 0.63297 0.0
C984 C 0.79909 0.91335 0.68062 0.0
C985 C 0.84516 0.89648 0.66313 0.0
C986 C 0.85779 0.87705 0.67928 0.0
C987 C 0.88768 0.88041 0.68219 0.0
C988 C 0.9051 0.9045 0.66863 0.0
C989 C 0.8925 0.92513 0.65292 0.0
C990 C 0.8622 0.92074 0.64972 0.0
H991 H 0.64282 0.17109 0.34183 0.0
H992 H 0.67308 0.09888 0.38186 0.0
H993 H 0.65263 0.06868 0.33743 0.0
H994 H 0.57597 0.1312 0.30505 0.0
H995 H 0.58145 0.15383 0.27067 0.0
H996 H 0.59312 0.16792 0.3086 0.0
H997 H 0.64495 0.18424 0.28483 0.0
H998 H 0.6336 0.16995 0.24702 0.0
H999 H 0.66352 0.15848 0.26566 0.0
H1000 H 0.63414 0.04821 0.28598 0.0
H1001 H 0.62069 1.03934 0.23036 0.0
H1002 H 0.60479 0.1258 0.22294 0.0
C1003 C 0.64407 0.14865 0.34171 0.0
C1004 C 0.65879 0.13691 0.36529 0.0
C1005 C 0.66134 0.10787 0.36404 0.0
C1006 C 0.64978 0.09066 0.33902 0.0
C1007 C 0.63602 0.10302 0.3155 0.0
C1008 C 0.63311 0.13137 0.31664 0.0
C1009 C 0.62085 0.14044 0.28656 0.0
C1010 C 0.59107 0.14884 0.29312 0.0
C1011 C 0.642 0.1647 0.27006 0.0
C1012 C 0.61823 0.11307 0.26792 0.0
C1013 C 0.62648 0.09156 0.28523 0.0
C1014 C 0.62724 0.06475 0.27234 0.0
C1015 C 0.6196 0.05991 0.24081 0.0
C1016 C 0.61181 0.08193 0.22254 0.0
C1017 C 0.61079 0.10866 0.23645 0.0
H1018 H 0.40296 0.6695 0.38823 0.0
H1019 H 0.41113 0.61115 0.31097 0.0
H1020 H 0.43689 0.58299 0.34521 0.0
H1021 H 0.47335 0.66691 0.42304 0.0
H1022 H 0.45972 0.66759 0.46327 0.0
H1023 H 0.44319 0.68452 0.43257 0.0
H1024 H 0.39354 0.65465 0.44836 0.0
H1025 H 0.4097 0.63706 0.47875 0.0
H1026 H 0.38918 0.61635 0.44884 0.0
H1027 H 0.45963 0.55993 0.38732 0.0
H1028 H 0.47947 0.5432 0.43512 0.0
H1029 H 0.45716 0.61538 0.48742 0.0
C1030 C 0.41068 0.65107 0.37854 0.0
C1031 C 0.40536 0.64259 0.3468 0.0
C1032 C 0.41519 0.61804 0.33508 0.0
C1033 C 0.42979 0.60191 0.35438 0.0
C1034 C 0.43436 0.61044 0.38559 0.0
C1035 C 0.42523 0.63443 0.39776 0.0
C1036 C 0.43228 0.63798 0.43262 0.0
C1037 C 0.45339 0.66591 0.4382 0.0
C1038 C 0.40451 0.63642 0.45335 0.0
C1039 C 0.44666 0.61222 0.43797 0.0
C1040 C 0.44754 0.59676 0.41038 0.0
C1041 C 0.4592 0.57191 0.40905 0.0
C1042 C 0.4704 0.56252 0.43653 0.0
C1043 C 0.47004 0.57785 0.4653 0.0
C1044 C 0.45794 0.60314 0.46589 0.0
H1045 H 0.11692 0.48152 0.8522 0.0
H1046 H 0.07691 0.39535 0.87899 0.0
H1047 H 0.0529 0.41401 0.92461 0.0
H1048 H 0.13003 0.50596 0.93436 0.0
H1049 H 0.12297 0.5412 0.92688 0.0
H1050 H 0.13748 0.52151 0.89562 0.0
H1051 H 0.09486 0.52769 0.86068 0.0
H1052 H 0.08013 0.54726 0.89188 0.0
H1053 H 0.05821 0.51614 0.87541 0.0
H1054 H 0.02932 0.44105 0.96388 0.0
H1055 H 0.01176 0.4751 0.99971 0.0
H1056 H 0.07075 0.5446 0.95444 0.0
C1057 C 0.10342 0.46651 0.86784 0.0
C1058 C 0.09832 0.43682 0.86108 0.0
C1059 C 0.08045 0.41817 0.8825 0.0
C1060 C 0.06685 0.42854 0.90886 0.0
C1061 C 0.0717 0.45772 0.9143 0.0
C1062 C 0.08993 0.47653 0.8949 0.0
C1063 C 0.09143 0.50693 0.90699 0.0
C1064 C 0.12232 0.51965 0.91653 0.0
C1065 C 0.0805 0.5256 0.88226 0.0
C1066 C 0.07078 0.50212 0.9358 0.0
C1067 C 0.0596 0.47347 0.93913 0.0
C1068 C 0.03859 0.46344 0.96218 0.0
C1069 C 0.02893 0.48304 0.98273 0.0
C1070 C 0.04071 0.51246 0.98103 0.0
C1071 C 0.0619 0.52217 0.95698 0.0
H1072 H 0.58059 0.86448 0.95157 0.0
H1073 H 0.65143 0.91688 0.8992 0.0
H1074 H 0.63086 0.95948 0.91231 0.0
H1075 H 0.52435 0.90487 0.93141 0.0
H1076 H 0.50685 0.90146 0.97008 0.0
H1077 H 0.52589 0.87413 0.95539 0.0
H1078 H 0.55749 0.87967 1.00478 0.0
H1079 H 0.53829 0.90671 1.01976 0.0
H1080 H 0.57717 0.91433 1.01485 0.0
H1081 H 0.60507 0.99654 0.93239 0.0
H1082 H 0.57635 1.02714 0.96183 0.0
H1083 H 0.52118 0.95238 1.00172 0.0
C1084 C 0.59169 0.88493 0.94289 0.0
C1085 C 0.61734 0.8872 0.92378 0.0
C1086 C 0.63135 0.91442 0.9131 0.0
C1087 C 0.61989 0.93882 0.92048 0.0
C1088 C 0.59439 0.93585 0.93875 0.0
C1089 C 0.58048 0.90975 0.9501 0.0
C1090 C 0.55406 0.91309 0.97058 0.0
C1091 C 0.52613 0.89745 0.95599 0.0
C1092 C 0.55694 0.90285 1.0045 0.0
C1093 C 0.55576 0.94516 0.9693 0.0
C1094 C 0.57914 0.95768 0.95051 0.0
C1095 C 0.58651 0.98704 0.9469 0.0
C1096 C 0.57006 1.00423 0.96365 0.0
C1097 C 0.54642 0.99206 0.9836 0.0
C1098 C 0.53872 0.96212 0.98593 0.0
H1099 H 0.87383 0.18729 0.50074 0.0
H1100 H 0.92151 0.2209 0.416 0.0
H1101 H 0.95857 0.19096 0.42568 0.0
H1102 H 0.93598 0.17496 0.54851 0.0
H1103 H 0.91542 0.14207 0.56377 0.0
H1104 H 0.89723 0.17096 0.554 0.0
H1105 H 0.86393 0.13705 0.51731 0.0
H1106 H 0.88242 0.1083 0.5262 0.0
H1107 H 0.87992 0.11887 0.48575 0.0
H1108 H 0.98789 0.15356 0.44285 0.0
H1109 H 1.0049 0.11113 0.46405 0.0
H1110 H 0.93342 0.09932 0.53286 0.0
C1111 C 0.89284 0.18937 0.48512 0.0
C1112 C 0.89553 0.20697 0.45828 0.0
C1113 C 0.9197 0.20803 0.43718 0.0
C1114 C 0.94069 0.19106 0.44247 0.0
C1115 C 0.93674 0.17295 0.46861 0.0
C1116 C 0.91332 0.17207 0.48955 0.0
C1117 C 0.91132 0.14809 0.51302 0.0
C1118 C 0.91524 0.15972 0.54683 0.0
C1119 C 0.88271 0.12684 0.51038 0.0
C1120 C 0.93686 0.13511 0.50169 0.0
C1121 C 0.95179 0.15004 0.4766 0.0
C1122 C 0.97629 0.14173 0.46244 0.0
C1123 C 0.98568 0.11761 0.4744 0.0
C1124 C 0.96996 0.10179 0.49941 0.0
C1125 C 0.94538 0.11073 0.51317 0.0
H1126 H 0.18889 0.67504 0.14875 0.0
H1127 H 0.23477 0.60445 0.15968 0.0
H1128 H 0.19445 0.57214 0.13577 0.0
H1129 H 0.11732 0.63544 0.16646 0.0
H1130 H 0.09987 0.65373 0.13772 0.0
H1131 H 0.13239 0.67162 0.15559 0.0
H1132 H 0.15674 0.68206 0.10014 0.0
H1133 H 0.12431 0.66413 0.08209 0.0
H1134 H 0.15844 0.65304 0.0731 0.0
H1135 H 0.14968 0.54729 0.11041 0.0
H1136 H 0.1025 0.531 0.08701 0.0
H1137 H 0.08425 0.61707 0.09201 0.0
C1138 C 0.19053 0.65281 0.14597 0.0
C1139 C 0.21513 0.64236 0.15637 0.0
C1140 C 0.21611 0.61301 0.1525 0.0
C1141 C 0.19336 0.59447 0.13867 0.0
C1142 C 0.16956 0.60544 0.12872 0.0
C1143 C 0.16786 0.63388 0.13226 0.0
C1144 C 0.13949 0.63994 0.11988 0.0
C1145 C 0.12119 0.65082 0.1465 0.0
C1146 C 0.14509 0.66104 0.09215 0.0
C1147 C 0.12556 0.61045 0.10886 0.0
C1148 C 0.14344 0.59096 0.11413 0.0
C1149 C 0.1355 0.56237 0.10622 0.0
C1150 C 0.10849 0.55331 0.09292 0.0
C1151 C 0.08937 0.57263 0.08763 0.0
C1152 C 0.09829 0.60172 0.09554 0.0
H1153 H 0.32947 0.42635 0.66804 0.0
H1154 H 0.29335 0.50401 0.66926 0.0
H1155 H 0.33626 0.52856 0.63897 0.0
H1156 H 0.40429 0.46068 0.67698 0.0
H1157 H 0.41882 0.43618 0.65111 0.0
H1158 H 0.38533 0.4246 0.67311 0.0
H1159 H 0.35967 0.40881 0.62112 0.0
H1160 H 0.39306 0.42036 0.59896 0.0
H1161 H 0.36103 0.43411 0.58944 0.0
H1162 H 0.38178 0.54418 0.60632 0.0
H1163 H 0.42823 0.55058 0.57601 0.0
H1164 H 0.43678 0.4638 0.59767 0.0
C1165 C 0.33063 0.44852 0.66191 0.0
C1166 C 0.30802 0.46328 0.67116 0.0
C1167 C 0.31049 0.49235 0.66284 0.0
C1168 C 0.33473 0.50645 0.64547 0.0
C1169 C 0.35656 0.49132 0.63671 0.0
C1170 C 0.35491 0.46307 0.64483 0.0
C1171 C 0.3816 0.4519 0.63262 0.0
C1172 C 0.39851 0.44281 0.66009 0.0
C1173 C 0.37334 0.42734 0.60914 0.0
C1174 C 0.39836 0.47821 0.61614 0.0
C1175 C 0.38338 0.50064 0.61868 0.0
C1176 C 0.39386 0.52687 0.60453 0.0
C1177 C 0.42036 0.53035 0.58744 0.0
C1178 C 0.43641 0.50789 0.58492 0.0
C1179 C 0.42517 0.48146 0.5995 0.0
H1180 H 0.78428 0.72445 0.96085 0.0
H1181 H 0.72317 0.64672 0.94634 0.0
H1182 H 0.75578 0.61922 0.97257 0.0
H1183 H 0.84406 0.69695 0.93957 0.0
H1184 H 0.86825 0.71657 0.9673 0.0
H1185 H 0.83771 0.7309 0.95434 0.0
H1186 H 0.81949 0.73492 1.01232 0.0
H1187 H 0.8503 0.72098 1.0256 0.0
H1188 H 0.81419 0.704 1.03751 0.0
H1189 H 0.79791 0.59974 0.99314 0.0
H1190 H 0.84579 0.5897 1.00688 0.0
H1191 H 0.88056 0.68017 1.00494 0.0
C1192 C 0.77726 0.70183 0.9647 0.0
C1193 C 0.75094 0.68766 0.95271 0.0
C1194 C 0.74292 0.65788 0.95636 0.0
C1195 C 0.76135 0.64217 0.97107 0.0
C1196 C 0.78776 0.65663 0.98171 0.0
C1197 C 0.79562 0.68586 0.9789 0.0
C1198 C 0.82659 0.69585 0.98836 0.0
C1199 C 0.84523 0.71094 0.96074 0.0
C1200 C 0.8277 0.71507 1.0177 0.0
C1201 C 0.83526 0.66763 0.99595 0.0
C1202 C 0.81245 0.64531 0.99246 0.0
C1203 C 0.8158 0.6171 0.9963 0.0
C1204 C 0.84318 0.61158 1.00375 0.0
C1205 C 0.867 0.63412 1.0069 0.0
C1206 C 0.86272 0.6625 1.0033 0.0
H1207 H 0.45548 0.84592 0.16358 0.0
H1208 H 0.3678 0.86297 0.17248 0.0
H1209 H 0.38396 0.91016 0.14806 0.0
H1210 H 0.4921 0.91723 0.1806 0.0
H1211 H 0.52131 0.91632 0.1521 0.0
H1212 H 0.50296 0.88384 0.17038 0.0
H1213 H 0.49156 0.86189 0.11516 0.0
H1214 H 0.50983 0.89434 0.09672 0.0
H1215 H 0.47283 0.88023 0.08766 0.0
H1216 H 0.40975 0.95615 0.12357 0.0
H1217 H 0.44312 0.9969 0.09958 0.0
H1218 H 0.51398 0.95003 0.10487 0.0
C1219 C 0.43972 0.85966 0.16055 0.0
C1220 C 0.41028 0.8506 0.16997 0.0
C1221 C 0.39036 0.86919 0.1652 0.0
C1222 C 0.39937 0.89614 0.15146 0.0
C1223 C 0.42843 0.90435 0.14233 0.0
C1224 C 0.44832 0.88663 0.14653 0.0
C1225 C 0.47822 0.90056 0.13417 0.0
C1226 C 0.49992 0.90473 0.16091 0.0
C1227 C 0.48872 0.88322 0.1068 0.0
C1228 C 0.47206 0.92891 0.12263 0.0
C1229 C 0.44319 0.93066 0.12764 0.0
C1230 C 0.43236 0.95493 0.11939 0.0
C1231 C 0.45147 0.97797 0.10569 0.0
C1232 C 0.4811 0.97664 0.10011 0.0
C1233 C 0.49142 0.95168 0.10871 0.0
H1234 H 0.10458 0.22886 0.68821 0.0
H1235 H 0.11704 0.28443 0.60641 0.0
H1236 H 0.09311 0.24517 0.57334 0.0
H1237 H 0.11971 0.16743 0.64813 0.0
H1238 H 0.09284 0.14212 0.66923 0.0
H1239 H 0.10828 0.17508 0.68785 0.0
H1240 H 0.05705 0.18686 0.6982 0.0
H1241 H 0.04142 0.15383 0.67974 0.0
H1242 H 0.03331 0.18701 0.66566 0.0
H1243 H 0.07228 0.20048 0.54815 0.0
H1244 H 0.0539 0.15174 0.53118 0.0
H1245 H 0.0533 0.12226 0.6281 0.0
C1246 C 0.10163 0.23275 0.66348 0.0
C1247 C 0.11252 0.25973 0.64979 0.0
C1248 C 0.10884 0.26397 0.61727 0.0
C1249 C 0.09523 0.24181 0.59833 0.0
C1250 C 0.08531 0.21537 0.61219 0.0
C1251 C 0.0881 0.21057 0.64397 0.0
C1252 C 0.07674 0.17939 0.65202 0.0
C1253 C 0.10083 0.16517 0.66508 0.0
C1254 C 0.05057 0.17661 0.67529 0.0
C1255 C 0.06776 0.16748 0.61966 0.0
C1256 C 0.07288 0.18889 0.59726 0.0
C1257 C 0.0679 0.18357 0.56547 0.0
C1258 C 0.05759 0.15564 0.55607 0.0
C1259 C 0.05216 0.13301 0.57824 0.0
C1260 C 0.05695 0.13911 0.61066 0.0
H1261 H 0.72138 0.35319 0.541 0.0
H1262 H 0.66651 0.28688 0.59511 0.0
H1263 H 0.63057 0.31843 0.60404 0.0
H1264 H 0.69802 0.41757 0.58404 0.0
H1265 H 0.69942 0.43618 0.54697 0.0
H1266 H 0.72445 0.41236 0.5537 0.0
H1267 H 0.70778 0.38497 0.50271 0.0
H1268 H 0.68225 0.40801 0.4962 0.0
H1269 H 0.67 0.3701 0.49884 0.0
H1270 H 0.59628 0.35172 0.59592 0.0
H1271 H 0.56761 0.38547 0.57435 0.0
H1272 H 0.64419 0.42915 0.52347 0.0
C1273 C 0.70265 0.34608 0.55642 0.0
C1274 C 0.69685 0.31798 0.56798 0.0
C1275 C 0.67145 0.30863 0.58665 0.0
C1276 C 0.65095 0.32639 0.59176 0.0
C1277 C 0.65631 0.3534 0.57809 0.0
C1278 C 0.68184 0.36343 0.56125 0.0
C1279 C 0.68035 0.39099 0.54441 0.0
C1280 C 0.70183 0.41574 0.55811 0.0
C1281 C 0.68537 0.38832 0.50844 0.0
C1282 C 0.64945 0.39391 0.5527 0.0
C1283 C 0.63612 0.37243 0.57272 0.0
C1284 C 0.60669 0.36905 0.58089 0.0
C1285 C 0.5905 0.38806 0.56821 0.0
C1286 C 0.60374 0.40995 0.54734 0.0
C1287 C 0.63366 0.41305 0.53997 0.0
loop_
_geom_bond_atom_site_label_1
_geom_bond_atom_site_label_2
_geom_bond_distance
_geom_bond_site_symmetry_2
_ccdc_geom_bond_type
C0 C1 1.391 . S
C0 C4 1.391 . S
C0 H42 0.948 . S
C1 C0 1.391 . S
C1 C2 1.391 . S
C2 C1 1.391 . S
C2 H58 0.947 . S
C2 C59 1.392 . S
C3 C4 1.391 . S
C3 C7 1.397 . S
C3 C59 1.419 . S
C4 C0 1.391 . S
C4 C3 1.391 . S
C4 C5 1.399 . S
C5 C4 1.399 . S
C5 C8 1.396 . S
C5 C17 1.453 . S
C5 C18 1.684 . S
H6 C30 0.948 . S
C7 C3 1.397 . S
C7 C8 1.394 . S
C7 C26 1.723 . S
C8 C5 1.396 . S
C8 C7 1.394 . S
C8 C38 1.723 . S
H9 C32 0.947 . S
H10 C33 0.948 . S
H11 C39 0.982 . S
H12 C40 0.979 . S
H13 C40 0.980 . S
H14 C40 0.983 . S
H15 C39 0.979 . S
H16 C39 0.977 . S
C17 C5 1.453 . S
C17 H46 0.982 . S
C17 H47 0.979 . S
C17 H48 0.977 . S
C18 C5 1.684 . S
C18 H43 0.979 . S
C18 H44 0.980 . S
C18 H45 0.983 . S
C19 C20 1.391 . S
C19 C24 1.391 . S
C19 H49 0.948 . S
C20 C19 1.391 . S
C20 C21 1.391 . S
C21 C20 1.391 . S
C21 C22 1.392 . S
C21 H50 0.947 . S
C22 C21 1.392 . S
C22 C23 1.419 . S
C22 H51 0.948 . S
C23 C22 1.419 . S
C23 C24 1.391 . S
C23 C27 1.397 . S
C24 C19 1.391 . S
C24 C23 1.391 . S
C24 C25 1.399 . S
C25 C24 1.399 . S
C25 C26 1.396 . S
C25 C28 1.453 . S
C25 C29 1.684 . S
C26 C7 1.723 . S
C26 C25 1.396 . S
C26 C27 1.394 . S
C27 C23 1.397 . S
C27 C26 1.394 . S
C27 C37 1.723 . S
C28 C25 1.453 . S
C28 H52 0.982 . S
C28 H53 0.979 . S
C28 H54 0.977 . S
C29 C25 1.684 . S
C29 H55 0.979 . S
C29 H56 0.980 . S
C29 H57 0.983 . S
C30 H6 0.948 . S
C30 C31 1.391 . S
C30 C35 1.391 . S
C31 C30 1.391 . S
C31 C32 1.391 . S
C32 H9 0.947 . S
C32 C31 1.391 . S
C32 C33 1.392 . S
C33 H10 0.948 . S
C33 C32 1.392 . S
C33 C34 1.419 . S
C34 C33 1.419 . S
C34 C35 1.391 . S
C34 C38 1.397 . S
C35 C30 1.391 . S
C35 C34 1.391 . S
C35 C36 1.399 . S
C36 C35 1.399 . S
C36 C37 1.396 . S
C36 C39 1.453 . S
C36 C40 1.684 . S
C37 C27 1.723 . S
C37 C36 1.396 . S
C37 C38 1.394 . S
C38 C8 1.723 . S
C38 C34 1.397 . S
C38 C37 1.394 . S
C39 H11 0.982 . S
C39 H15 0.979 . S
C39 H16 0.977 . S
C39 C36 1.453 . S
C40 H12 0.979 . S
C40 H13 0.980 . S
C40 H14 0.983 . S
C40 C36 1.684 . S
H41 C59 0.948 . S
H42 C0 0.948 . S
H43 C18 0.979 . S
H44 C18 0.980 . S
H45 C18 0.983 . S
H46 C17 0.982 . S
H47 C17 0.979 . S
H48 C17 0.977 . S
H49 C19 0.948 . S
H50 C21 0.947 . S
H51 C22 0.948 . S
H52 C28 0.982 . S
H53 C28 0.979 . S
H54 C28 0.977 . S
H55 C29 0.979 . S
H56 C29 0.980 . S
H57 C29 0.983 . S
H58 C2 0.947 . S
C59 C2 1.392 . S
C59 C3 1.419 . S
C59 H41 0.948 . S
C60 C61 1.391 . S
C60 C64 1.391 . S
C60 H102 0.948 . S
C61 C60 1.391 . S
C61 C62 1.391 . S
C62 C61 1.391 . S
C62 H118 0.947 . S
C62 C119 1.392 . S
C63 C64 1.391 . S
C63 C67 1.397 . S
C63 C119 1.419 . S
C64 C60 1.391 . S
C64 C63 1.391 . S
C64 C65 1.399 . S
C65 C64 1.399 . S
C65 C68 1.396 . S
C65 C77 1.453 . S
C65 C78 1.684 . S
H66 C90 0.948 . S
C67 C63 1.397 . S
C67 C68 1.394 . S
C67 C86 1.723 . S
C68 C65 1.396 . S
C68 C67 1.394 . S
C68 C98 1.723 . S
H69 C92 0.947 . S
H70 C93 0.948 . S
H71 C99 0.982 . S
H72 C100 0.979 . S
H73 C100 0.980 . S
H74 C100 0.983 . S
H75 C99 0.979 . S
H76 C99 0.977 . S
C77 C65 1.453 . S
C77 H106 0.982 . S
C77 H107 0.979 . S
C77 H108 0.977 . S
C78 C65 1.684 . S
C78 H103 0.979 . S
C78 H104 0.980 . S
C78 H105 0.983 . S
C79 C80 1.391 . S
C79 C84 1.391 . S
C79 H109 0.948 . S
C80 C79 1.391 . S
C80 C81 1.391 . S
C81 C80 1.391 . S
C81 C82 1.392 . S
C81 H110 0.947 . S
C82 C81 1.392 . S
C82 C83 1.419 . S
C82 H111 0.948 . S
C83 C82 1.419 . S
C83 C84 1.391 . S
C83 C87 1.397 . S
C84 C79 1.391 . S
C84 C83 1.391 . S
C84 C85 1.399 . S
C85 C84 1.399 . S
C85 C86 1.396 . S
C85 C88 1.453 . S
C85 C89 1.684 . S
C86 C67 1.723 . S
C86 C85 1.396 . S
C86 C87 1.394 . S
C87 C83 1.397 . S
C87 C86 1.394 . S
C87 C97 1.723 . S
C88 C85 1.453 . S
C88 H112 0.982 . S
C88 H113 0.979 . S
C88 H114 0.977 . S
C89 C85 1.684 . S
C89 H115 0.979 . S
C89 H116 0.980 . S
C89 H117 0.983 . S
C90 H66 0.948 . S
C90 C91 1.391 . S
C90 C95 1.391 . S
C91 C90 1.391 . S
C91 C92 1.391 . S
C92 H69 0.947 . S
C92 C91 1.391 . S
C92 C93 1.392 . S
C93 H70 0.948 . S
C93 C92 1.392 . S
C93 C94 1.419 . S
C94 C93 1.419 . S
C94 C95 1.391 . S
C94 C98 1.397 . S
C95 C90 1.391 . S
C95 C94 1.391 . S
C95 C96 1.399 . S
C96 C95 1.399 . S
C96 C97 1.396 . S
C96 C99 1.453 . S
C96 C100 1.684 . S
C97 C87 1.723 . S
C97 C96 1.396 . S
C97 C98 1.394 . S
C98 C68 1.723 . S
C98 C94 1.397 . S
C98 C97 1.394 . S
C99 H71 0.982 . S
C99 H75 0.979 . S
C99 H76 0.977 . S
C99 C96 1.453 . S
C100 H72 0.979 . S
C100 H73 0.980 . S
C100 H74 0.983 . S
C100 C96 1.684 . S
H101 C119 0.948 . S
H102 C60 0.948 . S
H103 C78 0.979 . S
H104 C78 0.980 . S
H105 C78 0.983 . S
H106 C77 0.982 . S
H107 C77 0.979 . S
H108 C77 0.977 . S
H109 C79 0.948 . S
H110 C81 0.947 . S
H111 C82 0.948 . S
H112 C88 0.982 . S
H113 C88 0.979 . S
H114 C88 0.977 . S
H115 C89 0.979 . S
H116 C89 0.980 . S
H117 C89 0.983 . S
H118 C62 0.947 . S
C119 C62 1.392 . S
C119 C63 1.419 . S
C119 H101 0.948 . S
C120 C121 1.391 . S
C120 C124 1.391 . S
C120 H162 0.948 . S
C121 C120 1.391 . S
C121 C122 1.391 . S
C122 C121 1.391 . S
C122 H178 0.947 . S
C122 C179 1.392 . S
C123 C124 1.391 . S
C123 C127 1.397 . S
C123 C179 1.419 . S
C124 C120 1.391 . S
C124 C123 1.391 . S
C124 C125 1.399 . S
C125 C124 1.399 . S
C125 C128 1.396 . S
C125 C137 1.453 . S
C125 C138 1.684 . S
H126 C150 0.948 . S
C127 C123 1.397 . S
C127 C128 1.394 . S
C127 C146 1.723 . S
C128 C125 1.396 . S
C128 C127 1.394 . S
C128 C158 1.723 . S
H129 C152 0.947 . S
H130 C153 0.948 . S
H131 C159 0.982 . S
H132 C160 0.979 . S
H133 C160 0.980 . S
H134 C160 0.983 . S
H135 C159 0.979 . S
H136 C159 0.977 . S
C137 C125 1.453 . S
C137 H166 0.982 . S
C137 H167 0.979 . S
C137 H168 0.977 . S
C138 C125 1.684 . S
C138 H163 0.979 . S
C138 H164 0.980 . S
C138 H165 0.983 . S
C139 C140 1.391 . S
C139 C144 1.391 . S
C139 H169 0.948 . S
C140 C139 1.391 . S
C140 C141 1.391 . S
C141 C140 1.391 . S
C141 C142 1.392 . S
C141 H170 0.947 . S
C142 C141 1.392 . S
C142 C143 1.419 . S
C142 H171 0.948 . S
C143 C142 1.419 . S
C143 C144 1.391 . S
C143 C147 1.397 . S
C144 C139 1.391 . S
C144 C143 1.391 . S
C144 C145 1.399 . S
C145 C144 1.399 . S
C145 C146 1.396 . S
C145 C148 1.453 . S
C145 C149 1.684 . S
C146 C127 1.723 . S
C146 C145 1.396 . S
C146 C147 1.394 . S
C147 C143 1.397 . S
C147 C146 1.394 . S
C147 C157 1.723 . S
C148 C145 1.453 . S
C148 H172 0.982 . S
C148 H173 0.979 . S
C148 H174 0.977 . S
C149 C145 1.684 . S
C149 H175 0.979 . S
C149 H176 0.980 . S
C149 H177 0.983 . S
C150 H126 0.948 . S
C150 C151 1.391 . S
C150 C155 1.391 . S
C151 C150 1.391 . S
C151 C152 1.391 . S
C152 H129 0.947 . S
C152 C151 1.391 . S
C152 C153 1.392 . S
C153 H130 0.948 . S
C153 C152 1.392 . S
C153 C154 1.419 . S
C154 C153 1.419 . S
C154 C155 1.391 . S
C154 C158 1.397 . S
C155 C150 1.391 . S
C155 C154 1.391 . S
C155 C156 1.399 . S
C156 C155 1.399 . S
C156 C157 1.396 . S
C156 C159 1.453 . S
C156 C160 1.684 . S
C157 C147 1.723 . S
C157 C156 1.396 . S
C157 C158 1.394 . S
C158 C128 1.723 . S
C158 C154 1.397 . S
C158 C157 1.394 . S
C159 H131 0.982 . S
C159 H135 0.979 . S
C159 H136 0.977 . S
C159 C156 1.453 . S
C160 H132 0.979 . S
C160 H133 0.980 . S
C160 H134 0.983 . S
C160 C156 1.684 . S
H161 C179 0.948 . S
H162 C120 0.948 . S
H163 C138 0.979 . S
H164 C138 0.980 . S
H165 C138 0.983 . S
H166 C137 0.982 . S
H167 C137 0.979 . S
H168 C137 0.977 . S
H169 C139 0.948 . S
H170 C141 0.947 . S
H171 C142 0.948 . S
H172 C148 0.982 . S
H173 C148 0.979 . S
H174 C148 0.977 . S
H175 C149 0.979 . S
H176 C149 0.980 . S
H177 C149 0.983 . S
H178 C122 0.947 . S
C179 C122 1.392 . S
C179 C123 1.419 . S
C179 H161 0.948 . S
C180 C181 1.391 . S
C180 C184 1.391 . S
C180 H222 0.948 . S
C181 C180 1.391 . S
C181 C182 1.391 . S
C182 C181 1.391 . S
C182 H238 0.947 . S
C182 C239 1.392 . S
C183 C184 1.391 . S
C183 C187 1.397 . S
C183 C239 1.419 . S
C184 C180 1.391 . S
C184 C183 1.391 . S
C184 C185 1.399 . S
C185 C184 1.399 . S
C185 C188 1.396 . S
C185 C197 1.453 . S
C185 C198 1.684 . S
H186 C210 0.948 . S
C187 C183 1.397 . S
C187 C188 1.394 . S
C187 C206 1.723 . S
C188 C185 1.396 . S
C188 C187 1.394 . S
C188 C218 1.723 . S
H189 C212 0.947 . S
H190 C213 0.948 . S
H191 C219 0.982 . S
H192 C220 0.979 . S
H193 C220 0.980 . S
H194 C220 0.983 . S
H195 C219 0.979 . S
H196 C219 0.977 . S
C197 C185 1.453 . S
C197 H226 0.982 . S
C197 H227 0.979 . S
C197 H228 0.977 . S
C198 C185 1.684 . S
C198 H223 0.979 . S
C198 H224 0.980 . S
C198 H225 0.983 . S
C199 C200 1.391 . S
C199 C204 1.391 . S
C199 H229 0.948 . S
C200 C199 1.391 . S
C200 C201 1.391 . S
C201 C200 1.391 . S
C201 C202 1.392 . S
C201 H230 0.947 . S
C202 C201 1.392 . S
C202 C203 1.419 . S
C202 H231 0.948 . S
C203 C202 1.419 . S
C203 C204 1.391 . S
C203 C207 1.397 . S
C204 C199 1.391 . S
C204 C203 1.391 . S
C204 C205 1.399 . S
C205 C204 1.399 . S
C205 C206 1.396 . S
C205 C208 1.453 . S
C205 C209 1.684 . S
C206 C187 1.723 . S
C206 C205 1.396 . S
C206 C207 1.394 . S
C207 C203 1.397 . S
C207 C206 1.394 . S
C207 C217 1.723 . S
C208 C205 1.453 . S
C208 H232 0.982 . S
C208 H233 0.979 . S
C208 H234 0.977 . S
C209 C205 1.684 . S
C209 H235 0.979 . S
C209 H236 0.980 . S
C209 H237 0.983 . S
C210 H186 0.948 . S
C210 C211 1.391 . S
C210 C215 1.391 . S
C211 C210 1.391 . S
C211 C212 1.391 . S
C212 H189 0.947 . S
C212 C211 1.391 . S
C212 C213 1.392 . S
C213 H190 0.948 . S
C213 C212 1.392 . S
C213 C214 1.419 . S
C214 C213 1.419 . S
C214 C215 1.391 . S
C214 C218 1.397 . S
C215 C210 1.391 . S
C215 C214 1.391 . S
C215 C216 1.399 . S
C216 C215 1.399 . S
C216 C217 1.396 . S
C216 C219 1.453 . S
C216 C220 1.684 . S
C217 C207 1.723 . S
C217 C216 1.396 . S
C217 C218 1.394 . S
C218 C188 1.723 . S
C218 C214 1.397 . S
C218 C217 1.394 . S
C219 H191 0.982 . S
C219 H195 0.979 . S
C219 H196 0.977 . S
C219 C216 1.453 . S
C220 H192 0.979 . S
C220 H193 0.980 . S
C220 H194 0.983 . S
C220 C216 1.684 . S
H221 C239 0.948 . S
H222 C180 0.948 . S
H223 C198 0.979 . S
H224 C198 0.980 . S
H225 C198 0.983 . S
H226 C197 0.982 . S
H227 C197 0.979 . S
H228 C197 0.977 . S
H229 C199 0.948 . S
H230 C201 0.947 . S
H231 C202 0.948 . S
H232 C208 0.982 . S
H233 C208 0.979 . S
H234 C208 0.977 . S
H235 C209 0.979 . S
H236 C209 0.980 . S
H237 C209 0.983 . S
H238 C182 0.947 . S
C239 C182 1.392 . S
C239 C183 1.419 . S
C239 H221 0.948 . S
C240 C241 1.391 . S
C240 C244 1.391 . S
C240 H282 0.948 . S
C241 C240 1.391 . S
C241 C242 1.391 . S
C242 C241 1.391 . S
C242 H298 0.947 . S
C242 C299 1.392 . S
C243 C244 1.391 . S
C243 C247 1.397 . S
C243 C299 1.419 . S
C244 C240 1.391 . S
C244 C243 1.391 . S
C244 C245 1.399 . S
C245 C244 1.399 . S
C245 C248 1.396 . S
C245 C257 1.453 . S
C245 C258 1.684 . S
H246 C270 0.948 . S
C247 C243 1.397 . S
C247 C248 1.394 . S
C247 C266 1.723 . S
C248 C245 1.396 . S
C248 C247 1.394 . S
C248 C278 1.723 . S
H249 C272 0.947 . S
H250 C273 0.948 . S
H251 C279 0.982 . S
H252 C280 0.979 . S
H253 C280 0.980 . S
H254 C280 0.983 . S
H255 C279 0.979 . S
H256 C279 0.977 . S
C257 C245 1.453 . S
C257 H286 0.982 . S
C257 H287 0.979 . S
C257 H288 0.977 . S
C258 C245 1.684 . S
C258 H283 0.979 . S
C258 H284 0.980 . S
C258 H285 0.983 . S
C259 C260 1.391 . S
C259 C264 1.391 . S
C259 H289 0.948 . S
C260 C259 1.391 . S
C260 C261 1.391 . S
C261 C260 1.391 . S
C261 C262 1.392 . S
C261 H290 0.947 . S
C262 C261 1.392 . S
C262 C263 1.419 . S
C262 H291 0.948 . S
C263 C262 1.419 . S
C263 C264 1.391 . S
C263 C267 1.397 . S
C264 C259 1.391 . S
C264 C263 1.391 . S
C264 C265 1.399 . S
C265 C264 1.399 . S
C265 C266 1.396 . S
C265 C268 1.453 . S
C265 C269 1.684 . S
C266 C247 1.723 . S
C266 C265 1.396 . S
C266 C267 1.394 . S
C267 C263 1.397 . S
C267 C266 1.394 . S
C267 C277 1.723 . S
C268 C265 1.453 . S
C268 H292 0.982 . S
C268 H293 0.979 . S
C268 H294 0.977 . S
C269 C265 1.684 . S
C269 H295 0.979 . S
C269 H296 0.980 . S
C269 H297 0.983 . S
C270 H246 0.948 . S
C270 C271 1.391 . S
C270 C275 1.391 . S
C271 C270 1.391 . S
C271 C272 1.391 . S
C272 H249 0.947 . S
C272 C271 1.391 . S
C272 C273 1.392 . S
C273 H250 0.948 . S
C273 C272 1.392 . S
C273 C274 1.419 . S
C274 C273 1.419 . S
C274 C275 1.391 . S
C274 C278 1.397 . S
C275 C270 1.391 . S
C275 C274 1.391 . S
C275 C276 1.399 . S
C276 C275 1.399 . S
C276 C277 1.396 . S
C276 C279 1.453 . S
C276 C280 1.684 . S
C277 C267 1.723 . S
C277 C276 1.396 . S
C277 C278 1.394 . S
C278 C248 1.723 . S
C278 C274 1.397 . S
C278 C277 1.394 . S
C279 H251 0.982 . S
C279 H255 0.979 . S
C279 H256 0.977 . S
C279 C276 1.453 . S
C280 H252 0.979 . S
C280 H253 0.980 . S
C280 H254 0.983 . S
C280 C276 1.684 . S
H281 C299 0.948 . S
H282 C240 0.948 . S
H283 C258 0.979 . S
H284 C258 0.980 . S
H285 C258 0.983 . S
H286 C257 0.982 . S
H287 C257 0.979 . S
H288 C257 0.977 . S
H289 C259 0.948 . S
H290 C261 0.947 . S
H291 C262 0.948 . S
H292 C268 0.982 . S
H293 C268 0.979 . S
H294 C268 0.977 . S
H295 C269 0.979 . S
H296 C269 0.980 . S
H297 C269 0.983 . S
H298 C242 0.947 . S
C299 C242 1.392 . S
C299 C243 1.419 . S
C299 H281 0.948 . S
C300 C301 1.391 . S
C300 C304 1.391 . S
C300 H342 0.948 . S
C301 C300 1.391 . S
C301 C302 1.391 . S
C302 C301 1.391 . S
C302 H358 0.947 . S
C302 C359 1.392 . S
C303 C304 1.391 . S
C303 C307 1.397 . S
C303 C359 1.419 . S
C304 C300 1.391 . S
C304 C303 1.391 . S
C304 C305 1.399 . S
C305 C304 1.399 . S
C305 C308 1.396 . S
C305 C317 1.453 . S
C305 C318 1.684 . S
H306 C330 0.948 . S
C307 C303 1.397 . S
C307 C308 1.394 . S
C307 C326 1.723 . S
C308 C305 1.396 . S
C308 C307 1.394 . S
C308 C338 1.723 . S
H309 C332 0.947 . S
H310 C333 0.948 . S
H311 C339 0.982 . S
H312 C340 0.979 . S
H313 C340 0.980 . S
H314 C340 0.983 . S
H315 C339 0.979 . S
H316 C339 0.977 . S
C317 C305 1.453 . S
C317 H346 0.982 . S
C317 H347 0.979 . S
C317 H348 0.977 . S
C318 C305 1.684 . S
C318 H343 0.979 . S
C318 H344 0.980 . S
C318 H345 0.983 . S
C319 C320 1.391 . S
C319 C324 1.391 . S
C319 H349 0.948 . S
C320 C319 1.391 . S
C320 C321 1.391 . S
C321 C320 1.391 . S
C321 C322 1.392 . S
C321 H350 0.947 . S
C322 C321 1.392 . S
C322 C323 1.419 . S
C322 H351 0.948 . S
C323 C322 1.419 . S
C323 C324 1.391 . S
C323 C327 1.397 . S
C324 C319 1.391 . S
C324 C323 1.391 . S
C324 C325 1.399 . S
C325 C324 1.399 . S
C325 C326 1.396 . S
C325 C328 1.453 . S
C325 C329 1.684 . S
C326 C307 1.723 . S
C326 C325 1.396 . S
C326 C327 1.394 . S
C327 C323 1.397 . S
C327 C326 1.394 . S
C327 C337 1.723 . S
C328 C325 1.453 . S
C328 H352 0.982 . S
C328 H353 0.979 . S
C328 H354 0.977 . S
C329 C325 1.684 . S
C329 H355 0.979 . S
C329 H356 0.980 . S
C329 H357 0.983 . S
C330 H306 0.948 . S
C330 C331 1.391 . S
C330 C335 1.391 . S
C331 C330 1.391 . S
C331 C332 1.391 . S
C332 H309 0.947 . S
C332 C331 1.391 . S
C332 C333 1.392 . S
C333 H310 0.948 . S
C333 C332 1.392 . S
C333 C334 1.419 . S
C334 C333 1.419 . S
C334 C335 1.391 . S
C334 C338 1.397 . S
C335 C330 1.391 . S
C335 C334 1.391 . S
C335 C336 1.399 . S
C336 C335 1.399 . S
C336 C337 1.396 . S
C336 C339 1.453 . S
C336 C340 1.684 . S
C337 C327 1.723 . S
C337 C336 1.396 . S
C337 C338 1.394 . S
C338 C308 1.723 . S
C338 C334 1.397 . S
C338 C337 1.394 . S
C339 H311 0.982 . S
C339 H315 0.979 . S
C339 H316 0.977 . S
C339 C336 1.453 . S
C340 H312 0.979 . S
C340 H313 0.980 . S
C340 H314 0.983 . S
C340 C336 1.684 . S
H341 C359 0.948 . S
H342 C300 0.948 . S
H343 C318 0.979 . S
H344 C318 0.980 . S
H345 C318 0.983 . S
H346 C317 0.982 . S
H347 C317 0.979 . S
H348 C317 0.977 . S
H349 C319 0.948 . S
H350 C321 0.947 . S
H351 C322 0.948 . S
H352 C328 0.982 . S
H353 C328 0.979 . S
H354 C328 0.977 . S
H355 C329 0.979 . S
H356 C329 0.980 . S
H357 C329 0.983 . S
H358 C302 0.947 . S
C359 C302 1.392 . S
C359 C303 1.419 . S
C359 H341 0.948 . S
C360 C361 1.391 . S
C360 C364 1.391 . S
C360 H402 0.948 . S
C361 C360 1.391 . S
C361 C362 1.391 . S
C362 C361 1.391 . S
C362 H418 0.947 . S
C362 C419 1.392 . S
C363 C364 1.391 . S
C363 C367 1.397 . S
C363 C419 1.419 . S
C364 C360 1.391 . S
C364 C363 1.391 . S
C364 C365 1.399 . S
C365 C364 1.399 . S
C365 C368 1.396 . S
C365 C377 1.453 . S
C365 C378 1.684 . S
H366 C390 0.948 . S
C367 C363 1.397 . S
C367 C368 1.394 . S
C367 C386 1.723 . S
C368 C365 1.396 . S
C368 C367 1.394 . S
C368 C398 1.723 . S
H369 C392 0.947 . S
H370 C393 0.948 . S
H371 C399 0.982 . S
H372 C400 0.979 . S
H373 C400 0.980 . S
H374 C400 0.983 . S
H375 C399 0.979 . S
H376 C399 0.977 . S
C377 C365 1.453 . S
C377 H406 0.982 . S
C377 H407 0.979 . S
C377 H408 0.977 . S
C378 C365 1.684 . S
C378 H403 0.979 . S
C378 H404 0.980 . S
C378 H405 0.983 . S
C379 C380 1.391 . S
C379 C384 1.391 . S
C379 H409 0.948 . S
C380 C379 1.391 . S
C380 C381 1.391 . S
C381 C380 1.391 . S
C381 C382 1.392 . S
C381 H410 0.947 . S
C382 C381 1.392 . S
C382 C383 1.419 . S
C382 H411 0.948 . S
C383 C382 1.419 . S
C383 C384 1.391 . S
C383 C387 1.397 . S
C384 C379 1.391 . S
C384 C383 1.391 . S
C384 C385 1.399 . S
C385 C384 1.399 . S
C385 C386 1.396 . S
C385 C388 1.453 . S
C385 C389 1.684 . S
C386 C367 1.723 . S
C386 C385 1.396 . S
C386 C387 1.394 . S
C387 C383 1.397 . S
C387 C386 1.394 . S
C387 C397 1.723 . S
C388 C385 1.453 . S
C388 H412 0.982 . S
C388 H413 0.979 . S
C388 H414 0.977 . S
C389 C385 1.684 . S
C389 H415 0.979 . S
C389 H416 0.980 . S
C389 H417 0.983 . S
C390 H366 0.948 . S
C390 C391 1.391 . S
C390 C395 1.391 . S
C391 C390 1.391 . S
C391 C392 1.391 . S
C392 H369 0.947 . S
C392 C391 1.391 . S
C392 C393 1.392 . S
C393 H370 0.948 . S
C393 C392 1.392 . S
C393 C394 1.419 . S
C394 C393 1.419 . S
C394 C395 1.391 . S
C394 C398 1.397 . S
C395 C390 1.391 . S
C395 C394 1.391 . S
C395 C396 1.399 . S
C396 C395 1.399 . S
C396 C397 1.396 . S
C396 C399 1.453 . S
C396 C400 1.684 . S
C397 C387 1.723 . S
C397 C396 1.396 . S
C397 C398 1.394 . S
C398 C368 1.723 . S
C398 C394 1.397 . S
C398 C397 1.394 . S
C399 H371 0.982 . S
C399 H375 0.979 . S
C399 H376 0.977 . S
C399 C396 1.453 . S
C400 H372 0.979 . S
C400 H373 0.980 . S
C400 H374 0.983 . S
C400 C396 1.684 . S
H401 C419 0.948 . S
H402 C360 0.948 . S
H403 C378 0.979 . S
H404 C378 0.980 . S
H405 C378 0.983 . S
H406 C377 0.982 . S
H407 C377 0.979 . S
H408 C377 0.977 . S
H409 C379 0.948 . S
H410 C381 0.947 . S
H411 C382 0.948 . S
H412 C388 0.982 . S
H413 C388 0.979 . S
H414 C388 0.977 . S
H415 C389 0.979 . S
H416 C389 0.980 . S
H417 C389 0.983 . S
H418 C362 0.947 . S
C419 C362 1.392 . S
C419 C363 1.419 . S
C419 H401 0.948 . S
C420 C421 1.391 . S
C420 C424 1.391 . S
C420 H462 0.948 . S
C421 C420 1.391 . S
C421 C422 1.391 . S
C422 C421 1.391 . S
C422 H478 0.947 . S
C422 C479 1.392 . S
C423 C424 1.391 . S
C423 C427 1.397 . S
C423 C479 1.419 . S
C424 C420 1.391 . S
C424 C423 1.391 . S
C424 C425 1.399 . S
C425 C424 1.399 . S
C425 C428 1.396 . S
C425 C437 1.453 . S
C425 C438 1.684 . S
H426 C450 0.948 . S
C427 C423 1.397 . S
C427 C428 1.394 . S
C427 C446 1.723 . S
C428 C425 1.396 . S
C428 C427 1.394 . S
C428 C458 1.723 . S
H429 C452 0.947 . S
H430 C453 0.948 . S
H431 C459 0.982 . S
H432 C460 0.979 . S
H433 C460 0.980 . S
H434 C460 0.983 . S
H435 C459 0.979 . S
H436 C459 0.977 . S
C437 C425 1.453 . S
C437 H466 0.982 . S
C437 H467 0.979 . S
C437 H468 0.977 . S
C438 C425 1.684 . S
C438 H463 0.979 . S
C438 H464 0.980 . S
C438 H465 0.983 . S
C439 C440 1.391 . S
C439 C444 1.391 . S
C439 H469 0.948 . S
C440 C439 1.391 . S
C440 C441 1.391 . S
C441 C440 1.391 . S
C441 C442 1.392 . S
C441 H470 0.947 . S
C442 C441 1.392 . S
C442 C443 1.419 . S
C442 H471 0.948 . S
C443 C442 1.419 . S
C443 C444 1.391 . S
C443 C447 1.397 . S
C444 C439 1.391 . S
C444 C443 1.391 . S
C444 C445 1.399 . S
C445 C444 1.399 . S
C445 C446 1.396 . S
C445 C448 1.453 . S
C445 C449 1.684 . S
C446 C427 1.723 . S
C446 C445 1.396 . S
C446 C447 1.394 . S
C447 C443 1.397 . S
C447 C446 1.394 . S
C447 C457 1.723 . S
C448 C445 1.453 . S
C448 H472 0.982 . S
C448 H473 0.979 . S
C448 H474 0.977 . S
C449 C445 1.684 . S
C449 H475 0.979 . S
C449 H476 0.980 . S
C449 H477 0.983 . S
C450 H426 0.948 . S
C450 C451 1.391 . S
C450 C455 1.391 . S
C451 C450 1.391 . S
C451 C452 1.391 . S
C452 H429 0.947 . S
C452 C451 1.391 . S
C452 C453 1.392 . S
C453 H430 0.948 . S
C453 C452 1.392 . S
C453 C454 1.419 . S
C454 C453 1.419 . S
C454 C455 1.391 . S
C454 C458 1.397 . S
C455 C450 1.391 . S
C455 C454 1.391 . S
C455 C456 1.399 . S
C456 C455 1.399 . S
C456 C457 1.396 . S
C456 C459 1.453 . S
C456 C460 1.684 . S
C457 C447 1.723 . S
C457 C456 1.396 . S
C457 C458 1.394 . S
C458 C428 1.723 . S
C458 C454 1.397 . S
C458 C457 1.394 . S
C459 H431 0.982 . S
C459 H435 0.979 . S
C459 H436 0.977 . S
C459 C456 1.453 . S
C460 H432 0.979 . S
C460 H433 0.980 . S
C460 H434 0.983 . S
C460 C456 1.684 . S
H461 C479 0.948 . S
H462 C420 0.948 . S
H463 C438 0.979 . S
H464 C438 0.980 . S
H465 C438 0.983 . S
H466 C437 0.982 . S
H467 C437 0.979 . S
H468 C437 0.977 . S
H469 C439 0.948 . S
H470 C441 0.947 . S
H471 C442 0.948 . S
H472 C448 0.982 . S
H473 C448 0.979 . S
H474 C448 0.977 . S
H475 C449 0.979 . S
H476 C449 0.980 . S
H477 C449 0.983 . S
H478 C422 0.947 . S
C479 C422 1.392 . S
C479 C423 1.419 . S
C479 H461 0.948 . S
Gd480 C483 2.818 . S
Gd480 O500 2.377 . S
Gd480 O502 2.448 . S
Gd480 O503 2.506 . S
Gd480 O504 2.435 1_545 S
Gd480 O505 2.717 1_545 S
Gd480 O507 2.395 1_445 S
Gd480 O511 2.327 1_455 S
Gd481 C492 2.818 . S
Gd481 O501 2.395 1_665 S
Gd481 O505 2.327 1_655 S
Gd481 O506 2.377 . S
Gd481 O508 2.448 . S
Gd481 O509 2.506 . S
Gd481 O510 2.435 1_565 S
Gd481 O511 2.717 1_565 S
C482 O500 1.240 . S
C482 O501 1.240 . S
C483 Gd480 2.818 . S
C483 C484 1.510 . S
C483 O502 1.249 . S
C483 O503 1.252 . S
C484 C483 1.510 . S
C484 C485 1.404 . S
C484 C486 1.352 . S
C485 C484 1.404 . S
C485 C489 1.389 . S
C485 H512 0.930 . S
C486 C484 1.352 . S
C486 C488 1.374 . S
C486 H513 0.931 . S
C487 C488 1.359 . S
C487 C489 1.364 . S
C488 C486 1.374 . S
C488 C487 1.359 . S
C488 H514 0.931 . S
C489 C485 1.389 . S
C489 C487 1.364 . S
C489 H515 0.931 . S
C490 O504 1.256 . S
C490 O505 1.257 . S
C491 O506 1.240 . S
C491 O507 1.240 . S
C492 Gd481 2.818 . S
C492 C493 1.510 . S
C492 O508 1.249 . S
C492 O509 1.252 . S
C493 C492 1.510 . S
C493 C494 1.404 . S
C493 C495 1.352 . S
C494 C493 1.404 . S
C494 C498 1.389 . S
C494 H516 0.930 . S
C495 C493 1.352 . S
C495 C497 1.374 . S
C495 H517 0.931 . S
C496 C497 1.359 . S
C496 C498 1.364 . S
C497 C495 1.374 . S
C497 C496 1.359 . S
C497 H518 0.931 . S
C498 C494 1.389 . S
C498 C496 1.364 . S
C498 H519 0.931 . S
C499 O510 1.256 . S
C499 O511 1.257 . S
O500 Gd480 2.377 . S
O500 C482 1.240 . S
O501 Gd481 2.395 1_445 S
O501 C482 1.240 . S
O502 Gd480 2.448 . S
O502 C483 1.249 . S
O503 Gd480 2.506 . S
O503 C483 1.252 . S
O504 Gd480 2.435 1_565 S
O504 C490 1.256 . S
O505 Gd480 2.717 1_565 S
O505 Gd481 2.327 1_455 S
O505 C490 1.257 . S
O506 Gd481 2.377 . S
O506 C491 1.240 . S
O507 Gd480 2.395 1_665 S
O507 C491 1.240 . S
O508 Gd481 2.448 . S
O508 C492 1.249 . S
O509 Gd481 2.506 . S
O509 C492 1.252 . S
O510 Gd481 2.435 1_545 S
O510 C499 1.256 . S
O511 Gd480 2.327 1_655 S
O511 Gd481 2.717 1_545 S
O511 C499 1.257 . S
H512 C485 0.930 . S
H513 C486 0.931 . S
H514 C488 0.931 . S
H515 C489 0.931 . S
H516 C494 0.930 . S
H517 C495 0.931 . S
H518 C497 0.931 . S
H519 C498 0.931 . S
Gd520 C523 2.798 1_565 S
Gd520 O540 2.354 1_565 S
Gd520 O542 2.445 1_565 S
Gd520 O543 2.472 1_565 S
Gd520 O544 2.465 . S
Gd520 O545 2.732 . S
Gd520 O547 2.421 1_554 S
Gd520 O551 2.299 1_564 S
Gd521 C532 2.818 1_545 S
Gd521 O541 2.395 1_556 S
Gd521 O545 2.327 1_546 S
Gd521 O546 2.377 1_545 S
Gd521 O548 2.448 1_545 S
Gd521 O549 2.506 1_545 S
Gd521 O550 2.435 . S
Gd521 O551 2.717 . S
C522 O540 1.240 . S
C522 O541 1.240 . S
C523 Gd520 2.798 1_545 S
C523 C524 1.510 . S
C523 O542 1.249 . S
C523 O543 1.252 . S
C524 C523 1.510 . S
C524 C525 1.404 . S
C524 C526 1.352 . S
C525 C524 1.404 . S
C525 C529 1.389 . S
C525 H552 0.930 . S
C526 C524 1.352 . S
C526 C528 1.374 . S
C526 H553 0.931 . S
C527 C528 1.359 . S
C527 C529 1.364 . S
C528 C526 1.374 . S
C528 C527 1.359 . S
C528 H554 0.931 . S
C529 C525 1.389 . S
C529 C527 1.364 . S
C529 H555 0.931 . S
C530 O544 1.256 . S
C530 O545 1.257 . S
C531 O546 1.240 . S
C531 O547 1.240 . S
C532 Gd521 2.818 1_565 S
C532 C533 1.510 . S
C532 O548 1.249 . S
C532 O549 1.252 . S
C533 C532 1.510 . S
C533 C534 1.404 . S
C533 C535 1.352 . S
C534 C533 1.404 . S
C534 C538 1.389 . S
C534 H556 0.930 . S
C535 C533 1.352 . S
C535 C537 1.374 . S
C535 H557 0.931 . S
C536 C537 1.359 . S
C536 C538 1.364 . S
C537 C535 1.374 . S
C537 C536 1.359 . S
C537 H558 0.931 . S
C538 C534 1.389 . S
C538 C536 1.364 . S
C538 H559 0.931 . S
C539 O550 1.256 . S
C539 O551 1.257 . S
O540 Gd520 2.354 1_545 S
O540 C522 1.240 . S
O541 Gd521 2.395 1_554 S
O541 C522 1.240 . S
O542 Gd520 2.445 1_545 S
O542 C523 1.249 . S
O543 Gd520 2.472 1_545 S
O543 C523 1.252 . S
O544 Gd520 2.465 . S
O544 C530 1.256 . S
O545 Gd520 2.732 . S
O545 Gd521 2.327 1_564 S
O545 C530 1.257 . S
O546 Gd521 2.377 1_565 S
O546 C531 1.240 . S
O547 Gd520 2.421 1_556 S
O547 C531 1.240 . S
O548 Gd521 2.448 1_565 S
O548 C532 1.249 . S
O549 Gd521 2.506 1_565 S
O549 C532 1.252 . S
O550 Gd521 2.435 . S
O550 C539 1.256 . S
O551 Gd520 2.299 1_546 S
O551 Gd521 2.717 . S
O551 C539 1.257 . S
H552 C525 0.930 . S
H553 C526 0.931 . S
H554 C528 0.931 . S
H555 C529 0.931 . S
H556 C534 0.930 . S
H557 C535 0.931 . S
H558 C537 0.931 . S
H559 C538 0.931 . S
Gd560 C563 2.818 . S
Gd560 O580 2.377 . S
Gd560 O582 2.448 . S
Gd560 O583 2.506 . S
Gd560 O584 2.435 . S
Gd560 O585 2.717 . S
Gd560 O587 2.395 . S
Gd560 O591 2.327 . S
Gd561 C572 2.818 . S
Gd561 O581 2.395 . S
Gd561 O585 2.327 . S
Gd561 O586 2.377 . S
Gd561 O588 2.448 . S
Gd561 O589 2.506 . S
Gd561 O590 2.435 . S
Gd561 O591 2.717 . S
C562 O580 1.240 . S
C562 O581 1.240 . S
C563 Gd560 2.818 . S
C563 C564 1.510 . S
C563 O582 1.249 . S
C563 O583 1.252 . S
C564 C563 1.510 . S
C564 C565 1.404 . S
C564 C566 1.352 . S
C565 C564 1.404 . S
C565 C569 1.389 . S
C565 H592 0.930 . S
C566 C564 1.352 . S
C566 C568 1.374 . S
C566 H593 0.931 . S
C567 C568 1.359 . S
C567 C569 1.364 . S
C568 C566 1.374 . S
C568 C567 1.359 . S
C568 H594 0.931 . S
C569 C565 1.389 . S
C569 C567 1.364 . S
C569 H595 0.931 . S
C570 O584 1.256 . S
C570 O585 1.257 . S
C571 O586 1.240 . S
C571 O587 1.240 . S
C572 Gd561 2.818 . S
C572 C573 1.510 . S
C572 O588 1.249 . S
C572 O589 1.252 . S
C573 C572 1.510 . S
C573 C574 1.404 . S
C573 C575 1.352 . S
C574 C573 1.404 . S
C574 C578 1.389 . S
C574 H596 0.930 . S
C575 C573 1.352 . S
C575 C577 1.374 . S
C575 H597 0.931 . S
C576 C577 1.359 . S
C576 C578 1.364 . S
C577 C575 1.374 . S
C577 C576 1.359 . S
C577 H598 0.931 . S
C578 C574 1.389 . S
C578 C576 1.364 . S
C578 H599 0.931 . S
C579 O590 1.256 . S
C579 O591 1.257 . S
O580 Gd560 2.377 . S
O580 C562 1.240 . S
O581 Gd561 2.395 . S
O581 C562 1.240 . S
O582 Gd560 2.448 . S
O582 C563 1.249 . S
O583 Gd560 2.506 . S
O583 C563 1.252 . S
O584 Gd560 2.435 . S
O584 C570 1.256 . S
O585 Gd560 2.717 . S
O585 Gd561 2.327 . S
O585 C570 1.257 . S
O586 Gd561 2.377 . S
O586 C571 1.240 . S
O587 Gd560 2.395 . S
O587 C571 1.240 . S
O588 Gd561 2.448 . S
O588 C572 1.249 . S
O589 Gd561 2.506 . S
O589 C572 1.252 . S
O590 Gd561 2.435 . S
O590 C579 1.256 . S
O591 Gd560 2.327 . S
O591 Gd561 2.717 . S
O591 C579 1.257 . S
H592 C565 0.930 . S
H593 C566 0.931 . S
H594 C568 0.931 . S
H595 C569 0.931 . S
H596 C574 0.930 . S
H597 C575 0.931 . S
H598 C577 0.931 . S
H599 C578 0.931 . S
Gd600 C603 2.818 . S
Gd600 O620 2.377 . S
Gd600 O622 2.448 . S
Gd600 O623 2.506 . S
Gd600 O624 2.435 1_455 S
Gd600 O625 2.717 1_455 S
Gd600 O627 2.395 1_454 S
Gd600 O631 2.327 1_554 S
Gd601 C612 2.818 . S
Gd601 O621 2.395 1_656 S
Gd601 O625 2.327 1_556 S
Gd601 O626 2.377 . S
Gd601 O628 2.448 . S
Gd601 O629 2.506 . S
Gd601 O630 2.435 1_655 S
Gd601 O631 2.717 1_655 S
C602 O620 1.240 . S
C602 O621 1.240 . S
C603 Gd600 2.818 . S
C603 C604 1.510 . S
C603 O622 1.249 . S
C603 O623 1.252 . S
C604 C603 1.510 . S
C604 C605 1.404 . S
C604 C606 1.352 . S
C605 C604 1.404 . S
C605 C609 1.389 . S
C605 H632 0.930 . S
C606 C604 1.352 . S
C606 C608 1.374 . S
C606 H633 0.931 . S
C607 C608 1.359 . S
C607 C609 1.364 . S
C608 C606 1.374 . S
C608 C607 1.359 . S
C608 H634 0.931 . S
C609 C605 1.389 . S
C609 C607 1.364 . S
C609 H635 0.931 . S
C610 O624 1.256 . S
C610 O625 1.257 . S
C611 O626 1.240 . S
C611 O627 1.240 . S
C612 Gd601 2.818 . S
C612 C613 1.510 . S
C612 O628 1.249 . S
C612 O629 1.252 . S
C613 C612 1.510 . S
C613 C614 1.404 . S
C613 C615 1.352 . S
C614 C613 1.404 . S
C614 C618 1.389 . S
C614 H636 0.930 . S
C615 C613 1.352 . S
C615 C617 1.374 . S
C615 H637 0.931 . S
C616 C617 1.359 . S
C616 C618 1.364 . S
C617 C615 1.374 . S
C617 C616 1.359 . S
C617 H638 0.931 . S
C618 C614 1.389 . S
C618 C616 1.364 . S
C618 H639 0.931 . S
C619 O630 1.256 . S
C619 O631 1.257 . S
O620 Gd600 2.377 . S
O620 C602 1.240 . S
O621 Gd601 2.395 1_454 S
O621 C602 1.240 . S
O622 Gd600 2.448 . S
O622 C603 1.249 . S
O623 Gd600 2.506 . S
O623 C603 1.252 . S
O624 Gd600 2.435 1_655 S
O624 C610 1.256 . S
O625 Gd600 2.717 1_655 S
O625 Gd601 2.327 1_554 S
O625 C610 1.257 . S
O626 Gd601 2.377 . S
O626 C611 1.240 . S
O627 Gd600 2.395 1_656 S
O627 C611 1.240 . S
O628 Gd601 2.448 . S
O628 C612 1.249 . S
O629 Gd601 2.506 . S
O629 C612 1.252 . S
O630 Gd601 2.435 1_455 S
O630 C619 1.256 . S
O631 Gd600 2.327 1_556 S
O631 Gd601 2.717 1_455 S
O631 C619 1.257 . S
H632 C605 0.930 . S
H633 C606 0.931 . S
H634 C608 0.931 . S
H635 C609 0.931 . S
H636 C614 0.930 . S
H637 C615 0.931 . S
H638 C617 0.931 . S
H639 C618 0.931 . S
H640 C652 0.930 . S
H641 C654 0.930 . S
H642 C655 0.930 . S
H643 C659 0.959 . S
H644 C659 0.959 . S
H645 C659 0.961 . S
H646 C660 0.960 . S
H647 C660 0.961 . S
H648 C660 0.959 . S
H649 C663 0.929 . S
H650 C664 0.931 . S
H651 C666 0.930 . S
C652 H640 0.930 . S
C652 C653 1.399 . S
C652 C657 1.399 . S
C653 C652 1.399 . S
C653 C654 1.376 . S
C654 H641 0.930 . S
C654 C653 1.376 . S
C654 C655 1.388 . S
C655 H642 0.930 . S
C655 C654 1.388 . S
C655 C656 1.390 . S
C656 C655 1.390 . S
C656 C657 1.394 . S
C656 C662 1.465 . S
C657 C652 1.399 . S
C657 C656 1.394 . S
C657 C658 1.516 . S
C658 C657 1.516 . S
C658 C659 1.502 . S
C658 C660 1.561 . S
C658 C661 1.526 . S
C659 H643 0.959 . S
C659 H644 0.959 . S
C659 H645 0.961 . S
C659 C658 1.502 . S
C660 H646 0.960 . S
C660 H647 0.961 . S
C660 H648 0.959 . S
C660 C658 1.561 . S
C661 C658 1.526 . S
C661 C662 1.396 . S
C661 C666 1.390 . S
C662 C656 1.465 . S
C662 C661 1.396 . S
C662 C663 1.399 . S
C663 H649 0.929 . S
C663 C662 1.399 . S
C663 C664 1.385 . S
C664 H650 0.931 . S
C664 C663 1.385 . S
C664 C665 1.389 . S
C665 C664 1.389 . S
C665 C666 1.387 . S
C666 H651 0.930 . S
C666 C661 1.390 . S
C666 C665 1.387 . S
H667 C679 0.930 . S
H668 C681 0.930 . S
H669 C682 0.930 . S
H670 C686 0.959 . S
H671 C686 0.959 . S
H672 C686 0.961 . S
H673 C687 0.960 . S
H674 C687 0.961 . S
H675 C687 0.959 . S
H676 C690 0.929 . S
H677 C691 0.931 . S
H678 C693 0.930 . S
C679 H667 0.930 . S
C679 C680 1.399 . S
C679 C684 1.399 . S
C680 C679 1.399 . S
C680 C681 1.376 . S
C681 H668 0.930 . S
C681 C680 1.376 . S
C681 C682 1.388 . S
C682 H669 0.930 . S
C682 C681 1.388 . S
C682 C683 1.390 . S
C683 C682 1.390 . S
C683 C684 1.394 . S
C683 C689 1.465 . S
C684 C679 1.399 . S
C684 C683 1.394 . S
C684 C685 1.516 . S
C685 C684 1.516 . S
C685 C686 1.502 . S
C685 C687 1.561 . S
C685 C688 1.526 . S
C686 H670 0.959 . S
C686 H671 0.959 . S
C686 H672 0.961 . S
C686 C685 1.502 . S
C687 H673 0.960 . S
C687 H674 0.961 . S
C687 H675 0.959 . S
C687 C685 1.561 . S
C688 C685 1.526 . S
C688 C689 1.396 . S
C688 C693 1.390 . S
C689 C683 1.465 . S
C689 C688 1.396 . S
C689 C690 1.399 . S
C690 H676 0.929 . S
C690 C689 1.399 . S
C690 C691 1.385 . S
C691 H677 0.931 . S
C691 C690 1.385 . S
C691 C692 1.389 . S
C692 C691 1.389 . S
C692 C693 1.387 . S
C693 H678 0.930 . S
C693 C688 1.390 . S
C693 C692 1.387 . S
H694 C706 0.930 . S
H695 C708 0.930 . S
H696 C709 0.930 . S
H697 C713 0.959 . S
H698 C713 0.959 . S
H699 C713 0.961 . S
H700 C714 0.960 . S
H701 C714 0.961 . S
H702 C714 0.959 . S
H703 C717 0.929 . S
H704 C718 0.931 . S
H705 C720 0.930 . S
C706 H694 0.930 . S
C706 C707 1.399 . S
C706 C711 1.399 . S
C707 C706 1.399 . S
C707 C708 1.376 . S
C708 H695 0.930 . S
C708 C707 1.376 . S
C708 C709 1.388 . S
C709 H696 0.930 . S
C709 C708 1.388 . S
C709 C710 1.390 . S
C710 C709 1.390 . S
C710 C711 1.394 . S
C710 C716 1.465 . S
C711 C706 1.399 . S
C711 C710 1.394 . S
C711 C712 1.516 . S
C712 C711 1.516 . S
C712 C713 1.502 . S
C712 C714 1.561 . S
C712 C715 1.526 . S
C713 H697 0.959 . S
C713 H698 0.959 . S
C713 H699 0.961 . S
C713 C712 1.502 . S
C714 H700 0.960 . S
C714 H701 0.961 . S
C714 H702 0.959 . S
C714 C712 1.561 . S
C715 C712 1.526 . S
C715 C716 1.396 . S
C715 C720 1.390 . S
C716 C710 1.465 . S
C716 C715 1.396 . S
C716 C717 1.399 . S
C717 H703 0.929 . S
C717 C716 1.399 . S
C717 C718 1.385 . S
C718 H704 0.931 . S
C718 C717 1.385 . S
C718 C719 1.389 . S
C719 C718 1.389 . S
C719 C720 1.387 . S
C720 H705 0.930 . S
C720 C715 1.390 . S
C720 C719 1.387 . S
H721 C733 0.930 . S
H722 C735 0.930 . S
H723 C736 0.930 . S
H724 C740 0.959 . S
H725 C740 0.959 . S
H726 C740 0.961 . S
H727 C741 0.960 . S
H728 C741 0.961 . S
H729 C741 0.959 . S
H730 C744 0.929 . S
H731 C745 0.931 . S
H732 C747 0.930 . S
C733 H721 0.930 . S
C733 C734 1.399 . S
C733 C738 1.399 . S
C734 C733 1.399 . S
C734 C735 1.376 . S
C735 H722 0.930 . S
C735 C734 1.376 . S
C735 C736 1.388 . S
C736 H723 0.930 . S
C736 C735 1.388 . S
C736 C737 1.390 . S
C737 C736 1.390 . S
C737 C738 1.394 . S
C737 C743 1.465 . S
C738 C733 1.399 . S
C738 C737 1.394 . S
C738 C739 1.516 . S
C739 C738 1.516 . S
C739 C740 1.502 . S
C739 C741 1.561 . S
C739 C742 1.526 . S
C740 H724 0.959 . S
C740 H725 0.959 . S
C740 H726 0.961 . S
C740 C739 1.502 . S
C741 H727 0.960 . S
C741 H728 0.961 . S
C741 H729 0.959 . S
C741 C739 1.561 . S
C742 C739 1.526 . S
C742 C743 1.396 . S
C742 C747 1.390 . S
C743 C737 1.465 . S
C743 C742 1.396 . S
C743 C744 1.399 . S
C744 H730 0.929 . S
C744 C743 1.399 . S
C744 C745 1.385 . S
C745 H731 0.931 . S
C745 C744 1.385 . S
C745 C746 1.389 . S
C746 C745 1.389 . S
C746 C747 1.387 . S
C747 H732 0.930 . S
C747 C742 1.390 . S
C747 C746 1.387 . S
H748 C760 0.930 . S
H749 C762 0.930 . S
H750 C763 0.930 . S
H751 C767 0.959 . S
H752 C767 0.959 . S
H753 C767 0.961 . S
H754 C768 0.960 . S
H755 C768 0.961 . S
H756 C768 0.959 . S
H757 C771 0.929 . S
H758 C772 0.931 . S
H759 C774 0.930 . S
C760 H748 0.930 . S
C760 C761 1.399 . S
C760 C765 1.399 . S
C761 C760 1.399 . S
C761 C762 1.376 . S
C762 H749 0.930 . S
C762 C761 1.376 . S
C762 C763 1.388 . S
C763 H750 0.930 . S
C763 C762 1.388 . S
C763 C764 1.390 . S
C764 C763 1.390 . S
C764 C765 1.394 . S
C764 C770 1.465 . S
C765 C760 1.399 . S
C765 C764 1.394 . S
C765 C766 1.516 . S
C766 C765 1.516 . S
C766 C767 1.502 . S
C766 C768 1.561 . S
C766 C769 1.526 . S
C767 H751 0.959 . S
C767 H752 0.959 . S
C767 H753 0.961 . S
C767 C766 1.502 . S
C768 H754 0.960 . S
C768 H755 0.961 . S
C768 H756 0.959 . S
C768 C766 1.561 . S
C769 C766 1.526 . S
C769 C770 1.396 . S
C769 C774 1.390 . S
C770 C764 1.465 . S
C770 C769 1.396 . S
C770 C771 1.399 . S
C771 H757 0.929 . S
C771 C770 1.399 . S
C771 C772 1.385 . S
C772 H758 0.931 . S
C772 C771 1.385 . S
C772 C773 1.389 . S
C773 C772 1.389 . S
C773 C774 1.387 . S
C774 H759 0.930 . S
C774 C769 1.390 . S
C774 C773 1.387 . S
H775 C787 0.930 . S
H776 C789 0.930 . S
H777 C790 0.930 . S
H778 C794 0.959 . S
H779 C794 0.959 . S
H780 C794 0.961 . S
H781 C795 0.960 . S
H782 C795 0.961 . S
H783 C795 0.959 . S
H784 C798 0.929 . S
H785 C799 0.931 . S
H786 C801 0.930 . S
C787 H775 0.930 . S
C787 C788 1.399 . S
C787 C792 1.399 . S
C788 C787 1.399 . S
C788 C789 1.376 . S
C789 H776 0.930 . S
C789 C788 1.376 . S
C789 C790 1.388 . S
C790 H777 0.930 . S
C790 C789 1.388 . S
C790 C791 1.390 . S
C791 C790 1.390 . S
C791 C792 1.394 . S
C791 C797 1.465 . S
C792 C787 1.399 . S
C792 C791 1.394 . S
C792 C793 1.516 . S
C793 C792 1.516 . S
C793 C794 1.502 . S
C793 C795 1.561 . S
C793 C796 1.526 . S
C794 H778 0.959 . S
C794 H779 0.959 . S
C794 H780 0.961 . S
C794 C793 1.502 . S
C795 H781 0.960 . S
C795 H782 0.961 . S
C795 H783 0.959 . S
C795 C793 1.561 . S
C796 C793 1.526 . S
C796 C797 1.396 . S
C796 C801 1.390 . S
C797 C791 1.465 . S
C797 C796 1.396 . S
C797 C798 1.399 . S
C798 H784 0.929 . S
C798 C797 1.399 . S
C798 C799 1.385 . S
C799 H785 0.931 . S
C799 C798 1.385 . S
C799 C800 1.389 . S
C800 C799 1.389 . S
C800 C801 1.387 . S
C801 H786 0.930 . S
C801 C796 1.390 . S
C801 C800 1.387 . S
H802 C814 0.930 . S
H803 C816 0.930 . S
H804 C817 0.930 . S
H805 C821 0.959 . S
H806 C821 0.959 . S
H807 C821 0.961 . S
H808 C822 0.960 . S
H809 C822 0.961 . S
H810 C822 0.959 . S
H811 C825 0.929 . S
H812 C826 0.931 . S
H813 C828 0.930 . S
C814 H802 0.930 . S
C814 C815 1.399 . S
C814 C819 1.399 . S
C815 C814 1.399 . S
C815 C816 1.376 . S
C816 H803 0.930 . S
C816 C815 1.376 . S
C816 C817 1.388 . S
C817 H804 0.930 . S
C817 C816 1.388 . S
C817 C818 1.390 . S
C818 C817 1.390 . S
C818 C819 1.394 . S
C818 C824 1.465 . S
C819 C814 1.399 . S
C819 C818 1.394 . S
C819 C820 1.516 . S
C820 C819 1.516 . S
C820 C821 1.502 . S
C820 C822 1.561 . S
C820 C823 1.526 . S
C821 H805 0.959 . S
C821 H806 0.959 . S
C821 H807 0.961 . S
C821 C820 1.502 . S
C822 H808 0.960 . S
C822 H809 0.961 . S
C822 H810 0.959 . S
C822 C820 1.561 . S
C823 C820 1.526 . S
C823 C824 1.396 . S
C823 C828 1.390 . S
C824 C818 1.465 . S
C824 C823 1.396 . S
C824 C825 1.399 . S
C825 H811 0.929 . S
C825 C824 1.399 . S
C825 C826 1.385 . S
C826 H812 0.931 . S
C826 C825 1.385 . S
C826 C827 1.389 . S
C827 C826 1.389 . S
C827 C828 1.387 . S
C828 H813 0.930 . S
C828 C823 1.390 . S
C828 C827 1.387 . S
H829 C841 0.930 . S
H830 C843 0.930 . S
H831 C844 0.930 . S
H832 C848 0.959 . S
H833 C848 0.959 . S
H834 C848 0.961 . S
H835 C849 0.960 . S
H836 C849 0.961 . S
H837 C849 0.959 . S
H838 C852 0.929 . S
H839 C853 0.931 . S
H840 C855 0.930 . S
C841 H829 0.930 . S
C841 C842 1.399 . S
C841 C846 1.399 . S
C842 C841 1.399 . S
C842 C843 1.376 . S
C843 H830 0.930 . S
C843 C842 1.376 . S
C843 C844 1.388 . S
C844 H831 0.930 . S
C844 C843 1.388 . S
C844 C845 1.390 . S
C845 C844 1.390 . S
C845 C846 1.394 . S
C845 C851 1.465 . S
C846 C841 1.399 . S
C846 C845 1.394 . S
C846 C847 1.516 . S
C847 C846 1.516 . S
C847 C848 1.502 . S
C847 C849 1.561 . S
C847 C850 1.526 . S
C848 H832 0.959 . S
C848 H833 0.959 . S
C848 H834 0.961 . S
C848 C847 1.502 . S
C849 H835 0.960 . S
C849 H836 0.961 . S
C849 H837 0.959 . S
C849 C847 1.561 . S
C850 C847 1.526 . S
C850 C851 1.396 . S
C850 C855 1.390 . S
C851 C845 1.465 . S
C851 C850 1.396 . S
C851 C852 1.399 . S
C852 H838 0.929 . S
C852 C851 1.399 . S
C852 C853 1.385 . S
C853 H839 0.931 . S
C853 C852 1.385 . S
C853 C854 1.389 . S
C854 C853 1.389 . S
C854 C855 1.387 . S
C855 H840 0.930 . S
C855 C850 1.390 . S
C855 C854 1.387 . S
H856 C868 0.930 . S
H857 C870 0.930 . S
H858 C871 0.930 . S
H859 C875 0.959 . S
H860 C875 0.959 . S
H861 C875 0.961 . S
H862 C876 0.960 . S
H863 C876 0.961 . S
H864 C876 0.959 . S
H865 C879 0.929 . S
H866 C880 0.931 . S
H867 C882 0.930 . S
C868 H856 0.930 . S
C868 C869 1.399 . S
C868 C873 1.399 . S
C869 C868 1.399 . S
C869 C870 1.376 . S
C870 H857 0.930 . S
C870 C869 1.376 . S
C870 C871 1.388 . S
C871 H858 0.930 . S
C871 C870 1.388 . S
C871 C872 1.390 . S
C872 C871 1.390 . S
C872 C873 1.394 . S
C872 C878 1.465 . S
C873 C868 1.399 . S
C873 C872 1.394 . S
C873 C874 1.516 . S
C874 C873 1.516 . S
C874 C875 1.502 . S
C874 C876 1.561 . S
C874 C877 1.526 . S
C875 H859 0.959 . S
C875 H860 0.959 . S
C875 H861 0.961 . S
C875 C874 1.502 . S
C876 H862 0.960 . S
C876 H863 0.961 . S
C876 H864 0.959 . S
C876 C874 1.561 . S
C877 C874 1.526 . S
C877 C878 1.396 . S
C877 C882 1.390 . S
C878 C872 1.465 . S
C878 C877 1.396 . S
C878 C879 1.399 . S
C879 H865 0.929 . S
C879 C878 1.399 . S
C879 C880 1.385 . S
C880 H866 0.931 . S
C880 C879 1.385 . S
C880 C881 1.389 . S
C881 C880 1.389 . S
C881 C882 1.387 . S
C882 H867 0.930 . S
C882 C877 1.390 . S
C882 C881 1.387 . S
H883 C895 0.930 . S
H884 C897 0.930 . S
H885 C898 0.930 . S
H886 C902 0.959 . S
H887 C902 0.959 . S
H888 C902 0.961 . S
H889 C903 0.960 . S
H890 C903 0.961 . S
H891 C903 0.959 . S
H892 C906 0.929 . S
H893 C907 0.931 . S
H894 C909 0.930 . S
C895 H883 0.930 . S
C895 C896 1.399 . S
C895 C900 1.399 . S
C896 C895 1.399 . S
C896 C897 1.376 . S
C897 H884 0.930 . S
C897 C896 1.376 . S
C897 C898 1.388 . S
C898 H885 0.930 . S
C898 C897 1.388 . S
C898 C899 1.390 . S
C899 C898 1.390 . S
C899 C900 1.394 . S
C899 C905 1.465 . S
C900 C895 1.399 . S
C900 C899 1.394 . S
C900 C901 1.516 . S
C901 C900 1.516 . S
C901 C902 1.502 . S
C901 C903 1.561 . S
C901 C904 1.526 . S
C902 H886 0.959 . S
C902 H887 0.959 . S
C902 H888 0.961 . S
C902 C901 1.502 . S
C903 H889 0.960 . S
C903 H890 0.961 . S
C903 H891 0.959 . S
C903 C901 1.561 . S
C904 C901 1.526 . S
C904 C905 1.396 . S
C904 C909 1.390 . S
C905 C899 1.465 . S
C905 C904 1.396 . S
C905 C906 1.399 . S
C906 H892 0.929 . S
C906 C905 1.399 . S
C906 C907 1.385 . S
C907 H893 0.931 . S
C907 C906 1.385 . S
C907 C908 1.389 . S
C908 C907 1.389 . S
C908 C909 1.387 . S
C909 H894 0.930 . S
C909 C904 1.390 . S
C909 C908 1.387 . S
H910 C922 0.930 . S
H911 C924 0.930 . S
H912 C925 0.930 . S
H913 C929 0.959 . S
H914 C929 0.959 . S
H915 C929 0.961 . S
H916 C930 0.960 . S
H917 C930 0.961 . S
H918 C930 0.959 . S
H919 C933 0.929 . S
H920 C934 0.931 . S
H921 C936 0.930 . S
C922 H910 0.930 . S
C922 C923 1.399 . S
C922 C927 1.399 . S
C923 C922 1.399 . S
C923 C924 1.376 . S
C924 H911 0.930 . S
C924 C923 1.376 . S
C924 C925 1.388 . S
C925 H912 0.930 . S
C925 C924 1.388 . S
C925 C926 1.390 . S
C926 C925 1.390 . S
C926 C927 1.394 . S
C926 C932 1.465 . S
C927 C922 1.399 . S
C927 C926 1.394 . S
C927 C928 1.516 . S
C928 C927 1.516 . S
C928 C929 1.502 . S
C928 C930 1.561 . S
C928 C931 1.526 . S
C929 H913 0.959 . S
C929 H914 0.959 . S
C929 H915 0.961 . S
C929 C928 1.502 . S
C930 H916 0.960 . S
C930 H917 0.961 . S
C930 H918 0.959 . S
C930 C928 1.561 . S
C931 C928 1.526 . S
C931 C932 1.396 . S
C931 C936 1.390 . S
C932 C926 1.465 . S
C932 C931 1.396 . S
C932 C933 1.399 . S
C933 H919 0.929 . S
C933 C932 1.399 . S
C933 C934 1.385 . S
C934 H920 0.931 . S
C934 C933 1.385 . S
C934 C935 1.389 . S
C935 C934 1.389 . S
C935 C936 1.387 . S
C936 H921 0.930 . S
C936 C931 1.390 . S
C936 C935 1.387 . S
H937 C949 0.930 . S
H938 C951 0.930 . S
H939 C952 0.930 . S
H940 C956 0.959 . S
H941 C956 0.959 . S
H942 C956 0.961 . S
H943 C957 0.960 . S
H944 C957 0.961 . S
H945 C957 0.959 . S
H946 C960 0.929 . S
H947 C961 0.931 . S
H948 C963 0.930 . S
C949 H937 0.930 . S
C949 C950 1.399 . S
C949 C954 1.399 . S
C950 C949 1.399 . S
C950 C951 1.376 . S
C951 H938 0.930 . S
C951 C950 1.376 . S
C951 C952 1.388 . S
C952 H939 0.930 . S
C952 C951 1.388 . S
C952 C953 1.390 . S
C953 C952 1.390 . S
C953 C954 1.394 . S
C953 C959 1.465 . S
C954 C949 1.399 . S
C954 C953 1.394 . S
C954 C955 1.516 . S
C955 C954 1.516 . S
C955 C956 1.502 . S
C955 C957 1.561 . S
C955 C958 1.526 . S
C956 H940 0.959 . S
C956 H941 0.959 . S
C956 H942 0.961 . S
C956 C955 1.502 . S
C957 H943 0.960 . S
C957 H944 0.961 . S
C957 H945 0.959 . S
C957 C955 1.561 . S
C958 C955 1.526 . S
C958 C959 1.396 . S
C958 C963 1.390 . S
C959 C953 1.465 . S
C959 C958 1.396 . S
C959 C960 1.399 . S
C960 H946 0.929 . S
C960 C959 1.399 . S
C960 C961 1.385 . S
C961 H947 0.931 . S
C961 C960 1.385 . S
C961 C962 1.389 . S
C962 C961 1.389 . S
C962 C963 1.387 . S
C963 H948 0.930 . S
C963 C958 1.390 . S
C963 C962 1.387 . S
H964 C976 0.930 . S
H965 C978 0.930 . S
H966 C979 0.930 . S
H967 C983 0.959 . S
H968 C983 0.959 . S
H969 C983 0.961 . S
H970 C984 0.960 . S
H971 C984 0.961 . S
H972 C984 0.959 . S
H973 C987 0.929 . S
H974 C988 0.931 . S
H975 C990 0.930 . S
C976 H964 0.930 . S
C976 C977 1.399 . S
C976 C981 1.399 . S
C977 C976 1.399 . S
C977 C978 1.376 . S
C978 H965 0.930 . S
C978 C977 1.376 . S
C978 C979 1.388 . S
C979 H966 0.930 . S
C979 C978 1.388 . S
C979 C980 1.390 . S
C980 C979 1.390 . S
C980 C981 1.394 . S
C980 C986 1.465 . S
C981 C976 1.399 . S
C981 C980 1.394 . S
C981 C982 1.516 . S
C982 C981 1.516 . S
C982 C983 1.502 . S
C982 C984 1.561 . S
C982 C985 1.526 . S
C983 H967 0.959 . S
C983 H968 0.959 . S
C983 H969 0.961 . S
C983 C982 1.502 . S
C984 H970 0.960 . S
C984 H971 0.961 . S
C984 H972 0.959 . S
C984 C982 1.561 . S
C985 C982 1.526 . S
C985 C986 1.396 . S
C985 C990 1.390 . S
C986 C980 1.465 . S
C986 C985 1.396 . S
C986 C987 1.399 . S
C987 H973 0.929 . S
C987 C986 1.399 . S
C987 C988 1.385 . S
C988 H974 0.931 . S
C988 C987 1.385 . S
C988 C989 1.389 . S
C989 C988 1.389 . S
C989 C990 1.387 . S
C990 H975 0.930 . S
C990 C985 1.390 . S
C990 C989 1.387 . S
H991 C1003 0.930 . S
H992 C1005 0.930 . S
H993 C1006 0.930 . S
H994 C1010 0.959 . S
H995 C1010 0.959 . S
H996 C1010 0.961 . S
H997 C1011 0.960 . S
H998 C1011 0.961 . S
H999 C1011 0.959 . S
H1000 C1014 0.929 . S
H1001 C1015 0.931 . S
H1002 C1017 0.930 . S
C1003 H991 0.930 . S
C1003 C1004 1.399 . S
C1003 C1008 1.399 . S
C1004 C1003 1.399 . S
C1004 C1005 1.376 . S
C1005 H992 0.930 . S
C1005 C1004 1.376 . S
C1005 C1006 1.388 . S
C1006 H993 0.930 . S
C1006 C1005 1.388 . S
C1006 C1007 1.390 . S
C1007 C1006 1.390 . S
C1007 C1008 1.394 . S
C1007 C1013 1.465 . S
C1008 C1003 1.399 . S
C1008 C1007 1.394 . S
C1008 C1009 1.516 . S
C1009 C1008 1.516 . S
C1009 C1010 1.502 . S
C1009 C1011 1.561 . S
C1009 C1012 1.526 . S
C1010 H994 0.959 . S
C1010 H995 0.959 . S
C1010 H996 0.961 . S
C1010 C1009 1.502 . S
C1011 H997 0.960 . S
C1011 H998 0.961 . S
C1011 H999 0.959 . S
C1011 C1009 1.561 . S
C1012 C1009 1.526 . S
C1012 C1013 1.396 . S
C1012 C1017 1.390 . S
C1013 C1007 1.465 . S
C1013 C1012 1.396 . S
C1013 C1014 1.399 . S
C1014 H1000 0.929 . S
C1014 C1013 1.399 . S
C1014 C1015 1.385 . S
C1015 H1001 0.931 . S
C1015 C1014 1.385 . S
C1015 C1016 1.389 . S
C1016 C1015 1.389 . S
C1016 C1017 1.387 . S
C1017 H1002 0.930 . S
C1017 C1012 1.390 . S
C1017 C1016 1.387 . S
H1018 C1030 0.930 . S
H1019 C1032 0.930 . S
H1020 C1033 0.930 . S
H1021 C1037 0.959 . S
H1022 C1037 0.959 . S
H1023 C1037 0.961 . S
H1024 C1038 0.960 . S
H1025 C1038 0.961 . S
H1026 C1038 0.959 . S
H1027 C1041 0.929 . S
H1028 C1042 0.931 . S
H1029 C1044 0.930 . S
C1030 H1018 0.930 . S
C1030 C1031 1.399 . S
C1030 C1035 1.399 . S
C1031 C1030 1.399 . S
C1031 C1032 1.376 . S
C1032 H1019 0.930 . S
C1032 C1031 1.376 . S
C1032 C1033 1.388 . S
C1033 H1020 0.930 . S
C1033 C1032 1.388 . S
C1033 C1034 1.390 . S
C1034 C1033 1.390 . S
C1034 C1035 1.394 . S
C1034 C1040 1.465 . S
C1035 C1030 1.399 . S
C1035 C1034 1.394 . S
C1035 C1036 1.516 . S
C1036 C1035 1.516 . S
C1036 C1037 1.502 . S
C1036 C1038 1.561 . S
C1036 C1039 1.526 . S
C1037 H1021 0.959 . S
C1037 H1022 0.959 . S
C1037 H1023 0.961 . S
C1037 C1036 1.502 . S
C1038 H1024 0.960 . S
C1038 H1025 0.961 . S
C1038 H1026 0.959 . S
C1038 C1036 1.561 . S
C1039 C1036 1.526 . S
C1039 C1040 1.396 . S
C1039 C1044 1.390 . S
C1040 C1034 1.465 . S
C1040 C1039 1.396 . S
C1040 C1041 1.399 . S
C1041 H1027 0.929 . S
C1041 C1040 1.399 . S
C1041 C1042 1.385 . S
C1042 H1028 0.931 . S
C1042 C1041 1.385 . S
C1042 C1043 1.389 . S
C1043 C1042 1.389 . S
C1043 C1044 1.387 . S
C1044 H1029 0.930 . S
C1044 C1039 1.390 . S
C1044 C1043 1.387 . S
H1045 C1057 0.930 . S
H1046 C1059 0.930 . S
H1047 C1060 0.930 . S
H1048 C1064 0.959 . S
H1049 C1064 0.959 . S
H1050 C1064 0.961 . S
H1051 C1065 0.960 . S
H1052 C1065 0.961 . S
H1053 C1065 0.959 . S
H1054 C1068 0.929 . S
H1055 C1069 0.931 . S
H1056 C1071 0.930 . S
C1057 H1045 0.930 . S
C1057 C1058 1.399 . S
C1057 C1062 1.399 . S
C1058 C1057 1.399 . S
C1058 C1059 1.376 . S
C1059 H1046 0.930 . S
C1059 C1058 1.376 . S
C1059 C1060 1.388 . S
C1060 H1047 0.930 . S
C1060 C1059 1.388 . S
C1060 C1061 1.390 . S
C1061 C1060 1.390 . S
C1061 C1062 1.394 . S
C1061 C1067 1.465 . S
C1062 C1057 1.399 . S
C1062 C1061 1.394 . S
C1062 C1063 1.516 . S
C1063 C1062 1.516 . S
C1063 C1064 1.502 . S
C1063 C1065 1.561 . S
C1063 C1066 1.526 . S
C1064 H1048 0.959 . S
C1064 H1049 0.959 . S
C1064 H1050 0.961 . S
C1064 C1063 1.502 . S
C1065 H1051 0.960 . S
C1065 H1052 0.961 . S
C1065 H1053 0.959 . S
C1065 C1063 1.561 . S
C1066 C1063 1.526 . S
C1066 C1067 1.396 . S
C1066 C1071 1.390 . S
C1067 C1061 1.465 . S
C1067 C1066 1.396 . S
C1067 C1068 1.399 . S
C1068 H1054 0.929 . S
C1068 C1067 1.399 . S
C1068 C1069 1.385 . S
C1069 H1055 0.931 . S
C1069 C1068 1.385 . S
C1069 C1070 1.389 . S
C1070 C1069 1.389 . S
C1070 C1071 1.387 . S
C1071 H1056 0.930 . S
C1071 C1066 1.390 . S
C1071 C1070 1.387 . S
H1072 C1084 0.930 . S
H1073 C1086 0.930 . S
H1074 C1087 0.930 . S
H1075 C1091 0.959 . S
H1076 C1091 0.959 . S
H1077 C1091 0.961 . S
H1078 C1092 0.960 . S
H1079 C1092 0.961 . S
H1080 C1092 0.959 . S
H1081 C1095 0.929 . S
H1082 C1096 0.931 . S
H1083 C1098 0.930 . S
C1084 H1072 0.930 . S
C1084 C1085 1.399 . S
C1084 C1089 1.399 . S
C1085 C1084 1.399 . S
C1085 C1086 1.376 . S
C1086 H1073 0.930 . S
C1086 C1085 1.376 . S
C1086 C1087 1.388 . S
C1087 H1074 0.930 . S
C1087 C1086 1.388 . S
C1087 C1088 1.390 . S
C1088 C1087 1.390 . S
C1088 C1089 1.394 . S
C1088 C1094 1.465 . S
C1089 C1084 1.399 . S
C1089 C1088 1.394 . S
C1089 C1090 1.516 . S
C1090 C1089 1.516 . S
C1090 C1091 1.502 . S
C1090 C1092 1.561 . S
C1090 C1093 1.526 . S
C1091 H1075 0.959 . S
C1091 H1076 0.959 . S
C1091 H1077 0.961 . S
C1091 C1090 1.502 . S
C1092 H1078 0.960 . S
C1092 H1079 0.961 . S
C1092 H1080 0.959 . S
C1092 C1090 1.561 . S
C1093 C1090 1.526 . S
C1093 C1094 1.396 . S
C1093 C1098 1.390 . S
C1094 C1088 1.465 . S
C1094 C1093 1.396 . S
C1094 C1095 1.399 . S
C1095 H1081 0.929 . S
C1095 C1094 1.399 . S
C1095 C1096 1.385 . S
C1096 H1082 0.931 . S
C1096 C1095 1.385 . S
C1096 C1097 1.389 . S
C1097 C1096 1.389 . S
C1097 C1098 1.387 . S
C1098 H1083 0.930 . S
C1098 C1093 1.390 . S
C1098 C1097 1.387 . S
H1099 C1111 0.930 . S
H1100 C1113 0.930 . S
H1101 C1114 0.930 . S
H1102 C1118 0.959 . S
H1103 C1118 0.959 . S
H1104 C1118 0.961 . S
H1105 C1119 0.960 . S
H1106 C1119 0.961 . S
H1107 C1119 0.959 . S
H1108 C1122 0.929 . S
H1109 C1123 0.931 . S
H1110 C1125 0.930 . S
C1111 H1099 0.930 . S
C1111 C1112 1.399 . S
C1111 C1116 1.399 . S
C1112 C1111 1.399 . S
C1112 C1113 1.376 . S
C1113 H1100 0.930 . S
C1113 C1112 1.376 . S
C1113 C1114 1.388 . S
C1114 H1101 0.930 . S
C1114 C1113 1.388 . S
C1114 C1115 1.390 . S
C1115 C1114 1.390 . S
C1115 C1116 1.394 . S
C1115 C1121 1.465 . S
C1116 C1111 1.399 . S
C1116 C1115 1.394 . S
C1116 C1117 1.516 . S
C1117 C1116 1.516 . S
C1117 C1118 1.502 . S
C1117 C1119 1.561 . S
C1117 C1120 1.526 . S
C1118 H1102 0.959 . S
C1118 H1103 0.959 . S
C1118 H1104 0.961 . S
C1118 C1117 1.502 . S
C1119 H1105 0.960 . S
C1119 H1106 0.961 . S
C1119 H1107 0.959 . S
C1119 C1117 1.561 . S
C1120 C1117 1.526 . S
C1120 C1121 1.396 . S
C1120 C1125 1.390 . S
C1121 C1115 1.465 . S
C1121 C1120 1.396 . S
C1121 C1122 1.399 . S
C1122 H1108 0.929 . S
C1122 C1121 1.399 . S
C1122 C1123 1.385 . S
C1123 H1109 0.931 . S
C1123 C1122 1.385 . S
C1123 C1124 1.389 . S
C1124 C1123 1.389 . S
C1124 C1125 1.387 . S
C1125 H1110 0.930 . S
C1125 C1120 1.390 . S
C1125 C1124 1.387 . S
H1126 C1138 0.930 . S
H1127 C1140 0.930 . S
H1128 C1141 0.930 . S
H1129 C1145 0.959 . S
H1130 C1145 0.959 . S
H1131 C1145 0.961 . S
H1132 C1146 0.960 . S
H1133 C1146 0.961 . S
H1134 C1146 0.959 . S
H1135 C1149 0.929 . S
H1136 C1150 0.931 . S
H1137 C1152 0.930 . S
C1138 H1126 0.930 . S
C1138 C1139 1.399 . S
C1138 C1143 1.399 . S
C1139 C1138 1.399 . S
C1139 C1140 1.376 . S
C1140 H1127 0.930 . S
C1140 C1139 1.376 . S
C1140 C1141 1.388 . S
C1141 H1128 0.930 . S
C1141 C1140 1.388 . S
C1141 C1142 1.390 . S
C1142 C1141 1.390 . S
C1142 C1143 1.394 . S
C1142 C1148 1.465 . S
C1143 C1138 1.399 . S
C1143 C1142 1.394 . S
C1143 C1144 1.516 . S
C1144 C1143 1.516 . S
C1144 C1145 1.502 . S
C1144 C1146 1.561 . S
C1144 C1147 1.526 . S
C1145 H1129 0.959 . S
C1145 H1130 0.959 . S
C1145 H1131 0.961 . S
C1145 C1144 1.502 . S
C1146 H1132 0.960 . S
C1146 H1133 0.961 . S
C1146 H1134 0.959 . S
C1146 C1144 1.561 . S
C1147 C1144 1.526 . S
C1147 C1148 1.396 . S
C1147 C1152 1.390 . S
C1148 C1142 1.465 . S
C1148 C1147 1.396 . S
C1148 C1149 1.399 . S
C1149 H1135 0.929 . S
C1149 C1148 1.399 . S
C1149 C1150 1.385 . S
C1150 H1136 0.931 . S
C1150 C1149 1.385 . S
C1150 C1151 1.389 . S
C1151 C1150 1.389 . S
C1151 C1152 1.387 . S
C1152 H1137 0.930 . S
C1152 C1147 1.390 . S
C1152 C1151 1.387 . S
H1153 C1165 0.930 . S
H1154 C1167 0.930 . S
H1155 C1168 0.930 . S
H1156 C1172 0.959 . S
H1157 C1172 0.959 . S
H1158 C1172 0.961 . S
H1159 C1173 0.960 . S
H1160 C1173 0.961 . S
H1161 C1173 0.959 . S
H1162 C1176 0.929 . S
H1163 C1177 0.931 . S
H1164 C1179 0.930 . S
C1165 H1153 0.930 . S
C1165 C1166 1.399 . S
C1165 C1170 1.399 . S
C1166 C1165 1.399 . S
C1166 C1167 1.376 . S
C1167 H1154 0.930 . S
C1167 C1166 1.376 . S
C1167 C1168 1.388 . S
C1168 H1155 0.930 . S
C1168 C1167 1.388 . S
C1168 C1169 1.390 . S
C1169 C1168 1.390 . S
C1169 C1170 1.394 . S
C1169 C1175 1.465 . S
C1170 C1165 1.399 . S
C1170 C1169 1.394 . S
C1170 C1171 1.516 . S
C1171 C1170 1.516 . S
C1171 C1172 1.502 . S
C1171 C1173 1.561 . S
C1171 C1174 1.526 . S
C1172 H1156 0.959 . S
C1172 H1157 0.959 . S
C1172 H1158 0.961 . S
C1172 C1171 1.502 . S
C1173 H1159 0.960 . S
C1173 H1160 0.961 . S
C1173 H1161 0.959 . S
C1173 C1171 1.561 . S
C1174 C1171 1.526 . S
C1174 C1175 1.396 . S
C1174 C1179 1.390 . S
C1175 C1169 1.465 . S
C1175 C1174 1.396 . S
C1175 C1176 1.399 . S
C1176 H1162 0.929 . S
C1176 C1175 1.399 . S
C1176 C1177 1.385 . S
C1177 H1163 0.931 . S
C1177 C1176 1.385 . S
C1177 C1178 1.389 . S
C1178 C1177 1.389 . S
C1178 C1179 1.387 . S
C1179 H1164 0.930 . S
C1179 C1174 1.390 . S
C1179 C1178 1.387 . S
H1180 C1192 0.930 . S
H1181 C1194 0.930 . S
H1182 C1195 0.930 . S
H1183 C1199 0.959 . S
H1184 C1199 0.959 . S
H1185 C1199 0.961 . S
H1186 C1200 0.960 . S
H1187 C1200 0.961 . S
H1188 C1200 0.959 . S
H1189 C1203 0.929 . S
H1190 C1204 0.931 . S
H1191 C1206 0.930 . S
C1192 H1180 0.930 . S
C1192 C1193 1.399 . S
C1192 C1197 1.399 . S
C1193 C1192 1.399 . S
C1193 C1194 1.376 . S
C1194 H1181 0.930 . S
C1194 C1193 1.376 . S
C1194 C1195 1.388 . S
C1195 H1182 0.930 . S
C1195 C1194 1.388 . S
C1195 C1196 1.390 . S
C1196 C1195 1.390 . S
C1196 C1197 1.394 . S
C1196 C1202 1.465 . S
C1197 C1192 1.399 . S
C1197 C1196 1.394 . S
C1197 C1198 1.516 . S
C1198 C1197 1.516 . S
C1198 C1199 1.502 . S
C1198 C1200 1.561 . S
C1198 C1201 1.526 . S
C1199 H1183 0.959 . S
C1199 H1184 0.959 . S
C1199 H1185 0.961 . S
C1199 C1198 1.502 . S
C1200 H1186 0.960 . S
C1200 H1187 0.961 . S
C1200 H1188 0.959 . S
C1200 C1198 1.561 . S
C1201 C1198 1.526 . S
C1201 C1202 1.396 . S
C1201 C1206 1.390 . S
C1202 C1196 1.465 . S
C1202 C1201 1.396 . S
C1202 C1203 1.399 . S
C1203 H1189 0.929 . S
C1203 C1202 1.399 . S
C1203 C1204 1.385 . S
C1204 H1190 0.931 . S
C1204 C1203 1.385 . S
C1204 C1205 1.389 . S
C1205 C1204 1.389 . S
C1205 C1206 1.387 . S
C1206 H1191 0.930 . S
C1206 C1201 1.390 . S
C1206 C1205 1.387 . S
H1207 C1219 0.930 . S
H1208 C1221 0.930 . S
H1209 C1222 0.930 . S
H1210 C1226 0.959 . S
H1211 C1226 0.959 . S
H1212 C1226 0.961 . S
H1213 C1227 0.960 . S
H1214 C1227 0.961 . S
H1215 C1227 0.959 . S
H1216 C1230 0.929 . S
H1217 C1231 0.931 . S
H1218 C1233 0.930 . S
C1219 H1207 0.930 . S
C1219 C1220 1.399 . S
C1219 C1224 1.399 . S
C1220 C1219 1.399 . S
C1220 C1221 1.376 . S
C1221 H1208 0.930 . S
C1221 C1220 1.376 . S
C1221 C1222 1.388 . S
C1222 H1209 0.930 . S
C1222 C1221 1.388 . S
C1222 C1223 1.390 . S
C1223 C1222 1.390 . S
C1223 C1224 1.394 . S
C1223 C1229 1.465 . S
C1224 C1219 1.399 . S
C1224 C1223 1.394 . S
C1224 C1225 1.516 . S
C1225 C1224 1.516 . S
C1225 C1226 1.502 . S
C1225 C1227 1.561 . S
C1225 C1228 1.526 . S
C1226 H1210 0.959 . S
C1226 H1211 0.959 . S
C1226 H1212 0.961 . S
C1226 C1225 1.502 . S
C1227 H1213 0.960 . S
C1227 H1214 0.961 . S
C1227 H1215 0.959 . S
C1227 C1225 1.561 . S
C1228 C1225 1.526 . S
C1228 C1229 1.396 . S
C1228 C1233 1.390 . S
C1229 C1223 1.465 . S
C1229 C1228 1.396 . S
C1229 C1230 1.399 . S
C1230 H1216 0.929 . S
C1230 C1229 1.399 . S
C1230 C1231 1.385 . S
C1231 H1217 0.931 . S
C1231 C1230 1.385 . S
C1231 C1232 1.389 . S
C1232 C1231 1.389 . S
C1232 C1233 1.387 . S
C1233 H1218 0.930 . S
C1233 C1228 1.390 . S
C1233 C1232 1.387 . S
H1234 C1246 0.930 . S
H1235 C1248 0.930 . S
H1236 C1249 0.930 . S
H1237 C1253 0.959 . S
H1238 C1253 0.959 . S
H1239 C1253 0.961 . S
H1240 C1254 0.960 . S
H1241 C1254 0.961 . S
H1242 C1254 0.959 . S
H1243 C1257 0.929 . S
H1244 C1258 0.931 . S
H1245 C1260 0.930 . S
C1246 H1234 0.930 . S
C1246 C1247 1.399 . S
C1246 C1251 1.399 . S
C1247 C1246 1.399 . S
C1247 C1248 1.376 . S
C1248 H1235 0.930 . S
C1248 C1247 1.376 . S
C1248 C1249 1.388 . S
C1249 H1236 0.930 . S
C1249 C1248 1.388 . S
C1249 C1250 1.390 . S
C1250 C1249 1.390 . S
C1250 C1251 1.394 . S
C1250 C1256 1.465 . S
C1251 C1246 1.399 . S
C1251 C1250 1.394 . S
C1251 C1252 1.516 . S
C1252 C1251 1.516 . S
C1252 C1253 1.502 . S
C1252 C1254 1.561 . S
C1252 C1255 1.526 . S
C1253 H1237 0.959 . S
C1253 H1238 0.959 . S
C1253 H1239 0.961 . S
C1253 C1252 1.502 . S
C1254 H1240 0.960 . S
C1254 H1241 0.961 . S
C1254 H1242 0.959 . S
C1254 C1252 1.561 . S
C1255 C1252 1.526 . S
C1255 C1256 1.396 . S
C1255 C1260 1.390 . S
C1256 C1250 1.465 . S
C1256 C1255 1.396 . S
C1256 C1257 1.399 . S
C1257 H1243 0.929 . S
C1257 C1256 1.399 . S
C1257 C1258 1.385 . S
C1258 H1244 0.931 . S
C1258 C1257 1.385 . S
C1258 C1259 1.389 . S
C1259 C1258 1.389 . S
C1259 C1260 1.387 . S
C1260 H1245 0.930 . S
C1260 C1255 1.390 . S
C1260 C1259 1.387 . S
H1261 C1273 0.930 . S
H1262 C1275 0.930 . S
H1263 C1276 0.930 . S
H1264 C1280 0.959 . S
H1265 C1280 0.959 . S
H1266 C1280 0.961 . S
H1267 C1281 0.960 . S
H1268 C1281 0.961 . S
H1269 C1281 0.959 . S
H1270 C1284 0.929 . S
H1271 C1285 0.931 . S
H1272 C1287 0.930 . S
C1273 H1261 0.930 . S
C1273 C1274 1.399 . S
C1273 C1278 1.399 . S
C1274 C1273 1.399 . S
C1274 C1275 1.376 . S
C1275 H1262 0.930 . S
C1275 C1274 1.376 . S
C1275 C1276 1.388 . S
C1276 H1263 0.930 . S
C1276 C1275 1.388 . S
C1276 C1277 1.390 . S
C1277 C1276 1.390 . S
C1277 C1278 1.394 . S
C1277 C1283 1.465 . S
C1278 C1273 1.399 . S
C1278 C1277 1.394 . S
C1278 C1279 1.516 . S
C1279 C1278 1.516 . S
C1279 C1280 1.502 . S
C1279 C1281 1.561 . S
C1279 C1282 1.526 . S
C1280 H1264 0.959 . S
C1280 H1265 0.959 . S
C1280 H1266 0.961 . S
C1280 C1279 1.502 . S
C1281 H1267 0.960 . S
C1281 H1268 0.961 . S
C1281 H1269 0.959 . S
C1281 C1279 1.561 . S
C1282 C1279 1.526 . S
C1282 C1283 1.396 . S
C1282 C1287 1.390 . S
C1283 C1277 1.465 . S
C1283 C1282 1.396 . S
C1283 C1284 1.399 . S
C1284 H1270 0.929 . S
C1284 C1283 1.399 . S
C1284 C1285 1.385 . S
C1285 H1271 0.931 . S
C1285 C1284 1.385 . S
C1285 C1286 1.389 . S
C1286 C1285 1.389 . S
C1286 C1287 1.387 . S
C1287 H1272 0.930 . S
C1287 C1282 1.390 . S
C1287 C1286 1.387 . S
C653 C1 1.243 . S
C665 C487 1.278 . S
C680 C80 0.933 . S
C692 C536 1.000 . S
C719 C562 2.450 . S
C707 C140 2.411 . S
C734 C211 2.357 . S
C746 C610 2.297 . S
C773 C522 2.497 . S
C761 C31 2.241 . S
C800 C490 0.829 . S
C788 C61 0.949 . S
C827 C611 1.864 . S
C815 C151 1.879 . S
C854 C579 1.549 . S
C842 C200 1.584 . S
C869 C20 1.661 . S
C881 C607 1.774 . S
C908 C539 2.323 . S
C896 C121 2.364 . S
C923 C181 2.296 . S
C935 C491 2.314 . S
C950 C91 0.922 . S
C962 C576 0.880 . S
C989 C496 1.311 . S
C977 C260 1.147 . S
C1004 C320 1.026 . S
C1016 C527 0.947 . S
C1031 C361 2.405 . S
C1043 C571 2.449 . S
C1058 C451 2.326 . S
C1070 C619 2.334 . S
C1085 C271 2.283 . S
C1097 C531 2.500 . S
C1124 C499 0.944 . S
C1112 C301 0.795 . S
C1151 C602 1.900 . S
C1139 C380 1.870 . S
C1178 C570 1.590 . S
C1166 C440 1.590 . S
C1193 C241 1.628 . S
C1205 C616 1.764 . S
C1232 C530 2.303 . S
C1220 C391 2.374 . S
C1259 C482 2.328 . S
C1247 C421 2.288 . S
C1274 C331 0.917 . S
C1286 C567 0.907 . S
