# Generated by pormake.
# Topology pyr, (3,6)-cn, num edge types: 1
# Building blocks:
#     Node 0, Type 0, BuildingBlock: ESEHIV_clean_linker_0, # of connection points: 3
#     Node 1, Type 0, BuildingBlock: ESEHIV_clean_linker_0, # of connection points: 3
#     Node 2, Type 0, BuildingBlock: ESEHIV_clean_linker_0, # of connection points: 3
#     Node 3, Type 0, BuildingBlock: ESEHIV_clean_linker_0, # of connection points: 3
#     Node 4, Type 0, BuildingBlock: ESEHIV_clean_linker_0, # of connection points: 3
#     Node 5, Type 0, BuildingBlock: ESEHIV_clean_linker_0, # of connection points: 3
#     Node 6, Type 0, BuildingBlock: ESEHIV_clean_linker_0, # of connection points: 3
#     Node 7, Type 0, BuildingBlock: ESEHIV_clean_linker_0, # of connection points: 3
#     Node 8, Type 1, BuildingBlock: BETFEN_clean_sbu_0, # of connection points: 6
#     Node 9, Type 1, BuildingBlock: BETFEN_clean_sbu_0, # of connection points: 6
#     Node 10, Type 1, BuildingBlock: BETFEN_clean_sbu_0, # of connection points: 6
#     Node 11, Type 1, BuildingBlock: BETFEN_clean_sbu_0, # of connection points: 6
#     Edge 12, Type (0, 1), BuildingBlock: UVAHIK_clean_linker_0, # of connection points: 2
#     Edge 13, Type (0, 1), BuildingBlock: UVAHIK_clean_linker_0, # of connection points: 2
#     Edge 14, Type (0, 1), BuildingBlock: UVAHIK_clean_linker_0, # of connection points: 2
#     Edge 15, Type (0, 1), BuildingBlock: UVAHIK_clean_linker_0, # of connection points: 2
#     Edge 16, Type (0, 1), BuildingBlock: UVAHIK_clean_linker_0, # of connection points: 2
#     Edge 17, Type (0, 1), BuildingBlock: UVAHIK_clean_linker_0, # of connection points: 2
#     Edge 18, Type (0, 1), BuildingBlock: UVAHIK_clean_linker_0, # of connection points: 2
#     Edge 19, Type (0, 1), BuildingBlock: UVAHIK_clean_linker_0, # of connection points: 2
#     Edge 20, Type (0, 1), BuildingBlock: UVAHIK_clean_linker_0, # of connection points: 2
#     Edge 21, Type (0, 1), BuildingBlock: UVAHIK_clean_linker_0, # of connection points: 2
#     Edge 22, Type (0, 1), BuildingBlock: UVAHIK_clean_linker_0, # of connection points: 2
#     Edge 23, Type (0, 1), BuildingBlock: UVAHIK_clean_linker_0, # of connection points: 2
#     Edge 24, Type (0, 1), BuildingBlock: UVAHIK_clean_linker_0, # of connection points: 2
#     Edge 25, Type (0, 1), BuildingBlock: UVAHIK_clean_linker_0, # of connection points: 2
#     Edge 26, Type (0, 1), BuildingBlock: UVAHIK_clean_linker_0, # of connection points: 2
#     Edge 27, Type (0, 1), BuildingBlock: UVAHIK_clean_linker_0, # of connection points: 2
#     Edge 28, Type (0, 1), BuildingBlock: UVAHIK_clean_linker_0, # of connection points: 2
#     Edge 29, Type (0, 1), BuildingBlock: UVAHIK_clean_linker_0, # of connection points: 2
#     Edge 30, Type (0, 1), BuildingBlock: UVAHIK_clean_linker_0, # of connection points: 2
#     Edge 31, Type (0, 1), BuildingBlock: UVAHIK_clean_linker_0, # of connection points: 2
#     Edge 32, Type (0, 1), BuildingBlock: UVAHIK_clean_linker_0, # of connection points: 2
#     Edge 33, Type (0, 1), BuildingBlock: UVAHIK_clean_linker_0, # of connection points: 2
#     Edge 34, Type (0, 1), BuildingBlock: UVAHIK_clean_linker_0, # of connection points: 2
#     Edge 35, Type (0, 1), BuildingBlock: UVAHIK_clean_linker_0, # of connection points: 2
# Relax obj value: 0.131
# Max RMSD: 0.234
# Mean RMSD: 0.111
data_MOF--net-pyr--node1-BETFEN_clean_sbu_0--node2-ESEHIV_clean_linker_0--edge1-UVAHIK_clean_linker_0
_symmetry_space_group_name_H-M    P1
_symmetry_Int_Tables_number       1
_symmetry_cell_setting            triclinic
loop_
_symmetry_equiv_pos_as_xyz
'x, y, z'
_cell_length_a     45.930352
_cell_length_b     49.394526
_cell_length_c     46.482286
_cell_angle_alpha  91.623435
_cell_angle_beta   97.759652
_cell_angle_gamma 106.59625
loop_
_atom_site_label
_atom_site_type_symbol
_atom_site_fract_x
_atom_site_fract_y
_atom_site_fract_z
_atom_type_partial_charge
H0 H 0.32207 0.35798 0.28749 0.0
H1 H 0.36472 0.29498 0.31726 0.0
H2 H 0.38999 0.33889 0.24185 0.0
C3 C 0.33915 0.34697 0.28596 0.0
C4 C 0.35628 0.3515 0.26272 0.0
C5 C 0.34172 0.32642 0.30564 0.0
C6 C 0.36315 0.3115 0.30282 0.0
C7 C 0.38065 0.3158 0.27988 0.0
C8 C 0.3775 0.33625 0.26025 0.0
H9 H 0.25918 0.85904 0.72611 0.0
H10 H 0.30902 0.79769 0.72545 0.0
H11 H 0.23939 0.79771 0.65331 0.0
C12 C 0.26352 0.84105 0.71548 0.0
C13 C 0.2469 0.8299 0.68807 0.0
C14 C 0.2857 0.82936 0.72925 0.0
C15 C 0.29088 0.80592 0.71545 0.0
C16 C 0.27431 0.79422 0.68805 0.0
C17 C 0.25208 0.80624 0.67457 0.0
H18 H 0.66306 0.30332 0.87055 0.0
H19 H 0.66974 0.37318 0.81667 0.0
H20 H 0.58812 0.30143 0.80341 0.0
C21 C 0.6533 0.31315 0.85263 0.0
C22 C 0.62406 0.29909 0.83748 0.0
C23 C 0.66947 0.34018 0.84569 0.0
C24 C 0.65649 0.35281 0.8227 0.0
C25 C 0.62717 0.33918 0.80704 0.0
C26 C 0.61088 0.3122 0.81481 0.0
H27 H 0.83699 0.67903 0.37806 0.0
H28 H 0.89766 0.68864 0.314 0.0
H29 H 0.82958 0.60828 0.31873 0.0
C30 C 0.84469 0.67017 0.35992 0.0
C31 C 0.8303 0.64176 0.3499 0.0
C32 C 0.86892 0.68729 0.34721 0.0
C33 C 0.87921 0.67536 0.32404 0.0
C34 C 0.86524 0.64679 0.31317 0.0
C35 C 0.84038 0.63029 0.32621 0.0
H36 H 0.63267 0.7299 0.72469 0.0
H37 H 0.70372 0.68885 0.74004 0.0
H38 H 0.6483 0.6933 0.80606 0.0
C39 C 0.64494 0.7182 0.7385 0.0
C40 C 0.6378 0.71309 0.76669 0.0
C41 C 0.6692 0.71023 0.72877 0.0
C42 C 0.68418 0.69423 0.74657 0.0
C43 C 0.67617 0.68744 0.77415 0.0
C44 C 0.6531 0.69707 0.7841 0.0
H45 H 0.73895 0.25571 0.32781 0.0
H46 H 0.79287 0.19799 0.32415 0.0
H47 H 0.80968 0.25655 0.39901 0.0
C48 C 0.75774 0.24809 0.33732 0.0
C49 C 0.77384 0.25926 0.36498 0.0
C50 C 0.7645 0.22608 0.3224 0.0
C51 C 0.78835 0.21576 0.33502 0.0
C52 C 0.80464 0.22652 0.36271 0.0
C53 C 0.79732 0.24834 0.37755 0.0
H54 H 0.37461 0.71959 0.18109 0.0
H55 H 0.36113 0.6584 0.24573 0.0
H56 H 0.44161 0.73076 0.25802 0.0
C57 C 0.38247 0.71203 0.20151 0.0
C58 C 0.41025 0.72797 0.21816 0.0
C59 C 0.36438 0.687 0.21129 0.0
C60 C 0.37445 0.67805 0.23825 0.0
C61 C 0.40223 0.6936 0.25523 0.0
C62 C 0.42012 0.71866 0.2451 0.0
H63 H 0.12644 0.33813 0.74139 0.0
H64 H 0.18707 0.34683 0.67739 0.0
H65 H 0.19964 0.41594 0.74036 0.0
C66 C 0.14616 0.35067 0.73248 0.0
C67 C 0.16181 0.37862 0.74452 0.0
C68 C 0.15495 0.33907 0.7081 0.0
C69 C 0.17971 0.35576 0.69571 0.0
C70 C 0.19574 0.38352 0.70687 0.0
C71 C 0.18696 0.39468 0.73154 0.0
Pr72 Pr 0.98599 1.00362 0.542 0.0
Pr73 Pr 0.03703 0.02552 0.51024 0.0
C74 C 0.93169 0.97872 0.55987 0.0
C75 C 0.90981 0.95114 0.56336 0.0
C76 C 0.87854 0.94694 0.55349 0.0
C77 C 0.85678 0.92193 0.55828 0.0
C78 C 0.86584 0.90063 0.57324 0.0
C79 C 0.89736 0.90444 0.58221 0.0
C80 C 0.91919 0.92952 0.57731 0.0
C81 C 0.02785 0.05376 0.57023 0.0
C82 C 0.04619 0.98495 0.56155 0.0
C83 C 0.08504 0.0548 0.48539 0.0
C84 C 0.0984 0.08235 0.47353 0.0
C85 C 0.09034 0.08648 0.44407 0.0
C86 C 0.1054 0.11133 0.43213 0.0
C87 C 0.12895 0.13252 0.44931 0.0
C88 C 0.13629 0.12881 0.47899 0.0
C89 C 0.12126 0.10394 0.49094 0.0
C90 C 1.00675 0.96818 0.49294 0.0
C91 C 0.97677 0.04847 0.4929 0.0
O92 O 0.93413 0.98591 0.53331 0.0
O93 O 0.95784 0.98648 0.57736 0.0
O94 O 0.01857 0.04953 0.54322 0.0
O95 O 0.01552 0.03164 0.58363 0.0
O96 O 0.05968 1.00959 0.55202 0.0
O97 O 0.01623 0.97406 0.55521 0.0
O98 O 0.0856 0.05438 0.51362 0.0
O99 O 0.06004 0.03754 0.47056 0.0
O100 O 0.99338 0.98673 0.49736 0.0
O101 O 0.03628 0.97915 0.49724 0.0
O102 O 0.96581 0.03467 0.51474 0.0
O103 O 1.00316 0.04757 0.48547 0.0
H104 H 0.87085 0.9633 0.54253 0.0
H105 H 0.83276 0.91945 0.55064 0.0
H106 H 0.90506 0.88852 0.59395 0.0
H107 H 0.94326 0.93223 0.58498 0.0
H108 H 0.07295 0.07024 0.42999 0.0
H109 H 0.09897 0.11372 0.40926 0.0
H110 H 0.15457 0.1446 0.49271 0.0
H111 H 0.12823 0.10128 0.51364 0.0
Pr112 Pr 0.49567 0.02047 0.04364 0.0
Pr113 Pr 0.54956 1.01122 1.02274 0.0
C114 C 0.45499 0.0293 0.07659 0.0
C115 C 0.45478 0.05269 0.09679 0.0
C116 C 0.46647 0.08099 0.09032 0.0
C117 C 0.4674 0.10303 0.11023 0.0
C118 C 0.45705 0.09723 0.13717 0.0
C119 C 0.44564 0.0688 0.14363 0.0
C120 C 0.44445 0.04675 0.12357 0.0
C121 C 0.51609 0.05672 1.00062 0.0
C122 C 0.56577 0.05665 0.07693 0.0
C123 C 0.59002 0.99981 0.99102 0.0
C124 C 0.58817 0.97424 0.97322 0.0
C125 C 0.56139 0.95126 0.97022 0.0
C126 C 0.55912 0.92679 0.95327 0.0
C127 C 0.58376 0.92477 0.9393 0.0
C128 C 0.61069 0.9478 0.94254 0.0
C129 C 0.61283 0.97244 0.95934 0.0
C130 C 0.52854 0.97493 0.06556 0.0
C131 C 0.47993 0.97671 0.98799 0.0
O132 O 0.47463 0.0155 0.08521 0.0
O133 O 0.45363 0.03409 0.04898 0.0
O134 O 0.53336 0.05116 1.0217 0.0
O135 O 0.48738 0.04375 1.00145 0.0
O136 O 0.57656 0.05059 0.05356 0.0
O137 O 0.53672 0.04497 0.07972 0.0
O138 O 0.57066 1.01354 0.9813 0.0
O139 O 0.59163 0.99698 1.01899 0.0
O140 O 0.51157 0.98055 0.04431 0.0
O141 O 0.55726 0.98793 0.06502 0.0
O142 O 0.46881 0.98188 1.01148 0.0
O143 O 0.50898 0.98874 0.98567 0.0
H144 H 0.47499 0.08612 0.06992 0.0
H145 H 0.47589 0.12461 0.1043 0.0
H146 H 0.43796 0.06353 0.16434 0.0
H147 H 0.4358 0.02504 0.12912 0.0
H148 H 0.54226 0.95219 0.98111 0.0
H149 H 0.53827 0.90927 0.95148 0.0
H150 H 0.62994 0.94688 0.93181 0.0
H151 H 0.63365 0.99002 0.9615 0.0
Pr152 Pr 0.52187 0.54209 0.54624 0.0
Pr153 Pr 0.50484 0.48593 0.51181 0.0
C154 C 0.52258 0.5922 0.57113 0.0
C155 C 0.49865 0.6051 0.577 0.0
C156 C 0.50331 0.62304 0.60214 0.0
C157 C 0.48034 0.63481 0.60828 0.0
C158 C 0.45241 0.62892 0.58924 0.0
C159 C 0.44783 0.61091 0.56405 0.0
C160 C 0.47067 0.59895 0.55807 0.0
C161 C 0.54771 0.503 0.57377 0.0
C162 C 0.45477 0.49416 0.55203 0.0
C163 C 0.50414 0.43594 0.48669 0.0
C164 C 0.52845 0.42359 0.48081 0.0
C165 C 0.52296 0.40322 0.45762 0.0
C166 C 0.54633 0.39195 0.45155 0.0
C167 C 0.57558 0.40087 0.46866 0.0
C168 C 0.5809 0.4214 0.49189 0.0
C169 C 0.5576 0.43273 0.49783 0.0
C170 C 0.47918 0.52533 0.48456 0.0
C171 C 0.57206 0.53363 0.50615 0.0
O172 O 0.52519 0.58842 0.54376 0.0
O173 O 0.52458 0.57069 0.58617 0.0
O174 O 0.52061 0.49754 0.56058 0.0
O175 O 0.56232 0.52977 0.57383 0.0
O176 O 0.4648 0.47496 0.53955 0.0
O177 O 0.46998 0.5214 0.55287 0.0
O178 O 0.5017 0.43962 0.51412 0.0
O179 O 0.50185 0.45743 0.47175 0.0
O180 O 0.50629 0.53045 0.49753 0.0
O181 O 0.46435 0.49859 0.48439 0.0
O182 O 0.56205 0.55291 0.51855 0.0
O183 O 0.55676 0.50642 0.50536 0.0
H184 H 0.52468 0.62788 0.61706 0.0
H185 H 0.48457 0.64881 0.62772 0.0
H186 H 0.4264 0.60575 0.5492 0.0
H187 H 0.46642 0.5848 0.53872 0.0
H188 H 0.50069 0.39617 0.44409 0.0
H189 H 0.54158 0.37655 0.4332 0.0
H190 H 0.60298 0.42851 0.50573 0.0
H191 H 0.56234 0.44864 0.51575 0.0
Pr192 Pr 1.01073 0.53718 1.01087 0.0
Pr193 Pr 0.02145 0.4921 0.04832 0.0
C194 C 0.99066 0.57484 0.97905 0.0
C195 C 0.96256 0.58289 0.97007 0.0
C196 C 0.96491 0.61131 0.9657 0.0
C197 C 0.93903 0.61913 0.95425 0.0
C198 C 0.91034 0.59858 0.9468 0.0
C199 C 0.90782 0.57022 0.95246 0.0
C200 C 0.93373 0.56245 0.96406 0.0
C201 C 0.07107 0.55004 0.03976 0.0
C202 C 0.98738 0.53371 0.07633 0.0
C203 C 0.04444 0.45567 0.07921 0.0
C204 C 0.07394 0.44908 0.08435 0.0
C205 C 0.0742 0.42081 0.08244 0.0
C206 C 0.10186 0.41408 0.08825 0.0
C207 C 0.12981 0.43554 0.09639 0.0
C208 C 0.12951 0.46395 0.09751 0.0
C209 C 0.10187 0.47067 0.09141 0.0
C210 C 0.96135 0.47875 1.01889 0.0
C211 C 0.04293 0.49438 0.9824 0.0
O212 O 0.99138 0.55038 0.96824 0.0
O213 O 1.00314 0.58043 1.00633 0.0
O214 O 0.0473 0.5393 0.05093 0.0
O215 O 0.06419 0.55574 1.01312 0.0
O216 O 1.00574 0.51788 0.08305 0.0
O217 O 0.98166 0.54015 0.04905 0.0
O218 O 0.04405 0.4802 0.09019 0.0
O219 O 0.02863 0.44877 0.05316 0.0
O220 O 0.98523 0.48991 1.00801 0.0
O221 O 0.96802 0.47267 0.04548 0.0
O222 O 0.02384 0.50953 0.97581 0.0
O223 O 0.05008 0.48921 1.00984 0.0
H224 H 0.98696 0.62739 0.97042 0.0
H225 H 0.94162 0.64122 0.95069 0.0
H226 H 0.88613 0.55385 0.9468 0.0
H227 H 0.93141 0.54036 0.96746 0.0
H228 H 0.05294 0.40388 0.07671 0.0
H229 H 0.10129 0.39202 0.08659 0.0
H230 H 0.15048 0.48101 0.10398 0.0
H231 H 0.10235 0.49273 0.09272 0.0
C232 C 0.32671 0.30699 0.35283 0.0
C233 C 0.31865 0.31695 0.32573 0.0
C234 C 0.30401 0.2929 0.36892 0.0
C235 C 0.22281 0.25038 0.35525 0.0
H236 H 0.23405 0.24613 0.43898 0.0
C237 C 0.15698 0.15365 0.40901 0.0
C238 C 0.14727 0.15738 0.43584 0.0
C239 C 0.17552 0.17653 0.39678 0.0
C240 C 0.23031 0.24736 0.41561 0.0
H241 H 0.28018 0.32153 0.29546 0.0
H242 H 0.24111 0.29855 0.32415 0.0
H243 H 0.27081 0.28246 0.41692 0.0
H244 H 0.14897 0.18818 0.47067 0.0
H245 H 0.18133 0.2284 0.44909 0.0
H246 H 0.18237 0.21546 0.35383 0.0
C247 C 0.2649 0.30077 0.33256 0.0
C248 C 0.25158 0.26798 0.40293 0.0
C249 C 0.2875 0.31447 0.3163 0.0
C250 C 0.1563 0.18463 0.45006 0.0
C251 C 0.17485 0.20763 0.43774 0.0
C252 C 0.20155 0.22995 0.36789 0.0
C253 C 0.27274 0.28873 0.35842 0.0
C254 C 0.24842 0.26935 0.37253 0.0
C255 C 0.18476 0.20378 0.41099 0.0
C256 C 0.20544 0.2277 0.39813 0.0
H257 H 0.3505 0.30897 0.36103 0.0
H258 H 0.31096 0.28388 0.38872 0.0
H259 H 0.21976 0.25044 0.33174 0.0
H260 H 0.151 0.13283 0.39781 0.0
H261 H 0.18329 0.17265 0.37649 0.0
C262 C 0.31652 0.87235 0.76129 0.0
C263 C 0.30472 0.84272 0.75719 0.0
C264 C 0.33513 0.88509 0.78715 0.0
C265 C 0.38934 0.90494 0.83504 0.0
H266 H 0.36991 0.87948 0.91024 0.0
C267 C 0.47262 0.95012 0.93983 0.0
C268 C 0.45986 0.95783 0.96348 0.0
C269 C 0.45377 0.9338 0.91572 0.0
C270 C 0.37554 0.88687 0.88939 0.0
H271 H 0.30284 0.80324 0.77716 0.0
H272 H 0.33583 0.82557 0.82237 0.0
H273 H 0.33622 0.8559 0.86583 0.0
H274 H 0.41737 0.9537 0.9808 0.0
H275 H 0.38431 0.9255 0.93834 0.0
H276 H 0.42814 0.9363 0.85839 0.0
C277 C 0.3304 0.83889 0.8056 0.0
C278 C 0.35644 0.87321 0.86398 0.0
C279 C 0.31178 0.82611 0.77964 0.0
C280 C 0.42788 0.94813 0.96289 0.0
C281 C 0.40896 0.93185 0.93864 0.0
C282 C 0.4084 0.91853 0.86036 0.0
C283 C 0.34245 0.86852 0.80951 0.0
C284 C 0.36304 0.88227 0.83656 0.0
C285 C 0.42171 0.92493 0.9146 0.0
C286 C 0.40168 0.90974 0.88782 0.0
H287 H 0.31183 0.88573 0.74428 0.0
H288 H 0.34375 0.90798 0.78965 0.0
H289 H 0.39526 0.91219 0.81423 0.0
H290 H 0.4972 0.95696 0.93969 0.0
H291 H 0.46434 0.92835 0.89779 0.0
C292 C 0.6206 0.38306 0.7842 0.0
C293 C 0.6145 0.35339 0.78244 0.0
C294 C 0.61253 0.39707 0.7601 0.0
C295 C 0.56135 0.3914 0.69232 0.0
H296 H 0.62805 0.45075 0.6694 0.0
C297 C 0.5413 0.45486 0.59237 0.0
C298 C 0.55749 0.48381 0.59434 0.0
C299 C 0.54876 0.43712 0.61331 0.0
C300 C 0.60898 0.43458 0.67564 0.0
H301 H 0.59331 0.31519 0.75408 0.0
H302 H 0.57805 0.33984 0.71218 0.0
H303 H 0.63816 0.4235 0.71042 0.0
H304 H 0.59445 0.51684 0.61952 0.0
H305 H 0.60672 0.48644 0.65659 0.0
H306 H 0.53177 0.40321 0.65859 0.0
C307 C 0.5897 0.35209 0.73228 0.0
C308 C 0.61489 0.41882 0.69907 0.0
C309 C 0.59829 0.338 0.75634 0.0
C310 C 0.5817 0.49456 0.6173 0.0
C311 C 0.58883 0.47697 0.63852 0.0
C312 C 0.55527 0.40754 0.66917 0.0
C313 C 0.5975 0.38182 0.73376 0.0
C314 C 0.59112 0.39726 0.70782 0.0
C315 C 0.57229 0.44799 0.63704 0.0
C316 C 0.57896 0.4296 0.66063 0.0
H317 H 0.63217 0.39565 0.80413 0.0
H318 H 0.61827 0.41997 0.762 0.0
H319 H 0.5426 0.37498 0.69875 0.0
H320 H 0.5226 0.44596 0.5748 0.0
H321 H 0.53589 0.41489 0.61091 0.0
C322 C 0.90859 0.64237 0.28631 0.0
C323 C 0.87699 0.63437 0.28857 0.0
C324 C 0.9197 0.63127 0.26331 0.0
C325 C 0.895 0.59364 0.18864 0.0
H326 H 0.97468 0.58038 0.20317 0.0
C327 C 0.95507 0.56293 0.09437 0.0
C328 C 0.9732 0.54442 0.09993 0.0
C329 C 0.9427 0.57347 0.1169 0.0
C330 C 0.95224 0.58364 0.19858 0.0
H331 H 0.83244 0.60801 0.26755 0.0
H332 H 0.85177 0.58823 0.22798 0.0
H333 H 0.95434 0.59833 0.24284 0.0
H334 H 0.99188 0.5223 0.13399 0.0
H335 H 0.97014 0.5401 0.17276 0.0
H336 H 0.89266 0.57828 0.14445 0.0
C337 C 0.86806 0.6035 0.24388 0.0
C338 C 0.94066 0.59442 0.22146 0.0
C339 C 0.85693 0.61464 0.26695 0.0
C340 C 0.97824 0.53659 0.12868 0.0
C341 C 0.96586 0.54706 0.15114 0.0
C342 C 0.9066 0.58283 0.16571 0.0
C343 C 0.89968 0.61161 0.24161 0.0
C344 C 0.91184 0.59969 0.21696 0.0
C345 C 0.94802 0.56587 0.14578 0.0
C346 C 0.93545 0.5776 0.17024 0.0
H347 H 0.92503 0.65713 0.30256 0.0
H348 H 0.94411 0.63848 0.26242 0.0
H349 H 0.8729 0.59761 0.18396 0.0
H350 H 0.95068 0.56958 0.07262 0.0
H351 H 0.92945 0.5881 0.1117 0.0
C352 C 0.42666 0.30521 0.26358 0.0
C353 C 0.39814 0.29581 0.2736 0.0
C354 C 0.4411 0.28569 0.25459 0.0
C355 C 0.43815 0.20944 0.25538 0.0
H356 H 0.46505 0.22064 0.17989 0.0
C357 C 0.43323 0.1182 0.17429 0.0
C358 C 0.4575 0.12074 0.1581 0.0
C359 C 0.43277 0.14072 0.19285 0.0
C360 C 0.45819 0.21742 0.20124 0.0
H361 H 0.36259 0.25852 0.28214 0.0
H362 H 0.38757 0.22484 0.26668 0.0
H363 H 0.45271 0.25886 0.20527 0.0
H364 H 0.50099 0.14876 0.14972 0.0
H365 H 0.4996 0.18843 0.18157 0.0
H366 H 0.44205 0.16742 0.25051 0.0
C367 C 0.39927 0.2472 0.26635 0.0
C368 C 0.4512 0.23935 0.21584 0.0
C369 C 0.3849 0.2666 0.27526 0.0
C370 C 0.48162 0.14624 0.1614 0.0
C371 C 0.48097 0.16891 0.17976 0.0
C372 C 0.4449 0.18747 0.24068 0.0
C373 C 0.42727 0.25643 0.25544 0.0
C374 C 0.44013 0.23527 0.24264 0.0
C375 C 0.45641 0.16642 0.19548 0.0
C376 C 0.45408 0.19097 0.21308 0.0
H377 H 0.4375 0.32759 0.26221 0.0
H378 H 0.4628 0.29348 0.24651 0.0
H379 H 0.43031 0.20583 0.27628 0.0
H380 H 0.41401 0.09912 0.17196 0.0
H381 H 0.41327 0.13838 0.20433 0.0
C382 C 0.23482 0.87369 0.67198 0.0
C383 C 0.22533 0.84416 0.67332 0.0
C384 C 0.21427 0.88779 0.66 0.0
C385 C 0.13952 0.87748 0.6132 0.0
H386 H 0.14475 0.9498 0.65173 0.0
C387 C 0.05202 0.93969 0.58084 0.0
C388 C 0.06497 0.96856 0.57703 0.0
C389 C 0.07032 0.92367 0.59354 0.0
C390 C 0.14313 0.9297 0.64066 0.0
H391 H 0.18722 0.80606 0.66253 0.0
H392 H 0.15085 0.83079 0.64187 0.0
H393 H 0.17892 0.92294 0.67138 0.0
H394 H 0.10706 1.00342 0.58414 0.0
H395 H 0.1389 0.97551 0.60658 0.0
H396 H 0.10346 0.88434 0.5826 0.0
C397 C 0.17434 0.84302 0.64981 0.0
C398 C 0.16277 0.91434 0.65183 0.0
C399 C 0.19508 0.82885 0.66164 0.0
C400 C 0.0964 0.98123 0.58679 0.0
C401 C 0.11461 0.96528 0.59974 0.0
C402 C 0.11968 0.8928 0.60215 0.0
C403 C 0.18361 0.87273 0.64926 0.0
C404 C 0.16154 0.88823 0.63801 0.0
C405 C 0.10183 0.93628 0.60296 0.0
C406 C 0.12157 0.91922 0.61558 0.0
H407 H 0.25821 0.88595 0.68036 0.0
H408 H 0.22246 0.91057 0.6592 0.0
H409 H 0.13815 0.8576 0.60186 0.0
H410 H 0.02788 0.92928 0.57345 0.0
H411 H 0.05983 0.90141 0.596 0.0
C412 C 0.7057 0.38409 0.87284 0.0
C413 C 0.69963 0.3556 0.86291 0.0
C414 C 0.73378 0.39853 0.88962 0.0
C415 C 0.81404 0.39828 0.90629 0.0
H416 H 0.81531 0.44331 0.97647 0.0
C417 C 0.92667 0.47055 0.97124 0.0
C418 C 0.93061 0.46773 1.0014 0.0
C419 C 0.8981 0.45833 0.95423 0.0
C420 C 0.81528 0.43079 0.95695 0.0
H421 H 0.71832 0.31999 0.86243 0.0
H422 H 0.76757 0.34532 0.89168 0.0
H423 H 0.76617 0.41842 0.9468 0.0
H424 H 0.90761 0.45098 0.03761 0.0
H425 H 0.85751 0.42975 1.00786 0.0
H426 H 0.8631 0.41049 0.91649 0.0
C427 C 0.75055 0.35644 0.88645 0.0
C428 C 0.78721 0.41673 0.93987 0.0
C429 C 0.72232 0.3419 0.86992 0.0
C430 C 0.90521 0.45336 1.01439 0.0
C431 C 0.87654 0.44133 0.99739 0.0
C432 C 0.84211 0.41258 0.92319 0.0
C433 C 0.75651 0.38487 0.89659 0.0
C434 C 0.7863 0.4002 0.91446 0.0
C435 C 0.87284 0.44329 0.96707 0.0
C436 C 0.84301 0.42887 0.94877 0.0
H437 H 0.68852 0.39511 0.86797 0.0
H438 H 0.73783 0.42049 0.89695 0.0
H439 H 0.81405 0.38587 0.8867 0.0
H440 H 0.94582 0.48173 0.96068 0.0
H441 H 0.8958 0.46052 0.93098 0.0
C442 C 0.77587 0.61029 0.34987 0.0
C443 C 0.80509 0.62471 0.36512 0.0
C444 C 0.75119 0.59813 0.36497 0.0
C445 C 0.72705 0.60413 0.43815 0.0
H446 H 0.661 0.53652 0.40943 0.0
C447 C 0.61492 0.57169 0.48963 0.0
C448 C 0.60004 0.54275 0.49146 0.0
C449 C 0.64001 0.58043 0.47437 0.0
C450 C 0.67937 0.5553 0.418 0.0
H451 H 0.83164 0.63595 0.40815 0.0
H452 H 0.78933 0.61428 0.43427 0.0
H453 H 0.70441 0.55262 0.38271 0.0
H454 H 0.60049 0.50033 0.47862 0.0
H455 H 0.64451 0.51553 0.45254 0.0
H456 H 0.70255 0.6066 0.47369 0.0
C457 C 0.7849 0.61308 0.41073 0.0
C458 C 0.70419 0.56477 0.40239 0.0
C459 C 0.80935 0.62534 0.39571 0.0
C460 C 0.61128 0.5228 0.47777 0.0
C461 C 0.63646 0.53156 0.46252 0.0
C462 C 0.70235 0.59467 0.45373 0.0
C463 C 0.75516 0.59993 0.39571 0.0
C464 C 0.7285 0.58937 0.41223 0.0
C465 C 0.6512 0.56055 0.46045 0.0
C466 C 0.67798 0.57016 0.44391 0.0
H467 H 0.77175 0.60959 0.32632 0.0
H468 H 0.72873 0.58834 0.3525 0.0
H469 H 0.74488 0.6234 0.44637 0.0
H470 H 0.60689 0.58775 0.49961 0.0
H471 H 0.6502 0.60291 0.473 0.0
C472 C 0.34294 0.35674 0.20951 0.0
C473 C 0.34754 0.368 0.23847 0.0
C474 C 0.32766 0.36821 0.18724 0.0
C475 C 0.29261 0.42653 0.16992 0.0
H476 H 0.2264 0.3653 0.12769 0.0
C477 C 0.1871 0.44526 0.09876 0.0
C478 C 0.15883 0.42825 0.10532 0.0
C479 C 0.21451 0.43931 0.10909 0.0
C480 C 0.24487 0.38266 0.13913 0.0
H481 H 0.34271 0.40201 0.26617 0.0
H482 H 0.31517 0.42146 0.22754 0.0
H483 H 0.26939 0.35468 0.15661 0.0
H484 H 0.1374 0.39158 0.12786 0.0
H485 H 0.18488 0.381 0.14529 0.0
H486 H 0.26681 0.45425 0.15367 0.0
C487 C 0.32354 0.40391 0.22192 0.0
C488 C 0.26976 0.37664 0.15545 0.0
C489 C 0.33904 0.39257 0.24416 0.0
C490 C 0.15858 0.40479 0.12181 0.0
C491 C 0.18585 0.39873 0.13188 0.0
C492 C 0.26765 0.43255 0.1535 0.0
C493 C 0.31638 0.391 0.19346 0.0
C494 C 0.29345 0.39839 0.17183 0.0
C495 C 0.21414 0.41606 0.1259 0.0
C496 C 0.24302 0.41052 0.13881 0.0
H497 H 0.349 0.33774 0.20425 0.0
H498 H 0.32305 0.35813 0.16544 0.0
H499 H 0.31067 0.44377 0.18203 0.0
H500 H 0.18808 0.46326 0.08577 0.0
H501 H 0.23599 0.4529 0.10401 0.0
C502 C 0.61992 0.2483 0.84432 0.0
C503 C 0.60757 0.27104 0.84656 0.0
C504 C 0.60785 0.22321 0.85744 0.0
C505 C 0.54239 0.18448 0.89517 0.0
H506 H 0.60236 0.14872 0.92964 0.0
C507 C 0.50634 0.0825 0.95645 0.0
C508 C 0.52641 0.0794 0.98089 0.0
C509 C 0.51557 0.10449 0.93825 0.0
C510 C 0.58527 0.15854 0.92048 0.0
H511 H 0.57271 0.28545 0.86371 0.0
H512 H 0.55201 0.24203 0.88746 0.0
H513 H 0.61854 0.18933 0.90134 0.0
H514 H 0.57193 0.09683 1.00546 0.0
H515 H 0.58776 0.13575 0.97448 0.0
H516 H 0.50947 0.15462 0.91575 0.0
C517 C 0.57045 0.24302 0.8749 0.0
C518 C 0.59448 0.18166 0.90367 0.0
C519 C 0.58226 0.26797 0.86132 0.0
C520 C 0.55601 0.0986 0.98668 0.0
C521 C 0.56512 0.12084 0.96872 0.0
C522 C 0.53324 0.16155 0.91231 0.0
C523 C 0.58355 0.22049 0.87374 0.0
C524 C 0.57322 0.19506 0.89076 0.0
C525 C 0.54501 0.12419 0.94424 0.0
C526 C 0.55457 0.14827 0.92534 0.0
H527 H 0.63956 0.25029 0.83311 0.0
H528 H 0.61809 0.2062 0.8553 0.0
H529 H 0.52519 0.19389 0.88539 0.0
H530 H 0.48344 0.06786 0.95133 0.0
H531 H 0.49959 0.10587 0.91936 0.0
C532 C 0.91545 0.72924 0.36465 0.0
C533 C 0.88334 0.7175 0.35885 0.0
C534 C 0.92866 0.75664 0.37824 0.0
C535 C 0.91153 0.82435 0.39586 0.0
H536 H 0.98135 0.83602 0.45667 0.0
C537 C 0.95944 0.92889 0.47086 0.0
C538 C 0.99152 0.9393 0.47852 0.0
C539 C 0.94581 0.90189 0.45636 0.0
C540 C 0.9621 0.83335 0.43952 0.0
H541 H 0.84006 0.72613 0.36166 0.0
H542 H 0.86293 0.77354 0.38533 0.0
H543 H 0.95943 0.78992 0.43 0.0
H544 H 0.03432 0.9293 0.4772 0.0
H545 H 1.01088 0.8829 0.45176 0.0
H546 H 0.91428 0.86784 0.40529 0.0
C547 C 0.87803 0.76169 0.37945 0.0
C548 C 0.94951 0.80679 0.42414 0.0
C549 C 0.86487 0.73431 0.36607 0.0
C550 C 1.00953 0.92198 0.47166 0.0
C551 C 0.996 0.89515 0.45719 0.0
C552 C 0.92421 0.85098 0.41118 0.0
C553 C 0.91013 0.77316 0.38616 0.0
C554 C 0.92403 0.80184 0.40206 0.0
C555 C 0.96392 0.88463 0.44919 0.0
C556 C 0.94975 0.85595 0.43324 0.0
H557 H 0.93039 0.71691 0.35954 0.0
H558 H 0.95346 0.76485 0.38266 0.0
H559 H 0.89215 0.82153 0.37881 0.0
H560 H 0.94489 0.94163 0.47595 0.0
H561 H 0.92103 0.89448 0.45098 0.0
C562 C 0.28553 0.77181 0.64322 0.0
C563 C 0.28239 0.77106 0.67288 0.0
C564 C 0.29758 0.75243 0.63009 0.0
C565 C 0.32026 0.68615 0.64162 0.0
H566 H 0.38201 0.72018 0.59364 0.0
C567 C 0.42021 0.64179 0.62372 0.0
C568 C 0.4282 0.64165 0.5956 0.0
C569 C 0.398 0.65448 0.62993 0.0
C570 C 0.36451 0.71022 0.60662 0.0
H571 H 0.28728 0.74803 0.7114 0.0
H572 H 0.30923 0.71499 0.68892 0.0
H573 H 0.3499 0.74739 0.60974 0.0
H574 H 0.41909 0.65446 0.55189 0.0
H575 H 0.38037 0.67688 0.56283 0.0
H576 H 0.33608 0.6494 0.63947 0.0
C577 C 0.30214 0.73028 0.67559 0.0
C578 C 0.34597 0.72577 0.61578 0.0
C579 C 0.28989 0.74949 0.68863 0.0
C580 C 0.41326 0.65414 0.57372 0.0
C581 C 0.39127 0.66709 0.58001 0.0
C582 C 0.33904 0.6707 0.63267 0.0
C583 C 0.30692 0.73198 0.64636 0.0
C584 C 0.32397 0.71413 0.63384 0.0
C585 C 0.38354 0.66752 0.60822 0.0
C586 C 0.36169 0.68276 0.61548 0.0
H587 H 0.28011 0.78821 0.63046 0.0
H588 H 0.3004 0.75403 0.60738 0.0
H589 H 0.30318 0.67632 0.65505 0.0
H590 H 0.43116 0.63208 0.64093 0.0
H591 H 0.39274 0.65474 0.65194 0.0
C592 C 0.69654 0.70774 0.68542 0.0
C593 C 0.68203 0.72239 0.70253 0.0
C594 C 0.71268 0.7212 0.66376 0.0
C595 C 0.72363 0.78294 0.61912 0.0
H596 H 0.80994 0.78671 0.63121 0.0
C597 C 0.81595 0.87883 0.59108 0.0
C598 C 0.84229 0.87547 0.58101 0.0
C599 C 0.79416 0.85568 0.59954 0.0
C600 C 0.7858 0.78543 0.62698 0.0
H601 H 0.67268 0.7627 0.70931 0.0
H602 H 0.69942 0.78533 0.67108 0.0
H603 H 0.77402 0.75272 0.65636 0.0
H604 H 0.86613 0.84498 0.57144 0.0
H605 H 0.82786 0.8043 0.58632 0.0
H606 H 0.73539 0.81616 0.59047 0.0
C607 C 0.69828 0.76345 0.67437 0.0
C608 C 0.76523 0.76593 0.64139 0.0
C609 C 0.68271 0.75028 0.69628 0.0
C610 C 0.84619 0.84827 0.57934 0.0
C611 C 0.82427 0.825 0.58782 0.0
C612 C 0.7441 0.80224 0.60455 0.0
C613 C 0.71406 0.74934 0.6584 0.0
C614 C 0.73419 0.76529 0.63844 0.0
C615 C 0.79806 0.82849 0.59814 0.0
C616 C 0.77563 0.80451 0.60923 0.0
H617 H 0.69615 0.68613 0.68924 0.0
H618 H 0.72457 0.70983 0.6516 0.0
H619 H 0.69972 0.7826 0.6162 0.0
H620 H 0.81255 0.89956 0.59327 0.0
H621 H 0.7747 0.85933 0.60809 0.0
C622 C 0.75724 0.20384 0.27161 0.0
C623 C 0.74458 0.21191 0.29516 0.0
C624 C 0.73813 0.1889 0.24677 0.0
C625 C 0.66009 0.14169 0.22398 0.0
H626 H 0.67639 0.15835 0.14568 0.0
C627 C 0.57417 0.08571 0.12386 0.0
C628 C 0.58624 0.07664 0.10041 0.0
C629 C 0.59357 0.10372 0.14666 0.0
C630 C 0.67172 0.15328 0.16743 0.0
H631 H 0.70197 0.21067 0.31111 0.0
H632 H 0.66876 0.1851 0.26771 0.0
H633 H 0.71053 0.18717 0.1873 0.0
H634 H 0.62807 0.07977 0.08221 0.0
H635 H 0.662 0.11084 0.12231 0.0
H636 H 0.62162 0.10766 0.20436 0.0
C637 C 0.69342 0.19016 0.26847 0.0
C638 C 0.69124 0.16978 0.19123 0.0
C639 C 0.71247 0.20512 0.29319 0.0
C640 C 0.61806 0.0864 0.09996 0.0
C641 C 0.63749 0.10434 0.12286 0.0
C642 C 0.64068 0.12517 0.20026 0.0
C643 C 0.706 0.18159 0.24514 0.0
C644 C 0.68554 0.1642 0.21974 0.0
C645 C 0.62549 0.11296 0.14662 0.0
C646 C 0.64619 0.1308 0.1717 0.0
H647 H 0.78192 0.20891 0.27249 0.0
H648 H 0.74847 0.18241 0.22919 0.0
H649 H 0.65544 0.13653 0.24572 0.0
H650 H 0.54972 0.07883 0.12473 0.0
H651 H 0.58352 0.1104 0.16437 0.0
C652 C 0.39254 0.6752 0.30373 0.0
C653 C 0.41249 0.6826 0.28298 0.0
C654 C 0.40026 0.66132 0.32812 0.0
C655 C 0.46494 0.64009 0.37012 0.0
H656 H 0.39789 0.58257 0.39489 0.0
C657 C 0.48634 0.57385 0.46696 0.0
C658 C 0.4693 0.54512 0.46486 0.0
C659 C 0.47874 0.59226 0.4469 0.0
C660 C 0.417 0.59833 0.38815 0.0
H661 H 0.45644 0.68187 0.27169 0.0
H662 H 0.46969 0.65683 0.31373 0.0
H663 H 0.38716 0.61153 0.35594 0.0
H664 H 0.4306 0.51321 0.44043 0.0
H665 H 0.4179 0.54491 0.40483 0.0
H666 H 0.49494 0.62572 0.40121 0.0
C667 C 0.44837 0.66234 0.31175 0.0
C668 C 0.41077 0.6154 0.36602 0.0
C669 C 0.44081 0.67668 0.28756 0.0
C670 C 0.44406 0.53528 0.44269 0.0
C671 C 0.43671 0.55359 0.42234 0.0
C672 C 0.47121 0.62276 0.39202 0.0
C673 C 0.42792 0.65396 0.33212 0.0
C674 C 0.43464 0.6365 0.35657 0.0
C675 C 0.45416 0.58231 0.42394 0.0
C676 C 0.44734 0.60151 0.40129 0.0
H677 H 0.37063 0.67972 0.30076 0.0
H678 H 0.38425 0.65601 0.34361 0.0
H679 H 0.48396 0.65629 0.36384 0.0
H680 H 0.50584 0.58207 0.48393 0.0
H681 H 0.49232 0.61428 0.44938 0.0
C682 C 0.1382 0.37395 0.79148 0.0
C683 C 0.15134 0.39109 0.77004 0.0
C684 C 0.12746 0.38532 0.81461 0.0
C685 C 0.10562 0.44971 0.83847 0.0
H686 H 0.10627 0.41606 0.91271 0.0
C687 C 0.04472 0.48394 0.92916 0.0
C688 C 0.05633 0.48303 0.95864 0.0
C689 C 0.05674 0.47297 0.90674 0.0
C690 C 0.10615 0.42609 0.89232 0.0
H691 H 0.16324 0.43428 0.75701 0.0
H692 H 0.14608 0.45414 0.79766 0.0
H693 H 0.12723 0.39759 0.87386 0.0
H694 H 0.09026 0.46989 0.98732 0.0
H695 H 0.11187 0.45166 0.94848 0.0
H696 H 0.08574 0.47896 0.85727 0.0
C697 C 0.14327 0.43161 0.7963 0.0
C698 C 0.11783 0.41508 0.86962 0.0
C699 C 0.15373 0.42018 0.773 0.0
C700 C 0.08055 0.47091 0.96495 0.0
C701 C 0.09284 0.4602 0.94249 0.0
C702 C 0.09423 0.4609 0.86124 0.0
C703 C 0.12969 0.41439 0.81749 0.0
C704 C 0.11767 0.42656 0.84215 0.0
C705 C 0.08113 0.46094 0.91289 0.0
C706 C 0.09406 0.44923 0.88861 0.0
H707 H 0.13624 0.35157 0.79059 0.0
H708 H 0.11691 0.37102 0.82998 0.0
H709 H 0.10449 0.45914 0.81777 0.0
H710 H 0.02591 0.49283 0.92329 0.0
H711 H 0.04639 0.47356 0.88452 0.0
C712 C 0.62107 0.7566 0.77339 0.0
C713 C 0.61847 0.72836 0.77964 0.0
C714 C 0.60743 0.7729 0.78892 0.0
C715 C 0.56915 0.80156 0.81995 0.0
H716 H 0.59433 0.8022 0.90311 0.0
C717 C 0.55461 0.88534 0.90194 0.0
C718 C 0.58137 0.8986 0.9216 0.0
C719 C 0.55254 0.86083 0.88502 0.0
C720 C 0.58696 0.80214 0.87995 0.0
H721 H 0.59744 0.69464 0.80591 0.0
H722 H 0.57429 0.7236 0.83374 0.0
H723 H 0.60005 0.76495 0.87065 0.0
H724 H 0.62658 0.89622 0.93952 0.0
H725 H 0.62311 0.85358 0.90981 0.0
H726 H 0.55752 0.83956 0.82914 0.0
C727 C 0.58702 0.73294 0.8167 0.0
C728 C 0.58987 0.78063 0.86141 0.0
C729 C 0.60038 0.71643 0.80084 0.0
C730 C 0.60581 0.88662 0.92433 0.0
C731 C 0.60365 0.86202 0.90761 0.0
C732 C 0.56605 0.82297 0.83852 0.0
C733 C 0.59112 0.76155 0.81137 0.0
C734 C 0.58197 0.78068 0.83114 0.0
C735 C 0.57708 0.84897 0.88765 0.0
C736 C 0.5759 0.82399 0.8686 0.0
H737 H 0.63531 0.76686 0.75776 0.0
H738 H 0.61143 0.795 0.78461 0.0
H739 H 0.56269 0.80198 0.79672 0.0
H740 H 0.53547 0.89421 0.89928 0.0
H741 H 0.53177 0.85118 0.86987 0.0
C742 C 0.82458 0.20394 0.40545 0.0
C743 C 0.82684 0.21269 0.37714 0.0
C744 C 0.84264 0.18758 0.41775 0.0
C745 C 0.91208 0.16596 0.41371 0.0
H746 H 0.86701 0.09753 0.44569 0.0
C747 C 0.96872 0.07979 0.45273 0.0
C748 C 0.95997 0.06684 0.47801 0.0
C749 C 0.95311 0.09778 0.43942 0.0
C750 C 0.88009 0.11672 0.43724 0.0
H751 H 0.85074 0.21243 0.34005 0.0
H752 H 0.88268 0.184 0.36177 0.0
H753 H 0.83997 0.13018 0.42583 0.0
H754 H 0.92821 0.06292 0.50934 0.0
H755 H 0.90176 0.09461 0.48678 0.0
H756 H 0.95237 0.15281 0.42569 0.0
C757 C 0.86682 0.18972 0.37432 0.0
C758 C 0.86454 0.13539 0.42581 0.0
C759 C 0.84849 0.20584 0.36187 0.0
C760 C 0.93538 0.07227 0.4897 0.0
C761 C 0.92004 0.09039 0.47663 0.0
C762 C 0.92777 0.1474 0.42549 0.0
C763 C 0.86351 0.17988 0.4021 0.0
C764 C 0.88038 0.16027 0.41411 0.0
C765 C 0.9286 0.10333 0.45128 0.0
C766 C 0.91197 0.12263 0.43759 0.0
H767 H 0.80788 0.20866 0.41761 0.0
H768 H 0.83987 0.18048 0.43932 0.0
H769 H 0.92482 0.18506 0.40486 0.0
H770 H 0.98757 0.07601 0.44316 0.0
H771 H 0.96009 0.10712 0.41973 0.0
C772 C 0.33277 0.66712 0.1628 0.0
C773 C 0.33506 0.67025 0.19328 0.0
C774 C 0.30506 0.65207 0.14579 0.0
C775 C 0.2311 0.59843 0.14824 0.0
H776 H 0.20263 0.63312 0.08051 0.0
C777 C 0.1069 0.558 0.08678 0.0
C778 C 0.10224 0.56012 0.05655 0.0
C779 C 0.13612 0.56933 0.10295 0.0
C780 C 0.21042 0.62283 0.09902 0.0
H781 H 0.30984 0.65976 0.22969 0.0
H782 H 0.26161 0.63312 0.19995 0.0
H783 H 0.25208 0.65676 0.10963 0.0
H784 H 0.12459 0.57442 1.01927 0.0
H785 H 0.17574 0.59365 0.04731 0.0
H786 H 0.18951 0.5644 0.13757 0.0
C787 C 0.28139 0.64223 0.18931 0.0
C788 C 0.23876 0.63647 0.11578 0.0
C789 C 0.30905 0.65747 0.20633 0.0
C790 C 0.12749 0.57281 0.04261 0.0
C791 C 0.15675 0.58397 0.05873 0.0
C792 C 0.20282 0.58464 0.13133 0.0
C793 C 0.27904 0.63958 0.15885 0.0
C794 C 0.24932 0.62452 0.14066 0.0
C795 C 0.16136 0.58285 0.08918 0.0
C796 C 0.19203 0.59676 0.10659 0.0
H797 H 0.35247 0.67616 0.15203 0.0
H798 H 0.30405 0.65005 0.12239 0.0
H799 H 0.23883 0.58856 0.16712 0.0
H800 H 0.08781 0.54819 0.09806 0.0
H801 H 0.13869 0.56828 0.12635 0.0
C802 C 0.25074 0.41401 0.70741 0.0
C803 C 0.22141 0.40028 0.69196 0.0
C804 C 0.27554 0.42636 0.69253 0.0
C805 C 0.29961 0.42231 0.61906 0.0
H806 H 0.36602 0.48914 0.64934 0.0
C807 C 0.41179 0.4558 0.56791 0.0
C808 C 0.42681 0.4848 0.56672 0.0
C809 C 0.3867 0.44675 0.58309 0.0
C810 C 0.34755 0.4706 0.64035 0.0
H811 H 0.19484 0.39048 0.64882 0.0
H812 H 0.23739 0.41241 0.62311 0.0
H813 H 0.32257 0.47236 0.6759 0.0
H814 H 0.42663 0.52703 0.58063 0.0
H815 H 0.38256 0.51129 0.60662 0.0
H816 H 0.32404 0.42076 0.58329 0.0
C817 C 0.24179 0.41291 0.64662 0.0
C818 C 0.32271 0.46073 0.65585 0.0
C819 C 0.21722 0.40047 0.66142 0.0
C820 C 0.41571 0.50452 0.58097 0.0
C821 C 0.39051 0.49544 0.59616 0.0
C822 C 0.32432 0.43217 0.6036 0.0
C823 C 0.27158 0.42545 0.66181 0.0
C824 C 0.29828 0.4364 0.64545 0.0
C825 C 0.37563 0.46638 0.59757 0.0
C826 C 0.34882 0.45641 0.61399 0.0
H827 H 0.25483 0.41411 0.73092 0.0
H828 H 0.29805 0.43565 0.70511 0.0
H829 H 0.28167 0.40328 0.61039 0.0
H830 H 0.4197 0.43991 0.55748 0.0
H831 H 0.37638 0.42421 0.58395 0.0
C832 C 0.70275 0.64999 0.78328 0.0
C833 C 0.6946 0.67333 0.7938 0.0
C834 C 0.72259 0.63846 0.80098 0.0
C835 C 0.75906 0.6379 0.87734 0.0
H836 H 0.82379 0.62236 0.84014 0.0
C837 C 0.85383 0.59428 0.93744 0.0
C838 C 0.88378 0.60638 0.93126 0.0
C839 C 0.82882 0.60065 0.92149 0.0
C840 C 0.80594 0.62672 0.85089 0.0
H841 H 0.70044 0.70261 0.83126 0.0
H842 H 0.73518 0.68266 0.86204 0.0
H843 H 0.78278 0.63589 0.81105 0.0
H844 H 0.91085 0.63467 0.90347 0.0
H845 H 0.86752 0.64627 0.87631 0.0
H846 H 0.78305 0.62969 0.91742 0.0
C847 C 0.72582 0.67288 0.84033 0.0
C848 C 0.78217 0.63408 0.83414 0.0
C849 C 0.70591 0.68434 0.82267 0.0
C850 C 0.88818 0.62525 0.90909 0.0
C851 C 0.86326 0.63159 0.8932 0.0
C852 C 0.78292 0.63052 0.89415 0.0
C853 C 0.73485 0.65015 0.82951 0.0
C854 C 0.75863 0.64009 0.84719 0.0
C855 C 0.83326 0.61913 0.89897 0.0
C856 C 0.80686 0.62528 0.88114 0.0
H857 H 0.69411 0.64091 0.76121 0.0
H858 H 0.72869 0.62065 0.79215 0.0
H859 H 0.7411 0.64214 0.888 0.0
H860 H 0.84972 0.57984 0.95455 0.0
H861 H 0.80595 0.59064 0.92638 0.0
C862 C 0.43603 0.75377 0.1787 0.0
C863 C 0.42832 0.75438 0.2069 0.0
C864 C 0.44973 0.77887 0.16638 0.0
C865 C 0.4924 0.83495 0.15166 0.0
H866 H 0.45245 0.89424 0.15359 0.0
C867 C 0.53952 0.94257 0.10325 0.0
C868 C 0.518 0.95187 0.08482 0.0
C869 C 0.52984 0.91977 0.12034 0.0
C870 C 0.46384 0.87787 0.15289 0.0
H871 H 0.42928 0.7816 0.24453 0.0
H872 H 0.45299 0.82582 0.22277 0.0
H873 H 0.43467 0.85186 0.18006 0.0
H874 H 0.46943 0.94518 0.0705 0.0
H875 H 0.45244 0.90544 0.10068 0.0
H876 H 0.52134 0.86072 0.12428 0.0
C877 C 0.44854 0.80582 0.21031 0.0
C878 C 0.45387 0.85375 0.16825 0.0
C879 C 0.43526 0.78058 0.22285 0.0
C880 C 0.48653 0.9384 0.08444 0.0
C881 C 0.47682 0.91577 0.10182 0.0
C882 C 0.50263 0.8592 0.13664 0.0
C883 C 0.4556 0.80522 0.1818 0.0
C884 C 0.4678 0.83186 0.16751 0.0
C885 C 0.4984 0.90596 0.11968 0.0
C886 C 0.48826 0.8808 0.13679 0.0
H887 H 0.43083 0.73382 0.16593 0.0
H888 H 0.45467 0.77771 0.14431 0.0
H889 H 0.50366 0.8185 0.15076 0.0
H890 H 0.56393 0.95259 0.1041 0.0
H891 H 0.547 0.91292 0.13411 0.0
C892 C 0.13261 0.30399 0.66461 0.0
C893 C 0.13867 0.30956 0.69505 0.0
C894 C 0.12029 0.27624 0.65203 0.0
C895 C 0.07943 0.20223 0.66676 0.0
H896 H 0.1123 0.18326 0.5989 0.0
C897 C 0.04728 0.0865 0.61573 0.0
C898 C 0.0426 0.08249 0.58518 0.0
C899 C 0.05943 0.11379 0.62973 0.0
C900 C 0.10252 0.18816 0.61761 0.0
H901 H 0.13539 0.28995 0.73605 0.0
H902 H 0.11378 0.24141 0.71411 0.0
H903 H 0.1314 0.23104 0.62209 0.0
H904 H 0.04756 0.10411 0.54544 0.0
H905 H 0.06847 0.15157 0.56966 0.0
H906 H 0.05047 0.15928 0.66217 0.0
C907 C 0.1185 0.25864 0.69991 0.0
C908 C 0.11353 0.21571 0.63099 0.0
C909 C 0.13087 0.28653 0.71255 0.0
C910 C 0.05091 0.10641 0.56901 0.0
C911 C 0.06308 0.13368 0.58297 0.0
C912 C 0.06838 0.17463 0.65334 0.0
C913 C 0.11355 0.25304 0.66943 0.0
C914 C 0.10203 0.22329 0.65566 0.0
C915 C 0.06733 0.13787 0.61357 0.0
C916 C 0.07963 0.16718 0.62843 0.0
H917 H 0.13766 0.32116 0.65036 0.0
H918 H 0.11609 0.27301 0.62852 0.0
H919 H 0.06973 0.20722 0.68549 0.0
H920 H 0.04122 0.06854 0.62887 0.0
H921 H 0.06278 0.11597 0.65328 0.0
C922 C 0.76011 0.27717 0.41087 0.0
C923 C 0.76373 0.28028 0.38148 0.0
C924 C 0.74574 0.29399 0.42498 0.0
C925 C 0.71594 0.35678 0.4173 0.0
H926 H 0.65483 0.314 0.46172 0.0
C927 C 0.63099 0.40606 0.46477 0.0
C928 C 0.60041 0.38881 0.46233 0.0
C929 C 0.65425 0.39469 0.45865 0.0
C930 C 0.67169 0.32624 0.44927 0.0
H931 H 0.75737 0.305 0.34461 0.0
H932 H 0.73147 0.33359 0.36878 0.0
H933 H 0.69095 0.29213 0.44447 0.0
H934 H 0.57049 0.34593 0.45199 0.0
H935 H 0.61071 0.32638 0.44029 0.0
H936 H 0.69542 0.39031 0.42067 0.0
C937 C 0.73992 0.31842 0.38114 0.0
C938 C 0.69279 0.31385 0.43977 0.0
C939 C 0.75446 0.30177 0.36712 0.0
C940 C 0.5937 0.35992 0.45374 0.0
C941 C 0.6169 0.3486 0.44747 0.0
C942 C 0.69467 0.36912 0.42663 0.0
C943 C 0.73453 0.31416 0.40997 0.0
C944 C 0.71481 0.32875 0.42317 0.0
C945 C 0.64747 0.36583 0.44982 0.0
C946 C 0.67187 0.35377 0.44222 0.0
H947 H 0.76686 0.26074 0.42255 0.0
H948 H 0.74251 0.29051 0.44738 0.0
H949 H 0.73287 0.36903 0.40493 0.0
H950 H 0.63694 0.42848 0.47102 0.0
H951 H 0.67757 0.40853 0.46093 0.0
loop_
_geom_bond_atom_site_label_1
_geom_bond_atom_site_label_2
_geom_bond_distance
_geom_bond_site_symmetry_2
_ccdc_geom_bond_type
H0 C3 0.931 . S
H1 C6 0.928 . S
H2 C8 0.930 . S
C3 H0 0.931 . S
C3 C4 1.413 . S
C3 C5 1.360 . S
C4 C3 1.413 . S
C4 C8 1.429 . S
C5 C3 1.360 . S
C5 C6 1.372 . S
C6 H1 0.928 . S
C6 C5 1.372 . S
C6 C7 1.404 . S
C7 C6 1.404 . S
C7 C8 1.391 . S
C8 H2 0.930 . S
C8 C4 1.429 . S
C8 C7 1.391 . S
H9 C12 0.931 . S
H10 C15 0.928 . S
H11 C17 0.930 . S
C12 H9 0.931 . S
C12 C13 1.413 . S
C12 C14 1.360 . S
C13 C12 1.413 . S
C13 C17 1.429 . S
C14 C12 1.360 . S
C14 C15 1.372 . S
C15 H10 0.928 . S
C15 C14 1.372 . S
C15 C16 1.404 . S
C16 C15 1.404 . S
C16 C17 1.391 . S
C17 H11 0.930 . S
C17 C13 1.429 . S
C17 C16 1.391 . S
H18 C21 0.931 . S
H19 C24 0.928 . S
H20 C26 0.930 . S
C21 H18 0.931 . S
C21 C22 1.413 . S
C21 C23 1.360 . S
C22 C21 1.413 . S
C22 C26 1.429 . S
C23 C21 1.360 . S
C23 C24 1.372 . S
C24 H19 0.928 . S
C24 C23 1.372 . S
C24 C25 1.404 . S
C25 C24 1.404 . S
C25 C26 1.391 . S
C26 H20 0.930 . S
C26 C22 1.429 . S
C26 C25 1.391 . S
H27 C30 0.931 . S
H28 C33 0.928 . S
H29 C35 0.930 . S
C30 H27 0.931 . S
C30 C31 1.413 . S
C30 C32 1.360 . S
C31 C30 1.413 . S
C31 C35 1.429 . S
C32 C30 1.360 . S
C32 C33 1.372 . S
C33 H28 0.928 . S
C33 C32 1.372 . S
C33 C34 1.404 . S
C34 C33 1.404 . S
C34 C35 1.391 . S
C35 H29 0.930 . S
C35 C31 1.429 . S
C35 C34 1.391 . S
H36 C39 0.931 . S
H37 C42 0.928 . S
H38 C44 0.930 . S
C39 H36 0.931 . S
C39 C40 1.413 . S
C39 C41 1.360 . S
C40 C39 1.413 . S
C40 C44 1.429 . S
C41 C39 1.360 . S
C41 C42 1.372 . S
C42 H37 0.928 . S
C42 C41 1.372 . S
C42 C43 1.404 . S
C43 C42 1.404 . S
C43 C44 1.391 . S
C44 H38 0.930 . S
C44 C40 1.429 . S
C44 C43 1.391 . S
H45 C48 0.931 . S
H46 C51 0.928 . S
H47 C53 0.930 . S
C48 H45 0.931 . S
C48 C49 1.413 . S
C48 C50 1.360 . S
C49 C48 1.413 . S
C49 C53 1.429 . S
C50 C48 1.360 . S
C50 C51 1.372 . S
C51 H46 0.928 . S
C51 C50 1.372 . S
C51 C52 1.404 . S
C52 C51 1.404 . S
C52 C53 1.391 . S
C53 H47 0.930 . S
C53 C49 1.429 . S
C53 C52 1.391 . S
H54 C57 0.931 . S
H55 C60 0.928 . S
H56 C62 0.930 . S
C57 H54 0.931 . S
C57 C58 1.413 . S
C57 C59 1.360 . S
C58 C57 1.413 . S
C58 C62 1.429 . S
C59 C57 1.360 . S
C59 C60 1.372 . S
C60 H55 0.928 . S
C60 C59 1.372 . S
C60 C61 1.404 . S
C61 C60 1.404 . S
C61 C62 1.391 . S
C62 H56 0.930 . S
C62 C58 1.429 . S
C62 C61 1.391 . S
H63 C66 0.931 . S
H64 C69 0.928 . S
H65 C71 0.930 . S
C66 H63 0.931 . S
C66 C67 1.413 . S
C66 C68 1.360 . S
C67 C66 1.413 . S
C67 C71 1.429 . S
C68 C66 1.360 . S
C68 C69 1.372 . S
C69 H64 0.928 . S
C69 C68 1.372 . S
C69 C70 1.404 . S
C70 C69 1.404 . S
C70 C71 1.391 . S
C71 H65 0.930 . S
C71 C67 1.429 . S
C71 C70 1.391 . S
Pr72 C74 2.880 . S
Pr72 O92 2.562 . S
Pr72 O93 2.490 . S
Pr72 O94 2.695 1_665 S
Pr72 O95 2.512 1_665 S
Pr72 O97 2.437 1_655 S
Pr72 O100 2.436 . S
Pr72 O102 2.438 1_565 S
Pr73 C83 2.880 . S
Pr73 O94 2.436 . S
Pr73 O96 2.438 1_545 S
Pr73 O98 2.562 . S
Pr73 O99 2.490 . S
Pr73 O100 2.695 1_445 S
Pr73 O101 2.520 1_545 S
Pr73 O103 2.437 1_455 S
C74 Pr72 2.880 . S
C74 C75 1.491 . S
C74 O92 1.254 . S
C74 O93 1.225 . S
C75 C74 1.491 . S
C75 C76 1.392 . S
C75 C80 1.356 . S
C76 C75 1.392 . S
C76 C77 1.368 . S
C76 H104 0.929 . S
C77 C76 1.368 . S
C77 C78 1.386 . S
C77 H105 0.929 . S
C78 C77 1.386 . S
C78 C79 1.373 . S
C79 C78 1.373 . S
C79 C80 1.409 . S
C79 H106 0.931 . S
C80 C75 1.356 . S
C80 C79 1.409 . S
C80 H107 0.930 . S
C81 O94 1.270 . S
C81 O95 1.248 . S
C82 O96 1.267 . S
C82 O97 1.278 . S
C83 Pr73 2.880 . S
C83 C84 1.491 . S
C83 O98 1.254 . S
C83 O99 1.225 . S
C84 C83 1.491 . S
C84 C85 1.392 . S
C84 C89 1.356 . S
C85 C84 1.392 . S
C85 C86 1.368 . S
C85 H108 0.929 . S
C86 C85 1.368 . S
C86 C87 1.386 . S
C86 H109 0.929 . S
C87 C86 1.386 . S
C87 C88 1.373 . S
C88 C87 1.373 . S
C88 C89 1.409 . S
C88 H110 0.931 . S
C89 C84 1.356 . S
C89 C88 1.409 . S
C89 H111 0.930 . S
C90 O100 1.270 . S
C90 O101 1.228 1_655 S
C91 O102 1.267 . S
C91 O103 1.278 . S
O92 Pr72 2.562 . S
O92 C74 1.254 . S
O93 Pr72 2.490 . S
O93 C74 1.225 . S
O94 Pr72 2.695 1_445 S
O94 Pr73 2.436 . S
O94 C81 1.270 . S
O95 Pr72 2.512 1_445 S
O95 C81 1.248 . S
O96 Pr73 2.438 1_565 S
O96 C82 1.267 . S
O97 Pr72 2.437 1_455 S
O97 C82 1.278 . S
O98 Pr73 2.562 . S
O98 C83 1.254 . S
O99 Pr73 2.490 . S
O99 C83 1.225 . S
O100 Pr72 2.436 . S
O100 Pr73 2.695 1_665 S
O100 C90 1.270 . S
O101 Pr73 2.520 1_565 S
O101 C90 1.228 1_455 S
O102 Pr72 2.438 1_545 S
O102 C91 1.267 . S
O103 Pr73 2.437 1_655 S
O103 C91 1.278 . S
H104 C76 0.929 . S
H105 C77 0.929 . S
H106 C79 0.931 . S
H107 C80 0.930 . S
H108 C85 0.929 . S
H109 C86 0.929 . S
H110 C88 0.931 . S
H111 C89 0.930 . S
Pr112 C114 2.882 . S
Pr112 O132 2.566 . S
Pr112 O133 2.491 . S
Pr112 O134 2.693 1_554 S
Pr112 O135 2.510 1_554 S
Pr112 O137 2.438 . S
Pr112 O140 2.437 1_545 S
Pr112 O142 2.436 1_544 S
Pr113 C123 2.853 1_554 S
Pr113 O134 2.421 1_564 S
Pr113 O136 2.465 1_565 S
Pr113 O138 2.526 1_554 S
Pr113 O139 2.476 1_554 S
Pr113 O140 2.718 . S
Pr113 O141 2.538 . S
Pr113 O143 2.421 1_554 S
C114 Pr112 2.882 . S
C114 C115 1.491 . S
C114 O132 1.254 . S
C114 O133 1.225 . S
C115 C114 1.491 . S
C115 C116 1.392 . S
C115 C120 1.356 . S
C116 C115 1.392 . S
C116 C117 1.368 . S
C116 H144 0.929 . S
C117 C116 1.368 . S
C117 C118 1.386 . S
C117 H145 0.929 . S
C118 C117 1.386 . S
C118 C119 1.373 . S
C119 C118 1.373 . S
C119 C120 1.409 . S
C119 H146 0.931 . S
C120 C115 1.356 . S
C120 C119 1.409 . S
C120 H147 0.930 . S
C121 O134 1.270 . S
C121 O135 1.248 . S
C122 O136 1.267 . S
C122 O137 1.278 . S
C123 Pr113 2.853 1_556 S
C123 C124 1.491 . S
C123 O138 1.254 . S
C123 O139 1.225 . S
C124 C123 1.491 . S
C124 C125 1.392 . S
C124 C129 1.356 . S
C125 C124 1.392 . S
C125 C126 1.368 . S
C125 H148 0.929 . S
C126 C125 1.368 . S
C126 C127 1.386 . S
C126 H149 0.929 . S
C127 C126 1.386 . S
C127 C128 1.373 . S
C128 C127 1.373 . S
C128 C129 1.409 . S
C128 H150 0.931 . S
C129 C124 1.356 . S
C129 C128 1.409 . S
C129 H151 0.930 . S
C130 O140 1.270 . S
C130 O141 1.248 . S
C131 O142 1.267 . S
C131 O143 1.278 . S
O132 Pr112 2.566 . S
O132 C114 1.254 . S
O133 Pr112 2.491 . S
O133 C114 1.225 . S
O134 Pr112 2.693 1_556 S
O134 Pr113 2.421 1_546 S
O134 C121 1.270 . S
O135 Pr112 2.510 1_556 S
O135 C121 1.248 . S
O136 Pr113 2.465 1_545 S
O136 C122 1.267 . S
O137 Pr112 2.438 . S
O137 C122 1.278 . S
O138 Pr113 2.526 1_556 S
O138 C123 1.254 . S
O139 Pr113 2.476 1_556 S
O139 C123 1.225 . S
O140 Pr112 2.437 1_565 S
O140 Pr113 2.718 . S
O140 C130 1.270 . S
O141 Pr113 2.538 . S
O141 C130 1.248 . S
O142 Pr112 2.436 1_566 S
O142 C131 1.267 . S
O143 Pr113 2.421 1_556 S
O143 C131 1.278 . S
H144 C116 0.929 . S
H145 C117 0.929 . S
H146 C119 0.931 . S
H147 C120 0.930 . S
H148 C125 0.929 . S
H149 C126 0.929 . S
H150 C128 0.931 . S
H151 C129 0.930 . S
Pr152 C154 2.880 . S
Pr152 O172 2.562 . S
Pr152 O173 2.490 . S
Pr152 O174 2.695 . S
Pr152 O175 2.512 . S
Pr152 O177 2.437 . S
Pr152 O180 2.436 . S
Pr152 O182 2.438 . S
Pr153 C163 2.880 . S
Pr153 O174 2.436 . S
Pr153 O176 2.438 . S
Pr153 O178 2.562 . S
Pr153 O179 2.490 . S
Pr153 O180 2.695 . S
Pr153 O181 2.512 . S
Pr153 O183 2.437 . S
C154 Pr152 2.880 . S
C154 C155 1.491 . S
C154 O172 1.254 . S
C154 O173 1.225 . S
C155 C154 1.491 . S
C155 C156 1.392 . S
C155 C160 1.356 . S
C156 C155 1.392 . S
C156 C157 1.368 . S
C156 H184 0.929 . S
C157 C156 1.368 . S
C157 C158 1.386 . S
C157 H185 0.929 . S
C158 C157 1.386 . S
C158 C159 1.373 . S
C159 C158 1.373 . S
C159 C160 1.409 . S
C159 H186 0.931 . S
C160 C155 1.356 . S
C160 C159 1.409 . S
C160 H187 0.930 . S
C161 O174 1.270 . S
C161 O175 1.248 . S
C162 O176 1.267 . S
C162 O177 1.278 . S
C163 Pr153 2.880 . S
C163 C164 1.491 . S
C163 O178 1.254 . S
C163 O179 1.225 . S
C164 C163 1.491 . S
C164 C165 1.392 . S
C164 C169 1.356 . S
C165 C164 1.392 . S
C165 C166 1.368 . S
C165 H188 0.929 . S
C166 C165 1.368 . S
C166 C167 1.386 . S
C166 H189 0.929 . S
C167 C166 1.386 . S
C167 C168 1.373 . S
C168 C167 1.373 . S
C168 C169 1.409 . S
C168 H190 0.931 . S
C169 C164 1.356 . S
C169 C168 1.409 . S
C169 H191 0.930 . S
C170 O180 1.270 . S
C170 O181 1.248 . S
C171 O182 1.267 . S
C171 O183 1.278 . S
O172 Pr152 2.562 . S
O172 C154 1.254 . S
O173 Pr152 2.490 . S
O173 C154 1.225 . S
O174 Pr152 2.695 . S
O174 Pr153 2.436 . S
O174 C161 1.270 . S
O175 Pr152 2.512 . S
O175 C161 1.248 . S
O176 Pr153 2.438 . S
O176 C162 1.267 . S
O177 Pr152 2.437 . S
O177 C162 1.278 . S
O178 Pr153 2.562 . S
O178 C163 1.254 . S
O179 Pr153 2.490 . S
O179 C163 1.225 . S
O180 Pr152 2.436 . S
O180 Pr153 2.695 . S
O180 C170 1.270 . S
O181 Pr153 2.512 . S
O181 C170 1.248 . S
O182 Pr152 2.438 . S
O182 C171 1.267 . S
O183 Pr153 2.437 . S
O183 C171 1.278 . S
H184 C156 0.929 . S
H185 C157 0.929 . S
H186 C159 0.931 . S
H187 C160 0.930 . S
H188 C165 0.929 . S
H189 C166 0.929 . S
H190 C168 0.931 . S
H191 C169 0.930 . S
Pr192 C194 2.892 . S
Pr192 O212 2.578 . S
Pr192 O213 2.497 . S
Pr192 O214 2.687 1_656 S
Pr192 O215 2.503 1_656 S
Pr192 O217 2.446 1_556 S
Pr192 O220 2.441 . S
Pr192 O222 2.425 1_655 S
Pr193 C203 2.880 . S
Pr193 O214 2.436 . S
Pr193 O216 2.438 1_455 S
Pr193 O218 2.562 . S
Pr193 O219 2.490 . S
Pr193 O220 2.695 1_454 S
Pr193 O221 2.512 1_454 S
Pr193 O223 2.437 1_554 S
C194 Pr192 2.892 . S
C194 C195 1.491 . S
C194 O212 1.254 . S
C194 O213 1.225 . S
C195 C194 1.491 . S
C195 C196 1.392 . S
C195 C200 1.356 . S
C196 C195 1.392 . S
C196 C197 1.368 . S
C196 H224 0.929 . S
C197 C196 1.368 . S
C197 C198 1.386 . S
C197 H225 0.929 . S
C198 C197 1.386 . S
C198 C199 1.373 . S
C199 C198 1.373 . S
C199 C200 1.409 . S
C199 H226 0.931 . S
C200 C195 1.356 . S
C200 C199 1.409 . S
C200 H227 0.930 . S
C201 O214 1.270 . S
C201 O215 1.248 . S
C202 O216 1.267 . S
C202 O217 1.278 . S
C203 Pr193 2.880 . S
C203 C204 1.491 . S
C203 O218 1.254 . S
C203 O219 1.225 . S
C204 C203 1.491 . S
C204 C205 1.392 . S
C204 C209 1.356 . S
C205 C204 1.392 . S
C205 C206 1.368 . S
C205 H228 0.929 . S
C206 C205 1.368 . S
C206 C207 1.386 . S
C206 H229 0.929 . S
C207 C206 1.386 . S
C207 C208 1.373 . S
C208 C207 1.373 . S
C208 C209 1.409 . S
C208 H230 0.931 . S
C209 C204 1.356 . S
C209 C208 1.409 . S
C209 H231 0.930 . S
C210 O220 1.270 . S
C210 O221 1.248 . S
C211 O222 1.267 . S
C211 O223 1.278 . S
O212 Pr192 2.578 . S
O212 C194 1.254 . S
O213 Pr192 2.497 . S
O213 C194 1.225 . S
O214 Pr192 2.687 1_454 S
O214 Pr193 2.436 . S
O214 C201 1.270 . S
O215 Pr192 2.503 1_454 S
O215 C201 1.248 . S
O216 Pr193 2.438 1_655 S
O216 C202 1.267 . S
O217 Pr192 2.446 1_554 S
O217 C202 1.278 . S
O218 Pr193 2.562 . S
O218 C203 1.254 . S
O219 Pr193 2.490 . S
O219 C203 1.225 . S
O220 Pr192 2.441 . S
O220 Pr193 2.695 1_656 S
O220 C210 1.270 . S
O221 Pr193 2.512 1_656 S
O221 C210 1.248 . S
O222 Pr192 2.425 1_455 S
O222 C211 1.267 . S
O223 Pr193 2.437 1_556 S
O223 C211 1.278 . S
H224 C196 0.929 . S
H225 C197 0.929 . S
H226 C199 0.931 . S
H227 C200 0.930 . S
H228 C205 0.929 . S
H229 C206 0.929 . S
H230 C208 0.931 . S
H231 C209 0.930 . S
C232 C233 1.349 . S
C232 C234 1.327 . S
C232 H257 0.950 . S
C233 C232 1.349 . S
C233 C249 1.349 . S
C234 C232 1.327 . S
C234 C253 1.429 . S
C234 H258 0.950 . S
C235 C252 1.574 . S
C235 C254 1.368 . S
C235 H259 0.949 . S
H236 C240 0.949 . S
C237 C238 1.349 . S
C237 C239 1.327 . S
C237 H260 0.950 . S
C238 C237 1.349 . S
C238 C250 1.349 . S
C239 C237 1.327 . S
C239 C255 1.429 . S
C239 H261 0.950 . S
C240 H236 0.949 . S
C240 C248 1.574 . S
C240 C256 1.368 . S
H241 C249 0.950 . S
H242 C247 0.950 . S
H243 C248 0.949 . S
H244 C250 0.950 . S
H245 C251 0.950 . S
H246 C252 0.949 . S
C247 H242 0.950 . S
C247 C249 1.327 . S
C247 C253 1.429 . S
C248 C240 1.574 . S
C248 H243 0.949 . S
C248 C254 1.368 . S
C249 C233 1.349 . S
C249 H241 0.950 . S
C249 C247 1.327 . S
C250 C238 1.349 . S
C250 H244 0.950 . S
C250 C251 1.327 . S
C251 H245 0.950 . S
C251 C250 1.327 . S
C251 C255 1.429 . S
C252 C235 1.574 . S
C252 H246 0.949 . S
C252 C256 1.368 . S
C253 C234 1.429 . S
C253 C247 1.429 . S
C253 C254 1.523 . S
C254 C235 1.368 . S
C254 C248 1.368 . S
C254 C253 1.523 . S
C255 C239 1.429 . S
C255 C251 1.429 . S
C255 C256 1.523 . S
C256 C240 1.368 . S
C256 C252 1.368 . S
C256 C255 1.523 . S
H257 C232 0.950 . S
H258 C234 0.950 . S
H259 C235 0.949 . S
H260 C237 0.950 . S
H261 C239 0.950 . S
C262 C263 1.349 . S
C262 C264 1.327 . S
C262 H287 0.950 . S
C263 C262 1.349 . S
C263 C279 1.349 . S
C264 C262 1.327 . S
C264 C283 1.429 . S
C264 H288 0.950 . S
C265 C282 1.574 . S
C265 C284 1.368 . S
C265 H289 0.949 . S
H266 C270 0.949 . S
C267 C268 1.349 . S
C267 C269 1.327 . S
C267 H290 0.950 . S
C268 C267 1.349 . S
C268 C280 1.349 . S
C269 C267 1.327 . S
C269 C285 1.429 . S
C269 H291 0.950 . S
C270 H266 0.949 . S
C270 C278 1.574 . S
C270 C286 1.368 . S
H271 C279 0.950 . S
H272 C277 0.950 . S
H273 C278 0.949 . S
H274 C280 0.950 . S
H275 C281 0.950 . S
H276 C282 0.949 . S
C277 H272 0.950 . S
C277 C279 1.327 . S
C277 C283 1.429 . S
C278 C270 1.574 . S
C278 H273 0.949 . S
C278 C284 1.368 . S
C279 C263 1.349 . S
C279 H271 0.950 . S
C279 C277 1.327 . S
C280 C268 1.349 . S
C280 H274 0.950 . S
C280 C281 1.327 . S
C281 H275 0.950 . S
C281 C280 1.327 . S
C281 C285 1.429 . S
C282 C265 1.574 . S
C282 H276 0.949 . S
C282 C286 1.368 . S
C283 C264 1.429 . S
C283 C277 1.429 . S
C283 C284 1.523 . S
C284 C265 1.368 . S
C284 C278 1.368 . S
C284 C283 1.523 . S
C285 C269 1.429 . S
C285 C281 1.429 . S
C285 C286 1.523 . S
C286 C270 1.368 . S
C286 C282 1.368 . S
C286 C285 1.523 . S
H287 C262 0.950 . S
H288 C264 0.950 . S
H289 C265 0.949 . S
H290 C267 0.950 . S
H291 C269 0.950 . S
C292 C293 1.349 . S
C292 C294 1.327 . S
C292 H317 0.950 . S
C293 C292 1.349 . S
C293 C309 1.349 . S
C294 C292 1.327 . S
C294 C313 1.429 . S
C294 H318 0.950 . S
C295 C312 1.574 . S
C295 C314 1.368 . S
C295 H319 0.949 . S
H296 C300 0.949 . S
C297 C298 1.349 . S
C297 C299 1.327 . S
C297 H320 0.950 . S
C298 C297 1.349 . S
C298 C310 1.349 . S
C299 C297 1.327 . S
C299 C315 1.429 . S
C299 H321 0.950 . S
C300 H296 0.949 . S
C300 C308 1.574 . S
C300 C316 1.368 . S
H301 C309 0.950 . S
H302 C307 0.950 . S
H303 C308 0.949 . S
H304 C310 0.950 . S
H305 C311 0.950 . S
H306 C312 0.949 . S
C307 H302 0.950 . S
C307 C309 1.327 . S
C307 C313 1.429 . S
C308 C300 1.574 . S
C308 H303 0.949 . S
C308 C314 1.368 . S
C309 C293 1.349 . S
C309 H301 0.950 . S
C309 C307 1.327 . S
C310 C298 1.349 . S
C310 H304 0.950 . S
C310 C311 1.327 . S
C311 H305 0.950 . S
C311 C310 1.327 . S
C311 C315 1.429 . S
C312 C295 1.574 . S
C312 H306 0.949 . S
C312 C316 1.368 . S
C313 C294 1.429 . S
C313 C307 1.429 . S
C313 C314 1.523 . S
C314 C295 1.368 . S
C314 C308 1.368 . S
C314 C313 1.523 . S
C315 C299 1.429 . S
C315 C311 1.429 . S
C315 C316 1.523 . S
C316 C300 1.368 . S
C316 C312 1.368 . S
C316 C315 1.523 . S
H317 C292 0.950 . S
H318 C294 0.950 . S
H319 C295 0.949 . S
H320 C297 0.950 . S
H321 C299 0.950 . S
C322 C323 1.349 . S
C322 C324 1.327 . S
C322 H347 0.950 . S
C323 C322 1.349 . S
C323 C339 1.349 . S
C324 C322 1.327 . S
C324 C343 1.429 . S
C324 H348 0.950 . S
C325 C342 1.574 . S
C325 C344 1.368 . S
C325 H349 0.949 . S
H326 C330 0.949 . S
C327 C328 1.349 . S
C327 C329 1.327 . S
C327 H350 0.950 . S
C328 C327 1.349 . S
C328 C340 1.349 . S
C329 C327 1.327 . S
C329 C345 1.429 . S
C329 H351 0.950 . S
C330 H326 0.949 . S
C330 C338 1.574 . S
C330 C346 1.368 . S
H331 C339 0.950 . S
H332 C337 0.950 . S
H333 C338 0.949 . S
H334 C340 0.950 . S
H335 C341 0.950 . S
H336 C342 0.949 . S
C337 H332 0.950 . S
C337 C339 1.327 . S
C337 C343 1.429 . S
C338 C330 1.574 . S
C338 H333 0.949 . S
C338 C344 1.368 . S
C339 C323 1.349 . S
C339 H331 0.950 . S
C339 C337 1.327 . S
C340 C328 1.349 . S
C340 H334 0.950 . S
C340 C341 1.327 . S
C341 H335 0.950 . S
C341 C340 1.327 . S
C341 C345 1.429 . S
C342 C325 1.574 . S
C342 H336 0.949 . S
C342 C346 1.368 . S
C343 C324 1.429 . S
C343 C337 1.429 . S
C343 C344 1.523 . S
C344 C325 1.368 . S
C344 C338 1.368 . S
C344 C343 1.523 . S
C345 C329 1.429 . S
C345 C341 1.429 . S
C345 C346 1.523 . S
C346 C330 1.368 . S
C346 C342 1.368 . S
C346 C345 1.523 . S
H347 C322 0.950 . S
H348 C324 0.950 . S
H349 C325 0.949 . S
H350 C327 0.950 . S
H351 C329 0.950 . S
C352 C353 1.349 . S
C352 C354 1.327 . S
C352 H377 0.950 . S
C353 C352 1.349 . S
C353 C369 1.349 . S
C354 C352 1.327 . S
C354 C373 1.429 . S
C354 H378 0.950 . S
C355 C372 1.574 . S
C355 C374 1.368 . S
C355 H379 0.949 . S
H356 C360 0.949 . S
C357 C358 1.349 . S
C357 C359 1.327 . S
C357 H380 0.950 . S
C358 C357 1.349 . S
C358 C370 1.349 . S
C359 C357 1.327 . S
C359 C375 1.429 . S
C359 H381 0.950 . S
C360 H356 0.949 . S
C360 C368 1.574 . S
C360 C376 1.368 . S
H361 C369 0.950 . S
H362 C367 0.950 . S
H363 C368 0.949 . S
H364 C370 0.950 . S
H365 C371 0.950 . S
H366 C372 0.949 . S
C367 H362 0.950 . S
C367 C369 1.327 . S
C367 C373 1.429 . S
C368 C360 1.574 . S
C368 H363 0.949 . S
C368 C374 1.368 . S
C369 C353 1.349 . S
C369 H361 0.950 . S
C369 C367 1.327 . S
C370 C358 1.349 . S
C370 H364 0.950 . S
C370 C371 1.327 . S
C371 H365 0.950 . S
C371 C370 1.327 . S
C371 C375 1.429 . S
C372 C355 1.574 . S
C372 H366 0.949 . S
C372 C376 1.368 . S
C373 C354 1.429 . S
C373 C367 1.429 . S
C373 C374 1.523 . S
C374 C355 1.368 . S
C374 C368 1.368 . S
C374 C373 1.523 . S
C375 C359 1.429 . S
C375 C371 1.429 . S
C375 C376 1.523 . S
C376 C360 1.368 . S
C376 C372 1.368 . S
C376 C375 1.523 . S
H377 C352 0.950 . S
H378 C354 0.950 . S
H379 C355 0.949 . S
H380 C357 0.950 . S
H381 C359 0.950 . S
C382 C383 1.349 . S
C382 C384 1.327 . S
C382 H407 0.950 . S
C383 C382 1.349 . S
C383 C399 1.349 . S
C384 C382 1.327 . S
C384 C403 1.429 . S
C384 H408 0.950 . S
C385 C402 1.574 . S
C385 C404 1.368 . S
C385 H409 0.949 . S
H386 C390 0.949 . S
C387 C388 1.349 . S
C387 C389 1.327 . S
C387 H410 0.950 . S
C388 C387 1.349 . S
C388 C400 1.349 . S
C389 C387 1.327 . S
C389 C405 1.429 . S
C389 H411 0.950 . S
C390 H386 0.949 . S
C390 C398 1.574 . S
C390 C406 1.368 . S
H391 C399 0.950 . S
H392 C397 0.950 . S
H393 C398 0.949 . S
H394 C400 0.950 . S
H395 C401 0.950 . S
H396 C402 0.949 . S
C397 H392 0.950 . S
C397 C399 1.327 . S
C397 C403 1.429 . S
C398 C390 1.574 . S
C398 H393 0.949 . S
C398 C404 1.368 . S
C399 C383 1.349 . S
C399 H391 0.950 . S
C399 C397 1.327 . S
C400 C388 1.349 . S
C400 H394 0.950 . S
C400 C401 1.327 . S
C401 H395 0.950 . S
C401 C400 1.327 . S
C401 C405 1.429 . S
C402 C385 1.574 . S
C402 H396 0.949 . S
C402 C406 1.368 . S
C403 C384 1.429 . S
C403 C397 1.429 . S
C403 C404 1.523 . S
C404 C385 1.368 . S
C404 C398 1.368 . S
C404 C403 1.523 . S
C405 C389 1.429 . S
C405 C401 1.429 . S
C405 C406 1.523 . S
C406 C390 1.368 . S
C406 C402 1.368 . S
C406 C405 1.523 . S
H407 C382 0.950 . S
H408 C384 0.950 . S
H409 C385 0.949 . S
H410 C387 0.950 . S
H411 C389 0.950 . S
C412 C413 1.349 . S
C412 C414 1.327 . S
C412 H437 0.950 . S
C413 C412 1.349 . S
C413 C429 1.349 . S
C414 C412 1.327 . S
C414 C433 1.429 . S
C414 H438 0.950 . S
C415 C432 1.574 . S
C415 C434 1.368 . S
C415 H439 0.949 . S
H416 C420 0.949 . S
C417 C418 1.349 . S
C417 C419 1.327 . S
C417 H440 0.950 . S
C418 C417 1.349 . S
C418 C430 1.349 . S
C419 C417 1.327 . S
C419 C435 1.429 . S
C419 H441 0.950 . S
C420 H416 0.949 . S
C420 C428 1.574 . S
C420 C436 1.368 . S
H421 C429 0.950 . S
H422 C427 0.950 . S
H423 C428 0.949 . S
H424 C430 0.950 . S
H425 C431 0.950 . S
H426 C432 0.949 . S
C427 H422 0.950 . S
C427 C429 1.327 . S
C427 C433 1.429 . S
C428 C420 1.574 . S
C428 H423 0.949 . S
C428 C434 1.368 . S
C429 C413 1.349 . S
C429 H421 0.950 . S
C429 C427 1.327 . S
C430 C418 1.349 . S
C430 H424 0.950 . S
C430 C431 1.327 . S
C431 H425 0.950 . S
C431 C430 1.327 . S
C431 C435 1.429 . S
C432 C415 1.574 . S
C432 H426 0.949 . S
C432 C436 1.368 . S
C433 C414 1.429 . S
C433 C427 1.429 . S
C433 C434 1.523 . S
C434 C415 1.368 . S
C434 C428 1.368 . S
C434 C433 1.523 . S
C435 C419 1.429 . S
C435 C431 1.429 . S
C435 C436 1.523 . S
C436 C420 1.368 . S
C436 C432 1.368 . S
C436 C435 1.523 . S
H437 C412 0.950 . S
H438 C414 0.950 . S
H439 C415 0.949 . S
H440 C417 0.950 . S
H441 C419 0.950 . S
C442 C443 1.349 . S
C442 C444 1.327 . S
C442 H467 0.950 . S
C443 C442 1.349 . S
C443 C459 1.349 . S
C444 C442 1.327 . S
C444 C463 1.429 . S
C444 H468 0.950 . S
C445 C462 1.574 . S
C445 C464 1.368 . S
C445 H469 0.949 . S
H446 C450 0.949 . S
C447 C448 1.349 . S
C447 C449 1.327 . S
C447 H470 0.950 . S
C448 C447 1.349 . S
C448 C460 1.349 . S
C449 C447 1.327 . S
C449 C465 1.429 . S
C449 H471 0.950 . S
C450 H446 0.949 . S
C450 C458 1.574 . S
C450 C466 1.368 . S
H451 C459 0.950 . S
H452 C457 0.950 . S
H453 C458 0.949 . S
H454 C460 0.950 . S
H455 C461 0.950 . S
H456 C462 0.949 . S
C457 H452 0.950 . S
C457 C459 1.327 . S
C457 C463 1.429 . S
C458 C450 1.574 . S
C458 H453 0.949 . S
C458 C464 1.368 . S
C459 C443 1.349 . S
C459 H451 0.950 . S
C459 C457 1.327 . S
C460 C448 1.349 . S
C460 H454 0.950 . S
C460 C461 1.327 . S
C461 H455 0.950 . S
C461 C460 1.327 . S
C461 C465 1.429 . S
C462 C445 1.574 . S
C462 H456 0.949 . S
C462 C466 1.368 . S
C463 C444 1.429 . S
C463 C457 1.429 . S
C463 C464 1.523 . S
C464 C445 1.368 . S
C464 C458 1.368 . S
C464 C463 1.523 . S
C465 C449 1.429 . S
C465 C461 1.429 . S
C465 C466 1.523 . S
C466 C450 1.368 . S
C466 C462 1.368 . S
C466 C465 1.523 . S
H467 C442 0.950 . S
H468 C444 0.950 . S
H469 C445 0.949 . S
H470 C447 0.950 . S
H471 C449 0.950 . S
C472 C473 1.349 . S
C472 C474 1.327 . S
C472 H497 0.950 . S
C473 C472 1.349 . S
C473 C489 1.349 . S
C474 C472 1.327 . S
C474 C493 1.429 . S
C474 H498 0.950 . S
C475 C492 1.574 . S
C475 C494 1.368 . S
C475 H499 0.949 . S
H476 C480 0.949 . S
C477 C478 1.349 . S
C477 C479 1.327 . S
C477 H500 0.950 . S
C478 C477 1.349 . S
C478 C490 1.349 . S
C479 C477 1.327 . S
C479 C495 1.429 . S
C479 H501 0.950 . S
C480 H476 0.949 . S
C480 C488 1.574 . S
C480 C496 1.368 . S
H481 C489 0.950 . S
H482 C487 0.950 . S
H483 C488 0.949 . S
H484 C490 0.950 . S
H485 C491 0.950 . S
H486 C492 0.949 . S
C487 H482 0.950 . S
C487 C489 1.327 . S
C487 C493 1.429 . S
C488 C480 1.574 . S
C488 H483 0.949 . S
C488 C494 1.368 . S
C489 C473 1.349 . S
C489 H481 0.950 . S
C489 C487 1.327 . S
C490 C478 1.349 . S
C490 H484 0.950 . S
C490 C491 1.327 . S
C491 H485 0.950 . S
C491 C490 1.327 . S
C491 C495 1.429 . S
C492 C475 1.574 . S
C492 H486 0.949 . S
C492 C496 1.368 . S
C493 C474 1.429 . S
C493 C487 1.429 . S
C493 C494 1.523 . S
C494 C475 1.368 . S
C494 C488 1.368 . S
C494 C493 1.523 . S
C495 C479 1.429 . S
C495 C491 1.429 . S
C495 C496 1.523 . S
C496 C480 1.368 . S
C496 C492 1.368 . S
C496 C495 1.523 . S
H497 C472 0.950 . S
H498 C474 0.950 . S
H499 C475 0.949 . S
H500 C477 0.950 . S
H501 C479 0.950 . S
C502 C503 1.349 . S
C502 C504 1.327 . S
C502 H527 0.950 . S
C503 C502 1.349 . S
C503 C519 1.349 . S
C504 C502 1.327 . S
C504 C523 1.429 . S
C504 H528 0.950 . S
C505 C522 1.574 . S
C505 C524 1.368 . S
C505 H529 0.949 . S
H506 C510 0.949 . S
C507 C508 1.349 . S
C507 C509 1.327 . S
C507 H530 0.950 . S
C508 C507 1.349 . S
C508 C520 1.349 . S
C509 C507 1.327 . S
C509 C525 1.429 . S
C509 H531 0.950 . S
C510 H506 0.949 . S
C510 C518 1.574 . S
C510 C526 1.368 . S
H511 C519 0.950 . S
H512 C517 0.950 . S
H513 C518 0.949 . S
H514 C520 0.950 . S
H515 C521 0.950 . S
H516 C522 0.949 . S
C517 H512 0.950 . S
C517 C519 1.327 . S
C517 C523 1.429 . S
C518 C510 1.574 . S
C518 H513 0.949 . S
C518 C524 1.368 . S
C519 C503 1.349 . S
C519 H511 0.950 . S
C519 C517 1.327 . S
C520 C508 1.349 . S
C520 H514 0.950 . S
C520 C521 1.327 . S
C521 H515 0.950 . S
C521 C520 1.327 . S
C521 C525 1.429 . S
C522 C505 1.574 . S
C522 H516 0.949 . S
C522 C526 1.368 . S
C523 C504 1.429 . S
C523 C517 1.429 . S
C523 C524 1.523 . S
C524 C505 1.368 . S
C524 C518 1.368 . S
C524 C523 1.523 . S
C525 C509 1.429 . S
C525 C521 1.429 . S
C525 C526 1.523 . S
C526 C510 1.368 . S
C526 C522 1.368 . S
C526 C525 1.523 . S
H527 C502 0.950 . S
H528 C504 0.950 . S
H529 C505 0.949 . S
H530 C507 0.950 . S
H531 C509 0.950 . S
C532 C533 1.349 . S
C532 C534 1.327 . S
C532 H557 0.950 . S
C533 C532 1.349 . S
C533 C549 1.349 . S
C534 C532 1.327 . S
C534 C553 1.429 . S
C534 H558 0.950 . S
C535 C552 1.574 . S
C535 C554 1.368 . S
C535 H559 0.949 . S
H536 C540 0.949 . S
C537 C538 1.349 . S
C537 C539 1.327 . S
C537 H560 0.950 . S
C538 C537 1.349 . S
C538 C550 1.349 . S
C539 C537 1.327 . S
C539 C555 1.429 . S
C539 H561 0.950 . S
C540 H536 0.949 . S
C540 C548 1.574 . S
C540 C556 1.368 . S
H541 C549 0.950 . S
H542 C547 0.950 . S
H543 C548 0.949 . S
H544 C550 0.950 . S
H545 C551 0.950 . S
H546 C552 0.949 . S
C547 H542 0.950 . S
C547 C549 1.327 . S
C547 C553 1.429 . S
C548 C540 1.574 . S
C548 H543 0.949 . S
C548 C554 1.368 . S
C549 C533 1.349 . S
C549 H541 0.950 . S
C549 C547 1.327 . S
C550 C538 1.349 . S
C550 H544 0.950 . S
C550 C551 1.327 . S
C551 H545 0.950 . S
C551 C550 1.327 . S
C551 C555 1.429 . S
C552 C535 1.574 . S
C552 H546 0.949 . S
C552 C556 1.368 . S
C553 C534 1.429 . S
C553 C547 1.429 . S
C553 C554 1.523 . S
C554 C535 1.368 . S
C554 C548 1.368 . S
C554 C553 1.523 . S
C555 C539 1.429 . S
C555 C551 1.429 . S
C555 C556 1.523 . S
C556 C540 1.368 . S
C556 C552 1.368 . S
C556 C555 1.523 . S
H557 C532 0.950 . S
H558 C534 0.950 . S
H559 C535 0.949 . S
H560 C537 0.950 . S
H561 C539 0.950 . S
C562 C563 1.349 . S
C562 C564 1.327 . S
C562 H587 0.950 . S
C563 C562 1.349 . S
C563 C579 1.349 . S
C564 C562 1.327 . S
C564 C583 1.429 . S
C564 H588 0.950 . S
C565 C582 1.574 . S
C565 C584 1.368 . S
C565 H589 0.949 . S
H566 C570 0.949 . S
C567 C568 1.349 . S
C567 C569 1.327 . S
C567 H590 0.950 . S
C568 C567 1.349 . S
C568 C580 1.349 . S
C569 C567 1.327 . S
C569 C585 1.429 . S
C569 H591 0.950 . S
C570 H566 0.949 . S
C570 C578 1.574 . S
C570 C586 1.368 . S
H571 C579 0.950 . S
H572 C577 0.950 . S
H573 C578 0.949 . S
H574 C580 0.950 . S
H575 C581 0.950 . S
H576 C582 0.949 . S
C577 H572 0.950 . S
C577 C579 1.327 . S
C577 C583 1.429 . S
C578 C570 1.574 . S
C578 H573 0.949 . S
C578 C584 1.368 . S
C579 C563 1.349 . S
C579 H571 0.950 . S
C579 C577 1.327 . S
C580 C568 1.349 . S
C580 H574 0.950 . S
C580 C581 1.327 . S
C581 H575 0.950 . S
C581 C580 1.327 . S
C581 C585 1.429 . S
C582 C565 1.574 . S
C582 H576 0.949 . S
C582 C586 1.368 . S
C583 C564 1.429 . S
C583 C577 1.429 . S
C583 C584 1.523 . S
C584 C565 1.368 . S
C584 C578 1.368 . S
C584 C583 1.523 . S
C585 C569 1.429 . S
C585 C581 1.429 . S
C585 C586 1.523 . S
C586 C570 1.368 . S
C586 C582 1.368 . S
C586 C585 1.523 . S
H587 C562 0.950 . S
H588 C564 0.950 . S
H589 C565 0.949 . S
H590 C567 0.950 . S
H591 C569 0.950 . S
C592 C593 1.349 . S
C592 C594 1.327 . S
C592 H617 0.950 . S
C593 C592 1.349 . S
C593 C609 1.349 . S
C594 C592 1.327 . S
C594 C613 1.429 . S
C594 H618 0.950 . S
C595 C612 1.574 . S
C595 C614 1.368 . S
C595 H619 0.949 . S
H596 C600 0.949 . S
C597 C598 1.349 . S
C597 C599 1.327 . S
C597 H620 0.950 . S
C598 C597 1.349 . S
C598 C610 1.349 . S
C599 C597 1.327 . S
C599 C615 1.429 . S
C599 H621 0.950 . S
C600 H596 0.949 . S
C600 C608 1.574 . S
C600 C616 1.368 . S
H601 C609 0.950 . S
H602 C607 0.950 . S
H603 C608 0.949 . S
H604 C610 0.950 . S
H605 C611 0.950 . S
H606 C612 0.949 . S
C607 H602 0.950 . S
C607 C609 1.327 . S
C607 C613 1.429 . S
C608 C600 1.574 . S
C608 H603 0.949 . S
C608 C614 1.368 . S
C609 C593 1.349 . S
C609 H601 0.950 . S
C609 C607 1.327 . S
C610 C598 1.349 . S
C610 H604 0.950 . S
C610 C611 1.327 . S
C611 H605 0.950 . S
C611 C610 1.327 . S
C611 C615 1.429 . S
C612 C595 1.574 . S
C612 H606 0.949 . S
C612 C616 1.368 . S
C613 C594 1.429 . S
C613 C607 1.429 . S
C613 C614 1.523 . S
C614 C595 1.368 . S
C614 C608 1.368 . S
C614 C613 1.523 . S
C615 C599 1.429 . S
C615 C611 1.429 . S
C615 C616 1.523 . S
C616 C600 1.368 . S
C616 C612 1.368 . S
C616 C615 1.523 . S
H617 C592 0.950 . S
H618 C594 0.950 . S
H619 C595 0.949 . S
H620 C597 0.950 . S
H621 C599 0.950 . S
C622 C623 1.349 . S
C622 C624 1.327 . S
C622 H647 0.950 . S
C623 C622 1.349 . S
C623 C639 1.349 . S
C624 C622 1.327 . S
C624 C643 1.429 . S
C624 H648 0.950 . S
C625 C642 1.574 . S
C625 C644 1.368 . S
C625 H649 0.949 . S
H626 C630 0.949 . S
C627 C628 1.349 . S
C627 C629 1.327 . S
C627 H650 0.950 . S
C628 C627 1.349 . S
C628 C640 1.349 . S
C629 C627 1.327 . S
C629 C645 1.429 . S
C629 H651 0.950 . S
C630 H626 0.949 . S
C630 C638 1.574 . S
C630 C646 1.368 . S
H631 C639 0.950 . S
H632 C637 0.950 . S
H633 C638 0.949 . S
H634 C640 0.950 . S
H635 C641 0.950 . S
H636 C642 0.949 . S
C637 H632 0.950 . S
C637 C639 1.327 . S
C637 C643 1.429 . S
C638 C630 1.574 . S
C638 H633 0.949 . S
C638 C644 1.368 . S
C639 C623 1.349 . S
C639 H631 0.950 . S
C639 C637 1.327 . S
C640 C628 1.349 . S
C640 H634 0.950 . S
C640 C641 1.327 . S
C641 H635 0.950 . S
C641 C640 1.327 . S
C641 C645 1.429 . S
C642 C625 1.574 . S
C642 H636 0.949 . S
C642 C646 1.368 . S
C643 C624 1.429 . S
C643 C637 1.429 . S
C643 C644 1.523 . S
C644 C625 1.368 . S
C644 C638 1.368 . S
C644 C643 1.523 . S
C645 C629 1.429 . S
C645 C641 1.429 . S
C645 C646 1.523 . S
C646 C630 1.368 . S
C646 C642 1.368 . S
C646 C645 1.523 . S
H647 C622 0.950 . S
H648 C624 0.950 . S
H649 C625 0.949 . S
H650 C627 0.950 . S
H651 C629 0.950 . S
C652 C653 1.349 . S
C652 C654 1.327 . S
C652 H677 0.950 . S
C653 C652 1.349 . S
C653 C669 1.349 . S
C654 C652 1.327 . S
C654 C673 1.429 . S
C654 H678 0.950 . S
C655 C672 1.574 . S
C655 C674 1.368 . S
C655 H679 0.949 . S
H656 C660 0.949 . S
C657 C658 1.349 . S
C657 C659 1.327 . S
C657 H680 0.950 . S
C658 C657 1.349 . S
C658 C670 1.349 . S
C659 C657 1.327 . S
C659 C675 1.429 . S
C659 H681 0.950 . S
C660 H656 0.949 . S
C660 C668 1.574 . S
C660 C676 1.368 . S
H661 C669 0.950 . S
H662 C667 0.950 . S
H663 C668 0.949 . S
H664 C670 0.950 . S
H665 C671 0.950 . S
H666 C672 0.949 . S
C667 H662 0.950 . S
C667 C669 1.327 . S
C667 C673 1.429 . S
C668 C660 1.574 . S
C668 H663 0.949 . S
C668 C674 1.368 . S
C669 C653 1.349 . S
C669 H661 0.950 . S
C669 C667 1.327 . S
C670 C658 1.349 . S
C670 H664 0.950 . S
C670 C671 1.327 . S
C671 H665 0.950 . S
C671 C670 1.327 . S
C671 C675 1.429 . S
C672 C655 1.574 . S
C672 H666 0.949 . S
C672 C676 1.368 . S
C673 C654 1.429 . S
C673 C667 1.429 . S
C673 C674 1.523 . S
C674 C655 1.368 . S
C674 C668 1.368 . S
C674 C673 1.523 . S
C675 C659 1.429 . S
C675 C671 1.429 . S
C675 C676 1.523 . S
C676 C660 1.368 . S
C676 C672 1.368 . S
C676 C675 1.523 . S
H677 C652 0.950 . S
H678 C654 0.950 . S
H679 C655 0.949 . S
H680 C657 0.950 . S
H681 C659 0.950 . S
C682 C683 1.349 . S
C682 C684 1.327 . S
C682 H707 0.950 . S
C683 C682 1.349 . S
C683 C699 1.349 . S
C684 C682 1.327 . S
C684 C703 1.429 . S
C684 H708 0.950 . S
C685 C702 1.574 . S
C685 C704 1.368 . S
C685 H709 0.949 . S
H686 C690 0.949 . S
C687 C688 1.349 . S
C687 C689 1.327 . S
C687 H710 0.950 . S
C688 C687 1.349 . S
C688 C700 1.349 . S
C689 C687 1.327 . S
C689 C705 1.429 . S
C689 H711 0.950 . S
C690 H686 0.949 . S
C690 C698 1.574 . S
C690 C706 1.368 . S
H691 C699 0.950 . S
H692 C697 0.950 . S
H693 C698 0.949 . S
H694 C700 0.950 . S
H695 C701 0.950 . S
H696 C702 0.949 . S
C697 H692 0.950 . S
C697 C699 1.327 . S
C697 C703 1.429 . S
C698 C690 1.574 . S
C698 H693 0.949 . S
C698 C704 1.368 . S
C699 C683 1.349 . S
C699 H691 0.950 . S
C699 C697 1.327 . S
C700 C688 1.349 . S
C700 H694 0.950 . S
C700 C701 1.327 . S
C701 H695 0.950 . S
C701 C700 1.327 . S
C701 C705 1.429 . S
C702 C685 1.574 . S
C702 H696 0.949 . S
C702 C706 1.368 . S
C703 C684 1.429 . S
C703 C697 1.429 . S
C703 C704 1.523 . S
C704 C685 1.368 . S
C704 C698 1.368 . S
C704 C703 1.523 . S
C705 C689 1.429 . S
C705 C701 1.429 . S
C705 C706 1.523 . S
C706 C690 1.368 . S
C706 C702 1.368 . S
C706 C705 1.523 . S
H707 C682 0.950 . S
H708 C684 0.950 . S
H709 C685 0.949 . S
H710 C687 0.950 . S
H711 C689 0.950 . S
C712 C713 1.349 . S
C712 C714 1.327 . S
C712 H737 0.950 . S
C713 C712 1.349 . S
C713 C729 1.349 . S
C714 C712 1.327 . S
C714 C733 1.429 . S
C714 H738 0.950 . S
C715 C732 1.574 . S
C715 C734 1.368 . S
C715 H739 0.949 . S
H716 C720 0.949 . S
C717 C718 1.349 . S
C717 C719 1.327 . S
C717 H740 0.950 . S
C718 C717 1.349 . S
C718 C730 1.349 . S
C719 C717 1.327 . S
C719 C735 1.429 . S
C719 H741 0.950 . S
C720 H716 0.949 . S
C720 C728 1.574 . S
C720 C736 1.368 . S
H721 C729 0.950 . S
H722 C727 0.950 . S
H723 C728 0.949 . S
H724 C730 0.950 . S
H725 C731 0.950 . S
H726 C732 0.949 . S
C727 H722 0.950 . S
C727 C729 1.327 . S
C727 C733 1.429 . S
C728 C720 1.574 . S
C728 H723 0.949 . S
C728 C734 1.368 . S
C729 C713 1.349 . S
C729 H721 0.950 . S
C729 C727 1.327 . S
C730 C718 1.349 . S
C730 H724 0.950 . S
C730 C731 1.327 . S
C731 H725 0.950 . S
C731 C730 1.327 . S
C731 C735 1.429 . S
C732 C715 1.574 . S
C732 H726 0.949 . S
C732 C736 1.368 . S
C733 C714 1.429 . S
C733 C727 1.429 . S
C733 C734 1.523 . S
C734 C715 1.368 . S
C734 C728 1.368 . S
C734 C733 1.523 . S
C735 C719 1.429 . S
C735 C731 1.429 . S
C735 C736 1.523 . S
C736 C720 1.368 . S
C736 C732 1.368 . S
C736 C735 1.523 . S
H737 C712 0.950 . S
H738 C714 0.950 . S
H739 C715 0.949 . S
H740 C717 0.950 . S
H741 C719 0.950 . S
C742 C743 1.349 . S
C742 C744 1.327 . S
C742 H767 0.950 . S
C743 C742 1.349 . S
C743 C759 1.349 . S
C744 C742 1.327 . S
C744 C763 1.429 . S
C744 H768 0.950 . S
C745 C762 1.574 . S
C745 C764 1.368 . S
C745 H769 0.949 . S
H746 C750 0.949 . S
C747 C748 1.349 . S
C747 C749 1.327 . S
C747 H770 0.950 . S
C748 C747 1.349 . S
C748 C760 1.349 . S
C749 C747 1.327 . S
C749 C765 1.429 . S
C749 H771 0.950 . S
C750 H746 0.949 . S
C750 C758 1.574 . S
C750 C766 1.368 . S
H751 C759 0.950 . S
H752 C757 0.950 . S
H753 C758 0.949 . S
H754 C760 0.950 . S
H755 C761 0.950 . S
H756 C762 0.949 . S
C757 H752 0.950 . S
C757 C759 1.327 . S
C757 C763 1.429 . S
C758 C750 1.574 . S
C758 H753 0.949 . S
C758 C764 1.368 . S
C759 C743 1.349 . S
C759 H751 0.950 . S
C759 C757 1.327 . S
C760 C748 1.349 . S
C760 H754 0.950 . S
C760 C761 1.327 . S
C761 H755 0.950 . S
C761 C760 1.327 . S
C761 C765 1.429 . S
C762 C745 1.574 . S
C762 H756 0.949 . S
C762 C766 1.368 . S
C763 C744 1.429 . S
C763 C757 1.429 . S
C763 C764 1.523 . S
C764 C745 1.368 . S
C764 C758 1.368 . S
C764 C763 1.523 . S
C765 C749 1.429 . S
C765 C761 1.429 . S
C765 C766 1.523 . S
C766 C750 1.368 . S
C766 C762 1.368 . S
C766 C765 1.523 . S
H767 C742 0.950 . S
H768 C744 0.950 . S
H769 C745 0.949 . S
H770 C747 0.950 . S
H771 C749 0.950 . S
C772 C773 1.349 . S
C772 C774 1.327 . S
C772 H797 0.950 . S
C773 C772 1.349 . S
C773 C789 1.349 . S
C774 C772 1.327 . S
C774 C793 1.429 . S
C774 H798 0.950 . S
C775 C792 1.574 . S
C775 C794 1.368 . S
C775 H799 0.949 . S
H776 C780 0.949 . S
C777 C778 1.349 . S
C777 C779 1.327 . S
C777 H800 0.950 . S
C778 C777 1.349 . S
C778 C790 1.349 . S
C779 C777 1.327 . S
C779 C795 1.429 . S
C779 H801 0.950 . S
C780 H776 0.949 . S
C780 C788 1.574 . S
C780 C796 1.368 . S
H781 C789 0.950 . S
H782 C787 0.950 . S
H783 C788 0.949 . S
H784 C790 0.950 . S
H785 C791 0.950 . S
H786 C792 0.949 . S
C787 H782 0.950 . S
C787 C789 1.327 . S
C787 C793 1.429 . S
C788 C780 1.574 . S
C788 H783 0.949 . S
C788 C794 1.368 . S
C789 C773 1.349 . S
C789 H781 0.950 . S
C789 C787 1.327 . S
C790 C778 1.349 . S
C790 H784 0.950 . S
C790 C791 1.327 . S
C791 H785 0.950 . S
C791 C790 1.327 . S
C791 C795 1.429 . S
C792 C775 1.574 . S
C792 H786 0.949 . S
C792 C796 1.368 . S
C793 C774 1.429 . S
C793 C787 1.429 . S
C793 C794 1.523 . S
C794 C775 1.368 . S
C794 C788 1.368 . S
C794 C793 1.523 . S
C795 C779 1.429 . S
C795 C791 1.429 . S
C795 C796 1.523 . S
C796 C780 1.368 . S
C796 C792 1.368 . S
C796 C795 1.523 . S
H797 C772 0.950 . S
H798 C774 0.950 . S
H799 C775 0.949 . S
H800 C777 0.950 . S
H801 C779 0.950 . S
C802 C803 1.349 . S
C802 C804 1.327 . S
C802 H827 0.950 . S
C803 C802 1.349 . S
C803 C819 1.349 . S
C804 C802 1.327 . S
C804 C823 1.429 . S
C804 H828 0.950 . S
C805 C822 1.574 . S
C805 C824 1.368 . S
C805 H829 0.949 . S
H806 C810 0.949 . S
C807 C808 1.349 . S
C807 C809 1.327 . S
C807 H830 0.950 . S
C808 C807 1.349 . S
C808 C820 1.349 . S
C809 C807 1.327 . S
C809 C825 1.429 . S
C809 H831 0.950 . S
C810 H806 0.949 . S
C810 C818 1.574 . S
C810 C826 1.368 . S
H811 C819 0.950 . S
H812 C817 0.950 . S
H813 C818 0.949 . S
H814 C820 0.950 . S
H815 C821 0.950 . S
H816 C822 0.949 . S
C817 H812 0.950 . S
C817 C819 1.327 . S
C817 C823 1.429 . S
C818 C810 1.574 . S
C818 H813 0.949 . S
C818 C824 1.368 . S
C819 C803 1.349 . S
C819 H811 0.950 . S
C819 C817 1.327 . S
C820 C808 1.349 . S
C820 H814 0.950 . S
C820 C821 1.327 . S
C821 H815 0.950 . S
C821 C820 1.327 . S
C821 C825 1.429 . S
C822 C805 1.574 . S
C822 H816 0.949 . S
C822 C826 1.368 . S
C823 C804 1.429 . S
C823 C817 1.429 . S
C823 C824 1.523 . S
C824 C805 1.368 . S
C824 C818 1.368 . S
C824 C823 1.523 . S
C825 C809 1.429 . S
C825 C821 1.429 . S
C825 C826 1.523 . S
C826 C810 1.368 . S
C826 C822 1.368 . S
C826 C825 1.523 . S
H827 C802 0.950 . S
H828 C804 0.950 . S
H829 C805 0.949 . S
H830 C807 0.950 . S
H831 C809 0.950 . S
C832 C833 1.349 . S
C832 C834 1.327 . S
C832 H857 0.950 . S
C833 C832 1.349 . S
C833 C849 1.349 . S
C834 C832 1.327 . S
C834 C853 1.429 . S
C834 H858 0.950 . S
C835 C852 1.574 . S
C835 C854 1.368 . S
C835 H859 0.949 . S
H836 C840 0.949 . S
C837 C838 1.349 . S
C837 C839 1.327 . S
C837 H860 0.950 . S
C838 C837 1.349 . S
C838 C850 1.349 . S
C839 C837 1.327 . S
C839 C855 1.429 . S
C839 H861 0.950 . S
C840 H836 0.949 . S
C840 C848 1.574 . S
C840 C856 1.368 . S
H841 C849 0.950 . S
H842 C847 0.950 . S
H843 C848 0.949 . S
H844 C850 0.950 . S
H845 C851 0.950 . S
H846 C852 0.949 . S
C847 H842 0.950 . S
C847 C849 1.327 . S
C847 C853 1.429 . S
C848 C840 1.574 . S
C848 H843 0.949 . S
C848 C854 1.368 . S
C849 C833 1.349 . S
C849 H841 0.950 . S
C849 C847 1.327 . S
C850 C838 1.349 . S
C850 H844 0.950 . S
C850 C851 1.327 . S
C851 H845 0.950 . S
C851 C850 1.327 . S
C851 C855 1.429 . S
C852 C835 1.574 . S
C852 H846 0.949 . S
C852 C856 1.368 . S
C853 C834 1.429 . S
C853 C847 1.429 . S
C853 C854 1.523 . S
C854 C835 1.368 . S
C854 C848 1.368 . S
C854 C853 1.523 . S
C855 C839 1.429 . S
C855 C851 1.429 . S
C855 C856 1.523 . S
C856 C840 1.368 . S
C856 C852 1.368 . S
C856 C855 1.523 . S
H857 C832 0.950 . S
H858 C834 0.950 . S
H859 C835 0.949 . S
H860 C837 0.950 . S
H861 C839 0.950 . S
C862 C863 1.349 . S
C862 C864 1.327 . S
C862 H887 0.950 . S
C863 C862 1.349 . S
C863 C879 1.349 . S
C864 C862 1.327 . S
C864 C883 1.429 . S
C864 H888 0.950 . S
C865 C882 1.574 . S
C865 C884 1.368 . S
C865 H889 0.949 . S
H866 C870 0.949 . S
C867 C868 1.349 . S
C867 C869 1.327 . S
C867 H890 0.950 . S
C868 C867 1.349 . S
C868 C880 1.349 . S
C869 C867 1.327 . S
C869 C885 1.429 . S
C869 H891 0.950 . S
C870 H866 0.949 . S
C870 C878 1.574 . S
C870 C886 1.368 . S
H871 C879 0.950 . S
H872 C877 0.950 . S
H873 C878 0.949 . S
H874 C880 0.950 . S
H875 C881 0.950 . S
H876 C882 0.949 . S
C877 H872 0.950 . S
C877 C879 1.327 . S
C877 C883 1.429 . S
C878 C870 1.574 . S
C878 H873 0.949 . S
C878 C884 1.368 . S
C879 C863 1.349 . S
C879 H871 0.950 . S
C879 C877 1.327 . S
C880 C868 1.349 . S
C880 H874 0.950 . S
C880 C881 1.327 . S
C881 H875 0.950 . S
C881 C880 1.327 . S
C881 C885 1.429 . S
C882 C865 1.574 . S
C882 H876 0.949 . S
C882 C886 1.368 . S
C883 C864 1.429 . S
C883 C877 1.429 . S
C883 C884 1.523 . S
C884 C865 1.368 . S
C884 C878 1.368 . S
C884 C883 1.523 . S
C885 C869 1.429 . S
C885 C881 1.429 . S
C885 C886 1.523 . S
C886 C870 1.368 . S
C886 C882 1.368 . S
C886 C885 1.523 . S
H887 C862 0.950 . S
H888 C864 0.950 . S
H889 C865 0.949 . S
H890 C867 0.950 . S
H891 C869 0.950 . S
C892 C893 1.349 . S
C892 C894 1.327 . S
C892 H917 0.950 . S
C893 C892 1.349 . S
C893 C909 1.349 . S
C894 C892 1.327 . S
C894 C913 1.429 . S
C894 H918 0.950 . S
C895 C912 1.574 . S
C895 C914 1.368 . S
C895 H919 0.949 . S
H896 C900 0.949 . S
C897 C898 1.349 . S
C897 C899 1.327 . S
C897 H920 0.950 . S
C898 C897 1.349 . S
C898 C910 1.349 . S
C899 C897 1.327 . S
C899 C915 1.429 . S
C899 H921 0.950 . S
C900 H896 0.949 . S
C900 C908 1.574 . S
C900 C916 1.368 . S
H901 C909 0.950 . S
H902 C907 0.950 . S
H903 C908 0.949 . S
H904 C910 0.950 . S
H905 C911 0.950 . S
H906 C912 0.949 . S
C907 H902 0.950 . S
C907 C909 1.327 . S
C907 C913 1.429 . S
C908 C900 1.574 . S
C908 H903 0.949 . S
C908 C914 1.368 . S
C909 C893 1.349 . S
C909 H901 0.950 . S
C909 C907 1.327 . S
C910 C898 1.349 . S
C910 H904 0.950 . S
C910 C911 1.327 . S
C911 H905 0.950 . S
C911 C910 1.327 . S
C911 C915 1.429 . S
C912 C895 1.574 . S
C912 H906 0.949 . S
C912 C916 1.368 . S
C913 C894 1.429 . S
C913 C907 1.429 . S
C913 C914 1.523 . S
C914 C895 1.368 . S
C914 C908 1.368 . S
C914 C913 1.523 . S
C915 C899 1.429 . S
C915 C911 1.429 . S
C915 C916 1.523 . S
C916 C900 1.368 . S
C916 C912 1.368 . S
C916 C915 1.523 . S
H917 C892 0.950 . S
H918 C894 0.950 . S
H919 C895 0.949 . S
H920 C897 0.950 . S
H921 C899 0.950 . S
C922 C923 1.349 . S
C922 C924 1.327 . S
C922 H947 0.950 . S
C923 C922 1.349 . S
C923 C939 1.349 . S
C924 C922 1.327 . S
C924 C943 1.429 . S
C924 H948 0.950 . S
C925 C942 1.574 . S
C925 C944 1.368 . S
C925 H949 0.949 . S
H926 C930 0.949 . S
C927 C928 1.349 . S
C927 C929 1.327 . S
C927 H950 0.950 . S
C928 C927 1.349 . S
C928 C940 1.349 . S
C929 C927 1.327 . S
C929 C945 1.429 . S
C929 H951 0.950 . S
C930 H926 0.949 . S
C930 C938 1.574 . S
C930 C946 1.368 . S
H931 C939 0.950 . S
H932 C937 0.950 . S
H933 C938 0.949 . S
H934 C940 0.950 . S
H935 C941 0.950 . S
H936 C942 0.949 . S
C937 H932 0.950 . S
C937 C939 1.327 . S
C937 C943 1.429 . S
C938 C930 1.574 . S
C938 H933 0.949 . S
C938 C944 1.368 . S
C939 C923 1.349 . S
C939 H931 0.950 . S
C939 C937 1.327 . S
C940 C928 1.349 . S
C940 H934 0.950 . S
C940 C941 1.327 . S
C941 H935 0.950 . S
C941 C940 1.327 . S
C941 C945 1.429 . S
C942 C925 1.574 . S
C942 H936 0.949 . S
C942 C946 1.368 . S
C943 C924 1.429 . S
C943 C937 1.429 . S
C943 C944 1.523 . S
C944 C925 1.368 . S
C944 C938 1.368 . S
C944 C943 1.523 . S
C945 C929 1.429 . S
C945 C941 1.429 . S
C945 C946 1.523 . S
C946 C930 1.368 . S
C946 C942 1.368 . S
C946 C945 1.523 . S
H947 C922 0.950 . S
H948 C924 0.950 . S
H949 C925 0.949 . S
H950 C927 0.950 . S
H951 C929 0.950 . S
C233 C5 0.845 . S
C238 C87 0.845 . S
C263 C14 1.416 . S
C268 C131 1.414 . S
C298 C161 2.047 . S
C293 C25 2.056 . S
C323 C34 2.778 . S
C328 C202 2.729 . S
C358 C118 0.640 . S
C353 C7 0.642 . S
C388 C82 2.404 . S
C383 C13 2.397 . S
C418 C210 1.095 . S
C413 C23 1.101 . S
C448 C171 2.110 . S
C443 C31 2.162 . S
C473 C4 0.699 . S
C478 C207 0.698 . S
C508 C121 1.947 . S
C503 C22 1.997 . S
C533 C32 2.062 . S
C538 C90 2.012 . S
C563 C16 1.793 . S
C568 C158 1.801 . S
C598 C78 0.830 . S
C593 C41 0.829 . S
C623 C50 1.428 . S
C628 C122 1.426 . S
C653 C61 2.054 . S
C658 C170 2.042 . S
C683 C67 2.791 . S
C688 C211 2.742 . S
C713 C40 0.660 . S
C718 C127 0.659 . S
C748 C91 2.379 . S
C743 C52 2.367 . S
C778 C201 1.102 . S
C773 C59 1.112 . S
C808 C162 2.111 . S
C803 C70 2.159 . S
C833 C43 0.691 . S
C838 C198 0.690 . S
C868 C130 1.964 . S
C863 C58 2.017 . S
C898 C81 1.994 . S
C893 C68 2.041 . S
C923 C49 1.804 . S
C928 C167 1.806 . S
