# Generated by pormake.
# Topology tsx, (6,3)-cn, num edge types: 1
# Building blocks:
#     Node 0, Type 0, BuildingBlock: FUNLAD_clean_sbu_0, # of connection points: 6
#     Node 1, Type 0, BuildingBlock: FUNLAD_clean_sbu_0, # of connection points: 6
#     Node 2, Type 1, BuildingBlock: MIDCAF_clean_linker_0, # of connection points: 3
#     Node 3, Type 1, BuildingBlock: MIDCAF_clean_linker_0, # of connection points: 3
#     Node 4, Type 1, BuildingBlock: MIDCAF_clean_linker_0, # of connection points: 3
#     Node 5, Type 1, BuildingBlock: MIDCAF_clean_linker_0, # of connection points: 3
#     Edge 6, Type (0, 1), BuildingBlock: FUNLAD_clean_linker_1, # of connection points: 2
#     Edge 7, Type (0, 1), BuildingBlock: FUNLAD_clean_linker_1, # of connection points: 2
#     Edge 8, Type (0, 1), BuildingBlock: FUNLAD_clean_linker_1, # of connection points: 2
#     Edge 9, Type (0, 1), BuildingBlock: FUNLAD_clean_linker_1, # of connection points: 2
#     Edge 10, Type (0, 1), BuildingBlock: FUNLAD_clean_linker_1, # of connection points: 2
#     Edge 11, Type (0, 1), BuildingBlock: FUNLAD_clean_linker_1, # of connection points: 2
#     Edge 12, Type (0, 1), BuildingBlock: FUNLAD_clean_linker_1, # of connection points: 2
#     Edge 13, Type (0, 1), BuildingBlock: FUNLAD_clean_linker_1, # of connection points: 2
#     Edge 14, Type (0, 1), BuildingBlock: FUNLAD_clean_linker_1, # of connection points: 2
#     Edge 15, Type (0, 1), BuildingBlock: FUNLAD_clean_linker_1, # of connection points: 2
#     Edge 16, Type (0, 1), BuildingBlock: FUNLAD_clean_linker_1, # of connection points: 2
#     Edge 17, Type (0, 1), BuildingBlock: FUNLAD_clean_linker_1, # of connection points: 2
# Relax obj value: 0.166
# Max RMSD: 0.156
# Mean RMSD: 0.091
data_MOF--net-tsx--node1-FUNLAD_clean_sbu_0--node2-MIDCAF_clean_linker_0--edge1-FUNLAD_clean_linker_1
_symmetry_space_group_name_H-M    P1
_symmetry_Int_Tables_number       1
_symmetry_cell_setting            triclinic
loop_
_symmetry_equiv_pos_as_xyz
'x, y, z'
_cell_length_a     23.841125
_cell_length_b     26.442662
_cell_length_c     51.256766
_cell_angle_alpha  91.007261
_cell_angle_beta   91.937285
_cell_angle_gamma 89.958719
loop_
_atom_site_label
_atom_site_type_symbol
_atom_site_fract_x
_atom_site_fract_y
_atom_site_fract_z
_atom_type_partial_charge
C0 C 0.92613 0.9273 1.00027 0.0
N1 N 0.99855 0.00777 0.06377 0.0
C2 C 0.94642 0.00942 0.07375 0.0
C3 C 0.93988 0.01072 0.1007 0.0
C4 C 0.98727 0.01052 0.11767 0.0
C5 C 0.04075 0.00871 0.10682 0.0
C6 C 0.04537 0.0075 0.0797 0.0
Zn7 Zn 0.00532 0.00422 0.02406 0.0
C8 C 0.088 0.92839 0.0069 0.0
N9 N 0.0153 0.99614 0.94087 0.0
C10 C 0.96905 0.99494 0.92458 0.0
C11 C 0.0678 0.99716 0.93129 0.0
C12 C 0.07531 0.99781 0.90444 0.0
C13 C 0.02856 0.99741 0.88708 0.0
C14 C 0.97464 0.99543 0.8975 0.0
Zn15 Zn 0.00797 -0.00085 0.98055 0.0
O16 O 0.94354 0.94752 0.02166 0.0
C17 C 0.92524 0.07485 0.99733 0.0
O18 O 0.9458 0.94157 0.97884 0.0
H19 H 0.1041 0.99807 0.94452 0.0
H20 H 0.90969 0.00937 0.06078 0.0
H21 H 0.92769 0.9941 0.93262 0.0
O22 O 0.9427 0.0608 0.01977 0.0
O23 O 0.94539 0.05493 0.97699 0.0
H24 H 0.08641 0.00584 0.07135 0.0
O25 O 0.06992 0.0566 0.98304 0.0
O26 O 0.06735 0.06082 0.02583 0.0
O27 O 0.07033 0.94343 0.98474 0.0
O28 O 0.06814 0.94746 0.02758 0.0
C29 C 0.08734 0.07586 0.00469 0.0
H30 H 0.89795 0.01176 0.10822 0.0
H31 H 0.07877 0.00721 0.11888 0.0
H32 H 0.11756 -0.0009 0.89732 0.0
H33 H 0.93692 0.99446 0.88523 0.0
C34 C 0.43856 0.43315 0.50197 0.0
N35 N 0.52195 0.50965 0.56398 0.0
C36 C 0.47264 0.51362 0.57646 0.0
C37 C 0.47215 0.51469 0.60372 0.0
C38 C 0.52305 0.51124 0.61832 0.0
C39 C 0.57323 0.50771 0.60487 0.0
C40 C 0.57177 0.50686 0.57761 0.0
Zn41 Zn 0.52129 0.50801 0.52404 0.0
C42 C 0.60104 0.43203 0.50304 0.0
N43 N 0.52014 0.50457 0.44064 0.0
C44 C 0.4714 0.50289 0.42606 0.0
C45 C 0.5707 0.50647 0.42916 0.0
C46 C 0.57362 0.50723 0.40205 0.0
C47 C 0.52417 0.50639 0.38645 0.0
C48 C 0.47238 0.50364 0.39878 0.0
Zn49 Zn 0.51954 0.50572 0.48057 0.0
O50 O 0.45602 0.45444 0.52309 0.0
C51 C 0.43999 0.58179 0.50105 0.0
O52 O 0.45863 0.44611 0.48037 0.0
H53 H 0.60901 0.5077 0.44107 0.0
H54 H 0.4335 0.51613 0.56526 0.0
H55 H 0.43168 0.5011 0.43559 0.0
O56 O 0.46147 0.56774 0.52279 0.0
O57 O 0.45528 0.56077 0.47998 0.0
H58 H 0.61053 0.50395 0.56731 0.0
O59 O 0.58004 0.56483 0.48161 0.0
O60 O 0.58637 0.56234 0.52441 0.0
O61 O 0.58393 0.45132 0.48174 0.0
O62 O 0.58121 0.44761 0.52446 0.0
C63 C 0.60176 0.58098 0.50315 0.0
H64 H 0.43229 0.51887 0.61296 0.0
H65 H 0.61334 0.50536 0.61536 0.0
H66 H 0.61435 0.50897 0.39335 0.0
H67 H 0.433 0.50153 0.38774 0.0
C68 C 0.82485 0.08333 0.46138 0.0
C69 C 0.83966 0.11248 0.48365 0.0
C70 C 0.89468 0.10977 0.49425 0.0
C71 C 0.93463 0.07923 0.48224 0.0
H72 H 0.07207 0.9732 0.49791 0.0
H73 H 0.14084 0.91946 0.52082 0.0
H74 H 0.18544 0.85181 0.44704 0.0
H75 H 0.1168 0.9038 0.42449 0.0
H76 H 0.07216 0.94535 0.37307 0.0
H77 H 0.0745 0.9473 0.32579 0.0
H78 H 0.93369 0.05059 0.32428 0.0
H79 H 0.9311 0.04825 0.37143 0.0
H80 H 0.85306 0.03311 0.4313 0.0
H81 H 0.78258 0.08483 0.45296 0.0
H82 H 0.90684 0.13156 0.51162 0.0
H83 H 0.97699 0.07826 0.49046 0.0
N84 N 0.00526 -0.0011 0.45834 0.0
N85 N 0.04233 0.97157 0.41874 0.0
N86 N 0.962 0.02245 0.41846 0.0
C87 C 0.04451 0.97223 0.44525 0.0
C88 C 0.00161 0.99674 0.40516 0.0
C89 C 0.96365 0.02371 0.44501 0.0
C90 C 0.08801 0.94222 0.45941 0.0
C91 C 0.09618 0.94643 0.48668 0.0
C92 C 0.13564 0.91585 0.49978 0.0
C93 C 0.16709 0.88013 0.48589 0.0
C94 C 0.16031 0.87734 0.45855 0.0
C95 C 0.12124 0.90783 0.44552 0.0
C96 C 0.00139 0.99667 0.37619 0.0
C97 C 0.04143 0.96831 0.36269 0.0
C98 C 0.04283 0.96941 0.33551 0.0
C99 C 0.00434 -0.00127 0.32099 0.0
C100 C 0.96387 0.02692 0.33444 0.0
C101 C 0.96241 0.02576 0.36172 0.0
C102 C 0.92053 0.05218 0.45912 0.0
C103 C 0.86515 0.05406 0.44895 0.0
C104 C 0.87783 0.87929 0.54343 0.0
C105 C 0.87306 0.88044 0.51604 0.0
C106 C 0.9056 0.91526 0.50274 0.0
C107 C 0.94437 0.94642 0.51652 0.0
H108 H 0.06244 0.07858 0.51563 0.0
H109 H 0.13277 0.13215 0.49582 0.0
H110 H 0.25372 0.09154 0.55639 0.0
H111 H 0.18301 0.03949 0.5767 0.0
H112 H 0.10747 0.0434 0.63594 0.0
H113 H 0.10452 0.04058 0.68325 0.0
H114 H 0.95704 0.94554 0.6766 0.0
H115 H 0.96038 0.94777 0.62945 0.0
H116 H 0.91898 0.9074 0.57815 0.0
H117 H 0.85172 0.85458 0.55447 0.0
H118 H 0.90187 0.91765 0.48167 0.0
H119 H 0.96949 0.97239 0.50581 0.0
N120 N 0.03293 0.00123 0.54669 0.0
N121 N 0.07461 0.02422 0.58749 0.0
N122 N 0.99487 0.97272 0.5853 0.0
C123 C 0.07379 0.0262 0.56095 0.0
C124 C 0.03482 0.99776 0.59982 0.0
C125 C 0.99349 0.97396 0.55885 0.0
C126 C 0.11711 0.05545 0.54784 0.0
C127 C 0.10407 0.08104 0.52461 0.0
C128 C 0.14413 0.11178 0.51337 0.0
C129 C 0.19831 0.11623 0.52484 0.0
C130 C 0.2121 0.08875 0.5473 0.0
C131 C 0.17164 0.05926 0.55895 0.0
C132 C 0.03408 0.99606 0.62875 0.0
C133 C 0.07435 0.02199 0.64458 0.0
C134 C 0.07233 0.02062 0.67186 0.0
C135 C 0.02973 0.99338 0.68387 0.0
C136 C 0.99013 0.96708 0.66799 0.0
C137 C 0.99213 0.96843 0.64086 0.0
C138 C 0.95067 0.94366 0.54385 0.0
C139 C 0.91615 0.91028 0.5571 0.0
C140 C 0.37661 0.65372 0.96427 0.0
C141 C 0.37042 0.64692 0.99121 0.0
C142 C 0.39706 0.60572 0.00323 0.0
C143 C 0.42957 0.57219 0.98871 0.0
H144 H 0.56275 0.46722 0.99515 0.0
H145 H 0.62493 0.40513 0.01553 0.0
H146 H 0.64479 0.33189 0.94036 0.0
H147 H 0.58198 0.39268 0.92026 0.0
H148 H 0.54348 0.44682 0.86965 0.0
H149 H 0.53622 0.44853 0.82248 0.0
H150 H 0.42768 0.57921 0.82658 0.0
H151 H 0.43408 0.57702 0.87412 0.0
H152 H 0.41238 0.62655 0.92909 0.0
H153 H 0.35517 0.68388 0.95401 0.0
H154 H 0.39239 0.59918 0.02385 0.0
H155 H 0.44892 0.54056 0.99856 0.0
N156 N 0.50115 0.50703 0.95782 0.0
N157 N 0.52633 0.47517 0.91687 0.0
N158 N 0.46483 0.54393 0.91952 0.0
C159 C 0.53041 0.47325 0.94333 0.0
C160 C 0.4937 0.51036 0.90478 0.0
C161 C 0.46822 0.54249 0.94604 0.0
C162 C 0.56686 0.43489 0.95607 0.0
C163 C 0.57959 0.43743 0.98305 0.0
C164 C 0.61535 0.40191 0.99475 0.0
C165 C 0.63875 0.36284 0.9798 0.0
C166 C 0.62611 0.3603 0.95279 0.0
C167 C 0.59048 0.39578 0.94112 0.0
C168 C 0.48966 0.51196 0.87583 0.0
C169 C 0.5183 0.47621 0.86059 0.0
C170 C 0.51456 0.47753 0.83334 0.0
C171 C 0.48233 0.51494 0.82062 0.0
C172 C 0.45321 0.55025 0.83583 0.0
C173 C 0.45693 0.54895 0.86309 0.0
C174 C 0.43566 0.57891 0.96179 0.0
C175 C 0.40896 0.62023 0.9498 0.0
C176 C 0.37972 0.35994 0.04466 0.0
C177 C 0.37823 0.35746 0.01722 0.0
C178 C 0.40981 0.3923 0.00353 0.0
C179 C 0.44294 0.42845 0.01703 0.0
H180 H 0.54807 0.5512 0.00748 0.0
H181 H 0.60958 0.60792 0.98484 0.0
H182 H 0.67737 0.66352 0.05914 0.0
H183 H 0.61603 0.60719 0.08171 0.0
H184 H 0.56179 0.57158 0.13465 0.0
H185 H 0.55492 0.57451 0.18187 0.0
H186 H 0.43499 0.4519 0.17721 0.0
H187 H 0.44123 0.44932 0.13006 0.0
H188 H 0.41212 0.39678 0.07921 0.0
H189 H 0.35435 0.33505 0.05594 0.0
H190 H 0.40884 0.39158 0.98237 0.0
H191 H 0.46681 0.45465 0.00591 0.0
N192 N 0.5104 0.50311 0.0466 0.0
N193 N 0.53835 0.54095 0.08679 0.0
N194 N 0.47582 0.47274 0.08554 0.0
C195 C 0.54085 0.53876 0.06028 0.0
C196 C 0.50574 0.50802 0.09956 0.0
C197 C 0.47783 0.46988 0.05915 0.0
C198 C 0.57694 0.57443 0.04646 0.0
C199 C 0.57591 0.57553 0.01901 0.0
C200 C 0.61104 0.60816 0.006 0.0
C201 C 0.64739 0.64098 0.0201 0.0
C202 C 0.64856 0.63999 0.04757 0.0
C203 C 0.6136 0.60722 0.06057 0.0
C204 C 0.50232 0.51009 0.12843 0.0
C205 C 0.53413 0.5451 0.14369 0.0
C206 C 0.53047 0.54646 0.17092 0.0
C207 C 0.49496 0.51267 0.18346 0.0
C208 C 0.4629 0.47821 0.16815 0.0
C209 C 0.46661 0.47674 0.14105 0.0
C210 C 0.4444 0.43092 0.04449 0.0
C211 C 0.41251 0.39603 0.05809 0.0
H212 H 0.14228 0.13219 0.02454 0.0
C213 C 0.13001 0.11591 0.00557 0.0
H214 H 0.14357 0.11622 0.96492 0.0
H215 H 0.23839 0.33323 0.02013 0.0
H216 H 0.14004 0.3549 0.02277 0.0
H217 H 0.06639 0.29458 0.00771 0.0
H218 H 0.09106 0.21175 0.99034 0.0
C219 C 0.15377 0.13292 0.98401 0.0
C220 C 0.19695 0.17325 0.98632 0.0
C221 C 0.18191 0.22237 0.99507 0.0
C222 C 0.22437 0.25771 0.00278 0.0
C223 C 0.2081 0.30531 0.0132 0.0
C224 C 0.15165 0.31822 0.01493 0.0
C225 C 0.11019 0.28424 0.00653 0.0
C226 C 0.1249 0.23677 0.99674 0.0
H227 H 0.32365 0.33163 0.98367 0.0
C228 C 0.34098 0.32111 0.00272 0.0
H229 H 0.34582 0.26378 0.03098 0.0
H230 H 0.23902 0.08494 0.96635 0.0
H231 H 0.33743 0.06496 0.96074 0.0
H232 H 0.4113 0.12714 0.97301 0.0
H233 H 0.38718 0.20968 0.99106 0.0
C234 C 0.326 0.27692 0.01295 0.0
C235 C 0.2817 0.24424 1.0007 0.0
C236 C 0.29646 0.19681 0.98967 0.0
C237 C 0.25393 0.16118 0.98241 0.0
C238 C 0.26976 0.11346 0.9721 0.0
C239 C 0.32605 0.10155 0.96876 0.0
C240 C 0.36764 0.13655 0.97568 0.0
C241 C 0.35328 0.18367 0.98608 0.0
H242 H 0.14457 0.87336 0.98926 0.0
C243 C 0.13031 0.88811 0.00785 0.0
H244 H 0.13884 0.88284 0.04903 0.0
H245 H 0.2307 0.67417 0.98663 0.0
H246 H 0.13197 0.65522 0.97989 0.0
H247 H 0.0597 0.71329 0.99633 0.0
H248 H 0.08621 0.79127 0.01939 0.0
C249 C 0.15093 0.8682 0.03009 0.0
C250 C 0.19272 0.82666 0.02853 0.0
C251 C 0.17675 0.77977 0.01673 0.0
C252 C 0.21847 0.74549 0.00819 0.0
C253 C 0.20112 0.70091 0.99444 0.0
C254 C 0.14439 0.68962 0.99029 0.0
C255 C 0.10369 0.72236 0.99949 0.0
C256 C 0.11943 0.76702 0.01253 0.0
H257 H 0.31396 0.66431 0.0237 0.0
C258 C 0.33301 0.67991 0.00662 0.0
H259 H 0.34139 0.7453 0.9839 0.0
H260 H 0.23623 0.90908 0.05492 0.0
H261 H 0.33508 0.92591 0.0647 0.0
H262 H 0.40777 0.86528 0.05118 0.0
H263 H 0.38214 0.78755 0.02766 0.0
C264 C 0.31987 0.72726 0.99957 0.0
C265 C 0.27609 0.75744 0.01264 0.0
C266 C 0.2917 0.80184 0.02695 0.0
C267 C 0.24986 0.83656 0.03495 0.0
C268 C 0.26653 0.88147 0.04847 0.0
C269 C 0.32302 0.89149 0.05423 0.0
C270 C 0.36396 0.85736 0.0466 0.0
C271 C 0.34874 0.81301 0.03307 0.0
H272 H 0.87076 0.87602 0.02038 0.0
C273 C 0.88472 0.88641 0.0012 0.0
H274 H 0.877 0.87049 0.96055 0.0
H275 H 0.7951 0.67023 0.02829 0.0
H276 H 0.89507 0.65618 0.03539 0.0
H277 H 0.9642 0.7153 0.01818 0.0
H278 H 0.93367 0.78902 0.9938 0.0
C279 C 0.86509 0.86056 0.98008 0.0
C280 C 0.82522 0.81834 0.98369 0.0
C281 C 0.84381 0.77434 0.99681 0.0
C282 C 0.80404 0.73988 0.0063 0.0
C283 C 0.82359 0.69743 0.02042 0.0
C284 C 0.88085 0.6889 0.02463 0.0
C285 C 0.91978 0.72221 0.01495 0.0
C286 C 0.90173 0.76448 0.00116 0.0
H287 H 0.69748 0.66239 0.98632 0.0
C288 C 0.68529 0.67421 0.00576 0.0
H289 H 0.69085 0.73273 0.03446 0.0
H290 H 0.77688 0.89433 0.95534 0.0
H291 H 0.677 0.90608 0.94609 0.0
H292 H 0.60778 0.8457 0.96217 0.0
H293 H 0.63794 0.77324 0.98766 0.0
C294 C 0.70459 0.71832 0.01578 0.0
C295 C 0.74593 0.74906 0.00208 0.0
C296 C 0.7276 0.79042 0.98682 0.0
C297 C 0.76745 0.8251 0.9775 0.0
C298 C 0.74817 0.86693 0.96287 0.0
C299 C 0.69107 0.87401 0.95741 0.0
C300 C 0.65208 0.84001 0.96647 0.0
C301 C 0.66989 0.79867 0.98109 0.0
H302 H 0.87043 0.12613 0.97484 0.0
C303 C 0.88267 0.11471 0.99451 0.0
H304 H 0.86954 0.12603 0.03487 0.0
H305 H 0.77855 0.33074 0.97065 0.0
H306 H 0.87731 0.34906 0.96646 0.0
H307 H 0.94981 0.29042 0.98343 0.0
H308 H 0.92362 0.21256 0.00429 0.0
C309 C 0.85935 0.13767 0.01504 0.0
C310 C 0.81691 0.17799 0.01068 0.0
C311 C 0.83293 0.22447 0.99977 0.0
C312 C 0.79119 0.25915 0.99099 0.0
C313 C 0.80834 0.30373 0.97854 0.0
C314 C 0.86501 0.31465 0.97587 0.0
C315 C 0.90582 0.28157 0.98534 0.0
C316 C 0.89022 0.23691 0.99713 0.0
H317 H 0.70109 0.33965 0.01035 0.0
C318 C 0.67886 0.32729 0.99248 0.0
H319 H 0.66516 0.26591 0.96596 0.0
H320 H 0.77306 0.09515 0.0339 0.0
H321 H 0.6744 0.07896 0.04076 0.0
H322 H 0.60189 0.1403 0.02671 0.0
H323 H 0.62755 0.21811 0.0056 0.0
C324 C 0.68957 0.28108 0.98255 0.0
C325 C 0.73363 0.24802 0.99419 0.0
C326 C 0.71795 0.20327 0.00688 0.0
C327 C 0.75972 0.16817 0.01518 0.0
C328 C 0.74294 0.12318 0.0273 0.0
C329 C 0.6865 0.11346 0.03137 0.0
C330 C 0.64567 0.14798 0.02344 0.0
C331 C 0.66094 0.19241 0.0113 0.0
H332 H 0.65914 0.63541 0.52301 0.0
C333 C 0.64274 0.62263 0.50396 0.0
H334 H 0.64381 0.63387 0.46315 0.0
H335 H 0.73129 0.84836 0.52265 0.0
H336 H 0.63299 0.86006 0.53185 0.0
H337 H 0.56293 0.79494 0.51885 0.0
H338 H 0.59099 0.71744 0.49672 0.0
C339 C 0.65859 0.64645 0.48247 0.0
C340 C 0.69795 0.69 0.48488 0.0
C341 C 0.68047 0.73603 0.49666 0.0
C342 C 0.72064 0.77409 0.50352 0.0
C343 C 0.7025 0.81853 0.51657 0.0
C344 C 0.64614 0.82573 0.52199 0.0
C345 C 0.6067 0.78904 0.5147 0.0
C346 C 0.6234 0.74464 0.50216 0.0
H347 H 0.81336 0.85895 0.48338 0.0
C348 C 0.83337 0.84613 0.50146 0.0
H349 H 0.84437 0.78502 0.52718 0.0
H350 H 0.74319 0.60964 0.45867 0.0
H351 H 0.84067 0.59993 0.44706 0.0
H352 H 0.9102 0.66657 0.45836 0.0
H353 H 0.88266 0.74342 0.48137 0.0
C354 C 0.82155 0.79986 0.51029 0.0
C355 C 0.77792 0.7664 0.49796 0.0
C356 C 0.79436 0.72238 0.48406 0.0
C357 C 0.75424 0.68412 0.47742 0.0
C358 C 0.77203 0.63991 0.46411 0.0
C359 C 0.82779 0.6339 0.45733 0.0
C360 C 0.86696 0.67141 0.46371 0.0
C361 C 0.8507 0.7152 0.47697 0.0
H362 H 0.66572 0.38653 0.48431 0.0
C363 C 0.64231 0.39076 0.50206 0.0
H364 H 0.62431 0.3588 0.53834 0.0
H365 H 0.74606 0.19203 0.45638 0.0
H366 H 0.66254 0.20177 0.42889 0.0
H367 H 0.58569 0.25801 0.44234 0.0
H368 H 0.59354 0.30656 0.48288 0.0
C369 C 0.64762 0.35547 0.52054 0.0
C370 C 0.68512 0.31088 0.51668 0.0
C371 C 0.67727 0.27885 0.49433 0.0
C372 C 0.71901 0.24274 0.4879 0.0
C373 C 0.71368 0.21673 0.4635 0.0
C374 C 0.66614 0.22248 0.44728 0.0
C375 C 0.62308 0.25438 0.45475 0.0
C376 C 0.62839 0.2824 0.47794 0.0
H377 H 0.75444 0.13449 0.49522 0.0
C378 C 0.79766 0.14738 0.49454 0.0
H379 H 0.85239 0.20994 0.49783 0.0
H380 H 0.71016 0.3625 0.56234 0.0
H381 H 0.78865 0.34661 0.59242 0.0
H382 H 0.85639 0.27842 0.58351 0.0
H383 H 0.84656 0.22613 0.54427 0.0
C384 C 0.80952 0.19649 0.49918 0.0
C385 C 0.76535 0.23439 0.5055 0.0
C386 C 0.77078 0.26372 0.52891 0.0
C387 C 0.731 0.30238 0.53435 0.0
C388 C 0.7387 0.33227 0.55739 0.0
C389 C 0.78358 0.32355 0.57484 0.0
C390 C 0.82176 0.28519 0.56981 0.0
C391 C 0.81568 0.25553 0.54716 0.0
H392 H 0.37224 0.3916 0.521 0.0
C393 C 0.39645 0.39276 0.50341 0.0
H394 H 0.41569 0.35486 0.46821 0.0
H395 H 0.2887 0.20171 0.55236 0.0
H396 H 0.37057 0.21565 0.58067 0.0
H397 H 0.44828 0.26963 0.567 0.0
H398 H 0.44295 0.31179 0.52536 0.0
C399 C 0.39149 0.35464 0.48579 0.0
C400 C 0.35333 0.31107 0.49034 0.0
C401 C 0.35982 0.28256 0.51348 0.0
C402 C 0.31769 0.24749 0.52017 0.0
C403 C 0.32153 0.22527 0.54514 0.0
C404 C 0.36809 0.2335 0.56182 0.0
C405 C 0.41163 0.26415 0.55421 0.0
C406 C 0.40774 0.28853 0.53037 0.0
H407 H 0.28421 0.1383 0.51474 0.0
C408 C 0.24068 0.15065 0.51442 0.0
H409 H 0.18511 0.21191 0.50891 0.0
H410 H 0.33066 0.35585 0.44342 0.0
H411 H 0.25389 0.33547 0.4128 0.0
H412 H 0.18575 0.26868 0.42232 0.0
H413 H 0.19345 0.22232 0.46269 0.0
C414 C 0.22835 0.1989 0.50862 0.0
C415 C 0.27246 0.23634 0.50218 0.0
C416 C 0.26831 0.26218 0.47815 0.0
C417 C 0.30836 0.29998 0.47237 0.0
C418 C 0.30191 0.32638 0.44866 0.0
C419 C 0.25801 0.31506 0.43089 0.0
C420 C 0.21961 0.27749 0.43627 0.0
C421 C 0.22446 0.25125 0.45957 0.0
H422 H 0.38325 0.63441 0.48047 0.0
C423 C 0.39919 0.62352 0.4997 0.0
H424 H 0.39679 0.63876 0.54037 0.0
H425 H 0.31023 0.8473 0.47878 0.0
H426 H 0.40898 0.85877 0.47064 0.0
H427 H 0.47893 0.79518 0.48474 0.0
H428 H 0.45034 0.71946 0.50693 0.0
C429 C 0.38261 0.64942 0.52087 0.0
C430 C 0.34298 0.69251 0.51777 0.0
C431 C 0.36068 0.73757 0.50592 0.0
C432 C 0.32052 0.77479 0.4984 0.0
C433 C 0.33898 0.81819 0.48535 0.0
C434 C 0.39559 0.82523 0.48053 0.0
C435 C 0.43498 0.78941 0.48844 0.0
C436 C 0.41798 0.74601 0.501 0.0
H437 H 0.22773 0.8604 0.51807 0.0
C438 C 0.20763 0.84674 0.49994 0.0
H439 H 0.19689 0.78424 0.47395 0.0
H440 H 0.29699 0.61409 0.54376 0.0
H441 H 0.19887 0.60465 0.55417 0.0
H442 H 0.1293 0.66982 0.5417 0.0
H443 H 0.1574 0.74488 0.51871 0.0
C444 C 0.21971 0.80009 0.49086 0.0
C445 C 0.26299 0.76725 0.50336 0.0
C446 C 0.24614 0.72427 0.51722 0.0
C447 C 0.28627 0.68686 0.52453 0.0
C448 C 0.26813 0.64366 0.53781 0.0
C449 C 0.21201 0.63783 0.54391 0.0
C450 C 0.17283 0.67451 0.53688 0.0
C451 C 0.18943 0.71728 0.52364 0.0
H452 H 0.93658 0.00254 0.15274 0.0
C453 C 0.97866 0.01041 0.14629 0.0
H454 H 0.06089 0.03142 0.15933 0.0
H455 H 0.98955 0.11498 0.26924 0.0
H456 H 0.01263 0.19277 0.24762 0.0
H457 H 0.03264 0.1925 0.20071 0.0
H458 H 0.03005 0.1144 0.17516 0.0
C459 C 0.01916 0.02007 0.16461 0.0
C460 C 0.0067 0.01989 0.19289 0.0
C461 C 0.008 0.06593 0.2075 0.0
C462 C 0.99579 0.06619 0.23447 0.0
C463 C 0.99801 0.11265 0.24865 0.0
C464 C 0.01123 0.1576 0.23649 0.0
C465 C 0.02255 0.15744 0.21008 0.0
C466 C 0.02099 0.11229 0.19565 0.0
H467 H 0.04558 0.98045 0.284 0.0
C468 C 0.0093 -0.00074 0.2921 0.0
H469 H 0.93546 0.04062 0.28198 0.0
H470 H 0.00573 0.92419 0.17131 0.0
H471 H 0.97919 0.84701 0.19251 0.0
H472 H 0.95158 0.84845 0.23847 0.0
H473 H 0.95134 0.92699 0.26361 0.0
C474 C 0.97216 0.02072 0.27531 0.0
C475 C 0.98225 0.02042 0.24679 0.0
C476 C 0.97989 0.97447 0.23208 0.0
C477 C 0.99335 0.97401 0.20524 0.0
C478 C 0.99374 0.92714 0.19143 0.0
C479 C 0.97894 0.88244 0.20342 0.0
C480 C 0.9636 0.88321 0.22932 0.0
C481 C 0.96398 0.92855 0.24357 0.0
H482 H 0.08213 -0.00085 0.85271 0.0
C483 C 0.03868 -0.00065 0.85859 0.0
H484 H 0.95435 0.00464 0.8442 0.0
H485 H 0.00999 0.10736 0.73846 0.0
H486 H 0.96447 0.1761 0.76144 0.0
H487 H 0.94137 0.16842 0.80775 0.0
H488 H 0.96319 0.09177 0.83131 0.0
C489 C 0.99831 0.00208 0.83967 0.0
C490 C 0.01296 0.00641 0.81176 0.0
C491 C 0.00054 0.05174 0.79836 0.0
C492 C 0.0147 0.05649 0.77177 0.0
C493 C 0.00082 0.10187 0.75875 0.0
C494 C 0.97462 0.14166 0.7717 0.0
C495 C 0.96156 0.13731 0.79776 0.0
C496 C 0.97426 0.09302 0.81104 0.0
H497 H 0.99501 0.96324 0.71987 0.0
C498 C 0.02478 0.99045 0.71267 0.0
H499 H 0.08044 0.04982 0.72436 0.0
H500 H 0.03752 0.91224 0.8307 0.0
H501 H 0.08708 0.84511 0.80839 0.0
H502 H 0.11881 0.85618 0.76353 0.0
H503 H 0.10006 0.93409 0.74056 0.0
C504 C 0.05276 0.01999 0.73033 0.0
C505 C 0.04159 0.01602 0.75866 0.0
C506 C 0.05539 0.97118 0.77228 0.0
C507 C 0.0397 0.96582 0.79862 0.0
C508 C 0.05067 0.91931 0.81112 0.0
C509 C 0.07875 0.88026 0.79846 0.0
C510 C 0.09641 0.88641 0.77317 0.0
C511 C 0.085 0.93123 0.76014 0.0
H512 H 0.56683 0.51857 0.65698 0.0
C513 C 0.52598 0.51219 0.64738 0.0
H514 H 0.44101 0.49401 0.65388 0.0
H515 H 0.48945 0.4045 0.76555 0.0
H516 H 0.46614 0.32856 0.74024 0.0
H517 H 0.45338 0.33135 0.69233 0.0
H518 H 0.46357 0.41012 0.66943 0.0
C519 C 0.48181 0.50398 0.66242 0.0
C520 C 0.48877 0.50289 0.69138 0.0
C521 C 0.48282 0.45648 0.70444 0.0
C522 C 0.49085 0.45474 0.73203 0.0
C523 C 0.48434 0.40791 0.7446 0.0
C524 C 0.4709 0.36402 0.73031 0.0
C525 C 0.46366 0.3656 0.70334 0.0
C526 C 0.46955 0.41113 0.69045 0.0
H527 H 0.44139 0.53862 0.78336 0.0
C528 C 0.4767 0.51757 0.79168 0.0
H529 H 0.55001 0.47615 0.78263 0.0
H530 H 0.49713 0.59911 0.67283 0.0
H531 H 0.52293 0.67456 0.69798 0.0
H532 H 0.54262 0.67054 0.74546 0.0
H533 H 0.53572 0.59119 0.76813 0.0
C534 C 0.51367 0.49688 0.77534 0.0
C535 C 0.50482 0.49939 0.74651 0.0
C536 C 0.51088 0.54584 0.73347 0.0
C537 C 0.50179 0.54777 0.70592 0.0
C538 C 0.50555 0.59508 0.69356 0.0
C539 C 0.51999 0.63878 0.70779 0.0
C540 C 0.5309 0.63655 0.73453 0.0
C541 C 0.5265 0.59075 0.74732 0.0
H542 H 0.57015 0.50022 0.34978 0.0
C543 C 0.52901 0.50755 0.35762 0.0
H544 H 0.44572 0.52987 0.34763 0.0
H545 H 0.50671 0.62535 0.24032 0.0
H546 H 0.48308 0.7001 0.26581 0.0
H547 H 0.46574 0.6943 0.31284 0.0
H548 H 0.47154 0.61372 0.33465 0.0
C549 C 0.48655 0.51887 0.34077 0.0
C550 C 0.49602 0.52185 0.31225 0.0
C551 C 0.49275 0.56933 0.29985 0.0
C552 C 0.50342 0.57281 0.2728 0.0
C553 C 0.49942 0.62063 0.26085 0.0
C554 C 0.48588 0.66384 0.27525 0.0
C555 C 0.47607 0.66057 0.30172 0.0
C556 C 0.47946 0.61402 0.31399 0.0
H557 H 0.45317 0.49218 0.21964 0.0
C558 C 0.48904 0.51221 0.21224 0.0
H559 H 0.56312 0.55259 0.22359 0.0
H560 H 0.49967 0.42404 0.32919 0.0
H561 H 0.52666 0.34993 0.30409 0.0
H562 H 0.55193 0.35701 0.25802 0.0
H563 H 0.54931 0.43811 0.23667 0.0
C564 C 0.52633 0.53248 0.22969 0.0
C565 C 0.51739 0.52884 0.25821 0.0
C566 C 0.52143 0.48142 0.27068 0.0
C567 C 0.50943 0.47772 0.29758 0.0
C568 C 0.51062 0.42943 0.30913 0.0
C569 C 0.52567 0.38647 0.29489 0.0
C570 C 0.53969 0.39043 0.26893 0.0
C571 C 0.53767 0.43721 0.25686 0.0
loop_
_geom_bond_atom_site_label_1
_geom_bond_atom_site_label_2
_geom_bond_distance
_geom_bond_site_symmetry_2
_ccdc_geom_bond_type
C0 O16 1.251 . S
C0 O18 1.254 1_554 S
N1 C2 1.333 1_445 S
N1 C6 1.307 . S
N1 Zn7 2.020 . S
C2 N1 1.333 1_665 S
C2 C3 1.379 . S
C2 H20 0.952 . S
C3 C2 1.379 . S
C3 C4 1.390 1_665 S
C3 H30 0.949 . S
C4 C3 1.390 1_445 S
C4 C5 1.357 . S
C5 C4 1.357 . S
C5 C6 1.370 . S
C5 H31 0.950 . S
C6 N1 1.307 . S
C6 C5 1.370 . S
C6 H24 0.948 . S
Zn7 N1 2.020 . S
Zn7 O16 2.039 1_445 S
Zn7 O22 2.034 1_455 S
Zn7 O26 2.025 . S
Zn7 O28 2.024 1_545 S
C8 O27 1.246 1_554 S
C8 O28 1.249 . S
N9 C10 1.307 1_445 S
N9 C11 1.333 . S
N9 Zn15 2.020 . S
C10 N9 1.307 1_665 S
C10 C14 1.370 . S
C10 H21 0.948 . S
C11 N9 1.333 . S
C11 C12 1.379 . S
C11 H19 0.952 . S
C12 C11 1.379 . S
C12 C13 1.390 . S
C12 H32 0.949 . S
C13 C12 1.390 . S
C13 C14 1.357 1_445 S
C14 C10 1.370 . S
C14 C13 1.357 1_665 S
C14 H33 0.950 . S
Zn15 N9 2.020 . S
Zn15 O18 2.025 1_445 S
Zn15 O23 2.024 1_455 S
Zn15 O25 2.039 . S
Zn15 O27 2.034 1_545 S
O16 C0 1.251 . S
O16 Zn7 2.039 1_665 S
C17 O22 1.246 . S
C17 O23 1.249 1_554 S
O18 C0 1.254 1_556 S
O18 Zn15 2.025 1_665 S
H19 C11 0.952 . S
H20 C2 0.952 . S
H21 C10 0.948 . S
O22 Zn7 2.034 1_655 S
O22 C17 1.246 . S
O23 Zn15 2.024 1_655 S
O23 C17 1.249 1_556 S
H24 C6 0.948 . S
O25 Zn15 2.039 . S
O25 C29 1.251 1_556 S
O26 Zn7 2.025 . S
O26 C29 1.254 . S
O27 C8 1.246 1_556 S
O27 Zn15 2.034 1_565 S
O28 Zn7 2.024 1_565 S
O28 C8 1.249 . S
C29 O25 1.251 1_554 S
C29 O26 1.254 . S
H30 C3 0.949 . S
H31 C5 0.950 . S
H32 C12 0.949 . S
H33 C14 0.950 . S
C34 O50 1.251 . S
C34 O52 1.254 . S
N35 C36 1.333 . S
N35 C40 1.307 . S
N35 Zn41 2.020 . S
C36 N35 1.333 . S
C36 C37 1.379 . S
C36 H54 0.952 . S
C37 C36 1.379 . S
C37 C38 1.390 . S
C37 H64 0.949 . S
C38 C37 1.390 . S
C38 C39 1.357 . S
C39 C38 1.357 . S
C39 C40 1.370 . S
C39 H65 0.950 . S
C40 N35 1.307 . S
C40 C39 1.370 . S
C40 H58 0.948 . S
Zn41 N35 2.020 . S
Zn41 O50 2.039 . S
Zn41 O56 2.034 . S
Zn41 O60 2.025 . S
Zn41 O62 2.024 . S
C42 O61 1.246 . S
C42 O62 1.249 . S
N43 C44 1.307 . S
N43 C45 1.333 . S
N43 Zn49 2.020 . S
C44 N43 1.307 . S
C44 C48 1.370 . S
C44 H55 0.948 . S
C45 N43 1.333 . S
C45 C46 1.379 . S
C45 H53 0.952 . S
C46 C45 1.379 . S
C46 C47 1.390 . S
C46 H66 0.949 . S
C47 C46 1.390 . S
C47 C48 1.357 . S
C48 C44 1.370 . S
C48 C47 1.357 . S
C48 H67 0.950 . S
Zn49 N43 2.020 . S
Zn49 O52 2.025 . S
Zn49 O57 2.024 . S
Zn49 O59 2.039 . S
Zn49 O61 2.034 . S
O50 C34 1.251 . S
O50 Zn41 2.039 . S
C51 O56 1.246 . S
C51 O57 1.249 . S
O52 C34 1.254 . S
O52 Zn49 2.025 . S
H53 C45 0.952 . S
H54 C36 0.952 . S
H55 C44 0.948 . S
O56 Zn41 2.034 . S
O56 C51 1.246 . S
O57 Zn49 2.024 . S
O57 C51 1.249 . S
H58 C40 0.948 . S
O59 Zn49 2.039 . S
O59 C63 1.251 . S
O60 Zn41 2.025 . S
O60 C63 1.254 . S
O61 C42 1.246 . S
O61 Zn49 2.034 . S
O62 Zn41 2.024 . S
O62 C42 1.249 . S
C63 O59 1.251 . S
C63 O60 1.254 . S
H64 C37 0.949 . S
H65 C39 0.950 . S
H66 C46 0.949 . S
H67 C48 0.950 . S
C68 C69 1.384 . S
C68 H81 0.947 . S
C68 C103 1.382 . S
C69 C68 1.384 . S
C69 C70 1.378 . S
C70 C69 1.378 . S
C70 C71 1.378 . S
C70 H82 0.952 . S
C71 C70 1.378 . S
C71 H83 0.950 . S
C71 C102 1.383 . S
H72 C91 0.947 . S
H73 C92 0.946 . S
H74 C94 0.953 . S
H75 C95 0.945 . S
H76 C97 0.952 . S
H77 C98 0.949 . S
H78 C100 0.950 . S
H79 C101 0.948 . S
H80 C103 0.951 . S
H81 C68 0.947 . S
H82 C70 0.952 . S
H83 C71 0.950 . S
N84 C87 1.382 1_545 S
N84 C89 1.363 1_455 S
N85 C87 1.371 . S
N85 C88 1.372 1_565 S
N86 C88 1.361 1_655 S
N86 C89 1.377 . S
C87 N84 1.382 1_565 S
C87 N85 1.371 . S
C87 C90 1.480 . S
C88 N85 1.372 1_545 S
C88 N86 1.361 1_455 S
C88 C96 1.457 . S
C89 N84 1.363 1_655 S
C89 N86 1.377 . S
C89 C102 1.479 . S
C90 C87 1.480 . S
C90 C91 1.383 . S
C90 C95 1.385 . S
C91 H72 0.947 . S
C91 C90 1.383 . S
C91 C92 1.388 . S
C92 H73 0.946 . S
C92 C91 1.388 . S
C92 C93 1.384 . S
C93 C92 1.384 . S
C93 C94 1.377 . S
C94 H74 0.953 . S
C94 C93 1.377 . S
C94 C95 1.369 . S
C95 H75 0.945 . S
C95 C90 1.385 . S
C95 C94 1.369 . S
C96 C88 1.457 . S
C96 C97 1.372 1_545 S
C96 C101 1.364 1_455 S
C97 H76 0.952 . S
C97 C96 1.372 1_565 S
C97 C98 1.389 . S
C98 H77 0.949 . S
C98 C97 1.389 . S
C98 C99 1.387 1_565 S
C99 C98 1.387 1_545 S
C99 C100 1.372 1_455 S
C100 H78 0.950 . S
C100 C99 1.372 1_655 S
C100 C101 1.379 . S
C101 H79 0.948 . S
C101 C96 1.364 1_655 S
C101 C100 1.379 . S
C102 C71 1.383 . S
C102 C89 1.479 . S
C102 C103 1.398 . S
C103 C68 1.382 . S
C103 H80 0.951 . S
C103 C102 1.398 . S
C104 C105 1.384 . S
C104 H117 0.947 . S
C104 C139 1.382 . S
C105 C104 1.384 . S
C105 C106 1.378 . S
C106 C105 1.378 . S
C106 C107 1.378 . S
C106 H118 0.952 . S
C107 C106 1.378 . S
C107 H119 0.950 . S
C107 C138 1.383 . S
H108 C127 0.947 . S
H109 C128 0.946 . S
H110 C130 0.953 . S
H111 C131 0.945 . S
H112 C133 0.952 . S
H113 C134 0.949 . S
H114 C136 0.950 . S
H115 C137 0.948 . S
H116 C139 0.951 . S
H117 C104 0.947 . S
H118 C106 0.952 . S
H119 C107 0.950 . S
N120 C123 1.375 1_565 S
N120 C125 1.370 1_455 S
N121 C123 1.371 . S
N121 C124 1.381 . S
N122 C124 1.353 1_665 S
N122 C125 1.377 . S
C123 N120 1.375 1_545 S
C123 N121 1.371 . S
C123 C126 1.480 . S
C124 N121 1.381 . S
C124 N122 1.353 1_445 S
C124 C132 1.457 . S
C125 N120 1.370 1_655 S
C125 N122 1.377 . S
C125 C138 1.479 . S
C126 C123 1.480 . S
C126 C127 1.383 . S
C126 C131 1.385 . S
C127 H108 0.947 . S
C127 C126 1.383 . S
C127 C128 1.388 . S
C128 H109 0.946 . S
C128 C127 1.388 . S
C128 C129 1.384 . S
C129 C128 1.384 . S
C129 C130 1.377 . S
C130 H110 0.953 . S
C130 C129 1.377 . S
C130 C131 1.369 . S
C131 H111 0.945 . S
C131 C126 1.385 . S
C131 C130 1.369 . S
C132 C124 1.457 . S
C132 C133 1.378 . S
C132 C137 1.358 1_445 S
C133 H112 0.952 . S
C133 C132 1.378 . S
C133 C134 1.389 . S
C134 H113 0.949 . S
C134 C133 1.389 . S
C134 C135 1.387 . S
C135 C134 1.387 . S
C135 C136 1.372 1_445 S
C136 H114 0.950 . S
C136 C135 1.372 1_665 S
C136 C137 1.379 . S
C137 H115 0.948 . S
C137 C132 1.358 1_665 S
C137 C136 1.379 . S
C138 C107 1.383 . S
C138 C125 1.479 . S
C138 C139 1.398 . S
C139 C104 1.382 . S
C139 H116 0.951 . S
C139 C138 1.398 . S
C140 C141 1.384 . S
C140 H153 0.947 . S
C140 C175 1.382 . S
C141 C140 1.384 . S
C141 C142 1.378 1_556 S
C142 C141 1.378 1_554 S
C142 C143 1.378 1_554 S
C142 H154 0.952 . S
C143 C142 1.378 1_556 S
C143 H155 0.964 . S
C143 C174 1.383 . S
H144 C163 0.947 . S
H145 C164 0.946 . S
H146 C166 0.953 . S
H147 C167 0.945 . S
H148 C169 0.952 . S
H149 C170 0.949 . S
H150 C172 0.950 . S
H151 C173 0.948 . S
H152 C175 0.951 . S
H153 C140 0.947 . S
H154 C142 0.952 . S
H155 C143 0.964 . S
N156 C159 1.382 . S
N156 C161 1.363 . S
N157 C159 1.371 . S
N157 C160 1.372 . S
N158 C160 1.361 . S
N158 C161 1.377 . S
C159 N156 1.382 . S
C159 N157 1.371 . S
C159 C162 1.480 . S
C160 N157 1.372 . S
C160 N158 1.361 . S
C160 C168 1.457 . S
C161 N156 1.363 . S
C161 N158 1.377 . S
C161 C174 1.479 . S
C162 C159 1.480 . S
C162 C163 1.383 . S
C162 C167 1.385 . S
C163 H144 0.947 . S
C163 C162 1.383 . S
C163 C164 1.388 1_556 S
C164 H145 0.946 . S
C164 C163 1.388 1_554 S
C164 C165 1.384 1_554 S
C165 C164 1.384 1_556 S
C165 C166 1.377 . S
C166 H146 0.953 . S
C166 C165 1.377 . S
C166 C167 1.369 . S
C167 H147 0.945 . S
C167 C162 1.385 . S
C167 C166 1.369 . S
C168 C160 1.457 . S
C168 C169 1.372 . S
C168 C173 1.364 . S
C169 H148 0.952 . S
C169 C168 1.372 . S
C169 C170 1.389 . S
C170 H149 0.949 . S
C170 C169 1.389 . S
C170 C171 1.387 . S
C171 C170 1.387 . S
C171 C172 1.372 . S
C172 H150 0.950 . S
C172 C171 1.372 . S
C172 C173 1.379 . S
C173 H151 0.948 . S
C173 C168 1.364 . S
C173 C172 1.379 . S
C174 C143 1.383 . S
C174 C161 1.479 . S
C174 C175 1.398 . S
C175 C140 1.382 . S
C175 H152 0.951 . S
C175 C174 1.398 . S
C176 C177 1.384 . S
C176 H189 0.947 . S
C176 C211 1.382 . S
C177 C176 1.384 . S
C177 C178 1.363 1_554 S
C178 C177 1.363 1_556 S
C178 C179 1.364 1_556 S
C178 H190 0.984 . S
C179 C178 1.364 1_554 S
C179 H191 0.950 . S
C179 C210 1.383 . S
H180 C199 0.947 . S
H181 C200 0.946 1_556 S
H182 C202 0.953 . S
H183 C203 0.945 . S
H184 C205 0.952 . S
H185 C206 0.949 . S
H186 C208 0.950 . S
H187 C209 0.948 . S
H188 C211 0.951 . S
H189 C176 0.947 . S
H190 C178 0.984 . S
H191 C179 0.950 . S
N192 C195 1.382 . S
N192 C197 1.363 . S
N193 C195 1.371 . S
N193 C196 1.372 . S
N194 C196 1.361 . S
N194 C197 1.377 . S
C195 N192 1.382 . S
C195 N193 1.371 . S
C195 C198 1.480 . S
C196 N193 1.372 . S
C196 N194 1.361 . S
C196 C204 1.457 . S
C197 N192 1.363 . S
C197 N194 1.377 . S
C197 C210 1.479 . S
C198 C195 1.480 . S
C198 C199 1.383 . S
C198 C203 1.385 . S
C199 H180 0.947 . S
C199 C198 1.383 . S
C199 C200 1.388 . S
C200 H181 0.946 1_554 S
C200 C199 1.388 . S
C200 C201 1.384 . S
C201 C200 1.384 . S
C201 C202 1.377 . S
C202 H182 0.953 . S
C202 C201 1.377 . S
C202 C203 1.369 . S
C203 H183 0.945 . S
C203 C198 1.385 . S
C203 C202 1.369 . S
C204 C196 1.457 . S
C204 C205 1.372 . S
C204 C209 1.364 . S
C205 H184 0.952 . S
C205 C204 1.372 . S
C205 C206 1.389 . S
C206 H185 0.949 . S
C206 C205 1.389 . S
C206 C207 1.387 . S
C207 C206 1.387 . S
C207 C208 1.372 . S
C208 H186 0.950 . S
C208 C207 1.372 . S
C208 C209 1.379 . S
C209 H187 0.948 . S
C209 C204 1.364 . S
C209 C208 1.379 . S
C210 C179 1.383 . S
C210 C197 1.479 . S
C210 C211 1.398 . S
C211 C176 1.382 . S
C211 H188 0.951 . S
C211 C210 1.398 . S
H212 C213 0.954 . S
C213 H212 0.954 . S
C213 C219 1.265 . S
H214 C219 0.950 . S
H215 C223 0.949 . S
H216 C224 0.950 . S
H217 C225 0.951 . S
H218 C226 0.951 . S
C219 C213 1.265 . S
C219 H214 0.950 . S
C219 C220 1.478 . S
C220 C219 1.478 . S
C220 C221 1.397 . S
C220 C237 1.394 1_554 S
C221 C220 1.397 . S
C221 C222 1.438 . S
C221 C226 1.429 . S
C222 C221 1.438 . S
C222 C223 1.428 . S
C222 C235 1.394 . S
C223 H215 0.949 . S
C223 C222 1.428 . S
C223 C224 1.345 . S
C224 H216 0.950 . S
C224 C223 1.345 . S
C224 C225 1.424 . S
C225 H217 0.951 . S
C225 C224 1.424 . S
C225 C226 1.347 . S
C226 H218 0.951 . S
C226 C221 1.429 . S
C226 C225 1.347 . S
H227 C228 0.951 . S
C228 H227 0.951 . S
C228 C234 1.265 . S
H229 C234 0.950 . S
H230 C238 0.949 . S
H231 C239 0.950 . S
H232 C240 0.951 . S
H233 C241 0.951 . S
C234 C228 1.265 . S
C234 H229 0.950 . S
C234 C235 1.478 . S
C235 C222 1.394 . S
C235 C234 1.478 . S
C235 C236 1.397 1_554 S
C236 C235 1.397 1_556 S
C236 C237 1.438 . S
C236 C241 1.429 . S
C237 C220 1.394 1_556 S
C237 C236 1.438 . S
C237 C238 1.428 . S
C238 H230 0.949 . S
C238 C237 1.428 . S
C238 C239 1.345 . S
C239 H231 0.950 . S
C239 C238 1.345 . S
C239 C240 1.424 . S
C240 H232 0.951 . S
C240 C239 1.424 . S
C240 C241 1.347 . S
C241 H233 0.951 . S
C241 C236 1.429 . S
C241 C240 1.347 . S
H242 C243 0.951 . S
C243 H242 0.951 . S
C243 C249 1.265 1_554 S
H244 C249 0.950 . S
H245 C253 0.949 . S
H246 C254 0.950 . S
H247 C255 0.951 . S
H248 C256 0.951 . S
C249 C243 1.265 1_556 S
C249 H244 0.950 . S
C249 C250 1.478 . S
C250 C249 1.478 . S
C250 C251 1.397 . S
C250 C267 1.394 1_556 S
C251 C250 1.397 . S
C251 C252 1.438 . S
C251 C256 1.429 . S
C252 C251 1.438 . S
C252 C253 1.428 . S
C252 C265 1.394 . S
C253 H245 0.949 . S
C253 C252 1.428 . S
C253 C254 1.345 . S
C254 H246 0.950 . S
C254 C253 1.345 . S
C254 C255 1.424 . S
C255 H247 0.951 . S
C255 C254 1.424 . S
C255 C256 1.347 . S
C256 H248 0.951 . S
C256 C251 1.429 . S
C256 C255 1.347 . S
H257 C258 0.951 . S
C258 H257 0.951 . S
C258 C264 1.265 . S
H259 C264 0.948 1_554 S
H260 C268 0.949 . S
H261 C269 0.950 . S
H262 C270 0.951 . S
H263 C271 0.951 . S
C264 C258 1.265 . S
C264 H259 0.948 1_556 S
C264 C265 1.478 . S
C265 C252 1.394 . S
C265 C264 1.478 . S
C265 C266 1.397 1_556 S
C266 C265 1.397 1_554 S
C266 C267 1.438 . S
C266 C271 1.429 . S
C267 C250 1.394 1_554 S
C267 C266 1.438 . S
C267 C268 1.428 . S
C268 H260 0.949 . S
C268 C267 1.428 . S
C268 C269 1.345 . S
C269 H261 0.950 . S
C269 C268 1.345 . S
C269 C270 1.424 . S
C270 H262 0.951 . S
C270 C269 1.424 . S
C270 C271 1.347 . S
C271 H263 0.951 . S
C271 C266 1.429 . S
C271 C270 1.347 . S
H272 C273 0.951 . S
C273 H272 0.951 . S
C273 C279 1.265 . S
H274 C279 0.950 1_556 S
H275 C283 0.949 . S
H276 C284 0.950 . S
H277 C285 0.951 . S
H278 C286 0.951 . S
C279 C273 1.265 . S
C279 H274 0.950 1_554 S
C279 C280 1.478 . S
C280 C279 1.478 . S
C280 C281 1.397 . S
C280 C297 1.394 1_554 S
C281 C280 1.397 . S
C281 C282 1.438 . S
C281 C286 1.429 . S
C282 C281 1.438 . S
C282 C283 1.428 . S
C282 C295 1.394 . S
C283 H275 0.949 . S
C283 C282 1.428 . S
C283 C284 1.345 . S
C284 H276 0.950 . S
C284 C283 1.345 . S
C284 C285 1.424 . S
C285 H277 0.951 . S
C285 C284 1.424 . S
C285 C286 1.347 . S
C286 H278 0.951 . S
C286 C281 1.429 . S
C286 C285 1.347 . S
H287 C288 0.951 . S
C288 H287 0.951 . S
C288 C294 1.265 . S
H289 C294 0.950 . S
H290 C298 0.949 . S
H291 C299 0.950 . S
H292 C300 0.951 . S
H293 C301 0.951 . S
C294 C288 1.265 . S
C294 H289 0.950 . S
C294 C295 1.478 . S
C295 C282 1.394 . S
C295 C294 1.478 . S
C295 C296 1.397 1_554 S
C296 C295 1.397 1_556 S
C296 C297 1.438 . S
C296 C301 1.429 . S
C297 C280 1.394 1_556 S
C297 C296 1.438 . S
C297 C298 1.428 . S
C298 H290 0.949 . S
C298 C297 1.428 . S
C298 C299 1.345 . S
C299 H291 0.950 . S
C299 C298 1.345 . S
C299 C300 1.424 . S
C300 H292 0.951 . S
C300 C299 1.424 . S
C300 C301 1.347 . S
C301 H293 0.951 . S
C301 C296 1.429 . S
C301 C300 1.347 . S
H302 C303 0.951 . S
C303 H302 0.951 . S
C303 C309 1.267 . S
H304 C309 0.950 . S
H305 C313 0.949 . S
H306 C314 0.950 . S
H307 C315 0.951 . S
H308 C316 0.951 . S
C309 C303 1.267 . S
C309 H304 0.950 . S
C309 C310 1.479 . S
C310 C309 1.479 . S
C310 C311 1.396 1_554 S
C310 C327 1.394 . S
C311 C310 1.396 1_556 S
C311 C312 1.438 . S
C311 C316 1.429 . S
C312 C311 1.438 . S
C312 C313 1.428 . S
C312 C325 1.394 . S
C313 H305 0.949 . S
C313 C312 1.428 . S
C313 C314 1.345 . S
C314 H306 0.950 . S
C314 C313 1.345 . S
C314 C315 1.424 . S
C315 H307 0.951 . S
C315 C314 1.424 . S
C315 C316 1.347 . S
C316 H308 0.951 . S
C316 C311 1.429 . S
C316 C315 1.347 . S
H317 C318 0.951 . S
C318 H317 0.951 . S
C318 C324 1.265 . S
H319 C324 0.950 . S
H320 C328 0.949 . S
H321 C329 0.950 . S
H322 C330 0.951 . S
H323 C331 0.951 . S
C324 C318 1.265 . S
C324 H319 0.950 . S
C324 C325 1.478 . S
C325 C312 1.394 . S
C325 C324 1.478 . S
C325 C326 1.397 1_556 S
C326 C325 1.397 1_554 S
C326 C327 1.438 . S
C326 C331 1.429 . S
C327 C310 1.394 . S
C327 C326 1.438 . S
C327 C328 1.428 . S
C328 H320 0.949 . S
C328 C327 1.428 . S
C328 C329 1.345 . S
C329 H321 0.950 . S
C329 C328 1.345 . S
C329 C330 1.424 . S
C330 H322 0.951 . S
C330 C329 1.424 . S
C330 C331 1.347 . S
C331 H323 0.951 . S
C331 C326 1.429 . S
C331 C330 1.347 . S
H332 C333 0.951 . S
C333 H332 0.951 . S
C333 C339 1.265 . S
H334 C339 0.950 . S
H335 C343 0.949 . S
H336 C344 0.950 . S
H337 C345 0.951 . S
H338 C346 0.951 . S
C339 C333 1.265 . S
C339 H334 0.950 . S
C339 C340 1.478 . S
C340 C339 1.478 . S
C340 C341 1.397 . S
C340 C357 1.394 . S
C341 C340 1.397 . S
C341 C342 1.438 . S
C341 C346 1.429 . S
C342 C341 1.438 . S
C342 C343 1.428 . S
C342 C355 1.394 . S
C343 H335 0.949 . S
C343 C342 1.428 . S
C343 C344 1.345 . S
C344 H336 0.950 . S
C344 C343 1.345 . S
C344 C345 1.424 . S
C345 H337 0.951 . S
C345 C344 1.424 . S
C345 C346 1.347 . S
C346 H338 0.951 . S
C346 C341 1.429 . S
C346 C345 1.347 . S
H347 C348 0.951 . S
C348 H347 0.951 . S
C348 C354 1.265 . S
H349 C354 0.950 . S
H350 C358 0.949 . S
H351 C359 0.950 . S
H352 C360 0.951 . S
H353 C361 0.951 . S
C354 C348 1.265 . S
C354 H349 0.950 . S
C354 C355 1.478 . S
C355 C342 1.394 . S
C355 C354 1.478 . S
C355 C356 1.397 . S
C356 C355 1.397 . S
C356 C357 1.438 . S
C356 C361 1.429 . S
C357 C340 1.394 . S
C357 C356 1.438 . S
C357 C358 1.428 . S
C358 H350 0.949 . S
C358 C357 1.428 . S
C358 C359 1.345 . S
C359 H351 0.950 . S
C359 C358 1.345 . S
C359 C360 1.424 . S
C360 H352 0.951 . S
C360 C359 1.424 . S
C360 C361 1.347 . S
C361 H353 0.951 . S
C361 C356 1.429 . S
C361 C360 1.347 . S
H362 C363 0.951 . S
C363 H362 0.951 . S
C363 C369 1.265 . S
H364 C369 0.950 . S
H365 C373 0.949 . S
H366 C374 0.950 . S
H367 C375 0.951 . S
H368 C376 0.951 . S
C369 C363 1.265 . S
C369 H364 0.950 . S
C369 C370 1.478 . S
C370 C369 1.478 . S
C370 C371 1.397 . S
C370 C387 1.394 . S
C371 C370 1.397 . S
C371 C372 1.438 . S
C371 C376 1.429 . S
C372 C371 1.438 . S
C372 C373 1.428 . S
C372 C385 1.394 . S
C373 H365 0.949 . S
C373 C372 1.428 . S
C373 C374 1.345 . S
C374 H366 0.950 . S
C374 C373 1.345 . S
C374 C375 1.424 . S
C375 H367 0.951 . S
C375 C374 1.424 . S
C375 C376 1.347 . S
C376 H368 0.951 . S
C376 C371 1.429 . S
C376 C375 1.347 . S
H377 C378 0.951 . S
C378 H377 0.951 . S
C378 C384 1.265 . S
H379 C384 0.950 . S
H380 C388 0.949 . S
H381 C389 0.950 . S
H382 C390 0.951 . S
H383 C391 0.951 . S
C384 C378 1.265 . S
C384 H379 0.950 . S
C384 C385 1.478 . S
C385 C372 1.394 . S
C385 C384 1.478 . S
C385 C386 1.397 . S
C386 C385 1.397 . S
C386 C387 1.438 . S
C386 C391 1.429 . S
C387 C370 1.394 . S
C387 C386 1.438 . S
C387 C388 1.428 . S
C388 H380 0.949 . S
C388 C387 1.428 . S
C388 C389 1.345 . S
C389 H381 0.950 . S
C389 C388 1.345 . S
C389 C390 1.424 . S
C390 H382 0.951 . S
C390 C389 1.424 . S
C390 C391 1.347 . S
C391 H383 0.951 . S
C391 C386 1.429 . S
C391 C390 1.347 . S
H392 C393 0.951 . S
C393 H392 0.951 . S
C393 C399 1.265 . S
H394 C399 0.950 . S
H395 C403 0.949 . S
H396 C404 0.950 . S
H397 C405 0.951 . S
H398 C406 0.951 . S
C399 C393 1.265 . S
C399 H394 0.950 . S
C399 C400 1.478 . S
C400 C399 1.478 . S
C400 C401 1.397 . S
C400 C417 1.394 . S
C401 C400 1.397 . S
C401 C402 1.438 . S
C401 C406 1.429 . S
C402 C401 1.438 . S
C402 C403 1.428 . S
C402 C415 1.394 . S
C403 H395 0.949 . S
C403 C402 1.428 . S
C403 C404 1.345 . S
C404 H396 0.950 . S
C404 C403 1.345 . S
C404 C405 1.424 . S
C405 H397 0.951 . S
C405 C404 1.424 . S
C405 C406 1.347 . S
C406 H398 0.951 . S
C406 C401 1.429 . S
C406 C405 1.347 . S
H407 C408 0.951 . S
C408 H407 0.951 . S
C408 C414 1.265 . S
H409 C414 0.950 . S
H410 C418 0.949 . S
H411 C419 0.950 . S
H412 C420 0.951 . S
H413 C421 0.951 . S
C414 C408 1.265 . S
C414 H409 0.950 . S
C414 C415 1.478 . S
C415 C402 1.394 . S
C415 C414 1.478 . S
C415 C416 1.397 . S
C416 C415 1.397 . S
C416 C417 1.438 . S
C416 C421 1.429 . S
C417 C400 1.394 . S
C417 C416 1.438 . S
C417 C418 1.428 . S
C418 H410 0.949 . S
C418 C417 1.428 . S
C418 C419 1.345 . S
C419 H411 0.950 . S
C419 C418 1.345 . S
C419 C420 1.424 . S
C420 H412 0.951 . S
C420 C419 1.424 . S
C420 C421 1.347 . S
C421 H413 0.951 . S
C421 C416 1.429 . S
C421 C420 1.347 . S
H422 C423 0.951 . S
C423 H422 0.951 . S
C423 C429 1.265 . S
H424 C429 0.950 . S
H425 C433 0.949 . S
H426 C434 0.950 . S
H427 C435 0.951 . S
H428 C436 0.951 . S
C429 C423 1.265 . S
C429 H424 0.950 . S
C429 C430 1.478 . S
C430 C429 1.478 . S
C430 C431 1.397 . S
C430 C447 1.394 . S
C431 C430 1.397 . S
C431 C432 1.438 . S
C431 C436 1.429 . S
C432 C431 1.438 . S
C432 C433 1.428 . S
C432 C445 1.394 . S
C433 H425 0.949 . S
C433 C432 1.428 . S
C433 C434 1.345 . S
C434 H426 0.950 . S
C434 C433 1.345 . S
C434 C435 1.424 . S
C435 H427 0.951 . S
C435 C434 1.424 . S
C435 C436 1.347 . S
C436 H428 0.951 . S
C436 C431 1.429 . S
C436 C435 1.347 . S
H437 C438 0.951 . S
C438 H437 0.951 . S
C438 C444 1.265 . S
H439 C444 0.950 . S
H440 C448 0.949 . S
H441 C449 0.950 . S
H442 C450 0.951 . S
H443 C451 0.951 . S
C444 C438 1.265 . S
C444 H439 0.950 . S
C444 C445 1.478 . S
C445 C432 1.394 . S
C445 C444 1.478 . S
C445 C446 1.397 . S
C446 C445 1.397 . S
C446 C447 1.438 . S
C446 C451 1.429 . S
C447 C430 1.394 . S
C447 C446 1.438 . S
C447 C448 1.428 . S
C448 H440 0.949 . S
C448 C447 1.428 . S
C448 C449 1.345 . S
C449 H441 0.950 . S
C449 C448 1.345 . S
C449 C450 1.424 . S
C450 H442 0.951 . S
C450 C449 1.424 . S
C450 C451 1.347 . S
C451 H443 0.951 . S
C451 C446 1.429 . S
C451 C450 1.347 . S
H452 C453 0.951 1_565 S
C453 H452 0.951 1_545 S
C453 C459 1.265 1_655 S
H454 C459 0.950 . S
H455 C463 0.949 . S
H456 C464 0.950 . S
H457 C465 0.951 . S
H458 C466 0.951 . S
C459 C453 1.265 1_455 S
C459 H454 0.950 . S
C459 C460 1.478 . S
C460 C459 1.478 . S
C460 C461 1.397 . S
C460 C477 1.394 1_445 S
C461 C460 1.397 . S
C461 C462 1.438 . S
C461 C466 1.429 . S
C462 C461 1.438 . S
C462 C463 1.428 . S
C462 C475 1.396 1_455 S
C463 H455 0.949 . S
C463 C462 1.428 . S
C463 C464 1.345 . S
C464 H456 0.950 . S
C464 C463 1.345 . S
C464 C465 1.424 . S
C465 H457 0.951 . S
C465 C464 1.424 . S
C465 C466 1.347 . S
C466 H458 0.951 . S
C466 C461 1.429 . S
C466 C465 1.347 . S
H467 C468 0.951 . S
C468 H467 0.951 . S
C468 C474 1.265 1_445 S
H469 C474 0.950 . S
H470 C478 0.945 1_455 S
H471 C479 0.950 . S
H472 C480 0.951 . S
H473 C481 0.951 . S
C474 C468 1.265 1_665 S
C474 H469 0.950 . S
C474 C475 1.478 1_565 S
C475 C462 1.396 1_655 S
C475 C474 1.478 1_545 S
C475 C476 1.395 1_545 S
C476 C475 1.395 1_565 S
C476 C477 1.438 . S
C476 C481 1.429 . S
C477 C460 1.394 1_665 S
C477 C476 1.438 . S
C477 C478 1.428 . S
C478 H470 0.945 1_655 S
C478 C477 1.428 . S
C478 C479 1.345 . S
C479 H471 0.950 . S
C479 C478 1.345 . S
C479 C480 1.424 . S
C480 H472 0.951 . S
C480 C479 1.424 . S
C480 C481 1.347 . S
C481 H473 0.951 . S
C481 C476 1.429 . S
C481 C480 1.347 . S
H482 C483 0.951 . S
C483 H482 0.951 . S
C483 C489 1.265 1_455 S
H484 C489 0.950 . S
H485 C493 0.949 . S
H486 C494 0.950 . S
H487 C495 0.951 . S
H488 C496 0.951 . S
C489 C483 1.265 1_655 S
C489 H484 0.950 . S
C489 C490 1.478 1_655 S
C490 C489 1.478 1_455 S
C490 C491 1.397 1_455 S
C490 C507 1.394 1_545 S
C491 C490 1.397 1_655 S
C491 C492 1.438 1_655 S
C491 C496 1.429 . S
C492 C491 1.438 1_455 S
C492 C493 1.428 1_455 S
C492 C505 1.394 . S
C493 H485 0.949 . S
C493 C492 1.428 1_655 S
C493 C494 1.345 . S
C494 H486 0.950 . S
C494 C493 1.345 . S
C494 C495 1.424 . S
C495 H487 0.951 . S
C495 C494 1.424 . S
C495 C496 1.347 . S
C496 H488 0.951 . S
C496 C491 1.429 . S
C496 C495 1.347 . S
H497 C498 0.951 1_655 S
C498 H497 0.951 1_455 S
C498 C504 1.265 . S
H499 C504 0.950 . S
H500 C508 0.949 . S
H501 C509 0.950 . S
H502 C510 0.951 . S
H503 C511 0.951 . S
C504 C498 1.265 . S
C504 H499 0.950 . S
C504 C505 1.478 . S
C505 C492 1.394 . S
C505 C504 1.478 . S
C505 C506 1.397 1_545 S
C506 C505 1.397 1_565 S
C506 C507 1.438 . S
C506 C511 1.429 . S
C507 C490 1.394 1_565 S
C507 C506 1.438 . S
C507 C508 1.428 . S
C508 H500 0.949 . S
C508 C507 1.428 . S
C508 C509 1.345 . S
C509 H501 0.950 . S
C509 C508 1.345 . S
C509 C510 1.424 . S
C510 H502 0.951 . S
C510 C509 1.424 . S
C510 C511 1.347 . S
C511 H503 0.951 . S
C511 C506 1.429 . S
C511 C510 1.347 . S
H512 C513 0.951 . S
C513 H512 0.951 . S
C513 C519 1.265 . S
H514 C519 0.950 . S
H515 C523 0.949 . S
H516 C524 0.950 . S
H517 C525 0.951 . S
H518 C526 0.951 . S
C519 C513 1.265 . S
C519 H514 0.950 . S
C519 C520 1.478 . S
C520 C519 1.478 . S
C520 C521 1.397 . S
C520 C537 1.394 . S
C521 C520 1.397 . S
C521 C522 1.438 . S
C521 C526 1.429 . S
C522 C521 1.438 . S
C522 C523 1.428 . S
C522 C535 1.394 . S
C523 H515 0.949 . S
C523 C522 1.428 . S
C523 C524 1.345 . S
C524 H516 0.950 . S
C524 C523 1.345 . S
C524 C525 1.424 . S
C525 H517 0.951 . S
C525 C524 1.424 . S
C525 C526 1.347 . S
C526 H518 0.951 . S
C526 C521 1.429 . S
C526 C525 1.347 . S
H527 C528 0.951 . S
C528 H527 0.951 . S
C528 C534 1.265 . S
H529 C534 0.950 . S
H530 C538 0.949 . S
H531 C539 0.950 . S
H532 C540 0.951 . S
H533 C541 0.951 . S
C534 C528 1.265 . S
C534 H529 0.950 . S
C534 C535 1.478 . S
C535 C522 1.394 . S
C535 C534 1.478 . S
C535 C536 1.397 . S
C536 C535 1.397 . S
C536 C537 1.438 . S
C536 C541 1.429 . S
C537 C520 1.394 . S
C537 C536 1.438 . S
C537 C538 1.428 . S
C538 H530 0.949 . S
C538 C537 1.428 . S
C538 C539 1.345 . S
C539 H531 0.950 . S
C539 C538 1.345 . S
C539 C540 1.424 . S
C540 H532 0.951 . S
C540 C539 1.424 . S
C540 C541 1.347 . S
C541 H533 0.951 . S
C541 C536 1.429 . S
C541 C540 1.347 . S
H542 C543 0.951 . S
C543 H542 0.951 . S
C543 C549 1.265 . S
H544 C549 0.950 . S
H545 C553 0.949 . S
H546 C554 0.950 . S
H547 C555 0.951 . S
H548 C556 0.951 . S
C549 C543 1.265 . S
C549 H544 0.950 . S
C549 C550 1.478 . S
C550 C549 1.478 . S
C550 C551 1.397 . S
C550 C567 1.394 . S
C551 C550 1.397 . S
C551 C552 1.438 . S
C551 C556 1.429 . S
C552 C551 1.438 . S
C552 C553 1.428 . S
C552 C565 1.394 . S
C553 H545 0.949 . S
C553 C552 1.428 . S
C553 C554 1.345 . S
C554 H546 0.950 . S
C554 C553 1.345 . S
C554 C555 1.424 . S
C555 H547 0.951 . S
C555 C554 1.424 . S
C555 C556 1.347 . S
C556 H548 0.951 . S
C556 C551 1.429 . S
C556 C555 1.347 . S
H557 C558 0.951 . S
C558 H557 0.951 . S
C558 C564 1.265 . S
H559 C564 0.950 . S
H560 C568 0.949 . S
H561 C569 0.950 . S
H562 C570 0.951 . S
H563 C571 0.951 . S
C564 C558 1.265 . S
C564 H559 0.950 . S
C564 C565 1.478 . S
C565 C552 1.394 . S
C565 C564 1.478 . S
C565 C566 1.397 . S
C566 C565 1.397 . S
C566 C567 1.438 . S
C566 C571 1.429 . S
C567 C550 1.394 . S
C567 C566 1.438 . S
C567 C568 1.428 . S
C568 H560 0.949 . S
C568 C567 1.428 . S
C568 C569 1.345 . S
C569 H561 0.950 . S
C569 C568 1.345 . S
C569 C570 1.424 . S
C570 H562 0.951 . S
C570 C569 1.424 . S
C570 C571 1.347 . S
C571 H563 0.951 . S
C571 C566 1.429 . S
C571 C570 1.347 . S
C228 C177 1.449 . S
C213 C29 1.473 . S
C243 C8 1.453 . S
C258 C141 1.440 . S
C273 C0 1.449 . S
C288 C201 1.397 . S
C303 C17 1.453 . S
C318 C165 1.395 . S
C333 C63 1.474 . S
C348 C105 1.444 . S
C363 C42 1.453 . S
C378 C69 1.435 . S
C408 C129 1.381 . S
C393 C34 1.450 . S
C438 C93 1.387 . S
C423 C51 1.454 . S
C453 C4 1.480 1_655 S
C468 C99 1.460 . S
C483 C13 1.479 . S
C498 C135 1.475 . S
C528 C171 1.479 . S
C513 C38 1.469 . S
C543 C47 1.478 . S
C558 C207 1.476 . S
