# Generated by pormake.
# Topology tsx, (6,3)-cn, num edge types: 1
# Building blocks:
#     Node 0, Type 0, BuildingBlock: JUFBIX_clean_sbu_0, # of connection points: 6
#     Node 1, Type 0, BuildingBlock: JUFBIX_clean_sbu_0, # of connection points: 6
#     Node 2, Type 1, BuildingBlock: KAKCAD_clean_linker_0, # of connection points: 3
#     Node 3, Type 1, BuildingBlock: KAKCAD_clean_linker_0, # of connection points: 3
#     Node 4, Type 1, BuildingBlock: KAKCAD_clean_linker_0, # of connection points: 3
#     Node 5, Type 1, BuildingBlock: KAKCAD_clean_linker_0, # of connection points: 3
#     Edge 6, Type (0, 1), BuildingBlock: ZUJKAS_clean_linker_0, # of connection points: 2
#     Edge 7, Type (0, 1), BuildingBlock: ZUJKAS_clean_linker_0, # of connection points: 2
#     Edge 8, Type (0, 1), BuildingBlock: ZUJKAS_clean_linker_0, # of connection points: 2
#     Edge 9, Type (0, 1), BuildingBlock: ZUJKAS_clean_linker_0, # of connection points: 2
#     Edge 10, Type (0, 1), BuildingBlock: ZUJKAS_clean_linker_0, # of connection points: 2
#     Edge 11, Type (0, 1), BuildingBlock: ZUJKAS_clean_linker_0, # of connection points: 2
#     Edge 12, Type (0, 1), BuildingBlock: ZUJKAS_clean_linker_0, # of connection points: 2
#     Edge 13, Type (0, 1), BuildingBlock: ZUJKAS_clean_linker_0, # of connection points: 2
#     Edge 14, Type (0, 1), BuildingBlock: ZUJKAS_clean_linker_0, # of connection points: 2
#     Edge 15, Type (0, 1), BuildingBlock: ZUJKAS_clean_linker_0, # of connection points: 2
#     Edge 16, Type (0, 1), BuildingBlock: ZUJKAS_clean_linker_0, # of connection points: 2
#     Edge 17, Type (0, 1), BuildingBlock: ZUJKAS_clean_linker_0, # of connection points: 2
# Relax obj value: 0.158
# Max RMSD: 0.165
# Mean RMSD: 0.132
data_MOF--net-tsx--node1-JUFBIX_clean_sbu_0--node2-KAKCAD_clean_linker_0--edge1-ZUJKAS_clean_linker_0
_symmetry_space_group_name_H-M    P1
_symmetry_Int_Tables_number       1
_symmetry_cell_setting            triclinic
loop_
_symmetry_equiv_pos_as_xyz
'x, y, z'
_cell_length_a     29.611993
_cell_length_b     35.125344
_cell_length_c     54.327647
_cell_angle_alpha  92.52174
_cell_angle_beta   89.647377
_cell_angle_gamma 96.296825
loop_
_atom_site_label
_atom_site_type_symbol
_atom_site_fract_x
_atom_site_fract_y
_atom_site_fract_z
_atom_type_partial_charge
Co0 Co 0.03597 0.9916 0.00894 0.0
C1 C 0.9973 0.01284 0.96509 0.0
Co2 Co 0.97754 0.02545 0.01368 0.0
C3 C 0.09689 0.93207 0.01136 0.0
C4 C 0.1214 0.97741 0.98802 0.0
N5 N 0.08639 0.96559 0.00282 0.0
N6 N 0.13728 0.92277 0.00257 0.0
C7 C 0.15266 0.95131 0.98787 0.0
H8 H 0.07549 0.91502 0.0239 0.0
H9 H 0.12386 0.0033 0.97779 0.0
C10 C 0.01637 0.00431 0.05758 0.0
N11 N 0.9273 0.05151 0.02014 0.0
C12 C 0.91479 0.08353 0.01042 0.0
C13 C 0.89623 0.04267 0.03786 0.0
N14 N 0.87761 0.09517 0.02173 0.0
C15 C 0.86588 0.06954 0.03897 0.0
C16 C 0.95463 0.94603 0.01006 0.0
O17 O 0.04349 0.98804 0.04345 0.0
O18 O 0.98597 0.02198 0.04815 0.0
O19 O 0.93955 0.97845 0.01281 0.0
O20 O 0.9972 0.94461 0.0079 0.0
O21 O 0.96981 0.02867 0.97924 0.0
H22 H 0.89615 0.01854 0.04957 0.0
H23 H 0.93334 0.09865 0.99591 0.0
O24 O 0.02806 0.99541 0.97444 0.0
O25 O 0.07403 0.03895 0.01011 0.0
O26 O 0.01584 0.0723 0.01432 0.0
C27 C 0.05844 0.07123 0.01232 0.0
H28 H 0.18385 0.9528 0.97729 0.0
H29 H 0.8373 0.07022 0.05146 0.0
Co30 Co 0.53284 0.48944 0.5094 0.0
C31 C 0.49567 0.51149 0.46542 0.0
Co32 Co 0.47432 0.52316 0.51395 0.0
C33 C 0.59466 0.43034 0.51173 0.0
C34 C 0.61929 0.47699 0.48942 0.0
N35 N 0.58381 0.46402 0.50358 0.0
N36 N 0.63578 0.42219 0.50337 0.0
C37 C 0.65123 0.45152 0.48933 0.0
H38 H 0.57307 0.41239 0.5237 0.0
H39 H 0.62167 0.50327 0.47961 0.0
C40 C 0.51169 0.50146 0.55799 0.0
N41 N 0.42369 0.54878 0.51995 0.0
C42 C 0.41262 0.58169 0.51082 0.0
C43 C 0.39043 0.53855 0.53621 0.0
N44 N 0.374 0.59251 0.521 0.0
C45 C 0.35996 0.56535 0.53693 0.0
C46 C 0.45191 0.44357 0.50951 0.0
O47 O 0.53936 0.4856 0.54398 0.0
O48 O 0.48127 0.51898 0.54845 0.0
O49 O 0.43668 0.47593 0.51222 0.0
O50 O 0.49456 0.44224 0.50785 0.0
O51 O 0.46804 0.52726 0.4795 0.0
H52 H 0.38879 0.51339 0.54712 0.0
H53 H 0.43313 0.59789 0.49749 0.0
O54 O 0.52592 0.49357 0.47483 0.0
O55 O 0.57049 0.53705 0.51109 0.0
O56 O 0.51222 0.5702 0.51544 0.0
C57 C 0.55483 0.56925 0.51356 0.0
H58 H 0.68297 0.45397 0.47924 0.0
H59 H 0.32965 0.56476 0.54821 0.0
C60 C 0.99693 0.96813 0.33365 0.0
C61 C 0.01022 0.00234 0.32175 0.0
C62 C 0.99362 0.96802 0.3593 0.0
C63 C 0.00321 0.00214 0.37368 0.0
C64 C 0.01565 0.0365 0.36186 0.0
C65 C 0.01928 0.03659 0.33617 0.0
C66 C 0.00139 0.00149 0.40097 0.0
C67 C 0.02112 0.97312 0.41312 0.0
C68 C 0.01959 0.9716 0.43891 0.0
C69 C 0.99792 -0.00081 0.45271 0.0
C70 C 0.97807 0.02801 0.44078 0.0
C71 C 0.98014 0.02896 0.41492 0.0
C72 C 0.9543 0.05695 0.45495 0.0
C73 C 0.92184 0.04587 0.473 0.0
C74 C 0.96174 0.09572 0.44919 0.0
C75 C 0.93609 0.12261 0.46047 0.0
C76 C 0.90223 0.11141 0.47776 0.0
C77 C 0.04207 0.94154 0.45091 0.0
C78 C 0.03748 0.9039 0.44063 0.0
C79 C 0.07175 0.9508 0.47092 0.0
C80 C 0.09851 0.92353 0.47937 0.0
C81 C 0.09604 0.88672 0.46785 0.0
C82 C 0.06425 0.87686 0.44894 0.0
C83 C 0.89584 0.07283 0.4842 0.0
H84 H 0.9887 0.94137 0.32315 0.0
H85 H 0.98326 0.94119 0.36789 0.0
H86 H 0.02369 0.06317 0.37251 0.0
H87 H 0.03013 0.06338 0.32766 0.0
H88 H 0.0389 0.95264 0.4024 0.0
H89 H 0.96405 0.05053 0.40556 0.0
H90 H 0.99657 0.99828 0.47262 0.0
H91 H 0.9153 0.01613 0.47774 0.0
H92 H 0.98684 0.10513 0.43552 0.0
H93 H 0.9416 0.15198 0.45486 0.0
H94 H 0.01416 0.89568 0.42555 0.0
H95 H 0.07608 0.97961 0.47916 0.0
H96 H 0.87026 0.0634 0.49761 0.0
H97 H 0.06089 0.84842 0.44013 0.0
H98 H 0.12273 0.93183 0.49401 0.0
C99 C 0.00331 0.05277 0.68771 0.0
C100 C 0.00545 0.01956 0.70101 0.0
C101 C 0.00489 0.05099 0.66196 0.0
C102 C 0.00841 0.01594 0.64896 0.0
C103 C 0.01096 0.98283 0.66227 0.0
C104 C 0.00954 0.98463 0.68798 0.0
C105 C 0.00832 0.01364 0.62159 0.0
C106 C 0.03382 0.0417 0.60813 0.0
C107 C 0.03343 0.03972 0.5822 0.0
C108 C 0.00685 0.00937 0.56972 0.0
C109 C 0.98132 0.98107 0.58296 0.0
C110 C 0.98231 0.98337 0.60882 0.0
C111 C 0.95237 0.94944 0.57013 0.0
C112 C 0.9206 0.9571 0.55243 0.0
C113 C 0.95394 0.91158 0.57701 0.0
C114 C 0.92284 0.88215 0.56732 0.0
C115 C 0.88906 0.89002 0.55077 0.0
C116 C 0.06151 0.06914 0.56835 0.0
C117 C 0.06306 0.10805 0.5758 0.0
C118 C 0.08856 0.05847 0.54839 0.0
C119 C 0.11791 0.08607 0.53676 0.0
C120 C 0.12045 0.12486 0.54475 0.0
C121 C 0.09215 0.13559 0.56413 0.0
C122 C 0.88906 0.92766 0.5429 0.0
H123 H 1.00058 0.08018 0.69722 0.0
H124 H 0.0025 0.07694 0.65221 0.0
H125 H 0.01414 0.95547 0.65279 0.0
H126 H 0.01082 0.95846 0.69766 0.0
H127 H 0.05496 0.0646 0.61786 0.0
H128 H 0.96161 0.96206 0.61903 0.0
H129 H 0.00598 0.00774 0.54975 0.0
H130 H 0.91867 0.98614 0.54691 0.0
H131 H 0.97865 0.90489 0.59033 0.0
H132 H 0.92461 0.85332 0.57326 0.0
H133 H 0.0422 0.11715 0.59094 0.0
H134 H 0.08819 0.02865 0.54232 0.0
H135 H 0.86338 0.93477 0.53029 0.0
H136 H 0.09364 0.16516 0.57092 0.0
H137 H 0.13906 0.07701 0.52175 0.0
C138 C 0.49778 0.46957 0.83468 0.0
C139 C 0.50933 0.50383 0.82257 0.0
C140 C 0.49542 0.46973 0.86037 0.0
C141 C 0.50431 0.50417 0.87453 0.0
C142 C 0.51526 0.53853 0.86245 0.0
C143 C 0.51795 0.53834 0.83672 0.0
C144 C 0.50292 0.50391 0.90185 0.0
C145 C 0.52331 0.476 0.91412 0.0
C146 C 0.52137 0.47438 0.93992 0.0
C147 C 0.49909 0.50178 0.95358 0.0
C148 C 0.47893 0.53037 0.94156 0.0
C149 C 0.48103 0.5311 0.91569 0.0
C150 C 0.45465 0.55917 0.95566 0.0
C151 C 0.42385 0.54814 0.97452 0.0
C152 C 0.46015 0.59771 0.94922 0.0
C153 C 0.43422 0.62431 0.96063 0.0
C154 C 0.4021 0.6131 0.97883 0.0
C155 C 0.54339 0.44411 0.95212 0.0
C156 C 0.54084 0.4069 0.94122 0.0
C157 C 0.56964 0.45253 0.97355 0.0
C158 C 0.59449 0.42483 0.9831 0.0
C159 C 0.59374 0.38817 0.97138 0.0
C160 C 0.56591 0.37947 0.95056 0.0
C161 C 0.39772 0.57482 0.98593 0.0
H162 H 0.4913 0.44249 0.82431 0.0
H163 H 0.48646 0.44284 0.86916 0.0
H164 H 0.52254 0.56547 0.8729 0.0
H165 H 0.52651 0.56524 0.82789 0.0
H166 H 0.54163 0.45586 0.90346 0.0
H167 H 0.4644 0.55223 0.90622 0.0
H168 H 0.49739 0.50086 0.97348 0.0
H169 H 0.41872 0.51861 0.97983 0.0
H170 H 0.48403 0.60721 0.93499 0.0
H171 H 0.43822 0.65341 0.9545 0.0
H172 H 0.52023 0.39917 0.92498 0.0
H173 H 0.57237 0.48093 0.9824 0.0
H174 H 0.37364 0.56535 1.00007 0.0
H175 H 0.56466 0.35185 0.94078 0.0
H176 H 0.61486 0.43238 0.99944 0.0
C177 C 0.49914 0.55561 0.18767 0.0
C178 C 0.504 0.52314 0.2013 0.0
C179 C 0.50154 0.5536 0.16194 0.0
C180 C 0.50842 0.519 0.14925 0.0
C181 C 0.51365 0.48663 0.1628 0.0
C182 C 0.5117 0.48871 0.18851 0.0
C183 C 0.50905 0.5164 0.12193 0.0
C184 C 0.53429 0.5447 0.10856 0.0
C185 C 0.53449 0.54257 0.08264 0.0
C186 C 0.50852 0.51191 0.07009 0.0
C187 C 0.48318 0.4834 0.08326 0.0
C188 C 0.48386 0.48573 0.10913 0.0
C189 C 0.45456 0.45165 0.07032 0.0
C190 C 0.42323 0.45919 0.05235 0.0
C191 C 0.45598 0.41382 0.07731 0.0
C192 C 0.42517 0.38432 0.06744 0.0
C193 C 0.39183 0.39207 0.05059 0.0
C194 C 0.56261 0.57209 0.06887 0.0
C195 C 0.56412 0.61097 0.07638 0.0
C196 C 0.58986 0.56153 0.04897 0.0
C197 C 0.61937 0.58917 0.03748 0.0
C198 C 0.62197 0.62792 0.04558 0.0
C199 C 0.59344 0.63856 0.06489 0.0
C200 C 0.39199 0.42968 0.04263 0.0
H201 H 0.49252 0.58244 0.19683 0.0
H202 H 0.49689 0.57889 0.15194 0.0
H203 H 0.5196 0.45972 0.15349 0.0
H204 H 0.51658 0.46335 0.19836 0.0
H205 H 0.55477 0.5679 0.11841 0.0
H206 H 0.46345 0.46423 0.11934 0.0
H207 H 0.50797 0.51022 0.05012 0.0
H208 H 0.42138 0.48819 0.04674 0.0
H209 H 0.48036 0.40722 0.09085 0.0
H210 H 0.42682 0.35552 0.07347 0.0
H211 H 0.54309 0.62004 0.09145 0.0
H212 H 0.58954 0.53173 0.04283 0.0
H213 H 0.36664 0.43671 0.0298 0.0
H214 H 0.59493 0.66808 0.07177 0.0
H215 H 0.64064 0.58016 0.02251 0.0
H216 H 0.03706 0.14437 0.00748 0.0
H217 H 0.08946 0.20335 0.00737 0.0
H218 H 0.20232 0.13785 0.01798 0.0
H219 H 0.15053 0.07887 0.01724 0.0
H220 H 0.14237 0.23565 0.04255 0.0
H221 H 0.25127 0.20297 0.96337 0.0
H222 H 0.19811 0.17456 0.96939 0.0
H223 H 0.24929 0.16571 0.98496 0.0
C224 C 0.0731 0.14256 0.00959 0.0
C225 C 0.08972 0.10699 0.0123 0.0
C226 C 0.103 0.17625 0.00945 0.0
C227 C 0.14995 0.17496 0.0121 0.0
C228 C 0.16645 0.13948 0.01506 0.0
H229 H 0.34791 0.33747 0.079 0.0
H230 H 0.28726 0.28791 0.067 0.0
C231 C 0.13671 0.10579 0.0149 0.0
C232 C 0.18149 0.21081 0.01365 0.0
H233 H 0.28432 0.2512 0.99329 0.0
C234 C 0.17301 0.23932 0.03147 0.0
C235 C 0.22099 0.21615 0.99882 0.0
C236 C 0.23015 0.18837 0.97788 0.0
C237 C 0.20427 0.2718 0.0359 0.0
C238 C 0.24572 0.27529 0.02267 0.0
C239 C 0.25292 0.2481 0.00377 0.0
C240 C 0.28318 0.30532 0.02943 0.0
C241 C 0.19277 0.30182 0.05496 0.0
C242 C 0.30241 0.33066 0.01199 0.0
C243 C 0.33806 0.35869 0.01866 0.0
C244 C 0.3552 0.36162 0.04286 0.0
C245 C 0.33611 0.33576 0.06011 0.0
C246 C 0.30081 0.30776 0.0534 0.0
H247 H 0.15541 0.30205 0.05683 0.0
H248 H 0.20611 0.29515 0.07313 0.0
H249 H 0.208 0.33091 0.05025 0.0
H250 H 0.28963 0.32892 0.99328 0.0
H251 H 0.35235 0.37787 0.00487 0.0
H252 H 0.22756 0.91743 0.003 0.0
H253 H 0.26504 0.85927 0.00608 0.0
H254 H 0.13496 0.7933 0.01549 0.0
H255 H 0.09699 0.85158 0.01195 0.0
H256 H 0.26206 0.80371 0.04397 0.0
H257 H 0.19226 0.74237 0.95395 0.0
H258 H 0.19142 0.7923 0.96312 0.0
H259 H 0.15215 0.75653 0.97664 0.0
C260 C 0.20688 0.89058 0.00572 0.0
C261 C 0.15926 0.88903 0.00689 0.0
C262 C 0.22837 0.85742 0.00767 0.0
C263 C 0.20275 0.82195 0.0107 0.0
C264 C 0.1553 0.82039 0.01287 0.0
H265 H 0.31072 0.60047 0.98808 0.0
H266 H 0.25934 0.64795 0.00037 0.0
C267 C 0.13369 0.85371 0.01103 0.0
C268 C 0.22608 0.78668 0.01026 0.0
H269 H 0.24409 0.70821 0.97373 0.0
C270 C 0.25778 0.78252 0.02879 0.0
C271 C 0.2203 0.75908 0.99047 0.0
C272 C 0.18745 0.76267 0.96977 0.0
C273 C 0.28466 0.75192 0.02775 0.0
C274 C 0.2804 0.7253 0.00735 0.0
C275 C 0.24736 0.72863 0.98936 0.0
C276 C 0.31211 0.69568 0.00314 0.0
C277 C 0.31754 0.74858 0.04844 0.0
C278 C 0.35895 0.7066 0.00089 0.0
C279 C 0.38843 0.6795 0.99409 0.0
C280 C 0.37166 0.64091 0.9891 0.0
C281 C 0.32489 0.62981 0.99209 0.0
C282 C 0.2954 0.65697 0.99896 0.0
H283 H 0.30596 0.76206 0.06591 0.0
H284 H 0.32194 0.71816 0.05152 0.0
H285 H 0.3511 0.76378 0.0437 0.0
H286 H 0.37259 0.73639 0.00347 0.0
H287 H 0.42429 0.68896 0.99217 0.0
H288 H 0.8623 0.9409 0.0111 0.0
H289 H 0.80879 0.88326 0.01312 0.0
H290 H 0.91985 0.8134 0.01094 0.0
H291 H 0.97415 0.87126 0.00862 0.0
H292 H 0.8421 0.78506 0.98005 0.0
H293 H 0.79384 0.8217 0.07637 0.0
H294 H 0.78992 0.85959 0.05561 0.0
H295 H 0.84442 0.84414 0.06194 0.0
C296 C 0.87552 0.91333 0.01095 0.0
C297 C 0.92255 0.91068 0.00995 0.0
C298 C 0.84483 0.88043 0.01214 0.0
C299 C 0.86047 0.84423 0.01257 0.0
C300 C 0.90724 0.8412 0.01074 0.0
H301 H 0.71096 0.62053 0.03457 0.0
H302 H 0.76992 0.67121 0.02339 0.0
C303 C 0.93814 0.87423 0.00948 0.0
C304 C 0.82765 0.80994 0.01577 0.0
H305 H 0.74675 0.77173 0.05527 0.0
C306 C 0.82147 0.78184 0.99655 0.0
C307 C 0.80104 0.8059 0.03739 0.0
C308 C 0.80783 0.83423 0.05912 0.0
C309 C 0.78802 0.75036 0.99807 0.0
C310 C 0.76061 0.74702 0.01942 0.0
C311 C 0.76756 0.77469 0.03881 0.0
C312 C 0.72428 0.71514 0.0223 0.0
C313 C 0.78128 0.72154 0.97666 0.0
C314 C 0.67908 0.72303 0.02506 0.0
C315 C 0.64533 0.69419 0.03138 0.0
C316 C 0.65628 0.65697 0.03527 0.0
C317 C 0.70131 0.64876 0.0314 0.0
C318 C 0.73507 0.67768 0.02503 0.0
H319 H 0.7991 0.73206 0.95981 0.0
H320 H 0.79484 0.69464 0.98156 0.0
H321 H 0.74455 0.71458 0.97249 0.0
H322 H 0.67017 0.75184 0.02305 0.0
H323 H 0.61086 0.70127 0.03388 0.0
H324 H 0.84592 0.14358 0.05568 0.0
H325 H 0.80143 0.19663 0.04821 0.0
H326 H 0.81183 0.17348 0.96982 0.0
H327 H 0.85832 0.12135 0.9774 0.0
H328 H 0.8187 0.24813 0.97969 0.0
H329 H 0.67026 0.18116 0.03047 0.0
H330 H 0.71965 0.1898 0.04965 0.0
H331 H 0.71926 0.1564 0.02348 0.0
C332 C 0.83884 0.15006 0.03688 0.0
C333 C 0.85494 0.12825 0.01709 0.0
C334 C 0.81319 0.18014 0.03261 0.0
C335 C 0.80196 0.18828 0.00848 0.0
C336 C 0.81967 0.16751 0.98862 0.0
H337 H 0.57477 0.30986 0.97163 0.0
H338 H 0.62663 0.26295 0.98024 0.0
C339 C 0.84623 0.13785 0.9929 0.0
C340 C 0.7711 0.21791 0.00404 0.0
H341 H 0.66719 0.24556 0.0194 0.0
C342 C 0.78547 0.24749 0.98828 0.0
C343 C 0.72736 0.21671 0.01489 0.0
C344 C 0.70801 0.18408 0.03034 0.0
C345 C 0.75755 0.27607 0.98324 0.0
C346 C 0.71468 0.27585 0.99502 0.0
C347 C 0.70026 0.24611 0.01065 0.0
C348 C 0.68316 0.30497 0.99048 0.0
C349 C 0.77381 0.30539 0.96475 0.0
C350 C 0.6971 0.34436 0.99397 0.0
C351 C 0.66777 0.37142 0.98841 0.0
C352 C 0.62349 0.35964 0.97975 0.0
C353 C 0.60893 0.32012 0.9776 0.0
C354 C 0.63848 0.29316 0.98275 0.0
H355 H 0.80003 0.29491 0.95223 0.0
H356 H 0.74529 0.31287 0.95338 0.0
H357 H 0.78937 0.33184 0.97467 0.0
H358 H 0.73088 0.35425 0.00069 0.0
H359 H 0.68039 0.40152 0.99021 0.0
H360 H 0.53334 0.64249 0.50931 0.0
H361 H 0.58574 0.7015 0.50932 0.0
H362 H 0.69869 0.63589 0.51938 0.0
H363 H 0.6469 0.57689 0.51854 0.0
H364 H 0.63937 0.73365 0.5444 0.0
H365 H 0.74661 0.70101 0.46448 0.0
H366 H 0.69349 0.67271 0.47075 0.0
H367 H 0.7449 0.6637 0.48603 0.0
C368 C 0.5694 0.64067 0.51136 0.0
C369 C 0.58605 0.60506 0.51384 0.0
C370 C 0.59928 0.67437 0.51128 0.0
C371 C 0.64626 0.67304 0.51377 0.0
C372 C 0.66279 0.63754 0.51659 0.0
H373 H 0.84582 0.83547 0.57946 0.0
H374 H 0.78487 0.78594 0.56787 0.0
C375 C 0.63306 0.60385 0.51637 0.0
C376 C 0.67785 0.70886 0.5152 0.0
H377 H 0.78017 0.74927 0.49419 0.0
C378 C 0.66976 0.73734 0.53312 0.0
C379 C 0.717 0.71421 0.50011 0.0
C380 C 0.72571 0.68644 0.47908 0.0
C381 C 0.7011 0.76982 0.53738 0.0
C382 C 0.74222 0.77334 0.52385 0.0
C383 C 0.74902 0.74616 0.50487 0.0
C384 C 0.77981 0.80339 0.53037 0.0
C385 C 0.69004 0.79981 0.55656 0.0
C386 C 0.79857 0.82873 0.51281 0.0
C387 C 0.83439 0.85674 0.51924 0.0
C388 C 0.85216 0.85964 0.5433 0.0
C389 C 0.83352 0.83379 0.56067 0.0
C390 C 0.79806 0.80581 0.5542 0.0
H391 H 0.65272 0.80002 0.55871 0.0
H392 H 0.70386 0.79312 0.57462 0.0
H393 H 0.7051 0.8289 0.55178 0.0
H394 H 0.7853 0.82701 0.49421 0.0
H395 H 0.84832 0.87592 0.50536 0.0
H396 H 0.59727 0.34919 0.50859 0.0
H397 H 0.63743 0.29165 0.50979 0.0
H398 H 0.76585 0.36252 0.50823 0.0
H399 H 0.72607 0.41967 0.5069 0.0
H400 H 0.75595 0.30509 0.47114 0.0
H401 H 0.71249 0.24602 0.56273 0.0
H402 H 0.66555 0.25645 0.54426 0.0
H403 H 0.70576 0.29494 0.55583 0.0
C404 C 0.63404 0.35242 0.50908 0.0
C405 C 0.65859 0.38884 0.50739 0.0
C406 C 0.65694 0.31959 0.50981 0.0
C407 C 0.70465 0.32284 0.50919 0.0
C408 C 0.72904 0.35935 0.50866 0.0
H409 H 0.92616 0.1858 0.4937 0.0
H410 H 0.87541 0.23492 0.50324 0.0
C411 C 0.70629 0.39196 0.50779 0.0
C412 C 0.7296 0.28851 0.50659 0.0
H413 H 0.75656 0.20985 0.53591 0.0
C414 C 0.75601 0.28427 0.48531 0.0
C415 C 0.72925 0.26119 0.52499 0.0
C416 C 0.70204 0.26481 0.54836 0.0
C417 C 0.78265 0.25387 0.48207 0.0
C418 C 0.78343 0.22719 0.50075 0.0
C419 C 0.75605 0.23061 0.52174 0.0
C420 C 0.81365 0.19632 0.4987 0.0
C421 C 0.80993 0.25051 0.45865 0.0
C422 C 0.79564 0.15812 0.49395 0.0
C423 C 0.82458 0.12996 0.48838 0.0
C424 C 0.87196 0.13965 0.48752 0.0
C425 C 0.88982 0.17757 0.49379 0.0
C426 C 0.86092 0.20561 0.49934 0.0
H427 H 0.79799 0.26804 0.44398 0.0
H428 H 0.8461 0.2607 0.46252 0.0
H429 H 0.80804 0.22019 0.45165 0.0
H430 H 0.7592 0.15046 0.49336 0.0
H431 H 0.80973 0.10108 0.48346 0.0
H432 H 0.35959 0.43829 0.50849 0.0
H433 H 0.30597 0.38066 0.51008 0.0
H434 H 0.41709 0.31102 0.51098 0.0
H435 H 0.47152 0.36887 0.50908 0.0
H436 H 0.34098 0.28155 0.47913 0.0
H437 H 0.28772 0.32132 0.57411 0.0
H438 H 0.28483 0.35836 0.55261 0.0
H439 H 0.33901 0.34335 0.56017 0.0
C440 C 0.37281 0.41076 0.5089 0.0
C441 C 0.41987 0.40818 0.50893 0.0
C442 C 0.34206 0.37787 0.50984 0.0
C443 C 0.35765 0.34175 0.51105 0.0
C444 C 0.40451 0.33876 0.51017 0.0
H445 H 0.20957 0.11796 0.5339 0.0
H446 H 0.26808 0.16885 0.52249 0.0
C447 C 0.43548 0.37178 0.50914 0.0
C448 C 0.32469 0.30755 0.51424 0.0
H449 H 0.24224 0.27028 0.55317 0.0
C450 C 0.31958 0.2788 0.49537 0.0
C451 C 0.29705 0.30414 0.53551 0.0
C452 C 0.3026 0.33323 0.55688 0.0
C453 C 0.28626 0.24723 0.4969 0.0
C454 C 0.25792 0.24442 0.51792 0.0
C455 C 0.26375 0.2728 0.53695 0.0
C456 C 0.22189 0.21231 0.52091 0.0
C457 C 0.28073 0.2177 0.47583 0.0
C458 C 0.17652 0.21984 0.52349 0.0
C459 C 0.14306 0.19089 0.53 0.0
C460 C 0.15445 0.15392 0.53422 0.0
C461 C 0.19962 0.14601 0.53049 0.0
C462 C 0.23311 0.17504 0.52396 0.0
H463 H 0.29848 0.22812 0.45893 0.0
H464 H 0.29524 0.19144 0.48116 0.0
H465 H 0.24421 0.20971 0.47153 0.0
H466 H 0.16726 0.24848 0.52123 0.0
H467 H 0.10847 0.19771 0.53241 0.0
H468 H 0.37171 0.62787 0.47778 0.0
H469 H 0.32955 0.68225 0.4692 0.0
H470 H 0.28418 0.6869 0.54472 0.0
H471 H 0.32629 0.63289 0.55341 0.0
H472 H 0.23009 0.68008 0.47855 0.0
H473 H 0.33307 0.80059 0.52887 0.0
H474 H 0.35631 0.75713 0.51857 0.0
H475 H 0.32013 0.75722 0.54518 0.0
C476 C 0.35335 0.64093 0.4926 0.0
C477 C 0.35207 0.62604 0.51622 0.0
C478 C 0.32922 0.67183 0.48768 0.0
C479 C 0.30415 0.68869 0.5064 0.0
C480 C 0.30376 0.67453 0.53012 0.0
H481 H 0.1201 0.86601 0.51372 0.0
H482 H 0.17135 0.81818 0.52333 0.0
C483 C 0.32745 0.64346 0.53498 0.0
C484 C 0.27554 0.71915 0.50081 0.0
H485 H 0.26206 0.81338 0.51316 0.0
C486 C 0.23717 0.70931 0.48594 0.0
C487 C 0.28468 0.757 0.51083 0.0
C488 C 0.32593 0.76891 0.52664 0.0
C489 C 0.20715 0.73627 0.48107 0.0
C490 C 0.21655 0.77439 0.49078 0.0
C491 C 0.25497 0.78419 0.50572 0.0
C492 C 0.1872 0.80451 0.48521 0.0
C493 C 0.16502 0.72332 0.4661 0.0
C494 C 0.18012 0.81332 0.46071 0.0
C495 C 0.15074 0.84018 0.45523 0.0
C496 C 0.12831 0.85924 0.47417 0.0
C497 C 0.13683 0.85162 0.49879 0.0
C498 C 0.16602 0.82435 0.50426 0.0
H499 H 0.15597 0.6918 0.46648 0.0
H500 H 0.13555 0.73773 0.47297 0.0
H501 H 0.1713 0.73061 0.44662 0.0
H502 H 0.19718 0.79925 0.44576 0.0
H503 H 0.14568 0.84619 0.43611 0.0
H504 H 0.95639 0.02787 0.09168 0.0
H505 H 0.96063 0.02568 0.13644 0.0
H506 H 0.08679 0.97537 0.12994 0.0
H507 H 0.08282 0.97719 0.08485 0.0
H508 H 0.97067 0.9543 0.16438 0.0
H509 H 0.10805 0.07477 0.17927 0.0
H510 H 0.07277 0.07002 0.15205 0.0
H511 H 0.11586 0.0386 0.15552 0.0
C512 C 0.98516 0.01637 0.09969 0.0
C513 C 0.01937 0.00278 0.08469 0.0
C514 C 0.98743 0.0151 0.12527 0.0
C515 C 0.02411 0.0006 0.13639 0.0
C516 C 0.05838 0.98693 0.1216 0.0
H517 H 0.04421 0.94815 0.29115 0.0
H518 H 0.04896 0.94667 0.24616 0.0
C519 C 0.05598 0.9879 0.0959 0.0
C520 C 0.02582 -0.00046 0.16353 0.0
H521 H 0.07751 0.04459 0.21454 0.0
C522 C 0.99424 0.97377 0.17539 0.0
C523 C 0.05637 0.02529 0.17769 0.0
C524 C 0.09017 0.05398 0.16564 0.0
C525 C 0.99228 0.9732 0.20118 0.0
C526 C 0.0227 -0.00094 0.21536 0.0
C527 C 0.05441 0.02474 0.20352 0.0
C528 C 0.02103 0.00048 0.24258 0.0
C529 C 0.95704 0.94565 0.21318 0.0
C530 C 0.00422 0.03148 0.25538 0.0
C531 C 1.00089 0.03225 0.28107 0.0
C532 C 0.01469 0.0021 0.29444 0.0
C533 C 0.03241 0.97145 0.28146 0.0
C534 C 0.03544 0.97063 0.25577 0.0
H535 H 0.93184 0.93146 0.19971 0.0
H536 H 0.97411 0.92314 0.22196 0.0
H537 H 0.93877 0.96085 0.22785 0.0
H538 H 0.99286 0.05474 0.24543 0.0
H539 H 0.98663 0.05606 0.29039 0.0
H540 H 0.04976 0.98033 0.93041 0.0
H541 H 0.04604 0.98408 0.88574 0.0
H542 H 0.93453 0.05302 0.8935 0.0
H543 H 0.93816 0.04973 0.93844 0.0
H544 H 0.97052 0.96 0.85455 0.0
H545 H 0.02712 0.11589 0.84944 0.0
H546 H 0.03532 0.08959 0.87659 0.0
H547 H 0.98019 0.10308 0.86971 0.0
C548 C 0.02443 0.99638 0.92269 0.0
C549 C 0.9943 0.01483 0.938 0.0
C550 C 0.02237 0.99844 0.89714 0.0
C551 C 0.99038 0.01916 0.88637 0.0
C552 C 0.95994 0.03739 0.90151 0.0
H553 H 0.94897 0.05833 0.7306 0.0
H554 H 0.94294 0.05868 0.77561 0.0
C555 C 0.96191 0.03529 0.92715 0.0
C556 C 0.98877 0.02091 0.85922 0.0
H557 H 0.0086 0.08148 0.81193 0.0
C558 C 0.97868 0.98656 0.8452 0.0
C559 C 0.99923 0.05565 0.84716 0.0
C560 C 0.01142 0.09319 0.8614 0.0
C561 C 0.97909 0.98594 0.81938 0.0
C562 C 0.99081 0.02051 0.80729 0.0
C563 C 0.99981 0.05503 0.82129 0.0
C564 C 0.99526 0.02115 0.78013 0.0
C565 C 0.96671 0.9483 0.80527 0.0
C566 C 0.02737 0.00064 0.76786 0.0
C567 C 0.031 0.00046 0.74222 0.0
C568 C 0.00279 0.02107 0.72835 0.0
C569 C 0.97142 0.0424 0.74077 0.0
C570 C 0.96777 0.0425 0.76645 0.0
H571 H 0.94644 0.92722 0.81673 0.0
H572 H 0.94703 0.95236 0.78843 0.0
H573 H 0.99827 0.93594 0.79958 0.0
H574 H 0.04971 0.98476 0.77814 0.0
H575 H 0.0561 0.98436 0.73325 0.0
H576 H 0.45277 0.52691 0.59205 0.0
H577 H 0.45806 0.52673 0.63679 0.0
H578 H 0.58261 0.47388 0.63046 0.0
H579 H 0.57719 0.47327 0.58539 0.0
H580 H 0.52395 0.4406 0.66488 0.0
H581 H 0.54402 0.59846 0.68001 0.0
H582 H 0.49445 0.58142 0.66224 0.0
H583 H 0.54997 0.57534 0.65001 0.0
C584 C 0.48141 0.51529 0.6001 0.0
C585 C 0.51478 0.50036 0.58513 0.0
C586 C 0.48449 0.51544 0.62572 0.0
C587 C 0.52124 0.50109 0.63696 0.0
C588 C 0.55418 0.48541 0.62213 0.0
H589 H 0.57547 0.54146 0.79447 0.0
H590 H 0.58158 0.53964 0.74946 0.0
C591 C 0.55103 0.48509 0.59641 0.0
C592 C 0.52453 0.5019 0.66421 0.0
H593 H 0.52496 0.56183 0.71543 0.0
C594 C 0.52462 0.46712 0.67595 0.0
C595 C 0.52615 0.53659 0.67861 0.0
C596 C 0.52913 0.5751 0.66708 0.0
C597 C 0.52463 0.46597 0.70176 0.0
C598 C 0.52357 0.50045 0.71616 0.0
C599 C 0.52515 0.53535 0.70439 0.0
C600 C 0.52016 0.501 0.74343 0.0
C601 C 0.52605 0.42784 0.71333 0.0
C602 C 0.48323 0.48039 0.75496 0.0
C603 C 0.47969 0.48135 0.78063 0.0
C604 C 0.51273 0.50335 0.79528 0.0
C605 C 0.54929 0.5245 0.78368 0.0
C606 C 0.55295 0.52333 0.75799 0.0
H607 H 0.54062 0.40687 0.70051 0.0
H608 H 0.54642 0.43098 0.73054 0.0
H609 H 0.49094 0.41583 0.71794 0.0
H610 H 0.45682 0.46387 0.7441 0.0
H611 H 0.45073 0.46529 0.78902 0.0
H612 H 0.54043 0.47212 0.43039 0.0
H613 H 0.5393 0.47829 0.38586 0.0
H614 H 0.44657 0.56447 0.3946 0.0
H615 H 0.44648 0.55767 0.4393 0.0
H616 H 0.42162 0.51407 0.35706 0.0
H617 H 0.60449 0.56424 0.34832 0.0
H618 H 0.59537 0.51932 0.36302 0.0
H619 H 0.57598 0.56153 0.37774 0.0
C620 C 0.51977 0.49241 0.42288 0.0
C621 C 0.49374 0.51458 0.43839 0.0
C622 C 0.51945 0.49611 0.39741 0.0
C623 C 0.49375 0.52251 0.38694 0.0
C624 C 0.46696 0.54415 0.40232 0.0
H625 H 0.53609 0.58231 0.23347 0.0
H626 H 0.53016 0.58514 0.27838 0.0
C627 C 0.46692 0.54021 0.42784 0.0
C628 C 0.49427 0.52687 0.3599 0.0
H629 H 0.56554 0.54273 0.31091 0.0
C630 C 0.45303 0.5207 0.34698 0.0
C631 C 0.53515 0.53629 0.3468 0.0
C632 C 0.58017 0.54614 0.35972 0.0
C633 C 0.45175 0.52233 0.32121 0.0
C634 C 0.49296 0.52931 0.30799 0.0
C635 C 0.534 0.53684 0.321 0.0
C636 C 0.49452 0.52821 0.28065 0.0
C637 C 0.40619 0.51687 0.3085 0.0
C638 C 0.47674 0.4952 0.26698 0.0
C639 C 0.47941 0.49371 0.24128 0.0
C640 C 0.50066 0.525 0.22868 0.0
C641 C 0.51883 0.55793 0.24248 0.0
C642 C 0.51577 0.5595 0.26819 0.0
H643 H 0.37859 0.52445 0.32114 0.0
H644 H 0.40612 0.53457 0.29206 0.0
H645 H 0.39834 0.48629 0.30246 0.0
H646 H 0.4612 0.47032 0.27618 0.0
H647 H 0.46458 0.46805 0.23131 0.0
loop_
_geom_bond_atom_site_label_1
_geom_bond_atom_site_label_2
_geom_bond_distance
_geom_bond_site_symmetry_2
_ccdc_geom_bond_type
Co0 N5 2.057 . S
Co0 O17 2.021 . S
Co0 O20 2.062 1_455 S
Co0 O24 2.117 1_554 S
Co0 O25 2.020 1_565 S
C1 O21 1.259 1_455 S
C1 O24 1.258 1_545 S
Co2 N11 2.057 . S
Co2 O18 2.117 . S
Co2 O19 2.020 1_545 S
Co2 O21 2.021 1_554 S
Co2 O26 2.062 1_655 S
C3 N5 1.316 . S
C3 N6 1.347 . S
C3 H8 0.931 . S
C4 N5 1.375 1_556 S
C4 C7 1.350 . S
C4 H9 0.930 . S
N5 Co0 2.057 . S
N5 C3 1.316 . S
N5 C4 1.375 1_554 S
N6 C3 1.347 . S
N6 C7 1.373 1_554 S
C7 C4 1.350 . S
C7 N6 1.373 1_556 S
C7 H28 0.931 . S
H8 C3 0.931 . S
H9 C4 0.930 . S
C10 O17 1.259 1_545 S
C10 O18 1.258 1_455 S
N11 Co2 2.057 . S
N11 C12 1.316 . S
N11 C13 1.375 . S
C12 N11 1.316 . S
C12 N14 1.347 . S
C12 H23 0.931 1_554 S
C13 N11 1.375 . S
C13 C15 1.350 . S
C13 H22 0.930 . S
N14 C12 1.347 . S
N14 C15 1.373 . S
C15 C13 1.350 . S
C15 N14 1.373 . S
C15 H29 0.931 . S
C16 O19 1.256 . S
C16 O20 1.255 . S
O17 Co0 2.021 . S
O17 C10 1.259 1_565 S
O18 Co2 2.117 . S
O18 C10 1.258 1_655 S
O19 Co2 2.020 1_565 S
O19 C16 1.256 . S
O20 Co0 2.062 1_655 S
O20 C16 1.255 . S
O21 C1 1.259 1_655 S
O21 Co2 2.021 1_556 S
H22 C13 0.930 . S
H23 C12 0.931 1_556 S
O24 Co0 2.117 1_556 S
O24 C1 1.258 1_565 S
O25 Co0 2.020 1_545 S
O25 C27 1.256 . S
O26 Co2 2.062 1_455 S
O26 C27 1.255 . S
C27 O25 1.256 . S
C27 O26 1.255 . S
H28 C7 0.931 . S
H29 C15 0.931 . S
Co30 N35 2.057 . S
Co30 O47 2.021 . S
Co30 O50 2.062 . S
Co30 O54 2.117 . S
Co30 O55 2.020 . S
C31 O51 1.259 . S
C31 O54 1.258 . S
Co32 N41 2.057 . S
Co32 O48 2.117 . S
Co32 O49 2.020 . S
Co32 O51 2.021 . S
Co32 O56 2.062 . S
C33 N35 1.316 . S
C33 N36 1.347 . S
C33 H38 0.931 . S
C34 N35 1.375 . S
C34 C37 1.350 . S
C34 H39 0.930 . S
N35 Co30 2.057 . S
N35 C33 1.316 . S
N35 C34 1.375 . S
N36 C33 1.347 . S
N36 C37 1.373 . S
C37 C34 1.350 . S
C37 N36 1.373 . S
C37 H58 0.931 . S
H38 C33 0.931 . S
H39 C34 0.930 . S
C40 O47 1.259 . S
C40 O48 1.258 . S
N41 Co32 2.057 . S
N41 C42 1.316 . S
N41 C43 1.375 . S
C42 N41 1.316 . S
C42 N44 1.347 . S
C42 H53 0.931 . S
C43 N41 1.375 . S
C43 C45 1.350 . S
C43 H52 0.930 . S
N44 C42 1.347 . S
N44 C45 1.373 . S
C45 C43 1.350 . S
C45 N44 1.373 . S
C45 H59 0.931 . S
C46 O49 1.256 . S
C46 O50 1.255 . S
O47 Co30 2.021 . S
O47 C40 1.259 . S
O48 Co32 2.117 . S
O48 C40 1.258 . S
O49 Co32 2.020 . S
O49 C46 1.256 . S
O50 Co30 2.062 . S
O50 C46 1.255 . S
O51 C31 1.259 . S
O51 Co32 2.021 . S
H52 C43 0.930 . S
H53 C42 0.931 . S
O54 Co30 2.117 . S
O54 C31 1.258 . S
O55 Co30 2.020 . S
O55 C57 1.256 . S
O56 Co32 2.062 . S
O56 C57 1.255 . S
C57 O55 1.256 . S
C57 O56 1.255 . S
H58 C37 0.931 . S
H59 C45 0.931 . S
C60 C61 1.397 1_655 S
C60 C62 1.397 . S
C60 H84 0.931 . S
C61 C60 1.397 1_455 S
C61 C65 1.387 1_565 S
C62 C60 1.397 . S
C62 C63 1.401 1_655 S
C62 H85 0.930 . S
C63 C62 1.401 1_455 S
C63 C64 1.359 1_565 S
C63 C66 1.481 . S
C64 C63 1.359 1_545 S
C64 C65 1.389 . S
C64 H86 0.929 . S
C65 C61 1.387 1_545 S
C65 C64 1.389 . S
C65 H87 0.931 . S
C66 C63 1.481 . S
C66 C67 1.411 . S
C66 C71 1.367 1_465 S
C67 C66 1.411 . S
C67 C68 1.401 . S
C67 H88 0.930 . S
C68 C67 1.401 . S
C68 C69 1.365 1_465 S
C68 C77 1.511 . S
C69 C68 1.365 1_645 S
C69 C70 1.404 . S
C69 H90 0.931 . S
C70 C69 1.404 . S
C70 C71 1.361 . S
C70 C72 1.500 . S
C71 C66 1.367 1_645 S
C71 C70 1.361 . S
C71 H89 0.931 . S
C72 C70 1.500 . S
C72 C73 1.371 . S
C72 C74 1.365 . S
C73 C72 1.371 . S
C73 C83 1.386 . S
C73 H91 0.931 . S
C74 C72 1.365 . S
C74 C75 1.409 . S
C74 H92 0.929 . S
C75 C74 1.409 . S
C75 C76 1.380 . S
C75 H93 0.930 . S
C76 C75 1.380 . S
C76 C83 1.357 . S
C77 C68 1.511 . S
C77 C78 1.341 . S
C77 C79 1.371 . S
C78 C77 1.341 . S
C78 C82 1.394 . S
C78 H94 0.930 . S
C79 C77 1.371 . S
C79 C80 1.392 . S
C79 H95 0.931 . S
C80 C79 1.392 . S
C80 C81 1.331 . S
C80 H98 0.932 . S
C81 C80 1.331 . S
C81 C82 1.336 . S
C82 C78 1.394 . S
C82 C81 1.336 . S
C82 H97 0.929 . S
C83 C73 1.386 . S
C83 C76 1.357 . S
C83 H96 0.928 . S
H84 C60 0.931 . S
H85 C62 0.930 . S
H86 C64 0.929 . S
H87 C65 0.931 . S
H88 C67 0.930 . S
H89 C71 0.931 . S
H90 C69 0.931 . S
H91 C73 0.931 . S
H92 C74 0.929 . S
H93 C75 0.930 . S
H94 C78 0.930 . S
H95 C79 0.931 . S
H96 C83 0.928 . S
H97 C82 0.929 . S
H98 C80 0.932 . S
C99 C100 1.386 . S
C99 C101 1.397 . S
C99 H123 0.931 . S
C100 C99 1.386 . S
C100 C104 1.397 1_545 S
C101 C99 1.397 . S
C101 C102 1.384 . S
C101 H124 0.930 . S
C102 C101 1.384 . S
C102 C103 1.377 1_545 S
C102 C105 1.481 . S
C103 C102 1.377 1_565 S
C103 C104 1.389 . S
C103 H125 0.929 . S
C104 C100 1.397 1_565 S
C104 C103 1.389 . S
C104 H126 0.931 . S
C105 C102 1.481 . S
C105 C106 1.387 . S
C105 C110 1.390 1_445 S
C106 C105 1.387 . S
C106 C107 1.401 . S
C106 H127 0.930 . S
C107 C106 1.401 . S
C107 C108 1.389 . S
C107 C116 1.511 . S
C108 C107 1.389 . S
C108 C109 1.381 1_445 S
C108 H129 0.930 1_455 S
C109 C108 1.381 1_665 S
C109 C110 1.361 . S
C109 C111 1.500 . S
C110 C105 1.390 1_665 S
C110 C109 1.361 . S
C110 H128 0.931 . S
C111 C109 1.500 . S
C111 C112 1.371 . S
C111 C113 1.365 . S
C112 C111 1.371 . S
C112 C122 1.386 . S
C112 H130 0.931 . S
C113 C111 1.365 . S
C113 C114 1.409 . S
C113 H131 0.929 . S
C114 C113 1.409 . S
C114 C115 1.380 . S
C114 H132 0.930 . S
C115 C114 1.380 . S
C115 C122 1.357 . S
C116 C107 1.511 . S
C116 C117 1.341 . S
C116 C118 1.371 . S
C117 C116 1.341 . S
C117 C121 1.394 . S
C117 H133 0.930 . S
C118 C116 1.371 . S
C118 C119 1.392 . S
C118 H134 0.931 . S
C119 C118 1.392 . S
C119 C120 1.331 . S
C119 H137 0.932 . S
C120 C119 1.331 . S
C120 C121 1.336 . S
C121 C117 1.394 . S
C121 C120 1.336 . S
C121 H136 0.929 . S
C122 C112 1.386 . S
C122 C115 1.357 . S
C122 H135 0.928 . S
H123 C99 0.931 . S
H124 C101 0.930 . S
H125 C103 0.929 . S
H126 C104 0.931 . S
H127 C106 0.930 . S
H128 C110 0.931 . S
H129 C108 0.930 1_655 S
H130 C112 0.931 . S
H131 C113 0.929 . S
H132 C114 0.930 . S
H133 C117 0.930 . S
H134 C118 0.931 . S
H135 C122 0.928 . S
H136 C121 0.929 . S
H137 C119 0.932 . S
C138 C139 1.386 . S
C138 C140 1.397 . S
C138 H162 0.931 . S
C139 C138 1.386 . S
C139 C143 1.397 . S
C140 C138 1.397 . S
C140 C141 1.384 . S
C140 H163 0.930 . S
C141 C140 1.384 . S
C141 C142 1.377 . S
C141 C144 1.481 . S
C142 C141 1.377 . S
C142 C143 1.389 . S
C142 H164 0.929 . S
C143 C139 1.397 . S
C143 C142 1.389 . S
C143 H165 0.931 . S
C144 C141 1.481 . S
C144 C145 1.387 . S
C144 C149 1.390 . S
C145 C144 1.387 . S
C145 C146 1.401 . S
C145 H166 0.930 . S
C146 C145 1.401 . S
C146 C147 1.376 . S
C146 C155 1.511 . S
C147 C146 1.376 . S
C147 C148 1.392 . S
C147 H168 0.931 . S
C148 C147 1.392 . S
C148 C149 1.361 . S
C148 C150 1.500 . S
C149 C144 1.390 . S
C149 C148 1.361 . S
C149 H167 0.931 . S
C150 C148 1.500 . S
C150 C151 1.371 . S
C150 C152 1.365 . S
C151 C150 1.371 . S
C151 C161 1.386 . S
C151 H169 0.931 . S
C152 C150 1.365 . S
C152 C153 1.409 . S
C152 H170 0.929 . S
C153 C152 1.409 . S
C153 C154 1.380 . S
C153 H171 0.930 . S
C154 C153 1.380 . S
C154 C161 1.357 . S
C155 C146 1.511 . S
C155 C156 1.341 . S
C155 C157 1.371 . S
C156 C155 1.341 . S
C156 C160 1.394 . S
C156 H172 0.930 . S
C157 C155 1.371 . S
C157 C158 1.392 . S
C157 H173 0.931 . S
C158 C157 1.392 . S
C158 C159 1.331 . S
C158 H176 0.932 1_556 S
C159 C158 1.331 . S
C159 C160 1.336 . S
C160 C156 1.394 . S
C160 C159 1.336 . S
C160 H175 0.929 . S
C161 C151 1.386 . S
C161 C154 1.357 . S
C161 H174 0.928 1_556 S
H162 C138 0.931 . S
H163 C140 0.930 . S
H164 C142 0.929 . S
H165 C143 0.931 . S
H166 C145 0.930 . S
H167 C149 0.931 . S
H168 C147 0.931 . S
H169 C151 0.931 . S
H170 C152 0.929 . S
H171 C153 0.930 . S
H172 C156 0.930 . S
H173 C157 0.931 . S
H174 C161 0.928 1_554 S
H175 C160 0.929 . S
H176 C158 0.932 1_554 S
C177 C178 1.386 . S
C177 C179 1.397 . S
C177 H201 0.931 . S
C178 C177 1.386 . S
C178 C182 1.397 . S
C179 C177 1.397 . S
C179 C180 1.384 . S
C179 H202 0.930 . S
C180 C179 1.384 . S
C180 C181 1.377 . S
C180 C183 1.481 . S
C181 C180 1.377 . S
C181 C182 1.389 . S
C181 H203 0.929 . S
C182 C178 1.397 . S
C182 C181 1.389 . S
C182 H204 0.931 . S
C183 C180 1.481 . S
C183 C184 1.387 . S
C183 C188 1.390 . S
C184 C183 1.387 . S
C184 C185 1.401 . S
C184 H205 0.930 . S
C185 C184 1.401 . S
C185 C186 1.376 . S
C185 C194 1.511 . S
C186 C185 1.376 . S
C186 C187 1.392 . S
C186 H207 0.931 . S
C187 C186 1.392 . S
C187 C188 1.361 . S
C187 C189 1.500 . S
C188 C183 1.390 . S
C188 C187 1.361 . S
C188 H206 0.931 . S
C189 C187 1.500 . S
C189 C190 1.371 . S
C189 C191 1.365 . S
C190 C189 1.371 . S
C190 C200 1.386 . S
C190 H208 0.931 . S
C191 C189 1.365 . S
C191 C192 1.409 . S
C191 H209 0.929 . S
C192 C191 1.409 . S
C192 C193 1.380 . S
C192 H210 0.930 . S
C193 C192 1.380 . S
C193 C200 1.357 . S
C194 C185 1.511 . S
C194 C195 1.341 . S
C194 C196 1.371 . S
C195 C194 1.341 . S
C195 C199 1.394 . S
C195 H211 0.930 . S
C196 C194 1.371 . S
C196 C197 1.392 . S
C196 H212 0.931 . S
C197 C196 1.392 . S
C197 C198 1.331 . S
C197 H215 0.932 . S
C198 C197 1.331 . S
C198 C199 1.336 . S
C199 C195 1.394 . S
C199 C198 1.336 . S
C199 H214 0.929 . S
C200 C190 1.386 . S
C200 C193 1.357 . S
C200 H213 0.928 . S
H201 C177 0.931 . S
H202 C179 0.930 . S
H203 C181 0.929 . S
H204 C182 0.931 . S
H205 C184 0.930 . S
H206 C188 0.931 . S
H207 C186 0.931 . S
H208 C190 0.931 . S
H209 C191 0.929 . S
H210 C192 0.930 . S
H211 C195 0.930 . S
H212 C196 0.931 . S
H213 C200 0.928 . S
H214 C199 0.929 . S
H215 C197 0.932 . S
H216 C224 0.929 . S
H217 C226 0.930 . S
H218 C228 0.930 . S
H219 C231 0.929 . S
H220 C234 0.930 . S
H221 C236 0.960 . S
H222 C236 0.960 . S
H223 C236 0.960 . S
C224 H216 0.929 . S
C224 C225 1.377 1_556 S
C224 C226 1.384 . S
C225 C224 1.377 1_554 S
C225 C231 1.390 . S
C226 H217 0.930 . S
C226 C224 1.384 . S
C226 C227 1.372 1_556 S
C227 C226 1.372 1_554 S
C227 C228 1.400 . S
C227 C232 1.490 . S
C228 H218 0.930 . S
C228 C227 1.400 . S
C228 C231 1.386 . S
H229 C245 0.930 . S
H230 C246 0.931 . S
C231 H219 0.929 . S
C231 C225 1.390 . S
C231 C228 1.386 . S
C232 C227 1.490 . S
C232 C234 1.395 . S
C232 C235 1.403 . S
H233 C239 0.930 . S
C234 H220 0.930 . S
C234 C232 1.395 . S
C234 C237 1.403 . S
C235 C232 1.403 . S
C235 C236 1.524 . S
C235 C239 1.400 . S
C236 H221 0.960 . S
C236 H222 0.960 . S
C236 H223 0.960 . S
C236 C235 1.524 . S
C237 C234 1.403 . S
C237 C238 1.392 . S
C237 C241 1.495 . S
C238 C237 1.392 . S
C238 C239 1.385 . S
C238 C240 1.478 . S
C239 H233 0.930 . S
C239 C235 1.400 . S
C239 C238 1.385 . S
C240 C238 1.478 . S
C240 C242 1.381 . S
C240 C246 1.383 . S
C241 C237 1.495 . S
C241 H247 0.959 . S
C241 H248 0.961 . S
C241 H249 0.960 . S
C242 C240 1.381 . S
C242 C243 1.394 . S
C242 H250 0.930 1_554 S
C243 C242 1.394 . S
C243 C244 1.383 . S
C243 H251 0.929 . S
C244 C243 1.383 . S
C244 C245 1.377 . S
C245 H229 0.930 . S
C245 C244 1.377 . S
C245 C246 1.379 . S
C246 H230 0.931 . S
C246 C240 1.383 . S
C246 C245 1.379 . S
H247 C241 0.959 . S
H248 C241 0.961 . S
H249 C241 0.960 . S
H250 C242 0.930 1_556 S
H251 C243 0.929 . S
H252 C260 0.929 . S
H253 C262 0.930 . S
H254 C264 0.930 . S
H255 C267 0.929 . S
H256 C270 0.930 . S
H257 C272 0.960 . S
H258 C272 0.960 . S
H259 C272 0.960 . S
C260 H252 0.929 . S
C260 C261 1.377 1_556 S
C260 C262 1.384 . S
C261 C260 1.377 1_554 S
C261 C267 1.390 . S
C262 H253 0.930 . S
C262 C260 1.384 . S
C262 C263 1.372 1_556 S
C263 C262 1.372 1_554 S
C263 C264 1.400 . S
C263 C268 1.495 . S
C264 H254 0.930 . S
C264 C263 1.400 . S
C264 C267 1.386 . S
H265 C281 0.930 . S
H266 C282 0.931 . S
C267 H255 0.929 . S
C267 C261 1.390 . S
C267 C264 1.386 . S
C268 C263 1.495 . S
C268 C270 1.404 . S
C268 C271 1.390 1_554 S
H269 C275 0.930 . S
C270 H256 0.930 . S
C270 C268 1.404 . S
C270 C273 1.403 . S
C271 C268 1.390 1_556 S
C271 C272 1.524 . S
C271 C275 1.400 . S
C272 H257 0.960 . S
C272 H258 0.960 . S
C272 H259 0.960 . S
C272 C271 1.524 . S
C273 C270 1.403 . S
C273 C274 1.392 1_554 S
C273 C277 1.495 . S
C274 C273 1.392 1_556 S
C274 C275 1.385 . S
C274 C276 1.478 . S
C275 H269 0.930 . S
C275 C271 1.400 . S
C275 C274 1.385 . S
C276 C274 1.478 . S
C276 C278 1.381 . S
C276 C282 1.383 1_556 S
C277 C273 1.495 . S
C277 H283 0.959 . S
C277 H284 0.961 . S
C277 H285 0.960 1_554 S
C278 C276 1.381 . S
C278 C279 1.394 . S
C278 H286 0.930 . S
C279 C278 1.394 . S
C279 C280 1.383 . S
C279 H287 0.929 . S
C280 C279 1.383 . S
C280 C281 1.377 1_556 S
C281 H265 0.930 . S
C281 C280 1.377 1_554 S
C281 C282 1.379 . S
C282 H266 0.931 . S
C282 C276 1.383 1_554 S
C282 C281 1.379 . S
H283 C277 0.959 . S
H284 C277 0.961 . S
H285 C277 0.960 1_556 S
H286 C278 0.930 . S
H287 C279 0.929 . S
H288 C296 0.929 1_556 S
H289 C298 0.930 1_556 S
H290 C300 0.930 . S
H291 C303 0.929 . S
H292 C306 0.915 1_556 S
H293 C308 0.960 . S
H294 C308 0.960 . S
H295 C308 0.960 . S
C296 H288 0.929 1_554 S
C296 C297 1.377 . S
C296 C298 1.384 . S
C297 C296 1.377 . S
C297 C303 1.390 . S
C298 H289 0.930 1_554 S
C298 C296 1.384 . S
C298 C299 1.372 . S
C299 C298 1.372 . S
C299 C300 1.400 . S
C299 C304 1.490 . S
C300 H290 0.930 . S
C300 C299 1.400 . S
C300 C303 1.386 . S
H301 C317 0.930 . S
H302 C318 0.931 . S
C303 H291 0.929 . S
C303 C297 1.390 . S
C303 C300 1.386 . S
C304 C299 1.490 . S
C304 C306 1.408 . S
C304 C307 1.403 . S
H305 C311 0.930 . S
C306 H292 0.915 1_554 S
C306 C304 1.408 . S
C306 C309 1.405 . S
C307 C304 1.403 . S
C307 C308 1.524 . S
C307 C311 1.400 . S
C308 H293 0.960 . S
C308 H294 0.960 . S
C308 H295 0.960 . S
C308 C307 1.524 . S
C309 C306 1.405 . S
C309 C310 1.392 . S
C309 C313 1.495 1_554 S
C310 C309 1.392 . S
C310 C311 1.385 . S
C310 C312 1.478 . S
C311 H305 0.930 . S
C311 C307 1.400 . S
C311 C310 1.385 . S
C312 C310 1.478 . S
C312 C314 1.381 . S
C312 C318 1.383 . S
C313 C309 1.495 1_556 S
C313 H319 0.959 . S
C313 H320 0.961 . S
C313 H321 0.960 . S
C314 C312 1.381 . S
C314 C315 1.394 . S
C314 H322 0.930 . S
C315 C314 1.394 . S
C315 C316 1.383 . S
C315 H323 0.929 . S
C316 C315 1.383 . S
C316 C317 1.377 . S
C317 H301 0.930 . S
C317 C316 1.377 . S
C317 C318 1.379 . S
C318 H302 0.931 . S
C318 C312 1.383 . S
C318 C317 1.379 . S
H319 C313 0.959 . S
H320 C313 0.961 . S
H321 C313 0.960 . S
H322 C314 0.930 . S
H323 C315 0.929 . S
H324 C332 0.929 . S
H325 C334 0.930 . S
H326 C336 0.930 . S
H327 C339 0.929 . S
H328 C342 0.930 . S
H329 C344 0.960 . S
H330 C344 0.960 . S
H331 C344 0.960 . S
C332 H324 0.929 . S
C332 C333 1.377 . S
C332 C334 1.384 . S
C333 C332 1.377 . S
C333 C339 1.390 1_554 S
C334 H325 0.930 . S
C334 C332 1.384 . S
C334 C335 1.372 . S
C335 C334 1.372 . S
C335 C336 1.400 1_554 S
C335 C340 1.490 . S
C336 H326 0.930 . S
C336 C335 1.400 1_556 S
C336 C339 1.386 . S
H337 C353 0.930 . S
H338 C354 0.931 . S
C339 H327 0.929 . S
C339 C333 1.390 1_556 S
C339 C336 1.386 . S
C340 C335 1.490 . S
C340 C342 1.395 1_554 S
C340 C343 1.403 . S
H341 C347 0.930 . S
C342 H328 0.930 . S
C342 C340 1.395 1_556 S
C342 C345 1.403 . S
C343 C340 1.403 . S
C343 C344 1.524 . S
C343 C347 1.400 . S
C344 H329 0.960 . S
C344 H330 0.960 . S
C344 H331 0.960 . S
C344 C343 1.524 . S
C345 C342 1.403 . S
C345 C346 1.392 . S
C345 C349 1.495 . S
C346 C345 1.392 . S
C346 C347 1.385 1_556 S
C346 C348 1.478 . S
C347 H341 0.930 . S
C347 C343 1.400 . S
C347 C346 1.385 1_554 S
C348 C346 1.478 . S
C348 C350 1.363 1_556 S
C348 C354 1.383 . S
C349 C345 1.495 . S
C349 H355 0.959 . S
C349 H356 0.961 . S
C349 H357 0.960 . S
C350 C348 1.363 1_554 S
C350 C351 1.390 1_554 S
C350 H358 0.954 . S
C351 C350 1.390 1_556 S
C351 C352 1.383 . S
C351 H359 0.929 1_556 S
C352 C351 1.383 . S
C352 C353 1.377 . S
C353 H337 0.930 . S
C353 C352 1.377 . S
C353 C354 1.379 . S
C354 H338 0.931 . S
C354 C348 1.383 . S
C354 C353 1.379 . S
H355 C349 0.959 . S
H356 C349 0.961 . S
H357 C349 0.960 . S
H358 C350 0.954 . S
H359 C351 0.929 1_554 S
H360 C368 0.929 . S
H361 C370 0.930 . S
H362 C372 0.930 . S
H363 C375 0.929 . S
H364 C378 0.930 . S
H365 C380 0.960 . S
H366 C380 0.960 . S
H367 C380 0.960 . S
C368 H360 0.929 . S
C368 C369 1.377 . S
C368 C370 1.384 . S
C369 C368 1.377 . S
C369 C375 1.390 . S
C370 H361 0.930 . S
C370 C368 1.384 . S
C370 C371 1.372 . S
C371 C370 1.372 . S
C371 C372 1.400 . S
C371 C376 1.490 . S
C372 H362 0.930 . S
C372 C371 1.400 . S
C372 C375 1.386 . S
H373 C389 0.930 . S
H374 C390 0.931 . S
C375 H363 0.929 . S
C375 C369 1.390 . S
C375 C372 1.386 . S
C376 C371 1.490 . S
C376 C378 1.395 . S
C376 C379 1.403 . S
H377 C383 0.930 . S
C378 H364 0.930 . S
C378 C376 1.395 . S
C378 C381 1.403 . S
C379 C376 1.403 . S
C379 C380 1.524 . S
C379 C383 1.400 . S
C380 H365 0.960 . S
C380 H366 0.960 . S
C380 H367 0.960 . S
C380 C379 1.524 . S
C381 C378 1.403 . S
C381 C382 1.392 . S
C381 C385 1.495 . S
C382 C381 1.392 . S
C382 C383 1.385 . S
C382 C384 1.478 . S
C383 H377 0.930 . S
C383 C379 1.400 . S
C383 C382 1.385 . S
C384 C382 1.478 . S
C384 C386 1.381 . S
C384 C390 1.383 . S
C385 C381 1.495 . S
C385 H391 0.959 . S
C385 H392 0.961 . S
C385 H393 0.960 . S
C386 C384 1.381 . S
C386 C387 1.394 . S
C386 H394 0.930 . S
C387 C386 1.394 . S
C387 C388 1.383 . S
C387 H395 0.929 . S
C388 C387 1.383 . S
C388 C389 1.377 . S
C389 H373 0.930 . S
C389 C388 1.377 . S
C389 C390 1.379 . S
C390 H374 0.931 . S
C390 C384 1.383 . S
C390 C389 1.379 . S
H391 C385 0.959 . S
H392 C385 0.961 . S
H393 C385 0.960 . S
H394 C386 0.930 . S
H395 C387 0.929 . S
H396 C404 0.929 . S
H397 C406 0.930 . S
H398 C408 0.930 . S
H399 C411 0.929 . S
H400 C414 0.930 . S
H401 C416 0.960 . S
H402 C416 0.960 . S
H403 C416 0.960 . S
C404 H396 0.929 . S
C404 C405 1.377 . S
C404 C406 1.384 . S
C405 C404 1.377 . S
C405 C411 1.390 . S
C406 H397 0.930 . S
C406 C404 1.384 . S
C406 C407 1.372 . S
C407 C406 1.372 . S
C407 C408 1.400 . S
C407 C412 1.490 . S
C408 H398 0.930 . S
C408 C407 1.400 . S
C408 C411 1.386 . S
H409 C425 0.930 . S
H410 C426 0.931 . S
C411 H399 0.929 . S
C411 C405 1.390 . S
C411 C408 1.386 . S
C412 C407 1.490 . S
C412 C414 1.395 . S
C412 C415 1.403 . S
H413 C419 0.930 . S
C414 H400 0.930 . S
C414 C412 1.395 . S
C414 C417 1.403 . S
C415 C412 1.403 . S
C415 C416 1.524 . S
C415 C419 1.400 . S
C416 H401 0.960 . S
C416 H402 0.960 . S
C416 H403 0.960 . S
C416 C415 1.524 . S
C417 C414 1.403 . S
C417 C418 1.392 . S
C417 C421 1.495 . S
C418 C417 1.392 . S
C418 C419 1.385 . S
C418 C420 1.478 . S
C419 H413 0.930 . S
C419 C415 1.400 . S
C419 C418 1.385 . S
C420 C418 1.478 . S
C420 C422 1.381 . S
C420 C426 1.383 . S
C421 C417 1.495 . S
C421 H427 0.959 . S
C421 H428 0.961 . S
C421 H429 0.960 . S
C422 C420 1.381 . S
C422 C423 1.394 . S
C422 H430 0.930 . S
C423 C422 1.394 . S
C423 C424 1.383 . S
C423 H431 0.929 . S
C424 C423 1.383 . S
C424 C425 1.377 . S
C425 H409 0.930 . S
C425 C424 1.377 . S
C425 C426 1.379 . S
C426 H410 0.931 . S
C426 C420 1.383 . S
C426 C425 1.379 . S
H427 C421 0.959 . S
H428 C421 0.961 . S
H429 C421 0.960 . S
H430 C422 0.930 . S
H431 C423 0.929 . S
H432 C440 0.929 . S
H433 C442 0.930 . S
H434 C444 0.930 . S
H435 C447 0.929 . S
H436 C450 0.930 . S
H437 C452 0.960 . S
H438 C452 0.960 . S
H439 C452 0.960 . S
C440 H432 0.929 . S
C440 C441 1.377 . S
C440 C442 1.384 . S
C441 C440 1.377 . S
C441 C447 1.390 . S
C442 H433 0.930 . S
C442 C440 1.384 . S
C442 C443 1.372 . S
C443 C442 1.372 . S
C443 C444 1.400 . S
C443 C448 1.490 . S
C444 H434 0.930 . S
C444 C443 1.400 . S
C444 C447 1.386 . S
H445 C461 0.930 . S
H446 C462 0.931 . S
C447 H435 0.929 . S
C447 C441 1.390 . S
C447 C444 1.386 . S
C448 C443 1.490 . S
C448 C450 1.395 . S
C448 C451 1.403 . S
H449 C455 0.930 . S
C450 H436 0.930 . S
C450 C448 1.395 . S
C450 C453 1.403 . S
C451 C448 1.403 . S
C451 C452 1.524 . S
C451 C455 1.400 . S
C452 H437 0.960 . S
C452 H438 0.960 . S
C452 H439 0.960 . S
C452 C451 1.524 . S
C453 C450 1.403 . S
C453 C454 1.392 . S
C453 C457 1.495 . S
C454 C453 1.392 . S
C454 C455 1.385 . S
C454 C456 1.478 . S
C455 H449 0.930 . S
C455 C451 1.400 . S
C455 C454 1.385 . S
C456 C454 1.478 . S
C456 C458 1.381 . S
C456 C462 1.383 . S
C457 C453 1.495 . S
C457 H463 0.959 . S
C457 H464 0.961 . S
C457 H465 0.960 . S
C458 C456 1.381 . S
C458 C459 1.394 . S
C458 H466 0.930 . S
C459 C458 1.394 . S
C459 C460 1.383 . S
C459 H467 0.929 . S
C460 C459 1.383 . S
C460 C461 1.377 . S
C461 H445 0.930 . S
C461 C460 1.377 . S
C461 C462 1.379 . S
C462 H446 0.931 . S
C462 C456 1.383 . S
C462 C461 1.379 . S
H463 C457 0.959 . S
H464 C457 0.961 . S
H465 C457 0.960 . S
H466 C458 0.930 . S
H467 C459 0.929 . S
H468 C476 0.929 . S
H469 C478 0.930 . S
H470 C480 0.930 . S
H471 C483 0.929 . S
H472 C486 0.930 . S
H473 C488 0.960 . S
H474 C488 0.960 . S
H475 C488 0.960 . S
C476 H468 0.929 . S
C476 C477 1.377 . S
C476 C478 1.384 . S
C477 C476 1.377 . S
C477 C483 1.390 . S
C478 H469 0.930 . S
C478 C476 1.384 . S
C478 C479 1.372 . S
C479 C478 1.372 . S
C479 C480 1.400 . S
C479 C484 1.490 . S
C480 H470 0.930 . S
C480 C479 1.400 . S
C480 C483 1.386 . S
H481 C497 0.930 . S
H482 C498 0.931 . S
C483 H471 0.929 . S
C483 C477 1.390 . S
C483 C480 1.386 . S
C484 C479 1.490 . S
C484 C486 1.395 . S
C484 C487 1.403 . S
H485 C491 0.930 . S
C486 H472 0.930 . S
C486 C484 1.395 . S
C486 C489 1.403 . S
C487 C484 1.403 . S
C487 C488 1.524 . S
C487 C491 1.400 . S
C488 H473 0.960 . S
C488 H474 0.960 . S
C488 H475 0.960 . S
C488 C487 1.524 . S
C489 C486 1.403 . S
C489 C490 1.392 . S
C489 C493 1.495 . S
C490 C489 1.392 . S
C490 C491 1.385 . S
C490 C492 1.478 . S
C491 H485 0.930 . S
C491 C487 1.400 . S
C491 C490 1.385 . S
C492 C490 1.478 . S
C492 C494 1.381 . S
C492 C498 1.383 . S
C493 C489 1.495 . S
C493 H499 0.959 . S
C493 H500 0.961 . S
C493 H501 0.960 . S
C494 C492 1.381 . S
C494 C495 1.394 . S
C494 H502 0.930 . S
C495 C494 1.394 . S
C495 C496 1.383 . S
C495 H503 0.929 . S
C496 C495 1.383 . S
C496 C497 1.377 . S
C497 H481 0.930 . S
C497 C496 1.377 . S
C497 C498 1.379 . S
C498 H482 0.931 . S
C498 C492 1.383 . S
C498 C497 1.379 . S
H499 C493 0.959 . S
H500 C493 0.961 . S
H501 C493 0.960 . S
H502 C494 0.930 . S
H503 C495 0.929 . S
H504 C512 0.929 . S
H505 C514 0.930 . S
H506 C516 0.930 . S
H507 C519 0.929 . S
H508 C522 0.930 . S
H509 C524 0.960 . S
H510 C524 0.960 . S
H511 C524 0.960 . S
C512 H504 0.929 . S
C512 C513 1.377 1_655 S
C512 C514 1.384 . S
C513 C512 1.377 1_455 S
C513 C519 1.390 . S
C514 H505 0.930 . S
C514 C512 1.384 . S
C514 C515 1.372 1_655 S
C515 C514 1.372 1_455 S
C515 C516 1.400 . S
C515 C520 1.490 . S
C516 H506 0.930 . S
C516 C515 1.400 . S
C516 C519 1.386 . S
H517 C533 0.930 . S
H518 C534 0.931 . S
C519 H507 0.929 . S
C519 C513 1.390 . S
C519 C516 1.386 . S
C520 C515 1.490 . S
C520 C522 1.386 1_445 S
C520 C523 1.411 . S
H521 C527 0.930 . S
C522 H508 0.930 . S
C522 C520 1.386 1_665 S
C522 C525 1.403 . S
C523 C520 1.411 . S
C523 C524 1.524 . S
C523 C527 1.400 . S
C524 H509 0.960 . S
C524 H510 0.960 . S
C524 H511 0.960 . S
C524 C523 1.524 . S
C525 C522 1.403 . S
C525 C526 1.392 . S
C525 C529 1.495 . S
C526 C525 1.392 . S
C526 C527 1.385 1_665 S
C526 C528 1.478 . S
C527 H521 0.930 . S
C527 C523 1.400 . S
C527 C526 1.385 1_445 S
C528 C526 1.478 . S
C528 C530 1.381 1_565 S
C528 C534 1.383 1_655 S
C529 C525 1.495 . S
C529 H535 0.959 . S
C529 H536 0.961 . S
C529 H537 0.960 . S
C530 C528 1.381 1_545 S
C530 C531 1.394 . S
C530 H538 0.930 . S
C531 C530 1.394 . S
C531 C532 1.386 1_545 S
C531 H539 0.929 . S
C532 C531 1.386 1_565 S
C532 C533 1.374 1_655 S
C533 H517 0.930 . S
C533 C532 1.374 1_455 S
C533 C534 1.379 . S
C534 H518 0.931 . S
C534 C528 1.383 1_455 S
C534 C533 1.379 . S
H535 C529 0.959 . S
H536 C529 0.961 . S
H537 C529 0.960 . S
H538 C530 0.930 . S
H539 C531 0.929 . S
H540 C548 0.929 . S
H541 C550 0.930 . S
H542 C552 0.930 . S
H543 C555 0.929 . S
H544 C558 0.930 . S
H545 C560 0.960 . S
H546 C560 0.960 1_455 S
H547 C560 0.960 . S
C548 H540 0.929 . S
C548 C549 1.377 . S
C548 C550 1.384 . S
C549 C548 1.377 . S
C549 C555 1.390 1_455 S
C550 H541 0.930 . S
C550 C548 1.384 . S
C550 C551 1.372 . S
C551 C550 1.372 . S
C551 C552 1.400 1_455 S
C551 C556 1.490 . S
C552 H542 0.930 . S
C552 C551 1.400 1_655 S
C552 C555 1.386 . S
H553 C569 0.930 . S
H554 C570 0.931 . S
C555 H543 0.929 . S
C555 C549 1.390 1_655 S
C555 C552 1.386 . S
C556 C551 1.490 . S
C556 C558 1.395 1_545 S
C556 C559 1.403 1_455 S
H557 C563 0.930 . S
C558 H544 0.930 . S
C558 C556 1.395 1_565 S
C558 C561 1.403 . S
C559 C556 1.403 1_655 S
C559 C560 1.524 . S
C559 C563 1.400 . S
C560 H545 0.960 . S
C560 H546 0.960 1_655 S
C560 H547 0.960 . S
C560 C559 1.524 . S
C561 C558 1.403 . S
C561 C562 1.392 1_565 S
C561 C565 1.495 . S
C562 C561 1.392 1_545 S
C562 C563 1.385 1_455 S
C562 C564 1.478 . S
C563 H557 0.930 . S
C563 C559 1.400 . S
C563 C562 1.385 1_655 S
C564 C562 1.478 . S
C564 C566 1.381 . S
C564 C570 1.383 1_455 S
C565 C561 1.495 . S
C565 H571 0.959 . S
C565 H572 0.961 . S
C565 H573 0.960 . S
C566 C564 1.381 . S
C566 C567 1.394 . S
C566 H574 0.930 . S
C567 C566 1.394 . S
C567 C568 1.383 . S
C567 H575 0.929 . S
C568 C567 1.383 . S
C568 C569 1.377 1_455 S
C569 H553 0.930 . S
C569 C568 1.377 1_655 S
C569 C570 1.379 . S
C570 H554 0.931 . S
C570 C564 1.383 1_655 S
C570 C569 1.379 . S
H571 C565 0.959 . S
H572 C565 0.961 . S
H573 C565 0.960 . S
H574 C566 0.930 . S
H575 C567 0.929 . S
H576 C584 0.929 . S
H577 C586 0.930 . S
H578 C588 0.930 . S
H579 C591 0.929 . S
H580 C594 0.930 . S
H581 C596 0.960 . S
H582 C596 0.960 . S
H583 C596 0.960 . S
C584 H576 0.929 . S
C584 C585 1.377 . S
C584 C586 1.384 . S
C585 C584 1.377 . S
C585 C591 1.390 . S
C586 H577 0.930 . S
C586 C584 1.384 . S
C586 C587 1.372 . S
C587 C586 1.372 . S
C587 C588 1.400 . S
C587 C592 1.490 . S
C588 H578 0.930 . S
C588 C587 1.400 . S
C588 C591 1.386 . S
H589 C605 0.930 . S
H590 C606 0.931 . S
C591 H579 0.929 . S
C591 C585 1.390 . S
C591 C588 1.386 . S
C592 C587 1.490 . S
C592 C594 1.395 . S
C592 C595 1.403 . S
H593 C599 0.930 . S
C594 H580 0.930 . S
C594 C592 1.395 . S
C594 C597 1.403 . S
C595 C592 1.403 . S
C595 C596 1.524 . S
C595 C599 1.400 . S
C596 H581 0.960 . S
C596 H582 0.960 . S
C596 H583 0.960 . S
C596 C595 1.524 . S
C597 C594 1.403 . S
C597 C598 1.392 . S
C597 C601 1.495 . S
C598 C597 1.392 . S
C598 C599 1.385 . S
C598 C600 1.478 . S
C599 H593 0.930 . S
C599 C595 1.400 . S
C599 C598 1.385 . S
C600 C598 1.478 . S
C600 C602 1.381 . S
C600 C606 1.383 . S
C601 C597 1.495 . S
C601 H607 0.959 . S
C601 H608 0.961 . S
C601 H609 0.960 . S
C602 C600 1.381 . S
C602 C603 1.394 . S
C602 H610 0.930 . S
C603 C602 1.394 . S
C603 C604 1.383 . S
C603 H611 0.929 . S
C604 C603 1.383 . S
C604 C605 1.377 . S
C605 H589 0.930 . S
C605 C604 1.377 . S
C605 C606 1.379 . S
C606 H590 0.931 . S
C606 C600 1.383 . S
C606 C605 1.379 . S
H607 C601 0.959 . S
H608 C601 0.961 . S
H609 C601 0.960 . S
H610 C602 0.930 . S
H611 C603 0.929 . S
H612 C620 0.929 . S
H613 C622 0.930 . S
H614 C624 0.930 . S
H615 C627 0.929 . S
H616 C630 0.930 . S
H617 C632 0.960 . S
H618 C632 0.960 . S
H619 C632 0.960 . S
C620 H612 0.929 . S
C620 C621 1.377 . S
C620 C622 1.384 . S
C621 C620 1.377 . S
C621 C627 1.390 . S
C622 H613 0.930 . S
C622 C620 1.384 . S
C622 C623 1.372 . S
C623 C622 1.372 . S
C623 C624 1.400 . S
C623 C628 1.490 . S
C624 H614 0.930 . S
C624 C623 1.400 . S
C624 C627 1.386 . S
H625 C641 0.930 . S
H626 C642 0.931 . S
C627 H615 0.929 . S
C627 C621 1.390 . S
C627 C624 1.386 . S
C628 C623 1.490 . S
C628 C630 1.395 . S
C628 C631 1.403 . S
H629 C635 0.930 . S
C630 H616 0.930 . S
C630 C628 1.395 . S
C630 C633 1.403 . S
C631 C628 1.403 . S
C631 C632 1.524 . S
C631 C635 1.400 . S
C632 H617 0.960 . S
C632 H618 0.960 . S
C632 H619 0.960 . S
C632 C631 1.524 . S
C633 C630 1.403 . S
C633 C634 1.392 . S
C633 C637 1.495 . S
C634 C633 1.392 . S
C634 C635 1.385 . S
C634 C636 1.478 . S
C635 H629 0.930 . S
C635 C631 1.400 . S
C635 C634 1.385 . S
C636 C634 1.478 . S
C636 C638 1.381 . S
C636 C642 1.383 . S
C637 C633 1.495 . S
C637 H643 0.959 . S
C637 H644 0.961 . S
C637 H645 0.960 . S
C638 C636 1.381 . S
C638 C639 1.394 . S
C638 H646 0.930 . S
C639 C638 1.394 . S
C639 C640 1.383 . S
C639 H647 0.929 . S
C640 C639 1.383 . S
C640 C641 1.377 . S
C641 H625 0.930 . S
C641 C640 1.377 . S
C641 C642 1.379 . S
C642 H626 0.931 . S
C642 C636 1.383 . S
C642 C641 1.379 . S
H643 C637 0.959 . S
H644 C637 0.961 . S
H645 C637 0.960 . S
H646 C638 0.930 . S
H647 C639 0.929 . S
C244 C193 1.382 . S
C225 C27 1.415 . S
C261 N6 1.315 . S
C280 C154 1.346 . S
C297 C16 1.399 . S
C316 C198 1.395 . S
C333 N14 1.339 . S
C352 C159 1.328 . S
C369 C57 1.414 . S
C388 C115 1.378 . S
C405 N36 1.322 . S
C424 C76 1.321 . S
C460 C120 1.393 . S
C441 C46 1.399 . S
C496 C81 1.324 . S
C477 N44 1.345 . S
C513 C10 1.386 . S
C532 C61 1.385 1_655 S
C549 C1 1.524 . S
C568 C100 1.525 . S
C604 C139 1.385 . S
C585 C40 1.386 . S
C621 C31 1.525 . S
C640 C178 1.525 . S
