# Generated by pormake.
# Topology zzz, (3,6)-cn, num edge types: 1
# Building blocks:
#     Node 0, Type 0, BuildingBlock: CUQRIR_clean_linker_1, # of connection points: 3
#     Node 1, Type 0, BuildingBlock: CUQRIR_clean_linker_1, # of connection points: 3
#     Node 2, Type 0, BuildingBlock: CUQRIR_clean_linker_1, # of connection points: 3
#     Node 3, Type 0, BuildingBlock: CUQRIR_clean_linker_1, # of connection points: 3
#     Node 4, Type 0, BuildingBlock: CUQRIR_clean_linker_1, # of connection points: 3
#     Node 5, Type 0, BuildingBlock: CUQRIR_clean_linker_1, # of connection points: 3
#     Node 6, Type 0, BuildingBlock: CUQRIR_clean_linker_1, # of connection points: 3
#     Node 7, Type 0, BuildingBlock: CUQRIR_clean_linker_1, # of connection points: 3
#     Node 8, Type 1, BuildingBlock: PAMTOO_clean_sbu_0, # of connection points: 6
#     Node 9, Type 1, BuildingBlock: PAMTOO_clean_sbu_0, # of connection points: 6
#     Node 10, Type 1, BuildingBlock: PAMTOO_clean_sbu_0, # of connection points: 6
#     Node 11, Type 1, BuildingBlock: PAMTOO_clean_sbu_0, # of connection points: 6
#     Edge 12, Type (0, 1), BuildingBlock: TEMPAE_clean_linker_10, # of connection points: 2
#     Edge 13, Type (0, 1), BuildingBlock: TEMPAE_clean_linker_10, # of connection points: 2
#     Edge 14, Type (0, 1), BuildingBlock: TEMPAE_clean_linker_10, # of connection points: 2
#     Edge 15, Type (0, 1), BuildingBlock: TEMPAE_clean_linker_10, # of connection points: 2
#     Edge 16, Type (0, 1), BuildingBlock: TEMPAE_clean_linker_10, # of connection points: 2
#     Edge 17, Type (0, 1), BuildingBlock: TEMPAE_clean_linker_10, # of connection points: 2
#     Edge 18, Type (0, 1), BuildingBlock: TEMPAE_clean_linker_10, # of connection points: 2
#     Edge 19, Type (0, 1), BuildingBlock: TEMPAE_clean_linker_10, # of connection points: 2
#     Edge 20, Type (0, 1), BuildingBlock: TEMPAE_clean_linker_10, # of connection points: 2
#     Edge 21, Type (0, 1), BuildingBlock: TEMPAE_clean_linker_10, # of connection points: 2
#     Edge 22, Type (0, 1), BuildingBlock: TEMPAE_clean_linker_10, # of connection points: 2
#     Edge 23, Type (0, 1), BuildingBlock: TEMPAE_clean_linker_10, # of connection points: 2
#     Edge 24, Type (0, 1), BuildingBlock: TEMPAE_clean_linker_10, # of connection points: 2
#     Edge 25, Type (0, 1), BuildingBlock: TEMPAE_clean_linker_10, # of connection points: 2
#     Edge 26, Type (0, 1), BuildingBlock: TEMPAE_clean_linker_10, # of connection points: 2
#     Edge 27, Type (0, 1), BuildingBlock: TEMPAE_clean_linker_10, # of connection points: 2
#     Edge 28, Type (0, 1), BuildingBlock: TEMPAE_clean_linker_10, # of connection points: 2
#     Edge 29, Type (0, 1), BuildingBlock: TEMPAE_clean_linker_10, # of connection points: 2
#     Edge 30, Type (0, 1), BuildingBlock: TEMPAE_clean_linker_10, # of connection points: 2
#     Edge 31, Type (0, 1), BuildingBlock: TEMPAE_clean_linker_10, # of connection points: 2
#     Edge 32, Type (0, 1), BuildingBlock: TEMPAE_clean_linker_10, # of connection points: 2
#     Edge 33, Type (0, 1), BuildingBlock: TEMPAE_clean_linker_10, # of connection points: 2
#     Edge 34, Type (0, 1), BuildingBlock: TEMPAE_clean_linker_10, # of connection points: 2
#     Edge 35, Type (0, 1), BuildingBlock: TEMPAE_clean_linker_10, # of connection points: 2
# Relax obj value: 0.257
# Max RMSD: 0.251
# Mean RMSD: 0.130
data_MOF--net-zzz--node1-PAMTOO_clean_sbu_0--node2-CUQRIR_clean_linker_1--edge1-TEMPAE_clean_linker_10
_symmetry_space_group_name_H-M    P1
_symmetry_Int_Tables_number       1
_symmetry_cell_setting            triclinic
loop_
_symmetry_equiv_pos_as_xyz
'x, y, z'
_cell_length_a     54.40684
_cell_length_b     46.47764
_cell_length_c     14.323184
_cell_angle_alpha  92.6463
_cell_angle_beta   78.662367
_cell_angle_gamma 86.088562
loop_
_atom_site_label
_atom_site_type_symbol
_atom_site_fract_x
_atom_site_fract_y
_atom_site_fract_z
_atom_type_partial_charge
C0 C 0.79152 0.5088 0.559 0.0
N1 N 0.81228 0.49267 0.57207 0.0
N2 N 0.77783 0.49311 0.50809 0.0
C3 C 0.78446 0.53958 0.59585 0.0
C4 C 0.79126 0.46715 0.48954 0.0
N5 N 0.81192 0.46682 0.52872 0.0
C6 C 0.78559 0.44332 0.42389 0.0
H7 H 0.7915 0.54409 0.66228 0.0
H8 H 0.76376 0.54431 0.60933 0.0
H9 H 0.79311 0.55403 0.54128 0.0
H10 H 0.78057 0.45246 0.35926 0.0
H11 H 0.76915 0.43259 0.46106 0.0
H12 H 0.80163 0.42677 0.40225 0.0
C13 C 1.0009 0.72375 0.53294 0.0
N14 N 0.99627 0.75293 0.54546 0.0
N15 N 0.99145 0.71332 0.45806 0.0
C16 C 1.0165 0.70588 0.58753 0.0
C17 C 0.98137 0.73724 0.42485 0.0
N18 N 0.9842 0.76113 0.47781 0.0
C19 C 0.97111 0.7375 0.33475 0.0
H20 H 0.03661 0.70615 0.553 0.0
H21 H 1.01144 0.68315 0.58698 0.0
H22 H 1.01403 0.71501 0.66205 0.0
H23 H 0.96027 0.7184 0.32799 0.0
H24 H 0.98706 0.73635 0.27271 0.0
H25 H 0.95891 0.75752 0.33306 0.0
C26 C 0.77646 1.00061 0.39303 0.0
N27 N 0.75203 0.01176 0.4074 0.0
N28 N 0.79153 0.01485 0.32527 0.0
C29 C 0.78539 0.9752 0.44156 0.0
C30 C 0.77524 0.03482 0.29897 0.0
N31 N 0.75158 0.03302 0.34872 0.0
C32 C 0.78238 0.05528 0.22154 0.0
H33 H 0.77406 0.97454 0.51471 0.0
H34 H 0.80558 0.97596 0.44431 0.0
H35 H 0.7831 0.95511 0.4003 0.0
H36 H 0.79614 0.04414 0.16095 0.0
H37 H 0.7915 0.07341 0.25028 0.0
H38 H 0.76578 0.06435 0.19542 0.0
C39 C 0.52282 0.76619 0.37666 0.0
N40 N 0.51807 0.73787 0.37101 0.0
N41 N 0.51591 0.78025 0.3033 0.0
C42 C 0.5348 0.77971 0.45182 0.0
C43 C 0.50701 0.75937 0.25286 0.0
N44 N 0.50833 0.7338 0.29379 0.0
C45 C 0.49787 0.76399 0.16166 0.0
H46 H 0.52227 0.77876 0.5226 0.0
H47 H 0.53834 0.80254 0.43875 0.0
H48 H 0.55275 0.76711 0.45375 0.0
H49 H 0.51362 0.7704 0.10683 0.0
H50 H 0.48288 0.78194 0.17348 0.0
H51 H 0.4903 0.74443 0.13454 0.0
C52 C 0.25748 0.50578 0.09997 0.0
N53 N 0.23691 0.52155 0.08345 0.0
N54 N 0.2705 0.52194 0.15228 0.0
C55 C 0.26497 0.47492 0.06504 0.0
C56 C 0.25686 0.54781 0.16808 0.0
N57 N 0.23672 0.54764 0.12593 0.0
C58 C 0.26177 0.5721 0.23364 0.0
H59 H 0.28566 0.47041 0.05412 0.0
H60 H 0.25857 0.46997 0.99754 0.0
H61 H 0.256 0.46063 0.11954 0.0
H62 H 0.27808 0.58314 0.19703 0.0
H63 H 0.26663 0.5634 0.29915 0.0
H64 H 0.24541 0.58829 0.25376 0.0
C65 C 0.04218 0.28554 0.11591 0.0
N66 N 0.04818 0.25652 0.10363 0.0
N67 N 0.05204 0.2971 0.18811 0.0
C68 C 0.02635 0.30251 0.05987 0.0
C69 C 0.06377 0.27408 0.22011 0.0
N70 N 0.06155 0.24961 0.16888 0.0
C71 C 0.07455 0.27503 0.30908 0.0
H72 H 0.03185 0.32505 0.05532 0.0
H73 H 1.00638 0.30323 0.09702 0.0
H74 H 0.02812 0.29221 0.98717 0.0
H75 H 0.05892 0.27571 0.37213 0.0
H76 H 0.08464 0.29482 0.31409 0.0
H77 H 0.08758 0.25572 0.31076 0.0
C78 C 0.2652 0.99962 0.27374 0.0
N79 N 0.28967 0.98908 0.2663 0.0
N80 N 0.24983 0.98916 0.3503 0.0
C81 C 0.25615 0.01889 0.2044 0.0
C82 C 0.26601 0.97234 0.3893 0.0
N83 N 0.28973 0.97211 0.33846 0.0
C84 C 0.25906 0.95788 0.48187 0.0
H85 H 0.25702 0.04172 0.22893 0.0
H86 H 0.23637 0.01543 0.20078 0.0
H87 H 0.2683 0.01497 0.13242 0.0
H88 H 0.25418 0.93561 0.46634 0.0
H89 H 0.24264 0.96981 0.52967 0.0
H90 H 0.27502 0.9564 0.51957 0.0
C91 C 0.52494 0.24839 0.29697 0.0
N92 N 0.52909 0.27693 0.3018 0.0
N93 N 0.53235 0.23474 0.37028 0.0
C94 C 0.5127 0.23416 0.22382 0.0
C95 C 0.54093 0.25612 0.41987 0.0
N96 N 0.539 0.28151 0.37835 0.0
C97 C 0.55071 0.2521 0.51016 0.0
H98 H 0.49199 0.23739 0.24805 0.0
H99 H 0.5182 0.2106 0.21504 0.0
H100 H 0.51776 0.24398 0.15422 0.0
H101 H 0.56977 0.24069 0.49182 0.0
H102 H 0.5384 0.23848 0.55775 0.0
H103 H 0.55212 0.27288 0.54902 0.0
Dy104 Dy 1.00808 0.00727 0.73269 0.0
Dy105 Dy 0.0311 1.00204 0.92198 0.0
C106 C 0.06856 1.00517 0.71906 0.0
O107 O 1.00166 0.96255 0.779 0.0
O108 O 0.03386 0.95632 0.85852 0.0
O109 O 1.00343 0.987 0.59926 0.0
O110 O 0.98729 0.03061 0.64203 0.0
O111 O 0.99047 0.99296 0.97182 0.0
O112 O 0.97379 0.01341 0.85268 0.0
O113 O 1.01285 0.04667 0.92502 0.0
O114 O 0.02006 0.05155 0.76585 0.0
O115 O 0.03796 0.02421 0.04928 0.0
O116 O 0.05123 0.97938 0.01555 0.0
C117 C 1.01706 0.94547 0.81543 0.0
O118 O 0.04995 0.99792 0.67846 0.0
O119 O 0.06445 0.01221 0.8112 0.0
C120 C 1.00793 0.02139 0.48286 0.0
C121 C 0.03748 0.05466 0.35336 0.0
C122 C 0.04882 0.03178 0.39377 0.0
C123 C 0.03411 0.015 0.45723 0.0
C124 C 0.9964 0.04235 0.43485 0.0
C125 C 1.01113 0.05882 0.36974 0.0
C126 C 0.99394 0.01094 0.57177 0.0
C127 C 0.97084 1.00294 0.93815 0.0
C128 C 1.01602 0.06331 0.85315 0.0
C129 C 0.03334 0.99266 0.1739 0.0
C130 C 1.00586 0.96034 0.31243 0.0
C131 C 0.99337 0.98167 0.26878 0.0
C132 C 1.00703 0.99767 0.19943 0.0
C133 C 0.04599 0.97419 0.22606 0.0
C134 C 0.03237 0.95808 0.29482 0.0
C135 C 0.04663 1.00058 0.08081 0.0
H136 H 0.06911 0.02837 0.38182 0.0
H137 H 0.04339 0.99854 0.49196 0.0
H138 H 0.97626 0.0476 0.45354 0.0
H139 H 1.0021 0.07661 0.3395 0.0
H140 H 0.97304 0.98435 0.28265 0.0
H141 H 0.99687 0.01202 0.16017 0.0
H142 H 0.06625 0.97008 0.20719 0.0
H143 H 0.04269 0.94181 0.3268 0.0
Dy144 Dy 0.51774 0.98467 0.7495 0.0
Dy145 Dy 0.52353 0.02989 0.92148 0.0
C146 C 0.51724 0.05195 0.72178 0.0
O147 O 0.55968 0.98183 0.74136 0.0
O148 O 0.56272 0.02351 0.82959 0.0
O149 O 0.50858 0.97683 0.61158 0.0
O150 O 0.52079 0.94095 0.68682 0.0
O151 O 0.53545 0.98635 0.96842 0.0
O152 O 0.51302 0.95988 0.88099 0.0
O153 O 0.48359 0.01792 0.96317 0.0
O154 O 0.47736 0.99986 0.81879 0.0
O155 O 0.51652 0.04485 0.06985 0.0
O156 O 0.53532 0.07136 0.962 0.0
C157 C 0.57325 1.00172 0.76943 0.0
O158 O 0.52714 0.02652 0.6841 0.0
O159 O 0.50791 0.05522 0.81369 0.0
C160 C 0.48923 0.93406 0.59903 0.0
C161 C 0.44565 0.91439 0.54847 0.0
C162 C 0.44397 0.93295 0.63033 0.0
C163 C 0.46557 0.94254 0.65556 0.0
C164 C 0.49131 0.9138 0.52192 0.0
C165 C 0.46962 0.90388 0.49694 0.0
C166 C 0.5111 0.94882 0.61483 0.0
C167 C 0.52531 0.96223 0.95085 0.0
C168 C 0.46849 0.00873 0.90884 0.0
C169 C 0.54772 0.07327 0.10985 0.0
C170 C 0.58656 0.08343 0.20796 0.0
C171 C 0.57957 0.05522 0.19354 0.0
C172 C 0.56043 0.05017 0.14469 0.0
C173 C 0.55428 0.10154 0.12532 0.0
C174 C 0.57372 0.10661 0.17359 0.0
C175 C 0.52863 0.06792 0.05293 0.0
H176 H 0.42595 0.94186 0.67129 0.0
H177 H 0.46367 0.95798 0.71591 0.0
H178 H 0.50955 0.9067 0.47865 0.0
H179 H 0.47158 0.8891 0.43482 0.0
H180 H 0.58951 0.03685 0.21729 0.0
H181 H 0.55595 0.02813 0.13249 0.0
H182 H 0.54469 0.11961 0.0985 0.0
H183 H 0.57873 0.12852 0.18394 0.0
Dy184 Dy 0.55108 0.51251 0.86805 0.0
Dy185 Dy 0.49436 0.50248 0.80612 0.0
C186 C 0.51991 0.45865 0.94587 0.0
O187 O 0.55776 0.4781 0.74968 0.0
O188 O 0.52435 0.48966 0.67898 0.0
O189 O 0.59052 0.50052 0.86438 0.0
O190 O 0.57328 0.54116 0.93489 0.0
O191 O 0.50636 0.54074 0.72576 0.0
O192 O 0.5435 0.54899 0.77536 0.0
O193 O 0.48786 0.5373 0.92315 0.0
O194 O 0.52091 0.52514 0.99483 0.0
O195 O 0.45494 0.51466 0.80973 0.0
O196 O 0.47201 0.47389 0.73979 0.0
C197 C 0.54561 0.47471 0.67977 0.0
O198 O 0.53931 0.47402 0.9474 0.0
O199 O 0.5019 0.46604 0.89939 0.0
C200 C 0.60874 0.52035 0.99139 0.0
C201 C 0.64254 0.51673 0.12022 0.0
C202 C 0.6308 0.54348 0.10416 0.0
C203 C 0.61422 0.54525 0.04057 0.0
C204 C 0.61997 0.49347 0.00885 0.0
C205 C 0.63659 0.49169 0.0725 0.0
C206 C 0.59349 0.52343 0.91591 0.0
C207 C 0.52565 0.55623 0.72804 0.0
C208 C 0.49995 0.54059 0.99326 0.0
C209 C 0.43682 0.49496 0.68223 0.0
C210 C 0.40351 0.49878 0.55153 0.0
C211 C 0.41525 0.47201 0.56746 0.0
C212 C 0.43157 0.47014 0.63196 0.0
C213 C 0.42557 0.52186 0.66503 0.0
C214 C 0.40919 0.52374 0.60047 0.0
C215 C 0.45189 0.49176 0.75828 0.0
H216 H 0.63505 0.5633 0.13825 0.0
H217 H 0.60619 0.56633 0.02779 0.0
H218 H 0.61632 0.47382 0.97203 0.0
H219 H 0.64492 0.47063 0.08387 0.0
H220 H 0.41119 0.45224 0.53246 0.0
H221 H 0.43961 0.44904 0.6445 0.0
H222 H 0.42903 0.54144 0.70267 0.0
H223 H 0.40087 0.54481 0.58929 0.0
Dy224 Dy 0.03357 0.53158 0.74853 0.0
Dy225 Dy 0.01928 0.47922 0.88922 0.0
C226 C 0.03835 0.46723 0.65789 0.0
O227 O 0.99653 0.51969 0.71926 0.0
O228 O 0.98233 0.49584 0.85405 0.0
O229 O 0.02242 0.57187 0.6915 0.0
O230 O 0.06168 0.55582 0.66791 0.0
O231 O 1.00878 0.51656 0.99699 0.0
O232 O 0.01973 0.55289 0.89568 0.0
O233 O 0.05386 0.49602 0.92679 0.0
O234 O 0.06991 0.51189 0.78105 0.0
O235 O 0.03241 0.44525 0.97019 0.0
O236 O 0.99493 0.44624 0.94042 0.0
C237 C 0.97843 0.50827 0.77678 0.0
O238 O 0.03493 0.49464 0.64186 0.0
O239 O 0.03777 0.45871 0.74461 0.0
C240 C 0.04988 0.58568 0.55306 0.0
C241 C 0.07302 0.60721 0.38049 0.0
C242 C 0.07205 0.57722 0.38912 0.0
C243 C 0.06053 0.56652 0.47491 0.0
C244 C 0.04791 0.61545 0.54075 0.0
C245 C 0.05933 0.62619 0.45471 0.0
C246 C 0.04542 0.57575 0.65032 0.0
C247 C 1.0112 0.544 0.98124 0.0
C248 C 0.07298 0.50372 0.86496 0.0
C249 C 1.00138 0.42418 0.07864 0.0
C250 C 0.97423 0.40504 0.24855 0.0
C251 C 0.97502 0.43479 0.23482 0.0
C252 C 0.98853 0.44431 0.15033 0.0
C253 C 1.00236 0.39466 0.09512 0.0
C254 C 0.98882 0.38509 0.17965 0.0
C255 C 1.01123 0.43317 0.98288 0.0
H256 H 0.08244 0.56196 0.33348 0.0
H257 H 0.06198 0.54343 0.48277 0.0
H258 H 0.03951 0.63053 0.60024 0.0
H259 H 0.0595 0.64936 0.44949 0.0
H260 H 0.96365 0.45064 0.28612 0.0
H261 H 0.98768 0.46719 0.13856 0.0
H262 H 1.01234 0.3789 0.04024 0.0
H263 H 0.98842 0.36209 0.18853 0.0
C264 C 0.21034 0.02095 0.41064 0.0
C265 C 0.22264 0.99334 0.38484 0.0
C266 C 0.18486 0.02457 0.45982 0.0
C267 C 0.17132 1.00003 0.4857 0.0
C268 C 0.1835 0.97218 0.4563 0.0
C269 C 0.20865 0.96927 0.4056 0.0
C270 C 0.17262 0.05468 0.48648 0.0
C271 C 0.1702 0.94528 0.4813 0.0
C272 C 0.116 0.0055 0.70221 0.0
C273 C 0.09483 1.00496 0.65951 0.0
C274 C 0.14075 1.00434 0.64692 0.0
C275 C 0.14482 1.00309 0.54562 0.0
C276 C 0.12349 1.00309 0.50219 0.0
C277 C 0.099 1.00389 0.55921 0.0
C278 C 0.16267 1.00372 0.69718 0.0
C279 C 0.12645 1.00246 0.39509 0.0
H280 H 0.22094 0.03969 0.39566 0.0
H281 H 0.21788 0.94788 0.3851 0.0
H282 H 0.15451 0.05711 0.46195 0.0
H283 H 0.16835 0.05851 0.56522 0.0
H284 H 0.18479 0.07147 0.45522 0.0
H285 H 0.1821 0.92521 0.45273 0.0
H286 H 0.16476 0.94466 0.56 0.0
H287 H 0.15267 0.94556 0.4527 0.0
H288 H 0.11329 0.00623 0.77931 0.0
H289 H 0.08306 1.00379 0.52472 0.0
H290 H 0.17439 0.02185 0.67584 0.0
H291 H 0.17478 0.98337 0.67562 0.0
H292 H 0.15655 1.00527 0.77606 0.0
H293 H 0.1323 0.02363 0.36981 0.0
H294 H 0.10871 0.99816 0.37161 0.0
H295 H 0.14131 0.98571 0.35995 0.0
C296 C 0.55116 0.18835 0.41182 0.0
C297 C 0.53 0.2052 0.39731 0.0
C298 C 0.54884 0.16194 0.45606 0.0
C299 C 0.52469 0.15185 0.48621 0.0
C300 C 0.50342 0.16784 0.46552 0.0
C301 C 0.50631 0.1944 0.42194 0.0
C302 C 0.57215 0.14559 0.47486 0.0
C303 C 0.47744 0.15754 0.49325 0.0
C304 C 0.5222 0.07367 0.5612 0.0
C305 C 0.51788 0.0774 0.66123 0.0
C306 C 0.5239 0.09755 0.50336 0.0
C307 C 0.5216 0.12602 0.5461 0.0
C308 C 0.51717 0.12987 0.64706 0.0
C309 C 0.51512 0.10565 0.70313 0.0
C310 C 0.52796 0.09226 0.39653 0.0
C311 C 0.51519 0.15965 0.69606 0.0
H312 H 0.56952 0.19652 0.39173 0.0
H313 H 0.48991 0.20742 0.41127 0.0
H314 H 0.57126 0.14556 0.55294 0.0
H315 H 0.57321 0.12275 0.44735 0.0
H316 H 0.58964 0.15522 0.44137 0.0
H317 H 0.46334 0.1705 0.46282 0.0
H318 H 0.47752 0.13452 0.46874 0.0
H319 H 0.47149 0.15903 0.57209 0.0
H320 H 0.5242 0.05199 0.52785 0.0
H321 H 0.51199 0.10888 0.78011 0.0
H322 H 0.54303 0.10514 0.36047 0.0
H323 H 0.5105 0.09936 0.37218 0.0
H324 H 0.53297 0.0691 0.37341 0.0
H325 H 0.53279 0.17026 0.67163 0.0
H326 H 0.5118 0.15908 0.77499 0.0
H327 H 0.49962 0.17325 0.67664 0.0
C328 C 0.31308 0.52969 0.17846 0.0
C329 C 0.29194 0.51358 0.19377 0.0
C330 C 0.33218 0.52571 0.23131 0.0
C331 C 0.33016 0.50508 0.30178 0.0
C332 C 0.30935 0.48778 0.31437 0.0
C333 C 0.29049 0.49226 0.26026 0.0
C334 C 0.35394 0.54458 0.21471 0.0
C335 C 0.30637 0.46548 0.38822 0.0
C336 C 0.38867 0.48302 0.40141 0.0
C337 C 0.38487 0.50048 0.4867 0.0
C338 C 0.37103 0.48406 0.34111 0.0
C339 C 0.34891 0.50302 0.36611 0.0
C340 C 0.34494 0.52066 0.45203 0.0
C341 C 0.36286 0.51918 0.51097 0.0
C342 C 0.37615 0.46496 0.25022 0.0
C343 C 0.32167 0.54118 0.48191 0.0
H344 H 0.31415 0.54619 0.12712 0.0
H345 H 0.27397 0.48011 0.27322 0.0
H346 H 0.35313 0.55915 0.27904 0.0
H347 H 0.37205 0.53113 0.20264 0.0
H348 H 0.35378 0.55801 0.15262 0.0
H349 H 0.29045 0.45209 0.38358 0.0
H350 H 0.32387 0.45105 0.37975 0.0
H351 H 0.30301 0.47644 0.46059 0.0
H352 H 0.40566 0.46871 0.38096 0.0
H353 H 0.35938 0.53242 0.5772 0.0
H354 H 0.3774 0.47846 0.18782 0.0
H355 H 0.36039 0.45109 0.24914 0.0
H356 H 0.39389 0.45089 0.24184 0.0
H357 H 0.32073 0.55692 0.42655 0.0
H358 H 0.32122 0.55331 0.55098 0.0
H359 H 0.30461 0.52903 0.48855 0.0
C360 C 0.06775 0.34402 0.22294 0.0
C361 C 0.048 0.32587 0.23364 0.0
C362 C 0.0665 0.36916 0.28321 0.0
C363 C 0.04503 0.37618 0.35669 0.0
C364 C 0.02448 0.35857 0.36414 0.0
C365 C 0.02626 0.33362 0.3027 0.0
C366 C 0.08873 0.38729 0.2718 0.0
C367 C 1.00119 0.36479 0.44098 0.0
C368 C 0.05054 0.4162 0.58978 0.0
C369 C 0.04211 0.44473 0.57716 0.0
C370 C 0.05229 0.3941 0.51757 0.0
C371 C 0.04492 0.40031 0.43055 0.0
C372 C 0.03691 0.42923 0.41642 0.0
C373 C 0.03583 0.45105 0.48935 0.0
C374 C 0.06192 0.36397 0.53487 0.0
C375 C 0.02947 0.43769 0.32482 0.0
H376 H 0.08471 0.33764 0.17041 0.0
H377 H 1.01122 0.31923 0.31204 0.0
H378 H 0.08261 0.40999 0.26155 0.0
H379 H 0.09661 0.38732 0.33765 0.0
H380 H 0.10383 0.37927 0.21025 0.0
H381 H 0.98469 0.35538 0.42013 0.0
H382 H 1.00432 0.35488 0.50709 0.0
H383 H 0.99684 0.38832 0.45764 0.0
H384 H 0.05569 0.41099 0.65674 0.0
H385 H 0.02935 0.47297 0.47824 0.0
H386 H 0.07732 0.35561 0.4749 0.0
H387 H 0.04662 0.34923 0.5383 0.0
H388 H 0.06903 0.36318 0.60237 0.0
H389 H 0.04539 0.44759 0.2804 0.0
H390 H 1.01324 0.45422 0.33988 0.0
H391 H 0.02461 0.41909 0.2827 0.0
C392 C 0.83424 0.03228 0.28736 0.0
C393 C 0.81829 0.00989 0.28406 0.0
C394 C 0.85931 0.02989 0.23535 0.0
C395 C 0.86896 1.00453 0.17696 0.0
C396 C 0.85312 0.98143 0.17581 0.0
C397 C 0.82809 0.98436 0.22928 0.0
C398 C 0.87525 0.05501 0.24066 0.0
C399 C 0.86233 0.95395 0.1153 0.0
C400 C 0.92333 0.01284 0.96477 0.0
C401 C 0.94471 1.00247 0.99837 0.0
C402 C 0.8988 0.01312 0.02108 0.0
C403 C 0.8951 1.00285 0.11433 0.0
C404 C 0.91654 0.99196 0.14824 0.0
C405 C 0.94089 0.99192 0.09038 0.0
C406 C 0.87673 0.02476 0.98083 0.0
C407 C 0.91386 0.98086 0.2468 0.0
H408 H 0.82675 0.05208 0.32919 0.0
H409 H 0.8158 0.96717 0.22514 0.0
H410 H 0.89323 0.0476 0.26069 0.0
H411 H 0.87997 0.06404 0.16955 0.0
H412 H 0.86559 0.07253 0.29316 0.0
H413 H 0.84843 0.93737 0.12602 0.0
H414 H 0.86625 0.95873 0.03884 0.0
H415 H 0.88023 0.94482 0.13213 0.0
H416 H 0.92574 0.02099 0.89413 0.0
H417 H 0.95702 0.98375 0.1179 0.0
H418 H 0.8671 0.04395 0.02545 0.0
H419 H 0.86284 0.00828 0.98258 0.0
H420 H 0.88247 0.03102 0.90623 0.0
H421 H 0.90873 0.9993 0.30076 0.0
H422 H 0.93151 0.96931 0.25777 0.0
H423 H 0.8986 0.96601 0.25994 0.0
C424 C 0.49781 0.82843 0.27529 0.0
C425 C 0.51899 0.80965 0.27661 0.0
C426 C 0.50002 0.85484 0.23103 0.0
C427 C 0.52406 0.86284 0.18688 0.0
C428 C 0.54566 0.84461 0.19291 0.0
C429 C 0.54285 0.81821 0.23744 0.0
C430 C 0.47644 0.8733 0.22628 0.0
C431 C 0.57164 0.8522 0.14742 0.0
C432 C 0.52447 0.9091 0.97314 0.0
C433 C 0.52696 0.93695 0.01085 0.0
C434 C 0.52432 0.88492 0.02878 0.0
C435 C 0.52626 0.88844 0.12583 0.0
C436 C 0.52919 0.91646 0.16415 0.0
C437 C 0.52972 0.94031 0.10609 0.0
C438 C 0.52161 0.85556 0.98379 0.0
C439 C 0.53052 0.9216 0.26766 0.0
H440 H 0.47936 0.82169 0.30511 0.0
H441 H 0.55919 0.80351 0.2374 0.0
H442 H 0.4786 0.89627 0.24525 0.0
H443 H 0.47311 0.87202 0.15229 0.0
H444 H 0.45964 0.86622 0.27446 0.0
H445 H 0.5866 0.83729 0.16571 0.0
H446 H 0.57363 0.85119 0.0687 0.0
H447 H 0.57456 0.87463 0.17034 0.0
H448 H 0.52253 0.90616 0.89948 0.0
H449 H 0.53139 0.96173 0.13631 0.0
H450 H 0.50378 0.84716 0.01954 0.0
H451 H 0.5372 0.84002 0.99341 0.0
H452 H 0.52162 0.85617 0.90634 0.0
H453 H 0.51131 0.9216 0.31156 0.0
H454 H 0.53794 0.94272 0.2817 0.0
H455 H 0.54246 0.90417 0.29122 0.0
C456 C 0.73472 0.48614 0.48697 0.0
C457 C 0.75601 0.50195 0.46953 0.0
C458 C 0.71528 0.49026 0.43581 0.0
C459 C 0.71711 0.51075 0.36494 0.0
C460 C 0.73805 0.52784 0.35045 0.0
C461 C 0.75726 0.52321 0.40286 0.0
C462 C 0.6934 0.47159 0.45434 0.0
C463 C 0.74082 0.55 0.27615 0.0
C464 C 0.68343 0.49633 0.15877 0.0
C465 C 0.6615 0.51513 0.18377 0.0
C466 C 0.70164 0.49492 0.21648 0.0
C467 C 0.69805 0.51277 0.30185 0.0
C468 C 0.67603 0.53185 0.32755 0.0
C469 C 0.65809 0.5328 0.2685 0.0
C470 C 0.72479 0.47426 0.18589 0.0
C471 C 0.67132 0.55117 0.41789 0.0
H472 H 0.73383 0.46965 0.53835 0.0
H473 H 0.7739 0.53511 0.38824 0.0
H474 H 0.67535 0.48517 0.46685 0.0
H475 H 0.6939 0.45684 0.39071 0.0
H476 H 0.69371 0.45836 0.51681 0.0
H477 H 0.75682 0.56337 0.2797 0.0
H478 H 0.74394 0.53892 0.20402 0.0
H479 H 0.72333 0.56447 0.28512 0.0
H480 H 0.68661 0.48293 0.09292 0.0
H481 H 0.64117 0.54719 0.28948 0.0
H482 H 0.7259 0.45865 0.24151 0.0
H483 H 0.74192 0.48632 0.17788 0.0
H484 H 0.72493 0.46199 0.11735 0.0
H485 H 0.67025 0.53783 0.48062 0.0
H486 H 0.65363 0.56534 0.42683 0.0
H487 H 0.68721 0.56495 0.41762 0.0
C488 C 1.01759 0.67676 0.34475 0.0
C489 C 0.99525 0.68487 0.41025 0.0
C490 C 0.0197 0.65205 0.28212 0.0
C491 C 0.99895 0.63493 0.28496 0.0
C492 C 0.97669 0.64244 0.35428 0.0
C493 C 0.9751 0.66739 0.41575 0.0
C494 C 0.04367 0.64534 0.20912 0.0
C495 C 0.95409 0.62506 0.35993 0.0
C496 C 0.9977 0.59475 0.04754 0.0
C497 C 1.00553 0.56624 0.06265 0.0
C498 C 0.99443 0.61685 0.12052 0.0
C499 C 0.99996 0.6107 0.21059 0.0
C500 C 1.00746 0.58178 0.22693 0.0
C501 C 1.00973 0.55986 0.15335 0.0
C502 C 0.9853 0.64694 0.10062 0.0
C503 C 1.01327 0.57368 0.32153 0.0
H504 H 0.03294 0.69068 0.33932 0.0
H505 H 0.95769 0.67409 0.46537 0.0
H506 H 0.04857 0.62172 0.19916 0.0
H507 H 0.04103 0.6531 0.13946 0.0
H508 H 0.0596 0.65615 0.22953 0.0
H509 H 0.93832 0.63347 0.41849 0.0
H510 H 0.94748 0.62536 0.2914 0.0
H511 H 0.95933 0.6022 0.37142 0.0
H512 H 0.99417 0.59986 0.97803 0.0
H513 H 1.01582 0.53792 0.16582 0.0
H514 H 1.00049 0.66168 0.1004 0.0
H515 H 0.9692 0.65542 0.15763 0.0
H516 H 0.97935 0.64756 0.0308 0.0
H517 H 0.02725 0.55468 0.3124 0.0
H518 H 0.99579 0.5677 0.36815 0.0
H519 H 0.02048 0.59176 0.35867 0.0
C520 C 0.08803 0.2048 0.17428 0.0
C521 C 0.06478 0.22087 0.19927 0.0
C522 C 0.09034 0.17555 0.1947 0.0
C523 C 0.06882 0.16248 0.24086 0.0
C524 C 0.04549 0.17923 0.26894 0.0
C525 C 0.04383 0.20822 0.24749 0.0
C526 C 0.11553 0.15866 0.16406 0.0
C527 C 0.02213 0.16668 0.32152 0.0
C528 C 0.0541 0.08513 0.22005 0.0
C529 C 0.05251 0.07804 0.31458 0.0
C530 C 0.06329 0.11137 0.19017 0.0
C531 C 0.06973 0.13122 0.25798 0.0
C532 C 0.07089 0.12249 0.35033 0.0
C533 C 0.06227 0.09585 0.37762 0.0
C534 C 0.06512 0.11832 0.08747 0.0
C535 C 0.07907 0.14229 0.42296 0.0
H536 H 0.10409 0.21491 0.13622 0.0
H537 H 0.02599 0.22109 0.26639 0.0
H538 H 0.11852 0.14226 0.21546 0.0
H539 H 0.11634 0.14724 0.09368 0.0
H540 H 0.13116 0.17312 0.15637 0.0
H541 H 1.00483 0.1809 0.32196 0.0
H542 H 0.01981 0.14511 0.28958 0.0
H543 H 0.02383 0.16393 0.39656 0.0
H544 H 0.04714 0.0708 0.17106 0.0
H545 H 0.06129 0.08999 0.45064 0.0
H546 H 0.08522 0.1167 0.05158 0.0
H547 H 0.05745 0.1407 0.08194 0.0
H548 H 0.05527 0.10312 0.04836 0.0
H549 H 0.09511 0.15425 0.3889 0.0
H550 H 0.08461 0.13016 0.48161 0.0
H551 H 0.06329 0.15839 0.45463 0.0
C552 C 0.32947 0.97569 0.39183 0.0
C553 C 0.31176 0.9586 0.36396 0.0
C554 C 0.35104 0.96299 0.41747 0.0
C555 C 0.35503 0.93245 0.41348 0.0
C556 C 0.33733 0.9151 0.3833 0.0
C557 C 0.31562 0.92848 0.35993 0.0
C558 C 0.36936 0.98228 0.45016 0.0
C559 C 0.34149 0.88257 0.37473 0.0
C560 C 0.42321 0.91254 0.41229 0.0
C561 C 0.42263 0.91018 0.50999 0.0
C562 C 0.40096 0.9164 0.37761 0.0
C563 C 0.37764 0.91916 0.44285 0.0
C564 C 0.37679 0.91405 0.54002 0.0
C565 C 0.39934 0.90906 0.57211 0.0
C566 C 0.40275 0.92061 0.27272 0.0
C567 C 0.3523 0.91689 0.61207 0.0
H568 H 0.32614 0.999 0.39444 0.0
H569 H 0.30179 0.91557 0.33704 0.0
H570 H 0.38831 0.9777 0.4044 0.0
H571 H 0.36353 0.00559 0.44807 0.0
H572 H 0.37098 0.97781 0.52425 0.0
H573 H 0.35943 0.87591 0.32426 0.0
H574 H 0.34316 0.87426 0.44474 0.0
H575 H 0.32599 0.87226 0.34924 0.0
H576 H 0.44097 0.91389 0.36364 0.0
H577 H 0.39872 0.90645 0.64733 0.0
H578 H 0.40333 0.94396 0.26066 0.0
H579 H 0.38631 0.91279 0.24694 0.0
H580 H 0.4202 0.90925 0.22941 0.0
H581 H 0.33762 0.90563 0.58462 0.0
H582 H 0.34556 0.94008 0.62542 0.0
H583 H 0.35443 0.90809 0.68111 0.0
C584 C 0.56351 0.32421 0.36165 0.0
C585 C 0.54444 0.30929 0.41382 0.0
C586 C 0.56798 0.35208 0.39323 0.0
C587 C 0.55283 0.36514 0.47848 0.0
C588 C 0.53354 0.34995 0.53119 0.0
C589 C 0.52957 0.3222 0.49791 0.0
C590 C 0.58883 0.36747 0.33565 0.0
C591 C 0.5168 0.36317 0.622 0.0
C592 C 0.56976 0.42707 0.62811 0.0
C593 C 0.55306 0.44956 0.61026 0.0
C594 C 0.57147 0.3998 0.57984 0.0
C595 C 0.55622 0.39508 0.51198 0.0
C596 C 0.54137 0.41852 0.48669 0.0
C597 C 0.53998 0.4455 0.53607 0.0
C598 C 0.58773 0.37543 0.60815 0.0
C599 C 0.5249 0.41464 0.41445 0.0
H600 H 0.57475 0.31403 0.29603 0.0
H601 H 0.51456 0.31057 0.53654 0.0
H602 H 0.58224 0.39008 0.32626 0.0
H603 H 0.60454 0.36834 0.37442 0.0
H604 H 0.59618 0.35637 0.26424 0.0
H605 H 0.50326 0.34806 0.656 0.0
H606 H 0.52839 0.36974 0.67385 0.0
H607 H 0.50604 0.38291 0.60642 0.0
H608 H 0.58008 0.43 0.6849 0.0
H609 H 0.52725 0.46282 0.52079 0.0
H610 H 0.60126 0.38344 0.65021 0.0
H611 H 0.59836 0.36245 0.54421 0.0
H612 H 0.57559 0.36082 0.6522 0.0
H613 H 0.50687 0.40666 0.45025 0.0
H614 H 0.53382 0.39857 0.35611 0.0
H615 H 0.52057 0.43535 0.3831 0.0
C616 C 0.1947 0.55897 0.22018 0.0
C617 C 0.21452 0.56704 0.15186 0.0
C618 C 0.17155 0.57514 0.23954 0.0
C619 C 0.16817 0.60013 0.18842 0.0
C620 C 0.18852 0.60884 0.12067 0.0
C621 C 0.21167 0.59211 0.10338 0.0
C622 C 0.15054 0.56477 0.31275 0.0
C623 C 0.18571 0.63477 0.06309 0.0
C624 C 0.09965 0.6041 0.21608 0.0
C625 C 0.09338 0.61755 0.30825 0.0
C626 C 0.12423 0.60381 0.16295 0.0
C627 C 0.14281 0.6157 0.20595 0.0
C628 C 0.13538 0.63432 0.2889 0.0
C629 C 0.11052 0.63516 0.33943 0.0
C630 C 0.13114 0.58743 0.06708 0.0
C631 C 0.15446 0.64909 0.33345 0.0
H632 H 0.1973 0.53934 0.25635 0.0
H633 H 0.2272 0.59785 0.0495 0.0
H634 H 0.14347 0.58196 0.36988 0.0
H635 H 0.13464 0.55953 0.27869 0.0
H636 H 0.15663 0.54518 0.34648 0.0
H637 H 0.20403 0.6441 0.04001 0.0
H638 H 0.17892 0.62789 0.99803 0.0
H639 H 0.17193 0.65182 0.10347 0.0
H640 H 0.08621 0.59131 0.1899 0.0
H641 H 0.10574 0.6463 0.40954 0.0
H642 H 0.1451 0.56912 0.06936 0.0
H643 H 0.14012 0.60188 0.01314 0.0
H644 H 0.11455 0.57903 0.04368 0.0
H645 H 0.16277 0.63378 0.37816 0.0
H646 H 0.14559 0.66833 0.37987 0.0
H647 H 0.16991 0.65582 0.27802 0.0
C648 C 0.99801 0.80071 0.3788 0.0
C649 C 0.98072 0.79044 0.45257 0.0
C650 C 0.9968 0.82997 0.35959 0.0
C651 C 0.97763 0.84928 0.41538 0.0
C652 C 0.95911 0.8385 0.48624 0.0
C653 C 0.96109 0.80909 0.50478 0.0
C654 C 1.01672 0.84038 0.28243 0.0
C655 C 0.93722 0.85773 0.54251 0.0
C656 C 1.00073 0.92377 0.43434 0.0
C657 C 0.99217 0.93677 0.35956 0.0
C658 C 0.99517 0.89569 0.45627 0.0
C659 C 0.97922 0.88089 0.40673 0.0
C660 C 0.96778 0.89545 0.33984 0.0
C661 C 0.97466 0.92317 0.31598 0.0
C662 C 1.00972 0.88098 0.52178 0.0
C663 C 0.95051 0.88065 0.286 0.0
H664 H 1.01309 0.78591 0.33894 0.0
H665 H 0.9476 0.80067 0.56093 0.0
H666 H 1.00798 0.85439 0.23527 0.0
H667 H 0.02941 0.85349 0.31548 0.0
H668 H 0.02827 0.8222 0.23801 0.0
H669 H 0.92964 0.84892 0.61226 0.0
H670 H 0.94231 0.88008 0.55504 0.0
H671 H 0.9219 0.85885 0.50158 0.0
H672 H 1.01398 0.93437 0.46915 0.0
H673 H 0.96804 0.93294 0.25731 0.0
H674 H 0.02887 0.87437 0.48038 0.0
H675 H 1.0012 0.86155 0.55097 0.0
H676 H 1.01188 0.89623 0.58096 0.0
H677 H 0.96165 0.86386 0.2342 0.0
H678 H 0.94058 0.89608 0.2463 0.0
H679 H 0.93635 0.86969 0.33557 0.0
C680 C 0.7163 0.0701 0.39762 0.0
C681 C 0.72904 0.04812 0.33248 0.0
C682 C 0.69266 0.08247 0.38824 0.0
C683 C 0.68134 0.0717 0.31413 0.0
C684 C 0.69437 0.04941 0.24827 0.0
C685 C 0.71835 0.03843 0.25705 0.0
C686 C 0.67939 0.10623 0.45917 0.0
C687 C 0.68245 0.03598 0.17175 0.0
C688 C 0.61126 0.07205 0.33187 0.0
C689 C 0.60837 0.08766 0.2531 0.0
C690 C 0.63456 0.0686 0.35884 0.0
C691 C 0.65528 0.08199 0.30762 0.0
C692 C 0.65136 0.10134 0.23743 0.0
C693 C 0.62797 0.10364 0.20975 0.0
C694 C 0.63657 0.04899 0.43819 0.0
C695 C 0.67242 0.1178 0.18626 0.0
H696 H 0.7247 0.07713 0.45653 0.0
H697 H 0.7283 0.021 0.20836 0.0
H698 H 0.66215 0.09845 0.50226 0.0
H699 H 0.69147 0.11364 0.50821 0.0
H700 H 0.67342 0.12491 0.42102 0.0
H701 H 0.69465 0.01783 0.12972 0.0
H702 H 0.66427 0.02773 0.20476 0.0
H703 H 0.67842 0.05245 0.12206 0.0
H704 H 0.59571 0.06073 0.36834 0.0
H705 H 0.62567 0.11625 0.14981 0.0
H706 H 0.65608 0.04383 0.4473 0.0
H707 H 0.62796 0.02857 0.42545 0.0
H708 H 0.62535 0.05946 0.50573 0.0
H709 H 0.68387 0.12581 0.23669 0.0
H710 H 0.66514 0.13643 0.15095 0.0
H711 H 0.68498 0.10326 0.13073 0.0
C712 C 0.4836 0.69126 0.31014 0.0
C713 C 0.50245 0.70633 0.2573 0.0
C714 C 0.47879 0.66362 0.27767 0.0
C715 C 0.49343 0.65088 0.19094 0.0
C716 C 0.51235 0.66633 0.1371 0.0
C717 C 0.5166 0.69391 0.1711 0.0
C718 C 0.45814 0.6481 0.33593 0.0
C719 C 0.5285 0.65348 0.04458 0.0
C720 C 0.50643 0.57047 0.13427 0.0
C721 C 0.49291 0.5661 0.06159 0.0
C722 C 0.50526 0.5976 0.18245 0.0
C723 C 0.49012 0.62088 0.15773 0.0
C724 C 0.4745 0.61589 0.0914 0.0
C725 C 0.47605 0.58848 0.04408 0.0
C726 C 0.5221 0.60187 0.25312 0.0
C727 C 0.45785 0.64006 0.06403 0.0
H728 H 0.47281 0.70113 0.37703 0.0
H729 H 0.53136 0.70569 0.13161 0.0
H730 H 0.44225 0.64726 0.29804 0.0
H731 H 0.46482 0.62548 0.34457 0.0
H732 H 0.451 0.65907 0.40767 0.0
H733 H 0.54178 0.66876 0.00989 0.0
H734 H 0.53953 0.63368 0.05812 0.0
H735 H 0.51648 0.64709 0.99412 0.0
H736 H 0.51929 0.55325 0.14928 0.0
H737 H 0.46538 0.58531 0.98849 0.0
H738 H 0.51248 0.61645 0.31466 0.0
H739 H 0.53909 0.61206 0.21788 0.0
H740 H 0.52826 0.58107 0.27992 0.0
H741 H 0.44758 0.65317 0.12824 0.0
H742 H 0.444 0.63181 0.02391 0.0
H743 H 0.46967 0.65459 0.01837 0.0
C744 C 0.85319 0.45565 0.42846 0.0
C745 C 0.83393 0.44735 0.49867 0.0
C746 C 0.8762 0.43928 0.40465 0.0
C747 C 0.88003 0.41388 0.45322 0.0
C748 C 0.86024 0.40497 0.52299 0.0
C749 C 0.83718 0.42188 0.54465 0.0
C750 C 0.89667 0.44996 0.32985 0.0
C751 C 0.86362 0.37866 0.5783 0.0
C752 C 0.93628 0.37835 0.29401 0.0
C753 C 0.95403 0.39552 0.32256 0.0
C754 C 0.91172 0.37962 0.34765 0.0
C755 C 0.90531 0.39815 0.43121 0.0
C756 C 0.9246 0.40977 0.47079 0.0
C757 C 0.94878 0.4092 0.4143 0.0
C758 C 0.89187 0.3654 0.30604 0.0
C759 C 0.9188 0.42616 0.56674 0.0
H760 H 0.85028 0.4756 0.39432 0.0
H761 H 0.82208 0.41596 0.60001 0.0
H762 H 0.9127 0.4556 0.36261 0.0
H763 H 0.90372 0.43283 0.2725 0.0
H764 H 0.89005 0.4694 0.29667 0.0
H765 H 0.84535 0.3695 0.60426 0.0
H766 H 0.87685 0.36162 0.53509 0.0
H767 H 0.87142 0.38504 0.6415 0.0
H768 H 0.9404 0.3672 0.22386 0.0
H769 H 0.96274 0.4218 0.43773 0.0
H770 H 0.88314 0.38108 0.26363 0.0
H771 H 0.87683 0.35867 0.3631 0.0
H772 H 0.90012 0.34625 0.25802 0.0
H773 H 0.90502 0.4448 0.56626 0.0
H774 H 0.93588 0.43408 0.58757 0.0
H775 H 0.91001 0.41188 0.62161 0.0
C776 C 0.0598 0.21468 0.98812 0.0
C777 C 0.04128 0.23529 0.03765 0.0
C778 C 0.0536 0.18899 0.94577 0.0
C779 C 0.02795 0.18426 0.94801 0.0
C780 C 1.00927 0.20683 0.98792 0.0
C781 C 1.01609 0.23169 0.03445 0.0
C782 C 0.07496 0.16686 0.9028 0.0
C783 C 0.98185 0.20455 0.9864 0.0
C784 C 0.02357 0.11409 0.80147 0.0
C785 C 1.01588 0.09524 0.87352 0.0
C786 C 0.02576 0.14368 0.82364 0.0
C787 C 0.02082 0.15467 0.9205 0.0
C788 C 1.01142 0.13598 0.99265 0.0
C789 C 1.00899 0.10682 0.96814 0.0
C790 C 0.03411 0.1627 0.74272 0.0
C791 C 1.00415 0.14608 0.09692 0.0
H792 H 0.07934 0.21784 0.98828 0.0
H793 H 1.00158 0.24753 0.07225 0.0
H794 H 0.06912 0.14455 0.8986 0.0
H795 H 0.08321 0.17271 0.82967 0.0
H796 H 0.09015 0.16699 0.94458 0.0
H797 H 0.97326 0.22562 0.96998 0.0
H798 H 0.97884 0.1877 0.93326 0.0
H799 H 0.97178 0.19959 0.05827 0.0
H800 H 0.0285 0.10567 0.72779 0.0
H801 H 1.00227 0.0928 0.02455 0.0
H802 H 0.02782 0.18579 0.76238 0.0
H803 H 0.02675 0.15583 0.67881 0.0
H804 H 0.05493 0.16052 0.7224 0.0
H805 H 1.0068 0.12809 0.1433 0.0
H806 H 0.9839 0.15358 0.11371 0.0
H807 H 1.01498 0.16405 0.11592 0.0
C808 C 0.32024 0.02114 0.17737 0.0
C809 C 0.31221 0.99345 0.19504 0.0
C810 C 0.34446 0.02497 0.12266 0.0
C811 C 0.36157 1.00061 0.08644 0.0
C812 C 0.35312 0.97266 0.10188 0.0
C813 C 0.32858 0.96953 0.15342 0.0
C814 C 0.35211 0.05521 0.10695 0.0
C815 C 0.37048 0.94588 0.06838 0.0
C816 C 0.42256 1.00449 0.89668 0.0
C817 C 0.44089 0.00753 0.95271 0.0
C818 C 0.39675 1.00317 0.93868 0.0
C819 C 0.3888 1.00405 0.03964 0.0
C820 C 0.4073 0.00687 0.09631 0.0
C821 C 0.43277 0.00899 0.05261 0.0
C822 C 0.37792 1.00096 0.8747 0.0
C823 C 0.40034 0.00762 0.20386 0.0
H824 H 0.30799 0.0398 0.20973 0.0
H825 H 0.32251 0.94806 0.16546 0.0
H826 H 0.36576 0.06033 0.1523 0.0
H827 H 0.36152 0.05701 0.03155 0.0
H828 H 0.33575 0.07153 0.12512 0.0
H829 H 0.36189 0.92585 0.09298 0.0
H830 H 0.37549 0.94418 0.98937 0.0
H831 H 0.38822 0.94725 0.09497 0.0
H832 H 0.42833 1.00341 0.81967 0.0
H833 H 0.44649 0.01122 0.09748 0.0
H834 H 0.3623 0.01805 0.89693 0.0
H835 H 0.36962 0.97984 0.88141 0.0
H836 H 0.38653 1.00305 0.79853 0.0
H837 H 0.39187 0.02949 0.23153 0.0
H838 H 0.41701 1.00277 0.23617 0.0
H839 H 0.38625 0.992 0.22808 0.0
C840 C 0.53672 0.30029 0.14778 0.0
C841 C 0.52307 0.29947 0.24125 0.0
C842 C 0.53453 0.32488 0.09466 0.0
C843 C 0.51862 0.34953 0.1365 0.0
C844 C 0.50422 0.34834 0.23011 0.0
C845 C 0.50643 0.32328 0.2806 0.0
C846 C 0.55025 0.32503 0.99549 0.0
C847 C 0.48713 0.3739 0.27872 0.0
C848 C 0.53702 0.42344 0.05077 0.0
C849 C 0.51889 0.43105 0.99664 0.0
C850 C 0.5372 0.39714 0.09584 0.0
C851 C 0.51888 0.37742 0.08664 0.0
C852 C 0.50067 0.38476 0.0313 0.0
C853 C 0.50079 0.41144 0.98765 0.0
C854 C 0.55771 0.39057 0.15075 0.0
C855 C 0.48136 0.36412 0.0165 0.0
H856 H 0.54998 0.28218 0.11798 0.0
H857 H 0.49597 0.3227 0.35306 0.0
H858 H 0.5387 0.33353 0.94554 0.0
H859 H 0.5656 0.33952 0.9964 0.0
H860 H 0.55879 0.30312 0.96799 0.0
H861 H 0.4808 0.37144 0.35635 0.0
H862 H 0.49669 0.39419 0.26895 0.0
H863 H 0.47027 0.37618 0.24619 0.0
H864 H 0.55137 0.438 0.05783 0.0
H865 H 0.48687 0.41669 0.9451 0.0
H866 H 0.57507 0.38204 0.09986 0.0
H867 H 0.55287 0.37435 0.20427 0.0
H868 H 0.56213 0.41057 0.18759 0.0
H869 H 0.49087 0.3428 0.98711 0.0
H870 H 0.46939 0.37217 0.96722 0.0
H871 H 0.46906 0.36063 0.08586 0.0
C872 C 0.20382 0.48884 0.06003 0.0
C873 C 0.21721 0.51297 0.03483 0.0
C874 C 0.18165 0.48395 0.02597 0.0
C875 C 0.17174 0.50458 0.96971 0.0
C876 C 0.1859 0.52843 0.94158 0.0
C877 C 0.20868 0.53164 0.97183 0.0
C878 C 0.16859 0.45713 0.05384 0.0
C879 C 0.17716 0.5515 0.88183 0.0
C880 C 0.12037 0.49674 0.82263 0.0
C881 C 0.09824 0.50311 0.89139 0.0
C882 C 0.14422 0.49537 0.84795 0.0
C883 C 0.1463 0.50216 0.94391 0.0
C884 C 0.1238 0.5084 0.01382 0.0
C885 C 0.10023 0.50826 0.98684 0.0
C886 C 0.16701 0.48663 0.77069 0.0
C887 C 0.12388 0.5152 0.11797 0.0
H888 H 0.21009 0.47434 0.10918 0.0
H889 H 0.21932 0.54992 0.95021 0.0
H890 H 0.15627 0.46133 0.12533 0.0
H891 H 0.15697 0.45037 1.00233 0.0
H892 H 0.18252 0.43894 0.05901 0.0
H893 H 0.18211 0.57308 0.90561 0.0
H894 H 0.18713 0.54709 0.80667 0.0
H895 H 0.15663 0.55268 0.88429 0.0
H896 H 0.11906 0.49213 0.74894 0.0
H897 H 0.08324 0.51295 0.04086 0.0
H898 H 0.18321 0.47765 0.79959 0.0
H899 H 0.17264 0.50576 0.73055 0.0
H900 H 0.16253 0.47023 0.71891 0.0
H901 H 0.11902 0.49583 0.1581 0.0
H902 H 0.10918 0.53275 0.14824 0.0
H903 H 0.14221 0.52165 0.131 0.0
C904 C 0.99197 0.77885 0.70327 0.0
C905 C 1.00522 0.77287 0.60952 0.0
C906 C 0.99652 0.80315 0.75847 0.0
C907 C 1.01394 0.82281 0.71722 0.0
C908 C 0.02939 0.81465 0.6261 0.0
C909 C 0.02471 0.78991 0.57377 0.0
C910 C 0.98176 0.80795 0.85936 0.0
C911 C 0.05084 0.83169 0.58127 0.0
C912 C 0.9937 0.9029 0.78093 0.0
C913 C 1.01523 0.9135 0.8054 0.0
C914 C 0.99235 0.87332 0.75864 0.0
C915 C 1.01319 0.85326 0.76066 0.0
C916 C 0.03387 0.86352 0.79618 0.0
C917 C 0.03482 0.89348 0.81657 0.0
C918 C 0.96844 0.8644 0.73101 0.0
C919 C 0.05547 0.84336 0.81114 0.0
H920 H 0.97718 0.7653 0.73187 0.0
H921 H 0.03544 0.78466 0.50215 0.0
H922 H 0.98829 0.82571 0.9004 0.0
H923 H 0.96154 0.81265 0.85835 0.0
H924 H 0.98325 0.78779 0.89732 0.0
H925 H 0.0537 0.82992 0.50217 0.0
H926 H 0.04827 0.85484 0.60558 0.0
H927 H 0.06839 0.82236 0.6003 0.0
H928 H 0.97791 0.91794 0.77633 0.0
H929 H 0.05128 0.90118 0.83874 0.0
H930 H 0.95517 0.85923 0.79615 0.0
H931 H 0.97163 0.84528 0.6799 0.0
H932 H 0.95907 0.88235 0.69919 0.0
H933 H 0.05122 0.82036 0.80964 0.0
H934 H 0.06049 0.84914 0.88079 0.0
H935 H 0.07226 0.84608 0.75509 0.0
C936 C 0.71032 0.99201 0.42651 0.0
C937 C 0.72956 1.00231 0.4679 0.0
C938 C 0.68588 0.98978 0.48019 0.0
C939 C 0.68034 0.99701 0.58042 0.0
C940 C 0.70065 1.00465 0.62394 0.0
C941 C 0.72465 0.00796 0.56708 0.0
C942 C 0.66637 0.9802 0.42613 0.0
C943 C 0.69747 0.00999 0.73044 0.0
C944 C 0.61401 0.02545 0.71834 0.0
C945 C 0.60111 1.00023 0.72822 0.0
C946 C 0.63966 0.02476 0.67267 0.0
C947 C 0.65344 0.99794 0.63751 0.0
C948 C 0.64082 0.97221 0.65382 0.0
C949 C 0.61488 0.97375 0.69593 0.0
C950 C 0.6516 0.05318 0.66373 0.0
C951 C 0.65435 0.94269 0.62654 0.0
H952 H 0.71412 0.98694 0.3502 0.0
H953 H 0.73939 0.01586 0.60007 0.0
H954 H 0.67008 0.95668 0.40688 0.0
H955 H 0.64682 0.98435 0.46656 0.0
H956 H 0.66805 0.99117 0.3581 0.0
H957 H 0.71366 0.99914 0.75522 0.0
H958 H 0.69765 0.03347 0.74784 0.0
H959 H 0.6799 1.00215 0.77074 0.0
H960 H 0.60382 0.04608 0.74378 0.0
H961 H 0.60542 0.95396 0.70455 0.0
H962 H 0.66758 0.05278 0.60214 0.0
H963 H 0.65859 0.05831 0.72978 0.0
H964 H 0.6376 0.07112 0.65703 0.0
H965 H 0.65063 0.93474 0.55681 0.0
H966 H 0.6471 0.92702 0.67955 0.0
H967 H 0.67496 0.94283 0.62113 0.0
C968 C 0.51022 0.71468 0.52525 0.0
C969 C 0.52366 0.71509 0.43134 0.0
C970 C 0.5121 0.69008 0.5786 0.0
C971 C 0.52765 0.66517 0.53682 0.0
C972 C 0.54198 0.66605 0.44297 0.0
C973 C 0.53992 0.691 0.39193 0.0
C974 C 0.49645 0.69025 0.67801 0.0
C975 C 0.55887 0.64027 0.3949 0.0
C976 C 0.54496 0.6033 0.68647 0.0
C977 C 0.52676 0.58381 0.6773 0.0
C978 C 0.54525 0.62995 0.64268 0.0
C979 C 0.52714 0.63738 0.58709 0.0
C980 C 0.50873 0.6178 0.57774 0.0
C981 C 0.50872 0.59152 0.62296 0.0
C982 C 0.56471 0.65042 0.65741 0.0
C983 C 0.48833 0.62454 0.52242 0.0
H984 H 0.49732 0.73308 0.55517 0.0
H985 H 0.55029 0.69135 0.31924 0.0
H986 H 0.48099 0.67587 0.67775 0.0
H987 H 0.50802 0.68176 0.72794 0.0
H988 H 0.48807 0.71225 0.7051 0.0
H989 H 0.56559 0.64274 0.31749 0.0
H990 H 0.57549 0.63754 0.42864 0.0
H991 H 0.54896 0.6202 0.40388 0.0
H992 H 0.55882 0.59797 0.72917 0.0
H993 H 0.4943 0.57705 0.61584 0.0
H994 H 0.55531 0.67177 0.687 0.0
H995 H 0.57699 0.65389 0.58799 0.0
H996 H 0.57667 0.64223 0.7065 0.0
H997 H 0.47119 0.63396 0.57272 0.0
H998 H 0.48336 0.60453 0.48736 0.0
H999 H 0.49365 0.64018 0.46735 0.0
C1000 C 0.84178 0.48134 0.67804 0.0
C1001 C 0.83259 0.50066 0.61839 0.0
C1002 C 0.86496 0.48414 0.70562 0.0
C1003 C 0.87885 0.5083 0.67882 0.0
C1004 C 0.86835 0.52951 0.62603 0.0
C1005 C 0.84581 0.525 0.59412 0.0
C1006 C 0.87441 0.46035 0.76114 0.0
C1007 C 0.88113 0.55663 0.59971 0.0
C1008 C 0.9311 0.51456 0.8226 0.0
C1009 C 0.95298 0.50917 0.75206 0.0
C1010 C 0.90704 0.5162 0.7991 0.0
C1011 C 0.9045 0.51055 0.70301 0.0
C1012 C 0.92677 0.50525 0.63134 0.0
C1013 C 0.95056 0.50523 0.65668 0.0
C1014 C 0.88454 0.52402 0.8785 0.0
C1015 C 0.92622 0.49955 0.52706 0.0
H1016 H 0.83131 0.4629 0.69914 0.0
H1017 H 0.83906 0.54001 0.54746 0.0
H1018 H 0.89507 0.45902 0.7554 0.0
H1019 H 0.8652 0.46408 0.83741 0.0
H1020 H 0.86915 0.43904 0.73628 0.0
H1021 H 0.86701 0.5749 0.59767 0.0
H1022 H 0.89315 0.5629 0.65035 0.0
H1023 H 0.89301 0.55308 0.52717 0.0
H1024 H 0.93278 0.51824 0.89632 0.0
H1025 H 0.96738 0.50129 0.60143 0.0
H1026 H 0.87959 0.50451 0.91764 0.0
H1027 H 0.86789 0.53285 0.85204 0.0
H1028 H 0.8891 0.54025 0.93064 0.0
H1029 H 0.94084 0.48218 0.49429 0.0
H1030 H 0.93092 0.51932 0.48896 0.0
H1031 H 0.90779 0.49337 0.51438 0.0
loop_
_geom_bond_atom_site_label_1
_geom_bond_atom_site_label_2
_geom_bond_distance
_geom_bond_site_symmetry_2
_ccdc_geom_bond_type
C0 N1 1.317 . S
C0 N2 1.348 . S
C0 C3 1.485 . S
N1 C0 1.317 . S
N1 N5 1.370 . S
N2 C0 1.348 . S
N2 C4 1.346 . S
C3 C0 1.485 . S
C3 H7 0.960 . S
C3 H8 0.961 . S
C3 H9 0.960 . S
C4 N2 1.346 . S
C4 N5 1.307 . S
C4 C6 1.486 . S
N5 N1 1.370 . S
N5 C4 1.307 . S
C6 C4 1.486 . S
C6 H10 0.960 . S
C6 H11 0.960 . S
C6 H12 0.959 . S
H7 C3 0.960 . S
H8 C3 0.961 . S
H9 C3 0.960 . S
H10 C6 0.960 . S
H11 C6 0.960 . S
H12 C6 0.959 . S
C13 N14 1.317 . S
C13 N15 1.348 . S
C13 C16 1.485 . S
N14 C13 1.317 . S
N14 N18 1.370 . S
N15 C13 1.348 . S
N15 C17 1.346 . S
C16 C13 1.485 . S
C16 H20 0.960 1_655 S
C16 H21 0.961 . S
C16 H22 0.960 . S
C17 N15 1.346 . S
C17 N18 1.301 . S
C17 C19 1.494 . S
N18 N14 1.370 . S
N18 C17 1.301 . S
C19 C17 1.494 . S
C19 H23 0.965 . S
C19 H24 0.956 1_655 S
C19 H25 0.958 1_655 S
H20 C16 0.960 1_455 S
H21 C16 0.961 . S
H22 C16 0.960 . S
H23 C19 0.965 . S
H24 C19 0.956 1_455 S
H25 C19 0.958 1_455 S
C26 N27 1.317 . S
C26 N28 1.354 . S
C26 C29 1.485 . S
N27 C26 1.317 . S
N27 N31 1.371 . S
N28 C26 1.354 . S
N28 C30 1.346 1_565 S
C29 C26 1.485 . S
C29 H33 0.960 1_565 S
C29 H34 0.961 . S
C29 H35 0.960 . S
C30 N28 1.346 1_545 S
C30 N31 1.305 1_545 S
C30 C32 1.486 . S
N31 N27 1.371 . S
N31 C30 1.305 1_565 S
C32 C30 1.486 . S
C32 H36 0.960 1_545 S
C32 H37 0.960 . S
C32 H38 0.959 . S
H33 C29 0.960 1_545 S
H34 C29 0.961 . S
H35 C29 0.960 . S
H36 C32 0.960 1_565 S
H37 C32 0.960 . S
H38 C32 0.959 . S
C39 N40 1.317 . S
C39 N41 1.348 . S
C39 C42 1.485 . S
N40 C39 1.317 . S
N40 N44 1.370 . S
N41 C39 1.348 . S
N41 C43 1.346 . S
C42 C39 1.485 . S
C42 H46 0.960 . S
C42 H47 0.961 . S
C42 H48 0.960 . S
C43 N41 1.346 . S
C43 N44 1.307 . S
C43 C45 1.486 . S
N44 N40 1.370 . S
N44 C43 1.307 . S
C45 C43 1.486 . S
C45 H49 0.960 . S
C45 H50 0.960 . S
C45 H51 0.959 . S
H46 C42 0.960 . S
H47 C42 0.961 . S
H48 C42 0.960 . S
H49 C45 0.960 . S
H50 C45 0.960 . S
H51 C45 0.959 . S
C52 N53 1.317 . S
C52 N54 1.348 1_556 S
C52 C55 1.485 . S
N53 C52 1.317 . S
N53 N57 1.370 1_556 S
N54 C52 1.348 1_554 S
N54 C56 1.346 . S
C55 C52 1.485 . S
C55 H59 0.960 . S
C55 H60 0.961 . S
C55 H61 0.960 . S
C56 N54 1.346 . S
C56 N57 1.307 . S
C56 C58 1.486 . S
N57 N53 1.370 1_554 S
N57 C56 1.307 . S
C58 C56 1.486 . S
C58 H62 0.960 . S
C58 H63 0.960 . S
C58 H64 0.959 . S
H59 C55 0.960 . S
H60 C55 0.961 . S
H61 C55 0.960 . S
H62 C58 0.960 . S
H63 C58 0.960 . S
H64 C58 0.959 . S
C65 N66 1.317 . S
C65 N67 1.348 . S
C65 C68 1.485 1_554 S
N66 C65 1.317 . S
N66 N70 1.370 . S
N67 C65 1.348 . S
N67 C69 1.346 . S
C68 C65 1.485 1_556 S
C68 H72 0.960 . S
C68 H73 0.961 1_456 S
C68 H74 0.960 1_455 S
C69 N67 1.346 . S
C69 N70 1.307 . S
C69 C71 1.486 . S
N70 N66 1.370 . S
N70 C69 1.307 . S
C71 C69 1.486 . S
C71 H75 0.960 1_455 S
C71 H76 0.960 . S
C71 H77 0.959 . S
H72 C68 0.960 . S
H73 C68 0.961 1_654 S
H74 C68 0.960 1_655 S
H75 C71 0.960 1_655 S
H76 C71 0.960 . S
H77 C71 0.959 . S
C78 N79 1.317 . S
C78 N80 1.347 . S
C78 C81 1.485 . S
N79 C78 1.317 . S
N79 N83 1.370 . S
N80 C78 1.347 . S
N80 C82 1.344 1_565 S
C81 C78 1.485 . S
C81 H85 0.960 1_565 S
C81 H86 0.961 . S
C81 H87 0.960 . S
C82 N80 1.344 1_545 S
C82 N83 1.308 1_545 S
C82 C84 1.486 . S
N83 N79 1.370 . S
N83 C82 1.308 1_565 S
C84 C82 1.486 . S
C84 H88 0.960 1_545 S
C84 H89 0.960 . S
C84 H90 0.959 . S
H85 C81 0.960 1_545 S
H86 C81 0.961 . S
H87 C81 0.960 . S
H88 C84 0.960 1_565 S
H89 C84 0.960 . S
H90 C84 0.959 . S
C91 N92 1.317 . S
C91 N93 1.348 . S
C91 C94 1.485 . S
N92 C91 1.317 . S
N92 N96 1.370 . S
N93 C91 1.348 . S
N93 C95 1.346 . S
C94 C91 1.485 . S
C94 H98 0.960 . S
C94 H99 0.961 . S
C94 H100 0.960 . S
C95 N93 1.346 . S
C95 N96 1.307 . S
C95 C97 1.486 . S
N96 N92 1.370 . S
N96 C95 1.307 . S
C97 C95 1.486 . S
C97 H101 0.960 . S
C97 H102 0.960 . S
C97 H103 0.959 . S
H98 C94 0.960 . S
H99 C94 0.961 . S
H100 C94 0.960 . S
H101 C97 0.960 . S
H102 C97 0.960 . S
H103 C97 0.959 . S
Dy104 O107 2.307 1_545 S
Dy104 O109 2.395 1_655 S
Dy104 O110 2.379 . S
Dy104 O112 2.339 . S
Dy104 O114 2.298 . S
Dy104 O118 2.275 1_655 S
Dy104 C126 2.738 . S
Dy105 O108 2.298 . S
Dy105 O111 2.275 1_455 S
Dy105 O113 2.307 1_565 S
Dy105 O115 2.395 1_456 S
Dy105 O116 2.379 . S
Dy105 O119 2.339 . S
Dy105 C135 2.738 1_556 S
C106 O118 1.254 1_565 S
C106 O119 1.257 . S
O107 Dy104 2.307 1_565 S
O107 C117 1.266 . S
O108 Dy105 2.298 . S
O108 C117 1.236 1_455 S
O109 Dy104 2.395 1_455 S
O109 C126 1.255 1_455 S
O110 Dy104 2.379 . S
O110 C126 1.249 . S
O111 Dy105 2.275 1_655 S
O111 C127 1.254 1_565 S
O112 Dy104 2.339 . S
O112 C127 1.257 . S
O113 Dy105 2.307 1_545 S
O113 C128 1.266 . S
O114 Dy104 2.298 . S
O114 C128 1.236 1_655 S
O115 Dy105 2.395 1_654 S
O115 C135 1.255 1_655 S
O116 Dy105 2.379 . S
O116 C135 1.249 1_556 S
C117 O107 1.266 . S
C117 O108 1.236 1_655 S
O118 Dy104 2.275 1_455 S
O118 C106 1.254 1_545 S
O119 Dy105 2.339 . S
O119 C106 1.257 . S
C120 C123 1.344 1_655 S
C120 C124 1.328 . S
C120 C126 1.516 . S
C121 C122 1.304 1_655 S
C121 C125 1.323 . S
C122 C121 1.304 1_455 S
C122 C123 1.371 . S
C122 H136 0.930 . S
C123 C120 1.344 1_455 S
C123 C122 1.371 . S
C123 H137 0.931 . S
C124 C120 1.328 . S
C124 C125 1.433 . S
C124 H138 0.931 . S
C125 C121 1.323 . S
C125 C124 1.433 . S
C125 H139 0.933 . S
C126 Dy104 2.738 . S
C126 O109 1.255 1_655 S
C126 O110 1.249 . S
C126 C120 1.516 . S
C127 O111 1.254 1_545 S
C127 O112 1.257 . S
C128 O113 1.266 . S
C128 O114 1.236 1_455 S
C129 C132 1.344 1_455 S
C129 C133 1.328 . S
C129 C135 1.516 . S
C130 C131 1.261 1_455 S
C130 C134 1.323 . S
C131 C130 1.261 1_655 S
C131 C132 1.375 . S
C131 H140 0.974 . S
C132 C129 1.344 1_655 S
C132 C131 1.375 . S
C132 H141 0.931 . S
C133 C129 1.328 . S
C133 C134 1.433 . S
C133 H142 0.931 . S
C134 C130 1.323 . S
C134 C133 1.433 . S
C134 H143 0.933 . S
C135 Dy105 2.738 1_554 S
C135 O115 1.255 1_455 S
C135 O116 1.249 1_554 S
C135 C129 1.516 . S
H136 C122 0.930 . S
H137 C123 0.931 . S
H138 C124 0.931 . S
H139 C125 0.933 . S
H140 C131 0.974 . S
H141 C132 0.931 . S
H142 C133 0.931 . S
H143 C134 0.933 . S
Dy144 O147 2.307 . S
Dy144 O149 2.395 1_565 S
Dy144 O150 2.379 . S
Dy144 O152 2.339 . S
Dy144 O154 2.298 . S
Dy144 O158 2.275 1_565 S
Dy144 C166 2.738 . S
Dy145 O148 2.298 . S
Dy145 O151 2.275 1_545 S
Dy145 O153 2.307 . S
Dy145 O155 2.395 1_546 S
Dy145 O156 2.379 . S
Dy145 O159 2.339 . S
Dy145 C175 2.738 1_556 S
C146 O158 1.254 . S
C146 O159 1.257 . S
O147 Dy144 2.307 . S
O147 C157 1.266 . S
O148 Dy145 2.298 . S
O148 C157 1.236 1_545 S
O149 Dy144 2.395 1_545 S
O149 C166 1.255 1_545 S
O150 Dy144 2.379 . S
O150 C166 1.249 . S
O151 Dy145 2.275 1_565 S
O151 C167 1.254 . S
O152 Dy144 2.339 . S
O152 C167 1.257 . S
O153 Dy145 2.307 . S
O153 C168 1.266 . S
O154 Dy144 2.298 . S
O154 C168 1.236 1_565 S
O155 Dy145 2.395 1_564 S
O155 C175 1.255 1_565 S
O156 Dy145 2.379 . S
O156 C175 1.249 1_556 S
C157 O147 1.266 . S
C157 O148 1.236 1_565 S
O158 Dy144 2.275 1_545 S
O158 C146 1.254 . S
O159 Dy145 2.339 . S
O159 C146 1.257 . S
C160 C163 1.344 1_565 S
C160 C164 1.328 . S
C160 C166 1.516 . S
C161 C162 1.293 1_565 S
C161 C165 1.323 . S
C162 C161 1.293 1_545 S
C162 C163 1.372 . S
C162 H176 0.941 . S
C163 C160 1.344 1_545 S
C163 C162 1.372 . S
C163 H177 0.931 . S
C164 C160 1.328 . S
C164 C165 1.433 . S
C164 H178 0.931 . S
C165 C161 1.323 . S
C165 C164 1.433 . S
C165 H179 0.933 . S
C166 Dy144 2.738 . S
C166 O149 1.255 1_565 S
C166 O150 1.249 . S
C166 C160 1.516 . S
C167 O151 1.254 . S
C167 O152 1.257 . S
C168 O153 1.266 . S
C168 O154 1.236 1_545 S
C169 C172 1.344 1_545 S
C169 C173 1.328 . S
C169 C175 1.516 . S
C170 C171 1.301 1_545 S
C170 C174 1.323 . S
C171 C170 1.301 1_565 S
C171 C172 1.371 . S
C171 H180 0.933 . S
C172 C169 1.344 1_565 S
C172 C171 1.371 . S
C172 H181 0.931 . S
C173 C169 1.328 . S
C173 C174 1.433 . S
C173 H182 0.931 . S
C174 C170 1.323 . S
C174 C173 1.433 . S
C174 H183 0.933 . S
C175 Dy145 2.738 1_554 S
C175 O155 1.255 1_545 S
C175 O156 1.249 1_554 S
C175 C169 1.516 . S
H176 C162 0.941 . S
H177 C163 0.931 . S
H178 C164 0.931 . S
H179 C165 0.933 . S
H180 C171 0.933 . S
H181 C172 0.931 . S
H182 C173 0.931 . S
H183 C174 0.933 . S
Dy184 O187 2.307 . S
Dy184 O189 2.395 . S
Dy184 O190 2.379 . S
Dy184 O192 2.339 . S
Dy184 O194 2.298 . S
Dy184 O198 2.275 . S
Dy184 C206 2.738 . S
Dy185 O188 2.298 . S
Dy185 O191 2.275 . S
Dy185 O193 2.307 . S
Dy185 O195 2.395 . S
Dy185 O196 2.379 . S
Dy185 O199 2.339 . S
Dy185 C215 2.738 . S
C186 O198 1.254 . S
C186 O199 1.257 . S
O187 Dy184 2.307 . S
O187 C197 1.266 . S
O188 Dy185 2.298 . S
O188 C197 1.236 . S
O189 Dy184 2.395 . S
O189 C206 1.255 . S
O190 Dy184 2.379 . S
O190 C206 1.249 . S
O191 Dy185 2.275 . S
O191 C207 1.254 . S
O192 Dy184 2.339 . S
O192 C207 1.257 . S
O193 Dy185 2.307 . S
O193 C208 1.266 . S
O194 Dy184 2.298 . S
O194 C208 1.236 . S
O195 Dy185 2.395 . S
O195 C215 1.255 . S
O196 Dy185 2.379 . S
O196 C215 1.249 . S
C197 O187 1.266 . S
C197 O188 1.236 . S
O198 Dy184 2.275 . S
O198 C186 1.254 . S
O199 Dy185 2.339 . S
O199 C186 1.257 . S
C200 C203 1.344 1_556 S
C200 C204 1.328 . S
C200 C206 1.516 . S
C201 C202 1.304 . S
C201 C205 1.323 . S
C202 C201 1.304 . S
C202 C203 1.371 . S
C202 H216 0.930 . S
C203 C200 1.344 1_554 S
C203 C202 1.371 . S
C203 H217 0.931 . S
C204 C200 1.328 . S
C204 C205 1.433 1_556 S
C204 H218 0.931 . S
C205 C201 1.323 . S
C205 C204 1.433 1_554 S
C205 H219 0.933 1_554 S
C206 Dy184 2.738 . S
C206 O189 1.255 . S
C206 O190 1.249 . S
C206 C200 1.516 . S
C207 O191 1.254 . S
C207 O192 1.257 . S
C208 O193 1.266 . S
C208 O194 1.236 . S
C209 C212 1.344 . S
C209 C213 1.328 . S
C209 C215 1.516 . S
C210 C211 1.304 . S
C210 C214 1.323 . S
C211 C210 1.304 . S
C211 C212 1.371 . S
C211 H220 0.930 . S
C212 C209 1.344 . S
C212 C211 1.371 . S
C212 H221 0.931 . S
C213 C209 1.328 . S
C213 C214 1.433 . S
C213 H222 0.931 . S
C214 C210 1.323 . S
C214 C213 1.433 . S
C214 H223 0.933 . S
C215 Dy185 2.738 . S
C215 O195 1.255 . S
C215 O196 1.249 . S
C215 C209 1.516 . S
H216 C202 0.930 . S
H217 C203 0.931 . S
H218 C204 0.931 . S
H219 C205 0.933 1_556 S
H220 C211 0.930 . S
H221 C212 0.931 . S
H222 C213 0.931 . S
H223 C214 0.933 . S
Dy224 O227 2.307 1_455 S
Dy224 O229 2.395 . S
Dy224 O230 2.379 . S
Dy224 O232 2.339 . S
Dy224 O234 2.298 . S
Dy224 O238 2.275 . S
Dy224 C246 2.738 . S
Dy225 O228 2.298 . S
Dy225 O231 2.291 . S
Dy225 O233 2.307 1_655 S
Dy225 O235 2.395 1_556 S
Dy225 O236 2.376 1_556 S
Dy225 O239 2.339 . S
Dy225 C255 2.738 1_556 S
C226 O238 1.254 . S
C226 O239 1.257 1_455 S
O227 Dy224 2.307 1_655 S
O227 C237 1.266 . S
O228 Dy225 2.298 . S
O228 C237 1.236 . S
O229 Dy224 2.395 . S
O229 C246 1.255 . S
O230 Dy224 2.379 . S
O230 C246 1.249 . S
O231 Dy225 2.291 . S
O231 C247 1.242 1_655 S
O232 Dy224 2.339 . S
O232 C247 1.257 . S
O233 Dy225 2.307 1_455 S
O233 C248 1.266 . S
O234 Dy224 2.298 . S
O234 C248 1.236 . S
O235 Dy225 2.395 1_554 S
O235 C255 1.255 . S
O236 Dy225 2.376 1_554 S
O236 C255 1.256 . S
C237 O227 1.266 . S
C237 O228 1.236 . S
O238 Dy224 2.275 . S
O238 C226 1.254 . S
O239 Dy225 2.339 . S
O239 C226 1.257 1_655 S
C240 C243 1.344 . S
C240 C244 1.328 . S
C240 C246 1.516 . S
C241 C242 1.304 . S
C241 C245 1.323 . S
C242 C241 1.304 . S
C242 C243 1.371 . S
C242 H256 0.930 . S
C243 C240 1.344 . S
C243 C242 1.371 . S
C243 H257 0.931 . S
C244 C240 1.328 . S
C244 C245 1.433 . S
C244 H258 0.931 . S
C245 C241 1.323 . S
C245 C244 1.433 . S
C245 H259 0.933 . S
C246 Dy224 2.738 . S
C246 O229 1.255 . S
C246 O230 1.249 . S
C246 C240 1.516 . S
C247 O231 1.242 1_455 S
C247 O232 1.257 . S
C248 O233 1.266 . S
C248 O234 1.236 . S
C249 C252 1.344 . S
C249 C253 1.328 . S
C249 C255 1.516 . S
C250 C251 1.304 . S
C250 C254 1.323 . S
C251 C250 1.304 . S
C251 C252 1.371 . S
C251 H260 0.930 . S
C252 C249 1.344 . S
C252 C251 1.371 . S
C252 H261 0.931 . S
C253 C249 1.328 . S
C253 C254 1.433 . S
C253 H262 0.931 . S
C254 C250 1.323 . S
C254 C253 1.433 . S
C254 H263 0.933 . S
C255 Dy225 2.738 1_554 S
C255 O235 1.255 . S
C255 O236 1.256 . S
C255 C249 1.516 . S
H256 C242 0.930 . S
H257 C243 0.931 . S
H258 C244 0.931 . S
H259 C245 0.933 . S
H260 C251 0.930 . S
H261 C252 0.931 . S
H262 C253 0.931 . S
H263 C254 0.933 . S
C264 C265 1.391 . S
C264 C266 1.394 . S
C264 H280 0.931 . S
C265 C264 1.391 . S
C265 C269 1.376 1_545 S
C266 C264 1.394 . S
C266 C267 1.369 . S
C266 C270 1.531 . S
C267 C266 1.369 . S
C267 C268 1.410 1_545 S
C267 C275 1.503 . S
C268 C267 1.410 1_565 S
C268 C269 1.392 . S
C268 C271 1.511 . S
C269 C265 1.376 1_565 S
C269 C268 1.392 . S
C269 H281 0.929 . S
C270 C266 1.531 . S
C270 H282 0.960 . S
C270 H283 0.962 . S
C270 H284 0.960 . S
C271 C268 1.511 . S
C271 H285 0.961 . S
C271 H286 0.961 . S
C271 H287 0.961 . S
C272 C273 1.370 1_565 S
C272 C274 1.363 . S
C272 H288 0.931 . S
C273 C272 1.370 1_545 S
C273 C277 1.408 . S
C274 C272 1.363 . S
C274 C275 1.370 1_565 S
C274 C278 1.524 . S
C275 C267 1.503 . S
C275 C274 1.370 1_545 S
C275 C276 1.403 . S
C276 C275 1.403 . S
C276 C277 1.404 . S
C276 C279 1.539 . S
C277 C273 1.408 . S
C277 C276 1.404 . S
C277 H289 0.930 . S
C278 C274 1.524 . S
C278 H290 0.956 . S
C278 H291 0.961 . S
C278 H292 0.961 . S
C279 C276 1.539 . S
C279 H293 0.958 . S
C279 H294 0.961 . S
C279 H295 0.960 . S
H280 C264 0.931 . S
H281 C269 0.929 . S
H282 C270 0.960 . S
H283 C270 0.962 . S
H284 C270 0.960 . S
H285 C271 0.961 . S
H286 C271 0.961 . S
H287 C271 0.961 . S
H288 C272 0.931 . S
H289 C277 0.930 . S
H290 C278 0.956 . S
H291 C278 0.961 . S
H292 C278 0.961 . S
H293 C279 0.958 . S
H294 C279 0.961 . S
H295 C279 0.960 . S
C296 C297 1.391 . S
C296 C298 1.394 . S
C296 H312 0.931 . S
C297 C296 1.391 . S
C297 C301 1.376 . S
C298 C296 1.394 . S
C298 C299 1.369 . S
C298 C302 1.531 . S
C299 C298 1.369 . S
C299 C300 1.410 . S
C299 C307 1.503 . S
C300 C299 1.410 . S
C300 C301 1.392 . S
C300 C303 1.511 . S
C301 C297 1.376 . S
C301 C300 1.392 . S
C301 H313 0.929 . S
C302 C298 1.531 . S
C302 H314 0.960 . S
C302 H315 0.962 . S
C302 H316 0.960 . S
C303 C300 1.511 . S
C303 H317 0.961 . S
C303 H318 0.961 . S
C303 H319 0.961 . S
C304 C305 1.370 . S
C304 C306 1.363 . S
C304 H320 0.931 . S
C305 C304 1.370 . S
C305 C309 1.408 . S
C306 C304 1.363 . S
C306 C307 1.370 . S
C306 C310 1.524 . S
C307 C299 1.503 . S
C307 C306 1.370 . S
C307 C308 1.403 . S
C308 C307 1.403 . S
C308 C309 1.404 . S
C308 C311 1.539 . S
C309 C305 1.408 . S
C309 C308 1.404 . S
C309 H321 0.930 . S
C310 C306 1.524 . S
C310 H322 0.956 . S
C310 H323 0.961 . S
C310 H324 0.961 . S
C311 C308 1.539 . S
C311 H325 0.958 . S
C311 H326 0.961 . S
C311 H327 0.960 . S
H312 C296 0.931 . S
H313 C301 0.929 . S
H314 C302 0.960 . S
H315 C302 0.962 . S
H316 C302 0.960 . S
H317 C303 0.961 . S
H318 C303 0.961 . S
H319 C303 0.961 . S
H320 C304 0.931 . S
H321 C309 0.930 . S
H322 C310 0.956 . S
H323 C310 0.961 . S
H324 C310 0.961 . S
H325 C311 0.958 . S
H326 C311 0.961 . S
H327 C311 0.960 . S
C328 C329 1.391 . S
C328 C330 1.394 . S
C328 H344 0.931 . S
C329 C328 1.391 . S
C329 C333 1.376 . S
C330 C328 1.394 . S
C330 C331 1.369 . S
C330 C334 1.531 . S
C331 C330 1.369 . S
C331 C332 1.410 . S
C331 C339 1.503 . S
C332 C331 1.410 . S
C332 C333 1.392 . S
C332 C335 1.511 . S
C333 C329 1.376 . S
C333 C332 1.392 . S
C333 H345 0.929 . S
C334 C330 1.531 . S
C334 H346 0.960 . S
C334 H347 0.962 . S
C334 H348 0.960 . S
C335 C332 1.511 . S
C335 H349 0.961 . S
C335 H350 0.961 . S
C335 H351 0.961 . S
C336 C337 1.370 . S
C336 C338 1.363 . S
C336 H352 0.931 . S
C337 C336 1.370 . S
C337 C341 1.408 . S
C338 C336 1.363 . S
C338 C339 1.370 . S
C338 C342 1.524 . S
C339 C331 1.503 . S
C339 C338 1.370 . S
C339 C340 1.403 . S
C340 C339 1.403 . S
C340 C341 1.404 . S
C340 C343 1.539 . S
C341 C337 1.408 . S
C341 C340 1.404 . S
C341 H353 0.930 . S
C342 C338 1.524 . S
C342 H354 0.956 . S
C342 H355 0.961 . S
C342 H356 0.961 . S
C343 C340 1.539 . S
C343 H357 0.958 . S
C343 H358 0.961 . S
C343 H359 0.960 . S
H344 C328 0.931 . S
H345 C333 0.929 . S
H346 C334 0.960 . S
H347 C334 0.962 . S
H348 C334 0.960 . S
H349 C335 0.961 . S
H350 C335 0.961 . S
H351 C335 0.961 . S
H352 C336 0.931 . S
H353 C341 0.930 . S
H354 C342 0.956 . S
H355 C342 0.961 . S
H356 C342 0.961 . S
H357 C343 0.958 . S
H358 C343 0.961 . S
H359 C343 0.960 . S
C360 C361 1.391 . S
C360 C362 1.394 . S
C360 H376 0.931 . S
C361 C360 1.391 . S
C361 C365 1.376 1_455 S
C362 C360 1.394 . S
C362 C363 1.369 . S
C362 C366 1.531 . S
C363 C362 1.369 . S
C363 C364 1.410 1_455 S
C363 C371 1.503 . S
C364 C363 1.410 1_655 S
C364 C365 1.392 . S
C364 C367 1.511 . S
C365 C361 1.376 1_655 S
C365 C364 1.392 . S
C365 H377 0.929 . S
C366 C362 1.531 . S
C366 H378 0.960 . S
C366 H379 0.962 . S
C366 H380 0.960 . S
C367 C364 1.511 . S
C367 H381 0.961 . S
C367 H382 0.961 . S
C367 H383 0.961 . S
C368 C369 1.370 1_655 S
C368 C370 1.363 . S
C368 H384 0.931 . S
C369 C368 1.370 1_455 S
C369 C373 1.408 . S
C370 C368 1.363 . S
C370 C371 1.370 1_655 S
C370 C374 1.524 . S
C371 C363 1.503 . S
C371 C370 1.370 1_455 S
C371 C372 1.403 . S
C372 C371 1.403 . S
C372 C373 1.404 . S
C372 C375 1.539 . S
C373 C369 1.408 . S
C373 C372 1.404 . S
C373 H385 0.930 . S
C374 C370 1.524 . S
C374 H386 0.956 . S
C374 H387 0.961 . S
C374 H388 0.961 . S
C375 C372 1.539 . S
C375 H389 0.958 . S
C375 H390 0.961 . S
C375 H391 0.960 . S
H376 C360 0.931 . S
H377 C365 0.929 . S
H378 C366 0.960 . S
H379 C366 0.962 . S
H380 C366 0.960 . S
H381 C367 0.961 . S
H382 C367 0.961 . S
H383 C367 0.961 . S
H384 C368 0.931 . S
H385 C373 0.930 . S
H386 C374 0.956 . S
H387 C374 0.961 . S
H388 C374 0.961 . S
H389 C375 0.958 . S
H390 C375 0.961 . S
H391 C375 0.960 . S
C392 C393 1.391 1_545 S
C392 C394 1.394 . S
C392 H408 0.931 . S
C393 C392 1.391 1_565 S
C393 C397 1.376 . S
C394 C392 1.394 . S
C394 C395 1.369 1_545 S
C394 C398 1.531 . S
C395 C394 1.369 1_565 S
C395 C396 1.410 . S
C395 C403 1.503 . S
C396 C395 1.410 . S
C396 C397 1.392 . S
C396 C399 1.511 . S
C397 C393 1.376 . S
C397 C396 1.392 . S
C397 H409 0.929 . S
C398 C394 1.531 . S
C398 H410 0.960 . S
C398 H411 0.962 . S
C398 H412 0.960 . S
C399 C396 1.511 . S
C399 H413 0.961 . S
C399 H414 0.961 . S
C399 H415 0.961 . S
C400 C401 1.370 1_545 S
C400 C402 1.363 1_556 S
C400 H416 0.931 . S
C401 C400 1.370 1_565 S
C401 C405 1.408 1_556 S
C402 C400 1.363 1_554 S
C402 C403 1.370 1_545 S
C402 C406 1.524 . S
C403 C395 1.503 . S
C403 C402 1.370 1_565 S
C403 C404 1.403 . S
C404 C403 1.403 . S
C404 C405 1.404 . S
C404 C407 1.539 . S
C405 C401 1.408 1_554 S
C405 C404 1.404 . S
C405 H417 0.930 . S
C406 C402 1.524 . S
C406 H418 0.956 . S
C406 H419 0.961 . S
C406 H420 0.961 1_554 S
C407 C404 1.539 . S
C407 H421 0.958 . S
C407 H422 0.961 . S
C407 H423 0.960 . S
H408 C392 0.931 . S
H409 C397 0.929 . S
H410 C398 0.960 . S
H411 C398 0.962 . S
H412 C398 0.960 . S
H413 C399 0.961 . S
H414 C399 0.961 . S
H415 C399 0.961 . S
H416 C400 0.931 . S
H417 C405 0.930 . S
H418 C406 0.956 . S
H419 C406 0.961 . S
H420 C406 0.961 1_556 S
H421 C407 0.958 . S
H422 C407 0.961 . S
H423 C407 0.960 . S
C424 C425 1.391 . S
C424 C426 1.394 . S
C424 H440 0.931 . S
C425 C424 1.391 . S
C425 C429 1.376 . S
C426 C424 1.394 . S
C426 C427 1.369 . S
C426 C430 1.531 . S
C427 C426 1.369 . S
C427 C428 1.410 . S
C427 C435 1.503 . S
C428 C427 1.410 . S
C428 C429 1.392 . S
C428 C431 1.511 1_554 S
C429 C425 1.376 . S
C429 C428 1.392 . S
C429 H441 0.929 . S
C430 C426 1.531 . S
C430 H442 0.960 . S
C430 H443 0.962 . S
C430 H444 0.960 . S
C431 C428 1.511 1_556 S
C431 H445 0.961 . S
C431 H446 0.961 . S
C431 H447 0.960 . S
C432 C433 1.370 . S
C432 C434 1.363 . S
C432 H448 0.931 . S
C433 C432 1.370 . S
C433 C437 1.408 1_556 S
C434 C432 1.363 . S
C434 C435 1.370 1_556 S
C434 C438 1.524 . S
C435 C427 1.503 . S
C435 C434 1.370 1_554 S
C435 C436 1.403 . S
C436 C435 1.403 . S
C436 C437 1.404 . S
C436 C439 1.539 . S
C437 C433 1.408 1_554 S
C437 C436 1.404 . S
C437 H449 0.930 . S
C438 C434 1.524 . S
C438 H450 0.956 . S
C438 H451 0.961 . S
C438 H452 0.961 . S
C439 C436 1.539 . S
C439 H453 0.958 . S
C439 H454 0.961 . S
C439 H455 0.960 . S
H440 C424 0.931 . S
H441 C429 0.929 . S
H442 C430 0.960 . S
H443 C430 0.962 . S
H444 C430 0.960 . S
H445 C431 0.961 . S
H446 C431 0.961 . S
H447 C431 0.960 . S
H448 C432 0.931 . S
H449 C437 0.930 . S
H450 C438 0.956 . S
H451 C438 0.961 . S
H452 C438 0.961 . S
H453 C439 0.958 . S
H454 C439 0.961 . S
H455 C439 0.960 . S
C456 C457 1.391 . S
C456 C458 1.394 . S
C456 H472 0.931 . S
C457 C456 1.391 . S
C457 C461 1.376 . S
C458 C456 1.394 . S
C458 C459 1.369 . S
C458 C462 1.531 . S
C459 C458 1.369 . S
C459 C460 1.410 . S
C459 C467 1.503 . S
C460 C459 1.410 . S
C460 C461 1.392 . S
C460 C463 1.511 . S
C461 C457 1.376 . S
C461 C460 1.392 . S
C461 H473 0.929 . S
C462 C458 1.531 . S
C462 H474 0.960 . S
C462 H475 0.962 . S
C462 H476 0.960 . S
C463 C460 1.511 . S
C463 H477 0.961 . S
C463 H478 0.961 . S
C463 H479 0.961 . S
C464 C465 1.370 . S
C464 C466 1.363 . S
C464 H480 0.931 . S
C465 C464 1.370 . S
C465 C469 1.408 . S
C466 C464 1.363 . S
C466 C467 1.370 . S
C466 C470 1.524 . S
C467 C459 1.503 . S
C467 C466 1.370 . S
C467 C468 1.403 . S
C468 C467 1.403 . S
C468 C469 1.404 . S
C468 C471 1.539 . S
C469 C465 1.408 . S
C469 C468 1.404 . S
C469 H481 0.930 . S
C470 C466 1.524 . S
C470 H482 0.956 . S
C470 H483 0.961 . S
C470 H484 0.961 . S
C471 C468 1.539 . S
C471 H485 0.958 . S
C471 H486 0.961 . S
C471 H487 0.960 . S
H472 C456 0.931 . S
H473 C461 0.929 . S
H474 C462 0.960 . S
H475 C462 0.962 . S
H476 C462 0.960 . S
H477 C463 0.961 . S
H478 C463 0.961 . S
H479 C463 0.961 . S
H480 C464 0.931 . S
H481 C469 0.930 . S
H482 C470 0.956 . S
H483 C470 0.961 . S
H484 C470 0.961 . S
H485 C471 0.958 . S
H486 C471 0.961 . S
H487 C471 0.960 . S
C488 C489 1.362 1_455 S
C488 C490 1.394 . S
C488 H504 0.931 . S
C489 C488 1.362 1_655 S
C489 C493 1.412 . S
C490 C488 1.394 . S
C490 C491 1.387 . S
C490 C494 1.531 . S
C491 C490 1.387 . S
C491 C492 1.395 1_455 S
C491 C499 1.501 . S
C492 C491 1.395 1_655 S
C492 C493 1.392 . S
C492 C495 1.511 . S
C493 C489 1.412 . S
C493 C492 1.392 . S
C493 H505 0.929 . S
C494 C490 1.531 . S
C494 H506 0.960 . S
C494 H507 0.962 . S
C494 H508 0.960 . S
C495 C492 1.511 . S
C495 H509 0.961 . S
C495 H510 0.961 . S
C495 H511 0.961 . S
C496 C497 1.370 . S
C496 C498 1.363 . S
C496 H512 0.931 1_554 S
C497 C496 1.370 . S
C497 C501 1.409 1_655 S
C498 C496 1.363 . S
C498 C499 1.368 1_655 S
C498 C502 1.524 . S
C499 C491 1.501 . S
C499 C498 1.368 1_455 S
C499 C500 1.403 . S
C500 C499 1.403 . S
C500 C501 1.404 . S
C500 C503 1.539 . S
C501 C497 1.409 1_455 S
C501 C500 1.404 . S
C501 H513 0.930 . S
C502 C498 1.524 . S
C502 H514 0.956 1_655 S
C502 H515 0.961 . S
C502 H516 0.961 . S
C503 C500 1.539 . S
C503 H517 0.958 . S
C503 H518 0.961 1_455 S
C503 H519 0.960 1_455 S
H504 C488 0.931 . S
H505 C493 0.929 . S
H506 C494 0.960 . S
H507 C494 0.962 . S
H508 C494 0.960 . S
H509 C495 0.961 . S
H510 C495 0.961 . S
H511 C495 0.961 . S
H512 C496 0.931 1_556 S
H513 C501 0.930 . S
H514 C502 0.956 1_455 S
H515 C502 0.961 . S
H516 C502 0.961 . S
H517 C503 0.958 . S
H518 C503 0.961 1_655 S
H519 C503 0.960 1_655 S
C520 C521 1.391 . S
C520 C522 1.394 . S
C520 H536 0.931 . S
C521 C520 1.391 . S
C521 C525 1.376 1_455 S
C522 C520 1.394 . S
C522 C523 1.369 1_455 S
C522 C526 1.531 . S
C523 C522 1.369 1_655 S
C523 C524 1.410 . S
C523 C531 1.503 . S
C524 C523 1.410 . S
C524 C525 1.392 . S
C524 C527 1.511 . S
C525 C521 1.376 1_655 S
C525 C524 1.392 . S
C525 H537 0.929 . S
C526 C522 1.531 . S
C526 H538 0.960 . S
C526 H539 0.962 . S
C526 H540 0.960 . S
C527 C524 1.511 . S
C527 H541 0.961 . S
C527 H542 0.961 . S
C527 H543 0.961 . S
C528 C529 1.370 . S
C528 C530 1.363 . S
C528 H544 0.931 . S
C529 C528 1.370 . S
C529 C533 1.408 . S
C530 C528 1.363 . S
C530 C531 1.370 . S
C530 C534 1.524 1_655 S
C531 C523 1.503 . S
C531 C530 1.370 . S
C531 C532 1.403 . S
C532 C531 1.403 . S
C532 C533 1.404 . S
C532 C535 1.539 . S
C533 C529 1.408 . S
C533 C532 1.404 . S
C533 H545 0.930 . S
C534 C530 1.524 1_455 S
C534 H546 0.956 . S
C534 H547 0.961 1_455 S
C534 H548 0.961 . S
C535 C532 1.539 . S
C535 H549 0.958 . S
C535 H550 0.961 . S
C535 H551 0.960 . S
H536 C520 0.931 . S
H537 C525 0.929 . S
H538 C526 0.960 . S
H539 C526 0.962 . S
H540 C526 0.960 . S
H541 C527 0.961 . S
H542 C527 0.961 . S
H543 C527 0.961 . S
H544 C528 0.931 . S
H545 C533 0.930 . S
H546 C534 0.956 . S
H547 C534 0.961 1_655 S
H548 C534 0.961 . S
H549 C535 0.958 . S
H550 C535 0.961 . S
H551 C535 0.960 . S
C552 C553 1.391 . S
C552 C554 1.394 . S
C552 H568 0.931 . S
C553 C552 1.391 . S
C553 C557 1.376 1_545 S
C554 C552 1.394 . S
C554 C555 1.369 1_545 S
C554 C558 1.531 . S
C555 C554 1.369 1_565 S
C555 C556 1.410 . S
C555 C563 1.503 . S
C556 C555 1.410 . S
C556 C557 1.392 . S
C556 C559 1.511 . S
C557 C553 1.376 1_565 S
C557 C556 1.392 . S
C557 H569 0.929 . S
C558 C554 1.531 . S
C558 H570 0.960 . S
C558 H571 0.962 1_545 S
C558 H572 0.960 . S
C559 C556 1.511 . S
C559 H573 0.961 . S
C559 H574 0.961 . S
C559 H575 0.961 1_565 S
C560 C561 1.370 . S
C560 C562 1.363 . S
C560 H576 0.931 . S
C561 C560 1.370 . S
C561 C565 1.408 1_565 S
C562 C560 1.363 . S
C562 C563 1.370 . S
C562 C566 1.524 . S
C563 C555 1.503 . S
C563 C562 1.370 . S
C563 C564 1.403 1_565 S
C564 C563 1.403 1_545 S
C564 C565 1.404 . S
C564 C567 1.539 . S
C565 C561 1.408 1_545 S
C565 C564 1.404 . S
C565 H577 0.930 . S
C566 C562 1.524 . S
C566 H578 0.956 . S
C566 H579 0.961 . S
C566 H580 0.961 . S
C567 C564 1.539 . S
C567 H581 0.958 . S
C567 H582 0.961 . S
C567 H583 0.960 . S
H568 C552 0.931 . S
H569 C557 0.929 . S
H570 C558 0.960 . S
H571 C558 0.962 1_565 S
H572 C558 0.960 . S
H573 C559 0.961 . S
H574 C559 0.961 . S
H575 C559 0.961 1_545 S
H576 C560 0.931 . S
H577 C565 0.930 . S
H578 C566 0.956 . S
H579 C566 0.961 . S
H580 C566 0.961 . S
H581 C567 0.958 . S
H582 C567 0.961 . S
H583 C567 0.960 . S
C584 C585 1.391 . S
C584 C586 1.394 . S
C584 H600 0.931 . S
C585 C584 1.391 . S
C585 C589 1.376 . S
C586 C584 1.394 . S
C586 C587 1.369 . S
C586 C590 1.531 . S
C587 C586 1.369 . S
C587 C588 1.410 . S
C587 C595 1.503 . S
C588 C587 1.410 . S
C588 C589 1.392 . S
C588 C591 1.511 . S
C589 C585 1.376 . S
C589 C588 1.392 . S
C589 H601 0.929 . S
C590 C586 1.531 . S
C590 H602 0.960 . S
C590 H603 0.962 . S
C590 H604 0.960 . S
C591 C588 1.511 . S
C591 H605 0.961 . S
C591 H606 0.961 . S
C591 H607 0.961 . S
C592 C593 1.370 . S
C592 C594 1.363 . S
C592 H608 0.931 . S
C593 C592 1.370 . S
C593 C597 1.408 . S
C594 C592 1.363 . S
C594 C595 1.370 . S
C594 C598 1.524 . S
C595 C587 1.503 . S
C595 C594 1.370 . S
C595 C596 1.403 . S
C596 C595 1.403 . S
C596 C597 1.404 . S
C596 C599 1.539 . S
C597 C593 1.408 . S
C597 C596 1.404 . S
C597 H609 0.930 . S
C598 C594 1.524 . S
C598 H610 0.956 . S
C598 H611 0.961 . S
C598 H612 0.961 . S
C599 C596 1.539 . S
C599 H613 0.958 . S
C599 H614 0.961 . S
C599 H615 0.960 . S
H600 C584 0.931 . S
H601 C589 0.929 . S
H602 C590 0.960 . S
H603 C590 0.962 . S
H604 C590 0.960 . S
H605 C591 0.961 . S
H606 C591 0.961 . S
H607 C591 0.961 . S
H608 C592 0.931 . S
H609 C597 0.930 . S
H610 C598 0.956 . S
H611 C598 0.961 . S
H612 C598 0.961 . S
H613 C599 0.958 . S
H614 C599 0.961 . S
H615 C599 0.960 . S
C616 C617 1.391 . S
C616 C618 1.394 . S
C616 H632 0.931 . S
C617 C616 1.391 . S
C617 C621 1.376 . S
C618 C616 1.394 . S
C618 C619 1.369 . S
C618 C622 1.531 . S
C619 C618 1.369 . S
C619 C620 1.410 . S
C619 C627 1.503 . S
C620 C619 1.410 . S
C620 C621 1.392 . S
C620 C623 1.511 . S
C621 C617 1.376 . S
C621 C620 1.392 . S
C621 H633 0.929 . S
C622 C618 1.531 . S
C622 H634 0.960 . S
C622 H635 0.962 . S
C622 H636 0.960 . S
C623 C620 1.511 . S
C623 H637 0.961 . S
C623 H638 0.961 . S
C623 H639 0.961 . S
C624 C625 1.370 . S
C624 C626 1.363 . S
C624 H640 0.931 . S
C625 C624 1.370 . S
C625 C629 1.408 . S
C626 C624 1.363 . S
C626 C627 1.370 . S
C626 C630 1.524 . S
C627 C619 1.503 . S
C627 C626 1.370 . S
C627 C628 1.403 . S
C628 C627 1.403 . S
C628 C629 1.404 . S
C628 C631 1.539 . S
C629 C625 1.408 . S
C629 C628 1.404 . S
C629 H641 0.930 . S
C630 C626 1.524 . S
C630 H642 0.956 . S
C630 H643 0.961 . S
C630 H644 0.961 . S
C631 C628 1.539 . S
C631 H645 0.958 . S
C631 H646 0.961 . S
C631 H647 0.960 . S
H632 C616 0.931 . S
H633 C621 0.929 . S
H634 C622 0.960 . S
H635 C622 0.962 . S
H636 C622 0.960 . S
H637 C623 0.961 . S
H638 C623 0.961 . S
H639 C623 0.961 . S
H640 C624 0.931 . S
H641 C629 0.930 . S
H642 C630 0.956 . S
H643 C630 0.961 . S
H644 C630 0.961 . S
H645 C631 0.958 . S
H646 C631 0.961 . S
H647 C631 0.960 . S
C648 C649 1.391 1_455 S
C648 C650 1.394 . S
C648 H664 0.931 . S
C649 C648 1.391 1_655 S
C649 C653 1.376 . S
C650 C648 1.394 . S
C650 C651 1.369 . S
C650 C654 1.531 . S
C651 C650 1.369 . S
C651 C652 1.410 1_455 S
C651 C659 1.503 . S
C652 C651 1.410 1_655 S
C652 C653 1.392 . S
C652 C655 1.511 . S
C653 C649 1.376 . S
C653 C652 1.392 . S
C653 H665 0.929 . S
C654 C650 1.531 . S
C654 H666 0.960 . S
C654 H667 0.962 . S
C654 H668 0.960 . S
C655 C652 1.511 . S
C655 H669 0.961 . S
C655 H670 0.961 . S
C655 H671 0.961 . S
C656 C657 1.370 . S
C656 C658 1.363 . S
C656 H672 0.931 . S
C657 C656 1.370 . S
C657 C661 1.408 . S
C658 C656 1.363 . S
C658 C659 1.370 . S
C658 C662 1.524 . S
C659 C651 1.503 . S
C659 C658 1.370 . S
C659 C660 1.403 1_455 S
C660 C659 1.403 1_655 S
C660 C661 1.404 1_655 S
C660 C663 1.539 . S
C661 C657 1.408 . S
C661 C660 1.404 1_455 S
C661 H673 0.930 1_455 S
C662 C658 1.524 . S
C662 H674 0.956 . S
C662 H675 0.961 . S
C662 H676 0.961 . S
C663 C660 1.539 . S
C663 H677 0.958 . S
C663 H678 0.961 . S
C663 H679 0.960 . S
H664 C648 0.931 . S
H665 C653 0.929 . S
H666 C654 0.960 . S
H667 C654 0.962 . S
H668 C654 0.960 . S
H669 C655 0.961 . S
H670 C655 0.961 . S
H671 C655 0.961 . S
H672 C656 0.931 . S
H673 C661 0.930 1_655 S
H674 C662 0.956 . S
H675 C662 0.961 . S
H676 C662 0.961 . S
H677 C663 0.958 . S
H678 C663 0.961 . S
H679 C663 0.960 . S
C680 C681 1.391 . S
C680 C682 1.394 . S
C680 H696 0.931 . S
C681 C680 1.391 . S
C681 C685 1.376 1_545 S
C682 C680 1.394 . S
C682 C683 1.369 . S
C682 C686 1.531 . S
C683 C682 1.369 . S
C683 C684 1.410 1_545 S
C683 C691 1.503 . S
C684 C683 1.410 1_565 S
C684 C685 1.392 . S
C684 C687 1.511 . S
C685 C681 1.376 1_565 S
C685 C684 1.392 . S
C685 H697 0.929 . S
C686 C682 1.531 . S
C686 H698 0.960 . S
C686 H699 0.962 . S
C686 H700 0.960 . S
C687 C684 1.511 . S
C687 H701 0.961 . S
C687 H702 0.961 . S
C687 H703 0.961 . S
C688 C689 1.370 . S
C688 C690 1.363 . S
C688 H704 0.931 1_545 S
C689 C688 1.370 . S
C689 C693 1.408 . S
C690 C688 1.363 . S
C690 C691 1.370 . S
C690 C694 1.524 1_545 S
C691 C683 1.503 . S
C691 C690 1.370 . S
C691 C692 1.403 . S
C692 C691 1.403 . S
C692 C693 1.404 . S
C692 C695 1.539 . S
C693 C689 1.408 . S
C693 C692 1.404 . S
C693 H705 0.930 . S
C694 C690 1.524 1_565 S
C694 H706 0.956 . S
C694 H707 0.961 . S
C694 H708 0.961 . S
C695 C692 1.539 . S
C695 H709 0.958 . S
C695 H710 0.961 . S
C695 H711 0.960 . S
H696 C680 0.931 . S
H697 C685 0.929 . S
H698 C686 0.960 . S
H699 C686 0.962 . S
H700 C686 0.960 . S
H701 C687 0.961 . S
H702 C687 0.961 . S
H703 C687 0.961 . S
H704 C688 0.931 1_565 S
H705 C693 0.930 . S
H706 C694 0.956 . S
H707 C694 0.961 . S
H708 C694 0.961 . S
H709 C695 0.958 . S
H710 C695 0.961 . S
H711 C695 0.960 . S
C712 C713 1.391 . S
C712 C714 1.394 . S
C712 H728 0.931 . S
C713 C712 1.391 . S
C713 C717 1.376 . S
C714 C712 1.394 . S
C714 C715 1.369 . S
C714 C718 1.531 . S
C715 C714 1.369 . S
C715 C716 1.410 . S
C715 C723 1.503 . S
C716 C715 1.410 . S
C716 C717 1.392 . S
C716 C719 1.511 . S
C717 C713 1.376 . S
C717 C716 1.392 . S
C717 H729 0.929 . S
C718 C714 1.531 . S
C718 H730 0.960 . S
C718 H731 0.962 . S
C718 H732 0.960 . S
C719 C716 1.511 . S
C719 H733 0.961 . S
C719 H734 0.961 . S
C719 H735 0.961 1_554 S
C720 C721 1.370 1_554 S
C720 C722 1.363 . S
C720 H736 0.931 . S
C721 C720 1.370 1_556 S
C721 C725 1.408 . S
C722 C720 1.363 . S
C722 C723 1.370 . S
C722 C726 1.524 . S
C723 C715 1.503 . S
C723 C722 1.370 . S
C723 C724 1.403 1_554 S
C724 C723 1.403 1_556 S
C724 C725 1.404 . S
C724 C727 1.539 . S
C725 C721 1.408 . S
C725 C724 1.404 . S
C725 H737 0.930 . S
C726 C722 1.524 . S
C726 H738 0.956 . S
C726 H739 0.961 . S
C726 H740 0.961 . S
C727 C724 1.539 . S
C727 H741 0.958 . S
C727 H742 0.961 . S
C727 H743 0.960 . S
H728 C712 0.931 . S
H729 C717 0.929 . S
H730 C718 0.960 . S
H731 C718 0.962 . S
H732 C718 0.960 . S
H733 C719 0.961 . S
H734 C719 0.961 . S
H735 C719 0.961 1_556 S
H736 C720 0.931 . S
H737 C725 0.930 . S
H738 C726 0.956 . S
H739 C726 0.961 . S
H740 C726 0.961 . S
H741 C727 0.958 . S
H742 C727 0.961 . S
H743 C727 0.960 . S
C744 C745 1.391 . S
C744 C746 1.394 . S
C744 H760 0.931 . S
C745 C744 1.391 . S
C745 C749 1.376 . S
C746 C744 1.394 . S
C746 C747 1.369 . S
C746 C750 1.531 . S
C747 C746 1.369 . S
C747 C748 1.410 . S
C747 C755 1.503 . S
C748 C747 1.410 . S
C748 C749 1.392 . S
C748 C751 1.511 . S
C749 C745 1.376 . S
C749 C748 1.392 . S
C749 H761 0.929 . S
C750 C746 1.531 . S
C750 H762 0.960 . S
C750 H763 0.962 . S
C750 H764 0.960 . S
C751 C748 1.511 . S
C751 H765 0.961 . S
C751 H766 0.961 . S
C751 H767 0.961 . S
C752 C753 1.370 . S
C752 C754 1.363 . S
C752 H768 0.931 . S
C753 C752 1.370 . S
C753 C757 1.408 . S
C754 C752 1.363 . S
C754 C755 1.370 . S
C754 C758 1.524 . S
C755 C747 1.503 . S
C755 C754 1.370 . S
C755 C756 1.403 . S
C756 C755 1.403 . S
C756 C757 1.404 . S
C756 C759 1.539 . S
C757 C753 1.408 . S
C757 C756 1.404 . S
C757 H769 0.930 . S
C758 C754 1.524 . S
C758 H770 0.956 . S
C758 H771 0.961 . S
C758 H772 0.961 . S
C759 C756 1.539 . S
C759 H773 0.958 . S
C759 H774 0.961 . S
C759 H775 0.960 . S
H760 C744 0.931 . S
H761 C749 0.929 . S
H762 C750 0.960 . S
H763 C750 0.962 . S
H764 C750 0.960 . S
H765 C751 0.961 . S
H766 C751 0.961 . S
H767 C751 0.961 . S
H768 C752 0.931 . S
H769 C757 0.930 . S
H770 C758 0.956 . S
H771 C758 0.961 . S
H772 C758 0.961 . S
H773 C759 0.958 . S
H774 C759 0.961 . S
H775 C759 0.960 . S
C776 C777 1.391 . S
C776 C778 1.394 . S
C776 H792 0.931 . S
C777 C776 1.391 . S
C777 C781 1.376 1_455 S
C778 C776 1.394 . S
C778 C779 1.369 . S
C778 C782 1.531 . S
C779 C778 1.369 . S
C779 C780 1.410 1_454 S
C779 C787 1.503 1_554 S
C780 C779 1.410 1_656 S
C780 C781 1.392 1_556 S
C780 C783 1.511 . S
C781 C777 1.376 1_655 S
C781 C780 1.392 1_554 S
C781 H793 0.929 1_554 S
C782 C778 1.531 . S
C782 H794 0.960 . S
C782 H795 0.962 . S
C782 H796 0.960 . S
C783 C780 1.511 . S
C783 H797 0.961 . S
C783 H798 0.961 . S
C783 H799 0.961 . S
C784 C785 1.370 . S
C784 C786 1.363 . S
C784 H800 0.931 . S
C785 C784 1.370 . S
C785 C789 1.408 1_456 S
C786 C784 1.363 . S
C786 C787 1.370 . S
C786 C790 1.524 . S
C787 C779 1.503 1_556 S
C787 C786 1.370 . S
C787 C788 1.403 1_456 S
C788 C787 1.403 1_654 S
C788 C789 1.404 . S
C788 C791 1.539 . S
C789 C785 1.408 1_654 S
C789 C788 1.404 . S
C789 H801 0.930 . S
C790 C786 1.524 . S
C790 H802 0.956 . S
C790 H803 0.961 . S
C790 H804 0.961 . S
C791 C788 1.539 . S
C791 H805 0.958 . S
C791 H806 0.961 . S
C791 H807 0.960 . S
H792 C776 0.931 . S
H793 C781 0.929 1_556 S
H794 C782 0.960 . S
H795 C782 0.962 . S
H796 C782 0.960 . S
H797 C783 0.961 . S
H798 C783 0.961 . S
H799 C783 0.961 . S
H800 C784 0.931 . S
H801 C789 0.930 . S
H802 C790 0.956 . S
H803 C790 0.961 . S
H804 C790 0.961 . S
H805 C791 0.958 . S
H806 C791 0.961 . S
H807 C791 0.960 . S
C808 C809 1.406 . S
C808 C810 1.394 . S
C808 H824 0.931 . S
C809 C808 1.406 . S
C809 C813 1.362 1_545 S
C810 C808 1.394 . S
C810 C811 1.369 . S
C810 C814 1.531 . S
C811 C810 1.369 . S
C811 C812 1.410 1_545 S
C811 C819 1.503 . S
C812 C811 1.410 1_565 S
C812 C813 1.392 . S
C812 C815 1.511 1_554 S
C813 C809 1.362 1_565 S
C813 C812 1.392 . S
C813 H825 0.929 . S
C814 C810 1.531 . S
C814 H826 0.960 . S
C814 H827 0.962 . S
C814 H828 0.960 . S
C815 C812 1.511 1_556 S
C815 H829 0.961 . S
C815 H830 0.961 . S
C815 H831 0.961 1_556 S
C816 C817 1.370 . S
C816 C818 1.363 . S
C816 H832 0.931 . S
C817 C816 1.370 . S
C817 C821 1.408 1_546 S
C818 C816 1.363 . S
C818 C819 1.370 1_556 S
C818 C822 1.524 . S
C819 C811 1.503 . S
C819 C818 1.370 1_554 S
C819 C820 1.403 1_545 S
C820 C819 1.403 1_565 S
C820 C821 1.404 . S
C820 C823 1.539 . S
C821 C817 1.408 1_564 S
C821 C820 1.404 . S
C821 H833 0.930 . S
C822 C818 1.524 . S
C822 H834 0.956 . S
C822 H835 0.961 . S
C822 H836 0.961 . S
C823 C820 1.539 . S
C823 H837 0.958 . S
C823 H838 0.961 . S
C823 H839 0.960 . S
H824 C808 0.931 . S
H825 C813 0.929 . S
H826 C814 0.960 . S
H827 C814 0.962 . S
H828 C814 0.960 . S
H829 C815 0.961 . S
H830 C815 0.961 . S
H831 C815 0.961 1_554 S
H832 C816 0.931 . S
H833 C821 0.930 . S
H834 C822 0.956 . S
H835 C822 0.961 . S
H836 C822 0.961 . S
H837 C823 0.958 . S
H838 C823 0.961 . S
H839 C823 0.960 . S
C840 C841 1.391 . S
C840 C842 1.394 . S
C840 H856 0.931 . S
C841 C840 1.391 . S
C841 C845 1.376 . S
C842 C840 1.394 . S
C842 C843 1.369 . S
C842 C846 1.531 . S
C843 C842 1.369 . S
C843 C844 1.410 . S
C843 C851 1.503 . S
C844 C843 1.410 . S
C844 C845 1.392 . S
C844 C847 1.511 . S
C845 C841 1.376 . S
C845 C844 1.392 . S
C845 H857 0.929 . S
C846 C842 1.531 . S
C846 H858 0.960 . S
C846 H859 0.962 . S
C846 H860 0.960 . S
C847 C844 1.511 . S
C847 H861 0.961 . S
C847 H862 0.961 . S
C847 H863 0.961 . S
C848 C849 1.370 . S
C848 C850 1.363 . S
C848 H864 0.931 . S
C849 C848 1.370 . S
C849 C853 1.408 1_554 S
C850 C848 1.363 . S
C850 C851 1.370 . S
C850 C854 1.524 . S
C851 C843 1.503 . S
C851 C850 1.370 . S
C851 C852 1.403 . S
C852 C851 1.403 . S
C852 C853 1.404 1_554 S
C852 C855 1.539 1_554 S
C853 C849 1.408 1_556 S
C853 C852 1.404 1_556 S
C853 H865 0.930 . S
C854 C850 1.524 . S
C854 H866 0.956 . S
C854 H867 0.961 . S
C854 H868 0.961 . S
C855 C852 1.539 1_556 S
C855 H869 0.958 . S
C855 H870 0.961 . S
C855 H871 0.960 1_556 S
H856 C840 0.931 . S
H857 C845 0.929 . S
H858 C846 0.960 . S
H859 C846 0.962 . S
H860 C846 0.960 . S
H861 C847 0.961 . S
H862 C847 0.961 . S
H863 C847 0.961 . S
H864 C848 0.931 . S
H865 C853 0.930 . S
H866 C854 0.956 . S
H867 C854 0.961 . S
H868 C854 0.961 . S
H869 C855 0.958 . S
H870 C855 0.961 . S
H871 C855 0.960 1_554 S
C872 C873 1.391 . S
C872 C874 1.394 . S
C872 H888 0.931 . S
C873 C872 1.391 . S
C873 C877 1.376 . S
C874 C872 1.394 . S
C874 C875 1.369 . S
C874 C878 1.531 . S
C875 C874 1.369 . S
C875 C876 1.410 . S
C875 C883 1.503 . S
C876 C875 1.410 . S
C876 C877 1.392 . S
C876 C879 1.511 . S
C877 C873 1.376 . S
C877 C876 1.392 . S
C877 H889 0.929 . S
C878 C874 1.531 . S
C878 H890 0.960 1_556 S
C878 H891 0.962 . S
C878 H892 0.960 1_556 S
C879 C876 1.511 . S
C879 H893 0.961 . S
C879 H894 0.961 . S
C879 H895 0.961 . S
C880 C881 1.370 . S
C880 C882 1.363 . S
C880 H896 0.931 . S
C881 C880 1.370 . S
C881 C885 1.408 . S
C882 C880 1.363 . S
C882 C883 1.370 . S
C882 C886 1.524 . S
C883 C875 1.503 . S
C883 C882 1.370 . S
C883 C884 1.403 . S
C884 C883 1.403 . S
C884 C885 1.404 . S
C884 C887 1.539 1_556 S
C885 C881 1.408 . S
C885 C884 1.404 . S
C885 H897 0.930 1_556 S
C886 C882 1.524 . S
C886 H898 0.956 . S
C886 H899 0.961 . S
C886 H900 0.961 . S
C887 C884 1.539 1_554 S
C887 H901 0.958 . S
C887 H902 0.961 . S
C887 H903 0.960 . S
H888 C872 0.931 . S
H889 C877 0.929 . S
H890 C878 0.960 1_554 S
H891 C878 0.962 . S
H892 C878 0.960 1_554 S
H893 C879 0.961 . S
H894 C879 0.961 . S
H895 C879 0.961 . S
H896 C880 0.931 . S
H897 C885 0.930 1_554 S
H898 C886 0.956 . S
H899 C886 0.961 . S
H900 C886 0.961 . S
H901 C887 0.958 . S
H902 C887 0.961 . S
H903 C887 0.960 . S
C904 C905 1.395 . S
C904 C906 1.394 . S
C904 H920 0.931 . S
C905 C904 1.395 . S
C905 C909 1.370 1_655 S
C906 C904 1.394 . S
C906 C907 1.350 1_655 S
C906 C910 1.531 . S
C907 C906 1.350 1_455 S
C907 C908 1.425 . S
C907 C915 1.509 1_455 S
C908 C907 1.425 . S
C908 C909 1.392 . S
C908 C911 1.511 . S
C909 C905 1.370 1_455 S
C909 C908 1.392 . S
C909 H921 0.929 . S
C910 C906 1.531 . S
C910 H922 0.960 . S
C910 H923 0.962 . S
C910 H924 0.960 . S
C911 C908 1.511 . S
C911 H925 0.961 . S
C911 H926 0.961 . S
C911 H927 0.961 . S
C912 C913 1.370 . S
C912 C914 1.363 . S
C912 H928 0.931 . S
C913 C912 1.370 . S
C913 C917 1.408 1_655 S
C914 C912 1.363 . S
C914 C915 1.396 . S
C914 C918 1.524 . S
C915 C907 1.509 1_655 S
C915 C914 1.396 . S
C915 C916 1.376 1_655 S
C916 C915 1.376 1_455 S
C916 C917 1.404 . S
C916 C919 1.539 . S
C917 C913 1.408 1_455 S
C917 C916 1.404 . S
C917 H929 0.930 . S
C918 C914 1.524 . S
C918 H930 0.956 . S
C918 H931 0.961 . S
C918 H932 0.961 . S
C919 C916 1.539 . S
C919 H933 0.958 . S
C919 H934 0.961 . S
C919 H935 0.960 . S
H920 C904 0.931 . S
H921 C909 0.929 . S
H922 C910 0.960 . S
H923 C910 0.962 . S
H924 C910 0.960 . S
H925 C911 0.961 . S
H926 C911 0.961 . S
H927 C911 0.961 . S
H928 C912 0.931 . S
H929 C917 0.930 . S
H930 C918 0.956 . S
H931 C918 0.961 . S
H932 C918 0.961 . S
H933 C919 0.958 . S
H934 C919 0.961 . S
H935 C919 0.960 . S
C936 C937 1.391 . S
C936 C938 1.394 . S
C936 H952 0.931 . S
C937 C936 1.391 . S
C937 C941 1.376 1_565 S
C938 C936 1.394 . S
C938 C939 1.369 . S
C938 C942 1.531 . S
C939 C938 1.369 . S
C939 C940 1.410 1_565 S
C939 C947 1.503 . S
C940 C939 1.410 1_545 S
C940 C941 1.392 . S
C940 C943 1.511 . S
C941 C937 1.376 1_545 S
C941 C940 1.392 . S
C941 H953 0.929 . S
C942 C938 1.531 . S
C942 H954 0.960 . S
C942 H955 0.962 . S
C942 H956 0.960 . S
C943 C940 1.511 . S
C943 H957 0.961 . S
C943 H958 0.961 . S
C943 H959 0.961 . S
C944 C945 1.370 1_545 S
C944 C946 1.363 . S
C944 H960 0.931 . S
C945 C944 1.370 1_565 S
C945 C949 1.408 . S
C946 C944 1.363 . S
C946 C947 1.370 1_545 S
C946 C950 1.524 . S
C947 C939 1.503 . S
C947 C946 1.370 1_565 S
C947 C948 1.403 . S
C948 C947 1.403 . S
C948 C949 1.404 . S
C948 C951 1.539 . S
C949 C945 1.408 . S
C949 C948 1.404 . S
C949 H961 0.930 . S
C950 C946 1.524 . S
C950 H962 0.956 . S
C950 H963 0.961 . S
C950 H964 0.961 . S
C951 C948 1.539 . S
C951 H965 0.958 . S
C951 H966 0.961 . S
C951 H967 0.960 . S
H952 C936 0.931 . S
H953 C941 0.929 . S
H954 C942 0.960 . S
H955 C942 0.962 . S
H956 C942 0.960 . S
H957 C943 0.961 . S
H958 C943 0.961 . S
H959 C943 0.961 . S
H960 C944 0.931 . S
H961 C949 0.930 . S
H962 C950 0.956 . S
H963 C950 0.961 . S
H964 C950 0.961 . S
H965 C951 0.958 . S
H966 C951 0.961 . S
H967 C951 0.960 . S
C968 C969 1.391 . S
C968 C970 1.394 . S
C968 H984 0.931 . S
C969 C968 1.391 . S
C969 C973 1.376 . S
C970 C968 1.394 . S
C970 C971 1.369 . S
C970 C974 1.531 . S
C971 C970 1.369 . S
C971 C972 1.410 . S
C971 C979 1.503 . S
C972 C971 1.410 . S
C972 C973 1.392 . S
C972 C975 1.511 . S
C973 C969 1.376 . S
C973 C972 1.392 . S
C973 H985 0.929 . S
C974 C970 1.531 . S
C974 H986 0.960 . S
C974 H987 0.962 . S
C974 H988 0.960 . S
C975 C972 1.511 . S
C975 H989 0.961 . S
C975 H990 0.961 . S
C975 H991 0.961 . S
C976 C977 1.370 . S
C976 C978 1.363 . S
C976 H992 0.931 . S
C977 C976 1.370 . S
C977 C981 1.408 . S
C978 C976 1.363 . S
C978 C979 1.370 . S
C978 C982 1.524 . S
C979 C971 1.503 . S
C979 C978 1.370 . S
C979 C980 1.403 . S
C980 C979 1.403 . S
C980 C981 1.404 . S
C980 C983 1.539 . S
C981 C977 1.408 . S
C981 C980 1.404 . S
C981 H993 0.930 . S
C982 C978 1.524 . S
C982 H994 0.956 . S
C982 H995 0.961 . S
C982 H996 0.961 . S
C983 C980 1.539 . S
C983 H997 0.958 . S
C983 H998 0.961 . S
C983 H999 0.960 . S
H984 C968 0.931 . S
H985 C973 0.929 . S
H986 C974 0.960 . S
H987 C974 0.962 . S
H988 C974 0.960 . S
H989 C975 0.961 . S
H990 C975 0.961 . S
H991 C975 0.961 . S
H992 C976 0.931 . S
H993 C981 0.930 . S
H994 C982 0.956 . S
H995 C982 0.961 . S
H996 C982 0.961 . S
H997 C983 0.958 . S
H998 C983 0.961 . S
H999 C983 0.960 . S
C1000 C1001 1.391 . S
C1000 C1002 1.394 . S
C1000 H1016 0.931 . S
C1001 C1000 1.391 . S
C1001 C1005 1.376 . S
C1002 C1000 1.394 . S
C1002 C1003 1.369 . S
C1002 C1006 1.531 . S
C1003 C1002 1.369 . S
C1003 C1004 1.410 . S
C1003 C1011 1.503 . S
C1004 C1003 1.410 . S
C1004 C1005 1.392 . S
C1004 C1007 1.511 . S
C1005 C1001 1.376 . S
C1005 C1004 1.392 . S
C1005 H1017 0.929 . S
C1006 C1002 1.531 . S
C1006 H1018 0.960 . S
C1006 H1019 0.962 . S
C1006 H1020 0.960 . S
C1007 C1004 1.511 . S
C1007 H1021 0.961 . S
C1007 H1022 0.961 . S
C1007 H1023 0.961 . S
C1008 C1009 1.370 . S
C1008 C1010 1.363 . S
C1008 H1024 0.931 . S
C1009 C1008 1.370 . S
C1009 C1013 1.408 . S
C1010 C1008 1.363 . S
C1010 C1011 1.370 . S
C1010 C1014 1.524 . S
C1011 C1003 1.503 . S
C1011 C1010 1.370 . S
C1011 C1012 1.403 . S
C1012 C1011 1.403 . S
C1012 C1013 1.404 . S
C1012 C1015 1.539 . S
C1013 C1009 1.408 . S
C1013 C1012 1.404 . S
C1013 H1025 0.930 . S
C1014 C1010 1.524 . S
C1014 H1026 0.956 . S
C1014 H1027 0.961 . S
C1014 H1028 0.961 . S
C1015 C1012 1.539 . S
C1015 H1029 0.958 . S
C1015 H1030 0.961 . S
C1015 H1031 0.960 . S
H1016 C1000 0.931 . S
H1017 C1005 0.929 . S
H1018 C1006 0.960 . S
H1019 C1006 0.962 . S
H1020 C1006 0.960 . S
H1021 C1007 0.961 . S
H1022 C1007 0.961 . S
H1023 C1007 0.961 . S
H1024 C1008 0.931 . S
H1025 C1013 0.930 . S
H1026 C1014 0.956 . S
H1027 C1014 0.961 . S
H1028 C1014 0.961 . S
H1029 C1015 0.958 . S
H1030 C1015 0.961 . S
H1031 C1015 0.960 . S
C265 N80 2.098 1_545 S
C273 C106 2.116 1_545 S
C305 C146 2.077 . S
C297 N93 2.063 . S
C337 C210 1.821 . S
C329 N54 1.766 . S
C369 C226 1.602 . S
C361 N67 1.539 . S
C401 C127 2.116 1_565 S
C393 N28 2.094 . S
C425 N41 2.080 . S
C433 C167 2.081 . S
C457 N2 1.785 . S
C465 C201 1.816 . S
C489 N15 1.540 . S
C497 C247 1.599 1_654 S
C529 C121 0.422 . S
C521 N70 0.328 . S
C561 C161 0.663 . S
C553 N83 0.707 1_545 S
C593 C197 0.751 . S
C585 N96 0.699 . S
C617 N57 0.576 . S
C625 C241 0.536 . S
C649 N18 0.382 . S
C657 C130 0.382 . S
C689 C170 0.694 . S
C681 N31 0.665 1_545 S
C721 C208 0.698 . S
C713 N44 0.717 . S
C745 N5 0.598 . S
C753 C250 0.564 . S
C777 N66 1.854 . S
C785 C128 1.956 . S
C809 N79 1.982 1_545 S
C817 C168 2.058 . S
C849 C186 1.640 1_554 S
C841 N92 1.697 . S
C881 C248 2.363 . S
C873 N53 2.243 . S
C905 N14 1.905 . S
C913 C117 1.961 . S
C945 C157 2.061 . S
C937 N27 2.011 . S
C977 C207 1.660 . S
C969 N40 1.685 . S
C1001 N1 2.251 . S
C1009 C237 2.370 . S
