# Generated by pormake.
# Topology dag, (6,3)-cn, num edge types: 1
# Building blocks:
#     Node 0, Type 0, BuildingBlock: IZENUY_clean_sbu_0, # of connection points: 6
#     Node 1, Type 0, BuildingBlock: IZENUY_clean_sbu_0, # of connection points: 6
#     Node 2, Type 0, BuildingBlock: IZENUY_clean_sbu_0, # of connection points: 6
#     Node 3, Type 0, BuildingBlock: IZENUY_clean_sbu_0, # of connection points: 6
#     Node 4, Type 1, BuildingBlock: KAKCAD_clean_linker_0, # of connection points: 3
#     Node 5, Type 1, BuildingBlock: KAKCAD_clean_linker_0, # of connection points: 3
#     Node 6, Type 1, BuildingBlock: KAKCAD_clean_linker_0, # of connection points: 3
#     Node 7, Type 1, BuildingBlock: KAKCAD_clean_linker_0, # of connection points: 3
#     Node 8, Type 1, BuildingBlock: KAKCAD_clean_linker_0, # of connection points: 3
#     Node 9, Type 1, BuildingBlock: KAKCAD_clean_linker_0, # of connection points: 3
#     Node 10, Type 1, BuildingBlock: KAKCAD_clean_linker_0, # of connection points: 3
#     Node 11, Type 1, BuildingBlock: KAKCAD_clean_linker_0, # of connection points: 3
#     Edge 12, Type (0, 1), BuildingBlock: ZUJKAS_clean_linker_0, # of connection points: 2
#     Edge 13, Type (0, 1), BuildingBlock: ZUJKAS_clean_linker_0, # of connection points: 2
#     Edge 14, Type (0, 1), BuildingBlock: ZUJKAS_clean_linker_0, # of connection points: 2
#     Edge 15, Type (0, 1), BuildingBlock: ZUJKAS_clean_linker_0, # of connection points: 2
#     Edge 16, Type (0, 1), BuildingBlock: ZUJKAS_clean_linker_0, # of connection points: 2
#     Edge 17, Type (0, 1), BuildingBlock: ZUJKAS_clean_linker_0, # of connection points: 2
#     Edge 18, Type (0, 1), BuildingBlock: ZUJKAS_clean_linker_0, # of connection points: 2
#     Edge 19, Type (0, 1), BuildingBlock: ZUJKAS_clean_linker_0, # of connection points: 2
#     Edge 20, Type (0, 1), BuildingBlock: ZUJKAS_clean_linker_0, # of connection points: 2
#     Edge 21, Type (0, 1), BuildingBlock: ZUJKAS_clean_linker_0, # of connection points: 2
#     Edge 22, Type (0, 1), BuildingBlock: ZUJKAS_clean_linker_0, # of connection points: 2
#     Edge 23, Type (0, 1), BuildingBlock: ZUJKAS_clean_linker_0, # of connection points: 2
#     Edge 24, Type (0, 1), BuildingBlock: ZUJKAS_clean_linker_0, # of connection points: 2
#     Edge 25, Type (0, 1), BuildingBlock: ZUJKAS_clean_linker_0, # of connection points: 2
#     Edge 26, Type (0, 1), BuildingBlock: ZUJKAS_clean_linker_0, # of connection points: 2
#     Edge 27, Type (0, 1), BuildingBlock: ZUJKAS_clean_linker_0, # of connection points: 2
#     Edge 28, Type (0, 1), BuildingBlock: ZUJKAS_clean_linker_0, # of connection points: 2
#     Edge 29, Type (0, 1), BuildingBlock: ZUJKAS_clean_linker_0, # of connection points: 2
#     Edge 30, Type (0, 1), BuildingBlock: ZUJKAS_clean_linker_0, # of connection points: 2
#     Edge 31, Type (0, 1), BuildingBlock: ZUJKAS_clean_linker_0, # of connection points: 2
#     Edge 32, Type (0, 1), BuildingBlock: ZUJKAS_clean_linker_0, # of connection points: 2
#     Edge 33, Type (0, 1), BuildingBlock: ZUJKAS_clean_linker_0, # of connection points: 2
#     Edge 34, Type (0, 1), BuildingBlock: ZUJKAS_clean_linker_0, # of connection points: 2
#     Edge 35, Type (0, 1), BuildingBlock: ZUJKAS_clean_linker_0, # of connection points: 2
# Relax obj value: 0.254
# Max RMSD: 0.193
# Mean RMSD: 0.159
data_MOF--net-dag--node1-IZENUY_clean_sbu_0--node2-KAKCAD_clean_linker_0--edge1-ZUJKAS_clean_linker_0
_symmetry_space_group_name_H-M    P1
_symmetry_Int_Tables_number       1
_symmetry_cell_setting            triclinic
loop_
_symmetry_equiv_pos_as_xyz
'x, y, z'
_cell_length_a     57.899681
_cell_length_b     60.335081
_cell_length_c     50.996466
_cell_angle_alpha  95.126212
_cell_angle_beta   90.212389
_cell_angle_gamma 90.042603
loop_
_atom_site_label
_atom_site_type_symbol
_atom_site_fract_x
_atom_site_fract_y
_atom_site_fract_z
_atom_type_partial_charge
Fe0 Fe 0.18636 0.84233 0.08918 0.0
Fe1 Fe 0.14044 0.85413 0.06397 0.0
O2 O 0.16038 0.83388 0.07272 0.0
Fe3 Fe 0.15433 0.80519 0.06508 0.0
O4 O 0.15544 0.80008 0.09954 0.0
O5 O 0.18799 0.81802 0.1083 0.0
O6 O 0.17075 0.85623 0.11666 0.0
C7 C 0.15575 0.87112 0.1146 0.0
C8 C 0.2022 0.80864 0.05461 0.0
O9 O 0.1468 0.87403 0.09247 0.0
C10 C 0.13967 0.82201 0.0199 0.0
O11 O 0.18941 0.86825 0.07311 0.0
O12 O 0.16158 0.86651 0.04366 0.0
O13 O 0.18473 0.79718 0.05992 0.0
O14 O 0.20361 0.82895 0.0628 0.0
C15 C 0.11086 0.82326 0.081 0.0
O16 O 0.13042 0.83793 0.03395 0.0
O17 O 0.15276 0.80841 0.03007 0.0
C18 C 0.18088 0.87398 0.05183 0.0
O19 O 0.11805 0.84305 0.08369 0.0
O20 O 0.12282 0.80806 0.06885 0.0
C21 C 0.17233 0.80488 0.11467 0.0
Fe22 Fe 0.68569 0.65961 0.48572 0.0
Fe23 Fe 0.65193 0.69495 0.50978 0.0
O24 O 0.65914 0.66665 0.50148 0.0
Fe25 Fe 0.63984 0.64541 0.50879 0.0
O26 O 0.66111 0.63323 0.52922 0.0
O27 O 0.68939 0.63317 0.50071 0.0
O28 O 0.7019 0.67284 0.51322 0.0
C29 C 0.69964 0.69295 0.52191 0.0
C30 C 0.6566 0.63045 0.45815 0.0
O31 O 0.68198 0.70397 0.51608 0.0
C32 C 0.60927 0.67566 0.49224 0.0
O33 O 0.68679 0.68463 0.46773 0.0
O34 O 0.65322 0.70073 0.47555 0.0
O35 O 0.64735 0.62654 0.47976 0.0
O36 O 0.67104 0.646 0.45726 0.0
C37 C 0.63746 0.67642 0.55385 0.0
O38 O 0.62059 0.69102 0.5051 0.0
O39 O 0.61728 0.65621 0.48891 0.0
C40 C 0.67054 0.69696 0.46092 0.0
O41 O 0.65005 0.69085 0.54451 0.0
O42 O 0.62892 0.66046 0.53908 0.0
C43 C 0.68068 0.62648 0.52135 0.0
Fe44 Fe 0.84966 0.19809 0.01686 0.0
Fe45 Fe 0.86076 0.14823 0.01238 0.0
O46 O 0.84225 0.17032 0.0057 0.0
Fe47 Fe 0.81633 0.16467 0.9877 0.0
O48 O 0.81662 0.19086 0.97194 0.0
O49 O 0.85004 0.20608 0.98341 0.0
O50 O 0.88101 0.19391 0.01385 0.0
C51 C 0.89263 0.17913 0.00055 0.0
C52 C 0.80137 0.19624 0.0254 0.0
O53 O 0.88448 0.15989 0.99511 0.0
C54 C 0.8189 0.12928 0.0206 0.0
O55 O 0.84992 0.19183 0.05099 0.0
O56 O 0.87061 0.16131 0.04433 0.0
O57 O 0.79906 0.17666 0.01483 0.0
O58 O 0.8196 0.20729 0.02204 0.0
C59 C 0.84598 0.13635 0.95997 0.0
O60 O 0.83832 0.13508 0.03011 0.0
O61 O 0.81127 0.13742 0.00022 0.0
C62 C 0.86188 0.17664 0.05977 0.0
O63 O 0.85419 0.13115 0.98165 0.0
O64 O 0.832 0.1523 0.95934 0.0
C65 C 0.83327 0.20362 0.96759 0.0
Fe66 Fe 0.36122 0.35018 0.55782 0.0
Fe67 Fe 0.3189 0.33653 0.58838 0.0
O68 O 0.34333 0.32913 0.56871 0.0
Fe69 Fe 0.34991 0.30072 0.56005 0.0
O70 O 0.37797 0.30339 0.57592 0.0
O71 O 0.38795 0.33394 0.55841 0.0
O72 O 0.36792 0.36081 0.5913 0.0
C73 C 0.35304 0.36738 0.6082 0.0
C74 C 0.35965 0.32142 0.51344 0.0
O75 O 0.33203 0.36181 0.60507 0.0
C76 C 0.30299 0.30011 0.55409 0.0
O77 O 0.33776 0.37035 0.55524 0.0
O78 O 0.30619 0.35189 0.56302 0.0
O79 O 0.36207 0.30537 0.52767 0.0
O80 O 0.35569 0.34082 0.5237 0.0
C81 C 0.33549 0.30153 0.61317 0.0
O82 O 0.30131 0.31261 0.57533 0.0
O83 O 0.32239 0.29617 0.54356 0.0
C84 C 0.31608 0.3678 0.55319 0.0
O85 O 0.33006 0.32181 0.61499 0.0
O86 O 0.33889 0.291 0.59087 0.0
C87 C 0.39316 0.31731 0.57073 0.0
C88 C 0.99669 0.17144 0.30503 0.0
C89 C 0.97759 0.15736 0.29951 0.0
C90 C 0.01495 0.16481 0.32056 0.0
C91 C 0.01447 0.14395 0.33082 0.0
C92 C 0.99475 0.1305 0.32664 0.0
C93 C 0.9765 0.13714 0.31119 0.0
C94 C 0.03531 0.1353 0.34354 0.0
C95 C 0.04839 0.14892 0.36178 0.0
C96 C 0.06906 0.14109 0.37221 0.0
C97 C 0.07649 0.11933 0.36421 0.0
C98 C 0.06366 0.10554 0.34589 0.0
C99 C 0.04304 0.11366 0.33582 0.0
C100 C 0.07244 0.08329 0.33562 0.0
C101 C 0.09587 0.08031 0.329 0.0
C102 C 0.05715 0.06529 0.33052 0.0
C103 C 0.06486 0.04514 0.31796 0.0
C104 C 0.08806 0.0425 0.31033 0.0
C105 C 0.08358 0.15592 0.39037 0.0
C106 C 0.08717 0.17825 0.38555 0.0
C107 C 0.0948 0.14764 0.41195 0.0
C108 C 0.10974 0.16118 0.4279 0.0
C109 C 0.11378 0.18334 0.42268 0.0
C110 C 0.10207 0.1918 0.40153 0.0
C111 C 0.1036 0.0601 0.31654 0.0
H112 H 0.99814 0.18703 0.29616 0.0
H113 H 0.03 0.17546 0.32327 0.0
H114 H 0.99375 0.11451 0.33469 0.0
H115 H 0.96181 0.12612 0.30774 0.0
H116 H 0.04243 0.1656 0.36787 0.0
H117 H 0.03356 0.10351 0.32082 0.0
H118 H 0.0926 0.11329 0.37176 0.0
H119 H 0.10805 0.0939 0.33232 0.0
H120 H 0.03909 0.06691 0.3358 0.0
H121 H 0.05257 0.03173 0.3138 0.0
H122 H 0.07897 0.18511 0.36895 0.0
H123 H 0.0922 0.13059 0.41638 0.0
H124 H 0.12154 0.05864 0.31067 0.0
H125 H 0.10457 0.20887 0.39717 0.0
H126 H 0.11863 0.15406 0.44388 0.0
C127 C 0.39742 0.56577 0.8046 0.0
C128 C 0.41331 0.54859 0.79794 0.0
C129 C 0.40468 0.58583 0.81785 0.0
C130 C 0.42799 0.58916 0.82501 0.0
C131 C 0.44367 0.57158 0.8195 0.0
C132 C 0.43643 0.55155 0.80606 0.0
C133 C 0.43611 0.61144 0.83627 0.0
C134 C 0.42225 0.62475 0.85385 0.0
C135 C 0.42845 0.64686 0.86193 0.0
C136 C 0.44929 0.65542 0.85295 0.0
C137 C 0.46363 0.64217 0.8358 0.0
C138 C 0.45689 0.62026 0.82761 0.0
C139 C 0.48458 0.65149 0.82421 0.0
C140 C 0.4836 0.6719 0.81296 0.0
C141 C 0.50494 0.63884 0.82171 0.0
C142 C 0.52334 0.64569 0.80677 0.0
C143 C 0.52176 0.6653 0.79392 0.0
C144 C 0.41234 0.66127 0.8784 0.0
C145 C 0.38852 0.6604 0.873 0.0
C146 C 0.42046 0.67595 0.89939 0.0
C147 C 0.40498 0.6892 0.9149 0.0
C148 C 0.38112 0.688 0.90971 0.0
C149 C 0.37312 0.67357 0.88846 0.0
C150 C 0.50202 0.67874 0.79793 0.0
H151 H 0.3794 0.56392 0.79907 0.0
H152 H 0.39213 0.59904 0.8215 0.0
H153 H 0.46168 0.57346 0.82506 0.0
H154 H 0.44918 0.53874 0.80114 0.0
H155 H 0.4064 0.61796 0.86104 0.0
H156 H 0.46725 0.61049 0.81318 0.0
H157 H 0.45406 0.67255 0.85867 0.0
H158 H 0.46806 0.68191 0.81439 0.0
H159 H 0.50628 0.6232 0.83052 0.0
H160 H 0.53851 0.6352 0.8045 0.0
H161 H 0.38175 0.64969 0.85658 0.0
H162 H 0.4387 0.6769 0.90411 0.0
H163 H 0.50018 0.69385 0.78813 0.0
H164 H 0.3549 0.67263 0.88356 0.0
H165 H 0.41165 0.70006 0.93125 0.0
C166 C 0.85449 0.80735 0.13859 0.0
C167 C 0.87183 0.82372 0.14168 0.0
C168 C 0.83136 0.81296 0.14368 0.0
C169 C 0.82521 0.83501 0.152 0.0
C170 C 0.84271 0.85113 0.15594 0.0
C171 C 0.8657 0.84557 0.15081 0.0
C172 C 0.80066 0.84155 0.15605 0.0
C173 C 0.78542 0.82844 0.16944 0.0
C174 C 0.76257 0.83547 0.17464 0.0
C175 C 0.75493 0.85566 0.16577 0.0
C176 C 0.77005 0.86893 0.15251 0.0
C177 C 0.79272 0.86165 0.14748 0.0
C178 C 0.76289 0.89104 0.14501 0.0
C179 C 0.74286 0.89362 0.12997 0.0
C180 C 0.77695 0.90961 0.15194 0.0
C181 C 0.7716 0.93024 0.14322 0.0
C182 C 0.75213 0.93275 0.12724 0.0
C183 C 0.74749 0.82268 0.19131 0.0
C184 C 0.74705 0.79931 0.18809 0.0
C185 C 0.73467 0.83377 0.21183 0.0
C186 C 0.72244 0.82176 0.22939 0.0
C187 C 0.72274 0.79837 0.22683 0.0
C188 C 0.73478 0.78728 0.20565 0.0
C189 C 0.73761 0.91431 0.12096 0.0
H190 H 0.85872 0.79039 0.13149 0.0
H191 H 0.81825 0.8002 0.1404 0.0
H192 H 0.83863 0.86814 0.163 0.0
H193 H 0.87874 0.85843 0.15397 0.0
H194 H 0.79172 0.81334 0.17701 0.0
H195 H 0.80425 0.87179 0.13685 0.0
H196 H 0.73746 0.86138 0.16985 0.0
H197 H 0.73178 0.8795 0.12439 0.0
H198 H 0.79237 0.90808 0.16373 0.0
H199 H 0.78331 0.94401 0.14811 0.0
H200 H 0.7565 0.79031 0.17224 0.0
H201 H 0.73493 0.85176 0.21509 0.0
H202 H 0.72245 0.91581 0.10874 0.0
H203 H 0.73506 0.76927 0.20292 0.0
H204 H 0.71365 0.83083 0.2457 0.0
C205 C 0.6441 0.30618 0.65194 0.0
C206 C 0.63533 0.30621 0.62622 0.0
C207 C 0.66717 0.31161 0.65736 0.0
C208 C 0.68193 0.31733 0.6372 0.0
C209 C 0.6734 0.31651 0.61129 0.0
C210 C 0.65034 0.31089 0.60583 0.0
C211 C 0.70544 0.32601 0.64374 0.0
C212 C 0.71942 0.31588 0.66175 0.0
C213 C 0.7403 0.32577 0.67094 0.0
C214 C 0.74736 0.3458 0.66122 0.0
C215 C 0.73378 0.3559 0.64276 0.0
C216 C 0.71293 0.3458 0.63403 0.0
C217 C 0.73999 0.37804 0.63433 0.0
C218 C 0.74662 0.39543 0.65303 0.0
C219 C 0.73727 0.38249 0.60792 0.0
C220 C 0.73999 0.40409 0.60057 0.0
C221 C 0.74538 0.42172 0.61952 0.0
C222 C 0.75381 0.31596 0.69194 0.0
C223 C 0.74233 0.30631 0.71237 0.0
C224 C 0.77813 0.3166 0.6922 0.0
C225 C 0.7906 0.30791 0.71251 0.0
C226 C 0.77899 0.29815 0.73269 0.0
C227 C 0.75478 0.29738 0.73237 0.0
C228 C 0.74925 0.41707 0.6457 0.0
H229 H 0.63295 0.30246 0.66799 0.0
H230 H 0.67318 0.3123 0.67756 0.0
H231 H 0.68443 0.32073 0.59536 0.0
H232 H 0.644 0.31116 0.58585 0.0
H233 H 0.71379 0.30038 0.66886 0.0
H234 H 0.70179 0.35413 0.62089 0.0
H235 H 0.76308 0.35393 0.66857 0.0
H236 H 0.74868 0.39256 0.67357 0.0
H237 H 0.73235 0.36936 0.59306 0.0
H238 H 0.7367 0.40714 0.58029 0.0
H239 H 0.72366 0.30604 0.7133 0.0
H240 H 0.78756 0.32367 0.67665 0.0
H241 H 0.75364 0.43028 0.66068 0.0
H242 H 0.7454 0.29032 0.74799 0.0
H243 H 0.80929 0.3086 0.71229 0.0
C244 C 0.59849 0.44826 0.24362 0.0
C245 C 0.599 0.45355 0.27104 0.0
C246 C 0.58843 0.42831 0.23291 0.0
C247 C 0.57844 0.41354 0.24945 0.0
C248 C 0.57887 0.419 0.27681 0.0
C249 C 0.58901 0.43873 0.28746 0.0
C250 C 0.56808 0.39211 0.23874 0.0
C251 C 0.58001 0.37783 0.2203 0.0
C252 C 0.57185 0.35616 0.21321 0.0
C253 C 0.55141 0.3489 0.22462 0.0
C254 C 0.53905 0.36316 0.24282 0.0
C255 C 0.54728 0.38491 0.24915 0.0
C256 C 0.51857 0.3551 0.25681 0.0
C257 C 0.50242 0.34037 0.24396 0.0
C258 C 0.51522 0.36211 0.28359 0.0
C259 C 0.49598 0.35516 0.29695 0.0
C260 C 0.47977 0.3407 0.28408 0.0
C261 C 0.5859 0.34062 0.1957 0.0
C262 C 0.59542 0.34752 0.17247 0.0
C263 C 0.59112 0.31927 0.20301 0.0
C264 C 0.60621 0.3054 0.18786 0.0
C265 C 0.61621 0.31253 0.165 0.0
C266 C 0.61033 0.33356 0.15718 0.0
C267 C 0.48324 0.33309 0.25757 0.0
H268 H 0.60611 0.45938 0.23053 0.0
H269 H 0.58831 0.4245 0.21175 0.0
H270 H 0.57163 0.40782 0.29011 0.0
H271 H 0.58885 0.44249 0.30863 0.0
H272 H 0.5964 0.38308 0.21271 0.0
H273 H 0.53777 0.39624 0.26282 0.0
H274 H 0.54556 0.33195 0.21986 0.0
H275 H 0.50439 0.33471 0.22334 0.0
H276 H 0.52763 0.3728 0.29446 0.0
H277 H 0.49396 0.36086 0.31757 0.0
H278 H 0.59158 0.36386 0.16635 0.0
H279 H 0.5842 0.3136 0.22096 0.0
H280 H 0.47095 0.32186 0.2473 0.0
H281 H 0.61792 0.33954 0.13975 0.0
H282 H 0.61032 0.2892 0.19422 0.0
C283 C 0.14391 0.19298 0.93318 0.0
C284 C 0.13593 0.19154 0.95897 0.0
C285 C 0.16684 0.18798 0.92668 0.0
C286 C 0.18233 0.18141 0.94581 0.0
C287 C 0.1746 0.18077 0.97182 0.0
C288 C 0.15165 0.18581 0.97834 0.0
C289 C 0.20586 0.17357 0.93808 0.0
C290 C 0.21877 0.1845 0.9199 0.0
C291 C 0.23972 0.17556 0.90995 0.0
C292 C 0.24807 0.15574 0.91901 0.0
C293 C 0.23546 0.14469 0.93741 0.0
C294 C 0.21448 0.15383 0.94695 0.0
C295 C 0.24265 0.12243 0.94466 0.0
C296 C 0.24957 0.10588 0.92511 0.0
C297 C 0.2403 0.11687 0.97068 0.0
C298 C 0.24339 0.09495 0.97675 0.0
C299 C 0.24889 0.07812 0.9569 0.0
C300 C 0.25178 0.18594 0.88851 0.0
C301 C 0.23897 0.19351 0.86763 0.0
C302 C 0.27599 0.18777 0.88821 0.0
C303 C 0.28712 0.19704 0.86745 0.0
C304 C 0.27423 0.20467 0.84665 0.0
C305 C 0.25005 0.20277 0.84699 0.0
C306 C 0.25266 0.08395 0.93118 0.0
H307 H 0.13221 0.19702 0.9177 0.0
H308 H 0.17215 0.18829 0.90637 0.0
H309 H 0.18621 0.17604 0.98705 0.0
H310 H 0.14613 0.1849 0.99848 0.0
H311 H 0.21228 0.19985 0.91313 0.0
H312 H 0.20408 0.14476 0.96003 0.0
H313 H 0.26394 0.14846 0.91103 0.0
H314 H 0.25138 0.1096 0.90483 0.0
H315 H 0.23521 0.12933 0.9862 0.0
H316 H 0.24018 0.09103 0.99672 0.0
H317 H 0.22034 0.19185 0.86691 0.0
H318 H 0.2863 0.18219 0.90411 0.0
H319 H 0.25718 0.07139 0.91553 0.0
H320 H 0.23965 0.20802 0.83097 0.0
H321 H 0.30577 0.19843 0.8678 0.0
C322 C 0.351 0.68637 0.43906 0.0
C323 C 0.36823 0.66989 0.43777 0.0
C324 C 0.32787 0.6806 0.43397 0.0
C325 C 0.32158 0.65826 0.42746 0.0
C326 C 0.33893 0.64193 0.42557 0.0
C327 C 0.36193 0.64766 0.43069 0.0
C328 C 0.29706 0.65175 0.42266 0.0
C329 C 0.28263 0.66401 0.40717 0.0
C330 C 0.25992 0.65686 0.40101 0.0
C331 C 0.25169 0.63728 0.41088 0.0
C332 C 0.26606 0.62469 0.42602 0.0
C333 C 0.28849 0.63229 0.43225 0.0
C334 C 0.25861 0.60264 0.43359 0.0
C335 C 0.23686 0.59955 0.44488 0.0
C336 C 0.27365 0.58443 0.42962 0.0
C337 C 0.26743 0.56372 0.43737 0.0
C338 C 0.24594 0.56061 0.44923 0.0
C339 C 0.24575 0.66872 0.38229 0.0
C340 C 0.24666 0.69203 0.38258 0.0
C341 C 0.23248 0.65667 0.36272 0.0
C342 C 0.22121 0.66756 0.34332 0.0
C343 C 0.22314 0.69074 0.34279 0.0
C344 C 0.23557 0.7029 0.36301 0.0
C345 C 0.23063 0.57872 0.4528 0.0
H346 H 0.35533 0.70363 0.44459 0.0
H347 H 0.31487 0.69354 0.43566 0.0
H348 H 0.33476 0.62465 0.41992 0.0
H349 H 0.37486 0.63465 0.42892 0.0
H350 H 0.28956 0.67846 0.39873 0.0
H351 H 0.29944 0.6228 0.4444 0.0
H352 H 0.23439 0.63137 0.40601 0.0
H353 H 0.22494 0.61334 0.44813 0.0
H354 H 0.29039 0.58622 0.42061 0.0
H355 H 0.27981 0.55027 0.43472 0.0
H356 H 0.25642 0.70186 0.3976 0.0
H357 H 0.23154 0.63869 0.36166 0.0
H358 H 0.21393 0.5768 0.46184 0.0
H359 H 0.2376 0.72076 0.36315 0.0
H360 H 0.21144 0.6577 0.32834 0.0
C361 C 0.00814 0.8295 0.76907 0.0
C362 C 0.01159 0.83658 0.79581 0.0
C363 C 0.98902 0.83711 0.75547 0.0
C364 C 0.97303 0.85178 0.76849 0.0
C365 C 0.97613 0.85799 0.79551 0.0
C366 C 0.9952 0.85059 0.80892 0.0
C367 C 0.95327 0.86106 0.75432 0.0
C368 C 0.93983 0.84756 0.73624 0.0
C369 C 0.91982 0.85609 0.72504 0.0
C370 C 0.91358 0.87841 0.73176 0.0
C371 C 0.92677 0.89202 0.7498 0.0
C372 C 0.94682 0.88336 0.76046 0.0
C373 C 0.91849 0.91453 0.75955 0.0
C374 C 0.90948 0.92928 0.74226 0.0
C375 C 0.91882 0.92105 0.7867 0.0
C376 C 0.9102 0.94171 0.7964 0.0
C377 C 0.90101 0.95641 0.77924 0.0
C378 C 0.90438 0.8414 0.70787 0.0
C379 C 0.91336 0.82635 0.68784 0.0
C380 C 0.88035 0.84247 0.71149 0.0
C381 C 0.86558 0.82918 0.69515 0.0
C382 C 0.87444 0.81445 0.67477 0.0
C383 C 0.89851 0.81299 0.67143 0.0
C384 C 0.90094 0.95012 0.75202 0.0
H385 H 0.02053 0.81863 0.75856 0.0
H386 H 0.98708 0.832 0.73468 0.0
H387 H 0.96378 0.86867 0.80638 0.0
H388 H 0.99712 0.85586 0.8297 0.0
H389 H 0.94422 0.83016 0.732 0.0
H390 H 0.95727 0.89401 0.77404 0.0
H391 H 0.89796 0.88498 0.72362 0.0
H392 H 0.90909 0.92472 0.72124 0.0
H393 H 0.92533 0.90996 0.80058 0.0
H394 H 0.91081 0.94621 0.81744 0.0
H395 H 0.9318 0.82522 0.68454 0.0
H396 H 0.87291 0.85347 0.72717 0.0
H397 H 0.8939 0.96111 0.73835 0.0
H398 H 0.90585 0.80187 0.6558 0.0
H399 H 0.84716 0.83032 0.69867 0.0
H400 H 0.17792 0.87671 0.16244 0.0
H401 H 0.16784 0.90284 0.20031 0.0
H402 H 0.10982 0.92608 0.15723 0.0
H403 H 0.11974 0.90025 0.11932 0.0
H404 H 0.16214 0.95242 0.1977 0.0
H405 H 0.08407 0.90927 0.23073 0.0
H406 H 0.10649 0.89501 0.21128 0.0
H407 H 0.08588 0.91198 0.19595 0.0
C408 C 0.16296 0.88732 0.16106 0.0
C409 C 0.14967 0.88646 0.13782 0.0
C410 C 0.15726 0.90221 0.1827 0.0
C411 C 0.138 0.91617 0.18156 0.0
C412 C 0.12462 0.91523 0.15853 0.0
H413 H 0.06589 0.02106 0.2682 0.0
H414 H 0.07941 0.98917 0.23956 0.0
C415 C 0.1304 0.90056 0.13685 0.0
C416 C 0.13222 0.93247 0.20393 0.0
H417 H 0.08994 0.94656 0.24874 0.0
C418 C 0.14656 0.95107 0.20919 0.0
C419 C 0.11183 0.93056 0.21867 0.0
C420 C 0.0962 0.91056 0.2141 0.0
C421 C 0.14045 0.96846 0.22803 0.0
C422 C 0.11972 0.96682 0.24242 0.0
C423 C 0.10581 0.94779 0.23772 0.0
C424 C 0.11129 0.98535 0.26099 0.0
C425 C 0.15561 0.98888 0.23135 0.0
C426 C 0.12449 0.99352 0.28291 0.0
C427 C 0.11683 0.01187 0.29929 0.0
C428 C 0.09566 0.02211 0.29424 0.0
C429 C 0.08214 0.01338 0.2728 0.0
C430 C 0.08989 0.9952 0.25635 0.0
H431 H 0.16773 0.98969 0.21462 0.0
H432 H 0.14504 0.00429 0.23311 0.0
H433 H 0.16604 0.98848 0.2496 0.0
H434 H 0.1408 0.98583 0.28723 0.0
H435 H 0.12746 0.01808 0.31587 0.0
H436 H 0.64052 0.71377 0.58876 0.0
H437 H 0.62748 0.71778 0.63475 0.0
H438 H 0.60673 0.64886 0.6282 0.0
H439 H 0.61944 0.64472 0.58248 0.0
H440 H 0.57954 0.70724 0.65085 0.0
H441 H 0.64667 0.65815 0.69747 0.0
H442 H 0.65127 0.6705 0.66688 0.0
H443 H 0.63522 0.64502 0.66714 0.0
C444 C 0.63337 0.69944 0.59722 0.0
C445 C 0.63089 0.67895 0.58196 0.0
C446 C 0.62595 0.70177 0.62344 0.0
C447 C 0.61642 0.68354 0.63485 0.0
C448 C 0.61435 0.66303 0.61981 0.0
H449 H 0.54185 0.63618 0.75706 0.0
H450 H 0.56769 0.64443 0.72168 0.0
C451 C 0.62146 0.66075 0.59363 0.0
C452 C 0.60702 0.68596 0.66187 0.0
H453 H 0.61094 0.66355 0.72078 0.0
C454 C 0.58662 0.69816 0.66645 0.0
C455 C 0.61639 0.67405 0.68201 0.0
C456 C 0.63872 0.66133 0.67829 0.0
C457 C 0.57433 0.6974 0.69005 0.0
C458 C 0.58306 0.68447 0.70972 0.0
C459 C 0.60426 0.67341 0.70568 0.0
C460 C 0.56911 0.67985 0.73293 0.0
C461 C 0.55134 0.70913 0.69293 0.0
C462 C 0.56173 0.69698 0.75146 0.0
C463 C 0.54683 0.69229 0.77183 0.0
C464 C 0.53934 0.67036 0.77416 0.0
C465 C 0.54755 0.6532 0.75613 0.0
C466 C 0.56226 0.6579 0.73579 0.0
H467 H 0.54521 0.71497 0.67405 0.0
H468 H 0.53801 0.69796 0.7002 0.0
H469 H 0.55302 0.72385 0.70748 0.0
H470 H 0.56718 0.71398 0.74992 0.0
H471 H 0.54099 0.70582 0.78559 0.0
H472 H 0.83273 0.10465 0.06029 0.0
H473 H 0.81347 0.07229 0.0758 0.0
H474 H 0.75744 0.07946 0.02134 0.0
H475 H 0.77661 0.11194 0.00547 0.0
H476 H 0.74644 0.07023 0.07918 0.0
H477 H 0.80726 0.01208 0.02411 0.0
H478 H 0.8202 0.03555 0.04295 0.0
H479 H 0.80208 0.04 0.01527 0.0
C480 C 0.81624 0.09951 0.05168 0.0
C481 C 0.80633 0.11076 0.03142 0.0
C482 C 0.80527 0.08102 0.06059 0.0
C483 C 0.78419 0.07349 0.04953 0.0
C484 C 0.77376 0.08508 0.03003 0.0
H485 H 0.74157 0.93882 0.07614 0.0
H486 H 0.74328 0.97373 0.05518 0.0
C487 C 0.78478 0.10356 0.02097 0.0
C488 C 0.7738 0.05282 0.05759 0.0
H489 H 0.78362 0.99706 0.05603 0.0
C490 C 0.7543 0.05415 0.07389 0.0
C491 C 0.78395 0.03192 0.05027 0.0
C492 C 0.80443 0.02963 0.03201 0.0
C493 C 0.74537 0.03508 0.08418 0.0
C494 C 0.75641 0.01435 0.07811 0.0
C495 C 0.77518 0.01296 0.0607 0.0
C496 C 0.75039 0.99424 0.09131 0.0
C497 C 0.72444 0.03734 0.10172 0.0
C498 C 0.75317 0.99431 0.11866 0.0
C499 C 0.75213 0.97444 0.13067 0.0
C500 C 0.74845 0.9541 0.11552 0.0
C501 C 0.74421 0.95424 0.08837 0.0
C502 C 0.74529 0.97415 0.07635 0.0
H503 H 0.7138 0.05193 0.09751 0.0
H504 H 0.71352 0.02215 0.09932 0.0
H505 H 0.73017 0.03985 0.12257 0.0
H506 H 0.75756 0.00953 0.13053 0.0
H507 H 0.75528 0.97484 0.15166 0.0
H508 H 0.41338 0.27875 0.58421 0.0
H509 H 0.45435 0.27253 0.5932 0.0
H510 H 0.4691 0.34101 0.58127 0.0
H511 H 0.42847 0.34715 0.57153 0.0
H512 H 0.49932 0.31345 0.55576 0.0
H513 H 0.49066 0.29198 0.65891 0.0
H514 H 0.47416 0.27455 0.6354 0.0
H515 H 0.4672 0.30361 0.64126 0.0
C516 C 0.42535 0.29249 0.58364 0.0
C517 C 0.41769 0.31343 0.57712 0.0
C518 C 0.44874 0.28895 0.58892 0.0
C519 C 0.46475 0.30638 0.58824 0.0
C520 C 0.45706 0.3273 0.58189 0.0
H521 H 0.59981 0.32568 0.6544 0.0
H522 H 0.55858 0.32311 0.64437 0.0
C523 C 0.43381 0.33079 0.57634 0.0
C524 C 0.48966 0.30297 0.59347 0.0
H525 H 0.52804 0.28936 0.64042 0.0
C526 C 0.50562 0.3081 0.57424 0.0
C527 C 0.49782 0.29615 0.61767 0.0
C528 C 0.48161 0.29144 0.63961 0.0
C529 C 0.5295 0.30712 0.57872 0.0
C530 C 0.53767 0.30011 0.60283 0.0
C531 C 0.52172 0.29452 0.62186 0.0
C532 C 0.56263 0.30021 0.60953 0.0
C533 C 0.54566 0.31455 0.55804 0.0
C534 C 0.57861 0.28781 0.59359 0.0
C535 C 0.60227 0.28943 0.59917 0.0
C536 C 0.61026 0.30312 0.62107 0.0
C537 C 0.59414 0.31482 0.63754 0.0
C538 C 0.57058 0.3134 0.6318 0.0
H539 H 0.53659 0.32457 0.54392 0.0
H540 H 0.5601 0.32463 0.5672 0.0
H541 H 0.55306 0.2997 0.5467 0.0
H542 H 0.57282 0.27709 0.57669 0.0
H543 H 0.61431 0.28003 0.58634 0.0
H544 H 0.67423 0.63261 0.40854 0.0
H545 H 0.66626 0.6074 0.36918 0.0
H546 H 0.62043 0.56918 0.41414 0.0
H547 H 0.62799 0.59429 0.45336 0.0
H548 H 0.67421 0.56212 0.36154 0.0
H549 H 0.58126 0.57987 0.34993 0.0
H550 H 0.60016 0.59784 0.37054 0.0
H551 H 0.58805 0.57324 0.38267 0.0
C552 C 0.66235 0.61891 0.41002 0.0
C553 C 0.65174 0.61548 0.43414 0.0
C554 C 0.65781 0.60456 0.3875 0.0
C555 C 0.64245 0.58668 0.38865 0.0
C556 C 0.63191 0.5832 0.41267 0.0
H557 H 0.62796 0.45872 0.31332 0.0
H558 H 0.64091 0.49346 0.33688 0.0
C559 C 0.63641 0.59749 0.43515 0.0
C560 C 0.63821 0.57083 0.36524 0.0
H561 H 0.59474 0.54471 0.32927 0.0
C562 C 0.6569 0.55858 0.35411 0.0
C563 C 0.6157 0.56657 0.35517 0.0
C564 C 0.59519 0.58025 0.36501 0.0
C565 C 0.65342 0.54107 0.33446 0.0
C566 C 0.63065 0.5355 0.32611 0.0
C567 C 0.61218 0.54881 0.33589 0.0
C568 C 0.62526 0.51463 0.30966 0.0
C569 C 0.67412 0.52838 0.32328 0.0
C570 C 0.61205 0.51494 0.28653 0.0
C571 C 0.60438 0.49501 0.27314 0.0
C572 C 0.60957 0.47451 0.28289 0.0
C573 C 0.62352 0.47427 0.30548 0.0
C574 C 0.63118 0.49412 0.31878 0.0
H575 H 0.68978 0.53909 0.3242 0.0
H576 H 0.67762 0.5142 0.33514 0.0
H577 H 0.67112 0.52176 0.30253 0.0
H578 H 0.60712 0.53061 0.27931 0.0
H579 H 0.59351 0.49569 0.2559 0.0
H580 H 0.917 0.21772 0.01194 0.0
H581 H 0.95786 0.22436 0.00357 0.0
H582 H 0.96443 0.1575 0.96678 0.0
H583 H 0.92357 0.15074 0.97471 0.0
H584 H 0.99474 0.20152 0.02268 0.0
H585 H 0.99524 0.19466 0.9136 0.0
H586 H 0.969 0.19836 0.93252 0.0
H587 H 0.98192 0.17126 0.9269 0.0
C588 C 0.92705 0.20448 0.0018 0.0
C589 C 0.91699 0.18367 0.99404 0.0
C590 C 0.9504 0.20833 0.99706 0.0
C591 C 0.96409 0.19152 0.9843 0.0
C592 C 0.95406 0.17085 0.9762 0.0
H593 H 0.10915 0.16671 0.98923 0.0
H594 H 0.0676 0.1696 0.99656 0.0
C595 C 0.93072 0.16697 0.98091 0.0
C596 C 0.98917 0.19507 0.9809 0.0
H597 H 0.03198 0.19239 0.93492 0.0
C598 C 0.00287 0.19978 0.00347 0.0
C599 C 0.99968 0.1931 0.95581 0.0
C600 C 0.98568 0.18929 0.9308 0.0
C601 C 0.02696 0.20167 0.0017 0.0
C602 C 0.03758 0.19844 0.97674 0.0
C603 C 0.0238 0.19465 0.95407 0.0
C604 C 0.063 0.19786 0.97376 0.0
C605 C 0.04082 0.20701 0.02658 0.0
C606 C 0.07418 0.21268 0.9583 0.0
C607 C 0.09799 0.21109 0.95409 0.0
C608 C 0.11101 0.19455 0.96513 0.0
C609 C 0.09975 0.17993 0.98089 0.0
C610 C 0.07598 0.18154 0.98509 0.0
H611 H 0.03006 0.21536 0.04254 0.0
H612 H 0.0475 0.19131 0.03352 0.0
H613 H 0.05577 0.21788 0.02306 0.0
H614 H 0.06443 0.22534 0.94931 0.0
H615 H 0.10618 0.22271 0.94203 0.0
H616 H 0.33175 0.40334 0.52901 0.0
H617 H 0.3093 0.43399 0.51414 0.0
H618 H 0.24639 0.40325 0.53784 0.0
H619 H 0.26878 0.37215 0.55267 0.0
H620 H 0.24367 0.42123 0.48794 0.0
H621 H 0.27905 0.48207 0.5653 0.0
H622 H 0.30142 0.46674 0.54746 0.0
H623 H 0.28138 0.45237 0.5669 0.0
C624 C 0.31314 0.40298 0.53104 0.0
C625 C 0.3021 0.38541 0.54236 0.0
C626 C 0.30035 0.42058 0.52262 0.0
C627 C 0.27627 0.4211 0.52547 0.0
C628 C 0.26501 0.40322 0.53574 0.0
H629 H 0.22652 0.55289 0.49647 0.0
H630 H 0.22537 0.51749 0.51639 0.0
C631 C 0.27783 0.38549 0.54419 0.0
C632 C 0.26325 0.44061 0.51782 0.0
H633 H 0.26336 0.4972 0.52692 0.0
C634 C 0.24755 0.43785 0.49675 0.0
C635 C 0.26781 0.46219 0.52985 0.0
C636 C 0.28314 0.46603 0.55382 0.0
C637 C 0.23778 0.45635 0.486 0.0
C638 C 0.2443 0.47804 0.4963 0.0
C639 C 0.25849 0.48063 0.51876 0.0
C640 C 0.2394 0.49809 0.48236 0.0
C641 C 0.22104 0.45244 0.46333 0.0
C642 C 0.24684 0.49885 0.4563 0.0
C643 C 0.24723 0.51896 0.4448 0.0
C644 C 0.2406 0.53884 0.45928 0.0
C645 C 0.23163 0.53785 0.48474 0.0
C646 C 0.23107 0.51764 0.49619 0.0
H647 H 0.21088 0.437 0.465 0.0
H648 H 0.20893 0.4666 0.46237 0.0
H649 H 0.23083 0.45021 0.44462 0.0
H650 H 0.25385 0.48419 0.44536 0.0
H651 H 0.25392 0.51914 0.425 0.0
H652 H 0.11915 0.85163 0.99017 0.0
H653 H 0.10595 0.84549 0.94466 0.0
H654 H 0.132 0.77834 0.94002 0.0
H655 H 0.14549 0.78435 0.9859 0.0
H656 H 0.13403 0.82789 0.89579 0.0
H657 H 0.05908 0.77628 0.92239 0.0
H658 H 0.07283 0.79548 0.9468 0.0
H659 H 0.08763 0.77068 0.9344 0.0
C660 C 0.12221 0.83555 0.97952 0.0
C661 C 0.13316 0.8184 0.99175 0.0
C662 C 0.11476 0.83213 0.95346 0.0
C663 C 0.11794 0.81147 0.93912 0.0
C664 C 0.12937 0.79439 0.95089 0.0
H665 H 0.02932 0.79465 0.79845 0.0
H666 H 0.06028 0.78374 0.82787 0.0
C667 C 0.13706 0.79787 0.97704 0.0
C668 C 0.10795 0.80792 0.91237 0.0
H669 H 0.05805 0.7907 0.88121 0.0
C670 C 0.11771 0.81926 0.89228 0.0
C671 C 0.08684 0.79645 0.90782 0.0
C672 C 0.07581 0.78399 0.92889 0.0
C673 C 0.10605 0.82073 0.86833 0.0
C674 C 0.08384 0.81111 0.86477 0.0
C675 C 0.07503 0.79815 0.88399 0.0
C676 C 0.06792 0.81741 0.84383 0.0
C677 C 0.11721 0.83339 0.84754 0.0
C678 C 0.06213 0.8399 0.84288 0.0
C679 C 0.04458 0.84609 0.82629 0.0
C680 C 0.03226 0.82991 0.81039 0.0
C681 C 0.03866 0.80744 0.81041 0.0
C682 C 0.05627 0.80121 0.82721 0.0
H683 H 0.13632 0.83186 0.84828 0.0
H684 H 0.11111 0.82737 0.82748 0.0
H685 H 0.1129 0.85131 0.85126 0.0
H686 H 0.07042 0.85267 0.85596 0.0
H687 H 0.04009 0.86353 0.82652 0.0
H688 H 0.87547 0.10106 0.95442 0.0
H689 H 0.88311 0.07648 0.91496 0.0
H690 H 0.83651 0.11455 0.87048 0.0
H691 H 0.82844 0.13929 0.9102 0.0
H692 H 0.82851 0.06938 0.86294 0.0
H693 H 0.9213 0.0865 0.85034 0.0
H694 H 0.91521 0.0803 0.88336 0.0
H695 H 0.90283 0.10472 0.87098 0.0
C696 C 0.86693 0.10439 0.93625 0.0
C697 C 0.85128 0.12214 0.93553 0.0
C698 C 0.8715 0.09041 0.91362 0.0
C699 C 0.86071 0.09394 0.88967 0.0
C700 C 0.84517 0.11169 0.88873 0.0
H701 H 0.90798 0.99751 0.76156 0.0
H702 H 0.8953 0.03364 0.78259 0.0
C703 C 0.84058 0.12578 0.91144 0.0
C704 C 0.8646 0.07795 0.86635 0.0
H705 H 0.90771 0.05039 0.8317 0.0
C706 C 0.84576 0.06554 0.85566 0.0
C707 C 0.88702 0.07326 0.85643 0.0
C708 C 0.90769 0.08709 0.86569 0.0
C709 C 0.84902 0.04737 0.83686 0.0
C710 C 0.87171 0.04129 0.82898 0.0
C711 C 0.89032 0.05484 0.83802 0.0
C712 C 0.87686 0.01965 0.81408 0.0
C713 C 0.82816 0.03448 0.82624 0.0
C714 C 0.87058 -0.00014 0.8247 0.0
C715 C 0.87773 0.97933 0.81277 0.0
C716 C 0.89152 0.97815 0.79007 0.0
C717 C 0.89722 0.99792 0.77892 0.0
C718 C 0.89006 0.01854 0.79095 0.0
H719 H 0.81268 0.04535 0.82623 0.0
H720 H 0.83112 0.02685 0.8059 0.0
H721 H 0.82437 0.02102 0.83907 0.0
H722 H 0.86087 0.00029 0.84286 0.0
H723 H 0.87286 0.96437 0.82166 0.0
H724 H 0.36789 0.28214 0.48358 0.0
H725 H 0.38046 0.27737 0.43762 0.0
H726 H 0.37626 0.3483 0.43317 0.0
H727 H 0.36316 0.35319 0.47867 0.0
H728 H 0.36073 0.32427 0.38758 0.0
H729 H 0.44625 0.29345 0.41917 0.0
H730 H 0.4215 0.27776 0.42786 0.0
H731 H 0.42552 0.30575 0.44239 0.0
C732 C 0.36941 0.2967 0.47272 0.0
C733 C 0.36488 0.31809 0.48495 0.0
C734 C 0.37666 0.29394 0.44649 0.0
C735 C 0.37975 0.31252 0.43218 0.0
C736 C 0.37408 0.33373 0.4439 0.0
H737 H 0.44934 0.36711 0.31246 0.0
H738 H 0.42072 0.3557 0.34364 0.0
C739 C 0.36667 0.3365 0.46999 0.0
C740 C 0.39045 0.31043 0.40572 0.0
H741 H 0.44202 0.29987 0.37494 0.0
C742 C 0.37838 0.31858 0.38467 0.0
C743 C 0.41345 0.3029 0.40193 0.0
C744 C 0.42757 0.29461 0.42401 0.0
C745 C 0.38909 0.32043 0.36031 0.0
C746 C 0.41247 0.31413 0.35707 0.0
C747 C 0.42404 0.30461 0.3775 0.0
C748 C 0.42637 0.32039 0.33456 0.0
C749 C 0.37553 0.32978 0.33854 0.0
C750 C 0.4389 0.3043 0.31889 0.0
C751 C 0.45531 0.31083 0.30099 0.0
C752 C 0.45964 0.33352 0.29896 0.0
C753 C 0.4463 0.34951 0.31374 0.0
C754 C 0.42981 0.343 0.33136 0.0
H755 H 0.35673 0.32664 0.34054 0.0
H756 H 0.37815 0.34806 0.33964 0.0
H757 H 0.3813 0.32251 0.31888 0.0
H758 H 0.43667 0.28678 0.32132 0.0
H759 H 0.46555 0.29823 0.28994 0.0
H760 H 0.16923 0.88861 0.0043 0.0
H761 H 0.18571 0.9201 0.98381 0.0
H762 H 0.23378 0.93154 0.04843 0.0
H763 H 0.21779 0.89983 0.06879 0.0
H764 H 0.18482 0.96256 0.00562 0.0
H765 H 0.27558 0.93732 0.98594 0.0
H766 H 0.25345 0.91775 0.99342 0.0
H767 H 0.26712 0.93521 0.01944 0.0
C768 C 0.18354 0.89762 0.01398 0.0
C769 C 0.19211 0.89178 0.03827 0.0
C770 C 0.19296 0.91558 0.00221 0.0
C771 C 0.21115 0.928 0.01443 0.0
C772 C 0.22013 0.92188 0.03833 0.0
H773 H 0.2658 0.05933 0.00016 0.0
H774 H 0.25846 0.02155 0.01232 0.0
C775 C 0.21082 0.90383 0.05005 0.0
C776 C 0.21909 0.94865 0.00356 0.0
H777 H 0.26679 0.97591 0.9836 0.0
C778 C 0.2027 0.96535 0.00051 0.0
C779 C 0.24245 0.95231 0.99709 0.0
C780 C 0.26063 0.93461 0.99889 0.0
C781 C 0.20909 0.9858 0.9917 0.0
C782 C 0.23245 0.98956 0.98551 0.0
C783 C 0.24889 0.97288 0.98838 0.0
C784 C 0.23991 0.011 0.97648 0.0
C785 C 0.19089 0.00349 0.98967 0.0
C786 C 0.23253 0.01719 0.95198 0.0
C787 C 0.23656 0.03871 0.94505 0.0
C788 C 0.24808 0.05441 0.96252 0.0
C789 C 0.25663 0.0477 0.98644 0.0
C790 C 0.2526 0.02612 0.99334 0.0
H791 H 0.17465 -0.0005 -0.00019 0.0
H792 H 0.1973 0.01992 0.99827 0.0
H793 H 0.1868 0.00494 0.96861 0.0
H794 H 0.22279 0.00564 0.9387 0.0
H795 H 0.22952 0.04336 0.92662 0.0
H796 H 0.58419 0.71424 0.50024 0.0
H797 H 0.54346 0.71976 0.48946 0.0
H798 H 0.53916 0.65195 0.45508 0.0
H799 H 0.57979 0.64632 0.46537 0.0
H800 H 0.51681 0.68292 0.4253 0.0
H801 H 0.49115 0.69248 0.53082 0.0
H802 H 0.51314 0.71114 0.52117 0.0
H803 H 0.51905 0.68188 0.52022 0.0
C804 C 0.57463 0.70055 0.4902 0.0
C805 C 0.5852 0.67975 0.48396 0.0
C806 C 0.55134 0.70372 0.48416 0.0
C807 C 0.53824 0.68616 0.47186 0.0
C808 C 0.54896 0.66569 0.46468 0.0
H809 H 0.3981 0.6477 0.46745 0.0
H810 H 0.43909 0.65514 0.47531 0.0
C811 C 0.57219 0.66249 0.47067 0.0
C812 C 0.51313 0.68855 0.46733 0.0
H813 H 0.46147 0.69331 0.4994 0.0
C814 C 0.50468 0.68549 0.44143 0.0
C815 C 0.49741 0.69171 0.48851 0.0
C816 C 0.50552 0.69434 0.51679 0.0
C817 C 0.48085 0.68484 0.43616 0.0
C818 C 0.46515 0.68761 0.45738 0.0
C819 C 0.47361 0.69136 0.48321 0.0
C820 C 0.44 0.68424 0.45343 0.0
C821 C 0.47268 0.6801 0.40809 0.0
C822 C 0.42682 0.6984 0.4389 0.0
C823 C 0.40333 0.6941 0.43422 0.0
C824 C 0.39271 0.67555 0.444 0.0
C825 C 0.40587 0.66187 0.45923 0.0
C826 C 0.42925 0.66619 0.46391 0.0
H827 H 0.487 0.67466 0.39457 0.0
H828 H 0.45914 0.66699 0.40674 0.0
H829 H 0.465 0.69541 0.40123 0.0
H830 H 0.43476 0.71261 0.43096 0.0
H831 H 0.39364 0.70491 0.42238 0.0
H832 H 0.32471 0.3904 0.64382 0.0
H833 H 0.33565 0.41942 0.67816 0.0
H834 H 0.40735 0.41027 0.65733 0.0
H835 H 0.39659 0.38152 0.6226 0.0
H836 H 0.36465 0.41942 0.7218 0.0
H837 H 0.39699 0.47643 0.65047 0.0
H838 H 0.38017 0.45192 0.64047 0.0
H839 H 0.41042 0.44951 0.64774 0.0
C840 C 0.34282 0.39449 0.64657 0.0
C841 C 0.35974 0.38385 0.6302 0.0
C842 C 0.34904 0.41105 0.66625 0.0
C843 C 0.37225 0.41726 0.66996 0.0
C844 C 0.38928 0.40606 0.65439 0.0
H845 H 0.4268 0.50522 0.80144 0.0
H846 H 0.41693 0.47265 0.77137 0.0
C847 C 0.38309 0.38958 0.63461 0.0
C848 C 0.37852 0.43591 0.68958 0.0
H849 H 0.40268 0.48772 0.69561 0.0
C850 C 0.37298 0.43436 0.71614 0.0
C851 C 0.38911 0.45548 0.68202 0.0
C852 C 0.39435 0.45861 0.65361 0.0
C853 C 0.37785 0.45188 0.7354 0.0
C854 C 0.38887 0.47126 0.7279 0.0
C855 C 0.39437 0.47277 0.70134 0.0
C856 C 0.39416 0.49059 0.74699 0.0
C857 C 0.37061 0.44974 0.76345 0.0
C858 C 0.38494 0.51152 0.74303 0.0
C859 C 0.39083 0.53019 0.75986 0.0
C860 C 0.40609 0.52834 0.7811 0.0
C861 C 0.41512 0.50727 0.78521 0.0
C862 C 0.40927 0.48858 0.76823 0.0
H863 H 0.35736 0.43654 0.7647 0.0
H864 H 0.38588 0.44527 0.77508 0.0
H865 H 0.36358 0.4657 0.77262 0.0
H866 H 0.37337 0.51348 0.72664 0.0
H867 H 0.38391 0.54618 0.75574 0.0
H868 H 0.08681 0.78402 0.07269 0.0
H869 H 0.04654 0.77715 0.08419 0.0
H870 H 0.04088 0.84452 0.11965 0.0
H871 H 0.08103 0.85152 0.10855 0.0
H872 H 0.02076 0.81156 0.14959 0.0
H873 H 0.99201 0.80422 0.04479 0.0
H874 H 0.01518 0.7863 0.05325 0.0
H875 H 0.0197 0.81582 0.055 0.0
C876 C 0.07705 0.79734 0.0831 0.0
C877 C 0.08707 0.81841 0.08943 0.0
C878 C 0.05403 0.79339 0.08957 0.0
C879 C 0.04071 0.81042 0.10244 0.0
C880 C 0.05089 0.83118 0.10963 0.0
H881 H 0.90116 0.84779 0.11379 0.0
H882 H 0.94194 0.84069 0.1045 0.0
C883 C 0.07383 0.83516 0.10316 0.0
C884 C 0.01585 0.8072 0.1076 0.0
H885 H 0.96332 0.80259 0.07697 0.0
C886 C 0.00817 0.80925 0.13377 0.0
C887 C 0.99956 0.80435 0.08684 0.0
C888 C 0.00688 0.80268 0.05835 0.0
C889 C 0.98452 0.80928 0.13974 0.0
C890 C 0.96822 0.807 0.11895 0.0
C891 C 0.97593 0.80417 0.09282 0.0
C892 C 0.94322 0.81019 0.12376 0.0
C893 C 0.97708 0.81292 0.16812 0.0
C894 C 0.93035 0.79517 0.13733 0.0
C895 C 0.90696 0.79924 0.14278 0.0
C896 C 0.8962 0.81844 0.1348 0.0
C897 C 0.90907 0.83307 0.1206 0.0
C898 C 0.93231 0.82896 0.11511 0.0
H899 H 0.9918 0.81753 0.18156 0.0
H900 H 0.96384 0.82625 0.17056 0.0
H901 H 0.96922 0.7974 0.17417 0.0
H902 H 0.93844 0.78045 0.1439 0.0
H903 H 0.89747 0.78769 0.15377 0.0
H904 H 0.7158 0.59923 0.50243 0.0
H905 H 0.73075 0.56629 0.52157 0.0
H906 H 0.68611 0.57974 0.58861 0.0
H907 H 0.67066 0.61232 0.56939 0.0
H908 H 0.7522 0.55883 0.5689 0.0
H909 H 0.66654 0.51748 0.55994 0.0
H910 H 0.67298 0.54246 0.5444 0.0
H911 H 0.66592 0.54402 0.57885 0.0
C912 C 0.70931 0.59529 0.52136 0.0
C913 C 0.69176 0.60817 0.53419 0.0
C914 C 0.71789 0.57648 0.53227 0.0
C915 C 0.70915 0.57031 0.55619 0.0
C916 C 0.69265 0.58389 0.56978 0.0
H917 H 0.72523 0.45737 0.647 0.0
H918 H 0.71938 0.49456 0.63278 0.0
C919 C 0.6839 0.60255 0.55881 0.0
C920 C 0.7164 0.54913 0.56632 0.0
H921 H 0.69545 0.49948 0.58322 0.0
C922 C 0.73984 0.54581 0.57198 0.0
C923 C 0.70023 0.53209 0.57005 0.0
C924 C 0.67506 0.53403 0.56276 0.0
C925 C 0.74744 0.52605 0.58188 0.0
C926 C 0.73118 0.50928 0.58605 0.0
C927 C 0.70781 0.51254 0.58022 0.0
C928 C 0.73783 0.48797 0.59613 0.0
C929 C 0.77268 0.52332 0.58821 0.0
C930 C 0.75045 0.47209 0.58035 0.0
C931 C 0.75385 0.45077 0.58842 0.0
C932 C 0.74466 0.44504 0.61241 0.0
C933 C 0.73283 0.46133 0.62861 0.0
C934 C 0.72935 0.48256 0.62047 0.0
H935 H 0.78228 0.53929 0.58844 0.0
H936 H 0.77478 0.51657 0.60764 0.0
H937 H 0.78055 0.51127 0.57311 0.0
H938 H 0.75685 0.47589 0.56132 0.0
H939 H 0.76313 0.4386 0.5756 0.0
H940 H 0.87884 0.14326 0.08667 0.0
H941 H 0.89135 0.14529 0.13254 0.0
H942 H 0.87139 0.21433 0.143 0.0
H943 H 0.85862 0.21246 0.09685 0.0
H944 H 0.91849 0.20371 0.15874 0.0
H945 H 0.85281 0.15097 0.20178 0.0
H946 H 0.86448 0.13897 0.17114 0.0
H947 H 0.8479 0.16419 0.1718 0.0
C948 C 0.87689 0.15885 0.09873 0.0
C949 C 0.86784 0.17774 0.08809 0.0
C950 C 0.88388 0.15992 0.12501 0.0
C951 C 0.88203 0.17987 0.14118 0.0
C952 C 0.87274 0.19873 0.13082 0.0
H953 H 0.95706 0.19766 0.29312 0.0
H954 H 0.93077 0.20644 0.25762 0.0
C955 C 0.86547 0.19762 0.10451 0.0
C956 C 0.89163 0.18114 0.16819 0.0
H957 H 0.88877 0.15579 0.22524 0.0
C958 C 0.91176 0.19368 0.1736 0.0
C959 C 0.88274 0.168 0.18739 0.0
C960 C 0.86066 0.15491 0.18289 0.0
C961 C 0.92424 0.19213 0.19704 0.0
C962 C 0.91599 0.17803 0.2157 0.0
C963 C 0.89508 0.16655 0.2109 0.0
C964 C 0.93013 0.17288 0.23867 0.0
C965 C 0.94692 0.20439 0.20077 0.0
C966 C 0.93777 0.151 0.2403 0.0
C967 C 0.95258 0.14593 0.26053 0.0
C968 C 0.96007 0.16266 0.27965 0.0
C969 C 0.95181 0.18448 0.27849 0.0
C970 C 0.93684 0.18953 0.25823 0.0
H971 H 0.95279 0.21123 0.1824 0.0
H972 H 0.9449 0.21848 0.21612 0.0
H973 H 0.96058 0.19323 0.20741 0.0
H974 H 0.93286 0.13791 0.22538 0.0
H975 H 0.95887 0.12904 0.26058 0.0
H976 H 0.14841 0.76892 0.12982 0.0
H977 H 0.15408 0.75011 0.16992 0.0
H978 H 0.2072 0.79747 0.19545 0.0
H979 H 0.20209 0.81598 0.15522 0.0
H980 H 0.22109 0.75564 0.19917 0.0
H981 H 0.13484 0.76781 0.2451 0.0
H982 H 0.13369 0.75481 0.21206 0.0
H983 H 0.14414 0.7829 0.218 0.0
C984 C 0.16119 0.77541 0.14406 0.0
C985 C 0.17491 0.79386 0.13927 0.0
C986 C 0.16427 0.76475 0.16707 0.0
C987 C 0.18083 0.77258 0.18585 0.0
C988 C 0.19428 0.79118 0.18125 0.0
H989 H 0.20246 0.73183 0.34343 0.0
H990 H 0.19136 0.75161 0.30543 0.0
C991 C 0.19138 0.8017 0.1582 0.0
C992 C 0.18531 0.76064 0.20949 0.0
H993 H 0.16013 0.74236 0.26409 0.0
C994 C 0.20777 0.75283 0.21342 0.0
C995 C 0.16798 0.75722 0.22822 0.0
C996 C 0.14387 0.76631 0.22583 0.0
C997 C 0.21335 0.74148 0.23537 0.0
C998 C 0.19583 0.73728 0.25354 0.0
C999 C 0.17343 0.74537 0.24991 0.0
C1000 C 0.20065 0.72467 0.27654 0.0
C1001 C 0.23809 0.73447 0.23911 0.0
C1002 C 0.20891 0.70279 0.27286 0.0
C1003 C 0.2156 0.69159 0.29442 0.0
C1004 C 0.21383 0.70195 0.32018 0.0
C1005 C 0.20445 0.72352 0.32385 0.0
C1006 C 0.19791 0.73477 0.3022 0.0
H1007 H 0.25025 0.74421 0.22784 0.0
H1008 H 0.24314 0.73651 0.26022 0.0
H1009 H 0.24001 0.71666 0.23193 0.0
H1010 H 0.21074 0.69455 0.25322 0.0
H1011 H 0.22295 0.67512 0.29075 0.0
H1012 H 0.74064 0.67511 0.53694 0.0
H1013 H 0.77168 0.69394 0.56295 0.0
H1014 H 0.7329 0.75514 0.56757 0.0
H1015 H 0.70169 0.7365 0.5419 0.0
H1016 H 0.79791 0.73149 0.5521 0.0
H1017 H 0.74831 0.74719 0.64473 0.0
H1018 H 0.73886 0.72765 0.61795 0.0
H1019 H 0.73416 0.75699 0.6166 0.0
C1020 C 0.73867 0.69257 0.54352 0.0
C1021 C 0.71862 0.70428 0.5374 0.0
C1022 C 0.75644 0.70329 0.55836 0.0
C1023 C 0.75441 0.72582 0.56747 0.0
C1024 C 0.73459 0.73762 0.56113 0.0
H1025 H 0.83417 0.82776 0.6531 0.0
H1026 H 0.8064 0.805 0.62648 0.0
C1027 C 0.71683 0.72695 0.54633 0.0
C1028 C 0.77312 0.73718 0.58334 0.0
H1029 H 0.78406 0.76647 0.64244 0.0
C1030 C 0.795 0.73896 0.57195 0.0
C1031 C 0.76924 0.7468 0.60926 0.0
C1032 C 0.74644 0.74441 0.62299 0.0
C1033 C 0.8129 0.7509 0.58548 0.0
C1034 C 0.8088 0.76102 0.61111 0.0
C1035 C 0.78708 0.75878 0.6227 0.0
C1036 C 0.82646 0.77474 0.62602 0.0
C1037 C 0.83579 0.75326 0.57195 0.0
C1038 C 0.847 0.76525 0.63448 0.0
C1039 C 0.86291 0.77822 0.64985 0.0
C1040 C 0.85841 0.80084 0.65713 0.0
C1041 C 0.83798 0.81031 0.64818 0.0
C1042 C 0.82214 0.79737 0.63287 0.0
H1043 H 0.83466 0.74831 0.55047 0.0
H1044 H 0.84212 0.77068 0.57496 0.0
H1045 H 0.84873 0.74243 0.58057 0.0
H1046 H 0.85045 0.74771 0.62973 0.0
H1047 H 0.87836 0.77039 0.65668 0.0
H1048 H 0.80185 0.2353 0.05688 0.0
H1049 H 0.76949 0.25339 0.08077 0.0
H1050 H 0.72417 0.2004 0.05017 0.0
H1051 H 0.75657 0.18185 0.02682 0.0
H1052 H 0.73012 0.26936 0.06215 0.0
H1053 H 0.7098 0.20346 0.12764 0.0
H1054 H 0.73597 0.20334 0.10855 0.0
H1055 H 0.70926 0.19371 0.09337 0.0
C1056 C 0.78502 0.22743 0.05533 0.0
C1057 C 0.7818 0.20711 0.04 0.0
C1058 C 0.76654 0.23779 0.069 0.0
C1059 C 0.74448 0.22809 0.06757 0.0
C1060 C 0.74115 0.20791 0.05209 0.0
H1061 H 0.61918 0.30277 0.11168 0.0
H1062 H 0.64948 0.28147 0.08732 0.0
C1063 C 0.75967 0.1974 0.03862 0.0
C1064 C 0.72488 0.23953 0.08162 0.0
H1065 H 0.68278 0.23308 0.12703 0.0
C1066 C 0.71979 0.26145 0.07639 0.0
C1067 C 0.7116 0.22926 0.10041 0.0
C1068 C 0.71704 0.20623 0.10805 0.0
C1069 C 0.70177 0.2734 0.08937 0.0
C1070 C 0.68802 0.26289 0.10753 0.0
C1071 C 0.69316 0.241 0.11285 0.0
C1072 C 0.66889 0.27467 0.12209 0.0
C1073 C 0.6981 0.29735 0.08402 0.0
C1074 C 0.66923 0.27712 0.14971 0.0
C1075 C 0.6518 0.28897 0.16363 0.0
C1076 C 0.63373 0.29865 0.15016 0.0
C1077 C 0.63309 0.29573 0.12252 0.0
C1078 C 0.65042 0.28366 0.10861 0.0
H1079 H 0.71372 0.30454 0.07543 0.0
H1080 H 0.68373 0.29827 0.0697 0.0
H1081 H 0.69351 0.30776 0.10232 0.0
H1082 H 0.68328 0.27027 0.16051 0.0
H1083 H 0.65285 0.29112 0.18492 0.0
H1084 H 0.33907 0.25655 0.61682 0.0
H1085 H 0.33494 0.23682 0.65652 0.0
H1086 H 0.32692 0.29944 0.70333 0.0
H1087 H 0.3312 0.31931 0.66402 0.0
H1088 H 0.3558 0.26703 0.72661 0.0
H1089 H 0.27015 0.234 0.69144 0.0
H1090 H 0.29422 0.22855 0.66962 0.0
H1091 H 0.2843 0.25658 0.67695 0.0
C1092 C 0.33667 0.26613 0.6356 0.0
C1093 C 0.33511 0.28949 0.63719 0.0
C1094 C 0.3343 0.25483 0.65822 0.0
C1095 C 0.33037 0.26671 0.68271 0.0
C1096 C 0.32991 0.29001 0.68455 0.0
H1097 H 0.26116 0.24125 0.82254 0.0
H1098 H 0.27753 0.25488 0.78294 0.0
C1099 C 0.33222 0.30131 0.66202 0.0
C1100 C 0.32498 0.25506 0.70622 0.0
H1101 H 0.28222 0.22577 0.73344 0.0
C1102 C 0.33989 0.25773 0.72806 0.0
C1103 C 0.30407 0.24318 0.70801 0.0
C1104 C 0.28711 0.24045 0.68538 0.0
C1105 C 0.33414 0.24917 0.75192 0.0
C1106 C 0.31303 0.2377 0.75379 0.0
C1107 C 0.29844 0.23454 0.73178 0.0
C1108 C 0.30475 0.23031 0.77893 0.0
C1109 C 0.35011 0.25319 0.77529 0.0
C1110 C 0.31489 0.21214 0.78988 0.0
C1111 C 0.30546 0.20418 0.81246 0.0
C1112 C 0.28571 0.21425 0.82428 0.0
C1113 C 0.27613 0.2329 0.81365 0.0
C1114 C 0.28551 0.24079 0.79113 0.0
H1115 H 0.36461 0.2645 0.7714 0.0
H1116 H 0.34038 0.26047 0.7927 0.0
H1117 H 0.35742 0.23709 0.78029 0.0
H1118 H 0.32961 0.20372 0.78051 0.0
H1119 H 0.31308 0.18965 0.82006 0.0
H1120 H 0.70535 0.69242 0.4249 0.0
H1121 H 0.70829 0.70943 0.38341 0.0
H1122 H 0.64302 0.7424 0.39854 0.0
H1123 H 0.63993 0.72557 0.44037 0.0
H1124 H 0.67616 0.70565 0.34017 0.0
H1125 H 0.68813 0.79307 0.38322 0.0
H1126 H 0.6921 0.76955 0.4023 0.0
H1127 H 0.66352 0.77834 0.3943 0.0
C1128 C 0.69165 0.70339 0.41956 0.0
C1129 C 0.67249 0.70778 0.43609 0.0
C1130 C 0.69333 0.71302 0.39577 0.0
C1131 C 0.67597 0.72729 0.38807 0.0
C1132 C 0.65674 0.73166 0.40436 0.0
H1133 H 0.68131 0.80617 0.25199 0.0
H1134 H 0.66628 0.78782 0.28937 0.0
C1135 C 0.65501 0.722 0.42821 0.0
C1136 C 0.67821 0.73745 0.36287 0.0
H1137 H 0.68864 0.78673 0.33709 0.0
C1138 C 0.6787 0.7234 0.33942 0.0
C1139 C 0.68133 0.76061 0.36203 0.0
C1140 C 0.68142 0.77634 0.38676 0.0
C1141 C 0.68277 0.73187 0.31512 0.0
C1142 C 0.68687 0.75491 0.3144 0.0
C1143 C 0.68548 0.76906 0.33773 0.0
C1144 C 0.69455 0.76446 0.29014 0.0
C1145 C 0.68279 0.71604 0.29048 0.0
C1146 C 0.71534 0.75733 0.27816 0.0
C1147 C 0.724 0.7678 0.25695 0.0
C1148 C 0.71211 0.78575 0.2474 0.0
C1149 C 0.69097 0.79252 0.25904 0.0
C1150 C 0.68231 0.78201 0.2803 0.0
H1151 H 0.67226 0.70098 0.29299 0.0
H1152 H 0.67603 0.72417 0.27333 0.0
H1153 H 0.70076 0.71054 0.28608 0.0
H1154 H 0.72537 0.74421 0.28588 0.0
H1155 H 0.74055 0.76246 0.24882 0.0
H1156 H 0.8687 0.22536 0.94518 0.0
H1157 H 0.86707 0.24511 0.90511 0.0
H1158 H 0.79429 0.23076 0.89755 0.0
H1159 H 0.79571 0.21089 0.93718 0.0
H1160 H 0.84712 0.22349 0.852 0.0
H1161 H 0.80445 0.30127 0.89361 0.0
H1162 H 0.82156 0.28396 0.91339 0.0
H1163 H 0.79276 0.27572 0.90369 0.0
C1164 C 0.85231 0.2266 0.9351 0.0
C1165 C 0.83232 0.2166 0.94435 0.0
C1166 C 0.85145 0.23781 0.91223 0.0
C1167 C 0.83053 0.23945 0.89863 0.0
C1168 C 0.81053 0.22978 0.90799 0.0
H1169 H 0.77327 0.25783 0.75177 0.0
H1170 H 0.79116 0.24459 0.791 0.0
C1171 C 0.81141 0.21838 0.93058 0.0
C1172 C 0.82939 0.25044 0.87395 0.0
H1173 H 0.80372 0.29389 0.84689 0.0
C1174 C 0.83805 0.23911 0.85086 0.0
C1175 C 0.81771 0.27084 0.8727 0.0
C1176 C 0.8087 0.28383 0.89717 0.0
C1177 C 0.83405 0.24706 0.82621 0.0
C1178 C 0.82102 0.26672 0.8248 0.0
C1179 C 0.81366 0.27877 0.84807 0.0
C1180 C 0.81262 0.27376 0.79944 0.0
C1181 C 0.84314 0.23404 0.80181 0.0
C1182 C 0.81884 0.29452 0.79122 0.0
C1183 C 0.80867 0.30209 0.76874 0.0
C1184 C 0.79184 0.28916 0.75453 0.0
C1185 C 0.78612 0.26815 0.76247 0.0
C1186 C 0.79645 0.26051 0.78471 0.0
H1187 H 0.85787 0.22325 0.80644 0.0
H1188 H 0.82918 0.22319 0.79287 0.0
H1189 H 0.84876 0.24534 0.78702 0.0
H1190 H 0.83113 0.30505 0.80253 0.0
H1191 H 0.81321 0.31843 0.76314 0.0
H1192 H 0.25809 0.30513 0.57033 0.0
H1193 H 0.2239 0.28598 0.5511 0.0
H1194 H 0.26651 0.25043 0.49232 0.0
H1195 H 0.30077 0.26932 0.51138 0.0
H1196 H 0.20694 0.28565 0.49839 0.0
H1197 H 0.22942 0.20104 0.52482 0.0
H1198 H 0.24299 0.22589 0.54016 0.0
H1199 H 0.25196 0.21451 0.50803 0.0
C1200 C 0.26022 0.29316 0.55338 0.0
C1201 C 0.28221 0.28865 0.54252 0.0
C1202 C 0.24066 0.28228 0.54241 0.0
C1203 C 0.24277 0.26658 0.52056 0.0
C1204 C 0.26461 0.2622 0.5095 0.0
H1205 H 0.14566 0.21193 0.40502 0.0
H1206 H 0.17509 0.23338 0.4306 0.0
C1207 C 0.28415 0.2731 0.52037 0.0
C1208 C 0.2221 0.25507 0.50888 0.0
H1209 H 0.1987 0.20353 0.49401 0.0
C1210 C 0.205 0.26772 0.4976 0.0
C1211 C 0.21952 0.23173 0.50823 0.0
C1212 C 0.23682 0.21747 0.52116 0.0
C1213 C 0.18574 0.25751 0.48482 0.0
C1214 C 0.18372 0.23406 0.48308 0.0
C1215 C 0.2004 0.2215 0.4952 0.0
C1216 C 0.16491 0.22213 0.46798 0.0
C1217 C 0.16772 0.27189 0.47326 0.0
C1218 C 0.14959 0.20848 0.48048 0.0
C1219 C 0.13267 0.19622 0.46591 0.0
C1220 C 0.1309 0.19725 0.43852 0.0
C1221 C 0.14623 0.21108 0.42613 0.0
C1222 C 0.16309 0.22335 0.44072 0.0
H1223 H 0.1684 0.2893 0.48238 0.0
H1224 H 0.1709 0.27219 0.45185 0.0
H1225 H 0.1501 0.26517 0.47586 0.0
H1226 H 0.15081 0.20726 0.50151 0.0
H1227 H 0.121 0.18591 0.4761 0.0
H1228 H 0.20552 0.76514 0.03486 0.0
H1229 H 0.23788 0.74698 0.0111 0.0
H1230 H 0.27561 0.80888 0.01757 0.0
H1231 H 0.24339 0.82725 0.04163 0.0
H1232 H 0.25732 0.75869 0.96335 0.0
H1233 H 0.32173 0.76396 0.04492 0.0
H1234 H 0.29117 0.76787 0.05059 0.0
H1235 H 0.30809 0.78968 0.03842 0.0
C1236 C 0.22073 0.77492 0.0314 0.0
C1237 C 0.22189 0.79764 0.0403 0.0
C1238 C 0.23919 0.7645 0.01779 0.0
C1239 C 0.25922 0.77652 0.01291 0.0
C1240 C 0.26045 0.79922 0.02159 0.0
H1241 H 0.38487 0.73187 0.92873 0.0
H1242 H 0.35596 0.75459 0.95384 0.0
C1243 C 0.24197 0.8097 0.03521 0.0
C1244 C 0.27844 0.76532 0.99799 0.0
H1245 H 0.33445 0.74849 0.00327 0.0
C1246 C 0.2742 0.75649 0.97204 0.0
C1247 C 0.30047 0.76265 0.00938 0.0
C1248 C 0.30572 0.77137 0.03742 0.0
C1249 C 0.29136 0.74487 0.95718 0.0
C1250 C 0.31318 0.74166 0.96879 0.0
C1251 C 0.31765 0.75096 0.99451 0.0
C1252 C 0.33118 0.72783 0.95482 0.0
C1253 C 0.286 0.73619 0.92914 0.0
C1254 C 0.32701 0.70519 0.94775 0.0
C1255 C 0.34342 0.69222 0.93356 0.0
C1256 C 0.36442 0.70161 0.92625 0.0
C1257 C 0.3689 0.72415 0.93416 0.0
C1258 C 0.3524 0.73715 0.94839 0.0
H1259 H 0.2712 0.74514 0.92103 0.0
H1260 H 0.30122 0.73778 0.91625 0.0
H1261 H 0.28135 0.71831 0.92856 0.0
H1262 H 0.31094 0.69757 0.95309 0.0
H1263 H 0.33966 0.6748 0.92828 0.0
loop_
_geom_bond_atom_site_label_1
_geom_bond_atom_site_label_2
_geom_bond_distance
_geom_bond_site_symmetry_2
_ccdc_geom_bond_type
Fe0 O2 1.918 . S
Fe0 O5 1.997 . S
Fe0 O6 2.002 . S
Fe0 O11 1.976 . S
Fe0 O14 1.996 . S
Fe1 O2 1.918 . S
Fe1 O9 1.997 . S
Fe1 O12 1.996 . S
Fe1 O16 1.976 . S
Fe1 O19 2.002 . S
O2 Fe0 1.918 . S
O2 Fe1 1.918 . S
O2 Fe3 1.918 . S
Fe3 O2 1.918 . S
Fe3 O4 2.002 . S
Fe3 O13 1.976 . S
Fe3 O17 1.996 . S
Fe3 O20 1.997 . S
O4 Fe3 2.002 . S
O4 C21 1.295 . S
O5 Fe0 1.997 . S
O5 C21 1.235 . S
O6 Fe0 2.002 . S
O6 C7 1.295 . S
C7 O6 1.295 . S
C7 O9 1.235 . S
C8 O13 1.287 . S
C8 O14 1.255 . S
O9 Fe1 1.997 . S
O9 C7 1.235 . S
C10 O16 1.287 . S
C10 O17 1.255 . S
O11 Fe0 1.976 . S
O11 C18 1.287 . S
O12 Fe1 1.996 . S
O12 C18 1.255 . S
O13 Fe3 1.976 . S
O13 C8 1.287 . S
O14 Fe0 1.996 . S
O14 C8 1.255 . S
C15 O19 1.295 . S
C15 O20 1.235 . S
O16 Fe1 1.976 . S
O16 C10 1.287 . S
O17 Fe3 1.996 . S
O17 C10 1.255 . S
C18 O11 1.287 . S
C18 O12 1.255 . S
O19 Fe1 2.002 . S
O19 C15 1.295 . S
O20 Fe3 1.997 . S
O20 C15 1.235 . S
C21 O4 1.295 . S
C21 O5 1.235 . S
Fe22 O24 1.918 . S
Fe22 O27 1.997 . S
Fe22 O28 2.002 . S
Fe22 O33 1.976 . S
Fe22 O36 1.996 . S
Fe23 O24 1.918 . S
Fe23 O31 1.997 . S
Fe23 O34 1.996 . S
Fe23 O38 1.976 . S
Fe23 O41 2.002 . S
O24 Fe22 1.918 . S
O24 Fe23 1.918 . S
O24 Fe25 1.918 . S
Fe25 O24 1.918 . S
Fe25 O26 2.002 . S
Fe25 O35 1.976 . S
Fe25 O39 1.996 . S
Fe25 O42 1.997 . S
O26 Fe25 2.002 . S
O26 C43 1.295 . S
O27 Fe22 1.997 . S
O27 C43 1.235 . S
O28 Fe22 2.002 . S
O28 C29 1.295 . S
C29 O28 1.295 . S
C29 O31 1.235 . S
C30 O35 1.287 . S
C30 O36 1.255 . S
O31 Fe23 1.997 . S
O31 C29 1.235 . S
C32 O38 1.287 . S
C32 O39 1.255 . S
O33 Fe22 1.976 . S
O33 C40 1.287 . S
O34 Fe23 1.996 . S
O34 C40 1.255 . S
O35 Fe25 1.976 . S
O35 C30 1.287 . S
O36 Fe22 1.996 . S
O36 C30 1.255 . S
C37 O41 1.295 . S
C37 O42 1.235 . S
O38 Fe23 1.976 . S
O38 C32 1.287 . S
O39 Fe25 1.996 . S
O39 C32 1.255 . S
C40 O33 1.287 . S
C40 O34 1.255 . S
O41 Fe23 2.002 . S
O41 C37 1.295 . S
O42 Fe25 1.997 . S
O42 C37 1.235 . S
C43 O26 1.295 . S
C43 O27 1.235 . S
Fe44 O46 1.918 . S
Fe44 O49 1.997 1_554 S
Fe44 O50 2.002 . S
Fe44 O55 1.976 . S
Fe44 O58 1.996 . S
Fe45 O46 1.918 . S
Fe45 O53 1.997 . S
Fe45 O56 1.996 . S
Fe45 O60 1.976 . S
Fe45 O63 2.002 1_554 S
O46 Fe44 1.918 . S
O46 Fe45 1.918 . S
O46 Fe47 1.918 1_554 S
Fe47 O46 1.918 1_556 S
Fe47 O48 2.002 . S
Fe47 O57 1.976 1_556 S
Fe47 O61 1.996 1_556 S
Fe47 O64 1.997 . S
O48 Fe47 2.002 . S
O48 C65 1.295 . S
O49 Fe44 1.997 1_556 S
O49 C65 1.235 . S
O50 Fe44 2.002 . S
O50 C51 1.295 1_554 S
C51 O50 1.295 1_556 S
C51 O53 1.235 1_556 S
C52 O57 1.287 . S
C52 O58 1.255 . S
O53 Fe45 1.997 . S
O53 C51 1.235 1_554 S
C54 O60 1.287 . S
C54 O61 1.255 . S
O55 Fe44 1.976 . S
O55 C62 1.287 . S
O56 Fe45 1.996 . S
O56 C62 1.255 . S
O57 Fe47 1.976 1_554 S
O57 C52 1.287 . S
O58 Fe44 1.996 . S
O58 C52 1.255 . S
C59 O63 1.295 . S
C59 O64 1.235 . S
O60 Fe45 1.976 . S
O60 C54 1.287 . S
O61 Fe47 1.996 1_554 S
O61 C54 1.255 . S
C62 O55 1.287 . S
C62 O56 1.255 . S
O63 Fe45 2.002 1_556 S
O63 C59 1.295 . S
O64 Fe47 1.997 . S
O64 C59 1.235 . S
C65 O48 1.295 . S
C65 O49 1.235 . S
Fe66 O68 1.918 . S
Fe66 O71 1.997 . S
Fe66 O72 2.002 . S
Fe66 O77 1.976 . S
Fe66 O80 1.996 . S
Fe67 O68 1.918 . S
Fe67 O75 1.997 . S
Fe67 O78 1.996 . S
Fe67 O82 1.976 . S
Fe67 O85 2.002 . S
O68 Fe66 1.918 . S
O68 Fe67 1.918 . S
O68 Fe69 1.918 . S
Fe69 O68 1.918 . S
Fe69 O70 2.002 . S
Fe69 O79 1.976 . S
Fe69 O83 1.996 . S
Fe69 O86 1.997 . S
O70 Fe69 2.002 . S
O70 C87 1.295 . S
O71 Fe66 1.997 . S
O71 C87 1.235 . S
O72 Fe66 2.002 . S
O72 C73 1.295 . S
C73 O72 1.295 . S
C73 O75 1.235 . S
C74 O79 1.287 . S
C74 O80 1.255 . S
O75 Fe67 1.997 . S
O75 C73 1.235 . S
C76 O82 1.287 . S
C76 O83 1.255 . S
O77 Fe66 1.976 . S
O77 C84 1.287 . S
O78 Fe67 1.996 . S
O78 C84 1.255 . S
O79 Fe69 1.976 . S
O79 C74 1.287 . S
O80 Fe66 1.996 . S
O80 C74 1.255 . S
C81 O85 1.295 . S
C81 O86 1.235 . S
O82 Fe67 1.976 . S
O82 C76 1.287 . S
O83 Fe69 1.996 . S
O83 C76 1.255 . S
C84 O77 1.287 . S
C84 O78 1.255 . S
O85 Fe67 2.002 . S
O85 C81 1.295 . S
O86 Fe69 1.997 . S
O86 C81 1.235 . S
C87 O70 1.295 . S
C87 O71 1.235 . S
C88 C89 1.386 1_455 S
C88 C90 1.397 . S
C88 H112 0.931 . S
C89 C88 1.386 1_655 S
C89 C93 1.397 . S
C90 C88 1.397 . S
C90 C91 1.384 . S
C90 H113 0.930 . S
C91 C90 1.384 . S
C91 C92 1.377 . S
C91 C94 1.481 . S
C92 C91 1.377 . S
C92 C93 1.389 1_455 S
C92 H114 0.929 . S
C93 C89 1.397 . S
C93 C92 1.389 1_655 S
C93 H115 0.931 . S
C94 C91 1.481 . S
C94 C95 1.387 . S
C94 C99 1.390 . S
C95 C94 1.387 . S
C95 C96 1.401 . S
C95 H116 0.930 . S
C96 C95 1.401 . S
C96 C97 1.376 . S
C96 C105 1.511 . S
C97 C96 1.376 . S
C97 C98 1.392 . S
C97 H118 0.931 . S
C98 C97 1.392 . S
C98 C99 1.361 . S
C98 C100 1.500 . S
C99 C94 1.390 . S
C99 C98 1.361 . S
C99 H117 0.931 . S
C100 C98 1.500 . S
C100 C101 1.371 . S
C100 C102 1.365 . S
C101 C100 1.371 . S
C101 C111 1.386 . S
C101 H119 0.931 . S
C102 C100 1.365 . S
C102 C103 1.409 . S
C102 H120 0.929 . S
C103 C102 1.409 . S
C103 C104 1.380 . S
C103 H121 0.930 . S
C104 C103 1.380 . S
C104 C111 1.357 . S
C105 C96 1.511 . S
C105 C106 1.341 . S
C105 C107 1.371 . S
C106 C105 1.341 . S
C106 C110 1.394 . S
C106 H122 0.930 . S
C107 C105 1.371 . S
C107 C108 1.392 . S
C107 H123 0.931 . S
C108 C107 1.392 . S
C108 C109 1.331 . S
C108 H126 0.932 . S
C109 C108 1.331 . S
C109 C110 1.336 . S
C110 C106 1.394 . S
C110 C109 1.336 . S
C110 H125 0.929 . S
C111 C101 1.386 . S
C111 C104 1.357 . S
C111 H124 0.928 . S
H112 C88 0.931 . S
H113 C90 0.930 . S
H114 C92 0.929 . S
H115 C93 0.931 . S
H116 C95 0.930 . S
H117 C99 0.931 . S
H118 C97 0.931 . S
H119 C101 0.931 . S
H120 C102 0.929 . S
H121 C103 0.930 . S
H122 C106 0.930 . S
H123 C107 0.931 . S
H124 C111 0.928 . S
H125 C110 0.929 . S
H126 C108 0.932 . S
C127 C128 1.386 . S
C127 C129 1.397 . S
C127 H151 0.931 . S
C128 C127 1.386 . S
C128 C132 1.397 . S
C129 C127 1.397 . S
C129 C130 1.384 . S
C129 H152 0.930 . S
C130 C129 1.384 . S
C130 C131 1.377 . S
C130 C133 1.481 . S
C131 C130 1.377 . S
C131 C132 1.389 . S
C131 H153 0.929 . S
C132 C128 1.397 . S
C132 C131 1.389 . S
C132 H154 0.931 . S
C133 C130 1.481 . S
C133 C134 1.387 . S
C133 C138 1.390 . S
C134 C133 1.387 . S
C134 C135 1.401 . S
C134 H155 0.930 . S
C135 C134 1.401 . S
C135 C136 1.376 . S
C135 C144 1.511 . S
C136 C135 1.376 . S
C136 C137 1.392 . S
C136 H157 0.931 . S
C137 C136 1.392 . S
C137 C138 1.361 . S
C137 C139 1.500 . S
C138 C133 1.390 . S
C138 C137 1.361 . S
C138 H156 0.931 . S
C139 C137 1.500 . S
C139 C140 1.371 . S
C139 C141 1.365 . S
C140 C139 1.371 . S
C140 C150 1.386 . S
C140 H158 0.931 . S
C141 C139 1.365 . S
C141 C142 1.409 . S
C141 H159 0.929 . S
C142 C141 1.409 . S
C142 C143 1.380 . S
C142 H160 0.930 . S
C143 C142 1.380 . S
C143 C150 1.357 . S
C144 C135 1.511 . S
C144 C145 1.341 . S
C144 C146 1.371 . S
C145 C144 1.341 . S
C145 C149 1.394 . S
C145 H161 0.930 . S
C146 C144 1.371 . S
C146 C147 1.392 . S
C146 H162 0.931 . S
C147 C146 1.392 . S
C147 C148 1.331 . S
C147 H165 0.932 . S
C148 C147 1.331 . S
C148 C149 1.336 . S
C149 C145 1.394 . S
C149 C148 1.336 . S
C149 H164 0.929 . S
C150 C140 1.386 . S
C150 C143 1.357 . S
C150 H163 0.928 . S
H151 C127 0.931 . S
H152 C129 0.930 . S
H153 C131 0.929 . S
H154 C132 0.931 . S
H155 C134 0.930 . S
H156 C138 0.931 . S
H157 C136 0.931 . S
H158 C140 0.931 . S
H159 C141 0.929 . S
H160 C142 0.930 . S
H161 C145 0.930 . S
H162 C146 0.931 . S
H163 C150 0.928 . S
H164 C149 0.929 . S
H165 C147 0.932 . S
C166 C167 1.386 . S
C166 C168 1.397 . S
C166 H190 0.931 . S
C167 C166 1.386 . S
C167 C171 1.397 . S
C168 C166 1.397 . S
C168 C169 1.384 . S
C168 H191 0.930 . S
C169 C168 1.384 . S
C169 C170 1.377 . S
C169 C172 1.481 . S
C170 C169 1.377 . S
C170 C171 1.389 . S
C170 H192 0.929 . S
C171 C167 1.397 . S
C171 C170 1.389 . S
C171 H193 0.931 . S
C172 C169 1.481 . S
C172 C173 1.387 . S
C172 C177 1.390 . S
C173 C172 1.387 . S
C173 C174 1.401 . S
C173 H194 0.930 . S
C174 C173 1.401 . S
C174 C175 1.376 . S
C174 C183 1.511 . S
C175 C174 1.376 . S
C175 C176 1.392 . S
C175 H196 0.931 . S
C176 C175 1.392 . S
C176 C177 1.361 . S
C176 C178 1.500 . S
C177 C172 1.390 . S
C177 C176 1.361 . S
C177 H195 0.931 . S
C178 C176 1.500 . S
C178 C179 1.371 . S
C178 C180 1.365 . S
C179 C178 1.371 . S
C179 C189 1.386 . S
C179 H197 0.931 . S
C180 C178 1.365 . S
C180 C181 1.409 . S
C180 H198 0.929 . S
C181 C180 1.409 . S
C181 C182 1.380 . S
C181 H199 0.930 . S
C182 C181 1.380 . S
C182 C189 1.357 . S
C183 C174 1.511 . S
C183 C184 1.341 . S
C183 C185 1.371 . S
C184 C183 1.341 . S
C184 C188 1.394 . S
C184 H200 0.930 . S
C185 C183 1.371 . S
C185 C186 1.392 . S
C185 H201 0.931 . S
C186 C185 1.392 . S
C186 C187 1.331 . S
C186 H204 0.932 . S
C187 C186 1.331 . S
C187 C188 1.336 . S
C188 C184 1.394 . S
C188 C187 1.336 . S
C188 H203 0.929 . S
C189 C179 1.386 . S
C189 C182 1.357 . S
C189 H202 0.928 . S
H190 C166 0.931 . S
H191 C168 0.930 . S
H192 C170 0.929 . S
H193 C171 0.931 . S
H194 C173 0.930 . S
H195 C177 0.931 . S
H196 C175 0.931 . S
H197 C179 0.931 . S
H198 C180 0.929 . S
H199 C181 0.930 . S
H200 C184 0.930 . S
H201 C185 0.931 . S
H202 C189 0.928 . S
H203 C188 0.929 . S
H204 C186 0.932 . S
C205 C206 1.386 . S
C205 C207 1.397 . S
C205 H229 0.931 . S
C206 C205 1.386 . S
C206 C210 1.397 . S
C207 C205 1.397 . S
C207 C208 1.384 . S
C207 H230 0.930 . S
C208 C207 1.384 . S
C208 C209 1.377 . S
C208 C211 1.481 . S
C209 C208 1.377 . S
C209 C210 1.389 . S
C209 H231 0.929 . S
C210 C206 1.397 . S
C210 C209 1.389 . S
C210 H232 0.931 . S
C211 C208 1.481 . S
C211 C212 1.387 . S
C211 C216 1.390 . S
C212 C211 1.387 . S
C212 C213 1.401 . S
C212 H233 0.930 . S
C213 C212 1.401 . S
C213 C214 1.376 . S
C213 C222 1.511 . S
C214 C213 1.376 . S
C214 C215 1.392 . S
C214 H235 0.931 . S
C215 C214 1.392 . S
C215 C216 1.361 . S
C215 C217 1.500 . S
C216 C211 1.390 . S
C216 C215 1.361 . S
C216 H234 0.931 . S
C217 C215 1.500 . S
C217 C218 1.371 . S
C217 C219 1.365 . S
C218 C217 1.371 . S
C218 C228 1.386 . S
C218 H236 0.931 . S
C219 C217 1.365 . S
C219 C220 1.409 . S
C219 H237 0.929 . S
C220 C219 1.409 . S
C220 C221 1.380 . S
C220 H238 0.930 . S
C221 C220 1.380 . S
C221 C228 1.357 . S
C222 C213 1.511 . S
C222 C223 1.341 . S
C222 C224 1.371 . S
C223 C222 1.341 . S
C223 C227 1.394 . S
C223 H239 0.930 . S
C224 C222 1.371 . S
C224 C225 1.392 . S
C224 H240 0.931 . S
C225 C224 1.392 . S
C225 C226 1.331 . S
C225 H243 0.932 . S
C226 C225 1.331 . S
C226 C227 1.336 . S
C227 C223 1.394 . S
C227 C226 1.336 . S
C227 H242 0.929 . S
C228 C218 1.386 . S
C228 C221 1.357 . S
C228 H241 0.928 . S
H229 C205 0.931 . S
H230 C207 0.930 . S
H231 C209 0.929 . S
H232 C210 0.931 . S
H233 C212 0.930 . S
H234 C216 0.931 . S
H235 C214 0.931 . S
H236 C218 0.931 . S
H237 C219 0.929 . S
H238 C220 0.930 . S
H239 C223 0.930 . S
H240 C224 0.931 . S
H241 C228 0.928 . S
H242 C227 0.929 . S
H243 C225 0.932 . S
C244 C245 1.386 . S
C244 C246 1.397 . S
C244 H268 0.931 . S
C245 C244 1.386 . S
C245 C249 1.397 . S
C246 C244 1.397 . S
C246 C247 1.384 . S
C246 H269 0.930 . S
C247 C246 1.384 . S
C247 C248 1.377 . S
C247 C250 1.481 . S
C248 C247 1.377 . S
C248 C249 1.389 . S
C248 H270 0.929 . S
C249 C245 1.397 . S
C249 C248 1.389 . S
C249 H271 0.931 . S
C250 C247 1.481 . S
C250 C251 1.387 . S
C250 C255 1.390 . S
C251 C250 1.387 . S
C251 C252 1.401 . S
C251 H272 0.930 . S
C252 C251 1.401 . S
C252 C253 1.376 . S
C252 C261 1.511 . S
C253 C252 1.376 . S
C253 C254 1.392 . S
C253 H274 0.931 . S
C254 C253 1.392 . S
C254 C255 1.361 . S
C254 C256 1.500 . S
C255 C250 1.390 . S
C255 C254 1.361 . S
C255 H273 0.931 . S
C256 C254 1.500 . S
C256 C257 1.371 . S
C256 C258 1.365 . S
C257 C256 1.371 . S
C257 C267 1.386 . S
C257 H275 0.931 . S
C258 C256 1.365 . S
C258 C259 1.409 . S
C258 H276 0.929 . S
C259 C258 1.409 . S
C259 C260 1.380 . S
C259 H277 0.930 . S
C260 C259 1.380 . S
C260 C267 1.357 . S
C261 C252 1.511 . S
C261 C262 1.341 . S
C261 C263 1.371 . S
C262 C261 1.341 . S
C262 C266 1.394 . S
C262 H278 0.930 . S
C263 C261 1.371 . S
C263 C264 1.392 . S
C263 H279 0.931 . S
C264 C263 1.392 . S
C264 C265 1.331 . S
C264 H282 0.932 . S
C265 C264 1.331 . S
C265 C266 1.336 . S
C266 C262 1.394 . S
C266 C265 1.336 . S
C266 H281 0.929 . S
C267 C257 1.386 . S
C267 C260 1.357 . S
C267 H280 0.928 . S
H268 C244 0.931 . S
H269 C246 0.930 . S
H270 C248 0.929 . S
H271 C249 0.931 . S
H272 C251 0.930 . S
H273 C255 0.931 . S
H274 C253 0.931 . S
H275 C257 0.931 . S
H276 C258 0.929 . S
H277 C259 0.930 . S
H278 C262 0.930 . S
H279 C263 0.931 . S
H280 C267 0.928 . S
H281 C266 0.929 . S
H282 C264 0.932 . S
C283 C284 1.386 . S
C283 C285 1.397 . S
C283 H307 0.931 . S
C284 C283 1.386 . S
C284 C288 1.397 . S
C285 C283 1.397 . S
C285 C286 1.384 . S
C285 H308 0.930 . S
C286 C285 1.384 . S
C286 C287 1.377 . S
C286 C289 1.481 . S
C287 C286 1.377 . S
C287 C288 1.389 . S
C287 H309 0.929 . S
C288 C284 1.397 . S
C288 C287 1.389 . S
C288 H310 0.931 . S
C289 C286 1.481 . S
C289 C290 1.387 . S
C289 C294 1.390 . S
C290 C289 1.387 . S
C290 C291 1.401 . S
C290 H311 0.930 . S
C291 C290 1.401 . S
C291 C292 1.376 . S
C291 C300 1.511 . S
C292 C291 1.376 . S
C292 C293 1.392 . S
C292 H313 0.931 . S
C293 C292 1.392 . S
C293 C294 1.361 . S
C293 C295 1.500 . S
C294 C289 1.390 . S
C294 C293 1.361 . S
C294 H312 0.931 . S
C295 C293 1.500 . S
C295 C296 1.371 . S
C295 C297 1.365 . S
C296 C295 1.371 . S
C296 C306 1.386 . S
C296 H314 0.931 . S
C297 C295 1.365 . S
C297 C298 1.409 . S
C297 H315 0.929 . S
C298 C297 1.409 . S
C298 C299 1.380 . S
C298 H316 0.930 . S
C299 C298 1.380 . S
C299 C306 1.357 . S
C300 C291 1.511 . S
C300 C301 1.341 . S
C300 C302 1.371 . S
C301 C300 1.341 . S
C301 C305 1.394 . S
C301 H317 0.930 . S
C302 C300 1.371 . S
C302 C303 1.392 . S
C302 H318 0.931 . S
C303 C302 1.392 . S
C303 C304 1.331 . S
C303 H321 0.932 . S
C304 C303 1.331 . S
C304 C305 1.336 . S
C305 C301 1.394 . S
C305 C304 1.336 . S
C305 H320 0.929 . S
C306 C296 1.386 . S
C306 C299 1.357 . S
C306 H319 0.928 . S
H307 C283 0.931 . S
H308 C285 0.930 . S
H309 C287 0.929 . S
H310 C288 0.931 . S
H311 C290 0.930 . S
H312 C294 0.931 . S
H313 C292 0.931 . S
H314 C296 0.931 . S
H315 C297 0.929 . S
H316 C298 0.930 . S
H317 C301 0.930 . S
H318 C302 0.931 . S
H319 C306 0.928 . S
H320 C305 0.929 . S
H321 C303 0.932 . S
C322 C323 1.386 . S
C322 C324 1.397 . S
C322 H346 0.931 . S
C323 C322 1.386 . S
C323 C327 1.397 . S
C324 C322 1.397 . S
C324 C325 1.384 . S
C324 H347 0.930 . S
C325 C324 1.384 . S
C325 C326 1.377 . S
C325 C328 1.481 . S
C326 C325 1.377 . S
C326 C327 1.389 . S
C326 H348 0.929 . S
C327 C323 1.397 . S
C327 C326 1.389 . S
C327 H349 0.931 . S
C328 C325 1.481 . S
C328 C329 1.387 . S
C328 C333 1.390 . S
C329 C328 1.387 . S
C329 C330 1.401 . S
C329 H350 0.930 . S
C330 C329 1.401 . S
C330 C331 1.376 . S
C330 C339 1.511 . S
C331 C330 1.376 . S
C331 C332 1.392 . S
C331 H352 0.931 . S
C332 C331 1.392 . S
C332 C333 1.361 . S
C332 C334 1.500 . S
C333 C328 1.390 . S
C333 C332 1.361 . S
C333 H351 0.931 . S
C334 C332 1.500 . S
C334 C335 1.371 . S
C334 C336 1.365 . S
C335 C334 1.371 . S
C335 C345 1.386 . S
C335 H353 0.931 . S
C336 C334 1.365 . S
C336 C337 1.409 . S
C336 H354 0.929 . S
C337 C336 1.409 . S
C337 C338 1.380 . S
C337 H355 0.930 . S
C338 C337 1.380 . S
C338 C345 1.357 . S
C339 C330 1.511 . S
C339 C340 1.341 . S
C339 C341 1.371 . S
C340 C339 1.341 . S
C340 C344 1.394 . S
C340 H356 0.930 . S
C341 C339 1.371 . S
C341 C342 1.392 . S
C341 H357 0.931 . S
C342 C341 1.392 . S
C342 C343 1.331 . S
C342 H360 0.932 . S
C343 C342 1.331 . S
C343 C344 1.336 . S
C344 C340 1.394 . S
C344 C343 1.336 . S
C344 H359 0.929 . S
C345 C335 1.386 . S
C345 C338 1.357 . S
C345 H358 0.928 . S
H346 C322 0.931 . S
H347 C324 0.930 . S
H348 C326 0.929 . S
H349 C327 0.931 . S
H350 C329 0.930 . S
H351 C333 0.931 . S
H352 C331 0.931 . S
H353 C335 0.931 . S
H354 C336 0.929 . S
H355 C337 0.930 . S
H356 C340 0.930 . S
H357 C341 0.931 . S
H358 C345 0.928 . S
H359 C344 0.929 . S
H360 C342 0.932 . S
C361 C362 1.386 . S
C361 C363 1.397 1_455 S
C361 H385 0.931 . S
C362 C361 1.386 . S
C362 C366 1.397 1_455 S
C363 C361 1.397 1_655 S
C363 C364 1.384 . S
C363 H386 0.930 . S
C364 C363 1.384 . S
C364 C365 1.377 . S
C364 C367 1.481 . S
C365 C364 1.377 . S
C365 C366 1.389 . S
C365 H387 0.929 . S
C366 C362 1.397 1_655 S
C366 C365 1.389 . S
C366 H388 0.931 . S
C367 C364 1.481 . S
C367 C368 1.387 . S
C367 C372 1.390 . S
C368 C367 1.387 . S
C368 C369 1.401 . S
C368 H389 0.930 . S
C369 C368 1.401 . S
C369 C370 1.376 . S
C369 C378 1.511 . S
C370 C369 1.376 . S
C370 C371 1.392 . S
C370 H391 0.931 . S
C371 C370 1.392 . S
C371 C372 1.361 . S
C371 C373 1.500 . S
C372 C367 1.390 . S
C372 C371 1.361 . S
C372 H390 0.931 . S
C373 C371 1.500 . S
C373 C374 1.371 . S
C373 C375 1.365 . S
C374 C373 1.371 . S
C374 C384 1.386 . S
C374 H392 0.931 . S
C375 C373 1.365 . S
C375 C376 1.409 . S
C375 H393 0.929 . S
C376 C375 1.409 . S
C376 C377 1.380 . S
C376 H394 0.930 . S
C377 C376 1.380 . S
C377 C384 1.357 . S
C378 C369 1.511 . S
C378 C379 1.341 . S
C378 C380 1.371 . S
C379 C378 1.341 . S
C379 C383 1.394 . S
C379 H395 0.930 . S
C380 C378 1.371 . S
C380 C381 1.392 . S
C380 H396 0.931 . S
C381 C380 1.392 . S
C381 C382 1.331 . S
C381 H399 0.932 . S
C382 C381 1.331 . S
C382 C383 1.336 . S
C383 C379 1.394 . S
C383 C382 1.336 . S
C383 H398 0.929 . S
C384 C374 1.386 . S
C384 C377 1.357 . S
C384 H397 0.928 . S
H385 C361 0.931 . S
H386 C363 0.930 . S
H387 C365 0.929 . S
H388 C366 0.931 . S
H389 C368 0.930 . S
H390 C372 0.931 . S
H391 C370 0.931 . S
H392 C374 0.931 . S
H393 C375 0.929 . S
H394 C376 0.930 . S
H395 C379 0.930 . S
H396 C380 0.931 . S
H397 C384 0.928 . S
H398 C383 0.929 . S
H399 C381 0.932 . S
H400 C408 0.929 . S
H401 C410 0.930 . S
H402 C412 0.930 . S
H403 C415 0.929 . S
H404 C418 0.930 . S
H405 C420 0.960 . S
H406 C420 0.960 . S
H407 C420 0.960 . S
C408 H400 0.929 . S
C408 C409 1.377 . S
C408 C410 1.384 . S
C409 C408 1.377 . S
C409 C415 1.390 . S
C410 H401 0.930 . S
C410 C408 1.384 . S
C410 C411 1.372 . S
C411 C410 1.372 . S
C411 C412 1.400 . S
C411 C416 1.490 . S
C412 H402 0.930 . S
C412 C411 1.400 . S
C412 C415 1.386 . S
H413 C429 0.930 . S
H414 C430 0.931 . S
C415 H403 0.929 . S
C415 C409 1.390 . S
C415 C412 1.386 . S
C416 C411 1.490 . S
C416 C418 1.395 . S
C416 C419 1.403 . S
H417 C423 0.930 . S
C418 H404 0.930 . S
C418 C416 1.395 . S
C418 C421 1.403 . S
C419 C416 1.403 . S
C419 C420 1.524 . S
C419 C423 1.400 . S
C420 H405 0.960 . S
C420 H406 0.960 . S
C420 H407 0.960 . S
C420 C419 1.524 . S
C421 C418 1.403 . S
C421 C422 1.392 . S
C421 C425 1.495 . S
C422 C421 1.392 . S
C422 C423 1.385 . S
C422 C424 1.478 . S
C423 H417 0.930 . S
C423 C419 1.400 . S
C423 C422 1.385 . S
C424 C422 1.478 . S
C424 C426 1.381 . S
C424 C430 1.383 1_565 S
C425 C421 1.495 . S
C425 H431 0.959 . S
C425 H432 0.961 1_565 S
C425 H433 0.960 . S
C426 C424 1.381 . S
C426 C427 1.394 1_565 S
C426 H434 0.930 . S
C427 C426 1.394 1_545 S
C427 C428 1.383 . S
C427 H435 0.929 . S
C428 C427 1.383 . S
C428 C429 1.377 . S
C429 H413 0.930 . S
C429 C428 1.377 . S
C429 C430 1.379 . S
C430 H414 0.931 . S
C430 C424 1.383 1_545 S
C430 C429 1.379 . S
H431 C425 0.959 . S
H432 C425 0.961 1_545 S
H433 C425 0.960 . S
H434 C426 0.930 . S
H435 C427 0.929 . S
H436 C444 0.929 . S
H437 C446 0.930 . S
H438 C448 0.930 . S
H439 C451 0.929 . S
H440 C454 0.930 . S
H441 C456 0.960 . S
H442 C456 0.960 . S
H443 C456 0.960 . S
C444 H436 0.929 . S
C444 C445 1.377 . S
C444 C446 1.384 . S
C445 C444 1.377 . S
C445 C451 1.390 . S
C446 H437 0.930 . S
C446 C444 1.384 . S
C446 C447 1.372 . S
C447 C446 1.372 . S
C447 C448 1.400 . S
C447 C452 1.490 . S
C448 H438 0.930 . S
C448 C447 1.400 . S
C448 C451 1.386 . S
H449 C465 0.930 . S
H450 C466 0.931 . S
C451 H439 0.929 . S
C451 C445 1.390 . S
C451 C448 1.386 . S
C452 C447 1.490 . S
C452 C454 1.395 . S
C452 C455 1.403 . S
H453 C459 0.930 . S
C454 H440 0.930 . S
C454 C452 1.395 . S
C454 C457 1.403 . S
C455 C452 1.403 . S
C455 C456 1.524 . S
C455 C459 1.400 . S
C456 H441 0.960 . S
C456 H442 0.960 . S
C456 H443 0.960 . S
C456 C455 1.524 . S
C457 C454 1.403 . S
C457 C458 1.392 . S
C457 C461 1.495 . S
C458 C457 1.392 . S
C458 C459 1.385 . S
C458 C460 1.478 . S
C459 H453 0.930 . S
C459 C455 1.400 . S
C459 C458 1.385 . S
C460 C458 1.478 . S
C460 C462 1.381 . S
C460 C466 1.383 . S
C461 C457 1.495 . S
C461 H467 0.959 . S
C461 H468 0.961 . S
C461 H469 0.960 . S
C462 C460 1.381 . S
C462 C463 1.394 . S
C462 H470 0.930 . S
C463 C462 1.394 . S
C463 C464 1.383 . S
C463 H471 0.929 . S
C464 C463 1.383 . S
C464 C465 1.377 . S
C465 H449 0.930 . S
C465 C464 1.377 . S
C465 C466 1.379 . S
C466 H450 0.931 . S
C466 C460 1.383 . S
C466 C465 1.379 . S
H467 C461 0.959 . S
H468 C461 0.961 . S
H469 C461 0.960 . S
H470 C462 0.930 . S
H471 C463 0.929 . S
H472 C480 0.929 . S
H473 C482 0.930 . S
H474 C484 0.930 . S
H475 C487 0.929 . S
H476 C490 0.930 . S
H477 C492 0.960 1_565 S
H478 C492 0.960 . S
H479 C492 0.960 . S
C480 H472 0.929 . S
C480 C481 1.377 . S
C480 C482 1.384 . S
C481 C480 1.377 . S
C481 C487 1.390 . S
C482 H473 0.930 . S
C482 C480 1.384 . S
C482 C483 1.372 . S
C483 C482 1.372 . S
C483 C484 1.400 . S
C483 C488 1.490 . S
C484 H474 0.930 . S
C484 C483 1.400 . S
C484 C487 1.386 . S
H485 C501 0.930 . S
H486 C502 0.931 . S
C487 H475 0.929 . S
C487 C481 1.390 . S
C487 C484 1.386 . S
C488 C483 1.490 . S
C488 C490 1.395 . S
C488 C491 1.403 . S
H489 C495 0.930 . S
C490 H476 0.930 . S
C490 C488 1.395 . S
C490 C493 1.403 . S
C491 C488 1.403 . S
C491 C492 1.524 . S
C491 C495 1.400 1_545 S
C492 H477 0.960 1_545 S
C492 H478 0.960 . S
C492 H479 0.960 . S
C492 C491 1.524 . S
C493 C490 1.403 . S
C493 C494 1.392 1_545 S
C493 C497 1.495 . S
C494 C493 1.392 1_565 S
C494 C495 1.385 . S
C494 C496 1.478 . S
C495 H489 0.930 . S
C495 C491 1.400 1_565 S
C495 C494 1.385 . S
C496 C494 1.478 . S
C496 C498 1.381 . S
C496 C502 1.383 . S
C497 C493 1.495 . S
C497 H503 0.959 . S
C497 H504 0.961 . S
C497 H505 0.960 . S
C498 C496 1.381 . S
C498 C499 1.394 . S
C498 H506 0.930 . S
C499 C498 1.394 . S
C499 C500 1.383 . S
C499 H507 0.929 . S
C500 C499 1.383 . S
C500 C501 1.377 . S
C501 H485 0.930 . S
C501 C500 1.377 . S
C501 C502 1.379 . S
C502 H486 0.931 . S
C502 C496 1.383 . S
C502 C501 1.379 . S
H503 C497 0.959 . S
H504 C497 0.961 . S
H505 C497 0.960 . S
H506 C498 0.930 . S
H507 C499 0.929 . S
H508 C516 0.929 . S
H509 C518 0.930 . S
H510 C520 0.930 . S
H511 C523 0.929 . S
H512 C526 0.930 . S
H513 C528 0.960 . S
H514 C528 0.960 . S
H515 C528 0.960 . S
C516 H508 0.929 . S
C516 C517 1.377 . S
C516 C518 1.384 . S
C517 C516 1.377 . S
C517 C523 1.390 . S
C518 H509 0.930 . S
C518 C516 1.384 . S
C518 C519 1.372 . S
C519 C518 1.372 . S
C519 C520 1.400 . S
C519 C524 1.490 . S
C520 H510 0.930 . S
C520 C519 1.400 . S
C520 C523 1.386 . S
H521 C537 0.930 . S
H522 C538 0.931 . S
C523 H511 0.929 . S
C523 C517 1.390 . S
C523 C520 1.386 . S
C524 C519 1.490 . S
C524 C526 1.395 . S
C524 C527 1.403 . S
H525 C531 0.930 . S
C526 H512 0.930 . S
C526 C524 1.395 . S
C526 C529 1.403 . S
C527 C524 1.403 . S
C527 C528 1.524 . S
C527 C531 1.400 . S
C528 H513 0.960 . S
C528 H514 0.960 . S
C528 H515 0.960 . S
C528 C527 1.524 . S
C529 C526 1.403 . S
C529 C530 1.392 . S
C529 C533 1.495 . S
C530 C529 1.392 . S
C530 C531 1.385 . S
C530 C532 1.478 . S
C531 H525 0.930 . S
C531 C527 1.400 . S
C531 C530 1.385 . S
C532 C530 1.478 . S
C532 C534 1.381 . S
C532 C538 1.383 . S
C533 C529 1.495 . S
C533 H539 0.959 . S
C533 H540 0.961 . S
C533 H541 0.960 . S
C534 C532 1.381 . S
C534 C535 1.394 . S
C534 H542 0.930 . S
C535 C534 1.394 . S
C535 C536 1.383 . S
C535 H543 0.929 . S
C536 C535 1.383 . S
C536 C537 1.377 . S
C537 H521 0.930 . S
C537 C536 1.377 . S
C537 C538 1.379 . S
C538 H522 0.931 . S
C538 C532 1.383 . S
C538 C537 1.379 . S
H539 C533 0.959 . S
H540 C533 0.961 . S
H541 C533 0.960 . S
H542 C534 0.930 . S
H543 C535 0.929 . S
H544 C552 0.929 . S
H545 C554 0.930 . S
H546 C556 0.930 . S
H547 C559 0.929 . S
H548 C562 0.930 . S
H549 C564 0.960 . S
H550 C564 0.960 . S
H551 C564 0.960 . S
C552 H544 0.929 . S
C552 C553 1.377 . S
C552 C554 1.384 . S
C553 C552 1.377 . S
C553 C559 1.390 . S
C554 H545 0.930 . S
C554 C552 1.384 . S
C554 C555 1.372 . S
C555 C554 1.372 . S
C555 C556 1.400 . S
C555 C560 1.490 . S
C556 H546 0.930 . S
C556 C555 1.400 . S
C556 C559 1.386 . S
H557 C573 0.930 . S
H558 C574 0.931 . S
C559 H547 0.929 . S
C559 C553 1.390 . S
C559 C556 1.386 . S
C560 C555 1.490 . S
C560 C562 1.395 . S
C560 C563 1.403 . S
H561 C567 0.930 . S
C562 H548 0.930 . S
C562 C560 1.395 . S
C562 C565 1.403 . S
C563 C560 1.403 . S
C563 C564 1.524 . S
C563 C567 1.400 . S
C564 H549 0.960 . S
C564 H550 0.960 . S
C564 H551 0.960 . S
C564 C563 1.524 . S
C565 C562 1.403 . S
C565 C566 1.392 . S
C565 C569 1.495 . S
C566 C565 1.392 . S
C566 C567 1.385 . S
C566 C568 1.478 . S
C567 H561 0.930 . S
C567 C563 1.400 . S
C567 C566 1.385 . S
C568 C566 1.478 . S
C568 C570 1.381 . S
C568 C574 1.383 . S
C569 C565 1.495 . S
C569 H575 0.959 . S
C569 H576 0.961 . S
C569 H577 0.960 . S
C570 C568 1.381 . S
C570 C571 1.394 . S
C570 H578 0.930 . S
C571 C570 1.394 . S
C571 C572 1.383 . S
C571 H579 0.929 . S
C572 C571 1.383 . S
C572 C573 1.377 . S
C573 H557 0.930 . S
C573 C572 1.377 . S
C573 C574 1.379 . S
C574 H558 0.931 . S
C574 C568 1.383 . S
C574 C573 1.379 . S
H575 C569 0.959 . S
H576 C569 0.961 . S
H577 C569 0.960 . S
H578 C570 0.930 . S
H579 C571 0.929 . S
H580 C588 0.929 . S
H581 C590 0.930 . S
H582 C592 0.913 1_554 S
H583 C595 0.929 1_554 S
H584 C598 0.930 1_655 S
H585 C600 0.933 1_455 S
H586 C600 0.984 . S
H587 C600 0.977 . S
C588 H580 0.929 . S
C588 C589 1.377 . S
C588 C590 1.384 . S
C589 C588 1.377 . S
C589 C595 1.390 . S
C590 H581 0.930 . S
C590 C588 1.384 . S
C590 C591 1.372 . S
C591 C590 1.372 . S
C591 C592 1.400 . S
C591 C596 1.490 . S
C592 H582 0.913 1_556 S
C592 C591 1.400 . S
C592 C595 1.386 . S
H593 C609 0.930 . S
H594 C610 0.931 . S
C595 H583 0.929 1_556 S
C595 C589 1.390 . S
C595 C592 1.386 . S
C596 C591 1.490 . S
C596 C598 1.395 1_655 S
C596 C599 1.403 1_655 S
H597 C603 0.930 . S
C598 H584 0.930 1_455 S
C598 C596 1.395 1_455 S
C598 C601 1.403 . S
C599 C596 1.403 1_455 S
C599 C600 1.512 1_455 S
C599 C603 1.400 . S
C600 H585 0.933 1_655 S
C600 H586 0.984 . S
C600 H587 0.977 . S
C600 C599 1.512 1_655 S
C601 C598 1.403 . S
C601 C602 1.392 . S
C601 C605 1.495 . S
C602 C601 1.392 . S
C602 C603 1.385 . S
C602 C604 1.478 . S
C603 H597 0.930 . S
C603 C599 1.400 . S
C603 C602 1.385 . S
C604 C602 1.478 . S
C604 C606 1.381 . S
C604 C610 1.383 . S
C605 C601 1.495 . S
C605 H611 0.959 1_556 S
C605 H612 0.961 1_556 S
C605 H613 0.960 . S
C606 C604 1.381 . S
C606 C607 1.394 . S
C606 H614 0.930 . S
C607 C606 1.394 . S
C607 C608 1.383 . S
C607 H615 0.929 . S
C608 C607 1.383 . S
C608 C609 1.377 . S
C609 H593 0.930 . S
C609 C608 1.377 . S
C609 C610 1.379 . S
C610 H594 0.931 . S
C610 C604 1.383 . S
C610 C609 1.379 . S
H611 C605 0.959 1_554 S
H612 C605 0.961 1_554 S
H613 C605 0.960 . S
H614 C606 0.930 . S
H615 C607 0.929 . S
H616 C624 0.929 . S
H617 C626 0.930 . S
H618 C628 0.930 . S
H619 C631 0.929 . S
H620 C634 0.930 . S
H621 C636 0.960 . S
H622 C636 0.960 . S
H623 C636 0.960 . S
C624 H616 0.929 . S
C624 C625 1.377 . S
C624 C626 1.384 . S
C625 C624 1.377 . S
C625 C631 1.390 . S
C626 H617 0.930 . S
C626 C624 1.384 . S
C626 C627 1.372 . S
C627 C626 1.372 . S
C627 C628 1.400 . S
C627 C632 1.490 . S
C628 H618 0.930 . S
C628 C627 1.400 . S
C628 C631 1.386 . S
H629 C645 0.930 . S
H630 C646 0.931 . S
C631 H619 0.929 . S
C631 C625 1.390 . S
C631 C628 1.386 . S
C632 C627 1.490 . S
C632 C634 1.395 . S
C632 C635 1.403 . S
H633 C639 0.930 . S
C634 H620 0.930 . S
C634 C632 1.395 . S
C634 C637 1.403 . S
C635 C632 1.403 . S
C635 C636 1.524 . S
C635 C639 1.400 . S
C636 H621 0.960 . S
C636 H622 0.960 . S
C636 H623 0.960 . S
C636 C635 1.524 . S
C637 C634 1.403 . S
C637 C638 1.392 . S
C637 C641 1.495 . S
C638 C637 1.392 . S
C638 C639 1.385 . S
C638 C640 1.478 . S
C639 H633 0.930 . S
C639 C635 1.400 . S
C639 C638 1.385 . S
C640 C638 1.478 . S
C640 C642 1.381 . S
C640 C646 1.383 . S
C641 C637 1.495 . S
C641 H647 0.959 . S
C641 H648 0.961 . S
C641 H649 0.960 . S
C642 C640 1.381 . S
C642 C643 1.394 . S
C642 H650 0.930 . S
C643 C642 1.394 . S
C643 C644 1.383 . S
C643 H651 0.929 . S
C644 C643 1.383 . S
C644 C645 1.377 . S
C645 H629 0.930 . S
C645 C644 1.377 . S
C645 C646 1.379 . S
C646 H630 0.931 . S
C646 C640 1.383 . S
C646 C645 1.379 . S
H647 C641 0.959 . S
H648 C641 0.961 . S
H649 C641 0.960 . S
H650 C642 0.930 . S
H651 C643 0.929 . S
H652 C660 0.929 . S
H653 C662 0.930 . S
H654 C664 0.930 . S
H655 C667 0.929 . S
H656 C670 0.930 . S
H657 C672 0.960 . S
H658 C672 0.960 . S
H659 C672 0.960 . S
C660 H652 0.929 . S
C660 C661 1.377 . S
C660 C662 1.384 . S
C661 C660 1.377 . S
C661 C667 1.390 . S
C662 H653 0.930 . S
C662 C660 1.384 . S
C662 C663 1.372 . S
C663 C662 1.372 . S
C663 C664 1.400 . S
C663 C668 1.490 . S
C664 H654 0.930 . S
C664 C663 1.400 . S
C664 C667 1.386 . S
H665 C681 0.930 . S
H666 C682 0.931 . S
C667 H655 0.929 . S
C667 C661 1.390 . S
C667 C664 1.386 . S
C668 C663 1.490 . S
C668 C670 1.395 . S
C668 C671 1.403 . S
H669 C675 0.930 . S
C670 H656 0.930 . S
C670 C668 1.395 . S
C670 C673 1.403 . S
C671 C668 1.403 . S
C671 C672 1.524 . S
C671 C675 1.400 . S
C672 H657 0.960 . S
C672 H658 0.960 . S
C672 H659 0.960 . S
C672 C671 1.524 . S
C673 C670 1.403 . S
C673 C674 1.392 . S
C673 C677 1.495 . S
C674 C673 1.392 . S
C674 C675 1.385 . S
C674 C676 1.478 . S
C675 H669 0.930 . S
C675 C671 1.400 . S
C675 C674 1.385 . S
C676 C674 1.478 . S
C676 C678 1.381 . S
C676 C682 1.383 . S
C677 C673 1.495 . S
C677 H683 0.959 . S
C677 H684 0.961 . S
C677 H685 0.960 . S
C678 C676 1.381 . S
C678 C679 1.394 . S
C678 H686 0.930 . S
C679 C678 1.394 . S
C679 C680 1.383 . S
C679 H687 0.929 . S
C680 C679 1.383 . S
C680 C681 1.377 . S
C681 H665 0.930 . S
C681 C680 1.377 . S
C681 C682 1.379 . S
C682 H666 0.931 . S
C682 C676 1.383 . S
C682 C681 1.379 . S
H683 C677 0.959 . S
H684 C677 0.961 . S
H685 C677 0.960 . S
H686 C678 0.930 . S
H687 C679 0.929 . S
H688 C696 0.929 . S
H689 C698 0.930 . S
H690 C700 0.930 . S
H691 C703 0.929 . S
H692 C706 0.930 . S
H693 C708 0.960 . S
H694 C708 0.960 . S
H695 C708 0.960 . S
C696 H688 0.929 . S
C696 C697 1.377 . S
C696 C698 1.384 . S
C697 C696 1.377 . S
C697 C703 1.390 . S
C698 H689 0.930 . S
C698 C696 1.384 . S
C698 C699 1.372 . S
C699 C698 1.372 . S
C699 C700 1.400 . S
C699 C704 1.490 . S
C700 H690 0.930 . S
C700 C699 1.400 . S
C700 C703 1.386 . S
H701 C717 0.930 . S
H702 C718 0.931 . S
C703 H691 0.929 . S
C703 C697 1.390 . S
C703 C700 1.386 . S
C704 C699 1.490 . S
C704 C706 1.395 . S
C704 C707 1.403 . S
H705 C711 0.930 . S
C706 H692 0.930 . S
C706 C704 1.395 . S
C706 C709 1.403 . S
C707 C704 1.403 . S
C707 C708 1.524 . S
C707 C711 1.400 . S
C708 H693 0.960 . S
C708 H694 0.960 . S
C708 H695 0.960 . S
C708 C707 1.524 . S
C709 C706 1.403 . S
C709 C710 1.392 . S
C709 C713 1.473 1_545 S
C710 C709 1.392 . S
C710 C711 1.385 . S
C710 C712 1.478 . S
C711 H705 0.930 . S
C711 C707 1.400 . S
C711 C710 1.385 . S
C712 C710 1.478 . S
C712 C714 1.381 1_545 S
C712 C718 1.383 . S
C713 C709 1.473 1_565 S
C713 H719 0.958 1_565 S
C713 H720 0.961 . S
C713 H721 0.985 . S
C714 C712 1.381 1_565 S
C714 C715 1.394 . S
C714 H722 0.930 . S
C715 C714 1.394 . S
C715 C716 1.383 . S
C715 H723 0.929 . S
C716 C715 1.383 . S
C716 C717 1.377 . S
C717 H701 0.930 . S
C717 C716 1.377 . S
C717 C718 1.379 1_565 S
C718 H702 0.931 . S
C718 C712 1.383 . S
C718 C717 1.379 1_545 S
H719 C713 0.958 1_545 S
H720 C713 0.961 . S
H721 C713 0.985 . S
H722 C714 0.930 . S
H723 C715 0.929 . S
H724 C732 0.929 . S
H725 C734 0.930 . S
H726 C736 0.930 . S
H727 C739 0.929 . S
H728 C742 0.930 . S
H729 C744 0.960 . S
H730 C744 0.960 . S
H731 C744 0.960 . S
C732 H724 0.929 . S
C732 C733 1.377 . S
C732 C734 1.384 . S
C733 C732 1.377 . S
C733 C739 1.390 . S
C734 H725 0.930 . S
C734 C732 1.384 . S
C734 C735 1.372 . S
C735 C734 1.372 . S
C735 C736 1.400 . S
C735 C740 1.490 . S
C736 H726 0.930 . S
C736 C735 1.400 . S
C736 C739 1.386 . S
H737 C753 0.930 . S
H738 C754 0.931 . S
C739 H727 0.929 . S
C739 C733 1.390 . S
C739 C736 1.386 . S
C740 C735 1.490 . S
C740 C742 1.395 . S
C740 C743 1.403 . S
H741 C747 0.930 . S
C742 H728 0.930 . S
C742 C740 1.395 . S
C742 C745 1.403 . S
C743 C740 1.403 . S
C743 C744 1.524 . S
C743 C747 1.400 . S
C744 H729 0.960 . S
C744 H730 0.960 . S
C744 H731 0.960 . S
C744 C743 1.524 . S
C745 C742 1.403 . S
C745 C746 1.392 . S
C745 C749 1.495 . S
C746 C745 1.392 . S
C746 C747 1.385 . S
C746 C748 1.478 . S
C747 H741 0.930 . S
C747 C743 1.400 . S
C747 C746 1.385 . S
C748 C746 1.478 . S
C748 C750 1.381 . S
C748 C754 1.383 . S
C749 C745 1.495 . S
C749 H755 0.959 . S
C749 H756 0.961 . S
C749 H757 0.960 . S
C750 C748 1.381 . S
C750 C751 1.394 . S
C750 H758 0.930 . S
C751 C750 1.394 . S
C751 C752 1.383 . S
C751 H759 0.929 . S
C752 C751 1.383 . S
C752 C753 1.377 . S
C753 H737 0.930 . S
C753 C752 1.377 . S
C753 C754 1.379 . S
C754 H738 0.931 . S
C754 C748 1.383 . S
C754 C753 1.379 . S
H755 C749 0.959 . S
H756 C749 0.961 . S
H757 C749 0.960 . S
H758 C750 0.930 . S
H759 C751 0.929 . S
H760 C768 0.929 1_556 S
H761 C770 0.930 . S
H762 C772 0.930 . S
H763 C775 0.929 . S
H764 C778 0.930 . S
H765 C780 0.960 . S
H766 C780 0.960 1_556 S
H767 C780 0.960 . S
C768 H760 0.929 1_554 S
C768 C769 1.377 . S
C768 C770 1.384 1_554 S
C769 C768 1.377 . S
C769 C775 1.390 . S
C770 H761 0.930 . S
C770 C768 1.384 1_556 S
C770 C771 1.372 1_556 S
C771 C770 1.372 1_554 S
C771 C772 1.400 . S
C771 C776 1.490 . S
C772 H762 0.930 . S
C772 C771 1.400 . S
C772 C775 1.386 . S
H773 C789 0.930 1_554 S
H774 C790 0.931 . S
C775 H763 0.929 . S
C775 C769 1.390 . S
C775 C772 1.386 . S
C776 C771 1.490 . S
C776 C778 1.395 . S
C776 C779 1.403 . S
H777 C783 0.930 . S
C778 H764 0.930 . S
C778 C776 1.395 . S
C778 C781 1.403 1_564 S
C779 C776 1.403 . S
C779 C780 1.524 . S
C779 C783 1.400 1_554 S
C780 H765 0.960 . S
C780 H766 0.960 1_554 S
C780 H767 0.960 . S
C780 C779 1.524 . S
C781 C778 1.403 1_546 S
C781 C782 1.392 . S
C781 C785 1.495 . S
C782 C781 1.392 . S
C782 C783 1.385 1_545 S
C782 C784 1.478 . S
C783 H777 0.930 . S
C783 C779 1.400 1_556 S
C783 C782 1.385 1_565 S
C784 C782 1.478 . S
C784 C786 1.381 . S
C784 C790 1.383 1_556 S
C785 C781 1.495 . S
C785 H791 0.959 . S
C785 H792 0.961 1_556 S
C785 H793 0.960 . S
C786 C784 1.381 . S
C786 C787 1.394 . S
C786 H794 0.930 . S
C787 C786 1.394 . S
C787 C788 1.383 . S
C787 H795 0.929 . S
C788 C787 1.383 . S
C788 C789 1.377 . S
C789 H773 0.930 1_556 S
C789 C788 1.377 . S
C789 C790 1.379 1_556 S
C790 H774 0.931 . S
C790 C784 1.383 1_554 S
C790 C789 1.379 1_554 S
H791 C785 0.959 . S
H792 C785 0.961 1_554 S
H793 C785 0.960 . S
H794 C786 0.930 . S
H795 C787 0.929 . S
H796 C804 0.929 . S
H797 C806 0.930 . S
H798 C808 0.930 . S
H799 C811 0.929 . S
H800 C814 0.930 . S
H801 C816 0.960 . S
H802 C816 0.960 . S
H803 C816 0.960 . S
C804 H796 0.929 . S
C804 C805 1.377 . S
C804 C806 1.384 . S
C805 C804 1.377 . S
C805 C811 1.390 . S
C806 H797 0.930 . S
C806 C804 1.384 . S
C806 C807 1.372 . S
C807 C806 1.372 . S
C807 C808 1.400 . S
C807 C812 1.490 . S
C808 H798 0.930 . S
C808 C807 1.400 . S
C808 C811 1.386 . S
H809 C825 0.930 . S
H810 C826 0.931 . S
C811 H799 0.929 . S
C811 C805 1.390 . S
C811 C808 1.386 . S
C812 C807 1.490 . S
C812 C814 1.395 . S
C812 C815 1.403 . S
H813 C819 0.930 . S
C814 H800 0.930 . S
C814 C812 1.395 . S
C814 C817 1.403 . S
C815 C812 1.403 . S
C815 C816 1.524 . S
C815 C819 1.400 . S
C816 H801 0.960 . S
C816 H802 0.960 . S
C816 H803 0.960 . S
C816 C815 1.524 . S
C817 C814 1.403 . S
C817 C818 1.392 . S
C817 C821 1.495 . S
C818 C817 1.392 . S
C818 C819 1.385 . S
C818 C820 1.478 . S
C819 H813 0.930 . S
C819 C815 1.400 . S
C819 C818 1.385 . S
C820 C818 1.478 . S
C820 C822 1.381 . S
C820 C826 1.383 . S
C821 C817 1.495 . S
C821 H827 0.959 . S
C821 H828 0.961 . S
C821 H829 0.960 . S
C822 C820 1.381 . S
C822 C823 1.394 . S
C822 H830 0.930 . S
C823 C822 1.394 . S
C823 C824 1.383 . S
C823 H831 0.929 . S
C824 C823 1.383 . S
C824 C825 1.377 . S
C825 H809 0.930 . S
C825 C824 1.377 . S
C825 C826 1.379 . S
C826 H810 0.931 . S
C826 C820 1.383 . S
C826 C825 1.379 . S
H827 C821 0.959 . S
H828 C821 0.961 . S
H829 C821 0.960 . S
H830 C822 0.930 . S
H831 C823 0.929 . S
H832 C840 0.929 . S
H833 C842 0.930 . S
H834 C844 0.930 . S
H835 C847 0.929 . S
H836 C850 0.930 . S
H837 C852 0.960 . S
H838 C852 0.960 . S
H839 C852 0.960 . S
C840 H832 0.929 . S
C840 C841 1.377 . S
C840 C842 1.384 . S
C841 C840 1.377 . S
C841 C847 1.390 . S
C842 H833 0.930 . S
C842 C840 1.384 . S
C842 C843 1.372 . S
C843 C842 1.372 . S
C843 C844 1.400 . S
C843 C848 1.490 . S
C844 H834 0.930 . S
C844 C843 1.400 . S
C844 C847 1.386 . S
H845 C861 0.930 . S
H846 C862 0.931 . S
C847 H835 0.929 . S
C847 C841 1.390 . S
C847 C844 1.386 . S
C848 C843 1.490 . S
C848 C850 1.395 . S
C848 C851 1.403 . S
H849 C855 0.930 . S
C850 H836 0.930 . S
C850 C848 1.395 . S
C850 C853 1.403 . S
C851 C848 1.403 . S
C851 C852 1.524 . S
C851 C855 1.400 . S
C852 H837 0.960 . S
C852 H838 0.960 . S
C852 H839 0.960 . S
C852 C851 1.524 . S
C853 C850 1.403 . S
C853 C854 1.392 . S
C853 C857 1.495 . S
C854 C853 1.392 . S
C854 C855 1.385 . S
C854 C856 1.478 . S
C855 H849 0.930 . S
C855 C851 1.400 . S
C855 C854 1.385 . S
C856 C854 1.478 . S
C856 C858 1.381 . S
C856 C862 1.383 . S
C857 C853 1.495 . S
C857 H863 0.959 . S
C857 H864 0.961 . S
C857 H865 0.960 . S
C858 C856 1.381 . S
C858 C859 1.394 . S
C858 H866 0.930 . S
C859 C858 1.394 . S
C859 C860 1.383 . S
C859 H867 0.929 . S
C860 C859 1.383 . S
C860 C861 1.377 . S
C861 H845 0.930 . S
C861 C860 1.377 . S
C861 C862 1.379 . S
C862 H846 0.931 . S
C862 C856 1.383 . S
C862 C861 1.379 . S
H863 C857 0.959 . S
H864 C857 0.961 . S
H865 C857 0.960 . S
H866 C858 0.930 . S
H867 C859 0.929 . S
H868 C876 0.929 . S
H869 C878 0.930 . S
H870 C880 0.930 . S
H871 C883 0.929 . S
H872 C886 0.923 1_455 S
H873 C888 0.960 . S
H874 C888 0.960 1_455 S
H875 C888 0.960 1_455 S
C876 H868 0.929 . S
C876 C877 1.377 . S
C876 C878 1.384 . S
C877 C876 1.377 . S
C877 C883 1.390 . S
C878 H869 0.930 . S
C878 C876 1.384 . S
C878 C879 1.372 . S
C879 C878 1.372 . S
C879 C880 1.400 . S
C879 C884 1.490 . S
C880 H870 0.930 . S
C880 C879 1.400 . S
C880 C883 1.386 . S
H881 C897 0.930 . S
H882 C898 0.931 . S
C883 H871 0.929 . S
C883 C877 1.390 . S
C883 C880 1.386 . S
C884 C879 1.490 . S
C884 C886 1.392 1_455 S
C884 C887 1.403 1_455 S
H885 C891 0.930 . S
C886 H872 0.923 1_655 S
C886 C884 1.392 1_655 S
C886 C889 1.413 . S
C887 C884 1.403 1_655 S
C887 C888 1.524 . S
C887 C891 1.400 . S
C888 H873 0.960 . S
C888 H874 0.960 1_655 S
C888 H875 0.960 1_655 S
C888 C887 1.524 . S
C889 C886 1.413 . S
C889 C890 1.392 . S
C889 C893 1.495 . S
C890 C889 1.392 . S
C890 C891 1.385 . S
C890 C892 1.478 . S
C891 H885 0.930 . S
C891 C887 1.400 . S
C891 C890 1.385 . S
C892 C890 1.478 . S
C892 C894 1.381 . S
C892 C898 1.383 . S
C893 C889 1.495 . S
C893 H899 0.959 . S
C893 H900 0.961 . S
C893 H901 0.960 . S
C894 C892 1.381 . S
C894 C895 1.394 . S
C894 H902 0.930 . S
C895 C894 1.394 . S
C895 C896 1.383 . S
C895 H903 0.929 . S
C896 C895 1.383 . S
C896 C897 1.377 . S
C897 H881 0.930 . S
C897 C896 1.377 . S
C897 C898 1.379 . S
C898 H882 0.931 . S
C898 C892 1.383 . S
C898 C897 1.379 . S
H899 C893 0.959 . S
H900 C893 0.961 . S
H901 C893 0.960 . S
H902 C894 0.930 . S
H903 C895 0.929 . S
H904 C912 0.929 . S
H905 C914 0.930 . S
H906 C916 0.930 . S
H907 C919 0.929 . S
H908 C922 0.930 . S
H909 C924 0.960 . S
H910 C924 0.960 . S
H911 C924 0.960 . S
C912 H904 0.929 . S
C912 C913 1.377 . S
C912 C914 1.384 . S
C913 C912 1.377 . S
C913 C919 1.390 . S
C914 H905 0.930 . S
C914 C912 1.384 . S
C914 C915 1.372 . S
C915 C914 1.372 . S
C915 C916 1.400 . S
C915 C920 1.490 . S
C916 H906 0.930 . S
C916 C915 1.400 . S
C916 C919 1.386 . S
H917 C933 0.930 . S
H918 C934 0.931 . S
C919 H907 0.929 . S
C919 C913 1.390 . S
C919 C916 1.386 . S
C920 C915 1.490 . S
C920 C922 1.395 . S
C920 C923 1.403 . S
H921 C927 0.930 . S
C922 H908 0.930 . S
C922 C920 1.395 . S
C922 C925 1.403 . S
C923 C920 1.403 . S
C923 C924 1.524 . S
C923 C927 1.400 . S
C924 H909 0.960 . S
C924 H910 0.960 . S
C924 H911 0.960 . S
C924 C923 1.524 . S
C925 C922 1.403 . S
C925 C926 1.392 . S
C925 C929 1.495 . S
C926 C925 1.392 . S
C926 C927 1.385 . S
C926 C928 1.478 . S
C927 H921 0.930 . S
C927 C923 1.400 . S
C927 C926 1.385 . S
C928 C926 1.478 . S
C928 C930 1.381 . S
C928 C934 1.383 . S
C929 C925 1.495 . S
C929 H935 0.959 . S
C929 H936 0.961 . S
C929 H937 0.960 . S
C930 C928 1.381 . S
C930 C931 1.394 . S
C930 H938 0.930 . S
C931 C930 1.394 . S
C931 C932 1.383 . S
C931 H939 0.929 . S
C932 C931 1.383 . S
C932 C933 1.377 . S
C933 H917 0.930 . S
C933 C932 1.377 . S
C933 C934 1.379 . S
C934 H918 0.931 . S
C934 C928 1.383 . S
C934 C933 1.379 . S
H935 C929 0.959 . S
H936 C929 0.961 . S
H937 C929 0.960 . S
H938 C930 0.930 . S
H939 C931 0.929 . S
H940 C948 0.929 . S
H941 C950 0.930 . S
H942 C952 0.930 . S
H943 C955 0.929 . S
H944 C958 0.930 . S
H945 C960 0.960 . S
H946 C960 0.960 . S
H947 C960 0.960 . S
C948 H940 0.929 . S
C948 C949 1.377 . S
C948 C950 1.384 . S
C949 C948 1.377 . S
C949 C955 1.390 . S
C950 H941 0.930 . S
C950 C948 1.384 . S
C950 C951 1.372 . S
C951 C950 1.372 . S
C951 C952 1.400 . S
C951 C956 1.490 . S
C952 H942 0.930 . S
C952 C951 1.400 . S
C952 C955 1.386 . S
H953 C969 0.930 . S
H954 C970 0.931 . S
C955 H943 0.929 . S
C955 C949 1.390 . S
C955 C952 1.386 . S
C956 C951 1.490 . S
C956 C958 1.395 . S
C956 C959 1.403 . S
H957 C963 0.930 . S
C958 H944 0.930 . S
C958 C956 1.395 . S
C958 C961 1.403 . S
C959 C956 1.403 . S
C959 C960 1.524 . S
C959 C963 1.400 . S
C960 H945 0.960 . S
C960 H946 0.960 . S
C960 H947 0.960 . S
C960 C959 1.524 . S
C961 C958 1.403 . S
C961 C962 1.392 . S
C961 C965 1.495 . S
C962 C961 1.392 . S
C962 C963 1.385 . S
C962 C964 1.478 . S
C963 H957 0.930 . S
C963 C959 1.400 . S
C963 C962 1.385 . S
C964 C962 1.478 . S
C964 C966 1.381 . S
C964 C970 1.383 . S
C965 C961 1.495 . S
C965 H971 0.959 . S
C965 H972 0.961 . S
C965 H973 0.960 . S
C966 C964 1.381 . S
C966 C967 1.394 . S
C966 H974 0.930 . S
C967 C966 1.394 . S
C967 C968 1.383 . S
C967 H975 0.929 . S
C968 C967 1.383 . S
C968 C969 1.377 . S
C969 H953 0.930 . S
C969 C968 1.377 . S
C969 C970 1.379 . S
C970 H954 0.931 . S
C970 C964 1.383 . S
C970 C969 1.379 . S
H971 C965 0.959 . S
H972 C965 0.961 . S
H973 C965 0.960 . S
H974 C966 0.930 . S
H975 C967 0.929 . S
H976 C984 0.929 . S
H977 C986 0.930 . S
H978 C988 0.930 . S
H979 C991 0.929 . S
H980 C994 0.930 . S
H981 C996 0.960 . S
H982 C996 0.960 . S
H983 C996 0.960 . S
C984 H976 0.929 . S
C984 C985 1.377 . S
C984 C986 1.384 . S
C985 C984 1.377 . S
C985 C991 1.390 . S
C986 H977 0.930 . S
C986 C984 1.384 . S
C986 C987 1.372 . S
C987 C986 1.372 . S
C987 C988 1.400 . S
C987 C992 1.490 . S
C988 H978 0.930 . S
C988 C987 1.400 . S
C988 C991 1.386 . S
H989 C1005 0.930 . S
H990 C1006 0.931 . S
C991 H979 0.929 . S
C991 C985 1.390 . S
C991 C988 1.386 . S
C992 C987 1.490 . S
C992 C994 1.395 . S
C992 C995 1.403 . S
H993 C999 0.930 . S
C994 H980 0.930 . S
C994 C992 1.395 . S
C994 C997 1.403 . S
C995 C992 1.403 . S
C995 C996 1.524 . S
C995 C999 1.400 . S
C996 H981 0.960 . S
C996 H982 0.960 . S
C996 H983 0.960 . S
C996 C995 1.524 . S
C997 C994 1.403 . S
C997 C998 1.392 . S
C997 C1001 1.495 . S
C998 C997 1.392 . S
C998 C999 1.385 . S
C998 C1000 1.478 . S
C999 H993 0.930 . S
C999 C995 1.400 . S
C999 C998 1.385 . S
C1000 C998 1.478 . S
C1000 C1002 1.381 . S
C1000 C1006 1.383 . S
C1001 C997 1.495 . S
C1001 H1007 0.959 . S
C1001 H1008 0.961 . S
C1001 H1009 0.960 . S
C1002 C1000 1.381 . S
C1002 C1003 1.394 . S
C1002 H1010 0.930 . S
C1003 C1002 1.394 . S
C1003 C1004 1.383 . S
C1003 H1011 0.929 . S
C1004 C1003 1.383 . S
C1004 C1005 1.377 . S
C1005 H989 0.930 . S
C1005 C1004 1.377 . S
C1005 C1006 1.379 . S
C1006 H990 0.931 . S
C1006 C1000 1.383 . S
C1006 C1005 1.379 . S
H1007 C1001 0.959 . S
H1008 C1001 0.961 . S
H1009 C1001 0.960 . S
H1010 C1002 0.930 . S
H1011 C1003 0.929 . S
H1012 C1020 0.929 . S
H1013 C1022 0.930 . S
H1014 C1024 0.930 . S
H1015 C1027 0.929 . S
H1016 C1030 0.930 . S
H1017 C1032 0.960 . S
H1018 C1032 0.960 . S
H1019 C1032 0.960 . S
C1020 H1012 0.929 . S
C1020 C1021 1.377 . S
C1020 C1022 1.384 . S
C1021 C1020 1.377 . S
C1021 C1027 1.390 . S
C1022 H1013 0.930 . S
C1022 C1020 1.384 . S
C1022 C1023 1.372 . S
C1023 C1022 1.372 . S
C1023 C1024 1.400 . S
C1023 C1028 1.490 . S
C1024 H1014 0.930 . S
C1024 C1023 1.400 . S
C1024 C1027 1.386 . S
H1025 C1041 0.930 . S
H1026 C1042 0.931 . S
C1027 H1015 0.929 . S
C1027 C1021 1.390 . S
C1027 C1024 1.386 . S
C1028 C1023 1.490 . S
C1028 C1030 1.395 . S
C1028 C1031 1.403 . S
H1029 C1035 0.930 . S
C1030 H1016 0.930 . S
C1030 C1028 1.395 . S
C1030 C1033 1.403 . S
C1031 C1028 1.403 . S
C1031 C1032 1.524 . S
C1031 C1035 1.400 . S
C1032 H1017 0.960 . S
C1032 H1018 0.960 . S
C1032 H1019 0.960 . S
C1032 C1031 1.524 . S
C1033 C1030 1.403 . S
C1033 C1034 1.392 . S
C1033 C1037 1.495 . S
C1034 C1033 1.392 . S
C1034 C1035 1.385 . S
C1034 C1036 1.478 . S
C1035 H1029 0.930 . S
C1035 C1031 1.400 . S
C1035 C1034 1.385 . S
C1036 C1034 1.478 . S
C1036 C1038 1.381 . S
C1036 C1042 1.383 . S
C1037 C1033 1.495 . S
C1037 H1043 0.959 . S
C1037 H1044 0.961 . S
C1037 H1045 0.960 . S
C1038 C1036 1.381 . S
C1038 C1039 1.394 . S
C1038 H1046 0.930 . S
C1039 C1038 1.394 . S
C1039 C1040 1.383 . S
C1039 H1047 0.929 . S
C1040 C1039 1.383 . S
C1040 C1041 1.377 . S
C1041 H1025 0.930 . S
C1041 C1040 1.377 . S
C1041 C1042 1.379 . S
C1042 H1026 0.931 . S
C1042 C1036 1.383 . S
C1042 C1041 1.379 . S
H1043 C1037 0.959 . S
H1044 C1037 0.961 . S
H1045 C1037 0.960 . S
H1046 C1038 0.930 . S
H1047 C1039 0.929 . S
H1048 C1056 0.929 . S
H1049 C1058 0.930 . S
H1050 C1060 0.930 . S
H1051 C1063 0.929 . S
H1052 C1066 0.930 . S
H1053 C1068 0.960 . S
H1054 C1068 0.960 . S
H1055 C1068 0.960 . S
C1056 H1048 0.929 . S
C1056 C1057 1.377 . S
C1056 C1058 1.384 . S
C1057 C1056 1.377 . S
C1057 C1063 1.390 . S
C1058 H1049 0.930 . S
C1058 C1056 1.384 . S
C1058 C1059 1.372 . S
C1059 C1058 1.372 . S
C1059 C1060 1.400 . S
C1059 C1064 1.490 . S
C1060 H1050 0.930 . S
C1060 C1059 1.400 . S
C1060 C1063 1.386 . S
H1061 C1077 0.930 . S
H1062 C1078 0.931 . S
C1063 H1051 0.929 . S
C1063 C1057 1.390 . S
C1063 C1060 1.386 . S
C1064 C1059 1.490 . S
C1064 C1066 1.395 . S
C1064 C1067 1.403 . S
H1065 C1071 0.930 . S
C1066 H1052 0.930 . S
C1066 C1064 1.395 . S
C1066 C1069 1.403 . S
C1067 C1064 1.403 . S
C1067 C1068 1.524 . S
C1067 C1071 1.400 . S
C1068 H1053 0.960 . S
C1068 H1054 0.960 . S
C1068 H1055 0.960 . S
C1068 C1067 1.524 . S
C1069 C1066 1.403 . S
C1069 C1070 1.392 . S
C1069 C1073 1.495 . S
C1070 C1069 1.392 . S
C1070 C1071 1.385 . S
C1070 C1072 1.478 . S
C1071 H1065 0.930 . S
C1071 C1067 1.400 . S
C1071 C1070 1.385 . S
C1072 C1070 1.478 . S
C1072 C1074 1.381 . S
C1072 C1078 1.383 . S
C1073 C1069 1.495 . S
C1073 H1079 0.959 . S
C1073 H1080 0.961 . S
C1073 H1081 0.960 . S
C1074 C1072 1.381 . S
C1074 C1075 1.394 . S
C1074 H1082 0.930 . S
C1075 C1074 1.394 . S
C1075 C1076 1.383 . S
C1075 H1083 0.929 . S
C1076 C1075 1.383 . S
C1076 C1077 1.377 . S
C1077 H1061 0.930 . S
C1077 C1076 1.377 . S
C1077 C1078 1.379 . S
C1078 H1062 0.931 . S
C1078 C1072 1.383 . S
C1078 C1077 1.379 . S
H1079 C1073 0.959 . S
H1080 C1073 0.961 . S
H1081 C1073 0.960 . S
H1082 C1074 0.930 . S
H1083 C1075 0.929 . S
H1084 C1092 0.929 . S
H1085 C1094 0.930 . S
H1086 C1096 0.930 . S
H1087 C1099 0.929 . S
H1088 C1102 0.930 . S
H1089 C1104 0.960 . S
H1090 C1104 0.960 . S
H1091 C1104 0.960 . S
C1092 H1084 0.929 . S
C1092 C1093 1.377 . S
C1092 C1094 1.384 . S
C1093 C1092 1.377 . S
C1093 C1099 1.390 . S
C1094 H1085 0.930 . S
C1094 C1092 1.384 . S
C1094 C1095 1.372 . S
C1095 C1094 1.372 . S
C1095 C1096 1.400 . S
C1095 C1100 1.490 . S
C1096 H1086 0.930 . S
C1096 C1095 1.400 . S
C1096 C1099 1.386 . S
H1097 C1113 0.930 . S
H1098 C1114 0.931 . S
C1099 H1087 0.929 . S
C1099 C1093 1.390 . S
C1099 C1096 1.386 . S
C1100 C1095 1.490 . S
C1100 C1102 1.395 . S
C1100 C1103 1.403 . S
H1101 C1107 0.930 . S
C1102 H1088 0.930 . S
C1102 C1100 1.395 . S
C1102 C1105 1.403 . S
C1103 C1100 1.403 . S
C1103 C1104 1.524 . S
C1103 C1107 1.400 . S
C1104 H1089 0.960 . S
C1104 H1090 0.960 . S
C1104 H1091 0.960 . S
C1104 C1103 1.524 . S
C1105 C1102 1.403 . S
C1105 C1106 1.392 . S
C1105 C1109 1.495 . S
C1106 C1105 1.392 . S
C1106 C1107 1.385 . S
C1106 C1108 1.478 . S
C1107 H1101 0.930 . S
C1107 C1103 1.400 . S
C1107 C1106 1.385 . S
C1108 C1106 1.478 . S
C1108 C1110 1.381 . S
C1108 C1114 1.383 . S
C1109 C1105 1.495 . S
C1109 H1115 0.959 . S
C1109 H1116 0.961 . S
C1109 H1117 0.960 . S
C1110 C1108 1.381 . S
C1110 C1111 1.394 . S
C1110 H1118 0.930 . S
C1111 C1110 1.394 . S
C1111 C1112 1.383 . S
C1111 H1119 0.929 . S
C1112 C1111 1.383 . S
C1112 C1113 1.377 . S
C1113 H1097 0.930 . S
C1113 C1112 1.377 . S
C1113 C1114 1.379 . S
C1114 H1098 0.931 . S
C1114 C1108 1.383 . S
C1114 C1113 1.379 . S
H1115 C1109 0.959 . S
H1116 C1109 0.961 . S
H1117 C1109 0.960 . S
H1118 C1110 0.930 . S
H1119 C1111 0.929 . S
H1120 C1128 0.929 . S
H1121 C1130 0.930 . S
H1122 C1132 0.930 . S
H1123 C1135 0.929 . S
H1124 C1138 0.930 . S
H1125 C1140 0.960 . S
H1126 C1140 0.960 . S
H1127 C1140 0.960 . S
C1128 H1120 0.929 . S
C1128 C1129 1.377 . S
C1128 C1130 1.384 . S
C1129 C1128 1.377 . S
C1129 C1135 1.390 . S
C1130 H1121 0.930 . S
C1130 C1128 1.384 . S
C1130 C1131 1.372 . S
C1131 C1130 1.372 . S
C1131 C1132 1.400 . S
C1131 C1136 1.490 . S
C1132 H1122 0.930 . S
C1132 C1131 1.400 . S
C1132 C1135 1.386 . S
H1133 C1149 0.930 . S
H1134 C1150 0.931 . S
C1135 H1123 0.929 . S
C1135 C1129 1.390 . S
C1135 C1132 1.386 . S
C1136 C1131 1.490 . S
C1136 C1138 1.395 . S
C1136 C1139 1.403 . S
H1137 C1143 0.930 . S
C1138 H1124 0.930 . S
C1138 C1136 1.395 . S
C1138 C1141 1.403 . S
C1139 C1136 1.403 . S
C1139 C1140 1.524 . S
C1139 C1143 1.400 . S
C1140 H1125 0.960 . S
C1140 H1126 0.960 . S
C1140 H1127 0.960 . S
C1140 C1139 1.524 . S
C1141 C1138 1.403 . S
C1141 C1142 1.392 . S
C1141 C1145 1.495 . S
C1142 C1141 1.392 . S
C1142 C1143 1.385 . S
C1142 C1144 1.478 . S
C1143 H1137 0.930 . S
C1143 C1139 1.400 . S
C1143 C1142 1.385 . S
C1144 C1142 1.478 . S
C1144 C1146 1.381 . S
C1144 C1150 1.383 . S
C1145 C1141 1.495 . S
C1145 H1151 0.959 . S
C1145 H1152 0.961 . S
C1145 H1153 0.960 . S
C1146 C1144 1.381 . S
C1146 C1147 1.394 . S
C1146 H1154 0.930 . S
C1147 C1146 1.394 . S
C1147 C1148 1.383 . S
C1147 H1155 0.929 . S
C1148 C1147 1.383 . S
C1148 C1149 1.377 . S
C1149 H1133 0.930 . S
C1149 C1148 1.377 . S
C1149 C1150 1.379 . S
C1150 H1134 0.931 . S
C1150 C1144 1.383 . S
C1150 C1149 1.379 . S
H1151 C1145 0.959 . S
H1152 C1145 0.961 . S
H1153 C1145 0.960 . S
H1154 C1146 0.930 . S
H1155 C1147 0.929 . S
H1156 C1164 0.929 . S
H1157 C1166 0.930 . S
H1158 C1168 0.930 . S
H1159 C1171 0.929 . S
H1160 C1174 0.930 . S
H1161 C1176 0.960 . S
H1162 C1176 0.960 . S
H1163 C1176 0.960 . S
C1164 H1156 0.929 . S
C1164 C1165 1.377 . S
C1164 C1166 1.384 . S
C1165 C1164 1.377 . S
C1165 C1171 1.390 . S
C1166 H1157 0.930 . S
C1166 C1164 1.384 . S
C1166 C1167 1.372 . S
C1167 C1166 1.372 . S
C1167 C1168 1.400 . S
C1167 C1172 1.490 . S
C1168 H1158 0.930 . S
C1168 C1167 1.400 . S
C1168 C1171 1.386 . S
H1169 C1185 0.930 . S
H1170 C1186 0.931 . S
C1171 H1159 0.929 . S
C1171 C1165 1.390 . S
C1171 C1168 1.386 . S
C1172 C1167 1.490 . S
C1172 C1174 1.395 . S
C1172 C1175 1.403 . S
H1173 C1179 0.930 . S
C1174 H1160 0.930 . S
C1174 C1172 1.395 . S
C1174 C1177 1.403 . S
C1175 C1172 1.403 . S
C1175 C1176 1.524 . S
C1175 C1179 1.400 . S
C1176 H1161 0.960 . S
C1176 H1162 0.960 . S
C1176 H1163 0.960 . S
C1176 C1175 1.524 . S
C1177 C1174 1.403 . S
C1177 C1178 1.392 . S
C1177 C1181 1.495 . S
C1178 C1177 1.392 . S
C1178 C1179 1.385 . S
C1178 C1180 1.478 . S
C1179 H1173 0.930 . S
C1179 C1175 1.400 . S
C1179 C1178 1.385 . S
C1180 C1178 1.478 . S
C1180 C1182 1.381 . S
C1180 C1186 1.383 . S
C1181 C1177 1.495 . S
C1181 H1187 0.959 . S
C1181 H1188 0.961 . S
C1181 H1189 0.960 . S
C1182 C1180 1.381 . S
C1182 C1183 1.394 . S
C1182 H1190 0.930 . S
C1183 C1182 1.394 . S
C1183 C1184 1.383 . S
C1183 H1191 0.929 . S
C1184 C1183 1.383 . S
C1184 C1185 1.377 . S
C1185 H1169 0.930 . S
C1185 C1184 1.377 . S
C1185 C1186 1.379 . S
C1186 H1170 0.931 . S
C1186 C1180 1.383 . S
C1186 C1185 1.379 . S
H1187 C1181 0.959 . S
H1188 C1181 0.961 . S
H1189 C1181 0.960 . S
H1190 C1182 0.930 . S
H1191 C1183 0.929 . S
H1192 C1200 0.929 . S
H1193 C1202 0.930 . S
H1194 C1204 0.930 . S
H1195 C1207 0.929 . S
H1196 C1210 0.930 . S
H1197 C1212 0.960 . S
H1198 C1212 0.960 . S
H1199 C1212 0.960 . S
C1200 H1192 0.929 . S
C1200 C1201 1.377 . S
C1200 C1202 1.384 . S
C1201 C1200 1.377 . S
C1201 C1207 1.390 . S
C1202 H1193 0.930 . S
C1202 C1200 1.384 . S
C1202 C1203 1.372 . S
C1203 C1202 1.372 . S
C1203 C1204 1.400 . S
C1203 C1208 1.490 . S
C1204 H1194 0.930 . S
C1204 C1203 1.400 . S
C1204 C1207 1.386 . S
H1205 C1221 0.930 . S
H1206 C1222 0.931 . S
C1207 H1195 0.929 . S
C1207 C1201 1.390 . S
C1207 C1204 1.386 . S
C1208 C1203 1.490 . S
C1208 C1210 1.395 . S
C1208 C1211 1.403 . S
H1209 C1215 0.930 . S
C1210 H1196 0.930 . S
C1210 C1208 1.395 . S
C1210 C1213 1.403 . S
C1211 C1208 1.403 . S
C1211 C1212 1.524 . S
C1211 C1215 1.400 . S
C1212 H1197 0.960 . S
C1212 H1198 0.960 . S
C1212 H1199 0.960 . S
C1212 C1211 1.524 . S
C1213 C1210 1.403 . S
C1213 C1214 1.392 . S
C1213 C1217 1.495 . S
C1214 C1213 1.392 . S
C1214 C1215 1.385 . S
C1214 C1216 1.478 . S
C1215 H1209 0.930 . S
C1215 C1211 1.400 . S
C1215 C1214 1.385 . S
C1216 C1214 1.478 . S
C1216 C1218 1.381 . S
C1216 C1222 1.383 . S
C1217 C1213 1.495 . S
C1217 H1223 0.959 . S
C1217 H1224 0.961 . S
C1217 H1225 0.960 . S
C1218 C1216 1.381 . S
C1218 C1219 1.394 . S
C1218 H1226 0.930 . S
C1219 C1218 1.394 . S
C1219 C1220 1.383 . S
C1219 H1227 0.929 . S
C1220 C1219 1.383 . S
C1220 C1221 1.377 . S
C1221 H1205 0.930 . S
C1221 C1220 1.377 . S
C1221 C1222 1.379 . S
C1222 H1206 0.931 . S
C1222 C1216 1.383 . S
C1222 C1221 1.379 . S
H1223 C1217 0.959 . S
H1224 C1217 0.961 . S
H1225 C1217 0.960 . S
H1226 C1218 0.930 . S
H1227 C1219 0.929 . S
H1228 C1236 0.929 . S
H1229 C1238 0.930 . S
H1230 C1240 0.930 . S
H1231 C1243 0.929 . S
H1232 C1246 0.930 . S
H1233 C1248 0.960 . S
H1234 C1248 0.960 . S
H1235 C1248 0.960 . S
C1236 H1228 0.929 . S
C1236 C1237 1.377 . S
C1236 C1238 1.384 . S
C1237 C1236 1.377 . S
C1237 C1243 1.390 . S
C1238 H1229 0.930 . S
C1238 C1236 1.384 . S
C1238 C1239 1.372 . S
C1239 C1238 1.372 . S
C1239 C1240 1.400 . S
C1239 C1244 1.490 1_554 S
C1240 H1230 0.930 . S
C1240 C1239 1.400 . S
C1240 C1243 1.386 . S
H1241 C1257 0.930 . S
H1242 C1258 0.931 . S
C1243 H1231 0.929 . S
C1243 C1237 1.390 . S
C1243 C1240 1.386 . S
C1244 C1239 1.490 1_556 S
C1244 C1246 1.395 . S
C1244 C1247 1.403 1_556 S
H1245 C1251 0.943 . S
C1246 H1232 0.930 . S
C1246 C1244 1.395 . S
C1246 C1249 1.403 . S
C1247 C1244 1.403 1_554 S
C1247 C1248 1.524 . S
C1247 C1251 1.400 1_554 S
C1248 H1233 0.960 . S
C1248 H1234 0.960 . S
C1248 H1235 0.960 . S
C1248 C1247 1.524 . S
C1249 C1246 1.403 . S
C1249 C1250 1.392 . S
C1249 C1253 1.495 . S
C1250 C1249 1.392 . S
C1250 C1251 1.385 . S
C1250 C1252 1.478 . S
C1251 H1245 0.943 . S
C1251 C1247 1.400 1_556 S
C1251 C1250 1.385 . S
C1252 C1250 1.478 . S
C1252 C1254 1.381 . S
C1252 C1258 1.383 . S
C1253 C1249 1.495 . S
C1253 H1259 0.959 . S
C1253 H1260 0.961 . S
C1253 H1261 0.960 . S
C1254 C1252 1.381 . S
C1254 C1255 1.394 . S
C1254 H1262 0.930 . S
C1255 C1254 1.394 . S
C1255 C1256 1.383 . S
C1255 H1263 0.929 . S
C1256 C1255 1.383 . S
C1256 C1257 1.377 . S
C1257 H1241 0.930 . S
C1257 C1256 1.377 . S
C1257 C1258 1.379 . S
C1258 H1242 0.931 . S
C1258 C1252 1.383 . S
C1258 C1257 1.379 . S
H1259 C1253 0.959 . S
H1260 C1253 0.961 . S
H1261 C1253 0.960 . S
H1262 C1254 0.930 . S
H1263 C1255 0.929 . S
C409 C7 1.475 . S
C428 C104 1.414 . S
C445 C37 1.336 . S
C464 C143 1.257 . S
C481 C54 1.563 . S
C500 C182 1.485 . S
C536 C206 1.404 . S
C517 C87 1.417 . S
C572 C245 1.399 . S
C553 C30 1.421 . S
C589 C51 1.447 . S
C608 C284 1.449 . S
C625 C84 1.619 . S
C644 C338 1.542 . S
C661 C10 1.280 1_556 S
C680 C362 1.216 . S
C697 C59 1.491 . S
C716 C377 1.441 . S
C752 C260 1.237 . S
C733 C74 1.292 . S
C788 C299 1.498 . S
C769 C18 1.623 . S
C805 C32 1.416 . S
C824 C323 1.373 . S
C860 C128 1.462 . S
C841 C73 1.482 . S
C877 C15 1.420 . S
C896 C167 1.415 . S
C932 C221 1.587 . S
C913 C43 1.630 . S
C968 C89 1.187 . S
C949 C62 1.289 . S
C1004 C343 1.411 . S
C985 C21 1.473 . S
C1040 C382 1.268 . S
C1021 C29 1.262 . S
C1057 C52 1.215 . S
C1076 C265 1.184 . S
C1112 C304 1.432 . S
C1093 C81 1.457 . S
C1148 C187 1.386 . S
C1129 C40 1.420 . S
C1165 C65 1.445 . S
C1184 C226 1.423 . S
C1220 C109 1.218 . S
C1201 C76 1.228 . S
C1256 C148 1.216 . S
C1237 C8 1.269 . S
