# Generated by pormake.
# Topology pyr, (3,6)-cn, num edge types: 1
# Building blocks:
#     Node 0, Type 0, BuildingBlock: VETTIZ_charged_linker_0, # of connection points: 3
#     Node 1, Type 0, BuildingBlock: VETTIZ_charged_linker_0, # of connection points: 3
#     Node 2, Type 0, BuildingBlock: VETTIZ_charged_linker_0, # of connection points: 3
#     Node 3, Type 0, BuildingBlock: VETTIZ_charged_linker_0, # of connection points: 3
#     Node 4, Type 0, BuildingBlock: VETTIZ_charged_linker_0, # of connection points: 3
#     Node 5, Type 0, BuildingBlock: VETTIZ_charged_linker_0, # of connection points: 3
#     Node 6, Type 0, BuildingBlock: VETTIZ_charged_linker_0, # of connection points: 3
#     Node 7, Type 0, BuildingBlock: VETTIZ_charged_linker_0, # of connection points: 3
#     Node 8, Type 1, BuildingBlock: BETGAK_clean_sbu_0, # of connection points: 6
#     Node 9, Type 1, BuildingBlock: BETGAK_clean_sbu_0, # of connection points: 6
#     Node 10, Type 1, BuildingBlock: BETGAK_clean_sbu_0, # of connection points: 6
#     Node 11, Type 1, BuildingBlock: BETGAK_clean_sbu_0, # of connection points: 6
#     Edge 12, Type (0, 1), BuildingBlock: OJICUG_clean_linker_0, # of connection points: 2
#     Edge 13, Type (0, 1), BuildingBlock: OJICUG_clean_linker_0, # of connection points: 2
#     Edge 14, Type (0, 1), BuildingBlock: OJICUG_clean_linker_0, # of connection points: 2
#     Edge 15, Type (0, 1), BuildingBlock: OJICUG_clean_linker_0, # of connection points: 2
#     Edge 16, Type (0, 1), BuildingBlock: OJICUG_clean_linker_0, # of connection points: 2
#     Edge 17, Type (0, 1), BuildingBlock: OJICUG_clean_linker_0, # of connection points: 2
#     Edge 18, Type (0, 1), BuildingBlock: OJICUG_clean_linker_0, # of connection points: 2
#     Edge 19, Type (0, 1), BuildingBlock: OJICUG_clean_linker_0, # of connection points: 2
#     Edge 20, Type (0, 1), BuildingBlock: OJICUG_clean_linker_0, # of connection points: 2
#     Edge 21, Type (0, 1), BuildingBlock: OJICUG_clean_linker_0, # of connection points: 2
#     Edge 22, Type (0, 1), BuildingBlock: OJICUG_clean_linker_0, # of connection points: 2
#     Edge 23, Type (0, 1), BuildingBlock: OJICUG_clean_linker_0, # of connection points: 2
#     Edge 24, Type (0, 1), BuildingBlock: OJICUG_clean_linker_0, # of connection points: 2
#     Edge 25, Type (0, 1), BuildingBlock: OJICUG_clean_linker_0, # of connection points: 2
#     Edge 26, Type (0, 1), BuildingBlock: OJICUG_clean_linker_0, # of connection points: 2
#     Edge 27, Type (0, 1), BuildingBlock: OJICUG_clean_linker_0, # of connection points: 2
#     Edge 28, Type (0, 1), BuildingBlock: OJICUG_clean_linker_0, # of connection points: 2
#     Edge 29, Type (0, 1), BuildingBlock: OJICUG_clean_linker_0, # of connection points: 2
#     Edge 30, Type (0, 1), BuildingBlock: OJICUG_clean_linker_0, # of connection points: 2
#     Edge 31, Type (0, 1), BuildingBlock: OJICUG_clean_linker_0, # of connection points: 2
#     Edge 32, Type (0, 1), BuildingBlock: OJICUG_clean_linker_0, # of connection points: 2
#     Edge 33, Type (0, 1), BuildingBlock: OJICUG_clean_linker_0, # of connection points: 2
#     Edge 34, Type (0, 1), BuildingBlock: OJICUG_clean_linker_0, # of connection points: 2
#     Edge 35, Type (0, 1), BuildingBlock: OJICUG_clean_linker_0, # of connection points: 2
# Relax obj value: 0.138
# Max RMSD: 0.131
# Mean RMSD: 0.064
data_MOF--net-pyr--node1-BETGAK_clean_sbu_0--node2-VETTIZ_charged_linker_0--edge1-OJICUG_clean_linker_0
_symmetry_space_group_name_H-M    P1
_symmetry_Int_Tables_number       1
_symmetry_cell_setting            triclinic
loop_
_symmetry_equiv_pos_as_xyz
'x, y, z'
_cell_length_a     35.738707
_cell_length_b     37.870611
_cell_length_c     34.790934
_cell_angle_alpha  90.966402
_cell_angle_beta   88.829733
_cell_angle_gamma 101.04087
loop_
_atom_site_label
_atom_site_type_symbol
_atom_site_fract_x
_atom_site_fract_y
_atom_site_fract_z
_atom_type_partial_charge
C0 C 0.35056 0.26317 0.37639 0.0
C1 C 0.31622 0.27005 0.39258 0.0
C2 C 0.30239 0.30029 0.38 0.0
C3 C 0.34916 0.30819 0.32812 0.0
C4 C 0.3659 0.28174 0.34344 0.0
C5 C 0.39589 0.27132 0.31686 0.0
H6 H 0.44909 0.24787 0.1355 0.0
C7 C 0.36445 0.31523 0.28867 0.0
C8 C 0.39218 0.29406 0.28195 0.0
H9 H 0.4921 0.20902 0.23877 0.0
H10 H 0.46181 0.24964 0.27725 0.0
H11 H 0.46339 0.33432 0.16681 0.0
H12 H 0.36573 0.24743 0.16443 0.0
H13 H 0.35229 0.28678 0.14783 0.0
H14 H 0.38803 0.26836 0.12164 0.0
H15 H 0.43849 0.32035 0.1232 0.0
H16 H 0.42328 0.35262 0.15591 0.0
C17 C 0.43529 0.28258 0.33592 0.0
C18 C 0.38444 0.23038 0.30805 0.0
C19 C 0.29227 0.38159 0.19961 0.0
C20 C 0.29223 0.38543 0.15953 0.0
C21 C 0.31973 0.37196 0.13694 0.0
C22 C 0.34619 0.35425 0.15409 0.0
C23 C 0.34467 0.34934 0.19416 0.0
C24 C 0.31834 0.36347 0.21616 0.0
C25 C 0.31913 0.35438 0.25791 0.0
C26 C 0.351 0.33303 0.2577 0.0
C27 C 0.36571 0.32987 0.22029 0.0
C28 C 0.33012 0.38993 0.28118 0.0
C29 C 0.27966 0.33131 0.26944 0.0
C30 C 0.45211 0.24828 0.16643 0.0
C31 C 0.47195 0.22441 0.18425 0.0
C32 C 0.47664 0.22678 0.22436 0.0
C33 C 0.45867 0.24998 0.2467 0.0
C34 C 0.43509 0.27026 0.22882 0.0
C35 C 0.43405 0.27108 0.18925 0.0
C36 C 0.40912 0.29605 0.17551 0.0
C37 C 0.39383 0.30843 0.21349 0.0
C38 C 0.40826 0.29215 0.24449 0.0
C39 C 0.43461 0.32745 0.15394 0.0
C40 C 0.37712 0.27379 0.15084 0.0
H41 H 0.30617 0.34123 0.33868 0.0
H42 H 0.36272 0.24102 0.38647 0.0
H43 H 0.35377 0.2232 0.30056 0.0
H44 H 0.40014 0.22104 0.28368 0.0
H45 H 0.38902 0.21432 0.33335 0.0
H46 H 0.43504 0.30374 0.35847 0.0
H47 H 0.44416 0.25937 0.34979 0.0
H48 H 0.45775 0.29468 0.31503 0.0
H49 H 0.271 0.39076 0.21782 0.0
H50 H 0.32047 0.37476 0.10599 0.0
H51 H 0.3661 0.34415 0.13541 0.0
H52 H 0.35355 0.40866 0.26633 0.0
H53 H 0.30544 0.40373 0.28448 0.0
H54 H 0.34099 0.38584 0.30996 0.0
H55 H 0.26172 0.32201 0.24411 0.0
H56 H 0.28235 0.30614 0.28397 0.0
H57 H 0.26295 0.3467 0.28835 0.0
H58 H 0.2764 0.30689 0.39211 0.0
C59 C 0.31916 0.31976 0.3482 0.0
C60 C 0.17654 0.92413 0.64735 0.0
C61 C 0.14886 0.9394 0.66728 0.0
C62 C 0.13914 0.92951 0.70551 0.0
C63 C 0.18652 0.89159 0.70438 0.0
C64 C 0.1946 0.89995 0.66627 0.0
C65 C 0.22388 0.88029 0.64916 0.0
H66 H 0.35955 0.78273 0.67844 0.0
C67 C 0.21088 0.86654 0.71594 0.0
C68 C 0.23203 0.85884 0.68347 0.0
H69 H 0.33092 0.82556 0.57117 0.0
H70 H 0.27675 0.8453 0.60228 0.0
H71 H 0.34128 0.85114 0.73638 0.0
H72 H 0.28107 0.74606 0.70211 0.0
H73 H 0.26055 0.75583 0.74649 0.0
H74 H 0.31022 0.75206 0.74388 0.0
H75 H 0.35758 0.80947 0.74193 0.0
H76 H 0.3259 0.82332 0.7764 0.0
C77 C 0.25898 0.90881 0.63682 0.0
C78 C 0.20547 0.8556 0.61594 0.0
C79 C 0.23595 0.85261 0.85663 0.0
C80 C 0.26105 0.83422 0.87536 0.0
C81 C 0.27351 0.80566 0.85538 0.0
C82 C 0.26699 0.80017 0.81598 0.0
C83 C 0.24772 0.82327 0.79661 0.0
C84 C 0.22945 0.84647 0.81734 0.0
C85 C 0.20642 0.86578 0.79206 0.0
C86 C 0.21785 0.85332 0.75245 0.0
C87 C 0.24315 0.82944 0.75545 0.0
C88 C 0.2197 0.90687 0.79809 0.0
C89 C 0.16348 0.85208 0.80137 0.0
C90 C 0.34177 0.79682 0.6619 0.0
C91 C 0.34978 0.80377 0.62287 0.0
C92 C 0.32541 0.82068 0.60154 0.0
C93 C 0.29418 0.83206 0.61967 0.0
C94 C 0.2875 0.82629 0.65935 0.0
C95 C 0.31061 0.80809 0.67948 0.0
C96 C 0.29884 0.80306 0.721 0.0
C97 C 0.2649 0.82184 0.72281 0.0
C98 C 0.25901 0.8361 0.68686 0.0
C99 C 0.3325 0.82268 0.74546 0.0
C100 C 0.28723 0.76221 0.72904 0.0
H101 H 0.14984 0.89933 0.75347 0.0
H102 H 0.18367 0.93064 0.61755 0.0
H103 H 0.1742 0.84693 0.62077 0.0
H104 H 0.21644 0.83023 0.6136 0.0
H105 H 0.20984 0.86965 0.58797 0.0
H106 H 0.26631 0.92966 0.65978 0.0
H107 H 0.25308 0.92258 0.6103 0.0
H108 H 0.28494 0.89765 0.63174 0.0
H109 H 0.22442 0.8738 0.87095 0.0
H110 H 0.29068 0.78923 0.86942 0.0
H111 H 0.27918 0.77969 0.80159 0.0
H112 H 0.25132 0.91433 0.79588 0.0
H113 H 0.21062 0.91557 0.82687 0.0
H114 H 0.20838 0.92294 0.77664 0.0
H115 H 0.15848 0.82711 0.81867 0.0
H116 H 0.14673 0.84479 0.77493 0.0
H117 H 0.15109 0.87248 0.81803 0.0
H118 H 0.11756 0.94083 0.7211 0.0
C119 C 0.15785 0.90559 0.72418 0.0
C120 C 0.63228 0.2615 0.93254 0.0
C121 C 0.5994 0.23766 0.91935 0.0
C122 C 0.58093 0.24946 0.88744 0.0
C123 C 0.62736 0.30651 0.88344 0.0
C124 C 0.64545 0.2951 0.91451 0.0
C125 C 0.67996 0.3225 0.92584 0.0
H126 H 0.80523 0.48003 0.9015 0.0
C127 C 0.64903 0.34337 0.87155 0.0
C128 C 0.68 0.35231 0.89687 0.0
H129 H 0.80415 0.39849 0.98749 0.0
H130 H 0.7473 0.36395 0.96134 0.0
H131 H 0.71208 0.47788 0.90904 0.0
H132 H 0.77652 0.4244 0.82814 0.0
H133 H 0.7435 0.44446 0.80344 0.0
H134 H 0.78089 0.47247 0.83003 0.0
H135 H 0.74199 0.5021 0.87231 0.0
H136 H 0.69362 0.47996 0.86285 0.0
C137 C 0.67318 0.33539 0.96752 0.0
C138 C 0.71545 0.30478 0.92046 0.0
C139 C 0.60728 0.41449 0.75785 0.0
C140 C 0.62134 0.44935 0.74241 0.0
C141 C 0.65432 0.46964 0.75968 0.0
C142 C 0.67252 0.45645 0.79061 0.0
C143 C 0.65805 0.42219 0.80587 0.0
C144 C 0.62573 0.40172 0.78965 0.0
C145 C 0.61398 0.3662 0.81083 0.0
C146 C 0.64439 0.36866 0.84198 0.0
C147 C 0.67057 0.40183 0.83869 0.0
C148 C 0.57387 0.36483 0.82868 0.0
C149 C 0.61585 0.33508 0.78215 0.0
C150 C 0.79276 0.45479 0.91484 0.0
C151 C 0.81097 0.44207 0.9465 0.0
C152 C 0.79263 0.40899 0.96253 0.0
C153 C 0.75885 0.38879 0.94739 0.0
C154 C 0.74172 0.40123 0.91554 0.0
C155 C 0.75832 0.43399 0.89997 0.0
C156 C 0.73478 0.44308 0.86681 0.0
C157 C 0.70214 0.41013 0.86465 0.0
C158 C 0.7066 0.38564 0.89346 0.0
C159 C 0.71992 0.47771 0.87793 0.0
C160 C 0.76011 0.44657 0.83002 0.0
H161 H 0.57889 0.2901 0.84579 0.0
H162 H 0.64817 0.25411 0.95627 0.0
H163 H 0.71236 0.28633 0.89501 0.0
H164 H 0.74196 0.32441 0.91463 0.0
H165 H 0.71953 0.28875 0.94595 0.0
H166 H 0.64242 0.33534 0.97324 0.0
H167 H 0.68253 0.31762 0.98895 0.0
H168 H 0.6875 0.3635 0.97315 0.0
H169 H 0.582 0.39785 0.74604 0.0
H170 H 0.66661 0.49605 0.74886 0.0
H171 H 0.69746 0.47369 0.80165 0.0
H172 H 0.57232 0.39062 0.84382 0.0
H173 H 0.55184 0.36037 0.80612 0.0
H174 H 0.56642 0.34357 0.85031 0.0
H175 H 0.64328 0.34029 0.76562 0.0
H176 H 0.61447 0.30915 0.79658 0.0
H177 H 0.59226 0.33214 0.76132 0.0
H178 H 0.55534 0.23278 0.8763 0.0
C179 C 0.59454 0.28324 0.86967 0.0
C180 C 0.93964 0.82904 0.4037 0.0
C181 C 0.92678 0.8457 0.43752 0.0
C182 C 0.89598 0.82511 0.4583 0.0
C183 C 0.88907 0.77574 0.41152 0.0
C184 C 0.92045 0.79394 0.39143 0.0
C185 C 0.92988 0.77085 0.35728 0.0
H186 H 0.88128 0.6122 0.25084 0.0
C187 C 0.87414 0.7407 0.39165 0.0
C188 C 0.89799 0.73704 0.35955 0.0
H189 H 0.98053 0.69584 0.23256 0.0
H190 H 0.95987 0.73066 0.28538 0.0
H191 H 0.8854 0.61258 0.34502 0.0
H192 H 0.8219 0.66616 0.26781 0.0
H193 H 0.79192 0.6488 0.30651 0.0
H194 H 0.81077 0.61833 0.27442 0.0
H195 H 0.84875 0.58841 0.31472 0.0
H196 H 0.83737 0.60655 0.36066 0.0
C197 C 0.96945 0.76166 0.36379 0.0
C198 C 0.928 0.7916 0.3199 0.0
C199 C 0.75182 0.66351 0.44598 0.0
C200 C 0.72814 0.63079 0.43485 0.0
C201 C 0.73883 0.61349 0.40109 0.0
C202 C 0.77226 0.62799 0.37964 0.0
C203 C 0.79571 0.66058 0.39152 0.0
C204 C 0.78484 0.67776 0.4241 0.0
C205 C 0.81202 0.71249 0.43239 0.0
C206 C 0.84122 0.71366 0.39962 0.0
C207 C 0.83203 0.68303 0.37569 0.0
C208 C 0.83005 0.70911 0.47208 0.0
C209 C 0.78937 0.74345 0.42987 0.0
C210 C 0.89927 0.63768 0.25815 0.0
C211 C 0.93322 0.65037 0.23655 0.0
C212 C 0.95424 0.6847 0.2476 0.0
C213 C 0.94241 0.70499 0.2789 0.0
C214 C 0.90898 0.69132 0.30042 0.0
C215 C 0.88801 0.6581 0.28948 0.0
C216 C 0.85304 0.64726 0.31491 0.0
C217 C 0.85665 0.67861 0.34356 0.0
C218 C 0.88957 0.7051 0.33521 0.0
C219 C 0.85591 0.6117 0.33485 0.0
C220 C 0.81735 0.64468 0.28979 0.0
H221 H 0.85388 0.7781 0.46314 0.0
H222 H 0.96363 0.84302 0.38698 0.0
H223 H 0.90073 0.80158 0.31889 0.0
H224 H 0.9292 0.77456 0.29404 0.0
H225 H 0.95183 0.81517 0.31809 0.0
H226 H 0.97131 0.75199 0.39357 0.0
H227 H 0.9923 0.78577 0.35968 0.0
H228 H 0.9754 0.73999 0.34444 0.0
H229 H 0.74462 0.67821 0.47115 0.0
H230 H 0.72168 0.58825 0.39157 0.0
H231 H 0.77872 0.61313 0.35461 0.0
H232 H 0.83127 0.68063 0.47835 0.0
H233 H 0.81335 0.71912 0.49573 0.0
H234 H 0.86009 0.72335 0.47339 0.0
H235 H 0.76796 0.73794 0.40667 0.0
H236 H 0.80738 0.76952 0.42226 0.0
H237 H 0.77377 0.74669 0.45725 0.0
H238 H 0.88608 0.83496 0.48527 0.0
C239 C 0.87723 0.79114 0.44556 0.0
C240 C 0.73258 0.72466 0.94128 0.0
C241 C 0.75377 0.69957 0.92642 0.0
C242 C 0.74802 0.68707 0.88815 0.0
C243 C 0.70805 0.7304 0.87796 0.0
C244 C 0.70912 0.73913 0.91652 0.0
C245 C 0.68371 0.76561 0.92641 0.0
H246 H 0.58816 0.89124 0.86541 0.0
C247 C 0.68616 0.75344 0.85847 0.0
C248 C 0.66956 0.77267 0.88667 0.0
H249 H 0.6046 0.86089 0.98193 0.0
H250 H 0.63295 0.81125 0.95865 0.0
H251 H 0.56623 0.80497 0.8281 0.0
H252 H 0.65324 0.89515 0.83291 0.0
H253 H 0.67908 0.86711 0.80686 0.0
H254 H 0.63726 0.87953 0.7868 0.0
H255 H 0.57238 0.84756 0.80433 0.0
H256 H 0.59025 0.81023 0.78292 0.0
C257 C 0.65088 0.74703 0.95325 0.0
C258 C 0.7088 0.79962 0.94414 0.0
C259 C 0.73388 0.7997 0.72854 0.0
C260 C 0.72502 0.82801 0.70698 0.0
C261 C 0.68903 0.8376 0.71276 0.0
C262 C 0.66525 0.82341 0.74349 0.0
C263 C 0.67797 0.80007 0.76881 0.0
C264 C 0.70997 0.78613 0.75947 0.0
C265 C 0.71774 0.75986 0.78891 0.0
C266 C 0.68746 0.764 0.81953 0.0
C267 C 0.66546 0.78889 0.80807 0.0
C268 C 0.71153 0.72171 0.77029 0.0
C269 C 0.75873 0.7723 0.80397 0.0
C270 C 0.59739 0.87341 0.8857 0.0
C271 C 0.59429 0.87958 0.92537 0.0
C272 C 0.60687 0.85636 0.95121 0.0
C273 C 0.62346 0.8278 0.93765 0.0
C274 C 0.62858 0.82316 0.89788 0.0
C275 C 0.61516 0.84539 0.87256 0.0
C276 C 0.62429 0.8372 0.83131 0.0
C277 C 0.64545 0.80622 0.83619 0.0
C278 C 0.64788 0.79834 0.87532 0.0
C279 C 0.58632 0.82445 0.81028 0.0
C280 C 0.64969 0.87125 0.81339 0.0
H281 H 0.72037 0.69185 0.8352 0.0
H282 H 0.73514 0.73348 0.97104 0.0
H283 H 0.73501 0.80827 0.92624 0.0
H284 H 0.69453 0.82293 0.94596 0.0
H285 H 0.71774 0.7942 0.97352 0.0
H286 H 0.64609 0.71721 0.95029 0.0
H287 H 0.65712 0.75394 0.98391 0.0
H288 H 0.62317 0.75408 0.94611 0.0
H289 H 0.76074 0.79094 0.72406 0.0
H290 H 0.68058 0.85807 0.69531 0.0
H291 H 0.63874 0.83229 0.74765 0.0
H292 H 0.70864 0.72228 0.73854 0.0
H293 H 0.73608 0.70836 0.77511 0.0
H294 H 0.68516 0.70427 0.78164 0.0
H295 H 0.76267 0.80029 0.81556 0.0
H296 H 0.76549 0.75497 0.82698 0.0
H297 H 0.78028 0.77137 0.78074 0.0
H298 H 0.76313 0.66704 0.87633 0.0
C299 C 0.72457 0.70205 0.864 0.0
C300 C 0.88504 0.20631 0.46998 0.0
C301 C 0.91262 0.1906 0.45035 0.0
C302 C 0.92091 0.19887 0.4114 0.0
C303 C 0.87032 0.23332 0.41097 0.0
C304 C 0.86405 0.22714 0.44978 0.0
C305 C 0.83082 0.24218 0.46554 0.0
H306 H 0.67178 0.30576 0.42979 0.0
C307 C 0.84042 0.25195 0.39752 0.0
C308 C 0.81737 0.25744 0.42944 0.0
H309 H 0.71388 0.28405 0.5407 0.0
H310 H 0.77121 0.27021 0.5101 0.0
H311 H 0.69712 0.23933 0.38372 0.0
H312 H 0.74756 0.35084 0.39974 0.0
H313 H 0.76118 0.33962 0.35303 0.0
H314 H 0.71121 0.33654 0.36498 0.0
H315 H 0.67863 0.27555 0.36333 0.0
H316 H 0.71445 0.25585 0.33869 0.0
C317 C 0.80092 0.21052 0.48175 0.0
C318 C 0.84574 0.27204 0.49548 0.0
C319 C 0.81931 0.25919 0.25457 0.0
C320 C 0.78741 0.26526 0.23435 0.0
C321 C 0.76136 0.28353 0.25344 0.0
C322 C 0.76428 0.29121 0.29284 0.0
C323 C 0.79287 0.2797 0.31362 0.0
C324 C 0.82095 0.26569 0.29429 0.0
C325 C 0.84769 0.25289 0.32139 0.0
C326 C 0.83026 0.26064 0.36008 0.0
C327 C 0.79792 0.27592 0.35522 0.0
C328 C 0.84551 0.21197 0.31402 0.0
C329 C 0.88788 0.27622 0.31541 0.0
C330 C 0.69301 0.29726 0.44743 0.0
C331 C 0.68797 0.29467 0.48744 0.0
C332 C 0.71698 0.28536 0.50969 0.0
C333 C 0.75014 0.27752 0.49189 0.0
C334 C 0.75419 0.27926 0.45155 0.0
C335 C 0.72623 0.28986 0.43025 0.0
C336 C 0.73583 0.29211 0.38809 0.0
C337 C 0.77429 0.28084 0.38734 0.0
C338 C 0.78445 0.27249 0.42439 0.0
C339 C 0.70499 0.26456 0.36701 0.0
C340 C 0.7389 0.33169 0.37547 0.0
H341 H 0.90678 0.22491 0.36175 0.0
H342 H 0.87882 0.20129 0.50022 0.0
H343 H 0.87555 0.28549 0.48855 0.0
H344 H 0.82927 0.29399 0.49586 0.0
H345 H 0.84547 0.26085 0.52481 0.0
H346 H 0.79766 0.18687 0.46184 0.0
H347 H 0.80974 0.20199 0.51002 0.0
H348 H 0.77214 0.21665 0.48518 0.0
H349 H 0.84056 0.24621 0.24066 0.0
H350 H 0.73655 0.28895 0.23902 0.0
H351 H 0.74234 0.30326 0.30604 0.0
H352 H 0.8163 0.1986 0.30554 0.0
H353 H 0.8655 0.20711 0.29052 0.0
H354 H 0.85118 0.19731 0.33968 0.0
H355 H 0.88599 0.30464 0.30967 0.0
H356 H 0.90568 0.27755 0.34119 0.0
H357 H 0.90301 0.2662 0.29054 0.0
H358 H 0.9422 0.18728 0.39571 0.0
C359 C 0.90009 0.22046 0.39169 0.0
C360 C 0.44472 0.68593 0.33736 0.0
C361 C 0.42962 0.65174 0.35392 0.0
C362 C 0.39601 0.63192 0.33737 0.0
C363 C 0.3936 0.67851 0.28978 0.0
C364 C 0.42657 0.69852 0.30523 0.0
C365 C 0.43937 0.73319 0.28271 0.0
H366 H 0.40625 0.84409 0.13518 0.0
C367 C 0.3815 0.69849 0.25646 0.0
C368 C 0.40855 0.73095 0.25199 0.0
H369 H 0.50213 0.86298 0.21125 0.0
H370 H 0.47709 0.80695 0.24401 0.0
H371 H 0.34173 0.81363 0.20012 0.0
H372 H 0.40824 0.76329 0.11949 0.0
H373 H 0.36331 0.735 0.12179 0.0
H374 H 0.36736 0.78053 0.10513 0.0
H375 H 0.33426 0.8124 0.14922 0.0
H376 H 0.3109 0.77659 0.17987 0.0
C377 C 0.43945 0.76547 0.31031 0.0
C378 C 0.47886 0.73241 0.26436 0.0
C379 C 0.25805 0.64603 0.18247 0.0
C380 C 0.23971 0.6585 0.1508 0.0
C381 C 0.25807 0.69129 0.13419 0.0
C382 C 0.29219 0.71141 0.14871 0.0
C383 C 0.30957 0.69914 0.18049 0.0
C384 C 0.29277 0.66674 0.19672 0.0
C385 C 0.31632 0.6579 0.22993 0.0
C386 C 0.34949 0.6904 0.23109 0.0
C387 C 0.34516 0.71455 0.2019 0.0
C388 C 0.29132 0.6557 0.26692 0.0
C389 C 0.33033 0.62267 0.21956 0.0
C390 C 0.42186 0.83664 0.15913 0.0
C391 C 0.45649 0.85895 0.17019 0.0
C392 C 0.47566 0.84684 0.20136 0.0
C393 C 0.46098 0.81406 0.22061 0.0
C394 C 0.42658 0.792 0.2088 0.0
C395 C 0.40789 0.80372 0.17828 0.0
C396 C 0.3725 0.77691 0.16815 0.0
C397 C 0.37242 0.74733 0.19745 0.0
C398 C 0.40412 0.75587 0.22192 0.0
C399 C 0.33787 0.79566 0.17429 0.0
C400 C 0.3777 0.76326 0.12643 0.0
H401 H 0.35273 0.62804 0.29565 0.0
H402 H 0.47057 0.70214 0.34856 0.0
H403 H 0.47909 0.70581 0.25041 0.0
H404 H 0.48663 0.75257 0.24163 0.0
H405 H 0.50137 0.73707 0.28644 0.0
H406 H 0.41208 0.76211 0.32689 0.0
H407 H 0.46299 0.76779 0.33114 0.0
H408 H 0.44241 0.79113 0.29497 0.0
H409 H 0.24546 0.62107 0.1963 0.0
H410 H 0.24628 0.70159 0.10926 0.0
H411 H 0.30378 0.73602 0.13435 0.0
H412 H 0.27483 0.67782 0.26795 0.0
H413 H 0.27061 0.62979 0.26807 0.0
H414 H 0.30817 0.65895 0.2934 0.0
H415 H 0.33788 0.62172 0.18842 0.0
H416 H 0.3566 0.62022 0.23458 0.0
H417 H 0.30788 0.59873 0.22582 0.0
H418 H 0.38298 0.60604 0.349 0.0
C419 C 0.37816 0.64492 0.3061 0.0
C420 C 0.10643 0.27261 0.69829 0.0
C421 C 0.11994 0.25484 0.66571 0.0
C422 C 0.15487 0.27174 0.6487 0.0
C423 C 0.16098 0.32279 0.69333 0.0
C424 C 0.12742 0.30664 0.7115 0.0
C425 C 0.11803 0.33037 0.74502 0.0
H426 H 0.16742 0.48925 0.85029 0.0
C427 C 0.17612 0.35807 0.71267 0.0
C428 C 0.15124 0.36306 0.74349 0.0
H429 H 0.06837 0.40562 0.86929 0.0
H430 H 0.08859 0.37073 0.8163 0.0
H431 H 0.16291 0.48747 0.75586 0.0
H432 H 0.22746 0.43557 0.83368 0.0
H433 H 0.25726 0.45372 0.79512 0.0
H434 H 0.2373 0.48343 0.82716 0.0
H435 H 0.2 0.51241 0.78511 0.0
H436 H 0.21065 0.49312 0.73949 0.0
C437 C 0.07949 0.34124 0.73727 0.0
C438 C 0.11792 0.3093 0.78255 0.0
C439 C 0.29782 0.43505 0.65663 0.0
C440 C 0.32067 0.46862 0.66641 0.0
C441 C 0.30951 0.48678 0.69937 0.0
C442 C 0.27637 0.47232 0.72127 0.0
C443 C 0.25369 0.43892 0.71068 0.0
C444 C 0.26506 0.42087 0.67895 0.0
C445 C 0.23869 0.38533 0.6721 0.0
C446 C 0.20909 0.38496 0.70438 0.0
C447 C 0.21762 0.41648 0.72709 0.0
C448 C 0.22094 0.38658 0.63194 0.0
C449 C 0.26203 0.35508 0.67671 0.0
C450 C 0.14957 0.46364 0.84318 0.0
C451 C 0.11576 0.45092 0.86496 0.0
C452 C 0.09464 0.41662 0.85411 0.0
C453 C 0.10631 0.39626 0.82284 0.0
C454 C 0.13982 0.40973 0.80136 0.0
C455 C 0.16084 0.44301 0.81204 0.0
C456 C 0.19582 0.45361 0.78651 0.0
C457 C 0.19256 0.4217 0.75861 0.0
C458 C 0.15949 0.39545 0.76708 0.0
C459 C 0.19256 0.48862 0.76568 0.0
C460 C 0.23152 0.45708 0.81174 0.0
H461 H 0.201 0.31569 0.64687 0.0
H462 H 0.07993 0.26074 0.71257 0.0
H463 H 0.14388 0.29721 0.78382 0.0
H464 H 0.11815 0.32661 0.80838 0.0
H465 H 0.09259 0.28717 0.7843 0.0
H466 H 0.07905 0.35121 0.70742 0.0
H467 H 0.05563 0.31787 0.74066 0.0
H468 H 0.07397 0.3632 0.75648 0.0
H469 H 0.30548 0.41968 0.63217 0.0
H470 H 0.32604 0.51266 0.70787 0.0
H471 H 0.26955 0.48783 0.74565 0.0
H472 H 0.21521 0.41387 0.62629 0.0
H473 H 0.24044 0.38005 0.60876 0.0
H474 H 0.19297 0.36846 0.62918 0.0
H475 H 0.28595 0.36337 0.69693 0.0
H476 H 0.245 0.33044 0.68948 0.0
H477 H 0.27454 0.34808 0.64878 0.0
H478 H 0.16712 0.25903 0.6247 0.0
C479 C 0.17501 0.305 0.66199 0.0
La480 La 0.05141 0.0616 0.51942 0.0
La481 La 0.99439 1.04175 0.58187 0.0
C482 C 0.09071 0.08277 0.46077 0.0
C483 C 0.12633 0.10967 0.45576 0.0
C484 C 0.16207 0.09976 0.45907 0.0
C485 C 0.1956 0.12548 0.45566 0.0
C486 C 0.19413 0.16163 0.4487 0.0
C487 C 0.15842 0.17156 0.44554 0.0
C488 C 0.12489 0.14586 0.44889 0.0
C489 C 0.07748 1.03466 0.58029 0.0
C490 C 0.05309 0.1152 0.59123 0.0
C491 C 0.9501 1.0129 0.6345 0.0
C492 C 0.92402 0.97902 0.64312 0.0
C493 C 0.91051 0.95397 0.61392 0.0
C494 C 0.87905 0.92641 0.62098 0.0
C495 C 0.86067 0.92398 0.65716 0.0
C496 C 0.87607 0.94755 0.68693 0.0
C497 C 0.90749 0.97484 0.67993 0.0
C498 C 0.98017 0.09161 0.53593 0.0
C499 C 0.99243 0.98737 0.50922 0.0
O500 O 0.09343 0.05343 0.47906 0.0
O501 O 0.06047 0.0954 0.47176 0.0
O502 O 0.09686 0.06035 0.55993 0.0
O503 O 0.04539 1.02425 0.5655 0.0
O504 O 0.05944 0.11223 0.5536 0.0
O505 O 0.03288 0.08747 0.61022 0.0
O506 O 0.93976 1.03089 0.60617 0.0
O507 O 0.98687 1.01329 0.63402 0.0
O508 O 0.97289 0.09067 0.57242 0.0
O509 O 0.99269 0.06392 0.52566 0.0
O510 O 0.97594 0.99569 0.5419 0.0
O511 O 1.02293 1.00919 0.49501 0.0
H512 H 0.16421 0.07211 0.46435 0.0
H513 H 0.22273 0.11703 0.45826 0.0
H514 H 0.15636 0.19905 0.43932 0.0
H515 H 0.09784 0.15438 0.44598 0.0
H516 H 0.92279 0.95692 0.58522 0.0
H517 H 0.86774 0.90848 0.59764 0.0
H518 H 0.86277 0.94578 0.71528 0.0
H519 H 0.91745 0.99399 0.70273 0.0
La520 La 0.56568 0.05633 0.06252 0.0
La521 La 0.49098 1.04525 1.03273 0.0
C522 C 0.63431 0.07858 0.07958 0.0
C523 C 0.66008 0.11198 0.0904 0.0
C524 C 0.64634 0.14108 0.10705 0.0
C525 C 0.67193 0.17097 0.12093 0.0
C526 C 0.71149 0.17207 0.1182 0.0
C527 C 0.72494 0.1439 0.099 0.0
C528 C 0.69938 0.11405 0.0853 0.0
C529 C 0.52447 0.99244 0.08541 0.0
C530 C 0.50981 0.10317 0.09894 0.0
C531 C 0.41995 1.02727 1.02346 0.0
C532 C 0.39574 0.9947 1.00767 0.0
C533 C 0.40735 0.97757 0.97474 0.0
C534 C 0.38472 0.94623 0.96046 0.0
C535 C 0.35025 0.93086 0.97917 0.0
C536 C 0.33909 0.94775 1.01267 0.0
C537 C 0.36166 0.97947 1.02674 0.0
C538 C 0.54006 0.09639 0.99393 0.0
C539 C 0.54638 1.00298 0.99445 0.0
O540 O 0.60762 0.06547 0.10468 0.0
O541 O 0.6218 0.07686 1.0444 0.0
O542 O 0.56046 0.99932 0.07723 0.0
O543 O 0.51277 1.02199 0.08221 0.0
O544 O 0.54381 0.0945 0.10082 0.0
O545 O 0.48492 0.08792 0.07335 0.0
O546 O 0.44307 1.04705 0.99934 0.0
O547 O 0.43686 1.02269 0.05529 0.0
O548 O 0.51402 0.07184 0.97863 0.0
O549 O 0.53787 0.09126 1.02987 0.0
O550 O 0.51064 1.00005 1.00566 0.0
O551 O 0.57219 1.02987 1.00738 0.0
H552 H 0.61599 0.14006 0.11072 0.0
H553 H 0.66069 0.1921 0.13591 0.0
H554 H 0.75524 0.14422 0.09613 0.0
H555 H 0.71035 0.09194 0.07197 0.0
H556 H 0.43384 0.98849 0.95981 0.0
H557 H 0.39392 0.93463 0.9341 0.0
H558 H 0.31296 0.93653 1.02799 0.0
H559 H 0.35259 0.99204 0.0526 0.0
La560 La 0.51816 0.5189 0.52731 0.0
La561 La 0.52888 0.58211 0.57126 0.0
C562 C 0.52472 0.46256 0.48999 0.0
C563 C 0.53542 0.4281 0.4981 0.0
C564 C 0.54375 0.40657 0.46732 0.0
C565 C 0.55984 0.37658 0.47403 0.0
C566 C 0.56825 0.36797 0.51169 0.0
C567 C 0.55771 0.38841 0.5427 0.0
C568 C 0.54096 0.41813 0.5359 0.0
C569 C 0.45584 0.52397 0.56905 0.0
C570 C 0.55543 0.51753 0.61171 0.0
C571 C 0.52138 0.63786 0.60927 0.0
C572 C 0.50674 0.67084 0.60326 0.0
C573 C 0.49928 0.69129 0.63531 0.0
C574 C 0.48054 0.71999 0.63103 0.0
C575 C 0.46869 0.72852 0.59456 0.0
C576 C 0.47787 0.70898 0.56218 0.0
C577 C 0.49706 0.68045 0.56653 0.0
C578 C 0.59132 0.57668 0.5302 0.0
C579 C 0.49286 0.58366 0.48632 0.0
O580 O 0.49279 0.46809 0.50549 0.0
O581 O 0.55205 0.49072 0.49336 0.0
O582 O 0.45639 0.51404 0.53332 0.0
O583 O 0.49011 0.53177 0.58011 0.0
O584 O 0.54898 0.50157 0.57744 0.0
O585 O 0.54683 0.54974 0.61714 0.0
O586 O 0.55232 0.63453 0.59017 0.0
O587 O 0.49586 0.60815 0.60864 0.0
O588 O 0.59057 0.58674 0.5659 0.0
O589 O 0.55716 0.56912 0.51868 0.0
O590 O 0.4979 0.59913 0.521 0.0
O591 O 0.50232 0.55183 0.48086 0.0
H592 H 0.53954 0.41393 0.43797 0.0
H593 H 0.56818 0.36168 0.4495 0.0
H594 H 0.5638 0.38225 0.57195 0.0
H595 H 0.53375 0.43411 0.55994 0.0
H596 H 0.50654 0.68414 0.66387 0.0
H597 H 0.47333 0.73411 0.65664 0.0
H598 H 0.46923 0.71509 0.53376 0.0
H599 H 0.50325 0.6652 0.54152 0.0
La600 La 0.02643 0.51437 0.07255 0.0
La601 La 1.02252 0.58647 1.02897 0.0
C602 C 0.0464 0.45642 0.08956 0.0
C603 C 0.08361 0.44583 0.09556 0.0
C604 C 0.09422 0.43956 0.13309 0.0
C605 C 0.13007 0.43187 0.14009 0.0
C606 C 0.15603 0.42978 0.10967 0.0
C607 C 0.14511 0.43486 0.07189 0.0
C608 C 0.10926 0.44304 0.06488 0.0
C609 C 0.99054 0.55828 0.11637 0.0
C610 C 0.09485 0.58412 0.08082 0.0
C611 C 1.00105 0.64408 1.01391 0.0
C612 C 0.96342 0.65168 1.00419 0.0
C613 C 0.94198 0.63269 0.97441 0.0
C614 C 0.90588 0.63924 0.96632 0.0
C615 C 0.89009 0.6646 0.9881 0.0
C616 C 0.91146 0.68325 1.01823 0.0
C617 C 0.94781 0.6769 1.0261 0.0
C618 C 0.05833 0.54276 0.98499 0.0
C619 C 0.95468 0.5165 1.01913 0.0
O620 O 0.03687 0.47909 0.11502 0.0
O621 O 0.03827 0.46432 0.05456 0.0
O622 O 0.99388 0.52585 0.12509 0.0
O623 O 1.00533 0.56261 0.08283 0.0
O624 O 0.08289 0.54868 0.08472 0.0
O625 O 0.075 0.60432 0.06163 0.0
O626 O 1.01718 0.6256 0.98852 0.0
O627 O 1.00398 0.63298 1.04889 0.0
O628 O 0.05424 0.57496 0.97604 0.0
O629 O 0.04398 0.53824 1.01872 0.0
O630 O 0.96707 0.55175 1.0143 0.0
O631 O 0.97381 0.4966 1.03972 0.0
H632 H 0.07492 0.44113 0.15722 0.0
H633 H 0.13745 0.42736 0.16942 0.0
H634 H 0.16459 0.43328 1.04794 0.0
H635 H 0.10191 0.4476 1.03557 0.0
H636 H 0.95303 0.61272 0.95726 0.0
H637 H 0.89069 0.62482 0.94245 0.0
H638 H 0.90005 0.70262 1.03593 0.0
H639 H 0.96363 0.69149 1.04954 0.0
C640 C 0.28781 0.20533 0.40331 0.0
C641 C 0.29055 0.2416 0.41468 0.0
H642 H 0.25522 0.15193 0.40493 0.0
C643 C 0.26403 0.25031 0.44195 0.0
H644 H 0.30705 0.19743 0.3818 0.0
C645 C 0.2337 0.22391 0.45489 0.0
C646 C 0.22954 0.18829 0.44106 0.0
H647 H 0.2656 0.27781 0.45183 0.0
H648 H 0.21267 0.23163 0.47453 0.0
C649 C 0.25777 0.17904 0.41641 0.0
C650 C 0.31929 0.84919 0.91597 0.0
C651 C 0.2804 0.84995 0.91111 0.0
H652 H 0.37146 0.87305 0.94262 0.0
C653 C 0.26322 0.87209 0.93607 0.0
H654 H 0.33402 0.83258 0.89787 0.0
C655 C 0.28546 0.89679 0.96066 0.0
C656 C 0.32516 0.89905 0.96164 0.0
H657 H 0.23307 0.87241 0.93461 0.0
H658 H 0.27187 0.91589 0.97647 0.0
C659 C 0.34122 0.87313 0.94126 0.0
C660 C 0.5996 0.5024 0.70986 0.0
C661 C 0.60251 0.46561 0.70921 0.0
H662 H 0.58292 0.54686 0.68135 0.0
C663 C 0.58908 0.44581 0.67572 0.0
H664 H 0.60904 0.51898 0.73479 0.0
C665 C 0.57437 0.46228 0.64422 0.0
C666 C 0.57165 0.49916 0.64499 0.0
H667 H 0.59082 0.41762 0.67336 0.0
H668 H 0.56502 0.44589 0.61923 0.0
C669 C 0.58435 0.51861 0.67883 0.0
C670 C 0.96996 0.64291 0.17231 0.0
C671 C 0.94684 0.62759 0.20381 0.0
H672 H 1.00211 0.63434 0.12078 0.0
C673 C 0.93747 0.58958 0.20411 0.0
H674 H 0.97813 0.67183 0.17013 0.0
C675 C 0.95061 0.56817 0.17505 0.0
C676 C 0.97379 0.5833 0.14385 0.0
H677 H 0.92074 0.57587 0.22759 0.0
H678 H 0.94302 0.53919 0.17755 0.0
C679 C 0.98325 0.62124 0.14306 0.0
C680 C 0.51796 0.18323 0.16782 0.0
C681 C 0.48307 0.19419 0.16198 0.0
H682 H 0.55401 0.1457 0.15251 0.0
C683 C 0.45702 0.17438 0.13634 0.0
H684 H 0.53852 0.19795 0.18757 0.0
C685 C 0.46559 0.1445 0.11677 0.0
C686 C 0.50057 0.13361 0.12212 0.0
H687 H 0.4295 0.18153 0.13192 0.0
H688 H 0.44464 0.13007 0.09722 0.0
C689 C 0.52674 0.15328 0.14789 0.0
C690 C 0.09033 0.95922 0.64512 0.0
C691 C 0.13015 0.96546 0.64799 0.0
H692 H 0.04233 0.97623 0.6207 0.0
C693 C 0.15226 0.99597 0.63091 0.0
H694 H 0.07285 0.9357 0.658 0.0
C695 C 0.13485 1.01953 0.6104 0.0
C696 C 0.09515 1.01249 0.60605 0.0
H697 H 0.18304 1.00132 0.63307 0.0
H698 H 0.15261 1.04253 0.59684 0.0
C699 C 0.07296 0.98241 0.62395 0.0
C700 C 0.87414 0.44276 0.98036 0.0
C701 C 0.84857 0.46201 0.9634 0.0
H702 H 0.92598 0.44398 1.01088 0.0
C703 C 0.85913 0.49998 0.96432 0.0
H704 H 0.86848 0.41365 0.9796 0.0
C705 C 0.8932 0.51767 0.98213 0.0
C706 C 0.91802 0.49815 0.99992 0.0
H707 H 0.84071 0.51621 0.95198 0.0
H708 H 0.89985 0.5468 0.9823 0.0
C709 C 0.90775 0.46034 0.99837 0.0
C710 C 0.65844 0.59798 0.44181 0.0
C711 C 0.69306 0.61494 0.45873 0.0
H712 H 0.59934 0.57282 0.4505 0.0
C713 C 0.69375 0.61726 0.49921 0.0
H714 H 0.65642 0.59569 0.41084 0.0
C715 C 0.66117 0.60394 0.52183 0.0
C716 C 0.62633 0.58794 0.50503 0.0
H717 H 0.71971 0.62937 0.51367 0.0
H718 H 0.66323 0.60674 0.55279 0.0
C719 C 0.62554 0.58486 0.46459 0.0
C720 C 0.24145 0.38387 0.11016 0.0
C721 C 0.26148 0.40087 0.14194 0.0
H722 H 0.1921 0.37976 0.07495 0.0
C723 C 0.24891 0.4302 0.15976 0.0
H724 H 0.25022 0.36103 0.09599 0.0
C725 C 0.21556 0.44056 0.14802 0.0
C726 C 0.19417 0.42207 0.11797 0.0
H727 H 0.26412 0.44433 0.1838 0.0
H728 H 0.20585 0.46242 0.16324 0.0
C729 C 0.2081 0.39447 0.0982 0.0
C730 C 0.56466 0.17112 0.91774 0.0
C731 C 0.58471 0.20109 0.93854 0.0
H732 H 0.53562 0.11566 0.91808 0.0
C733 C 0.59051 0.19539 0.97802 0.0
H734 H 0.55977 0.17331 0.88736 0.0
C735 C 0.57679 0.16173 0.99568 0.0
C736 C 0.55654 0.1321 0.97481 0.0
H737 H 0.60512 0.21722 0.99582 0.0
H738 H 0.58169 0.15907 1.02603 0.0
C739 C 0.55093 0.13753 0.93544 0.0
C740 C 0.92158 0.90368 0.4749 0.0
C741 C 0.94409 0.88363 0.45257 0.0
H742 H 0.91859 0.95027 0.51012 0.0
C743 C 0.98289 0.89986 0.44711 0.0
H744 H 0.8913 0.89392 0.47892 0.0
C745 C 0.99846 0.93372 0.46439 0.0
C746 C 0.97601 0.9524 0.4883 0.0
H747 H 1.00164 0.88603 0.43036 0.0
H748 H 0.02847 0.94473 0.45995 0.0
C749 C 0.93724 0.93674 0.4928 0.0
C750 C 0.37847 0.76329 0.57907 0.0
C751 C 0.3833 0.79213 0.60542 0.0
H752 H 0.4025 0.72021 0.55469 0.0
C753 C 0.4192 0.8045 0.62148 0.0
H754 H 0.35084 0.75325 0.56666 0.0
C755 C 0.44875 0.78587 0.61457 0.0
C756 C 0.44265 0.75438 0.59183 0.0
H757 H 0.4234 0.82684 0.64182 0.0
H758 H 0.47537 0.79444 0.62943 0.0
C759 C 0.40804 0.74446 0.57228 0.0
C760 C 0.75993 0.88966 0.69154 0.0
C761 C 0.75603 0.85229 0.68593 0.0
H762 H 0.79604 0.94134 0.68671 0.0
C763 C 0.78542 0.83897 0.66629 0.0
H764 H 0.73831 0.90101 0.70698 0.0
C765 C 0.81902 0.86237 0.65503 0.0
C766 C 0.82375 0.89931 0.66358 0.0
H767 H 0.78317 0.81035 0.66123 0.0
H768 H 0.84198 0.85141 0.64158 0.0
C769 C 0.79336 0.91283 0.68054 0.0
C770 C 0.75307 0.25834 0.17113 0.0
C771 C 0.77643 0.24553 0.19764 0.0
H772 H 0.71396 0.24501 0.12474 0.0
C773 C 0.78318 0.21029 0.19269 0.0
H774 H 0.74791 0.28556 0.1734 0.0
C775 C 0.76432 0.18749 0.16455 0.0
C776 C 0.73795 0.19912 0.1408 0.0
H777 H 0.80032 0.19891 0.21263 0.0
H778 H 0.76799 0.15975 0.16375 0.0
C779 C 0.73368 0.23521 0.14319 0.0
C780 C 0.4498 0.59853 0.38759 0.0
C781 C 0.44796 0.63555 0.3875 0.0
H782 H 0.46497 0.5539 0.41711 0.0
C783 C 0.46176 0.65564 0.4207 0.0
H784 H 0.44001 0.58172 0.36292 0.0
C785 C 0.47578 0.63921 0.45265 0.0
C786 C 0.47735 0.60207 0.45264 0.0
H787 H 0.46086 0.68404 0.42246 0.0
H788 H 0.48563 0.65585 0.47732 0.0
C789 C 0.46435 0.58235 0.41906 0.0
C790 C 0.08074 0.45836 0.93009 0.0
C791 C 0.10222 0.47371 0.89761 0.0
H792 H 0.05022 0.46691 0.98274 0.0
C793 C 0.11 0.51167 0.89623 0.0
H794 H 0.07397 0.42943 0.93304 0.0
C795 C 0.09673 0.53308 0.92518 0.0
C796 C 0.07512 0.51793 0.95737 0.0
H797 H 0.12555 0.52525 0.87198 0.0
H798 H 0.10301 0.56201 0.92188 0.0
C799 C 0.06749 0.48002 0.95936 0.0
C800 C 0.54353 0.91571 0.9386 0.0
C801 C 0.58185 0.91226 0.93996 0.0
H802 H 0.502 0.94751 0.95499 0.0
C803 C 0.6087 0.93994 0.95636 0.0
H804 H 0.52249 0.89456 0.92588 0.0
C805 C 0.59734 0.97036 0.97219 0.0
C806 C 0.55873 0.97335 0.97251 0.0
H807 H 0.63846 0.93774 0.9574 0.0
H808 H 0.61866 0.99082 0.98554 0.0
C809 C 0.53195 0.94595 0.95511 0.0
C810 C 0.96934 0.16314 0.46536 0.0
C811 C 0.93026 0.16366 0.46992 0.0
H812 H 1.01609 0.1397 0.48332 0.0
C813 C 0.90765 0.13825 0.49391 0.0
H814 H 0.98747 0.18257 0.44729 0.0
C815 C 0.92398 0.11391 0.5142 0.0
C816 C 0.96304 0.11402 0.51037 0.0
H817 H 0.87729 0.13737 0.49732 0.0
H818 H 0.90617 0.0953 0.53341 0.0
C819 C 0.98566 0.13845 0.48561 0.0
C820 C 0.17602 0.65782 0.11824 0.0
C821 C 0.20187 0.63857 0.13458 0.0
H822 H 0.1236 0.65658 0.08883 0.0
C823 C 0.19139 0.6006 0.13371 0.0
H824 H 0.18172 0.68694 0.11898 0.0
C825 C 0.15703 0.58288 0.11648 0.0
C826 C 0.13186 0.6024 0.09934 0.0
H827 H 0.21011 0.58441 0.14561 0.0
H828 H 0.15042 0.55375 0.11628 0.0
C829 C 0.14208 0.64022 0.10088 0.0
C830 C 0.38972 0.5029 0.65825 0.0
C831 C 0.35535 0.48452 0.64195 0.0
H832 H 0.44823 0.52949 0.64866 0.0
C833 C 0.35447 0.48099 0.60155 0.0
H834 H 0.39188 0.50615 0.68915 0.0
C835 C 0.38661 0.49464 0.57844 0.0
C836 C 0.42121 0.51214 0.59465 0.0
H837 H 0.32868 0.46772 0.58754 0.0
H838 H 0.38441 0.49094 0.54757 0.0
C839 C 0.4222 0.51629 0.63499 0.0
C840 C 0.81262 0.71648 0.96508 0.0
C841 C 0.78486 0.68946 0.94868 0.0
H842 H 0.86792 0.73006 0.98954 0.0
C843 C 0.78999 0.65364 0.94919 0.0
H844 H 0.80959 0.74439 0.96459 0.0
C845 C 0.82324 0.64527 0.96397 0.0
C846 C 0.85235 0.67263 0.97795 0.0
H847 H 0.76881 0.63228 0.93703 0.0
H848 H 0.82659 0.61745 0.96338 0.0
C849 C 0.8461 0.70821 0.97938 0.0
C850 C 0.45014 0.91733 0.13495 0.0
C851 C 0.47315 0.89376 0.14878 0.0
H852 H 0.44742 0.96662 0.10523 0.0
C853 C 0.51272 0.90368 0.1414 0.0
H854 H 0.4196 0.91117 0.13988 0.0
C855 C 0.52852 0.93523 0.12106 0.0
C856 C 0.50578 0.959 0.10759 0.0
H857 H 0.53174 0.88656 0.1507 0.0
H858 H 0.55906 0.94104 0.11595 0.0
C859 C 0.46617 0.94948 0.11509 0.0
C860 C 0.08121 0.18964 0.66969 0.0
C861 C 0.09904 0.21952 0.6478 0.0
H862 H 0.05318 0.13364 0.66979 0.0
C863 C 0.09965 0.21456 0.60742 0.0
H864 H 0.08005 0.19189 0.70074 0.0
C865 C 0.08481 0.1812 0.58977 0.0
C866 C 0.0681 0.15095 0.61145 0.0
H867 H 0.1121 0.23666 0.58901 0.0
H868 H 0.08666 0.17922 0.55872 0.0
C869 C 0.066 0.15595 0.65183 0.0
C870 C 0.65769 0.33415 0.53108 0.0
C871 C 0.65373 0.30506 0.50503 0.0
H872 H 0.63265 0.37713 0.55405 0.0
C873 C 0.61788 0.29149 0.48931 0.0
H874 H 0.68512 0.34507 0.54347 0.0
C875 C 0.58787 0.30973 0.49533 0.0
C876 C 0.59342 0.34178 0.51711 0.0
H877 H 0.61415 0.26876 0.46948 0.0
H878 H 0.56154 0.30068 0.48011 0.0
C879 C 0.62761 0.35245 0.53712 0.0
loop_
_geom_bond_atom_site_label_1
_geom_bond_atom_site_label_2
_geom_bond_distance
_geom_bond_site_symmetry_2
_ccdc_geom_bond_type
C0 C1 1.391 . S
C0 C4 1.391 . S
C0 H42 0.948 . S
C1 C0 1.391 . S
C1 C2 1.391 . S
C2 C1 1.391 . S
C2 H58 0.947 . S
C2 C59 1.392 . S
C3 C4 1.391 . S
C3 C7 1.397 . S
C3 C59 1.419 . S
C4 C0 1.391 . S
C4 C3 1.391 . S
C4 C5 1.399 . S
C5 C4 1.399 . S
C5 C8 1.396 . S
C5 C17 1.453 . S
C5 C18 1.684 . S
H6 C30 0.948 . S
C7 C3 1.397 . S
C7 C8 1.394 . S
C7 C26 1.723 . S
C8 C5 1.396 . S
C8 C7 1.394 . S
C8 C38 1.723 . S
H9 C32 0.947 . S
H10 C33 0.948 . S
H11 C39 0.982 . S
H12 C40 0.979 . S
H13 C40 0.980 . S
H14 C40 0.983 . S
H15 C39 0.979 . S
H16 C39 0.977 . S
C17 C5 1.453 . S
C17 H46 0.982 . S
C17 H47 0.979 . S
C17 H48 0.977 . S
C18 C5 1.684 . S
C18 H43 0.979 . S
C18 H44 0.980 . S
C18 H45 0.983 . S
C19 C20 1.391 . S
C19 C24 1.391 . S
C19 H49 0.948 . S
C20 C19 1.391 . S
C20 C21 1.391 . S
C21 C20 1.391 . S
C21 C22 1.392 . S
C21 H50 0.947 . S
C22 C21 1.392 . S
C22 C23 1.419 . S
C22 H51 0.948 . S
C23 C22 1.419 . S
C23 C24 1.391 . S
C23 C27 1.397 . S
C24 C19 1.391 . S
C24 C23 1.391 . S
C24 C25 1.399 . S
C25 C24 1.399 . S
C25 C26 1.396 . S
C25 C28 1.453 . S
C25 C29 1.684 . S
C26 C7 1.723 . S
C26 C25 1.396 . S
C26 C27 1.394 . S
C27 C23 1.397 . S
C27 C26 1.394 . S
C27 C37 1.723 . S
C28 C25 1.453 . S
C28 H52 0.982 . S
C28 H53 0.979 . S
C28 H54 0.977 . S
C29 C25 1.684 . S
C29 H55 0.979 . S
C29 H56 0.980 . S
C29 H57 0.983 . S
C30 H6 0.948 . S
C30 C31 1.391 . S
C30 C35 1.391 . S
C31 C30 1.391 . S
C31 C32 1.391 . S
C32 H9 0.947 . S
C32 C31 1.391 . S
C32 C33 1.392 . S
C33 H10 0.948 . S
C33 C32 1.392 . S
C33 C34 1.419 . S
C34 C33 1.419 . S
C34 C35 1.391 . S
C34 C38 1.397 . S
C35 C30 1.391 . S
C35 C34 1.391 . S
C35 C36 1.399 . S
C36 C35 1.399 . S
C36 C37 1.396 . S
C36 C39 1.453 . S
C36 C40 1.684 . S
C37 C27 1.723 . S
C37 C36 1.396 . S
C37 C38 1.394 . S
C38 C8 1.723 . S
C38 C34 1.397 . S
C38 C37 1.394 . S
C39 H11 0.982 . S
C39 H15 0.979 . S
C39 H16 0.977 . S
C39 C36 1.453 . S
C40 H12 0.979 . S
C40 H13 0.980 . S
C40 H14 0.983 . S
C40 C36 1.684 . S
H41 C59 0.948 . S
H42 C0 0.948 . S
H43 C18 0.979 . S
H44 C18 0.980 . S
H45 C18 0.983 . S
H46 C17 0.982 . S
H47 C17 0.979 . S
H48 C17 0.977 . S
H49 C19 0.948 . S
H50 C21 0.947 . S
H51 C22 0.948 . S
H52 C28 0.982 . S
H53 C28 0.979 . S
H54 C28 0.977 . S
H55 C29 0.979 . S
H56 C29 0.980 . S
H57 C29 0.983 . S
H58 C2 0.947 . S
C59 C2 1.392 . S
C59 C3 1.419 . S
C59 H41 0.948 . S
C60 C61 1.391 . S
C60 C64 1.391 . S
C60 H102 0.948 . S
C61 C60 1.391 . S
C61 C62 1.391 . S
C62 C61 1.391 . S
C62 H118 0.947 . S
C62 C119 1.392 . S
C63 C64 1.391 . S
C63 C67 1.397 . S
C63 C119 1.419 . S
C64 C60 1.391 . S
C64 C63 1.391 . S
C64 C65 1.399 . S
C65 C64 1.399 . S
C65 C68 1.396 . S
C65 C77 1.453 . S
C65 C78 1.684 . S
H66 C90 0.948 . S
C67 C63 1.397 . S
C67 C68 1.394 . S
C67 C86 1.723 . S
C68 C65 1.396 . S
C68 C67 1.394 . S
C68 C98 1.723 . S
H69 C92 0.947 . S
H70 C93 0.948 . S
H71 C99 0.982 . S
H72 C100 0.979 . S
H73 C100 0.980 . S
H74 C100 0.983 . S
H75 C99 0.979 . S
H76 C99 0.977 . S
C77 C65 1.453 . S
C77 H106 0.982 . S
C77 H107 0.979 . S
C77 H108 0.977 . S
C78 C65 1.684 . S
C78 H103 0.979 . S
C78 H104 0.980 . S
C78 H105 0.983 . S
C79 C80 1.391 . S
C79 C84 1.391 . S
C79 H109 0.948 . S
C80 C79 1.391 . S
C80 C81 1.391 . S
C81 C80 1.391 . S
C81 C82 1.392 . S
C81 H110 0.947 . S
C82 C81 1.392 . S
C82 C83 1.419 . S
C82 H111 0.948 . S
C83 C82 1.419 . S
C83 C84 1.391 . S
C83 C87 1.397 . S
C84 C79 1.391 . S
C84 C83 1.391 . S
C84 C85 1.399 . S
C85 C84 1.399 . S
C85 C86 1.396 . S
C85 C88 1.453 . S
C85 C89 1.684 . S
C86 C67 1.723 . S
C86 C85 1.396 . S
C86 C87 1.394 . S
C87 C83 1.397 . S
C87 C86 1.394 . S
C87 C97 1.723 . S
C88 C85 1.453 . S
C88 H112 0.982 . S
C88 H113 0.979 . S
C88 H114 0.977 . S
C89 C85 1.684 . S
C89 H115 0.979 . S
C89 H116 0.980 . S
C89 H117 0.983 . S
C90 H66 0.948 . S
C90 C91 1.391 . S
C90 C95 1.391 . S
C91 C90 1.391 . S
C91 C92 1.391 . S
C92 H69 0.947 . S
C92 C91 1.391 . S
C92 C93 1.392 . S
C93 H70 0.948 . S
C93 C92 1.392 . S
C93 C94 1.419 . S
C94 C93 1.419 . S
C94 C95 1.391 . S
C94 C98 1.397 . S
C95 C90 1.391 . S
C95 C94 1.391 . S
C95 C96 1.399 . S
C96 C95 1.399 . S
C96 C97 1.396 . S
C96 C99 1.453 . S
C96 C100 1.684 . S
C97 C87 1.723 . S
C97 C96 1.396 . S
C97 C98 1.394 . S
C98 C68 1.723 . S
C98 C94 1.397 . S
C98 C97 1.394 . S
C99 H71 0.982 . S
C99 H75 0.979 . S
C99 H76 0.977 . S
C99 C96 1.453 . S
C100 H72 0.979 . S
C100 H73 0.980 . S
C100 H74 0.983 . S
C100 C96 1.684 . S
H101 C119 0.948 . S
H102 C60 0.948 . S
H103 C78 0.979 . S
H104 C78 0.980 . S
H105 C78 0.983 . S
H106 C77 0.982 . S
H107 C77 0.979 . S
H108 C77 0.977 . S
H109 C79 0.948 . S
H110 C81 0.947 . S
H111 C82 0.948 . S
H112 C88 0.982 . S
H113 C88 0.979 . S
H114 C88 0.977 . S
H115 C89 0.979 . S
H116 C89 0.980 . S
H117 C89 0.983 . S
H118 C62 0.947 . S
C119 C62 1.392 . S
C119 C63 1.419 . S
C119 H101 0.948 . S
C120 C121 1.391 . S
C120 C124 1.391 . S
C120 H162 0.948 . S
C121 C120 1.391 . S
C121 C122 1.391 . S
C122 C121 1.391 . S
C122 H178 0.947 . S
C122 C179 1.392 . S
C123 C124 1.391 . S
C123 C127 1.397 . S
C123 C179 1.419 . S
C124 C120 1.391 . S
C124 C123 1.391 . S
C124 C125 1.399 . S
C125 C124 1.399 . S
C125 C128 1.396 . S
C125 C137 1.453 . S
C125 C138 1.684 . S
H126 C150 0.948 . S
C127 C123 1.397 . S
C127 C128 1.394 . S
C127 C146 1.723 . S
C128 C125 1.396 . S
C128 C127 1.394 . S
C128 C158 1.723 . S
H129 C152 0.947 . S
H130 C153 0.948 . S
H131 C159 0.982 . S
H132 C160 0.979 . S
H133 C160 0.980 . S
H134 C160 0.983 . S
H135 C159 0.979 . S
H136 C159 0.977 . S
C137 C125 1.453 . S
C137 H166 0.982 . S
C137 H167 0.979 . S
C137 H168 0.977 . S
C138 C125 1.684 . S
C138 H163 0.979 . S
C138 H164 0.980 . S
C138 H165 0.983 . S
C139 C140 1.391 . S
C139 C144 1.391 . S
C139 H169 0.948 . S
C140 C139 1.391 . S
C140 C141 1.391 . S
C141 C140 1.391 . S
C141 C142 1.392 . S
C141 H170 0.947 . S
C142 C141 1.392 . S
C142 C143 1.419 . S
C142 H171 0.948 . S
C143 C142 1.419 . S
C143 C144 1.391 . S
C143 C147 1.397 . S
C144 C139 1.391 . S
C144 C143 1.391 . S
C144 C145 1.399 . S
C145 C144 1.399 . S
C145 C146 1.396 . S
C145 C148 1.453 . S
C145 C149 1.684 . S
C146 C127 1.723 . S
C146 C145 1.396 . S
C146 C147 1.394 . S
C147 C143 1.397 . S
C147 C146 1.394 . S
C147 C157 1.723 . S
C148 C145 1.453 . S
C148 H172 0.982 . S
C148 H173 0.979 . S
C148 H174 0.977 . S
C149 C145 1.684 . S
C149 H175 0.979 . S
C149 H176 0.980 . S
C149 H177 0.983 . S
C150 H126 0.948 . S
C150 C151 1.391 . S
C150 C155 1.391 . S
C151 C150 1.391 . S
C151 C152 1.391 . S
C152 H129 0.947 . S
C152 C151 1.391 . S
C152 C153 1.392 . S
C153 H130 0.948 . S
C153 C152 1.392 . S
C153 C154 1.419 . S
C154 C153 1.419 . S
C154 C155 1.391 . S
C154 C158 1.397 . S
C155 C150 1.391 . S
C155 C154 1.391 . S
C155 C156 1.399 . S
C156 C155 1.399 . S
C156 C157 1.396 . S
C156 C159 1.453 . S
C156 C160 1.684 . S
C157 C147 1.723 . S
C157 C156 1.396 . S
C157 C158 1.394 . S
C158 C128 1.723 . S
C158 C154 1.397 . S
C158 C157 1.394 . S
C159 H131 0.982 . S
C159 H135 0.979 . S
C159 H136 0.977 . S
C159 C156 1.453 . S
C160 H132 0.979 . S
C160 H133 0.980 . S
C160 H134 0.983 . S
C160 C156 1.684 . S
H161 C179 0.948 . S
H162 C120 0.948 . S
H163 C138 0.979 . S
H164 C138 0.980 . S
H165 C138 0.983 . S
H166 C137 0.982 . S
H167 C137 0.979 . S
H168 C137 0.977 . S
H169 C139 0.948 . S
H170 C141 0.947 . S
H171 C142 0.948 . S
H172 C148 0.982 . S
H173 C148 0.979 . S
H174 C148 0.977 . S
H175 C149 0.979 . S
H176 C149 0.980 . S
H177 C149 0.983 . S
H178 C122 0.947 . S
C179 C122 1.392 . S
C179 C123 1.419 . S
C179 H161 0.948 . S
C180 C181 1.391 . S
C180 C184 1.391 . S
C180 H222 0.948 . S
C181 C180 1.391 . S
C181 C182 1.391 . S
C182 C181 1.391 . S
C182 H238 0.947 . S
C182 C239 1.392 . S
C183 C184 1.391 . S
C183 C187 1.397 . S
C183 C239 1.419 . S
C184 C180 1.391 . S
C184 C183 1.391 . S
C184 C185 1.399 . S
C185 C184 1.399 . S
C185 C188 1.396 . S
C185 C197 1.453 . S
C185 C198 1.684 . S
H186 C210 0.948 . S
C187 C183 1.397 . S
C187 C188 1.394 . S
C187 C206 1.723 . S
C188 C185 1.396 . S
C188 C187 1.394 . S
C188 C218 1.723 . S
H189 C212 0.947 . S
H190 C213 0.948 . S
H191 C219 0.982 . S
H192 C220 0.979 . S
H193 C220 0.980 . S
H194 C220 0.983 . S
H195 C219 0.979 . S
H196 C219 0.977 . S
C197 C185 1.453 . S
C197 H226 0.982 . S
C197 H227 0.979 . S
C197 H228 0.977 . S
C198 C185 1.684 . S
C198 H223 0.979 . S
C198 H224 0.980 . S
C198 H225 0.983 . S
C199 C200 1.391 . S
C199 C204 1.391 . S
C199 H229 0.948 . S
C200 C199 1.391 . S
C200 C201 1.391 . S
C201 C200 1.391 . S
C201 C202 1.392 . S
C201 H230 0.947 . S
C202 C201 1.392 . S
C202 C203 1.419 . S
C202 H231 0.948 . S
C203 C202 1.419 . S
C203 C204 1.391 . S
C203 C207 1.397 . S
C204 C199 1.391 . S
C204 C203 1.391 . S
C204 C205 1.399 . S
C205 C204 1.399 . S
C205 C206 1.396 . S
C205 C208 1.453 . S
C205 C209 1.684 . S
C206 C187 1.723 . S
C206 C205 1.396 . S
C206 C207 1.394 . S
C207 C203 1.397 . S
C207 C206 1.394 . S
C207 C217 1.723 . S
C208 C205 1.453 . S
C208 H232 0.982 . S
C208 H233 0.979 . S
C208 H234 0.977 . S
C209 C205 1.684 . S
C209 H235 0.979 . S
C209 H236 0.980 . S
C209 H237 0.983 . S
C210 H186 0.948 . S
C210 C211 1.391 . S
C210 C215 1.391 . S
C211 C210 1.391 . S
C211 C212 1.391 . S
C212 H189 0.947 . S
C212 C211 1.391 . S
C212 C213 1.392 . S
C213 H190 0.948 . S
C213 C212 1.392 . S
C213 C214 1.419 . S
C214 C213 1.419 . S
C214 C215 1.391 . S
C214 C218 1.397 . S
C215 C210 1.391 . S
C215 C214 1.391 . S
C215 C216 1.399 . S
C216 C215 1.399 . S
C216 C217 1.396 . S
C216 C219 1.453 . S
C216 C220 1.684 . S
C217 C207 1.723 . S
C217 C216 1.396 . S
C217 C218 1.394 . S
C218 C188 1.723 . S
C218 C214 1.397 . S
C218 C217 1.394 . S
C219 H191 0.982 . S
C219 H195 0.979 . S
C219 H196 0.977 . S
C219 C216 1.453 . S
C220 H192 0.979 . S
C220 H193 0.980 . S
C220 H194 0.983 . S
C220 C216 1.684 . S
H221 C239 0.948 . S
H222 C180 0.948 . S
H223 C198 0.979 . S
H224 C198 0.980 . S
H225 C198 0.983 . S
H226 C197 0.982 . S
H227 C197 0.979 . S
H228 C197 0.977 . S
H229 C199 0.948 . S
H230 C201 0.947 . S
H231 C202 0.948 . S
H232 C208 0.982 . S
H233 C208 0.979 . S
H234 C208 0.977 . S
H235 C209 0.979 . S
H236 C209 0.980 . S
H237 C209 0.983 . S
H238 C182 0.947 . S
C239 C182 1.392 . S
C239 C183 1.419 . S
C239 H221 0.948 . S
C240 C241 1.391 . S
C240 C244 1.391 . S
C240 H282 0.948 . S
C241 C240 1.391 . S
C241 C242 1.391 . S
C242 C241 1.391 . S
C242 H298 0.947 . S
C242 C299 1.392 . S
C243 C244 1.391 . S
C243 C247 1.397 . S
C243 C299 1.419 . S
C244 C240 1.391 . S
C244 C243 1.391 . S
C244 C245 1.399 . S
C245 C244 1.399 . S
C245 C248 1.396 . S
C245 C257 1.453 . S
C245 C258 1.684 . S
H246 C270 0.948 . S
C247 C243 1.397 . S
C247 C248 1.394 . S
C247 C266 1.723 . S
C248 C245 1.396 . S
C248 C247 1.394 . S
C248 C278 1.723 . S
H249 C272 0.947 . S
H250 C273 0.948 . S
H251 C279 0.982 . S
H252 C280 0.979 . S
H253 C280 0.980 . S
H254 C280 0.983 . S
H255 C279 0.979 . S
H256 C279 0.977 . S
C257 C245 1.453 . S
C257 H286 0.982 . S
C257 H287 0.979 . S
C257 H288 0.977 . S
C258 C245 1.684 . S
C258 H283 0.979 . S
C258 H284 0.980 . S
C258 H285 0.983 . S
C259 C260 1.391 . S
C259 C264 1.391 . S
C259 H289 0.948 . S
C260 C259 1.391 . S
C260 C261 1.391 . S
C261 C260 1.391 . S
C261 C262 1.392 . S
C261 H290 0.947 . S
C262 C261 1.392 . S
C262 C263 1.419 . S
C262 H291 0.948 . S
C263 C262 1.419 . S
C263 C264 1.391 . S
C263 C267 1.397 . S
C264 C259 1.391 . S
C264 C263 1.391 . S
C264 C265 1.399 . S
C265 C264 1.399 . S
C265 C266 1.396 . S
C265 C268 1.453 . S
C265 C269 1.684 . S
C266 C247 1.723 . S
C266 C265 1.396 . S
C266 C267 1.394 . S
C267 C263 1.397 . S
C267 C266 1.394 . S
C267 C277 1.723 . S
C268 C265 1.453 . S
C268 H292 0.982 . S
C268 H293 0.979 . S
C268 H294 0.977 . S
C269 C265 1.684 . S
C269 H295 0.979 . S
C269 H296 0.980 . S
C269 H297 0.983 . S
C270 H246 0.948 . S
C270 C271 1.391 . S
C270 C275 1.391 . S
C271 C270 1.391 . S
C271 C272 1.391 . S
C272 H249 0.947 . S
C272 C271 1.391 . S
C272 C273 1.392 . S
C273 H250 0.948 . S
C273 C272 1.392 . S
C273 C274 1.419 . S
C274 C273 1.419 . S
C274 C275 1.391 . S
C274 C278 1.397 . S
C275 C270 1.391 . S
C275 C274 1.391 . S
C275 C276 1.399 . S
C276 C275 1.399 . S
C276 C277 1.396 . S
C276 C279 1.453 . S
C276 C280 1.684 . S
C277 C267 1.723 . S
C277 C276 1.396 . S
C277 C278 1.394 . S
C278 C248 1.723 . S
C278 C274 1.397 . S
C278 C277 1.394 . S
C279 H251 0.982 . S
C279 H255 0.979 . S
C279 H256 0.977 . S
C279 C276 1.453 . S
C280 H252 0.979 . S
C280 H253 0.980 . S
C280 H254 0.983 . S
C280 C276 1.684 . S
H281 C299 0.948 . S
H282 C240 0.948 . S
H283 C258 0.979 . S
H284 C258 0.980 . S
H285 C258 0.983 . S
H286 C257 0.982 . S
H287 C257 0.979 . S
H288 C257 0.977 . S
H289 C259 0.948 . S
H290 C261 0.947 . S
H291 C262 0.948 . S
H292 C268 0.982 . S
H293 C268 0.979 . S
H294 C268 0.977 . S
H295 C269 0.979 . S
H296 C269 0.980 . S
H297 C269 0.983 . S
H298 C242 0.947 . S
C299 C242 1.392 . S
C299 C243 1.419 . S
C299 H281 0.948 . S
C300 C301 1.391 . S
C300 C304 1.391 . S
C300 H342 0.948 . S
C301 C300 1.391 . S
C301 C302 1.391 . S
C302 C301 1.391 . S
C302 H358 0.947 . S
C302 C359 1.392 . S
C303 C304 1.391 . S
C303 C307 1.397 . S
C303 C359 1.419 . S
C304 C300 1.391 . S
C304 C303 1.391 . S
C304 C305 1.399 . S
C305 C304 1.399 . S
C305 C308 1.396 . S
C305 C317 1.453 . S
C305 C318 1.684 . S
H306 C330 0.948 . S
C307 C303 1.397 . S
C307 C308 1.394 . S
C307 C326 1.723 . S
C308 C305 1.396 . S
C308 C307 1.394 . S
C308 C338 1.723 . S
H309 C332 0.947 . S
H310 C333 0.948 . S
H311 C339 0.982 . S
H312 C340 0.979 . S
H313 C340 0.980 . S
H314 C340 0.983 . S
H315 C339 0.979 . S
H316 C339 0.977 . S
C317 C305 1.453 . S
C317 H346 0.982 . S
C317 H347 0.979 . S
C317 H348 0.977 . S
C318 C305 1.684 . S
C318 H343 0.979 . S
C318 H344 0.980 . S
C318 H345 0.983 . S
C319 C320 1.391 . S
C319 C324 1.391 . S
C319 H349 0.948 . S
C320 C319 1.391 . S
C320 C321 1.391 . S
C321 C320 1.391 . S
C321 C322 1.392 . S
C321 H350 0.947 . S
C322 C321 1.392 . S
C322 C323 1.419 . S
C322 H351 0.948 . S
C323 C322 1.419 . S
C323 C324 1.391 . S
C323 C327 1.397 . S
C324 C319 1.391 . S
C324 C323 1.391 . S
C324 C325 1.399 . S
C325 C324 1.399 . S
C325 C326 1.396 . S
C325 C328 1.453 . S
C325 C329 1.684 . S
C326 C307 1.723 . S
C326 C325 1.396 . S
C326 C327 1.394 . S
C327 C323 1.397 . S
C327 C326 1.394 . S
C327 C337 1.723 . S
C328 C325 1.453 . S
C328 H352 0.982 . S
C328 H353 0.979 . S
C328 H354 0.977 . S
C329 C325 1.684 . S
C329 H355 0.979 . S
C329 H356 0.980 . S
C329 H357 0.983 . S
C330 H306 0.948 . S
C330 C331 1.391 . S
C330 C335 1.391 . S
C331 C330 1.391 . S
C331 C332 1.391 . S
C332 H309 0.947 . S
C332 C331 1.391 . S
C332 C333 1.392 . S
C333 H310 0.948 . S
C333 C332 1.392 . S
C333 C334 1.419 . S
C334 C333 1.419 . S
C334 C335 1.391 . S
C334 C338 1.397 . S
C335 C330 1.391 . S
C335 C334 1.391 . S
C335 C336 1.399 . S
C336 C335 1.399 . S
C336 C337 1.396 . S
C336 C339 1.453 . S
C336 C340 1.684 . S
C337 C327 1.723 . S
C337 C336 1.396 . S
C337 C338 1.394 . S
C338 C308 1.723 . S
C338 C334 1.397 . S
C338 C337 1.394 . S
C339 H311 0.982 . S
C339 H315 0.979 . S
C339 H316 0.977 . S
C339 C336 1.453 . S
C340 H312 0.979 . S
C340 H313 0.980 . S
C340 H314 0.983 . S
C340 C336 1.684 . S
H341 C359 0.948 . S
H342 C300 0.948 . S
H343 C318 0.979 . S
H344 C318 0.980 . S
H345 C318 0.983 . S
H346 C317 0.982 . S
H347 C317 0.979 . S
H348 C317 0.977 . S
H349 C319 0.948 . S
H350 C321 0.947 . S
H351 C322 0.948 . S
H352 C328 0.982 . S
H353 C328 0.979 . S
H354 C328 0.977 . S
H355 C329 0.979 . S
H356 C329 0.980 . S
H357 C329 0.983 . S
H358 C302 0.947 . S
C359 C302 1.392 . S
C359 C303 1.419 . S
C359 H341 0.948 . S
C360 C361 1.391 . S
C360 C364 1.391 . S
C360 H402 0.948 . S
C361 C360 1.391 . S
C361 C362 1.391 . S
C362 C361 1.391 . S
C362 H418 0.947 . S
C362 C419 1.392 . S
C363 C364 1.391 . S
C363 C367 1.397 . S
C363 C419 1.419 . S
C364 C360 1.391 . S
C364 C363 1.391 . S
C364 C365 1.399 . S
C365 C364 1.399 . S
C365 C368 1.396 . S
C365 C377 1.453 . S
C365 C378 1.684 . S
H366 C390 0.948 . S
C367 C363 1.397 . S
C367 C368 1.394 . S
C367 C386 1.723 . S
C368 C365 1.396 . S
C368 C367 1.394 . S
C368 C398 1.723 . S
H369 C392 0.947 . S
H370 C393 0.948 . S
H371 C399 0.982 . S
H372 C400 0.979 . S
H373 C400 0.980 . S
H374 C400 0.983 . S
H375 C399 0.979 . S
H376 C399 0.977 . S
C377 C365 1.453 . S
C377 H406 0.982 . S
C377 H407 0.979 . S
C377 H408 0.977 . S
C378 C365 1.684 . S
C378 H403 0.979 . S
C378 H404 0.980 . S
C378 H405 0.983 . S
C379 C380 1.391 . S
C379 C384 1.391 . S
C379 H409 0.948 . S
C380 C379 1.391 . S
C380 C381 1.391 . S
C381 C380 1.391 . S
C381 C382 1.392 . S
C381 H410 0.947 . S
C382 C381 1.392 . S
C382 C383 1.419 . S
C382 H411 0.948 . S
C383 C382 1.419 . S
C383 C384 1.391 . S
C383 C387 1.397 . S
C384 C379 1.391 . S
C384 C383 1.391 . S
C384 C385 1.399 . S
C385 C384 1.399 . S
C385 C386 1.396 . S
C385 C388 1.453 . S
C385 C389 1.684 . S
C386 C367 1.723 . S
C386 C385 1.396 . S
C386 C387 1.394 . S
C387 C383 1.397 . S
C387 C386 1.394 . S
C387 C397 1.723 . S
C388 C385 1.453 . S
C388 H412 0.982 . S
C388 H413 0.979 . S
C388 H414 0.977 . S
C389 C385 1.684 . S
C389 H415 0.979 . S
C389 H416 0.980 . S
C389 H417 0.983 . S
C390 H366 0.948 . S
C390 C391 1.391 . S
C390 C395 1.391 . S
C391 C390 1.391 . S
C391 C392 1.391 . S
C392 H369 0.947 . S
C392 C391 1.391 . S
C392 C393 1.392 . S
C393 H370 0.948 . S
C393 C392 1.392 . S
C393 C394 1.419 . S
C394 C393 1.419 . S
C394 C395 1.391 . S
C394 C398 1.397 . S
C395 C390 1.391 . S
C395 C394 1.391 . S
C395 C396 1.399 . S
C396 C395 1.399 . S
C396 C397 1.396 . S
C396 C399 1.453 . S
C396 C400 1.684 . S
C397 C387 1.723 . S
C397 C396 1.396 . S
C397 C398 1.394 . S
C398 C368 1.723 . S
C398 C394 1.397 . S
C398 C397 1.394 . S
C399 H371 0.982 . S
C399 H375 0.979 . S
C399 H376 0.977 . S
C399 C396 1.453 . S
C400 H372 0.979 . S
C400 H373 0.980 . S
C400 H374 0.983 . S
C400 C396 1.684 . S
H401 C419 0.948 . S
H402 C360 0.948 . S
H403 C378 0.979 . S
H404 C378 0.980 . S
H405 C378 0.983 . S
H406 C377 0.982 . S
H407 C377 0.979 . S
H408 C377 0.977 . S
H409 C379 0.948 . S
H410 C381 0.947 . S
H411 C382 0.948 . S
H412 C388 0.982 . S
H413 C388 0.979 . S
H414 C388 0.977 . S
H415 C389 0.979 . S
H416 C389 0.980 . S
H417 C389 0.983 . S
H418 C362 0.947 . S
C419 C362 1.392 . S
C419 C363 1.419 . S
C419 H401 0.948 . S
C420 C421 1.391 . S
C420 C424 1.391 . S
C420 H462 0.948 . S
C421 C420 1.391 . S
C421 C422 1.391 . S
C422 C421 1.391 . S
C422 H478 0.947 . S
C422 C479 1.392 . S
C423 C424 1.391 . S
C423 C427 1.397 . S
C423 C479 1.419 . S
C424 C420 1.391 . S
C424 C423 1.391 . S
C424 C425 1.399 . S
C425 C424 1.399 . S
C425 C428 1.396 . S
C425 C437 1.453 . S
C425 C438 1.684 . S
H426 C450 0.948 . S
C427 C423 1.397 . S
C427 C428 1.394 . S
C427 C446 1.723 . S
C428 C425 1.396 . S
C428 C427 1.394 . S
C428 C458 1.723 . S
H429 C452 0.947 . S
H430 C453 0.948 . S
H431 C459 0.982 . S
H432 C460 0.979 . S
H433 C460 0.980 . S
H434 C460 0.983 . S
H435 C459 0.979 . S
H436 C459 0.977 . S
C437 C425 1.453 . S
C437 H466 0.982 . S
C437 H467 0.979 . S
C437 H468 0.977 . S
C438 C425 1.684 . S
C438 H463 0.979 . S
C438 H464 0.980 . S
C438 H465 0.983 . S
C439 C440 1.391 . S
C439 C444 1.391 . S
C439 H469 0.948 . S
C440 C439 1.391 . S
C440 C441 1.391 . S
C441 C440 1.391 . S
C441 C442 1.392 . S
C441 H470 0.947 . S
C442 C441 1.392 . S
C442 C443 1.419 . S
C442 H471 0.948 . S
C443 C442 1.419 . S
C443 C444 1.391 . S
C443 C447 1.397 . S
C444 C439 1.391 . S
C444 C443 1.391 . S
C444 C445 1.399 . S
C445 C444 1.399 . S
C445 C446 1.396 . S
C445 C448 1.453 . S
C445 C449 1.684 . S
C446 C427 1.723 . S
C446 C445 1.396 . S
C446 C447 1.394 . S
C447 C443 1.397 . S
C447 C446 1.394 . S
C447 C457 1.723 . S
C448 C445 1.453 . S
C448 H472 0.982 . S
C448 H473 0.979 . S
C448 H474 0.977 . S
C449 C445 1.684 . S
C449 H475 0.979 . S
C449 H476 0.980 . S
C449 H477 0.983 . S
C450 H426 0.948 . S
C450 C451 1.391 . S
C450 C455 1.391 . S
C451 C450 1.391 . S
C451 C452 1.391 . S
C452 H429 0.947 . S
C452 C451 1.391 . S
C452 C453 1.392 . S
C453 H430 0.948 . S
C453 C452 1.392 . S
C453 C454 1.419 . S
C454 C453 1.419 . S
C454 C455 1.391 . S
C454 C458 1.397 . S
C455 C450 1.391 . S
C455 C454 1.391 . S
C455 C456 1.399 . S
C456 C455 1.399 . S
C456 C457 1.396 . S
C456 C459 1.453 . S
C456 C460 1.684 . S
C457 C447 1.723 . S
C457 C456 1.396 . S
C457 C458 1.394 . S
C458 C428 1.723 . S
C458 C454 1.397 . S
C458 C457 1.394 . S
C459 H431 0.982 . S
C459 H435 0.979 . S
C459 H436 0.977 . S
C459 C456 1.453 . S
C460 H432 0.979 . S
C460 H433 0.980 . S
C460 H434 0.983 . S
C460 C456 1.684 . S
H461 C479 0.948 . S
H462 C420 0.948 . S
H463 C438 0.979 . S
H464 C438 0.980 . S
H465 C438 0.983 . S
H466 C437 0.982 . S
H467 C437 0.979 . S
H468 C437 0.977 . S
H469 C439 0.948 . S
H470 C441 0.947 . S
H471 C442 0.948 . S
H472 C448 0.982 . S
H473 C448 0.979 . S
H474 C448 0.977 . S
H475 C449 0.979 . S
H476 C449 0.980 . S
H477 C449 0.983 . S
H478 C422 0.947 . S
C479 C422 1.392 . S
C479 C423 1.419 . S
C479 H461 0.948 . S
La480 C482 2.928 . S
La480 O500 2.521 . S
La480 O501 2.628 . S
La480 O502 2.554 1_545 S
La480 O503 2.757 1_545 S
La480 O504 2.470 . S
La480 O509 2.482 1_455 S
La480 O511 2.503 1_445 S
La481 C491 2.928 . S
La481 O503 2.482 1_655 S
La481 O505 2.503 1_665 S
La481 O506 2.521 . S
La481 O507 2.628 . S
La481 O508 2.554 1_565 S
La481 O509 2.757 1_565 S
La481 O510 2.470 . S
C482 La480 2.928 . S
C482 C483 1.503 . S
C482 O500 1.261 . S
C482 O501 1.243 . S
C483 C482 1.503 . S
C483 C484 1.394 . S
C483 C488 1.373 . S
C484 C483 1.394 . S
C484 C485 1.380 . S
C484 H512 0.930 . S
C485 C484 1.380 . S
C485 C486 1.376 . S
C485 H513 0.930 . S
C486 C485 1.376 . S
C486 C487 1.370 . S
C487 C486 1.370 . S
C487 C488 1.396 . S
C487 H514 0.929 . S
C488 C483 1.373 . S
C488 C487 1.396 . S
C488 H515 0.929 . S
C489 O502 1.240 . S
C489 O503 1.289 . S
C490 O504 1.258 . S
C490 O505 1.256 . S
C491 La481 2.928 . S
C491 C492 1.503 . S
C491 O506 1.261 . S
C491 O507 1.243 . S
C492 C491 1.503 . S
C492 C493 1.394 . S
C492 C497 1.373 . S
C493 C492 1.394 . S
C493 C494 1.380 . S
C493 H516 0.930 . S
C494 C493 1.380 . S
C494 C495 1.376 . S
C494 H517 0.930 . S
C495 C494 1.376 . S
C495 C496 1.370 . S
C496 C495 1.370 . S
C496 C497 1.396 . S
C496 H518 0.929 . S
C497 C492 1.373 . S
C497 C496 1.396 . S
C497 H519 0.929 . S
C498 O508 1.240 . S
C498 O509 1.289 . S
C499 O510 1.258 . S
C499 O511 1.256 . S
O500 La480 2.521 . S
O500 C482 1.261 . S
O501 La480 2.628 . S
O501 C482 1.243 . S
O502 La480 2.554 1_565 S
O502 C489 1.240 . S
O503 La480 2.757 1_565 S
O503 La481 2.482 1_455 S
O503 C489 1.289 . S
O504 La480 2.470 . S
O504 C490 1.258 . S
O505 La481 2.503 1_445 S
O505 C490 1.256 . S
O506 La481 2.521 . S
O506 C491 1.261 . S
O507 La481 2.628 . S
O507 C491 1.243 . S
O508 La481 2.554 1_545 S
O508 C498 1.240 . S
O509 La480 2.482 1_655 S
O509 La481 2.757 1_545 S
O509 C498 1.289 . S
O510 La481 2.470 . S
O510 C499 1.258 . S
O511 La480 2.503 1_665 S
O511 C499 1.256 . S
H512 C484 0.930 . S
H513 C485 0.930 . S
H514 C487 0.929 . S
H515 C488 0.929 . S
H516 C493 0.930 . S
H517 C494 0.930 . S
H518 C496 0.929 . S
H519 C497 0.929 . S
La520 C522 2.928 1_565 S
La520 O540 2.521 1_565 S
La520 O541 2.628 1_565 S
La520 O542 2.554 . S
La520 O543 2.757 . S
La520 O544 2.470 1_565 S
La520 O549 2.482 1_564 S
La520 O551 2.503 1_554 S
La521 C531 2.928 1_545 S
La521 O543 2.482 1_546 S
La521 O545 2.503 1_556 S
La521 O546 2.521 1_545 S
La521 O547 2.628 1_545 S
La521 O548 2.554 . S
La521 O549 2.757 . S
La521 O550 2.470 1_545 S
C522 La520 2.928 1_545 S
C522 C523 1.503 . S
C522 O540 1.261 . S
C522 O541 1.243 . S
C523 C522 1.503 . S
C523 C524 1.394 . S
C523 C528 1.373 . S
C524 C523 1.394 . S
C524 C525 1.380 . S
C524 H552 0.930 . S
C525 C524 1.380 . S
C525 C526 1.376 . S
C525 H553 0.930 . S
C526 C525 1.376 . S
C526 C527 1.370 . S
C527 C526 1.370 . S
C527 C528 1.396 . S
C527 H554 0.929 . S
C528 C523 1.373 . S
C528 C527 1.396 . S
C528 H555 0.929 . S
C529 O542 1.240 . S
C529 O543 1.289 . S
C530 O544 1.258 . S
C530 O545 1.256 . S
C531 La521 2.928 1_565 S
C531 C532 1.503 . S
C531 O546 1.261 . S
C531 O547 1.243 . S
C532 C531 1.503 . S
C532 C533 1.394 . S
C532 C537 1.373 . S
C533 C532 1.394 . S
C533 C534 1.380 . S
C533 H556 0.930 . S
C534 C533 1.380 . S
C534 C535 1.376 . S
C534 H557 0.930 . S
C535 C534 1.376 . S
C535 C536 1.370 . S
C536 C535 1.370 . S
C536 C537 1.396 . S
C536 H558 0.929 . S
C537 C532 1.373 . S
C537 C536 1.396 . S
C537 H559 0.929 . S
C538 O548 1.240 . S
C538 O549 1.289 . S
C539 O550 1.258 . S
C539 O551 1.256 . S
O540 La520 2.521 1_545 S
O540 C522 1.261 . S
O541 La520 2.628 1_545 S
O541 C522 1.243 . S
O542 La520 2.554 . S
O542 C529 1.240 . S
O543 La520 2.757 . S
O543 La521 2.482 1_564 S
O543 C529 1.289 . S
O544 La520 2.470 1_545 S
O544 C530 1.258 . S
O545 La521 2.503 1_554 S
O545 C530 1.256 . S
O546 La521 2.521 1_565 S
O546 C531 1.261 . S
O547 La521 2.628 1_565 S
O547 C531 1.243 . S
O548 La521 2.554 . S
O548 C538 1.240 . S
O549 La520 2.482 1_546 S
O549 La521 2.757 . S
O549 C538 1.289 . S
O550 La521 2.470 1_565 S
O550 C539 1.258 . S
O551 La520 2.503 1_556 S
O551 C539 1.256 . S
H552 C524 0.930 . S
H553 C525 0.930 . S
H554 C527 0.929 . S
H555 C528 0.929 . S
H556 C533 0.930 . S
H557 C534 0.930 . S
H558 C536 0.929 . S
H559 C537 0.929 . S
La560 C562 2.928 . S
La560 O580 2.521 . S
La560 O581 2.628 . S
La560 O582 2.554 . S
La560 O583 2.757 . S
La560 O584 2.470 . S
La560 O589 2.482 . S
La560 O591 2.503 . S
La561 C571 2.928 . S
La561 O583 2.482 . S
La561 O585 2.503 . S
La561 O586 2.521 . S
La561 O587 2.628 . S
La561 O588 2.554 . S
La561 O589 2.757 . S
La561 O590 2.470 . S
C562 La560 2.928 . S
C562 C563 1.503 . S
C562 O580 1.261 . S
C562 O581 1.243 . S
C563 C562 1.503 . S
C563 C564 1.394 . S
C563 C568 1.373 . S
C564 C563 1.394 . S
C564 C565 1.380 . S
C564 H592 0.930 . S
C565 C564 1.380 . S
C565 C566 1.376 . S
C565 H593 0.930 . S
C566 C565 1.376 . S
C566 C567 1.370 . S
C567 C566 1.370 . S
C567 C568 1.396 . S
C567 H594 0.929 . S
C568 C563 1.373 . S
C568 C567 1.396 . S
C568 H595 0.929 . S
C569 O582 1.240 . S
C569 O583 1.289 . S
C570 O584 1.258 . S
C570 O585 1.256 . S
C571 La561 2.928 . S
C571 C572 1.503 . S
C571 O586 1.261 . S
C571 O587 1.243 . S
C572 C571 1.503 . S
C572 C573 1.394 . S
C572 C577 1.373 . S
C573 C572 1.394 . S
C573 C574 1.380 . S
C573 H596 0.930 . S
C574 C573 1.380 . S
C574 C575 1.376 . S
C574 H597 0.930 . S
C575 C574 1.376 . S
C575 C576 1.370 . S
C576 C575 1.370 . S
C576 C577 1.396 . S
C576 H598 0.929 . S
C577 C572 1.373 . S
C577 C576 1.396 . S
C577 H599 0.929 . S
C578 O588 1.240 . S
C578 O589 1.289 . S
C579 O590 1.258 . S
C579 O591 1.256 . S
O580 La560 2.521 . S
O580 C562 1.261 . S
O581 La560 2.628 . S
O581 C562 1.243 . S
O582 La560 2.554 . S
O582 C569 1.240 . S
O583 La560 2.757 . S
O583 La561 2.482 . S
O583 C569 1.289 . S
O584 La560 2.470 . S
O584 C570 1.258 . S
O585 La561 2.503 . S
O585 C570 1.256 . S
O586 La561 2.521 . S
O586 C571 1.261 . S
O587 La561 2.628 . S
O587 C571 1.243 . S
O588 La561 2.554 . S
O588 C578 1.240 . S
O589 La560 2.482 . S
O589 La561 2.757 . S
O589 C578 1.289 . S
O590 La561 2.470 . S
O590 C579 1.258 . S
O591 La560 2.503 . S
O591 C579 1.256 . S
H592 C564 0.930 . S
H593 C565 0.930 . S
H594 C567 0.929 . S
H595 C568 0.929 . S
H596 C573 0.930 . S
H597 C574 0.930 . S
H598 C576 0.929 . S
H599 C577 0.929 . S
La600 C602 2.928 . S
La600 O620 2.521 . S
La600 O621 2.628 . S
La600 O622 2.554 1_455 S
La600 O623 2.757 1_455 S
La600 O624 2.470 . S
La600 O629 2.482 1_554 S
La600 O631 2.503 1_454 S
La601 C611 2.928 . S
La601 O623 2.482 1_556 S
La601 O625 2.503 1_656 S
La601 O626 2.521 . S
La601 O627 2.628 . S
La601 O628 2.554 1_655 S
La601 O629 2.757 1_655 S
La601 O630 2.470 . S
C602 La600 2.928 . S
C602 C603 1.503 . S
C602 O620 1.261 . S
C602 O621 1.243 . S
C603 C602 1.503 . S
C603 C604 1.394 . S
C603 C608 1.373 . S
C604 C603 1.394 . S
C604 C605 1.380 . S
C604 H632 0.930 . S
C605 C604 1.380 . S
C605 C606 1.376 . S
C605 H633 0.930 . S
C606 C605 1.376 . S
C606 C607 1.370 . S
C607 C606 1.370 . S
C607 C608 1.396 . S
C607 H634 0.929 . S
C608 C603 1.373 . S
C608 C607 1.396 . S
C608 H635 0.929 . S
C609 O622 1.240 . S
C609 O623 1.289 . S
C610 O624 1.258 . S
C610 O625 1.256 . S
C611 La601 2.928 . S
C611 C612 1.503 . S
C611 O626 1.261 . S
C611 O627 1.243 . S
C612 C611 1.503 . S
C612 C613 1.394 . S
C612 C617 1.373 . S
C613 C612 1.394 . S
C613 C614 1.380 . S
C613 H636 0.930 . S
C614 C613 1.380 . S
C614 C615 1.376 . S
C614 H637 0.930 . S
C615 C614 1.376 . S
C615 C616 1.370 . S
C616 C615 1.370 . S
C616 C617 1.396 . S
C616 H638 0.929 . S
C617 C612 1.373 . S
C617 C616 1.396 . S
C617 H639 0.929 . S
C618 O628 1.240 . S
C618 O629 1.289 . S
C619 O630 1.258 . S
C619 O631 1.256 . S
O620 La600 2.521 . S
O620 C602 1.261 . S
O621 La600 2.628 . S
O621 C602 1.243 . S
O622 La600 2.554 1_655 S
O622 C609 1.240 . S
O623 La600 2.757 1_655 S
O623 La601 2.482 1_554 S
O623 C609 1.289 . S
O624 La600 2.470 . S
O624 C610 1.258 . S
O625 La601 2.503 1_454 S
O625 C610 1.256 . S
O626 La601 2.521 . S
O626 C611 1.261 . S
O627 La601 2.628 . S
O627 C611 1.243 . S
O628 La601 2.554 1_455 S
O628 C618 1.240 . S
O629 La600 2.482 1_556 S
O629 La601 2.757 1_455 S
O629 C618 1.289 . S
O630 La601 2.470 . S
O630 C619 1.258 . S
O631 La600 2.503 1_656 S
O631 C619 1.256 . S
H632 C604 0.930 . S
H633 C605 0.930 . S
H634 C607 0.929 . S
H635 C608 0.929 . S
H636 C613 0.930 . S
H637 C614 0.930 . S
H638 C616 0.929 . S
H639 C617 0.929 . S
C640 C641 1.387 . S
C640 H644 0.950 . S
C640 C649 1.390 . S
C641 C640 1.387 . S
C641 C643 1.387 . S
H642 C649 0.950 . S
C643 C641 1.387 . S
C643 C645 1.390 . S
C643 H647 0.950 . S
H644 C640 0.950 . S
C645 C643 1.390 . S
C645 C646 1.387 . S
C645 H648 0.950 . S
C646 C645 1.387 . S
C646 C649 1.387 . S
H647 C643 0.950 . S
H648 C645 0.950 . S
C649 C640 1.390 . S
C649 H642 0.950 . S
C649 C646 1.387 . S
C650 C651 1.387 . S
C650 H654 0.950 . S
C650 C659 1.390 . S
C651 C650 1.387 . S
C651 C653 1.387 . S
H652 C659 0.950 . S
C653 C651 1.387 . S
C653 C655 1.390 . S
C653 H657 0.950 . S
H654 C650 0.950 . S
C655 C653 1.390 . S
C655 C656 1.387 . S
C655 H658 0.950 . S
C656 C655 1.387 . S
C656 C659 1.387 . S
H657 C653 0.950 . S
H658 C655 0.950 . S
C659 C650 1.390 . S
C659 H652 0.950 . S
C659 C656 1.387 . S
C660 C661 1.387 . S
C660 H664 0.950 . S
C660 C669 1.390 . S
C661 C660 1.387 . S
C661 C663 1.387 . S
H662 C669 0.950 . S
C663 C661 1.387 . S
C663 C665 1.390 . S
C663 H667 0.950 . S
H664 C660 0.950 . S
C665 C663 1.390 . S
C665 C666 1.387 . S
C665 H668 0.950 . S
C666 C665 1.387 . S
C666 C669 1.387 . S
H667 C663 0.950 . S
H668 C665 0.950 . S
C669 C660 1.390 . S
C669 H662 0.950 . S
C669 C666 1.387 . S
C670 C671 1.387 . S
C670 H674 0.950 . S
C670 C679 1.390 . S
C671 C670 1.387 . S
C671 C673 1.387 . S
H672 C679 0.950 . S
C673 C671 1.387 . S
C673 C675 1.390 . S
C673 H677 0.950 . S
H674 C670 0.950 . S
C675 C673 1.390 . S
C675 C676 1.387 . S
C675 H678 0.950 . S
C676 C675 1.387 . S
C676 C679 1.387 . S
H677 C673 0.950 . S
H678 C675 0.950 . S
C679 C670 1.390 . S
C679 H672 0.950 . S
C679 C676 1.387 . S
C680 C681 1.387 . S
C680 H684 0.950 . S
C680 C689 1.390 . S
C681 C680 1.387 . S
C681 C683 1.387 . S
H682 C689 0.950 . S
C683 C681 1.387 . S
C683 C685 1.390 . S
C683 H687 0.950 . S
H684 C680 0.950 . S
C685 C683 1.390 . S
C685 C686 1.387 . S
C685 H688 0.950 . S
C686 C685 1.387 . S
C686 C689 1.387 . S
H687 C683 0.950 . S
H688 C685 0.950 . S
C689 C680 1.390 . S
C689 H682 0.950 . S
C689 C686 1.387 . S
C690 C691 1.387 . S
C690 H694 0.950 . S
C690 C699 1.390 . S
C691 C690 1.387 . S
C691 C693 1.387 . S
H692 C699 0.950 . S
C693 C691 1.387 . S
C693 C695 1.390 . S
C693 H697 0.950 . S
H694 C690 0.950 . S
C695 C693 1.390 . S
C695 C696 1.387 . S
C695 H698 0.950 . S
C696 C695 1.387 . S
C696 C699 1.387 . S
H697 C693 0.950 . S
H698 C695 0.950 . S
C699 C690 1.390 . S
C699 H692 0.950 . S
C699 C696 1.387 . S
C700 C701 1.387 . S
C700 H704 0.950 . S
C700 C709 1.390 . S
C701 C700 1.387 . S
C701 C703 1.387 . S
H702 C709 0.950 . S
C703 C701 1.387 . S
C703 C705 1.390 . S
C703 H707 0.950 . S
H704 C700 0.950 . S
C705 C703 1.390 . S
C705 C706 1.387 . S
C705 H708 0.950 . S
C706 C705 1.387 . S
C706 C709 1.387 . S
H707 C703 0.950 . S
H708 C705 0.950 . S
C709 C700 1.390 . S
C709 H702 0.950 . S
C709 C706 1.387 . S
C710 C711 1.387 . S
C710 H714 0.950 . S
C710 C719 1.390 . S
C711 C710 1.387 . S
C711 C713 1.387 . S
H712 C719 0.950 . S
C713 C711 1.387 . S
C713 C715 1.390 . S
C713 H717 0.950 . S
H714 C710 0.950 . S
C715 C713 1.390 . S
C715 C716 1.387 . S
C715 H718 0.950 . S
C716 C715 1.387 . S
C716 C719 1.387 . S
H717 C713 0.950 . S
H718 C715 0.950 . S
C719 C710 1.390 . S
C719 H712 0.950 . S
C719 C716 1.387 . S
C720 C721 1.387 . S
C720 H724 0.950 . S
C720 C729 1.390 . S
C721 C720 1.387 . S
C721 C723 1.387 . S
H722 C729 0.950 . S
C723 C721 1.387 . S
C723 C725 1.390 . S
C723 H727 0.950 . S
H724 C720 0.950 . S
C725 C723 1.390 . S
C725 C726 1.387 . S
C725 H728 0.950 . S
C726 C725 1.387 . S
C726 C729 1.387 . S
H727 C723 0.950 . S
H728 C725 0.950 . S
C729 C720 1.390 . S
C729 H722 0.950 . S
C729 C726 1.387 . S
C730 C731 1.387 . S
C730 H734 0.950 . S
C730 C739 1.390 . S
C731 C730 1.387 . S
C731 C733 1.387 . S
H732 C739 0.950 . S
C733 C731 1.387 . S
C733 C735 1.390 . S
C733 H737 0.950 . S
H734 C730 0.950 . S
C735 C733 1.390 . S
C735 C736 1.387 . S
C735 H738 0.950 . S
C736 C735 1.387 . S
C736 C739 1.387 . S
H737 C733 0.950 . S
H738 C735 0.950 . S
C739 C730 1.390 . S
C739 H732 0.950 . S
C739 C736 1.387 . S
C740 C741 1.387 . S
C740 H744 0.950 . S
C740 C749 1.390 . S
C741 C740 1.387 . S
C741 C743 1.387 . S
H742 C749 0.950 . S
C743 C741 1.387 . S
C743 C745 1.390 . S
C743 H747 0.950 . S
H744 C740 0.950 . S
C745 C743 1.390 . S
C745 C746 1.387 . S
C745 H748 0.950 . S
C746 C745 1.387 . S
C746 C749 1.387 . S
H747 C743 0.950 . S
H748 C745 0.950 . S
C749 C740 1.390 . S
C749 H742 0.950 . S
C749 C746 1.387 . S
C750 C751 1.387 . S
C750 H754 0.950 . S
C750 C759 1.390 . S
C751 C750 1.387 . S
C751 C753 1.387 . S
H752 C759 0.950 . S
C753 C751 1.387 . S
C753 C755 1.390 . S
C753 H757 0.950 . S
H754 C750 0.950 . S
C755 C753 1.390 . S
C755 C756 1.387 . S
C755 H758 0.950 . S
C756 C755 1.387 . S
C756 C759 1.387 . S
H757 C753 0.950 . S
H758 C755 0.950 . S
C759 C750 1.390 . S
C759 H752 0.950 . S
C759 C756 1.387 . S
C760 C761 1.387 . S
C760 H764 0.950 . S
C760 C769 1.390 . S
C761 C760 1.387 . S
C761 C763 1.387 . S
H762 C769 0.950 . S
C763 C761 1.387 . S
C763 C765 1.390 . S
C763 H767 0.950 . S
H764 C760 0.950 . S
C765 C763 1.390 . S
C765 C766 1.387 . S
C765 H768 0.950 . S
C766 C765 1.387 . S
C766 C769 1.387 . S
H767 C763 0.950 . S
H768 C765 0.950 . S
C769 C760 1.390 . S
C769 H762 0.950 . S
C769 C766 1.387 . S
C770 C771 1.387 . S
C770 H774 0.950 . S
C770 C779 1.390 . S
C771 C770 1.387 . S
C771 C773 1.387 . S
H772 C779 0.950 . S
C773 C771 1.387 . S
C773 C775 1.390 . S
C773 H777 0.950 . S
H774 C770 0.950 . S
C775 C773 1.390 . S
C775 C776 1.387 . S
C775 H778 0.950 . S
C776 C775 1.387 . S
C776 C779 1.387 . S
H777 C773 0.950 . S
H778 C775 0.950 . S
C779 C770 1.390 . S
C779 H772 0.950 . S
C779 C776 1.387 . S
C780 C781 1.387 . S
C780 H784 0.950 . S
C780 C789 1.390 . S
C781 C780 1.387 . S
C781 C783 1.387 . S
H782 C789 0.950 . S
C783 C781 1.387 . S
C783 C785 1.390 . S
C783 H787 0.950 . S
H784 C780 0.950 . S
C785 C783 1.390 . S
C785 C786 1.387 . S
C785 H788 0.950 . S
C786 C785 1.387 . S
C786 C789 1.387 . S
H787 C783 0.950 . S
H788 C785 0.950 . S
C789 C780 1.390 . S
C789 H782 0.950 . S
C789 C786 1.387 . S
C790 C791 1.387 . S
C790 H794 0.950 . S
C790 C799 1.390 . S
C791 C790 1.387 . S
C791 C793 1.387 . S
H792 C799 0.950 . S
C793 C791 1.387 . S
C793 C795 1.390 . S
C793 H797 0.950 . S
H794 C790 0.950 . S
C795 C793 1.390 . S
C795 C796 1.387 . S
C795 H798 0.950 . S
C796 C795 1.387 . S
C796 C799 1.387 . S
H797 C793 0.950 . S
H798 C795 0.950 . S
C799 C790 1.390 . S
C799 H792 0.950 . S
C799 C796 1.387 . S
C800 C801 1.387 . S
C800 H804 0.950 . S
C800 C809 1.390 . S
C801 C800 1.387 . S
C801 C803 1.387 . S
H802 C809 0.950 . S
C803 C801 1.387 . S
C803 C805 1.390 . S
C803 H807 0.950 . S
H804 C800 0.950 . S
C805 C803 1.390 . S
C805 C806 1.387 . S
C805 H808 0.950 . S
C806 C805 1.387 . S
C806 C809 1.387 . S
H807 C803 0.950 . S
H808 C805 0.950 . S
C809 C800 1.390 . S
C809 H802 0.950 . S
C809 C806 1.387 . S
C810 C811 1.387 . S
C810 H814 0.950 . S
C810 C819 1.390 . S
C811 C810 1.387 . S
C811 C813 1.387 . S
H812 C819 0.950 . S
C813 C811 1.387 . S
C813 C815 1.390 . S
C813 H817 0.950 . S
H814 C810 0.950 . S
C815 C813 1.390 . S
C815 C816 1.387 . S
C815 H818 0.950 . S
C816 C815 1.387 . S
C816 C819 1.387 . S
H817 C813 0.950 . S
H818 C815 0.950 . S
C819 C810 1.390 . S
C819 H812 0.950 . S
C819 C816 1.387 . S
C820 C821 1.387 . S
C820 H824 0.950 . S
C820 C829 1.390 . S
C821 C820 1.387 . S
C821 C823 1.387 . S
H822 C829 0.950 . S
C823 C821 1.387 . S
C823 C825 1.390 . S
C823 H827 0.950 . S
H824 C820 0.950 . S
C825 C823 1.390 . S
C825 C826 1.387 . S
C825 H828 0.950 . S
C826 C825 1.387 . S
C826 C829 1.387 . S
H827 C823 0.950 . S
H828 C825 0.950 . S
C829 C820 1.390 . S
C829 H822 0.950 . S
C829 C826 1.387 . S
C830 C831 1.387 . S
C830 H834 0.950 . S
C830 C839 1.390 . S
C831 C830 1.387 . S
C831 C833 1.387 . S
H832 C839 0.950 . S
C833 C831 1.387 . S
C833 C835 1.390 . S
C833 H837 0.950 . S
H834 C830 0.950 . S
C835 C833 1.390 . S
C835 C836 1.387 . S
C835 H838 0.950 . S
C836 C835 1.387 . S
C836 C839 1.387 . S
H837 C833 0.950 . S
H838 C835 0.950 . S
C839 C830 1.390 . S
C839 H832 0.950 . S
C839 C836 1.387 . S
C840 C841 1.387 . S
C840 H844 0.950 . S
C840 C849 1.390 . S
C841 C840 1.387 . S
C841 C843 1.387 . S
H842 C849 0.950 . S
C843 C841 1.387 . S
C843 C845 1.390 . S
C843 H847 0.950 . S
H844 C840 0.950 . S
C845 C843 1.390 . S
C845 C846 1.387 . S
C845 H848 0.950 . S
C846 C845 1.387 . S
C846 C849 1.387 . S
H847 C843 0.950 . S
H848 C845 0.950 . S
C849 C840 1.390 . S
C849 H842 0.950 . S
C849 C846 1.387 . S
C850 C851 1.387 . S
C850 H854 0.950 . S
C850 C859 1.390 . S
C851 C850 1.387 . S
C851 C853 1.387 . S
H852 C859 0.950 . S
C853 C851 1.387 . S
C853 C855 1.390 . S
C853 H857 0.950 . S
H854 C850 0.950 . S
C855 C853 1.390 . S
C855 C856 1.387 . S
C855 H858 0.950 . S
C856 C855 1.387 . S
C856 C859 1.387 . S
H857 C853 0.950 . S
H858 C855 0.950 . S
C859 C850 1.390 . S
C859 H852 0.950 . S
C859 C856 1.387 . S
C860 C861 1.387 . S
C860 H864 0.950 . S
C860 C869 1.390 . S
C861 C860 1.387 . S
C861 C863 1.387 . S
H862 C869 0.950 . S
C863 C861 1.387 . S
C863 C865 1.390 . S
C863 H867 0.950 . S
H864 C860 0.950 . S
C865 C863 1.390 . S
C865 C866 1.387 . S
C865 H868 0.950 . S
C866 C865 1.387 . S
C866 C869 1.387 . S
H867 C863 0.950 . S
H868 C865 0.950 . S
C869 C860 1.390 . S
C869 H862 0.950 . S
C869 C866 1.387 . S
C870 C871 1.387 . S
C870 H874 0.950 . S
C870 C879 1.390 . S
C871 C870 1.387 . S
C871 C873 1.387 . S
H872 C879 0.950 . S
C873 C871 1.387 . S
C873 C875 1.390 . S
C873 H877 0.950 . S
H874 C870 0.950 . S
C875 C873 1.390 . S
C875 C876 1.387 . S
C875 H878 0.950 . S
C876 C875 1.387 . S
C876 C879 1.387 . S
H877 C873 0.950 . S
H878 C875 0.950 . S
C879 C870 1.390 . S
C879 H872 0.950 . S
C879 C876 1.387 . S
C641 C1 1.174 . S
C646 C486 1.390 . S
C651 C80 0.998 . S
C656 C535 1.070 . S
C666 C570 2.509 . S
C661 C140 2.519 . S
C671 C211 2.460 . S
C676 C609 2.424 . S
C686 C530 2.610 . S
C681 C31 2.215 . S
C696 C489 0.826 . S
C691 C61 0.824 . S
C706 C619 1.918 . S
C701 C151 1.964 . S
C716 C578 1.727 . S
C711 C200 1.730 . S
C721 C20 1.679 . S
C726 C606 1.814 . S
C736 C538 2.343 . S
C731 C121 2.449 . S
C741 C181 2.316 . S
C746 C499 2.360 . S
C751 C91 1.151 . S
C756 C575 1.128 . S
C766 C495 1.394 . S
C761 C260 1.277 . S
C771 C320 1.000 . S
C776 C526 1.068 . S
C781 C361 2.521 . S
C786 C579 2.507 . S
C791 C451 2.460 . S
C796 C618 2.429 . S
C801 C271 2.313 . S
C806 C539 2.611 . S
C816 C498 0.822 . S
C811 C301 0.818 . S
C826 C610 1.920 . S
C821 C380 1.935 . S
C836 C569 1.726 . S
C831 C440 1.731 . S
C841 C241 1.539 . S
C846 C615 1.813 . S
C856 C529 2.342 . S
C851 C391 2.445 . S
C866 C490 2.360 . S
C861 C421 2.316 . S
C871 C331 1.153 . S
C876 C566 1.132 . S
