# Generated by pormake.
# Topology ssc, (4,4)-cn, num edge types: 1
# Building blocks:
#     Node 0, Type 0, BuildingBlock: ESEHIV_clean_sbu_0, # of connection points: 4
#     Node 1, Type 0, BuildingBlock: ESEHIV_clean_sbu_0, # of connection points: 4
#     Node 2, Type 0, BuildingBlock: ESEHIV_clean_sbu_0, # of connection points: 4
#     Node 3, Type 0, BuildingBlock: ESEHIV_clean_sbu_0, # of connection points: 4
#     Node 4, Type 0, BuildingBlock: ESEHIV_clean_sbu_0, # of connection points: 4
#     Node 5, Type 0, BuildingBlock: ESEHIV_clean_sbu_0, # of connection points: 4
#     Node 6, Type 0, BuildingBlock: ESEHIV_clean_sbu_0, # of connection points: 4
#     Node 7, Type 0, BuildingBlock: ESEHIV_clean_sbu_0, # of connection points: 4
#     Node 8, Type 0, BuildingBlock: ESEHIV_clean_sbu_0, # of connection points: 4
#     Node 9, Type 0, BuildingBlock: ESEHIV_clean_sbu_0, # of connection points: 4
#     Node 10, Type 0, BuildingBlock: ESEHIV_clean_sbu_0, # of connection points: 4
#     Node 11, Type 0, BuildingBlock: ESEHIV_clean_sbu_0, # of connection points: 4
#     Node 12, Type 1, BuildingBlock: KUFVIS_clean_linker_0, # of connection points: 4
#     Node 13, Type 1, BuildingBlock: KUFVIS_clean_linker_0, # of connection points: 4
#     Node 14, Type 1, BuildingBlock: KUFVIS_clean_linker_0, # of connection points: 4
#     Node 15, Type 1, BuildingBlock: KUFVIS_clean_linker_0, # of connection points: 4
#     Node 16, Type 1, BuildingBlock: KUFVIS_clean_linker_0, # of connection points: 4
#     Node 17, Type 1, BuildingBlock: KUFVIS_clean_linker_0, # of connection points: 4
#     Node 18, Type 1, BuildingBlock: KUFVIS_clean_linker_0, # of connection points: 4
#     Node 19, Type 1, BuildingBlock: KUFVIS_clean_linker_0, # of connection points: 4
#     Node 20, Type 1, BuildingBlock: KUFVIS_clean_linker_0, # of connection points: 4
#     Node 21, Type 1, BuildingBlock: KUFVIS_clean_linker_0, # of connection points: 4
#     Node 22, Type 1, BuildingBlock: KUFVIS_clean_linker_0, # of connection points: 4
#     Node 23, Type 1, BuildingBlock: KUFVIS_clean_linker_0, # of connection points: 4
#     Edge 24, Type (0, 1), BuildingBlock: EZIPEK_clean_linker_0, # of connection points: 2
#     Edge 25, Type (0, 1), BuildingBlock: EZIPEK_clean_linker_0, # of connection points: 2
#     Edge 26, Type (0, 1), BuildingBlock: EZIPEK_clean_linker_0, # of connection points: 2
#     Edge 27, Type (0, 1), BuildingBlock: EZIPEK_clean_linker_0, # of connection points: 2
#     Edge 28, Type (0, 1), BuildingBlock: EZIPEK_clean_linker_0, # of connection points: 2
#     Edge 29, Type (0, 1), BuildingBlock: EZIPEK_clean_linker_0, # of connection points: 2
#     Edge 30, Type (0, 1), BuildingBlock: EZIPEK_clean_linker_0, # of connection points: 2
#     Edge 31, Type (0, 1), BuildingBlock: EZIPEK_clean_linker_0, # of connection points: 2
#     Edge 32, Type (0, 1), BuildingBlock: EZIPEK_clean_linker_0, # of connection points: 2
#     Edge 33, Type (0, 1), BuildingBlock: EZIPEK_clean_linker_0, # of connection points: 2
#     Edge 34, Type (0, 1), BuildingBlock: EZIPEK_clean_linker_0, # of connection points: 2
#     Edge 35, Type (0, 1), BuildingBlock: EZIPEK_clean_linker_0, # of connection points: 2
#     Edge 36, Type (0, 1), BuildingBlock: EZIPEK_clean_linker_0, # of connection points: 2
#     Edge 37, Type (0, 1), BuildingBlock: EZIPEK_clean_linker_0, # of connection points: 2
#     Edge 38, Type (0, 1), BuildingBlock: EZIPEK_clean_linker_0, # of connection points: 2
#     Edge 39, Type (0, 1), BuildingBlock: EZIPEK_clean_linker_0, # of connection points: 2
#     Edge 40, Type (0, 1), BuildingBlock: EZIPEK_clean_linker_0, # of connection points: 2
#     Edge 41, Type (0, 1), BuildingBlock: EZIPEK_clean_linker_0, # of connection points: 2
#     Edge 42, Type (0, 1), BuildingBlock: EZIPEK_clean_linker_0, # of connection points: 2
#     Edge 43, Type (0, 1), BuildingBlock: EZIPEK_clean_linker_0, # of connection points: 2
#     Edge 44, Type (0, 1), BuildingBlock: EZIPEK_clean_linker_0, # of connection points: 2
#     Edge 45, Type (0, 1), BuildingBlock: EZIPEK_clean_linker_0, # of connection points: 2
#     Edge 46, Type (0, 1), BuildingBlock: EZIPEK_clean_linker_0, # of connection points: 2
#     Edge 47, Type (0, 1), BuildingBlock: EZIPEK_clean_linker_0, # of connection points: 2
#     Edge 48, Type (0, 1), BuildingBlock: EZIPEK_clean_linker_0, # of connection points: 2
#     Edge 49, Type (0, 1), BuildingBlock: EZIPEK_clean_linker_0, # of connection points: 2
#     Edge 50, Type (0, 1), BuildingBlock: EZIPEK_clean_linker_0, # of connection points: 2
#     Edge 51, Type (0, 1), BuildingBlock: EZIPEK_clean_linker_0, # of connection points: 2
#     Edge 52, Type (0, 1), BuildingBlock: EZIPEK_clean_linker_0, # of connection points: 2
#     Edge 53, Type (0, 1), BuildingBlock: EZIPEK_clean_linker_0, # of connection points: 2
#     Edge 54, Type (0, 1), BuildingBlock: EZIPEK_clean_linker_0, # of connection points: 2
#     Edge 55, Type (0, 1), BuildingBlock: EZIPEK_clean_linker_0, # of connection points: 2
#     Edge 56, Type (0, 1), BuildingBlock: EZIPEK_clean_linker_0, # of connection points: 2
#     Edge 57, Type (0, 1), BuildingBlock: EZIPEK_clean_linker_0, # of connection points: 2
#     Edge 58, Type (0, 1), BuildingBlock: EZIPEK_clean_linker_0, # of connection points: 2
#     Edge 59, Type (0, 1), BuildingBlock: EZIPEK_clean_linker_0, # of connection points: 2
#     Edge 60, Type (0, 1), BuildingBlock: EZIPEK_clean_linker_0, # of connection points: 2
#     Edge 61, Type (0, 1), BuildingBlock: EZIPEK_clean_linker_0, # of connection points: 2
#     Edge 62, Type (0, 1), BuildingBlock: EZIPEK_clean_linker_0, # of connection points: 2
#     Edge 63, Type (0, 1), BuildingBlock: EZIPEK_clean_linker_0, # of connection points: 2
#     Edge 64, Type (0, 1), BuildingBlock: EZIPEK_clean_linker_0, # of connection points: 2
#     Edge 65, Type (0, 1), BuildingBlock: EZIPEK_clean_linker_0, # of connection points: 2
#     Edge 66, Type (0, 1), BuildingBlock: EZIPEK_clean_linker_0, # of connection points: 2
#     Edge 67, Type (0, 1), BuildingBlock: EZIPEK_clean_linker_0, # of connection points: 2
#     Edge 68, Type (0, 1), BuildingBlock: EZIPEK_clean_linker_0, # of connection points: 2
#     Edge 69, Type (0, 1), BuildingBlock: EZIPEK_clean_linker_0, # of connection points: 2
#     Edge 70, Type (0, 1), BuildingBlock: EZIPEK_clean_linker_0, # of connection points: 2
#     Edge 71, Type (0, 1), BuildingBlock: EZIPEK_clean_linker_0, # of connection points: 2
# Relax obj value: 0.051
# Max RMSD: 0.299
# Mean RMSD: 0.194
data_MOF--net-ssc--node1-ESEHIV_clean_sbu_0--node2-KUFVIS_clean_linker_0--edge1-EZIPEK_clean_linker_0
_symmetry_space_group_name_H-M    P1
_symmetry_Int_Tables_number       1
_symmetry_cell_setting            triclinic
loop_
_symmetry_equiv_pos_as_xyz
'x, y, z'
_cell_length_a     25.018664
_cell_length_b     24.970095
_cell_length_c     24.971467
_cell_angle_alpha  90.153932
_cell_angle_beta   93.648334
_cell_angle_gamma 98.165244
loop_
_atom_site_label
_atom_site_type_symbol
_atom_site_fract_x
_atom_site_fract_y
_atom_site_fract_z
_atom_type_partial_charge
Cu0 Cu 0.02533 0.27209 0.13338 0.0
N1 N 0.95865 0.26091 0.16355 0.0
N2 N 0.90122 0.22809 0.22533 0.0
C3 C 0.95163 0.2522 0.21632 0.0
C4 C 0.87746 0.21776 0.17548 0.0
C5 C 0.91211 0.23878 0.13785 0.0
O6 O 0.06973 0.25112 0.19624 0.0
C7 C 0.04544 0.22234 0.0328 0.0
O8 O 0.08695 0.26042 0.03105 0.0
H9 H 0.98393 0.25917 0.24739 0.0
H10 H 0.90606 0.23278 0.09485 0.0
N11 N 0.04227 0.34457 0.10534 0.0
N12 N 0.05859 0.40985 0.04284 0.0
C13 C 0.03193 0.36016 0.05404 0.0
C14 C 0.07314 0.38857 0.12802 0.0
C15 C 0.08457 0.4274 0.08972 0.0
C16 C 0.10939 0.28082 0.22028 0.0
O17 O 0.13224 0.32244 0.1948 0.0
H18 H 0.00485 0.33573 0.02574 0.0
H19 H 0.087 0.39331 0.16958 0.0
O20 O 0.01742 0.219 0.07385 0.0
H21 H 0.83956 0.19247 0.16635 0.0
H22 H 0.11124 0.46526 0.09548 0.0
Cu23 Cu 0.02241 0.77969 0.41089 0.0
N24 N 0.03727 0.83283 0.46661 0.0
N25 N 0.02116 0.86905 0.54622 0.0
C26 C 0.03092 0.82464 0.51978 0.0
C27 C 0.02151 0.90722 0.50814 0.0
C28 C 0.03207 0.88509 0.45974 0.0
O29 O 0.02452 0.70962 0.44404 0.0
C30 C 0.92526 0.76917 0.33682 0.0
O31 O 0.91517 0.71705 0.34594 0.0
H32 H 0.02759 0.78606 0.53846 0.0
H33 H 0.03043 0.90379 0.42099 0.0
N34 N 0.06944 0.77438 0.35617 0.0
N35 N 0.12743 0.77419 0.29144 0.0
C36 C 0.1148 0.80048 0.33571 0.0
C37 C 0.0537 0.73152 0.32321 0.0
C38 C 0.08855 0.73146 0.28348 0.0
C39 C 0.00291 0.69341 0.48664 0.0
O40 O 0.95908 0.712 0.49997 0.0
H41 H 0.13814 0.83703 0.35273 0.0
H42 H 0.01916 0.70124 0.32872 0.0
O43 O 0.9611 0.79867 0.36641 0.0
H44 H 0.00977 0.94667 0.51366 0.0
H45 H 0.08737 0.70064 0.25262 0.0
Cu46 Cu 0.53958 0.7771 0.63444 0.0
N47 N 0.54455 0.83867 0.58992 0.0
N48 N 0.53692 0.88312 0.51205 0.0
C49 C 0.51202 0.84667 0.54592 0.0
C50 C 0.58614 0.89963 0.53659 0.0
C51 C 0.59058 0.87266 0.5844 0.0
O52 O 0.53902 0.71429 0.58524 0.0
C53 C 0.59275 0.76128 0.74199 0.0
O54 O 0.55333 0.72133 0.7475 0.0
H55 H 0.47344 0.82199 0.53611 0.0
H56 H 0.62687 0.87366 0.61054 0.0
N57 N 0.47286 0.76495 0.66429 0.0
N58 N 0.42236 0.74441 0.73488 0.0
C59 C 0.46107 0.78042 0.7134 0.0
C60 C 0.43757 0.72081 0.65177 0.0
C61 C 0.40639 0.70848 0.69426 0.0
C62 C 0.56165 0.71715 0.54062 0.0
O63 O 0.59771 0.7591 0.53174 0.0
H64 H 0.48255 0.81638 0.73298 0.0
H65 H 0.4372 0.69694 0.61557 0.0
O66 O 0.59493 0.78642 0.69697 0.0
H67 H 0.61822 0.92631 0.51908 0.0
H68 H 0.37522 0.6741 0.69457 0.0
Cu69 Cu 0.51339 0.29686 0.89957 0.0
N70 N 0.45553 0.30183 0.94387 0.0
N71 N 0.41781 0.3399 0.01118 0.0
C72 C 0.45776 0.3452 0.97698 0.0
C73 C 0.3895 0.29086 0.99995 0.0
C74 C 0.41367 0.26671 0.95937 0.0
O75 O 0.56733 0.2913 0.95926 0.0
C76 C 0.45534 0.32678 0.81523 0.0
O77 O 0.42945 0.28182 0.83345 0.0
H78 H 0.49042 0.37862 0.97818 0.0
H79 H 0.40323 0.22585 0.94399 0.0
N80 N 0.52562 0.23965 0.85398 0.0
N81 N 0.5643 0.20957 0.78303 0.0
C82 C 0.56705 0.24826 0.82129 0.0
C83 C 0.49641 0.19252 0.83688 0.0
C84 C 0.52068 0.1735 0.79348 0.0
C85 C 0.55064 0.24712 0.98346 0.0
O86 O 0.50974 0.21447 0.96056 0.0
H87 H 0.59713 0.28407 0.8237 0.0
H88 H 0.4584 0.17532 0.85223 0.0
O89 O 0.49898 0.34827 0.84188 0.0
H90 H 0.35655 0.27258 0.02271 0.0
H91 H 0.50615 0.13723 0.77002 0.0
Cu92 Cu 0.1599 0.04966 0.28572 0.0
N93 N 0.12595 0.04695 0.35095 0.0
N94 N 0.06341 0.05384 0.41043 0.0
C95 C 0.08233 0.07034 0.36265 0.0
C96 C 0.09585 0.01826 0.42871 0.0
C97 C 0.13413 0.0141 0.39228 0.0
O98 O 0.10028 0.03792 0.22977 0.0
C99 C 0.2499 0.11832 0.2465 0.0
O100 O 0.23309 0.09859 0.19862 0.0
H101 H 0.06349 0.09715 0.33579 0.0
H102 H 0.16395 0.9867 0.39452 0.0
N103 N 0.20194 0.99452 0.27909 0.0
N104 N 0.2774 0.95623 0.28538 0.0
C105 C 0.24311 0.98184 0.31233 0.0
C106 C 0.21198 0.97722 0.23025 0.0
C107 C 0.2578 0.95315 0.23404 0.0
C108 C 0.08887 0.06233 0.18673 0.0
O109 O 0.12027 0.10614 0.17299 0.0
H110 H 0.25009 0.99445 0.35397 0.0
H111 H 0.19147 0.98753 0.19351 0.0
O112 O 0.21766 0.11053 0.28415 0.0
H113 H 0.09068 0.99455 0.46427 0.0
H114 H 0.27746 0.93745 0.20124 0.0
Cu115 Cu 0.2812 0.93911 0.54488 0.0
N116 N 0.26753 0.89478 0.48375 0.0
N117 N 0.27415 0.81457 0.4449 0.0
C118 C 0.29991 0.8574 0.47405 0.0
C119 C 0.22288 0.82538 0.43678 0.0
C120 C 0.2188 0.87449 0.46072 0.0
O121 O 0.28563 0.88164 0.5985 0.0
C122 C 0.33891 0.02922 0.50191 0.0
O123 O 0.30482 0.0121 0.46123 0.0
H124 H 0.34038 0.85947 0.49218 0.0
H125 H 0.18173 0.89084 0.46635 0.0
N126 N 0.22509 0.97877 0.56127 0.0
N127 N 0.1779 0.04874 0.56825 0.0
C128 C 0.19998 0.0165 0.5343 0.0
C129 C 0.21872 0.98835 0.61308 0.0
C130 C 0.19054 0.03136 0.61771 0.0
C131 C 0.32375 0.85287 0.607 0.0
O132 O 0.37239 0.87126 0.59247 0.0
H133 H 0.20057 0.02224 0.49153 0.0
H134 H 0.23757 0.96758 0.64504 0.0
O135 O 0.3431 0.99692 0.54103 0.0
H136 H 0.18984 0.79743 0.41854 0.0
H137 H 0.18105 0.04956 0.65472 0.0
Cu138 Cu 0.40565 0.03678 0.77807 0.0
N139 N 0.44586 0.04466 0.84436 0.0
N140 N 0.50666 0.03036 0.91029 0.0
C141 C 0.48999 0.02132 0.8584 0.0
C142 C 0.47175 0.06022 0.93032 0.0
C143 C 0.43399 0.06885 0.88958 0.0
O144 O 0.45599 0.02464 0.72031 0.0
C145 C 0.32979 0.93346 0.78821 0.0
O146 O 0.36744 0.90347 0.77912 0.0
H147 H 0.50848 0.99628 0.83221 0.0
H148 H 0.39948 0.08995 0.8931 0.0
N149 N 0.37251 0.09901 0.7617 0.0
N150 N 0.30547 0.15088 0.75593 0.0
C151 C 0.33197 0.11722 0.7871 0.0
C152 C 0.37186 0.1227 0.7134 0.0
C153 C 0.3311 0.15463 0.70986 0.0
C154 C 0.48744 0.9884 0.71637 0.0
O155 O 0.48309 0.94685 0.74869 0.0
H156 H 0.32 0.10351 0.82622 0.0
H157 H 0.39684 0.11436 0.68147 0.0
O158 O 0.3412 0.98466 0.78872 0.0
H159 H 0.47285 0.07314 0.97157 0.0
H160 H 0.31964 0.17733 0.67513 0.0
Cu161 Cu 0.27257 0.17199 0.0424 0.0
N162 N 0.27402 0.20703 0.97616 0.0
N163 N 0.27167 0.26917 0.91166 0.0
C164 C 0.25953 0.25556 0.96226 0.0
C165 C 0.29421 0.22731 0.8933 0.0
C166 C 0.29499 0.18901 0.9326 0.0
O167 O 0.26787 0.22716 0.09878 0.0
C168 C 0.16892 0.1079 0.01226 0.0
O169 O 0.15059 0.15319 0.99942 0.0
H170 H 0.24179 0.28108 0.98875 0.0
H171 H 0.3124 0.15185 0.93067 0.0
N172 N 0.33555 0.13817 0.05261 0.0
N173 N 0.38811 0.07185 0.05405 0.0
C174 C 0.33727 0.08432 0.05672 0.0
C175 C 0.3873 0.16021 0.0485 0.0
C176 C 0.41922 0.11988 0.04772 0.0
C177 C 0.22856 0.25479 0.09998 0.0
O178 O 0.18497 0.24014 0.06863 0.0
H179 H 0.30183 0.05465 0.06095 0.0
H180 H 0.40162 0.20254 0.04724 0.0
O181 O 0.21606 0.11002 0.035 0.0
H182 H 0.31246 0.22553 0.856 0.0
H183 H 0.46264 0.12586 0.04508 0.0
Cu184 Cu 0.74827 0.41854 0.01703 0.0
N185 N 0.75706 0.37453 0.95741 0.0
N186 N 0.76508 0.29637 0.91585 0.0
C187 C 0.73236 0.32406 0.94312 0.0
C188 C 0.81096 0.33077 0.91168 0.0
C189 C 0.80583 0.37861 0.9367 0.0
O190 O 0.75898 0.37454 0.08007 0.0
C191 C 0.8476 0.49576 0.02904 0.0
O192 O 0.87195 0.45733 0.0512 0.0
H193 H 0.69313 0.30659 0.95556 0.0
H194 H 0.83814 0.41169 0.94499 0.0
N195 N 0.6799 0.43949 0.02492 0.0
N196 N 0.62398 0.49929 0.04397 0.0
C197 C 0.66196 0.48669 0.01118 0.0
C198 C 0.65202 0.42197 0.06726 0.0
C199 C 0.61816 0.45834 0.07917 0.0
C200 C 0.79257 0.34113 0.08701 0.0
O201 O 0.83167 0.3409 0.05448 0.0
H202 H 0.67932 0.5132 0.98063 0.0
H203 H 0.66005 0.38796 0.09162 0.0
O204 O 0.79781 0.48599 0.01325 0.0
H205 H 0.84747 0.31995 0.89631 0.0
H206 H 0.59303 0.45631 0.11308 0.0
Cu207 Cu 0.91104 0.55418 0.25656 0.0
N208 N 0.9336 0.55437 0.32895 0.0
N209 N 0.97957 0.52625 0.40089 0.0
C210 C 0.98127 0.54074 0.34887 0.0
C211 C 0.92849 0.52996 0.41347 0.0
C212 C 0.90067 0.54835 0.36954 0.0
O213 O 0.97434 0.5726 0.21465 0.0
C214 C 0.86045 0.44512 0.27045 0.0
O215 O 0.90522 0.43314 0.29489 0.0
H216 H 0.01516 0.53755 0.32475 0.0
H217 H 0.85778 0.55082 0.36558 0.0
N218 N 0.8613 0.60008 0.23625 0.0
N219 N 0.78404 0.63552 0.22988 0.0
C220 C 0.82767 0.62748 0.26243 0.0
C221 C 0.83775 0.59078 0.18665 0.0
C222 C 0.78998 0.61148 0.18287 0.0
C223 C 0.99189 0.54495 0.17851 0.0
O224 O 0.96667 0.49651 0.16528 0.0
H225 H 0.8328 0.63781 0.30474 0.0
H226 H 0.85216 0.56549 0.15714 0.0
O227 O 0.86272 0.48746 0.24237 0.0
H228 H 0.91102 0.51647 0.45045 0.0
H229 H 0.76073 0.60832 0.14878 0.0
Cu230 Cu 0.78148 0.6884 0.49747 0.0
N231 N 0.79232 0.71762 0.42854 0.0
N232 N 0.76536 0.78546 0.37814 0.0
C233 C 0.79902 0.77154 0.41897 0.0
C234 C 0.73806 0.73816 0.35983 0.0
C235 C 0.75573 0.69691 0.38929 0.0
O236 O 0.75239 0.7449 0.53567 0.0
C237 C 0.69959 0.59851 0.51593 0.0
O238 O 0.6997 0.6155 0.56577 0.0
H239 H 0.82379 0.80041 0.44485 0.0
H240 H 0.73523 0.65589 0.38864 0.0
N241 N 0.8359 0.66196 0.54212 0.0
N242 N 0.87683 0.59713 0.58478 0.0
C243 C 0.86059 0.61726 0.53652 0.0
C244 C 0.83637 0.66954 0.59551 0.0
C245 C 0.8608 0.6302 0.62133 0.0
C246 C 0.78475 0.78702 0.55092 0.0
O247 O 0.83637 0.7879 0.5442 0.0
H248 H 0.86253 0.59747 0.49825 0.0
H249 H 0.81526 0.69842 0.61476 0.0
O250 O 0.72937 0.62511 0.48326 0.0
H251 H 0.70343 0.73458 0.33143 0.0
H252 H 0.86511 0.62517 0.6641 0.0
Cu253 Cu 0.63216 0.51573 0.75875 0.0
N254 N 0.5989 0.50794 0.82464 0.0
N255 N 0.54484 0.52463 0.88951 0.0
C256 C 0.56133 0.5378 0.84004 0.0
C257 C 0.57302 0.48473 0.90577 0.0
C258 C 0.60594 0.47426 0.86571 0.0
O259 O 0.57063 0.51216 0.70451 0.0
C260 C 0.72393 0.59524 0.73162 0.0
O261 O 0.72208 0.56992 0.68536 0.0
H262 H 0.54741 0.56976 0.81603 0.0
H263 H 0.63325 0.44442 0.86691 0.0
N264 N 0.67188 0.45966 0.74199 0.0
N265 N 0.73652 0.40568 0.74136 0.0
C266 C 0.70255 0.42867 0.77185 0.0
C267 C 0.68614 0.45417 0.69154 0.0
C268 C 0.72619 0.42244 0.69109 0.0
C269 C 0.57139 0.52507 0.65525 0.0
O270 O 0.61658 0.54814 0.63639 0.0
H271 H 0.70208 0.42515 0.81494 0.0
H272 H 0.67135 0.47532 0.65763 0.0
O273 O 0.68661 0.58213 0.76398 0.0
H274 H 0.56982 0.46448 0.94382 0.0
H275 H 0.74732 0.41315 0.65647 0.0
H276 H 0.88853 0.41067 0.69371 0.0
H277 H 0.96469 0.27303 0.74018 0.0
H278 H 0.03521 0.38578 0.62353 0.0
H279 H 0.02748 0.26766 0.59082 0.0
H280 H 0.15297 0.18677 0.66479 0.0
H281 H 0.07737 0.29389 0.75936 0.0
C282 C 0.92168 0.38719 0.6905 0.0
C283 C 0.96084 0.40391 0.65521 0.0
C284 C 0.92293 0.34113 0.72132 0.0
C285 C 0.96485 0.30962 0.71691 0.0
C286 C 0.00564 0.32432 0.68067 0.0
C287 C 0.00365 0.37254 0.65003 0.0
C288 C 0.04867 0.28808 0.67513 0.0
C289 C 0.05367 0.26116 0.62565 0.0
C290 C 0.09099 0.22358 0.62294 0.0
C291 C 0.12382 0.21505 0.66761 0.0
C292 C 0.12064 0.24032 0.71599 0.0
C293 C 0.08189 0.27597 0.72085 0.0
H294 H 0.86674 0.6507 0.88969 0.0
H295 H 0.01036 0.73827 0.96821 0.0
H296 H 0.95883 0.77975 0.80716 0.0
H297 H 0.07756 0.77632 0.82889 0.0
H298 H 0.15927 0.92562 0.8984 0.0
H299 H 0.00375 0.85979 0.95089 0.0
C300 C 0.90032 0.68354 0.88952 0.0
C301 C 0.90744 0.71442 0.84362 0.0
C302 C 0.93807 0.68991 0.93307 0.0
C303 C 0.98139 0.73268 0.9339 0.0
C304 C 0.98835 0.76692 0.88907 0.0
C305 C 0.95206 0.75619 0.84293 0.0
C306 C 0.03495 0.81192 0.89017 0.0
C307 C 0.07839 0.80984 0.85672 0.0
C308 C 0.12341 0.85102 0.86041 0.0
C309 C 0.12466 0.89376 0.89629 0.0
C310 C 0.08199 0.89804 0.92802 0.0
C311 C 0.03703 0.85671 0.92588 0.0
H312 H 0.38177 0.90799 0.16987 0.0
H313 H 0.47113 0.79667 0.25431 0.0
H314 H 0.48209 0.81784 0.08304 0.0
H315 H 0.48095 0.7211 0.08731 0.0
H316 H 0.5964 0.63242 0.1668 0.0
H317 H 0.56105 0.77723 0.24024 0.0
C318 C 0.40844 0.87718 0.16923 0.0
C319 C 0.43239 0.86818 0.12225 0.0
C320 C 0.42493 0.85492 0.2172 0.0
C321 C 0.45978 0.81506 0.21683 0.0
C322 C 0.47813 0.79803 0.16762 0.0
C323 C 0.465 0.82636 0.12025 0.0
C324 C 0.51249 0.75277 0.16632 0.0
C325 C 0.5084 0.71645 0.12157 0.0
C326 C 0.53997 0.67368 0.12205 0.0
C327 C 0.57245 0.6656 0.16712 0.0
C328 C 0.58362 0.70437 0.20726 0.0
C329 C 0.55196 0.74689 0.20876 0.0
H330 H 0.41938 0.14022 0.36114 0.0
H331 H 0.52582 0.25782 0.45776 0.0
H332 H 0.5064 0.27697 0.28677 0.0
H333 H 0.61491 0.28467 0.31205 0.0
H334 H 0.68017 0.44212 0.37432 0.0
H335 H 0.53583 0.35857 0.43636 0.0
C336 C 0.45067 0.17526 0.36406 0.0
C337 C 0.45961 0.20678 0.31858 0.0
C338 C 0.47102 0.19496 0.41493 0.0
C339 C 0.50997 0.24169 0.41872 0.0
C340 C 0.5268 0.26848 0.37145 0.0
C341 C 0.4997 0.25197 0.32174 0.0
C342 C 0.56936 0.3163 0.37327 0.0
C343 C 0.61181 0.31866 0.33822 0.0
C344 C 0.65159 0.36426 0.33887 0.0
C345 C 0.64863 0.40727 0.37342 0.0
C346 C 0.60848 0.40489 0.40957 0.0
C347 C 0.56798 0.35974 0.40923 0.0
H348 H 0.63608 0.94813 0.39817 0.0
H349 H 0.71601 0.03095 0.27058 0.0
H350 H 0.55013 0.04797 0.29593 0.0
H351 H 0.55863 0.09567 0.21868 0.0
H352 H 0.65554 0.24678 0.19019 0.0
H353 H 0.73023 0.11861 0.25706 0.0
C354 C 0.63555 0.97562 0.3648 0.0
C355 C 0.58619 0.991 0.34643 0.0
C356 C 0.67977 0.98305 0.33347 0.0
C357 C 0.68119 0.02366 0.29436 0.0
C358 C 0.63639 0.05246 0.28444 0.0
C359 C 0.58695 0.03202 0.30753 0.0
C360 C 0.64188 0.10347 0.25155 0.0
C361 C 0.5968 0.12164 0.22313 0.0
C362 C 0.60401 0.17092 0.19477 0.0
C363 C 0.65069 0.20675 0.20779 0.0
C364 C 0.69734 0.18564 0.22258 0.0
C365 C 0.69344 0.13432 0.24584 0.0
H366 H 0.11926 0.41966 0.40539 0.0
H367 H 0.20234 0.45307 0.55775 0.0
H368 H 0.2419 0.32453 0.45771 0.0
H369 H 0.25479 0.34373 0.60808 0.0
H370 H 0.4124 0.43487 0.63845 0.0
H371 H 0.32784 0.44915 0.48602 0.0
C372 C 0.14688 0.40684 0.43628 0.0
C373 C 0.16843 0.35839 0.43103 0.0
C374 C 0.15308 0.43626 0.48398 0.0
C375 C 0.19546 0.42871 0.52133 0.0
C376 C 0.23074 0.3913 0.50984 0.0
C377 C 0.21581 0.3542 0.46552 0.0
C378 C 0.28392 0.39559 0.54251 0.0
C379 C 0.28804 0.37181 0.59434 0.0
C380 C 0.33582 0.38571 0.62824 0.0
C381 C 0.37637 0.42372 0.61165 0.0
C382 C 0.37562 0.44457 0.56078 0.0
C383 C 0.32926 0.43116 0.52543 0.0
H384 H 0.88852 0.15781 0.9079 0.0
H385 H 0.7848 0.0458 0.80414 0.0
H386 H 0.95905 0.04477 0.81954 0.0
H387 H 0.94763 0.96648 0.7867 0.0
H388 H 0.86444 0.885 0.64989 0.0
H389 H 0.78514 0.9962 0.73341 0.0
C390 C 0.8829 0.12365 0.88006 0.0
C391 C 0.92735 0.09932 0.86906 0.0
C392 C 0.83191 0.10595 0.85582 0.0
C393 C 0.82518 0.06038 0.82073 0.0
C394 C 0.87101 0.03589 0.80679 0.0
C395 C 0.92228 0.05801 0.83071 0.0
C396 C 0.86731 0.98999 0.76598 0.0
C397 C 0.91244 0.96159 0.75895 0.0
C398 C 0.91297 0.92645 0.71484 0.0
C399 C 0.86534 0.91316 0.68316 0.0
C400 C 0.81911 0.93636 0.691 0.0
C401 C 0.82029 0.97606 0.73105 0.0
H402 H 0.41304 0.67829 0.90371 0.0
H403 H 0.36094 0.61814 0.05563 0.0
H404 H 0.28657 0.74531 0.97589 0.0
H405 H 0.32232 0.75053 0.10607 0.0
H406 H 0.15869 0.70601 0.1483 0.0
H407 H 0.22271 0.61033 0.03161 0.0
C408 C 0.388 0.68017 0.93754 0.0
C409 C 0.35143 0.71696 0.93619 0.0
C410 C 0.3936 0.64546 0.97989 0.0
C411 C 0.35816 0.64562 0.02243 0.0
C412 C 0.31804 0.6811 0.02046 0.0
C413 C 0.31622 0.7177 0.97756 0.0
C414 C 0.27713 0.68174 0.06168 0.0
C415 C 0.284 0.7242 0.10034 0.0
C416 C 0.24097 0.73194 0.13182 0.0
C417 C 0.19139 0.69955 0.12333 0.0
C418 C 0.18537 0.65366 0.0913 0.0
C419 C 0.22794 0.6448 0.05882 0.0
H420 H 0.62776 0.87182 0.92817 0.0
H421 H 0.7289 0.95715 0.05419 0.0
H422 H 0.78896 0.83357 0.96256 0.0
H423 H 0.78031 0.83428 0.10783 0.0
H424 H 0.92637 0.93111 0.1699 0.0
H425 H 0.85465 0.9679 0.01585 0.0
C426 C 0.66564 0.87684 0.95278 0.0
C427 C 0.70702 0.84864 0.93882 0.0
C428 C 0.67499 0.91872 0.99027 0.0
C429 C 0.72263 0.92535 0.02385 0.0
C430 C 0.76288 0.89207 0.01701 0.0
C431 C 0.75623 0.85532 0.97207 0.0
C432 C 0.81168 0.89919 0.05624 0.0
C433 C 0.8125 0.86712 0.10321 0.0
C434 C 0.85455 0.87863 0.14423 0.0
C435 C 0.89396 0.92264 0.13858 0.0
C436 C 0.89501 0.95442 0.09297 0.0
C437 C 0.85393 0.94297 0.05132 0.0
H438 H 0.40129 0.63693 0.44512 0.0
H439 H 0.29562 0.58244 0.30752 0.0
H440 H 0.45454 0.53329 0.32878 0.0
H441 H 0.43035 0.52982 0.22734 0.0
H442 H 0.3421 0.37493 0.18316 0.0
H443 H 0.27429 0.47711 0.29059 0.0
C444 C 0.39225 0.61126 0.40949 0.0
C445 C 0.43353 0.58662 0.38963 0.0
C446 C 0.34548 0.6155 0.37762 0.0
C447 C 0.33296 0.58125 0.33157 0.0
C448 C 0.37067 0.54742 0.31545 0.0
C449 C 0.42269 0.55367 0.34315 0.0
C450 C 0.3573 0.50597 0.27037 0.0
C451 C 0.3955 0.49937 0.23153 0.0
C452 C 0.38754 0.4527 0.19809 0.0
C453 C 0.34594 0.41204 0.20707 0.0
C454 C 0.30186 0.42347 0.23314 0.0
C455 C 0.30738 0.46998 0.26686 0.0
H456 H 0.89646 0.1472 0.41224 0.0
H457 H 0.83285 0.08493 0.55829 0.0
H458 H 0.73395 0.16591 0.44402 0.0
H459 H 0.74742 0.19735 0.57839 0.0
H460 H 0.59325 0.11205 0.6134 0.0
H461 H 0.7038 0.02923 0.53102 0.0
C462 C 0.86342 0.14128 0.43908 0.0
C463 C 0.81597 0.16026 0.42363 0.0
C464 C 0.86958 0.11192 0.48489 0.0
C465 C 0.82663 0.10432 0.52039 0.0
C466 C 0.77613 0.12345 0.5064 0.0
C467 C 0.77151 0.15147 0.45675 0.0
C468 C 0.72867 0.11649 0.54284 0.0
C469 C 0.71786 0.16122 0.57401 0.0
C470 C 0.66942 0.15779 0.60127 0.0
C471 C 0.63055 0.11299 0.59295 0.0
C472 C 0.64467 0.06463 0.57532 0.0
C473 C 0.69349 0.06612 0.54786 0.0
H474 H 0.17756 0.45192 0.90705 0.0
H475 H 0.23994 0.49189 0.75442 0.0
H476 H 0.10384 0.56335 0.8057 0.0
H477 H 0.09485 0.56097 0.7069 0.0
H478 H 0.19252 0.65544 0.5967 0.0
H479 H 0.26627 0.60459 0.7429 0.0
C480 C 0.17727 0.47618 0.87098 0.0
C481 C 0.13516 0.50646 0.86035 0.0
C482 C 0.21085 0.46614 0.83112 0.0
C483 C 0.21292 0.49872 0.78512 0.0
C484 C 0.17733 0.53782 0.77737 0.0
C485 C 0.13562 0.53866 0.81373 0.0
C486 C 0.18103 0.57326 0.72866 0.0
C487 C 0.13424 0.57917 0.69574 0.0
C488 C 0.13888 0.60894 0.64808 0.0
C489 C 0.1896 0.6322 0.63342 0.0
C490 C 0.2332 0.63827 0.67071 0.0
C491 C 0.23093 0.60418 0.71605 0.0
C492 C 0.06435 0.49454 0.98812 0.0
C493 C 0.06323 0.43763 0.99154 0.0
C494 C 0.06702 0.43712 0.89458 0.0
C495 C 0.08807 0.49264 0.89452 0.0
N496 N 0.1053 0.57584 0.94489 0.0
N497 N 0.09094 0.36283 0.94384 0.0
C498 C 0.08534 0.52231 0.94222 0.0
C499 C 0.07 0.40984 0.94359 0.0
N500 N 0.04246 0.52151 0.02631 0.0
N501 N 0.05552 0.40916 0.84769 0.0
H502 H 0.10494 0.34564 0.97905 0.0
H503 H 0.10494 0.34564 0.97905 0.0
H504 H 0.05424 0.42924 0.81106 0.0
H505 H 0.04467 0.36717 0.84694 0.0
H506 H 0.03531 0.56102 0.01981 0.0
H507 H 0.02346 0.50163 0.05816 0.0
H508 H 0.10938 0.59753 0.98089 0.0
H509 H 0.1194 0.59694 0.91135 0.0
C510 C 0.88109 0.84412 0.29206 0.0
C511 C 0.90149 0.79396 0.28754 0.0
C512 C 0.88679 0.79749 0.18866 0.0
C513 C 0.86279 0.84536 0.19337 0.0
N514 N 0.84509 0.91962 0.2482 0.0
N515 N 0.92435 0.72279 0.23068 0.0
C516 C 0.86293 0.87039 0.24482 0.0
C517 C 0.90406 0.77047 0.23568 0.0
N518 N 0.87594 0.86507 0.34189 0.0
N519 N 0.89769 0.78039 0.13889 0.0
H520 H 0.94526 0.70517 0.26159 0.0
H521 H 0.91904 0.69924 0.19577 0.0
H522 H 0.8847 0.79765 0.10332 0.0
H523 H 0.923 0.75166 0.1325 0.0
H524 H 0.85831 0.89942 0.34904 0.0
H525 H 0.88563 0.84597 0.37748 0.0
H526 H 0.85046 0.94444 0.28216 0.0
H527 H 0.82526 0.93667 0.21589 0.0
C528 C 0.52191 0.69895 0.44516 0.0
C529 C 0.54042 0.67884 0.49509 0.0
C530 C 0.50945 0.5868 0.45989 0.0
C531 C 0.48872 0.60859 0.41246 0.0
N532 N 0.50191 0.68111 0.35036 0.0
N533 N 0.56845 0.60313 0.5418 0.0
C534 C 0.50605 0.66306 0.40156 0.0
C535 C 0.53955 0.62227 0.50003 0.0
N536 N 0.51174 0.75065 0.44103 0.0
N537 N 0.50168 0.53225 0.4649 0.0
H538 H 0.59023 0.62841 0.57134 0.0
H539 H 0.57507 0.5632 0.54402 0.0
H540 H 0.4784 0.50692 0.43623 0.0
H541 H 0.52291 0.5126 0.49364 0.0
H542 H 0.49424 0.76578 0.40638 0.0
H543 H 0.5149 0.77581 0.47428 0.0
H544 H 0.51748 0.72041 0.33982 0.0
H545 H 0.48637 0.65494 0.31866 0.0
C546 C 0.60074 0.24074 0.69535 0.0
C547 C 0.60104 0.20627 0.74065 0.0
C548 C 0.66821 0.15851 0.70017 0.0
C549 C 0.6619 0.18761 0.65168 0.0
N550 N 0.62131 0.255 0.60192 0.0
N551 N 0.64254 0.14079 0.79156 0.0
C552 C 0.62842 0.22893 0.64929 0.0
C553 C 0.63691 0.16729 0.7443 0.0
N554 N 0.57513 0.2854 0.69679 0.0
N555 N 0.70148 0.11949 0.70184 0.0
H556 H 0.62412 0.15151 0.82541 0.0
H557 H 0.66771 0.11161 0.79901 0.0
H558 H 0.72754 0.11492 0.67169 0.0
H559 H 0.70463 0.09227 0.73284 0.0
H560 H 0.57719 0.31471 0.66715 0.0
H561 H 0.55627 0.29615 0.73031 0.0
H562 H 0.59253 0.28085 0.59465 0.0
H563 H 0.64344 0.24878 0.56894 0.0
C564 C 0.02391 0.61332 0.54217 0.0
C565 C 0.03619 0.66841 0.52847 0.0
C566 C 0.09589 0.68319 0.60831 0.0
C567 C 0.0927 0.62688 0.61651 0.0
N568 N 0.05723 0.53657 0.5868 0.0
N569 N 0.10866 0.74412 0.53538 0.0
C570 C 0.05771 0.59098 0.58194 0.0
C571 C 0.07918 0.70072 0.55767 0.0
N572 N 0.98158 0.58247 0.51574 0.0
N573 N 0.12003 0.71938 0.6465 0.0
H574 H 0.10266 0.75424 0.49523 0.0
H575 H 0.14264 0.76605 0.55566 0.0
H576 H 0.13257 0.70699 0.6846 0.0
H577 H 0.12239 0.76111 0.64121 0.0
H578 H 0.9716 0.54139 0.52203 0.0
H579 H 0.95569 0.59937 0.48859 0.0
H580 H 0.03302 0.5082 0.56224 0.0
H581 H 0.08199 0.51956 0.61514 0.0
C582 C 0.64178 0.83792 0.80175 0.0
C583 C 0.6299 0.78148 0.79072 0.0
C584 C 0.68297 0.76617 0.87595 0.0
C585 C 0.69739 0.82284 0.8834 0.0
N586 N 0.70588 0.91053 0.84297 0.0
N587 N 0.64604 0.69116 0.8156 0.0
C588 C 0.68292 0.85749 0.84169 0.0
C589 C 0.65272 0.74525 0.82733 0.0
N590 N 0.61166 0.87316 0.7768 0.0
N591 N 0.69728 0.7327 0.91581 0.0
H592 H 0.62572 0.67453 0.78041 0.0
H593 H 0.66487 0.66329 0.83804 0.0
H594 H 0.72063 0.74737 0.95024 0.0
H595 H 0.68551 0.69106 0.91562 0.0
H596 H 0.61516 0.91349 0.78879 0.0
H597 H 0.57855 0.86116 0.74991 0.0
H598 H 0.698 0.93797 0.8131 0.0
H599 H 0.73668 0.92529 0.87168 0.0
C600 C 0.44387 0.36702 0.10573 0.0
C601 C 0.41383 0.37424 0.05721 0.0
C602 C 0.37814 0.44968 0.09926 0.0
C603 C 0.4122 0.44473 0.14651 0.0
N604 N 0.48481 0.40558 0.19023 0.0
N605 N 0.33826 0.40947 0.01437 0.0
C606 C 0.44834 0.40637 0.14744 0.0
C607 C 0.37723 0.41254 0.05541 0.0
N608 N 0.46017 0.31821 0.11564 0.0
N609 N 0.34594 0.48954 0.0976 0.0
H610 H 0.3364 0.38151 0.98305 0.0
H611 H 0.30558 0.43105 0.01339 0.0
H612 H 0.34696 0.5172 0.12921 0.0
H613 H 0.32147 0.49768 0.06427 0.0
H614 H 0.4692 0.30628 0.15467 0.0
H615 H 0.45665 0.28754 0.08669 0.0
H616 H 0.5144 0.38013 0.19171 0.0
H617 H 0.48789 0.43396 0.2215 0.0
C618 C 0.87932 0.25045 0.31931 0.0
C619 C 0.8785 0.21207 0.27644 0.0
C620 C 0.81825 0.14577 0.32651 0.0
C621 C 0.81827 0.18405 0.3688 0.0
N622 N 0.85484 0.26946 0.40961 0.0
N623 N 0.85383 0.1209 0.24338 0.0
C624 C 0.84968 0.23595 0.36558 0.0
C625 C 0.8495 0.15921 0.28134 0.0
N626 N 0.90599 0.30181 0.31508 0.0
N627 N 0.79461 0.09372 0.33405 0.0
H628 H 0.88488 0.12546 0.21715 0.0
H629 H 0.82769 0.08468 0.23823 0.0
H630 H 0.76857 0.08352 0.36463 0.0
H631 H 0.80216 0.06054 0.31198 0.0
H632 H 0.90273 0.3333 0.34143 0.0
H633 H 0.92875 0.3152 0.28323 0.0
H634 H 0.88311 0.30414 0.41495 0.0
H635 H 0.83179 0.26075 0.44274 0.0
C636 C 0.96839 0.0271 0.43383 0.0
C637 C 0.01524 0.06633 0.43463 0.0
C638 C 0.96984 0.12699 0.48863 0.0
C639 C 0.92183 0.08831 0.48675 0.0
N640 N 0.87301 0.00577 0.4485 0.0
N641 N 0.05897 0.1562 0.45522 0.0
C642 C 0.92117 0.03856 0.45839 0.0
C643 C 0.01545 0.11711 0.45998 0.0
N644 N 0.96804 0.97992 0.40616 0.0
N645 N 0.96926 0.17523 0.51447 0.0
H646 H 0.09362 0.14889 0.43697 0.0
H647 H 0.06067 0.1963 0.46726 0.0
H648 H 0.93692 0.18233 0.5367 0.0
H649 H 1.00088 0.20708 0.51636 0.0
H650 H 0.93933 0.94591 0.40998 0.0
H651 H 0.99791 0.9746 0.38014 0.0
H652 H 0.86692 0.97276 0.42223 0.0
H653 H 0.83771 0.01342 0.46496 0.0
C654 C 0.28108 0.78915 0.67597 0.0
C655 C 0.31123 0.79667 0.62963 0.0
C656 C 0.30099 0.69693 0.61793 0.0
C657 C 0.27141 0.68989 0.66487 0.0
N658 N 0.23696 0.73011 0.74126 0.0
N659 N 0.35482 0.75614 0.55874 0.0
C660 C 0.2634 0.7362 0.69495 0.0
C661 C 0.32299 0.7501 0.60148 0.0
N662 N 0.2656 0.83288 0.70019 0.0
N663 N 0.3063 0.65218 0.58808 0.0
H664 H 0.37001 0.79315 0.54307 0.0
H665 H 0.36951 0.72442 0.54011 0.0
H666 H 0.29506 0.61293 0.60165 0.0
H667 H 0.31946 0.65337 0.54936 0.0
H668 H 0.23261 0.82943 0.72385 0.0
H669 H 0.28288 0.87257 0.69353 0.0
H670 H 0.23768 0.76109 0.76939 0.0
H671 H 0.21635 0.69363 0.75348 0.0
C672 C 0.60435 0.0301 0.93023 0.0
C673 C 0.55038 0.00836 0.93873 0.0
C674 C 0.58274 0.94091 0.99894 0.0
C675 C 0.63641 0.95874 0.98565 0.0
N676 N 0.69759 0.01519 0.93146 0.0
N677 N 0.48716 0.93816 0.97337 0.0
C678 C 0.6473 0.00281 0.95023 0.0
C679 C 0.5392 0.96281 0.97168 0.0
N680 N 0.61434 0.07724 0.90298 0.0
N681 N 0.57378 0.90064 0.03545 0.0
H682 H 0.45462 0.95304 0.95328 0.0
H683 H 0.47683 0.90043 0.99026 0.0
H684 H 0.60533 0.88494 0.05657 0.0
H685 H 0.53575 0.88536 0.04721 0.0
H686 H 0.65298 0.09887 0.90111 0.0
H687 H 0.58305 0.09721 0.88728 0.0
H688 H 0.70556 0.04063 0.89905 0.0
H689 H 0.73061 0.99703 0.94575 0.0
C690 C 0.23623 0.29104 0.19511 0.0
C691 C 0.23016 0.30089 0.13927 0.0
C692 C 0.23327 0.39807 0.15951 0.0
C693 C 0.2511 0.38871 0.21329 0.0
N694 N 0.25105 0.32915 0.28652 0.0
N695 N 0.206 0.36224 0.06972 0.0
C696 C 0.24528 0.33559 0.23245 0.0
C697 C 0.22252 0.35392 0.12187 0.0
N698 N 0.2294 0.23901 0.21213 0.0
N699 N 0.23312 0.45037 0.14402 0.0
H700 H 0.1986 0.3316 0.04092 0.0
H701 H 0.19659 0.39886 0.05495 0.0
H702 H 0.24319 0.48206 0.17171 0.0
H703 H 0.22476 0.46277 0.10506 0.0
H704 H 0.22899 0.22882 0.25198 0.0
H705 H 0.21917 0.20587 0.18617 0.0
H706 H 0.24829 0.29218 0.30537 0.0
H707 H 0.25697 0.3625 0.31273 0.0
C708 C 0.03684 0.98822 0.12678 0.0
C709 C 0.03982 0.04009 0.15169 0.0
C710 C 0.94708 0.04577 0.1138 0.0
C711 C 0.94521 0.99381 0.09055 0.0
N712 N 0.99262 0.92544 0.05772 0.0
N713 N 0.99924 0.12089 0.16523 0.0
C714 C 0.99266 0.96965 0.09001 0.0
C715 C 0.99557 0.07021 0.1433 0.0
N716 N 0.07358 0.9546 0.14119 0.0
N717 N 0.90155 0.07015 0.10893 0.0
H718 H 0.03246 0.13844 0.18967 0.0
H719 H 0.97019 0.14635 0.15844 0.0
H720 H 0.86702 0.05255 0.08616 0.0
H721 H 0.89774 0.10728 0.12598 0.0
H722 H 0.06956 0.9143 0.1288 0.0
H723 H 0.10533 0.96507 0.16963 0.0
H724 H 0.02598 0.90544 0.05436 0.0
H725 H 0.95965 0.9117 0.031 0.0
C726 C 0.26267 0.71376 0.44029 0.0
C727 C 0.29405 0.76448 0.43054 0.0
C728 C 0.35514 0.71658 0.38074 0.0
C729 C 0.32163 0.66645 0.3876 0.0
N730 N 0.23993 0.61816 0.41747 0.0
N731 N 0.3779 0.81233 0.40126 0.0
C732 C 0.27449 0.66531 0.41575 0.0
C733 C 0.34312 0.76523 0.40452 0.0
N734 N 0.22507 0.71133 0.47773 0.0
N735 N 0.39643 0.71781 0.34734 0.0
H736 H 0.36768 0.85033 0.40883 0.0
H737 H 0.41773 0.81426 0.39097 0.0
H738 H 0.40022 0.68488 0.3228 0.0
H739 H 0.42296 0.75217 0.33882 0.0
H740 H 0.20426 0.67533 0.49068 0.0
H741 H 0.22015 0.74473 0.5011 0.0
H742 H 0.20057 0.61713 0.42845 0.0
H743 H 0.24828 0.58187 0.40138 0.0
C744 C 0.51483 0.99133 0.62001 0.0
C745 C 0.53012 0.9932 0.67558 0.0
C746 C 0.62554 0.00385 0.65231 0.0
C747 C 0.61053 0.01656 0.59875 0.0
N748 N 0.53999 0.01783 0.53019 0.0
N749 N 0.60251 0.00461 0.74503 0.0
C750 C 0.55466 0.00732 0.58202 0.0
C751 C 0.58625 0.99911 0.69189 0.0
N752 N 0.46219 0.97416 0.60377 0.0
N753 N 0.6782 0.99921 0.66569 0.0
H754 H 0.57543 0.0034 0.77506 0.0
H755 H 0.64284 0.01398 0.75915 0.0
H756 H 0.70708 0.00444 0.63719 0.0
H757 H 0.69139 0.98536 0.70284 0.0
H758 H 0.44786 0.97151 0.56399 0.0
H759 H 0.43274 0.96132 0.63051 0.0
H760 H 0.50045 0.02131 0.51703 0.0
H761 H 0.5687 0.02682 0.50171 0.0
C762 C 0.30047 0.36065 0.87315 0.0
C763 C 0.25934 0.31668 0.8826 0.0
C764 C 0.19378 0.36591 0.83555 0.0
C765 C 0.23223 0.41337 0.83536 0.0
N766 N 0.32272 0.45688 0.85464 0.0
N767 N 0.16464 0.27868 0.86927 0.0
C768 C 0.28608 0.41092 0.85398 0.0
C769 C 0.2056 0.31991 0.86345 0.0
N770 N 0.35301 0.35382 0.88205 0.0
N771 N 0.14474 0.36359 0.80862 0.0
H772 H 0.1698 0.24222 0.88789 0.0
H773 H 0.1698 0.24222 0.88789 0.0
H774 H 0.13457 0.39402 0.78292 0.0
H775 H 0.13457 0.39402 0.78292 0.0
H776 H 0.38573 0.38294 0.87544 0.0
H777 H 0.36312 0.31614 0.89114 0.0
H778 H 0.3628 0.45874 0.86849 0.0
H779 H 0.31261 0.49402 0.84154 0.0
C780 C 0.45204 0.01288 0.09532 0.0
C781 C 0.40609 0.01907 0.06057 0.0
C782 C 0.38686 0.91985 0.0506 0.0
C783 C 0.43335 0.91449 0.08463 0.0
N784 N 0.5186 0.95651 0.12598 0.0
N785 N 0.34127 0.97846 0.9914 0.0
C786 C 0.46951 0.96144 0.1007 0.0
C787 C 0.37701 0.97245 0.03376 0.0
N788 N 0.47553 0.05415 0.12848 0.0
N789 N 0.35115 0.87486 0.03631 0.0
H790 H 0.33611 0.01637 0.97616 0.0
H791 H 0.32165 0.94604 0.96803 0.0
H792 H 0.35895 0.83604 0.0465 0.0
H793 H 0.31339 0.87649 0.01671 0.0
H794 H 0.5042 0.04857 0.15905 0.0
H795 H 0.46154 0.09117 0.13136 0.0
H796 H 0.54882 0.98934 0.13375 0.0
H797 H 0.53094 0.91915 0.13459 0.0
C798 C 0.86443 0.5984 0.02965 0.0
C799 C 0.87949 0.54803 0.01427 0.0
C800 C 0.94748 0.59538 0.95819 0.0
C801 C 0.9322 0.64576 0.97291 0.0
N802 N 0.88402 0.69682 0.0296 0.0
N803 N 0.93108 0.49755 0.96152 0.0
C804 C 0.89347 0.6476 0.01146 0.0
C805 C 0.92092 0.54668 0.97883 0.0
N806 N 0.8202 0.59906 0.05872 0.0
N807 N 0.9855 0.59255 0.92205 0.0
H808 H 0.95862 0.49249 0.93286 0.0
H809 H 0.95862 0.49249 0.93286 0.0
H810 H 0.00743 0.62639 0.90527 0.0
H811 H 0.00743 0.62639 0.90527 0.0
H812 H 0.80278 0.63369 0.0654 0.0
H813 H 0.79884 0.56409 0.07385 0.0
H814 H 0.85875 0.70189 0.06015 0.0
H815 H 0.90544 0.73296 0.01674 0.0
C816 C 0.7308 0.70856 0.20729 0.0
C817 C 0.73883 0.66343 0.23952 0.0
C818 C 0.64555 0.65721 0.26619 0.0
C819 C 0.63794 0.70371 0.23518 0.0
N820 N 0.67466 0.77629 0.17909 0.0
N821 N 0.70533 0.5954 0.30163 0.0
C822 C 0.68173 0.73104 0.20796 0.0
C823 C 0.69694 0.63866 0.27044 0.0
N824 N 0.76934 0.72758 0.17314 0.0
N825 N 0.6014 0.62642 0.28492 0.0
H826 H 0.74119 0.57862 0.30291 0.0
H827 H 0.67823 0.57836 0.32892 0.0
H828 H 0.5636 0.63934 0.28336 0.0
H829 H 0.60117 0.58641 0.29636 0.0
H830 H 0.76242 0.7519 0.14058 0.0
H831 H 0.80724 0.71489 0.17448 0.0
H832 H 0.70412 0.79823 0.15726 0.0
H833 H 0.64018 0.79503 0.18002 0.0
C834 C 0.63125 0.55074 0.44815 0.0
C835 C 0.66495 0.5484 0.49597 0.0
C836 C 0.64161 0.44951 0.49682 0.0
C837 C 0.6124 0.45172 0.44671 0.0
N838 N 0.57005 0.50181 0.37886 0.0
N839 N 0.70851 0.49548 0.56172 0.0
C840 C 0.60431 0.50186 0.42382 0.0
C841 C 0.67075 0.49789 0.52014 0.0
N842 N 0.6261 0.59983 0.42568 0.0
N843 N 0.64253 0.40072 0.52126 0.0
H844 H 0.73116 0.52949 0.58024 0.0
H845 H 0.72112 0.45958 0.57497 0.0
H846 H 0.62198 0.36469 0.50454 0.0
H847 H 0.65894 0.3964 0.56012 0.0
H848 H 0.60572 0.60498 0.38907 0.0
H849 H 0.64081 0.63671 0.44465 0.0
H850 H 0.55805 0.5362 0.36141 0.0
H851 H 0.54916 0.46611 0.36161 0.0
C852 C 0.37565 0.96219 0.29571 0.0
C853 C 0.32456 0.9333 0.30391 0.0
C854 C 0.35734 0.84819 0.28635 0.0
C855 C 0.40394 0.87728 0.26582 0.0
N856 N 0.46234 0.96155 0.25734 0.0
N857 N 0.27177 0.85175 0.32698 0.0
C858 C 0.41589 0.93418 0.2752 0.0
C859 C 0.31832 0.87696 0.30782 0.0
N860 N 0.38379 0.01656 0.30512 0.0
N861 N 0.34769 0.79364 0.27985 0.0
H862 H 0.24201 0.87363 0.33922 0.0
H863 H 0.26434 0.81076 0.3346 0.0
H864 H 0.37224 0.77172 0.25897 0.0
H865 H 0.31701 0.76975 0.29788 0.0
H866 H 0.42104 0.04069 0.30339 0.0
H867 H 0.3532 0.03632 0.31915 0.0
H868 H 0.47034 0.00344 0.25555 0.0
H869 H 0.4921 0.94143 0.24229 0.0
C870 C 0.09291 0.088 0.56601 0.0
C871 C 0.14886 0.09447 0.55789 0.0
C872 C 0.1488 0.19294 0.55692 0.0
C873 C 0.0969 0.18588 0.57816 0.0
N874 N 0.02088 0.12503 0.60674 0.0
N875 N 0.23232 0.15416 0.55237 0.0
C876 C 0.06847 0.13287 0.58193 0.0
C877 C 0.17736 0.14741 0.55359 0.0
N878 N 0.0637 0.03803 0.56065 0.0
N879 N 0.17316 0.24433 0.54831 0.0
H880 H 0.25404 0.12147 0.55443 0.0
H881 H 0.25661 0.19166 0.55383 0.0
H882 H 0.15244 0.2775 0.55227 0.0
H883 H 0.21176 0.25362 0.5346 0.0
H884 H 0.082 0.00535 0.54936 0.0
H885 H 0.02176 0.03066 0.56204 0.0
H886 H 0.00173 0.08708 0.61728 0.0
H887 H 0.00166 0.15713 0.61864 0.0
C888 C 0.79785 0.39634 0.33651 0.0
C889 C 0.80584 0.41638 0.28367 0.0
C890 C 0.70791 0.39016 0.26128 0.0
C891 C 0.70284 0.36614 0.31221 0.0
N892 N 0.74439 0.33331 0.39231 0.0
N893 N 0.76719 0.42634 0.19308 0.0
C894 C 0.74887 0.36384 0.34705 0.0
C895 C 0.76044 0.4114 0.24507 0.0
N896 N 0.83413 0.4129 0.37823 0.0
N897 N 0.66218 0.3943 0.22953 0.0
H898 H 0.80474 0.43846 0.17793 0.0
H899 H 0.73589 0.42219 0.16333 0.0
H900 H 0.62397 0.37617 0.23957 0.0
H901 H 0.66147 0.41764 0.1951 0.0
H902 H 0.82817 0.40282 0.41807 0.0
H903 H 0.86542 0.44394 0.37426 0.0
H904 H 0.77698 0.32901 0.41913 0.0
H905 H 0.70857 0.30863 0.40037 0.0
C906 C 0.77556 0.6869 0.75881 0.0
C907 C 0.77507 0.63072 0.75039 0.0
C908 C 0.87236 0.64251 0.77695 0.0
C909 C 0.86946 0.69524 0.79662 0.0
N910 N 0.81805 0.76851 0.80658 0.0
N911 N 0.82377 0.5537 0.75338 0.0
C912 C 0.82118 0.71813 0.78675 0.0
C913 C 0.82392 0.60817 0.75941 0.0
N914 N 0.73306 0.7107 0.73876 0.0
N915 N 0.92163 0.6249 0.77745 0.0
H916 H 0.78921 0.52698 0.74138 0.0
H917 H 0.85691 0.5342 0.7641 0.0
H918 H 0.9573 0.64986 0.79021 0.0
H919 H 0.92768 0.58814 0.76088 0.0
H920 H 0.73354 0.7522 0.73991 0.0
H921 H 0.69978 0.68932 0.71694 0.0
H922 H 0.78214 0.78514 0.80646 0.0
H923 H 0.85146 0.7927 0.82539 0.0
C924 C 0.54994 0.87504 0.41403 0.0
C925 C 0.52174 0.8937 0.4563 0.0
C926 C 0.50329 0.97028 0.40103 0.0
C927 C 0.53726 0.95395 0.36279 0.0
N928 N 0.55928 0.87522 0.31823 0.0
N929 N 0.444 0.93664 0.47075 0.0
C930 C 0.54401 0.8986 0.36296 0.0
C931 C 0.48871 0.93402 0.44356 0.0
N932 N 0.58821 0.84194 0.4236 0.0
N933 N 0.4876 0.0202 0.39867 0.0
H934 H 0.43236 0.90761 0.49936 0.0
H935 H 0.4168 0.96353 0.46055 0.0
H936 H 0.49861 0.04697 0.36802 0.0
H937 H 0.46484 0.03461 0.42767 0.0
H938 H 0.61299 0.83193 0.39415 0.0
H939 H 0.59762 0.828 0.46172 0.0
H940 H 0.56588 0.83491 0.31753 0.0
H941 H 0.56143 0.89582 0.28191 0.0
C942 C 0.40934 0.39434 0.76144 0.0
C943 C 0.43273 0.34609 0.76273 0.0
C944 C 0.38051 0.31655 0.6775 0.0
C945 C 0.35204 0.36159 0.68035 0.0
N946 N 0.33542 0.44102 0.72696 0.0
N947 N 0.44314 0.2618 0.72022 0.0
C948 C 0.36449 0.39889 0.72421 0.0
C949 C 0.41953 0.3078 0.71961 0.0
N950 N 0.43192 0.43662 0.79387 0.0
N951 N 0.3714 0.28328 0.63329 0.0
H952 H 0.47335 0.25564 0.74896 0.0
H953 H 0.43228 0.22933 0.69375 0.0
H954 H 0.34013 0.28613 0.60423 0.0
H955 H 0.39533 0.25406 0.62429 0.0
H956 H 0.42034 0.47501 0.79193 0.0
H957 H 0.46679 0.43466 0.81847 0.0
H958 H 0.34286 0.47159 0.75584 0.0
H959 H 0.30177 0.44374 0.70064 0.0
C960 C 0.0198 0.12951 0.99099 0.0
C961 C 0.02812 0.18642 0.98503 0.0
C962 C 1.00004 0.1739 0.88939 0.0
C963 C 0.97869 0.12006 0.89933 0.0
N964 N 0.96994 0.04398 0.95799 0.0
N965 N 0.01573 0.26255 0.92834 0.0
C966 C 0.99029 0.09664 0.94938 0.0
C967 C 0.01731 0.2087 0.93365 0.0
N968 N 0.04041 0.10708 0.03596 0.0
N969 N 0.99727 0.19293 0.83827 0.0
H970 H 0.01937 0.28776 0.96143 0.0
H971 H 0.00301 0.28042 0.893 0.0
H972 H 0.98127 0.16785 0.80588 0.0
H973 H 0.01569 0.23124 0.82781 0.0
H974 H 0.0404 0.06564 0.03969 0.0
H975 H 0.06298 0.13022 0.06662 0.0
H976 H 0.97314 0.02546 0.99488 0.0
H977 H 0.94892 0.01894 0.92785 0.0
C978 C 0.18376 0.81777 0.22139 0.0
C979 C 0.17654 0.77999 0.26345 0.0
C980 C 0.2451 0.73052 0.22851 0.0
C981 C 0.246 0.76335 0.18255 0.0
N982 N 0.23089 0.84608 0.14116 0.0
N983 N 0.20301 0.70385 0.31116 0.0
C984 C 0.22117 0.81065 0.182 0.0
C985 C 0.20924 0.7381 0.26882 0.0
N986 N 0.15081 0.85673 0.21638 0.0
N987 N 0.27715 0.6905 0.23149 0.0
H988 H 0.18001 0.71137 0.34309 0.0
H989 H 0.2192 0.66782 0.31427 0.0
H990 H 0.30372 0.68547 0.20188 0.0
H991 H 0.28104 0.66576 0.26446 0.0
H992 H 0.14872 0.88135 0.18303 0.0
H993 H 0.12388 0.86288 0.24527 0.0
H994 H 0.21586 0.88276 0.1381 0.0
H995 H 0.25777 0.83957 0.11223 0.0
C996 C 0.57859 0.17526 0.04365 0.0
C997 C 0.57117 0.23033 0.03763 0.0
C998 C 0.56449 0.23684 0.13525 0.0
C999 C 0.57576 0.18278 0.14182 0.0
N1000 N 0.60026 0.10241 0.10039 0.0
N1001 N 0.56568 0.3163 0.07861 0.0
C1002 C 0.58353 0.1521 0.09543 0.0
C1003 C 0.56723 0.26215 0.08387 0.0
N1004 N 0.58119 0.14449 0.99898 0.0
N1005 N 0.55563 0.26474 0.18018 0.0
H1006 H 0.5666 0.33572 0.04185 0.0
H1007 H 0.56632 0.34313 0.11057 0.0
H1008 H 0.54931 0.24527 0.21662 0.0
H1009 H 0.55596 0.3062 0.1825 0.0
H1010 H 0.57497 0.10251 0.99959 0.0
H1011 H 0.58679 0.16117 0.96113 0.0
H1012 H 0.61598 0.08277 0.06942 0.0
H1013 H 0.60113 0.08087 0.13572 0.0
C1014 C 0.13966 0.25136 0.31452 0.0
C1015 C 0.11207 0.28514 0.27989 0.0
C1016 C 0.09201 0.33082 0.35935 0.0
C1017 C 0.1405 0.31899 0.38658 0.0
N1018 N 0.1837 0.2403 0.40362 0.0
N1019 N 0.04898 0.35067 0.27537 0.0
C1020 C 0.1573 0.27044 0.36844 0.0
C1021 C 0.08471 0.32359 0.30391 0.0
N1022 N 0.14408 0.20046 0.29761 0.0
N1023 N 0.04922 0.34111 0.38639 0.0
H1024 H 0.03951 0.34453 0.23439 0.0
H1025 H 0.02917 0.37929 0.29367 0.0
H1026 H 0.0491 0.33813 0.42801 0.0
H1027 H 0.0491 0.33813 0.42801 0.0
H1028 H 0.15672 0.17118 0.32297 0.0
H1029 H 0.12993 0.18658 0.2591 0.0
H1030 H 0.19653 0.204 0.39392 0.0
H1031 H 0.18719 0.24919 0.44441 0.0
C1032 C 0.96785 0.83699 0.62605 0.0
C1033 C 0.00724 0.87429 0.60173 0.0
C1034 C 0.0054 0.9384 0.67574 0.0
C1035 C 0.96154 0.90386 0.69628 0.0
N1036 N 0.92208 0.81164 0.70736 0.0
N1037 N 0.0837 0.94099 0.62333 0.0
C1038 C 0.95246 0.84917 0.67822 0.0
C1039 C 0.03257 0.91901 0.63293 0.0
N1040 N 0.94081 0.79357 0.59806 0.0
N1041 N 0.01955 0.99022 0.69421 0.0
H1042 H 0.1051 0.92529 0.59381 0.0
H1043 H 0.10546 0.97087 0.64826 0.0
H1044 H 0.00276 0.00575 0.72683 0.0
H1045 H 0.04743 0.01811 0.67578 0.0
H1046 H 0.9114 0.76573 0.61424 0.0
H1047 H 0.94228 0.7895 0.55686 0.0
H1048 H 0.91618 0.77036 0.69831 0.0
H1049 H 0.90701 0.82234 0.74332 0.0
C1050 C 0.42392 0.78068 0.83019 0.0
C1051 C 0.40178 0.74305 0.78868 0.0
C1052 C 0.32557 0.71234 0.84273 0.0
C1053 C 0.34852 0.7467 0.88517 0.0
N1054 N 0.41356 0.82084 0.91714 0.0
N1055 N 0.3615 0.64974 0.78819 0.0
C1056 C 0.39463 0.78489 0.87691 0.0
C1057 C 0.35925 0.70222 0.80182 0.0
N1058 N 0.47716 0.80241 0.83112 0.0
N1059 N 0.27794 0.67969 0.84892 0.0
H1060 H 0.39505 0.63831 0.77075 0.0
H1061 H 0.33668 0.61752 0.80441 0.0
H1062 H 0.25451 0.68453 0.88127 0.0
H1063 H 0.26138 0.65016 0.8208 0.0
H1064 H 0.49667 0.82963 0.8601 0.0
H1065 H 0.50429 0.78498 0.80908 0.0
H1066 H 0.44375 0.85326 0.91233 0.0
H1067 H 0.39451 0.8209 0.95316 0.0
C1068 C 0.46 0.52494 0.9371 0.0
C1069 C 0.5098 0.55244 0.92074 0.0
C1070 C 0.48963 0.63648 0.96171 0.0
C1071 C 0.43701 0.61017 0.97342 0.0
N1072 N 0.37054 0.53044 0.96699 0.0
N1073 N 0.57717 0.63092 0.9261 0.0
C1074 C 0.42231 0.55435 0.96088 0.0
C1075 C 0.52592 0.60742 0.93543 0.0
N1076 N 0.44906 0.4702 0.93085 0.0
N1077 N 0.5036 0.6903 0.97425 0.0
H1078 H 0.60593 0.60923 0.91156 0.0
H1079 H 0.59301 0.6707 0.93566 0.0
H1080 H 0.47961 0.7116 0.99659 0.0
H1081 H 0.53789 0.71463 0.96238 0.0
H1082 H 0.41799 0.4467 0.94934 0.0
H1083 H 0.47326 0.44763 0.91041 0.0
H1084 H 0.35499 0.49214 0.95241 0.0
H1085 H 0.3414 0.54988 0.98374 0.0
C1086 C 0.79817 0.29863 0.17803 0.0
C1087 C 0.77941 0.29504 0.12356 0.0
C1088 C 0.73905 0.20207 0.138 0.0
C1089 C 0.74417 0.21102 0.19405 0.0
N1090 N 0.77555 0.27071 0.2677 0.0
N1091 N 0.71492 0.24755 0.05785 0.0
C1092 C 0.77359 0.26006 0.21434 0.0
C1093 C 0.74575 0.24751 0.10458 0.0
N1094 N 0.83942 0.33776 0.19461 0.0
N1095 N 0.72178 0.15157 0.11743 0.0
H1096 H 0.71209 0.28316 0.03739 0.0
H1097 H 0.68823 0.21402 0.04346 0.0
H1098 H 0.71565 0.11789 0.14213 0.0
H1099 H 0.71903 0.14332 0.07627 0.0
H1100 H 0.85718 0.33941 0.2333 0.0
H1101 H 0.85882 0.36524 0.16821 0.0
H1102 H 0.79704 0.30578 0.28442 0.0
H1103 H 0.75617 0.24383 0.29465 0.0
C1104 C 0.01434 0.45434 0.45665 0.0
C1105 C 0.0222 0.50715 0.43469 0.0
C1106 C 0.11351 0.52243 0.48011 0.0
C1107 C 0.10807 0.46754 0.49343 0.0
N1108 N 0.04838 0.39019 0.51885 0.0
N1109 N 0.07665 0.59468 0.43169 0.0
C1110 C 0.056 0.43716 0.4909 0.0
C1111 C 0.07095 0.54247 0.44885 0.0
N1112 N 0.96979 0.41884 0.44034 0.0
N1113 N 0.15701 0.55571 0.50221 0.0
H1114 H 0.04544 0.61092 0.41079 0.0
H1115 H 0.11197 0.62192 0.43824 0.0
H1116 H 0.18811 0.54074 0.52472 0.0
H1117 H 0.1573 0.59718 0.50537 0.0
H1118 H 0.96297 0.37873 0.45241 0.0
H1119 H 0.94269 0.428 0.40977 0.0
H1120 H 0.01086 0.36668 0.52166 0.0
H1121 H 0.08016 0.37709 0.54212 0.0
C1122 C 0.73481 0.82747 0.62243 0.0
C1123 C 0.76656 0.83468 0.57705 0.0
C1124 C 0.78441 0.93146 0.59908 0.0
C1125 C 0.77278 0.91943 0.65182 0.0
N1126 N 0.7216 0.86304 0.71097 0.0
N1127 N 0.82315 0.89774 0.52304 0.0
C1128 C 0.7411 0.86996 0.66179 0.0
C1129 C 0.79028 0.88826 0.56437 0.0
N1130 N 0.70175 0.77998 0.62932 0.0
N1131 N 0.7989 0.98388 0.58584 0.0
H1132 H 0.8267 0.86912 0.49402 0.0
H1133 H 0.84945 0.93365 0.51999 0.0
H1134 H 0.79901 0.01501 0.61393 0.0
H1135 H 0.80566 0.99527 0.54664 0.0
H1136 H 0.67895 0.77177 0.66219 0.0
H1137 H 0.69322 0.74969 0.6002 0.0
H1138 H 0.70159 0.82681 0.72352 0.0
H1139 H 0.72696 0.89476 0.7389 0.0
C1140 C 0.48269 0.54395 0.61007 0.0
C1141 C 0.52259 0.50894 0.61779 0.0
C1142 C 0.47111 0.44507 0.55147 0.0
C1143 C 0.42822 0.47658 0.54977 0.0
N1144 N 0.40067 0.56319 0.55999 0.0
N1145 N 0.55386 0.42445 0.59794 0.0
C1146 C 0.43724 0.52896 0.57285 0.0
C1147 C 0.51713 0.45937 0.5882 0.0
N1148 N 0.48673 0.58997 0.64052 0.0
N1149 N 0.46525 0.39986 0.51967 0.0
H1150 H 0.58726 0.43318 0.62512 0.0
H1151 H 0.54962 0.38542 0.58207 0.0
H1152 H 0.43095 0.38987 0.4935 0.0
H1153 H 0.49485 0.37493 0.51649 0.0
H1154 H 0.45503 0.61241 0.64287 0.0
H1155 H 0.52014 0.60321 0.66679 0.0
H1156 H 0.40604 0.60377 0.57157 0.0
H1157 H 0.36716 0.55114 0.53334 0.0
C1158 C 0.77744 0.20231 0.94059 0.0
C1159 C 0.75983 0.23928 0.90276 0.0
C1160 C 0.77243 0.17696 0.8304 0.0
C1161 C 0.78901 0.13949 0.86855 0.0
N1162 N 0.79055 0.11014 0.9603 0.0
N1163 N 0.72615 0.2555 0.81397 0.0
C1164 C 0.78312 0.14928 0.9237 0.0
C1165 C 0.75122 0.22351 0.84845 0.0
N1166 N 0.79619 0.21995 0.99075 0.0
N1167 N 0.78232 0.17158 0.77786 0.0
H1168 H 0.71139 0.29003 0.82707 0.0
H1169 H 0.71607 0.24522 0.77398 0.0
H1170 H 0.79948 0.13945 0.76294 0.0
H1171 H 0.77467 0.20004 0.7493 0.0
H1172 H 0.81498 0.19639 0.01852 0.0
H1173 H 0.79766 0.2601 0.00217 0.0
H1174 H 0.78345 0.11403 1.00073 0.0
H1175 H 0.79981 0.07246 0.94885 0.0
C1176 C 0.091 0.54916 0.16344 0.0
C1177 C 0.041 0.56837 0.15119 0.0
C1178 C 0.08484 0.63261 0.08726 0.0
C1179 C 0.13556 0.61495 0.10086 0.0
N1180 N 0.18853 0.56624 0.16235 0.0
N1181 N 0.99139 0.63393 0.10787 0.0
C1182 C 0.13894 0.57518 0.14117 0.0
C1183 C 0.03829 0.61188 0.11509 0.0
N1184 N 0.09312 0.5065 0.19736 0.0
N1185 N 0.08145 0.66934 0.04713 0.0
H1186 H 0.95548 0.61777 0.1245 0.0
H1187 H 0.98874 0.67028 0.08829 0.0
H1188 H 0.11484 0.68528 0.02626 0.0
H1189 H 0.04514 0.67998 0.03107 0.0
H1190 H 0.1272 0.48712 0.20358 0.0
H1191 H 0.0597 0.48802 0.2167 0.0
H1192 H 0.1939 0.54719 0.19896 0.0
H1193 H 0.22469 0.58174 0.14585 0.0
C1194 C 0.73917 0.87373 0.40554 0.0
C1195 C 0.75087 0.83866 0.36492 0.0
C1196 C 0.72055 0.90275 0.29824 0.0
C1197 C 0.71786 0.94139 0.33987 0.0
N1198 N 0.73862 0.96624 0.43299 0.0
N1199 N 0.75672 0.82265 0.27093 0.0
C1200 C 0.73412 0.92815 0.39316 0.0
C1201 C 0.74305 0.85431 0.31072 0.0
N1202 N 0.7239 0.85324 0.45353 0.0
N1203 N 0.69825 0.90968 0.2478 0.0
H1204 H 0.77553 0.7886 0.27863 0.0
H1205 H 0.75659 0.83447 0.23108 0.0
H1206 H 0.68053 0.94328 0.23605 0.0
H1207 H 0.69355 0.87993 0.218 0.0
H1208 H 0.70756 0.87613 0.48167 0.0
H1209 H 0.71968 0.8119 0.46113 0.0
H1210 H 0.7495 0.9578 0.47269 0.0
H1211 H 0.73516 0.0067 0.42508 0.0
C1212 C 0.88557 0.49834 0.57172 0.0
C1213 C 0.90294 0.54932 0.59778 0.0
C1214 C 0.96587 0.5051 0.6575 0.0
C1215 C 0.95304 0.45599 0.62752 0.0
N1216 N 0.90566 0.40824 0.55113 0.0
N1217 N 0.96959 0.60241 0.65807 0.0
C1218 C 0.91506 0.45388 0.58247 0.0
C1219 C 0.94575 0.55288 0.63882 0.0
N1220 N 0.83886 0.49098 0.5396 0.0
N1221 N 0.99655 0.50582 0.70483 0.0
H1222 H 0.96135 0.63858 0.6409 0.0
H1223 H 0.00272 0.60775 0.68596 0.0
H1224 H 0.01561 0.47315 0.71776 0.0
H1225 H 1.00074 0.53778 0.73239 0.0
H1226 H 0.82154 0.45362 0.5233 0.0
H1227 H 0.81394 0.52073 0.53416 0.0
H1228 H 0.88231 0.40552 0.51492 0.0
H1229 H 0.92544 0.37478 0.55918 0.0
C1230 C 0.42324 0.09918 0.52454 0.0
C1231 C 0.37 0.08557 0.50038 0.0
C1232 C 0.38312 0.1727 0.45529 0.0
C1233 C 0.4396 0.17259 0.46069 0.0
N1234 N 0.51455 0.14339 0.5114 0.0
N1235 N 0.29428 0.12256 0.45558 0.0
C1236 C 0.4603 0.13858 0.49933 0.0
C1237 C 0.34819 0.12657 0.47007 0.0
N1238 N 0.4364 0.07929 0.57343 0.0
N1239 N 0.36209 0.21525 0.43286 0.0
H1240 H 0.2658 0.09171 0.46845 0.0
H1241 H 0.27798 0.15179 0.43245 0.0
H1242 H 0.38603 0.25068 0.42165 0.0
H1243 H 0.38603 0.25068 0.42165 0.0
H1244 H 0.47313 0.09218 0.59484 0.0
H1245 H 0.40741 0.05659 0.59549 0.0
H1246 H 0.53174 0.1182 0.53833 0.0
H1247 H 0.542 0.17233 0.49378 0.0
C1248 C 0.26264 0.23418 0.76038 0.0
C1249 C 0.25867 0.17739 0.76611 0.0
C1250 C 0.16103 0.1746 0.7744 0.0
C1251 C 0.16398 0.22892 0.75632 0.0
N1252 N 0.2193 0.31035 0.73088 0.0
N1253 N 0.20231 0.09348 0.78473 0.0
C1254 C 0.21555 0.25931 0.75113 0.0
C1255 C 0.20767 0.14783 0.77635 0.0
N1256 N 0.31214 0.26443 0.7657 0.0
N1257 N 0.11236 0.14533 0.78294 0.0
H1258 H 0.23444 0.07137 0.78385 0.0
H1259 H 0.16518 0.07051 0.79156 0.0
H1260 H 0.07623 0.16179 0.78013 0.0
H1261 H 0.07623 0.16179 0.78013 0.0
H1262 H 0.31692 0.30607 0.77195 0.0
H1263 H 0.3469 0.24642 0.77307 0.0
H1264 H 0.25545 0.33244 0.72048 0.0
H1265 H 0.18554 0.32966 0.72208 0.0
C1266 C 0.10938 0.04705 0.94389 0.0
C1267 C 0.13792 0.05388 0.99525 0.0
C1268 C 0.11955 0.9551 0.00785 0.0
C1269 C 0.08686 0.94968 0.95916 0.0
N1270 N 0.04314 0.99068 0.88513 0.0
N1271 N 0.1641 0.01436 0.07934 0.0
C1272 C 0.07829 0.99621 0.92955 0.0
C1273 C 0.14089 0.0078 0.02834 0.0
N1274 N 0.11622 0.08692 0.90646 0.0
N1275 N 0.13155 0.90948 0.0333 0.0
H1276 H 0.17343 0.05193 0.09852 0.0
H1277 H 0.17045 0.9825 0.10435 0.0
H1278 H 0.11357 0.87075 0.02094 0.0
H1279 H 0.16068 0.90948 0.06486 0.0
H1280 H 0.09994 0.0822 0.86714 0.0
H1281 H 0.14382 0.12213 0.91172 0.0
H1282 H 0.03338 0.02321 0.8626 0.0
H1283 H 0.01995 0.9538 0.87385 0.0
C1284 C 0.77982 0.3254 0.7227 0.0
C1285 C 0.77772 0.3718 0.75551 0.0
C1286 C 0.86887 0.36407 0.79355 0.0
C1287 C 0.87473 0.32669 0.75259 0.0
N1288 N 0.83389 0.26022 0.68842 0.0
N1289 N 0.82259 0.43507 0.8238 0.0
C1290 C 0.82865 0.30235 0.72178 0.0
C1291 C 0.82207 0.39002 0.79267 0.0
N1292 N 0.73565 0.30602 0.68995 0.0
N1293 N 0.91101 0.3806 0.82955 0.0
H1294 H 0.79141 0.45847 0.82277 0.0
H1295 H 0.85576 0.45014 0.8497 0.0
H1296 H 0.94655 0.36309 0.83123 0.0
H1297 H 0.94655 0.36309 0.83123 0.0
H1298 H 0.73626 0.27871 0.65868 0.0
H1299 H 0.69804 0.31841 0.69427 0.0
H1300 H 0.80276 0.23953 0.66359 0.0
H1301 H 0.86997 0.2437 0.68852 0.0
C1302 C 0.62669 0.60063 0.04723 0.0
C1303 C 0.59722 0.54738 0.04662 0.0
C1304 C 0.51767 0.58529 0.07521 0.0
C1305 C 0.54728 0.63759 0.07639 0.0
N1306 N 0.62288 0.69752 0.04712 0.0
N1307 N 0.51012 0.49224 0.04497 0.0
C1308 C 0.5989 0.64584 0.05505 0.0
C1309 C 0.54108 0.54094 0.05553 0.0
N1310 N 0.68172 0.60825 0.04679 0.0
N1311 N 0.4683 0.57785 0.09621 0.0
H1312 H 0.52532 0.45968 0.0283 0.0
H1313 H 0.46834 0.48663 0.04626 0.0
H1314 H 0.4493 0.61016 0.10806 0.0
H1315 H 0.44807 0.54001 0.10427 0.0
H1316 H 0.70522 0.64603 0.05205 0.0
H1317 H 0.70456 0.57661 0.04793 0.0
H1318 H 0.65899 0.70674 0.02831 0.0
H1319 H 0.60318 0.7307 0.05466 0.0
C1320 C 0.26979 0.86882 0.84375 0.0
C1321 C 0.27454 0.90775 0.8024 0.0
C1322 C 0.17502 0.89366 0.78712 0.0
C1323 C 0.17124 0.85431 0.82764 0.0
N1324 N 0.21402 0.79549 0.88602 0.0
N1325 N 0.22941 0.96687 0.74402 0.0
C1326 C 0.21856 0.83866 0.85254 0.0
C1327 C 0.22648 0.92288 0.77645 0.0
N1328 N 0.31255 0.86641 0.87985 0.0
N1329 N 0.12866 0.90261 0.75885 0.0
H1330 H 0.26551 0.98797 0.73219 0.0
H1331 H 0.19586 0.98478 0.73108 0.0
H1332 H 0.09099 0.88091 0.76607 0.0
H1333 H 0.12791 0.92746 0.72568 0.0
H1334 H 0.30875 0.84548 0.91574 0.0
H1335 H 0.34955 0.89124 0.8777 0.0
H1336 H 0.24733 0.77913 0.90203 0.0
H1337 H 0.17666 0.77305 0.89299 0.0
C1338 C 0.31976 0.19298 0.29059 0.0
C1339 C 0.30748 0.14584 0.25712 0.0
C1340 C 0.40569 0.15161 0.24599 0.0
C1341 C 0.4148 0.20016 0.27611 0.0
N1342 N 0.37823 0.27822 0.30457 0.0
N1343 N 0.34301 0.08133 0.20017 0.0
C1344 C 0.37048 0.22535 0.2884 0.0
C1345 C 0.35155 0.12622 0.23263 0.0
N1346 N 0.28643 0.20468 0.32861 0.0
N1347 N 0.44924 0.12736 0.23503 0.0
H1348 H 0.30708 0.05469 0.1969 0.0
H1349 H 0.37246 0.07017 0.17645 0.0
H1350 H 0.48868 0.1471 0.24263 0.0
H1351 H 0.44611 0.08735 0.22227 0.0
H1352 H 0.29652 0.23704 0.3555 0.0
H1353 H 0.25202 0.17945 0.3378 0.0
H1354 H 0.34648 0.29873 0.31373 0.0
H1355 H 0.41566 0.30247 0.30327 0.0
loop_
_geom_bond_atom_site_label_1
_geom_bond_atom_site_label_2
_geom_bond_distance
_geom_bond_site_symmetry_2
_ccdc_geom_bond_type
Cu0 N1 1.999 1_455 S
Cu0 O6 1.974 . S
Cu0 N11 1.985 . S
Cu0 O20 1.959 1_455 S
N1 Cu0 1.999 1_655 S
N1 C3 1.263 . S
N1 C5 1.389 . S
N2 C3 1.358 . S
N2 C4 1.400 . S
C3 N1 1.263 . S
C3 N2 1.358 . S
C3 H9 0.930 1_655 S
C4 N2 1.400 . S
C4 C5 1.351 . S
C4 H21 0.930 . S
C5 N1 1.389 . S
C5 C4 1.351 . S
C5 H10 0.930 . S
O6 Cu0 1.974 . S
O6 C16 1.282 . S
C7 O8 1.261 1_655 S
C7 O20 1.251 . S
O8 C7 1.261 1_455 S
H9 C3 0.930 1_455 S
H10 C5 0.930 . S
N11 Cu0 1.985 . S
N11 C13 1.335 . S
N11 C14 1.390 . S
N12 C13 1.345 . S
N12 C15 1.336 . S
C13 N11 1.335 . S
C13 N12 1.345 . S
C13 H18 0.930 . S
C14 N11 1.390 . S
C14 C15 1.346 . S
C14 H19 0.930 . S
C15 N12 1.336 . S
C15 C14 1.346 . S
C15 H22 0.929 . S
C16 O6 1.282 . S
C16 O17 1.216 . S
O17 C16 1.216 . S
H18 C13 0.930 . S
H19 C14 0.930 . S
O20 Cu0 1.959 1_655 S
O20 C7 1.251 . S
H21 C4 0.930 . S
H22 C15 0.929 . S
Cu23 N24 2.007 . S
Cu23 O29 1.974 . S
Cu23 N34 1.985 . S
Cu23 O43 1.959 . S
N24 Cu23 2.007 . S
N24 C26 1.258 1_455 S
N24 C28 1.385 1_455 S
N25 C26 1.358 . S
N25 C27 1.400 . S
C26 N24 1.258 1_655 S
C26 N25 1.358 . S
C26 H32 0.930 . S
C27 N25 1.400 . S
C27 C28 1.351 . S
C27 H44 0.930 . S
C28 N24 1.385 1_655 S
C28 C27 1.351 . S
C28 H33 0.930 . S
O29 Cu23 1.974 . S
O29 C39 1.282 . S
C30 O31 1.261 . S
C30 O43 1.251 1_655 S
O31 C30 1.261 . S
H32 C26 0.930 . S
H33 C28 0.930 . S
N34 Cu23 1.985 . S
N34 C36 1.335 . S
N34 C37 1.390 . S
N35 C36 1.345 . S
N35 C38 1.336 . S
C36 N34 1.335 . S
C36 N35 1.345 . S
C36 H41 0.930 . S
C37 N34 1.390 . S
C37 C38 1.346 . S
C37 H42 0.930 . S
C38 N35 1.336 . S
C38 C37 1.346 . S
C38 H45 0.929 . S
C39 O29 1.282 . S
C39 O40 1.216 . S
O40 C39 1.216 . S
H41 C36 0.930 . S
H42 C37 0.930 . S
O43 Cu23 1.959 . S
O43 C30 1.251 1_455 S
H44 C27 0.930 . S
H45 C38 0.929 . S
Cu46 N47 1.999 . S
Cu46 O52 1.974 . S
Cu46 N57 1.985 . S
Cu46 O66 1.959 . S
N47 Cu46 1.999 . S
N47 C49 1.263 . S
N47 C51 1.389 . S
N48 C49 1.358 . S
N48 C50 1.400 . S
C49 N47 1.263 . S
C49 N48 1.358 . S
C49 H55 0.930 . S
C50 N48 1.400 . S
C50 C51 1.351 . S
C50 H67 0.930 . S
C51 N47 1.389 . S
C51 C50 1.351 . S
C51 H56 0.930 . S
O52 Cu46 1.974 . S
O52 C62 1.282 . S
C53 O54 1.261 . S
C53 O66 1.251 . S
O54 C53 1.261 . S
H55 C49 0.930 . S
H56 C51 0.930 . S
N57 Cu46 1.985 . S
N57 C59 1.335 . S
N57 C60 1.390 . S
N58 C59 1.345 . S
N58 C61 1.336 . S
C59 N57 1.335 . S
C59 N58 1.345 . S
C59 H64 0.930 . S
C60 N57 1.390 . S
C60 C61 1.346 . S
C60 H65 0.930 . S
C61 N58 1.336 . S
C61 C60 1.346 . S
C61 H68 0.929 . S
C62 O52 1.282 . S
C62 O63 1.216 . S
O63 C62 1.216 . S
H64 C59 0.930 . S
H65 C60 0.930 . S
O66 Cu46 1.959 . S
O66 C53 1.251 . S
H67 C50 0.930 . S
H68 C61 0.929 . S
Cu69 N70 1.999 . S
Cu69 O75 1.974 . S
Cu69 N80 1.985 . S
Cu69 O89 1.959 . S
N70 Cu69 1.999 . S
N70 C72 1.263 . S
N70 C74 1.389 . S
N71 C72 1.358 1_554 S
N71 C73 1.400 1_554 S
C72 N70 1.263 . S
C72 N71 1.358 1_556 S
C72 H78 0.930 1_556 S
C73 N71 1.400 1_556 S
C73 C74 1.351 . S
C73 H90 0.930 . S
C74 N70 1.389 . S
C74 C73 1.351 . S
C74 H79 0.930 . S
O75 Cu69 1.974 . S
O75 C85 1.282 . S
C76 O77 1.261 . S
C76 O89 1.251 . S
O77 C76 1.261 . S
H78 C72 0.930 1_554 S
H79 C74 0.930 . S
N80 Cu69 1.985 . S
N80 C82 1.335 . S
N80 C83 1.390 . S
N81 C82 1.345 . S
N81 C84 1.336 . S
C82 N80 1.335 . S
C82 N81 1.345 . S
C82 H87 0.930 . S
C83 N80 1.390 . S
C83 C84 1.346 . S
C83 H88 0.930 . S
C84 N81 1.336 . S
C84 C83 1.346 . S
C84 H91 0.929 . S
C85 O75 1.282 . S
C85 O86 1.216 . S
O86 C85 1.216 . S
H87 C82 0.930 . S
H88 C83 0.930 . S
O89 Cu69 1.959 . S
O89 C76 1.251 . S
H90 C73 0.930 . S
H91 C84 0.929 . S
Cu92 N93 1.999 1_565 S
Cu92 O98 1.974 . S
Cu92 N103 1.985 . S
Cu92 O112 1.959 1_565 S
N93 Cu92 1.999 1_545 S
N93 C95 1.263 . S
N93 C97 1.389 . S
N94 C95 1.358 . S
N94 C96 1.400 . S
C95 N93 1.263 . S
C95 N94 1.358 . S
C95 H101 0.930 . S
C96 N94 1.400 . S
C96 C97 1.351 . S
C96 H113 0.930 . S
C97 N93 1.389 . S
C97 C96 1.351 . S
C97 H102 0.930 . S
O98 Cu92 1.974 . S
O98 C108 1.282 . S
C99 O100 1.261 . S
C99 O112 1.251 . S
O100 C99 1.261 . S
H101 C95 0.930 . S
H102 C97 0.930 . S
N103 Cu92 1.985 . S
N103 C105 1.335 . S
N103 C106 1.390 . S
N104 C105 1.345 . S
N104 C107 1.336 . S
C105 N103 1.335 . S
C105 N104 1.345 . S
C105 H110 0.930 . S
C106 N103 1.390 . S
C106 C107 1.346 . S
C106 H111 0.930 . S
C107 N104 1.336 . S
C107 C106 1.346 . S
C107 H114 0.929 . S
C108 O98 1.282 . S
C108 O109 1.216 . S
O109 C108 1.216 . S
H110 C105 0.930 . S
H111 C106 0.930 . S
O112 Cu92 1.959 1_545 S
O112 C99 1.251 . S
H113 C96 0.930 . S
H114 C107 0.929 . S
Cu115 N116 1.999 . S
Cu115 O121 1.974 . S
Cu115 N126 1.985 . S
Cu115 O135 1.959 . S
N116 Cu115 1.999 . S
N116 C118 1.263 . S
N116 C120 1.389 . S
N117 C118 1.358 . S
N117 C119 1.400 . S
C118 N116 1.263 . S
C118 N117 1.358 . S
C118 H124 0.930 . S
C119 N117 1.400 . S
C119 C120 1.351 . S
C119 H136 0.930 . S
C120 N116 1.389 . S
C120 C119 1.351 . S
C120 H125 0.930 . S
O121 Cu115 1.974 . S
O121 C131 1.282 . S
C122 O123 1.260 1_545 S
C122 O135 1.251 1_545 S
O123 C122 1.260 1_565 S
H124 C118 0.930 . S
H125 C120 0.930 . S
N126 Cu115 1.985 . S
N126 C128 1.335 1_565 S
N126 C129 1.390 . S
N127 C128 1.345 . S
N127 C130 1.336 . S
C128 N126 1.335 1_545 S
C128 N127 1.345 . S
C128 H133 0.930 . S
C129 N126 1.390 . S
C129 C130 1.346 1_565 S
C129 H134 0.930 . S
C130 N127 1.336 . S
C130 C129 1.346 1_545 S
C130 H137 0.929 . S
C131 O121 1.282 . S
C131 O132 1.216 . S
O132 C131 1.216 . S
H133 C128 0.930 . S
H134 C129 0.930 . S
O135 Cu115 1.959 . S
O135 C122 1.251 1_565 S
H136 C119 0.930 . S
H137 C130 0.929 . S
Cu138 N139 1.999 . S
Cu138 O144 1.974 . S
Cu138 N149 1.985 . S
Cu138 O158 1.959 . S
N139 Cu138 1.999 . S
N139 C141 1.263 1_545 S
N139 C143 1.389 1_545 S
N140 C141 1.358 . S
N140 C142 1.400 . S
C141 N139 1.263 1_565 S
C141 N140 1.358 . S
C141 H147 0.930 . S
C142 N140 1.400 . S
C142 C143 1.351 . S
C142 H159 0.930 . S
C143 N139 1.389 1_565 S
C143 C142 1.351 . S
C143 H148 0.931 . S
O144 Cu138 1.974 . S
O144 C154 1.282 . S
C145 O146 1.261 . S
C145 O158 1.251 1_565 S
O146 C145 1.261 . S
H147 C141 0.930 . S
H148 C143 0.931 . S
N149 Cu138 1.985 . S
N149 C151 1.335 . S
N149 C152 1.390 . S
N150 C151 1.345 . S
N150 C153 1.336 . S
C151 N149 1.335 . S
C151 N150 1.345 . S
C151 H156 0.930 . S
C152 N149 1.390 . S
C152 C153 1.346 . S
C152 H157 0.930 . S
C153 N150 1.336 . S
C153 C152 1.346 . S
C153 H160 0.929 . S
C154 O144 1.282 . S
C154 O155 1.216 . S
O155 C154 1.216 . S
H156 C151 0.930 . S
H157 C152 0.930 . S
O158 Cu138 1.959 . S
O158 C145 1.251 1_545 S
H159 C142 0.930 . S
H160 C153 0.929 . S
Cu161 N162 1.999 . S
Cu161 O167 1.974 1_556 S
Cu161 N172 1.985 1_556 S
Cu161 O181 1.959 . S
N162 Cu161 1.999 . S
N162 C164 1.263 . S
N162 C166 1.389 . S
N163 C164 1.358 . S
N163 C165 1.400 . S
C164 N162 1.263 . S
C164 N163 1.358 . S
C164 H170 0.930 . S
C165 N163 1.400 . S
C165 C166 1.351 . S
C165 H182 0.930 . S
C166 N162 1.389 . S
C166 C165 1.351 . S
C166 H171 0.930 . S
O167 Cu161 1.974 1_554 S
O167 C177 1.282 . S
C168 O169 1.261 1_556 S
C168 O181 1.251 . S
O169 C168 1.261 1_554 S
H170 C164 0.930 . S
H171 C166 0.930 . S
N172 Cu161 1.985 1_554 S
N172 C174 1.335 . S
N172 C175 1.390 . S
N173 C174 1.345 . S
N173 C176 1.336 . S
C174 N172 1.335 . S
C174 N173 1.345 . S
C174 H179 0.928 1_554 S
C175 N172 1.390 . S
C175 C176 1.346 . S
C175 H180 0.930 . S
C176 N173 1.336 . S
C176 C175 1.346 . S
C176 H183 0.929 . S
C177 O167 1.282 . S
C177 O178 1.216 . S
O178 C177 1.216 . S
H179 C174 0.928 1_556 S
H180 C175 0.930 . S
O181 Cu161 1.959 . S
O181 C168 1.251 . S
H182 C165 0.930 . S
H183 C176 0.929 . S
Cu184 N185 1.999 . S
Cu184 O190 1.974 1_556 S
Cu184 N195 1.985 1_556 S
Cu184 O204 1.959 . S
N185 Cu184 1.999 . S
N185 C187 1.263 . S
N185 C189 1.389 . S
N186 C187 1.358 . S
N186 C188 1.400 . S
C187 N185 1.263 . S
C187 N186 1.358 . S
C187 H193 0.930 . S
C188 N186 1.400 . S
C188 C189 1.351 . S
C188 H205 0.930 . S
C189 N185 1.389 . S
C189 C188 1.351 . S
C189 H194 0.930 . S
O190 Cu184 1.974 1_554 S
O190 C200 1.282 . S
C191 O192 1.261 1_556 S
C191 O204 1.251 . S
O192 C191 1.261 1_554 S
H193 C187 0.930 . S
H194 C189 0.930 . S
N195 Cu184 1.985 1_554 S
N195 C197 1.335 . S
N195 C198 1.390 . S
N196 C197 1.345 . S
N196 C199 1.336 . S
C197 N195 1.335 . S
C197 N196 1.345 . S
C197 H202 0.930 1_554 S
C198 N195 1.390 . S
C198 C199 1.346 . S
C198 H203 0.930 . S
C199 N196 1.336 . S
C199 C198 1.346 . S
C199 H206 0.929 . S
C200 O190 1.282 . S
C200 O201 1.216 . S
O201 C200 1.216 . S
H202 C197 0.930 1_556 S
H203 C198 0.930 . S
O204 Cu184 1.959 . S
O204 C191 1.251 . S
H205 C188 0.930 . S
H206 C199 0.929 . S
Cu207 N208 1.999 . S
Cu207 O213 1.974 . S
Cu207 N218 1.985 . S
Cu207 O227 1.959 . S
N208 Cu207 1.999 . S
N208 C210 1.263 . S
N208 C212 1.389 . S
N209 C210 1.358 1_455 S
N209 C211 1.400 1_455 S
C210 N208 1.263 . S
C210 N209 1.358 1_655 S
C210 H216 0.930 . S
C211 N209 1.400 1_655 S
C211 C212 1.351 . S
C211 H228 0.930 . S
C212 N208 1.389 . S
C212 C211 1.351 . S
C212 H217 0.930 . S
O213 Cu207 1.974 . S
O213 C223 1.282 . S
C214 O215 1.261 . S
C214 O227 1.251 . S
O215 C214 1.261 . S
H216 C210 0.930 . S
H217 C212 0.930 . S
N218 Cu207 1.985 . S
N218 C220 1.335 . S
N218 C221 1.390 . S
N219 C220 1.345 . S
N219 C222 1.336 . S
C220 N218 1.335 . S
C220 N219 1.345 . S
C220 H225 0.930 . S
C221 N218 1.390 . S
C221 C222 1.346 . S
C221 H226 0.930 . S
C222 N219 1.336 . S
C222 C221 1.346 . S
C222 H229 0.929 . S
C223 O213 1.282 . S
C223 O224 1.216 . S
O224 C223 1.216 . S
H225 C220 0.930 . S
H226 C221 0.930 . S
O227 Cu207 1.959 . S
O227 C214 1.251 . S
H228 C211 0.930 . S
H229 C222 0.929 . S
Cu230 N231 1.999 . S
Cu230 O236 1.974 . S
Cu230 N241 1.985 . S
Cu230 O250 1.959 . S
N231 Cu230 1.999 . S
N231 C233 1.263 . S
N231 C235 1.389 . S
N232 C233 1.358 . S
N232 C234 1.400 . S
C233 N231 1.263 . S
C233 N232 1.358 . S
C233 H239 0.930 . S
C234 N232 1.400 . S
C234 C235 1.351 . S
C234 H251 0.930 . S
C235 N231 1.389 . S
C235 C234 1.351 . S
C235 H240 0.930 . S
O236 Cu230 1.974 . S
O236 C246 1.282 . S
C237 O238 1.261 . S
C237 O250 1.251 . S
O238 C237 1.261 . S
H239 C233 0.930 . S
H240 C235 0.930 . S
N241 Cu230 1.985 . S
N241 C243 1.335 . S
N241 C244 1.390 . S
N242 C243 1.345 . S
N242 C245 1.336 . S
C243 N241 1.335 . S
C243 N242 1.345 . S
C243 H248 0.930 . S
C244 N241 1.390 . S
C244 C245 1.346 . S
C244 H249 0.930 . S
C245 N242 1.336 . S
C245 C244 1.346 . S
C245 H252 0.929 . S
C246 O236 1.282 . S
C246 O247 1.216 . S
O247 C246 1.216 . S
H248 C243 0.930 . S
H249 C244 0.930 . S
O250 Cu230 1.959 . S
O250 C237 1.251 . S
H251 C234 0.930 . S
H252 C245 0.929 . S
Cu253 N254 1.999 . S
Cu253 O259 1.974 . S
Cu253 N264 1.985 . S
Cu253 O273 1.959 . S
N254 Cu253 1.999 . S
N254 C256 1.263 . S
N254 C258 1.389 . S
N255 C256 1.358 . S
N255 C257 1.400 . S
C256 N254 1.263 . S
C256 N255 1.358 . S
C256 H262 0.930 . S
C257 N255 1.400 . S
C257 C258 1.351 . S
C257 H274 0.930 . S
C258 N254 1.389 . S
C258 C257 1.351 . S
C258 H263 0.930 . S
O259 Cu253 1.974 . S
O259 C269 1.282 . S
C260 O261 1.261 . S
C260 O273 1.251 . S
O261 C260 1.261 . S
H262 C256 0.930 . S
H263 C258 0.930 . S
N264 Cu253 1.985 . S
N264 C266 1.335 . S
N264 C267 1.390 . S
N265 C266 1.345 . S
N265 C268 1.336 . S
C266 N264 1.335 . S
C266 N265 1.345 . S
C266 H271 0.930 . S
C267 N264 1.390 . S
C267 C268 1.346 . S
C267 H272 0.930 . S
C268 N265 1.336 . S
C268 C267 1.346 . S
C268 H275 0.929 . S
C269 O259 1.282 . S
C269 O270 1.216 . S
O270 C269 1.216 . S
H271 C266 0.930 . S
H272 C267 0.930 . S
O273 Cu253 1.959 . S
O273 C260 1.251 . S
H274 C257 0.930 . S
H275 C268 0.929 . S
H276 C282 0.930 . S
H277 C285 0.932 . S
H278 C287 0.931 . S
H279 C289 0.930 . S
H280 C291 0.930 . S
H281 C293 0.931 . S
C282 H276 0.930 . S
C282 C283 1.380 . S
C282 C284 1.394 . S
C283 C282 1.380 . S
C283 C287 1.382 1_655 S
C284 C282 1.394 . S
C284 C285 1.400 . S
C285 H277 0.932 . S
C285 C284 1.400 . S
C285 C286 1.375 1_655 S
C286 C285 1.375 1_455 S
C286 C287 1.415 . S
C286 C288 1.501 . S
C287 H278 0.931 . S
C287 C283 1.382 1_455 S
C287 C286 1.415 . S
C288 C286 1.501 . S
C288 C289 1.384 . S
C288 C293 1.408 . S
C289 H279 0.930 . S
C289 C288 1.384 . S
C289 C290 1.389 . S
C290 C289 1.389 . S
C290 C291 1.405 . S
C291 H280 0.930 . S
C291 C290 1.405 . S
C291 C292 1.364 . S
C292 C291 1.364 . S
C292 C293 1.400 . S
C293 H281 0.931 . S
C293 C288 1.408 . S
C293 C292 1.400 . S
H294 C300 0.930 . S
H295 C303 0.931 . S
H296 C305 0.931 . S
H297 C307 0.930 . S
H298 C309 0.930 . S
H299 C311 0.931 . S
C300 H294 0.930 . S
C300 C301 1.380 . S
C300 C302 1.394 . S
C301 C300 1.380 . S
C301 C305 1.382 . S
C302 C300 1.394 . S
C302 C303 1.400 . S
C303 H295 0.931 . S
C303 C302 1.400 . S
C303 C304 1.375 . S
C304 C303 1.375 . S
C304 C305 1.415 . S
C304 C306 1.501 1_655 S
C305 H296 0.931 . S
C305 C301 1.382 . S
C305 C304 1.415 . S
C306 C304 1.501 1_455 S
C306 C307 1.384 . S
C306 C311 1.408 . S
C307 H297 0.930 . S
C307 C306 1.384 . S
C307 C308 1.389 . S
C308 C307 1.389 . S
C308 C309 1.405 . S
C309 H298 0.930 . S
C309 C308 1.405 . S
C309 C310 1.364 . S
C310 C309 1.364 . S
C310 C311 1.400 . S
C311 H299 0.931 . S
C311 C306 1.408 . S
C311 C310 1.400 . S
H312 C318 0.930 . S
H313 C321 0.931 . S
H314 C323 0.931 . S
H315 C325 0.930 . S
H316 C327 0.930 . S
H317 C329 0.931 . S
C318 H312 0.930 . S
C318 C319 1.380 . S
C318 C320 1.394 . S
C319 C318 1.380 . S
C319 C323 1.382 . S
C320 C318 1.394 . S
C320 C321 1.400 . S
C321 H313 0.931 . S
C321 C320 1.400 . S
C321 C322 1.375 . S
C322 C321 1.375 . S
C322 C323 1.415 . S
C322 C324 1.501 . S
C323 H314 0.931 . S
C323 C319 1.382 . S
C323 C322 1.415 . S
C324 C322 1.501 . S
C324 C325 1.384 . S
C324 C329 1.408 . S
C325 H315 0.930 . S
C325 C324 1.384 . S
C325 C326 1.389 . S
C326 C325 1.389 . S
C326 C327 1.405 . S
C327 H316 0.930 . S
C327 C326 1.405 . S
C327 C328 1.364 . S
C328 C327 1.364 . S
C328 C329 1.400 . S
C329 H317 0.931 . S
C329 C324 1.408 . S
C329 C328 1.400 . S
H330 C336 0.930 . S
H331 C339 0.931 . S
H332 C341 0.931 . S
H333 C343 0.930 . S
H334 C345 0.930 . S
H335 C347 0.931 . S
C336 H330 0.930 . S
C336 C337 1.380 . S
C336 C338 1.394 . S
C337 C336 1.380 . S
C337 C341 1.382 . S
C338 C336 1.394 . S
C338 C339 1.400 . S
C339 H331 0.931 . S
C339 C338 1.400 . S
C339 C340 1.375 . S
C340 C339 1.375 . S
C340 C341 1.415 . S
C340 C342 1.501 . S
C341 H332 0.931 . S
C341 C337 1.382 . S
C341 C340 1.415 . S
C342 C340 1.501 . S
C342 C343 1.384 . S
C342 C347 1.408 . S
C343 H333 0.930 . S
C343 C342 1.384 . S
C343 C344 1.389 . S
C344 C343 1.389 . S
C344 C345 1.405 . S
C345 H334 0.930 . S
C345 C344 1.405 . S
C345 C346 1.364 . S
C346 C345 1.364 . S
C346 C347 1.400 . S
C347 H335 0.931 . S
C347 C342 1.408 . S
C347 C346 1.400 . S
H348 C354 0.930 . S
H349 C357 0.931 . S
H350 C359 0.931 . S
H351 C361 0.930 . S
H352 C363 0.930 . S
H353 C365 0.931 . S
C354 H348 0.930 . S
C354 C355 1.380 1_565 S
C354 C356 1.394 1_565 S
C355 C354 1.380 1_545 S
C355 C359 1.382 . S
C356 C354 1.394 1_545 S
C356 C357 1.400 . S
C357 H349 0.931 . S
C357 C356 1.400 . S
C357 C358 1.375 . S
C358 C357 1.375 . S
C358 C359 1.415 . S
C358 C360 1.501 . S
C359 H350 0.931 . S
C359 C355 1.382 . S
C359 C358 1.415 . S
C360 C358 1.501 . S
C360 C361 1.384 . S
C360 C365 1.408 . S
C361 H351 0.930 . S
C361 C360 1.384 . S
C361 C362 1.389 . S
C362 C361 1.389 . S
C362 C363 1.405 . S
C363 H352 0.930 . S
C363 C362 1.405 . S
C363 C364 1.364 . S
C364 C363 1.364 . S
C364 C365 1.400 . S
C365 H353 0.931 . S
C365 C360 1.408 . S
C365 C364 1.400 . S
H366 C372 0.930 . S
H367 C375 0.931 . S
H368 C377 0.931 . S
H369 C379 0.930 . S
H370 C381 0.930 . S
H371 C383 0.931 . S
C372 H366 0.930 . S
C372 C373 1.380 . S
C372 C374 1.394 . S
C373 C372 1.380 . S
C373 C377 1.382 . S
C374 C372 1.394 . S
C374 C375 1.400 . S
C375 H367 0.931 . S
C375 C374 1.400 . S
C375 C376 1.375 . S
C376 C375 1.375 . S
C376 C377 1.415 . S
C376 C378 1.501 . S
C377 H368 0.931 . S
C377 C373 1.382 . S
C377 C376 1.415 . S
C378 C376 1.501 . S
C378 C379 1.384 . S
C378 C383 1.408 . S
C379 H369 0.930 . S
C379 C378 1.384 . S
C379 C380 1.389 . S
C380 C379 1.389 . S
C380 C381 1.405 . S
C381 H370 0.930 . S
C381 C380 1.405 . S
C381 C382 1.364 . S
C382 C381 1.364 . S
C382 C383 1.400 . S
C383 H371 0.931 . S
C383 C378 1.408 . S
C383 C382 1.400 . S
H384 C390 0.930 . S
H385 C393 0.931 . S
H386 C395 0.931 . S
H387 C397 0.930 . S
H388 C399 0.930 . S
H389 C401 0.931 1_545 S
C390 H384 0.930 . S
C390 C391 1.380 . S
C390 C392 1.394 . S
C391 C390 1.380 . S
C391 C395 1.382 . S
C392 C390 1.394 . S
C392 C393 1.400 . S
C393 H385 0.931 . S
C393 C392 1.400 . S
C393 C394 1.375 . S
C394 C393 1.375 . S
C394 C395 1.415 . S
C394 C396 1.501 . S
C395 H386 0.931 . S
C395 C391 1.382 . S
C395 C394 1.415 . S
C396 C394 1.501 . S
C396 C397 1.384 . S
C396 C401 1.408 1_545 S
C397 H387 0.930 . S
C397 C396 1.384 . S
C397 C398 1.389 1_545 S
C398 C397 1.389 1_565 S
C398 C399 1.405 . S
C399 H388 0.930 . S
C399 C398 1.405 . S
C399 C400 1.364 . S
C400 C399 1.364 . S
C400 C401 1.400 . S
C401 H389 0.931 1_565 S
C401 C396 1.408 1_565 S
C401 C400 1.400 . S
H402 C408 0.930 . S
H403 C411 0.931 1_554 S
H404 C413 0.931 . S
H405 C415 0.930 . S
H406 C417 0.930 . S
H407 C419 0.931 . S
C408 H402 0.930 . S
C408 C409 1.380 . S
C408 C410 1.394 . S
C409 C408 1.380 . S
C409 C413 1.382 . S
C410 C408 1.394 . S
C410 C411 1.400 . S
C411 H403 0.931 1_556 S
C411 C410 1.400 . S
C411 C412 1.375 1_556 S
C412 C411 1.375 1_554 S
C412 C413 1.415 1_554 S
C412 C414 1.501 . S
C413 H404 0.931 . S
C413 C409 1.382 . S
C413 C412 1.415 1_556 S
C414 C412 1.501 . S
C414 C415 1.384 . S
C414 C419 1.408 . S
C415 H405 0.930 . S
C415 C414 1.384 . S
C415 C416 1.389 . S
C416 C415 1.389 . S
C416 C417 1.405 . S
C417 H406 0.930 . S
C417 C416 1.405 . S
C417 C418 1.364 . S
C418 C417 1.364 . S
C418 C419 1.400 . S
C419 H407 0.931 . S
C419 C414 1.408 . S
C419 C418 1.400 . S
H420 C426 0.930 . S
H421 C429 0.931 1_554 S
H422 C431 0.931 . S
H423 C433 0.930 . S
H424 C435 0.930 . S
H425 C437 0.931 . S
C426 H420 0.930 . S
C426 C427 1.380 . S
C426 C428 1.394 . S
C427 C426 1.380 . S
C427 C431 1.382 . S
C428 C426 1.394 . S
C428 C429 1.400 . S
C429 H421 0.931 1_556 S
C429 C428 1.400 . S
C429 C430 1.375 1_556 S
C430 C429 1.375 1_554 S
C430 C431 1.415 1_554 S
C430 C432 1.501 . S
C431 H422 0.931 . S
C431 C427 1.382 . S
C431 C430 1.415 1_556 S
C432 C430 1.501 . S
C432 C433 1.384 . S
C432 C437 1.408 . S
C433 H423 0.930 . S
C433 C432 1.384 . S
C433 C434 1.389 . S
C434 C433 1.389 . S
C434 C435 1.405 . S
C435 H424 0.930 . S
C435 C434 1.405 . S
C435 C436 1.364 . S
C436 C435 1.364 . S
C436 C437 1.400 . S
C437 H425 0.931 . S
C437 C432 1.408 . S
C437 C436 1.400 . S
H438 C444 0.930 . S
H439 C447 0.931 . S
H440 C449 0.931 . S
H441 C451 0.930 . S
H442 C453 0.930 . S
H443 C455 0.931 . S
C444 H438 0.930 . S
C444 C445 1.380 . S
C444 C446 1.394 . S
C445 C444 1.380 . S
C445 C449 1.382 . S
C446 C444 1.394 . S
C446 C447 1.400 . S
C447 H439 0.931 . S
C447 C446 1.400 . S
C447 C448 1.375 . S
C448 C447 1.375 . S
C448 C449 1.415 . S
C448 C450 1.501 . S
C449 H440 0.931 . S
C449 C445 1.382 . S
C449 C448 1.415 . S
C450 C448 1.501 . S
C450 C451 1.384 . S
C450 C455 1.408 . S
C451 H441 0.930 . S
C451 C450 1.384 . S
C451 C452 1.389 . S
C452 C451 1.389 . S
C452 C453 1.405 . S
C453 H442 0.930 . S
C453 C452 1.405 . S
C453 C454 1.364 . S
C454 C453 1.364 . S
C454 C455 1.400 . S
C455 H443 0.931 . S
C455 C450 1.408 . S
C455 C454 1.400 . S
H456 C462 0.930 . S
H457 C465 0.931 . S
H458 C467 0.931 . S
H459 C469 0.930 . S
H460 C471 0.930 . S
H461 C473 0.931 . S
C462 H456 0.930 . S
C462 C463 1.380 . S
C462 C464 1.394 . S
C463 C462 1.380 . S
C463 C467 1.382 . S
C464 C462 1.394 . S
C464 C465 1.400 . S
C465 H457 0.931 . S
C465 C464 1.400 . S
C465 C466 1.375 . S
C466 C465 1.375 . S
C466 C467 1.415 . S
C466 C468 1.501 . S
C467 H458 0.931 . S
C467 C463 1.382 . S
C467 C466 1.415 . S
C468 C466 1.501 . S
C468 C469 1.384 . S
C468 C473 1.408 . S
C469 H459 0.930 . S
C469 C468 1.384 . S
C469 C470 1.389 . S
C470 C469 1.389 . S
C470 C471 1.405 . S
C471 H460 0.930 . S
C471 C470 1.405 . S
C471 C472 1.364 . S
C472 C471 1.364 . S
C472 C473 1.400 . S
C473 H461 0.931 . S
C473 C468 1.408 . S
C473 C472 1.400 . S
H474 C480 0.930 . S
H475 C483 0.931 . S
H476 C485 0.931 . S
H477 C487 0.930 . S
H478 C489 0.930 . S
H479 C491 0.931 . S
C480 H474 0.930 . S
C480 C481 1.380 . S
C480 C482 1.394 . S
C481 C480 1.380 . S
C481 C485 1.382 . S
C482 C480 1.394 . S
C482 C483 1.400 . S
C483 H475 0.931 . S
C483 C482 1.400 . S
C483 C484 1.375 . S
C484 C483 1.375 . S
C484 C485 1.415 . S
C484 C486 1.501 . S
C485 H476 0.931 . S
C485 C481 1.382 . S
C485 C484 1.415 . S
C486 C484 1.501 . S
C486 C487 1.384 . S
C486 C491 1.408 . S
C487 H477 0.930 . S
C487 C486 1.384 . S
C487 C488 1.389 . S
C488 C487 1.389 . S
C488 C489 1.405 . S
C489 H478 0.930 . S
C489 C488 1.405 . S
C489 C490 1.364 . S
C490 C489 1.364 . S
C490 C491 1.400 . S
C491 H479 0.931 . S
C491 C486 1.408 . S
C491 C490 1.400 . S
C492 C493 1.363 . S
C492 C498 1.379 . S
C492 N500 1.356 1_556 S
C493 C492 1.363 . S
C493 C499 1.363 . S
C494 C495 1.363 . S
C494 C499 1.379 . S
C494 N501 1.356 . S
C495 C494 1.363 . S
C495 C498 1.363 . S
N496 C498 1.356 . S
N496 H508 0.984 . S
N496 H509 0.985 . S
N497 C499 1.356 . S
N497 H502 0.984 . S
N497 H503 0.985 . S
C498 C492 1.379 . S
C498 C495 1.363 . S
C498 N496 1.356 . S
C499 C493 1.363 . S
C499 C494 1.379 . S
C499 N497 1.356 . S
N500 C492 1.356 1_554 S
N500 H506 0.984 . S
N500 H507 0.984 . S
N501 C494 1.356 . S
N501 H504 0.984 . S
N501 H505 0.985 . S
H502 N497 0.984 . S
H503 N497 0.985 . S
H504 N501 0.984 . S
H505 N501 0.985 . S
H506 N500 0.984 . S
H507 N500 0.984 . S
H508 N496 0.984 . S
H509 N496 0.985 . S
C510 C511 1.363 . S
C510 C516 1.379 . S
C510 N518 1.356 . S
C511 C510 1.363 . S
C511 C517 1.363 . S
C512 C513 1.363 . S
C512 C517 1.379 . S
C512 N519 1.356 . S
C513 C512 1.363 . S
C513 C516 1.363 . S
N514 C516 1.356 . S
N514 H526 0.984 . S
N514 H527 0.985 . S
N515 C517 1.356 . S
N515 H520 0.984 . S
N515 H521 0.985 . S
C516 C510 1.379 . S
C516 C513 1.363 . S
C516 N514 1.356 . S
C517 C511 1.363 . S
C517 C512 1.379 . S
C517 N515 1.356 . S
N518 C510 1.356 . S
N518 H524 0.984 . S
N518 H525 0.984 . S
N519 C512 1.356 . S
N519 H522 0.984 . S
N519 H523 0.985 . S
H520 N515 0.984 . S
H521 N515 0.985 . S
H522 N519 0.984 . S
H523 N519 0.985 . S
H524 N518 0.984 . S
H525 N518 0.984 . S
H526 N514 0.984 . S
H527 N514 0.985 . S
C528 C529 1.363 . S
C528 C534 1.379 . S
C528 N536 1.356 . S
C529 C528 1.363 . S
C529 C535 1.363 . S
C530 C531 1.363 . S
C530 C535 1.379 . S
C530 N537 1.356 . S
C531 C530 1.363 . S
C531 C534 1.363 . S
N532 C534 1.356 . S
N532 H544 0.984 . S
N532 H545 0.985 . S
N533 C535 1.356 . S
N533 H538 0.984 . S
N533 H539 0.985 . S
C534 C528 1.379 . S
C534 C531 1.363 . S
C534 N532 1.356 . S
C535 C529 1.363 . S
C535 C530 1.379 . S
C535 N533 1.356 . S
N536 C528 1.356 . S
N536 H542 0.984 . S
N536 H543 0.984 . S
N537 C530 1.356 . S
N537 H540 0.984 . S
N537 H541 0.985 . S
H538 N533 0.984 . S
H539 N533 0.985 . S
H540 N537 0.984 . S
H541 N537 0.985 . S
H542 N536 0.984 . S
H543 N536 0.984 . S
H544 N532 0.984 . S
H545 N532 0.985 . S
C546 C547 1.363 . S
C546 C552 1.379 . S
C546 N554 1.356 . S
C547 C546 1.363 . S
C547 C553 1.363 . S
C548 C549 1.363 . S
C548 C553 1.379 . S
C548 N555 1.356 . S
C549 C548 1.363 . S
C549 C552 1.363 . S
N550 C552 1.356 . S
N550 H562 0.984 . S
N550 H563 0.985 . S
N551 C553 1.356 . S
N551 H556 0.984 . S
N551 H557 0.985 . S
C552 C546 1.379 . S
C552 C549 1.363 . S
C552 N550 1.356 . S
C553 C547 1.363 . S
C553 C548 1.379 . S
C553 N551 1.356 . S
N554 C546 1.356 . S
N554 H560 0.984 . S
N554 H561 0.984 . S
N555 C548 1.356 . S
N555 H558 0.984 . S
N555 H559 0.985 . S
H556 N551 0.984 . S
H557 N551 0.985 . S
H558 N555 0.984 . S
H559 N555 0.985 . S
H560 N554 0.984 . S
H561 N554 0.984 . S
H562 N550 0.984 . S
H563 N550 0.985 . S
C564 C565 1.363 . S
C564 C570 1.379 . S
C564 N572 1.356 . S
C565 C564 1.363 . S
C565 C571 1.363 . S
C566 C567 1.363 . S
C566 C571 1.379 . S
C566 N573 1.356 . S
C567 C566 1.363 . S
C567 C570 1.363 . S
N568 C570 1.356 . S
N568 H580 0.984 1_455 S
N568 H581 0.985 . S
N569 C571 1.356 . S
N569 H574 0.984 . S
N569 H575 0.985 . S
C570 C564 1.379 . S
C570 C567 1.363 . S
C570 N568 1.356 . S
C571 C565 1.363 . S
C571 C566 1.379 . S
C571 N569 1.356 . S
N572 C564 1.356 . S
N572 H578 0.984 1_455 S
N572 H579 0.984 . S
N573 C566 1.356 . S
N573 H576 0.984 . S
N573 H577 0.985 . S
H574 N569 0.984 . S
H575 N569 0.985 . S
H576 N573 0.984 . S
H577 N573 0.985 . S
H578 N572 0.984 1_655 S
H579 N572 0.984 . S
H580 N568 0.984 1_655 S
H581 N568 0.985 . S
C582 C583 1.363 . S
C582 C588 1.379 . S
C582 N590 1.356 . S
C583 C582 1.363 . S
C583 C589 1.363 . S
C584 C585 1.363 . S
C584 C589 1.379 . S
C584 N591 1.356 . S
C585 C584 1.363 . S
C585 C588 1.363 . S
N586 C588 1.356 . S
N586 H598 0.984 . S
N586 H599 0.985 . S
N587 C589 1.356 . S
N587 H592 0.984 . S
N587 H593 0.985 . S
C588 C582 1.379 . S
C588 C585 1.363 . S
C588 N586 1.356 . S
C589 C583 1.363 . S
C589 C584 1.379 . S
C589 N587 1.356 . S
N590 C582 1.356 . S
N590 H596 0.984 . S
N590 H597 0.984 . S
N591 C584 1.356 . S
N591 H594 0.984 . S
N591 H595 0.985 . S
H592 N587 0.984 . S
H593 N587 0.985 . S
H594 N591 0.984 . S
H595 N591 0.985 . S
H596 N590 0.984 . S
H597 N590 0.984 . S
H598 N586 0.984 . S
H599 N586 0.985 . S
C600 C601 1.363 . S
C600 C606 1.379 . S
C600 N608 1.356 . S
C601 C600 1.363 . S
C601 C607 1.363 . S
C602 C603 1.363 . S
C602 C607 1.379 . S
C602 N609 1.356 . S
C603 C602 1.363 . S
C603 C606 1.363 . S
N604 C606 1.356 . S
N604 H616 0.984 . S
N604 H617 0.985 . S
N605 C607 1.356 . S
N605 H610 0.984 1_554 S
N605 H611 0.985 . S
C606 C600 1.379 . S
C606 C603 1.363 . S
C606 N604 1.356 . S
C607 C601 1.363 . S
C607 C602 1.379 . S
C607 N605 1.356 . S
N608 C600 1.356 . S
N608 H614 0.984 . S
N608 H615 0.984 . S
N609 C602 1.356 . S
N609 H612 0.984 . S
N609 H613 0.985 . S
H610 N605 0.984 1_556 S
H611 N605 0.985 . S
H612 N609 0.984 . S
H613 N609 0.985 . S
H614 N608 0.984 . S
H615 N608 0.984 . S
H616 N604 0.984 . S
H617 N604 0.985 . S
C618 C619 1.363 . S
C618 C624 1.379 . S
C618 N626 1.356 . S
C619 C618 1.363 . S
C619 C625 1.363 . S
C620 C621 1.363 . S
C620 C625 1.379 . S
C620 N627 1.356 . S
C621 C620 1.363 . S
C621 C624 1.363 . S
N622 C624 1.356 . S
N622 H634 0.984 . S
N622 H635 0.985 . S
N623 C625 1.356 . S
N623 H628 0.984 . S
N623 H629 0.985 . S
C624 C618 1.379 . S
C624 C621 1.363 . S
C624 N622 1.356 . S
C625 C619 1.363 . S
C625 C620 1.379 . S
C625 N623 1.356 . S
N626 C618 1.356 . S
N626 H632 0.984 . S
N626 H633 0.984 . S
N627 C620 1.356 . S
N627 H630 0.984 . S
N627 H631 0.985 . S
H628 N623 0.984 . S
H629 N623 0.985 . S
H630 N627 0.984 . S
H631 N627 0.985 . S
H632 N626 0.984 . S
H633 N626 0.984 . S
H634 N622 0.984 . S
H635 N622 0.985 . S
C636 C637 1.363 . S
C636 C642 1.379 . S
C636 N644 1.356 1_545 S
C637 C636 1.363 . S
C637 C643 1.363 . S
C638 C639 1.363 . S
C638 C643 1.379 . S
C638 N645 1.356 . S
C639 C638 1.363 . S
C639 C642 1.363 . S
N640 C642 1.356 1_565 S
N640 H652 0.984 . S
N640 H653 0.985 . S
N641 C643 1.343 1_455 S
N641 H646 0.999 . S
N641 H647 0.983 . S
C642 C636 1.379 . S
C642 C639 1.363 . S
C642 N640 1.356 1_545 S
C643 C637 1.363 . S
C643 C638 1.379 . S
C643 N641 1.343 1_655 S
N644 C636 1.356 1_565 S
N644 H650 0.984 . S
N644 H651 0.984 1_565 S
N645 C638 1.356 . S
N645 H648 0.984 . S
N645 H649 0.985 . S
H646 N641 0.999 . S
H647 N641 0.983 . S
H648 N645 0.984 . S
H649 N645 0.985 . S
H650 N644 0.984 . S
H651 N644 0.984 1_545 S
H652 N640 0.984 . S
H653 N640 0.985 . S
C654 C655 1.363 . S
C654 C660 1.379 . S
C654 N662 1.356 . S
C655 C654 1.363 . S
C655 C661 1.363 . S
C656 C657 1.363 . S
C656 C661 1.379 . S
C656 N663 1.356 . S
C657 C656 1.363 . S
C657 C660 1.363 . S
N658 C660 1.356 . S
N658 H670 0.984 . S
N658 H671 0.985 . S
N659 C661 1.356 . S
N659 H664 0.984 . S
N659 H665 0.985 . S
C660 C654 1.379 . S
C660 C657 1.363 . S
C660 N658 1.356 . S
C661 C655 1.363 . S
C661 C656 1.379 . S
C661 N659 1.356 . S
N662 C654 1.356 . S
N662 H668 0.984 . S
N662 H669 0.984 . S
N663 C656 1.356 . S
N663 H666 0.984 . S
N663 H667 0.985 . S
H664 N659 0.984 . S
H665 N659 0.985 . S
H666 N663 0.984 . S
H667 N663 0.985 . S
H668 N662 0.984 . S
H669 N662 0.984 . S
H670 N658 0.984 . S
H671 N658 0.985 . S
C672 C673 1.363 . S
C672 C678 1.379 . S
C672 N680 1.356 1_565 S
C673 C672 1.363 . S
C673 C679 1.363 . S
C674 C675 1.363 . S
C674 C679 1.379 . S
C674 N681 1.356 . S
C675 C674 1.363 . S
C675 C678 1.363 . S
N676 C678 1.356 1_545 S
N676 H688 0.984 . S
N676 H689 0.985 . S
N677 C679 1.356 . S
N677 H682 0.984 . S
N677 H683 0.985 . S
C678 C672 1.379 . S
C678 C675 1.363 . S
C678 N676 1.356 1_565 S
C679 C673 1.363 . S
C679 C674 1.379 . S
C679 N677 1.356 . S
N680 C672 1.356 1_545 S
N680 H686 0.984 . S
N680 H687 0.984 . S
N681 C674 1.356 . S
N681 H684 0.984 . S
N681 H685 0.985 . S
H682 N677 0.984 . S
H683 N677 0.985 . S
H684 N681 0.984 . S
H685 N681 0.985 . S
H686 N680 0.984 . S
H687 N680 0.984 . S
H688 N676 0.984 . S
H689 N676 0.985 . S
C690 C691 1.363 . S
C690 C696 1.379 . S
C690 N698 1.356 . S
C691 C690 1.363 . S
C691 C697 1.363 . S
C692 C693 1.363 . S
C692 C697 1.379 . S
C692 N699 1.356 . S
C693 C692 1.363 . S
C693 C696 1.363 . S
N694 C696 1.356 . S
N694 H706 0.984 . S
N694 H707 0.985 . S
N695 C697 1.356 . S
N695 H700 0.984 . S
N695 H701 0.985 1_554 S
C696 C690 1.379 . S
C696 C693 1.363 . S
C696 N694 1.356 . S
C697 C691 1.363 . S
C697 C692 1.379 . S
C697 N695 1.356 . S
N698 C690 1.356 . S
N698 H704 0.984 . S
N698 H705 0.984 . S
N699 C692 1.356 . S
N699 H702 0.984 . S
N699 H703 0.985 . S
H700 N695 0.984 . S
H701 N695 0.985 1_556 S
H702 N699 0.984 . S
H703 N699 0.985 . S
H704 N698 0.984 . S
H705 N698 0.984 . S
H706 N694 0.984 . S
H707 N694 0.985 . S
C708 C709 1.363 1_655 S
C708 C714 1.379 . S
C708 N716 1.356 1_655 S
C709 C708 1.363 1_455 S
C709 C715 1.363 1_455 S
C710 C711 1.363 . S
C710 C715 1.379 . S
C710 N717 1.356 . S
C711 C710 1.363 . S
C711 C714 1.363 . S
N712 C714 1.356 . S
N712 H724 0.984 . S
N712 H725 0.985 . S
N713 C715 1.356 . S
N713 H718 0.984 1_655 S
N713 H719 0.985 1_565 S
C714 C708 1.379 . S
C714 C711 1.363 . S
C714 N712 1.356 . S
C715 C709 1.363 1_655 S
C715 C710 1.379 . S
C715 N713 1.356 . S
N716 C708 1.356 1_455 S
N716 H722 0.984 . S
N716 H723 0.984 . S
N717 C710 1.356 . S
N717 H720 0.984 . S
N717 H721 0.985 1_565 S
H718 N713 0.984 1_455 S
H719 N713 0.985 1_545 S
H720 N717 0.984 . S
H721 N717 0.985 1_545 S
H722 N716 0.984 . S
H723 N716 0.984 . S
H724 N712 0.984 . S
H725 N712 0.985 . S
C726 C727 1.363 . S
C726 C732 1.379 . S
C726 N734 1.356 . S
C727 C726 1.363 . S
C727 C733 1.363 . S
C728 C729 1.363 . S
C728 C733 1.379 . S
C728 N735 1.356 . S
C729 C728 1.363 . S
C729 C732 1.363 . S
N730 C732 1.356 . S
N730 H742 0.984 . S
N730 H743 0.985 . S
N731 C733 1.356 . S
N731 H736 0.984 . S
N731 H737 0.985 . S
C732 C726 1.379 . S
C732 C729 1.363 . S
C732 N730 1.356 . S
C733 C727 1.363 . S
C733 C728 1.379 . S
C733 N731 1.356 . S
N734 C726 1.356 . S
N734 H740 0.984 . S
N734 H741 0.984 . S
N735 C728 1.356 . S
N735 H738 0.984 . S
N735 H739 0.985 . S
H736 N731 0.984 . S
H737 N731 0.985 . S
H738 N735 0.984 . S
H739 N735 0.985 . S
H740 N734 0.984 . S
H741 N734 0.984 . S
H742 N730 0.984 . S
H743 N730 0.985 . S
C744 C745 1.363 . S
C744 C750 1.379 . S
C744 N752 1.356 . S
C745 C744 1.363 . S
C745 C751 1.363 . S
C746 C747 1.363 . S
C746 C751 1.379 . S
C746 N753 1.356 1_545 S
C747 C746 1.363 . S
C747 C750 1.363 . S
N748 C750 1.356 . S
N748 H760 0.984 . S
N748 H761 0.985 . S
N749 C751 1.356 . S
N749 H754 0.984 . S
N749 H755 0.985 1_545 S
C750 C744 1.379 . S
C750 C747 1.363 . S
C750 N748 1.356 . S
C751 C745 1.363 . S
C751 C746 1.379 . S
C751 N749 1.356 . S
N752 C744 1.356 . S
N752 H758 0.984 . S
N752 H759 0.984 . S
N753 C746 1.356 1_565 S
N753 H756 0.984 . S
N753 H757 0.985 . S
H754 N749 0.984 . S
H755 N749 0.985 1_565 S
H756 N753 0.984 . S
H757 N753 0.985 . S
H758 N752 0.984 . S
H759 N752 0.984 . S
H760 N748 0.984 . S
H761 N748 0.985 . S
C762 C763 1.363 . S
C762 C768 1.379 . S
C762 N770 1.356 . S
C763 C762 1.363 . S
C763 C769 1.363 . S
C764 C765 1.363 . S
C764 C769 1.379 . S
C764 N771 1.356 . S
C765 C764 1.363 . S
C765 C768 1.363 . S
N766 C768 1.356 . S
N766 H778 0.984 . S
N766 H779 0.985 . S
N767 C769 1.356 . S
N767 H772 0.984 . S
N767 H773 0.985 . S
C768 C762 1.379 . S
C768 C765 1.363 . S
C768 N766 1.356 . S
C769 C763 1.363 . S
C769 C764 1.379 . S
C769 N767 1.356 . S
N770 C762 1.356 . S
N770 H776 0.984 . S
N770 H777 0.984 . S
N771 C764 1.356 . S
N771 H774 0.984 . S
N771 H775 0.985 . S
H772 N767 0.984 . S
H773 N767 0.985 . S
H774 N771 0.984 . S
H775 N771 0.985 . S
H776 N770 0.984 . S
H777 N770 0.984 . S
H778 N766 0.984 . S
H779 N766 0.985 . S
C780 C781 1.363 . S
C780 C786 1.379 1_545 S
C780 N788 1.356 . S
C781 C780 1.363 . S
C781 C787 1.363 1_545 S
C782 C783 1.363 . S
C782 C787 1.379 . S
C782 N789 1.356 . S
C783 C782 1.363 . S
C783 C786 1.363 . S
N784 C786 1.356 . S
N784 H796 0.984 . S
N784 H797 0.985 . S
N785 C787 1.356 . S
N785 H790 0.984 1_565 S
N785 H791 0.985 1_554 S
C786 C780 1.379 1_565 S
C786 C783 1.363 . S
C786 N784 1.356 . S
C787 C781 1.363 1_565 S
C787 C782 1.379 . S
C787 N785 1.356 . S
N788 C780 1.356 . S
N788 H794 0.984 . S
N788 H795 0.984 . S
N789 C782 1.356 . S
N789 H792 0.984 . S
N789 H793 0.985 1_554 S
H790 N785 0.984 1_545 S
H791 N785 0.985 1_556 S
H792 N789 0.984 . S
H793 N789 0.985 1_556 S
H794 N788 0.984 . S
H795 N788 0.984 . S
H796 N784 0.984 . S
H797 N784 0.985 . S
C798 C799 1.363 1_554 S
C798 C804 1.379 . S
C798 N806 1.356 . S
C799 C798 1.363 1_556 S
C799 C805 1.363 . S
C800 C801 1.363 . S
C800 C805 1.379 . S
C800 N807 1.356 . S
C801 C800 1.363 . S
C801 C804 1.363 1_556 S
N802 C804 1.356 . S
N802 H814 0.984 . S
N802 H815 0.985 . S
N803 C805 1.356 . S
N803 H808 0.984 . S
N803 H809 0.985 . S
C804 C798 1.379 . S
C804 C801 1.363 1_554 S
C804 N802 1.356 . S
C805 C799 1.363 . S
C805 C800 1.379 . S
C805 N803 1.356 . S
N806 C798 1.356 . S
N806 H812 0.984 . S
N806 H813 0.984 . S
N807 C800 1.356 . S
N807 H810 0.984 . S
N807 H811 0.985 . S
H808 N803 0.984 . S
H809 N803 0.985 . S
H810 N807 0.984 . S
H811 N807 0.985 . S
H812 N806 0.984 . S
H813 N806 0.984 . S
H814 N802 0.984 . S
H815 N802 0.985 . S
C816 C817 1.363 . S
C816 C822 1.379 . S
C816 N824 1.356 . S
C817 C816 1.363 . S
C817 C823 1.363 . S
C818 C819 1.363 . S
C818 C823 1.379 . S
C818 N825 1.356 . S
C819 C818 1.363 . S
C819 C822 1.363 . S
N820 C822 1.356 . S
N820 H832 0.984 . S
N820 H833 0.985 . S
N821 C823 1.356 . S
N821 H826 0.984 . S
N821 H827 0.985 . S
C822 C816 1.379 . S
C822 C819 1.363 . S
C822 N820 1.356 . S
C823 C817 1.363 . S
C823 C818 1.379 . S
C823 N821 1.356 . S
N824 C816 1.356 . S
N824 H830 0.984 . S
N824 H831 0.984 . S
N825 C818 1.356 . S
N825 H828 0.984 . S
N825 H829 0.985 . S
H826 N821 0.984 . S
H827 N821 0.985 . S
H828 N825 0.984 . S
H829 N825 0.985 . S
H830 N824 0.984 . S
H831 N824 0.984 . S
H832 N820 0.984 . S
H833 N820 0.985 . S
C834 C835 1.363 . S
C834 C840 1.379 . S
C834 N842 1.356 . S
C835 C834 1.363 . S
C835 C841 1.363 . S
C836 C837 1.363 . S
C836 C841 1.379 . S
C836 N843 1.356 . S
C837 C836 1.363 . S
C837 C840 1.363 . S
N838 C840 1.356 . S
N838 H850 0.984 . S
N838 H851 0.985 . S
N839 C841 1.356 . S
N839 H844 0.984 . S
N839 H845 0.985 . S
C840 C834 1.379 . S
C840 C837 1.363 . S
C840 N838 1.356 . S
C841 C835 1.363 . S
C841 C836 1.379 . S
C841 N839 1.356 . S
N842 C834 1.356 . S
N842 H848 0.984 . S
N842 H849 0.984 . S
N843 C836 1.356 . S
N843 H846 0.984 . S
N843 H847 0.985 . S
H844 N839 0.984 . S
H845 N839 0.985 . S
H846 N843 0.984 . S
H847 N843 0.985 . S
H848 N842 0.984 . S
H849 N842 0.984 . S
H850 N838 0.984 . S
H851 N838 0.985 . S
C852 C853 1.363 . S
C852 C858 1.379 . S
C852 N860 1.356 . S
C853 C852 1.363 . S
C853 C859 1.363 . S
C854 C855 1.363 . S
C854 C859 1.379 . S
C854 N861 1.356 . S
C855 C854 1.363 . S
C855 C858 1.363 . S
N856 C858 1.356 . S
N856 H868 0.984 . S
N856 H869 0.985 . S
N857 C859 1.356 . S
N857 H862 0.984 . S
N857 H863 0.985 . S
C858 C852 1.379 . S
C858 C855 1.363 . S
C858 N856 1.356 . S
C859 C853 1.363 . S
C859 C854 1.379 . S
C859 N857 1.356 . S
N860 C852 1.356 . S
N860 H866 0.984 1_565 S
N860 H867 0.984 . S
N861 C854 1.356 . S
N861 H864 0.984 . S
N861 H865 0.985 . S
H862 N857 0.984 . S
H863 N857 0.985 . S
H864 N861 0.984 . S
H865 N861 0.985 . S
H866 N860 0.984 1_545 S
H867 N860 0.984 . S
H868 N856 0.984 . S
H869 N856 0.985 . S
C870 C871 1.363 . S
C870 C876 1.379 . S
C870 N878 1.356 . S
C871 C870 1.363 . S
C871 C877 1.363 . S
C872 C873 1.363 . S
C872 C877 1.379 . S
C872 N879 1.356 . S
C873 C872 1.363 . S
C873 C876 1.363 . S
N874 C876 1.356 . S
N874 H886 0.984 . S
N874 H887 0.985 . S
N875 C877 1.356 . S
N875 H880 0.984 . S
N875 H881 0.985 . S
C876 C870 1.379 . S
C876 C873 1.363 . S
C876 N874 1.356 . S
C877 C871 1.363 . S
C877 C872 1.379 . S
C877 N875 1.356 . S
N878 C870 1.356 . S
N878 H884 0.984 . S
N878 H885 0.984 . S
N879 C872 1.356 . S
N879 H882 0.984 . S
N879 H883 0.985 . S
H880 N875 0.984 . S
H881 N875 0.985 . S
H882 N879 0.984 . S
H883 N879 0.985 . S
H884 N878 0.984 . S
H885 N878 0.984 . S
H886 N874 0.984 . S
H887 N874 0.985 . S
C888 C889 1.363 . S
C888 C894 1.379 . S
C888 N896 1.356 . S
C889 C888 1.363 . S
C889 C895 1.363 . S
C890 C891 1.363 . S
C890 C895 1.379 . S
C890 N897 1.356 . S
C891 C890 1.363 . S
C891 C894 1.363 . S
N892 C894 1.356 . S
N892 H904 0.984 . S
N892 H905 0.985 . S
N893 C895 1.356 . S
N893 H898 0.984 . S
N893 H899 0.985 . S
C894 C888 1.379 . S
C894 C891 1.363 . S
C894 N892 1.356 . S
C895 C889 1.363 . S
C895 C890 1.379 . S
C895 N893 1.356 . S
N896 C888 1.356 . S
N896 H902 0.984 . S
N896 H903 0.984 . S
N897 C890 1.356 . S
N897 H900 0.984 . S
N897 H901 0.985 . S
H898 N893 0.984 . S
H899 N893 0.985 . S
H900 N897 0.984 . S
H901 N897 0.985 . S
H902 N896 0.984 . S
H903 N896 0.984 . S
H904 N892 0.984 . S
H905 N892 0.985 . S
C906 C907 1.363 . S
C906 C912 1.379 . S
C906 N914 1.356 . S
C907 C906 1.363 . S
C907 C913 1.363 . S
C908 C909 1.363 . S
C908 C913 1.379 . S
C908 N915 1.356 . S
C909 C908 1.363 . S
C909 C912 1.363 . S
N910 C912 1.356 . S
N910 H922 0.984 . S
N910 H923 0.985 . S
N911 C913 1.356 . S
N911 H916 0.984 . S
N911 H917 0.985 . S
C912 C906 1.379 . S
C912 C909 1.363 . S
C912 N910 1.356 . S
C913 C907 1.363 . S
C913 C908 1.379 . S
C913 N911 1.356 . S
N914 C906 1.356 . S
N914 H920 0.984 . S
N914 H921 0.984 . S
N915 C908 1.356 . S
N915 H918 0.984 . S
N915 H919 0.985 . S
H916 N911 0.984 . S
H917 N911 0.985 . S
H918 N915 0.984 . S
H919 N915 0.985 . S
H920 N914 0.984 . S
H921 N914 0.984 . S
H922 N910 0.984 . S
H923 N910 0.985 . S
C924 C925 1.363 . S
C924 C930 1.379 . S
C924 N932 1.356 . S
C925 C924 1.363 . S
C925 C931 1.363 . S
C926 C927 1.363 . S
C926 C931 1.379 . S
C926 N933 1.356 1_565 S
C927 C926 1.363 . S
C927 C930 1.363 . S
N928 C930 1.356 . S
N928 H940 0.984 . S
N928 H941 0.985 . S
N929 C931 1.356 . S
N929 H934 0.984 . S
N929 H935 0.985 . S
C930 C924 1.379 . S
C930 C927 1.363 . S
C930 N928 1.356 . S
C931 C925 1.363 . S
C931 C926 1.379 . S
C931 N929 1.356 . S
N932 C924 1.356 . S
N932 H938 0.984 . S
N932 H939 0.984 . S
N933 C926 1.356 1_545 S
N933 H936 0.984 . S
N933 H937 0.985 . S
H934 N929 0.984 . S
H935 N929 0.985 . S
H936 N933 0.984 . S
H937 N933 0.985 . S
H938 N932 0.984 . S
H939 N932 0.984 . S
H940 N928 0.984 . S
H941 N928 0.985 . S
C942 C943 1.363 . S
C942 C948 1.379 . S
C942 N950 1.356 . S
C943 C942 1.363 . S
C943 C949 1.363 . S
C944 C945 1.363 . S
C944 C949 1.379 . S
C944 N951 1.356 . S
C945 C944 1.363 . S
C945 C948 1.363 . S
N946 C948 1.356 . S
N946 H958 0.984 . S
N946 H959 0.985 . S
N947 C949 1.356 . S
N947 H952 0.984 . S
N947 H953 0.985 . S
C948 C942 1.379 . S
C948 C945 1.363 . S
C948 N946 1.356 . S
C949 C943 1.363 . S
C949 C944 1.379 . S
C949 N947 1.356 . S
N950 C942 1.356 . S
N950 H956 0.984 . S
N950 H957 0.984 . S
N951 C944 1.356 . S
N951 H954 0.984 . S
N951 H955 0.985 . S
H952 N947 0.984 . S
H953 N947 0.985 . S
H954 N951 0.984 . S
H955 N951 0.985 . S
H956 N950 0.984 . S
H957 N950 0.984 . S
H958 N946 0.984 . S
H959 N946 0.985 . S
C960 C961 1.363 . S
C960 C966 1.379 1_554 S
C960 N968 1.356 1_655 S
C961 C960 1.363 . S
C961 C967 1.363 1_554 S
C962 C963 1.363 . S
C962 C967 1.379 . S
C962 N969 1.356 . S
C963 C962 1.363 . S
C963 C966 1.363 . S
N964 C966 1.356 1_455 S
N964 H976 0.984 . S
N964 H977 0.985 1_455 S
N965 C967 1.356 . S
N965 H970 0.984 1_556 S
N965 H971 0.985 . S
C966 C960 1.379 1_556 S
C966 C963 1.363 . S
C966 N964 1.356 1_655 S
C967 C961 1.363 1_556 S
C967 C962 1.379 . S
C967 N965 1.356 . S
N968 C960 1.356 1_455 S
N968 H974 0.984 . S
N968 H975 0.984 1_455 S
N969 C962 1.356 . S
N969 H972 0.984 . S
N969 H973 0.985 . S
H970 N965 0.984 1_554 S
H971 N965 0.985 . S
H972 N969 0.984 . S
H973 N969 0.985 . S
H974 N968 0.984 . S
H975 N968 0.984 1_655 S
H976 N964 0.984 . S
H977 N964 0.985 1_655 S
C978 C979 1.363 . S
C978 C984 1.379 . S
C978 N986 1.356 . S
C979 C978 1.363 . S
C979 C985 1.363 . S
C980 C981 1.363 . S
C980 C985 1.379 . S
C980 N987 1.356 . S
C981 C980 1.363 . S
C981 C984 1.363 . S
N982 C984 1.356 . S
N982 H994 0.984 . S
N982 H995 0.985 . S
N983 C985 1.356 . S
N983 H988 0.984 . S
N983 H989 0.985 . S
C984 C978 1.379 . S
C984 C981 1.363 . S
C984 N982 1.356 . S
C985 C979 1.363 . S
C985 C980 1.379 . S
C985 N983 1.356 . S
N986 C978 1.356 . S
N986 H992 0.984 . S
N986 H993 0.984 . S
N987 C980 1.356 . S
N987 H990 0.984 . S
N987 H991 0.985 . S
H988 N983 0.984 . S
H989 N983 0.985 . S
H990 N987 0.984 . S
H991 N987 0.985 . S
H992 N986 0.984 . S
H993 N986 0.984 . S
H994 N982 0.984 . S
H995 N982 0.985 . S
C996 C997 1.363 . S
C996 C1002 1.379 . S
C996 N1004 1.356 . S
C997 C996 1.363 . S
C997 C1003 1.363 . S
C998 C999 1.363 . S
C998 C1003 1.379 . S
C998 N1005 1.356 . S
C999 C998 1.363 . S
C999 C1002 1.363 . S
N1000 C1002 1.356 . S
N1000 H1012 0.984 . S
N1000 H1013 0.985 . S
N1001 C1003 1.356 . S
N1001 H1006 0.984 . S
N1001 H1007 0.985 . S
C1002 C996 1.379 . S
C1002 C999 1.363 . S
C1002 N1000 1.356 . S
C1003 C997 1.363 . S
C1003 C998 1.379 . S
C1003 N1001 1.356 . S
N1004 C996 1.356 . S
N1004 H1010 0.985 . S
N1004 H1011 0.984 1_554 S
N1005 C998 1.356 . S
N1005 H1008 0.984 . S
N1005 H1009 0.985 . S
H1006 N1001 0.984 . S
H1007 N1001 0.985 . S
H1008 N1005 0.984 . S
H1009 N1005 0.985 . S
H1010 N1004 0.985 . S
H1011 N1004 0.984 1_556 S
H1012 N1000 0.984 . S
H1013 N1000 0.985 . S
C1014 C1015 1.363 . S
C1014 C1020 1.379 . S
C1014 N1022 1.356 . S
C1015 C1014 1.363 . S
C1015 C1021 1.363 . S
C1016 C1017 1.363 . S
C1016 C1021 1.379 . S
C1016 N1023 1.356 . S
C1017 C1016 1.363 . S
C1017 C1020 1.363 . S
N1018 C1020 1.356 . S
N1018 H1030 0.984 . S
N1018 H1031 0.985 . S
N1019 C1021 1.356 . S
N1019 H1024 0.984 . S
N1019 H1025 0.985 . S
C1020 C1014 1.379 . S
C1020 C1017 1.363 . S
C1020 N1018 1.356 . S
C1021 C1015 1.363 . S
C1021 C1016 1.379 . S
C1021 N1019 1.356 . S
N1022 C1014 1.356 . S
N1022 H1028 0.984 . S
N1022 H1029 0.984 . S
N1023 C1016 1.356 . S
N1023 H1026 0.984 . S
N1023 H1027 0.985 . S
H1024 N1019 0.984 . S
H1025 N1019 0.985 . S
H1026 N1023 0.984 . S
H1027 N1023 0.985 . S
H1028 N1022 0.984 . S
H1029 N1022 0.984 . S
H1030 N1018 0.984 . S
H1031 N1018 0.985 . S
C1032 C1033 1.363 . S
C1032 C1038 1.379 . S
C1032 N1040 1.356 . S
C1033 C1032 1.363 . S
C1033 C1039 1.371 . S
C1034 C1035 1.363 1_455 S
C1034 C1039 1.380 1_455 S
C1034 N1041 1.356 . S
C1035 C1034 1.363 1_655 S
C1035 C1038 1.363 . S
N1036 C1038 1.356 . S
N1036 H1048 0.984 . S
N1036 H1049 0.985 . S
N1037 C1039 1.349 1_455 S
N1037 H1042 0.984 . S
N1037 H1043 0.985 . S
C1038 C1032 1.379 . S
C1038 C1035 1.363 . S
C1038 N1036 1.356 . S
C1039 C1033 1.371 . S
C1039 C1034 1.380 1_655 S
C1039 N1037 1.349 1_655 S
N1040 C1032 1.356 . S
N1040 H1046 0.984 . S
N1040 H1047 0.984 . S
N1041 C1034 1.356 . S
N1041 H1044 0.984 1_565 S
N1041 H1045 0.985 1_565 S
H1042 N1037 0.984 . S
H1043 N1037 0.985 . S
H1044 N1041 0.984 1_545 S
H1045 N1041 0.985 1_545 S
H1046 N1040 0.984 . S
H1047 N1040 0.984 . S
H1048 N1036 0.984 . S
H1049 N1036 0.985 . S
C1050 C1051 1.363 . S
C1050 C1056 1.379 . S
C1050 N1058 1.356 . S
C1051 C1050 1.363 . S
C1051 C1057 1.363 . S
C1052 C1053 1.363 . S
C1052 C1057 1.379 . S
C1052 N1059 1.356 . S
C1053 C1052 1.363 . S
C1053 C1056 1.363 . S
N1054 C1056 1.356 . S
N1054 H1066 0.984 . S
N1054 H1067 0.985 . S
N1055 C1057 1.356 . S
N1055 H1060 0.984 . S
N1055 H1061 0.985 . S
C1056 C1050 1.379 . S
C1056 C1053 1.363 . S
C1056 N1054 1.356 . S
C1057 C1051 1.363 . S
C1057 C1052 1.379 . S
C1057 N1055 1.356 . S
N1058 C1050 1.356 . S
N1058 H1064 0.984 . S
N1058 H1065 0.984 . S
N1059 C1052 1.356 . S
N1059 H1062 0.984 . S
N1059 H1063 0.985 . S
H1060 N1055 0.984 . S
H1061 N1055 0.985 . S
H1062 N1059 0.984 . S
H1063 N1059 0.985 . S
H1064 N1058 0.984 . S
H1065 N1058 0.984 . S
H1066 N1054 0.984 . S
H1067 N1054 0.985 . S
C1068 C1069 1.363 . S
C1068 C1074 1.379 . S
C1068 N1076 1.356 . S
C1069 C1068 1.363 . S
C1069 C1075 1.363 . S
C1070 C1071 1.363 . S
C1070 C1075 1.379 . S
C1070 N1077 1.355 1_556 S
C1071 C1070 1.363 . S
C1071 C1074 1.363 . S
N1072 C1074 1.356 . S
N1072 H1084 0.984 . S
N1072 H1085 0.985 . S
N1073 C1075 1.356 . S
N1073 H1078 0.984 . S
N1073 H1079 0.985 . S
C1074 C1068 1.379 . S
C1074 C1071 1.363 . S
C1074 N1072 1.356 . S
C1075 C1069 1.363 . S
C1075 C1070 1.379 . S
C1075 N1073 1.356 . S
N1076 C1068 1.356 . S
N1076 H1082 0.984 . S
N1076 H1083 0.984 . S
N1077 C1070 1.355 1_554 S
N1077 H1080 0.985 . S
N1077 H1081 0.985 . S
H1078 N1073 0.984 . S
H1079 N1073 0.985 . S
H1080 N1077 0.985 . S
H1081 N1077 0.985 . S
H1082 N1076 0.984 . S
H1083 N1076 0.984 . S
H1084 N1072 0.984 . S
H1085 N1072 0.985 . S
C1086 C1087 1.363 . S
C1086 C1092 1.379 . S
C1086 N1094 1.356 . S
C1087 C1086 1.363 . S
C1087 C1093 1.363 . S
C1088 C1089 1.363 . S
C1088 C1093 1.379 . S
C1088 N1095 1.356 . S
C1089 C1088 1.363 . S
C1089 C1092 1.363 . S
N1090 C1092 1.356 . S
N1090 H1102 0.984 . S
N1090 H1103 0.985 . S
N1091 C1093 1.356 . S
N1091 H1096 0.984 . S
N1091 H1097 0.985 . S
C1092 C1086 1.379 . S
C1092 C1089 1.363 . S
C1092 N1090 1.356 . S
C1093 C1087 1.363 . S
C1093 C1088 1.379 . S
C1093 N1091 1.356 . S
N1094 C1086 1.356 . S
N1094 H1100 0.984 . S
N1094 H1101 0.984 . S
N1095 C1088 1.356 . S
N1095 H1098 0.984 . S
N1095 H1099 0.985 . S
H1096 N1091 0.984 . S
H1097 N1091 0.985 . S
H1098 N1095 0.984 . S
H1099 N1095 0.985 . S
H1100 N1094 0.984 . S
H1101 N1094 0.984 . S
H1102 N1090 0.984 . S
H1103 N1090 0.985 . S
C1104 C1105 1.363 . S
C1104 C1110 1.379 . S
C1104 N1112 1.356 . S
C1105 C1104 1.363 . S
C1105 C1111 1.363 . S
C1106 C1107 1.363 . S
C1106 C1111 1.379 . S
C1106 N1113 1.356 . S
C1107 C1106 1.363 . S
C1107 C1110 1.363 . S
N1108 C1110 1.356 . S
N1108 H1120 0.984 . S
N1108 H1121 0.985 . S
N1109 C1111 1.356 . S
N1109 H1114 0.984 . S
N1109 H1115 0.985 . S
C1110 C1104 1.379 . S
C1110 C1107 1.363 . S
C1110 N1108 1.356 . S
C1111 C1105 1.363 . S
C1111 C1106 1.379 . S
C1111 N1109 1.356 . S
N1112 C1104 1.356 . S
N1112 H1118 0.984 . S
N1112 H1119 0.984 1_455 S
N1113 C1106 1.356 . S
N1113 H1116 0.984 . S
N1113 H1117 0.985 . S
H1114 N1109 0.984 . S
H1115 N1109 0.985 . S
H1116 N1113 0.984 . S
H1117 N1113 0.985 . S
H1118 N1112 0.984 . S
H1119 N1112 0.984 1_655 S
H1120 N1108 0.984 . S
H1121 N1108 0.985 . S
C1122 C1123 1.363 . S
C1122 C1128 1.379 . S
C1122 N1130 1.356 . S
C1123 C1122 1.363 . S
C1123 C1129 1.363 . S
C1124 C1125 1.363 . S
C1124 C1129 1.379 . S
C1124 N1131 1.356 . S
C1125 C1124 1.363 . S
C1125 C1128 1.363 . S
N1126 C1128 1.356 . S
N1126 H1138 0.984 . S
N1126 H1139 0.985 . S
N1127 C1129 1.356 . S
N1127 H1132 0.984 . S
N1127 H1133 0.985 . S
C1128 C1122 1.379 . S
C1128 C1125 1.363 . S
C1128 N1126 1.356 . S
C1129 C1123 1.363 . S
C1129 C1124 1.379 . S
C1129 N1127 1.356 . S
N1130 C1122 1.356 . S
N1130 H1136 0.984 . S
N1130 H1137 0.984 . S
N1131 C1124 1.356 . S
N1131 H1134 0.984 . S
N1131 H1135 0.985 . S
H1132 N1127 0.984 . S
H1133 N1127 0.985 . S
H1134 N1131 0.984 . S
H1135 N1131 0.985 . S
H1136 N1130 0.984 . S
H1137 N1130 0.984 . S
H1138 N1126 0.984 . S
H1139 N1126 0.985 . S
C1140 C1141 1.363 . S
C1140 C1146 1.379 . S
C1140 N1148 1.356 . S
C1141 C1140 1.363 . S
C1141 C1147 1.363 . S
C1142 C1143 1.363 . S
C1142 C1147 1.379 . S
C1142 N1149 1.356 . S
C1143 C1142 1.363 . S
C1143 C1146 1.363 . S
N1144 C1146 1.356 . S
N1144 H1156 0.984 . S
N1144 H1157 0.985 . S
N1145 C1147 1.356 . S
N1145 H1150 0.984 . S
N1145 H1151 0.985 . S
C1146 C1140 1.379 . S
C1146 C1143 1.363 . S
C1146 N1144 1.356 . S
C1147 C1141 1.363 . S
C1147 C1142 1.379 . S
C1147 N1145 1.356 . S
N1148 C1140 1.356 . S
N1148 H1154 0.984 . S
N1148 H1155 0.984 . S
N1149 C1142 1.356 . S
N1149 H1152 0.984 . S
N1149 H1153 0.985 . S
H1150 N1145 0.984 . S
H1151 N1145 0.985 . S
H1152 N1149 0.984 . S
H1153 N1149 0.985 . S
H1154 N1148 0.984 . S
H1155 N1148 0.984 . S
H1156 N1144 0.984 . S
H1157 N1144 0.985 . S
C1158 C1159 1.363 . S
C1158 C1164 1.379 . S
C1158 N1166 1.356 . S
C1159 C1158 1.363 . S
C1159 C1165 1.363 . S
C1160 C1161 1.363 . S
C1160 C1165 1.379 . S
C1160 N1167 1.356 . S
C1161 C1160 1.363 . S
C1161 C1164 1.363 . S
N1162 C1164 1.356 . S
N1162 H1174 0.984 . S
N1162 H1175 0.985 . S
N1163 C1165 1.356 . S
N1163 H1168 0.984 . S
N1163 H1169 0.985 . S
C1164 C1158 1.379 . S
C1164 C1161 1.363 . S
C1164 N1162 1.356 . S
C1165 C1159 1.363 . S
C1165 C1160 1.379 . S
C1165 N1163 1.356 . S
N1166 C1158 1.356 . S
N1166 H1172 0.984 . S
N1166 H1173 0.984 . S
N1167 C1160 1.356 . S
N1167 H1170 0.984 . S
N1167 H1171 0.985 . S
H1168 N1163 0.984 . S
H1169 N1163 0.985 . S
H1170 N1167 0.984 . S
H1171 N1167 0.985 . S
H1172 N1166 0.984 . S
H1173 N1166 0.984 . S
H1174 N1162 0.984 . S
H1175 N1162 0.985 . S
C1176 C1177 1.363 . S
C1176 C1182 1.379 . S
C1176 N1184 1.356 . S
C1177 C1176 1.363 . S
C1177 C1183 1.363 . S
C1178 C1179 1.363 . S
C1178 C1183 1.379 . S
C1178 N1185 1.356 . S
C1179 C1178 1.363 . S
C1179 C1182 1.363 . S
N1180 C1182 1.356 . S
N1180 H1192 0.984 . S
N1180 H1193 0.985 . S
N1181 C1183 1.356 1_655 S
N1181 H1186 0.984 . S
N1181 H1187 0.985 . S
C1182 C1176 1.379 . S
C1182 C1179 1.363 . S
C1182 N1180 1.356 . S
C1183 C1177 1.363 . S
C1183 C1178 1.379 . S
C1183 N1181 1.356 1_455 S
N1184 C1176 1.356 . S
N1184 H1190 0.984 . S
N1184 H1191 0.984 . S
N1185 C1178 1.356 . S
N1185 H1188 0.984 . S
N1185 H1189 0.985 . S
H1186 N1181 0.984 . S
H1187 N1181 0.985 . S
H1188 N1185 0.984 . S
H1189 N1185 0.985 . S
H1190 N1184 0.984 . S
H1191 N1184 0.984 . S
H1192 N1180 0.984 . S
H1193 N1180 0.985 . S
C1194 C1195 1.363 . S
C1194 C1200 1.379 . S
C1194 N1202 1.356 . S
C1195 C1194 1.363 . S
C1195 C1201 1.363 . S
C1196 C1197 1.363 . S
C1196 C1201 1.379 . S
C1196 N1203 1.356 . S
C1197 C1196 1.363 . S
C1197 C1200 1.363 . S
N1198 C1200 1.353 1_545 S
N1198 H1210 0.985 . S
N1198 H1211 0.988 . S
N1199 C1201 1.356 . S
N1199 H1204 0.984 . S
N1199 H1205 0.985 . S
C1200 C1194 1.379 . S
C1200 C1197 1.363 . S
C1200 N1198 1.353 1_565 S
C1201 C1195 1.363 . S
C1201 C1196 1.379 . S
C1201 N1199 1.356 . S
N1202 C1194 1.356 . S
N1202 H1208 0.984 . S
N1202 H1209 0.984 . S
N1203 C1196 1.356 . S
N1203 H1206 0.984 . S
N1203 H1207 0.985 . S
H1204 N1199 0.984 . S
H1205 N1199 0.985 . S
H1206 N1203 0.984 . S
H1207 N1203 0.985 . S
H1208 N1202 0.984 . S
H1209 N1202 0.984 . S
H1210 N1198 0.985 . S
H1211 N1198 0.988 . S
C1212 C1213 1.363 . S
C1212 C1218 1.379 . S
C1212 N1220 1.356 . S
C1213 C1212 1.363 . S
C1213 C1219 1.363 . S
C1214 C1215 1.363 . S
C1214 C1219 1.379 . S
C1214 N1221 1.357 . S
C1215 C1214 1.363 . S
C1215 C1218 1.363 . S
N1216 C1218 1.356 . S
N1216 H1228 0.984 . S
N1216 H1229 0.985 . S
N1217 C1219 1.356 . S
N1217 H1222 0.984 . S
N1217 H1223 0.985 . S
C1218 C1212 1.379 . S
C1218 C1215 1.363 . S
C1218 N1216 1.356 . S
C1219 C1213 1.363 . S
C1219 C1214 1.379 . S
C1219 N1217 1.356 . S
N1220 C1212 1.356 . S
N1220 H1226 0.984 . S
N1220 H1227 0.984 . S
N1221 C1214 1.357 . S
N1221 H1224 0.984 1_655 S
N1221 H1225 0.984 1_655 S
H1222 N1217 0.984 . S
H1223 N1217 0.985 . S
H1224 N1221 0.984 1_455 S
H1225 N1221 0.984 1_455 S
H1226 N1220 0.984 . S
H1227 N1220 0.984 . S
H1228 N1216 0.984 . S
H1229 N1216 0.985 . S
C1230 C1231 1.363 . S
C1230 C1236 1.379 . S
C1230 N1238 1.356 . S
C1231 C1230 1.363 . S
C1231 C1237 1.363 . S
C1232 C1233 1.363 . S
C1232 C1237 1.379 . S
C1232 N1239 1.356 . S
C1233 C1232 1.363 . S
C1233 C1236 1.363 . S
N1234 C1236 1.356 . S
N1234 H1246 0.984 . S
N1234 H1247 0.985 . S
N1235 C1237 1.356 . S
N1235 H1240 0.984 . S
N1235 H1241 0.985 . S
C1236 C1230 1.379 . S
C1236 C1233 1.363 . S
C1236 N1234 1.356 . S
C1237 C1231 1.363 . S
C1237 C1232 1.379 . S
C1237 N1235 1.356 . S
N1238 C1230 1.356 . S
N1238 H1244 0.984 . S
N1238 H1245 0.984 . S
N1239 C1232 1.356 . S
N1239 H1242 0.984 . S
N1239 H1243 0.985 . S
H1240 N1235 0.984 . S
H1241 N1235 0.985 . S
H1242 N1239 0.984 . S
H1243 N1239 0.985 . S
H1244 N1238 0.984 . S
H1245 N1238 0.984 . S
H1246 N1234 0.984 . S
H1247 N1234 0.985 . S
C1248 C1249 1.363 . S
C1248 C1254 1.379 . S
C1248 N1256 1.356 . S
C1249 C1248 1.363 . S
C1249 C1255 1.363 . S
C1250 C1251 1.363 . S
C1250 C1255 1.379 . S
C1250 N1257 1.356 . S
C1251 C1250 1.363 . S
C1251 C1254 1.363 . S
N1252 C1254 1.356 . S
N1252 H1264 0.984 . S
N1252 H1265 0.985 . S
N1253 C1255 1.356 . S
N1253 H1258 0.984 . S
N1253 H1259 0.985 . S
C1254 C1248 1.379 . S
C1254 C1251 1.363 . S
C1254 N1252 1.356 . S
C1255 C1249 1.363 . S
C1255 C1250 1.379 . S
C1255 N1253 1.356 . S
N1256 C1248 1.356 . S
N1256 H1262 0.984 . S
N1256 H1263 0.984 . S
N1257 C1250 1.356 . S
N1257 H1260 0.984 . S
N1257 H1261 0.985 . S
H1258 N1253 0.984 . S
H1259 N1253 0.985 . S
H1260 N1257 0.984 . S
H1261 N1257 0.985 . S
H1262 N1256 0.984 . S
H1263 N1256 0.984 . S
H1264 N1252 0.984 . S
H1265 N1252 0.985 . S
C1266 C1267 1.363 . S
C1266 C1272 1.379 1_545 S
C1266 N1274 1.356 . S
C1267 C1266 1.363 . S
C1267 C1273 1.363 . S
C1268 C1269 1.363 1_554 S
C1268 C1273 1.379 1_564 S
C1268 N1275 1.356 . S
C1269 C1268 1.363 1_556 S
C1269 C1272 1.363 . S
N1270 C1272 1.356 . S
N1270 H1282 0.984 . S
N1270 H1283 0.985 . S
N1271 C1273 1.356 1_554 S
N1271 H1276 0.984 . S
N1271 H1277 0.985 . S
C1272 C1266 1.379 1_565 S
C1272 C1269 1.363 . S
C1272 N1270 1.356 . S
C1273 C1267 1.363 . S
C1273 C1268 1.379 1_546 S
C1273 N1271 1.356 1_556 S
N1274 C1266 1.356 . S
N1274 H1280 0.984 . S
N1274 H1281 0.984 . S
N1275 C1268 1.356 . S
N1275 H1278 0.984 . S
N1275 H1279 0.985 . S
H1276 N1271 0.984 . S
H1277 N1271 0.985 . S
H1278 N1275 0.984 . S
H1279 N1275 0.985 . S
H1280 N1274 0.984 . S
H1281 N1274 0.984 . S
H1282 N1270 0.984 . S
H1283 N1270 0.985 . S
C1284 C1285 1.363 . S
C1284 C1290 1.379 . S
C1284 N1292 1.356 . S
C1285 C1284 1.363 . S
C1285 C1291 1.363 . S
C1286 C1287 1.363 . S
C1286 C1291 1.379 . S
C1286 N1293 1.356 . S
C1287 C1286 1.363 . S
C1287 C1290 1.363 . S
N1288 C1290 1.356 . S
N1288 H1300 0.984 . S
N1288 H1301 0.985 . S
N1289 C1291 1.356 . S
N1289 H1294 0.984 . S
N1289 H1295 0.985 . S
C1290 C1284 1.379 . S
C1290 C1287 1.363 . S
C1290 N1288 1.356 . S
C1291 C1285 1.363 . S
C1291 C1286 1.379 . S
C1291 N1289 1.356 . S
N1292 C1284 1.356 . S
N1292 H1298 0.984 . S
N1292 H1299 0.984 . S
N1293 C1286 1.356 . S
N1293 H1296 0.984 . S
N1293 H1297 0.985 . S
H1294 N1289 0.984 . S
H1295 N1289 0.985 . S
H1296 N1293 0.984 . S
H1297 N1293 0.985 . S
H1298 N1292 0.984 . S
H1299 N1292 0.984 . S
H1300 N1288 0.984 . S
H1301 N1288 0.985 . S
C1302 C1303 1.363 . S
C1302 C1308 1.379 . S
C1302 N1310 1.356 . S
C1303 C1302 1.363 . S
C1303 C1309 1.363 . S
C1304 C1305 1.363 . S
C1304 C1309 1.379 . S
C1304 N1311 1.356 . S
C1305 C1304 1.363 . S
C1305 C1308 1.363 . S
N1306 C1308 1.356 . S
N1306 H1318 0.984 1_554 S
N1306 H1319 0.985 . S
N1307 C1309 1.356 . S
N1307 H1312 0.984 . S
N1307 H1313 0.985 . S
C1308 C1302 1.379 . S
C1308 C1305 1.363 . S
C1308 N1306 1.356 . S
C1309 C1303 1.363 . S
C1309 C1304 1.379 . S
C1309 N1307 1.356 . S
N1310 C1302 1.356 . S
N1310 H1316 0.984 1_554 S
N1310 H1317 0.984 . S
N1311 C1304 1.356 . S
N1311 H1314 0.984 . S
N1311 H1315 0.985 . S
H1312 N1307 0.984 . S
H1313 N1307 0.985 . S
H1314 N1311 0.984 . S
H1315 N1311 0.985 . S
H1316 N1310 0.984 1_556 S
H1317 N1310 0.984 . S
H1318 N1306 0.984 1_556 S
H1319 N1306 0.985 . S
C1320 C1321 1.363 . S
C1320 C1326 1.379 . S
C1320 N1328 1.356 . S
C1321 C1320 1.363 . S
C1321 C1327 1.363 . S
C1322 C1323 1.363 . S
C1322 C1327 1.379 . S
C1322 N1329 1.356 . S
C1323 C1322 1.363 . S
C1323 C1326 1.363 . S
N1324 C1326 1.356 . S
N1324 H1336 0.984 . S
N1324 H1337 0.985 . S
N1325 C1327 1.356 . S
N1325 H1330 0.984 1_565 S
N1325 H1331 0.985 1_565 S
C1326 C1320 1.379 . S
C1326 C1323 1.363 . S
C1326 N1324 1.356 . S
C1327 C1321 1.363 . S
C1327 C1322 1.379 . S
C1327 N1325 1.356 . S
N1328 C1320 1.356 . S
N1328 H1334 0.984 . S
N1328 H1335 0.984 . S
N1329 C1322 1.356 . S
N1329 H1332 0.984 . S
N1329 H1333 0.985 . S
H1330 N1325 0.984 1_545 S
H1331 N1325 0.985 1_545 S
H1332 N1329 0.984 . S
H1333 N1329 0.985 . S
H1334 N1328 0.984 . S
H1335 N1328 0.984 . S
H1336 N1324 0.984 . S
H1337 N1324 0.985 . S
C1338 C1339 1.363 . S
C1338 C1344 1.379 . S
C1338 N1346 1.356 . S
C1339 C1338 1.363 . S
C1339 C1345 1.363 . S
C1340 C1341 1.363 . S
C1340 C1345 1.379 . S
C1340 N1347 1.356 . S
C1341 C1340 1.363 . S
C1341 C1344 1.363 . S
N1342 C1344 1.356 . S
N1342 H1354 0.984 . S
N1342 H1355 0.985 . S
N1343 C1345 1.356 . S
N1343 H1348 0.984 . S
N1343 H1349 0.985 . S
C1344 C1338 1.379 . S
C1344 C1341 1.363 . S
C1344 N1342 1.356 . S
C1345 C1339 1.363 . S
C1345 C1340 1.379 . S
C1345 N1343 1.356 . S
N1346 C1338 1.356 . S
N1346 H1352 0.984 . S
N1346 H1353 0.984 . S
N1347 C1340 1.356 . S
N1347 H1350 0.984 . S
N1347 H1351 0.985 . S
H1348 N1343 0.984 . S
H1349 N1343 0.985 . S
H1350 N1347 0.984 . S
H1351 N1347 0.985 . S
H1352 N1346 0.984 . S
H1353 N1346 0.984 . S
H1354 N1342 0.984 . S
H1355 N1342 0.985 . S
C495 C481 1.315 . S
C493 N12 1.527 1_556 S
C511 C30 1.578 . S
C513 C434 1.295 . S
C529 C62 1.405 . S
C531 C445 1.291 . S
C549 C470 1.268 . S
C547 N81 1.457 . S
C565 C39 1.442 . S
C567 C488 1.260 . S
C585 C427 1.335 . S
C583 C53 1.554 . S
C603 C452 1.256 . S
C601 N71 1.449 . S
C621 C463 1.298 . S
C619 N2 1.360 . S
C637 N94 1.518 1_655 S
C639 C464 1.325 . S
C657 C490 1.307 . S
C655 C131 1.453 . S
C675 C428 1.303 . S
C673 N140 1.392 . S
C693 C454 1.274 . S
C691 C177 1.442 . S
C709 C108 1.413 . S
C711 C436 1.306 . S
C727 N117 1.418 . S
C729 C446 1.310 . S
C745 C154 1.484 . S
C747 C472 1.280 . S
C765 C482 1.291 . S
C763 N163 1.452 . S
C783 C319 1.293 . S
C781 N173 1.444 . S
C801 C302 1.278 . S
C799 C191 1.526 . S
C819 C328 1.267 . S
C817 N219 1.486 . S
C837 C346 1.361 . S
C835 C237 1.510 . S
C853 N104 1.465 . S
C855 C320 1.300 . S
C871 N127 1.473 . S
C873 C290 1.239 . S
C889 C214 1.499 . S
C891 C344 1.319 . S
C907 C260 1.565 . S
C909 C301 1.336 . S
C927 C355 1.326 1_565 S
C925 N48 1.438 . S
C945 C380 1.275 . S
C943 C76 1.557 . S
C961 C7 1.451 . S
C963 C391 1.301 . S
C979 N35 1.430 . S
C981 C416 1.249 . S
C999 C362 1.283 . S
C997 C85 1.467 1_554 S
C1017 C373 1.325 . S
C1015 C16 1.504 . S
C1033 N25 1.474 . S
C1035 C398 1.275 . S
C1053 C409 1.289 . S
C1051 N58 1.433 . S
C1069 N255 1.507 . S
C1071 C410 1.322 . S
C1087 C200 1.447 . S
C1089 C364 1.299 . S
C1107 C374 1.303 . S
C1105 N209 1.386 . S
C1123 C246 1.434 . S
C1125 C400 1.265 . S
C1143 C382 1.317 . S
C1141 C269 1.423 . S
C1159 N186 1.426 . S
C1161 C392 1.311 . S
C1179 C418 1.286 . S
C1177 C223 1.488 1_455 S
C1197 C356 1.294 1_565 S
C1195 N232 1.462 . S
C1215 C283 1.294 . S
C1213 N242 1.447 . S
C1233 C338 1.283 . S
C1231 C122 1.532 . S
C1249 N150 1.489 . S
C1251 C292 1.269 . S
C1269 C310 1.366 . S
C1267 C168 1.514 . S
C1287 C284 1.297 . S
C1285 N265 1.460 . S
C1303 N196 1.477 . S
C1305 C326 1.240 . S
C1321 C145 1.495 . S
C1323 C308 1.315 . S
C1339 C99 1.559 . S
C1341 C337 1.329 . S
