# Generated by pormake.
# Topology zzz, (3,6)-cn, num edge types: 1
# Building blocks:
#     Node 0, Type 0, BuildingBlock: ESEHIV_clean_linker_0, # of connection points: 3
#     Node 1, Type 0, BuildingBlock: ESEHIV_clean_linker_0, # of connection points: 3
#     Node 2, Type 0, BuildingBlock: ESEHIV_clean_linker_0, # of connection points: 3
#     Node 3, Type 0, BuildingBlock: ESEHIV_clean_linker_0, # of connection points: 3
#     Node 4, Type 0, BuildingBlock: ESEHIV_clean_linker_0, # of connection points: 3
#     Node 5, Type 0, BuildingBlock: ESEHIV_clean_linker_0, # of connection points: 3
#     Node 6, Type 0, BuildingBlock: ESEHIV_clean_linker_0, # of connection points: 3
#     Node 7, Type 0, BuildingBlock: ESEHIV_clean_linker_0, # of connection points: 3
#     Node 8, Type 1, BuildingBlock: CUWYAW_clean_sbu_0, # of connection points: 6
#     Node 9, Type 1, BuildingBlock: CUWYAW_clean_sbu_0, # of connection points: 6
#     Node 10, Type 1, BuildingBlock: CUWYAW_clean_sbu_0, # of connection points: 6
#     Node 11, Type 1, BuildingBlock: CUWYAW_clean_sbu_0, # of connection points: 6
#     Edge 12, Type (0, 1), BuildingBlock: KIFKEQ_clean_linker_1, # of connection points: 2
#     Edge 13, Type (0, 1), BuildingBlock: KIFKEQ_clean_linker_1, # of connection points: 2
#     Edge 14, Type (0, 1), BuildingBlock: KIFKEQ_clean_linker_1, # of connection points: 2
#     Edge 15, Type (0, 1), BuildingBlock: KIFKEQ_clean_linker_1, # of connection points: 2
#     Edge 16, Type (0, 1), BuildingBlock: KIFKEQ_clean_linker_1, # of connection points: 2
#     Edge 17, Type (0, 1), BuildingBlock: KIFKEQ_clean_linker_1, # of connection points: 2
#     Edge 18, Type (0, 1), BuildingBlock: KIFKEQ_clean_linker_1, # of connection points: 2
#     Edge 19, Type (0, 1), BuildingBlock: KIFKEQ_clean_linker_1, # of connection points: 2
#     Edge 20, Type (0, 1), BuildingBlock: KIFKEQ_clean_linker_1, # of connection points: 2
#     Edge 21, Type (0, 1), BuildingBlock: KIFKEQ_clean_linker_1, # of connection points: 2
#     Edge 22, Type (0, 1), BuildingBlock: KIFKEQ_clean_linker_1, # of connection points: 2
#     Edge 23, Type (0, 1), BuildingBlock: KIFKEQ_clean_linker_1, # of connection points: 2
#     Edge 24, Type (0, 1), BuildingBlock: KIFKEQ_clean_linker_1, # of connection points: 2
#     Edge 25, Type (0, 1), BuildingBlock: KIFKEQ_clean_linker_1, # of connection points: 2
#     Edge 26, Type (0, 1), BuildingBlock: KIFKEQ_clean_linker_1, # of connection points: 2
#     Edge 27, Type (0, 1), BuildingBlock: KIFKEQ_clean_linker_1, # of connection points: 2
#     Edge 28, Type (0, 1), BuildingBlock: KIFKEQ_clean_linker_1, # of connection points: 2
#     Edge 29, Type (0, 1), BuildingBlock: KIFKEQ_clean_linker_1, # of connection points: 2
#     Edge 30, Type (0, 1), BuildingBlock: KIFKEQ_clean_linker_1, # of connection points: 2
#     Edge 31, Type (0, 1), BuildingBlock: KIFKEQ_clean_linker_1, # of connection points: 2
#     Edge 32, Type (0, 1), BuildingBlock: KIFKEQ_clean_linker_1, # of connection points: 2
#     Edge 33, Type (0, 1), BuildingBlock: KIFKEQ_clean_linker_1, # of connection points: 2
#     Edge 34, Type (0, 1), BuildingBlock: KIFKEQ_clean_linker_1, # of connection points: 2
#     Edge 35, Type (0, 1), BuildingBlock: KIFKEQ_clean_linker_1, # of connection points: 2
# Relax obj value: 0.484
# Max RMSD: 0.244
# Mean RMSD: 0.232
data_MOF--net-zzz--node1-CUWYAW_clean_sbu_0--node2-ESEHIV_clean_linker_0--edge1-KIFKEQ_clean_linker_1
_symmetry_space_group_name_H-M    P1
_symmetry_Int_Tables_number       1
_symmetry_cell_setting            triclinic
loop_
_symmetry_equiv_pos_as_xyz
'x, y, z'
_cell_length_a     45.841333
_cell_length_b     45.753392
_cell_length_c     15.143492
_cell_angle_alpha  89.583773
_cell_angle_beta   90.117054
_cell_angle_gamma 90.018787
loop_
_atom_site_label
_atom_site_type_symbol
_atom_site_fract_x
_atom_site_fract_y
_atom_site_fract_z
_atom_type_partial_charge
H0 H 0.77856 0.54703 0.38706 0.0
H1 H 0.70078 0.5449 0.23532 0.0
H2 H 0.7079 0.49116 0.46979 0.0
C3 C 0.75584 0.54048 0.38193 0.0
C4 C 0.74508 0.52015 0.44291 0.0
C5 C 0.74147 0.54494 0.30187 0.0
C6 C 0.71179 0.53953 0.29697 0.0
C7 C 0.69888 0.51961 0.35547 0.0
C8 C 0.71625 0.5085 0.42795 0.0
H9 H 0.98424 0.78641 0.36045 0.0
H10 H 0.97861 0.70712 0.21541 0.0
H11 H 0.01699 0.70682 0.4767 0.0
C12 C 0.98638 0.76279 0.35877 0.0
C13 C 0.99842 0.74868 0.4321 0.0
C14 C 0.98175 0.74815 0.27946 0.0
C15 C 0.9833 0.71794 0.27752 0.0
C16 C 0.99724 0.70245 0.34503 0.0
C17 C 1.00541 0.71802 0.42411 0.0
H18 H 0.74548 0.97342 0.38361 0.0
H19 H 0.82375 0.9741 0.23744 0.0
H20 H 0.81707 0.02713 0.4712 0.0
C21 C 0.76847 0.97916 0.38092 0.0
C22 C 0.7797 0.9984 0.44391 0.0
C23 C 0.78275 0.97598 0.30076 0.0
C24 C 0.81275 0.97949 0.29872 0.0
C25 C 0.82582 0.99944 0.35615 0.0
C26 C 0.80863 1.01004 0.42921 0.0
H27 H 0.46872 0.75836 0.44274 0.0
H28 H 0.5432 0.81603 0.45641 0.0
H29 H 0.47446 0.83019 0.26602 0.0
C30 C 0.47931 0.77895 0.4263 0.0
C31 C 0.47094 0.79261 0.3482 0.0
C32 C 0.50633 0.78542 0.46428 0.0
C33 C 0.5217 0.81083 0.43139 0.0
C34 C 0.50834 0.82919 0.36453 0.0
C35 C 0.48246 0.81953 0.32574 0.0
H36 H 0.25247 0.55422 0.06435 0.0
H37 H 0.33074 0.55183 0.21434 0.0
H38 H 0.31463 0.48509 0.02004 0.0
C39 C 0.27421 0.5451 0.07286 0.0
C40 C 0.28183 0.51996 0.02667 0.0
C41 C 0.29082 0.55446 0.14411 0.0
C42 C 0.31861 0.54377 0.15772 0.0
C43 C 0.32807 0.51869 0.11459 0.0
C44 C 0.30888 0.50567 0.0501 0.0
H45 H 0.04308 0.24003 0.11383 0.0
H46 H 0.04125 0.31691 0.26751 0.0
H47 H 0.01594 0.32149 0.99278 0.0
C48 C 0.0414 0.26374 0.11501 0.0
C49 C 0.03125 0.27855 0.04011 0.0
C50 C 0.04103 0.27718 0.19665 0.0
C51 C 0.04031 0.30724 0.20214 0.0
C52 C 0.03108 0.32415 0.13045 0.0
C53 C 0.02521 0.30949 0.04789 0.0
H54 H 0.28157 0.05625 0.09814 0.0
H55 H 0.20319 0.0562 0.24354 0.0
H56 H 0.21062 1.00099 0.01451 0.0
C57 C 0.25864 0.05028 0.10116 0.0
C58 C 0.24762 0.03049 0.03932 0.0
C59 C 0.2443 0.05387 0.18107 0.0
C60 C 0.2143 0.05029 0.1829 0.0
C61 C 0.20151 0.02949 0.12762 0.0
C62 C 0.21883 0.01855 0.05511 0.0
H63 H 0.50892 0.28638 0.11808 0.0
H64 H 0.50928 0.20328 0.98457 0.0
H65 H 0.50499 0.20774 0.26978 0.0
C66 C 0.50705 0.2627 0.11958 0.0
C67 C 0.50692 0.24822 0.20055 0.0
C68 C 0.5073 0.24745 0.04037 0.0
C69 C 0.50778 0.21588 0.04455 0.0
C70 C 0.50656 0.20125 0.12937 0.0
C71 C 0.50504 0.21819 0.20501 0.0
C72 C 0.9615 0.03555 0.5583 0.0
Eu73 Eu 0.99207 0.01758 0.69096 0.0
C74 C 0.95833 0.06595 0.53179 0.0
C75 C 0.93054 0.07776 0.517 0.0
C76 C 0.92733 0.10781 0.50537 0.0
C77 C 0.95183 0.12597 0.51109 0.0
C78 C 0.97958 0.11409 0.52505 0.0
C79 C 0.98285 0.08431 0.53496 0.0
C80 C 0.96708 1.01247 0.85331 0.0
C81 C 0.01975 0.07547 0.78514 0.0
C82 C 0.07899 0.99041 0.90327 0.0
Eu83 Eu 0.04039 1.00914 0.79163 0.0
C84 C 0.07879 0.96221 0.94744 0.0
C85 C 0.10489 0.94695 0.96169 0.0
C86 C 0.104 0.91793 0.99038 0.0
C87 C 0.07699 0.90448 1.00362 0.0
C88 C 0.05097 0.91989 0.99109 0.0
C89 C 0.05183 0.9486 0.96289 0.0
C90 C 0.05681 0.02254 0.62277 0.0
C91 C 1.00944 0.9503 0.70747 0.0
O92 O 0.98769 0.02478 0.54974 0.0
O93 O 0.9499 0.02929 0.63454 0.0
O94 O 0.95351 1.01276 0.77873 0.0
O95 O 0.99477 1.01188 0.8426 0.0
O96 O 1.0043 0.06573 0.71796 0.0
O97 O 0.03474 0.05656 0.83245 0.0
O98 O 0.05776 1.00786 0.92521 0.0
O99 O 0.08243 0.98885 0.81818 0.0
O100 O 0.06713 0.03505 0.69279 0.0
O101 O 0.03668 1.00497 0.6456 0.0
O102 O 0.02952 0.96076 0.76181 0.0
O103 O 0.99079 0.96851 0.67039 0.0
H104 H 0.91143 0.06384 0.51604 0.0
H105 H 0.90592 0.1169 0.49231 0.0
H106 H 0.99888 0.12781 0.52626 0.0
H107 H 1.00458 0.07583 0.54686 0.0
H108 H 0.12573 0.95715 0.94798 0.0
H109 H 0.12409 0.9059 1.00042 0.0
H110 H 0.02999 0.90945 1.00155 0.0
H111 H 0.03139 0.9598 0.95021 0.0
C112 C 0.4901 0.95712 0.54646 0.0
Eu113 Eu 0.50828 0.98768 0.67698 0.0
C114 C 0.46108 0.95969 0.50897 0.0
C115 C 0.44484 0.93448 0.49126 0.0
C116 C 0.41484 0.93661 0.47762 0.0
C117 C 0.40114 0.96391 0.48331 0.0
C118 C 0.41761 0.98915 0.49809 0.0
C119 C 0.4473 0.98702 0.51156 0.0
C120 C 0.52101 0.9651 0.84123 0.0
C121 C 0.4521 0.01756 0.78158 0.0
C122 C 0.5365 0.07081 0.92862 0.0
Eu123 Eu 0.51907 0.03998 0.79759 0.0
C124 C 0.56517 0.06853 0.96869 0.0
C125 C 0.5811 0.09397 0.98622 0.0
C126 C 0.61096 0.09214 1.00257 0.0
C127 C 0.62486 0.06492 0.9995 0.0
C128 C 0.60869 0.03943 0.9852 0.0
C129 C 0.57905 0.0412 0.96964 0.0
C130 C 0.50942 0.06161 0.6291 0.0
C131 C 0.5751 1.01021 0.69454 0.0
O132 O 0.50719 0.97984 0.53548 0.0
O133 O 0.48971 0.94747 0.62774 0.0
O134 O 0.51757 0.95004 0.7702 0.0
O135 O 0.52001 0.99209 0.82026 0.0
O136 O 0.46123 1.0006 0.71627 0.0
O137 O 0.47066 0.03397 0.82635 0.0
O138 O 0.5194 0.04808 0.93896 0.0
O139 O 0.53751 0.08021 0.84713 0.0
O140 O 0.51368 0.07738 0.69834 0.0
O141 O 0.50906 0.03512 0.65449 0.0
O142 O 0.56604 0.02602 0.76252 0.0
O143 O 0.55644 0.99484 0.64663 0.0
H144 H 0.4551 0.91316 0.49227 0.0
H145 H 0.40227 0.91701 0.46518 0.0
H146 H 0.40747 1.01054 0.50035 0.0
H147 H 0.45917 1.00655 0.52907 0.0
H148 H 0.57073 0.11522 0.98302 0.0
H149 H 0.6233 0.11191 0.01476 0.0
H150 H 0.61906 0.01813 0.98506 0.0
H151 H 0.56733 0.02131 0.95401 0.0
C152 C 0.57385 0.49652 0.54546 0.0
Eu153 Eu 0.54083 0.50812 0.67835 0.0
C154 C 0.57674 0.46822 0.50505 0.0
C155 C 0.60458 0.45749 0.48544 0.0
C156 C 0.60838 0.42778 0.47026 0.0
C157 C 0.58439 0.40907 0.47696 0.0
C158 C 0.5564 0.42 0.49269 0.0
C159 C 0.55257 0.44945 0.50683 0.0
C160 C 0.56301 0.51461 0.84492 0.0
C161 C 0.5116 0.45009 0.77051 0.0
C162 C 0.45758 0.5321 0.92075 0.0
Eu163 Eu 0.48928 0.51733 0.78848 0.0
C164 C 0.45694 0.56072 0.96027 0.0
C165 C 0.43004 0.57289 0.98235 0.0
C166 C 0.4284 0.60221 1.00398 0.0
C167 C 0.45364 0.61948 1.00251 0.0
C168 C 0.48061 0.60737 0.9802 0.0
C169 C 0.48227 0.57803 0.95896 0.0
C170 C 0.4671 0.50457 0.6262 0.0
C171 C 0.51907 0.57549 0.69704 0.0
O172 O 0.54837 0.509 0.53646 0.0
O173 O 0.58334 0.49676 0.62652 0.0
O174 O 0.57824 0.51266 0.77382 0.0
O175 O 0.53606 0.51561 0.82415 0.0
O176 O 0.53035 0.4602 0.71115 0.0
O177 O 0.49366 0.46818 0.81118 0.0
O178 O 0.48188 0.51746 0.93058 0.0
O179 O 0.44788 0.53218 0.83984 0.0
O180 O 0.45223 0.50728 0.69811 0.0
O181 O 0.49373 0.5118 0.63971 0.0
O182 O 0.49984 0.56533 0.75483 0.0
O183 O 0.53721 0.55739 0.65763 0.0
H184 H 0.62343 0.47177 0.48641 0.0
H185 H 0.62992 0.4193 0.45631 0.0
H186 H 0.53759 0.40563 0.49551 0.0
H187 H 0.53097 0.45719 0.52397 0.0
H188 H 0.41026 0.55997 0.97982 0.0
H189 H 0.40743 0.61153 0.02093 0.0
H190 H 0.50032 0.62047 0.97993 0.0
H191 H 0.50313 0.56912 0.93912 0.0
C192 C 0.03162 0.57242 0.5692 0.0
Eu193 Eu 0.01572 0.53694 0.69235 0.0
C194 C 0.06011 0.57337 0.52855 0.0
C195 C 0.07302 0.60045 0.51062 0.0
C196 C 0.10229 0.60173 0.48733 0.0
C197 C 0.11852 0.57593 0.48302 0.0
C198 C 0.10571 0.54883 0.50037 0.0
C199 C 0.07656 0.54752 0.52366 0.0
C200 C 1.00503 0.55515 0.86115 0.0
C201 C 0.07379 0.50556 0.78387 0.0
C202 C 0.99103 0.44721 0.91866 0.0
Eu203 Eu 1.00731 0.48204 0.79409 0.0
C204 C 0.96459 0.45043 0.96971 0.0
C205 C 0.9506 0.42594 1.00597 0.0
C206 C 0.92279 0.42888 0.04207 0.0
C207 C 0.9092 0.45624 0.04061 0.0
C208 C 0.9232 0.48063 1.00424 0.0
C209 C 0.95078 0.47777 0.96902 0.0
C210 C 0.01853 0.46402 0.62567 0.0
C211 C 0.94972 0.51242 0.69941 0.0
O212 O 0.01605 0.54906 0.55327 0.0
O213 O 0.03231 0.57928 0.65253 0.0
O214 O 1.0076 0.5721 0.79335 0.0
O215 O 1.00586 0.52858 0.83594 0.0
O216 O 0.06351 0.52563 0.72808 0.0
O217 O 0.05597 0.48629 0.82052 0.0
O218 O 1.01071 0.46758 0.93081 0.0
O219 O 0.98581 0.44214 0.83542 0.0
O220 O 0.01651 0.44698 0.69358 0.0
O221 O 0.01747 0.4905 0.65103 0.0
O222 O 0.95961 0.49402 0.76047 0.0
O223 O 0.96766 0.5308 0.65953 0.0
H224 H 0.06068 0.62052 0.51697 0.0
H225 H 0.11224 0.62268 0.47249 0.0
H226 H 0.11826 0.52881 0.49578 0.0
H227 H 0.06713 0.52646 0.54009 0.0
H228 H 0.96087 0.40463 1.0044 0.0
H229 H 0.9119 0.41003 0.07045 0.0
H230 H 0.91264 0.50185 1.00273 0.0
H231 H 0.96101 0.49676 0.93909 0.0
H232 H 0.19613 0.98308 0.24217 0.0
H233 H 0.14546 0.05041 0.11468 0.0
H234 H 0.15987 0.97943 0.35916 0.0
H235 H 0.1081 0.0456 0.22971 0.0
H236 H 0.03926 0.01734 0.44791 0.0
H237 H 0.07022 1.01377 0.31531 0.0
H238 H 0.14694 0.01491 0.48033 0.0
H239 H 0.11625 0.01955 0.61121 0.0
C240 C 0.17652 0.99602 0.2358 0.0
C241 C 0.17386 0.01662 0.16622 0.0
C242 C 0.15579 0.99429 0.30452 0.0
C243 C 0.13097 1.0125 0.30549 0.0
C244 C 0.12675 0.0311 0.23182 0.0
C245 C 0.148 0.03343 0.1643 0.0
C246 C 0.06273 0.01682 0.45574 0.0
C247 C 0.07512 0.01904 0.54072 0.0
C248 C 0.08056 0.01483 0.37955 0.0
C249 C 0.11132 1.01391 0.38619 0.0
C250 C 0.12349 0.01529 0.4717 0.0
C251 C 0.10579 0.01817 0.54717 0.0
H252 H 0.55602 0.17089 0.1694 0.0
H253 H 0.46274 0.16185 0.15849 0.0
H254 H 0.5585 0.13234 0.28133 0.0
H255 H 0.46494 0.12326 0.27063 0.0
H256 H 0.47678 0.0496 0.47671 0.0
H257 H 0.47757 0.0764 0.33541 0.0
H258 H 0.54747 0.13042 0.43381 0.0
H259 H 0.54645 0.10377 0.57319 0.0
C260 C 0.53613 0.15936 0.18634 0.0
C261 C 0.50923 0.16917 0.15132 0.0
C262 C 0.53741 0.13773 0.25335 0.0
C263 C 0.51185 0.12473 0.28788 0.0
C264 C 0.48524 0.13238 0.24661 0.0
C265 C 0.48397 0.15425 0.18012 0.0
C266 C 0.49277 0.06663 0.46729 0.0
C267 C 0.51174 0.07412 0.53682 0.0
C268 C 0.49304 0.08242 0.38621 0.0
C269 C 0.51268 0.10587 0.37139 0.0
C270 C 0.53226 0.11244 0.44044 0.0
C271 C 0.5316 0.0971 0.52135 0.0
H272 H 0.33318 0.47086 0.22357 0.0
H273 H 0.38315 0.5414 0.11145 0.0
H274 H 0.37006 0.46439 0.33842 0.0
H275 H 0.41971 0.53592 0.22771 0.0
H276 H 0.4867 0.51639 0.45209 0.0
H277 H 0.45763 0.51432 0.31468 0.0
H278 H 0.38249 0.48752 0.46655 0.0
H279 H 0.4111 0.48909 0.59994 0.0
C280 C 0.35281 0.48401 0.22042 0.0
C281 C 0.35539 0.50592 0.15528 0.0
C282 C 0.37376 0.48101 0.28852 0.0
C283 C 0.39803 0.50009 0.29522 0.0
C284 C 0.40177 0.52054 0.226 0.0
C285 C 0.38089 0.52338 0.15765 0.0
C286 C 0.46408 0.50966 0.45558 0.0
C287 C 0.45145 0.50272 0.53818 0.0
C288 C 0.44721 0.50863 0.37654 0.0
C289 C 0.41735 0.5003 0.37757 0.0
C290 C 0.4053 0.49323 0.46051 0.0
C291 C 0.42188 0.49444 0.53835 0.0
H292 H 0.07107 0.36699 0.15419 0.0
H293 H 0.97941 0.3495 0.18356 0.0
H294 H 0.06793 0.40506 0.26592 0.0
H295 H 0.97596 0.38859 0.29382 0.0
H296 H 0.98617 0.47592 0.47299 0.0
H297 H 0.98617 0.44752 0.33431 0.0
H298 H 0.05683 0.39487 0.43518 0.0
H299 H 0.05602 0.42218 0.57308 0.0
C300 C 0.04974 0.37261 0.17966 0.0
C301 C 0.02533 0.35553 0.15591 0.0
C302 C 0.04807 0.39411 0.24584 0.0
C303 C 0.02174 0.40004 0.29009 0.0
C304 C 0.99662 0.38499 0.26107 0.0
C305 C 0.99846 0.36288 0.19595 0.0
C306 C 1.00222 0.45881 0.46437 0.0
C307 C 0.02179 0.45203 0.53372 0.0
C308 C 1.00194 0.44221 0.38526 0.0
C309 C 0.02169 0.41886 0.37248 0.0
C310 C 0.04157 0.41281 0.44128 0.0
C311 C 0.04127 0.4287 0.52053 0.0
H312 H 0.88051 0.97537 0.36125 0.0
H313 H 0.83308 0.04855 0.25381 0.0
H314 H 0.91754 0.98116 0.2463 0.0
H315 H 0.86958 0.05417 0.13813 0.0
H316 H 0.90998 0.02585 0.8747 0.0
H317 H 0.88084 0.02809 1.00764 0.0
H318 H 0.95652 1.00603 0.16431 0.0
H319 H 0.98618 1.00383 0.02855 0.0
C320 C 0.87879 0.99382 0.31635 0.0
C321 C 0.85389 1.01197 0.31976 0.0
C322 C 0.89989 0.99683 0.24872 0.0
C323 C 0.89664 0.01775 0.18046 0.0
C324 C 0.87292 0.03734 0.18775 0.0
C325 C 0.85212 0.0346 0.25611 0.0
C326 C 0.92071 0.02159 0.93727 0.0
C327 C 0.95064 0.01451 0.93967 0.0
C328 C 0.90383 0.02316 0.01451 0.0
C329 C 0.91596 0.01749 0.09848 0.0
C330 C 0.94609 1.01048 0.10145 0.0
C331 C 0.96325 1.0093 0.02338 0.0
H332 H 0.4871 0.88489 0.36222 0.0
H333 H 0.55457 0.83168 0.24962 0.0
H334 H 0.49261 0.92051 0.24269 0.0
H335 H 0.56119 0.86767 0.13167 0.0
H336 H 0.537 0.90937 0.86944 0.0
H337 H 0.53838 0.88095 1.00372 0.0
H338 H 0.51435 0.95729 0.15306 0.0
H339 H 0.51233 0.98611 0.01458 0.0
C340 C 0.50444 0.88163 0.31478 0.0
C341 C 0.52112 0.85561 0.31835 0.0
C342 C 0.50732 0.90202 0.24474 0.0
C343 C 0.52701 0.89723 0.17481 0.0
C344 C 0.54518 0.87224 0.18209 0.0
C345 C 0.54213 0.85178 0.25188 0.0
C346 C 0.53241 0.92049 0.93078 0.0
C347 C 0.52496 0.95036 0.93008 0.0
C348 C 0.53343 0.90398 1.00911 0.0
C349 C 0.527 0.9164 0.09165 0.0
C350 C 0.51957 0.94656 0.09163 0.0
C351 C 0.51869 0.96335 1.01207 0.0
H352 H 0.68882 0.46999 0.26066 0.0
H353 H 0.64563 0.54645 0.35949 0.0
H354 H 0.65181 0.46557 0.14551 0.0
H355 H 0.60858 0.5424 0.24389 0.0
H356 H 0.54135 0.52554 0.01698 0.0
H357 H 0.56867 0.52109 0.15764 0.0
H358 H 0.64429 0.4918 0.01389 0.0
H359 H 0.61766 0.49612 0.87729 0.0
C360 C 0.67048 0.48491 0.26132 0.0
C361 C 0.6701 0.50813 0.32191 0.0
C362 C 0.64951 0.48294 0.19315 0.0
C363 C 0.62724 0.50412 0.18271 0.0
C364 C 0.62511 0.52558 0.24871 0.0
C365 C 0.64622 0.52761 0.31663 0.0
C366 C 0.56372 0.51796 0.01594 0.0
C367 C 0.57715 0.51137 0.93475 0.0
C368 C 0.57953 0.51545 0.09671 0.0
C369 C 0.60894 0.5057 0.09867 0.0
C370 C 0.62175 0.49872 0.01717 0.0
C371 C 0.60631 0.50157 0.93763 0.0
H372 H 0.04641 0.68641 0.25737 0.0
H373 H 0.96491 0.65198 0.35095 0.0
H374 H 0.04948 0.64785 0.14955 0.0
H375 H 0.96832 0.61188 0.24693 0.0
H376 H 0.9609 0.56341 0.98241 0.0
H377 H 0.96197 0.59425 0.11288 0.0
H378 H 0.05471 0.60719 0.07636 0.0
H379 H 0.05261 0.57776 0.94386 0.0
C380 C 0.03003 0.66933 0.25923 0.0
C381 C 1.00601 0.67207 0.31671 0.0
C382 C 0.03142 0.64703 0.19514 0.0
C383 C 1.0089 0.626 0.18553 0.0
C384 C 0.98598 0.62751 0.24811 0.0
C385 C 0.98442 0.65017 0.31118 0.0
C386 C 0.98164 0.57218 1.0041 0.0
C387 C 1.00681 0.56712 0.95357 0.0
C388 C 0.98241 0.59028 0.07975 0.0
C389 C 1.00848 0.60418 0.10835 0.0
C390 C 0.03384 0.59802 0.05842 0.0
C391 C 0.03288 0.58032 0.98235 0.0
H392 H 0.0594 0.24696 0.3418 0.0
H393 H 0.98331 0.27505 0.19557 0.0
H394 H 0.02799 0.21813 0.44016 0.0
H395 H 0.95192 0.24727 0.29402 0.0
H396 H 0.93101 0.14919 0.36116 0.0
H397 H 0.94819 0.19481 0.29868 0.0
H398 H 0.98798 0.21713 0.54875 0.0
H399 H 0.97112 0.17076 0.61067 0.0
C400 C 0.03596 0.2473 0.33261 0.0
C401 C 0.02346 0.26243 0.2622 0.0
C402 C 0.01799 0.23136 0.38884 0.0
C403 C 0.98761 0.2308 0.37419 0.0
C404 C 0.97522 0.24747 0.30627 0.0
C405 C 0.99308 0.26313 0.25027 0.0
C406 C 0.94184 0.16467 0.40405 0.0
C407 C 0.95001 0.15684 0.48993 0.0
C408 C 0.95184 0.19072 0.3684 0.0
C409 C 0.96975 0.20905 0.41916 0.0
C410 C 0.97448 0.20298 0.50869 0.0
C411 C 0.96459 0.17682 0.54418 0.0
H412 H 0.28069 0.07693 0.30542 0.0
H413 H 0.243 0.99618 0.21282 0.0
H414 H 0.31198 0.04857 0.40614 0.0
H415 H 0.27211 0.96852 0.31538 0.0
H416 H 0.37073 0.94326 0.34499 0.0
H417 H 0.32446 0.96257 0.29347 0.0
H418 H 0.31588 1.01256 0.53349 0.0
H419 H 0.36251 0.99301 0.58509 0.0
C420 C 0.27823 0.05342 0.30968 0.0
C421 C 0.25909 0.03881 0.25371 0.0
C422 C 0.29574 0.03723 0.36724 0.0
C423 C 0.29404 1.00648 0.36817 0.0
C424 C 0.27354 0.99218 0.31606 0.0
C425 C 0.25658 1.00814 0.2583 0.0
C426 C 0.35825 0.95721 0.38839 0.0
C427 C 0.36999 0.96713 0.46791 0.0
C428 C 0.33186 0.96835 0.35908 0.0
C429 C 0.31709 0.98932 0.40961 0.0
C430 C 0.32728 0.99669 0.49354 0.0
C431 C 0.35367 0.98546 0.52291 0.0
H432 H 0.55074 0.2331 0.31012 0.0
H433 H 0.48511 0.29927 0.26041 0.0
H434 H 0.5774 0.2669 0.40369 0.0
H435 H 0.51227 0.33311 0.35366 0.0
H436 H 0.59787 0.38398 0.32391 0.0
H437 H 0.57952 0.33601 0.2816 0.0
H438 H 0.55525 0.31817 0.55192 0.0
H439 H 0.5738 0.36618 0.59468 0.0
C440 C 0.54122 0.25431 0.32323 0.0
C441 C 0.51605 0.26399 0.27852 0.0
C442 C 0.55657 0.27346 0.37598 0.0
C443 C 0.54658 0.30199 0.38405 0.0
C444 C 0.51984 0.31077 0.34759 0.0
C445 C 0.50444 0.29164 0.2949 0.0
C446 C 0.59055 0.36894 0.3749 0.0
C447 C 0.58718 0.37812 0.46203 0.0
C448 C 0.57988 0.34186 0.35087 0.0
C449 C 0.56618 0.32423 0.41439 0.0
C450 C 0.56615 0.33178 0.50329 0.0
C451 C 0.57687 0.35887 0.52742 0.0
H452 H 0.27757 0.60791 0.2119 0.0
H453 H 0.26733 0.51481 0.24973 0.0
H454 H 0.24004 0.61642 0.3251 0.0
H455 H 0.23007 0.52324 0.36077 0.0
H456 H 0.1343 0.56821 0.31658 0.0
H457 H 0.18404 0.56602 0.25952 0.0
H458 H 0.21821 0.58179 0.52092 0.0
H459 H 0.16787 0.58412 0.57857 0.0
C460 C 0.26809 0.58957 0.24715 0.0
C461 C 0.27458 0.56095 0.22322 0.0
C462 C 0.24716 0.59431 0.31184 0.0
C463 C 0.23301 0.57037 0.35104 0.0
C464 C 0.24157 0.5418 0.33258 0.0
C465 C 0.26242 0.53708 0.2688 0.0
C466 C 0.15251 0.5717 0.36109 0.0
C467 C 0.14802 0.57674 0.45072 0.0
C468 C 0.18061 0.57052 0.32895 0.0
C469 C 0.2042 0.57431 0.38657 0.0
C470 C 0.19986 0.57942 0.47637 0.0
C471 C 0.17151 0.58068 0.50874 0.0
H472 H 0.01926 0.73222 0.14984 0.0
H473 H 0.96022 0.80127 0.22815 0.0
H474 H 0.04793 0.76706 0.06682 0.0
H475 H 0.99003 0.8363 0.14637 0.0
H476 H 0.07508 0.88478 0.16963 0.0
H477 H 0.04806 0.84103 0.21343 0.0
H478 H 0.04307 0.81435 0.94087 0.0
H479 H 0.06993 0.85845 0.89689 0.0
C480 C 1.01126 0.75445 0.14527 0.0
C481 C 0.98783 0.76432 0.19759 0.0
C482 C 0.02808 0.77435 0.09859 0.0
C483 C 0.02136 0.80394 0.10362 0.0
C484 C 0.99553 0.81328 0.14384 0.0
C485 C 0.97839 0.79333 0.18948 0.0
C486 C 0.06968 0.86865 0.12012 0.0
C487 C 0.07461 0.87427 0.03061 0.0
C488 C 0.05385 0.84415 0.14462 0.0
C489 C 0.04315 0.82538 0.07941 0.0
C490 C 0.05113 0.82905 0.99113 0.0
C491 C 0.06678 0.85376 0.96648 0.0
H492 H 0.74625 0.9531 0.17667 0.0
H493 H 0.78425 0.03369 0.26963 0.0
H494 H 0.71459 0.98156 0.0774 0.0
H495 H 0.75392 0.0616 0.17018 0.0
H496 H 0.6542 0.0852 0.14046 0.0
H497 H 0.70076 0.06648 0.1927 0.0
H498 H 0.71122 0.01822 0.95022 0.0
H499 H 0.66436 0.03707 0.89809 0.0
C500 C 0.74858 0.97664 0.17301 0.0
C501 C 0.76784 0.99118 0.22871 0.0
C502 C 0.73081 0.99288 0.11641 0.0
C503 C 0.73224 0.02364 0.11654 0.0
C504 C 0.75275 0.03794 0.16871 0.0
C505 C 0.77024 0.02187 0.22487 0.0
C506 C 0.66716 0.07175 0.09687 0.0
C507 C 0.65596 0.06211 0.01631 0.0
C508 C 0.69368 0.06098 0.12653 0.0
C509 C 0.70907 0.04067 0.07532 0.0
C510 C 0.69934 0.03361 0.99062 0.0
C511 C 0.67283 0.04443 0.96095 0.0
H512 H 0.51007 0.75456 0.28945 0.0
H513 H 0.42335 0.78822 0.2401 0.0
H514 H 0.5033 0.71802 0.17607 0.0
H515 H 0.41652 0.75081 0.1251 0.0
H516 H 0.47537 0.66753 0.91854 0.0
H517 H 0.47732 0.71728 0.9789 0.0
H518 H 0.43137 0.68749 0.21124 0.0
H519 H 0.42995 0.6381 0.15303 0.0
C520 C 0.48968 0.75425 0.25299 0.0
C521 C 0.46656 0.77306 0.27453 0.0
C522 C 0.48618 0.73392 0.18735 0.0
C523 C 0.45965 0.73244 0.14249 0.0
C524 C 0.43722 0.75242 0.15929 0.0
C525 C 0.44084 0.77316 0.22512 0.0
C526 C 0.4652 0.672 0.98155 0.0
C527 C 0.45217 0.64957 0.03134 0.0
C528 C 0.466 0.70018 0.01493 0.0
C529 C 0.45342 0.7057 0.09706 0.0
C530 C 0.4399 0.68347 0.14569 0.0
C531 C 0.43929 0.65544 0.11292 0.0
H532 H 0.73386 0.49703 0.20091 0.0
H533 H 0.78955 0.57238 0.23721 0.0
H534 H 0.77337 0.4711 0.13162 0.0
H535 H 0.82919 0.54633 0.16475 0.0
H536 H 0.899 0.47971 0.19769 0.0
H537 H 0.85365 0.50328 0.24107 0.0
H538 H 0.81108 0.46911 1.00853 0.0
H539 H 0.85685 0.44535 0.96547 0.0
C540 C 0.75394 0.50886 0.18885 0.0
C541 C 0.75879 0.53688 0.22458 0.0
C542 C 0.77665 0.49372 0.15011 0.0
C543 C 0.80418 0.50662 0.14554 0.0
C544 C 0.80801 0.53593 0.16988 0.0
C545 C 0.78533 0.55106 0.20933 0.0
C546 C 0.87956 0.47635 0.15818 0.0
C547 C 0.88079 0.46074 0.07939 0.0
C548 C 0.85397 0.49023 0.18161 0.0
C549 C 0.82956 0.4887 0.12592 0.0
C550 C 0.82999 0.47079 0.05126 0.0
C551 C 0.85578 0.45695 0.02749 0.0
H552 H 0.06451 0.2599 0.89943 0.0
H553 H 0.9818 0.24599 0.02645 0.0
H554 H 0.06034 0.21189 0.82819 0.0
H555 H 0.97826 0.19767 0.95907 0.0
H556 H 1.01308 0.09953 0.94915 0.0
H557 H 1.01205 0.15118 0.99146 0.0
H558 H 0.02626 0.17657 0.72047 0.0
H559 H 0.02578 0.1246 0.67743 0.0
C560 C 0.04462 0.24746 0.90831 0.0
C561 C 0.02291 0.25794 0.9662 0.0
C562 C 0.0425 0.21945 0.86881 0.0
C563 C 0.01909 0.20038 0.88829 0.0
C564 C 0.99668 0.21143 0.94226 0.0
C565 C 0.99838 0.23966 0.97939 0.0
C566 C 0.01589 0.11605 0.89829 0.0
C567 C 0.01952 0.10757 0.8097 0.0
C568 C 0.01518 0.14583 0.92258 0.0
C569 C 0.0191 0.16846 0.85979 0.0
C570 C 0.0232 0.16001 0.77106 0.0
C571 C 0.02283 0.13011 0.74623 0.0
H572 H 0.28479 0.98392 0.05542 0.0
H573 H 0.26582 0.05733 0.88621 0.0
H574 H 0.3331 0.97945 0.98815 0.0
H575 H 0.31405 0.05287 0.81777 0.0
H576 H 0.40211 0.026 0.67987 0.0
H577 H 0.35077 0.02589 0.72812 0.0
H578 H 0.37864 1.00672 0.99447 0.0
H579 H 0.42959 1.00796 0.94662 0.0
C580 C 0.29021 0.99813 1.00032 0.0
C581 C 0.27036 0.02012 0.97397 0.0
C582 C 0.31845 0.99611 0.96301 0.0
C583 C 0.32821 0.01597 0.89741 0.0
C584 C 0.30772 0.03688 0.86719 0.0
C585 C 0.2796 0.03915 0.90553 0.0
C586 C 0.39724 0.02177 0.74873 0.0
C587 C 0.42029 0.01706 0.80918 0.0
C588 C 0.36766 0.02178 0.77673 0.0
C589 C 0.35993 0.01604 0.8657 0.0
C590 C 0.38316 1.01089 0.92538 0.0
C591 C 0.41263 1.01181 0.89798 0.0
H592 H 0.55529 0.27186 0.96005 0.0
H593 H 0.46156 0.27291 0.95386 0.0
H594 H 0.55645 0.31955 0.88567 0.0
H595 H 0.46242 0.32036 0.8792 0.0
H596 H 0.47186 0.4205 0.87399 0.0
H597 H 0.47108 0.36929 0.91805 0.0
H598 H 0.54892 0.35386 0.76563 0.0
H599 H 0.54967 0.40558 0.72146 0.0
C600 C 0.53487 0.28135 0.93794 0.0
C601 C 0.50832 0.2674 0.96019 0.0
C602 C 0.53549 0.30926 0.89651 0.0
C603 C 0.50952 0.32473 0.87703 0.0
C604 C 0.48303 0.30989 0.89406 0.0
C605 C 0.48247 0.28197 0.93478 0.0
C606 C 0.4888 0.4063 0.84906 0.0
C607 C 0.51081 0.41773 0.79377 0.0
C608 C 0.48825 0.37652 0.87409 0.0
C609 C 0.50984 0.35664 0.84574 0.0
C610 C 0.5319 0.36806 0.78998 0.0
C611 C 0.53227 0.39793 0.76404 0.0
H612 H 0.26336 0.54189 0.86738 0.0
H613 H 0.24214 0.47655 0.06184 0.0
H614 H 0.21519 0.53696 0.80159 0.0
H615 H 0.19342 0.4722 1.00027 0.0
H616 H 0.10449 0.46292 0.87473 0.0
H617 H 0.15541 0.46179 0.91756 0.0
H618 H 0.16788 0.54664 0.79558 0.0
H619 H 0.11711 0.5466 0.74862 0.0
C620 C 0.24877 0.5254 0.89387 0.0
C621 C 0.25762 0.50859 0.96781 0.0
C622 C 0.22036 0.52315 0.85765 0.0
C623 C 0.19896 0.50441 0.8949 0.0
C624 C 0.20843 0.48671 0.96687 0.0
C625 C 0.23699 0.4888 1.00234 0.0
C626 C 0.1181 0.48132 0.85637 0.0
C627 C 0.10608 0.50487 0.80788 0.0
C628 C 0.14779 0.48088 0.88208 0.0
C629 C 0.16704 0.50424 0.86214 0.0
C630 C 0.15486 0.52774 0.81251 0.0
C631 C 0.1252 0.52792 0.78556 0.0
H632 H 0.04886 0.77981 0.46246 0.0
H633 H 0.96131 0.76911 0.55827 0.0
H634 H 0.05222 0.82714 0.53665 0.0
H635 H 0.96439 0.81627 0.63248 0.0
H636 H 0.96379 0.91776 0.6408 0.0
H637 H 0.96337 0.86691 0.59264 0.0
H638 H 0.05393 0.85841 0.66627 0.0
H639 H 0.05407 0.90936 0.71602 0.0
C640 C 0.03089 0.78663 0.50378 0.0
C641 C 1.0053 0.76939 0.50727 0.0
C642 C 0.03256 0.81433 0.54529 0.0
C643 C 1.00845 0.82636 0.59056 0.0
C644 C 0.98343 0.80844 0.59773 0.0
C645 C 0.9819 0.78072 0.557 0.0
C646 C 0.9836 0.90505 0.64773 0.0
C647 C 1.00889 0.91809 0.68321 0.0
C648 C 0.98337 0.87555 0.62022 0.0
C649 C 1.00862 0.85781 0.62495 0.0
C650 C 0.03397 0.87093 0.66055 0.0
C651 C 0.03401 0.90032 0.68994 0.0
H652 H 0.74239 0.04456 0.42575 0.0
H653 H 0.76189 0.97216 0.59852 0.0
H654 H 0.69385 0.04868 0.49164 0.0
H655 H 0.71347 0.97653 0.66618 0.0
H656 H 0.62464 1.00593 0.80006 0.0
H657 H 0.67623 1.00639 0.75406 0.0
H658 H 0.64927 0.01772 0.48306 0.0
H659 H 0.5981 0.01599 0.52866 0.0
C660 C 0.73705 0.03058 0.48146 0.0
C661 C 0.75704 1.00888 0.50904 0.0
C662 C 0.70873 0.03242 0.51798 0.0
C663 C 0.69915 1.01277 0.58423 0.0
C664 C 0.71977 0.99229 0.61607 0.0
C665 C 0.74796 0.99011 0.57825 0.0
C666 C 0.62976 1.00844 0.73063 0.0
C667 C 0.60695 1.01075 0.66818 0.0
C668 C 0.65944 1.00866 0.70407 0.0
C669 C 0.6674 1.01234 0.61444 0.0
C670 C 0.64443 0.01514 0.55263 0.0
C671 C 0.61488 1.01393 0.57879 0.0
H672 H 0.5523 0.74754 0.43646 0.0
H673 H 0.48287 0.76512 0.61856 0.0
H674 H 0.55792 0.69889 0.49925 0.0
H675 H 0.48657 0.71621 0.67823 0.0
H676 H 0.4933 0.62294 0.78137 0.0
H677 H 0.49537 0.67443 0.74174 0.0
H678 H 0.54814 0.65295 0.51441 0.0
H679 H 0.54723 0.60224 0.55804 0.0
C680 C 0.53895 0.74146 0.49259 0.0
C681 C 0.5178 0.76113 0.52376 0.0
C682 C 0.54135 0.7127 0.52747 0.0
C683 C 0.52215 0.70184 0.5938 0.0
C684 C 0.50216 0.72241 0.62819 0.0
C685 C 0.50021 0.75123 0.59444 0.0
C686 C 0.50554 0.62931 0.72323 0.0
C687 C 0.52017 0.60788 0.67357 0.0
C688 C 0.50665 0.65934 0.69931 0.0
C689 C 0.522 0.66942 0.62337 0.0
C690 C 0.53648 0.64757 0.57415 0.0
C691 C 0.53579 0.61776 0.59903 0.0
H692 H 0.78569 0.47797 0.41334 0.0
H693 H 0.76049 0.54164 0.6061 0.0
H694 H 0.83438 0.4752 0.47918 0.0
H695 H 0.80912 0.53839 0.67415 0.0
H696 H 0.89974 0.50944 0.80267 0.0
H697 H 0.8484 0.50769 0.75396 0.0
H698 H 0.87661 0.50964 0.48257 0.0
H699 H 0.92749 0.51267 0.53133 0.0
C700 C 0.78988 0.49009 0.47325 0.0
C701 C 0.7682 0.509 0.50637 0.0
C702 C 0.81827 0.48912 0.50986 0.0
C703 C 0.82627 0.50676 0.58209 0.0
C704 C 0.80408 0.52423 0.6192 0.0
C705 C 0.77578 0.52568 0.58115 0.0
C706 C 0.89495 0.50963 0.73259 0.0
C707 C 0.91801 0.51137 0.67114 0.0
C708 C 0.86539 0.50867 0.70448 0.0
C709 C 0.85788 0.50827 0.61384 0.0
C710 C 0.88112 0.50962 0.55279 0.0
C711 C 0.91049 0.51157 0.58084 0.0
loop_
_geom_bond_atom_site_label_1
_geom_bond_atom_site_label_2
_geom_bond_distance
_geom_bond_site_symmetry_2
_ccdc_geom_bond_type
H0 C3 0.931 . S
H1 C6 0.928 . S
H2 C8 0.930 . S
C3 H0 0.931 . S
C3 C4 1.413 . S
C3 C5 1.360 . S
C4 C3 1.413 . S
C4 C8 1.429 . S
C5 C3 1.360 . S
C5 C6 1.372 . S
C6 H1 0.928 . S
C6 C5 1.372 . S
C6 C7 1.404 . S
C7 C6 1.404 . S
C7 C8 1.391 . S
C8 H2 0.930 . S
C8 C4 1.429 . S
C8 C7 1.391 . S
H9 C12 0.931 . S
H10 C15 0.928 . S
H11 C17 0.930 . S
C12 H9 0.931 . S
C12 C13 1.413 . S
C12 C14 1.360 . S
C13 C12 1.413 . S
C13 C17 1.429 1_655 S
C14 C12 1.360 . S
C14 C15 1.372 . S
C15 H10 0.928 . S
C15 C14 1.372 . S
C15 C16 1.404 . S
C16 C15 1.404 . S
C16 C17 1.390 1_655 S
C17 H11 0.930 . S
C17 C13 1.429 1_455 S
C17 C16 1.390 1_455 S
H18 C21 0.931 . S
H19 C24 0.928 . S
H20 C26 0.930 . S
C21 H18 0.931 . S
C21 C22 1.413 . S
C21 C23 1.360 . S
C22 C21 1.413 . S
C22 C26 1.429 1_565 S
C23 C21 1.360 . S
C23 C24 1.372 . S
C24 H19 0.928 . S
C24 C23 1.372 . S
C24 C25 1.404 . S
C25 C24 1.404 . S
C25 C26 1.390 1_565 S
C26 H20 0.930 . S
C26 C22 1.429 1_545 S
C26 C25 1.390 1_545 S
H27 C30 0.931 . S
H28 C33 0.928 . S
H29 C35 0.930 . S
C30 H27 0.931 . S
C30 C31 1.413 . S
C30 C32 1.360 . S
C31 C30 1.413 . S
C31 C35 1.429 . S
C32 C30 1.360 . S
C32 C33 1.372 . S
C33 H28 0.928 . S
C33 C32 1.372 . S
C33 C34 1.404 . S
C34 C33 1.404 . S
C34 C35 1.391 . S
C35 H29 0.930 . S
C35 C31 1.429 . S
C35 C34 1.391 . S
H36 C39 0.931 . S
H37 C42 0.928 . S
H38 C44 0.930 . S
C39 H36 0.931 . S
C39 C40 1.413 1_554 S
C39 C41 1.360 . S
C40 C39 1.413 1_556 S
C40 C44 1.429 . S
C41 C39 1.360 . S
C41 C42 1.372 . S
C42 H37 0.928 . S
C42 C41 1.372 . S
C42 C43 1.404 . S
C43 C42 1.404 . S
C43 C44 1.391 1_554 S
C44 H38 0.930 . S
C44 C40 1.429 . S
C44 C43 1.391 1_556 S
H45 C48 0.931 . S
H46 C51 0.928 . S
H47 C53 0.930 . S
C48 H45 0.931 . S
C48 C49 1.413 1_554 S
C48 C50 1.360 . S
C49 C48 1.413 1_556 S
C49 C53 1.429 1_655 S
C50 C48 1.360 . S
C50 C51 1.372 . S
C51 H46 0.928 . S
C51 C50 1.372 . S
C51 C52 1.404 . S
C52 C51 1.404 . S
C52 C53 1.391 1_654 S
C53 H47 0.930 . S
C53 C49 1.429 1_455 S
C53 C52 1.391 1_456 S
H54 C57 0.931 . S
H55 C60 0.928 . S
H56 C62 0.930 . S
C57 H54 0.931 . S
C57 C58 1.413 1_554 S
C57 C59 1.360 . S
C58 C57 1.413 1_556 S
C58 C62 1.429 1_565 S
C59 C57 1.360 . S
C59 C60 1.372 . S
C60 H55 0.928 . S
C60 C59 1.372 . S
C60 C61 1.404 . S
C61 C60 1.404 . S
C61 C62 1.391 1_564 S
C62 H56 0.930 . S
C62 C58 1.429 1_545 S
C62 C61 1.391 1_546 S
H63 C66 0.931 . S
H64 C69 0.928 . S
H65 C71 0.930 . S
C66 H63 0.931 . S
C66 C67 1.413 . S
C66 C68 1.360 1_554 S
C67 C66 1.413 . S
C67 C71 1.429 . S
C68 C66 1.360 1_556 S
C68 C69 1.372 . S
C69 H64 0.928 . S
C69 C68 1.372 . S
C69 C70 1.404 1_556 S
C70 C69 1.404 1_554 S
C70 C71 1.391 . S
C71 H65 0.930 . S
C71 C67 1.429 . S
C71 C70 1.391 . S
C72 Eu73 2.835 . S
C72 C74 1.500 . S
C72 O92 1.257 . S
C72 O93 1.260 . S
Eu73 C72 2.835 . S
Eu73 O92 2.473 . S
Eu73 O93 2.480 . S
Eu73 O94 2.430 . S
Eu73 O95 2.670 1_545 S
Eu73 O96 2.394 . S
Eu73 O101 2.355 1_655 S
Eu73 O103 2.374 1_545 S
C74 C72 1.500 . S
C74 C75 1.377 . S
C74 C79 1.377 . S
C75 C74 1.377 . S
C75 C76 1.395 . S
C75 H104 0.931 . S
C76 C75 1.395 . S
C76 C77 1.383 . S
C76 H105 0.931 . S
C77 C76 1.383 . S
C77 C78 1.394 . S
C78 C77 1.394 . S
C78 C79 1.378 . S
C78 H106 0.902 1_655 S
C79 C74 1.377 . S
C79 C78 1.378 . S
C79 H107 0.931 1_655 S
C80 O94 1.259 . S
C80 O95 1.270 1_545 S
C81 O96 1.251 1_455 S
C81 O97 1.251 . S
C82 Eu83 2.835 . S
C82 C84 1.500 . S
C82 O98 1.257 . S
C82 O99 1.260 . S
Eu83 C82 2.835 . S
Eu83 O95 2.355 1_455 S
Eu83 O97 2.374 1_565 S
Eu83 O98 2.473 . S
Eu83 O99 2.480 . S
Eu83 O100 2.430 . S
Eu83 O101 2.670 1_565 S
Eu83 O102 2.394 . S
C84 C82 1.500 . S
C84 C85 1.377 . S
C84 C89 1.377 . S
C85 C84 1.377 . S
C85 C86 1.395 . S
C85 H108 0.931 . S
C86 C85 1.395 . S
C86 C87 1.383 1_556 S
C86 H109 0.931 . S
C87 C86 1.383 1_554 S
C87 C88 1.394 . S
C88 C87 1.394 . S
C88 C89 1.378 1_554 S
C88 H110 0.910 1_455 S
C89 C84 1.377 . S
C89 C88 1.378 1_556 S
C89 H111 0.931 1_455 S
C90 O100 1.259 . S
C90 O101 1.270 1_565 S
C91 O102 1.251 1_655 S
C91 O103 1.251 . S
O92 C72 1.257 . S
O92 Eu73 2.473 . S
O93 C72 1.260 . S
O93 Eu73 2.480 . S
O94 Eu73 2.430 . S
O94 C80 1.259 . S
O95 Eu73 2.670 1_565 S
O95 C80 1.270 1_565 S
O95 Eu83 2.355 1_655 S
O96 Eu73 2.394 . S
O96 C81 1.251 1_655 S
O97 C81 1.251 . S
O97 Eu83 2.374 1_545 S
O98 C82 1.257 . S
O98 Eu83 2.473 . S
O99 C82 1.260 . S
O99 Eu83 2.480 . S
O100 Eu83 2.430 . S
O100 C90 1.259 . S
O101 Eu73 2.355 1_455 S
O101 Eu83 2.670 1_545 S
O101 C90 1.270 1_545 S
O102 Eu83 2.394 . S
O102 C91 1.251 1_455 S
O103 Eu73 2.374 1_565 S
O103 C91 1.251 . S
H104 C75 0.931 . S
H105 C76 0.931 . S
H106 C78 0.902 1_455 S
H107 C79 0.931 1_455 S
H108 C85 0.931 . S
H109 C86 0.931 . S
H110 C88 0.910 1_655 S
H111 C89 0.931 1_655 S
C112 Eu113 2.835 . S
C112 C114 1.500 . S
C112 O132 1.257 . S
C112 O133 1.260 . S
Eu113 C112 2.835 . S
Eu113 O132 2.473 . S
Eu113 O133 2.480 . S
Eu113 O134 2.430 . S
Eu113 O135 2.670 . S
Eu113 O136 2.394 . S
Eu113 O141 2.355 1_565 S
Eu113 O143 2.374 . S
C114 C112 1.500 . S
C114 C115 1.377 . S
C114 C119 1.377 . S
C115 C114 1.377 . S
C115 C116 1.395 . S
C115 H144 0.931 . S
C116 C115 1.395 . S
C116 C117 1.383 . S
C116 H145 0.931 . S
C117 C116 1.383 . S
C117 C118 1.394 . S
C118 C117 1.394 . S
C118 C119 1.378 . S
C118 H146 0.931 1_565 S
C119 C114 1.377 . S
C119 C118 1.378 . S
C119 H147 0.931 1_565 S
C120 O134 1.259 . S
C120 O135 1.270 . S
C121 O136 1.251 1_545 S
C121 O137 1.251 . S
C122 Eu123 2.835 . S
C122 C124 1.500 . S
C122 O138 1.257 . S
C122 O139 1.260 . S
Eu123 C122 2.835 . S
Eu123 O135 2.355 1_545 S
Eu123 O137 2.374 . S
Eu123 O138 2.473 . S
Eu123 O139 2.480 . S
Eu123 O140 2.430 . S
Eu123 O141 2.670 . S
Eu123 O142 2.394 . S
C124 C122 1.500 . S
C124 C125 1.377 . S
C124 C129 1.377 . S
C125 C124 1.377 . S
C125 C126 1.395 . S
C125 H148 0.931 . S
C126 C125 1.395 . S
C126 C127 1.383 1_556 S
C126 H149 0.931 . S
C127 C126 1.383 1_554 S
C127 C128 1.394 . S
C128 C127 1.394 . S
C128 C129 1.378 1_554 S
C128 H150 0.931 1_545 S
C129 C124 1.377 . S
C129 C128 1.378 1_556 S
C129 H151 0.931 1_545 S
C130 O140 1.259 . S
C130 O141 1.270 . S
C131 O142 1.251 1_565 S
C131 O143 1.251 . S
O132 C112 1.257 . S
O132 Eu113 2.473 . S
O133 C112 1.260 . S
O133 Eu113 2.480 . S
O134 Eu113 2.430 . S
O134 C120 1.259 . S
O135 Eu113 2.670 . S
O135 C120 1.270 . S
O135 Eu123 2.355 1_565 S
O136 Eu113 2.394 . S
O136 C121 1.251 1_565 S
O137 C121 1.251 . S
O137 Eu123 2.374 . S
O138 C122 1.257 . S
O138 Eu123 2.473 . S
O139 C122 1.260 . S
O139 Eu123 2.480 . S
O140 Eu123 2.430 . S
O140 C130 1.259 . S
O141 Eu113 2.355 1_545 S
O141 Eu123 2.670 . S
O141 C130 1.270 . S
O142 Eu123 2.394 . S
O142 C131 1.251 1_545 S
O143 Eu113 2.374 . S
O143 C131 1.251 . S
H144 C115 0.931 . S
H145 C116 0.931 . S
H146 C118 0.931 1_545 S
H147 C119 0.931 1_545 S
H148 C125 0.931 . S
H149 C126 0.931 . S
H150 C128 0.931 1_565 S
H151 C129 0.931 1_565 S
C152 Eu153 2.835 . S
C152 C154 1.500 . S
C152 O172 1.257 . S
C152 O173 1.260 . S
Eu153 C152 2.835 . S
Eu153 O172 2.473 . S
Eu153 O173 2.480 . S
Eu153 O174 2.430 . S
Eu153 O175 2.670 . S
Eu153 O176 2.394 . S
Eu153 O181 2.355 . S
Eu153 O183 2.374 . S
C154 C152 1.500 . S
C154 C155 1.377 . S
C154 C159 1.377 . S
C155 C154 1.377 . S
C155 C156 1.395 . S
C155 H184 0.931 . S
C156 C155 1.395 . S
C156 C157 1.383 . S
C156 H185 0.931 . S
C157 C156 1.383 . S
C157 C158 1.394 . S
C158 C157 1.394 . S
C158 C159 1.378 . S
C158 H186 0.931 . S
C159 C154 1.377 . S
C159 C158 1.378 . S
C159 H187 0.931 . S
C160 O174 1.259 . S
C160 O175 1.270 . S
C161 O176 1.251 . S
C161 O177 1.251 . S
C162 Eu163 2.835 . S
C162 C164 1.500 . S
C162 O178 1.257 . S
C162 O179 1.260 . S
Eu163 C162 2.835 . S
Eu163 O175 2.355 . S
Eu163 O177 2.374 . S
Eu163 O178 2.473 . S
Eu163 O179 2.480 . S
Eu163 O180 2.430 . S
Eu163 O181 2.670 . S
Eu163 O182 2.394 . S
C164 C162 1.500 . S
C164 C165 1.377 . S
C164 C169 1.377 . S
C165 C164 1.377 . S
C165 C166 1.395 . S
C165 H188 0.931 . S
C166 C165 1.395 . S
C166 C167 1.383 1_556 S
C166 H189 0.932 . S
C167 C166 1.383 1_554 S
C167 C168 1.394 . S
C168 C167 1.394 . S
C168 C169 1.378 1_554 S
C168 H190 0.931 . S
C169 C164 1.377 . S
C169 C168 1.378 1_556 S
C169 H191 0.931 . S
C170 O180 1.259 . S
C170 O181 1.270 . S
C171 O182 1.251 . S
C171 O183 1.251 . S
O172 C152 1.257 . S
O172 Eu153 2.473 . S
O173 C152 1.260 . S
O173 Eu153 2.480 . S
O174 Eu153 2.430 . S
O174 C160 1.259 . S
O175 Eu153 2.670 . S
O175 C160 1.270 . S
O175 Eu163 2.355 . S
O176 Eu153 2.394 . S
O176 C161 1.251 . S
O177 C161 1.251 . S
O177 Eu163 2.374 . S
O178 C162 1.257 . S
O178 Eu163 2.473 . S
O179 C162 1.260 . S
O179 Eu163 2.480 . S
O180 Eu163 2.430 . S
O180 C170 1.259 . S
O181 Eu153 2.355 . S
O181 Eu163 2.670 . S
O181 C170 1.270 . S
O182 Eu163 2.394 . S
O182 C171 1.251 . S
O183 Eu153 2.374 . S
O183 C171 1.251 . S
H184 C155 0.931 . S
H185 C156 0.931 . S
H186 C158 0.931 . S
H187 C159 0.931 . S
H188 C165 0.931 . S
H189 C166 0.932 . S
H190 C168 0.931 . S
H191 C169 0.931 . S
C192 Eu193 2.835 . S
C192 C194 1.500 . S
C192 O212 1.257 . S
C192 O213 1.260 . S
Eu193 C192 2.835 . S
Eu193 O212 2.473 . S
Eu193 O213 2.480 . S
Eu193 O214 2.430 . S
Eu193 O215 2.670 1_455 S
Eu193 O216 2.394 . S
Eu193 O221 2.355 . S
Eu193 O223 2.374 1_455 S
C194 C192 1.500 . S
C194 C195 1.377 . S
C194 C199 1.377 . S
C195 C194 1.377 . S
C195 C196 1.395 . S
C195 H224 0.931 . S
C196 C195 1.395 . S
C196 C197 1.383 . S
C196 H225 0.931 . S
C197 C196 1.383 . S
C197 C198 1.394 . S
C198 C197 1.394 . S
C198 C199 1.378 . S
C198 H226 0.931 . S
C199 C194 1.377 . S
C199 C198 1.378 . S
C199 H227 0.931 . S
C200 O214 1.260 . S
C200 O215 1.269 1_455 S
C201 O216 1.251 . S
C201 O217 1.251 . S
C202 Eu203 2.835 . S
C202 C204 1.500 . S
C202 O218 1.257 . S
C202 O219 1.260 . S
Eu203 C202 2.835 . S
Eu203 O215 2.355 . S
Eu203 O217 2.374 1_655 S
Eu203 O218 2.473 . S
Eu203 O219 2.480 . S
Eu203 O220 2.430 . S
Eu203 O221 2.670 1_655 S
Eu203 O222 2.394 . S
C204 C202 1.500 . S
C204 C205 1.377 . S
C204 C209 1.377 . S
C205 C204 1.377 . S
C205 C206 1.395 . S
C205 H228 0.931 . S
C206 C205 1.395 . S
C206 C207 1.383 1_556 S
C206 H229 0.931 . S
C207 C206 1.383 1_554 S
C207 C208 1.394 . S
C208 C207 1.394 . S
C208 C209 1.378 1_554 S
C208 H230 0.931 . S
C209 C204 1.377 . S
C209 C208 1.378 1_556 S
C209 H231 0.931 . S
C210 O220 1.260 1_455 S
C210 O221 1.269 . S
C211 O222 1.251 . S
C211 O223 1.251 . S
O212 C192 1.257 . S
O212 Eu193 2.473 . S
O213 C192 1.260 . S
O213 Eu193 2.480 . S
O214 Eu193 2.430 . S
O214 C200 1.260 . S
O215 Eu193 2.670 1_655 S
O215 C200 1.269 1_655 S
O215 Eu203 2.355 . S
O216 Eu193 2.394 . S
O216 C201 1.251 . S
O217 C201 1.251 . S
O217 Eu203 2.374 1_455 S
O218 C202 1.257 . S
O218 Eu203 2.473 . S
O219 C202 1.260 . S
O219 Eu203 2.480 . S
O220 Eu203 2.430 . S
O220 C210 1.260 1_655 S
O221 Eu193 2.355 . S
O221 Eu203 2.670 1_455 S
O221 C210 1.269 . S
O222 Eu203 2.394 . S
O222 C211 1.251 . S
O223 Eu193 2.374 1_655 S
O223 C211 1.251 . S
H224 C195 0.931 . S
H225 C196 0.931 . S
H226 C198 0.931 . S
H227 C199 0.931 . S
H228 C205 0.931 . S
H229 C206 0.931 . S
H230 C208 0.931 . S
H231 C209 0.931 . S
H232 C240 0.950 . S
H233 C245 0.950 . S
H234 C242 0.950 . S
H235 C244 0.950 . S
H236 C246 0.950 . S
H237 C248 0.950 . S
H238 C250 0.950 . S
H239 C251 0.950 . S
C240 H232 0.950 . S
C240 C241 1.386 1_565 S
C240 C242 1.391 . S
C241 C240 1.386 1_545 S
C241 C245 1.393 . S
C242 H234 0.950 . S
C242 C240 1.391 . S
C242 C243 1.395 1_565 S
C243 C242 1.395 1_545 S
C243 C244 1.405 . S
C243 C249 1.490 1_545 S
C244 H235 0.950 . S
C244 C243 1.405 . S
C244 C245 1.391 . S
C245 H233 0.950 . S
C245 C241 1.393 . S
C245 C244 1.391 . S
C246 H236 0.950 . S
C246 C247 1.377 1_545 S
C246 C248 1.391 . S
C247 C246 1.377 1_565 S
C247 C251 1.403 . S
C248 H237 0.950 . S
C248 C246 1.391 . S
C248 C249 1.397 1_545 S
C249 C243 1.490 1_565 S
C249 C248 1.397 1_565 S
C249 C250 1.403 . S
C250 H238 0.950 . S
C250 C249 1.403 . S
C250 C251 1.391 . S
C251 H239 0.950 . S
C251 C247 1.403 . S
C251 C250 1.391 . S
H252 C260 0.950 . S
H253 C265 0.950 . S
H254 C262 0.950 . S
H255 C264 0.950 . S
H256 C266 0.950 . S
H257 C268 0.950 . S
H258 C270 0.950 . S
H259 C271 0.950 . S
C260 H252 0.950 . S
C260 C261 1.386 . S
C260 C262 1.391 . S
C261 C260 1.386 . S
C261 C265 1.393 . S
C262 H254 0.950 . S
C262 C260 1.391 . S
C262 C263 1.400 . S
C263 C262 1.400 . S
C263 C264 1.398 . S
C263 C269 1.491 . S
C264 H255 0.950 . S
C264 C263 1.398 . S
C264 C265 1.391 . S
C265 H253 0.950 . S
C265 C261 1.393 . S
C265 C264 1.391 . S
C266 H256 0.950 . S
C266 C267 1.386 . S
C266 C268 1.391 . S
C267 C266 1.386 . S
C267 C271 1.393 . S
C268 H257 0.950 . S
C268 C266 1.391 . S
C268 C269 1.400 . S
C269 C263 1.491 . S
C269 C268 1.400 . S
C269 C270 1.398 . S
C270 H258 0.950 . S
C270 C269 1.398 . S
C270 C271 1.391 . S
C271 H259 0.950 . S
C271 C267 1.393 . S
C271 C270 1.391 . S
H272 C280 0.950 . S
H273 C285 0.950 . S
H274 C282 0.950 . S
H275 C284 0.950 . S
H276 C286 0.950 . S
H277 C288 0.950 . S
H278 C290 0.950 . S
H279 C291 0.950 . S
C280 H272 0.950 . S
C280 C281 1.386 . S
C280 C282 1.391 . S
C281 C280 1.386 . S
C281 C285 1.393 . S
C282 H274 0.950 . S
C282 C280 1.391 . S
C282 C283 1.400 . S
C283 C282 1.400 . S
C283 C284 1.398 . S
C283 C289 1.491 . S
C284 H275 0.950 . S
C284 C283 1.398 . S
C284 C285 1.391 . S
C285 H273 0.950 . S
C285 C281 1.393 . S
C285 C284 1.391 . S
C286 H276 0.950 . S
C286 C287 1.386 . S
C286 C288 1.391 . S
C287 C286 1.386 . S
C287 C291 1.393 . S
C288 H277 0.950 . S
C288 C286 1.391 . S
C288 C289 1.400 . S
C289 C283 1.491 . S
C289 C288 1.400 . S
C289 C290 1.398 . S
C290 H278 0.950 . S
C290 C289 1.398 . S
C290 C291 1.391 . S
C291 H279 0.950 . S
C291 C287 1.393 . S
C291 C290 1.391 . S
H292 C300 0.950 . S
H293 C305 0.950 . S
H294 C302 0.950 . S
H295 C304 0.950 . S
H296 C306 0.950 . S
H297 C308 0.950 . S
H298 C310 0.950 . S
H299 C311 0.950 . S
C300 H292 0.950 . S
C300 C301 1.410 . S
C300 C302 1.391 . S
C301 C300 1.410 . S
C301 C305 1.370 1_455 S
C302 H294 0.950 . S
C302 C300 1.391 . S
C302 C303 1.400 . S
C303 C302 1.400 . S
C303 C304 1.398 1_455 S
C303 C309 1.491 . S
C304 H295 0.950 . S
C304 C303 1.398 1_655 S
C304 C305 1.391 . S
C305 H293 0.950 . S
C305 C301 1.370 1_655 S
C305 C304 1.391 . S
C306 H296 0.950 . S
C306 C307 1.360 1_655 S
C306 C308 1.391 . S
C307 C306 1.360 1_455 S
C307 C311 1.418 . S
C308 H297 0.950 . S
C308 C306 1.391 . S
C308 C309 1.382 1_655 S
C309 C303 1.491 . S
C309 C308 1.382 1_455 S
C309 C310 1.417 . S
C310 H298 0.950 . S
C310 C309 1.417 . S
C310 C311 1.391 . S
C311 H299 0.950 . S
C311 C307 1.418 . S
C311 C310 1.391 . S
H312 C320 0.950 . S
H313 C325 0.950 . S
H314 C322 0.950 . S
H315 C324 0.950 . S
H316 C326 0.950 . S
H317 C328 0.950 . S
H318 C330 0.950 . S
H319 C331 0.950 . S
C320 H312 0.950 . S
C320 C321 1.396 . S
C320 C322 1.391 . S
C321 C320 1.396 . S
C321 C325 1.384 1_565 S
C322 H314 0.950 . S
C322 C320 1.391 . S
C322 C323 1.404 . S
C323 C322 1.404 . S
C323 C324 1.395 1_565 S
C323 C329 1.490 1_565 S
C324 H315 0.950 . S
C324 C323 1.395 1_545 S
C324 C325 1.391 . S
C325 H313 0.950 . S
C325 C321 1.384 1_545 S
C325 C324 1.391 . S
C326 H316 0.950 . S
C326 C327 1.386 . S
C326 C328 1.391 . S
C327 C326 1.386 . S
C327 C331 1.393 1_545 S
C328 H317 0.950 . S
C328 C326 1.391 . S
C328 C329 1.407 1_556 S
C329 C323 1.490 1_545 S
C329 C328 1.407 1_554 S
C329 C330 1.392 1_545 S
C330 H318 0.950 . S
C330 C329 1.392 1_565 S
C330 C331 1.391 1_554 S
C331 H319 0.950 . S
C331 C327 1.393 1_565 S
C331 C330 1.391 1_556 S
H332 C340 0.950 . S
H333 C345 0.950 . S
H334 C342 0.950 . S
H335 C344 0.950 . S
H336 C346 0.950 . S
H337 C348 0.950 . S
H338 C350 0.950 . S
H339 C351 0.950 . S
C340 H332 0.950 . S
C340 C341 1.386 . S
C340 C342 1.391 . S
C341 C340 1.386 . S
C341 C345 1.393 . S
C342 H334 0.950 . S
C342 C340 1.391 . S
C342 C343 1.400 . S
C343 C342 1.400 . S
C343 C344 1.398 . S
C343 C349 1.491 . S
C344 H335 0.950 . S
C344 C343 1.398 . S
C344 C345 1.391 . S
C345 H333 0.950 . S
C345 C341 1.393 . S
C345 C344 1.391 . S
C346 H336 0.950 . S
C346 C347 1.386 . S
C346 C348 1.391 1_556 S
C347 C346 1.386 . S
C347 C351 1.393 . S
C348 H337 0.950 . S
C348 C346 1.391 1_554 S
C348 C349 1.400 . S
C349 C343 1.491 . S
C349 C348 1.400 . S
C349 C350 1.398 . S
C350 H338 0.950 . S
C350 C349 1.398 . S
C350 C351 1.391 1_554 S
C351 H339 0.950 . S
C351 C347 1.393 . S
C351 C350 1.391 1_556 S
H352 C360 0.950 . S
H353 C365 0.950 . S
H354 C362 0.950 . S
H355 C364 0.950 . S
H356 C366 0.950 . S
H357 C368 0.950 . S
H358 C370 0.950 . S
H359 C371 0.950 . S
C360 H352 0.950 . S
C360 C361 1.386 . S
C360 C362 1.391 . S
C361 C360 1.386 . S
C361 C365 1.393 . S
C362 H354 0.950 . S
C362 C360 1.391 . S
C362 C363 1.400 . S
C363 C362 1.400 . S
C363 C364 1.398 . S
C363 C369 1.491 . S
C364 H355 0.950 . S
C364 C363 1.398 . S
C364 C365 1.391 . S
C365 H353 0.950 . S
C365 C361 1.393 . S
C365 C364 1.391 . S
C366 H356 0.950 . S
C366 C367 1.386 . S
C366 C368 1.391 1_556 S
C367 C366 1.386 . S
C367 C371 1.393 . S
C368 H357 0.950 . S
C368 C366 1.391 1_554 S
C368 C369 1.400 . S
C369 C363 1.491 . S
C369 C368 1.400 . S
C369 C370 1.398 1_554 S
C370 H358 0.950 . S
C370 C369 1.398 1_556 S
C370 C371 1.391 . S
C371 H359 0.950 . S
C371 C367 1.393 . S
C371 C370 1.391 . S
H372 C380 0.950 . S
H373 C385 0.950 . S
H374 C382 0.950 . S
H375 C384 0.950 . S
H376 C386 0.950 . S
H377 C388 0.950 . S
H378 C390 0.950 . S
H379 C391 0.950 . S
C380 H372 0.950 . S
C380 C381 1.377 1_455 S
C380 C382 1.391 . S
C381 C380 1.377 1_655 S
C381 C385 1.402 . S
C382 H374 0.950 . S
C382 C380 1.391 . S
C382 C383 1.374 1_455 S
C383 C382 1.374 1_655 S
C383 C384 1.424 . S
C383 C389 1.491 . S
C384 H375 0.950 . S
C384 C383 1.424 . S
C384 C385 1.391 . S
C385 H373 0.950 . S
C385 C381 1.402 . S
C385 C384 1.391 . S
C386 H376 0.950 . S
C386 C387 1.386 . S
C386 C388 1.391 1_556 S
C387 C386 1.386 . S
C387 C391 1.393 1_655 S
C388 H377 0.950 . S
C388 C386 1.391 1_554 S
C388 C389 1.436 . S
C389 C383 1.491 . S
C389 C388 1.436 . S
C389 C390 1.363 1_655 S
C390 H378 0.950 . S
C390 C389 1.363 1_455 S
C390 C391 1.391 1_554 S
C391 H379 0.950 . S
C391 C387 1.393 1_455 S
C391 C390 1.391 1_556 S
H392 C400 0.950 . S
H393 C405 0.950 . S
H394 C402 0.950 . S
H395 C404 0.950 . S
H396 C406 0.950 . S
H397 C408 0.950 . S
H398 C410 0.950 . S
H399 C411 0.950 . S
C400 H392 0.950 . S
C400 C401 1.386 . S
C400 C402 1.391 1_455 S
C401 C400 1.386 . S
C401 C405 1.393 1_455 S
C402 H394 0.950 . S
C402 C400 1.391 1_655 S
C402 C403 1.400 . S
C403 C402 1.400 . S
C403 C404 1.398 . S
C403 C409 1.491 . S
C404 H395 0.950 . S
C404 C403 1.398 . S
C404 C405 1.391 . S
C405 H393 0.950 . S
C405 C401 1.393 1_655 S
C405 C404 1.391 . S
C406 H396 0.950 . S
C406 C407 1.386 . S
C406 C408 1.391 . S
C407 C406 1.386 . S
C407 C411 1.393 . S
C408 H397 0.950 . S
C408 C406 1.391 . S
C408 C409 1.400 . S
C409 C403 1.491 . S
C409 C408 1.400 . S
C409 C410 1.398 . S
C410 H398 0.950 . S
C410 C409 1.398 . S
C410 C411 1.391 . S
C411 H399 0.950 . S
C411 C407 1.393 . S
C411 C410 1.391 . S
H412 C420 0.950 . S
H413 C425 0.950 . S
H414 C422 0.950 . S
H415 C424 0.950 . S
H416 C426 0.950 . S
H417 C428 0.950 . S
H418 C430 0.930 1_545 S
H419 C431 0.950 . S
C420 H412 0.950 . S
C420 C421 1.386 . S
C420 C422 1.391 . S
C421 C420 1.386 . S
C421 C425 1.393 1_545 S
C422 H414 0.950 . S
C422 C420 1.391 . S
C422 C423 1.400 1_545 S
C423 C422 1.400 1_565 S
C423 C424 1.398 . S
C423 C429 1.491 . S
C424 H415 0.950 . S
C424 C423 1.398 . S
C424 C425 1.391 . S
C425 H413 0.950 . S
C425 C421 1.393 1_565 S
C425 C424 1.391 . S
C426 H416 0.950 . S
C426 C427 1.386 . S
C426 C428 1.391 . S
C427 C426 1.386 . S
C427 C431 1.393 . S
C428 H417 0.950 . S
C428 C426 1.391 . S
C428 C429 1.400 . S
C429 C423 1.491 . S
C429 C428 1.400 . S
C429 C430 1.398 . S
C430 H418 0.930 1_565 S
C430 C429 1.398 . S
C430 C431 1.391 . S
C431 H419 0.950 . S
C431 C427 1.393 . S
C431 C430 1.391 . S
H432 C440 0.950 . S
H433 C445 0.950 . S
H434 C442 0.950 . S
H435 C444 0.950 . S
H436 C446 0.950 . S
H437 C448 0.950 . S
H438 C450 0.950 . S
H439 C451 0.950 . S
C440 H432 0.950 . S
C440 C441 1.386 . S
C440 C442 1.391 . S
C441 C440 1.386 . S
C441 C445 1.393 . S
C442 H434 0.950 . S
C442 C440 1.391 . S
C442 C443 1.400 . S
C443 C442 1.400 . S
C443 C444 1.398 . S
C443 C449 1.491 . S
C444 H435 0.950 . S
C444 C443 1.398 . S
C444 C445 1.391 . S
C445 H433 0.950 . S
C445 C441 1.393 . S
C445 C444 1.391 . S
C446 H436 0.950 . S
C446 C447 1.386 . S
C446 C448 1.391 . S
C447 C446 1.386 . S
C447 C451 1.393 . S
C448 H437 0.950 . S
C448 C446 1.391 . S
C448 C449 1.400 . S
C449 C443 1.491 . S
C449 C448 1.400 . S
C449 C450 1.398 . S
C450 H438 0.950 . S
C450 C449 1.398 . S
C450 C451 1.391 . S
C451 H439 0.950 . S
C451 C447 1.393 . S
C451 C450 1.391 . S
H452 C460 0.950 . S
H453 C465 0.950 . S
H454 C462 0.950 . S
H455 C464 0.950 . S
H456 C466 0.950 . S
H457 C468 0.950 . S
H458 C470 0.950 . S
H459 C471 0.950 . S
C460 H452 0.950 . S
C460 C461 1.386 . S
C460 C462 1.391 . S
C461 C460 1.386 . S
C461 C465 1.393 . S
C462 H454 0.950 . S
C462 C460 1.391 . S
C462 C463 1.400 . S
C463 C462 1.400 . S
C463 C464 1.398 . S
C463 C469 1.491 . S
C464 H455 0.950 . S
C464 C463 1.398 . S
C464 C465 1.391 . S
C465 H453 0.950 . S
C465 C461 1.393 . S
C465 C464 1.391 . S
C466 H456 0.950 . S
C466 C467 1.386 . S
C466 C468 1.391 . S
C467 C466 1.386 . S
C467 C471 1.393 . S
C468 H457 0.950 . S
C468 C466 1.391 . S
C468 C469 1.400 . S
C469 C463 1.491 . S
C469 C468 1.400 . S
C469 C470 1.398 . S
C470 H458 0.950 . S
C470 C469 1.398 . S
C470 C471 1.391 . S
C471 H459 0.950 . S
C471 C467 1.393 . S
C471 C470 1.391 . S
H472 C480 0.950 . S
H473 C485 0.950 . S
H474 C482 0.950 . S
H475 C484 0.950 . S
H476 C486 0.950 . S
H477 C488 0.950 . S
H478 C490 0.950 . S
H479 C491 0.950 1_556 S
C480 H472 0.950 . S
C480 C481 1.386 1_455 S
C480 C482 1.391 . S
C481 C480 1.386 1_655 S
C481 C485 1.393 . S
C482 H474 0.950 . S
C482 C480 1.391 . S
C482 C483 1.400 . S
C483 C482 1.400 . S
C483 C484 1.398 . S
C483 C489 1.491 . S
C484 H475 0.950 . S
C484 C483 1.398 . S
C484 C485 1.391 1_455 S
C485 H473 0.950 . S
C485 C481 1.393 . S
C485 C484 1.391 1_655 S
C486 H476 0.950 . S
C486 C487 1.386 . S
C486 C488 1.391 . S
C487 C486 1.386 . S
C487 C491 1.393 . S
C488 H477 0.950 . S
C488 C486 1.391 . S
C488 C489 1.400 . S
C489 C483 1.491 . S
C489 C488 1.400 . S
C489 C490 1.398 . S
C490 H478 0.950 . S
C490 C489 1.398 . S
C490 C491 1.391 . S
C491 H479 0.950 1_554 S
C491 C487 1.393 . S
C491 C490 1.391 . S
H492 C500 0.950 . S
H493 C505 0.950 . S
H494 C502 0.950 . S
H495 C504 0.950 . S
H496 C506 0.950 . S
H497 C508 0.950 . S
H498 C510 0.950 . S
H499 C511 0.950 1_556 S
C500 H492 0.950 . S
C500 C501 1.386 . S
C500 C502 1.391 . S
C501 C500 1.386 . S
C501 C505 1.393 1_565 S
C502 H494 0.950 . S
C502 C500 1.391 . S
C502 C503 1.400 1_565 S
C503 C502 1.400 1_545 S
C503 C504 1.398 . S
C503 C509 1.491 . S
C504 H495 0.950 . S
C504 C503 1.398 . S
C504 C505 1.391 . S
C505 H493 0.950 . S
C505 C501 1.393 1_545 S
C505 C504 1.391 . S
C506 H496 0.950 . S
C506 C507 1.386 . S
C506 C508 1.391 . S
C507 C506 1.386 . S
C507 C511 1.393 . S
C508 H497 0.950 . S
C508 C506 1.391 . S
C508 C509 1.400 . S
C509 C503 1.491 . S
C509 C508 1.400 . S
C509 C510 1.398 . S
C510 H498 0.950 . S
C510 C509 1.398 . S
C510 C511 1.391 . S
C511 H499 0.950 1_554 S
C511 C507 1.393 . S
C511 C510 1.391 . S
H512 C520 0.950 . S
H513 C525 0.950 . S
H514 C522 0.950 . S
H515 C524 0.950 . S
H516 C526 0.950 1_556 S
H517 C528 0.950 . S
H518 C530 0.950 . S
H519 C531 0.950 . S
C520 H512 0.950 . S
C520 C521 1.386 . S
C520 C522 1.391 . S
C521 C520 1.386 . S
C521 C525 1.393 . S
C522 H514 0.950 . S
C522 C520 1.391 . S
C522 C523 1.400 . S
C523 C522 1.400 . S
C523 C524 1.398 . S
C523 C529 1.491 . S
C524 H515 0.950 . S
C524 C523 1.398 . S
C524 C525 1.391 . S
C525 H513 0.950 . S
C525 C521 1.393 . S
C525 C524 1.391 . S
C526 H516 0.950 1_554 S
C526 C527 1.386 . S
C526 C528 1.391 . S
C527 C526 1.386 . S
C527 C531 1.393 . S
C528 H517 0.950 . S
C528 C526 1.391 . S
C528 C529 1.400 . S
C529 C523 1.491 . S
C529 C528 1.400 . S
C529 C530 1.398 . S
C530 H518 0.950 . S
C530 C529 1.398 . S
C530 C531 1.391 . S
C531 H519 0.950 . S
C531 C527 1.393 . S
C531 C530 1.391 . S
H532 C540 0.950 . S
H533 C545 0.950 . S
H534 C542 0.950 . S
H535 C544 0.950 . S
H536 C546 0.950 . S
H537 C548 0.950 . S
H538 C550 0.950 . S
H539 C551 0.950 . S
C540 H532 0.950 . S
C540 C541 1.386 . S
C540 C542 1.391 . S
C541 C540 1.386 . S
C541 C545 1.393 . S
C542 H534 0.950 . S
C542 C540 1.391 . S
C542 C543 1.400 . S
C543 C542 1.400 . S
C543 C544 1.398 . S
C543 C549 1.491 . S
C544 H535 0.950 . S
C544 C543 1.398 . S
C544 C545 1.391 . S
C545 H533 0.950 . S
C545 C541 1.393 . S
C545 C544 1.391 . S
C546 H536 0.950 . S
C546 C547 1.386 . S
C546 C548 1.391 . S
C547 C546 1.386 . S
C547 C551 1.393 . S
C548 H537 0.950 . S
C548 C546 1.391 . S
C548 C549 1.400 . S
C549 C543 1.491 . S
C549 C548 1.400 . S
C549 C550 1.398 . S
C550 H538 0.950 . S
C550 C549 1.398 . S
C550 C551 1.391 . S
C551 H539 0.950 . S
C551 C547 1.393 . S
C551 C550 1.391 . S
H552 C560 0.950 . S
H553 C565 0.950 1_554 S
H554 C562 0.950 . S
H555 C564 0.950 . S
H556 C566 0.950 . S
H557 C568 0.950 . S
H558 C570 0.950 . S
H559 C571 0.950 . S
C560 H552 0.950 . S
C560 C561 1.386 . S
C560 C562 1.391 . S
C561 C560 1.386 . S
C561 C565 1.393 1_455 S
C562 H554 0.950 . S
C562 C560 1.391 . S
C562 C563 1.400 . S
C563 C562 1.400 . S
C563 C564 1.398 1_455 S
C563 C569 1.491 . S
C564 H555 0.950 . S
C564 C563 1.398 1_655 S
C564 C565 1.391 . S
C565 H553 0.950 1_556 S
C565 C561 1.393 1_655 S
C565 C564 1.391 . S
C566 H556 0.950 . S
C566 C567 1.385 1_655 S
C566 C568 1.391 . S
C567 C566 1.385 1_455 S
C567 C571 1.393 . S
C568 H557 0.950 . S
C568 C566 1.391 . S
C568 C569 1.400 1_655 S
C569 C563 1.491 . S
C569 C568 1.400 1_455 S
C569 C570 1.398 . S
C570 H558 0.950 . S
C570 C569 1.398 . S
C570 C571 1.391 . S
C571 H559 0.950 . S
C571 C567 1.393 . S
C571 C570 1.391 . S
H572 C580 0.950 . S
H573 C585 0.950 . S
H574 C582 0.950 . S
H575 C584 0.950 . S
H576 C586 0.950 . S
H577 C588 0.950 . S
H578 C590 0.950 . S
H579 C591 0.950 . S
C580 H572 0.950 . S
C580 C581 1.386 1_565 S
C580 C582 1.391 . S
C581 C580 1.386 1_545 S
C581 C585 1.393 . S
C582 H574 0.950 . S
C582 C580 1.391 . S
C582 C583 1.400 1_565 S
C583 C582 1.400 1_545 S
C583 C584 1.398 . S
C583 C589 1.491 . S
C584 H575 0.950 . S
C584 C583 1.398 . S
C584 C585 1.391 . S
C585 H573 0.950 . S
C585 C581 1.393 . S
C585 C584 1.391 . S
C586 H576 0.950 . S
C586 C587 1.386 . S
C586 C588 1.391 . S
C587 C586 1.386 . S
C587 C591 1.393 1_545 S
C588 H577 0.950 . S
C588 C586 1.391 . S
C588 C589 1.400 . S
C589 C583 1.491 . S
C589 C588 1.400 . S
C589 C590 1.398 1_545 S
C590 H578 0.950 . S
C590 C589 1.398 1_565 S
C590 C591 1.391 . S
C591 H579 0.950 . S
C591 C587 1.393 1_565 S
C591 C590 1.391 . S
H592 C600 0.950 . S
H593 C605 0.950 . S
H594 C602 0.950 . S
H595 C604 0.950 . S
H596 C606 0.950 . S
H597 C608 0.950 . S
H598 C610 0.950 . S
H599 C611 0.950 . S
C600 H592 0.950 . S
C600 C601 1.386 . S
C600 C602 1.391 . S
C601 C600 1.386 . S
C601 C605 1.393 . S
C602 H594 0.950 . S
C602 C600 1.391 . S
C602 C603 1.400 . S
C603 C602 1.400 . S
C603 C604 1.398 . S
C603 C609 1.491 . S
C604 H595 0.950 . S
C604 C603 1.398 . S
C604 C605 1.391 . S
C605 H593 0.950 . S
C605 C601 1.393 . S
C605 C604 1.391 . S
C606 H596 0.950 . S
C606 C607 1.386 . S
C606 C608 1.391 . S
C607 C606 1.386 . S
C607 C611 1.393 . S
C608 H597 0.950 . S
C608 C606 1.391 . S
C608 C609 1.400 . S
C609 C603 1.491 . S
C609 C608 1.400 . S
C609 C610 1.398 . S
C610 H598 0.950 . S
C610 C609 1.398 . S
C610 C611 1.391 . S
C611 H599 0.950 . S
C611 C607 1.393 . S
C611 C610 1.391 . S
H612 C620 0.950 . S
H613 C625 0.950 . S
H614 C622 0.950 . S
H615 C624 0.950 . S
H616 C626 0.950 . S
H617 C628 0.950 . S
H618 C630 0.950 . S
H619 C631 0.950 . S
C620 H612 0.950 . S
C620 C621 1.386 . S
C620 C622 1.391 . S
C621 C620 1.386 . S
C621 C625 1.393 . S
C622 H614 0.950 . S
C622 C620 1.391 . S
C622 C623 1.400 . S
C623 C622 1.400 . S
C623 C624 1.398 . S
C623 C629 1.491 . S
C624 H615 0.950 . S
C624 C623 1.398 . S
C624 C625 1.391 . S
C625 H613 0.950 . S
C625 C621 1.393 . S
C625 C624 1.391 . S
C626 H616 0.950 . S
C626 C627 1.386 . S
C626 C628 1.391 . S
C627 C626 1.386 . S
C627 C631 1.393 . S
C628 H617 0.950 . S
C628 C626 1.391 . S
C628 C629 1.400 . S
C629 C623 1.491 . S
C629 C628 1.400 . S
C629 C630 1.398 . S
C630 H618 0.950 . S
C630 C629 1.398 . S
C630 C631 1.391 . S
C631 H619 0.950 . S
C631 C627 1.393 . S
C631 C630 1.391 . S
H632 C640 0.950 . S
H633 C645 0.950 . S
H634 C642 0.950 . S
H635 C644 0.950 . S
H636 C646 0.950 . S
H637 C648 0.950 . S
H638 C650 0.950 . S
H639 C651 0.950 . S
C640 H632 0.950 . S
C640 C641 1.386 1_455 S
C640 C642 1.391 . S
C641 C640 1.386 1_655 S
C641 C645 1.393 . S
C642 H634 0.950 . S
C642 C640 1.391 . S
C642 C643 1.400 1_455 S
C643 C642 1.400 1_655 S
C643 C644 1.398 . S
C643 C649 1.491 . S
C644 H635 0.950 . S
C644 C643 1.398 . S
C644 C645 1.391 . S
C645 H633 0.950 . S
C645 C641 1.393 . S
C645 C644 1.391 . S
C646 H636 0.950 . S
C646 C647 1.386 . S
C646 C648 1.391 . S
C647 C646 1.386 . S
C647 C651 1.393 1_655 S
C648 H637 0.950 . S
C648 C646 1.391 . S
C648 C649 1.400 . S
C649 C643 1.491 . S
C649 C648 1.400 . S
C649 C650 1.398 1_655 S
C650 H638 0.950 . S
C650 C649 1.398 1_455 S
C650 C651 1.391 . S
C651 H639 0.950 . S
C651 C647 1.393 1_455 S
C651 C650 1.391 . S
H652 C660 0.950 . S
H653 C665 0.950 . S
H654 C662 0.950 . S
H655 C664 0.950 . S
H656 C666 0.950 . S
H657 C668 0.950 . S
H658 C670 0.950 . S
H659 C671 0.950 . S
C660 H652 0.950 . S
C660 C661 1.386 1_545 S
C660 C662 1.391 . S
C661 C660 1.386 1_565 S
C661 C665 1.393 . S
C662 H654 0.950 . S
C662 C660 1.391 . S
C662 C663 1.400 1_545 S
C663 C662 1.400 1_565 S
C663 C664 1.398 . S
C663 C669 1.491 . S
C664 H655 0.950 . S
C664 C663 1.398 . S
C664 C665 1.391 . S
C665 H653 0.950 . S
C665 C661 1.393 . S
C665 C664 1.391 . S
C666 H656 0.950 . S
C666 C667 1.386 . S
C666 C668 1.391 . S
C667 C666 1.386 . S
C667 C671 1.393 1_565 S
C668 H657 0.950 . S
C668 C666 1.391 . S
C668 C669 1.400 . S
C669 C663 1.491 . S
C669 C668 1.400 . S
C669 C670 1.398 1_565 S
C670 H658 0.950 . S
C670 C669 1.398 1_545 S
C670 C671 1.391 . S
C671 H659 0.950 . S
C671 C667 1.393 1_545 S
C671 C670 1.391 . S
H672 C680 0.950 . S
H673 C685 0.950 . S
H674 C682 0.950 . S
H675 C684 0.950 . S
H676 C686 0.950 . S
H677 C688 0.950 . S
H678 C690 0.950 . S
H679 C691 0.950 . S
C680 H672 0.950 . S
C680 C681 1.386 . S
C680 C682 1.391 . S
C681 C680 1.386 . S
C681 C685 1.393 . S
C682 H674 0.950 . S
C682 C680 1.391 . S
C682 C683 1.400 . S
C683 C682 1.400 . S
C683 C684 1.398 . S
C683 C689 1.491 . S
C684 H675 0.950 . S
C684 C683 1.398 . S
C684 C685 1.391 . S
C685 H673 0.950 . S
C685 C681 1.393 . S
C685 C684 1.391 . S
C686 H676 0.950 . S
C686 C687 1.386 . S
C686 C688 1.391 . S
C687 C686 1.386 . S
C687 C691 1.393 . S
C688 H677 0.950 . S
C688 C686 1.391 . S
C688 C689 1.400 . S
C689 C683 1.491 . S
C689 C688 1.400 . S
C689 C690 1.398 . S
C690 H678 0.950 . S
C690 C689 1.398 . S
C690 C691 1.391 . S
C691 H679 0.950 . S
C691 C687 1.393 . S
C691 C690 1.391 . S
H692 C700 0.950 . S
H693 C705 0.950 . S
H694 C702 0.950 . S
H695 C704 0.950 . S
H696 C706 0.950 . S
H697 C708 0.950 . S
H698 C710 0.950 . S
H699 C711 0.950 . S
C700 H692 0.950 . S
C700 C701 1.386 . S
C700 C702 1.391 . S
C701 C700 1.386 . S
C701 C705 1.393 . S
C702 H694 0.950 . S
C702 C700 1.391 . S
C702 C703 1.400 . S
C703 C702 1.400 . S
C703 C704 1.398 . S
C703 C709 1.491 . S
C704 H695 0.950 . S
C704 C703 1.398 . S
C704 C705 1.391 . S
C705 H693 0.950 . S
C705 C701 1.393 . S
C705 C704 1.391 . S
C706 H696 0.950 . S
C706 C707 1.386 . S
C706 C708 1.391 . S
C707 C706 1.386 . S
C707 C711 1.393 . S
C708 H697 0.950 . S
C708 C706 1.391 . S
C708 C709 1.400 . S
C709 C703 1.491 . S
C709 C708 1.400 . S
C709 C710 1.398 . S
C710 H698 0.950 . S
C710 C709 1.398 . S
C710 C711 1.391 . S
C711 H699 0.950 . S
C711 C707 1.393 . S
C711 C710 1.391 . S
C241 C61 1.804 1_545 S
C247 C90 1.951 . S
C267 C130 1.975 . S
C261 C70 1.822 . S
C287 C170 1.979 . S
C281 C43 1.848 . S
C307 C210 1.964 . S
C301 C52 1.833 1_455 S
C327 C80 1.953 . S
C321 C25 1.802 . S
C341 C34 1.847 . S
C347 C120 1.973 . S
C361 C7 1.845 . S
C367 C160 1.983 . S
C381 C16 1.836 . S
C387 C200 1.965 1_655 S
C407 C77 0.423 . S
C401 C50 0.397 1_455 S
C427 C117 0.432 . S
C421 C59 0.421 1_545 S
C447 C157 0.431 . S
C441 C67 0.404 . S
C461 C41 0.398 . S
C467 C197 0.431 . S
C481 C14 0.453 . S
C487 C87 0.497 . S
C507 C127 0.495 . S
C501 C23 0.444 . S
C527 C167 0.428 . S
C521 C31 0.409 . S
C541 C5 0.438 . S
C547 C207 0.478 . S
C561 C49 2.034 1_455 S
C567 C81 2.253 . S
C581 C58 2.004 1_545 S
C587 C121 2.212 . S
C607 C161 2.182 . S
C601 C68 1.982 . S
C627 C201 2.232 . S
C621 C40 2.029 . S
C641 C13 2.027 . S
C647 C91 2.266 . S
C667 C131 2.204 . S
C661 C22 1.983 . S
C687 C171 2.181 . S
C681 C32 1.983 . S
C701 C4 2.010 . S
C707 C211 2.236 . S
