# Generated by pormake.
# Topology ptr, (4,4)-cn, num edge types: 1
# Building blocks:
#     Node 0, Type 0, BuildingBlock: QUQFOY_clean_sbu_1, # of connection points: 4
#     Node 1, Type 0, BuildingBlock: QUQFOY_clean_sbu_1, # of connection points: 4
#     Node 2, Type 0, BuildingBlock: QUQFOY_clean_sbu_1, # of connection points: 4
#     Node 3, Type 0, BuildingBlock: QUQFOY_clean_sbu_1, # of connection points: 4
#     Node 4, Type 0, BuildingBlock: QUQFOY_clean_sbu_1, # of connection points: 4
#     Node 5, Type 0, BuildingBlock: QUQFOY_clean_sbu_1, # of connection points: 4
#     Node 6, Type 0, BuildingBlock: QUQFOY_clean_sbu_1, # of connection points: 4
#     Node 7, Type 0, BuildingBlock: QUQFOY_clean_sbu_1, # of connection points: 4
#     Node 8, Type 0, BuildingBlock: QUQFOY_clean_sbu_1, # of connection points: 4
#     Node 9, Type 0, BuildingBlock: QUQFOY_clean_sbu_1, # of connection points: 4
#     Node 10, Type 0, BuildingBlock: QUQFOY_clean_sbu_1, # of connection points: 4
#     Node 11, Type 0, BuildingBlock: QUQFOY_clean_sbu_1, # of connection points: 4
#     Node 12, Type 0, BuildingBlock: QUQFOY_clean_sbu_1, # of connection points: 4
#     Node 13, Type 0, BuildingBlock: QUQFOY_clean_sbu_1, # of connection points: 4
#     Node 14, Type 0, BuildingBlock: QUQFOY_clean_sbu_1, # of connection points: 4
#     Node 15, Type 0, BuildingBlock: QUQFOY_clean_sbu_1, # of connection points: 4
#     Node 16, Type 0, BuildingBlock: QUQFOY_clean_sbu_1, # of connection points: 4
#     Node 17, Type 0, BuildingBlock: QUQFOY_clean_sbu_1, # of connection points: 4
#     Node 18, Type 1, BuildingBlock: AZAVOO_clean_linker_0, # of connection points: 4
#     Node 19, Type 1, BuildingBlock: AZAVOO_clean_linker_0, # of connection points: 4
#     Node 20, Type 1, BuildingBlock: AZAVOO_clean_linker_0, # of connection points: 4
#     Node 21, Type 1, BuildingBlock: AZAVOO_clean_linker_0, # of connection points: 4
#     Node 22, Type 1, BuildingBlock: AZAVOO_clean_linker_0, # of connection points: 4
#     Node 23, Type 1, BuildingBlock: AZAVOO_clean_linker_0, # of connection points: 4
#     Node 24, Type 1, BuildingBlock: AZAVOO_clean_linker_0, # of connection points: 4
#     Node 25, Type 1, BuildingBlock: AZAVOO_clean_linker_0, # of connection points: 4
#     Node 26, Type 1, BuildingBlock: AZAVOO_clean_linker_0, # of connection points: 4
#     Node 27, Type 1, BuildingBlock: AZAVOO_clean_linker_0, # of connection points: 4
#     Node 28, Type 1, BuildingBlock: AZAVOO_clean_linker_0, # of connection points: 4
#     Node 29, Type 1, BuildingBlock: AZAVOO_clean_linker_0, # of connection points: 4
#     Node 30, Type 1, BuildingBlock: AZAVOO_clean_linker_0, # of connection points: 4
#     Node 31, Type 1, BuildingBlock: AZAVOO_clean_linker_0, # of connection points: 4
#     Node 32, Type 1, BuildingBlock: AZAVOO_clean_linker_0, # of connection points: 4
#     Node 33, Type 1, BuildingBlock: AZAVOO_clean_linker_0, # of connection points: 4
#     Node 34, Type 1, BuildingBlock: AZAVOO_clean_linker_0, # of connection points: 4
#     Node 35, Type 1, BuildingBlock: AZAVOO_clean_linker_0, # of connection points: 4
#     Edge 36, Type (0, 1), BuildingBlock: MIFKUJ_clean_linker_0, # of connection points: 2
#     Edge 37, Type (0, 1), BuildingBlock: MIFKUJ_clean_linker_0, # of connection points: 2
#     Edge 38, Type (0, 1), BuildingBlock: MIFKUJ_clean_linker_0, # of connection points: 2
#     Edge 39, Type (0, 1), BuildingBlock: MIFKUJ_clean_linker_0, # of connection points: 2
#     Edge 40, Type (0, 1), BuildingBlock: MIFKUJ_clean_linker_0, # of connection points: 2
#     Edge 41, Type (0, 1), BuildingBlock: MIFKUJ_clean_linker_0, # of connection points: 2
#     Edge 42, Type (0, 1), BuildingBlock: MIFKUJ_clean_linker_0, # of connection points: 2
#     Edge 43, Type (0, 1), BuildingBlock: MIFKUJ_clean_linker_0, # of connection points: 2
#     Edge 44, Type (0, 1), BuildingBlock: MIFKUJ_clean_linker_0, # of connection points: 2
#     Edge 45, Type (0, 1), BuildingBlock: MIFKUJ_clean_linker_0, # of connection points: 2
#     Edge 46, Type (0, 1), BuildingBlock: MIFKUJ_clean_linker_0, # of connection points: 2
#     Edge 47, Type (0, 1), BuildingBlock: MIFKUJ_clean_linker_0, # of connection points: 2
#     Edge 48, Type (0, 1), BuildingBlock: MIFKUJ_clean_linker_0, # of connection points: 2
#     Edge 49, Type (0, 1), BuildingBlock: MIFKUJ_clean_linker_0, # of connection points: 2
#     Edge 50, Type (0, 1), BuildingBlock: MIFKUJ_clean_linker_0, # of connection points: 2
#     Edge 51, Type (0, 1), BuildingBlock: MIFKUJ_clean_linker_0, # of connection points: 2
#     Edge 52, Type (0, 1), BuildingBlock: MIFKUJ_clean_linker_0, # of connection points: 2
#     Edge 53, Type (0, 1), BuildingBlock: MIFKUJ_clean_linker_0, # of connection points: 2
#     Edge 54, Type (0, 1), BuildingBlock: MIFKUJ_clean_linker_0, # of connection points: 2
#     Edge 55, Type (0, 1), BuildingBlock: MIFKUJ_clean_linker_0, # of connection points: 2
#     Edge 56, Type (0, 1), BuildingBlock: MIFKUJ_clean_linker_0, # of connection points: 2
#     Edge 57, Type (0, 1), BuildingBlock: MIFKUJ_clean_linker_0, # of connection points: 2
#     Edge 58, Type (0, 1), BuildingBlock: MIFKUJ_clean_linker_0, # of connection points: 2
#     Edge 59, Type (0, 1), BuildingBlock: MIFKUJ_clean_linker_0, # of connection points: 2
#     Edge 60, Type (0, 1), BuildingBlock: MIFKUJ_clean_linker_0, # of connection points: 2
#     Edge 61, Type (0, 1), BuildingBlock: MIFKUJ_clean_linker_0, # of connection points: 2
#     Edge 62, Type (0, 1), BuildingBlock: MIFKUJ_clean_linker_0, # of connection points: 2
#     Edge 63, Type (0, 1), BuildingBlock: MIFKUJ_clean_linker_0, # of connection points: 2
#     Edge 64, Type (0, 1), BuildingBlock: MIFKUJ_clean_linker_0, # of connection points: 2
#     Edge 65, Type (0, 1), BuildingBlock: MIFKUJ_clean_linker_0, # of connection points: 2
#     Edge 66, Type (0, 1), BuildingBlock: MIFKUJ_clean_linker_0, # of connection points: 2
#     Edge 67, Type (0, 1), BuildingBlock: MIFKUJ_clean_linker_0, # of connection points: 2
#     Edge 68, Type (0, 1), BuildingBlock: MIFKUJ_clean_linker_0, # of connection points: 2
#     Edge 69, Type (0, 1), BuildingBlock: MIFKUJ_clean_linker_0, # of connection points: 2
#     Edge 70, Type (0, 1), BuildingBlock: MIFKUJ_clean_linker_0, # of connection points: 2
#     Edge 71, Type (0, 1), BuildingBlock: MIFKUJ_clean_linker_0, # of connection points: 2
#     Edge 72, Type (0, 1), BuildingBlock: MIFKUJ_clean_linker_0, # of connection points: 2
#     Edge 73, Type (0, 1), BuildingBlock: MIFKUJ_clean_linker_0, # of connection points: 2
#     Edge 74, Type (0, 1), BuildingBlock: MIFKUJ_clean_linker_0, # of connection points: 2
#     Edge 75, Type (0, 1), BuildingBlock: MIFKUJ_clean_linker_0, # of connection points: 2
#     Edge 76, Type (0, 1), BuildingBlock: MIFKUJ_clean_linker_0, # of connection points: 2
#     Edge 77, Type (0, 1), BuildingBlock: MIFKUJ_clean_linker_0, # of connection points: 2
#     Edge 78, Type (0, 1), BuildingBlock: MIFKUJ_clean_linker_0, # of connection points: 2
#     Edge 79, Type (0, 1), BuildingBlock: MIFKUJ_clean_linker_0, # of connection points: 2
#     Edge 80, Type (0, 1), BuildingBlock: MIFKUJ_clean_linker_0, # of connection points: 2
#     Edge 81, Type (0, 1), BuildingBlock: MIFKUJ_clean_linker_0, # of connection points: 2
#     Edge 82, Type (0, 1), BuildingBlock: MIFKUJ_clean_linker_0, # of connection points: 2
#     Edge 83, Type (0, 1), BuildingBlock: MIFKUJ_clean_linker_0, # of connection points: 2
#     Edge 84, Type (0, 1), BuildingBlock: MIFKUJ_clean_linker_0, # of connection points: 2
#     Edge 85, Type (0, 1), BuildingBlock: MIFKUJ_clean_linker_0, # of connection points: 2
#     Edge 86, Type (0, 1), BuildingBlock: MIFKUJ_clean_linker_0, # of connection points: 2
#     Edge 87, Type (0, 1), BuildingBlock: MIFKUJ_clean_linker_0, # of connection points: 2
#     Edge 88, Type (0, 1), BuildingBlock: MIFKUJ_clean_linker_0, # of connection points: 2
#     Edge 89, Type (0, 1), BuildingBlock: MIFKUJ_clean_linker_0, # of connection points: 2
#     Edge 90, Type (0, 1), BuildingBlock: MIFKUJ_clean_linker_0, # of connection points: 2
#     Edge 91, Type (0, 1), BuildingBlock: MIFKUJ_clean_linker_0, # of connection points: 2
#     Edge 92, Type (0, 1), BuildingBlock: MIFKUJ_clean_linker_0, # of connection points: 2
#     Edge 93, Type (0, 1), BuildingBlock: MIFKUJ_clean_linker_0, # of connection points: 2
#     Edge 94, Type (0, 1), BuildingBlock: MIFKUJ_clean_linker_0, # of connection points: 2
#     Edge 95, Type (0, 1), BuildingBlock: MIFKUJ_clean_linker_0, # of connection points: 2
#     Edge 96, Type (0, 1), BuildingBlock: MIFKUJ_clean_linker_0, # of connection points: 2
#     Edge 97, Type (0, 1), BuildingBlock: MIFKUJ_clean_linker_0, # of connection points: 2
#     Edge 98, Type (0, 1), BuildingBlock: MIFKUJ_clean_linker_0, # of connection points: 2
#     Edge 99, Type (0, 1), BuildingBlock: MIFKUJ_clean_linker_0, # of connection points: 2
#     Edge 100, Type (0, 1), BuildingBlock: MIFKUJ_clean_linker_0, # of connection points: 2
#     Edge 101, Type (0, 1), BuildingBlock: MIFKUJ_clean_linker_0, # of connection points: 2
#     Edge 102, Type (0, 1), BuildingBlock: MIFKUJ_clean_linker_0, # of connection points: 2
#     Edge 103, Type (0, 1), BuildingBlock: MIFKUJ_clean_linker_0, # of connection points: 2
#     Edge 104, Type (0, 1), BuildingBlock: MIFKUJ_clean_linker_0, # of connection points: 2
#     Edge 105, Type (0, 1), BuildingBlock: MIFKUJ_clean_linker_0, # of connection points: 2
#     Edge 106, Type (0, 1), BuildingBlock: MIFKUJ_clean_linker_0, # of connection points: 2
#     Edge 107, Type (0, 1), BuildingBlock: MIFKUJ_clean_linker_0, # of connection points: 2
# Relax obj value: 0.047
# Max RMSD: 0.183
# Mean RMSD: 0.125
data_MOF--net-ptr--node1-QUQFOY_clean_sbu_1--node2-AZAVOO_clean_linker_0--edge1-MIFKUJ_clean_linker_0
_symmetry_space_group_name_H-M    P1
_symmetry_Int_Tables_number       1
_symmetry_cell_setting            triclinic
loop_
_symmetry_equiv_pos_as_xyz
'x, y, z'
_cell_length_a     104.53678
_cell_length_b     102.57125
_cell_length_c     88.640305
_cell_angle_alpha  92.406312
_cell_angle_beta   91.992298
_cell_angle_gamma 120.0707
loop_
_atom_site_label
_atom_site_type_symbol
_atom_site_fract_x
_atom_site_fract_y
_atom_site_fract_z
_atom_type_partial_charge
O0 O 0.01376 0.37735 0.03995 0.0
Cd1 Cd 0.02219 0.37017 0.02291 0.0
Cd2 Cd 0.99344 0.35389 0.01364 0.0
O3 O 0.99002 0.36175 0.03406 0.0
O4 O 0.04232 0.37586 0.03147 0.0
O5 O 0.0246 0.35216 0.02621 0.0
C6 C 0.03784 0.36166 0.03181 0.0
C7 C 0.97978 0.32833 0.00562 0.0
C8 C 1.00029 0.37213 0.04281 0.0
C9 C 0.01356 0.37813 0.99381 0.0
O10 O 1.00036 0.36869 0.99674 0.0
O11 O 0.02441 0.3799 0.00239 0.0
O12 O 0.9738 0.33669 0.00601 0.0
O13 O 0.99356 0.33441 0.01023 0.0
O14 O 0.62061 0.61522 0.076 0.0
Cd15 Cd 0.62938 0.63042 0.05948 0.0
Cd16 Cd 0.64182 0.6139 0.05287 0.0
O17 O 0.63395 0.60423 0.07304 0.0
O18 O 0.62678 0.64775 0.06596 0.0
O19 O 0.64873 0.64965 0.06462 0.0
C20 C 0.641 0.6559 0.06788 0.0
C21 C 0.66645 0.62436 0.0468 0.0
C22 C 0.62442 0.60586 0.08015 0.0
C23 C 0.61937 0.61247 0.02982 0.0
O24 O 0.6268 0.60651 0.03439 0.0
O25 O 0.61968 0.62326 0.03773 0.0
O26 O 0.65779 0.60993 0.0467 0.0
O27 O 0.66132 0.63292 0.05124 0.0
O28 O 0.38803 0.0017 0.99772 0.0
Cd29 Cd 0.38102 0.00806 0.01682 0.0
Cd30 Cd 0.36877 0.97847 0.02007 0.0
O31 O 0.3747 0.97695 0.99839 0.0
O32 O 0.38485 0.0287 0.01286 0.0
O33 O 0.36236 0.00921 0.01445 0.0
C34 C 0.37071 0.02324 0.01189 0.0
C35 C 0.34466 0.96625 0.02787 0.0
C36 C 0.38372 0.98853 0.99178 0.0
C37 C 0.39261 0.99892 0.04322 0.0
O38 O 0.38527 0.98562 0.03698 0.0
O39 O 0.3915 0.00964 0.03781 0.0
O40 O 0.3516 0.95897 0.02549 0.0
O41 O 0.35118 0.98034 0.02501 0.0
O42 O 0.98858 0.62082 0.0246 0.0
Cd43 Cd 0.98105 0.62968 0.04098 0.0
Cd44 Cd 0.01005 0.64562 0.04987 0.0
O45 O 0.01251 0.63574 0.03015 0.0
O46 O 0.96129 0.62539 0.03264 0.0
O47 O 0.9805 0.64852 0.03671 0.0
C48 C 0.96691 0.63972 0.03162 0.0
C49 C 0.02572 0.67134 0.05655 0.0
C50 C 0.00192 0.62518 0.02183 0.0
C51 C 0.98926 0.62308 0.07096 0.0
O52 O 0.00251 0.63226 0.06794 0.0
O53 O 0.97849 0.62076 0.06192 0.0
O54 O 0.03036 0.66184 0.05712 0.0
O55 O 0.01218 0.6663 0.05159 0.0
O56 O 0.38415 0.38556 0.98526 0.0
Cd57 Cd 0.37473 0.36948 1.00091 0.0
Cd58 Cd 0.36292 0.38627 0.00785 0.0
O59 O 0.36999 0.39569 0.98742 0.0
O60 O 0.37748 0.35267 0.99287 0.0
O61 O 0.35543 0.35027 0.99539 0.0
C62 C 0.36326 0.34444 0.99107 0.0
C63 C 0.33856 0.37574 0.01477 0.0
C64 C 0.38006 0.39461 0.98083 0.0
C65 C 0.38524 0.38695 0.03051 0.0
O66 O 0.37867 0.39373 0.02576 0.0
O67 O 0.38396 0.37554 0.02287 0.0
O68 O 0.34709 0.39018 0.01461 0.0
O69 O 0.34367 0.36721 0.01018 0.0
O70 O 0.61412 0.99709 0.06278 0.0
Cd71 Cd 0.62229 0.99147 0.04419 0.0
Cd72 Cd 0.63503 0.02113 0.04194 0.0
O73 O 0.6283 0.02185 0.06349 0.0
O74 O 0.6185 0.97072 0.04746 0.0
O75 O 0.641 0.99064 0.04769 0.0
C76 C 0.63263 0.9764 0.04938 0.0
C77 C 0.65951 0.03385 0.03524 0.0
C78 C 0.61857 0.01006 0.06931 0.0
C79 C 0.61212 0.00148 0.01754 0.0
O80 O 0.61928 0.01459 0.02426 0.0
O81 O 0.61288 0.99054 0.02287 0.0
O82 O 0.65228 0.04089 0.03729 0.0
O83 O 0.65303 0.01971 0.03784 0.0
O84 O 0.67583 0.71349 0.37592 0.0
Cd85 Cd 0.68601 0.70745 0.35982 0.0
Cd86 Cd 0.65785 0.69288 0.34645 0.0
O87 O 0.65296 0.70131 0.36565 0.0
O88 O 0.70517 0.7124 0.37041 0.0
O89 O 0.68802 0.6891 0.36261 0.0
C90 C 0.70073 0.69817 0.36959 0.0
C91 C 0.64227 0.66769 0.33763 0.0
C92 C 0.6623 0.70979 0.3763 0.0
C93 C 0.68203 0.71732 0.32954 0.0
O94 O 0.66838 0.70758 0.33 0.0
O95 O 0.69125 0.71903 0.34027 0.0
O96 O 0.6384 0.67772 0.33625 0.0
O97 O 0.65499 0.67188 0.34447 0.0
O98 O 0.28857 0.94601 0.41396 0.0
Cd99 Cd 0.29504 0.96126 0.39744 0.0
Cd100 Cd 0.30684 0.94387 0.38718 0.0
O101 O 0.29876 0.93263 0.40665 0.0
O102 O 0.29118 0.9771 0.40605 0.0
O103 O 0.31363 0.98163 0.40139 0.0
C104 C 0.30523 0.98648 0.40651 0.0
C105 C 0.3307 0.95143 0.37981 0.0
C106 C 0.29123 0.93536 0.41592 0.0
C107 C 0.28369 0.94509 0.36673 0.0
O108 O 0.29198 0.93953 0.36914 0.0
O109 O 0.28338 0.95433 0.37652 0.0
O110 O 0.3204 0.93743 0.37876 0.0
O111 O 0.3277 0.96117 0.38595 0.0
O112 O 0.06074 0.33488 0.33061 0.0
Cd113 Cd 0.05448 0.34249 0.34939 0.0
Cd114 Cd 0.04121 0.31293 0.35437 0.0
O115 O 0.04758 0.31035 0.33314 0.0
O116 O 0.05833 0.36295 0.34472 0.0
O117 O 0.03584 0.34361 0.3469 0.0
C118 C 0.04421 0.35755 0.34397 0.0
C119 C 0.01692 0.29924 0.36163 0.0
C120 C 0.05634 0.32137 0.3257 0.0
C121 C 0.06547 0.3344 0.37706 0.0
O122 O 0.05718 0.32079 0.37194 0.0
O123 O 0.06542 0.34507 0.3703 0.0
O124 O 0.02506 0.29312 0.36038 0.0
O125 O 0.02235 0.313 0.35792 0.0
O126 O 0.6573 0.94978 0.35621 0.0
Cd127 Cd 0.64831 0.95769 0.37197 0.0
Cd128 Cd 0.67703 0.97357 0.38297 0.0
O129 O 0.68088 0.96498 0.36323 0.0
O130 O 0.6285 0.95194 0.3624 0.0
O131 O 0.6463 0.97567 0.36718 0.0
C132 C 0.63314 0.96611 0.36146 0.0
C133 C 0.6925 0.99899 0.39113 0.0
C134 C 0.67089 0.95461 0.35423 0.0
C135 C 0.65488 0.95008 0.4023 0.0
O136 O 0.66839 0.95911 0.40006 0.0
O137 O 0.64469 0.94844 0.3928 0.0
O138 O 0.69701 0.98938 0.39153 0.0
O139 O 0.67918 0.99426 0.38561 0.0
O140 O 0.05002 0.72002 0.32087 0.0
Cd141 Cd 0.04283 0.70498 0.3376 0.0
Cd142 Cd 0.02988 0.72105 0.34551 0.0
O143 O 0.03727 0.73139 0.32552 0.0
O144 O 0.04762 0.68938 0.33042 0.0
O145 O 0.02468 0.68448 0.33276 0.0
C146 C 0.03361 0.67986 0.32882 0.0
C147 C 0.00531 0.71008 0.35189 0.0
C148 C 0.04618 0.72956 0.31751 0.0
C149 C 0.05327 0.72278 0.3675 0.0
O150 O 0.0451 0.72819 0.36378 0.0
O151 O 0.05342 0.71259 0.35895 0.0
O152 O 0.0138 0.72455 0.35222 0.0
O153 O 0.01058 0.70175 0.34709 0.0
O154 O 0.27988 0.33429 0.39839 0.0
Cd155 Cd 0.28799 0.32858 0.37978 0.0
Cd156 Cd 0.29897 0.35772 0.37611 0.0
O157 O 0.29299 0.35906 0.39784 0.0
O158 O 0.28523 0.30828 0.38344 0.0
O159 O 0.30726 0.32879 0.38315 0.0
C160 C 0.29944 0.31454 0.38503 0.0
C161 C 0.32301 0.37075 0.36825 0.0
C162 C 0.28395 0.34741 0.40434 0.0
C163 C 0.276 0.33652 0.35281 0.0
O164 O 0.28248 0.34984 0.35903 0.0
O165 O 0.27789 0.32638 0.3585 0.0
O166 O 0.31548 0.37745 0.37037 0.0
O167 O 0.31713 0.35681 0.37146 0.0
O168 O 0.34878 0.05238 0.70392 0.0
Cd169 Cd 0.35726 0.04391 0.68827 0.0
Cd170 Cd 0.3286 0.02785 0.67768 0.0
O171 O 0.3251 0.03695 0.69742 0.0
O172 O 0.37689 0.04856 0.69738 0.0
O173 O 0.35802 0.02526 0.69295 0.0
C174 C 0.37147 0.03424 0.69831 0.0
C175 C 0.3131 0.00236 0.66985 0.0
C176 C 0.33523 0.04757 0.70612 0.0
C177 C 0.35062 0.05093 0.65783 0.0
O178 O 0.33716 0.04174 0.66008 0.0
O179 O 0.36087 0.05304 0.66748 0.0
O180 O 0.30865 0.01199 0.66909 0.0
O181 O 0.32631 0.00709 0.67571 0.0
O182 O 0.95551 0.27896 0.7458 0.0
Cd183 Cd 0.96112 0.29388 0.72903 0.0
Cd184 Cd 0.97509 0.27891 0.71966 0.0
O185 O 0.968 0.26773 0.73931 0.0
O186 O 0.95576 0.30876 0.73719 0.0
O187 O 0.97877 0.31489 0.73303 0.0
C188 C 0.96963 0.31885 0.73792 0.0
C189 C 0.99973 0.29101 0.71339 0.0
C190 C 0.95958 0.26941 0.74822 0.0
C191 C 0.95085 0.27678 0.69858 0.0
O192 O 0.95992 0.27224 0.7014 0.0
O193 O 0.94985 0.28592 0.70795 0.0
O194 O 0.99171 0.27647 0.71256 0.0
O195 O 0.99394 0.29873 0.71856 0.0
O196 O 0.72706 0.67075 0.66578 0.0
Cd197 Cd 0.71926 0.67705 0.68427 0.0
Cd198 Cd 0.70746 0.64779 0.68782 0.0
O199 O 0.71285 0.64607 0.66593 0.0
O200 O 0.7229 0.69751 0.67991 0.0
O201 O 0.70045 0.67783 0.68118 0.0
C202 C 0.70875 0.69189 0.67867 0.0
C203 C 0.68352 0.63431 0.69591 0.0
C204 C 0.72236 0.65759 0.6596 0.0
C205 C 0.73092 0.66882 0.711 0.0
O206 O 0.72429 0.65557 0.70459 0.0
O207 O 0.72919 0.67916 0.70561 0.0
O208 O 0.69137 0.62796 0.69382 0.0
O209 O 0.68905 0.64822 0.69267 0.0
O210 O 0.32193 0.28463 0.68803 0.0
Cd211 Cd 0.31477 0.29368 0.70466 0.0
Cd212 Cd 0.34345 0.30854 0.71401 0.0
O213 O 0.34585 0.29941 0.69378 0.0
O214 O 0.2953 0.29059 0.69675 0.0
O215 O 0.31543 0.31315 0.70062 0.0
C216 C 0.30166 0.30501 0.69588 0.0
C217 C 0.3591 0.33406 0.72153 0.0
C218 C 0.3353 0.28908 0.68524 0.0
C219 C 0.32226 0.28588 0.73445 0.0
O220 O 0.33567 0.29444 0.73148 0.0
O221 O 0.31181 0.2846 0.72557 0.0
O222 O 0.36376 0.32456 0.72147 0.0
O223 O 0.34553 0.32915 0.71678 0.0
O224 O 0.71526 0.05302 0.65098 0.0
Cd225 Cd 0.70673 0.03805 0.6677 0.0
Cd226 Cd 0.69535 0.05562 0.67528 0.0
O227 O 0.70335 0.06538 0.65515 0.0
O228 O 0.70913 0.02059 0.66126 0.0
O229 O 0.68724 0.01883 0.66279 0.0
C230 C 0.6949 0.0125 0.65953 0.0
C231 C 0.67098 0.04623 0.6818 0.0
C232 C 0.71211 0.06301 0.6474 0.0
C233 C 0.7178 0.05589 0.69753 0.0
O234 O 0.71044 0.06212 0.69359 0.0
O235 O 0.71719 0.0452 0.68916 0.0
O236 O 0.68016 0.06056 0.68195 0.0
O237 O 0.67542 0.03717 0.67702 0.0
O238 O 0.94204 0.66488 0.73042 0.0
Cd239 Cd 0.94956 0.65802 0.71214 0.0
Cd240 Cd 0.96221 0.68736 0.70786 0.0
O241 O 0.95602 0.6895 0.72932 0.0
O242 O 0.94511 0.63735 0.71668 0.0
O243 O 0.96791 0.65649 0.71572 0.0
C244 C 0.95917 0.64251 0.71824 0.0
C245 C 0.98654 0.7005 0.7007 0.0
C246 C 0.94661 0.67822 0.73603 0.0
C247 C 0.93876 0.66629 0.68458 0.0
O248 O 0.9461 0.67978 0.69035 0.0
O249 O 0.93959 0.65577 0.69082 0.0
O250 O 0.97885 0.70709 0.70234 0.0
O251 O 0.98061 0.68654 0.70391 0.0
H252 H 0.16915 0.34512 0.05958 0.0
H253 H 0.24659 0.29959 0.17653 0.0
H254 H 0.16363 0.34602 0.14103 0.0
H255 H 0.14468 0.34929 0.12798 0.0
H256 H 0.11267 0.30221 0.13235 0.0
H257 H 0.13211 0.29894 0.14481 0.0
H258 H 0.1876 0.34619 0.12289 0.0
H259 H 0.1834 0.35004 0.09653 0.0
H260 H 0.14611 0.30445 0.09105 0.0
H261 H 0.15056 0.3007 0.11738 0.0
H262 H 0.21193 0.34438 0.1427 0.0
H263 H 0.2306 0.34969 0.12438 0.0
H264 H 0.20106 0.30697 0.09972 0.0
H265 H 0.1825 0.30161 0.11838 0.0
H266 H 0.21081 0.33823 0.17565 0.0
H267 H 0.23225 0.33625 0.18421 0.0
H268 H 0.21335 0.29274 0.15937 0.0
H269 H 0.19189 0.29479 0.15105 0.0
H270 H 0.18584 0.33803 0.19158 0.0
H271 H 0.19517 0.33741 0.217 0.0
H272 H 0.18309 0.29084 0.20714 0.0
H273 H 0.17414 0.29177 0.18153 0.0
H274 H 0.16115 0.34028 0.17733 0.0
H275 H 0.1449 0.33866 0.19724 0.0
H276 H 0.12606 0.29019 0.19536 0.0
H277 H 0.14286 0.29211 0.17592 0.0
O278 O 0.17068 0.34332 0.06994 0.0
O279 O 0.15156 0.31983 0.06774 0.0
O280 O 0.24745 0.32305 0.18593 0.0
O281 O 0.23826 0.30068 0.17328 0.0
C282 C 0.16165 0.31987 0.14872 0.0
C283 C 0.17185 0.32088 0.13807 0.0
C284 C 0.18441 0.31996 0.14272 0.0
C285 C 0.18658 0.31763 0.15795 0.0
C286 C 0.17628 0.31637 0.16857 0.0
C287 C 0.16379 0.31747 0.16395 0.0
C288 C 0.14927 0.32225 0.1438 0.0
C289 C 0.15245 0.33648 0.13942 0.0
C290 C 0.14153 0.33833 0.132 0.0
C291 C 0.12708 0.32599 0.12897 0.0
C292 C 0.12372 0.3119 0.13422 0.0
C293 C 0.13475 0.31004 0.14154 0.0
C294 C 0.16944 0.32314 0.122 0.0
C295 C 0.17861 0.33702 0.11593 0.0
C296 C 0.17615 0.3392 0.1009 0.0
C297 C 0.16442 0.32755 0.09168 0.0
C298 C 0.15525 0.31366 0.09783 0.0
C299 C 0.15775 0.31148 0.11285 0.0
C300 C 0.19589 0.32261 0.13189 0.0
C301 C 0.20956 0.3361 0.13343 0.0
C302 C 0.22014 0.33917 0.12287 0.0
C303 C 0.21727 0.3288 0.11052 0.0
C304 C 0.20364 0.31513 0.10916 0.0
C305 C 0.19302 0.31208 0.11975 0.0
C306 C 0.19977 0.3166 0.16282 0.0
C307 C 0.21131 0.32826 0.17212 0.0
C308 C 0.22355 0.32711 0.17696 0.0
C309 C 0.2245 0.31431 0.17249 0.0
C310 C 0.21296 0.30273 0.16304 0.0
C311 C 0.20071 0.30388 0.15824 0.0
C312 C 0.1793 0.31495 0.18474 0.0
C313 C 0.18488 0.32759 0.19505 0.0
C314 C 0.19022 0.3272 0.20959 0.0
C315 C 0.19001 0.3141 0.21412 0.0
C316 C 0.18368 0.30119 0.20396 0.0
C317 C 0.17841 0.30163 0.18938 0.0
C318 C 0.15314 0.31632 0.17519 0.0
C319 C 0.15342 0.32932 0.18118 0.0
C320 C 0.14406 0.32834 0.19252 0.0
C321 C 0.13412 0.31428 0.19799 0.0
C322 C 0.13372 0.30123 0.19167 0.0
C323 C 0.1432 0.30227 0.18045 0.0
C324 C 0.16178 0.32994 0.07573 0.0
C325 C 0.23744 0.31301 0.17767 0.0
H326 H 0.66019 0.81789 0.07579 0.0
H327 H 0.7054 0.94476 0.19817 0.0
H328 H 0.66555 0.81314 0.1628 0.0
H329 H 0.66177 0.78932 0.15126 0.0
H330 H 0.70874 0.81039 0.14525 0.0
H331 H 0.71242 0.83401 0.15746 0.0
H332 H 0.66255 0.8355 0.13993 0.0
H333 H 0.65713 0.82665 0.11313 0.0
H334 H 0.70354 0.84197 0.10862 0.0
H335 H 0.70879 0.85085 0.13541 0.0
H336 H 0.66457 0.86395 0.15828 0.0
H337 H 0.65872 0.87849 0.14107 0.0
H338 H 0.70093 0.89439 0.12153 0.0
H339 H 0.70683 0.88001 0.13914 0.0
H340 H 0.67165 0.86949 0.19238 0.0
H341 H 0.67221 0.8926 0.20161 0.0
H342 H 0.71373 0.91921 0.18103 0.0
H343 H 0.71312 0.896 0.17206 0.0
H344 H 0.6743 0.84447 0.20809 0.0
H345 H 0.67451 0.8548 0.23345 0.0
H346 H 0.71748 0.89351 0.22741 0.0
H347 H 0.71752 0.88257 0.20239 0.0
H348 H 0.67132 0.81958 0.19314 0.0
H349 H 0.67331 0.80361 0.21164 0.0
H350 H 0.72106 0.83151 0.21363 0.0
H351 H 0.71882 0.84776 0.19549 0.0
O352 O 0.66259 0.82153 0.08635 0.0
O353 O 0.68655 0.82959 0.08463 0.0
O354 O 0.68357 0.92124 0.20507 0.0
O355 O 0.70488 0.93544 0.19463 0.0
C356 C 0.69108 0.83998 0.16636 0.0
C357 C 0.68923 0.84896 0.15582 0.0
C358 C 0.68964 0.8624 0.16084 0.0
C359 C 0.69223 0.86705 0.1764 0.0
C360 C 0.69424 0.85815 0.18699 0.0
C361 C 0.69354 0.84453 0.18195 0.0
C362 C 0.68925 0.82523 0.161 0.0
C363 C 0.67504 0.81248 0.15926 0.0
C364 C 0.6729 0.79895 0.15249 0.0
C365 C 0.68493 0.79795 0.14711 0.0
C366 C 0.69925 0.81068 0.14936 0.0
C367 C 0.70139 0.8242 0.15629 0.0
C368 C 0.68605 0.8438 0.13954 0.0
C369 C 0.67152 0.83697 0.1331 0.0
C370 C 0.66847 0.83191 0.11781 0.0
C371 C 0.6799 0.83359 0.10873 0.0
C372 C 0.69447 0.84049 0.11528 0.0
C373 C 0.69751 0.84556 0.13057 0.0
C374 C 0.68613 0.87098 0.14998 0.0
C375 C 0.67255 0.87058 0.15028 0.0
C376 C 0.66919 0.87881 0.14035 0.0
C377 C 0.67934 0.88757 0.12988 0.0
C378 C 0.69294 0.88787 0.12955 0.0
C379 C 0.69629 0.8796 0.13951 0.0
C380 C 0.6924 0.88109 0.18165 0.0
C381 C 0.68088 0.88033 0.18993 0.0
C382 C 0.68121 0.89354 0.19516 0.0
C383 C 0.69304 0.90776 0.19208 0.0
C384 C 0.70447 0.90845 0.18362 0.0
C385 C 0.70415 0.89522 0.17845 0.0
C386 C 0.69592 0.86273 0.2034 0.0
C387 C 0.68403 0.85485 0.21249 0.0
C388 C 0.68406 0.86094 0.22688 0.0
C389 C 0.69587 0.87515 0.23237 0.0
C390 C 0.70823 0.88251 0.22362 0.0
C391 C 0.70828 0.8763 0.20929 0.0
C392 C 0.69492 0.8348 0.19301 0.0
C393 C 0.6822 0.82221 0.19758 0.0
C394 C 0.68339 0.81304 0.20808 0.0
C395 C 0.69737 0.81619 0.21411 0.0
C396 C 0.71012 0.82884 0.2094 0.0
C397 C 0.70889 0.83809 0.19898 0.0
C398 C 0.67661 0.82814 0.09251 0.0
C399 C 0.69349 0.92184 0.19767 0.0
H400 H 0.15409 0.84225 0.06516 0.0
H401 H 0.26752 0.93307 0.20396 0.0
H402 H 0.14115 0.84977 0.14386 0.0
H403 H 0.11917 0.82762 0.13166 0.0
H404 H 0.13465 0.79887 0.14911 0.0
H405 H 0.15637 0.82104 0.16146 0.0
H406 H 0.16776 0.8717 0.12625 0.0
H407 H 0.16152 0.86291 0.09947 0.0
H408 H 0.16878 0.82584 0.10802 0.0
H409 H 0.17516 0.83487 0.13472 0.0
H410 H 0.19374 0.89588 0.13847 0.0
H411 H 0.21248 0.90867 0.12019 0.0
H412 H 0.22885 0.87801 0.12746 0.0
H413 H 0.2097 0.86501 0.14519 0.0
H414 H 0.19827 0.90466 0.1746 0.0
H415 H 0.22139 0.92627 0.18566 0.0
H416 H 0.24093 0.89784 0.1881 0.0
H417 H 0.21773 0.87635 0.17704 0.0
H418 H 0.17707 0.88667 0.19761 0.0
H419 H 0.18763 0.89697 0.22338 0.0
H420 H 0.206 0.86744 0.22457 0.0
H421 H 0.196 0.85783 0.19864 0.0
H422 H 0.14148 0.85245 0.18058 0.0
H423 H 0.12345 0.83627 0.19813 0.0
H424 H 0.15263 0.8197 0.21149 0.0
H425 H 0.17013 0.83531 0.19345 0.0
O426 O 0.15682 0.84568 0.07574 0.0
O427 O 0.16041 0.82665 0.08081 0.0
O428 O 0.24795 0.93903 0.19734 0.0
O429 O 0.25841 0.92483 0.19916 0.0
C430 C 0.16453 0.85049 0.15917 0.0
C431 C 0.17507 0.85889 0.14871 0.0
C432 C 0.18883 0.87149 0.15387 0.0
C433 C 0.19202 0.87575 0.16947 0.0
C434 C 0.18164 0.8672 0.17997 0.0
C435 C 0.16788 0.85452 0.17485 0.0
C436 C 0.15031 0.83698 0.15356 0.0
C437 C 0.13961 0.83864 0.14525 0.0
C438 C 0.12714 0.82599 0.1382 0.0
C439 C 0.12517 0.81146 0.13932 0.0
C440 C 0.13568 0.80984 0.14817 0.0
C441 C 0.14812 0.82249 0.15523 0.0
C442 C 0.17195 0.85395 0.13237 0.0
C443 C 0.16814 0.86178 0.12226 0.0
C444 C 0.16452 0.85669 0.107 0.0
C445 C 0.16462 0.84365 0.10161 0.0
C446 C 0.16858 0.83591 0.11179 0.0
C447 C 0.17224 0.84105 0.12703 0.0
C448 C 0.20036 0.87951 0.14306 0.0
C449 C 0.20137 0.89194 0.13603 0.0
C450 C 0.21216 0.89928 0.12567 0.0
C451 C 0.2222 0.89437 0.12227 0.0
C452 C 0.22116 0.88195 0.12954 0.0
C453 C 0.21031 0.87457 0.13977 0.0
C454 C 0.20641 0.88902 0.17498 0.0
C455 C 0.20763 0.9032 0.17738 0.0
C456 C 0.22082 0.91549 0.18375 0.0
C457 C 0.233 0.91377 0.18782 0.0
C458 C 0.23177 0.89956 0.18513 0.0
C459 C 0.21857 0.88728 0.17876 0.0
C460 C 0.18567 0.87142 0.19636 0.0
C461 C 0.18313 0.88225 0.2036 0.0
C462 C 0.18916 0.88809 0.21833 0.0
C463 C 0.19779 0.88314 0.22603 0.0
C464 C 0.19967 0.87174 0.2189 0.0
C465 C 0.19378 0.86605 0.20416 0.0
C466 C 0.15719 0.84519 0.18589 0.0
C467 C 0.14394 0.84532 0.18734 0.0
C468 C 0.1337 0.83613 0.19743 0.0
C469 C 0.13656 0.82665 0.20625 0.0
C470 C 0.14993 0.82667 0.20475 0.0
C471 C 0.16007 0.83575 0.1946 0.0
C472 C 0.16052 0.83811 0.08544 0.0
C473 C 0.24688 0.92668 0.19503 0.0
H474 H 0.29983 0.15793 0.98799 0.0
H475 H 0.33461 0.07602 0.86192 0.0
H476 H 0.29056 0.16382 0.90625 0.0
H477 H 0.29254 0.18737 0.91646 0.0
H478 H 0.33886 0.21145 0.90687 0.0
H479 H 0.33642 0.18806 0.89597 0.0
H480 H 0.29122 0.13537 0.92458 0.0
H481 H 0.29069 0.14122 0.95153 0.0
H482 H 0.33481 0.17989 0.95106 0.0
H483 H 0.33526 0.17381 0.92417 0.0
H484 H 0.2959 0.10817 0.90669 0.0
H485 H 0.30089 0.09282 0.92367 0.0
H486 H 0.34275 0.13216 0.93901 0.0
H487 H 0.33804 0.14709 0.92134 0.0
H488 H 0.29298 0.1079 0.87101 0.0
H489 H 0.29547 0.08659 0.86146 0.0
H490 H 0.34102 0.10969 0.87956 0.0
H491 H 0.33842 0.13098 0.88889 0.0
H492 H 0.29057 0.13203 0.85296 0.0
H493 H 0.29053 0.12206 0.82729 0.0
H494 H 0.33679 0.13586 0.83536 0.0
H495 H 0.3368 0.14626 0.86056 0.0
H496 H 0.28912 0.16037 0.87256 0.0
H497 H 0.28785 0.17701 0.85428 0.0
H498 H 0.33274 0.19125 0.84324 0.0
H499 H 0.33384 0.17449 0.86146 0.0
O500 O 0.30029 0.1558 0.97735 0.0
O501 O 0.32296 0.17559 0.97648 0.0
O502 O 0.30967 0.07262 0.85703 0.0
O503 O 0.33326 0.08418 0.86578 0.0
C504 C 0.3126 0.15996 0.89521 0.0
C505 C 0.3134 0.15061 0.90606 0.0
C506 C 0.31435 0.1378 0.90135 0.0
C507 C 0.31417 0.13419 0.88575 0.0
C508 C 0.31318 0.14344 0.87489 0.0
C509 C 0.31235 0.15631 0.87961 0.0
C510 C 0.31333 0.17429 0.90034 0.0
C511 C 0.30103 0.17428 0.90616 0.0
C512 C 0.30226 0.18773 0.91213 0.0
C513 C 0.31589 0.20141 0.91259 0.0
C514 C 0.3281 0.2013 0.90647 0.0
C515 C 0.32678 0.18791 0.9003 0.0
C516 C 0.31322 0.15423 0.92242 0.0
C517 C 0.30075 0.14509 0.93034 0.0
C518 C 0.30048 0.14847 0.94572 0.0
C519 C 0.31269 0.16105 0.95345 0.0
C520 C 0.3252 0.17015 0.94545 0.0
C521 C 0.32547 0.16674 0.93008 0.0
C522 C 0.3166 0.12876 0.91275 0.0
C523 C 0.30612 0.11345 0.91376 0.0
C524 C 0.30896 0.10472 0.92357 0.0
C525 C 0.32229 0.1112 0.93269 0.0
C526 C 0.33251 0.12669 0.93197 0.0
C527 C 0.32975 0.13532 0.92203 0.0
C528 C 0.3155 0.12095 0.88067 0.0
C529 C 0.30347 0.1083 0.87294 0.0
C530 C 0.30492 0.09615 0.8675 0.0
C531 C 0.31846 0.09644 0.86974 0.0
C532 C 0.33045 0.10909 0.87764 0.0
C533 C 0.32898 0.12124 0.88304 0.0
C534 C 0.31367 0.1398 0.8586 0.0
C535 C 0.30076 0.13324 0.84896 0.0
C536 C 0.30073 0.12741 0.83439 0.0
C537 C 0.31362 0.12803 0.82926 0.0
C538 C 0.32671 0.13535 0.83877 0.0
C539 C 0.32674 0.14124 0.85324 0.0
C540 C 0.31154 0.16618 0.86828 0.0
C541 C 0.29866 0.16709 0.86616 0.0
C542 C 0.29799 0.17665 0.85578 0.0
C543 C 0.31019 0.18546 0.84729 0.0
C544 C 0.32307 0.18446 0.84943 0.0
C545 C 0.32374 0.17493 0.85985 0.0
C546 C 0.31235 0.16463 0.96977 0.0
C547 C 0.32013 0.08366 0.8638 0.0
H548 H 0.83328 0.16916 0.99565 0.0
H549 H 0.74532 0.04859 0.86791 0.0
H550 H 0.84136 0.17669 0.91103 0.0
H551 H 0.86268 0.19933 0.92326 0.0
H552 H 0.8875 0.17598 0.92434 0.0
H553 H 0.86617 0.15352 0.91157 0.0
H554 H 0.81531 0.15366 0.93117 0.0
H555 H 0.81986 0.16163 0.95818 0.0
H556 H 0.85151 0.14631 0.9619 0.0
H557 H 0.84674 0.13827 0.93491 0.0
H558 H 0.78834 0.12713 0.91161 0.0
H559 H 0.76951 0.1139 0.92958 0.0
H560 H 0.79588 0.09616 0.94853 0.0
H561 H 0.81479 0.10969 0.93062 0.0
H562 H 0.78935 0.12344 0.87674 0.0
H563 H 0.76629 0.10141 0.86629 0.0
H564 H 0.77936 0.07208 0.88702 0.0
H565 H 0.80247 0.09421 0.89724 0.0
H566 H 0.81773 0.1482 0.8623 0.0
H567 H 0.8085 0.14 0.83598 0.0
H568 H 0.80927 0.09869 0.84142 0.0
H569 H 0.81943 0.10749 0.86748 0.0
H570 H 0.84089 0.17158 0.87793 0.0
H571 H 0.85933 0.18703 0.86052 0.0
H572 H 0.87569 0.15572 0.85969 0.0
H573 H 0.85662 0.13998 0.87653 0.0
O574 O 0.8316 0.16587 0.98501 0.0
O575 O 0.84781 0.15786 0.98631 0.0
O576 O 0.74812 0.07308 0.86156 0.0
O577 O 0.7543 0.05751 0.87202 0.0
C578 C 0.83874 0.14944 0.9046 0.0
C579 C 0.828 0.14071 0.91472 0.0
C580 C 0.81453 0.12791 0.90919 0.0
C581 C 0.81186 0.12377 0.89351 0.0
C582 C 0.82266 0.13246 0.88334 0.0
C583 C 0.83611 0.14531 0.88893 0.0
C584 C 0.85227 0.16352 0.91047 0.0
C585 C 0.8515 0.17658 0.9137 0.0
C586 C 0.86365 0.18944 0.92083 0.0
C587 C 0.87676 0.18942 0.925 0.0
C588 C 0.87764 0.17643 0.9212 0.0
C589 C 0.86547 0.16358 0.91396 0.0
C590 C 0.83069 0.14539 0.93113 0.0
C591 C 0.82317 0.15199 0.93787 0.0
C592 C 0.82582 0.15655 0.95328 0.0
C593 C 0.83606 0.15461 0.9622 0.0
C594 C 0.84356 0.14797 0.95536 0.0
C595 C 0.84088 0.14339 0.93996 0.0
C596 C 0.8029 0.11933 0.91979 0.0
C597 C 0.78998 0.1203 0.91958 0.0
C598 C 0.77922 0.11268 0.92983 0.0
C599 C 0.78115 0.10393 0.94051 0.0
C600 C 0.79411 0.10295 0.94061 0.0
C601 C 0.80488 0.11058 0.93034 0.0
C602 C 0.7976 0.1104 0.88768 0.0
C603 C 0.78721 0.11224 0.879 0.0
C604 C 0.77404 0.09964 0.87305 0.0
C605 C 0.77099 0.08497 0.87578 0.0
C606 C 0.78136 0.0832 0.88468 0.0
C607 C 0.79455 0.09582 0.89057 0.0
C608 C 0.81934 0.12849 0.8668 0.0
C609 C 0.81641 0.13763 0.85765 0.0
C610 C 0.81086 0.13278 0.84267 0.0
C611 C 0.8079 0.11856 0.8366 0.0
C612 C 0.81153 0.10975 0.84562 0.0
C613 C 0.81728 0.11472 0.86056 0.0
C614 C 0.84739 0.15465 0.87839 0.0
C615 C 0.84843 0.16806 0.8739 0.0
C616 C 0.85909 0.17694 0.86405 0.0
C617 C 0.86912 0.17271 0.85868 0.0
C618 C 0.86805 0.15925 0.86335 0.0
C619 C 0.85723 0.15027 0.87305 0.0
C620 C 0.83888 0.15952 0.97856 0.0
C621 C 0.7571 0.07154 0.86935 0.0
H622 H 0.86572 0.69408 0.00793 0.0
H623 H 0.74141 0.66811 0.89215 0.0
H624 H 0.87097 0.70602 0.93165 0.0
H625 H 0.89015 0.70242 0.9439 0.0
H626 H 0.87164 0.65874 0.9195 0.0
H627 H 0.85203 0.66215 0.90796 0.0
H628 H 0.84521 0.70481 0.95002 0.0
H629 H 0.85398 0.70426 0.97582 0.0
H630 H 0.84702 0.6596 0.96481 0.0
H631 H 0.83809 0.66022 0.93912 0.0
H632 H 0.81477 0.70265 0.93407 0.0
H633 H 0.79679 0.69835 0.9531 0.0
H634 H 0.79072 0.65397 0.95846 0.0
H635 H 0.80848 0.65824 0.93932 0.0
H636 H 0.8153 0.70668 0.89929 0.0
H637 H 0.79193 0.70586 0.89292 0.0
H638 H 0.76788 0.65871 0.90235 0.0
H639 H 0.79136 0.65964 0.90844 0.0
H640 H 0.83702 0.70911 0.87962 0.0
H641 H 0.8269 0.70939 0.85419 0.0
H642 H 0.7992 0.6609 0.85238 0.0
H643 H 0.80893 0.66072 0.87794 0.0
H644 H 0.86919 0.7085 0.89423 0.0
H645 H 0.88455 0.70978 0.87339 0.0
H646 H 0.85152 0.66429 0.85729 0.0
H647 H 0.83632 0.66314 0.87812 0.0
O648 O 0.86181 0.69389 0.9978 0.0
O649 O 0.85772 0.6708 0.99166 0.0
O650 O 0.76372 0.69286 0.88936 0.0
O651 O 0.7508 0.66872 0.8945 0.0
C652 C 0.84624 0.68463 0.91512 0.0
C653 C 0.8368 0.68344 0.92676 0.0
C654 C 0.82328 0.68296 0.92324 0.0
C655 C 0.81924 0.68379 0.90809 0.0
C656 C 0.82855 0.68479 0.89645 0.0
C657 C 0.84203 0.68515 0.89992 0.0
C658 C 0.86001 0.68429 0.91904 0.0
C659 C 0.8713 0.69584 0.92867 0.0
C660 C 0.88228 0.69376 0.93564 0.0
C661 C 0.8823 0.68015 0.93292 0.0
C662 C 0.87174 0.66919 0.92216 0.0
C663 C 0.86066 0.67121 0.91535 0.0
C664 C 0.84109 0.68259 0.9427 0.0
C665 C 0.84545 0.69486 0.95326 0.0
C666 C 0.85051 0.69454 0.96797 0.0
C667 C 0.85128 0.68192 0.97236 0.0
C668 C 0.84661 0.66951 0.9618 0.0
C669 C 0.84151 0.66983 0.94712 0.0
C670 C 0.81297 0.68077 0.93533 0.0
C671 C 0.80957 0.69202 0.93939 0.0
C672 C 0.7993 0.68954 0.95022 0.0
C673 C 0.79239 0.67584 0.95731 0.0
C674 C 0.79602 0.66472 0.95337 0.0
C675 C 0.80614 0.66713 0.94243 0.0
C676 C 0.805 0.68322 0.90429 0.0
C677 C 0.80497 0.69617 0.89988 0.0
C678 C 0.79161 0.69567 0.8963 0.0
C679 C 0.77803 0.68221 0.89713 0.0
C680 C 0.77813 0.66925 0.90159 0.0
C681 C 0.79151 0.66975 0.90509 0.0
C682 C 0.82373 0.68489 0.88054 0.0
C683 C 0.82888 0.69855 0.87364 0.0
C684 C 0.82309 0.69871 0.85922 0.0
C685 C 0.81234 0.68516 0.85143 0.0
C686 C 0.80756 0.67145 0.85817 0.0
C687 C 0.8131 0.67134 0.8727 0.0
C688 C 0.85157 0.68579 0.88759 0.0
C689 C 0.86533 0.69881 0.88621 0.0
C690 C 0.87409 0.6995 0.87434 0.0
C691 C 0.8692 0.68717 0.86361 0.0
C692 C 0.85548 0.67408 0.86519 0.0
C693 C 0.84679 0.67338 0.87709 0.0
C694 C 0.85709 0.6818 0.98784 0.0
C695 C 0.76379 0.68164 0.89342 0.0
H696 H 0.8346 0.67609 0.39102 0.0
H697 H 0.90814 0.63128 0.5145 0.0
H698 H 0.82772 0.67861 0.47165 0.0
H699 H 0.80873 0.68211 0.459 0.0
H700 H 0.77602 0.63576 0.4656 0.0
H701 H 0.79545 0.63222 0.47768 0.0
H702 H 0.85184 0.67827 0.45496 0.0
H703 H 0.84819 0.68163 0.42831 0.0
H704 H 0.81043 0.6363 0.42326 0.0
H705 H 0.81433 0.63303 0.4499 0.0
H706 H 0.87552 0.67676 0.47592 0.0
H707 H 0.89453 0.6819 0.45807 0.0
H708 H 0.8654 0.63897 0.43357 0.0
H709 H 0.8465 0.63377 0.45179 0.0
H710 H 0.87416 0.67138 0.50807 0.0
H711 H 0.89516 0.66927 0.51793 0.0
H712 H 0.87558 0.62452 0.49565 0.0
H713 H 0.85455 0.62673 0.486 0.0
H714 H 0.85049 0.6714 0.52384 0.0
H715 H 0.85945 0.67045 0.5493 0.0
H716 H 0.84285 0.62261 0.54065 0.0
H717 H 0.83475 0.624 0.51486 0.0
H718 H 0.82202 0.67317 0.50536 0.0
H719 H 0.80556 0.67283 0.52444 0.0
H720 H 0.79261 0.62654 0.53196 0.0
H721 H 0.80845 0.62677 0.51223 0.0
O722 O 0.8359 0.67449 0.40151 0.0
O723 O 0.81653 0.65114 0.39953 0.0
O724 O 0.9098 0.65568 0.52148 0.0
O725 O 0.90002 0.63245 0.51063 0.0
C726 C 0.82518 0.65268 0.48089 0.0
C727 C 0.83553 0.65338 0.47055 0.0
C728 C 0.84795 0.6524 0.47566 0.0
C729 C 0.84978 0.65022 0.49101 0.0
C730 C 0.83931 0.64918 0.5013 0.0
C731 C 0.82701 0.65046 0.4963 0.0
C732 C 0.81299 0.65515 0.47548 0.0
C733 C 0.81641 0.66926 0.47052 0.0
C734 C 0.80548 0.67125 0.46337 0.0
C735 C 0.79078 0.6592 0.4612 0.0
C736 C 0.78725 0.64522 0.46685 0.0
C737 C 0.79828 0.64321 0.47391 0.0
C738 C 0.83341 0.65537 0.45432 0.0
C739 C 0.84286 0.66904 0.44804 0.0
C740 C 0.84071 0.67095 0.43283 0.0
C741 C 0.82902 0.65923 0.42365 0.0
C742 C 0.81955 0.64555 0.43001 0.0
C743 C 0.82174 0.64365 0.44522 0.0
C744 C 0.85965 0.65488 0.46518 0.0
C745 C 0.87331 0.66839 0.46681 0.0
C746 C 0.88409 0.67137 0.4565 0.0
C747 C 0.88142 0.6609 0.44431 0.0
C748 C 0.86782 0.64721 0.44289 0.0
C749 C 0.85701 0.64425 0.45323 0.0
C750 C 0.86282 0.64917 0.49642 0.0
C751 C 0.87443 0.66113 0.50536 0.0
C752 C 0.88641 0.6599 0.51095 0.0
C753 C 0.88702 0.6467 0.50762 0.0
C754 C 0.87544 0.63482 0.49846 0.0
C755 C 0.86344 0.63606 0.4929 0.0
C756 C 0.84201 0.64779 0.51754 0.0
C757 C 0.84856 0.66068 0.52759 0.0
C758 C 0.85362 0.66006 0.54218 0.0
C759 C 0.85203 0.64646 0.5471 0.0
C760 C 0.84462 0.63336 0.5372 0.0
C761 C 0.83979 0.63406 0.52252 0.0
C762 C 0.81642 0.64999 0.50735 0.0
C763 C 0.81543 0.66289 0.51095 0.0
C764 C 0.80614 0.66271 0.52201 0.0
C765 C 0.79779 0.64968 0.52987 0.0
C766 C 0.79868 0.63671 0.52605 0.0
C767 C 0.80784 0.63685 0.51486 0.0
C768 C 0.82673 0.66131 0.40751 0.0
C769 C 0.89966 0.64528 0.51368 0.0
H770 H 0.33692 0.16257 0.40269 0.0
H771 H 0.37129 0.27857 0.53505 0.0
H772 H 0.33116 0.15183 0.48278 0.0
H773 H 0.32698 0.12761 0.47227 0.0
H774 H 0.37164 0.14001 0.48757 0.0
H775 H 0.37596 0.16472 0.49734 0.0
H776 H 0.33168 0.176 0.46621 0.0
H777 H 0.32964 0.16956 0.43901 0.0
H778 H 0.37464 0.17818 0.44177 0.0
H779 H 0.37658 0.18476 0.46894 0.0
H780 H 0.33066 0.19877 0.48614 0.0
H781 H 0.32607 0.21418 0.46886 0.0
H782 H 0.37108 0.23411 0.4555 0.0
H783 H 0.37555 0.21849 0.47287 0.0
H784 H 0.3358 0.20368 0.52151 0.0
H785 H 0.33629 0.2263 0.53228 0.0
H786 H 0.37975 0.25403 0.51586 0.0
H787 H 0.37918 0.23128 0.50531 0.0
H788 H 0.33785 0.17792 0.53736 0.0
H789 H 0.33668 0.18739 0.5627 0.0
H790 H 0.38005 0.22648 0.5592 0.0
H791 H 0.38144 0.2164 0.53428 0.0
H792 H 0.33573 0.15218 0.52004 0.0
H793 H 0.33704 0.13548 0.53813 0.0
H794 H 0.38413 0.1664 0.54624 0.0
H795 H 0.3825 0.18328 0.52857 0.0
O796 O 0.33799 0.16524 0.41346 0.0
O797 O 0.36115 0.16976 0.4155 0.0
O798 O 0.3482 0.25472 0.53854 0.0
O799 O 0.37068 0.26946 0.53062 0.0
C800 C 0.35632 0.17507 0.49639 0.0
C801 C 0.35557 0.18483 0.48603 0.0
C802 C 0.35596 0.19818 0.49139 0.0
C803 C 0.35757 0.20205 0.50707 0.0
C804 C 0.35887 0.1926 0.51746 0.0
C805 C 0.35816 0.17906 0.51212 0.0
C806 C 0.35389 0.16008 0.49073 0.0
C807 C 0.34007 0.14934 0.4838 0.0
C808 C 0.33765 0.1354 0.47796 0.0
C809 C 0.34894 0.13175 0.47912 0.0
C810 C 0.36275 0.14249 0.48631 0.0
C811 C 0.36521 0.15656 0.49202 0.0
C812 C 0.35433 0.18099 0.4695 0.0
C813 C 0.34113 0.17663 0.46088 0.0
C814 C 0.33997 0.17289 0.44536 0.0
C815 C 0.35199 0.17338 0.4382 0.0
C816 C 0.36519 0.1777 0.44692 0.0
C817 C 0.36633 0.18147 0.46243 0.0
C818 C 0.35341 0.20752 0.4807 0.0
C819 C 0.3395 0.20642 0.47944 0.0
C820 C 0.33689 0.21516 0.46952 0.0
C821 C 0.3482 0.22527 0.46078 0.0
C822 C 0.36219 0.22643 0.46214 0.0
C823 C 0.36475 0.21752 0.47197 0.0
C824 C 0.35748 0.21586 0.51269 0.0
C825 C 0.34539 0.21466 0.52022 0.0
C826 C 0.3457 0.22759 0.52636 0.0
C827 C 0.35809 0.24198 0.52498 0.0
C828 C 0.37006 0.24313 0.51716 0.0
C829 C 0.36975 0.23017 0.51106 0.0
C830 C 0.35972 0.19648 0.53395 0.0
C831 C 0.34734 0.18821 0.54233 0.0
C832 C 0.34659 0.1938 0.55671 0.0
C833 C 0.35813 0.20788 0.5629 0.0
C834 C 0.37098 0.21557 0.55489 0.0
C835 C 0.3718 0.20985 0.5406 0.0
C836 C 0.35902 0.16891 0.52303 0.0
C837 C 0.34631 0.15531 0.52577 0.0
C838 C 0.34713 0.14574 0.53602 0.0
C839 C 0.36072 0.14953 0.54365 0.0
C840 C 0.37344 0.1632 0.54078 0.0
C841 C 0.37257 0.17283 0.53063 0.0
C842 C 0.35071 0.16937 0.42172 0.0
C843 C 0.35863 0.25573 0.53179 0.0
H844 H 0.82468 0.17845 0.3948 0.0
H845 H 0.94091 0.26183 0.52437 0.0
H846 H 0.8099 0.17885 0.47263 0.0
H847 H 0.78879 0.15567 0.46067 0.0
H848 H 0.80481 0.1293 0.48267 0.0
H849 H 0.82605 0.15248 0.49412 0.0
H850 H 0.83903 0.20492 0.45712 0.0
H851 H 0.83286 0.19761 0.43005 0.0
H852 H 0.83436 0.15684 0.43662 0.0
H853 H 0.8407 0.16437 0.46362 0.0
H854 H 0.86999 0.23138 0.47615 0.0
H855 H 0.8896 0.24465 0.4589 0.0
H856 H 0.89036 0.20347 0.44854 0.0
H857 H 0.87147 0.19065 0.46646 0.0
H858 H 0.86847 0.23454 0.5102 0.0
H859 H 0.89285 0.25537 0.51952 0.0
H860 H 0.91204 0.22742 0.50945 0.0
H861 H 0.88755 0.20664 0.50031 0.0
H862 H 0.84533 0.21629 0.52845 0.0
H863 H 0.85593 0.22644 0.55422 0.0
H864 H 0.87695 0.19927 0.55379 0.0
H865 H 0.86694 0.18992 0.52782 0.0
H866 H 0.81119 0.18455 0.51071 0.0
H867 H 0.79339 0.16973 0.52909 0.0
H868 H 0.82119 0.1516 0.54257 0.0
H869 H 0.83894 0.1666 0.52436 0.0
O870 O 0.82717 0.18115 0.40552 0.0
O871 O 0.828 0.16032 0.40952 0.0
O872 O 0.92074 0.26769 0.52573 0.0
O873 O 0.93116 0.2538 0.52074 0.0
C874 C 0.83356 0.18133 0.48944 0.0
C875 C 0.84391 0.18963 0.47875 0.0
C876 C 0.8579 0.2021 0.48368 0.0
C877 C 0.86142 0.2064 0.49929 0.0
C878 C 0.85107 0.19819 0.50996 0.0
C879 C 0.83714 0.18563 0.50508 0.0
C880 C 0.81952 0.16735 0.48423 0.0
C881 C 0.80869 0.16803 0.47504 0.0
C882 C 0.79663 0.15479 0.46825 0.0
C883 C 0.79523 0.14065 0.47057 0.0
C884 C 0.80572 0.14002 0.48043 0.0
C885 C 0.81776 0.15324 0.48714 0.0
C886 C 0.84021 0.18513 0.46233 0.0
C887 C 0.83804 0.19443 0.45267 0.0
C888 C 0.8345 0.19021 0.43723 0.0
C889 C 0.83308 0.17662 0.43117 0.0
C890 C 0.83533 0.16736 0.44091 0.0
C891 C 0.83891 0.17161 0.45634 0.0
C892 C 0.86928 0.21004 0.47258 0.0
C893 C 0.87446 0.22527 0.47018 0.0
C894 C 0.88558 0.2328 0.4602 0.0
C895 C 0.89165 0.22518 0.4523 0.0
C896 C 0.8862 0.20982 0.45459 0.0
C897 C 0.87524 0.20239 0.4647 0.0
C898 C 0.87628 0.21911 0.50461 0.0
C899 C 0.87796 0.23295 0.51005 0.0
C900 C 0.89189 0.24482 0.51534 0.0
C901 C 0.9044 0.24306 0.51524 0.0
C902 C 0.90265 0.22916 0.5097 0.0
C903 C 0.8887 0.21729 0.50444 0.0
C904 C 0.85538 0.20239 0.52632 0.0
C905 C 0.85205 0.2124 0.53406 0.0
C906 C 0.8581 0.21815 0.54881 0.0
C907 C 0.86747 0.21383 0.55609 0.0
C908 C 0.87011 0.20316 0.54846 0.0
C909 C 0.86424 0.19762 0.53368 0.0
C910 C 0.82643 0.17678 0.51634 0.0
C911 C 0.81343 0.17742 0.51771 0.0
C912 C 0.80324 0.16887 0.52814 0.0
C913 C 0.80588 0.15951 0.53738 0.0
C914 C 0.81893 0.1589 0.53587 0.0
C915 C 0.82909 0.16744 0.52545 0.0
C916 C 0.82927 0.17215 0.41477 0.0
C917 C 0.91922 0.25562 0.52089 0.0
H918 H 0.99677 0.5111 0.32168 0.0
H919 H 0.00246 0.40912 0.18778 0.0
H920 H 0.9722 0.50319 0.24322 0.0
H921 H 0.97548 0.52689 0.25462 0.0
H922 H 0.01782 0.5513 0.23492 0.0
H923 H 0.01475 0.52745 0.2243 0.0
H924 H 0.97446 0.48175 0.26094 0.0
H925 H 0.97957 0.49124 0.28755 0.0
H926 H 0.02558 0.52086 0.27917 0.0
H927 H 0.02031 0.51118 0.25261 0.0
H928 H 0.97436 0.45702 0.25314 0.0
H929 H 0.979 0.44183 0.27075 0.0
H930 H 0.02382 0.4613 0.25678 0.0
H931 H 0.01919 0.47681 0.23971 0.0
H932 H 0.96963 0.44313 0.22127 0.0
H933 H 0.96923 0.41989 0.21277 0.0
H934 H 0.01286 0.44649 0.1963 0.0
H935 H 0.0132 0.46961 0.20506 0.0
H936 H 0.96495 0.4582 0.19262 0.0
H937 H 0.96365 0.44509 0.16845 0.0
H938 H 0.00922 0.47849 0.16242 0.0
H939 H 0.01056 0.49107 0.18692 0.0
H940 H 0.96551 0.49576 0.20439 0.0
H941 H 0.96334 0.51258 0.18692 0.0
H942 H 0.00936 0.53107 0.17758 0.0
H943 H 0.01148 0.51459 0.19538 0.0
O944 O 0.99502 0.50742 0.31116 0.0
O945 O 0.01857 0.52236 0.30628 0.0
O946 O 0.98012 0.40495 0.20039 0.0
O947 O 0.00238 0.41812 0.19138 0.0
C948 C 0.99217 0.4991 0.22788 0.0
C949 C 0.99387 0.49026 0.23875 0.0
C950 C 0.99355 0.47679 0.23409 0.0
C951 C 0.99147 0.47208 0.21859 0.0
C952 C 0.98976 0.48087 0.20768 0.0
C953 C 0.99018 0.49444 0.21231 0.0
C954 C 0.99323 0.51361 0.23294 0.0
C955 C 0.9821 0.51369 0.24127 0.0
C956 C 0.98397 0.52727 0.24769 0.0
C957 C 0.99697 0.54104 0.24579 0.0
C958 C 0.0078 0.54091 0.23686 0.0
C959 C 0.00598 0.52732 0.2306 0.0
C960 C 0.99704 0.49572 0.25494 0.0
C961 C 0.98565 0.49019 0.26493 0.0
C962 C 0.9886 0.49568 0.28009 0.0
C963 C 0.00299 0.5068 0.2855 0.0
C964 C 0.01438 0.51228 0.27539 0.0
C965 C 0.01142 0.50677 0.26024 0.0
C966 C 0.99649 0.4681 0.2453 0.0
C967 C 0.98524 0.45814 0.2541 0.0
C968 C 0.98787 0.44937 0.26402 0.0
C969 C 0.00179 0.45033 0.26521 0.0
C970 C 0.01305 0.46045 0.25638 0.0
C971 C 0.01043 0.46926 0.24656 0.0
C972 C 0.99141 0.45801 0.21371 0.0
C973 C 0.97911 0.44389 0.21589 0.0
C974 C 0.9789 0.43065 0.21099 0.0
C975 C 0.99101 0.43134 0.20381 0.0
C976 C 0.00335 0.44555 0.20176 0.0
C977 C 0.00357 0.45877 0.20672 0.0
C978 C 0.9878 0.47568 0.19145 0.0
C979 C 0.97448 0.46295 0.18582 0.0
C980 C 0.97378 0.45547 0.172 0.0
C981 C 0.9864 0.46063 0.16358 0.0
C982 C 0.99938 0.47407 0.16875 0.0
C983 C 1.00009 0.48147 0.18261 0.0
C984 C 0.98859 0.50383 0.20097 0.0
C985 C 0.97506 0.50337 0.19844 0.0
C986 C 0.97384 0.51295 0.18844 0.0
C987 C 0.98618 0.5232 0.18086 0.0
C988 C 0.99968 0.52347 0.18335 0.0
C989 C 1.00088 0.51391 0.19336 0.0
C990 C 0.00606 0.51269 0.30158 0.0
C991 C 0.99079 0.41731 0.19846 0.0
H992 H 0.49661 0.50657 0.32795 0.0
H993 H 0.41437 0.38183 0.20035 0.0
H994 H 0.50357 0.51116 0.24868 0.0
H995 H 0.52454 0.53419 0.2605 0.0
H996 H 0.55354 0.51666 0.25056 0.0
H997 H 0.53217 0.49322 0.23934 0.0
H998 H 0.47757 0.48774 0.26407 0.0
H999 H 0.48208 0.49641 0.29088 0.0
H1000 H 0.51758 0.48639 0.29452 0.0
H1001 H 0.51284 0.47759 0.26773 0.0
H1002 H 0.45227 0.46161 0.2421 0.0
H1003 H 0.4328 0.44858 0.25945 0.0
H1004 H 0.46031 0.43472 0.28332 0.0
H1005 H 0.47955 0.44736 0.26545 0.0
H1006 H 0.45354 0.45704 0.2099 0.0
H1007 H 0.43146 0.43404 0.19928 0.0
H1008 H 0.44771 0.40714 0.21979 0.0
H1009 H 0.46984 0.43027 0.23018 0.0
H1010 H 0.47831 0.48 0.19523 0.0
H1011 H 0.46867 0.46975 0.1694 0.0
H1012 H 0.4811 0.43574 0.17494 0.0
H1013 H 0.4899 0.44565 0.20112 0.0
H1014 H 0.50824 0.5097 0.21427 0.0
H1015 H 0.5263 0.52519 0.19645 0.0
H1016 H 0.53612 0.48954 0.18723 0.0
H1017 H 0.51816 0.47418 0.20523 0.0
O1018 O 0.49488 0.50289 0.31742 0.0
O1019 O 0.51297 0.49746 0.31872 0.0
O1020 O 0.41497 0.40545 0.19449 0.0
O1021 O 0.42294 0.3911 0.20453 0.0
C1022 C 0.50312 0.48597 0.23748 0.0
C1023 C 0.49237 0.47711 0.2476 0.0
C1024 C 0.47923 0.46387 0.2421 0.0
C1025 C 0.47704 0.45928 0.22654 0.0
C1026 C 0.48783 0.46802 0.21644 0.0
C1027 C 0.50087 0.4814 0.22186 0.0
C1028 C 0.51632 0.50048 0.24327 0.0
C1029 C 0.51446 0.51232 0.24902 0.0
C1030 C 0.52652 0.52555 0.25564 0.0
C1031 C 0.54079 0.52734 0.25647 0.0
C1032 C 0.54269 0.51559 0.25029 0.0
C1033 C 0.53054 0.50225 0.24375 0.0
C1034 C 0.49482 0.48196 0.26399 0.0
C1035 C 0.48622 0.48729 0.27072 0.0
C1036 C 0.48886 0.4923 0.28602 0.0
C1037 C 0.5002 0.49211 0.29485 0.0
C1038 C 0.50877 0.48669 0.28805 0.0
C1039 C 0.50609 0.48165 0.27276 0.0
C1040 C 0.4673 0.45538 0.25246 0.0
C1041 C 0.45401 0.45559 0.25096 0.0
C1042 C 0.44297 0.44828 0.261 0.0
C1043 C 0.44502 0.44069 0.27288 0.0
C1044 C 0.45831 0.44034 0.27423 0.0
C1045 C 0.46934 0.44762 0.2641 0.0
C1046 C 0.46331 0.44529 0.22071 0.0
C1047 C 0.45231 0.44616 0.21205 0.0
C1048 C 0.4397 0.43301 0.20603 0.0
C1049 C 0.43784 0.41874 0.20865 0.0
C1050 C 0.44881 0.41794 0.21753 0.0
C1051 C 0.46144 0.43111 0.22351 0.0
C1052 C 0.48476 0.46354 0.2 0.0
C1053 C 0.4792 0.47052 0.19072 0.0
C1054 C 0.47373 0.46463 0.17591 0.0
C1055 C 0.47395 0.45178 0.17001 0.0
C1056 C 0.4804 0.4454 0.17915 0.0
C1057 C 0.48563 0.45115 0.19406 0.0
C1058 C 0.51191 0.49083 0.2111 0.0
C1059 C 0.51439 0.50529 0.2085 0.0
C1060 C 0.52472 0.51413 0.19835 0.0
C1061 C 0.53265 0.50859 0.19046 0.0
C1062 C 0.53009 0.49406 0.19304 0.0
C1063 C 0.51986 0.48529 0.20332 0.0
C1064 C 0.50311 0.49762 0.31105 0.0
C1065 C 0.42454 0.40474 0.20211 0.0
H1066 H 0.52015 0.00541 0.33668 0.0
H1067 H 0.40191 0.9823 0.21279 0.0
H1068 H 0.53 0.02401 0.26174 0.0
H1069 H 0.5497 0.02141 0.27419 0.0
H1070 H 0.53487 0.9795 0.24745 0.0
H1071 H 0.51467 0.98184 0.23568 0.0
H1072 H 0.50285 0.01986 0.27906 0.0
H1073 H 0.51006 0.01758 0.30495 0.0
H1074 H 0.50528 0.97432 0.29121 0.0
H1075 H 0.49791 0.97666 0.26542 0.0
H1076 H 0.474 0.01872 0.26167 0.0
H1077 H 0.45547 0.01363 0.28015 0.0
H1078 H 0.44922 0.96893 0.28389 0.0
H1079 H 0.46727 0.97393 0.26492 0.0
H1080 H 0.47501 0.02416 0.22796 0.0
H1081 H 0.45149 0.02235 0.22001 0.0
H1082 H 0.42886 0.97419 0.22479 0.0
H1083 H 0.4525 0.97616 0.23258 0.0
H1084 H 0.49926 0.02947 0.2097 0.0
H1085 H 0.49045 0.03201 0.18451 0.0
H1086 H 0.46316 0.98349 0.17812 0.0
H1087 H 0.47179 0.98108 0.20335 0.0
H1088 H 0.53092 0.02837 0.22482 0.0
H1089 H 0.54777 0.03137 0.20493 0.0
H1090 H 0.51609 0.98677 0.18528 0.0
H1091 H 0.49941 0.98388 0.20517 0.0
O1092 O 0.51688 0.0059 0.32648 0.0
O1093 O 0.51397 0.98357 0.31889 0.0
O1094 O 0.42351 0.00815 0.21369 0.0
O1095 O 0.41135 0.98335 0.21594 0.0
C1096 C 0.50683 0.00275 0.24339 0.0
C1097 C 0.49652 1.00035 0.25446 0.0
C1098 C 0.48299 0.99965 0.2504 0.0
C1099 C 0.47977 0.00137 0.23525 0.0
C1100 C 0.48997 0.00362 0.22416 0.0
C1101 C 0.50348 0.00421 0.22818 0.0
C1102 C 0.52082 0.00305 0.24791 0.0
C1103 C 0.53122 0.01444 0.25834 0.0
C1104 C 0.54252 0.01294 0.26541 0.0
C1105 C 0.54377 1.00011 0.26201 0.0
C1106 C 0.53403 0.98934 0.25062 0.0
C1107 C 0.52261 0.99076 0.24369 0.0
C1108 C 0.49991 0.99845 0.27037 0.0
C1109 C 0.50322 0.00983 0.28171 0.0
C1110 C 0.5074 0.00853 0.29647 0.0
C1111 C 0.50833 0.9958 0.30014 0.0
C1112 C 0.50472 0.98429 0.28877 0.0
C1113 C 0.50051 0.98559 0.27404 0.0
C1114 C 0.47199 0.99669 0.26193 0.0
C1115 C 0.46857 0.00781 0.26645 0.0
C1116 C 0.45806 0.00491 0.27712 0.0
C1117 C 0.45082 0.99085 0.28355 0.0
C1118 C 0.45439 0.97979 0.27904 0.0
C1119 C 0.46482 0.98267 0.2683 0.0
C1120 C 0.46543 1.00029 0.23082 0.0
C1121 C 0.46496 0.01324 0.22726 0.0
C1122 C 0.45151 0.01217 0.22274 0.0
C1123 C 0.43828 0.99811 0.22175 0.0
C1124 C 0.43882 0.98518 0.22543 0.0
C1125 C 0.45229 0.98627 0.22991 0.0
C1126 C 0.4862 0.00509 0.20827 0.0
C1127 C 0.49157 0.01941 0.20273 0.0
C1128 C 0.48647 0.02084 0.18844 0.0
C1129 C 0.47615 0.00795 0.1794 0.0
C1130 C 0.47123 0.9936 0.18479 0.0
C1131 C 0.47613 0.9922 0.19916 0.0
C1132 C 0.51388 0.00597 0.21636 0.0
C1133 C 0.52767 0.01925 0.21623 0.0
C1134 C 0.53728 0.02092 0.2049 0.0
C1135 C 0.53322 0.00935 0.19345 0.0
C1136 C 0.51944 0.996 0.19375 0.0
C1137 C 0.50991 0.99432 0.20512 0.0
C1138 C 0.51319 0.99466 0.31571 0.0
C1139 C 0.42397 0.9969 0.21689 0.0
H1140 H 0.49758 0.02554 0.73209 0.0
H1141 H 0.58437 0.98278 0.84975 0.0
H1142 H 0.49466 0.02336 0.81875 0.0
H1143 H 0.4753 0.02607 0.80545 0.0
H1144 H 0.45156 0.97819 0.79254 0.0
H1145 H 0.47079 0.9756 0.80629 0.0
H1146 H 0.51786 0.0267 0.79479 0.0
H1147 H 0.5123 0.03083 0.76894 0.0
H1148 H 0.48535 0.98252 0.75924 0.0
H1149 H 0.49101 0.9786 0.78512 0.0
H1150 H 0.54757 0.02482 0.80979 0.0
H1151 H 0.56562 0.02892 0.791 0.0
H1152 H 0.53633 0.98401 0.77045 0.0
H1153 H 0.51833 0.98008 0.78928 0.0
H1154 H 0.5482 0.02066 0.8426 0.0
H1155 H 0.57011 0.01984 0.85182 0.0
H1156 H 0.55071 0.97412 0.83205 0.0
H1157 H 0.52879 0.97507 0.82301 0.0
H1158 H 0.52644 0.01827 0.86103 0.0
H1159 H 0.53555 0.01588 0.8859 0.0
H1160 H 0.51531 0.96769 0.87582 0.0
H1161 H 0.50684 0.97042 0.85068 0.0
H1162 H 0.50025 0.01892 0.8516 0.0
H1163 H 0.48322 0.01628 0.8711 0.0
H1164 H 0.45862 0.96801 0.86042 0.0
H1165 H 0.47596 0.97082 0.84118 0.0
O1166 O 0.49982 0.02366 0.74219 0.0
O1167 O 0.48715 0.99874 0.7374 0.0
O1168 O 0.58558 0.00715 0.85559 0.0
O1169 O 0.57593 0.98347 0.84603 0.0
C1170 C 0.49729 0.9984 0.81842 0.0
C1171 C 0.50756 0.99997 0.80765 0.0
C1172 C 0.52061 0.9999 0.81212 0.0
C1173 C 0.52332 0.99815 0.8274 0.0
C1174 C 0.513 0.99649 0.83816 0.0
C1175 C 0.5 0.99666 0.83369 0.0
C1176 C 0.48407 0.99929 0.8135 0.0
C1177 C 0.48503 0.01341 0.81346 0.0
C1178 C 0.47405 0.01494 0.80568 0.0
C1179 C 0.46198 0.00238 0.79771 0.0
C1180 C 0.46062 0.98808 0.79863 0.0
C1181 C 0.47159 0.98655 0.80649 0.0
C1182 C 0.50487 0.00237 0.79174 0.0
C1183 C 0.51086 0.01704 0.78701 0.0
C1184 C 0.50762 0.01936 0.77227 0.0
C1185 C 0.49836 0.007 0.76203 0.0
C1186 C 0.49252 0.99228 0.76683 0.0
C1187 C 0.49575 0.99 0.78157 0.0
C1188 C 0.53165 0.00216 0.80089 0.0
C1189 C 0.54511 0.01586 0.80127 0.0
C1190 C 0.55541 0.01815 0.79055 0.0
C1191 C 0.55242 0.00679 0.7792 0.0
C1192 C 0.5389 0.99306 0.7789 0.0
C1193 C 0.52863 0.99076 0.78968 0.0
C1194 C 0.53693 0.99791 0.83221 0.0
C1195 C 0.54873 0.0105 0.84026 0.0
C1196 C 0.56122 0.00999 0.8455 0.0
C1197 C 0.56214 0.99689 0.84272 0.0
C1198 C 0.55035 0.98437 0.83442 0.0
C1199 C 0.53784 0.98489 0.82921 0.0
C1200 C 0.516 0.99452 0.85411 0.0
C1201 C 0.52374 0.00718 0.86436 0.0
C1202 C 0.5289 0.00575 0.87859 0.0
C1203 C 0.52629 0.99159 0.88289 0.0
C1204 C 0.5178 0.97881 0.87281 0.0
C1205 C 0.51278 0.98029 0.85852 0.0
C1206 C 0.4893 0.99506 0.84502 0.0
C1207 C 0.49114 0.00781 0.85347 0.0
C1208 C 0.48134 0.00626 0.86453 0.0
C1209 C 0.46952 0.99192 0.86734 0.0
C1210 C 0.46769 0.97919 0.8587 0.0
C1211 C 0.4775 0.98076 0.84764 0.0
C1212 C 0.49475 0.00949 0.74646 0.0
C1213 C 0.57528 0.99621 0.84851 0.0
H1214 H 0.98395 0.48394 0.74325 0.0
H1215 H 0.02582 0.60622 0.86787 0.0
H1216 H 0.98618 0.47702 0.82318 0.0
H1217 H 0.98309 0.45345 0.81201 0.0
H1218 H 0.02899 0.46863 0.82478 0.0
H1219 H 0.03214 0.49265 0.83526 0.0
H1220 H 0.98436 0.50117 0.80709 0.0
H1221 H 0.97997 0.49321 0.7801 0.0
H1222 H 0.02465 0.50115 0.7791 0.0
H1223 H 0.02895 0.50927 0.80606 0.0
H1224 H 0.9859 0.52713 0.82767 0.0
H1225 H 0.98106 0.54248 0.81063 0.0
H1226 H 0.02286 0.55636 0.79089 0.0
H1227 H 0.02779 0.54121 0.80837 0.0
H1228 H 0.99241 0.53098 0.86199 0.0
H1229 H 0.99293 0.55402 0.87141 0.0
H1230 H 0.0342 0.58081 0.85048 0.0
H1231 H 0.03364 0.55767 0.84132 0.0
H1232 H 0.99584 0.50634 0.87799 0.0
H1233 H 0.99681 0.51726 0.90336 0.0
H1234 H 0.03953 0.55564 0.89581 0.0
H1235 H 0.03871 0.54428 0.87077 0.0
H1236 H 0.99335 0.47791 0.8582 0.0
H1237 H 0.99622 0.46197 0.87622 0.0
H1238 H 0.04167 0.49693 0.88695 0.0
H1239 H 0.03876 0.51276 0.86876 0.0
O1240 O 0.98596 0.48722 0.75392 0.0
O1241 O 0.00901 0.49144 0.754 0.0
O1242 O 0.00417 0.58264 0.87492 0.0
O1243 O 0.02534 0.59693 0.86428 0.0
C1244 C 0.01134 0.50143 0.8354 0.0
C1245 C 0.00961 0.51058 0.82492 0.0
C1246 C 0.01017 0.52408 0.83007 0.0
C1247 C 0.01283 0.52865 0.84565 0.0
C1248 C 0.01499 0.51976 0.85612 0.0
C1249 C 0.01414 0.50607 0.85103 0.0
C1250 C 0.00941 0.4866 0.82991 0.0
C1251 C 0.99557 0.47525 0.82357 0.0
C1252 C 0.9938 0.46169 0.81733 0.0
C1253 C 0.00579 0.45907 0.81748 0.0
C1254 C 0.01957 0.47033 0.82426 0.0
C1255 C 0.02137 0.48401 0.83038 0.0
C1256 C 0.007 0.50588 0.80849 0.0
C1257 C 0.99322 0.5013 0.80099 0.0
C1258 C 0.99073 0.4967 0.78559 0.0
C1259 C 0.00196 0.49655 0.77743 0.0
C1260 C 0.01576 0.50114 0.78503 0.0
C1261 C 0.01825 0.50577 0.80042 0.0
C1262 C 0.0072 0.5331 0.81928 0.0
C1263 C 0.99401 0.5335 0.81967 0.0
C1264 C 0.99122 0.54218 0.80983 0.0
C1265 C 0.00155 0.5506 0.79934 0.0
C1266 C 0.01475 0.55011 0.79893 0.0
C1267 C 0.01754 0.5414 0.80881 0.0
C1268 C 0.01302 0.54267 0.85105 0.0
C1269 C 0.00157 0.54184 0.8595 0.0
C1270 C 0.00189 0.55501 0.86484 0.0
C1271 C 0.01363 0.56927 0.86171 0.0
C1272 C 0.02501 0.57003 0.85311 0.0
C1273 C 0.02471 0.55684 0.84783 0.0
C1274 C 0.01716 0.52456 0.87251 0.0
C1275 C 0.00563 0.51683 0.88204 0.0
C1276 C 0.00612 0.52321 0.89645 0.0
C1277 C 0.01812 0.53748 0.90153 0.0
C1278 C 0.03016 0.54462 0.89235 0.0
C1279 C 0.0297 0.53817 0.878 0.0
C1280 C 0.01587 0.49647 0.86209 0.0
C1281 C 0.00396 0.48208 0.86435 0.0
C1282 C 0.00562 0.47298 0.87462 0.0
C1283 C 0.01919 0.47818 0.88296 0.0
C1284 C 0.03106 0.49267 0.88077 0.0
C1285 C 0.02942 0.5017 0.87039 0.0
C1286 C 0.99925 0.4916 0.76109 0.0
C1287 C 0.01403 0.5833 0.86739 0.0
H1288 H 0.49275 0.51602 0.72834 0.0
H1289 H 0.60559 0.5934 0.86489 0.0
H1290 H 0.47634 0.51279 0.80632 0.0
H1291 H 0.45534 0.48997 0.79361 0.0
H1292 H 0.47176 0.46293 0.81338 0.0
H1293 H 0.49287 0.48575 0.82553 0.0
H1294 H 0.50615 0.53979 0.79158 0.0
H1295 H 0.50042 0.53367 0.76432 0.0
H1296 H 0.5017 0.49251 0.76888 0.0
H1297 H 0.50763 0.49887 0.79609 0.0
H1298 H 0.53737 0.56551 0.81147 0.0
H1299 H 0.55726 0.57908 0.79458 0.0
H1300 H 0.55718 0.53771 0.78268 0.0
H1301 H 0.53804 0.52457 0.80025 0.0
H1302 H 0.53367 0.56634 0.8474 0.0
H1303 H 0.55741 0.5865 0.85898 0.0
H1304 H 0.57827 0.56116 0.84468 0.0
H1305 H 0.55443 0.54103 0.83329 0.0
H1306 H 0.50602 0.54281 0.86412 0.0
H1307 H 0.5147 0.55133 0.89067 0.0
H1308 H 0.54629 0.53605 0.8865 0.0
H1309 H 0.53695 0.52687 0.86042 0.0
H1310 H 0.47879 0.51928 0.84653 0.0
H1311 H 0.46131 0.50433 0.86501 0.0
H1312 H 0.48565 0.48097 0.87223 0.0
H1313 H 0.50347 0.49666 0.85447 0.0
O1314 O 0.49507 0.51825 0.73913 0.0
O1315 O 0.49579 0.4972 0.7421 0.0
O1316 O 0.58505 0.59867 0.86656 0.0
O1317 O 0.59616 0.5858 0.86006 0.0
C1318 C 0.50001 0.51475 0.82265 0.0
C1319 C 0.51061 0.52351 0.81236 0.0
C1320 C 0.52454 0.53579 0.81781 0.0
C1321 C 0.52769 0.53954 0.83354 0.0
C1322 C 0.51706 0.53084 0.84382 0.0
C1323 C 0.50324 0.51846 0.83838 0.0
C1324 C 0.4861 0.50092 0.81689 0.0
C1325 C 0.47523 0.50189 0.80807 0.0
C1326 C 0.46325 0.48885 0.80085 0.0
C1327 C 0.46198 0.47466 0.80235 0.0
C1328 C 0.47255 0.47371 0.81178 0.0
C1329 C 0.48451 0.48672 0.81892 0.0
C1330 C 0.5072 0.51973 0.79581 0.0
C1331 C 0.50521 0.52947 0.78666 0.0
C1332 C 0.50192 0.52593 0.77109 0.0
C1333 C 0.50056 0.51258 0.76442 0.0
C1334 C 0.50263 0.50287 0.77365 0.0
C1335 C 0.50596 0.50644 0.7892 0.0
C1336 C 0.53621 0.54403 0.80708 0.0
C1337 C 0.54172 0.55943 0.80525 0.0
C1338 C 0.553 0.56713 0.79547 0.0
C1339 C 0.5589 0.55953 0.78723 0.0
C1340 C 0.55316 0.54404 0.78901 0.0
C1341 C 0.54205 0.53643 0.79891 0.0
C1342 C 0.54235 0.55227 0.83946 0.0
C1343 C 0.54341 0.56523 0.84669 0.0
C1344 C 0.55698 0.57671 0.85331 0.0
C1345 C 0.56974 0.57542 0.8528 0.0
C1346 C 0.56867 0.56251 0.8453 0.0
C1347 C 0.55509 0.55104 0.8387 0.0
C1348 C 0.5209 0.53428 0.86035 0.0
C1349 C 0.51456 0.541 0.86912 0.0
C1350 C 0.51967 0.54601 0.88422 0.0
C1351 C 0.5313 0.5445 0.89076 0.0
C1352 C 0.53719 0.53722 0.88201 0.0
C1353 C 0.53195 0.53206 0.86703 0.0
C1354 C 0.49238 0.50905 0.84921 0.0
C1355 C 0.48031 0.51094 0.85217 0.0
C1356 C 0.47027 0.50227 0.86266 0.0
C1357 C 0.472 0.49138 0.87022 0.0
C1358 C 0.48407 0.48943 0.86696 0.0
C1359 C 0.49422 0.49829 0.85669 0.0
C1360 C 0.497 0.50883 0.7479 0.0
C1361 C 0.58408 0.58737 0.86021 0.0
H1362 H 0.64114 0.83133 0.65929 0.0
H1363 H 0.6715 0.74528 0.53492 0.0
H1364 H 0.62569 0.83047 0.58028 0.0
H1365 H 0.62711 0.8537 0.59078 0.0
H1366 H 0.66944 0.88004 0.57165 0.0
H1367 H 0.66791 0.85683 0.56124 0.0
H1368 H 0.62861 0.80448 0.59718 0.0
H1369 H 0.62994 0.812 0.62403 0.0
H1370 H 0.67217 0.85211 0.61897 0.0
H1371 H 0.67078 0.84436 0.5922 0.0
H1372 H 0.63177 0.77726 0.57853 0.0
H1373 H 0.63764 0.76249 0.5954 0.0
H1374 H 0.67973 0.80235 0.60899 0.0
H1375 H 0.67414 0.81668 0.59131 0.0
H1376 H 0.62768 0.77454 0.54461 0.0
H1377 H 0.63079 0.75335 0.53607 0.0
H1378 H 0.67754 0.77985 0.54956 0.0
H1379 H 0.67428 0.80102 0.55788 0.0
H1380 H 0.62286 0.79412 0.52596 0.0
H1381 H 0.62219 0.78169 0.50149 0.0
H1382 H 0.67007 0.80488 0.50436 0.0
H1383 H 0.67052 0.81671 0.52902 0.0
H1384 H 0.62211 0.82678 0.54306 0.0
H1385 H 0.61972 0.84235 0.52418 0.0
H1386 H 0.66425 0.85678 0.51163 0.0
H1387 H 0.66648 0.84116 0.53046 0.0
O1388 O 0.64087 0.82854 0.64868 0.0
O1389 O 0.66251 0.84902 0.64545 0.0
O1390 O 0.64587 0.74035 0.5314 0.0
O1391 O 0.66995 0.75346 0.53825 0.0
C1392 C 0.64681 0.82793 0.56528 0.0
C1393 C 0.6486 0.81936 0.57643 0.0
C1394 C 0.64971 0.80656 0.57205 0.0
C1395 C 0.64893 0.80231 0.55654 0.0
C1396 C 0.64706 0.8108 0.54541 0.0
C1397 C 0.64601 0.82362 0.54974 0.0
C1398 C 0.6467 0.84196 0.56999 0.0
C1399 C 0.63516 0.84129 0.57819 0.0
C1400 C 0.63603 0.85454 0.58424 0.0
C1401 C 0.64841 0.86871 0.58209 0.0
C1402 C 0.65966 0.86934 0.57335 0.0
C1403 C 0.65882 0.85609 0.56739 0.0
C1404 C 0.64956 0.82391 0.59275 0.0
C1405 C 0.63815 0.81486 0.60192 0.0
C1406 C 0.63893 0.8192 0.61724 0.0
C1407 C 0.65115 0.83267 0.62364 0.0
C1408 C 0.6626 0.84168 0.6144 0.0
C1409 C 0.66182 0.8373 0.5991 0.0
C1410 C 0.65254 0.79804 0.58363 0.0
C1411 C 0.64224 0.78278 0.58519 0.0
C1412 C 0.64558 0.77439 0.59496 0.0
C1413 C 0.65922 0.78116 0.60355 0.0
C1414 C 0.66926 0.79664 0.60236 0.0
C1415 C 0.666 0.80494 0.5924 0.0
C1416 C 0.65076 0.78929 0.55182 0.0
C1417 C 0.63858 0.77574 0.54568 0.0
C1418 C 0.64039 0.76365 0.54084 0.0
C1419 C 0.65443 0.76491 0.54212 0.0
C1420 C 0.66658 0.7785 0.5484 0.0
C1421 C 0.66476 0.79059 0.5532 0.0
C1422 C 0.64673 0.80627 0.52922 0.0
C1423 C 0.63318 0.79679 0.52107 0.0
C1424 C 0.63284 0.7897 0.5071 0.0
C1425 C 0.64607 0.79208 0.50107 0.0
C1426 C 0.65966 0.8025 0.50883 0.0
C1427 C 0.65997 0.80944 0.52282 0.0
C1428 C 0.64441 0.83273 0.53802 0.0
C1429 C 0.63131 0.83327 0.53617 0.0
C1430 C 0.63 0.84223 0.52545 0.0
C1431 C 0.64178 0.85078 0.51636 0.0
C1432 C 0.65488 0.85015 0.51825 0.0
C1433 C 0.65618 0.84124 0.529 0.0
C1434 C 0.65191 0.83729 0.6399 0.0
C1435 C 0.65642 0.75214 0.53692 0.0
H1436 H 0.16458 0.83775 0.66673 0.0
H1437 H 0.07774 0.71671 0.54117 0.0
H1438 H 0.17223 0.84457 0.58573 0.0
H1439 H 0.19354 0.86733 0.59781 0.0
H1440 H 0.22106 0.84751 0.59079 0.0
H1441 H 0.19956 0.82469 0.57862 0.0
H1442 H 0.14623 0.82141 0.60241 0.0
H1443 H 0.15071 0.82941 0.6294 0.0
H1444 H 0.18478 0.8173 0.63261 0.0
H1445 H 0.18007 0.80918 0.60564 0.0
H1446 H 0.12038 0.79591 0.58094 0.0
H1447 H 0.1008 0.78277 0.59818 0.0
H1448 H 0.12717 0.76667 0.62047 0.0
H1449 H 0.14657 0.77956 0.6028 0.0
H1450 H 0.12191 0.79161 0.54707 0.0
H1451 H 0.09881 0.76928 0.53718 0.0
H1452 H 0.11204 0.74078 0.55948 0.0
H1453 H 0.13518 0.76321 0.56913 0.0
H1454 H 0.15021 0.81639 0.53284 0.0
H1455 H 0.14129 0.80774 0.5065 0.0
H1456 H 0.14287 0.76701 0.51296 0.0
H1457 H 0.15257 0.77618 0.53912 0.0
H1458 H 0.17375 0.84098 0.54975 0.0
H1459 H 0.19154 0.85612 0.53167 0.0
H1460 H 0.2067 0.82386 0.52885 0.0
H1461 H 0.18823 0.80843 0.54634 0.0
O1462 O 0.16294 0.83445 0.6561 0.0
O1463 O 0.1804 0.82811 0.65713 0.0
O1464 O 0.08053 0.74088 0.53363 0.0
O1465 O 0.08679 0.72574 0.54493 0.0
C1466 C 0.17095 0.81867 0.57558 0.0
C1467 C 0.16016 0.80994 0.58569 0.0
C1468 C 0.14679 0.79699 0.58016 0.0
C1469 C 0.14437 0.79257 0.56453 0.0
C1470 C 0.15525 0.80118 0.55441 0.0
C1471 C 0.16853 0.81426 0.55995 0.0
C1472 C 0.18434 0.83297 0.5814 0.0
C1473 C 0.18289 0.8452 0.5867 0.0
C1474 C 0.19504 0.85813 0.59368 0.0
C1475 C 0.20893 0.85912 0.59544 0.0
C1476 C 0.21051 0.84708 0.58956 0.0
C1477 C 0.19827 0.83407 0.58262 0.0
C1478 C 0.16277 0.81464 0.60211 0.0
C1479 C 0.15458 0.8204 0.609 0.0
C1480 C 0.1572 0.82501 0.6244 0.0
C1481 C 0.1681 0.82399 0.63317 0.0
C1482 C 0.1763 0.81823 0.62619 0.0
C1483 C 0.17364 0.81359 0.6108 0.0
C1484 C 0.13487 0.78865 0.59058 0.0
C1485 C 0.12187 0.78945 0.58947 0.0
C1486 C 0.11076 0.78205 0.59944 0.0
C1487 C 0.11245 0.77374 0.61079 0.0
C1488 C 0.12546 0.77286 0.61179 0.0
C1489 C 0.13659 0.78027 0.60177 0.0
C1490 C 0.13024 0.77901 0.55873 0.0
C1491 C 0.11982 0.78053 0.54974 0.0
C1492 C 0.10663 0.76776 0.54415 0.0
C1493 C 0.10359 0.75323 0.54753 0.0
C1494 C 0.11403 0.75179 0.55665 0.0
C1495 C 0.12724 0.76457 0.5622 0.0
C1496 C 0.1521 0.79695 0.53789 0.0
C1497 C 0.14909 0.80583 0.52843 0.0
C1498 C 0.14375 0.80074 0.51344 0.0
C1499 C 0.14113 0.78656 0.50765 0.0
C1500 C 0.14486 0.77803 0.51697 0.0
C1501 C 0.15035 0.78321 0.53195 0.0
C1502 C 0.17971 0.82362 0.54931 0.0
C1503 C 0.18093 0.83722 0.54519 0.0
C1504 C 0.19121 0.84591 0.53493 0.0
C1505 C 0.20068 0.8413 0.52875 0.0
C1506 C 0.19947 0.82768 0.5331 0.0
C1507 C 0.18901 0.81889 0.5432 0.0
C1508 C 0.17089 0.82895 0.64951 0.0
C1509 C 0.0896 0.73962 0.54159 0.0
H1510 H 0.19125 0.35468 0.67606 0.0
H1511 H 0.07664 0.33625 0.55289 0.0
H1512 H 0.20326 0.37289 0.59887 0.0
H1513 H 0.2234 0.37131 0.61198 0.0
H1514 H 0.20712 0.32694 0.59001 0.0
H1515 H 0.18697 0.3286 0.577 0.0
H1516 H 0.1775 0.3695 0.61688 0.0
H1517 H 0.18388 0.36741 0.64316 0.0
H1518 H 0.1756 0.32237 0.63138 0.0
H1519 H 0.16906 0.32455 0.60519 0.0
H1520 H 0.15194 0.36892 0.60462 0.0
H1521 H 0.13393 0.36434 0.62359 0.0
H1522 H 0.1171 0.31629 0.61672 0.0
H1523 H 0.13575 0.32118 0.59856 0.0
H1524 H 0.1502 0.37297 0.56542 0.0
H1525 H 0.12755 0.37319 0.55791 0.0
H1526 H 0.10173 0.32542 0.56435 0.0
H1527 H 0.12447 0.32535 0.57166 0.0
H1528 H 0.17471 0.37342 0.54367 0.0
H1529 H 0.16591 0.37362 0.51767 0.0
H1530 H 0.13139 0.32704 0.51947 0.0
H1531 H 0.14055 0.32686 0.54509 0.0
H1532 H 0.20408 0.37362 0.56253 0.0
H1533 H 0.22043 0.37453 0.54295 0.0
H1534 H 0.18642 0.33032 0.52446 0.0
H1535 H 0.17054 0.32925 0.54447 0.0
O1536 O 0.18849 0.35519 0.66565 0.0
O1537 O 0.1842 0.33213 0.65898 0.0
O1538 O 0.09956 0.361 0.5525 0.0
O1539 O 0.08576 0.33649 0.5558 0.0
C1540 C 0.17965 0.35036 0.58211 0.0
C1541 C 0.16952 0.3487 0.59313 0.0
C1542 C 0.1561 0.34806 0.58885 0.0
C1543 C 0.15275 0.34914 0.57357 0.0
C1544 C 0.16257 0.35024 0.56243 0.0
C1545 C 0.17606 0.35083 0.56668 0.0
C1546 C 0.19363 0.35084 0.58702 0.0
C1547 C 0.20429 0.363 0.59659 0.0
C1548 C 0.21569 0.36203 0.60415 0.0
C1549 C 0.21673 0.34893 0.60216 0.0
C1550 C 0.20667 0.33722 0.5917 0.0
C1551 C 0.19518 0.33816 0.58422 0.0
C1552 C 0.17281 0.34717 0.60918 0.0
C1553 C 0.17694 0.35915 0.62005 0.0
C1554 C 0.18064 0.35794 0.63503 0.0
C1555 C 0.18028 0.34473 0.63937 0.0
C1556 C 0.176 0.3327 0.62842 0.0
C1557 C 0.17226 0.33391 0.61346 0.0
C1558 C 0.14513 0.34538 0.60028 0.0
C1559 C 0.1444 0.35744 0.60735 0.0
C1560 C 0.13399 0.35475 0.6181 0.0
C1561 C 0.12397 0.33991 0.62179 0.0
C1562 C 0.12478 0.32789 0.61451 0.0
C1563 C 0.13535 0.33062 0.60399 0.0
C1564 C 0.13894 0.34918 0.5692 0.0
C1565 C 0.13963 0.36259 0.56522 0.0
C1566 C 0.12668 0.36267 0.56093 0.0
C1567 C 0.11281 0.34933 0.56057 0.0
C1568 C 0.1122 0.3359 0.56455 0.0
C1569 C 0.12517 0.33584 0.5688 0.0
C1570 C 0.15823 0.35014 0.54626 0.0
C1571 C 0.1654 0.36322 0.53831 0.0
C1572 C 0.16027 0.36334 0.52353 0.0
C1573 C 0.14791 0.35035 0.51648 0.0
C1574 C 0.14105 0.33717 0.52442 0.0
C1575 C 0.1462 0.33707 0.53911 0.0
C1576 C 0.18609 0.35139 0.55491 0.0
C1577 C 0.20024 0.36409 0.55431 0.0
C1578 C 0.20951 0.36464 0.54303 0.0
C1579 C 0.20477 0.3525 0.53208 0.0
C1580 C 0.19057 0.33978 0.53281 0.0
C1581 C 0.18139 0.3392 0.54415 0.0
C1582 C 0.18442 0.34357 0.65523 0.0
C1583 C 0.09902 0.34935 0.55604 0.0
H1584 H 0.01895 0.38994 0.06666 0.0
H1585 H 0.01367 0.40266 0.08734 0.0
H1586 H 0.96842 0.38258 0.06935 0.0
H1587 H 0.97359 0.36968 0.04856 0.0
H1588 H 0.98227 0.41389 0.07614 0.0
H1589 H 0.97454 0.37011 0.1005 0.0
H1590 H 0.98051 0.35096 0.1086 0.0
H1591 H 0.01952 0.38541 0.134 0.0
H1592 H 0.01391 0.40481 0.12587 0.0
H1593 H 0.96442 0.44445 0.14112 0.0
H1594 H 0.96423 0.42749 0.1207 0.0
H1595 H 0.00847 0.43871 0.1358 0.0
H1596 H 0.0085 0.45507 0.15652 0.0
H1597 H 0.99167 0.40931 0.13036 0.0
H1598 H 0.00122 0.45321 0.10405 0.0
H1599 H 0.99623 0.47291 0.09551 0.0
H1600 H 0.95481 0.43885 0.0735 0.0
H1601 H 0.95947 0.41894 0.08209 0.0
C1602 C 0.00783 0.3881 0.06715 0.0
C1603 C 0.99669 0.3788 0.05596 0.0
C1604 C 0.00482 0.39534 0.07901 0.0
C1605 C 0.99064 0.3935 0.0799 0.0
C1606 C 0.97942 0.38411 0.06886 0.0
C1607 C 0.98238 0.3767 0.05705 0.0
C1608 C 0.98785 0.40195 0.09206 0.0
C1609 C 0.98401 0.41269 0.08802 0.0
C1610 C 0.99045 0.40058 0.10752 0.0
C1611 C 0.99385 0.38894 0.11248 0.0
C1612 C 0.98446 0.37363 0.10772 0.0
C1613 C 0.98777 0.36272 0.11233 0.0
C1614 C 1.0004 0.36697 0.12178 0.0
C1615 C 0.00974 0.38214 0.12667 0.0
C1616 C 0.00649 0.39309 0.12208 0.0
C1617 C 0.9741 0.44329 0.14008 0.0
C1618 C 0.98652 0.45123 0.15039 0.0
C1619 C 0.97401 0.43367 0.12834 0.0
C1620 C 0.98638 0.43191 0.12664 0.0
C1621 C 0.99881 0.4399 0.13686 0.0
C1622 C 0.99887 0.44943 0.1486 0.0
C1623 C 0.98642 0.42154 0.11445 0.0
C1624 C 0.98973 0.4104 0.1185 0.0
C1625 C 0.98344 0.42263 0.099 0.0
C1626 C 0.98061 0.43459 0.09387 0.0
C1627 C 0.99098 0.44992 0.09751 0.0
C1628 C 0.98823 0.46112 0.09264 0.0
C1629 C 0.97519 0.45713 0.08402 0.0
C1630 C 0.96489 0.44193 0.08021 0.0
C1631 C 0.96758 0.43068 0.08507 0.0
H1632 H 0.97308 0.46582 0.08025 0.0
H1633 H 0.00294 0.35851 0.12534 0.0
H1634 H 0.62874 0.58383 0.0918 0.0
H1635 H 0.61454 0.56645 0.11087 0.0
H1636 H 0.58898 0.58862 0.11583 0.0
H1637 H 0.60299 0.60593 0.09686 0.0
H1638 H 0.60943 0.5703 0.14097 0.0
H1639 H 0.55299 0.56161 0.11802 0.0
H1640 H 0.54102 0.56235 0.09384 0.0
H1641 H 0.56952 0.55143 0.06935 0.0
H1642 H 0.58151 0.5504 0.09337 0.0
H1643 H 0.55366 0.53858 0.1939 0.0
H1644 H 0.57073 0.55405 0.17533 0.0
H1645 H 0.55306 0.51508 0.14358 0.0
H1646 H 0.53583 0.49958 0.16204 0.0
H1647 H 0.55492 0.53944 0.1306 0.0
H1648 H 0.58658 0.5283 0.16058 0.0
H1649 H 0.59877 0.5265 0.18408 0.0
H1650 H 0.62009 0.57454 0.19322 0.0
H1651 H 0.60786 0.57661 0.16988 0.0
C1652 C 0.6202 0.5851 0.09706 0.0
C1653 C 0.61693 0.59621 0.09268 0.0
C1654 C 0.61212 0.57518 0.10797 0.0
C1655 C 0.60058 0.57612 0.1146 0.0
C1656 C 0.59771 0.58756 0.1107 0.0
C1657 C 0.60577 0.59748 0.09986 0.0
C1658 C 0.59107 0.56482 0.12512 0.0
C1659 C 0.59752 0.56354 0.13872 0.0
C1660 C 0.57557 0.55577 0.12202 0.0
C1661 C 0.56823 0.55606 0.1075 0.0
C1662 C 0.55665 0.55929 0.10748 0.0
C1663 C 0.54987 0.55977 0.0938 0.0
C1664 C 0.55454 0.55698 0.08007 0.0
C1665 C 0.56595 0.55364 0.07999 0.0
C1666 C 0.57275 0.55312 0.09364 0.0
C1667 C 0.55341 0.53332 0.18295 0.0
C1668 C 0.5434 0.51787 0.17942 0.0
C1669 C 0.56325 0.54214 0.17241 0.0
C1670 C 0.56324 0.53569 0.15811 0.0
C1671 C 0.55328 0.52027 0.15456 0.0
C1672 C 0.54352 0.51141 0.16515 0.0
C1673 C 0.57321 0.5452 0.14666 0.0
C1674 C 0.56684 0.54615 0.13287 0.0
C1675 C 0.58878 0.55377 0.14951 0.0
C1676 C 0.5962 0.55259 0.16354 0.0
C1677 C 0.59377 0.53847 0.16766 0.0
C1678 C 0.60071 0.5374 0.18094 0.0
C1679 C 0.61017 0.55039 0.19015 0.0
C1680 C 0.61275 0.56448 0.18608 0.0
C1681 C 0.60583 0.56561 0.17282 0.0
H1682 H 0.61553 0.54954 0.20043 0.0
H1683 H 0.54929 0.55739 0.06949 0.0
H1684 H 0.40019 0.01991 0.06703 0.0
H1685 H 0.41539 0.02316 0.09012 0.0
H1686 H 0.42321 0.98805 0.07247 0.0
H1687 H 0.40735 0.9842 0.04993 0.0
H1688 H 0.41717 0.98345 0.09962 0.0
H1689 H 0.45018 0.02855 0.07502 0.0
H1690 H 0.45727 0.05242 0.06323 0.0
H1691 H 0.44983 0.07069 0.10428 0.0
H1692 H 0.44254 0.04686 0.11625 0.0
H1693 H 0.47352 0.99312 0.15216 0.0
H1694 H 0.46096 0.99369 0.12858 0.0
H1695 H 0.45137 0.02604 0.15024 0.0
H1696 H 0.46434 0.02582 0.17372 0.0
H1697 H 0.45805 0.03268 0.12185 0.0
H1698 H 0.42542 0.98767 0.14635 0.0
H1699 H 0.4186 0.96388 0.15818 0.0
H1700 H 0.4255 0.94547 0.11691 0.0
H1701 H 0.43256 0.96923 0.10489 0.0
C1702 C 0.40525 0.01298 0.06809 0.0
C1703 C 0.40257 0.00177 0.05674 0.0
C1704 C 0.41402 0.0149 0.08125 0.0
C1705 C 0.42066 0.00599 0.08303 0.0
C1706 C 0.4182 0.99504 0.07147 0.0
C1707 C 0.40915 0.99285 0.05855 0.0
C1708 C 0.4296 0.00744 0.09714 0.0
C1709 C 0.42625 0.99422 0.1043 0.0
C1710 C 0.44117 0.02151 0.10364 0.0
C1711 C 0.44569 0.03588 0.09648 0.0
C1712 C 0.44998 0.03763 0.0815 0.0
C1713 C 0.45404 0.05115 0.07479 0.0
C1714 C 0.45397 0.06305 0.08299 0.0
C1715 C 0.44987 0.06146 0.09793 0.0
C1716 C 0.44579 0.04796 0.10469 0.0
C1717 C 0.46884 1.00045 0.15182 0.0
C1718 C 0.4698 0.00935 0.16476 0.0
C1719 C 0.46163 0.00074 0.13837 0.0
C1720 C 0.45493 0.00966 0.13772 0.0
C1721 C 0.45641 0.01903 0.15047 0.0
C1722 C 0.46382 0.01891 0.16387 0.0
C1723 C 0.4458 0.00867 0.124 0.0
C1724 C 0.44901 0.02194 0.11705 0.0
C1725 C 0.43412 0.99465 0.11762 0.0
C1726 C 0.42963 0.98027 0.12476 0.0
C1727 C 0.42555 0.97857 0.13982 0.0
C1728 C 0.42164 0.96509 0.14656 0.0
C1729 C 0.42165 0.95318 0.13831 0.0
C1730 C 0.42551 0.95471 0.12329 0.0
C1731 C 0.42946 0.96817 0.1165 0.0
H1732 H 0.41863 0.94276 0.14355 0.0
H1733 H 0.4571 0.0735 0.07777 0.0
H1734 H 0.396 0.00912 0.97054 0.0
H1735 H 0.40839 0.00737 0.94827 0.0
H1736 H 0.39866 0.96281 0.95893 0.0
H1737 H 0.38595 0.96434 0.98112 0.0
H1738 H 0.42941 0.98398 0.95387 0.0
H1739 H 0.38073 0.96415 0.9302 0.0
H1740 H 0.35752 0.96396 0.92367 0.0
H1741 H 0.3818 0.00543 0.90199 0.0
H1742 H 0.4052 0.00599 0.90858 0.0
H1743 H 0.45792 0.96997 0.88762 0.0
H1744 H 0.44155 0.96753 0.90766 0.0
H1745 H 0.44202 0.00787 0.89482 0.0
H1746 H 0.45794 0.01005 0.87436 0.0
H1747 H 0.41481 0.98712 0.90088 0.0
H1748 H 0.46323 0.00844 0.92549 0.0
H1749 H 0.48707 0.01014 0.93255 0.0
H1750 H 0.46424 0.96783 0.95311 0.0
H1751 H 0.44023 0.96577 0.94597 0.0
C1752 C 0.39633 0.99887 0.96805 0.0
C1753 C 0.39 0.98687 0.97759 0.0
C1754 C 0.40339 0.99788 0.95531 0.0
C1755 C 0.40442 0.98497 0.95197 0.0
C1756 C 0.39795 0.97287 0.96133 0.0
C1757 C 0.39064 0.97373 0.97394 0.0
C1758 C 0.41292 0.98449 0.9391 0.0
C1759 C 0.4261 0.98437 0.94224 0.0
C1760 C 0.40879 0.98549 0.92402 0.0
C1761 C 0.39474 0.98519 0.92002 0.0
C1762 C 0.38114 0.97331 0.92416 0.0
C1763 C 0.36794 0.97312 0.92042 0.0
C1764 C 0.36818 0.9847 0.91246 0.0
C1765 C 0.38163 0.99648 0.90818 0.0
C1766 C 0.39486 0.99673 0.9119 0.0
C1767 C 0.45439 0.97822 0.88891 0.0
C1768 C 0.45931 0.99025 0.87939 0.0
C1769 C 0.44514 0.97689 0.90049 0.0
C1770 C 0.4407 0.98763 0.9029 0.0
C1771 C 0.44534 0.99947 0.89323 0.0
C1772 C 0.45456 0.00079 0.88162 0.0
C1773 C 0.43139 0.98665 0.91561 0.0
C1774 C 0.41809 0.98658 0.91248 0.0
C1775 C 0.4355 0.98567 0.93075 0.0
C1776 C 0.44992 0.98686 0.93504 0.0
C1777 C 0.46328 0.99943 0.9314 0.0
C1778 C 0.47683 0.00048 0.93543 0.0
C1779 C 0.47717 0.98908 0.94323 0.0
C1780 C 0.46396 0.97664 0.94704 0.0
C1781 C 0.45037 0.97552 0.94301 0.0
H1782 H 0.48767 0.98992 0.94635 0.0
H1783 H 0.35795 0.98453 0.90957 0.0
H1784 H 0.04004 0.40024 0.98414 0.0
H1785 H 0.04358 0.41797 0.96478 0.0
H1786 H 0.99631 0.39583 0.95536 0.0
H1787 H 0.99263 0.37811 0.97451 0.0
H1788 H 0.03442 0.41428 0.93314 0.0
H1789 H 0.98768 0.42372 0.95351 0.0
H1790 H 0.97516 0.42254 0.97693 0.0
H1791 H 0.01444 0.43236 0.00359 0.0
H1792 H 0.02725 0.43382 0.98034 0.0
H1793 H 0.00999 0.44809 0.87919 0.0
H1794 H 0.01187 0.43205 0.8978 0.0
H1795 H 0.03408 0.47047 0.93024 0.0
H1796 H 0.03206 0.48654 0.91174 0.0
H1797 H 0.01172 0.44614 0.9423 0.0
H1798 H 0.05355 0.4566 0.91394 0.0
H1799 H 0.06661 0.45825 0.89083 0.0
H1800 H 0.0391 0.41041 0.88096 0.0
H1801 H 0.02574 0.4085 0.90392 0.0
C1802 C 0.03041 0.39902 0.97781 0.0
C1803 C 0.01605 0.38783 0.981 0.0
C1804 C 0.03246 0.40913 0.96673 0.0
C1805 C 0.02019 0.4083 0.9588 0.0
C1806 C 0.00591 0.39675 0.96149 0.0
C1807 C 0.00385 0.38662 0.97245 0.0
C1808 C 0.02209 0.41998 0.94836 0.0
C1809 C 0.02951 0.42129 0.93513 0.0
C1810 C 0.01587 0.42927 0.95112 0.0
C1811 C 0.00837 0.42875 0.96518 0.0
C1812 C 0.99366 0.42571 0.96437 0.0
C1813 C 0.98651 0.42498 0.97762 0.0
C1814 C 0.99398 0.42733 0.99174 0.0
C1815 C 0.00864 0.43049 0.99265 0.0
C1816 C 0.01585 0.43125 0.97944 0.0
C1817 C 0.01527 0.45311 0.89029 0.0
C1818 C 0.02086 0.46857 0.89402 0.0
C1819 C 0.01645 0.44397 0.90086 0.0
C1820 C 0.02322 0.4501 0.91536 0.0
C1821 C 0.02887 0.46553 0.91909 0.0
C1822 C 0.02779 0.47471 0.90849 0.0
C1823 C 0.02377 0.44024 0.92685 0.0
C1824 C 0.01675 0.43923 0.94031 0.0
C1825 C 0.03046 0.43135 0.92433 0.0
C1826 C 0.03857 0.43243 0.9106 0.0
C1827 C 0.05022 0.44644 0.90679 0.0
C1828 C 0.05769 0.44742 0.89372 0.0
C1829 C 0.05366 0.43445 0.88441 0.0
C1830 C 0.0422 0.42045 0.88818 0.0
C1831 C 0.03469 0.41941 0.90123 0.0
H1832 H 0.05945 0.43523 0.87429 0.0
H1833 H 0.98842 0.42674 0.00198 0.0
H1834 H 0.60251 0.6227 0.01591 0.0
H1835 H 0.58675 0.61222 0.99246 0.0
H1836 H 0.5992 0.57808 0.98792 0.0
H1837 H 0.61515 0.58861 0.01111 0.0
H1838 H 0.59953 0.5892 0.96151 0.0
H1839 H 0.56559 0.5704 1.00106 0.0
H1840 H 0.5537 0.57245 0.02388 0.0
H1841 H 0.53885 0.599 1.00094 0.0
H1842 H 0.55084 0.59728 0.97803 0.0
H1843 H 0.54203 0.53328 0.91224 0.0
H1844 H 0.55611 0.54611 0.93604 0.0
H1845 H 0.54938 0.58355 0.92866 0.0
H1846 H 0.53589 0.5712 0.90441 0.0
H1847 H 0.54595 0.5725 0.96034 0.0
H1848 H 0.57946 0.5902 0.92033 0.0
H1849 H 0.59053 0.5868 0.89746 0.0
H1850 H 0.60575 0.5612 0.92164 0.0
H1851 H 0.5945 0.56421 0.94459 0.0
C1852 C 0.60193 0.61299 0.0099 0.0
C1853 C 0.61007 0.60648 0.01543 0.0
C1854 C 0.59286 0.60697 0.99653 0.0
C1855 C 0.59166 0.59425 0.98852 0.0
C1856 C 0.59995 0.58789 0.9939 0.0
C1857 C 0.60905 0.59393 0.0072 0.0
C1858 C 0.58176 0.58746 0.97454 0.0
C1859 C 0.58781 0.58546 0.96133 0.0
C1860 C 0.5665 0.58284 0.97416 0.0
C1861 C 0.55925 0.58386 0.98789 0.0
C1862 C 0.55989 0.57678 1.00092 0.0
C1863 C 0.55312 0.57786 0.01387 0.0
C1864 C 0.54556 0.58589 0.01388 0.0
C1865 C 0.54473 0.59281 1.00092 0.0
C1866 C 0.5515 0.59178 0.98796 0.0
C1867 C 0.54353 0.54425 0.91561 0.0
C1868 C 0.53797 0.55127 0.90624 0.0
C1869 C 0.55147 0.55149 0.92929 0.0
C1870 C 0.55383 0.56579 0.934 0.0
C1871 C 0.5476 0.57248 0.92519 0.0
C1872 C 0.53983 0.56535 0.91136 0.0
C1873 C 0.56375 0.57413 0.94754 0.0
C1874 C 0.55772 0.57639 0.96059 0.0
C1875 C 0.57901 0.57893 0.94783 0.0
C1876 C 0.58601 0.5773 0.93413 0.0
C1877 C 0.58505 0.58373 0.92073 0.0
C1878 C 0.59137 0.58189 0.90776 0.0
C1879 C 0.59881 0.57375 0.90809 0.0
C1880 C 0.59997 0.56748 0.9214 0.0
C1881 C 0.59363 0.56926 0.9344 0.0
H1882 H 0.6037 0.57234 0.89803 0.0
H1883 H 0.54032 0.58671 0.0239 0.0
H1884 H 0.02861 0.62805 0.01504 0.0
H1885 H 0.03302 0.61335 0.99558 0.0
H1886 H 0.98662 0.58983 0.9809 0.0
H1887 H 0.98207 0.60421 1.00042 0.0
H1888 H 0.99607 0.57043 0.98407 0.0
H1889 H 0.01322 0.61733 0.96038 0.0
H1890 H 0.02837 0.64487 0.9586 0.0
H1891 H 0.06807 0.6423 0.96305 0.0
H1892 H 0.05315 0.61475 0.96505 0.0
H1893 H 0.99411 0.53827 0.91157 0.0
H1894 H 0.99316 0.55295 0.93337 0.0
H1895 H 0.03962 0.57041 0.94468 0.0
H1896 H 0.04063 0.55544 0.92293 0.0
H1897 H 0.03237 0.59276 0.94485 0.0
H1898 H 0.01472 0.54523 0.96631 0.0
H1899 H 0.99923 0.51767 0.96756 0.0
H1900 H 0.9601 0.5214 0.96696 0.0
H1901 H 0.97534 0.54897 0.96548 0.0
C1902 C 0.01937 0.61985 0.00757 0.0
C1903 C 0.00498 0.61729 0.00932 0.0
C1904 C 0.02192 0.61147 0.99644 0.0
C1905 C 0.01015 0.60051 0.98675 0.0
C1906 C 0.99585 0.59816 0.9883 0.0
C1907 C 0.99329 0.60645 0.99944 0.0
C1908 C 0.01253 0.5911 0.97526 0.0
C1909 C 0.00391 0.57532 0.97541 0.0
C1910 C 0.02309 0.59747 0.96425 0.0
C1911 C 0.03207 0.61401 0.96304 0.0
C1912 C 0.02518 0.62266 0.96111 0.0
C1913 C 0.03373 0.63826 0.96003 0.0
C1914 C 0.04917 0.64533 0.96076 0.0
C1915 C 0.05611 0.63681 0.96252 0.0
C1916 C 0.04761 0.6212 0.96361 0.0
C1917 C 0.00407 0.54491 0.91887 0.0
C1918 C 0.01742 0.54555 0.91555 0.0
C1919 C 0.00352 0.55339 0.9313 0.0
C1920 C 0.01629 0.56268 0.94071 0.0
C1921 C 0.02964 0.5633 0.93754 0.0
C1922 C 0.03019 0.55476 0.92511 0.0
C1923 C 0.01569 0.57213 0.9535 0.0
C1924 C 0.02464 0.58788 0.95361 0.0
C1925 C 0.00539 0.56575 0.96473 0.0
C1926 C 0.99618 0.54917 0.96567 0.0
C1927 C 0.0028 0.54016 0.96633 0.0
C1928 C 0.99407 0.52454 0.9671 0.0
C1929 C 0.97869 0.51778 0.96731 0.0
C1930 C 0.97201 0.52665 0.96679 0.0
C1931 C 0.9807 0.54228 0.966 0.0
H1932 H 0.97194 0.50568 0.96792 0.0
H1933 H 0.05577 0.65741 0.95993 0.0
H1934 H 0.37095 0.41031 0.96325 0.0
H1935 H 0.38477 0.42757 0.94381 0.0
H1936 H 0.42075 0.41907 0.95199 0.0
H1937 H 0.407 0.40164 0.97102 0.0
H1938 H 0.42799 0.45141 0.95249 0.0
H1939 H 0.40162 0.40291 0.92284 0.0
H1940 H 0.37893 0.37972 0.91293 0.0
H1941 H 0.3628 0.40639 0.89246 0.0
H1942 H 0.38533 0.42975 0.90245 0.0
H1943 H 0.47794 0.48123 0.89627 0.0
H1944 H 0.46065 0.46557 0.91424 0.0
H1945 H 0.42487 0.4659 0.88882 0.0
H1946 H 0.44193 0.48054 0.86997 0.0
H1947 H 0.41514 0.43938 0.89732 0.0
H1948 H 0.44124 0.48759 0.92373 0.0
H1949 H 0.46277 0.51167 0.93391 0.0
H1950 H 0.47776 0.48765 0.96108 0.0
H1951 H 0.45644 0.4634 0.95091 0.0
C1952 C 0.38176 0.41206 0.96081 0.0
C1953 C 0.38786 0.40458 0.96864 0.0
C1954 C 0.38962 0.42189 0.94973 0.0
C1955 C 0.40377 0.42457 0.94654 0.0
C1956 C 0.40985 0.41714 0.95433 0.0
C1957 C 0.40193 0.40713 0.96515 0.0
C1958 C 0.41249 0.43529 0.93526 0.0
C1959 C 0.42527 0.4488 0.94041 0.0
C1960 C 0.40855 0.43209 0.91959 0.0
C1961 C 0.39506 0.41806 0.91356 0.0
C1962 C 0.39317 0.40382 0.91636 0.0
C1963 C 0.38035 0.39065 0.9107 0.0
C1964 C 0.3694 0.39158 0.90211 0.0
C1965 C 0.37127 0.40569 0.89914 0.0
C1966 C 0.38406 0.41889 0.90479 0.0
C1967 C 0.46637 0.47781 0.89429 0.0
C1968 C 0.46141 0.4822 0.88155 0.0
C1969 C 0.4565 0.46905 0.9048 0.0
C1970 C 0.44146 0.46479 0.90314 0.0
C1971 C 0.43643 0.46911 0.89045 0.0
C1972 C 0.44627 0.47766 0.87975 0.0
C1973 C 0.43102 0.4555 0.91447 0.0
C1974 C 0.41786 0.44222 0.90937 0.0
C1975 C 0.43444 0.4591 0.93025 0.0
C1976 C 0.44728 0.47366 0.93646 0.0
C1977 C 0.44918 0.48743 0.9318 0.0
C1978 C 0.46134 0.50112 0.93758 0.0
C1979 C 0.47164 0.50119 0.94811 0.0
C1980 C 0.46978 0.48758 0.95291 0.0
C1981 C 0.45764 0.47386 0.94716 0.0
H1982 H 0.48105 0.51179 0.95257 0.0
H1983 H 0.35949 0.38137 0.89773 0.0
H1984 H 0.6016 0.01942 0.00787 0.0
H1985 H 0.58576 0.01534 0.98516 0.0
H1986 H 0.58559 0.97414 0.97288 0.0
H1987 H 0.60128 0.97798 0.99582 0.0
H1988 H 0.59174 0.99522 0.94877 0.0
H1989 H 0.5563 0.96937 0.98556 0.0
H1990 H 0.54538 0.96694 0.01022 0.0
H1991 H 0.53802 0.00368 0.00186 0.0
H1992 H 0.54912 0.00648 0.97724 0.0
H1993 H 0.53805 0.97342 0.88815 0.0
H1994 H 0.55093 0.97267 0.91124 0.0
H1995 H 0.54431 0.00701 0.93312 0.0
H1996 H 0.53049 0.00709 0.91039 0.0
H1997 H 0.54116 0.98748 0.9525 0.0
H1998 H 0.57746 0.01485 0.91705 0.0
H1999 H 0.58902 0.01869 0.89261 0.0
H2000 H 0.59588 0.98126 0.89864 0.0
H2001 H 0.58412 0.97703 0.923 0.0
C2002 C 0.59822 0.00949 1.00035 0.0
C2003 C 0.60268 0.99901 0.00365 0.0
C2004 C 0.58914 0.00716 0.98741 0.0
C2005 C 0.58448 0.99442 0.97741 0.0
C2006 C 0.58908 0.98404 0.9805 0.0
C2007 C 0.59798 0.98622 0.99361 0.0
C2008 C 0.57481 0.99206 0.96376 0.0
C2009 C 0.58058 0.99325 0.94951 0.0
C2010 C 0.56043 0.98994 0.96485 0.0
C2011 C 0.55367 0.98822 0.97961 0.0
C2012 C 0.55248 0.97702 0.98904 0.0
C2013 C 0.54623 0.97555 0.003 0.0
C2014 C 0.54104 0.98517 0.00762 0.0
C2015 C 0.54206 0.99625 0.99827 0.0
C2016 C 0.54832 0.99777 0.98431 0.0
C2017 C 0.53899 0.98057 0.89796 0.0
C2018 C 0.53326 0.99039 0.89732 0.0
C2019 C 0.54657 0.98028 0.91112 0.0
C2020 C 0.54891 0.99003 0.92383 0.0
C2021 C 0.54276 0.99946 0.92343 0.0
C2022 C 0.53499 0.99961 0.91034 0.0
C2023 C 0.55809 0.99075 0.93739 0.0
C2024 C 0.55226 0.98931 0.95166 0.0
C2025 C 0.57251 0.99287 0.93633 0.0
C2026 C 0.57976 0.99552 0.92177 0.0
C2027 C 0.58134 0.00737 0.91311 0.0
C2028 C 0.58794 0.00962 0.89928 0.0
C2029 C 0.59315 1.0002 0.89406 0.0
C2030 C 0.59181 0.98853 0.90269 0.0
C2031 C 0.58519 0.98621 0.91651 0.0
H2032 H 0.59825 0.00196 0.88335 0.0
H2033 H 0.53621 0.98402 0.01844 0.0
H2034 H 0.59837 0.98707 0.08505 0.0
H2035 H 0.58578 0.98882 0.107 0.0
H2036 H 0.61081 0.03743 0.10765 0.0
H2037 H 0.62338 0.03579 0.08544 0.0
H2038 H 0.59446 0.00065 0.13533 0.0
H2039 H 0.58805 0.05088 0.1187 0.0
H2040 H 0.587 0.06328 0.0958 0.0
H2041 H 0.57007 0.02138 0.06909 0.0
H2042 H 0.57084 0.0087 0.09185 0.0
H2043 H 0.5633 0.02101 0.19593 0.0
H2044 H 0.57951 0.02308 0.17572 0.0
H2045 H 0.54195 0.00355 0.14316 0.0
H2046 H 0.52577 0.00176 0.16321 0.0
H2047 H 0.56563 0.02698 0.13205 0.0
H2048 H 0.55517 0.98219 0.15695 0.0
H2049 H 0.55418 0.96758 0.17872 0.0
H2050 H 0.60138 0.9948 0.18694 0.0
H2051 H 0.60261 0.00971 0.16532 0.0
C2052 C 0.60129 0.99817 0.08987 0.0
C2053 C 0.61182 0.0113 0.08338 0.0
C2054 C 0.59411 0.99914 0.10249 0.0
C2055 C 0.59722 0.01324 0.1089 0.0
C2056 C 0.60808 0.02641 0.10278 0.0
C2057 C 0.61529 0.02546 0.09011 0.0
C2058 C 0.58865 0.014 0.12161 0.0
C2059 C 0.58826 0.00653 0.13466 0.0
C2060 C 0.58037 0.02146 0.12068 0.0
C2061 C 0.57967 0.02891 0.10695 0.0
C2062 C 0.58406 0.04431 0.10794 0.0
C2063 C 0.58352 0.05139 0.09499 0.0
C2064 C 0.57852 0.04313 0.08099 0.0
C2065 C 0.57399 0.02777 0.07992 0.0
C2066 C 0.5745 0.02064 0.09285 0.0
C2067 C 0.55853 0.01732 0.18443 0.0
C2068 C 0.54323 0.01113 0.18119 0.0
C2069 C 0.56779 0.01842 0.17292 0.0
C2070 C 0.56192 0.01335 0.15795 0.0
C2071 C 0.54672 0.00752 0.15463 0.0
C2072 C 0.53746 0.00637 0.16612 0.0
C2073 C 0.57147 0.01367 0.14576 0.0
C2074 C 0.57202 0.02133 0.13282 0.0
C2075 C 0.57967 0.00613 0.14665 0.0
C2076 C 0.57896 0.99717 0.15963 0.0
C2077 C 0.56532 0.98514 0.16348 0.0
C2078 C 0.56472 0.97679 0.17577 0.0
C2079 C 0.5777 0.98029 0.18424 0.0
C2080 C 0.59132 0.99212 0.18039 0.0
C2081 C 0.59198 0.00052 0.16811 0.0
H2082 H 0.57722 0.97381 0.19375 0.0
H2083 H 0.57812 0.04863 0.07097 0.0
H2084 H 0.00826 0.6294 0.09559 0.0
H2085 H 0.00581 0.61283 0.11561 0.0
H2086 H 0.96236 0.57959 0.0964 0.0
H2087 H 0.96458 0.59635 0.07649 0.0
H2088 H 0.96336 0.58014 0.127 0.0
H2089 H 0.9924 0.57689 0.08795 0.0
H2090 H 0.01254 0.5868 0.07047 0.0
H2091 H 0.04483 0.60568 0.10817 0.0
H2092 H 0.02487 0.59606 0.12589 0.0
H2093 H 0.96349 0.5174 0.16014 0.0
H2094 H 0.96226 0.53475 0.14278 0.0
H2095 H 0.00525 0.57016 0.16084 0.0
H2096 H 0.00649 0.55299 0.17832 0.0
H2097 H 0.00353 0.56774 0.13035 0.0
H2098 H 0.97388 0.57035 0.16944 0.0
H2099 H 0.95338 0.55995 0.18648 0.0
H2100 H 0.92179 0.54129 0.14818 0.0
H2101 H 0.94212 0.55141 0.13089 0.0
C2102 C 0.99807 0.61867 0.09575 0.0
C2103 C 0.98669 0.6141 0.08434 0.0
C2104 C 0.99671 0.60919 0.10718 0.0
C2105 C 0.98406 0.59481 0.10728 0.0
C2106 C 0.97226 0.59059 0.09648 0.0
C2107 C 0.97355 0.60019 0.08511 0.0
C2108 C 0.9837 0.58385 0.11795 0.0
C2109 C 0.97204 0.57728 0.12762 0.0
C2110 C 0.99509 0.58021 0.11886 0.0
C2111 C 0.00713 0.58587 0.10824 0.0
C2112 C 0.00379 0.58324 0.09251 0.0
C2113 C 0.01518 0.5888 0.08256 0.0
C2114 C 0.02996 0.5969 0.08821 0.0
C2115 C 0.03338 0.59942 0.10382 0.0
C2116 C 0.02204 0.59391 0.11382 0.0
C2117 C 0.97259 0.52894 0.16056 0.0
C2118 C 0.98512 0.53378 0.17057 0.0
C2119 C 0.97188 0.53884 0.15062 0.0
C2120 C 0.98364 0.55378 0.15056 0.0
C2121 C 0.99607 0.55866 0.16065 0.0
C2122 C 0.99679 0.5488 0.17057 0.0
C2123 C 0.98334 0.5642 0.1396 0.0
C2124 C 0.99485 0.5706 0.12977 0.0
C2125 C 0.97176 0.56755 0.1385 0.0
C2126 C 0.95953 0.56151 0.14888 0.0
C2127 C 0.96256 0.56392 0.16465 0.0
C2128 C 0.95098 0.5581 0.17436 0.0
C2129 C 0.9363 0.54993 0.16842 0.0
C2130 C 0.93317 0.5476 0.15276 0.0
C2131 C 0.94472 0.55339 0.14301 0.0
H2132 H 0.92734 0.54543 0.17595 0.0
H2133 H 0.03875 0.6012 0.08049 0.0
H2134 H 0.39743 0.41508 0.0447 0.0
H2135 H 0.41354 0.42482 0.06796 0.0
H2136 H 0.41035 0.38158 0.07207 0.0
H2137 H 0.39445 0.37177 0.04854 0.0
H2138 H 0.40542 0.39634 0.09967 0.0
H2139 H 0.44007 0.40526 0.06135 0.0
H2140 H 0.45126 0.4147 0.03725 0.0
H2141 H 0.46294 0.45976 0.05279 0.0
H2142 H 0.45161 0.45054 0.07691 0.0
H2143 H 0.4586 0.4215 0.16102 0.0
H2144 H 0.44513 0.40955 0.13686 0.0
H2145 H 0.45776 0.45328 0.1208 0.0
H2146 H 0.47238 0.46542 0.14446 0.0
H2147 H 0.45802 0.43672 0.09872 0.0
H2148 H 0.42289 0.42909 0.13571 0.0
H2149 H 0.41078 0.42084 0.15965 0.0
H2150 H 0.39869 0.37509 0.14676 0.0
H2151 H 0.41094 0.3831 0.12285 0.0
C2152 C 0.40012 0.40761 0.05055 0.0
C2153 C 0.39469 0.39266 0.04478 0.0
C2154 C 0.40935 0.41321 0.0638 0.0
C2155 C 0.41314 0.40392 0.07164 0.0
C2156 C 0.40753 0.3889 0.06612 0.0
C2157 C 0.39851 0.38335 0.05268 0.0
C2158 C 0.42301 0.41001 0.08561 0.0
C2159 C 0.417 0.40498 0.09951 0.0
C2160 C 0.43795 0.42159 0.08531 0.0
C2161 C 0.44487 0.42718 0.07087 0.0
C2162 C 0.44491 0.41716 0.05957 0.0
C2163 C 0.4513 0.42248 0.04592 0.0
C2164 C 0.45778 0.43781 0.04348 0.0
C2165 C 0.45791 0.44788 0.0547 0.0
C2166 C 0.45152 0.44261 0.06836 0.0
C2167 C 0.45889 0.42866 0.15225 0.0
C2168 C 0.46656 0.4445 0.15484 0.0
C2169 C 0.45093 0.42176 0.13848 0.0
C2170 C 0.45006 0.43047 0.12711 0.0
C2171 C 0.45812 0.44628 0.12943 0.0
C2172 C 0.46635 0.45321 0.14308 0.0
C2173 C 0.44046 0.42316 0.11299 0.0
C2174 C 0.44649 0.42799 0.09899 0.0
C2175 C 0.42543 0.41158 0.11323 0.0
C2176 C 0.41797 0.40672 0.12756 0.0
C2177 C 0.41774 0.41729 0.13803 0.0
C2178 C 0.41084 0.41265 0.15159 0.0
C2179 C 0.404 0.39746 0.15473 0.0
C2180 C 0.40401 0.38686 0.14432 0.0
C2181 C 0.41093 0.39144 0.13076 0.0
H2182 H 0.39864 0.39388 0.16522 0.0
H2183 H 0.46272 0.44191 0.0329 0.0
H2184 H 0.67705 0.72177 0.40379 0.0
H2185 H 0.67034 0.73333 0.42433 0.0
H2186 H 0.63061 0.72366 0.39826 0.0
H2187 H 0.63717 0.71186 0.37757 0.0
H2188 H 0.64794 0.75411 0.41089 0.0
H2189 H 0.62615 0.70394 0.42686 0.0
H2190 H 0.62527 0.6802 0.43263 0.0
H2191 H 0.66056 0.70413 0.467 0.0
H2192 H 0.66182 0.72806 0.46129 0.0
H2193 H 0.62759 0.7831 0.47513 0.0
H2194 H 0.62669 0.76697 0.45345 0.0
H2195 H 0.66308 0.76435 0.47454 0.0
H2196 H 0.66355 0.77971 0.49645 0.0
H2197 H 0.64289 0.73761 0.46324 0.0
H2198 H 0.66729 0.78779 0.44517 0.0
H2199 H 0.66952 0.81209 0.43918 0.0
H2200 H 0.6307 0.78879 0.40873 0.0
H2201 H 0.62814 0.76433 0.41469 0.0
C2202 C 0.66682 0.72198 0.40244 0.0
C2203 C 0.65764 0.7159 0.38905 0.0
C2204 C 0.66298 0.72855 0.41421 0.0
C2205 C 0.64995 0.72928 0.41283 0.0
C2206 C 0.64069 0.72316 0.39953 0.0
C2207 C 0.64443 0.71638 0.38778 0.0
C2208 C 0.64647 0.73699 0.42515 0.0
C2209 C 0.6465 0.75035 0.42229 0.0
C2210 C 0.6449 0.73221 0.44004 0.0
C2211 C 0.64414 0.71782 0.44357 0.0
C2212 C 0.63381 0.70416 0.43557 0.0
C2213 C 0.63322 0.69067 0.43884 0.0
C2214 C 0.64287 0.69066 0.45015 0.0
C2215 C 0.6531 0.70415 0.45824 0.0
C2216 C 0.65374 0.71768 0.455 0.0
C2217 C 0.63534 0.77901 0.47517 0.0
C2218 C 0.64575 0.78286 0.48748 0.0
C2219 C 0.63489 0.76989 0.46271 0.0
C2220 C 0.64492 0.76457 0.46228 0.0
C2221 C 0.65525 0.76834 0.47458 0.0
C2222 C 0.65563 0.77732 0.48704 0.0
C2223 C 0.6448 0.75503 0.44911 0.0
C2224 C 0.64408 0.74128 0.45181 0.0
C2225 C 0.64589 0.75955 0.43411 0.0
C2226 C 0.64742 0.77423 0.43052 0.0
C2227 C 0.65916 0.78785 0.43729 0.0
C2228 C 0.6605 0.80164 0.43389 0.0
C2229 C 0.65023 0.80198 0.42362 0.0
C2230 C 0.63863 0.78851 0.41671 0.0
C2231 C 0.63723 0.77468 0.42009 0.0
H2232 H 0.65128 0.81267 0.421 0.0
H2233 H 0.6424 0.6802 0.45267 0.0
H2234 H 0.28648 0.90682 0.4194 0.0
H2235 H 0.2733 0.89015 0.43939 0.0
H2236 H 0.26818 0.92547 0.46125 0.0
H2237 H 0.28116 0.94209 0.44135 0.0
H2238 H 0.27575 0.9097 0.48168 0.0
H2239 H 0.2406 0.89957 0.43945 0.0
H2240 H 0.23117 0.89263 0.41272 0.0
H2241 H 0.22965 0.85018 0.4154 0.0
H2242 H 0.23929 0.85697 0.4421 0.0
H2243 H 0.21644 0.87225 0.52825 0.0
H2244 H 0.23336 0.88732 0.50965 0.0
H2245 H 0.22774 0.84685 0.48628 0.0
H2246 H 0.20982 0.83157 0.50414 0.0
H2247 H 0.2273 0.86403 0.46653 0.0
H2248 H 0.26036 0.87284 0.50937 0.0
H2249 H 0.2697 0.87953 0.53613 0.0
H2250 H 0.27562 0.92382 0.53261 0.0
H2251 H 0.26617 0.91735 0.50586 0.0
C2252 C 0.28273 0.91109 0.42858 0.0
C2253 C 0.28477 0.92574 0.42873 0.0
C2254 C 0.27516 0.90155 0.43996 0.0
C2255 C 0.26967 0.90655 0.45174 0.0
C2256 C 0.27232 0.92138 0.45228 0.0
C2257 C 0.27969 0.93084 0.44084 0.0
C2258 C 0.26038 0.89614 0.46304 0.0
C2259 C 0.26512 0.89973 0.47842 0.0
C2260 C 0.2467 0.88297 0.45872 0.0
C2261 C 0.24084 0.87885 0.4427 0.0
C2262 C 0.23838 0.88881 0.43429 0.0
C2263 C 0.23297 0.8849 0.41916 0.0
C2264 C 0.22986 0.871 0.41235 0.0
C2265 C 0.2321 0.86096 0.42068 0.0
C2266 C 0.23753 0.86483 0.43581 0.0
C2267 C 0.21861 0.86648 0.51907 0.0
C2268 C 0.21166 0.85061 0.51777 0.0
C2269 C 0.22855 0.87518 0.50855 0.0
C2270 C 0.23213 0.8683 0.49668 0.0
C2271 C 0.22527 0.85248 0.49537 0.0
C2272 C 0.21512 0.84374 0.50574 0.0
C2273 C 0.24256 0.87757 0.48533 0.0
C2274 C 0.23802 0.87382 0.46989 0.0
C2275 C 0.2565 0.89054 0.48962 0.0
C2276 C 0.26246 0.89457 0.50563 0.0
C2277 C 0.2636 0.88399 0.51432 0.0
C2278 C 0.26892 0.88774 0.52948 0.0
C2279 C 0.27322 0.90208 0.53607 0.0
C2280 C 0.27228 0.91272 0.52749 0.0
C2281 C 0.26697 0.90903 0.51231 0.0
H2282 H 0.27731 0.90495 0.54783 0.0
H2283 H 0.22566 0.86798 0.40064 0.0
H2284 H 0.07186 0.31499 0.39102 0.0
H2285 H 0.08704 0.31977 0.41429 0.0
H2286 H 0.09599 0.36569 0.41829 0.0
H2287 H 0.08103 0.3611 0.39461 0.0
H2288 H 0.12049 0.36475 0.42582 0.0
H2289 H 0.07056 0.33891 0.43983 0.0
H2290 H 0.04425 0.31897 0.43818 0.0
H2291 H 0.05662 0.28568 0.44642 0.0
H2292 H 0.08303 0.3054 0.44789 0.0
H2293 H 0.14461 0.37301 0.50494 0.0
H2294 H 0.13217 0.37228 0.48074 0.0
H2295 H 0.12415 0.32738 0.4695 0.0
H2296 H 0.13686 0.32813 0.49344 0.0
H2297 H 0.09885 0.32958 0.46651 0.0
H2298 H 0.14928 0.35632 0.45168 0.0
H2299 H 0.17534 0.37689 0.45375 0.0
H2300 H 0.16147 0.40944 0.44807 0.0
H2301 H 0.1353 0.38906 0.44618 0.0
C2302 C 0.07704 0.32613 0.39681 0.0
C2303 C 0.0751 0.33763 0.39102 0.0
C2304 C 0.0857 0.32883 0.41016 0.0
C2305 C 0.09242 0.343 0.41822 0.0
C2306 C 0.09085 0.35465 0.4123 0.0
C2307 C 0.08227 0.35199 0.3988 0.0
C2308 C 0.10089 0.34542 0.4329 0.0
C2309 C 0.11568 0.35721 0.43482 0.0
C2310 C 0.09468 0.33552 0.44462 0.0
C2311 C 0.07879 0.32363 0.44386 0.0
C2312 C 0.06768 0.32733 0.44119 0.0
C2313 C 0.05274 0.31607 0.4403 0.0
C2314 C 0.04877 0.30107 0.44216 0.0
C2315 C 0.05972 0.29731 0.44496 0.0
C2316 C 0.07467 0.30852 0.44585 0.0
C2317 C 0.1405 0.36311 0.49718 0.0
C2318 C 0.14166 0.35058 0.5012 0.0
C2319 C 0.13333 0.36269 0.48338 0.0
C2320 C 0.12721 0.34976 0.47335 0.0
C2321 C 0.12871 0.33743 0.47713 0.0
C2322 C 0.13593 0.33786 0.49085 0.0
C2323 C 0.11852 0.34867 0.45928 0.0
C2324 C 0.10362 0.33716 0.45753 0.0
C2325 C 0.1246 0.35893 0.44786 0.0
C2326 C 0.14032 0.37118 0.44896 0.0
C2327 C 0.15178 0.36787 0.45101 0.0
C2328 C 0.16657 0.3795 0.45212 0.0
C2329 C 0.17006 0.39447 0.45109 0.0
C2330 C 0.15875 0.39784 0.4489 0.0
C2331 C 0.14394 0.38626 0.44779 0.0
H2332 H 0.18152 0.40345 0.45195 0.0
H2333 H 0.0372 0.29236 0.44147 0.0
H2334 H 0.05829 0.29657 0.31671 0.0
H2335 H 0.0697 0.29324 0.29423 0.0
H2336 H 0.07842 0.33654 0.2802 0.0
H2337 H 0.06735 0.34011 0.30274 0.0
H2338 H 0.06631 0.31167 0.25632 0.0
H2339 H 0.10529 0.3364 0.29656 0.0
H2340 H 0.11658 0.3385 0.32209 0.0
H2341 H 0.11484 0.29619 0.31285 0.0
H2342 H 0.10332 0.29373 0.28733 0.0
H2343 H 0.12037 0.33082 0.20295 0.0
H2344 H 0.10564 0.32998 0.22397 0.0
H2345 H 0.11046 0.29411 0.24191 0.0
H2346 H 0.12607 0.29558 0.22147 0.0
H2347 H 0.11415 0.31285 0.26388 0.0
H2348 H 0.07715 0.28807 0.22364 0.0
H2349 H 0.06495 0.28434 0.19824 0.0
H2350 H 0.06138 0.32382 0.20719 0.0
H2351 H 0.07375 0.32792 0.23257 0.0
C2352 C 0.06249 0.30531 0.30875 0.0
C2353 C 0.06199 0.31864 0.31153 0.0
C2354 C 0.06903 0.3034 0.29595 0.0
C2355 C 0.07492 0.31467 0.28561 0.0
C2356 C 0.07391 0.32771 0.28804 0.0
C2357 C 0.06764 0.32975 0.30096 0.0
C2358 C 0.08284 0.31329 0.27265 0.0
C2359 C 0.07683 0.31203 0.25791 0.0
C2360 C 0.0963 0.31329 0.2748 0.0
C2361 C 0.10328 0.31479 0.29011 0.0
C2362 C 0.10718 0.32747 0.30003 0.0
C2363 C 0.11365 0.32874 0.31449 0.0
C2364 C 0.11638 0.31746 0.31911 0.0
C2365 C 0.11269 0.3049 0.30927 0.0
C2366 C 0.1062 0.30357 0.29481 0.0
C2367 C 0.11844 0.32283 0.21142 0.0
C2368 C 0.12446 0.31327 0.21044 0.0
C2369 C 0.10979 0.32221 0.22335 0.0
C2370 C 0.10668 0.31179 0.23444 0.0
C2371 C 0.11261 0.30219 0.23347 0.0
C2372 C 0.12142 0.30293 0.22164 0.0
C2373 C 0.09774 0.31135 0.24735 0.0
C2374 C 0.10356 0.31231 0.26215 0.0
C2375 C 0.08396 0.3108 0.24523 0.0
C2376 C 0.0765 0.30838 0.22997 0.0
C2377 C 0.07386 0.29603 0.22015 0.0
C2378 C 0.0669 0.29383 0.20576 0.0
C2379 C 0.06243 0.30385 0.20109 0.0
C2380 C 0.06487 0.31607 0.21082 0.0
C2381 C 0.07184 0.31833 0.22521 0.0
H2382 H 0.05704 0.30214 0.18995 0.0
H2383 H 0.1214 0.31846 0.33031 0.0
H2384 H 0.66726 0.71272 0.30211 0.0
H2385 H 0.67386 0.73018 0.28206 0.0
H2386 H 0.71407 0.76208 0.30805 0.0
H2387 H 0.70759 0.74455 0.32822 0.0
H2388 H 0.69694 0.77444 0.29782 0.0
H2389 H 0.71703 0.74521 0.27725 0.0
H2390 H 0.71694 0.72189 0.26907 0.0
H2391 H 0.68098 0.71027 0.23632 0.0
H2392 H 0.68071 0.73342 0.24446 0.0
H2393 H 0.71694 0.82467 0.23904 0.0
H2394 H 0.71814 0.80859 0.25791 0.0
H2395 H 0.68121 0.76958 0.2341 0.0
H2396 H 0.68053 0.7854 0.2147 0.0
H2397 H 0.7003 0.76223 0.24388 0.0
H2398 H 0.67748 0.78857 0.26615 0.0
H2399 H 0.67584 0.81089 0.27451 0.0
H2400 H 0.71487 0.82681 0.30416 0.0
H2401 H 0.71685 0.80466 0.29582 0.0
C2402 C 0.67761 0.72336 0.3035 0.0
C2403 C 0.68689 0.72727 0.31678 0.0
C2404 C 0.68139 0.7333 0.29199 0.0
C2405 C 0.69448 0.74739 0.29355 0.0
C2406 C 0.70394 0.75123 0.30663 0.0
C2407 C 0.70025 0.74119 0.31811 0.0
C2408 C 0.69764 0.75841 0.2819 0.0
C2409 C 0.69802 0.77194 0.28607 0.0
C2410 C 0.69862 0.75492 0.26653 0.0
C2411 C 0.69878 0.74101 0.26155 0.0
C2412 C 0.70903 0.73763 0.26839 0.0
C2413 C 0.70905 0.72445 0.26374 0.0
C2414 C 0.69895 0.71459 0.2522 0.0
C2415 C 0.68881 0.71791 0.24526 0.0
C2416 C 0.68872 0.73107 0.24988 0.0
C2417 C 0.70924 0.81264 0.23765 0.0
C2418 C 0.69854 0.80639 0.22538 0.0
C2419 C 0.70983 0.80346 0.24857 0.0
C2420 C 0.69958 0.78789 0.24761 0.0
C2421 C 0.68919 0.78157 0.23516 0.0
C2422 C 0.6887 0.79069 0.22415 0.0
C2423 C 0.69934 0.77818 0.25973 0.0
C2424 C 0.69947 0.76486 0.25566 0.0
C2425 C 0.6986 0.78175 0.27518 0.0
C2426 C 0.69742 0.79506 0.28023 0.0
C2427 C 0.68578 0.79689 0.27436 0.0
C2428 C 0.68478 0.8095 0.27911 0.0
C2429 C 0.69527 0.82029 0.28982 0.0
C2430 C 0.70677 0.81846 0.29584 0.0
C2431 C 0.70783 0.80588 0.29111 0.0
H2432 H 0.69447 0.83004 0.29349 0.0
H2433 H 0.69899 0.70439 0.24862 0.0
H2434 H 0.2591 0.94749 0.36027 0.0
H2435 H 0.24337 0.93907 0.3366 0.0
H2436 H 0.27178 0.92454 0.31713 0.0
H2437 H 0.28737 0.93268 0.34067 0.0
H2438 H 0.26378 0.94122 0.29772 0.0
H2439 H 0.24141 0.89916 0.33 0.0
H2440 H 0.23026 0.8873 0.35335 0.0
H2441 H 0.19608 0.8984 0.34617 0.0
H2442 H 0.20718 0.91052 0.32286 0.0
H2443 H 0.22574 0.89031 0.23597 0.0
H2444 H 0.23884 0.9025 0.2602 0.0
H2445 H 0.20135 0.90583 0.27401 0.0
H2446 H 0.18774 0.89278 0.24994 0.0
H2447 H 0.21245 0.89777 0.29679 0.0
H2448 H 0.23249 0.93678 0.26281 0.0
H2449 H 0.24315 0.9484 0.23921 0.0
H2450 H 0.28127 0.94412 0.24945 0.0
H2451 H 0.27073 0.93224 0.273 0.0
C2452 C 0.26202 0.94257 0.35091 0.0
C2453 C 0.27443 0.94067 0.35236 0.0
C2454 C 0.25303 0.93776 0.33743 0.0
C2455 C 0.25642 0.93116 0.32516 0.0
C2456 C 0.269 0.92963 0.32646 0.0
C2457 C 0.27784 0.93421 0.33996 0.0
C2458 C 0.24669 0.92534 0.31105 0.0
C2459 C 0.25257 0.9317 0.29747 0.0
C2460 C 0.23192 0.91325 0.31085 0.0
C2461 C 0.22523 0.90591 0.32481 0.0
C2462 C 0.2316 0.89919 0.33348 0.0
C2463 C 0.22527 0.8924 0.34669 0.0
C2464 C 0.2125 0.89214 0.35127 0.0
C2465 C 0.206 0.89864 0.34262 0.0
C2466 C 0.21229 0.90546 0.32941 0.0
C2467 C 0.22012 0.89337 0.24421 0.0
C2468 C 0.20562 0.89047 0.24099 0.0
C2469 C 0.22775 0.90057 0.25801 0.0
C2470 C 0.22121 0.90536 0.26883 0.0
C2471 C 0.20666 0.90233 0.26578 0.0
C2472 C 0.19895 0.89498 0.25197 0.0
C2473 C 0.22964 0.91339 0.28332 0.0
C2474 C 0.22354 0.90748 0.29699 0.0
C2475 C 0.24417 0.92602 0.28362 0.0
C2476 C 0.25076 0.93353 0.26965 0.0
C2477 C 0.24312 0.93825 0.26001 0.0
C2478 C 0.24914 0.94489 0.24663 0.0
C2479 C 0.26287 0.94697 0.24282 0.0
C2480 C 0.27064 0.94249 0.25242 0.0
C2481 C 0.26465 0.93583 0.26579 0.0
H2482 H 0.26749 0.95207 0.23244 0.0
H2483 H 0.20761 0.88688 0.3615 0.0
H2484 H 0.69849 0.95936 0.34843 0.0
H2485 H 0.7047 0.94628 0.32883 0.0
H2486 H 0.65881 0.92095 0.31229 0.0
H2487 H 0.65248 0.93373 0.33192 0.0
H2488 H 0.66986 0.90276 0.31517 0.0
H2489 H 0.68517 0.95038 0.29346 0.0
H2490 H 0.69908 0.97812 0.29294 0.0
H2491 H 0.74014 0.97824 0.29812 0.0
H2492 H 0.72646 0.9505 0.29886 0.0
H2493 H 0.67131 0.87525 0.24172 0.0
H2494 H 0.66928 0.88878 0.26387 0.0
H2495 H 0.71561 0.90694 0.27654 0.0
H2496 H 0.71771 0.89304 0.25446 0.0
H2497 H 0.707 0.92874 0.27749 0.0
H2498 H 0.69132 0.88062 0.29669 0.0
H2499 H 0.67712 0.85284 0.29653 0.0
H2500 H 0.63643 0.85365 0.29571 0.0
H2501 H 0.65038 0.88143 0.29563 0.0
C2502 C 0.68974 0.95109 0.34055 0.0
C2503 C 0.67498 0.94757 0.34178 0.0
C2504 C 0.69332 0.94365 0.32933 0.0
C2505 C 0.68223 0.93267 0.31906 0.0
C2506 C 0.66754 0.92933 0.32013 0.0
C2507 C 0.66395 0.9367 0.33135 0.0
C2508 C 0.68573 0.9243 0.30739 0.0
C2509 C 0.67789 0.90846 0.30686 0.0
C2510 C 0.69656 0.93172 0.29685 0.0
C2511 C 0.70479 0.94839 0.2964 0.0
C2512 C 0.69716 0.95634 0.29462 0.0
C2513 C 0.705 0.97206 0.29426 0.0
C2514 C 0.72048 0.97994 0.29555 0.0
C2515 C 0.72815 0.97212 0.29715 0.0
C2516 C 0.72036 0.9564 0.29753 0.0
C2517 C 0.68103 0.88181 0.24937 0.0
C2518 C 0.69465 0.88288 0.24638 0.0
C2519 C 0.67986 0.88964 0.26199 0.0
C2520 C 0.69226 0.89875 0.27192 0.0
C2521 C 0.7059 0.89995 0.269 0.0
C2522 C 0.70708 0.89202 0.25638 0.0
C2523 C 0.69086 0.90725 0.28509 0.0
C2524 C 0.6991 0.92308 0.28592 0.0
C2525 C 0.68036 0.89983 0.2959 0.0
C2526 C 0.67191 0.88312 0.29605 0.0
C2527 C 0.67934 0.87487 0.29636 0.0
C2528 C 0.67134 0.85912 0.29633 0.0
C2529 C 0.65588 0.85148 0.29608 0.0
C2530 C 0.6484 0.85958 0.29589 0.0
C2531 C 0.65636 0.87533 0.29591 0.0
H2532 H 0.6497 0.83929 0.29606 0.0
H2533 H 0.72653 0.99211 0.29526 0.0
H2534 H 0.06167 0.72534 0.29562 0.0
H2535 H 0.07522 0.7423 0.27626 0.0
H2536 H 0.06005 0.77255 0.29106 0.0
H2537 H 0.04613 0.75539 0.31044 0.0
H2538 H 0.06059 0.77062 0.26021 0.0
H2539 H 0.09406 0.78015 0.30272 0.0
H2540 H 0.10627 0.7737 0.32297 0.0
H2541 H 0.12339 0.75582 0.28974 0.0
H2542 H 0.11109 0.76197 0.26928 0.0
H2543 H 0.11943 0.83299 0.22465 0.0
H2544 H 0.10228 0.8168 0.24279 0.0
H2545 H 0.11218 0.78185 0.23042 0.0
H2546 H 0.12898 0.79771 0.21203 0.0
H2547 H 0.11432 0.78806 0.26127 0.0
H2548 H 0.07984 0.77817 0.21875 0.0
H2549 H 0.06771 0.78517 0.19891 0.0
H2550 H 0.05298 0.80489 0.23283 0.0
H2551 H 0.06521 0.79819 0.25288 0.0
C2552 C 0.06107 0.73552 0.29471 0.0
C2553 C 0.05295 0.7391 0.30472 0.0
C2554 C 0.06887 0.74523 0.28363 0.0
C2555 C 0.06892 0.75885 0.28242 0.0
C2556 C 0.06023 0.76213 0.29186 0.0
C2557 C 0.0523 0.75233 0.30293 0.0
C2558 C 0.07866 0.76989 0.27179 0.0
C2559 C 0.07238 0.77463 0.26057 0.0
C2560 C 0.09403 0.77504 0.2722 0.0
C2561 C 0.10155 0.77142 0.28447 0.0
C2562 C 0.10034 0.77475 0.29973 0.0
C2563 C 0.10729 0.77116 0.31124 0.0
C2564 C 0.11558 0.76432 0.30764 0.0
C2565 C 0.11696 0.76111 0.29251 0.0
C2566 C 0.11001 0.76466 0.28095 0.0
C2567 C 0.11778 0.82177 0.2256 0.0
C2568 C 0.12568 0.81671 0.21692 0.0
C2569 C 0.10801 0.81255 0.23602 0.0
C2570 C 0.10595 0.79812 0.23794 0.0
C2571 C 0.11367 0.79298 0.22918 0.0
C2572 C 0.12335 0.80212 0.21872 0.0
C2573 C 0.09622 0.78852 0.24947 0.0
C2574 C 0.10254 0.78411 0.26094 0.0
C2575 C 0.08096 0.78383 0.24934 0.0
C2576 C 0.07358 0.78783 0.2373 0.0
C2577 C 0.07413 0.78412 0.22198 0.0
C2578 C 0.06721 0.78801 0.21069 0.0
C2579 C 0.05962 0.79551 0.21461 0.0
C2580 C 0.05889 0.7991 0.22982 0.0
C2581 C 0.0658 0.79526 0.24114 0.0
H2582 H 0.05426 0.79851 0.20585 0.0
H2583 H 0.12095 0.76155 0.31657 0.0
H2584 H 0.26818 0.3137 0.33097 0.0
H2585 H 0.25258 0.30834 0.30759 0.0
H2586 H 0.24594 0.34547 0.32015 0.0
H2587 H 0.2618 0.35117 0.34331 0.0
H2588 H 0.21904 0.316 0.30933 0.0
H2589 H 0.26829 0.35296 0.29635 0.0
H2590 H 0.29504 0.36286 0.29467 0.0
H2591 H 0.28589 0.32367 0.26652 0.0
H2592 H 0.25903 0.31341 0.26825 0.0
H2593 H 0.18997 0.32785 0.24138 0.0
H2594 H 0.20365 0.32997 0.26509 0.0
H2595 H 0.21972 0.30249 0.24449 0.0
H2596 H 0.20675 0.30105 0.2205 0.0
H2597 H 0.24154 0.32551 0.25969 0.0
H2598 H 0.19248 0.28895 0.27091 0.0
H2599 H 0.16562 0.27815 0.27295 0.0
H2600 H 0.17387 0.31486 0.3045 0.0
H2601 H 0.20079 0.32601 0.30249 0.0
C2602 C 0.26335 0.32068 0.32876 0.0
C2603 C 0.26624 0.33288 0.33893 0.0
C2604 C 0.25447 0.31761 0.31542 0.0
C2605 C 0.24814 0.32652 0.3122 0.0
C2606 C 0.25072 0.33847 0.32249 0.0
C2607 C 0.25983 0.34174 0.33565 0.0
C2608 C 0.23915 0.32366 0.29789 0.0
C2609 C 0.22392 0.31818 0.29845 0.0
C2610 C 0.24554 0.32615 0.28375 0.0
C2611 C 0.26166 0.33234 0.28259 0.0
C2612 C 0.27198 0.34638 0.28993 0.0
C2613 C 0.28717 0.35208 0.28894 0.0
C2614 C 0.29218 0.34388 0.28054 0.0
C2615 C 0.282 0.32999 0.27306 0.0
C2616 C 0.26679 0.32424 0.27403 0.0
C2617 C 0.19644 0.32228 0.24186 0.0
C2618 C 0.19722 0.31427 0.22899 0.0
C2619 C 0.20413 0.32335 0.2555 0.0
C2620 C 0.21259 0.31623 0.25667 0.0
C2621 C 0.21323 0.30804 0.24391 0.0
C2622 C 0.20564 0.30708 0.23022 0.0
C2623 C 0.22128 0.31787 0.271 0.0
C2624 C 0.23652 0.32316 0.27048 0.0
C2625 C 0.21485 0.31506 0.28518 0.0
C2626 C 0.19866 0.30839 0.28644 0.0
C2627 C 0.18857 0.29479 0.2782 0.0
C2628 C 0.17333 0.28859 0.27936 0.0
C2629 C 0.16804 0.29583 0.28882 0.0
C2630 C 0.17799 0.30927 0.29716 0.0
C2631 C 0.19324 0.31553 0.29603 0.0
H2632 H 0.15624 0.29102 0.28971 0.0
H2633 H 0.30394 0.34832 0.27979 0.0
H2634 H 0.2875 0.37331 0.4189 0.0
H2635 H 0.27542 0.37538 0.4413 0.0
H2636 H 0.25389 0.32714 0.44433 0.0
H2637 H 0.26569 0.32495 0.42187 0.0
H2638 H 0.23454 0.33637 0.44688 0.0
H2639 H 0.28308 0.35212 0.4692 0.0
H2640 H 0.31033 0.36745 0.47209 0.0
H2641 H 0.30771 0.40761 0.48002 0.0
H2642 H 0.28043 0.39253 0.47698 0.0
H2643 H 0.20822 0.32947 0.52 0.0
H2644 H 0.22278 0.33001 0.49885 0.0
H2645 H 0.23822 0.37736 0.49546 0.0
H2646 H 0.22332 0.37687 0.51637 0.0
H2647 H 0.26079 0.36989 0.49296 0.0
H2648 H 0.21216 0.35386 0.47114 0.0
H2649 H 0.18492 0.33835 0.4686 0.0
H2650 H 0.18786 0.29846 0.45987 0.0
H2651 H 0.21514 0.31372 0.4626 0.0
C2652 C 0.2803 0.36316 0.42441 0.0
C2653 C 0.27755 0.34896 0.41854 0.0
C2654 C 0.27343 0.36436 0.43725 0.0
C2655 C 0.26379 0.35142 0.44457 0.0
C2656 C 0.26124 0.33728 0.43887 0.0
C2657 C 0.26804 0.33606 0.42603 0.0
C2658 C 0.25584 0.35242 0.45777 0.0
C2659 C 0.24032 0.34356 0.45702 0.0
C2660 C 0.26332 0.36213 0.47086 0.0
C2661 C 0.27972 0.37121 0.47269 0.0
C2662 C 0.28832 0.36423 0.47143 0.0
C2663 C 0.30377 0.37287 0.47312 0.0
C2664 C 0.31075 0.3885 0.47619 0.0
C2665 C 0.30229 0.39551 0.47762 0.0
C2666 C 0.28683 0.38692 0.47592 0.0
C2667 C 0.2146 0.34 0.51471 0.0
C2668 C 0.21444 0.35309 0.51983 0.0
C2669 C 0.223 0.34029 0.50267 0.0
C2670 C 0.23147 0.35369 0.4955 0.0
C2671 C 0.23177 0.36691 0.50086 0.0
C2672 C 0.22328 0.36661 0.51286 0.0
C2673 C 0.23958 0.35367 0.48209 0.0
C2674 C 0.25507 0.36274 0.48279 0.0
C2675 C 0.2321 0.34413 0.46895 0.0
C2676 C 0.2157 0.33492 0.46722 0.0
C2677 C 0.207 0.34177 0.46881 0.0
C2678 C 0.19155 0.33302 0.46731 0.0
C2679 C 0.18466 0.31742 0.46411 0.0
C2680 C 0.19321 0.31054 0.46237 0.0
C2681 C 0.20867 0.31924 0.46388 0.0
H2682 H 0.1727 0.31067 0.46295 0.0
H2683 H 0.32271 0.39516 0.4775 0.0
H2684 H 0.62745 0.9283 0.41019 0.0
H2685 H 0.62189 0.91169 0.43104 0.0
H2686 H 0.66844 0.93382 0.44485 0.0
H2687 H 0.67405 0.95057 0.42436 0.0
H2688 H 0.6299 0.89144 0.4357 0.0
H2689 H 0.67379 0.93329 0.48215 0.0
H2690 H 0.68545 0.96018 0.49093 0.0
H2691 H 0.64771 0.96167 0.47251 0.0
H2692 H 0.63572 0.93474 0.46381 0.0
H2693 H 0.65103 0.85445 0.48755 0.0
H2694 H 0.64996 0.87116 0.46936 0.0
H2695 H 0.62838 0.88549 0.50116 0.0
H2696 H 0.62983 0.86911 0.51963 0.0
H2697 H 0.64982 0.90916 0.48882 0.0
H2698 H 0.60877 0.86192 0.47038 0.0
H2699 H 0.59542 0.83485 0.46204 0.0
H2700 H 0.62394 0.84376 0.42545 0.0
H2701 H 0.63761 0.87087 0.43369 0.0
C2702 C 0.63648 0.92977 0.4178 0.0
C2703 C 0.6512 0.94079 0.41558 0.0
C2704 C 0.63329 0.92023 0.42968 0.0
C2705 C 0.64473 0.92158 0.4396 0.0
C2706 C 0.65938 0.93273 0.43754 0.0
C2707 C 0.66258 0.94227 0.42573 0.0
C2708 C 0.64157 0.91084 0.45158 0.0
C2709 C 0.63416 0.89531 0.44734 0.0
C2710 C 0.64686 0.91584 0.46684 0.0
C2711 C 0.6539 0.93201 0.47223 0.0
C2712 C 0.66794 0.93933 0.48005 0.0
C2713 C 0.67462 0.95459 0.485 0.0
C2714 C 0.66734 0.96263 0.48225 0.0
C2715 C 0.65335 0.95543 0.47459 0.0
C2716 C 0.64662 0.94018 0.46963 0.0
C2717 C 0.6461 0.86119 0.49071 0.0
C2718 C 0.64053 0.86046 0.50506 0.0
C2719 C 0.64536 0.87063 0.48023 0.0
C2720 C 0.63893 0.87946 0.48382 0.0
C2721 C 0.63332 0.87873 0.49812 0.0
C2722 C 0.63406 0.86928 0.50861 0.0
C2723 C 0.6386 0.88983 0.47281 0.0
C2724 C 0.64539 0.90528 0.47723 0.0
C2725 C 0.6325 0.88472 0.45778 0.0
C2726 C 0.62428 0.86843 0.45272 0.0
C2727 C 0.61226 0.8581 0.46062 0.0
C2728 C 0.60463 0.84274 0.45589 0.0
C2729 C 0.60885 0.83758 0.44324 0.0
C2730 C 0.62069 0.84777 0.43525 0.0
C2731 C 0.62837 0.86314 0.43993 0.0
H2732 H 0.60293 0.82569 0.4396 0.0
H2733 H 0.67254 0.97445 0.48608 0.0
H2734 H 0.07476 0.71671 0.37752 0.0
H2735 H 0.09114 0.72733 0.40054 0.0
H2736 H 0.06978 0.75263 0.41268 0.0
H2737 H 0.05362 0.74235 0.3896 0.0
H2738 H 0.09879 0.77005 0.4165 0.0
H2739 H 0.06294 0.72023 0.43007 0.0
H2740 H 0.04861 0.6924 0.42716 0.0
H2741 H 0.08893 0.69088 0.43022 0.0
H2742 H 0.10351 0.71873 0.43296 0.0
H2743 H 0.11828 0.78867 0.49446 0.0
H2744 H 0.10535 0.77793 0.46976 0.0
H2745 H 0.13323 0.75883 0.46167 0.0
H2746 H 0.14655 0.76988 0.48637 0.0
H2747 H 0.10333 0.73837 0.45472 0.0
H2748 H 0.13895 0.78851 0.44334 0.0
H2749 H 0.15284 0.8163 0.44682 0.0
H2750 H 0.11242 0.81719 0.44005 0.0
H2751 H 0.09825 0.78937 0.43675 0.0
C2752 C 0.0735 0.72448 0.38512 0.0
C2753 C 0.06287 0.72868 0.3817 0.0
C2754 C 0.08286 0.73051 0.39831 0.0
C2755 C 0.08163 0.7407 0.40841 0.0
C2756 C 0.07097 0.74482 0.40504 0.0
C2757 C 0.0617 0.73889 0.39184 0.0
C2758 C 0.09156 0.74732 0.42238 0.0
C2759 C 0.09966 0.7631 0.42492 0.0
C2760 C 0.09307 0.73829 0.43316 0.0
C2761 C 0.08432 0.72156 0.43154 0.0
C2762 C 0.06875 0.71396 0.43 0.0
C2763 C 0.06059 0.69819 0.4284 0.0
C2764 C 0.06786 0.68988 0.42846 0.0
C2765 C 0.08331 0.69733 0.43015 0.0
C2766 C 0.09153 0.71311 0.43174 0.0
C2767 C 0.12191 0.78245 0.48734 0.0
C2768 C 0.13359 0.78029 0.49236 0.0
C2769 C 0.11442 0.77623 0.47325 0.0
C2770 C 0.11843 0.76771 0.46382 0.0
C2771 C 0.12998 0.76539 0.46878 0.0
C2772 C 0.13755 0.77168 0.4829 0.0
C2773 C 0.11027 0.76105 0.44893 0.0
C2774 C 0.10255 0.74529 0.44622 0.0
C2775 C 0.10903 0.77009 0.43801 0.0
C2776 C 0.11753 0.78684 0.43991 0.0
C2777 C 0.13301 0.79462 0.44271 0.0
C2778 C 0.14094 0.81038 0.44463 0.0
C2779 C 0.13352 0.81851 0.44369 0.0
C2780 C 0.11815 0.81088 0.44079 0.0
C2781 C 0.11017 0.79512 0.43887 0.0
H2782 H 0.13967 0.83071 0.44518 0.0
H2783 H 0.06151 0.67767 0.42722 0.0
H2784 H 0.30783 0.03861 0.71678 0.0
H2785 H 0.30186 0.05112 0.73722 0.0
H2786 H 0.34795 0.08565 0.74371 0.0
H2787 H 0.35403 0.07305 0.72374 0.0
H2788 H 0.33732 0.0776 0.76988 0.0
H2789 H 0.32115 0.09105 0.72451 0.0
H2790 H 0.30692 0.08605 0.70008 0.0
H2791 H 0.2662 0.06167 0.72194 0.0
H2792 H 0.28021 0.06637 0.74648 0.0
H2793 H 0.33516 0.1373 0.80886 0.0
H2794 H 0.33629 0.12241 0.78725 0.0
H2795 H 0.29249 0.08613 0.7946 0.0
H2796 H 0.29145 0.10065 0.81666 0.0
H2797 H 0.2997 0.09314 0.76228 0.0
H2798 H 0.31664 0.08106 0.80802 0.0
H2799 H 0.33145 0.08749 0.83225 0.0
H2800 H 0.37152 0.11054 0.80909 0.0
H2801 H 0.35692 0.10447 0.78471 0.0
C2802 C 0.31668 0.04884 0.7226 0.0
C2803 C 0.3314 0.05482 0.71861 0.0
C2804 C 0.31325 0.05603 0.73422 0.0
C2805 C 0.32443 0.06944 0.74191 0.0
C2806 C 0.33912 0.07531 0.73799 0.0
C2807 C 0.34258 0.06809 0.72652 0.0
C2808 C 0.32103 0.07742 0.75411 0.0
C2809 C 0.32916 0.08108 0.76812 0.0
C2810 C 0.31015 0.08169 0.75202 0.0
C2811 C 0.30172 0.07891 0.73729 0.0
C2812 C 0.30916 0.08452 0.72408 0.0
C2813 C 0.30114 0.08176 0.71022 0.0
C2814 C 0.28567 0.07351 0.70945 0.0
C2815 C 0.27819 0.06804 0.72255 0.0
C2816 C 0.28616 0.07075 0.73644 0.0
C2817 C 0.32572 0.12618 0.80588 0.0
C2818 C 0.3133 0.12011 0.81466 0.0
C2819 C 0.32635 0.11775 0.79345 0.0
C2820 C 0.31452 0.10315 0.78945 0.0
C2821 C 0.30171 0.0974 0.79752 0.0
C2822 C 0.30113 0.10577 0.81009 0.0
C2823 C 0.3162 0.09349 0.77776 0.0
C2824 C 0.30775 0.08952 0.76396 0.0
C2825 C 0.32686 0.089 0.77996 0.0
C2826 C 0.33568 0.09243 0.79456 0.0
C2827 C 0.32861 0.08761 0.8081 0.0
C2828 C 0.33696 0.09117 0.82187 0.0
C2829 C 0.35242 0.09945 0.82222 0.0
C2830 C 0.35955 0.10414 0.8088 0.0
C2831 C 0.35124 0.10063 0.795 0.0
H2832 H 0.35887 0.1022 0.83289 0.0
H2833 H 0.27947 0.07138 0.69871 0.0
H2834 H 0.95719 0.24188 0.752 0.0
H2835 H 0.9446 0.22475 0.77188 0.0
H2836 H 0.93604 0.25793 0.79322 0.0
H2837 H 0.94839 0.27498 0.77339 0.0
H2838 H 0.94499 0.24298 0.81394 0.0
H2839 H 0.90997 0.23155 0.77094 0.0
H2840 H 0.90128 0.22453 0.74403 0.0
H2841 H 0.90244 0.18344 0.74686 0.0
H2842 H 0.91135 0.19033 0.77375 0.0
H2843 H 0.88453 0.20367 0.85859 0.0
H2844 H 0.90214 0.21918 0.8407 0.0
H2845 H 0.89821 0.17929 0.81773 0.0
H2846 H 0.87969 0.16355 0.83491 0.0
H2847 H 0.89777 0.19624 0.79779 0.0
H2848 H 0.92972 0.2056 0.84144 0.0
H2849 H 0.9388 0.21231 0.86826 0.0
H2850 H 0.94457 0.25651 0.86452 0.0
H2851 H 0.93526 0.24998 0.83775 0.0
C2852 C 0.95283 0.2456 0.76107 0.0
C2853 C 0.95368 0.25973 0.76107 0.0
C2854 C 0.94562 0.2358 0.77238 0.0
C2855 C 0.93932 0.24005 0.78396 0.0
C2856 C 0.94084 0.25444 0.7844 0.0
C2857 C 0.94783 0.26414 0.77301 0.0
C2858 C 0.93022 0.22922 0.79502 0.0
C2859 C 0.93463 0.23277 0.81047 0.0
C2860 C 0.91693 0.21572 0.79041 0.0
C2861 C 0.9115 0.21154 0.77429 0.0
C2862 C 0.90849 0.22108 0.76579 0.0
C2863 C 0.90351 0.21712 0.75055 0.0
C2864 C 0.90135 0.20357 0.74373 0.0
C2865 C 0.90414 0.19395 0.75215 0.0
C2866 C 0.90916 0.19787 0.76739 0.0
C2867 C 0.88725 0.19812 0.84965 0.0
C2868 C 0.88057 0.18228 0.84823 0.0
C2869 C 0.89757 0.20708 0.83955 0.0
C2870 C 0.90177 0.20048 0.82798 0.0
C2871 C 0.89524 0.18469 0.8266 0.0
C2872 C 0.88474 0.17569 0.83657 0.0
C2873 C 0.91239 0.21 0.8169 0.0
C2874 C 0.90824 0.20626 0.80138 0.0
C2875 C 0.92601 0.22325 0.82148 0.0
C2876 C 0.93167 0.22725 0.83759 0.0
C2877 C 0.93281 0.21671 0.84636 0.0
C2878 C 0.93801 0.22048 0.86156 0.0
C2879 C 0.94222 0.23481 0.86811 0.0
C2880 C 0.94128 0.24541 0.85945 0.0
C2881 C 0.93605 0.24168 0.84426 0.0
H2882 H 0.94625 0.23771 0.87987 0.0
H2883 H 0.89749 0.20052 0.73193 0.0
H2884 H 0.74909 0.65768 0.71721 0.0
H2885 H 0.76447 0.66219 0.74039 0.0
H2886 H 0.74909 0.6909 0.75954 0.0
H2887 H 0.73455 0.68726 0.73584 0.0
H2888 H 0.77608 0.70244 0.76818 0.0
H2889 H 0.73499 0.65157 0.76793 0.0
H2890 H 0.71829 0.62545 0.75741 0.0
H2891 H 0.75513 0.61797 0.75556 0.0
H2892 H 0.77206 0.6441 0.76592 0.0
H2893 H 0.79654 0.69888 0.84492 0.0
H2894 H 0.78354 0.69731 0.82077 0.0
H2895 H 0.8003 0.67035 0.80033 0.0
H2896 H 0.81261 0.67128 0.82474 0.0
H2897 H 0.77265 0.65822 0.7925 0.0
H2898 H 0.8136 0.70975 0.79383 0.0
H2899 H 0.82938 0.7357 0.80525 0.0
H2900 H 0.79157 0.74166 0.8062 0.0
H2901 H 0.77554 0.71569 0.79494 0.0
C2902 C 0.74908 0.66502 0.72636 0.0
C2903 C 0.74057 0.67204 0.72483 0.0
C2904 C 0.75778 0.6675 0.73966 0.0
C2905 C 0.75763 0.67652 0.75198 0.0
C2906 C 0.74937 0.68383 0.75029 0.0
C2907 C 0.74103 0.68173 0.73676 0.0
C2908 C 0.76594 0.6782 0.76663 0.0
C2909 C 0.77518 0.69274 0.77357 0.0
C2910 C 0.76501 0.6656 0.77364 0.0
C2911 C 0.7548 0.64983 0.76758 0.0
C2912 C 0.73953 0.64437 0.76521 0.0
C2913 C 0.73003 0.62956 0.75928 0.0
C2914 C 0.73565 0.62006 0.75579 0.0
C2915 C 0.75079 0.62534 0.75826 0.0
C2916 C 0.76034 0.64014 0.76418 0.0
C2917 C 0.79753 0.69278 0.83518 0.0
C2918 C 0.80559 0.68527 0.83656 0.0
C2919 C 0.79018 0.69194 0.82137 0.0
C2920 C 0.79112 0.68392 0.80859 0.0
C2921 C 0.7994 0.67661 0.80999 0.0
C2922 C 0.80647 0.67718 0.82387 0.0
C2923 C 0.78288 0.68246 0.79398 0.0
C2924 C 0.7736 0.66793 0.78707 0.0
C2925 C 0.78366 0.69505 0.78712 0.0
C2926 C 0.79336 0.71075 0.79364 0.0
C2927 C 0.80865 0.71658 0.79653 0.0
C2928 C 0.81763 0.73129 0.80297 0.0
C2929 C 0.81147 0.74031 0.80648 0.0
C2930 C 0.79632 0.73466 0.80349 0.0
C2931 C 0.78729 0.71996 0.79706 0.0
H2932 H 0.81845 0.75169 0.81148 0.0
H2933 H 0.72828 0.60861 0.75119 0.0
H2934 H 0.74539 0.67946 0.64541 0.0
H2935 H 0.75602 0.67665 0.62235 0.0
H2936 H 0.72372 0.62905 0.61794 0.0
H2937 H 0.71323 0.6317 0.64138 0.0
H2938 H 0.74991 0.6331 0.61236 0.0
H2939 H 0.72141 0.65445 0.59473 0.0
H2940 H 0.71217 0.67235 0.59453 0.0
H2941 H 0.75604 0.70877 0.58853 0.0
H2942 H 0.76559 0.69112 0.5889 0.0
H2943 H 0.77062 0.62672 0.53716 0.0
H2944 H 0.75608 0.62673 0.55819 0.0
H2945 H 0.78916 0.67283 0.57155 0.0
H2946 H 0.80402 0.67281 0.55093 0.0
H2947 H 0.7601 0.66758 0.57106 0.0
H2948 H 0.78834 0.64559 0.59056 0.0
H2949 H 0.79688 0.62712 0.59034 0.0
H2950 H 0.75202 0.59093 0.59196 0.0
H2951 H 0.74319 0.60918 0.59197 0.0
C2952 C 0.74046 0.66838 0.63952 0.0
C2953 C 0.7284 0.65581 0.64524 0.0
C2954 C 0.74652 0.66681 0.62626 0.0
C2955 C 0.74053 0.65268 0.61822 0.0
C2956 C 0.72851 0.64008 0.6239 0.0
C2957 C 0.72249 0.64162 0.63728 0.0
C2958 C 0.74718 0.65111 0.60417 0.0
C2959 C 0.75186 0.64045 0.60321 0.0
C2960 C 0.74993 0.66081 0.59226 0.0
C2961 C 0.74423 0.67147 0.59196 0.0
C2962 C 0.72911 0.66629 0.59347 0.0
C2963 C 0.72381 0.67639 0.59331 0.0
C2964 C 0.73352 0.69169 0.59155 0.0
C2965 C 0.74854 0.69691 0.5899 0.0
C2966 C 0.75389 0.68687 0.59007 0.0
C2967 C 0.7749 0.63683 0.54464 0.0
C2968 C 0.78855 0.64976 0.5423 0.0
C2969 C 0.76652 0.63682 0.55661 0.0
C2970 C 0.77157 0.64976 0.56646 0.0
C2971 C 0.78502 0.66275 0.56403 0.0
C2972 C 0.79347 0.66273 0.55215 0.0
C2973 C 0.76299 0.64978 0.57944 0.0
C2974 C 0.75796 0.66014 0.58017 0.0
C2975 C 0.75978 0.6397 0.59104 0.0
C2976 C 0.76509 0.62874 0.59108 0.0
C2977 C 0.78028 0.63368 0.59073 0.0
C2978 C 0.78518 0.62326 0.59067 0.0
C2979 C 0.77499 0.60786 0.59109 0.0
C2980 C 0.75989 0.60286 0.59161 0.0
C2981 C 0.75494 0.61324 0.59165 0.0
H2982 H 0.7788 0.5998 0.59105 0.0
H2983 H 0.7294 0.69949 0.59143 0.0
H2984 H 0.37526 0.0782 0.6543 0.0
H2985 H 0.37931 0.09484 0.63373 0.0
H2986 H 0.33808 0.06099 0.61073 0.0
H2987 H 0.33377 0.04441 0.63138 0.0
H2988 H 0.36393 0.07743 0.59156 0.0
H2989 H 0.33546 0.08522 0.62958 0.0
H2990 H 0.3312 0.09062 0.65571 0.0
H2991 H 0.37205 0.13301 0.6583 0.0
H2992 H 0.37667 0.12774 0.63223 0.0
H2993 H 0.3457 0.11852 0.54181 0.0
H2994 H 0.3462 0.10191 0.56038 0.0
H2995 H 0.37877 0.14064 0.58853 0.0
H2996 H 0.37759 0.15737 0.57048 0.0
H2997 H 0.35929 0.12222 0.60536 0.0
H2998 H 0.38751 0.11647 0.56743 0.0
H2999 H 0.39341 0.11167 0.54183 0.0
H3000 H 0.35574 0.06679 0.53925 0.0
H3001 H 0.34949 0.07138 0.56478 0.0
C3002 C 0.36719 0.07419 0.64473 0.0
C3003 C 0.35415 0.06004 0.64449 0.0
C3004 C 0.36951 0.08371 0.63302 0.0
C3005 C 0.35896 0.07913 0.62079 0.0
C3006 C 0.34636 0.06469 0.62008 0.0
C3007 C 0.34389 0.05527 0.63191 0.0
C3008 C 0.36037 0.08987 0.60944 0.0
C3009 C 0.36281 0.08718 0.59448 0.0
C3010 C 0.35933 0.10277 0.61344 0.0
C3011 C 0.35649 0.10601 0.62904 0.0
C3012 C 0.3436 0.09563 0.63577 0.0
C3013 C 0.34111 0.09867 0.65056 0.0
C3014 C 0.35137 0.11213 0.65868 0.0
C3015 C 0.36413 0.12258 0.652 0.0
C3016 C 0.36668 0.11958 0.63723 0.0
C3017 C 0.35288 0.12354 0.55201 0.0
C3018 C 0.36157 0.13933 0.55462 0.0
C3019 C 0.35333 0.11399 0.56253 0.0
C3020 C 0.36271 0.11998 0.57578 0.0
C3021 C 0.3715 0.13573 0.57837 0.0
C3022 C 0.37092 0.14529 0.56794 0.0
C3023 C 0.36281 0.10986 0.58726 0.0
C3024 C 0.36059 0.11261 0.60233 0.0
C3025 C 0.36429 0.09714 0.58336 0.0
C3026 C 0.36796 0.09432 0.56798 0.0
C3027 C 0.38041 0.10562 0.56136 0.0
C3028 C 0.38383 0.10292 0.54687 0.0
C3029 C 0.37494 0.08894 0.53892 0.0
C3030 C 0.36261 0.07762 0.54544 0.0
C3031 C 0.35913 0.08025 0.55992 0.0
H3032 H 0.37764 0.08687 0.52773 0.0
H3033 H 0.34942 0.11447 0.67012 0.0
H3034 H 0.95477 0.26329 0.67341 0.0
H3035 H 0.93946 0.25433 0.64967 0.0
H3036 H 0.91037 0.26882 0.66738 0.0
H3037 H 0.92579 0.27805 0.69123 0.0
H3038 H 0.89576 0.23853 0.65275 0.0
H3039 H 0.93179 0.2893 0.64318 0.0
H3040 H 0.95698 0.31123 0.64258 0.0
H3041 H 0.9686 0.28585 0.61194 0.0
H3042 H 0.94354 0.26369 0.61253 0.0
H3043 H 0.85679 0.22237 0.58029 0.0
H3044 H 0.86988 0.23477 0.60466 0.0
H3045 H 0.90827 0.23326 0.59071 0.0
H3046 H 0.89571 0.22187 0.56607 0.0
H3047 H 0.91695 0.25921 0.60424 0.0
H3048 H 0.88274 0.20795 0.61555 0.0
H3049 H 0.85819 0.18514 0.61652 0.0
H3050 H 0.84377 0.2102 0.64404 0.0
H3051 H 0.86819 0.23322 0.64306 0.0
C3052 C 0.94513 0.2646 0.67229 0.0
C3053 C 0.94151 0.27141 0.68421 0.0
C3054 C 0.93642 0.2595 0.6587 0.0
C3055 C 0.92385 0.26099 0.65677 0.0
C3056 C 0.92006 0.26761 0.66867 0.0
C3057 C 0.9289 0.27292 0.68225 0.0
C3058 C 0.91472 0.25552 0.64228 0.0
C3059 C 0.90025 0.2432 0.64214 0.0
C3060 C 0.92075 0.26145 0.62847 0.0
C3061 C 0.93581 0.27479 0.628 0.0
C3062 C 0.93975 0.28836 0.63641 0.0
C3063 C 0.954 0.30084 0.63605 0.0
C3064 C 0.96439 0.29993 0.62725 0.0
C3065 C 0.96054 0.28654 0.61876 0.0
C3066 C 0.94631 0.27402 0.61909 0.0
C3067 C 0.86807 0.22482 0.58234 0.0
C3068 C 0.87511 0.22096 0.57119 0.0
C3069 C 0.87549 0.23176 0.59638 0.0
C3070 C 0.89001 0.23477 0.59965 0.0
C3071 C 0.89707 0.23102 0.58851 0.0
C3072 C 0.88976 0.22429 0.57445 0.0
C3073 C 0.89803 0.2419 0.61458 0.0
C3074 C 0.91233 0.25458 0.61482 0.0
C3075 C 0.89189 0.23617 0.62847 0.0
C3076 C 0.87722 0.22234 0.62908 0.0
C3077 C 0.87429 0.20862 0.6217 0.0
C3078 C 0.86041 0.19565 0.62227 0.0
C3079 C 0.84941 0.19623 0.63029 0.0
C3080 C 0.85229 0.20977 0.6378 0.0
C3081 C 0.86615 0.22278 0.63725 0.0
H3082 H 0.83867 0.18617 0.63072 0.0
H3083 H 0.97542 0.3096 0.62699 0.0
H3084 H 0.31564 0.26845 0.6634 0.0
H3085 H 0.32059 0.25492 0.64328 0.0
H3086 H 0.36699 0.27895 0.65798 0.0
H3087 H 0.36218 0.2928 0.67802 0.0
H3088 H 0.36339 0.27647 0.62766 0.0
H3089 H 0.34436 0.24279 0.66739 0.0
H3090 H 0.3267 0.2286 0.68636 0.0
H3091 H 0.29229 0.20475 0.65113 0.0
H3092 H 0.30969 0.21895 0.63196 0.0
H3093 H 0.37897 0.22541 0.58588 0.0
H3094 H 0.37604 0.23935 0.60731 0.0
H3095 H 0.33002 0.2208 0.59293 0.0
H3096 H 0.33291 0.20728 0.57128 0.0
H3097 H 0.33475 0.22043 0.6241 0.0
H3098 H 0.35358 0.25498 0.5846 0.0
H3099 H 0.37128 0.26904 0.56563 0.0
H3100 H 0.40625 0.29109 0.60062 0.0
H3101 H 0.38879 0.27697 0.6198 0.0
C3102 C 0.32692 0.27094 0.66233 0.0
C3103 C 0.3385 0.28163 0.67241 0.0
C3104 C 0.32972 0.26314 0.65085 0.0
C3105 C 0.34412 0.26571 0.64931 0.0
C3106 C 0.35578 0.27673 0.65902 0.0
C3107 C 0.35301 0.28462 0.67047 0.0
C3108 C 0.34688 0.25667 0.63772 0.0
C3109 C 0.3573 0.26422 0.62704 0.0
C3110 C 0.33878 0.24068 0.63676 0.0
C3111 C 0.3283 0.23203 0.64825 0.0
C3112 C 0.333 0.23459 0.6637 0.0
C3113 C 0.32304 0.22654 0.67448 0.0
C3114 C 0.30837 0.2158 0.66995 0.0
C3115 C 0.30365 0.21307 0.65462 0.0
C3116 C 0.31356 0.22111 0.64379 0.0
C3117 C 0.36823 0.2243 0.58726 0.0
C3118 C 0.35618 0.21518 0.57682 0.0
C3119 C 0.36657 0.23223 0.59954 0.0
C3120 C 0.35283 0.23116 0.60163 0.0
C3121 C 0.34069 0.22171 0.59155 0.0
C3122 C 0.34236 0.2139 0.57922 0.0
C3123 C 0.35114 0.24023 0.61401 0.0
C3124 C 0.34091 0.23268 0.62483 0.0
C3125 C 0.35944 0.2562 0.61511 0.0
C3126 C 0.36992 0.26479 0.60361 0.0
C3127 C 0.36507 0.26273 0.58824 0.0
C3128 C 0.37505 0.27073 0.57745 0.0
C3129 C 0.38989 0.28092 0.58191 0.0
C3130 C 0.39476 0.28317 0.59718 0.0
C3131 C 0.38483 0.27518 0.60802 0.0
H3132 H 0.3976 0.2871 0.57353 0.0
H3133 H 0.30068 0.20958 0.67832 0.0
H3134 H 0.72976 0.05957 0.62755 0.0
H3135 H 0.74374 0.07629 0.60817 0.0
H3136 H 0.7252 0.10457 0.61885 0.0
H3137 H 0.71122 0.08793 0.63849 0.0
H3138 H 0.73659 0.08511 0.58287 0.0
H3139 H 0.75257 0.14155 0.61535 0.0
H3140 H 0.75572 0.15207 0.64167 0.0
H3141 H 0.76601 0.11908 0.65719 0.0
H3142 H 0.76312 0.1085 0.63097 0.0
H3143 H 0.77548 0.1439 0.53375 0.0
H3144 H 0.75785 0.12823 0.55177 0.0
H3145 H 0.79408 0.13817 0.58385 0.0
H3146 H 0.81173 0.15432 0.56616 0.0
H3147 H 0.77264 0.13887 0.59803 0.0
H3148 H 0.77589 0.10474 0.5613 0.0
H3149 H 0.77426 0.09312 0.53583 0.0
H3150 H 0.72835 0.08014 0.53003 0.0
H3151 H 0.72976 0.09186 0.55539 0.0
C3152 C 0.72853 0.06927 0.62574 0.0
C3153 C 0.71944 0.07245 0.63468 0.0
C3154 C 0.73651 0.0788 0.61459 0.0
C3155 C 0.73565 0.09177 0.61215 0.0
C3156 C 0.72617 0.09472 0.62066 0.0
C3157 C 0.71815 0.08516 0.63184 0.0
C3158 C 0.74518 0.10243 0.60112 0.0
C3159 C 0.74438 0.0969 0.58615 0.0
C3160 C 0.7555 0.11776 0.60543 0.0
C3161 C 0.75745 0.12413 0.62123 0.0
C3162 C 0.75554 0.13657 0.62439 0.0
C3163 C 0.75728 0.14254 0.63928 0.0
C3164 C 0.761 0.13621 0.6511 0.0
C3165 C 0.76306 0.12393 0.64804 0.0
C3166 C 0.76136 0.11794 0.63316 0.0
C3167 C 0.7797 0.14293 0.54472 0.0
C3168 C 0.79505 0.15031 0.54846 0.0
C3169 C 0.7696 0.13385 0.55496 0.0
C3170 C 0.77463 0.13185 0.56911 0.0
C3171 C 0.78992 0.13949 0.573 0.0
C3172 C 0.80001 0.1486 0.5628 0.0
C3173 C 0.76408 0.12155 0.57976 0.0
C3174 C 0.76469 0.12715 0.59467 0.0
C3175 C 0.75377 0.1062 0.57547 0.0
C3176 C 0.75297 0.09931 0.56016 0.0
C3177 C 0.76549 0.09953 0.55453 0.0
C3178 C 0.76459 0.0929 0.54013 0.0
C3179 C 0.75121 0.08592 0.53132 0.0
C3180 C 0.73871 0.08557 0.53687 0.0
C3181 C 0.73954 0.0922 0.55125 0.0
H3182 H 0.75051 0.08073 0.52022 0.0
H3183 H 0.76233 0.14084 0.66262 0.0
H3184 H 0.92783 0.68332 0.6732 0.0
H3185 H 0.91171 0.67765 0.65029 0.0
H3186 H 0.91187 0.6361 0.64134 0.0
H3187 H 0.92781 0.64152 0.66447 0.0
H3188 H 0.91797 0.65573 0.61584 0.0
H3189 H 0.88257 0.63191 0.65334 0.0
H3190 H 0.87161 0.63101 0.67773 0.0
H3191 H 0.86361 0.66654 0.66569 0.0
H3192 H 0.87474 0.66781 0.6413 0.0
H3193 H 0.86495 0.62969 0.55434 0.0
H3194 H 0.87776 0.63057 0.57812 0.0
H3195 H 0.86902 0.66454 0.59715 0.0
H3196 H 0.85504 0.66277 0.57381 0.0
H3197 H 0.86695 0.64713 0.61793 0.0
H3198 H 0.90311 0.67268 0.58178 0.0
H3199 H 0.91502 0.67541 0.55766 0.0
H3200 H 0.92296 0.63929 0.56727 0.0
H3201 H 0.91088 0.63618 0.59134 0.0
C3202 C 0.92445 0.67296 0.66637 0.0
C3203 C 0.92908 0.66285 0.67065 0.0
C3204 C 0.9152 0.66973 0.65332 0.0
C3205 C 0.91058 0.65644 0.6442 0.0
C3206 C 0.91532 0.6464 0.64829 0.0
C3207 C 0.92437 0.6495 0.6615 0.0
C3208 C 0.90089 0.65318 0.63032 0.0
C3209 C 0.90672 0.65358 0.61624 0.0
C3210 C 0.8864 0.65085 0.63094 0.0
C3211 C 0.87962 0.65005 0.64556 0.0
C3212 C 0.8786 0.63962 0.65595 0.0
C3213 C 0.87233 0.63903 0.66976 0.0
C3214 C 0.86695 0.64874 0.67327 0.0
C3215 C 0.8678 0.65904 0.66296 0.0
C3216 C 0.87407 0.65969 0.64913 0.0
C3217 C 0.86536 0.63707 0.56367 0.0
C3218 C 0.85898 0.64624 0.56201 0.0
C3219 C 0.87295 0.63775 0.57723 0.0
C3220 C 0.87474 0.64793 0.58934 0.0
C3221 C 0.86794 0.65669 0.58794 0.0
C3222 C 0.86008 0.6558 0.57448 0.0
C3223 C 0.88402 0.64977 0.60328 0.0
C3224 C 0.87815 0.64915 0.61742 0.0
C3225 C 0.89859 0.65218 0.60271 0.0
C3226 C 0.90596 0.6541 0.58829 0.0
C3227 C 0.90731 0.66525 0.5787 0.0
C3228 C 0.91409 0.66687 0.56504 0.0
C3229 C 0.91972 0.65751 0.56092 0.0
C3230 C 0.91858 0.64652 0.57047 0.0
C3231 C 0.91177 0.64483 0.58412 0.0
H3232 H 0.925 0.65879 0.55037 0.0
H3233 H 0.8621 0.64826 0.68397 0.0
H3234 H 0.92728 0.65653 0.75358 0.0
H3235 H 0.91585 0.65987 0.77579 0.0
H3236 H 0.94047 0.70816 0.77283 0.0
H3237 H 0.95188 0.70491 0.75038 0.0
H3238 H 0.92628 0.67379 0.80324 0.0
H3239 H 0.91816 0.72226 0.78388 0.0
H3240 H 0.91544 0.73275 0.76022 0.0
H3241 H 0.89736 0.68916 0.73653 0.0
H3242 H 0.8998 0.67838 0.76007 0.0
H3243 H 0.89924 0.69868 0.86413 0.0
H3244 H 0.91395 0.69912 0.84304 0.0
H3245 H 0.87442 0.67753 0.81309 0.0
H3246 H 0.85972 0.6774 0.834 0.0
H3247 H 0.89703 0.69965 0.79955 0.0
H3248 H 0.88875 0.65721 0.82766 0.0
H3249 H 0.88943 0.64451 0.85043 0.0
H3250 H 0.93683 0.67217 0.85507 0.0
H3251 H 0.9364 0.68518 0.83242 0.0
C3252 C 0.93035 0.66789 0.75765 0.0
C3253 C 0.94044 0.68045 0.7501 0.0
C3254 C 0.92383 0.66978 0.77042 0.0
C3255 C 0.92719 0.68424 0.77592 0.0
C3256 C 0.93757 0.69687 0.76868 0.0
C3257 C 0.94412 0.69499 0.75587 0.0
C3258 C 0.91942 0.68594 0.78893 0.0
C3259 C 0.91999 0.67956 0.80247 0.0
C3260 C 0.91101 0.69326 0.78788 0.0
C3261 C 0.90934 0.69957 0.7737 0.0
C3262 C 0.91357 0.71491 0.77362 0.0
C3263 C 0.91208 0.72091 0.76023 0.0
C3264 C 0.90629 0.71164 0.74687 0.0
C3265 C 0.90191 0.69634 0.74687 0.0
C3266 C 0.90336 0.69029 0.76023 0.0
C3267 C 0.89371 0.6942 0.85301 0.0
C3268 C 0.87829 0.68791 0.85077 0.0
C3269 C 0.90212 0.69436 0.841 0.0
C3270 C 0.89527 0.68822 0.82651 0.0
C3271 C 0.87994 0.6823 0.82417 0.0
C3272 C 0.87154 0.6821 0.83617 0.0
C3273 C 0.90393 0.68753 0.81386 0.0
C3274 C 0.90351 0.69409 0.8004 0.0
C3275 C 0.91224 0.68012 0.81487 0.0
C3276 C 0.91252 0.67228 0.82845 0.0
C3277 C 0.8993 0.66067 0.83361 0.0
C3278 C 0.89964 0.6534 0.84648 0.0
C3279 C 0.91316 0.65756 0.85422 0.0
C3280 C 0.92636 0.66897 0.84908 0.0
C3281 C 0.92608 0.6763 0.83622 0.0
H3282 H 0.9134 0.65191 0.86418 0.0
H3283 H 0.90515 0.71631 0.73651 0.0
H3284 H 0.29517 0.26378 0.74269 0.0
H3285 H 0.29022 0.24716 0.76343 0.0
H3286 H 0.33691 0.27021 0.77675 0.0
H3287 H 0.34192 0.28693 0.75626 0.0
H3288 H 0.29927 0.22743 0.76742 0.0
H3289 H 0.34228 0.26955 0.81437 0.0
H3290 H 0.35309 0.29624 0.82358 0.0
H3291 H 0.31465 0.29646 0.8052 0.0
H3292 H 0.30352 0.26973 0.79607 0.0
H3293 H 0.3206 0.19029 0.81895 0.0
H3294 H 0.31994 0.20747 0.80108 0.0
H3295 H 0.29731 0.22071 0.8326 0.0
H3296 H 0.29837 0.20389 0.85076 0.0
H3297 H 0.31869 0.24483 0.82072 0.0
H3298 H 0.27847 0.19723 0.80153 0.0
H3299 H 0.26581 0.17026 0.79282 0.0
H3300 H 0.29497 0.1805 0.75664 0.0
H3301 H 0.30795 0.20751 0.76526 0.0
C3302 C 0.30436 0.26546 0.75017 0.0
C3303 C 0.31895 0.27668 0.74778 0.0
C3304 C 0.30151 0.25591 0.76198 0.0
C3305 C 0.31318 0.25749 0.77171 0.0
C3306 C 0.3277 0.26891 0.76955 0.0
C3307 C 0.33055 0.27842 0.75776 0.0
C3308 C 0.3104 0.24669 0.78353 0.0
C3309 C 0.30344 0.23123 0.7791 0.0
C3310 C 0.31557 0.2516 0.79884 0.0
C3311 C 0.32212 0.26765 0.80443 0.0
C3312 C 0.3361 0.27527 0.81235 0.0
C3313 C 0.34229 0.29041 0.81755 0.0
C3314 C 0.33458 0.29805 0.81494 0.0
C3315 C 0.32064 0.29055 0.80717 0.0
C3316 C 0.3144 0.27541 0.80196 0.0
C3317 C 0.31557 0.19693 0.82213 0.0
C3318 C 0.30953 0.1957 0.83629 0.0
C3319 C 0.31506 0.20663 0.81184 0.0
C3320 C 0.3084 0.21524 0.81542 0.0
C3321 C 0.30244 0.21412 0.82957 0.0
C3322 C 0.30294 0.20441 0.83988 0.0
C3323 C 0.308 0.22564 0.80448 0.0
C3324 C 0.31439 0.24102 0.80908 0.0
C3325 C 0.30205 0.22062 0.78939 0.0
C3326 C 0.29425 0.20439 0.78412 0.0
C3327 C 0.28225 0.19372 0.79178 0.0
C3328 C 0.27501 0.17842 0.78685 0.0
C3329 C 0.2796 0.17367 0.7742 0.0
C3330 C 0.29143 0.1842 0.76644 0.0
C3331 C 0.29872 0.19951 0.77134 0.0
H3332 H 0.27398 0.16182 0.7704 0.0
H3333 H 0.33939 0.30977 0.81897 0.0
H3334 H 0.71912 0.07604 0.71955 0.0
H3335 H 0.73569 0.0862 0.74234 0.0
H3336 H 0.7551 0.05897 0.73044 0.0
H3337 H 0.73826 0.04844 0.70767 0.0
H3338 H 0.75112 0.05885 0.76006 0.0
H3339 H 0.77311 0.09669 0.7247 0.0
H3340 H 0.77391 0.11409 0.70591 0.0
H3341 H 0.76241 0.13732 0.73936 0.0
H3342 H 0.76133 0.11991 0.75831 0.0
H3343 H 0.81225 0.10134 0.81495 0.0
H3344 H 0.79817 0.09028 0.79063 0.0
H3345 H 0.77194 0.11115 0.7994 0.0
H3346 H 0.78553 0.1218 0.82383 0.0
H3347 H 0.78157 0.11445 0.77014 0.0
H3348 H 0.75805 0.07517 0.80485 0.0
H3349 H 0.75757 0.05778 0.8235 0.0
H3350 H 0.77278 0.03742 0.79077 0.0
H3351 H 0.77357 0.05487 0.77199 0.0
C3352 C 0.72688 0.07215 0.72176 0.0
C3353 C 0.72743 0.0615 0.71171 0.0
C3354 C 0.7364 0.07804 0.73478 0.0
C3355 C 0.74685 0.07358 0.73795 0.0
C3356 C 0.74718 0.06264 0.72818 0.0
C3357 C 0.73756 0.05664 0.71516 0.0
C3358 C 0.75743 0.08047 0.75144 0.0
C3359 C 0.75798 0.071 0.76212 0.0
C3360 C 0.76628 0.09633 0.75423 0.0
C3361 C 0.76703 0.10692 0.7429 0.0
C3362 C 0.77066 0.10544 0.72803 0.0
C3363 C 0.77117 0.11532 0.71735 0.0
C3364 C 0.76818 0.12679 0.72143 0.0
C3365 C 0.76471 0.12843 0.73621 0.0
C3366 C 0.76417 0.11857 0.74693 0.0
C3367 C 0.80344 0.10352 0.81175 0.0
C3368 C 0.80008 0.11251 0.82138 0.0
C3369 C 0.79545 0.09724 0.79782 0.0
C3370 C 0.784 0.09987 0.79326 0.0
C3371 C 0.78081 0.10906 0.80267 0.0
C3372 C 0.78868 0.11523 0.81661 0.0
C3373 C 0.77504 0.09285 0.77882 0.0
C3374 C 0.77483 0.1023 0.76796 0.0
C3375 C 0.7666 0.07699 0.77583 0.0
C3376 C 0.76603 0.06644 0.78708 0.0
C3377 C 0.76141 0.06707 0.80167 0.0
C3378 C 0.76106 0.05719 0.81226 0.0
C3379 C 0.76518 0.04653 0.80833 0.0
C3380 C 0.76962 0.0457 0.7938 0.0
C3381 C 0.77001 0.05558 0.78318 0.0
H3382 H 0.7649 0.03888 0.81654 0.0
H3383 H 0.76858 0.13442 0.71314 0.0
H3384 H 0.06361 0.37907 0.04885 0.0
H3385 H 0.07784 0.37085 0.06385 0.0
H3386 H 0.04782 0.32463 0.04748 0.0
H3387 H 0.03306 0.3328 0.03281 0.0
H3388 H 0.05314 0.32533 0.07625 0.0
H3389 H 0.08432 0.34556 0.03579 0.0
H3390 H 0.09856 0.36394 0.01728 0.0
H3391 H 0.12608 0.39625 0.05342 0.0
H3392 H 0.11187 0.37815 0.07217 0.0
H3393 H 0.1062 0.30557 0.10749 0.0
H3394 H 0.08984 0.30949 0.09023 0.0
H3395 H 0.1071 0.35442 0.11085 0.0
H3396 H 0.12295 0.35042 0.12866 0.0
H3397 H 0.10803 0.35179 0.07789 0.0
H3398 H 0.07458 0.3305 0.11808 0.0
H3399 H 0.06047 0.31082 0.13554 0.0
H3400 H 0.03755 0.27859 0.0978 0.0
H3401 H 0.05168 0.29804 0.08011 0.0
C3402 C 0.0601 0.36716 0.04824 0.0
C3403 C 0.04723 0.3566 0.03955 0.0
C3404 C 0.06832 0.36247 0.05681 0.0
C3405 C 0.0641 0.34712 0.05665 0.0
C3406 C 0.05135 0.33653 0.04778 0.0
C3407 C 0.04297 0.34122 0.03933 0.0
C3408 C 0.07267 0.34224 0.06632 0.0
C3409 C 0.06512 0.33094 0.07636 0.0
C3410 C 0.08834 0.34957 0.06662 0.0
C3411 C 0.09695 0.36052 0.05539 0.0
C3412 C 0.09334 0.35663 0.0398 0.0
C3413 C 0.10142 0.36699 0.02926 0.0
C3414 C 0.1132 0.38126 0.03417 0.0
C3415 C 0.11695 0.38519 0.04963 0.0
C3416 C 0.10889 0.37487 0.06022 0.0
C3417 C 0.10626 0.31616 0.10867 0.0
C3418 C 0.11602 0.32771 0.11947 0.0
C3419 C 0.09697 0.3184 0.09869 0.0
C3420 C 0.09736 0.33228 0.09922 0.0
C3421 C 0.10675 0.34368 0.11019 0.0
C3422 C 0.11586 0.34137 0.12031 0.0
C3423 C 0.08849 0.33525 0.08793 0.0
C3424 C 0.09603 0.34614 0.07758 0.0
C3425 C 0.07284 0.32734 0.08716 0.0
C3426 C 0.06431 0.31568 0.09779 0.0
C3427 C 0.06664 0.31918 0.11351 0.0
C3428 C 0.05861 0.30808 0.12344 0.0
C3429 C 0.04816 0.29345 0.11778 0.0
C3430 C 0.04567 0.28991 0.10217 0.0
C3431 C 0.05368 0.30098 0.09219 0.0
H3432 H 0.04195 0.28487 0.12549 0.0
H3433 H 0.11945 0.38927 0.02599 0.0
H3434 H 0.62838 0.67348 0.0704 0.0
H3435 H 0.63923 0.69887 0.08264 0.0
H3436 H 0.68018 0.6994 0.09252 0.0
H3437 H 0.6694 0.67392 0.0801 0.0
H3438 H 0.6694 0.70806 0.11773 0.0
H3439 H 0.68023 0.72087 0.06673 0.0
H3440 H 0.67482 0.71935 0.03921 0.0
H3441 H 0.64282 0.73311 0.04675 0.0
H3442 H 0.64788 0.7345 0.07434 0.0
H3443 H 0.70215 0.78461 0.14798 0.0
H3444 H 0.69789 0.76183 0.13343 0.0
H3445 H 0.65744 0.75658 0.11277 0.0
H3446 H 0.66202 0.77968 0.12657 0.0
H3447 H 0.67177 0.75129 0.09223 0.0
H3448 H 0.65822 0.7354 0.14258 0.0
H3449 H 0.66237 0.73617 0.17025 0.0
H3450 H 0.69806 0.72748 0.16415 0.0
H3451 H 0.69424 0.72686 0.13643 0.0
C3452 C 0.63975 0.67904 0.07504 0.0
C3453 C 0.64804 0.67171 0.07428 0.0
C3454 C 0.64594 0.69356 0.08199 0.0
C3455 C 0.66053 0.70103 0.08842 0.0
C3456 C 0.66892 0.69382 0.08759 0.0
C3457 C 0.66277 0.67932 0.08044 0.0
C3458 C 0.66665 0.71611 0.0965 0.0
C3459 C 0.67023 0.71764 0.11212 0.0
C3460 C 0.66741 0.72846 0.08921 0.0
C3461 C 0.66437 0.72769 0.07262 0.0
C3462 C 0.67196 0.72346 0.06253 0.0
C3463 C 0.66897 0.72264 0.04692 0.0
C3464 C 0.65847 0.7261 0.04124 0.0
C3465 C 0.65095 0.73042 0.05117 0.0
C3466 C 0.65389 0.73125 0.0668 0.0
C3467 C 0.69242 0.77869 0.14023 0.0
C3468 C 0.68236 0.78394 0.13857 0.0
C3469 C 0.68992 0.76557 0.13202 0.0
C3470 C 0.67724 0.75735 0.12213 0.0
C3471 C 0.66729 0.76267 0.12035 0.0
C3472 C 0.66983 0.77581 0.12843 0.0
C3473 C 0.67416 0.74318 0.11358 0.0
C3474 C 0.67116 0.74182 0.09784 0.0
C3475 C 0.67378 0.73093 0.1208 0.0
C3476 C 0.67606 0.73127 0.13745 0.0
C3477 C 0.66703 0.73378 0.14715 0.0
C3478 C 0.6693 0.73416 0.16284 0.0
C3479 C 0.6805 0.73193 0.16896 0.0
C3480 C 0.68941 0.72925 0.1594 0.0
C3481 C 0.68719 0.72887 0.1437 0.0
H3482 H 0.68225 0.73223 0.1811 0.0
H3483 H 0.65617 0.72546 0.02915 0.0
H3484 H 0.32653 0.93624 0.03178 0.0
H3485 H 0.30422 0.92468 0.04598 0.0
H3486 H 0.30805 0.96823 0.05449 0.0
H3487 H 0.33032 0.97988 0.04019 0.0
H3488 H 0.30493 0.95278 0.08061 0.0
H3489 H 0.28091 0.9432 0.03103 0.0
H3490 H 0.27562 0.93399 0.00413 0.0
H3491 H 0.26141 0.88894 0.01655 0.0
H3492 H 0.26681 0.89791 0.04353 0.0
H3493 H 0.23833 0.92474 0.11806 0.0
H3494 H 0.25751 0.93738 0.10032 0.0
H3495 H 0.25203 0.89446 0.08433 0.0
H3496 H 0.23224 0.88164 0.10139 0.0
H3497 H 0.25559 0.9107 0.06133 0.0
H3498 H 0.28101 0.91966 0.1101 0.0
H3499 H 0.28691 0.9281 0.13718 0.0
H3500 H 0.29934 0.97327 0.12667 0.0
H3501 H 0.29333 0.96505 0.09952 0.0
C3502 C 0.32251 0.94333 0.03647 0.0
C3503 C 0.33021 0.95898 0.03486 0.0
C3504 C 0.30974 0.9367 0.04456 0.0
C3505 C 0.30447 0.9456 0.05128 0.0
C3506 C 0.31193 0.96117 0.0494 0.0
C3507 C 0.32461 0.96779 0.04115 0.0
C3508 C 0.29171 0.93876 0.06099 0.0
C3509 C 0.29406 0.94376 0.07635 0.0
C3510 C 0.27767 0.9267 0.05551 0.0
C3511 C 0.27439 0.92126 0.0393 0.0
C3512 C 0.27678 0.93135 0.02802 0.0
C3513 C 0.27373 0.92617 0.01276 0.0
C3514 C 0.26821 0.9109 0.00863 0.0
C3515 C 0.2657 0.90077 0.01976 0.0
C3516 C 0.26873 0.90589 0.03504 0.0
C3517 C 0.24102 0.91793 0.11062 0.0
C3518 C 0.23376 0.90214 0.11127 0.0
C3519 C 0.25214 0.92522 0.10059 0.0
C3520 C 0.25643 0.91692 0.09115 0.0
C3521 C 0.24899 0.90114 0.09154 0.0
C3522 C 0.23778 0.89383 0.10145 0.0
C3523 C 0.26881 0.92464 0.08103 0.0
C3524 C 0.26642 0.9198 0.0656 0.0
C3525 C 0.28289 0.93672 0.08648 0.0
C3526 C 0.28656 0.94171 0.10279 0.0
C3527 C 0.2849 0.93137 0.11357 0.0
C3528 C 0.28828 0.93611 0.12893 0.0
C3529 C 0.29346 0.9512 0.13365 0.0
C3530 C 0.29531 0.96158 0.123 0.0
C3531 C 0.29192 0.95689 0.10762 0.0
H3532 H 0.29607 0.95485 0.14555 0.0
H3533 H 0.26586 0.90691 0.99681 0.0
H3534 H 0.34152 0.0158 0.01002 0.0
H3535 H 0.33113 0.03041 0.99933 0.0
H3536 H 0.37513 0.0659 0.99103 0.0
H3537 H 0.38556 0.05164 0.0021 0.0
H3538 H 0.35994 0.07802 1.00023 0.0
H3539 H 0.35098 0.03816 0.96295 0.0
H3540 H 0.34115 0.01177 0.95321 0.0
H3541 H 0.29696 0.0017 0.96133 0.0
H3542 H 0.30656 0.02801 0.97129 0.0
H3543 H 0.34919 0.11324 0.93832 0.0
H3544 H 0.35511 0.09811 0.95451 0.0
H3545 H 0.30935 0.07215 0.96496 0.0
H3546 H 0.30334 0.08763 0.94917 0.0
H3547 H 0.32246 0.05448 0.95692 0.0
H3548 H 0.33228 0.09624 0.9912 0.0
H3549 H 0.34306 0.12316 0.99938 0.0
H3550 H 0.38684 0.13013 0.99539 0.0
H3551 H 0.37632 0.10328 0.98697 0.0
C3552 C 0.34898 0.0268 0.00609 0.0
C3553 C 0.36436 0.03252 0.00684 0.0
C3554 C 0.34302 0.03511 0.99989 0.0
C3555 C 0.35232 0.04916 0.99411 0.0
C3556 C 0.36771 0.05509 0.99539 0.0
C3557 C 0.37366 0.04689 0.00171 0.0
C3558 C 0.34617 0.05756 0.98624 0.0
C3559 C 0.3518 0.07286 0.99072 0.0
C3560 C 0.33528 0.0508 0.97401 0.0
C3561 C 0.3295 0.03499 0.96803 0.0
C3562 C 0.33918 0.03029 0.96276 0.0
C3563 C 0.33365 0.01535 0.95719 0.0
C3564 C 0.31845 0.00505 0.9567 0.0
C3565 C 0.30874 0.00968 0.96175 0.0
C3566 C 0.31421 0.0246 0.96735 0.0
C3567 C 0.34038 0.10452 0.94425 0.0
C3568 C 0.32579 0.1018 0.94252 0.0
C3569 C 0.34379 0.0958 0.95343 0.0
C3570 C 0.3327 0.08411 0.96104 0.0
C3571 C 0.31808 0.08114 0.95919 0.0
C3572 C 0.31466 0.08997 0.9501 0.0
C3573 C 0.33649 0.07494 0.97074 0.0
C3574 C 0.33042 0.05953 0.96659 0.0
C3575 C 0.34712 0.08163 0.98313 0.0
C3576 C 0.3535 0.09776 0.98835 0.0
C3577 C 0.34421 0.10353 0.99196 0.0
C3578 C 0.35027 0.11878 0.99666 0.0
C3579 C 0.36563 0.12836 0.99788 0.0
C3580 C 0.37495 0.1227 0.99444 0.0
C3581 C 0.36894 0.10746 0.98972 0.0
H3582 H 0.3703 0.14016 0.00151 0.0
H3583 H 0.31418 0.9935 0.95237 0.0
H3584 H 0.94983 0.31037 0.00339 0.0
H3585 H 0.93524 0.28499 0.99101 0.0
H3586 H 0.97536 0.28526 0.98067 0.0
H3587 H 0.99014 0.31067 0.9934 0.0
H3588 H 0.9533 0.27724 0.95521 0.0
H3589 H 0.95752 0.26298 0.00492 0.0
H3590 H 0.95667 0.26363 0.03269 0.0
H3591 H 0.91035 0.24923 0.02839 0.0
H3592 H 0.91096 0.24872 1.00059 0.0
H3593 H 0.90677 0.2019 0.9224 0.0
H3594 H 0.92686 0.22368 0.93726 0.0
H3595 H 0.89477 0.22887 0.96217 0.0
H3596 H 0.87476 0.20677 0.94798 0.0
H3597 H 0.91649 0.23282 0.98081 0.0
H3598 H 0.91276 0.25113 0.93241 0.0
H3599 H 0.91271 0.2513 0.90459 0.0
H3600 H 0.95703 0.25886 0.90629 0.0
H3601 H 0.95729 0.25857 0.93414 0.0
C3602 C 0.95557 0.30496 0.99866 0.0
C3603 C 0.97112 0.31248 0.99937 0.0
C3604 C 0.94722 0.29047 0.99161 0.0
C3605 C 0.95424 0.28328 0.98496 0.0
C3606 C 0.96977 0.29064 0.98578 0.0
C3607 C 0.97816 0.30509 0.99311 0.0
C3608 C 0.94515 0.26834 0.97661 0.0
C3609 C 0.94549 0.26739 0.96081 0.0
C3610 C 0.93476 0.25566 0.98393 0.0
C3611 C 0.93432 0.25592 1.00066 0.0
C3612 C 0.94718 0.26008 0.00989 0.0
C3613 C 0.94673 0.26039 0.02564 0.0
C3614 C 0.93347 0.2565 0.0323 0.0
C3615 C 0.92062 0.25225 0.02322 0.0
C3616 C 0.921 0.25193 0.00746 0.0
C3617 C 0.904 0.20759 0.93116 0.0
C3618 C 0.88913 0.20266 0.93387 0.0
C3619 C 0.91551 0.22012 0.93956 0.0
C3620 C 0.91234 0.22805 0.95072 0.0
C3621 C 0.89751 0.22298 0.9536 0.0
C3622 C 0.88606 0.21043 0.94532 0.0
C3623 C 0.92431 0.24179 0.95932 0.0
C3624 C 0.92451 0.24254 0.97519 0.0
C3625 C 0.93505 0.25435 0.95204 0.0
C3626 C 0.93498 0.25465 0.93533 0.0
C3627 C 0.92246 0.25273 0.92684 0.0
C3628 C 0.9224 0.25286 0.91107 0.0
C3629 C 0.93484 0.25505 0.90368 0.0
C3630 C 0.9474 0.25715 0.91204 0.0
C3631 C 0.94751 0.25701 0.92781 0.0
H3632 H 0.93477 0.25516 0.89148 0.0
H3633 H 0.93315 0.25675 0.0445 0.0
H3634 H 0.67908 0.60894 0.03471 0.0
H3635 H 0.70198 0.61914 0.02163 0.0
H3636 H 0.71021 0.66433 0.03146 0.0
H3637 H 0.68722 0.6542 0.04463 0.0
H3638 H 0.70775 0.63486 0.99642 0.0
H3639 H 0.74868 0.68828 0.03382 0.0
H3640 H 0.75367 0.6976 0.06071 0.0
H3641 H 0.73405 0.65207 0.07403 0.0
H3642 H 0.72912 0.64251 0.04724 0.0
H3643 H 0.76938 0.68133 0.95493 0.0
H3644 H 0.74947 0.67442 0.97215 0.0
H3645 H 0.7696 0.65644 0.00169 0.0
H3646 H 0.78964 0.66347 0.98459 0.0
H3647 H 0.75836 0.67248 0.01752 0.0
H3648 H 0.74264 0.63293 0.97768 0.0
H3649 H 0.73804 0.62287 0.95106 0.0
H3650 H 0.70741 0.63861 0.94346 0.0
H3651 H 0.712 0.64897 0.96999 0.0
C3652 C 0.68584 0.62107 0.03431 0.0
C3653 C 0.68128 0.63075 0.04068 0.0
C3654 C 0.69891 0.62687 0.02676 0.0
C3655 C 0.70778 0.64248 0.02553 0.0
C3656 C 0.70358 0.65225 0.03236 0.0
C3657 C 0.69043 0.64644 0.03988 0.0
C3658 C 0.72093 0.64835 0.01633 0.0
C3659 C 0.7188 0.64311 1.00105 0.0
C3660 C 0.73537 0.65907 0.02236 0.0
C3661 C 0.73839 0.66469 0.03852 0.0
C3662 C 0.74547 0.68027 0.04249 0.0
C3663 C 0.74828 0.68559 0.05771 0.0
C3664 C 0.74413 0.67543 0.06907 0.0
C3665 C 0.7372 0.65993 0.06522 0.0
C3666 C 0.73437 0.65455 0.05002 0.0
C3667 C 0.76971 0.67615 0.96522 0.0
C3668 C 0.78102 0.67285 0.96837 0.0
C3669 C 0.75829 0.67215 0.97501 0.0
C3670 C 0.75801 0.66482 0.98813 0.0
C3671 C 0.76962 0.66209 0.99163 0.0
C3672 C 0.78098 0.66599 0.98179 0.0
C3673 C 0.7451 0.65904 0.99764 0.0
C3674 C 0.74728 0.66431 0.01292 0.0
C3675 C 0.73069 0.64824 0.99167 0.0
C3676 C 0.72777 0.64185 0.97577 0.0
C3677 C 0.73501 0.63434 0.9703 0.0
C3678 C 0.73239 0.62857 0.95523 0.0
C3679 C 0.72247 0.63013 0.94556 0.0
C3680 C 0.71511 0.63743 0.95095 0.0
C3681 C 0.71771 0.64324 0.96601 0.0
H3682 H 0.72046 0.62567 0.9339 0.0
H3683 H 0.74631 0.67957 0.08084 0.0
H3684 H 0.93804 0.62388 0.02075 0.0
H3685 H 0.92486 0.63255 0.00456 0.0
H3686 H 0.96314 0.67736 0.00772 0.0
H3687 H 0.97645 0.66877 0.02413 0.0
H3688 H 0.93658 0.67762 0.00846 0.0
H3689 H 0.95775 0.65485 0.9775 0.0
H3690 H 0.96316 0.63498 0.96916 0.0
H3691 H 0.91671 0.60382 0.95968 0.0
H3692 H 0.911 0.62345 0.96818 0.0
H3693 H 0.91135 0.69948 0.94313 0.0
H3694 H 0.92677 0.69419 0.96037 0.0
H3695 H 0.89135 0.64808 0.96118 0.0
H3696 H 0.87575 0.6533 0.94439 0.0
H3697 H 0.91841 0.65023 0.95783 0.0
H3698 H 0.89712 0.67246 0.9898 0.0
H3699 H 0.89147 0.69219 0.99802 0.0
H3700 H 0.93795 0.72428 0.00542 0.0
H3701 H 0.94388 0.70478 0.997 0.0
C3702 C 0.94362 0.63564 0.0182 0.0
C3703 C 0.95836 0.6456 0.02362 0.0
C3704 C 0.93608 0.64056 0.00889 0.0
C3705 C 0.94311 0.65552 0.0047 0.0
C3706 C 0.95753 0.66574 0.01076 0.0
C3707 C 0.96512 0.66081 0.02012 0.0
C3708 C 0.93563 0.66013 0.99332 0.0
C3709 C 0.93282 0.67181 0.9973 0.0
C3710 C 0.93054 0.6524 0.97882 0.0
C3711 C 0.93394 0.64059 0.9736 0.0
C3712 C 0.94868 0.64373 0.97374 0.0
C3713 C 0.9518 0.63251 0.96897 0.0
C3714 C 0.94028 0.61814 0.96393 0.0
C3715 C 0.92562 0.61496 0.96361 0.0
C3716 C 0.92243 0.62613 0.96839 0.0
C3717 C 0.90682 0.68822 0.94699 0.0
C3718 C 0.89229 0.67682 0.9423 0.0
C3719 C 0.91567 0.68522 0.95682 0.0
C3720 C 0.91016 0.67077 0.96212 0.0
C3721 C 0.89584 0.65929 0.95717 0.0
C3722 C 0.88697 0.66229 0.94745 0.0
C3723 C 0.91915 0.66755 0.97303 0.0
C3724 C 0.92228 0.65613 0.96894 0.0
C3725 C 0.92449 0.67551 0.9874 0.0
C3726 C 0.92095 0.6872 0.99261 0.0
C3727 C 0.90614 0.68375 0.99306 0.0
C3728 C 0.90288 0.69489 0.99777 0.0
C3729 C 0.91434 0.70949 0.0022 0.0
C3730 C 0.92908 0.71297 0.00196 0.0
C3731 C 0.9324 0.70188 0.99722 0.0
H3732 H 0.9118 0.71809 0.00585 0.0
H3733 H 0.94272 0.60947 0.96024 0.0
H3734 H 0.33475 0.32108 0.99247 0.0
H3735 H 0.32344 0.29578 0.97936 0.0
H3736 H 0.36458 0.30821 0.95911 0.0
H3737 H 0.37606 0.33321 0.97247 0.0
H3738 H 0.33397 0.29334 0.93912 0.0
H3739 H 0.36154 0.28906 0.98313 0.0
H3740 H 0.36715 0.29065 0.01064 0.0
H3741 H 0.32141 0.25911 0.01673 0.0
H3742 H 0.31552 0.25752 0.98926 0.0
H3743 H 0.33349 0.23052 0.90461 0.0
H3744 H 0.33834 0.25377 0.91817 0.0
H3745 H 0.30632 0.2281 0.95015 0.0
H3746 H 0.30241 0.20473 0.93745 0.0
H3747 H 0.32834 0.24902 0.9651 0.0
H3748 H 0.3005 0.24923 0.92199 0.0
H3749 H 0.29282 0.24725 0.89498 0.0
H3750 H 0.33502 0.2856 0.88731 0.0
H3751 H 0.34304 0.28768 0.91423 0.0
C3752 C 0.34137 0.31837 0.98528 0.0
C3753 C 0.3563 0.32907 0.98355 0.0
C3754 C 0.33491 0.30396 0.9778 0.0
C3755 C 0.3432 0.30023 0.96827 0.0
C3756 C 0.35802 0.31094 0.96641 0.0
C3757 C 0.36457 0.32517 0.97412 0.0
C3758 C 0.33659 0.28513 0.96025 0.0
C3759 C 0.33275 0.28361 0.94471 0.0
C3760 C 0.33449 0.2724 0.96774 0.0
C3761 C 0.33806 0.27334 0.9842 0.0
C3762 C 0.35266 0.2826 0.99037 0.0
C3763 C 0.35589 0.28347 0.00594 0.0
C3764 C 0.34463 0.27503 0.01543 0.0
C3765 C 0.33012 0.26567 0.00937 0.0
C3766 C 0.32683 0.26478 0.9938 0.0
C3767 C 0.32754 0.22974 0.9146 0.0
C3768 C 0.31762 0.21563 0.91993 0.0
C3769 C 0.33013 0.24312 0.92221 0.0
C3770 C 0.32252 0.24278 0.93509 0.0
C3771 C 0.31232 0.22872 0.94022 0.0
C3772 C 0.30995 0.21531 0.9328 0.0
C3773 C 0.32596 0.2571 0.94366 0.0
C3774 C 0.32924 0.25856 0.95938 0.0
C3775 C 0.32718 0.26969 0.93635 0.0
C3776 C 0.3224 0.26854 0.92013 0.0
C3777 C 0.30818 0.25718 0.91453 0.0
C3778 C 0.30376 0.25605 0.89923 0.0
C3779 C 0.31343 0.26628 0.88943 0.0
C3780 C 0.32754 0.27768 0.89491 0.0
C3781 C 0.33202 0.27886 0.9102 0.0
H3782 H 0.30999 0.26538 0.87759 0.0
H3783 H 0.34716 0.27571 0.02749 0.0
H3784 H 0.67758 0.02223 0.02965 0.0
H3785 H 0.70046 0.03381 0.01635 0.0
H3786 H 0.6972 0.07384 0.0123 0.0
H3787 H 0.67459 0.06251 0.02587 0.0
H3788 H 0.70412 0.04138 0.98854 0.0
H3789 H 0.73065 0.10459 0.00998 0.0
H3790 H 0.73322 0.11964 0.03352 0.0
H3791 H 0.7275 0.08302 0.05973 0.0
H3792 H 0.7251 0.06783 0.03637 0.0
H3793 H 0.75095 0.08903 0.93549 0.0
H3794 H 0.73226 0.07678 0.95378 0.0
H3795 H 0.76666 0.08811 0.98872 0.0
H3796 H 0.78548 0.10098 0.97061 0.0
H3797 H 0.74642 0.09346 0.99933 0.0
H3798 H 0.74573 0.05187 0.97268 0.0
H3799 H 0.74451 0.03598 0.95039 0.0
H3800 H 0.70098 0.0276 0.93719 0.0
H3801 H 0.70203 0.04362 0.95929 0.0
C3802 C 0.68188 0.03361 0.02617 0.0
C3803 C 0.67425 0.04144 0.02883 0.0
C3804 C 0.69494 0.04019 0.0185 0.0
C3805 C 0.70064 0.05474 0.01336 0.0
C3806 C 0.69322 0.06272 0.01636 0.0
C3807 C 0.68022 0.05618 0.02409 0.0
C3808 C 0.71373 0.0612 0.004 0.0
C3809 C 0.7134 0.05274 0.99097 0.0
C3810 C 0.72602 0.07592 0.00727 0.0
C3811 C 0.72757 0.08503 0.0214 0.0
C3812 C 0.73001 0.09977 0.02077 0.0
C3813 C 0.73142 0.10832 0.03408 0.0
C3814 C 0.73048 0.10227 0.04811 0.0
C3815 C 0.72817 0.08767 0.04885 0.0
C3816 C 0.72676 0.07908 0.03558 0.0
C3817 C 0.75457 0.08903 0.94709 0.0
C3818 C 0.76974 0.096 0.95156 0.0
C3819 C 0.74385 0.08186 0.95751 0.0
C3820 C 0.74803 0.08134 0.97261 0.0
C3821 C 0.76316 0.08831 0.97713 0.0
C3822 C 0.7739 0.09554 0.96671 0.0
C3823 C 0.73658 0.07378 0.98369 0.0
C3824 C 0.7372 0.08205 0.997 0.0
C3825 C 0.72473 0.05876 0.98087 0.0
C3826 C 0.72401 0.04904 0.96759 0.0
C3827 C 0.73594 0.04672 0.96497 0.0
C3828 C 0.73527 0.03768 0.95238 0.0
C3829 C 0.72269 0.03081 0.94236 0.0
C3830 C 0.71073 0.03294 0.94495 0.0
C3831 C 0.71134 0.04198 0.95752 0.0
H3832 H 0.72219 0.02381 0.93262 0.0
H3833 H 0.73157 0.10891 0.0584 0.0
H3834 H 0.61784 0.94602 0.05231 0.0
H3835 H 0.6273 0.93114 0.06397 0.0
H3836 H 0.67083 0.97066 0.07028 0.0
H3837 H 0.66147 0.98566 0.05837 0.0
H3838 H 0.67219 0.94519 0.06239 0.0
H3839 H 0.64885 0.96041 0.09905 0.0
H3840 H 0.62883 0.96356 0.1092 0.0
H3841 H 0.59991 0.91546 0.10599 0.0
H3842 H 0.61971 0.91203 0.09561 0.0
H3843 H 0.69756 0.91651 0.12202 0.0
H3844 H 0.691 0.93162 0.10628 0.0
H3845 H 0.6464 0.89399 0.09883 0.0
H3846 H 0.65289 0.87882 0.11441 0.0
H3847 H 0.64666 0.91955 0.10751 0.0
H3848 H 0.67062 0.9046 0.07086 0.0
H3849 H 0.6911 0.90195 0.06119 0.0
H3850 H 0.71948 0.95014 0.06516 0.0
H3851 H 0.69922 0.95306 0.07505 0.0
C3852 C 0.62948 0.95153 0.05597 0.0
C3853 C 0.63887 0.96707 0.05456 0.0
C3854 C 0.63486 0.94301 0.06268 0.0
C3855 C 0.6497 0.94985 0.06826 0.0
C3856 C 0.65932 0.96517 0.06611 0.0
C3857 C 0.65395 0.97372 0.05933 0.0
C3858 C 0.65484 0.9412 0.07716 0.0
C3859 C 0.66674 0.93973 0.07236 0.0
C3860 C 0.64763 0.93396 0.0901 0.0
C3861 C 0.63572 0.93597 0.09641 0.0
C3862 C 0.63818 0.95051 0.1004 0.0
C3863 C 0.62688 0.95234 0.10621 0.0
C3864 C 0.61309 0.93972 0.1082 0.0
C3865 C 0.61059 0.92523 0.10442 0.0
C3866 C 0.62185 0.92333 0.09859 0.0
C3867 C 0.68643 0.91138 0.11681 0.0
C3868 C 0.67573 0.89648 0.11953 0.0
C3869 C 0.68269 0.92003 0.10784 0.0
C3870 C 0.66821 0.91392 0.10133 0.0
C3871 C 0.65761 0.89897 0.10379 0.0
C3872 C 0.66133 0.89033 0.11274 0.0
C3873 C 0.66384 0.92327 0.0926 0.0
C3874 C 0.65211 0.92497 0.09752 0.0
C3875 C 0.67128 0.93077 0.07986 0.0
C3876 C 0.68345 0.92904 0.07384 0.0
C3877 C 0.68127 0.91462 0.06979 0.0
C3878 C 0.69283 0.91308 0.06424 0.0
C3879 C 0.7066 0.92587 0.0626 0.0
C3880 C 0.70882 0.94024 0.06646 0.0
C3881 C 0.6973 0.94185 0.07202 0.0
H3882 H 0.71553 0.92464 0.05831 0.0
H3883 H 0.60436 0.94116 0.11271 0.0
H3884 H 0.05493 0.68505 0.06595 0.0
H3885 H 0.07037 0.71023 0.07832 0.0
H3886 H 0.03423 0.71895 0.0729 0.0
H3887 H 0.01855 0.69355 0.06061 0.0
H3888 H 0.08037 0.73841 0.07058 0.0
H3889 H 0.03542 0.73999 0.10501 0.0
H3890 H 0.01141 0.72242 0.11504 0.0
H3891 H 0.02398 0.68853 0.11693 0.0
H3892 H 0.04811 0.70597 0.10711 0.0
H3893 H 0.11421 0.81005 0.11039 0.0
H3894 H 0.09544 0.78775 0.09517 0.0
H3895 H 0.08992 0.76029 0.13268 0.0
H3896 H 0.10819 0.78268 0.14822 0.0
H3897 H 0.06378 0.75115 0.11791 0.0
H3898 H 0.11274 0.76316 0.10465 0.0
H3899 H 0.13777 0.78 0.09634 0.0
H3900 H 0.11893 0.78467 0.05452 0.0
H3901 H 0.09377 0.76803 0.06269 0.0
C3902 C 0.05028 0.69235 0.06723 0.0
C3903 C 0.03546 0.68724 0.06239 0.0
C3904 C 0.05916 0.70679 0.07426 0.0
C3905 C 0.05342 0.71642 0.07669 0.0
C3906 C 0.03882 0.71162 0.07131 0.0
C3907 C 0.02991 0.69714 0.06423 0.0
C3908 C 0.06259 0.73111 0.08557 0.0
C3909 C 0.07667 0.74126 0.08084 0.0
C3910 C 0.05788 0.73476 0.09909 0.0
C3911 C 0.04347 0.72422 0.10514 0.0
C3912 C 0.03306 0.7288 0.1076 0.0
C3913 C 0.01943 0.71886 0.11324 0.0
C3914 C 0.01615 0.70435 0.11656 0.0
C3915 C 0.02651 0.69976 0.1143 0.0
C3916 C 0.04015 0.70965 0.10867 0.0
C3917 C 0.10875 0.79935 0.11555 0.0
C3918 C 0.1128 0.79815 0.13052 0.0
C3919 C 0.09812 0.78657 0.10677 0.0
C3920 C 0.09145 0.77231 0.1127 0.0
C3921 C 0.09496 0.77117 0.12784 0.0
C3922 C 0.10553 0.78396 0.13666 0.0
C3923 C 0.08155 0.75843 0.10292 0.0
C3924 C 0.06735 0.74843 0.10749 0.0
C3925 C 0.08627 0.75476 0.08942 0.0
C3926 C 0.10138 0.76448 0.08434 0.0
C3927 C 0.11394 0.76784 0.09372 0.0
C3928 C 0.12815 0.77735 0.08903 0.0
C3929 C 0.12994 0.78344 0.07493 0.0
C3930 C 0.11752 0.77997 0.06545 0.0
C3931 C 0.10329 0.77049 0.0701 0.0
H3932 H 0.14095 0.79081 0.07133 0.0
H3933 H 0.00559 0.69667 0.12092 0.0
H3934 H 0.32424 0.39067 0.02337 0.0
H3935 H 0.30208 0.38113 0.03762 0.0
H3936 H 0.29782 0.33703 0.03587 0.0
H3937 H 0.31993 0.34645 0.02134 0.0
H3938 H 0.27071 0.33505 0.03308 0.0
H3939 H 0.31435 0.3607 0.06667 0.0
H3940 H 0.3388 0.3818 0.07616 0.0
H3941 H 0.32017 0.4105 0.08235 0.0
H3942 H 0.29564 0.38961 0.07269 0.0
H3943 H 0.22606 0.31019 0.09716 0.0
H3944 H 0.24518 0.31672 0.079 0.0
H3945 H 0.2527 0.36213 0.07979 0.0
H3946 H 0.23366 0.35568 0.09788 0.0
H3947 H 0.27818 0.36236 0.08308 0.0
H3948 H 0.23427 0.33631 0.04942 0.0
H3949 H 0.2099 0.3149 0.04021 0.0
H3950 H 0.22897 0.28655 0.03464 0.0
H3951 H 0.25344 0.30775 0.04403 0.0
C3952 C 0.31848 0.37888 0.02579 0.0
C3953 C 0.32395 0.36936 0.02135 0.0
C3954 C 0.30583 0.37345 0.03399 0.0
C3955 C 0.29848 0.35845 0.03809 0.0
C3956 C 0.30337 0.34867 0.03291 0.0
C3957 C 0.31601 0.35408 0.02461 0.0
C3958 C 0.28634 0.35334 0.0486 0.0
C3959 C 0.27237 0.3409 0.04409 0.0
C3960 C 0.28846 0.36106 0.06291 0.0
C3961 C 0.30319 0.37363 0.06882 0.0
C3962 C 0.31549 0.37154 0.06995 0.0
C3963 C 0.32936 0.38346 0.07537 0.0
C3964 C 0.33105 0.3975 0.07982 0.0
C3965 C 0.31885 0.39963 0.07889 0.0
C3966 C 0.30496 0.38775 0.07344 0.0
C3967 C 0.23167 0.32151 0.09331 0.0
C3968 C 0.2284 0.33244 0.09903 0.0
C3969 C 0.24259 0.32523 0.08293 0.0
C3970 C 0.25033 0.3399 0.07796 0.0
C3971 C 0.24693 0.35075 0.08351 0.0
C3972 C 0.23608 0.34707 0.09389 0.0
C3973 C 0.26242 0.34423 0.06748 0.0
C3974 C 0.27646 0.35651 0.07206 0.0
C3975 C 0.26034 0.3363 0.0533 0.0
C3976 C 0.24566 0.32358 0.04757 0.0
C3977 C 0.23325 0.32548 0.04635 0.0
C3978 C 0.21942 0.31339 0.04107 0.0
C3979 C 0.21788 0.29936 0.03688 0.0
C3980 C 0.23018 0.29741 0.03791 0.0
C3981 C 0.24403 0.30947 0.0432 0.0
H3982 H 0.20716 0.29002 0.0328 0.0
H3983 H 0.34179 0.40671 0.08402 0.0
H3984 H 0.72628 0.71463 0.38724 0.0
H3985 H 0.74031 0.70557 0.40131 0.0
H3986 H 0.70979 0.65999 0.38346 0.0
H3987 H 0.69531 0.669 0.36958 0.0
H3988 H 0.71568 0.6601 0.41263 0.0
H3989 H 0.74524 0.6802 0.37103 0.0
H3990 H 0.75892 0.69867 0.35238 0.0
H3991 H 0.78815 0.73036 0.3881 0.0
H3992 H 0.77452 0.71215 0.40699 0.0
H3993 H 0.76856 0.63875 0.44081 0.0
H3994 H 0.75177 0.64298 0.42453 0.0
H3995 H 0.77117 0.68842 0.44456 0.0
H3996 H 0.78752 0.68415 0.46133 0.0
H3997 H 0.77039 0.68553 0.41188 0.0
H3998 H 0.73861 0.66476 0.45337 0.0
H3999 H 0.72494 0.64524 0.47112 0.0
H4000 H 0.70002 0.61318 0.43381 0.0
H4001 H 0.71371 0.63248 0.41582 0.0
C4002 C 0.72258 0.70268 0.38616 0.0
C4003 C 0.7097 0.69255 0.3772 0.0
C4004 C 0.73068 0.69751 0.39418 0.0
C4005 C 0.72628 0.68211 0.39328 0.0
C4006 C 0.71344 0.67193 0.3843 0.0
C4007 C 0.70522 0.6771 0.37632 0.0
C4008 C 0.73492 0.67679 0.40216 0.0
C4009 C 0.72761 0.66546 0.41223 0.0
C4010 C 0.75052 0.68382 0.40176 0.0
C4011 C 0.75878 0.69483 0.39044 0.0
C4012 C 0.75452 0.69114 0.37492 0.0
C4013 C 0.76228 0.70156 0.36431 0.0
C4014 C 0.77438 0.71569 0.36906 0.0
C4015 C 0.77877 0.71941 0.38444 0.0
C4016 C 0.77105 0.70904 0.3951 0.0
C4017 C 0.76903 0.64953 0.44205 0.0
C4018 C 0.77952 0.66115 0.45235 0.0
C4019 C 0.75948 0.65195 0.43264 0.0
C4020 C 0.76032 0.66604 0.43329 0.0
C4021 C 0.77045 0.6775 0.44381 0.0
C4022 C 0.77985 0.67505 0.45333 0.0
C4023 C 0.75118 0.6692 0.42255 0.0
C4024 C 0.75844 0.68008 0.41211 0.0
C4025 C 0.73556 0.66158 0.42245 0.0
C4026 C 0.72731 0.65001 0.43325 0.0
C4027 C 0.73032 0.65351 0.44895 0.0
C4028 C 0.72255 0.64249 0.45905 0.0
C4029 C 0.71165 0.62796 0.45359 0.0
C4030 C 0.70848 0.62443 0.43802 0.0
C4031 C 0.71624 0.63541 0.42787 0.0
H4032 H 0.70564 0.61945 0.46143 0.0
H4033 H 0.78037 0.72374 0.36082 0.0
H4034 H 0.29009 0.99852 0.41986 0.0
H4035 H 0.29984 0.02389 0.43148 0.0
H4036 H 0.34389 0.03545 0.41993 0.0
H4037 H 0.33418 0.00974 0.40847 0.0
H4038 H 0.34427 0.04613 0.44834 0.0
H4039 H 0.32457 0.04849 0.39999 0.0
H4040 H 0.30609 0.04035 0.37841 0.0
H4041 H 0.27602 0.04487 0.407 0.0
H4042 H 0.29423 0.05284 0.42881 0.0
H4043 H 0.36826 0.12557 0.4644 0.0
H4044 H 0.36306 0.10143 0.45208 0.0
H4045 H 0.31831 0.0804 0.46602 0.0
H4046 H 0.32352 0.1042 0.47889 0.0
H4047 H 0.32089 0.07614 0.43442 0.0
H4048 H 0.34041 0.07205 0.48307 0.0
H4049 H 0.35925 0.08057 0.50433 0.0
H4050 H 0.39043 0.08012 0.47432 0.0
H4051 H 0.37181 0.07179 0.45282 0.0
C4052 C 0.30186 0.00644 0.41969 0.0
C4053 C 0.31134 0.00213 0.41313 0.0
C4054 C 0.30742 0.02099 0.42632 0.0
C4055 C 0.32257 0.03168 0.42637 0.0
C4056 C 0.33214 0.0274 0.41996 0.0
C4057 C 0.32657 0.01274 0.41337 0.0
C4058 C 0.32823 0.0472 0.43328 0.0
C4059 C 0.33936 0.05282 0.44509 0.0
C4060 C 0.32172 0.05589 0.42917 0.0
C4061 C 0.31074 0.05116 0.41606 0.0
C4062 C 0.31398 0.04765 0.4017 0.0
C4063 C 0.30356 0.04308 0.38942 0.0
C4064 C 0.28988 0.04207 0.39134 0.0
C4065 C 0.28661 0.04566 0.40553 0.0
C4066 C 0.29699 0.05022 0.41785 0.0
C4067 C 0.3574 0.11575 0.46514 0.0
C4068 C 0.34627 0.11691 0.47255 0.0
C4069 C 0.35444 0.10199 0.45801 0.0
C4070 C 0.34028 0.08919 0.45808 0.0
C4071 C 0.32927 0.0902 0.46573 0.0
C4072 C 0.33226 0.10386 0.47301 0.0
C4073 C 0.33663 0.07484 0.44965 0.0
C4074 C 0.3259 0.0695 0.43752 0.0
C4075 C 0.34359 0.06651 0.45339 0.0
C4076 C 0.35478 0.07148 0.4663 0.0
C4077 C 0.35133 0.07391 0.48097 0.0
C4078 C 0.36196 0.07868 0.49308 0.0
C4079 C 0.37605 0.08094 0.49067 0.0
C4080 C 0.37952 0.07839 0.47616 0.0
C4081 C 0.36893 0.07364 0.46401 0.0
H4082 H 0.38428 0.08463 0.50005 0.0
H4083 H 0.28183 0.03853 0.38182 0.0
H4084 H 0.99591 0.30772 0.3638 0.0
H4085 H 0.97297 0.29521 0.37699 0.0
H4086 H 0.98247 0.2603 0.38836 0.0
H4087 H 0.00502 0.27239 0.37478 0.0
H4088 H 0.95445 0.24795 0.38178 0.0
H4089 H 0.9899 0.29126 0.41373 0.0
H4090 H 0.00763 0.31826 0.42016 0.0
H4091 H 0.97314 0.32871 0.4119 0.0
H4092 H 0.95523 0.30176 0.40523 0.0
H4093 H 0.91559 0.22159 0.44786 0.0
H4094 H 0.93499 0.23416 0.43036 0.0
H4095 H 0.91517 0.26005 0.41605 0.0
H4096 H 0.89531 0.24712 0.43315 0.0
H4097 H 0.9465 0.27737 0.42249 0.0
H4098 H 0.91058 0.23252 0.39311 0.0
H4099 H 0.89354 0.20512 0.38832 0.0
H4100 H 0.93005 0.19724 0.39352 0.0
H4101 H 0.94729 0.22458 0.39857 0.0
C4102 C 0.993 0.29727 0.36895 0.0
C4103 C 0.00233 0.29109 0.36828 0.0
C4104 C 0.97993 0.29019 0.37659 0.0
C4105 C 0.97609 0.27694 0.38396 0.0
C4106 C 0.98516 0.2705 0.38282 0.0
C4107 C 0.99809 0.27746 0.37504 0.0
C4108 C 0.96294 0.26994 0.39324 0.0
C4109 C 0.95281 0.2544 0.39074 0.0
C4110 C 0.96054 0.27834 0.40478 0.0
C4111 C 0.97128 0.29453 0.40881 0.0
C4112 C 0.98613 0.29933 0.41317 0.0
C4113 C 0.9962 0.31462 0.41688 0.0
C4114 C 0.99153 0.3252 0.41639 0.0
C4115 C 0.97675 0.3205 0.41224 0.0
C4116 C 0.96663 0.30523 0.4085 0.0
C4117 C 0.91516 0.22977 0.44085 0.0
C4118 C 0.90373 0.2332 0.44187 0.0
C4119 C 0.92635 0.23703 0.43091 0.0
C4120 C 0.92645 0.24794 0.42182 0.0
C4121 C 0.91529 0.25166 0.42299 0.0
C4122 C 0.90398 0.24429 0.43283 0.0
C4123 C 0.93826 0.25542 0.41114 0.0
C4124 C 0.94811 0.27101 0.4134 0.0
C4125 C 0.94053 0.24703 0.39953 0.0
C4126 C 0.93021 0.2306 0.39633 0.0
C4127 C 0.91496 0.22494 0.39334 0.0
C4128 C 0.90527 0.20942 0.39056 0.0
C4129 C 0.91071 0.19945 0.39065 0.0
C4130 C 0.92586 0.20498 0.39347 0.0
C4131 C 0.93559 0.22049 0.39627 0.0
H4132 H 0.90318 0.18744 0.3885 0.0
H4133 H 0.99934 0.33703 0.41927 0.0
H4134 H 0.05899 0.38786 0.34069 0.0
H4135 H 0.04926 0.40283 0.32974 0.0
H4136 H 0.0056 0.36339 0.32443 0.0
H4137 H 0.01529 0.34826 0.33542 0.0
H4138 H 0.01422 0.37842 0.29827 0.0
H4139 H 0.01229 0.39098 0.35039 0.0
H4140 H 0.0219 0.39941 0.37691 0.0
H4141 H 0.05539 0.44227 0.36299 0.0
H4142 H 0.04611 0.43402 0.33635 0.0
H4143 H 0.98283 0.42065 0.27035 0.0
H4144 H 0.9877 0.40443 0.28606 0.0
H4145 H 0.03192 0.44136 0.29796 0.0
H4146 H 0.02689 0.45786 0.28289 0.0
H4147 H 0.02053 0.42615 0.32196 0.0
H4148 H 0.02469 0.41328 0.27026 0.0
H4149 H 0.01618 0.40533 0.24342 0.0
H4150 H 0.97986 0.36358 0.25616 0.0
H4151 H 0.98804 0.37139 0.28311 0.0
C4152 C 0.04727 0.38239 0.33739 0.0
C4153 C 0.03791 0.36686 0.33891 0.0
C4154 C 0.04171 0.39098 0.33117 0.0
C4155 C 0.02669 0.38425 0.32633 0.0
C4156 C 0.01723 0.36881 0.32812 0.0
C4157 C 0.02277 0.36021 0.33446 0.0
C4158 C 0.02117 0.39319 0.31857 0.0
C4159 C 0.0153 0.38869 0.30355 0.0
C4160 C 0.02298 0.40681 0.32533 0.0
C4161 C 0.02857 0.41183 0.34135 0.0
C4162 C 0.02177 0.40216 0.35297 0.0
C4163 C 0.02715 0.40692 0.36803 0.0
C4164 C 0.03927 0.42136 0.37163 0.0
C4165 C 0.04601 0.43108 0.36018 0.0
C4166 C 0.04069 0.42638 0.3451 0.0
C4167 C 0.99351 0.42542 0.27651 0.0
C4168 C 0.0045 0.44057 0.27527 0.0
C4169 C 0.99633 0.41606 0.28537 0.0
C4170 C 0.01026 0.42159 0.29301 0.0
C4171 C 0.02111 0.43681 0.29213 0.0
C4172 C 0.01826 0.44619 0.28336 0.0
C4173 C 0.01373 0.41148 0.3016 0.0
C4174 C 0.01926 0.41578 0.31674 0.0
C4175 C 0.01176 0.39775 0.29491 0.0
C4176 C 0.00688 0.39299 0.27871 0.0
C4177 C 0.01482 0.40246 0.26734 0.0
C4178 C 0.01007 0.39797 0.25211 0.0
C4179 C 0.99746 0.38398 0.24809 0.0
C4180 C 0.98961 0.37443 0.25929 0.0
C4181 C 0.9943 0.37887 0.27455 0.0
H4182 H 0.9938 0.38052 0.23629 0.0
H4183 H 0.04341 0.42502 0.3833 0.0
H4184 H 0.64686 0.64354 0.33815 0.0
H4185 H 0.631 0.61814 0.32589 0.0
H4186 H 0.60018 0.63146 0.30946 0.0
H4187 H 0.61568 0.65655 0.32186 0.0
H4188 H 0.58561 0.60446 0.31956 0.0
H4189 H 0.62597 0.62966 0.28687 0.0
H4190 H 0.65215 0.64304 0.28066 0.0
H4191 H 0.65639 0.60528 0.293 0.0
H4192 H 0.63026 0.59175 0.29948 0.0
H4193 H 0.54658 0.55645 0.25568 0.0
H4194 H 0.56533 0.57866 0.27097 0.0
H4195 H 0.58276 0.55228 0.2899 0.0
H4196 H 0.56361 0.52973 0.27506 0.0
H4197 H 0.60487 0.58329 0.28108 0.0
H4198 H 0.5631 0.5572 0.31114 0.0
H4199 H 0.5365 0.544 0.31569 0.0
H4200 H 0.53476 0.58399 0.30713 0.0
H4201 H 0.5613 0.59736 0.30225 0.0
C4202 C 0.63665 0.64099 0.33201 0.0
C4203 C 0.63255 0.65208 0.33096 0.0
C4204 C 0.62764 0.62651 0.32494 0.0
C4205 C 0.61446 0.62293 0.31661 0.0
C4206 C 0.61026 0.63392 0.31583 0.0
C4207 C 0.61919 0.64831 0.32292 0.0
C4208 C 0.60498 0.60787 0.30848 0.0
C4209 C 0.58985 0.59989 0.31112 0.0
C4210 C 0.61053 0.60166 0.29771 0.0
C4211 C 0.62623 0.60978 0.29384 0.0
C4212 C 0.63252 0.62427 0.28838 0.0
C4213 C 0.64734 0.63187 0.28479 0.0
C4214 C 0.65594 0.62504 0.28648 0.0
C4215 C 0.64972 0.61057 0.29173 0.0
C4216 C 0.63491 0.60293 0.29536 0.0
C4217 C 0.55435 0.5553 0.2631 0.0
C4218 C 0.55341 0.54122 0.26429 0.0
C4219 C 0.56513 0.56805 0.27174 0.0
C4220 C 0.57531 0.56704 0.28164 0.0
C4221 C 0.57499 0.55325 0.28229 0.0
C4222 C 0.56406 0.5404 0.27375 0.0
C4223 C 0.58555 0.58024 0.29194 0.0
C4224 C 0.60075 0.5878 0.28971 0.0
C4225 C 0.58008 0.58616 0.30303 0.0
C4226 C 0.56417 0.57825 0.30622 0.0
C4227 C 0.55702 0.56315 0.31012 0.0
C4228 C 0.54195 0.55564 0.31277 0.0
C4229 C 0.53394 0.56314 0.31167 0.0
C4230 C 0.54098 0.57819 0.30796 0.0
C4231 C 0.55604 0.58574 0.30527 0.0
H4232 H 0.52227 0.55731 0.31372 0.0
H4233 H 0.66741 0.63093 0.28369 0.0
H4234 H 0.35565 0.97961 0.38149 0.0
H4235 H 0.37805 0.98762 0.36771 0.0
H4236 H 0.35994 0.94214 0.34804 0.0
H4237 H 0.33793 0.934 0.36217 0.0
H4238 H 0.38782 0.95323 0.35403 0.0
H4239 H 0.35853 0.97139 0.32917 0.0
H4240 H 0.34528 0.98558 0.3275 0.0
H4241 H 0.3856 0.0269 0.34074 0.0
H4242 H 0.39906 0.01291 0.34267 0.0
H4243 H 0.4247 0.96448 0.28618 0.0
H4244 H 0.40634 0.95913 0.30483 0.0
H4245 H 0.43255 0.00462 0.32487 0.0
H4246 H 0.45119 0.01001 0.30643 0.0
H4247 H 0.40277 0.99551 0.32065 0.0
H4248 H 0.43228 0.97651 0.34256 0.0
H4249 H 0.44481 0.96155 0.34267 0.0
H4250 H 0.40297 0.92076 0.33332 0.0
H4251 H 0.39022 0.93549 0.33294 0.0
C4252 C 0.35656 0.97129 0.37439 0.0
C4253 C 0.34497 0.95618 0.37288 0.0
C4254 C 0.36933 0.9759 0.36642 0.0
C4255 C 0.3706 0.96556 0.35655 0.0
C4256 C 0.35927 0.95037 0.35552 0.0
C4257 C 0.34664 0.94572 0.36362 0.0
C4258 C 0.3834 0.97048 0.34685 0.0
C4259 C 0.391 0.96241 0.34667 0.0
C4260 C 0.38782 0.98267 0.33742 0.0
C4261 C 0.37976 0.99109 0.33624 0.0
C4262 C 0.36454 0.98349 0.33183 0.0
C4263 C 0.357 0.99149 0.33082 0.0
C4264 C 0.36458 0.00712 0.33406 0.0
C4265 C 0.37974 0.01479 0.33827 0.0
C4266 C 0.38733 0.00683 0.33932 0.0
C4267 C 0.4267 0.97332 0.29466 0.0
C4268 C 0.43951 0.98766 0.29483 0.0
C4269 C 0.41615 0.97024 0.30529 0.0
C4270 C 0.41815 0.98143 0.31635 0.0
C4271 C 0.43079 0.99582 0.31644 0.0
C4272 C 0.4414 0.9989 0.30584 0.0
C4273 C 0.40693 0.97807 0.32767 0.0
C4274 C 0.39967 0.98644 0.32815 0.0
C4275 C 0.40268 0.96603 0.33722 0.0
C4276 C 0.41031 0.95712 0.33762 0.0
C4277 C 0.42576 0.96436 0.34043 0.0
C4278 C 0.4329 0.95592 0.34055 0.0
C4279 C 0.4247 0.94022 0.33797 0.0
C4280 C 0.40932 0.93292 0.33531 0.0
C4281 C 0.40213 0.94131 0.33516 0.0
H4282 H 0.43024 0.9337 0.33807 0.0
H4283 H 0.35872 0.0133 0.33327 0.0
H4284 H 0.60515 0.94833 0.34862 0.0
H4285 H 0.5911 0.95572 0.33208 0.0
H4286 H 0.62618 0.0022 0.33817 0.0
H4287 H 0.64039 0.99489 0.3549 0.0
H4288 H 0.59787 0.99891 0.33815 0.0
H4289 H 0.62446 0.98244 0.30717 0.0
H4290 H 0.63295 0.96512 0.29827 0.0
H4291 H 0.588 0.93069 0.28594 0.0
H4292 H 0.57921 0.94774 0.29499 0.0
H4293 H 0.57202 0.02077 0.27354 0.0
H4294 H 0.58808 0.01632 0.29072 0.0
H4295 H 0.55556 0.96886 0.28845 0.0
H4296 H 0.53924 0.97321 0.27175 0.0
H4297 H 0.58426 0.97434 0.28608 0.0
H4298 H 0.5575 0.99 0.31799 0.0
H4299 H 0.54858 0.00698 0.32683 0.0
H4300 H 0.59343 0.0426 0.33734 0.0
H4301 H 0.60263 0.02589 0.32832 0.0
C4302 C 0.60985 0.96017 0.34662 0.0
C4303 C 0.62397 0.97101 0.35299 0.0
C4304 C 0.6018 0.96436 0.33711 0.0
C4305 C 0.60771 0.97947 0.33368 0.0
C4306 C 0.62146 0.99047 0.34061 0.0
C4307 C 0.62957 0.98627 0.35016 0.0
C4308 C 0.59974 0.98352 0.32232 0.0
C4309 C 0.59511 0.99374 0.32669 0.0
C4310 C 0.59591 0.97658 0.30743 0.0
C4311 C 0.60117 0.96633 0.30188 0.0
C4312 C 0.61637 0.97113 0.30267 0.0
C4313 C 0.62124 0.96137 0.29758 0.0
C4314 C 0.61102 0.9468 0.29158 0.0
C4315 C 0.5959 0.94198 0.29061 0.0
C4316 C 0.59097 0.95169 0.2957 0.0
C4317 C 0.56825 0.00938 0.27672 0.0
C4318 C 0.55429 0.99736 0.27123 0.0
C4319 C 0.57747 0.00686 0.2865 0.0
C4320 C 0.57295 0.99228 0.29093 0.0
C4321 C 0.55928 0.98019 0.28512 0.0
C4322 C 0.55 0.98271 0.27546 0.0
C4323 C 0.58226 0.98959 0.30195 0.0
C4324 C 0.58714 0.97962 0.29749 0.0
C4325 C 0.58626 0.99673 0.31674 0.0
C4326 C 0.58076 0.00675 0.32232 0.0
C4327 C 0.56547 0.0015 0.32207 0.0
C4328 C 0.56036 0.01106 0.32713 0.0
C4329 C 0.57043 0.02587 0.3326 0.0
C4330 C 0.58564 0.03113 0.33307 0.0
C4331 C 0.59081 0.02162 0.32799 0.0
H4332 H 0.56646 0.03326 0.33652 0.0
H4333 H 0.61481 0.93926 0.28764 0.0
H4334 H 0.04992 0.66674 0.32185 0.0
H4335 H 0.04162 0.64267 0.30772 0.0
H4336 H 0.99678 0.63417 0.30517 0.0
H4337 H 0.005 0.65831 0.31959 0.0
H4338 H 0.99786 0.6085 0.31026 0.0
H4339 H 0.01707 0.64693 0.27525 0.0
H4340 H 0.03518 0.67112 0.26546 0.0
H4341 H 0.06724 0.65665 0.26434 0.0
H4342 H 0.04939 0.63245 0.27434 0.0
H4343 H 0.97689 0.55045 0.25052 0.0
H4344 H 0.98123 0.57351 0.26462 0.0
H4345 H 0.02727 0.5871 0.27291 0.0
H4346 H 0.02299 0.56398 0.25928 0.0
H4347 H 0.02326 0.61025 0.26346 0.0
H4348 H 0.00422 0.57243 0.30014 0.0
H4349 H 0.98585 0.54821 0.30968 0.0
H4350 H 0.95296 0.56156 0.30703 0.0
H4351 H 0.97109 0.58578 0.29725 0.0
C4352 C 0.03825 0.65971 0.31844 0.0
C4353 C 0.02814 0.66451 0.32173 0.0
C4354 C 0.03354 0.64597 0.31029 0.0
C4355 C 0.01864 0.63678 0.30512 0.0
C4356 C 0.00835 0.64115 0.30898 0.0
C4357 C 0.01306 0.65494 0.31721 0.0
C4358 C 0.01407 0.62291 0.29524 0.0
C4359 C 0.00322 0.6089 0.29989 0.0
C4360 C 0.02116 0.62341 0.28177 0.0
C4361 C 0.03192 0.63792 0.27566 0.0
C4362 C 0.02802 0.64895 0.27302 0.0
C4363 C 0.03824 0.66265 0.26742 0.0
C4364 C 0.05236 0.66543 0.26431 0.0
C4365 C 0.05629 0.65448 0.26676 0.0
C4366 C 0.04613 0.64077 0.27239 0.0
C4367 C 0.98792 0.55829 0.25543 0.0
C4368 C 0.99959 0.55533 0.25372 0.0
C4369 C 0.99038 0.57148 0.26344 0.0
C4370 C 0.00456 0.58197 0.26986 0.0
C4371 C 0.01626 0.57918 0.26798 0.0
C4372 C 0.0138 0.56598 0.26008 0.0
C4373 C 0.00731 0.59585 0.27866 0.0
C4374 C 0.0178 0.60987 0.27376 0.0
C4375 C 0.99983 0.59534 0.29182 0.0
C4376 C 0.98896 0.58084 0.2978 0.0
C4377 C 0.99303 0.57014 0.30147 0.0
C4378 C 0.98267 0.55643 0.30694 0.0
C4379 C 0.96823 0.55333 0.30892 0.0
C4380 C 0.96414 0.56396 0.30547 0.0
C4381 C 0.97445 0.57769 0.29997 0.0
H4382 H 0.96023 0.54271 0.31316 0.0
H4383 H 0.06026 0.67605 0.25997 0.0
H4384 H 0.33723 0.39935 0.35871 0.0
H4385 H 0.359 0.41078 0.34382 0.0
H4386 H 0.36288 0.37099 0.3462 0.0
H4387 H 0.34109 0.35944 0.36122 0.0
H4388 H 0.39023 0.39731 0.34907 0.0
H4389 H 0.34692 0.37464 0.31529 0.0
H4390 H 0.32233 0.36918 0.30518 0.0
H4391 H 0.3399 0.41605 0.29763 0.0
H4392 H 0.36457 0.42183 0.30789 0.0
H4393 H 0.43549 0.41348 0.28538 0.0
H4394 H 0.41591 0.40139 0.30297 0.0
H4395 H 0.40855 0.43917 0.30266 0.0
H4396 H 0.42821 0.45141 0.28533 0.0
H4397 H 0.38278 0.41233 0.29847 0.0
H4398 H 0.42642 0.43467 0.33275 0.0
H4399 H 0.45089 0.43935 0.34233 0.0
H4400 H 0.43251 0.39206 0.34825 0.0
H4401 H 0.40796 0.38706 0.33849 0.0
C4402 C 0.34282 0.39309 0.35627 0.0
C4403 C 0.33734 0.37843 0.36106 0.0
C4404 C 0.35523 0.39963 0.34769 0.0
C4405 C 0.36241 0.39164 0.34368 0.0
C4406 C 0.35747 0.37733 0.34911 0.0
C4407 C 0.345 0.37075 0.35768 0.0
C4408 C 0.37454 0.39795 0.33317 0.0
C4409 C 0.38857 0.40042 0.33793 0.0
C4410 C 0.37239 0.40211 0.31867 0.0
C4411 C 0.35756 0.39869 0.3125 0.0
C4412 C 0.34551 0.38381 0.31159 0.0
C4413 C 0.33156 0.38065 0.30581 0.0
C4414 C 0.32955 0.39227 0.3008 0.0
C4415 C 0.34148 0.40706 0.30154 0.0
C4416 C 0.35545 0.41029 0.30732 0.0
C4417 C 0.42984 0.4193 0.28921 0.0
C4418 C 0.43339 0.43339 0.28387 0.0
C4419 C 0.41862 0.41236 0.29924 0.0
C4420 C 0.41079 0.4194 0.30417 0.0
C4421 C 0.41438 0.43349 0.29895 0.0
C4422 C 0.42559 0.44044 0.28897 0.0
C4423 C 0.39858 0.41199 0.31446 0.0
C4424 C 0.38446 0.40923 0.30961 0.0
C4425 C 0.40065 0.40747 0.32879 0.0
C4426 C 0.41539 0.41047 0.33474 0.0
C4427 C 0.42762 0.42525 0.33598 0.0
C4428 C 0.4415 0.42796 0.34146 0.0
C4429 C 0.44326 0.416 0.34586 0.0
C4430 C 0.43113 0.40131 0.34482 0.0
C4431 C 0.41723 0.39853 0.33932 0.0
H4432 H 0.45402 0.41812 0.3501 0.0
H4433 H 0.31874 0.3898 0.29632 0.0
H4434 H 0.32769 0.32523 0.39706 0.0
H4435 H 0.33789 0.31057 0.40796 0.0
H4436 H 0.29712 0.26933 0.39454 0.0
H4437 H 0.28672 0.28394 0.38414 0.0
H4438 H 0.30442 0.26919 0.42269 0.0
H4439 H 0.33099 0.28088 0.37718 0.0
H4440 H 0.34738 0.29765 0.35861 0.0
H4441 H 0.38278 0.32002 0.39313 0.0
H4442 H 0.36655 0.30351 0.41195 0.0
H4443 H 0.32464 0.21603 0.44048 0.0
H4444 H 0.31842 0.23178 0.42547 0.0
H4445 H 0.35879 0.27149 0.44308 0.0
H4446 H 0.36519 0.25568 0.45797 0.0
H4447 H 0.35278 0.27331 0.41332 0.0
H4448 H 0.32651 0.26205 0.45866 0.0
H4449 H 0.31042 0.24546 0.47751 0.0
H4450 H 0.27459 0.22275 0.44347 0.0
H4451 H 0.29054 0.23907 0.42436 0.0
C4452 C 0.321 0.31303 0.39623 0.0
C4453 C 0.30638 0.30574 0.38981 0.0
C4454 C 0.32686 0.30464 0.40242 0.0
C4455 C 0.31831 0.28881 0.40202 0.0
C4456 C 0.30392 0.28153 0.39506 0.0
C4457 C 0.298 0.28989 0.38908 0.0
C4458 C 0.3238 0.27982 0.40982 0.0
C4459 C 0.31489 0.26994 0.42042 0.0
C4460 C 0.33772 0.28117 0.40733 0.0
C4461 C 0.34751 0.29105 0.396 0.0
C4462 C 0.34224 0.28945 0.38083 0.0
C4463 C 0.35151 0.2989 0.37026 0.0
C4464 C 0.3661 0.30992 0.37469 0.0
C4465 C 0.37147 0.31149 0.38971 0.0
C4466 C 0.36225 0.30208 0.40033 0.0
C4467 C 0.33224 0.22811 0.44106 0.0
C4468 C 0.3453 0.23467 0.45052 0.0
C4469 C 0.32868 0.23709 0.43248 0.0
C4470 C 0.33799 0.25285 0.43339 0.0
C4471 C 0.35142 0.25936 0.44225 0.0
C4472 C 0.35506 0.25034 0.45074 0.0
C4473 C 0.33321 0.26249 0.42584 0.0
C4474 C 0.34228 0.27255 0.41546 0.0
C4475 C 0.31944 0.26138 0.42854 0.0
C4476 C 0.30976 0.2517 0.44006 0.0
C4477 C 0.31523 0.25346 0.45518 0.0
C4478 C 0.30613 0.24411 0.46591 0.0
C4479 C 0.2915 0.23304 0.46169 0.0
C4480 C 0.28593 0.23132 0.44673 0.0
C4481 C 0.29499 0.24063 0.43594 0.0
H4482 H 0.28448 0.22581 0.47001 0.0
H4483 H 0.37325 0.31722 0.36649 0.0
H4484 H 0.68489 0.02043 0.39831 0.0
H4485 H 0.7007 0.04534 0.41157 0.0
H4486 H 0.73776 0.03778 0.41166 0.0
H4487 H 0.72203 0.0129 0.39883 0.0
H4488 H 0.7355 0.04722 0.43883 0.0
H4489 H 0.73425 0.06266 0.38819 0.0
H4490 H 0.72214 0.06434 0.36456 0.0
H4491 H 0.70238 0.08575 0.38952 0.0
H4492 H 0.71423 0.08403 0.41333 0.0
H4493 H 0.79805 0.11803 0.45685 0.0
H4494 H 0.77885 0.09482 0.4433 0.0
H4495 H 0.74661 0.10847 0.45103 0.0
H4496 H 0.76586 0.13184 0.46478 0.0
H4497 H 0.74377 0.09616 0.42177 0.0
H4498 H 0.74737 0.08305 0.47207 0.0
H4499 H 0.76035 0.08212 0.49538 0.0
H4500 H 0.77575 0.05614 0.47098 0.0
H4501 H 0.76322 0.05728 0.4474 0.0
C4502 C 0.69646 0.02419 0.401 0.0
C4503 C 0.7022 0.01468 0.39758 0.0
C4504 C 0.70549 0.03843 0.40856 0.0
C4505 C 0.72045 0.04346 0.41262 0.0
C4506 C 0.72625 0.03413 0.40876 0.0
C4507 C 0.71724 0.0199 0.40136 0.0
C4508 C 0.73002 0.05807 0.42151 0.0
C4509 C 0.7374 0.05792 0.43499 0.0
C4510 C 0.73209 0.07201 0.41686 0.0
C4511 C 0.72498 0.07305 0.40255 0.0
C4512 C 0.72722 0.06761 0.38865 0.0
C4513 C 0.72042 0.06859 0.37522 0.0
C4514 C 0.71146 0.0751 0.37554 0.0
C4515 C 0.7093 0.08069 0.38929 0.0
C4516 C 0.71606 0.07972 0.40275 0.0
C4517 C 0.78685 0.11606 0.45583 0.0
C4518 C 0.78344 0.12668 0.46211 0.0
C4519 C 0.7759 0.10281 0.44801 0.0
C4520 C 0.76126 0.09981 0.44635 0.0
C4521 C 0.75784 0.11055 0.45222 0.0
C4522 C 0.76884 0.12388 0.46006 0.0
C4523 C 0.74959 0.08527 0.43873 0.0
C4524 C 0.74175 0.08542 0.42562 0.0
C4525 C 0.74709 0.07129 0.44369 0.0
C4526 C 0.75442 0.07034 0.45793 0.0
C4527 C 0.75361 0.07722 0.47164 0.0
C4528 C 0.76088 0.07665 0.48491 0.0
C4529 C 0.76885 0.06906 0.48468 0.0
C4530 C 0.76957 0.06202 0.47115 0.0
C4531 C 0.76239 0.06263 0.45782 0.0
H4532 H 0.77446 0.06862 0.49497 0.0
H4533 H 0.70621 0.07586 0.36513 0.0
H4534 H 0.98632 0.68043 0.35712 0.0
H4535 H 0.96372 0.67038 0.3709 0.0
H4536 H 0.96839 0.71465 0.37478 0.0
H4537 H 0.99101 0.72477 0.36124 0.0
H4538 H 0.9648 0.70301 0.40163 0.0
H4539 H 0.94081 0.68555 0.35163 0.0
H4540 H 0.93545 0.67199 0.32651 0.0
H4541 H 0.92104 0.63023 0.34739 0.0
H4542 H 0.92649 0.64358 0.37266 0.0
H4543 H 0.89789 0.68766 0.4315 0.0
H4544 H 0.91753 0.69419 0.41416 0.0
H4545 H 0.91025 0.64892 0.41405 0.0
H4546 H 0.8905 0.64227 0.43151 0.0
H4547 H 0.91511 0.65955 0.38565 0.0
H4548 H 0.93864 0.67659 0.4354 0.0
H4549 H 0.9439 0.68984 0.46068 0.0
H4550 H 0.95951 0.73208 0.4404 0.0
H4551 H 0.95414 0.71905 0.41497 0.0
C4552 C 0.98238 0.68796 0.36066 0.0
C4553 C 0.99051 0.70342 0.35814 0.0
C4554 C 0.96944 0.68219 0.36853 0.0
C4555 C 0.96435 0.69176 0.37389 0.0
C4556 C 0.97214 0.70706 0.37082 0.0
C4557 C 0.98505 0.71282 0.36302 0.0
C4558 C 0.9516 0.68622 0.38366 0.0
C4559 C 0.95389 0.69364 0.39802 0.0
C4560 C 0.93749 0.67363 0.37922 0.0
C4561 C 0.93421 0.6656 0.36404 0.0
C4562 C 0.93662 0.6735 0.35087 0.0
C4563 C 0.93354 0.66585 0.3366 0.0
C4564 C 0.92795 0.65027 0.33535 0.0
C4565 C 0.92539 0.6423 0.34837 0.0
C4566 C 0.92846 0.6499 0.36267 0.0
C4567 C 0.90049 0.67909 0.42785 0.0
C4568 C 0.89277 0.6645 0.43306 0.0
C4569 C 0.91169 0.68283 0.41789 0.0
C4570 C 0.91553 0.67211 0.413 0.0
C4571 C 0.90749 0.65737 0.41771 0.0
C4572 C 0.89621 0.65359 0.42767 0.0
C4573 C 0.92829 0.67658 0.40342 0.0
C4574 C 0.92604 0.66892 0.3892 0.0
C4575 C 0.9425 0.68891 0.408 0.0
C4576 C 0.94586 0.69682 0.42328 0.0
C4577 C 0.9431 0.68869 0.43633 0.0
C4578 C 0.94611 0.69617 0.45068 0.0
C4579 C 0.95201 0.71179 0.45214 0.0
C4580 C 0.95493 0.71998 0.43925 0.0
C4581 C 0.95192 0.71255 0.42486 0.0
H4582 H 0.95433 0.71756 0.46326 0.0
H4583 H 0.92557 0.64436 0.3243 0.0
H4584 H 0.36142 0.00652 0.7096 0.0
H4585 H 0.37565 0.99851 0.72539 0.0
H4586 H 0.41536 0.04116 0.72083 0.0
H4587 H 0.40124 0.04928 0.70521 0.0
H4588 H 0.41982 0.01635 0.71827 0.0
H4589 H 0.39742 0.03693 0.7513 0.0
H4590 H 0.37652 0.03852 0.76139 0.0
H4591 H 0.35675 0.99264 0.77366 0.0
H4592 H 0.37745 0.99071 0.76343 0.0
H4593 H 0.46877 0.02518 0.77902 0.0
H4594 H 0.45215 0.02811 0.76136 0.0
H4595 H 0.41525 0.98674 0.77468 0.0
H4596 H 0.43178 0.98406 0.79295 0.0
H4597 H 0.40754 0.00769 0.77186 0.0
H4598 H 0.43127 0.98783 0.74134 0.0
H4599 H 0.45211 0.98615 0.73123 0.0
H4600 H 0.46915 0.02993 0.71397 0.0
H4601 H 0.44855 0.03201 0.7242 0.0
C4602 C 0.37322 0.01409 0.71178 0.0
C4603 C 0.38021 0.02856 0.70623 0.0
C4604 C 0.38131 0.00953 0.72085 0.0
C4605 C 0.39653 0.0193 0.72437 0.0
C4606 C 0.40363 0.03345 0.71825 0.0
C4607 C 0.39553 0.03808 0.70936 0.0
C4608 C 0.40499 0.01523 0.73506 0.0
C4609 C 0.41721 0.01453 0.73001 0.0
C4610 C 0.40131 0.01247 0.75026 0.0
C4611 C 0.38888 0.01361 0.75642 0.0
C4612 C 0.38854 0.02713 0.75601 0.0
C4613 C 0.37675 0.02811 0.76178 0.0
C4614 C 0.36529 0.01567 0.76811 0.0
C4615 C 0.36562 0.00225 0.76872 0.0
C4616 C 0.37738 0.00121 0.76294 0.0
C4617 C 0.45708 0.01682 0.77843 0.0
C4618 C 0.45161 0.0044 0.78747 0.0
C4619 C 0.44761 0.0184 0.76814 0.0
C4620 C 0.43248 0.0075 0.76647 0.0
C4621 C 0.4269 0.99524 0.77569 0.0
C4622 C 0.43638 0.99368 0.78606 0.0
C4623 C 0.42257 0.00903 0.75516 0.0
C4624 C 0.41007 0.00928 0.76008 0.0
C4625 C 0.42596 0.01131 0.7398 0.0
C4626 C 0.43839 0.01011 0.73363 0.0
C4627 C 0.43952 0.99716 0.73549 0.0
C4628 C 0.45128 0.99612 0.72973 0.0
C4629 C 0.46194 0.00792 0.72196 0.0
C4630 C 0.46087 0.0208 0.71998 0.0
C4631 C 0.44915 0.0219 0.72575 0.0
H4632 H 0.47099 0.00708 0.71743 0.0
H4633 H 0.35617 0.01645 0.77258 0.0
H4634 H 0.95313 0.32873 0.75216 0.0
H4635 H 0.96142 0.35343 0.76477 0.0
H4636 H 0.00597 0.36865 0.75205 0.0
H4637 H 0.99776 0.34359 0.73969 0.0
H4638 H 0.0065 0.3779 0.78054 0.0
H4639 H 0.98389 0.38038 0.73411 0.0
H4640 H 0.96459 0.37194 0.7133 0.0
H4641 H 0.93418 0.37242 0.74435 0.0
H4642 H 0.95323 0.38066 0.7654 0.0
H4643 H 0.02557 0.45527 0.80087 0.0
H4644 H 0.02154 0.43217 0.78715 0.0
H4645 H 0.97758 0.40773 0.80301 0.0
H4646 H 0.98167 0.43052 0.81726 0.0
H4647 H 0.97914 0.405 0.77096 0.0
H4648 H 0.00213 0.40115 0.81756 0.0
H4649 H 0.02207 0.4103 0.8378 0.0
H4650 H 0.05279 0.4136 0.80515 0.0
H4651 H 0.03306 0.40467 0.78467 0.0
C4652 C 0.96468 0.33733 0.75191 0.0
C4653 C 0.97476 0.33421 0.74482 0.0
C4654 C 0.96941 0.3515 0.7591 0.0
C4655 C 0.98428 0.36302 0.75915 0.0
C4656 C 0.99442 0.35996 0.7521 0.0
C4657 C 0.98971 0.34567 0.74499 0.0
C4658 C 0.98911 0.37807 0.76687 0.0
C4659 C 1.0007 0.38397 0.77823 0.0
C4660 C 0.98147 0.38595 0.764 0.0
C4661 C 0.96997 0.38105 0.75136 0.0
C4662 C 0.97305 0.37859 0.73653 0.0
C4663 C 0.96216 0.37385 0.72468 0.0
C4664 C 0.94816 0.37162 0.72751 0.0
C4665 C 0.94503 0.37415 0.74218 0.0
C4666 C 0.95588 0.37887 0.75407 0.0
C4667 C 0.01516 0.44492 0.80174 0.0
C4668 C 0.00391 0.44483 0.81011 0.0
C4669 C 0.01286 0.43175 0.7938 0.0
C4670 C 0.99924 0.41829 0.79402 0.0
C4671 C 0.98813 0.41806 0.80261 0.0
C4672 C 0.99047 0.43113 0.81068 0.0
C4673 C 0.99623 0.40456 0.78478 0.0
C4674 C 0.98501 0.39897 0.77312 0.0
C4675 C 0.00432 0.39711 0.78726 0.0
C4676 C 0.01616 0.40242 0.79956 0.0
C4677 C 0.01317 0.40396 0.81467 0.0
C4678 C 0.02442 0.40908 0.82619 0.0
C4679 C 0.0387 0.41257 0.82275 0.0
C4680 C 0.04173 0.41092 0.80779 0.0
C4681 C 0.03052 0.40582 0.79623 0.0
H4682 H 0.04739 0.41653 0.83169 0.0
H4683 H 0.93974 0.36795 0.71833 0.0
H4684 H 0.67165 0.6072 0.70857 0.0
H4685 H 0.64916 0.59486 0.72218 0.0
H4686 H 0.64004 0.63042 0.7126 0.0
H4687 H 0.66295 0.64318 0.69938 0.0
H4688 H 0.63579 0.6248 0.74071 0.0
H4689 H 0.61935 0.5936 0.69486 0.0
H4690 H 0.6201 0.57774 0.67362 0.0
H4691 H 0.61924 0.54624 0.70455 0.0
H4692 H 0.61869 0.56201 0.72601 0.0
H4693 H 0.56308 0.58217 0.76885 0.0
H4694 H 0.58308 0.5953 0.75196 0.0
H4695 H 0.602 0.56821 0.76496 0.0
H4696 H 0.58247 0.55545 0.78228 0.0
H4697 H 0.59941 0.56997 0.73332 0.0
H4698 H 0.61759 0.60294 0.77917 0.0
H4699 H 0.6161 0.61884 0.79989 0.0
H4700 H 0.61245 0.64708 0.76763 0.0
H4701 H 0.6137 0.6312 0.7467 0.0
C4702 C 0.66478 0.61233 0.70917 0.0
C4703 C 0.66907 0.62616 0.70283 0.0
C4704 C 0.65185 0.6052 0.71693 0.0
C4705 C 0.64272 0.61156 0.71826 0.0
C4706 C 0.64686 0.62526 0.71172 0.0
C4707 C 0.65992 0.63251 0.7041 0.0
C4708 C 0.62931 0.60424 0.72715 0.0
C4709 C 0.62768 0.61287 0.73886 0.0
C4710 C 0.61878 0.58861 0.72495 0.0
C4711 C 0.61909 0.57906 0.71206 0.0
C4712 C 0.61943 0.58335 0.69715 0.0
C4713 C 0.6198 0.57436 0.68506 0.0
C4714 C 0.61975 0.56101 0.68773 0.0
C4715 C 0.61929 0.55659 0.7025 0.0
C4716 C 0.61893 0.56554 0.71463 0.0
C4717 C 0.57159 0.57913 0.7683 0.0
C4718 C 0.57108 0.56768 0.77695 0.0
C4719 C 0.58296 0.58659 0.75856 0.0
C4720 C 0.594 0.58271 0.7572 0.0
C4721 C 0.59352 0.57129 0.76575 0.0
C4722 C 0.58227 0.56395 0.7756 0.0
C4723 C 0.60611 0.5905 0.74691 0.0
C4724 C 0.60745 0.58193 0.73497 0.0
C4725 C 0.61625 0.6062 0.74879 0.0
C4726 C 0.61557 0.61578 0.76136 0.0
C4727 C 0.61634 0.61246 0.77649 0.0
C4728 C 0.61556 0.62149 0.78827 0.0
C4729 C 0.61413 0.63394 0.78507 0.0
C4730 C 0.61352 0.63742 0.77009 0.0
C4731 C 0.61428 0.62841 0.75826 0.0
H4732 H 0.61354 0.64092 0.79421 0.0
H4733 H 0.62003 0.55407 0.67836 0.0
H4734 H 0.72358 0.7204 0.66919 0.0
H4735 H 0.71325 0.73506 0.65902 0.0
H4736 H 0.66918 0.6993 0.66663 0.0
H4737 H 0.6795 0.68426 0.67644 0.0
H4738 H 0.66929 0.70878 0.63973 0.0
H4739 H 0.68656 0.73351 0.68882 0.0
H4740 H 0.70413 0.74595 0.71107 0.0
H4741 H 0.7338 0.78127 0.68412 0.0
H4742 H 0.71651 0.76894 0.66165 0.0
H4743 H 0.64106 0.75764 0.62051 0.0
H4744 H 0.64766 0.74203 0.63535 0.0
H4745 H 0.69302 0.76855 0.62382 0.0
H4746 H 0.6865 0.78378 0.60846 0.0
H4747 H 0.68954 0.76299 0.65509 0.0
H4748 H 0.6726 0.73615 0.60562 0.0
H4749 H 0.65444 0.72363 0.58381 0.0
H4750 H 0.62311 0.69208 0.61276 0.0
H4751 H 0.64102 0.70458 0.63479 0.0
C4752 C 0.7117 0.71568 0.66887 0.0
C4753 C 0.70237 0.70117 0.67368 0.0
C4754 C 0.70579 0.72414 0.66311 0.0
C4755 C 0.69043 0.71842 0.66226 0.0
C4756 C 0.68107 0.70398 0.66722 0.0
C4757 C 0.68698 0.69542 0.67287 0.0
C4758 C 0.68424 0.7273 0.65549 0.0
C4759 C 0.6735 0.72054 0.64334 0.0
C4760 C 0.68983 0.74272 0.66002 0.0
C4761 C 0.70027 0.75023 0.67352 0.0
C4762 C 0.69688 0.74387 0.68761 0.0
C4763 C 0.70678 0.75092 0.70027 0.0
C4764 C 0.72008 0.76438 0.69901 0.0
C4765 C 0.72349 0.77084 0.68508 0.0
C4766 C 0.71363 0.76384 0.67238 0.0
C4767 C 0.65242 0.76009 0.62099 0.0
C4768 C 0.66323 0.77202 0.61323 0.0
C4769 C 0.65618 0.75121 0.62957 0.0
C4770 C 0.67082 0.75415 0.63066 0.0
C4771 C 0.68168 0.76618 0.6232 0.0
C4772 C 0.67792 0.77494 0.61449 0.0
C4773 C 0.67488 0.74452 0.63926 0.0
C4774 C 0.68521 0.75116 0.65172 0.0
C4775 C 0.6688 0.72897 0.63513 0.0
C4776 C 0.65808 0.72141 0.62188 0.0
C4777 C 0.66179 0.72663 0.60736 0.0
C4778 C 0.65155 0.71952 0.59495 0.0
C4779 C 0.63762 0.7071 0.59691 0.0
C4780 C 0.6339 0.70173 0.61127 0.0
C4781 C 0.64409 0.70882 0.62372 0.0
H4782 H 0.62971 0.7016 0.58729 0.0
H4783 H 0.72773 0.76981 0.70882 0.0
H4784 H 0.28592 0.99039 0.65509 0.0
H4785 H 0.27065 0.96513 0.64287 0.0
H4786 H 0.30321 0.95339 0.65725 0.0
H4787 H 0.3187 0.97884 0.6696 0.0
H4788 H 0.27715 0.95126 0.61972 0.0
H4789 H 0.28295 0.91462 0.66343 0.0
H4790 H 0.2885 0.91532 0.69084 0.0
H4791 H 0.27074 0.94446 0.69957 0.0
H4792 H 0.26492 0.94377 0.67224 0.0
H4793 H 0.23788 0.87513 0.58797 0.0
H4794 H 0.25813 0.89814 0.60122 0.0
H4795 H 0.22855 0.89645 0.63482 0.0
H4796 H 0.20845 0.87334 0.6219 0.0
H4797 H 0.25574 0.90475 0.64775 0.0
H4798 H 0.23526 0.91857 0.60509 0.0
H4799 H 0.22849 0.91759 0.57795 0.0
H4800 H 0.27375 0.93436 0.56771 0.0
H4801 H 0.28075 0.93532 0.5948 0.0
C4802 C 0.28984 0.98245 0.65577 0.0
C4803 C 0.30354 0.98664 0.66334 0.0
C4804 C 0.28112 0.96802 0.64868 0.0
C4805 C 0.2858 0.9574 0.6491 0.0
C4806 C 0.29937 0.96142 0.65684 0.0
C4807 C 0.30819 0.97595 0.66389 0.0
C4808 C 0.27633 0.94217 0.64138 0.0
C4809 C 0.27259 0.94107 0.62583 0.0
C4810 C 0.27038 0.92888 0.64932 0.0
C4811 C 0.27369 0.92929 0.66579 0.0
C4812 C 0.28021 0.92115 0.67121 0.0
C4813 C 0.2834 0.92155 0.68673 0.0
C4814 C 0.28003 0.92998 0.69694 0.0
C4815 C 0.27341 0.93799 0.69165 0.0
C4816 C 0.27018 0.93762 0.67614 0.0
C4817 C 0.23578 0.87956 0.5983 0.0
C4818 C 0.22153 0.87255 0.60379 0.0
C4819 C 0.24733 0.89273 0.60582 0.0
C4820 C 0.24481 0.89909 0.61893 0.0
C4821 C 0.23075 0.89176 0.62473 0.0
C4822 C 0.21923 0.87865 0.61723 0.0
C4823 C 0.25641 0.91389 0.62615 0.0
C4824 C 0.26055 0.9149 0.64159 0.0
C4825 C 0.26265 0.92714 0.61814 0.0
C4826 C 0.2585 0.92688 0.60193 0.0
C4827 C 0.24375 0.92199 0.59704 0.0
C4828 C 0.23987 0.92145 0.58167 0.0
C4829 C 0.25067 0.92588 0.57111 0.0
C4830 C 0.26539 0.93093 0.5759 0.0
C4831 C 0.26933 0.93149 0.59126 0.0
H4832 H 0.24765 0.92542 0.55922 0.0
H4833 H 0.28251 0.93028 0.70894 0.0
H4834 H 0.01687 0.27855 0.70723 0.0
H4835 H 0.03987 0.28974 0.69416 0.0
H4836 H 0.03896 0.33119 0.69208 0.0
H4837 H 0.016 0.32013 0.70537 0.0
H4838 H 0.04199 0.31918 0.66382 0.0
H4839 H 0.06457 0.3316 0.71438 0.0
H4840 H 0.06849 0.32634 0.7405 0.0
H4841 H 0.08088 0.29461 0.72368 0.0
H4842 H 0.07682 0.29952 0.69745 0.0
H4843 H 0.109 0.35524 0.62719 0.0
H4844 H 0.09009 0.34985 0.64511 0.0
H4845 H 0.09332 0.31172 0.65897 0.0
H4846 H 0.11313 0.31781 0.64208 0.0
H4847 H 0.08971 0.32433 0.68243 0.0
H4848 H 0.06495 0.30888 0.63281 0.0
H4849 H 0.05998 0.31201 0.60619 0.0
H4850 H 0.0503 0.34652 0.62038 0.0
H4851 H 0.05541 0.34373 0.64708 0.0
C4852 C 0.02169 0.29014 0.70424 0.0
C4853 C 0.01461 0.29845 0.70733 0.0
C4854 C 0.03485 0.29652 0.69679 0.0
C4855 C 0.04112 0.3113 0.69217 0.0
C4856 C 0.0343 0.31978 0.69558 0.0
C4857 C 0.02123 0.31346 0.70323 0.0
C4858 C 0.05421 0.31743 0.6829 0.0
C4859 C 0.05254 0.3206 0.66796 0.0
C4860 C 0.06778 0.31878 0.68817 0.0
C4861 C 0.07028 0.31585 0.70394 0.0
C4862 C 0.06801 0.32341 0.71625 0.0
C4863 C 0.07028 0.32051 0.73107 0.0
C4864 C 0.0749 0.31012 0.73375 0.0
C4865 C 0.07729 0.30264 0.72159 0.0
C4866 C 0.07502 0.3055 0.70674 0.0
C4867 C 0.10595 0.34589 0.63425 0.0
C4868 C 0.1126 0.3369 0.633 0.0
C4869 C 0.09492 0.34266 0.64436 0.0
C4870 C 0.08996 0.33014 0.65319 0.0
C4871 C 0.09682 0.32138 0.65224 0.0
C4872 C 0.10805 0.32477 0.64236 0.0
C4873 C 0.07749 0.32595 0.6632 0.0
C4874 C 0.07925 0.32308 0.67829 0.0
C4875 C 0.06386 0.32456 0.65796 0.0
C4876 C 0.06072 0.32621 0.64193 0.0
C4877 C 0.06186 0.31721 0.63024 0.0
C4878 C 0.05901 0.31891 0.61514 0.0
C4879 C 0.05487 0.32949 0.6116 0.0
C4880 C 0.05354 0.33835 0.62314 0.0
C4881 C 0.0564 0.33671 0.63826 0.0
H4882 H 0.05267 0.33079 0.5999 0.0
H4883 H 0.07665 0.30789 0.74523 0.0
H4884 H 0.31326 0.33174 0.68232 0.0
H4885 H 0.29974 0.34096 0.66727 0.0
H4886 H 0.2583 0.3028 0.67822 0.0
H4887 H 0.27181 0.29319 0.69259 0.0
H4888 H 0.2567 0.30537 0.65025 0.0
H4889 H 0.27217 0.34097 0.69321 0.0
H4890 H 0.28983 0.36033 0.71246 0.0
H4891 H 0.31293 0.38956 0.67756 0.0
H4892 H 0.29551 0.3703 0.65808 0.0
H4893 H 0.22245 0.35514 0.63266 0.0
H4894 H 0.23801 0.34961 0.64929 0.0
H4895 H 0.25041 0.33246 0.6106 0.0
H4896 H 0.23466 0.3378 0.59391 0.0
H4897 H 0.26625 0.35793 0.65293 0.0
H4898 H 0.25304 0.30223 0.61982 0.0
H4899 H 0.23307 0.28216 0.60278 0.0
H4900 H 0.20138 0.2917 0.62233 0.0
H4901 H 0.22112 0.31167 0.63962 0.0
C4902 C 0.30126 0.32546 0.68169 0.0
C4903 C 0.29358 0.31174 0.68861 0.0
C4904 C 0.29352 0.33076 0.67311 0.0
C4905 C 0.27794 0.32265 0.67163 0.0
C4906 C 0.2703 0.30923 0.67906 0.0
C4907 C 0.27803 0.30378 0.68735 0.0
C4908 C 0.26958 0.32755 0.66166 0.0
C4909 C 0.25883 0.31688 0.6509 0.0
C4910 C 0.27215 0.34252 0.66251 0.0
C4911 C 0.28262 0.35413 0.67419 0.0
C4912 C 0.28108 0.35149 0.68964 0.0
C4913 C 0.29103 0.36245 0.70059 0.0
C4914 C 0.30252 0.37615 0.69623 0.0
C4915 C 0.30404 0.37894 0.68091 0.0
C4916 C 0.29412 0.36801 0.66992 0.0
C4917 C 0.2287 0.35044 0.62766 0.0
C4918 C 0.22732 0.34688 0.61197 0.0
C4919 C 0.23758 0.34726 0.63719 0.0
C4920 C 0.24525 0.34045 0.63124 0.0
C4921 C 0.24438 0.33747 0.61549 0.0
C4922 C 0.2354 0.34053 0.60596 0.0
C4923 C 0.25349 0.33575 0.64159 0.0
C4924 C 0.26421 0.34645 0.65234 0.0
C4925 C 0.25058 0.32069 0.64109 0.0
C4926 C 0.23859 0.30855 0.63089 0.0
C4927 C 0.2418 0.3 0.62051 0.0
C4928 C 0.23052 0.28865 0.61081 0.0
C4929 C 0.21598 0.28569 0.61144 0.0
C4930 C 0.21266 0.29404 0.62182 0.0
C4931 C 0.22389 0.30538 0.63156 0.0
H4932 H 0.20727 0.27691 0.60391 0.0
H4933 H 0.31021 0.38462 0.70472 0.0
H4934 H 0.66863 0.99623 0.64267 0.0
H4935 H 0.65862 0.9711 0.62985 0.0
H4936 H 0.69501 0.96782 0.65007 0.0
H4937 H 0.70543 0.99323 0.66208 0.0
H4938 H 0.69219 0.95928 0.62279 0.0
H4939 H 0.65693 0.94705 0.66084 0.0
H4940 H 0.63829 0.94931 0.67525 0.0
H4941 H 0.61049 0.93871 0.63452 0.0
H4942 H 0.62905 0.93657 0.61984 0.0
H4943 H 0.64248 0.87296 0.61112 0.0
H4944 H 0.64792 0.89668 0.62453 0.0
H4945 H 0.66391 0.91996 0.5839 0.0
H4946 H 0.65846 0.89626 0.5704 0.0
H4947 H 0.6399 0.91782 0.6217 0.0
H4948 H 0.69507 0.95355 0.5935 0.0
H4949 H 0.71424 0.95011 0.58154 0.0
H4950 H 0.70329 0.91183 0.60745 0.0
H4951 H 0.68423 0.91519 0.61972 0.0
C4952 C 0.67435 0.99003 0.6445 0.0
C4953 C 0.6878 0.99666 0.65333 0.0
C4954 C 0.6686 0.97563 0.63722 0.0
C4955 C 0.67597 0.96742 0.63904 0.0
C4956 C 0.68914 0.9739 0.64835 0.0
C4957 C 0.69507 0.98841 0.65528 0.0
C4958 C 0.67056 0.95249 0.63064 0.0
C4959 C 0.68074 0.95026 0.62262 0.0
C4960 C 0.65564 0.94057 0.63041 0.0
C4961 C 0.64445 0.94178 0.63923 0.0
C4962 C 0.64689 0.9453 0.65495 0.0
C4963 C 0.63632 0.94654 0.66316 0.0
C4964 C 0.62323 0.94419 0.6558 0.0
C4965 C 0.62064 0.94054 0.6402 0.0
C4966 C 0.63117 0.9393 0.63194 0.0
C4967 C 0.64686 0.88306 0.60495 0.0
C4968 C 0.65015 0.88275 0.58972 0.0
C4969 C 0.64999 0.89662 0.61264 0.0
C4970 C 0.6565 0.91012 0.60528 0.0
C4971 C 0.6591 0.90971 0.58988 0.0
C4972 C 0.65602 0.89617 0.58219 0.0
C4973 C 0.66155 0.92476 0.61397 0.0
C4974 C 0.65132 0.92693 0.62194 0.0
C4975 C 0.67652 0.93651 0.61455 0.0
C4976 C 0.68811 0.93453 0.60738 0.0
C4977 C 0.69679 0.94444 0.59667 0.0
C4978 C 0.70764 0.9425 0.58984 0.0
C4979 C 0.70995 0.93073 0.59369 0.0
C4980 C 0.70146 0.92091 0.60443 0.0
C4981 C 0.69062 0.92282 0.61132 0.0
H4982 H 0.71833 0.92924 0.58837 0.0
H4983 H 0.61507 0.94516 0.66218 0.0
H4984 H 0.00456 0.68918 0.69336 0.0
H4985 H 0.02721 0.7015 0.67969 0.0
H4986 H 0.02423 0.74194 0.67944 0.0
H4987 H 0.00157 0.7297 0.69291 0.0
H4988 H 0.02793 0.73356 0.65169 0.0
H4989 H 0.05083 0.74027 0.70165 0.0
H4990 H 0.05531 0.73205 0.72603 0.0
H4991 H 0.06875 0.70372 0.70283 0.0
H4992 H 0.06416 0.71163 0.67828 0.0
H4993 H 0.09654 0.7848 0.62464 0.0
H4994 H 0.07625 0.77193 0.64116 0.0
H4995 H 0.08144 0.73277 0.63814 0.0
H4996 H 0.10174 0.74557 0.62143 0.0
H4997 H 0.07663 0.73921 0.66714 0.0
H4998 H 0.05415 0.7325 0.61741 0.0
H4999 H 0.04972 0.74045 0.59285 0.0
H5000 H 0.03516 0.76813 0.61539 0.0
H5001 H 0.03972 0.76052 0.64013 0.0
C5002 C 0.00885 0.70078 0.6906 0.0
C5003 C 0.00122 0.70843 0.69419 0.0
C5004 C 0.02183 0.70782 0.68281 0.0
C5005 C 0.02744 0.72266 0.67854 0.0
C5006 C 0.02009 0.73047 0.68255 0.0
C5007 C 0.00715 0.72346 0.69032 0.0
C5008 C 0.04041 0.72981 0.66909 0.0
C5009 C 0.03863 0.73498 0.65519 0.0
C5010 C 0.05424 0.73118 0.67337 0.0
C5011 C 0.057 0.72642 0.68812 0.0
C5012 C 0.05462 0.73219 0.70174 0.0
C5013 C 0.0572 0.72761 0.71559 0.0
C5014 C 0.06227 0.71734 0.71598 0.0
C5015 C 0.0648 0.71166 0.70251 0.0
C5016 C 0.06222 0.71619 0.68862 0.0
C5017 C 0.09333 0.77341 0.62741 0.0
C5018 C 0.10066 0.76615 0.62155 0.0
C5019 C 0.08176 0.76609 0.63691 0.0
C5020 C 0.07719 0.7513 0.64072 0.0
C5021 C 0.08478 0.74418 0.63533 0.0
C5022 C 0.09639 0.75151 0.6258 0.0
C5023 C 0.06418 0.74321 0.64993 0.0
C5024 C 0.06592 0.73778 0.66368 0.0
C5025 C 0.05025 0.74151 0.64551 0.0
C5026 C 0.0474 0.74604 0.63064 0.0
C5027 C 0.05011 0.74037 0.61715 0.0
C5028 C 0.04756 0.7448 0.60319 0.0
C5029 C 0.04219 0.75481 0.60256 0.0
C5030 C 0.03933 0.76039 0.6159 0.0
C5031 C 0.04189 0.75601 0.62989 0.0
H5032 H 0.04022 0.75823 0.59174 0.0
H5033 H 0.06427 0.71381 0.72671 0.0
H5034 H 0.98799 0.65063 0.72606 0.0
H5035 H 0.99676 0.63523 0.73813 0.0
H5036 H 0.95211 0.59735 0.73519 0.0
H5037 H 0.94327 0.61264 0.72333 0.0
H5038 H 0.9646 0.60236 0.76323 0.0
H5039 H 0.97848 0.59813 0.7128 0.0
H5040 H 0.99094 0.60768 0.68929 0.0
H5041 H 0.03319 0.63043 0.71434 0.0
H5042 H 0.02096 0.62118 0.73804 0.0
H5043 H 0.97539 0.54324 0.78405 0.0
H5044 H 0.96989 0.55935 0.76886 0.0
H5045 H 0.01533 0.59528 0.77599 0.0
H5046 H 0.02091 0.57924 0.7914 0.0
H5047 H 0.00403 0.59263 0.74646 0.0
H5048 H 0.99045 0.59665 0.79666 0.0
H5049 H 0.97823 0.58719 0.8203 0.0
H5050 H 0.93568 0.56535 0.79586 0.0
H5051 H 0.94766 0.57448 0.77202 0.0
C5052 C 0.98009 0.63896 0.72778 0.0
C5053 C 0.96492 0.63289 0.7238 0.0
C5054 C 0.98512 0.63016 0.73466 0.0
C5055 C 0.97509 0.61513 0.73757 0.0
C5056 C 0.96004 0.60894 0.73312 0.0
C5057 C 0.95501 0.6177 0.72629 0.0
C5058 C 0.97998 0.60606 0.7461 0.0
C5059 C 0.97309 0.60008 0.75943 0.0
C5060 C 0.99142 0.60352 0.74145 0.0
C5061 C 0.99879 0.6091 0.72721 0.0
C5062 C 0.99042 0.60528 0.71331 0.0
C5063 C 0.99744 0.61062 0.69995 0.0
C5064 C 0.01285 0.6197 0.70033 0.0
C5065 C 0.02126 0.62342 0.71407 0.0
C5066 C 0.01429 0.61812 0.72747 0.0
C5067 C 0.98422 0.55457 0.78243 0.0
C5068 C 0.99855 0.56001 0.78909 0.0
C5069 C 0.98107 0.56375 0.77369 0.0
C5070 C 0.99216 0.57858 0.77147 0.0
C5071 C 0.00662 0.58387 0.77758 0.0
C5072 C 0.00979 0.57468 0.78635 0.0
C5073 C 0.9884 0.5887 0.76336 0.0
C5074 C 0.99555 0.59494 0.75021 0.0
C5075 C 0.97722 0.59156 0.76819 0.0
C5076 C 0.96996 0.58614 0.78253 0.0
C5077 C 0.97849 0.58973 0.7963 0.0
C5078 C 0.97161 0.58444 0.80974 0.0
C5079 C 0.95619 0.57565 0.80958 0.0
C5080 C 0.94762 0.57215 0.79597 0.0
C5081 C 0.95445 0.57739 0.78249 0.0
H5082 H 0.95088 0.57157 0.82 0.0
H5083 H 0.01827 0.62381 0.68997 0.0
H5084 H 0.35143 0.35526 0.72957 0.0
H5085 H 0.36737 0.38013 0.74281 0.0
H5086 H 0.40474 0.37318 0.74083 0.0
H5087 H 0.38887 0.34831 0.72799 0.0
H5088 H 0.40285 0.38195 0.76854 0.0
H5089 H 0.40034 0.3983 0.71862 0.0
H5090 H 0.3876 0.40021 0.6956 0.0
H5091 H 0.36798 0.42071 0.72224 0.0
H5092 H 0.38048 0.41875 0.74545 0.0
H5093 H 0.46495 0.45273 0.78726 0.0
H5094 H 0.44576 0.42978 0.77334 0.0
H5095 H 0.41327 0.44263 0.78296 0.0
H5096 H 0.43252 0.46574 0.79711 0.0
H5097 H 0.41014 0.43107 0.75321 0.0
H5098 H 0.41404 0.41645 0.80279 0.0
H5099 H 0.42694 0.41483 0.82583 0.0
H5100 H 0.44366 0.39093 0.79993 0.0
H5101 H 0.43104 0.39261 0.77668 0.0
C5102 C 0.36309 0.35915 0.73178 0.0
C5103 C 0.36888 0.34979 0.7278 0.0
C5104 C 0.3722 0.37337 0.73932 0.0
C5105 C 0.38727 0.37855 0.74282 0.0
C5106 C 0.39313 0.36941 0.73835 0.0
C5107 C 0.38404 0.3552 0.73096 0.0
C5108 C 0.3969 0.39303 0.75189 0.0
C5109 C 0.40454 0.39269 0.76507 0.0
C5110 C 0.39868 0.40701 0.74774 0.0
C5111 C 0.39121 0.40822 0.73379 0.0
C5112 C 0.39322 0.4031 0.71958 0.0
C5113 C 0.38606 0.40422 0.7065 0.0
C5114 C 0.37695 0.41053 0.70746 0.0
C5115 C 0.37502 0.41579 0.72151 0.0
C5116 C 0.38214 0.41469 0.73463 0.0
C5117 C 0.4537 0.45064 0.78657 0.0
C5118 C 0.45022 0.46095 0.79352 0.0
C5119 C 0.44276 0.43754 0.77853 0.0
C5120 C 0.42805 0.43439 0.77731 0.0
C5121 C 0.42455 0.44485 0.78381 0.0
C5122 C 0.43555 0.45802 0.79188 0.0
C5123 C 0.4164 0.41995 0.76951 0.0
C5124 C 0.40833 0.42029 0.75668 0.0
C5125 C 0.41417 0.40592 0.77398 0.0
C5126 C 0.42167 0.40475 0.78797 0.0
C5127 C 0.42055 0.41094 0.80199 0.0
C5128 C 0.4278 0.41 0.81509 0.0
C5129 C 0.43614 0.40281 0.81434 0.0
C5130 C 0.4372 0.39651 0.80049 0.0
C5131 C 0.42999 0.39743 0.78735 0.0
H5132 H 0.44175 0.4021 0.8245 0.0
H5133 H 0.37142 0.41139 0.69732 0.0
H5134 H 0.64969 0.01678 0.68492 0.0
H5135 H 0.62706 0.0077 0.69852 0.0
H5136 H 0.63699 0.05359 0.70757 0.0
H5137 H 0.65936 0.0627 0.69379 0.0
H5138 H 0.62473 0.01249 0.72731 0.0
H5139 H 0.60601 0.05522 0.71176 0.0
H5140 H 0.60551 0.069 0.68982 0.0
H5141 H 0.60565 0.03518 0.65971 0.0
H5142 H 0.60594 0.02108 0.68145 0.0
H5143 H 0.58258 0.02033 0.78364 0.0
H5144 H 0.60053 0.02482 0.76471 0.0
H5145 H 0.56504 0.00317 0.72987 0.0
H5146 H 0.54701 0.99903 0.74871 0.0
H5147 H 0.58741 0.02851 0.72049 0.0
H5148 H 0.58215 0.98485 0.74297 0.0
H5149 H 0.58135 0.96932 0.7638 0.0
H5150 H 0.62671 0.00146 0.77758 0.0
H5151 H 0.62772 0.01731 0.75696 0.0
C5152 C 0.6469 0.02491 0.68955 0.0
C5153 C 0.65634 0.04047 0.68825 0.0
C5154 C 0.63399 0.01971 0.69739 0.0
C5155 C 0.63025 0.02994 0.70403 0.0
C5156 C 0.63946 0.04543 0.70236 0.0
C5157 C 0.65232 0.05064 0.6945 0.0
C5158 C 0.61733 0.02459 0.71357 0.0
C5159 C 0.61653 0.01593 0.72575 0.0
C5160 C 0.60645 0.02884 0.71143 0.0
C5161 C 0.60611 0.03716 0.69826 0.0
C5162 C 0.60586 0.05068 0.70046 0.0
C5163 C 0.60563 0.05856 0.68805 0.0
C5164 C 0.60559 0.05299 0.67338 0.0
C5165 C 0.60573 0.03951 0.67108 0.0
C5166 C 0.60595 0.03158 0.68344 0.0
C5167 C 0.57858 0.01661 0.77194 0.0
C5168 C 0.56334 0.0093 0.7677 0.0
C5169 C 0.58886 0.01906 0.76114 0.0
C5170 C 0.58413 0.01418 0.74588 0.0
C5171 C 0.56894 0.00698 0.74158 0.0
C5172 C 0.55864 0.00451 0.75239 0.0
C5173 C 0.59509 0.01679 0.73442 0.0
C5174 C 0.59555 0.02497 0.72194 0.0
C5175 C 0.60549 0.01186 0.73611 0.0
C5176 C 0.60497 0.00232 0.74848 0.0
C5177 C 0.59192 0.98866 0.75051 0.0
C5178 C 0.59144 0.97979 0.76226 0.0
C5179 C 0.60396 0.98441 0.77202 0.0
C5180 C 0.61701 0.9979 0.77002 0.0
C5181 C 0.61755 0.00682 0.75828 0.0
H5182 H 0.60356 0.97753 0.78112 0.0
H5183 H 0.60542 0.05911 0.66379 0.0
loop_
_geom_bond_atom_site_label_1
_geom_bond_atom_site_label_2
_geom_bond_distance
_geom_bond_site_symmetry_2
_ccdc_geom_bond_type
O0 Cd1 2.223 . S
O0 C8 1.315 . S
Cd1 O0 2.223 . S
Cd1 O4 2.297 . S
Cd1 O5 2.439 . S
Cd1 O11 2.240 . S
Cd2 O3 2.240 . S
Cd2 O10 2.223 . S
Cd2 O12 2.297 1_554 S
Cd2 O13 2.439 . S
O3 Cd2 2.240 . S
O3 C8 1.279 1_655 S
O4 Cd1 2.297 . S
O4 C6 1.247 . S
O5 Cd1 2.439 . S
O5 C6 1.208 . S
C6 O4 1.247 . S
C6 O5 1.208 . S
C7 O12 1.247 . S
C7 O13 1.208 1_556 S
C8 O0 1.315 . S
C8 O3 1.279 1_455 S
C9 O10 1.272 1_455 S
C9 O11 1.320 . S
O10 Cd2 2.223 . S
O10 C9 1.272 1_655 S
O11 Cd1 2.240 . S
O11 C9 1.320 . S
O12 Cd2 2.297 1_556 S
O12 C7 1.247 . S
O13 Cd2 2.439 . S
O13 C7 1.208 1_554 S
O14 Cd15 2.223 . S
O14 C22 1.315 . S
Cd15 O14 2.223 . S
Cd15 O18 2.297 . S
Cd15 O19 2.439 . S
Cd15 O25 2.240 . S
Cd16 O17 2.240 . S
Cd16 O24 2.223 . S
Cd16 O26 2.297 . S
Cd16 O27 2.439 . S
O17 Cd16 2.240 . S
O17 C22 1.279 . S
O18 Cd15 2.297 . S
O18 C20 1.247 . S
O19 Cd15 2.439 . S
O19 C20 1.208 . S
C20 O18 1.247 . S
C20 O19 1.208 . S
C21 O26 1.247 . S
C21 O27 1.208 . S
C22 O14 1.315 . S
C22 O17 1.279 . S
C23 O24 1.315 . S
C23 O25 1.279 . S
O24 Cd16 2.223 . S
O24 C23 1.315 . S
O25 Cd15 2.240 . S
O25 C23 1.279 . S
O26 Cd16 2.297 . S
O26 C21 1.247 . S
O27 Cd16 2.439 . S
O27 C21 1.208 . S
O28 Cd29 2.223 . S
O28 C36 1.317 . S
Cd29 O28 2.223 . S
Cd29 O32 2.311 . S
Cd29 O33 2.439 . S
Cd29 O39 2.240 . S
Cd30 O31 2.240 . S
Cd30 O38 2.223 . S
Cd30 O40 2.297 . S
Cd30 O41 2.439 . S
O31 Cd30 2.240 . S
O31 C36 1.279 1_565 S
O32 Cd29 2.311 . S
O32 C34 1.245 . S
O33 Cd29 2.439 . S
O33 C34 1.239 . S
C34 O32 1.245 . S
C34 O33 1.239 . S
C35 O40 1.247 . S
C35 O41 1.208 . S
C36 O28 1.317 . S
C36 O31 1.279 1_545 S
C37 O38 1.346 . S
C37 O39 1.249 1_565 S
O38 Cd30 2.223 . S
O38 C37 1.346 . S
O39 Cd29 2.240 . S
O39 C37 1.249 1_545 S
O40 Cd30 2.297 . S
O40 C35 1.247 . S
O41 Cd30 2.439 . S
O41 C35 1.208 . S
O42 Cd43 2.223 . S
O42 C50 1.315 . S
Cd43 O42 2.223 . S
Cd43 O46 2.297 . S
Cd43 O47 2.439 . S
Cd43 O53 2.240 . S
Cd44 O45 2.240 . S
Cd44 O52 2.223 . S
Cd44 O54 2.297 . S
Cd44 O55 2.439 . S
O45 Cd44 2.240 . S
O45 C50 1.279 1_455 S
O46 Cd43 2.297 . S
O46 C48 1.247 . S
O47 Cd43 2.439 . S
O47 C48 1.208 . S
C48 O46 1.247 . S
C48 O47 1.208 . S
C49 O54 1.247 . S
C49 O55 1.208 . S
C50 O42 1.315 . S
C50 O45 1.279 1_655 S
C51 O52 1.315 . S
C51 O53 1.279 1_455 S
O52 Cd44 2.223 . S
O52 C51 1.315 . S
O53 Cd43 2.240 . S
O53 C51 1.279 1_655 S
O54 Cd44 2.297 . S
O54 C49 1.247 . S
O55 Cd44 2.439 . S
O55 C49 1.208 . S
O56 Cd57 2.197 1_556 S
O56 C64 1.315 . S
Cd57 O56 2.197 1_554 S
Cd57 O60 2.256 1_554 S
Cd57 O61 2.419 1_554 S
Cd57 O67 2.281 . S
Cd58 O59 2.240 1_554 S
Cd58 O66 2.223 . S
Cd58 O68 2.297 . S
Cd58 O69 2.439 . S
O59 Cd58 2.240 1_556 S
O59 C64 1.279 . S
O60 Cd57 2.256 1_556 S
O60 C62 1.247 . S
O61 Cd57 2.419 1_556 S
O61 C62 1.208 . S
C62 O60 1.247 . S
C62 O61 1.208 . S
C63 O68 1.247 . S
C63 O69 1.208 . S
C64 O56 1.315 . S
C64 O59 1.279 . S
C65 O66 1.315 . S
C65 O67 1.279 . S
O66 Cd58 2.223 . S
O66 C65 1.315 . S
O67 Cd57 2.281 . S
O67 C65 1.279 . S
O68 Cd58 2.297 . S
O68 C63 1.247 . S
O69 Cd58 2.439 . S
O69 C63 1.208 . S
O70 Cd71 2.223 . S
O70 C78 1.300 1_565 S
Cd71 O70 2.223 . S
Cd71 O74 2.297 . S
Cd71 O75 2.439 . S
Cd71 O81 2.240 . S
Cd72 O73 2.240 . S
Cd72 O80 2.223 . S
Cd72 O82 2.297 . S
Cd72 O83 2.439 . S
O73 Cd72 2.240 . S
O73 C78 1.279 . S
O74 Cd71 2.297 . S
O74 C76 1.247 . S
O75 Cd71 2.439 . S
O75 C76 1.208 . S
C76 O74 1.247 . S
C76 O75 1.208 . S
C77 O82 1.247 . S
C77 O83 1.208 . S
C78 O70 1.300 1_545 S
C78 O73 1.279 . S
C79 O80 1.386 . S
C79 O81 1.212 1_545 S
O80 Cd72 2.223 . S
O80 C79 1.386 . S
O81 Cd71 2.240 . S
O81 C79 1.212 1_565 S
O82 Cd72 2.297 . S
O82 C77 1.247 . S
O83 Cd72 2.439 . S
O83 C77 1.208 . S
O84 Cd85 2.223 . S
O84 C92 1.315 . S
Cd85 O84 2.223 . S
Cd85 O88 2.297 . S
Cd85 O89 2.439 . S
Cd85 O95 2.240 . S
Cd86 O87 2.240 . S
Cd86 O94 2.223 . S
Cd86 O96 2.297 . S
Cd86 O97 2.439 . S
O87 Cd86 2.240 . S
O87 C92 1.279 . S
O88 Cd85 2.297 . S
O88 C90 1.247 . S
O89 Cd85 2.439 . S
O89 C90 1.208 . S
C90 O88 1.247 . S
C90 O89 1.208 . S
C91 O96 1.247 . S
C91 O97 1.208 . S
C92 O84 1.315 . S
C92 O87 1.279 . S
C93 O94 1.315 . S
C93 O95 1.279 . S
O94 Cd86 2.223 . S
O94 C93 1.315 . S
O95 Cd85 2.240 . S
O95 C93 1.279 . S
O96 Cd86 2.297 . S
O96 C91 1.247 . S
O97 Cd86 2.439 . S
O97 C91 1.208 . S
O98 Cd99 2.223 . S
O98 C106 1.315 . S
Cd99 O98 2.223 . S
Cd99 O102 2.297 . S
Cd99 O103 2.439 . S
Cd99 O109 2.240 . S
Cd100 O101 2.240 . S
Cd100 O108 2.223 . S
Cd100 O110 2.297 . S
Cd100 O111 2.439 . S
O101 Cd100 2.240 . S
O101 C106 1.279 . S
O102 Cd99 2.297 . S
O102 C104 1.247 . S
O103 Cd99 2.439 . S
O103 C104 1.208 . S
C104 O102 1.247 . S
C104 O103 1.208 . S
C105 O110 1.247 . S
C105 O111 1.208 . S
C106 O98 1.315 . S
C106 O101 1.279 . S
C107 O108 1.315 . S
C107 O109 1.279 . S
O108 Cd100 2.223 . S
O108 C107 1.315 . S
O109 Cd99 2.240 . S
O109 C107 1.279 . S
O110 Cd100 2.297 . S
O110 C105 1.247 . S
O111 Cd100 2.439 . S
O111 C105 1.208 . S
O112 Cd113 2.223 . S
O112 C120 1.315 . S
Cd113 O112 2.223 . S
Cd113 O116 2.297 . S
Cd113 O117 2.439 . S
Cd113 O123 2.240 . S
Cd114 O115 2.240 . S
Cd114 O122 2.223 . S
Cd114 O124 2.297 . S
Cd114 O125 2.439 . S
O115 Cd114 2.240 . S
O115 C120 1.279 . S
O116 Cd113 2.297 . S
O116 C118 1.247 . S
O117 Cd113 2.439 . S
O117 C118 1.208 . S
C118 O116 1.247 . S
C118 O117 1.208 . S
C119 O124 1.247 . S
C119 O125 1.208 . S
C120 O112 1.315 . S
C120 O115 1.279 . S
C121 O122 1.315 . S
C121 O123 1.279 . S
O122 Cd114 2.223 . S
O122 C121 1.315 . S
O123 Cd113 2.240 . S
O123 C121 1.279 . S
O124 Cd114 2.297 . S
O124 C119 1.247 . S
O125 Cd114 2.439 . S
O125 C119 1.208 . S
O126 Cd127 2.223 . S
O126 C134 1.315 . S
Cd127 O126 2.223 . S
Cd127 O130 2.297 . S
Cd127 O131 2.439 . S
Cd127 O137 2.240 . S
Cd128 O129 2.240 . S
Cd128 O136 2.223 . S
Cd128 O138 2.297 . S
Cd128 O139 2.439 . S
O129 Cd128 2.240 . S
O129 C134 1.279 . S
O130 Cd127 2.297 . S
O130 C132 1.247 . S
O131 Cd127 2.439 . S
O131 C132 1.208 . S
C132 O130 1.247 . S
C132 O131 1.208 . S
C133 O138 1.247 1_545 S
C133 O139 1.208 1_545 S
C134 O126 1.315 . S
C134 O129 1.279 . S
C135 O136 1.315 . S
C135 O137 1.279 . S
O136 Cd128 2.223 . S
O136 C135 1.315 . S
O137 Cd127 2.240 . S
O137 C135 1.279 . S
O138 Cd128 2.297 . S
O138 C133 1.247 1_565 S
O139 Cd128 2.439 . S
O139 C133 1.208 1_565 S
O140 Cd141 2.223 . S
O140 C148 1.315 . S
Cd141 O140 2.223 . S
Cd141 O144 2.297 . S
Cd141 O145 2.439 . S
Cd141 O151 2.240 . S
Cd142 O143 2.240 . S
Cd142 O150 2.223 . S
Cd142 O152 2.297 . S
Cd142 O153 2.439 . S
O143 Cd142 2.240 . S
O143 C148 1.279 . S
O144 Cd141 2.297 . S
O144 C146 1.247 . S
O145 Cd141 2.439 . S
O145 C146 1.208 . S
C146 O144 1.247 . S
C146 O145 1.208 . S
C147 O152 1.247 . S
C147 O153 1.208 . S
C148 O140 1.315 . S
C148 O143 1.279 . S
C149 O150 1.315 . S
C149 O151 1.279 . S
O150 Cd142 2.223 . S
O150 C149 1.315 . S
O151 Cd141 2.240 . S
O151 C149 1.279 . S
O152 Cd142 2.297 . S
O152 C147 1.247 . S
O153 Cd142 2.439 . S
O153 C147 1.208 . S
O154 Cd155 2.223 . S
O154 C162 1.315 . S
Cd155 O154 2.223 . S
Cd155 O158 2.297 . S
Cd155 O159 2.439 . S
Cd155 O165 2.240 . S
Cd156 O157 2.240 . S
Cd156 O164 2.223 . S
Cd156 O166 2.297 . S
Cd156 O167 2.439 . S
O157 Cd156 2.240 . S
O157 C162 1.279 . S
O158 Cd155 2.297 . S
O158 C160 1.247 . S
O159 Cd155 2.439 . S
O159 C160 1.208 . S
C160 O158 1.247 . S
C160 O159 1.208 . S
C161 O166 1.247 . S
C161 O167 1.208 . S
C162 O154 1.315 . S
C162 O157 1.279 . S
C163 O164 1.315 . S
C163 O165 1.279 . S
O164 Cd156 2.223 . S
O164 C163 1.315 . S
O165 Cd155 2.240 . S
O165 C163 1.279 . S
O166 Cd156 2.297 . S
O166 C161 1.247 . S
O167 Cd156 2.439 . S
O167 C161 1.208 . S
O168 Cd169 2.223 . S
O168 C176 1.315 . S
Cd169 O168 2.223 . S
Cd169 O172 2.297 . S
Cd169 O173 2.439 . S
Cd169 O179 2.240 . S
Cd170 O171 2.240 . S
Cd170 O178 2.223 . S
Cd170 O180 2.297 . S
Cd170 O181 2.439 . S
O171 Cd170 2.240 . S
O171 C176 1.279 . S
O172 Cd169 2.297 . S
O172 C174 1.247 . S
O173 Cd169 2.439 . S
O173 C174 1.208 . S
C174 O172 1.247 . S
C174 O173 1.208 . S
C175 O180 1.247 1_565 S
C175 O181 1.208 1_565 S
C176 O168 1.315 . S
C176 O171 1.279 . S
C177 O178 1.315 . S
C177 O179 1.279 . S
O178 Cd170 2.223 . S
O178 C177 1.315 . S
O179 Cd169 2.240 . S
O179 C177 1.279 . S
O180 Cd170 2.297 . S
O180 C175 1.247 1_545 S
O181 Cd170 2.439 . S
O181 C175 1.208 1_545 S
O182 Cd183 2.223 . S
O182 C190 1.315 . S
Cd183 O182 2.223 . S
Cd183 O186 2.297 . S
Cd183 O187 2.439 . S
Cd183 O193 2.240 . S
Cd184 O185 2.240 . S
Cd184 O192 2.223 . S
Cd184 O194 2.297 . S
Cd184 O195 2.439 . S
O185 Cd184 2.240 . S
O185 C190 1.279 . S
O186 Cd183 2.297 . S
O186 C188 1.247 . S
O187 Cd183 2.439 . S
O187 C188 1.208 . S
C188 O186 1.247 . S
C188 O187 1.208 . S
C189 O194 1.254 1_455 S
C189 O195 1.167 1_455 S
C190 O182 1.315 . S
C190 O185 1.279 . S
C191 O192 1.315 . S
C191 O193 1.279 . S
O192 Cd184 2.223 . S
O192 C191 1.315 . S
O193 Cd183 2.240 . S
O193 C191 1.279 . S
O194 Cd184 2.297 . S
O194 C189 1.254 1_655 S
O195 Cd184 2.439 . S
O195 C189 1.167 1_655 S
O196 Cd197 2.223 . S
O196 C204 1.315 . S
Cd197 O196 2.223 . S
Cd197 O200 2.297 . S
Cd197 O201 2.439 . S
Cd197 O207 2.240 . S
Cd198 O199 2.240 . S
Cd198 O206 2.223 . S
Cd198 O208 2.297 . S
Cd198 O209 2.439 . S
O199 Cd198 2.240 . S
O199 C204 1.279 . S
O200 Cd197 2.297 . S
O200 C202 1.247 . S
O201 Cd197 2.439 . S
O201 C202 1.208 . S
C202 O200 1.247 . S
C202 O201 1.208 . S
C203 O208 1.247 . S
C203 O209 1.208 . S
C204 O196 1.315 . S
C204 O199 1.279 . S
C205 O206 1.315 . S
C205 O207 1.279 . S
O206 Cd198 2.223 . S
O206 C205 1.315 . S
O207 Cd197 2.240 . S
O207 C205 1.279 . S
O208 Cd198 2.297 . S
O208 C203 1.247 . S
O209 Cd198 2.439 . S
O209 C203 1.208 . S
O210 Cd211 2.223 . S
O210 C218 1.315 . S
Cd211 O210 2.223 . S
Cd211 O214 2.297 . S
Cd211 O215 2.439 . S
Cd211 O221 2.240 . S
Cd212 O213 2.240 . S
Cd212 O220 2.223 . S
Cd212 O222 2.297 . S
Cd212 O223 2.439 . S
O213 Cd212 2.240 . S
O213 C218 1.279 . S
O214 Cd211 2.297 . S
O214 C216 1.247 . S
O215 Cd211 2.439 . S
O215 C216 1.208 . S
C216 O214 1.247 . S
C216 O215 1.208 . S
C217 O222 1.247 . S
C217 O223 1.208 . S
C218 O210 1.315 . S
C218 O213 1.279 . S
C219 O220 1.315 . S
C219 O221 1.279 . S
O220 Cd212 2.223 . S
O220 C219 1.315 . S
O221 Cd211 2.240 . S
O221 C219 1.279 . S
O222 Cd212 2.297 . S
O222 C217 1.247 . S
O223 Cd212 2.439 . S
O223 C217 1.208 . S
O224 Cd225 2.223 . S
O224 C232 1.315 . S
Cd225 O224 2.223 . S
Cd225 O228 2.297 . S
Cd225 O229 2.439 . S
Cd225 O235 2.240 . S
Cd226 O227 2.240 . S
Cd226 O234 2.223 . S
Cd226 O236 2.297 . S
Cd226 O237 2.439 . S
O227 Cd226 2.240 . S
O227 C232 1.279 . S
O228 Cd225 2.297 . S
O228 C230 1.247 . S
O229 Cd225 2.439 . S
O229 C230 1.208 . S
C230 O228 1.247 . S
C230 O229 1.208 . S
C231 O236 1.247 . S
C231 O237 1.208 . S
C232 O224 1.315 . S
C232 O227 1.279 . S
C233 O234 1.315 . S
C233 O235 1.279 . S
O234 Cd226 2.223 . S
O234 C233 1.315 . S
O235 Cd225 2.240 . S
O235 C233 1.279 . S
O236 Cd226 2.297 . S
O236 C231 1.247 . S
O237 Cd226 2.439 . S
O237 C231 1.208 . S
O238 Cd239 2.223 . S
O238 C246 1.315 . S
Cd239 O238 2.223 . S
Cd239 O242 2.297 . S
Cd239 O243 2.439 . S
Cd239 O249 2.240 . S
Cd240 O241 2.240 . S
Cd240 O248 2.223 . S
Cd240 O250 2.297 . S
Cd240 O251 2.439 . S
O241 Cd240 2.240 . S
O241 C246 1.279 . S
O242 Cd239 2.297 . S
O242 C244 1.247 . S
O243 Cd239 2.439 . S
O243 C244 1.208 . S
C244 O242 1.247 . S
C244 O243 1.208 . S
C245 O250 1.247 . S
C245 O251 1.208 . S
C246 O238 1.315 . S
C246 O241 1.279 . S
C247 O248 1.315 . S
C247 O249 1.279 . S
O248 Cd240 2.223 . S
O248 C247 1.315 . S
O249 Cd239 2.240 . S
O249 C247 1.279 . S
O250 Cd240 2.297 . S
O250 C245 1.247 . S
O251 Cd240 2.439 . S
O251 C245 1.208 . S
H252 O278 0.856 . S
H253 O281 0.854 . S
H254 C289 0.930 . S
H255 C290 0.930 . S
H256 C292 0.930 . S
H257 C293 0.930 . S
H258 C295 0.931 . S
H259 C296 0.930 . S
H260 C298 0.930 . S
H261 C299 0.929 . S
H262 C301 0.930 . S
H263 C302 0.931 . S
H264 C304 0.930 . S
H265 C305 0.929 . S
H266 C307 0.931 . S
H267 C308 0.930 . S
H268 C310 0.930 . S
H269 C311 0.932 . S
H270 C313 0.930 . S
H271 C314 0.929 . S
H272 C316 0.931 . S
H273 C317 0.930 . S
H274 C319 0.929 . S
H275 C320 0.931 . S
H276 C322 0.930 . S
H277 C323 0.929 . S
O278 H252 0.856 . S
O278 C324 1.300 . S
O279 C324 1.209 . S
O280 C325 1.199 . S
O281 H253 0.854 . S
O281 C325 1.297 . S
C282 C283 1.404 . S
C282 C287 1.397 . S
C282 C288 1.492 . S
C283 C282 1.404 . S
C283 C284 1.396 . S
C283 C294 1.492 . S
C284 C283 1.396 . S
C284 C285 1.397 . S
C284 C300 1.509 . S
C285 C284 1.397 . S
C285 C286 1.412 . S
C285 C306 1.485 . S
C286 C285 1.412 . S
C286 C287 1.388 . S
C286 C312 1.490 . S
C287 C282 1.397 . S
C287 C286 1.388 . S
C287 C318 1.519 . S
C288 C282 1.492 . S
C288 C289 1.363 . S
C288 C293 1.390 . S
C289 H254 0.930 . S
C289 C288 1.363 . S
C289 C290 1.372 . S
C290 H255 0.930 . S
C290 C289 1.372 . S
C290 C291 1.383 . S
C291 C290 1.383 . S
C291 C292 1.395 . S
C292 H256 0.930 . S
C292 C291 1.395 . S
C292 C293 1.362 . S
C293 H257 0.930 . S
C293 C288 1.390 . S
C293 C292 1.362 . S
C294 C283 1.492 . S
C294 C295 1.377 . S
C294 C299 1.397 . S
C295 H258 0.931 . S
C295 C294 1.377 . S
C295 C296 1.376 . S
C296 H259 0.930 . S
C296 C295 1.376 . S
C296 C297 1.376 . S
C297 C296 1.376 . S
C297 C298 1.378 . S
C297 C324 1.486 . S
C298 H260 0.930 . S
C298 C297 1.378 . S
C298 C299 1.376 . S
C299 H261 0.929 . S
C299 C294 1.397 . S
C299 C298 1.376 . S
C300 C284 1.509 . S
C300 C301 1.391 . S
C300 C305 1.386 . S
C301 H262 0.930 . S
C301 C300 1.391 . S
C301 C302 1.375 . S
C302 H263 0.931 . S
C302 C301 1.375 . S
C302 C303 1.375 . S
C303 C302 1.375 . S
C303 C304 1.361 . S
C304 H264 0.930 . S
C304 C303 1.361 . S
C304 C305 1.399 . S
C305 H265 0.929 . S
C305 C300 1.386 . S
C305 C304 1.399 . S
C306 C285 1.485 . S
C306 C307 1.394 . S
C306 C311 1.360 . S
C307 H266 0.931 . S
C307 C306 1.394 . S
C307 C308 1.372 . S
C308 H267 0.930 . S
C308 C307 1.372 . S
C308 C309 1.397 . S
C309 C308 1.397 . S
C309 C310 1.390 . S
C309 C325 1.476 . S
C310 H268 0.930 . S
C310 C309 1.390 . S
C310 C311 1.366 . S
C311 H269 0.932 . S
C311 C306 1.360 . S
C311 C310 1.366 . S
C312 C286 1.490 . S
C312 C313 1.380 . S
C312 C317 1.386 . S
C313 H270 0.930 . S
C313 C312 1.380 . S
C313 C314 1.381 . S
C314 H271 0.929 . S
C314 C313 1.381 . S
C314 C315 1.371 . S
C315 C314 1.371 . S
C315 C316 1.380 . S
C316 H272 0.931 . S
C316 C315 1.380 . S
C316 C317 1.387 . S
C317 H273 0.930 . S
C317 C312 1.386 . S
C317 C316 1.387 . S
C318 C287 1.519 . S
C318 C319 1.377 . S
C318 C323 1.361 . S
C319 H274 0.929 . S
C319 C318 1.377 . S
C319 C320 1.386 . S
C320 H275 0.931 . S
C320 C319 1.386 . S
C320 C321 1.363 . S
C321 C320 1.363 . S
C321 C322 1.385 . S
C322 H276 0.930 . S
C322 C321 1.385 . S
C322 C323 1.396 . S
C323 H277 0.929 . S
C323 C318 1.361 . S
C323 C322 1.396 . S
C324 O278 1.300 . S
C324 O279 1.209 . S
C324 C297 1.486 . S
C325 O280 1.199 . S
C325 O281 1.297 . S
C325 C309 1.476 . S
H326 O352 0.856 . S
H327 O355 0.854 . S
H328 C363 0.930 . S
H329 C364 0.930 . S
H330 C366 0.930 . S
H331 C367 0.930 . S
H332 C369 0.931 . S
H333 C370 0.930 . S
H334 C372 0.930 . S
H335 C373 0.929 . S
H336 C375 0.930 . S
H337 C376 0.931 . S
H338 C378 0.930 . S
H339 C379 0.929 . S
H340 C381 0.931 . S
H341 C382 0.930 . S
H342 C384 0.930 . S
H343 C385 0.932 . S
H344 C387 0.930 . S
H345 C388 0.929 . S
H346 C390 0.931 . S
H347 C391 0.930 . S
H348 C393 0.929 . S
H349 C394 0.931 . S
H350 C396 0.930 . S
H351 C397 0.929 . S
O352 H326 0.856 . S
O352 C398 1.300 . S
O353 C398 1.209 . S
O354 C399 1.199 . S
O355 H327 0.854 . S
O355 C399 1.297 . S
C356 C357 1.404 . S
C356 C361 1.397 . S
C356 C362 1.492 . S
C357 C356 1.404 . S
C357 C358 1.396 . S
C357 C368 1.492 . S
C358 C357 1.396 . S
C358 C359 1.397 . S
C358 C374 1.509 . S
C359 C358 1.397 . S
C359 C360 1.412 . S
C359 C380 1.485 . S
C360 C359 1.412 . S
C360 C361 1.388 . S
C360 C386 1.490 . S
C361 C356 1.397 . S
C361 C360 1.388 . S
C361 C392 1.519 . S
C362 C356 1.492 . S
C362 C363 1.363 . S
C362 C367 1.390 . S
C363 H328 0.930 . S
C363 C362 1.363 . S
C363 C364 1.372 . S
C364 H329 0.930 . S
C364 C363 1.372 . S
C364 C365 1.383 . S
C365 C364 1.383 . S
C365 C366 1.395 . S
C366 H330 0.930 . S
C366 C365 1.395 . S
C366 C367 1.362 . S
C367 H331 0.930 . S
C367 C362 1.390 . S
C367 C366 1.362 . S
C368 C357 1.492 . S
C368 C369 1.377 . S
C368 C373 1.397 . S
C369 H332 0.931 . S
C369 C368 1.377 . S
C369 C370 1.376 . S
C370 H333 0.930 . S
C370 C369 1.376 . S
C370 C371 1.376 . S
C371 C370 1.376 . S
C371 C372 1.378 . S
C371 C398 1.486 . S
C372 H334 0.930 . S
C372 C371 1.378 . S
C372 C373 1.376 . S
C373 H335 0.929 . S
C373 C368 1.397 . S
C373 C372 1.376 . S
C374 C358 1.509 . S
C374 C375 1.391 . S
C374 C379 1.386 . S
C375 H336 0.930 . S
C375 C374 1.391 . S
C375 C376 1.375 . S
C376 H337 0.931 . S
C376 C375 1.375 . S
C376 C377 1.375 . S
C377 C376 1.375 . S
C377 C378 1.361 . S
C378 H338 0.930 . S
C378 C377 1.361 . S
C378 C379 1.399 . S
C379 H339 0.929 . S
C379 C374 1.386 . S
C379 C378 1.399 . S
C380 C359 1.485 . S
C380 C381 1.394 . S
C380 C385 1.360 . S
C381 H340 0.931 . S
C381 C380 1.394 . S
C381 C382 1.372 . S
C382 H341 0.930 . S
C382 C381 1.372 . S
C382 C383 1.397 . S
C383 C382 1.397 . S
C383 C384 1.390 . S
C383 C399 1.476 . S
C384 H342 0.930 . S
C384 C383 1.390 . S
C384 C385 1.366 . S
C385 H343 0.932 . S
C385 C380 1.360 . S
C385 C384 1.366 . S
C386 C360 1.490 . S
C386 C387 1.380 . S
C386 C391 1.386 . S
C387 H344 0.930 . S
C387 C386 1.380 . S
C387 C388 1.381 . S
C388 H345 0.929 . S
C388 C387 1.381 . S
C388 C389 1.371 . S
C389 C388 1.371 . S
C389 C390 1.380 . S
C390 H346 0.931 . S
C390 C389 1.380 . S
C390 C391 1.387 . S
C391 H347 0.930 . S
C391 C386 1.386 . S
C391 C390 1.387 . S
C392 C361 1.519 . S
C392 C393 1.377 . S
C392 C397 1.361 . S
C393 H348 0.929 . S
C393 C392 1.377 . S
C393 C394 1.386 . S
C394 H349 0.931 . S
C394 C393 1.386 . S
C394 C395 1.363 . S
C395 C394 1.363 . S
C395 C396 1.385 . S
C396 H350 0.930 . S
C396 C395 1.385 . S
C396 C397 1.396 . S
C397 H351 0.929 . S
C397 C392 1.361 . S
C397 C396 1.396 . S
C398 O352 1.300 . S
C398 O353 1.209 . S
C398 C371 1.486 . S
C399 O354 1.199 . S
C399 O355 1.297 . S
C399 C383 1.476 . S
H400 O426 0.856 . S
H401 O429 0.854 . S
H402 C437 0.930 . S
H403 C438 0.930 . S
H404 C440 0.930 . S
H405 C441 0.930 . S
H406 C443 0.931 . S
H407 C444 0.930 . S
H408 C446 0.930 . S
H409 C447 0.929 . S
H410 C449 0.930 . S
H411 C450 0.931 . S
H412 C452 0.930 . S
H413 C453 0.929 . S
H414 C455 0.931 . S
H415 C456 0.930 . S
H416 C458 0.930 . S
H417 C459 0.932 . S
H418 C461 0.930 . S
H419 C462 0.929 . S
H420 C464 0.931 . S
H421 C465 0.930 . S
H422 C467 0.929 . S
H423 C468 0.931 . S
H424 C470 0.930 . S
H425 C471 0.929 . S
O426 H400 0.856 . S
O426 C472 1.300 . S
O427 C472 1.209 . S
O428 C473 1.199 . S
O429 H401 0.854 . S
O429 C473 1.297 . S
C430 C431 1.404 . S
C430 C435 1.397 . S
C430 C436 1.492 . S
C431 C430 1.404 . S
C431 C432 1.396 . S
C431 C442 1.492 . S
C432 C431 1.396 . S
C432 C433 1.397 . S
C432 C448 1.509 . S
C433 C432 1.397 . S
C433 C434 1.412 . S
C433 C454 1.485 . S
C434 C433 1.412 . S
C434 C435 1.388 . S
C434 C460 1.490 . S
C435 C430 1.397 . S
C435 C434 1.388 . S
C435 C466 1.519 . S
C436 C430 1.492 . S
C436 C437 1.363 . S
C436 C441 1.390 . S
C437 H402 0.930 . S
C437 C436 1.363 . S
C437 C438 1.372 . S
C438 H403 0.930 . S
C438 C437 1.372 . S
C438 C439 1.383 . S
C439 C438 1.383 . S
C439 C440 1.395 . S
C440 H404 0.930 . S
C440 C439 1.395 . S
C440 C441 1.362 . S
C441 H405 0.930 . S
C441 C436 1.390 . S
C441 C440 1.362 . S
C442 C431 1.492 . S
C442 C443 1.377 . S
C442 C447 1.397 . S
C443 H406 0.931 . S
C443 C442 1.377 . S
C443 C444 1.376 . S
C444 H407 0.930 . S
C444 C443 1.376 . S
C444 C445 1.376 . S
C445 C444 1.376 . S
C445 C446 1.378 . S
C445 C472 1.486 . S
C446 H408 0.930 . S
C446 C445 1.378 . S
C446 C447 1.376 . S
C447 H409 0.929 . S
C447 C442 1.397 . S
C447 C446 1.376 . S
C448 C432 1.509 . S
C448 C449 1.391 . S
C448 C453 1.386 . S
C449 H410 0.930 . S
C449 C448 1.391 . S
C449 C450 1.375 . S
C450 H411 0.931 . S
C450 C449 1.375 . S
C450 C451 1.375 . S
C451 C450 1.375 . S
C451 C452 1.361 . S
C452 H412 0.930 . S
C452 C451 1.361 . S
C452 C453 1.399 . S
C453 H413 0.929 . S
C453 C448 1.386 . S
C453 C452 1.399 . S
C454 C433 1.485 . S
C454 C455 1.394 . S
C454 C459 1.360 . S
C455 H414 0.931 . S
C455 C454 1.394 . S
C455 C456 1.372 . S
C456 H415 0.930 . S
C456 C455 1.372 . S
C456 C457 1.397 . S
C457 C456 1.397 . S
C457 C458 1.390 . S
C457 C473 1.476 . S
C458 H416 0.930 . S
C458 C457 1.390 . S
C458 C459 1.366 . S
C459 H417 0.932 . S
C459 C454 1.360 . S
C459 C458 1.366 . S
C460 C434 1.490 . S
C460 C461 1.380 . S
C460 C465 1.386 . S
C461 H418 0.930 . S
C461 C460 1.380 . S
C461 C462 1.381 . S
C462 H419 0.929 . S
C462 C461 1.381 . S
C462 C463 1.371 . S
C463 C462 1.371 . S
C463 C464 1.380 . S
C464 H420 0.931 . S
C464 C463 1.380 . S
C464 C465 1.387 . S
C465 H421 0.930 . S
C465 C460 1.386 . S
C465 C464 1.387 . S
C466 C435 1.519 . S
C466 C467 1.377 . S
C466 C471 1.361 . S
C467 H422 0.929 . S
C467 C466 1.377 . S
C467 C468 1.386 . S
C468 H423 0.931 . S
C468 C467 1.386 . S
C468 C469 1.363 . S
C469 C468 1.363 . S
C469 C470 1.385 . S
C470 H424 0.930 . S
C470 C469 1.385 . S
C470 C471 1.396 . S
C471 H425 0.929 . S
C471 C466 1.361 . S
C471 C470 1.396 . S
C472 O426 1.300 . S
C472 O427 1.209 . S
C472 C445 1.486 . S
C473 O428 1.199 . S
C473 O429 1.297 . S
C473 C457 1.476 . S
H474 O500 0.856 . S
H475 O503 0.854 . S
H476 C511 0.930 . S
H477 C512 0.930 . S
H478 C514 0.930 . S
H479 C515 0.930 . S
H480 C517 0.931 . S
H481 C518 0.930 . S
H482 C520 0.930 . S
H483 C521 0.929 . S
H484 C523 0.930 . S
H485 C524 0.931 . S
H486 C526 0.930 . S
H487 C527 0.929 . S
H488 C529 0.931 . S
H489 C530 0.930 . S
H490 C532 0.930 . S
H491 C533 0.932 . S
H492 C535 0.930 . S
H493 C536 0.929 . S
H494 C538 0.931 . S
H495 C539 0.930 . S
H496 C541 0.929 . S
H497 C542 0.931 . S
H498 C544 0.930 . S
H499 C545 0.929 . S
O500 H474 0.856 . S
O500 C546 1.300 . S
O501 C546 1.209 . S
O502 C547 1.199 . S
O503 H475 0.854 . S
O503 C547 1.297 . S
C504 C505 1.404 . S
C504 C509 1.397 . S
C504 C510 1.492 . S
C505 C504 1.404 . S
C505 C506 1.396 . S
C505 C516 1.492 . S
C506 C505 1.396 . S
C506 C507 1.397 . S
C506 C522 1.509 . S
C507 C506 1.397 . S
C507 C508 1.412 . S
C507 C528 1.485 . S
C508 C507 1.412 . S
C508 C509 1.388 . S
C508 C534 1.490 . S
C509 C504 1.397 . S
C509 C508 1.388 . S
C509 C540 1.519 . S
C510 C504 1.492 . S
C510 C511 1.363 . S
C510 C515 1.390 . S
C511 H476 0.930 . S
C511 C510 1.363 . S
C511 C512 1.372 . S
C512 H477 0.930 . S
C512 C511 1.372 . S
C512 C513 1.383 . S
C513 C512 1.383 . S
C513 C514 1.395 . S
C514 H478 0.930 . S
C514 C513 1.395 . S
C514 C515 1.362 . S
C515 H479 0.930 . S
C515 C510 1.390 . S
C515 C514 1.362 . S
C516 C505 1.492 . S
C516 C517 1.377 . S
C516 C521 1.397 . S
C517 H480 0.931 . S
C517 C516 1.377 . S
C517 C518 1.376 . S
C518 H481 0.930 . S
C518 C517 1.376 . S
C518 C519 1.376 . S
C519 C518 1.376 . S
C519 C520 1.378 . S
C519 C546 1.486 . S
C520 H482 0.930 . S
C520 C519 1.378 . S
C520 C521 1.376 . S
C521 H483 0.929 . S
C521 C516 1.397 . S
C521 C520 1.376 . S
C522 C506 1.509 . S
C522 C523 1.391 . S
C522 C527 1.386 . S
C523 H484 0.930 . S
C523 C522 1.391 . S
C523 C524 1.375 . S
C524 H485 0.931 . S
C524 C523 1.375 . S
C524 C525 1.375 . S
C525 C524 1.375 . S
C525 C526 1.361 . S
C526 H486 0.930 . S
C526 C525 1.361 . S
C526 C527 1.399 . S
C527 H487 0.929 . S
C527 C522 1.386 . S
C527 C526 1.399 . S
C528 C507 1.485 . S
C528 C529 1.394 . S
C528 C533 1.360 . S
C529 H488 0.931 . S
C529 C528 1.394 . S
C529 C530 1.372 . S
C530 H489 0.930 . S
C530 C529 1.372 . S
C530 C531 1.397 . S
C531 C530 1.397 . S
C531 C532 1.390 . S
C531 C547 1.476 . S
C532 H490 0.930 . S
C532 C531 1.390 . S
C532 C533 1.366 . S
C533 H491 0.932 . S
C533 C528 1.360 . S
C533 C532 1.366 . S
C534 C508 1.490 . S
C534 C535 1.380 . S
C534 C539 1.386 . S
C535 H492 0.930 . S
C535 C534 1.380 . S
C535 C536 1.381 . S
C536 H493 0.929 . S
C536 C535 1.381 . S
C536 C537 1.371 . S
C537 C536 1.371 . S
C537 C538 1.380 . S
C538 H494 0.931 . S
C538 C537 1.380 . S
C538 C539 1.387 . S
C539 H495 0.930 . S
C539 C534 1.386 . S
C539 C538 1.387 . S
C540 C509 1.519 . S
C540 C541 1.377 . S
C540 C545 1.361 . S
C541 H496 0.929 . S
C541 C540 1.377 . S
C541 C542 1.386 . S
C542 H497 0.931 . S
C542 C541 1.386 . S
C542 C543 1.363 . S
C543 C542 1.363 . S
C543 C544 1.385 . S
C544 H498 0.930 . S
C544 C543 1.385 . S
C544 C545 1.396 . S
C545 H499 0.929 . S
C545 C540 1.361 . S
C545 C544 1.396 . S
C546 O500 1.300 . S
C546 O501 1.209 . S
C546 C519 1.486 . S
C547 O502 1.199 . S
C547 O503 1.297 . S
C547 C531 1.476 . S
H548 O574 0.856 . S
H549 O577 0.854 . S
H550 C585 0.930 . S
H551 C586 0.930 . S
H552 C588 0.930 . S
H553 C589 0.930 . S
H554 C591 0.931 . S
H555 C592 0.930 . S
H556 C594 0.930 . S
H557 C595 0.929 . S
H558 C597 0.930 . S
H559 C598 0.931 . S
H560 C600 0.930 . S
H561 C601 0.929 . S
H562 C603 0.931 . S
H563 C604 0.930 . S
H564 C606 0.930 . S
H565 C607 0.932 . S
H566 C609 0.930 . S
H567 C610 0.929 . S
H568 C612 0.931 . S
H569 C613 0.930 . S
H570 C615 0.929 . S
H571 C616 0.931 . S
H572 C618 0.930 . S
H573 C619 0.929 . S
O574 H548 0.856 . S
O574 C620 1.300 . S
O575 C620 1.209 . S
O576 C621 1.199 . S
O577 H549 0.854 . S
O577 C621 1.297 . S
C578 C579 1.404 . S
C578 C583 1.397 . S
C578 C584 1.492 . S
C579 C578 1.404 . S
C579 C580 1.396 . S
C579 C590 1.492 . S
C580 C579 1.396 . S
C580 C581 1.397 . S
C580 C596 1.509 . S
C581 C580 1.397 . S
C581 C582 1.412 . S
C581 C602 1.485 . S
C582 C581 1.412 . S
C582 C583 1.388 . S
C582 C608 1.490 . S
C583 C578 1.397 . S
C583 C582 1.388 . S
C583 C614 1.519 . S
C584 C578 1.492 . S
C584 C585 1.363 . S
C584 C589 1.390 . S
C585 H550 0.930 . S
C585 C584 1.363 . S
C585 C586 1.372 . S
C586 H551 0.930 . S
C586 C585 1.372 . S
C586 C587 1.383 . S
C587 C586 1.383 . S
C587 C588 1.395 . S
C588 H552 0.930 . S
C588 C587 1.395 . S
C588 C589 1.362 . S
C589 H553 0.930 . S
C589 C584 1.390 . S
C589 C588 1.362 . S
C590 C579 1.492 . S
C590 C591 1.377 . S
C590 C595 1.397 . S
C591 H554 0.931 . S
C591 C590 1.377 . S
C591 C592 1.376 . S
C592 H555 0.930 . S
C592 C591 1.376 . S
C592 C593 1.376 . S
C593 C592 1.376 . S
C593 C594 1.378 . S
C593 C620 1.486 . S
C594 H556 0.930 . S
C594 C593 1.378 . S
C594 C595 1.376 . S
C595 H557 0.929 . S
C595 C590 1.397 . S
C595 C594 1.376 . S
C596 C580 1.509 . S
C596 C597 1.391 . S
C596 C601 1.386 . S
C597 H558 0.930 . S
C597 C596 1.391 . S
C597 C598 1.375 . S
C598 H559 0.931 . S
C598 C597 1.375 . S
C598 C599 1.375 . S
C599 C598 1.375 . S
C599 C600 1.361 . S
C600 H560 0.930 . S
C600 C599 1.361 . S
C600 C601 1.399 . S
C601 H561 0.929 . S
C601 C596 1.386 . S
C601 C600 1.399 . S
C602 C581 1.485 . S
C602 C603 1.394 . S
C602 C607 1.360 . S
C603 H562 0.931 . S
C603 C602 1.394 . S
C603 C604 1.372 . S
C604 H563 0.930 . S
C604 C603 1.372 . S
C604 C605 1.397 . S
C605 C604 1.397 . S
C605 C606 1.390 . S
C605 C621 1.476 . S
C606 H564 0.930 . S
C606 C605 1.390 . S
C606 C607 1.366 . S
C607 H565 0.932 . S
C607 C602 1.360 . S
C607 C606 1.366 . S
C608 C582 1.490 . S
C608 C609 1.380 . S
C608 C613 1.386 . S
C609 H566 0.930 . S
C609 C608 1.380 . S
C609 C610 1.381 . S
C610 H567 0.929 . S
C610 C609 1.381 . S
C610 C611 1.371 . S
C611 C610 1.371 . S
C611 C612 1.380 . S
C612 H568 0.931 . S
C612 C611 1.380 . S
C612 C613 1.387 . S
C613 H569 0.930 . S
C613 C608 1.386 . S
C613 C612 1.387 . S
C614 C583 1.519 . S
C614 C615 1.377 . S
C614 C619 1.361 . S
C615 H570 0.929 . S
C615 C614 1.377 . S
C615 C616 1.386 . S
C616 H571 0.931 . S
C616 C615 1.386 . S
C616 C617 1.363 . S
C617 C616 1.363 . S
C617 C618 1.385 . S
C618 H572 0.930 . S
C618 C617 1.385 . S
C618 C619 1.396 . S
C619 H573 0.929 . S
C619 C614 1.361 . S
C619 C618 1.396 . S
C620 O574 1.300 . S
C620 O575 1.209 . S
C620 C593 1.486 . S
C621 O576 1.199 . S
C621 O577 1.297 . S
C621 C605 1.476 . S
H622 O648 0.856 . S
H623 O651 0.854 . S
H624 C659 0.930 . S
H625 C660 0.930 . S
H626 C662 0.930 . S
H627 C663 0.930 . S
H628 C665 0.931 . S
H629 C666 0.930 . S
H630 C668 0.930 . S
H631 C669 0.929 . S
H632 C671 0.930 . S
H633 C672 0.931 . S
H634 C674 0.930 . S
H635 C675 0.929 . S
H636 C677 0.931 . S
H637 C678 0.930 . S
H638 C680 0.930 . S
H639 C681 0.932 . S
H640 C683 0.930 . S
H641 C684 0.929 . S
H642 C686 0.931 . S
H643 C687 0.930 . S
H644 C689 0.929 . S
H645 C690 0.931 . S
H646 C692 0.930 . S
H647 C693 0.929 . S
O648 H622 0.856 . S
O648 C694 1.300 . S
O649 C694 1.209 . S
O650 C695 1.199 . S
O651 H623 0.854 . S
O651 C695 1.297 . S
C652 C653 1.404 . S
C652 C657 1.397 . S
C652 C658 1.492 . S
C653 C652 1.404 . S
C653 C654 1.396 . S
C653 C664 1.492 . S
C654 C653 1.396 . S
C654 C655 1.397 . S
C654 C670 1.509 . S
C655 C654 1.397 . S
C655 C656 1.412 . S
C655 C676 1.485 . S
C656 C655 1.412 . S
C656 C657 1.388 . S
C656 C682 1.490 . S
C657 C652 1.397 . S
C657 C656 1.388 . S
C657 C688 1.519 . S
C658 C652 1.492 . S
C658 C659 1.363 . S
C658 C663 1.390 . S
C659 H624 0.930 . S
C659 C658 1.363 . S
C659 C660 1.372 . S
C660 H625 0.930 . S
C660 C659 1.372 . S
C660 C661 1.383 . S
C661 C660 1.383 . S
C661 C662 1.395 . S
C662 H626 0.930 . S
C662 C661 1.395 . S
C662 C663 1.362 . S
C663 H627 0.930 . S
C663 C658 1.390 . S
C663 C662 1.362 . S
C664 C653 1.492 . S
C664 C665 1.377 . S
C664 C669 1.397 . S
C665 H628 0.931 . S
C665 C664 1.377 . S
C665 C666 1.376 . S
C666 H629 0.930 . S
C666 C665 1.376 . S
C666 C667 1.376 . S
C667 C666 1.376 . S
C667 C668 1.378 . S
C667 C694 1.486 . S
C668 H630 0.930 . S
C668 C667 1.378 . S
C668 C669 1.376 . S
C669 H631 0.929 . S
C669 C664 1.397 . S
C669 C668 1.376 . S
C670 C654 1.509 . S
C670 C671 1.391 . S
C670 C675 1.386 . S
C671 H632 0.930 . S
C671 C670 1.391 . S
C671 C672 1.375 . S
C672 H633 0.931 . S
C672 C671 1.375 . S
C672 C673 1.375 . S
C673 C672 1.375 . S
C673 C674 1.361 . S
C674 H634 0.930 . S
C674 C673 1.361 . S
C674 C675 1.399 . S
C675 H635 0.929 . S
C675 C670 1.386 . S
C675 C674 1.399 . S
C676 C655 1.485 . S
C676 C677 1.394 . S
C676 C681 1.360 . S
C677 H636 0.931 . S
C677 C676 1.394 . S
C677 C678 1.372 . S
C678 H637 0.930 . S
C678 C677 1.372 . S
C678 C679 1.397 . S
C679 C678 1.397 . S
C679 C680 1.390 . S
C679 C695 1.476 . S
C680 H638 0.930 . S
C680 C679 1.390 . S
C680 C681 1.366 . S
C681 H639 0.932 . S
C681 C676 1.360 . S
C681 C680 1.366 . S
C682 C656 1.490 . S
C682 C683 1.380 . S
C682 C687 1.386 . S
C683 H640 0.930 . S
C683 C682 1.380 . S
C683 C684 1.381 . S
C684 H641 0.929 . S
C684 C683 1.381 . S
C684 C685 1.371 . S
C685 C684 1.371 . S
C685 C686 1.380 . S
C686 H642 0.931 . S
C686 C685 1.380 . S
C686 C687 1.387 . S
C687 H643 0.930 . S
C687 C682 1.386 . S
C687 C686 1.387 . S
C688 C657 1.519 . S
C688 C689 1.377 . S
C688 C693 1.361 . S
C689 H644 0.929 . S
C689 C688 1.377 . S
C689 C690 1.386 . S
C690 H645 0.931 . S
C690 C689 1.386 . S
C690 C691 1.363 . S
C691 C690 1.363 . S
C691 C692 1.385 . S
C692 H646 0.930 . S
C692 C691 1.385 . S
C692 C693 1.396 . S
C693 H647 0.929 . S
C693 C688 1.361 . S
C693 C692 1.396 . S
C694 O648 1.300 . S
C694 O649 1.209 . S
C694 C667 1.486 . S
C695 O650 1.199 . S
C695 O651 1.297 . S
C695 C679 1.476 . S
H696 O722 0.856 . S
H697 O725 0.854 . S
H698 C733 0.930 . S
H699 C734 0.930 . S
H700 C736 0.930 . S
H701 C737 0.930 . S
H702 C739 0.931 . S
H703 C740 0.930 . S
H704 C742 0.930 . S
H705 C743 0.929 . S
H706 C745 0.930 . S
H707 C746 0.931 . S
H708 C748 0.930 . S
H709 C749 0.929 . S
H710 C751 0.931 . S
H711 C752 0.930 . S
H712 C754 0.930 . S
H713 C755 0.932 . S
H714 C757 0.930 . S
H715 C758 0.929 . S
H716 C760 0.931 . S
H717 C761 0.930 . S
H718 C763 0.929 . S
H719 C764 0.931 . S
H720 C766 0.930 . S
H721 C767 0.929 . S
O722 H696 0.856 . S
O722 C768 1.300 . S
O723 C768 1.209 . S
O724 C769 1.199 . S
O725 H697 0.854 . S
O725 C769 1.297 . S
C726 C727 1.404 . S
C726 C731 1.397 . S
C726 C732 1.492 . S
C727 C726 1.404 . S
C727 C728 1.396 . S
C727 C738 1.492 . S
C728 C727 1.396 . S
C728 C729 1.397 . S
C728 C744 1.509 . S
C729 C728 1.397 . S
C729 C730 1.412 . S
C729 C750 1.485 . S
C730 C729 1.412 . S
C730 C731 1.388 . S
C730 C756 1.490 . S
C731 C726 1.397 . S
C731 C730 1.388 . S
C731 C762 1.519 . S
C732 C726 1.492 . S
C732 C733 1.363 . S
C732 C737 1.390 . S
C733 H698 0.930 . S
C733 C732 1.363 . S
C733 C734 1.372 . S
C734 H699 0.930 . S
C734 C733 1.372 . S
C734 C735 1.383 . S
C735 C734 1.383 . S
C735 C736 1.395 . S
C736 H700 0.930 . S
C736 C735 1.395 . S
C736 C737 1.362 . S
C737 H701 0.930 . S
C737 C732 1.390 . S
C737 C736 1.362 . S
C738 C727 1.492 . S
C738 C739 1.377 . S
C738 C743 1.397 . S
C739 H702 0.931 . S
C739 C738 1.377 . S
C739 C740 1.376 . S
C740 H703 0.930 . S
C740 C739 1.376 . S
C740 C741 1.376 . S
C741 C740 1.376 . S
C741 C742 1.378 . S
C741 C768 1.486 . S
C742 H704 0.930 . S
C742 C741 1.378 . S
C742 C743 1.376 . S
C743 H705 0.929 . S
C743 C738 1.397 . S
C743 C742 1.376 . S
C744 C728 1.509 . S
C744 C745 1.391 . S
C744 C749 1.386 . S
C745 H706 0.930 . S
C745 C744 1.391 . S
C745 C746 1.375 . S
C746 H707 0.931 . S
C746 C745 1.375 . S
C746 C747 1.375 . S
C747 C746 1.375 . S
C747 C748 1.361 . S
C748 H708 0.930 . S
C748 C747 1.361 . S
C748 C749 1.399 . S
C749 H709 0.929 . S
C749 C744 1.386 . S
C749 C748 1.399 . S
C750 C729 1.485 . S
C750 C751 1.394 . S
C750 C755 1.360 . S
C751 H710 0.931 . S
C751 C750 1.394 . S
C751 C752 1.372 . S
C752 H711 0.930 . S
C752 C751 1.372 . S
C752 C753 1.397 . S
C753 C752 1.397 . S
C753 C754 1.390 . S
C753 C769 1.476 . S
C754 H712 0.930 . S
C754 C753 1.390 . S
C754 C755 1.366 . S
C755 H713 0.932 . S
C755 C750 1.360 . S
C755 C754 1.366 . S
C756 C730 1.490 . S
C756 C757 1.380 . S
C756 C761 1.386 . S
C757 H714 0.930 . S
C757 C756 1.380 . S
C757 C758 1.381 . S
C758 H715 0.929 . S
C758 C757 1.381 . S
C758 C759 1.371 . S
C759 C758 1.371 . S
C759 C760 1.380 . S
C760 H716 0.931 . S
C760 C759 1.380 . S
C760 C761 1.387 . S
C761 H717 0.930 . S
C761 C756 1.386 . S
C761 C760 1.387 . S
C762 C731 1.519 . S
C762 C763 1.377 . S
C762 C767 1.361 . S
C763 H718 0.929 . S
C763 C762 1.377 . S
C763 C764 1.386 . S
C764 H719 0.931 . S
C764 C763 1.386 . S
C764 C765 1.363 . S
C765 C764 1.363 . S
C765 C766 1.385 . S
C766 H720 0.930 . S
C766 C765 1.385 . S
C766 C767 1.396 . S
C767 H721 0.929 . S
C767 C762 1.361 . S
C767 C766 1.396 . S
C768 O722 1.300 . S
C768 O723 1.209 . S
C768 C741 1.486 . S
C769 O724 1.199 . S
C769 O725 1.297 . S
C769 C753 1.476 . S
H770 O796 0.856 . S
H771 O799 0.854 . S
H772 C807 0.930 . S
H773 C808 0.930 . S
H774 C810 0.930 . S
H775 C811 0.930 . S
H776 C813 0.931 . S
H777 C814 0.930 . S
H778 C816 0.930 . S
H779 C817 0.929 . S
H780 C819 0.930 . S
H781 C820 0.931 . S
H782 C822 0.930 . S
H783 C823 0.929 . S
H784 C825 0.931 . S
H785 C826 0.930 . S
H786 C828 0.930 . S
H787 C829 0.932 . S
H788 C831 0.930 . S
H789 C832 0.929 . S
H790 C834 0.931 . S
H791 C835 0.930 . S
H792 C837 0.929 . S
H793 C838 0.931 . S
H794 C840 0.930 . S
H795 C841 0.929 . S
O796 H770 0.856 . S
O796 C842 1.300 . S
O797 C842 1.209 . S
O798 C843 1.199 . S
O799 H771 0.854 . S
O799 C843 1.297 . S
C800 C801 1.404 . S
C800 C805 1.397 . S
C800 C806 1.492 . S
C801 C800 1.404 . S
C801 C802 1.396 . S
C801 C812 1.492 . S
C802 C801 1.396 . S
C802 C803 1.397 . S
C802 C818 1.509 . S
C803 C802 1.397 . S
C803 C804 1.412 . S
C803 C824 1.485 . S
C804 C803 1.412 . S
C804 C805 1.388 . S
C804 C830 1.490 . S
C805 C800 1.397 . S
C805 C804 1.388 . S
C805 C836 1.519 . S
C806 C800 1.492 . S
C806 C807 1.363 . S
C806 C811 1.390 . S
C807 H772 0.930 . S
C807 C806 1.363 . S
C807 C808 1.372 . S
C808 H773 0.930 . S
C808 C807 1.372 . S
C808 C809 1.383 . S
C809 C808 1.383 . S
C809 C810 1.395 . S
C810 H774 0.930 . S
C810 C809 1.395 . S
C810 C811 1.362 . S
C811 H775 0.930 . S
C811 C806 1.390 . S
C811 C810 1.362 . S
C812 C801 1.492 . S
C812 C813 1.377 . S
C812 C817 1.397 . S
C813 H776 0.931 . S
C813 C812 1.377 . S
C813 C814 1.376 . S
C814 H777 0.930 . S
C814 C813 1.376 . S
C814 C815 1.376 . S
C815 C814 1.376 . S
C815 C816 1.378 . S
C815 C842 1.486 . S
C816 H778 0.930 . S
C816 C815 1.378 . S
C816 C817 1.376 . S
C817 H779 0.929 . S
C817 C812 1.397 . S
C817 C816 1.376 . S
C818 C802 1.509 . S
C818 C819 1.391 . S
C818 C823 1.386 . S
C819 H780 0.930 . S
C819 C818 1.391 . S
C819 C820 1.375 . S
C820 H781 0.931 . S
C820 C819 1.375 . S
C820 C821 1.375 . S
C821 C820 1.375 . S
C821 C822 1.361 . S
C822 H782 0.930 . S
C822 C821 1.361 . S
C822 C823 1.399 . S
C823 H783 0.929 . S
C823 C818 1.386 . S
C823 C822 1.399 . S
C824 C803 1.485 . S
C824 C825 1.394 . S
C824 C829 1.360 . S
C825 H784 0.931 . S
C825 C824 1.394 . S
C825 C826 1.372 . S
C826 H785 0.930 . S
C826 C825 1.372 . S
C826 C827 1.397 . S
C827 C826 1.397 . S
C827 C828 1.390 . S
C827 C843 1.476 . S
C828 H786 0.930 . S
C828 C827 1.390 . S
C828 C829 1.366 . S
C829 H787 0.932 . S
C829 C824 1.360 . S
C829 C828 1.366 . S
C830 C804 1.490 . S
C830 C831 1.380 . S
C830 C835 1.386 . S
C831 H788 0.930 . S
C831 C830 1.380 . S
C831 C832 1.381 . S
C832 H789 0.929 . S
C832 C831 1.381 . S
C832 C833 1.371 . S
C833 C832 1.371 . S
C833 C834 1.380 . S
C834 H790 0.931 . S
C834 C833 1.380 . S
C834 C835 1.387 . S
C835 H791 0.930 . S
C835 C830 1.386 . S
C835 C834 1.387 . S
C836 C805 1.519 . S
C836 C837 1.377 . S
C836 C841 1.361 . S
C837 H792 0.929 . S
C837 C836 1.377 . S
C837 C838 1.386 . S
C838 H793 0.931 . S
C838 C837 1.386 . S
C838 C839 1.363 . S
C839 C838 1.363 . S
C839 C840 1.385 . S
C840 H794 0.930 . S
C840 C839 1.385 . S
C840 C841 1.396 . S
C841 H795 0.929 . S
C841 C836 1.361 . S
C841 C840 1.396 . S
C842 O796 1.300 . S
C842 O797 1.209 . S
C842 C815 1.486 . S
C843 O798 1.199 . S
C843 O799 1.297 . S
C843 C827 1.476 . S
H844 O870 0.856 . S
H845 O873 0.854 . S
H846 C881 0.930 . S
H847 C882 0.930 . S
H848 C884 0.930 . S
H849 C885 0.930 . S
H850 C887 0.931 . S
H851 C888 0.930 . S
H852 C890 0.930 . S
H853 C891 0.929 . S
H854 C893 0.930 . S
H855 C894 0.931 . S
H856 C896 0.930 . S
H857 C897 0.929 . S
H858 C899 0.931 . S
H859 C900 0.930 . S
H860 C902 0.930 . S
H861 C903 0.932 . S
H862 C905 0.930 . S
H863 C906 0.929 . S
H864 C908 0.931 . S
H865 C909 0.930 . S
H866 C911 0.929 . S
H867 C912 0.931 . S
H868 C914 0.930 . S
H869 C915 0.929 . S
O870 H844 0.856 . S
O870 C916 1.300 . S
O871 C916 1.209 . S
O872 C917 1.199 . S
O873 H845 0.854 . S
O873 C917 1.297 . S
C874 C875 1.404 . S
C874 C879 1.397 . S
C874 C880 1.492 . S
C875 C874 1.404 . S
C875 C876 1.396 . S
C875 C886 1.492 . S
C876 C875 1.396 . S
C876 C877 1.397 . S
C876 C892 1.509 . S
C877 C876 1.397 . S
C877 C878 1.412 . S
C877 C898 1.485 . S
C878 C877 1.412 . S
C878 C879 1.388 . S
C878 C904 1.490 . S
C879 C874 1.397 . S
C879 C878 1.388 . S
C879 C910 1.519 . S
C880 C874 1.492 . S
C880 C881 1.363 . S
C880 C885 1.390 . S
C881 H846 0.930 . S
C881 C880 1.363 . S
C881 C882 1.372 . S
C882 H847 0.930 . S
C882 C881 1.372 . S
C882 C883 1.383 . S
C883 C882 1.383 . S
C883 C884 1.395 . S
C884 H848 0.930 . S
C884 C883 1.395 . S
C884 C885 1.362 . S
C885 H849 0.930 . S
C885 C880 1.390 . S
C885 C884 1.362 . S
C886 C875 1.492 . S
C886 C887 1.377 . S
C886 C891 1.397 . S
C887 H850 0.931 . S
C887 C886 1.377 . S
C887 C888 1.376 . S
C888 H851 0.930 . S
C888 C887 1.376 . S
C888 C889 1.376 . S
C889 C888 1.376 . S
C889 C890 1.378 . S
C889 C916 1.486 . S
C890 H852 0.930 . S
C890 C889 1.378 . S
C890 C891 1.376 . S
C891 H853 0.929 . S
C891 C886 1.397 . S
C891 C890 1.376 . S
C892 C876 1.509 . S
C892 C893 1.391 . S
C892 C897 1.386 . S
C893 H854 0.930 . S
C893 C892 1.391 . S
C893 C894 1.375 . S
C894 H855 0.931 . S
C894 C893 1.375 . S
C894 C895 1.375 . S
C895 C894 1.375 . S
C895 C896 1.361 . S
C896 H856 0.930 . S
C896 C895 1.361 . S
C896 C897 1.399 . S
C897 H857 0.929 . S
C897 C892 1.386 . S
C897 C896 1.399 . S
C898 C877 1.485 . S
C898 C899 1.394 . S
C898 C903 1.360 . S
C899 H858 0.931 . S
C899 C898 1.394 . S
C899 C900 1.372 . S
C900 H859 0.930 . S
C900 C899 1.372 . S
C900 C901 1.397 . S
C901 C900 1.397 . S
C901 C902 1.390 . S
C901 C917 1.476 . S
C902 H860 0.930 . S
C902 C901 1.390 . S
C902 C903 1.366 . S
C903 H861 0.932 . S
C903 C898 1.360 . S
C903 C902 1.366 . S
C904 C878 1.490 . S
C904 C905 1.380 . S
C904 C909 1.386 . S
C905 H862 0.930 . S
C905 C904 1.380 . S
C905 C906 1.381 . S
C906 H863 0.929 . S
C906 C905 1.381 . S
C906 C907 1.371 . S
C907 C906 1.371 . S
C907 C908 1.380 . S
C908 H864 0.931 . S
C908 C907 1.380 . S
C908 C909 1.387 . S
C909 H865 0.930 . S
C909 C904 1.386 . S
C909 C908 1.387 . S
C910 C879 1.519 . S
C910 C911 1.377 . S
C910 C915 1.361 . S
C911 H866 0.929 . S
C911 C910 1.377 . S
C911 C912 1.386 . S
C912 H867 0.931 . S
C912 C911 1.386 . S
C912 C913 1.363 . S
C913 C912 1.363 . S
C913 C914 1.385 . S
C914 H868 0.930 . S
C914 C913 1.385 . S
C914 C915 1.396 . S
C915 H869 0.929 . S
C915 C910 1.361 . S
C915 C914 1.396 . S
C916 O870 1.300 . S
C916 O871 1.209 . S
C916 C889 1.486 . S
C917 O872 1.199 . S
C917 O873 1.297 . S
C917 C901 1.476 . S
H918 O944 0.856 . S
H919 O947 0.854 . S
H920 C955 0.930 . S
H921 C956 0.930 . S
H922 C958 0.930 . S
H923 C959 0.930 . S
H924 C961 0.931 . S
H925 C962 0.947 . S
H926 C964 0.930 . S
H927 C965 0.929 . S
H928 C967 0.930 . S
H929 C968 0.945 . S
H930 C970 0.930 . S
H931 C971 0.929 . S
H932 C973 0.931 . S
H933 C974 0.930 . S
H934 C976 0.930 . S
H935 C977 0.932 . S
H936 C979 0.930 . S
H937 C980 0.929 . S
H938 C982 0.931 . S
H939 C983 0.930 . S
H940 C985 0.929 . S
H941 C986 0.931 . S
H942 C988 0.930 . S
H943 C989 0.929 . S
O944 H918 0.856 . S
O944 C990 1.300 . S
O945 C990 1.209 . S
O946 C991 1.199 1_655 S
O947 H919 0.854 . S
O947 C991 1.297 . S
C948 C949 1.404 . S
C948 C953 1.394 . S
C948 C954 1.492 . S
C949 C948 1.404 . S
C949 C950 1.396 . S
C949 C960 1.492 . S
C950 C949 1.396 . S
C950 C951 1.397 . S
C950 C966 1.509 . S
C951 C950 1.397 . S
C951 C952 1.427 . S
C951 C972 1.485 . S
C952 C951 1.427 . S
C952 C953 1.398 . S
C952 C978 1.491 1_455 S
C953 C948 1.394 . S
C953 C952 1.398 . S
C953 C984 1.499 1_455 S
C954 C948 1.492 . S
C954 C955 1.363 1_455 S
C954 C959 1.390 . S
C955 H920 0.930 . S
C955 C954 1.363 1_655 S
C955 C956 1.372 . S
C956 H921 0.930 . S
C956 C955 1.372 . S
C956 C957 1.383 . S
C957 C956 1.383 . S
C957 C958 1.395 1_655 S
C958 H922 0.930 . S
C958 C957 1.395 1_455 S
C958 C959 1.362 . S
C959 H923 0.930 . S
C959 C954 1.390 . S
C959 C958 1.362 . S
C960 C949 1.492 . S
C960 C961 1.377 1_455 S
C960 C965 1.397 . S
C961 H924 0.931 . S
C961 C960 1.377 1_655 S
C961 C962 1.373 . S
C962 H925 0.947 . S
C962 C961 1.373 . S
C962 C963 1.363 1_655 S
C963 C962 1.363 1_455 S
C963 C964 1.378 . S
C963 C990 1.486 . S
C964 H926 0.930 . S
C964 C963 1.378 . S
C964 C965 1.376 . S
C965 H927 0.929 . S
C965 C960 1.397 . S
C965 C964 1.376 . S
C966 C950 1.509 . S
C966 C967 1.391 1_455 S
C966 C971 1.386 . S
C967 H928 0.930 . S
C967 C966 1.391 1_655 S
C967 C968 1.392 . S
C968 H929 0.945 . S
C968 C967 1.392 . S
C968 C969 1.345 1_655 S
C969 C968 1.345 1_455 S
C969 C970 1.361 . S
C970 H930 0.930 . S
C970 C969 1.361 . S
C970 C971 1.399 . S
C971 H931 0.929 . S
C971 C966 1.386 . S
C971 C970 1.399 . S
C972 C951 1.485 . S
C972 C973 1.394 1_455 S
C972 C977 1.360 . S
C973 H932 0.931 . S
C973 C972 1.394 1_655 S
C973 C974 1.372 . S
C974 H933 0.930 . S
C974 C973 1.372 . S
C974 C975 1.397 1_655 S
C975 C974 1.397 1_455 S
C975 C976 1.390 . S
C975 C991 1.476 . S
C976 H934 0.930 . S
C976 C975 1.390 . S
C976 C977 1.366 . S
C977 H935 0.932 . S
C977 C972 1.360 . S
C977 C976 1.366 . S
C978 C952 1.491 1_655 S
C978 C979 1.380 . S
C978 C983 1.386 1_655 S
C979 H936 0.930 . S
C979 C978 1.380 . S
C979 C980 1.381 . S
C980 H937 0.929 . S
C980 C979 1.381 . S
C980 C981 1.371 . S
C981 C980 1.371 . S
C981 C982 1.380 1_655 S
C982 H938 0.931 . S
C982 C981 1.380 1_455 S
C982 C983 1.387 . S
C983 H939 0.930 . S
C983 C978 1.386 1_455 S
C983 C982 1.387 . S
C984 C953 1.499 1_655 S
C984 C985 1.381 . S
C984 C989 1.358 1_655 S
C985 H940 0.929 . S
C985 C984 1.381 . S
C985 C986 1.386 . S
C986 H941 0.931 . S
C986 C985 1.386 . S
C986 C987 1.345 1_655 S
C987 C986 1.345 1_455 S
C987 C988 1.413 . S
C988 H942 0.930 . S
C988 C987 1.413 . S
C988 C989 1.396 . S
C989 H943 0.929 . S
C989 C984 1.358 1_455 S
C989 C988 1.396 . S
C990 O944 1.300 . S
C990 O945 1.209 . S
C990 C963 1.486 . S
C991 O946 1.199 1_455 S
C991 O947 1.297 . S
C991 C975 1.476 . S
H992 O1018 0.856 . S
H993 O1021 0.854 . S
H994 C1029 0.930 . S
H995 C1030 0.930 . S
H996 C1032 0.930 . S
H997 C1033 0.930 . S
H998 C1035 0.931 . S
H999 C1036 0.930 . S
H1000 C1038 0.930 . S
H1001 C1039 0.929 . S
H1002 C1041 0.930 . S
H1003 C1042 0.931 . S
H1004 C1044 0.930 . S
H1005 C1045 0.929 . S
H1006 C1047 0.931 . S
H1007 C1048 0.930 . S
H1008 C1050 0.930 . S
H1009 C1051 0.932 . S
H1010 C1053 0.930 . S
H1011 C1054 0.929 . S
H1012 C1056 0.931 . S
H1013 C1057 0.930 . S
H1014 C1059 0.929 . S
H1015 C1060 0.931 . S
H1016 C1062 0.930 . S
H1017 C1063 0.929 . S
O1018 H992 0.856 . S
O1018 C1064 1.300 . S
O1019 C1064 1.209 . S
O1020 C1065 1.199 . S
O1021 H993 0.854 . S
O1021 C1065 1.297 . S
C1022 C1023 1.404 . S
C1022 C1027 1.397 . S
C1022 C1028 1.492 . S
C1023 C1022 1.404 . S
C1023 C1024 1.396 . S
C1023 C1034 1.492 . S
C1024 C1023 1.396 . S
C1024 C1025 1.397 . S
C1024 C1040 1.509 . S
C1025 C1024 1.397 . S
C1025 C1026 1.412 . S
C1025 C1046 1.485 . S
C1026 C1025 1.412 . S
C1026 C1027 1.388 . S
C1026 C1052 1.490 . S
C1027 C1022 1.397 . S
C1027 C1026 1.388 . S
C1027 C1058 1.519 . S
C1028 C1022 1.492 . S
C1028 C1029 1.363 . S
C1028 C1033 1.390 . S
C1029 H994 0.930 . S
C1029 C1028 1.363 . S
C1029 C1030 1.372 . S
C1030 H995 0.930 . S
C1030 C1029 1.372 . S
C1030 C1031 1.383 . S
C1031 C1030 1.383 . S
C1031 C1032 1.395 . S
C1032 H996 0.930 . S
C1032 C1031 1.395 . S
C1032 C1033 1.362 . S
C1033 H997 0.930 . S
C1033 C1028 1.390 . S
C1033 C1032 1.362 . S
C1034 C1023 1.492 . S
C1034 C1035 1.377 . S
C1034 C1039 1.397 . S
C1035 H998 0.931 . S
C1035 C1034 1.377 . S
C1035 C1036 1.376 . S
C1036 H999 0.930 . S
C1036 C1035 1.376 . S
C1036 C1037 1.376 . S
C1037 C1036 1.376 . S
C1037 C1038 1.378 . S
C1037 C1064 1.486 . S
C1038 H1000 0.930 . S
C1038 C1037 1.378 . S
C1038 C1039 1.376 . S
C1039 H1001 0.929 . S
C1039 C1034 1.397 . S
C1039 C1038 1.376 . S
C1040 C1024 1.509 . S
C1040 C1041 1.391 . S
C1040 C1045 1.386 . S
C1041 H1002 0.930 . S
C1041 C1040 1.391 . S
C1041 C1042 1.375 . S
C1042 H1003 0.931 . S
C1042 C1041 1.375 . S
C1042 C1043 1.375 . S
C1043 C1042 1.375 . S
C1043 C1044 1.361 . S
C1044 H1004 0.930 . S
C1044 C1043 1.361 . S
C1044 C1045 1.399 . S
C1045 H1005 0.929 . S
C1045 C1040 1.386 . S
C1045 C1044 1.399 . S
C1046 C1025 1.485 . S
C1046 C1047 1.394 . S
C1046 C1051 1.360 . S
C1047 H1006 0.931 . S
C1047 C1046 1.394 . S
C1047 C1048 1.372 . S
C1048 H1007 0.930 . S
C1048 C1047 1.372 . S
C1048 C1049 1.397 . S
C1049 C1048 1.397 . S
C1049 C1050 1.390 . S
C1049 C1065 1.476 . S
C1050 H1008 0.930 . S
C1050 C1049 1.390 . S
C1050 C1051 1.366 . S
C1051 H1009 0.932 . S
C1051 C1046 1.360 . S
C1051 C1050 1.366 . S
C1052 C1026 1.490 . S
C1052 C1053 1.380 . S
C1052 C1057 1.386 . S
C1053 H1010 0.930 . S
C1053 C1052 1.380 . S
C1053 C1054 1.381 . S
C1054 H1011 0.929 . S
C1054 C1053 1.381 . S
C1054 C1055 1.371 . S
C1055 C1054 1.371 . S
C1055 C1056 1.380 . S
C1056 H1012 0.931 . S
C1056 C1055 1.380 . S
C1056 C1057 1.387 . S
C1057 H1013 0.930 . S
C1057 C1052 1.386 . S
C1057 C1056 1.387 . S
C1058 C1027 1.519 . S
C1058 C1059 1.377 . S
C1058 C1063 1.361 . S
C1059 H1014 0.929 . S
C1059 C1058 1.377 . S
C1059 C1060 1.386 . S
C1060 H1015 0.931 . S
C1060 C1059 1.386 . S
C1060 C1061 1.363 . S
C1061 C1060 1.363 . S
C1061 C1062 1.385 . S
C1062 H1016 0.930 . S
C1062 C1061 1.385 . S
C1062 C1063 1.396 . S
C1063 H1017 0.929 . S
C1063 C1058 1.361 . S
C1063 C1062 1.396 . S
C1064 O1018 1.300 . S
C1064 O1019 1.209 . S
C1064 C1037 1.486 . S
C1065 O1020 1.199 . S
C1065 O1021 1.297 . S
C1065 C1049 1.476 . S
H1066 O1092 0.856 . S
H1067 O1095 0.854 . S
H1068 C1103 0.930 . S
H1069 C1104 0.930 . S
H1070 C1106 0.930 . S
H1071 C1107 0.930 . S
H1072 C1109 0.931 . S
H1073 C1110 0.930 . S
H1074 C1112 0.930 . S
H1075 C1113 0.929 . S
H1076 C1115 0.930 . S
H1077 C1116 0.931 . S
H1078 C1118 0.930 . S
H1079 C1119 0.929 . S
H1080 C1121 0.931 . S
H1081 C1122 0.930 . S
H1082 C1124 0.930 . S
H1083 C1125 0.932 . S
H1084 C1127 0.930 . S
H1085 C1128 0.929 . S
H1086 C1130 0.931 . S
H1087 C1131 0.930 . S
H1088 C1133 0.929 . S
H1089 C1134 0.931 . S
H1090 C1136 0.930 . S
H1091 C1137 0.929 . S
O1092 H1066 0.856 . S
O1092 C1138 1.300 . S
O1093 C1138 1.209 . S
O1094 C1139 1.199 1_545 S
O1095 H1067 0.854 . S
O1095 C1139 1.297 . S
C1096 C1097 1.404 . S
C1096 C1101 1.412 . S
C1096 C1102 1.492 . S
C1097 C1096 1.404 . S
C1097 C1098 1.396 . S
C1097 C1108 1.492 . S
C1098 C1097 1.396 . S
C1098 C1099 1.397 . S
C1098 C1114 1.509 . S
C1099 C1098 1.397 . S
C1099 C1100 1.408 . S
C1099 C1120 1.485 . S
C1100 C1099 1.408 . S
C1100 C1101 1.377 . S
C1100 C1126 1.483 1_565 S
C1101 C1096 1.412 . S
C1101 C1100 1.377 . S
C1101 C1132 1.534 . S
C1102 C1096 1.492 . S
C1102 C1103 1.363 1_565 S
C1102 C1107 1.390 . S
C1103 H1068 0.930 . S
C1103 C1102 1.363 1_545 S
C1103 C1104 1.372 . S
C1104 H1069 0.930 . S
C1104 C1103 1.372 . S
C1104 C1105 1.383 . S
C1105 C1104 1.383 . S
C1105 C1106 1.395 1_545 S
C1106 H1070 0.930 . S
C1106 C1105 1.395 1_565 S
C1106 C1107 1.362 . S
C1107 H1071 0.930 . S
C1107 C1102 1.390 . S
C1107 C1106 1.362 . S
C1108 C1097 1.492 . S
C1108 C1109 1.377 1_565 S
C1108 C1113 1.397 . S
C1109 H1072 0.931 . S
C1109 C1108 1.377 1_545 S
C1109 C1110 1.376 . S
C1110 H1073 0.930 . S
C1110 C1109 1.376 . S
C1110 C1111 1.376 1_545 S
C1111 C1110 1.376 1_565 S
C1111 C1112 1.378 . S
C1111 C1138 1.486 . S
C1112 H1074 0.930 . S
C1112 C1111 1.378 . S
C1112 C1113 1.376 . S
C1113 H1075 0.929 . S
C1113 C1108 1.397 . S
C1113 C1112 1.376 . S
C1114 C1098 1.509 . S
C1114 C1115 1.391 1_565 S
C1114 C1119 1.386 . S
C1115 H1076 0.930 . S
C1115 C1114 1.391 1_545 S
C1115 C1116 1.375 . S
C1116 H1077 0.931 . S
C1116 C1115 1.375 . S
C1116 C1117 1.375 1_545 S
C1117 C1116 1.375 1_565 S
C1117 C1118 1.361 . S
C1118 H1078 0.930 . S
C1118 C1117 1.361 . S
C1118 C1119 1.399 . S
C1119 H1079 0.929 . S
C1119 C1114 1.386 . S
C1119 C1118 1.399 . S
C1120 C1099 1.485 . S
C1120 C1121 1.394 1_565 S
C1120 C1125 1.360 . S
C1121 H1080 0.931 . S
C1121 C1120 1.394 1_545 S
C1121 C1122 1.372 . S
C1122 H1081 0.930 . S
C1122 C1121 1.372 . S
C1122 C1123 1.397 1_545 S
C1123 C1122 1.397 1_565 S
C1123 C1124 1.390 . S
C1123 C1139 1.476 . S
C1124 H1082 0.930 . S
C1124 C1123 1.390 . S
C1124 C1125 1.366 . S
C1125 H1083 0.932 . S
C1125 C1120 1.360 . S
C1125 C1124 1.366 . S
C1126 C1100 1.483 1_545 S
C1126 C1127 1.380 . S
C1126 C1131 1.386 1_545 S
C1127 H1084 0.930 . S
C1127 C1126 1.380 . S
C1127 C1128 1.381 . S
C1128 H1085 0.929 . S
C1128 C1127 1.381 . S
C1128 C1129 1.371 . S
C1129 C1128 1.371 . S
C1129 C1130 1.380 1_545 S
C1130 H1086 0.931 . S
C1130 C1129 1.380 1_565 S
C1130 C1131 1.387 . S
C1131 H1087 0.930 . S
C1131 C1126 1.386 1_565 S
C1131 C1130 1.387 . S
C1132 C1101 1.534 . S
C1132 C1133 1.377 1_565 S
C1132 C1137 1.361 . S
C1133 H1088 0.929 . S
C1133 C1132 1.377 1_545 S
C1133 C1134 1.386 . S
C1134 H1089 0.931 . S
C1134 C1133 1.386 . S
C1134 C1135 1.363 1_545 S
C1135 C1134 1.363 1_565 S
C1135 C1136 1.385 . S
C1136 H1090 0.930 . S
C1136 C1135 1.385 . S
C1136 C1137 1.396 . S
C1137 H1091 0.929 . S
C1137 C1132 1.361 . S
C1137 C1136 1.396 . S
C1138 O1092 1.300 . S
C1138 O1093 1.209 . S
C1138 C1111 1.486 . S
C1139 O1094 1.199 1_565 S
C1139 O1095 1.297 . S
C1139 C1123 1.476 . S
H1140 O1166 0.856 . S
H1141 O1169 0.854 . S
H1142 C1177 0.930 . S
H1143 C1178 0.930 . S
H1144 C1180 0.930 . S
H1145 C1181 0.930 . S
H1146 C1183 0.931 . S
H1147 C1184 0.930 . S
H1148 C1186 0.930 . S
H1149 C1187 0.929 . S
H1150 C1189 0.930 . S
H1151 C1190 0.931 . S
H1152 C1192 0.930 . S
H1153 C1193 0.929 . S
H1154 C1195 0.931 . S
H1155 C1196 0.930 . S
H1156 C1198 0.930 . S
H1157 C1199 0.932 . S
H1158 C1201 0.930 . S
H1159 C1202 0.929 . S
H1160 C1204 0.931 . S
H1161 C1205 0.930 . S
H1162 C1207 0.929 . S
H1163 C1208 0.931 . S
H1164 C1210 0.930 . S
H1165 C1211 0.929 . S
O1166 H1140 0.856 . S
O1166 C1212 1.300 . S
O1167 C1212 1.209 1_565 S
O1168 C1213 1.199 1_545 S
O1169 H1141 0.854 . S
O1169 C1213 1.297 . S
C1170 C1171 1.381 . S
C1170 C1175 1.380 1_545 S
C1170 C1176 1.541 . S
C1171 C1170 1.381 . S
C1171 C1172 1.413 . S
C1171 C1182 1.492 . S
C1172 C1171 1.413 . S
C1172 C1173 1.385 1_545 S
C1172 C1188 1.500 . S
C1173 C1172 1.385 1_565 S
C1173 C1174 1.412 . S
C1173 C1194 1.501 . S
C1174 C1173 1.412 . S
C1174 C1175 1.371 . S
C1174 C1200 1.492 . S
C1175 C1170 1.380 1_565 S
C1175 C1174 1.371 . S
C1175 C1206 1.519 . S
C1176 C1170 1.541 . S
C1176 C1177 1.363 . S
C1176 C1181 1.390 1_545 S
C1177 H1142 0.930 . S
C1177 C1176 1.363 . S
C1177 C1178 1.372 . S
C1178 H1143 0.930 . S
C1178 C1177 1.372 . S
C1178 C1179 1.383 . S
C1179 C1178 1.383 . S
C1179 C1180 1.395 1_545 S
C1180 H1144 0.930 . S
C1180 C1179 1.395 1_565 S
C1180 C1181 1.362 . S
C1181 H1145 0.930 . S
C1181 C1176 1.390 1_565 S
C1181 C1180 1.362 . S
C1182 C1171 1.492 . S
C1182 C1183 1.377 . S
C1182 C1187 1.397 1_545 S
C1183 H1146 0.931 . S
C1183 C1182 1.377 . S
C1183 C1184 1.376 . S
C1184 H1147 0.930 . S
C1184 C1183 1.376 . S
C1184 C1185 1.376 . S
C1185 C1184 1.376 . S
C1185 C1186 1.378 1_545 S
C1185 C1212 1.486 . S
C1186 H1148 0.930 . S
C1186 C1185 1.378 1_565 S
C1186 C1187 1.376 . S
C1187 H1149 0.929 . S
C1187 C1182 1.397 1_565 S
C1187 C1186 1.376 . S
C1188 C1172 1.500 . S
C1188 C1189 1.393 . S
C1188 C1193 1.384 1_545 S
C1189 H1150 0.930 . S
C1189 C1188 1.393 . S
C1189 C1190 1.375 . S
C1190 H1151 0.931 . S
C1190 C1189 1.375 . S
C1190 C1191 1.347 1_545 S
C1191 C1190 1.347 1_565 S
C1191 C1192 1.378 . S
C1192 H1152 0.930 . S
C1192 C1191 1.378 . S
C1192 C1193 1.399 . S
C1193 H1153 0.929 . S
C1193 C1188 1.384 1_565 S
C1193 C1192 1.399 . S
C1194 C1173 1.501 . S
C1194 C1195 1.394 1_565 S
C1194 C1199 1.360 . S
C1195 H1154 0.931 . S
C1195 C1194 1.394 1_545 S
C1195 C1196 1.372 . S
C1196 H1155 0.930 . S
C1196 C1195 1.372 . S
C1196 C1197 1.397 1_545 S
C1197 C1196 1.397 1_565 S
C1197 C1198 1.390 . S
C1197 C1213 1.476 . S
C1198 H1156 0.930 . S
C1198 C1197 1.390 . S
C1198 C1199 1.366 . S
C1199 H1157 0.932 . S
C1199 C1194 1.360 . S
C1199 C1198 1.366 . S
C1200 C1174 1.492 . S
C1200 C1201 1.366 1_565 S
C1200 C1205 1.403 . S
C1201 H1158 0.930 . S
C1201 C1200 1.366 1_545 S
C1201 C1202 1.381 . S
C1202 H1159 0.929 . S
C1202 C1201 1.381 . S
C1202 C1203 1.452 . S
C1203 C1202 1.452 . S
C1203 C1204 1.313 1_545 S
C1204 H1160 0.931 . S
C1204 C1203 1.313 1_565 S
C1204 C1205 1.387 . S
C1205 H1161 0.930 . S
C1205 C1200 1.403 . S
C1205 C1204 1.387 . S
C1206 C1175 1.519 . S
C1206 C1207 1.377 1_565 S
C1206 C1211 1.361 . S
C1207 H1162 0.929 . S
C1207 C1206 1.377 1_545 S
C1207 C1208 1.386 . S
C1208 H1163 0.931 . S
C1208 C1207 1.386 . S
C1208 C1209 1.363 1_545 S
C1209 C1208 1.363 1_565 S
C1209 C1210 1.385 . S
C1210 H1164 0.930 . S
C1210 C1209 1.385 . S
C1210 C1211 1.396 . S
C1211 H1165 0.929 . S
C1211 C1206 1.361 . S
C1211 C1210 1.396 . S
C1212 O1166 1.300 . S
C1212 O1167 1.209 1_545 S
C1212 C1185 1.486 . S
C1213 O1168 1.199 1_565 S
C1213 O1169 1.297 . S
C1213 C1197 1.476 . S
H1214 O1240 0.856 . S
H1215 O1243 0.854 . S
H1216 C1251 0.930 . S
H1217 C1252 0.930 . S
H1218 C1254 0.930 . S
H1219 C1255 0.930 . S
H1220 C1257 0.931 . S
H1221 C1258 0.930 . S
H1222 C1260 0.930 . S
H1223 C1261 0.929 . S
H1224 C1263 0.930 . S
H1225 C1264 0.931 . S
H1226 C1266 0.930 . S
H1227 C1267 0.929 . S
H1228 C1269 0.931 . S
H1229 C1270 0.930 . S
H1230 C1272 0.930 . S
H1231 C1273 0.932 . S
H1232 C1275 0.930 . S
H1233 C1276 0.929 . S
H1234 C1278 0.931 . S
H1235 C1279 0.930 . S
H1236 C1281 0.929 . S
H1237 C1282 0.931 . S
H1238 C1284 0.930 . S
H1239 C1285 0.929 . S
O1240 H1214 0.856 . S
O1240 C1286 1.300 . S
O1241 C1286 1.209 1_455 S
O1242 C1287 1.199 1_655 S
O1243 H1215 0.854 . S
O1243 C1287 1.297 . S
C1244 C1245 1.404 . S
C1244 C1249 1.396 1_655 S
C1244 C1250 1.492 . S
C1245 C1244 1.404 . S
C1245 C1246 1.358 . S
C1245 C1256 1.492 . S
C1246 C1245 1.358 . S
C1246 C1247 1.411 1_655 S
C1246 C1262 1.508 . S
C1247 C1246 1.411 1_455 S
C1247 C1248 1.403 . S
C1247 C1268 1.483 . S
C1248 C1247 1.403 . S
C1248 C1249 1.408 . S
C1248 C1274 1.495 . S
C1249 C1244 1.396 1_455 S
C1249 C1248 1.408 . S
C1249 C1280 1.515 . S
C1250 C1244 1.492 . S
C1250 C1251 1.363 . S
C1250 C1255 1.390 1_655 S
C1251 H1216 0.930 . S
C1251 C1250 1.363 . S
C1251 C1252 1.372 . S
C1252 H1217 0.930 . S
C1252 C1251 1.372 . S
C1252 C1253 1.383 . S
C1253 C1252 1.383 . S
C1253 C1254 1.395 1_655 S
C1254 H1218 0.930 . S
C1254 C1253 1.395 1_455 S
C1254 C1255 1.362 . S
C1255 H1219 0.930 . S
C1255 C1250 1.390 1_455 S
C1255 C1254 1.362 . S
C1256 C1245 1.492 . S
C1256 C1257 1.377 . S
C1256 C1261 1.397 1_655 S
C1257 H1220 0.931 . S
C1257 C1256 1.377 . S
C1257 C1258 1.376 . S
C1258 H1221 0.930 . S
C1258 C1257 1.376 . S
C1258 C1259 1.376 . S
C1259 C1258 1.376 . S
C1259 C1260 1.378 1_655 S
C1259 C1286 1.486 . S
C1260 H1222 0.930 . S
C1260 C1259 1.378 1_455 S
C1260 C1261 1.376 . S
C1261 H1223 0.929 . S
C1261 C1256 1.397 1_455 S
C1261 C1260 1.376 . S
C1262 C1246 1.508 . S
C1262 C1263 1.479 . S
C1262 C1267 1.330 1_655 S
C1263 H1224 0.930 . S
C1263 C1262 1.479 . S
C1263 C1264 1.375 . S
C1264 H1225 0.931 . S
C1264 C1263 1.375 . S
C1264 C1265 1.431 . S
C1265 C1264 1.431 . S
C1265 C1266 1.280 1_655 S
C1266 H1226 0.930 . S
C1266 C1265 1.280 1_455 S
C1266 C1267 1.399 . S
C1267 H1227 0.929 . S
C1267 C1262 1.330 1_455 S
C1267 C1266 1.399 . S
C1268 C1247 1.483 . S
C1268 C1269 1.394 1_455 S
C1268 C1273 1.360 . S
C1269 H1228 0.931 . S
C1269 C1268 1.394 1_655 S
C1269 C1270 1.372 . S
C1270 H1229 0.930 . S
C1270 C1269 1.372 . S
C1270 C1271 1.397 1_655 S
C1271 C1270 1.397 1_455 S
C1271 C1272 1.390 . S
C1271 C1287 1.476 . S
C1272 H1230 0.930 . S
C1272 C1271 1.390 . S
C1272 C1273 1.366 . S
C1273 H1231 0.932 . S
C1273 C1268 1.360 . S
C1273 C1272 1.366 . S
C1274 C1248 1.495 . S
C1274 C1275 1.347 1_455 S
C1274 C1279 1.410 . S
C1275 H1232 0.930 . S
C1275 C1274 1.347 1_655 S
C1275 C1276 1.381 . S
C1276 H1233 0.929 . S
C1276 C1275 1.381 . S
C1276 C1277 1.373 1_655 S
C1277 C1276 1.373 1_455 S
C1277 C1278 1.377 . S
C1278 H1234 0.931 . S
C1278 C1277 1.377 . S
C1278 C1279 1.387 . S
C1279 H1235 0.930 . S
C1279 C1274 1.410 . S
C1279 C1278 1.387 . S
C1280 C1249 1.515 . S
C1280 C1281 1.377 1_455 S
C1280 C1285 1.361 . S
C1281 H1236 0.929 . S
C1281 C1280 1.377 1_655 S
C1281 C1282 1.386 . S
C1282 H1237 0.931 . S
C1282 C1281 1.386 . S
C1282 C1283 1.363 1_655 S
C1283 C1282 1.363 1_455 S
C1283 C1284 1.385 . S
C1284 H1238 0.930 . S
C1284 C1283 1.385 . S
C1284 C1285 1.396 . S
C1285 H1239 0.929 . S
C1285 C1280 1.361 . S
C1285 C1284 1.396 . S
C1286 O1240 1.300 . S
C1286 O1241 1.209 1_655 S
C1286 C1259 1.486 . S
C1287 O1242 1.199 1_455 S
C1287 O1243 1.297 . S
C1287 C1271 1.476 . S
H1288 O1314 0.856 . S
H1289 O1317 0.854 . S
H1290 C1325 0.930 . S
H1291 C1326 0.930 . S
H1292 C1328 0.930 . S
H1293 C1329 0.930 . S
H1294 C1331 0.931 . S
H1295 C1332 0.930 . S
H1296 C1334 0.930 . S
H1297 C1335 0.929 . S
H1298 C1337 0.930 . S
H1299 C1338 0.931 . S
H1300 C1340 0.930 . S
H1301 C1341 0.929 . S
H1302 C1343 0.931 . S
H1303 C1344 0.930 . S
H1304 C1346 0.930 . S
H1305 C1347 0.932 . S
H1306 C1349 0.930 . S
H1307 C1350 0.929 . S
H1308 C1352 0.931 . S
H1309 C1353 0.930 . S
H1310 C1355 0.929 . S
H1311 C1356 0.931 . S
H1312 C1358 0.930 . S
H1313 C1359 0.929 . S
O1314 H1288 0.856 . S
O1314 C1360 1.300 . S
O1315 C1360 1.209 . S
O1316 C1361 1.199 . S
O1317 H1289 0.854 . S
O1317 C1361 1.297 . S
C1318 C1319 1.404 . S
C1318 C1323 1.397 . S
C1318 C1324 1.492 . S
C1319 C1318 1.404 . S
C1319 C1320 1.396 . S
C1319 C1330 1.492 . S
C1320 C1319 1.396 . S
C1320 C1321 1.397 . S
C1320 C1336 1.509 . S
C1321 C1320 1.397 . S
C1321 C1322 1.412 . S
C1321 C1342 1.485 . S
C1322 C1321 1.412 . S
C1322 C1323 1.388 . S
C1322 C1348 1.490 . S
C1323 C1318 1.397 . S
C1323 C1322 1.388 . S
C1323 C1354 1.519 . S
C1324 C1318 1.492 . S
C1324 C1325 1.363 . S
C1324 C1329 1.390 . S
C1325 H1290 0.930 . S
C1325 C1324 1.363 . S
C1325 C1326 1.372 . S
C1326 H1291 0.930 . S
C1326 C1325 1.372 . S
C1326 C1327 1.383 . S
C1327 C1326 1.383 . S
C1327 C1328 1.395 . S
C1328 H1292 0.930 . S
C1328 C1327 1.395 . S
C1328 C1329 1.362 . S
C1329 H1293 0.930 . S
C1329 C1324 1.390 . S
C1329 C1328 1.362 . S
C1330 C1319 1.492 . S
C1330 C1331 1.377 . S
C1330 C1335 1.397 . S
C1331 H1294 0.931 . S
C1331 C1330 1.377 . S
C1331 C1332 1.376 . S
C1332 H1295 0.930 . S
C1332 C1331 1.376 . S
C1332 C1333 1.376 . S
C1333 C1332 1.376 . S
C1333 C1334 1.378 . S
C1333 C1360 1.486 . S
C1334 H1296 0.930 . S
C1334 C1333 1.378 . S
C1334 C1335 1.376 . S
C1335 H1297 0.929 . S
C1335 C1330 1.397 . S
C1335 C1334 1.376 . S
C1336 C1320 1.509 . S
C1336 C1337 1.391 . S
C1336 C1341 1.386 . S
C1337 H1298 0.930 . S
C1337 C1336 1.391 . S
C1337 C1338 1.375 . S
C1338 H1299 0.931 . S
C1338 C1337 1.375 . S
C1338 C1339 1.375 . S
C1339 C1338 1.375 . S
C1339 C1340 1.361 . S
C1340 H1300 0.930 . S
C1340 C1339 1.361 . S
C1340 C1341 1.399 . S
C1341 H1301 0.929 . S
C1341 C1336 1.386 . S
C1341 C1340 1.399 . S
C1342 C1321 1.485 . S
C1342 C1343 1.394 . S
C1342 C1347 1.360 . S
C1343 H1302 0.931 . S
C1343 C1342 1.394 . S
C1343 C1344 1.372 . S
C1344 H1303 0.930 . S
C1344 C1343 1.372 . S
C1344 C1345 1.397 . S
C1345 C1344 1.397 . S
C1345 C1346 1.390 . S
C1345 C1361 1.476 . S
C1346 H1304 0.930 . S
C1346 C1345 1.390 . S
C1346 C1347 1.366 . S
C1347 H1305 0.932 . S
C1347 C1342 1.360 . S
C1347 C1346 1.366 . S
C1348 C1322 1.490 . S
C1348 C1349 1.380 . S
C1348 C1353 1.386 . S
C1349 H1306 0.930 . S
C1349 C1348 1.380 . S
C1349 C1350 1.381 . S
C1350 H1307 0.929 . S
C1350 C1349 1.381 . S
C1350 C1351 1.371 . S
C1351 C1350 1.371 . S
C1351 C1352 1.380 . S
C1352 H1308 0.931 . S
C1352 C1351 1.380 . S
C1352 C1353 1.387 . S
C1353 H1309 0.930 . S
C1353 C1348 1.386 . S
C1353 C1352 1.387 . S
C1354 C1323 1.519 . S
C1354 C1355 1.377 . S
C1354 C1359 1.361 . S
C1355 H1310 0.929 . S
C1355 C1354 1.377 . S
C1355 C1356 1.386 . S
C1356 H1311 0.931 . S
C1356 C1355 1.386 . S
C1356 C1357 1.363 . S
C1357 C1356 1.363 . S
C1357 C1358 1.385 . S
C1358 H1312 0.930 . S
C1358 C1357 1.385 . S
C1358 C1359 1.396 . S
C1359 H1313 0.929 . S
C1359 C1354 1.361 . S
C1359 C1358 1.396 . S
C1360 O1314 1.300 . S
C1360 O1315 1.209 . S
C1360 C1333 1.486 . S
C1361 O1316 1.199 . S
C1361 O1317 1.297 . S
C1361 C1345 1.476 . S
H1362 O1388 0.856 . S
H1363 O1391 0.854 . S
H1364 C1399 0.930 . S
H1365 C1400 0.930 . S
H1366 C1402 0.930 . S
H1367 C1403 0.930 . S
H1368 C1405 0.931 . S
H1369 C1406 0.930 . S
H1370 C1408 0.930 . S
H1371 C1409 0.929 . S
H1372 C1411 0.930 . S
H1373 C1412 0.931 . S
H1374 C1414 0.930 . S
H1375 C1415 0.929 . S
H1376 C1417 0.931 . S
H1377 C1418 0.930 . S
H1378 C1420 0.930 . S
H1379 C1421 0.932 . S
H1380 C1423 0.930 . S
H1381 C1424 0.929 . S
H1382 C1426 0.931 . S
H1383 C1427 0.930 . S
H1384 C1429 0.929 . S
H1385 C1430 0.931 . S
H1386 C1432 0.930 . S
H1387 C1433 0.929 . S
O1388 H1362 0.856 . S
O1388 C1434 1.300 . S
O1389 C1434 1.209 . S
O1390 C1435 1.199 . S
O1391 H1363 0.854 . S
O1391 C1435 1.297 . S
C1392 C1393 1.404 . S
C1392 C1397 1.397 . S
C1392 C1398 1.492 . S
C1393 C1392 1.404 . S
C1393 C1394 1.396 . S
C1393 C1404 1.492 . S
C1394 C1393 1.396 . S
C1394 C1395 1.397 . S
C1394 C1410 1.509 . S
C1395 C1394 1.397 . S
C1395 C1396 1.412 . S
C1395 C1416 1.485 . S
C1396 C1395 1.412 . S
C1396 C1397 1.388 . S
C1396 C1422 1.490 . S
C1397 C1392 1.397 . S
C1397 C1396 1.388 . S
C1397 C1428 1.519 . S
C1398 C1392 1.492 . S
C1398 C1399 1.363 . S
C1398 C1403 1.390 . S
C1399 H1364 0.930 . S
C1399 C1398 1.363 . S
C1399 C1400 1.372 . S
C1400 H1365 0.930 . S
C1400 C1399 1.372 . S
C1400 C1401 1.383 . S
C1401 C1400 1.383 . S
C1401 C1402 1.395 . S
C1402 H1366 0.930 . S
C1402 C1401 1.395 . S
C1402 C1403 1.362 . S
C1403 H1367 0.930 . S
C1403 C1398 1.390 . S
C1403 C1402 1.362 . S
C1404 C1393 1.492 . S
C1404 C1405 1.377 . S
C1404 C1409 1.397 . S
C1405 H1368 0.931 . S
C1405 C1404 1.377 . S
C1405 C1406 1.376 . S
C1406 H1369 0.930 . S
C1406 C1405 1.376 . S
C1406 C1407 1.376 . S
C1407 C1406 1.376 . S
C1407 C1408 1.378 . S
C1407 C1434 1.486 . S
C1408 H1370 0.930 . S
C1408 C1407 1.378 . S
C1408 C1409 1.376 . S
C1409 H1371 0.929 . S
C1409 C1404 1.397 . S
C1409 C1408 1.376 . S
C1410 C1394 1.509 . S
C1410 C1411 1.391 . S
C1410 C1415 1.386 . S
C1411 H1372 0.930 . S
C1411 C1410 1.391 . S
C1411 C1412 1.375 . S
C1412 H1373 0.931 . S
C1412 C1411 1.375 . S
C1412 C1413 1.375 . S
C1413 C1412 1.375 . S
C1413 C1414 1.361 . S
C1414 H1374 0.930 . S
C1414 C1413 1.361 . S
C1414 C1415 1.399 . S
C1415 H1375 0.929 . S
C1415 C1410 1.386 . S
C1415 C1414 1.399 . S
C1416 C1395 1.485 . S
C1416 C1417 1.394 . S
C1416 C1421 1.360 . S
C1417 H1376 0.931 . S
C1417 C1416 1.394 . S
C1417 C1418 1.372 . S
C1418 H1377 0.930 . S
C1418 C1417 1.372 . S
C1418 C1419 1.397 . S
C1419 C1418 1.397 . S
C1419 C1420 1.390 . S
C1419 C1435 1.476 . S
C1420 H1378 0.930 . S
C1420 C1419 1.390 . S
C1420 C1421 1.366 . S
C1421 H1379 0.932 . S
C1421 C1416 1.360 . S
C1421 C1420 1.366 . S
C1422 C1396 1.490 . S
C1422 C1423 1.380 . S
C1422 C1427 1.386 . S
C1423 H1380 0.930 . S
C1423 C1422 1.380 . S
C1423 C1424 1.381 . S
C1424 H1381 0.929 . S
C1424 C1423 1.381 . S
C1424 C1425 1.371 . S
C1425 C1424 1.371 . S
C1425 C1426 1.380 . S
C1426 H1382 0.931 . S
C1426 C1425 1.380 . S
C1426 C1427 1.387 . S
C1427 H1383 0.930 . S
C1427 C1422 1.386 . S
C1427 C1426 1.387 . S
C1428 C1397 1.519 . S
C1428 C1429 1.377 . S
C1428 C1433 1.361 . S
C1429 H1384 0.929 . S
C1429 C1428 1.377 . S
C1429 C1430 1.386 . S
C1430 H1385 0.931 . S
C1430 C1429 1.386 . S
C1430 C1431 1.363 . S
C1431 C1430 1.363 . S
C1431 C1432 1.385 . S
C1432 H1386 0.930 . S
C1432 C1431 1.385 . S
C1432 C1433 1.396 . S
C1433 H1387 0.929 . S
C1433 C1428 1.361 . S
C1433 C1432 1.396 . S
C1434 O1388 1.300 . S
C1434 O1389 1.209 . S
C1434 C1407 1.486 . S
C1435 O1390 1.199 . S
C1435 O1391 1.297 . S
C1435 C1419 1.476 . S
H1436 O1462 0.856 . S
H1437 O1465 0.854 . S
H1438 C1473 0.930 . S
H1439 C1474 0.930 . S
H1440 C1476 0.930 . S
H1441 C1477 0.930 . S
H1442 C1479 0.931 . S
H1443 C1480 0.930 . S
H1444 C1482 0.930 . S
H1445 C1483 0.929 . S
H1446 C1485 0.930 . S
H1447 C1486 0.931 . S
H1448 C1488 0.930 . S
H1449 C1489 0.929 . S
H1450 C1491 0.931 . S
H1451 C1492 0.930 . S
H1452 C1494 0.930 . S
H1453 C1495 0.932 . S
H1454 C1497 0.930 . S
H1455 C1498 0.929 . S
H1456 C1500 0.931 . S
H1457 C1501 0.930 . S
H1458 C1503 0.929 . S
H1459 C1504 0.931 . S
H1460 C1506 0.930 . S
H1461 C1507 0.929 . S
O1462 H1436 0.856 . S
O1462 C1508 1.300 . S
O1463 C1508 1.209 . S
O1464 C1509 1.199 . S
O1465 H1437 0.854 . S
O1465 C1509 1.297 . S
C1466 C1467 1.404 . S
C1466 C1471 1.397 . S
C1466 C1472 1.492 . S
C1467 C1466 1.404 . S
C1467 C1468 1.396 . S
C1467 C1478 1.492 . S
C1468 C1467 1.396 . S
C1468 C1469 1.397 . S
C1468 C1484 1.509 . S
C1469 C1468 1.397 . S
C1469 C1470 1.412 . S
C1469 C1490 1.485 . S
C1470 C1469 1.412 . S
C1470 C1471 1.388 . S
C1470 C1496 1.490 . S
C1471 C1466 1.397 . S
C1471 C1470 1.388 . S
C1471 C1502 1.519 . S
C1472 C1466 1.492 . S
C1472 C1473 1.363 . S
C1472 C1477 1.390 . S
C1473 H1438 0.930 . S
C1473 C1472 1.363 . S
C1473 C1474 1.372 . S
C1474 H1439 0.930 . S
C1474 C1473 1.372 . S
C1474 C1475 1.383 . S
C1475 C1474 1.383 . S
C1475 C1476 1.395 . S
C1476 H1440 0.930 . S
C1476 C1475 1.395 . S
C1476 C1477 1.362 . S
C1477 H1441 0.930 . S
C1477 C1472 1.390 . S
C1477 C1476 1.362 . S
C1478 C1467 1.492 . S
C1478 C1479 1.377 . S
C1478 C1483 1.397 . S
C1479 H1442 0.931 . S
C1479 C1478 1.377 . S
C1479 C1480 1.376 . S
C1480 H1443 0.930 . S
C1480 C1479 1.376 . S
C1480 C1481 1.376 . S
C1481 C1480 1.376 . S
C1481 C1482 1.378 . S
C1481 C1508 1.486 . S
C1482 H1444 0.930 . S
C1482 C1481 1.378 . S
C1482 C1483 1.376 . S
C1483 H1445 0.929 . S
C1483 C1478 1.397 . S
C1483 C1482 1.376 . S
C1484 C1468 1.509 . S
C1484 C1485 1.391 . S
C1484 C1489 1.386 . S
C1485 H1446 0.930 . S
C1485 C1484 1.391 . S
C1485 C1486 1.375 . S
C1486 H1447 0.931 . S
C1486 C1485 1.375 . S
C1486 C1487 1.375 . S
C1487 C1486 1.375 . S
C1487 C1488 1.361 . S
C1488 H1448 0.930 . S
C1488 C1487 1.361 . S
C1488 C1489 1.399 . S
C1489 H1449 0.929 . S
C1489 C1484 1.386 . S
C1489 C1488 1.399 . S
C1490 C1469 1.485 . S
C1490 C1491 1.394 . S
C1490 C1495 1.360 . S
C1491 H1450 0.931 . S
C1491 C1490 1.394 . S
C1491 C1492 1.372 . S
C1492 H1451 0.930 . S
C1492 C1491 1.372 . S
C1492 C1493 1.397 . S
C1493 C1492 1.397 . S
C1493 C1494 1.390 . S
C1493 C1509 1.476 . S
C1494 H1452 0.930 . S
C1494 C1493 1.390 . S
C1494 C1495 1.366 . S
C1495 H1453 0.932 . S
C1495 C1490 1.360 . S
C1495 C1494 1.366 . S
C1496 C1470 1.490 . S
C1496 C1497 1.380 . S
C1496 C1501 1.386 . S
C1497 H1454 0.930 . S
C1497 C1496 1.380 . S
C1497 C1498 1.381 . S
C1498 H1455 0.929 . S
C1498 C1497 1.381 . S
C1498 C1499 1.371 . S
C1499 C1498 1.371 . S
C1499 C1500 1.380 . S
C1500 H1456 0.931 . S
C1500 C1499 1.380 . S
C1500 C1501 1.387 . S
C1501 H1457 0.930 . S
C1501 C1496 1.386 . S
C1501 C1500 1.387 . S
C1502 C1471 1.519 . S
C1502 C1503 1.377 . S
C1502 C1507 1.361 . S
C1503 H1458 0.929 . S
C1503 C1502 1.377 . S
C1503 C1504 1.386 . S
C1504 H1459 0.931 . S
C1504 C1503 1.386 . S
C1504 C1505 1.363 . S
C1505 C1504 1.363 . S
C1505 C1506 1.385 . S
C1506 H1460 0.930 . S
C1506 C1505 1.385 . S
C1506 C1507 1.396 . S
C1507 H1461 0.929 . S
C1507 C1502 1.361 . S
C1507 C1506 1.396 . S
C1508 O1462 1.300 . S
C1508 O1463 1.209 . S
C1508 C1481 1.486 . S
C1509 O1464 1.199 . S
C1509 O1465 1.297 . S
C1509 C1493 1.476 . S
H1510 O1536 0.856 . S
H1511 O1539 0.854 . S
H1512 C1547 0.930 . S
H1513 C1548 0.930 . S
H1514 C1550 0.930 . S
H1515 C1551 0.930 . S
H1516 C1553 0.931 . S
H1517 C1554 0.930 . S
H1518 C1556 0.930 . S
H1519 C1557 0.929 . S
H1520 C1559 0.930 . S
H1521 C1560 0.931 . S
H1522 C1562 0.930 . S
H1523 C1563 0.929 . S
H1524 C1565 0.931 . S
H1525 C1566 0.930 . S
H1526 C1568 0.930 . S
H1527 C1569 0.932 . S
H1528 C1571 0.930 . S
H1529 C1572 0.929 . S
H1530 C1574 0.931 . S
H1531 C1575 0.930 . S
H1532 C1577 0.929 . S
H1533 C1578 0.931 . S
H1534 C1580 0.930 . S
H1535 C1581 0.929 . S
O1536 H1510 0.856 . S
O1536 C1582 1.300 . S
O1537 C1582 1.209 . S
O1538 C1583 1.199 . S
O1539 H1511 0.854 . S
O1539 C1583 1.297 . S
C1540 C1541 1.404 . S
C1540 C1545 1.397 . S
C1540 C1546 1.492 . S
C1541 C1540 1.404 . S
C1541 C1542 1.396 . S
C1541 C1552 1.492 . S
C1542 C1541 1.396 . S
C1542 C1543 1.397 . S
C1542 C1558 1.509 . S
C1543 C1542 1.397 . S
C1543 C1544 1.412 . S
C1543 C1564 1.485 . S
C1544 C1543 1.412 . S
C1544 C1545 1.388 . S
C1544 C1570 1.490 . S
C1545 C1540 1.397 . S
C1545 C1544 1.388 . S
C1545 C1576 1.519 . S
C1546 C1540 1.492 . S
C1546 C1547 1.363 . S
C1546 C1551 1.390 . S
C1547 H1512 0.930 . S
C1547 C1546 1.363 . S
C1547 C1548 1.372 . S
C1548 H1513 0.930 . S
C1548 C1547 1.372 . S
C1548 C1549 1.383 . S
C1549 C1548 1.383 . S
C1549 C1550 1.395 . S
C1550 H1514 0.930 . S
C1550 C1549 1.395 . S
C1550 C1551 1.362 . S
C1551 H1515 0.930 . S
C1551 C1546 1.390 . S
C1551 C1550 1.362 . S
C1552 C1541 1.492 . S
C1552 C1553 1.377 . S
C1552 C1557 1.397 . S
C1553 H1516 0.931 . S
C1553 C1552 1.377 . S
C1553 C1554 1.376 . S
C1554 H1517 0.930 . S
C1554 C1553 1.376 . S
C1554 C1555 1.376 . S
C1555 C1554 1.376 . S
C1555 C1556 1.378 . S
C1555 C1582 1.486 . S
C1556 H1518 0.930 . S
C1556 C1555 1.378 . S
C1556 C1557 1.376 . S
C1557 H1519 0.929 . S
C1557 C1552 1.397 . S
C1557 C1556 1.376 . S
C1558 C1542 1.509 . S
C1558 C1559 1.391 . S
C1558 C1563 1.386 . S
C1559 H1520 0.930 . S
C1559 C1558 1.391 . S
C1559 C1560 1.375 . S
C1560 H1521 0.931 . S
C1560 C1559 1.375 . S
C1560 C1561 1.375 . S
C1561 C1560 1.375 . S
C1561 C1562 1.361 . S
C1562 H1522 0.930 . S
C1562 C1561 1.361 . S
C1562 C1563 1.399 . S
C1563 H1523 0.929 . S
C1563 C1558 1.386 . S
C1563 C1562 1.399 . S
C1564 C1543 1.485 . S
C1564 C1565 1.394 . S
C1564 C1569 1.360 . S
C1565 H1524 0.931 . S
C1565 C1564 1.394 . S
C1565 C1566 1.372 . S
C1566 H1525 0.930 . S
C1566 C1565 1.372 . S
C1566 C1567 1.397 . S
C1567 C1566 1.397 . S
C1567 C1568 1.390 . S
C1567 C1583 1.476 . S
C1568 H1526 0.930 . S
C1568 C1567 1.390 . S
C1568 C1569 1.366 . S
C1569 H1527 0.932 . S
C1569 C1564 1.360 . S
C1569 C1568 1.366 . S
C1570 C1544 1.490 . S
C1570 C1571 1.380 . S
C1570 C1575 1.386 . S
C1571 H1528 0.930 . S
C1571 C1570 1.380 . S
C1571 C1572 1.381 . S
C1572 H1529 0.929 . S
C1572 C1571 1.381 . S
C1572 C1573 1.371 . S
C1573 C1572 1.371 . S
C1573 C1574 1.380 . S
C1574 H1530 0.931 . S
C1574 C1573 1.380 . S
C1574 C1575 1.387 . S
C1575 H1531 0.930 . S
C1575 C1570 1.386 . S
C1575 C1574 1.387 . S
C1576 C1545 1.519 . S
C1576 C1577 1.377 . S
C1576 C1581 1.361 . S
C1577 H1532 0.929 . S
C1577 C1576 1.377 . S
C1577 C1578 1.386 . S
C1578 H1533 0.931 . S
C1578 C1577 1.386 . S
C1578 C1579 1.363 . S
C1579 C1578 1.363 . S
C1579 C1580 1.385 . S
C1580 H1534 0.930 . S
C1580 C1579 1.385 . S
C1580 C1581 1.396 . S
C1581 H1535 0.929 . S
C1581 C1576 1.361 . S
C1581 C1580 1.396 . S
C1582 O1536 1.300 . S
C1582 O1537 1.209 . S
C1582 C1555 1.486 . S
C1583 O1538 1.199 . S
C1583 O1539 1.297 . S
C1583 C1567 1.476 . S
H1584 C1602 0.951 . S
H1585 C1604 0.951 . S
H1586 C1606 0.950 . S
H1587 C1607 0.950 . S
H1588 C1609 0.950 . S
H1589 C1612 0.950 . S
H1590 C1613 0.950 . S
H1591 C1615 0.950 . S
H1592 C1616 0.950 . S
H1593 C1617 0.951 . S
H1594 C1619 0.951 . S
H1595 C1621 0.950 . S
H1596 C1622 0.947 1_455 S
H1597 C1624 0.950 . S
H1598 C1627 0.950 . S
H1599 C1628 0.950 . S
H1600 C1630 0.950 . S
H1601 C1631 0.950 . S
C1602 H1584 0.951 . S
C1602 C1603 1.395 . S
C1602 C1604 1.388 . S
C1603 C1602 1.395 . S
C1603 C1607 1.327 1_455 S
C1604 H1585 0.951 . S
C1604 C1602 1.388 . S
C1604 C1605 1.366 1_455 S
C1605 C1604 1.366 1_655 S
C1605 C1606 1.414 . S
C1605 C1608 1.499 . S
C1606 H1586 0.950 . S
C1606 C1605 1.414 . S
C1606 C1607 1.374 . S
C1607 H1587 0.950 . S
C1607 C1603 1.327 1_655 S
C1607 C1606 1.374 . S
C1608 C1605 1.499 . S
C1608 C1609 1.373 . S
C1608 C1610 1.389 . S
C1609 H1588 0.950 . S
C1609 C1608 1.373 . S
C1609 C1625 1.377 . S
C1610 C1608 1.389 . S
C1610 C1611 1.524 . S
C1610 C1624 1.377 . S
C1611 C1610 1.524 . S
C1611 C1612 1.397 . S
C1611 C1616 1.363 1_655 S
C1612 H1589 0.950 . S
C1612 C1611 1.397 . S
C1612 C1613 1.334 . S
C1613 H1590 0.950 . S
C1613 C1612 1.334 . S
C1613 C1614 1.287 . S
C1614 C1613 1.287 . S
C1614 C1615 1.524 1_655 S
C1614 H1633 0.913 . S
C1615 H1591 0.950 . S
C1615 C1614 1.524 1_455 S
C1615 C1616 1.415 . S
C1616 H1592 0.950 . S
C1616 C1611 1.363 1_455 S
C1616 C1615 1.415 . S
C1617 H1593 0.951 . S
C1617 C1618 1.366 . S
C1617 C1619 1.388 . S
C1618 C1617 1.366 . S
C1618 C1622 1.390 . S
C1619 H1594 0.951 . S
C1619 C1617 1.388 . S
C1619 C1620 1.366 . S
C1620 C1619 1.366 . S
C1620 C1621 1.414 1_655 S
C1620 C1623 1.499 . S
C1621 H1595 0.950 . S
C1621 C1620 1.414 1_455 S
C1621 C1622 1.371 1_455 S
C1622 H1596 0.947 1_655 S
C1622 C1618 1.390 . S
C1622 C1621 1.371 1_655 S
C1623 C1620 1.499 . S
C1623 C1624 1.373 . S
C1623 C1625 1.389 . S
C1624 H1597 0.950 . S
C1624 C1610 1.377 . S
C1624 C1623 1.373 . S
C1625 C1609 1.377 . S
C1625 C1623 1.389 . S
C1625 C1626 1.524 . S
C1626 C1625 1.524 . S
C1626 C1627 1.397 1_655 S
C1626 C1631 1.363 . S
C1627 H1598 0.950 . S
C1627 C1626 1.397 1_455 S
C1627 C1628 1.334 . S
C1628 H1599 0.950 . S
C1628 C1627 1.334 . S
C1628 C1629 1.287 1_455 S
C1629 C1628 1.287 1_655 S
C1629 C1630 1.524 . S
C1629 H1632 0.999 . S
C1630 H1600 0.950 . S
C1630 C1629 1.524 . S
C1630 C1631 1.415 . S
C1631 H1601 0.950 . S
C1631 C1626 1.363 . S
C1631 C1630 1.415 . S
H1632 C1629 0.999 . S
H1633 C1614 0.913 . S
H1634 C1652 0.951 . S
H1635 C1654 0.951 . S
H1636 C1656 0.950 . S
H1637 C1657 0.950 . S
H1638 C1659 0.950 . S
H1639 C1662 0.950 . S
H1640 C1663 0.950 . S
H1641 C1665 0.950 . S
H1642 C1666 0.950 . S
H1643 C1667 0.951 . S
H1644 C1669 0.951 . S
H1645 C1671 0.950 . S
H1646 C1672 0.950 . S
H1647 C1674 0.950 . S
H1648 C1677 0.950 . S
H1649 C1678 0.950 . S
H1650 C1680 0.950 . S
H1651 C1681 0.950 . S
C1652 H1634 0.951 . S
C1652 C1653 1.366 . S
C1652 C1654 1.388 . S
C1653 C1652 1.366 . S
C1653 C1657 1.385 . S
C1654 H1635 0.951 . S
C1654 C1652 1.388 . S
C1654 C1655 1.366 . S
C1655 C1654 1.366 . S
C1655 C1656 1.414 . S
C1655 C1658 1.499 . S
C1656 H1636 0.950 . S
C1656 C1655 1.414 . S
C1656 C1657 1.374 . S
C1657 H1637 0.950 . S
C1657 C1653 1.385 . S
C1657 C1656 1.374 . S
C1658 C1655 1.499 . S
C1658 C1659 1.373 . S
C1658 C1660 1.389 . S
C1659 H1638 0.950 . S
C1659 C1658 1.373 . S
C1659 C1675 1.377 . S
C1660 C1658 1.389 . S
C1660 C1661 1.524 . S
C1660 C1674 1.377 . S
C1661 C1660 1.524 . S
C1661 C1662 1.397 . S
C1661 C1666 1.363 . S
C1662 H1639 0.950 . S
C1662 C1661 1.397 . S
C1662 C1663 1.334 . S
C1663 H1640 0.950 . S
C1663 C1662 1.334 . S
C1663 C1664 1.287 . S
C1664 C1663 1.287 . S
C1664 C1665 1.524 . S
C1664 H1683 0.913 . S
C1665 H1641 0.950 . S
C1665 C1664 1.524 . S
C1665 C1666 1.415 . S
C1666 H1642 0.950 . S
C1666 C1661 1.363 . S
C1666 C1665 1.415 . S
C1667 H1643 0.951 . S
C1667 C1668 1.366 . S
C1667 C1669 1.388 . S
C1668 C1667 1.366 . S
C1668 C1672 1.385 . S
C1669 H1644 0.951 . S
C1669 C1667 1.388 . S
C1669 C1670 1.366 . S
C1670 C1669 1.366 . S
C1670 C1671 1.414 . S
C1670 C1673 1.499 . S
C1671 H1645 0.950 . S
C1671 C1670 1.414 . S
C1671 C1672 1.374 . S
C1672 H1646 0.950 . S
C1672 C1668 1.385 . S
C1672 C1671 1.374 . S
C1673 C1670 1.499 . S
C1673 C1674 1.373 . S
C1673 C1675 1.389 . S
C1674 H1647 0.950 . S
C1674 C1660 1.377 . S
C1674 C1673 1.373 . S
C1675 C1659 1.377 . S
C1675 C1673 1.389 . S
C1675 C1676 1.524 . S
C1676 C1675 1.524 . S
C1676 C1677 1.397 . S
C1676 C1681 1.363 . S
C1677 H1648 0.950 . S
C1677 C1676 1.397 . S
C1677 C1678 1.334 . S
C1678 H1649 0.950 . S
C1678 C1677 1.334 . S
C1678 C1679 1.287 . S
C1679 C1678 1.287 . S
C1679 C1680 1.524 . S
C1679 H1682 0.999 . S
C1680 H1650 0.950 . S
C1680 C1679 1.524 . S
C1680 C1681 1.415 . S
C1681 H1651 0.950 . S
C1681 C1676 1.363 . S
C1681 C1680 1.415 . S
H1682 C1679 0.999 . S
H1683 C1664 0.913 . S
H1684 C1702 0.951 . S
H1685 C1704 0.951 . S
H1686 C1706 0.950 . S
H1687 C1707 0.950 . S
H1688 C1709 0.950 . S
H1689 C1712 0.950 . S
H1690 C1713 0.950 . S
H1691 C1715 0.950 . S
H1692 C1716 0.950 . S
H1693 C1717 0.951 . S
H1694 C1719 0.951 . S
H1695 C1721 0.950 . S
H1696 C1722 0.950 . S
H1697 C1724 0.950 . S
H1698 C1727 0.950 . S
H1699 C1728 0.950 . S
H1700 C1730 0.950 . S
H1701 C1731 0.950 . S
C1702 H1684 0.951 . S
C1702 C1703 1.366 . S
C1702 C1704 1.388 . S
C1703 C1702 1.366 . S
C1703 C1707 1.385 . S
C1704 H1685 0.951 . S
C1704 C1702 1.388 . S
C1704 C1705 1.366 . S
C1705 C1704 1.366 . S
C1705 C1706 1.414 . S
C1705 C1708 1.499 . S
C1706 H1686 0.950 . S
C1706 C1705 1.414 . S
C1706 C1707 1.374 . S
C1707 H1687 0.950 . S
C1707 C1703 1.385 . S
C1707 C1706 1.374 . S
C1708 C1705 1.499 . S
C1708 C1709 1.373 1_545 S
C1708 C1710 1.389 . S
C1709 H1688 0.950 . S
C1709 C1708 1.373 1_565 S
C1709 C1725 1.377 . S
C1710 C1708 1.389 . S
C1710 C1711 1.524 . S
C1710 C1724 1.377 . S
C1711 C1710 1.524 . S
C1711 C1712 1.397 . S
C1711 C1716 1.363 . S
C1712 H1689 0.950 . S
C1712 C1711 1.397 . S
C1712 C1713 1.334 . S
C1713 H1690 0.950 . S
C1713 C1712 1.334 . S
C1713 C1714 1.287 . S
C1714 C1713 1.287 . S
C1714 C1715 1.524 . S
C1714 H1733 0.913 . S
C1715 H1691 0.950 . S
C1715 C1714 1.524 . S
C1715 C1716 1.415 . S
C1716 H1692 0.950 . S
C1716 C1711 1.363 . S
C1716 C1715 1.415 . S
C1717 H1693 0.951 . S
C1717 C1718 1.366 . S
C1717 C1719 1.388 . S
C1718 C1717 1.366 . S
C1718 C1722 1.385 . S
C1719 H1694 0.951 . S
C1719 C1717 1.388 . S
C1719 C1720 1.366 . S
C1720 C1719 1.366 . S
C1720 C1721 1.414 . S
C1720 C1723 1.499 . S
C1721 H1695 0.950 . S
C1721 C1720 1.414 . S
C1721 C1722 1.374 . S
C1722 H1696 0.950 . S
C1722 C1718 1.385 . S
C1722 C1721 1.374 . S
C1723 C1720 1.499 . S
C1723 C1724 1.373 . S
C1723 C1725 1.389 1_545 S
C1724 H1697 0.950 . S
C1724 C1710 1.377 . S
C1724 C1723 1.373 . S
C1725 C1709 1.377 . S
C1725 C1723 1.389 1_565 S
C1725 C1726 1.524 . S
C1726 C1725 1.524 . S
C1726 C1727 1.397 . S
C1726 C1731 1.363 . S
C1727 H1698 0.950 . S
C1727 C1726 1.397 . S
C1727 C1728 1.334 . S
C1728 H1699 0.950 . S
C1728 C1727 1.334 . S
C1728 C1729 1.287 . S
C1729 C1728 1.287 . S
C1729 C1730 1.524 . S
C1729 H1732 0.999 . S
C1730 H1700 0.950 . S
C1730 C1729 1.524 . S
C1730 C1731 1.415 . S
C1731 H1701 0.950 . S
C1731 C1726 1.363 . S
C1731 C1730 1.415 . S
H1732 C1729 0.999 . S
H1733 C1714 0.913 . S
H1734 C1752 0.889 1_545 S
H1735 C1754 0.940 1_545 S
H1736 C1756 0.950 . S
H1737 C1757 0.903 1_554 S
H1738 C1759 0.969 . S
H1739 C1762 0.950 . S
H1740 C1763 0.950 . S
H1741 C1765 0.950 . S
H1742 C1766 0.950 . S
H1743 C1767 0.951 . S
H1744 C1769 0.951 . S
H1745 C1771 0.950 . S
H1746 C1772 0.950 . S
H1747 C1774 0.950 . S
H1748 C1777 0.950 . S
H1749 C1778 0.950 . S
H1750 C1780 0.950 . S
H1751 C1781 0.950 . S
C1752 H1734 0.889 1_565 S
C1752 C1753 1.402 . S
C1752 C1754 1.420 . S
C1753 C1752 1.402 . S
C1753 C1757 1.385 . S
C1754 H1735 0.940 1_565 S
C1754 C1752 1.420 . S
C1754 C1755 1.366 . S
C1755 C1754 1.366 . S
C1755 C1756 1.414 . S
C1755 C1758 1.499 . S
C1756 H1736 0.950 . S
C1756 C1755 1.414 . S
C1756 C1757 1.374 . S
C1757 H1737 0.903 1_556 S
C1757 C1753 1.385 . S
C1757 C1756 1.374 . S
C1758 C1755 1.499 . S
C1758 C1759 1.376 1_565 S
C1758 C1760 1.389 . S
C1759 H1738 0.969 . S
C1759 C1758 1.376 1_545 S
C1759 C1775 1.361 . S
C1760 C1758 1.389 . S
C1760 C1761 1.524 . S
C1760 C1774 1.377 . S
C1761 C1760 1.524 . S
C1761 C1762 1.397 . S
C1761 C1766 1.363 . S
C1762 H1739 0.950 . S
C1762 C1761 1.397 . S
C1762 C1763 1.334 . S
C1763 H1740 0.950 . S
C1763 C1762 1.334 . S
C1763 C1764 1.287 . S
C1764 C1763 1.287 . S
C1764 C1765 1.524 . S
C1764 H1783 0.913 . S
C1765 H1741 0.950 . S
C1765 C1764 1.524 . S
C1765 C1766 1.415 . S
C1766 H1742 0.950 . S
C1766 C1761 1.363 . S
C1766 C1765 1.415 . S
C1767 H1743 0.951 . S
C1767 C1768 1.366 . S
C1767 C1769 1.388 . S
C1768 C1767 1.366 . S
C1768 C1772 1.385 . S
C1769 H1744 0.951 . S
C1769 C1767 1.388 . S
C1769 C1770 1.366 . S
C1770 C1769 1.366 . S
C1770 C1771 1.414 . S
C1770 C1773 1.499 . S
C1771 H1745 0.950 . S
C1771 C1770 1.414 . S
C1771 C1772 1.374 . S
C1772 H1746 0.950 . S
C1772 C1768 1.385 . S
C1772 C1771 1.374 . S
C1773 C1770 1.499 . S
C1773 C1774 1.373 . S
C1773 C1775 1.389 1_565 S
C1774 H1747 0.950 . S
C1774 C1760 1.377 . S
C1774 C1773 1.373 . S
C1775 C1759 1.361 . S
C1775 C1773 1.389 1_545 S
C1775 C1776 1.524 . S
C1776 C1775 1.524 . S
C1776 C1777 1.397 . S
C1776 C1781 1.363 . S
C1777 H1748 0.950 . S
C1777 C1776 1.397 . S
C1777 C1778 1.334 . S
C1778 H1749 0.950 . S
C1778 C1777 1.334 . S
C1778 C1779 1.287 . S
C1779 C1778 1.287 . S
C1779 C1780 1.524 . S
C1779 H1782 0.999 . S
C1780 H1750 0.950 . S
C1780 C1779 1.524 . S
C1780 C1781 1.415 . S
C1781 H1751 0.950 . S
C1781 C1776 1.363 . S
C1781 C1780 1.415 . S
H1782 C1779 0.999 . S
H1783 C1764 0.913 . S
H1784 C1802 0.951 1_654 S
H1785 C1804 0.924 1_655 S
H1786 C1806 0.950 . S
H1787 C1807 0.950 . S
H1788 C1809 0.950 . S
H1789 C1812 0.950 . S
H1790 C1813 0.950 . S
H1791 C1815 0.950 . S
H1792 C1816 0.950 . S
H1793 C1817 0.951 . S
H1794 C1819 0.951 . S
H1795 C1821 0.950 . S
H1796 C1822 0.950 . S
H1797 C1824 0.950 . S
H1798 C1827 0.950 . S
H1799 C1828 0.950 . S
H1800 C1830 0.950 . S
H1801 C1831 0.950 . S
C1802 H1784 0.951 1_456 S
C1802 C1803 1.366 . S
C1802 C1804 1.388 . S
C1803 C1802 1.366 . S
C1803 C1807 1.385 . S
C1804 H1785 0.924 1_455 S
C1804 C1802 1.388 . S
C1804 C1805 1.366 . S
C1805 C1804 1.366 . S
C1805 C1806 1.414 . S
C1805 C1808 1.499 . S
C1806 H1786 0.950 . S
C1806 C1805 1.414 . S
C1806 C1807 1.374 . S
C1807 H1787 0.950 . S
C1807 C1803 1.385 . S
C1807 C1806 1.374 . S
C1808 C1805 1.499 . S
C1808 C1809 1.373 . S
C1808 C1810 1.389 1_455 S
C1809 H1788 0.950 . S
C1809 C1808 1.373 . S
C1809 C1825 1.377 . S
C1810 C1808 1.389 1_655 S
C1810 C1811 1.524 . S
C1810 C1824 1.377 . S
C1811 C1810 1.524 . S
C1811 C1812 1.397 . S
C1811 C1816 1.363 . S
C1812 H1789 0.950 . S
C1812 C1811 1.397 . S
C1812 C1813 1.334 . S
C1813 H1790 0.950 . S
C1813 C1812 1.334 . S
C1813 C1814 1.287 . S
C1814 C1813 1.287 . S
C1814 C1815 1.524 . S
C1814 H1833 0.913 . S
C1815 H1791 0.950 . S
C1815 C1814 1.524 . S
C1815 C1816 1.415 . S
C1816 H1792 0.950 . S
C1816 C1811 1.363 . S
C1816 C1815 1.415 . S
C1817 H1793 0.951 . S
C1817 C1818 1.366 . S
C1817 C1819 1.388 . S
C1818 C1817 1.366 . S
C1818 C1822 1.385 . S
C1819 H1794 0.951 . S
C1819 C1817 1.388 . S
C1819 C1820 1.366 . S
C1820 C1819 1.366 . S
C1820 C1821 1.414 . S
C1820 C1823 1.499 . S
C1821 H1795 0.950 . S
C1821 C1820 1.414 . S
C1821 C1822 1.374 . S
C1822 H1796 0.950 . S
C1822 C1818 1.385 . S
C1822 C1821 1.374 . S
C1823 C1820 1.499 . S
C1823 C1824 1.373 1_455 S
C1823 C1825 1.389 . S
C1824 H1797 0.950 . S
C1824 C1810 1.377 . S
C1824 C1823 1.373 1_655 S
C1825 C1809 1.377 . S
C1825 C1823 1.389 . S
C1825 C1826 1.524 . S
C1826 C1825 1.524 . S
C1826 C1827 1.397 . S
C1826 C1831 1.363 . S
C1827 H1798 0.950 . S
C1827 C1826 1.397 . S
C1827 C1828 1.334 . S
C1828 H1799 0.950 . S
C1828 C1827 1.334 . S
C1828 C1829 1.287 . S
C1829 C1828 1.287 . S
C1829 C1830 1.524 . S
C1829 H1832 0.999 . S
C1830 H1800 0.950 . S
C1830 C1829 1.524 . S
C1830 C1831 1.415 . S
C1831 H1801 0.950 . S
C1831 C1826 1.363 . S
C1831 C1830 1.415 . S
H1832 C1829 0.999 . S
H1833 C1814 0.913 . S
H1834 C1852 0.951 . S
H1835 C1854 0.951 . S
H1836 C1856 0.950 1_556 S
H1837 C1857 0.950 . S
H1838 C1859 0.950 . S
H1839 C1862 0.950 . S
H1840 C1863 0.950 . S
H1841 C1865 0.950 . S
H1842 C1866 1.002 . S
H1843 C1867 0.951 . S
H1844 C1869 0.951 . S
H1845 C1871 0.950 . S
H1846 C1872 0.950 . S
H1847 C1874 0.950 . S
H1848 C1877 0.950 . S
H1849 C1878 0.950 . S
H1850 C1880 0.950 . S
H1851 C1881 0.950 . S
C1852 H1834 0.951 . S
C1852 C1853 1.366 . S
C1852 C1854 1.388 . S
C1853 C1852 1.366 . S
C1853 C1857 1.385 . S
C1854 H1835 0.951 . S
C1854 C1852 1.388 . S
C1854 C1855 1.366 1_554 S
C1855 C1854 1.366 1_556 S
C1855 C1856 1.414 1_556 S
C1855 C1858 1.499 . S
C1856 H1836 0.950 1_554 S
C1856 C1855 1.414 1_554 S
C1856 C1857 1.374 . S
C1857 H1837 0.950 . S
C1857 C1853 1.385 . S
C1857 C1856 1.374 . S
C1858 C1855 1.499 . S
C1858 C1859 1.373 . S
C1858 C1860 1.389 . S
C1859 H1838 0.950 . S
C1859 C1858 1.373 . S
C1859 C1875 1.377 . S
C1860 C1858 1.389 . S
C1860 C1861 1.592 . S
C1860 C1874 1.377 . S
C1861 C1860 1.592 . S
C1861 C1862 1.334 1_556 S
C1861 C1866 1.363 . S
C1862 H1839 0.950 . S
C1862 C1861 1.334 1_554 S
C1862 C1863 1.334 . S
C1863 H1840 0.950 . S
C1863 C1862 1.334 . S
C1863 C1864 1.287 . S
C1864 C1863 1.287 . S
C1864 C1865 1.524 . S
C1864 H1883 0.913 . S
C1865 H1841 0.950 . S
C1865 C1864 1.524 . S
C1865 C1866 1.364 1_554 S
C1866 H1842 1.002 . S
C1866 C1861 1.363 . S
C1866 C1865 1.364 1_556 S
C1867 H1843 0.951 . S
C1867 C1868 1.366 . S
C1867 C1869 1.388 . S
C1868 C1867 1.366 . S
C1868 C1872 1.385 . S
C1869 H1844 0.951 . S
C1869 C1867 1.388 . S
C1869 C1870 1.366 . S
C1870 C1869 1.366 . S
C1870 C1871 1.414 . S
C1870 C1873 1.499 . S
C1871 H1845 0.950 . S
C1871 C1870 1.414 . S
C1871 C1872 1.374 . S
C1872 H1846 0.950 . S
C1872 C1868 1.385 . S
C1872 C1871 1.374 . S
C1873 C1870 1.499 . S
C1873 C1874 1.373 . S
C1873 C1875 1.389 . S
C1874 H1847 0.950 . S
C1874 C1860 1.377 . S
C1874 C1873 1.373 . S
C1875 C1859 1.377 . S
C1875 C1873 1.389 . S
C1875 C1876 1.524 . S
C1876 C1875 1.524 . S
C1876 C1877 1.397 . S
C1876 C1881 1.363 . S
C1877 H1848 0.950 . S
C1877 C1876 1.397 . S
C1877 C1878 1.334 . S
C1878 H1849 0.950 . S
C1878 C1877 1.334 . S
C1878 C1879 1.287 . S
C1879 C1878 1.287 . S
C1879 C1880 1.524 . S
C1879 H1882 0.999 . S
C1880 H1850 0.950 . S
C1880 C1879 1.524 . S
C1880 C1881 1.415 . S
C1881 H1851 0.950 . S
C1881 C1876 1.363 . S
C1881 C1880 1.415 . S
H1882 C1879 0.999 . S
H1883 C1864 0.913 . S
H1884 C1902 0.951 . S
H1885 C1904 0.951 . S
H1886 C1906 0.950 . S
H1887 C1907 0.950 . S
H1888 C1909 0.950 . S
H1889 C1912 0.950 . S
H1890 C1913 0.950 . S
H1891 C1915 0.950 . S
H1892 C1916 0.950 . S
H1893 C1917 0.951 . S
H1894 C1919 0.951 . S
H1895 C1921 0.950 . S
H1896 C1922 0.950 . S
H1897 C1924 0.950 . S
H1898 C1927 0.950 . S
H1899 C1928 0.950 . S
H1900 C1930 0.950 . S
H1901 C1931 0.950 . S
C1902 H1884 0.951 . S
C1902 C1903 1.366 . S
C1902 C1904 1.388 1_554 S
C1903 C1902 1.366 . S
C1903 C1907 1.385 1_455 S
C1904 H1885 0.951 . S
C1904 C1902 1.388 1_556 S
C1904 C1905 1.414 . S
C1905 C1904 1.414 . S
C1905 C1906 1.335 1_455 S
C1905 C1908 1.524 . S
C1906 H1886 0.950 . S
C1906 C1905 1.335 1_655 S
C1906 C1907 1.374 1_556 S
C1907 H1887 0.950 . S
C1907 C1903 1.385 1_655 S
C1907 C1906 1.374 1_554 S
C1908 C1905 1.524 . S
C1908 C1909 1.371 1_455 S
C1908 C1910 1.399 . S
C1909 H1888 0.950 . S
C1909 C1908 1.371 1_655 S
C1909 C1925 1.377 . S
C1910 C1908 1.399 . S
C1910 C1911 1.524 . S
C1910 C1924 1.377 . S
C1911 C1910 1.524 . S
C1911 C1912 1.397 . S
C1911 C1916 1.363 . S
C1912 H1889 0.950 . S
C1912 C1911 1.397 . S
C1912 C1913 1.334 . S
C1913 H1890 0.950 . S
C1913 C1912 1.334 . S
C1913 C1914 1.287 . S
C1914 C1913 1.287 . S
C1914 C1915 1.524 . S
C1914 H1933 0.913 . S
C1915 H1891 0.950 . S
C1915 C1914 1.524 . S
C1915 C1916 1.415 . S
C1916 H1892 0.950 . S
C1916 C1911 1.363 . S
C1916 C1915 1.415 . S
C1917 H1893 0.951 . S
C1917 C1918 1.382 . S
C1917 C1919 1.388 . S
C1918 C1917 1.382 . S
C1918 C1922 1.375 1_655 S
C1919 H1894 0.951 . S
C1919 C1917 1.388 . S
C1919 C1920 1.369 1_655 S
C1920 C1919 1.369 1_455 S
C1920 C1921 1.407 . S
C1920 C1923 1.524 . S
C1921 H1895 0.950 . S
C1921 C1920 1.407 . S
C1921 C1922 1.374 . S
C1922 H1896 0.950 . S
C1922 C1918 1.375 1_455 S
C1922 C1921 1.374 . S
C1923 C1920 1.524 . S
C1923 C1924 1.384 . S
C1923 C1925 1.354 1_455 S
C1924 H1897 0.950 . S
C1924 C1910 1.377 . S
C1924 C1923 1.384 . S
C1925 C1909 1.377 . S
C1925 C1923 1.354 1_655 S
C1925 C1926 1.524 . S
C1926 C1925 1.524 . S
C1926 C1927 1.397 . S
C1926 C1931 1.363 . S
C1927 H1898 0.950 . S
C1927 C1926 1.397 . S
C1927 C1928 1.334 . S
C1928 H1899 0.950 . S
C1928 C1927 1.334 . S
C1928 C1929 1.287 . S
C1929 C1928 1.287 . S
C1929 C1930 1.524 . S
C1929 H1932 0.999 . S
C1930 H1900 0.950 . S
C1930 C1929 1.524 . S
C1930 C1931 1.415 . S
C1931 H1901 0.950 . S
C1931 C1926 1.363 . S
C1931 C1930 1.415 . S
H1932 C1929 0.999 . S
H1933 C1914 0.913 . S
H1934 C1952 0.951 . S
H1935 C1954 0.951 . S
H1936 C1956 0.950 . S
H1937 C1957 0.950 . S
H1938 C1959 0.950 . S
H1939 C1962 0.950 . S
H1940 C1963 0.950 . S
H1941 C1965 0.950 . S
H1942 C1966 0.950 . S
H1943 C1967 0.951 . S
H1944 C1969 0.951 . S
H1945 C1971 0.950 . S
H1946 C1972 0.950 . S
H1947 C1974 0.950 . S
H1948 C1977 0.950 . S
H1949 C1978 0.950 . S
H1950 C1980 0.950 . S
H1951 C1981 0.950 . S
C1952 H1934 0.951 . S
C1952 C1953 1.366 . S
C1952 C1954 1.388 . S
C1953 C1952 1.366 . S
C1953 C1957 1.385 . S
C1954 H1935 0.951 . S
C1954 C1952 1.388 . S
C1954 C1955 1.366 . S
C1955 C1954 1.366 . S
C1955 C1956 1.414 . S
C1955 C1958 1.499 . S
C1956 H1936 0.950 . S
C1956 C1955 1.414 . S
C1956 C1957 1.374 . S
C1957 H1937 0.950 . S
C1957 C1953 1.385 . S
C1957 C1956 1.374 . S
C1958 C1955 1.499 . S
C1958 C1959 1.373 . S
C1958 C1960 1.389 . S
C1959 H1938 0.950 . S
C1959 C1958 1.373 . S
C1959 C1975 1.377 . S
C1960 C1958 1.389 . S
C1960 C1961 1.524 . S
C1960 C1974 1.377 . S
C1961 C1960 1.524 . S
C1961 C1962 1.397 . S
C1961 C1966 1.363 . S
C1962 H1939 0.950 . S
C1962 C1961 1.397 . S
C1962 C1963 1.334 . S
C1963 H1940 0.950 . S
C1963 C1962 1.334 . S
C1963 C1964 1.287 . S
C1964 C1963 1.287 . S
C1964 C1965 1.524 . S
C1964 H1983 0.913 . S
C1965 H1941 0.950 . S
C1965 C1964 1.524 . S
C1965 C1966 1.415 . S
C1966 H1942 0.950 . S
C1966 C1961 1.363 . S
C1966 C1965 1.415 . S
C1967 H1943 0.951 . S
C1967 C1968 1.366 . S
C1967 C1969 1.388 . S
C1968 C1967 1.366 . S
C1968 C1972 1.385 . S
C1969 H1944 0.951 . S
C1969 C1967 1.388 . S
C1969 C1970 1.366 . S
C1970 C1969 1.366 . S
C1970 C1971 1.414 . S
C1970 C1973 1.499 . S
C1971 H1945 0.950 . S
C1971 C1970 1.414 . S
C1971 C1972 1.374 . S
C1972 H1946 0.950 . S
C1972 C1968 1.385 . S
C1972 C1971 1.374 . S
C1973 C1970 1.499 . S
C1973 C1974 1.373 . S
C1973 C1975 1.389 . S
C1974 H1947 0.950 . S
C1974 C1960 1.377 . S
C1974 C1973 1.373 . S
C1975 C1959 1.377 . S
C1975 C1973 1.389 . S
C1975 C1976 1.524 . S
C1976 C1975 1.524 . S
C1976 C1977 1.397 . S
C1976 C1981 1.363 . S
C1977 H1948 0.950 . S
C1977 C1976 1.397 . S
C1977 C1978 1.334 . S
C1978 H1949 0.950 . S
C1978 C1977 1.334 . S
C1978 C1979 1.287 . S
C1979 C1978 1.287 . S
C1979 C1980 1.524 . S
C1979 H1982 0.999 . S
C1980 H1950 0.950 . S
C1980 C1979 1.524 . S
C1980 C1981 1.415 . S
C1981 H1951 0.950 . S
C1981 C1976 1.363 . S
C1981 C1980 1.415 . S
H1982 C1979 0.999 . S
H1983 C1964 0.913 . S
H1984 C2002 0.951 . S
H1985 C2004 0.947 1_554 S
H1986 C2006 0.950 . S
H1987 C2007 0.950 . S
H1988 C2009 0.950 . S
H1989 C2012 0.950 . S
H1990 C2013 0.952 1_554 S
H1991 C2015 0.950 . S
H1992 C2016 0.950 . S
H1993 C2017 0.951 . S
H1994 C2019 0.951 . S
H1995 C2021 0.950 . S
H1996 C2022 0.950 . S
H1997 C2024 0.950 . S
H1998 C2027 0.950 . S
H1999 C2028 0.950 . S
H2000 C2030 0.950 . S
H2001 C2031 0.950 . S
C2002 H1984 0.951 . S
C2002 C2003 1.366 1_545 S
C2002 C2004 1.388 1_554 S
C2003 C2002 1.366 1_565 S
C2003 C2007 1.385 1_554 S
C2004 H1985 0.947 1_556 S
C2004 C2002 1.388 1_556 S
C2004 C2005 1.366 1_545 S
C2005 C2004 1.366 1_565 S
C2005 C2006 1.414 . S
C2005 C2008 1.499 . S
C2006 H1986 0.950 . S
C2006 C2005 1.414 . S
C2006 C2007 1.374 . S
C2007 H1987 0.950 . S
C2007 C2003 1.385 1_556 S
C2007 C2006 1.374 . S
C2008 C2005 1.499 . S
C2008 C2009 1.373 1_565 S
C2008 C2010 1.389 . S
C2009 H1988 0.950 . S
C2009 C2008 1.373 1_545 S
C2009 C2025 1.377 . S
C2010 C2008 1.389 . S
C2010 C2011 1.524 . S
C2010 C2024 1.377 . S
C2011 C2010 1.524 . S
C2011 C2012 1.397 . S
C2011 C2016 1.363 . S
C2012 H1989 0.950 . S
C2012 C2011 1.397 . S
C2012 C2013 1.330 . S
C2013 H1990 0.952 1_556 S
C2013 C2012 1.330 . S
C2013 C2014 1.289 1_556 S
C2014 C2013 1.289 1_554 S
C2014 C2015 1.524 . S
C2014 H2033 0.913 . S
C2015 H1991 0.950 . S
C2015 C2014 1.524 . S
C2015 C2016 1.415 1_554 S
C2016 H1992 0.950 . S
C2016 C2011 1.363 . S
C2016 C2015 1.415 1_556 S
C2017 H1993 0.951 . S
C2017 C2018 1.366 1_565 S
C2017 C2019 1.388 . S
C2018 C2017 1.366 1_545 S
C2018 C2022 1.385 . S
C2019 H1994 0.951 . S
C2019 C2017 1.388 . S
C2019 C2020 1.366 1_565 S
C2020 C2019 1.366 1_545 S
C2020 C2021 1.414 . S
C2020 C2023 1.535 . S
C2021 H1995 0.950 . S
C2021 C2020 1.414 . S
C2021 C2022 1.374 . S
C2022 H1996 0.950 . S
C2022 C2018 1.385 . S
C2022 C2021 1.374 . S
C2023 C2020 1.535 . S
C2023 C2024 1.353 1_545 S
C2023 C2025 1.374 . S
C2024 H1997 0.950 . S
C2024 C2010 1.377 . S
C2024 C2023 1.353 1_565 S
C2025 C2009 1.377 . S
C2025 C2023 1.374 . S
C2025 C2026 1.524 . S
C2026 C2025 1.524 . S
C2026 C2027 1.397 . S
C2026 C2031 1.363 . S
C2027 H1998 0.950 . S
C2027 C2026 1.397 . S
C2027 C2028 1.334 . S
C2028 H1999 0.950 . S
C2028 C2027 1.334 . S
C2028 C2029 1.287 . S
C2029 C2028 1.287 . S
C2029 C2030 1.524 . S
C2029 H2032 0.999 . S
C2030 H2000 0.950 . S
C2030 C2029 1.524 . S
C2030 C2031 1.415 . S
C2031 H2001 0.950 . S
C2031 C2026 1.363 . S
C2031 C2030 1.415 . S
H2032 C2029 0.999 . S
H2033 C2014 0.913 . S
H2034 C2052 0.951 . S
H2035 C2054 0.951 . S
H2036 C2056 0.961 . S
H2037 C2057 0.950 . S
H2038 C2059 0.950 . S
H2039 C2062 0.950 . S
H2040 C2063 0.950 . S
H2041 C2065 0.950 . S
H2042 C2066 0.950 . S
H2043 C2067 0.951 . S
H2044 C2069 0.951 . S
H2045 C2071 0.978 . S
H2046 C2072 0.971 . S
H2047 C2074 0.950 . S
H2048 C2077 0.950 . S
H2049 C2078 0.950 . S
H2050 C2080 0.950 . S
H2051 C2081 0.950 . S
C2052 H2034 0.951 . S
C2052 C2053 1.366 . S
C2052 C2054 1.388 . S
C2053 C2052 1.366 . S
C2053 C2057 1.385 . S
C2054 H2035 0.951 . S
C2054 C2052 1.388 . S
C2054 C2055 1.366 . S
C2055 C2054 1.366 . S
C2055 C2056 1.414 . S
C2055 C2058 1.499 . S
C2056 H2036 0.961 . S
C2056 C2055 1.414 . S
C2056 C2057 1.374 . S
C2057 H2037 0.950 . S
C2057 C2053 1.385 . S
C2057 C2056 1.374 . S
C2058 C2055 1.499 . S
C2058 C2059 1.373 1_545 S
C2058 C2060 1.389 . S
C2059 H2038 0.950 . S
C2059 C2058 1.373 1_565 S
C2059 C2075 1.377 . S
C2060 C2058 1.389 . S
C2060 C2061 1.524 . S
C2060 C2074 1.377 . S
C2061 C2060 1.524 . S
C2061 C2062 1.397 . S
C2061 C2066 1.363 . S
C2062 H2039 0.950 . S
C2062 C2061 1.397 . S
C2062 C2063 1.334 . S
C2063 H2040 0.950 . S
C2063 C2062 1.334 . S
C2063 C2064 1.287 . S
C2064 C2063 1.287 . S
C2064 C2065 1.524 . S
C2064 H2083 0.913 . S
C2065 H2041 0.950 . S
C2065 C2064 1.524 . S
C2065 C2066 1.415 . S
C2066 H2042 0.950 . S
C2066 C2061 1.363 . S
C2066 C2065 1.415 . S
C2067 H2043 0.951 . S
C2067 C2068 1.366 . S
C2067 C2069 1.388 . S
C2068 C2067 1.366 . S
C2068 C2072 1.374 1_565 S
C2069 H2044 0.951 . S
C2069 C2067 1.388 . S
C2069 C2070 1.386 . S
C2070 C2069 1.386 . S
C2070 C2071 1.336 1_565 S
C2070 C2073 1.515 . S
C2071 H2045 0.978 . S
C2071 C2070 1.336 1_545 S
C2071 C2072 1.384 . S
C2072 H2046 0.971 . S
C2072 C2068 1.374 1_545 S
C2072 C2071 1.384 . S
C2073 C2070 1.515 . S
C2073 C2074 1.371 1_565 S
C2073 C2075 1.392 . S
C2074 H2047 0.950 . S
C2074 C2060 1.377 . S
C2074 C2073 1.371 1_545 S
C2075 C2059 1.377 . S
C2075 C2073 1.392 . S
C2075 C2076 1.524 . S
C2076 C2075 1.524 . S
C2076 C2077 1.397 . S
C2076 C2081 1.363 . S
C2077 H2048 0.950 . S
C2077 C2076 1.397 . S
C2077 C2078 1.334 . S
C2078 H2049 0.950 . S
C2078 C2077 1.334 . S
C2078 C2079 1.287 . S
C2079 C2078 1.287 . S
C2079 C2080 1.524 . S
C2079 H2082 0.999 . S
C2080 H2050 0.950 . S
C2080 C2079 1.524 . S
C2080 C2081 1.415 . S
C2081 H2051 0.950 . S
C2081 C2076 1.363 . S
C2081 C2080 1.415 . S
H2082 C2079 0.999 . S
H2083 C2064 0.913 . S
H2084 C2102 0.951 . S
H2085 C2104 0.951 . S
H2086 C2106 0.950 . S
H2087 C2107 0.950 . S
H2088 C2109 0.950 . S
H2089 C2112 0.950 . S
H2090 C2113 0.950 . S
H2091 C2115 0.950 . S
H2092 C2116 0.950 . S
H2093 C2117 0.951 . S
H2094 C2119 0.951 . S
H2095 C2121 0.950 . S
H2096 C2122 0.950 . S
H2097 C2124 0.950 . S
H2098 C2127 0.950 . S
H2099 C2128 0.950 . S
H2100 C2130 0.950 . S
H2101 C2131 0.950 . S
C2102 H2084 0.951 . S
C2102 C2103 1.366 1_455 S
C2102 C2104 1.388 . S
C2103 C2102 1.366 1_655 S
C2103 C2107 1.385 . S
C2104 H2085 0.951 . S
C2104 C2102 1.388 . S
C2104 C2105 1.368 1_455 S
C2105 C2104 1.368 1_655 S
C2105 C2106 1.421 . S
C2105 C2108 1.495 . S
C2106 H2086 0.950 . S
C2106 C2105 1.421 . S
C2106 C2107 1.374 . S
C2107 H2087 0.950 . S
C2107 C2103 1.385 . S
C2107 C2106 1.374 . S
C2108 C2105 1.495 . S
C2108 C2109 1.379 . S
C2108 C2110 1.380 1_655 S
C2109 H2088 0.950 . S
C2109 C2108 1.379 . S
C2109 C2125 1.377 . S
C2110 C2108 1.380 1_455 S
C2110 C2111 1.524 . S
C2110 C2124 1.377 . S
C2111 C2110 1.524 . S
C2111 C2112 1.397 . S
C2111 C2116 1.363 . S
C2112 H2089 0.950 . S
C2112 C2111 1.397 . S
C2112 C2113 1.334 . S
C2113 H2090 0.950 . S
C2113 C2112 1.334 . S
C2113 C2114 1.287 . S
C2114 C2113 1.287 . S
C2114 C2115 1.524 . S
C2114 H2133 0.913 . S
C2115 H2091 0.950 . S
C2115 C2114 1.524 . S
C2115 C2116 1.415 . S
C2116 H2092 0.950 . S
C2116 C2111 1.363 . S
C2116 C2115 1.415 . S
C2117 H2093 0.951 . S
C2117 C2118 1.350 1_655 S
C2117 C2119 1.388 . S
C2118 C2117 1.350 1_455 S
C2118 C2122 1.381 . S
C2119 H2094 0.951 . S
C2119 C2117 1.388 . S
C2119 C2120 1.362 . S
C2120 C2119 1.362 . S
C2120 C2121 1.400 1_655 S
C2120 C2123 1.495 . S
C2121 H2095 0.950 . S
C2121 C2120 1.400 1_455 S
C2121 C2122 1.374 . S
C2122 H2096 0.950 . S
C2122 C2118 1.381 . S
C2122 C2121 1.374 . S
C2123 C2120 1.495 . S
C2123 C2124 1.344 1_655 S
C2123 C2125 1.438 . S
C2124 H2097 0.950 . S
C2124 C2110 1.377 . S
C2124 C2123 1.344 1_455 S
C2125 C2109 1.377 . S
C2125 C2123 1.438 . S
C2125 C2126 1.524 . S
C2126 C2125 1.524 . S
C2126 C2127 1.397 . S
C2126 C2131 1.363 . S
C2127 H2098 0.950 . S
C2127 C2126 1.397 . S
C2127 C2128 1.334 . S
C2128 H2099 0.950 . S
C2128 C2127 1.334 . S
C2128 C2129 1.287 . S
C2129 C2128 1.287 . S
C2129 C2130 1.524 . S
C2129 H2132 0.999 . S
C2130 H2100 0.950 . S
C2130 C2129 1.524 . S
C2130 C2131 1.415 . S
C2131 H2101 0.950 . S
C2131 C2126 1.363 . S
C2131 C2130 1.415 . S
H2132 C2129 0.999 . S
H2133 C2114 0.913 . S
H2134 C2152 0.951 . S
H2135 C2154 0.951 . S
H2136 C2156 0.950 . S
H2137 C2157 0.950 . S
H2138 C2159 0.950 . S
H2139 C2162 0.950 . S
H2140 C2163 0.950 . S
H2141 C2165 0.950 . S
H2142 C2166 0.950 . S
H2143 C2167 0.951 . S
H2144 C2169 0.951 . S
H2145 C2171 0.950 . S
H2146 C2172 0.950 . S
H2147 C2174 0.950 . S
H2148 C2177 0.950 . S
H2149 C2178 0.950 . S
H2150 C2180 0.950 . S
H2151 C2181 0.950 . S
C2152 H2134 0.951 . S
C2152 C2153 1.366 . S
C2152 C2154 1.388 . S
C2153 C2152 1.366 . S
C2153 C2157 1.385 . S
C2154 H2135 0.951 . S
C2154 C2152 1.388 . S
C2154 C2155 1.366 . S
C2155 C2154 1.366 . S
C2155 C2156 1.414 . S
C2155 C2158 1.499 . S
C2156 H2136 0.950 . S
C2156 C2155 1.414 . S
C2156 C2157 1.374 . S
C2157 H2137 0.950 . S
C2157 C2153 1.385 . S
C2157 C2156 1.374 . S
C2158 C2155 1.499 . S
C2158 C2159 1.373 . S
C2158 C2160 1.389 . S
C2159 H2138 0.950 . S
C2159 C2158 1.373 . S
C2159 C2175 1.377 . S
C2160 C2158 1.389 . S
C2160 C2161 1.524 . S
C2160 C2174 1.377 . S
C2161 C2160 1.524 . S
C2161 C2162 1.397 . S
C2161 C2166 1.363 . S
C2162 H2139 0.950 . S
C2162 C2161 1.397 . S
C2162 C2163 1.334 . S
C2163 H2140 0.950 . S
C2163 C2162 1.334 . S
C2163 C2164 1.287 . S
C2164 C2163 1.287 . S
C2164 C2165 1.524 . S
C2164 H2183 0.913 . S
C2165 H2141 0.950 . S
C2165 C2164 1.524 . S
C2165 C2166 1.415 . S
C2166 H2142 0.950 . S
C2166 C2161 1.363 . S
C2166 C2165 1.415 . S
C2167 H2143 0.951 . S
C2167 C2168 1.366 . S
C2167 C2169 1.388 . S
C2168 C2167 1.366 . S
C2168 C2172 1.385 . S
C2169 H2144 0.951 . S
C2169 C2167 1.388 . S
C2169 C2170 1.366 . S
C2170 C2169 1.366 . S
C2170 C2171 1.414 . S
C2170 C2173 1.499 . S
C2171 H2145 0.950 . S
C2171 C2170 1.414 . S
C2171 C2172 1.374 . S
C2172 H2146 0.950 . S
C2172 C2168 1.385 . S
C2172 C2171 1.374 . S
C2173 C2170 1.499 . S
C2173 C2174 1.373 . S
C2173 C2175 1.389 . S
C2174 H2147 0.950 . S
C2174 C2160 1.377 . S
C2174 C2173 1.373 . S
C2175 C2159 1.377 . S
C2175 C2173 1.389 . S
C2175 C2176 1.524 . S
C2176 C2175 1.524 . S
C2176 C2177 1.397 . S
C2176 C2181 1.363 . S
C2177 H2148 0.950 . S
C2177 C2176 1.397 . S
C2177 C2178 1.334 . S
C2178 H2149 0.950 . S
C2178 C2177 1.334 . S
C2178 C2179 1.287 . S
C2179 C2178 1.287 . S
C2179 C2180 1.524 . S
C2179 H2182 0.999 . S
C2180 H2150 0.950 . S
C2180 C2179 1.524 . S
C2180 C2181 1.415 . S
C2181 H2151 0.950 . S
C2181 C2176 1.363 . S
C2181 C2180 1.415 . S
H2182 C2179 0.999 . S
H2183 C2164 0.913 . S
H2184 C2202 0.951 . S
H2185 C2204 0.951 . S
H2186 C2206 0.950 . S
H2187 C2207 0.950 . S
H2188 C2209 0.950 . S
H2189 C2212 0.950 . S
H2190 C2213 0.950 . S
H2191 C2215 0.950 . S
H2192 C2216 0.950 . S
H2193 C2217 0.951 . S
H2194 C2219 0.951 . S
H2195 C2221 0.950 . S
H2196 C2222 0.950 . S
H2197 C2224 0.950 . S
H2198 C2227 0.950 . S
H2199 C2228 0.950 . S
H2200 C2230 0.950 . S
H2201 C2231 0.950 . S
C2202 H2184 0.951 . S
C2202 C2203 1.366 . S
C2202 C2204 1.388 . S
C2203 C2202 1.366 . S
C2203 C2207 1.385 . S
C2204 H2185 0.951 . S
C2204 C2202 1.388 . S
C2204 C2205 1.366 . S
C2205 C2204 1.366 . S
C2205 C2206 1.414 . S
C2205 C2208 1.499 . S
C2206 H2186 0.950 . S
C2206 C2205 1.414 . S
C2206 C2207 1.374 . S
C2207 H2187 0.950 . S
C2207 C2203 1.385 . S
C2207 C2206 1.374 . S
C2208 C2205 1.499 . S
C2208 C2209 1.373 . S
C2208 C2210 1.389 . S
C2209 H2188 0.950 . S
C2209 C2208 1.373 . S
C2209 C2225 1.377 . S
C2210 C2208 1.389 . S
C2210 C2211 1.524 . S
C2210 C2224 1.377 . S
C2211 C2210 1.524 . S
C2211 C2212 1.397 . S
C2211 C2216 1.363 . S
C2212 H2189 0.950 . S
C2212 C2211 1.397 . S
C2212 C2213 1.334 . S
C2213 H2190 0.950 . S
C2213 C2212 1.334 . S
C2213 C2214 1.287 . S
C2214 C2213 1.287 . S
C2214 C2215 1.524 . S
C2214 H2233 0.913 . S
C2215 H2191 0.950 . S
C2215 C2214 1.524 . S
C2215 C2216 1.415 . S
C2216 H2192 0.950 . S
C2216 C2211 1.363 . S
C2216 C2215 1.415 . S
C2217 H2193 0.951 . S
C2217 C2218 1.366 . S
C2217 C2219 1.388 . S
C2218 C2217 1.366 . S
C2218 C2222 1.385 . S
C2219 H2194 0.951 . S
C2219 C2217 1.388 . S
C2219 C2220 1.366 . S
C2220 C2219 1.366 . S
C2220 C2221 1.414 . S
C2220 C2223 1.499 . S
C2221 H2195 0.950 . S
C2221 C2220 1.414 . S
C2221 C2222 1.374 . S
C2222 H2196 0.950 . S
C2222 C2218 1.385 . S
C2222 C2221 1.374 . S
C2223 C2220 1.499 . S
C2223 C2224 1.373 . S
C2223 C2225 1.389 . S
C2224 H2197 0.950 . S
C2224 C2210 1.377 . S
C2224 C2223 1.373 . S
C2225 C2209 1.377 . S
C2225 C2223 1.389 . S
C2225 C2226 1.524 . S
C2226 C2225 1.524 . S
C2226 C2227 1.397 . S
C2226 C2231 1.363 . S
C2227 H2198 0.950 . S
C2227 C2226 1.397 . S
C2227 C2228 1.334 . S
C2228 H2199 0.950 . S
C2228 C2227 1.334 . S
C2228 C2229 1.287 . S
C2229 C2228 1.287 . S
C2229 C2230 1.524 . S
C2229 H2232 0.999 . S
C2230 H2200 0.950 . S
C2230 C2229 1.524 . S
C2230 C2231 1.415 . S
C2231 H2201 0.950 . S
C2231 C2226 1.363 . S
C2231 C2230 1.415 . S
H2232 C2229 0.999 . S
H2233 C2214 0.913 . S
H2234 C2252 0.951 . S
H2235 C2254 0.951 . S
H2236 C2256 0.950 . S
H2237 C2257 0.950 . S
H2238 C2259 0.950 . S
H2239 C2262 0.950 . S
H2240 C2263 0.950 . S
H2241 C2265 0.950 . S
H2242 C2266 0.950 . S
H2243 C2267 0.951 . S
H2244 C2269 0.951 . S
H2245 C2271 0.950 . S
H2246 C2272 0.950 . S
H2247 C2274 0.950 . S
H2248 C2277 0.950 . S
H2249 C2278 0.950 . S
H2250 C2280 0.950 . S
H2251 C2281 0.950 . S
C2252 H2234 0.951 . S
C2252 C2253 1.366 . S
C2252 C2254 1.388 . S
C2253 C2252 1.366 . S
C2253 C2257 1.385 . S
C2254 H2235 0.951 . S
C2254 C2252 1.388 . S
C2254 C2255 1.366 . S
C2255 C2254 1.366 . S
C2255 C2256 1.414 . S
C2255 C2258 1.499 . S
C2256 H2236 0.950 . S
C2256 C2255 1.414 . S
C2256 C2257 1.374 . S
C2257 H2237 0.950 . S
C2257 C2253 1.385 . S
C2257 C2256 1.374 . S
C2258 C2255 1.499 . S
C2258 C2259 1.373 . S
C2258 C2260 1.389 . S
C2259 H2238 0.950 . S
C2259 C2258 1.373 . S
C2259 C2275 1.377 . S
C2260 C2258 1.389 . S
C2260 C2261 1.524 . S
C2260 C2274 1.377 . S
C2261 C2260 1.524 . S
C2261 C2262 1.397 . S
C2261 C2266 1.363 . S
C2262 H2239 0.950 . S
C2262 C2261 1.397 . S
C2262 C2263 1.334 . S
C2263 H2240 0.950 . S
C2263 C2262 1.334 . S
C2263 C2264 1.287 . S
C2264 C2263 1.287 . S
C2264 C2265 1.524 . S
C2264 H2283 0.913 . S
C2265 H2241 0.950 . S
C2265 C2264 1.524 . S
C2265 C2266 1.415 . S
C2266 H2242 0.950 . S
C2266 C2261 1.363 . S
C2266 C2265 1.415 . S
C2267 H2243 0.951 . S
C2267 C2268 1.366 . S
C2267 C2269 1.388 . S
C2268 C2267 1.366 . S
C2268 C2272 1.385 . S
C2269 H2244 0.951 . S
C2269 C2267 1.388 . S
C2269 C2270 1.366 . S
C2270 C2269 1.366 . S
C2270 C2271 1.414 . S
C2270 C2273 1.499 . S
C2271 H2245 0.950 . S
C2271 C2270 1.414 . S
C2271 C2272 1.374 . S
C2272 H2246 0.950 . S
C2272 C2268 1.385 . S
C2272 C2271 1.374 . S
C2273 C2270 1.499 . S
C2273 C2274 1.373 . S
C2273 C2275 1.389 . S
C2274 H2247 0.950 . S
C2274 C2260 1.377 . S
C2274 C2273 1.373 . S
C2275 C2259 1.377 . S
C2275 C2273 1.389 . S
C2275 C2276 1.524 . S
C2276 C2275 1.524 . S
C2276 C2277 1.397 . S
C2276 C2281 1.363 . S
C2277 H2248 0.950 . S
C2277 C2276 1.397 . S
C2277 C2278 1.334 . S
C2278 H2249 0.950 . S
C2278 C2277 1.334 . S
C2278 C2279 1.287 . S
C2279 C2278 1.287 . S
C2279 C2280 1.524 . S
C2279 H2282 0.999 . S
C2280 H2250 0.950 . S
C2280 C2279 1.524 . S
C2280 C2281 1.415 . S
C2281 H2251 0.950 . S
C2281 C2276 1.363 . S
C2281 C2280 1.415 . S
H2282 C2279 0.999 . S
H2283 C2264 0.913 . S
H2284 C2302 0.951 . S
H2285 C2304 0.951 . S
H2286 C2306 0.950 . S
H2287 C2307 0.950 . S
H2288 C2309 0.950 . S
H2289 C2312 0.950 . S
H2290 C2313 0.950 . S
H2291 C2315 0.950 . S
H2292 C2316 0.950 . S
H2293 C2317 0.951 . S
H2294 C2319 0.951 . S
H2295 C2321 0.950 . S
H2296 C2322 0.950 . S
H2297 C2324 0.950 . S
H2298 C2327 0.950 . S
H2299 C2328 0.950 . S
H2300 C2330 0.950 . S
H2301 C2331 0.950 . S
C2302 H2284 0.951 . S
C2302 C2303 1.366 . S
C2302 C2304 1.388 . S
C2303 C2302 1.366 . S
C2303 C2307 1.385 . S
C2304 H2285 0.951 . S
C2304 C2302 1.388 . S
C2304 C2305 1.366 . S
C2305 C2304 1.366 . S
C2305 C2306 1.414 . S
C2305 C2308 1.499 . S
C2306 H2286 0.950 . S
C2306 C2305 1.414 . S
C2306 C2307 1.374 . S
C2307 H2287 0.950 . S
C2307 C2303 1.385 . S
C2307 C2306 1.374 . S
C2308 C2305 1.499 . S
C2308 C2309 1.373 . S
C2308 C2310 1.389 . S
C2309 H2288 0.950 . S
C2309 C2308 1.373 . S
C2309 C2325 1.377 . S
C2310 C2308 1.389 . S
C2310 C2311 1.524 . S
C2310 C2324 1.377 . S
C2311 C2310 1.524 . S
C2311 C2312 1.397 . S
C2311 C2316 1.363 . S
C2312 H2289 0.950 . S
C2312 C2311 1.397 . S
C2312 C2313 1.334 . S
C2313 H2290 0.950 . S
C2313 C2312 1.334 . S
C2313 C2314 1.287 . S
C2314 C2313 1.287 . S
C2314 C2315 1.524 . S
C2314 H2333 0.913 . S
C2315 H2291 0.950 . S
C2315 C2314 1.524 . S
C2315 C2316 1.415 . S
C2316 H2292 0.950 . S
C2316 C2311 1.363 . S
C2316 C2315 1.415 . S
C2317 H2293 0.951 . S
C2317 C2318 1.366 . S
C2317 C2319 1.388 . S
C2318 C2317 1.366 . S
C2318 C2322 1.385 . S
C2319 H2294 0.951 . S
C2319 C2317 1.388 . S
C2319 C2320 1.366 . S
C2320 C2319 1.366 . S
C2320 C2321 1.414 . S
C2320 C2323 1.499 . S
C2321 H2295 0.950 . S
C2321 C2320 1.414 . S
C2321 C2322 1.374 . S
C2322 H2296 0.950 . S
C2322 C2318 1.385 . S
C2322 C2321 1.374 . S
C2323 C2320 1.499 . S
C2323 C2324 1.373 . S
C2323 C2325 1.389 . S
C2324 H2297 0.950 . S
C2324 C2310 1.377 . S
C2324 C2323 1.373 . S
C2325 C2309 1.377 . S
C2325 C2323 1.389 . S
C2325 C2326 1.524 . S
C2326 C2325 1.524 . S
C2326 C2327 1.397 . S
C2326 C2331 1.363 . S
C2327 H2298 0.950 . S
C2327 C2326 1.397 . S
C2327 C2328 1.334 . S
C2328 H2299 0.950 . S
C2328 C2327 1.334 . S
C2328 C2329 1.287 . S
C2329 C2328 1.287 . S
C2329 C2330 1.524 . S
C2329 H2332 0.999 . S
C2330 H2300 0.950 . S
C2330 C2329 1.524 . S
C2330 C2331 1.415 . S
C2331 H2301 0.950 . S
C2331 C2326 1.363 . S
C2331 C2330 1.415 . S
H2332 C2329 0.999 . S
H2333 C2314 0.913 . S
H2334 C2352 0.951 . S
H2335 C2354 0.951 . S
H2336 C2356 0.950 . S
H2337 C2357 0.950 . S
H2338 C2359 0.950 . S
H2339 C2362 0.950 . S
H2340 C2363 0.950 . S
H2341 C2365 0.950 . S
H2342 C2366 0.950 . S
H2343 C2367 0.951 . S
H2344 C2369 0.951 . S
H2345 C2371 0.950 . S
H2346 C2372 0.950 . S
H2347 C2374 0.950 . S
H2348 C2377 0.950 . S
H2349 C2378 0.950 . S
H2350 C2380 0.950 . S
H2351 C2381 0.950 . S
C2352 H2334 0.951 . S
C2352 C2353 1.366 . S
C2352 C2354 1.388 . S
C2353 C2352 1.366 . S
C2353 C2357 1.385 . S
C2354 H2335 0.951 . S
C2354 C2352 1.388 . S
C2354 C2355 1.366 . S
C2355 C2354 1.366 . S
C2355 C2356 1.414 . S
C2355 C2358 1.499 . S
C2356 H2336 0.950 . S
C2356 C2355 1.414 . S
C2356 C2357 1.374 . S
C2357 H2337 0.950 . S
C2357 C2353 1.385 . S
C2357 C2356 1.374 . S
C2358 C2355 1.499 . S
C2358 C2359 1.373 . S
C2358 C2360 1.389 . S
C2359 H2338 0.950 . S
C2359 C2358 1.373 . S
C2359 C2375 1.377 . S
C2360 C2358 1.389 . S
C2360 C2361 1.524 . S
C2360 C2374 1.377 . S
C2361 C2360 1.524 . S
C2361 C2362 1.397 . S
C2361 C2366 1.363 . S
C2362 H2339 0.950 . S
C2362 C2361 1.397 . S
C2362 C2363 1.334 . S
C2363 H2340 0.950 . S
C2363 C2362 1.334 . S
C2363 C2364 1.287 . S
C2364 C2363 1.287 . S
C2364 C2365 1.524 . S
C2364 H2383 0.913 . S
C2365 H2341 0.950 . S
C2365 C2364 1.524 . S
C2365 C2366 1.415 . S
C2366 H2342 0.950 . S
C2366 C2361 1.363 . S
C2366 C2365 1.415 . S
C2367 H2343 0.951 . S
C2367 C2368 1.366 . S
C2367 C2369 1.388 . S
C2368 C2367 1.366 . S
C2368 C2372 1.385 . S
C2369 H2344 0.951 . S
C2369 C2367 1.388 . S
C2369 C2370 1.366 . S
C2370 C2369 1.366 . S
C2370 C2371 1.414 . S
C2370 C2373 1.499 . S
C2371 H2345 0.950 . S
C2371 C2370 1.414 . S
C2371 C2372 1.374 . S
C2372 H2346 0.950 . S
C2372 C2368 1.385 . S
C2372 C2371 1.374 . S
C2373 C2370 1.499 . S
C2373 C2374 1.373 . S
C2373 C2375 1.389 . S
C2374 H2347 0.950 . S
C2374 C2360 1.377 . S
C2374 C2373 1.373 . S
C2375 C2359 1.377 . S
C2375 C2373 1.389 . S
C2375 C2376 1.524 . S
C2376 C2375 1.524 . S
C2376 C2377 1.397 . S
C2376 C2381 1.363 . S
C2377 H2348 0.950 . S
C2377 C2376 1.397 . S
C2377 C2378 1.334 . S
C2378 H2349 0.950 . S
C2378 C2377 1.334 . S
C2378 C2379 1.287 . S
C2379 C2378 1.287 . S
C2379 C2380 1.524 . S
C2379 H2382 0.999 . S
C2380 H2350 0.950 . S
C2380 C2379 1.524 . S
C2380 C2381 1.415 . S
C2381 H2351 0.950 . S
C2381 C2376 1.363 . S
C2381 C2380 1.415 . S
H2382 C2379 0.999 . S
H2383 C2364 0.913 . S
H2384 C2402 0.951 . S
H2385 C2404 0.951 . S
H2386 C2406 0.950 . S
H2387 C2407 0.950 . S
H2388 C2409 0.950 . S
H2389 C2412 0.950 . S
H2390 C2413 0.950 . S
H2391 C2415 0.950 . S
H2392 C2416 0.950 . S
H2393 C2417 0.951 . S
H2394 C2419 0.951 . S
H2395 C2421 0.950 . S
H2396 C2422 0.950 . S
H2397 C2424 0.950 . S
H2398 C2427 0.950 . S
H2399 C2428 0.950 . S
H2400 C2430 0.950 . S
H2401 C2431 0.950 . S
C2402 H2384 0.951 . S
C2402 C2403 1.366 . S
C2402 C2404 1.388 . S
C2403 C2402 1.366 . S
C2403 C2407 1.385 . S
C2404 H2385 0.951 . S
C2404 C2402 1.388 . S
C2404 C2405 1.366 . S
C2405 C2404 1.366 . S
C2405 C2406 1.414 . S
C2405 C2408 1.499 . S
C2406 H2386 0.950 . S
C2406 C2405 1.414 . S
C2406 C2407 1.374 . S
C2407 H2387 0.950 . S
C2407 C2403 1.385 . S
C2407 C2406 1.374 . S
C2408 C2405 1.499 . S
C2408 C2409 1.373 . S
C2408 C2410 1.389 . S
C2409 H2388 0.950 . S
C2409 C2408 1.373 . S
C2409 C2425 1.377 . S
C2410 C2408 1.389 . S
C2410 C2411 1.524 . S
C2410 C2424 1.377 . S
C2411 C2410 1.524 . S
C2411 C2412 1.397 . S
C2411 C2416 1.363 . S
C2412 H2389 0.950 . S
C2412 C2411 1.397 . S
C2412 C2413 1.334 . S
C2413 H2390 0.950 . S
C2413 C2412 1.334 . S
C2413 C2414 1.287 . S
C2414 C2413 1.287 . S
C2414 C2415 1.524 . S
C2414 H2433 0.913 . S
C2415 H2391 0.950 . S
C2415 C2414 1.524 . S
C2415 C2416 1.415 . S
C2416 H2392 0.950 . S
C2416 C2411 1.363 . S
C2416 C2415 1.415 . S
C2417 H2393 0.951 . S
C2417 C2418 1.366 . S
C2417 C2419 1.388 . S
C2418 C2417 1.366 . S
C2418 C2422 1.385 . S
C2419 H2394 0.951 . S
C2419 C2417 1.388 . S
C2419 C2420 1.366 . S
C2420 C2419 1.366 . S
C2420 C2421 1.414 . S
C2420 C2423 1.499 . S
C2421 H2395 0.950 . S
C2421 C2420 1.414 . S
C2421 C2422 1.374 . S
C2422 H2396 0.950 . S
C2422 C2418 1.385 . S
C2422 C2421 1.374 . S
C2423 C2420 1.499 . S
C2423 C2424 1.373 . S
C2423 C2425 1.389 . S
C2424 H2397 0.950 . S
C2424 C2410 1.377 . S
C2424 C2423 1.373 . S
C2425 C2409 1.377 . S
C2425 C2423 1.389 . S
C2425 C2426 1.524 . S
C2426 C2425 1.524 . S
C2426 C2427 1.397 . S
C2426 C2431 1.363 . S
C2427 H2398 0.950 . S
C2427 C2426 1.397 . S
C2427 C2428 1.334 . S
C2428 H2399 0.950 . S
C2428 C2427 1.334 . S
C2428 C2429 1.287 . S
C2429 C2428 1.287 . S
C2429 C2430 1.524 . S
C2429 H2432 0.999 . S
C2430 H2400 0.950 . S
C2430 C2429 1.524 . S
C2430 C2431 1.415 . S
C2431 H2401 0.950 . S
C2431 C2426 1.363 . S
C2431 C2430 1.415 . S
H2432 C2429 0.999 . S
H2433 C2414 0.913 . S
H2434 C2452 0.951 . S
H2435 C2454 0.951 . S
H2436 C2456 0.950 . S
H2437 C2457 0.950 . S
H2438 C2459 0.950 . S
H2439 C2462 0.950 . S
H2440 C2463 0.950 . S
H2441 C2465 0.950 . S
H2442 C2466 0.950 . S
H2443 C2467 0.951 . S
H2444 C2469 0.951 . S
H2445 C2471 0.950 . S
H2446 C2472 0.950 . S
H2447 C2474 0.950 . S
H2448 C2477 0.950 . S
H2449 C2478 0.950 . S
H2450 C2480 0.950 . S
H2451 C2481 0.950 . S
C2452 H2434 0.951 . S
C2452 C2453 1.366 . S
C2452 C2454 1.388 . S
C2453 C2452 1.366 . S
C2453 C2457 1.385 . S
C2454 H2435 0.951 . S
C2454 C2452 1.388 . S
C2454 C2455 1.366 . S
C2455 C2454 1.366 . S
C2455 C2456 1.414 . S
C2455 C2458 1.499 . S
C2456 H2436 0.950 . S
C2456 C2455 1.414 . S
C2456 C2457 1.374 . S
C2457 H2437 0.950 . S
C2457 C2453 1.385 . S
C2457 C2456 1.374 . S
C2458 C2455 1.499 . S
C2458 C2459 1.373 . S
C2458 C2460 1.389 . S
C2459 H2438 0.950 . S
C2459 C2458 1.373 . S
C2459 C2475 1.377 . S
C2460 C2458 1.389 . S
C2460 C2461 1.524 . S
C2460 C2474 1.377 . S
C2461 C2460 1.524 . S
C2461 C2462 1.397 . S
C2461 C2466 1.363 . S
C2462 H2439 0.950 . S
C2462 C2461 1.397 . S
C2462 C2463 1.334 . S
C2463 H2440 0.950 . S
C2463 C2462 1.334 . S
C2463 C2464 1.287 . S
C2464 C2463 1.287 . S
C2464 C2465 1.524 . S
C2464 H2483 0.913 . S
C2465 H2441 0.950 . S
C2465 C2464 1.524 . S
C2465 C2466 1.415 . S
C2466 H2442 0.950 . S
C2466 C2461 1.363 . S
C2466 C2465 1.415 . S
C2467 H2443 0.951 . S
C2467 C2468 1.366 . S
C2467 C2469 1.388 . S
C2468 C2467 1.366 . S
C2468 C2472 1.385 . S
C2469 H2444 0.951 . S
C2469 C2467 1.388 . S
C2469 C2470 1.366 . S
C2470 C2469 1.366 . S
C2470 C2471 1.414 . S
C2470 C2473 1.499 . S
C2471 H2445 0.950 . S
C2471 C2470 1.414 . S
C2471 C2472 1.374 . S
C2472 H2446 0.950 . S
C2472 C2468 1.385 . S
C2472 C2471 1.374 . S
C2473 C2470 1.499 . S
C2473 C2474 1.373 . S
C2473 C2475 1.389 . S
C2474 H2447 0.950 . S
C2474 C2460 1.377 . S
C2474 C2473 1.373 . S
C2475 C2459 1.377 . S
C2475 C2473 1.389 . S
C2475 C2476 1.524 . S
C2476 C2475 1.524 . S
C2476 C2477 1.397 . S
C2476 C2481 1.363 . S
C2477 H2448 0.950 . S
C2477 C2476 1.397 . S
C2477 C2478 1.334 . S
C2478 H2449 0.950 . S
C2478 C2477 1.334 . S
C2478 C2479 1.287 . S
C2479 C2478 1.287 . S
C2479 C2480 1.524 . S
C2479 H2482 0.999 . S
C2480 H2450 0.950 . S
C2480 C2479 1.524 . S
C2480 C2481 1.415 . S
C2481 H2451 0.950 . S
C2481 C2476 1.363 . S
C2481 C2480 1.415 . S
H2482 C2479 0.999 . S
H2483 C2464 0.913 . S
H2484 C2502 0.951 . S
H2485 C2504 0.951 . S
H2486 C2506 0.950 . S
H2487 C2507 0.950 . S
H2488 C2509 0.950 . S
H2489 C2512 0.950 . S
H2490 C2513 0.950 . S
H2491 C2515 0.950 . S
H2492 C2516 0.950 . S
H2493 C2517 0.951 . S
H2494 C2519 0.951 . S
H2495 C2521 0.950 . S
H2496 C2522 0.950 . S
H2497 C2524 0.950 . S
H2498 C2527 0.950 . S
H2499 C2528 0.950 . S
H2500 C2530 0.950 . S
H2501 C2531 0.950 . S
C2502 H2484 0.951 . S
C2502 C2503 1.366 . S
C2502 C2504 1.388 . S
C2503 C2502 1.366 . S
C2503 C2507 1.385 . S
C2504 H2485 0.951 . S
C2504 C2502 1.388 . S
C2504 C2505 1.366 . S
C2505 C2504 1.366 . S
C2505 C2506 1.414 . S
C2505 C2508 1.499 . S
C2506 H2486 0.950 . S
C2506 C2505 1.414 . S
C2506 C2507 1.374 . S
C2507 H2487 0.950 . S
C2507 C2503 1.385 . S
C2507 C2506 1.374 . S
C2508 C2505 1.499 . S
C2508 C2509 1.373 . S
C2508 C2510 1.389 . S
C2509 H2488 0.950 . S
C2509 C2508 1.373 . S
C2509 C2525 1.377 . S
C2510 C2508 1.389 . S
C2510 C2511 1.524 . S
C2510 C2524 1.377 . S
C2511 C2510 1.524 . S
C2511 C2512 1.397 . S
C2511 C2516 1.363 . S
C2512 H2489 0.950 . S
C2512 C2511 1.397 . S
C2512 C2513 1.334 . S
C2513 H2490 0.950 . S
C2513 C2512 1.334 . S
C2513 C2514 1.287 . S
C2514 C2513 1.287 . S
C2514 C2515 1.524 . S
C2514 H2533 0.913 . S
C2515 H2491 0.950 . S
C2515 C2514 1.524 . S
C2515 C2516 1.415 . S
C2516 H2492 0.950 . S
C2516 C2511 1.363 . S
C2516 C2515 1.415 . S
C2517 H2493 0.951 . S
C2517 C2518 1.366 . S
C2517 C2519 1.388 . S
C2518 C2517 1.366 . S
C2518 C2522 1.385 . S
C2519 H2494 0.951 . S
C2519 C2517 1.388 . S
C2519 C2520 1.366 . S
C2520 C2519 1.366 . S
C2520 C2521 1.414 . S
C2520 C2523 1.499 . S
C2521 H2495 0.950 . S
C2521 C2520 1.414 . S
C2521 C2522 1.374 . S
C2522 H2496 0.950 . S
C2522 C2518 1.385 . S
C2522 C2521 1.374 . S
C2523 C2520 1.499 . S
C2523 C2524 1.373 . S
C2523 C2525 1.389 . S
C2524 H2497 0.950 . S
C2524 C2510 1.377 . S
C2524 C2523 1.373 . S
C2525 C2509 1.377 . S
C2525 C2523 1.389 . S
C2525 C2526 1.524 . S
C2526 C2525 1.524 . S
C2526 C2527 1.397 . S
C2526 C2531 1.363 . S
C2527 H2498 0.950 . S
C2527 C2526 1.397 . S
C2527 C2528 1.334 . S
C2528 H2499 0.950 . S
C2528 C2527 1.334 . S
C2528 C2529 1.287 . S
C2529 C2528 1.287 . S
C2529 C2530 1.524 . S
C2529 H2532 0.999 . S
C2530 H2500 0.950 . S
C2530 C2529 1.524 . S
C2530 C2531 1.415 . S
C2531 H2501 0.950 . S
C2531 C2526 1.363 . S
C2531 C2530 1.415 . S
H2532 C2529 0.999 . S
H2533 C2514 0.913 . S
H2534 C2552 0.951 . S
H2535 C2554 0.951 . S
H2536 C2556 0.950 . S
H2537 C2557 0.950 . S
H2538 C2559 0.950 . S
H2539 C2562 0.950 . S
H2540 C2563 0.950 . S
H2541 C2565 0.950 . S
H2542 C2566 0.950 . S
H2543 C2567 0.951 . S
H2544 C2569 0.951 . S
H2545 C2571 0.950 . S
H2546 C2572 0.950 . S
H2547 C2574 0.950 . S
H2548 C2577 0.950 . S
H2549 C2578 0.950 . S
H2550 C2580 0.950 . S
H2551 C2581 0.950 . S
C2552 H2534 0.951 . S
C2552 C2553 1.366 . S
C2552 C2554 1.388 . S
C2553 C2552 1.366 . S
C2553 C2557 1.385 . S
C2554 H2535 0.951 . S
C2554 C2552 1.388 . S
C2554 C2555 1.366 . S
C2555 C2554 1.366 . S
C2555 C2556 1.414 . S
C2555 C2558 1.499 . S
C2556 H2536 0.950 . S
C2556 C2555 1.414 . S
C2556 C2557 1.374 . S
C2557 H2537 0.950 . S
C2557 C2553 1.385 . S
C2557 C2556 1.374 . S
C2558 C2555 1.499 . S
C2558 C2559 1.373 . S
C2558 C2560 1.389 . S
C2559 H2538 0.950 . S
C2559 C2558 1.373 . S
C2559 C2575 1.377 . S
C2560 C2558 1.389 . S
C2560 C2561 1.524 . S
C2560 C2574 1.377 . S
C2561 C2560 1.524 . S
C2561 C2562 1.397 . S
C2561 C2566 1.363 . S
C2562 H2539 0.950 . S
C2562 C2561 1.397 . S
C2562 C2563 1.334 . S
C2563 H2540 0.950 . S
C2563 C2562 1.334 . S
C2563 C2564 1.287 . S
C2564 C2563 1.287 . S
C2564 C2565 1.524 . S
C2564 H2583 0.913 . S
C2565 H2541 0.950 . S
C2565 C2564 1.524 . S
C2565 C2566 1.415 . S
C2566 H2542 0.950 . S
C2566 C2561 1.363 . S
C2566 C2565 1.415 . S
C2567 H2543 0.951 . S
C2567 C2568 1.366 . S
C2567 C2569 1.388 . S
C2568 C2567 1.366 . S
C2568 C2572 1.385 . S
C2569 H2544 0.951 . S
C2569 C2567 1.388 . S
C2569 C2570 1.366 . S
C2570 C2569 1.366 . S
C2570 C2571 1.414 . S
C2570 C2573 1.499 . S
C2571 H2545 0.950 . S
C2571 C2570 1.414 . S
C2571 C2572 1.374 . S
C2572 H2546 0.950 . S
C2572 C2568 1.385 . S
C2572 C2571 1.374 . S
C2573 C2570 1.499 . S
C2573 C2574 1.373 . S
C2573 C2575 1.389 . S
C2574 H2547 0.950 . S
C2574 C2560 1.377 . S
C2574 C2573 1.373 . S
C2575 C2559 1.377 . S
C2575 C2573 1.389 . S
C2575 C2576 1.524 . S
C2576 C2575 1.524 . S
C2576 C2577 1.397 . S
C2576 C2581 1.363 . S
C2577 H2548 0.950 . S
C2577 C2576 1.397 . S
C2577 C2578 1.334 . S
C2578 H2549 0.950 . S
C2578 C2577 1.334 . S
C2578 C2579 1.287 . S
C2579 C2578 1.287 . S
C2579 C2580 1.524 . S
C2579 H2582 0.999 . S
C2580 H2550 0.950 . S
C2580 C2579 1.524 . S
C2580 C2581 1.415 . S
C2581 H2551 0.950 . S
C2581 C2576 1.363 . S
C2581 C2580 1.415 . S
H2582 C2579 0.999 . S
H2583 C2564 0.913 . S
H2584 C2602 0.951 . S
H2585 C2604 0.951 . S
H2586 C2606 0.950 . S
H2587 C2607 0.950 . S
H2588 C2609 0.950 . S
H2589 C2612 0.950 . S
H2590 C2613 0.950 . S
H2591 C2615 0.950 . S
H2592 C2616 0.950 . S
H2593 C2617 0.951 . S
H2594 C2619 0.951 . S
H2595 C2621 0.950 . S
H2596 C2622 0.950 . S
H2597 C2624 0.950 . S
H2598 C2627 0.950 . S
H2599 C2628 0.950 . S
H2600 C2630 0.950 . S
H2601 C2631 0.950 . S
C2602 H2584 0.951 . S
C2602 C2603 1.366 . S
C2602 C2604 1.388 . S
C2603 C2602 1.366 . S
C2603 C2607 1.385 . S
C2604 H2585 0.951 . S
C2604 C2602 1.388 . S
C2604 C2605 1.366 . S
C2605 C2604 1.366 . S
C2605 C2606 1.414 . S
C2605 C2608 1.499 . S
C2606 H2586 0.950 . S
C2606 C2605 1.414 . S
C2606 C2607 1.374 . S
C2607 H2587 0.950 . S
C2607 C2603 1.385 . S
C2607 C2606 1.374 . S
C2608 C2605 1.499 . S
C2608 C2609 1.373 . S
C2608 C2610 1.389 . S
C2609 H2588 0.950 . S
C2609 C2608 1.373 . S
C2609 C2625 1.377 . S
C2610 C2608 1.389 . S
C2610 C2611 1.524 . S
C2610 C2624 1.377 . S
C2611 C2610 1.524 . S
C2611 C2612 1.397 . S
C2611 C2616 1.363 . S
C2612 H2589 0.950 . S
C2612 C2611 1.397 . S
C2612 C2613 1.334 . S
C2613 H2590 0.950 . S
C2613 C2612 1.334 . S
C2613 C2614 1.287 . S
C2614 C2613 1.287 . S
C2614 C2615 1.524 . S
C2614 H2633 0.913 . S
C2615 H2591 0.950 . S
C2615 C2614 1.524 . S
C2615 C2616 1.415 . S
C2616 H2592 0.950 . S
C2616 C2611 1.363 . S
C2616 C2615 1.415 . S
C2617 H2593 0.951 . S
C2617 C2618 1.366 . S
C2617 C2619 1.388 . S
C2618 C2617 1.366 . S
C2618 C2622 1.385 . S
C2619 H2594 0.951 . S
C2619 C2617 1.388 . S
C2619 C2620 1.366 . S
C2620 C2619 1.366 . S
C2620 C2621 1.414 . S
C2620 C2623 1.499 . S
C2621 H2595 0.950 . S
C2621 C2620 1.414 . S
C2621 C2622 1.374 . S
C2622 H2596 0.950 . S
C2622 C2618 1.385 . S
C2622 C2621 1.374 . S
C2623 C2620 1.499 . S
C2623 C2624 1.373 . S
C2623 C2625 1.389 . S
C2624 H2597 0.950 . S
C2624 C2610 1.377 . S
C2624 C2623 1.373 . S
C2625 C2609 1.377 . S
C2625 C2623 1.389 . S
C2625 C2626 1.524 . S
C2626 C2625 1.524 . S
C2626 C2627 1.397 . S
C2626 C2631 1.363 . S
C2627 H2598 0.950 . S
C2627 C2626 1.397 . S
C2627 C2628 1.334 . S
C2628 H2599 0.950 . S
C2628 C2627 1.334 . S
C2628 C2629 1.287 . S
C2629 C2628 1.287 . S
C2629 C2630 1.524 . S
C2629 H2632 0.999 . S
C2630 H2600 0.950 . S
C2630 C2629 1.524 . S
C2630 C2631 1.415 . S
C2631 H2601 0.950 . S
C2631 C2626 1.363 . S
C2631 C2630 1.415 . S
H2632 C2629 0.999 . S
H2633 C2614 0.913 . S
H2634 C2652 0.951 . S
H2635 C2654 0.951 . S
H2636 C2656 0.950 . S
H2637 C2657 0.950 . S
H2638 C2659 0.950 . S
H2639 C2662 0.950 . S
H2640 C2663 0.950 . S
H2641 C2665 0.950 . S
H2642 C2666 0.950 . S
H2643 C2667 0.951 . S
H2644 C2669 0.951 . S
H2645 C2671 0.950 . S
H2646 C2672 0.950 . S
H2647 C2674 0.950 . S
H2648 C2677 0.950 . S
H2649 C2678 0.950 . S
H2650 C2680 0.950 . S
H2651 C2681 0.950 . S
C2652 H2634 0.951 . S
C2652 C2653 1.366 . S
C2652 C2654 1.388 . S
C2653 C2652 1.366 . S
C2653 C2657 1.385 . S
C2654 H2635 0.951 . S
C2654 C2652 1.388 . S
C2654 C2655 1.366 . S
C2655 C2654 1.366 . S
C2655 C2656 1.414 . S
C2655 C2658 1.499 . S
C2656 H2636 0.950 . S
C2656 C2655 1.414 . S
C2656 C2657 1.374 . S
C2657 H2637 0.950 . S
C2657 C2653 1.385 . S
C2657 C2656 1.374 . S
C2658 C2655 1.499 . S
C2658 C2659 1.373 . S
C2658 C2660 1.389 . S
C2659 H2638 0.950 . S
C2659 C2658 1.373 . S
C2659 C2675 1.377 . S
C2660 C2658 1.389 . S
C2660 C2661 1.524 . S
C2660 C2674 1.377 . S
C2661 C2660 1.524 . S
C2661 C2662 1.397 . S
C2661 C2666 1.363 . S
C2662 H2639 0.950 . S
C2662 C2661 1.397 . S
C2662 C2663 1.334 . S
C2663 H2640 0.950 . S
C2663 C2662 1.334 . S
C2663 C2664 1.287 . S
C2664 C2663 1.287 . S
C2664 C2665 1.524 . S
C2664 H2683 0.913 . S
C2665 H2641 0.950 . S
C2665 C2664 1.524 . S
C2665 C2666 1.415 . S
C2666 H2642 0.950 . S
C2666 C2661 1.363 . S
C2666 C2665 1.415 . S
C2667 H2643 0.951 . S
C2667 C2668 1.366 . S
C2667 C2669 1.388 . S
C2668 C2667 1.366 . S
C2668 C2672 1.385 . S
C2669 H2644 0.951 . S
C2669 C2667 1.388 . S
C2669 C2670 1.366 . S
C2670 C2669 1.366 . S
C2670 C2671 1.414 . S
C2670 C2673 1.499 . S
C2671 H2645 0.950 . S
C2671 C2670 1.414 . S
C2671 C2672 1.374 . S
C2672 H2646 0.950 . S
C2672 C2668 1.385 . S
C2672 C2671 1.374 . S
C2673 C2670 1.499 . S
C2673 C2674 1.373 . S
C2673 C2675 1.389 . S
C2674 H2647 0.950 . S
C2674 C2660 1.377 . S
C2674 C2673 1.373 . S
C2675 C2659 1.377 . S
C2675 C2673 1.389 . S
C2675 C2676 1.524 . S
C2676 C2675 1.524 . S
C2676 C2677 1.397 . S
C2676 C2681 1.363 . S
C2677 H2648 0.950 . S
C2677 C2676 1.397 . S
C2677 C2678 1.334 . S
C2678 H2649 0.950 . S
C2678 C2677 1.334 . S
C2678 C2679 1.287 . S
C2679 C2678 1.287 . S
C2679 C2680 1.524 . S
C2679 H2682 0.999 . S
C2680 H2650 0.950 . S
C2680 C2679 1.524 . S
C2680 C2681 1.415 . S
C2681 H2651 0.950 . S
C2681 C2676 1.363 . S
C2681 C2680 1.415 . S
H2682 C2679 0.999 . S
H2683 C2664 0.913 . S
H2684 C2702 0.951 . S
H2685 C2704 0.951 . S
H2686 C2706 0.950 . S
H2687 C2707 0.950 . S
H2688 C2709 0.950 . S
H2689 C2712 0.950 . S
H2690 C2713 0.950 . S
H2691 C2715 0.950 . S
H2692 C2716 0.950 . S
H2693 C2717 0.951 . S
H2694 C2719 0.951 . S
H2695 C2721 0.950 . S
H2696 C2722 0.950 . S
H2697 C2724 0.950 . S
H2698 C2727 0.950 . S
H2699 C2728 0.950 . S
H2700 C2730 0.950 . S
H2701 C2731 0.950 . S
C2702 H2684 0.951 . S
C2702 C2703 1.366 . S
C2702 C2704 1.388 . S
C2703 C2702 1.366 . S
C2703 C2707 1.385 . S
C2704 H2685 0.951 . S
C2704 C2702 1.388 . S
C2704 C2705 1.366 . S
C2705 C2704 1.366 . S
C2705 C2706 1.414 . S
C2705 C2708 1.499 . S
C2706 H2686 0.950 . S
C2706 C2705 1.414 . S
C2706 C2707 1.374 . S
C2707 H2687 0.950 . S
C2707 C2703 1.385 . S
C2707 C2706 1.374 . S
C2708 C2705 1.499 . S
C2708 C2709 1.373 . S
C2708 C2710 1.389 . S
C2709 H2688 0.950 . S
C2709 C2708 1.373 . S
C2709 C2725 1.377 . S
C2710 C2708 1.389 . S
C2710 C2711 1.524 . S
C2710 C2724 1.377 . S
C2711 C2710 1.524 . S
C2711 C2712 1.397 . S
C2711 C2716 1.363 . S
C2712 H2689 0.950 . S
C2712 C2711 1.397 . S
C2712 C2713 1.334 . S
C2713 H2690 0.950 . S
C2713 C2712 1.334 . S
C2713 C2714 1.287 . S
C2714 C2713 1.287 . S
C2714 C2715 1.524 . S
C2714 H2733 0.913 . S
C2715 H2691 0.950 . S
C2715 C2714 1.524 . S
C2715 C2716 1.415 . S
C2716 H2692 0.950 . S
C2716 C2711 1.363 . S
C2716 C2715 1.415 . S
C2717 H2693 0.951 . S
C2717 C2718 1.366 . S
C2717 C2719 1.388 . S
C2718 C2717 1.366 . S
C2718 C2722 1.385 . S
C2719 H2694 0.951 . S
C2719 C2717 1.388 . S
C2719 C2720 1.366 . S
C2720 C2719 1.366 . S
C2720 C2721 1.414 . S
C2720 C2723 1.499 . S
C2721 H2695 0.950 . S
C2721 C2720 1.414 . S
C2721 C2722 1.374 . S
C2722 H2696 0.950 . S
C2722 C2718 1.385 . S
C2722 C2721 1.374 . S
C2723 C2720 1.499 . S
C2723 C2724 1.373 . S
C2723 C2725 1.389 . S
C2724 H2697 0.950 . S
C2724 C2710 1.377 . S
C2724 C2723 1.373 . S
C2725 C2709 1.377 . S
C2725 C2723 1.389 . S
C2725 C2726 1.524 . S
C2726 C2725 1.524 . S
C2726 C2727 1.397 . S
C2726 C2731 1.363 . S
C2727 H2698 0.950 . S
C2727 C2726 1.397 . S
C2727 C2728 1.334 . S
C2728 H2699 0.950 . S
C2728 C2727 1.334 . S
C2728 C2729 1.287 . S
C2729 C2728 1.287 . S
C2729 C2730 1.524 . S
C2729 H2732 0.999 . S
C2730 H2700 0.950 . S
C2730 C2729 1.524 . S
C2730 C2731 1.415 . S
C2731 H2701 0.950 . S
C2731 C2726 1.363 . S
C2731 C2730 1.415 . S
H2732 C2729 0.999 . S
H2733 C2714 0.913 . S
H2734 C2752 0.951 . S
H2735 C2754 0.951 . S
H2736 C2756 0.950 . S
H2737 C2757 0.950 . S
H2738 C2759 0.950 . S
H2739 C2762 0.950 . S
H2740 C2763 0.950 . S
H2741 C2765 0.950 . S
H2742 C2766 0.950 . S
H2743 C2767 0.951 . S
H2744 C2769 0.951 . S
H2745 C2771 0.950 . S
H2746 C2772 0.950 . S
H2747 C2774 0.950 . S
H2748 C2777 0.950 . S
H2749 C2778 0.950 . S
H2750 C2780 0.950 . S
H2751 C2781 0.950 . S
C2752 H2734 0.951 . S
C2752 C2753 1.366 . S
C2752 C2754 1.388 . S
C2753 C2752 1.366 . S
C2753 C2757 1.385 . S
C2754 H2735 0.951 . S
C2754 C2752 1.388 . S
C2754 C2755 1.366 . S
C2755 C2754 1.366 . S
C2755 C2756 1.414 . S
C2755 C2758 1.499 . S
C2756 H2736 0.950 . S
C2756 C2755 1.414 . S
C2756 C2757 1.374 . S
C2757 H2737 0.950 . S
C2757 C2753 1.385 . S
C2757 C2756 1.374 . S
C2758 C2755 1.499 . S
C2758 C2759 1.373 . S
C2758 C2760 1.389 . S
C2759 H2738 0.950 . S
C2759 C2758 1.373 . S
C2759 C2775 1.377 . S
C2760 C2758 1.389 . S
C2760 C2761 1.524 . S
C2760 C2774 1.377 . S
C2761 C2760 1.524 . S
C2761 C2762 1.397 . S
C2761 C2766 1.363 . S
C2762 H2739 0.950 . S
C2762 C2761 1.397 . S
C2762 C2763 1.334 . S
C2763 H2740 0.950 . S
C2763 C2762 1.334 . S
C2763 C2764 1.287 . S
C2764 C2763 1.287 . S
C2764 C2765 1.524 . S
C2764 H2783 0.913 . S
C2765 H2741 0.950 . S
C2765 C2764 1.524 . S
C2765 C2766 1.415 . S
C2766 H2742 0.950 . S
C2766 C2761 1.363 . S
C2766 C2765 1.415 . S
C2767 H2743 0.951 . S
C2767 C2768 1.366 . S
C2767 C2769 1.388 . S
C2768 C2767 1.366 . S
C2768 C2772 1.385 . S
C2769 H2744 0.951 . S
C2769 C2767 1.388 . S
C2769 C2770 1.366 . S
C2770 C2769 1.366 . S
C2770 C2771 1.414 . S
C2770 C2773 1.499 . S
C2771 H2745 0.950 . S
C2771 C2770 1.414 . S
C2771 C2772 1.374 . S
C2772 H2746 0.950 . S
C2772 C2768 1.385 . S
C2772 C2771 1.374 . S
C2773 C2770 1.499 . S
C2773 C2774 1.373 . S
C2773 C2775 1.389 . S
C2774 H2747 0.950 . S
C2774 C2760 1.377 . S
C2774 C2773 1.373 . S
C2775 C2759 1.377 . S
C2775 C2773 1.389 . S
C2775 C2776 1.524 . S
C2776 C2775 1.524 . S
C2776 C2777 1.397 . S
C2776 C2781 1.363 . S
C2777 H2748 0.950 . S
C2777 C2776 1.397 . S
C2777 C2778 1.334 . S
C2778 H2749 0.950 . S
C2778 C2777 1.334 . S
C2778 C2779 1.287 . S
C2779 C2778 1.287 . S
C2779 C2780 1.524 . S
C2779 H2782 0.999 . S
C2780 H2750 0.950 . S
C2780 C2779 1.524 . S
C2780 C2781 1.415 . S
C2781 H2751 0.950 . S
C2781 C2776 1.363 . S
C2781 C2780 1.415 . S
H2782 C2779 0.999 . S
H2783 C2764 0.913 . S
H2784 C2802 0.951 . S
H2785 C2804 0.951 . S
H2786 C2806 0.950 . S
H2787 C2807 0.950 . S
H2788 C2809 0.950 . S
H2789 C2812 0.950 . S
H2790 C2813 0.950 . S
H2791 C2815 0.950 . S
H2792 C2816 0.950 . S
H2793 C2817 0.951 . S
H2794 C2819 0.951 . S
H2795 C2821 0.950 . S
H2796 C2822 0.950 . S
H2797 C2824 0.950 . S
H2798 C2827 0.950 . S
H2799 C2828 0.950 . S
H2800 C2830 0.950 . S
H2801 C2831 0.950 . S
C2802 H2784 0.951 . S
C2802 C2803 1.366 . S
C2802 C2804 1.388 . S
C2803 C2802 1.366 . S
C2803 C2807 1.385 . S
C2804 H2785 0.951 . S
C2804 C2802 1.388 . S
C2804 C2805 1.366 . S
C2805 C2804 1.366 . S
C2805 C2806 1.414 . S
C2805 C2808 1.499 . S
C2806 H2786 0.950 . S
C2806 C2805 1.414 . S
C2806 C2807 1.374 . S
C2807 H2787 0.950 . S
C2807 C2803 1.385 . S
C2807 C2806 1.374 . S
C2808 C2805 1.499 . S
C2808 C2809 1.373 . S
C2808 C2810 1.389 . S
C2809 H2788 0.950 . S
C2809 C2808 1.373 . S
C2809 C2825 1.377 . S
C2810 C2808 1.389 . S
C2810 C2811 1.524 . S
C2810 C2824 1.377 . S
C2811 C2810 1.524 . S
C2811 C2812 1.397 . S
C2811 C2816 1.363 . S
C2812 H2789 0.950 . S
C2812 C2811 1.397 . S
C2812 C2813 1.334 . S
C2813 H2790 0.950 . S
C2813 C2812 1.334 . S
C2813 C2814 1.287 . S
C2814 C2813 1.287 . S
C2814 C2815 1.524 . S
C2814 H2833 0.913 . S
C2815 H2791 0.950 . S
C2815 C2814 1.524 . S
C2815 C2816 1.415 . S
C2816 H2792 0.950 . S
C2816 C2811 1.363 . S
C2816 C2815 1.415 . S
C2817 H2793 0.951 . S
C2817 C2818 1.366 . S
C2817 C2819 1.388 . S
C2818 C2817 1.366 . S
C2818 C2822 1.385 . S
C2819 H2794 0.951 . S
C2819 C2817 1.388 . S
C2819 C2820 1.366 . S
C2820 C2819 1.366 . S
C2820 C2821 1.414 . S
C2820 C2823 1.499 . S
C2821 H2795 0.950 . S
C2821 C2820 1.414 . S
C2821 C2822 1.374 . S
C2822 H2796 0.950 . S
C2822 C2818 1.385 . S
C2822 C2821 1.374 . S
C2823 C2820 1.499 . S
C2823 C2824 1.373 . S
C2823 C2825 1.389 . S
C2824 H2797 0.950 . S
C2824 C2810 1.377 . S
C2824 C2823 1.373 . S
C2825 C2809 1.377 . S
C2825 C2823 1.389 . S
C2825 C2826 1.524 . S
C2826 C2825 1.524 . S
C2826 C2827 1.397 . S
C2826 C2831 1.363 . S
C2827 H2798 0.950 . S
C2827 C2826 1.397 . S
C2827 C2828 1.334 . S
C2828 H2799 0.950 . S
C2828 C2827 1.334 . S
C2828 C2829 1.287 . S
C2829 C2828 1.287 . S
C2829 C2830 1.524 . S
C2829 H2832 0.999 . S
C2830 H2800 0.950 . S
C2830 C2829 1.524 . S
C2830 C2831 1.415 . S
C2831 H2801 0.950 . S
C2831 C2826 1.363 . S
C2831 C2830 1.415 . S
H2832 C2829 0.999 . S
H2833 C2814 0.913 . S
H2834 C2852 0.951 . S
H2835 C2854 0.951 . S
H2836 C2856 0.950 . S
H2837 C2857 0.950 . S
H2838 C2859 0.950 . S
H2839 C2862 0.950 . S
H2840 C2863 0.950 . S
H2841 C2865 0.950 . S
H2842 C2866 0.950 . S
H2843 C2867 0.951 . S
H2844 C2869 0.951 . S
H2845 C2871 0.950 . S
H2846 C2872 0.950 . S
H2847 C2874 0.950 . S
H2848 C2877 0.950 . S
H2849 C2878 0.950 . S
H2850 C2880 0.950 . S
H2851 C2881 0.950 . S
C2852 H2834 0.951 . S
C2852 C2853 1.366 . S
C2852 C2854 1.388 . S
C2853 C2852 1.366 . S
C2853 C2857 1.385 . S
C2854 H2835 0.951 . S
C2854 C2852 1.388 . S
C2854 C2855 1.366 . S
C2855 C2854 1.366 . S
C2855 C2856 1.414 . S
C2855 C2858 1.499 . S
C2856 H2836 0.950 . S
C2856 C2855 1.414 . S
C2856 C2857 1.374 . S
C2857 H2837 0.950 . S
C2857 C2853 1.385 . S
C2857 C2856 1.374 . S
C2858 C2855 1.499 . S
C2858 C2859 1.373 . S
C2858 C2860 1.389 . S
C2859 H2838 0.950 . S
C2859 C2858 1.373 . S
C2859 C2875 1.377 . S
C2860 C2858 1.389 . S
C2860 C2861 1.524 . S
C2860 C2874 1.377 . S
C2861 C2860 1.524 . S
C2861 C2862 1.397 . S
C2861 C2866 1.363 . S
C2862 H2839 0.950 . S
C2862 C2861 1.397 . S
C2862 C2863 1.334 . S
C2863 H2840 0.950 . S
C2863 C2862 1.334 . S
C2863 C2864 1.287 . S
C2864 C2863 1.287 . S
C2864 C2865 1.524 . S
C2864 H2883 0.913 . S
C2865 H2841 0.950 . S
C2865 C2864 1.524 . S
C2865 C2866 1.415 . S
C2866 H2842 0.950 . S
C2866 C2861 1.363 . S
C2866 C2865 1.415 . S
C2867 H2843 0.951 . S
C2867 C2868 1.366 . S
C2867 C2869 1.388 . S
C2868 C2867 1.366 . S
C2868 C2872 1.385 . S
C2869 H2844 0.951 . S
C2869 C2867 1.388 . S
C2869 C2870 1.366 . S
C2870 C2869 1.366 . S
C2870 C2871 1.414 . S
C2870 C2873 1.499 . S
C2871 H2845 0.950 . S
C2871 C2870 1.414 . S
C2871 C2872 1.374 . S
C2872 H2846 0.950 . S
C2872 C2868 1.385 . S
C2872 C2871 1.374 . S
C2873 C2870 1.499 . S
C2873 C2874 1.373 . S
C2873 C2875 1.389 . S
C2874 H2847 0.950 . S
C2874 C2860 1.377 . S
C2874 C2873 1.373 . S
C2875 C2859 1.377 . S
C2875 C2873 1.389 . S
C2875 C2876 1.524 . S
C2876 C2875 1.524 . S
C2876 C2877 1.397 . S
C2876 C2881 1.363 . S
C2877 H2848 0.950 . S
C2877 C2876 1.397 . S
C2877 C2878 1.334 . S
C2878 H2849 0.950 . S
C2878 C2877 1.334 . S
C2878 C2879 1.287 . S
C2879 C2878 1.287 . S
C2879 C2880 1.524 . S
C2879 H2882 0.999 . S
C2880 H2850 0.950 . S
C2880 C2879 1.524 . S
C2880 C2881 1.415 . S
C2881 H2851 0.950 . S
C2881 C2876 1.363 . S
C2881 C2880 1.415 . S
H2882 C2879 0.999 . S
H2883 C2864 0.913 . S
H2884 C2902 0.951 . S
H2885 C2904 0.951 . S
H2886 C2906 0.950 . S
H2887 C2907 0.950 . S
H2888 C2909 0.950 . S
H2889 C2912 0.950 . S
H2890 C2913 0.950 . S
H2891 C2915 0.950 . S
H2892 C2916 0.950 . S
H2893 C2917 0.951 . S
H2894 C2919 0.951 . S
H2895 C2921 0.950 . S
H2896 C2922 0.950 . S
H2897 C2924 0.950 . S
H2898 C2927 0.950 . S
H2899 C2928 0.950 . S
H2900 C2930 0.950 . S
H2901 C2931 0.950 . S
C2902 H2884 0.951 . S
C2902 C2903 1.366 . S
C2902 C2904 1.388 . S
C2903 C2902 1.366 . S
C2903 C2907 1.385 . S
C2904 H2885 0.951 . S
C2904 C2902 1.388 . S
C2904 C2905 1.366 . S
C2905 C2904 1.366 . S
C2905 C2906 1.414 . S
C2905 C2908 1.499 . S
C2906 H2886 0.950 . S
C2906 C2905 1.414 . S
C2906 C2907 1.374 . S
C2907 H2887 0.950 . S
C2907 C2903 1.385 . S
C2907 C2906 1.374 . S
C2908 C2905 1.499 . S
C2908 C2909 1.373 . S
C2908 C2910 1.389 . S
C2909 H2888 0.950 . S
C2909 C2908 1.373 . S
C2909 C2925 1.377 . S
C2910 C2908 1.389 . S
C2910 C2911 1.524 . S
C2910 C2924 1.377 . S
C2911 C2910 1.524 . S
C2911 C2912 1.397 . S
C2911 C2916 1.363 . S
C2912 H2889 0.950 . S
C2912 C2911 1.397 . S
C2912 C2913 1.334 . S
C2913 H2890 0.950 . S
C2913 C2912 1.334 . S
C2913 C2914 1.287 . S
C2914 C2913 1.287 . S
C2914 C2915 1.524 . S
C2914 H2933 0.913 . S
C2915 H2891 0.950 . S
C2915 C2914 1.524 . S
C2915 C2916 1.415 . S
C2916 H2892 0.950 . S
C2916 C2911 1.363 . S
C2916 C2915 1.415 . S
C2917 H2893 0.951 . S
C2917 C2918 1.366 . S
C2917 C2919 1.388 . S
C2918 C2917 1.366 . S
C2918 C2922 1.385 . S
C2919 H2894 0.951 . S
C2919 C2917 1.388 . S
C2919 C2920 1.366 . S
C2920 C2919 1.366 . S
C2920 C2921 1.414 . S
C2920 C2923 1.499 . S
C2921 H2895 0.950 . S
C2921 C2920 1.414 . S
C2921 C2922 1.374 . S
C2922 H2896 0.950 . S
C2922 C2918 1.385 . S
C2922 C2921 1.374 . S
C2923 C2920 1.499 . S
C2923 C2924 1.373 . S
C2923 C2925 1.389 . S
C2924 H2897 0.950 . S
C2924 C2910 1.377 . S
C2924 C2923 1.373 . S
C2925 C2909 1.377 . S
C2925 C2923 1.389 . S
C2925 C2926 1.524 . S
C2926 C2925 1.524 . S
C2926 C2927 1.397 . S
C2926 C2931 1.363 . S
C2927 H2898 0.950 . S
C2927 C2926 1.397 . S
C2927 C2928 1.334 . S
C2928 H2899 0.950 . S
C2928 C2927 1.334 . S
C2928 C2929 1.287 . S
C2929 C2928 1.287 . S
C2929 C2930 1.524 . S
C2929 H2932 0.999 . S
C2930 H2900 0.950 . S
C2930 C2929 1.524 . S
C2930 C2931 1.415 . S
C2931 H2901 0.950 . S
C2931 C2926 1.363 . S
C2931 C2930 1.415 . S
H2932 C2929 0.999 . S
H2933 C2914 0.913 . S
H2934 C2952 0.951 . S
H2935 C2954 0.951 . S
H2936 C2956 0.950 . S
H2937 C2957 0.950 . S
H2938 C2959 0.950 . S
H2939 C2962 0.950 . S
H2940 C2963 0.950 . S
H2941 C2965 0.950 . S
H2942 C2966 0.950 . S
H2943 C2967 0.951 . S
H2944 C2969 0.951 . S
H2945 C2971 0.950 . S
H2946 C2972 0.950 . S
H2947 C2974 0.950 . S
H2948 C2977 0.950 . S
H2949 C2978 0.950 . S
H2950 C2980 0.950 . S
H2951 C2981 0.950 . S
C2952 H2934 0.951 . S
C2952 C2953 1.366 . S
C2952 C2954 1.388 . S
C2953 C2952 1.366 . S
C2953 C2957 1.385 . S
C2954 H2935 0.951 . S
C2954 C2952 1.388 . S
C2954 C2955 1.366 . S
C2955 C2954 1.366 . S
C2955 C2956 1.414 . S
C2955 C2958 1.499 . S
C2956 H2936 0.950 . S
C2956 C2955 1.414 . S
C2956 C2957 1.374 . S
C2957 H2937 0.950 . S
C2957 C2953 1.385 . S
C2957 C2956 1.374 . S
C2958 C2955 1.499 . S
C2958 C2959 1.373 . S
C2958 C2960 1.389 . S
C2959 H2938 0.950 . S
C2959 C2958 1.373 . S
C2959 C2975 1.377 . S
C2960 C2958 1.389 . S
C2960 C2961 1.524 . S
C2960 C2974 1.377 . S
C2961 C2960 1.524 . S
C2961 C2962 1.397 . S
C2961 C2966 1.363 . S
C2962 H2939 0.950 . S
C2962 C2961 1.397 . S
C2962 C2963 1.334 . S
C2963 H2940 0.950 . S
C2963 C2962 1.334 . S
C2963 C2964 1.287 . S
C2964 C2963 1.287 . S
C2964 C2965 1.524 . S
C2964 H2983 0.913 . S
C2965 H2941 0.950 . S
C2965 C2964 1.524 . S
C2965 C2966 1.415 . S
C2966 H2942 0.950 . S
C2966 C2961 1.363 . S
C2966 C2965 1.415 . S
C2967 H2943 0.951 . S
C2967 C2968 1.366 . S
C2967 C2969 1.388 . S
C2968 C2967 1.366 . S
C2968 C2972 1.385 . S
C2969 H2944 0.951 . S
C2969 C2967 1.388 . S
C2969 C2970 1.366 . S
C2970 C2969 1.366 . S
C2970 C2971 1.414 . S
C2970 C2973 1.499 . S
C2971 H2945 0.950 . S
C2971 C2970 1.414 . S
C2971 C2972 1.374 . S
C2972 H2946 0.950 . S
C2972 C2968 1.385 . S
C2972 C2971 1.374 . S
C2973 C2970 1.499 . S
C2973 C2974 1.373 . S
C2973 C2975 1.389 . S
C2974 H2947 0.950 . S
C2974 C2960 1.377 . S
C2974 C2973 1.373 . S
C2975 C2959 1.377 . S
C2975 C2973 1.389 . S
C2975 C2976 1.524 . S
C2976 C2975 1.524 . S
C2976 C2977 1.397 . S
C2976 C2981 1.363 . S
C2977 H2948 0.950 . S
C2977 C2976 1.397 . S
C2977 C2978 1.334 . S
C2978 H2949 0.950 . S
C2978 C2977 1.334 . S
C2978 C2979 1.287 . S
C2979 C2978 1.287 . S
C2979 C2980 1.524 . S
C2979 H2982 0.999 . S
C2980 H2950 0.950 . S
C2980 C2979 1.524 . S
C2980 C2981 1.415 . S
C2981 H2951 0.950 . S
C2981 C2976 1.363 . S
C2981 C2980 1.415 . S
H2982 C2979 0.999 . S
H2983 C2964 0.913 . S
H2984 C3002 0.951 . S
H2985 C3004 0.951 . S
H2986 C3006 0.950 . S
H2987 C3007 0.950 . S
H2988 C3009 0.950 . S
H2989 C3012 0.950 . S
H2990 C3013 0.950 . S
H2991 C3015 0.950 . S
H2992 C3016 0.950 . S
H2993 C3017 0.951 . S
H2994 C3019 0.951 . S
H2995 C3021 0.950 . S
H2996 C3022 0.950 . S
H2997 C3024 0.950 . S
H2998 C3027 0.950 . S
H2999 C3028 0.950 . S
H3000 C3030 0.950 . S
H3001 C3031 0.950 . S
C3002 H2984 0.951 . S
C3002 C3003 1.366 . S
C3002 C3004 1.388 . S
C3003 C3002 1.366 . S
C3003 C3007 1.385 . S
C3004 H2985 0.951 . S
C3004 C3002 1.388 . S
C3004 C3005 1.366 . S
C3005 C3004 1.366 . S
C3005 C3006 1.414 . S
C3005 C3008 1.499 . S
C3006 H2986 0.950 . S
C3006 C3005 1.414 . S
C3006 C3007 1.374 . S
C3007 H2987 0.950 . S
C3007 C3003 1.385 . S
C3007 C3006 1.374 . S
C3008 C3005 1.499 . S
C3008 C3009 1.373 . S
C3008 C3010 1.389 . S
C3009 H2988 0.950 . S
C3009 C3008 1.373 . S
C3009 C3025 1.377 . S
C3010 C3008 1.389 . S
C3010 C3011 1.524 . S
C3010 C3024 1.377 . S
C3011 C3010 1.524 . S
C3011 C3012 1.397 . S
C3011 C3016 1.363 . S
C3012 H2989 0.950 . S
C3012 C3011 1.397 . S
C3012 C3013 1.334 . S
C3013 H2990 0.950 . S
C3013 C3012 1.334 . S
C3013 C3014 1.287 . S
C3014 C3013 1.287 . S
C3014 C3015 1.524 . S
C3014 H3033 0.913 . S
C3015 H2991 0.950 . S
C3015 C3014 1.524 . S
C3015 C3016 1.415 . S
C3016 H2992 0.950 . S
C3016 C3011 1.363 . S
C3016 C3015 1.415 . S
C3017 H2993 0.951 . S
C3017 C3018 1.366 . S
C3017 C3019 1.388 . S
C3018 C3017 1.366 . S
C3018 C3022 1.385 . S
C3019 H2994 0.951 . S
C3019 C3017 1.388 . S
C3019 C3020 1.366 . S
C3020 C3019 1.366 . S
C3020 C3021 1.414 . S
C3020 C3023 1.499 . S
C3021 H2995 0.950 . S
C3021 C3020 1.414 . S
C3021 C3022 1.374 . S
C3022 H2996 0.950 . S
C3022 C3018 1.385 . S
C3022 C3021 1.374 . S
C3023 C3020 1.499 . S
C3023 C3024 1.373 . S
C3023 C3025 1.389 . S
C3024 H2997 0.950 . S
C3024 C3010 1.377 . S
C3024 C3023 1.373 . S
C3025 C3009 1.377 . S
C3025 C3023 1.389 . S
C3025 C3026 1.524 . S
C3026 C3025 1.524 . S
C3026 C3027 1.397 . S
C3026 C3031 1.363 . S
C3027 H2998 0.950 . S
C3027 C3026 1.397 . S
C3027 C3028 1.334 . S
C3028 H2999 0.950 . S
C3028 C3027 1.334 . S
C3028 C3029 1.287 . S
C3029 C3028 1.287 . S
C3029 C3030 1.524 . S
C3029 H3032 0.999 . S
C3030 H3000 0.950 . S
C3030 C3029 1.524 . S
C3030 C3031 1.415 . S
C3031 H3001 0.950 . S
C3031 C3026 1.363 . S
C3031 C3030 1.415 . S
H3032 C3029 0.999 . S
H3033 C3014 0.913 . S
H3034 C3052 0.951 . S
H3035 C3054 0.951 . S
H3036 C3056 0.950 . S
H3037 C3057 0.950 . S
H3038 C3059 0.950 . S
H3039 C3062 0.950 . S
H3040 C3063 0.950 . S
H3041 C3065 0.950 . S
H3042 C3066 0.950 . S
H3043 C3067 0.951 . S
H3044 C3069 0.951 . S
H3045 C3071 0.950 . S
H3046 C3072 0.950 . S
H3047 C3074 0.950 . S
H3048 C3077 0.950 . S
H3049 C3078 0.950 . S
H3050 C3080 0.950 . S
H3051 C3081 0.950 . S
C3052 H3034 0.951 . S
C3052 C3053 1.366 . S
C3052 C3054 1.388 . S
C3053 C3052 1.366 . S
C3053 C3057 1.385 . S
C3054 H3035 0.951 . S
C3054 C3052 1.388 . S
C3054 C3055 1.366 . S
C3055 C3054 1.366 . S
C3055 C3056 1.414 . S
C3055 C3058 1.499 . S
C3056 H3036 0.950 . S
C3056 C3055 1.414 . S
C3056 C3057 1.374 . S
C3057 H3037 0.950 . S
C3057 C3053 1.385 . S
C3057 C3056 1.374 . S
C3058 C3055 1.499 . S
C3058 C3059 1.373 . S
C3058 C3060 1.389 . S
C3059 H3038 0.950 . S
C3059 C3058 1.373 . S
C3059 C3075 1.377 . S
C3060 C3058 1.389 . S
C3060 C3061 1.524 . S
C3060 C3074 1.377 . S
C3061 C3060 1.524 . S
C3061 C3062 1.397 . S
C3061 C3066 1.363 . S
C3062 H3039 0.950 . S
C3062 C3061 1.397 . S
C3062 C3063 1.334 . S
C3063 H3040 0.950 . S
C3063 C3062 1.334 . S
C3063 C3064 1.287 . S
C3064 C3063 1.287 . S
C3064 C3065 1.524 . S
C3064 H3083 0.913 . S
C3065 H3041 0.950 . S
C3065 C3064 1.524 . S
C3065 C3066 1.415 . S
C3066 H3042 0.950 . S
C3066 C3061 1.363 . S
C3066 C3065 1.415 . S
C3067 H3043 0.951 . S
C3067 C3068 1.366 . S
C3067 C3069 1.388 . S
C3068 C3067 1.366 . S
C3068 C3072 1.385 . S
C3069 H3044 0.951 . S
C3069 C3067 1.388 . S
C3069 C3070 1.366 . S
C3070 C3069 1.366 . S
C3070 C3071 1.414 . S
C3070 C3073 1.499 . S
C3071 H3045 0.950 . S
C3071 C3070 1.414 . S
C3071 C3072 1.374 . S
C3072 H3046 0.950 . S
C3072 C3068 1.385 . S
C3072 C3071 1.374 . S
C3073 C3070 1.499 . S
C3073 C3074 1.373 . S
C3073 C3075 1.389 . S
C3074 H3047 0.950 . S
C3074 C3060 1.377 . S
C3074 C3073 1.373 . S
C3075 C3059 1.377 . S
C3075 C3073 1.389 . S
C3075 C3076 1.524 . S
C3076 C3075 1.524 . S
C3076 C3077 1.397 . S
C3076 C3081 1.363 . S
C3077 H3048 0.950 . S
C3077 C3076 1.397 . S
C3077 C3078 1.334 . S
C3078 H3049 0.950 . S
C3078 C3077 1.334 . S
C3078 C3079 1.287 . S
C3079 C3078 1.287 . S
C3079 C3080 1.524 . S
C3079 H3082 0.999 . S
C3080 H3050 0.950 . S
C3080 C3079 1.524 . S
C3080 C3081 1.415 . S
C3081 H3051 0.950 . S
C3081 C3076 1.363 . S
C3081 C3080 1.415 . S
H3082 C3079 0.999 . S
H3083 C3064 0.913 . S
H3084 C3102 0.951 . S
H3085 C3104 0.951 . S
H3086 C3106 0.950 . S
H3087 C3107 0.950 . S
H3088 C3109 0.950 . S
H3089 C3112 0.950 . S
H3090 C3113 0.950 . S
H3091 C3115 0.950 . S
H3092 C3116 0.950 . S
H3093 C3117 0.951 . S
H3094 C3119 0.951 . S
H3095 C3121 0.950 . S
H3096 C3122 0.950 . S
H3097 C3124 0.950 . S
H3098 C3127 0.950 . S
H3099 C3128 0.950 . S
H3100 C3130 0.950 . S
H3101 C3131 0.950 . S
C3102 H3084 0.951 . S
C3102 C3103 1.366 . S
C3102 C3104 1.388 . S
C3103 C3102 1.366 . S
C3103 C3107 1.385 . S
C3104 H3085 0.951 . S
C3104 C3102 1.388 . S
C3104 C3105 1.366 . S
C3105 C3104 1.366 . S
C3105 C3106 1.414 . S
C3105 C3108 1.499 . S
C3106 H3086 0.950 . S
C3106 C3105 1.414 . S
C3106 C3107 1.374 . S
C3107 H3087 0.950 . S
C3107 C3103 1.385 . S
C3107 C3106 1.374 . S
C3108 C3105 1.499 . S
C3108 C3109 1.373 . S
C3108 C3110 1.389 . S
C3109 H3088 0.950 . S
C3109 C3108 1.373 . S
C3109 C3125 1.377 . S
C3110 C3108 1.389 . S
C3110 C3111 1.524 . S
C3110 C3124 1.377 . S
C3111 C3110 1.524 . S
C3111 C3112 1.397 . S
C3111 C3116 1.363 . S
C3112 H3089 0.950 . S
C3112 C3111 1.397 . S
C3112 C3113 1.334 . S
C3113 H3090 0.950 . S
C3113 C3112 1.334 . S
C3113 C3114 1.287 . S
C3114 C3113 1.287 . S
C3114 C3115 1.524 . S
C3114 H3133 0.913 . S
C3115 H3091 0.950 . S
C3115 C3114 1.524 . S
C3115 C3116 1.415 . S
C3116 H3092 0.950 . S
C3116 C3111 1.363 . S
C3116 C3115 1.415 . S
C3117 H3093 0.951 . S
C3117 C3118 1.366 . S
C3117 C3119 1.388 . S
C3118 C3117 1.366 . S
C3118 C3122 1.385 . S
C3119 H3094 0.951 . S
C3119 C3117 1.388 . S
C3119 C3120 1.366 . S
C3120 C3119 1.366 . S
C3120 C3121 1.414 . S
C3120 C3123 1.499 . S
C3121 H3095 0.950 . S
C3121 C3120 1.414 . S
C3121 C3122 1.374 . S
C3122 H3096 0.950 . S
C3122 C3118 1.385 . S
C3122 C3121 1.374 . S
C3123 C3120 1.499 . S
C3123 C3124 1.373 . S
C3123 C3125 1.389 . S
C3124 H3097 0.950 . S
C3124 C3110 1.377 . S
C3124 C3123 1.373 . S
C3125 C3109 1.377 . S
C3125 C3123 1.389 . S
C3125 C3126 1.524 . S
C3126 C3125 1.524 . S
C3126 C3127 1.397 . S
C3126 C3131 1.363 . S
C3127 H3098 0.950 . S
C3127 C3126 1.397 . S
C3127 C3128 1.334 . S
C3128 H3099 0.950 . S
C3128 C3127 1.334 . S
C3128 C3129 1.287 . S
C3129 C3128 1.287 . S
C3129 C3130 1.524 . S
C3129 H3132 0.999 . S
C3130 H3100 0.950 . S
C3130 C3129 1.524 . S
C3130 C3131 1.415 . S
C3131 H3101 0.950 . S
C3131 C3126 1.363 . S
C3131 C3130 1.415 . S
H3132 C3129 0.999 . S
H3133 C3114 0.913 . S
H3134 C3152 0.951 . S
H3135 C3154 0.951 . S
H3136 C3156 0.950 . S
H3137 C3157 0.950 . S
H3138 C3159 0.950 . S
H3139 C3162 0.950 . S
H3140 C3163 0.950 . S
H3141 C3165 0.950 . S
H3142 C3166 0.950 . S
H3143 C3167 0.951 . S
H3144 C3169 0.951 . S
H3145 C3171 0.950 . S
H3146 C3172 0.950 . S
H3147 C3174 0.950 . S
H3148 C3177 0.950 . S
H3149 C3178 0.950 . S
H3150 C3180 0.950 . S
H3151 C3181 0.950 . S
C3152 H3134 0.951 . S
C3152 C3153 1.366 . S
C3152 C3154 1.388 . S
C3153 C3152 1.366 . S
C3153 C3157 1.385 . S
C3154 H3135 0.951 . S
C3154 C3152 1.388 . S
C3154 C3155 1.366 . S
C3155 C3154 1.366 . S
C3155 C3156 1.414 . S
C3155 C3158 1.499 . S
C3156 H3136 0.950 . S
C3156 C3155 1.414 . S
C3156 C3157 1.374 . S
C3157 H3137 0.950 . S
C3157 C3153 1.385 . S
C3157 C3156 1.374 . S
C3158 C3155 1.499 . S
C3158 C3159 1.373 . S
C3158 C3160 1.389 . S
C3159 H3138 0.950 . S
C3159 C3158 1.373 . S
C3159 C3175 1.377 . S
C3160 C3158 1.389 . S
C3160 C3161 1.524 . S
C3160 C3174 1.377 . S
C3161 C3160 1.524 . S
C3161 C3162 1.397 . S
C3161 C3166 1.363 . S
C3162 H3139 0.950 . S
C3162 C3161 1.397 . S
C3162 C3163 1.334 . S
C3163 H3140 0.950 . S
C3163 C3162 1.334 . S
C3163 C3164 1.287 . S
C3164 C3163 1.287 . S
C3164 C3165 1.524 . S
C3164 H3183 0.913 . S
C3165 H3141 0.950 . S
C3165 C3164 1.524 . S
C3165 C3166 1.415 . S
C3166 H3142 0.950 . S
C3166 C3161 1.363 . S
C3166 C3165 1.415 . S
C3167 H3143 0.951 . S
C3167 C3168 1.366 . S
C3167 C3169 1.388 . S
C3168 C3167 1.366 . S
C3168 C3172 1.385 . S
C3169 H3144 0.951 . S
C3169 C3167 1.388 . S
C3169 C3170 1.366 . S
C3170 C3169 1.366 . S
C3170 C3171 1.414 . S
C3170 C3173 1.499 . S
C3171 H3145 0.950 . S
C3171 C3170 1.414 . S
C3171 C3172 1.374 . S
C3172 H3146 0.950 . S
C3172 C3168 1.385 . S
C3172 C3171 1.374 . S
C3173 C3170 1.499 . S
C3173 C3174 1.373 . S
C3173 C3175 1.389 . S
C3174 H3147 0.950 . S
C3174 C3160 1.377 . S
C3174 C3173 1.373 . S
C3175 C3159 1.377 . S
C3175 C3173 1.389 . S
C3175 C3176 1.524 . S
C3176 C3175 1.524 . S
C3176 C3177 1.397 . S
C3176 C3181 1.363 . S
C3177 H3148 0.950 . S
C3177 C3176 1.397 . S
C3177 C3178 1.334 . S
C3178 H3149 0.950 . S
C3178 C3177 1.334 . S
C3178 C3179 1.287 . S
C3179 C3178 1.287 . S
C3179 C3180 1.524 . S
C3179 H3182 0.999 . S
C3180 H3150 0.950 . S
C3180 C3179 1.524 . S
C3180 C3181 1.415 . S
C3181 H3151 0.950 . S
C3181 C3176 1.363 . S
C3181 C3180 1.415 . S
H3182 C3179 0.999 . S
H3183 C3164 0.913 . S
H3184 C3202 0.951 . S
H3185 C3204 0.951 . S
H3186 C3206 0.950 . S
H3187 C3207 0.950 . S
H3188 C3209 0.950 . S
H3189 C3212 0.950 . S
H3190 C3213 0.950 . S
H3191 C3215 0.950 . S
H3192 C3216 0.950 . S
H3193 C3217 0.951 . S
H3194 C3219 0.951 . S
H3195 C3221 0.950 . S
H3196 C3222 0.950 . S
H3197 C3224 0.950 . S
H3198 C3227 0.950 . S
H3199 C3228 0.950 . S
H3200 C3230 0.950 . S
H3201 C3231 0.950 . S
C3202 H3184 0.951 . S
C3202 C3203 1.366 . S
C3202 C3204 1.388 . S
C3203 C3202 1.366 . S
C3203 C3207 1.385 . S
C3204 H3185 0.951 . S
C3204 C3202 1.388 . S
C3204 C3205 1.366 . S
C3205 C3204 1.366 . S
C3205 C3206 1.414 . S
C3205 C3208 1.499 . S
C3206 H3186 0.950 . S
C3206 C3205 1.414 . S
C3206 C3207 1.374 . S
C3207 H3187 0.950 . S
C3207 C3203 1.385 . S
C3207 C3206 1.374 . S
C3208 C3205 1.499 . S
C3208 C3209 1.373 . S
C3208 C3210 1.389 . S
C3209 H3188 0.950 . S
C3209 C3208 1.373 . S
C3209 C3225 1.377 . S
C3210 C3208 1.389 . S
C3210 C3211 1.524 . S
C3210 C3224 1.377 . S
C3211 C3210 1.524 . S
C3211 C3212 1.397 . S
C3211 C3216 1.363 . S
C3212 H3189 0.950 . S
C3212 C3211 1.397 . S
C3212 C3213 1.334 . S
C3213 H3190 0.950 . S
C3213 C3212 1.334 . S
C3213 C3214 1.287 . S
C3214 C3213 1.287 . S
C3214 C3215 1.524 . S
C3214 H3233 0.913 . S
C3215 H3191 0.950 . S
C3215 C3214 1.524 . S
C3215 C3216 1.415 . S
C3216 H3192 0.950 . S
C3216 C3211 1.363 . S
C3216 C3215 1.415 . S
C3217 H3193 0.951 . S
C3217 C3218 1.366 . S
C3217 C3219 1.388 . S
C3218 C3217 1.366 . S
C3218 C3222 1.385 . S
C3219 H3194 0.951 . S
C3219 C3217 1.388 . S
C3219 C3220 1.366 . S
C3220 C3219 1.366 . S
C3220 C3221 1.414 . S
C3220 C3223 1.499 . S
C3221 H3195 0.950 . S
C3221 C3220 1.414 . S
C3221 C3222 1.374 . S
C3222 H3196 0.950 . S
C3222 C3218 1.385 . S
C3222 C3221 1.374 . S
C3223 C3220 1.499 . S
C3223 C3224 1.373 . S
C3223 C3225 1.389 . S
C3224 H3197 0.950 . S
C3224 C3210 1.377 . S
C3224 C3223 1.373 . S
C3225 C3209 1.377 . S
C3225 C3223 1.389 . S
C3225 C3226 1.524 . S
C3226 C3225 1.524 . S
C3226 C3227 1.397 . S
C3226 C3231 1.363 . S
C3227 H3198 0.950 . S
C3227 C3226 1.397 . S
C3227 C3228 1.334 . S
C3228 H3199 0.950 . S
C3228 C3227 1.334 . S
C3228 C3229 1.287 . S
C3229 C3228 1.287 . S
C3229 C3230 1.524 . S
C3229 H3232 0.999 . S
C3230 H3200 0.950 . S
C3230 C3229 1.524 . S
C3230 C3231 1.415 . S
C3231 H3201 0.950 . S
C3231 C3226 1.363 . S
C3231 C3230 1.415 . S
H3232 C3229 0.999 . S
H3233 C3214 0.913 . S
H3234 C3252 0.951 . S
H3235 C3254 0.951 . S
H3236 C3256 0.950 . S
H3237 C3257 0.950 . S
H3238 C3259 0.950 . S
H3239 C3262 0.950 . S
H3240 C3263 0.950 . S
H3241 C3265 0.950 . S
H3242 C3266 0.950 . S
H3243 C3267 0.951 . S
H3244 C3269 0.951 . S
H3245 C3271 0.950 . S
H3246 C3272 0.950 . S
H3247 C3274 0.950 . S
H3248 C3277 0.950 . S
H3249 C3278 0.950 . S
H3250 C3280 0.950 . S
H3251 C3281 0.950 . S
C3252 H3234 0.951 . S
C3252 C3253 1.366 . S
C3252 C3254 1.388 . S
C3253 C3252 1.366 . S
C3253 C3257 1.385 . S
C3254 H3235 0.951 . S
C3254 C3252 1.388 . S
C3254 C3255 1.366 . S
C3255 C3254 1.366 . S
C3255 C3256 1.414 . S
C3255 C3258 1.499 . S
C3256 H3236 0.950 . S
C3256 C3255 1.414 . S
C3256 C3257 1.374 . S
C3257 H3237 0.950 . S
C3257 C3253 1.385 . S
C3257 C3256 1.374 . S
C3258 C3255 1.499 . S
C3258 C3259 1.373 . S
C3258 C3260 1.389 . S
C3259 H3238 0.950 . S
C3259 C3258 1.373 . S
C3259 C3275 1.377 . S
C3260 C3258 1.389 . S
C3260 C3261 1.524 . S
C3260 C3274 1.377 . S
C3261 C3260 1.524 . S
C3261 C3262 1.397 . S
C3261 C3266 1.363 . S
C3262 H3239 0.950 . S
C3262 C3261 1.397 . S
C3262 C3263 1.334 . S
C3263 H3240 0.950 . S
C3263 C3262 1.334 . S
C3263 C3264 1.287 . S
C3264 C3263 1.287 . S
C3264 C3265 1.524 . S
C3264 H3283 0.913 . S
C3265 H3241 0.950 . S
C3265 C3264 1.524 . S
C3265 C3266 1.415 . S
C3266 H3242 0.950 . S
C3266 C3261 1.363 . S
C3266 C3265 1.415 . S
C3267 H3243 0.951 . S
C3267 C3268 1.366 . S
C3267 C3269 1.388 . S
C3268 C3267 1.366 . S
C3268 C3272 1.385 . S
C3269 H3244 0.951 . S
C3269 C3267 1.388 . S
C3269 C3270 1.366 . S
C3270 C3269 1.366 . S
C3270 C3271 1.414 . S
C3270 C3273 1.499 . S
C3271 H3245 0.950 . S
C3271 C3270 1.414 . S
C3271 C3272 1.374 . S
C3272 H3246 0.950 . S
C3272 C3268 1.385 . S
C3272 C3271 1.374 . S
C3273 C3270 1.499 . S
C3273 C3274 1.373 . S
C3273 C3275 1.389 . S
C3274 H3247 0.950 . S
C3274 C3260 1.377 . S
C3274 C3273 1.373 . S
C3275 C3259 1.377 . S
C3275 C3273 1.389 . S
C3275 C3276 1.524 . S
C3276 C3275 1.524 . S
C3276 C3277 1.397 . S
C3276 C3281 1.363 . S
C3277 H3248 0.950 . S
C3277 C3276 1.397 . S
C3277 C3278 1.334 . S
C3278 H3249 0.950 . S
C3278 C3277 1.334 . S
C3278 C3279 1.287 . S
C3279 C3278 1.287 . S
C3279 C3280 1.524 . S
C3279 H3282 0.999 . S
C3280 H3250 0.950 . S
C3280 C3279 1.524 . S
C3280 C3281 1.415 . S
C3281 H3251 0.950 . S
C3281 C3276 1.363 . S
C3281 C3280 1.415 . S
H3282 C3279 0.999 . S
H3283 C3264 0.913 . S
H3284 C3302 0.951 . S
H3285 C3304 0.951 . S
H3286 C3306 0.950 . S
H3287 C3307 0.950 . S
H3288 C3309 0.950 . S
H3289 C3312 0.950 . S
H3290 C3313 0.950 . S
H3291 C3315 0.950 . S
H3292 C3316 0.950 . S
H3293 C3317 0.951 . S
H3294 C3319 0.951 . S
H3295 C3321 0.950 . S
H3296 C3322 0.950 . S
H3297 C3324 0.950 . S
H3298 C3327 0.950 . S
H3299 C3328 0.950 . S
H3300 C3330 0.950 . S
H3301 C3331 0.950 . S
C3302 H3284 0.951 . S
C3302 C3303 1.366 . S
C3302 C3304 1.388 . S
C3303 C3302 1.366 . S
C3303 C3307 1.385 . S
C3304 H3285 0.951 . S
C3304 C3302 1.388 . S
C3304 C3305 1.366 . S
C3305 C3304 1.366 . S
C3305 C3306 1.414 . S
C3305 C3308 1.499 . S
C3306 H3286 0.950 . S
C3306 C3305 1.414 . S
C3306 C3307 1.374 . S
C3307 H3287 0.950 . S
C3307 C3303 1.385 . S
C3307 C3306 1.374 . S
C3308 C3305 1.499 . S
C3308 C3309 1.373 . S
C3308 C3310 1.389 . S
C3309 H3288 0.950 . S
C3309 C3308 1.373 . S
C3309 C3325 1.377 . S
C3310 C3308 1.389 . S
C3310 C3311 1.524 . S
C3310 C3324 1.377 . S
C3311 C3310 1.524 . S
C3311 C3312 1.397 . S
C3311 C3316 1.363 . S
C3312 H3289 0.950 . S
C3312 C3311 1.397 . S
C3312 C3313 1.334 . S
C3313 H3290 0.950 . S
C3313 C3312 1.334 . S
C3313 C3314 1.287 . S
C3314 C3313 1.287 . S
C3314 C3315 1.524 . S
C3314 H3333 0.913 . S
C3315 H3291 0.950 . S
C3315 C3314 1.524 . S
C3315 C3316 1.415 . S
C3316 H3292 0.950 . S
C3316 C3311 1.363 . S
C3316 C3315 1.415 . S
C3317 H3293 0.951 . S
C3317 C3318 1.366 . S
C3317 C3319 1.388 . S
C3318 C3317 1.366 . S
C3318 C3322 1.385 . S
C3319 H3294 0.951 . S
C3319 C3317 1.388 . S
C3319 C3320 1.366 . S
C3320 C3319 1.366 . S
C3320 C3321 1.414 . S
C3320 C3323 1.499 . S
C3321 H3295 0.950 . S
C3321 C3320 1.414 . S
C3321 C3322 1.374 . S
C3322 H3296 0.950 . S
C3322 C3318 1.385 . S
C3322 C3321 1.374 . S
C3323 C3320 1.499 . S
C3323 C3324 1.373 . S
C3323 C3325 1.389 . S
C3324 H3297 0.950 . S
C3324 C3310 1.377 . S
C3324 C3323 1.373 . S
C3325 C3309 1.377 . S
C3325 C3323 1.389 . S
C3325 C3326 1.524 . S
C3326 C3325 1.524 . S
C3326 C3327 1.397 . S
C3326 C3331 1.363 . S
C3327 H3298 0.950 . S
C3327 C3326 1.397 . S
C3327 C3328 1.334 . S
C3328 H3299 0.950 . S
C3328 C3327 1.334 . S
C3328 C3329 1.287 . S
C3329 C3328 1.287 . S
C3329 C3330 1.524 . S
C3329 H3332 0.999 . S
C3330 H3300 0.950 . S
C3330 C3329 1.524 . S
C3330 C3331 1.415 . S
C3331 H3301 0.950 . S
C3331 C3326 1.363 . S
C3331 C3330 1.415 . S
H3332 C3329 0.999 . S
H3333 C3314 0.913 . S
H3334 C3352 0.951 . S
H3335 C3354 0.951 . S
H3336 C3356 0.950 . S
H3337 C3357 0.950 . S
H3338 C3359 0.950 . S
H3339 C3362 0.950 . S
H3340 C3363 0.950 . S
H3341 C3365 0.950 . S
H3342 C3366 0.950 . S
H3343 C3367 0.951 . S
H3344 C3369 0.951 . S
H3345 C3371 0.950 . S
H3346 C3372 0.950 . S
H3347 C3374 0.950 . S
H3348 C3377 0.950 . S
H3349 C3378 0.950 . S
H3350 C3380 0.950 . S
H3351 C3381 0.950 . S
C3352 H3334 0.951 . S
C3352 C3353 1.366 . S
C3352 C3354 1.388 . S
C3353 C3352 1.366 . S
C3353 C3357 1.385 . S
C3354 H3335 0.951 . S
C3354 C3352 1.388 . S
C3354 C3355 1.366 . S
C3355 C3354 1.366 . S
C3355 C3356 1.414 . S
C3355 C3358 1.499 . S
C3356 H3336 0.950 . S
C3356 C3355 1.414 . S
C3356 C3357 1.374 . S
C3357 H3337 0.950 . S
C3357 C3353 1.385 . S
C3357 C3356 1.374 . S
C3358 C3355 1.499 . S
C3358 C3359 1.373 . S
C3358 C3360 1.389 . S
C3359 H3338 0.950 . S
C3359 C3358 1.373 . S
C3359 C3375 1.377 . S
C3360 C3358 1.389 . S
C3360 C3361 1.524 . S
C3360 C3374 1.377 . S
C3361 C3360 1.524 . S
C3361 C3362 1.397 . S
C3361 C3366 1.363 . S
C3362 H3339 0.950 . S
C3362 C3361 1.397 . S
C3362 C3363 1.334 . S
C3363 H3340 0.950 . S
C3363 C3362 1.334 . S
C3363 C3364 1.287 . S
C3364 C3363 1.287 . S
C3364 C3365 1.524 . S
C3364 H3383 0.913 . S
C3365 H3341 0.950 . S
C3365 C3364 1.524 . S
C3365 C3366 1.415 . S
C3366 H3342 0.950 . S
C3366 C3361 1.363 . S
C3366 C3365 1.415 . S
C3367 H3343 0.951 . S
C3367 C3368 1.366 . S
C3367 C3369 1.388 . S
C3368 C3367 1.366 . S
C3368 C3372 1.385 . S
C3369 H3344 0.951 . S
C3369 C3367 1.388 . S
C3369 C3370 1.366 . S
C3370 C3369 1.366 . S
C3370 C3371 1.414 . S
C3370 C3373 1.499 . S
C3371 H3345 0.950 . S
C3371 C3370 1.414 . S
C3371 C3372 1.374 . S
C3372 H3346 0.950 . S
C3372 C3368 1.385 . S
C3372 C3371 1.374 . S
C3373 C3370 1.499 . S
C3373 C3374 1.373 . S
C3373 C3375 1.389 . S
C3374 H3347 0.950 . S
C3374 C3360 1.377 . S
C3374 C3373 1.373 . S
C3375 C3359 1.377 . S
C3375 C3373 1.389 . S
C3375 C3376 1.524 . S
C3376 C3375 1.524 . S
C3376 C3377 1.397 . S
C3376 C3381 1.363 . S
C3377 H3348 0.950 . S
C3377 C3376 1.397 . S
C3377 C3378 1.334 . S
C3378 H3349 0.950 . S
C3378 C3377 1.334 . S
C3378 C3379 1.287 . S
C3379 C3378 1.287 . S
C3379 C3380 1.524 . S
C3379 H3382 0.999 . S
C3380 H3350 0.950 . S
C3380 C3379 1.524 . S
C3380 C3381 1.415 . S
C3381 H3351 0.950 . S
C3381 C3376 1.363 . S
C3381 C3380 1.415 . S
H3382 C3379 0.999 . S
H3383 C3364 0.913 . S
H3384 C3402 0.951 . S
H3385 C3404 0.951 . S
H3386 C3406 0.950 . S
H3387 C3407 0.950 . S
H3388 C3409 0.950 . S
H3389 C3412 0.950 . S
H3390 C3413 0.950 . S
H3391 C3415 0.950 . S
H3392 C3416 0.950 . S
H3393 C3417 0.951 . S
H3394 C3419 0.951 . S
H3395 C3421 0.950 . S
H3396 C3422 0.950 . S
H3397 C3424 0.950 . S
H3398 C3427 0.950 . S
H3399 C3428 0.950 . S
H3400 C3430 0.950 . S
H3401 C3431 0.950 . S
C3402 H3384 0.951 . S
C3402 C3403 1.366 . S
C3402 C3404 1.388 . S
C3403 C3402 1.366 . S
C3403 C3407 1.385 . S
C3404 H3385 0.951 . S
C3404 C3402 1.388 . S
C3404 C3405 1.366 . S
C3405 C3404 1.366 . S
C3405 C3406 1.414 . S
C3405 C3408 1.499 . S
C3406 H3386 0.950 . S
C3406 C3405 1.414 . S
C3406 C3407 1.374 . S
C3407 H3387 0.950 . S
C3407 C3403 1.385 . S
C3407 C3406 1.374 . S
C3408 C3405 1.499 . S
C3408 C3409 1.373 . S
C3408 C3410 1.389 . S
C3409 H3388 0.950 . S
C3409 C3408 1.373 . S
C3409 C3425 1.377 . S
C3410 C3408 1.389 . S
C3410 C3411 1.524 . S
C3410 C3424 1.377 . S
C3411 C3410 1.524 . S
C3411 C3412 1.397 . S
C3411 C3416 1.363 . S
C3412 H3389 0.950 . S
C3412 C3411 1.397 . S
C3412 C3413 1.334 . S
C3413 H3390 0.950 . S
C3413 C3412 1.334 . S
C3413 C3414 1.287 . S
C3414 C3413 1.287 . S
C3414 C3415 1.524 . S
C3414 H3433 0.913 . S
C3415 H3391 0.950 . S
C3415 C3414 1.524 . S
C3415 C3416 1.415 . S
C3416 H3392 0.950 . S
C3416 C3411 1.363 . S
C3416 C3415 1.415 . S
C3417 H3393 0.951 . S
C3417 C3418 1.366 . S
C3417 C3419 1.388 . S
C3418 C3417 1.366 . S
C3418 C3422 1.385 . S
C3419 H3394 0.951 . S
C3419 C3417 1.388 . S
C3419 C3420 1.366 . S
C3420 C3419 1.366 . S
C3420 C3421 1.414 . S
C3420 C3423 1.499 . S
C3421 H3395 0.950 . S
C3421 C3420 1.414 . S
C3421 C3422 1.374 . S
C3422 H3396 0.950 . S
C3422 C3418 1.385 . S
C3422 C3421 1.374 . S
C3423 C3420 1.499 . S
C3423 C3424 1.373 . S
C3423 C3425 1.389 . S
C3424 H3397 0.950 . S
C3424 C3410 1.377 . S
C3424 C3423 1.373 . S
C3425 C3409 1.377 . S
C3425 C3423 1.389 . S
C3425 C3426 1.524 . S
C3426 C3425 1.524 . S
C3426 C3427 1.397 . S
C3426 C3431 1.363 . S
C3427 H3398 0.950 . S
C3427 C3426 1.397 . S
C3427 C3428 1.334 . S
C3428 H3399 0.950 . S
C3428 C3427 1.334 . S
C3428 C3429 1.287 . S
C3429 C3428 1.287 . S
C3429 C3430 1.524 . S
C3429 H3432 0.999 . S
C3430 H3400 0.950 . S
C3430 C3429 1.524 . S
C3430 C3431 1.415 . S
C3431 H3401 0.950 . S
C3431 C3426 1.363 . S
C3431 C3430 1.415 . S
H3432 C3429 0.999 . S
H3433 C3414 0.913 . S
H3434 C3452 0.951 . S
H3435 C3454 0.951 . S
H3436 C3456 0.950 . S
H3437 C3457 0.950 . S
H3438 C3459 0.950 . S
H3439 C3462 0.950 . S
H3440 C3463 0.950 . S
H3441 C3465 0.950 . S
H3442 C3466 0.950 . S
H3443 C3467 0.951 . S
H3444 C3469 0.951 . S
H3445 C3471 0.950 . S
H3446 C3472 0.950 . S
H3447 C3474 0.950 . S
H3448 C3477 0.950 . S
H3449 C3478 0.950 . S
H3450 C3480 0.950 . S
H3451 C3481 0.950 . S
C3452 H3434 0.951 . S
C3452 C3453 1.366 . S
C3452 C3454 1.388 . S
C3453 C3452 1.366 . S
C3453 C3457 1.385 . S
C3454 H3435 0.951 . S
C3454 C3452 1.388 . S
C3454 C3455 1.366 . S
C3455 C3454 1.366 . S
C3455 C3456 1.414 . S
C3455 C3458 1.499 . S
C3456 H3436 0.950 . S
C3456 C3455 1.414 . S
C3456 C3457 1.374 . S
C3457 H3437 0.950 . S
C3457 C3453 1.385 . S
C3457 C3456 1.374 . S
C3458 C3455 1.499 . S
C3458 C3459 1.373 . S
C3458 C3460 1.389 . S
C3459 H3438 0.950 . S
C3459 C3458 1.373 . S
C3459 C3475 1.377 . S
C3460 C3458 1.389 . S
C3460 C3461 1.524 . S
C3460 C3474 1.377 . S
C3461 C3460 1.524 . S
C3461 C3462 1.397 . S
C3461 C3466 1.363 . S
C3462 H3439 0.950 . S
C3462 C3461 1.397 . S
C3462 C3463 1.334 . S
C3463 H3440 0.950 . S
C3463 C3462 1.334 . S
C3463 C3464 1.287 . S
C3464 C3463 1.287 . S
C3464 C3465 1.524 . S
C3464 H3483 0.913 . S
C3465 H3441 0.950 . S
C3465 C3464 1.524 . S
C3465 C3466 1.415 . S
C3466 H3442 0.950 . S
C3466 C3461 1.363 . S
C3466 C3465 1.415 . S
C3467 H3443 0.951 . S
C3467 C3468 1.366 . S
C3467 C3469 1.388 . S
C3468 C3467 1.366 . S
C3468 C3472 1.385 . S
C3469 H3444 0.951 . S
C3469 C3467 1.388 . S
C3469 C3470 1.366 . S
C3470 C3469 1.366 . S
C3470 C3471 1.414 . S
C3470 C3473 1.499 . S
C3471 H3445 0.950 . S
C3471 C3470 1.414 . S
C3471 C3472 1.374 . S
C3472 H3446 0.950 . S
C3472 C3468 1.385 . S
C3472 C3471 1.374 . S
C3473 C3470 1.499 . S
C3473 C3474 1.373 . S
C3473 C3475 1.389 . S
C3474 H3447 0.950 . S
C3474 C3460 1.377 . S
C3474 C3473 1.373 . S
C3475 C3459 1.377 . S
C3475 C3473 1.389 . S
C3475 C3476 1.524 . S
C3476 C3475 1.524 . S
C3476 C3477 1.397 . S
C3476 C3481 1.363 . S
C3477 H3448 0.950 . S
C3477 C3476 1.397 . S
C3477 C3478 1.334 . S
C3478 H3449 0.950 . S
C3478 C3477 1.334 . S
C3478 C3479 1.287 . S
C3479 C3478 1.287 . S
C3479 C3480 1.524 . S
C3479 H3482 0.999 . S
C3480 H3450 0.950 . S
C3480 C3479 1.524 . S
C3480 C3481 1.415 . S
C3481 H3451 0.950 . S
C3481 C3476 1.363 . S
C3481 C3480 1.415 . S
H3482 C3479 0.999 . S
H3483 C3464 0.913 . S
H3484 C3502 0.951 . S
H3485 C3504 0.951 . S
H3486 C3506 0.950 . S
H3487 C3507 0.950 . S
H3488 C3509 0.950 . S
H3489 C3512 0.950 . S
H3490 C3513 0.950 . S
H3491 C3515 0.950 . S
H3492 C3516 0.950 . S
H3493 C3517 0.951 . S
H3494 C3519 0.951 . S
H3495 C3521 0.950 . S
H3496 C3522 0.950 . S
H3497 C3524 0.950 . S
H3498 C3527 0.950 . S
H3499 C3528 0.950 . S
H3500 C3530 0.950 . S
H3501 C3531 0.950 . S
C3502 H3484 0.951 . S
C3502 C3503 1.366 . S
C3502 C3504 1.388 . S
C3503 C3502 1.366 . S
C3503 C3507 1.385 . S
C3504 H3485 0.951 . S
C3504 C3502 1.388 . S
C3504 C3505 1.366 . S
C3505 C3504 1.366 . S
C3505 C3506 1.414 . S
C3505 C3508 1.499 . S
C3506 H3486 0.950 . S
C3506 C3505 1.414 . S
C3506 C3507 1.374 . S
C3507 H3487 0.950 . S
C3507 C3503 1.385 . S
C3507 C3506 1.374 . S
C3508 C3505 1.499 . S
C3508 C3509 1.373 . S
C3508 C3510 1.389 . S
C3509 H3488 0.950 . S
C3509 C3508 1.373 . S
C3509 C3525 1.377 . S
C3510 C3508 1.389 . S
C3510 C3511 1.524 . S
C3510 C3524 1.377 . S
C3511 C3510 1.524 . S
C3511 C3512 1.397 . S
C3511 C3516 1.363 . S
C3512 H3489 0.950 . S
C3512 C3511 1.397 . S
C3512 C3513 1.334 . S
C3513 H3490 0.950 . S
C3513 C3512 1.334 . S
C3513 C3514 1.287 . S
C3514 C3513 1.287 . S
C3514 C3515 1.524 . S
C3514 H3533 0.913 . S
C3515 H3491 0.950 . S
C3515 C3514 1.524 . S
C3515 C3516 1.415 . S
C3516 H3492 0.950 . S
C3516 C3511 1.363 . S
C3516 C3515 1.415 . S
C3517 H3493 0.951 . S
C3517 C3518 1.366 . S
C3517 C3519 1.388 . S
C3518 C3517 1.366 . S
C3518 C3522 1.385 . S
C3519 H3494 0.951 . S
C3519 C3517 1.388 . S
C3519 C3520 1.366 . S
C3520 C3519 1.366 . S
C3520 C3521 1.414 . S
C3520 C3523 1.499 . S
C3521 H3495 0.950 . S
C3521 C3520 1.414 . S
C3521 C3522 1.374 . S
C3522 H3496 0.950 . S
C3522 C3518 1.385 . S
C3522 C3521 1.374 . S
C3523 C3520 1.499 . S
C3523 C3524 1.373 . S
C3523 C3525 1.389 . S
C3524 H3497 0.950 . S
C3524 C3510 1.377 . S
C3524 C3523 1.373 . S
C3525 C3509 1.377 . S
C3525 C3523 1.389 . S
C3525 C3526 1.524 . S
C3526 C3525 1.524 . S
C3526 C3527 1.397 . S
C3526 C3531 1.363 . S
C3527 H3498 0.950 . S
C3527 C3526 1.397 . S
C3527 C3528 1.334 . S
C3528 H3499 0.950 . S
C3528 C3527 1.334 . S
C3528 C3529 1.287 . S
C3529 C3528 1.287 . S
C3529 C3530 1.524 . S
C3529 H3532 0.999 . S
C3530 H3500 0.950 . S
C3530 C3529 1.524 . S
C3530 C3531 1.415 . S
C3531 H3501 0.950 . S
C3531 C3526 1.363 . S
C3531 C3530 1.415 . S
H3532 C3529 0.999 . S
H3533 C3514 0.913 . S
H3534 C3552 0.951 . S
H3535 C3554 0.951 . S
H3536 C3556 0.950 . S
H3537 C3557 0.950 . S
H3538 C3559 0.950 . S
H3539 C3562 0.950 . S
H3540 C3563 0.950 . S
H3541 C3565 0.950 . S
H3542 C3566 0.950 . S
H3543 C3567 0.951 . S
H3544 C3569 0.951 . S
H3545 C3571 0.950 . S
H3546 C3572 0.950 . S
H3547 C3574 0.950 . S
H3548 C3577 0.950 . S
H3549 C3578 0.950 . S
H3550 C3580 0.950 . S
H3551 C3581 0.950 . S
C3552 H3534 0.951 . S
C3552 C3553 1.366 . S
C3552 C3554 1.388 . S
C3553 C3552 1.366 . S
C3553 C3557 1.385 . S
C3554 H3535 0.951 . S
C3554 C3552 1.388 . S
C3554 C3555 1.366 . S
C3555 C3554 1.366 . S
C3555 C3556 1.414 . S
C3555 C3558 1.499 . S
C3556 H3536 0.950 . S
C3556 C3555 1.414 . S
C3556 C3557 1.374 . S
C3557 H3537 0.950 . S
C3557 C3553 1.385 . S
C3557 C3556 1.374 . S
C3558 C3555 1.499 . S
C3558 C3559 1.373 . S
C3558 C3560 1.389 . S
C3559 H3538 0.950 . S
C3559 C3558 1.373 . S
C3559 C3575 1.377 . S
C3560 C3558 1.389 . S
C3560 C3561 1.524 . S
C3560 C3574 1.377 . S
C3561 C3560 1.524 . S
C3561 C3562 1.397 . S
C3561 C3566 1.363 . S
C3562 H3539 0.950 . S
C3562 C3561 1.397 . S
C3562 C3563 1.334 . S
C3563 H3540 0.950 . S
C3563 C3562 1.334 . S
C3563 C3564 1.287 . S
C3564 C3563 1.287 . S
C3564 C3565 1.524 . S
C3564 H3583 0.913 1_545 S
C3565 H3541 0.950 . S
C3565 C3564 1.524 . S
C3565 C3566 1.415 . S
C3566 H3542 0.950 . S
C3566 C3561 1.363 . S
C3566 C3565 1.415 . S
C3567 H3543 0.951 . S
C3567 C3568 1.366 . S
C3567 C3569 1.388 . S
C3568 C3567 1.366 . S
C3568 C3572 1.385 . S
C3569 H3544 0.951 . S
C3569 C3567 1.388 . S
C3569 C3570 1.366 . S
C3570 C3569 1.366 . S
C3570 C3571 1.414 . S
C3570 C3573 1.499 . S
C3571 H3545 0.950 . S
C3571 C3570 1.414 . S
C3571 C3572 1.374 . S
C3572 H3546 0.950 . S
C3572 C3568 1.385 . S
C3572 C3571 1.374 . S
C3573 C3570 1.499 . S
C3573 C3574 1.373 . S
C3573 C3575 1.389 . S
C3574 H3547 0.950 . S
C3574 C3560 1.377 . S
C3574 C3573 1.373 . S
C3575 C3559 1.377 . S
C3575 C3573 1.389 . S
C3575 C3576 1.524 . S
C3576 C3575 1.524 . S
C3576 C3577 1.397 . S
C3576 C3581 1.363 . S
C3577 H3548 0.950 . S
C3577 C3576 1.397 . S
C3577 C3578 1.334 . S
C3578 H3549 0.950 . S
C3578 C3577 1.334 . S
C3578 C3579 1.287 . S
C3579 C3578 1.287 . S
C3579 C3580 1.524 . S
C3579 H3582 0.999 . S
C3580 H3550 0.950 . S
C3580 C3579 1.524 . S
C3580 C3581 1.415 . S
C3581 H3551 0.950 . S
C3581 C3576 1.363 . S
C3581 C3580 1.415 . S
H3582 C3579 0.999 . S
H3583 C3564 0.913 1_565 S
H3584 C3602 0.951 1_554 S
H3585 C3604 0.951 . S
H3586 C3606 0.950 . S
H3587 C3607 0.950 . S
H3588 C3609 0.950 . S
H3589 C3612 0.950 . S
H3590 C3613 0.950 . S
H3591 C3615 0.950 . S
H3592 C3616 0.950 . S
H3593 C3617 0.951 . S
H3594 C3619 0.951 . S
H3595 C3621 0.950 . S
H3596 C3622 0.950 . S
H3597 C3624 0.950 . S
H3598 C3627 0.950 . S
H3599 C3628 0.950 . S
H3600 C3630 0.950 . S
H3601 C3631 0.950 . S
C3602 H3584 0.951 1_556 S
C3602 C3603 1.366 . S
C3602 C3604 1.388 . S
C3603 C3602 1.366 . S
C3603 C3607 1.385 . S
C3604 H3585 0.951 . S
C3604 C3602 1.388 . S
C3604 C3605 1.366 . S
C3605 C3604 1.366 . S
C3605 C3606 1.414 . S
C3605 C3608 1.499 . S
C3606 H3586 0.950 . S
C3606 C3605 1.414 . S
C3606 C3607 1.374 . S
C3607 H3587 0.950 . S
C3607 C3603 1.385 . S
C3607 C3606 1.374 . S
C3608 C3605 1.499 . S
C3608 C3609 1.373 . S
C3608 C3610 1.389 . S
C3609 H3588 0.950 . S
C3609 C3608 1.373 . S
C3609 C3625 1.377 . S
C3610 C3608 1.389 . S
C3610 C3611 1.524 . S
C3610 C3624 1.377 . S
C3611 C3610 1.524 . S
C3611 C3612 1.397 . S
C3611 C3616 1.363 . S
C3612 H3589 0.950 . S
C3612 C3611 1.397 . S
C3612 C3613 1.334 . S
C3613 H3590 0.950 . S
C3613 C3612 1.334 . S
C3613 C3614 1.287 1_556 S
C3614 C3613 1.287 1_554 S
C3614 C3615 1.524 . S
C3614 H3633 0.913 . S
C3615 H3591 0.950 . S
C3615 C3614 1.524 . S
C3615 C3616 1.415 1_554 S
C3616 H3592 0.950 . S
C3616 C3611 1.363 . S
C3616 C3615 1.415 1_556 S
C3617 H3593 0.951 . S
C3617 C3618 1.366 . S
C3617 C3619 1.388 . S
C3618 C3617 1.366 . S
C3618 C3622 1.385 . S
C3619 H3594 0.951 . S
C3619 C3617 1.388 . S
C3619 C3620 1.366 . S
C3620 C3619 1.366 . S
C3620 C3621 1.414 . S
C3620 C3623 1.499 . S
C3621 H3595 0.950 . S
C3621 C3620 1.414 . S
C3621 C3622 1.374 . S
C3622 H3596 0.950 . S
C3622 C3618 1.385 . S
C3622 C3621 1.374 . S
C3623 C3620 1.499 . S
C3623 C3624 1.373 . S
C3623 C3625 1.389 . S
C3624 H3597 0.950 . S
C3624 C3610 1.377 . S
C3624 C3623 1.373 . S
C3625 C3609 1.377 . S
C3625 C3623 1.389 . S
C3625 C3626 1.524 . S
C3626 C3625 1.524 . S
C3626 C3627 1.397 . S
C3626 C3631 1.363 . S
C3627 H3598 0.950 . S
C3627 C3626 1.397 . S
C3627 C3628 1.334 . S
C3628 H3599 0.950 . S
C3628 C3627 1.334 . S
C3628 C3629 1.287 . S
C3629 C3628 1.287 . S
C3629 C3630 1.524 . S
C3629 H3632 0.999 . S
C3630 H3600 0.950 . S
C3630 C3629 1.524 . S
C3630 C3631 1.415 . S
C3631 H3601 0.950 . S
C3631 C3626 1.363 . S
C3631 C3630 1.415 . S
H3632 C3629 0.999 . S
H3633 C3614 0.913 . S
H3634 C3652 0.951 . S
H3635 C3654 0.951 . S
H3636 C3656 0.950 1_556 S
H3637 C3657 0.950 . S
H3638 C3659 0.950 . S
H3639 C3662 0.950 . S
H3640 C3663 0.950 . S
H3641 C3665 0.950 . S
H3642 C3666 0.950 . S
H3643 C3667 0.951 . S
H3644 C3669 0.951 . S
H3645 C3671 0.950 . S
H3646 C3672 0.950 . S
H3647 C3674 0.950 . S
H3648 C3677 0.950 . S
H3649 C3678 0.950 . S
H3650 C3680 0.950 . S
H3651 C3681 0.950 . S
C3652 H3634 0.951 . S
C3652 C3653 1.366 . S
C3652 C3654 1.388 . S
C3653 C3652 1.366 . S
C3653 C3657 1.385 . S
C3654 H3635 0.951 . S
C3654 C3652 1.388 . S
C3654 C3655 1.366 . S
C3655 C3654 1.366 . S
C3655 C3656 1.414 . S
C3655 C3658 1.499 1_554 S
C3656 H3636 0.950 1_554 S
C3656 C3655 1.414 . S
C3656 C3657 1.374 . S
C3657 H3637 0.950 . S
C3657 C3653 1.385 . S
C3657 C3656 1.374 . S
C3658 C3655 1.499 1_556 S
C3658 C3659 1.373 . S
C3658 C3660 1.389 1_556 S
C3659 H3638 0.950 . S
C3659 C3658 1.373 . S
C3659 C3675 1.377 . S
C3660 C3658 1.389 1_554 S
C3660 C3661 1.524 . S
C3660 C3674 1.377 1_554 S
C3661 C3660 1.524 . S
C3661 C3662 1.397 . S
C3661 C3666 1.363 . S
C3662 H3639 0.950 . S
C3662 C3661 1.397 . S
C3662 C3663 1.334 . S
C3663 H3640 0.950 . S
C3663 C3662 1.334 . S
C3663 C3664 1.287 . S
C3664 C3663 1.287 . S
C3664 C3665 1.524 . S
C3664 H3683 0.913 . S
C3665 H3641 0.950 . S
C3665 C3664 1.524 . S
C3665 C3666 1.415 . S
C3666 H3642 0.950 . S
C3666 C3661 1.363 . S
C3666 C3665 1.415 . S
C3667 H3643 0.951 . S
C3667 C3668 1.366 . S
C3667 C3669 1.388 . S
C3668 C3667 1.366 . S
C3668 C3672 1.385 . S
C3669 H3644 0.951 . S
C3669 C3667 1.388 . S
C3669 C3670 1.366 . S
C3670 C3669 1.366 . S
C3670 C3671 1.414 . S
C3670 C3673 1.499 . S
C3671 H3645 0.950 . S
C3671 C3670 1.414 . S
C3671 C3672 1.374 . S
C3672 H3646 0.950 . S
C3672 C3668 1.385 . S
C3672 C3671 1.374 . S
C3673 C3670 1.499 . S
C3673 C3674 1.373 . S
C3673 C3675 1.389 . S
C3674 H3647 0.950 . S
C3674 C3660 1.377 1_556 S
C3674 C3673 1.373 . S
C3675 C3659 1.377 . S
C3675 C3673 1.389 . S
C3675 C3676 1.524 . S
C3676 C3675 1.524 . S
C3676 C3677 1.397 . S
C3676 C3681 1.363 . S
C3677 H3648 0.950 . S
C3677 C3676 1.397 . S
C3677 C3678 1.334 . S
C3678 H3649 0.950 . S
C3678 C3677 1.334 . S
C3678 C3679 1.287 . S
C3679 C3678 1.287 . S
C3679 C3680 1.524 . S
C3679 H3682 0.999 . S
C3680 H3650 0.950 . S
C3680 C3679 1.524 . S
C3680 C3681 1.415 . S
C3681 H3651 0.950 . S
C3681 C3676 1.363 . S
C3681 C3680 1.415 . S
H3682 C3679 0.999 . S
H3683 C3664 0.913 . S
H3684 C3702 0.951 . S
H3685 C3704 0.951 . S
H3686 C3706 0.950 . S
H3687 C3707 0.950 . S
H3688 C3709 0.950 . S
H3689 C3712 0.950 . S
H3690 C3713 0.950 . S
H3691 C3715 0.950 . S
H3692 C3716 0.950 . S
H3693 C3717 0.951 . S
H3694 C3719 0.951 . S
H3695 C3721 0.950 . S
H3696 C3722 0.950 . S
H3697 C3724 0.950 . S
H3698 C3727 0.950 . S
H3699 C3728 0.950 . S
H3700 C3730 0.950 . S
H3701 C3731 0.950 . S
C3702 H3684 0.951 . S
C3702 C3703 1.366 . S
C3702 C3704 1.388 1_554 S
C3703 C3702 1.366 . S
C3703 C3707 1.385 1_554 S
C3704 H3685 0.951 . S
C3704 C3702 1.388 1_556 S
C3704 C3705 1.366 . S
C3705 C3704 1.366 . S
C3705 C3706 1.414 . S
C3705 C3708 1.499 . S
C3706 H3686 0.950 . S
C3706 C3705 1.414 . S
C3706 C3707 1.374 . S
C3707 H3687 0.950 . S
C3707 C3703 1.385 1_556 S
C3707 C3706 1.374 . S
C3708 C3705 1.499 . S
C3708 C3709 1.373 . S
C3708 C3710 1.389 . S
C3709 H3688 0.950 . S
C3709 C3708 1.373 . S
C3709 C3725 1.377 . S
C3710 C3708 1.389 . S
C3710 C3711 1.524 . S
C3710 C3724 1.377 . S
C3711 C3710 1.524 . S
C3711 C3712 1.397 . S
C3711 C3716 1.363 . S
C3712 H3689 0.950 . S
C3712 C3711 1.397 . S
C3712 C3713 1.334 . S
C3713 H3690 0.950 . S
C3713 C3712 1.334 . S
C3713 C3714 1.287 . S
C3714 C3713 1.287 . S
C3714 C3715 1.524 . S
C3714 H3733 0.913 . S
C3715 H3691 0.950 . S
C3715 C3714 1.524 . S
C3715 C3716 1.415 . S
C3716 H3692 0.950 . S
C3716 C3711 1.363 . S
C3716 C3715 1.415 . S
C3717 H3693 0.951 . S
C3717 C3718 1.366 . S
C3717 C3719 1.388 . S
C3718 C3717 1.366 . S
C3718 C3722 1.385 . S
C3719 H3694 0.951 . S
C3719 C3717 1.388 . S
C3719 C3720 1.366 . S
C3720 C3719 1.366 . S
C3720 C3721 1.414 . S
C3720 C3723 1.499 . S
C3721 H3695 0.950 . S
C3721 C3720 1.414 . S
C3721 C3722 1.374 . S
C3722 H3696 0.950 . S
C3722 C3718 1.385 . S
C3722 C3721 1.374 . S
C3723 C3720 1.499 . S
C3723 C3724 1.373 . S
C3723 C3725 1.389 . S
C3724 H3697 0.950 . S
C3724 C3710 1.377 . S
C3724 C3723 1.373 . S
C3725 C3709 1.377 . S
C3725 C3723 1.389 . S
C3725 C3726 1.524 . S
C3726 C3725 1.524 . S
C3726 C3727 1.397 . S
C3726 C3731 1.363 . S
C3727 H3698 0.950 . S
C3727 C3726 1.397 . S
C3727 C3728 1.334 . S
C3728 H3699 0.950 . S
C3728 C3727 1.334 . S
C3728 C3729 1.287 . S
C3729 C3728 1.287 . S
C3729 C3730 1.524 . S
C3729 H3732 0.999 . S
C3730 H3700 0.950 . S
C3730 C3729 1.524 . S
C3730 C3731 1.415 . S
C3731 H3701 0.950 . S
C3731 C3726 1.363 . S
C3731 C3730 1.415 . S
H3732 C3729 0.999 . S
H3733 C3714 0.913 . S
H3734 C3752 0.951 . S
H3735 C3754 0.951 . S
H3736 C3756 0.950 . S
H3737 C3757 0.950 . S
H3738 C3759 0.950 . S
H3739 C3762 0.950 . S
H3740 C3763 0.950 . S
H3741 C3765 0.950 . S
H3742 C3766 0.950 . S
H3743 C3767 0.951 . S
H3744 C3769 0.951 . S
H3745 C3771 0.950 . S
H3746 C3772 0.950 . S
H3747 C3774 0.950 . S
H3748 C3777 0.950 . S
H3749 C3778 0.950 . S
H3750 C3780 0.950 . S
H3751 C3781 0.950 . S
C3752 H3734 0.951 . S
C3752 C3753 1.366 . S
C3752 C3754 1.388 . S
C3753 C3752 1.366 . S
C3753 C3757 1.385 . S
C3754 H3735 0.951 . S
C3754 C3752 1.388 . S
C3754 C3755 1.366 . S
C3755 C3754 1.366 . S
C3755 C3756 1.414 . S
C3755 C3758 1.499 . S
C3756 H3736 0.950 . S
C3756 C3755 1.414 . S
C3756 C3757 1.374 . S
C3757 H3737 0.950 . S
C3757 C3753 1.385 . S
C3757 C3756 1.374 . S
C3758 C3755 1.499 . S
C3758 C3759 1.373 . S
C3758 C3760 1.389 . S
C3759 H3738 0.950 . S
C3759 C3758 1.373 . S
C3759 C3775 1.377 . S
C3760 C3758 1.389 . S
C3760 C3761 1.524 . S
C3760 C3774 1.377 . S
C3761 C3760 1.524 . S
C3761 C3762 1.397 . S
C3761 C3766 1.363 . S
C3762 H3739 0.950 . S
C3762 C3761 1.397 . S
C3762 C3763 1.334 . S
C3763 H3740 0.950 . S
C3763 C3762 1.334 . S
C3763 C3764 1.287 . S
C3764 C3763 1.287 . S
C3764 C3765 1.524 . S
C3764 H3783 0.913 1_556 S
C3765 H3741 0.950 . S
C3765 C3764 1.524 . S
C3765 C3766 1.415 . S
C3766 H3742 0.950 . S
C3766 C3761 1.363 . S
C3766 C3765 1.415 . S
C3767 H3743 0.951 . S
C3767 C3768 1.366 . S
C3767 C3769 1.388 . S
C3768 C3767 1.366 . S
C3768 C3772 1.385 . S
C3769 H3744 0.951 . S
C3769 C3767 1.388 . S
C3769 C3770 1.366 . S
C3770 C3769 1.366 . S
C3770 C3771 1.414 . S
C3770 C3773 1.499 . S
C3771 H3745 0.950 . S
C3771 C3770 1.414 . S
C3771 C3772 1.374 . S
C3772 H3746 0.950 . S
C3772 C3768 1.385 . S
C3772 C3771 1.374 . S
C3773 C3770 1.499 . S
C3773 C3774 1.373 . S
C3773 C3775 1.389 . S
C3774 H3747 0.950 . S
C3774 C3760 1.377 . S
C3774 C3773 1.373 . S
C3775 C3759 1.377 . S
C3775 C3773 1.389 . S
C3775 C3776 1.524 . S
C3776 C3775 1.524 . S
C3776 C3777 1.397 . S
C3776 C3781 1.363 . S
C3777 H3748 0.950 . S
C3777 C3776 1.397 . S
C3777 C3778 1.334 . S
C3778 H3749 0.950 . S
C3778 C3777 1.334 . S
C3778 C3779 1.287 . S
C3779 C3778 1.287 . S
C3779 C3780 1.524 . S
C3779 H3782 0.999 . S
C3780 H3750 0.950 . S
C3780 C3779 1.524 . S
C3780 C3781 1.415 . S
C3781 H3751 0.950 . S
C3781 C3776 1.363 . S
C3781 C3780 1.415 . S
H3782 C3779 0.999 . S
H3783 C3764 0.913 1_554 S
H3784 C3802 0.951 . S
H3785 C3804 0.951 . S
H3786 C3806 0.950 . S
H3787 C3807 0.950 . S
H3788 C3809 0.950 . S
H3789 C3812 0.950 . S
H3790 C3813 0.950 . S
H3791 C3815 0.950 . S
H3792 C3816 0.950 . S
H3793 C3817 0.951 . S
H3794 C3819 0.951 . S
H3795 C3821 0.950 . S
H3796 C3822 0.950 . S
H3797 C3824 0.950 . S
H3798 C3827 0.950 . S
H3799 C3828 0.950 . S
H3800 C3830 0.950 . S
H3801 C3831 0.950 . S
C3802 H3784 0.951 . S
C3802 C3803 1.366 . S
C3802 C3804 1.388 . S
C3803 C3802 1.366 . S
C3803 C3807 1.385 1_554 S
C3804 H3785 0.951 . S
C3804 C3802 1.388 . S
C3804 C3805 1.366 1_554 S
C3805 C3804 1.366 1_556 S
C3805 C3806 1.414 . S
C3805 C3808 1.499 . S
C3806 H3786 0.950 . S
C3806 C3805 1.414 . S
C3806 C3807 1.374 . S
C3807 H3787 0.950 . S
C3807 C3803 1.385 1_556 S
C3807 C3806 1.374 . S
C3808 C3805 1.499 . S
C3808 C3809 1.373 . S
C3808 C3810 1.389 . S
C3809 H3788 0.950 . S
C3809 C3808 1.373 . S
C3809 C3825 1.377 . S
C3810 C3808 1.389 . S
C3810 C3811 1.547 . S
C3810 C3824 1.377 . S
C3811 C3810 1.547 . S
C3811 C3812 1.398 . S
C3811 C3816 1.343 1_556 S
C3812 H3789 0.950 . S
C3812 C3811 1.398 . S
C3812 C3813 1.334 1_556 S
C3813 H3790 0.950 . S
C3813 C3812 1.334 1_554 S
C3813 C3814 1.287 . S
C3814 C3813 1.287 . S
C3814 C3815 1.524 . S
C3814 H3833 0.913 . S
C3815 H3791 0.950 . S
C3815 C3814 1.524 . S
C3815 C3816 1.415 . S
C3816 H3792 0.950 . S
C3816 C3811 1.343 1_554 S
C3816 C3815 1.415 . S
C3817 H3793 0.951 . S
C3817 C3818 1.366 . S
C3817 C3819 1.388 . S
C3818 C3817 1.366 . S
C3818 C3822 1.385 . S
C3819 H3794 0.951 . S
C3819 C3817 1.388 . S
C3819 C3820 1.366 . S
C3820 C3819 1.366 . S
C3820 C3821 1.414 . S
C3820 C3823 1.499 . S
C3821 H3795 0.950 . S
C3821 C3820 1.414 . S
C3821 C3822 1.374 . S
C3822 H3796 0.950 . S
C3822 C3818 1.385 . S
C3822 C3821 1.374 . S
C3823 C3820 1.499 . S
C3823 C3824 1.373 . S
C3823 C3825 1.389 . S
C3824 H3797 0.950 . S
C3824 C3810 1.377 . S
C3824 C3823 1.373 . S
C3825 C3809 1.377 . S
C3825 C3823 1.389 . S
C3825 C3826 1.524 . S
C3826 C3825 1.524 . S
C3826 C3827 1.397 . S
C3826 C3831 1.363 . S
C3827 H3798 0.950 . S
C3827 C3826 1.397 . S
C3827 C3828 1.334 . S
C3828 H3799 0.950 . S
C3828 C3827 1.334 . S
C3828 C3829 1.287 . S
C3829 C3828 1.287 . S
C3829 C3830 1.524 . S
C3829 H3832 0.999 . S
C3830 H3800 0.950 . S
C3830 C3829 1.524 . S
C3830 C3831 1.415 . S
C3831 H3801 0.950 . S
C3831 C3826 1.363 . S
C3831 C3830 1.415 . S
H3832 C3829 0.999 . S
H3833 C3814 0.913 . S
H3834 C3852 0.951 . S
H3835 C3854 0.951 . S
H3836 C3856 0.950 . S
H3837 C3857 0.950 . S
H3838 C3859 0.950 . S
H3839 C3862 0.950 . S
H3840 C3863 0.950 . S
H3841 C3865 0.950 . S
H3842 C3866 0.950 . S
H3843 C3867 0.951 . S
H3844 C3869 0.951 . S
H3845 C3871 0.950 . S
H3846 C3872 0.950 . S
H3847 C3874 0.950 . S
H3848 C3877 0.950 . S
H3849 C3878 0.950 . S
H3850 C3880 0.950 . S
H3851 C3881 0.950 . S
C3852 H3834 0.951 . S
C3852 C3853 1.366 . S
C3852 C3854 1.388 . S
C3853 C3852 1.366 . S
C3853 C3857 1.385 . S
C3854 H3835 0.951 . S
C3854 C3852 1.388 . S
C3854 C3855 1.366 . S
C3855 C3854 1.366 . S
C3855 C3856 1.414 . S
C3855 C3858 1.499 . S
C3856 H3836 0.950 . S
C3856 C3855 1.414 . S
C3856 C3857 1.374 . S
C3857 H3837 0.950 . S
C3857 C3853 1.385 . S
C3857 C3856 1.374 . S
C3858 C3855 1.499 . S
C3858 C3859 1.373 . S
C3858 C3860 1.389 . S
C3859 H3838 0.950 . S
C3859 C3858 1.373 . S
C3859 C3875 1.377 . S
C3860 C3858 1.389 . S
C3860 C3861 1.524 . S
C3860 C3874 1.377 . S
C3861 C3860 1.524 . S
C3861 C3862 1.397 . S
C3861 C3866 1.363 . S
C3862 H3839 0.950 . S
C3862 C3861 1.397 . S
C3862 C3863 1.334 . S
C3863 H3840 0.950 . S
C3863 C3862 1.334 . S
C3863 C3864 1.287 . S
C3864 C3863 1.287 . S
C3864 C3865 1.524 . S
C3864 H3883 0.913 . S
C3865 H3841 0.950 . S
C3865 C3864 1.524 . S
C3865 C3866 1.415 . S
C3866 H3842 0.950 . S
C3866 C3861 1.363 . S
C3866 C3865 1.415 . S
C3867 H3843 0.951 . S
C3867 C3868 1.366 . S
C3867 C3869 1.388 . S
C3868 C3867 1.366 . S
C3868 C3872 1.385 . S
C3869 H3844 0.951 . S
C3869 C3867 1.388 . S
C3869 C3870 1.366 . S
C3870 C3869 1.366 . S
C3870 C3871 1.414 . S
C3870 C3873 1.499 . S
C3871 H3845 0.950 . S
C3871 C3870 1.414 . S
C3871 C3872 1.374 . S
C3872 H3846 0.950 . S
C3872 C3868 1.385 . S
C3872 C3871 1.374 . S
C3873 C3870 1.499 . S
C3873 C3874 1.373 . S
C3873 C3875 1.389 . S
C3874 H3847 0.950 . S
C3874 C3860 1.377 . S
C3874 C3873 1.373 . S
C3875 C3859 1.377 . S
C3875 C3873 1.389 . S
C3875 C3876 1.524 . S
C3876 C3875 1.524 . S
C3876 C3877 1.397 . S
C3876 C3881 1.363 . S
C3877 H3848 0.950 . S
C3877 C3876 1.397 . S
C3877 C3878 1.334 . S
C3878 H3849 0.950 . S
C3878 C3877 1.334 . S
C3878 C3879 1.287 . S
C3879 C3878 1.287 . S
C3879 C3880 1.524 . S
C3879 H3882 0.999 . S
C3880 H3850 0.950 . S
C3880 C3879 1.524 . S
C3880 C3881 1.415 . S
C3881 H3851 0.950 . S
C3881 C3876 1.363 . S
C3881 C3880 1.415 . S
H3882 C3879 0.999 . S
H3883 C3864 0.913 . S
H3884 C3902 0.951 . S
H3885 C3904 0.951 . S
H3886 C3906 0.950 . S
H3887 C3907 0.950 . S
H3888 C3909 0.950 . S
H3889 C3912 0.950 . S
H3890 C3913 0.950 . S
H3891 C3915 0.950 . S
H3892 C3916 0.950 . S
H3893 C3917 0.951 . S
H3894 C3919 0.951 . S
H3895 C3921 0.950 . S
H3896 C3922 0.950 . S
H3897 C3924 0.950 . S
H3898 C3927 0.950 . S
H3899 C3928 0.950 . S
H3900 C3930 0.950 . S
H3901 C3931 0.950 . S
C3902 H3884 0.951 . S
C3902 C3903 1.366 . S
C3902 C3904 1.388 . S
C3903 C3902 1.366 . S
C3903 C3907 1.385 . S
C3904 H3885 0.951 . S
C3904 C3902 1.388 . S
C3904 C3905 1.366 . S
C3905 C3904 1.366 . S
C3905 C3906 1.414 . S
C3905 C3908 1.499 . S
C3906 H3886 0.950 . S
C3906 C3905 1.414 . S
C3906 C3907 1.374 . S
C3907 H3887 0.950 . S
C3907 C3903 1.385 . S
C3907 C3906 1.374 . S
C3908 C3905 1.499 . S
C3908 C3909 1.373 . S
C3908 C3910 1.389 . S
C3909 H3888 0.950 . S
C3909 C3908 1.373 . S
C3909 C3925 1.377 . S
C3910 C3908 1.389 . S
C3910 C3911 1.524 . S
C3910 C3924 1.377 . S
C3911 C3910 1.524 . S
C3911 C3912 1.397 . S
C3911 C3916 1.363 . S
C3912 H3889 0.950 . S
C3912 C3911 1.397 . S
C3912 C3913 1.334 . S
C3913 H3890 0.950 . S
C3913 C3912 1.334 . S
C3913 C3914 1.287 . S
C3914 C3913 1.287 . S
C3914 C3915 1.524 . S
C3914 H3933 0.913 . S
C3915 H3891 0.950 . S
C3915 C3914 1.524 . S
C3915 C3916 1.415 . S
C3916 H3892 0.950 . S
C3916 C3911 1.363 . S
C3916 C3915 1.415 . S
C3917 H3893 0.951 . S
C3917 C3918 1.366 . S
C3917 C3919 1.388 . S
C3918 C3917 1.366 . S
C3918 C3922 1.385 . S
C3919 H3894 0.951 . S
C3919 C3917 1.388 . S
C3919 C3920 1.366 . S
C3920 C3919 1.366 . S
C3920 C3921 1.414 . S
C3920 C3923 1.499 . S
C3921 H3895 0.950 . S
C3921 C3920 1.414 . S
C3921 C3922 1.374 . S
C3922 H3896 0.950 . S
C3922 C3918 1.385 . S
C3922 C3921 1.374 . S
C3923 C3920 1.499 . S
C3923 C3924 1.373 . S
C3923 C3925 1.389 . S
C3924 H3897 0.950 . S
C3924 C3910 1.377 . S
C3924 C3923 1.373 . S
C3925 C3909 1.377 . S
C3925 C3923 1.389 . S
C3925 C3926 1.524 . S
C3926 C3925 1.524 . S
C3926 C3927 1.397 . S
C3926 C3931 1.363 . S
C3927 H3898 0.950 . S
C3927 C3926 1.397 . S
C3927 C3928 1.334 . S
C3928 H3899 0.950 . S
C3928 C3927 1.334 . S
C3928 C3929 1.287 . S
C3929 C3928 1.287 . S
C3929 C3930 1.524 . S
C3929 H3932 0.999 . S
C3930 H3900 0.950 . S
C3930 C3929 1.524 . S
C3930 C3931 1.415 . S
C3931 H3901 0.950 . S
C3931 C3926 1.363 . S
C3931 C3930 1.415 . S
H3932 C3929 0.999 . S
H3933 C3914 0.913 . S
H3934 C3952 0.951 . S
H3935 C3954 0.951 . S
H3936 C3956 0.950 . S
H3937 C3957 0.950 . S
H3938 C3959 0.950 . S
H3939 C3962 0.950 . S
H3940 C3963 0.950 . S
H3941 C3965 0.950 . S
H3942 C3966 0.950 . S
H3943 C3967 0.951 . S
H3944 C3969 0.951 . S
H3945 C3971 0.950 . S
H3946 C3972 0.950 . S
H3947 C3974 0.950 . S
H3948 C3977 0.950 . S
H3949 C3978 0.950 . S
H3950 C3980 0.950 . S
H3951 C3981 0.950 . S
C3952 H3934 0.951 . S
C3952 C3953 1.366 . S
C3952 C3954 1.388 . S
C3953 C3952 1.366 . S
C3953 C3957 1.385 . S
C3954 H3935 0.951 . S
C3954 C3952 1.388 . S
C3954 C3955 1.366 . S
C3955 C3954 1.366 . S
C3955 C3956 1.414 . S
C3955 C3958 1.499 . S
C3956 H3936 0.950 . S
C3956 C3955 1.414 . S
C3956 C3957 1.374 . S
C3957 H3937 0.950 . S
C3957 C3953 1.385 . S
C3957 C3956 1.374 . S
C3958 C3955 1.499 . S
C3958 C3959 1.373 . S
C3958 C3960 1.389 . S
C3959 H3938 0.950 . S
C3959 C3958 1.373 . S
C3959 C3975 1.377 . S
C3960 C3958 1.389 . S
C3960 C3961 1.524 . S
C3960 C3974 1.377 . S
C3961 C3960 1.524 . S
C3961 C3962 1.397 . S
C3961 C3966 1.363 . S
C3962 H3939 0.950 . S
C3962 C3961 1.397 . S
C3962 C3963 1.334 . S
C3963 H3940 0.950 . S
C3963 C3962 1.334 . S
C3963 C3964 1.287 . S
C3964 C3963 1.287 . S
C3964 C3965 1.524 . S
C3964 H3983 0.913 . S
C3965 H3941 0.950 . S
C3965 C3964 1.524 . S
C3965 C3966 1.415 . S
C3966 H3942 0.950 . S
C3966 C3961 1.363 . S
C3966 C3965 1.415 . S
C3967 H3943 0.951 . S
C3967 C3968 1.366 . S
C3967 C3969 1.388 . S
C3968 C3967 1.366 . S
C3968 C3972 1.385 . S
C3969 H3944 0.951 . S
C3969 C3967 1.388 . S
C3969 C3970 1.366 . S
C3970 C3969 1.366 . S
C3970 C3971 1.414 . S
C3970 C3973 1.499 . S
C3971 H3945 0.950 . S
C3971 C3970 1.414 . S
C3971 C3972 1.374 . S
C3972 H3946 0.950 . S
C3972 C3968 1.385 . S
C3972 C3971 1.374 . S
C3973 C3970 1.499 . S
C3973 C3974 1.373 . S
C3973 C3975 1.389 . S
C3974 H3947 0.950 . S
C3974 C3960 1.377 . S
C3974 C3973 1.373 . S
C3975 C3959 1.377 . S
C3975 C3973 1.389 . S
C3975 C3976 1.524 . S
C3976 C3975 1.524 . S
C3976 C3977 1.397 . S
C3976 C3981 1.363 . S
C3977 H3948 0.950 . S
C3977 C3976 1.397 . S
C3977 C3978 1.334 . S
C3978 H3949 0.950 . S
C3978 C3977 1.334 . S
C3978 C3979 1.287 . S
C3979 C3978 1.287 . S
C3979 C3980 1.524 . S
C3979 H3982 0.999 . S
C3980 H3950 0.950 . S
C3980 C3979 1.524 . S
C3980 C3981 1.415 . S
C3981 H3951 0.950 . S
C3981 C3976 1.363 . S
C3981 C3980 1.415 . S
H3982 C3979 0.999 . S
H3983 C3964 0.913 . S
H3984 C4002 0.951 . S
H3985 C4004 0.951 . S
H3986 C4006 0.950 . S
H3987 C4007 0.950 . S
H3988 C4009 0.950 . S
H3989 C4012 0.950 . S
H3990 C4013 0.950 . S
H3991 C4015 0.950 . S
H3992 C4016 0.950 . S
H3993 C4017 0.951 . S
H3994 C4019 0.951 . S
H3995 C4021 0.950 . S
H3996 C4022 0.950 . S
H3997 C4024 0.950 . S
H3998 C4027 0.950 . S
H3999 C4028 0.950 . S
H4000 C4030 0.950 . S
H4001 C4031 0.950 . S
C4002 H3984 0.951 . S
C4002 C4003 1.366 . S
C4002 C4004 1.388 . S
C4003 C4002 1.366 . S
C4003 C4007 1.385 . S
C4004 H3985 0.951 . S
C4004 C4002 1.388 . S
C4004 C4005 1.366 . S
C4005 C4004 1.366 . S
C4005 C4006 1.414 . S
C4005 C4008 1.499 . S
C4006 H3986 0.950 . S
C4006 C4005 1.414 . S
C4006 C4007 1.374 . S
C4007 H3987 0.950 . S
C4007 C4003 1.385 . S
C4007 C4006 1.374 . S
C4008 C4005 1.499 . S
C4008 C4009 1.373 . S
C4008 C4010 1.389 . S
C4009 H3988 0.950 . S
C4009 C4008 1.373 . S
C4009 C4025 1.377 . S
C4010 C4008 1.389 . S
C4010 C4011 1.524 . S
C4010 C4024 1.377 . S
C4011 C4010 1.524 . S
C4011 C4012 1.397 . S
C4011 C4016 1.363 . S
C4012 H3989 0.950 . S
C4012 C4011 1.397 . S
C4012 C4013 1.334 . S
C4013 H3990 0.950 . S
C4013 C4012 1.334 . S
C4013 C4014 1.287 . S
C4014 C4013 1.287 . S
C4014 C4015 1.524 . S
C4014 H4033 0.913 . S
C4015 H3991 0.950 . S
C4015 C4014 1.524 . S
C4015 C4016 1.415 . S
C4016 H3992 0.950 . S
C4016 C4011 1.363 . S
C4016 C4015 1.415 . S
C4017 H3993 0.951 . S
C4017 C4018 1.366 . S
C4017 C4019 1.388 . S
C4018 C4017 1.366 . S
C4018 C4022 1.385 . S
C4019 H3994 0.951 . S
C4019 C4017 1.388 . S
C4019 C4020 1.366 . S
C4020 C4019 1.366 . S
C4020 C4021 1.414 . S
C4020 C4023 1.499 . S
C4021 H3995 0.950 . S
C4021 C4020 1.414 . S
C4021 C4022 1.374 . S
C4022 H3996 0.950 . S
C4022 C4018 1.385 . S
C4022 C4021 1.374 . S
C4023 C4020 1.499 . S
C4023 C4024 1.373 . S
C4023 C4025 1.389 . S
C4024 H3997 0.950 . S
C4024 C4010 1.377 . S
C4024 C4023 1.373 . S
C4025 C4009 1.377 . S
C4025 C4023 1.389 . S
C4025 C4026 1.524 . S
C4026 C4025 1.524 . S
C4026 C4027 1.397 . S
C4026 C4031 1.363 . S
C4027 H3998 0.950 . S
C4027 C4026 1.397 . S
C4027 C4028 1.334 . S
C4028 H3999 0.950 . S
C4028 C4027 1.334 . S
C4028 C4029 1.287 . S
C4029 C4028 1.287 . S
C4029 C4030 1.524 . S
C4029 H4032 0.999 . S
C4030 H4000 0.950 . S
C4030 C4029 1.524 . S
C4030 C4031 1.415 . S
C4031 H4001 0.950 . S
C4031 C4026 1.363 . S
C4031 C4030 1.415 . S
H4032 C4029 0.999 . S
H4033 C4014 0.913 . S
H4034 C4052 0.951 . S
H4035 C4054 0.951 . S
H4036 C4056 0.950 . S
H4037 C4057 0.950 . S
H4038 C4059 0.950 . S
H4039 C4062 0.950 . S
H4040 C4063 0.950 . S
H4041 C4065 0.950 . S
H4042 C4066 0.950 . S
H4043 C4067 0.951 . S
H4044 C4069 0.951 . S
H4045 C4071 0.950 . S
H4046 C4072 0.950 . S
H4047 C4074 0.950 . S
H4048 C4077 0.950 . S
H4049 C4078 0.950 . S
H4050 C4080 0.950 . S
H4051 C4081 0.950 . S
C4052 H4034 0.951 . S
C4052 C4053 1.366 . S
C4052 C4054 1.388 . S
C4053 C4052 1.366 . S
C4053 C4057 1.385 . S
C4054 H4035 0.951 . S
C4054 C4052 1.388 . S
C4054 C4055 1.366 . S
C4055 C4054 1.366 . S
C4055 C4056 1.414 . S
C4055 C4058 1.499 . S
C4056 H4036 0.950 . S
C4056 C4055 1.414 . S
C4056 C4057 1.374 . S
C4057 H4037 0.950 . S
C4057 C4053 1.385 . S
C4057 C4056 1.374 . S
C4058 C4055 1.499 . S
C4058 C4059 1.373 . S
C4058 C4060 1.389 . S
C4059 H4038 0.950 . S
C4059 C4058 1.373 . S
C4059 C4075 1.377 . S
C4060 C4058 1.389 . S
C4060 C4061 1.524 . S
C4060 C4074 1.377 . S
C4061 C4060 1.524 . S
C4061 C4062 1.397 . S
C4061 C4066 1.363 . S
C4062 H4039 0.950 . S
C4062 C4061 1.397 . S
C4062 C4063 1.334 . S
C4063 H4040 0.950 . S
C4063 C4062 1.334 . S
C4063 C4064 1.287 . S
C4064 C4063 1.287 . S
C4064 C4065 1.524 . S
C4064 H4083 0.913 . S
C4065 H4041 0.950 . S
C4065 C4064 1.524 . S
C4065 C4066 1.415 . S
C4066 H4042 0.950 . S
C4066 C4061 1.363 . S
C4066 C4065 1.415 . S
C4067 H4043 0.951 . S
C4067 C4068 1.366 . S
C4067 C4069 1.388 . S
C4068 C4067 1.366 . S
C4068 C4072 1.385 . S
C4069 H4044 0.951 . S
C4069 C4067 1.388 . S
C4069 C4070 1.366 . S
C4070 C4069 1.366 . S
C4070 C4071 1.414 . S
C4070 C4073 1.499 . S
C4071 H4045 0.950 . S
C4071 C4070 1.414 . S
C4071 C4072 1.374 . S
C4072 H4046 0.950 . S
C4072 C4068 1.385 . S
C4072 C4071 1.374 . S
C4073 C4070 1.499 . S
C4073 C4074 1.373 . S
C4073 C4075 1.389 . S
C4074 H4047 0.950 . S
C4074 C4060 1.377 . S
C4074 C4073 1.373 . S
C4075 C4059 1.377 . S
C4075 C4073 1.389 . S
C4075 C4076 1.524 . S
C4076 C4075 1.524 . S
C4076 C4077 1.397 . S
C4076 C4081 1.363 . S
C4077 H4048 0.950 . S
C4077 C4076 1.397 . S
C4077 C4078 1.334 . S
C4078 H4049 0.950 . S
C4078 C4077 1.334 . S
C4078 C4079 1.287 . S
C4079 C4078 1.287 . S
C4079 C4080 1.524 . S
C4079 H4082 0.999 . S
C4080 H4050 0.950 . S
C4080 C4079 1.524 . S
C4080 C4081 1.415 . S
C4081 H4051 0.950 . S
C4081 C4076 1.363 . S
C4081 C4080 1.415 . S
H4082 C4079 0.999 . S
H4083 C4064 0.913 . S
H4084 C4102 0.951 . S
H4085 C4104 0.951 . S
H4086 C4106 0.950 . S
H4087 C4107 0.950 1_455 S
H4088 C4109 0.950 . S
H4089 C4112 0.950 . S
H4090 C4113 0.950 . S
H4091 C4115 0.950 . S
H4092 C4116 0.950 . S
H4093 C4117 0.951 . S
H4094 C4119 0.951 . S
H4095 C4121 0.950 . S
H4096 C4122 0.950 . S
H4097 C4124 0.950 . S
H4098 C4127 0.950 . S
H4099 C4128 0.950 . S
H4100 C4130 0.950 . S
H4101 C4131 0.950 . S
C4102 H4084 0.951 . S
C4102 C4103 1.366 . S
C4102 C4104 1.388 . S
C4103 C4102 1.366 . S
C4103 C4107 1.385 . S
C4104 H4085 0.951 . S
C4104 C4102 1.388 . S
C4104 C4105 1.366 . S
C4105 C4104 1.366 . S
C4105 C4106 1.414 . S
C4105 C4108 1.499 . S
C4106 H4086 0.950 . S
C4106 C4105 1.414 . S
C4106 C4107 1.374 . S
C4107 H4087 0.950 1_655 S
C4107 C4103 1.385 . S
C4107 C4106 1.374 . S
C4108 C4105 1.499 . S
C4108 C4109 1.373 . S
C4108 C4110 1.389 . S
C4109 H4088 0.950 . S
C4109 C4108 1.373 . S
C4109 C4125 1.377 . S
C4110 C4108 1.389 . S
C4110 C4111 1.524 . S
C4110 C4124 1.377 . S
C4111 C4110 1.524 . S
C4111 C4112 1.397 . S
C4111 C4116 1.363 . S
C4112 H4089 0.950 . S
C4112 C4111 1.397 . S
C4112 C4113 1.334 . S
C4113 H4090 0.950 . S
C4113 C4112 1.334 . S
C4113 C4114 1.287 . S
C4114 C4113 1.287 . S
C4114 C4115 1.524 . S
C4114 H4133 0.913 . S
C4115 H4091 0.950 . S
C4115 C4114 1.524 . S
C4115 C4116 1.415 . S
C4116 H4092 0.950 . S
C4116 C4111 1.363 . S
C4116 C4115 1.415 . S
C4117 H4093 0.951 . S
C4117 C4118 1.366 . S
C4117 C4119 1.388 . S
C4118 C4117 1.366 . S
C4118 C4122 1.385 . S
C4119 H4094 0.951 . S
C4119 C4117 1.388 . S
C4119 C4120 1.366 . S
C4120 C4119 1.366 . S
C4120 C4121 1.414 . S
C4120 C4123 1.499 . S
C4121 H4095 0.950 . S
C4121 C4120 1.414 . S
C4121 C4122 1.374 . S
C4122 H4096 0.950 . S
C4122 C4118 1.385 . S
C4122 C4121 1.374 . S
C4123 C4120 1.499 . S
C4123 C4124 1.373 . S
C4123 C4125 1.389 . S
C4124 H4097 0.950 . S
C4124 C4110 1.377 . S
C4124 C4123 1.373 . S
C4125 C4109 1.377 . S
C4125 C4123 1.389 . S
C4125 C4126 1.524 . S
C4126 C4125 1.524 . S
C4126 C4127 1.397 . S
C4126 C4131 1.363 . S
C4127 H4098 0.950 . S
C4127 C4126 1.397 . S
C4127 C4128 1.334 . S
C4128 H4099 0.950 . S
C4128 C4127 1.334 . S
C4128 C4129 1.287 . S
C4129 C4128 1.287 . S
C4129 C4130 1.524 . S
C4129 H4132 0.999 . S
C4130 H4100 0.950 . S
C4130 C4129 1.524 . S
C4130 C4131 1.415 . S
C4131 H4101 0.950 . S
C4131 C4126 1.363 . S
C4131 C4130 1.415 . S
H4132 C4129 0.999 . S
H4133 C4114 0.913 . S
H4134 C4152 0.951 . S
H4135 C4154 0.951 . S
H4136 C4156 0.950 . S
H4137 C4157 0.950 . S
H4138 C4159 0.950 . S
H4139 C4162 0.950 . S
H4140 C4163 0.950 . S
H4141 C4165 0.950 . S
H4142 C4166 0.950 . S
H4143 C4167 0.951 1_655 S
H4144 C4169 0.951 1_655 S
H4145 C4171 0.950 . S
H4146 C4172 0.950 . S
H4147 C4174 0.950 . S
H4148 C4177 0.950 . S
H4149 C4178 0.950 . S
H4150 C4180 0.950 . S
H4151 C4181 0.950 . S
C4152 H4134 0.951 . S
C4152 C4153 1.366 . S
C4152 C4154 1.388 . S
C4153 C4152 1.366 . S
C4153 C4157 1.385 . S
C4154 H4135 0.951 . S
C4154 C4152 1.388 . S
C4154 C4155 1.366 . S
C4155 C4154 1.366 . S
C4155 C4156 1.414 . S
C4155 C4158 1.499 . S
C4156 H4136 0.950 . S
C4156 C4155 1.414 . S
C4156 C4157 1.374 . S
C4157 H4137 0.950 . S
C4157 C4153 1.385 . S
C4157 C4156 1.374 . S
C4158 C4155 1.499 . S
C4158 C4159 1.373 . S
C4158 C4160 1.389 . S
C4159 H4138 0.950 . S
C4159 C4158 1.373 . S
C4159 C4175 1.377 . S
C4160 C4158 1.389 . S
C4160 C4161 1.524 . S
C4160 C4174 1.377 . S
C4161 C4160 1.524 . S
C4161 C4162 1.397 . S
C4161 C4166 1.363 . S
C4162 H4139 0.950 . S
C4162 C4161 1.397 . S
C4162 C4163 1.334 . S
C4163 H4140 0.950 . S
C4163 C4162 1.334 . S
C4163 C4164 1.287 . S
C4164 C4163 1.287 . S
C4164 C4165 1.524 . S
C4164 H4183 0.913 . S
C4165 H4141 0.950 . S
C4165 C4164 1.524 . S
C4165 C4166 1.415 . S
C4166 H4142 0.950 . S
C4166 C4161 1.363 . S
C4166 C4165 1.415 . S
C4167 H4143 0.951 1_455 S
C4167 C4168 1.366 . S
C4167 C4169 1.388 . S
C4168 C4167 1.366 . S
C4168 C4172 1.385 . S
C4169 H4144 0.951 1_455 S
C4169 C4167 1.388 . S
C4169 C4170 1.366 . S
C4170 C4169 1.366 . S
C4170 C4171 1.414 . S
C4170 C4173 1.499 . S
C4171 H4145 0.950 . S
C4171 C4170 1.414 . S
C4171 C4172 1.374 . S
C4172 H4146 0.950 . S
C4172 C4168 1.385 . S
C4172 C4171 1.374 . S
C4173 C4170 1.499 . S
C4173 C4174 1.373 . S
C4173 C4175 1.389 . S
C4174 H4147 0.950 . S
C4174 C4160 1.377 . S
C4174 C4173 1.373 . S
C4175 C4159 1.377 . S
C4175 C4173 1.389 . S
C4175 C4176 1.524 . S
C4176 C4175 1.524 . S
C4176 C4177 1.397 . S
C4176 C4181 1.363 1_455 S
C4177 H4148 0.950 . S
C4177 C4176 1.397 . S
C4177 C4178 1.334 . S
C4178 H4149 0.950 . S
C4178 C4177 1.334 . S
C4178 C4179 1.287 . S
C4179 C4178 1.287 . S
C4179 C4180 1.524 1_455 S
C4179 H4182 1.011 . S
C4180 H4150 0.950 . S
C4180 C4179 1.524 1_655 S
C4180 C4181 1.415 . S
C4181 H4151 0.950 . S
C4181 C4176 1.363 1_655 S
C4181 C4180 1.415 . S
H4182 C4179 1.011 . S
H4183 C4164 0.913 . S
H4184 C4202 0.951 . S
H4185 C4204 0.951 . S
H4186 C4206 0.950 . S
H4187 C4207 0.950 . S
H4188 C4209 0.950 . S
H4189 C4212 0.950 . S
H4190 C4213 0.950 . S
H4191 C4215 0.950 . S
H4192 C4216 0.950 . S
H4193 C4217 0.951 . S
H4194 C4219 0.951 . S
H4195 C4221 0.950 . S
H4196 C4222 0.950 . S
H4197 C4224 0.950 . S
H4198 C4227 0.950 . S
H4199 C4228 0.950 . S
H4200 C4230 0.950 . S
H4201 C4231 0.950 . S
C4202 H4184 0.951 . S
C4202 C4203 1.366 . S
C4202 C4204 1.388 . S
C4203 C4202 1.366 . S
C4203 C4207 1.385 . S
C4204 H4185 0.951 . S
C4204 C4202 1.388 . S
C4204 C4205 1.366 . S
C4205 C4204 1.366 . S
C4205 C4206 1.414 . S
C4205 C4208 1.499 . S
C4206 H4186 0.950 . S
C4206 C4205 1.414 . S
C4206 C4207 1.374 . S
C4207 H4187 0.950 . S
C4207 C4203 1.385 . S
C4207 C4206 1.374 . S
C4208 C4205 1.499 . S
C4208 C4209 1.373 . S
C4208 C4210 1.389 . S
C4209 H4188 0.950 . S
C4209 C4208 1.373 . S
C4209 C4225 1.377 . S
C4210 C4208 1.389 . S
C4210 C4211 1.524 . S
C4210 C4224 1.377 . S
C4211 C4210 1.524 . S
C4211 C4212 1.397 . S
C4211 C4216 1.363 . S
C4212 H4189 0.950 . S
C4212 C4211 1.397 . S
C4212 C4213 1.334 . S
C4213 H4190 0.950 . S
C4213 C4212 1.334 . S
C4213 C4214 1.287 . S
C4214 C4213 1.287 . S
C4214 C4215 1.524 . S
C4214 H4233 0.913 . S
C4215 H4191 0.950 . S
C4215 C4214 1.524 . S
C4215 C4216 1.415 . S
C4216 H4192 0.950 . S
C4216 C4211 1.363 . S
C4216 C4215 1.415 . S
C4217 H4193 0.951 . S
C4217 C4218 1.366 . S
C4217 C4219 1.388 . S
C4218 C4217 1.366 . S
C4218 C4222 1.385 . S
C4219 H4194 0.951 . S
C4219 C4217 1.388 . S
C4219 C4220 1.366 . S
C4220 C4219 1.366 . S
C4220 C4221 1.414 . S
C4220 C4223 1.499 . S
C4221 H4195 0.950 . S
C4221 C4220 1.414 . S
C4221 C4222 1.374 . S
C4222 H4196 0.950 . S
C4222 C4218 1.385 . S
C4222 C4221 1.374 . S
C4223 C4220 1.499 . S
C4223 C4224 1.373 . S
C4223 C4225 1.389 . S
C4224 H4197 0.950 . S
C4224 C4210 1.377 . S
C4224 C4223 1.373 . S
C4225 C4209 1.377 . S
C4225 C4223 1.389 . S
C4225 C4226 1.524 . S
C4226 C4225 1.524 . S
C4226 C4227 1.397 . S
C4226 C4231 1.363 . S
C4227 H4198 0.950 . S
C4227 C4226 1.397 . S
C4227 C4228 1.334 . S
C4228 H4199 0.950 . S
C4228 C4227 1.334 . S
C4228 C4229 1.287 . S
C4229 C4228 1.287 . S
C4229 C4230 1.524 . S
C4229 H4232 0.999 . S
C4230 H4200 0.950 . S
C4230 C4229 1.524 . S
C4230 C4231 1.415 . S
C4231 H4201 0.950 . S
C4231 C4226 1.363 . S
C4231 C4230 1.415 . S
H4232 C4229 0.999 . S
H4233 C4214 0.913 . S
H4234 C4252 0.951 . S
H4235 C4254 0.951 . S
H4236 C4256 0.950 . S
H4237 C4257 0.950 . S
H4238 C4259 0.950 . S
H4239 C4262 0.950 . S
H4240 C4263 0.950 . S
H4241 C4265 0.950 . S
H4242 C4266 0.950 . S
H4243 C4267 0.951 . S
H4244 C4269 0.951 . S
H4245 C4271 0.950 . S
H4246 C4272 0.950 . S
H4247 C4274 0.942 1_545 S
H4248 C4277 0.950 . S
H4249 C4278 0.950 . S
H4250 C4280 0.950 . S
H4251 C4281 0.950 . S
C4252 H4234 0.951 . S
C4252 C4253 1.366 . S
C4252 C4254 1.388 . S
C4253 C4252 1.366 . S
C4253 C4257 1.385 . S
C4254 H4235 0.951 . S
C4254 C4252 1.388 . S
C4254 C4255 1.366 . S
C4255 C4254 1.366 . S
C4255 C4256 1.414 . S
C4255 C4258 1.499 . S
C4256 H4236 0.950 . S
C4256 C4255 1.414 . S
C4256 C4257 1.374 . S
C4257 H4237 0.950 . S
C4257 C4253 1.385 . S
C4257 C4256 1.374 . S
C4258 C4255 1.499 . S
C4258 C4259 1.373 . S
C4258 C4260 1.389 . S
C4259 H4238 0.950 . S
C4259 C4258 1.373 . S
C4259 C4275 1.377 . S
C4260 C4258 1.389 . S
C4260 C4261 1.524 1_565 S
C4260 C4274 1.377 . S
C4261 C4260 1.524 1_545 S
C4261 C4262 1.397 . S
C4261 C4266 1.363 . S
C4262 H4239 0.950 . S
C4262 C4261 1.397 . S
C4262 C4263 1.334 . S
C4263 H4240 0.950 . S
C4263 C4262 1.334 . S
C4263 C4264 1.287 . S
C4264 C4263 1.287 . S
C4264 C4265 1.524 . S
C4264 H4283 0.913 . S
C4265 H4241 0.950 . S
C4265 C4264 1.524 . S
C4265 C4266 1.415 . S
C4266 H4242 0.950 . S
C4266 C4261 1.363 . S
C4266 C4265 1.415 . S
C4267 H4243 0.951 . S
C4267 C4268 1.366 . S
C4267 C4269 1.388 . S
C4268 C4267 1.366 . S
C4268 C4272 1.385 . S
C4269 H4244 0.951 . S
C4269 C4267 1.388 . S
C4269 C4270 1.366 . S
C4270 C4269 1.366 . S
C4270 C4271 1.414 . S
C4270 C4273 1.499 . S
C4271 H4245 0.950 . S
C4271 C4270 1.414 . S
C4271 C4272 1.374 . S
C4272 H4246 0.950 . S
C4272 C4268 1.385 . S
C4272 C4271 1.374 . S
C4273 C4270 1.499 . S
C4273 C4274 1.373 . S
C4273 C4275 1.389 . S
C4274 H4247 0.942 1_565 S
C4274 C4260 1.377 . S
C4274 C4273 1.373 . S
C4275 C4259 1.377 . S
C4275 C4273 1.389 . S
C4275 C4276 1.524 . S
C4276 C4275 1.524 . S
C4276 C4277 1.397 . S
C4276 C4281 1.363 . S
C4277 H4248 0.950 . S
C4277 C4276 1.397 . S
C4277 C4278 1.334 . S
C4278 H4249 0.950 . S
C4278 C4277 1.334 . S
C4278 C4279 1.287 . S
C4279 C4278 1.287 . S
C4279 C4280 1.524 . S
C4279 H4282 0.999 . S
C4280 H4250 0.950 . S
C4280 C4279 1.524 . S
C4280 C4281 1.415 . S
C4281 H4251 0.950 . S
C4281 C4276 1.363 . S
C4281 C4280 1.415 . S
H4282 C4279 0.999 . S
H4283 C4264 0.913 . S
H4284 C4302 0.951 . S
H4285 C4304 0.951 . S
H4286 C4306 0.950 1_545 S
H4287 C4307 0.950 1_545 S
H4288 C4309 0.950 1_545 S
H4289 C4312 0.950 . S
H4290 C4313 0.950 . S
H4291 C4315 0.950 . S
H4292 C4316 0.950 . S
H4293 C4317 0.951 . S
H4294 C4319 0.951 . S
H4295 C4321 0.950 . S
H4296 C4322 0.950 . S
H4297 C4324 0.950 . S
H4298 C4327 0.950 1_565 S
H4299 C4328 0.950 . S
H4300 C4330 0.950 . S
H4301 C4331 0.950 . S
C4302 H4284 0.951 . S
C4302 C4303 1.366 . S
C4302 C4304 1.388 . S
C4303 C4302 1.366 . S
C4303 C4307 1.385 . S
C4304 H4285 0.951 . S
C4304 C4302 1.388 . S
C4304 C4305 1.366 . S
C4305 C4304 1.366 . S
C4305 C4306 1.414 . S
C4305 C4308 1.499 . S
C4306 H4286 0.950 1_565 S
C4306 C4305 1.414 . S
C4306 C4307 1.374 . S
C4307 H4287 0.950 1_565 S
C4307 C4303 1.385 . S
C4307 C4306 1.374 . S
C4308 C4305 1.499 . S
C4308 C4309 1.373 . S
C4308 C4310 1.389 . S
C4309 H4288 0.950 1_565 S
C4309 C4308 1.373 . S
C4309 C4325 1.372 1_565 S
C4310 C4308 1.389 . S
C4310 C4311 1.524 . S
C4310 C4324 1.377 . S
C4311 C4310 1.524 . S
C4311 C4312 1.397 . S
C4311 C4316 1.363 . S
C4312 H4289 0.950 . S
C4312 C4311 1.397 . S
C4312 C4313 1.334 . S
C4313 H4290 0.950 . S
C4313 C4312 1.334 . S
C4313 C4314 1.287 . S
C4314 C4313 1.287 . S
C4314 C4315 1.524 . S
C4314 H4333 0.913 . S
C4315 H4291 0.950 . S
C4315 C4314 1.524 . S
C4315 C4316 1.415 . S
C4316 H4292 0.950 . S
C4316 C4311 1.363 . S
C4316 C4315 1.415 . S
C4317 H4293 0.951 . S
C4317 C4318 1.366 . S
C4317 C4319 1.388 . S
C4318 C4317 1.366 . S
C4318 C4322 1.385 1_545 S
C4319 H4294 0.951 . S
C4319 C4317 1.388 . S
C4319 C4320 1.366 1_545 S
C4320 C4319 1.366 1_565 S
C4320 C4321 1.414 . S
C4320 C4323 1.499 . S
C4321 H4295 0.950 . S
C4321 C4320 1.414 . S
C4321 C4322 1.374 . S
C4322 H4296 0.950 . S
C4322 C4318 1.385 1_565 S
C4322 C4321 1.374 . S
C4323 C4320 1.499 . S
C4323 C4324 1.373 . S
C4323 C4325 1.387 1_565 S
C4324 H4297 0.950 . S
C4324 C4310 1.377 . S
C4324 C4323 1.373 . S
C4325 C4309 1.372 1_545 S
C4325 C4323 1.387 1_545 S
C4325 C4326 1.531 . S
C4326 C4325 1.531 . S
C4326 C4327 1.397 . S
C4326 C4331 1.363 . S
C4327 H4298 0.950 1_545 S
C4327 C4326 1.397 . S
C4327 C4328 1.334 . S
C4328 H4299 0.950 . S
C4328 C4327 1.334 . S
C4328 C4329 1.287 . S
C4329 C4328 1.287 . S
C4329 C4330 1.524 . S
C4329 H4332 0.999 . S
C4330 H4300 0.950 . S
C4330 C4329 1.524 . S
C4330 C4331 1.415 . S
C4331 H4301 0.950 . S
C4331 C4326 1.363 . S
C4331 C4330 1.415 . S
H4332 C4329 0.999 . S
H4333 C4314 0.913 . S
H4334 C4352 0.951 . S
H4335 C4354 0.951 . S
H4336 C4356 0.950 1_655 S
H4337 C4357 0.955 . S
H4338 C4359 0.945 1_655 S
H4339 C4362 0.950 . S
H4340 C4363 0.950 . S
H4341 C4365 0.950 . S
H4342 C4366 0.950 . S
H4343 C4367 0.951 . S
H4344 C4369 0.951 . S
H4345 C4371 0.950 . S
H4346 C4372 0.950 . S
H4347 C4374 0.950 . S
H4348 C4377 0.959 . S
H4349 C4378 0.950 . S
H4350 C4380 0.950 . S
H4351 C4381 0.950 . S
C4352 H4334 0.951 . S
C4352 C4353 1.366 . S
C4352 C4354 1.388 . S
C4353 C4352 1.366 . S
C4353 C4357 1.385 . S
C4354 H4335 0.951 . S
C4354 C4352 1.388 . S
C4354 C4355 1.366 . S
C4355 C4354 1.366 . S
C4355 C4356 1.414 . S
C4355 C4358 1.499 . S
C4356 H4336 0.950 1_455 S
C4356 C4355 1.414 . S
C4356 C4357 1.374 . S
C4357 H4337 0.955 . S
C4357 C4353 1.385 . S
C4357 C4356 1.374 . S
C4358 C4355 1.499 . S
C4358 C4359 1.373 . S
C4358 C4360 1.389 . S
C4359 H4338 0.945 1_455 S
C4359 C4358 1.373 . S
C4359 C4375 1.377 . S
C4360 C4358 1.389 . S
C4360 C4361 1.524 . S
C4360 C4374 1.377 . S
C4361 C4360 1.524 . S
C4361 C4362 1.397 . S
C4361 C4366 1.363 . S
C4362 H4339 0.950 . S
C4362 C4361 1.397 . S
C4362 C4363 1.334 . S
C4363 H4340 0.950 . S
C4363 C4362 1.334 . S
C4363 C4364 1.287 . S
C4364 C4363 1.287 . S
C4364 C4365 1.524 . S
C4364 H4383 0.913 . S
C4365 H4341 0.950 . S
C4365 C4364 1.524 . S
C4365 C4366 1.415 . S
C4366 H4342 0.950 . S
C4366 C4361 1.363 . S
C4366 C4365 1.415 . S
C4367 H4343 0.951 . S
C4367 C4368 1.366 . S
C4367 C4369 1.388 . S
C4368 C4367 1.366 . S
C4368 C4372 1.385 1_655 S
C4369 H4344 0.951 . S
C4369 C4367 1.388 . S
C4369 C4370 1.366 1_655 S
C4370 C4369 1.366 1_455 S
C4370 C4371 1.414 . S
C4370 C4373 1.499 . S
C4371 H4345 0.950 . S
C4371 C4370 1.414 . S
C4371 C4372 1.374 . S
C4372 H4346 0.950 . S
C4372 C4368 1.385 1_455 S
C4372 C4371 1.374 . S
C4373 C4370 1.499 . S
C4373 C4374 1.373 . S
C4373 C4375 1.389 . S
C4374 H4347 0.950 . S
C4374 C4360 1.377 . S
C4374 C4373 1.373 . S
C4375 C4359 1.377 . S
C4375 C4373 1.389 . S
C4375 C4376 1.524 1_455 S
C4376 C4375 1.524 1_655 S
C4376 C4377 1.388 1_655 S
C4376 C4381 1.363 . S
C4377 H4348 0.959 . S
C4377 C4376 1.388 1_455 S
C4377 C4378 1.334 1_455 S
C4378 H4349 0.950 . S
C4378 C4377 1.334 1_655 S
C4378 C4379 1.287 . S
C4379 C4378 1.287 . S
C4379 C4380 1.524 . S
C4379 H4382 0.999 . S
C4380 H4350 0.950 . S
C4380 C4379 1.524 . S
C4380 C4381 1.415 . S
C4381 H4351 0.950 . S
C4381 C4376 1.363 . S
C4381 C4380 1.415 . S
H4382 C4379 0.999 . S
H4383 C4364 0.913 . S
H4384 C4402 0.951 . S
H4385 C4404 0.951 . S
H4386 C4406 0.950 . S
H4387 C4407 0.950 . S
H4388 C4409 0.950 . S
H4389 C4412 0.950 . S
H4390 C4413 0.950 . S
H4391 C4415 0.950 . S
H4392 C4416 0.950 . S
H4393 C4417 0.951 . S
H4394 C4419 0.951 . S
H4395 C4421 0.950 . S
H4396 C4422 0.950 . S
H4397 C4424 0.950 . S
H4398 C4427 0.950 . S
H4399 C4428 0.950 . S
H4400 C4430 0.950 . S
H4401 C4431 0.950 . S
C4402 H4384 0.951 . S
C4402 C4403 1.366 . S
C4402 C4404 1.388 . S
C4403 C4402 1.366 . S
C4403 C4407 1.385 . S
C4404 H4385 0.951 . S
C4404 C4402 1.388 . S
C4404 C4405 1.366 . S
C4405 C4404 1.366 . S
C4405 C4406 1.414 . S
C4405 C4408 1.499 . S
C4406 H4386 0.950 . S
C4406 C4405 1.414 . S
C4406 C4407 1.374 . S
C4407 H4387 0.950 . S
C4407 C4403 1.385 . S
C4407 C4406 1.374 . S
C4408 C4405 1.499 . S
C4408 C4409 1.373 . S
C4408 C4410 1.389 . S
C4409 H4388 0.950 . S
C4409 C4408 1.373 . S
C4409 C4425 1.377 . S
C4410 C4408 1.389 . S
C4410 C4411 1.524 . S
C4410 C4424 1.377 . S
C4411 C4410 1.524 . S
C4411 C4412 1.397 . S
C4411 C4416 1.363 . S
C4412 H4389 0.950 . S
C4412 C4411 1.397 . S
C4412 C4413 1.334 . S
C4413 H4390 0.950 . S
C4413 C4412 1.334 . S
C4413 C4414 1.287 . S
C4414 C4413 1.287 . S
C4414 C4415 1.524 . S
C4414 H4433 0.913 . S
C4415 H4391 0.950 . S
C4415 C4414 1.524 . S
C4415 C4416 1.415 . S
C4416 H4392 0.950 . S
C4416 C4411 1.363 . S
C4416 C4415 1.415 . S
C4417 H4393 0.951 . S
C4417 C4418 1.366 . S
C4417 C4419 1.388 . S
C4418 C4417 1.366 . S
C4418 C4422 1.385 . S
C4419 H4394 0.951 . S
C4419 C4417 1.388 . S
C4419 C4420 1.366 . S
C4420 C4419 1.366 . S
C4420 C4421 1.414 . S
C4420 C4423 1.499 . S
C4421 H4395 0.950 . S
C4421 C4420 1.414 . S
C4421 C4422 1.374 . S
C4422 H4396 0.950 . S
C4422 C4418 1.385 . S
C4422 C4421 1.374 . S
C4423 C4420 1.499 . S
C4423 C4424 1.373 . S
C4423 C4425 1.389 . S
C4424 H4397 0.950 . S
C4424 C4410 1.377 . S
C4424 C4423 1.373 . S
C4425 C4409 1.377 . S
C4425 C4423 1.389 . S
C4425 C4426 1.524 . S
C4426 C4425 1.524 . S
C4426 C4427 1.397 . S
C4426 C4431 1.363 . S
C4427 H4398 0.950 . S
C4427 C4426 1.397 . S
C4427 C4428 1.334 . S
C4428 H4399 0.950 . S
C4428 C4427 1.334 . S
C4428 C4429 1.287 . S
C4429 C4428 1.287 . S
C4429 C4430 1.524 . S
C4429 H4432 0.999 . S
C4430 H4400 0.950 . S
C4430 C4429 1.524 . S
C4430 C4431 1.415 . S
C4431 H4401 0.950 . S
C4431 C4426 1.363 . S
C4431 C4430 1.415 . S
H4432 C4429 0.999 . S
H4433 C4414 0.913 . S
H4434 C4452 0.951 . S
H4435 C4454 0.951 . S
H4436 C4456 0.950 . S
H4437 C4457 0.950 . S
H4438 C4459 0.950 . S
H4439 C4462 0.950 . S
H4440 C4463 0.950 . S
H4441 C4465 0.950 . S
H4442 C4466 0.950 . S
H4443 C4467 0.951 . S
H4444 C4469 0.951 . S
H4445 C4471 0.950 . S
H4446 C4472 0.950 . S
H4447 C4474 0.950 . S
H4448 C4477 0.950 . S
H4449 C4478 0.950 . S
H4450 C4480 0.950 . S
H4451 C4481 0.950 . S
C4452 H4434 0.951 . S
C4452 C4453 1.366 . S
C4452 C4454 1.388 . S
C4453 C4452 1.366 . S
C4453 C4457 1.385 . S
C4454 H4435 0.951 . S
C4454 C4452 1.388 . S
C4454 C4455 1.366 . S
C4455 C4454 1.366 . S
C4455 C4456 1.414 . S
C4455 C4458 1.499 . S
C4456 H4436 0.950 . S
C4456 C4455 1.414 . S
C4456 C4457 1.374 . S
C4457 H4437 0.950 . S
C4457 C4453 1.385 . S
C4457 C4456 1.374 . S
C4458 C4455 1.499 . S
C4458 C4459 1.373 . S
C4458 C4460 1.389 . S
C4459 H4438 0.950 . S
C4459 C4458 1.373 . S
C4459 C4475 1.377 . S
C4460 C4458 1.389 . S
C4460 C4461 1.524 . S
C4460 C4474 1.377 . S
C4461 C4460 1.524 . S
C4461 C4462 1.397 . S
C4461 C4466 1.363 . S
C4462 H4439 0.950 . S
C4462 C4461 1.397 . S
C4462 C4463 1.334 . S
C4463 H4440 0.950 . S
C4463 C4462 1.334 . S
C4463 C4464 1.287 . S
C4464 C4463 1.287 . S
C4464 C4465 1.524 . S
C4464 H4483 0.913 . S
C4465 H4441 0.950 . S
C4465 C4464 1.524 . S
C4465 C4466 1.415 . S
C4466 H4442 0.950 . S
C4466 C4461 1.363 . S
C4466 C4465 1.415 . S
C4467 H4443 0.951 . S
C4467 C4468 1.366 . S
C4467 C4469 1.388 . S
C4468 C4467 1.366 . S
C4468 C4472 1.385 . S
C4469 H4444 0.951 . S
C4469 C4467 1.388 . S
C4469 C4470 1.366 . S
C4470 C4469 1.366 . S
C4470 C4471 1.414 . S
C4470 C4473 1.499 . S
C4471 H4445 0.950 . S
C4471 C4470 1.414 . S
C4471 C4472 1.374 . S
C4472 H4446 0.950 . S
C4472 C4468 1.385 . S
C4472 C4471 1.374 . S
C4473 C4470 1.499 . S
C4473 C4474 1.373 . S
C4473 C4475 1.389 . S
C4474 H4447 0.950 . S
C4474 C4460 1.377 . S
C4474 C4473 1.373 . S
C4475 C4459 1.377 . S
C4475 C4473 1.389 . S
C4475 C4476 1.524 . S
C4476 C4475 1.524 . S
C4476 C4477 1.397 . S
C4476 C4481 1.363 . S
C4477 H4448 0.950 . S
C4477 C4476 1.397 . S
C4477 C4478 1.334 . S
C4478 H4449 0.950 . S
C4478 C4477 1.334 . S
C4478 C4479 1.287 . S
C4479 C4478 1.287 . S
C4479 C4480 1.524 . S
C4479 H4482 0.999 . S
C4480 H4450 0.950 . S
C4480 C4479 1.524 . S
C4480 C4481 1.415 . S
C4481 H4451 0.950 . S
C4481 C4476 1.363 . S
C4481 C4480 1.415 . S
H4482 C4479 0.999 . S
H4483 C4464 0.913 . S
H4484 C4502 0.951 . S
H4485 C4504 0.951 . S
H4486 C4506 0.950 . S
H4487 C4507 0.950 . S
H4488 C4509 0.950 . S
H4489 C4512 0.950 . S
H4490 C4513 0.950 . S
H4491 C4515 0.950 . S
H4492 C4516 0.950 . S
H4493 C4517 0.951 . S
H4494 C4519 0.951 . S
H4495 C4521 0.950 . S
H4496 C4522 0.950 . S
H4497 C4524 0.950 . S
H4498 C4527 0.950 . S
H4499 C4528 0.950 . S
H4500 C4530 0.950 . S
H4501 C4531 0.950 . S
C4502 H4484 0.951 . S
C4502 C4503 1.366 . S
C4502 C4504 1.388 . S
C4503 C4502 1.366 . S
C4503 C4507 1.385 . S
C4504 H4485 0.951 . S
C4504 C4502 1.388 . S
C4504 C4505 1.366 . S
C4505 C4504 1.366 . S
C4505 C4506 1.414 . S
C4505 C4508 1.499 . S
C4506 H4486 0.950 . S
C4506 C4505 1.414 . S
C4506 C4507 1.374 . S
C4507 H4487 0.950 . S
C4507 C4503 1.385 . S
C4507 C4506 1.374 . S
C4508 C4505 1.499 . S
C4508 C4509 1.373 . S
C4508 C4510 1.389 . S
C4509 H4488 0.950 . S
C4509 C4508 1.373 . S
C4509 C4525 1.377 . S
C4510 C4508 1.389 . S
C4510 C4511 1.524 . S
C4510 C4524 1.377 . S
C4511 C4510 1.524 . S
C4511 C4512 1.397 . S
C4511 C4516 1.363 . S
C4512 H4489 0.950 . S
C4512 C4511 1.397 . S
C4512 C4513 1.334 . S
C4513 H4490 0.950 . S
C4513 C4512 1.334 . S
C4513 C4514 1.287 . S
C4514 C4513 1.287 . S
C4514 C4515 1.524 . S
C4514 H4533 0.913 . S
C4515 H4491 0.950 . S
C4515 C4514 1.524 . S
C4515 C4516 1.415 . S
C4516 H4492 0.950 . S
C4516 C4511 1.363 . S
C4516 C4515 1.415 . S
C4517 H4493 0.951 . S
C4517 C4518 1.366 . S
C4517 C4519 1.388 . S
C4518 C4517 1.366 . S
C4518 C4522 1.385 . S
C4519 H4494 0.951 . S
C4519 C4517 1.388 . S
C4519 C4520 1.366 . S
C4520 C4519 1.366 . S
C4520 C4521 1.414 . S
C4520 C4523 1.499 . S
C4521 H4495 0.950 . S
C4521 C4520 1.414 . S
C4521 C4522 1.374 . S
C4522 H4496 0.950 . S
C4522 C4518 1.385 . S
C4522 C4521 1.374 . S
C4523 C4520 1.499 . S
C4523 C4524 1.373 . S
C4523 C4525 1.389 . S
C4524 H4497 0.950 . S
C4524 C4510 1.377 . S
C4524 C4523 1.373 . S
C4525 C4509 1.377 . S
C4525 C4523 1.389 . S
C4525 C4526 1.524 . S
C4526 C4525 1.524 . S
C4526 C4527 1.397 . S
C4526 C4531 1.363 . S
C4527 H4498 0.950 . S
C4527 C4526 1.397 . S
C4527 C4528 1.334 . S
C4528 H4499 0.950 . S
C4528 C4527 1.334 . S
C4528 C4529 1.287 . S
C4529 C4528 1.287 . S
C4529 C4530 1.524 . S
C4529 H4532 0.999 . S
C4530 H4500 0.950 . S
C4530 C4529 1.524 . S
C4530 C4531 1.415 . S
C4531 H4501 0.950 . S
C4531 C4526 1.363 . S
C4531 C4530 1.415 . S
H4532 C4529 0.999 . S
H4533 C4514 0.913 . S
H4534 C4552 0.951 . S
H4535 C4554 0.951 . S
H4536 C4556 0.950 . S
H4537 C4557 0.950 . S
H4538 C4559 0.950 . S
H4539 C4562 0.950 . S
H4540 C4563 0.950 . S
H4541 C4565 0.950 . S
H4542 C4566 0.950 . S
H4543 C4567 0.951 . S
H4544 C4569 0.951 . S
H4545 C4571 0.950 . S
H4546 C4572 0.950 . S
H4547 C4574 0.950 . S
H4548 C4577 0.950 . S
H4549 C4578 0.950 . S
H4550 C4580 0.950 . S
H4551 C4581 0.950 . S
C4552 H4534 0.951 . S
C4552 C4553 1.366 . S
C4552 C4554 1.388 . S
C4553 C4552 1.366 . S
C4553 C4557 1.385 . S
C4554 H4535 0.951 . S
C4554 C4552 1.388 . S
C4554 C4555 1.366 . S
C4555 C4554 1.366 . S
C4555 C4556 1.414 . S
C4555 C4558 1.499 . S
C4556 H4536 0.950 . S
C4556 C4555 1.414 . S
C4556 C4557 1.374 . S
C4557 H4537 0.950 . S
C4557 C4553 1.385 . S
C4557 C4556 1.374 . S
C4558 C4555 1.499 . S
C4558 C4559 1.373 . S
C4558 C4560 1.389 . S
C4559 H4538 0.950 . S
C4559 C4558 1.373 . S
C4559 C4575 1.377 . S
C4560 C4558 1.389 . S
C4560 C4561 1.524 . S
C4560 C4574 1.377 . S
C4561 C4560 1.524 . S
C4561 C4562 1.397 . S
C4561 C4566 1.363 . S
C4562 H4539 0.950 . S
C4562 C4561 1.397 . S
C4562 C4563 1.334 . S
C4563 H4540 0.950 . S
C4563 C4562 1.334 . S
C4563 C4564 1.287 . S
C4564 C4563 1.287 . S
C4564 C4565 1.524 . S
C4564 H4583 0.913 . S
C4565 H4541 0.950 . S
C4565 C4564 1.524 . S
C4565 C4566 1.415 . S
C4566 H4542 0.950 . S
C4566 C4561 1.363 . S
C4566 C4565 1.415 . S
C4567 H4543 0.951 . S
C4567 C4568 1.366 . S
C4567 C4569 1.388 . S
C4568 C4567 1.366 . S
C4568 C4572 1.385 . S
C4569 H4544 0.951 . S
C4569 C4567 1.388 . S
C4569 C4570 1.366 . S
C4570 C4569 1.366 . S
C4570 C4571 1.414 . S
C4570 C4573 1.499 . S
C4571 H4545 0.950 . S
C4571 C4570 1.414 . S
C4571 C4572 1.374 . S
C4572 H4546 0.950 . S
C4572 C4568 1.385 . S
C4572 C4571 1.374 . S
C4573 C4570 1.499 . S
C4573 C4574 1.373 . S
C4573 C4575 1.389 . S
C4574 H4547 0.950 . S
C4574 C4560 1.377 . S
C4574 C4573 1.373 . S
C4575 C4559 1.377 . S
C4575 C4573 1.389 . S
C4575 C4576 1.524 . S
C4576 C4575 1.524 . S
C4576 C4577 1.397 . S
C4576 C4581 1.363 . S
C4577 H4548 0.950 . S
C4577 C4576 1.397 . S
C4577 C4578 1.334 . S
C4578 H4549 0.950 . S
C4578 C4577 1.334 . S
C4578 C4579 1.287 . S
C4579 C4578 1.287 . S
C4579 C4580 1.524 . S
C4579 H4582 0.999 . S
C4580 H4550 0.950 . S
C4580 C4579 1.524 . S
C4580 C4581 1.415 . S
C4581 H4551 0.950 . S
C4581 C4576 1.363 . S
C4581 C4580 1.415 . S
H4582 C4579 0.999 . S
H4583 C4564 0.913 . S
H4584 C4602 0.951 . S
H4585 C4604 0.951 . S
H4586 C4606 0.950 . S
H4587 C4607 0.950 . S
H4588 C4609 0.950 . S
H4589 C4612 0.950 . S
H4590 C4613 0.950 . S
H4591 C4615 0.950 . S
H4592 C4616 0.950 . S
H4593 C4617 0.951 . S
H4594 C4619 0.951 . S
H4595 C4621 0.950 . S
H4596 C4622 0.950 . S
H4597 C4624 0.950 . S
H4598 C4627 0.950 . S
H4599 C4628 0.950 . S
H4600 C4630 0.950 . S
H4601 C4631 0.950 1_545 S
C4602 H4584 0.951 . S
C4602 C4603 1.366 . S
C4602 C4604 1.388 . S
C4603 C4602 1.366 . S
C4603 C4607 1.385 . S
C4604 H4585 0.951 . S
C4604 C4602 1.388 . S
C4604 C4605 1.366 . S
C4605 C4604 1.366 . S
C4605 C4606 1.414 . S
C4605 C4608 1.499 . S
C4606 H4586 0.950 . S
C4606 C4605 1.414 . S
C4606 C4607 1.374 . S
C4607 H4587 0.950 . S
C4607 C4603 1.385 . S
C4607 C4606 1.374 . S
C4608 C4605 1.499 . S
C4608 C4609 1.373 . S
C4608 C4610 1.389 . S
C4609 H4588 0.950 . S
C4609 C4608 1.373 . S
C4609 C4625 1.377 . S
C4610 C4608 1.389 . S
C4610 C4611 1.524 . S
C4610 C4624 1.377 . S
C4611 C4610 1.524 . S
C4611 C4612 1.397 . S
C4611 C4616 1.363 . S
C4612 H4589 0.950 . S
C4612 C4611 1.397 . S
C4612 C4613 1.334 . S
C4613 H4590 0.950 . S
C4613 C4612 1.334 . S
C4613 C4614 1.287 . S
C4614 C4613 1.287 . S
C4614 C4615 1.524 . S
C4614 H4633 0.913 . S
C4615 H4591 0.950 . S
C4615 C4614 1.524 . S
C4615 C4616 1.415 . S
C4616 H4592 0.950 . S
C4616 C4611 1.363 . S
C4616 C4615 1.415 . S
C4617 H4593 0.951 . S
C4617 C4618 1.366 . S
C4617 C4619 1.388 . S
C4618 C4617 1.366 . S
C4618 C4622 1.385 . S
C4619 H4594 0.951 . S
C4619 C4617 1.388 . S
C4619 C4620 1.366 . S
C4620 C4619 1.366 . S
C4620 C4621 1.414 . S
C4620 C4623 1.499 . S
C4621 H4595 0.950 . S
C4621 C4620 1.414 . S
C4621 C4622 1.374 . S
C4622 H4596 0.950 . S
C4622 C4618 1.385 . S
C4622 C4621 1.374 . S
C4623 C4620 1.499 . S
C4623 C4624 1.373 . S
C4623 C4625 1.389 . S
C4624 H4597 0.950 . S
C4624 C4610 1.377 . S
C4624 C4623 1.373 . S
C4625 C4609 1.377 . S
C4625 C4623 1.389 . S
C4625 C4626 1.524 1_545 S
C4626 C4625 1.524 1_565 S
C4626 C4627 1.397 . S
C4626 C4631 1.363 . S
C4627 H4598 0.950 . S
C4627 C4626 1.397 . S
C4627 C4628 1.334 . S
C4628 H4599 0.950 . S
C4628 C4627 1.334 . S
C4628 C4629 1.287 . S
C4629 C4628 1.287 . S
C4629 C4630 1.524 . S
C4629 H4632 0.999 . S
C4630 H4600 0.950 . S
C4630 C4629 1.524 . S
C4630 C4631 1.415 . S
C4631 H4601 0.950 1_565 S
C4631 C4626 1.363 . S
C4631 C4630 1.415 . S
H4632 C4629 0.999 . S
H4633 C4614 0.913 . S
H4634 C4652 0.951 . S
H4635 C4654 0.951 . S
H4636 C4656 0.950 1_455 S
H4637 C4657 0.972 . S
H4638 C4659 0.950 1_455 S
H4639 C4662 0.950 . S
H4640 C4663 0.950 . S
H4641 C4665 0.950 . S
H4642 C4666 0.950 . S
H4643 C4667 0.951 . S
H4644 C4669 1.006 . S
H4645 C4671 0.950 . S
H4646 C4672 0.950 . S
H4647 C4674 0.950 . S
H4648 C4677 0.950 1_655 S
H4649 C4678 0.950 . S
H4650 C4680 0.950 . S
H4651 C4681 0.950 . S
C4652 H4634 0.951 . S
C4652 C4653 1.366 . S
C4652 C4654 1.388 . S
C4653 C4652 1.366 . S
C4653 C4657 1.385 . S
C4654 H4635 0.951 . S
C4654 C4652 1.388 . S
C4654 C4655 1.366 . S
C4655 C4654 1.366 . S
C4655 C4656 1.414 . S
C4655 C4658 1.499 . S
C4656 H4636 0.950 1_655 S
C4656 C4655 1.414 . S
C4656 C4657 1.374 . S
C4657 H4637 0.972 . S
C4657 C4653 1.385 . S
C4657 C4656 1.374 . S
C4658 C4655 1.499 . S
C4658 C4659 1.373 . S
C4658 C4660 1.389 . S
C4659 H4638 0.950 1_655 S
C4659 C4658 1.373 . S
C4659 C4675 1.377 . S
C4660 C4658 1.389 . S
C4660 C4661 1.524 . S
C4660 C4674 1.377 . S
C4661 C4660 1.524 . S
C4661 C4662 1.397 . S
C4661 C4666 1.363 . S
C4662 H4639 0.950 . S
C4662 C4661 1.397 . S
C4662 C4663 1.334 . S
C4663 H4640 0.950 . S
C4663 C4662 1.334 . S
C4663 C4664 1.287 . S
C4664 C4663 1.287 . S
C4664 C4665 1.524 . S
C4664 H4683 0.913 . S
C4665 H4641 0.950 . S
C4665 C4664 1.524 . S
C4665 C4666 1.415 . S
C4666 H4642 0.950 . S
C4666 C4661 1.363 . S
C4666 C4665 1.415 . S
C4667 H4643 0.951 . S
C4667 C4668 1.366 1_455 S
C4667 C4669 1.365 . S
C4668 C4667 1.366 1_655 S
C4668 C4672 1.385 . S
C4669 H4644 1.006 . S
C4669 C4667 1.365 . S
C4669 C4670 1.336 1_455 S
C4670 C4669 1.336 1_655 S
C4670 C4671 1.414 . S
C4670 C4673 1.499 . S
C4671 H4645 0.950 . S
C4671 C4670 1.414 . S
C4671 C4672 1.374 . S
C4672 H4646 0.950 . S
C4672 C4668 1.385 . S
C4672 C4671 1.374 . S
C4673 C4670 1.499 . S
C4673 C4674 1.373 . S
C4673 C4675 1.389 . S
C4674 H4647 0.950 . S
C4674 C4660 1.377 . S
C4674 C4673 1.373 . S
C4675 C4659 1.377 . S
C4675 C4673 1.389 . S
C4675 C4676 1.524 1_655 S
C4676 C4675 1.524 1_455 S
C4676 C4677 1.397 . S
C4676 C4681 1.363 . S
C4677 H4648 0.950 1_455 S
C4677 C4676 1.397 . S
C4677 C4678 1.334 . S
C4678 H4649 0.950 . S
C4678 C4677 1.334 . S
C4678 C4679 1.287 . S
C4679 C4678 1.287 . S
C4679 C4680 1.524 . S
C4679 H4682 0.999 . S
C4680 H4650 0.950 . S
C4680 C4679 1.524 . S
C4680 C4681 1.415 . S
C4681 H4651 0.950 . S
C4681 C4676 1.363 . S
C4681 C4680 1.415 . S
H4682 C4679 0.999 . S
H4683 C4664 0.913 . S
H4684 C4702 0.951 . S
H4685 C4704 0.951 . S
H4686 C4706 0.950 . S
H4687 C4707 0.950 . S
H4688 C4709 0.950 . S
H4689 C4712 0.950 . S
H4690 C4713 0.950 . S
H4691 C4715 0.950 . S
H4692 C4716 0.950 . S
H4693 C4717 0.951 . S
H4694 C4719 0.951 . S
H4695 C4721 0.950 . S
H4696 C4722 0.950 . S
H4697 C4724 0.950 . S
H4698 C4727 0.950 . S
H4699 C4728 0.950 . S
H4700 C4730 0.950 . S
H4701 C4731 0.950 . S
C4702 H4684 0.951 . S
C4702 C4703 1.366 . S
C4702 C4704 1.388 . S
C4703 C4702 1.366 . S
C4703 C4707 1.385 . S
C4704 H4685 0.951 . S
C4704 C4702 1.388 . S
C4704 C4705 1.366 . S
C4705 C4704 1.366 . S
C4705 C4706 1.414 . S
C4705 C4708 1.499 . S
C4706 H4686 0.950 . S
C4706 C4705 1.414 . S
C4706 C4707 1.374 . S
C4707 H4687 0.950 . S
C4707 C4703 1.385 . S
C4707 C4706 1.374 . S
C4708 C4705 1.499 . S
C4708 C4709 1.373 . S
C4708 C4710 1.389 . S
C4709 H4688 0.950 . S
C4709 C4708 1.373 . S
C4709 C4725 1.377 . S
C4710 C4708 1.389 . S
C4710 C4711 1.524 . S
C4710 C4724 1.377 . S
C4711 C4710 1.524 . S
C4711 C4712 1.397 . S
C4711 C4716 1.363 . S
C4712 H4689 0.950 . S
C4712 C4711 1.397 . S
C4712 C4713 1.334 . S
C4713 H4690 0.950 . S
C4713 C4712 1.334 . S
C4713 C4714 1.287 . S
C4714 C4713 1.287 . S
C4714 C4715 1.524 . S
C4714 H4733 0.913 . S
C4715 H4691 0.950 . S
C4715 C4714 1.524 . S
C4715 C4716 1.415 . S
C4716 H4692 0.950 . S
C4716 C4711 1.363 . S
C4716 C4715 1.415 . S
C4717 H4693 0.951 . S
C4717 C4718 1.366 . S
C4717 C4719 1.388 . S
C4718 C4717 1.366 . S
C4718 C4722 1.385 . S
C4719 H4694 0.951 . S
C4719 C4717 1.388 . S
C4719 C4720 1.366 . S
C4720 C4719 1.366 . S
C4720 C4721 1.414 . S
C4720 C4723 1.499 . S
C4721 H4695 0.950 . S
C4721 C4720 1.414 . S
C4721 C4722 1.374 . S
C4722 H4696 0.950 . S
C4722 C4718 1.385 . S
C4722 C4721 1.374 . S
C4723 C4720 1.499 . S
C4723 C4724 1.373 . S
C4723 C4725 1.389 . S
C4724 H4697 0.950 . S
C4724 C4710 1.377 . S
C4724 C4723 1.373 . S
C4725 C4709 1.377 . S
C4725 C4723 1.389 . S
C4725 C4726 1.524 . S
C4726 C4725 1.524 . S
C4726 C4727 1.397 . S
C4726 C4731 1.363 . S
C4727 H4698 0.950 . S
C4727 C4726 1.397 . S
C4727 C4728 1.334 . S
C4728 H4699 0.950 . S
C4728 C4727 1.334 . S
C4728 C4729 1.287 . S
C4729 C4728 1.287 . S
C4729 C4730 1.524 . S
C4729 H4732 0.999 . S
C4730 H4700 0.950 . S
C4730 C4729 1.524 . S
C4730 C4731 1.415 . S
C4731 H4701 0.950 . S
C4731 C4726 1.363 . S
C4731 C4730 1.415 . S
H4732 C4729 0.999 . S
H4733 C4714 0.913 . S
H4734 C4752 0.951 . S
H4735 C4754 0.951 . S
H4736 C4756 0.950 . S
H4737 C4757 0.950 . S
H4738 C4759 0.950 . S
H4739 C4762 0.950 . S
H4740 C4763 0.950 . S
H4741 C4765 0.950 . S
H4742 C4766 0.950 . S
H4743 C4767 0.951 . S
H4744 C4769 0.951 . S
H4745 C4771 0.950 . S
H4746 C4772 0.950 . S
H4747 C4774 0.950 . S
H4748 C4777 0.950 . S
H4749 C4778 0.950 . S
H4750 C4780 0.950 . S
H4751 C4781 0.950 . S
C4752 H4734 0.951 . S
C4752 C4753 1.366 . S
C4752 C4754 1.388 . S
C4753 C4752 1.366 . S
C4753 C4757 1.385 . S
C4754 H4735 0.951 . S
C4754 C4752 1.388 . S
C4754 C4755 1.366 . S
C4755 C4754 1.366 . S
C4755 C4756 1.414 . S
C4755 C4758 1.499 . S
C4756 H4736 0.950 . S
C4756 C4755 1.414 . S
C4756 C4757 1.374 . S
C4757 H4737 0.950 . S
C4757 C4753 1.385 . S
C4757 C4756 1.374 . S
C4758 C4755 1.499 . S
C4758 C4759 1.373 . S
C4758 C4760 1.389 . S
C4759 H4738 0.950 . S
C4759 C4758 1.373 . S
C4759 C4775 1.377 . S
C4760 C4758 1.389 . S
C4760 C4761 1.524 . S
C4760 C4774 1.377 . S
C4761 C4760 1.524 . S
C4761 C4762 1.397 . S
C4761 C4766 1.363 . S
C4762 H4739 0.950 . S
C4762 C4761 1.397 . S
C4762 C4763 1.334 . S
C4763 H4740 0.950 . S
C4763 C4762 1.334 . S
C4763 C4764 1.287 . S
C4764 C4763 1.287 . S
C4764 C4765 1.524 . S
C4764 H4783 0.913 . S
C4765 H4741 0.950 . S
C4765 C4764 1.524 . S
C4765 C4766 1.415 . S
C4766 H4742 0.950 . S
C4766 C4761 1.363 . S
C4766 C4765 1.415 . S
C4767 H4743 0.951 . S
C4767 C4768 1.366 . S
C4767 C4769 1.388 . S
C4768 C4767 1.366 . S
C4768 C4772 1.385 . S
C4769 H4744 0.951 . S
C4769 C4767 1.388 . S
C4769 C4770 1.366 . S
C4770 C4769 1.366 . S
C4770 C4771 1.414 . S
C4770 C4773 1.499 . S
C4771 H4745 0.950 . S
C4771 C4770 1.414 . S
C4771 C4772 1.374 . S
C4772 H4746 0.950 . S
C4772 C4768 1.385 . S
C4772 C4771 1.374 . S
C4773 C4770 1.499 . S
C4773 C4774 1.373 . S
C4773 C4775 1.389 . S
C4774 H4747 0.950 . S
C4774 C4760 1.377 . S
C4774 C4773 1.373 . S
C4775 C4759 1.377 . S
C4775 C4773 1.389 . S
C4775 C4776 1.524 . S
C4776 C4775 1.524 . S
C4776 C4777 1.397 . S
C4776 C4781 1.363 . S
C4777 H4748 0.950 . S
C4777 C4776 1.397 . S
C4777 C4778 1.334 . S
C4778 H4749 0.950 . S
C4778 C4777 1.334 . S
C4778 C4779 1.287 . S
C4779 C4778 1.287 . S
C4779 C4780 1.524 . S
C4779 H4782 0.999 . S
C4780 H4750 0.950 . S
C4780 C4779 1.524 . S
C4780 C4781 1.415 . S
C4781 H4751 0.950 . S
C4781 C4776 1.363 . S
C4781 C4780 1.415 . S
H4782 C4779 0.999 . S
H4783 C4764 0.913 . S
H4784 C4802 0.951 . S
H4785 C4804 0.951 . S
H4786 C4806 0.950 . S
H4787 C4807 0.950 . S
H4788 C4809 0.950 . S
H4789 C4812 0.950 . S
H4790 C4813 0.950 . S
H4791 C4815 0.950 . S
H4792 C4816 0.950 . S
H4793 C4817 0.951 . S
H4794 C4819 0.951 . S
H4795 C4821 0.950 . S
H4796 C4822 0.950 . S
H4797 C4824 0.950 . S
H4798 C4827 0.950 . S
H4799 C4828 0.950 . S
H4800 C4830 0.950 . S
H4801 C4831 0.950 . S
C4802 H4784 0.951 . S
C4802 C4803 1.366 . S
C4802 C4804 1.388 . S
C4803 C4802 1.366 . S
C4803 C4807 1.385 . S
C4804 H4785 0.951 . S
C4804 C4802 1.388 . S
C4804 C4805 1.366 . S
C4805 C4804 1.366 . S
C4805 C4806 1.414 . S
C4805 C4808 1.499 . S
C4806 H4786 0.950 . S
C4806 C4805 1.414 . S
C4806 C4807 1.374 . S
C4807 H4787 0.950 . S
C4807 C4803 1.385 . S
C4807 C4806 1.374 . S
C4808 C4805 1.499 . S
C4808 C4809 1.373 . S
C4808 C4810 1.389 . S
C4809 H4788 0.950 . S
C4809 C4808 1.373 . S
C4809 C4825 1.377 . S
C4810 C4808 1.389 . S
C4810 C4811 1.524 . S
C4810 C4824 1.377 . S
C4811 C4810 1.524 . S
C4811 C4812 1.397 . S
C4811 C4816 1.363 . S
C4812 H4789 0.950 . S
C4812 C4811 1.397 . S
C4812 C4813 1.334 . S
C4813 H4790 0.950 . S
C4813 C4812 1.334 . S
C4813 C4814 1.287 . S
C4814 C4813 1.287 . S
C4814 C4815 1.524 . S
C4814 H4833 0.913 . S
C4815 H4791 0.950 . S
C4815 C4814 1.524 . S
C4815 C4816 1.415 . S
C4816 H4792 0.950 . S
C4816 C4811 1.363 . S
C4816 C4815 1.415 . S
C4817 H4793 0.951 . S
C4817 C4818 1.366 . S
C4817 C4819 1.388 . S
C4818 C4817 1.366 . S
C4818 C4822 1.385 . S
C4819 H4794 0.951 . S
C4819 C4817 1.388 . S
C4819 C4820 1.366 . S
C4820 C4819 1.366 . S
C4820 C4821 1.414 . S
C4820 C4823 1.499 . S
C4821 H4795 0.950 . S
C4821 C4820 1.414 . S
C4821 C4822 1.374 . S
C4822 H4796 0.950 . S
C4822 C4818 1.385 . S
C4822 C4821 1.374 . S
C4823 C4820 1.499 . S
C4823 C4824 1.373 . S
C4823 C4825 1.389 . S
C4824 H4797 0.950 . S
C4824 C4810 1.377 . S
C4824 C4823 1.373 . S
C4825 C4809 1.377 . S
C4825 C4823 1.389 . S
C4825 C4826 1.524 . S
C4826 C4825 1.524 . S
C4826 C4827 1.397 . S
C4826 C4831 1.363 . S
C4827 H4798 0.950 . S
C4827 C4826 1.397 . S
C4827 C4828 1.334 . S
C4828 H4799 0.950 . S
C4828 C4827 1.334 . S
C4828 C4829 1.287 . S
C4829 C4828 1.287 . S
C4829 C4830 1.524 . S
C4829 H4832 0.999 . S
C4830 H4800 0.950 . S
C4830 C4829 1.524 . S
C4830 C4831 1.415 . S
C4831 H4801 0.950 . S
C4831 C4826 1.363 . S
C4831 C4830 1.415 . S
H4832 C4829 0.999 . S
H4833 C4814 0.913 . S
H4834 C4852 0.951 . S
H4835 C4854 0.951 . S
H4836 C4856 0.950 . S
H4837 C4857 0.950 . S
H4838 C4859 0.950 . S
H4839 C4862 0.950 . S
H4840 C4863 0.950 . S
H4841 C4865 0.950 . S
H4842 C4866 0.950 . S
H4843 C4867 0.951 . S
H4844 C4869 0.951 . S
H4845 C4871 0.950 . S
H4846 C4872 0.950 . S
H4847 C4874 0.950 . S
H4848 C4877 0.950 . S
H4849 C4878 0.950 . S
H4850 C4880 0.950 . S
H4851 C4881 0.950 . S
C4852 H4834 0.951 . S
C4852 C4853 1.366 . S
C4852 C4854 1.388 . S
C4853 C4852 1.366 . S
C4853 C4857 1.385 . S
C4854 H4835 0.951 . S
C4854 C4852 1.388 . S
C4854 C4855 1.366 . S
C4855 C4854 1.366 . S
C4855 C4856 1.414 . S
C4855 C4858 1.499 . S
C4856 H4836 0.950 . S
C4856 C4855 1.414 . S
C4856 C4857 1.374 . S
C4857 H4837 0.950 . S
C4857 C4853 1.385 . S
C4857 C4856 1.374 . S
C4858 C4855 1.499 . S
C4858 C4859 1.373 . S
C4858 C4860 1.389 . S
C4859 H4838 0.950 . S
C4859 C4858 1.373 . S
C4859 C4875 1.377 . S
C4860 C4858 1.389 . S
C4860 C4861 1.524 . S
C4860 C4874 1.377 . S
C4861 C4860 1.524 . S
C4861 C4862 1.397 . S
C4861 C4866 1.363 . S
C4862 H4839 0.950 . S
C4862 C4861 1.397 . S
C4862 C4863 1.334 . S
C4863 H4840 0.950 . S
C4863 C4862 1.334 . S
C4863 C4864 1.287 . S
C4864 C4863 1.287 . S
C4864 C4865 1.524 . S
C4864 H4883 0.913 . S
C4865 H4841 0.950 . S
C4865 C4864 1.524 . S
C4865 C4866 1.415 . S
C4866 H4842 0.950 . S
C4866 C4861 1.363 . S
C4866 C4865 1.415 . S
C4867 H4843 0.951 . S
C4867 C4868 1.366 . S
C4867 C4869 1.388 . S
C4868 C4867 1.366 . S
C4868 C4872 1.385 . S
C4869 H4844 0.951 . S
C4869 C4867 1.388 . S
C4869 C4870 1.366 . S
C4870 C4869 1.366 . S
C4870 C4871 1.414 . S
C4870 C4873 1.499 . S
C4871 H4845 0.950 . S
C4871 C4870 1.414 . S
C4871 C4872 1.374 . S
C4872 H4846 0.950 . S
C4872 C4868 1.385 . S
C4872 C4871 1.374 . S
C4873 C4870 1.499 . S
C4873 C4874 1.373 . S
C4873 C4875 1.389 . S
C4874 H4847 0.950 . S
C4874 C4860 1.377 . S
C4874 C4873 1.373 . S
C4875 C4859 1.377 . S
C4875 C4873 1.389 . S
C4875 C4876 1.524 . S
C4876 C4875 1.524 . S
C4876 C4877 1.397 . S
C4876 C4881 1.363 . S
C4877 H4848 0.950 . S
C4877 C4876 1.397 . S
C4877 C4878 1.334 . S
C4878 H4849 0.950 . S
C4878 C4877 1.334 . S
C4878 C4879 1.287 . S
C4879 C4878 1.287 . S
C4879 C4880 1.524 . S
C4879 H4882 0.999 . S
C4880 H4850 0.950 . S
C4880 C4879 1.524 . S
C4880 C4881 1.415 . S
C4881 H4851 0.950 . S
C4881 C4876 1.363 . S
C4881 C4880 1.415 . S
H4882 C4879 0.999 . S
H4883 C4864 0.913 . S
H4884 C4902 0.951 . S
H4885 C4904 0.951 . S
H4886 C4906 0.950 . S
H4887 C4907 0.950 . S
H4888 C4909 0.950 . S
H4889 C4912 0.950 . S
H4890 C4913 0.950 . S
H4891 C4915 0.950 . S
H4892 C4916 0.950 . S
H4893 C4917 0.951 . S
H4894 C4919 0.951 . S
H4895 C4921 0.950 . S
H4896 C4922 0.950 . S
H4897 C4924 0.950 . S
H4898 C4927 0.950 . S
H4899 C4928 0.950 . S
H4900 C4930 0.950 . S
H4901 C4931 0.950 . S
C4902 H4884 0.951 . S
C4902 C4903 1.366 . S
C4902 C4904 1.388 . S
C4903 C4902 1.366 . S
C4903 C4907 1.385 . S
C4904 H4885 0.951 . S
C4904 C4902 1.388 . S
C4904 C4905 1.366 . S
C4905 C4904 1.366 . S
C4905 C4906 1.414 . S
C4905 C4908 1.499 . S
C4906 H4886 0.950 . S
C4906 C4905 1.414 . S
C4906 C4907 1.374 . S
C4907 H4887 0.950 . S
C4907 C4903 1.385 . S
C4907 C4906 1.374 . S
C4908 C4905 1.499 . S
C4908 C4909 1.373 . S
C4908 C4910 1.389 . S
C4909 H4888 0.950 . S
C4909 C4908 1.373 . S
C4909 C4925 1.377 . S
C4910 C4908 1.389 . S
C4910 C4911 1.524 . S
C4910 C4924 1.377 . S
C4911 C4910 1.524 . S
C4911 C4912 1.397 . S
C4911 C4916 1.363 . S
C4912 H4889 0.950 . S
C4912 C4911 1.397 . S
C4912 C4913 1.334 . S
C4913 H4890 0.950 . S
C4913 C4912 1.334 . S
C4913 C4914 1.287 . S
C4914 C4913 1.287 . S
C4914 C4915 1.524 . S
C4914 H4933 0.913 . S
C4915 H4891 0.950 . S
C4915 C4914 1.524 . S
C4915 C4916 1.415 . S
C4916 H4892 0.950 . S
C4916 C4911 1.363 . S
C4916 C4915 1.415 . S
C4917 H4893 0.951 . S
C4917 C4918 1.366 . S
C4917 C4919 1.388 . S
C4918 C4917 1.366 . S
C4918 C4922 1.385 . S
C4919 H4894 0.951 . S
C4919 C4917 1.388 . S
C4919 C4920 1.366 . S
C4920 C4919 1.366 . S
C4920 C4921 1.414 . S
C4920 C4923 1.499 . S
C4921 H4895 0.950 . S
C4921 C4920 1.414 . S
C4921 C4922 1.374 . S
C4922 H4896 0.950 . S
C4922 C4918 1.385 . S
C4922 C4921 1.374 . S
C4923 C4920 1.499 . S
C4923 C4924 1.373 . S
C4923 C4925 1.389 . S
C4924 H4897 0.950 . S
C4924 C4910 1.377 . S
C4924 C4923 1.373 . S
C4925 C4909 1.377 . S
C4925 C4923 1.389 . S
C4925 C4926 1.524 . S
C4926 C4925 1.524 . S
C4926 C4927 1.397 . S
C4926 C4931 1.363 . S
C4927 H4898 0.950 . S
C4927 C4926 1.397 . S
C4927 C4928 1.334 . S
C4928 H4899 0.950 . S
C4928 C4927 1.334 . S
C4928 C4929 1.287 . S
C4929 C4928 1.287 . S
C4929 C4930 1.524 . S
C4929 H4932 0.999 . S
C4930 H4900 0.950 . S
C4930 C4929 1.524 . S
C4930 C4931 1.415 . S
C4931 H4901 0.950 . S
C4931 C4926 1.363 . S
C4931 C4930 1.415 . S
H4932 C4929 0.999 . S
H4933 C4914 0.913 . S
H4934 C4952 0.951 . S
H4935 C4954 0.951 . S
H4936 C4956 0.950 . S
H4937 C4957 0.950 . S
H4938 C4959 0.950 . S
H4939 C4962 0.950 . S
H4940 C4963 0.950 . S
H4941 C4965 0.950 . S
H4942 C4966 0.950 . S
H4943 C4967 0.951 . S
H4944 C4969 0.951 . S
H4945 C4971 0.950 . S
H4946 C4972 0.950 . S
H4947 C4974 0.950 . S
H4948 C4977 0.950 . S
H4949 C4978 0.950 . S
H4950 C4980 0.950 . S
H4951 C4981 0.950 . S
C4952 H4934 0.951 . S
C4952 C4953 1.366 . S
C4952 C4954 1.388 . S
C4953 C4952 1.366 . S
C4953 C4957 1.385 . S
C4954 H4935 0.951 . S
C4954 C4952 1.388 . S
C4954 C4955 1.366 . S
C4955 C4954 1.366 . S
C4955 C4956 1.414 . S
C4955 C4958 1.499 . S
C4956 H4936 0.950 . S
C4956 C4955 1.414 . S
C4956 C4957 1.374 . S
C4957 H4937 0.950 . S
C4957 C4953 1.385 . S
C4957 C4956 1.374 . S
C4958 C4955 1.499 . S
C4958 C4959 1.373 . S
C4958 C4960 1.389 . S
C4959 H4938 0.950 . S
C4959 C4958 1.373 . S
C4959 C4975 1.377 . S
C4960 C4958 1.389 . S
C4960 C4961 1.524 . S
C4960 C4974 1.377 . S
C4961 C4960 1.524 . S
C4961 C4962 1.397 . S
C4961 C4966 1.363 . S
C4962 H4939 0.950 . S
C4962 C4961 1.397 . S
C4962 C4963 1.334 . S
C4963 H4940 0.950 . S
C4963 C4962 1.334 . S
C4963 C4964 1.287 . S
C4964 C4963 1.287 . S
C4964 C4965 1.524 . S
C4964 H4983 0.913 . S
C4965 H4941 0.950 . S
C4965 C4964 1.524 . S
C4965 C4966 1.415 . S
C4966 H4942 0.950 . S
C4966 C4961 1.363 . S
C4966 C4965 1.415 . S
C4967 H4943 0.951 . S
C4967 C4968 1.366 . S
C4967 C4969 1.388 . S
C4968 C4967 1.366 . S
C4968 C4972 1.385 . S
C4969 H4944 0.951 . S
C4969 C4967 1.388 . S
C4969 C4970 1.366 . S
C4970 C4969 1.366 . S
C4970 C4971 1.414 . S
C4970 C4973 1.499 . S
C4971 H4945 0.950 . S
C4971 C4970 1.414 . S
C4971 C4972 1.374 . S
C4972 H4946 0.950 . S
C4972 C4968 1.385 . S
C4972 C4971 1.374 . S
C4973 C4970 1.499 . S
C4973 C4974 1.373 . S
C4973 C4975 1.389 . S
C4974 H4947 0.950 . S
C4974 C4960 1.377 . S
C4974 C4973 1.373 . S
C4975 C4959 1.377 . S
C4975 C4973 1.389 . S
C4975 C4976 1.524 . S
C4976 C4975 1.524 . S
C4976 C4977 1.397 . S
C4976 C4981 1.363 . S
C4977 H4948 0.950 . S
C4977 C4976 1.397 . S
C4977 C4978 1.334 . S
C4978 H4949 0.950 . S
C4978 C4977 1.334 . S
C4978 C4979 1.287 . S
C4979 C4978 1.287 . S
C4979 C4980 1.524 . S
C4979 H4982 0.999 . S
C4980 H4950 0.950 . S
C4980 C4979 1.524 . S
C4980 C4981 1.415 . S
C4981 H4951 0.950 . S
C4981 C4976 1.363 . S
C4981 C4980 1.415 . S
H4982 C4979 0.999 . S
H4983 C4964 0.913 . S
H4984 C5002 0.951 . S
H4985 C5004 0.951 . S
H4986 C5006 0.950 . S
H4987 C5007 1.037 . S
H4988 C5009 0.950 . S
H4989 C5012 0.950 . S
H4990 C5013 0.950 . S
H4991 C5015 0.950 . S
H4992 C5016 0.950 . S
H4993 C5017 0.951 . S
H4994 C5019 0.951 . S
H4995 C5021 0.950 . S
H4996 C5022 0.950 . S
H4997 C5024 0.950 . S
H4998 C5027 0.950 . S
H4999 C5028 0.950 . S
H5000 C5030 0.950 . S
H5001 C5031 0.950 . S
C5002 H4984 0.951 . S
C5002 C5003 1.366 . S
C5002 C5004 1.388 . S
C5003 C5002 1.366 . S
C5003 C5007 1.385 . S
C5004 H4985 0.951 . S
C5004 C5002 1.388 . S
C5004 C5005 1.366 . S
C5005 C5004 1.366 . S
C5005 C5006 1.414 . S
C5005 C5008 1.499 . S
C5006 H4986 0.950 . S
C5006 C5005 1.414 . S
C5006 C5007 1.374 . S
C5007 H4987 1.037 . S
C5007 C5003 1.385 . S
C5007 C5006 1.374 . S
C5008 C5005 1.499 . S
C5008 C5009 1.373 . S
C5008 C5010 1.389 . S
C5009 H4988 0.950 . S
C5009 C5008 1.373 . S
C5009 C5025 1.377 . S
C5010 C5008 1.389 . S
C5010 C5011 1.524 . S
C5010 C5024 1.377 . S
C5011 C5010 1.524 . S
C5011 C5012 1.397 . S
C5011 C5016 1.363 . S
C5012 H4989 0.950 . S
C5012 C5011 1.397 . S
C5012 C5013 1.334 . S
C5013 H4990 0.950 . S
C5013 C5012 1.334 . S
C5013 C5014 1.287 . S
C5014 C5013 1.287 . S
C5014 C5015 1.524 . S
C5014 H5033 0.913 . S
C5015 H4991 0.950 . S
C5015 C5014 1.524 . S
C5015 C5016 1.415 . S
C5016 H4992 0.950 . S
C5016 C5011 1.363 . S
C5016 C5015 1.415 . S
C5017 H4993 0.951 . S
C5017 C5018 1.366 . S
C5017 C5019 1.388 . S
C5018 C5017 1.366 . S
C5018 C5022 1.385 . S
C5019 H4994 0.951 . S
C5019 C5017 1.388 . S
C5019 C5020 1.366 . S
C5020 C5019 1.366 . S
C5020 C5021 1.414 . S
C5020 C5023 1.499 . S
C5021 H4995 0.950 . S
C5021 C5020 1.414 . S
C5021 C5022 1.374 . S
C5022 H4996 0.950 . S
C5022 C5018 1.385 . S
C5022 C5021 1.374 . S
C5023 C5020 1.499 . S
C5023 C5024 1.373 . S
C5023 C5025 1.389 . S
C5024 H4997 0.950 . S
C5024 C5010 1.377 . S
C5024 C5023 1.373 . S
C5025 C5009 1.377 . S
C5025 C5023 1.389 . S
C5025 C5026 1.524 . S
C5026 C5025 1.524 . S
C5026 C5027 1.397 . S
C5026 C5031 1.363 . S
C5027 H4998 0.950 . S
C5027 C5026 1.397 . S
C5027 C5028 1.334 . S
C5028 H4999 0.950 . S
C5028 C5027 1.334 . S
C5028 C5029 1.287 . S
C5029 C5028 1.287 . S
C5029 C5030 1.524 . S
C5029 H5032 0.999 . S
C5030 H5000 0.950 . S
C5030 C5029 1.524 . S
C5030 C5031 1.415 . S
C5031 H5001 0.950 . S
C5031 C5026 1.363 . S
C5031 C5030 1.415 . S
H5032 C5029 0.999 . S
H5033 C5014 0.913 . S
H5034 C5052 0.951 . S
H5035 C5054 0.951 . S
H5036 C5056 0.950 . S
H5037 C5057 0.950 . S
H5038 C5059 0.950 . S
H5039 C5062 0.950 . S
H5040 C5063 0.950 . S
H5041 C5065 0.950 . S
H5042 C5066 0.990 . S
H5043 C5067 0.951 . S
H5044 C5069 0.951 . S
H5045 C5071 0.950 . S
H5046 C5072 0.950 . S
H5047 C5074 0.950 . S
H5048 C5077 0.950 1_455 S
H5049 C5078 0.950 1_455 S
H5050 C5080 0.950 . S
H5051 C5081 0.950 . S
C5052 H5034 0.951 . S
C5052 C5053 1.366 . S
C5052 C5054 1.388 . S
C5053 C5052 1.366 . S
C5053 C5057 1.385 . S
C5054 H5035 0.951 . S
C5054 C5052 1.388 . S
C5054 C5055 1.366 . S
C5055 C5054 1.366 . S
C5055 C5056 1.414 . S
C5055 C5058 1.499 . S
C5056 H5036 0.950 . S
C5056 C5055 1.414 . S
C5056 C5057 1.374 . S
C5057 H5037 0.950 . S
C5057 C5053 1.385 . S
C5057 C5056 1.374 . S
C5058 C5055 1.499 . S
C5058 C5059 1.373 . S
C5058 C5060 1.389 . S
C5059 H5038 0.950 . S
C5059 C5058 1.373 . S
C5059 C5075 1.377 . S
C5060 C5058 1.389 . S
C5060 C5061 1.524 . S
C5060 C5074 1.377 . S
C5061 C5060 1.524 . S
C5061 C5062 1.397 . S
C5061 C5066 1.316 1_655 S
C5062 H5039 0.950 . S
C5062 C5061 1.397 . S
C5062 C5063 1.334 . S
C5063 H5040 0.950 . S
C5063 C5062 1.334 . S
C5063 C5064 1.287 . S
C5064 C5063 1.287 . S
C5064 C5065 1.524 1_655 S
C5064 H5083 0.913 . S
C5065 H5041 0.950 . S
C5065 C5064 1.524 1_455 S
C5065 C5066 1.425 . S
C5066 H5042 0.990 . S
C5066 C5061 1.316 1_455 S
C5066 C5065 1.425 . S
C5067 H5043 0.951 . S
C5067 C5068 1.366 . S
C5067 C5069 1.388 . S
C5068 C5067 1.366 . S
C5068 C5072 1.385 1_655 S
C5069 H5044 0.951 . S
C5069 C5067 1.388 . S
C5069 C5070 1.366 . S
C5070 C5069 1.366 . S
C5070 C5071 1.414 1_655 S
C5070 C5073 1.499 . S
C5071 H5045 0.950 . S
C5071 C5070 1.414 1_455 S
C5071 C5072 1.374 . S
C5072 H5046 0.950 . S
C5072 C5068 1.385 1_455 S
C5072 C5071 1.374 . S
C5073 C5070 1.499 . S
C5073 C5074 1.373 . S
C5073 C5075 1.389 . S
C5074 H5047 0.950 . S
C5074 C5060 1.377 . S
C5074 C5073 1.373 . S
C5075 C5059 1.377 . S
C5075 C5073 1.389 . S
C5075 C5076 1.524 . S
C5076 C5075 1.524 . S
C5076 C5077 1.397 . S
C5076 C5081 1.363 . S
C5077 H5048 0.950 1_655 S
C5077 C5076 1.397 . S
C5077 C5078 1.334 . S
C5078 H5049 0.950 1_655 S
C5078 C5077 1.334 . S
C5078 C5079 1.287 . S
C5079 C5078 1.287 . S
C5079 C5080 1.524 . S
C5079 H5082 0.999 . S
C5080 H5050 0.950 . S
C5080 C5079 1.524 . S
C5080 C5081 1.415 . S
C5081 H5051 0.950 . S
C5081 C5076 1.363 . S
C5081 C5080 1.415 . S
H5082 C5079 0.999 . S
H5083 C5064 0.913 . S
H5084 C5102 0.951 . S
H5085 C5104 0.951 . S
H5086 C5106 0.950 . S
H5087 C5107 0.950 . S
H5088 C5109 0.950 . S
H5089 C5112 0.950 . S
H5090 C5113 0.950 . S
H5091 C5115 0.950 . S
H5092 C5116 0.950 . S
H5093 C5117 0.951 . S
H5094 C5119 0.951 . S
H5095 C5121 0.950 . S
H5096 C5122 0.950 . S
H5097 C5124 0.950 . S
H5098 C5127 0.950 . S
H5099 C5128 0.950 . S
H5100 C5130 0.950 . S
H5101 C5131 0.950 . S
C5102 H5084 0.951 . S
C5102 C5103 1.366 . S
C5102 C5104 1.388 . S
C5103 C5102 1.366 . S
C5103 C5107 1.385 . S
C5104 H5085 0.951 . S
C5104 C5102 1.388 . S
C5104 C5105 1.366 . S
C5105 C5104 1.366 . S
C5105 C5106 1.414 . S
C5105 C5108 1.499 . S
C5106 H5086 0.950 . S
C5106 C5105 1.414 . S
C5106 C5107 1.374 . S
C5107 H5087 0.950 . S
C5107 C5103 1.385 . S
C5107 C5106 1.374 . S
C5108 C5105 1.499 . S
C5108 C5109 1.373 . S
C5108 C5110 1.389 . S
C5109 H5088 0.950 . S
C5109 C5108 1.373 . S
C5109 C5125 1.377 . S
C5110 C5108 1.389 . S
C5110 C5111 1.524 . S
C5110 C5124 1.377 . S
C5111 C5110 1.524 . S
C5111 C5112 1.397 . S
C5111 C5116 1.363 . S
C5112 H5089 0.950 . S
C5112 C5111 1.397 . S
C5112 C5113 1.334 . S
C5113 H5090 0.950 . S
C5113 C5112 1.334 . S
C5113 C5114 1.287 . S
C5114 C5113 1.287 . S
C5114 C5115 1.524 . S
C5114 H5133 0.913 . S
C5115 H5091 0.950 . S
C5115 C5114 1.524 . S
C5115 C5116 1.415 . S
C5116 H5092 0.950 . S
C5116 C5111 1.363 . S
C5116 C5115 1.415 . S
C5117 H5093 0.951 . S
C5117 C5118 1.366 . S
C5117 C5119 1.388 . S
C5118 C5117 1.366 . S
C5118 C5122 1.385 . S
C5119 H5094 0.951 . S
C5119 C5117 1.388 . S
C5119 C5120 1.366 . S
C5120 C5119 1.366 . S
C5120 C5121 1.414 . S
C5120 C5123 1.499 . S
C5121 H5095 0.950 . S
C5121 C5120 1.414 . S
C5121 C5122 1.374 . S
C5122 H5096 0.950 . S
C5122 C5118 1.385 . S
C5122 C5121 1.374 . S
C5123 C5120 1.499 . S
C5123 C5124 1.373 . S
C5123 C5125 1.389 . S
C5124 H5097 0.950 . S
C5124 C5110 1.377 . S
C5124 C5123 1.373 . S
C5125 C5109 1.377 . S
C5125 C5123 1.389 . S
C5125 C5126 1.524 . S
C5126 C5125 1.524 . S
C5126 C5127 1.397 . S
C5126 C5131 1.363 . S
C5127 H5098 0.950 . S
C5127 C5126 1.397 . S
C5127 C5128 1.334 . S
C5128 H5099 0.950 . S
C5128 C5127 1.334 . S
C5128 C5129 1.287 . S
C5129 C5128 1.287 . S
C5129 C5130 1.524 . S
C5129 H5132 0.999 . S
C5130 H5100 0.950 . S
C5130 C5129 1.524 . S
C5130 C5131 1.415 . S
C5131 H5101 0.950 . S
C5131 C5126 1.363 . S
C5131 C5130 1.415 . S
H5132 C5129 0.999 . S
H5133 C5114 0.913 . S
H5134 C5152 0.951 . S
H5135 C5154 0.951 . S
H5136 C5156 0.950 . S
H5137 C5157 0.950 . S
H5138 C5159 0.950 . S
H5139 C5162 0.950 . S
H5140 C5163 0.950 . S
H5141 C5165 0.950 . S
H5142 C5166 0.950 . S
H5143 C5167 0.951 . S
H5144 C5169 0.951 . S
H5145 C5171 0.950 . S
H5146 C5172 0.945 . S
H5147 C5174 0.950 . S
H5148 C5177 0.950 . S
H5149 C5178 0.950 . S
H5150 C5180 0.950 . S
H5151 C5181 0.950 1_545 S
C5152 H5134 0.951 . S
C5152 C5153 1.366 . S
C5152 C5154 1.388 . S
C5153 C5152 1.366 . S
C5153 C5157 1.385 . S
C5154 H5135 0.951 . S
C5154 C5152 1.388 . S
C5154 C5155 1.366 . S
C5155 C5154 1.366 . S
C5155 C5156 1.414 . S
C5155 C5158 1.499 . S
C5156 H5136 0.950 . S
C5156 C5155 1.414 . S
C5156 C5157 1.374 . S
C5157 H5137 0.950 . S
C5157 C5153 1.385 . S
C5157 C5156 1.374 . S
C5158 C5155 1.499 . S
C5158 C5159 1.373 . S
C5158 C5160 1.389 . S
C5159 H5138 0.950 . S
C5159 C5158 1.373 . S
C5159 C5175 1.377 . S
C5160 C5158 1.389 . S
C5160 C5161 1.524 . S
C5160 C5174 1.377 . S
C5161 C5160 1.524 . S
C5161 C5162 1.397 . S
C5161 C5166 1.363 . S
C5162 H5139 0.950 . S
C5162 C5161 1.397 . S
C5162 C5163 1.334 . S
C5163 H5140 0.950 . S
C5163 C5162 1.334 . S
C5163 C5164 1.287 . S
C5164 C5163 1.287 . S
C5164 C5165 1.524 . S
C5164 H5183 0.913 . S
C5165 H5141 0.950 . S
C5165 C5164 1.524 . S
C5165 C5166 1.415 . S
C5166 H5142 0.950 . S
C5166 C5161 1.363 . S
C5166 C5165 1.415 . S
C5167 H5143 0.951 . S
C5167 C5168 1.366 . S
C5167 C5169 1.388 . S
C5168 C5167 1.366 . S
C5168 C5172 1.386 1_545 S
C5169 H5144 0.951 . S
C5169 C5167 1.388 . S
C5169 C5170 1.366 . S
C5170 C5169 1.366 . S
C5170 C5171 1.414 . S
C5170 C5173 1.499 . S
C5171 H5145 0.950 . S
C5171 C5170 1.414 . S
C5171 C5172 1.378 1_545 S
C5172 H5146 0.945 . S
C5172 C5168 1.386 1_565 S
C5172 C5171 1.378 1_565 S
C5173 C5170 1.499 . S
C5173 C5174 1.373 . S
C5173 C5175 1.389 . S
C5174 H5147 0.950 . S
C5174 C5160 1.377 . S
C5174 C5173 1.373 . S
C5175 C5159 1.377 . S
C5175 C5173 1.389 . S
C5175 C5176 1.524 1_545 S
C5176 C5175 1.524 1_565 S
C5176 C5177 1.397 . S
C5176 C5181 1.363 . S
C5177 H5148 0.950 . S
C5177 C5176 1.397 . S
C5177 C5178 1.334 . S
C5178 H5149 0.950 . S
C5178 C5177 1.334 . S
C5178 C5179 1.287 . S
C5179 C5178 1.287 . S
C5179 C5180 1.524 . S
C5179 H5182 0.999 . S
C5180 H5150 0.950 . S
C5180 C5179 1.524 . S
C5180 C5181 1.415 . S
C5181 H5151 0.950 1_565 S
C5181 C5176 1.363 . S
C5181 C5180 1.415 . S
H5182 C5179 0.999 . S
H5183 C5164 0.913 . S
C1603 C8 1.107 . S
C1618 C981 1.032 . S
C1653 C22 1.564 . S
C1668 C1061 1.555 . S
C1718 C1129 1.336 . S
C1703 C37 1.356 1_545 S
C1753 C36 1.754 1_566 S
C1768 C1209 1.787 . S
C1803 C9 1.464 1_556 S
C1818 C1283 1.486 . S
C1853 C23 1.577 . S
C1868 C1351 1.524 . S
C1903 C50 0.985 1_455 S
C1918 C1277 0.964 1_655 S
C1968 C1357 1.479 . S
C1953 C64 1.451 . S
C2018 C1203 1.286 . S
C2003 C79 1.310 1_565 S
C2053 C78 1.714 . S
C2068 C1135 1.758 . S
C2118 C987 1.470 . S
C2103 C51 1.427 1_655 S
C2153 C65 1.432 . S
C2168 C1055 1.429 . S
C2203 C92 1.286 . S
C2218 C1425 1.217 . S
C2253 C106 1.608 . S
C2268 C1505 1.591 . S
C2318 C1573 1.489 . S
C2303 C121 1.543 . S
C2353 C120 1.899 . S
C2368 C321 1.891 . S
C2403 C93 1.635 . S
C2418 C395 1.616 . S
C2453 C107 1.597 . S
C2468 C463 1.542 . S
C2503 C134 1.018 . S
C2518 C389 1.001 . S
C2553 C148 1.492 . S
C2568 C469 1.519 . S
C2618 C315 1.390 . S
C2603 C163 1.387 . S
C2668 C1579 1.918 . S
C2653 C162 1.883 . S
C2718 C1431 1.520 . S
C2703 C135 1.504 . S
C2768 C1499 1.489 . S
C2753 C149 1.494 . S
C2803 C176 1.176 . S
C2818 C537 1.118 . S
C2853 C190 1.615 . S
C2868 C617 1.601 . S
C2903 C205 1.542 . S
C2918 C685 1.493 . S
C2953 C204 2.000 . S
C2968 C765 1.988 . S
C3018 C839 1.603 . S
C3003 C177 1.627 . S
C3068 C907 1.588 . S
C3053 C191 1.648 . S
C3118 C833 1.110 . S
C3103 C218 1.131 . S
C3168 C913 1.506 . S
C3153 C232 1.483 . S
C3203 C247 1.377 . S
C3218 C759 1.378 . S
C3268 C691 1.815 . S
C3253 C246 1.777 . S
C3303 C219 1.520 . S
C3318 C543 1.540 . S
C3368 C611 1.440 . S
C3353 C233 1.441 . S
C3418 C291 1.969 . S
C3403 C6 2.000 . S
C3453 C20 1.424 . S
C3468 C365 1.431 . S
C3518 C451 1.457 . S
C3503 C35 1.450 . S
C3568 C525 1.110 . S
C3553 C34 1.074 1_556 S
C3618 C587 1.601 . S
C3603 C7 1.605 . S
C3668 C673 1.519 . S
C3653 C21 1.508 . S
C3703 C48 2.136 . S
C3718 C661 2.062 . S
C3753 C62 1.561 . S
C3768 C513 1.524 . S
C3803 C77 1.618 . S
C3818 C599 1.589 . S
C3853 C76 1.278 . S
C3868 C377 1.250 . S
C3918 C439 1.691 . S
C3903 C49 1.748 . S
C3953 C63 1.673 . S
C3968 C303 1.644 . S
C4018 C735 1.951 . S
C4003 C90 1.972 . S
C4053 C104 1.551 1_545 S
C4068 C809 1.567 . S
C4103 C119 1.472 1_655 S
C4118 C895 1.487 . S
C4168 C969 1.008 . S
C4153 C118 0.989 . S
C4203 C91 1.560 . S
C4218 C1031 1.565 . S
C4253 C105 1.433 . S
C4268 C1117 1.462 . S
C4303 C132 1.926 . S
C4318 C1105 1.884 . S
C4353 C146 1.445 . S
C4368 C957 1.442 . S
C4418 C1043 1.544 . S
C4403 C161 1.563 . S
C4453 C160 1.259 . S
C4468 C821 1.236 . S
C4503 C133 1.776 . S
C4518 C883 1.735 . S
C4568 C747 1.732 . S
C4553 C147 1.756 1_655 S
C4618 C1179 1.864 . S
C4603 C174 1.868 . S
C4653 C188 1.374 . S
C4668 C1253 1.395 . S
C4703 C203 1.414 . S
C4718 C1339 1.427 . S
C4768 C1413 1.100 . S
C4753 C202 1.094 . S
C4818 C1475 1.652 . S
C4803 C175 1.641 . S
C4853 C189 1.644 . S
C4868 C1561 1.612 . S
C4903 C216 2.107 . S
C4918 C1549 2.033 . S
C4953 C230 1.680 1_565 S
C4968 C1401 1.651 . S
C5018 C1487 1.607 . S
C5003 C245 1.628 1_455 S
C5068 C1265 1.098 . S
C5053 C244 1.057 . S
C5118 C1327 1.653 . S
C5103 C217 1.697 . S
C5153 C231 1.506 . S
C5168 C1191 1.522 1_545 S
