# Generated by pormake.
# Topology ptr, (4,4)-cn, num edge types: 1
# Building blocks:
#     Node 0, Type 0, BuildingBlock: AZAVOO_clean_sbu_0, # of connection points: 4
#     Node 1, Type 0, BuildingBlock: AZAVOO_clean_sbu_0, # of connection points: 4
#     Node 2, Type 0, BuildingBlock: AZAVOO_clean_sbu_0, # of connection points: 4
#     Node 3, Type 0, BuildingBlock: AZAVOO_clean_sbu_0, # of connection points: 4
#     Node 4, Type 0, BuildingBlock: AZAVOO_clean_sbu_0, # of connection points: 4
#     Node 5, Type 0, BuildingBlock: AZAVOO_clean_sbu_0, # of connection points: 4
#     Node 6, Type 0, BuildingBlock: AZAVOO_clean_sbu_0, # of connection points: 4
#     Node 7, Type 0, BuildingBlock: AZAVOO_clean_sbu_0, # of connection points: 4
#     Node 8, Type 0, BuildingBlock: AZAVOO_clean_sbu_0, # of connection points: 4
#     Node 9, Type 0, BuildingBlock: AZAVOO_clean_sbu_0, # of connection points: 4
#     Node 10, Type 0, BuildingBlock: AZAVOO_clean_sbu_0, # of connection points: 4
#     Node 11, Type 0, BuildingBlock: AZAVOO_clean_sbu_0, # of connection points: 4
#     Node 12, Type 0, BuildingBlock: AZAVOO_clean_sbu_0, # of connection points: 4
#     Node 13, Type 0, BuildingBlock: AZAVOO_clean_sbu_0, # of connection points: 4
#     Node 14, Type 0, BuildingBlock: AZAVOO_clean_sbu_0, # of connection points: 4
#     Node 15, Type 0, BuildingBlock: AZAVOO_clean_sbu_0, # of connection points: 4
#     Node 16, Type 0, BuildingBlock: AZAVOO_clean_sbu_0, # of connection points: 4
#     Node 17, Type 0, BuildingBlock: AZAVOO_clean_sbu_0, # of connection points: 4
#     Node 18, Type 1, BuildingBlock: NAHDIM_clean_linker_0, # of connection points: 4
#     Node 19, Type 1, BuildingBlock: NAHDIM_clean_linker_0, # of connection points: 4
#     Node 20, Type 1, BuildingBlock: NAHDIM_clean_linker_0, # of connection points: 4
#     Node 21, Type 1, BuildingBlock: NAHDIM_clean_linker_0, # of connection points: 4
#     Node 22, Type 1, BuildingBlock: NAHDIM_clean_linker_0, # of connection points: 4
#     Node 23, Type 1, BuildingBlock: NAHDIM_clean_linker_0, # of connection points: 4
#     Node 24, Type 1, BuildingBlock: NAHDIM_clean_linker_0, # of connection points: 4
#     Node 25, Type 1, BuildingBlock: NAHDIM_clean_linker_0, # of connection points: 4
#     Node 26, Type 1, BuildingBlock: NAHDIM_clean_linker_0, # of connection points: 4
#     Node 27, Type 1, BuildingBlock: NAHDIM_clean_linker_0, # of connection points: 4
#     Node 28, Type 1, BuildingBlock: NAHDIM_clean_linker_0, # of connection points: 4
#     Node 29, Type 1, BuildingBlock: NAHDIM_clean_linker_0, # of connection points: 4
#     Node 30, Type 1, BuildingBlock: NAHDIM_clean_linker_0, # of connection points: 4
#     Node 31, Type 1, BuildingBlock: NAHDIM_clean_linker_0, # of connection points: 4
#     Node 32, Type 1, BuildingBlock: NAHDIM_clean_linker_0, # of connection points: 4
#     Node 33, Type 1, BuildingBlock: NAHDIM_clean_linker_0, # of connection points: 4
#     Node 34, Type 1, BuildingBlock: NAHDIM_clean_linker_0, # of connection points: 4
#     Node 35, Type 1, BuildingBlock: NAHDIM_clean_linker_0, # of connection points: 4
#     Edge 36, Type (0, 1), BuildingBlock: FUNLAD_clean_linker_1, # of connection points: 2
#     Edge 37, Type (0, 1), BuildingBlock: FUNLAD_clean_linker_1, # of connection points: 2
#     Edge 38, Type (0, 1), BuildingBlock: FUNLAD_clean_linker_1, # of connection points: 2
#     Edge 39, Type (0, 1), BuildingBlock: FUNLAD_clean_linker_1, # of connection points: 2
#     Edge 40, Type (0, 1), BuildingBlock: FUNLAD_clean_linker_1, # of connection points: 2
#     Edge 41, Type (0, 1), BuildingBlock: FUNLAD_clean_linker_1, # of connection points: 2
#     Edge 42, Type (0, 1), BuildingBlock: FUNLAD_clean_linker_1, # of connection points: 2
#     Edge 43, Type (0, 1), BuildingBlock: FUNLAD_clean_linker_1, # of connection points: 2
#     Edge 44, Type (0, 1), BuildingBlock: FUNLAD_clean_linker_1, # of connection points: 2
#     Edge 45, Type (0, 1), BuildingBlock: FUNLAD_clean_linker_1, # of connection points: 2
#     Edge 46, Type (0, 1), BuildingBlock: FUNLAD_clean_linker_1, # of connection points: 2
#     Edge 47, Type (0, 1), BuildingBlock: FUNLAD_clean_linker_1, # of connection points: 2
#     Edge 48, Type (0, 1), BuildingBlock: FUNLAD_clean_linker_1, # of connection points: 2
#     Edge 49, Type (0, 1), BuildingBlock: FUNLAD_clean_linker_1, # of connection points: 2
#     Edge 50, Type (0, 1), BuildingBlock: FUNLAD_clean_linker_1, # of connection points: 2
#     Edge 51, Type (0, 1), BuildingBlock: FUNLAD_clean_linker_1, # of connection points: 2
#     Edge 52, Type (0, 1), BuildingBlock: FUNLAD_clean_linker_1, # of connection points: 2
#     Edge 53, Type (0, 1), BuildingBlock: FUNLAD_clean_linker_1, # of connection points: 2
#     Edge 54, Type (0, 1), BuildingBlock: FUNLAD_clean_linker_1, # of connection points: 2
#     Edge 55, Type (0, 1), BuildingBlock: FUNLAD_clean_linker_1, # of connection points: 2
#     Edge 56, Type (0, 1), BuildingBlock: FUNLAD_clean_linker_1, # of connection points: 2
#     Edge 57, Type (0, 1), BuildingBlock: FUNLAD_clean_linker_1, # of connection points: 2
#     Edge 58, Type (0, 1), BuildingBlock: FUNLAD_clean_linker_1, # of connection points: 2
#     Edge 59, Type (0, 1), BuildingBlock: FUNLAD_clean_linker_1, # of connection points: 2
#     Edge 60, Type (0, 1), BuildingBlock: FUNLAD_clean_linker_1, # of connection points: 2
#     Edge 61, Type (0, 1), BuildingBlock: FUNLAD_clean_linker_1, # of connection points: 2
#     Edge 62, Type (0, 1), BuildingBlock: FUNLAD_clean_linker_1, # of connection points: 2
#     Edge 63, Type (0, 1), BuildingBlock: FUNLAD_clean_linker_1, # of connection points: 2
#     Edge 64, Type (0, 1), BuildingBlock: FUNLAD_clean_linker_1, # of connection points: 2
#     Edge 65, Type (0, 1), BuildingBlock: FUNLAD_clean_linker_1, # of connection points: 2
#     Edge 66, Type (0, 1), BuildingBlock: FUNLAD_clean_linker_1, # of connection points: 2
#     Edge 67, Type (0, 1), BuildingBlock: FUNLAD_clean_linker_1, # of connection points: 2
#     Edge 68, Type (0, 1), BuildingBlock: FUNLAD_clean_linker_1, # of connection points: 2
#     Edge 69, Type (0, 1), BuildingBlock: FUNLAD_clean_linker_1, # of connection points: 2
#     Edge 70, Type (0, 1), BuildingBlock: FUNLAD_clean_linker_1, # of connection points: 2
#     Edge 71, Type (0, 1), BuildingBlock: FUNLAD_clean_linker_1, # of connection points: 2
#     Edge 72, Type (0, 1), BuildingBlock: FUNLAD_clean_linker_1, # of connection points: 2
#     Edge 73, Type (0, 1), BuildingBlock: FUNLAD_clean_linker_1, # of connection points: 2
#     Edge 74, Type (0, 1), BuildingBlock: FUNLAD_clean_linker_1, # of connection points: 2
#     Edge 75, Type (0, 1), BuildingBlock: FUNLAD_clean_linker_1, # of connection points: 2
#     Edge 76, Type (0, 1), BuildingBlock: FUNLAD_clean_linker_1, # of connection points: 2
#     Edge 77, Type (0, 1), BuildingBlock: FUNLAD_clean_linker_1, # of connection points: 2
#     Edge 78, Type (0, 1), BuildingBlock: FUNLAD_clean_linker_1, # of connection points: 2
#     Edge 79, Type (0, 1), BuildingBlock: FUNLAD_clean_linker_1, # of connection points: 2
#     Edge 80, Type (0, 1), BuildingBlock: FUNLAD_clean_linker_1, # of connection points: 2
#     Edge 81, Type (0, 1), BuildingBlock: FUNLAD_clean_linker_1, # of connection points: 2
#     Edge 82, Type (0, 1), BuildingBlock: FUNLAD_clean_linker_1, # of connection points: 2
#     Edge 83, Type (0, 1), BuildingBlock: FUNLAD_clean_linker_1, # of connection points: 2
#     Edge 84, Type (0, 1), BuildingBlock: FUNLAD_clean_linker_1, # of connection points: 2
#     Edge 85, Type (0, 1), BuildingBlock: FUNLAD_clean_linker_1, # of connection points: 2
#     Edge 86, Type (0, 1), BuildingBlock: FUNLAD_clean_linker_1, # of connection points: 2
#     Edge 87, Type (0, 1), BuildingBlock: FUNLAD_clean_linker_1, # of connection points: 2
#     Edge 88, Type (0, 1), BuildingBlock: FUNLAD_clean_linker_1, # of connection points: 2
#     Edge 89, Type (0, 1), BuildingBlock: FUNLAD_clean_linker_1, # of connection points: 2
#     Edge 90, Type (0, 1), BuildingBlock: FUNLAD_clean_linker_1, # of connection points: 2
#     Edge 91, Type (0, 1), BuildingBlock: FUNLAD_clean_linker_1, # of connection points: 2
#     Edge 92, Type (0, 1), BuildingBlock: FUNLAD_clean_linker_1, # of connection points: 2
#     Edge 93, Type (0, 1), BuildingBlock: FUNLAD_clean_linker_1, # of connection points: 2
#     Edge 94, Type (0, 1), BuildingBlock: FUNLAD_clean_linker_1, # of connection points: 2
#     Edge 95, Type (0, 1), BuildingBlock: FUNLAD_clean_linker_1, # of connection points: 2
#     Edge 96, Type (0, 1), BuildingBlock: FUNLAD_clean_linker_1, # of connection points: 2
#     Edge 97, Type (0, 1), BuildingBlock: FUNLAD_clean_linker_1, # of connection points: 2
#     Edge 98, Type (0, 1), BuildingBlock: FUNLAD_clean_linker_1, # of connection points: 2
#     Edge 99, Type (0, 1), BuildingBlock: FUNLAD_clean_linker_1, # of connection points: 2
#     Edge 100, Type (0, 1), BuildingBlock: FUNLAD_clean_linker_1, # of connection points: 2
#     Edge 101, Type (0, 1), BuildingBlock: FUNLAD_clean_linker_1, # of connection points: 2
#     Edge 102, Type (0, 1), BuildingBlock: FUNLAD_clean_linker_1, # of connection points: 2
#     Edge 103, Type (0, 1), BuildingBlock: FUNLAD_clean_linker_1, # of connection points: 2
#     Edge 104, Type (0, 1), BuildingBlock: FUNLAD_clean_linker_1, # of connection points: 2
#     Edge 105, Type (0, 1), BuildingBlock: FUNLAD_clean_linker_1, # of connection points: 2
#     Edge 106, Type (0, 1), BuildingBlock: FUNLAD_clean_linker_1, # of connection points: 2
#     Edge 107, Type (0, 1), BuildingBlock: FUNLAD_clean_linker_1, # of connection points: 2
# Relax obj value: 0.102
# Max RMSD: 0.341
# Mean RMSD: 0.135
data_MOF--net-ptr--node1-AZAVOO_clean_sbu_0--node2-NAHDIM_clean_linker_0--edge1-FUNLAD_clean_linker_1
_symmetry_space_group_name_H-M    P1
_symmetry_Int_Tables_number       1
_symmetry_cell_setting            triclinic
loop_
_symmetry_equiv_pos_as_xyz
'x, y, z'
_cell_length_a     98.231404
_cell_length_b     96.108286
_cell_length_c     80.40902
_cell_angle_alpha  91.751017
_cell_angle_beta   91.167257
_cell_angle_gamma 120.33209
loop_
_atom_site_label
_atom_site_type_symbol
_atom_site_fract_x
_atom_site_fract_y
_atom_site_fract_z
_atom_type_partial_charge
Mg0 Mg 0.00934 0.34138 0.99532 0.0
O1 O 0.99916 0.35083 0.01547 0.0
O2 O 0.97767 0.34972 0.00395 0.0
Mg3 Mg 0.97416 0.34008 0.97696 0.0
C4 C 0.98745 0.35313 0.01622 0.0
C5 C 0.03934 0.34407 0.01264 0.0
O6 O 0.04561 0.35284 0.99973 0.0
O7 O 0.98964 0.31517 0.99721 0.0
O8 O 0.969 0.3152 0.98491 0.0
O9 O 0.0236 0.36666 0.98651 0.0
O10 O -0.00045 0.34868 0.9769 0.0
C11 C 0.97524 0.30788 0.99186 0.0
C12 C 0.01136 0.36313 0.97701 0.0
O13 O 0.02468 0.33812 0.01483 0.0
Mg14 Mg 0.66712 0.65268 0.02838 0.0
O15 O 0.64607 0.64694 0.01092 0.0
O16 O 0.6256 0.64218 0.02642 0.0
Mg17 Mg 0.63397 0.64576 0.05386 0.0
C18 C 0.63173 0.64323 0.01232 0.0
C19 C 0.69307 0.65714 0.00392 0.0
O20 O 0.69287 0.64588 0.01295 0.0
O21 O 0.67088 0.67755 0.03396 0.0
O22 O 0.65117 0.67298 0.0506 0.0
O23 O 0.65917 0.62644 0.02962 0.0
O24 O 0.65198 0.63979 0.04678 0.0
C25 C 0.66361 0.68255 0.04305 0.0
C26 C 0.65078 0.62635 0.04189 0.0
O27 O 0.68357 0.66212 0.00689 0.0
Mg28 Mg 0.32711 0.98689 0.98812 0.0
O29 O 0.34421 0.00143 0.00993 0.0
O30 O 0.36675 0.02097 0.0002 0.0
Mg31 Mg 0.36269 0.02046 0.97193 0.0
C32 C 0.35835 0.01309 0.01218 0.0
C33 C 0.3027 0.96068 0.01145 0.0
O34 O 0.30888 0.95226 0.0057 0.0
O35 O 0.32091 0.00629 0.98455 0.0
O36 O 0.34273 0.02658 0.97441 0.0
O37 O 0.33868 0.97208 0.9862 0.0
O38 O 0.34586 0.99419 0.97238 0.0
C39 C 0.32851 0.0204 0.97901 0.0
C40 C 0.34838 0.98278 0.9764 0.0
O41 O 0.30759 0.97482 0.00653 0.0
Mg42 Mg 0.9886 0.66005 0.02287 0.0
O43 O 0.00224 0.65245 0.00572 0.0
O44 O 0.02101 0.65167 0.02119 0.0
Mg45 Mg 0.0183 0.65741 0.04848 0.0
C46 C 0.01383 0.65 0.00721 0.0
C47 C 0.96785 0.6698 0.00273 0.0
O48 O 0.96162 0.66775 0.01741 0.0
O49 O 0.00933 0.68572 0.02562 0.0
O50 O 0.02611 0.68394 0.04344 0.0
O51 O 0.97156 0.63411 0.02687 0.0
O52 O 0.99325 0.64933 0.04253 0.0
C53 C 0.02198 0.69221 0.03474 0.0
C54 C 0.98113 0.63532 0.03888 0.0
O55 O 0.97899 0.66695 0.00057 0.0
Mg56 Mg 0.33982 0.35299 0.99863 0.0
O57 O 0.36149 0.35828 0.01502 0.0
O58 O 0.37961 0.35924 0.99788 0.0
Mg59 Mg 0.37014 0.35614 0.97088 0.0
C60 C 0.37506 0.36003 0.01246 0.0
C61 C 0.32167 0.35446 0.03009 0.0
O62 O 0.33002 0.37006 0.02819 0.0
O63 O 0.33391 0.32726 0.99319 0.0
O64 O 0.35145 0.32941 0.97461 0.0
O65 O 0.34893 0.37931 0.9968 0.0
O66 O 0.35426 0.36471 0.97922 0.0
C67 C 0.3394 0.32094 0.98322 0.0
C68 C 0.3563 0.3786 0.98393 0.0
O69 O 0.32376 0.34491 0.02063 0.0
Mg70 Mg 0.68368 0.02414 0.03172 0.0
O71 O 0.6645 0.00955 0.01145 0.0
O72 O 0.64328 0.99012 0.02334 0.0
Mg73 Mg 0.64966 0.99129 0.05109 0.0
C74 C 0.65031 0.99779 0.0106 0.0
C75 C 0.71459 0.04872 0.01513 0.0
O76 O 0.71698 0.05596 0.0299 0.0
O77 O 0.68968 0.00435 0.03343 0.0
O78 O 0.66891 0.98484 0.04583 0.0
O79 O 0.67263 0.03936 0.03607 0.0
O80 O 0.66664 0.01724 0.04934 0.0
C81 C 0.68243 0.99045 0.03951 0.0
C82 C 0.66379 0.02858 0.04633 0.0
O83 O 0.70167 0.03569 0.01173 0.0
Mg84 Mg 0.68044 0.68256 0.33961 0.0
O85 O 0.66352 0.68676 0.35593 0.0
O86 O 0.6465 0.68801 0.3379 0.0
Mg87 Mg 0.65299 0.68616 0.31112 0.0
C88 C 0.65158 0.68838 0.35273 0.0
C89 C 0.70441 0.67971 0.36111 0.0
O90 O 0.71261 0.68968 0.34963 0.0
O91 O 0.66134 0.65665 0.33259 0.0
O92 O 0.64571 0.65946 0.31403 0.0
O93 O 0.69682 0.70912 0.33913 0.0
O94 O 0.67729 0.69488 0.32056 0.0
C95 C 0.64953 0.65066 0.32224 0.0
C96 C 0.68869 0.70873 0.32608 0.0
O97 O 0.68965 0.67443 0.36137 0.0
Mg98 Mg 0.32714 0.98944 0.36808 0.0
O99 O 0.307 0.98323 0.34902 0.0
O100 O 0.28723 0.98333 0.36218 0.0
Mg101 Mg 0.29508 0.99001 0.38979 0.0
C102 C 0.2932 0.98137 0.34898 0.0
C103 C 0.35289 0.98786 0.34829 0.0
O104 O 0.35316 0.98094 0.36205 0.0
O105 O 0.33403 0.01584 0.3694 0.0
O106 O 0.3148 0.01584 0.38388 0.0
O107 O 0.31652 0.9635 0.37342 0.0
O108 O 0.31122 0.98043 0.38711 0.0
C109 C 0.32784 0.02325 0.37646 0.0
C110 C 0.30861 0.96596 0.38467 0.0
O111 O 0.34345 0.99316 0.34679 0.0
Mg112 Mg 0.01273 0.32293 0.3275 0.0
O113 O 0.03099 0.33266 0.34951 0.0
O114 O 0.05475 0.34817 0.33911 0.0
Mg115 Mg 0.05194 0.34802 0.3108 0.0
C116 C 0.04593 0.34188 0.35138 0.0
C117 C 0.98047 0.31552 0.34035 0.0
O118 O 0.98055 0.32162 0.32594 0.0
O119 O 0.01506 0.34764 0.32543 0.0
O120 O 0.03858 0.36177 0.31397 0.0
O121 O 0.01601 0.30163 0.3234 0.0
O122 O 0.0298 0.32494 0.3115 0.0
C123 C 0.0259 0.36054 0.31937 0.0
C124 C 0.02729 0.31069 0.31384 0.0
O125 O 0.99243 0.31466 0.34515 0.0
Mg126 Mg 0.65318 0.9795 0.35767 0.0
O127 O 0.66895 0.97455 0.34104 0.0
O128 O 0.68646 0.97237 0.3573 0.0
Mg129 Mg 0.68106 0.97513 0.38455 0.0
C130 C 0.68062 0.97234 0.34295 0.0
C131 C 0.63003 0.98178 0.3329 0.0
O132 O 0.62015 0.97055 0.3425 0.0
O133 O 0.67328 0.00497 0.36328 0.0
O134 O 0.68913 0.00218 0.38157 0.0
O135 O 0.6362 0.95321 0.35877 0.0
O136 O 0.65641 0.96719 0.37672 0.0
C137 C 0.68537 0.01095 0.3732 0.0
C138 C 0.64456 0.95347 0.37156 0.0
O139 O 0.64476 0.98779 0.33557 0.0
Mg140 Mg 0.01813 0.68948 0.32227 0.0
O141 O 0.03744 0.69657 0.34302 0.0
O142 O 0.06005 0.70389 0.33034 0.0
Mg143 Mg 0.05549 0.70163 0.30217 0.0
C144 C 0.05226 0.7016 0.34348 0.0
C145 C 0.98472 0.66854 0.33391 0.0
O146 O 0.98309 0.66685 0.3176 0.0
O147 O 0.01773 0.66597 0.31666 0.0
O148 O 0.04021 0.67391 0.30353 0.0
O149 O 0.02339 0.71495 0.32147 0.0
O150 O 0.03521 0.7048 0.30645 0.0
C151 C 0.02724 0.66286 0.30905 0.0
C152 C 0.03408 0.7171 0.31102 0.0
O153 O 0.99843 0.67742 0.34064 0.0
Mg154 Mg 0.3294 0.35505 0.35596 0.0
O155 O 0.30851 0.33921 0.33803 0.0
O156 O 0.28819 0.32212 0.35283 0.0
Mg157 Mg 0.29627 0.32802 0.38055 0.0
C158 C 0.29432 0.32769 0.33894 0.0
C159 C 0.36033 0.36672 0.33855 0.0
O160 O 0.36437 0.36668 0.35423 0.0
O161 O 0.33301 0.33401 0.36039 0.0
O162 O 0.31385 0.31873 0.37742 0.0
O163 O 0.32166 0.37308 0.35782 0.0
O164 O 0.31429 0.35288 0.37468 0.0
C165 C 0.32619 0.32191 0.36949 0.0
C166 C 0.31335 0.36512 0.37011 0.0
O167 O 0.34613 0.36249 0.33466 0.0
Mg168 Mg 0.35124 0.02463 0.66835 0.0
O169 O 0.33362 0.02992 0.68127 0.0
O170 O 0.3178 0.03086 0.66145 0.0
Mg171 Mg 0.32559 0.02662 0.63608 0.0
C172 C 0.32212 0.03178 0.67671 0.0
C173 C 0.36594 0.01117 0.6919 0.0
O174 O 0.36696 0.00549 0.67719 0.0
O175 O 0.33214 0.99843 0.66309 0.0
O176 O 0.31778 0.0004 0.64231 0.0
O177 O 0.36777 0.05089 0.66639 0.0
O178 O 0.3494 0.03546 0.6471 0.0
C179 C 0.3208 0.99201 0.65216 0.0
C180 C 0.36042 0.04962 0.65239 0.0
O181 O 0.35891 0.01917 0.69297 0.0
Mg182 Mg 0.00255 0.32102 0.6892 0.0
O183 O 0.98189 0.3149 0.67081 0.0
O184 O 0.9595 0.30343 0.68457 0.0
Mg185 Mg 0.96605 0.30373 0.71208 0.0
C186 C 0.96691 0.30824 0.67116 0.0
C187 C 0.03135 0.33319 0.66662 0.0
O188 O 0.03272 0.32233 0.67486 0.0
O189 O 0.00209 0.34319 0.69961 0.0
O190 O 0.97972 0.33151 0.71347 0.0
O191 O 0.99798 0.29574 0.68551 0.0
O192 O 0.98747 0.30358 0.70505 0.0
C193 C 0.99201 0.34407 0.70871 0.0
C194 C 0.98859 0.29214 0.69775 0.0
O195 O 0.01999 0.33556 0.66954 0.0
Mg196 Mg 0.68021 0.65198 0.67312 0.0
O197 O 0.70382 0.67062 0.6864 0.0
O198 O 0.71893 0.6865 0.66661 0.0
Mg199 Mg 0.70572 0.67777 0.64123 0.0
C200 C 0.71673 0.68252 0.68174 0.0
C201 C 0.65291 0.63978 0.69502 0.0
O202 O 0.64772 0.64002 0.67989 0.0
O203 O 0.67329 0.67114 0.67031 0.0
O204 O 0.68803 0.68539 0.64951 0.0
O205 O 0.68977 0.63551 0.6681 0.0
O206 O 0.6912 0.65379 0.65104 0.0
C207 C 0.67744 0.68233 0.66008 0.0
C208 C 0.69462 0.64291 0.65437 0.0
O209 O 0.66746 0.64456 0.69747 0.0
Mg210 Mg 0.32357 0.31523 0.69522 0.0
O211 O 0.33791 0.3099 0.67631 0.0
O212 O 0.35677 0.30861 0.69117 0.0
Mg213 Mg 0.35364 0.3114 0.71899 0.0
C214 C 0.34991 0.30804 0.67729 0.0
C215 C 0.29831 0.31808 0.67416 0.0
O216 O 0.28928 0.30664 0.68403 0.0
O217 O 0.34387 0.34091 0.69976 0.0
O218 O 0.36085 0.33814 0.7163 0.0
O219 O 0.3067 0.28883 0.6976 0.0
O220 O 0.3287 0.30311 0.71299 0.0
C221 C 0.35658 0.34692 0.70877 0.0
C222 C 0.31651 0.28932 0.70894 0.0
O223 O 0.31313 0.32371 0.675 0.0
Mg224 Mg 0.67752 0.01542 0.64912 0.0
O225 O 0.69719 0.02315 0.66916 0.0
O226 O 0.71956 0.02914 0.65676 0.0
Mg227 Mg 0.71422 0.02635 0.62853 0.0
C228 C 0.71182 0.02761 0.66982 0.0
C229 C 0.65108 0.01117 0.67238 0.0
O230 O 0.65328 0.02372 0.6642 0.0
O231 O 0.6766 0.99162 0.64411 0.0
O232 O 0.69843 0.99862 0.63011 0.0
O233 O 0.68277 0.04064 0.64767 0.0
O234 O 0.69401 0.03012 0.63218 0.0
C235 C 0.68554 0.98796 0.63614 0.0
C236 C 0.69286 0.04249 0.63661 0.0
O237 O 0.65922 0.00463 0.66902 0.0
Mg238 Mg 0.98946 0.67723 0.69042 0.0
O239 O 0.9698 0.66459 0.67024 0.0
O240 O 0.94655 0.65295 0.68239 0.0
Mg241 Mg 0.95148 0.659 0.7105 0.0
C242 C 0.95477 0.65619 0.66945 0.0
C243 C 0.02186 0.69082 0.67517 0.0
O244 O 0.02522 0.69941 0.68927 0.0
O245 O 0.98569 0.65304 0.69864 0.0
O246 O 0.96338 0.64363 0.71248 0.0
O247 O 0.98835 0.6998 0.68879 0.0
O248 O 0.97442 0.68042 0.70587 0.0
C249 C 0.97511 0.64253 0.70761 0.0
C250 C 0.9779 0.69411 0.70005 0.0
O251 O 0.00766 0.6799 0.67169 0.0
C252 C 0.19974 0.26397 0.05882 0.0
C253 C 0.20893 0.27914 0.07023 0.0
C254 C 0.19731 0.27769 0.09676 0.0
C255 C 0.19991 0.29332 0.09961 0.0
C256 C 0.19002 0.2961 0.10982 0.0
C257 C 0.17712 0.28289 0.11707 0.0
C258 C 0.17454 0.26709 0.1142 0.0
C259 C 0.18492 0.26477 0.10435 0.0
C260 C 0.19331 0.31312 0.11279 0.0
C261 C 0.16069 0.2526 0.12128 0.0
C262 C 0.08636 0.27563 0.06724 0.0
C263 C 0.08455 0.28523 0.08179 0.0
C264 C 0.10925 0.29467 0.09847 0.0
C265 C 0.10554 0.27947 0.10412 0.0
C266 C 0.11656 0.2776 0.11375 0.0
C267 C 0.13148 0.29124 0.11818 0.0
C268 C 0.13513 0.3066 0.11285 0.0
C269 C 0.12397 0.30808 0.10302 0.0
C270 C 0.11232 0.26098 0.11902 0.0
C271 C 0.15087 0.32142 0.1174 0.0
C272 C 0.10146 0.27602 0.22513 0.0
C273 C 0.10056 0.26293 0.21582 0.0
C274 C 0.11339 0.26478 0.20679 0.0
C275 C 0.12744 0.28 0.20709 0.0
C276 C 0.12844 0.29317 0.21649 0.0
C277 C 0.11541 0.29099 0.2254 0.0
C278 C 0.11192 0.25045 0.19687 0.0
C279 C 0.14323 0.30955 0.21702 0.0
C280 C 0.22741 0.2609 0.22699 0.0
C281 C 0.2213 0.27181 0.23337 0.0
C282 C 0.19556 0.26767 0.22388 0.0
C283 C 0.181 0.25549 0.21714 0.0
C284 C 0.17082 0.25916 0.20835 0.0
C285 C 0.17522 0.27549 0.20656 0.0
C286 C 0.18974 0.28792 0.2138 0.0
C287 C 0.19977 0.28389 0.22243 0.0
C288 C 0.15534 0.24556 0.20101 0.0
C289 C 0.19459 0.30543 0.21243 0.0
C290 C 0.16615 0.28552 0.12737 0.0
C291 C 0.15481 0.28783 0.11914 0.0
C292 C 0.14344 0.28933 0.12792 0.0
C293 C 0.14321 0.28832 0.14545 0.0
C294 C 0.13175 0.2894 0.15468 0.0
C295 C 0.13111 0.2875 0.17179 0.0
C296 C 0.14207 0.28471 0.18037 0.0
C297 C 0.14105 0.28198 0.1976 0.0
C298 C 0.15232 0.27959 0.20583 0.0
C299 C 0.16449 0.27946 0.19724 0.0
C300 C 0.1655 0.28181 0.17992 0.0
C301 C 0.17737 0.28141 0.1708 0.0
C302 C 0.17782 0.28297 0.15364 0.0
C303 C 0.16635 0.28488 0.14492 0.0
C304 C 0.15465 0.28597 0.15394 0.0
C305 C 0.15418 0.28434 0.17145 0.0
C306 C 0.06408 0.25889 0.21937 0.0
C307 C 0.07437 0.26136 0.23505 0.0
O308 O 0.20656 0.27483 0.08664 0.0
O309 O 0.20496 0.26324 0.23193 0.0
O310 O 0.08925 0.27484 0.2339 0.0
O311 O 0.09921 0.29695 0.08849 0.0
H312 H 0.20436 0.28734 0.06725 0.0
H313 H 0.18693 0.25816 0.06108 0.0
H314 H 0.20364 0.25517 0.06126 0.0
H315 H 0.20152 0.26713 0.04555 0.0
H316 H 0.20974 0.30332 0.09392 0.0
H317 H 0.18311 0.25276 0.10208 0.0
H318 H 0.18397 0.31442 0.10628 0.0
H319 H 0.20493 0.3222 0.10816 0.0
H320 H 0.19305 0.31575 0.12629 0.0
H321 H 0.15887 0.24107 0.11562 0.0
H322 H 0.1497 0.25304 0.11929 0.0
H323 H 0.16279 0.25268 0.1349 0.0
H324 H 0.07755 0.27684 0.09152 0.0
H325 H 0.09246 0.26924 0.07149 0.0
H326 H 0.09336 0.28378 0.05735 0.0
H327 H 0.07457 0.26643 0.06183 0.0
H328 H 0.09417 0.26893 0.10095 0.0
H329 H 0.12676 0.31977 0.09871 0.0
H330 H 0.11182 0.26063 0.13278 0.0
H331 H 0.12154 0.2582 0.11527 0.0
H332 H 0.10074 0.25142 0.11349 0.0
H333 H 0.15141 0.33267 0.11351 0.0
H334 H 0.16036 0.32034 0.1113 0.0
H335 H 0.1533 0.32238 0.13107 0.0
H336 H 0.07529 0.25043 0.23679 0.0
H337 H 0.08991 0.25123 0.21544 0.0
H338 H 0.11602 0.30102 0.2326 0.0
H339 H 0.11307 0.253 0.18344 0.0
H340 H 0.10045 0.23925 0.19849 0.0
H341 H 0.1216 0.24831 0.2007 0.0
H342 H 0.14198 0.31871 0.22453 0.0
H343 H 0.14622 0.31372 0.20416 0.0
H344 H 0.15326 0.30868 0.22241 0.0
H345 H 0.22637 0.28254 0.22557 0.0
H346 H 0.24053 0.26748 0.2277 0.0
H347 H 0.2234 0.25702 0.21377 0.0
H348 H 0.22288 0.24998 0.23443 0.0
H349 H 0.17775 0.24302 0.21857 0.0
H350 H 0.21074 0.29341 0.22822 0.0
H351 H 0.15418 0.24722 0.18755 0.0
H352 H 0.14545 0.24574 0.20725 0.0
H353 H 0.15417 0.23356 0.20248 0.0
H354 H 0.20609 0.31369 0.21907 0.0
H355 H 0.18542 0.30762 0.21765 0.0
H356 H 0.19553 0.3084 0.19911 0.0
H357 H 0.15465 0.28817 0.10567 0.0
H358 H 0.12297 0.29145 0.14872 0.0
H359 H 0.12186 0.28818 0.17821 0.0
H360 H 0.15131 0.27726 0.219 0.0
H361 H 0.18636 0.27971 0.17681 0.0
H362 H 0.18718 0.28248 0.14727 0.0
H363 H 0.0521 0.24823 0.22049 0.0
H364 H 0.06931 0.25675 0.20818 0.0
H365 H 0.063 0.2697 0.21749 0.0
C366 C 0.75398 0.93697 0.06117 0.0
C367 C 0.7398 0.92932 0.07229 0.0
C368 C 0.73931 0.92521 0.10182 0.0
C369 C 0.7231 0.91547 0.10404 0.0
C370 C 0.71756 0.9043 0.1166 0.0
C371 C 0.7285 0.90255 0.12678 0.0
C372 C 0.74492 0.91305 0.12511 0.0
C373 C 0.75009 0.92454 0.11285 0.0
C374 C 0.7 0.89373 0.11833 0.0
C375 C 0.75701 0.91142 0.13542 0.0
C376 C 0.71202 0.81218 0.06624 0.0
C377 C 0.70618 0.80194 0.08154 0.0
C378 C 0.70139 0.81854 0.10186 0.0
C379 C 0.71733 0.82946 0.10639 0.0
C380 C 0.72153 0.8424 0.11788 0.0
C381 C 0.70959 0.84463 0.12477 0.0
C382 C 0.69355 0.83361 0.12036 0.0
C383 C 0.68968 0.82063 0.10904 0.0
C384 C 0.73876 0.85392 0.12239 0.0
C385 C 0.68054 0.83578 0.12727 0.0
C386 C 0.70734 0.81718 0.23058 0.0
C387 C 0.72284 0.82885 0.22684 0.0
C388 C 0.72592 0.84298 0.21907 0.0
C389 C 0.71331 0.84557 0.21508 0.0
C390 C 0.69778 0.83407 0.21919 0.0
C391 C 0.69501 0.82 0.22687 0.0
C392 C 0.74264 0.85503 0.21487 0.0
C393 C 0.68408 0.83651 0.21517 0.0
C394 C 0.75354 0.9744 0.24312 0.0
C395 C 0.74061 0.95699 0.24552 0.0
C396 C 0.74124 0.93279 0.23632 0.0
C397 C 0.75175 0.92792 0.2312 0.0
C398 C 0.74644 0.91346 0.22176 0.0
C399 C 0.73015 0.90353 0.21759 0.0
C400 C 0.71934 0.90806 0.2233 0.0
C401 C 0.72499 0.92266 0.23265 0.0
C402 C 0.75827 0.90888 0.21609 0.0
C403 C 0.70186 0.89753 0.21939 0.0
C404 C 0.72288 0.88791 0.13658 0.0
C405 C 0.71832 0.87348 0.12754 0.0
C406 C 0.71398 0.85922 0.13548 0.0
C407 C 0.71429 0.85923 0.15304 0.0
C408 C 0.71054 0.8452 0.16142 0.0
C409 C 0.71112 0.84538 0.17873 0.0
C410 C 0.71543 0.85961 0.18831 0.0
C411 C 0.71631 0.85997 0.2059 0.0
C412 C 0.72077 0.87433 0.21506 0.0
C413 C 0.7245 0.88849 0.2071 0.0
C414 C 0.72363 0.88838 0.1895 0.0
C415 C 0.72729 0.9024 0.18106 0.0
C416 C 0.72684 0.90225 0.16372 0.0
C417 C 0.72281 0.88811 0.15418 0.0
C418 C 0.71866 0.87372 0.16243 0.0
C419 C 0.71914 0.87388 0.18009 0.0
C420 C 0.71772 0.79101 0.22558 0.0
C421 C 0.71384 0.79743 0.2414 0.0
O422 O 0.7448 0.93478 0.08867 0.0
O423 O 0.74725 0.94726 0.24482 0.0
O424 O 0.70368 0.80301 0.2375 0.0
O425 O 0.69672 0.80602 0.09052 0.0
H426 H 0.73468 0.916 0.071 0.0
H427 H 0.76272 0.93352 0.06515 0.0
H428 H 0.7598 0.95035 0.06205 0.0
H429 H 0.75019 0.93266 0.04799 0.0
H430 H 0.71477 0.91635 0.09574 0.0
H431 H 0.7626 0.93231 0.11108 0.0
H432 H 0.69593 0.88179 0.11195 0.0
H433 H 0.69339 0.89907 0.11261 0.0
H434 H 0.6971 0.89176 0.13165 0.0
H435 H 0.76926 0.9197 0.13166 0.0
H436 H 0.75465 0.89884 0.13423 0.0
H437 H 0.75622 0.91415 0.14875 0.0
H438 H 0.71638 0.80367 0.08948 0.0
H439 H 0.71959 0.80892 0.05896 0.0
H440 H 0.71914 0.82518 0.07012 0.0
H441 H 0.70188 0.81028 0.05811 0.0
H442 H 0.72662 0.82818 0.10091 0.0
H443 H 0.67742 0.81216 0.10548 0.0
H444 H 0.74064 0.85586 0.13613 0.0
H445 H 0.74243 0.86579 0.11711 0.0
H446 H 0.74646 0.84947 0.11757 0.0
H447 H 0.66866 0.82632 0.12232 0.0
H448 H 0.68241 0.84779 0.12416 0.0
H449 H 0.68087 0.83542 0.14105 0.0
H450 H 0.72487 0.80728 0.2477 0.0
H451 H 0.73259 0.827 0.22972 0.0
H452 H 0.68311 0.81099 0.22984 0.0
H453 H 0.74326 0.85685 0.20127 0.0
H454 H 0.75113 0.85114 0.21854 0.0
H455 H 0.74634 0.86686 0.22132 0.0
H456 H 0.67284 0.82687 0.22001 0.0
H457 H 0.68259 0.83663 0.20146 0.0
H458 H 0.68654 0.84837 0.22055 0.0
H459 H 0.73157 0.95358 0.23521 0.0
H460 H 0.74851 0.98249 0.24325 0.0
H461 H 0.75893 0.97522 0.23092 0.0
H462 H 0.76293 0.97863 0.25314 0.0
H463 H 0.76422 0.9357 0.23432 0.0
H464 H 0.7167 0.92605 0.23714 0.0
H465 H 0.75765 0.90751 0.20228 0.0
H466 H 0.75533 0.89707 0.22103 0.0
H467 H 0.77055 0.91799 0.22028 0.0
H468 H 0.69494 0.90257 0.22501 0.0
H469 H 0.69762 0.88531 0.22406 0.0
H470 H 0.69957 0.89613 0.20568 0.0
H471 H 0.71841 0.87339 0.11404 0.0
H472 H 0.70722 0.83393 0.15469 0.0
H473 H 0.70819 0.83422 0.18449 0.0
H474 H 0.72165 0.87456 0.22855 0.0
H475 H 0.73063 0.91368 0.18778 0.0
H476 H 0.72979 0.91337 0.15785 0.0
H477 H 0.7068 0.78089 0.21946 0.0
H478 H 0.726 0.7867 0.22868 0.0
H479 H 0.72345 0.80065 0.21657 0.0
C480 C 0.19368 0.927 0.07265 0.0
C481 C 0.20684 0.93137 0.08595 0.0
C482 C 0.19297 0.90887 0.10454 0.0
C483 C 0.1829 0.91389 0.11114 0.0
C484 C 0.17051 0.90382 0.1212 0.0
C485 C 0.16829 0.88854 0.12496 0.0
C486 C 0.17877 0.88373 0.1189 0.0
C487 C 0.19099 0.89398 0.10877 0.0
C488 C 0.15957 0.90934 0.12752 0.0
C489 C 0.17684 0.8676 0.12284 0.0
C490 C 0.06798 0.81891 0.05942 0.0
C491 C 0.07646 0.81377 0.0718 0.0
C492 C 0.08732 0.82686 0.09917 0.0
C493 C 0.09916 0.82292 0.10122 0.0
C494 C 0.1118 0.83165 0.11285 0.0
C495 C 0.11275 0.84479 0.12237 0.0
C496 C 0.10063 0.8486 0.12046 0.0
C497 C 0.08787 0.83928 0.10916 0.0
C498 C 0.1243 0.82702 0.11469 0.0
C499 C 0.10137 0.86281 0.1299 0.0
C500 C 0.08655 0.83158 0.23368 0.0
C501 C 0.09695 0.82582 0.23075 0.0
C502 C 0.10981 0.83403 0.22049 0.0
C503 C 0.11227 0.8482 0.21298 0.0
C504 C 0.10146 0.85364 0.21539 0.0
C505 C 0.08869 0.84519 0.22566 0.0
C506 C 0.12099 0.82778 0.21795 0.0
C507 C 0.10365 0.86866 0.20752 0.0
C508 C 0.21879 0.95391 0.23654 0.0
C509 C 0.20942 0.94281 0.2504 0.0
C510 C 0.19288 0.91612 0.23605 0.0
C511 C 0.19084 0.90072 0.23348 0.0
C512 C 0.17837 0.88887 0.2232 0.0
C513 C 0.16762 0.89253 0.21533 0.0
C514 C 0.16959 0.90809 0.21784 0.0
C515 C 0.18223 0.91975 0.22808 0.0
C516 C 0.17664 0.87242 0.22075 0.0
C517 C 0.15826 0.91236 0.20975 0.0
C518 C 0.15447 0.87723 0.13441 0.0
C519 C 0.14072 0.86624 0.12527 0.0
C520 C 0.12705 0.8554 0.13316 0.0
C521 C 0.12705 0.85544 0.15077 0.0
C522 C 0.11364 0.84455 0.15919 0.0
C523 C 0.11353 0.84526 0.17651 0.0
C524 C 0.12689 0.85677 0.18607 0.0
C525 C 0.12672 0.85801 0.20362 0.0
C526 C 0.14027 0.86952 0.21273 0.0
C527 C 0.15407 0.88 0.20482 0.0
C528 C 0.15447 0.87899 0.18727 0.0
C529 C 0.16814 0.88934 0.17888 0.0
C530 C 0.16824 0.88866 0.16157 0.0
C531 C 0.15466 0.87762 0.152 0.0
C532 C 0.14085 0.86677 0.1602 0.0
C533 C 0.14077 0.86743 0.17786 0.0
C534 C 0.05671 0.80865 0.26442 0.0
C535 C 0.07199 0.81308 0.25568 0.0
O536 O 0.20448 0.91775 0.09387 0.0
O537 O 0.20522 0.92698 0.24624 0.0
O538 O 0.0746 0.82473 0.24443 0.0
O539 O 0.07524 0.81897 0.08767 0.0
H540 H 0.20722 0.94041 0.09521 0.0
H541 H 0.18207 0.9222 0.07838 0.0
H542 H 0.1929 0.91769 0.06351 0.0
H543 H 0.19603 0.93788 0.06592 0.0
H544 H 0.18446 0.92553 0.10833 0.0
H545 H 0.19888 0.89026 0.10377 0.0
H546 H 0.14727 0.90067 0.12299 0.0
H547 H 0.16282 0.92154 0.12344 0.0
H548 H 0.15978 0.90957 0.14134 0.0
H549 H 0.18665 0.86613 0.11822 0.0
H550 H 0.16555 0.85779 0.11703 0.0
H551 H 0.17627 0.86617 0.1365 0.0
H552 H 0.08905 0.81957 0.06838 0.0
H553 H 0.06909 0.81538 0.04645 0.0
H554 H 0.07335 0.83223 0.06038 0.0
H555 H 0.05526 0.81324 0.06211 0.0
H556 H 0.09851 0.813 0.09376 0.0
H557 H 0.07856 0.84211 0.10755 0.0
H558 H 0.1351 0.83595 0.10855 0.0
H559 H 0.12039 0.81487 0.10887 0.0
H560 H 0.1275 0.82714 0.12804 0.0
H561 H 0.0924 0.86562 0.12505 0.0
H562 H 0.11324 0.8737 0.12919 0.0
H563 H 0.09922 0.86009 0.14322 0.0
H564 H 0.07031 0.80209 0.24882 0.0
H565 H 0.09524 0.81508 0.23658 0.0
H566 H 0.08053 0.84945 0.22786 0.0
H567 H 0.1225 0.82654 0.20444 0.0
H568 H 0.1168 0.81593 0.22354 0.0
H569 H 0.13277 0.83659 0.22369 0.0
H570 H 0.09412 0.87122 0.21052 0.0
H571 H 0.10388 0.86732 0.19378 0.0
H572 H 0.11517 0.87919 0.21189 0.0
H573 H 0.19872 0.94368 0.25248 0.0
H574 H 0.22229 0.9666 0.24002 0.0
H575 H 0.21149 0.95031 0.22477 0.0
H576 H 0.22957 0.95325 0.23426 0.0
H577 H 0.19909 0.898 0.23962 0.0
H578 H 0.1836 0.9316 0.22975 0.0
H579 H 0.17625 0.86938 0.20725 0.0
H580 H 0.16532 0.86318 0.2258 0.0
H581 H 0.18645 0.87173 0.22702 0.0
H582 H 0.161 0.92477 0.21349 0.0
H583 H 0.146 0.90367 0.21315 0.0
H584 H 0.1587 0.91144 0.196 0.0
H585 H 0.14061 0.86629 0.11177 0.0
H586 H 0.10301 0.83549 0.15245 0.0
H587 H 0.1028 0.83673 0.18233 0.0
H588 H 0.13996 0.87057 0.22618 0.0
H589 H 0.17889 0.89818 0.18561 0.0
H590 H 0.17906 0.89701 0.15577 0.0
H591 H 0.0534 0.79842 0.2726 0.0
H592 H 0.04691 0.80489 0.255 0.0
H593 H 0.05804 0.81916 0.27201 0.0
C594 C 0.30168 0.0921 0.96415 0.0
C595 C 0.29039 0.0889 0.94923 0.0
C596 C 0.29614 0.10412 0.92399 0.0
C597 C 0.28087 0.10126 0.92033 0.0
C598 C 0.27836 0.11085 0.90929 0.0
C599 C 0.29142 0.12379 0.90198 0.0
C600 C 0.30679 0.12646 0.90531 0.0
C601 C 0.3089 0.11635 0.91603 0.0
C602 C 0.26174 0.10736 0.90576 0.0
C603 C 0.32104 0.14031 0.89799 0.0
C604 C 0.2682 0.19235 0.96954 0.0
C605 C 0.28048 0.19748 0.95616 0.0
C606 C 0.27599 0.18682 0.9276 0.0
C607 C 0.29144 0.19086 0.92404 0.0
C608 C 0.29426 0.18214 0.91164 0.0
C609 C 0.28132 0.16891 0.90287 0.0
C610 C 0.26574 0.16531 0.90593 0.0
C611 C 0.26332 0.17459 0.91806 0.0
C612 C 0.31104 0.18663 0.90843 0.0
C613 C 0.25161 0.15113 0.89709 0.0
C614 C 0.26677 0.18021 0.78886 0.0
C615 C 0.28277 0.18662 0.79361 0.0
C616 C 0.28735 0.17875 0.80497 0.0
C617 C 0.27571 0.16434 0.81183 0.0
C618 C 0.25956 0.1584 0.80777 0.0
C619 C 0.25533 0.16646 0.79636 0.0
C620 C 0.30464 0.18551 0.80923 0.0
C621 C 0.2468 0.14316 0.81496 0.0
C622 C 0.28284 0.06094 0.79339 0.0
C623 C 0.28674 0.07252 0.77922 0.0
C624 C 0.29384 0.09857 0.79341 0.0
C625 C 0.30641 0.11397 0.79792 0.0
C626 C 0.30403 0.12526 0.80688 0.0
C627 C 0.28863 0.12099 0.81145 0.0
C628 C 0.27577 0.1055 0.80676 0.0
C629 C 0.27848 0.09442 0.7978 0.0
C630 C 0.31799 0.14171 0.81162 0.0
C631 C 0.25918 0.10062 0.81143 0.0
C632 C 0.28904 0.13523 0.892 0.0
C633 C 0.28688 0.14672 0.90069 0.0
C634 C 0.28399 0.15759 0.89238 0.0
C635 C 0.28337 0.15717 0.87477 0.0
C636 C 0.28064 0.168 0.86595 0.0
C637 C 0.27962 0.16717 0.8486 0.0
C638 C 0.28155 0.15563 0.83942 0.0
C639 C 0.28035 0.15451 0.8218 0.0
C640 C 0.28278 0.14317 0.81311 0.0
C641 C 0.28606 0.13261 0.8215 0.0
C642 C 0.28684 0.13321 0.8391 0.0
C643 C 0.28962 0.12241 0.84792 0.0
C644 C 0.29023 0.12296 0.86523 0.0
C645 C 0.28834 0.13451 0.8744 0.0
C646 C 0.28552 0.14554 0.86576 0.0
C647 C 0.28468 0.14483 0.84808 0.0
C648 C 0.25961 0.20127 0.75514 0.0
C649 C 0.27088 0.19823 0.76579 0.0
O650 O 0.29899 0.09549 0.93523 0.0
O651 O 0.29717 0.08821 0.78502 0.0
O652 O 0.26182 0.18641 0.77672 0.0
O653 O 0.27297 0.19412 0.94054 0.0
H654 H 0.28401 0.09533 0.95274 0.0
H655 H 0.30821 0.10521 0.96765 0.0
H656 H 0.31063 0.08872 0.96109 0.0
H657 H 0.29506 0.0856 0.97508 0.0
H658 H 0.27084 0.0916 0.92608 0.0
H659 H 0.32063 0.11839 0.9188 0.0
H660 H 0.2602 0.1169 0.91203 0.0
H661 H 0.25275 0.09549 0.91029 0.0
H662 H 0.25955 0.10751 0.89218 0.0
H663 H 0.33227 0.14137 0.90264 0.0
H664 H 0.32136 0.15182 0.90106 0.0
H665 H 0.32023 0.1386 0.88422 0.0
H666 H 0.28645 0.19033 0.95779 0.0
H667 H 0.27404 0.19511 0.98215 0.0
H668 H 0.25983 0.17915 0.9681 0.0
H669 H 0.26136 0.19864 0.96843 0.0
H670 H 0.30129 0.20066 0.93115 0.0
H671 H 0.25145 0.17172 0.92082 0.0
H672 H 0.31273 0.18628 0.89484 0.0
H673 H 0.31356 0.17774 0.9141 0.0
H674 H 0.31969 0.19884 0.91384 0.0
H675 H 0.24027 0.1494 0.90163 0.0
H676 H 0.25197 0.13991 0.89889 0.0
H677 H 0.2519 0.15299 0.88353 0.0
H678 H 0.27905 0.20955 0.7731 0.0
H679 H 0.29173 0.1975 0.7882 0.0
H680 H 0.24301 0.16171 0.79278 0.0
H681 H 0.30671 0.18666 0.82296 0.0
H682 H 0.31217 0.19751 0.80399 0.0
H683 H 0.30833 0.17706 0.80427 0.0
H684 H 0.23477 0.14061 0.81125 0.0
H685 H 0.24811 0.14415 0.82876 0.0
H686 H 0.24802 0.13277 0.81066 0.0
H687 H 0.27574 0.07156 0.77386 0.0
H688 H 0.27449 0.04833 0.78879 0.0
H689 H 0.2772 0.06403 0.80355 0.0
H690 H 0.29375 0.06167 0.79862 0.0
H691 H 0.3182 0.11709 0.79447 0.0
H692 H 0.26858 0.08256 0.79444 0.0
H693 H 0.31927 0.14354 0.82539 0.0
H694 H 0.31598 0.15121 0.80665 0.0
H695 H 0.32919 0.14328 0.80683 0.0
H696 H 0.2504 0.0882 0.80667 0.0
H697 H 0.25586 0.10917 0.80637 0.0
H698 H 0.25864 0.10126 0.82519 0.0
H699 H 0.28725 0.14707 0.91421 0.0
H700 H 0.27913 0.17716 0.8724 0.0
H701 H 0.27735 0.1757 0.84243 0.0
H702 H 0.28191 0.1424 0.7996 0.0
H703 H 0.29125 0.1133 0.84153 0.0
H704 H 0.29227 0.11426 0.87135 0.0
H705 H 0.26605 0.21264 0.74855 0.0
H706 H 0.25124 0.20255 0.76325 0.0
H707 H 0.25267 0.19106 0.74594 0.0
C708 C 0.81191 0.05538 0.95088 0.0
C709 C 0.80666 0.06584 0.94203 0.0
C710 C 0.81605 0.07652 0.9151 0.0
C711 C 0.81434 0.09014 0.91553 0.0
C712 C 0.82359 0.10325 0.90571 0.0
C713 C 0.83504 0.10283 0.8956 0.0
C714 C 0.83664 0.08896 0.89508 0.0
C715 C 0.82679 0.07579 0.90455 0.0
C716 C 0.8213 0.11764 0.90638 0.0
C717 C 0.84904 0.08816 0.88497 0.0
C718 C 0.92246 0.17964 0.95541 0.0
C719 C 0.92782 0.19217 0.942 0.0
C720 C 0.90482 0.18039 0.92214 0.0
C721 C 0.90697 0.16801 0.91532 0.0
C722 C 0.89584 0.15638 0.90372 0.0
C723 C 0.8823 0.1571 0.89887 0.0
C724 C 0.8803 0.16976 0.90539 0.0
C725 C 0.89164 0.18128 0.91688 0.0
C726 C 0.89838 0.14309 0.8969 0.0
C727 C 0.86598 0.17087 0.9005 0.0
C728 C 0.90402 0.18471 0.79174 0.0
C729 C 0.90511 0.17095 0.79471 0.0
C730 C 0.89331 0.15803 0.8031 0.0
C731 C 0.88004 0.15875 0.80844 0.0
C732 C 0.8787 0.17238 0.80511 0.0
C733 C 0.89076 0.18521 0.79686 0.0
C734 C 0.89507 0.14362 0.80638 0.0
C735 C 0.86458 0.17342 0.81041 0.0
C736 C 0.77663 0.03876 0.78534 0.0
C737 C 0.78345 0.05519 0.77762 0.0
C738 C 0.81024 0.0764 0.78678 0.0
C739 C 0.82448 0.07796 0.79248 0.0
C740 C 0.83568 0.09173 0.80189 0.0
C741 C 0.83257 0.10433 0.80551 0.0
C742 C 0.81843 0.10313 0.79923 0.0
C743 C 0.80743 0.08921 0.78982 0.0
C744 C 0.85075 0.09271 0.80813 0.0
C745 C 0.81494 0.11652 0.80259 0.0
C746 C 0.84603 0.11726 0.88646 0.0
C747 C 0.85824 0.1303 0.89571 0.0
C748 C 0.86966 0.14394 0.888 0.0
C749 C 0.86906 0.14458 0.87047 0.0
C750 C 0.88057 0.15791 0.86225 0.0
C751 C 0.88008 0.15824 0.84495 0.0
C752 C 0.86804 0.14525 0.83521 0.0
C753 C 0.86765 0.14527 0.8176 0.0
C754 C 0.85571 0.13199 0.80831 0.0
C755 C 0.84404 0.11861 0.81612 0.0
C756 C 0.84403 0.11851 0.83371 0.0
C757 C 0.83225 0.10539 0.84197 0.0
C758 C 0.83267 0.10511 0.85926 0.0
C759 C 0.84501 0.11783 0.86894 0.0
C760 C 0.85671 0.13144 0.86091 0.0
C761 C 0.85619 0.13179 0.84327 0.0
C762 C 0.94138 0.2045 0.79392 0.0
C763 C 0.92979 0.20023 0.77896 0.0
O764 O 0.80769 0.06407 0.92502 0.0
O765 O 0.79976 0.06255 0.77812 0.0
O766 O 0.91543 0.1978 0.78421 0.0
O767 O 0.91491 0.19156 0.93391 0.0
H768 H 0.81477 0.07861 0.94656 0.0
H769 H 0.82422 0.05911 0.94776 0.0
H770 H 0.80413 0.04245 0.94694 0.0
H771 H 0.81154 0.05683 0.96461 0.0
H772 H 0.80577 0.09047 0.92355 0.0
H773 H 0.82792 0.06514 0.90432 0.0
H774 H 0.83138 0.1278 0.91355 0.0
H775 H 0.81023 0.11496 0.91246 0.0
H776 H 0.82103 0.12165 0.89363 0.0
H777 H 0.8506 0.0779 0.88829 0.0
H778 H 0.86058 0.09952 0.8868 0.0
H779 H 0.8455 0.08661 0.87155 0.0
H780 H 0.93496 0.18993 0.93292 0.0
H781 H 0.91537 0.16726 0.94967 0.0
H782 H 0.9151 0.18153 0.96449 0.0
H783 H 0.93287 0.18053 0.96216 0.0
H784 H 0.91714 0.16716 0.91908 0.0
H785 H 0.8901 0.19089 0.92211 0.0
H786 H 0.89754 0.14253 0.88307 0.0
H787 H 0.88897 0.1313 0.90112 0.0
H788 H 0.91003 0.14482 0.90098 0.0
H789 H 0.86637 0.18171 0.90632 0.0
H790 H 0.85515 0.15994 0.90431 0.0
H791 H 0.86508 0.17127 0.88676 0.0
H792 H 0.92817 0.1892 0.77217 0.0
H793 H 0.91515 0.17018 0.79066 0.0
H794 H 0.88993 0.1958 0.79445 0.0
H795 H 0.89425 0.14142 0.8199 0.0
H796 H 0.90647 0.14523 0.80219 0.0
H797 H 0.8853 0.13271 0.79978 0.0
H798 H 0.86495 0.18451 0.80623 0.0
H799 H 0.8641 0.17333 0.82419 0.0
H800 H 0.85356 0.16272 0.80525 0.0
H801 H 0.77941 0.06231 0.78499 0.0
H802 H 0.76354 0.03261 0.78528 0.0
H803 H 0.78114 0.0404 0.79845 0.0
H804 H 0.78011 0.03096 0.77834 0.0
H805 H 0.82667 0.06816 0.7898 0.0
H806 H 0.7968 0.08849 0.78473 0.0
H807 H 0.85125 0.09318 0.82196 0.0
H808 H 0.86109 0.10396 0.8041 0.0
H809 H 0.85173 0.08224 0.80355 0.0
H810 H 0.80335 0.11371 0.79698 0.0
H811 H 0.82433 0.12786 0.7975 0.0
H812 H 0.81499 0.11872 0.81624 0.0
H813 H 0.85902 0.12975 0.90913 0.0
H814 H 0.89016 0.16819 0.86911 0.0
H815 H 0.88933 0.16876 0.83929 0.0
H816 H 0.85571 0.13193 0.79482 0.0
H817 H 0.82259 0.09515 0.83515 0.0
H818 H 0.8233 0.0947 0.86494 0.0
H819 H 0.95304 0.20694 0.78962 0.0
H820 H 0.93701 0.1944 0.80246 0.0
H821 H 0.94297 0.21535 0.80104 0.0
C822 C 0.80936 0.72053 0.95193 0.0
C823 C 0.79629 0.71 0.9388 0.0
C824 C 0.8111 0.70465 0.91765 0.0
C825 C 0.81955 0.72043 0.91203 0.0
C826 C 0.83141 0.7246 0.90051 0.0
C827 C 0.83459 0.71267 0.89419 0.0
C828 C 0.82561 0.69664 0.89925 0.0
C829 C 0.81402 0.69287 0.91098 0.0
C830 C 0.84086 0.74185 0.89545 0.0
C831 C 0.82856 0.68357 0.89261 0.0
C832 C 0.94899 0.75445 0.93226 0.0
C833 C 0.9335 0.73889 0.93527 0.0
C834 C 0.91537 0.72951 0.91069 0.0
C835 C 0.90636 0.71591 0.9001 0.0
C836 C 0.89355 0.71427 0.89039 0.0
C837 C 0.89002 0.72686 0.8909 0.0
C838 C 0.89954 0.74099 0.90104 0.0
C839 C 0.91207 0.74215 0.91091 0.0
C840 C 0.88352 0.69888 0.87997 0.0
C841 C 0.89632 0.75478 0.90167 0.0
C842 C 0.91501 0.74573 0.78625 0.0
C843 C 0.90598 0.72963 0.79063 0.0
C844 C 0.89147 0.7241 0.79813 0.0
C845 C 0.88615 0.73505 0.80172 0.0
C846 C 0.8949 0.75109 0.79651 0.0
C847 C 0.90913 0.75614 0.78855 0.0
C848 C 0.88212 0.7067 0.80276 0.0
C849 C 0.88954 0.76308 0.79991 0.0
C850 C 0.7657 0.71478 0.7762 0.0
C851 C 0.78375 0.72368 0.77781 0.0
C852 C 0.80234 0.71551 0.78819 0.0
C853 C 0.8049 0.70255 0.78968 0.0
C854 C 0.8186 0.70455 0.79787 0.0
C855 C 0.83005 0.71994 0.8047 0.0
C856 C 0.82763 0.73316 0.80315 0.0
C857 C 0.81384 0.73084 0.79494 0.0
C858 C 0.82082 0.6902 0.79933 0.0
C859 C 0.83962 0.74977 0.81026 0.0
C860 C 0.84812 0.71722 0.88338 0.0
C861 C 0.8623 0.72022 0.89102 0.0
C862 C 0.8757 0.72471 0.88184 0.0
C863 C 0.87506 0.72652 0.86451 0.0
C864 C 0.88848 0.7317 0.855 0.0
C865 C 0.88764 0.73309 0.8379 0.0
C866 C 0.8733 0.72921 0.82959 0.0
C867 C 0.87224 0.73015 0.81212 0.0
C868 C 0.85792 0.72668 0.80436 0.0
C869 C 0.84453 0.72231 0.8136 0.0
C870 C 0.84529 0.72095 0.83103 0.0
C871 C 0.832 0.71633 0.84068 0.0
C872 C 0.83287 0.71507 0.85782 0.0
C873 C 0.84708 0.71845 0.86598 0.0
C874 C 0.86063 0.72314 0.85652 0.0
C875 C 0.85973 0.7244 0.83903 0.0
C876 C 0.95633 0.76477 0.79039 0.0
C877 C 0.94103 0.7487 0.78677 0.0
O878 O 0.80033 0.70026 0.92968 0.0
O879 O 0.78874 0.71269 0.78018 0.0
O880 O 0.9296 0.75161 0.78017 0.0
O881 O 0.92705 0.72992 0.92044 0.0
H882 H 0.79413 0.71771 0.93035 0.0
H883 H 0.82059 0.72865 0.946 0.0
H884 H 0.81146 0.71287 0.96048 0.0
H885 H 0.80597 0.72818 0.95934 0.0
H886 H 0.81724 0.72964 0.9168 0.0
H887 H 0.80735 0.6807 0.91526 0.0
H888 H 0.85359 0.74669 0.89847 0.0
H889 H 0.83717 0.74979 0.90177 0.0
H890 H 0.83946 0.74233 0.88178 0.0
H891 H 0.81938 0.67139 0.89624 0.0
H892 H 0.84023 0.68596 0.89751 0.0
H893 H 0.82888 0.68365 0.87881 0.0
H894 H 0.9252 0.74216 0.94098 0.0
H895 H 0.9544 0.76132 0.94426 0.0
H896 H 0.94672 0.76221 0.92407 0.0
H897 H 0.95749 0.75176 0.92615 0.0
H898 H 0.90909 0.7063 0.8999 0.0
H899 H 0.9192 0.75294 0.91872 0.0
H900 H 0.88462 0.70157 0.86658 0.0
H901 H 0.8709 0.69363 0.88287 0.0
H902 H 0.88703 0.68973 0.88205 0.0
H903 H 0.90607 0.76578 0.90821 0.0
H904 H 0.8853 0.75111 0.90831 0.0
H905 H 0.89456 0.75777 0.88886 0.0
H906 H 0.93742 0.74277 0.79887 0.0
H907 H 0.91037 0.72145 0.78833 0.0
H908 H 0.91613 0.76848 0.78485 0.0
H909 H 0.88362 0.70599 0.81636 0.0
H910 H 0.8861 0.69912 0.7962 0.0
H911 H 0.86934 0.70164 0.79978 0.0
H912 H 0.89829 0.77539 0.79618 0.0
H913 H 0.88743 0.76364 0.81337 0.0
H914 H 0.87821 0.75907 0.79292 0.0
H915 H 0.78673 0.73173 0.78917 0.0
H916 H 0.76153 0.72305 0.77236 0.0
H917 H 0.76078 0.71021 0.78849 0.0
H918 H 0.76098 0.70414 0.76738 0.0
H919 H 0.79606 0.69079 0.78444 0.0
H920 H 0.81224 0.74111 0.79389 0.0
H921 H 0.82191 0.68812 0.81267 0.0
H922 H 0.83195 0.69271 0.79351 0.0
H923 H 0.81087 0.67902 0.79328 0.0
H924 H 0.83608 0.75886 0.80792 0.0
H925 H 0.85121 0.75377 0.80469 0.0
H926 H 0.84125 0.74935 0.8239 0.0
H927 H 0.86289 0.71894 0.90434 0.0
H928 H 0.89979 0.73474 0.8607 0.0
H929 H 0.8984 0.7372 0.83127 0.0
H930 H 0.85725 0.72763 0.791 0.0
H931 H 0.82075 0.71358 0.83507 0.0
H932 H 0.82226 0.7114 0.86461 0.0
H933 H 0.96063 0.77148 0.77884 0.0
H934 H 0.96561 0.76267 0.7958 0.0
H935 H 0.95422 0.77232 0.79951 0.0
C936 C 0.87302 0.60695 0.38561 0.0
C937 C 0.88301 0.62007 0.39904 0.0
C938 C 0.86852 0.61517 0.4243 0.0
C939 C 0.87061 0.63036 0.42873 0.0
C940 C 0.85986 0.63179 0.43887 0.0
C941 C 0.8467 0.61771 0.44454 0.0
C942 C 0.84461 0.60235 0.44006 0.0
C943 C 0.85575 0.60132 0.43023 0.0
C944 C 0.86262 0.64836 0.44361 0.0
C945 C 0.8306 0.58705 0.44562 0.0
C946 C 0.74677 0.60459 0.40518 0.0
C947 C 0.74778 0.61516 0.4204 0.0
C948 C 0.77479 0.62553 0.43207 0.0
C949 C 0.77223 0.61076 0.43787 0.0
C950 C 0.78451 0.60966 0.44578 0.0
C951 C 0.7996 0.62365 0.44827 0.0
C952 C 0.80222 0.63854 0.44252 0.0
C953 C 0.78978 0.63924 0.43443 0.0
C954 C 0.78133 0.5935 0.45152 0.0
C955 C 0.81811 0.65371 0.44503 0.0
C956 C 0.78221 0.62378 0.55878 0.0
C957 C 0.7774 0.60914 0.54978 0.0
C958 C 0.78789 0.60734 0.53959 0.0
C959 C 0.80338 0.62051 0.53813 0.0
C960 C 0.80825 0.63523 0.54717 0.0
C961 C 0.79761 0.6366 0.5575 0.0
C962 C 0.78243 0.59135 0.53038 0.0
C963 C 0.82465 0.64954 0.54585 0.0
C964 C 0.8958 0.58812 0.55602 0.0
C965 C 0.88985 0.59983 0.55952 0.0
C966 C 0.86495 0.5974 0.54945 0.0
C967 C 0.84995 0.58622 0.54275 0.0
C968 C 0.84043 0.59125 0.53482 0.0
C969 C 0.84604 0.60794 0.53375 0.0
C970 C 0.86103 0.61936 0.54094 0.0
C971 C 0.87035 0.61399 0.54876 0.0
C972 C 0.82439 0.57872 0.52753 0.0
C973 C 0.86716 0.63723 0.5403 0.0
C974 C 0.83529 0.61908 0.45535 0.0
C975 C 0.82351 0.62114 0.44775 0.0
C976 C 0.8125 0.62269 0.45719 0.0
C977 C 0.81337 0.62245 0.47476 0.0
C978 C 0.80293 0.62465 0.4847 0.0
C979 C 0.80349 0.62381 0.50192 0.0
C980 C 0.81436 0.62049 0.50985 0.0
C981 C 0.81457 0.61887 0.52726 0.0
C982 C 0.8253 0.61522 0.5347 0.0
C983 C 0.83605 0.6133 0.52523 0.0
C984 C 0.83636 0.61533 0.50787 0.0
C985 C 0.84735 0.61399 0.49804 0.0
C986 C 0.84728 0.6156 0.4809 0.0
C987 C 0.83594 0.61818 0.47286 0.0
C988 C 0.82491 0.61983 0.48257 0.0
C989 C 0.82527 0.61865 0.50012 0.0
C990 C 0.74804 0.6184 0.55435 0.0
C991 C 0.75631 0.61644 0.56978 0.0
O992 O 0.87883 0.61362 0.41454 0.0
O993 O 0.87366 0.59162 0.55656 0.0
O994 O 0.7725 0.62616 0.56878 0.0
O995 O 0.76331 0.62712 0.42409 0.0
H996 H 0.88074 0.63024 0.39766 0.0
H997 H 0.8603 0.60248 0.38735 0.0
H998 H 0.87509 0.59664 0.38639 0.0
H999 H 0.87595 0.61185 0.37301 0.0
H1000 H 0.88077 0.64109 0.42446 0.0
H1001 H 0.85435 0.58966 0.42682 0.0
H1002 H 0.85291 0.6497 0.4381 0.0
H1003 H 0.87402 0.65814 0.43923 0.0
H1004 H 0.8625 0.64984 0.45735 0.0
H1005 H 0.82968 0.57608 0.43944 0.0
H1006 H 0.81951 0.58713 0.4429 0.0
H1007 H 0.83169 0.58631 0.45928 0.0
H1008 H 0.74278 0.6075 0.43125 0.0
H1009 H 0.75353 0.59843 0.40765 0.0
H1010 H 0.75167 0.61201 0.39417 0.0
H1011 H 0.73428 0.59516 0.4022 0.0
H1012 H 0.76074 0.59999 0.43627 0.0
H1013 H 0.79169 0.65059 0.42994 0.0
H1014 H 0.78183 0.59378 0.46534 0.0
H1015 H 0.79053 0.59096 0.44712 0.0
H1016 H 0.76957 0.58347 0.44697 0.0
H1017 H 0.81797 0.66453 0.4408 0.0
H1018 H 0.827 0.65233 0.43798 0.0
H1019 H 0.82195 0.65569 0.45841 0.0
H1020 H 0.75296 0.6036 0.57079 0.0
H1021 H 0.76555 0.59905 0.55065 0.0
H1022 H 0.80122 0.64783 0.5645 0.0
H1023 H 0.782 0.59282 0.51678 0.0
H1024 H 0.77053 0.58187 0.53399 0.0
H1025 H 0.79093 0.58718 0.53284 0.0
H1026 H 0.82625 0.66048 0.55279 0.0
H1027 H 0.82717 0.65232 0.53257 0.0
H1028 H 0.83344 0.64657 0.55088 0.0
H1029 H 0.89582 0.60986 0.55089 0.0
H1030 H 0.90884 0.59437 0.55794 0.0
H1031 H 0.89273 0.58333 0.54289 0.0
H1032 H 0.89029 0.57781 0.56435 0.0
H1033 H 0.84581 0.57346 0.54355 0.0
H1034 H 0.88173 0.62276 0.55442 0.0
H1035 H 0.82374 0.5803 0.51397 0.0
H1036 H 0.81513 0.58037 0.53337 0.0
H1037 H 0.82177 0.56621 0.52941 0.0
H1038 H 0.87907 0.64461 0.54647 0.0
H1039 H 0.85889 0.64022 0.54648 0.0
H1040 H 0.86774 0.64058 0.52713 0.0
H1041 H 0.82282 0.62138 0.43428 0.0
H1042 H 0.79417 0.62702 0.47927 0.0
H1043 H 0.79514 0.62557 0.50892 0.0
H1044 H 0.8251 0.61358 0.548 0.0
H1045 H 0.85616 0.61171 0.50351 0.0
H1046 H 0.85607 0.61452 0.47401 0.0
H1047 H 0.75073 0.63108 0.5538 0.0
H1048 H 0.73506 0.61027 0.55453 0.0
H1049 H 0.7521 0.61523 0.54282 0.0
C1050 C 0.40074 0.27303 0.38771 0.0
C1051 C 0.38762 0.26429 0.39992 0.0
C1052 C 0.38986 0.25302 0.42596 0.0
C1053 C 0.37398 0.24091 0.42694 0.0
C1054 C 0.36964 0.22815 0.43763 0.0
C1055 C 0.38146 0.22743 0.4473 0.0
C1056 C 0.39744 0.23982 0.4465 0.0
C1057 C 0.40135 0.25264 0.43608 0.0
C1058 C 0.35247 0.21537 0.43844 0.0
C1059 C 0.41048 0.23935 0.45629 0.0
C1060 C 0.35498 0.12391 0.38672 0.0
C1061 C 0.36791 0.13405 0.40005 0.0
C1062 C 0.36444 0.14491 0.42637 0.0
C1063 C 0.37972 0.15831 0.42887 0.0
C1064 C 0.38263 0.17138 0.43966 0.0
C1065 C 0.36992 0.17122 0.44783 0.0
C1066 C 0.35454 0.15755 0.44559 0.0
C1067 C 0.3521 0.14441 0.43517 0.0
C1068 C 0.39927 0.18546 0.44208 0.0
C1069 C 0.34059 0.15699 0.45378 0.0
C1070 C 0.37374 0.15043 0.55355 0.0
C1071 C 0.38828 0.16375 0.54956 0.0
C1072 C 0.3889 0.17698 0.54192 0.0
C1073 C 0.37473 0.17692 0.53827 0.0
C1074 C 0.36016 0.16391 0.54296 0.0
C1075 C 0.35988 0.15083 0.55058 0.0
C1076 C 0.40466 0.19081 0.53727 0.0
C1077 C 0.34487 0.16359 0.5394 0.0
C1078 C 0.38828 0.29582 0.55382 0.0
C1079 C 0.37627 0.27944 0.56029 0.0
C1080 C 0.38188 0.25759 0.55559 0.0
C1081 C 0.3951 0.25599 0.55341 0.0
C1082 C 0.39389 0.24265 0.54437 0.0
C1083 C 0.37898 0.23044 0.53769 0.0
C1084 C 0.36544 0.23168 0.54045 0.0
C1085 C 0.36702 0.24526 0.54937 0.0
C1086 C 0.40856 0.24165 0.54185 0.0
C1087 C 0.34928 0.21862 0.53402 0.0
C1088 C 0.37734 0.21325 0.45741 0.0
C1089 C 0.37477 0.1991 0.44906 0.0
C1090 C 0.37255 0.18578 0.45776 0.0
C1091 C 0.37317 0.18667 0.47538 0.0
C1092 C 0.37205 0.17397 0.48459 0.0
C1093 C 0.37266 0.17497 0.50191 0.0
C1094 C 0.37437 0.18869 0.51071 0.0
C1095 C 0.37507 0.18982 0.52832 0.0
C1096 C 0.37649 0.20348 0.5367 0.0
C1097 C 0.37753 0.21632 0.52794 0.0
C1098 C 0.37728 0.2156 0.51031 0.0
C1099 C 0.3788 0.22847 0.50108 0.0
C1100 C 0.37871 0.2277 0.48375 0.0
C1101 C 0.37705 0.214 0.47498 0.0
C1102 C 0.37518 0.20074 0.484 0.0
C1103 C 0.37556 0.20166 0.50169 0.0
C1104 C 0.38808 0.12851 0.54479 0.0
C1105 C 0.38414 0.13299 0.56177 0.0
O1106 O 0.39453 0.26524 0.41541 0.0
O1107 O 0.38381 0.27095 0.5641 0.0
O1108 O 0.37242 0.13688 0.55992 0.0
O1109 O 0.36122 0.13245 0.41542 0.0
H1110 H 0.3803 0.25148 0.39518 0.0
H1111 H 0.40821 0.26739 0.3872 0.0
H1112 H 0.40833 0.28597 0.39173 0.0
H1113 H 0.39568 0.27216 0.37498 0.0
H1114 H 0.36497 0.24143 0.41946 0.0
H1115 H 0.41354 0.26216 0.43531 0.0
H1116 H 0.35051 0.20394 0.43235 0.0
H1117 H 0.34457 0.21887 0.43209 0.0
H1118 H 0.34915 0.21298 0.45161 0.0
H1119 H 0.42239 0.24879 0.45268 0.0
H1120 H 0.40947 0.22736 0.45441 0.0
H1121 H 0.4094 0.24124 0.46977 0.0
H1122 H 0.37308 0.14674 0.39622 0.0
H1123 H 0.36021 0.12372 0.37467 0.0
H1124 H 0.34747 0.12937 0.38476 0.0
H1125 H 0.34713 0.11144 0.39063 0.0
H1126 H 0.38942 0.15862 0.42243 0.0
H1127 H 0.34038 0.13394 0.43328 0.0
H1128 H 0.40035 0.19581 0.43525 0.0
H1129 H 0.40811 0.1825 0.43738 0.0
H1130 H 0.4021 0.18934 0.45547 0.0
H1131 H 0.3292 0.14644 0.44912 0.0
H1132 H 0.3403 0.16819 0.45157 0.0
H1133 H 0.34172 0.15624 0.46743 0.0
H1134 H 0.39499 0.14333 0.5678 0.0
H1135 H 0.39918 0.16383 0.55205 0.0
H1136 H 0.34874 0.14061 0.55386 0.0
H1137 H 0.40506 0.19138 0.52351 0.0
H1138 H 0.4147 0.18957 0.54196 0.0
H1139 H 0.40618 0.2024 0.54235 0.0
H1140 H 0.33461 0.15296 0.54456 0.0
H1141 H 0.3428 0.16329 0.52574 0.0
H1142 H 0.34563 0.17475 0.54479 0.0
H1143 H 0.36695 0.27306 0.55026 0.0
H1144 H 0.38248 0.30284 0.55075 0.0
H1145 H 0.39341 0.294 0.54235 0.0
H1146 H 0.39802 0.30288 0.56326 0.0
H1147 H 0.40646 0.26543 0.55853 0.0
H1148 H 0.35663 0.24608 0.5517 0.0
H1149 H 0.40982 0.23989 0.52838 0.0
H1150 H 0.40748 0.23106 0.54818 0.0
H1151 H 0.41941 0.25265 0.54686 0.0
H1152 H 0.33979 0.22086 0.53813 0.0
H1153 H 0.34683 0.20674 0.53836 0.0
H1154 H 0.34893 0.21789 0.5202 0.0
H1155 H 0.37481 0.19856 0.43556 0.0
H1156 H 0.37076 0.16314 0.47851 0.0
H1157 H 0.37173 0.16479 0.50831 0.0
H1158 H 0.37691 0.20417 0.55021 0.0
H1159 H 0.38018 0.23934 0.50716 0.0
H1160 H 0.37995 0.23797 0.47729 0.0
H1161 H 0.39702 0.12476 0.54641 0.0
H1162 H 0.39303 0.13898 0.5367 0.0
H1163 H 0.37731 0.11845 0.53835 0.0
C1164 C 0.86777 0.24726 0.39293 0.0
C1165 C 0.87972 0.25195 0.40764 0.0
C1166 C 0.86386 0.23043 0.42664 0.0
C1167 C 0.85389 0.23628 0.43142 0.0
C1168 C 0.8409 0.22717 0.44122 0.0
C1169 C 0.83784 0.21196 0.44643 0.0
C1170 C 0.84804 0.20621 0.44199 0.0
C1171 C 0.86096 0.21557 0.4322 0.0
C1172 C 0.83029 0.23369 0.44586 0.0
C1173 C 0.84516 0.19008 0.44741 0.0
C1174 C 0.7327 0.13698 0.38461 0.0
C1175 C 0.74211 0.13421 0.39818 0.0
C1176 C 0.75482 0.15121 0.42331 0.0
C1177 C 0.76617 0.14675 0.42648 0.0
C1178 C 0.7793 0.15631 0.43728 0.0
C1179 C 0.78125 0.17076 0.4448 0.0
C1180 C 0.76973 0.1752 0.44168 0.0
C1181 C 0.75647 0.16513 0.43125 0.0
C1182 C 0.79117 0.15103 0.44052 0.0
C1183 C 0.77157 0.19072 0.44906 0.0
C1184 C 0.75459 0.16016 0.55408 0.0
C1185 C 0.76201 0.15206 0.54763 0.0
C1186 C 0.77573 0.16029 0.53854 0.0
C1187 C 0.78179 0.17678 0.53541 0.0
C1188 C 0.77425 0.18491 0.54191 0.0
C1189 C 0.76092 0.17653 0.55144 0.0
C1190 C 0.78382 0.1514 0.53246 0.0
C1191 C 0.78028 0.20246 0.53884 0.0
C1192 C 0.89678 0.27241 0.55419 0.0
C1193 C 0.88699 0.26399 0.5692 0.0
C1194 C 0.86602 0.23789 0.55663 0.0
C1195 C 0.86137 0.22162 0.55418 0.0
C1196 C 0.84789 0.21103 0.54429 0.0
C1197 C 0.83871 0.21687 0.53684 0.0
C1198 C 0.8432 0.2333 0.53942 0.0
C1199 C 0.85689 0.2437 0.54916 0.0
C1200 C 0.84349 0.1936 0.54176 0.0
C1201 C 0.8335 0.23986 0.53189 0.0
C1202 C 0.82367 0.20185 0.45605 0.0
C1203 C 0.80959 0.19133 0.44713 0.0
C1204 C 0.79568 0.18158 0.45527 0.0
C1205 C 0.79573 0.18239 0.47288 0.0
C1206 C 0.78194 0.17289 0.48151 0.0
C1207 C 0.78202 0.17411 0.49882 0.0
C1208 C 0.796 0.18451 0.50819 0.0
C1209 C 0.79625 0.18576 0.5258 0.0
C1210 C 0.81037 0.19626 0.53468 0.0
C1211 C 0.82431 0.20575 0.52651 0.0
C1212 C 0.82431 0.20468 0.50893 0.0
C1213 C 0.83815 0.21402 0.50031 0.0
C1214 C 0.83798 0.21312 0.483 0.0
C1215 C 0.82399 0.20275 0.47365 0.0
C1216 C 0.80994 0.19304 0.48208 0.0
C1217 C 0.81009 0.19404 0.49975 0.0
C1218 C 0.71387 0.13645 0.56342 0.0
C1219 C 0.7295 0.13683 0.56103 0.0
O1220 O 0.8762 0.2385 0.41657 0.0
O1221 O 0.87934 0.24741 0.56624 0.0
O1222 O 0.74157 0.15271 0.56326 0.0
O1223 O 0.74217 0.14238 0.4127 0.0
H1224 H 0.87965 0.26141 0.41591 0.0
H1225 H 0.85565 0.24245 0.39738 0.0
H1226 H 0.86786 0.23786 0.38462 0.0
H1227 H 0.87065 0.25797 0.38562 0.0
H1228 H 0.85605 0.24784 0.42746 0.0
H1229 H 0.86875 0.21119 0.42856 0.0
H1230 H 0.81815 0.22541 0.44062 0.0
H1231 H 0.83449 0.24592 0.44123 0.0
H1232 H 0.82962 0.23425 0.45962 0.0
H1233 H 0.85436 0.18745 0.44319 0.0
H1234 H 0.83347 0.18037 0.44231 0.0
H1235 H 0.84488 0.18981 0.4612 0.0
H1236 H 0.75435 0.13909 0.39387 0.0
H1237 H 0.73278 0.13104 0.37257 0.0
H1238 H 0.7381 0.15012 0.38282 0.0
H1239 H 0.72028 0.13213 0.38817 0.0
H1240 H 0.76471 0.13575 0.42062 0.0
H1241 H 0.74757 0.16838 0.42878 0.0
H1242 H 0.80227 0.15921 0.43436 0.0
H1243 H 0.78685 0.13848 0.43567 0.0
H1244 H 0.79401 0.15186 0.45408 0.0
H1245 H 0.76268 0.19341 0.44367 0.0
H1246 H 0.78355 0.20098 0.44695 0.0
H1247 H 0.77016 0.18984 0.4627 0.0
H1248 H 0.72919 0.13211 0.54812 0.0
H1249 H 0.75732 0.13944 0.55002 0.0
H1250 H 0.75515 0.18267 0.55663 0.0
H1251 H 0.78235 0.14965 0.5187 0.0
H1252 H 0.77892 0.13936 0.53786 0.0
H1253 H 0.79668 0.15858 0.53567 0.0
H1254 H 0.77183 0.20631 0.54267 0.0
H1255 H 0.78257 0.20475 0.52544 0.0
H1256 H 0.7916 0.21005 0.54602 0.0
H1257 H 0.87835 0.26797 0.5716 0.0
H1258 H 0.90266 0.28573 0.5561 0.0
H1259 H 0.88904 0.26886 0.54274 0.0
H1260 H 0.90589 0.26899 0.55222 0.0
H1261 H 0.86846 0.21724 0.55998 0.0
H1262 H 0.86029 0.25626 0.55086 0.0
H1263 H 0.84213 0.19022 0.52824 0.0
H1264 H 0.83195 0.18574 0.54733 0.0
H1265 H 0.85243 0.19119 0.5475 0.0
H1266 H 0.83788 0.2526 0.53608 0.0
H1267 H 0.82098 0.2324 0.53524 0.0
H1268 H 0.8338 0.2392 0.51811 0.0
H1269 H 0.80945 0.19076 0.43362 0.0
H1270 H 0.77088 0.16452 0.47498 0.0
H1271 H 0.77099 0.16671 0.50475 0.0
H1272 H 0.81046 0.19722 0.54817 0.0
H1273 H 0.84927 0.22219 0.50686 0.0
H1274 H 0.84896 0.22067 0.47703 0.0
H1275 H 0.71314 0.14006 0.57649 0.0
H1276 H 0.70362 0.12426 0.56026 0.0
H1277 H 0.71305 0.145 0.55504 0.0
C1278 C 0.00832 0.46195 0.30367 0.0
C1279 C 0.00019 0.44859 0.28996 0.0
C1280 C 0.00519 0.45821 0.26176 0.0
C1281 C 0.98965 0.45084 0.25511 0.0
C1282 C 0.98588 0.4573 0.24156 0.0
C1283 C 0.99792 0.47132 0.2345 0.0
C1284 C 0.01377 0.478 0.24037 0.0
C1285 C 0.01722 0.47121 0.25385 0.0
C1286 C 0.96892 0.44961 0.23528 0.0
C1287 C 0.02693 0.49288 0.23305 0.0
C1288 C 0.9596 0.53061 0.29211 0.0
C1289 C 0.97228 0.53945 0.27952 0.0
C1290 C 0.97081 0.52711 0.25214 0.0
C1291 C 0.98693 0.53302 0.25002 0.0
C1292 C 0.99191 0.525 0.23903 0.0
C1293 C 0.98051 0.51072 0.2301 0.0
C1294 C 0.96425 0.50524 0.2316 0.0
C1295 C 0.95963 0.51371 0.24242 0.0
C1296 C 0.00935 0.53145 0.23741 0.0
C1297 C 0.95175 0.49001 0.22242 0.0
C1298 C 0.98426 0.53346 0.12436 0.0
C1299 C 0.99921 0.53747 0.1309 0.0
C1300 C 0.00149 0.52601 0.13894 0.0
C1301 C 0.98852 0.51024 0.14046 0.0
C1302 C 0.97364 0.50591 0.13302 0.0
C1303 C 0.97174 0.5176 0.1249 0.0
C1304 C 0.01763 0.53089 0.14629 0.0
C1305 C 0.95963 0.48915 0.13425 0.0
C1306 C 0.02056 0.42291 0.09816 0.0
C1307 C 0.00893 0.42803 0.10412 0.0
C1308 C 0.01208 0.44941 0.12456 0.0
C1309 C 0.02318 0.46436 0.132 0.0
C1310 C 0.01854 0.47355 0.14164 0.0
C1311 C 0.0023 0.46754 0.14398 0.0
C1312 C 0.99098 0.45215 0.13696 0.0
C1313 C 0.99597 0.44319 0.12734 0.0
C1314 C 0.03096 0.48988 0.14896 0.0
C1315 C 0.9736 0.44535 0.13936 0.0
C1316 C 0.99364 0.48047 0.22309 0.0
C1317 C 0.98913 0.49077 0.23049 0.0
C1318 C 0.98551 0.50047 0.22099 0.0
C1319 C 0.98656 0.50005 0.2035 0.0
C1320 C 0.98354 0.51004 0.19359 0.0
C1321 C 0.98466 0.50958 0.17639 0.0
C1322 C 0.98884 0.49909 0.16843 0.0
C1323 C 0.99028 0.49878 0.15098 0.0
C1324 C 0.9943 0.48812 0.14344 0.0
C1325 C 0.9972 0.47782 0.1529 0.0
C1326 C 0.99605 0.47814 0.17042 0.0
C1327 C 0.99916 0.4682 0.18039 0.0
C1328 C 0.99835 0.46889 0.19767 0.0
C1329 C 0.9943 0.47948 0.20558 0.0
C1330 C 0.99085 0.48941 0.19576 0.0
C1331 C 0.99183 0.48881 0.17818 0.0
C1332 C 0.97337 0.55733 0.13816 0.0
C1333 C 0.98585 0.55945 0.12577 0.0
O1334 O 0.00897 0.45318 0.27578 0.0
O1335 O 0.0175 0.44177 0.11448 0.0
O1336 O 0.98158 0.54473 0.11777 0.0
O1337 O 0.96568 0.53389 0.26359 0.0
H1338 H 0.98816 0.44671 0.28768 0.0
H1339 H 0.0088 0.47312 0.29957 0.0
H1340 H 0.02059 0.4647 0.30641 0.0
H1341 H 0.00162 0.45829 0.31525 0.0
H1342 H 0.98042 0.4402 0.26063 0.0
H1343 H 0.02924 0.47654 0.25884 0.0
H1344 H 0.96412 0.45743 0.23916 0.0
H1345 H 0.96141 0.43748 0.24025 0.0
H1346 H 0.96816 0.44849 0.22146 0.0
H1347 H 0.03872 0.49614 0.23849 0.0
H1348 H 0.02502 0.50321 0.2353 0.0
H1349 H 0.02687 0.49091 0.21937 0.0
H1350 H 0.98191 0.5368 0.28217 0.0
H1351 H 0.96462 0.53474 0.30503 0.0
H1352 H 0.95499 0.51742 0.29066 0.0
H1353 H 0.94962 0.53281 0.29014 0.0
H1354 H 0.99561 0.54379 0.25709 0.0
H1355 H 0.94722 0.50942 0.24398 0.0
H1356 H 0.01213 0.53128 0.22412 0.0
H1357 H 0.01274 0.5236 0.24399 0.0
H1358 H 0.0166 0.54396 0.24286 0.0
H1359 H 0.93961 0.48715 0.22529 0.0
H1360 H 0.95318 0.47968 0.22577 0.0
H1361 H 0.95314 0.4913 0.2088 0.0
H1362 H 0.99733 0.56443 0.13282 0.0
H1363 H 0.0091 0.54957 0.12982 0.0
H1364 H 0.9603 0.51458 0.11956 0.0
H1365 H 0.01724 0.53066 0.16007 0.0
H1366 H 0.02675 0.54318 0.14287 0.0
H1367 H 0.02119 0.52214 0.14197 0.0
H1368 H 0.94901 0.48751 0.12725 0.0
H1369 H 0.95679 0.48674 0.14753 0.0
H1370 H 0.96257 0.4801 0.12935 0.0
H1371 H -7e-05 0.41812 0.1114 0.0
H1372 H 0.01431 0.41009 0.09364 0.0
H1373 H 0.02852 0.42392 0.10874 0.0
H1374 H 0.02796 0.43075 0.08829 0.0
H1375 H 0.03558 0.46902 0.12988 0.0
H1376 H 0.98725 0.43153 0.12183 0.0
H1377 H 0.02982 0.49042 0.16264 0.0
H1378 H 0.02914 0.49939 0.14367 0.0
H1379 H 0.04312 0.49261 0.14641 0.0
H1380 H 0.96631 0.43287 0.13387 0.0
H1381 H 0.96974 0.45316 0.13347 0.0
H1382 H 0.97139 0.44533 0.15285 0.0
H1383 H 0.98849 0.49131 0.24394 0.0
H1384 H 0.98035 0.51839 0.19905 0.0
H1385 H 0.9822 0.51757 0.16941 0.0
H1386 H 0.99553 0.48809 0.13006 0.0
H1387 H 0.00234 0.45984 0.17495 0.0
H1388 H 0.00093 0.46105 0.20477 0.0
H1389 H 0.97663 0.56911 0.14449 0.0
H1390 H 0.97257 0.54895 0.14781 0.0
H1391 H 0.96159 0.55226 0.13172 0.0
C1392 C 0.45693 0.38916 0.25583 0.0
C1393 C 0.45987 0.40303 0.26811 0.0
C1394 C 0.47126 0.42752 0.2519 0.0
C1395 C 0.46848 0.43932 0.24571 0.0
C1396 C 0.47999 0.45217 0.237 0.0
C1397 C 0.49458 0.45307 0.23427 0.0
C1398 C 0.49756 0.44126 0.24065 0.0
C1399 C 0.48591 0.42864 0.24947 0.0
C1400 C 0.47646 0.46459 0.23041 0.0
C1401 C 0.51298 0.44182 0.23784 0.0
C1402 C 0.57562 0.55488 0.29363 0.0
C1403 C 0.57833 0.54414 0.28132 0.0
C1404 C 0.56406 0.5329 0.25455 0.0
C1405 C 0.56469 0.51862 0.25373 0.0
C1406 C 0.55435 0.50555 0.24295 0.0
C1407 C 0.54285 0.5066 0.23304 0.0
C1408 C 0.54244 0.52113 0.23354 0.0
C1409 C 0.5533 0.53422 0.24405 0.0
C1410 C 0.55547 0.49045 0.24256 0.0
C1411 C 0.53019 0.52267 0.22343 0.0
C1412 C 0.5704 0.51528 0.12487 0.0
C1413 C 0.57053 0.50249 0.13276 0.0
C1414 C 0.55775 0.49179 0.14201 0.0
C1415 C 0.54458 0.49392 0.14341 0.0
C1416 C 0.5443 0.50663 0.13532 0.0
C1417 C 0.55724 0.51714 0.12612 0.0
C1418 C 0.55834 0.47825 0.15039 0.0
C1419 C 0.5304 0.50918 0.13653 0.0
C1420 C 0.43597 0.37806 0.13386 0.0
C1421 C 0.44026 0.39392 0.12583 0.0
C1422 C 0.46791 0.4153 0.1285 0.0
C1423 C 0.48245 0.41635 0.13154 0.0
C1424 C 0.49507 0.43011 0.13968 0.0
C1425 C 0.49314 0.4433 0.14447 0.0
C1426 C 0.47868 0.44263 0.14059 0.0
C1427 C 0.46618 0.42859 0.13269 0.0
C1428 C 0.51034 0.43044 0.14344 0.0
C1429 C 0.4764 0.45668 0.14493 0.0
C1430 C 0.50644 0.46585 0.22403 0.0
C1431 C 0.51834 0.48 0.23213 0.0
C1432 C 0.53049 0.49207 0.2233 0.0
C1433 C 0.53079 0.48992 0.20583 0.0
C1434 C 0.54314 0.50138 0.19658 0.0
C1435 C 0.54328 0.49911 0.17939 0.0
C1436 C 0.53106 0.4853 0.1708 0.0
C1437 C 0.53113 0.48281 0.15338 0.0
C1438 C 0.51858 0.46917 0.14516 0.0
C1439 C 0.50606 0.45758 0.15395 0.0
C1440 C 0.50609 0.45955 0.17146 0.0
C1441 C 0.49409 0.44776 0.1808 0.0
C1442 C 0.49421 0.44977 0.198 0.0
C1443 C 0.50624 0.46373 0.20654 0.0
C1444 C 0.51848 0.47579 0.19742 0.0
C1445 C 0.51851 0.47358 0.17987 0.0
C1446 C 0.60756 0.53505 0.13048 0.0
C1447 C 0.5973 0.52751 0.11446 0.0
O1448 O 0.4594 0.41523 0.25985 0.0
O1449 O 0.45587 0.40142 0.1213 0.0
O1450 O 0.58265 0.52616 0.11607 0.0
O1451 O 0.5735 0.54548 0.26541 0.0
H1452 H 0.47149 0.40774 0.27481 0.0
H1453 H 0.4664 0.39338 0.24673 0.0
H1454 H 0.44546 0.38439 0.24881 0.0
H1455 H 0.45684 0.37922 0.26263 0.0
H1456 H 0.45716 0.43838 0.24766 0.0
H1457 H 0.4883 0.41963 0.25416 0.0
H1458 H 0.48592 0.47689 0.23471 0.0
H1459 H 0.46493 0.46274 0.23445 0.0
H1460 H 0.47626 0.46399 0.21659 0.0
H1461 H 0.51346 0.43167 0.2435 0.0
H1462 H 0.52291 0.45335 0.24325 0.0
H1463 H 0.51473 0.4414 0.22427 0.0
H1464 H 0.57062 0.53165 0.28546 0.0
H1465 H 0.58036 0.55486 0.30627 0.0
H1466 H 0.56274 0.55006 0.29445 0.0
H1467 H 0.58086 0.56737 0.28941 0.0
H1468 H 0.57322 0.51759 0.26151 0.0
H1469 H 0.55299 0.54534 0.24464 0.0
H1470 H 0.54592 0.48125 0.24994 0.0
H1471 H 0.56696 0.49274 0.24798 0.0
H1472 H 0.55394 0.48538 0.22961 0.0
H1473 H 0.53052 0.53421 0.2264 0.0
H1474 H 0.5182 0.5125 0.22572 0.0
H1475 H 0.53221 0.52207 0.20997 0.0
H1476 H 0.5959 0.51546 0.11156 0.0
H1477 H 0.58054 0.50075 0.13185 0.0
H1478 H 0.5572 0.52699 0.11995 0.0
H1479 H 0.55793 0.47975 0.16408 0.0
H1480 H 0.56917 0.47785 0.14761 0.0
H1481 H 0.54787 0.4665 0.14628 0.0
H1482 H 0.53212 0.51983 0.12976 0.0
H1483 H 0.52843 0.51087 0.14981 0.0
H1484 H 0.51957 0.4983 0.1313 0.0
H1485 H 0.43836 0.40145 0.13523 0.0
H1486 H 0.42348 0.37185 0.13754 0.0
H1487 H 0.44364 0.38057 0.14521 0.0
H1488 H 0.43767 0.36993 0.12513 0.0
H1489 H 0.48374 0.40612 0.12796 0.0
H1490 H 0.45513 0.42806 0.12968 0.0
H1491 H 0.51368 0.43334 0.15691 0.0
H1492 H 0.51992 0.44007 0.13644 0.0
H1493 H 0.50955 0.41877 0.13999 0.0
H1494 H 0.46521 0.45503 0.13934 0.0
H1495 H 0.48642 0.46803 0.14059 0.0
H1496 H 0.47619 0.45806 0.15866 0.0
H1497 H 0.51829 0.48154 0.24555 0.0
H1498 H 0.55286 0.51221 0.20254 0.0
H1499 H 0.55308 0.50836 0.17292 0.0
H1500 H 0.51867 0.46745 0.13177 0.0
H1501 H 0.4845 0.43677 0.17492 0.0
H1502 H 0.48468 0.44024 0.2045 0.0
H1503 H 0.6194 0.53644 0.12899 0.0
H1504 H 0.60209 0.52728 0.14112 0.0
H1505 H 0.60902 0.5471 0.13355 0.0
C1506 C 0.42991 0.96213 0.27549 0.0
C1507 C 0.43463 0.97988 0.27444 0.0
C1508 C 0.44447 0.98802 0.24725 0.0
C1509 C 0.45551 0.00439 0.24612 0.0
C1510 C 0.46808 0.00945 0.23537 0.0
C1511 C 0.46961 0.99777 0.22572 0.0
C1512 C 0.45824 0.98119 0.22668 0.0
C1513 C 0.44564 0.97653 0.23729 0.0
C1514 C 0.47986 0.02722 0.23452 0.0
C1515 C 0.45961 0.96837 0.2168 0.0
C1516 C 0.5625 0.03137 0.28526 0.0
C1517 C 0.5582 0.01647 0.27401 0.0
C1518 C 0.55051 0.01826 0.24599 0.0
C1519 C 0.53903 0.00251 0.24081 0.0
C1520 C 0.52653 0.99965 0.2298 0.0
C1521 C 0.52544 0.01288 0.22413 0.0
C1522 C 0.53737 0.02884 0.22896 0.0
C1523 C 0.54994 0.03133 0.23967 0.0
C1524 C 0.51422 0.98249 0.22466 0.0
C1525 C 0.53648 0.04323 0.2234 0.0
C1526 C 0.54894 0.02411 0.11582 0.0
C1527 C 0.53917 0.00842 0.12125 0.0
C1528 C 0.52567 0.00462 0.13013 0.0
C1529 C 0.52204 0.01682 0.13399 0.0
C1530 C 0.53162 0.0325 0.1282 0.0
C1531 C 0.54485 0.03587 0.11901 0.0
C1532 C 0.51539 0.9876 0.13558 0.0
C1533 C 0.52805 0.04578 0.13197 0.0
C1534 C 0.40152 0.99079 0.12551 0.0
C1535 C 0.41556 0.00127 0.11493 0.0
C1536 C 0.43806 0.99724 0.11999 0.0
C1537 C 0.44092 0.98464 0.12276 0.0
C1538 C 0.45497 0.98753 0.13081 0.0
C1539 C 0.4665 0.00349 0.13605 0.0
C1540 C 0.46398 0.0164 0.13271 0.0
C1541 C 0.44981 0.01316 0.1246 0.0
C1542 C 0.45741 0.97352 0.13395 0.0
C1543 C 0.47623 0.03359 0.13781 0.0
C1544 C 0.48356 0.0028 0.21539 0.0
C1545 C 0.49761 0.00586 0.22341 0.0
C1546 C 0.5111 0.00994 0.21451 0.0
C1547 C 0.51062 0.01095 0.19703 0.0
C1548 C 0.52387 0.01474 0.18763 0.0
C1549 C 0.52325 0.01571 0.17042 0.0
C1550 C 0.50928 0.01266 0.16191 0.0
C1551 C 0.50842 0.01325 0.14437 0.0
C1552 C 0.49436 0.01022 0.13634 0.0
C1553 C 0.48105 0.00664 0.14536 0.0
C1554 C 0.48165 0.00593 0.16288 0.0
C1555 C 0.46845 0.00233 0.17232 0.0
C1556 C 0.46908 0.00142 0.18953 0.0
C1557 C 0.48291 0.00405 0.19795 0.0
C1558 C 0.49646 0.008 0.18873 0.0
C1559 C 0.49581 0.00889 0.17116 0.0
C1560 C 0.57885 0.02256 0.12502 0.0
C1561 C 0.57103 0.02061 0.1077 0.0
O1562 O 0.43283 0.98327 0.25819 0.0
O1563 O 0.42409 0.99355 0.11238 0.0
O1564 O 0.56246 0.02846 0.10771 0.0
O1565 O 0.56173 0.02096 0.25774 0.0
H1566 H 0.44717 0.98753 0.27899 0.0
H1567 H 0.43816 0.9597 0.26846 0.0
H1568 H 0.41773 0.95411 0.2702 0.0
H1569 H 0.43051 0.9592 0.28866 0.0
H1570 H 0.45436 0.01315 0.25385 0.0
H1571 H 0.43686 0.96389 0.23815 0.0
H1572 H 0.49141 0.02985 0.24007 0.0
H1573 H 0.47603 0.03482 0.24131 0.0
H1574 H 0.48168 0.03065 0.22134 0.0
H1575 H 0.45046 0.95598 0.21989 0.0
H1576 H 0.47144 0.96981 0.21921 0.0
H1577 H 0.45839 0.96975 0.20329 0.0
H1578 H 0.54532 0.00785 0.27504 0.0
H1579 H 0.5599 0.02796 0.29839 0.0
H1580 H 0.55541 0.03683 0.28125 0.0
H1581 H 0.57521 0.04055 0.28455 0.0
H1582 H 0.53973 0.99249 0.24568 0.0
H1583 H 0.55897 0.04345 0.2438 0.0
H1584 H 0.51162 0.9813 0.21101 0.0
H1585 H 0.50311 0.9792 0.23095 0.0
H1586 H 0.51802 0.97379 0.22802 0.0
H1587 H 0.54631 0.0548 0.22891 0.0
H1588 H 0.5251 0.04209 0.22697 0.0
H1589 H 0.53687 0.04362 0.20963 0.0
H1590 H 0.56321 0.0076 0.1041 0.0
H1591 H 0.54196 0.99906 0.11866 0.0
H1592 H 0.55236 0.04788 0.11465 0.0
H1593 H 0.51682 0.98738 0.14927 0.0
H1594 H 0.51848 0.97905 0.12957 0.0
H1595 H 0.50276 0.98333 0.13257 0.0
H1596 H 0.53735 0.05763 0.12772 0.0
H1597 H 0.52682 0.04692 0.14557 0.0
H1598 H 0.51664 0.04269 0.12568 0.0
H1599 H 0.42271 0.0132 0.12164 0.0
H1600 H 0.39447 0.99671 0.12788 0.0
H1601 H 0.40582 0.98903 0.1377 0.0
H1602 H 0.39378 0.97876 0.11915 0.0
H1603 H 0.43192 0.97244 0.11884 0.0
H1604 H 0.44816 0.02313 0.12169 0.0
H1605 H 0.45842 0.97244 0.14756 0.0
H1606 H 0.46861 0.97573 0.12857 0.0
H1607 H 0.44757 0.96191 0.12851 0.0
H1608 H 0.47246 0.04229 0.13442 0.0
H1609 H 0.48745 0.03691 0.13172 0.0
H1610 H 0.47866 0.03471 0.15148 0.0
H1611 H 0.49801 0.0049 0.23681 0.0
H1612 H 0.53487 0.01703 0.1935 0.0
H1613 H 0.53386 0.01879 0.16387 0.0
H1614 H 0.49376 0.01062 0.12289 0.0
H1615 H 0.45745 0.00011 0.1665 0.0
H1616 H 0.45856 0.99858 0.19614 0.0
H1617 H 0.58681 0.03555 0.12859 0.0
H1618 H 0.5858 0.01636 0.12518 0.0
H1619 H 0.56977 0.01714 0.13451 0.0
C1620 C 0.54473 0.9769 0.7368 0.0
C1621 C 0.55824 0.99203 0.74577 0.0
C1622 C 0.55271 0.99204 0.77469 0.0
C1623 C 0.55722 0.00796 0.77946 0.0
C1624 C 0.54883 0.01124 0.79135 0.0
C1625 C 0.53554 0.99826 0.79836 0.0
C1626 C 0.5313 0.98215 0.79388 0.0
C1627 C 0.54016 0.97926 0.78226 0.0
C1628 C 0.55384 0.02854 0.79599 0.0
C1629 C 0.51702 0.96799 0.8008 0.0
C1630 C 0.47143 0.02198 0.74091 0.0
C1631 C 0.4587 0.00983 0.75191 0.0
C1632 C 0.47112 0.01361 0.77916 0.0
C1633 C 0.46792 0.99807 0.78262 0.0
C1634 C 0.47821 0.99586 0.79305 0.0
C1635 C 0.49201 0.0095 0.80007 0.0
C1636 C 0.49497 0.02521 0.79704 0.0
C1637 C 0.48431 0.02705 0.78676 0.0
C1638 C 0.47452 0.97894 0.7963 0.0
C1639 C 0.50959 0.03999 0.80429 0.0
C1640 C 0.46759 0.00832 0.90485 0.0
C1641 C 0.46385 0.99307 0.8982 0.0
C1642 C 0.47535 0.99077 0.89064 0.0
C1643 C 0.49088 0.00401 0.88973 0.0
C1644 C 0.49489 0.01917 0.89726 0.0
C1645 C 0.48317 0.02108 0.90489 0.0
C1646 C 0.4708 0.97432 0.88316 0.0
C1647 C 0.51138 0.03347 0.89665 0.0
C1648 C 0.57757 0.96682 0.89586 0.0
C1649 C 0.57483 0.97718 0.90861 0.0
C1650 C 0.55041 0.97745 0.90277 0.0
C1651 C 0.53524 0.96682 0.89612 0.0
C1652 C 0.52618 0.97254 0.88848 0.0
C1653 C 0.53241 0.98938 0.88776 0.0
C1654 C 0.54749 0.00024 0.89512 0.0
C1655 C 0.55634 0.99416 0.90263 0.0
C1656 C 0.51003 0.96061 0.88096 0.0
C1657 C 0.55428 0.01824 0.89488 0.0
C1658 C 0.52516 0.00151 0.80896 0.0
C1659 C 0.51446 0.00484 0.80089 0.0
C1660 C 0.50372 0.00726 0.80977 0.0
C1661 C 0.50367 0.00656 0.82729 0.0
C1662 C 0.49303 0.00897 0.83661 0.0
C1663 C 0.49284 0.00789 0.85382 0.0
C1664 C 0.5031 0.00408 0.86234 0.0
C1665 C 0.50253 0.00228 0.87976 0.0
C1666 C 0.51254 0.99799 0.88777 0.0
C1667 C 0.52326 0.9955 0.87884 0.0
C1668 C 0.52431 0.99767 0.86149 0.0
C1669 C 0.53521 0.99562 0.85219 0.0
C1670 C 0.53577 0.99723 0.83503 0.0
C1671 C 0.52525 0.00065 0.82648 0.0
C1672 C 0.5144 0.00311 0.83566 0.0
C1673 C 0.51403 0.00175 0.8532 0.0
C1674 C 0.44409 0.0175 0.88893 0.0
C1675 C 0.44192 0.00619 0.90295 0.0
O1676 O 0.55989 0.98889 0.76216 0.0
O1677 O 0.55874 0.97112 0.90956 0.0
O1678 O 0.45638 0.01113 0.91098 0.0
O1679 O 0.46177 0.01585 0.76829 0.0
H1680 H 0.55536 0.00184 0.74517 0.0
H1681 H 0.53345 0.97349 0.74282 0.0
H1682 H 0.54687 0.96662 0.73733 0.0
H1683 H 0.5435 0.97923 0.72355 0.0
H1684 H 0.5671 0.01776 0.77359 0.0
H1685 H 0.53686 0.96701 0.77842 0.0
H1686 H 0.54515 0.03143 0.79048 0.0
H1687 H 0.56568 0.03712 0.79143 0.0
H1688 H 0.55405 0.03035 0.80973 0.0
H1689 H 0.5147 0.95626 0.79515 0.0
H1690 H 0.50641 0.96909 0.79858 0.0
H1691 H 0.51881 0.96794 0.81446 0.0
H1692 H 0.45877 0.9983 0.7507 0.0
H1693 H 0.46905 0.01733 0.72772 0.0
H1694 H 0.47182 0.03374 0.74174 0.0
H1695 H 0.48317 0.02396 0.74503 0.0
H1696 H 0.45741 0.9877 0.77706 0.0
H1697 H 0.48655 0.03899 0.78409 0.0
H1698 H 0.47521 0.97752 0.80989 0.0
H1699 H 0.48343 0.97671 0.79045 0.0
H1700 H 0.46262 0.96965 0.79123 0.0
H1701 H 0.51024 0.05136 0.80062 0.0
H1702 H 0.52026 0.03995 0.80006 0.0
H1703 H 0.50978 0.03978 0.81808 0.0
H1704 H 0.43661 0.99373 0.89736 0.0
H1705 H 0.45196 0.98295 0.89885 0.0
H1706 H 0.48597 0.03274 0.9103 0.0
H1707 H 0.47175 0.9749 0.86944 0.0
H1708 H 0.45855 0.96501 0.88597 0.0
H1709 H 0.47905 0.97054 0.88797 0.0
H1710 H 0.51276 0.04428 0.90365 0.0
H1711 H 0.51429 0.0365 0.88348 0.0
H1712 H 0.52002 0.03038 0.9019 0.0
H1713 H 0.58104 0.98977 0.90444 0.0
H1714 H 0.59042 0.97149 0.89481 0.0
H1715 H 0.57262 0.96719 0.88344 0.0
H1716 H 0.57173 0.95407 0.89952 0.0
H1717 H 0.53065 0.95395 0.8966 0.0
H1718 H 0.56775 0.00249 0.90854 0.0
H1719 H 0.5097 0.96233 0.86739 0.0
H1720 H 0.50103 0.96278 0.88663 0.0
H1721 H 0.50679 0.9479 0.8828 0.0
H1722 H 0.56604 0.02511 0.90148 0.0
H1723 H 0.54611 0.02153 0.9008 0.0
H1724 H 0.55546 0.02193 0.88179 0.0
H1725 H 0.51427 0.0052 0.7874 0.0
H1726 H 0.48471 0.01171 0.83069 0.0
H1727 H 0.48438 0.00988 0.86031 0.0
H1728 H 0.51172 0.99618 0.90105 0.0
H1729 H 0.54343 0.99273 0.85807 0.0
H1730 H 0.54439 0.99553 0.82851 0.0
H1731 H 0.43255 0.01376 0.8825 0.0
H1732 H 0.45205 0.01701 0.8796 0.0
H1733 H 0.44936 0.03014 0.89398 0.0
C1734 C 0.02471 0.59278 0.73622 0.0
C1735 C 0.01335 0.57961 0.74748 0.0
C1736 C 0.01407 0.55715 0.76079 0.0
C1737 C 0.99812 0.54853 0.76496 0.0
C1738 C 0.99255 0.53511 0.77496 0.0
C1739 C 0.00313 0.53027 0.78087 0.0
C1740 C 0.01907 0.53872 0.77636 0.0
C1741 C 0.02429 0.55201 0.76633 0.0
C1742 C 0.97545 0.52622 0.77942 0.0
C1743 C 0.03068 0.53385 0.78231 0.0
C1744 C 0.96216 0.3992 0.75799 0.0
C1745 C 0.97442 0.41708 0.76168 0.0
C1746 C 0.9721 0.44016 0.77256 0.0
C1747 C 0.98773 0.45234 0.77013 0.0
C1748 C 0.99351 0.46814 0.77672 0.0
C1749 C 0.98329 0.47193 0.78537 0.0
C1750 C 0.96723 0.45996 0.78664 0.0
C1751 C 0.96192 0.44419 0.7804 0.0
C1752 C 0.01064 0.48064 0.77487 0.0
C1753 C 0.95573 0.46364 0.79506 0.0
C1754 C 0.00454 0.46218 0.89157 0.0
C1755 C 0.01775 0.47429 0.88393 0.0
C1756 C 0.01676 0.48616 0.87518 0.0
C1757 C 0.00227 0.48599 0.87415 0.0
C1758 C 0.98912 0.47423 0.88249 0.0
C1759 C 0.99047 0.46252 0.89124 0.0
C1760 C 0.03115 0.49879 0.86682 0.0
C1761 C 0.97357 0.47382 0.88176 0.0
C1762 C 0.02136 0.60485 0.88211 0.0
C1763 C 0.01071 0.59192 0.89392 0.0
C1764 C 0.01377 0.56845 0.88894 0.0
C1765 C 0.02617 0.56565 0.88599 0.0
C1766 C 0.02356 0.55166 0.87707 0.0
C1767 C 0.00806 0.54001 0.87134 0.0
C1768 C 0.99536 0.54253 0.87477 0.0
C1769 C 0.99835 0.55673 0.88352 0.0
C1770 C 0.03737 0.54933 0.8738 0.0
C1771 C 0.9786 0.5301 0.86937 0.0
C1772 C 0.99774 0.51644 0.79185 0.0
C1773 C 0.9924 0.50113 0.78438 0.0
C1774 C 0.98947 0.48805 0.79394 0.0
C1775 C 0.99228 0.49037 0.81142 0.0
C1776 C 0.99082 0.47788 0.82129 0.0
C1777 C 0.99369 0.48031 0.83845 0.0
C1778 C 0.99783 0.49522 0.84646 0.0
C1779 C 0.00092 0.49784 0.86387 0.0
C1780 C 0.00407 0.51246 0.87157 0.0
C1781 C 0.00501 0.52495 0.86223 0.0
C1782 C 0.00311 0.52295 0.84466 0.0
C1783 C 0.00524 0.53565 0.83473 0.0
C1784 C 0.00361 0.53361 0.81742 0.0
C1785 C 0.99933 0.51865 0.80942 0.0
C1786 C 0.99683 0.50561 0.81921 0.0
C1787 C 0.99916 0.5079 0.8368 0.0
C1788 C 0.99895 0.42753 0.88081 0.0
C1789 C 0.01129 0.44113 0.89254 0.0
O1790 O 0.02027 0.57068 0.75187 0.0
O1791 O 0.01702 0.58225 0.89754 0.0
O1792 O 0.00503 0.45006 0.8993 0.0
O1793 O 0.96642 0.42433 0.76821 0.0
H1794 H 0.00216 0.57169 0.74016 0.0
H1795 H 0.02929 0.58753 0.72693 0.0
H1796 H 0.03491 0.60259 0.74362 0.0
H1797 H 0.01863 0.59787 0.72904 0.0
H1798 H 0.99003 0.55228 0.76057 0.0
H1799 H 0.03654 0.5587 0.76299 0.0
H1800 H 0.96991 0.51331 0.77522 0.0
H1801 H 0.96866 0.53136 0.77372 0.0
H1802 H 0.97465 0.52669 0.79316 0.0
H1803 H 0.04263 0.54155 0.7775 0.0
H1804 H 0.02638 0.5211 0.77828 0.0
H1805 H 0.03162 0.53468 0.79613 0.0
H1806 H 0.97948 0.42259 0.74973 0.0
H1807 H 0.96635 0.39355 0.74878 0.0
H1808 H 0.95116 0.39802 0.75239 0.0
H1809 H 0.95914 0.39242 0.76959 0.0
H1810 H 0.9956 0.4495 0.76356 0.0
H1811 H 0.94981 0.43479 0.78195 0.0
H1812 H 0.01626 0.48648 0.7872 0.0
H1813 H 0.01146 0.49018 0.7668 0.0
H1814 H 0.0174 0.47539 0.76926 0.0
H1815 H 0.94328 0.45405 0.79221 0.0
H1816 H 0.95735 0.47535 0.79114 0.0
H1817 H 0.95795 0.46462 0.80875 0.0
H1818 H 0.02177 0.44874 0.8852 0.0
H1819 H 0.02889 0.47457 0.88484 0.0
H1820 H 0.98041 0.45326 0.89741 0.0
H1821 H 0.02883 0.49746 0.85312 0.0
H1822 H 0.04177 0.49783 0.86959 0.0
H1823 H 0.0337 0.51104 0.87092 0.0
H1824 H 0.96449 0.46399 0.88902 0.0
H1825 H 0.96915 0.47211 0.8686 0.0
H1826 H 0.97527 0.48554 0.88667 0.0
H1827 H 0.99881 0.58482 0.8877 0.0
H1828 H 0.01651 0.61279 0.87923 0.0
H1829 H 0.02202 0.59902 0.87025 0.0
H1830 H 0.03349 0.61236 0.88773 0.0
H1831 H 0.03799 0.57463 0.89048 0.0
H1832 H 0.98856 0.55841 0.88646 0.0
H1833 H 0.03738 0.54621 0.86039 0.0
H1834 H 0.03623 0.53913 0.88097 0.0
H1835 H 0.04886 0.56027 0.87746 0.0
H1836 H 0.96993 0.53334 0.87397 0.0
H1837 H 0.97559 0.51815 0.874 0.0
H1838 H 0.97747 0.52888 0.85556 0.0
H1839 H 0.99083 0.49944 0.77092 0.0
H1840 H 0.98764 0.46614 0.81584 0.0
H1841 H 0.99248 0.47029 0.84538 0.0
H1842 H 0.00613 0.51427 0.88498 0.0
H1843 H 0.00842 0.54738 0.84022 0.0
H1844 H 0.00556 0.54385 0.81039 0.0
H1845 H 0.98818 0.41946 0.88755 0.0
H1846 H 0.00384 0.4203 0.87534 0.0
H1847 H 0.99555 0.43271 0.87046 0.0
C1848 C 0.53547 0.58501 0.7377 0.0
C1849 C 0.54648 0.5928 0.75321 0.0
C1850 C 0.53166 0.57165 0.77289 0.0
C1851 C 0.51959 0.5752 0.77542 0.0
C1852 C 0.50617 0.56476 0.78405 0.0
C1853 C 0.50478 0.55051 0.79025 0.0
C1854 C 0.51701 0.54703 0.78796 0.0
C1855 C 0.53037 0.55775 0.77943 0.0
C1856 C 0.4934 0.5689 0.78647 0.0
C1857 C 0.51589 0.53192 0.79441 0.0
C1858 C 0.38973 0.4675 0.75391 0.0
C1859 C 0.40318 0.46694 0.74514 0.0
C1860 C 0.42565 0.47896 0.76571 0.0
C1861 C 0.43553 0.47562 0.77539 0.0
C1862 C 0.44811 0.48776 0.78527 0.0
C1863 C 0.45057 0.50361 0.78585 0.0
C1864 C 0.44066 0.50714 0.77603 0.0
C1865 C 0.42841 0.49482 0.76589 0.0
C1866 C 0.45871 0.48358 0.79509 0.0
C1867 C 0.44294 0.5239 0.77634 0.0
C1868 C 0.41764 0.48262 0.88831 0.0
C1869 C 0.42918 0.47889 0.88373 0.0
C1870 C 0.44345 0.49069 0.87742 0.0
C1871 C 0.44613 0.50647 0.87555 0.0
C1872 C 0.43488 0.51046 0.88102 0.0
C1873 C 0.42081 0.49847 0.88754 0.0
C1874 C 0.45548 0.48617 0.87232 0.0
C1875 C 0.43748 0.52723 0.87944 0.0
C1876 C 0.55793 0.60801 0.89849 0.0
C1877 C 0.54864 0.59902 0.91354 0.0
C1878 C 0.52815 0.57291 0.90054 0.0
C1879 C 0.52429 0.55696 0.8972 0.0
C1880 C 0.51103 0.54635 0.88706 0.0
C1881 C 0.50124 0.5518 0.88032 0.0
C1882 C 0.50485 0.56784 0.88392 0.0
C1883 C 0.51837 0.57831 0.89387 0.0
C1884 C 0.50758 0.52934 0.88343 0.0
C1885 C 0.49449 0.57394 0.87713 0.0
C1886 C 0.49045 0.53918 0.799 0.0
C1887 C 0.47747 0.52742 0.78937 0.0
C1888 C 0.46352 0.51643 0.79675 0.0
C1889 C 0.46237 0.5173 0.81422 0.0
C1890 C 0.44836 0.50682 0.82202 0.0
C1891 C 0.44755 0.50732 0.83926 0.0
C1892 C 0.46075 0.51831 0.84939 0.0
C1893 C 0.46025 0.51846 0.86696 0.0
C1894 C 0.47349 0.52968 0.87665 0.0
C1895 C 0.48739 0.54076 0.86925 0.0
C1896 C 0.48818 0.5407 0.8517 0.0
C1897 C 0.50203 0.55155 0.84386 0.0
C1898 C 0.50274 0.55125 0.8266 0.0
C1899 C 0.48971 0.5399 0.81652 0.0
C1900 C 0.47561 0.5289 0.82415 0.0
C1901 C 0.47482 0.52937 0.84175 0.0
C1902 C 0.37841 0.45217 0.88042 0.0
C1903 C 0.39469 0.45552 0.88651 0.0
O1904 O 0.54461 0.58111 0.76412 0.0
O1905 O 0.54142 0.58253 0.91015 0.0
O1906 O 0.4033 0.47117 0.89331 0.0
O1907 O 0.41361 0.46646 0.75665 0.0
H1908 H 0.544 0.6017 0.75948 0.0
H1909 H 0.52292 0.57879 0.74111 0.0
H1910 H 0.53782 0.57604 0.73138 0.0
H1911 H 0.53724 0.59437 0.72882 0.0
H1912 H 0.52051 0.58604 0.77069 0.0
H1913 H 0.53977 0.55516 0.7775 0.0
H1914 H 0.48224 0.55944 0.78011 0.0
H1915 H 0.49651 0.58076 0.78149 0.0
H1916 H 0.49117 0.56914 0.79993 0.0
H1917 H 0.5262 0.53072 0.79116 0.0
H1918 H 0.50497 0.52115 0.78918 0.0
H1919 H 0.51513 0.53203 0.80816 0.0
H1920 H 0.40947 0.47766 0.73744 0.0
H1921 H 0.38118 0.46739 0.74456 0.0
H1922 H 0.39436 0.47865 0.76198 0.0
H1923 H 0.3834 0.45698 0.76183 0.0
H1924 H 0.43337 0.46339 0.7751 0.0
H1925 H 0.421 0.49768 0.75835 0.0
H1926 H 0.45635 0.48359 0.80852 0.0
H1927 H 0.47131 0.49272 0.79354 0.0
H1928 H 0.45678 0.47149 0.79124 0.0
H1929 H 0.43323 0.52429 0.76946 0.0
H1930 H 0.45424 0.53222 0.77059 0.0
H1931 H 0.44368 0.52842 0.78939 0.0
H1932 H 0.40041 0.45384 0.87543 0.0
H1933 H 0.42699 0.46675 0.88498 0.0
H1934 H 0.41191 0.50127 0.89141 0.0
H1935 H 0.45604 0.48604 0.85855 0.0
H1936 H 0.45253 0.47409 0.87651 0.0
H1937 H 0.46738 0.49528 0.87754 0.0
H1938 H 0.42749 0.52834 0.88411 0.0
H1939 H 0.43905 0.53042 0.86618 0.0
H1940 H 0.44845 0.5361 0.88655 0.0
H1941 H 0.53975 0.60252 0.91657 0.0
H1942 H 0.56347 0.62126 0.90075 0.0
H1943 H 0.54992 0.60449 0.88726 0.0
H1944 H 0.56729 0.60507 0.8959 0.0
H1945 H 0.53188 0.55291 0.90241 0.0
H1946 H 0.52115 0.59061 0.89632 0.0
H1947 H 0.50642 0.52668 0.86977 0.0
H1948 H 0.49618 0.52067 0.88877 0.0
H1949 H 0.51694 0.52731 0.88872 0.0
H1950 H 0.4981 0.58625 0.88225 0.0
H1951 H 0.48201 0.56561 0.88009 0.0
H1952 H 0.49508 0.57425 0.86337 0.0
H1953 H 0.47828 0.52671 0.77597 0.0
H1954 H 0.43786 0.49805 0.81488 0.0
H1955 H 0.43647 0.49888 0.84455 0.0
H1956 H 0.47305 0.52962 0.89012 0.0
H1957 H 0.5125 0.56041 0.85097 0.0
H1958 H 0.5137 0.5599 0.82126 0.0
H1959 H 0.37136 0.43971 0.8748 0.0
H1960 H 0.37976 0.46076 0.87078 0.0
H1961 H 0.37191 0.45364 0.89084 0.0
C1962 C 0.62943 0.76123 0.6293 0.0
C1963 C 0.63203 0.75143 0.61562 0.0
C1964 C 0.63639 0.76804 0.59134 0.0
C1965 C 0.62051 0.76338 0.58794 0.0
C1966 C 0.61644 0.77104 0.57586 0.0
C1967 C 0.62848 0.78374 0.56719 0.0
C1968 C 0.64444 0.78823 0.57036 0.0
C1969 C 0.64813 0.78015 0.58225 0.0
C1970 C 0.59929 0.76585 0.57267 0.0
C1971 C 0.65763 0.80196 0.56163 0.0
C1972 C 0.60668 0.85378 0.62552 0.0
C1973 C 0.61891 0.86323 0.61269 0.0
C1974 C 0.6137 0.8493 0.58563 0.0
C1975 C 0.6288 0.85257 0.58155 0.0
C1976 C 0.63073 0.84204 0.57068 0.0
C1977 C 0.61724 0.82789 0.5639 0.0
C1978 C 0.60198 0.82494 0.56749 0.0
C1979 C 0.60042 0.83589 0.57812 0.0
C1980 C 0.64718 0.84579 0.56683 0.0
C1981 C 0.58734 0.80992 0.56065 0.0
C1982 C 0.60803 0.8428 0.45915 0.0
C1983 C 0.62348 0.84719 0.46423 0.0
C1984 C 0.62668 0.83595 0.47134 0.0
C1985 C 0.61411 0.8201 0.47361 0.0
C1986 C 0.5987 0.81538 0.46747 0.0
C1987 C 0.5959 0.82681 0.46009 0.0
C1988 C 0.64336 0.84122 0.47715 0.0
C1989 C 0.58507 0.79854 0.46949 0.0
C1990 C 0.63141 0.71546 0.44894 0.0
C1991 C 0.62152 0.72367 0.44935 0.0
C1992 C 0.62858 0.75108 0.45945 0.0
C1993 C 0.6411 0.76691 0.46213 0.0
C1994 C 0.6391 0.77868 0.4707 0.0
C1995 C 0.62409 0.77455 0.47655 0.0
C1996 C 0.61125 0.75864 0.47361 0.0
C1997 C 0.61363 0.74705 0.46521 0.0
C1998 C 0.65305 0.79553 0.47358 0.0
C1999 C 0.595 0.7539 0.47935 0.0
C2000 C 0.62455 0.79343 0.55618 0.0
C2001 C 0.62223 0.80525 0.56386 0.0
C2002 C 0.61917 0.81546 0.55455 0.0
C2003 C 0.61837 0.81386 0.53696 0.0
C2004 C 0.61547 0.82402 0.52719 0.0
C2005 C 0.61475 0.82238 0.5099 0.0
C2006 C 0.61712 0.81066 0.50169 0.0
C2007 C 0.61674 0.80916 0.4841 0.0
C2008 C 0.61904 0.79733 0.47633 0.0
C2009 C 0.62179 0.78687 0.48568 0.0
C2010 C 0.62233 0.78828 0.50331 0.0
C2011 C 0.62519 0.77809 0.51314 0.0
C2012 C 0.62576 0.77962 0.53047 0.0
C2013 C 0.62365 0.79151 0.53862 0.0
C2014 C 0.62062 0.80183 0.52897 0.0
C2015 C 0.62 0.80023 0.51131 0.0
C2016 C 0.59537 0.86969 0.46771 0.0
C2017 C 0.60963 0.86876 0.46189 0.0
O2018 O 0.64103 0.76148 0.60336 0.0
O2019 O 0.63145 0.74025 0.45122 0.0
O2020 O 0.60448 0.85388 0.4538 0.0
O2021 O 0.61166 0.8588 0.59691 0.0
H2022 H 0.6205 0.74162 0.61021 0.0
H2023 H 0.62301 0.76695 0.62405 0.0
H2024 H 0.64093 0.77087 0.63493 0.0
H2025 H 0.62224 0.75327 0.63922 0.0
H2026 H 0.61123 0.75396 0.59475 0.0
H2027 H 0.66033 0.78361 0.5849 0.0
H2028 H 0.59707 0.77534 0.5778 0.0
H2029 H 0.59125 0.75434 0.57854 0.0
H2030 H 0.5964 0.76436 0.55907 0.0
H2031 H 0.66947 0.80447 0.56613 0.0
H2032 H 0.65698 0.81309 0.56359 0.0
H2033 H 0.65634 0.79902 0.54803 0.0
H2034 H 0.62839 0.86015 0.61406 0.0
H2035 H 0.6122 0.85721 0.6383 0.0
H2036 H 0.60189 0.84064 0.62315 0.0
H2037 H 0.59674 0.85618 0.62474 0.0
H2038 H 0.63906 0.86328 0.587 0.0
H2039 H 0.58881 0.83363 0.58122 0.0
H2040 H 0.64806 0.84414 0.55324 0.0
H2041 H 0.6498 0.83728 0.57323 0.0
H2042 H 0.65627 0.8583 0.57101 0.0
H2043 H 0.57634 0.80921 0.56498 0.0
H2044 H 0.58758 0.79905 0.56452 0.0
H2045 H 0.58705 0.80968 0.54684 0.0
H2046 H 0.61708 0.87041 0.47325 0.0
H2047 H 0.63295 0.85948 0.46293 0.0
H2048 H 0.58406 0.82352 0.45584 0.0
H2049 H 0.64434 0.84254 0.49096 0.0
H2050 H 0.65208 0.85294 0.47211 0.0
H2051 H 0.64642 0.83196 0.47335 0.0
H2052 H 0.57385 0.79669 0.46376 0.0
H2053 H 0.58342 0.79615 0.48294 0.0
H2054 H 0.58772 0.78959 0.46369 0.0
H2055 H 0.6144 0.71913 0.46059 0.0
H2056 H 0.62383 0.7023 0.44603 0.0
H2057 H 0.63726 0.71707 0.46139 0.0
H2058 H 0.6409 0.72098 0.43991 0.0
H2059 H 0.65257 0.77 0.4576 0.0
H2060 H 0.6037 0.73495 0.46314 0.0
H2061 H 0.65473 0.79906 0.48708 0.0
H2062 H 0.65074 0.80419 0.46705 0.0
H2063 H 0.66414 0.79661 0.46906 0.0
H2064 H 0.58601 0.74136 0.47516 0.0
H2065 H 0.59132 0.76227 0.47455 0.0
H2066 H 0.59526 0.75491 0.49316 0.0
H2067 H 0.623 0.80666 0.57736 0.0
H2068 H 0.61371 0.83335 0.53281 0.0
H2069 H 0.61236 0.8305 0.50307 0.0
H2070 H 0.61871 0.79627 0.46284 0.0
H2071 H 0.62703 0.76881 0.50755 0.0
H2072 H 0.62796 0.77143 0.53741 0.0
H2073 H 0.59928 0.88154 0.47426 0.0
H2074 H 0.58874 0.86003 0.47651 0.0
H2075 H 0.58728 0.86804 0.457 0.0
C2076 C 0.14375 0.73771 0.63189 0.0
C2077 C 0.13146 0.74051 0.62301 0.0
C2078 C 0.13896 0.74755 0.59484 0.0
C2079 C 0.13627 0.7603 0.5921 0.0
C2080 C 0.14556 0.77236 0.58121 0.0
C2081 C 0.15795 0.77173 0.57315 0.0
C2082 C 0.16039 0.7586 0.57562 0.0
C2083 C 0.15062 0.74649 0.58625 0.0
C2084 C 0.14239 0.78597 0.57866 0.0
C2085 C 0.17365 0.75765 0.56754 0.0
C2086 C 0.24249 0.86141 0.6296 0.0
C2087 C 0.24602 0.87132 0.61404 0.0
C2088 C 0.22312 0.85436 0.59489 0.0
C2089 C 0.22711 0.84254 0.59092 0.0
C2090 C 0.21715 0.82907 0.58035 0.0
C2091 C 0.20294 0.8274 0.57365 0.0
C2092 C 0.19902 0.83939 0.57743 0.0
C2093 C 0.2092 0.85273 0.58797 0.0
C2094 C 0.22167 0.81651 0.57649 0.0
C2095 C 0.18394 0.83796 0.57054 0.0
C2096 C 0.22687 0.84748 0.46561 0.0
C2097 C 0.2287 0.83465 0.47087 0.0
C2098 C 0.2169 0.82211 0.47965 0.0
C2099 C 0.20296 0.82232 0.48323 0.0
C2100 C 0.20097 0.83504 0.47775 0.0
C2101 C 0.21297 0.84746 0.46901 0.0
C2102 C 0.21937 0.80867 0.48528 0.0
C2103 C 0.18623 0.8356 0.48132 0.0
C2104 C 0.09652 0.70129 0.46851 0.0
C2105 C 0.10246 0.71843 0.46293 0.0
C2106 C 0.13011 0.73991 0.46673 0.0
C2107 C 0.14504 0.74179 0.46948 0.0
C2108 C 0.15734 0.75585 0.47753 0.0
C2109 C 0.15463 0.76844 0.48264 0.0
C2110 C 0.13981 0.767 0.479 0.0
C2111 C 0.12767 0.75274 0.47105 0.0
C2112 C 0.17308 0.75709 0.48098 0.0
C2113 C 0.1367 0.78042 0.48381 0.0
C2114 C 0.16905 0.7854 0.56318 0.0
C2115 C 0.18064 0.79938 0.57185 0.0
C2116 C 0.1917 0.81269 0.56347 0.0
C2117 C 0.19155 0.81198 0.54587 0.0
C2118 C 0.20286 0.82492 0.53704 0.0
C2119 C 0.20262 0.82408 0.51971 0.0
C2120 C 0.19094 0.81033 0.51054 0.0
C2121 C 0.1906 0.80933 0.49293 0.0
C2122 C 0.17862 0.79562 0.4842 0.0
C2123 C 0.167 0.78269 0.49261 0.0
C2124 C 0.16734 0.78331 0.51023 0.0
C2125 C 0.15601 0.77038 0.5191 0.0
C2126 C 0.15648 0.77106 0.53643 0.0
C2127 C 0.16833 0.78467 0.54557 0.0
C2128 C 0.17974 0.79795 0.53689 0.0
C2129 C 0.17933 0.79721 0.51921 0.0
C2130 C 0.2642 0.86956 0.46924 0.0
C2131 C 0.25307 0.86305 0.4537 0.0
O2132 O 0.13073 0.73649 0.60618 0.0
O2133 O 0.11841 0.72562 0.45986 0.0
O2134 O 0.23815 0.86012 0.45742 0.0
O2135 O 0.23208 0.86738 0.60544 0.0
H2136 H 0.1351 0.75346 0.62514 0.0
H2137 H 0.15546 0.74522 0.62649 0.0
H2138 H 0.14039 0.72482 0.63042 0.0
H2139 H 0.14481 0.74119 0.64537 0.0
H2140 H 0.12701 0.76085 0.59865 0.0
H2141 H 0.1525 0.7365 0.58846 0.0
H2142 H 0.15187 0.79714 0.58522 0.0
H2143 H 0.13087 0.78334 0.58357 0.0
H2144 H 0.1425 0.78835 0.56522 0.0
H2145 H 0.17481 0.74743 0.57191 0.0
H2146 H 0.18501 0.76905 0.57022 0.0
H2147 H 0.17149 0.75611 0.55383 0.0
H2148 H 0.25383 0.86913 0.60588 0.0
H2149 H 0.25365 0.86461 0.63657 0.0
H2150 H 0.23632 0.84833 0.62608 0.0
H2151 H 0.23486 0.86372 0.6379 0.0
H2152 H 0.23784 0.84358 0.59611 0.0
H2153 H 0.20623 0.86191 0.59106 0.0
H2154 H 0.21284 0.80485 0.58154 0.0
H2155 H 0.23353 0.81999 0.58188 0.0
H2156 H 0.22157 0.81454 0.5628 0.0
H2157 H 0.18265 0.84838 0.57459 0.0
H2158 H 0.17365 0.82672 0.57469 0.0
H2159 H 0.18365 0.83714 0.55673 0.0
H2160 H 0.25239 0.85179 0.4487 0.0
H2161 H 0.2393 0.83434 0.46829 0.0
H2162 H 0.21161 0.85734 0.46489 0.0
H2163 H 0.21917 0.80838 0.49907 0.0
H2164 H 0.23074 0.81008 0.48128 0.0
H2165 H 0.20958 0.79687 0.48017 0.0
H2166 H 0.18641 0.84626 0.47609 0.0
H2167 H 0.18493 0.83598 0.49499 0.0
H2168 H 0.17571 0.82448 0.47598 0.0
H2169 H 0.10032 0.72497 0.47326 0.0
H2170 H 0.08371 0.69523 0.47087 0.0
H2171 H 0.10295 0.70176 0.48024 0.0
H2172 H 0.09853 0.69403 0.45891 0.0
H2173 H 0.14688 0.73194 0.46579 0.0
H2174 H 0.11634 0.75166 0.46824 0.0
H2175 H 0.17589 0.75878 0.4946 0.0
H2176 H 0.1825 0.76782 0.47503 0.0
H2177 H 0.17327 0.74621 0.47626 0.0
H2178 H 0.12503 0.77802 0.47889 0.0
H2179 H 0.14606 0.792 0.4791 0.0
H2180 H 0.1371 0.78189 0.4976 0.0
H2181 H 0.18099 0.79996 0.58537 0.0
H2182 H 0.21209 0.83581 0.54345 0.0
H2183 H 0.21167 0.83438 0.51359 0.0
H2184 H 0.17841 0.79496 0.4707 0.0
H2185 H 0.14665 0.75955 0.51275 0.0
H2186 H 0.14745 0.76077 0.54258 0.0
H2187 H 0.27626 0.87235 0.46606 0.0
H2188 H 0.25999 0.86049 0.47895 0.0
H2189 H 0.26484 0.8807 0.47456 0.0
C2190 C 0.12131 0.37597 0.63444 0.0
C2191 C 0.12807 0.38269 0.61763 0.0
C2192 C 0.14158 0.37383 0.59826 0.0
C2193 C 0.15282 0.38929 0.5933 0.0
C2194 C 0.16527 0.3915 0.58333 0.0
C2195 C 0.16642 0.37798 0.578 0.0
C2196 C 0.15493 0.36238 0.58258 0.0
C2197 C 0.14263 0.36051 0.59262 0.0
C2198 C 0.17726 0.4083 0.57855 0.0
C2199 C 0.15572 0.3477 0.57692 0.0
C2200 C 0.26493 0.40333 0.63464 0.0
C2201 C 0.25873 0.38897 0.62206 0.0
C2202 C 0.24707 0.39204 0.59663 0.0
C2203 C 0.23428 0.37647 0.59301 0.0
C2204 C 0.22118 0.37409 0.58328 0.0
C2205 C 0.2208 0.38762 0.5773 0.0
C2206 C 0.23377 0.40336 0.58096 0.0
C2207 C 0.24691 0.40532 0.5903 0.0
C2208 C 0.20772 0.35713 0.57943 0.0
C2209 C 0.23369 0.41812 0.57519 0.0
C2210 C 0.24828 0.40277 0.47157 0.0
C2211 C 0.23814 0.38664 0.47529 0.0
C2212 C 0.22391 0.38204 0.48309 0.0
C2213 C 0.21999 0.39392 0.48754 0.0
C2214 C 0.22993 0.41008 0.48316 0.0
C2215 C 0.24386 0.41423 0.47497 0.0
C2216 C 0.21324 0.36458 0.48688 0.0
C2217 C 0.22605 0.42305 0.48749 0.0
C2218 C 0.1126 0.39036 0.47083 0.0
C2219 C 0.12206 0.389 0.45661 0.0
C2220 C 0.13907 0.37977 0.46924 0.0
C2221 C 0.14128 0.36657 0.47049 0.0
C2222 C 0.15411 0.3678 0.47981 0.0
C2223 C 0.16507 0.38269 0.48802 0.0
C2224 C 0.16295 0.39614 0.48682 0.0
C2225 C 0.14991 0.39453 0.47756 0.0
C2226 C 0.15597 0.3532 0.4809 0.0
C2227 C 0.17452 0.41225 0.49529 0.0
C2228 C 0.17981 0.38027 0.56783 0.0
C2229 C 0.19342 0.38244 0.57618 0.0
C2230 C 0.20672 0.38529 0.56751 0.0
C2231 C 0.20652 0.38612 0.54996 0.0
C2232 C 0.21971 0.38911 0.54083 0.0
C2233 C 0.21959 0.39041 0.52365 0.0
C2234 C 0.20611 0.38834 0.51485 0.0
C2235 C 0.20588 0.38966 0.49738 0.0
C2236 C 0.19229 0.38755 0.48905 0.0
C2237 C 0.17886 0.38425 0.49769 0.0
C2238 C 0.17886 0.38289 0.51517 0.0
C2239 C 0.16554 0.37956 0.52425 0.0
C2240 C 0.16579 0.37862 0.54149 0.0
C2241 C 0.17933 0.38089 0.55029 0.0
C2242 C 0.19279 0.38395 0.54135 0.0
C2243 C 0.19256 0.38499 0.52377 0.0
C2244 C 0.28892 0.4173 0.47411 0.0
C2245 C 0.27282 0.40255 0.46932 0.0
O2246 O 0.1296 0.37119 0.60836 0.0
O2247 O 0.12636 0.37763 0.45993 0.0
O2248 O 0.26242 0.40766 0.46476 0.0
O2249 O 0.25971 0.39449 0.60616 0.0
H2250 H 0.1399 0.3933 0.62097 0.0
H2251 H 0.1301 0.37443 0.64182 0.0
H2252 H 0.11051 0.36391 0.6329 0.0
H2253 H 0.11896 0.3845 0.64169 0.0
H2254 H 0.15201 0.39972 0.59709 0.0
H2255 H 0.13385 0.34862 0.59632 0.0
H2256 H 0.18927 0.41121 0.5828 0.0
H2257 H 0.17491 0.41762 0.58398 0.0
H2258 H 0.17717 0.40891 0.56478 0.0
H2259 H 0.14555 0.33632 0.58101 0.0
H2260 H 0.1668 0.34872 0.58198 0.0
H2261 H 0.15597 0.34705 0.56312 0.0
H2262 H 0.24624 0.38023 0.62488 0.0
H2263 H 0.26388 0.39923 0.64757 0.0
H2264 H 0.2579 0.40938 0.63326 0.0
H2265 H 0.27751 0.41224 0.63257 0.0
H2266 H 0.23465 0.36621 0.59769 0.0
H2267 H 0.25693 0.41728 0.59313 0.0
H2268 H 0.2046 0.35525 0.56587 0.0
H2269 H 0.19716 0.3553 0.58603 0.0
H2270 H 0.2106 0.3479 0.58333 0.0
H2271 H 0.24365 0.42946 0.58096 0.0
H2272 H 0.22243 0.4175 0.57821 0.0
H2273 H 0.23464 0.4186 0.56147 0.0
H2274 H 0.26881 0.39507 0.48044 0.0
H2275 H 0.24134 0.37766 0.47208 0.0
H2276 H 0.25169 0.4266 0.47176 0.0
H2277 H 0.21367 0.36321 0.5005 0.0
H2278 H 0.21679 0.35654 0.4805 0.0
H2279 H 0.20083 0.36057 0.48302 0.0
H2280 H 0.23557 0.43522 0.48426 0.0
H2281 H 0.22405 0.42326 0.50102 0.0
H2282 H 0.21498 0.42033 0.48067 0.0
H2283 H 0.13269 0.40098 0.45493 0.0
H2284 H 0.10899 0.39932 0.46804 0.0
H2285 H 0.1199 0.39441 0.48262 0.0
H2286 H 0.10187 0.3785 0.47266 0.0
H2287 H 0.13286 0.35523 0.46408 0.0
H2288 H 0.14834 0.40485 0.47696 0.0
H2289 H 0.15688 0.35073 0.49415 0.0
H2290 H 0.16707 0.35563 0.47507 0.0
H2291 H 0.14595 0.34226 0.47457 0.0
H2292 H 0.17176 0.4218 0.49233 0.0
H2293 H 0.18668 0.41612 0.49144 0.0
H2294 H 0.17437 0.4111 0.50898 0.0
H2295 H 0.19371 0.38204 0.58965 0.0
H2296 H 0.23037 0.39066 0.54688 0.0
H2297 H 0.23021 0.39303 0.51737 0.0
H2298 H 0.19225 0.3887 0.47566 0.0
H2299 H 0.15479 0.37772 0.51815 0.0
H2300 H 0.15522 0.37612 0.54783 0.0
H2301 H 0.29748 0.41351 0.47785 0.0
H2302 H 0.28778 0.42419 0.48481 0.0
H2303 H 0.29359 0.42539 0.46352 0.0
H2304 H 0.97575 0.36349 0.03087 0.0
C2305 C 0.98605 0.36206 0.03074 0.0
H2306 H 0.00886 0.37034 0.04128 0.0
H2307 H 0.01787 0.43943 0.05732 0.0
H2308 H 0.03612 0.44477 0.03524 0.0
H2309 H 0.03733 0.42252 0.0206 0.0
H2310 H 0.02044 0.39484 0.02801 0.0
C2311 C 0.99806 0.37083 0.04185 0.0
C2312 C 0.99836 0.38421 0.05205 0.0
C2313 C 0.00856 0.40038 0.04775 0.0
C2314 C 0.00771 0.41319 0.05601 0.0
C2315 C 0.01789 0.42921 0.05131 0.0
C2316 C 0.02846 0.43246 0.03869 0.0
C2317 C 0.02916 0.41994 0.03047 0.0
C2318 C 0.01938 0.40408 0.03489 0.0
H2319 H 0.99858 0.44153 0.09235 0.0
C2320 C 0.00074 0.43164 0.09 0.0
H2321 H 0.98865 0.42736 0.0671 0.0
H2322 H 0.97847 0.3549 0.06456 0.0
H2323 H 0.95985 0.34952 0.08635 0.0
H2324 H 0.95778 0.37167 0.10006 0.0
H2325 H 0.9744 0.39937 0.09218 0.0
C2326 C 0.99452 0.42315 0.07542 0.0
C2327 C 0.99667 0.40986 0.06856 0.0
C2328 C 0.98677 0.39376 0.0732 0.0
C2329 C 0.98775 0.38094 0.06506 0.0
C2330 C 0.97795 0.36501 0.07012 0.0
C2331 C 0.96728 0.36178 0.08264 0.0
C2332 C 0.96613 0.37426 0.09038 0.0
C2333 C 0.97573 0.39009 0.08575 0.0
H2334 H 0.63244 0.61227 0.05942 0.0
C2335 C 0.64012 0.61156 0.05029 0.0
H2336 H 0.64891 0.59723 0.0401 0.0
H2337 H 0.63323 0.5645 0.11115 0.0
H2338 H 0.66153 0.58228 0.11482 0.0
H2339 H 0.67668 0.60117 0.09326 0.0
H2340 H 0.66357 0.60244 0.06792 0.0
C2341 C 0.64069 0.59796 0.04842 0.0
C2342 C 0.63193 0.5847 0.05984 0.0
C2343 C 0.63986 0.58367 0.07424 0.0
C2344 C 0.63116 0.5726 0.08654 0.0
C2345 C 0.63927 0.57241 0.10122 0.0
C2346 C 0.65553 0.58261 0.10353 0.0
C2347 C 0.66406 0.59326 0.0914 0.0
C2348 C 0.65638 0.59387 0.07692 0.0
H2349 H 0.61263 0.5347 0.09247 0.0
C2350 C 0.60545 0.53784 0.10006 0.0
H2351 H 0.59833 0.5549 0.10499 0.0
H2352 H 0.61353 0.58269 0.03288 0.0
H2353 H 0.58522 0.56454 0.02886 0.0
H2354 H 0.57009 0.54516 0.05008 0.0
H2355 H 0.58315 0.54379 0.07545 0.0
C2356 C 0.60531 0.55149 0.09741 0.0
C2357 C 0.6146 0.56234 0.08416 0.0
C2358 C 0.60677 0.56294 0.06944 0.0
C2359 C 0.61547 0.57413 0.05723 0.0
C2360 C 0.60741 0.5745 0.04261 0.0
C2361 C 0.5912 0.56413 0.04014 0.0
C2362 C 0.58268 0.55321 0.05208 0.0
C2363 C 0.59031 0.55256 0.06659 0.0
H2364 H 0.35783 0.01296 0.03953 0.0
C2365 C 0.36554 0.01598 0.02909 0.0
H2366 H 0.388 0.02142 0.0212 0.0
H2367 H 0.42504 0.04324 0.09066 0.0
H2368 H 0.43825 0.06805 0.07593 0.0
H2369 H 0.42772 0.07021 0.04863 0.0
H2370 H 0.404 0.0475 0.03579 0.0
C2371 C 0.38033 0.01887 0.03162 0.0
C2372 C 0.38637 0.01762 0.04835 0.0
C2373 C 0.40006 0.03111 0.05585 0.0
C2374 C 0.40598 0.02996 0.07174 0.0
C2375 C 0.41991 0.0435 0.07872 0.0
C2376 C 0.42762 0.05782 0.0704 0.0
C2377 C 0.4217 0.05903 0.05502 0.0
C2378 C 0.40808 0.04589 0.04777 0.0
H2379 H 0.40886 0.99571 0.08774 0.0
C2380 C 0.40984 0.00357 0.09829 0.0
H2381 H 0.40572 0.022 0.10696 0.0
H2382 H 0.3619 0.98815 0.03625 0.0
H2383 H 0.34785 0.96397 0.05164 0.0
H2384 H 0.35586 0.96331 0.08074 0.0
H2385 H 0.37836 0.9867 0.09435 0.0
C2386 C 0.40471 0.01404 0.09651 0.0
C2387 C 0.39807 0.0154 0.08022 0.0
C2388 C 0.38413 0.00203 0.07294 0.0
C2389 C 0.37872 0.00287 0.05668 0.0
C2390 C 0.36585 0.98869 0.04902 0.0
C2391 C 0.35777 0.9746 0.05765 0.0
C2392 C 0.36233 0.9742 0.07398 0.0
C2393 C 0.37536 0.98769 0.08159 0.0
H2394 H 0.36498 0.9736 0.97584 0.0
C2395 C 0.36233 0.98234 0.97072 0.0
H2396 H 0.3689 0.00102 0.95404 0.0
H2397 H 0.43959 0.02209 0.94647 0.0
H2398 H 0.44212 0.04437 0.96401 0.0
H2399 H 0.41882 0.04284 0.97685 0.0
H2400 H 0.39287 0.01903 0.97224 0.0
C2401 C 0.37138 0.9921 0.959 0.0
C2402 C 0.38552 0.99197 0.95296 0.0
C2403 C 0.4006 0.00596 0.95581 0.0
C2404 C 0.414 0.00691 0.94832 0.0
C2405 C 0.42896 0.02093 0.95154 0.0
C2406 C 0.4306 0.03374 0.96169 0.0
C2407 C 0.41748 0.03287 0.96892 0.0
C2408 C 0.40264 0.01917 0.96611 0.0
H2409 H 0.42558 0.01386 0.91353 0.0
C2410 C 0.43056 0.00611 0.91529 0.0
H2411 H 0.42997 0.9876 0.92919 0.0
H2412 H 0.35829 0.96323 0.94479 0.0
H2413 H 0.35613 0.94065 0.92837 0.0
H2414 H 0.3796 0.94201 0.91624 0.0
H2415 H 0.40536 0.96606 0.92036 0.0
C2416 C 0.42555 0.99583 0.9277 0.0
C2417 C 0.41227 0.99393 0.93786 0.0
C2418 C 0.39741 0.97951 0.93592 0.0
C2419 C 0.38393 0.97861 0.94324 0.0
C2420 C 0.36904 0.96446 0.94008 0.0
C2421 C 0.36759 0.9514 0.93054 0.0
C2422 C 0.3808 0.95217 0.92368 0.0
C2423 C 0.39553 0.96607 0.92618 0.0
H2424 H 0.99942 0.37076 0.95937 0.0
C2425 C 0.01035 0.37495 0.96667 0.0
H2426 H 0.03331 0.39473 0.97236 0.0
H2427 H 0.00636 0.40361 0.89837 0.0
H2428 H 0.01059 0.38206 0.88867 0.0
H2429 H 0.02027 0.36925 0.90804 0.0
H2430 H 0.02537 0.37771 0.93734 0.0
C2431 C 0.02233 0.39004 0.96503 0.0
C2432 C 0.02053 0.40048 0.95292 0.0
C2433 C 0.01864 0.39617 0.93565 0.0
C2434 C 0.01399 0.40422 0.92433 0.0
C2435 C 0.01077 0.3986 0.9074 0.0
C2436 C 0.013 0.3861 0.90167 0.0
C2437 C 0.01837 0.37884 0.91258 0.0
C2438 C 0.02115 0.38374 0.92939 0.0
H2439 H 0.02817 0.43525 0.90496 0.0
C2440 C 0.01676 0.43438 0.90612 0.0
H2441 H 0.99604 0.42495 0.91974 0.0
H2442 H 0.02458 0.41258 0.98499 0.0
H2443 H 0.02199 0.43531 0.99461 0.0
H2444 H 0.0152 0.45021 0.97481 0.0
H2445 H 0.01082 0.44241 0.9453 0.0
C2446 C 0.00744 0.42587 0.91836 0.0
C2447 C 0.01232 0.41737 0.93015 0.0
C2448 C 0.01506 0.42224 0.94731 0.0
C2449 C 0.01915 0.41376 0.95871 0.0
C2450 C 0.02152 0.41866 0.97582 0.0
C2451 C 0.02009 0.43169 0.98149 0.0
C2452 C 0.01625 0.44007 0.97034 0.0
C2453 C 0.01375 0.43546 0.95344 0.0
H2454 H 0.62808 0.64522 0.98558 0.0
C2455 C 0.62204 0.6401 0.99693 0.0
H2456 H 0.60021 0.62532 0.0077 0.0
H2457 H 0.55487 0.62945 0.95496 0.0
H2458 H 0.55015 0.64073 0.98002 0.0
H2459 H 0.56684 0.6465 0.00554 0.0
H2460 H 0.58819 0.6408 0.00622 0.0
C2461 C 0.60626 0.63051 0.99638 0.0
C2462 C 0.59653 0.62734 0.98071 0.0
C2463 C 0.58436 0.6312 0.98038 0.0
C2464 C 0.57502 0.6283 0.96552 0.0
C2465 C 0.56256 0.6317 0.96577 0.0
C2466 C 0.55968 0.63816 0.9801 0.0
C2467 C 0.56906 0.64138 0.99447 0.0
C2468 C 0.58127 0.63799 0.99469 0.0
H2469 H 0.56061 0.59363 0.93428 0.0
C2470 C 0.55952 0.60322 0.92872 0.0
H2471 H 0.56636 0.62783 0.93052 0.0
H2472 H 0.61655 0.61527 0.97762 0.0
H2473 H 0.62277 0.60615 0.95201 0.0
H2474 H 0.60961 0.60546 0.92528 0.0
H2475 H 0.58968 0.61324 0.92419 0.0
C2476 C 0.5678 0.61828 0.93558 0.0
C2477 C 0.57814 0.622 0.95085 0.0
C2478 C 0.59074 0.61877 0.95099 0.0
C2479 C 0.59936 0.62059 0.96612 0.0
C2480 C 0.61051 0.61537 0.96627 0.0
C2481 C 0.61406 0.6099 0.95168 0.0
C2482 C 0.60658 0.60941 0.93665 0.0
C2483 C 0.59504 0.61376 0.93624 0.0
H2484 H 0.02921 0.64333 0.99362 0.0
C2485 C 0.01846 0.64392 0.99258 0.0
H2486 H 0.99837 0.6384 0.97745 0.0
H2487 H 0.02467 0.63299 0.90851 0.0
H2488 H 0.02467 0.65808 0.90606 0.0
H2489 H 0.01945 0.67084 0.93026 0.0
H2490 H 0.01424 0.65862 0.95707 0.0
C2491 C 0.0091 0.63782 0.97869 0.0
C2492 C 0.01302 0.63038 0.96441 0.0
C2493 C 0.01597 0.63764 0.9488 0.0
C2494 C 0.01884 0.63022 0.9348 0.0
C2495 C 0.02207 0.63792 0.91945 0.0
C2496 C 0.02221 0.65238 0.9179 0.0
C2497 C 0.01928 0.65957 0.93152 0.0
C2498 C 0.01625 0.65239 0.94684 0.0
H2499 H 0.99808 0.59997 0.91097 0.0
C2500 C 0.00892 0.59964 0.90971 0.0
H2501 H 0.03144 0.60685 0.92052 0.0
H2502 H 0.00643 0.61233 0.99215 0.0
H2503 H 0.00688 0.58753 0.99457 0.0
H2504 H 0.01293 0.5753 0.97053 0.0
H2505 H 0.01839 0.58777 0.94382 0.0
C2506 C 0.02054 0.60707 0.92152 0.0
C2507 C 0.0186 0.61544 0.93639 0.0
C2508 C 0.01603 0.60836 0.95207 0.0
C2509 C 0.01297 0.61567 0.96605 0.0
C2510 C 0.00944 0.60773 0.98127 0.0
C2511 C 0.00952 0.59337 0.98281 0.0
C2512 C 0.0129 0.58647 0.96927 0.0
C2513 C 0.01603 0.59377 0.95402 0.0
H2514 H 0.36514 0.40382 0.97777 0.0
C2515 C 0.36552 0.39301 0.97428 0.0
H2516 H 0.37251 0.38158 0.95642 0.0
H2517 H 0.36376 0.41955 0.89842 0.0
H2518 H 0.34308 0.39211 0.89159 0.0
H2519 H 0.33782 0.37031 0.91041 0.0
H2520 H 0.35313 0.37592 0.93623 0.0
C2521 C 0.37254 0.39252 0.96029 0.0
C2522 C 0.37736 0.40541 0.94813 0.0
C2523 C 0.36864 0.4018 0.93276 0.0
C2524 C 0.37193 0.41429 0.9217 0.0
C2525 C 0.3623 0.41049 0.90697 0.0
C2526 C 0.35023 0.39477 0.90295 0.0
C2527 C 0.34725 0.38251 0.91356 0.0
C2528 C 0.3562 0.38592 0.92835 0.0
H2529 H 0.39539 0.43399 0.89508 0.0
C2530 C 0.39323 0.44359 0.8991 0.0
H2531 H 0.3857 0.45306 0.91851 0.0
H2532 H 0.39734 0.41602 0.97574 0.0
H2533 H 0.41842 0.44349 0.98244 0.0
H2534 H 0.42418 0.46519 0.96326 0.0
H2535 H 0.40894 0.45956 0.93725 0.0
C2536 C 0.38779 0.44346 0.91432 0.0
C2537 C 0.38436 0.43029 0.92577 0.0
C2538 C 0.39328 0.43382 0.94097 0.0
C2539 C 0.38984 0.42134 0.95213 0.0
C2540 C 0.3992 0.42512 0.96703 0.0
C2541 C 0.4114 0.44081 0.97097 0.0
C2542 C 0.41466 0.45303 0.96016 0.0
C2543 C 0.40579 0.44964 0.94529 0.0
H2544 H 0.64815 0.99949 0.9835 0.0
C2545 C 0.64151 0.99404 0.99446 0.0
H2546 H 0.61876 0.98129 0.00422 0.0
H2547 H 0.5947 0.00947 0.94695 0.0
H2548 H 0.59842 0.02809 0.97007 0.0
H2549 H 0.6109 0.02747 0.9968 0.0
H2550 H 0.61973 0.00827 0.00051 0.0
C2551 C 0.62567 0.98593 0.99325 0.0
C2552 C 0.61734 0.98554 0.97746 0.0
C2553 C 0.61226 0.99684 0.97548 0.0
C2554 C 0.60518 0.99726 0.96006 0.0
C2555 C 0.60024 0.0087 0.95839 0.0
C2556 C 0.60229 0.01944 0.97156 0.0
C2557 C 0.6093 0.01909 0.9866 0.0
C2558 C 0.61429 0.00798 0.98859 0.0
H2559 H 0.57422 0.9667 0.93329 0.0
C2560 C 0.58146 0.97664 0.92546 0.0
H2561 H 0.60378 0.99731 0.92266 0.0
H2562 H 0.62471 0.96168 0.9777 0.0
H2563 H 0.62091 0.94294 0.95466 0.0
H2564 H 0.60918 0.94403 0.92765 0.0
H2565 H 0.6011 0.96377 0.92353 0.0
C2566 C 0.59641 0.98735 0.93039 0.0
C2567 C 0.60315 0.98634 0.9467 0.0
C2568 C 0.60795 0.97482 0.94879 0.0
C2569 C 0.61497 0.97436 0.96425 0.0
C2570 C 0.61952 0.96266 0.96612 0.0
C2571 C 0.61737 0.95182 0.95302 0.0
C2572 C 0.61074 0.95242 0.93782 0.0
C2573 C 0.6061 0.96379 0.93564 0.0
H2574 H 0.64293 0.01809 0.06142 0.0
C2575 C 0.64982 0.02795 0.05335 0.0
H2576 H 0.65179 0.04869 0.04251 0.0
H2577 H 0.57757 0.00037 0.06567 0.0
H2578 H 0.57509 0.9848 0.04025 0.0
H2579 H 0.59789 0.99284 0.02254 0.0
H2580 H 0.62333 0.01658 0.03018 0.0
C2581 C 0.64504 0.03846 0.05017 0.0
C2582 C 0.63057 0.03632 0.05803 0.0
C2583 C 0.61572 0.02273 0.05323 0.0
C2584 C 0.60262 0.01813 0.06343 0.0
C2585 C 0.58798 0.00432 0.05845 0.0
C2586 C 0.58637 0.99532 0.04386 0.0
C2587 C 0.59921 -0.00015 0.03388 0.0
C2588 C 0.61374 0.01341 0.03844 0.0
H2589 H 0.58656 0.03932 0.08996 0.0
C2590 C 0.5835 0.02773 0.09491 0.0
H2591 H 0.58818 0.00868 0.09517 0.0
H2592 H 0.65658 0.06469 0.06869 0.0
H2593 H 0.65927 0.08072 0.09384 0.0
H2594 H 0.63707 0.07212 0.11254 0.0
H2595 H 0.61211 0.0477 0.10618 0.0
C2596 C 0.59153 0.02042 0.09043 0.0
C2597 C 0.6044 0.02716 0.07842 0.0
C2598 C 0.61899 0.04151 0.08255 0.0
C2599 C 0.63199 0.04625 0.07208 0.0
C2600 C 0.64645 0.06052 0.07639 0.0
C2601 C 0.64814 0.06981 0.09075 0.0
C2602 C 0.63562 0.06498 0.10125 0.0
C2603 C 0.62125 0.05096 0.09735 0.0
H2604 H 0.96782 0.60947 0.0443 0.0
C2605 C 0.97837 0.62095 0.04771 0.0
H2606 H 0.99843 0.63338 0.06402 0.0
H2607 H 0.9707 0.58561 0.12198 0.0
H2608 H 0.96988 0.60878 0.13343 0.0
H2609 H 0.97573 0.63177 0.11614 0.0
H2610 H 0.9823 0.63165 0.08727 0.0
C2611 C 0.98821 0.62185 0.06008 0.0
C2612 C 0.98453 0.60777 0.07023 0.0
C2613 C 0.98092 0.60815 0.08716 0.0
C2614 C 0.97782 0.59503 0.09721 0.0
C2615 C 0.97367 0.59547 0.11392 0.0
C2616 C 0.97302 0.60864 0.12062 0.0
C2617 C 0.97629 0.62157 0.11088 0.0
C2618 C 0.98011 0.62136 0.09433 0.0
H2619 H 0.99816 0.58371 0.11496 0.0
C2620 C 0.98788 0.57165 0.11328 0.0
H2621 H 0.96655 0.55673 0.09938 0.0
H2622 H 0.99178 0.6035 0.03841 0.0
H2623 H 0.99227 0.58015 0.02693 0.0
H2624 H 0.98643 0.5572 0.04429 0.0
H2625 H 0.98017 0.55752 0.0733 0.0
C2626 C 0.97689 0.5687 0.1013 0.0
C2627 C 0.97871 0.58173 0.09041 0.0
C2628 C 0.9819 0.58115 0.07338 0.0
C2629 C 0.98498 0.59427 0.06329 0.0
C2630 C 0.98889 0.5937 0.04652 0.0
C2631 C 0.98932 0.5804 0.0398 0.0
C2632 C 0.98606 0.56749 0.04958 0.0
C2633 C 0.98246 0.56782 0.0662 0.0
H2634 H 0.39703 0.36334 0.02432 0.0
C2635 C 0.3863 0.36363 0.02665 0.0
H2636 H 0.3735 0.36833 0.04455 0.0
H2637 H 0.40667 0.35818 0.10727 0.0
H2638 H 0.3801 0.33528 0.10819 0.0
H2639 H 0.36054 0.32898 0.08521 0.0
H2640 H 0.36744 0.34552 0.06117 0.0
C2641 C 0.38422 0.36813 0.04194 0.0
C2642 C 0.39605 0.37227 0.05591 0.0
C2643 C 0.39177 0.36256 0.06996 0.0
C2644 C 0.40303 0.36624 0.08326 0.0
C2645 C 0.39853 0.35611 0.09696 0.0
C2646 C 0.38333 0.34287 0.09761 0.0
C2647 C 0.37232 0.33932 0.08467 0.0
C2648 C 0.37643 0.34896 0.07095 0.0
H2649 H 0.42003 0.39362 0.11224 0.0
C2650 C 0.42943 0.39088 0.11088 0.0
H2651 H 0.43951 0.38091 0.09499 0.0
H2652 H 0.40769 0.39476 0.03192 0.0
H2653 H 0.43433 0.41746 0.03099 0.0
H2654 H 0.45411 0.42306 0.05351 0.0
H2655 H 0.44727 0.40605 0.07722 0.0
C2656 C 0.43022 0.38376 0.09658 0.0
C2657 C 0.41851 0.37971 0.08256 0.0
C2658 C 0.42281 0.38943 0.06855 0.0
C2659 C 0.41151 0.3859 0.05534 0.0
C2660 C 0.41592 0.39642 0.04197 0.0
C2661 C 0.43116 0.40961 0.04136 0.0
C2662 C 0.44229 0.41279 0.05405 0.0
C2663 C 0.43821 0.40291 0.06757 0.0
H2664 H 0.63173 0.68962 0.36323 0.0
C2665 C 0.6433 0.69125 0.36633 0.0
H2666 H 0.66175 0.69992 0.3848 0.0
H2667 H 0.63471 0.74325 0.41537 0.0
H2668 H 0.65944 0.76377 0.40452 0.0
H2669 H 0.67619 0.75614 0.3888 0.0
H2670 H 0.66833 0.72796 0.3838 0.0
C2671 C 0.6498 0.69713 0.38165 0.0
C2672 C 0.64131 0.70179 0.39377 0.0
C2673 C 0.6463 0.71831 0.39698 0.0
C2674 C 0.63666 0.72273 0.40607 0.0
C2675 C 0.64162 0.73928 0.40858 0.0
C2676 C 0.65578 0.75116 0.40243 0.0
C2677 C 0.66522 0.74686 0.39358 0.0
C2678 C 0.66057 0.73065 0.39079 0.0
H2679 H 0.60018 0.72151 0.43695 0.0
C2680 C 0.60996 0.71957 0.4346 0.0
H2681 H 0.60112 0.71283 0.41011 0.0
H2682 H 0.62976 0.66926 0.39231 0.0
H2683 H 0.60541 0.64878 0.40387 0.0
H2684 H 0.58854 0.65639 0.41936 0.0
H2685 H 0.59594 0.68453 0.4235 0.0
C2686 C 0.61062 0.71483 0.4188 0.0
C2687 C 0.6222 0.71062 0.41219 0.0
C2688 C 0.61773 0.69415 0.4099 0.0
C2689 C 0.62736 0.68974 0.4008 0.0
C2690 C 0.62269 0.67321 0.39884 0.0
C2691 C 0.6088 0.66136 0.40548 0.0
C2692 C 0.5993 0.66565 0.41421 0.0
C2693 C 0.60366 0.68183 0.41644 0.0
H2694 H 0.29119 0.95573 0.4042 0.0
C2695 C 0.29742 0.95289 0.39491 0.0
H2696 H 0.30189 0.93507 0.38483 0.0
H2697 H 0.2817 0.90955 0.46065 0.0
H2698 H 0.30632 0.93346 0.46969 0.0
H2699 H 0.32233 0.95394 0.44977 0.0
H2700 H 0.31377 0.9507 0.42076 0.0
C2701 C 0.29589 0.93818 0.39416 0.0
C2702 C 0.28633 0.92581 0.40621 0.0
C2703 C 0.29163 0.92785 0.42315 0.0
C2704 C 0.28255 0.9159 0.43458 0.0
C2705 C 0.28811 0.91823 0.45142 0.0
C2706 C 0.30225 0.9319 0.45679 0.0
C2707 C 0.31125 0.94343 0.44558 0.0
C2708 C 0.30611 0.94147 0.42895 0.0
H2709 H 0.26581 0.87282 0.43032 0.0
C2710 C 0.25966 0.87505 0.4402 0.0
H2711 H 0.25425 0.89175 0.45129 0.0
H2712 H 0.27301 0.9181 0.37463 0.0
H2713 H 0.24854 0.89395 0.3655 0.0
H2714 H 0.23276 0.87325 0.38536 0.0
H2715 H 0.24137 0.87655 0.41444 0.0
C2716 C 0.25952 0.88896 0.44091 0.0
C2717 C 0.26843 0.90174 0.42898 0.0
C2718 C 0.26315 0.89968 0.41206 0.0
C2719 C 0.27216 0.91169 0.40065 0.0
C2720 C 0.26663 0.90934 0.38381 0.0
C2721 C 0.25259 0.89555 0.37842 0.0
C2722 C 0.24372 0.88389 0.38959 0.0
C2723 C 0.24884 0.88589 0.40624 0.0
H2724 H 0.0456 0.33943 0.37866 0.0
C2725 C 0.05317 0.34529 0.36839 0.0
H2726 H 0.07649 0.36098 0.36128 0.0
H2727 H 0.08252 0.38088 0.44198 0.0
H2728 H 0.06453 0.39052 0.43567 0.0
H2729 H 0.05204 0.386 0.40758 0.0
H2730 H 0.05728 0.37163 0.38571 0.0
C2731 C 0.06872 0.35539 0.37147 0.0
C2732 C 0.07614 0.35827 0.38849 0.0
C2733 C 0.07321 0.36707 0.401 0.0
C2734 C 0.08085 0.3702 0.41703 0.0
C2735 C 0.07737 0.37856 0.42946 0.0
C2736 C 0.06702 0.38411 0.42603 0.0
C2737 C 0.05995 0.38152 0.41023 0.0
C2738 C 0.063 0.37315 0.3978 0.0
H2739 H 0.11506 0.39372 0.43173 0.0
C2740 C 0.11247 0.38432 0.44042 0.0
H2741 H 0.09802 0.35962 0.44511 0.0
H2742 H 0.08404 0.34068 0.36751 0.0
H2743 H 0.1025 0.33162 0.37372 0.0
H2744 H 0.11626 0.3377 0.4013 0.0
H2745 H 0.11159 0.35284 0.42287 0.0
C2746 C 0.10064 0.3692 0.43666 0.0
C2747 C 0.09176 0.36497 0.42035 0.0
C2748 C 0.09456 0.35606 0.40792 0.0
C2749 C 0.08676 0.35271 0.39197 0.0
C2750 C 0.08978 0.34374 0.37979 0.0
C2751 C 0.10032 0.33843 0.3832 0.0
C2752 C 0.10806 0.34184 0.39873 0.0
C2753 C 0.10526 0.35054 0.411 0.0
H2754 H 0.04616 0.31369 0.29764 0.0
C2755 C 0.03697 0.30518 0.30541 0.0
H2756 H 0.02439 0.28107 0.31268 0.0
H2757 H 0.03793 0.25913 0.2424 0.0
H2758 H 0.00945 0.2465 0.24109 0.0
H2759 H 0.99549 0.25093 0.26395 0.0
H2760 H 0.00998 0.26808 0.28822 0.0
C2761 C 0.03399 0.28994 0.3056 0.0
C2762 C 0.04209 0.28453 0.29385 0.0
C2763 C 0.03337 0.27395 0.28005 0.0
C2764 C 0.0414 0.27122 0.26698 0.0
C2765 C 0.03246 0.26133 0.25289 0.0
C2766 C 0.01608 0.25406 0.25192 0.0
C2767 C 0.00823 0.25657 0.26478 0.0
C2768 C 0.0167 0.26645 0.27866 0.0
H2769 H 0.05996 0.25307 0.25771 0.0
C2770 C 0.06664 0.26344 0.25018 0.0
H2771 H 0.07333 0.28766 0.2463 0.0
H2772 H 0.06194 0.30309 0.31993 0.0
H2773 H 0.09048 0.3153 0.32162 0.0
H2774 H 0.10448 0.3109 0.29877 0.0
H2775 H 0.09005 0.29421 0.27414 0.0
C2776 C 0.06669 0.27721 0.25372 0.0
C2777 C 0.0581 0.27881 0.26795 0.0
C2778 C 0.06673 0.28864 0.28218 0.0
C2779 C 0.0587 0.29137 0.29523 0.0
C2780 C 0.06754 0.30099 0.30947 0.0
C2781 C 0.0839 0.30796 0.31065 0.0
C2782 C 0.09178 0.30547 0.29779 0.0
C2783 C 0.08336 0.2959 0.28371 0.0
H2784 H 0.70321 0.73479 0.32235 0.0
C2785 C 0.69293 0.72365 0.31755 0.0
H2786 H 0.67558 0.71239 0.29808 0.0
H2787 H 0.70666 0.79183 0.28893 0.0
H2788 H 0.69539 0.79238 0.31539 0.0
H2789 H 0.68205 0.76794 0.33164 0.0
H2790 H 0.68003 0.74285 0.32163 0.0
C2791 C 0.68546 0.72359 0.30334 0.0
C2792 C 0.6921 0.73802 0.29304 0.0
C2793 C 0.69281 0.75246 0.2989 0.0
C2794 C 0.70014 0.76644 0.28934 0.0
C2795 C 0.70104 0.78081 0.29562 0.0
C2796 C 0.69462 0.78129 0.31078 0.0
C2797 C 0.68714 0.76754 0.31995 0.0
C2798 C 0.68616 0.75325 0.31411 0.0
H2799 H 0.69311 0.77617 0.25204 0.0
C2800 C 0.70587 0.78396 0.2532 0.0
H2801 H 0.72707 0.7876 0.26452 0.0
H2802 H 0.69238 0.71217 0.2779 0.0
H2803 H 0.70293 0.71153 0.2511 0.0
H2804 H 0.71517 0.73567 0.23435 0.0
H2805 H 0.71698 0.76064 0.24436 0.0
C2806 C 0.71425 0.78042 0.26385 0.0
C2807 C 0.70641 0.76584 0.27381 0.0
C2808 C 0.70536 0.75132 0.26774 0.0
C2809 C 0.69818 0.73738 0.27735 0.0
C2810 C 0.69752 0.7231 0.27108 0.0
C2811 C 0.70358 0.72256 0.25571 0.0
C2812 C 0.71048 0.73615 0.24628 0.0
C2813 C 0.71143 0.7504 0.25217 0.0
H2814 H 0.28976 0.9763 0.32178 0.0
C2815 C 0.28386 0.97636 0.33306 0.0
H2816 H 0.262 0.97037 0.34331 0.0
H2817 H 0.24638 0.97721 0.26468 0.0
H2818 H 0.26247 0.00598 0.27109 0.0
H2819 H 0.27697 0.01635 0.29822 0.0
H2820 H 0.27559 0.99797 0.31904 0.0
C2821 C 0.26833 0.97116 0.33213 0.0
C2822 C 0.25911 0.96498 0.31602 0.0
C2823 C 0.25975 0.97588 0.30414 0.0
C2824 C 0.25101 0.96989 0.28869 0.0
C2825 C 0.25235 0.98106 0.27682 0.0
C2826 C 0.26164 0.99763 0.2803 0.0
C2827 C 0.26983 0.00346 0.29555 0.0
C2828 C 0.26896 0.99278 0.30738 0.0
H2829 H 0.2161 0.95479 0.27589 0.0
C2830 C 0.21904 0.94836 0.26662 0.0
H2831 H 0.23465 0.94012 0.26043 0.0
H2832 H 0.25549 0.94087 0.33596 0.0
H2833 H 0.23926 0.91205 0.32965 0.0
H2834 H 0.22375 0.90165 0.30306 0.0
H2835 H 0.2244 0.92 0.28259 0.0
C2836 C 0.23163 0.94664 0.2695 0.0
C2837 C 0.24132 0.953 0.28534 0.0
C2838 C 0.24081 0.94212 0.29715 0.0
C2839 C 0.24967 0.94812 0.31253 0.0
C2840 C 0.24893 0.93697 0.32412 0.0
C2841 C 0.23967 0.9204 0.32065 0.0
C2842 C 0.23095 0.91454 0.30568 0.0
C2843 C 0.23144 0.92521 0.29403 0.0
H2844 H 0.68295 0.97121 0.31584 0.0
C2845 C 0.68757 0.97001 0.32779 0.0
H2846 H 0.70379 0.96483 0.33977 0.0
H2847 H 0.70728 0.92921 0.27285 0.0
H2848 H 0.69263 0.90637 0.29007 0.0
H2849 H 0.68401 0.90999 0.31766 0.0
H2850 H 0.68994 0.9365 0.32818 0.0
C2851 C 0.69931 0.96667 0.32808 0.0
C2852 C 0.70596 0.96479 0.31227 0.0
C2853 C 0.70275 0.9493 0.30649 0.0
C2854 C 0.7079 0.94725 0.29066 0.0
C2855 C 0.70397 0.93153 0.28492 0.0
C2856 C 0.69549 0.91829 0.29464 0.0
C2857 C 0.69062 0.92033 0.31017 0.0
C2858 C 0.69412 0.93561 0.31606 0.0
H2859 H 0.73901 0.95405 0.2731 0.0
C2860 C 0.73343 0.95581 0.26218 0.0
H2861 H 0.71675 0.96168 0.25327 0.0
H2862 H 0.71595 0.99645 0.32065 0.0
H2863 H 0.73097 0.01938 0.30368 0.0
H2864 H 0.73952 0.01579 0.27604 0.0
H2865 H 0.73318 0.98927 0.26527 0.0
C2866 C 0.7216 0.95882 0.26403 0.0
C2867 C 0.71647 0.96076 0.28079 0.0
C2868 C 0.72007 0.97633 0.28679 0.0
C2869 C 0.71495 0.97837 0.30261 0.0
C2870 C 0.71916 0.99414 0.30852 0.0
C2871 C 0.72788 0.00743 0.29896 0.0
C2872 C 0.73271 0.00541 0.28341 0.0
C2873 C 0.72894 0.9901 0.27736 0.0
H2874 H 0.05635 0.73521 0.30048 0.0
C2875 C 0.04519 0.73316 0.30512 0.0
H2876 H 0.03031 0.7427 0.30905 0.0
H2877 H 0.08058 0.81639 0.31106 0.0
H2878 H 0.06974 0.81305 0.33845 0.0
H2879 H 0.05142 0.78594 0.34816 0.0
H2880 H 0.04361 0.76203 0.33046 0.0
C2881 C 0.04152 0.74484 0.30449 0.0
C2882 C 0.0528 0.76117 0.29858 0.0
C2883 C 0.05755 0.77498 0.30934 0.0
C2884 C 0.06848 0.79059 0.30398 0.0
C2885 C 0.0726 0.80423 0.31467 0.0
C2886 C 0.06643 0.80249 0.33041 0.0
C2887 C 0.05609 0.78723 0.33586 0.0
C2888 C 0.05167 0.77359 0.32553 0.0
H2889 H 0.08585 0.81381 0.27556 0.0
C2890 C 0.08586 0.8196 0.26806 0.0
H2891 H 0.09864 0.81555 0.2922 0.0
H2892 H 0.04388 0.73796 0.27321 0.0
H2893 H 0.05593 0.74145 0.24649 0.0
H2894 H 0.07766 0.76809 0.23906 0.0
H2895 H 0.08702 0.79149 0.25814 0.0
C2896 C 0.08735 0.81036 0.28217 0.0
C2897 C 0.07501 0.79238 0.28814 0.0
C2898 C 0.0705 0.77865 0.27749 0.0
C2899 C 0.05886 0.7631 0.28237 0.0
C2900 C 0.05343 0.74986 0.27068 0.0
C2901 C 0.06014 0.75173 0.25521 0.0
C2902 C 0.0723 0.76674 0.25098 0.0
C2903 C 0.07749 0.78009 0.26198 0.0
H2904 H 0.2905 0.32641 0.31174 0.0
C2905 C 0.28485 0.32107 0.32321 0.0
H2906 H 0.26384 0.30319 0.33357 0.0
H2907 H 0.24065 0.31512 0.25946 0.0
H2908 H 0.24531 0.34035 0.27251 0.0
H2909 H 0.2568 0.34867 0.30115 0.0
H2910 H 0.26377 0.33185 0.31689 0.0
C2911 C 0.2697 0.3091 0.32242 0.0
C2912 C 0.26091 0.30318 0.30603 0.0
C2913 C 0.25668 0.31303 0.2971 0.0
C2914 C 0.24989 0.30816 0.28065 0.0
C2915 C 0.2459 0.31829 0.27196 0.0
C2916 C 0.24846 0.33277 0.27932 0.0
C2917 C 0.25495 0.33746 0.29544 0.0
C2918 C 0.25899 0.32774 0.3043 0.0
H2919 H 0.21877 0.26987 0.26104 0.0
C2920 C 0.22657 0.27695 0.25138 0.0
H2921 H 0.24908 0.29608 0.24599 0.0
H2922 H 0.26632 0.28089 0.32035 0.0
H2923 H 0.26133 0.25547 0.3075 0.0
H2924 H 0.25012 0.24723 0.27876 0.0
H2925 H 0.24373 0.26426 0.26273 0.0
C2926 C 0.24124 0.28899 0.2556 0.0
C2927 C 0.24715 0.29334 0.27326 0.0
C2928 C 0.25085 0.2832 0.28242 0.0
C2929 C 0.25757 0.28807 0.29891 0.0
C2930 C 0.26124 0.27779 0.30777 0.0
C2931 C 0.25846 0.26318 0.30054 0.0
C2932 C 0.25212 0.25853 0.28437 0.0
C2933 C 0.24842 0.2684 0.27533 0.0
H2934 H 0.30255 0.38021 0.3739 0.0
C2935 C 0.30403 0.37075 0.37919 0.0
H2936 H 0.30092 0.35688 0.40016 0.0
H2937 H 0.30199 0.4215 0.4333 0.0
H2938 H 0.32872 0.43662 0.42401 0.0
H2939 H 0.33978 0.42337 0.40675 0.0
H2940 H 0.32413 0.39505 0.39851 0.0
C2941 C 0.29946 0.36628 0.3947 0.0
C2942 C 0.29297 0.3744 0.40525 0.0
C2943 C 0.30254 0.39098 0.41033 0.0
C2944 C 0.29637 0.39851 0.42076 0.0
C2945 C 0.30608 0.41511 0.42549 0.0
C2946 C 0.32149 0.42396 0.42028 0.0
C2947 C 0.32769 0.41651 0.41053 0.0
C2948 C 0.31846 0.40022 0.4057 0.0
H2949 H 0.27643 0.38301 0.45872 0.0
C2950 C 0.27436 0.39268 0.45535 0.0
H2951 H 0.27454 0.40718 0.43609 0.0
H2952 H 0.27155 0.34254 0.39779 0.0
H2953 H 0.24493 0.32733 0.40761 0.0
H2954 H 0.2344 0.34038 0.42601 0.0
H2955 H 0.25043 0.36872 0.43471 0.0
C2956 C 0.27553 0.39684 0.43942 0.0
C2957 C 0.28097 0.38931 0.42677 0.0
C2958 C 0.27138 0.3728 0.42162 0.0
C2959 C 0.27741 0.36533 0.4109 0.0
C2960 C 0.26759 0.34881 0.40598 0.0
C2961 C 0.25227 0.33995 0.41149 0.0
C2962 C 0.24635 0.34729 0.42186 0.0
C2963 C 0.25571 0.36353 0.42685 0.0
H2964 H 0.62904 0.92774 0.37607 0.0
C2965 C 0.63984 0.93861 0.38041 0.0
H2966 H 0.65778 0.9495 0.39934 0.0
H2967 H 0.61145 0.90474 0.45303 0.0
H2968 H 0.616 0.93103 0.46205 0.0
H2969 H 0.63161 0.95477 0.44542 0.0
H2970 H 0.6426 0.95227 0.4196 0.0
C2971 C 0.64733 0.93854 0.39453 0.0
C2972 C 0.63985 0.92457 0.40545 0.0
C2973 C 0.63396 0.92637 0.42084 0.0
C2974 C 0.6253 0.91276 0.43065 0.0
C2975 C 0.61869 0.91473 0.44542 0.0
C2976 C 0.62107 0.92977 0.45067 0.0
C2977 C 0.62983 0.94312 0.4413 0.0
C2978 C 0.63612 0.9415 0.4265 0.0
H2979 H 0.63067 0.89208 0.45556 0.0
C2980 C 0.61937 0.88224 0.45063 0.0
H2981 H 0.60278 0.87331 0.43033 0.0
H2982 H 0.65098 0.91739 0.37751 0.0
H2983 H 0.6468 0.8911 0.36864 0.0
H2984 H 0.63175 0.86746 0.38561 0.0
H2985 H 0.62084 0.86997 0.41158 0.0
C2986 C 0.61396 0.88316 0.43547 0.0
C2987 C 0.62303 0.89747 0.42531 0.0
C2988 C 0.62918 0.89576 0.41009 0.0
C2989 C 0.63769 0.90934 0.4002 0.0
C2990 C 0.64408 0.90738 0.38528 0.0
C2991 C 0.64186 0.89238 0.3801 0.0
C2992 C 0.6334 0.87908 0.38967 0.0
C2993 C 0.62717 0.88068 0.40453 0.0
H2994 H 0.07372 0.70977 0.35933 0.0
C2995 C 0.06106 0.705 0.3596 0.0
H2996 H 0.04152 0.69687 0.37503 0.0
H2997 H 0.07871 0.68182 0.43108 0.0
H2998 H 0.05962 0.65474 0.42055 0.0
H2999 H 0.04223 0.65031 0.39596 0.0
H3000 H 0.04379 0.67296 0.38177 0.0
C3001 C 0.05422 0.70221 0.37436 0.0
C3002 C 0.06381 0.70499 0.38999 0.0
C3003 C 0.06268 0.69163 0.39819 0.0
C3004 C 0.07281 0.69419 0.41227 0.0
C3005 C 0.07143 0.6806 0.42022 0.0
C3006 C 0.06049 0.66497 0.41433 0.0
C3007 C 0.0507 0.66248 0.40049 0.0
C3008 C 0.05172 0.6756 0.39247 0.0
H3009 H 0.08432 0.72158 0.44902 0.0
C3010 C 0.09323 0.71815 0.44757 0.0
H3011 H 0.10309 0.70829 0.43134 0.0
H3012 H 0.06778 0.73317 0.37826 0.0
H3013 H 0.08712 0.76033 0.38849 0.0
H3014 H 0.10554 0.76482 0.41211 0.0
H3015 H 0.10462 0.74223 0.42577 0.0
C3016 C 0.09481 0.71258 0.43264 0.0
C3017 C 0.08402 0.71012 0.41817 0.0
C3018 C 0.08497 0.7235 0.41013 0.0
C3019 C 0.0747 0.72092 0.39616 0.0
C3020 C 0.07559 0.73447 0.38863 0.0
C3021 C 0.08659 0.75011 0.39442 0.0
C3022 C 0.09693 0.75264 0.40775 0.0
C3023 C 0.09621 0.73955 0.41554 0.0
H3024 H 0.30371 0.03679 0.68511 0.0
C3025 C 0.3137 0.03568 0.68932 0.0
H3026 H 0.32808 0.03725 0.71005 0.0
H3027 H 0.29574 0.08047 0.73507 0.0
H3028 H 0.31104 0.09892 0.71397 0.0
H3029 H 0.32661 0.09247 0.69484 0.0
H3030 H 0.32673 0.06741 0.6965 0.0
C3031 C 0.31835 0.03861 0.7055 0.0
C3032 C 0.30999 0.04319 0.71779 0.0
C3033 C 0.31059 0.05824 0.71705 0.0
C3034 C 0.30222 0.06231 0.72858 0.0
C3035 C 0.30236 0.07703 0.72704 0.0
C3036 C 0.31102 0.0877 0.71492 0.0
C3037 C 0.31974 0.08404 0.70411 0.0
C3038 C 0.3196 0.06953 0.70512 0.0
H3039 H 0.30727 0.07445 0.76564 0.0
C3040 C 0.29445 0.06819 0.76562 0.0
H3041 H 0.27318 0.04937 0.75445 0.0
H3042 H 0.30642 0.01348 0.72266 0.0
H3043 H 0.29187 0.99547 0.74441 0.0
H3044 H 0.27817 0.003 0.76503 0.0
H3045 H 0.27885 0.02855 0.76397 0.0
C3046 C 0.28597 0.05633 0.75405 0.0
C3047 C 0.29388 0.05168 0.74128 0.0
C3048 C 0.29337 0.03672 0.7421 0.0
C3049 C 0.30143 0.03247 0.73033 0.0
C3050 C 0.30065 0.01739 0.73138 0.0
C3051 C 0.29232 0.00693 0.74379 0.0
C3052 C 0.28459 0.01116 0.75539 0.0
C3053 C 0.28507 0.02587 0.75462 0.0
H3054 H 0.97758 0.26556 0.69465 0.0
C3055 C 0.97912 0.27541 0.70299 0.0
H3056 H 0.97478 0.28239 0.72645 0.0
H3057 H 0.91649 0.2201 0.74841 0.0
H3058 H 0.90541 0.23727 0.74369 0.0
H3059 H 0.92061 0.26296 0.7298 0.0
H3060 H 0.94693 0.27162 0.72055 0.0
C3061 C 0.97317 0.27243 0.71824 0.0
C3062 C 0.96349 0.2559 0.72446 0.0
C3063 C 0.948 0.25089 0.7296 0.0
C3064 C 0.93925 0.23612 0.73768 0.0
C3065 C 0.92378 0.23139 0.74257 0.0
C3066 C 0.91723 0.24107 0.73982 0.0
C3067 C 0.92579 0.25552 0.73199 0.0
C3068 C 0.94094 0.2604 0.72684 0.0
H3069 H 0.94036 0.22613 0.77281 0.0
C3070 C 0.93648 0.21409 0.76749 0.0
H3071 H 0.93437 0.20024 0.74567 0.0
H3072 H 0.99326 0.26203 0.71713 0.0
H3073 H 0.00364 0.24425 0.72083 0.0
H3074 H 0.98776 0.21793 0.73335 0.0
H3075 H 0.96143 0.2094 0.74246 0.0
C3076 C 0.93791 0.21212 0.75112 0.0
C3077 C 0.94599 0.22638 0.74063 0.0
C3078 C 0.96105 0.23084 0.7346 0.0
C3079 C 0.97 0.2458 0.72684 0.0
C3080 C 0.98556 0.25052 0.7223 0.0
C3081 C 0.99178 0.24048 0.72454 0.0
C3082 C 0.98286 0.22568 0.73162 0.0
C3083 C 0.96774 0.22092 0.73676 0.0
H3084 H 0.73984 0.70325 0.6898 0.0
C3085 C 0.72979 0.6923 0.69401 0.0
H3086 H 0.7205 0.67699 0.71419 0.0
H3087 H 0.79072 0.7068 0.74572 0.0
H3088 H 0.78447 0.67958 0.73763 0.0
H3089 H 0.75957 0.66079 0.72204 0.0
H3090 H 0.74075 0.6691 0.71443 0.0
C3091 C 0.73001 0.68822 0.70981 0.0
C3092 C 0.74387 0.69865 0.72127 0.0
C3093 C 0.75457 0.69349 0.7259 0.0
C3094 C 0.76892 0.7043 0.73494 0.0
C3095 C 0.77963 0.69903 0.73895 0.0
C3096 C 0.77619 0.68345 0.73437 0.0
C3097 C 0.76216 0.67287 0.7256 0.0
C3098 C 0.75146 0.67778 0.72131 0.0
H3099 H 0.80415 0.74437 0.76681 0.0
C3100 C 0.7924 0.73432 0.76355 0.0
H3101 H 0.79626 0.741 0.73892 0.0
H3102 H 0.72474 0.71141 0.71679 0.0
H3103 H 0.73068 0.73836 0.7255 0.0
H3104 H 0.75574 0.75727 0.74074 0.0
H3105 H 0.77495 0.74929 0.74748 0.0
C3106 C 0.78806 0.73219 0.74722 0.0
C3107 C 0.77234 0.72011 0.73963 0.0
C3108 C 0.7613 0.725 0.73567 0.0
C3109 C 0.74697 0.7142 0.72665 0.0
C3110 C 0.73599 0.71928 0.72323 0.0
C3111 C 0.7392 0.73468 0.72825 0.0
C3112 C 0.75331 0.74532 0.73685 0.0
C3113 C 0.76425 0.7406 0.74058 0.0
H3114 H 0.70288 0.64197 0.6296 0.0
C3115 C 0.70352 0.63911 0.64247 0.0
H3116 H 0.71323 0.62999 0.65959 0.0
H3117 H 0.72477 0.58822 0.60547 0.0
H3118 H 0.70989 0.5688 0.62599 0.0
H3119 H 0.69946 0.57643 0.65004 0.0
H3120 H 0.70409 0.60358 0.6539 0.0
C3121 C 0.7125 0.63282 0.64675 0.0
C3122 C 0.72075 0.6288 0.6337 0.0
C3123 C 0.7177 0.61276 0.63153 0.0
C3124 C 0.72333 0.60823 0.61738 0.0
C3125 C 0.72046 0.59224 0.61574 0.0
C3126 C 0.71198 0.58096 0.62746 0.0
C3127 C 0.70613 0.58527 0.64102 0.0
C3128 C 0.70889 0.60094 0.64308 0.0
H3129 H 0.76051 0.63139 0.59335 0.0
C3130 C 0.75145 0.62149 0.58547 0.0
H3131 H 0.72733 0.60396 0.58246 0.0
H3132 H 0.73329 0.66154 0.63694 0.0
H3133 H 0.74684 0.68082 0.61576 0.0
H3134 H 0.75211 0.67195 0.58874 0.0
H3135 H 0.74464 0.64407 0.58313 0.0
C3136 C 0.73634 0.61432 0.58985 0.0
C3137 C 0.73152 0.61959 0.60516 0.0
C3138 C 0.7348 0.63572 0.60752 0.0
C3139 C 0.73031 0.64052 0.62233 0.0
C3140 C 0.73536 0.65706 0.62532 0.0
C3141 C 0.74327 0.66827 0.61335 0.0
C3142 C 0.74634 0.6633 0.59821 0.0
C3143 C 0.74215 0.64724 0.59524 0.0
H3144 H 0.37395 0.07566 0.64825 0.0
C3145 C 0.36469 0.06405 0.64297 0.0
H3146 H 0.34955 0.05156 0.62204 0.0
H3147 H 0.3713 0.1284 0.61043 0.0
H3148 H 0.35588 0.12643 0.63438 0.0
H3149 H 0.34399 0.10197 0.65069 0.0
H3150 H 0.34749 0.07936 0.64319 0.0
C3151 C 0.35828 0.06316 0.6278 0.0
C3152 C 0.3646 0.07758 0.61756 0.0
C3153 C 0.3623 0.09062 0.62205 0.0
C3154 C 0.36898 0.10462 0.61252 0.0
C3155 C 0.3665 0.11747 0.61724 0.0
C3156 C 0.35765 0.11649 0.63094 0.0
C3157 C 0.35097 0.10273 0.64014 0.0
C3158 C 0.35316 0.08988 0.63576 0.0
H3159 H 0.36847 0.10713 0.56759 0.0
C3160 C 0.3781 0.11868 0.57256 0.0
H3161 H 0.39316 0.13139 0.59349 0.0
H3162 H 0.37109 0.05465 0.60553 0.0
H3163 H 0.38671 0.05674 0.58179 0.0
H3164 H 0.39879 0.08128 0.56563 0.0
H3165 H 0.39523 0.10382 0.57305 0.0
C3166 C 0.38403 0.11981 0.58805 0.0
C3167 C 0.3777 0.10544 0.59839 0.0
C3168 C 0.3801 0.09245 0.59397 0.0
C3169 C 0.37337 0.07843 0.60346 0.0
C3170 C 0.37591 0.0656 0.59877 0.0
C3171 C 0.38489 0.06665 0.58518 0.0
C3172 C 0.39167 0.08045 0.57606 0.0
C3173 C 0.38941 0.09327 0.58039 0.0
H3174 H 0.96452 0.31183 0.6445 0.0
C3175 C 0.95797 0.30576 0.6553 0.0
H3176 H 0.9356 0.28965 0.66437 0.0
H3177 H 0.8928 0.29538 0.60957 0.0
H3178 H 0.88763 0.30716 0.63394 0.0
H3179 H 0.90351 0.31293 0.66008 0.0
H3180 H 0.92454 0.30675 0.66207 0.0
C3181 C 0.94228 0.29567 0.65363 0.0
C3182 C 0.93338 0.29293 0.63747 0.0
C3183 C 0.92135 0.29694 0.63639 0.0
C3184 C 0.91244 0.29398 0.62118 0.0
C3185 C 0.90015 0.29764 0.62067 0.0
C3186 C 0.89702 0.30438 0.63459 0.0
C3187 C 0.90594 0.30761 0.64932 0.0
C3188 C 0.91796 0.30395 0.65029 0.0
H3189 H 0.8983 0.25868 0.59069 0.0
C3190 C 0.89749 0.26826 0.58471 0.0
H3191 H 0.90466 0.29297 0.5858 0.0
H3192 H 0.95392 0.28144 0.63565 0.0
H3193 H 0.96054 0.27171 0.61075 0.0
H3194 H 0.94767 0.27018 0.58354 0.0
H3195 H 0.92771 0.27782 0.58124 0.0
C3196 C 0.90582 0.28343 0.59135 0.0
C3197 C 0.91579 0.28732 0.60695 0.0
C3198 C 0.92834 0.28401 0.60781 0.0
C3199 C 0.93665 0.28613 0.62325 0.0
C3200 C 0.94795 0.28111 0.62408 0.0
C3201 C 0.95177 0.27534 0.60989 0.0
C3202 C 0.94446 0.27439 0.5946 0.0
C3203 C 0.93289 0.27866 0.59349 0.0
H3204 H 0.36686 0.30411 0.66337 0.0
C3205 C 0.35606 0.30458 0.66207 0.0
H3206 H 0.33791 0.30189 0.64536 0.0
H3207 H 0.37938 0.31428 0.58194 0.0
H3208 H 0.37732 0.33838 0.58348 0.0
H3209 H 0.36504 0.34395 0.60728 0.0
H3210 H 0.35479 0.32547 0.62971 0.0
C3211 C 0.34857 0.30124 0.64704 0.0
C3212 C 0.35506 0.29726 0.6322 0.0
C3213 C 0.36075 0.30805 0.61906 0.0
C3214 C 0.36773 0.30478 0.60527 0.0
C3215 C 0.37373 0.31601 0.59256 0.0
C3216 C 0.37269 0.32994 0.59333 0.0
C3217 C 0.36579 0.33308 0.60673 0.0
C3218 C 0.35992 0.32235 0.61951 0.0
H3219 H 0.35667 0.27962 0.57378 0.0
C3220 C 0.36856 0.28164 0.5754 0.0
H3221 H 0.38821 0.28938 0.59209 0.0
H3222 H 0.34341 0.27288 0.6541 0.0
H3223 H 0.34556 0.24884 0.65253 0.0
H3224 H 0.35851 0.2437 0.6291 0.0
H3225 H 0.36925 0.26253 0.60699 0.0
C3226 C 0.3763 0.28725 0.59026 0.0
C3227 C 0.36885 0.29063 0.60456 0.0
C3228 C 0.36299 0.27973 0.61757 0.0
C3229 C 0.35587 0.28291 0.63129 0.0
C3230 C 0.34945 0.2714 0.64371 0.0
C3231 C 0.35048 0.25746 0.64288 0.0
C3232 C 0.35774 0.25455 0.62968 0.0
C3233 C 0.36389 0.26548 0.6171 0.0
H3234 H 0.69638 0.06571 0.62914 0.0
C3235 C 0.70135 0.05787 0.62833 0.0
H3236 H 0.71883 0.05406 0.61819 0.0
H3237 H 0.72426 0.09206 0.55356 0.0
H3238 H 0.72166 0.06699 0.54265 0.0
H3239 H 0.71787 0.04561 0.56143 0.0
H3240 H 0.71694 0.04924 0.59117 0.0
C3241 C 0.71391 0.06193 0.61899 0.0
C3242 C 0.71974 0.07598 0.60802 0.0
C3243 C 0.72018 0.07354 0.5906 0.0
C3244 C 0.7219 0.08567 0.5797 0.0
C3245 C 0.72254 0.08306 0.56236 0.0
C3246 C 0.72115 0.06877 0.55593 0.0
C3247 C 0.71904 0.05674 0.5665 0.0
C3248 C 0.71851 0.05901 0.58362 0.0
H3249 H 0.74238 0.13194 0.5814 0.0
C3250 C 0.73178 0.12649 0.57331 0.0
H3251 H 0.71095 0.10516 0.56553 0.0
H3252 H 0.72566 0.08687 0.64058 0.0
H3253 H 0.72807 0.11185 0.65181 0.0
H3254 H 0.72657 0.131 0.63317 0.0
H3255 H 0.72343 0.12574 0.60336 0.0
C3256 C 0.72103 0.11075 0.57432 0.0
C3257 C 0.72265 0.09997 0.58616 0.0
C3258 C 0.7234 0.1029 0.60368 0.0
C3259 C 0.72284 0.09123 0.61456 0.0
C3260 C 0.72503 0.09495 0.63192 0.0
C3261 C 0.72654 0.10926 0.63849 0.0
C3262 C 0.72579 0.12007 0.62798 0.0
C3263 C 0.72416 0.11697 0.6108 0.0
H3264 H 0.95426 0.65349 0.6421 0.0
C3265 C 0.94688 0.65019 0.65284 0.0
H3266 H 0.92351 0.63688 0.66101 0.0
H3267 H 0.91201 0.64598 0.58139 0.0
H3268 H 0.91942 0.67324 0.59075 0.0
H3269 H 0.92884 0.68302 0.61978 0.0
H3270 H 0.93091 0.66558 0.63965 0.0
C3271 C 0.93116 0.64079 0.6505 0.0
C3272 C 0.92404 0.63451 0.63348 0.0
C3273 C 0.92283 0.64482 0.62206 0.0
C3274 C 0.91737 0.63916 0.60534 0.0
C3275 C 0.91622 0.6497 0.59421 0.0
C3276 C 0.92038 0.66536 0.59943 0.0
C3277 C 0.9257 0.67086 0.61577 0.0
C3278 C 0.9269 0.66076 0.62702 0.0
H3279 H 0.88497 0.60031 0.58663 0.0
C3280 C 0.89381 0.60621 0.57739 0.0
H3281 H 0.91733 0.62377 0.57306 0.0
H3282 H 0.92375 0.61136 0.65266 0.0
H3283 H 0.91651 0.58413 0.64341 0.0
H3284 H 0.90815 0.57462 0.61413 0.0
H3285 H 0.90681 0.59215 0.59401 0.0
C3286 C 0.90848 0.61782 0.58228 0.0
C3287 C 0.9131 0.62321 0.60008 0.0
C3288 C 0.91402 0.61278 0.61162 0.0
C3289 C 0.91925 0.61838 0.62841 0.0
C3290 C 0.91998 0.60775 0.63973 0.0
C3291 C 0.91587 0.59209 0.63459 0.0
C3292 C 0.91113 0.58673 0.61811 0.0
C3293 C 0.91029 0.59691 0.6067 0.0
H3294 H 0.97453 0.71516 0.70157 0.0
C3295 C 0.97101 0.70354 0.70673 0.0
H3296 H 0.95917 0.68783 0.72596 0.0
H3297 H 0.97471 0.74959 0.77232 0.0
H3298 H 0.99784 0.74776 0.77932 0.0
H3299 H 0.00324 0.72866 0.76379 0.0
H3300 H 0.98566 0.71146 0.74099 0.0
C3301 C 0.96217 0.69905 0.7202 0.0
C3302 C 0.95872 0.71044 0.72945 0.0
C3303 C 0.96887 0.72006 0.74305 0.0
C3304 C 0.96547 0.73067 0.75236 0.0
C3305 C 0.97631 0.74079 0.76529 0.0
C3306 C 0.98974 0.73998 0.76935 0.0
C3307 C 0.9928 0.72926 0.76057 0.0
C3308 C 0.98258 0.71944 0.74753 0.0
H3309 H 0.94389 0.72761 0.78028 0.0
C3310 C 0.94369 0.73782 0.77509 0.0
H3311 H 0.94687 0.75118 0.75369 0.0
H3312 H 0.93726 0.69404 0.70377 0.0
H3313 H 0.91398 0.69576 0.69673 0.0
H3314 H 0.90762 0.71359 0.71334 0.0
H3315 H 0.92448 0.72987 0.73705 0.0
C3316 C 0.94719 0.74112 0.75909 0.0
C3317 C 0.95154 0.73111 0.74847 0.0
C3318 C 0.9416 0.72179 0.7346 0.0
C3319 C 0.94522 0.71144 0.72506 0.0
C3320 C 0.93503 0.70211 0.71139 0.0
C3321 C 0.92164 0.70297 0.70724 0.0
C3322 C 0.91806 0.71301 0.71659 0.0
C3323 C 0.92785 0.72231 0.73015 0.0
H3324 H 0.32473 0.27449 0.72118 0.0
C3325 C 0.31434 0.27456 0.7164 0.0
H3326 H 0.28958 0.26195 0.71339 0.0
H3327 H 0.27556 0.19105 0.71555 0.0
H3328 H 0.26556 0.19164 0.68795 0.0
H3329 H 0.2704 0.21727 0.67672 0.0
H3330 H 0.28507 0.24241 0.69307 0.0
C3331 C 0.29991 0.26168 0.71805 0.0
C3332 C 0.29748 0.24637 0.72494 0.0
C3333 C 0.28917 0.23179 0.71502 0.0
C3334 C 0.28674 0.21707 0.72131 0.0
C3335 C 0.27801 0.20264 0.7113 0.0
C3336 C 0.27217 0.20278 0.69542 0.0
C3337 C 0.27487 0.2172 0.68912 0.0
C3338 C 0.28328 0.23156 0.69871 0.0
H3339 H 0.27868 0.18099 0.7573 0.0
C3340 C 0.28012 0.19276 0.75512 0.0
H3341 H 0.29617 0.19586 0.73695 0.0
H3342 H 0.31123 0.27128 0.74873 0.0
H3343 H 0.32248 0.27085 0.77567 0.0
H3344 H 0.32122 0.24601 0.78497 0.0
H3345 H 0.30815 0.22128 0.76755 0.0
C3346 C 0.29043 0.2014 0.74354 0.0
C3347 C 0.2929 0.21694 0.73737 0.0
C3348 C 0.30152 0.23152 0.74715 0.0
C3349 C 0.30323 0.24612 0.74125 0.0
C3350 C 0.3105 0.26012 0.75205 0.0
C3351 C 0.31686 0.26 0.76765 0.0
C3352 C 0.31609 0.246 0.77292 0.0
C3353 C 0.30852 0.23188 0.76284 0.0
H3354 H 0.71335 0.03139 0.69712 0.0
C3355 C 0.71988 0.03124 0.68641 0.0
H3356 H 0.74148 0.03431 0.67822 0.0
H3357 H 0.78187 0.07792 0.74116 0.0
H3358 H 0.79292 0.0964 0.71886 0.0
H3359 H 0.78106 0.08856 0.69034 0.0
H3360 H 0.75806 0.06223 0.68395 0.0
C3361 C 0.73469 0.03413 0.68879 0.0
C3362 C 0.74254 0.03824 0.70574 0.0
C3363 C 0.75615 0.05362 0.70921 0.0
C3364 C 0.7631 0.0581 0.72563 0.0
C3365 C 0.77634 0.07374 0.72885 0.0
C3366 C 0.78275 0.08452 0.71618 0.0
C3367 C 0.77606 0.08011 0.70013 0.0
C3368 C 0.76287 0.06491 0.69663 0.0
H3369 H 0.78408 0.05118 0.7501 0.0
C3370 C 0.77748 0.053 0.75977 0.0
H3371 H 0.75639 0.05242 0.76557 0.0
H3372 H 0.71828 0.00678 0.70281 0.0
H3373 H 0.70743 0.98822 0.72505 0.0
H3374 H 0.7188 0.99639 0.75374 0.0
H3375 H 0.74121 0.02309 0.76029 0.0
C3376 C 0.76351 0.05166 0.7558 0.0
C3377 C 0.75652 0.0471 0.73852 0.0
C3378 C 0.74314 0.0316 0.73498 0.0
C3379 C 0.73631 0.02705 0.71853 0.0
C3380 C 0.72351 0.01115 0.7152 0.0
C3381 C 0.71726 0.00029 0.72783 0.0
C3382 C 0.72368 0.00488 0.74397 0.0
C3383 C 0.73652 0.02028 0.74756 0.0
H3384 H 0.06139 0.34484 0.02035 0.0
C3385 C 0.04908 0.3399 0.02328 0.0
H3386 H 0.03058 0.32373 0.03795 0.0
H3387 H 0.06146 0.28008 0.04622 0.0
H3388 H 0.03892 0.26308 0.0277 0.0
H3389 H 0.02218 0.27315 0.01632 0.0
H3390 H 0.02801 0.30037 0.02328 0.0
C3391 C 0.04303 0.32931 0.03538 0.0
C3392 C 0.05245 0.323 0.04357 0.0
C3393 C 0.04858 0.30686 0.03984 0.0
C3394 C 0.05801 0.30091 0.04673 0.0
C3395 C 0.05438 0.28506 0.04193 0.0
C3396 C 0.04154 0.27518 0.03116 0.0
C3397 C 0.03213 0.28086 0.02472 0.0
C3398 C 0.0356 0.29652 0.02888 0.0
H3399 H 0.06315 0.28773 0.07954 0.0
C3400 C 0.07532 0.29297 0.07591 0.0
H3401 H 0.09319 0.31028 0.06146 0.0
H3402 H 0.0624 0.35408 0.05433 0.0
H3403 H 0.08488 0.3711 0.07307 0.0
H3404 H 0.10123 0.36082 0.08506 0.0
H3405 H 0.09519 0.33343 0.07842 0.0
C3406 C 0.08102 0.30486 0.06509 0.0
C3407 C 0.07104 0.31097 0.05783 0.0
C3408 C 0.07482 0.32707 0.06167 0.0
C3409 C 0.06548 0.33306 0.05461 0.0
C3410 C 0.0693 0.34904 0.05903 0.0
C3411 C 0.08211 0.35891 0.06986 0.0
C3412 C 0.09132 0.35311 0.07662 0.0
C3413 C 0.08774 0.33738 0.07267 0.0
H3414 H 0.68087 0.7079 0.03853 0.0
C3415 C 0.67057 0.70013 0.04552 0.0
H3416 H 0.65577 0.69924 0.06468 0.0
H3417 H 0.70989 0.76519 0.09846 0.0
H3418 H 0.70934 0.74598 0.11769 0.0
H3419 H 0.69301 0.71669 0.11121 0.0
H3420 H 0.67706 0.70643 0.08552 0.0
C3421 C 0.66552 0.70677 0.05694 0.0
C3422 C 0.67471 0.72441 0.06101 0.0
C3423 C 0.68392 0.73017 0.07611 0.0
C3424 C 0.69347 0.74704 0.07975 0.0
C3425 C 0.70252 0.75249 0.09497 0.0
C3426 C 0.70231 0.7416 0.10614 0.0
C3427 C 0.69311 0.72511 0.10251 0.0
C3428 C 0.684 0.71939 0.0877 0.0
H3429 H 0.68377 0.77871 0.07503 0.0
C3430 C 0.69655 0.78435 0.0762 0.0
H3431 H 0.71614 0.78115 0.07385 0.0
H3432 H 0.65754 0.71728 0.03155 0.0
H3433 H 0.65876 0.73647 0.01183 0.0
H3434 H 0.67637 0.76575 0.01747 0.0
H3435 H 0.69269 0.77601 0.04295 0.0
C3436 C 0.70339 0.77566 0.0725 0.0
C3437 C 0.69373 0.75808 0.0683 0.0
C3438 C 0.68461 0.75232 0.05312 0.0
C3439 C 0.67489 0.73544 0.04959 0.0
C3440 C 0.66547 0.72998 0.03463 0.0
C3441 C 0.666 0.74086 0.02324 0.0
C3442 C 0.67588 0.75734 0.02644 0.0
C3443 C 0.68512 0.76308 0.04117 0.0
H3444 H 0.28484 0.94079 0.02573 0.0
C3445 C 0.28969 0.95341 0.02305 0.0
H3446 H 0.28806 0.97433 0.02703 0.0
H3447 H 0.21597 0.93683 0.04292 0.0
H3448 H 0.21528 0.94706 0.01592 0.0
H3449 H 0.23924 0.9605 0.99962 0.0
H3450 H 0.26401 0.96377 0.01021 0.0
C3451 C 0.28354 0.96182 0.02996 0.0
C3452 C 0.26928 0.95393 0.0401 0.0
C3453 C 0.25492 0.95225 0.03376 0.0
C3454 C 0.24111 0.94454 0.04316 0.0
C3455 C 0.22686 0.94275 0.03639 0.0
C3456 C 0.22628 0.94852 0.02087 0.0
C3457 C 0.23976 0.95608 0.0117 0.0
C3458 C 0.25393 0.95791 0.01796 0.0
H3459 H 0.2296 0.95225 0.07833 0.0
C3460 C 0.22257 0.93915 0.07786 0.0
H3461 H 0.2202 0.91744 0.06769 0.0
H3462 H 0.29524 0.95663 0.05668 0.0
H3463 H 0.29585 0.9464 0.08372 0.0
H3464 H 0.27168 0.93235 0.09964 0.0
H3465 H 0.24676 0.92858 0.08864 0.0
C3466 C 0.22727 0.93053 0.06867 0.0
C3467 C 0.24173 0.93865 0.05893 0.0
C3468 C 0.25608 0.94041 0.06534 0.0
C3469 C 0.26994 0.94822 0.05599 0.0
C3470 C 0.28426 0.95039 0.063 0.0
C3471 C 0.2848 0.94466 0.07857 0.0
C3472 C 0.2712 0.93677 0.08755 0.0
C3473 C 0.25698 0.93467 0.08109 0.0
H3474 H 0.30702 0.02199 0.97763 0.0
C3475 C 0.31973 0.02892 0.97635 0.0
H3476 H 0.33904 0.0511 0.9698 0.0
H3477 H 0.29725 0.0669 0.92171 0.0
H3478 H 0.31815 0.06955 0.9041 0.0
H3479 H 0.33834 0.06358 0.9146 0.0
H3480 H 0.33787 0.05506 0.94271 0.0
C3481 C 0.32639 0.04416 0.9714 0.0
C3482 C 0.31631 0.05095 0.96615 0.0
C3483 C 0.31694 0.05612 0.94967 0.0
C3484 C 0.30523 0.05945 0.94352 0.0
C3485 C 0.30588 0.06425 0.92695 0.0
C3486 C 0.31779 0.0658 0.91672 0.0
C3487 C 0.32916 0.06244 0.92264 0.0
C3488 C 0.32875 0.05757 0.93885 0.0
H3489 H 0.26657 0.06926 0.94054 0.0
C3490 C 0.27783 0.07134 0.94555 0.0
H3491 H 0.26882 0.04651 0.94304 0.0
H3492 H 0.3146 0.04642 0.99966 0.0
H3493 H 0.29396 0.0443 0.01739 0.0
H3494 H 0.27236 0.04773 0.00606 0.0
H3495 H 0.27154 0.05379 0.97709 0.0
C3496 C 0.27914 0.05809 0.94667 0.0
C3497 C 0.29292 0.05754 0.95381 0.0
C3498 C 0.29292 0.05346 0.97059 0.0
C3499 C 0.30494 0.05073 0.97693 0.0
C3500 C 0.30525 0.04776 0.99403 0.0
C3501 C 0.29358 0.04667 0.00436 0.0
C3502 C 0.28144 0.04864 0.99799 0.0
C3503 C 0.28107 0.05204 0.98133 0.0
H3504 H 0.95316 0.28452 0.98884 0.0
C3505 C 0.96584 0.29011 0.99121 0.0
H3506 H 0.98532 0.28648 0.99046 0.0
H3507 H 0.93017 0.20984 0.98998 0.0
H3508 H 0.93355 0.21417 0.02004 0.0
H3509 H 0.95047 0.2415 0.03294 0.0
H3510 H 0.96421 0.26469 0.01581 0.0
C3511 C 0.97257 0.28101 0.98946 0.0
C3512 C 0.96316 0.26435 0.98187 0.0
C3513 C 0.95517 0.25099 0.99199 0.0
C3514 C 0.94533 0.23526 0.98452 0.0
C3515 C 0.93765 0.22208 0.99497 0.0
C3516 C 0.93952 0.22439 0.01224 0.0
C3517 C 0.94905 0.23978 0.01951 0.0
C3518 C 0.95683 0.25298 0.00956 0.0
H3519 H 0.95098 0.21479 0.94764 0.0
C3520 C 0.9384 0.20889 0.94974 0.0
H3521 H 0.92038 0.21042 0.96197 0.0
H3522 H 0.97781 0.2873 0.95889 0.0
H3523 H 0.97387 0.28328 0.92887 0.0
H3524 H 0.95544 0.25637 0.91591 0.0
H3525 H 0.94106 0.23331 0.93282 0.0
C3526 C 0.93282 0.21652 0.95923 0.0
C3527 C 0.94343 0.23297 0.96692 0.0
C3528 C 0.95139 0.24642 0.95678 0.0
C3529 C 0.96155 0.26205 0.96427 0.0
C3530 C 0.96971 0.27521 0.95387 0.0
C3531 C 0.96757 0.27308 0.93661 0.0
C3532 C 0.95724 0.25792 0.92932 0.0
C3533 C 0.94916 0.24473 0.9392 0.0
H3534 H 0.70567 0.67551 0.98557 0.0
C3535 C 0.70525 0.66536 0.99167 0.0
H3536 H 0.71644 0.65178 0.99526 0.0
H3537 H 0.74905 0.69309 0.92757 0.0
H3538 H 0.72316 0.67687 0.91385 0.0
H3539 H 0.70029 0.65793 0.92958 0.0
H3540 H 0.70315 0.65516 0.95914 0.0
C3541 C 0.71638 0.66151 0.98877 0.0
C3542 C 0.7302 0.67199 0.97882 0.0
C3543 C 0.72833 0.67326 0.96149 0.0
C3544 C 0.74156 0.68396 0.95235 0.0
C3545 C 0.73939 0.6851 0.93509 0.0
C3546 C 0.7246 0.67585 0.92705 0.0
C3547 C 0.71172 0.66521 0.93592 0.0
C3548 C 0.7135 0.66382 0.95292 0.0
H3549 H 0.77998 0.68815 0.95242 0.0
C3550 C 0.78138 0.6992 0.9475 0.0
H3551 H 0.77181 0.7145 0.94594 0.0
H3552 H 0.73787 0.67241 0.01191 0.0
H3553 H 0.76374 0.68865 0.02553 0.0
H3554 H 0.78662 0.70736 0.00968 0.0
H3555 H 0.78375 0.70988 0.9801 0.0
C3556 C 0.77061 0.70348 0.95069 0.0
C3557 C 0.75666 0.69305 0.96047 0.0
C3558 C 0.75853 0.69182 0.9778 0.0
C3559 C 0.74531 0.68118 0.98696 0.0
C3560 C 0.7475 0.68024 0.00428 0.0
C3561 C 0.76229 0.68953 0.01229 0.0
C3562 C 0.77518 0.70005 0.00337 0.0
C3563 C 0.77338 0.70129 0.98635 0.0
H3564 H 0.9701 0.68028 0.97819 0.0
C3565 C 0.96344 0.67723 0.98947 0.0
H3566 H 0.94607 0.67891 0.00292 0.0
H3567 H 0.95955 0.74318 0.96985 0.0
H3568 H 0.96962 0.75276 0.99811 0.0
H3569 H 0.97096 0.7346 0.01827 0.0
H3570 H 0.96238 0.70682 0.01018 0.0
C3571 C 0.95241 0.68142 0.99146 0.0
C3572 C 0.95038 0.69179 0.97946 0.0
C3573 C 0.95498 0.70789 0.98455 0.0
C3574 C 0.95379 0.71823 0.97306 0.0
C3575 C 0.95945 0.73455 0.97821 0.0
C3576 C 0.96546 0.74028 0.99439 0.0
C3577 C 0.96624 0.73008 0.00572 0.0
C3578 C 0.9612 0.71411 0.0009 0.0
H3579 H 0.92962 0.72608 0.95899 0.0
C3580 C 0.93598 0.72872 0.94752 0.0
H3581 H 0.95141 0.7248 0.93292 0.0
H3582 H 0.93953 0.66129 0.96603 0.0
H3583 H 0.92927 0.65159 0.93777 0.0
H3584 H 0.92703 0.66943 0.91787 0.0
H3585 H 0.935 0.69704 0.9261 0.0
C3586 C 0.94554 0.72275 0.94466 0.0
C3587 C 0.94741 0.71226 0.95666 0.0
C3588 C 0.94281 0.69615 0.95159 0.0
C3589 C 0.94422 0.68588 0.96302 0.0
C3590 C 0.9391 0.66972 0.95775 0.0
C3591 C 0.93307 0.66396 0.94159 0.0
C3592 C 0.9318 0.67399 0.93039 0.0
C3593 C 0.93649 0.68987 0.93528 0.0
H3594 H 0.32007 0.29652 0.98793 0.0
C3595 C 0.33069 0.30319 0.98096 0.0
H3596 H 0.34494 0.30161 0.96255 0.0
H3597 H 0.29524 0.22719 0.98906 0.0
H3598 H 0.30922 0.23711 0.01583 0.0
H3599 H 0.33085 0.26534 0.02014 0.0
H3600 H 0.33829 0.2839 0.99778 0.0
C3601 C 0.3347 0.29512 0.97006 0.0
C3602 C 0.32412 0.27742 0.96658 0.0
C3603 C 0.32064 0.26647 0.97944 0.0
C3604 C 0.30888 0.24994 0.97663 0.0
C3605 C 0.30467 0.23963 0.99016 0.0
C3606 C 0.31252 0.24521 0.00568 0.0
C3607 C 0.32464 0.26111 0.00813 0.0
C3608 C 0.3287 0.27167 0.99522 0.0
H3609 H 0.30485 0.21827 0.96173 0.0
C3610 C 0.2928 0.21513 0.95844 0.0
H3611 H 0.27733 0.22384 0.95362 0.0
H3612 H 0.3284 0.29503 0.93894 0.0
H3613 H 0.31566 0.28474 0.91164 0.0
H3614 H 0.29654 0.25575 0.90627 0.0
H3615 H 0.28991 0.2369 0.92825 0.0
C3616 C 0.28923 0.22685 0.95738 0.0
C3617 C 0.30143 0.24416 0.96057 0.0
C3618 C 0.30544 0.25497 0.9475 0.0
C3619 C 0.31672 0.27163 0.95053 0.0
C3620 C 0.32012 0.28222 0.93734 0.0
C3621 C 0.31287 0.27647 0.92158 0.0
C3622 C 0.30209 0.26016 0.91856 0.0
C3623 C 0.29837 0.24948 0.93131 0.0
H3624 H 0.73882 0.06524 0.00762 0.0
C3625 C 0.72764 0.05466 0.00358 0.0
H3626 H 0.71573 0.03571 0.98529 0.0
H3627 H 0.78328 0.09017 0.95186 0.0
H3628 H 0.77167 0.10726 0.95094 0.0
H3629 H 0.74578 0.09862 0.96285 0.0
H3630 H 0.73136 0.07286 0.97583 0.0
C3631 C 0.72664 0.04666 0.98918 0.0
C3632 C 0.74106 0.05098 0.97978 0.0
C3633 C 0.7492 0.06595 0.97204 0.0
C3634 C 0.76404 0.07084 0.96501 0.0
C3635 C 0.772 0.08591 0.95747 0.0
C3636 C 0.76545 0.0958 0.9568 0.0
C3637 C 0.75087 0.09094 0.96352 0.0
C3638 C 0.74277 0.07618 0.97103 0.0
H3639 H 0.78026 0.05109 0.93866 0.0
C3640 C 0.78994 0.06078 0.94615 0.0
H3641 H 0.79658 0.07636 0.96756 0.0
H3642 H 0.7277 0.02077 0.99214 0.0
H3643 H 0.73892 0.00338 0.99237 0.0
H3644 H 0.76488 0.01207 0.98067 0.0
H3645 H 0.77971 0.03812 0.9686 0.0
C3646 C 0.78691 0.06673 0.96001 0.0
C3647 C 0.7706 0.06068 0.96556 0.0
C3648 C 0.76208 0.04535 0.97257 0.0
C3649 C 0.7472 0.04043 0.97953 0.0
C3650 C 0.73903 0.02514 0.98665 0.0
C3651 C 0.74535 0.01503 0.9869 0.0
C3652 C 0.75995 0.01991 0.9803 0.0
C3653 C 0.76831 0.0349 0.9733 0.0
H3654 H 0.70323 0.98762 0.0376 0.0
C3655 C 0.69091 0.98149 0.04087 0.0
H3656 H 0.67236 0.96088 0.05122 0.0
H3657 H 0.73276 0.94791 0.03702 0.0
H3658 H 0.72782 0.94958 0.00768 0.0
H3659 H 0.70714 0.95536 0.99848 0.0
H3660 H 0.69147 0.9598 0.01862 0.0
C3661 C 0.68454 0.96694 0.04753 0.0
C3662 C 0.69466 0.96022 0.05257 0.0
C3663 C 0.70317 0.95688 0.04059 0.0
C3664 C 0.7146 0.95284 0.04586 0.0
C3665 C 0.72358 0.95051 0.0337 0.0
C3666 C 0.72091 0.9515 0.01681 0.0
C3667 C 0.7093 0.95481 0.01163 0.0
C3668 C 0.70049 0.95745 0.02332 0.0
H3669 H 0.71681 0.92363 0.06002 0.0
C3670 C 0.72738 0.93313 0.06659 0.0
H3671 H 0.73971 0.95742 0.07559 0.0
H3672 H 0.67943 0.9645 0.07882 0.0
H3673 H 0.68297 0.96075 0.10788 0.0
H3674 H 0.7019 0.95246 0.1168 0.0
H3675 H 0.71754 0.94803 0.09665 0.0
C3676 C 0.72932 0.94792 0.06878 0.0
C3677 C 0.71696 0.95143 0.06304 0.0
C3678 C 0.70772 0.9537 0.07491 0.0
C3679 C 0.6966 0.95817 0.0697 0.0
C3680 C 0.68788 0.96083 0.08195 0.0
C3681 C 0.68981 0.95875 0.09873 0.0
C3682 C 0.70048 0.95411 0.10376 0.0
C3683 C 0.7094 0.95163 0.09206 0.0
H3684 H 0.02937 0.71665 0.0266 0.0
C3685 C 0.03138 0.70999 0.03609 0.0
H3686 H 0.0427 0.71154 0.05926 0.0
H3687 H 0.09548 0.78481 0.05938 0.0
H3688 H 0.111 0.77165 0.05839 0.0
H3689 H 0.09812 0.74208 0.05416 0.0
H3690 H 0.06963 0.72547 0.05107 0.0
C3691 C 0.04069 0.71805 0.0496 0.0
C3692 C 0.04838 0.73595 0.05197 0.0
C3693 C 0.06507 0.74551 0.05351 0.0
C3694 C 0.07252 0.7626 0.05561 0.0
C3695 C 0.0892 0.77181 0.05747 0.0
C3696 C 0.09826 0.76441 0.05697 0.0
C3697 C 0.09101 0.74776 0.05461 0.0
C3698 C 0.07463 0.73836 0.05289 0.0
H3699 H 0.06115 0.78865 0.0804 0.0
C3700 C 0.06912 0.79567 0.07084 0.0
H3701 H 0.07937 0.79511 0.04825 0.0
H3702 H 0.01606 0.72124 0.0529 0.0
H3703 H 0.0006 0.73442 0.05223 0.0
H3704 H 0.01358 0.76408 0.0521 0.0
H3705 H 0.04207 0.7807 0.05321 0.0
C3706 C 0.07127 0.78807 0.05771 0.0
C3707 C 0.06329 0.77015 0.05589 0.0
C3708 C 0.04659 0.7606 0.05411 0.0
C3709 C 0.03911 0.74347 0.05287 0.0
C3710 C 0.0224 0.73426 0.05272 0.0
C3711 C 0.01336 0.74168 0.05252 0.0
C3712 C 0.02066 0.75837 0.05255 0.0
C3713 C 0.03706 0.76778 0.05333 0.0
H3714 H 0.30565 0.35651 0.04757 0.0
C3715 C 0.30811 0.34801 0.04102 0.0
H3716 H 0.30002 0.3234 0.03495 0.0
H3717 H 0.25015 0.29718 0.09178 0.0
H3718 H 0.27113 0.29476 0.10534 0.0
H3719 H 0.29739 0.30652 0.09332 0.0
H3720 H 0.30286 0.32085 0.06768 0.0
C3721 C 0.29774 0.33209 0.04135 0.0
C3722 C 0.28222 0.32581 0.0491 0.0
C3723 C 0.27919 0.31739 0.06399 0.0
C3724 C 0.264 0.31046 0.07082 0.0
C3725 C 0.26138 0.30239 0.08589 0.0
C3726 C 0.27334 0.30099 0.09384 0.0
C3727 C 0.28814 0.30762 0.08707 0.0
C3728 C 0.29111 0.31578 0.07235 0.0
H3729 H 0.23134 0.28023 0.06268 0.0
C3730 C 0.22629 0.28745 0.06696 0.0
H3731 H 0.23055 0.31087 0.07278 0.0
H3732 H 0.28372 0.34033 0.01973 0.0
H3733 H 0.26281 0.34278 0.00632 0.0
H3734 H 0.23666 0.33127 0.01852 0.0
H3735 H 0.23127 0.31714 0.04416 0.0
C3736 C 0.23554 0.30354 0.0688 0.0
C3737 C 0.25183 0.3118 0.06262 0.0
C3738 C 0.25495 0.32051 0.0479 0.0
C3739 C 0.2701 0.32735 0.04102 0.0
C3740 C 0.2726 0.33525 0.02582 0.0
C3741 C 0.26065 0.33667 0.0179 0.0
C3742 C 0.24593 0.33018 0.02475 0.0
C3743 C 0.24302 0.32212 0.03952 0.0
H3744 H 0.72478 0.67818 0.37032 0.0
C3745 C 0.71229 0.67361 0.37203 0.0
H3746 H 0.69203 0.6567 0.38411 0.0
H3747 H 0.71981 0.6098 0.38914 0.0
H3748 H 0.69621 0.59396 0.37159 0.0
H3749 H 0.67983 0.60535 0.36266 0.0
H3750 H 0.68703 0.63269 0.37118 0.0
C3751 C 0.70464 0.66188 0.38272 0.0
C3752 C 0.71284 0.65416 0.39075 0.0
C3753 C 0.70816 0.63794 0.38611 0.0
C3754 C 0.71749 0.63129 0.39147 0.0
C3755 C 0.71299 0.61536 0.38587 0.0
C3756 C 0.69949 0.60614 0.37567 0.0
C3757 C 0.69028 0.61256 0.37063 0.0
C3758 C 0.69456 0.62829 0.37565 0.0
H3759 H 0.72636 0.61756 0.42267 0.0
C3760 C 0.73779 0.62272 0.41706 0.0
H3761 H 0.75332 0.63973 0.4006 0.0
H3762 H 0.72343 0.68449 0.4044 0.0
H3763 H 0.7467 0.70017 0.42264 0.0
H3764 H 0.76317 0.68884 0.4315 0.0
H3765 H 0.7564 0.66173 0.42229 0.0
C3766 C 0.74191 0.63445 0.40623 0.0
C3767 C 0.73131 0.64077 0.40176 0.0
C3768 C 0.7355 0.65667 0.40711 0.0
C3769 C 0.72617 0.66331 0.40176 0.0
C3770 C 0.73039 0.67906 0.40768 0.0
C3771 C 0.74364 0.68814 0.41825 0.0
C3772 C 0.7529 0.68175 0.42326 0.0
C3773 C 0.74891 0.66619 0.41784 0.0
H3774 H 0.34918 0.0468 0.37352 0.0
C3775 C 0.33706 0.04107 0.37743 0.0
H3776 H 0.3196 0.04466 0.38815 0.0
H3777 H 0.36806 0.10933 0.42821 0.0
H3778 H 0.35154 0.09249 0.44977 0.0
H3779 H 0.33079 0.06424 0.44316 0.0
H3780 H 0.32634 0.05269 0.41503 0.0
C3781 C 0.3316 0.05031 0.38396 0.0
C3782 C 0.34239 0.06803 0.38748 0.0
C3783 C 0.3447 0.07461 0.40406 0.0
C3784 C 0.35677 0.09087 0.40796 0.0
C3785 C 0.35905 0.09707 0.42462 0.0
C3786 C 0.34967 0.08753 0.43711 0.0
C3787 C 0.33798 0.07163 0.43338 0.0
C3788 C 0.33553 0.06516 0.41711 0.0
H3789 H 0.39304 0.14117 0.40397 0.0
C3790 C 0.38145 0.13072 0.40107 0.0
H3791 H 0.39187 0.11643 0.40117 0.0
H3792 H 0.33817 0.06087 0.35386 0.0
H3793 H 0.35459 0.07788 0.33233 0.0
H3794 H 0.37696 0.10522 0.33947 0.0
H3795 H 0.38276 0.11587 0.36812 0.0
C3796 C 0.38082 0.11638 0.39976 0.0
C3797 C 0.36655 0.10045 0.39534 0.0
C3798 C 0.3637 0.09418 0.37865 0.0
C3799 C 0.35127 0.07816 0.37463 0.0
C3800 C 0.348 0.07263 0.35769 0.0
C3801 C 0.35722 0.08234 0.3452 0.0
C3802 C 0.3698 0.09774 0.34922 0.0
C3803 C 0.37303 0.10368 0.36572 0.0
H3804 H 0.95622 0.30974 0.34509 0.0
C3805 C 0.96609 0.30878 0.35002 0.0
H3806 H 0.97419 0.29996 0.36935 0.0
H3807 H 0.922 0.29496 0.41841 0.0
H3808 H 0.94573 0.31721 0.43179 0.0
H3809 H 0.97126 0.32877 0.41822 0.0
H3810 H 0.97324 0.31808 0.39121 0.0
C3811 C 0.96441 0.30081 0.36398 0.0
C3812 C 0.94917 0.2932 0.37257 0.0
C3813 C 0.94822 0.29957 0.38835 0.0
C3814 C 0.93345 0.29303 0.39608 0.0
C3815 C 0.93286 0.29959 0.41188 0.0
C3816 C 0.94641 0.31234 0.41972 0.0
C3817 C 0.96078 0.31884 0.41209 0.0
C3818 C 0.96175 0.31259 0.39658 0.0
H3819 H 0.90074 0.25067 0.39931 0.0
C3820 C 0.89605 0.25869 0.40111 0.0
H3821 H 0.89954 0.28191 0.39771 0.0
H3822 H 0.94734 0.27641 0.34364 0.0
H3823 H 0.92354 0.25474 0.32978 0.0
H3824 H 0.89757 0.245 0.34192 0.0
H3825 H 0.89529 0.25659 0.36812 0.0
C3826 C 0.90416 0.27383 0.39591 0.0
C3827 C 0.91965 0.28016 0.388 0.0
C3828 C 0.92062 0.27371 0.37223 0.0
C3829 C 0.93548 0.27993 0.36476 0.0
C3830 C 0.93627 0.27264 0.34951 0.0
C3831 C 0.92271 0.26011 0.34147 0.0
C3832 C 0.9081 0.25458 0.34834 0.0
C3833 C 0.90699 0.26127 0.3635 0.0
H3834 H 0.03339 0.38531 0.31266 0.0
C3835 C 0.02362 0.3744 0.31735 0.0
H3836 H -0.00037 0.36293 0.3238 0.0
H3837 H 0.01396 0.43713 0.32979 0.0
H3838 H 0.01726 0.43357 0.3591 0.0
H3839 H 0.01618 0.40876 0.36825 0.0
H3840 H 0.01179 0.38733 0.34812 0.0
C3841 C 0.00978 0.37369 0.31946 0.0
C3842 C 0.00788 0.38735 0.3144 0.0
C3843 C 0.01022 0.39958 0.32631 0.0
C3844 C 0.01082 0.41385 0.32103 0.0
C3845 C 0.01342 0.42604 0.33314 0.0
C3846 C 0.01532 0.42415 0.34999 0.0
C3847 C 0.01472 0.41018 0.35514 0.0
C3848 C 0.01223 0.398 0.34349 0.0
H3849 H 0.98657 0.423 0.29751 0.0
C3850 C 0.99837 0.43295 0.29553 0.0
H3851 H 0.02277 0.44105 0.29654 0.0
H3852 H 0.00119 0.36522 0.28872 0.0
H3853 H 0.99739 0.36851 0.25946 0.0
H3854 H 0.99891 0.39348 0.25021 0.0
H3855 H 0.00416 0.41529 0.27014 0.0
C3856 C 0.01089 0.43114 0.29825 0.0
C3857 C 0.00896 0.41573 0.30388 0.0
C3858 C 0.00586 0.40316 0.29204 0.0
C3859 C 0.0052 0.38887 0.29734 0.0
C3860 C 0.00205 0.37643 0.28531 0.0
C3861 C -0.00021 0.37814 0.2685 0.0
C3862 C 0.00062 0.39219 0.26329 0.0
C3863 C 0.00363 0.40461 0.27486 0.0
H3864 H 0.64677 0.62647 0.32247 0.0
C3865 C 0.64103 0.63305 0.31854 0.0
H3866 H 0.62147 0.63177 0.30576 0.0
H3867 H 0.60601 0.57216 0.25775 0.0
H3868 H 0.60916 0.59258 0.23867 0.0
H3869 H 0.61768 0.62031 0.24905 0.0
H3870 H 0.62296 0.62778 0.27846 0.0
C3871 C 0.62716 0.62518 0.30977 0.0
C3872 C 0.62025 0.60795 0.30372 0.0
C3873 C 0.61722 0.60383 0.28636 0.0
C3874 C 0.61254 0.58791 0.28029 0.0
C3875 C 0.60968 0.58411 0.26296 0.0
C3876 C 0.61144 0.5957 0.25188 0.0
C3877 C 0.61621 0.61131 0.25773 0.0
C3878 C 0.61916 0.61542 0.27472 0.0
H3879 H 0.59583 0.53648 0.27707 0.0
C3880 C 0.59498 0.54684 0.28132 0.0
H3881 H 0.61955 0.55985 0.28394 0.0
H3882 H 0.62062 0.6103 0.33782 0.0
H3883 H 0.61747 0.58979 0.35676 0.0
H3884 H 0.61187 0.563 0.34603 0.0
H3885 H 0.60892 0.55643 0.3163 0.0
C3886 C 0.60886 0.56048 0.28504 0.0
C3887 C 0.61112 0.57621 0.29149 0.0
C3888 C 0.61347 0.58009 0.30885 0.0
C3889 C 0.61748 0.59579 0.315 0.0
C3890 C 0.6185 0.59889 0.33245 0.0
C3891 C 0.61654 0.58716 0.34346 0.0
C3892 C 0.61335 0.57207 0.33743 0.0
C3893 C 0.61176 0.56848 0.32034 0.0
H3894 H 0.36175 0.99396 0.32293 0.0
C3895 C 0.36284 0.9888 0.33437 0.0
H3896 H 0.37349 0.97733 0.34653 0.0
H3897 H 0.38924 0.94948 0.28335 0.0
H3898 H 0.36711 0.92527 0.29337 0.0
H3899 H 0.35117 0.92688 0.31584 0.0
H3900 H 0.35735 0.95274 0.3285 0.0
C3901 C 0.37275 0.98304 0.33535 0.0
C3902 C 0.38158 0.98244 0.3208 0.0
C3903 C 0.37764 0.96724 0.31331 0.0
C3904 C 0.38666 0.96633 0.30015 0.0
C3905 C 0.38268 0.95094 0.29322 0.0
C3906 C 0.37001 0.93691 0.29887 0.0
C3907 C 0.36105 0.93782 0.31153 0.0
C3908 C 0.36476 0.95276 0.31872 0.0
H3909 H 0.42967 0.98872 0.29823 0.0
C3910 C 0.42479 0.98369 0.28578 0.0
H3911 H 0.4045 0.97345 0.26972 0.0
H3912 H 0.39272 0.01353 0.33272 0.0
H3913 H 0.41388 0.03784 0.3216 0.0
H3914 H 0.42829 0.03632 0.29749 0.0
H3915 H 0.42178 0.01043 0.28454 0.0
C3916 C 0.40979 0.97942 0.28176 0.0
C3917 C 0.39955 0.98064 0.29443 0.0
C3918 C 0.40302 0.99589 0.30136 0.0
C3919 C 0.39424 0.99679 0.3148 0.0
C3920 C 0.3986 0.01214 0.32212 0.0
C3921 C 0.41079 0.0262 0.31591 0.0
C3922 C 0.41893 0.02535 0.30237 0.0
C3923 C 0.41515 0.01041 0.29513 0.0
H3924 H 0.63298 0.99881 0.31355 0.0
C3925 C 0.62432 0.98874 0.32039 0.0
H3926 H 0.60009 0.97366 0.32475 0.0
H3927 H 0.59796 0.0372 0.30077 0.0
H3928 H 0.61267 0.05013 0.32668 0.0
H3929 H 0.62306 0.0367 0.34423 0.0
H3930 H 0.61889 0.01036 0.33596 0.0
C3931 C 0.60894 0.98388 0.31825 0.0
C3932 C 0.60344 0.99241 0.30732 0.0
C3933 C 0.606 0.00785 0.31243 0.0
C3934 C 0.59977 0.01547 0.30246 0.0
C3935 C 0.60238 0.03083 0.30788 0.0
C3936 C 0.6108 0.03839 0.32274 0.0
C3937 C 0.61666 0.03084 0.33261 0.0
C3938 C 0.61426 0.01573 0.32763 0.0
H3939 H 0.56013 0.99722 0.28673 0.0
C3940 C 0.56676 0.00813 0.27992 0.0
H3941 H 0.58934 0.02592 0.27277 0.0
H3942 H 0.59714 0.96325 0.29363 0.0
H3943 H 0.58252 0.95043 0.26758 0.0
H3944 H 0.57173 0.96369 0.25032 0.0
H3945 H 0.57544 0.98986 0.25904 0.0
C3946 C 0.5824 0.01452 0.27868 0.0
C3947 C 0.59069 0.00748 0.28768 0.0
C3948 C 0.58856 0.9923 0.28232 0.0
C3949 C 0.59489 0.98472 0.2922 0.0
C3950 C 0.59252 0.96951 0.28662 0.0
C3951 C 0.58419 0.96204 0.27168 0.0
C3952 C 0.5781 0.96951 0.26197 0.0
C3953 C 0.58024 0.98447 0.26715 0.0
H3954 H 0.03203 0.64361 0.30111 0.0
C3955 C 0.02303 0.64593 0.30581 0.0
H3956 H 0.99918 0.63562 0.31217 0.0
H3957 H 0.00156 0.57929 0.26328 0.0
H3958 H 0.00938 0.59852 0.24156 0.0
H3959 H 0.01393 0.62591 0.24751 0.0
H3960 H 0.01111 0.63436 0.27528 0.0
C3961 C 0.00829 0.63352 0.30737 0.0
C3962 C 0.00403 0.61654 0.3032 0.0
C3963 C 0.0049 0.61155 0.28663 0.0
C3964 C 0.00131 0.59544 0.28296 0.0
C3965 C 0.00337 0.59112 0.26659 0.0
C3966 C 0.00797 0.60208 0.25402 0.0
C3967 C 0.01061 0.61752 0.25739 0.0
C3968 C 0.00908 0.62226 0.27345 0.0
H3969 H 0.97193 0.56223 0.27556 0.0
C3970 C 0.97855 0.55733 0.2815 0.0
H3971 H 0.9971 0.5618 0.29845 0.0
H3972 H 0.00107 0.6221 0.33618 0.0
H3973 H 0.99181 0.60243 0.35754 0.0
H3974 H 0.98407 0.57411 0.35081 0.0
H3975 H 0.98568 0.56531 0.32273 0.0
C3976 C 0.99108 0.56692 0.2917 0.0
C3977 C 0.99587 0.58408 0.2956 0.0
C3978 C 0.99471 0.58898 0.31207 0.0
C3979 C 0.99888 0.60524 0.31589 0.0
C3980 C 0.99784 0.60986 0.33251 0.0
C3981 C 0.99257 0.5987 0.34492 0.0
C3982 C 0.98823 0.58276 0.34114 0.0
C3983 C 0.98925 0.57788 0.32494 0.0
H3984 H 0.36815 0.37117 0.31272 0.0
C3985 C 0.37202 0.37148 0.32556 0.0
H3986 H 0.39111 0.37599 0.34187 0.0
H3987 H 0.42913 0.36504 0.28549 0.0
H3988 H 0.42075 0.34112 0.30125 0.0
H3989 H 0.40225 0.33486 0.32392 0.0
H3990 H 0.39194 0.35243 0.33088 0.0
C3991 C 0.38718 0.37611 0.32917 0.0
C3992 C 0.39874 0.38032 0.31588 0.0
C3993 C 0.4049 0.37008 0.31221 0.0
C3994 C 0.41576 0.37383 0.29933 0.0
C3995 C 0.42122 0.36305 0.29547 0.0
C3996 C 0.41641 0.3492 0.30434 0.0
C3997 C 0.40598 0.34566 0.31709 0.0
C3998 C 0.40019 0.35588 0.32098 0.0
H3999 H 0.45123 0.39696 0.29391 0.0
C4000 C 0.44757 0.3971 0.28109 0.0
H4001 H 0.4288 0.39298 0.26459 0.0
H4002 H 0.39035 0.40333 0.32082 0.0
H4003 H 0.39882 0.42729 0.30514 0.0
H4004 H 0.41737 0.43358 0.28251 0.0
H4005 H 0.42761 0.41598 0.2755 0.0
C4006 C 0.43241 0.39236 0.27728 0.0
C4007 C 0.42069 0.388 0.29041 0.0
C4008 C 0.41455 0.39824 0.29408 0.0
C4009 C 0.40368 0.39449 0.30695 0.0
C4010 C 0.39826 0.40531 0.31084 0.0
C4011 C 0.40313 0.41919 0.30202 0.0
C4012 C 0.41358 0.42274 0.28929 0.0
C4013 C 0.41933 0.41249 0.28537 0.0
H4014 H 0.34215 0.31319 0.36231 0.0
C4015 C 0.33353 0.31192 0.37132 0.0
H4016 H 0.32291 0.30151 0.39373 0.0
H4017 H 0.33956 0.24586 0.38947 0.0
H4018 H 0.31093 0.2306 0.38817 0.0
H4019 H 0.29559 0.2444 0.38603 0.0
H4020 H 0.30876 0.27357 0.38536 0.0
C4021 C 0.33139 0.30287 0.38452 0.0
C4022 C 0.34067 0.29463 0.38689 0.0
C4023 C 0.33278 0.27757 0.38712 0.0
C4024 C 0.34163 0.26958 0.38802 0.0
C4025 C 0.33343 0.25254 0.3885 0.0
C4026 C 0.317 0.24362 0.38781 0.0
C4027 C 0.30836 0.25139 0.38663 0.0
C4028 C 0.31608 0.26815 0.38627 0.0
H4029 H 0.37936 0.28013 0.41156 0.0
C4030 C 0.37754 0.27199 0.40096 0.0
H4031 H 0.36552 0.2618 0.37787 0.0
H4032 H 0.35955 0.32755 0.39083 0.0
H4033 H 0.38812 0.34284 0.39083 0.0
H4034 H 0.40343 0.32898 0.38854 0.0
H4035 H 0.39029 0.29984 0.38683 0.0
C4036 C 0.36746 0.27008 0.38837 0.0
C4037 C 0.35837 0.27865 0.38841 0.0
C4038 C 0.36628 0.29576 0.3883 0.0
C4039 C 0.35742 0.30375 0.38829 0.0
C4040 C 0.36564 0.32084 0.38971 0.0
C4041 C 0.38206 0.32978 0.3899 0.0
C4042 C 0.39068 0.32199 0.38871 0.0
C4043 C 0.38296 0.30519 0.38789 0.0
H4044 H 0.69295 0.03561 0.36597 0.0
C4045 C 0.69481 0.02868 0.37527 0.0
H4046 H 0.7063 0.02979 0.3982 0.0
H4047 H 0.75982 0.10311 0.39349 0.0
H4048 H 0.77504 0.0896 0.3943 0.0
H4049 H 0.76177 0.05988 0.39334 0.0
H4050 H 0.7332 0.04348 0.39176 0.0
C4051 C 0.70431 0.03647 0.38874 0.0
C4052 C 0.71231 0.05442 0.39092 0.0
C4053 C 0.72902 0.06381 0.39174 0.0
C4054 C 0.73668 0.08095 0.39194 0.0
C4055 C 0.75339 0.09005 0.39298 0.0
C4056 C 0.76227 0.08245 0.39351 0.0
C4057 C 0.7548 0.06572 0.39299 0.0
C4058 C 0.73838 0.05644 0.39209 0.0
H4059 H 0.72757 0.11145 0.41168 0.0
C4060 C 0.73475 0.11642 0.40093 0.0
H4061 H 0.74319 0.11156 0.37895 0.0
H4062 H 0.68034 0.04036 0.39401 0.0
H4063 H 0.66497 0.05365 0.39225 0.0
H4064 H 0.67798 0.08298 0.38869 0.0
H4065 H 0.70637 0.0992 0.38748 0.0
C4066 C 0.73582 0.1065 0.38955 0.0
C4067 C 0.72763 0.08868 0.39103 0.0
C4068 C 0.71088 0.07927 0.39063 0.0
C4069 C 0.70328 0.0622 0.39134 0.0
C4070 C 0.68664 0.05323 0.3924 0.0
C4071 C 0.67769 0.06072 0.39157 0.0
C4072 C 0.68502 0.07724 0.38966 0.0
C4073 C 0.70139 0.08645 0.38915 0.0
H4074 H 0.95917 0.6541 0.337 0.0
C4075 C 0.9705 0.6607 0.34382 0.0
H4076 H 0.98199 0.6686 0.3676 0.0
H4077 H 0.92126 0.66525 0.39831 0.0
H4078 H 0.94105 0.69359 0.40293 0.0
H4079 H 0.96776 0.70443 0.39227 0.0
H4080 H 0.97488 0.68702 0.37704 0.0
C4081 C 0.97083 0.66168 0.36055 0.0
C4082 C 0.95577 0.65466 0.36952 0.0
C4083 C 0.95187 0.66499 0.37852 0.0
C4084 C 0.9364 0.65879 0.38446 0.0
C4085 C 0.93277 0.6694 0.39332 0.0
C4086 C 0.94403 0.68567 0.39611 0.0
C4087 C 0.95907 0.69177 0.39012 0.0
C4088 C 0.963 0.68163 0.38138 0.0
H4089 H 0.90619 0.62115 0.40383 0.0
C4090 C 0.90032 0.62623 0.39674 0.0
H4091 H 0.90218 0.64181 0.37798 0.0
H4092 H 0.96068 0.63096 0.35673 0.0
H4093 H 0.94105 0.60253 0.35235 0.0
H4094 H 0.91361 0.5921 0.36054 0.0
H4095 H 0.90573 0.60987 0.37347 0.0
C4096 C 0.90808 0.63671 0.38496 0.0
C4097 C 0.92483 0.64231 0.38132 0.0
C4098 C 0.92905 0.63174 0.37331 0.0
C4099 C 0.94466 0.63787 0.36781 0.0
C4100 C 0.9488 0.627 0.36049 0.0
C4101 C 0.93769 0.61066 0.35801 0.0
C4102 C 0.92226 0.60478 0.36268 0.0
C4103 C 0.91791 0.61513 0.37019 0.0
H4104 H 0.37554 0.0174 0.71788 0.0
C4105 C 0.37529 0.011 0.70639 0.0
H4106 H 0.38518 0.99897 0.69344 0.0
H4107 H 0.45004 0.04319 0.73477 0.0
H4108 H 0.45328 0.06262 0.71445 0.0
H4109 H 0.43112 0.05773 0.69543 0.0
H4110 H 0.4056 0.03337 0.69663 0.0
C4111 C 0.38501 0.00506 0.70497 0.0
C4112 C 0.39758 0.00883 0.71785 0.0
C4113 C 0.41237 0.02327 0.71713 0.0
C4114 C 0.42512 0.02609 0.7281 0.0
C4115 C 0.43988 0.04043 0.72684 0.0
C4116 C 0.44193 0.05171 0.7152 0.0
C4117 C 0.42946 0.04896 0.70449 0.0
C4118 C 0.41485 0.03491 0.70534 0.0
H4119 H 0.43625 0.99633 0.73664 0.0
C4120 C 0.44265 0.00634 0.74574 0.0
H4121 H 0.44389 0.02692 0.75741 0.0
H4122 H 0.3704 0.9807 0.72326 0.0
H4123 H 0.36675 0.96169 0.74443 0.0
H4124 H 0.38872 0.96686 0.76392 0.0
H4125 H 0.4145 0.99099 0.7623 0.0
C4126 C 0.43709 0.01627 0.74919 0.0
C4127 C 0.42307 0.01439 0.73966 0.0
C4128 C 0.408 0.00044 0.74106 0.0
C4129 C 0.39527 0.9976 0.73003 0.0
C4130 C 0.38044 0.98342 0.7314 0.0
C4131 C 0.37819 0.97246 0.7435 0.0
C4132 C 0.39056 0.97535 0.75446 0.0
C4133 C 0.40532 0.98918 0.75333 0.0
H4134 H 0.00778 0.36981 0.71636 0.0
C4135 C 0.99557 0.36001 0.71571 0.0
H4136 H 0.97227 0.35199 0.72255 0.0
H4137 H 0.98626 0.38971 0.79059 0.0
H4138 H 0.97529 0.36217 0.79885 0.0
H4139 H 0.97057 0.34044 0.77833 0.0
H4140 H 0.97665 0.34608 0.74945 0.0
C4141 C 0.98443 0.36191 0.72313 0.0
C4142 C 0.98849 0.37551 0.73538 0.0
C4143 C 0.98515 0.37202 0.75235 0.0
C4144 C 0.98817 0.38458 0.76425 0.0
C4145 C 0.98439 0.38068 0.78104 0.0
C4146 C 0.97807 0.3649 0.78597 0.0
C4147 C 0.97539 0.35267 0.77442 0.0
C4148 C 0.97888 0.3561 0.75782 0.0
H4149 H 0.99012 0.42746 0.78478 0.0
C4150 C 0.9876 0.41944 0.77388 0.0
H4151 H 0.00649 0.41665 0.78147 0.0
H4152 H 0.99558 0.38631 0.70382 0.0
H4153 H 0.00764 0.41412 0.69587 0.0
H4154 H 0.01438 0.43611 0.71691 0.0
H4155 H 0.00882 0.43037 0.74603 0.0
C4156 C 0.99731 0.41348 0.77188 0.0
C4157 C 0.99468 0.40065 0.75924 0.0
C4158 C 0.99857 0.40427 0.74244 0.0
C4159 C 0.99518 0.39163 0.7304 0.0
C4160 C 0.99837 0.39548 0.71355 0.0
C4161 C 0.00522 0.41139 0.70881 0.0
C4162 C 0.00898 0.42377 0.72065 0.0
C4163 C 0.00571 0.42032 0.7373 0.0
H4164 H 0.64591 0.63151 0.72056 0.0
C4165 C 0.64176 0.63319 0.70858 0.0
H4166 H 0.62226 0.62994 0.69384 0.0
H4167 H 0.56727 0.57263 0.72706 0.0
H4168 H 0.57033 0.55882 0.70304 0.0
H4169 H 0.59367 0.57256 0.68588 0.0
H4170 H 0.61402 0.60029 0.69262 0.0
C4171 C 0.62649 0.62867 0.70597 0.0
C4172 C 0.61429 0.61983 0.71826 0.0
C4173 C 0.60272 0.60346 0.71449 0.0
C4174 C 0.58946 0.59544 0.72459 0.0
C4175 C 0.57777 0.57928 0.72006 0.0
C4176 C 0.57935 0.57118 0.70625 0.0
C4177 C 0.59246 0.57892 0.69657 0.0
C4178 C 0.60403 0.59487 0.70055 0.0
H4179 H 0.56698 0.61341 0.74192 0.0
C4180 C 0.56331 0.60206 0.74777 0.0
H4181 H 0.56918 0.58423 0.75275 0.0
H4182 H 0.63455 0.65112 0.72928 0.0
H4183 H 0.6325 0.66441 0.75444 0.0
H4184 H 0.61047 0.64988 0.77308 0.0
H4185 H 0.59018 0.62204 0.76648 0.0
C4186 C 0.57299 0.59596 0.74777 0.0
C4187 C 0.5879 0.60378 0.73861 0.0
C4188 C 0.60009 0.61976 0.74311 0.0
C4189 C 0.61315 0.62792 0.73273 0.0
C4190 C 0.62463 0.6442 0.73696 0.0
C4191 C 0.62357 0.65199 0.75135 0.0
C4192 C 0.61114 0.64382 0.76182 0.0
C4193 C 0.59951 0.62789 0.75782 0.0
H4194 H 0.65915 0.68779 0.66805 0.0
C4195 C 0.66872 0.69111 0.65961 0.0
H4196 H 0.68081 0.70541 0.6395 0.0
H4197 H 0.61603 0.70297 0.6186 0.0
H4198 H 0.60821 0.67603 0.60779 0.0
H4199 H 0.62435 0.6637 0.6142 0.0
H4200 H 0.64841 0.67825 0.63146 0.0
C4201 C 0.67138 0.70197 0.64813 0.0
C4202 C 0.66083 0.70869 0.64583 0.0
C4203 C 0.64669 0.69991 0.63588 0.0
C4204 C 0.6374 0.70702 0.63218 0.0
C4205 C 0.62351 0.69814 0.6219 0.0
C4206 C 0.61888 0.68265 0.61559 0.0
C4207 C 0.62796 0.67571 0.61919 0.0
C4208 C 0.64175 0.6842 0.62915 0.0
H4209 H 0.65308 0.74859 0.61992 0.0
C4210 C 0.64075 0.74371 0.62279 0.0
H4211 H 0.62138 0.72586 0.6352 0.0
H4212 H 0.68668 0.72815 0.66617 0.0
H4213 H 0.69396 0.75469 0.67803 0.0
H4214 H 0.6774 0.76671 0.67234 0.0
H4215 H 0.65356 0.75236 0.65464 0.0
C4216 C 0.63378 0.73106 0.63255 0.0
C4217 C 0.64236 0.72292 0.63833 0.0
C4218 C 0.656 0.7313 0.6491 0.0
C4219 C 0.66535 0.72423 0.65268 0.0
C4220 C 0.67913 0.73298 0.66312 0.0
C4221 C 0.68342 0.74818 0.67003 0.0
C4222 C 0.67411 0.75496 0.6668 0.0
C4223 C 0.66052 0.74666 0.65652 0.0
H4224 H 0.31491 0.96731 0.65802 0.0
C4225 C 0.31155 0.97422 0.65023 0.0
H4226 H 0.29682 0.9733 0.63021 0.0
H4227 H 0.28528 0.90857 0.59604 0.0
H4228 H 0.30223 0.9281 0.57656 0.0
H4229 H 0.31509 0.95731 0.58353 0.0
H4230 H 0.31101 0.96717 0.60997 0.0
C4231 C 0.2999 0.9665 0.63849 0.0
C4232 C 0.29246 0.94883 0.63476 0.0
C4233 C 0.29513 0.94327 0.6193 0.0
C4234 C 0.2879 0.92643 0.61537 0.0
C4235 C 0.29059 0.92122 0.59975 0.0
C4236 C 0.30029 0.9323 0.58843 0.0
C4237 C 0.30751 0.94875 0.59234 0.0
C4238 C 0.30502 0.95424 0.60757 0.0
H4239 H 0.24734 0.89479 0.62079 0.0
C4240 C 0.25436 0.88903 0.61912 0.0
H4241 H 0.27716 0.89204 0.62058 0.0
H4242 H 0.28395 0.95534 0.66499 0.0
H4243 H 0.26784 0.93579 0.6849 0.0
H4244 H 0.25668 0.90663 0.67878 0.0
H4245 H 0.26135 0.89685 0.65259 0.0
C4246 C 0.27001 0.89762 0.62235 0.0
C4247 C 0.27806 0.91519 0.62691 0.0
C4248 C 0.27569 0.92072 0.64254 0.0
C4249 C 0.28266 0.93756 0.64635 0.0
C4250 C 0.27942 0.94272 0.66169 0.0
C4251 C 0.27011 0.93162 0.6732 0.0
C4252 C 0.26378 0.9152 0.66973 0.0
C4253 C 0.26649 0.90974 0.65461 0.0
H4254 H 0.04163 0.35205 0.64821 0.0
C4255 C 0.04323 0.34318 0.65468 0.0
H4256 H 0.05777 0.33307 0.65824 0.0
H4257 H 0.09482 0.35676 0.5922 0.0
H4258 H 0.07964 0.32776 0.58642 0.0
H4259 H 0.05915 0.31 0.60532 0.0
H4260 H 0.05374 0.32109 0.63016 0.0
C4261 C 0.0562 0.34214 0.65217 0.0
C4262 C 0.06855 0.35293 0.64075 0.0
C4263 C 0.07153 0.34624 0.62627 0.0
C4264 C 0.08324 0.35647 0.61527 0.0
C4265 C 0.086 0.3495 0.60091 0.0
C4266 C 0.07738 0.33289 0.59745 0.0
C4267 C 0.06585 0.3229 0.60811 0.0
C4268 C 0.06289 0.32942 0.62235 0.0
H4269 H 0.12611 0.39724 0.59793 0.0
C4270 C 0.11919 0.38877 0.6072 0.0
H4271 H 0.09962 0.3897 0.59812 0.0
H4272 H 0.06767 0.36963 0.66869 0.0
H4273 H 0.08255 0.39859 0.67407 0.0
H4274 H 0.1016 0.41641 0.65403 0.0
H4275 H 0.10608 0.4053 0.62864 0.0
C4276 C 0.10373 0.38421 0.607 0.0
C4277 C 0.09195 0.37336 0.61878 0.0
C4278 C 0.08893 0.38008 0.63317 0.0
C4279 C 0.07753 0.36984 0.64441 0.0
C4280 C 0.07563 0.37684 0.65931 0.0
C4281 C 0.08422 0.39347 0.66265 0.0
C4282 C 0.09496 0.4035 0.65139 0.0
C4283 C 0.09738 0.39696 0.63684 0.0
H4284 H 0.27866 0.32067 0.66435 0.0
C4285 C 0.29134 0.3256 0.66395 0.0
H4286 H 0.31288 0.34457 0.65583 0.0
H4287 H 0.25432 0.34727 0.61371 0.0
H4288 H 0.24917 0.32231 0.59949 0.0
H4289 H 0.26428 0.30921 0.60738 0.0
H4290 H 0.28455 0.32091 0.62965 0.0
C4291 C 0.30012 0.33909 0.65573 0.0
C4292 C 0.2929 0.34823 0.64886 0.0
C4293 C 0.2814 0.34146 0.63554 0.0
C4294 C 0.27292 0.34919 0.63075 0.0
C4295 C 0.26118 0.34195 0.61774 0.0
C4296 C 0.25813 0.32764 0.60948 0.0
C4297 C 0.26662 0.32025 0.61394 0.0
C4298 C 0.27815 0.32703 0.6268 0.0
H4299 H 0.27816 0.38407 0.61558 0.0
C4300 C 0.26835 0.3808 0.62367 0.0
H4301 H 0.25648 0.36797 0.64451 0.0
H4302 H 0.3155 0.36547 0.67361 0.0
H4303 H 0.32168 0.39121 0.68656 0.0
H4304 H 0.30719 0.40475 0.67795 0.0
H4305 H 0.28641 0.3926 0.65626 0.0
C4306 C 0.26582 0.37067 0.63592 0.0
C4307 C 0.27615 0.3638 0.6391 0.0
C4308 C 0.28842 0.37116 0.65159 0.0
C4309 C 0.29684 0.36339 0.65646 0.0
C4310 C 0.30879 0.37086 0.66928 0.0
C4311 C 0.31245 0.38564 0.67686 0.0
C4312 C 0.30429 0.39326 0.67202 0.0
C4313 C 0.29238 0.38615 0.65957 0.0
H4314 H 0.68859 0.96787 0.62678 0.0
C4315 C 0.68047 0.97078 0.63278 0.0
H4316 H 0.65724 0.96163 0.64086 0.0
H4317 H 0.62935 0.90048 0.59081 0.0
H4318 H 0.62152 0.91716 0.57616 0.0
H4319 H 0.63111 0.94529 0.58598 0.0
H4320 H 0.64874 0.95695 0.61043 0.0
C4321 C 0.66579 0.95887 0.63569 0.0
C4322 C 0.66007 0.94188 0.62994 0.0
C4323 C 0.64949 0.93513 0.61586 0.0
C4324 C 0.64367 0.9188 0.61041 0.0
C4325 C 0.63369 0.91262 0.59585 0.0
C4326 C 0.6292 0.92212 0.58723 0.0
C4327 C 0.63462 0.93796 0.59274 0.0
C4328 C 0.6447 0.94448 0.60683 0.0
H4329 H 0.61795 0.88548 0.6197 0.0
C4330 C 0.62578 0.8811 0.61606 0.0
H4331 H 0.64914 0.88738 0.6111 0.0
H4332 H 0.68 0.95104 0.65754 0.0
H4333 H 0.68785 0.93438 0.67223 0.0
H4334 H 0.67761 0.90599 0.66297 0.0
H4335 H 0.65946 0.89408 0.63898 0.0
C4336 C 0.64121 0.89168 0.61454 0.0
C4337 C 0.6481 0.90911 0.61936 0.0
C4338 C 0.65891 0.91595 0.63328 0.0
C4339 C 0.66487 0.93235 0.6386 0.0
C4340 C 0.6753 0.93874 0.65281 0.0
C4341 C 0.67985 0.92929 0.66141 0.0
C4342 C 0.67408 0.9133 0.6562 0.0
C4343 C 0.66369 0.90663 0.64236 0.0
H4344 H 0.0308 0.68764 0.65115 0.0
C4345 C 0.03419 0.69436 0.66309 0.0
H4346 H 0.05263 0.71308 0.67803 0.0
H4347 H 0.09424 0.69863 0.62347 0.0
H4348 H 0.08239 0.67175 0.63407 0.0
H4349 H 0.06129 0.66266 0.65426 0.0
H4350 H 0.0517 0.68023 0.66369 0.0
C4351 C 0.04929 0.70594 0.66635 0.0
C4352 C 0.06157 0.71085 0.6537 0.0
C4353 C 0.06733 0.70053 0.64874 0.0
C4354 C 0.08 0.70603 0.6377 0.0
C4355 C 0.08509 0.69528 0.63235 0.0
C4356 C 0.07831 0.67978 0.63825 0.0
C4357 C 0.0664 0.67465 0.64957 0.0
C4358 C 0.06094 0.68485 0.65482 0.0
H4359 H 0.11501 0.72647 0.64292 0.0
C4360 C 0.11551 0.73066 0.6304 0.0
H4361 H 0.10273 0.73391 0.61106 0.0
H4362 H 0.05228 0.733 0.65936 0.0
H4363 H 0.06429 0.75991 0.64889 0.0
H4364 H 0.08707 0.76989 0.63085 0.0
H4365 H 0.0979 0.75301 0.62305 0.0
C4366 C 0.10226 0.72885 0.62308 0.0
C4367 C 0.08738 0.72206 0.63229 0.0
C4368 C 0.08119 0.73211 0.63669 0.0
C4369 C 0.06824 0.72647 0.64735 0.0
C4370 C 0.06227 0.73676 0.65153 0.0
C4371 C 0.06901 0.75222 0.64557 0.0
C4372 C 0.08182 0.75783 0.63539 0.0
C4373 C 0.08791 0.74798 0.63099 0.0
H4374 H 0.96936 0.6227 0.72417 0.0
C4375 C 0.97735 0.62978 0.71465 0.0
H4376 H 0.99823 0.63552 0.70247 0.0
H4377 H 0.02892 0.62355 0.7661 0.0
H4378 H 0.04695 0.65179 0.76148 0.0
H4379 H 0.04114 0.66553 0.73939 0.0
H4380 H 0.0174 0.65114 0.72178 0.0
C4381 C 0.98991 0.62819 0.71163 0.0
C4382 C 0.99442 0.6192 0.72318 0.0
C4383 C 0.00847 0.62786 0.73332 0.0
C4384 C 0.01171 0.62003 0.74623 0.0
C4385 C 0.02577 0.62896 0.75625 0.0
C4386 C 0.03625 0.64517 0.75371 0.0
C4387 C 0.033 0.6529 0.74127 0.0
C4388 C 0.01928 0.64444 0.7312 0.0
H4389 H 0.01255 0.58313 0.77506 0.0
C4390 C 0.01012 0.58662 0.76312 0.0
H4391 H 0.002 0.6001 0.77581 0.0
H4392 H 0.96816 0.5984 0.70399 0.0
H4393 H 0.95015 0.57006 0.70862 0.0
H4394 H 0.95498 0.5569 0.73207 0.0
H4395 H 0.97797 0.57193 0.75086 0.0
C4396 C 0.00375 0.59615 0.76364 0.0
C4397 C 0.00094 0.60358 0.74899 0.0
C4398 C 0.98725 0.59473 0.73842 0.0
C4399 C 0.98416 0.60247 0.72528 0.0
C4400 C 0.97074 0.59323 0.7145 0.0
C4401 C 0.96038 0.57694 0.71696 0.0
C4402 C 0.96312 0.56953 0.73014 0.0
C4403 C 0.97637 0.57827 0.74081 0.0
H4404 H 0.37512 0.3691 0.72194 0.0
C4405 C 0.36596 0.36455 0.71208 0.0
H4406 H 0.35336 0.37041 0.69483 0.0
H4407 H 0.36156 0.42959 0.73945 0.0
H4408 H 0.33307 0.41246 0.73628 0.0
H4409 H 0.3211 0.38575 0.72155 0.0
H4410 H 0.33743 0.376 0.70989 0.0
C4411 C 0.36267 0.37488 0.7045 0.0
C4412 C 0.36989 0.39196 0.71094 0.0
C4413 C 0.36006 0.39748 0.71755 0.0
C4414 C 0.36693 0.4128 0.7262 0.0
C4415 C 0.35691 0.41798 0.73289 0.0
C4416 C 0.34056 0.40829 0.73114 0.0
C4417 C 0.33382 0.39325 0.72284 0.0
C4418 C 0.34337 0.38781 0.71617 0.0
H4419 H 0.39647 0.45358 0.72018 0.0
C4420 C 0.39658 0.45213 0.73353 0.0
H4421 H 0.39015 0.43573 0.75273 0.0
H4422 H 0.39191 0.3868 0.69619 0.0
H4423 H 0.4204 0.40434 0.69871 0.0
H4424 H 0.43232 0.43026 0.71503 0.0
H4425 H 0.41586 0.43893 0.72867 0.0
C4426 C 0.39055 0.4373 0.73939 0.0
C4427 C 0.38355 0.42256 0.72819 0.0
C4428 C 0.39337 0.41758 0.72057 0.0
C4429 C 0.38652 0.40238 0.71167 0.0
C4430 C 0.39655 0.39794 0.70365 0.0
C4431 C 0.4129 0.40795 0.70489 0.0
C4432 C 0.41961 0.42256 0.71404 0.0
C4433 C 0.41002 0.42739 0.72181 0.0
H4434 H 0.63766 0.99411 0.69169 0.0
C4435 C 0.63922 0.00458 0.68526 0.0
H4436 H 0.63213 0.02186 0.68306 0.0
H4437 H 0.56897 0.96436 0.71719 0.0
H4438 H 0.5652 0.94813 0.69197 0.0
H4439 H 0.58551 0.95767 0.67088 0.0
H4440 H 0.60972 0.98342 0.67491 0.0
C4441 C 0.63029 0.01108 0.68902 0.0
C4442 C 0.61839 0.00463 0.70208 0.0
C4443 C 0.60426 0.98951 0.69943 0.0
C4444 C 0.59241 0.98412 0.71145 0.0
C4445 C 0.57835 0.96906 0.70847 0.0
C4446 C 0.57602 0.95961 0.69403 0.0
C4447 C 0.58746 0.96498 0.68217 0.0
C4448 C 0.60138 0.97977 0.68471 0.0
H4449 H 0.5775 0.00812 0.72943 0.0
C4450 C 0.57342 0.99766 0.73701 0.0
H4451 H 0.57674 0.97849 0.74375 0.0
H4452 H 0.64451 0.03365 0.71148 0.0
H4453 H 0.64834 0.04967 0.73693 0.0
H4454 H 0.62777 0.04024 0.75775 0.0
H4455 H 0.6032 0.01476 0.7532 0.0
C4456 C 0.58116 0.98946 0.73696 0.0
C4457 C 0.59454 0.99404 0.72582 0.0
C4458 C 0.60891 0.00882 0.72878 0.0
C4459 C 0.62081 0.01417 0.71685 0.0
C4460 C 0.63502 0.02905 0.72008 0.0
C4461 C 0.6374 0.03834 0.73466 0.0
C4462 C 0.62581 0.03304 0.74638 0.0
C4463 C 0.61173 0.01844 0.74357 0.0
loop_
_geom_bond_atom_site_label_1
_geom_bond_atom_site_label_2
_geom_bond_distance
_geom_bond_site_symmetry_2
_ccdc_geom_bond_type
Mg0 O1 2.028 1_556 S
Mg0 O7 1.986 1_455 S
Mg0 O9 2.114 . S
Mg0 O10 2.251 . S
Mg0 O13 2.010 1_556 S
O1 Mg0 2.028 1_554 S
O1 C4 1.250 1_455 S
O2 Mg3 2.028 1_554 S
O2 C4 1.248 . S
Mg3 O2 2.028 1_556 S
Mg3 O8 2.032 . S
Mg3 O10 2.079 1_655 S
C4 O1 1.250 1_655 S
C4 O2 1.248 . S
C5 O6 1.264 . S
C5 O13 1.249 . S
O6 C5 1.264 . S
O7 Mg0 1.986 1_655 S
O7 C11 1.246 . S
O8 Mg3 2.032 . S
O8 C11 1.259 . S
O9 Mg0 2.114 . S
O9 C12 1.252 . S
O10 Mg0 2.251 . S
O10 Mg3 2.079 1_455 S
O10 C12 1.273 . S
C11 O7 1.246 . S
C11 O8 1.259 . S
C12 O9 1.252 . S
C12 O10 1.273 . S
O13 Mg0 2.010 1_554 S
O13 C5 1.249 . S
Mg14 O15 2.028 . S
Mg14 O21 1.986 . S
Mg14 O23 2.114 . S
Mg14 O24 2.251 . S
Mg14 O27 2.010 . S
O15 Mg14 2.028 . S
O15 C18 1.250 . S
O16 Mg17 2.028 . S
O16 C18 1.248 . S
Mg17 O16 2.028 . S
Mg17 O22 2.032 . S
Mg17 O24 2.079 . S
C18 O15 1.250 . S
C18 O16 1.248 . S
C19 O20 1.264 . S
C19 O27 1.249 . S
O20 C19 1.264 . S
O21 Mg14 1.986 . S
O21 C25 1.246 . S
O22 Mg17 2.032 . S
O22 C25 1.259 . S
O23 Mg14 2.114 . S
O23 C26 1.252 . S
O24 Mg14 2.251 . S
O24 Mg17 2.079 . S
O24 C26 1.273 . S
C25 O21 1.246 . S
C25 O22 1.259 . S
C26 O23 1.252 . S
C26 O24 1.273 . S
O27 Mg14 2.010 . S
O27 C19 1.249 . S
Mg28 O29 2.070 1_565 S
Mg28 O35 1.983 1_564 S
Mg28 O37 2.100 1_554 S
Mg28 O38 2.223 1_564 S
Mg28 O41 2.031 . S
O29 Mg28 2.070 1_545 S
O29 C32 1.250 . S
O30 Mg31 2.028 1_554 S
O30 C32 1.248 . S
Mg31 O30 2.028 1_556 S
Mg31 O36 2.032 . S
Mg31 O38 2.079 . S
C32 O29 1.250 . S
C32 O30 1.248 . S
C33 O34 1.264 . S
C33 O41 1.249 . S
O34 C33 1.264 . S
O35 Mg28 1.983 1_546 S
O35 C39 1.251 . S
O36 Mg31 2.032 . S
O36 C39 1.259 . S
O37 Mg28 2.100 1_556 S
O37 C40 1.252 . S
O38 Mg28 2.223 1_546 S
O38 Mg31 2.079 . S
O38 C40 1.273 1_545 S
C39 O35 1.251 . S
C39 O36 1.259 . S
C40 O37 1.252 . S
C40 O38 1.273 1_565 S
O41 Mg28 2.031 . S
O41 C33 1.249 . S
Mg42 O43 2.026 1_654 S
Mg42 O49 1.986 1_655 S
Mg42 O51 2.114 . S
Mg42 O52 2.251 1_655 S
Mg42 O55 2.010 . S
O43 Mg42 2.026 1_456 S
O43 C46 1.251 . S
O44 Mg45 2.028 . S
O44 C46 1.248 1_554 S
Mg45 O44 2.028 . S
Mg45 O50 2.032 . S
Mg45 O52 2.079 . S
C46 O43 1.251 . S
C46 O44 1.248 1_556 S
C47 O48 1.264 . S
C47 O55 1.249 . S
O48 C47 1.264 . S
O49 Mg42 1.986 1_455 S
O49 C53 1.246 . S
O50 Mg45 2.032 . S
O50 C53 1.259 . S
O51 Mg42 2.114 . S
O51 C54 1.252 . S
O52 Mg42 2.251 1_455 S
O52 Mg45 2.079 . S
O52 C54 1.273 1_455 S
C53 O49 1.246 . S
C53 O50 1.259 . S
C54 O51 1.252 . S
C54 O52 1.273 1_655 S
O55 Mg42 2.010 . S
O55 C47 1.249 . S
Mg56 O57 2.028 1_556 S
Mg56 O63 1.986 . S
Mg56 O65 2.114 . S
Mg56 O66 2.251 . S
Mg56 O69 2.010 1_556 S
O57 Mg56 2.028 1_554 S
O57 C60 1.250 . S
O58 Mg59 2.028 1_554 S
O58 C60 1.248 . S
Mg59 O58 2.028 1_556 S
Mg59 O64 2.032 . S
Mg59 O66 2.079 . S
C60 O57 1.250 . S
C60 O58 1.248 . S
C61 O62 1.264 . S
C61 O69 1.249 . S
O62 C61 1.264 . S
O63 Mg56 1.986 . S
O63 C67 1.246 . S
O64 Mg59 2.032 . S
O64 C67 1.259 . S
O65 Mg56 2.114 . S
O65 C68 1.252 . S
O66 Mg56 2.251 . S
O66 Mg59 2.079 . S
O66 C68 1.273 . S
C67 O63 1.246 . S
C67 O64 1.259 . S
C68 O65 1.252 . S
C68 O66 1.273 . S
O69 Mg56 2.010 1_554 S
O69 C61 1.249 . S
Mg70 O71 2.028 . S
Mg70 O77 1.986 1_545 S
Mg70 O79 2.114 . S
Mg70 O80 2.251 . S
Mg70 O83 2.010 . S
O71 Mg70 2.028 . S
O71 C74 1.250 1_544 S
O72 Mg73 2.028 . S
O72 C74 1.248 1_554 S
Mg73 O72 2.028 . S
Mg73 O78 2.032 . S
Mg73 O80 2.079 1_565 S
C74 O71 1.250 1_566 S
C74 O72 1.248 1_556 S
C75 O76 1.264 . S
C75 O83 1.249 . S
O76 C75 1.264 . S
O77 Mg70 1.986 1_565 S
O77 C81 1.246 . S
O78 Mg73 2.032 . S
O78 C81 1.259 . S
O79 Mg70 2.114 . S
O79 C82 1.252 . S
O80 Mg70 2.251 . S
O80 Mg73 2.079 1_545 S
O80 C82 1.273 . S
C81 O77 1.246 . S
C81 O78 1.259 . S
C82 O79 1.252 . S
C82 O80 1.273 . S
O83 Mg70 2.010 . S
O83 C75 1.249 . S
Mg84 O85 2.028 . S
Mg84 O91 1.986 . S
Mg84 O93 2.114 . S
Mg84 O94 2.251 . S
Mg84 O97 2.010 . S
O85 Mg84 2.028 . S
O85 C88 1.250 . S
O86 Mg87 2.028 . S
O86 C88 1.248 . S
Mg87 O86 2.028 . S
Mg87 O92 2.032 . S
Mg87 O94 2.079 . S
C88 O85 1.250 . S
C88 O86 1.248 . S
C89 O90 1.264 . S
C89 O97 1.249 . S
O90 C89 1.264 . S
O91 Mg84 1.986 . S
O91 C95 1.246 . S
O92 Mg87 2.032 . S
O92 C95 1.259 . S
O93 Mg84 2.114 . S
O93 C96 1.252 . S
O94 Mg84 2.251 . S
O94 Mg87 2.079 . S
O94 C96 1.273 . S
C95 O91 1.246 . S
C95 O92 1.259 . S
C96 O93 1.252 . S
C96 O94 1.273 . S
O97 Mg84 2.010 . S
O97 C89 1.249 . S
Mg98 O99 2.028 . S
Mg98 O105 1.986 1_565 S
Mg98 O107 2.114 . S
Mg98 O108 2.251 . S
Mg98 O111 2.010 . S
O99 Mg98 2.028 . S
O99 C102 1.250 . S
O100 Mg101 2.028 . S
O100 C102 1.248 . S
Mg101 O100 2.028 . S
Mg101 O106 2.032 1_565 S
Mg101 O108 2.079 . S
C102 O99 1.250 . S
C102 O100 1.248 . S
C103 O104 1.264 . S
C103 O111 1.249 . S
O104 C103 1.264 . S
O105 Mg98 1.986 1_545 S
O105 C109 1.246 . S
O106 Mg101 2.032 1_545 S
O106 C109 1.259 . S
O107 Mg98 2.114 . S
O107 C110 1.252 . S
O108 Mg98 2.251 . S
O108 Mg101 2.079 . S
O108 C110 1.273 . S
C109 O105 1.246 . S
C109 O106 1.259 . S
C110 O107 1.252 . S
C110 O108 1.273 . S
O111 Mg98 2.010 . S
O111 C103 1.249 . S
Mg112 O113 2.028 . S
Mg112 O119 1.986 . S
Mg112 O121 2.114 . S
Mg112 O122 2.251 . S
Mg112 O125 2.010 1_455 S
O113 Mg112 2.028 . S
O113 C116 1.250 . S
O114 Mg115 2.028 . S
O114 C116 1.248 . S
Mg115 O114 2.028 . S
Mg115 O120 2.032 . S
Mg115 O122 2.079 . S
C116 O113 1.250 . S
C116 O114 1.248 . S
C117 O118 1.264 . S
C117 O125 1.249 . S
O118 C117 1.264 . S
O119 Mg112 1.986 . S
O119 C123 1.246 . S
O120 Mg115 2.032 . S
O120 C123 1.259 . S
O121 Mg112 2.114 . S
O121 C124 1.252 . S
O122 Mg112 2.251 . S
O122 Mg115 2.079 . S
O122 C124 1.273 . S
C123 O119 1.246 . S
C123 O120 1.259 . S
C124 O121 1.252 . S
C124 O122 1.273 . S
O125 Mg112 2.010 1_655 S
O125 C117 1.249 . S
Mg126 O127 2.028 . S
Mg126 O133 1.986 1_565 S
Mg126 O135 2.114 . S
Mg126 O136 2.251 . S
Mg126 O139 2.010 . S
O127 Mg126 2.028 . S
O127 C130 1.250 . S
O128 Mg129 2.028 . S
O128 C130 1.248 . S
Mg129 O128 2.028 . S
Mg129 O134 2.032 1_565 S
Mg129 O136 2.079 . S
C130 O127 1.250 . S
C130 O128 1.248 . S
C131 O132 1.264 . S
C131 O139 1.249 . S
O132 C131 1.264 . S
O133 Mg126 1.986 1_545 S
O133 C137 1.246 . S
O134 Mg129 2.032 1_545 S
O134 C137 1.259 . S
O135 Mg126 2.114 . S
O135 C138 1.252 . S
O136 Mg126 2.251 . S
O136 Mg129 2.079 . S
O136 C138 1.273 . S
C137 O133 1.246 . S
C137 O134 1.259 . S
C138 O135 1.252 . S
C138 O136 1.273 . S
O139 Mg126 2.010 . S
O139 C131 1.249 . S
Mg140 O141 2.028 . S
Mg140 O147 1.986 . S
Mg140 O149 2.114 . S
Mg140 O150 2.251 . S
Mg140 O153 2.010 1_455 S
O141 Mg140 2.028 . S
O141 C144 1.250 . S
O142 Mg143 2.028 . S
O142 C144 1.248 . S
Mg143 O142 2.028 . S
Mg143 O148 2.032 . S
Mg143 O150 2.079 . S
C144 O141 1.250 . S
C144 O142 1.248 . S
C145 O146 1.264 . S
C145 O153 1.249 . S
O146 C145 1.264 . S
O147 Mg140 1.986 . S
O147 C151 1.246 . S
O148 Mg143 2.032 . S
O148 C151 1.259 . S
O149 Mg140 2.114 . S
O149 C152 1.252 . S
O150 Mg140 2.251 . S
O150 Mg143 2.079 . S
O150 C152 1.273 . S
C151 O147 1.246 . S
C151 O148 1.259 . S
C152 O149 1.252 . S
C152 O150 1.273 . S
O153 Mg140 2.010 1_655 S
O153 C145 1.249 . S
Mg154 O155 2.028 . S
Mg154 O161 1.986 . S
Mg154 O163 2.114 . S
Mg154 O164 2.251 . S
Mg154 O167 2.010 . S
O155 Mg154 2.028 . S
O155 C158 1.250 . S
O156 Mg157 2.028 . S
O156 C158 1.248 . S
Mg157 O156 2.028 . S
Mg157 O162 2.032 . S
Mg157 O164 2.079 . S
C158 O155 1.250 . S
C158 O156 1.248 . S
C159 O160 1.264 . S
C159 O167 1.249 . S
O160 C159 1.264 . S
O161 Mg154 1.986 . S
O161 C165 1.246 . S
O162 Mg157 2.032 . S
O162 C165 1.259 . S
O163 Mg154 2.114 . S
O163 C166 1.252 . S
O164 Mg154 2.251 . S
O164 Mg157 2.079 . S
O164 C166 1.273 . S
C165 O161 1.246 . S
C165 O162 1.259 . S
C166 O163 1.252 . S
C166 O164 1.273 . S
O167 Mg154 2.010 . S
O167 C159 1.249 . S
Mg168 O169 2.028 . S
Mg168 O175 1.986 1_545 S
Mg168 O177 2.114 . S
Mg168 O178 2.251 . S
Mg168 O181 2.010 . S
O169 Mg168 2.028 . S
O169 C172 1.250 . S
O170 Mg171 2.028 . S
O170 C172 1.248 . S
Mg171 O170 2.028 . S
Mg171 O176 2.026 1_545 S
Mg171 O178 2.079 . S
C172 O169 1.250 . S
C172 O170 1.248 . S
C173 O174 1.264 . S
C173 O181 1.249 . S
O174 C173 1.264 . S
O175 Mg168 1.986 1_565 S
O175 C179 1.246 . S
O176 Mg171 2.026 1_565 S
O176 C179 1.265 . S
O177 Mg168 2.114 . S
O177 C180 1.252 . S
O178 Mg168 2.251 . S
O178 Mg171 2.079 . S
O178 C180 1.273 . S
C179 O175 1.246 . S
C179 O176 1.265 . S
C180 O177 1.252 . S
C180 O178 1.273 . S
O181 Mg168 2.010 . S
O181 C173 1.249 . S
Mg182 O183 2.028 . S
Mg182 O189 1.986 . S
Mg182 O191 2.114 . S
Mg182 O192 2.251 . S
Mg182 O195 2.010 1_655 S
O183 Mg182 2.028 . S
O183 C186 1.250 . S
O184 Mg185 2.028 . S
O184 C186 1.248 . S
Mg185 O184 2.028 . S
Mg185 O190 2.032 . S
Mg185 O192 2.079 . S
C186 O183 1.250 . S
C186 O184 1.248 . S
C187 O188 1.264 . S
C187 O195 1.249 . S
O188 C187 1.264 . S
O189 Mg182 1.986 . S
O189 C193 1.246 . S
O190 Mg185 2.032 . S
O190 C193 1.259 . S
O191 Mg182 2.114 . S
O191 C194 1.252 . S
O192 Mg182 2.251 . S
O192 Mg185 2.079 . S
O192 C194 1.273 . S
C193 O189 1.246 . S
C193 O190 1.259 . S
C194 O191 1.252 . S
C194 O192 1.273 . S
O195 Mg182 2.010 1_455 S
O195 C187 1.249 . S
Mg196 O197 2.028 . S
Mg196 O203 1.986 . S
Mg196 O205 2.114 . S
Mg196 O206 2.251 . S
Mg196 O209 2.010 . S
O197 Mg196 2.028 . S
O197 C200 1.250 . S
O198 Mg199 2.028 . S
O198 C200 1.248 . S
Mg199 O198 2.028 . S
Mg199 O204 2.032 . S
Mg199 O206 2.079 . S
C200 O197 1.250 . S
C200 O198 1.248 . S
C201 O202 1.264 . S
C201 O209 1.249 . S
O202 C201 1.264 . S
O203 Mg196 1.986 . S
O203 C207 1.246 . S
O204 Mg199 2.032 . S
O204 C207 1.259 . S
O205 Mg196 2.114 . S
O205 C208 1.252 . S
O206 Mg196 2.251 . S
O206 Mg199 2.079 . S
O206 C208 1.273 . S
C207 O203 1.246 . S
C207 O204 1.259 . S
C208 O205 1.252 . S
C208 O206 1.273 . S
O209 Mg196 2.010 . S
O209 C201 1.249 . S
Mg210 O211 2.028 . S
Mg210 O217 1.986 . S
Mg210 O219 2.114 . S
Mg210 O220 2.251 . S
Mg210 O223 2.010 . S
O211 Mg210 2.028 . S
O211 C214 1.250 . S
O212 Mg213 2.028 . S
O212 C214 1.248 . S
Mg213 O212 2.028 . S
Mg213 O218 2.032 . S
Mg213 O220 2.079 . S
C214 O211 1.250 . S
C214 O212 1.248 . S
C215 O216 1.264 . S
C215 O223 1.249 . S
O216 C215 1.264 . S
O217 Mg210 1.986 . S
O217 C221 1.246 . S
O218 Mg213 2.032 . S
O218 C221 1.259 . S
O219 Mg210 2.114 . S
O219 C222 1.252 . S
O220 Mg210 2.251 . S
O220 Mg213 2.079 . S
O220 C222 1.273 . S
C221 O217 1.246 . S
C221 O218 1.259 . S
C222 O219 1.252 . S
C222 O220 1.273 . S
O223 Mg210 2.010 . S
O223 C215 1.249 . S
Mg224 O225 2.028 . S
Mg224 O231 1.986 1_545 S
Mg224 O233 2.114 . S
Mg224 O234 2.251 . S
Mg224 O237 2.010 . S
O225 Mg224 2.028 . S
O225 C228 1.250 . S
O226 Mg227 2.028 . S
O226 C228 1.248 . S
Mg227 O226 2.028 . S
Mg227 O232 2.032 1_545 S
Mg227 O234 2.079 . S
C228 O225 1.250 . S
C228 O226 1.248 . S
C229 O230 1.264 . S
C229 O237 1.249 . S
O230 C229 1.264 . S
O231 Mg224 1.986 1_565 S
O231 C235 1.246 . S
O232 Mg227 2.032 1_565 S
O232 C235 1.259 . S
O233 Mg224 2.114 . S
O233 C236 1.252 . S
O234 Mg224 2.251 . S
O234 Mg227 2.079 . S
O234 C236 1.273 . S
C235 O231 1.246 . S
C235 O232 1.259 . S
C236 O233 1.252 . S
C236 O234 1.273 . S
O237 Mg224 2.010 . S
O237 C229 1.249 . S
Mg238 O239 2.028 . S
Mg238 O245 1.986 . S
Mg238 O247 2.114 . S
Mg238 O248 2.251 . S
Mg238 O251 2.010 1_655 S
O239 Mg238 2.028 . S
O239 C242 1.250 . S
O240 Mg241 2.028 . S
O240 C242 1.248 . S
Mg241 O240 2.028 . S
Mg241 O246 2.032 . S
Mg241 O248 2.079 . S
C242 O239 1.250 . S
C242 O240 1.248 . S
C243 O244 1.264 . S
C243 O251 1.249 . S
O244 C243 1.264 . S
O245 Mg238 1.986 . S
O245 C249 1.246 . S
O246 Mg241 2.032 . S
O246 C249 1.259 . S
O247 Mg238 2.114 . S
O247 C250 1.252 . S
O248 Mg238 2.251 . S
O248 Mg241 2.079 . S
O248 C250 1.273 . S
C249 O245 1.246 . S
C249 O246 1.259 . S
C250 O247 1.252 . S
C250 O248 1.273 . S
O251 Mg238 2.010 1_455 S
O251 C243 1.249 . S
C252 C253 1.560 . S
C252 H313 0.959 . S
C252 H314 0.959 . S
C252 H315 0.960 . S
C253 C252 1.560 . S
C253 O308 1.426 . S
C253 H312 0.980 . S
C254 C255 1.407 . S
C254 C259 1.418 . S
C254 O308 1.334 . S
C255 C254 1.407 . S
C255 C256 1.360 . S
C255 H316 0.929 . S
C256 C255 1.360 . S
C256 C257 1.401 . S
C256 C260 1.527 . S
C257 C256 1.401 . S
C257 C258 1.405 . S
C257 C290 1.587 . S
C258 C257 1.405 . S
C258 C259 1.332 . S
C258 C261 1.496 . S
C259 C254 1.418 . S
C259 C258 1.332 . S
C259 H317 0.929 . S
C260 C256 1.527 . S
C260 H318 0.959 . S
C260 H319 0.961 . S
C260 H320 0.961 . S
C261 C258 1.496 . S
C261 H321 0.960 . S
C261 H322 0.960 . S
C261 H323 0.961 . S
C262 C263 1.517 . S
C262 H325 0.961 . S
C262 H326 0.960 . S
C262 H327 0.959 . S
C263 C262 1.517 . S
C263 O311 1.468 . S
C263 H324 0.980 . S
C264 C265 1.349 . S
C264 C269 1.367 . S
C264 O311 1.408 . S
C265 C264 1.349 . S
C265 C266 1.407 . S
C265 H328 0.930 . S
C266 C265 1.407 . S
C266 C267 1.449 . S
C266 C270 1.535 . S
C267 C266 1.449 . S
C267 C268 1.384 . S
C267 C292 1.553 . S
C268 C267 1.384 . S
C268 C269 1.364 . S
C268 C271 1.450 . S
C269 C264 1.367 . S
C269 C268 1.364 . S
C269 H329 0.931 . S
C270 C266 1.535 . S
C270 H330 0.959 . S
C270 H331 0.961 . S
C270 H332 0.959 . S
C271 C268 1.450 . S
C271 H333 0.960 . S
C271 H334 0.960 . S
C271 H335 0.960 . S
C272 C273 1.309 . S
C272 C277 1.304 . S
C272 O310 1.435 . S
C273 C272 1.309 . S
C273 C274 1.476 . S
C273 H337 0.930 . S
C274 C273 1.476 . S
C274 C275 1.400 . S
C274 C278 1.567 . S
C275 C274 1.400 . S
C275 C276 1.373 . S
C275 C297 1.432 . S
C276 C275 1.373 . S
C276 C277 1.339 . S
C276 C279 1.530 . S
C277 C272 1.304 . S
C277 C276 1.339 . S
C277 H338 0.930 . S
C278 C274 1.567 . S
C278 H339 0.961 . S
C278 H340 0.960 . S
C278 H341 0.958 . S
C279 C276 1.530 . S
C279 H342 0.961 . S
C279 H343 0.960 . S
C279 H344 0.960 . S
C280 C281 1.530 . S
C280 H346 0.961 . S
C280 H347 0.961 . S
C280 H348 0.959 . S
C281 C280 1.530 . S
C281 O309 1.412 . S
C281 H345 0.980 . S
C282 C283 1.288 . S
C282 C287 1.377 . S
C282 O309 1.393 . S
C283 C282 1.288 . S
C283 C284 1.369 . S
C283 H349 0.932 . S
C284 C283 1.369 . S
C284 C285 1.398 . S
C284 C288 1.527 . S
C285 C284 1.398 . S
C285 C286 1.380 . S
C285 C299 1.497 . S
C286 C285 1.380 . S
C286 C287 1.383 . S
C286 C289 1.603 . S
C287 C282 1.377 . S
C287 C286 1.383 . S
C287 H350 0.929 . S
C288 C284 1.527 . S
C288 H351 0.961 . S
C288 H352 0.959 . S
C288 H353 0.959 . S
C289 C286 1.603 . S
C289 H354 0.960 . S
C289 H355 0.962 . S
C289 H356 0.961 . S
C290 C257 1.587 . S
C290 C291 1.360 . S
C290 C303 1.412 . S
C291 C290 1.360 . S
C291 C292 1.365 . S
C291 H357 0.929 . S
C292 C267 1.553 . S
C292 C291 1.365 . S
C292 C293 1.404 . S
C293 C292 1.404 . S
C293 C294 1.395 . S
C293 C304 1.451 . S
C294 C293 1.395 . S
C294 C295 1.322 . S
C294 H358 0.930 . S
C295 C294 1.322 . S
C295 C296 1.459 . S
C295 H359 0.929 . S
C296 C295 1.459 . S
C296 C297 1.445 . S
C296 C305 1.395 . S
C297 C275 1.432 . S
C297 C296 1.445 . S
C297 C298 1.370 . S
C298 C297 1.370 . S
C298 C299 1.438 . S
C298 H360 0.930 . S
C299 C285 1.497 . S
C299 C298 1.438 . S
C299 C300 1.360 . S
C300 C299 1.360 . S
C300 C301 1.401 . S
C300 C305 1.446 . S
C301 C300 1.401 . S
C301 C302 1.347 . S
C301 H361 0.929 . S
C302 C301 1.347 . S
C302 C303 1.455 . S
C302 H362 0.930 . S
C303 C290 1.412 . S
C303 C302 1.455 . S
C303 C304 1.331 . S
C304 C293 1.451 . S
C304 C303 1.331 . S
C304 C305 1.497 . S
C305 C296 1.395 . S
C305 C300 1.446 . S
C305 C304 1.497 . S
C306 C307 1.582 . S
C306 H363 0.962 . S
C306 H364 0.959 . S
C306 H365 0.958 . S
C307 C306 1.582 . S
C307 O310 1.458 . S
C307 H336 0.980 . S
O308 C253 1.426 . S
O308 C254 1.334 . S
O309 C281 1.412 . S
O309 C282 1.393 . S
O310 C272 1.435 . S
O310 C307 1.458 . S
O311 C263 1.468 . S
O311 C264 1.408 . S
H312 C253 0.980 . S
H313 C252 0.959 . S
H314 C252 0.959 . S
H315 C252 0.960 . S
H316 C255 0.929 . S
H317 C259 0.929 . S
H318 C260 0.959 . S
H319 C260 0.961 . S
H320 C260 0.961 . S
H321 C261 0.960 . S
H322 C261 0.960 . S
H323 C261 0.961 . S
H324 C263 0.980 . S
H325 C262 0.961 . S
H326 C262 0.960 . S
H327 C262 0.959 . S
H328 C265 0.930 . S
H329 C269 0.931 . S
H330 C270 0.959 . S
H331 C270 0.961 . S
H332 C270 0.959 . S
H333 C271 0.960 . S
H334 C271 0.960 . S
H335 C271 0.960 . S
H336 C307 0.980 . S
H337 C273 0.930 . S
H338 C277 0.930 . S
H339 C278 0.961 . S
H340 C278 0.960 . S
H341 C278 0.958 . S
H342 C279 0.961 . S
H343 C279 0.960 . S
H344 C279 0.960 . S
H345 C281 0.980 . S
H346 C280 0.961 . S
H347 C280 0.961 . S
H348 C280 0.959 . S
H349 C283 0.932 . S
H350 C287 0.929 . S
H351 C288 0.961 . S
H352 C288 0.959 . S
H353 C288 0.959 . S
H354 C289 0.960 . S
H355 C289 0.962 . S
H356 C289 0.961 . S
H357 C291 0.929 . S
H358 C294 0.930 . S
H359 C295 0.929 . S
H360 C298 0.930 . S
H361 C301 0.929 . S
H362 C302 0.930 . S
H363 C306 0.962 . S
H364 C306 0.959 . S
H365 C306 0.958 . S
C366 C367 1.560 . S
C366 H427 0.959 . S
C366 H428 0.959 . S
C366 H429 0.960 . S
C367 C366 1.560 . S
C367 O422 1.426 . S
C367 H426 0.980 . S
C368 C369 1.407 . S
C368 C373 1.418 . S
C368 O422 1.334 . S
C369 C368 1.407 . S
C369 C370 1.360 . S
C369 H430 0.929 . S
C370 C369 1.360 . S
C370 C371 1.401 . S
C370 C374 1.527 . S
C371 C370 1.401 . S
C371 C372 1.405 . S
C371 C404 1.587 . S
C372 C371 1.405 . S
C372 C373 1.332 . S
C372 C375 1.496 . S
C373 C368 1.418 . S
C373 C372 1.332 . S
C373 H431 0.929 . S
C374 C370 1.527 . S
C374 H432 0.959 . S
C374 H433 0.961 . S
C374 H434 0.961 . S
C375 C372 1.496 . S
C375 H435 0.960 . S
C375 H436 0.960 . S
C375 H437 0.961 . S
C376 C377 1.517 . S
C376 H439 0.961 . S
C376 H440 0.960 . S
C376 H441 0.959 . S
C377 C376 1.517 . S
C377 O425 1.468 . S
C377 H438 0.980 . S
C378 C379 1.349 . S
C378 C383 1.367 . S
C378 O425 1.408 . S
C379 C378 1.349 . S
C379 C380 1.407 . S
C379 H442 0.930 . S
C380 C379 1.407 . S
C380 C381 1.449 . S
C380 C384 1.535 . S
C381 C380 1.449 . S
C381 C382 1.384 . S
C381 C406 1.553 . S
C382 C381 1.384 . S
C382 C383 1.364 . S
C382 C385 1.450 . S
C383 C378 1.367 . S
C383 C382 1.364 . S
C383 H443 0.931 . S
C384 C380 1.535 . S
C384 H444 0.959 . S
C384 H445 0.961 . S
C384 H446 0.959 . S
C385 C382 1.450 . S
C385 H447 0.960 . S
C385 H448 0.960 . S
C385 H449 0.960 . S
C386 C387 1.309 . S
C386 C391 1.304 . S
C386 O424 1.435 . S
C387 C386 1.309 . S
C387 C388 1.476 . S
C387 H451 0.930 . S
C388 C387 1.476 . S
C388 C389 1.400 . S
C388 C392 1.567 . S
C389 C388 1.400 . S
C389 C390 1.373 . S
C389 C411 1.432 . S
C390 C389 1.373 . S
C390 C391 1.339 . S
C390 C393 1.530 . S
C391 C386 1.304 . S
C391 C390 1.339 . S
C391 H452 0.930 . S
C392 C388 1.567 . S
C392 H453 0.961 . S
C392 H454 0.960 . S
C392 H455 0.958 . S
C393 C390 1.530 . S
C393 H456 0.961 . S
C393 H457 0.960 . S
C393 H458 0.960 . S
C394 C395 1.530 . S
C394 H460 0.961 . S
C394 H461 0.961 . S
C394 H462 0.959 . S
C395 C394 1.530 . S
C395 O423 1.412 . S
C395 H459 0.980 . S
C396 C397 1.288 . S
C396 C401 1.377 . S
C396 O423 1.393 . S
C397 C396 1.288 . S
C397 C398 1.369 . S
C397 H463 0.932 . S
C398 C397 1.369 . S
C398 C399 1.398 . S
C398 C402 1.527 . S
C399 C398 1.398 . S
C399 C400 1.380 . S
C399 C413 1.497 . S
C400 C399 1.380 . S
C400 C401 1.383 . S
C400 C403 1.603 . S
C401 C396 1.377 . S
C401 C400 1.383 . S
C401 H464 0.929 . S
C402 C398 1.527 . S
C402 H465 0.961 . S
C402 H466 0.959 . S
C402 H467 0.959 . S
C403 C400 1.603 . S
C403 H468 0.960 . S
C403 H469 0.962 . S
C403 H470 0.961 . S
C404 C371 1.587 . S
C404 C405 1.360 . S
C404 C417 1.412 . S
C405 C404 1.360 . S
C405 C406 1.365 . S
C405 H471 0.929 . S
C406 C381 1.553 . S
C406 C405 1.365 . S
C406 C407 1.404 . S
C407 C406 1.404 . S
C407 C408 1.395 . S
C407 C418 1.451 . S
C408 C407 1.395 . S
C408 C409 1.322 . S
C408 H472 0.930 . S
C409 C408 1.322 . S
C409 C410 1.459 . S
C409 H473 0.929 . S
C410 C409 1.459 . S
C410 C411 1.445 . S
C410 C419 1.395 . S
C411 C389 1.432 . S
C411 C410 1.445 . S
C411 C412 1.370 . S
C412 C411 1.370 . S
C412 C413 1.438 . S
C412 H474 0.930 . S
C413 C399 1.497 . S
C413 C412 1.438 . S
C413 C414 1.360 . S
C414 C413 1.360 . S
C414 C415 1.401 . S
C414 C419 1.446 . S
C415 C414 1.401 . S
C415 C416 1.347 . S
C415 H475 0.929 . S
C416 C415 1.347 . S
C416 C417 1.455 . S
C416 H476 0.930 . S
C417 C404 1.412 . S
C417 C416 1.455 . S
C417 C418 1.331 . S
C418 C407 1.451 . S
C418 C417 1.331 . S
C418 C419 1.497 . S
C419 C410 1.395 . S
C419 C414 1.446 . S
C419 C418 1.497 . S
C420 C421 1.582 . S
C420 H477 0.962 . S
C420 H478 0.959 . S
C420 H479 0.958 . S
C421 C420 1.582 . S
C421 O424 1.458 . S
C421 H450 0.980 . S
O422 C367 1.426 . S
O422 C368 1.334 . S
O423 C395 1.412 . S
O423 C396 1.393 . S
O424 C386 1.435 . S
O424 C421 1.458 . S
O425 C377 1.468 . S
O425 C378 1.408 . S
H426 C367 0.980 . S
H427 C366 0.959 . S
H428 C366 0.959 . S
H429 C366 0.960 . S
H430 C369 0.929 . S
H431 C373 0.929 . S
H432 C374 0.959 . S
H433 C374 0.961 . S
H434 C374 0.961 . S
H435 C375 0.960 . S
H436 C375 0.960 . S
H437 C375 0.961 . S
H438 C377 0.980 . S
H439 C376 0.961 . S
H440 C376 0.960 . S
H441 C376 0.959 . S
H442 C379 0.930 . S
H443 C383 0.931 . S
H444 C384 0.959 . S
H445 C384 0.961 . S
H446 C384 0.959 . S
H447 C385 0.960 . S
H448 C385 0.960 . S
H449 C385 0.960 . S
H450 C421 0.980 . S
H451 C387 0.930 . S
H452 C391 0.930 . S
H453 C392 0.961 . S
H454 C392 0.960 . S
H455 C392 0.958 . S
H456 C393 0.961 . S
H457 C393 0.960 . S
H458 C393 0.960 . S
H459 C395 0.980 . S
H460 C394 0.961 . S
H461 C394 0.961 . S
H462 C394 0.959 . S
H463 C397 0.932 . S
H464 C401 0.929 . S
H465 C402 0.961 . S
H466 C402 0.959 . S
H467 C402 0.959 . S
H468 C403 0.960 . S
H469 C403 0.962 . S
H470 C403 0.961 . S
H471 C405 0.929 . S
H472 C408 0.930 . S
H473 C409 0.929 . S
H474 C412 0.930 . S
H475 C415 0.929 . S
H476 C416 0.930 . S
H477 C420 0.962 . S
H478 C420 0.959 . S
H479 C420 0.958 . S
C480 C481 1.560 . S
C480 H541 0.959 . S
C480 H542 0.959 . S
C480 H543 0.960 . S
C481 C480 1.560 . S
C481 O536 1.426 . S
C481 H540 0.980 . S
C482 C483 1.407 . S
C482 C487 1.418 . S
C482 O536 1.334 . S
C483 C482 1.407 . S
C483 C484 1.360 . S
C483 H544 0.929 . S
C484 C483 1.360 . S
C484 C485 1.401 . S
C484 C488 1.527 . S
C485 C484 1.401 . S
C485 C486 1.405 . S
C485 C518 1.587 . S
C486 C485 1.405 . S
C486 C487 1.332 . S
C486 C489 1.496 . S
C487 C482 1.418 . S
C487 C486 1.332 . S
C487 H545 0.929 . S
C488 C484 1.527 . S
C488 H546 0.959 . S
C488 H547 0.961 . S
C488 H548 0.961 . S
C489 C486 1.496 . S
C489 H549 0.960 . S
C489 H550 0.960 . S
C489 H551 0.961 . S
C490 C491 1.517 . S
C490 H553 0.961 . S
C490 H554 0.960 . S
C490 H555 0.959 . S
C491 C490 1.517 . S
C491 O539 1.468 . S
C491 H552 0.980 . S
C492 C493 1.349 . S
C492 C497 1.367 . S
C492 O539 1.408 . S
C493 C492 1.349 . S
C493 C494 1.407 . S
C493 H556 0.930 . S
C494 C493 1.407 . S
C494 C495 1.449 . S
C494 C498 1.535 . S
C495 C494 1.449 . S
C495 C496 1.384 . S
C495 C520 1.553 . S
C496 C495 1.384 . S
C496 C497 1.364 . S
C496 C499 1.450 . S
C497 C492 1.367 . S
C497 C496 1.364 . S
C497 H557 0.931 . S
C498 C494 1.535 . S
C498 H558 0.959 . S
C498 H559 0.961 . S
C498 H560 0.959 . S
C499 C496 1.450 . S
C499 H561 0.960 . S
C499 H562 0.960 . S
C499 H563 0.960 . S
C500 C501 1.309 . S
C500 C505 1.304 . S
C500 O538 1.435 . S
C501 C500 1.309 . S
C501 C502 1.476 . S
C501 H565 0.930 . S
C502 C501 1.476 . S
C502 C503 1.400 . S
C502 C506 1.567 . S
C503 C502 1.400 . S
C503 C504 1.373 . S
C503 C525 1.432 . S
C504 C503 1.373 . S
C504 C505 1.339 . S
C504 C507 1.530 . S
C505 C500 1.304 . S
C505 C504 1.339 . S
C505 H566 0.930 . S
C506 C502 1.567 . S
C506 H567 0.961 . S
C506 H568 0.960 . S
C506 H569 0.958 . S
C507 C504 1.530 . S
C507 H570 0.961 . S
C507 H571 0.960 . S
C507 H572 0.960 . S
C508 C509 1.530 . S
C508 H574 0.961 . S
C508 H575 0.961 . S
C508 H576 0.959 . S
C509 C508 1.530 . S
C509 O537 1.412 . S
C509 H573 0.980 . S
C510 C511 1.288 . S
C510 C515 1.377 . S
C510 O537 1.393 . S
C511 C510 1.288 . S
C511 C512 1.369 . S
C511 H577 0.932 . S
C512 C511 1.369 . S
C512 C513 1.398 . S
C512 C516 1.527 . S
C513 C512 1.398 . S
C513 C514 1.380 . S
C513 C527 1.497 . S
C514 C513 1.380 . S
C514 C515 1.383 . S
C514 C517 1.603 . S
C515 C510 1.377 . S
C515 C514 1.383 . S
C515 H578 0.929 . S
C516 C512 1.527 . S
C516 H579 0.961 . S
C516 H580 0.959 . S
C516 H581 0.959 . S
C517 C514 1.603 . S
C517 H582 0.960 . S
C517 H583 0.962 . S
C517 H584 0.961 . S
C518 C485 1.587 . S
C518 C519 1.360 . S
C518 C531 1.412 . S
C519 C518 1.360 . S
C519 C520 1.365 . S
C519 H585 0.929 . S
C520 C495 1.553 . S
C520 C519 1.365 . S
C520 C521 1.404 . S
C521 C520 1.404 . S
C521 C522 1.395 . S
C521 C532 1.451 . S
C522 C521 1.395 . S
C522 C523 1.322 . S
C522 H586 0.930 . S
C523 C522 1.322 . S
C523 C524 1.459 . S
C523 H587 0.929 . S
C524 C523 1.459 . S
C524 C525 1.445 . S
C524 C533 1.395 . S
C525 C503 1.432 . S
C525 C524 1.445 . S
C525 C526 1.370 . S
C526 C525 1.370 . S
C526 C527 1.438 . S
C526 H588 0.930 . S
C527 C513 1.497 . S
C527 C526 1.438 . S
C527 C528 1.360 . S
C528 C527 1.360 . S
C528 C529 1.401 . S
C528 C533 1.446 . S
C529 C528 1.401 . S
C529 C530 1.347 . S
C529 H589 0.929 . S
C530 C529 1.347 . S
C530 C531 1.455 . S
C530 H590 0.930 . S
C531 C518 1.412 . S
C531 C530 1.455 . S
C531 C532 1.331 . S
C532 C521 1.451 . S
C532 C531 1.331 . S
C532 C533 1.497 . S
C533 C524 1.395 . S
C533 C528 1.446 . S
C533 C532 1.497 . S
C534 C535 1.582 . S
C534 H591 0.962 . S
C534 H592 0.959 . S
C534 H593 0.958 . S
C535 C534 1.582 . S
C535 O538 1.458 . S
C535 H564 0.980 . S
O536 C481 1.426 . S
O536 C482 1.334 . S
O537 C509 1.412 . S
O537 C510 1.393 . S
O538 C500 1.435 . S
O538 C535 1.458 . S
O539 C491 1.468 . S
O539 C492 1.408 . S
H540 C481 0.980 . S
H541 C480 0.959 . S
H542 C480 0.959 . S
H543 C480 0.960 . S
H544 C483 0.929 . S
H545 C487 0.929 . S
H546 C488 0.959 . S
H547 C488 0.961 . S
H548 C488 0.961 . S
H549 C489 0.960 . S
H550 C489 0.960 . S
H551 C489 0.961 . S
H552 C491 0.980 . S
H553 C490 0.961 . S
H554 C490 0.960 . S
H555 C490 0.959 . S
H556 C493 0.930 . S
H557 C497 0.931 . S
H558 C498 0.959 . S
H559 C498 0.961 . S
H560 C498 0.959 . S
H561 C499 0.960 . S
H562 C499 0.960 . S
H563 C499 0.960 . S
H564 C535 0.980 . S
H565 C501 0.930 . S
H566 C505 0.930 . S
H567 C506 0.961 . S
H568 C506 0.960 . S
H569 C506 0.958 . S
H570 C507 0.961 . S
H571 C507 0.960 . S
H572 C507 0.960 . S
H573 C509 0.980 . S
H574 C508 0.961 . S
H575 C508 0.961 . S
H576 C508 0.959 . S
H577 C511 0.932 . S
H578 C515 0.929 . S
H579 C516 0.961 . S
H580 C516 0.959 . S
H581 C516 0.959 . S
H582 C517 0.960 . S
H583 C517 0.962 . S
H584 C517 0.961 . S
H585 C519 0.929 . S
H586 C522 0.930 . S
H587 C523 0.929 . S
H588 C526 0.930 . S
H589 C529 0.929 . S
H590 C530 0.930 . S
H591 C534 0.962 . S
H592 C534 0.959 . S
H593 C534 0.958 . S
C594 C595 1.560 . S
C594 H655 0.959 . S
C594 H656 0.959 . S
C594 H657 0.960 . S
C595 C594 1.560 . S
C595 O650 1.426 . S
C595 H654 0.980 . S
C596 C597 1.407 . S
C596 C601 1.418 . S
C596 O650 1.334 . S
C597 C596 1.407 . S
C597 C598 1.360 . S
C597 H658 0.929 . S
C598 C597 1.360 . S
C598 C599 1.401 . S
C598 C602 1.527 . S
C599 C598 1.401 . S
C599 C600 1.405 . S
C599 C632 1.587 . S
C600 C599 1.405 . S
C600 C601 1.332 . S
C600 C603 1.496 . S
C601 C596 1.418 . S
C601 C600 1.332 . S
C601 H659 0.929 . S
C602 C598 1.527 . S
C602 H660 0.959 . S
C602 H661 0.961 . S
C602 H662 0.961 . S
C603 C600 1.496 . S
C603 H663 0.960 . S
C603 H664 0.960 . S
C603 H665 0.961 . S
C604 C605 1.517 . S
C604 H667 0.961 . S
C604 H668 0.960 . S
C604 H669 0.959 . S
C605 C604 1.517 . S
C605 O653 1.468 . S
C605 H666 0.980 . S
C606 C607 1.349 . S
C606 C611 1.367 . S
C606 O653 1.408 . S
C607 C606 1.349 . S
C607 C608 1.407 . S
C607 H670 0.930 . S
C608 C607 1.407 . S
C608 C609 1.449 . S
C608 C612 1.535 . S
C609 C608 1.449 . S
C609 C610 1.384 . S
C609 C634 1.553 . S
C610 C609 1.384 . S
C610 C611 1.364 . S
C610 C613 1.450 . S
C611 C606 1.367 . S
C611 C610 1.364 . S
C611 H671 0.931 . S
C612 C608 1.535 . S
C612 H672 0.959 . S
C612 H673 0.961 . S
C612 H674 0.959 . S
C613 C610 1.450 . S
C613 H675 0.960 . S
C613 H676 0.960 . S
C613 H677 0.960 . S
C614 C615 1.309 . S
C614 C619 1.304 . S
C614 O652 1.435 . S
C615 C614 1.309 . S
C615 C616 1.476 . S
C615 H679 0.930 . S
C616 C615 1.476 . S
C616 C617 1.400 . S
C616 C620 1.567 . S
C617 C616 1.400 . S
C617 C618 1.373 . S
C617 C639 1.432 . S
C618 C617 1.373 . S
C618 C619 1.339 . S
C618 C621 1.530 . S
C619 C614 1.304 . S
C619 C618 1.339 . S
C619 H680 0.930 . S
C620 C616 1.567 . S
C620 H681 0.961 . S
C620 H682 0.960 . S
C620 H683 0.958 . S
C621 C618 1.530 . S
C621 H684 0.961 . S
C621 H685 0.960 . S
C621 H686 0.960 . S
C622 C623 1.530 . S
C622 H688 0.961 . S
C622 H689 0.961 . S
C622 H690 0.959 . S
C623 C622 1.530 . S
C623 O651 1.412 . S
C623 H687 0.980 . S
C624 C625 1.288 . S
C624 C629 1.377 . S
C624 O651 1.393 . S
C625 C624 1.288 . S
C625 C626 1.369 . S
C625 H691 0.932 . S
C626 C625 1.369 . S
C626 C627 1.398 . S
C626 C630 1.527 . S
C627 C626 1.398 . S
C627 C628 1.380 . S
C627 C641 1.497 . S
C628 C627 1.380 . S
C628 C629 1.383 . S
C628 C631 1.603 . S
C629 C624 1.377 . S
C629 C628 1.383 . S
C629 H692 0.929 . S
C630 C626 1.527 . S
C630 H693 0.961 . S
C630 H694 0.959 . S
C630 H695 0.959 . S
C631 C628 1.603 . S
C631 H696 0.960 . S
C631 H697 0.962 . S
C631 H698 0.961 . S
C632 C599 1.587 . S
C632 C633 1.360 . S
C632 C645 1.412 . S
C633 C632 1.360 . S
C633 C634 1.365 . S
C633 H699 0.929 . S
C634 C609 1.553 . S
C634 C633 1.365 . S
C634 C635 1.404 . S
C635 C634 1.404 . S
C635 C636 1.395 . S
C635 C646 1.451 . S
C636 C635 1.395 . S
C636 C637 1.322 . S
C636 H700 0.930 . S
C637 C636 1.322 . S
C637 C638 1.459 . S
C637 H701 0.929 . S
C638 C637 1.459 . S
C638 C639 1.445 . S
C638 C647 1.395 . S
C639 C617 1.432 . S
C639 C638 1.445 . S
C639 C640 1.370 . S
C640 C639 1.370 . S
C640 C641 1.438 . S
C640 H702 0.930 . S
C641 C627 1.497 . S
C641 C640 1.438 . S
C641 C642 1.360 . S
C642 C641 1.360 . S
C642 C643 1.401 . S
C642 C647 1.446 . S
C643 C642 1.401 . S
C643 C644 1.347 . S
C643 H703 0.929 . S
C644 C643 1.347 . S
C644 C645 1.455 . S
C644 H704 0.930 . S
C645 C632 1.412 . S
C645 C644 1.455 . S
C645 C646 1.331 . S
C646 C635 1.451 . S
C646 C645 1.331 . S
C646 C647 1.497 . S
C647 C638 1.395 . S
C647 C642 1.446 . S
C647 C646 1.497 . S
C648 C649 1.582 . S
C648 H705 0.962 . S
C648 H706 0.959 . S
C648 H707 0.958 . S
C649 C648 1.582 . S
C649 O652 1.458 . S
C649 H678 0.980 . S
O650 C595 1.426 . S
O650 C596 1.334 . S
O651 C623 1.412 . S
O651 C624 1.393 . S
O652 C614 1.435 . S
O652 C649 1.458 . S
O653 C605 1.468 . S
O653 C606 1.408 . S
H654 C595 0.980 . S
H655 C594 0.959 . S
H656 C594 0.959 . S
H657 C594 0.960 . S
H658 C597 0.929 . S
H659 C601 0.929 . S
H660 C602 0.959 . S
H661 C602 0.961 . S
H662 C602 0.961 . S
H663 C603 0.960 . S
H664 C603 0.960 . S
H665 C603 0.961 . S
H666 C605 0.980 . S
H667 C604 0.961 . S
H668 C604 0.960 . S
H669 C604 0.959 . S
H670 C607 0.930 . S
H671 C611 0.931 . S
H672 C612 0.959 . S
H673 C612 0.961 . S
H674 C612 0.959 . S
H675 C613 0.960 . S
H676 C613 0.960 . S
H677 C613 0.960 . S
H678 C649 0.980 . S
H679 C615 0.930 . S
H680 C619 0.930 . S
H681 C620 0.961 . S
H682 C620 0.960 . S
H683 C620 0.958 . S
H684 C621 0.961 . S
H685 C621 0.960 . S
H686 C621 0.960 . S
H687 C623 0.980 . S
H688 C622 0.961 . S
H689 C622 0.961 . S
H690 C622 0.959 . S
H691 C625 0.932 . S
H692 C629 0.929 . S
H693 C630 0.961 . S
H694 C630 0.959 . S
H695 C630 0.959 . S
H696 C631 0.960 . S
H697 C631 0.962 . S
H698 C631 0.961 . S
H699 C633 0.929 . S
H700 C636 0.930 . S
H701 C637 0.929 . S
H702 C640 0.930 . S
H703 C643 0.929 . S
H704 C644 0.930 . S
H705 C648 0.962 . S
H706 C648 0.959 . S
H707 C648 0.958 . S
C708 C709 1.560 . S
C708 H769 0.959 . S
C708 H770 0.959 . S
C708 H771 0.960 . S
C709 C708 1.560 . S
C709 O764 1.426 . S
C709 H768 0.980 . S
C710 C711 1.407 . S
C710 C715 1.418 . S
C710 O764 1.334 . S
C711 C710 1.407 . S
C711 C712 1.360 . S
C711 H772 0.929 . S
C712 C711 1.360 . S
C712 C713 1.401 . S
C712 C716 1.527 . S
C713 C712 1.401 . S
C713 C714 1.405 . S
C713 C746 1.587 . S
C714 C713 1.405 . S
C714 C715 1.332 . S
C714 C717 1.496 . S
C715 C710 1.418 . S
C715 C714 1.332 . S
C715 H773 0.929 . S
C716 C712 1.527 . S
C716 H774 0.959 . S
C716 H775 0.961 . S
C716 H776 0.961 . S
C717 C714 1.496 . S
C717 H777 0.960 . S
C717 H778 0.960 . S
C717 H779 0.961 . S
C718 C719 1.517 . S
C718 H781 0.961 . S
C718 H782 0.960 . S
C718 H783 0.959 . S
C719 C718 1.517 . S
C719 O767 1.468 . S
C719 H780 0.980 . S
C720 C721 1.349 . S
C720 C725 1.367 . S
C720 O767 1.408 . S
C721 C720 1.349 . S
C721 C722 1.407 . S
C721 H784 0.930 . S
C722 C721 1.407 . S
C722 C723 1.449 . S
C722 C726 1.535 . S
C723 C722 1.449 . S
C723 C724 1.384 . S
C723 C748 1.553 . S
C724 C723 1.384 . S
C724 C725 1.364 . S
C724 C727 1.450 . S
C725 C720 1.367 . S
C725 C724 1.364 . S
C725 H785 0.931 . S
C726 C722 1.535 . S
C726 H786 0.959 . S
C726 H787 0.961 . S
C726 H788 0.959 . S
C727 C724 1.450 . S
C727 H789 0.960 . S
C727 H790 0.960 . S
C727 H791 0.960 . S
C728 C729 1.309 . S
C728 C733 1.304 . S
C728 O766 1.435 . S
C729 C728 1.309 . S
C729 C730 1.476 . S
C729 H793 0.930 . S
C730 C729 1.476 . S
C730 C731 1.400 . S
C730 C734 1.567 . S
C731 C730 1.400 . S
C731 C732 1.373 . S
C731 C753 1.432 . S
C732 C731 1.373 . S
C732 C733 1.339 . S
C732 C735 1.530 . S
C733 C728 1.304 . S
C733 C732 1.339 . S
C733 H794 0.930 . S
C734 C730 1.567 . S
C734 H795 0.961 . S
C734 H796 0.960 . S
C734 H797 0.958 . S
C735 C732 1.530 . S
C735 H798 0.961 . S
C735 H799 0.960 . S
C735 H800 0.960 . S
C736 C737 1.530 . S
C736 H802 0.961 . S
C736 H803 0.961 . S
C736 H804 0.959 . S
C737 C736 1.530 . S
C737 O765 1.412 . S
C737 H801 0.980 . S
C738 C739 1.288 . S
C738 C743 1.377 . S
C738 O765 1.393 . S
C739 C738 1.288 . S
C739 C740 1.369 . S
C739 H805 0.932 . S
C740 C739 1.369 . S
C740 C741 1.398 . S
C740 C744 1.527 . S
C741 C740 1.398 . S
C741 C742 1.380 . S
C741 C755 1.497 . S
C742 C741 1.380 . S
C742 C743 1.383 . S
C742 C745 1.603 . S
C743 C738 1.377 . S
C743 C742 1.383 . S
C743 H806 0.929 . S
C744 C740 1.527 . S
C744 H807 0.961 . S
C744 H808 0.959 . S
C744 H809 0.959 . S
C745 C742 1.603 . S
C745 H810 0.960 . S
C745 H811 0.962 . S
C745 H812 0.961 . S
C746 C713 1.587 . S
C746 C747 1.360 . S
C746 C759 1.412 . S
C747 C746 1.360 . S
C747 C748 1.365 . S
C747 H813 0.929 . S
C748 C723 1.553 . S
C748 C747 1.365 . S
C748 C749 1.404 . S
C749 C748 1.404 . S
C749 C750 1.395 . S
C749 C760 1.451 . S
C750 C749 1.395 . S
C750 C751 1.322 . S
C750 H814 0.930 . S
C751 C750 1.322 . S
C751 C752 1.459 . S
C751 H815 0.929 . S
C752 C751 1.459 . S
C752 C753 1.445 . S
C752 C761 1.395 . S
C753 C731 1.432 . S
C753 C752 1.445 . S
C753 C754 1.370 . S
C754 C753 1.370 . S
C754 C755 1.438 . S
C754 H816 0.930 . S
C755 C741 1.497 . S
C755 C754 1.438 . S
C755 C756 1.360 . S
C756 C755 1.360 . S
C756 C757 1.401 . S
C756 C761 1.446 . S
C757 C756 1.401 . S
C757 C758 1.347 . S
C757 H817 0.929 . S
C758 C757 1.347 . S
C758 C759 1.455 . S
C758 H818 0.930 . S
C759 C746 1.412 . S
C759 C758 1.455 . S
C759 C760 1.331 . S
C760 C749 1.451 . S
C760 C759 1.331 . S
C760 C761 1.497 . S
C761 C752 1.395 . S
C761 C756 1.446 . S
C761 C760 1.497 . S
C762 C763 1.582 . S
C762 H819 0.962 . S
C762 H820 0.959 . S
C762 H821 0.958 . S
C763 C762 1.582 . S
C763 O766 1.458 . S
C763 H792 0.980 . S
O764 C709 1.426 . S
O764 C710 1.334 . S
O765 C737 1.412 . S
O765 C738 1.393 . S
O766 C728 1.435 . S
O766 C763 1.458 . S
O767 C719 1.468 . S
O767 C720 1.408 . S
H768 C709 0.980 . S
H769 C708 0.959 . S
H770 C708 0.959 . S
H771 C708 0.960 . S
H772 C711 0.929 . S
H773 C715 0.929 . S
H774 C716 0.959 . S
H775 C716 0.961 . S
H776 C716 0.961 . S
H777 C717 0.960 . S
H778 C717 0.960 . S
H779 C717 0.961 . S
H780 C719 0.980 . S
H781 C718 0.961 . S
H782 C718 0.960 . S
H783 C718 0.959 . S
H784 C721 0.930 . S
H785 C725 0.931 . S
H786 C726 0.959 . S
H787 C726 0.961 . S
H788 C726 0.959 . S
H789 C727 0.960 . S
H790 C727 0.960 . S
H791 C727 0.960 . S
H792 C763 0.980 . S
H793 C729 0.930 . S
H794 C733 0.930 . S
H795 C734 0.961 . S
H796 C734 0.960 . S
H797 C734 0.958 . S
H798 C735 0.961 . S
H799 C735 0.960 . S
H800 C735 0.960 . S
H801 C737 0.980 . S
H802 C736 0.961 . S
H803 C736 0.961 . S
H804 C736 0.959 . S
H805 C739 0.932 . S
H806 C743 0.929 . S
H807 C744 0.961 . S
H808 C744 0.959 . S
H809 C744 0.959 . S
H810 C745 0.960 . S
H811 C745 0.962 . S
H812 C745 0.961 . S
H813 C747 0.929 . S
H814 C750 0.930 . S
H815 C751 0.929 . S
H816 C754 0.930 . S
H817 C757 0.929 . S
H818 C758 0.930 . S
H819 C762 0.962 . S
H820 C762 0.959 . S
H821 C762 0.958 . S
C822 C823 1.560 . S
C822 H883 0.959 . S
C822 H884 0.959 . S
C822 H885 0.960 . S
C823 C822 1.560 . S
C823 O878 1.426 . S
C823 H882 0.980 . S
C824 C825 1.407 . S
C824 C829 1.418 . S
C824 O878 1.334 . S
C825 C824 1.407 . S
C825 C826 1.360 . S
C825 H886 0.929 . S
C826 C825 1.360 . S
C826 C827 1.401 . S
C826 C830 1.527 . S
C827 C826 1.401 . S
C827 C828 1.405 . S
C827 C860 1.587 . S
C828 C827 1.405 . S
C828 C829 1.332 . S
C828 C831 1.496 . S
C829 C824 1.418 . S
C829 C828 1.332 . S
C829 H887 0.929 . S
C830 C826 1.527 . S
C830 H888 0.959 . S
C830 H889 0.961 . S
C830 H890 0.961 . S
C831 C828 1.496 . S
C831 H891 0.960 . S
C831 H892 0.960 . S
C831 H893 0.961 . S
C832 C833 1.517 . S
C832 H895 0.961 . S
C832 H896 0.960 . S
C832 H897 0.959 . S
C833 C832 1.517 . S
C833 O881 1.468 . S
C833 H894 0.980 . S
C834 C835 1.349 . S
C834 C839 1.367 . S
C834 O881 1.408 . S
C835 C834 1.349 . S
C835 C836 1.407 . S
C835 H898 0.930 . S
C836 C835 1.407 . S
C836 C837 1.449 . S
C836 C840 1.535 . S
C837 C836 1.449 . S
C837 C838 1.384 . S
C837 C862 1.553 . S
C838 C837 1.384 . S
C838 C839 1.364 . S
C838 C841 1.450 . S
C839 C834 1.367 . S
C839 C838 1.364 . S
C839 H899 0.931 . S
C840 C836 1.535 . S
C840 H900 0.959 . S
C840 H901 0.961 . S
C840 H902 0.959 . S
C841 C838 1.450 . S
C841 H903 0.960 . S
C841 H904 0.960 . S
C841 H905 0.960 . S
C842 C843 1.309 . S
C842 C847 1.304 . S
C842 O880 1.435 . S
C843 C842 1.309 . S
C843 C844 1.476 . S
C843 H907 0.930 . S
C844 C843 1.476 . S
C844 C845 1.400 . S
C844 C848 1.567 . S
C845 C844 1.400 . S
C845 C846 1.373 . S
C845 C867 1.432 . S
C846 C845 1.373 . S
C846 C847 1.339 . S
C846 C849 1.530 . S
C847 C842 1.304 . S
C847 C846 1.339 . S
C847 H908 0.930 . S
C848 C844 1.567 . S
C848 H909 0.961 . S
C848 H910 0.960 . S
C848 H911 0.958 . S
C849 C846 1.530 . S
C849 H912 0.961 . S
C849 H913 0.960 . S
C849 H914 0.960 . S
C850 C851 1.530 . S
C850 H916 0.961 . S
C850 H917 0.961 . S
C850 H918 0.959 . S
C851 C850 1.530 . S
C851 O879 1.412 . S
C851 H915 0.980 . S
C852 C853 1.288 . S
C852 C857 1.377 . S
C852 O879 1.393 . S
C853 C852 1.288 . S
C853 C854 1.369 . S
C853 H919 0.932 . S
C854 C853 1.369 . S
C854 C855 1.398 . S
C854 C858 1.527 . S
C855 C854 1.398 . S
C855 C856 1.380 . S
C855 C869 1.497 . S
C856 C855 1.380 . S
C856 C857 1.383 . S
C856 C859 1.603 . S
C857 C852 1.377 . S
C857 C856 1.383 . S
C857 H920 0.929 . S
C858 C854 1.527 . S
C858 H921 0.961 . S
C858 H922 0.959 . S
C858 H923 0.959 . S
C859 C856 1.603 . S
C859 H924 0.960 . S
C859 H925 0.962 . S
C859 H926 0.961 . S
C860 C827 1.587 . S
C860 C861 1.360 . S
C860 C873 1.412 . S
C861 C860 1.360 . S
C861 C862 1.365 . S
C861 H927 0.929 . S
C862 C837 1.553 . S
C862 C861 1.365 . S
C862 C863 1.404 . S
C863 C862 1.404 . S
C863 C864 1.395 . S
C863 C874 1.451 . S
C864 C863 1.395 . S
C864 C865 1.322 . S
C864 H928 0.930 . S
C865 C864 1.322 . S
C865 C866 1.459 . S
C865 H929 0.929 . S
C866 C865 1.459 . S
C866 C867 1.445 . S
C866 C875 1.395 . S
C867 C845 1.432 . S
C867 C866 1.445 . S
C867 C868 1.370 . S
C868 C867 1.370 . S
C868 C869 1.438 . S
C868 H930 0.930 . S
C869 C855 1.497 . S
C869 C868 1.438 . S
C869 C870 1.360 . S
C870 C869 1.360 . S
C870 C871 1.401 . S
C870 C875 1.446 . S
C871 C870 1.401 . S
C871 C872 1.347 . S
C871 H931 0.929 . S
C872 C871 1.347 . S
C872 C873 1.455 . S
C872 H932 0.930 . S
C873 C860 1.412 . S
C873 C872 1.455 . S
C873 C874 1.331 . S
C874 C863 1.451 . S
C874 C873 1.331 . S
C874 C875 1.497 . S
C875 C866 1.395 . S
C875 C870 1.446 . S
C875 C874 1.497 . S
C876 C877 1.582 . S
C876 H933 0.962 . S
C876 H934 0.959 . S
C876 H935 0.958 . S
C877 C876 1.582 . S
C877 O880 1.458 . S
C877 H906 0.980 . S
O878 C823 1.426 . S
O878 C824 1.334 . S
O879 C851 1.412 . S
O879 C852 1.393 . S
O880 C842 1.435 . S
O880 C877 1.458 . S
O881 C833 1.468 . S
O881 C834 1.408 . S
H882 C823 0.980 . S
H883 C822 0.959 . S
H884 C822 0.959 . S
H885 C822 0.960 . S
H886 C825 0.929 . S
H887 C829 0.929 . S
H888 C830 0.959 . S
H889 C830 0.961 . S
H890 C830 0.961 . S
H891 C831 0.960 . S
H892 C831 0.960 . S
H893 C831 0.961 . S
H894 C833 0.980 . S
H895 C832 0.961 . S
H896 C832 0.960 . S
H897 C832 0.959 . S
H898 C835 0.930 . S
H899 C839 0.931 . S
H900 C840 0.959 . S
H901 C840 0.961 . S
H902 C840 0.959 . S
H903 C841 0.960 . S
H904 C841 0.960 . S
H905 C841 0.960 . S
H906 C877 0.980 . S
H907 C843 0.930 . S
H908 C847 0.930 . S
H909 C848 0.961 . S
H910 C848 0.960 . S
H911 C848 0.958 . S
H912 C849 0.961 . S
H913 C849 0.960 . S
H914 C849 0.960 . S
H915 C851 0.980 . S
H916 C850 0.961 . S
H917 C850 0.961 . S
H918 C850 0.959 . S
H919 C853 0.932 . S
H920 C857 0.929 . S
H921 C858 0.961 . S
H922 C858 0.959 . S
H923 C858 0.959 . S
H924 C859 0.960 . S
H925 C859 0.962 . S
H926 C859 0.961 . S
H927 C861 0.929 . S
H928 C864 0.930 . S
H929 C865 0.929 . S
H930 C868 0.930 . S
H931 C871 0.929 . S
H932 C872 0.930 . S
H933 C876 0.962 . S
H934 C876 0.959 . S
H935 C876 0.958 . S
C936 C937 1.560 . S
C936 H997 0.959 . S
C936 H998 0.959 . S
C936 H999 0.960 . S
C937 C936 1.560 . S
C937 O992 1.426 . S
C937 H996 0.980 . S
C938 C939 1.407 . S
C938 C943 1.418 . S
C938 O992 1.334 . S
C939 C938 1.407 . S
C939 C940 1.360 . S
C939 H1000 0.929 . S
C940 C939 1.360 . S
C940 C941 1.401 . S
C940 C944 1.527 . S
C941 C940 1.401 . S
C941 C942 1.405 . S
C941 C974 1.587 . S
C942 C941 1.405 . S
C942 C943 1.332 . S
C942 C945 1.496 . S
C943 C938 1.418 . S
C943 C942 1.332 . S
C943 H1001 0.929 . S
C944 C940 1.527 . S
C944 H1002 0.959 . S
C944 H1003 0.961 . S
C944 H1004 0.961 . S
C945 C942 1.496 . S
C945 H1005 0.960 . S
C945 H1006 0.960 . S
C945 H1007 0.961 . S
C946 C947 1.517 . S
C946 H1009 0.961 . S
C946 H1010 0.960 . S
C946 H1011 0.959 . S
C947 C946 1.517 . S
C947 O995 1.468 . S
C947 H1008 0.980 . S
C948 C949 1.349 . S
C948 C953 1.367 . S
C948 O995 1.408 . S
C949 C948 1.349 . S
C949 C950 1.407 . S
C949 H1012 0.930 . S
C950 C949 1.407 . S
C950 C951 1.449 . S
C950 C954 1.535 . S
C951 C950 1.449 . S
C951 C952 1.384 . S
C951 C976 1.553 . S
C952 C951 1.384 . S
C952 C953 1.364 . S
C952 C955 1.450 . S
C953 C948 1.367 . S
C953 C952 1.364 . S
C953 H1013 0.931 . S
C954 C950 1.535 . S
C954 H1014 0.959 . S
C954 H1015 0.961 . S
C954 H1016 0.959 . S
C955 C952 1.450 . S
C955 H1017 0.960 . S
C955 H1018 0.960 . S
C955 H1019 0.960 . S
C956 C957 1.309 . S
C956 C961 1.304 . S
C956 O994 1.435 . S
C957 C956 1.309 . S
C957 C958 1.476 . S
C957 H1021 0.930 . S
C958 C957 1.476 . S
C958 C959 1.400 . S
C958 C962 1.567 . S
C959 C958 1.400 . S
C959 C960 1.373 . S
C959 C981 1.432 . S
C960 C959 1.373 . S
C960 C961 1.339 . S
C960 C963 1.530 . S
C961 C956 1.304 . S
C961 C960 1.339 . S
C961 H1022 0.930 . S
C962 C958 1.567 . S
C962 H1023 0.961 . S
C962 H1024 0.960 . S
C962 H1025 0.958 . S
C963 C960 1.530 . S
C963 H1026 0.961 . S
C963 H1027 0.960 . S
C963 H1028 0.960 . S
C964 C965 1.530 . S
C964 H1030 0.961 . S
C964 H1031 0.961 . S
C964 H1032 0.959 . S
C965 C964 1.530 . S
C965 O993 1.412 . S
C965 H1029 0.980 . S
C966 C967 1.288 . S
C966 C971 1.377 . S
C966 O993 1.393 . S
C967 C966 1.288 . S
C967 C968 1.369 . S
C967 H1033 0.932 . S
C968 C967 1.369 . S
C968 C969 1.398 . S
C968 C972 1.527 . S
C969 C968 1.398 . S
C969 C970 1.380 . S
C969 C983 1.497 . S
C970 C969 1.380 . S
C970 C971 1.383 . S
C970 C973 1.603 . S
C971 C966 1.377 . S
C971 C970 1.383 . S
C971 H1034 0.929 . S
C972 C968 1.527 . S
C972 H1035 0.961 . S
C972 H1036 0.959 . S
C972 H1037 0.959 . S
C973 C970 1.603 . S
C973 H1038 0.960 . S
C973 H1039 0.962 . S
C973 H1040 0.961 . S
C974 C941 1.587 . S
C974 C975 1.360 . S
C974 C987 1.412 . S
C975 C974 1.360 . S
C975 C976 1.365 . S
C975 H1041 0.929 . S
C976 C951 1.553 . S
C976 C975 1.365 . S
C976 C977 1.404 . S
C977 C976 1.404 . S
C977 C978 1.395 . S
C977 C988 1.451 . S
C978 C977 1.395 . S
C978 C979 1.322 . S
C978 H1042 0.930 . S
C979 C978 1.322 . S
C979 C980 1.459 . S
C979 H1043 0.929 . S
C980 C979 1.459 . S
C980 C981 1.445 . S
C980 C989 1.395 . S
C981 C959 1.432 . S
C981 C980 1.445 . S
C981 C982 1.370 . S
C982 C981 1.370 . S
C982 C983 1.438 . S
C982 H1044 0.930 . S
C983 C969 1.497 . S
C983 C982 1.438 . S
C983 C984 1.360 . S
C984 C983 1.360 . S
C984 C985 1.401 . S
C984 C989 1.446 . S
C985 C984 1.401 . S
C985 C986 1.347 . S
C985 H1045 0.929 . S
C986 C985 1.347 . S
C986 C987 1.455 . S
C986 H1046 0.930 . S
C987 C974 1.412 . S
C987 C986 1.455 . S
C987 C988 1.331 . S
C988 C977 1.451 . S
C988 C987 1.331 . S
C988 C989 1.497 . S
C989 C980 1.395 . S
C989 C984 1.446 . S
C989 C988 1.497 . S
C990 C991 1.582 . S
C990 H1047 0.962 . S
C990 H1048 0.959 . S
C990 H1049 0.958 . S
C991 C990 1.582 . S
C991 O994 1.458 . S
C991 H1020 0.980 . S
O992 C937 1.426 . S
O992 C938 1.334 . S
O993 C965 1.412 . S
O993 C966 1.393 . S
O994 C956 1.435 . S
O994 C991 1.458 . S
O995 C947 1.468 . S
O995 C948 1.408 . S
H996 C937 0.980 . S
H997 C936 0.959 . S
H998 C936 0.959 . S
H999 C936 0.960 . S
H1000 C939 0.929 . S
H1001 C943 0.929 . S
H1002 C944 0.959 . S
H1003 C944 0.961 . S
H1004 C944 0.961 . S
H1005 C945 0.960 . S
H1006 C945 0.960 . S
H1007 C945 0.961 . S
H1008 C947 0.980 . S
H1009 C946 0.961 . S
H1010 C946 0.960 . S
H1011 C946 0.959 . S
H1012 C949 0.930 . S
H1013 C953 0.931 . S
H1014 C954 0.959 . S
H1015 C954 0.961 . S
H1016 C954 0.959 . S
H1017 C955 0.960 . S
H1018 C955 0.960 . S
H1019 C955 0.960 . S
H1020 C991 0.980 . S
H1021 C957 0.930 . S
H1022 C961 0.930 . S
H1023 C962 0.961 . S
H1024 C962 0.960 . S
H1025 C962 0.958 . S
H1026 C963 0.961 . S
H1027 C963 0.960 . S
H1028 C963 0.960 . S
H1029 C965 0.980 . S
H1030 C964 0.961 . S
H1031 C964 0.961 . S
H1032 C964 0.959 . S
H1033 C967 0.932 . S
H1034 C971 0.929 . S
H1035 C972 0.961 . S
H1036 C972 0.959 . S
H1037 C972 0.959 . S
H1038 C973 0.960 . S
H1039 C973 0.962 . S
H1040 C973 0.961 . S
H1041 C975 0.929 . S
H1042 C978 0.930 . S
H1043 C979 0.929 . S
H1044 C982 0.930 . S
H1045 C985 0.929 . S
H1046 C986 0.930 . S
H1047 C990 0.962 . S
H1048 C990 0.959 . S
H1049 C990 0.958 . S
C1050 C1051 1.560 . S
C1050 H1111 0.959 . S
C1050 H1112 0.959 . S
C1050 H1113 0.960 . S
C1051 C1050 1.560 . S
C1051 O1106 1.426 . S
C1051 H1110 0.980 . S
C1052 C1053 1.407 . S
C1052 C1057 1.418 . S
C1052 O1106 1.334 . S
C1053 C1052 1.407 . S
C1053 C1054 1.360 . S
C1053 H1114 0.929 . S
C1054 C1053 1.360 . S
C1054 C1055 1.401 . S
C1054 C1058 1.527 . S
C1055 C1054 1.401 . S
C1055 C1056 1.405 . S
C1055 C1088 1.587 . S
C1056 C1055 1.405 . S
C1056 C1057 1.332 . S
C1056 C1059 1.496 . S
C1057 C1052 1.418 . S
C1057 C1056 1.332 . S
C1057 H1115 0.929 . S
C1058 C1054 1.527 . S
C1058 H1116 0.959 . S
C1058 H1117 0.961 . S
C1058 H1118 0.961 . S
C1059 C1056 1.496 . S
C1059 H1119 0.960 . S
C1059 H1120 0.960 . S
C1059 H1121 0.961 . S
C1060 C1061 1.517 . S
C1060 H1123 0.961 . S
C1060 H1124 0.960 . S
C1060 H1125 0.959 . S
C1061 C1060 1.517 . S
C1061 O1109 1.468 . S
C1061 H1122 0.980 . S
C1062 C1063 1.349 . S
C1062 C1067 1.367 . S
C1062 O1109 1.408 . S
C1063 C1062 1.349 . S
C1063 C1064 1.407 . S
C1063 H1126 0.930 . S
C1064 C1063 1.407 . S
C1064 C1065 1.449 . S
C1064 C1068 1.535 . S
C1065 C1064 1.449 . S
C1065 C1066 1.384 . S
C1065 C1090 1.553 . S
C1066 C1065 1.384 . S
C1066 C1067 1.364 . S
C1066 C1069 1.450 . S
C1067 C1062 1.367 . S
C1067 C1066 1.364 . S
C1067 H1127 0.931 . S
C1068 C1064 1.535 . S
C1068 H1128 0.959 . S
C1068 H1129 0.961 . S
C1068 H1130 0.959 . S
C1069 C1066 1.450 . S
C1069 H1131 0.960 . S
C1069 H1132 0.960 . S
C1069 H1133 0.960 . S
C1070 C1071 1.309 . S
C1070 C1075 1.304 . S
C1070 O1108 1.435 . S
C1071 C1070 1.309 . S
C1071 C1072 1.476 . S
C1071 H1135 0.930 . S
C1072 C1071 1.476 . S
C1072 C1073 1.400 . S
C1072 C1076 1.567 . S
C1073 C1072 1.400 . S
C1073 C1074 1.373 . S
C1073 C1095 1.432 . S
C1074 C1073 1.373 . S
C1074 C1075 1.339 . S
C1074 C1077 1.530 . S
C1075 C1070 1.304 . S
C1075 C1074 1.339 . S
C1075 H1136 0.930 . S
C1076 C1072 1.567 . S
C1076 H1137 0.961 . S
C1076 H1138 0.960 . S
C1076 H1139 0.958 . S
C1077 C1074 1.530 . S
C1077 H1140 0.961 . S
C1077 H1141 0.960 . S
C1077 H1142 0.960 . S
C1078 C1079 1.530 . S
C1078 H1144 0.961 . S
C1078 H1145 0.961 . S
C1078 H1146 0.959 . S
C1079 C1078 1.530 . S
C1079 O1107 1.412 . S
C1079 H1143 0.980 . S
C1080 C1081 1.288 . S
C1080 C1085 1.377 . S
C1080 O1107 1.393 . S
C1081 C1080 1.288 . S
C1081 C1082 1.369 . S
C1081 H1147 0.932 . S
C1082 C1081 1.369 . S
C1082 C1083 1.398 . S
C1082 C1086 1.527 . S
C1083 C1082 1.398 . S
C1083 C1084 1.380 . S
C1083 C1097 1.497 . S
C1084 C1083 1.380 . S
C1084 C1085 1.383 . S
C1084 C1087 1.603 . S
C1085 C1080 1.377 . S
C1085 C1084 1.383 . S
C1085 H1148 0.929 . S
C1086 C1082 1.527 . S
C1086 H1149 0.961 . S
C1086 H1150 0.959 . S
C1086 H1151 0.959 . S
C1087 C1084 1.603 . S
C1087 H1152 0.960 . S
C1087 H1153 0.962 . S
C1087 H1154 0.961 . S
C1088 C1055 1.587 . S
C1088 C1089 1.360 . S
C1088 C1101 1.412 . S
C1089 C1088 1.360 . S
C1089 C1090 1.365 . S
C1089 H1155 0.929 . S
C1090 C1065 1.553 . S
C1090 C1089 1.365 . S
C1090 C1091 1.404 . S
C1091 C1090 1.404 . S
C1091 C1092 1.395 . S
C1091 C1102 1.451 . S
C1092 C1091 1.395 . S
C1092 C1093 1.322 . S
C1092 H1156 0.930 . S
C1093 C1092 1.322 . S
C1093 C1094 1.459 . S
C1093 H1157 0.929 . S
C1094 C1093 1.459 . S
C1094 C1095 1.445 . S
C1094 C1103 1.395 . S
C1095 C1073 1.432 . S
C1095 C1094 1.445 . S
C1095 C1096 1.370 . S
C1096 C1095 1.370 . S
C1096 C1097 1.438 . S
C1096 H1158 0.930 . S
C1097 C1083 1.497 . S
C1097 C1096 1.438 . S
C1097 C1098 1.360 . S
C1098 C1097 1.360 . S
C1098 C1099 1.401 . S
C1098 C1103 1.446 . S
C1099 C1098 1.401 . S
C1099 C1100 1.347 . S
C1099 H1159 0.929 . S
C1100 C1099 1.347 . S
C1100 C1101 1.455 . S
C1100 H1160 0.930 . S
C1101 C1088 1.412 . S
C1101 C1100 1.455 . S
C1101 C1102 1.331 . S
C1102 C1091 1.451 . S
C1102 C1101 1.331 . S
C1102 C1103 1.497 . S
C1103 C1094 1.395 . S
C1103 C1098 1.446 . S
C1103 C1102 1.497 . S
C1104 C1105 1.582 . S
C1104 H1161 0.962 . S
C1104 H1162 0.959 . S
C1104 H1163 0.958 . S
C1105 C1104 1.582 . S
C1105 O1108 1.458 . S
C1105 H1134 0.980 . S
O1106 C1051 1.426 . S
O1106 C1052 1.334 . S
O1107 C1079 1.412 . S
O1107 C1080 1.393 . S
O1108 C1070 1.435 . S
O1108 C1105 1.458 . S
O1109 C1061 1.468 . S
O1109 C1062 1.408 . S
H1110 C1051 0.980 . S
H1111 C1050 0.959 . S
H1112 C1050 0.959 . S
H1113 C1050 0.960 . S
H1114 C1053 0.929 . S
H1115 C1057 0.929 . S
H1116 C1058 0.959 . S
H1117 C1058 0.961 . S
H1118 C1058 0.961 . S
H1119 C1059 0.960 . S
H1120 C1059 0.960 . S
H1121 C1059 0.961 . S
H1122 C1061 0.980 . S
H1123 C1060 0.961 . S
H1124 C1060 0.960 . S
H1125 C1060 0.959 . S
H1126 C1063 0.930 . S
H1127 C1067 0.931 . S
H1128 C1068 0.959 . S
H1129 C1068 0.961 . S
H1130 C1068 0.959 . S
H1131 C1069 0.960 . S
H1132 C1069 0.960 . S
H1133 C1069 0.960 . S
H1134 C1105 0.980 . S
H1135 C1071 0.930 . S
H1136 C1075 0.930 . S
H1137 C1076 0.961 . S
H1138 C1076 0.960 . S
H1139 C1076 0.958 . S
H1140 C1077 0.961 . S
H1141 C1077 0.960 . S
H1142 C1077 0.960 . S
H1143 C1079 0.980 . S
H1144 C1078 0.961 . S
H1145 C1078 0.961 . S
H1146 C1078 0.959 . S
H1147 C1081 0.932 . S
H1148 C1085 0.929 . S
H1149 C1086 0.961 . S
H1150 C1086 0.959 . S
H1151 C1086 0.959 . S
H1152 C1087 0.960 . S
H1153 C1087 0.962 . S
H1154 C1087 0.961 . S
H1155 C1089 0.929 . S
H1156 C1092 0.930 . S
H1157 C1093 0.929 . S
H1158 C1096 0.930 . S
H1159 C1099 0.929 . S
H1160 C1100 0.930 . S
H1161 C1104 0.962 . S
H1162 C1104 0.959 . S
H1163 C1104 0.958 . S
C1164 C1165 1.560 . S
C1164 H1225 0.959 . S
C1164 H1226 0.959 . S
C1164 H1227 0.960 . S
C1165 C1164 1.560 . S
C1165 O1220 1.426 . S
C1165 H1224 0.980 . S
C1166 C1167 1.407 . S
C1166 C1171 1.418 . S
C1166 O1220 1.334 . S
C1167 C1166 1.407 . S
C1167 C1168 1.360 . S
C1167 H1228 0.929 . S
C1168 C1167 1.360 . S
C1168 C1169 1.401 . S
C1168 C1172 1.527 . S
C1169 C1168 1.401 . S
C1169 C1170 1.405 . S
C1169 C1202 1.587 . S
C1170 C1169 1.405 . S
C1170 C1171 1.332 . S
C1170 C1173 1.496 . S
C1171 C1166 1.418 . S
C1171 C1170 1.332 . S
C1171 H1229 0.929 . S
C1172 C1168 1.527 . S
C1172 H1230 0.959 . S
C1172 H1231 0.961 . S
C1172 H1232 0.961 . S
C1173 C1170 1.496 . S
C1173 H1233 0.960 . S
C1173 H1234 0.960 . S
C1173 H1235 0.961 . S
C1174 C1175 1.517 . S
C1174 H1237 0.961 . S
C1174 H1238 0.960 . S
C1174 H1239 0.959 . S
C1175 C1174 1.517 . S
C1175 O1223 1.468 . S
C1175 H1236 0.980 . S
C1176 C1177 1.349 . S
C1176 C1181 1.367 . S
C1176 O1223 1.408 . S
C1177 C1176 1.349 . S
C1177 C1178 1.407 . S
C1177 H1240 0.930 . S
C1178 C1177 1.407 . S
C1178 C1179 1.449 . S
C1178 C1182 1.535 . S
C1179 C1178 1.449 . S
C1179 C1180 1.384 . S
C1179 C1204 1.553 . S
C1180 C1179 1.384 . S
C1180 C1181 1.364 . S
C1180 C1183 1.450 . S
C1181 C1176 1.367 . S
C1181 C1180 1.364 . S
C1181 H1241 0.931 . S
C1182 C1178 1.535 . S
C1182 H1242 0.959 . S
C1182 H1243 0.961 . S
C1182 H1244 0.959 . S
C1183 C1180 1.450 . S
C1183 H1245 0.960 . S
C1183 H1246 0.960 . S
C1183 H1247 0.960 . S
C1184 C1185 1.309 . S
C1184 C1189 1.304 . S
C1184 O1222 1.435 . S
C1185 C1184 1.309 . S
C1185 C1186 1.476 . S
C1185 H1249 0.930 . S
C1186 C1185 1.476 . S
C1186 C1187 1.400 . S
C1186 C1190 1.567 . S
C1187 C1186 1.400 . S
C1187 C1188 1.373 . S
C1187 C1209 1.432 . S
C1188 C1187 1.373 . S
C1188 C1189 1.339 . S
C1188 C1191 1.530 . S
C1189 C1184 1.304 . S
C1189 C1188 1.339 . S
C1189 H1250 0.930 . S
C1190 C1186 1.567 . S
C1190 H1251 0.961 . S
C1190 H1252 0.960 . S
C1190 H1253 0.958 . S
C1191 C1188 1.530 . S
C1191 H1254 0.961 . S
C1191 H1255 0.960 . S
C1191 H1256 0.960 . S
C1192 C1193 1.530 . S
C1192 H1258 0.961 . S
C1192 H1259 0.961 . S
C1192 H1260 0.959 . S
C1193 C1192 1.530 . S
C1193 O1221 1.412 . S
C1193 H1257 0.980 . S
C1194 C1195 1.288 . S
C1194 C1199 1.377 . S
C1194 O1221 1.393 . S
C1195 C1194 1.288 . S
C1195 C1196 1.369 . S
C1195 H1261 0.932 . S
C1196 C1195 1.369 . S
C1196 C1197 1.398 . S
C1196 C1200 1.527 . S
C1197 C1196 1.398 . S
C1197 C1198 1.380 . S
C1197 C1211 1.497 . S
C1198 C1197 1.380 . S
C1198 C1199 1.383 . S
C1198 C1201 1.603 . S
C1199 C1194 1.377 . S
C1199 C1198 1.383 . S
C1199 H1262 0.929 . S
C1200 C1196 1.527 . S
C1200 H1263 0.961 . S
C1200 H1264 0.959 . S
C1200 H1265 0.959 . S
C1201 C1198 1.603 . S
C1201 H1266 0.960 . S
C1201 H1267 0.962 . S
C1201 H1268 0.961 . S
C1202 C1169 1.587 . S
C1202 C1203 1.360 . S
C1202 C1215 1.412 . S
C1203 C1202 1.360 . S
C1203 C1204 1.365 . S
C1203 H1269 0.929 . S
C1204 C1179 1.553 . S
C1204 C1203 1.365 . S
C1204 C1205 1.404 . S
C1205 C1204 1.404 . S
C1205 C1206 1.395 . S
C1205 C1216 1.451 . S
C1206 C1205 1.395 . S
C1206 C1207 1.322 . S
C1206 H1270 0.930 . S
C1207 C1206 1.322 . S
C1207 C1208 1.459 . S
C1207 H1271 0.929 . S
C1208 C1207 1.459 . S
C1208 C1209 1.445 . S
C1208 C1217 1.395 . S
C1209 C1187 1.432 . S
C1209 C1208 1.445 . S
C1209 C1210 1.370 . S
C1210 C1209 1.370 . S
C1210 C1211 1.438 . S
C1210 H1272 0.930 . S
C1211 C1197 1.497 . S
C1211 C1210 1.438 . S
C1211 C1212 1.360 . S
C1212 C1211 1.360 . S
C1212 C1213 1.401 . S
C1212 C1217 1.446 . S
C1213 C1212 1.401 . S
C1213 C1214 1.347 . S
C1213 H1273 0.929 . S
C1214 C1213 1.347 . S
C1214 C1215 1.455 . S
C1214 H1274 0.930 . S
C1215 C1202 1.412 . S
C1215 C1214 1.455 . S
C1215 C1216 1.331 . S
C1216 C1205 1.451 . S
C1216 C1215 1.331 . S
C1216 C1217 1.497 . S
C1217 C1208 1.395 . S
C1217 C1212 1.446 . S
C1217 C1216 1.497 . S
C1218 C1219 1.582 . S
C1218 H1275 0.962 . S
C1218 H1276 0.959 . S
C1218 H1277 0.958 . S
C1219 C1218 1.582 . S
C1219 O1222 1.458 . S
C1219 H1248 0.980 . S
O1220 C1165 1.426 . S
O1220 C1166 1.334 . S
O1221 C1193 1.412 . S
O1221 C1194 1.393 . S
O1222 C1184 1.435 . S
O1222 C1219 1.458 . S
O1223 C1175 1.468 . S
O1223 C1176 1.408 . S
H1224 C1165 0.980 . S
H1225 C1164 0.959 . S
H1226 C1164 0.959 . S
H1227 C1164 0.960 . S
H1228 C1167 0.929 . S
H1229 C1171 0.929 . S
H1230 C1172 0.959 . S
H1231 C1172 0.961 . S
H1232 C1172 0.961 . S
H1233 C1173 0.960 . S
H1234 C1173 0.960 . S
H1235 C1173 0.961 . S
H1236 C1175 0.980 . S
H1237 C1174 0.961 . S
H1238 C1174 0.960 . S
H1239 C1174 0.959 . S
H1240 C1177 0.930 . S
H1241 C1181 0.931 . S
H1242 C1182 0.959 . S
H1243 C1182 0.961 . S
H1244 C1182 0.959 . S
H1245 C1183 0.960 . S
H1246 C1183 0.960 . S
H1247 C1183 0.960 . S
H1248 C1219 0.980 . S
H1249 C1185 0.930 . S
H1250 C1189 0.930 . S
H1251 C1190 0.961 . S
H1252 C1190 0.960 . S
H1253 C1190 0.958 . S
H1254 C1191 0.961 . S
H1255 C1191 0.960 . S
H1256 C1191 0.960 . S
H1257 C1193 0.980 . S
H1258 C1192 0.961 . S
H1259 C1192 0.961 . S
H1260 C1192 0.959 . S
H1261 C1195 0.932 . S
H1262 C1199 0.929 . S
H1263 C1200 0.961 . S
H1264 C1200 0.959 . S
H1265 C1200 0.959 . S
H1266 C1201 0.960 . S
H1267 C1201 0.962 . S
H1268 C1201 0.961 . S
H1269 C1203 0.929 . S
H1270 C1206 0.930 . S
H1271 C1207 0.929 . S
H1272 C1210 0.930 . S
H1273 C1213 0.929 . S
H1274 C1214 0.930 . S
H1275 C1218 0.962 . S
H1276 C1218 0.959 . S
H1277 C1218 0.958 . S
C1278 C1279 1.560 . S
C1278 H1339 0.959 . S
C1278 H1340 0.959 . S
C1278 H1341 0.960 . S
C1279 C1278 1.560 . S
C1279 O1334 1.426 . S
C1279 H1338 0.980 . S
C1280 C1281 1.407 1_455 S
C1280 C1285 1.418 . S
C1280 O1334 1.334 . S
C1281 C1280 1.407 1_655 S
C1281 C1282 1.360 . S
C1281 H1342 0.929 . S
C1282 C1281 1.360 . S
C1282 C1283 1.401 1_655 S
C1282 C1286 1.527 . S
C1283 C1282 1.401 1_455 S
C1283 C1284 1.405 . S
C1283 C1316 1.587 1_455 S
C1284 C1283 1.405 . S
C1284 C1285 1.332 . S
C1284 C1287 1.496 . S
C1285 C1280 1.418 . S
C1285 C1284 1.332 . S
C1285 H1343 0.929 . S
C1286 C1282 1.527 . S
C1286 H1344 0.959 . S
C1286 H1345 0.961 . S
C1286 H1346 0.961 . S
C1287 C1284 1.496 . S
C1287 H1347 0.960 . S
C1287 H1348 0.960 . S
C1287 H1349 0.961 . S
C1288 C1289 1.517 . S
C1288 H1351 0.961 . S
C1288 H1352 0.960 . S
C1288 H1353 0.959 . S
C1289 C1288 1.517 . S
C1289 O1337 1.468 . S
C1289 H1350 0.944 1_655 S
C1290 C1291 1.349 . S
C1290 C1295 1.367 . S
C1290 O1337 1.408 . S
C1291 C1290 1.349 . S
C1291 C1292 1.406 1_655 S
C1291 H1354 0.930 1_655 S
C1292 C1291 1.406 1_455 S
C1292 C1293 1.448 1_455 S
C1292 C1296 1.537 . S
C1293 C1292 1.448 1_655 S
C1293 C1294 1.384 . S
C1293 C1318 1.553 . S
C1294 C1293 1.384 . S
C1294 C1295 1.364 . S
C1294 C1297 1.450 . S
C1295 C1290 1.367 . S
C1295 C1294 1.364 . S
C1295 H1355 0.931 . S
C1296 C1292 1.537 . S
C1296 H1356 0.959 . S
C1296 H1357 0.961 . S
C1296 H1358 0.959 . S
C1297 C1294 1.450 . S
C1297 H1359 0.960 . S
C1297 H1360 0.960 . S
C1297 H1361 0.960 . S
C1298 C1299 1.309 . S
C1298 C1303 1.304 . S
C1298 O1336 1.435 . S
C1299 C1298 1.309 . S
C1299 C1300 1.449 1_655 S
C1299 H1363 0.930 1_655 S
C1300 C1299 1.449 1_455 S
C1300 C1301 1.384 1_455 S
C1300 C1304 1.609 . S
C1301 C1300 1.384 1_655 S
C1301 C1302 1.373 . S
C1301 C1323 1.432 . S
C1302 C1301 1.373 . S
C1302 C1303 1.339 . S
C1302 C1305 1.530 . S
C1303 C1298 1.304 . S
C1303 C1302 1.339 . S
C1303 H1364 0.930 . S
C1304 C1300 1.609 . S
C1304 H1365 0.961 . S
C1304 H1366 0.960 . S
C1304 H1367 0.958 . S
C1305 C1302 1.530 . S
C1305 H1368 0.961 . S
C1305 H1369 0.960 . S
C1305 H1370 0.960 . S
C1306 C1307 1.602 . S
C1306 H1372 0.961 . S
C1306 H1373 0.961 . S
C1306 H1374 0.959 . S
C1307 C1306 1.602 . S
C1307 O1335 1.428 . S
C1307 H1371 0.961 1_455 S
C1308 C1309 1.288 . S
C1308 C1313 1.377 1_455 S
C1308 O1335 1.393 . S
C1309 C1308 1.288 . S
C1309 C1310 1.369 . S
C1309 H1375 0.932 . S
C1310 C1309 1.369 . S
C1310 C1311 1.330 1_455 S
C1310 C1314 1.527 . S
C1311 C1310 1.330 1_655 S
C1311 C1312 1.402 . S
C1311 C1325 1.543 . S
C1312 C1311 1.402 . S
C1312 C1313 1.383 . S
C1312 C1315 1.603 . S
C1313 C1308 1.377 1_655 S
C1313 C1312 1.383 . S
C1313 H1376 0.929 . S
C1314 C1310 1.527 . S
C1314 H1377 0.961 . S
C1314 H1378 0.959 . S
C1314 H1379 0.959 . S
C1315 C1312 1.603 . S
C1315 H1380 0.960 . S
C1315 H1381 0.962 . S
C1315 H1382 0.961 . S
C1316 C1283 1.587 1_655 S
C1316 C1317 1.360 . S
C1316 C1329 1.412 . S
C1317 C1316 1.360 . S
C1317 C1318 1.365 . S
C1317 H1383 0.929 . S
C1318 C1293 1.553 . S
C1318 C1317 1.365 . S
C1318 C1319 1.404 . S
C1319 C1318 1.404 . S
C1319 C1320 1.395 . S
C1319 C1330 1.451 . S
C1320 C1319 1.395 . S
C1320 C1321 1.322 . S
C1320 H1384 0.930 . S
C1321 C1320 1.322 . S
C1321 C1322 1.459 . S
C1321 H1385 0.929 . S
C1322 C1321 1.459 . S
C1322 C1323 1.445 . S
C1322 C1331 1.395 . S
C1323 C1301 1.432 . S
C1323 C1322 1.445 . S
C1323 C1324 1.370 . S
C1324 C1323 1.370 . S
C1324 C1325 1.438 . S
C1324 H1386 0.930 . S
C1325 C1311 1.543 . S
C1325 C1324 1.438 . S
C1325 C1326 1.360 . S
C1326 C1325 1.360 . S
C1326 C1327 1.401 . S
C1326 C1331 1.446 . S
C1327 C1326 1.401 . S
C1327 C1328 1.347 . S
C1327 H1387 0.929 . S
C1328 C1327 1.347 . S
C1328 C1329 1.455 . S
C1328 H1388 0.930 . S
C1329 C1316 1.412 . S
C1329 C1328 1.455 . S
C1329 C1330 1.331 . S
C1330 C1319 1.451 . S
C1330 C1329 1.331 . S
C1330 C1331 1.497 . S
C1331 C1322 1.395 . S
C1331 C1326 1.446 . S
C1331 C1330 1.497 . S
C1332 C1333 1.582 . S
C1332 H1389 0.962 . S
C1332 H1390 0.959 . S
C1332 H1391 0.958 . S
C1333 C1332 1.582 . S
C1333 O1336 1.458 . S
C1333 H1362 0.980 . S
O1334 C1279 1.426 . S
O1334 C1280 1.334 . S
O1335 C1307 1.428 . S
O1335 C1308 1.393 . S
O1336 C1298 1.435 . S
O1336 C1333 1.458 . S
O1337 C1289 1.468 . S
O1337 C1290 1.408 . S
H1338 C1279 0.980 . S
H1339 C1278 0.959 . S
H1340 C1278 0.959 . S
H1341 C1278 0.960 . S
H1342 C1281 0.929 . S
H1343 C1285 0.929 . S
H1344 C1286 0.959 . S
H1345 C1286 0.961 . S
H1346 C1286 0.961 . S
H1347 C1287 0.960 . S
H1348 C1287 0.960 . S
H1349 C1287 0.961 . S
H1350 C1289 0.944 1_455 S
H1351 C1288 0.961 . S
H1352 C1288 0.960 . S
H1353 C1288 0.959 . S
H1354 C1291 0.930 1_455 S
H1355 C1295 0.931 . S
H1356 C1296 0.959 . S
H1357 C1296 0.961 . S
H1358 C1296 0.959 . S
H1359 C1297 0.960 . S
H1360 C1297 0.960 . S
H1361 C1297 0.960 . S
H1362 C1333 0.980 . S
H1363 C1299 0.930 1_455 S
H1364 C1303 0.930 . S
H1365 C1304 0.961 . S
H1366 C1304 0.960 . S
H1367 C1304 0.958 . S
H1368 C1305 0.961 . S
H1369 C1305 0.960 . S
H1370 C1305 0.960 . S
H1371 C1307 0.961 1_655 S
H1372 C1306 0.961 . S
H1373 C1306 0.961 . S
H1374 C1306 0.959 . S
H1375 C1309 0.932 . S
H1376 C1313 0.929 . S
H1377 C1314 0.961 . S
H1378 C1314 0.959 . S
H1379 C1314 0.959 . S
H1380 C1315 0.960 . S
H1381 C1315 0.962 . S
H1382 C1315 0.961 . S
H1383 C1317 0.929 . S
H1384 C1320 0.930 . S
H1385 C1321 0.929 . S
H1386 C1324 0.930 . S
H1387 C1327 0.929 . S
H1388 C1328 0.930 . S
H1389 C1332 0.962 . S
H1390 C1332 0.959 . S
H1391 C1332 0.958 . S
C1392 C1393 1.560 . S
C1392 H1453 0.959 . S
C1392 H1454 0.959 . S
C1392 H1455 0.960 . S
C1393 C1392 1.560 . S
C1393 O1448 1.426 . S
C1393 H1452 0.980 . S
C1394 C1395 1.407 . S
C1394 C1399 1.418 . S
C1394 O1448 1.334 . S
C1395 C1394 1.407 . S
C1395 C1396 1.360 . S
C1395 H1456 0.929 . S
C1396 C1395 1.360 . S
C1396 C1397 1.401 . S
C1396 C1400 1.527 . S
C1397 C1396 1.401 . S
C1397 C1398 1.405 . S
C1397 C1430 1.587 . S
C1398 C1397 1.405 . S
C1398 C1399 1.332 . S
C1398 C1401 1.496 . S
C1399 C1394 1.418 . S
C1399 C1398 1.332 . S
C1399 H1457 0.929 . S
C1400 C1396 1.527 . S
C1400 H1458 0.959 . S
C1400 H1459 0.961 . S
C1400 H1460 0.961 . S
C1401 C1398 1.496 . S
C1401 H1461 0.960 . S
C1401 H1462 0.960 . S
C1401 H1463 0.961 . S
C1402 C1403 1.517 . S
C1402 H1465 0.961 . S
C1402 H1466 0.960 . S
C1402 H1467 0.959 . S
C1403 C1402 1.517 . S
C1403 O1451 1.468 . S
C1403 H1464 0.980 . S
C1404 C1405 1.349 . S
C1404 C1409 1.367 . S
C1404 O1451 1.408 . S
C1405 C1404 1.349 . S
C1405 C1406 1.407 . S
C1405 H1468 0.930 . S
C1406 C1405 1.407 . S
C1406 C1407 1.449 . S
C1406 C1410 1.535 . S
C1407 C1406 1.449 . S
C1407 C1408 1.384 . S
C1407 C1432 1.553 . S
C1408 C1407 1.384 . S
C1408 C1409 1.364 . S
C1408 C1411 1.450 . S
C1409 C1404 1.367 . S
C1409 C1408 1.364 . S
C1409 H1469 0.931 . S
C1410 C1406 1.535 . S
C1410 H1470 0.959 . S
C1410 H1471 0.961 . S
C1410 H1472 0.959 . S
C1411 C1408 1.450 . S
C1411 H1473 0.960 . S
C1411 H1474 0.960 . S
C1411 H1475 0.960 . S
C1412 C1413 1.309 . S
C1412 C1417 1.304 . S
C1412 O1450 1.435 . S
C1413 C1412 1.309 . S
C1413 C1414 1.476 . S
C1413 H1477 0.930 . S
C1414 C1413 1.476 . S
C1414 C1415 1.400 . S
C1414 C1418 1.567 . S
C1415 C1414 1.400 . S
C1415 C1416 1.373 . S
C1415 C1437 1.432 . S
C1416 C1415 1.373 . S
C1416 C1417 1.339 . S
C1416 C1419 1.530 . S
C1417 C1412 1.304 . S
C1417 C1416 1.339 . S
C1417 H1478 0.930 . S
C1418 C1414 1.567 . S
C1418 H1479 0.961 . S
C1418 H1480 0.960 . S
C1418 H1481 0.958 . S
C1419 C1416 1.530 . S
C1419 H1482 0.961 . S
C1419 H1483 0.960 . S
C1419 H1484 0.960 . S
C1420 C1421 1.530 . S
C1420 H1486 0.961 . S
C1420 H1487 0.961 . S
C1420 H1488 0.959 . S
C1421 C1420 1.530 . S
C1421 O1449 1.412 . S
C1421 H1485 0.980 . S
C1422 C1423 1.288 . S
C1422 C1427 1.377 . S
C1422 O1449 1.393 . S
C1423 C1422 1.288 . S
C1423 C1424 1.369 . S
C1423 H1489 0.932 . S
C1424 C1423 1.369 . S
C1424 C1425 1.398 . S
C1424 C1428 1.527 . S
C1425 C1424 1.398 . S
C1425 C1426 1.380 . S
C1425 C1439 1.497 . S
C1426 C1425 1.380 . S
C1426 C1427 1.383 . S
C1426 C1429 1.603 . S
C1427 C1422 1.377 . S
C1427 C1426 1.383 . S
C1427 H1490 0.929 . S
C1428 C1424 1.527 . S
C1428 H1491 0.961 . S
C1428 H1492 0.959 . S
C1428 H1493 0.959 . S
C1429 C1426 1.603 . S
C1429 H1494 0.960 . S
C1429 H1495 0.962 . S
C1429 H1496 0.961 . S
C1430 C1397 1.587 . S
C1430 C1431 1.360 . S
C1430 C1443 1.412 . S
C1431 C1430 1.360 . S
C1431 C1432 1.365 . S
C1431 H1497 0.929 . S
C1432 C1407 1.553 . S
C1432 C1431 1.365 . S
C1432 C1433 1.404 . S
C1433 C1432 1.404 . S
C1433 C1434 1.395 . S
C1433 C1444 1.451 . S
C1434 C1433 1.395 . S
C1434 C1435 1.322 . S
C1434 H1498 0.930 . S
C1435 C1434 1.322 . S
C1435 C1436 1.459 . S
C1435 H1499 0.929 . S
C1436 C1435 1.459 . S
C1436 C1437 1.445 . S
C1436 C1445 1.395 . S
C1437 C1415 1.432 . S
C1437 C1436 1.445 . S
C1437 C1438 1.370 . S
C1438 C1437 1.370 . S
C1438 C1439 1.438 . S
C1438 H1500 0.930 . S
C1439 C1425 1.497 . S
C1439 C1438 1.438 . S
C1439 C1440 1.360 . S
C1440 C1439 1.360 . S
C1440 C1441 1.401 . S
C1440 C1445 1.446 . S
C1441 C1440 1.401 . S
C1441 C1442 1.347 . S
C1441 H1501 0.929 . S
C1442 C1441 1.347 . S
C1442 C1443 1.455 . S
C1442 H1502 0.930 . S
C1443 C1430 1.412 . S
C1443 C1442 1.455 . S
C1443 C1444 1.331 . S
C1444 C1433 1.451 . S
C1444 C1443 1.331 . S
C1444 C1445 1.497 . S
C1445 C1436 1.395 . S
C1445 C1440 1.446 . S
C1445 C1444 1.497 . S
C1446 C1447 1.582 . S
C1446 H1503 0.962 . S
C1446 H1504 0.959 . S
C1446 H1505 0.958 . S
C1447 C1446 1.582 . S
C1447 O1450 1.458 . S
C1447 H1476 0.980 . S
O1448 C1393 1.426 . S
O1448 C1394 1.334 . S
O1449 C1421 1.412 . S
O1449 C1422 1.393 . S
O1450 C1412 1.435 . S
O1450 C1447 1.458 . S
O1451 C1403 1.468 . S
O1451 C1404 1.408 . S
H1452 C1393 0.980 . S
H1453 C1392 0.959 . S
H1454 C1392 0.959 . S
H1455 C1392 0.960 . S
H1456 C1395 0.929 . S
H1457 C1399 0.929 . S
H1458 C1400 0.959 . S
H1459 C1400 0.961 . S
H1460 C1400 0.961 . S
H1461 C1401 0.960 . S
H1462 C1401 0.960 . S
H1463 C1401 0.961 . S
H1464 C1403 0.980 . S
H1465 C1402 0.961 . S
H1466 C1402 0.960 . S
H1467 C1402 0.959 . S
H1468 C1405 0.930 . S
H1469 C1409 0.931 . S
H1470 C1410 0.959 . S
H1471 C1410 0.961 . S
H1472 C1410 0.959 . S
H1473 C1411 0.960 . S
H1474 C1411 0.960 . S
H1475 C1411 0.960 . S
H1476 C1447 0.980 . S
H1477 C1413 0.930 . S
H1478 C1417 0.930 . S
H1479 C1418 0.961 . S
H1480 C1418 0.960 . S
H1481 C1418 0.958 . S
H1482 C1419 0.961 . S
H1483 C1419 0.960 . S
H1484 C1419 0.960 . S
H1485 C1421 0.980 . S
H1486 C1420 0.961 . S
H1487 C1420 0.961 . S
H1488 C1420 0.959 . S
H1489 C1423 0.932 . S
H1490 C1427 0.929 . S
H1491 C1428 0.961 . S
H1492 C1428 0.959 . S
H1493 C1428 0.959 . S
H1494 C1429 0.960 . S
H1495 C1429 0.962 . S
H1496 C1429 0.961 . S
H1497 C1431 0.929 . S
H1498 C1434 0.930 . S
H1499 C1435 0.929 . S
H1500 C1438 0.930 . S
H1501 C1441 0.929 . S
H1502 C1442 0.930 . S
H1503 C1446 0.962 . S
H1504 C1446 0.959 . S
H1505 C1446 0.958 . S
C1506 C1507 1.560 . S
C1506 H1567 0.959 . S
C1506 H1568 0.959 . S
C1506 H1569 0.960 . S
C1507 C1506 1.560 . S
C1507 O1562 1.426 . S
C1507 H1566 0.980 . S
C1508 C1509 1.407 1_565 S
C1508 C1513 1.418 . S
C1508 O1562 1.334 . S
C1509 C1508 1.407 1_545 S
C1509 C1510 1.360 . S
C1509 H1570 0.929 . S
C1510 C1509 1.360 . S
C1510 C1511 1.401 1_545 S
C1510 C1514 1.527 . S
C1511 C1510 1.401 1_565 S
C1511 C1512 1.405 . S
C1511 C1544 1.587 1_565 S
C1512 C1511 1.405 . S
C1512 C1513 1.332 . S
C1512 C1515 1.496 . S
C1513 C1508 1.418 . S
C1513 C1512 1.332 . S
C1513 H1571 0.929 . S
C1514 C1510 1.527 . S
C1514 H1572 0.959 . S
C1514 H1573 0.961 . S
C1514 H1574 0.961 . S
C1515 C1512 1.496 . S
C1515 H1575 0.960 . S
C1515 H1576 0.960 . S
C1515 H1577 0.961 . S
C1516 C1517 1.517 . S
C1516 H1579 0.919 1_545 S
C1516 H1580 0.960 . S
C1516 H1581 0.959 . S
C1517 C1516 1.517 . S
C1517 O1565 1.468 . S
C1517 H1578 0.980 1_545 S
C1518 C1519 1.349 . S
C1518 C1523 1.367 . S
C1518 O1565 1.408 . S
C1519 C1518 1.349 . S
C1519 C1520 1.407 1_545 S
C1519 H1582 0.930 1_545 S
C1520 C1519 1.407 1_565 S
C1520 C1521 1.449 1_565 S
C1520 C1524 1.535 . S
C1521 C1520 1.449 1_545 S
C1521 C1522 1.384 . S
C1521 C1546 1.553 . S
C1522 C1521 1.384 . S
C1522 C1523 1.364 . S
C1522 C1525 1.450 . S
C1523 C1518 1.367 . S
C1523 C1522 1.364 . S
C1523 H1583 0.931 . S
C1524 C1520 1.535 . S
C1524 H1584 0.959 . S
C1524 H1585 0.961 . S
C1524 H1586 0.959 . S
C1525 C1522 1.450 . S
C1525 H1587 0.960 . S
C1525 H1588 0.960 . S
C1525 H1589 0.960 . S
C1526 C1527 1.309 . S
C1526 C1531 1.304 . S
C1526 O1564 1.435 . S
C1527 C1526 1.309 . S
C1527 C1528 1.482 1_545 S
C1527 H1591 0.930 1_545 S
C1528 C1527 1.482 1_565 S
C1528 C1529 1.378 1_565 S
C1528 C1532 1.582 . S
C1529 C1528 1.378 1_545 S
C1529 C1530 1.373 . S
C1529 C1551 1.432 . S
C1530 C1529 1.373 . S
C1530 C1531 1.339 . S
C1530 C1533 1.530 . S
C1531 C1526 1.304 . S
C1531 C1530 1.339 . S
C1531 H1592 0.930 . S
C1532 C1528 1.582 . S
C1532 H1593 0.961 . S
C1532 H1594 0.960 . S
C1532 H1595 0.958 . S
C1533 C1530 1.530 . S
C1533 H1596 0.961 . S
C1533 H1597 0.960 . S
C1533 H1598 0.960 . S
C1534 C1535 1.530 1_565 S
C1534 H1600 0.961 . S
C1534 H1601 0.961 . S
C1534 H1602 0.959 . S
C1535 C1534 1.530 1_545 S
C1535 O1563 1.412 1_545 S
C1535 H1599 0.980 . S
C1536 C1537 1.288 . S
C1536 C1541 1.377 1_565 S
C1536 O1563 1.393 . S
C1537 C1536 1.288 . S
C1537 C1538 1.369 . S
C1537 H1603 0.932 . S
C1538 C1537 1.369 . S
C1538 C1539 1.398 1_565 S
C1538 C1542 1.527 . S
C1539 C1538 1.398 1_545 S
C1539 C1540 1.380 . S
C1539 C1553 1.497 . S
C1540 C1539 1.380 . S
C1540 C1541 1.383 . S
C1540 C1543 1.603 . S
C1541 C1536 1.377 1_545 S
C1541 C1540 1.383 . S
C1541 H1604 0.929 . S
C1542 C1538 1.527 . S
C1542 H1605 0.961 . S
C1542 H1606 0.959 . S
C1542 H1607 0.959 . S
C1543 C1540 1.603 . S
C1543 H1608 0.960 . S
C1543 H1609 0.962 . S
C1543 H1610 0.961 . S
C1544 C1511 1.587 1_545 S
C1544 C1545 1.360 . S
C1544 C1557 1.412 . S
C1545 C1544 1.360 . S
C1545 C1546 1.365 . S
C1545 H1611 0.929 . S
C1546 C1521 1.553 . S
C1546 C1545 1.365 . S
C1546 C1547 1.404 . S
C1547 C1546 1.404 . S
C1547 C1548 1.395 . S
C1547 C1558 1.451 . S
C1548 C1547 1.395 . S
C1548 C1549 1.322 . S
C1548 H1612 0.930 . S
C1549 C1548 1.322 . S
C1549 C1550 1.459 . S
C1549 H1613 0.929 . S
C1550 C1549 1.459 . S
C1550 C1551 1.445 . S
C1550 C1559 1.395 . S
C1551 C1529 1.432 . S
C1551 C1550 1.445 . S
C1551 C1552 1.370 . S
C1552 C1551 1.370 . S
C1552 C1553 1.438 . S
C1552 H1614 0.930 . S
C1553 C1539 1.497 . S
C1553 C1552 1.438 . S
C1553 C1554 1.360 . S
C1554 C1553 1.360 . S
C1554 C1555 1.401 . S
C1554 C1559 1.446 . S
C1555 C1554 1.401 . S
C1555 C1556 1.347 . S
C1555 H1615 0.929 . S
C1556 C1555 1.347 . S
C1556 C1557 1.455 . S
C1556 H1616 0.930 . S
C1557 C1544 1.412 . S
C1557 C1556 1.455 . S
C1557 C1558 1.331 . S
C1558 C1547 1.451 . S
C1558 C1557 1.331 . S
C1558 C1559 1.497 . S
C1559 C1550 1.395 . S
C1559 C1554 1.446 . S
C1559 C1558 1.497 . S
C1560 C1561 1.582 . S
C1560 H1617 0.962 . S
C1560 H1618 0.959 . S
C1560 H1619 0.958 . S
C1561 C1560 1.582 . S
C1561 O1564 1.458 . S
C1561 H1590 0.980 . S
O1562 C1507 1.426 . S
O1562 C1508 1.334 . S
O1563 C1535 1.412 1_565 S
O1563 C1536 1.393 . S
O1564 C1526 1.435 . S
O1564 C1561 1.458 . S
O1565 C1517 1.468 . S
O1565 C1518 1.408 . S
H1566 C1507 0.980 . S
H1567 C1506 0.959 . S
H1568 C1506 0.959 . S
H1569 C1506 0.960 . S
H1570 C1509 0.929 . S
H1571 C1513 0.929 . S
H1572 C1514 0.959 . S
H1573 C1514 0.961 . S
H1574 C1514 0.961 . S
H1575 C1515 0.960 . S
H1576 C1515 0.960 . S
H1577 C1515 0.961 . S
H1578 C1517 0.980 1_565 S
H1579 C1516 0.919 1_565 S
H1580 C1516 0.960 . S
H1581 C1516 0.959 . S
H1582 C1519 0.930 1_565 S
H1583 C1523 0.931 . S
H1584 C1524 0.959 . S
H1585 C1524 0.961 . S
H1586 C1524 0.959 . S
H1587 C1525 0.960 . S
H1588 C1525 0.960 . S
H1589 C1525 0.960 . S
H1590 C1561 0.980 . S
H1591 C1527 0.930 1_565 S
H1592 C1531 0.930 . S
H1593 C1532 0.961 . S
H1594 C1532 0.960 . S
H1595 C1532 0.958 . S
H1596 C1533 0.961 . S
H1597 C1533 0.960 . S
H1598 C1533 0.960 . S
H1599 C1535 0.980 . S
H1600 C1534 0.961 . S
H1601 C1534 0.961 . S
H1602 C1534 0.959 . S
H1603 C1537 0.932 . S
H1604 C1541 0.929 . S
H1605 C1542 0.961 . S
H1606 C1542 0.959 . S
H1607 C1542 0.959 . S
H1608 C1543 0.960 . S
H1609 C1543 0.962 . S
H1610 C1543 0.961 . S
H1611 C1545 0.929 . S
H1612 C1548 0.930 . S
H1613 C1549 0.929 . S
H1614 C1552 0.930 . S
H1615 C1555 0.929 . S
H1616 C1556 0.930 . S
H1617 C1560 0.962 . S
H1618 C1560 0.959 . S
H1619 C1560 0.958 . S
C1620 C1621 1.560 . S
C1620 H1681 0.959 . S
C1620 H1682 0.959 . S
C1620 H1683 0.960 . S
C1621 C1620 1.560 . S
C1621 O1676 1.426 . S
C1621 H1680 0.980 1_565 S
C1622 C1623 1.407 1_565 S
C1622 C1627 1.418 . S
C1622 O1676 1.334 . S
C1623 C1622 1.407 1_545 S
C1623 C1624 1.360 . S
C1623 H1684 0.929 . S
C1624 C1623 1.360 . S
C1624 C1625 1.401 . S
C1624 C1628 1.527 . S
C1625 C1624 1.401 . S
C1625 C1626 1.405 1_545 S
C1625 C1658 1.587 . S
C1626 C1625 1.405 1_565 S
C1626 C1627 1.332 . S
C1626 C1629 1.496 . S
C1627 C1622 1.418 . S
C1627 C1626 1.332 . S
C1627 H1685 0.929 . S
C1628 C1624 1.527 . S
C1628 H1686 0.959 . S
C1628 H1687 0.961 . S
C1628 H1688 0.961 . S
C1629 C1626 1.496 . S
C1629 H1689 0.960 . S
C1629 H1690 0.960 . S
C1629 H1691 0.961 . S
C1630 C1631 1.517 . S
C1630 H1693 0.961 . S
C1630 H1694 0.960 . S
C1630 H1695 0.959 . S
C1631 C1630 1.517 . S
C1631 O1679 1.468 . S
C1631 H1692 0.980 . S
C1632 C1633 1.349 . S
C1632 C1637 1.367 . S
C1632 O1679 1.408 . S
C1633 C1632 1.349 . S
C1633 C1634 1.407 . S
C1633 H1696 0.910 1_545 S
C1634 C1633 1.407 . S
C1634 C1635 1.449 . S
C1634 C1638 1.535 1_545 S
C1635 C1634 1.449 . S
C1635 C1636 1.384 . S
C1635 C1660 1.553 . S
C1636 C1635 1.384 . S
C1636 C1637 1.364 . S
C1636 C1639 1.450 . S
C1637 C1632 1.367 . S
C1637 C1636 1.364 . S
C1637 H1697 0.931 . S
C1638 C1634 1.535 1_565 S
C1638 H1698 0.959 . S
C1638 H1699 0.961 . S
C1638 H1700 0.959 . S
C1639 C1636 1.450 . S
C1639 H1701 0.960 . S
C1639 H1702 0.960 . S
C1639 H1703 0.960 . S
C1640 C1641 1.309 1_545 S
C1640 C1645 1.304 . S
C1640 O1678 1.435 . S
C1641 C1640 1.309 1_565 S
C1641 C1642 1.476 . S
C1641 H1705 0.930 . S
C1642 C1641 1.476 . S
C1642 C1643 1.400 1_565 S
C1642 C1646 1.567 . S
C1643 C1642 1.400 1_545 S
C1643 C1644 1.373 . S
C1643 C1665 1.432 . S
C1644 C1643 1.373 . S
C1644 C1645 1.339 . S
C1644 C1647 1.530 . S
C1645 C1640 1.304 . S
C1645 C1644 1.339 . S
C1645 H1706 0.930 . S
C1646 C1642 1.567 . S
C1646 H1707 0.961 . S
C1646 H1708 0.960 . S
C1646 H1709 0.958 . S
C1647 C1644 1.530 . S
C1647 H1710 0.961 . S
C1647 H1711 0.960 . S
C1647 H1712 0.960 . S
C1648 C1649 1.530 . S
C1648 H1714 0.961 . S
C1648 H1715 0.961 . S
C1648 H1716 0.959 . S
C1649 C1648 1.530 . S
C1649 O1677 1.412 . S
C1649 H1713 0.981 1_565 S
C1650 C1651 1.288 . S
C1650 C1655 1.377 1_565 S
C1650 O1677 1.393 . S
C1651 C1650 1.288 . S
C1651 C1652 1.369 . S
C1651 H1717 0.932 . S
C1652 C1651 1.369 . S
C1652 C1653 1.398 . S
C1652 C1656 1.527 . S
C1653 C1652 1.398 . S
C1653 C1654 1.380 1_565 S
C1653 C1667 1.497 1_565 S
C1654 C1653 1.380 1_545 S
C1654 C1655 1.383 . S
C1654 C1657 1.603 . S
C1655 C1650 1.377 1_545 S
C1655 C1654 1.383 . S
C1655 H1718 0.929 . S
C1656 C1652 1.527 . S
C1656 H1719 0.961 . S
C1656 H1720 0.959 . S
C1656 H1721 0.959 . S
C1657 C1654 1.603 . S
C1657 H1722 0.960 . S
C1657 H1723 0.962 . S
C1657 H1724 0.961 . S
C1658 C1625 1.587 . S
C1658 C1659 1.360 . S
C1658 C1671 1.412 . S
C1659 C1658 1.360 . S
C1659 C1660 1.365 . S
C1659 H1725 0.929 . S
C1660 C1635 1.553 . S
C1660 C1659 1.365 . S
C1660 C1661 1.404 . S
C1661 C1660 1.404 . S
C1661 C1662 1.395 . S
C1661 C1672 1.451 . S
C1662 C1661 1.395 . S
C1662 C1663 1.322 . S
C1662 H1726 0.930 . S
C1663 C1662 1.322 . S
C1663 C1664 1.459 . S
C1663 H1727 0.929 . S
C1664 C1663 1.459 . S
C1664 C1665 1.445 . S
C1664 C1673 1.395 . S
C1665 C1643 1.432 . S
C1665 C1664 1.445 . S
C1665 C1666 1.370 . S
C1666 C1665 1.370 . S
C1666 C1667 1.438 . S
C1666 H1728 0.930 . S
C1667 C1653 1.497 1_545 S
C1667 C1666 1.438 . S
C1667 C1668 1.360 . S
C1668 C1667 1.360 . S
C1668 C1669 1.401 . S
C1668 C1673 1.446 . S
C1669 C1668 1.401 . S
C1669 C1670 1.347 . S
C1669 H1729 0.981 . S
C1670 C1669 1.347 . S
C1670 C1671 1.455 . S
C1670 H1730 0.930 . S
C1671 C1658 1.412 . S
C1671 C1670 1.455 . S
C1671 C1672 1.331 . S
C1672 C1661 1.451 . S
C1672 C1671 1.331 . S
C1672 C1673 1.497 . S
C1673 C1664 1.395 . S
C1673 C1668 1.446 . S
C1673 C1672 1.497 . S
C1674 C1675 1.628 . S
C1674 H1731 0.962 . S
C1674 H1732 0.959 . S
C1674 H1733 0.958 . S
C1675 C1674 1.628 . S
C1675 O1678 1.477 . S
C1675 H1704 0.981 1_545 S
O1676 C1621 1.426 . S
O1676 C1622 1.334 . S
O1677 C1649 1.412 . S
O1677 C1650 1.393 . S
O1678 C1640 1.435 . S
O1678 C1675 1.477 . S
O1679 C1631 1.468 . S
O1679 C1632 1.408 . S
H1680 C1621 0.980 1_545 S
H1681 C1620 0.959 . S
H1682 C1620 0.959 . S
H1683 C1620 0.960 . S
H1684 C1623 0.929 . S
H1685 C1627 0.929 . S
H1686 C1628 0.959 . S
H1687 C1628 0.961 . S
H1688 C1628 0.961 . S
H1689 C1629 0.960 . S
H1690 C1629 0.960 . S
H1691 C1629 0.961 . S
H1692 C1631 0.980 . S
H1693 C1630 0.961 . S
H1694 C1630 0.960 . S
H1695 C1630 0.959 . S
H1696 C1633 0.910 1_565 S
H1697 C1637 0.931 . S
H1698 C1638 0.959 . S
H1699 C1638 0.961 . S
H1700 C1638 0.959 . S
H1701 C1639 0.960 . S
H1702 C1639 0.960 . S
H1703 C1639 0.960 . S
H1704 C1675 0.981 1_565 S
H1705 C1641 0.930 . S
H1706 C1645 0.930 . S
H1707 C1646 0.961 . S
H1708 C1646 0.960 . S
H1709 C1646 0.958 . S
H1710 C1647 0.961 . S
H1711 C1647 0.960 . S
H1712 C1647 0.960 . S
H1713 C1649 0.981 1_545 S
H1714 C1648 0.961 . S
H1715 C1648 0.961 . S
H1716 C1648 0.959 . S
H1717 C1651 0.932 . S
H1718 C1655 0.929 . S
H1719 C1656 0.961 . S
H1720 C1656 0.959 . S
H1721 C1656 0.959 . S
H1722 C1657 0.960 . S
H1723 C1657 0.962 . S
H1724 C1657 0.961 . S
H1725 C1659 0.929 . S
H1726 C1662 0.930 . S
H1727 C1663 0.929 . S
H1728 C1666 0.930 . S
H1729 C1669 0.981 . S
H1730 C1670 0.930 . S
H1731 C1674 0.962 . S
H1732 C1674 0.959 . S
H1733 C1674 0.958 . S
C1734 C1735 1.560 . S
C1734 H1795 0.959 . S
C1734 H1796 0.959 . S
C1734 H1797 0.960 . S
C1735 C1734 1.560 . S
C1735 O1790 1.426 . S
C1735 H1794 0.980 1_455 S
C1736 C1737 1.407 1_455 S
C1736 C1741 1.418 . S
C1736 O1790 1.334 . S
C1737 C1736 1.407 1_655 S
C1737 C1738 1.360 . S
C1737 H1798 0.929 . S
C1738 C1737 1.360 . S
C1738 C1739 1.401 . S
C1738 C1742 1.527 . S
C1739 C1738 1.401 . S
C1739 C1740 1.405 1_655 S
C1739 C1772 1.587 . S
C1740 C1739 1.405 1_455 S
C1740 C1741 1.332 . S
C1740 C1743 1.496 . S
C1741 C1736 1.418 . S
C1741 C1740 1.332 . S
C1741 H1799 0.929 . S
C1742 C1738 1.527 . S
C1742 H1800 0.959 . S
C1742 H1801 0.961 . S
C1742 H1802 0.961 . S
C1743 C1740 1.496 . S
C1743 H1803 0.960 . S
C1743 H1804 0.960 . S
C1743 H1805 0.961 . S
C1744 C1745 1.517 . S
C1744 H1807 0.961 . S
C1744 H1808 0.960 . S
C1744 H1809 0.959 . S
C1745 C1744 1.517 . S
C1745 O1793 1.468 . S
C1745 H1806 0.980 . S
C1746 C1747 1.349 . S
C1746 C1751 1.367 . S
C1746 O1793 1.408 . S
C1747 C1746 1.349 . S
C1747 C1748 1.407 . S
C1747 H1810 0.882 1_655 S
C1748 C1747 1.407 . S
C1748 C1749 1.449 . S
C1748 C1752 1.535 1_655 S
C1749 C1748 1.449 . S
C1749 C1750 1.384 . S
C1749 C1774 1.553 . S
C1750 C1749 1.384 . S
C1750 C1751 1.364 . S
C1750 C1753 1.450 . S
C1751 C1746 1.367 . S
C1751 C1750 1.364 . S
C1751 H1811 0.931 . S
C1752 C1748 1.535 1_455 S
C1752 H1812 0.959 . S
C1752 H1813 0.961 . S
C1752 H1814 0.959 . S
C1753 C1750 1.450 . S
C1753 H1815 0.960 . S
C1753 H1816 0.960 . S
C1753 H1817 0.960 . S
C1754 C1755 1.309 1_655 S
C1754 C1759 1.304 . S
C1754 O1792 1.435 . S
C1755 C1754 1.309 1_455 S
C1755 C1756 1.476 . S
C1755 H1819 0.930 . S
C1756 C1755 1.476 . S
C1756 C1757 1.400 1_455 S
C1756 C1760 1.567 . S
C1757 C1756 1.400 1_655 S
C1757 C1758 1.373 . S
C1757 C1779 1.432 . S
C1758 C1757 1.373 . S
C1758 C1759 1.339 . S
C1758 C1761 1.530 . S
C1759 C1754 1.304 . S
C1759 C1758 1.339 . S
C1759 H1820 0.930 . S
C1760 C1756 1.567 . S
C1760 H1821 0.961 . S
C1760 H1822 0.960 . S
C1760 H1823 0.958 . S
C1761 C1758 1.530 . S
C1761 H1824 0.961 . S
C1761 H1825 0.960 . S
C1761 H1826 0.960 . S
C1762 C1763 1.530 . S
C1762 H1828 0.961 . S
C1762 H1829 0.961 . S
C1762 H1830 0.959 . S
C1763 C1762 1.530 . S
C1763 O1791 1.412 . S
C1763 H1827 0.964 1_455 S
C1764 C1765 1.288 . S
C1764 C1769 1.377 1_455 S
C1764 O1791 1.393 . S
C1765 C1764 1.288 . S
C1765 C1766 1.369 . S
C1765 H1831 0.932 . S
C1766 C1765 1.369 . S
C1766 C1767 1.398 . S
C1766 C1770 1.527 . S
C1767 C1766 1.398 . S
C1767 C1768 1.380 1_455 S
C1767 C1781 1.497 1_455 S
C1768 C1767 1.380 1_655 S
C1768 C1769 1.383 . S
C1768 C1771 1.603 . S
C1769 C1764 1.377 1_655 S
C1769 C1768 1.383 . S
C1769 H1832 0.929 . S
C1770 C1766 1.527 . S
C1770 H1833 0.961 . S
C1770 H1834 0.959 . S
C1770 H1835 0.959 . S
C1771 C1768 1.603 . S
C1771 H1836 0.960 . S
C1771 H1837 0.962 . S
C1771 H1838 0.961 . S
C1772 C1739 1.587 . S
C1772 C1773 1.360 . S
C1772 C1785 1.412 . S
C1773 C1772 1.360 . S
C1773 C1774 1.365 . S
C1773 H1839 0.929 . S
C1774 C1749 1.553 . S
C1774 C1773 1.365 . S
C1774 C1775 1.404 . S
C1775 C1774 1.404 . S
C1775 C1776 1.395 . S
C1775 C1786 1.451 . S
C1776 C1775 1.395 . S
C1776 C1777 1.322 . S
C1776 H1840 0.930 . S
C1777 C1776 1.322 . S
C1777 C1778 1.459 . S
C1777 H1841 0.929 . S
C1778 C1777 1.459 . S
C1778 C1779 1.445 . S
C1778 C1787 1.395 . S
C1779 C1757 1.432 . S
C1779 C1778 1.445 . S
C1779 C1780 1.370 . S
C1780 C1779 1.370 . S
C1780 C1781 1.438 . S
C1780 H1842 0.930 . S
C1781 C1767 1.497 1_655 S
C1781 C1780 1.438 . S
C1781 C1782 1.360 . S
C1782 C1781 1.360 . S
C1782 C1783 1.401 . S
C1782 C1787 1.446 . S
C1783 C1782 1.401 . S
C1783 C1784 1.347 . S
C1783 H1843 0.929 . S
C1784 C1783 1.347 . S
C1784 C1785 1.455 . S
C1784 H1844 0.930 . S
C1785 C1772 1.412 . S
C1785 C1784 1.455 . S
C1785 C1786 1.331 . S
C1786 C1775 1.451 . S
C1786 C1785 1.331 . S
C1786 C1787 1.497 . S
C1787 C1778 1.395 . S
C1787 C1782 1.446 . S
C1787 C1786 1.497 . S
C1788 C1789 1.581 1_655 S
C1788 H1845 0.958 . S
C1788 H1846 0.959 . S
C1788 H1847 0.958 . S
C1789 C1788 1.581 1_455 S
C1789 O1792 1.397 1_455 S
C1789 H1818 1.007 . S
O1790 C1735 1.426 . S
O1790 C1736 1.334 . S
O1791 C1763 1.412 . S
O1791 C1764 1.393 . S
O1792 C1754 1.435 . S
O1792 C1789 1.397 1_655 S
O1793 C1745 1.468 . S
O1793 C1746 1.408 . S
H1794 C1735 0.980 1_655 S
H1795 C1734 0.959 . S
H1796 C1734 0.959 . S
H1797 C1734 0.960 . S
H1798 C1737 0.929 . S
H1799 C1741 0.929 . S
H1800 C1742 0.959 . S
H1801 C1742 0.961 . S
H1802 C1742 0.961 . S
H1803 C1743 0.960 . S
H1804 C1743 0.960 . S
H1805 C1743 0.961 . S
H1806 C1745 0.980 . S
H1807 C1744 0.961 . S
H1808 C1744 0.960 . S
H1809 C1744 0.959 . S
H1810 C1747 0.882 1_455 S
H1811 C1751 0.931 . S
H1812 C1752 0.959 . S
H1813 C1752 0.961 . S
H1814 C1752 0.959 . S
H1815 C1753 0.960 . S
H1816 C1753 0.960 . S
H1817 C1753 0.960 . S
H1818 C1789 1.007 . S
H1819 C1755 0.930 . S
H1820 C1759 0.930 . S
H1821 C1760 0.961 . S
H1822 C1760 0.960 . S
H1823 C1760 0.958 . S
H1824 C1761 0.961 . S
H1825 C1761 0.960 . S
H1826 C1761 0.960 . S
H1827 C1763 0.964 1_655 S
H1828 C1762 0.961 . S
H1829 C1762 0.961 . S
H1830 C1762 0.959 . S
H1831 C1765 0.932 . S
H1832 C1769 0.929 . S
H1833 C1770 0.961 . S
H1834 C1770 0.959 . S
H1835 C1770 0.959 . S
H1836 C1771 0.960 . S
H1837 C1771 0.962 . S
H1838 C1771 0.961 . S
H1839 C1773 0.929 . S
H1840 C1776 0.930 . S
H1841 C1777 0.929 . S
H1842 C1780 0.930 . S
H1843 C1783 0.929 . S
H1844 C1784 0.930 . S
H1845 C1788 0.958 . S
H1846 C1788 0.959 . S
H1847 C1788 0.958 . S
C1848 C1849 1.560 . S
C1848 H1909 0.959 . S
C1848 H1910 0.959 . S
C1848 H1911 0.960 . S
C1849 C1848 1.560 . S
C1849 O1904 1.426 . S
C1849 H1908 0.980 . S
C1850 C1851 1.407 . S
C1850 C1855 1.418 . S
C1850 O1904 1.334 . S
C1851 C1850 1.407 . S
C1851 C1852 1.360 . S
C1851 H1912 0.929 . S
C1852 C1851 1.360 . S
C1852 C1853 1.401 . S
C1852 C1856 1.527 . S
C1853 C1852 1.401 . S
C1853 C1854 1.405 . S
C1853 C1886 1.587 . S
C1854 C1853 1.405 . S
C1854 C1855 1.332 . S
C1854 C1857 1.496 . S
C1855 C1850 1.418 . S
C1855 C1854 1.332 . S
C1855 H1913 0.929 . S
C1856 C1852 1.527 . S
C1856 H1914 0.959 . S
C1856 H1915 0.961 . S
C1856 H1916 0.961 . S
C1857 C1854 1.496 . S
C1857 H1917 0.960 . S
C1857 H1918 0.960 . S
C1857 H1919 0.961 . S
C1858 C1859 1.517 . S
C1858 H1921 0.961 . S
C1858 H1922 0.960 . S
C1858 H1923 0.959 . S
C1859 C1858 1.517 . S
C1859 O1907 1.468 . S
C1859 H1920 0.980 . S
C1860 C1861 1.349 . S
C1860 C1865 1.367 . S
C1860 O1907 1.408 . S
C1861 C1860 1.349 . S
C1861 C1862 1.407 . S
C1861 H1924 0.930 . S
C1862 C1861 1.407 . S
C1862 C1863 1.449 . S
C1862 C1866 1.535 . S
C1863 C1862 1.449 . S
C1863 C1864 1.384 . S
C1863 C1888 1.553 . S
C1864 C1863 1.384 . S
C1864 C1865 1.364 . S
C1864 C1867 1.450 . S
C1865 C1860 1.367 . S
C1865 C1864 1.364 . S
C1865 H1925 0.931 . S
C1866 C1862 1.535 . S
C1866 H1926 0.959 . S
C1866 H1927 0.961 . S
C1866 H1928 0.959 . S
C1867 C1864 1.450 . S
C1867 H1929 0.960 . S
C1867 H1930 0.960 . S
C1867 H1931 0.960 . S
C1868 C1869 1.309 . S
C1868 C1873 1.304 . S
C1868 O1906 1.435 . S
C1869 C1868 1.309 . S
C1869 C1870 1.476 . S
C1869 H1933 0.930 . S
C1870 C1869 1.476 . S
C1870 C1871 1.400 . S
C1870 C1874 1.567 . S
C1871 C1870 1.400 . S
C1871 C1872 1.373 . S
C1871 C1893 1.432 . S
C1872 C1871 1.373 . S
C1872 C1873 1.339 . S
C1872 C1875 1.530 . S
C1873 C1868 1.304 . S
C1873 C1872 1.339 . S
C1873 H1934 0.930 . S
C1874 C1870 1.567 . S
C1874 H1935 0.961 . S
C1874 H1936 0.960 . S
C1874 H1937 0.958 . S
C1875 C1872 1.530 . S
C1875 H1938 0.961 . S
C1875 H1939 0.960 . S
C1875 H1940 0.960 . S
C1876 C1877 1.530 . S
C1876 H1942 0.961 . S
C1876 H1943 0.961 . S
C1876 H1944 0.959 . S
C1877 C1876 1.530 . S
C1877 O1905 1.412 . S
C1877 H1941 0.980 . S
C1878 C1879 1.288 . S
C1878 C1883 1.377 . S
C1878 O1905 1.393 . S
C1879 C1878 1.288 . S
C1879 C1880 1.369 . S
C1879 H1945 0.932 . S
C1880 C1879 1.369 . S
C1880 C1881 1.398 . S
C1880 C1884 1.527 . S
C1881 C1880 1.398 . S
C1881 C1882 1.380 . S
C1881 C1895 1.497 . S
C1882 C1881 1.380 . S
C1882 C1883 1.383 . S
C1882 C1885 1.603 . S
C1883 C1878 1.377 . S
C1883 C1882 1.383 . S
C1883 H1946 0.929 . S
C1884 C1880 1.527 . S
C1884 H1947 0.961 . S
C1884 H1948 0.959 . S
C1884 H1949 0.959 . S
C1885 C1882 1.603 . S
C1885 H1950 0.960 . S
C1885 H1951 0.962 . S
C1885 H1952 0.961 . S
C1886 C1853 1.587 . S
C1886 C1887 1.360 . S
C1886 C1899 1.412 . S
C1887 C1886 1.360 . S
C1887 C1888 1.365 . S
C1887 H1953 0.929 . S
C1888 C1863 1.553 . S
C1888 C1887 1.365 . S
C1888 C1889 1.404 . S
C1889 C1888 1.404 . S
C1889 C1890 1.395 . S
C1889 C1900 1.451 . S
C1890 C1889 1.395 . S
C1890 C1891 1.322 . S
C1890 H1954 0.930 . S
C1891 C1890 1.322 . S
C1891 C1892 1.459 . S
C1891 H1955 0.929 . S
C1892 C1891 1.459 . S
C1892 C1893 1.445 . S
C1892 C1901 1.395 . S
C1893 C1871 1.432 . S
C1893 C1892 1.445 . S
C1893 C1894 1.370 . S
C1894 C1893 1.370 . S
C1894 C1895 1.438 . S
C1894 H1956 0.930 . S
C1895 C1881 1.497 . S
C1895 C1894 1.438 . S
C1895 C1896 1.360 . S
C1896 C1895 1.360 . S
C1896 C1897 1.401 . S
C1896 C1901 1.446 . S
C1897 C1896 1.401 . S
C1897 C1898 1.347 . S
C1897 H1957 0.929 . S
C1898 C1897 1.347 . S
C1898 C1899 1.455 . S
C1898 H1958 0.930 . S
C1899 C1886 1.412 . S
C1899 C1898 1.455 . S
C1899 C1900 1.331 . S
C1900 C1889 1.451 . S
C1900 C1899 1.331 . S
C1900 C1901 1.497 . S
C1901 C1892 1.395 . S
C1901 C1896 1.446 . S
C1901 C1900 1.497 . S
C1902 C1903 1.582 . S
C1902 H1959 0.962 . S
C1902 H1960 0.959 . S
C1902 H1961 0.958 . S
C1903 C1902 1.582 . S
C1903 O1906 1.458 . S
C1903 H1932 0.980 . S
O1904 C1849 1.426 . S
O1904 C1850 1.334 . S
O1905 C1877 1.412 . S
O1905 C1878 1.393 . S
O1906 C1868 1.435 . S
O1906 C1903 1.458 . S
O1907 C1859 1.468 . S
O1907 C1860 1.408 . S
H1908 C1849 0.980 . S
H1909 C1848 0.959 . S
H1910 C1848 0.959 . S
H1911 C1848 0.960 . S
H1912 C1851 0.929 . S
H1913 C1855 0.929 . S
H1914 C1856 0.959 . S
H1915 C1856 0.961 . S
H1916 C1856 0.961 . S
H1917 C1857 0.960 . S
H1918 C1857 0.960 . S
H1919 C1857 0.961 . S
H1920 C1859 0.980 . S
H1921 C1858 0.961 . S
H1922 C1858 0.960 . S
H1923 C1858 0.959 . S
H1924 C1861 0.930 . S
H1925 C1865 0.931 . S
H1926 C1866 0.959 . S
H1927 C1866 0.961 . S
H1928 C1866 0.959 . S
H1929 C1867 0.960 . S
H1930 C1867 0.960 . S
H1931 C1867 0.960 . S
H1932 C1903 0.980 . S
H1933 C1869 0.930 . S
H1934 C1873 0.930 . S
H1935 C1874 0.961 . S
H1936 C1874 0.960 . S
H1937 C1874 0.958 . S
H1938 C1875 0.961 . S
H1939 C1875 0.960 . S
H1940 C1875 0.960 . S
H1941 C1877 0.980 . S
H1942 C1876 0.961 . S
H1943 C1876 0.961 . S
H1944 C1876 0.959 . S
H1945 C1879 0.932 . S
H1946 C1883 0.929 . S
H1947 C1884 0.961 . S
H1948 C1884 0.959 . S
H1949 C1884 0.959 . S
H1950 C1885 0.960 . S
H1951 C1885 0.962 . S
H1952 C1885 0.961 . S
H1953 C1887 0.929 . S
H1954 C1890 0.930 . S
H1955 C1891 0.929 . S
H1956 C1894 0.930 . S
H1957 C1897 0.929 . S
H1958 C1898 0.930 . S
H1959 C1902 0.962 . S
H1960 C1902 0.959 . S
H1961 C1902 0.958 . S
C1962 C1963 1.560 . S
C1962 H2023 0.959 . S
C1962 H2024 0.959 . S
C1962 H2025 0.960 . S
C1963 C1962 1.560 . S
C1963 O2018 1.426 . S
C1963 H2022 0.980 . S
C1964 C1965 1.407 . S
C1964 C1969 1.418 . S
C1964 O2018 1.334 . S
C1965 C1964 1.407 . S
C1965 C1966 1.360 . S
C1965 H2026 0.929 . S
C1966 C1965 1.360 . S
C1966 C1967 1.401 . S
C1966 C1970 1.527 . S
C1967 C1966 1.401 . S
C1967 C1968 1.405 . S
C1967 C2000 1.587 . S
C1968 C1967 1.405 . S
C1968 C1969 1.332 . S
C1968 C1971 1.496 . S
C1969 C1964 1.418 . S
C1969 C1968 1.332 . S
C1969 H2027 0.929 . S
C1970 C1966 1.527 . S
C1970 H2028 0.959 . S
C1970 H2029 0.961 . S
C1970 H2030 0.961 . S
C1971 C1968 1.496 . S
C1971 H2031 0.960 . S
C1971 H2032 0.960 . S
C1971 H2033 0.961 . S
C1972 C1973 1.517 . S
C1972 H2035 0.961 . S
C1972 H2036 0.960 . S
C1972 H2037 0.959 . S
C1973 C1972 1.517 . S
C1973 O2021 1.468 . S
C1973 H2034 0.980 . S
C1974 C1975 1.349 . S
C1974 C1979 1.367 . S
C1974 O2021 1.408 . S
C1975 C1974 1.349 . S
C1975 C1976 1.407 . S
C1975 H2038 0.930 . S
C1976 C1975 1.407 . S
C1976 C1977 1.449 . S
C1976 C1980 1.535 . S
C1977 C1976 1.449 . S
C1977 C1978 1.384 . S
C1977 C2002 1.553 . S
C1978 C1977 1.384 . S
C1978 C1979 1.364 . S
C1978 C1981 1.450 . S
C1979 C1974 1.367 . S
C1979 C1978 1.364 . S
C1979 H2039 0.931 . S
C1980 C1976 1.535 . S
C1980 H2040 0.959 . S
C1980 H2041 0.961 . S
C1980 H2042 0.959 . S
C1981 C1978 1.450 . S
C1981 H2043 0.960 . S
C1981 H2044 0.960 . S
C1981 H2045 0.960 . S
C1982 C1983 1.309 . S
C1982 C1987 1.304 . S
C1982 O2020 1.435 . S
C1983 C1982 1.309 . S
C1983 C1984 1.476 . S
C1983 H2047 0.930 . S
C1984 C1983 1.476 . S
C1984 C1985 1.400 . S
C1984 C1988 1.567 . S
C1985 C1984 1.400 . S
C1985 C1986 1.373 . S
C1985 C2007 1.432 . S
C1986 C1985 1.373 . S
C1986 C1987 1.339 . S
C1986 C1989 1.530 . S
C1987 C1982 1.304 . S
C1987 C1986 1.339 . S
C1987 H2048 0.930 . S
C1988 C1984 1.567 . S
C1988 H2049 0.961 . S
C1988 H2050 0.960 . S
C1988 H2051 0.958 . S
C1989 C1986 1.530 . S
C1989 H2052 0.961 . S
C1989 H2053 0.960 . S
C1989 H2054 0.960 . S
C1990 C1991 1.530 . S
C1990 H2056 0.961 . S
C1990 H2057 0.961 . S
C1990 H2058 0.959 . S
C1991 C1990 1.530 . S
C1991 O2019 1.412 . S
C1991 H2055 0.980 . S
C1992 C1993 1.288 . S
C1992 C1997 1.377 . S
C1992 O2019 1.393 . S
C1993 C1992 1.288 . S
C1993 C1994 1.369 . S
C1993 H2059 0.932 . S
C1994 C1993 1.369 . S
C1994 C1995 1.398 . S
C1994 C1998 1.527 . S
C1995 C1994 1.398 . S
C1995 C1996 1.380 . S
C1995 C2009 1.497 . S
C1996 C1995 1.380 . S
C1996 C1997 1.383 . S
C1996 C1999 1.603 . S
C1997 C1992 1.377 . S
C1997 C1996 1.383 . S
C1997 H2060 0.929 . S
C1998 C1994 1.527 . S
C1998 H2061 0.961 . S
C1998 H2062 0.959 . S
C1998 H2063 0.959 . S
C1999 C1996 1.603 . S
C1999 H2064 0.960 . S
C1999 H2065 0.962 . S
C1999 H2066 0.961 . S
C2000 C1967 1.587 . S
C2000 C2001 1.360 . S
C2000 C2013 1.412 . S
C2001 C2000 1.360 . S
C2001 C2002 1.365 . S
C2001 H2067 0.929 . S
C2002 C1977 1.553 . S
C2002 C2001 1.365 . S
C2002 C2003 1.404 . S
C2003 C2002 1.404 . S
C2003 C2004 1.395 . S
C2003 C2014 1.451 . S
C2004 C2003 1.395 . S
C2004 C2005 1.322 . S
C2004 H2068 0.930 . S
C2005 C2004 1.322 . S
C2005 C2006 1.459 . S
C2005 H2069 0.929 . S
C2006 C2005 1.459 . S
C2006 C2007 1.445 . S
C2006 C2015 1.395 . S
C2007 C1985 1.432 . S
C2007 C2006 1.445 . S
C2007 C2008 1.370 . S
C2008 C2007 1.370 . S
C2008 C2009 1.438 . S
C2008 H2070 0.930 . S
C2009 C1995 1.497 . S
C2009 C2008 1.438 . S
C2009 C2010 1.360 . S
C2010 C2009 1.360 . S
C2010 C2011 1.401 . S
C2010 C2015 1.446 . S
C2011 C2010 1.401 . S
C2011 C2012 1.347 . S
C2011 H2071 0.929 . S
C2012 C2011 1.347 . S
C2012 C2013 1.455 . S
C2012 H2072 0.930 . S
C2013 C2000 1.412 . S
C2013 C2012 1.455 . S
C2013 C2014 1.331 . S
C2014 C2003 1.451 . S
C2014 C2013 1.331 . S
C2014 C2015 1.497 . S
C2015 C2006 1.395 . S
C2015 C2010 1.446 . S
C2015 C2014 1.497 . S
C2016 C2017 1.582 . S
C2016 H2073 0.962 . S
C2016 H2074 0.959 . S
C2016 H2075 0.958 . S
C2017 C2016 1.582 . S
C2017 O2020 1.458 . S
C2017 H2046 0.980 . S
O2018 C1963 1.426 . S
O2018 C1964 1.334 . S
O2019 C1991 1.412 . S
O2019 C1992 1.393 . S
O2020 C1982 1.435 . S
O2020 C2017 1.458 . S
O2021 C1973 1.468 . S
O2021 C1974 1.408 . S
H2022 C1963 0.980 . S
H2023 C1962 0.959 . S
H2024 C1962 0.959 . S
H2025 C1962 0.960 . S
H2026 C1965 0.929 . S
H2027 C1969 0.929 . S
H2028 C1970 0.959 . S
H2029 C1970 0.961 . S
H2030 C1970 0.961 . S
H2031 C1971 0.960 . S
H2032 C1971 0.960 . S
H2033 C1971 0.961 . S
H2034 C1973 0.980 . S
H2035 C1972 0.961 . S
H2036 C1972 0.960 . S
H2037 C1972 0.959 . S
H2038 C1975 0.930 . S
H2039 C1979 0.931 . S
H2040 C1980 0.959 . S
H2041 C1980 0.961 . S
H2042 C1980 0.959 . S
H2043 C1981 0.960 . S
H2044 C1981 0.960 . S
H2045 C1981 0.960 . S
H2046 C2017 0.980 . S
H2047 C1983 0.930 . S
H2048 C1987 0.930 . S
H2049 C1988 0.961 . S
H2050 C1988 0.960 . S
H2051 C1988 0.958 . S
H2052 C1989 0.961 . S
H2053 C1989 0.960 . S
H2054 C1989 0.960 . S
H2055 C1991 0.980 . S
H2056 C1990 0.961 . S
H2057 C1990 0.961 . S
H2058 C1990 0.959 . S
H2059 C1993 0.932 . S
H2060 C1997 0.929 . S
H2061 C1998 0.961 . S
H2062 C1998 0.959 . S
H2063 C1998 0.959 . S
H2064 C1999 0.960 . S
H2065 C1999 0.962 . S
H2066 C1999 0.961 . S
H2067 C2001 0.929 . S
H2068 C2004 0.930 . S
H2069 C2005 0.929 . S
H2070 C2008 0.930 . S
H2071 C2011 0.929 . S
H2072 C2012 0.930 . S
H2073 C2016 0.962 . S
H2074 C2016 0.959 . S
H2075 C2016 0.958 . S
C2076 C2077 1.560 . S
C2076 H2137 0.959 . S
C2076 H2138 0.959 . S
C2076 H2139 0.960 . S
C2077 C2076 1.560 . S
C2077 O2132 1.426 . S
C2077 H2136 0.980 . S
C2078 C2079 1.407 . S
C2078 C2083 1.418 . S
C2078 O2132 1.334 . S
C2079 C2078 1.407 . S
C2079 C2080 1.360 . S
C2079 H2140 0.929 . S
C2080 C2079 1.360 . S
C2080 C2081 1.401 . S
C2080 C2084 1.527 . S
C2081 C2080 1.401 . S
C2081 C2082 1.405 . S
C2081 C2114 1.587 . S
C2082 C2081 1.405 . S
C2082 C2083 1.332 . S
C2082 C2085 1.496 . S
C2083 C2078 1.418 . S
C2083 C2082 1.332 . S
C2083 H2141 0.929 . S
C2084 C2080 1.527 . S
C2084 H2142 0.959 . S
C2084 H2143 0.961 . S
C2084 H2144 0.961 . S
C2085 C2082 1.496 . S
C2085 H2145 0.960 . S
C2085 H2146 0.960 . S
C2085 H2147 0.961 . S
C2086 C2087 1.517 . S
C2086 H2149 0.961 . S
C2086 H2150 0.960 . S
C2086 H2151 0.959 . S
C2087 C2086 1.517 . S
C2087 O2135 1.468 . S
C2087 H2148 0.980 . S
C2088 C2089 1.349 . S
C2088 C2093 1.367 . S
C2088 O2135 1.408 . S
C2089 C2088 1.349 . S
C2089 C2090 1.407 . S
C2089 H2152 0.930 . S
C2090 C2089 1.407 . S
C2090 C2091 1.449 . S
C2090 C2094 1.535 . S
C2091 C2090 1.449 . S
C2091 C2092 1.384 . S
C2091 C2116 1.553 . S
C2092 C2091 1.384 . S
C2092 C2093 1.364 . S
C2092 C2095 1.450 . S
C2093 C2088 1.367 . S
C2093 C2092 1.364 . S
C2093 H2153 0.931 . S
C2094 C2090 1.535 . S
C2094 H2154 0.959 . S
C2094 H2155 0.961 . S
C2094 H2156 0.959 . S
C2095 C2092 1.450 . S
C2095 H2157 0.960 . S
C2095 H2158 0.960 . S
C2095 H2159 0.960 . S
C2096 C2097 1.309 . S
C2096 C2101 1.304 . S
C2096 O2134 1.435 . S
C2097 C2096 1.309 . S
C2097 C2098 1.476 . S
C2097 H2161 0.930 . S
C2098 C2097 1.476 . S
C2098 C2099 1.400 . S
C2098 C2102 1.567 . S
C2099 C2098 1.400 . S
C2099 C2100 1.373 . S
C2099 C2121 1.432 . S
C2100 C2099 1.373 . S
C2100 C2101 1.339 . S
C2100 C2103 1.530 . S
C2101 C2096 1.304 . S
C2101 C2100 1.339 . S
C2101 H2162 0.930 . S
C2102 C2098 1.567 . S
C2102 H2163 0.961 . S
C2102 H2164 0.960 . S
C2102 H2165 0.958 . S
C2103 C2100 1.530 . S
C2103 H2166 0.961 . S
C2103 H2167 0.960 . S
C2103 H2168 0.960 . S
C2104 C2105 1.530 . S
C2104 H2170 0.961 . S
C2104 H2171 0.961 . S
C2104 H2172 0.959 . S
C2105 C2104 1.530 . S
C2105 O2133 1.412 . S
C2105 H2169 0.980 . S
C2106 C2107 1.288 . S
C2106 C2111 1.377 . S
C2106 O2133 1.393 . S
C2107 C2106 1.288 . S
C2107 C2108 1.369 . S
C2107 H2173 0.932 . S
C2108 C2107 1.369 . S
C2108 C2109 1.398 . S
C2108 C2112 1.527 . S
C2109 C2108 1.398 . S
C2109 C2110 1.380 . S
C2109 C2123 1.497 . S
C2110 C2109 1.380 . S
C2110 C2111 1.383 . S
C2110 C2113 1.603 . S
C2111 C2106 1.377 . S
C2111 C2110 1.383 . S
C2111 H2174 0.929 . S
C2112 C2108 1.527 . S
C2112 H2175 0.961 . S
C2112 H2176 0.959 . S
C2112 H2177 0.959 . S
C2113 C2110 1.603 . S
C2113 H2178 0.960 . S
C2113 H2179 0.962 . S
C2113 H2180 0.961 . S
C2114 C2081 1.587 . S
C2114 C2115 1.360 . S
C2114 C2127 1.412 . S
C2115 C2114 1.360 . S
C2115 C2116 1.365 . S
C2115 H2181 0.929 . S
C2116 C2091 1.553 . S
C2116 C2115 1.365 . S
C2116 C2117 1.404 . S
C2117 C2116 1.404 . S
C2117 C2118 1.395 . S
C2117 C2128 1.451 . S
C2118 C2117 1.395 . S
C2118 C2119 1.322 . S
C2118 H2182 0.930 . S
C2119 C2118 1.322 . S
C2119 C2120 1.459 . S
C2119 H2183 0.929 . S
C2120 C2119 1.459 . S
C2120 C2121 1.445 . S
C2120 C2129 1.395 . S
C2121 C2099 1.432 . S
C2121 C2120 1.445 . S
C2121 C2122 1.370 . S
C2122 C2121 1.370 . S
C2122 C2123 1.438 . S
C2122 H2184 0.930 . S
C2123 C2109 1.497 . S
C2123 C2122 1.438 . S
C2123 C2124 1.360 . S
C2124 C2123 1.360 . S
C2124 C2125 1.401 . S
C2124 C2129 1.446 . S
C2125 C2124 1.401 . S
C2125 C2126 1.347 . S
C2125 H2185 0.929 . S
C2126 C2125 1.347 . S
C2126 C2127 1.455 . S
C2126 H2186 0.930 . S
C2127 C2114 1.412 . S
C2127 C2126 1.455 . S
C2127 C2128 1.331 . S
C2128 C2117 1.451 . S
C2128 C2127 1.331 . S
C2128 C2129 1.497 . S
C2129 C2120 1.395 . S
C2129 C2124 1.446 . S
C2129 C2128 1.497 . S
C2130 C2131 1.582 . S
C2130 H2187 0.962 . S
C2130 H2188 0.959 . S
C2130 H2189 0.958 . S
C2131 C2130 1.582 . S
C2131 O2134 1.458 . S
C2131 H2160 0.980 . S
O2132 C2077 1.426 . S
O2132 C2078 1.334 . S
O2133 C2105 1.412 . S
O2133 C2106 1.393 . S
O2134 C2096 1.435 . S
O2134 C2131 1.458 . S
O2135 C2087 1.468 . S
O2135 C2088 1.408 . S
H2136 C2077 0.980 . S
H2137 C2076 0.959 . S
H2138 C2076 0.959 . S
H2139 C2076 0.960 . S
H2140 C2079 0.929 . S
H2141 C2083 0.929 . S
H2142 C2084 0.959 . S
H2143 C2084 0.961 . S
H2144 C2084 0.961 . S
H2145 C2085 0.960 . S
H2146 C2085 0.960 . S
H2147 C2085 0.961 . S
H2148 C2087 0.980 . S
H2149 C2086 0.961 . S
H2150 C2086 0.960 . S
H2151 C2086 0.959 . S
H2152 C2089 0.930 . S
H2153 C2093 0.931 . S
H2154 C2094 0.959 . S
H2155 C2094 0.961 . S
H2156 C2094 0.959 . S
H2157 C2095 0.960 . S
H2158 C2095 0.960 . S
H2159 C2095 0.960 . S
H2160 C2131 0.980 . S
H2161 C2097 0.930 . S
H2162 C2101 0.930 . S
H2163 C2102 0.961 . S
H2164 C2102 0.960 . S
H2165 C2102 0.958 . S
H2166 C2103 0.961 . S
H2167 C2103 0.960 . S
H2168 C2103 0.960 . S
H2169 C2105 0.980 . S
H2170 C2104 0.961 . S
H2171 C2104 0.961 . S
H2172 C2104 0.959 . S
H2173 C2107 0.932 . S
H2174 C2111 0.929 . S
H2175 C2112 0.961 . S
H2176 C2112 0.959 . S
H2177 C2112 0.959 . S
H2178 C2113 0.960 . S
H2179 C2113 0.962 . S
H2180 C2113 0.961 . S
H2181 C2115 0.929 . S
H2182 C2118 0.930 . S
H2183 C2119 0.929 . S
H2184 C2122 0.930 . S
H2185 C2125 0.929 . S
H2186 C2126 0.930 . S
H2187 C2130 0.962 . S
H2188 C2130 0.959 . S
H2189 C2130 0.958 . S
C2190 C2191 1.560 . S
C2190 H2251 0.959 . S
C2190 H2252 0.959 . S
C2190 H2253 0.960 . S
C2191 C2190 1.560 . S
C2191 O2246 1.426 . S
C2191 H2250 0.980 . S
C2192 C2193 1.407 . S
C2192 C2197 1.418 . S
C2192 O2246 1.334 . S
C2193 C2192 1.407 . S
C2193 C2194 1.360 . S
C2193 H2254 0.929 . S
C2194 C2193 1.360 . S
C2194 C2195 1.401 . S
C2194 C2198 1.527 . S
C2195 C2194 1.401 . S
C2195 C2196 1.405 . S
C2195 C2228 1.587 . S
C2196 C2195 1.405 . S
C2196 C2197 1.332 . S
C2196 C2199 1.496 . S
C2197 C2192 1.418 . S
C2197 C2196 1.332 . S
C2197 H2255 0.929 . S
C2198 C2194 1.527 . S
C2198 H2256 0.959 . S
C2198 H2257 0.961 . S
C2198 H2258 0.961 . S
C2199 C2196 1.496 . S
C2199 H2259 0.960 . S
C2199 H2260 0.960 . S
C2199 H2261 0.961 . S
C2200 C2201 1.517 . S
C2200 H2263 0.961 . S
C2200 H2264 0.960 . S
C2200 H2265 0.959 . S
C2201 C2200 1.517 . S
C2201 O2249 1.468 . S
C2201 H2262 0.980 . S
C2202 C2203 1.349 . S
C2202 C2207 1.367 . S
C2202 O2249 1.408 . S
C2203 C2202 1.349 . S
C2203 C2204 1.407 . S
C2203 H2266 0.930 . S
C2204 C2203 1.407 . S
C2204 C2205 1.449 . S
C2204 C2208 1.535 . S
C2205 C2204 1.449 . S
C2205 C2206 1.384 . S
C2205 C2230 1.553 . S
C2206 C2205 1.384 . S
C2206 C2207 1.364 . S
C2206 C2209 1.450 . S
C2207 C2202 1.367 . S
C2207 C2206 1.364 . S
C2207 H2267 0.931 . S
C2208 C2204 1.535 . S
C2208 H2268 0.959 . S
C2208 H2269 0.961 . S
C2208 H2270 0.959 . S
C2209 C2206 1.450 . S
C2209 H2271 0.960 . S
C2209 H2272 0.960 . S
C2209 H2273 0.960 . S
C2210 C2211 1.309 . S
C2210 C2215 1.304 . S
C2210 O2248 1.435 . S
C2211 C2210 1.309 . S
C2211 C2212 1.476 . S
C2211 H2275 0.930 . S
C2212 C2211 1.476 . S
C2212 C2213 1.400 . S
C2212 C2216 1.567 . S
C2213 C2212 1.400 . S
C2213 C2214 1.373 . S
C2213 C2235 1.432 . S
C2214 C2213 1.373 . S
C2214 C2215 1.339 . S
C2214 C2217 1.530 . S
C2215 C2210 1.304 . S
C2215 C2214 1.339 . S
C2215 H2276 0.930 . S
C2216 C2212 1.567 . S
C2216 H2277 0.961 . S
C2216 H2278 0.960 . S
C2216 H2279 0.958 . S
C2217 C2214 1.530 . S
C2217 H2280 0.961 . S
C2217 H2281 0.960 . S
C2217 H2282 0.960 . S
C2218 C2219 1.530 . S
C2218 H2284 0.961 . S
C2218 H2285 0.961 . S
C2218 H2286 0.959 . S
C2219 C2218 1.530 . S
C2219 O2247 1.412 . S
C2219 H2283 0.980 . S
C2220 C2221 1.288 . S
C2220 C2225 1.377 . S
C2220 O2247 1.393 . S
C2221 C2220 1.288 . S
C2221 C2222 1.369 . S
C2221 H2287 0.932 . S
C2222 C2221 1.369 . S
C2222 C2223 1.398 . S
C2222 C2226 1.527 . S
C2223 C2222 1.398 . S
C2223 C2224 1.380 . S
C2223 C2237 1.497 . S
C2224 C2223 1.380 . S
C2224 C2225 1.383 . S
C2224 C2227 1.603 . S
C2225 C2220 1.377 . S
C2225 C2224 1.383 . S
C2225 H2288 0.929 . S
C2226 C2222 1.527 . S
C2226 H2289 0.961 . S
C2226 H2290 0.959 . S
C2226 H2291 0.959 . S
C2227 C2224 1.603 . S
C2227 H2292 0.960 . S
C2227 H2293 0.962 . S
C2227 H2294 0.961 . S
C2228 C2195 1.587 . S
C2228 C2229 1.360 . S
C2228 C2241 1.412 . S
C2229 C2228 1.360 . S
C2229 C2230 1.365 . S
C2229 H2295 0.929 . S
C2230 C2205 1.553 . S
C2230 C2229 1.365 . S
C2230 C2231 1.404 . S
C2231 C2230 1.404 . S
C2231 C2232 1.395 . S
C2231 C2242 1.451 . S
C2232 C2231 1.395 . S
C2232 C2233 1.322 . S
C2232 H2296 0.930 . S
C2233 C2232 1.322 . S
C2233 C2234 1.459 . S
C2233 H2297 0.929 . S
C2234 C2233 1.459 . S
C2234 C2235 1.445 . S
C2234 C2243 1.395 . S
C2235 C2213 1.432 . S
C2235 C2234 1.445 . S
C2235 C2236 1.370 . S
C2236 C2235 1.370 . S
C2236 C2237 1.438 . S
C2236 H2298 0.930 . S
C2237 C2223 1.497 . S
C2237 C2236 1.438 . S
C2237 C2238 1.360 . S
C2238 C2237 1.360 . S
C2238 C2239 1.401 . S
C2238 C2243 1.446 . S
C2239 C2238 1.401 . S
C2239 C2240 1.347 . S
C2239 H2299 0.929 . S
C2240 C2239 1.347 . S
C2240 C2241 1.455 . S
C2240 H2300 0.930 . S
C2241 C2228 1.412 . S
C2241 C2240 1.455 . S
C2241 C2242 1.331 . S
C2242 C2231 1.451 . S
C2242 C2241 1.331 . S
C2242 C2243 1.497 . S
C2243 C2234 1.395 . S
C2243 C2238 1.446 . S
C2243 C2242 1.497 . S
C2244 C2245 1.582 . S
C2244 H2301 0.962 . S
C2244 H2302 0.959 . S
C2244 H2303 0.958 . S
C2245 C2244 1.582 . S
C2245 O2248 1.458 . S
C2245 H2274 0.980 . S
O2246 C2191 1.426 . S
O2246 C2192 1.334 . S
O2247 C2219 1.412 . S
O2247 C2220 1.393 . S
O2248 C2210 1.435 . S
O2248 C2245 1.458 . S
O2249 C2201 1.468 . S
O2249 C2202 1.408 . S
H2250 C2191 0.980 . S
H2251 C2190 0.959 . S
H2252 C2190 0.959 . S
H2253 C2190 0.960 . S
H2254 C2193 0.929 . S
H2255 C2197 0.929 . S
H2256 C2198 0.959 . S
H2257 C2198 0.961 . S
H2258 C2198 0.961 . S
H2259 C2199 0.960 . S
H2260 C2199 0.960 . S
H2261 C2199 0.961 . S
H2262 C2201 0.980 . S
H2263 C2200 0.961 . S
H2264 C2200 0.960 . S
H2265 C2200 0.959 . S
H2266 C2203 0.930 . S
H2267 C2207 0.931 . S
H2268 C2208 0.959 . S
H2269 C2208 0.961 . S
H2270 C2208 0.959 . S
H2271 C2209 0.960 . S
H2272 C2209 0.960 . S
H2273 C2209 0.960 . S
H2274 C2245 0.980 . S
H2275 C2211 0.930 . S
H2276 C2215 0.930 . S
H2277 C2216 0.961 . S
H2278 C2216 0.960 . S
H2279 C2216 0.958 . S
H2280 C2217 0.961 . S
H2281 C2217 0.960 . S
H2282 C2217 0.960 . S
H2283 C2219 0.980 . S
H2284 C2218 0.961 . S
H2285 C2218 0.961 . S
H2286 C2218 0.959 . S
H2287 C2221 0.932 . S
H2288 C2225 0.929 . S
H2289 C2226 0.961 . S
H2290 C2226 0.959 . S
H2291 C2226 0.959 . S
H2292 C2227 0.960 . S
H2293 C2227 0.962 . S
H2294 C2227 0.961 . S
H2295 C2229 0.929 . S
H2296 C2232 0.930 . S
H2297 C2233 0.929 . S
H2298 C2236 0.930 . S
H2299 C2239 0.929 . S
H2300 C2240 0.930 . S
H2301 C2244 0.962 . S
H2302 C2244 0.959 . S
H2303 C2244 0.958 . S
H2304 C2305 0.951 . S
C2305 H2304 0.951 . S
C2305 C2311 1.265 1_655 S
H2306 C2311 0.950 . S
H2307 C2315 0.949 . S
H2308 C2316 0.950 . S
H2309 C2317 0.951 . S
H2310 C2318 0.951 . S
C2311 C2305 1.265 1_455 S
C2311 H2306 0.950 . S
C2311 C2312 1.488 . S
C2312 C2311 1.488 . S
C2312 C2313 1.398 . S
C2312 C2329 1.383 1_455 S
C2313 C2312 1.398 . S
C2313 C2314 1.438 . S
C2313 C2318 1.429 . S
C2314 C2313 1.438 . S
C2314 C2315 1.428 . S
C2314 C2327 1.394 1_455 S
C2315 H2307 0.949 . S
C2315 C2314 1.428 . S
C2315 C2316 1.345 . S
C2316 H2308 0.950 . S
C2316 C2315 1.345 . S
C2316 C2317 1.424 . S
C2317 H2309 0.951 . S
C2317 C2316 1.424 . S
C2317 C2318 1.347 . S
C2318 H2310 0.951 . S
C2318 C2313 1.429 . S
C2318 C2317 1.347 . S
H2319 C2320 0.951 1_455 S
C2320 H2319 0.951 1_655 S
C2320 C2326 1.265 . S
H2321 C2326 0.950 . S
H2322 C2330 0.949 . S
H2323 C2331 0.950 . S
H2324 C2332 0.951 . S
H2325 C2333 0.951 . S
C2326 C2320 1.265 . S
C2326 H2321 0.950 . S
C2326 C2327 1.478 . S
C2327 C2314 1.394 1_655 S
C2327 C2326 1.478 . S
C2327 C2328 1.397 . S
C2328 C2327 1.397 . S
C2328 C2329 1.438 . S
C2328 C2333 1.429 . S
C2329 C2312 1.383 1_655 S
C2329 C2328 1.438 . S
C2329 C2330 1.428 . S
C2330 H2322 0.949 . S
C2330 C2329 1.428 . S
C2330 C2331 1.345 . S
C2331 H2323 0.950 . S
C2331 C2330 1.345 . S
C2331 C2332 1.424 . S
C2332 H2324 0.951 . S
C2332 C2331 1.424 . S
C2332 C2333 1.347 . S
C2333 H2325 0.951 . S
C2333 C2328 1.429 . S
C2333 C2332 1.347 . S
H2334 C2335 0.951 . S
C2335 H2334 0.951 . S
C2335 C2341 1.265 . S
H2336 C2341 0.950 . S
H2337 C2345 0.949 . S
H2338 C2346 0.950 . S
H2339 C2347 0.951 . S
H2340 C2348 0.951 . S
C2341 C2335 1.265 . S
C2341 H2336 0.950 . S
C2341 C2342 1.478 . S
C2342 C2341 1.478 . S
C2342 C2343 1.397 . S
C2342 C2359 1.394 . S
C2343 C2342 1.397 . S
C2343 C2344 1.438 . S
C2343 C2348 1.429 . S
C2344 C2343 1.438 . S
C2344 C2345 1.428 . S
C2344 C2357 1.394 . S
C2345 H2337 0.949 . S
C2345 C2344 1.428 . S
C2345 C2346 1.345 . S
C2346 H2338 0.950 . S
C2346 C2345 1.345 . S
C2346 C2347 1.424 . S
C2347 H2339 0.951 . S
C2347 C2346 1.424 . S
C2347 C2348 1.347 . S
C2348 H2340 0.951 . S
C2348 C2343 1.429 . S
C2348 C2347 1.347 . S
H2349 C2350 0.951 . S
C2350 H2349 0.951 . S
C2350 C2356 1.265 . S
H2351 C2356 0.950 . S
H2352 C2360 0.949 . S
H2353 C2361 0.950 . S
H2354 C2362 0.951 . S
H2355 C2363 0.951 . S
C2356 C2350 1.265 . S
C2356 H2351 0.950 . S
C2356 C2357 1.478 . S
C2357 C2344 1.394 . S
C2357 C2356 1.478 . S
C2357 C2358 1.397 . S
C2358 C2357 1.397 . S
C2358 C2359 1.438 . S
C2358 C2363 1.429 . S
C2359 C2342 1.394 . S
C2359 C2358 1.438 . S
C2359 C2360 1.428 . S
C2360 H2352 0.949 . S
C2360 C2359 1.428 . S
C2360 C2361 1.345 . S
C2361 H2353 0.950 . S
C2361 C2360 1.345 . S
C2361 C2362 1.424 . S
C2362 H2354 0.951 . S
C2362 C2361 1.424 . S
C2362 C2363 1.347 . S
C2363 H2355 0.951 . S
C2363 C2358 1.429 . S
C2363 C2362 1.347 . S
H2364 C2365 0.951 . S
C2365 H2364 0.951 . S
C2365 C2371 1.265 . S
H2366 C2371 0.950 . S
H2367 C2375 0.949 . S
H2368 C2376 0.950 . S
H2369 C2377 0.951 . S
H2370 C2378 0.951 . S
C2371 C2365 1.265 . S
C2371 H2366 0.950 . S
C2371 C2372 1.478 . S
C2372 C2371 1.478 . S
C2372 C2373 1.397 . S
C2372 C2389 1.394 1_545 S
C2373 C2372 1.397 . S
C2373 C2374 1.438 . S
C2373 C2378 1.429 . S
C2374 C2373 1.438 . S
C2374 C2375 1.428 . S
C2374 C2387 1.394 . S
C2375 H2367 0.949 . S
C2375 C2374 1.428 . S
C2375 C2376 1.345 . S
C2376 H2368 0.950 . S
C2376 C2375 1.345 . S
C2376 C2377 1.424 . S
C2377 H2369 0.951 . S
C2377 C2376 1.424 . S
C2377 C2378 1.347 . S
C2378 H2370 0.951 . S
C2378 C2373 1.429 . S
C2378 C2377 1.347 . S
H2379 C2380 0.951 . S
C2380 H2379 0.951 . S
C2380 C2386 1.265 . S
H2381 C2386 0.950 . S
H2382 C2390 0.949 . S
H2383 C2391 0.950 . S
H2384 C2392 0.951 . S
H2385 C2393 0.951 . S
C2386 C2380 1.265 . S
C2386 H2381 0.950 . S
C2386 C2387 1.478 . S
C2387 C2374 1.394 . S
C2387 C2386 1.478 . S
C2387 C2388 1.397 1_545 S
C2388 C2387 1.397 1_565 S
C2388 C2389 1.438 . S
C2388 C2393 1.429 . S
C2389 C2372 1.394 1_565 S
C2389 C2388 1.438 . S
C2389 C2390 1.428 . S
C2390 H2382 0.949 . S
C2390 C2389 1.428 . S
C2390 C2391 1.345 . S
C2391 H2383 0.950 . S
C2391 C2390 1.345 . S
C2391 C2392 1.424 . S
C2392 H2384 0.951 . S
C2392 C2391 1.424 . S
C2392 C2393 1.347 . S
C2393 H2385 0.951 . S
C2393 C2388 1.429 . S
C2393 C2392 1.347 . S
H2394 C2395 0.951 . S
C2395 H2394 0.951 . S
C2395 C2401 1.265 . S
H2396 C2401 0.950 . S
H2397 C2405 0.949 . S
H2398 C2406 0.950 . S
H2399 C2407 0.951 . S
H2400 C2408 0.951 . S
C2401 C2395 1.265 . S
C2401 H2396 0.950 . S
C2401 C2402 1.478 . S
C2402 C2401 1.478 . S
C2402 C2403 1.397 1_565 S
C2402 C2419 1.394 . S
C2403 C2402 1.397 1_545 S
C2403 C2404 1.438 . S
C2403 C2408 1.429 . S
C2404 C2403 1.438 . S
C2404 C2405 1.428 . S
C2404 C2417 1.394 1_545 S
C2405 H2397 0.949 . S
C2405 C2404 1.428 . S
C2405 C2406 1.345 . S
C2406 H2398 0.950 . S
C2406 C2405 1.345 . S
C2406 C2407 1.424 . S
C2407 H2399 0.951 . S
C2407 C2406 1.424 . S
C2407 C2408 1.347 . S
C2408 H2400 0.951 . S
C2408 C2403 1.429 . S
C2408 C2407 1.347 . S
H2409 C2410 0.951 . S
C2410 H2409 0.951 . S
C2410 C2416 1.265 . S
H2411 C2416 0.950 . S
H2412 C2420 0.949 . S
H2413 C2421 0.950 . S
H2414 C2422 0.951 . S
H2415 C2423 0.951 . S
C2416 C2410 1.265 . S
C2416 H2411 0.950 . S
C2416 C2417 1.478 . S
C2417 C2404 1.394 1_565 S
C2417 C2416 1.478 . S
C2417 C2418 1.397 . S
C2418 C2417 1.397 . S
C2418 C2419 1.438 . S
C2418 C2423 1.429 . S
C2419 C2402 1.394 . S
C2419 C2418 1.438 . S
C2419 C2420 1.428 . S
C2420 H2412 0.949 . S
C2420 C2419 1.428 . S
C2420 C2421 1.345 . S
C2421 H2413 0.950 . S
C2421 C2420 1.345 . S
C2421 C2422 1.424 . S
C2422 H2414 0.951 . S
C2422 C2421 1.424 . S
C2422 C2423 1.347 . S
C2423 H2415 0.951 . S
C2423 C2418 1.429 . S
C2423 C2422 1.347 . S
H2424 C2425 0.951 . S
C2425 H2424 0.951 . S
C2425 C2431 1.265 . S
H2426 C2431 0.950 . S
H2427 C2435 0.949 1_655 S
H2428 C2436 0.958 . S
H2429 C2437 0.951 . S
H2430 C2438 0.951 . S
C2431 C2425 1.265 . S
C2431 H2426 0.950 . S
C2431 C2432 1.478 . S
C2432 C2431 1.478 . S
C2432 C2433 1.397 . S
C2432 C2449 1.394 . S
C2433 C2432 1.397 . S
C2433 C2434 1.438 . S
C2433 C2438 1.429 . S
C2434 C2433 1.438 . S
C2434 C2435 1.428 . S
C2434 C2447 1.394 . S
C2435 H2427 0.949 1_455 S
C2435 C2434 1.428 . S
C2435 C2436 1.356 1_455 S
C2436 H2428 0.958 . S
C2436 C2435 1.356 1_655 S
C2436 C2437 1.405 1_655 S
C2437 H2429 0.951 . S
C2437 C2436 1.405 1_455 S
C2437 C2438 1.347 . S
C2438 H2430 0.951 . S
C2438 C2433 1.429 . S
C2438 C2437 1.347 . S
H2439 C2440 0.951 . S
C2440 H2439 0.951 . S
C2440 C2446 1.265 . S
H2441 C2446 0.950 1_655 S
H2442 C2450 0.949 . S
H2443 C2451 0.950 . S
H2444 C2452 0.951 . S
H2445 C2453 0.951 . S
C2446 C2440 1.265 . S
C2446 H2441 0.950 1_455 S
C2446 C2447 1.478 . S
C2447 C2434 1.394 . S
C2447 C2446 1.478 . S
C2447 C2448 1.397 . S
C2448 C2447 1.397 . S
C2448 C2449 1.438 . S
C2448 C2453 1.429 . S
C2449 C2432 1.394 . S
C2449 C2448 1.438 . S
C2449 C2450 1.428 . S
C2450 H2442 0.949 . S
C2450 C2449 1.428 . S
C2450 C2451 1.345 . S
C2451 H2443 0.950 . S
C2451 C2450 1.345 . S
C2451 C2452 1.424 . S
C2452 H2444 0.951 . S
C2452 C2451 1.424 . S
C2452 C2453 1.347 . S
C2453 H2445 0.951 . S
C2453 C2448 1.429 . S
C2453 C2452 1.347 . S
H2454 C2455 0.951 . S
C2455 H2454 0.951 . S
C2455 C2461 1.265 . S
H2456 C2461 0.950 . S
H2457 C2465 0.949 . S
H2458 C2466 0.950 . S
H2459 C2467 0.951 1_554 S
H2460 C2468 0.951 . S
C2461 C2455 1.265 . S
C2461 H2456 0.950 . S
C2461 C2462 1.478 . S
C2462 C2461 1.478 . S
C2462 C2463 1.397 . S
C2462 C2479 1.394 . S
C2463 C2462 1.397 . S
C2463 C2464 1.438 . S
C2463 C2468 1.429 . S
C2464 C2463 1.438 . S
C2464 C2465 1.428 . S
C2464 C2477 1.394 . S
C2465 H2457 0.949 . S
C2465 C2464 1.428 . S
C2465 C2466 1.345 . S
C2466 H2458 0.950 . S
C2466 C2465 1.345 . S
C2466 C2467 1.424 . S
C2467 H2459 0.951 1_556 S
C2467 C2466 1.424 . S
C2467 C2468 1.347 . S
C2468 H2460 0.951 . S
C2468 C2463 1.429 . S
C2468 C2467 1.347 . S
H2469 C2470 0.951 . S
C2470 H2469 0.951 . S
C2470 C2476 1.265 . S
H2471 C2476 0.950 . S
H2472 C2480 0.949 . S
H2473 C2481 0.950 . S
H2474 C2482 0.951 . S
H2475 C2483 0.951 . S
C2476 C2470 1.265 . S
C2476 H2471 0.950 . S
C2476 C2477 1.478 . S
C2477 C2464 1.394 . S
C2477 C2476 1.478 . S
C2477 C2478 1.397 . S
C2478 C2477 1.397 . S
C2478 C2479 1.438 . S
C2478 C2483 1.429 . S
C2479 C2462 1.394 . S
C2479 C2478 1.438 . S
C2479 C2480 1.428 . S
C2480 H2472 0.949 . S
C2480 C2479 1.428 . S
C2480 C2481 1.345 . S
C2481 H2473 0.950 . S
C2481 C2480 1.345 . S
C2481 C2482 1.424 . S
C2482 H2474 0.951 . S
C2482 C2481 1.424 . S
C2482 C2483 1.347 . S
C2483 H2475 0.951 . S
C2483 C2478 1.429 . S
C2483 C2482 1.347 . S
H2484 C2485 0.951 . S
C2485 H2484 0.951 . S
C2485 C2491 1.265 . S
H2486 C2491 0.950 1_655 S
H2487 C2495 0.949 . S
H2488 C2496 0.950 . S
H2489 C2497 0.951 . S
H2490 C2498 0.951 . S
C2491 C2485 1.265 . S
C2491 H2486 0.950 1_455 S
C2491 C2492 1.478 . S
C2492 C2491 1.478 . S
C2492 C2493 1.396 1_455 S
C2492 C2509 1.394 . S
C2493 C2492 1.396 1_655 S
C2493 C2494 1.436 1_655 S
C2493 C2498 1.432 . S
C2494 C2493 1.436 1_455 S
C2494 C2495 1.428 1_455 S
C2494 C2507 1.394 . S
C2495 H2487 0.949 . S
C2495 C2494 1.428 1_655 S
C2495 C2496 1.345 . S
C2496 H2488 0.950 . S
C2496 C2495 1.345 . S
C2496 C2497 1.424 . S
C2497 H2489 0.951 . S
C2497 C2496 1.424 . S
C2497 C2498 1.347 . S
C2498 H2490 0.951 . S
C2498 C2493 1.432 . S
C2498 C2497 1.347 . S
H2499 C2500 1.028 . S
C2500 H2499 1.028 . S
C2500 C2506 1.238 1_655 S
H2501 C2506 0.950 . S
H2502 C2510 0.949 . S
H2503 C2511 0.950 1_554 S
H2504 C2512 0.951 . S
H2505 C2513 0.951 . S
C2506 C2500 1.238 1_455 S
C2506 H2501 0.950 . S
C2506 C2507 1.478 . S
C2507 C2494 1.394 . S
C2507 C2506 1.478 . S
C2507 C2508 1.397 . S
C2508 C2507 1.397 . S
C2508 C2509 1.438 . S
C2508 C2513 1.429 . S
C2509 C2492 1.394 . S
C2509 C2508 1.438 . S
C2509 C2510 1.428 . S
C2510 H2502 0.949 . S
C2510 C2509 1.428 . S
C2510 C2511 1.345 . S
C2511 H2503 0.950 1_556 S
C2511 C2510 1.345 . S
C2511 C2512 1.424 . S
C2512 H2504 0.951 . S
C2512 C2511 1.424 . S
C2512 C2513 1.347 . S
C2513 H2505 0.951 . S
C2513 C2508 1.429 . S
C2513 C2512 1.347 . S
H2514 C2515 0.951 . S
C2515 H2514 0.951 . S
C2515 C2521 1.265 . S
H2516 C2521 0.950 . S
H2517 C2525 0.949 . S
H2518 C2526 0.950 . S
H2519 C2527 0.951 . S
H2520 C2528 0.951 . S
C2521 C2515 1.265 . S
C2521 H2516 0.950 . S
C2521 C2522 1.478 . S
C2522 C2521 1.478 . S
C2522 C2523 1.397 . S
C2522 C2539 1.394 . S
C2523 C2522 1.397 . S
C2523 C2524 1.438 . S
C2523 C2528 1.429 . S
C2524 C2523 1.438 . S
C2524 C2525 1.428 . S
C2524 C2537 1.394 . S
C2525 H2517 0.949 . S
C2525 C2524 1.428 . S
C2525 C2526 1.345 . S
C2526 H2518 0.950 . S
C2526 C2525 1.345 . S
C2526 C2527 1.424 . S
C2527 H2519 0.951 . S
C2527 C2526 1.424 . S
C2527 C2528 1.347 . S
C2528 H2520 0.951 . S
C2528 C2523 1.429 . S
C2528 C2527 1.347 . S
H2529 C2530 0.951 . S
C2530 H2529 0.951 . S
C2530 C2536 1.265 . S
H2531 C2536 0.950 . S
H2532 C2540 0.949 . S
H2533 C2541 0.950 . S
H2534 C2542 0.951 . S
H2535 C2543 0.951 . S
C2536 C2530 1.265 . S
C2536 H2531 0.950 . S
C2536 C2537 1.478 . S
C2537 C2524 1.394 . S
C2537 C2536 1.478 . S
C2537 C2538 1.397 . S
C2538 C2537 1.397 . S
C2538 C2539 1.438 . S
C2538 C2543 1.429 . S
C2539 C2522 1.394 . S
C2539 C2538 1.438 . S
C2539 C2540 1.428 . S
C2540 H2532 0.949 . S
C2540 C2539 1.428 . S
C2540 C2541 1.345 . S
C2541 H2533 0.950 . S
C2541 C2540 1.345 . S
C2541 C2542 1.424 . S
C2542 H2534 0.951 . S
C2542 C2541 1.424 . S
C2542 C2543 1.347 . S
C2543 H2535 0.951 . S
C2543 C2538 1.429 . S
C2543 C2542 1.347 . S
H2544 C2545 0.951 . S
C2545 H2544 0.951 . S
C2545 C2551 1.265 . S
H2546 C2551 0.950 . S
H2547 C2555 0.949 . S
H2548 C2556 0.950 . S
H2549 C2557 0.951 . S
H2550 C2558 0.951 . S
C2551 C2545 1.265 . S
C2551 H2546 0.950 . S
C2551 C2552 1.478 . S
C2552 C2551 1.478 . S
C2552 C2553 1.397 1_565 S
C2552 C2569 1.394 . S
C2553 C2552 1.397 1_545 S
C2553 C2554 1.438 . S
C2553 C2558 1.429 . S
C2554 C2553 1.438 . S
C2554 C2555 1.428 . S
C2554 C2567 1.394 1_545 S
C2555 H2547 0.949 . S
C2555 C2554 1.428 . S
C2555 C2556 1.345 . S
C2556 H2548 0.950 . S
C2556 C2555 1.345 . S
C2556 C2557 1.424 . S
C2557 H2549 0.951 . S
C2557 C2556 1.424 . S
C2557 C2558 1.347 . S
C2558 H2550 0.951 . S
C2558 C2553 1.429 . S
C2558 C2557 1.347 . S
H2559 C2560 0.940 . S
C2560 H2559 0.940 . S
C2560 C2566 1.313 . S
H2561 C2566 0.950 . S
H2562 C2570 0.949 . S
H2563 C2571 0.950 . S
H2564 C2572 0.951 . S
H2565 C2573 0.951 . S
C2566 C2560 1.313 . S
C2566 H2561 0.950 . S
C2566 C2567 1.478 . S
C2567 C2554 1.394 1_565 S
C2567 C2566 1.478 . S
C2567 C2568 1.397 . S
C2568 C2567 1.397 . S
C2568 C2569 1.438 . S
C2568 C2573 1.429 . S
C2569 C2552 1.394 . S
C2569 C2568 1.438 . S
C2569 C2570 1.428 . S
C2570 H2562 0.949 . S
C2570 C2569 1.428 . S
C2570 C2571 1.345 . S
C2571 H2563 0.950 . S
C2571 C2570 1.345 . S
C2571 C2572 1.424 . S
C2572 H2564 0.951 . S
C2572 C2571 1.424 . S
C2572 C2573 1.347 . S
C2573 H2565 0.951 . S
C2573 C2568 1.429 . S
C2573 C2572 1.347 . S
H2574 C2575 0.951 . S
C2575 H2574 0.951 . S
C2575 C2581 1.265 . S
H2576 C2581 0.950 . S
H2577 C2585 0.949 . S
H2578 C2586 0.950 . S
H2579 C2587 0.951 . S
H2580 C2588 0.951 . S
C2581 C2575 1.265 . S
C2581 H2576 0.950 . S
C2581 C2582 1.478 . S
C2582 C2581 1.478 . S
C2582 C2583 1.397 1_545 S
C2582 C2599 1.394 . S
C2583 C2582 1.397 1_565 S
C2583 C2584 1.438 . S
C2583 C2588 1.429 . S
C2584 C2583 1.438 . S
C2584 C2585 1.428 . S
C2584 C2597 1.394 1_565 S
C2585 H2577 0.949 . S
C2585 C2584 1.428 . S
C2585 C2586 1.345 . S
C2586 H2578 0.950 . S
C2586 C2585 1.345 . S
C2586 C2587 1.424 . S
C2587 H2579 0.951 . S
C2587 C2586 1.424 . S
C2587 C2588 1.347 . S
C2588 H2580 0.951 . S
C2588 C2583 1.429 . S
C2588 C2587 1.347 . S
H2589 C2590 0.951 1_565 S
C2590 H2589 0.951 1_545 S
C2590 C2596 1.265 . S
H2591 C2596 0.950 . S
H2592 C2600 0.949 . S
H2593 C2601 0.950 . S
H2594 C2602 0.951 . S
H2595 C2603 0.951 . S
C2596 C2590 1.265 . S
C2596 H2591 0.950 . S
C2596 C2597 1.478 . S
C2597 C2584 1.394 1_545 S
C2597 C2596 1.478 . S
C2597 C2598 1.397 . S
C2598 C2597 1.397 . S
C2598 C2599 1.438 . S
C2598 C2603 1.429 . S
C2599 C2582 1.394 . S
C2599 C2598 1.438 . S
C2599 C2600 1.428 . S
C2600 H2592 0.949 . S
C2600 C2599 1.428 . S
C2600 C2601 1.345 . S
C2601 H2593 0.950 . S
C2601 C2600 1.345 . S
C2601 C2602 1.424 . S
C2602 H2594 0.951 . S
C2602 C2601 1.424 . S
C2602 C2603 1.347 . S
C2603 H2595 0.951 . S
C2603 C2598 1.429 . S
C2603 C2602 1.347 . S
H2604 C2605 0.951 . S
C2605 H2604 0.951 . S
C2605 C2611 1.265 . S
H2606 C2611 0.950 1_455 S
H2607 C2615 0.940 . S
H2608 C2616 0.950 . S
H2609 C2617 0.951 . S
H2610 C2618 0.951 . S
C2611 C2605 1.265 . S
C2611 H2606 0.950 1_655 S
C2611 C2612 1.478 . S
C2612 C2611 1.478 . S
C2612 C2613 1.403 . S
C2612 C2629 1.394 . S
C2613 C2612 1.403 . S
C2613 C2614 1.426 . S
C2613 C2618 1.436 1_655 S
C2614 C2613 1.426 . S
C2614 C2615 1.428 1_655 S
C2614 C2627 1.394 . S
C2615 H2607 0.940 . S
C2615 C2614 1.428 1_455 S
C2615 C2616 1.345 . S
C2616 H2608 0.950 . S
C2616 C2615 1.345 . S
C2616 C2617 1.424 . S
C2617 H2609 0.951 . S
C2617 C2616 1.424 . S
C2617 C2618 1.347 . S
C2618 H2610 0.951 . S
C2618 C2613 1.436 1_455 S
C2618 C2617 1.347 . S
H2619 C2620 0.961 . S
C2620 H2619 0.961 . S
C2620 C2626 1.252 1_455 S
H2621 C2626 0.950 . S
H2622 C2630 0.949 . S
H2623 C2631 0.950 . S
H2624 C2632 0.951 . S
H2625 C2633 0.951 . S
C2626 C2620 1.252 1_655 S
C2626 H2621 0.950 . S
C2626 C2627 1.478 . S
C2627 C2614 1.394 . S
C2627 C2626 1.478 . S
C2627 C2628 1.397 . S
C2628 C2627 1.397 . S
C2628 C2629 1.438 . S
C2628 C2633 1.429 . S
C2629 C2612 1.394 . S
C2629 C2628 1.438 . S
C2629 C2630 1.428 . S
C2630 H2622 0.949 . S
C2630 C2629 1.428 . S
C2630 C2631 1.345 . S
C2631 H2623 0.950 . S
C2631 C2630 1.345 . S
C2631 C2632 1.424 . S
C2632 H2624 0.951 . S
C2632 C2631 1.424 . S
C2632 C2633 1.347 . S
C2633 H2625 0.951 . S
C2633 C2628 1.429 . S
C2633 C2632 1.347 . S
H2634 C2635 0.951 . S
C2635 H2634 0.951 . S
C2635 C2641 1.265 . S
H2636 C2641 0.950 . S
H2637 C2645 0.949 . S
H2638 C2646 0.950 . S
H2639 C2647 0.951 . S
H2640 C2648 0.951 . S
C2641 C2635 1.265 . S
C2641 H2636 0.950 . S
C2641 C2642 1.478 . S
C2642 C2641 1.478 . S
C2642 C2643 1.397 . S
C2642 C2659 1.394 . S
C2643 C2642 1.397 . S
C2643 C2644 1.438 . S
C2643 C2648 1.429 . S
C2644 C2643 1.438 . S
C2644 C2645 1.428 . S
C2644 C2657 1.394 . S
C2645 H2637 0.949 . S
C2645 C2644 1.428 . S
C2645 C2646 1.345 . S
C2646 H2638 0.950 . S
C2646 C2645 1.345 . S
C2646 C2647 1.424 . S
C2647 H2639 0.951 . S
C2647 C2646 1.424 . S
C2647 C2648 1.347 . S
C2648 H2640 0.951 . S
C2648 C2643 1.429 . S
C2648 C2647 1.347 . S
H2649 C2650 0.951 . S
C2650 H2649 0.951 . S
C2650 C2656 1.265 . S
H2651 C2656 0.950 . S
H2652 C2660 0.949 . S
H2653 C2661 0.950 . S
H2654 C2662 0.951 . S
H2655 C2663 0.951 . S
C2656 C2650 1.265 . S
C2656 H2651 0.950 . S
C2656 C2657 1.478 . S
C2657 C2644 1.394 . S
C2657 C2656 1.478 . S
C2657 C2658 1.397 . S
C2658 C2657 1.397 . S
C2658 C2659 1.438 . S
C2658 C2663 1.429 . S
C2659 C2642 1.394 . S
C2659 C2658 1.438 . S
C2659 C2660 1.428 . S
C2660 H2652 0.949 . S
C2660 C2659 1.428 . S
C2660 C2661 1.345 . S
C2661 H2653 0.950 . S
C2661 C2660 1.345 . S
C2661 C2662 1.424 . S
C2662 H2654 0.951 . S
C2662 C2661 1.424 . S
C2662 C2663 1.347 . S
C2663 H2655 0.951 . S
C2663 C2658 1.429 . S
C2663 C2662 1.347 . S
H2664 C2665 0.951 . S
C2665 H2664 0.951 . S
C2665 C2671 1.265 . S
H2666 C2671 0.950 . S
H2667 C2675 0.949 . S
H2668 C2676 0.950 . S
H2669 C2677 0.951 . S
H2670 C2678 0.951 . S
C2671 C2665 1.265 . S
C2671 H2666 0.950 . S
C2671 C2672 1.478 . S
C2672 C2671 1.478 . S
C2672 C2673 1.397 . S
C2672 C2689 1.394 . S
C2673 C2672 1.397 . S
C2673 C2674 1.438 . S
C2673 C2678 1.429 . S
C2674 C2673 1.438 . S
C2674 C2675 1.428 . S
C2674 C2687 1.394 . S
C2675 H2667 0.949 . S
C2675 C2674 1.428 . S
C2675 C2676 1.345 . S
C2676 H2668 0.950 . S
C2676 C2675 1.345 . S
C2676 C2677 1.424 . S
C2677 H2669 0.951 . S
C2677 C2676 1.424 . S
C2677 C2678 1.347 . S
C2678 H2670 0.951 . S
C2678 C2673 1.429 . S
C2678 C2677 1.347 . S
H2679 C2680 0.951 . S
C2680 H2679 0.951 . S
C2680 C2686 1.265 . S
H2681 C2686 0.950 . S
H2682 C2690 0.949 . S
H2683 C2691 0.950 . S
H2684 C2692 0.951 . S
H2685 C2693 0.951 . S
C2686 C2680 1.265 . S
C2686 H2681 0.950 . S
C2686 C2687 1.478 . S
C2687 C2674 1.394 . S
C2687 C2686 1.478 . S
C2687 C2688 1.397 . S
C2688 C2687 1.397 . S
C2688 C2689 1.438 . S
C2688 C2693 1.429 . S
C2689 C2672 1.394 . S
C2689 C2688 1.438 . S
C2689 C2690 1.428 . S
C2690 H2682 0.949 . S
C2690 C2689 1.428 . S
C2690 C2691 1.345 . S
C2691 H2683 0.950 . S
C2691 C2690 1.345 . S
C2691 C2692 1.424 . S
C2692 H2684 0.951 . S
C2692 C2691 1.424 . S
C2692 C2693 1.347 . S
C2693 H2685 0.951 . S
C2693 C2688 1.429 . S
C2693 C2692 1.347 . S
H2694 C2695 0.951 . S
C2695 H2694 0.951 . S
C2695 C2701 1.265 . S
H2696 C2701 0.950 . S
H2697 C2705 0.949 . S
H2698 C2706 0.950 . S
H2699 C2707 0.951 . S
H2700 C2708 0.951 . S
C2701 C2695 1.265 . S
C2701 H2696 0.950 . S
C2701 C2702 1.478 . S
C2702 C2701 1.478 . S
C2702 C2703 1.397 . S
C2702 C2719 1.394 . S
C2703 C2702 1.397 . S
C2703 C2704 1.438 . S
C2703 C2708 1.429 . S
C2704 C2703 1.438 . S
C2704 C2705 1.428 . S
C2704 C2717 1.394 . S
C2705 H2697 0.949 . S
C2705 C2704 1.428 . S
C2705 C2706 1.345 . S
C2706 H2698 0.950 . S
C2706 C2705 1.345 . S
C2706 C2707 1.424 . S
C2707 H2699 0.951 . S
C2707 C2706 1.424 . S
C2707 C2708 1.347 . S
C2708 H2700 0.951 . S
C2708 C2703 1.429 . S
C2708 C2707 1.347 . S
H2709 C2710 0.951 . S
C2710 H2709 0.951 . S
C2710 C2716 1.265 . S
H2711 C2716 0.950 . S
H2712 C2720 0.949 . S
H2713 C2721 0.950 . S
H2714 C2722 0.951 . S
H2715 C2723 0.951 . S
C2716 C2710 1.265 . S
C2716 H2711 0.950 . S
C2716 C2717 1.478 . S
C2717 C2704 1.394 . S
C2717 C2716 1.478 . S
C2717 C2718 1.397 . S
C2718 C2717 1.397 . S
C2718 C2719 1.438 . S
C2718 C2723 1.429 . S
C2719 C2702 1.394 . S
C2719 C2718 1.438 . S
C2719 C2720 1.428 . S
C2720 H2712 0.949 . S
C2720 C2719 1.428 . S
C2720 C2721 1.345 . S
C2721 H2713 0.950 . S
C2721 C2720 1.345 . S
C2721 C2722 1.424 . S
C2722 H2714 0.951 . S
C2722 C2721 1.424 . S
C2722 C2723 1.347 . S
C2723 H2715 0.951 . S
C2723 C2718 1.429 . S
C2723 C2722 1.347 . S
H2724 C2725 0.951 . S
C2725 H2724 0.951 . S
C2725 C2731 1.265 . S
H2726 C2731 0.950 . S
H2727 C2735 0.949 . S
H2728 C2736 0.950 . S
H2729 C2737 0.951 . S
H2730 C2738 0.951 . S
C2731 C2725 1.265 . S
C2731 H2726 0.950 . S
C2731 C2732 1.478 . S
C2732 C2731 1.478 . S
C2732 C2733 1.397 . S
C2732 C2749 1.394 . S
C2733 C2732 1.397 . S
C2733 C2734 1.438 . S
C2733 C2738 1.429 . S
C2734 C2733 1.438 . S
C2734 C2735 1.428 . S
C2734 C2747 1.394 . S
C2735 H2727 0.949 . S
C2735 C2734 1.428 . S
C2735 C2736 1.345 . S
C2736 H2728 0.950 . S
C2736 C2735 1.345 . S
C2736 C2737 1.424 . S
C2737 H2729 0.951 . S
C2737 C2736 1.424 . S
C2737 C2738 1.347 . S
C2738 H2730 0.951 . S
C2738 C2733 1.429 . S
C2738 C2737 1.347 . S
H2739 C2740 0.951 . S
C2740 H2739 0.951 . S
C2740 C2746 1.265 . S
H2741 C2746 0.950 . S
H2742 C2750 0.949 . S
H2743 C2751 0.950 . S
H2744 C2752 0.951 . S
H2745 C2753 0.951 . S
C2746 C2740 1.265 . S
C2746 H2741 0.950 . S
C2746 C2747 1.478 . S
C2747 C2734 1.394 . S
C2747 C2746 1.478 . S
C2747 C2748 1.397 . S
C2748 C2747 1.397 . S
C2748 C2749 1.438 . S
C2748 C2753 1.429 . S
C2749 C2732 1.394 . S
C2749 C2748 1.438 . S
C2749 C2750 1.428 . S
C2750 H2742 0.949 . S
C2750 C2749 1.428 . S
C2750 C2751 1.345 . S
C2751 H2743 0.950 . S
C2751 C2750 1.345 . S
C2751 C2752 1.424 . S
C2752 H2744 0.951 . S
C2752 C2751 1.424 . S
C2752 C2753 1.347 . S
C2753 H2745 0.951 . S
C2753 C2748 1.429 . S
C2753 C2752 1.347 . S
H2754 C2755 0.951 . S
C2755 H2754 0.951 . S
C2755 C2761 1.265 . S
H2756 C2761 0.950 . S
H2757 C2765 0.949 . S
H2758 C2766 0.950 . S
H2759 C2767 0.951 . S
H2760 C2768 0.951 . S
C2761 C2755 1.265 . S
C2761 H2756 0.950 . S
C2761 C2762 1.478 . S
C2762 C2761 1.478 . S
C2762 C2763 1.397 . S
C2762 C2779 1.394 . S
C2763 C2762 1.397 . S
C2763 C2764 1.438 . S
C2763 C2768 1.429 . S
C2764 C2763 1.438 . S
C2764 C2765 1.428 . S
C2764 C2777 1.394 . S
C2765 H2757 0.949 . S
C2765 C2764 1.428 . S
C2765 C2766 1.345 . S
C2766 H2758 0.950 . S
C2766 C2765 1.345 . S
C2766 C2767 1.424 . S
C2767 H2759 0.951 . S
C2767 C2766 1.424 . S
C2767 C2768 1.347 . S
C2768 H2760 0.951 . S
C2768 C2763 1.429 . S
C2768 C2767 1.347 . S
H2769 C2770 0.951 . S
C2770 H2769 0.951 . S
C2770 C2776 1.265 . S
H2771 C2776 0.950 . S
H2772 C2780 0.949 . S
H2773 C2781 0.950 . S
H2774 C2782 0.951 . S
H2775 C2783 0.951 . S
C2776 C2770 1.265 . S
C2776 H2771 0.950 . S
C2776 C2777 1.478 . S
C2777 C2764 1.394 . S
C2777 C2776 1.478 . S
C2777 C2778 1.397 . S
C2778 C2777 1.397 . S
C2778 C2779 1.438 . S
C2778 C2783 1.429 . S
C2779 C2762 1.394 . S
C2779 C2778 1.438 . S
C2779 C2780 1.428 . S
C2780 H2772 0.949 . S
C2780 C2779 1.428 . S
C2780 C2781 1.345 . S
C2781 H2773 0.950 . S
C2781 C2780 1.345 . S
C2781 C2782 1.424 . S
C2782 H2774 0.951 . S
C2782 C2781 1.424 . S
C2782 C2783 1.347 . S
C2783 H2775 0.951 . S
C2783 C2778 1.429 . S
C2783 C2782 1.347 . S
H2784 C2785 0.951 . S
C2785 H2784 0.951 . S
C2785 C2791 1.265 . S
H2786 C2791 0.950 . S
H2787 C2795 0.949 . S
H2788 C2796 0.950 . S
H2789 C2797 0.951 . S
H2790 C2798 0.951 . S
C2791 C2785 1.265 . S
C2791 H2786 0.950 . S
C2791 C2792 1.478 . S
C2792 C2791 1.478 . S
C2792 C2793 1.397 . S
C2792 C2809 1.394 . S
C2793 C2792 1.397 . S
C2793 C2794 1.438 . S
C2793 C2798 1.429 . S
C2794 C2793 1.438 . S
C2794 C2795 1.428 . S
C2794 C2807 1.394 . S
C2795 H2787 0.949 . S
C2795 C2794 1.428 . S
C2795 C2796 1.345 . S
C2796 H2788 0.950 . S
C2796 C2795 1.345 . S
C2796 C2797 1.424 . S
C2797 H2789 0.951 . S
C2797 C2796 1.424 . S
C2797 C2798 1.347 . S
C2798 H2790 0.951 . S
C2798 C2793 1.429 . S
C2798 C2797 1.347 . S
H2799 C2800 0.951 . S
C2800 H2799 0.951 . S
C2800 C2806 1.265 . S
H2801 C2806 0.950 . S
H2802 C2810 0.949 . S
H2803 C2811 0.950 . S
H2804 C2812 0.951 . S
H2805 C2813 0.951 . S
C2806 C2800 1.265 . S
C2806 H2801 0.950 . S
C2806 C2807 1.478 . S
C2807 C2794 1.394 . S
C2807 C2806 1.478 . S
C2807 C2808 1.397 . S
C2808 C2807 1.397 . S
C2808 C2809 1.438 . S
C2808 C2813 1.429 . S
C2809 C2792 1.394 . S
C2809 C2808 1.438 . S
C2809 C2810 1.428 . S
C2810 H2802 0.949 . S
C2810 C2809 1.428 . S
C2810 C2811 1.345 . S
C2811 H2803 0.950 . S
C2811 C2810 1.345 . S
C2811 C2812 1.424 . S
C2812 H2804 0.951 . S
C2812 C2811 1.424 . S
C2812 C2813 1.347 . S
C2813 H2805 0.951 . S
C2813 C2808 1.429 . S
C2813 C2812 1.347 . S
H2814 C2815 0.951 . S
C2815 H2814 0.951 . S
C2815 C2821 1.265 . S
H2816 C2821 0.950 . S
H2817 C2825 0.949 . S
H2818 C2826 0.922 1_545 S
H2819 C2827 0.943 1_545 S
H2820 C2828 0.951 . S
C2821 C2815 1.265 . S
C2821 H2816 0.950 . S
C2821 C2822 1.478 . S
C2822 C2821 1.478 . S
C2822 C2823 1.397 . S
C2822 C2839 1.394 . S
C2823 C2822 1.397 . S
C2823 C2824 1.438 . S
C2823 C2828 1.429 . S
C2824 C2823 1.438 . S
C2824 C2825 1.428 . S
C2824 C2837 1.394 . S
C2825 H2817 0.949 . S
C2825 C2824 1.428 . S
C2825 C2826 1.345 . S
C2826 H2818 0.922 1_565 S
C2826 C2825 1.345 . S
C2826 C2827 1.424 . S
C2827 H2819 0.943 1_565 S
C2827 C2826 1.424 . S
C2827 C2828 1.354 . S
C2828 H2820 0.951 . S
C2828 C2823 1.429 . S
C2828 C2827 1.354 . S
H2829 C2830 0.951 . S
C2830 H2829 0.951 . S
C2830 C2836 1.265 . S
H2831 C2836 0.950 . S
H2832 C2840 0.949 . S
H2833 C2841 0.950 . S
H2834 C2842 0.951 . S
H2835 C2843 0.951 . S
C2836 C2830 1.265 . S
C2836 H2831 0.950 . S
C2836 C2837 1.478 . S
C2837 C2824 1.394 . S
C2837 C2836 1.478 . S
C2837 C2838 1.397 . S
C2838 C2837 1.397 . S
C2838 C2839 1.438 . S
C2838 C2843 1.429 . S
C2839 C2822 1.394 . S
C2839 C2838 1.438 . S
C2839 C2840 1.428 . S
C2840 H2832 0.949 . S
C2840 C2839 1.428 . S
C2840 C2841 1.345 . S
C2841 H2833 0.950 . S
C2841 C2840 1.345 . S
C2841 C2842 1.424 . S
C2842 H2834 0.951 . S
C2842 C2841 1.424 . S
C2842 C2843 1.347 . S
C2843 H2835 0.951 . S
C2843 C2838 1.429 . S
C2843 C2842 1.347 . S
H2844 C2845 0.951 . S
C2845 H2844 0.951 . S
C2845 C2851 1.265 . S
H2846 C2851 0.950 . S
H2847 C2855 0.949 . S
H2848 C2856 0.950 . S
H2849 C2857 0.951 . S
H2850 C2858 0.951 . S
C2851 C2845 1.265 . S
C2851 H2846 0.950 . S
C2851 C2852 1.478 . S
C2852 C2851 1.478 . S
C2852 C2853 1.397 . S
C2852 C2869 1.394 . S
C2853 C2852 1.397 . S
C2853 C2854 1.438 . S
C2853 C2858 1.429 . S
C2854 C2853 1.438 . S
C2854 C2855 1.428 . S
C2854 C2867 1.394 . S
C2855 H2847 0.949 . S
C2855 C2854 1.428 . S
C2855 C2856 1.345 . S
C2856 H2848 0.950 . S
C2856 C2855 1.345 . S
C2856 C2857 1.424 . S
C2857 H2849 0.951 . S
C2857 C2856 1.424 . S
C2857 C2858 1.347 . S
C2858 H2850 0.951 . S
C2858 C2853 1.429 . S
C2858 C2857 1.347 . S
H2859 C2860 0.951 . S
C2860 H2859 0.951 . S
C2860 C2866 1.265 . S
H2861 C2866 0.950 . S
H2862 C2870 0.949 . S
H2863 C2871 0.950 1_545 S
H2864 C2872 0.951 . S
H2865 C2873 0.951 . S
C2866 C2860 1.265 . S
C2866 H2861 0.950 . S
C2866 C2867 1.478 . S
C2867 C2854 1.394 . S
C2867 C2866 1.478 . S
C2867 C2868 1.397 . S
C2868 C2867 1.397 . S
C2868 C2869 1.438 . S
C2868 C2873 1.429 . S
C2869 C2852 1.394 . S
C2869 C2868 1.438 . S
C2869 C2870 1.428 . S
C2870 H2862 0.949 . S
C2870 C2869 1.428 . S
C2870 C2871 1.345 . S
C2871 H2863 0.950 1_565 S
C2871 C2870 1.345 . S
C2871 C2872 1.424 . S
C2872 H2864 0.951 . S
C2872 C2871 1.424 . S
C2872 C2873 1.347 . S
C2873 H2865 0.951 . S
C2873 C2868 1.429 . S
C2873 C2872 1.347 . S
H2874 C2875 0.951 . S
C2875 H2874 0.951 . S
C2875 C2881 1.265 . S
H2876 C2881 0.950 . S
H2877 C2885 0.949 . S
H2878 C2886 0.950 . S
H2879 C2887 0.951 . S
H2880 C2888 0.951 . S
C2881 C2875 1.265 . S
C2881 H2876 0.950 . S
C2881 C2882 1.478 . S
C2882 C2881 1.478 . S
C2882 C2883 1.397 . S
C2882 C2899 1.394 . S
C2883 C2882 1.397 . S
C2883 C2884 1.438 . S
C2883 C2888 1.429 . S
C2884 C2883 1.438 . S
C2884 C2885 1.428 . S
C2884 C2897 1.394 . S
C2885 H2877 0.949 . S
C2885 C2884 1.428 . S
C2885 C2886 1.345 . S
C2886 H2878 0.950 . S
C2886 C2885 1.345 . S
C2886 C2887 1.424 . S
C2887 H2879 0.951 . S
C2887 C2886 1.424 . S
C2887 C2888 1.347 . S
C2888 H2880 0.951 . S
C2888 C2883 1.429 . S
C2888 C2887 1.347 . S
H2889 C2890 0.951 . S
C2890 H2889 0.951 . S
C2890 C2896 1.265 . S
H2891 C2896 0.950 . S
H2892 C2900 0.949 . S
H2893 C2901 0.950 . S
H2894 C2902 0.951 . S
H2895 C2903 0.951 . S
C2896 C2890 1.265 . S
C2896 H2891 0.950 . S
C2896 C2897 1.478 . S
C2897 C2884 1.394 . S
C2897 C2896 1.478 . S
C2897 C2898 1.397 . S
C2898 C2897 1.397 . S
C2898 C2899 1.438 . S
C2898 C2903 1.429 . S
C2899 C2882 1.394 . S
C2899 C2898 1.438 . S
C2899 C2900 1.428 . S
C2900 H2892 0.949 . S
C2900 C2899 1.428 . S
C2900 C2901 1.345 . S
C2901 H2893 0.950 . S
C2901 C2900 1.345 . S
C2901 C2902 1.424 . S
C2902 H2894 0.951 . S
C2902 C2901 1.424 . S
C2902 C2903 1.347 . S
C2903 H2895 0.951 . S
C2903 C2898 1.429 . S
C2903 C2902 1.347 . S
H2904 C2905 0.951 . S
C2905 H2904 0.951 . S
C2905 C2911 1.265 . S
H2906 C2911 0.950 . S
H2907 C2915 0.949 . S
H2908 C2916 0.950 . S
H2909 C2917 0.951 . S
H2910 C2918 0.951 . S
C2911 C2905 1.265 . S
C2911 H2906 0.950 . S
C2911 C2912 1.478 . S
C2912 C2911 1.478 . S
C2912 C2913 1.397 . S
C2912 C2929 1.394 . S
C2913 C2912 1.397 . S
C2913 C2914 1.438 . S
C2913 C2918 1.429 . S
C2914 C2913 1.438 . S
C2914 C2915 1.428 . S
C2914 C2927 1.394 . S
C2915 H2907 0.949 . S
C2915 C2914 1.428 . S
C2915 C2916 1.345 . S
C2916 H2908 0.950 . S
C2916 C2915 1.345 . S
C2916 C2917 1.424 . S
C2917 H2909 0.951 . S
C2917 C2916 1.424 . S
C2917 C2918 1.347 . S
C2918 H2910 0.951 . S
C2918 C2913 1.429 . S
C2918 C2917 1.347 . S
H2919 C2920 0.951 . S
C2920 H2919 0.951 . S
C2920 C2926 1.265 . S
H2921 C2926 0.950 . S
H2922 C2930 0.949 . S
H2923 C2931 0.950 . S
H2924 C2932 0.951 . S
H2925 C2933 0.951 . S
C2926 C2920 1.265 . S
C2926 H2921 0.950 . S
C2926 C2927 1.478 . S
C2927 C2914 1.394 . S
C2927 C2926 1.478 . S
C2927 C2928 1.397 . S
C2928 C2927 1.397 . S
C2928 C2929 1.438 . S
C2928 C2933 1.429 . S
C2929 C2912 1.394 . S
C2929 C2928 1.438 . S
C2929 C2930 1.428 . S
C2930 H2922 0.949 . S
C2930 C2929 1.428 . S
C2930 C2931 1.345 . S
C2931 H2923 0.950 . S
C2931 C2930 1.345 . S
C2931 C2932 1.424 . S
C2932 H2924 0.951 . S
C2932 C2931 1.424 . S
C2932 C2933 1.347 . S
C2933 H2925 0.951 . S
C2933 C2928 1.429 . S
C2933 C2932 1.347 . S
H2934 C2935 0.951 . S
C2935 H2934 0.951 . S
C2935 C2941 1.265 . S
H2936 C2941 0.950 . S
H2937 C2945 0.949 . S
H2938 C2946 0.950 . S
H2939 C2947 0.951 . S
H2940 C2948 0.951 . S
C2941 C2935 1.265 . S
C2941 H2936 0.950 . S
C2941 C2942 1.478 . S
C2942 C2941 1.478 . S
C2942 C2943 1.397 . S
C2942 C2959 1.394 . S
C2943 C2942 1.397 . S
C2943 C2944 1.438 . S
C2943 C2948 1.429 . S
C2944 C2943 1.438 . S
C2944 C2945 1.428 . S
C2944 C2957 1.394 . S
C2945 H2937 0.949 . S
C2945 C2944 1.428 . S
C2945 C2946 1.345 . S
C2946 H2938 0.950 . S
C2946 C2945 1.345 . S
C2946 C2947 1.424 . S
C2947 H2939 0.951 . S
C2947 C2946 1.424 . S
C2947 C2948 1.347 . S
C2948 H2940 0.951 . S
C2948 C2943 1.429 . S
C2948 C2947 1.347 . S
H2949 C2950 0.951 . S
C2950 H2949 0.951 . S
C2950 C2956 1.265 . S
H2951 C2956 0.950 . S
H2952 C2960 0.949 . S
H2953 C2961 0.950 . S
H2954 C2962 0.951 . S
H2955 C2963 0.951 . S
C2956 C2950 1.265 . S
C2956 H2951 0.950 . S
C2956 C2957 1.478 . S
C2957 C2944 1.394 . S
C2957 C2956 1.478 . S
C2957 C2958 1.397 . S
C2958 C2957 1.397 . S
C2958 C2959 1.438 . S
C2958 C2963 1.429 . S
C2959 C2942 1.394 . S
C2959 C2958 1.438 . S
C2959 C2960 1.428 . S
C2960 H2952 0.949 . S
C2960 C2959 1.428 . S
C2960 C2961 1.345 . S
C2961 H2953 0.950 . S
C2961 C2960 1.345 . S
C2961 C2962 1.424 . S
C2962 H2954 0.951 . S
C2962 C2961 1.424 . S
C2962 C2963 1.347 . S
C2963 H2955 0.951 . S
C2963 C2958 1.429 . S
C2963 C2962 1.347 . S
H2964 C2965 0.951 . S
C2965 H2964 0.951 . S
C2965 C2971 1.265 . S
H2966 C2971 0.950 . S
H2967 C2975 0.949 . S
H2968 C2976 0.950 . S
H2969 C2977 0.951 . S
H2970 C2978 0.951 . S
C2971 C2965 1.265 . S
C2971 H2966 0.950 . S
C2971 C2972 1.478 . S
C2972 C2971 1.478 . S
C2972 C2973 1.397 . S
C2972 C2989 1.394 . S
C2973 C2972 1.397 . S
C2973 C2974 1.438 . S
C2973 C2978 1.429 . S
C2974 C2973 1.438 . S
C2974 C2975 1.428 . S
C2974 C2987 1.394 . S
C2975 H2967 0.949 . S
C2975 C2974 1.428 . S
C2975 C2976 1.345 . S
C2976 H2968 0.950 . S
C2976 C2975 1.345 . S
C2976 C2977 1.424 . S
C2977 H2969 0.951 . S
C2977 C2976 1.424 . S
C2977 C2978 1.347 . S
C2978 H2970 0.951 . S
C2978 C2973 1.429 . S
C2978 C2977 1.347 . S
H2979 C2980 0.951 . S
C2980 H2979 0.951 . S
C2980 C2986 1.265 . S
H2981 C2986 0.950 . S
H2982 C2990 0.949 . S
H2983 C2991 0.950 . S
H2984 C2992 0.951 . S
H2985 C2993 0.951 . S
C2986 C2980 1.265 . S
C2986 H2981 0.950 . S
C2986 C2987 1.478 . S
C2987 C2974 1.394 . S
C2987 C2986 1.478 . S
C2987 C2988 1.397 . S
C2988 C2987 1.397 . S
C2988 C2989 1.438 . S
C2988 C2993 1.429 . S
C2989 C2972 1.394 . S
C2989 C2988 1.438 . S
C2989 C2990 1.428 . S
C2990 H2982 0.949 . S
C2990 C2989 1.428 . S
C2990 C2991 1.345 . S
C2991 H2983 0.950 . S
C2991 C2990 1.345 . S
C2991 C2992 1.424 . S
C2992 H2984 0.951 . S
C2992 C2991 1.424 . S
C2992 C2993 1.347 . S
C2993 H2985 0.951 . S
C2993 C2988 1.429 . S
C2993 C2992 1.347 . S
H2994 C2995 0.951 . S
C2995 H2994 0.951 . S
C2995 C3001 1.265 . S
H2996 C3001 0.950 . S
H2997 C3005 0.949 . S
H2998 C3006 0.950 . S
H2999 C3007 0.951 . S
H3000 C3008 0.951 . S
C3001 C2995 1.265 . S
C3001 H2996 0.950 . S
C3001 C3002 1.478 . S
C3002 C3001 1.478 . S
C3002 C3003 1.397 . S
C3002 C3019 1.394 . S
C3003 C3002 1.397 . S
C3003 C3004 1.438 . S
C3003 C3008 1.429 . S
C3004 C3003 1.438 . S
C3004 C3005 1.428 . S
C3004 C3017 1.394 . S
C3005 H2997 0.949 . S
C3005 C3004 1.428 . S
C3005 C3006 1.345 . S
C3006 H2998 0.950 . S
C3006 C3005 1.345 . S
C3006 C3007 1.424 . S
C3007 H2999 0.951 . S
C3007 C3006 1.424 . S
C3007 C3008 1.347 . S
C3008 H3000 0.951 . S
C3008 C3003 1.429 . S
C3008 C3007 1.347 . S
H3009 C3010 0.951 . S
C3010 H3009 0.951 . S
C3010 C3016 1.265 . S
H3011 C3016 0.950 . S
H3012 C3020 0.949 . S
H3013 C3021 0.950 . S
H3014 C3022 0.951 . S
H3015 C3023 0.951 . S
C3016 C3010 1.265 . S
C3016 H3011 0.950 . S
C3016 C3017 1.478 . S
C3017 C3004 1.394 . S
C3017 C3016 1.478 . S
C3017 C3018 1.397 . S
C3018 C3017 1.397 . S
C3018 C3019 1.438 . S
C3018 C3023 1.429 . S
C3019 C3002 1.394 . S
C3019 C3018 1.438 . S
C3019 C3020 1.428 . S
C3020 H3012 0.949 . S
C3020 C3019 1.428 . S
C3020 C3021 1.345 . S
C3021 H3013 0.950 . S
C3021 C3020 1.345 . S
C3021 C3022 1.424 . S
C3022 H3014 0.951 . S
C3022 C3021 1.424 . S
C3022 C3023 1.347 . S
C3023 H3015 0.951 . S
C3023 C3018 1.429 . S
C3023 C3022 1.347 . S
H3024 C3025 0.951 . S
C3025 H3024 0.951 . S
C3025 C3031 1.265 . S
H3026 C3031 0.950 . S
H3027 C3035 0.949 . S
H3028 C3036 0.950 . S
H3029 C3037 0.951 . S
H3030 C3038 0.951 . S
C3031 C3025 1.265 . S
C3031 H3026 0.950 . S
C3031 C3032 1.478 . S
C3032 C3031 1.478 . S
C3032 C3033 1.397 . S
C3032 C3049 1.394 . S
C3033 C3032 1.397 . S
C3033 C3034 1.438 . S
C3033 C3038 1.429 . S
C3034 C3033 1.438 . S
C3034 C3035 1.428 . S
C3034 C3047 1.394 . S
C3035 H3027 0.949 . S
C3035 C3034 1.428 . S
C3035 C3036 1.345 . S
C3036 H3028 0.950 . S
C3036 C3035 1.345 . S
C3036 C3037 1.424 . S
C3037 H3029 0.951 . S
C3037 C3036 1.424 . S
C3037 C3038 1.347 . S
C3038 H3030 0.951 . S
C3038 C3033 1.429 . S
C3038 C3037 1.347 . S
H3039 C3040 0.951 . S
C3040 H3039 0.951 . S
C3040 C3046 1.265 . S
H3041 C3046 0.950 . S
H3042 C3050 0.949 . S
H3043 C3051 0.950 . S
H3044 C3052 0.951 . S
H3045 C3053 0.951 . S
C3046 C3040 1.265 . S
C3046 H3041 0.950 . S
C3046 C3047 1.478 . S
C3047 C3034 1.394 . S
C3047 C3046 1.478 . S
C3047 C3048 1.397 . S
C3048 C3047 1.397 . S
C3048 C3049 1.438 . S
C3048 C3053 1.429 . S
C3049 C3032 1.394 . S
C3049 C3048 1.438 . S
C3049 C3050 1.428 . S
C3050 H3042 0.949 . S
C3050 C3049 1.428 . S
C3050 C3051 1.345 . S
C3051 H3043 0.950 . S
C3051 C3050 1.345 . S
C3051 C3052 1.424 . S
C3052 H3044 0.951 . S
C3052 C3051 1.424 . S
C3052 C3053 1.347 . S
C3053 H3045 0.951 . S
C3053 C3048 1.429 . S
C3053 C3052 1.347 . S
H3054 C3055 0.951 . S
C3055 H3054 0.951 . S
C3055 C3061 1.265 . S
H3056 C3061 0.950 . S
H3057 C3065 0.949 . S
H3058 C3066 0.950 . S
H3059 C3067 0.951 . S
H3060 C3068 0.951 . S
C3061 C3055 1.265 . S
C3061 H3056 0.950 . S
C3061 C3062 1.478 . S
C3062 C3061 1.478 . S
C3062 C3063 1.397 . S
C3062 C3079 1.394 . S
C3063 C3062 1.397 . S
C3063 C3064 1.438 . S
C3063 C3068 1.429 . S
C3064 C3063 1.438 . S
C3064 C3065 1.428 . S
C3064 C3077 1.394 . S
C3065 H3057 0.949 . S
C3065 C3064 1.428 . S
C3065 C3066 1.345 . S
C3066 H3058 0.950 . S
C3066 C3065 1.345 . S
C3066 C3067 1.424 . S
C3067 H3059 0.951 . S
C3067 C3066 1.424 . S
C3067 C3068 1.347 . S
C3068 H3060 0.951 . S
C3068 C3063 1.429 . S
C3068 C3067 1.347 . S
H3069 C3070 0.951 . S
C3070 H3069 0.951 . S
C3070 C3076 1.265 . S
H3071 C3076 0.950 . S
H3072 C3080 0.949 . S
H3073 C3081 0.950 . S
H3074 C3082 0.951 . S
H3075 C3083 0.951 . S
C3076 C3070 1.265 . S
C3076 H3071 0.950 . S
C3076 C3077 1.478 . S
C3077 C3064 1.394 . S
C3077 C3076 1.478 . S
C3077 C3078 1.397 . S
C3078 C3077 1.397 . S
C3078 C3079 1.438 . S
C3078 C3083 1.429 . S
C3079 C3062 1.394 . S
C3079 C3078 1.438 . S
C3079 C3080 1.428 . S
C3080 H3072 0.949 . S
C3080 C3079 1.428 . S
C3080 C3081 1.345 . S
C3081 H3073 0.950 . S
C3081 C3080 1.345 . S
C3081 C3082 1.424 . S
C3082 H3074 0.951 . S
C3082 C3081 1.424 . S
C3082 C3083 1.347 . S
C3083 H3075 0.951 . S
C3083 C3078 1.429 . S
C3083 C3082 1.347 . S
H3084 C3085 0.951 . S
C3085 H3084 0.951 . S
C3085 C3091 1.265 . S
H3086 C3091 0.950 . S
H3087 C3095 0.949 . S
H3088 C3096 0.950 . S
H3089 C3097 0.951 . S
H3090 C3098 0.951 . S
C3091 C3085 1.265 . S
C3091 H3086 0.950 . S
C3091 C3092 1.478 . S
C3092 C3091 1.478 . S
C3092 C3093 1.397 . S
C3092 C3109 1.394 . S
C3093 C3092 1.397 . S
C3093 C3094 1.438 . S
C3093 C3098 1.429 . S
C3094 C3093 1.438 . S
C3094 C3095 1.428 . S
C3094 C3107 1.394 . S
C3095 H3087 0.949 . S
C3095 C3094 1.428 . S
C3095 C3096 1.345 . S
C3096 H3088 0.950 . S
C3096 C3095 1.345 . S
C3096 C3097 1.424 . S
C3097 H3089 0.951 . S
C3097 C3096 1.424 . S
C3097 C3098 1.347 . S
C3098 H3090 0.951 . S
C3098 C3093 1.429 . S
C3098 C3097 1.347 . S
H3099 C3100 0.951 . S
C3100 H3099 0.951 . S
C3100 C3106 1.265 . S
H3101 C3106 0.950 . S
H3102 C3110 0.949 . S
H3103 C3111 0.950 . S
H3104 C3112 0.951 . S
H3105 C3113 0.951 . S
C3106 C3100 1.265 . S
C3106 H3101 0.950 . S
C3106 C3107 1.478 . S
C3107 C3094 1.394 . S
C3107 C3106 1.478 . S
C3107 C3108 1.397 . S
C3108 C3107 1.397 . S
C3108 C3109 1.438 . S
C3108 C3113 1.429 . S
C3109 C3092 1.394 . S
C3109 C3108 1.438 . S
C3109 C3110 1.428 . S
C3110 H3102 0.949 . S
C3110 C3109 1.428 . S
C3110 C3111 1.345 . S
C3111 H3103 0.950 . S
C3111 C3110 1.345 . S
C3111 C3112 1.424 . S
C3112 H3104 0.951 . S
C3112 C3111 1.424 . S
C3112 C3113 1.347 . S
C3113 H3105 0.951 . S
C3113 C3108 1.429 . S
C3113 C3112 1.347 . S
H3114 C3115 0.951 . S
C3115 H3114 0.951 . S
C3115 C3121 1.265 . S
H3116 C3121 0.950 . S
H3117 C3125 0.949 . S
H3118 C3126 0.950 . S
H3119 C3127 0.951 . S
H3120 C3128 0.951 . S
C3121 C3115 1.265 . S
C3121 H3116 0.950 . S
C3121 C3122 1.478 . S
C3122 C3121 1.478 . S
C3122 C3123 1.397 . S
C3122 C3139 1.394 . S
C3123 C3122 1.397 . S
C3123 C3124 1.438 . S
C3123 C3128 1.429 . S
C3124 C3123 1.438 . S
C3124 C3125 1.428 . S
C3124 C3137 1.394 . S
C3125 H3117 0.949 . S
C3125 C3124 1.428 . S
C3125 C3126 1.345 . S
C3126 H3118 0.950 . S
C3126 C3125 1.345 . S
C3126 C3127 1.424 . S
C3127 H3119 0.951 . S
C3127 C3126 1.424 . S
C3127 C3128 1.347 . S
C3128 H3120 0.951 . S
C3128 C3123 1.429 . S
C3128 C3127 1.347 . S
H3129 C3130 0.951 . S
C3130 H3129 0.951 . S
C3130 C3136 1.265 . S
H3131 C3136 0.950 . S
H3132 C3140 0.949 . S
H3133 C3141 0.950 . S
H3134 C3142 0.951 . S
H3135 C3143 0.951 . S
C3136 C3130 1.265 . S
C3136 H3131 0.950 . S
C3136 C3137 1.478 . S
C3137 C3124 1.394 . S
C3137 C3136 1.478 . S
C3137 C3138 1.397 . S
C3138 C3137 1.397 . S
C3138 C3139 1.438 . S
C3138 C3143 1.429 . S
C3139 C3122 1.394 . S
C3139 C3138 1.438 . S
C3139 C3140 1.428 . S
C3140 H3132 0.949 . S
C3140 C3139 1.428 . S
C3140 C3141 1.345 . S
C3141 H3133 0.950 . S
C3141 C3140 1.345 . S
C3141 C3142 1.424 . S
C3142 H3134 0.951 . S
C3142 C3141 1.424 . S
C3142 C3143 1.347 . S
C3143 H3135 0.951 . S
C3143 C3138 1.429 . S
C3143 C3142 1.347 . S
H3144 C3145 0.951 . S
C3145 H3144 0.951 . S
C3145 C3151 1.265 . S
H3146 C3151 0.950 . S
H3147 C3155 0.949 . S
H3148 C3156 0.950 . S
H3149 C3157 0.951 . S
H3150 C3158 0.951 . S
C3151 C3145 1.265 . S
C3151 H3146 0.950 . S
C3151 C3152 1.478 . S
C3152 C3151 1.478 . S
C3152 C3153 1.397 . S
C3152 C3169 1.394 . S
C3153 C3152 1.397 . S
C3153 C3154 1.438 . S
C3153 C3158 1.429 . S
C3154 C3153 1.438 . S
C3154 C3155 1.428 . S
C3154 C3167 1.394 . S
C3155 H3147 0.949 . S
C3155 C3154 1.428 . S
C3155 C3156 1.345 . S
C3156 H3148 0.950 . S
C3156 C3155 1.345 . S
C3156 C3157 1.424 . S
C3157 H3149 0.951 . S
C3157 C3156 1.424 . S
C3157 C3158 1.347 . S
C3158 H3150 0.951 . S
C3158 C3153 1.429 . S
C3158 C3157 1.347 . S
H3159 C3160 0.951 . S
C3160 H3159 0.951 . S
C3160 C3166 1.265 . S
H3161 C3166 0.950 . S
H3162 C3170 0.949 . S
H3163 C3171 0.950 . S
H3164 C3172 0.951 . S
H3165 C3173 0.951 . S
C3166 C3160 1.265 . S
C3166 H3161 0.950 . S
C3166 C3167 1.478 . S
C3167 C3154 1.394 . S
C3167 C3166 1.478 . S
C3167 C3168 1.397 . S
C3168 C3167 1.397 . S
C3168 C3169 1.438 . S
C3168 C3173 1.429 . S
C3169 C3152 1.394 . S
C3169 C3168 1.438 . S
C3169 C3170 1.428 . S
C3170 H3162 0.949 . S
C3170 C3169 1.428 . S
C3170 C3171 1.345 . S
C3171 H3163 0.950 . S
C3171 C3170 1.345 . S
C3171 C3172 1.424 . S
C3172 H3164 0.951 . S
C3172 C3171 1.424 . S
C3172 C3173 1.347 . S
C3173 H3165 0.951 . S
C3173 C3168 1.429 . S
C3173 C3172 1.347 . S
H3174 C3175 0.951 . S
C3175 H3174 0.951 . S
C3175 C3181 1.265 . S
H3176 C3181 0.950 . S
H3177 C3185 0.949 . S
H3178 C3186 0.950 . S
H3179 C3187 0.951 . S
H3180 C3188 0.951 . S
C3181 C3175 1.265 . S
C3181 H3176 0.950 . S
C3181 C3182 1.478 . S
C3182 C3181 1.478 . S
C3182 C3183 1.397 . S
C3182 C3199 1.394 . S
C3183 C3182 1.397 . S
C3183 C3184 1.438 . S
C3183 C3188 1.429 . S
C3184 C3183 1.438 . S
C3184 C3185 1.428 . S
C3184 C3197 1.394 . S
C3185 H3177 0.949 . S
C3185 C3184 1.428 . S
C3185 C3186 1.345 . S
C3186 H3178 0.950 . S
C3186 C3185 1.345 . S
C3186 C3187 1.424 . S
C3187 H3179 0.951 . S
C3187 C3186 1.424 . S
C3187 C3188 1.347 . S
C3188 H3180 0.951 . S
C3188 C3183 1.429 . S
C3188 C3187 1.347 . S
H3189 C3190 0.951 . S
C3190 H3189 0.951 . S
C3190 C3196 1.265 . S
H3191 C3196 0.950 . S
H3192 C3200 0.949 . S
H3193 C3201 0.950 . S
H3194 C3202 0.951 . S
H3195 C3203 0.951 . S
C3196 C3190 1.265 . S
C3196 H3191 0.950 . S
C3196 C3197 1.478 . S
C3197 C3184 1.394 . S
C3197 C3196 1.478 . S
C3197 C3198 1.397 . S
C3198 C3197 1.397 . S
C3198 C3199 1.438 . S
C3198 C3203 1.429 . S
C3199 C3182 1.394 . S
C3199 C3198 1.438 . S
C3199 C3200 1.428 . S
C3200 H3192 0.949 . S
C3200 C3199 1.428 . S
C3200 C3201 1.345 . S
C3201 H3193 0.950 . S
C3201 C3200 1.345 . S
C3201 C3202 1.424 . S
C3202 H3194 0.951 . S
C3202 C3201 1.424 . S
C3202 C3203 1.347 . S
C3203 H3195 0.951 . S
C3203 C3198 1.429 . S
C3203 C3202 1.347 . S
H3204 C3205 0.951 . S
C3205 H3204 0.951 . S
C3205 C3211 1.265 . S
H3206 C3211 0.950 . S
H3207 C3215 0.949 . S
H3208 C3216 0.950 . S
H3209 C3217 0.951 . S
H3210 C3218 0.951 . S
C3211 C3205 1.265 . S
C3211 H3206 0.950 . S
C3211 C3212 1.478 . S
C3212 C3211 1.478 . S
C3212 C3213 1.397 . S
C3212 C3229 1.394 . S
C3213 C3212 1.397 . S
C3213 C3214 1.438 . S
C3213 C3218 1.429 . S
C3214 C3213 1.438 . S
C3214 C3215 1.428 . S
C3214 C3227 1.394 . S
C3215 H3207 0.949 . S
C3215 C3214 1.428 . S
C3215 C3216 1.345 . S
C3216 H3208 0.950 . S
C3216 C3215 1.345 . S
C3216 C3217 1.424 . S
C3217 H3209 0.951 . S
C3217 C3216 1.424 . S
C3217 C3218 1.347 . S
C3218 H3210 0.951 . S
C3218 C3213 1.429 . S
C3218 C3217 1.347 . S
H3219 C3220 0.951 . S
C3220 H3219 0.951 . S
C3220 C3226 1.265 . S
H3221 C3226 0.950 . S
H3222 C3230 0.949 . S
H3223 C3231 0.950 . S
H3224 C3232 0.951 . S
H3225 C3233 0.951 . S
C3226 C3220 1.265 . S
C3226 H3221 0.950 . S
C3226 C3227 1.478 . S
C3227 C3214 1.394 . S
C3227 C3226 1.478 . S
C3227 C3228 1.397 . S
C3228 C3227 1.397 . S
C3228 C3229 1.438 . S
C3228 C3233 1.429 . S
C3229 C3212 1.394 . S
C3229 C3228 1.438 . S
C3229 C3230 1.428 . S
C3230 H3222 0.949 . S
C3230 C3229 1.428 . S
C3230 C3231 1.345 . S
C3231 H3223 0.950 . S
C3231 C3230 1.345 . S
C3231 C3232 1.424 . S
C3232 H3224 0.951 . S
C3232 C3231 1.424 . S
C3232 C3233 1.347 . S
C3233 H3225 0.951 . S
C3233 C3228 1.429 . S
C3233 C3232 1.347 . S
H3234 C3235 0.951 . S
C3235 H3234 0.951 . S
C3235 C3241 1.265 . S
H3236 C3241 0.950 . S
H3237 C3245 0.949 . S
H3238 C3246 0.950 . S
H3239 C3247 0.951 . S
H3240 C3248 0.951 . S
C3241 C3235 1.265 . S
C3241 H3236 0.950 . S
C3241 C3242 1.478 . S
C3242 C3241 1.478 . S
C3242 C3243 1.397 . S
C3242 C3259 1.394 . S
C3243 C3242 1.397 . S
C3243 C3244 1.438 . S
C3243 C3248 1.429 . S
C3244 C3243 1.438 . S
C3244 C3245 1.428 . S
C3244 C3257 1.394 . S
C3245 H3237 0.949 . S
C3245 C3244 1.428 . S
C3245 C3246 1.345 . S
C3246 H3238 0.950 . S
C3246 C3245 1.345 . S
C3246 C3247 1.424 . S
C3247 H3239 0.951 . S
C3247 C3246 1.424 . S
C3247 C3248 1.347 . S
C3248 H3240 0.951 . S
C3248 C3243 1.429 . S
C3248 C3247 1.347 . S
H3249 C3250 0.951 . S
C3250 H3249 0.951 . S
C3250 C3256 1.265 . S
H3251 C3256 0.950 . S
H3252 C3260 0.949 . S
H3253 C3261 0.950 . S
H3254 C3262 0.951 . S
H3255 C3263 0.951 . S
C3256 C3250 1.265 . S
C3256 H3251 0.950 . S
C3256 C3257 1.478 . S
C3257 C3244 1.394 . S
C3257 C3256 1.478 . S
C3257 C3258 1.397 . S
C3258 C3257 1.397 . S
C3258 C3259 1.438 . S
C3258 C3263 1.429 . S
C3259 C3242 1.394 . S
C3259 C3258 1.438 . S
C3259 C3260 1.428 . S
C3260 H3252 0.949 . S
C3260 C3259 1.428 . S
C3260 C3261 1.345 . S
C3261 H3253 0.950 . S
C3261 C3260 1.345 . S
C3261 C3262 1.424 . S
C3262 H3254 0.951 . S
C3262 C3261 1.424 . S
C3262 C3263 1.347 . S
C3263 H3255 0.951 . S
C3263 C3258 1.429 . S
C3263 C3262 1.347 . S
H3264 C3265 0.951 . S
C3265 H3264 0.951 . S
C3265 C3271 1.265 . S
H3266 C3271 0.950 . S
H3267 C3275 0.949 . S
H3268 C3276 0.950 . S
H3269 C3277 0.951 . S
H3270 C3278 0.951 . S
C3271 C3265 1.265 . S
C3271 H3266 0.950 . S
C3271 C3272 1.478 . S
C3272 C3271 1.478 . S
C3272 C3273 1.397 . S
C3272 C3289 1.394 . S
C3273 C3272 1.397 . S
C3273 C3274 1.438 . S
C3273 C3278 1.429 . S
C3274 C3273 1.438 . S
C3274 C3275 1.428 . S
C3274 C3287 1.394 . S
C3275 H3267 0.949 . S
C3275 C3274 1.428 . S
C3275 C3276 1.345 . S
C3276 H3268 0.950 . S
C3276 C3275 1.345 . S
C3276 C3277 1.424 . S
C3277 H3269 0.951 . S
C3277 C3276 1.424 . S
C3277 C3278 1.347 . S
C3278 H3270 0.951 . S
C3278 C3273 1.429 . S
C3278 C3277 1.347 . S
H3279 C3280 0.951 . S
C3280 H3279 0.951 . S
C3280 C3286 1.265 . S
H3281 C3286 0.950 . S
H3282 C3290 0.949 . S
H3283 C3291 0.950 . S
H3284 C3292 0.951 . S
H3285 C3293 0.951 . S
C3286 C3280 1.265 . S
C3286 H3281 0.950 . S
C3286 C3287 1.478 . S
C3287 C3274 1.394 . S
C3287 C3286 1.478 . S
C3287 C3288 1.397 . S
C3288 C3287 1.397 . S
C3288 C3289 1.438 . S
C3288 C3293 1.429 . S
C3289 C3272 1.394 . S
C3289 C3288 1.438 . S
C3289 C3290 1.428 . S
C3290 H3282 0.949 . S
C3290 C3289 1.428 . S
C3290 C3291 1.345 . S
C3291 H3283 0.950 . S
C3291 C3290 1.345 . S
C3291 C3292 1.424 . S
C3292 H3284 0.951 . S
C3292 C3291 1.424 . S
C3292 C3293 1.347 . S
C3293 H3285 0.951 . S
C3293 C3288 1.429 . S
C3293 C3292 1.347 . S
H3294 C3295 0.951 . S
C3295 H3294 0.951 . S
C3295 C3301 1.265 . S
H3296 C3301 0.950 . S
H3297 C3305 0.949 . S
H3298 C3306 0.950 . S
H3299 C3307 0.951 . S
H3300 C3308 0.951 . S
C3301 C3295 1.265 . S
C3301 H3296 0.950 . S
C3301 C3302 1.478 . S
C3302 C3301 1.478 . S
C3302 C3303 1.397 . S
C3302 C3319 1.394 . S
C3303 C3302 1.397 . S
C3303 C3304 1.438 . S
C3303 C3308 1.429 . S
C3304 C3303 1.438 . S
C3304 C3305 1.428 . S
C3304 C3317 1.394 . S
C3305 H3297 0.949 . S
C3305 C3304 1.428 . S
C3305 C3306 1.345 . S
C3306 H3298 0.950 . S
C3306 C3305 1.345 . S
C3306 C3307 1.424 . S
C3307 H3299 0.951 . S
C3307 C3306 1.424 . S
C3307 C3308 1.347 . S
C3308 H3300 0.951 . S
C3308 C3303 1.429 . S
C3308 C3307 1.347 . S
H3309 C3310 0.951 . S
C3310 H3309 0.951 . S
C3310 C3316 1.265 . S
H3311 C3316 0.950 . S
H3312 C3320 0.949 . S
H3313 C3321 0.950 . S
H3314 C3322 0.951 . S
H3315 C3323 0.951 . S
C3316 C3310 1.265 . S
C3316 H3311 0.950 . S
C3316 C3317 1.478 . S
C3317 C3304 1.394 . S
C3317 C3316 1.478 . S
C3317 C3318 1.397 . S
C3318 C3317 1.397 . S
C3318 C3319 1.438 . S
C3318 C3323 1.429 . S
C3319 C3302 1.394 . S
C3319 C3318 1.438 . S
C3319 C3320 1.428 . S
C3320 H3312 0.949 . S
C3320 C3319 1.428 . S
C3320 C3321 1.345 . S
C3321 H3313 0.950 . S
C3321 C3320 1.345 . S
C3321 C3322 1.424 . S
C3322 H3314 0.951 . S
C3322 C3321 1.424 . S
C3322 C3323 1.347 . S
C3323 H3315 0.951 . S
C3323 C3318 1.429 . S
C3323 C3322 1.347 . S
H3324 C3325 0.951 . S
C3325 H3324 0.951 . S
C3325 C3331 1.265 . S
H3326 C3331 0.950 . S
H3327 C3335 0.949 . S
H3328 C3336 0.950 . S
H3329 C3337 0.951 . S
H3330 C3338 0.951 . S
C3331 C3325 1.265 . S
C3331 H3326 0.950 . S
C3331 C3332 1.478 . S
C3332 C3331 1.478 . S
C3332 C3333 1.397 . S
C3332 C3349 1.394 . S
C3333 C3332 1.397 . S
C3333 C3334 1.438 . S
C3333 C3338 1.429 . S
C3334 C3333 1.438 . S
C3334 C3335 1.428 . S
C3334 C3347 1.394 . S
C3335 H3327 0.949 . S
C3335 C3334 1.428 . S
C3335 C3336 1.345 . S
C3336 H3328 0.950 . S
C3336 C3335 1.345 . S
C3336 C3337 1.424 . S
C3337 H3329 0.951 . S
C3337 C3336 1.424 . S
C3337 C3338 1.347 . S
C3338 H3330 0.951 . S
C3338 C3333 1.429 . S
C3338 C3337 1.347 . S
H3339 C3340 0.951 . S
C3340 H3339 0.951 . S
C3340 C3346 1.265 . S
H3341 C3346 0.950 . S
H3342 C3350 0.949 . S
H3343 C3351 0.950 . S
H3344 C3352 0.951 . S
H3345 C3353 0.951 . S
C3346 C3340 1.265 . S
C3346 H3341 0.950 . S
C3346 C3347 1.478 . S
C3347 C3334 1.394 . S
C3347 C3346 1.478 . S
C3347 C3348 1.397 . S
C3348 C3347 1.397 . S
C3348 C3349 1.438 . S
C3348 C3353 1.429 . S
C3349 C3332 1.394 . S
C3349 C3348 1.438 . S
C3349 C3350 1.428 . S
C3350 H3342 0.949 . S
C3350 C3349 1.428 . S
C3350 C3351 1.345 . S
C3351 H3343 0.950 . S
C3351 C3350 1.345 . S
C3351 C3352 1.424 . S
C3352 H3344 0.951 . S
C3352 C3351 1.424 . S
C3352 C3353 1.347 . S
C3353 H3345 0.951 . S
C3353 C3348 1.429 . S
C3353 C3352 1.347 . S
H3354 C3355 0.951 . S
C3355 H3354 0.951 . S
C3355 C3361 1.265 . S
H3356 C3361 0.950 . S
H3357 C3365 0.949 . S
H3358 C3366 0.950 . S
H3359 C3367 0.951 . S
H3360 C3368 0.951 . S
C3361 C3355 1.265 . S
C3361 H3356 0.950 . S
C3361 C3362 1.478 . S
C3362 C3361 1.478 . S
C3362 C3363 1.397 . S
C3362 C3379 1.394 . S
C3363 C3362 1.397 . S
C3363 C3364 1.438 . S
C3363 C3368 1.429 . S
C3364 C3363 1.438 . S
C3364 C3365 1.428 . S
C3364 C3377 1.394 . S
C3365 H3357 0.949 . S
C3365 C3364 1.428 . S
C3365 C3366 1.345 . S
C3366 H3358 0.950 . S
C3366 C3365 1.345 . S
C3366 C3367 1.424 . S
C3367 H3359 0.951 . S
C3367 C3366 1.424 . S
C3367 C3368 1.347 . S
C3368 H3360 0.951 . S
C3368 C3363 1.429 . S
C3368 C3367 1.347 . S
H3369 C3370 0.951 . S
C3370 H3369 0.951 . S
C3370 C3376 1.265 . S
H3371 C3376 0.950 . S
H3372 C3380 0.949 . S
H3373 C3381 0.950 . S
H3374 C3382 0.951 . S
H3375 C3383 0.951 . S
C3376 C3370 1.265 . S
C3376 H3371 0.950 . S
C3376 C3377 1.478 . S
C3377 C3364 1.394 . S
C3377 C3376 1.478 . S
C3377 C3378 1.397 . S
C3378 C3377 1.397 . S
C3378 C3379 1.438 . S
C3378 C3383 1.429 . S
C3379 C3362 1.394 . S
C3379 C3378 1.438 . S
C3379 C3380 1.428 . S
C3380 H3372 0.949 . S
C3380 C3379 1.428 . S
C3380 C3381 1.345 . S
C3381 H3373 0.950 . S
C3381 C3380 1.345 . S
C3381 C3382 1.424 . S
C3382 H3374 0.951 . S
C3382 C3381 1.424 . S
C3382 C3383 1.347 . S
C3383 H3375 0.951 . S
C3383 C3378 1.429 . S
C3383 C3382 1.347 . S
H3384 C3385 0.951 . S
C3385 H3384 0.951 . S
C3385 C3391 1.265 . S
H3386 C3391 0.950 . S
H3387 C3395 0.949 . S
H3388 C3396 0.950 . S
H3389 C3397 0.951 . S
H3390 C3398 0.951 . S
C3391 C3385 1.265 . S
C3391 H3386 0.950 . S
C3391 C3392 1.478 . S
C3392 C3391 1.478 . S
C3392 C3393 1.397 . S
C3392 C3409 1.394 . S
C3393 C3392 1.397 . S
C3393 C3394 1.438 . S
C3393 C3398 1.429 . S
C3394 C3393 1.438 . S
C3394 C3395 1.428 . S
C3394 C3407 1.394 . S
C3395 H3387 0.949 . S
C3395 C3394 1.428 . S
C3395 C3396 1.345 . S
C3396 H3388 0.950 . S
C3396 C3395 1.345 . S
C3396 C3397 1.424 . S
C3397 H3389 0.951 . S
C3397 C3396 1.424 . S
C3397 C3398 1.347 . S
C3398 H3390 0.951 . S
C3398 C3393 1.429 . S
C3398 C3397 1.347 . S
H3399 C3400 0.951 . S
C3400 H3399 0.951 . S
C3400 C3406 1.265 . S
H3401 C3406 0.950 . S
H3402 C3410 0.949 . S
H3403 C3411 0.950 . S
H3404 C3412 0.951 . S
H3405 C3413 0.951 . S
C3406 C3400 1.265 . S
C3406 H3401 0.950 . S
C3406 C3407 1.478 . S
C3407 C3394 1.394 . S
C3407 C3406 1.478 . S
C3407 C3408 1.397 . S
C3408 C3407 1.397 . S
C3408 C3409 1.438 . S
C3408 C3413 1.429 . S
C3409 C3392 1.394 . S
C3409 C3408 1.438 . S
C3409 C3410 1.428 . S
C3410 H3402 0.949 . S
C3410 C3409 1.428 . S
C3410 C3411 1.345 . S
C3411 H3403 0.950 . S
C3411 C3410 1.345 . S
C3411 C3412 1.424 . S
C3412 H3404 0.951 . S
C3412 C3411 1.424 . S
C3412 C3413 1.347 . S
C3413 H3405 0.951 . S
C3413 C3408 1.429 . S
C3413 C3412 1.347 . S
H3414 C3415 0.951 . S
C3415 H3414 0.951 . S
C3415 C3421 1.265 . S
H3416 C3421 0.950 . S
H3417 C3425 0.949 . S
H3418 C3426 0.950 . S
H3419 C3427 0.951 . S
H3420 C3428 0.951 . S
C3421 C3415 1.265 . S
C3421 H3416 0.950 . S
C3421 C3422 1.478 . S
C3422 C3421 1.478 . S
C3422 C3423 1.397 . S
C3422 C3439 1.394 . S
C3423 C3422 1.397 . S
C3423 C3424 1.438 . S
C3423 C3428 1.429 . S
C3424 C3423 1.438 . S
C3424 C3425 1.428 . S
C3424 C3437 1.394 . S
C3425 H3417 0.949 . S
C3425 C3424 1.428 . S
C3425 C3426 1.345 . S
C3426 H3418 0.950 . S
C3426 C3425 1.345 . S
C3426 C3427 1.424 . S
C3427 H3419 0.951 . S
C3427 C3426 1.424 . S
C3427 C3428 1.347 . S
C3428 H3420 0.951 . S
C3428 C3423 1.429 . S
C3428 C3427 1.347 . S
H3429 C3430 0.951 . S
C3430 H3429 0.951 . S
C3430 C3436 1.265 . S
H3431 C3436 0.950 . S
H3432 C3440 0.949 . S
H3433 C3441 0.950 . S
H3434 C3442 0.951 . S
H3435 C3443 0.951 . S
C3436 C3430 1.265 . S
C3436 H3431 0.950 . S
C3436 C3437 1.478 . S
C3437 C3424 1.394 . S
C3437 C3436 1.478 . S
C3437 C3438 1.397 . S
C3438 C3437 1.397 . S
C3438 C3439 1.438 . S
C3438 C3443 1.429 . S
C3439 C3422 1.394 . S
C3439 C3438 1.438 . S
C3439 C3440 1.428 . S
C3440 H3432 0.949 . S
C3440 C3439 1.428 . S
C3440 C3441 1.345 . S
C3441 H3433 0.950 . S
C3441 C3440 1.345 . S
C3441 C3442 1.424 . S
C3442 H3434 0.951 . S
C3442 C3441 1.424 . S
C3442 C3443 1.347 . S
C3443 H3435 0.951 . S
C3443 C3438 1.429 . S
C3443 C3442 1.347 . S
H3444 C3445 0.951 . S
C3445 H3444 0.951 . S
C3445 C3451 1.265 . S
H3446 C3451 0.950 . S
H3447 C3455 0.949 . S
H3448 C3456 0.950 . S
H3449 C3457 0.951 . S
H3450 C3458 0.951 . S
C3451 C3445 1.265 . S
C3451 H3446 0.950 . S
C3451 C3452 1.478 . S
C3452 C3451 1.478 . S
C3452 C3453 1.397 . S
C3452 C3469 1.394 . S
C3453 C3452 1.397 . S
C3453 C3454 1.438 . S
C3453 C3458 1.429 . S
C3454 C3453 1.438 . S
C3454 C3455 1.428 . S
C3454 C3467 1.394 . S
C3455 H3447 0.949 . S
C3455 C3454 1.428 . S
C3455 C3456 1.345 . S
C3456 H3448 0.950 . S
C3456 C3455 1.345 . S
C3456 C3457 1.424 . S
C3457 H3449 0.951 . S
C3457 C3456 1.424 . S
C3457 C3458 1.347 . S
C3458 H3450 0.951 . S
C3458 C3453 1.429 . S
C3458 C3457 1.347 . S
H3459 C3460 0.951 . S
C3460 H3459 0.951 . S
C3460 C3466 1.265 . S
H3461 C3466 0.950 . S
H3462 C3470 0.949 . S
H3463 C3471 0.950 . S
H3464 C3472 0.951 . S
H3465 C3473 0.951 . S
C3466 C3460 1.265 . S
C3466 H3461 0.950 . S
C3466 C3467 1.478 . S
C3467 C3454 1.394 . S
C3467 C3466 1.478 . S
C3467 C3468 1.397 . S
C3468 C3467 1.397 . S
C3468 C3469 1.438 . S
C3468 C3473 1.429 . S
C3469 C3452 1.394 . S
C3469 C3468 1.438 . S
C3469 C3470 1.428 . S
C3470 H3462 0.949 . S
C3470 C3469 1.428 . S
C3470 C3471 1.345 . S
C3471 H3463 0.950 . S
C3471 C3470 1.345 . S
C3471 C3472 1.424 . S
C3472 H3464 0.951 . S
C3472 C3471 1.424 . S
C3472 C3473 1.347 . S
C3473 H3465 0.951 . S
C3473 C3468 1.429 . S
C3473 C3472 1.347 . S
H3474 C3475 0.951 . S
C3475 H3474 0.951 . S
C3475 C3481 1.265 . S
H3476 C3481 0.950 . S
H3477 C3485 0.949 . S
H3478 C3486 0.950 . S
H3479 C3487 0.951 . S
H3480 C3488 0.951 . S
C3481 C3475 1.265 . S
C3481 H3476 0.950 . S
C3481 C3482 1.478 . S
C3482 C3481 1.478 . S
C3482 C3483 1.397 . S
C3482 C3499 1.394 . S
C3483 C3482 1.397 . S
C3483 C3484 1.438 . S
C3483 C3488 1.429 . S
C3484 C3483 1.438 . S
C3484 C3485 1.428 . S
C3484 C3497 1.394 . S
C3485 H3477 0.949 . S
C3485 C3484 1.428 . S
C3485 C3486 1.345 . S
C3486 H3478 0.950 . S
C3486 C3485 1.345 . S
C3486 C3487 1.424 . S
C3487 H3479 0.951 . S
C3487 C3486 1.424 . S
C3487 C3488 1.347 . S
C3488 H3480 0.951 . S
C3488 C3483 1.429 . S
C3488 C3487 1.347 . S
H3489 C3490 0.951 . S
C3490 H3489 0.951 . S
C3490 C3496 1.265 . S
H3491 C3496 0.950 . S
H3492 C3500 0.949 . S
H3493 C3501 0.950 . S
H3494 C3502 0.951 . S
H3495 C3503 0.951 . S
C3496 C3490 1.265 . S
C3496 H3491 0.950 . S
C3496 C3497 1.478 . S
C3497 C3484 1.394 . S
C3497 C3496 1.478 . S
C3497 C3498 1.397 . S
C3498 C3497 1.397 . S
C3498 C3499 1.438 . S
C3498 C3503 1.429 . S
C3499 C3482 1.394 . S
C3499 C3498 1.438 . S
C3499 C3500 1.428 . S
C3500 H3492 0.949 . S
C3500 C3499 1.428 . S
C3500 C3501 1.345 . S
C3501 H3493 0.950 . S
C3501 C3500 1.345 . S
C3501 C3502 1.424 . S
C3502 H3494 0.951 . S
C3502 C3501 1.424 . S
C3502 C3503 1.347 . S
C3503 H3495 0.951 . S
C3503 C3498 1.429 . S
C3503 C3502 1.347 . S
H3504 C3505 0.951 . S
C3505 H3504 0.951 . S
C3505 C3511 1.265 . S
H3506 C3511 0.950 . S
H3507 C3515 0.949 . S
H3508 C3516 0.950 . S
H3509 C3517 0.951 1_554 S
H3510 C3518 0.981 . S
C3511 C3505 1.265 . S
C3511 H3506 0.950 . S
C3511 C3512 1.478 . S
C3512 C3511 1.478 . S
C3512 C3513 1.397 . S
C3512 C3529 1.394 . S
C3513 C3512 1.397 . S
C3513 C3514 1.438 . S
C3513 C3518 1.429 . S
C3514 C3513 1.438 . S
C3514 C3515 1.428 . S
C3514 C3527 1.394 . S
C3515 H3507 0.949 . S
C3515 C3514 1.428 . S
C3515 C3516 1.345 . S
C3516 H3508 0.950 . S
C3516 C3515 1.345 . S
C3516 C3517 1.424 . S
C3517 H3509 0.951 1_556 S
C3517 C3516 1.424 . S
C3517 C3518 1.347 . S
C3518 H3510 0.981 . S
C3518 C3513 1.429 . S
C3518 C3517 1.347 . S
H3519 C3520 0.951 . S
C3520 H3519 0.951 . S
C3520 C3526 1.265 . S
H3521 C3526 0.950 . S
H3522 C3530 0.949 . S
H3523 C3531 0.950 . S
H3524 C3532 0.951 . S
H3525 C3533 0.951 . S
C3526 C3520 1.265 . S
C3526 H3521 0.950 . S
C3526 C3527 1.478 . S
C3527 C3514 1.394 . S
C3527 C3526 1.478 . S
C3527 C3528 1.397 . S
C3528 C3527 1.397 . S
C3528 C3529 1.438 . S
C3528 C3533 1.429 . S
C3529 C3512 1.394 . S
C3529 C3528 1.438 . S
C3529 C3530 1.428 . S
C3530 H3522 0.949 . S
C3530 C3529 1.428 . S
C3530 C3531 1.345 . S
C3531 H3523 0.950 . S
C3531 C3530 1.345 . S
C3531 C3532 1.424 . S
C3532 H3524 0.951 . S
C3532 C3531 1.424 . S
C3532 C3533 1.347 . S
C3533 H3525 0.951 . S
C3533 C3528 1.429 . S
C3533 C3532 1.347 . S
H3534 C3535 0.951 . S
C3535 H3534 0.951 . S
C3535 C3541 1.265 . S
H3536 C3541 0.950 . S
H3537 C3545 0.949 . S
H3538 C3546 0.950 . S
H3539 C3547 0.951 . S
H3540 C3548 0.951 . S
C3541 C3535 1.265 . S
C3541 H3536 0.950 . S
C3541 C3542 1.478 . S
C3542 C3541 1.478 . S
C3542 C3543 1.397 . S
C3542 C3559 1.394 . S
C3543 C3542 1.397 . S
C3543 C3544 1.438 . S
C3543 C3548 1.429 . S
C3544 C3543 1.438 . S
C3544 C3545 1.428 . S
C3544 C3557 1.394 . S
C3545 H3537 0.949 . S
C3545 C3544 1.428 . S
C3545 C3546 1.345 . S
C3546 H3538 0.950 . S
C3546 C3545 1.345 . S
C3546 C3547 1.424 . S
C3547 H3539 0.951 . S
C3547 C3546 1.424 . S
C3547 C3548 1.347 . S
C3548 H3540 0.951 . S
C3548 C3543 1.429 . S
C3548 C3547 1.347 . S
H3549 C3550 0.951 . S
C3550 H3549 0.951 . S
C3550 C3556 1.265 . S
H3551 C3556 0.950 . S
H3552 C3560 0.964 . S
H3553 C3561 0.950 . S
H3554 C3562 0.951 . S
H3555 C3563 0.951 . S
C3556 C3550 1.265 . S
C3556 H3551 0.950 . S
C3556 C3557 1.478 . S
C3557 C3544 1.394 . S
C3557 C3556 1.478 . S
C3557 C3558 1.397 . S
C3558 C3557 1.397 . S
C3558 C3559 1.438 . S
C3558 C3563 1.429 . S
C3559 C3542 1.394 . S
C3559 C3558 1.438 . S
C3559 C3560 1.396 1_556 S
C3560 H3552 0.964 . S
C3560 C3559 1.396 1_554 S
C3560 C3561 1.363 . S
C3561 H3553 0.950 . S
C3561 C3560 1.363 . S
C3561 C3562 1.424 . S
C3562 H3554 0.951 . S
C3562 C3561 1.424 . S
C3562 C3563 1.347 1_554 S
C3563 H3555 0.951 . S
C3563 C3558 1.429 . S
C3563 C3562 1.347 1_556 S
H3564 C3565 0.951 . S
C3565 H3564 0.951 . S
C3565 C3571 1.265 . S
H3566 C3571 0.950 . S
H3567 C3575 0.949 . S
H3568 C3576 0.950 . S
H3569 C3577 0.951 . S
H3570 C3578 0.951 1_554 S
C3571 C3565 1.265 . S
C3571 H3566 0.950 . S
C3571 C3572 1.478 . S
C3572 C3571 1.478 . S
C3572 C3573 1.397 . S
C3572 C3589 1.394 . S
C3573 C3572 1.397 . S
C3573 C3574 1.438 . S
C3573 C3578 1.429 . S
C3574 C3573 1.438 . S
C3574 C3575 1.428 . S
C3574 C3587 1.394 . S
C3575 H3567 0.949 . S
C3575 C3574 1.428 . S
C3575 C3576 1.345 . S
C3576 H3568 0.950 . S
C3576 C3575 1.345 . S
C3576 C3577 1.424 1_556 S
C3577 H3569 0.951 . S
C3577 C3576 1.424 1_554 S
C3577 C3578 1.347 1_554 S
C3578 H3570 0.951 1_556 S
C3578 C3573 1.429 . S
C3578 C3577 1.347 1_556 S
H3579 C3580 0.951 . S
C3580 H3579 0.951 . S
C3580 C3586 1.265 . S
H3581 C3586 0.950 . S
H3582 C3590 0.949 . S
H3583 C3591 0.950 . S
H3584 C3592 0.951 . S
H3585 C3593 0.951 . S
C3586 C3580 1.265 . S
C3586 H3581 0.950 . S
C3586 C3587 1.478 . S
C3587 C3574 1.394 . S
C3587 C3586 1.478 . S
C3587 C3588 1.397 . S
C3588 C3587 1.397 . S
C3588 C3589 1.438 . S
C3588 C3593 1.429 . S
C3589 C3572 1.394 . S
C3589 C3588 1.438 . S
C3589 C3590 1.428 . S
C3590 H3582 0.949 . S
C3590 C3589 1.428 . S
C3590 C3591 1.345 . S
C3591 H3583 0.950 . S
C3591 C3590 1.345 . S
C3591 C3592 1.424 . S
C3592 H3584 0.951 . S
C3592 C3591 1.424 . S
C3592 C3593 1.347 . S
C3593 H3585 0.951 . S
C3593 C3588 1.429 . S
C3593 C3592 1.347 . S
H3594 C3595 0.951 . S
C3595 H3594 0.951 . S
C3595 C3601 1.265 . S
H3596 C3601 0.950 . S
H3597 C3605 0.949 . S
H3598 C3606 0.950 . S
H3599 C3607 0.942 1_554 S
H3600 C3608 0.951 . S
C3601 C3595 1.265 . S
C3601 H3596 0.950 . S
C3601 C3602 1.478 . S
C3602 C3601 1.478 . S
C3602 C3603 1.397 . S
C3602 C3619 1.394 . S
C3603 C3602 1.397 . S
C3603 C3604 1.438 . S
C3603 C3608 1.429 . S
C3604 C3603 1.438 . S
C3604 C3605 1.428 . S
C3604 C3617 1.394 . S
C3605 H3597 0.949 . S
C3605 C3604 1.428 . S
C3605 C3606 1.345 . S
C3606 H3598 0.950 . S
C3606 C3605 1.345 . S
C3606 C3607 1.424 . S
C3607 H3599 0.942 1_556 S
C3607 C3606 1.424 . S
C3607 C3608 1.347 . S
C3608 H3600 0.951 . S
C3608 C3603 1.429 . S
C3608 C3607 1.347 . S
H3609 C3610 0.951 . S
C3610 H3609 0.951 . S
C3610 C3616 1.265 . S
H3611 C3616 0.950 . S
H3612 C3620 0.949 . S
H3613 C3621 0.950 . S
H3614 C3622 0.951 . S
H3615 C3623 0.951 . S
C3616 C3610 1.265 . S
C3616 H3611 0.950 . S
C3616 C3617 1.478 . S
C3617 C3604 1.394 . S
C3617 C3616 1.478 . S
C3617 C3618 1.397 . S
C3618 C3617 1.397 . S
C3618 C3619 1.438 . S
C3618 C3623 1.429 . S
C3619 C3602 1.394 . S
C3619 C3618 1.438 . S
C3619 C3620 1.428 . S
C3620 H3612 0.949 . S
C3620 C3619 1.428 . S
C3620 C3621 1.345 . S
C3621 H3613 0.950 . S
C3621 C3620 1.345 . S
C3621 C3622 1.424 . S
C3622 H3614 0.951 . S
C3622 C3621 1.424 . S
C3622 C3623 1.347 . S
C3623 H3615 0.951 . S
C3623 C3618 1.429 . S
C3623 C3622 1.347 . S
H3624 C3625 0.941 1_554 S
C3625 H3624 0.941 1_556 S
C3625 C3631 1.265 . S
H3626 C3631 0.950 . S
H3627 C3635 0.949 . S
H3628 C3636 0.950 . S
H3629 C3637 0.951 . S
H3630 C3638 0.951 . S
C3631 C3625 1.265 . S
C3631 H3626 0.950 . S
C3631 C3632 1.478 . S
C3632 C3631 1.478 . S
C3632 C3633 1.397 . S
C3632 C3649 1.394 . S
C3633 C3632 1.397 . S
C3633 C3634 1.438 . S
C3633 C3638 1.429 . S
C3634 C3633 1.438 . S
C3634 C3635 1.428 . S
C3634 C3647 1.394 . S
C3635 H3627 0.949 . S
C3635 C3634 1.428 . S
C3635 C3636 1.345 . S
C3636 H3628 0.950 . S
C3636 C3635 1.345 . S
C3636 C3637 1.424 . S
C3637 H3629 0.951 . S
C3637 C3636 1.424 . S
C3637 C3638 1.347 . S
C3638 H3630 0.951 . S
C3638 C3633 1.429 . S
C3638 C3637 1.347 . S
H3639 C3640 0.951 . S
C3640 H3639 0.951 . S
C3640 C3646 1.265 . S
H3641 C3646 0.950 . S
H3642 C3650 0.949 . S
H3643 C3651 0.931 1_565 S
H3644 C3652 0.951 . S
H3645 C3653 0.951 . S
C3646 C3640 1.265 . S
C3646 H3641 0.950 . S
C3646 C3647 1.478 . S
C3647 C3634 1.394 . S
C3647 C3646 1.478 . S
C3647 C3648 1.397 . S
C3648 C3647 1.397 . S
C3648 C3649 1.438 . S
C3648 C3653 1.429 . S
C3649 C3632 1.394 . S
C3649 C3648 1.438 . S
C3649 C3650 1.428 . S
C3650 H3642 0.949 . S
C3650 C3649 1.428 . S
C3650 C3651 1.345 . S
C3651 H3643 0.931 1_545 S
C3651 C3650 1.345 . S
C3651 C3652 1.424 . S
C3652 H3644 0.951 . S
C3652 C3651 1.424 . S
C3652 C3653 1.347 . S
C3653 H3645 0.951 . S
C3653 C3648 1.429 . S
C3653 C3652 1.347 . S
H3654 C3655 0.951 . S
C3655 H3654 0.951 . S
C3655 C3661 1.265 . S
H3656 C3661 0.950 . S
H3657 C3665 0.949 . S
H3658 C3666 0.950 . S
H3659 C3667 0.951 . S
H3660 C3668 0.951 . S
C3661 C3655 1.265 . S
C3661 H3656 0.950 . S
C3661 C3662 1.478 . S
C3662 C3661 1.478 . S
C3662 C3663 1.397 . S
C3662 C3679 1.394 . S
C3663 C3662 1.397 . S
C3663 C3664 1.438 . S
C3663 C3668 1.429 . S
C3664 C3663 1.438 . S
C3664 C3665 1.428 . S
C3664 C3677 1.394 . S
C3665 H3657 0.949 . S
C3665 C3664 1.428 . S
C3665 C3666 1.345 . S
C3666 H3658 0.950 . S
C3666 C3665 1.345 . S
C3666 C3667 1.424 . S
C3667 H3659 0.951 . S
C3667 C3666 1.424 . S
C3667 C3668 1.347 . S
C3668 H3660 0.951 . S
C3668 C3663 1.429 . S
C3668 C3667 1.347 . S
H3669 C3670 0.951 . S
C3670 H3669 0.951 . S
C3670 C3676 1.265 . S
H3671 C3676 0.950 . S
H3672 C3680 0.949 . S
H3673 C3681 0.950 . S
H3674 C3682 0.951 . S
H3675 C3683 0.951 . S
C3676 C3670 1.265 . S
C3676 H3671 0.950 . S
C3676 C3677 1.478 . S
C3677 C3664 1.394 . S
C3677 C3676 1.478 . S
C3677 C3678 1.397 . S
C3678 C3677 1.397 . S
C3678 C3679 1.438 . S
C3678 C3683 1.429 . S
C3679 C3662 1.394 . S
C3679 C3678 1.438 . S
C3679 C3680 1.428 . S
C3680 H3672 0.949 . S
C3680 C3679 1.428 . S
C3680 C3681 1.345 . S
C3681 H3673 0.950 . S
C3681 C3680 1.345 . S
C3681 C3682 1.424 . S
C3682 H3674 0.951 . S
C3682 C3681 1.424 . S
C3682 C3683 1.347 . S
C3683 H3675 0.951 . S
C3683 C3678 1.429 . S
C3683 C3682 1.347 . S
H3684 C3685 0.951 . S
C3685 H3684 0.951 . S
C3685 C3691 1.265 . S
H3686 C3691 0.950 . S
H3687 C3695 0.949 . S
H3688 C3696 0.950 . S
H3689 C3697 0.951 . S
H3690 C3698 0.951 . S
C3691 C3685 1.265 . S
C3691 H3686 0.950 . S
C3691 C3692 1.478 . S
C3692 C3691 1.478 . S
C3692 C3693 1.397 . S
C3692 C3709 1.394 . S
C3693 C3692 1.397 . S
C3693 C3694 1.438 . S
C3693 C3698 1.429 . S
C3694 C3693 1.438 . S
C3694 C3695 1.428 . S
C3694 C3707 1.394 . S
C3695 H3687 0.949 . S
C3695 C3694 1.428 . S
C3695 C3696 1.345 . S
C3696 H3688 0.950 . S
C3696 C3695 1.345 . S
C3696 C3697 1.424 . S
C3697 H3689 0.951 . S
C3697 C3696 1.424 . S
C3697 C3698 1.347 . S
C3698 H3690 0.951 . S
C3698 C3693 1.429 . S
C3698 C3697 1.347 . S
H3699 C3700 0.951 . S
C3700 H3699 0.951 . S
C3700 C3706 1.265 . S
H3701 C3706 0.950 . S
H3702 C3710 0.949 . S
H3703 C3711 0.950 1_655 S
H3704 C3712 0.951 . S
H3705 C3713 0.951 . S
C3706 C3700 1.265 . S
C3706 H3701 0.950 . S
C3706 C3707 1.478 . S
C3707 C3694 1.394 . S
C3707 C3706 1.478 . S
C3707 C3708 1.397 . S
C3708 C3707 1.397 . S
C3708 C3709 1.438 . S
C3708 C3713 1.429 . S
C3709 C3692 1.394 . S
C3709 C3708 1.438 . S
C3709 C3710 1.428 . S
C3710 H3702 0.949 . S
C3710 C3709 1.428 . S
C3710 C3711 1.345 . S
C3711 H3703 0.950 1_455 S
C3711 C3710 1.345 . S
C3711 C3712 1.424 . S
C3712 H3704 0.951 . S
C3712 C3711 1.424 . S
C3712 C3713 1.347 . S
C3713 H3705 0.951 . S
C3713 C3708 1.429 . S
C3713 C3712 1.347 . S
H3714 C3715 0.951 . S
C3715 H3714 0.951 . S
C3715 C3721 1.265 . S
H3716 C3721 0.950 . S
H3717 C3725 0.949 . S
H3718 C3726 0.950 . S
H3719 C3727 0.951 . S
H3720 C3728 0.951 . S
C3721 C3715 1.265 . S
C3721 H3716 0.950 . S
C3721 C3722 1.478 . S
C3722 C3721 1.478 . S
C3722 C3723 1.397 . S
C3722 C3739 1.394 . S
C3723 C3722 1.397 . S
C3723 C3724 1.438 . S
C3723 C3728 1.429 . S
C3724 C3723 1.438 . S
C3724 C3725 1.428 . S
C3724 C3737 1.394 . S
C3725 H3717 0.949 . S
C3725 C3724 1.428 . S
C3725 C3726 1.345 . S
C3726 H3718 0.950 . S
C3726 C3725 1.345 . S
C3726 C3727 1.424 . S
C3727 H3719 0.951 . S
C3727 C3726 1.424 . S
C3727 C3728 1.347 . S
C3728 H3720 0.951 . S
C3728 C3723 1.429 . S
C3728 C3727 1.347 . S
H3729 C3730 0.951 . S
C3730 H3729 0.951 . S
C3730 C3736 1.265 . S
H3731 C3736 0.950 . S
H3732 C3740 0.949 . S
H3733 C3741 0.950 . S
H3734 C3742 0.951 . S
H3735 C3743 0.951 . S
C3736 C3730 1.265 . S
C3736 H3731 0.950 . S
C3736 C3737 1.478 . S
C3737 C3724 1.394 . S
C3737 C3736 1.478 . S
C3737 C3738 1.397 . S
C3738 C3737 1.397 . S
C3738 C3739 1.438 . S
C3738 C3743 1.429 . S
C3739 C3722 1.394 . S
C3739 C3738 1.438 . S
C3739 C3740 1.428 . S
C3740 H3732 0.949 . S
C3740 C3739 1.428 . S
C3740 C3741 1.345 . S
C3741 H3733 0.950 . S
C3741 C3740 1.345 . S
C3741 C3742 1.424 . S
C3742 H3734 0.951 . S
C3742 C3741 1.424 . S
C3742 C3743 1.347 . S
C3743 H3735 0.951 . S
C3743 C3738 1.429 . S
C3743 C3742 1.347 . S
H3744 C3745 0.951 . S
C3745 H3744 0.951 . S
C3745 C3751 1.265 . S
H3746 C3751 0.950 . S
H3747 C3755 0.949 . S
H3748 C3756 0.950 . S
H3749 C3757 0.951 . S
H3750 C3758 0.951 . S
C3751 C3745 1.265 . S
C3751 H3746 0.950 . S
C3751 C3752 1.478 . S
C3752 C3751 1.478 . S
C3752 C3753 1.397 . S
C3752 C3769 1.394 . S
C3753 C3752 1.397 . S
C3753 C3754 1.438 . S
C3753 C3758 1.429 . S
C3754 C3753 1.438 . S
C3754 C3755 1.428 . S
C3754 C3767 1.394 . S
C3755 H3747 0.949 . S
C3755 C3754 1.428 . S
C3755 C3756 1.345 . S
C3756 H3748 0.950 . S
C3756 C3755 1.345 . S
C3756 C3757 1.424 . S
C3757 H3749 0.951 . S
C3757 C3756 1.424 . S
C3757 C3758 1.347 . S
C3758 H3750 0.951 . S
C3758 C3753 1.429 . S
C3758 C3757 1.347 . S
H3759 C3760 0.951 . S
C3760 H3759 0.951 . S
C3760 C3766 1.265 . S
H3761 C3766 0.950 . S
H3762 C3770 0.949 . S
H3763 C3771 0.950 . S
H3764 C3772 0.951 . S
H3765 C3773 0.951 . S
C3766 C3760 1.265 . S
C3766 H3761 0.950 . S
C3766 C3767 1.478 . S
C3767 C3754 1.394 . S
C3767 C3766 1.478 . S
C3767 C3768 1.397 . S
C3768 C3767 1.397 . S
C3768 C3769 1.438 . S
C3768 C3773 1.429 . S
C3769 C3752 1.394 . S
C3769 C3768 1.438 . S
C3769 C3770 1.428 . S
C3770 H3762 0.949 . S
C3770 C3769 1.428 . S
C3770 C3771 1.345 . S
C3771 H3763 0.950 . S
C3771 C3770 1.345 . S
C3771 C3772 1.424 . S
C3772 H3764 0.951 . S
C3772 C3771 1.424 . S
C3772 C3773 1.347 . S
C3773 H3765 0.951 . S
C3773 C3768 1.429 . S
C3773 C3772 1.347 . S
H3774 C3775 0.951 . S
C3775 H3774 0.951 . S
C3775 C3781 1.265 . S
H3776 C3781 0.950 . S
H3777 C3785 0.949 . S
H3778 C3786 0.950 . S
H3779 C3787 0.951 . S
H3780 C3788 0.951 . S
C3781 C3775 1.265 . S
C3781 H3776 0.950 . S
C3781 C3782 1.478 . S
C3782 C3781 1.478 . S
C3782 C3783 1.397 . S
C3782 C3799 1.394 . S
C3783 C3782 1.397 . S
C3783 C3784 1.438 . S
C3783 C3788 1.429 . S
C3784 C3783 1.438 . S
C3784 C3785 1.428 . S
C3784 C3797 1.394 . S
C3785 H3777 0.949 . S
C3785 C3784 1.428 . S
C3785 C3786 1.345 . S
C3786 H3778 0.950 . S
C3786 C3785 1.345 . S
C3786 C3787 1.424 . S
C3787 H3779 0.951 . S
C3787 C3786 1.424 . S
C3787 C3788 1.347 . S
C3788 H3780 0.951 . S
C3788 C3783 1.429 . S
C3788 C3787 1.347 . S
H3789 C3790 0.951 . S
C3790 H3789 0.951 . S
C3790 C3796 1.265 . S
H3791 C3796 0.950 . S
H3792 C3800 0.949 . S
H3793 C3801 0.950 . S
H3794 C3802 0.951 . S
H3795 C3803 0.951 . S
C3796 C3790 1.265 . S
C3796 H3791 0.950 . S
C3796 C3797 1.478 . S
C3797 C3784 1.394 . S
C3797 C3796 1.478 . S
C3797 C3798 1.397 . S
C3798 C3797 1.397 . S
C3798 C3799 1.438 . S
C3798 C3803 1.429 . S
C3799 C3782 1.394 . S
C3799 C3798 1.438 . S
C3799 C3800 1.428 . S
C3800 H3792 0.949 . S
C3800 C3799 1.428 . S
C3800 C3801 1.345 . S
C3801 H3793 0.950 . S
C3801 C3800 1.345 . S
C3801 C3802 1.424 . S
C3802 H3794 0.951 . S
C3802 C3801 1.424 . S
C3802 C3803 1.347 . S
C3803 H3795 0.951 . S
C3803 C3798 1.429 . S
C3803 C3802 1.347 . S
H3804 C3805 0.951 . S
C3805 H3804 0.951 . S
C3805 C3811 1.265 . S
H3806 C3811 0.950 . S
H3807 C3815 0.949 . S
H3808 C3816 0.950 . S
H3809 C3817 0.951 . S
H3810 C3818 0.951 . S
C3811 C3805 1.265 . S
C3811 H3806 0.950 . S
C3811 C3812 1.478 . S
C3812 C3811 1.478 . S
C3812 C3813 1.397 . S
C3812 C3829 1.394 . S
C3813 C3812 1.397 . S
C3813 C3814 1.438 . S
C3813 C3818 1.429 . S
C3814 C3813 1.438 . S
C3814 C3815 1.428 . S
C3814 C3827 1.394 . S
C3815 H3807 0.949 . S
C3815 C3814 1.428 . S
C3815 C3816 1.345 . S
C3816 H3808 0.950 . S
C3816 C3815 1.345 . S
C3816 C3817 1.424 . S
C3817 H3809 0.951 . S
C3817 C3816 1.424 . S
C3817 C3818 1.347 . S
C3818 H3810 0.951 . S
C3818 C3813 1.429 . S
C3818 C3817 1.347 . S
H3819 C3820 0.951 . S
C3820 H3819 0.951 . S
C3820 C3826 1.265 . S
H3821 C3826 0.950 . S
H3822 C3830 0.949 . S
H3823 C3831 0.950 . S
H3824 C3832 0.951 . S
H3825 C3833 0.951 . S
C3826 C3820 1.265 . S
C3826 H3821 0.950 . S
C3826 C3827 1.478 . S
C3827 C3814 1.394 . S
C3827 C3826 1.478 . S
C3827 C3828 1.397 . S
C3828 C3827 1.397 . S
C3828 C3829 1.438 . S
C3828 C3833 1.429 . S
C3829 C3812 1.394 . S
C3829 C3828 1.438 . S
C3829 C3830 1.428 . S
C3830 H3822 0.949 . S
C3830 C3829 1.428 . S
C3830 C3831 1.345 . S
C3831 H3823 0.950 . S
C3831 C3830 1.345 . S
C3831 C3832 1.424 . S
C3832 H3824 0.951 . S
C3832 C3831 1.424 . S
C3832 C3833 1.347 . S
C3833 H3825 0.951 . S
C3833 C3828 1.429 . S
C3833 C3832 1.347 . S
H3834 C3835 0.951 . S
C3835 H3834 0.951 . S
C3835 C3841 1.265 . S
H3836 C3841 0.917 1_655 S
H3837 C3845 0.949 . S
H3838 C3846 0.950 . S
H3839 C3847 0.951 . S
H3840 C3848 0.951 . S
C3841 C3835 1.265 . S
C3841 H3836 0.917 1_455 S
C3841 C3842 1.478 . S
C3842 C3841 1.478 . S
C3842 C3843 1.397 . S
C3842 C3859 1.394 . S
C3843 C3842 1.397 . S
C3843 C3844 1.438 . S
C3843 C3848 1.429 . S
C3844 C3843 1.438 . S
C3844 C3845 1.428 . S
C3844 C3857 1.394 . S
C3845 H3837 0.949 . S
C3845 C3844 1.428 . S
C3845 C3846 1.345 . S
C3846 H3838 0.950 . S
C3846 C3845 1.345 . S
C3846 C3847 1.424 . S
C3847 H3839 0.951 . S
C3847 C3846 1.424 . S
C3847 C3848 1.347 . S
C3848 H3840 0.951 . S
C3848 C3843 1.429 . S
C3848 C3847 1.347 . S
H3849 C3850 0.951 1_655 S
C3850 H3849 0.951 1_455 S
C3850 C3856 1.265 . S
H3851 C3856 0.950 . S
H3852 C3860 0.949 . S
H3853 C3861 0.950 . S
H3854 C3862 0.951 . S
H3855 C3863 0.951 . S
C3856 C3850 1.265 . S
C3856 H3851 0.950 . S
C3856 C3857 1.478 . S
C3857 C3844 1.394 . S
C3857 C3856 1.478 . S
C3857 C3858 1.397 . S
C3858 C3857 1.397 . S
C3858 C3859 1.438 . S
C3858 C3863 1.429 . S
C3859 C3842 1.394 . S
C3859 C3858 1.438 . S
C3859 C3860 1.428 . S
C3860 H3852 0.949 . S
C3860 C3859 1.428 . S
C3860 C3861 1.345 . S
C3861 H3853 0.950 . S
C3861 C3860 1.345 . S
C3861 C3862 1.424 . S
C3862 H3854 0.951 . S
C3862 C3861 1.424 . S
C3862 C3863 1.347 . S
C3863 H3855 0.951 . S
C3863 C3858 1.429 . S
C3863 C3862 1.347 . S
H3864 C3865 0.951 . S
C3865 H3864 0.951 . S
C3865 C3871 1.265 . S
H3866 C3871 0.950 . S
H3867 C3875 0.949 . S
H3868 C3876 0.950 . S
H3869 C3877 0.951 . S
H3870 C3878 0.951 . S
C3871 C3865 1.265 . S
C3871 H3866 0.950 . S
C3871 C3872 1.478 . S
C3872 C3871 1.478 . S
C3872 C3873 1.397 . S
C3872 C3889 1.394 . S
C3873 C3872 1.397 . S
C3873 C3874 1.438 . S
C3873 C3878 1.429 . S
C3874 C3873 1.438 . S
C3874 C3875 1.428 . S
C3874 C3887 1.394 . S
C3875 H3867 0.949 . S
C3875 C3874 1.428 . S
C3875 C3876 1.345 . S
C3876 H3868 0.950 . S
C3876 C3875 1.345 . S
C3876 C3877 1.424 . S
C3877 H3869 0.951 . S
C3877 C3876 1.424 . S
C3877 C3878 1.347 . S
C3878 H3870 0.951 . S
C3878 C3873 1.429 . S
C3878 C3877 1.347 . S
H3879 C3880 0.951 . S
C3880 H3879 0.951 . S
C3880 C3886 1.265 . S
H3881 C3886 0.950 . S
H3882 C3890 0.949 . S
H3883 C3891 0.950 . S
H3884 C3892 0.951 . S
H3885 C3893 0.951 . S
C3886 C3880 1.265 . S
C3886 H3881 0.950 . S
C3886 C3887 1.478 . S
C3887 C3874 1.394 . S
C3887 C3886 1.478 . S
C3887 C3888 1.397 . S
C3888 C3887 1.397 . S
C3888 C3889 1.438 . S
C3888 C3893 1.429 . S
C3889 C3872 1.394 . S
C3889 C3888 1.438 . S
C3889 C3890 1.428 . S
C3890 H3882 0.949 . S
C3890 C3889 1.428 . S
C3890 C3891 1.345 . S
C3891 H3883 0.950 . S
C3891 C3890 1.345 . S
C3891 C3892 1.424 . S
C3892 H3884 0.951 . S
C3892 C3891 1.424 . S
C3892 C3893 1.347 . S
C3893 H3885 0.951 . S
C3893 C3888 1.429 . S
C3893 C3892 1.347 . S
H3894 C3895 0.951 . S
C3895 H3894 0.951 . S
C3895 C3901 1.265 . S
H3896 C3901 0.950 . S
H3897 C3905 0.949 . S
H3898 C3906 0.950 . S
H3899 C3907 0.951 . S
H3900 C3908 0.951 . S
C3901 C3895 1.265 . S
C3901 H3896 0.950 . S
C3901 C3902 1.478 . S
C3902 C3901 1.478 . S
C3902 C3903 1.397 . S
C3902 C3919 1.394 1_565 S
C3903 C3902 1.397 . S
C3903 C3904 1.438 . S
C3903 C3908 1.429 . S
C3904 C3903 1.438 . S
C3904 C3905 1.428 . S
C3904 C3917 1.394 . S
C3905 H3897 0.949 . S
C3905 C3904 1.428 . S
C3905 C3906 1.345 . S
C3906 H3898 0.950 . S
C3906 C3905 1.345 . S
C3906 C3907 1.424 . S
C3907 H3899 0.951 . S
C3907 C3906 1.424 . S
C3907 C3908 1.347 . S
C3908 H3900 0.951 . S
C3908 C3903 1.429 . S
C3908 C3907 1.347 . S
H3909 C3910 0.951 . S
C3910 H3909 0.951 . S
C3910 C3916 1.265 . S
H3911 C3916 0.964 . S
H3912 C3920 0.949 . S
H3913 C3921 0.950 . S
H3914 C3922 0.951 . S
H3915 C3923 0.951 . S
C3916 C3910 1.265 . S
C3916 H3911 0.964 . S
C3916 C3917 1.478 . S
C3917 C3904 1.394 . S
C3917 C3916 1.478 . S
C3917 C3918 1.397 1_565 S
C3918 C3917 1.397 1_545 S
C3918 C3919 1.438 . S
C3918 C3923 1.429 . S
C3919 C3902 1.394 1_545 S
C3919 C3918 1.438 . S
C3919 C3920 1.428 . S
C3920 H3912 0.949 . S
C3920 C3919 1.428 . S
C3920 C3921 1.345 . S
C3921 H3913 0.950 . S
C3921 C3920 1.345 . S
C3921 C3922 1.424 . S
C3922 H3914 0.951 . S
C3922 C3921 1.424 . S
C3922 C3923 1.347 . S
C3923 H3915 0.951 . S
C3923 C3918 1.429 . S
C3923 C3922 1.347 . S
H3924 C3925 0.951 . S
C3925 H3924 0.951 . S
C3925 C3931 1.265 . S
H3926 C3931 0.950 . S
H3927 C3935 0.949 . S
H3928 C3936 0.950 . S
H3929 C3937 0.951 . S
H3930 C3938 0.951 . S
C3931 C3925 1.265 . S
C3931 H3926 0.950 . S
C3931 C3932 1.478 . S
C3932 C3931 1.478 . S
C3932 C3933 1.403 . S
C3932 C3949 1.394 . S
C3933 C3932 1.403 . S
C3933 C3934 1.434 1_565 S
C3933 C3938 1.426 1_565 S
C3934 C3933 1.434 1_545 S
C3934 C3935 1.428 . S
C3934 C3947 1.394 1_545 S
C3935 H3927 0.949 . S
C3935 C3934 1.428 . S
C3935 C3936 1.345 . S
C3936 H3928 0.950 . S
C3936 C3935 1.345 . S
C3936 C3937 1.424 . S
C3937 H3929 0.951 . S
C3937 C3936 1.424 . S
C3937 C3938 1.347 . S
C3938 H3930 0.951 . S
C3938 C3933 1.426 1_545 S
C3938 C3937 1.347 . S
H3939 C3940 0.951 . S
C3940 H3939 0.951 . S
C3940 C3946 1.265 . S
H3941 C3946 0.951 1_545 S
H3942 C3950 0.949 . S
H3943 C3951 0.950 . S
H3944 C3952 0.951 . S
H3945 C3953 0.951 . S
C3946 C3940 1.265 . S
C3946 H3941 0.951 1_565 S
C3946 C3947 1.478 . S
C3947 C3934 1.394 1_565 S
C3947 C3946 1.478 . S
C3947 C3948 1.397 . S
C3948 C3947 1.397 . S
C3948 C3949 1.438 . S
C3948 C3953 1.429 . S
C3949 C3932 1.394 . S
C3949 C3948 1.438 . S
C3949 C3950 1.428 . S
C3950 H3942 0.949 . S
C3950 C3949 1.428 . S
C3950 C3951 1.345 . S
C3951 H3943 0.950 . S
C3951 C3950 1.345 . S
C3951 C3952 1.424 . S
C3952 H3944 0.951 . S
C3952 C3951 1.424 . S
C3952 C3953 1.347 . S
C3953 H3945 0.951 . S
C3953 C3948 1.429 . S
C3953 C3952 1.347 . S
H3954 C3955 0.951 . S
C3955 H3954 0.951 . S
C3955 C3961 1.265 . S
H3956 C3961 0.950 . S
H3957 C3965 0.949 . S
H3958 C3966 0.950 . S
H3959 C3967 0.951 . S
H3960 C3968 0.951 . S
C3961 C3955 1.265 . S
C3961 H3956 0.950 . S
C3961 C3962 1.478 . S
C3962 C3961 1.478 . S
C3962 C3963 1.397 . S
C3962 C3979 1.394 . S
C3963 C3962 1.397 . S
C3963 C3964 1.438 . S
C3963 C3968 1.429 . S
C3964 C3963 1.438 . S
C3964 C3965 1.428 . S
C3964 C3977 1.394 . S
C3965 H3957 0.949 . S
C3965 C3964 1.428 . S
C3965 C3966 1.345 . S
C3966 H3958 0.950 . S
C3966 C3965 1.345 . S
C3966 C3967 1.424 . S
C3967 H3959 0.951 . S
C3967 C3966 1.424 . S
C3967 C3968 1.347 . S
C3968 H3960 0.951 . S
C3968 C3963 1.429 . S
C3968 C3967 1.347 . S
H3969 C3970 0.951 . S
C3970 H3969 0.951 . S
C3970 C3976 1.265 1_655 S
H3971 C3976 0.950 . S
H3972 C3980 0.949 . S
H3973 C3981 0.950 . S
H3974 C3982 0.951 . S
H3975 C3983 0.951 . S
C3976 C3970 1.265 1_455 S
C3976 H3971 0.950 . S
C3976 C3977 1.478 . S
C3977 C3964 1.394 . S
C3977 C3976 1.478 . S
C3977 C3978 1.397 . S
C3978 C3977 1.397 . S
C3978 C3979 1.438 . S
C3978 C3983 1.429 1_455 S
C3979 C3962 1.394 . S
C3979 C3978 1.438 . S
C3979 C3980 1.428 1_455 S
C3980 H3972 0.949 . S
C3980 C3979 1.428 1_655 S
C3980 C3981 1.345 . S
C3981 H3973 0.950 . S
C3981 C3980 1.345 . S
C3981 C3982 1.424 . S
C3982 H3974 0.951 . S
C3982 C3981 1.424 . S
C3982 C3983 1.347 . S
C3983 H3975 0.951 . S
C3983 C3978 1.429 1_655 S
C3983 C3982 1.347 . S
H3984 C3985 0.951 . S
C3985 H3984 0.951 . S
C3985 C3991 1.265 . S
H3986 C3991 0.950 . S
H3987 C3995 0.949 . S
H3988 C3996 0.950 . S
H3989 C3997 0.951 . S
H3990 C3998 0.951 . S
C3991 C3985 1.265 . S
C3991 H3986 0.950 . S
C3991 C3992 1.478 . S
C3992 C3991 1.478 . S
C3992 C3993 1.397 . S
C3992 C4009 1.394 . S
C3993 C3992 1.397 . S
C3993 C3994 1.438 . S
C3993 C3998 1.429 . S
C3994 C3993 1.438 . S
C3994 C3995 1.428 . S
C3994 C4007 1.394 . S
C3995 H3987 0.949 . S
C3995 C3994 1.428 . S
C3995 C3996 1.345 . S
C3996 H3988 0.950 . S
C3996 C3995 1.345 . S
C3996 C3997 1.424 . S
C3997 H3989 0.951 . S
C3997 C3996 1.424 . S
C3997 C3998 1.347 . S
C3998 H3990 0.951 . S
C3998 C3993 1.429 . S
C3998 C3997 1.347 . S
H3999 C4000 0.951 . S
C4000 H3999 0.951 . S
C4000 C4006 1.265 . S
H4001 C4006 0.950 . S
H4002 C4010 0.949 . S
H4003 C4011 0.950 . S
H4004 C4012 0.951 . S
H4005 C4013 0.951 . S
C4006 C4000 1.265 . S
C4006 H4001 0.950 . S
C4006 C4007 1.478 . S
C4007 C3994 1.394 . S
C4007 C4006 1.478 . S
C4007 C4008 1.397 . S
C4008 C4007 1.397 . S
C4008 C4009 1.438 . S
C4008 C4013 1.429 . S
C4009 C3992 1.394 . S
C4009 C4008 1.438 . S
C4009 C4010 1.428 . S
C4010 H4002 0.949 . S
C4010 C4009 1.428 . S
C4010 C4011 1.345 . S
C4011 H4003 0.950 . S
C4011 C4010 1.345 . S
C4011 C4012 1.424 . S
C4012 H4004 0.951 . S
C4012 C4011 1.424 . S
C4012 C4013 1.347 . S
C4013 H4005 0.951 . S
C4013 C4008 1.429 . S
C4013 C4012 1.347 . S
H4014 C4015 0.951 . S
C4015 H4014 0.951 . S
C4015 C4021 1.265 . S
H4016 C4021 0.950 . S
H4017 C4025 0.949 . S
H4018 C4026 0.950 . S
H4019 C4027 0.951 . S
H4020 C4028 0.951 . S
C4021 C4015 1.265 . S
C4021 H4016 0.950 . S
C4021 C4022 1.478 . S
C4022 C4021 1.478 . S
C4022 C4023 1.397 . S
C4022 C4039 1.394 . S
C4023 C4022 1.397 . S
C4023 C4024 1.438 . S
C4023 C4028 1.429 . S
C4024 C4023 1.438 . S
C4024 C4025 1.428 . S
C4024 C4037 1.394 . S
C4025 H4017 0.949 . S
C4025 C4024 1.428 . S
C4025 C4026 1.345 . S
C4026 H4018 0.950 . S
C4026 C4025 1.345 . S
C4026 C4027 1.424 . S
C4027 H4019 0.951 . S
C4027 C4026 1.424 . S
C4027 C4028 1.347 . S
C4028 H4020 0.951 . S
C4028 C4023 1.429 . S
C4028 C4027 1.347 . S
H4029 C4030 0.951 . S
C4030 H4029 0.951 . S
C4030 C4036 1.265 . S
H4031 C4036 0.950 . S
H4032 C4040 0.949 . S
H4033 C4041 0.950 . S
H4034 C4042 0.951 . S
H4035 C4043 0.951 . S
C4036 C4030 1.265 . S
C4036 H4031 0.950 . S
C4036 C4037 1.478 . S
C4037 C4024 1.394 . S
C4037 C4036 1.478 . S
C4037 C4038 1.397 . S
C4038 C4037 1.397 . S
C4038 C4039 1.438 . S
C4038 C4043 1.429 . S
C4039 C4022 1.394 . S
C4039 C4038 1.438 . S
C4039 C4040 1.428 . S
C4040 H4032 0.949 . S
C4040 C4039 1.428 . S
C4040 C4041 1.345 . S
C4041 H4033 0.950 . S
C4041 C4040 1.345 . S
C4041 C4042 1.424 . S
C4042 H4034 0.951 . S
C4042 C4041 1.424 . S
C4042 C4043 1.347 . S
C4043 H4035 0.951 . S
C4043 C4038 1.429 . S
C4043 C4042 1.347 . S
H4044 C4045 0.951 . S
C4045 H4044 0.951 . S
C4045 C4051 1.265 . S
H4046 C4051 0.950 . S
H4047 C4055 0.949 . S
H4048 C4056 0.950 . S
H4049 C4057 0.951 . S
H4050 C4058 0.951 . S
C4051 C4045 1.265 . S
C4051 H4046 0.950 . S
C4051 C4052 1.478 . S
C4052 C4051 1.478 . S
C4052 C4053 1.397 . S
C4052 C4069 1.394 . S
C4053 C4052 1.397 . S
C4053 C4054 1.438 . S
C4053 C4058 1.429 . S
C4054 C4053 1.438 . S
C4054 C4055 1.428 . S
C4054 C4067 1.394 . S
C4055 H4047 0.949 . S
C4055 C4054 1.428 . S
C4055 C4056 1.345 . S
C4056 H4048 0.950 . S
C4056 C4055 1.345 . S
C4056 C4057 1.424 . S
C4057 H4049 0.951 . S
C4057 C4056 1.424 . S
C4057 C4058 1.347 . S
C4058 H4050 0.951 . S
C4058 C4053 1.429 . S
C4058 C4057 1.347 . S
H4059 C4060 0.951 . S
C4060 H4059 0.951 . S
C4060 C4066 1.265 . S
H4061 C4066 0.950 . S
H4062 C4070 0.949 . S
H4063 C4071 0.950 . S
H4064 C4072 0.951 . S
H4065 C4073 0.951 . S
C4066 C4060 1.265 . S
C4066 H4061 0.950 . S
C4066 C4067 1.478 . S
C4067 C4054 1.394 . S
C4067 C4066 1.478 . S
C4067 C4068 1.397 . S
C4068 C4067 1.397 . S
C4068 C4069 1.438 . S
C4068 C4073 1.429 . S
C4069 C4052 1.394 . S
C4069 C4068 1.438 . S
C4069 C4070 1.428 . S
C4070 H4062 0.949 . S
C4070 C4069 1.428 . S
C4070 C4071 1.345 . S
C4071 H4063 0.950 . S
C4071 C4070 1.345 . S
C4071 C4072 1.424 . S
C4072 H4064 0.951 . S
C4072 C4071 1.424 . S
C4072 C4073 1.347 . S
C4073 H4065 0.951 . S
C4073 C4068 1.429 . S
C4073 C4072 1.347 . S
H4074 C4075 0.951 . S
C4075 H4074 0.951 . S
C4075 C4081 1.265 . S
H4076 C4081 0.950 . S
H4077 C4085 0.949 . S
H4078 C4086 0.950 . S
H4079 C4087 0.951 . S
H4080 C4088 0.951 . S
C4081 C4075 1.265 . S
C4081 H4076 0.950 . S
C4081 C4082 1.478 . S
C4082 C4081 1.478 . S
C4082 C4083 1.397 . S
C4082 C4099 1.394 . S
C4083 C4082 1.397 . S
C4083 C4084 1.438 . S
C4083 C4088 1.429 . S
C4084 C4083 1.438 . S
C4084 C4085 1.428 . S
C4084 C4097 1.394 . S
C4085 H4077 0.949 . S
C4085 C4084 1.428 . S
C4085 C4086 1.345 . S
C4086 H4078 0.950 . S
C4086 C4085 1.345 . S
C4086 C4087 1.424 . S
C4087 H4079 0.951 . S
C4087 C4086 1.424 . S
C4087 C4088 1.347 . S
C4088 H4080 0.951 . S
C4088 C4083 1.429 . S
C4088 C4087 1.347 . S
H4089 C4090 0.951 . S
C4090 H4089 0.951 . S
C4090 C4096 1.265 . S
H4091 C4096 0.950 . S
H4092 C4100 0.949 . S
H4093 C4101 0.950 . S
H4094 C4102 0.951 . S
H4095 C4103 0.951 . S
C4096 C4090 1.265 . S
C4096 H4091 0.950 . S
C4096 C4097 1.478 . S
C4097 C4084 1.394 . S
C4097 C4096 1.478 . S
C4097 C4098 1.397 . S
C4098 C4097 1.397 . S
C4098 C4099 1.438 . S
C4098 C4103 1.429 . S
C4099 C4082 1.394 . S
C4099 C4098 1.438 . S
C4099 C4100 1.428 . S
C4100 H4092 0.949 . S
C4100 C4099 1.428 . S
C4100 C4101 1.345 . S
C4101 H4093 0.950 . S
C4101 C4100 1.345 . S
C4101 C4102 1.424 . S
C4102 H4094 0.951 . S
C4102 C4101 1.424 . S
C4102 C4103 1.347 . S
C4103 H4095 0.951 . S
C4103 C4098 1.429 . S
C4103 C4102 1.347 . S
H4104 C4105 0.951 . S
C4105 H4104 0.951 . S
C4105 C4111 1.265 . S
H4106 C4111 0.950 . S
H4107 C4115 0.949 . S
H4108 C4116 0.950 . S
H4109 C4117 0.951 . S
H4110 C4118 0.951 . S
C4111 C4105 1.265 . S
C4111 H4106 0.950 . S
C4111 C4112 1.478 . S
C4112 C4111 1.478 . S
C4112 C4113 1.397 . S
C4112 C4129 1.394 . S
C4113 C4112 1.397 . S
C4113 C4114 1.438 . S
C4113 C4118 1.429 . S
C4114 C4113 1.438 . S
C4114 C4115 1.428 . S
C4114 C4127 1.394 . S
C4115 H4107 0.949 . S
C4115 C4114 1.428 . S
C4115 C4116 1.345 . S
C4116 H4108 0.950 . S
C4116 C4115 1.345 . S
C4116 C4117 1.424 . S
C4117 H4109 0.951 . S
C4117 C4116 1.424 . S
C4117 C4118 1.347 . S
C4118 H4110 0.951 . S
C4118 C4113 1.429 . S
C4118 C4117 1.347 . S
H4119 C4120 0.951 . S
C4120 H4119 0.951 . S
C4120 C4126 1.265 . S
H4121 C4126 0.950 . S
H4122 C4130 0.949 . S
H4123 C4131 0.950 . S
H4124 C4132 0.951 . S
H4125 C4133 0.951 . S
C4126 C4120 1.265 . S
C4126 H4121 0.950 . S
C4126 C4127 1.478 . S
C4127 C4114 1.394 . S
C4127 C4126 1.478 . S
C4127 C4128 1.397 . S
C4128 C4127 1.397 . S
C4128 C4129 1.438 . S
C4128 C4133 1.429 1_545 S
C4129 C4112 1.394 . S
C4129 C4128 1.438 . S
C4129 C4130 1.428 1_545 S
C4130 H4122 0.949 . S
C4130 C4129 1.428 1_565 S
C4130 C4131 1.345 . S
C4131 H4123 0.950 . S
C4131 C4130 1.345 . S
C4131 C4132 1.424 . S
C4132 H4124 0.951 . S
C4132 C4131 1.424 . S
C4132 C4133 1.347 . S
C4133 H4125 0.951 . S
C4133 C4128 1.429 1_565 S
C4133 C4132 1.347 . S
H4134 C4135 0.886 1_455 S
C4135 H4134 0.886 1_655 S
C4135 C4141 1.265 . S
H4136 C4141 0.950 . S
H4137 C4145 0.949 . S
H4138 C4146 0.950 . S
H4139 C4147 0.951 . S
H4140 C4148 0.951 . S
C4141 C4135 1.265 . S
C4141 H4136 0.950 . S
C4141 C4142 1.478 . S
C4142 C4141 1.478 . S
C4142 C4143 1.397 . S
C4142 C4159 1.394 . S
C4143 C4142 1.397 . S
C4143 C4144 1.438 . S
C4143 C4148 1.429 . S
C4144 C4143 1.438 . S
C4144 C4145 1.428 . S
C4144 C4157 1.394 . S
C4145 H4137 0.949 . S
C4145 C4144 1.428 . S
C4145 C4146 1.345 . S
C4146 H4138 0.950 . S
C4146 C4145 1.345 . S
C4146 C4147 1.424 . S
C4147 H4139 0.951 . S
C4147 C4146 1.424 . S
C4147 C4148 1.347 . S
C4148 H4140 0.951 . S
C4148 C4143 1.429 . S
C4148 C4147 1.347 . S
H4149 C4150 0.951 . S
C4150 H4149 0.951 . S
C4150 C4156 1.209 1_655 S
H4151 C4156 1.001 . S
H4152 C4160 0.949 1_655 S
H4153 C4161 0.950 . S
H4154 C4162 0.951 . S
H4155 C4163 0.951 . S
C4156 C4150 1.209 1_455 S
C4156 H4151 1.001 . S
C4156 C4157 1.489 1_455 S
C4157 C4144 1.394 . S
C4157 C4156 1.489 1_655 S
C4157 C4158 1.381 1_655 S
C4158 C4157 1.381 1_455 S
C4158 C4159 1.448 1_455 S
C4158 C4163 1.437 . S
C4159 C4142 1.394 . S
C4159 C4158 1.448 1_655 S
C4159 C4160 1.428 1_655 S
C4160 H4152 0.949 1_455 S
C4160 C4159 1.428 1_455 S
C4160 C4161 1.345 . S
C4161 H4153 0.950 . S
C4161 C4160 1.345 . S
C4161 C4162 1.424 . S
C4162 H4154 0.951 . S
C4162 C4161 1.424 . S
C4162 C4163 1.347 . S
C4163 H4155 0.951 . S
C4163 C4158 1.437 . S
C4163 C4162 1.347 . S
H4164 C4165 0.951 . S
C4165 H4164 0.951 . S
C4165 C4171 1.265 . S
H4166 C4171 0.950 . S
H4167 C4175 0.949 . S
H4168 C4176 0.950 . S
H4169 C4177 0.951 . S
H4170 C4178 0.951 . S
C4171 C4165 1.265 . S
C4171 H4166 0.950 . S
C4171 C4172 1.478 . S
C4172 C4171 1.478 . S
C4172 C4173 1.397 . S
C4172 C4189 1.394 . S
C4173 C4172 1.397 . S
C4173 C4174 1.438 . S
C4173 C4178 1.429 . S
C4174 C4173 1.438 . S
C4174 C4175 1.428 . S
C4174 C4187 1.394 . S
C4175 H4167 0.949 . S
C4175 C4174 1.428 . S
C4175 C4176 1.345 . S
C4176 H4168 0.950 . S
C4176 C4175 1.345 . S
C4176 C4177 1.424 . S
C4177 H4169 0.951 . S
C4177 C4176 1.424 . S
C4177 C4178 1.347 . S
C4178 H4170 0.951 . S
C4178 C4173 1.429 . S
C4178 C4177 1.347 . S
H4179 C4180 0.951 . S
C4180 H4179 0.951 . S
C4180 C4186 1.265 . S
H4181 C4186 0.950 . S
H4182 C4190 0.949 . S
H4183 C4191 0.950 . S
H4184 C4192 0.951 . S
H4185 C4193 0.951 . S
C4186 C4180 1.265 . S
C4186 H4181 0.950 . S
C4186 C4187 1.478 . S
C4187 C4174 1.394 . S
C4187 C4186 1.478 . S
C4187 C4188 1.397 . S
C4188 C4187 1.397 . S
C4188 C4189 1.438 . S
C4188 C4193 1.429 . S
C4189 C4172 1.394 . S
C4189 C4188 1.438 . S
C4189 C4190 1.428 . S
C4190 H4182 0.949 . S
C4190 C4189 1.428 . S
C4190 C4191 1.345 . S
C4191 H4183 0.950 . S
C4191 C4190 1.345 . S
C4191 C4192 1.424 . S
C4192 H4184 0.951 . S
C4192 C4191 1.424 . S
C4192 C4193 1.347 . S
C4193 H4185 0.951 . S
C4193 C4188 1.429 . S
C4193 C4192 1.347 . S
H4194 C4195 0.951 . S
C4195 H4194 0.951 . S
C4195 C4201 1.265 . S
H4196 C4201 0.950 . S
H4197 C4205 0.949 . S
H4198 C4206 0.950 . S
H4199 C4207 0.951 . S
H4200 C4208 0.951 . S
C4201 C4195 1.265 . S
C4201 H4196 0.950 . S
C4201 C4202 1.478 . S
C4202 C4201 1.478 . S
C4202 C4203 1.397 . S
C4202 C4219 1.394 . S
C4203 C4202 1.397 . S
C4203 C4204 1.438 . S
C4203 C4208 1.429 . S
C4204 C4203 1.438 . S
C4204 C4205 1.428 . S
C4204 C4217 1.394 . S
C4205 H4197 0.949 . S
C4205 C4204 1.428 . S
C4205 C4206 1.345 . S
C4206 H4198 0.950 . S
C4206 C4205 1.345 . S
C4206 C4207 1.424 . S
C4207 H4199 0.951 . S
C4207 C4206 1.424 . S
C4207 C4208 1.347 . S
C4208 H4200 0.951 . S
C4208 C4203 1.429 . S
C4208 C4207 1.347 . S
H4209 C4210 0.951 . S
C4210 H4209 0.951 . S
C4210 C4216 1.265 . S
H4211 C4216 0.950 . S
H4212 C4220 0.949 . S
H4213 C4221 0.950 . S
H4214 C4222 0.951 . S
H4215 C4223 0.951 . S
C4216 C4210 1.265 . S
C4216 H4211 0.950 . S
C4216 C4217 1.478 . S
C4217 C4204 1.394 . S
C4217 C4216 1.478 . S
C4217 C4218 1.397 . S
C4218 C4217 1.397 . S
C4218 C4219 1.438 . S
C4218 C4223 1.429 . S
C4219 C4202 1.394 . S
C4219 C4218 1.438 . S
C4219 C4220 1.428 . S
C4220 H4212 0.949 . S
C4220 C4219 1.428 . S
C4220 C4221 1.345 . S
C4221 H4213 0.950 . S
C4221 C4220 1.345 . S
C4221 C4222 1.424 . S
C4222 H4214 0.951 . S
C4222 C4221 1.424 . S
C4222 C4223 1.347 . S
C4223 H4215 0.951 . S
C4223 C4218 1.429 . S
C4223 C4222 1.347 . S
H4224 C4225 0.951 . S
C4225 H4224 0.951 . S
C4225 C4231 1.265 . S
H4226 C4231 0.950 . S
H4227 C4235 0.949 . S
H4228 C4236 0.950 . S
H4229 C4237 0.951 . S
H4230 C4238 0.951 . S
C4231 C4225 1.265 . S
C4231 H4226 0.950 . S
C4231 C4232 1.478 . S
C4232 C4231 1.478 . S
C4232 C4233 1.397 . S
C4232 C4249 1.394 . S
C4233 C4232 1.397 . S
C4233 C4234 1.438 . S
C4233 C4238 1.429 . S
C4234 C4233 1.438 . S
C4234 C4235 1.428 . S
C4234 C4247 1.394 . S
C4235 H4227 0.949 . S
C4235 C4234 1.428 . S
C4235 C4236 1.345 . S
C4236 H4228 0.950 . S
C4236 C4235 1.345 . S
C4236 C4237 1.424 . S
C4237 H4229 0.951 . S
C4237 C4236 1.424 . S
C4237 C4238 1.347 . S
C4238 H4230 0.951 . S
C4238 C4233 1.429 . S
C4238 C4237 1.347 . S
H4239 C4240 0.951 . S
C4240 H4239 0.951 . S
C4240 C4246 1.265 . S
H4241 C4246 0.950 . S
H4242 C4250 0.949 . S
H4243 C4251 0.950 . S
H4244 C4252 0.951 . S
H4245 C4253 0.951 . S
C4246 C4240 1.265 . S
C4246 H4241 0.950 . S
C4246 C4247 1.478 . S
C4247 C4234 1.394 . S
C4247 C4246 1.478 . S
C4247 C4248 1.397 . S
C4248 C4247 1.397 . S
C4248 C4249 1.438 . S
C4248 C4253 1.429 . S
C4249 C4232 1.394 . S
C4249 C4248 1.438 . S
C4249 C4250 1.428 . S
C4250 H4242 0.949 . S
C4250 C4249 1.428 . S
C4250 C4251 1.345 . S
C4251 H4243 0.950 . S
C4251 C4250 1.345 . S
C4251 C4252 1.424 . S
C4252 H4244 0.951 . S
C4252 C4251 1.424 . S
C4252 C4253 1.347 . S
C4253 H4245 0.951 . S
C4253 C4248 1.429 . S
C4253 C4252 1.347 . S
H4254 C4255 0.951 . S
C4255 H4254 0.951 . S
C4255 C4261 1.265 . S
H4256 C4261 0.950 . S
H4257 C4265 0.949 . S
H4258 C4266 0.950 . S
H4259 C4267 0.951 . S
H4260 C4268 0.951 . S
C4261 C4255 1.265 . S
C4261 H4256 0.950 . S
C4261 C4262 1.478 . S
C4262 C4261 1.478 . S
C4262 C4263 1.397 . S
C4262 C4279 1.394 . S
C4263 C4262 1.397 . S
C4263 C4264 1.438 . S
C4263 C4268 1.429 . S
C4264 C4263 1.438 . S
C4264 C4265 1.428 . S
C4264 C4277 1.394 . S
C4265 H4257 0.949 . S
C4265 C4264 1.428 . S
C4265 C4266 1.345 . S
C4266 H4258 0.950 . S
C4266 C4265 1.345 . S
C4266 C4267 1.424 . S
C4267 H4259 0.951 . S
C4267 C4266 1.424 . S
C4267 C4268 1.347 . S
C4268 H4260 0.951 . S
C4268 C4263 1.429 . S
C4268 C4267 1.347 . S
H4269 C4270 0.951 . S
C4270 H4269 0.951 . S
C4270 C4276 1.265 . S
H4271 C4276 0.950 . S
H4272 C4280 0.949 . S
H4273 C4281 0.950 . S
H4274 C4282 0.951 . S
H4275 C4283 0.951 . S
C4276 C4270 1.265 . S
C4276 H4271 0.950 . S
C4276 C4277 1.478 . S
C4277 C4264 1.394 . S
C4277 C4276 1.478 . S
C4277 C4278 1.397 . S
C4278 C4277 1.397 . S
C4278 C4279 1.438 . S
C4278 C4283 1.429 . S
C4279 C4262 1.394 . S
C4279 C4278 1.438 . S
C4279 C4280 1.428 . S
C4280 H4272 0.949 . S
C4280 C4279 1.428 . S
C4280 C4281 1.345 . S
C4281 H4273 0.950 . S
C4281 C4280 1.345 . S
C4281 C4282 1.424 . S
C4282 H4274 0.951 . S
C4282 C4281 1.424 . S
C4282 C4283 1.347 . S
C4283 H4275 0.951 . S
C4283 C4278 1.429 . S
C4283 C4282 1.347 . S
H4284 C4285 0.951 . S
C4285 H4284 0.951 . S
C4285 C4291 1.265 . S
H4286 C4291 0.950 . S
H4287 C4295 0.949 . S
H4288 C4296 0.950 . S
H4289 C4297 0.951 . S
H4290 C4298 0.951 . S
C4291 C4285 1.265 . S
C4291 H4286 0.950 . S
C4291 C4292 1.478 . S
C4292 C4291 1.478 . S
C4292 C4293 1.397 . S
C4292 C4309 1.394 . S
C4293 C4292 1.397 . S
C4293 C4294 1.438 . S
C4293 C4298 1.429 . S
C4294 C4293 1.438 . S
C4294 C4295 1.428 . S
C4294 C4307 1.394 . S
C4295 H4287 0.949 . S
C4295 C4294 1.428 . S
C4295 C4296 1.345 . S
C4296 H4288 0.950 . S
C4296 C4295 1.345 . S
C4296 C4297 1.424 . S
C4297 H4289 0.951 . S
C4297 C4296 1.424 . S
C4297 C4298 1.347 . S
C4298 H4290 0.951 . S
C4298 C4293 1.429 . S
C4298 C4297 1.347 . S
H4299 C4300 0.951 . S
C4300 H4299 0.951 . S
C4300 C4306 1.265 . S
H4301 C4306 0.950 . S
H4302 C4310 0.949 . S
H4303 C4311 0.950 . S
H4304 C4312 0.951 . S
H4305 C4313 0.951 . S
C4306 C4300 1.265 . S
C4306 H4301 0.950 . S
C4306 C4307 1.478 . S
C4307 C4294 1.394 . S
C4307 C4306 1.478 . S
C4307 C4308 1.397 . S
C4308 C4307 1.397 . S
C4308 C4309 1.438 . S
C4308 C4313 1.429 . S
C4309 C4292 1.394 . S
C4309 C4308 1.438 . S
C4309 C4310 1.428 . S
C4310 H4302 0.949 . S
C4310 C4309 1.428 . S
C4310 C4311 1.345 . S
C4311 H4303 0.950 . S
C4311 C4310 1.345 . S
C4311 C4312 1.424 . S
C4312 H4304 0.951 . S
C4312 C4311 1.424 . S
C4312 C4313 1.347 . S
C4313 H4305 0.951 . S
C4313 C4308 1.429 . S
C4313 C4312 1.347 . S
H4314 C4315 0.951 . S
C4315 H4314 0.951 . S
C4315 C4321 1.265 . S
H4316 C4321 0.950 . S
H4317 C4325 0.949 . S
H4318 C4326 0.950 . S
H4319 C4327 0.951 . S
H4320 C4328 0.951 . S
C4321 C4315 1.265 . S
C4321 H4316 0.950 . S
C4321 C4322 1.478 . S
C4322 C4321 1.478 . S
C4322 C4323 1.397 . S
C4322 C4339 1.394 . S
C4323 C4322 1.397 . S
C4323 C4324 1.438 . S
C4323 C4328 1.429 . S
C4324 C4323 1.438 . S
C4324 C4325 1.428 . S
C4324 C4337 1.394 . S
C4325 H4317 0.949 . S
C4325 C4324 1.428 . S
C4325 C4326 1.345 . S
C4326 H4318 0.950 . S
C4326 C4325 1.345 . S
C4326 C4327 1.424 . S
C4327 H4319 0.951 . S
C4327 C4326 1.424 . S
C4327 C4328 1.347 . S
C4328 H4320 0.951 . S
C4328 C4323 1.429 . S
C4328 C4327 1.347 . S
H4329 C4330 0.951 . S
C4330 H4329 0.951 . S
C4330 C4336 1.265 . S
H4331 C4336 0.950 . S
H4332 C4340 0.949 . S
H4333 C4341 0.950 . S
H4334 C4342 0.951 . S
H4335 C4343 0.951 . S
C4336 C4330 1.265 . S
C4336 H4331 0.950 . S
C4336 C4337 1.478 . S
C4337 C4324 1.394 . S
C4337 C4336 1.478 . S
C4337 C4338 1.397 . S
C4338 C4337 1.397 . S
C4338 C4339 1.438 . S
C4338 C4343 1.429 . S
C4339 C4322 1.394 . S
C4339 C4338 1.438 . S
C4339 C4340 1.428 . S
C4340 H4332 0.949 . S
C4340 C4339 1.428 . S
C4340 C4341 1.345 . S
C4341 H4333 0.950 . S
C4341 C4340 1.345 . S
C4341 C4342 1.424 . S
C4342 H4334 0.951 . S
C4342 C4341 1.424 . S
C4342 C4343 1.347 . S
C4343 H4335 0.951 . S
C4343 C4338 1.429 . S
C4343 C4342 1.347 . S
H4344 C4345 0.951 . S
C4345 H4344 0.951 . S
C4345 C4351 1.265 . S
H4346 C4351 0.950 . S
H4347 C4355 0.949 . S
H4348 C4356 0.950 . S
H4349 C4357 0.951 . S
H4350 C4358 0.951 . S
C4351 C4345 1.265 . S
C4351 H4346 0.950 . S
C4351 C4352 1.478 . S
C4352 C4351 1.478 . S
C4352 C4353 1.397 . S
C4352 C4369 1.394 . S
C4353 C4352 1.397 . S
C4353 C4354 1.438 . S
C4353 C4358 1.429 . S
C4354 C4353 1.438 . S
C4354 C4355 1.428 . S
C4354 C4367 1.394 . S
C4355 H4347 0.949 . S
C4355 C4354 1.428 . S
C4355 C4356 1.345 . S
C4356 H4348 0.950 . S
C4356 C4355 1.345 . S
C4356 C4357 1.424 . S
C4357 H4349 0.951 . S
C4357 C4356 1.424 . S
C4357 C4358 1.347 . S
C4358 H4350 0.951 . S
C4358 C4353 1.429 . S
C4358 C4357 1.347 . S
H4359 C4360 0.951 . S
C4360 H4359 0.951 . S
C4360 C4366 1.265 . S
H4361 C4366 0.950 . S
H4362 C4370 0.949 . S
H4363 C4371 0.950 . S
H4364 C4372 0.951 . S
H4365 C4373 0.951 . S
C4366 C4360 1.265 . S
C4366 H4361 0.950 . S
C4366 C4367 1.478 . S
C4367 C4354 1.394 . S
C4367 C4366 1.478 . S
C4367 C4368 1.397 . S
C4368 C4367 1.397 . S
C4368 C4369 1.438 . S
C4368 C4373 1.429 . S
C4369 C4352 1.394 . S
C4369 C4368 1.438 . S
C4369 C4370 1.428 . S
C4370 H4362 0.949 . S
C4370 C4369 1.428 . S
C4370 C4371 1.345 . S
C4371 H4363 0.950 . S
C4371 C4370 1.345 . S
C4371 C4372 1.424 . S
C4372 H4364 0.951 . S
C4372 C4371 1.424 . S
C4372 C4373 1.347 . S
C4373 H4365 0.951 . S
C4373 C4368 1.429 . S
C4373 C4372 1.347 . S
H4374 C4375 0.951 . S
C4375 H4374 0.951 . S
C4375 C4381 1.265 . S
H4376 C4381 0.927 1_455 S
H4377 C4385 0.949 . S
H4378 C4386 0.950 . S
H4379 C4387 0.951 . S
H4380 C4388 0.951 . S
C4381 C4375 1.265 . S
C4381 H4376 0.927 1_655 S
C4381 C4382 1.478 . S
C4382 C4381 1.478 . S
C4382 C4383 1.397 1_655 S
C4382 C4399 1.394 . S
C4383 C4382 1.397 1_455 S
C4383 C4384 1.438 . S
C4383 C4388 1.429 . S
C4384 C4383 1.438 . S
C4384 C4385 1.428 . S
C4384 C4397 1.394 1_455 S
C4385 H4377 0.949 . S
C4385 C4384 1.428 . S
C4385 C4386 1.345 . S
C4386 H4378 0.950 . S
C4386 C4385 1.345 . S
C4386 C4387 1.424 . S
C4387 H4379 0.951 . S
C4387 C4386 1.424 . S
C4387 C4388 1.347 . S
C4388 H4380 0.951 . S
C4388 C4383 1.429 . S
C4388 C4387 1.347 . S
H4389 C4390 0.951 1_455 S
C4390 H4389 0.951 1_655 S
C4390 C4396 1.265 . S
H4391 C4396 0.950 . S
H4392 C4400 0.949 . S
H4393 C4401 0.950 . S
H4394 C4402 0.951 . S
H4395 C4403 0.951 . S
C4396 C4390 1.265 . S
C4396 H4391 0.950 . S
C4396 C4397 1.478 . S
C4397 C4384 1.394 1_655 S
C4397 C4396 1.478 . S
C4397 C4398 1.397 . S
C4398 C4397 1.397 . S
C4398 C4399 1.438 . S
C4398 C4403 1.429 . S
C4399 C4382 1.394 . S
C4399 C4398 1.438 . S
C4399 C4400 1.428 . S
C4400 H4392 0.949 . S
C4400 C4399 1.428 . S
C4400 C4401 1.345 . S
C4401 H4393 0.950 . S
C4401 C4400 1.345 . S
C4401 C4402 1.424 . S
C4402 H4394 0.951 . S
C4402 C4401 1.424 . S
C4402 C4403 1.347 . S
C4403 H4395 0.951 . S
C4403 C4398 1.429 . S
C4403 C4402 1.347 . S
H4404 C4405 0.951 . S
C4405 H4404 0.951 . S
C4405 C4411 1.265 . S
H4406 C4411 0.950 . S
H4407 C4415 0.949 . S
H4408 C4416 0.950 . S
H4409 C4417 0.951 . S
H4410 C4418 0.951 . S
C4411 C4405 1.265 . S
C4411 H4406 0.950 . S
C4411 C4412 1.478 . S
C4412 C4411 1.478 . S
C4412 C4413 1.397 . S
C4412 C4429 1.394 . S
C4413 C4412 1.397 . S
C4413 C4414 1.438 . S
C4413 C4418 1.429 . S
C4414 C4413 1.438 . S
C4414 C4415 1.428 . S
C4414 C4427 1.394 . S
C4415 H4407 0.949 . S
C4415 C4414 1.428 . S
C4415 C4416 1.345 . S
C4416 H4408 0.950 . S
C4416 C4415 1.345 . S
C4416 C4417 1.424 . S
C4417 H4409 0.951 . S
C4417 C4416 1.424 . S
C4417 C4418 1.347 . S
C4418 H4410 0.951 . S
C4418 C4413 1.429 . S
C4418 C4417 1.347 . S
H4419 C4420 0.951 . S
C4420 H4419 0.951 . S
C4420 C4426 1.265 . S
H4421 C4426 0.950 . S
H4422 C4430 0.949 . S
H4423 C4431 0.950 . S
H4424 C4432 0.951 . S
H4425 C4433 0.951 . S
C4426 C4420 1.265 . S
C4426 H4421 0.950 . S
C4426 C4427 1.478 . S
C4427 C4414 1.394 . S
C4427 C4426 1.478 . S
C4427 C4428 1.397 . S
C4428 C4427 1.397 . S
C4428 C4429 1.438 . S
C4428 C4433 1.429 . S
C4429 C4412 1.394 . S
C4429 C4428 1.438 . S
C4429 C4430 1.428 . S
C4430 H4422 0.949 . S
C4430 C4429 1.428 . S
C4430 C4431 1.345 . S
C4431 H4423 0.950 . S
C4431 C4430 1.345 . S
C4431 C4432 1.424 . S
C4432 H4424 0.951 . S
C4432 C4431 1.424 . S
C4432 C4433 1.347 . S
C4433 H4425 0.951 . S
C4433 C4428 1.429 . S
C4433 C4432 1.347 . S
H4434 C4435 0.951 . S
C4435 H4434 0.951 . S
C4435 C4441 1.265 . S
H4436 C4441 0.950 . S
H4437 C4445 0.949 . S
H4438 C4446 0.950 . S
H4439 C4447 0.951 . S
H4440 C4448 0.951 . S
C4441 C4435 1.265 . S
C4441 H4436 0.950 . S
C4441 C4442 1.478 . S
C4442 C4441 1.478 . S
C4442 C4443 1.397 1_545 S
C4442 C4459 1.394 . S
C4443 C4442 1.397 1_565 S
C4443 C4444 1.438 . S
C4443 C4448 1.429 . S
C4444 C4443 1.438 . S
C4444 C4445 1.428 . S
C4444 C4457 1.394 1_565 S
C4445 H4437 0.949 . S
C4445 C4444 1.428 . S
C4445 C4446 1.345 . S
C4446 H4438 0.950 . S
C4446 C4445 1.345 . S
C4446 C4447 1.424 . S
C4447 H4439 0.951 . S
C4447 C4446 1.424 . S
C4447 C4448 1.347 . S
C4448 H4440 0.951 . S
C4448 C4443 1.429 . S
C4448 C4447 1.347 . S
H4449 C4450 0.951 . S
C4450 H4449 0.951 . S
C4450 C4456 1.265 . S
H4451 C4456 0.950 . S
H4452 C4460 0.949 . S
H4453 C4461 0.950 . S
H4454 C4462 0.951 . S
H4455 C4463 0.951 . S
C4456 C4450 1.265 . S
C4456 H4451 0.950 . S
C4456 C4457 1.478 . S
C4457 C4444 1.394 1_545 S
C4457 C4456 1.478 . S
C4457 C4458 1.397 . S
C4458 C4457 1.397 . S
C4458 C4459 1.438 . S
C4458 C4463 1.429 . S
C4459 C4442 1.394 . S
C4459 C4458 1.438 . S
C4459 C4460 1.428 . S
C4460 H4452 0.949 . S
C4460 C4459 1.428 . S
C4460 C4461 1.345 . S
C4461 H4453 0.950 . S
C4461 C4460 1.345 . S
C4461 C4462 1.424 . S
C4462 H4454 0.951 . S
C4462 C4461 1.424 . S
C4462 C4463 1.347 . S
C4463 H4455 0.951 . S
C4463 C4458 1.429 . S
C4463 C4462 1.347 . S
C2305 C4 1.232 . S
C2320 C1307 0.922 1_655 S
C2335 C26 1.641 . S
C2350 C1447 1.118 . S
C2380 C1535 1.111 . S
C2365 C32 1.289 . S
C2395 C40 1.313 . S
C2410 C1675 0.897 1_565 S
C2425 C12 1.309 . S
C2440 C1789 1.130 . S
C2455 C18 1.571 1_556 S
C2470 C1877 1.196 . S
C2485 C46 1.247 . S
C2500 C1763 1.052 1_655 S
C2530 C1903 1.352 . S
C2515 C68 1.557 . S
C2560 C1649 1.160 . S
C2545 C74 1.309 . S
C2575 C82 1.353 . S
C2590 C1561 1.066 . S
C2620 C1333 1.096 1_455 S
C2605 C54 1.407 . S
C2635 C60 1.435 . S
C2650 C1421 1.359 . S
C2665 C88 1.663 . S
C2680 C1991 1.175 . S
C2695 C110 1.762 . S
C2710 C2131 1.168 . S
C2740 C2219 1.326 . S
C2725 C116 1.685 . S
C2755 C124 1.583 . S
C2770 C307 1.134 . S
C2785 C96 1.677 . S
C2800 C421 1.021 . S
C2815 C102 1.680 . S
C2830 C509 1.337 . S
C2845 C130 1.489 . S
C2860 C395 1.379 . S
C2875 C152 1.653 . S
C2890 C535 1.316 . S
C2920 C281 1.518 . S
C2905 C158 1.623 . S
C2950 C2245 1.283 . S
C2935 C166 1.638 . S
C2980 C2017 1.346 . S
C2965 C138 1.535 . S
C3010 C2105 1.417 . S
C2995 C144 1.543 . S
C3025 C172 1.541 . S
C3040 C623 1.083 . S
C3055 C194 1.761 . S
C3070 C763 1.068 . S
C3085 C200 1.653 . S
C3100 C851 1.166 . S
C3115 C208 1.720 . S
C3130 C991 1.156 . S
C3160 C1105 0.980 . S
C3145 C180 1.634 . S
C3190 C1193 1.335 . S
C3175 C186 1.695 . S
C3220 C1079 1.488 . S
C3205 C214 1.570 . S
C3250 C1219 1.474 . S
C3235 C236 1.648 . S
C3265 C242 1.568 . S
C3280 C965 1.495 . S
C3310 C877 1.258 . S
C3295 C250 1.495 . S
C3325 C222 1.586 . S
C3340 C649 1.221 . S
C3370 C737 1.402 . S
C3355 C228 1.575 . S
C3400 C263 1.053 . S
C3385 C5 1.554 . S
C3415 C25 1.596 . S
C3430 C377 0.922 . S
C3460 C481 1.300 . S
C3445 C33 1.534 . S
C3490 C595 0.939 . S
C3475 C39 1.459 . S
C3520 C719 0.970 . S
C3505 C11 1.698 . S
C3550 C823 1.059 . S
C3535 C19 1.275 1_556 S
C3565 C47 1.691 1_556 S
C3580 C833 1.477 . S
C3595 C67 1.691 . S
C3610 C605 1.363 . S
C3625 C75 1.564 1_556 S
C3640 C709 1.725 . S
C3655 C81 1.598 . S
C3670 C367 1.395 . S
C3700 C491 1.498 . S
C3685 C53 1.819 . S
C3715 C61 1.441 . S
C3730 C253 1.436 . S
C3760 C947 1.023 . S
C3745 C89 1.374 . S
C3775 C109 1.711 . S
C3790 C1061 0.894 . S
C3805 C117 1.352 . S
C3820 C1165 1.229 . S
C3850 C1279 0.940 . S
C3835 C123 0.999 . S
C3865 C95 1.520 . S
C3880 C1403 0.718 . S
C3895 C103 1.138 . S
C3910 C1507 0.813 . S
C3925 C131 1.213 . S
C3940 C1517 0.763 1_565 S
C3955 C151 1.188 . S
C3970 C1289 0.899 . S
C4000 C1393 1.371 . S
C3985 C159 1.498 . S
C4015 C165 1.556 . S
C4030 C1051 1.442 . S
C4045 C137 1.795 . S
C4060 C1175 1.482 . S
C4090 C937 1.631 . S
C4075 C145 1.438 . S
C4120 C1631 0.710 . S
C4105 C173 1.235 . S
C4135 C193 1.154 . S
C4150 C1745 0.667 . S
C4165 C201 1.400 . S
C4180 C1849 1.053 . S
C4210 C1963 1.112 . S
C4195 C207 1.434 . S
C4240 C2087 0.928 . S
C4225 C179 1.703 . S
C4255 C187 1.450 . S
C4270 C2191 1.102 . S
C4285 C215 1.480 . S
C4300 C2201 1.473 . S
C4315 C235 1.816 . S
C4330 C1973 1.359 . S
C4360 C2077 1.529 . S
C4345 C243 1.597 . S
C4390 C1735 0.753 1_655 S
C4375 C249 0.986 . S
C4420 C1859 1.139 . S
C4405 C221 1.634 . S
C4435 C229 1.157 . S
C4450 C1621 0.878 1_545 S
