# Generated by pormake.
# Topology zzz, (3,6)-cn, num edge types: 1
# Building blocks:
#     Node 0, Type 0, BuildingBlock: BETDAH_clean_linker_0, # of connection points: 3
#     Node 1, Type 0, BuildingBlock: BETDAH_clean_linker_0, # of connection points: 3
#     Node 2, Type 0, BuildingBlock: BETDAH_clean_linker_0, # of connection points: 3
#     Node 3, Type 0, BuildingBlock: BETDAH_clean_linker_0, # of connection points: 3
#     Node 4, Type 0, BuildingBlock: BETDAH_clean_linker_0, # of connection points: 3
#     Node 5, Type 0, BuildingBlock: BETDAH_clean_linker_0, # of connection points: 3
#     Node 6, Type 0, BuildingBlock: BETDAH_clean_linker_0, # of connection points: 3
#     Node 7, Type 0, BuildingBlock: BETDAH_clean_linker_0, # of connection points: 3
#     Node 8, Type 1, BuildingBlock: KUMJIN_clean_sbu_1, # of connection points: 6
#     Node 9, Type 1, BuildingBlock: KUMJIN_clean_sbu_1, # of connection points: 6
#     Node 10, Type 1, BuildingBlock: KUMJIN_clean_sbu_1, # of connection points: 6
#     Node 11, Type 1, BuildingBlock: KUMJIN_clean_sbu_1, # of connection points: 6
#     Edge 12, Type (0, 1), BuildingBlock: ZUJKAS_clean_linker_0, # of connection points: 2
#     Edge 13, Type (0, 1), BuildingBlock: ZUJKAS_clean_linker_0, # of connection points: 2
#     Edge 14, Type (0, 1), BuildingBlock: ZUJKAS_clean_linker_0, # of connection points: 2
#     Edge 15, Type (0, 1), BuildingBlock: ZUJKAS_clean_linker_0, # of connection points: 2
#     Edge 16, Type (0, 1), BuildingBlock: ZUJKAS_clean_linker_0, # of connection points: 2
#     Edge 17, Type (0, 1), BuildingBlock: ZUJKAS_clean_linker_0, # of connection points: 2
#     Edge 18, Type (0, 1), BuildingBlock: ZUJKAS_clean_linker_0, # of connection points: 2
#     Edge 19, Type (0, 1), BuildingBlock: ZUJKAS_clean_linker_0, # of connection points: 2
#     Edge 20, Type (0, 1), BuildingBlock: ZUJKAS_clean_linker_0, # of connection points: 2
#     Edge 21, Type (0, 1), BuildingBlock: ZUJKAS_clean_linker_0, # of connection points: 2
#     Edge 22, Type (0, 1), BuildingBlock: ZUJKAS_clean_linker_0, # of connection points: 2
#     Edge 23, Type (0, 1), BuildingBlock: ZUJKAS_clean_linker_0, # of connection points: 2
#     Edge 24, Type (0, 1), BuildingBlock: ZUJKAS_clean_linker_0, # of connection points: 2
#     Edge 25, Type (0, 1), BuildingBlock: ZUJKAS_clean_linker_0, # of connection points: 2
#     Edge 26, Type (0, 1), BuildingBlock: ZUJKAS_clean_linker_0, # of connection points: 2
#     Edge 27, Type (0, 1), BuildingBlock: ZUJKAS_clean_linker_0, # of connection points: 2
#     Edge 28, Type (0, 1), BuildingBlock: ZUJKAS_clean_linker_0, # of connection points: 2
#     Edge 29, Type (0, 1), BuildingBlock: ZUJKAS_clean_linker_0, # of connection points: 2
#     Edge 30, Type (0, 1), BuildingBlock: ZUJKAS_clean_linker_0, # of connection points: 2
#     Edge 31, Type (0, 1), BuildingBlock: ZUJKAS_clean_linker_0, # of connection points: 2
#     Edge 32, Type (0, 1), BuildingBlock: ZUJKAS_clean_linker_0, # of connection points: 2
#     Edge 33, Type (0, 1), BuildingBlock: ZUJKAS_clean_linker_0, # of connection points: 2
#     Edge 34, Type (0, 1), BuildingBlock: ZUJKAS_clean_linker_0, # of connection points: 2
#     Edge 35, Type (0, 1), BuildingBlock: ZUJKAS_clean_linker_0, # of connection points: 2
# Relax obj value: 0.147
# Max RMSD: 0.090
# Mean RMSD: 0.076
data_MOF--net-zzz--node1-KUMJIN_clean_sbu_1--node2-BETDAH_clean_linker_0--edge1-ZUJKAS_clean_linker_0
_symmetry_space_group_name_H-M    P1
_symmetry_Int_Tables_number       1
_symmetry_cell_setting            triclinic
loop_
_symmetry_equiv_pos_as_xyz
'x, y, z'
_cell_length_a     64.825293
_cell_length_b     64.762141
_cell_length_c     20.486368
_cell_angle_alpha  89.926421
_cell_angle_beta   90.108171
_cell_angle_gamma 90.195661
loop_
_atom_site_label
_atom_site_type_symbol
_atom_site_fract_x
_atom_site_fract_y
_atom_site_fract_z
_atom_type_partial_charge
H0 H 0.80653 0.56644 0.2217 0.0
H1 H 0.749 0.55519 0.12419 0.0
H2 H 0.7612 0.52726 0.31189 0.0
C3 C 0.79109 0.55991 0.22242 0.0
C4 C 0.78541 0.54695 0.27402 0.0
C5 C 0.77817 0.56271 0.16823 0.0
C6 C 0.75866 0.55333 0.16697 0.0
C7 C 0.75212 0.54096 0.21971 0.0
C8 C 0.76579 0.53745 0.27248 0.0
N9 N 0.73231 0.53128 0.21993 0.0
C10 C 0.7174 0.53361 0.17105 0.0
H11 H 0.97989 0.80976 0.20503 0.0
H12 H 0.99204 0.74933 0.12948 0.0
H13 H 1.01079 0.76504 0.32556 0.0
C14 C 0.98532 0.79412 0.2129 0.0
C15 C 0.99493 0.78912 0.27217 0.0
C16 C 0.98452 0.77993 0.16132 0.0
C17 C 0.99249 0.76005 0.17002 0.0
C18 C 1.00166 0.75434 0.22963 0.0
C19 C 1.00316 0.76911 0.28027 0.0
N20 N 1.01006 0.73421 0.23889 0.0
C21 C 1.00969 0.71869 0.1914 0.0
H22 H 0.72595 0.99635 0.18455 0.0
H23 H 0.78682 1.00234 0.10487 0.0
H24 H 0.77581 0.01638 0.3078 0.0
C25 C 0.74225 0.99943 0.19171 0.0
C26 C 0.74915 1.00588 0.25329 0.0
C27 C 0.75567 0.99799 0.13823 0.0
C28 C 0.77652 1.0033 0.1463 0.0
C29 C 0.78393 1.0099 0.20756 0.0
C30 C 0.77013 1.01126 0.26074 0.0
N31 N 0.80505 0.01541 0.21705 0.0
C32 C 0.82009 0.01512 0.16824 0.0
H33 H 0.56069 0.73919 0.18844 0.0
H34 H 0.55044 0.80077 0.11909 0.0
H35 H 0.53102 0.78347 0.31308 0.0
C36 C 0.5557 0.75488 0.1979 0.0
C37 C 0.54621 0.75948 0.2576 0.0
C38 C 0.55698 0.76963 0.14787 0.0
C39 C 0.5496 0.78962 0.15847 0.0
C40 C 0.54051 0.79494 0.21834 0.0
C41 C 0.53855 0.77966 0.26751 0.0
N42 N 0.53267 0.81522 0.22925 0.0
C43 C 0.5333 0.83119 0.18306 0.0
H44 H 0.2229 0.49011 0.08429 0.0
H45 H 0.28389 0.49773 0.1627 0.0
H46 H 0.27227 0.50979 0.95867 0.0
C47 C 0.23913 0.49345 0.07676 0.0
C48 C 0.24586 0.49959 0.01464 0.0
C49 C 0.25269 0.49291 0.13025 0.0
C50 C 0.27352 0.49809 0.12122 0.0
C51 C 0.28081 0.50396 0.05918 0.0
C52 C 0.2668 0.50497 1.00627 0.0
N53 N 0.30196 0.50915 0.04877 0.0
C54 C 0.31733 0.5084 0.09677 0.0
H55 H 0.05171 0.22969 0.08329 0.0
H56 H 0.04402 0.29076 0.16019 0.0
H57 H 0.03163 0.27874 0.95667 0.0
C58 C 0.0483 0.24589 0.0753 0.0
C59 C 0.04198 0.25246 0.01311 0.0
C60 C 0.04889 0.25955 0.12839 0.0
C61 C 0.04362 0.28032 0.11893 0.0
C62 C 0.03764 0.28747 0.05681 0.0
C63 C 0.03656 0.27337 1.0043 0.0
N64 N 0.03239 0.30858 0.04603 0.0
C65 C 0.03311 0.32391 0.09401 0.0
H66 H 0.31233 0.03394 0.08999 0.0
H67 H 0.25082 0.04346 0.16103 0.0
H68 H 0.26274 0.04349 0.95397 0.0
C69 C 0.29615 0.03685 0.08052 0.0
C70 C 0.28938 0.0385 0.01567 0.0
C71 C 0.28246 0.03879 0.13323 0.0
C72 C 0.26143 0.04202 0.12054 0.0
C73 C 0.25417 0.04368 0.05588 0.0
C74 C 0.26829 0.04222 1.00372 0.0
N75 N 0.23284 0.04669 0.0419 0.0
C76 C 0.21728 0.04655 0.08901 0.0
H77 H 0.48474 0.32045 0.09674 0.0
H78 H 0.49694 0.26007 0.17325 0.0
H79 H 0.51048 0.27387 0.97169 0.0
C80 C 0.48952 0.30462 0.08868 0.0
C81 C 0.49711 0.29889 0.02726 0.0
C82 C 0.48965 0.29078 0.14136 0.0
C83 C 0.49674 0.27058 0.13211 0.0
C84 C 0.50402 0.26419 0.07077 0.0
C85 C 0.50446 0.27855 0.01867 0.0
N86 N 0.5114 0.2437 0.06076 0.0
C87 C 0.51167 0.22829 0.10879 0.0
Eu88 Eu 0.99688 0.03131 0.55466 0.0
C89 C 0.07362 0.04702 0.74351 0.0
N90 N 0.0715 0.03307 0.69439 0.0
C91 C 0.10606 0.0399 0.65881 0.0
C92 C 0.09215 0.05825 0.75143 0.0
C93 C 0.08741 0.02917 0.65279 0.0
C94 C 0.10842 0.05457 0.70817 0.0
C95 C 0.05882 0.06494 0.83626 0.0
C96 C 0.05708 0.05037 0.78535 0.0
C97 C 0.07722 0.07617 0.8441 0.0
C98 C 0.09382 0.07285 0.80181 0.0
Eu99 Eu 0.03926 0.01628 0.68647 0.0
N100 N 0.03917 0.03973 0.77539 0.0
C101 C 0.04199 0.06783 0.87782 0.0
C102 C 0.02308 0.04188 0.81768 0.0
C103 C 0.02413 0.05611 0.86882 0.0
H104 H 0.08587 0.01743 0.61584 0.0
H105 H 1.0112 0.05789 0.90169 0.0
H106 H 0.95302 1.01426 0.62183 0.0
H107 H 0.03571 1.00618 0.33037 0.0
H108 H 1.00952 0.03246 0.81347 0.0
H109 H 0.04274 0.07884 0.91755 0.0
H110 H 0.02857 0.02957 0.42149 0.0
H111 H 0.11863 0.03677 0.6256 0.0
H112 H 0.07878 0.08747 0.88277 0.0
H113 H 0.10791 0.08165 0.80848 0.0
H114 H 0.92706 0.9868 0.60321 0.0
H115 H 0.12288 0.06289 0.71266 0.0
H116 H 0.01337 0.97574 0.31173 0.0
N117 N 0.97149 1.00555 0.54101 0.0
C118 C 0.97372 0.9929 0.48854 0.0
C119 C 0.94015 0.9883 0.57081 0.0
C120 C 0.95933 0.97698 0.47627 0.0
C121 C 0.95489 1.00374 0.58146 0.0
C122 C 0.94241 0.9748 0.51816 0.0
N123 N 1.00452 1.011 0.46131 0.0
C124 C 0.01968 0.01559 0.4174 0.0
C125 C 0.9938 0.98212 0.39475 0.0
C126 C 0.9909 0.99542 0.44852 0.0
C127 C 1.01059 0.98562 0.35341 0.0
C128 C 0.02334 1.00268 0.36406 0.0
H129 H 0.93104 0.96275 0.51037 0.0
H130 H 0.95167 0.9511 0.41372 0.0
H131 H 0.98174 0.95566 0.34222 0.0
O132 O 0.99245 0.05252 0.47316 0.0
O133 O 0.99933 0.99809 0.59305 0.0
O134 O 0.03399 0.99468 0.60125 0.0
O135 O 0.96691 0.04571 0.53706 0.0
O136 O 0.03032 0.04103 0.53351 0.0
O137 O 0.04858 1.01453 0.58029 0.0
O138 O 0.03369 0.99088 0.75383 0.0
O139 O 0.03694 0.05069 0.66416 0.0
O140 O 1.00362 0.05655 0.62906 0.0
O141 O 0.06534 0.99775 0.72226 0.0
O142 O 1.00534 1.01159 0.71579 0.0
O143 O 0.9861 0.03549 0.65823 0.0
C144 C 0.01591 0.98662 0.58834 0.0
C145 C 0.96951 0.07966 0.49788 0.0
C146 C 0.98161 0.11517 0.51354 0.0
C147 C 0.9611 0.12196 0.50505 0.0
C148 C 0.94932 0.08679 0.48984 0.0
C149 C 0.94512 0.10783 0.49435 0.0
C150 C 0.98542 0.09376 0.5123 0.0
C151 C 0.04725 0.02987 0.53848 0.0
C152 C 0.97382 0.0575 0.49069 0.0
C153 C 0.96246 0.96353 0.42355 0.0
C154 C 0.97965 0.96606 0.38303 0.0
C155 C 0.02108 0.06296 0.65497 0.0
C156 C 0.06046 0.96843 0.79547 0.0
C157 C 0.05395 0.93431 0.84142 0.0
C158 C 0.07465 0.9334 0.86196 0.0
C159 C 0.08109 0.96727 0.81587 0.0
C160 C 0.04696 0.95203 0.80882 0.0
C161 C 0.08809 0.94985 0.84937 0.0
C162 C 0.98849 0.02275 0.70757 0.0
C163 C 0.05317 0.98591 0.75619 0.0
H164 H 0.95732 0.1382 0.5038 0.0
H165 H 0.93684 0.0761 0.47958 0.0
H166 H 0.92951 0.1133 0.48744 0.0
H167 H 1.00084 0.08798 0.5209 0.0
H168 H 0.08054 0.91988 0.88685 0.0
H169 H 0.09179 0.97974 0.80559 0.0
H170 H 0.03101 0.95298 0.79319 0.0
H171 H 0.10402 0.94898 0.86497 0.0
Eu172 Eu 0.52958 0.04769 0.70611 0.0
C173 C 0.53049 0.96199 0.606 0.0
N174 N 0.53596 0.97941 0.57295 0.0
C175 C 0.5679 0.9636 0.54181 0.0
C176 C 0.5441 0.9451 0.6111 0.0
C177 C 0.55374 0.97977 0.53726 0.0
C178 C 0.56327 0.94637 0.58008 0.0
C179 C 0.50397 0.94213 0.66171 0.0
C180 C 0.5107 0.96046 0.63114 0.0
C181 C 0.51781 0.9257 0.66975 0.0
C182 C 0.53786 0.92721 0.64468 0.0
Eu183 Eu 0.51132 1.00656 0.57368 0.0
N184 N 0.49782 0.97681 0.62445 0.0
C185 C 0.48341 0.9408 0.68238 0.0
C186 C 0.47753 0.9753 0.64144 0.0
C187 C 0.47005 0.95734 0.67123 0.0
H188 H 0.55695 0.99226 0.50398 0.0
H189 H 0.45404 0.95629 0.68575 0.0
H190 H 0.48828 0.07756 0.72819 0.0
H191 H 0.60907 0.07244 0.65928 0.0
H192 H 0.46723 0.98808 0.6326 0.0
H193 H 0.47763 0.92695 0.70588 0.0
H194 H 0.58181 0.04986 0.70425 0.0
H195 H 0.58222 0.96427 0.51476 0.0
H196 H 0.51305 0.91162 0.69408 0.0
H197 H 0.54821 0.9142 0.6498 0.0
H198 H 0.47704 0.11324 0.70261 0.0
H199 H 0.57416 0.93374 0.58285 0.0
H200 H 0.59986 0.10625 0.61102 0.0
N201 N 0.51811 0.08173 0.68742 0.0
C202 C 0.53192 0.09509 0.66097 0.0
C203 C 0.49247 0.10828 0.69025 0.0
C204 C 0.52621 0.11546 0.64502 0.0
C205 C 0.49885 0.08817 0.70473 0.0
C206 C 0.5061 0.12189 0.65921 0.0
N207 N 0.5573 0.06947 0.67455 0.0
C208 C 0.57756 0.06411 0.68054 0.0
C209 C 0.56717 0.10243 0.62932 0.0
C210 C 0.5521 0.08863 0.6533 0.0
C211 C 0.5878 0.09613 0.62911 0.0
C212 C 0.59307 0.07706 0.65626 0.0
H213 H 0.5011 0.13743 0.64779 0.0
H214 H 0.53668 0.14444 0.60342 0.0
H215 H 0.57259 0.13302 0.58966 0.0
O216 O 0.54358 0.06246 0.79103 0.0
O217 O 0.5105 0.05786 0.6179 0.0
O218 O 0.52201 0.0377 0.53451 0.0
O219 O 0.5178 0.04173 0.80423 0.0
O220 O 0.55461 0.02794 0.65856 0.0
O221 O 0.54245 0.02208 0.55463 0.0
O222 O 0.48467 1.00996 0.50951 0.0
O223 O 0.51023 1.00034 0.68336 0.0
O224 O 0.54037 1.01458 0.71548 0.0
O225 O 0.50886 0.98878 0.48344 0.0
O226 O 0.48463 0.02495 0.61618 0.0
O227 O 0.49604 0.03749 0.71641 0.0
C228 C 0.5162 0.05577 0.55685 0.0
C229 C 0.54492 0.0392 0.87894 0.0
C230 C 0.57525 0.01818 0.90251 0.0
C231 C 0.56763 1.01484 0.96605 0.0
C232 C 0.53757 0.03571 0.94218 0.0
C233 C 0.54885 0.02343 0.98539 0.0
C234 C 0.56343 0.03 0.85889 0.0
C235 C 0.55784 0.0252 0.5957 0.0
C236 C 0.53291 0.05153 0.83241 0.0
C237 C 0.54085 0.12884 0.61716 0.0
C238 C 0.5613 0.12232 0.6092 0.0
C239 C 0.52665 0.99983 0.72073 0.0
C240 C 0.47435 0.978 0.46454 0.0
C241 C 0.43821 0.96727 0.46222 0.0
C242 C 0.4444 0.94668 0.4541 0.0
C243 C 0.48026 0.95726 0.45672 0.0
C244 C 0.45324 0.98283 0.46736 0.0
C245 C 0.46533 0.94174 0.45169 0.0
C246 C 0.48118 0.03203 0.67559 0.0
C247 C 0.48995 0.99454 0.47252 0.0
H248 H 0.57641 1.00614 1.00159 0.0
H249 H 0.52312 0.04241 0.95796 0.0
H250 H 0.54319 0.02083 0.03439 0.0
H251 H 0.56866 0.03216 0.80915 0.0
H252 H 0.43303 0.93446 0.44965 0.0
H253 H 0.49638 0.95297 0.45486 0.0
H254 H 0.44846 0.99878 0.47261 0.0
H255 H 0.47 0.92582 0.44572 0.0
Eu256 Eu 0.53978 0.51434 0.55334 0.0
C257 C 0.47025 0.49926 0.73674 0.0
N258 N 0.47093 0.51366 0.68841 0.0
C259 C 0.4384 0.5015 0.64726 0.0
C260 C 0.45417 0.48457 0.73974 0.0
C261 C 0.45459 0.51583 0.64683 0.0
C262 C 0.43843 0.4855 0.693 0.0
C263 C 0.48428 0.48601 0.83842 0.0
C264 C 0.48499 0.50001 0.78577 0.0
C265 C 0.46895 0.47064 0.83967 0.0
C266 C 0.45392 0.46992 0.79043 0.0
Eu267 Eu 0.50045 0.53556 0.68782 0.0
N268 N 0.49995 0.51469 0.78231 0.0
C269 C 0.49889 0.48803 0.88851 0.0
C270 C 0.51359 0.51746 0.83238 0.0
C271 C 0.51342 0.50403 0.88592 0.0
H272 H 0.45377 0.52875 0.61369 0.0
H273 H 0.52455 0.50593 0.9249 0.0
H274 H 0.58315 0.54098 0.5759 0.0
H275 H 0.49921 0.50131 0.32218 0.0
H276 H 0.52492 0.52971 0.82993 0.0
H277 H 0.49888 0.47756 0.92978 0.0
H278 H 0.51149 0.49242 0.43281 0.0
H279 H 0.42579 0.50298 0.6129 0.0
H280 H 0.46834 0.45951 0.87918 0.0
H281 H 0.44185 0.45833 0.79297 0.0
H282 H 0.60344 0.56848 0.52073 0.0
H283 H 0.42578 0.47451 0.69359 0.0
H284 H 0.51243 0.53268 0.26697 0.0
N285 N 0.56022 0.53987 0.50186 0.0
C286 C 0.55424 0.54634 0.44189 0.0
C287 C 0.58954 0.5625 0.49823 0.0
C288 C 0.56506 0.5621 0.40895 0.0
C289 C 0.57813 0.54695 0.52919 0.0
C290 C 0.58273 0.57044 0.43846 0.0
N291 N 0.52966 0.51964 0.44301 0.0
C292 C 0.51671 0.50658 0.41025 0.0
C293 C 0.53225 0.54136 0.3477 0.0
C294 C 0.53818 0.53605 0.4118 0.0
C295 C 0.51746 0.52912 0.31617 0.0
C296 C 0.50998 0.5114 0.34714 0.0
H297 H 0.59153 0.58253 0.41467 0.0
H298 H 0.56627 0.58072 0.32102 0.0
H299 H 0.53742 0.56257 0.26732 0.0
O300 O 0.5539 0.49001 0.49397 0.0
O301 O 0.53882 0.54907 0.57554 0.0
O302 O 0.5047 0.55453 0.59543 0.0
O303 O 0.56771 0.49887 0.58538 0.0
O304 O 0.50559 0.50569 0.54267 0.0
O305 O 0.48925 0.53436 0.58236 0.0
O306 O 0.50508 0.56438 0.74002 0.0
O307 O 0.51867 0.50581 0.70349 0.0
O308 O 0.51801 0.49156 0.60249 0.0
O309 O 0.4739 0.55153 0.73153 0.0
O310 O 0.53403 0.54384 0.70986 0.0
O311 O 0.55345 0.51942 0.65449 0.0
C312 C 0.52256 0.56113 0.57362 0.0
C313 C 0.56908 0.46381 0.56054 0.0
C314 C 0.555 0.42886 0.56918 0.0
C315 C 0.57067 0.42397 0.61423 0.0
C316 C 0.58479 0.45842 0.60461 0.0
C317 C 0.58549 0.43864 0.63143 0.0
C318 C 0.5543 0.44893 0.5427 0.0
C319 C 0.49014 0.51883 0.54115 0.0
C320 C 0.56752 0.48544 0.5385 0.0
C321 C 0.55838 0.5684 0.34678 0.0
C322 C 0.54195 0.55807 0.31624 0.0
C323 C 0.51736 0.48948 0.66604 0.0
C324 C 0.47769 0.5845 0.78838 0.0
C325 C 0.48313 0.61964 0.82753 0.0
C326 C 0.46259 0.62009 0.84944 0.0
C327 C 0.45721 0.58518 0.81032 0.0
C328 C 0.49055 0.60169 0.79752 0.0
C329 C 0.44975 0.60291 0.84093 0.0
C330 C 0.55123 0.53332 0.70096 0.0
C331 C 0.48551 0.56658 0.75224 0.0
H332 H 0.57144 0.40882 0.63653 0.0
H333 H 0.59627 0.46969 0.61939 0.0
H334 H 0.59749 0.43472 0.66606 0.0
H335 H 0.54235 0.45296 0.50796 0.0
H336 H 0.45639 0.63375 0.87255 0.0
H337 H 0.44696 0.57212 0.80337 0.0
H338 H 0.50643 0.60111 0.78123 0.0
H339 H 0.43393 0.6034 0.85765 0.0
Eu340 Eu 0.02634 0.54368 0.56145 0.0
C341 C 0.04049 0.46798 0.74611 0.0
N342 N 0.0252 0.4707 0.70147 0.0
C343 C 0.0292 0.43578 0.66486 0.0
C344 C 0.05134 0.44917 0.74997 0.0
C345 C 0.01872 0.4546 0.66356 0.0
C346 C 0.04583 0.43316 0.70749 0.0
C347 C 0.05931 0.48078 0.84044 0.0
C348 C 0.04449 0.48359 0.79078 0.0
C349 C 0.0708 0.46245 0.84251 0.0
C350 C 0.06686 0.4467 0.7973 0.0
Eu351 Eu 1.00968 0.50372 0.69998 0.0
N352 N 0.03327 0.50121 0.78738 0.0
C353 C 0.06173 0.49626 0.88756 0.0
C354 C 0.03454 0.51573 0.83557 0.0
C355 C 0.04905 0.51366 0.88569 0.0
H356 H 1.00531 0.45615 0.63264 0.0
H357 H 0.05042 0.52544 0.92289 0.0
H358 H 1.00086 0.58555 0.60874 0.0
H359 H 0.0231 0.50396 0.32533 0.0
H360 H 0.02464 0.52911 0.83425 0.0
H361 H 0.07292 0.49466 0.92658 0.0
H362 H 0.0391 0.51503 0.42868 0.0
H363 H 0.02429 0.42322 0.63361 0.0
H364 H 0.08242 0.4601 0.87986 0.0
H365 H 0.07549 0.43244 0.80053 0.0
H366 H 0.97087 0.60651 0.57328 0.0
H367 H 0.05379 0.41848 0.70886 0.0
H368 H 0.98975 0.51891 0.29058 0.0
N369 N 0.99806 0.56432 0.53031 0.0
C370 C 0.98847 0.55946 0.47344 0.0
C371 C 0.97557 0.59323 0.54502 0.0
C372 C 0.97123 0.57076 0.45165 0.0
C373 C 0.99248 0.5814 0.56496 0.0
C374 C 0.9647 0.5877 0.48862 0.0
N375 N 0.0139 0.53404 0.45662 0.0
C376 C 0.02405 0.52084 0.41595 0.0
C377 C 0.98706 0.53834 0.37607 0.0
C378 C 0.99636 0.54353 0.43618 0.0
C379 C 0.99643 0.52337 0.33702 0.0
C380 C 0.01523 0.51487 0.35651 0.0
H381 H 0.95153 0.5968 0.47349 0.0
H382 H 0.94782 0.57325 0.3764 0.0
H383 H 0.96167 0.54482 0.31017 0.0
O384 O 0.0451 0.55841 0.48583 0.0
O385 O 0.99312 0.54026 0.59818 0.0
O386 O 0.98939 0.50572 0.61018 0.0
O387 O 0.04352 0.57193 0.58182 0.0
O388 O 0.03604 0.51004 0.54451 0.0
O389 O 1.01036 0.49139 0.59579 0.0
O390 O 0.98032 0.51189 0.74378 0.0
O391 O 0.04113 0.51966 0.70559 0.0
O392 O 0.05196 0.52317 0.59989 0.0
O393 O 0.99335 0.48183 0.76311 0.0
O394 O 1.00413 0.53753 0.72497 0.0
O395 O 0.02764 0.5565 0.6646 0.0
C396 C 0.98207 0.52344 0.59013 0.0
C397 C 0.07469 0.57562 0.52617 0.0
C398 C 0.10974 0.56181 0.52884 0.0
C399 C 0.11734 0.58226 0.52838 0.0
C400 C 0.08261 0.59574 0.5262 0.0
C401 C 0.10385 0.59902 0.52776 0.0
C402 C 0.0882 0.55873 0.52908 0.0
C403 C 0.02475 0.49315 0.55074 0.0
C404 C 0.05228 0.57255 0.52494 0.0
C405 C 0.96131 0.56499 0.39343 0.0
C406 C 0.96918 0.54877 0.3558 0.0
C407 C 0.05583 0.51949 0.66167 0.0
C408 C 0.97581 0.49891 0.84939 0.0
C409 C 0.95677 0.51746 0.93319 0.0
C410 C 0.96928 0.50842 0.98136 0.0
C411 C 0.98839 0.49013 0.89796 0.0
C412 C 0.96005 0.51248 0.86749 0.0
C413 C 0.98505 0.49487 0.96364 0.0
C414 C 0.01509 0.55439 0.71467 0.0
C415 C 0.97939 0.49527 0.77941 0.0
H416 H 0.13371 0.58549 0.52614 0.0
H417 H 0.07234 0.6089 0.52487 0.0
H418 H 0.10992 0.61461 0.52714 0.0
H419 H 0.08182 0.54327 0.53082 0.0
H420 H 0.96697 0.51197 0.03247 0.0
H421 H 1.00087 0.47981 0.88532 0.0
H422 H 0.95023 0.51915 0.83014 0.0
H423 H 0.99477 0.48809 1.0009 0.0
H424 H 0.18839 0.07589 0.10803 0.0
H425 H 0.15964 0.07487 0.1862 0.0
H426 H 0.17968 1.01493 0.25257 0.0
H427 H 0.20859 0.01618 0.17522 0.0
H428 H 0.12748 0.04753 0.19562 0.0
H429 H 0.17344 0.04544 0.42375 0.0
H430 H 0.18466 0.05187 0.34574 0.0
H431 H 0.18016 0.02532 0.36765 0.0
C432 C 0.18668 0.06262 0.13985 0.0
C433 C 0.20066 0.04617 0.13626 0.0
C434 C 0.17026 0.06201 0.18432 0.0
C435 C 0.16761 0.04497 0.22618 0.0
C436 C 0.18161 0.02846 0.22205 0.0
H437 H 0.07751 1.00253 0.50586 0.0
H438 H 0.10613 1.00748 0.43015 0.0
C439 C 0.19805 0.02911 0.17764 0.0
C440 C 0.14988 0.04418 0.27261 0.0
H441 H 0.13756 0.0379 0.43375 0.0
C442 C 0.1297 0.04562 0.24776 0.0
C443 C 0.15271 0.04173 0.34077 0.0
C444 C 0.17391 0.04121 0.37123 0.0
C445 C 0.11234 0.04401 0.28877 0.0
C446 C 0.1152 0.04118 0.35671 0.0
C447 C 0.13536 0.04003 0.38168 0.0
C448 C 0.09751 0.03851 0.40246 0.0
C449 C 0.09107 0.04467 0.25883 0.0
C450 C 0.08309 0.05437 0.41258 0.0
C451 C 0.06669 0.05164 0.45649 0.0
C452 C 0.06446 0.03303 0.49136 0.0
C453 C 0.07889 0.01719 0.4807 0.0
C454 C 0.09526 0.01996 0.43717 0.0
H455 H 0.09151 0.04249 0.20507 0.0
H456 H 0.08099 0.03258 0.28045 0.0
H457 H 0.08401 0.05992 0.26894 0.0
H458 H 0.08465 0.06894 0.38707 0.0
H459 H 0.05587 0.06414 0.46359 0.0
H460 H 0.53793 0.19599 0.11147 0.0
H461 H 0.53851 0.16735 0.19035 0.0
H462 H 0.48757 0.19477 0.29362 0.0
H463 H 0.48683 0.22322 0.21405 0.0
H464 H 0.54438 0.1669 0.32427 0.0
H465 H 0.46661 0.13632 0.26381 0.0
H466 H 0.47968 0.15501 0.2131 0.0
H467 H 0.46689 0.16307 0.28656 0.0
C468 C 0.52687 0.19583 0.15105 0.0
C469 C 0.51227 0.21168 0.15669 0.0
C470 C 0.52721 0.17949 0.19616 0.0
C471 C 0.51288 0.17862 0.24758 0.0
C472 C 0.49851 0.19477 0.25374 0.0
H473 H 0.49033 0.08906 0.5608 0.0
H474 H 0.49021 0.11938 0.48891 0.0
C475 C 0.49817 0.2111 0.20855 0.0
C476 C 0.51306 0.16089 0.2946 0.0
H477 H 0.48361 0.12115 0.35427 0.0
C478 C 0.5311 0.15688 0.33063 0.0
C479 C 0.49574 0.14775 0.30331 0.0
C480 C 0.47618 0.15058 0.26429 0.0
C481 C 0.5322 0.14035 0.37539 0.0
C482 C 0.51494 0.12714 0.38366 0.0
C483 C 0.49686 0.13124 0.34806 0.0
C484 C 0.51538 0.10886 0.42835 0.0
C485 C 0.55173 0.13742 0.41445 0.0
C486 C 0.52939 0.09265 0.41815 0.0
C487 C 0.52953 0.07534 0.45948 0.0
C488 C 0.51568 0.07388 0.51207 0.0
C489 C 0.50148 0.08994 0.52163 0.0
C490 C 0.5013 0.10722 0.48023 0.0
H491 H 0.56121 0.15174 0.41582 0.0
H492 H 0.5482 0.13266 0.46531 0.0
H493 H 0.56111 0.1251 0.39162 0.0
H494 H 0.54013 0.09328 0.37778 0.0
H495 H 0.54063 0.0632 0.4507 0.0
H496 H 0.33184 0.54043 0.16806 0.0
H497 H 0.36139 0.5403 0.24348 0.0
H498 H 0.37021 0.47535 0.20686 0.0
H499 H 0.34081 0.47561 0.13078 0.0
H500 H 0.36832 0.51818 0.35688 0.0
H501 H 0.42764 0.49841 0.17237 0.0
H502 H 0.40197 0.50656 0.15009 0.0
H503 H 0.40649 0.48049 0.17665 0.0
C504 C 0.34011 0.52615 0.17634 0.0
C505 C 0.33417 0.50804 0.14373 0.0
C506 C 0.35699 0.52607 0.21937 0.0
C507 C 0.36835 0.5079 0.23022 0.0
C508 C 0.36207 0.48968 0.19837 0.0
H509 H 0.47671 0.48337 0.47942 0.0
H510 H 0.44726 0.47975 0.40432 0.0
C511 C 0.34518 0.48978 0.15532 0.0
C512 C 0.38654 0.50806 0.27531 0.0
H513 H 0.43866 0.49966 0.28257 0.0
C514 C 0.38368 0.51414 0.3405 0.0
C515 C 0.40666 0.5027 0.25432 0.0
C516 C 0.411 0.49684 0.18444 0.0
C517 C 0.40025 0.51494 0.38504 0.0
C518 C 0.4204 0.50989 0.3638 0.0
C519 C 0.42325 0.5035 0.29895 0.0
C520 C 0.43876 0.51202 0.40756 0.0
C521 C 0.39598 0.52098 0.45483 0.0
C522 C 0.44414 0.5314 0.4332 0.0
C523 C 0.46098 0.53351 0.47553 0.0
C524 C 0.47299 0.51632 0.4932 0.0
C525 C 0.4679 0.49695 0.46641 0.0
C526 C 0.45101 0.49485 0.42372 0.0
H527 H 0.37948 0.51872 0.46767 0.0
H528 H 0.40561 0.5119 0.48931 0.0
H529 H 0.39976 0.53757 0.46149 0.0
H530 H 0.43526 0.54496 0.42049 0.0
H531 H 0.46456 0.54869 0.4947 0.0
H532 H 0.0643 0.35076 0.11749 0.0
H533 H 0.06462 0.37932 0.1966 0.0
H534 H 1.00282 0.36313 0.2558 0.0
H535 H 1.00267 0.33445 0.17741 0.0
H536 H 0.03933 0.41338 0.20481 0.0
H537 H 0.03231 0.36663 0.43039 0.0
H538 H 0.03873 0.35538 0.35249 0.0
H539 H 1.01235 0.36134 0.37186 0.0
C540 C 0.05089 0.35326 0.14792 0.0
C541 C 0.03352 0.34041 0.14198 0.0
C542 C 0.05105 0.36959 0.19294 0.0
C543 C 0.03387 0.37327 0.2331 0.0
C544 C 0.01645 0.36039 0.22663 0.0
H545 H 0.99601 0.46417 0.51696 0.0
H546 H 0.99945 0.43565 0.43999 0.0
C547 C 0.01631 0.34407 0.18164 0.0
C548 C 0.03392 0.39087 0.28033 0.0
H549 H 0.02727 0.40287 0.44154 0.0
C550 C 0.03688 0.41105 0.25665 0.0
C551 C 0.03075 0.38792 0.34812 0.0
C552 C 0.02856 0.36664 0.37744 0.0
C553 C 0.03608 0.42833 0.29839 0.0
C554 C 0.03258 0.42538 0.36599 0.0
C555 C 0.02992 0.40518 0.38977 0.0
C556 C 0.03082 0.44301 0.41258 0.0
C557 C 0.0383 0.44965 0.26945 0.0
C558 C 0.04738 0.4567 0.42351 0.0
C559 C 0.0455 0.47305 0.46813 0.0
C560 C 0.02704 0.476 0.5029 0.0
C561 C 1.01055 0.46225 0.49177 0.0
C562 C 1.01245 0.44593 0.44747 0.0
H563 H 0.03614 0.44957 0.21563 0.0
H564 H 0.02697 0.46045 0.29127 0.0
H565 H 0.05401 0.45565 0.28003 0.0
H566 H 0.06185 0.45459 0.39814 0.0
H567 H 0.05855 0.48324 0.47592 0.0
H568 H 0.84804 0.04544 0.14893 0.0
H569 H 0.87652 0.04578 0.06996 0.0
H570 H 0.85815 0.98538 1.00233 0.0
H571 H 0.82945 0.98525 0.08074 0.0
H572 H 0.90955 0.01985 0.0582 0.0
H573 H 0.86247 0.01728 0.83202 0.0
H574 H 0.85148 0.0228 0.91092 0.0
H575 H 0.85709 0.99662 0.88804 0.0
C576 C 0.85004 0.03234 0.11674 0.0
C577 C 0.83657 0.01538 0.12031 0.0
C578 C 0.86634 0.03249 0.07181 0.0
C579 C 0.86941 0.01573 0.02938 0.0
C580 C 0.85592 0.99869 0.03341 0.0
H581 H 0.98403 0.995 0.8088 0.0
H582 H 0.95558 0.99253 0.88712 0.0
C583 C 0.83959 0.99856 0.07838 0.0
C584 C 0.88695 0.01599 0.98205 0.0
H585 H 0.89861 1.01359 0.81941 0.0
C586 C 0.90715 0.01847 1.00598 0.0
C587 C 0.88387 1.01444 0.91374 0.0
C588 C 0.86256 1.01283 0.88443 0.0
C589 C 0.92428 0.01934 0.96378 0.0
C590 C 0.92124 0.01731 0.89557 0.0
C591 C 0.90103 1.01493 0.87164 0.0
C592 C 0.93866 0.01853 0.84794 0.0
C593 C 0.94541 0.023 0.99262 0.0
C594 C 0.93852 0.03362 0.79864 0.0
C595 C 0.95467 0.03497 0.75353 0.0
C596 C 0.97143 0.02119 0.75625 0.0
C597 C 0.9715 1.00597 0.80541 0.0
C598 C 0.95526 1.00461 0.85054 0.0
H599 H 0.9445 0.02951 0.04268 0.0
H600 H 0.95374 1.00809 0.99566 0.0
H601 H 0.95459 0.03369 0.96167 0.0
H602 H 0.92592 0.04452 0.79533 0.0
H603 H 0.954 0.04691 0.71653 0.0
H604 H 0.56667 0.85213 0.1381 0.0
H605 H 0.56688 0.88148 0.06156 0.0
H606 H 0.50066 0.87738 0.04505 0.0
H607 H 0.50048 0.84828 0.12215 0.0
H608 H 0.55351 0.88502 0.93327 0.0
H609 H 0.50879 0.93786 0.09116 0.0
H610 H 0.5198 0.91413 0.12132 0.0
H611 H 0.49597 0.91372 0.07616 0.0
C612 C 0.5522 0.85758 0.11806 0.0
C613 C 0.53355 0.84812 0.13619 0.0
C614 C 0.55231 0.87431 0.07429 0.0
C615 C 0.53375 0.88199 0.04819 0.0
C616 C 0.51515 0.87215 0.06548 0.0
H617 H 0.4959 0.97689 0.77577 0.0
H618 H 0.49894 0.94863 0.85427 0.0
C619 C 0.51505 0.85543 0.10922 0.0
C620 C 0.53383 0.90015 1.00275 0.0
H621 H 0.51397 0.94863 0.98133 0.0
C622 C 0.545 0.89899 0.94407 0.0
C623 C 0.52278 0.91848 0.01659 0.0
C624 C 0.51131 0.92127 0.07999 0.0
C625 C 0.54487 0.91529 0.89823 0.0
C626 C 0.53357 0.93348 0.91175 0.0
C627 C 0.52264 0.93474 0.97078 0.0
C628 C 0.53209 0.95098 0.86417 0.0
C629 C 0.55624 0.91261 0.83463 0.0
C630 C 0.54967 0.96211 0.844 0.0
C631 C 0.54796 0.97825 0.79833 0.0
C632 C 0.52864 0.98359 0.77192 0.0
C633 C 0.51106 0.97287 0.79386 0.0
C634 C 0.51276 0.95677 0.83922 0.0
H635 H 0.56018 0.89619 0.82534 0.0
H636 H 0.54689 0.91844 0.79308 0.0
H637 H 0.57082 0.92162 0.83629 0.0
H638 H 0.56472 0.95832 0.86357 0.0
H639 H 0.56179 0.9863 0.7829 0.0
H640 H 0.70725 0.56679 0.0967 0.0
H641 H 0.67863 0.56926 0.01787 0.0
H642 H 0.66218 0.5059 0.05787 0.0
H643 H 0.69054 0.50359 0.13712 0.0
H644 H 0.67055 0.54778 0.90564 0.0
H645 H 0.60724 0.53467 0.08203 0.0
H646 H 0.63333 0.54031 0.10749 0.0
H647 H 0.62618 0.51453 0.08353 0.0
C648 C 0.69745 0.55345 0.08853 0.0
C649 C 0.70096 0.53504 0.12291 0.0
C650 C 0.68112 0.55485 0.04356 0.0
C651 C 0.66791 0.53789 0.0326 0.0
C652 C 0.67175 0.51937 0.06642 0.0
H653 H 0.58835 0.51317 0.70211 0.0
H654 H 0.61617 0.51586 0.78161 0.0
C655 C 0.68805 0.51799 0.11131 0.0
C656 C 0.65045 0.53937 0.98493 0.0
H657 H 0.59829 0.5324 0.9691 0.0
C658 C 0.65474 0.54455 0.9197 0.0
C659 C 0.62969 0.53553 1.00313 0.0
C660 C 0.62376 0.53116 0.07298 0.0
C661 C 0.63905 0.54532 0.87205 0.0
C662 C 0.61846 0.54043 0.88959 0.0
C663 C 0.61406 0.53594 0.95524 0.0
C664 C 0.60142 0.53927 0.84031 0.0
C665 C 0.64471 0.55153 0.80335 0.0
C666 C 0.58344 0.55119 0.84714 0.0
C667 C 0.56726 0.5496 0.80158 0.0
C668 C 0.56862 0.53591 0.74837 0.0
C669 C 0.58667 0.52401 0.74192 0.0
C670 C 0.60276 0.52561 0.78734 0.0
H671 H 0.65916 0.5608 0.80234 0.0
H672 H 0.64729 0.53743 0.77378 0.0
H673 H 0.63221 0.56063 0.78007 0.0
H674 H 0.58192 0.56176 0.88777 0.0
H675 H 0.55364 0.55897 0.80847 0.0
H676 H 0.03236 0.71692 0.08084 0.0
H677 H 0.03242 0.68911 0.99909 0.0
H678 H 0.98693 0.65583 0.11145 0.0
H679 H 0.98675 0.68374 0.19263 0.0
H680 H 0.04219 0.64779 0.01425 0.0
H681 H 0.96122 0.65535 0.93001 0.0
H682 H 0.97392 0.67496 0.97816 0.0
H683 H 0.96383 0.65211 0.01667 0.0
C684 C 0.02231 0.70369 0.08765 0.0
C685 C 1.00949 0.70242 0.14261 0.0
C686 C 0.02236 0.6878 0.04106 0.0
C687 C 1.00945 0.67044 0.04836 0.0
C688 C 0.99669 0.66921 0.10375 0.0
H689 H 0.99113 0.55659 0.82537 0.0
H690 H 0.98996 0.58441 0.9061 0.0
C691 C 0.99668 0.68509 0.15034 0.0
C692 C 1.00983 0.65338 0.99918 0.0
H693 H 0.97961 0.62606 0.89235 0.0
C694 C 0.02852 0.64312 0.98739 0.0
C695 C 0.99199 0.64716 0.96413 0.0
C696 C 0.97163 0.65807 0.97229 0.0
C697 C 0.02981 0.6267 0.94255 0.0
C698 C 1.01199 0.62052 0.90734 0.0
C699 C 0.99327 0.63072 0.91927 0.0
C700 C 1.01254 0.60368 0.85751 0.0
C701 C 0.05017 0.61579 0.93443 0.0
C702 C 0.02534 0.60531 0.80244 0.0
C703 C 0.02605 0.58943 0.75607 0.0
C704 C 0.0139 0.5715 0.76335 0.0
C705 C 1.00079 0.57007 0.81802 0.0
C706 C 1.00008 0.58601 0.86436 0.0
H707 H 0.06054 0.61843 0.97685 0.0
H708 H 0.04787 0.5989 0.92828 0.0
H709 H 0.05802 0.6218 0.89022 0.0
H710 H 0.03476 0.61895 0.7951 0.0
H711 H 0.03623 0.59122 0.71457 0.0
H712 H 0.08103 0.23545 0.16815 0.0
H713 H 0.08206 0.2141 0.2669 0.0
H714 H 0.02615 0.24275 0.33481 0.0
H715 H 0.02526 0.26438 0.23688 0.0
H716 H 0.0553 0.22759 0.43922 0.0
H717 H 0.03453 0.17084 0.24514 0.0
H718 H 0.05856 0.18436 0.2352 0.0
H719 H 0.03468 0.19826 0.23031 0.0
C720 C 0.06942 0.23771 0.2054 0.0
C721 C 0.05287 0.25126 0.19458 0.0
C722 C 0.07007 0.2256 0.26183 0.0
C723 C 0.054 0.22665 0.30748 0.0
C724 C 0.03872 0.24177 0.3002 0.0
H725 H 0.98198 0.15543 0.55954 0.0
H726 H 1.00564 0.18242 0.52497 0.0
C727 C 0.03819 0.25407 0.24412 0.0
C728 C 0.05033 0.20927 0.35289 0.0
H729 H 0.03266 0.15977 0.35236 0.0
C730 C 0.0507 0.21259 0.42063 0.0
C731 C 0.04424 0.18979 0.32829 0.0
C732 C 0.04279 0.18551 0.25585 0.0
C733 C 0.04471 0.19691 0.4645 0.0
C734 C 0.03777 0.17772 0.43957 0.0
C735 C 0.03821 0.17432 0.37187 0.0
C736 C 0.02753 0.16163 0.48005 0.0
C737 C 0.04568 0.20119 0.53676 0.0
C738 C 0.03229 0.14078 0.4695 0.0
C739 C 0.01811 0.12536 0.4855 0.0
C740 C 0.99905 0.13039 0.51435 0.0
C741 C 0.99592 0.15097 0.53432 0.0
C742 C 1.00981 0.1665 0.51611 0.0
H743 H 0.05862 0.21187 0.5484 0.0
H744 H 0.03119 0.20884 0.55209 0.0
H745 H 0.04759 0.18679 0.5656 0.0
H746 H 0.04599 0.13658 0.44243 0.0
H747 H 0.02149 0.10985 0.46928 0.0
H748 H 0.2648 0.01832 0.23708 0.0
H749 H 0.28128 1.0097 0.34107 0.0
H750 H 0.33537 0.04415 0.28272 0.0
H751 H 0.31835 0.05431 0.18282 0.0
H752 H 0.31037 0.9861 0.35412 0.0
H753 H 0.33948 0.05629 0.46704 0.0
H754 H 0.32002 0.05753 0.40402 0.0
H755 H 0.34718 0.05861 0.38372 0.0
C756 C 0.27985 0.02478 0.24784 0.0
C757 C 0.29044 0.03665 0.20101 0.0
C758 C 0.28934 0.01973 0.30724 0.0
C759 C 0.30962 0.02631 0.32057 0.0
C760 C 0.31956 0.03929 0.27538 0.0
H761 H 0.41025 0.95717 0.36951 0.0
H762 H 0.37519 0.96987 0.35821 0.0
C763 C 0.30995 0.0447 0.21706 0.0
C764 C 0.32196 0.0168 0.37405 0.0
H765 H 0.36543 0.02696 0.46207 0.0
C766 C 0.32193 0.99516 0.37961 0.0
C767 C 0.33656 0.02829 0.41064 0.0
C768 C 0.33554 0.05148 0.41648 0.0
C769 C 0.33781 0.98481 0.41254 0.0
C770 C 0.35466 0.99633 0.43743 0.0
C771 C 0.35307 0.01794 0.44042 0.0
C772 C 0.37508 0.98668 0.44982 0.0
C773 C 0.33675 0.96159 0.41745 0.0
C774 C 0.38717 0.99232 0.50406 0.0
C775 C 0.4076 0.98554 0.50937 0.0
C776 C 0.41613 0.97281 0.46096 0.0
C777 C 0.40387 0.96663 0.40806 0.0
C778 C 0.3837 0.97374 0.40204 0.0
H779 H 0.32064 0.95651 0.42683 0.0
H780 H 0.3415 0.95469 0.37027 0.0
H781 H 0.3468 0.95555 0.457 0.0
H782 H 0.38103 1.00243 0.54129 0.0
H783 H 0.41684 0.99052 0.5506 0.0
H784 H 0.45582 0.31238 0.18197 0.0
H785 H 0.45327 0.33286 0.2823 0.0
H786 H 0.51161 0.30835 0.34743 0.0
H787 H 0.5138 0.2874 0.24893 0.0
H788 H 0.48591 0.31782 0.45097 0.0
H789 H 0.49067 0.38279 0.27214 0.0
H790 H 0.46829 0.36649 0.26713 0.0
H791 H 0.49326 0.35629 0.24718 0.0
C792 C 0.46771 0.3109 0.21892 0.0
C793 C 0.48516 0.29861 0.20753 0.0
C794 C 0.46628 0.32262 0.27596 0.0
C795 C 0.48256 0.32258 0.32125 0.0
C796 C 0.49891 0.30868 0.31297 0.0
H797 H 0.56203 0.38783 0.54751 0.0
H798 H 0.53814 0.36229 0.50421 0.0
C799 C 0.50017 0.29671 0.25662 0.0
C800 C 0.48477 0.33919 0.37033 0.0
H801 H 0.49761 0.3902 0.38047 0.0
C802 C 0.48797 0.33376 0.43597 0.0
C803 C 0.4874 0.36003 0.35067 0.0
C804 C 0.48488 0.36684 0.2805 0.0
C805 C 0.49515 0.34833 0.48141 0.0
C806 C 0.49936 0.36868 0.46029 0.0
C807 C 0.49437 0.37454 0.39634 0.0
C808 C 0.51214 0.38312 0.49899 0.0
C809 C 0.49906 0.3416 0.55082 0.0
C810 C 0.5055 0.40339 0.5102 0.0
C811 C 0.51922 0.41814 0.53474 0.0
C812 C 0.53986 0.4129 0.54826 0.0
C813 C 0.5462 0.39238 0.5389 0.0
C814 C 0.53248 0.37766 0.51451 0.0
H815 H 0.48847 0.32886 0.56509 0.0
H816 H 0.51509 0.33577 0.55507 0.0
H817 H 0.49716 0.35463 0.58551 0.0
H818 H 0.48993 0.40797 0.49767 0.0
H819 H 0.51376 0.43373 0.54167 0.0
H820 H 0.22734 0.46144 0.16887 0.0
H821 H 0.20551 0.46118 0.26628 0.0
H822 H 0.23631 0.51592 0.33656 0.0
H823 H 0.25825 0.51621 0.23952 0.0
H824 H 0.21851 0.48457 0.43928 0.0
H825 H 0.16589 0.51324 0.24355 0.0
H826 H 0.17838 0.48887 0.23018 0.0
H827 H 0.19345 0.51216 0.23257 0.0
C828 C 0.22996 0.47295 0.20634 0.0
C829 C 0.24419 0.48907 0.19626 0.0
C830 C 0.2176 0.4727 0.26208 0.0
C831 C 0.2192 0.48865 0.30806 0.0
C832 C 0.23495 0.50341 0.30171 0.0
H833 H 0.14972 0.55818 0.57453 0.0
H834 H 0.17571 0.5347 0.53318 0.0
C835 C 0.24744 0.50359 0.24615 0.0
C836 C 0.20177 0.4929 0.35233 0.0
H837 H 0.15385 0.51409 0.34992 0.0
C838 C 0.20418 0.49072 0.42009 0.0
C839 C 0.18319 0.50094 0.32687 0.0
C840 C 0.17997 0.50411 0.25442 0.0
C841 C 0.18843 0.49672 0.46332 0.0
C842 C 0.17015 0.50558 0.43779 0.0
C843 C 0.16768 0.50708 0.36981 0.0
C844 C 0.1542 0.51563 0.47884 0.0
C845 C 0.19163 0.49359 0.53557 0.0
C846 C 0.13324 0.51244 0.46445 0.0
C847 C 0.11845 0.52661 0.48486 0.0
C848 C 0.12422 0.54406 0.5217 0.0
C849 C 0.14478 0.54552 0.54373 0.0
C850 C 0.1597 0.5317 0.52145 0.0
H851 H 0.20118 0.47969 0.54505 0.0
H852 H 0.20008 0.50709 0.55574 0.0
H853 H 0.17677 0.49191 0.56194 0.0
H854 H 0.12855 0.50004 0.43214 0.0
H855 H 0.10288 0.52467 0.46671 0.0
H856 H 0.94895 0.79908 0.12284 0.0
H857 H 0.94548 0.8215 0.02716 0.0
H858 H 1.00564 0.80202 0.96143 0.0
H859 H 1.00835 0.77888 0.05377 0.0
H860 H 0.96748 0.85229 0.02615 0.0
H861 H 0.98421 0.81722 0.79087 0.0
H862 H 0.9761 0.80151 0.85917 0.0
H863 H 1.00317 0.80673 0.8448 0.0
C864 C 0.96084 0.79883 0.08575 0.0
C865 C 0.97899 0.78749 0.09563 0.0
C866 C 0.95889 0.81164 0.03114 0.0
C867 C 0.97534 0.81369 0.98684 0.0
C868 C 0.99244 0.80052 0.99333 0.0
H869 H 0.05064 0.9113 0.9525 0.0
H870 H 0.02624 0.88351 0.97508 0.0
C871 C 0.99411 0.78735 0.04685 0.0
C872 C 0.97755 0.83273 0.94683 0.0
H873 H 1.00473 0.85009 0.81523 0.0
C874 C 0.97486 0.85175 0.97873 0.0
C875 C 0.98662 0.83257 0.88399 0.0
C876 C 0.9874 0.81334 0.84275 0.0
C877 C 0.98361 0.8699 0.95408 0.0
C878 C 0.99586 0.86888 0.89729 0.0
C879 C 0.99605 0.85064 0.8604 0.0
C880 C 1.01074 0.88548 0.88149 0.0
C881 C 0.98077 0.88973 0.99155 0.0
C882 C 1.01073 0.89513 0.82025 0.0
C883 C 0.02498 0.91081 0.80675 0.0
C884 C 0.0395 0.91698 0.85424 0.0
C885 C 0.03975 0.90686 0.91482 0.0
C886 C 0.0256 0.89119 0.92811 0.0
H887 H 0.96551 0.88998 0.01616 0.0
H888 H 0.99279 0.89086 0.03004 0.0
H889 H 0.98202 0.90345 0.9592 0.0
H890 H 0.9996 0.89069 0.78329 0.0
H891 H 0.02466 0.91806 0.75909 0.0
H892 H 0.76239 0.01735 0.02093 0.0
H893 H 0.73926 0.01596 0.92633 0.0
H894 H 0.70508 0.96644 0.01715 0.0
H895 H 0.72883 0.96685 0.10926 0.0
H896 H 0.70061 0.96555 0.88432 0.0
H897 H 0.68728 0.04491 0.98155 0.0
H898 H 0.71219 0.03998 0.9471 0.0
H899 H 0.70453 0.02718 0.02127 0.0
C900 C 0.75057 1.0055 0.01917 0.0
C901 C 0.74689 0.99271 0.07343 0.0
C902 C 0.73724 1.00484 0.96534 0.0
C903 C 0.71991 0.99175 0.96617 0.0
C904 C 0.71813 0.97694 0.01586 0.0
H905 H 0.59479 0.98218 0.93791 0.0
H906 H 0.63141 0.97456 0.92686 0.0
C907 C 0.73161 0.97732 0.06887 0.0
C908 C 0.70147 0.99614 0.92559 0.0
H909 H 0.66202 0.03069 0.91636 0.0
C910 C 0.69236 0.97999 0.88978 0.0
C911 C 0.69065 1.01499 0.93289 0.0
C912 C 0.69901 0.03274 0.97303 0.0
C913 C 0.67221 0.98171 0.86485 0.0
C914 C 0.66094 0.99997 0.87655 0.0
C915 C 0.6707 0.01669 0.90736 0.0
C916 C 0.63829 1.00136 0.86727 0.0
C917 C 0.66295 0.96371 0.82845 0.0
C918 C 0.6298 0.01873 0.83647 0.0
C919 C 0.60901 0.02353 0.84473 0.0
C920 C 0.59619 1.01094 0.88361 0.0
C921 C 0.60431 0.99251 0.90919 0.0
C922 C 0.62521 0.98787 0.90162 0.0
H923 H 0.67504 0.95497 0.80198 0.0
H924 H 0.65563 0.953 0.86389 0.0
H925 H 0.65104 0.96885 0.79296 0.0
H926 H 0.63962 0.02943 0.81008 0.0
H927 H 0.60347 0.03793 0.82443 0.0
H928 H 0.59203 0.74995 0.10773 0.0
H929 H 0.59498 0.72875 0.00933 0.0
H930 H 0.53541 0.75075 0.94521 0.0
H931 H 0.5333 0.77272 0.04017 0.0
H932 H 0.57239 0.69869 1.00501 0.0
H933 H 0.55577 0.7363 0.77354 0.0
H934 H 0.56453 0.75122 0.84277 0.0
H935 H 0.53727 0.74701 0.82827 0.0
C936 C 0.58019 0.75102 0.07049 0.0
C937 C 0.56235 0.76271 0.08148 0.0
C938 C 0.58184 0.73892 0.0143 0.0
C939 C 0.56536 0.73788 0.96958 0.0
C940 C 0.54865 0.75145 0.97739 0.0
H941 H 0.4866 0.64385 0.93575 0.0
H942 H 0.51158 0.67133 0.95582 0.0
C943 C 0.5473 0.76395 0.03247 0.0
C944 C 0.5625 0.71931 0.92788 0.0
H945 H 0.53365 0.70414 0.7969 0.0
C946 C 0.56471 0.69993 0.95812 0.0
C947 C 0.55304 0.72034 0.86558 0.0
C948 C 0.55281 0.7399 0.82568 0.0
C949 C 0.555 0.68238 0.93284 0.0
C950 C 0.54231 0.68439 0.87715 0.0
C951 C 0.54265 0.70288 0.84141 0.0
C952 C 0.52655 0.66861 0.86179 0.0
C953 C 0.55722 0.66215 0.96879 0.0
C954 C 0.52602 0.65879 0.80096 0.0
C955 C 0.51145 0.64328 0.78891 0.0
C956 C 0.49719 0.63746 0.83751 0.0
C957 C 0.49727 0.648 0.89728 0.0
C958 C 0.51174 0.6635 0.90911 0.0
H959 H 0.57257 0.66109 0.99281 0.0
H960 H 0.54533 0.66118 1.00757 0.0
H961 H 0.55527 0.64877 0.93546 0.0
H962 H 0.53711 0.66278 0.76349 0.0
H963 H 0.51149 0.63569 0.74183 0.0
H964 H 0.78597 0.5427 0.0561 0.0
H965 H 0.8162 0.54977 0.98963 0.0
H966 H 0.82268 0.60956 0.08014 0.0
H967 H 0.79297 0.60187 0.14996 0.0
H968 H 0.83793 0.5756 0.91232 0.0
H969 H 0.86833 0.57805 0.16738 0.0
H970 H 0.84166 0.57257 0.15028 0.0
H971 H 0.85137 0.59856 0.14369 0.0
C972 C 0.79312 0.55782 0.05925 0.0
C973 C 0.78756 0.57155 0.10898 0.0
C974 C 0.81052 0.56185 0.02136 0.0
C975 C 0.82226 0.57979 0.03229 0.0
C976 C 0.81425 0.59529 0.07279 0.0
H977 H 0.94762 0.55506 0.87989 0.0
H978 H 0.91698 0.57621 0.90087 0.0
C979 C 0.79712 0.59103 0.112 0.0
C980 C 0.84442 0.57946 0.01458 0.0
H981 H 0.89157 0.57152 0.08477 0.0
C982 C 0.84982 0.57522 0.94964 0.0
C983 C 0.85988 0.57877 0.06376 0.0
C984 C 0.85511 0.58209 0.13522 0.0
C985 C 0.86977 0.56859 0.93336 0.0
C986 C 0.8848 0.56678 0.98325 0.0
C987 C 0.87993 0.57288 0.04691 0.0
C988 C 0.90433 0.55543 0.9734 0.0
C989 C 0.87407 0.56193 0.86413 0.0
C990 C 0.90781 0.53728 0.00939 0.0
C991 C 0.92535 0.52541 0.99832 0.0
C992 C 0.93966 0.53141 0.95067 0.0
C993 C 0.93661 0.55 0.91633 0.0
C994 C 0.91911 0.56201 0.92796 0.0
H995 H 0.85983 0.5613 0.83395 0.0
H996 H 0.88487 0.57308 0.8411 0.0
H997 H 0.88143 0.54647 0.86346 0.0
H998 H 0.8966 0.53193 0.0448 0.0
H999 H 0.92727 0.51109 0.02502 0.0
H1000 H 0.07091 0.22439 0.9759 0.0
H1001 H 0.06655 0.195 0.90237 0.0
H1002 H 1.00458 0.21477 0.85868 0.0
H1003 H 1.00909 0.24454 0.93161 0.0
H1004 H 0.03967 0.16433 0.92077 0.0
H1005 H 0.02414 0.19921 0.67816 0.0
H1006 H 0.03467 0.21393 0.74529 0.0
H1007 H 1.00751 0.20829 0.74185 0.0
C1008 C 0.0565 0.22273 0.94953 0.0
C1009 C 0.04036 0.23684 0.95962 0.0
C1010 C 0.054 0.20587 0.90752 0.0
C1011 C 0.03527 0.20257 0.87438 0.0
C1012 C 0.01935 0.21709 0.88235 0.0
H1013 H 0.99007 0.09153 0.67133 0.0
H1014 H 0.99287 0.12607 0.71992 0.0
C1015 C 0.02192 0.23414 0.92418 0.0
C1016 C 0.03201 0.18294 0.83699 0.0
H1017 H 0.01941 0.1629 0.68718 0.0
C1018 C 0.03532 0.16411 0.86963 0.0
C1019 C 0.02615 0.18247 0.77024 0.0
C1020 C 0.02308 0.20204 0.73152 0.0
C1021 C 0.03302 0.14502 0.83779 0.0
C1022 C 0.0274 0.14455 0.77105 0.0
C1023 C 0.02372 0.16327 0.73836 0.0
C1024 C 0.02587 0.12463 0.73477 0.0
C1025 C 0.03648 0.12539 0.87605 0.0
C1026 C 0.04356 0.11261 0.72479 0.0
C1027 C 0.04205 0.09299 0.69659 0.0
C1028 C 0.02276 0.08473 0.67836 0.0
C1029 C 1.00516 0.09723 0.68543 0.0
C1030 C 1.00672 0.11702 0.71319 0.0
H1031 H 0.03622 0.12813 0.92956 0.0
H1032 H 0.02457 0.11365 0.86378 0.0
H1033 H 0.05178 0.11894 0.86321 0.0
H1034 H 0.05856 0.11828 0.73997 0.0
H1035 H 0.05603 0.08419 0.69 0.0
H1036 H 0.29498 0.06321 0.90745 0.0
H1037 H 0.32388 0.06227 0.82989 0.0
H1038 H 0.34822 1.00871 0.9284 0.0
H1039 H 0.31922 1.00914 1.00375 0.0
H1040 H 0.36359 0.0677 0.85735 0.0
H1041 H 0.35563 0.99105 0.74343 0.0
H1042 H 0.33511 1.00257 0.79019 0.0
H1043 H 0.35555 0.98869 0.83056 0.0
C1044 C 0.30618 0.05089 0.9112 0.0
C1045 C 0.30481 0.03631 0.96199 0.0
C1046 C 0.32279 0.05044 0.86717 0.0
C1047 C 0.33823 0.03528 0.87258 0.0
C1048 C 0.33639 0.0203 0.92185 0.0
H1049 H 0.46763 0.04369 0.79659 0.0
H1050 H 0.43233 0.04542 0.83632 0.0
C1051 C 0.31985 0.02071 0.96554 0.0
C1052 C 0.35726 0.03608 0.83141 0.0
H1053 H 0.39007 1.00582 0.74281 0.0
C1054 C 0.36918 0.05425 0.83143 0.0
C1055 C 0.36455 0.01872 0.79633 0.0
C1056 C 0.3519 0.99926 0.7895 0.0
C1057 C 0.38856 0.05517 0.80067 0.0
C1058 C 0.39661 0.03726 0.77036 0.0
C1059 C 0.38419 0.01946 0.76702 0.0
C1060 C 0.4182 0.03639 0.74484 0.0
C1061 C 0.40021 0.07538 0.80126 0.0
C1062 C 0.42229 0.03002 0.68054 0.0
C1063 C 0.44266 0.02876 0.65764 0.0
C1064 C 0.45942 0.03374 0.69868 0.0
C1065 C 0.45522 0.03994 0.76314 0.0
C1066 C 0.43493 0.0411 0.78596 0.0
H1067 H 0.38951 0.0887 0.80476 0.0
H1068 H 0.4105 0.07584 0.8446 0.0
H1069 H 0.40978 0.07726 0.75674 0.0
H1070 H 0.40971 0.02607 0.64792 0.0
H1071 H 0.44523 0.02378 0.60787 0.0
H1072 H 0.53064 0.31029 0.95324 0.0
H1073 H 0.53405 0.3413 0.88459 0.0
H1074 H 0.46983 0.35517 0.91589 0.0
H1075 H 0.46651 0.32456 0.98528 0.0
H1076 H 0.51579 0.35664 0.77338 0.0
H1077 H 0.49712 0.40717 0.98292 0.0
H1078 H 0.50219 0.37997 0.99244 0.0
H1079 H 0.47722 0.38865 0.96562 0.0
C1080 C 0.51717 0.31973 0.94428 0.0
C1081 C 0.49835 0.31503 0.9751 0.0
C1082 C 0.51914 0.33754 0.90535 0.0
C1083 C 0.50234 0.35099 0.8964 0.0
C1084 C 0.4832 0.34548 0.9235 0.0
H1085 H 0.49634 0.45561 0.62131 0.0
H1086 H 0.49291 0.42171 0.67408 0.0
C1087 C 0.48127 0.32784 0.96271 0.0
C1088 C 0.50494 0.37114 0.86122 0.0
H1089 H 0.49909 0.42335 0.87922 0.0
C1090 C 0.51218 0.37123 0.7966 0.0
C1091 C 0.50058 0.39031 0.89158 0.0
C1092 C 0.49405 0.39162 0.96214 0.0
C1093 C 0.51488 0.3898 0.76144 0.0
C1094 C 0.50984 0.40892 0.79108 0.0
C1095 C 0.50281 0.4088 0.85595 0.0
C1096 C 0.51231 0.4293 0.75695 0.0
C1097 C 0.52366 0.38875 0.6935 0.0
C1098 C 0.52392 0.44521 0.78615 0.0
C1099 C 0.52573 0.4646 0.75618 0.0
C1100 C 0.516 0.46862 0.69617 0.0
C1101 C 0.50441 0.45278 0.66676 0.0
C1102 C 0.50247 0.43337 0.69698 0.0
H1103 H 0.53203 0.37406 0.68496 0.0
H1104 H 0.51089 0.38962 0.6575 0.0
H1105 H 0.5344 0.40181 0.68459 0.0
H1106 H 0.5316 0.44264 0.83244 0.0
H1107 H 0.53478 0.47649 0.78006 0.0
H1108 H 0.21824 0.47018 0.97634 0.0
H1109 H 0.18874 0.47418 0.90303 0.0
H1110 H 0.2077 0.53668 0.86097 0.0
H1111 H 0.23762 0.53252 0.93366 0.0
H1112 H 0.15786 0.50034 0.92272 0.0
H1113 H 0.19178 0.51745 0.68013 0.0
H1114 H 0.20684 0.50707 0.74668 0.0
H1115 H 0.2008 0.53414 0.74405 0.0
C1116 C 0.2164 0.48463 0.95026 0.0
C1117 C 0.23032 0.50102 0.96077 0.0
C1118 C 0.19947 0.48693 0.90841 0.0
C1119 C 0.19588 0.5057 0.87588 0.0
C1120 C 0.21024 0.52188 0.88417 0.0
H1121 H 0.08372 0.55058 0.67997 0.0
H1122 H 0.11861 0.54782 0.72724 0.0
C1123 C 0.22737 0.5195 0.92584 0.0
C1124 C 0.17612 0.50873 0.83897 0.0
H1125 H 0.15548 0.52174 0.69026 0.0
C1126 C 0.15744 0.50493 0.87181 0.0
C1127 C 0.17537 0.51488 0.77249 0.0
C1128 C 0.19475 0.51845 0.73347 0.0
C1129 C 0.13824 0.50705 0.84049 0.0
C1130 C 0.13749 0.51301 0.77408 0.0
C1131 C 0.15606 0.51715 0.74117 0.0
C1132 C 0.11745 0.5146 0.7385 0.0
C1133 C 0.11879 0.50305 0.87894 0.0
C1134 C 0.10548 0.49683 0.72708 0.0
C1135 C 0.08575 0.49841 0.69954 0.0
C1136 C 0.0775 0.51776 0.68362 0.0
C1137 C 0.08975 0.53548 0.6923 0.0
C1138 C 0.10964 0.53391 0.71924 0.0
H1139 H 0.1217 0.50293 0.93239 0.0
H1140 H 0.10694 0.5149 0.86787 0.0
H1141 H 0.11239 0.48776 0.86502 0.0
H1142 H 0.11125 0.48175 0.74064 0.0
H1143 H 0.07682 0.4845 0.69153 0.0
H1144 H 0.03091 0.80386 0.32525 0.0
H1145 H 0.03557 0.83591 0.38821 0.0
H1146 H 0.96973 0.8448 0.39045 0.0
H1147 H 0.96506 0.81304 0.32689 0.0
H1148 H 0.01715 0.87703 0.3368 0.0
H1149 H 0.99186 0.85453 0.58639 0.0
H1150 H 1.00231 0.83608 0.52922 0.0
H1151 H 0.97658 0.84558 0.51847 0.0
C1152 C 0.01743 0.81234 0.34087 0.0
C1153 C 0.99761 0.80582 0.32169 0.0
C1154 C 0.0201 0.83074 0.37634 0.0
C1155 C 1.00299 0.84275 0.39428 0.0
C1156 C 0.98315 0.83573 0.37772 0.0
H1157 H 0.98242 0.96056 0.58945 0.0
H1158 H 0.97963 0.92601 0.54137 0.0
C1159 C 0.98049 0.81755 0.34156 0.0
C1160 C 1.0058 0.86339 0.42551 0.0
H1161 H 0.99811 0.89 0.56749 0.0
C1162 C 0.01317 0.87985 0.3874 0.0
C1163 C 1.00026 0.86714 0.49115 0.0
C1164 C 0.9924 0.84994 0.53418 0.0
C1165 C 0.01481 0.90002 0.41272 0.0
C1166 C 1.00955 0.90379 0.47886 0.0
C1167 C 1.00222 0.88723 0.51698 0.0
C1168 C 1.01138 0.92479 0.50906 0.0
C1169 C 0.02146 0.9172 0.36747 0.0
C1170 C 0.03022 0.93564 0.50831 0.0
C1171 C 0.03171 0.95555 0.53473 0.0
C1172 C 0.01446 0.96508 0.56317 0.0
C1173 C 0.99585 0.9539 0.56634 0.0
C1174 C 0.99429 0.93404 0.53937 0.0
H1175 H 0.01853 0.9132 0.31554 0.0
H1176 H 0.01331 0.93182 0.37866 0.0
H1177 H 0.03828 0.91987 0.37323 0.0
H1178 H 0.04382 0.92871 0.48713 0.0
H1179 H 0.04636 0.96361 0.53198 0.0
H1180 H 0.74377 0.03741 0.34233 0.0
H1181 H 0.71479 0.04189 0.41823 0.0
H1182 H 0.68985 0.9831 0.35792 0.0
H1183 H 0.71903 0.97814 0.28535 0.0
H1184 H 0.67567 0.04617 0.39082 0.0
H1185 H 0.68145 0.97749 0.54812 0.0
H1186 H 0.70215 0.98525 0.49462 0.0
H1187 H 0.68108 0.96966 0.46436 0.0
C1188 C 0.73246 0.02516 0.34696 0.0
C1189 C 0.73375 1.00745 0.30748 0.0
C1190 C 0.71575 0.02781 0.38993 0.0
C1191 C 0.70008 1.01274 0.39472 0.0
C1192 C 0.70183 0.99477 0.35687 0.0
H1193 H 0.57072 0.03102 0.47005 0.0
H1194 H 0.60574 0.02911 0.42702 0.0
C1195 C 0.7185 0.99206 0.31456 0.0
C1196 C 0.68102 0.01636 0.43438 0.0
H1197 H 0.6473 0.99246 0.53851 0.0
C1198 C 0.66967 0.03454 0.42392 0.0
C1199 C 0.67318 1.00149 0.47887 0.0
C1200 C 0.68526 0.98252 0.49767 0.0
C1201 C 0.65039 0.03774 0.45381 0.0
C1202 C 0.64173 0.02204 0.49371 0.0
C1203 C 0.65357 1.00437 0.50693 0.0
C1204 C 0.62028 0.02334 0.52054 0.0
C1205 C 0.6396 0.05805 0.44243 0.0
C1206 C 0.61639 0.01984 0.58722 0.0
C1207 C 0.59619 0.02039 0.61174 0.0
C1208 C 0.57938 0.02461 0.57028 0.0
C1209 C 0.58328 0.02791 0.50355 0.0
C1210 C 0.60341 0.02708 0.47894 0.0
H1211 H 0.65087 0.07059 0.43209 0.0
H1212 H 0.62933 0.05664 0.39927 0.0
H1213 H 0.63017 0.0626 0.48522 0.0
H1214 H 0.62901 0.01665 0.62044 0.0
H1215 H 0.59375 0.01728 0.66311 0.0
H1216 H 0.51011 0.74569 0.31298 0.0
H1217 H 0.50475 0.71348 0.37477 0.0
H1218 H 0.5701 0.70165 0.36925 0.0
H1219 H 0.57546 0.7336 0.30729 0.0
H1220 H 0.51742 0.67252 0.3254 0.0
H1221 H 0.55354 0.69128 0.56407 0.0
H1222 H 0.54454 0.71094 0.50829 0.0
H1223 H 0.5685 0.69797 0.49323 0.0
C1224 C 0.52337 0.73651 0.32659 0.0
C1225 C 0.54324 0.74233 0.30576 0.0
C1226 C 0.52029 0.71799 0.36139 0.0
C1227 C 0.53703 0.70511 0.37713 0.0
C1228 C 0.55695 0.71136 0.35856 0.0
H1229 H 0.55733 0.58488 0.55683 0.0
H1230 H 0.56011 0.61924 0.50771 0.0
C1231 C 0.56 0.72966 0.32314 0.0
C1232 C 0.53372 0.6845 0.40872 0.0
H1233 H 0.54545 0.65606 0.54473 0.0
C1234 C 0.52335 0.66897 0.37365 0.0
C1235 C 0.54168 0.67973 0.47132 0.0
C1236 C 0.55257 0.69585 0.51187 0.0
C1237 C 0.52122 0.64875 0.39857 0.0
C1238 C 0.52914 0.64394 0.46141 0.0
C1239 C 0.53933 0.65959 0.4967 0.0
C1240 C 0.52734 0.62276 0.49087 0.0
C1241 C 0.51124 0.63252 0.35603 0.0
C1242 C 0.50801 0.61313 0.49888 0.0
C1243 C 0.50647 0.59322 0.52577 0.0
C1244 C 0.52421 0.58244 0.54592 0.0
C1245 C 0.54345 0.59235 0.53973 0.0
C1246 C 0.54502 0.61218 0.51238 0.0
H1247 H 0.51158 0.63697 0.30364 0.0
H1248 H 0.51901 0.61737 0.36161 0.0
H1249 H 0.49484 0.63068 0.37044 0.0
H1250 H 0.49402 0.62106 0.48465 0.0
H1251 H 0.49134 0.58622 0.5304 0.0
H1252 H 0.80196 0.5094 0.30556 0.0
H1253 H 0.8338 0.50314 0.36808 0.0
H1254 H 0.83764 0.56795 0.41428 0.0
H1255 H 0.80603 0.57422 0.35169 0.0
H1256 H 0.87264 0.52355 0.33523 0.0
H1257 H 0.84958 0.53876 0.59144 0.0
H1258 H 0.83113 0.53227 0.5284 0.0
H1259 H 0.84161 0.55794 0.53317 0.0
C1260 C 0.80921 0.52215 0.33106 0.0
C1261 C 0.80132 0.54225 0.32455 0.0
C1262 C 0.82753 0.51862 0.36617 0.0
C1263 C 0.83811 0.53505 0.39631 0.0
C1264 C 0.82966 0.55496 0.39242 0.0
H1265 H 0.95506 0.55582 0.59483 0.0
H1266 H 0.92058 0.55802 0.54621 0.0
C1267 C 0.81154 0.55853 0.35679 0.0
C1268 C 0.85882 0.53189 0.42683 0.0
H1269 H 0.88552 0.53668 0.57028 0.0
C1270 C 0.87543 0.52619 0.38678 0.0
C1271 C 0.86255 0.5356 0.49388 0.0
C1272 C 0.84528 0.54133 0.53954 0.0
C1273 C 0.89568 0.52463 0.41149 0.0
C1274 C 0.89944 0.52831 0.47871 0.0
C1275 C 0.88275 0.53382 0.51885 0.0
C1276 C 0.92057 0.52686 0.50808 0.0
C1277 C 0.91296 0.51987 0.36466 0.0
C1278 C 0.93213 0.50856 0.50387 0.0
C1279 C 0.95201 0.50741 0.53088 0.0
C1280 C 0.96078 0.52451 0.56299 0.0
C1281 C 0.94898 0.54259 0.56887 0.0
C1282 C 0.92916 0.54378 0.54159 0.0
H1283 H 0.90861 0.52348 0.31342 0.0
H1284 H 0.92712 0.52873 0.37715 0.0
H1285 H 0.91661 0.50317 0.36738 0.0
H1286 H 0.92575 0.49508 0.4799 0.0
H1287 H 0.96062 0.49319 0.52598 0.0
loop_
_geom_bond_atom_site_label_1
_geom_bond_atom_site_label_2
_geom_bond_distance
_geom_bond_site_symmetry_2
_ccdc_geom_bond_type
H0 C3 0.929 . S
H1 C6 0.929 . S
H2 C8 0.930 . S
C3 H0 0.929 . S
C3 C4 1.398 . S
C3 C5 1.396 . S
C4 C3 1.398 . S
C4 C8 1.407 . S
C5 C3 1.396 . S
C5 C6 1.394 . S
C6 H1 0.929 . S
C6 C5 1.394 . S
C6 C7 1.382 . S
C7 C6 1.382 . S
C7 C8 1.392 . S
C7 N9 1.420 . S
C8 H2 0.930 . S
C8 C4 1.407 . S
C8 C7 1.392 . S
N9 C7 1.420 . S
N9 C10 1.244 . S
C10 N9 1.244 . S
H11 C14 0.929 . S
H12 C17 0.929 . S
H13 C19 0.930 . S
C14 H11 0.929 . S
C14 C15 1.398 . S
C14 C16 1.396 . S
C15 C14 1.398 . S
C15 C19 1.407 . S
C16 C14 1.396 . S
C16 C17 1.394 . S
C17 H12 0.929 . S
C17 C16 1.394 . S
C17 C18 1.382 . S
C18 C17 1.382 . S
C18 C19 1.392 . S
C18 N20 1.420 . S
C19 H13 0.930 . S
C19 C15 1.407 . S
C19 C18 1.392 . S
N20 C18 1.420 . S
N20 C21 1.244 . S
C21 N20 1.244 . S
H22 C25 0.929 . S
H23 C28 0.929 . S
H24 C30 0.930 . S
C25 H22 0.929 . S
C25 C26 1.398 . S
C25 C27 1.396 . S
C26 C25 1.398 . S
C26 C30 1.407 . S
C27 C25 1.396 . S
C27 C28 1.394 . S
C28 H23 0.929 . S
C28 C27 1.394 . S
C28 C29 1.382 . S
C29 C28 1.382 . S
C29 C30 1.392 . S
C29 N31 1.420 . S
C30 H24 0.930 . S
C30 C26 1.407 . S
C30 C29 1.392 . S
N31 C29 1.420 . S
N31 C32 1.244 . S
C32 N31 1.244 . S
H33 C36 0.929 . S
H34 C39 0.929 . S
H35 C41 0.930 . S
C36 H33 0.929 . S
C36 C37 1.398 . S
C36 C38 1.396 . S
C37 C36 1.398 . S
C37 C41 1.407 . S
C38 C36 1.396 . S
C38 C39 1.394 . S
C39 H34 0.929 . S
C39 C38 1.394 . S
C39 C40 1.382 . S
C40 C39 1.382 . S
C40 C41 1.392 . S
C40 N42 1.420 . S
C41 H35 0.930 . S
C41 C37 1.407 . S
C41 C40 1.392 . S
N42 C40 1.420 . S
N42 C43 1.244 . S
C43 N42 1.244 . S
H44 C47 0.929 . S
H45 C50 0.929 . S
H46 C52 0.930 . S
C47 H44 0.929 . S
C47 C48 1.398 1_554 S
C47 C49 1.396 . S
C48 C47 1.398 1_556 S
C48 C52 1.407 . S
C49 C47 1.396 . S
C49 C50 1.394 . S
C50 H45 0.929 . S
C50 C49 1.394 . S
C50 C51 1.382 . S
C51 C50 1.382 . S
C51 C52 1.392 1_554 S
C51 N53 1.420 . S
C52 H46 0.930 . S
C52 C48 1.407 . S
C52 C51 1.392 1_556 S
N53 C51 1.420 . S
N53 C54 1.244 . S
C54 N53 1.244 . S
H55 C58 0.929 . S
H56 C61 0.929 . S
H57 C63 0.930 . S
C58 H55 0.929 . S
C58 C59 1.398 1_554 S
C58 C60 1.396 . S
C59 C58 1.398 1_556 S
C59 C63 1.407 . S
C60 C58 1.396 . S
C60 C61 1.394 . S
C61 H56 0.929 . S
C61 C60 1.394 . S
C61 C62 1.382 . S
C62 C61 1.382 . S
C62 C63 1.392 1_554 S
C62 N64 1.420 . S
C63 H57 0.930 . S
C63 C59 1.407 . S
C63 C62 1.392 1_556 S
N64 C62 1.420 . S
N64 C65 1.244 . S
C65 N64 1.244 . S
H66 C69 0.929 . S
H67 C72 0.929 . S
H68 C74 0.930 . S
C69 H66 0.929 . S
C69 C70 1.398 1_554 S
C69 C71 1.396 . S
C70 C69 1.398 1_556 S
C70 C74 1.407 . S
C71 C69 1.396 . S
C71 C72 1.394 . S
C72 H67 0.929 . S
C72 C71 1.394 . S
C72 C73 1.382 . S
C73 C72 1.382 . S
C73 C74 1.392 1_554 S
C73 N75 1.420 . S
C74 H68 0.930 . S
C74 C70 1.407 . S
C74 C73 1.392 1_556 S
N75 C73 1.420 . S
N75 C76 1.244 . S
C76 N75 1.244 . S
H77 C80 0.929 . S
H78 C83 0.929 . S
H79 C85 0.930 . S
C80 H77 0.929 . S
C80 C81 1.398 1_554 S
C80 C82 1.396 . S
C81 C80 1.398 1_556 S
C81 C85 1.407 . S
C82 C80 1.396 . S
C82 C83 1.394 . S
C83 H78 0.929 . S
C83 C82 1.394 . S
C83 C84 1.382 . S
C84 C83 1.382 . S
C84 C85 1.392 1_554 S
C84 N86 1.420 . S
C85 H79 0.930 . S
C85 C81 1.407 . S
C85 C84 1.392 1_556 S
N86 C84 1.420 . S
N86 C87 1.244 . S
C87 N86 1.244 . S
Eu88 N117 2.600 . S
Eu88 N123 2.562 . S
Eu88 O132 2.462 1_655 S
Eu88 O133 2.373 1_545 S
Eu88 O135 2.432 . S
Eu88 O136 2.291 1_655 S
Eu88 O140 2.335 1_655 S
Eu88 O143 2.372 . S
Eu88 C152 2.787 . S
C89 N90 1.365 . S
C89 C92 1.405 . S
C89 C96 1.448 . S
N90 C89 1.365 . S
N90 C93 1.322 . S
N90 Eu99 2.600 1_545 S
C91 C93 1.406 . S
C91 C94 1.367 . S
C91 H111 0.931 . S
C92 C89 1.405 . S
C92 C94 1.403 . S
C92 C98 1.439 . S
C93 N90 1.322 . S
C93 C91 1.406 . S
C93 H104 0.917 1_545 S
C94 C91 1.367 . S
C94 C92 1.403 . S
C94 H115 0.929 . S
C95 C96 1.430 . S
C95 C97 1.387 . S
C95 C101 1.404 . S
C96 C89 1.448 . S
C96 C95 1.430 . S
C96 N100 1.351 . S
C97 C95 1.387 . S
C97 C98 1.374 . S
C97 H112 0.931 . S
C98 C92 1.439 . S
C98 C97 1.374 . S
C98 H113 0.931 . S
Eu99 N90 2.600 1_565 S
Eu99 N100 2.562 1_565 S
Eu99 O134 2.335 . S
Eu99 O137 2.372 . S
Eu99 O138 2.462 . S
Eu99 O139 2.373 1_565 S
Eu99 O141 2.432 . S
Eu99 O142 2.291 1_465 S
Eu99 C163 2.787 . S
N100 C96 1.351 . S
N100 Eu99 2.562 1_545 S
N100 C102 1.325 . S
C101 C95 1.404 . S
C101 C103 1.366 . S
C101 H109 0.930 . S
C102 N100 1.325 . S
C102 C103 1.416 . S
C102 H108 0.929 1_455 S
C103 C101 1.366 . S
C103 C102 1.416 . S
C103 H105 0.930 1_455 S
H104 C93 0.917 1_565 S
H105 C103 0.930 1_655 S
H106 C121 0.930 . S
H107 C128 0.934 . S
H108 C102 0.929 1_655 S
H109 C101 0.930 . S
H110 C124 0.929 . S
H111 C91 0.931 . S
H112 C97 0.931 . S
H113 C98 0.931 . S
H114 C119 0.931 . S
H115 C94 0.929 . S
H116 C127 0.930 . S
N117 Eu88 2.600 . S
N117 C118 1.365 . S
N117 C121 1.319 . S
C118 N117 1.365 . S
C118 C120 1.405 1_545 S
C118 C126 1.448 . S
C119 H114 0.931 . S
C119 C121 1.397 . S
C119 C122 1.388 . S
C120 C118 1.405 1_565 S
C120 C122 1.399 1_565 S
C120 C153 1.439 . S
C121 H106 0.930 . S
C121 N117 1.319 . S
C121 C119 1.397 . S
C122 C119 1.388 . S
C122 C120 1.399 1_545 S
C122 H129 0.916 1_545 S
N123 Eu88 2.562 . S
N123 C124 1.325 1_655 S
N123 C126 1.351 . S
C124 H110 0.929 . S
C124 N123 1.325 1_455 S
C124 C128 1.401 1_545 S
C125 C126 1.430 1_565 S
C125 C127 1.404 . S
C125 C154 1.387 . S
C126 C118 1.448 . S
C126 N123 1.351 . S
C126 C125 1.430 1_545 S
C127 H116 0.930 . S
C127 C125 1.404 . S
C127 C128 1.378 1_655 S
C128 H107 0.934 . S
C128 C124 1.401 1_565 S
C128 C127 1.378 1_455 S
H129 C122 0.916 1_565 S
H130 C153 0.931 . S
H131 C154 0.931 . S
O132 Eu88 2.462 1_455 S
O132 C152 1.252 1_455 S
O133 Eu88 2.373 1_565 S
O133 C144 1.249 . S
O134 Eu99 2.335 . S
O134 C144 1.264 1_455 S
O135 Eu88 2.432 . S
O135 C152 1.268 . S
O136 Eu88 2.291 1_455 S
O136 C151 1.255 . S
O137 Eu99 2.372 . S
O137 C151 1.257 1_565 S
O138 Eu99 2.462 . S
O138 C163 1.252 . S
O139 Eu99 2.373 1_545 S
O139 C155 1.249 . S
O140 Eu88 2.335 1_455 S
O140 C155 1.264 . S
O141 Eu99 2.432 . S
O141 C163 1.268 . S
O142 Eu99 2.291 1_645 S
O142 C162 1.255 . S
O143 Eu88 2.372 . S
O143 C162 1.257 . S
C144 O133 1.249 . S
C144 O134 1.264 1_655 S
C145 C148 1.382 . S
C145 C150 1.390 1_655 S
C145 C152 1.506 . S
C146 C147 1.436 . S
C146 C150 1.388 1_655 S
C147 C146 1.436 . S
C147 C149 1.372 . S
C147 H164 0.931 . S
C148 C145 1.382 . S
C148 C149 1.390 . S
C148 H165 0.931 . S
C149 C147 1.372 . S
C149 C148 1.390 . S
C149 H166 0.929 . S
C150 C145 1.390 1_455 S
C150 C146 1.388 1_455 S
C150 H167 0.930 . S
C151 O136 1.255 . S
C151 O137 1.257 1_545 S
C152 Eu88 2.787 . S
C152 O132 1.252 1_655 S
C152 O135 1.268 . S
C152 C145 1.506 . S
C153 C120 1.439 . S
C153 H130 0.931 . S
C153 C154 1.374 . S
C154 C125 1.387 . S
C154 H131 0.931 . S
C154 C153 1.374 . S
C155 O139 1.249 . S
C155 O140 1.264 . S
C156 C159 1.382 . S
C156 C160 1.390 . S
C156 C163 1.506 . S
C157 C158 1.398 . S
C157 C160 1.392 . S
C158 C157 1.398 . S
C158 C161 1.372 . S
C158 H168 0.931 . S
C159 C156 1.382 . S
C159 C161 1.390 . S
C159 H169 0.931 . S
C160 C156 1.390 . S
C160 C157 1.392 . S
C160 H170 0.930 1_455 S
C161 C158 1.372 . S
C161 C159 1.390 . S
C161 H171 0.929 . S
C162 O142 1.255 . S
C162 O143 1.257 . S
C163 Eu99 2.787 . S
C163 O138 1.252 . S
C163 O141 1.268 . S
C163 C156 1.506 . S
H164 C147 0.931 . S
H165 C148 0.931 . S
H166 C149 0.929 . S
H167 C150 0.930 . S
H168 C158 0.931 . S
H169 C159 0.931 . S
H170 C160 0.930 1_655 S
H171 C161 0.929 . S
Eu172 N201 2.600 . S
Eu172 N207 2.562 . S
Eu172 O216 2.462 . S
Eu172 O217 2.373 . S
Eu172 O219 2.432 . S
Eu172 O220 2.291 . S
Eu172 O224 2.335 1_545 S
Eu172 O227 2.372 . S
Eu172 C236 2.787 . S
C173 N174 1.365 . S
C173 C176 1.405 . S
C173 C180 1.448 . S
N174 C173 1.365 . S
N174 C177 1.319 . S
N174 Eu183 2.600 . S
C175 C177 1.397 . S
C175 C178 1.367 . S
C175 H195 0.931 . S
C176 C173 1.405 . S
C176 C178 1.403 . S
C176 C182 1.439 . S
C177 N174 1.319 . S
C177 C175 1.397 . S
C177 H188 0.930 . S
C178 C175 1.367 . S
C178 C176 1.403 . S
C178 H199 0.929 . S
C179 C180 1.430 . S
C179 C181 1.387 . S
C179 C185 1.404 . S
C180 C173 1.448 . S
C180 C179 1.430 . S
C180 N184 1.351 . S
C181 C179 1.387 . S
C181 C182 1.374 . S
C181 H196 0.931 . S
C182 C176 1.439 . S
C182 C181 1.374 . S
C182 H197 0.931 . S
Eu183 N174 2.600 . S
Eu183 N184 2.562 . S
Eu183 O218 2.335 1_565 S
Eu183 O221 2.372 . S
Eu183 O222 2.467 . S
Eu183 O223 2.373 . S
Eu183 O225 2.432 . S
Eu183 O226 2.291 1_565 S
Eu183 C247 2.787 . S
N184 C180 1.351 . S
N184 Eu183 2.562 . S
N184 C186 1.325 . S
C185 C179 1.404 . S
C185 C187 1.366 . S
C185 H193 0.930 . S
C186 N184 1.325 . S
C186 C187 1.416 . S
C186 H192 0.929 . S
C187 C185 1.366 . S
C187 C186 1.416 . S
C187 H189 0.930 . S
H188 C177 0.930 . S
H189 C187 0.930 . S
H190 C205 0.930 . S
H191 C212 0.930 . S
H192 C186 0.929 . S
H193 C185 0.930 . S
H194 C208 0.929 . S
H195 C175 0.931 . S
H196 C181 0.931 . S
H197 C182 0.931 . S
H198 C203 0.931 . S
H199 C178 0.929 . S
H200 C211 0.930 . S
N201 Eu172 2.600 . S
N201 C202 1.365 . S
N201 C205 1.319 . S
C202 N201 1.365 . S
C202 C204 1.405 . S
C202 C210 1.448 . S
C203 H198 0.931 . S
C203 C205 1.397 . S
C203 C206 1.367 . S
C204 C202 1.405 . S
C204 C206 1.403 . S
C204 C237 1.439 . S
C205 H190 0.930 . S
C205 N201 1.319 . S
C205 C203 1.397 . S
C206 C203 1.367 . S
C206 C204 1.403 . S
C206 H213 0.929 . S
N207 Eu172 2.562 . S
N207 C208 1.325 . S
N207 C210 1.351 . S
C208 H194 0.929 . S
C208 N207 1.325 . S
C208 C212 1.416 . S
C209 C210 1.430 . S
C209 C211 1.404 . S
C209 C238 1.387 . S
C210 C202 1.448 . S
C210 N207 1.351 . S
C210 C209 1.430 . S
C211 H200 0.930 . S
C211 C209 1.404 . S
C211 C212 1.366 . S
C212 H191 0.930 . S
C212 C208 1.416 . S
C212 C211 1.366 . S
H213 C206 0.929 . S
H214 C237 0.931 . S
H215 C238 0.931 . S
O216 Eu172 2.462 . S
O216 C236 1.252 . S
O217 Eu172 2.373 . S
O217 C228 1.249 . S
O218 Eu183 2.335 1_545 S
O218 C228 1.264 . S
O219 Eu172 2.432 . S
O219 C236 1.268 . S
O220 Eu172 2.291 . S
O220 C235 1.255 . S
O221 Eu183 2.372 . S
O221 C235 1.257 1_565 S
O222 Eu183 2.467 . S
O222 C247 1.256 . S
O223 Eu183 2.373 . S
O223 C239 1.249 . S
O224 Eu172 2.335 1_565 S
O224 C239 1.264 . S
O225 Eu183 2.432 . S
O225 C247 1.268 . S
O226 Eu183 2.291 1_545 S
O226 C246 1.255 . S
O227 Eu172 2.372 . S
O227 C246 1.257 . S
C228 O217 1.249 . S
C228 O218 1.264 . S
C229 C232 1.382 . S
C229 C234 1.390 . S
C229 C236 1.506 . S
C230 C231 1.398 . S
C230 C234 1.392 . S
C231 C230 1.398 . S
C231 C233 1.372 . S
C231 H248 0.931 . S
C232 C229 1.382 . S
C232 C233 1.390 . S
C232 H249 0.931 . S
C233 C231 1.372 . S
C233 C232 1.390 . S
C233 H250 0.929 1_556 S
C234 C229 1.390 . S
C234 C230 1.392 . S
C234 H251 0.930 . S
C235 O220 1.255 . S
C235 O221 1.257 1_545 S
C236 Eu172 2.787 . S
C236 O216 1.252 . S
C236 O219 1.268 . S
C236 C229 1.506 . S
C237 C204 1.439 . S
C237 H214 0.931 . S
C237 C238 1.374 . S
C238 C209 1.387 . S
C238 H215 0.931 . S
C238 C237 1.374 . S
C239 O223 1.249 . S
C239 O224 1.264 . S
C240 C243 1.389 . S
C240 C244 1.381 1_565 S
C240 C247 1.510 . S
C241 C242 1.398 . S
C241 C244 1.392 . S
C242 C241 1.398 . S
C242 C245 1.372 1_545 S
C242 H252 0.931 . S
C243 C240 1.389 . S
C243 C245 1.390 . S
C243 H253 0.931 . S
C244 C240 1.381 1_545 S
C244 C241 1.392 . S
C244 H254 0.930 . S
C245 C242 1.372 1_565 S
C245 C243 1.390 . S
C245 H255 0.929 . S
C246 O226 1.255 . S
C246 O227 1.257 . S
C247 Eu183 2.787 . S
C247 O222 1.256 . S
C247 O225 1.268 . S
C247 C240 1.510 . S
H248 C231 0.931 . S
H249 C232 0.931 . S
H250 C233 0.929 1_554 S
H251 C234 0.930 . S
H252 C242 0.931 . S
H253 C243 0.931 . S
H254 C244 0.930 . S
H255 C245 0.929 . S
Eu256 N285 2.600 . S
Eu256 N291 2.562 . S
Eu256 O300 2.462 . S
Eu256 O301 2.373 . S
Eu256 O303 2.432 . S
Eu256 O304 2.291 . S
Eu256 O308 2.335 . S
Eu256 O311 2.372 . S
Eu256 C320 2.787 . S
C257 N258 1.365 . S
C257 C260 1.405 . S
C257 C264 1.448 . S
N258 C257 1.365 . S
N258 C261 1.319 . S
N258 Eu267 2.600 . S
C259 C261 1.397 . S
C259 C262 1.367 . S
C259 H279 0.931 . S
C260 C257 1.405 . S
C260 C262 1.403 . S
C260 C266 1.439 . S
C261 N258 1.319 . S
C261 C259 1.397 . S
C261 H272 0.930 . S
C262 C259 1.367 . S
C262 C260 1.403 . S
C262 H283 0.929 . S
C263 C264 1.430 . S
C263 C265 1.387 . S
C263 C269 1.404 . S
C264 C257 1.448 . S
C264 C263 1.430 . S
C264 N268 1.351 . S
C265 C263 1.387 . S
C265 C266 1.374 . S
C265 H280 0.931 . S
C266 C260 1.439 . S
C266 C265 1.374 . S
C266 H281 0.931 . S
Eu267 N258 2.600 . S
Eu267 N268 2.562 . S
Eu267 O302 2.335 . S
Eu267 O305 2.372 . S
Eu267 O306 2.462 . S
Eu267 O307 2.373 . S
Eu267 O309 2.432 . S
Eu267 O310 2.291 . S
Eu267 C331 2.787 . S
N268 C264 1.351 . S
N268 Eu267 2.562 . S
N268 C270 1.325 . S
C269 C263 1.404 . S
C269 C271 1.366 . S
C269 H277 0.930 . S
C270 N268 1.325 . S
C270 C271 1.416 . S
C270 H276 0.929 . S
C271 C269 1.366 . S
C271 C270 1.416 . S
C271 H273 0.930 . S
H272 C261 0.930 . S
H273 C271 0.930 . S
H274 C289 0.930 . S
H275 C296 0.930 . S
H276 C270 0.929 . S
H277 C269 0.930 . S
H278 C292 0.929 . S
H279 C259 0.931 . S
H280 C265 0.931 . S
H281 C266 0.931 . S
H282 C287 0.931 . S
H283 C262 0.929 . S
H284 C295 0.930 . S
N285 Eu256 2.600 . S
N285 C286 1.365 . S
N285 C289 1.319 . S
C286 N285 1.365 . S
C286 C288 1.405 . S
C286 C294 1.448 . S
C287 H282 0.931 . S
C287 C289 1.397 . S
C287 C290 1.367 . S
C288 C286 1.405 . S
C288 C290 1.403 . S
C288 C321 1.439 . S
C289 H274 0.930 . S
C289 N285 1.319 . S
C289 C287 1.397 . S
C290 C287 1.367 . S
C290 C288 1.403 . S
C290 H297 0.929 . S
N291 Eu256 2.562 . S
N291 C292 1.325 . S
N291 C294 1.351 . S
C292 H278 0.929 . S
C292 N291 1.325 . S
C292 C296 1.416 . S
C293 C294 1.430 . S
C293 C295 1.404 . S
C293 C322 1.387 . S
C294 C286 1.448 . S
C294 N291 1.351 . S
C294 C293 1.430 . S
C295 H284 0.930 . S
C295 C293 1.404 . S
C295 C296 1.366 . S
C296 H275 0.930 . S
C296 C292 1.416 . S
C296 C295 1.366 . S
H297 C290 0.929 . S
H298 C321 0.931 . S
H299 C322 0.931 . S
O300 Eu256 2.462 . S
O300 C320 1.252 . S
O301 Eu256 2.373 . S
O301 C312 1.249 . S
O302 Eu267 2.335 . S
O302 C312 1.264 . S
O303 Eu256 2.432 . S
O303 C320 1.268 . S
O304 Eu256 2.291 . S
O304 C319 1.255 . S
O305 Eu267 2.372 . S
O305 C319 1.257 . S
O306 Eu267 2.462 . S
O306 C331 1.252 . S
O307 Eu267 2.373 . S
O307 C323 1.249 . S
O308 Eu256 2.335 . S
O308 C323 1.264 . S
O309 Eu267 2.432 . S
O309 C331 1.268 . S
O310 Eu267 2.291 . S
O310 C330 1.255 . S
O311 Eu256 2.372 . S
O311 C330 1.257 . S
C312 O301 1.249 . S
C312 O302 1.264 . S
C313 C316 1.382 . S
C313 C318 1.390 . S
C313 C320 1.506 . S
C314 C315 1.398 . S
C314 C318 1.392 . S
C315 C314 1.398 . S
C315 C317 1.372 . S
C315 H332 0.931 . S
C316 C313 1.382 . S
C316 C317 1.390 . S
C316 H333 0.931 . S
C317 C315 1.372 . S
C317 C316 1.390 . S
C317 H334 0.929 . S
C318 C313 1.390 . S
C318 C314 1.392 . S
C318 H335 0.930 . S
C319 O304 1.255 . S
C319 O305 1.257 . S
C320 Eu256 2.787 . S
C320 O300 1.252 . S
C320 O303 1.268 . S
C320 C313 1.506 . S
C321 C288 1.439 . S
C321 H298 0.931 . S
C321 C322 1.374 . S
C322 C293 1.387 . S
C322 H299 0.931 . S
C322 C321 1.374 . S
C323 O307 1.249 . S
C323 O308 1.264 . S
C324 C327 1.382 . S
C324 C328 1.390 . S
C324 C331 1.506 . S
C325 C326 1.398 . S
C325 C328 1.392 . S
C326 C325 1.398 . S
C326 C329 1.372 . S
C326 H336 0.931 . S
C327 C324 1.382 . S
C327 C329 1.390 . S
C327 H337 0.931 . S
C328 C324 1.390 . S
C328 C325 1.392 . S
C328 H338 0.930 . S
C329 C326 1.372 . S
C329 C327 1.390 . S
C329 H339 0.929 . S
C330 O310 1.255 . S
C330 O311 1.257 . S
C331 Eu267 2.787 . S
C331 O306 1.252 . S
C331 O309 1.268 . S
C331 C324 1.506 . S
H332 C315 0.931 . S
H333 C316 0.931 . S
H334 C317 0.929 . S
H335 C318 0.930 . S
H336 C326 0.931 . S
H337 C327 0.931 . S
H338 C328 0.930 . S
H339 C329 0.929 . S
Eu340 N369 2.600 . S
Eu340 N375 2.562 . S
Eu340 O384 2.462 . S
Eu340 O385 2.373 1_455 S
Eu340 O387 2.432 . S
Eu340 O388 2.291 . S
Eu340 O392 2.335 . S
Eu340 O395 2.372 . S
Eu340 C404 2.787 . S
C341 N342 1.360 1_455 S
C341 C344 1.405 . S
C341 C348 1.448 . S
N342 C341 1.360 1_655 S
N342 C345 1.320 . S
N342 Eu351 2.603 . S
C343 C345 1.397 1_455 S
C343 C346 1.367 . S
C343 H363 0.931 . S
C344 C341 1.405 . S
C344 C346 1.403 . S
C344 C350 1.439 . S
C345 N342 1.320 . S
C345 C343 1.397 1_655 S
C345 H356 0.930 . S
C346 C343 1.367 . S
C346 C344 1.403 . S
C346 H367 0.929 . S
C347 C348 1.430 . S
C347 C349 1.387 . S
C347 C353 1.404 . S
C348 C341 1.448 . S
C348 C347 1.430 . S
C348 N352 1.351 . S
C349 C347 1.387 . S
C349 C350 1.374 . S
C349 H364 0.931 . S
C350 C344 1.439 . S
C350 C349 1.374 . S
C350 H365 0.931 . S
Eu351 N342 2.603 . S
Eu351 N352 2.562 1_655 S
Eu351 O386 2.335 . S
Eu351 O389 2.372 . S
Eu351 O390 2.462 . S
Eu351 O391 2.373 1_655 S
Eu351 O393 2.432 . S
Eu351 O394 2.291 1_655 S
Eu351 C415 2.787 . S
N352 C348 1.351 . S
N352 Eu351 2.562 1_455 S
N352 C354 1.325 . S
C353 C347 1.404 . S
C353 C355 1.366 . S
C353 H361 0.930 . S
C354 N352 1.325 . S
C354 C355 1.416 . S
C354 H360 0.949 . S
C355 C353 1.366 . S
C355 C354 1.416 . S
C355 H357 0.930 . S
H356 C345 0.930 . S
H357 C355 0.930 . S
H358 C373 0.930 . S
H359 C380 0.930 . S
H360 C354 0.949 . S
H361 C353 0.930 . S
H362 C376 0.929 . S
H363 C343 0.931 . S
H364 C349 0.931 . S
H365 C350 0.931 . S
H366 C371 0.931 . S
H367 C346 0.929 . S
H368 C379 0.930 . S
N369 Eu340 2.600 . S
N369 C370 1.365 . S
N369 C373 1.319 . S
C370 N369 1.365 . S
C370 C372 1.405 1_455 S
C370 C378 1.448 . S
C371 H366 0.931 . S
C371 C373 1.397 . S
C371 C374 1.356 1_455 S
C372 C370 1.405 1_655 S
C372 C374 1.407 . S
C372 C405 1.439 . S
C373 H358 0.930 . S
C373 N369 1.319 . S
C373 C371 1.397 . S
C374 C371 1.356 1_655 S
C374 C372 1.407 . S
C374 H381 0.938 . S
N375 Eu340 2.562 . S
N375 C376 1.325 . S
N375 C378 1.351 . S
C376 H362 0.929 . S
C376 N375 1.325 . S
C376 C380 1.416 1_455 S
C377 C378 1.430 1_655 S
C377 C379 1.404 . S
C377 C406 1.387 . S
C378 C370 1.448 . S
C378 N375 1.351 . S
C378 C377 1.430 1_455 S
C379 H368 0.930 . S
C379 C377 1.404 . S
C379 C380 1.366 . S
C380 H359 0.930 . S
C380 C376 1.416 1_655 S
C380 C379 1.366 . S
H381 C374 0.938 . S
H382 C405 0.931 . S
H383 C406 0.931 . S
O384 Eu340 2.462 . S
O384 C404 1.252 . S
O385 Eu340 2.373 1_655 S
O385 C396 1.249 . S
O386 Eu351 2.335 . S
O386 C396 1.264 . S
O387 Eu340 2.432 . S
O387 C404 1.268 . S
O388 Eu340 2.291 . S
O388 C403 1.255 . S
O389 Eu351 2.372 . S
O389 C403 1.257 1_655 S
O390 Eu351 2.462 . S
O390 C415 1.252 . S
O391 Eu351 2.373 1_455 S
O391 C407 1.249 . S
O392 Eu340 2.335 . S
O392 C407 1.264 . S
O393 Eu351 2.432 . S
O393 C415 1.268 . S
O394 Eu351 2.291 1_455 S
O394 C414 1.255 . S
O395 Eu340 2.372 . S
O395 C414 1.257 . S
C396 O385 1.249 . S
C396 O386 1.264 . S
C397 C400 1.382 . S
C397 C402 1.390 . S
C397 C404 1.506 . S
C398 C399 1.398 . S
C398 C402 1.392 . S
C399 C398 1.398 . S
C399 C401 1.372 . S
C399 H416 0.931 . S
C400 C397 1.382 . S
C400 C401 1.390 . S
C400 H417 0.931 . S
C401 C399 1.372 . S
C401 C400 1.390 . S
C401 H418 0.929 . S
C402 C397 1.390 . S
C402 C398 1.392 . S
C402 H419 0.930 . S
C403 O388 1.255 . S
C403 O389 1.257 1_455 S
C404 Eu340 2.787 . S
C404 O384 1.252 . S
C404 O387 1.268 . S
C404 C397 1.506 . S
C405 C372 1.439 . S
C405 H382 0.931 . S
C405 C406 1.374 . S
C406 C377 1.387 . S
C406 H383 0.931 . S
C406 C405 1.374 . S
C407 O391 1.249 . S
C407 O392 1.264 . S
C408 C411 1.382 . S
C408 C412 1.390 . S
C408 C415 1.506 . S
C409 C410 1.398 . S
C409 C412 1.392 . S
C410 C409 1.398 . S
C410 C413 1.372 . S
C410 H420 0.931 . S
C411 C408 1.382 . S
C411 C413 1.390 . S
C411 H421 0.931 . S
C412 C408 1.390 . S
C412 C409 1.392 . S
C412 H422 0.930 . S
C413 C410 1.372 . S
C413 C411 1.390 . S
C413 H423 0.929 . S
C414 O394 1.255 . S
C414 O395 1.257 . S
C415 Eu351 2.787 . S
C415 O390 1.252 . S
C415 O393 1.268 . S
C415 C408 1.506 . S
H416 C399 0.931 . S
H417 C400 0.931 . S
H418 C401 0.929 . S
H419 C402 0.930 . S
H420 C410 0.931 . S
H421 C411 0.931 . S
H422 C412 0.930 . S
H423 C413 0.929 . S
H424 C432 0.929 . S
H425 C434 0.930 . S
H426 C436 0.930 . S
H427 C439 0.929 . S
H428 C442 0.930 . S
H429 C444 0.960 . S
H430 C444 0.960 . S
H431 C444 0.960 . S
C432 H424 0.929 . S
C432 C433 1.377 . S
C432 C434 1.384 . S
C433 C432 1.377 . S
C433 C439 1.390 . S
C434 H425 0.930 . S
C434 C432 1.384 . S
C434 C435 1.372 . S
C435 C434 1.372 . S
C435 C436 1.400 . S
C435 C440 1.490 . S
C436 H426 0.930 . S
C436 C435 1.400 . S
C436 C439 1.386 . S
H437 C453 0.930 1_565 S
H438 C454 0.931 1_565 S
C439 H427 0.929 . S
C439 C433 1.390 . S
C439 C436 1.386 . S
C440 C435 1.490 . S
C440 C442 1.395 . S
C440 C443 1.403 . S
H441 C447 0.930 . S
C442 H428 0.930 . S
C442 C440 1.395 . S
C442 C445 1.403 . S
C443 C440 1.403 . S
C443 C444 1.524 . S
C443 C447 1.400 . S
C444 H429 0.960 . S
C444 H430 0.960 . S
C444 H431 0.960 . S
C444 C443 1.524 . S
C445 C442 1.403 . S
C445 C446 1.392 . S
C445 C449 1.495 . S
C446 C445 1.392 . S
C446 C447 1.385 . S
C446 C448 1.478 . S
C447 H441 0.930 . S
C447 C443 1.400 . S
C447 C446 1.385 . S
C448 C446 1.478 . S
C448 C450 1.381 . S
C448 C454 1.383 . S
C449 C445 1.495 . S
C449 H455 0.959 . S
C449 H456 0.961 . S
C449 H457 0.960 . S
C450 C448 1.381 . S
C450 C451 1.394 . S
C450 H458 0.930 . S
C451 C450 1.394 . S
C451 C452 1.383 . S
C451 H459 0.929 . S
C452 C451 1.383 . S
C452 C453 1.377 . S
C453 H437 0.930 1_545 S
C453 C452 1.377 . S
C453 C454 1.379 . S
C454 H438 0.931 1_545 S
C454 C448 1.383 . S
C454 C453 1.379 . S
H455 C449 0.959 . S
H456 C449 0.961 . S
H457 C449 0.960 . S
H458 C450 0.930 . S
H459 C451 0.929 . S
H460 C468 0.929 . S
H461 C470 0.930 . S
H462 C472 0.930 . S
H463 C475 0.929 . S
H464 C478 0.930 . S
H465 C480 0.960 . S
H466 C480 0.960 . S
H467 C480 0.960 . S
C468 H460 0.929 . S
C468 C469 1.377 . S
C468 C470 1.384 . S
C469 C468 1.377 . S
C469 C475 1.390 . S
C470 H461 0.930 . S
C470 C468 1.384 . S
C470 C471 1.372 . S
C471 C470 1.372 . S
C471 C472 1.400 . S
C471 C476 1.490 . S
C472 H462 0.930 . S
C472 C471 1.400 . S
C472 C475 1.386 . S
H473 C489 0.930 . S
H474 C490 0.931 . S
C475 H463 0.929 . S
C475 C469 1.390 . S
C475 C472 1.386 . S
C476 C471 1.490 . S
C476 C478 1.395 . S
C476 C479 1.403 . S
H477 C483 0.930 . S
C478 H464 0.930 . S
C478 C476 1.395 . S
C478 C481 1.403 . S
C479 C476 1.403 . S
C479 C480 1.524 . S
C479 C483 1.400 . S
C480 H465 0.960 . S
C480 H466 0.960 . S
C480 H467 0.960 . S
C480 C479 1.524 . S
C481 C478 1.403 . S
C481 C482 1.392 . S
C481 C485 1.495 . S
C482 C481 1.392 . S
C482 C483 1.385 . S
C482 C484 1.478 . S
C483 H477 0.930 . S
C483 C479 1.400 . S
C483 C482 1.385 . S
C484 C482 1.478 . S
C484 C486 1.381 . S
C484 C490 1.383 . S
C485 C481 1.495 . S
C485 H491 0.959 . S
C485 H492 0.961 . S
C485 H493 0.960 . S
C486 C484 1.381 . S
C486 C487 1.394 . S
C486 H494 0.930 . S
C487 C486 1.394 . S
C487 C488 1.383 . S
C487 H495 0.929 . S
C488 C487 1.383 . S
C488 C489 1.377 . S
C489 H473 0.930 . S
C489 C488 1.377 . S
C489 C490 1.379 . S
C490 H474 0.931 . S
C490 C484 1.383 . S
C490 C489 1.379 . S
H491 C485 0.959 . S
H492 C485 0.961 . S
H493 C485 0.960 . S
H494 C486 0.930 . S
H495 C487 0.929 . S
H496 C504 0.929 . S
H497 C506 0.930 . S
H498 C508 0.930 . S
H499 C511 0.929 . S
H500 C514 0.930 . S
H501 C516 0.960 . S
H502 C516 0.960 . S
H503 C516 0.960 . S
C504 H496 0.929 . S
C504 C505 1.377 . S
C504 C506 1.384 . S
C505 C504 1.377 . S
C505 C511 1.390 . S
C506 H497 0.930 . S
C506 C504 1.384 . S
C506 C507 1.372 . S
C507 C506 1.372 . S
C507 C508 1.400 . S
C507 C512 1.490 . S
C508 H498 0.930 . S
C508 C507 1.400 . S
C508 C511 1.386 . S
H509 C525 0.930 . S
H510 C526 0.931 . S
C511 H499 0.929 . S
C511 C505 1.390 . S
C511 C508 1.386 . S
C512 C507 1.490 . S
C512 C514 1.395 . S
C512 C515 1.403 . S
H513 C519 0.930 . S
C514 H500 0.930 . S
C514 C512 1.395 . S
C514 C517 1.403 . S
C515 C512 1.403 . S
C515 C516 1.524 . S
C515 C519 1.400 . S
C516 H501 0.960 . S
C516 H502 0.960 . S
C516 H503 0.960 . S
C516 C515 1.524 . S
C517 C514 1.403 . S
C517 C518 1.392 . S
C517 C521 1.495 . S
C518 C517 1.392 . S
C518 C519 1.385 . S
C518 C520 1.478 . S
C519 H513 0.930 . S
C519 C515 1.400 . S
C519 C518 1.385 . S
C520 C518 1.478 . S
C520 C522 1.381 . S
C520 C526 1.383 . S
C521 C517 1.495 . S
C521 H527 0.959 . S
C521 H528 0.961 . S
C521 H529 0.960 . S
C522 C520 1.381 . S
C522 C523 1.394 . S
C522 H530 0.930 . S
C523 C522 1.394 . S
C523 C524 1.383 . S
C523 H531 0.929 . S
C524 C523 1.383 . S
C524 C525 1.377 . S
C525 H509 0.930 . S
C525 C524 1.377 . S
C525 C526 1.379 . S
C526 H510 0.931 . S
C526 C520 1.383 . S
C526 C525 1.379 . S
H527 C521 0.959 . S
H528 C521 0.961 . S
H529 C521 0.960 . S
H530 C522 0.930 . S
H531 C523 0.929 . S
H532 C540 0.929 . S
H533 C542 0.930 . S
H534 C544 0.930 . S
H535 C547 0.929 . S
H536 C550 0.930 . S
H537 C552 0.960 . S
H538 C552 0.960 . S
H539 C552 0.960 . S
C540 H532 0.929 . S
C540 C541 1.377 . S
C540 C542 1.384 . S
C541 C540 1.377 . S
C541 C547 1.390 . S
C542 H533 0.930 . S
C542 C540 1.384 . S
C542 C543 1.372 . S
C543 C542 1.372 . S
C543 C544 1.400 . S
C543 C548 1.490 . S
C544 H534 0.930 . S
C544 C543 1.400 . S
C544 C547 1.386 . S
H545 C561 0.930 . S
H546 C562 0.931 . S
C547 H535 0.929 . S
C547 C541 1.390 . S
C547 C544 1.386 . S
C548 C543 1.490 . S
C548 C550 1.395 . S
C548 C551 1.403 . S
H549 C555 0.930 1_655 S
C550 H536 0.930 . S
C550 C548 1.395 . S
C550 C553 1.403 . S
C551 C548 1.403 . S
C551 C552 1.524 1_455 S
C551 C555 1.400 . S
C552 H537 0.960 . S
C552 H538 0.960 . S
C552 H539 0.960 . S
C552 C551 1.524 1_655 S
C553 C550 1.403 . S
C553 C554 1.392 . S
C553 C557 1.495 . S
C554 C553 1.392 . S
C554 C555 1.385 . S
C554 C556 1.478 . S
C555 H549 0.930 1_455 S
C555 C551 1.400 . S
C555 C554 1.385 . S
C556 C554 1.478 . S
C556 C558 1.381 . S
C556 C562 1.383 . S
C557 C553 1.495 . S
C557 H563 0.959 . S
C557 H564 0.961 . S
C557 H565 0.960 . S
C558 C556 1.381 . S
C558 C559 1.394 . S
C558 H566 0.930 . S
C559 C558 1.394 . S
C559 C560 1.383 . S
C559 H567 0.929 . S
C560 C559 1.383 . S
C560 C561 1.377 . S
C561 H545 0.930 . S
C561 C560 1.377 . S
C561 C562 1.379 . S
C562 H546 0.931 . S
C562 C556 1.383 . S
C562 C561 1.379 . S
H563 C557 0.959 . S
H564 C557 0.961 . S
H565 C557 0.960 . S
H566 C558 0.930 . S
H567 C559 0.929 . S
H568 C576 0.929 1_545 S
H569 C578 0.930 1_545 S
H570 C580 0.930 . S
H571 C583 0.929 . S
H572 C586 0.930 . S
H573 C588 0.960 . S
H574 C588 0.916 1_545 S
H575 C588 0.960 . S
C576 H568 0.929 1_565 S
C576 C577 1.377 . S
C576 C578 1.384 . S
C577 C576 1.377 . S
C577 C583 1.390 . S
C578 H569 0.930 1_565 S
C578 C576 1.384 . S
C578 C579 1.372 . S
C579 C578 1.372 . S
C579 C580 1.400 . S
C579 C584 1.490 . S
C580 H570 0.930 . S
C580 C579 1.400 . S
C580 C583 1.386 . S
H581 C597 0.930 . S
H582 C598 0.931 . S
C583 H571 0.929 . S
C583 C577 1.390 . S
C583 C580 1.386 . S
C584 C579 1.490 . S
C584 C586 1.395 . S
C584 C587 1.403 1_554 S
H585 C591 0.930 . S
C586 H572 0.930 . S
C586 C584 1.395 . S
C586 C589 1.403 1_554 S
C587 C584 1.403 1_556 S
C587 C588 1.524 . S
C587 C591 1.400 . S
C588 H573 0.960 . S
C588 H574 0.916 1_565 S
C588 H575 0.960 . S
C588 C587 1.524 . S
C589 C586 1.403 1_556 S
C589 C590 1.392 . S
C589 C593 1.495 1_556 S
C590 C589 1.392 . S
C590 C591 1.385 . S
C590 C592 1.478 . S
C591 H585 0.930 . S
C591 C587 1.400 . S
C591 C590 1.385 . S
C592 C590 1.478 . S
C592 C594 1.381 1_565 S
C592 C598 1.383 . S
C593 C589 1.495 1_554 S
C593 H599 0.959 . S
C593 H600 0.961 1_554 S
C593 H601 0.960 1_564 S
C594 C592 1.381 1_545 S
C594 C595 1.394 . S
C594 H602 0.930 . S
C595 C594 1.394 . S
C595 C596 1.384 . S
C595 H603 0.929 . S
C596 C595 1.384 . S
C596 C597 1.376 1_545 S
C597 H581 0.930 . S
C597 C596 1.376 1_565 S
C597 C598 1.379 . S
C598 H582 0.931 . S
C598 C592 1.383 . S
C598 C597 1.379 . S
H599 C593 0.959 . S
H600 C593 0.961 1_556 S
H601 C593 0.960 1_546 S
H602 C594 0.930 . S
H603 C595 0.929 . S
H604 C612 0.929 . S
H605 C614 0.930 . S
H606 C616 0.930 1_556 S
H607 C619 0.929 . S
H608 C622 0.930 1_554 S
H609 C624 0.960 . S
H610 C624 0.960 1_554 S
H611 C624 0.960 . S
C612 H604 0.929 . S
C612 C613 1.377 . S
C612 C614 1.384 . S
C613 C612 1.377 . S
C613 C619 1.390 . S
C614 H605 0.930 . S
C614 C612 1.384 . S
C614 C615 1.372 . S
C615 C614 1.372 . S
C615 C616 1.400 . S
C615 C620 1.490 . S
C616 H606 0.930 1_554 S
C616 C615 1.400 . S
C616 C619 1.386 . S
H617 C633 0.930 . S
H618 C634 0.931 . S
C619 H607 0.929 . S
C619 C613 1.390 . S
C619 C616 1.386 . S
C620 C615 1.490 . S
C620 C622 1.395 1_554 S
C620 C623 1.403 1_554 S
H621 C627 0.930 . S
C622 H608 0.930 1_556 S
C622 C620 1.395 1_556 S
C622 C625 1.403 . S
C623 C620 1.403 1_556 S
C623 C624 1.524 . S
C623 C627 1.400 . S
C624 H609 0.960 . S
C624 H610 0.960 1_556 S
C624 H611 0.960 . S
C624 C623 1.524 . S
C625 C622 1.403 . S
C625 C626 1.392 . S
C625 C629 1.495 . S
C626 C625 1.392 . S
C626 C627 1.385 . S
C626 C628 1.478 . S
C627 H621 0.930 . S
C627 C623 1.400 . S
C627 C626 1.385 . S
C628 C626 1.478 . S
C628 C630 1.381 . S
C628 C634 1.383 . S
C629 C625 1.495 . S
C629 H635 0.959 . S
C629 H636 0.961 . S
C629 H637 0.960 . S
C630 C628 1.381 . S
C630 C631 1.394 . S
C630 H638 0.930 . S
C631 C630 1.394 . S
C631 C632 1.383 . S
C631 H639 0.929 . S
C632 C631 1.383 . S
C632 C633 1.377 . S
C633 H617 0.930 . S
C633 C632 1.377 . S
C633 C634 1.379 . S
C634 H618 0.931 . S
C634 C628 1.383 . S
C634 C633 1.379 . S
H635 C629 0.959 . S
H636 C629 0.961 . S
H637 C629 0.960 . S
H638 C630 0.930 . S
H639 C631 0.929 . S
H640 C648 0.929 . S
H641 C650 0.930 . S
H642 C652 0.930 . S
H643 C655 0.929 . S
H644 C658 0.930 . S
H645 C660 0.960 . S
H646 C660 0.960 . S
H647 C660 0.960 . S
C648 H640 0.929 . S
C648 C649 1.377 . S
C648 C650 1.384 . S
C649 C648 1.377 . S
C649 C655 1.390 . S
C650 H641 0.930 . S
C650 C648 1.384 . S
C650 C651 1.372 . S
C651 C650 1.372 . S
C651 C652 1.400 . S
C651 C656 1.490 1_554 S
C652 H642 0.930 . S
C652 C651 1.400 . S
C652 C655 1.386 . S
H653 C669 0.930 . S
H654 C670 0.931 . S
C655 H643 0.929 . S
C655 C649 1.390 . S
C655 C652 1.386 . S
C656 C651 1.490 1_556 S
C656 C658 1.395 . S
C656 C659 1.403 1_556 S
H657 C663 0.930 . S
C658 H644 0.930 . S
C658 C656 1.395 . S
C658 C661 1.403 . S
C659 C656 1.403 1_554 S
C659 C660 1.524 . S
C659 C663 1.400 1_554 S
C660 H645 0.960 . S
C660 H646 0.960 . S
C660 H647 0.960 . S
C660 C659 1.524 . S
C661 C658 1.403 . S
C661 C662 1.392 . S
C661 C665 1.495 . S
C662 C661 1.392 . S
C662 C663 1.385 . S
C662 C664 1.478 . S
C663 H657 0.930 . S
C663 C659 1.400 1_556 S
C663 C662 1.385 . S
C664 C662 1.478 . S
C664 C666 1.381 . S
C664 C670 1.383 . S
C665 C661 1.495 . S
C665 H671 0.959 . S
C665 H672 0.961 . S
C665 H673 0.960 . S
C666 C664 1.381 . S
C666 C667 1.394 . S
C666 H674 0.930 . S
C667 C666 1.394 . S
C667 C668 1.383 . S
C667 H675 0.929 . S
C668 C667 1.383 . S
C668 C669 1.377 . S
C669 H653 0.930 . S
C669 C668 1.377 . S
C669 C670 1.379 . S
C670 H654 0.931 . S
C670 C664 1.383 . S
C670 C669 1.379 . S
H671 C665 0.959 . S
H672 C665 0.961 . S
H673 C665 0.960 . S
H674 C666 0.930 . S
H675 C667 0.929 . S
H676 C684 0.929 1_455 S
H677 C686 0.930 1_455 S
H678 C688 0.930 . S
H679 C691 0.929 . S
H680 C694 0.930 1_455 S
H681 C696 0.960 . S
H682 C696 0.960 . S
H683 C696 0.960 . S
C684 H676 0.929 1_655 S
C684 C685 1.377 . S
C684 C686 1.384 . S
C685 C684 1.377 . S
C685 C691 1.390 . S
C686 H677 0.930 1_655 S
C686 C684 1.384 . S
C686 C687 1.372 . S
C687 C686 1.372 . S
C687 C688 1.400 . S
C687 C692 1.487 1_554 S
C688 H678 0.930 . S
C688 C687 1.400 . S
C688 C691 1.386 . S
H689 C705 0.930 . S
H690 C706 0.931 . S
C691 H679 0.929 . S
C691 C685 1.390 . S
C691 C688 1.386 . S
C692 C687 1.487 1_556 S
C692 C694 1.393 1_556 S
C692 C695 1.407 . S
H693 C699 0.930 . S
C694 H680 0.930 1_655 S
C694 C692 1.393 1_554 S
C694 C697 1.401 1_654 S
C695 C692 1.407 . S
C695 C696 1.524 . S
C695 C699 1.400 . S
C696 H681 0.960 . S
C696 H682 0.960 . S
C696 H683 0.960 . S
C696 C695 1.524 . S
C697 C694 1.401 1_456 S
C697 C698 1.387 1_455 S
C697 C701 1.503 . S
C698 C697 1.387 1_655 S
C698 C699 1.385 . S
C698 C700 1.478 . S
C699 H693 0.930 . S
C699 C695 1.400 . S
C699 C698 1.385 . S
C700 C698 1.478 . S
C700 C702 1.381 1_655 S
C700 C706 1.383 . S
C701 C697 1.503 . S
C701 H707 0.959 1_556 S
C701 H708 0.961 . S
C701 H709 0.960 . S
C702 C700 1.381 1_455 S
C702 C703 1.394 . S
C702 H710 0.930 . S
C703 C702 1.394 . S
C703 C704 1.337 1_455 S
C703 H711 0.929 . S
C704 C703 1.337 1_655 S
C704 C705 1.429 . S
C705 H689 0.930 . S
C705 C704 1.429 . S
C705 C706 1.379 . S
C706 H690 0.931 . S
C706 C700 1.383 . S
C706 C705 1.379 . S
H707 C701 0.959 1_554 S
H708 C701 0.961 . S
H709 C701 0.960 . S
H710 C702 0.930 . S
H711 C703 0.929 . S
H712 C720 0.929 . S
H713 C722 0.930 . S
H714 C724 0.930 . S
H715 C727 0.929 . S
H716 C730 0.930 . S
H717 C732 0.960 . S
H718 C732 0.960 . S
H719 C732 0.960 . S
C720 H712 0.929 . S
C720 C721 1.377 . S
C720 C722 1.384 . S
C721 C720 1.377 . S
C721 C727 1.390 . S
C722 H713 0.930 . S
C722 C720 1.384 . S
C722 C723 1.372 . S
C723 C722 1.372 . S
C723 C724 1.400 . S
C723 C728 1.490 . S
C724 H714 0.930 . S
C724 C723 1.400 . S
C724 C727 1.386 . S
H725 C741 0.930 . S
H726 C742 0.931 . S
C727 H715 0.929 . S
C727 C721 1.390 . S
C727 C724 1.386 . S
C728 C723 1.490 . S
C728 C730 1.395 . S
C728 C731 1.403 . S
H729 C735 0.930 1_655 S
C730 H716 0.930 . S
C730 C728 1.395 . S
C730 C733 1.403 . S
C731 C728 1.403 . S
C731 C732 1.524 1_455 S
C731 C735 1.400 . S
C732 H717 0.960 . S
C732 H718 0.960 . S
C732 H719 0.960 . S
C732 C731 1.524 1_655 S
C733 C730 1.403 . S
C733 C734 1.392 . S
C733 C737 1.495 . S
C734 C733 1.392 . S
C734 C735 1.385 . S
C734 C736 1.478 . S
C735 H729 0.930 1_455 S
C735 C731 1.400 . S
C735 C734 1.385 . S
C736 C734 1.478 . S
C736 C738 1.381 . S
C736 C742 1.383 . S
C737 C733 1.495 . S
C737 H743 0.959 . S
C737 H744 0.961 . S
C737 H745 0.960 . S
C738 C736 1.381 . S
C738 C739 1.394 . S
C738 H746 0.930 . S
C739 C738 1.394 . S
C739 C740 1.383 . S
C739 H747 0.929 . S
C740 C739 1.383 . S
C740 C741 1.377 . S
C741 H725 0.930 . S
C741 C740 1.377 . S
C741 C742 1.379 . S
C742 H726 0.931 . S
C742 C736 1.383 . S
C742 C741 1.379 . S
H743 C737 0.959 . S
H744 C737 0.961 . S
H745 C737 0.960 . S
H746 C738 0.930 . S
H747 C739 0.929 . S
H748 C756 0.929 . S
H749 C758 0.930 . S
H750 C760 0.930 . S
H751 C763 0.929 . S
H752 C766 0.936 . S
H753 C768 0.960 . S
H754 C768 0.960 . S
H755 C768 0.960 . S
C756 H748 0.929 . S
C756 C757 1.377 . S
C756 C758 1.384 . S
C757 C756 1.377 . S
C757 C763 1.390 . S
C758 H749 0.930 . S
C758 C756 1.384 . S
C758 C759 1.372 . S
C759 C758 1.372 . S
C759 C760 1.400 . S
C759 C764 1.490 . S
C760 H750 0.930 . S
C760 C759 1.400 . S
C760 C763 1.386 . S
H761 C777 0.930 . S
H762 C778 0.931 . S
C763 H751 0.929 . S
C763 C757 1.390 . S
C763 C760 1.386 . S
C764 C759 1.490 . S
C764 C766 1.395 . S
C764 C767 1.403 . S
H765 C771 0.930 . S
C766 H752 0.936 . S
C766 C764 1.395 . S
C766 C769 1.403 . S
C767 C764 1.403 . S
C767 C768 1.524 . S
C767 C771 1.400 . S
C768 H753 0.960 . S
C768 H754 0.960 . S
C768 H755 0.960 . S
C768 C767 1.524 . S
C769 C766 1.403 . S
C769 C770 1.392 . S
C769 C773 1.495 1_545 S
C770 C769 1.392 . S
C770 C771 1.385 . S
C770 C772 1.478 . S
C771 H765 0.930 . S
C771 C767 1.400 . S
C771 C770 1.385 . S
C772 C770 1.478 . S
C772 C774 1.381 . S
C772 C778 1.383 . S
C773 C769 1.495 1_565 S
C773 H779 0.959 . S
C773 H780 0.961 . S
C773 H781 0.960 . S
C774 C772 1.381 . S
C774 C775 1.394 . S
C774 H782 0.930 . S
C775 C774 1.394 . S
C775 C776 1.383 . S
C775 H783 0.929 . S
C776 C775 1.383 . S
C776 C777 1.377 . S
C777 H761 0.930 . S
C777 C776 1.377 . S
C777 C778 1.379 . S
C778 H762 0.931 . S
C778 C772 1.383 . S
C778 C777 1.379 . S
H779 C773 0.959 . S
H780 C773 0.961 . S
H781 C773 0.960 . S
H782 C774 0.930 . S
H783 C775 0.929 . S
H784 C792 0.929 . S
H785 C794 0.930 . S
H786 C796 0.930 . S
H787 C799 0.929 . S
H788 C802 0.930 . S
H789 C804 0.960 . S
H790 C804 0.960 . S
H791 C804 0.960 . S
C792 H784 0.929 . S
C792 C793 1.377 . S
C792 C794 1.384 . S
C793 C792 1.377 . S
C793 C799 1.390 . S
C794 H785 0.930 . S
C794 C792 1.384 . S
C794 C795 1.372 . S
C795 C794 1.372 . S
C795 C796 1.400 . S
C795 C800 1.490 . S
C796 H786 0.930 . S
C796 C795 1.400 . S
C796 C799 1.386 . S
H797 C813 0.930 . S
H798 C814 0.931 . S
C799 H787 0.929 . S
C799 C793 1.390 . S
C799 C796 1.386 . S
C800 C795 1.490 . S
C800 C802 1.395 . S
C800 C803 1.403 . S
H801 C807 0.930 . S
C802 H788 0.930 . S
C802 C800 1.395 . S
C802 C805 1.403 . S
C803 C800 1.403 . S
C803 C804 1.524 . S
C803 C807 1.400 . S
C804 H789 0.960 . S
C804 H790 0.960 . S
C804 H791 0.960 . S
C804 C803 1.524 . S
C805 C802 1.403 . S
C805 C806 1.392 . S
C805 C809 1.495 . S
C806 C805 1.392 . S
C806 C807 1.385 . S
C806 C808 1.478 . S
C807 H801 0.930 . S
C807 C803 1.400 . S
C807 C806 1.385 . S
C808 C806 1.478 . S
C808 C810 1.381 . S
C808 C814 1.383 . S
C809 C805 1.495 . S
C809 H815 0.959 . S
C809 H816 0.961 . S
C809 H817 0.960 . S
C810 C808 1.381 . S
C810 C811 1.394 . S
C810 H818 0.930 . S
C811 C810 1.394 . S
C811 C812 1.383 . S
C811 H819 0.929 . S
C812 C811 1.383 . S
C812 C813 1.377 . S
C813 H797 0.930 . S
C813 C812 1.377 . S
C813 C814 1.379 . S
C814 H798 0.931 . S
C814 C808 1.383 . S
C814 C813 1.379 . S
H815 C809 0.959 . S
H816 C809 0.961 . S
H817 C809 0.960 . S
H818 C810 0.930 . S
H819 C811 0.929 . S
H820 C828 0.929 . S
H821 C830 0.930 . S
H822 C832 0.930 . S
H823 C835 0.929 . S
H824 C838 0.930 . S
H825 C840 0.960 . S
H826 C840 0.960 . S
H827 C840 0.960 . S
C828 H820 0.929 . S
C828 C829 1.377 . S
C828 C830 1.384 . S
C829 C828 1.377 . S
C829 C835 1.390 . S
C830 H821 0.930 . S
C830 C828 1.384 . S
C830 C831 1.372 . S
C831 C830 1.372 . S
C831 C832 1.400 . S
C831 C836 1.490 . S
C832 H822 0.930 . S
C832 C831 1.400 . S
C832 C835 1.386 . S
H833 C849 0.930 . S
H834 C850 0.931 . S
C835 H823 0.929 . S
C835 C829 1.390 . S
C835 C832 1.386 . S
C836 C831 1.490 . S
C836 C838 1.395 . S
C836 C839 1.403 . S
H837 C843 0.930 . S
C838 H824 0.930 . S
C838 C836 1.395 . S
C838 C841 1.403 . S
C839 C836 1.403 . S
C839 C840 1.524 . S
C839 C843 1.400 . S
C840 H825 0.960 . S
C840 H826 0.960 . S
C840 H827 0.960 . S
C840 C839 1.524 . S
C841 C838 1.403 . S
C841 C842 1.392 . S
C841 C845 1.495 . S
C842 C841 1.392 . S
C842 C843 1.385 . S
C842 C844 1.478 . S
C843 H837 0.930 . S
C843 C839 1.400 . S
C843 C842 1.385 . S
C844 C842 1.478 . S
C844 C846 1.381 . S
C844 C850 1.383 . S
C845 C841 1.495 . S
C845 H851 0.959 . S
C845 H852 0.961 . S
C845 H853 0.960 . S
C846 C844 1.381 . S
C846 C847 1.394 . S
C846 H854 0.930 . S
C847 C846 1.394 . S
C847 C848 1.383 . S
C847 H855 0.929 . S
C848 C847 1.383 . S
C848 C849 1.377 . S
C849 H833 0.930 . S
C849 C848 1.377 . S
C849 C850 1.379 . S
C850 H834 0.931 . S
C850 C844 1.383 . S
C850 C849 1.379 . S
H851 C845 0.959 . S
H852 C845 0.961 . S
H853 C845 0.960 . S
H854 C846 0.930 . S
H855 C847 0.929 . S
H856 C864 0.929 . S
H857 C866 0.930 . S
H858 C868 0.914 1_455 S
H859 C871 0.929 . S
H860 C874 0.930 . S
H861 C876 0.960 . S
H862 C876 0.960 . S
H863 C876 0.960 . S
C864 H856 0.929 . S
C864 C865 1.377 . S
C864 C866 1.384 . S
C865 C864 1.377 . S
C865 C871 1.390 . S
C866 H857 0.930 . S
C866 C864 1.384 . S
C866 C867 1.372 . S
C867 C866 1.372 . S
C867 C868 1.400 . S
C867 C872 1.490 . S
C868 H858 0.914 1_655 S
C868 C867 1.400 . S
C868 C871 1.386 . S
H869 C885 0.930 . S
H870 C886 0.931 1_554 S
C871 H859 0.929 . S
C871 C865 1.390 . S
C871 C868 1.386 . S
C872 C867 1.490 . S
C872 C874 1.395 . S
C872 C875 1.403 1_655 S
H873 C879 0.930 . S
C874 H860 0.930 . S
C874 C872 1.395 . S
C874 C877 1.403 . S
C875 C872 1.403 1_455 S
C875 C876 1.524 . S
C875 C879 1.400 1_554 S
C876 H861 0.960 . S
C876 H862 0.960 . S
C876 H863 0.960 . S
C876 C875 1.524 . S
C877 C874 1.403 . S
C877 C878 1.392 1_554 S
C877 C881 1.497 . S
C878 C877 1.392 1_556 S
C878 C879 1.385 1_655 S
C878 C880 1.478 . S
C879 H873 0.930 . S
C879 C875 1.400 1_556 S
C879 C878 1.385 1_455 S
C880 C878 1.478 . S
C880 C882 1.381 . S
C880 C886 1.383 1_655 S
C881 C877 1.497 . S
C881 H887 0.964 . S
C881 H888 0.965 . S
C881 H889 0.950 1_554 S
C882 C880 1.381 . S
C882 C883 1.394 . S
C882 H890 0.930 . S
C883 C882 1.394 . S
C883 C884 1.383 1_655 S
C883 H891 0.929 . S
C884 C883 1.383 1_455 S
C884 C885 1.377 . S
C885 H869 0.930 . S
C885 C884 1.377 . S
C885 C886 1.379 . S
C886 H870 0.931 1_556 S
C886 C880 1.383 1_455 S
C886 C885 1.379 . S
H887 C881 0.964 . S
H888 C881 0.965 . S
H889 C881 0.950 1_556 S
H890 C882 0.930 . S
H891 C883 0.929 . S
H892 C900 0.929 . S
H893 C902 0.930 . S
H894 C904 0.930 . S
H895 C907 0.929 . S
H896 C910 0.930 . S
H897 C912 0.960 . S
H898 C912 0.960 . S
H899 C912 0.976 . S
C900 H892 0.929 . S
C900 C901 1.377 . S
C900 C902 1.384 . S
C901 C900 1.377 . S
C901 C907 1.390 . S
C902 H893 0.930 . S
C902 C900 1.384 . S
C902 C903 1.372 . S
C903 C902 1.372 . S
C903 C904 1.400 . S
C903 C908 1.490 . S
C904 H894 0.930 . S
C904 C903 1.400 . S
C904 C907 1.386 . S
H905 C921 0.930 . S
H906 C922 0.931 . S
C907 H895 0.929 . S
C907 C901 1.390 . S
C907 C904 1.386 . S
C908 C903 1.490 . S
C908 C910 1.395 1_554 S
C908 C911 1.437 . S
H909 C915 0.930 . S
C910 H896 0.930 . S
C910 C908 1.395 1_556 S
C910 C913 1.403 . S
C911 C908 1.437 . S
C911 C912 1.498 1_565 S
C911 C915 1.394 1_565 S
C912 H897 0.960 . S
C912 H898 0.960 . S
C912 H899 0.976 . S
C912 C911 1.498 1_545 S
C913 C910 1.403 . S
C913 C914 1.392 . S
C913 C917 1.495 . S
C914 C913 1.392 . S
C914 C915 1.385 1_566 S
C914 C916 1.478 . S
C915 H909 0.930 . S
C915 C911 1.394 1_545 S
C915 C914 1.385 1_544 S
C916 C914 1.478 . S
C916 C918 1.381 1_565 S
C916 C922 1.383 . S
C917 C913 1.495 . S
C917 H923 0.959 . S
C917 H924 0.961 . S
C917 H925 0.960 . S
C918 C916 1.381 1_545 S
C918 C919 1.394 . S
C918 H926 0.930 . S
C919 C918 1.394 . S
C919 C920 1.383 . S
C919 H927 0.929 . S
C920 C919 1.383 . S
C920 C921 1.377 1_545 S
C921 H905 0.930 . S
C921 C920 1.377 1_565 S
C921 C922 1.379 . S
C922 H906 0.931 . S
C922 C916 1.383 . S
C922 C921 1.379 . S
H923 C917 0.959 . S
H924 C917 0.961 . S
H925 C917 0.960 . S
H926 C918 0.930 . S
H927 C919 0.929 . S
H928 C936 0.929 . S
H929 C938 0.930 . S
H930 C940 0.930 . S
H931 C943 0.929 . S
H932 C946 0.930 . S
H933 C948 0.960 . S
H934 C948 0.960 . S
H935 C948 0.960 . S
C936 H928 0.929 . S
C936 C937 1.377 . S
C936 C938 1.384 . S
C937 C936 1.377 . S
C937 C943 1.390 . S
C938 H929 0.930 . S
C938 C936 1.384 . S
C938 C939 1.372 . S
C939 C938 1.372 . S
C939 C940 1.400 . S
C939 C944 1.490 . S
C940 H930 0.930 . S
C940 C939 1.400 . S
C940 C943 1.386 . S
H941 C957 0.930 . S
H942 C958 0.931 1_554 S
C943 H931 0.929 . S
C943 C937 1.390 . S
C943 C940 1.386 . S
C944 C939 1.490 . S
C944 C946 1.395 . S
C944 C947 1.403 . S
H945 C951 0.930 . S
C946 H932 0.930 . S
C946 C944 1.395 . S
C946 C949 1.403 1_554 S
C947 C944 1.403 . S
C947 C948 1.524 . S
C947 C951 1.400 . S
C948 H933 0.960 . S
C948 H934 0.960 . S
C948 H935 0.960 . S
C948 C947 1.524 . S
C949 C946 1.403 1_556 S
C949 C950 1.392 . S
C949 C953 1.495 . S
C950 C949 1.392 . S
C950 C951 1.385 1_556 S
C950 C952 1.478 . S
C951 H945 0.930 . S
C951 C947 1.400 . S
C951 C950 1.385 1_554 S
C952 C950 1.478 . S
C952 C954 1.381 . S
C952 C958 1.383 . S
C953 C949 1.495 . S
C953 H959 0.959 . S
C953 H960 0.961 . S
C953 H961 0.960 . S
C954 C952 1.381 . S
C954 C955 1.394 . S
C954 H962 0.930 . S
C955 C954 1.394 . S
C955 C956 1.383 . S
C955 H963 0.929 . S
C956 C955 1.383 . S
C956 C957 1.377 . S
C957 H941 0.930 . S
C957 C956 1.377 . S
C957 C958 1.379 . S
C958 H942 0.931 1_556 S
C958 C952 1.383 . S
C958 C957 1.379 . S
H959 C953 0.959 . S
H960 C953 0.961 . S
H961 C953 0.960 . S
H962 C954 0.930 . S
H963 C955 0.929 . S
H964 C972 0.929 . S
H965 C974 0.930 . S
H966 C976 0.930 . S
H967 C979 0.929 . S
H968 C982 0.930 . S
H969 C984 0.960 . S
H970 C984 0.960 . S
H971 C984 0.960 . S
C972 H964 0.929 . S
C972 C973 1.377 . S
C972 C974 1.384 . S
C973 C972 1.377 . S
C973 C979 1.390 . S
C974 H965 0.930 . S
C974 C972 1.384 . S
C974 C975 1.372 . S
C975 C974 1.372 . S
C975 C976 1.400 . S
C975 C980 1.490 . S
C976 H966 0.930 . S
C976 C975 1.400 . S
C976 C979 1.386 . S
H977 C993 0.930 . S
H978 C994 0.931 . S
C979 H967 0.929 . S
C979 C973 1.390 . S
C979 C976 1.386 . S
C980 C975 1.490 . S
C980 C982 1.395 1_554 S
C980 C983 1.403 . S
H981 C987 0.930 . S
C982 H968 0.930 . S
C982 C980 1.395 1_556 S
C982 C985 1.403 . S
C983 C980 1.403 . S
C983 C984 1.524 . S
C983 C987 1.400 . S
C984 H969 0.960 . S
C984 H970 0.960 . S
C984 H971 0.960 . S
C984 C983 1.524 . S
C985 C982 1.403 . S
C985 C986 1.392 . S
C985 C989 1.495 . S
C986 C985 1.392 . S
C986 C987 1.385 1_556 S
C986 C988 1.478 . S
C987 H981 0.930 . S
C987 C983 1.400 . S
C987 C986 1.385 1_554 S
C988 C986 1.478 . S
C988 C990 1.381 . S
C988 C994 1.383 . S
C989 C985 1.495 . S
C989 H995 0.959 . S
C989 H996 0.961 . S
C989 H997 0.960 . S
C990 C988 1.381 . S
C990 C991 1.394 . S
C990 H998 0.930 . S
C991 C990 1.394 . S
C991 C992 1.383 . S
C991 H999 0.929 . S
C992 C991 1.383 . S
C992 C993 1.377 . S
C993 H977 0.930 . S
C993 C992 1.377 . S
C993 C994 1.379 . S
C994 H978 0.931 . S
C994 C988 1.383 . S
C994 C993 1.379 . S
H995 C989 0.959 . S
H996 C989 0.961 . S
H997 C989 0.960 . S
H998 C990 0.930 . S
H999 C991 0.929 . S
H1000 C1008 0.929 . S
H1001 C1010 0.930 . S
H1002 C1012 0.930 . S
H1003 C1015 0.929 . S
H1004 C1018 0.930 . S
H1005 C1020 0.960 . S
H1006 C1020 0.960 . S
H1007 C1020 0.960 . S
C1008 H1000 0.929 . S
C1008 C1009 1.377 . S
C1008 C1010 1.384 . S
C1009 C1008 1.377 . S
C1009 C1015 1.390 . S
C1010 H1001 0.930 . S
C1010 C1008 1.384 . S
C1010 C1011 1.372 . S
C1011 C1010 1.372 . S
C1011 C1012 1.400 . S
C1011 C1016 1.490 . S
C1012 H1002 0.930 . S
C1012 C1011 1.400 . S
C1012 C1015 1.386 . S
H1013 C1029 0.930 1_655 S
H1014 C1030 0.931 1_655 S
C1015 H1003 0.929 . S
C1015 C1009 1.390 . S
C1015 C1012 1.386 . S
C1016 C1011 1.490 . S
C1016 C1018 1.395 . S
C1016 C1019 1.403 . S
H1017 C1023 0.930 . S
C1018 H1004 0.930 . S
C1018 C1016 1.395 . S
C1018 C1021 1.403 . S
C1019 C1016 1.403 . S
C1019 C1020 1.524 . S
C1019 C1023 1.400 . S
C1020 H1005 0.960 . S
C1020 H1006 0.960 . S
C1020 H1007 0.960 . S
C1020 C1019 1.524 . S
C1021 C1018 1.403 . S
C1021 C1022 1.392 . S
C1021 C1025 1.495 . S
C1022 C1021 1.392 . S
C1022 C1023 1.385 . S
C1022 C1024 1.478 . S
C1023 H1017 0.930 . S
C1023 C1019 1.400 . S
C1023 C1022 1.385 . S
C1024 C1022 1.478 . S
C1024 C1026 1.381 . S
C1024 C1030 1.383 . S
C1025 C1021 1.495 . S
C1025 H1031 0.959 . S
C1025 H1032 0.961 . S
C1025 H1033 0.960 . S
C1026 C1024 1.381 . S
C1026 C1027 1.394 . S
C1026 H1034 0.930 . S
C1027 C1026 1.394 . S
C1027 C1028 1.383 . S
C1027 H1035 0.929 . S
C1028 C1027 1.383 . S
C1028 C1029 1.377 . S
C1029 H1013 0.930 1_455 S
C1029 C1028 1.377 . S
C1029 C1030 1.379 . S
C1030 H1014 0.931 1_455 S
C1030 C1024 1.383 . S
C1030 C1029 1.379 . S
H1031 C1025 0.959 . S
H1032 C1025 0.961 . S
H1033 C1025 0.960 . S
H1034 C1026 0.930 . S
H1035 C1027 0.929 . S
H1036 C1044 0.929 . S
H1037 C1046 0.930 . S
H1038 C1048 0.930 . S
H1039 C1051 0.929 . S
H1040 C1054 0.930 . S
H1041 C1056 0.960 . S
H1042 C1056 0.960 . S
H1043 C1056 0.960 . S
C1044 H1036 0.929 . S
C1044 C1045 1.377 . S
C1044 C1046 1.384 . S
C1045 C1044 1.377 . S
C1045 C1051 1.390 . S
C1046 H1037 0.930 . S
C1046 C1044 1.384 . S
C1046 C1047 1.372 . S
C1047 C1046 1.372 . S
C1047 C1048 1.400 . S
C1047 C1052 1.490 . S
C1048 H1038 0.930 . S
C1048 C1047 1.400 . S
C1048 C1051 1.386 . S
H1049 C1065 0.930 1_565 S
H1050 C1066 0.931 1_565 S
C1051 H1039 0.929 . S
C1051 C1045 1.390 . S
C1051 C1048 1.386 . S
C1052 C1047 1.490 . S
C1052 C1054 1.395 . S
C1052 C1055 1.403 . S
H1053 C1059 0.930 . S
C1054 H1040 0.930 . S
C1054 C1052 1.395 . S
C1054 C1057 1.403 . S
C1055 C1052 1.403 . S
C1055 C1056 1.524 . S
C1055 C1059 1.400 . S
C1056 H1041 0.960 . S
C1056 H1042 0.960 . S
C1056 H1043 0.960 . S
C1056 C1055 1.524 . S
C1057 C1054 1.403 . S
C1057 C1058 1.392 . S
C1057 C1061 1.495 . S
C1058 C1057 1.392 . S
C1058 C1059 1.385 . S
C1058 C1060 1.478 . S
C1059 H1053 0.930 . S
C1059 C1055 1.400 . S
C1059 C1058 1.385 . S
C1060 C1058 1.478 . S
C1060 C1062 1.381 . S
C1060 C1066 1.383 . S
C1061 C1057 1.495 . S
C1061 H1067 0.959 . S
C1061 H1068 0.961 . S
C1061 H1069 0.960 . S
C1062 C1060 1.381 . S
C1062 C1063 1.394 . S
C1062 H1070 0.930 . S
C1063 C1062 1.394 . S
C1063 C1064 1.383 . S
C1063 H1071 0.929 . S
C1064 C1063 1.383 . S
C1064 C1065 1.377 . S
C1065 H1049 0.930 1_545 S
C1065 C1064 1.377 . S
C1065 C1066 1.379 . S
C1066 H1050 0.931 1_545 S
C1066 C1060 1.383 . S
C1066 C1065 1.379 . S
H1067 C1061 0.959 . S
H1068 C1061 0.961 . S
H1069 C1061 0.960 . S
H1070 C1062 0.930 . S
H1071 C1063 0.929 . S
H1072 C1080 0.929 . S
H1073 C1082 0.930 . S
H1074 C1084 0.930 . S
H1075 C1087 0.929 . S
H1076 C1090 0.930 . S
H1077 C1092 0.960 . S
H1078 C1092 0.960 . S
H1079 C1092 0.960 . S
C1080 H1072 0.929 . S
C1080 C1081 1.377 . S
C1080 C1082 1.384 . S
C1081 C1080 1.377 . S
C1081 C1087 1.390 . S
C1082 H1073 0.930 . S
C1082 C1080 1.384 . S
C1082 C1083 1.372 . S
C1083 C1082 1.372 . S
C1083 C1084 1.400 . S
C1083 C1088 1.490 . S
C1084 H1074 0.930 . S
C1084 C1083 1.400 . S
C1084 C1087 1.386 . S
H1085 C1101 0.930 . S
H1086 C1102 0.931 . S
C1087 H1075 0.929 . S
C1087 C1081 1.390 . S
C1087 C1084 1.386 . S
C1088 C1083 1.490 . S
C1088 C1090 1.395 . S
C1088 C1091 1.403 . S
H1089 C1095 0.930 . S
C1090 H1076 0.930 . S
C1090 C1088 1.395 . S
C1090 C1093 1.403 . S
C1091 C1088 1.403 . S
C1091 C1092 1.524 . S
C1091 C1095 1.400 . S
C1092 H1077 0.960 . S
C1092 H1078 0.960 . S
C1092 H1079 0.960 . S
C1092 C1091 1.524 . S
C1093 C1090 1.403 . S
C1093 C1094 1.392 . S
C1093 C1097 1.495 . S
C1094 C1093 1.392 . S
C1094 C1095 1.385 . S
C1094 C1096 1.478 . S
C1095 H1089 0.930 . S
C1095 C1091 1.400 . S
C1095 C1094 1.385 . S
C1096 C1094 1.478 . S
C1096 C1098 1.381 . S
C1096 C1102 1.383 . S
C1097 C1093 1.495 . S
C1097 H1103 0.959 . S
C1097 H1104 0.961 . S
C1097 H1105 0.960 . S
C1098 C1096 1.381 . S
C1098 C1099 1.394 . S
C1098 H1106 0.930 . S
C1099 C1098 1.394 . S
C1099 C1100 1.383 . S
C1099 H1107 0.929 . S
C1100 C1099 1.383 . S
C1100 C1101 1.377 . S
C1101 H1085 0.930 . S
C1101 C1100 1.377 . S
C1101 C1102 1.379 . S
C1102 H1086 0.931 . S
C1102 C1096 1.383 . S
C1102 C1101 1.379 . S
H1103 C1097 0.959 . S
H1104 C1097 0.961 . S
H1105 C1097 0.960 . S
H1106 C1098 0.930 . S
H1107 C1099 0.929 . S
H1108 C1116 0.929 . S
H1109 C1118 0.930 . S
H1110 C1120 0.930 . S
H1111 C1123 0.929 . S
H1112 C1126 0.930 . S
H1113 C1128 0.960 . S
H1114 C1128 0.960 . S
H1115 C1128 0.960 . S
C1116 H1108 0.929 . S
C1116 C1117 1.377 . S
C1116 C1118 1.384 . S
C1117 C1116 1.377 . S
C1117 C1123 1.390 . S
C1118 H1109 0.930 . S
C1118 C1116 1.384 . S
C1118 C1119 1.372 . S
C1119 C1118 1.372 . S
C1119 C1120 1.400 . S
C1119 C1124 1.490 . S
C1120 H1110 0.930 . S
C1120 C1119 1.400 . S
C1120 C1123 1.386 . S
H1121 C1137 0.930 . S
H1122 C1138 0.931 . S
C1123 H1111 0.929 . S
C1123 C1117 1.390 . S
C1123 C1120 1.386 . S
C1124 C1119 1.490 . S
C1124 C1126 1.395 . S
C1124 C1127 1.403 . S
H1125 C1131 0.930 . S
C1126 H1112 0.930 . S
C1126 C1124 1.395 . S
C1126 C1129 1.403 . S
C1127 C1124 1.403 . S
C1127 C1128 1.524 . S
C1127 C1131 1.400 . S
C1128 H1113 0.960 . S
C1128 H1114 0.960 . S
C1128 H1115 0.960 . S
C1128 C1127 1.524 . S
C1129 C1126 1.403 . S
C1129 C1130 1.392 . S
C1129 C1133 1.495 . S
C1130 C1129 1.392 . S
C1130 C1131 1.385 . S
C1130 C1132 1.478 . S
C1131 H1125 0.930 . S
C1131 C1127 1.400 . S
C1131 C1130 1.385 . S
C1132 C1130 1.478 . S
C1132 C1134 1.381 . S
C1132 C1138 1.383 . S
C1133 C1129 1.495 . S
C1133 H1139 0.959 . S
C1133 H1140 0.961 . S
C1133 H1141 0.960 . S
C1134 C1132 1.381 . S
C1134 C1135 1.394 . S
C1134 H1142 0.930 . S
C1135 C1134 1.394 . S
C1135 C1136 1.383 . S
C1135 H1143 0.929 . S
C1136 C1135 1.383 . S
C1136 C1137 1.377 . S
C1137 H1121 0.930 . S
C1137 C1136 1.377 . S
C1137 C1138 1.379 . S
C1138 H1122 0.931 . S
C1138 C1132 1.383 . S
C1138 C1137 1.379 . S
H1139 C1133 0.959 . S
H1140 C1133 0.961 . S
H1141 C1133 0.960 . S
H1142 C1134 0.930 . S
H1143 C1135 0.929 . S
H1144 C1152 0.929 1_455 S
H1145 C1154 0.930 1_455 S
H1146 C1156 0.930 . S
H1147 C1159 0.929 . S
H1148 C1162 0.930 . S
H1149 C1164 0.960 . S
H1150 C1164 0.960 . S
H1151 C1164 0.960 . S
C1152 H1144 0.929 1_655 S
C1152 C1153 1.377 . S
C1152 C1154 1.384 . S
C1153 C1152 1.377 . S
C1153 C1159 1.390 . S
C1154 H1145 0.930 1_655 S
C1154 C1152 1.384 . S
C1154 C1155 1.372 . S
C1155 C1154 1.372 . S
C1155 C1156 1.400 . S
C1155 C1160 1.490 . S
C1156 H1146 0.930 . S
C1156 C1155 1.400 . S
C1156 C1159 1.386 . S
H1157 C1173 0.930 . S
H1158 C1174 0.931 . S
C1159 H1147 0.929 . S
C1159 C1153 1.390 . S
C1159 C1156 1.386 . S
C1160 C1155 1.490 . S
C1160 C1162 1.395 . S
C1160 C1163 1.403 . S
H1161 C1167 0.930 . S
C1162 H1148 0.930 . S
C1162 C1160 1.395 . S
C1162 C1165 1.403 . S
C1163 C1160 1.403 . S
C1163 C1164 1.524 . S
C1163 C1167 1.400 . S
C1164 H1149 0.960 . S
C1164 H1150 0.960 . S
C1164 H1151 0.960 . S
C1164 C1163 1.524 . S
C1165 C1162 1.403 . S
C1165 C1166 1.392 . S
C1165 C1169 1.495 1_655 S
C1166 C1165 1.392 . S
C1166 C1167 1.385 . S
C1166 C1168 1.478 . S
C1167 H1161 0.930 . S
C1167 C1163 1.400 . S
C1167 C1166 1.385 . S
C1168 C1166 1.478 . S
C1168 C1170 1.381 1_655 S
C1168 C1174 1.383 . S
C1169 C1165 1.495 1_455 S
C1169 H1175 0.959 . S
C1169 H1176 0.961 1_455 S
C1169 H1177 0.960 . S
C1170 C1168 1.381 1_455 S
C1170 C1171 1.394 . S
C1170 H1178 0.930 . S
C1171 C1170 1.394 . S
C1171 C1172 1.383 1_455 S
C1171 H1179 0.929 . S
C1172 C1171 1.383 1_655 S
C1172 C1173 1.377 . S
C1173 H1157 0.930 . S
C1173 C1172 1.377 . S
C1173 C1174 1.379 . S
C1174 H1158 0.931 . S
C1174 C1168 1.383 . S
C1174 C1173 1.379 . S
H1175 C1169 0.959 . S
H1176 C1169 0.961 1_655 S
H1177 C1169 0.960 . S
H1178 C1170 0.930 . S
H1179 C1171 0.929 . S
H1180 C1188 0.929 . S
H1181 C1190 0.930 . S
H1182 C1192 0.930 . S
H1183 C1195 0.929 . S
H1184 C1198 0.930 . S
H1185 C1200 0.960 . S
H1186 C1200 0.960 . S
H1187 C1200 0.960 . S
C1188 H1180 0.929 . S
C1188 C1189 1.377 . S
C1188 C1190 1.384 . S
C1189 C1188 1.377 . S
C1189 C1195 1.390 . S
C1190 H1181 0.930 . S
C1190 C1188 1.384 . S
C1190 C1191 1.372 . S
C1191 C1190 1.372 . S
C1191 C1192 1.400 . S
C1191 C1196 1.490 . S
C1192 H1182 0.930 . S
C1192 C1191 1.400 . S
C1192 C1195 1.386 . S
H1193 C1209 0.930 . S
H1194 C1210 0.931 . S
C1195 H1183 0.929 . S
C1195 C1189 1.390 . S
C1195 C1192 1.386 . S
C1196 C1191 1.490 . S
C1196 C1198 1.395 1_565 S
C1196 C1199 1.403 . S
H1197 C1203 0.930 . S
C1198 H1184 0.930 . S
C1198 C1196 1.395 1_545 S
C1198 C1201 1.403 . S
C1199 C1196 1.403 . S
C1199 C1200 1.524 . S
C1199 C1203 1.400 . S
C1200 H1185 0.960 . S
C1200 H1186 0.960 . S
C1200 H1187 0.960 . S
C1200 C1199 1.524 . S
C1201 C1198 1.403 . S
C1201 C1202 1.392 1_545 S
C1201 C1205 1.495 . S
C1202 C1201 1.392 1_565 S
C1202 C1203 1.385 . S
C1202 C1204 1.478 . S
C1203 H1197 0.930 . S
C1203 C1199 1.400 . S
C1203 C1202 1.385 . S
C1204 C1202 1.478 . S
C1204 C1206 1.381 1_565 S
C1204 C1210 1.383 . S
C1205 C1201 1.495 . S
C1205 H1211 0.959 . S
C1205 H1212 0.961 . S
C1205 H1213 0.960 . S
C1206 C1204 1.381 1_545 S
C1206 C1207 1.394 . S
C1206 H1214 0.930 . S
C1207 C1206 1.394 . S
C1207 C1208 1.383 1_545 S
C1207 H1215 0.929 . S
C1208 C1207 1.383 1_565 S
C1208 C1209 1.377 . S
C1209 H1193 0.930 . S
C1209 C1208 1.377 . S
C1209 C1210 1.379 . S
C1210 H1194 0.931 . S
C1210 C1204 1.383 . S
C1210 C1209 1.379 . S
H1211 C1205 0.959 . S
H1212 C1205 0.961 . S
H1213 C1205 0.960 . S
H1214 C1206 0.930 . S
H1215 C1207 0.929 . S
H1216 C1224 0.929 . S
H1217 C1226 0.930 . S
H1218 C1228 0.930 . S
H1219 C1231 0.929 . S
H1220 C1234 0.930 . S
H1221 C1236 0.960 . S
H1222 C1236 0.960 . S
H1223 C1236 0.960 . S
C1224 H1216 0.929 . S
C1224 C1225 1.377 . S
C1224 C1226 1.384 . S
C1225 C1224 1.377 . S
C1225 C1231 1.390 . S
C1226 H1217 0.930 . S
C1226 C1224 1.384 . S
C1226 C1227 1.372 . S
C1227 C1226 1.372 . S
C1227 C1228 1.400 . S
C1227 C1232 1.490 . S
C1228 H1218 0.930 . S
C1228 C1227 1.400 . S
C1228 C1231 1.386 . S
H1229 C1245 0.930 . S
H1230 C1246 0.931 . S
C1231 H1219 0.929 . S
C1231 C1225 1.390 . S
C1231 C1228 1.386 . S
C1232 C1227 1.490 . S
C1232 C1234 1.395 . S
C1232 C1235 1.403 . S
H1233 C1239 0.930 . S
C1234 H1220 0.930 . S
C1234 C1232 1.395 . S
C1234 C1237 1.403 . S
C1235 C1232 1.403 . S
C1235 C1236 1.524 . S
C1235 C1239 1.400 . S
C1236 H1221 0.960 . S
C1236 H1222 0.960 . S
C1236 H1223 0.960 . S
C1236 C1235 1.524 . S
C1237 C1234 1.403 . S
C1237 C1238 1.392 . S
C1237 C1241 1.495 . S
C1238 C1237 1.392 . S
C1238 C1239 1.385 . S
C1238 C1240 1.478 . S
C1239 H1233 0.930 . S
C1239 C1235 1.400 . S
C1239 C1238 1.385 . S
C1240 C1238 1.478 . S
C1240 C1242 1.381 . S
C1240 C1246 1.383 . S
C1241 C1237 1.495 . S
C1241 H1247 0.959 . S
C1241 H1248 0.961 . S
C1241 H1249 0.960 . S
C1242 C1240 1.381 . S
C1242 C1243 1.394 . S
C1242 H1250 0.930 . S
C1243 C1242 1.394 . S
C1243 C1244 1.383 . S
C1243 H1251 0.929 . S
C1244 C1243 1.383 . S
C1244 C1245 1.377 . S
C1245 H1229 0.930 . S
C1245 C1244 1.377 . S
C1245 C1246 1.379 . S
C1246 H1230 0.931 . S
C1246 C1240 1.383 . S
C1246 C1245 1.379 . S
H1247 C1241 0.959 . S
H1248 C1241 0.961 . S
H1249 C1241 0.960 . S
H1250 C1242 0.930 . S
H1251 C1243 0.929 . S
H1252 C1260 0.929 . S
H1253 C1262 0.930 . S
H1254 C1264 0.930 . S
H1255 C1267 0.929 . S
H1256 C1270 0.930 . S
H1257 C1272 0.960 . S
H1258 C1272 0.960 . S
H1259 C1272 0.960 . S
C1260 H1252 0.929 . S
C1260 C1261 1.377 . S
C1260 C1262 1.384 . S
C1261 C1260 1.377 . S
C1261 C1267 1.390 . S
C1262 H1253 0.930 . S
C1262 C1260 1.384 . S
C1262 C1263 1.372 . S
C1263 C1262 1.372 . S
C1263 C1264 1.400 . S
C1263 C1268 1.490 . S
C1264 H1254 0.930 . S
C1264 C1263 1.400 . S
C1264 C1267 1.386 . S
H1265 C1281 0.930 . S
H1266 C1282 0.931 . S
C1267 H1255 0.929 . S
C1267 C1261 1.390 . S
C1267 C1264 1.386 . S
C1268 C1263 1.490 . S
C1268 C1270 1.395 . S
C1268 C1271 1.403 . S
H1269 C1275 0.930 . S
C1270 H1256 0.930 . S
C1270 C1268 1.395 . S
C1270 C1273 1.403 . S
C1271 C1268 1.403 . S
C1271 C1272 1.524 . S
C1271 C1275 1.400 . S
C1272 H1257 0.960 . S
C1272 H1258 0.960 . S
C1272 H1259 0.960 . S
C1272 C1271 1.524 . S
C1273 C1270 1.403 . S
C1273 C1274 1.392 . S
C1273 C1277 1.495 . S
C1274 C1273 1.392 . S
C1274 C1275 1.385 . S
C1274 C1276 1.478 . S
C1275 H1269 0.930 . S
C1275 C1271 1.400 . S
C1275 C1274 1.385 . S
C1276 C1274 1.478 . S
C1276 C1278 1.381 . S
C1276 C1282 1.383 . S
C1277 C1273 1.495 . S
C1277 H1283 0.959 . S
C1277 H1284 0.961 . S
C1277 H1285 0.960 . S
C1278 C1276 1.381 . S
C1278 C1279 1.394 . S
C1278 H1286 0.930 . S
C1279 C1278 1.394 . S
C1279 C1280 1.383 . S
C1279 H1287 0.929 . S
C1280 C1279 1.383 . S
C1280 C1281 1.377 . S
C1281 H1265 0.930 . S
C1281 C1280 1.377 . S
C1281 C1282 1.379 . S
C1282 H1266 0.931 . S
C1282 C1276 1.383 . S
C1282 C1281 1.379 . S
H1283 C1277 0.959 . S
H1284 C1277 0.961 . S
H1285 C1277 0.960 . S
H1286 C1278 0.930 . S
H1287 C1279 0.929 . S
C433 C76 1.840 . S
C452 C151 1.922 . S
C488 C228 1.950 . S
C469 C87 1.847 . S
C524 C319 1.906 . S
C505 C54 1.836 . S
C560 C403 1.920 . S
C541 C65 1.819 . S
C596 C162 1.924 . S
C577 C32 1.844 . S
C613 C43 1.850 . S
C632 C239 1.934 . S
C649 C10 1.837 . S
C668 C330 1.918 . S
C685 C21 1.825 . S
C704 C414 1.889 1_655 S
C740 C146 0.598 1_455 S
C721 C60 0.462 . S
C776 C241 0.544 . S
C757 C71 0.464 . S
C812 C314 0.488 . S
C793 C82 0.479 . S
C829 C49 0.446 . S
C848 C398 0.631 . S
C865 C16 0.490 . S
C884 C157 0.640 . S
C920 C230 0.636 . S
C901 C27 0.454 . S
C956 C325 0.628 . S
C937 C38 0.485 . S
C973 C5 0.456 . S
C992 C409 0.547 . S
C1009 C59 1.854 . S
C1028 C155 2.007 . S
C1045 C70 1.855 . S
C1064 C246 1.993 . S
C1100 C323 2.017 . S
C1081 C81 1.859 . S
C1136 C407 2.029 . S
C1117 C48 1.875 . S
C1153 C15 1.849 . S
C1172 C144 2.008 . S
C1208 C235 1.995 1_565 S
C1189 C26 1.851 . S
C1244 C312 2.021 . S
C1225 C37 1.864 . S
C1261 C4 1.870 . S
C1280 C396 2.029 . S
