# Generated by pormake.
# Topology nom, (4,4)-cn, num edge types: 1
# Building blocks:
#     Node 0, Type 0, BuildingBlock: NAHDIM_clean_linker_0, # of connection points: 4
#     Node 1, Type 0, BuildingBlock: NAHDIM_clean_linker_0, # of connection points: 4
#     Node 2, Type 0, BuildingBlock: NAHDIM_clean_linker_0, # of connection points: 4
#     Node 3, Type 0, BuildingBlock: NAHDIM_clean_linker_0, # of connection points: 4
#     Node 4, Type 0, BuildingBlock: NAHDIM_clean_linker_0, # of connection points: 4
#     Node 5, Type 0, BuildingBlock: NAHDIM_clean_linker_0, # of connection points: 4
#     Node 6, Type 1, BuildingBlock: NAHDIM_clean_sbu_0, # of connection points: 4
#     Node 7, Type 1, BuildingBlock: NAHDIM_clean_sbu_0, # of connection points: 4
#     Node 8, Type 1, BuildingBlock: NAHDIM_clean_sbu_0, # of connection points: 4
#     Node 9, Type 1, BuildingBlock: NAHDIM_clean_sbu_0, # of connection points: 4
#     Node 10, Type 1, BuildingBlock: NAHDIM_clean_sbu_0, # of connection points: 4
#     Node 11, Type 1, BuildingBlock: NAHDIM_clean_sbu_0, # of connection points: 4
#     Edge 12, Type (0, 1), BuildingBlock: MIFKUJ_clean_linker_0, # of connection points: 2
#     Edge 13, Type (0, 1), BuildingBlock: MIFKUJ_clean_linker_0, # of connection points: 2
#     Edge 14, Type (0, 1), BuildingBlock: MIFKUJ_clean_linker_0, # of connection points: 2
#     Edge 15, Type (0, 1), BuildingBlock: MIFKUJ_clean_linker_0, # of connection points: 2
#     Edge 16, Type (0, 1), BuildingBlock: MIFKUJ_clean_linker_0, # of connection points: 2
#     Edge 17, Type (0, 1), BuildingBlock: MIFKUJ_clean_linker_0, # of connection points: 2
#     Edge 18, Type (0, 1), BuildingBlock: MIFKUJ_clean_linker_0, # of connection points: 2
#     Edge 19, Type (0, 1), BuildingBlock: MIFKUJ_clean_linker_0, # of connection points: 2
#     Edge 20, Type (0, 1), BuildingBlock: MIFKUJ_clean_linker_0, # of connection points: 2
#     Edge 21, Type (0, 1), BuildingBlock: MIFKUJ_clean_linker_0, # of connection points: 2
#     Edge 22, Type (0, 1), BuildingBlock: MIFKUJ_clean_linker_0, # of connection points: 2
#     Edge 23, Type (0, 1), BuildingBlock: MIFKUJ_clean_linker_0, # of connection points: 2
#     Edge 24, Type (0, 1), BuildingBlock: MIFKUJ_clean_linker_0, # of connection points: 2
#     Edge 25, Type (0, 1), BuildingBlock: MIFKUJ_clean_linker_0, # of connection points: 2
#     Edge 26, Type (0, 1), BuildingBlock: MIFKUJ_clean_linker_0, # of connection points: 2
#     Edge 27, Type (0, 1), BuildingBlock: MIFKUJ_clean_linker_0, # of connection points: 2
#     Edge 28, Type (0, 1), BuildingBlock: MIFKUJ_clean_linker_0, # of connection points: 2
#     Edge 29, Type (0, 1), BuildingBlock: MIFKUJ_clean_linker_0, # of connection points: 2
#     Edge 30, Type (0, 1), BuildingBlock: MIFKUJ_clean_linker_0, # of connection points: 2
#     Edge 31, Type (0, 1), BuildingBlock: MIFKUJ_clean_linker_0, # of connection points: 2
#     Edge 32, Type (0, 1), BuildingBlock: MIFKUJ_clean_linker_0, # of connection points: 2
#     Edge 33, Type (0, 1), BuildingBlock: MIFKUJ_clean_linker_0, # of connection points: 2
#     Edge 34, Type (0, 1), BuildingBlock: MIFKUJ_clean_linker_0, # of connection points: 2
#     Edge 35, Type (0, 1), BuildingBlock: MIFKUJ_clean_linker_0, # of connection points: 2
# Relax obj value: 0.063
# Max RMSD: 0.129
# Mean RMSD: 0.123
data_MOF--net-nom--node1-NAHDIM_clean_sbu_0--node2-NAHDIM_clean_linker_0--edge1-MIFKUJ_clean_linker_0
_symmetry_space_group_name_H-M    P1
_symmetry_Int_Tables_number       1
_symmetry_cell_setting            triclinic
loop_
_symmetry_equiv_pos_as_xyz
'x, y, z'
_cell_length_a     68.947155
_cell_length_b     71.057567
_cell_length_c     85.149951
_cell_angle_alpha  90.097595
_cell_angle_beta   90.60367
_cell_angle_gamma 121.00507
loop_
_atom_site_label
_atom_site_type_symbol
_atom_site_fract_x
_atom_site_fract_y
_atom_site_fract_z
_atom_type_partial_charge
C0 C 0.12174 0.62723 0.25895 0.0
C1 C 0.13144 0.61351 0.26525 0.0
C2 C 0.10455 0.59064 0.28469 0.0
C3 C 0.10131 0.56969 0.28649 0.0
C4 C 0.07996 0.55182 0.29036 0.0
C5 C 0.06153 0.55512 0.29224 0.0
C6 C 0.06492 0.57645 0.29055 0.0
C7 C 0.08658 0.59406 0.2871 0.0
C8 C 0.07707 0.52941 0.29228 0.0
C9 C 0.04565 0.5806 0.29213 0.0
C10 C 0.98622 0.45812 0.20599 0.0
C11 C 0.97147 0.46571 0.21374 0.0
C12 C 0.97333 0.46771 0.24223 0.0
C13 C 0.97359 0.48729 0.24497 0.0
C14 C 0.98285 0.49927 0.25896 0.0
C15 C 0.9922 0.49154 0.27031 0.0
C16 C 0.99136 0.47144 0.26771 0.0
C17 C 0.98152 0.45957 0.25378 0.0
C18 C 0.98297 0.52035 0.26149 0.0
C19 C 0.00141 0.46281 0.27944 0.0
C20 C 0.894 0.43775 0.35021 0.0
C21 C 0.89922 0.45826 0.34432 0.0
C22 C 0.92183 0.47524 0.34271 0.0
C23 C 0.93949 0.47148 0.34686 0.0
C24 C 0.93422 0.45101 0.35322 0.0
C25 C 0.91147 0.43451 0.35501 0.0
C26 C 0.92683 0.49716 0.33649 0.0
C27 C 0.95258 0.44645 0.35785 0.0
C28 C 0.07977 0.60974 0.40901 0.0
C29 C 0.07184 0.58534 0.40768 0.0
C30 C 0.03604 0.55957 0.39501 0.0
C31 C 0.01867 0.56145 0.38813 0.0
C32 C 0.00626 0.54825 0.37524 0.0
C33 C 0.01083 0.5322 0.36956 0.0
C34 C 0.02756 0.52937 0.37715 0.0
C35 C 0.04027 0.54339 0.38966 0.0
C36 C 0.98858 0.55178 0.36752 0.0
C37 C 0.03217 0.51174 0.37197 0.0
C38 C 0.03852 0.53618 0.29534 0.0
C39 C 0.02614 0.5227 0.28264 0.0
C40 C 0.00402 0.50511 0.28444 0.0
C41 C 0.99376 0.50084 0.29934 0.0
C42 C 0.97135 0.48365 0.3015 0.0
C43 C 0.96144 0.47957 0.31622 0.0
C44 C 0.9735 0.49263 0.32933 0.0
C45 C 0.96346 0.48881 0.34429 0.0
C46 C 0.97613 0.50175 0.35714 0.0
C47 C 0.99854 0.51883 0.35545 0.0
C48 C 0.00869 0.52327 0.34049 0.0
C49 C 0.03097 0.54072 0.33823 0.0
C50 C 0.04087 0.54483 0.32352 0.0
C51 C 0.02876 0.53187 0.31041 0.0
C52 C 0.00625 0.51421 0.31238 0.0
C53 C 0.99616 0.50999 0.32742 0.0
C54 C 0.84134 0.39201 0.33756 0.0
C55 C 0.85438 0.41649 0.34166 0.0
O56 O 0.12509 0.60764 0.2807 0.0
O57 O 0.0484 0.57349 0.40687 0.0
O58 O 0.87235 0.42081 0.35153 0.0
O59 O 0.96535 0.45642 0.22851 0.0
H60 H 0.12472 0.59837 0.25787 0.0
H61 H 0.10299 0.61714 0.25833 0.0
H62 H 0.12684 0.64169 0.2667 0.0
H63 H 0.12784 0.63302 0.24688 0.0
H64 H 0.1155 0.56737 0.28476 0.0
H65 H 0.08946 0.61049 0.28595 0.0
H66 H 0.06644 0.51855 0.28247 0.0
H67 H 0.09352 0.53008 0.29233 0.0
H68 H 0.0682 0.52189 0.3034 0.0
H69 H 0.05055 0.59752 0.28862 0.0
H70 H 0.03097 0.56872 0.28477 0.0
H71 H 0.04007 0.57821 0.30451 0.0
H72 H 0.98188 0.48396 0.21463 0.0
H73 H 0.99149 0.46549 0.19415 0.0
H74 H 0.00169 0.46342 0.21326 0.0
H75 H 0.97688 0.43993 0.20482 0.0
H76 H 0.96656 0.49319 0.23618 0.0
H77 H 0.98096 0.44427 0.25156 0.0
H78 H 0.00061 0.53446 0.26092 0.0
H79 H 0.97257 0.52268 0.25253 0.0
H80 H 0.97647 0.52054 0.27334 0.0
H81 H 0.00079 0.44774 0.27514 0.0
H82 H 0.0193 0.47555 0.28205 0.0
H83 H 0.99202 0.45898 0.29061 0.0
H84 H 0.8607 0.42549 0.33039 0.0
H85 H 0.88568 0.46106 0.34109 0.0
H86 H 0.90721 0.4187 0.35976 0.0
H87 H 0.93427 0.49968 0.32462 0.0
H88 H 0.91139 0.49831 0.33561 0.0
H89 H 0.93944 0.51065 0.3442 0.0
H90 H 0.94564 0.42921 0.36164 0.0
H91 H 0.96406 0.44981 0.34782 0.0
H92 H 0.96288 0.45759 0.36765 0.0
H93 H 0.0791 0.58306 0.3967 0.0
H94 H 0.09855 0.61991 0.40907 0.0
H95 H 0.07329 0.61468 0.39879 0.0
H96 H 0.07336 0.61309 0.41994 0.0
H97 H 0.01543 0.57387 0.39256 0.0
H98 H 0.05338 0.54164 0.39535 0.0
H99 H 0.99121 0.55363 0.35464 0.0
H100 H 0.97153 0.53723 0.3695 0.0
H101 H 0.98889 0.56652 0.37224 0.0
H102 H 0.04246 0.50904 0.3808 0.0
H103 H 0.01605 0.49599 0.36986 0.0
H104 H 0.04156 0.51662 0.36078 0.0
H105 H 0.03378 0.52604 0.27113 0.0
H106 H 0.96121 0.47316 0.29182 0.0
H107 H 0.94417 0.46604 0.31718 0.0
H108 H 0.96835 0.4986 0.3686 0.0
H109 H 0.04107 0.55144 0.34783 0.0
H110 H 0.05814 0.55836 0.32253 0.0
H111 H 0.83445 0.38199 0.34833 0.0
H112 H 0.82713 0.38805 0.3293 0.0
H113 H 0.85279 0.38749 0.33182 0.0
C114 C 0.4418 0.89711 0.5498 0.0
C115 C 0.43013 0.89118 0.5336 0.0
C116 C 0.43831 0.92719 0.52396 0.0
C117 C 0.46122 0.93537 0.52052 0.0
C118 C 0.47525 0.95708 0.51558 0.0
C119 C 0.46634 0.97103 0.51417 0.0
C120 C 0.44327 0.96283 0.51737 0.0
C121 C 0.42952 0.94094 0.52214 0.0
C122 C 0.49975 0.96524 0.51209 0.0
C123 C 0.43328 0.97729 0.51596 0.0
C124 C 0.55401 0.08685 0.60274 0.0
C125 C 0.5508 0.07309 0.58865 0.0
C126 C 0.54064 0.07046 0.56105 0.0
C127 C 0.52617 0.074 0.5516 0.0
C128 C 0.51607 0.06132 0.53801 0.0
C129 C 0.52157 0.04547 0.53338 0.0
C130 C 0.53719 0.04267 0.5425 0.0
C131 C 0.54631 0.05498 0.55635 0.0
C132 C 0.49906 0.06449 0.5289 0.0
C133 C 0.54398 0.02637 0.53782 0.0
C134 C 0.58163 0.12738 0.44833 0.0
C135 C 0.56023 0.12259 0.45332 0.0
C136 C 0.54272 0.10077 0.45543 0.0
C137 C 0.54694 0.08349 0.45289 0.0
C138 C 0.56827 0.08829 0.44732 0.0
C139 C 0.58524 0.11023 0.44486 0.0
C140 C 0.51986 0.09626 0.46065 0.0
C141 C 0.57336 0.07033 0.44437 0.0
C142 C 0.40859 0.93549 0.39897 0.0
C143 C 0.43403 0.94433 0.3999 0.0
C144 C 0.45944 0.98129 0.40967 0.0
C145 C 0.45628 0.99831 0.4144 0.0
C146 C 0.46941 0.01268 0.42662 0.0
C147 C 0.48666 0.01034 0.43381 0.0
C148 C 0.49084 0.99391 0.42833 0.0
C149 C 0.4769 0.97931 0.41646 0.0
C150 C 0.46448 0.03 0.43206 0.0
C151 C 0.50977 0.99157 0.43515 0.0
C152 C 0.48163 0.99446 0.51015 0.0
C153 C 0.49332 0.00915 0.52246 0.0
C154 C 0.51002 0.03094 0.51958 0.0
C155 C 0.51541 0.03831 0.50393 0.0
C156 C 0.53311 0.05965 0.50053 0.0
C157 C 0.53792 0.06689 0.48511 0.0
C158 C 0.52513 0.0531 0.47247 0.0
C159 C 0.52942 0.06055 0.45678 0.0
C160 C 0.51679 0.04621 0.44448 0.0
C161 C 0.49973 0.02455 0.44741 0.0
C162 C 0.49496 0.01691 0.46305 0.0
C163 C 0.47773 0.99531 0.46647 0.0
C164 C 0.47347 0.98785 0.48186 0.0
C165 C 0.48583 0.00186 0.49447 0.0
C166 C 0.50292 0.02384 0.49135 0.0
C167 C 0.50769 0.03128 0.47561 0.0
C168 C 0.62851 0.18008 0.45968 0.0
C169 C 0.60311 0.16592 0.45623 0.0
O170 O 0.42423 0.9064 0.52921 0.0
O171 O 0.44545 0.96698 0.39851 0.0
O172 O 0.59915 0.14832 0.44682 0.0
O173 O 0.5485 0.08191 0.57473 0.0
H174 H 0.44182 0.89092 0.52482 0.0
H175 H 0.4577 0.91334 0.54949 0.0
H176 H 0.43058 0.89782 0.55875 0.0
H177 H 0.44616 0.88469 0.55341 0.0
H178 H 0.46846 0.92511 0.52177 0.0
H179 H 0.41186 0.93454 0.52474 0.0
H180 H 0.51081 0.97866 0.52042 0.0
H181 H 0.50386 0.95208 0.51303 0.0
H182 H 0.50379 0.97211 0.50006 0.0
H183 H 0.41489 0.96831 0.51851 0.0
H184 H 0.44214 0.9914 0.52425 0.0
H185 H 0.43587 0.98407 0.50391 0.0
H186 H 0.56275 0.06697 0.58792 0.0
H187 H 0.52446 0.06763 0.61569 0.0
H188 H 0.57137 0.09188 0.60744 0.0
H189 H 0.55918 0.10373 0.59833 0.0
H190 H 0.52203 0.08611 0.55531 0.0
H191 H 0.55797 0.05255 0.56341 0.0
H192 H 0.50653 0.0727 0.51762 0.0
H193 H 0.48368 0.04839 0.52612 0.0
H194 H 0.49396 0.07476 0.53545 0.0
H195 H 0.55972 0.02965 0.54397 0.0
H196 H 0.53024 0.0096 0.54094 0.0
H197 H 0.54656 0.0267 0.52495 0.0
H198 H 0.59469 0.1599 0.46778 0.0
H199 H 0.55717 0.13584 0.45554 0.0
H200 H 0.60175 0.11415 0.44079 0.0
H201 H 0.51752 0.09148 0.4732 0.0
H202 H 0.51813 0.11088 0.45935 0.0
H203 H 0.50614 0.08242 0.45376 0.0
H204 H 0.59129 0.07693 0.44114 0.0
H205 H 0.56962 0.06007 0.45502 0.0
H206 H 0.56232 0.0595 0.4347 0.0
H207 H 0.43761 0.93958 0.41157 0.0
H208 H 0.39886 0.91738 0.40051 0.0
H209 H 0.40377 0.943 0.40845 0.0
H210 H 0.40392 0.93951 0.38746 0.0
H211 H 0.4429 0.99979 0.40888 0.0
H212 H 0.47964 0.9664 0.41239 0.0
H213 H 0.46209 0.02904 0.44498 0.0
H214 H 0.4791 0.04653 0.42942 0.0
H215 H 0.44914 0.0283 0.42626 0.0
H216 H 0.51333 0.9808 0.42778 0.0
H217 H 0.52549 0.0079 0.43638 0.0
H218 H 0.50506 0.98432 0.44703 0.0
H219 H 0.48967 0.00341 0.53448 0.0
H220 H 0.54345 0.07101 0.50977 0.0
H221 H 0.55175 0.08349 0.48324 0.0
H222 H 0.52018 0.05203 0.43248 0.0
H223 H 0.4674 0.98386 0.45728 0.0
H224 H 0.46017 0.97101 0.48378 0.0
H225 H 0.63809 0.18647 0.44862 0.0
H226 H 0.63213 0.19415 0.46744 0.0
H227 H 0.63448 0.17012 0.46576 0.0
C228 C 0.51581 0.41972 0.70109 0.0
C229 C 0.54097 0.43301 0.69684 0.0
C230 C 0.54015 0.45729 0.67751 0.0
C231 C 0.55779 0.4791 0.67891 0.0
C232 C 0.55448 0.49634 0.67465 0.0
C233 C 0.53289 0.49147 0.66915 0.0
C234 C 0.51504 0.4693 0.66774 0.0
C235 C 0.51909 0.45245 0.67161 0.0
C236 C 0.57398 0.5197 0.67612 0.0
C237 C 0.4916 0.46334 0.66235 0.0
C238 C 0.50862 0.58926 0.75411 0.0
C239 C 0.52012 0.58566 0.7408 0.0
C240 C 0.51029 0.56778 0.71506 0.0
C241 C 0.49168 0.55184 0.70645 0.0
C242 C 0.49449 0.541 0.69369 0.0
C243 C 0.51662 0.54714 0.68899 0.0
C244 C 0.53558 0.56357 0.69752 0.0
C245 C 0.53221 0.57351 0.71063 0.0
C246 C 0.47376 0.523 0.68531 0.0
C247 C 0.55943 0.57071 0.69279 0.0
C248 C 0.4774 0.5959 0.60953 0.0
C249 C 0.46284 0.57329 0.61178 0.0
C250 C 0.47121 0.55901 0.61181 0.0
C251 C 0.4946 0.56757 0.60957 0.0
C252 C 0.50896 0.59008 0.60609 0.0
C253 C 0.50007 0.60396 0.60597 0.0
C254 C 0.45525 0.53495 0.61499 0.0
C255 C 0.53388 0.59962 0.60337 0.0
C256 C 0.55415 0.46781 0.57033 0.0
C257 C 0.55618 0.48421 0.55782 0.0
C258 C 0.53103 0.49645 0.56676 0.0
C259 C 0.50915 0.48644 0.57272 0.0
C260 C 0.50344 0.49717 0.58399 0.0
C261 C 0.52005 0.51848 0.58921 0.0
C262 C 0.5417 0.52928 0.58234 0.0
C263 C 0.54693 0.5182 0.5711 0.0
C264 C 0.48004 0.4854 0.59084 0.0
C265 C 0.55957 0.55226 0.58732 0.0
C266 C 0.52869 0.50947 0.66534 0.0
C267 C 0.52548 0.52035 0.67781 0.0
C268 C 0.51996 0.53645 0.67514 0.0
C269 C 0.5171 0.54163 0.65958 0.0
C270 C 0.51124 0.55751 0.65645 0.0
C271 C 0.50712 0.56151 0.64116 0.0
C272 C 0.50927 0.55019 0.62836 0.0
C273 C 0.50432 0.55356 0.61281 0.0
C274 C 0.50771 0.54288 0.60028 0.0
C275 C 0.51568 0.52859 0.60291 0.0
C276 C 0.51979 0.52429 0.61844 0.0
C277 C 0.52717 0.5095 0.62153 0.0
C278 C 0.53039 0.50482 0.63686 0.0
C279 C 0.5265 0.51485 0.6497 0.0
C280 C 0.52012 0.53059 0.64683 0.0
C281 C 0.51647 0.53508 0.6312 0.0
C282 C 0.4667 0.63004 0.63252 0.0
C283 C 0.4553 0.60901 0.62254 0.0
O284 O 0.54345 0.44078 0.68164 0.0
O285 O 0.53632 0.48466 0.55701 0.0
O286 O 0.47022 0.61034 0.61118 0.0
O287 O 0.50641 0.57725 0.72752 0.0
H288 H 0.54991 0.44717 0.70515 0.0
H289 H 0.50851 0.43046 0.70106 0.0
H290 H 0.50626 0.4061 0.6925 0.0
H291 H 0.51359 0.41274 0.71305 0.0
H292 H 0.57411 0.48255 0.68333 0.0
H293 H 0.50568 0.43542 0.67042 0.0
H294 H 0.57096 0.52784 0.68613 0.0
H295 H 0.59036 0.52057 0.67819 0.0
H296 H 0.57525 0.52903 0.66534 0.0
H297 H 0.47892 0.44575 0.66435 0.0
H298 H 0.48613 0.47354 0.66858 0.0
H299 H 0.49176 0.46659 0.6496 0.0
H300 H 0.53745 0.59967 0.73835 0.0
H301 H 0.50584 0.5665 0.77098 0.0
H302 H 0.51858 0.60752 0.75631 0.0
H303 H 0.49344 0.58912 0.74894 0.0
H304 H 0.47485 0.54753 0.71002 0.0
H305 H 0.54673 0.586 0.71715 0.0
H306 H 0.47146 0.5292 0.67392 0.0
H307 H 0.47575 0.50874 0.68281 0.0
H308 H 0.45818 0.51729 0.69226 0.0
H309 H 0.57225 0.58566 0.69926 0.0
H310 H 0.56275 0.55729 0.69526 0.0
H311 H 0.56156 0.57401 0.67999 0.0
H312 H 0.45132 0.59549 0.63092 0.0
H313 H 0.44504 0.56687 0.61383 0.0
H314 H 0.51105 0.62139 0.60392 0.0
H315 H 0.45868 0.53106 0.62695 0.0
H316 H 0.43723 0.53036 0.61426 0.0
H317 H 0.45805 0.52473 0.6065 0.0
H318 H 0.54261 0.61727 0.60019 0.0
H319 H 0.54197 0.59788 0.61417 0.0
H320 H 0.53629 0.59039 0.59382 0.0
H321 H 0.57072 0.50046 0.56144 0.0
H322 H 0.5695 0.46645 0.57046 0.0
H323 H 0.55252 0.47355 0.58211 0.0
H324 H 0.53901 0.45131 0.56813 0.0
H325 H 0.49683 0.46983 0.56902 0.0
H326 H 0.56348 0.52656 0.56583 0.0
H327 H 0.48109 0.4815 0.60333 0.0
H328 H 0.47277 0.49618 0.59054 0.0
H329 H 0.46841 0.46987 0.58444 0.0
H330 H 0.57527 0.55877 0.58037 0.0
H331 H 0.5529 0.56345 0.58599 0.0
H332 H 0.56392 0.55236 0.59993 0.0
H333 H 0.52699 0.51601 0.68979 0.0
H334 H 0.50938 0.56679 0.66579 0.0
H335 H 0.50224 0.57363 0.63953 0.0
H336 H 0.50412 0.54571 0.58837 0.0
H337 H 0.53026 0.50111 0.61214 0.0
H338 H 0.53585 0.49314 0.63853 0.0
H339 H 0.4728 0.64484 0.62511 0.0
H340 H 0.4547 0.62966 0.64131 0.0
H341 H 0.48151 0.63141 0.63891 0.0
C342 C 0.11417 0.50705 0.88715 0.0
C343 C 0.12405 0.52562 0.87514 0.0
C344 C 0.09604 0.5135 0.85424 0.0
C345 C 0.09132 0.53044 0.85345 0.0
C346 C 0.07008 0.52621 0.84821 0.0
C347 C 0.05325 0.50457 0.8438 0.0
C348 C 0.05838 0.48766 0.84393 0.0
C349 C 0.07992 0.49247 0.84895 0.0
C350 C 0.06543 0.54476 0.84776 0.0
C351 C 0.04086 0.4644 0.8393 0.0
C352 C 0.93088 0.47537 0.93228 0.0
C353 C 0.94824 0.48542 0.91986 0.0
C354 C 0.95372 0.47946 0.8925 0.0
C355 C 0.9497 0.46194 0.88278 0.0
C356 C 0.9629 0.4653 0.86947 0.0
C357 C 0.9798 0.48694 0.86539 0.0
C358 C 0.98358 0.50482 0.87502 0.0
C359 C 0.97068 0.50086 0.8886 0.0
C360 C 0.95881 0.44565 0.85988 0.0
C361 C 0.00121 0.52816 0.871 0.0
C362 C 0.88941 0.46673 0.78396 0.0
C363 C 0.89381 0.45016 0.7881 0.0
C364 C 0.91613 0.45462 0.78922 0.0
C365 C 0.93436 0.47624 0.78657 0.0
C366 C 0.92986 0.49275 0.78189 0.0
C367 C 0.90738 0.48762 0.78038 0.0
C368 C 0.92019 0.43633 0.79355 0.0
C369 C 0.94874 0.51592 0.77875 0.0
C370 C 0.02958 0.47081 0.70646 0.0
C371 C 0.04947 0.49019 0.71518 0.0
C372 C 0.03167 0.49962 0.73637 0.0
C373 C 0.02365 0.48025 0.74508 0.0
C374 C 0.01141 0.477 0.75892 0.0
C375 C 0.0078 0.49376 0.76444 0.0
C376 C 0.01656 0.51356 0.75597 0.0
C377 C 0.0281 0.51607 0.74194 0.0
C378 C 0.00207 0.45554 0.76752 0.0
C379 C 0.01348 0.532 0.76157 0.0
C380 C 0.02982 0.49929 0.8404 0.0
C381 C 0.01586 0.49565 0.85323 0.0
C382 C 0.99364 0.49086 0.85116 0.0
C383 C 0.98495 0.4895 0.83581 0.0
C384 C 0.96292 0.4854 0.83327 0.0
C385 C 0.95418 0.48316 0.81815 0.0
C386 C 0.96712 0.48496 0.80495 0.0
C387 C 0.95806 0.4819 0.78955 0.0
C388 C 0.97165 0.48454 0.77668 0.0
C389 C 0.99424 0.49037 0.77874 0.0
C390 C 0.00351 0.4932 0.79408 0.0
C391 C 0.02617 0.49914 0.79662 0.0
C392 C 0.03491 0.5013 0.81178 0.0
C393 C 0.02135 0.49771 0.82496 0.0
C394 C 0.9987 0.49248 0.82267 0.0
C395 C 0.98977 0.49019 0.80722 0.0
C396 C 0.83621 0.459 0.79666 0.0
C397 C 0.85013 0.44858 0.79242 0.0
O398 O 0.11593 0.51704 0.86025 0.0
O399 O 0.04249 0.50312 0.72246 0.0
O400 O 0.86812 0.46321 0.78328 0.0
O401 O 0.94065 0.47516 0.90534 0.0
H402 H 0.11877 0.53749 0.87845 0.0
H403 H 0.09542 0.49887 0.88712 0.0
H404 H 0.11879 0.49461 0.88425 0.0
H405 H 0.12056 0.51367 0.89915 0.0
H406 H 0.10419 0.5469 0.85704 0.0
H407 H 0.08395 0.47961 0.84942 0.0
H408 H 0.05342 0.54243 0.8572 0.0
H409 H 0.08108 0.56104 0.84949 0.0
H410 H 0.05739 0.54467 0.83637 0.0
H411 H 0.04742 0.45308 0.84033 0.0
H412 H 0.0258 0.45833 0.84688 0.0
H413 H 0.03519 0.46398 0.82699 0.0
H414 H 0.95726 0.50367 0.91944 0.0
H415 H 0.94413 0.46178 0.94782 0.0
H416 H 0.92755 0.48868 0.93594 0.0
H417 H 0.91413 0.46519 0.926 0.0
H418 H 0.93649 0.44549 0.88588 0.0
H419 H 0.97355 0.51457 0.89588 0.0
H420 H 0.94983 0.44489 0.8488 0.0
H421 H 0.97511 0.44706 0.85676 0.0
H422 H 0.94832 0.43001 0.86625 0.0
H423 H 0.99942 0.54032 0.87807 0.0
H424 H 0.01829 0.53075 0.87335 0.0
H425 H 0.00013 0.53131 0.85835 0.0
H426 H 0.85654 0.44566 0.80368 0.0
H427 H 0.87987 0.43374 0.79041 0.0
H428 H 0.90372 0.50016 0.77693 0.0
H429 H 0.92605 0.43843 0.80596 0.0
H430 H 0.90458 0.41992 0.79224 0.0
H431 H 0.93359 0.43684 0.78611 0.0
H432 H 0.94246 0.52744 0.77745 0.0
H433 H 0.96157 0.52195 0.7884 0.0
H434 H 0.95725 0.51608 0.76773 0.0
H435 H 0.05642 0.48374 0.72412 0.0
H436 H 0.03551 0.46099 0.7002 0.0
H437 H 0.01631 0.45981 0.71478 0.0
H438 H 0.02175 0.47669 0.6978 0.0
H439 H 0.02651 0.46744 0.74109 0.0
H440 H 0.03443 0.53099 0.7352 0.0
H441 H 0.01081 0.45849 0.77908 0.0
H442 H 0.98376 0.44842 0.76978 0.0
H443 H 0.00431 0.44334 0.76087 0.0
H444 H 0.02443 0.54751 0.75519 0.0
H445 H 0.99559 0.52729 0.75966 0.0
H446 H 0.0173 0.53502 0.77435 0.0
H447 H 0.0224 0.49657 0.86504 0.0
H448 H 0.95212 0.48372 0.84296 0.0
H449 H 0.93705 0.47987 0.81697 0.0
H450 H 0.96461 0.48226 0.76489 0.0
H451 H 0.03737 0.50201 0.78691 0.0
H452 H 0.0524 0.50569 0.81305 0.0
H453 H 0.82925 0.46232 0.78588 0.0
H454 H 0.822 0.44798 0.80442 0.0
H455 H 0.84708 0.47477 0.80301 0.0
C456 C 0.45628 0.90046 0.91799 0.0
C457 C 0.44586 0.88735 0.93306 0.0
C458 C 0.4626 0.91894 0.95102 0.0
C459 C 0.44582 0.92451 0.95012 0.0
C460 C 0.45055 0.94544 0.95474 0.0
C461 C 0.4726 0.96122 0.96009 0.0
C462 C 0.48945 0.95552 0.9612 0.0
C463 C 0.48402 0.93424 0.95698 0.0
C464 C 0.43206 0.95082 0.95365 0.0
C465 C 0.51334 0.97202 0.96643 0.0
C466 C 0.54489 0.10514 0.88325 0.0
C467 C 0.54195 0.09181 0.89742 0.0
C468 C 0.51272 0.06263 0.91327 0.0
C469 C 0.52799 0.06301 0.92454 0.0
C470 C 0.5203 0.04898 0.93748 0.0
C471 C 0.49677 0.0347 0.93954 0.0
C472 C 0.48129 0.03441 0.92835 0.0
C473 C 0.48951 0.04829 0.91527 0.0
C474 C 0.53747 0.04938 0.94888 0.0
C475 C 0.45611 0.01946 0.93022 0.0
C476 C 0.51718 0.12031 0.02278 0.0
C477 C 0.53329 0.11546 0.01738 0.0
C478 C 0.5277 0.0936 0.01536 0.0
C479 C 0.50533 0.07632 0.01834 0.0
C480 C 0.48925 0.08122 0.02415 0.0
C481 C 0.49556 0.1032 0.02655 0.0
C482 C 0.54568 0.08905 0.00993 0.0
C483 C 0.4653 0.06329 0.02754 0.0
C484 C 0.49588 0.93699 0.06918 0.0
C485 C 0.48024 0.94446 0.07556 0.0
C486 C 0.49129 0.9798 0.0643 0.0
C487 C 0.51163 0.99565 0.05768 0.0
C488 C 0.5118 0.0084 0.04507 0.0
C489 C 0.49109 0.00558 0.03936 0.0
C490 C 0.47053 0.99031 0.04662 0.0
C491 C 0.47084 0.97738 0.05896 0.0
C492 C 0.53406 0.02457 0.03768 0.0
C493 C 0.44827 0.98749 0.04121 0.0
C494 C 0.4783 0.98399 0.96363 0.0
C495 C 0.48276 0.99806 0.95094 0.0
C496 C 0.48865 0.01984 0.95327 0.0
C497 C 0.48947 0.02776 0.96864 0.0
C498 C 0.49408 0.04921 0.97134 0.0
C499 C 0.49639 0.05737 0.98654 0.0
C500 C 0.49464 0.04452 0.99961 0.0
C501 C 0.49859 0.05316 0.01508 0.0
C502 C 0.49679 0.03993 0.02777 0.0
C503 C 0.49101 0.01815 0.02549 0.0
C504 C 0.48674 0.00913 0.01014 0.0
C505 C 0.48066 0.98721 0.00741 0.0
C506 C 0.4771 0.97869 0.99223 0.0
C507 C 0.48031 0.99199 0.97915 0.0
C508 C 0.48601 0.014 0.98164 0.0
C509 C 0.48893 0.0225 0.99715 0.0
C510 C 0.52632 0.17345 0.01306 0.0
C511 C 0.53649 0.15894 0.01543 0.0
O512 O 0.45892 0.8992 0.94599 0.0
O513 O 0.49181 0.9672 0.07601 0.0
O514 O 0.52193 0.14124 0.02461 0.0
O515 O 0.51972 0.07573 0.90039 0.0
H516 H 0.42834 0.88406 0.93426 0.0
H517 H 0.45685 0.91636 0.91846 0.0
H518 H 0.47379 0.90383 0.91659 0.0
H519 H 0.446 0.89133 0.9075 0.0
H520 H 0.42901 0.91259 0.94587 0.0
H521 H 0.4968 0.9297 0.95769 0.0
H522 H 0.4359 0.96272 0.94403 0.0
H523 H 0.4152 0.93602 0.95125 0.0
H524 H 0.4313 0.95865 0.96474 0.0
H525 H 0.52505 0.96584 0.96469 0.0
H526 H 0.51982 0.98758 0.95985 0.0
H527 H 0.51354 0.97587 0.97908 0.0
H528 H 0.55388 0.08562 0.89817 0.0
H529 H 0.55503 0.10135 0.87492 0.0
H530 H 0.52862 0.09578 0.8763 0.0
H531 H 0.55681 0.13669 0.89239 0.0
H532 H 0.54601 0.07408 0.92331 0.0
H533 H 0.47783 0.0481 0.90657 0.0
H534 H 0.53721 0.05736 0.96002 0.0
H535 H 0.53325 0.03242 0.95165 0.0
H536 H 0.55493 0.0586 0.94423 0.0
H537 H 0.44627 0.02289 0.92147 0.0
H538 H 0.45159 0.00213 0.92875 0.0
H539 H 0.45106 0.02126 0.94221 0.0
H540 H 0.53788 0.15307 0.00358 0.0
H541 H 0.55028 0.1287 0.01488 0.0
H542 H 0.48337 0.10718 0.03092 0.0
H543 H 0.54265 0.08404 0.99737 0.0
H544 H 0.56294 0.10375 0.01114 0.0
H545 H 0.545 0.0754 0.01672 0.0
H546 H 0.45432 0.06993 0.03057 0.0
H547 H 0.45784 0.05218 0.0172 0.0
H548 H 0.46538 0.05331 0.03753 0.0
H549 H 0.46518 0.93791 0.06759 0.0
H550 H 0.48688 0.91878 0.06844 0.0
H551 H 0.50145 0.94361 0.05719 0.0
H552 H 0.5111 0.94302 0.07687 0.0
H553 H 0.52732 0.99751 0.06212 0.0
H554 H 0.45519 0.96549 0.06451 0.0
H555 H 0.53325 0.02135 0.02485 0.0
H556 H 0.53737 0.04149 0.03929 0.0
H557 H 0.54847 0.02377 0.04286 0.0
H558 H 0.43422 0.97681 0.04919 0.0
H559 H 0.44963 0.00373 0.04047 0.0
H560 H 0.44399 0.98003 0.02928 0.0
H561 H 0.48231 0.99213 0.93911 0.0
H562 H 0.4961 0.05997 0.9617 0.0
H563 H 0.50003 0.07403 0.98789 0.0
H564 H 0.50028 0.04678 0.03958 0.0
H565 H 0.4786 0.97636 0.01699 0.0
H566 H 0.47235 0.96168 0.99085 0.0
H567 H 0.52465 0.17999 0.02451 0.0
H568 H 0.53712 0.18742 0.00524 0.0
H569 H 0.50926 0.1637 0.0075 0.0
C570 C 0.57766 0.47499 0.07846 0.0
C571 C 0.57989 0.46578 0.09421 0.0
C572 C 0.56939 0.48654 0.11158 0.0
C573 C 0.54596 0.47164 0.11219 0.0
C574 C 0.53122 0.47846 0.11726 0.0
C575 C 0.54004 0.5007 0.12156 0.0
C576 C 0.56369 0.51566 0.12119 0.0
C577 C 0.57808 0.50823 0.11651 0.0
C578 C 0.50615 0.46197 0.11777 0.0
C579 C 0.5737 0.5396 0.12534 0.0
C580 C 0.47168 0.57125 0.04124 0.0
C581 C 0.48241 0.56915 0.05581 0.0
C582 C 0.47895 0.54167 0.07454 0.0
C583 C 0.4959 0.55698 0.08481 0.0
C584 C 0.50236 0.55007 0.09823 0.0
C585 C 0.49134 0.52741 0.10168 0.0
C586 C 0.47392 0.51197 0.09159 0.0
C587 C 0.46802 0.51934 0.07809 0.0
C588 C 0.52127 0.56704 0.10858 0.0
C589 C 0.46172 0.48772 0.09501 0.0
C590 C 0.43177 0.55325 0.18593 0.0
C591 C 0.45317 0.56845 0.18009 0.0
C592 C 0.46955 0.56257 0.17796 0.0
C593 C 0.46406 0.54082 0.18124 0.0
C594 C 0.44266 0.5257 0.18756 0.0
C595 C 0.42694 0.5323 0.19008 0.0
C596 C 0.49259 0.57956 0.17203 0.0
C597 C 0.4362 0.50245 0.19132 0.0
C598 C 0.60045 0.5244 0.23335 0.0
C599 C 0.57464 0.51107 0.23433 0.0
C600 C 0.55144 0.52506 0.22416 0.0
C601 C 0.5555 0.54487 0.21789 0.0
C602 C 0.54124 0.54522 0.20619 0.0
C603 C 0.52205 0.52525 0.20109 0.0
C604 C 0.51697 0.50527 0.20827 0.0
C605 C 0.53193 0.50536 0.21962 0.0
C606 C 0.5471 0.56687 0.19893 0.0
C607 C 0.4961 0.48382 0.20364 0.0
C608 C 0.52435 0.50846 0.12541 0.0
C609 C 0.51408 0.51288 0.11289 0.0
C610 C 0.49891 0.52001 0.11547 0.0
C611 C 0.49316 0.52216 0.13098 0.0
C612 C 0.4769 0.52796 0.13397 0.0
C613 C 0.47217 0.53109 0.14927 0.0
C614 C 0.48397 0.52912 0.16213 0.0
C615 C 0.48036 0.53366 0.17767 0.0
C616 C 0.49259 0.53173 0.19013 0.0
C617 C 0.50829 0.52522 0.18755 0.0
C618 C 0.51184 0.52024 0.17213 0.0
C619 C 0.52728 0.51334 0.16911 0.0
C620 C 0.53088 0.50879 0.15388 0.0
C621 C 0.51989 0.51183 0.14102 0.0
C622 C 0.50419 0.51868 0.14379 0.0
C623 C 0.49987 0.52253 0.15938 0.0
C624 C 0.38526 0.55896 0.17482 0.0
C625 C 0.41088 0.5706 0.1774 0.0
O626 O 0.58408 0.48072 0.1062 0.0
O627 O 0.56671 0.52547 0.23451 0.0
O628 O 0.41547 0.55832 0.18776 0.0
O629 O 0.47289 0.54778 0.06111 0.0
H630 H 0.56398 0.45003 0.09648 0.0
H631 H 0.56324 0.47778 0.07874 0.0
H632 H 0.59338 0.49083 0.07598 0.0
H633 H 0.57442 0.46321 0.06875 0.0
H634 H 0.53902 0.45466 0.10885 0.0
H635 H 0.5962 0.51955 0.1161 0.0
H636 H 0.49736 0.46575 0.10841 0.0
H637 H 0.50225 0.44486 0.116 0.0
H638 H 0.4992 0.46307 0.12922 0.0
H639 H 0.59216 0.54946 0.12308 0.0
H640 H 0.56513 0.54656 0.11844 0.0
H641 H 0.57095 0.54126 0.13795 0.0
H642 H 0.50129 0.57815 0.0556 0.0
H643 H 0.48524 0.57734 0.03209 0.0
H644 H 0.46141 0.55421 0.03611 0.0
H645 H 0.45716 0.58941 0.04851 0.0
H646 H 0.50436 0.57436 0.08237 0.0
H647 H 0.4549 0.50764 0.07017 0.0
H648 H 0.51437 0.56779 0.12013 0.0
H649 H 0.53418 0.56241 0.11073 0.0
H650 H 0.52972 0.5837 0.10336 0.0
H651 H 0.44693 0.4781 0.08703 0.0
H652 H 0.47358 0.48167 0.09361 0.0
H653 H 0.45586 0.48472 0.10735 0.0
H654 H 0.41849 0.57137 0.16575 0.0
H655 H 0.45712 0.58492 0.17732 0.0
H656 H 0.41045 0.52084 0.19481 0.0
H657 H 0.49385 0.57631 0.15945 0.0
H658 H 0.49567 0.59647 0.17314 0.0
H659 H 0.50613 0.57868 0.17857 0.0
H660 H 0.41819 0.49218 0.19476 0.0
H661 H 0.43915 0.49471 0.181 0.0
H662 H 0.447 0.5026 0.20114 0.0
H663 H 0.56823 0.50026 0.2237 0.0
H664 H 0.60734 0.51331 0.23279 0.0
H665 H 0.60557 0.53456 0.22258 0.0
H666 H 0.60793 0.53546 0.24373 0.0
H667 H 0.57045 0.55999 0.22173 0.0
H668 H 0.52847 0.4901 0.22493 0.0
H669 H 0.54841 0.56601 0.18599 0.0
H670 H 0.53342 0.57032 0.20127 0.0
H671 H 0.5633 0.58075 0.20362 0.0
H672 H 0.49269 0.47047 0.21198 0.0
H673 H 0.48111 0.48574 0.2031 0.0
H674 H 0.49837 0.47882 0.19177 0.0
H675 H 0.51835 0.51121 0.10094 0.0
H676 H 0.46766 0.53015 0.12449 0.0
H677 H 0.45943 0.53549 0.15084 0.0
H678 H 0.49008 0.53565 0.20198 0.0
H679 H 0.53675 0.51131 0.17849 0.0
H680 H 0.5428 0.50335 0.15229 0.0
H681 H 0.37664 0.5578 0.18604 0.0
H682 H 0.38097 0.56795 0.16613 0.0
H683 H 0.37881 0.54209 0.1702 0.0
C684 C 0.58466 0.34552 0.40339 0.0
O685 O 0.57985 0.3556 0.41423 0.0
O686 O 0.64068 0.40299 0.38483 0.0
Zn687 Zn 0.6073 0.3885 0.38897 0.0
O688 O 0.60224 0.40036 0.40899 0.0
C689 C 0.57972 0.40244 0.37258 0.0
O690 O 0.57522 0.40593 0.38687 0.0
O691 O 0.59536 0.35606 0.39128 0.0
C692 C 0.61312 0.4205 0.41299 0.0
O693 O 0.62907 0.43488 0.40382 0.0
C694 C 0.65422 0.40426 0.3956 0.0
O695 O 0.64627 0.39683 0.40964 0.0
O696 O 0.59236 0.39447 0.37069 0.0
C697 C 0.26165 0.66456 0.55292 0.0
O698 O 0.26564 0.6509 0.5452 0.0
O699 O 0.25389 0.61639 0.56781 0.0
Zn700 Zn 0.22968 0.62403 0.56561 0.0
O701 O 0.21055 0.60976 0.54624 0.0
C702 C 0.21707 0.6119 0.5981 0.0
O703 O 0.23798 0.61628 0.59958 0.0
O704 O 0.24582 0.65685 0.5629 0.0
C705 C 0.19046 0.59336 0.54668 0.0
O706 O 0.18173 0.58459 0.5603 0.0
C707 C 0.25123 0.59766 0.57062 0.0
O708 O 0.2307 0.58061 0.57213 0.0
O709 O 0.21014 0.6146 0.58488 0.0
C710 C 0.60186 0.2693 0.72042 0.0
O711 O 0.60957 0.2626 0.70899 0.0
O712 O 0.64166 0.25453 0.74105 0.0
Zn713 Zn 0.60794 0.23807 0.73754 0.0
O714 O 0.59842 0.21763 0.71885 0.0
C715 C 0.6034 0.2134 0.765 0.0
O716 O 0.62289 0.21685 0.75994 0.0
O717 O 0.59913 0.26067 0.73389 0.0
C718 C 0.60491 0.20397 0.71707 0.0
O719 O 0.61862 0.20331 0.72757 0.0
C720 C 0.65649 0.26181 0.73038 0.0
O721 O 0.65001 0.258 0.71557 0.0
O722 O 0.5931 0.2209 0.75715 0.0
C723 C 0.43317 0.68093 0.90647 0.0
O724 O 0.44016 0.67216 0.91699 0.0
O725 O 0.37642 0.62161 0.8892 0.0
Zn726 Zn 0.4101 0.63712 0.89264 0.0
O727 O 0.41726 0.62642 0.91246 0.0
C728 C 0.41389 0.61844 0.86342 0.0
O729 O 0.39169 0.60805 0.8636 0.0
O730 O 0.42114 0.66933 0.89489 0.0
C731 C 0.40316 0.6092 0.91973 0.0
O732 O 0.3825 0.59697 0.91408 0.0
C733 C 0.36493 0.62745 0.89721 0.0
O734 O 0.37529 0.64313 0.90779 0.0
O735 O 0.42519 0.63181 0.87448 0.0
C736 C 0.75572 0.41438 0.07777 0.0
O737 O 0.77501 0.42528 0.08553 0.0
O738 O 0.75234 0.35331 0.06304 0.0
Zn739 Zn 0.77232 0.38566 0.06757 0.0
O740 O 0.79042 0.39089 0.08763 0.0
C741 C 0.7912 0.39067 0.0364 0.0
O742 O 0.77332 0.37109 0.03398 0.0
O743 O 0.7516 0.39776 0.06952 0.0
C744 C 0.80908 0.40894 0.08936 0.0
O745 O 0.81593 0.42351 0.07808 0.0
C746 C 0.74125 0.33932 0.07358 0.0
O747 O 0.74375 0.34583 0.0883 0.0
O748 O 0.7939 0.40008 0.04964 0.0
C749 C 0.4301 0.772 0.22303 0.0
O750 O 0.42524 0.78128 0.21155 0.0
O751 O 0.38171 0.77527 0.24681 0.0
Zn752 Zn 0.41459 0.79538 0.24174 0.0
O753 O 0.417 0.81342 0.22273 0.0
C754 C 0.42617 0.80891 0.27427 0.0
O755 O 0.41264 0.78785 0.2769 0.0
O756 O 0.42776 0.7763 0.23715 0.0
C757 C 0.42448 0.83391 0.2235 0.0
O758 O 0.43066 0.84398 0.23719 0.0
C759 C 0.36822 0.7619 0.23645 0.0
O760 O 0.37595 0.76187 0.22242 0.0
O761 O 0.43012 0.8156 0.26019 0.0
H762 H 0.16356 0.64067 0.28747 0.0
H763 H 0.2044 0.66403 0.28411 0.0
H764 H 0.19747 0.64088 0.23631 0.0
H765 H 0.15673 0.61666 0.23989 0.0
H766 H 0.23424 0.64507 0.24876 0.0
H767 H 0.2015 0.69082 0.24637 0.0
H768 H 0.1791 0.70635 0.25619 0.0
H769 H 0.22317 0.73292 0.29652 0.0
H770 H 0.24566 0.71728 0.28704 0.0
H771 H 0.33484 0.73218 0.21676 0.0
H772 H 0.29543 0.70598 0.22307 0.0
H773 H 0.30796 0.72944 0.27102 0.0
H774 H 0.34737 0.75601 0.26474 0.0
H775 H 0.26919 0.72471 0.25993 0.0
H776 H 0.30282 0.67999 0.26148 0.0
H777 H 0.32524 0.66479 0.25121 0.0
H778 H 0.27973 0.63697 0.21172 0.0
H779 H 0.25703 0.65211 0.22173 0.0
C780 C 0.1708 0.64018 0.27636 0.0
C781 C 0.15698 0.62653 0.264 0.0
C782 C 0.19414 0.65374 0.2744 0.0
C783 C 0.204 0.6545 0.25987 0.0
C784 C 0.19029 0.64056 0.24764 0.0
C785 C 0.16703 0.62675 0.24968 0.0
C786 C 0.22841 0.67035 0.25717 0.0
C787 C 0.24181 0.66251 0.25107 0.0
C788 C 0.23848 0.69308 0.26046 0.0
C789 C 0.22513 0.7027 0.26607 0.0
C790 C 0.20633 0.69986 0.25738 0.0
C791 C 0.19363 0.70869 0.26288 0.0
C792 C 0.19967 0.72057 0.27698 0.0
C793 C 0.21849 0.72369 0.2856 0.0
C794 C 0.23123 0.71486 0.28017 0.0
C795 C 0.32924 0.73179 0.22866 0.0
C796 C 0.34427 0.74616 0.24025 0.0
C797 C 0.30672 0.7167 0.23227 0.0
C798 C 0.29882 0.71553 0.24758 0.0
C799 C 0.31371 0.73002 0.25914 0.0
C800 C 0.33624 0.74517 0.25553 0.0
C801 C 0.27491 0.69944 0.25143 0.0
C802 C 0.26163 0.70725 0.25773 0.0
C803 C 0.26493 0.67672 0.24823 0.0
C804 C 0.27834 0.66733 0.24229 0.0
C805 C 0.29766 0.67073 0.25056 0.0
C806 C 0.31042 0.66211 0.24479 0.0
C807 C 0.30401 0.65001 0.23078 0.0
C808 C 0.28471 0.64638 0.22256 0.0
C809 C 0.27185 0.65492 0.2283 0.0
H810 H 0.31396 0.64341 0.22632 0.0
H811 H 0.18981 0.72738 0.28123 0.0
H812 H 0.60511 0.1767 0.42491 0.0
H813 H 0.59597 0.20262 0.41302 0.0
H814 H 0.57489 0.21301 0.45812 0.0
H815 H 0.58353 0.18675 0.46995 0.0
H816 H 0.54765 0.21266 0.43482 0.0
H817 H 0.62787 0.24734 0.44518 0.0
H818 H 0.66547 0.25131 0.44326 0.0
H819 H 0.66322 0.25645 0.39311 0.0
H820 H 0.62542 0.25215 0.39473 0.0
H821 H 0.56796 0.32091 0.42987 0.0
H822 H 0.56538 0.28614 0.43576 0.0
H823 H 0.58868 0.28442 0.38924 0.0
H824 H 0.59186 0.31957 0.38337 0.0
H825 H 0.6124 0.27783 0.41044 0.0
H826 H 0.53333 0.24766 0.40084 0.0
H827 H 0.49623 0.24458 0.40356 0.0
H828 H 0.49651 0.23197 0.45284 0.0
H829 H 0.53376 0.23528 0.45046 0.0
C830 C 0.59802 0.18414 0.43218 0.0
C831 C 0.59481 0.17958 0.44832 0.0
C832 C 0.59293 0.19902 0.42541 0.0
C833 C 0.58497 0.20992 0.43472 0.0
C834 C 0.58093 0.20474 0.45071 0.0
C835 C 0.58591 0.18979 0.45746 0.0
C836 C 0.58258 0.22797 0.42818 0.0
C837 C 0.56179 0.22697 0.42954 0.0
C838 C 0.60094 0.24644 0.42103 0.0
C839 C 0.62372 0.24916 0.42006 0.0
C840 C 0.63532 0.24914 0.43374 0.0
C841 C 0.65667 0.25147 0.43271 0.0
C842 C 0.6667 0.25406 0.41807 0.0
C843 C 0.65541 0.25439 0.40444 0.0
C844 C 0.63403 0.25201 0.4054 0.0
C845 C 0.5722 0.31299 0.42078 0.0
C846 C 0.58024 0.32309 0.40618 0.0
C847 C 0.57058 0.293 0.42415 0.0
C848 C 0.57666 0.28254 0.4129 0.0
C849 C 0.58389 0.29219 0.3981 0.0
C850 C 0.58566 0.31227 0.39476 0.0
C851 C 0.57745 0.26266 0.41711 0.0
C852 C 0.59804 0.26337 0.41543 0.0
C853 C 0.55893 0.24403 0.42403 0.0
C854 C 0.53643 0.24186 0.42548 0.0
C855 C 0.52556 0.24437 0.41228 0.0
C856 C 0.50448 0.24256 0.41376 0.0
C857 C 0.49404 0.23812 0.42837 0.0
C858 C 0.50462 0.23542 0.44153 0.0
C859 C 0.5257 0.23723 0.44012 0.0
H860 H 0.47773 0.23673 0.42949 0.0
H861 H 0.68323 0.25587 0.41729 0.0
H862 H 0.41227 0.57343 0.62543 0.0
H863 H 0.37686 0.56845 0.6145 0.0
H864 H 0.41414 0.63117 0.59165 0.0
H865 H 0.44968 0.63591 0.60206 0.0
H866 H 0.37652 0.62376 0.61246 0.0
H867 H 0.39442 0.59158 0.56919 0.0
H868 H 0.4039 0.56585 0.55706 0.0
H869 H 0.34158 0.5112 0.57344 0.0
H870 H 0.3319 0.53664 0.5859 0.0
H871 H 0.29542 0.62952 0.56707 0.0
H872 H 0.32886 0.6281 0.57441 0.0
H873 H 0.2866 0.56067 0.58852 0.0
H874 H 0.25276 0.56185 0.58104 0.0
H875 H 0.32534 0.56811 0.57311 0.0
H876 H 0.30641 0.59837 0.61593 0.0
H877 H 0.29601 0.62274 0.62918 0.0
H878 H 0.35903 0.67908 0.61565 0.0
H879 H 0.36966 0.65506 0.60207 0.0
C880 C 0.41293 0.58604 0.61794 0.0
C881 C 0.43368 0.60528 0.61486 0.0
C882 C 0.39273 0.58315 0.61169 0.0
C883 C 0.39298 0.59951 0.60238 0.0
C884 C 0.41368 0.61843 0.5989 0.0
C885 C 0.43391 0.62115 0.6049 0.0
C886 C 0.37154 0.59755 0.59706 0.0
C887 C 0.36546 0.6118 0.60371 0.0
C888 C 0.35678 0.58133 0.58612 0.0
C889 C 0.36258 0.56602 0.57865 0.0
C890 C 0.38286 0.57408 0.57037 0.0
C891 C 0.38824 0.55955 0.56339 0.0
C892 C 0.37339 0.5369 0.56452 0.0
C893 C 0.35309 0.52875 0.5726 0.0
C894 C 0.34764 0.54322 0.57961 0.0
C895 C 0.29314 0.61428 0.5716 0.0
C896 C 0.27138 0.59586 0.57365 0.0
C897 C 0.31231 0.61352 0.57581 0.0
C898 C 0.31018 0.5944 0.58224 0.0
C899 C 0.28857 0.57561 0.58362 0.0
C900 C 0.26928 0.57634 0.57938 0.0
C901 C 0.33056 0.59468 0.58827 0.0
C902 C 0.33638 0.58006 0.58187 0.0
C903 C 0.34499 0.61036 0.59965 0.0
C904 C 0.33873 0.62491 0.60785 0.0
C905 C 0.31797 0.61597 0.61566 0.0
C906 C 0.31205 0.62972 0.62325 0.0
C907 C 0.32683 0.65245 0.62323 0.0
C908 C 0.34759 0.66147 0.61564 0.0
C909 C 0.35358 0.64779 0.608 0.0
H910 H 0.32222 0.66307 0.62912 0.0
H911 H 0.37758 0.52568 0.55911 0.0
H912 H 0.82223 0.40863 0.80537 0.0
H913 H 0.79447 0.37448 0.79225 0.0
H914 H 0.81655 0.40571 0.74719 0.0
H915 H 0.84355 0.44021 0.76035 0.0
H916 H 0.77346 0.38561 0.74799 0.0
H917 H 0.82654 0.36388 0.76081 0.0
H918 H 0.85254 0.35852 0.7777 0.0
H919 H 0.79715 0.31476 0.80691 0.0
H920 H 0.77085 0.3201 0.79034 0.0
H921 H 0.69201 0.28682 0.71092 0.0
H922 H 0.73035 0.31555 0.71872 0.0
H923 H 0.71357 0.29949 0.76743 0.0
H924 H 0.6754 0.27068 0.75978 0.0
H925 H 0.75777 0.31111 0.76126 0.0
H926 H 0.70701 0.33826 0.7511 0.0
H927 H 0.68051 0.34315 0.73443 0.0
H928 H 0.73244 0.37698 0.70025 0.0
H929 H 0.75914 0.37188 0.71661 0.0
C930 C 0.82141 0.40804 0.79265 0.0
C931 C 0.8353 0.42697 0.7839 0.0
C932 C 0.80565 0.38848 0.78514 0.0
C933 C 0.80366 0.38733 0.76868 0.0
C934 C 0.81787 0.40612 0.75989 0.0
C935 C 0.8334 0.42581 0.76742 0.0
C936 C 0.7853 0.3672 0.76081 0.0
C937 C 0.77045 0.36939 0.75061 0.0
C938 C 0.78098 0.34591 0.76442 0.0
C939 C 0.79673 0.3425 0.77436 0.0
C940 C 0.81991 0.35322 0.77089 0.0
C941 C 0.83471 0.35017 0.7804 0.0
C942 C 0.8265 0.33633 0.79338 0.0
C943 C 0.80348 0.32547 0.79685 0.0
C944 C 0.78861 0.32848 0.78739 0.0
C945 C 0.69662 0.2891 0.72327 0.0
C946 C 0.68055 0.27673 0.73474 0.0
C947 C 0.71852 0.30553 0.7277 0.0
C948 C 0.72466 0.30983 0.74366 0.0
C949 C 0.70916 0.29645 0.75506 0.0
C950 C 0.68729 0.28009 0.75065 0.0
C951 C 0.74609 0.32971 0.74867 0.0
C952 C 0.76131 0.32744 0.75839 0.0
C953 C 0.75084 0.35096 0.74463 0.0
C954 C 0.73497 0.35446 0.73498 0.0
C955 C 0.71273 0.34662 0.73998 0.0
C956 C 0.69768 0.34944 0.73059 0.0
C957 C 0.70477 0.36033 0.71626 0.0
C958 C 0.72696 0.36851 0.71133 0.0
C959 C 0.74205 0.36565 0.72065 0.0
H960 H 0.69309 0.36246 0.70898 0.0
H961 H 0.83799 0.334 0.80074 0.0
H962 H 0.47006 0.87191 0.9497 0.0
H963 H 0.46775 0.83677 0.94664 0.0
H964 H 0.41722 0.81829 0.91001 0.0
H965 H 0.41811 0.85278 0.91392 0.0
H966 H 0.40629 0.7845 0.92604 0.0
H967 H 0.47682 0.8392 0.90333 0.0
H968 H 0.51422 0.87331 0.90317 0.0
H969 H 0.53716 0.84882 0.94061 0.0
H970 H 0.49979 0.81467 0.94112 0.0
H971 H 0.4177 0.70233 0.88839 0.0
H972 H 0.42095 0.73759 0.8939 0.0
H973 H 0.46012 0.74513 0.93578 0.0
H974 H 0.45706 0.70985 0.93034 0.0
H975 H 0.47715 0.78377 0.91838 0.0
H976 H 0.40587 0.72765 0.9393 0.0
H977 H 0.36875 0.69331 0.93768 0.0
H978 H 0.34743 0.72077 0.90131 0.0
H979 H 0.38457 0.75517 0.90255 0.0
C980 C 0.45821 0.86033 0.94112 0.0
C981 C 0.44431 0.86528 0.93195 0.0
C982 C 0.45711 0.84025 0.93926 0.0
C983 C 0.44276 0.82504 0.92779 0.0
C984 C 0.42853 0.82975 0.91889 0.0
C985 C 0.42915 0.84953 0.92106 0.0
C986 C 0.44268 0.80434 0.92489 0.0
C987 C 0.4218 0.78446 0.92418 0.0
C988 C 0.46291 0.80407 0.92277 0.0
C989 C 0.48546 0.82448 0.92236 0.0
C990 C 0.48981 0.84115 0.91158 0.0
C991 C 0.511 0.86048 0.91142 0.0
C992 C 0.52803 0.86325 0.9219 0.0
C993 C 0.52394 0.84666 0.93252 0.0
C994 C 0.50277 0.82731 0.93273 0.0
C995 C 0.42721 0.71156 0.89869 0.0
C996 C 0.43701 0.70321 0.90898 0.0
C997 C 0.42896 0.73166 0.90185 0.0
C998 C 0.44049 0.74377 0.91536 0.0
C999 C 0.45108 0.73596 0.92532 0.0
C1000 C 0.44928 0.71579 0.9222 0.0
C1001 C 0.44083 0.76423 0.91931 0.0
C1002 C 0.46171 0.78396 0.92027 0.0
C1003 C 0.42061 0.76442 0.92142 0.0
C1004 C 0.39807 0.74393 0.92094 0.0
C1005 C 0.39331 0.72633 0.9309 0.0
C1006 C 0.37226 0.70685 0.93006 0.0
C1007 C 0.35576 0.70484 0.91938 0.0
C1008 C 0.36024 0.72235 0.90957 0.0
C1009 C 0.38128 0.74184 0.91035 0.0
H1010 H 0.33949 0.68974 0.91872 0.0
H1011 H 0.54442 0.87823 0.92177 0.0
H1012 H 0.57825 0.43014 0.08086 0.0
H1013 H 0.60861 0.42225 0.07813 0.0
H1014 H 0.65452 0.48244 0.10288 0.0
H1015 H 0.62455 0.49099 0.10482 0.0
H1016 H 0.67536 0.47823 0.07963 0.0
H1017 H 0.62978 0.42951 0.12036 0.0
H1018 H 0.59468 0.40092 0.13269 0.0
H1019 H 0.5863 0.35492 0.09661 0.0
H1020 H 0.6212 0.38332 0.08394 0.0
H1021 H 0.75893 0.44909 0.09417 0.0
H1022 H 0.72976 0.45864 0.09713 0.0
H1023 H 0.68436 0.40371 0.06752 0.0
H1024 H 0.7133 0.39393 0.06458 0.0
H1025 H 0.66398 0.40567 0.09417 0.0
H1026 H 0.71013 0.45556 0.05358 0.0
H1027 H 0.74579 0.48449 0.04207 0.0
H1028 H 0.75379 0.52874 0.0794 0.0
H1029 H 0.71832 0.49996 0.09126 0.0
C1030 C 0.5948 0.44159 0.0858 0.0
C1031 C 0.5988 0.46087 0.0934 0.0
C1032 C 0.61212 0.43703 0.08432 0.0
C1033 C 0.63375 0.45146 0.09066 0.0
C1034 C 0.63793 0.47094 0.09802 0.0
C1035 C 0.6207 0.47571 0.09925 0.0
C1036 C 0.65213 0.44645 0.0893 0.0
C1037 C 0.67295 0.46248 0.08306 0.0
C1038 C 0.64894 0.42576 0.09348 0.0
C1039 C 0.62801 0.4086 0.10113 0.0
C1040 C 0.62037 0.41334 0.115 0.0
C1041 C 0.60053 0.39716 0.12205 0.0
C1042 C 0.58824 0.37613 0.11542 0.0
C1043 C 0.59582 0.37122 0.10173 0.0
C1044 C 0.61565 0.38734 0.09462 0.0
C1045 C 0.74278 0.43909 0.08822 0.0
C1046 C 0.73846 0.42075 0.07913 0.0
C1047 C 0.72616 0.44462 0.08989 0.0
C1048 C 0.70495 0.43196 0.08246 0.0
C1049 C 0.70061 0.41369 0.07336 0.0
C1050 C 0.71722 0.40817 0.07165 0.0
C1051 C 0.68704 0.43739 0.08446 0.0
C1052 C 0.66634 0.42144 0.09082 0.0
C1053 C 0.69042 0.4582 0.08055 0.0
C1054 C 0.71169 0.47554 0.07339 0.0
C1055 C 0.71959 0.4714 0.0594 0.0
C1056 C 0.73975 0.48779 0.0528 0.0
C1057 C 0.75208 0.50842 0.06002 0.0
C1058 C 0.74424 0.51274 0.07383 0.0
C1059 C 0.7241 0.49641 0.08049 0.0
H1060 H 0.76768 0.52108 0.05489 0.0
H1061 H 0.57288 0.36363 0.1209 0.0
H1062 H 0.3882 0.87843 0.54581 0.0
H1063 H 0.35551 0.84101 0.54819 0.0
H1064 H 0.39301 0.81542 0.52563 0.0
H1065 H 0.42549 0.85265 0.52311 0.0
H1066 H 0.34971 0.79561 0.51459 0.0
H1067 H 0.38831 0.81496 0.5653 0.0
H1068 H 0.40375 0.83775 0.58926 0.0
H1069 H 0.33772 0.82574 0.60036 0.0
H1070 H 0.32195 0.80311 0.57634 0.0
H1071 H 0.30055 0.68579 0.53628 0.0
H1072 H 0.32489 0.72509 0.53229 0.0
H1073 H 0.27962 0.73701 0.55931 0.0
H1074 H 0.25535 0.69745 0.56378 0.0
H1075 H 0.32187 0.76522 0.56754 0.0
H1076 H 0.28221 0.74202 0.51857 0.0
H1077 H 0.26664 0.71923 0.49464 0.0
H1078 H 0.33375 0.73855 0.47998 0.0
H1079 H 0.34972 0.76123 0.50393 0.0
C1080 C 0.38927 0.8648 0.54116 0.0
C1081 C 0.40924 0.86845 0.53405 0.0
C1082 C 0.37069 0.84347 0.54261 0.0
C1083 C 0.37188 0.82544 0.53714 0.0
C1084 C 0.39167 0.8291 0.52984 0.0
C1085 C 0.41021 0.85036 0.5284 0.0
C1086 C 0.35293 0.80261 0.5394 0.0
C1087 C 0.34366 0.7889 0.52616 0.0
C1088 C 0.34455 0.7941 0.55446 0.0
C1089 C 0.35401 0.80757 0.56894 0.0
C1090 C 0.37712 0.81732 0.57279 0.0
C1091 C 0.38593 0.83018 0.58639 0.0
C1092 C 0.37174 0.83325 0.5963 0.0
C1093 C 0.3487 0.82339 0.59266 0.0
C1094 C 0.33982 0.81054 0.57906 0.0
C1095 C 0.29564 0.69671 0.54131 0.0
C1096 C 0.27594 0.68848 0.55029 0.0
C1097 C 0.30954 0.71922 0.53894 0.0
C1098 C 0.30387 0.73402 0.54522 0.0
C1099 C 0.28426 0.72589 0.55427 0.0
C1100 C 0.2704 0.7033 0.55679 0.0
C1101 C 0.31901 0.75798 0.54274 0.0
C1102 C 0.32756 0.77194 0.55592 0.0
C1103 C 0.32668 0.76676 0.5276 0.0
C1104 C 0.31715 0.75324 0.51311 0.0
C1105 C 0.29364 0.74131 0.5103 0.0
C1106 C 0.28474 0.72842 0.49672 0.0
C1107 C 0.29919 0.72742 0.48581 0.0
C1108 C 0.32258 0.73935 0.48844 0.0
C1109 C 0.33156 0.75225 0.502 0.0
H1110 H 0.29227 0.71742 0.47531 0.0
H1111 H 0.37858 0.84321 0.60683 0.0
H1112 H 0.55128 0.41188 0.67368 0.0
H1113 H 0.56495 0.38666 0.67726 0.0
H1114 H 0.56529 0.39465 0.72754 0.0
H1115 H 0.55308 0.42118 0.72396 0.0
H1116 H 0.59959 0.3915 0.72042 0.0
H1117 H 0.52058 0.34969 0.70624 0.0
H1118 H 0.48687 0.33957 0.68981 0.0
H1119 H 0.51678 0.32541 0.65102 0.0
H1120 H 0.5508 0.33573 0.66717 0.0
H1121 H 0.59094 0.2906 0.7422 0.0
H1122 H 0.58342 0.32025 0.73764 0.0
H1123 H 0.59456 0.31801 0.6881 0.0
H1124 H 0.6021 0.28835 0.69253 0.0
H1125 H 0.55562 0.31857 0.69431 0.0
H1126 H 0.63449 0.35989 0.70953 0.0
H1127 H 0.66753 0.36982 0.72662 0.0
H1128 H 0.63603 0.38327 0.76472 0.0
H1129 H 0.60277 0.37344 0.74783 0.0
C1130 C 0.5547 0.40867 0.6855 0.0
C1131 C 0.55123 0.41869 0.69858 0.0
C1132 C 0.56228 0.394 0.68754 0.0
C1133 C 0.56564 0.38831 0.70269 0.0
C1134 C 0.56277 0.39871 0.71573 0.0
C1135 C 0.55574 0.41381 0.71369 0.0
C1136 C 0.57139 0.37099 0.70499 0.0
C1137 C 0.58979 0.37548 0.71484 0.0
C1138 C 0.55887 0.35015 0.69754 0.0
C1139 C 0.53831 0.34366 0.68787 0.0
C1140 C 0.52001 0.34452 0.69418 0.0
C1141 C 0.50085 0.33875 0.68492 0.0
C1142 C 0.4997 0.3319 0.66937 0.0
C1143 C 0.5177 0.33074 0.66306 0.0
C1144 C 0.53691 0.33653 0.67227 0.0
C1145 C 0.59179 0.2964 0.73033 0.0
C1146 C 0.59708 0.2871 0.71772 0.0
C1147 C 0.58763 0.31344 0.72776 0.0
C1148 C 0.58864 0.32144 0.71255 0.0
C1149 C 0.59376 0.31209 0.69993 0.0
C1150 C 0.59807 0.29516 0.7025 0.0
C1151 C 0.5837 0.33912 0.70973 0.0
C1152 C 0.56542 0.33464 0.69982 0.0
C1153 C 0.59611 0.35983 0.71729 0.0
C1154 C 0.61607 0.36574 0.72746 0.0
C1155 C 0.63454 0.36482 0.72159 0.0
C1156 C 0.65333 0.37046 0.73123 0.0
C1157 C 0.65384 0.37704 0.74677 0.0
C1158 C 0.6356 0.37813 0.75268 0.0
C1159 C 0.61681 0.37259 0.74307 0.0
H1160 H 0.66839 0.38136 0.75422 0.0
H1161 H 0.48486 0.32745 0.66221 0.0
H1162 H 0.1533 0.56218 0.89224 0.0
H1163 H 0.19442 0.57987 0.89479 0.0
H1164 H 0.19337 0.53276 0.86221 0.0
H1165 H 0.15212 0.51461 0.86001 0.0
H1166 H 0.21905 0.53755 0.88665 0.0
H1167 H 0.21292 0.58689 0.85161 0.0
H1168 H 0.19974 0.61135 0.84241 0.0
H1169 H 0.23042 0.65299 0.88283 0.0
H1170 H 0.24353 0.6286 0.89239 0.0
H1171 H 0.33825 0.59404 0.87674 0.0
H1172 H 0.29759 0.57717 0.87202 0.0
H1173 H 0.29518 0.62027 0.90667 0.0
H1174 H 0.3359 0.63743 0.91134 0.0
H1175 H 0.2716 0.6176 0.88012 0.0
H1176 H 0.27667 0.56735 0.91537 0.0
H1177 H 0.29021 0.54302 0.92423 0.0
H1178 H 0.26171 0.50317 0.88275 0.0
H1179 H 0.24827 0.52745 0.87354 0.0
C1180 C 0.16192 0.55582 0.88546 0.0
C1181 C 0.1496 0.53738 0.87563 0.0
C1182 C 0.18539 0.56596 0.88689 0.0
C1183 C 0.19704 0.5579 0.87846 0.0
C1184 C 0.18476 0.53937 0.86872 0.0
C1185 C 0.16124 0.52912 0.86737 0.0
C1186 C 0.2219 0.56824 0.88036 0.0
C1187 C 0.23057 0.555 0.88496 0.0
C1188 C 0.2369 0.59109 0.87851 0.0
C1189 C 0.22903 0.60579 0.87279 0.0
C1190 C 0.2167 0.60116 0.8586 0.0
C1191 C 0.20927 0.61504 0.85331 0.0
C1192 C 0.21419 0.63368 0.86205 0.0
C1193 C 0.2266 0.63852 0.87608 0.0
C1194 C 0.23405 0.62469 0.88143 0.0
C1195 C 0.32908 0.59992 0.88338 0.0
C1196 C 0.34029 0.61701 0.89446 0.0
C1197 C 0.30583 0.59021 0.8807 0.0
C1198 C 0.29336 0.59734 0.8891 0.0
C1199 C 0.30452 0.61453 0.90007 0.0
C1200 C 0.32777 0.62424 0.90277 0.0
C1201 C 0.26865 0.58691 0.88645 0.0
C1202 C 0.26005 0.60014 0.88172 0.0
C1203 C 0.25371 0.56405 0.88813 0.0
C1204 C 0.26166 0.54935 0.8937 0.0
C1205 C 0.27344 0.5535 0.90809 0.0
C1206 C 0.28107 0.5397 0.91318 0.0
C1207 C 0.27687 0.5216 0.90404 0.0
C1208 C 0.26498 0.51722 0.88981 0.0
C1209 C 0.25733 0.53098 0.88466 0.0
H1210 H 0.2828 0.51093 0.908 0.0
H1211 H 0.20842 0.6444 0.85792 0.0
H1212 H 0.54919 0.16223 0.04691 0.0
H1213 H 0.58635 0.1872 0.05868 0.0
H1214 H 0.61297 0.21218 0.01276 0.0
H1215 H 0.57614 0.18639 0.00089 0.0
H1216 H 0.64426 0.2112 0.02968 0.0
H1217 H 0.59264 0.23729 0.03805 0.0
H1218 H 0.55759 0.2345 0.04758 0.0
H1219 H 0.57426 0.22587 0.09472 0.0
H1220 H 0.60927 0.22833 0.08541 0.0
H1221 H 0.72884 0.32207 0.04393 0.0
H1222 H 0.69671 0.28642 0.03627 0.0
H1223 H 0.68169 0.26932 0.08506 0.0
H1224 H 0.71362 0.30529 0.09285 0.0
H1225 H 0.64534 0.26263 0.06963 0.0
H1226 H 0.70107 0.24305 0.06077 0.0
H1227 H 0.73638 0.24741 0.05034 0.0
H1228 H 0.71268 0.24562 0.00321 0.0
H1229 H 0.67736 0.24155 0.01336 0.0
C1230 C 0.5631 0.17265 0.03929 0.0
C1231 C 0.55981 0.17226 0.02293 0.0
C1232 C 0.58431 0.18706 0.04605 0.0
C1233 C 0.60239 0.20188 0.03664 0.0
C1234 C 0.59933 0.20091 0.02028 0.0
C1235 C 0.57827 0.18624 0.0135 0.0
C1236 C 0.62396 0.21952 0.0438 0.0
C1237 C 0.64453 0.22251 0.03838 0.0
C1238 C 0.62435 0.23402 0.0554 0.0
C1239 C 0.60342 0.23275 0.06101 0.0
C1240 C 0.58875 0.23467 0.05043 0.0
C1241 C 0.56891 0.23316 0.05579 0.0
C1242 C 0.56367 0.22995 0.07174 0.0
C1243 C 0.57831 0.22831 0.08237 0.0
C1244 C 0.59816 0.22977 0.07706 0.0
C1245 C 0.71895 0.31062 0.05307 0.0
C1246 C 0.7237 0.31661 0.06902 0.0
C1247 C 0.70064 0.29013 0.04865 0.0
C1248 C 0.68685 0.27508 0.06009 0.0
C1249 C 0.6921 0.28067 0.07603 0.0
C1250 C 0.71038 0.30123 0.08047 0.0
C1251 C 0.66572 0.25457 0.05535 0.0
C1252 C 0.64517 0.2511 0.06118 0.0
C1253 C 0.66542 0.23983 0.044 0.0
C1254 C 0.6866 0.24212 0.03785 0.0
C1255 C 0.70344 0.24372 0.04819 0.0
C1256 C 0.72345 0.24612 0.04232 0.0
C1257 C 0.72678 0.24682 0.02612 0.0
C1258 C 0.71008 0.24507 0.01576 0.0
C1259 C 0.69004 0.24268 0.02156 0.0
H1260 H 0.74229 0.24869 0.02161 0.0
H1261 H 0.5483 0.22878 0.07587 0.0
H1262 H 0.42093 0.60685 0.16044 0.0
H1263 H 0.43065 0.64316 0.16991 0.0
H1264 H 0.43032 0.62273 0.21767 0.0
H1265 H 0.41938 0.586 0.20824 0.0
H1266 H 0.40817 0.64228 0.21646 0.0
H1267 H 0.48072 0.66117 0.19766 0.0
H1268 H 0.50849 0.66279 0.17886 0.0
H1269 H 0.49168 0.69879 0.14662 0.0
H1270 H 0.46356 0.69711 0.16512 0.0
H1271 H 0.44018 0.74867 0.24378 0.0
H1272 H 0.44426 0.71718 0.23787 0.0
H1273 H 0.43539 0.72436 0.18847 0.0
H1274 H 0.43182 0.75608 0.19421 0.0
H1275 H 0.46671 0.7127 0.1933 0.0
H1276 H 0.39037 0.68848 0.21149 0.0
H1277 H 0.36361 0.68746 0.23101 0.0
H1278 H 0.38974 0.66183 0.26544 0.0
H1279 H 0.41677 0.6629 0.24617 0.0
C1280 C 0.42333 0.61027 0.17294 0.0
C1281 C 0.41978 0.5937 0.18355 0.0
C1282 C 0.42903 0.63107 0.17836 0.0
C1283 C 0.4317 0.63592 0.19452 0.0
C1284 C 0.42852 0.61948 0.20515 0.0
C1285 C 0.42242 0.59851 0.19974 0.0
C1286 C 0.43595 0.65752 0.20032 0.0
C1287 C 0.42134 0.65768 0.21162 0.0
C1288 C 0.45288 0.6777 0.19388 0.0
C1289 C 0.46991 0.67889 0.18275 0.0
C1290 C 0.48284 0.66932 0.18652 0.0
C1291 C 0.49866 0.67026 0.17592 0.0
C1292 C 0.50182 0.68086 0.16155 0.0
C1293 C 0.48921 0.69058 0.15776 0.0
C1294 C 0.47335 0.68967 0.16831 0.0
C1295 C 0.43944 0.74375 0.23164 0.0
C1296 C 0.43539 0.75472 0.21948 0.0
C1297 C 0.44172 0.72571 0.22829 0.0
C1298 C 0.43971 0.71818 0.21275 0.0
C1299 C 0.43692 0.72984 0.20054 0.0
C1300 C 0.43479 0.74794 0.20387 0.0
C1301 C 0.43876 0.69725 0.2092 0.0
C1302 C 0.45388 0.69725 0.1983 0.0
C1303 C 0.42244 0.67721 0.21607 0.0
C1304 C 0.40572 0.67598 0.22746 0.0
C1305 C 0.39043 0.68269 0.22324 0.0
C1306 C 0.37523 0.6821 0.23425 0.0
C1307 C 0.37507 0.67468 0.24947 0.0
C1308 C 0.38994 0.66763 0.25366 0.0
C1309 C 0.40517 0.66819 0.2427 0.0
H1310 H 0.36345 0.67439 0.25804 0.0
H1311 H 0.51407 0.68156 0.15335 0.0
H1312 H 0.8456 0.4173 0.37329 0.0
H1313 H 0.81626 0.42233 0.38488 0.0
H1314 H 0.79691 0.43247 0.33874 0.0
H1315 H 0.82689 0.42838 0.32719 0.0
H1316 H 0.79269 0.45805 0.35939 0.0
H1317 H 0.77018 0.38148 0.35656 0.0
H1318 H 0.77418 0.34951 0.36184 0.0
H1319 H 0.77313 0.35969 0.41148 0.0
H1320 H 0.76946 0.39193 0.40648 0.0
H1321 H 0.67518 0.41759 0.36723 0.0
H1322 H 0.71332 0.42634 0.36069 0.0
H1323 H 0.72565 0.4173 0.40908 0.0
H1324 H 0.68735 0.40815 0.41569 0.0
H1325 H 0.73597 0.39432 0.39002 0.0
H1326 H 0.75312 0.46857 0.39211 0.0
H1327 H 0.7481 0.49972 0.38602 0.0
H1328 H 0.75783 0.49318 0.33703 0.0
H1329 H 0.7626 0.46178 0.34279 0.0
C1330 C 0.83551 0.42121 0.36567 0.0
C1331 C 0.83868 0.42268 0.34933 0.0
C1332 C 0.81862 0.4239 0.37229 0.0
C1333 C 0.80411 0.42742 0.36266 0.0
C1334 C 0.80789 0.42981 0.34642 0.0
C1335 C 0.82498 0.42743 0.33983 0.0
C1336 C 0.78388 0.42676 0.36922 0.0
C1337 C 0.78022 0.44408 0.36603 0.0
C1338 C 0.76779 0.40873 0.37815 0.0
C1339 C 0.7698 0.38924 0.38115 0.0
C1340 C 0.77095 0.37697 0.3686 0.0
C1341 C 0.77315 0.3588 0.37154 0.0
C1342 C 0.77397 0.35261 0.38699 0.0
C1343 C 0.77254 0.36453 0.39952 0.0
C1344 C 0.77039 0.38275 0.39664 0.0
C1345 C 0.68609 0.41775 0.37654 0.0
C1346 C 0.67815 0.41201 0.39197 0.0
C1347 C 0.70798 0.42291 0.3728 0.0
C1348 C 0.72243 0.42263 0.38442 0.0
C1349 C 0.71479 0.41763 0.39993 0.0
C1350 C 0.69289 0.41242 0.40368 0.0
C1351 C 0.74462 0.42553 0.3801 0.0
C1352 C 0.74859 0.40852 0.38363 0.0
C1353 C 0.76083 0.44375 0.37139 0.0
C1354 C 0.75806 0.4627 0.36788 0.0
C1355 C 0.75403 0.47366 0.38002 0.0
C1356 C 0.75125 0.49139 0.37663 0.0
C1357 C 0.7526 0.4984 0.36115 0.0
C1358 C 0.75678 0.48773 0.34902 0.0
C1359 C 0.75955 0.46998 0.35235 0.0
H1360 H 0.75045 0.51212 0.35854 0.0
H1361 H 0.77567 0.33853 0.38924 0.0
H1362 H 0.11439 0.593 0.41218 0.0
H1363 H 0.13087 0.58676 0.43561 0.0
H1364 H 0.06574 0.55585 0.45796 0.0
H1365 H 0.04955 0.56334 0.43486 0.0
H1366 H 0.09466 0.5824 0.47732 0.0
H1367 H 0.09304 0.52669 0.44563 0.0
H1368 H 0.0988 0.50986 0.42217 0.0
H1369 H 0.17064 0.55384 0.42626 0.0
H1370 H 0.16531 0.57117 0.44962 0.0
H1371 H 0.14506 0.56339 0.54396 0.0
H1372 H 0.12132 0.55395 0.52027 0.0
H1373 H 0.18019 0.59658 0.493 0.0
H1374 H 0.20404 0.60606 0.51655 0.0
H1375 H 0.14971 0.55722 0.47728 0.0
H1376 H 0.14863 0.61564 0.50689 0.0
H1377 H 0.14179 0.63106 0.53073 0.0
H1378 H 0.07243 0.57837 0.5307 0.0
H1379 H 0.07896 0.5625 0.50696 0.0
C1380 C 0.10354 0.58456 0.42201 0.0
C1381 C 0.08065 0.57847 0.42157 0.0
C1382 C 0.11291 0.58081 0.43538 0.0
C1383 C 0.09949 0.57041 0.44852 0.0
C1384 C 0.07645 0.5638 0.44796 0.0
C1385 C 0.06716 0.56797 0.43469 0.0
C1386 C 0.11004 0.56838 0.46328 0.0
C1387 C 0.10624 0.57634 0.47731 0.0
C1388 C 0.12542 0.56074 0.46338 0.0
C1389 C 0.12875 0.55033 0.44934 0.0
C1390 C 0.11006 0.53288 0.44147 0.0
C1391 C 0.11325 0.52323 0.42819 0.0
C1392 C 0.13507 0.53079 0.42272 0.0
C1393 C 0.15375 0.548 0.43052 0.0
C1394 C 0.15065 0.55772 0.4438 0.0
C1395 C 0.15301 0.57052 0.53289 0.0
C1396 C 0.17641 0.58568 0.53217 0.0
C1397 C 0.13941 0.56511 0.51937 0.0
C1398 C 0.14899 0.57474 0.50493 0.0
C1399 C 0.17248 0.58897 0.50404 0.0
C1400 C 0.18606 0.59446 0.51753 0.0
C1401 C 0.13451 0.57156 0.491 0.0
C1402 C 0.13768 0.56273 0.4772 0.0
C1403 C 0.11829 0.57808 0.49113 0.0
C1404 C 0.11434 0.58777 0.50527 0.0
C1405 C 0.13197 0.60728 0.51204 0.0
C1406 C 0.12814 0.61611 0.52551 0.0
C1407 C 0.10671 0.60567 0.53225 0.0
C1408 C 0.08903 0.58642 0.52549 0.0
C1409 C 0.09278 0.57751 0.51202 0.0
H1410 H 0.10378 0.61252 0.54269 0.0
H1411 H 0.1375 0.5233 0.41243 0.0
H1412 H 0.54662 0.04083 0.61337 0.0
H1413 H 0.55904 0.07161 0.63913 0.0
H1414 H 0.52245 0.10848 0.61253 0.0
H1415 H 0.5087 0.07846 0.58603 0.0
H1416 H 0.56786 0.13741 0.62517 0.0
H1417 H 0.50321 0.0762 0.64682 0.0
H1418 H 0.47771 0.03763 0.65429 0.0
H1419 H 0.52925 0.04072 0.68483 0.0
H1420 H 0.55522 0.07925 0.67736 0.0
H1421 H 0.57902 0.20301 0.69215 0.0
H1422 H 0.56419 0.1767 0.6703 0.0
H1423 H 0.59679 0.1437 0.68957 0.0
H1424 H 0.61159 0.16984 0.71151 0.0
H1425 H 0.55302 0.11496 0.68099 0.0
H1426 H 0.61845 0.17603 0.65815 0.0
H1427 H 0.64353 0.21467 0.65062 0.0
H1428 H 0.59022 0.21192 0.62229 0.0
H1429 H 0.56469 0.17332 0.62984 0.0
C1430 C 0.54107 0.05256 0.61358 0.0
C1431 C 0.5299 0.05897 0.5957 0.0
C1432 C 0.54966 0.07246 0.62918 0.0
C1433 C 0.54324 0.09406 0.6282 0.0
C1434 C 0.52666 0.09579 0.61234 0.0
C1435 C 0.51718 0.07663 0.59615 0.0
C1436 C 0.55108 0.11028 0.64106 0.0
C1437 C 0.56436 0.13258 0.63738 0.0
C1438 C 0.54676 0.10379 0.65692 0.0
C1439 C 0.53126 0.08056 0.66139 0.0
C1440 C 0.5092 0.0686 0.65501 0.0
C1441 C 0.49464 0.04675 0.65927 0.0
C1442 C 0.50188 0.0367 0.66999 0.0
C1443 C 0.52368 0.04851 0.6765 0.0
C1444 C 0.53833 0.07037 0.67227 0.0
C1445 C 0.58311 0.1902 0.69172 0.0
C1446 C 0.5965 0.18852 0.70357 0.0
C1447 C 0.57468 0.17523 0.67919 0.0
C1448 C 0.57952 0.15834 0.67827 0.0
C1449 C 0.59287 0.15662 0.69007 0.0
C1450 C 0.60138 0.17163 0.70257 0.0
C1451 C 0.57028 0.14217 0.66518 0.0
C1452 C 0.55657 0.11984 0.6688 0.0
C1453 C 0.57428 0.14865 0.64926 0.0
C1454 C 0.58958 0.17186 0.64471 0.0
C1455 C 0.612 0.18372 0.65043 0.0
C1456 C 0.62632 0.2056 0.64614 0.0
C1457 C 0.61846 0.21576 0.63602 0.0
C1458 C 0.59627 0.20404 0.63015 0.0
C1459 C 0.58188 0.18215 0.63443 0.0
H1460 H 0.62957 0.2327 0.6327 0.0
H1461 H 0.49057 0.01979 0.67329 0.0
H1462 H 0.47715 0.53915 0.74382 0.0
H1463 H 0.45707 0.55261 0.76772 0.0
H1464 H 0.53335 0.60788 0.78957 0.0
H1465 H 0.55567 0.59628 0.76615 0.0
H1466 H 0.49644 0.58011 0.81136 0.0
H1467 H 0.49907 0.62829 0.76939 0.0
H1468 H 0.49423 0.63602 0.74182 0.0
H1469 H 0.42484 0.58339 0.7422 0.0
H1470 H 0.42936 0.57539 0.76978 0.0
H1471 H 0.45941 0.63558 0.86033 0.0
H1472 H 0.47855 0.62702 0.84005 0.0
H1473 H 0.41419 0.58242 0.81788 0.0
H1474 H 0.39489 0.59108 0.83802 0.0
H1475 H 0.44516 0.607 0.79642 0.0
H1476 H 0.44064 0.56292 0.83997 0.0
H1477 H 0.44516 0.55481 0.86744 0.0
H1478 H 0.51721 0.59726 0.86437 0.0
H1479 H 0.51309 0.6059 0.83692 0.0
C1480 C 0.48751 0.55129 0.75264 0.0
C1481 C 0.51879 0.56926 0.75072 0.0
C1482 C 0.47527 0.56051 0.76704 0.0
C1483 C 0.49304 0.58265 0.78043 0.0
C1484 C 0.52343 0.59537 0.78086 0.0
C1485 C 0.53741 0.58746 0.7669 0.0
C1486 C 0.48219 0.5891 0.7923 0.0
C1487 C 0.48552 0.58634 0.80817 0.0
C1488 C 0.46745 0.59651 0.78801 0.0
C1489 C 0.46462 0.6011 0.7715 0.0
C1490 C 0.48282 0.61836 0.76354 0.0
C1491 C 0.48013 0.6228 0.74794 0.0
C1492 C 0.45926 0.61015 0.74024 0.0
C1493 C 0.44101 0.59312 0.74816 0.0
C1494 C 0.44361 0.58864 0.76378 0.0
C1495 C 0.44931 0.624 0.85112 0.0
C1496 C 0.4256 0.61391 0.85084 0.0
C1497 C 0.46028 0.61906 0.83957 0.0
C1498 C 0.44776 0.60386 0.82759 0.0
C1499 C 0.42415 0.59415 0.82706 0.0
C1500 C 0.41316 0.59908 0.83861 0.0
C1501 C 0.45931 0.59801 0.81565 0.0
C1502 C 0.45611 0.60083 0.79972 0.0
C1503 C 0.47395 0.59035 0.81993 0.0
C1504 C 0.47653 0.58526 0.83645 0.0
C1505 C 0.45743 0.5707 0.8452 0.0
C1506 C 0.45992 0.56597 0.86076 0.0
C1507 C 0.48145 0.57557 0.86767 0.0
C1508 C 0.50054 0.58988 0.85901 0.0
C1509 C 0.49814 0.59469 0.84345 0.0
H1510 H 0.48335 0.57188 0.87971 0.0
H1511 H 0.45722 0.61359 0.72816 0.0
H1512 H 0.93546 0.4365 0.91779 0.0
H1513 H 0.89955 0.4215 0.94051 0.0
H1514 H 0.94123 0.49289 0.9699 0.0
H1515 H 0.97816 0.51008 0.94791 0.0
H1516 H 0.91969 0.4525 0.98767 0.0
H1517 H 0.88711 0.47751 0.9478 0.0
H1518 H 0.87707 0.48109 0.9205 0.0
H1519 H 0.83864 0.41087 0.91546 0.0
H1520 H 0.84856 0.40695 0.94274 0.0
H1521 H 0.82923 0.43164 0.03712 0.0
H1522 H 0.85913 0.44798 0.01762 0.0
H1523 H 0.82316 0.3895 0.9889 0.0
H1524 H 0.79292 0.37324 0.00816 0.0
H1525 H 0.84018 0.42468 0.97101 0.0
H1526 H 0.86851 0.39926 0.01208 0.0
H1527 H 0.87852 0.39534 0.03926 0.0
H1528 H 0.92575 0.46478 0.04215 0.0
H1529 H 0.91577 0.46917 0.01503 0.0
C1530 C 0.93688 0.44664 0.92774 0.0
C1531 C 0.95871 0.47649 0.92887 0.0
C1532 C 0.91419 0.43789 0.94146 0.0
C1533 C 0.9158 0.4561 0.95691 0.0
C1534 C 0.94054 0.48295 0.96004 0.0
C1535 C 0.96412 0.49334 0.94695 0.0
C1536 C 0.89733 0.44786 0.9683 0.0
C1537 C 0.90234 0.44674 0.98412 0.0
C1538 C 0.87472 0.43978 0.96352 0.0
C1539 C 0.86879 0.44196 0.94716 0.0
C1540 C 0.87659 0.46286 0.94082 0.0
C1541 C 0.87089 0.46495 0.92538 0.0
C1542 C 0.85729 0.44622 0.91623 0.0
C1543 C 0.84924 0.42536 0.92254 0.0
C1544 C 0.85487 0.4232 0.93799 0.0
C1545 C 0.82761 0.42229 0.02661 0.0
C1546 C 0.80875 0.40107 0.02424 0.0
C1547 C 0.84478 0.43162 0.01551 0.0
C1548 C 0.84358 0.41982 0.00192 0.0
C1549 C 0.82448 0.39889 0.99932 0.0
C1550 C 0.80723 0.3896 0.01037 0.0
C1551 C 0.86239 0.42915 0.99053 0.0
C1552 C 0.85749 0.43046 0.97466 0.0
C1553 C 0.88511 0.43713 0.99528 0.0
C1554 C 0.8912 0.43457 0.01158 0.0
C1555 C 0.88089 0.41372 0.01855 0.0
C1556 C 0.88658 0.41141 0.03394 0.0
C1557 C 0.90271 0.42981 0.04244 0.0
C1558 C 0.91323 0.45055 0.03555 0.0
C1559 C 0.90757 0.45296 0.02017 0.0
H1560 H 0.9071 0.42799 0.05435 0.0
H1561 H 0.85293 0.44786 0.90427 0.0
H1562 H 0.44577 0.90354 0.08295 0.0
H1563 H 0.4344 0.88678 0.10882 0.0
H1564 H 0.4855 0.94752 0.13057 0.0
H1565 H 0.4977 0.9639 0.10469 0.0
H1566 H 0.48707 0.91611 0.14342 0.0
H1567 H 0.42655 0.92807 0.13208 0.0
H1568 H 0.3955 0.9268 0.11655 0.0
H1569 H 0.35943 0.85632 0.11688 0.0
H1570 H 0.39041 0.85716 0.13223 0.0
H1571 H 0.4466 0.8785 0.22029 0.0
H1572 H 0.45379 0.89924 0.19597 0.0
H1573 H 0.41623 0.83871 0.16966 0.0
H1574 H 0.40903 0.81779 0.1939 0.0
H1575 H 0.40722 0.87234 0.16042 0.0
H1576 H 0.47073 0.86218 0.17051 0.0
H1577 H 0.50189 0.86491 0.1868 0.0
H1578 H 0.53226 0.93491 0.18977 0.0
H1579 H 0.50108 0.93254 0.17367 0.0
C1580 C 0.45435 0.91336 0.09329 0.0
C1581 C 0.47226 0.93515 0.09178 0.0
C1582 C 0.44777 0.90384 0.10808 0.0
C1583 C 0.45874 0.91602 0.12172 0.0
C1584 C 0.47664 0.93782 0.12024 0.0
C1585 C 0.48349 0.94724 0.10543 0.0
C1586 C 0.45244 0.90559 0.13742 0.0
C1587 C 0.46963 0.90693 0.14721 0.0
C1588 C 0.42966 0.89329 0.14237 0.0
C1589 C 0.4109 0.89269 0.13321 0.0
C1590 C 0.41207 0.9123 0.12875 0.0
C1591 C 0.39447 0.91166 0.11999 0.0
C1592 C 0.37553 0.8915 0.1157 0.0
C1593 C 0.37412 0.87193 0.1202 0.0
C1594 C 0.39168 0.87248 0.12895 0.0
C1595 C 0.43968 0.86958 0.20936 0.0
C1596 C 0.4274 0.84649 0.209 0.0
C1597 C 0.44382 0.88146 0.19549 0.0
C1598 C 0.43566 0.87047 0.18105 0.0
C1599 C 0.42264 0.84747 0.18071 0.0
C1600 C 0.41866 0.83556 0.19455 0.0
C1601 C 0.44183 0.88286 0.16618 0.0
C1602 C 0.42463 0.88181 0.15659 0.0
C1603 C 0.46462 0.89572 0.1615 0.0
C1604 C 0.48347 0.89716 0.17104 0.0
C1605 C 0.48396 0.87813 0.17474 0.0
C1606 C 0.50164 0.87962 0.18392 0.0
C1607 C 0.51901 0.90006 0.18935 0.0
C1608 C 0.51878 0.91908 0.18558 0.0
C1609 C 0.50112 0.91768 0.17642 0.0
H1610 H 0.53268 0.90118 0.19646 0.0
H1611 H 0.36192 0.89103 0.10891 0.0
H1612 H 0.56581 0.5207 0.26403 0.0
H1613 H 0.55919 0.49953 0.28802 0.0
H1614 H 0.56329 0.4497 0.26179 0.0
H1615 H 0.56889 0.47038 0.23762 0.0
H1616 H 0.53261 0.4309 0.28376 0.0
H1617 H 0.60942 0.49149 0.28169 0.0
H1618 H 0.63952 0.53038 0.2794 0.0
H1619 H 0.61571 0.54624 0.32085 0.0
H1620 H 0.58524 0.50747 0.32326 0.0
H1621 H 0.57961 0.39208 0.34163 0.0
H1622 H 0.57115 0.4078 0.31888 0.0
H1623 H 0.55526 0.44603 0.34976 0.0
H1624 H 0.56338 0.4302 0.37257 0.0
H1625 H 0.58822 0.47057 0.32682 0.0
H1626 H 0.51379 0.4073 0.33007 0.0
H1627 H 0.48548 0.3678 0.33189 0.0
H1628 H 0.50717 0.35612 0.28775 0.0
H1629 H 0.53587 0.39553 0.28577 0.0
C1630 C 0.56469 0.50496 0.2633 0.0
C1631 C 0.5676 0.49704 0.24891 0.0
C1632 C 0.5611 0.49295 0.27705 0.0
C1633 C 0.5611 0.47319 0.27675 0.0
C1634 C 0.56316 0.46487 0.26231 0.0
C1635 C 0.56641 0.4767 0.24852 0.0
C1636 C 0.56076 0.46203 0.29156 0.0
C1637 C 0.54484 0.43954 0.29314 0.0
C1638 C 0.57652 0.47336 0.30391 0.0
C1639 C 0.59491 0.49664 0.30255 0.0
C1640 C 0.61051 0.50331 0.29025 0.0
C1641 C 0.62764 0.52532 0.28894 0.0
C1642 C 0.62948 0.54078 0.29995 0.0
C1643 C 0.61423 0.53425 0.31232 0.0
C1644 C 0.59703 0.51226 0.31367 0.0
C1645 C 0.57398 0.40358 0.34358 0.0
C1646 C 0.57227 0.40999 0.35888 0.0
C1647 C 0.56906 0.41246 0.33058 0.0
C1648 C 0.56255 0.42801 0.33268 0.0
C1649 C 0.56021 0.43399 0.34793 0.0
C1650 C 0.56482 0.42489 0.36094 0.0
C1651 C 0.5602 0.43946 0.31896 0.0
C1652 C 0.57575 0.46201 0.31755 0.0
C1653 C 0.54437 0.42808 0.3067 0.0
C1654 C 0.52713 0.40436 0.30785 0.0
C1655 C 0.51268 0.39629 0.32082 0.0
C1656 C 0.49652 0.37392 0.32186 0.0
C1657 C 0.49456 0.35945 0.30996 0.0
C1658 C 0.50872 0.36735 0.29697 0.0
C1659 C 0.52492 0.38971 0.29587 0.0
H1660 H 0.48204 0.34214 0.31079 0.0
H1661 H 0.64276 0.55782 0.29891 0.0
H1662 H 0.43055 0.90443 0.40039 0.0
H1663 H 0.43635 0.88502 0.37899 0.0
H1664 H 0.45792 0.94121 0.34908 0.0
H1665 H 0.45096 0.9602 0.37024 0.0
H1666 H 0.42968 0.90709 0.33387 0.0
H1667 H 0.49538 0.92446 0.36385 0.0
H1668 H 0.51795 0.92741 0.38739 0.0
H1669 H 0.4804 0.85727 0.39203 0.0
H1670 H 0.45737 0.85389 0.36865 0.0
H1671 H 0.45161 0.85372 0.27258 0.0
H1672 H 0.46053 0.88019 0.29386 0.0
H1673 H 0.42774 0.82716 0.32686 0.0
H1674 H 0.41888 0.80053 0.30568 0.0
H1675 H 0.46697 0.86347 0.33923 0.0
H1676 H 0.39869 0.84808 0.31066 0.0
H1677 H 0.37729 0.84608 0.28669 0.0
H1678 H 0.42261 0.91495 0.27901 0.0
H1679 H 0.44446 0.91728 0.30284 0.0
C1680 C 0.43693 0.91276 0.38932 0.0
C1681 C 0.44067 0.93396 0.38711 0.0
C1682 C 0.44038 0.90172 0.37711 0.0
C1683 C 0.44803 0.91177 0.36246 0.0
C1684 C 0.45217 0.93314 0.3603 0.0
C1685 C 0.44834 0.94406 0.37245 0.0
C1686 C 0.44972 0.89923 0.34907 0.0
C1687 C 0.43832 0.898 0.33498 0.0
C1688 C 0.46066 0.88701 0.35049 0.0
C1689 C 0.47454 0.88894 0.36454 0.0
C1690 C 0.49182 0.90967 0.36995 0.0
C1691 C 0.50472 0.91142 0.38326 0.0
C1692 C 0.50059 0.89255 0.39121 0.0
C1693 C 0.48358 0.87188 0.38586 0.0
C1694 C 0.47062 0.87003 0.37256 0.0
C1695 C 0.44659 0.84766 0.2844 0.0
C1696 C 0.43427 0.82498 0.28741 0.0
C1697 C 0.45169 0.86284 0.29654 0.0
C1698 C 0.4445 0.85561 0.31188 0.0
C1699 C 0.4334 0.83307 0.31509 0.0
C1700 C 0.42827 0.81787 0.30295 0.0
C1701 C 0.44676 0.87128 0.3243 0.0
C1702 C 0.45877 0.87297 0.33815 0.0
C1703 C 0.43664 0.88416 0.32263 0.0
C1704 C 0.42333 0.88279 0.30843 0.0
C1705 C 0.40417 0.86276 0.3038 0.0
C1706 C 0.39195 0.86157 0.29025 0.0
C1707 C 0.39863 0.88037 0.2813 0.0
C1708 C 0.41749 0.9004 0.28593 0.0
C1709 C 0.42978 0.90166 0.29946 0.0
H1710 H 0.38915 0.87942 0.27081 0.0
H1711 H 0.51059 0.89394 0.40152 0.0
H1712 H 0.53034 0.44625 0.54049 0.0
H1713 H 0.53964 0.43605 0.51537 0.0
H1714 H 0.60154 0.49902 0.51375 0.0
H1715 H 0.59267 0.50911 0.53903 0.0
H1716 H 0.57567 0.48457 0.48459 0.0
H1717 H 0.60651 0.45945 0.52496 0.0
H1718 H 0.60466 0.43934 0.549 0.0
H1719 H 0.5543 0.37877 0.52729 0.0
H1720 H 0.55557 0.3986 0.5032 0.0
H1721 H 0.63357 0.46184 0.42587 0.0
H1722 H 0.6232 0.47323 0.44993 0.0
H1723 H 0.56848 0.40668 0.45688 0.0
H1724 H 0.579 0.3951 0.43309 0.0
H1725 H 0.59041 0.4232 0.48346 0.0
H1726 H 0.55892 0.44673 0.44327 0.0
H1727 H 0.55863 0.46585 0.41921 0.0
H1728 H 0.60736 0.52782 0.44007 0.0
H1729 H 0.60819 0.50903 0.46418 0.0
C1730 C 0.54597 0.45786 0.5348 0.0
C1731 C 0.56103 0.47828 0.54187 0.0
C1732 C 0.55119 0.45206 0.52046 0.0
C1733 C 0.57136 0.46674 0.51284 0.0
C1734 C 0.58593 0.48748 0.51951 0.0
C1735 C 0.58089 0.49317 0.53395 0.0
C1736 C 0.57767 0.46014 0.49821 0.0
C1737 C 0.57916 0.47133 0.48431 0.0
C1738 C 0.58164 0.44252 0.4979 0.0
C1739 C 0.58095 0.43055 0.51234 0.0
C1740 C 0.59488 0.44188 0.52537 0.0
C1741 C 0.59397 0.43052 0.53899 0.0
C1742 C 0.57933 0.4078 0.53969 0.0
C1743 C 0.56561 0.39638 0.52675 0.0
C1744 C 0.56642 0.40767 0.5131 0.0
C1745 C 0.61934 0.44964 0.43252 0.0
C1746 C 0.60711 0.42758 0.42756 0.0
C1747 C 0.61335 0.45619 0.44623 0.0
C1748 C 0.5949 0.44084 0.45511 0.0
C1749 C 0.58278 0.4188 0.45021 0.0
C1750 C 0.58881 0.41223 0.43658 0.0
C1751 C 0.58841 0.44759 0.46968 0.0
C1752 C 0.5869 0.43643 0.48363 0.0
C1753 C 0.58417 0.46509 0.46998 0.0
C1754 C 0.58381 0.47644 0.45547 0.0
C1755 C 0.56974 0.46442 0.44267 0.0
C1756 C 0.56945 0.4752 0.42904 0.0
C1757 C 0.58302 0.49803 0.42809 0.0
C1758 C 0.59689 0.51013 0.44081 0.0
C1759 C 0.59727 0.49943 0.45446 0.0
H1760 H 0.58276 0.50635 0.41753 0.0
H1761 H 0.57866 0.39903 0.55025 0.0
H1762 H 0.09176 0.4954 0.71232 0.0
H1763 H 0.12112 0.5178 0.69328 0.0
H1764 H 0.07775 0.53864 0.67292 0.0
H1765 H 0.04845 0.51647 0.69199 0.0
H1766 H 0.09703 0.52488 0.65071 0.0
H1767 H 0.12058 0.57318 0.69569 0.0
H1768 H 0.13127 0.58346 0.72348 0.0
H1769 H 0.18694 0.57298 0.71863 0.0
H1770 H 0.17638 0.56231 0.69085 0.0
H1771 H 0.17535 0.60721 0.6009 0.0
H1772 H 0.14798 0.58858 0.62174 0.0
H1773 H 0.19498 0.57502 0.64556 0.0
H1774 H 0.22276 0.59435 0.62504 0.0
H1775 H 0.1739 0.58505 0.66632 0.0
H1776 H 0.15071 0.53597 0.62208 0.0
H1777 H 0.14045 0.52489 0.59435 0.0
H1778 H 0.0845 0.53519 0.59787 0.0
H1779 H 0.09463 0.54664 0.62558 0.0
C1780 C 0.08857 0.50487 0.70384 0.0
C1781 C 0.06786 0.50427 0.70366 0.0
C1782 C 0.10534 0.51767 0.693 0.0
C1783 C 0.10163 0.52997 0.68177 0.0
C1784 C 0.08093 0.52927 0.68151 0.0
C1785 C 0.06426 0.51665 0.69239 0.0
C1786 C 0.11913 0.54325 0.67007 0.0
C1787 C 0.11375 0.53823 0.6541 0.0
C1788 C 0.14111 0.56024 0.67455 0.0
C1789 C 0.14754 0.56673 0.69123 0.0
C1790 C 0.13498 0.57288 0.70059 0.0
C1791 C 0.14104 0.57882 0.71633 0.0
C1792 C 0.15973 0.57882 0.72283 0.0
C1793 C 0.17244 0.57294 0.71359 0.0
C1794 C 0.16644 0.56696 0.69784 0.0
C1795 C 0.17993 0.60042 0.61065 0.0
C1796 C 0.20114 0.60209 0.61126 0.0
C1797 C 0.16423 0.58968 0.62252 0.0
C1798 C 0.16922 0.57996 0.63505 0.0
C1799 C 0.1907 0.5823 0.63598 0.0
C1800 C 0.20655 0.59333 0.62422 0.0
C1801 C 0.15181 0.56675 0.6469 0.0
C1802 C 0.15719 0.57172 0.66291 0.0
C1803 C 0.12987 0.54952 0.64246 0.0
C1804 C 0.12356 0.54236 0.62586 0.0
C1805 C 0.1363 0.536 0.61692 0.0
C1806 C 0.13051 0.52964 0.6012 0.0
C1807 C 0.11187 0.52939 0.59434 0.0
C1808 C 0.09895 0.53542 0.6032 0.0
C1809 C 0.1047 0.54183 0.61891 0.0
H1810 H 0.10743 0.52449 0.58217 0.0
H1811 H 0.1644 0.58342 0.73502 0.0
H1812 H 0.5096 0.10964 0.90437 0.0
H1813 H 0.51698 0.13117 0.87422 0.0
H1814 H 0.59638 0.14615 0.87268 0.0
H1815 H 0.59115 0.12514 0.90261 0.0
H1816 H 0.59248 0.17816 0.86274 0.0
H1817 H 0.54146 0.10202 0.84525 0.0
H1818 H 0.50612 0.06588 0.84635 0.0
H1819 H 0.46708 0.09683 0.84007 0.0
H1820 H 0.50224 0.13315 0.83904 0.0
H1821 H 0.62204 0.19621 0.78423 0.0
H1822 H 0.60851 0.17885 0.8096 0.0
H1823 H 0.55083 0.18694 0.80537 0.0
H1824 H 0.56423 0.20434 0.77971 0.0
H1825 H 0.53978 0.14578 0.81717 0.0
H1826 H 0.59241 0.22117 0.82846 0.0
H1827 H 0.62824 0.25663 0.82651 0.0
H1828 H 0.66484 0.22726 0.84455 0.0
H1829 H 0.62925 0.19152 0.84639 0.0
C1830 C 0.52587 0.11708 0.89872 0.0
C1831 C 0.54845 0.11163 0.90525 0.0
C1832 C 0.53025 0.12945 0.8796 0.0
C1833 C 0.55683 0.13952 0.86964 0.0
C1834 C 0.58043 0.1391 0.87871 0.0
C1835 C 0.57777 0.12711 0.8977 0.0
C1836 C 0.56081 0.15077 0.85442 0.0
C1837 C 0.58104 0.17092 0.85275 0.0
C1838 C 0.54545 0.14189 0.84159 0.0
C1839 C 0.52438 0.12023 0.84236 0.0
C1840 C 0.52531 0.10108 0.84422 0.0
C1841 C 0.50534 0.08058 0.8448 0.0
C1842 C 0.48436 0.07907 0.84336 0.0
C1843 C 0.48333 0.09804 0.84125 0.0
C1844 C 0.50326 0.11857 0.84067 0.0
C1845 C 0.60642 0.19426 0.7886 0.0
C1846 C 0.59432 0.20184 0.78 0.0
C1847 C 0.59874 0.18436 0.80314 0.0
C1848 C 0.57886 0.18193 0.80945 0.0
C1849 C 0.56627 0.18878 0.80071 0.0
C1850 C 0.57399 0.19875 0.7861 0.0
C1851 C 0.57185 0.1727 0.82538 0.0
C1852 C 0.55107 0.15307 0.82722 0.0
C1853 C 0.5867 0.1821 0.83844 0.0
C1854 C 0.60816 0.20361 0.83746 0.0
C1855 C 0.60811 0.22223 0.8319 0.0
C1856 C 0.62838 0.24239 0.83084 0.0
C1857 C 0.64881 0.24419 0.83538 0.0
C1858 C 0.649 0.22584 0.84103 0.0
C1859 C 0.62878 0.20563 0.84211 0.0
H1860 H 0.66448 0.25981 0.83454 0.0
H1861 H 0.46892 0.06319 0.84382 0.0
H1862 H 0.43161 0.54686 0.06566 0.0
H1863 H 0.41596 0.55066 0.03475 0.0
H1864 H 0.48929 0.62041 0.02478 0.0
H1865 H 0.50683 0.61847 0.05532 0.0
H1866 H 0.45446 0.62101 0.01446 0.0
H1867 H 0.46578 0.56006 0.00381 0.0
H1868 H 0.46146 0.52393 0.00901 0.0
H1869 H 0.38914 0.49364 0.0073 0.0
H1870 H 0.3931 0.52966 0.00219 0.0
H1871 H 0.44524 0.62919 0.93325 0.0
H1872 H 0.45586 0.62196 0.95894 0.0
H1873 H 0.38686 0.57019 0.96638 0.0
H1874 H 0.3761 0.57703 0.94045 0.0
H1875 H 0.41675 0.55867 0.97673 0.0
H1876 H 0.40657 0.61998 0.98308 0.0
H1877 H 0.41212 0.65628 0.97675 0.0
H1878 H 0.48335 0.6865 0.98629 0.0
H1879 H 0.47828 0.65032 0.99245 0.0
C1880 C 0.44194 0.56082 0.05828 0.0
C1881 C 0.47259 0.58028 0.06252 0.0
C1882 C 0.43286 0.56273 0.03872 0.0
C1883 C 0.4515 0.58497 0.02595 0.0
C1884 C 0.47904 0.60687 0.03251 0.0
C1885 C 0.48966 0.60645 0.05179 0.0
C1886 C 0.44332 0.58697 0.01033 0.0
C1887 C 0.44652 0.60744 0.00614 0.0
C1888 C 0.43223 0.56911 0.99968 0.0
C1889 C 0.42974 0.54754 0.00291 0.0
C1890 C 0.44897 0.54569 0.00466 0.0
C1891 C 0.44659 0.52524 0.00755 0.0
C1892 C 0.42504 0.50651 0.00856 0.0
C1893 C 0.40582 0.50817 0.00659 0.0
C1894 C 0.40813 0.52859 0.00369 0.0
C1895 C 0.43231 0.61617 0.94029 0.0
C1896 C 0.40977 0.60382 0.93487 0.0
C1897 C 0.43841 0.61211 0.955 0.0
C1898 C 0.42206 0.59582 0.96468 0.0
C1899 C 0.3997 0.58291 0.95911 0.0
C1900 C 0.39359 0.58688 0.94432 0.0
C1901 C 0.42831 0.59282 0.98079 0.0
C1902 C 0.42466 0.5722 0.98509 0.0
C1903 C 0.43899 0.61057 0.99158 0.0
C1904 C 0.44206 0.63241 0.9881 0.0
C1905 C 0.42344 0.63435 0.98373 0.0
C1906 C 0.4265 0.65491 0.98019 0.0
C1907 C 0.44808 0.67368 0.98108 0.0
C1908 C 0.46664 0.67194 0.98558 0.0
C1909 C 0.46368 0.65142 0.98912 0.0
H1910 H 0.45042 0.68957 0.97832 0.0
H1911 H 0.42322 0.4907 0.01082 0.0
H1912 H 0.96516 0.49079 0.19237 0.0
H1913 H 0.93358 0.47949 0.17396 0.0
H1914 H 0.89982 0.41432 0.19346 0.0
H1915 H 0.93174 0.4255 0.2117 0.0
H1916 H 0.89956 0.4122 0.16264 0.0
H1917 H 0.88003 0.44968 0.19971 0.0
H1918 H 0.88591 0.47994 0.21716 0.0
H1919 H 0.9017 0.52233 0.17743 0.0
H1920 H 0.89625 0.49241 0.15974 0.0
H1921 H 0.80237 0.38128 0.11385 0.0
H1922 H 0.8261 0.38932 0.13745 0.0
H1923 H 0.87063 0.45532 0.12124 0.0
H1924 H 0.84708 0.4475 0.09771 0.0
H1925 H 0.8612 0.45406 0.15276 0.0
H1926 H 0.88492 0.41743 0.11649 0.0
H1927 H 0.87894 0.38703 0.09912 0.0
H1928 H 0.85453 0.34266 0.13804 0.0
H1929 H 0.86009 0.37278 0.1556 0.0
C1930 C 0.9508 0.47418 0.19292 0.0
C1931 C 0.9507 0.45915 0.20367 0.0
C1932 C 0.93272 0.46774 0.18243 0.0
C1933 C 0.91412 0.44614 0.18248 0.0
C1934 C 0.9139 0.43111 0.19328 0.0
C1935 C 0.93205 0.43753 0.20376 0.0
C1936 C 0.89576 0.43896 0.17052 0.0
C1937 C 0.89083 0.42108 0.16072 0.0
C1938 C 0.88461 0.45075 0.16781 0.0
C1939 C 0.88789 0.46882 0.1784 0.0
C1940 C 0.88493 0.4655 0.19469 0.0
C1941 C 0.88816 0.48259 0.20463 0.0
C1942 C 0.89422 0.50306 0.19841 0.0
C1943 C 0.89702 0.50647 0.18223 0.0
C1944 C 0.89384 0.48944 0.17224 0.0
C1945 C 0.81717 0.39753 0.11535 0.0
C1946 C 0.82292 0.41372 0.10386 0.0
C1947 C 0.83071 0.40208 0.12882 0.0
C1948 C 0.85019 0.42288 0.13104 0.0
C1949 C 0.85565 0.43918 0.11976 0.0
C1950 C 0.84222 0.43462 0.10628 0.0
C1951 C 0.86538 0.4276 0.14481 0.0
C1952 C 0.86972 0.44502 0.1549 0.0
C1953 C 0.87593 0.41536 0.14784 0.0
C1954 C 0.87267 0.39728 0.13731 0.0
C1955 C 0.8781 0.40115 0.12131 0.0
C1956 C 0.87482 0.38398 0.11144 0.0
C1957 C 0.86629 0.36291 0.11746 0.0
C1958 C 0.86109 0.35898 0.13339 0.0
C1959 C 0.86432 0.3761 0.1433 0.0
H1960 H 0.86377 0.34964 0.1098 0.0
H1961 H 0.8967 0.51627 0.20612 0.0
loop_
_geom_bond_atom_site_label_1
_geom_bond_atom_site_label_2
_geom_bond_distance
_geom_bond_site_symmetry_2
_ccdc_geom_bond_type
C0 C1 1.560 . S
C0 H61 0.959 . S
C0 H62 0.959 . S
C0 H63 0.960 . S
C1 C0 1.560 . S
C1 O56 1.426 . S
C1 H60 0.980 . S
C2 C3 1.407 . S
C2 C7 1.418 . S
C2 O56 1.334 . S
C3 C2 1.407 . S
C3 C4 1.360 . S
C3 H64 0.929 . S
C4 C3 1.360 . S
C4 C5 1.401 . S
C4 C8 1.527 . S
C5 C4 1.401 . S
C5 C6 1.405 . S
C5 C38 1.587 . S
C6 C5 1.405 . S
C6 C7 1.332 . S
C6 C9 1.496 . S
C7 C2 1.418 . S
C7 C6 1.332 . S
C7 H65 0.929 . S
C8 C4 1.527 . S
C8 H66 0.959 . S
C8 H67 0.961 . S
C8 H68 0.961 . S
C9 C6 1.496 . S
C9 H69 0.960 . S
C9 H70 0.960 . S
C9 H71 0.961 . S
C10 C11 1.517 . S
C10 H73 0.961 . S
C10 H74 0.960 . S
C10 H75 0.959 . S
C11 C10 1.517 . S
C11 O59 1.468 . S
C11 H72 0.980 . S
C12 C13 1.349 . S
C12 C17 1.367 . S
C12 O59 1.408 . S
C13 C12 1.349 . S
C13 C14 1.407 . S
C13 H76 0.930 . S
C14 C13 1.407 . S
C14 C15 1.449 . S
C14 C18 1.535 . S
C15 C14 1.449 . S
C15 C16 1.384 . S
C15 C40 1.553 1_655 S
C16 C15 1.384 . S
C16 C17 1.364 . S
C16 C19 1.450 . S
C17 C12 1.367 . S
C17 C16 1.364 . S
C17 H77 0.931 . S
C18 C14 1.535 . S
C18 H78 0.959 1_655 S
C18 H79 0.961 . S
C18 H80 0.959 . S
C19 C16 1.450 . S
C19 H81 0.960 . S
C19 H82 0.960 1_655 S
C19 H83 0.960 . S
C20 C21 1.309 . S
C20 C25 1.304 . S
C20 O58 1.435 . S
C21 C20 1.309 . S
C21 C22 1.476 . S
C21 H85 0.930 . S
C22 C21 1.476 . S
C22 C23 1.400 . S
C22 C26 1.567 . S
C23 C22 1.400 . S
C23 C24 1.373 . S
C23 C45 1.432 . S
C24 C23 1.373 . S
C24 C25 1.339 . S
C24 C27 1.530 . S
C25 C20 1.304 . S
C25 C24 1.339 . S
C25 H86 0.930 . S
C26 C22 1.567 . S
C26 H87 0.961 . S
C26 H88 0.960 . S
C26 H89 0.958 . S
C27 C24 1.530 . S
C27 H90 0.961 . S
C27 H91 0.960 . S
C27 H92 0.960 . S
C28 C29 1.530 . S
C28 H94 0.961 . S
C28 H95 0.961 . S
C28 H96 0.959 . S
C29 C28 1.530 . S
C29 O57 1.412 . S
C29 H93 0.980 . S
C30 C31 1.288 . S
C30 C35 1.377 . S
C30 O57 1.393 . S
C31 C30 1.288 . S
C31 C32 1.369 . S
C31 H97 0.932 . S
C32 C31 1.369 . S
C32 C33 1.398 . S
C32 C36 1.527 . S
C33 C32 1.398 . S
C33 C34 1.380 . S
C33 C47 1.497 . S
C34 C33 1.380 . S
C34 C35 1.383 . S
C34 C37 1.603 . S
C35 C30 1.377 . S
C35 C34 1.383 . S
C35 H98 0.929 . S
C36 C32 1.527 . S
C36 H99 0.961 . S
C36 H100 0.959 1_455 S
C36 H101 0.959 . S
C37 C34 1.603 . S
C37 H102 0.960 . S
C37 H103 0.962 . S
C37 H104 0.961 . S
C38 C5 1.587 . S
C38 C39 1.360 . S
C38 C51 1.412 . S
C39 C38 1.360 . S
C39 C40 1.365 . S
C39 H105 0.929 . S
C40 C15 1.553 1_455 S
C40 C39 1.365 . S
C40 C41 1.404 1_455 S
C41 C40 1.404 1_655 S
C41 C42 1.395 . S
C41 C52 1.451 1_655 S
C42 C41 1.395 . S
C42 C43 1.322 . S
C42 H106 0.930 . S
C43 C42 1.322 . S
C43 C44 1.459 . S
C43 H107 0.929 . S
C44 C43 1.459 . S
C44 C45 1.445 . S
C44 C53 1.395 1_655 S
C45 C23 1.432 . S
C45 C44 1.445 . S
C45 C46 1.370 . S
C46 C45 1.370 . S
C46 C47 1.438 1_655 S
C46 H108 0.930 . S
C47 C33 1.497 . S
C47 C46 1.438 1_455 S
C47 C48 1.360 . S
C48 C47 1.360 . S
C48 C49 1.401 . S
C48 C53 1.446 . S
C49 C48 1.401 . S
C49 C50 1.347 . S
C49 H109 0.929 . S
C50 C49 1.347 . S
C50 C51 1.455 . S
C50 H110 0.930 . S
C51 C38 1.412 . S
C51 C50 1.455 . S
C51 C52 1.331 . S
C52 C41 1.451 1_455 S
C52 C51 1.331 . S
C52 C53 1.497 . S
C53 C44 1.395 1_455 S
C53 C48 1.446 . S
C53 C52 1.497 . S
C54 C55 1.582 . S
C54 H111 0.962 . S
C54 H112 0.959 . S
C54 H113 0.958 . S
C55 C54 1.582 . S
C55 O58 1.458 . S
C55 H84 0.980 . S
O56 C1 1.426 . S
O56 C2 1.334 . S
O57 C29 1.412 . S
O57 C30 1.393 . S
O58 C20 1.435 . S
O58 C55 1.458 . S
O59 C11 1.468 . S
O59 C12 1.408 . S
H60 C1 0.980 . S
H61 C0 0.959 . S
H62 C0 0.959 . S
H63 C0 0.960 . S
H64 C3 0.929 . S
H65 C7 0.929 . S
H66 C8 0.959 . S
H67 C8 0.961 . S
H68 C8 0.961 . S
H69 C9 0.960 . S
H70 C9 0.960 . S
H71 C9 0.961 . S
H72 C11 0.980 . S
H73 C10 0.961 . S
H74 C10 0.960 . S
H75 C10 0.959 . S
H76 C13 0.930 . S
H77 C17 0.931 . S
H78 C18 0.959 1_455 S
H79 C18 0.961 . S
H80 C18 0.959 . S
H81 C19 0.960 . S
H82 C19 0.960 1_455 S
H83 C19 0.960 . S
H84 C55 0.980 . S
H85 C21 0.930 . S
H86 C25 0.930 . S
H87 C26 0.961 . S
H88 C26 0.960 . S
H89 C26 0.958 . S
H90 C27 0.961 . S
H91 C27 0.960 . S
H92 C27 0.960 . S
H93 C29 0.980 . S
H94 C28 0.961 . S
H95 C28 0.961 . S
H96 C28 0.959 . S
H97 C31 0.932 . S
H98 C35 0.929 . S
H99 C36 0.961 . S
H100 C36 0.959 1_655 S
H101 C36 0.959 . S
H102 C37 0.960 . S
H103 C37 0.962 . S
H104 C37 0.961 . S
H105 C39 0.929 . S
H106 C42 0.930 . S
H107 C43 0.929 . S
H108 C46 0.930 . S
H109 C49 0.929 . S
H110 C50 0.930 . S
H111 C54 0.962 . S
H112 C54 0.959 . S
H113 C54 0.958 . S
C114 C115 1.560 . S
C114 H175 0.959 . S
C114 H176 0.959 . S
C114 H177 0.960 . S
C115 C114 1.560 . S
C115 O170 1.426 . S
C115 H174 0.980 . S
C116 C117 1.407 . S
C116 C121 1.418 . S
C116 O170 1.334 . S
C117 C116 1.407 . S
C117 C118 1.360 . S
C117 H178 0.929 . S
C118 C117 1.360 . S
C118 C119 1.401 . S
C118 C122 1.527 . S
C119 C118 1.401 . S
C119 C120 1.405 . S
C119 C152 1.587 . S
C120 C119 1.405 . S
C120 C121 1.332 . S
C120 C123 1.496 . S
C121 C116 1.418 . S
C121 C120 1.332 . S
C121 H179 0.929 . S
C122 C118 1.527 . S
C122 H180 0.959 . S
C122 H181 0.961 . S
C122 H182 0.961 . S
C123 C120 1.496 . S
C123 H183 0.960 . S
C123 H184 0.960 . S
C123 H185 0.961 . S
C124 C125 1.517 . S
C124 H187 0.961 . S
C124 H188 0.960 . S
C124 H189 0.959 . S
C125 C124 1.517 . S
C125 O173 1.468 . S
C125 H186 0.980 . S
C126 C127 1.349 . S
C126 C131 1.367 . S
C126 O173 1.408 . S
C127 C126 1.349 . S
C127 C128 1.407 . S
C127 H190 0.930 . S
C128 C127 1.407 . S
C128 C129 1.449 . S
C128 C132 1.535 . S
C129 C128 1.449 . S
C129 C130 1.384 . S
C129 C154 1.553 . S
C130 C129 1.384 . S
C130 C131 1.364 . S
C130 C133 1.450 . S
C131 C126 1.367 . S
C131 C130 1.364 . S
C131 H191 0.931 . S
C132 C128 1.535 . S
C132 H192 0.959 . S
C132 H193 0.961 . S
C132 H194 0.959 . S
C133 C130 1.450 . S
C133 H195 0.960 . S
C133 H196 0.960 . S
C133 H197 0.960 . S
C134 C135 1.309 . S
C134 C139 1.304 . S
C134 O172 1.435 . S
C135 C134 1.309 . S
C135 C136 1.476 . S
C135 H199 0.930 . S
C136 C135 1.476 . S
C136 C137 1.400 . S
C136 C140 1.567 . S
C137 C136 1.400 . S
C137 C138 1.373 . S
C137 C159 1.432 . S
C138 C137 1.373 . S
C138 C139 1.339 . S
C138 C141 1.530 . S
C139 C134 1.304 . S
C139 C138 1.339 . S
C139 H200 0.930 . S
C140 C136 1.567 . S
C140 H201 0.961 . S
C140 H202 0.960 . S
C140 H203 0.958 . S
C141 C138 1.530 . S
C141 H204 0.961 . S
C141 H205 0.960 . S
C141 H206 0.960 . S
C142 C143 1.530 . S
C142 H208 0.961 . S
C142 H209 0.961 . S
C142 H210 0.959 . S
C143 C142 1.530 . S
C143 O171 1.412 . S
C143 H207 0.980 . S
C144 C145 1.288 . S
C144 C149 1.377 . S
C144 O171 1.393 . S
C145 C144 1.288 . S
C145 C146 1.369 . S
C145 H211 0.932 . S
C146 C145 1.369 . S
C146 C147 1.415 1_565 S
C146 C150 1.527 1_565 S
C147 C146 1.415 1_545 S
C147 C148 1.346 1_545 S
C147 C161 1.514 . S
C148 C147 1.346 1_565 S
C148 C149 1.383 . S
C148 C151 1.603 . S
C149 C144 1.377 . S
C149 C148 1.383 . S
C149 H212 0.929 . S
C150 C146 1.527 1_545 S
C150 H213 0.961 . S
C150 H214 0.959 . S
C150 H215 0.959 . S
C151 C148 1.603 . S
C151 H216 0.960 . S
C151 H217 0.962 1_565 S
C151 H218 0.961 . S
C152 C119 1.587 . S
C152 C153 1.360 . S
C152 C165 1.412 . S
C153 C152 1.360 . S
C153 C154 1.365 1_565 S
C153 H219 0.929 . S
C154 C129 1.553 . S
C154 C153 1.365 1_545 S
C154 C155 1.404 . S
C155 C154 1.404 . S
C155 C156 1.395 . S
C155 C166 1.451 . S
C156 C155 1.395 . S
C156 C157 1.322 . S
C156 H220 0.930 . S
C157 C156 1.322 . S
C157 C158 1.459 . S
C157 H221 0.929 . S
C158 C157 1.459 . S
C158 C159 1.445 . S
C158 C167 1.395 . S
C159 C137 1.432 . S
C159 C158 1.445 . S
C159 C160 1.370 . S
C160 C159 1.370 . S
C160 C161 1.438 . S
C160 H222 0.930 . S
C161 C147 1.514 . S
C161 C160 1.438 . S
C161 C162 1.360 . S
C162 C161 1.360 . S
C162 C163 1.401 1_545 S
C162 C167 1.446 . S
C163 C162 1.401 1_565 S
C163 C164 1.347 . S
C163 H223 0.929 . S
C164 C163 1.347 . S
C164 C165 1.455 . S
C164 H224 0.930 . S
C165 C152 1.412 . S
C165 C164 1.455 . S
C165 C166 1.331 1_565 S
C166 C155 1.451 . S
C166 C165 1.331 1_545 S
C166 C167 1.497 . S
C167 C158 1.395 . S
C167 C162 1.446 . S
C167 C166 1.497 . S
C168 C169 1.582 . S
C168 H225 0.962 . S
C168 H226 0.959 . S
C168 H227 0.958 . S
C169 C168 1.582 . S
C169 O172 1.458 . S
C169 H198 0.980 . S
O170 C115 1.426 . S
O170 C116 1.334 . S
O171 C143 1.412 . S
O171 C144 1.393 . S
O172 C134 1.435 . S
O172 C169 1.458 . S
O173 C125 1.468 . S
O173 C126 1.408 . S
H174 C115 0.980 . S
H175 C114 0.959 . S
H176 C114 0.959 . S
H177 C114 0.960 . S
H178 C117 0.929 . S
H179 C121 0.929 . S
H180 C122 0.959 . S
H181 C122 0.961 . S
H182 C122 0.961 . S
H183 C123 0.960 . S
H184 C123 0.960 . S
H185 C123 0.961 . S
H186 C125 0.980 . S
H187 C124 0.961 . S
H188 C124 0.960 . S
H189 C124 0.959 . S
H190 C127 0.930 . S
H191 C131 0.931 . S
H192 C132 0.959 . S
H193 C132 0.961 . S
H194 C132 0.959 . S
H195 C133 0.960 . S
H196 C133 0.960 . S
H197 C133 0.960 . S
H198 C169 0.980 . S
H199 C135 0.930 . S
H200 C139 0.930 . S
H201 C140 0.961 . S
H202 C140 0.960 . S
H203 C140 0.958 . S
H204 C141 0.961 . S
H205 C141 0.960 . S
H206 C141 0.960 . S
H207 C143 0.980 . S
H208 C142 0.961 . S
H209 C142 0.961 . S
H210 C142 0.959 . S
H211 C145 0.932 . S
H212 C149 0.929 . S
H213 C150 0.961 . S
H214 C150 0.959 . S
H215 C150 0.959 . S
H216 C151 0.960 . S
H217 C151 0.962 1_545 S
H218 C151 0.961 . S
H219 C153 0.929 . S
H220 C156 0.930 . S
H221 C157 0.929 . S
H222 C160 0.930 . S
H223 C163 0.929 . S
H224 C164 0.930 . S
H225 C168 0.962 . S
H226 C168 0.959 . S
H227 C168 0.958 . S
C228 C229 1.560 . S
C228 H289 0.959 . S
C228 H290 0.959 . S
C228 H291 0.960 . S
C229 C228 1.560 . S
C229 O284 1.426 . S
C229 H288 0.980 . S
C230 C231 1.407 . S
C230 C235 1.418 . S
C230 O284 1.334 . S
C231 C230 1.407 . S
C231 C232 1.360 . S
C231 H292 0.929 . S
C232 C231 1.360 . S
C232 C233 1.401 . S
C232 C236 1.527 . S
C233 C232 1.401 . S
C233 C234 1.405 . S
C233 C266 1.587 . S
C234 C233 1.405 . S
C234 C235 1.332 . S
C234 C237 1.496 . S
C235 C230 1.418 . S
C235 C234 1.332 . S
C235 H293 0.929 . S
C236 C232 1.527 . S
C236 H294 0.959 . S
C236 H295 0.961 . S
C236 H296 0.961 . S
C237 C234 1.496 . S
C237 H297 0.960 . S
C237 H298 0.960 . S
C237 H299 0.961 . S
C238 C239 1.517 . S
C238 H301 0.961 . S
C238 H302 0.960 . S
C238 H303 0.959 . S
C239 C238 1.517 . S
C239 O287 1.468 . S
C239 H300 0.980 . S
C240 C241 1.349 . S
C240 C245 1.367 . S
C240 O287 1.408 . S
C241 C240 1.349 . S
C241 C242 1.407 . S
C241 H304 0.930 . S
C242 C241 1.407 . S
C242 C243 1.449 . S
C242 C246 1.535 . S
C243 C242 1.449 . S
C243 C244 1.384 . S
C243 C268 1.553 . S
C244 C243 1.384 . S
C244 C245 1.364 . S
C244 C247 1.450 . S
C245 C240 1.367 . S
C245 C244 1.364 . S
C245 H305 0.931 . S
C246 C242 1.535 . S
C246 H306 0.959 . S
C246 H307 0.961 . S
C246 H308 0.959 . S
C247 C244 1.450 . S
C247 H309 0.960 . S
C247 H310 0.960 . S
C247 H311 0.960 . S
C248 C249 1.309 . S
C248 C253 1.304 . S
C248 O286 1.435 . S
C249 C248 1.309 . S
C249 C250 1.476 . S
C249 H313 0.930 . S
C250 C249 1.476 . S
C250 C251 1.400 . S
C250 C254 1.567 . S
C251 C250 1.400 . S
C251 C252 1.373 . S
C251 C273 1.432 . S
C252 C251 1.373 . S
C252 C253 1.339 . S
C252 C255 1.530 . S
C253 C248 1.304 . S
C253 C252 1.339 . S
C253 H314 0.930 . S
C254 C250 1.567 . S
C254 H315 0.961 . S
C254 H316 0.960 . S
C254 H317 0.958 . S
C255 C252 1.530 . S
C255 H318 0.961 . S
C255 H319 0.960 . S
C255 H320 0.960 . S
C256 C257 1.530 . S
C256 H322 0.961 . S
C256 H323 0.961 . S
C256 H324 0.959 . S
C257 C256 1.530 . S
C257 O285 1.412 . S
C257 H321 0.980 . S
C258 C259 1.288 . S
C258 C263 1.377 . S
C258 O285 1.393 . S
C259 C258 1.288 . S
C259 C260 1.369 . S
C259 H325 0.932 . S
C260 C259 1.369 . S
C260 C261 1.398 . S
C260 C264 1.527 . S
C261 C260 1.398 . S
C261 C262 1.380 . S
C261 C275 1.497 . S
C262 C261 1.380 . S
C262 C263 1.383 . S
C262 C265 1.603 . S
C263 C258 1.377 . S
C263 C262 1.383 . S
C263 H326 0.929 . S
C264 C260 1.527 . S
C264 H327 0.961 . S
C264 H328 0.959 . S
C264 H329 0.959 . S
C265 C262 1.603 . S
C265 H330 0.960 . S
C265 H331 0.962 . S
C265 H332 0.961 . S
C266 C233 1.587 . S
C266 C267 1.360 . S
C266 C279 1.412 . S
C267 C266 1.360 . S
C267 C268 1.365 . S
C267 H333 0.929 . S
C268 C243 1.553 . S
C268 C267 1.365 . S
C268 C269 1.404 . S
C269 C268 1.404 . S
C269 C270 1.395 . S
C269 C280 1.451 . S
C270 C269 1.395 . S
C270 C271 1.322 . S
C270 H334 0.930 . S
C271 C270 1.322 . S
C271 C272 1.459 . S
C271 H335 0.929 . S
C272 C271 1.459 . S
C272 C273 1.445 . S
C272 C281 1.395 . S
C273 C251 1.432 . S
C273 C272 1.445 . S
C273 C274 1.370 . S
C274 C273 1.370 . S
C274 C275 1.438 . S
C274 H336 0.930 . S
C275 C261 1.497 . S
C275 C274 1.438 . S
C275 C276 1.360 . S
C276 C275 1.360 . S
C276 C277 1.401 . S
C276 C281 1.446 . S
C277 C276 1.401 . S
C277 C278 1.347 . S
C277 H337 0.929 . S
C278 C277 1.347 . S
C278 C279 1.455 . S
C278 H338 0.930 . S
C279 C266 1.412 . S
C279 C278 1.455 . S
C279 C280 1.331 . S
C280 C269 1.451 . S
C280 C279 1.331 . S
C280 C281 1.497 . S
C281 C272 1.395 . S
C281 C276 1.446 . S
C281 C280 1.497 . S
C282 C283 1.582 . S
C282 H339 0.962 . S
C282 H340 0.959 . S
C282 H341 0.958 . S
C283 C282 1.582 . S
C283 O286 1.458 . S
C283 H312 0.980 . S
O284 C229 1.426 . S
O284 C230 1.334 . S
O285 C257 1.412 . S
O285 C258 1.393 . S
O286 C248 1.435 . S
O286 C283 1.458 . S
O287 C239 1.468 . S
O287 C240 1.408 . S
H288 C229 0.980 . S
H289 C228 0.959 . S
H290 C228 0.959 . S
H291 C228 0.960 . S
H292 C231 0.929 . S
H293 C235 0.929 . S
H294 C236 0.959 . S
H295 C236 0.961 . S
H296 C236 0.961 . S
H297 C237 0.960 . S
H298 C237 0.960 . S
H299 C237 0.961 . S
H300 C239 0.980 . S
H301 C238 0.961 . S
H302 C238 0.960 . S
H303 C238 0.959 . S
H304 C241 0.930 . S
H305 C245 0.931 . S
H306 C246 0.959 . S
H307 C246 0.961 . S
H308 C246 0.959 . S
H309 C247 0.960 . S
H310 C247 0.960 . S
H311 C247 0.960 . S
H312 C283 0.980 . S
H313 C249 0.930 . S
H314 C253 0.930 . S
H315 C254 0.961 . S
H316 C254 0.960 . S
H317 C254 0.958 . S
H318 C255 0.961 . S
H319 C255 0.960 . S
H320 C255 0.960 . S
H321 C257 0.980 . S
H322 C256 0.961 . S
H323 C256 0.961 . S
H324 C256 0.959 . S
H325 C259 0.932 . S
H326 C263 0.929 . S
H327 C264 0.961 . S
H328 C264 0.959 . S
H329 C264 0.959 . S
H330 C265 0.960 . S
H331 C265 0.962 . S
H332 C265 0.961 . S
H333 C267 0.929 . S
H334 C270 0.930 . S
H335 C271 0.929 . S
H336 C274 0.930 . S
H337 C277 0.929 . S
H338 C278 0.930 . S
H339 C282 0.962 . S
H340 C282 0.959 . S
H341 C282 0.958 . S
C342 C343 1.560 . S
C342 H403 0.959 . S
C342 H404 0.959 . S
C342 H405 0.960 . S
C343 C342 1.560 . S
C343 O398 1.426 . S
C343 H402 0.980 . S
C344 C345 1.407 . S
C344 C349 1.418 . S
C344 O398 1.334 . S
C345 C344 1.407 . S
C345 C346 1.360 . S
C345 H406 0.929 . S
C346 C345 1.360 . S
C346 C347 1.401 . S
C346 C350 1.527 . S
C347 C346 1.401 . S
C347 C348 1.405 . S
C347 C380 1.587 . S
C348 C347 1.405 . S
C348 C349 1.332 . S
C348 C351 1.496 . S
C349 C344 1.418 . S
C349 C348 1.332 . S
C349 H407 0.929 . S
C350 C346 1.527 . S
C350 H408 0.959 . S
C350 H409 0.961 . S
C350 H410 0.961 . S
C351 C348 1.496 . S
C351 H411 0.960 . S
C351 H412 0.960 . S
C351 H413 0.961 . S
C352 C353 1.517 . S
C352 H415 0.961 . S
C352 H416 0.960 . S
C352 H417 0.959 . S
C353 C352 1.517 . S
C353 O401 1.468 . S
C353 H414 0.980 . S
C354 C355 1.349 . S
C354 C359 1.367 . S
C354 O401 1.408 . S
C355 C354 1.349 . S
C355 C356 1.407 . S
C355 H418 0.930 . S
C356 C355 1.407 . S
C356 C357 1.449 . S
C356 C360 1.535 . S
C357 C356 1.449 . S
C357 C358 1.384 . S
C357 C382 1.553 1_655 S
C358 C357 1.384 . S
C358 C359 1.364 . S
C358 C361 1.450 . S
C359 C354 1.367 . S
C359 C358 1.364 . S
C359 H419 0.931 . S
C360 C356 1.535 . S
C360 H420 0.959 1_655 S
C360 H421 0.973 . S
C360 H422 0.959 . S
C361 C358 1.450 . S
C361 H423 0.960 . S
C361 H424 0.960 1_655 S
C361 H425 0.960 . S
C362 C363 1.309 . S
C362 C367 1.304 . S
C362 O400 1.435 . S
C363 C362 1.309 . S
C363 C364 1.476 . S
C363 H427 0.930 . S
C364 C363 1.476 . S
C364 C365 1.400 . S
C364 C368 1.567 . S
C365 C364 1.400 . S
C365 C366 1.373 . S
C365 C387 1.432 . S
C366 C365 1.373 . S
C366 C367 1.339 . S
C366 C369 1.530 . S
C367 C362 1.304 . S
C367 C366 1.339 . S
C367 H428 0.930 . S
C368 C364 1.567 . S
C368 H429 0.961 . S
C368 H430 0.960 . S
C368 H431 0.958 . S
C369 C366 1.530 . S
C369 H432 0.961 . S
C369 H433 0.960 . S
C369 H434 0.960 . S
C370 C371 1.530 . S
C370 H436 0.961 . S
C370 H437 0.961 . S
C370 H438 0.959 . S
C371 C370 1.530 . S
C371 O399 1.412 . S
C371 H435 0.980 . S
C372 C373 1.288 . S
C372 C377 1.377 . S
C372 O399 1.393 . S
C373 C372 1.288 . S
C373 C374 1.369 . S
C373 H439 0.932 . S
C374 C373 1.369 . S
C374 C375 1.398 . S
C374 C378 1.527 . S
C375 C374 1.398 . S
C375 C376 1.380 . S
C375 C389 1.497 . S
C376 C375 1.380 . S
C376 C377 1.383 . S
C376 C379 1.603 . S
C377 C372 1.377 . S
C377 C376 1.383 . S
C377 H440 0.929 . S
C378 C374 1.527 . S
C378 H441 0.961 . S
C378 H442 0.959 1_455 S
C378 H443 0.959 . S
C379 C376 1.603 . S
C379 H444 0.960 . S
C379 H445 0.962 . S
C379 H446 0.961 . S
C380 C347 1.587 . S
C380 C381 1.360 . S
C380 C393 1.412 . S
C381 C380 1.360 . S
C381 C382 1.365 . S
C381 H447 0.929 . S
C382 C357 1.553 1_455 S
C382 C381 1.365 . S
C382 C383 1.404 1_455 S
C383 C382 1.404 1_655 S
C383 C384 1.395 . S
C383 C394 1.451 1_655 S
C384 C383 1.395 . S
C384 C385 1.322 . S
C384 H448 0.930 . S
C385 C384 1.322 . S
C385 C386 1.459 . S
C385 H449 0.929 . S
C386 C385 1.459 . S
C386 C387 1.445 . S
C386 C395 1.395 1_655 S
C387 C365 1.432 . S
C387 C386 1.445 . S
C387 C388 1.370 . S
C388 C387 1.370 . S
C388 C389 1.438 1_655 S
C388 H450 0.930 . S
C389 C375 1.497 . S
C389 C388 1.438 1_455 S
C389 C390 1.360 . S
C390 C389 1.360 . S
C390 C391 1.401 . S
C390 C395 1.446 . S
C391 C390 1.401 . S
C391 C392 1.347 . S
C391 H451 0.929 . S
C392 C391 1.347 . S
C392 C393 1.455 . S
C392 H452 0.930 . S
C393 C380 1.412 . S
C393 C392 1.455 . S
C393 C394 1.331 . S
C394 C383 1.451 1_455 S
C394 C393 1.331 . S
C394 C395 1.497 . S
C395 C386 1.395 1_455 S
C395 C390 1.446 . S
C395 C394 1.497 . S
C396 C397 1.582 . S
C396 H453 0.962 . S
C396 H454 0.959 . S
C396 H455 0.958 . S
C397 C396 1.582 . S
C397 O400 1.458 . S
C397 H426 0.980 . S
O398 C343 1.426 . S
O398 C344 1.334 . S
O399 C371 1.412 . S
O399 C372 1.393 . S
O400 C362 1.435 . S
O400 C397 1.458 . S
O401 C353 1.468 . S
O401 C354 1.408 . S
H402 C343 0.980 . S
H403 C342 0.959 . S
H404 C342 0.959 . S
H405 C342 0.960 . S
H406 C345 0.929 . S
H407 C349 0.929 . S
H408 C350 0.959 . S
H409 C350 0.961 . S
H410 C350 0.961 . S
H411 C351 0.960 . S
H412 C351 0.960 . S
H413 C351 0.961 . S
H414 C353 0.980 . S
H415 C352 0.961 . S
H416 C352 0.960 . S
H417 C352 0.959 . S
H418 C355 0.930 . S
H419 C359 0.931 . S
H420 C360 0.959 1_455 S
H421 C360 0.973 . S
H422 C360 0.959 . S
H423 C361 0.960 . S
H424 C361 0.960 1_455 S
H425 C361 0.960 . S
H426 C397 0.980 . S
H427 C363 0.930 . S
H428 C367 0.930 . S
H429 C368 0.961 . S
H430 C368 0.960 . S
H431 C368 0.958 . S
H432 C369 0.961 . S
H433 C369 0.960 . S
H434 C369 0.960 . S
H435 C371 0.980 . S
H436 C370 0.961 . S
H437 C370 0.961 . S
H438 C370 0.959 . S
H439 C373 0.932 . S
H440 C377 0.929 . S
H441 C378 0.961 . S
H442 C378 0.959 1_655 S
H443 C378 0.959 . S
H444 C379 0.960 . S
H445 C379 0.962 . S
H446 C379 0.961 . S
H447 C381 0.929 . S
H448 C384 0.930 . S
H449 C385 0.929 . S
H450 C388 0.930 . S
H451 C391 0.929 . S
H452 C392 0.930 . S
H453 C396 0.962 . S
H454 C396 0.959 . S
H455 C396 0.958 . S
C456 C457 1.560 . S
C456 H517 0.959 . S
C456 H518 0.959 . S
C456 H519 0.960 . S
C457 C456 1.560 . S
C457 O512 1.426 . S
C457 H516 0.980 . S
C458 C459 1.407 . S
C458 C463 1.418 . S
C458 O512 1.334 . S
C459 C458 1.407 . S
C459 C460 1.360 . S
C459 H520 0.929 . S
C460 C459 1.360 . S
C460 C461 1.401 . S
C460 C464 1.527 . S
C461 C460 1.401 . S
C461 C462 1.405 . S
C461 C494 1.587 . S
C462 C461 1.405 . S
C462 C463 1.332 . S
C462 C465 1.496 . S
C463 C458 1.418 . S
C463 C462 1.332 . S
C463 H521 0.929 . S
C464 C460 1.527 . S
C464 H522 0.959 . S
C464 H523 0.961 . S
C464 H524 0.961 . S
C465 C462 1.496 . S
C465 H525 0.960 . S
C465 H526 0.960 . S
C465 H527 0.961 . S
C466 C467 1.517 . S
C466 H529 0.961 . S
C466 H530 0.960 . S
C466 H531 0.959 . S
C467 C466 1.517 . S
C467 O515 1.468 . S
C467 H528 0.980 . S
C468 C469 1.349 . S
C468 C473 1.367 . S
C468 O515 1.408 . S
C469 C468 1.349 . S
C469 C470 1.407 . S
C469 H532 0.930 . S
C470 C469 1.407 . S
C470 C471 1.449 . S
C470 C474 1.535 . S
C471 C470 1.449 . S
C471 C472 1.384 . S
C471 C496 1.553 . S
C472 C471 1.384 . S
C472 C473 1.364 . S
C472 C475 1.450 . S
C473 C468 1.367 . S
C473 C472 1.364 . S
C473 H533 0.931 . S
C474 C470 1.535 . S
C474 H534 0.959 . S
C474 H535 0.961 . S
C474 H536 0.959 . S
C475 C472 1.450 . S
C475 H537 0.960 . S
C475 H538 0.960 . S
C475 H539 0.960 . S
C476 C477 1.309 . S
C476 C481 1.304 . S
C476 O514 1.435 . S
C477 C476 1.309 . S
C477 C478 1.476 . S
C477 H541 0.930 . S
C478 C477 1.476 . S
C478 C479 1.400 . S
C478 C482 1.567 . S
C479 C478 1.400 . S
C479 C480 1.373 . S
C479 C501 1.432 . S
C480 C479 1.373 . S
C480 C481 1.339 . S
C480 C483 1.530 . S
C481 C476 1.304 . S
C481 C480 1.339 . S
C481 H542 0.930 . S
C482 C478 1.567 . S
C482 H543 0.961 . S
C482 H544 0.960 . S
C482 H545 0.958 . S
C483 C480 1.530 . S
C483 H546 0.961 . S
C483 H547 0.960 . S
C483 H548 0.960 . S
C484 C485 1.530 . S
C484 H550 0.961 . S
C484 H551 0.961 . S
C484 H552 0.959 . S
C485 C484 1.530 . S
C485 O513 1.412 . S
C485 H549 0.980 . S
C486 C487 1.288 . S
C486 C491 1.377 . S
C486 O513 1.393 . S
C487 C486 1.288 . S
C487 C488 1.407 . S
C487 H553 0.932 . S
C488 C487 1.407 . S
C488 C489 1.374 . S
C488 C492 1.523 1_565 S
C489 C488 1.374 . S
C489 C490 1.382 . S
C489 C503 1.488 1_565 S
C490 C489 1.382 . S
C490 C491 1.383 . S
C490 C493 1.603 . S
C491 C486 1.377 . S
C491 C490 1.383 . S
C491 H554 0.929 . S
C492 C488 1.523 1_545 S
C492 H555 0.961 . S
C492 H556 0.959 . S
C492 H557 0.959 . S
C493 C490 1.603 . S
C493 H558 0.960 . S
C493 H559 0.951 1_565 S
C493 H560 0.961 . S
C494 C461 1.587 . S
C494 C495 1.360 . S
C494 C507 1.412 . S
C495 C494 1.360 . S
C495 C496 1.365 1_565 S
C495 H561 0.929 . S
C496 C471 1.553 . S
C496 C495 1.365 1_545 S
C496 C497 1.404 . S
C497 C496 1.404 . S
C497 C498 1.395 . S
C497 C508 1.451 . S
C498 C497 1.395 . S
C498 C499 1.322 . S
C498 H562 0.930 . S
C499 C498 1.322 . S
C499 C500 1.459 . S
C499 H563 0.929 . S
C500 C499 1.459 . S
C500 C501 1.445 1_556 S
C500 C509 1.395 . S
C501 C479 1.432 . S
C501 C500 1.445 1_554 S
C501 C502 1.370 . S
C502 C501 1.370 . S
C502 C503 1.438 . S
C502 H564 0.930 . S
C503 C489 1.488 1_545 S
C503 C502 1.438 . S
C503 C504 1.360 . S
C504 C503 1.360 . S
C504 C505 1.401 1_545 S
C504 C509 1.446 1_554 S
C505 C504 1.401 1_565 S
C505 C506 1.347 1_554 S
C505 H565 0.929 . S
C506 C505 1.347 1_556 S
C506 C507 1.455 . S
C506 H566 0.930 . S
C507 C494 1.412 . S
C507 C506 1.455 . S
C507 C508 1.331 1_565 S
C508 C497 1.451 . S
C508 C507 1.331 1_545 S
C508 C509 1.497 . S
C509 C500 1.395 . S
C509 C504 1.446 1_556 S
C509 C508 1.497 . S
C510 C511 1.582 . S
C510 H567 0.962 . S
C510 H568 0.959 . S
C510 H569 0.958 . S
C511 C510 1.582 . S
C511 O514 1.458 . S
C511 H540 0.980 . S
O512 C457 1.426 . S
O512 C458 1.334 . S
O513 C485 1.412 . S
O513 C486 1.393 . S
O514 C476 1.435 . S
O514 C511 1.458 . S
O515 C467 1.468 . S
O515 C468 1.408 . S
H516 C457 0.980 . S
H517 C456 0.959 . S
H518 C456 0.959 . S
H519 C456 0.960 . S
H520 C459 0.929 . S
H521 C463 0.929 . S
H522 C464 0.959 . S
H523 C464 0.961 . S
H524 C464 0.961 . S
H525 C465 0.960 . S
H526 C465 0.960 . S
H527 C465 0.961 . S
H528 C467 0.980 . S
H529 C466 0.961 . S
H530 C466 0.960 . S
H531 C466 0.959 . S
H532 C469 0.930 . S
H533 C473 0.931 . S
H534 C474 0.959 . S
H535 C474 0.961 . S
H536 C474 0.959 . S
H537 C475 0.960 . S
H538 C475 0.960 . S
H539 C475 0.960 . S
H540 C511 0.980 . S
H541 C477 0.930 . S
H542 C481 0.930 . S
H543 C482 0.961 . S
H544 C482 0.960 . S
H545 C482 0.958 . S
H546 C483 0.961 . S
H547 C483 0.960 . S
H548 C483 0.960 . S
H549 C485 0.980 . S
H550 C484 0.961 . S
H551 C484 0.961 . S
H552 C484 0.959 . S
H553 C487 0.932 . S
H554 C491 0.929 . S
H555 C492 0.961 . S
H556 C492 0.959 . S
H557 C492 0.959 . S
H558 C493 0.960 . S
H559 C493 0.951 1_545 S
H560 C493 0.961 . S
H561 C495 0.929 . S
H562 C498 0.930 . S
H563 C499 0.929 . S
H564 C502 0.930 . S
H565 C505 0.929 . S
H566 C506 0.930 . S
H567 C510 0.962 . S
H568 C510 0.959 . S
H569 C510 0.958 . S
C570 C571 1.560 . S
C570 H631 0.959 . S
C570 H632 0.959 . S
C570 H633 0.960 . S
C571 C570 1.560 . S
C571 O626 1.426 . S
C571 H630 0.980 . S
C572 C573 1.407 . S
C572 C577 1.418 . S
C572 O626 1.334 . S
C573 C572 1.407 . S
C573 C574 1.360 . S
C573 H634 0.929 . S
C574 C573 1.360 . S
C574 C575 1.401 . S
C574 C578 1.527 . S
C575 C574 1.401 . S
C575 C576 1.405 . S
C575 C608 1.587 . S
C576 C575 1.405 . S
C576 C577 1.332 . S
C576 C579 1.496 . S
C577 C572 1.418 . S
C577 C576 1.332 . S
C577 H635 0.929 . S
C578 C574 1.527 . S
C578 H636 0.959 . S
C578 H637 0.961 . S
C578 H638 0.961 . S
C579 C576 1.496 . S
C579 H639 0.960 . S
C579 H640 0.960 . S
C579 H641 0.961 . S
C580 C581 1.517 . S
C580 H643 0.961 . S
C580 H644 0.960 . S
C580 H645 0.959 . S
C581 C580 1.517 . S
C581 O629 1.468 . S
C581 H642 0.980 . S
C582 C583 1.349 . S
C582 C587 1.367 . S
C582 O629 1.408 . S
C583 C582 1.349 . S
C583 C584 1.407 . S
C583 H646 0.930 . S
C584 C583 1.407 . S
C584 C585 1.449 . S
C584 C588 1.535 . S
C585 C584 1.449 . S
C585 C586 1.384 . S
C585 C610 1.553 . S
C586 C585 1.384 . S
C586 C587 1.364 . S
C586 C589 1.450 . S
C587 C582 1.367 . S
C587 C586 1.364 . S
C587 H647 0.931 . S
C588 C584 1.535 . S
C588 H648 0.959 . S
C588 H649 0.961 . S
C588 H650 0.959 . S
C589 C586 1.450 . S
C589 H651 0.960 . S
C589 H652 0.960 . S
C589 H653 0.960 . S
C590 C591 1.309 . S
C590 C595 1.304 . S
C590 O628 1.435 . S
C591 C590 1.309 . S
C591 C592 1.476 . S
C591 H655 0.930 . S
C592 C591 1.476 . S
C592 C593 1.400 . S
C592 C596 1.567 . S
C593 C592 1.400 . S
C593 C594 1.373 . S
C593 C615 1.432 . S
C594 C593 1.373 . S
C594 C595 1.339 . S
C594 C597 1.530 . S
C595 C590 1.304 . S
C595 C594 1.339 . S
C595 H656 0.930 . S
C596 C592 1.567 . S
C596 H657 0.961 . S
C596 H658 0.960 . S
C596 H659 0.958 . S
C597 C594 1.530 . S
C597 H660 0.961 . S
C597 H661 0.960 . S
C597 H662 0.960 . S
C598 C599 1.530 . S
C598 H664 0.961 . S
C598 H665 0.961 . S
C598 H666 0.959 . S
C599 C598 1.530 . S
C599 O627 1.412 . S
C599 H663 0.980 . S
C600 C601 1.288 . S
C600 C605 1.377 . S
C600 O627 1.393 . S
C601 C600 1.288 . S
C601 C602 1.369 . S
C601 H667 0.932 . S
C602 C601 1.369 . S
C602 C603 1.398 . S
C602 C606 1.527 . S
C603 C602 1.398 . S
C603 C604 1.380 . S
C603 C617 1.497 . S
C604 C603 1.380 . S
C604 C605 1.383 . S
C604 C607 1.603 . S
C605 C600 1.377 . S
C605 C604 1.383 . S
C605 H668 0.929 . S
C606 C602 1.527 . S
C606 H669 0.961 . S
C606 H670 0.959 . S
C606 H671 0.959 . S
C607 C604 1.603 . S
C607 H672 0.960 . S
C607 H673 0.962 . S
C607 H674 0.961 . S
C608 C575 1.587 . S
C608 C609 1.360 . S
C608 C621 1.412 . S
C609 C608 1.360 . S
C609 C610 1.365 . S
C609 H675 0.929 . S
C610 C585 1.553 . S
C610 C609 1.365 . S
C610 C611 1.404 . S
C611 C610 1.404 . S
C611 C612 1.395 . S
C611 C622 1.451 . S
C612 C611 1.395 . S
C612 C613 1.322 . S
C612 H676 0.930 . S
C613 C612 1.322 . S
C613 C614 1.459 . S
C613 H677 0.929 . S
C614 C613 1.459 . S
C614 C615 1.445 . S
C614 C623 1.395 . S
C615 C593 1.432 . S
C615 C614 1.445 . S
C615 C616 1.370 . S
C616 C615 1.370 . S
C616 C617 1.438 . S
C616 H678 0.930 . S
C617 C603 1.497 . S
C617 C616 1.438 . S
C617 C618 1.360 . S
C618 C617 1.360 . S
C618 C619 1.401 . S
C618 C623 1.446 . S
C619 C618 1.401 . S
C619 C620 1.347 . S
C619 H679 0.929 . S
C620 C619 1.347 . S
C620 C621 1.455 . S
C620 H680 0.930 . S
C621 C608 1.412 . S
C621 C620 1.455 . S
C621 C622 1.331 . S
C622 C611 1.451 . S
C622 C621 1.331 . S
C622 C623 1.497 . S
C623 C614 1.395 . S
C623 C618 1.446 . S
C623 C622 1.497 . S
C624 C625 1.582 . S
C624 H681 0.962 . S
C624 H682 0.959 . S
C624 H683 0.958 . S
C625 C624 1.582 . S
C625 O628 1.458 . S
C625 H654 0.980 . S
O626 C571 1.426 . S
O626 C572 1.334 . S
O627 C599 1.412 . S
O627 C600 1.393 . S
O628 C590 1.435 . S
O628 C625 1.458 . S
O629 C581 1.468 . S
O629 C582 1.408 . S
H630 C571 0.980 . S
H631 C570 0.959 . S
H632 C570 0.959 . S
H633 C570 0.960 . S
H634 C573 0.929 . S
H635 C577 0.929 . S
H636 C578 0.959 . S
H637 C578 0.961 . S
H638 C578 0.961 . S
H639 C579 0.960 . S
H640 C579 0.960 . S
H641 C579 0.961 . S
H642 C581 0.980 . S
H643 C580 0.961 . S
H644 C580 0.960 . S
H645 C580 0.959 . S
H646 C583 0.930 . S
H647 C587 0.931 . S
H648 C588 0.959 . S
H649 C588 0.961 . S
H650 C588 0.959 . S
H651 C589 0.960 . S
H652 C589 0.960 . S
H653 C589 0.960 . S
H654 C625 0.980 . S
H655 C591 0.930 . S
H656 C595 0.930 . S
H657 C596 0.961 . S
H658 C596 0.960 . S
H659 C596 0.958 . S
H660 C597 0.961 . S
H661 C597 0.960 . S
H662 C597 0.960 . S
H663 C599 0.980 . S
H664 C598 0.961 . S
H665 C598 0.961 . S
H666 C598 0.959 . S
H667 C601 0.932 . S
H668 C605 0.929 . S
H669 C606 0.961 . S
H670 C606 0.959 . S
H671 C606 0.959 . S
H672 C607 0.960 . S
H673 C607 0.962 . S
H674 C607 0.961 . S
H675 C609 0.929 . S
H676 C612 0.930 . S
H677 C613 0.929 . S
H678 C616 0.930 . S
H679 C619 0.929 . S
H680 C620 0.930 . S
H681 C624 0.962 . S
H682 C624 0.959 . S
H683 C624 0.958 . S
C684 O685 1.160 . S
C684 O691 1.185 . S
O685 C684 1.160 . S
O686 Zn687 1.899 . S
O686 C694 1.284 . S
Zn687 O686 1.899 . S
Zn687 O688 2.032 . S
Zn687 O691 2.086 . S
Zn687 O696 1.977 . S
O688 Zn687 2.032 . S
O688 C692 1.278 . S
C689 O690 1.203 . S
C689 O696 1.267 . S
O690 C689 1.203 . S
O691 C684 1.185 . S
O691 Zn687 2.086 . S
C692 O688 1.278 . S
C692 O693 1.211 . S
O693 C692 1.211 . S
C694 O686 1.284 . S
C694 O695 1.273 . S
O695 C694 1.273 . S
O696 Zn687 1.977 . S
O696 C689 1.267 . S
C697 O698 1.160 . S
C697 O704 1.185 . S
O698 C697 1.160 . S
O699 Zn700 1.899 . S
O699 C707 1.284 . S
Zn700 O699 1.899 . S
Zn700 O701 2.032 . S
Zn700 O704 2.086 . S
Zn700 O709 1.977 . S
O701 Zn700 2.032 . S
O701 C705 1.278 . S
C702 O703 1.203 . S
C702 O709 1.267 . S
O703 C702 1.203 . S
O704 C697 1.185 . S
O704 Zn700 2.086 . S
C705 O701 1.278 . S
C705 O706 1.211 . S
O706 C705 1.211 . S
C707 O699 1.284 . S
C707 O708 1.273 . S
O708 C707 1.273 . S
O709 Zn700 1.977 . S
O709 C702 1.267 . S
C710 O711 1.160 . S
C710 O717 1.185 . S
O711 C710 1.160 . S
O712 Zn713 1.899 . S
O712 C720 1.284 . S
Zn713 O712 1.899 . S
Zn713 O714 2.032 . S
Zn713 O717 2.086 . S
Zn713 O722 1.977 . S
O714 Zn713 2.032 . S
O714 C718 1.278 . S
C715 O716 1.203 . S
C715 O722 1.267 . S
O716 C715 1.203 . S
O717 C710 1.185 . S
O717 Zn713 2.086 . S
C718 O714 1.278 . S
C718 O719 1.211 . S
O719 C718 1.211 . S
C720 O712 1.284 . S
C720 O721 1.273 . S
O721 C720 1.273 . S
O722 Zn713 1.977 . S
O722 C715 1.267 . S
C723 O724 1.160 . S
C723 O730 1.185 . S
O724 C723 1.160 . S
O725 Zn726 1.899 . S
O725 C733 1.284 . S
Zn726 O725 1.899 . S
Zn726 O727 2.032 . S
Zn726 O730 2.086 . S
Zn726 O735 1.977 . S
O727 Zn726 2.032 . S
O727 C731 1.278 . S
C728 O729 1.203 . S
C728 O735 1.267 . S
O729 C728 1.203 . S
O730 C723 1.185 . S
O730 Zn726 2.086 . S
C731 O727 1.278 . S
C731 O732 1.211 . S
O732 C731 1.211 . S
C733 O725 1.284 . S
C733 O734 1.273 . S
O734 C733 1.273 . S
O735 Zn726 1.977 . S
O735 C728 1.267 . S
C736 O737 1.160 . S
C736 O743 1.185 . S
O737 C736 1.160 . S
O738 Zn739 1.899 . S
O738 C746 1.284 . S
Zn739 O738 1.899 . S
Zn739 O740 2.032 . S
Zn739 O743 2.086 . S
Zn739 O748 1.977 . S
O740 Zn739 2.032 . S
O740 C744 1.278 . S
C741 O742 1.203 . S
C741 O748 1.267 . S
O742 C741 1.203 . S
O743 C736 1.185 . S
O743 Zn739 2.086 . S
C744 O740 1.278 . S
C744 O745 1.211 . S
O745 C744 1.211 . S
C746 O738 1.284 . S
C746 O747 1.273 . S
O747 C746 1.273 . S
O748 Zn739 1.977 . S
O748 C741 1.267 . S
C749 O750 1.160 . S
C749 O756 1.185 . S
O750 C749 1.160 . S
O751 Zn752 1.899 . S
O751 C759 1.284 . S
Zn752 O751 1.899 . S
Zn752 O753 2.032 . S
Zn752 O756 2.086 . S
Zn752 O761 1.977 . S
O753 Zn752 2.032 . S
O753 C757 1.278 . S
C754 O755 1.203 . S
C754 O761 1.267 . S
O755 C754 1.203 . S
O756 C749 1.185 . S
O756 Zn752 2.086 . S
C757 O753 1.278 . S
C757 O758 1.211 . S
O758 C757 1.211 . S
C759 O751 1.284 . S
C759 O760 1.273 . S
O760 C759 1.273 . S
O761 Zn752 1.977 . S
O761 C754 1.267 . S
H762 C780 0.951 . S
H763 C782 0.951 . S
H764 C784 0.950 . S
H765 C785 0.950 . S
H766 C787 0.950 . S
H767 C790 0.950 . S
H768 C791 0.950 . S
H769 C793 0.950 . S
H770 C794 0.950 . S
H771 C795 0.951 . S
H772 C797 0.951 . S
H773 C799 0.950 . S
H774 C800 0.950 . S
H775 C802 0.950 . S
H776 C805 0.950 . S
H777 C806 0.950 . S
H778 C808 0.950 . S
H779 C809 0.950 . S
C780 H762 0.951 . S
C780 C781 1.366 . S
C780 C782 1.388 . S
C781 C780 1.366 . S
C781 C785 1.385 . S
C782 H763 0.951 . S
C782 C780 1.388 . S
C782 C783 1.366 . S
C783 C782 1.366 . S
C783 C784 1.414 . S
C783 C786 1.499 . S
C784 H764 0.950 . S
C784 C783 1.414 . S
C784 C785 1.374 . S
C785 H765 0.950 . S
C785 C781 1.385 . S
C785 C784 1.374 . S
C786 C783 1.499 . S
C786 C787 1.373 . S
C786 C788 1.389 . S
C787 H766 0.950 . S
C787 C786 1.373 . S
C787 C803 1.377 . S
C788 C786 1.389 . S
C788 C789 1.524 . S
C788 C802 1.377 . S
C789 C788 1.524 . S
C789 C790 1.397 . S
C789 C794 1.363 . S
C790 H767 0.950 . S
C790 C789 1.397 . S
C790 C791 1.334 . S
C791 H768 0.950 . S
C791 C790 1.334 . S
C791 C792 1.287 . S
C792 C791 1.287 . S
C792 C793 1.524 . S
C792 H811 0.913 . S
C793 H769 0.950 . S
C793 C792 1.524 . S
C793 C794 1.415 . S
C794 H770 0.950 . S
C794 C789 1.363 . S
C794 C793 1.415 . S
C795 H771 0.951 . S
C795 C796 1.366 . S
C795 C797 1.388 . S
C796 C795 1.366 . S
C796 C800 1.385 . S
C797 H772 0.951 . S
C797 C795 1.388 . S
C797 C798 1.366 . S
C798 C797 1.366 . S
C798 C799 1.414 . S
C798 C801 1.499 . S
C799 H773 0.950 . S
C799 C798 1.414 . S
C799 C800 1.374 . S
C800 H774 0.950 . S
C800 C796 1.385 . S
C800 C799 1.374 . S
C801 C798 1.499 . S
C801 C802 1.373 . S
C801 C803 1.389 . S
C802 H775 0.950 . S
C802 C788 1.377 . S
C802 C801 1.373 . S
C803 C787 1.377 . S
C803 C801 1.389 . S
C803 C804 1.524 . S
C804 C803 1.524 . S
C804 C805 1.397 . S
C804 C809 1.363 . S
C805 H776 0.950 . S
C805 C804 1.397 . S
C805 C806 1.334 . S
C806 H777 0.950 . S
C806 C805 1.334 . S
C806 C807 1.287 . S
C807 C806 1.287 . S
C807 C808 1.524 . S
C807 H810 0.999 . S
C808 H778 0.950 . S
C808 C807 1.524 . S
C808 C809 1.415 . S
C809 H779 0.950 . S
C809 C804 1.363 . S
C809 C808 1.415 . S
H810 C807 0.999 . S
H811 C792 0.913 . S
H812 C830 0.951 . S
H813 C832 0.951 . S
H814 C834 0.950 . S
H815 C835 0.950 . S
H816 C837 0.950 . S
H817 C840 0.950 . S
H818 C841 0.950 . S
H819 C843 0.950 . S
H820 C844 0.950 . S
H821 C845 0.951 . S
H822 C847 0.951 . S
H823 C849 0.950 . S
H824 C850 0.950 . S
H825 C852 0.950 . S
H826 C855 0.950 . S
H827 C856 0.950 . S
H828 C858 0.950 . S
H829 C859 0.950 . S
C830 H812 0.951 . S
C830 C831 1.366 . S
C830 C832 1.388 . S
C831 C830 1.366 . S
C831 C835 1.385 . S
C832 H813 0.951 . S
C832 C830 1.388 . S
C832 C833 1.366 . S
C833 C832 1.366 . S
C833 C834 1.414 . S
C833 C836 1.499 . S
C834 H814 0.950 . S
C834 C833 1.414 . S
C834 C835 1.374 . S
C835 H815 0.950 . S
C835 C831 1.385 . S
C835 C834 1.374 . S
C836 C833 1.499 . S
C836 C837 1.373 . S
C836 C838 1.389 . S
C837 H816 0.950 . S
C837 C836 1.373 . S
C837 C853 1.377 . S
C838 C836 1.389 . S
C838 C839 1.524 . S
C838 C852 1.377 . S
C839 C838 1.524 . S
C839 C840 1.397 . S
C839 C844 1.363 . S
C840 H817 0.950 . S
C840 C839 1.397 . S
C840 C841 1.334 . S
C841 H818 0.950 . S
C841 C840 1.334 . S
C841 C842 1.287 . S
C842 C841 1.287 . S
C842 C843 1.524 . S
C842 H861 0.913 . S
C843 H819 0.950 . S
C843 C842 1.524 . S
C843 C844 1.415 . S
C844 H820 0.950 . S
C844 C839 1.363 . S
C844 C843 1.415 . S
C845 H821 0.951 . S
C845 C846 1.366 . S
C845 C847 1.388 . S
C846 C845 1.366 . S
C846 C850 1.385 . S
C847 H822 0.951 . S
C847 C845 1.388 . S
C847 C848 1.366 . S
C848 C847 1.366 . S
C848 C849 1.414 . S
C848 C851 1.499 . S
C849 H823 0.950 . S
C849 C848 1.414 . S
C849 C850 1.374 . S
C850 H824 0.950 . S
C850 C846 1.385 . S
C850 C849 1.374 . S
C851 C848 1.499 . S
C851 C852 1.373 . S
C851 C853 1.389 . S
C852 H825 0.950 . S
C852 C838 1.377 . S
C852 C851 1.373 . S
C853 C837 1.377 . S
C853 C851 1.389 . S
C853 C854 1.524 . S
C854 C853 1.524 . S
C854 C855 1.397 . S
C854 C859 1.363 . S
C855 H826 0.950 . S
C855 C854 1.397 . S
C855 C856 1.334 . S
C856 H827 0.950 . S
C856 C855 1.334 . S
C856 C857 1.287 . S
C857 C856 1.287 . S
C857 C858 1.524 . S
C857 H860 0.999 . S
C858 H828 0.950 . S
C858 C857 1.524 . S
C858 C859 1.415 . S
C859 H829 0.950 . S
C859 C854 1.363 . S
C859 C858 1.415 . S
H860 C857 0.999 . S
H861 C842 0.913 . S
H862 C880 0.951 . S
H863 C882 0.951 . S
H864 C884 0.950 . S
H865 C885 0.950 . S
H866 C887 0.950 . S
H867 C890 0.950 . S
H868 C891 0.950 . S
H869 C893 0.950 . S
H870 C894 0.950 . S
H871 C895 0.951 . S
H872 C897 0.951 . S
H873 C899 0.950 . S
H874 C900 0.950 . S
H875 C902 0.950 . S
H876 C905 0.950 . S
H877 C906 0.950 . S
H878 C908 0.950 . S
H879 C909 0.950 . S
C880 H862 0.951 . S
C880 C881 1.366 . S
C880 C882 1.388 . S
C881 C880 1.366 . S
C881 C885 1.385 . S
C882 H863 0.951 . S
C882 C880 1.388 . S
C882 C883 1.366 . S
C883 C882 1.366 . S
C883 C884 1.414 . S
C883 C886 1.499 . S
C884 H864 0.950 . S
C884 C883 1.414 . S
C884 C885 1.374 . S
C885 H865 0.950 . S
C885 C881 1.385 . S
C885 C884 1.374 . S
C886 C883 1.499 . S
C886 C887 1.373 . S
C886 C888 1.389 . S
C887 H866 0.950 . S
C887 C886 1.373 . S
C887 C903 1.377 . S
C888 C886 1.389 . S
C888 C889 1.524 . S
C888 C902 1.377 . S
C889 C888 1.524 . S
C889 C890 1.397 . S
C889 C894 1.363 . S
C890 H867 0.950 . S
C890 C889 1.397 . S
C890 C891 1.334 . S
C891 H868 0.950 . S
C891 C890 1.334 . S
C891 C892 1.287 . S
C892 C891 1.287 . S
C892 C893 1.524 . S
C892 H911 0.913 . S
C893 H869 0.950 . S
C893 C892 1.524 . S
C893 C894 1.415 . S
C894 H870 0.950 . S
C894 C889 1.363 . S
C894 C893 1.415 . S
C895 H871 0.951 . S
C895 C896 1.366 . S
C895 C897 1.388 . S
C896 C895 1.366 . S
C896 C900 1.385 . S
C897 H872 0.951 . S
C897 C895 1.388 . S
C897 C898 1.366 . S
C898 C897 1.366 . S
C898 C899 1.414 . S
C898 C901 1.499 . S
C899 H873 0.950 . S
C899 C898 1.414 . S
C899 C900 1.374 . S
C900 H874 0.950 . S
C900 C896 1.385 . S
C900 C899 1.374 . S
C901 C898 1.499 . S
C901 C902 1.373 . S
C901 C903 1.389 . S
C902 H875 0.950 . S
C902 C888 1.377 . S
C902 C901 1.373 . S
C903 C887 1.377 . S
C903 C901 1.389 . S
C903 C904 1.524 . S
C904 C903 1.524 . S
C904 C905 1.397 . S
C904 C909 1.363 . S
C905 H876 0.950 . S
C905 C904 1.397 . S
C905 C906 1.334 . S
C906 H877 0.950 . S
C906 C905 1.334 . S
C906 C907 1.287 . S
C907 C906 1.287 . S
C907 C908 1.524 . S
C907 H910 0.999 . S
C908 H878 0.950 . S
C908 C907 1.524 . S
C908 C909 1.415 . S
C909 H879 0.950 . S
C909 C904 1.363 . S
C909 C908 1.415 . S
H910 C907 0.999 . S
H911 C892 0.913 . S
H912 C930 0.951 . S
H913 C932 0.951 . S
H914 C934 0.950 . S
H915 C935 0.950 . S
H916 C937 0.950 . S
H917 C940 0.950 . S
H918 C941 0.950 . S
H919 C943 0.950 . S
H920 C944 0.950 . S
H921 C945 0.951 . S
H922 C947 0.951 . S
H923 C949 0.950 . S
H924 C950 0.950 . S
H925 C952 0.950 . S
H926 C955 0.950 . S
H927 C956 0.950 . S
H928 C958 0.950 . S
H929 C959 0.950 . S
C930 H912 0.951 . S
C930 C931 1.366 . S
C930 C932 1.388 . S
C931 C930 1.366 . S
C931 C935 1.385 . S
C932 H913 0.951 . S
C932 C930 1.388 . S
C932 C933 1.366 . S
C933 C932 1.366 . S
C933 C934 1.414 . S
C933 C936 1.499 . S
C934 H914 0.950 . S
C934 C933 1.414 . S
C934 C935 1.374 . S
C935 H915 0.950 . S
C935 C931 1.385 . S
C935 C934 1.374 . S
C936 C933 1.499 . S
C936 C937 1.373 . S
C936 C938 1.389 . S
C937 H916 0.950 . S
C937 C936 1.373 . S
C937 C953 1.377 . S
C938 C936 1.389 . S
C938 C939 1.524 . S
C938 C952 1.377 . S
C939 C938 1.524 . S
C939 C940 1.397 . S
C939 C944 1.363 . S
C940 H917 0.950 . S
C940 C939 1.397 . S
C940 C941 1.334 . S
C941 H918 0.950 . S
C941 C940 1.334 . S
C941 C942 1.287 . S
C942 C941 1.287 . S
C942 C943 1.524 . S
C942 H961 0.913 . S
C943 H919 0.950 . S
C943 C942 1.524 . S
C943 C944 1.415 . S
C944 H920 0.950 . S
C944 C939 1.363 . S
C944 C943 1.415 . S
C945 H921 0.951 . S
C945 C946 1.366 . S
C945 C947 1.388 . S
C946 C945 1.366 . S
C946 C950 1.385 . S
C947 H922 0.951 . S
C947 C945 1.388 . S
C947 C948 1.366 . S
C948 C947 1.366 . S
C948 C949 1.414 . S
C948 C951 1.499 . S
C949 H923 0.950 . S
C949 C948 1.414 . S
C949 C950 1.374 . S
C950 H924 0.950 . S
C950 C946 1.385 . S
C950 C949 1.374 . S
C951 C948 1.499 . S
C951 C952 1.373 . S
C951 C953 1.389 . S
C952 H925 0.950 . S
C952 C938 1.377 . S
C952 C951 1.373 . S
C953 C937 1.377 . S
C953 C951 1.389 . S
C953 C954 1.524 . S
C954 C953 1.524 . S
C954 C955 1.397 . S
C954 C959 1.363 . S
C955 H926 0.950 . S
C955 C954 1.397 . S
C955 C956 1.334 . S
C956 H927 0.950 . S
C956 C955 1.334 . S
C956 C957 1.287 . S
C957 C956 1.287 . S
C957 C958 1.524 . S
C957 H960 0.999 . S
C958 H928 0.950 . S
C958 C957 1.524 . S
C958 C959 1.415 . S
C959 H929 0.950 . S
C959 C954 1.363 . S
C959 C958 1.415 . S
H960 C957 0.999 . S
H961 C942 0.913 . S
H962 C980 0.951 . S
H963 C982 0.951 . S
H964 C984 0.950 . S
H965 C985 0.950 . S
H966 C987 0.950 . S
H967 C990 0.950 . S
H968 C991 0.950 . S
H969 C993 0.950 . S
H970 C994 0.950 . S
H971 C995 0.951 . S
H972 C997 0.951 . S
H973 C999 0.950 . S
H974 C1000 0.950 . S
H975 C1002 0.950 . S
H976 C1005 0.950 . S
H977 C1006 0.950 . S
H978 C1008 0.950 . S
H979 C1009 0.950 . S
C980 H962 0.951 . S
C980 C981 1.366 . S
C980 C982 1.388 . S
C981 C980 1.366 . S
C981 C985 1.385 . S
C982 H963 0.951 . S
C982 C980 1.388 . S
C982 C983 1.366 . S
C983 C982 1.366 . S
C983 C984 1.414 . S
C983 C986 1.499 . S
C984 H964 0.950 . S
C984 C983 1.414 . S
C984 C985 1.374 . S
C985 H965 0.950 . S
C985 C981 1.385 . S
C985 C984 1.374 . S
C986 C983 1.499 . S
C986 C987 1.373 . S
C986 C988 1.389 . S
C987 H966 0.950 . S
C987 C986 1.373 . S
C987 C1003 1.377 . S
C988 C986 1.389 . S
C988 C989 1.524 . S
C988 C1002 1.377 . S
C989 C988 1.524 . S
C989 C990 1.397 . S
C989 C994 1.363 . S
C990 H967 0.950 . S
C990 C989 1.397 . S
C990 C991 1.334 . S
C991 H968 0.950 . S
C991 C990 1.334 . S
C991 C992 1.287 . S
C992 C991 1.287 . S
C992 C993 1.524 . S
C992 H1011 0.913 . S
C993 H969 0.950 . S
C993 C992 1.524 . S
C993 C994 1.415 . S
C994 H970 0.950 . S
C994 C989 1.363 . S
C994 C993 1.415 . S
C995 H971 0.951 . S
C995 C996 1.366 . S
C995 C997 1.388 . S
C996 C995 1.366 . S
C996 C1000 1.385 . S
C997 H972 0.951 . S
C997 C995 1.388 . S
C997 C998 1.366 . S
C998 C997 1.366 . S
C998 C999 1.414 . S
C998 C1001 1.499 . S
C999 H973 0.950 . S
C999 C998 1.414 . S
C999 C1000 1.374 . S
C1000 H974 0.950 . S
C1000 C996 1.385 . S
C1000 C999 1.374 . S
C1001 C998 1.499 . S
C1001 C1002 1.373 . S
C1001 C1003 1.389 . S
C1002 H975 0.950 . S
C1002 C988 1.377 . S
C1002 C1001 1.373 . S
C1003 C987 1.377 . S
C1003 C1001 1.389 . S
C1003 C1004 1.524 . S
C1004 C1003 1.524 . S
C1004 C1005 1.397 . S
C1004 C1009 1.363 . S
C1005 H976 0.950 . S
C1005 C1004 1.397 . S
C1005 C1006 1.334 . S
C1006 H977 0.950 . S
C1006 C1005 1.334 . S
C1006 C1007 1.287 . S
C1007 C1006 1.287 . S
C1007 C1008 1.524 . S
C1007 H1010 0.999 . S
C1008 H978 0.950 . S
C1008 C1007 1.524 . S
C1008 C1009 1.415 . S
C1009 H979 0.950 . S
C1009 C1004 1.363 . S
C1009 C1008 1.415 . S
H1010 C1007 0.999 . S
H1011 C992 0.913 . S
H1012 C1030 0.951 . S
H1013 C1032 0.951 . S
H1014 C1034 0.950 . S
H1015 C1035 0.950 . S
H1016 C1037 0.950 . S
H1017 C1040 0.950 . S
H1018 C1041 0.950 . S
H1019 C1043 0.950 . S
H1020 C1044 0.950 . S
H1021 C1045 0.951 . S
H1022 C1047 0.951 . S
H1023 C1049 0.950 . S
H1024 C1050 0.950 . S
H1025 C1052 0.950 . S
H1026 C1055 0.950 . S
H1027 C1056 0.950 . S
H1028 C1058 0.950 . S
H1029 C1059 0.950 . S
C1030 H1012 0.951 . S
C1030 C1031 1.366 . S
C1030 C1032 1.388 . S
C1031 C1030 1.366 . S
C1031 C1035 1.385 . S
C1032 H1013 0.951 . S
C1032 C1030 1.388 . S
C1032 C1033 1.366 . S
C1033 C1032 1.366 . S
C1033 C1034 1.414 . S
C1033 C1036 1.499 . S
C1034 H1014 0.950 . S
C1034 C1033 1.414 . S
C1034 C1035 1.374 . S
C1035 H1015 0.950 . S
C1035 C1031 1.385 . S
C1035 C1034 1.374 . S
C1036 C1033 1.499 . S
C1036 C1037 1.373 . S
C1036 C1038 1.389 . S
C1037 H1016 0.950 . S
C1037 C1036 1.373 . S
C1037 C1053 1.377 . S
C1038 C1036 1.389 . S
C1038 C1039 1.524 . S
C1038 C1052 1.377 . S
C1039 C1038 1.524 . S
C1039 C1040 1.397 . S
C1039 C1044 1.363 . S
C1040 H1017 0.950 . S
C1040 C1039 1.397 . S
C1040 C1041 1.334 . S
C1041 H1018 0.950 . S
C1041 C1040 1.334 . S
C1041 C1042 1.287 . S
C1042 C1041 1.287 . S
C1042 C1043 1.524 . S
C1042 H1061 0.913 . S
C1043 H1019 0.950 . S
C1043 C1042 1.524 . S
C1043 C1044 1.415 . S
C1044 H1020 0.950 . S
C1044 C1039 1.363 . S
C1044 C1043 1.415 . S
C1045 H1021 0.951 . S
C1045 C1046 1.366 . S
C1045 C1047 1.388 . S
C1046 C1045 1.366 . S
C1046 C1050 1.385 . S
C1047 H1022 0.951 . S
C1047 C1045 1.388 . S
C1047 C1048 1.366 . S
C1048 C1047 1.366 . S
C1048 C1049 1.414 . S
C1048 C1051 1.499 . S
C1049 H1023 0.950 . S
C1049 C1048 1.414 . S
C1049 C1050 1.374 . S
C1050 H1024 0.950 . S
C1050 C1046 1.385 . S
C1050 C1049 1.374 . S
C1051 C1048 1.499 . S
C1051 C1052 1.373 . S
C1051 C1053 1.389 . S
C1052 H1025 0.950 . S
C1052 C1038 1.377 . S
C1052 C1051 1.373 . S
C1053 C1037 1.377 . S
C1053 C1051 1.389 . S
C1053 C1054 1.524 . S
C1054 C1053 1.524 . S
C1054 C1055 1.397 . S
C1054 C1059 1.363 . S
C1055 H1026 0.950 . S
C1055 C1054 1.397 . S
C1055 C1056 1.334 . S
C1056 H1027 0.950 . S
C1056 C1055 1.334 . S
C1056 C1057 1.287 . S
C1057 C1056 1.287 . S
C1057 C1058 1.524 . S
C1057 H1060 0.999 . S
C1058 H1028 0.950 . S
C1058 C1057 1.524 . S
C1058 C1059 1.415 . S
C1059 H1029 0.950 . S
C1059 C1054 1.363 . S
C1059 C1058 1.415 . S
H1060 C1057 0.999 . S
H1061 C1042 0.913 . S
H1062 C1080 0.951 . S
H1063 C1082 0.951 . S
H1064 C1084 0.950 . S
H1065 C1085 0.950 . S
H1066 C1087 0.950 . S
H1067 C1090 0.950 . S
H1068 C1091 0.950 . S
H1069 C1093 0.950 . S
H1070 C1094 0.950 . S
H1071 C1095 0.951 . S
H1072 C1097 0.951 . S
H1073 C1099 0.950 . S
H1074 C1100 0.950 . S
H1075 C1102 0.950 . S
H1076 C1105 0.950 . S
H1077 C1106 0.950 . S
H1078 C1108 0.950 . S
H1079 C1109 0.950 . S
C1080 H1062 0.951 . S
C1080 C1081 1.366 . S
C1080 C1082 1.388 . S
C1081 C1080 1.366 . S
C1081 C1085 1.385 . S
C1082 H1063 0.951 . S
C1082 C1080 1.388 . S
C1082 C1083 1.366 . S
C1083 C1082 1.366 . S
C1083 C1084 1.414 . S
C1083 C1086 1.499 . S
C1084 H1064 0.950 . S
C1084 C1083 1.414 . S
C1084 C1085 1.374 . S
C1085 H1065 0.950 . S
C1085 C1081 1.385 . S
C1085 C1084 1.374 . S
C1086 C1083 1.499 . S
C1086 C1087 1.373 . S
C1086 C1088 1.389 . S
C1087 H1066 0.950 . S
C1087 C1086 1.373 . S
C1087 C1103 1.377 . S
C1088 C1086 1.389 . S
C1088 C1089 1.524 . S
C1088 C1102 1.377 . S
C1089 C1088 1.524 . S
C1089 C1090 1.397 . S
C1089 C1094 1.363 . S
C1090 H1067 0.950 . S
C1090 C1089 1.397 . S
C1090 C1091 1.334 . S
C1091 H1068 0.950 . S
C1091 C1090 1.334 . S
C1091 C1092 1.287 . S
C1092 C1091 1.287 . S
C1092 C1093 1.524 . S
C1092 H1111 0.913 . S
C1093 H1069 0.950 . S
C1093 C1092 1.524 . S
C1093 C1094 1.415 . S
C1094 H1070 0.950 . S
C1094 C1089 1.363 . S
C1094 C1093 1.415 . S
C1095 H1071 0.951 . S
C1095 C1096 1.366 . S
C1095 C1097 1.388 . S
C1096 C1095 1.366 . S
C1096 C1100 1.385 . S
C1097 H1072 0.951 . S
C1097 C1095 1.388 . S
C1097 C1098 1.366 . S
C1098 C1097 1.366 . S
C1098 C1099 1.414 . S
C1098 C1101 1.499 . S
C1099 H1073 0.950 . S
C1099 C1098 1.414 . S
C1099 C1100 1.374 . S
C1100 H1074 0.950 . S
C1100 C1096 1.385 . S
C1100 C1099 1.374 . S
C1101 C1098 1.499 . S
C1101 C1102 1.373 . S
C1101 C1103 1.389 . S
C1102 H1075 0.950 . S
C1102 C1088 1.377 . S
C1102 C1101 1.373 . S
C1103 C1087 1.377 . S
C1103 C1101 1.389 . S
C1103 C1104 1.524 . S
C1104 C1103 1.524 . S
C1104 C1105 1.397 . S
C1104 C1109 1.363 . S
C1105 H1076 0.950 . S
C1105 C1104 1.397 . S
C1105 C1106 1.334 . S
C1106 H1077 0.950 . S
C1106 C1105 1.334 . S
C1106 C1107 1.287 . S
C1107 C1106 1.287 . S
C1107 C1108 1.524 . S
C1107 H1110 0.999 . S
C1108 H1078 0.950 . S
C1108 C1107 1.524 . S
C1108 C1109 1.415 . S
C1109 H1079 0.950 . S
C1109 C1104 1.363 . S
C1109 C1108 1.415 . S
H1110 C1107 0.999 . S
H1111 C1092 0.913 . S
H1112 C1130 0.951 . S
H1113 C1132 0.951 . S
H1114 C1134 0.950 . S
H1115 C1135 0.950 . S
H1116 C1137 0.950 . S
H1117 C1140 0.950 . S
H1118 C1141 0.950 . S
H1119 C1143 0.950 . S
H1120 C1144 0.950 . S
H1121 C1145 0.951 . S
H1122 C1147 0.951 . S
H1123 C1149 0.950 . S
H1124 C1150 0.950 . S
H1125 C1152 0.950 . S
H1126 C1155 0.950 . S
H1127 C1156 0.950 . S
H1128 C1158 0.950 . S
H1129 C1159 0.950 . S
C1130 H1112 0.951 . S
C1130 C1131 1.366 . S
C1130 C1132 1.388 . S
C1131 C1130 1.366 . S
C1131 C1135 1.385 . S
C1132 H1113 0.951 . S
C1132 C1130 1.388 . S
C1132 C1133 1.366 . S
C1133 C1132 1.366 . S
C1133 C1134 1.414 . S
C1133 C1136 1.499 . S
C1134 H1114 0.950 . S
C1134 C1133 1.414 . S
C1134 C1135 1.374 . S
C1135 H1115 0.950 . S
C1135 C1131 1.385 . S
C1135 C1134 1.374 . S
C1136 C1133 1.499 . S
C1136 C1137 1.373 . S
C1136 C1138 1.389 . S
C1137 H1116 0.950 . S
C1137 C1136 1.373 . S
C1137 C1153 1.377 . S
C1138 C1136 1.389 . S
C1138 C1139 1.524 . S
C1138 C1152 1.377 . S
C1139 C1138 1.524 . S
C1139 C1140 1.397 . S
C1139 C1144 1.363 . S
C1140 H1117 0.950 . S
C1140 C1139 1.397 . S
C1140 C1141 1.334 . S
C1141 H1118 0.950 . S
C1141 C1140 1.334 . S
C1141 C1142 1.287 . S
C1142 C1141 1.287 . S
C1142 C1143 1.524 . S
C1142 H1161 0.913 . S
C1143 H1119 0.950 . S
C1143 C1142 1.524 . S
C1143 C1144 1.415 . S
C1144 H1120 0.950 . S
C1144 C1139 1.363 . S
C1144 C1143 1.415 . S
C1145 H1121 0.951 . S
C1145 C1146 1.366 . S
C1145 C1147 1.388 . S
C1146 C1145 1.366 . S
C1146 C1150 1.385 . S
C1147 H1122 0.951 . S
C1147 C1145 1.388 . S
C1147 C1148 1.366 . S
C1148 C1147 1.366 . S
C1148 C1149 1.414 . S
C1148 C1151 1.499 . S
C1149 H1123 0.950 . S
C1149 C1148 1.414 . S
C1149 C1150 1.374 . S
C1150 H1124 0.950 . S
C1150 C1146 1.385 . S
C1150 C1149 1.374 . S
C1151 C1148 1.499 . S
C1151 C1152 1.373 . S
C1151 C1153 1.389 . S
C1152 H1125 0.950 . S
C1152 C1138 1.377 . S
C1152 C1151 1.373 . S
C1153 C1137 1.377 . S
C1153 C1151 1.389 . S
C1153 C1154 1.524 . S
C1154 C1153 1.524 . S
C1154 C1155 1.397 . S
C1154 C1159 1.363 . S
C1155 H1126 0.950 . S
C1155 C1154 1.397 . S
C1155 C1156 1.334 . S
C1156 H1127 0.950 . S
C1156 C1155 1.334 . S
C1156 C1157 1.287 . S
C1157 C1156 1.287 . S
C1157 C1158 1.524 . S
C1157 H1160 0.999 . S
C1158 H1128 0.950 . S
C1158 C1157 1.524 . S
C1158 C1159 1.415 . S
C1159 H1129 0.950 . S
C1159 C1154 1.363 . S
C1159 C1158 1.415 . S
H1160 C1157 0.999 . S
H1161 C1142 0.913 . S
H1162 C1180 0.951 . S
H1163 C1182 0.951 . S
H1164 C1184 0.950 . S
H1165 C1185 0.950 . S
H1166 C1187 0.950 . S
H1167 C1190 0.950 . S
H1168 C1191 0.950 . S
H1169 C1193 0.950 . S
H1170 C1194 0.950 . S
H1171 C1195 0.951 . S
H1172 C1197 0.951 . S
H1173 C1199 0.950 . S
H1174 C1200 0.950 . S
H1175 C1202 0.950 . S
H1176 C1205 0.950 . S
H1177 C1206 0.950 . S
H1178 C1208 0.950 . S
H1179 C1209 0.950 . S
C1180 H1162 0.951 . S
C1180 C1181 1.366 . S
C1180 C1182 1.388 . S
C1181 C1180 1.366 . S
C1181 C1185 1.385 . S
C1182 H1163 0.951 . S
C1182 C1180 1.388 . S
C1182 C1183 1.366 . S
C1183 C1182 1.366 . S
C1183 C1184 1.414 . S
C1183 C1186 1.499 . S
C1184 H1164 0.950 . S
C1184 C1183 1.414 . S
C1184 C1185 1.374 . S
C1185 H1165 0.950 . S
C1185 C1181 1.385 . S
C1185 C1184 1.374 . S
C1186 C1183 1.499 . S
C1186 C1187 1.373 . S
C1186 C1188 1.389 . S
C1187 H1166 0.950 . S
C1187 C1186 1.373 . S
C1187 C1203 1.377 . S
C1188 C1186 1.389 . S
C1188 C1189 1.524 . S
C1188 C1202 1.377 . S
C1189 C1188 1.524 . S
C1189 C1190 1.397 . S
C1189 C1194 1.363 . S
C1190 H1167 0.950 . S
C1190 C1189 1.397 . S
C1190 C1191 1.334 . S
C1191 H1168 0.950 . S
C1191 C1190 1.334 . S
C1191 C1192 1.287 . S
C1192 C1191 1.287 . S
C1192 C1193 1.524 . S
C1192 H1211 0.913 . S
C1193 H1169 0.950 . S
C1193 C1192 1.524 . S
C1193 C1194 1.415 . S
C1194 H1170 0.950 . S
C1194 C1189 1.363 . S
C1194 C1193 1.415 . S
C1195 H1171 0.951 . S
C1195 C1196 1.366 . S
C1195 C1197 1.388 . S
C1196 C1195 1.366 . S
C1196 C1200 1.385 . S
C1197 H1172 0.951 . S
C1197 C1195 1.388 . S
C1197 C1198 1.366 . S
C1198 C1197 1.366 . S
C1198 C1199 1.414 . S
C1198 C1201 1.499 . S
C1199 H1173 0.950 . S
C1199 C1198 1.414 . S
C1199 C1200 1.374 . S
C1200 H1174 0.950 . S
C1200 C1196 1.385 . S
C1200 C1199 1.374 . S
C1201 C1198 1.499 . S
C1201 C1202 1.373 . S
C1201 C1203 1.389 . S
C1202 H1175 0.950 . S
C1202 C1188 1.377 . S
C1202 C1201 1.373 . S
C1203 C1187 1.377 . S
C1203 C1201 1.389 . S
C1203 C1204 1.524 . S
C1204 C1203 1.524 . S
C1204 C1205 1.397 . S
C1204 C1209 1.363 . S
C1205 H1176 0.950 . S
C1205 C1204 1.397 . S
C1205 C1206 1.334 . S
C1206 H1177 0.950 . S
C1206 C1205 1.334 . S
C1206 C1207 1.287 . S
C1207 C1206 1.287 . S
C1207 C1208 1.524 . S
C1207 H1210 0.999 . S
C1208 H1178 0.950 . S
C1208 C1207 1.524 . S
C1208 C1209 1.415 . S
C1209 H1179 0.950 . S
C1209 C1204 1.363 . S
C1209 C1208 1.415 . S
H1210 C1207 0.999 . S
H1211 C1192 0.913 . S
H1212 C1230 0.951 . S
H1213 C1232 0.951 . S
H1214 C1234 0.950 . S
H1215 C1235 0.950 . S
H1216 C1237 0.950 . S
H1217 C1240 0.950 . S
H1218 C1241 0.950 . S
H1219 C1243 0.950 . S
H1220 C1244 0.950 . S
H1221 C1245 0.951 . S
H1222 C1247 0.951 . S
H1223 C1249 0.950 . S
H1224 C1250 0.950 . S
H1225 C1252 0.950 . S
H1226 C1255 0.950 . S
H1227 C1256 0.950 . S
H1228 C1258 0.950 . S
H1229 C1259 0.950 . S
C1230 H1212 0.951 . S
C1230 C1231 1.366 . S
C1230 C1232 1.388 . S
C1231 C1230 1.366 . S
C1231 C1235 1.385 . S
C1232 H1213 0.951 . S
C1232 C1230 1.388 . S
C1232 C1233 1.366 . S
C1233 C1232 1.366 . S
C1233 C1234 1.414 . S
C1233 C1236 1.499 . S
C1234 H1214 0.950 . S
C1234 C1233 1.414 . S
C1234 C1235 1.374 . S
C1235 H1215 0.950 . S
C1235 C1231 1.385 . S
C1235 C1234 1.374 . S
C1236 C1233 1.499 . S
C1236 C1237 1.373 . S
C1236 C1238 1.389 . S
C1237 H1216 0.950 . S
C1237 C1236 1.373 . S
C1237 C1253 1.377 . S
C1238 C1236 1.389 . S
C1238 C1239 1.524 . S
C1238 C1252 1.377 . S
C1239 C1238 1.524 . S
C1239 C1240 1.397 . S
C1239 C1244 1.363 . S
C1240 H1217 0.950 . S
C1240 C1239 1.397 . S
C1240 C1241 1.334 . S
C1241 H1218 0.950 . S
C1241 C1240 1.334 . S
C1241 C1242 1.287 . S
C1242 C1241 1.287 . S
C1242 C1243 1.524 . S
C1242 H1261 0.913 . S
C1243 H1219 0.950 . S
C1243 C1242 1.524 . S
C1243 C1244 1.415 . S
C1244 H1220 0.950 . S
C1244 C1239 1.363 . S
C1244 C1243 1.415 . S
C1245 H1221 0.951 . S
C1245 C1246 1.366 . S
C1245 C1247 1.388 . S
C1246 C1245 1.366 . S
C1246 C1250 1.385 . S
C1247 H1222 0.951 . S
C1247 C1245 1.388 . S
C1247 C1248 1.366 . S
C1248 C1247 1.366 . S
C1248 C1249 1.414 . S
C1248 C1251 1.499 . S
C1249 H1223 0.950 . S
C1249 C1248 1.414 . S
C1249 C1250 1.374 . S
C1250 H1224 0.950 . S
C1250 C1246 1.385 . S
C1250 C1249 1.374 . S
C1251 C1248 1.499 . S
C1251 C1252 1.373 . S
C1251 C1253 1.389 . S
C1252 H1225 0.950 . S
C1252 C1238 1.377 . S
C1252 C1251 1.373 . S
C1253 C1237 1.377 . S
C1253 C1251 1.389 . S
C1253 C1254 1.524 . S
C1254 C1253 1.524 . S
C1254 C1255 1.397 . S
C1254 C1259 1.363 . S
C1255 H1226 0.950 . S
C1255 C1254 1.397 . S
C1255 C1256 1.334 . S
C1256 H1227 0.950 . S
C1256 C1255 1.334 . S
C1256 C1257 1.287 . S
C1257 C1256 1.287 . S
C1257 C1258 1.524 1_554 S
C1257 H1260 0.956 1_554 S
C1258 H1228 0.950 . S
C1258 C1257 1.524 1_556 S
C1258 C1259 1.415 1_556 S
C1259 H1229 0.950 . S
C1259 C1254 1.363 . S
C1259 C1258 1.415 1_554 S
H1260 C1257 0.956 1_556 S
H1261 C1242 0.913 . S
H1262 C1280 0.951 . S
H1263 C1282 0.951 . S
H1264 C1284 0.950 . S
H1265 C1285 0.950 . S
H1266 C1287 0.950 . S
H1267 C1290 0.950 . S
H1268 C1291 0.950 . S
H1269 C1293 0.950 . S
H1270 C1294 0.950 . S
H1271 C1295 0.951 . S
H1272 C1297 0.951 . S
H1273 C1299 0.950 . S
H1274 C1300 0.950 . S
H1275 C1302 0.950 . S
H1276 C1305 0.950 . S
H1277 C1306 0.950 . S
H1278 C1308 0.950 . S
H1279 C1309 0.950 . S
C1280 H1262 0.951 . S
C1280 C1281 1.366 . S
C1280 C1282 1.388 . S
C1281 C1280 1.366 . S
C1281 C1285 1.385 . S
C1282 H1263 0.951 . S
C1282 C1280 1.388 . S
C1282 C1283 1.366 . S
C1283 C1282 1.366 . S
C1283 C1284 1.414 . S
C1283 C1286 1.499 . S
C1284 H1264 0.950 . S
C1284 C1283 1.414 . S
C1284 C1285 1.374 . S
C1285 H1265 0.950 . S
C1285 C1281 1.385 . S
C1285 C1284 1.374 . S
C1286 C1283 1.499 . S
C1286 C1287 1.373 . S
C1286 C1288 1.389 . S
C1287 H1266 0.950 . S
C1287 C1286 1.373 . S
C1287 C1303 1.377 . S
C1288 C1286 1.389 . S
C1288 C1289 1.524 . S
C1288 C1302 1.377 . S
C1289 C1288 1.524 . S
C1289 C1290 1.397 . S
C1289 C1294 1.363 . S
C1290 H1267 0.950 . S
C1290 C1289 1.397 . S
C1290 C1291 1.334 . S
C1291 H1268 0.950 . S
C1291 C1290 1.334 . S
C1291 C1292 1.287 . S
C1292 C1291 1.287 . S
C1292 C1293 1.524 . S
C1292 H1311 0.913 . S
C1293 H1269 0.950 . S
C1293 C1292 1.524 . S
C1293 C1294 1.415 . S
C1294 H1270 0.950 . S
C1294 C1289 1.363 . S
C1294 C1293 1.415 . S
C1295 H1271 0.951 . S
C1295 C1296 1.366 . S
C1295 C1297 1.388 . S
C1296 C1295 1.366 . S
C1296 C1300 1.385 . S
C1297 H1272 0.951 . S
C1297 C1295 1.388 . S
C1297 C1298 1.366 . S
C1298 C1297 1.366 . S
C1298 C1299 1.414 . S
C1298 C1301 1.499 . S
C1299 H1273 0.950 . S
C1299 C1298 1.414 . S
C1299 C1300 1.374 . S
C1300 H1274 0.950 . S
C1300 C1296 1.385 . S
C1300 C1299 1.374 . S
C1301 C1298 1.499 . S
C1301 C1302 1.373 . S
C1301 C1303 1.389 . S
C1302 H1275 0.950 . S
C1302 C1288 1.377 . S
C1302 C1301 1.373 . S
C1303 C1287 1.377 . S
C1303 C1301 1.389 . S
C1303 C1304 1.524 . S
C1304 C1303 1.524 . S
C1304 C1305 1.397 . S
C1304 C1309 1.363 . S
C1305 H1276 0.950 . S
C1305 C1304 1.397 . S
C1305 C1306 1.334 . S
C1306 H1277 0.950 . S
C1306 C1305 1.334 . S
C1306 C1307 1.287 . S
C1307 C1306 1.287 . S
C1307 C1308 1.524 . S
C1307 H1310 0.999 . S
C1308 H1278 0.950 . S
C1308 C1307 1.524 . S
C1308 C1309 1.415 . S
C1309 H1279 0.950 . S
C1309 C1304 1.363 . S
C1309 C1308 1.415 . S
H1310 C1307 0.999 . S
H1311 C1292 0.913 . S
H1312 C1330 0.951 . S
H1313 C1332 0.951 . S
H1314 C1334 0.950 . S
H1315 C1335 0.950 . S
H1316 C1337 0.950 . S
H1317 C1340 0.950 . S
H1318 C1341 0.950 . S
H1319 C1343 0.950 . S
H1320 C1344 0.950 . S
H1321 C1345 0.951 . S
H1322 C1347 0.951 . S
H1323 C1349 0.950 . S
H1324 C1350 0.950 . S
H1325 C1352 0.950 . S
H1326 C1355 0.950 . S
H1327 C1356 0.950 . S
H1328 C1358 0.950 . S
H1329 C1359 0.950 . S
C1330 H1312 0.951 . S
C1330 C1331 1.366 . S
C1330 C1332 1.388 . S
C1331 C1330 1.366 . S
C1331 C1335 1.385 . S
C1332 H1313 0.951 . S
C1332 C1330 1.388 . S
C1332 C1333 1.366 . S
C1333 C1332 1.366 . S
C1333 C1334 1.414 . S
C1333 C1336 1.499 . S
C1334 H1314 0.950 . S
C1334 C1333 1.414 . S
C1334 C1335 1.374 . S
C1335 H1315 0.950 . S
C1335 C1331 1.385 . S
C1335 C1334 1.374 . S
C1336 C1333 1.499 . S
C1336 C1337 1.373 . S
C1336 C1338 1.389 . S
C1337 H1316 0.950 . S
C1337 C1336 1.373 . S
C1337 C1353 1.377 . S
C1338 C1336 1.389 . S
C1338 C1339 1.524 . S
C1338 C1352 1.377 . S
C1339 C1338 1.524 . S
C1339 C1340 1.397 . S
C1339 C1344 1.363 . S
C1340 H1317 0.950 . S
C1340 C1339 1.397 . S
C1340 C1341 1.334 . S
C1341 H1318 0.950 . S
C1341 C1340 1.334 . S
C1341 C1342 1.287 . S
C1342 C1341 1.287 . S
C1342 C1343 1.524 . S
C1342 H1361 0.913 . S
C1343 H1319 0.950 . S
C1343 C1342 1.524 . S
C1343 C1344 1.415 . S
C1344 H1320 0.950 . S
C1344 C1339 1.363 . S
C1344 C1343 1.415 . S
C1345 H1321 0.951 . S
C1345 C1346 1.366 . S
C1345 C1347 1.388 . S
C1346 C1345 1.366 . S
C1346 C1350 1.385 . S
C1347 H1322 0.951 . S
C1347 C1345 1.388 . S
C1347 C1348 1.366 . S
C1348 C1347 1.366 . S
C1348 C1349 1.414 . S
C1348 C1351 1.499 . S
C1349 H1323 0.950 . S
C1349 C1348 1.414 . S
C1349 C1350 1.374 . S
C1350 H1324 0.950 . S
C1350 C1346 1.385 . S
C1350 C1349 1.374 . S
C1351 C1348 1.499 . S
C1351 C1352 1.373 . S
C1351 C1353 1.389 . S
C1352 H1325 0.950 . S
C1352 C1338 1.377 . S
C1352 C1351 1.373 . S
C1353 C1337 1.377 . S
C1353 C1351 1.389 . S
C1353 C1354 1.524 . S
C1354 C1353 1.524 . S
C1354 C1355 1.397 . S
C1354 C1359 1.363 . S
C1355 H1326 0.950 . S
C1355 C1354 1.397 . S
C1355 C1356 1.334 . S
C1356 H1327 0.950 . S
C1356 C1355 1.334 . S
C1356 C1357 1.287 . S
C1357 C1356 1.287 . S
C1357 C1358 1.524 . S
C1357 H1360 0.999 . S
C1358 H1328 0.950 . S
C1358 C1357 1.524 . S
C1358 C1359 1.415 . S
C1359 H1329 0.950 . S
C1359 C1354 1.363 . S
C1359 C1358 1.415 . S
H1360 C1357 0.999 . S
H1361 C1342 0.913 . S
H1362 C1380 0.951 . S
H1363 C1382 0.951 . S
H1364 C1384 0.950 . S
H1365 C1385 0.950 . S
H1366 C1387 0.950 . S
H1367 C1390 0.950 . S
H1368 C1391 0.950 . S
H1369 C1393 0.950 . S
H1370 C1394 0.950 . S
H1371 C1395 0.951 . S
H1372 C1397 0.951 . S
H1373 C1399 0.950 . S
H1374 C1400 0.950 . S
H1375 C1402 0.950 . S
H1376 C1405 0.950 . S
H1377 C1406 0.950 . S
H1378 C1408 0.950 . S
H1379 C1409 0.950 . S
C1380 H1362 0.951 . S
C1380 C1381 1.366 . S
C1380 C1382 1.388 . S
C1381 C1380 1.366 . S
C1381 C1385 1.385 . S
C1382 H1363 0.951 . S
C1382 C1380 1.388 . S
C1382 C1383 1.366 . S
C1383 C1382 1.366 . S
C1383 C1384 1.414 . S
C1383 C1386 1.499 . S
C1384 H1364 0.950 . S
C1384 C1383 1.414 . S
C1384 C1385 1.374 . S
C1385 H1365 0.950 . S
C1385 C1381 1.385 . S
C1385 C1384 1.374 . S
C1386 C1383 1.499 . S
C1386 C1387 1.373 . S
C1386 C1388 1.389 . S
C1387 H1366 0.950 . S
C1387 C1386 1.373 . S
C1387 C1403 1.377 . S
C1388 C1386 1.389 . S
C1388 C1389 1.524 . S
C1388 C1402 1.377 . S
C1389 C1388 1.524 . S
C1389 C1390 1.397 . S
C1389 C1394 1.363 . S
C1390 H1367 0.950 . S
C1390 C1389 1.397 . S
C1390 C1391 1.334 . S
C1391 H1368 0.950 . S
C1391 C1390 1.334 . S
C1391 C1392 1.287 . S
C1392 C1391 1.287 . S
C1392 C1393 1.524 . S
C1392 H1411 0.913 . S
C1393 H1369 0.950 . S
C1393 C1392 1.524 . S
C1393 C1394 1.415 . S
C1394 H1370 0.950 . S
C1394 C1389 1.363 . S
C1394 C1393 1.415 . S
C1395 H1371 0.951 . S
C1395 C1396 1.366 . S
C1395 C1397 1.388 . S
C1396 C1395 1.366 . S
C1396 C1400 1.385 . S
C1397 H1372 0.951 . S
C1397 C1395 1.388 . S
C1397 C1398 1.366 . S
C1398 C1397 1.366 . S
C1398 C1399 1.414 . S
C1398 C1401 1.499 . S
C1399 H1373 0.950 . S
C1399 C1398 1.414 . S
C1399 C1400 1.374 . S
C1400 H1374 0.950 . S
C1400 C1396 1.385 . S
C1400 C1399 1.374 . S
C1401 C1398 1.499 . S
C1401 C1402 1.373 . S
C1401 C1403 1.389 . S
C1402 H1375 0.950 . S
C1402 C1388 1.377 . S
C1402 C1401 1.373 . S
C1403 C1387 1.377 . S
C1403 C1401 1.389 . S
C1403 C1404 1.524 . S
C1404 C1403 1.524 . S
C1404 C1405 1.397 . S
C1404 C1409 1.363 . S
C1405 H1376 0.950 . S
C1405 C1404 1.397 . S
C1405 C1406 1.334 . S
C1406 H1377 0.950 . S
C1406 C1405 1.334 . S
C1406 C1407 1.287 . S
C1407 C1406 1.287 . S
C1407 C1408 1.524 . S
C1407 H1410 0.999 . S
C1408 H1378 0.950 . S
C1408 C1407 1.524 . S
C1408 C1409 1.415 . S
C1409 H1379 0.950 . S
C1409 C1404 1.363 . S
C1409 C1408 1.415 . S
H1410 C1407 0.999 . S
H1411 C1392 0.913 . S
H1412 C1430 0.951 . S
H1413 C1432 0.951 . S
H1414 C1434 0.950 . S
H1415 C1435 0.950 . S
H1416 C1437 0.950 . S
H1417 C1440 0.950 . S
H1418 C1441 0.950 . S
H1419 C1443 0.950 . S
H1420 C1444 0.950 . S
H1421 C1445 0.951 . S
H1422 C1447 0.951 . S
H1423 C1449 0.950 . S
H1424 C1450 0.950 . S
H1425 C1452 0.950 . S
H1426 C1455 0.950 . S
H1427 C1456 0.950 . S
H1428 C1458 0.950 . S
H1429 C1459 0.950 . S
C1430 H1412 0.951 . S
C1430 C1431 1.366 . S
C1430 C1432 1.388 . S
C1431 C1430 1.366 . S
C1431 C1435 1.385 . S
C1432 H1413 0.951 . S
C1432 C1430 1.388 . S
C1432 C1433 1.366 . S
C1433 C1432 1.366 . S
C1433 C1434 1.414 . S
C1433 C1436 1.499 . S
C1434 H1414 0.950 . S
C1434 C1433 1.414 . S
C1434 C1435 1.374 . S
C1435 H1415 0.950 . S
C1435 C1431 1.385 . S
C1435 C1434 1.374 . S
C1436 C1433 1.499 . S
C1436 C1437 1.373 . S
C1436 C1438 1.389 . S
C1437 H1416 0.950 . S
C1437 C1436 1.373 . S
C1437 C1453 1.377 . S
C1438 C1436 1.389 . S
C1438 C1439 1.524 . S
C1438 C1452 1.377 . S
C1439 C1438 1.524 . S
C1439 C1440 1.397 . S
C1439 C1444 1.363 . S
C1440 H1417 0.950 . S
C1440 C1439 1.397 . S
C1440 C1441 1.334 . S
C1441 H1418 0.950 . S
C1441 C1440 1.334 . S
C1441 C1442 1.287 . S
C1442 C1441 1.287 . S
C1442 C1443 1.524 . S
C1442 H1461 0.913 . S
C1443 H1419 0.950 . S
C1443 C1442 1.524 . S
C1443 C1444 1.415 . S
C1444 H1420 0.950 . S
C1444 C1439 1.363 . S
C1444 C1443 1.415 . S
C1445 H1421 0.951 . S
C1445 C1446 1.366 . S
C1445 C1447 1.388 . S
C1446 C1445 1.366 . S
C1446 C1450 1.385 . S
C1447 H1422 0.951 . S
C1447 C1445 1.388 . S
C1447 C1448 1.366 . S
C1448 C1447 1.366 . S
C1448 C1449 1.414 . S
C1448 C1451 1.499 . S
C1449 H1423 0.950 . S
C1449 C1448 1.414 . S
C1449 C1450 1.374 . S
C1450 H1424 0.950 . S
C1450 C1446 1.385 . S
C1450 C1449 1.374 . S
C1451 C1448 1.499 . S
C1451 C1452 1.373 . S
C1451 C1453 1.389 . S
C1452 H1425 0.950 . S
C1452 C1438 1.377 . S
C1452 C1451 1.373 . S
C1453 C1437 1.377 . S
C1453 C1451 1.389 . S
C1453 C1454 1.524 . S
C1454 C1453 1.524 . S
C1454 C1455 1.397 . S
C1454 C1459 1.363 . S
C1455 H1426 0.950 . S
C1455 C1454 1.397 . S
C1455 C1456 1.334 . S
C1456 H1427 0.950 . S
C1456 C1455 1.334 . S
C1456 C1457 1.287 . S
C1457 C1456 1.287 . S
C1457 C1458 1.524 . S
C1457 H1460 0.999 . S
C1458 H1428 0.950 . S
C1458 C1457 1.524 . S
C1458 C1459 1.415 . S
C1459 H1429 0.950 . S
C1459 C1454 1.363 . S
C1459 C1458 1.415 . S
H1460 C1457 0.999 . S
H1461 C1442 0.913 . S
H1462 C1480 0.951 . S
H1463 C1482 0.951 . S
H1464 C1484 0.950 . S
H1465 C1485 0.950 . S
H1466 C1487 0.950 . S
H1467 C1490 0.950 . S
H1468 C1491 0.950 . S
H1469 C1493 0.950 . S
H1470 C1494 0.950 . S
H1471 C1495 0.951 . S
H1472 C1497 0.951 . S
H1473 C1499 0.950 . S
H1474 C1500 0.950 . S
H1475 C1502 0.950 . S
H1476 C1505 0.950 . S
H1477 C1506 0.950 . S
H1478 C1508 0.950 . S
H1479 C1509 0.950 . S
C1480 H1462 0.951 . S
C1480 C1481 1.366 . S
C1480 C1482 1.388 . S
C1481 C1480 1.366 . S
C1481 C1485 1.385 . S
C1482 H1463 0.951 . S
C1482 C1480 1.388 . S
C1482 C1483 1.366 . S
C1483 C1482 1.366 . S
C1483 C1484 1.414 . S
C1483 C1486 1.499 . S
C1484 H1464 0.950 . S
C1484 C1483 1.414 . S
C1484 C1485 1.374 . S
C1485 H1465 0.950 . S
C1485 C1481 1.385 . S
C1485 C1484 1.374 . S
C1486 C1483 1.499 . S
C1486 C1487 1.373 . S
C1486 C1488 1.389 . S
C1487 H1466 0.950 . S
C1487 C1486 1.373 . S
C1487 C1503 1.377 . S
C1488 C1486 1.389 . S
C1488 C1489 1.524 . S
C1488 C1502 1.377 . S
C1489 C1488 1.524 . S
C1489 C1490 1.397 . S
C1489 C1494 1.363 . S
C1490 H1467 0.950 . S
C1490 C1489 1.397 . S
C1490 C1491 1.334 . S
C1491 H1468 0.950 . S
C1491 C1490 1.334 . S
C1491 C1492 1.287 . S
C1492 C1491 1.287 . S
C1492 C1493 1.524 . S
C1492 H1511 0.913 . S
C1493 H1469 0.950 . S
C1493 C1492 1.524 . S
C1493 C1494 1.415 . S
C1494 H1470 0.950 . S
C1494 C1489 1.363 . S
C1494 C1493 1.415 . S
C1495 H1471 0.951 . S
C1495 C1496 1.366 . S
C1495 C1497 1.388 . S
C1496 C1495 1.366 . S
C1496 C1500 1.385 . S
C1497 H1472 0.951 . S
C1497 C1495 1.388 . S
C1497 C1498 1.366 . S
C1498 C1497 1.366 . S
C1498 C1499 1.414 . S
C1498 C1501 1.499 . S
C1499 H1473 0.950 . S
C1499 C1498 1.414 . S
C1499 C1500 1.374 . S
C1500 H1474 0.950 . S
C1500 C1496 1.385 . S
C1500 C1499 1.374 . S
C1501 C1498 1.499 . S
C1501 C1502 1.373 . S
C1501 C1503 1.389 . S
C1502 H1475 0.950 . S
C1502 C1488 1.377 . S
C1502 C1501 1.373 . S
C1503 C1487 1.377 . S
C1503 C1501 1.389 . S
C1503 C1504 1.524 . S
C1504 C1503 1.524 . S
C1504 C1505 1.397 . S
C1504 C1509 1.363 . S
C1505 H1476 0.950 . S
C1505 C1504 1.397 . S
C1505 C1506 1.334 . S
C1506 H1477 0.950 . S
C1506 C1505 1.334 . S
C1506 C1507 1.287 . S
C1507 C1506 1.287 . S
C1507 C1508 1.524 . S
C1507 H1510 0.999 . S
C1508 H1478 0.950 . S
C1508 C1507 1.524 . S
C1508 C1509 1.415 . S
C1509 H1479 0.950 . S
C1509 C1504 1.363 . S
C1509 C1508 1.415 . S
H1510 C1507 0.999 . S
H1511 C1492 0.913 . S
H1512 C1530 0.951 . S
H1513 C1532 0.951 . S
H1514 C1534 0.950 . S
H1515 C1535 0.950 . S
H1516 C1537 0.950 . S
H1517 C1540 0.950 . S
H1518 C1541 0.950 . S
H1519 C1543 0.950 . S
H1520 C1544 0.950 . S
H1521 C1545 0.951 . S
H1522 C1547 0.951 . S
H1523 C1549 0.923 1_556 S
H1524 C1550 0.950 . S
H1525 C1552 0.950 . S
H1526 C1555 0.950 . S
H1527 C1556 0.950 . S
H1528 C1558 0.950 . S
H1529 C1559 0.950 1_556 S
C1530 H1512 0.951 . S
C1530 C1531 1.366 . S
C1530 C1532 1.388 . S
C1531 C1530 1.366 . S
C1531 C1535 1.385 . S
C1532 H1513 0.951 . S
C1532 C1530 1.388 . S
C1532 C1533 1.366 . S
C1533 C1532 1.366 . S
C1533 C1534 1.414 . S
C1533 C1536 1.499 . S
C1534 H1514 0.950 . S
C1534 C1533 1.414 . S
C1534 C1535 1.374 . S
C1535 H1515 0.950 . S
C1535 C1531 1.385 . S
C1535 C1534 1.374 . S
C1536 C1533 1.499 . S
C1536 C1537 1.373 . S
C1536 C1538 1.389 . S
C1537 H1516 0.950 . S
C1537 C1536 1.373 . S
C1537 C1553 1.377 . S
C1538 C1536 1.389 . S
C1538 C1539 1.524 . S
C1538 C1552 1.377 . S
C1539 C1538 1.524 . S
C1539 C1540 1.397 . S
C1539 C1544 1.363 . S
C1540 H1517 0.950 . S
C1540 C1539 1.397 . S
C1540 C1541 1.334 . S
C1541 H1518 0.950 . S
C1541 C1540 1.334 . S
C1541 C1542 1.287 . S
C1542 C1541 1.287 . S
C1542 C1543 1.524 . S
C1542 H1561 0.913 . S
C1543 H1519 0.950 . S
C1543 C1542 1.524 . S
C1543 C1544 1.415 . S
C1544 H1520 0.950 . S
C1544 C1539 1.363 . S
C1544 C1543 1.415 . S
C1545 H1521 0.951 . S
C1545 C1546 1.366 . S
C1545 C1547 1.388 . S
C1546 C1545 1.366 . S
C1546 C1550 1.385 . S
C1547 H1522 0.951 . S
C1547 C1545 1.388 . S
C1547 C1548 1.350 1_554 S
C1548 C1547 1.350 1_556 S
C1548 C1549 1.411 1_556 S
C1548 C1551 1.515 . S
C1549 H1523 0.923 1_554 S
C1549 C1548 1.411 1_554 S
C1549 C1550 1.404 . S
C1550 H1524 0.950 . S
C1550 C1546 1.385 . S
C1550 C1549 1.404 . S
C1551 C1548 1.515 . S
C1551 C1552 1.373 . S
C1551 C1553 1.389 . S
C1552 H1525 0.950 . S
C1552 C1538 1.377 . S
C1552 C1551 1.373 . S
C1553 C1537 1.377 . S
C1553 C1551 1.389 . S
C1553 C1554 1.526 1_556 S
C1554 C1553 1.526 1_554 S
C1554 C1555 1.396 . S
C1554 C1559 1.362 . S
C1555 H1526 0.950 . S
C1555 C1554 1.396 . S
C1555 C1556 1.334 . S
C1556 H1527 0.950 . S
C1556 C1555 1.334 . S
C1556 C1557 1.287 . S
C1557 C1556 1.287 . S
C1557 C1558 1.524 . S
C1557 H1560 0.999 . S
C1558 H1528 0.950 . S
C1558 C1557 1.524 . S
C1558 C1559 1.415 . S
C1559 H1529 0.950 1_554 S
C1559 C1554 1.362 . S
C1559 C1558 1.415 . S
H1560 C1557 0.999 . S
H1561 C1542 0.913 . S
H1562 C1580 0.951 . S
H1563 C1582 0.951 . S
H1564 C1584 0.950 . S
H1565 C1585 0.950 . S
H1566 C1587 0.950 . S
H1567 C1590 0.950 . S
H1568 C1591 0.950 . S
H1569 C1593 0.950 . S
H1570 C1594 0.950 . S
H1571 C1595 0.951 . S
H1572 C1597 0.951 . S
H1573 C1599 0.950 . S
H1574 C1600 0.950 . S
H1575 C1602 0.950 . S
H1576 C1605 0.950 . S
H1577 C1606 0.950 . S
H1578 C1608 0.950 . S
H1579 C1609 0.950 . S
C1580 H1562 0.951 . S
C1580 C1581 1.366 . S
C1580 C1582 1.388 . S
C1581 C1580 1.366 . S
C1581 C1585 1.385 . S
C1582 H1563 0.951 . S
C1582 C1580 1.388 . S
C1582 C1583 1.366 . S
C1583 C1582 1.366 . S
C1583 C1584 1.414 . S
C1583 C1586 1.499 . S
C1584 H1564 0.950 . S
C1584 C1583 1.414 . S
C1584 C1585 1.374 . S
C1585 H1565 0.950 . S
C1585 C1581 1.385 . S
C1585 C1584 1.374 . S
C1586 C1583 1.499 . S
C1586 C1587 1.373 . S
C1586 C1588 1.389 . S
C1587 H1566 0.950 . S
C1587 C1586 1.373 . S
C1587 C1603 1.377 . S
C1588 C1586 1.389 . S
C1588 C1589 1.524 . S
C1588 C1602 1.377 . S
C1589 C1588 1.524 . S
C1589 C1590 1.397 . S
C1589 C1594 1.363 . S
C1590 H1567 0.950 . S
C1590 C1589 1.397 . S
C1590 C1591 1.334 . S
C1591 H1568 0.950 . S
C1591 C1590 1.334 . S
C1591 C1592 1.287 . S
C1592 C1591 1.287 . S
C1592 C1593 1.524 . S
C1592 H1611 0.913 . S
C1593 H1569 0.950 . S
C1593 C1592 1.524 . S
C1593 C1594 1.415 . S
C1594 H1570 0.950 . S
C1594 C1589 1.363 . S
C1594 C1593 1.415 . S
C1595 H1571 0.951 . S
C1595 C1596 1.366 . S
C1595 C1597 1.388 . S
C1596 C1595 1.366 . S
C1596 C1600 1.385 . S
C1597 H1572 0.951 . S
C1597 C1595 1.388 . S
C1597 C1598 1.366 . S
C1598 C1597 1.366 . S
C1598 C1599 1.414 . S
C1598 C1601 1.499 . S
C1599 H1573 0.950 . S
C1599 C1598 1.414 . S
C1599 C1600 1.374 . S
C1600 H1574 0.950 . S
C1600 C1596 1.385 . S
C1600 C1599 1.374 . S
C1601 C1598 1.499 . S
C1601 C1602 1.373 . S
C1601 C1603 1.389 . S
C1602 H1575 0.950 . S
C1602 C1588 1.377 . S
C1602 C1601 1.373 . S
C1603 C1587 1.377 . S
C1603 C1601 1.389 . S
C1603 C1604 1.524 . S
C1604 C1603 1.524 . S
C1604 C1605 1.397 . S
C1604 C1609 1.363 . S
C1605 H1576 0.950 . S
C1605 C1604 1.397 . S
C1605 C1606 1.334 . S
C1606 H1577 0.950 . S
C1606 C1605 1.334 . S
C1606 C1607 1.287 . S
C1607 C1606 1.287 . S
C1607 C1608 1.524 . S
C1607 H1610 0.999 . S
C1608 H1578 0.950 . S
C1608 C1607 1.524 . S
C1608 C1609 1.415 . S
C1609 H1579 0.950 . S
C1609 C1604 1.363 . S
C1609 C1608 1.415 . S
H1610 C1607 0.999 . S
H1611 C1592 0.913 . S
H1612 C1630 0.951 . S
H1613 C1632 0.951 . S
H1614 C1634 0.950 . S
H1615 C1635 0.950 . S
H1616 C1637 0.950 . S
H1617 C1640 0.950 . S
H1618 C1641 0.950 . S
H1619 C1643 0.950 . S
H1620 C1644 0.950 . S
H1621 C1645 0.951 . S
H1622 C1647 0.951 . S
H1623 C1649 0.950 . S
H1624 C1650 0.950 . S
H1625 C1652 0.950 . S
H1626 C1655 0.950 . S
H1627 C1656 0.950 . S
H1628 C1658 0.950 . S
H1629 C1659 0.950 . S
C1630 H1612 0.951 . S
C1630 C1631 1.366 . S
C1630 C1632 1.388 . S
C1631 C1630 1.366 . S
C1631 C1635 1.385 . S
C1632 H1613 0.951 . S
C1632 C1630 1.388 . S
C1632 C1633 1.366 . S
C1633 C1632 1.366 . S
C1633 C1634 1.414 . S
C1633 C1636 1.499 . S
C1634 H1614 0.950 . S
C1634 C1633 1.414 . S
C1634 C1635 1.374 . S
C1635 H1615 0.950 . S
C1635 C1631 1.385 . S
C1635 C1634 1.374 . S
C1636 C1633 1.499 . S
C1636 C1637 1.373 . S
C1636 C1638 1.389 . S
C1637 H1616 0.950 . S
C1637 C1636 1.373 . S
C1637 C1653 1.377 . S
C1638 C1636 1.389 . S
C1638 C1639 1.524 . S
C1638 C1652 1.377 . S
C1639 C1638 1.524 . S
C1639 C1640 1.397 . S
C1639 C1644 1.363 . S
C1640 H1617 0.950 . S
C1640 C1639 1.397 . S
C1640 C1641 1.334 . S
C1641 H1618 0.950 . S
C1641 C1640 1.334 . S
C1641 C1642 1.287 . S
C1642 C1641 1.287 . S
C1642 C1643 1.524 . S
C1642 H1661 0.913 . S
C1643 H1619 0.950 . S
C1643 C1642 1.524 . S
C1643 C1644 1.415 . S
C1644 H1620 0.950 . S
C1644 C1639 1.363 . S
C1644 C1643 1.415 . S
C1645 H1621 0.951 . S
C1645 C1646 1.366 . S
C1645 C1647 1.388 . S
C1646 C1645 1.366 . S
C1646 C1650 1.385 . S
C1647 H1622 0.951 . S
C1647 C1645 1.388 . S
C1647 C1648 1.366 . S
C1648 C1647 1.366 . S
C1648 C1649 1.414 . S
C1648 C1651 1.499 . S
C1649 H1623 0.950 . S
C1649 C1648 1.414 . S
C1649 C1650 1.374 . S
C1650 H1624 0.950 . S
C1650 C1646 1.385 . S
C1650 C1649 1.374 . S
C1651 C1648 1.499 . S
C1651 C1652 1.373 . S
C1651 C1653 1.389 . S
C1652 H1625 0.950 . S
C1652 C1638 1.377 . S
C1652 C1651 1.373 . S
C1653 C1637 1.377 . S
C1653 C1651 1.389 . S
C1653 C1654 1.524 . S
C1654 C1653 1.524 . S
C1654 C1655 1.397 . S
C1654 C1659 1.363 . S
C1655 H1626 0.950 . S
C1655 C1654 1.397 . S
C1655 C1656 1.334 . S
C1656 H1627 0.950 . S
C1656 C1655 1.334 . S
C1656 C1657 1.287 . S
C1657 C1656 1.287 . S
C1657 C1658 1.524 . S
C1657 H1660 0.999 . S
C1658 H1628 0.950 . S
C1658 C1657 1.524 . S
C1658 C1659 1.415 . S
C1659 H1629 0.950 . S
C1659 C1654 1.363 . S
C1659 C1658 1.415 . S
H1660 C1657 0.999 . S
H1661 C1642 0.913 . S
H1662 C1680 0.951 . S
H1663 C1682 0.951 . S
H1664 C1684 0.950 . S
H1665 C1685 0.950 . S
H1666 C1687 0.950 . S
H1667 C1690 0.950 . S
H1668 C1691 0.950 . S
H1669 C1693 0.950 . S
H1670 C1694 0.950 . S
H1671 C1695 0.951 . S
H1672 C1697 0.951 . S
H1673 C1699 0.950 . S
H1674 C1700 0.950 . S
H1675 C1702 0.950 . S
H1676 C1705 0.950 . S
H1677 C1706 0.950 . S
H1678 C1708 0.950 . S
H1679 C1709 0.950 . S
C1680 H1662 0.951 . S
C1680 C1681 1.366 . S
C1680 C1682 1.388 . S
C1681 C1680 1.366 . S
C1681 C1685 1.385 . S
C1682 H1663 0.951 . S
C1682 C1680 1.388 . S
C1682 C1683 1.366 . S
C1683 C1682 1.366 . S
C1683 C1684 1.414 . S
C1683 C1686 1.499 . S
C1684 H1664 0.950 . S
C1684 C1683 1.414 . S
C1684 C1685 1.374 . S
C1685 H1665 0.950 . S
C1685 C1681 1.385 . S
C1685 C1684 1.374 . S
C1686 C1683 1.499 . S
C1686 C1687 1.373 . S
C1686 C1688 1.389 . S
C1687 H1666 0.950 . S
C1687 C1686 1.373 . S
C1687 C1703 1.377 . S
C1688 C1686 1.389 . S
C1688 C1689 1.524 . S
C1688 C1702 1.377 . S
C1689 C1688 1.524 . S
C1689 C1690 1.397 . S
C1689 C1694 1.363 . S
C1690 H1667 0.950 . S
C1690 C1689 1.397 . S
C1690 C1691 1.334 . S
C1691 H1668 0.950 . S
C1691 C1690 1.334 . S
C1691 C1692 1.287 . S
C1692 C1691 1.287 . S
C1692 C1693 1.524 . S
C1692 H1711 0.913 . S
C1693 H1669 0.950 . S
C1693 C1692 1.524 . S
C1693 C1694 1.415 . S
C1694 H1670 0.950 . S
C1694 C1689 1.363 . S
C1694 C1693 1.415 . S
C1695 H1671 0.951 . S
C1695 C1696 1.366 . S
C1695 C1697 1.388 . S
C1696 C1695 1.366 . S
C1696 C1700 1.385 . S
C1697 H1672 0.951 . S
C1697 C1695 1.388 . S
C1697 C1698 1.366 . S
C1698 C1697 1.366 . S
C1698 C1699 1.414 . S
C1698 C1701 1.499 . S
C1699 H1673 0.950 . S
C1699 C1698 1.414 . S
C1699 C1700 1.374 . S
C1700 H1674 0.950 . S
C1700 C1696 1.385 . S
C1700 C1699 1.374 . S
C1701 C1698 1.499 . S
C1701 C1702 1.373 . S
C1701 C1703 1.389 . S
C1702 H1675 0.950 . S
C1702 C1688 1.377 . S
C1702 C1701 1.373 . S
C1703 C1687 1.377 . S
C1703 C1701 1.389 . S
C1703 C1704 1.524 . S
C1704 C1703 1.524 . S
C1704 C1705 1.397 . S
C1704 C1709 1.363 . S
C1705 H1676 0.950 . S
C1705 C1704 1.397 . S
C1705 C1706 1.334 . S
C1706 H1677 0.950 . S
C1706 C1705 1.334 . S
C1706 C1707 1.287 . S
C1707 C1706 1.287 . S
C1707 C1708 1.524 . S
C1707 H1710 0.999 . S
C1708 H1678 0.950 . S
C1708 C1707 1.524 . S
C1708 C1709 1.415 . S
C1709 H1679 0.950 . S
C1709 C1704 1.363 . S
C1709 C1708 1.415 . S
H1710 C1707 0.999 . S
H1711 C1692 0.913 . S
H1712 C1730 0.951 . S
H1713 C1732 0.951 . S
H1714 C1734 0.950 . S
H1715 C1735 0.950 . S
H1716 C1737 0.950 . S
H1717 C1740 0.950 . S
H1718 C1741 0.950 . S
H1719 C1743 0.950 . S
H1720 C1744 0.950 . S
H1721 C1745 0.951 . S
H1722 C1747 0.951 . S
H1723 C1749 0.950 . S
H1724 C1750 0.950 . S
H1725 C1752 0.950 . S
H1726 C1755 0.950 . S
H1727 C1756 0.950 . S
H1728 C1758 0.950 . S
H1729 C1759 0.950 . S
C1730 H1712 0.951 . S
C1730 C1731 1.366 . S
C1730 C1732 1.388 . S
C1731 C1730 1.366 . S
C1731 C1735 1.385 . S
C1732 H1713 0.951 . S
C1732 C1730 1.388 . S
C1732 C1733 1.366 . S
C1733 C1732 1.366 . S
C1733 C1734 1.414 . S
C1733 C1736 1.499 . S
C1734 H1714 0.950 . S
C1734 C1733 1.414 . S
C1734 C1735 1.374 . S
C1735 H1715 0.950 . S
C1735 C1731 1.385 . S
C1735 C1734 1.374 . S
C1736 C1733 1.499 . S
C1736 C1737 1.373 . S
C1736 C1738 1.389 . S
C1737 H1716 0.950 . S
C1737 C1736 1.373 . S
C1737 C1753 1.377 . S
C1738 C1736 1.389 . S
C1738 C1739 1.524 . S
C1738 C1752 1.377 . S
C1739 C1738 1.524 . S
C1739 C1740 1.397 . S
C1739 C1744 1.363 . S
C1740 H1717 0.950 . S
C1740 C1739 1.397 . S
C1740 C1741 1.334 . S
C1741 H1718 0.950 . S
C1741 C1740 1.334 . S
C1741 C1742 1.287 . S
C1742 C1741 1.287 . S
C1742 C1743 1.524 . S
C1742 H1761 0.913 . S
C1743 H1719 0.950 . S
C1743 C1742 1.524 . S
C1743 C1744 1.415 . S
C1744 H1720 0.950 . S
C1744 C1739 1.363 . S
C1744 C1743 1.415 . S
C1745 H1721 0.951 . S
C1745 C1746 1.366 . S
C1745 C1747 1.388 . S
C1746 C1745 1.366 . S
C1746 C1750 1.385 . S
C1747 H1722 0.951 . S
C1747 C1745 1.388 . S
C1747 C1748 1.366 . S
C1748 C1747 1.366 . S
C1748 C1749 1.414 . S
C1748 C1751 1.499 . S
C1749 H1723 0.950 . S
C1749 C1748 1.414 . S
C1749 C1750 1.374 . S
C1750 H1724 0.950 . S
C1750 C1746 1.385 . S
C1750 C1749 1.374 . S
C1751 C1748 1.499 . S
C1751 C1752 1.373 . S
C1751 C1753 1.389 . S
C1752 H1725 0.950 . S
C1752 C1738 1.377 . S
C1752 C1751 1.373 . S
C1753 C1737 1.377 . S
C1753 C1751 1.389 . S
C1753 C1754 1.524 . S
C1754 C1753 1.524 . S
C1754 C1755 1.397 . S
C1754 C1759 1.363 . S
C1755 H1726 0.950 . S
C1755 C1754 1.397 . S
C1755 C1756 1.334 . S
C1756 H1727 0.950 . S
C1756 C1755 1.334 . S
C1756 C1757 1.287 . S
C1757 C1756 1.287 . S
C1757 C1758 1.524 . S
C1757 H1760 0.999 . S
C1758 H1728 0.950 . S
C1758 C1757 1.524 . S
C1758 C1759 1.415 . S
C1759 H1729 0.950 . S
C1759 C1754 1.363 . S
C1759 C1758 1.415 . S
H1760 C1757 0.999 . S
H1761 C1742 0.913 . S
H1762 C1780 0.951 . S
H1763 C1782 0.951 . S
H1764 C1784 0.950 . S
H1765 C1785 0.950 . S
H1766 C1787 0.950 . S
H1767 C1790 0.950 . S
H1768 C1791 0.950 . S
H1769 C1793 0.950 . S
H1770 C1794 0.950 . S
H1771 C1795 0.951 . S
H1772 C1797 0.951 . S
H1773 C1799 0.950 . S
H1774 C1800 0.950 . S
H1775 C1802 0.950 . S
H1776 C1805 0.950 . S
H1777 C1806 0.950 . S
H1778 C1808 0.950 . S
H1779 C1809 0.950 . S
C1780 H1762 0.951 . S
C1780 C1781 1.366 . S
C1780 C1782 1.388 . S
C1781 C1780 1.366 . S
C1781 C1785 1.385 . S
C1782 H1763 0.951 . S
C1782 C1780 1.388 . S
C1782 C1783 1.366 . S
C1783 C1782 1.366 . S
C1783 C1784 1.414 . S
C1783 C1786 1.499 . S
C1784 H1764 0.950 . S
C1784 C1783 1.414 . S
C1784 C1785 1.374 . S
C1785 H1765 0.950 . S
C1785 C1781 1.385 . S
C1785 C1784 1.374 . S
C1786 C1783 1.499 . S
C1786 C1787 1.373 . S
C1786 C1788 1.389 . S
C1787 H1766 0.950 . S
C1787 C1786 1.373 . S
C1787 C1803 1.377 . S
C1788 C1786 1.389 . S
C1788 C1789 1.524 . S
C1788 C1802 1.377 . S
C1789 C1788 1.524 . S
C1789 C1790 1.397 . S
C1789 C1794 1.363 . S
C1790 H1767 0.950 . S
C1790 C1789 1.397 . S
C1790 C1791 1.334 . S
C1791 H1768 0.950 . S
C1791 C1790 1.334 . S
C1791 C1792 1.287 . S
C1792 C1791 1.287 . S
C1792 C1793 1.524 . S
C1792 H1811 0.913 . S
C1793 H1769 0.950 . S
C1793 C1792 1.524 . S
C1793 C1794 1.415 . S
C1794 H1770 0.950 . S
C1794 C1789 1.363 . S
C1794 C1793 1.415 . S
C1795 H1771 0.951 . S
C1795 C1796 1.366 . S
C1795 C1797 1.388 . S
C1796 C1795 1.366 . S
C1796 C1800 1.385 . S
C1797 H1772 0.951 . S
C1797 C1795 1.388 . S
C1797 C1798 1.366 . S
C1798 C1797 1.366 . S
C1798 C1799 1.414 . S
C1798 C1801 1.499 . S
C1799 H1773 0.950 . S
C1799 C1798 1.414 . S
C1799 C1800 1.374 . S
C1800 H1774 0.950 . S
C1800 C1796 1.385 . S
C1800 C1799 1.374 . S
C1801 C1798 1.499 . S
C1801 C1802 1.373 . S
C1801 C1803 1.389 . S
C1802 H1775 0.950 . S
C1802 C1788 1.377 . S
C1802 C1801 1.373 . S
C1803 C1787 1.377 . S
C1803 C1801 1.389 . S
C1803 C1804 1.524 . S
C1804 C1803 1.524 . S
C1804 C1805 1.397 . S
C1804 C1809 1.363 . S
C1805 H1776 0.950 . S
C1805 C1804 1.397 . S
C1805 C1806 1.334 . S
C1806 H1777 0.950 . S
C1806 C1805 1.334 . S
C1806 C1807 1.287 . S
C1807 C1806 1.287 . S
C1807 C1808 1.524 . S
C1807 H1810 0.999 . S
C1808 H1778 0.950 . S
C1808 C1807 1.524 . S
C1808 C1809 1.415 . S
C1809 H1779 0.950 . S
C1809 C1804 1.363 . S
C1809 C1808 1.415 . S
H1810 C1807 0.999 . S
H1811 C1792 0.913 . S
H1812 C1830 0.951 . S
H1813 C1832 0.951 . S
H1814 C1834 0.950 . S
H1815 C1835 0.950 . S
H1816 C1837 0.950 . S
H1817 C1840 0.950 . S
H1818 C1841 0.950 . S
H1819 C1843 0.950 . S
H1820 C1844 0.950 . S
H1821 C1845 0.951 . S
H1822 C1847 0.951 . S
H1823 C1849 0.950 . S
H1824 C1850 0.950 . S
H1825 C1852 0.950 . S
H1826 C1855 0.950 . S
H1827 C1856 0.950 . S
H1828 C1858 0.950 . S
H1829 C1859 0.950 . S
C1830 H1812 0.951 . S
C1830 C1831 1.366 . S
C1830 C1832 1.388 . S
C1831 C1830 1.366 . S
C1831 C1835 1.385 . S
C1832 H1813 0.951 . S
C1832 C1830 1.388 . S
C1832 C1833 1.366 . S
C1833 C1832 1.366 . S
C1833 C1834 1.414 . S
C1833 C1836 1.499 . S
C1834 H1814 0.950 . S
C1834 C1833 1.414 . S
C1834 C1835 1.374 . S
C1835 H1815 0.950 . S
C1835 C1831 1.385 . S
C1835 C1834 1.374 . S
C1836 C1833 1.499 . S
C1836 C1837 1.373 . S
C1836 C1838 1.389 . S
C1837 H1816 0.950 . S
C1837 C1836 1.373 . S
C1837 C1853 1.377 . S
C1838 C1836 1.389 . S
C1838 C1839 1.524 . S
C1838 C1852 1.377 . S
C1839 C1838 1.524 . S
C1839 C1840 1.397 . S
C1839 C1844 1.363 . S
C1840 H1817 0.950 . S
C1840 C1839 1.397 . S
C1840 C1841 1.334 . S
C1841 H1818 0.950 . S
C1841 C1840 1.334 . S
C1841 C1842 1.287 . S
C1842 C1841 1.287 . S
C1842 C1843 1.524 . S
C1842 H1861 0.913 . S
C1843 H1819 0.950 . S
C1843 C1842 1.524 . S
C1843 C1844 1.415 . S
C1844 H1820 0.950 . S
C1844 C1839 1.363 . S
C1844 C1843 1.415 . S
C1845 H1821 0.951 . S
C1845 C1846 1.366 . S
C1845 C1847 1.388 . S
C1846 C1845 1.366 . S
C1846 C1850 1.385 . S
C1847 H1822 0.951 . S
C1847 C1845 1.388 . S
C1847 C1848 1.366 . S
C1848 C1847 1.366 . S
C1848 C1849 1.414 . S
C1848 C1851 1.499 . S
C1849 H1823 0.950 . S
C1849 C1848 1.414 . S
C1849 C1850 1.374 . S
C1850 H1824 0.950 . S
C1850 C1846 1.385 . S
C1850 C1849 1.374 . S
C1851 C1848 1.499 . S
C1851 C1852 1.373 . S
C1851 C1853 1.389 . S
C1852 H1825 0.950 . S
C1852 C1838 1.377 . S
C1852 C1851 1.373 . S
C1853 C1837 1.377 . S
C1853 C1851 1.389 . S
C1853 C1854 1.524 . S
C1854 C1853 1.524 . S
C1854 C1855 1.397 . S
C1854 C1859 1.363 . S
C1855 H1826 0.950 . S
C1855 C1854 1.397 . S
C1855 C1856 1.334 . S
C1856 H1827 0.950 . S
C1856 C1855 1.334 . S
C1856 C1857 1.287 . S
C1857 C1856 1.287 . S
C1857 C1858 1.524 . S
C1857 H1860 0.999 . S
C1858 H1828 0.950 . S
C1858 C1857 1.524 . S
C1858 C1859 1.415 . S
C1859 H1829 0.950 . S
C1859 C1854 1.363 . S
C1859 C1858 1.415 . S
H1860 C1857 0.999 . S
H1861 C1842 0.913 . S
H1862 C1880 0.951 . S
H1863 C1882 0.951 . S
H1864 C1884 0.950 . S
H1865 C1885 0.950 . S
H1866 C1887 0.950 . S
H1867 C1890 0.950 . S
H1868 C1891 0.950 . S
H1869 C1893 0.950 . S
H1870 C1894 0.950 . S
H1871 C1895 0.951 . S
H1872 C1897 0.951 . S
H1873 C1899 0.950 . S
H1874 C1900 0.950 . S
H1875 C1902 0.950 . S
H1876 C1905 0.950 . S
H1877 C1906 0.950 . S
H1878 C1908 0.950 . S
H1879 C1909 0.950 . S
C1880 H1862 0.951 . S
C1880 C1881 1.366 . S
C1880 C1882 1.388 . S
C1881 C1880 1.366 . S
C1881 C1885 1.385 . S
C1882 H1863 0.951 . S
C1882 C1880 1.388 . S
C1882 C1883 1.366 . S
C1883 C1882 1.366 . S
C1883 C1884 1.414 . S
C1883 C1886 1.499 . S
C1884 H1864 0.950 . S
C1884 C1883 1.414 . S
C1884 C1885 1.374 . S
C1885 H1865 0.950 . S
C1885 C1881 1.385 . S
C1885 C1884 1.374 . S
C1886 C1883 1.499 . S
C1886 C1887 1.373 . S
C1886 C1888 1.389 1_554 S
C1887 H1866 0.950 . S
C1887 C1886 1.373 . S
C1887 C1903 1.377 1_554 S
C1888 C1886 1.389 1_556 S
C1888 C1889 1.524 . S
C1888 C1902 1.377 . S
C1889 C1888 1.524 . S
C1889 C1890 1.397 . S
C1889 C1894 1.363 . S
C1890 H1867 0.950 . S
C1890 C1889 1.397 . S
C1890 C1891 1.334 . S
C1891 H1868 0.950 . S
C1891 C1890 1.334 . S
C1891 C1892 1.287 . S
C1892 C1891 1.287 . S
C1892 C1893 1.524 . S
C1892 H1911 0.913 . S
C1893 H1869 0.950 . S
C1893 C1892 1.524 . S
C1893 C1894 1.415 . S
C1894 H1870 0.950 . S
C1894 C1889 1.363 . S
C1894 C1893 1.415 . S
C1895 H1871 0.951 . S
C1895 C1896 1.366 . S
C1895 C1897 1.388 . S
C1896 C1895 1.366 . S
C1896 C1900 1.385 . S
C1897 H1872 0.951 . S
C1897 C1895 1.388 . S
C1897 C1898 1.366 . S
C1898 C1897 1.366 . S
C1898 C1899 1.414 . S
C1898 C1901 1.499 . S
C1899 H1873 0.950 . S
C1899 C1898 1.414 . S
C1899 C1900 1.374 . S
C1900 H1874 0.950 . S
C1900 C1896 1.385 . S
C1900 C1899 1.374 . S
C1901 C1898 1.499 . S
C1901 C1902 1.373 . S
C1901 C1903 1.389 . S
C1902 H1875 0.950 . S
C1902 C1888 1.377 . S
C1902 C1901 1.373 . S
C1903 C1887 1.377 1_556 S
C1903 C1901 1.389 . S
C1903 C1904 1.524 . S
C1904 C1903 1.524 . S
C1904 C1905 1.397 . S
C1904 C1909 1.363 . S
C1905 H1876 0.950 . S
C1905 C1904 1.397 . S
C1905 C1906 1.334 . S
C1906 H1877 0.950 . S
C1906 C1905 1.334 . S
C1906 C1907 1.287 . S
C1907 C1906 1.287 . S
C1907 C1908 1.524 . S
C1907 H1910 0.999 . S
C1908 H1878 0.950 . S
C1908 C1907 1.524 . S
C1908 C1909 1.415 . S
C1909 H1879 0.950 . S
C1909 C1904 1.363 . S
C1909 C1908 1.415 . S
H1910 C1907 0.999 . S
H1911 C1892 0.913 . S
H1912 C1930 0.951 . S
H1913 C1932 0.951 . S
H1914 C1934 0.950 . S
H1915 C1935 0.950 . S
H1916 C1937 0.950 . S
H1917 C1940 0.950 . S
H1918 C1941 0.950 . S
H1919 C1943 0.950 . S
H1920 C1944 0.950 . S
H1921 C1945 0.951 . S
H1922 C1947 0.951 . S
H1923 C1949 0.950 . S
H1924 C1950 0.950 . S
H1925 C1952 0.950 . S
H1926 C1955 0.950 . S
H1927 C1956 0.950 . S
H1928 C1958 0.950 . S
H1929 C1959 0.950 . S
C1930 H1912 0.951 . S
C1930 C1931 1.366 . S
C1930 C1932 1.388 . S
C1931 C1930 1.366 . S
C1931 C1935 1.385 . S
C1932 H1913 0.951 . S
C1932 C1930 1.388 . S
C1932 C1933 1.366 . S
C1933 C1932 1.366 . S
C1933 C1934 1.414 . S
C1933 C1936 1.499 . S
C1934 H1914 0.950 . S
C1934 C1933 1.414 . S
C1934 C1935 1.374 . S
C1935 H1915 0.950 . S
C1935 C1931 1.385 . S
C1935 C1934 1.374 . S
C1936 C1933 1.499 . S
C1936 C1937 1.373 . S
C1936 C1938 1.389 . S
C1937 H1916 0.950 . S
C1937 C1936 1.373 . S
C1937 C1953 1.377 . S
C1938 C1936 1.389 . S
C1938 C1939 1.524 . S
C1938 C1952 1.377 . S
C1939 C1938 1.524 . S
C1939 C1940 1.397 . S
C1939 C1944 1.363 . S
C1940 H1917 0.950 . S
C1940 C1939 1.397 . S
C1940 C1941 1.334 . S
C1941 H1918 0.950 . S
C1941 C1940 1.334 . S
C1941 C1942 1.287 . S
C1942 C1941 1.287 . S
C1942 C1943 1.524 . S
C1942 H1961 0.913 . S
C1943 H1919 0.950 . S
C1943 C1942 1.524 . S
C1943 C1944 1.415 . S
C1944 H1920 0.950 . S
C1944 C1939 1.363 . S
C1944 C1943 1.415 . S
C1945 H1921 0.951 . S
C1945 C1946 1.366 . S
C1945 C1947 1.388 . S
C1946 C1945 1.366 . S
C1946 C1950 1.385 . S
C1947 H1922 0.951 . S
C1947 C1945 1.388 . S
C1947 C1948 1.366 . S
C1948 C1947 1.366 . S
C1948 C1949 1.414 . S
C1948 C1951 1.499 . S
C1949 H1923 0.950 . S
C1949 C1948 1.414 . S
C1949 C1950 1.374 . S
C1950 H1924 0.950 . S
C1950 C1946 1.385 . S
C1950 C1949 1.374 . S
C1951 C1948 1.499 . S
C1951 C1952 1.373 . S
C1951 C1953 1.389 . S
C1952 H1925 0.950 . S
C1952 C1938 1.377 . S
C1952 C1951 1.373 . S
C1953 C1937 1.377 . S
C1953 C1951 1.389 . S
C1953 C1954 1.524 . S
C1954 C1953 1.524 . S
C1954 C1955 1.397 . S
C1954 C1959 1.363 . S
C1955 H1926 0.950 . S
C1955 C1954 1.397 . S
C1955 C1956 1.334 . S
C1956 H1927 0.950 . S
C1956 C1955 1.334 . S
C1956 C1957 1.287 . S
C1957 C1956 1.287 . S
C1957 C1958 1.524 . S
C1957 H1960 0.999 . S
C1958 H1928 0.950 . S
C1958 C1957 1.524 . S
C1958 C1959 1.415 . S
C1959 H1929 0.950 . S
C1959 C1954 1.363 . S
C1959 C1958 1.415 . S
H1960 C1957 0.999 . S
H1961 C1942 0.913 . S
C796 C759 1.665 . S
C781 C1 1.218 . S
C831 C169 1.419 . S
C846 C684 1.613 . S
C881 C283 1.525 . S
C896 C707 1.826 . S
C931 C397 1.069 . S
C946 C720 1.351 . S
C996 C723 1.439 . S
C981 C457 1.097 . S
C1031 C571 0.979 . S
C1046 C736 1.251 . S
C1081 C115 1.079 . S
C1096 C697 1.383 . S
C1131 C229 1.115 . S
C1146 C710 1.471 . S
C1181 C343 0.938 . S
C1196 C733 1.203 . S
C1246 C746 1.683 . S
C1231 C511 1.399 . S
C1296 C749 1.573 . S
C1281 C625 1.378 . S
C1346 C694 1.820 . S
C1331 C55 1.522 . S
C1381 C29 1.085 . S
C1396 C705 1.333 . S
C1431 C125 0.905 . S
C1446 C718 1.441 . S
C1496 C728 1.405 . S
C1481 C239 0.913 . S
C1531 C353 0.840 . S
C1546 C741 1.333 . S
C1596 C757 1.331 . S
C1581 C485 1.063 . S
C1646 C689 1.320 . S
C1631 C599 1.090 . S
C1696 C754 1.325 . S
C1681 C143 1.101 . S
C1731 C257 1.118 . S
C1746 C692 1.397 . S
C1796 C702 1.238 . S
C1781 C371 1.058 . S
C1831 C467 0.922 . S
C1846 C715 1.401 . S
C1881 C581 0.867 . S
C1896 C731 1.372 . S
C1931 C11 0.910 . S
C1946 C744 1.440 . S
