# Generated by pormake.
# Topology ana-f, (3,3)-cn, num edge types: 1
# Building blocks:
#     Node 0, Type 0, BuildingBlock: OLANEW_clean_sbu_2, # of connection points: 3
#     Node 1, Type 0, BuildingBlock: OLANEW_clean_sbu_2, # of connection points: 3
#     Node 2, Type 0, BuildingBlock: OLANEW_clean_sbu_2, # of connection points: 3
#     Node 3, Type 0, BuildingBlock: OLANEW_clean_sbu_2, # of connection points: 3
#     Node 4, Type 0, BuildingBlock: OLANEW_clean_sbu_2, # of connection points: 3
#     Node 5, Type 0, BuildingBlock: OLANEW_clean_sbu_2, # of connection points: 3
#     Node 6, Type 0, BuildingBlock: OLANEW_clean_sbu_2, # of connection points: 3
#     Node 7, Type 0, BuildingBlock: OLANEW_clean_sbu_2, # of connection points: 3
#     Node 8, Type 0, BuildingBlock: OLANEW_clean_sbu_2, # of connection points: 3
#     Node 9, Type 0, BuildingBlock: OLANEW_clean_sbu_2, # of connection points: 3
#     Node 10, Type 0, BuildingBlock: OLANEW_clean_sbu_2, # of connection points: 3
#     Node 11, Type 0, BuildingBlock: OLANEW_clean_sbu_2, # of connection points: 3
#     Node 12, Type 0, BuildingBlock: OLANEW_clean_sbu_2, # of connection points: 3
#     Node 13, Type 0, BuildingBlock: OLANEW_clean_sbu_2, # of connection points: 3
#     Node 14, Type 0, BuildingBlock: OLANEW_clean_sbu_2, # of connection points: 3
#     Node 15, Type 0, BuildingBlock: OLANEW_clean_sbu_2, # of connection points: 3
#     Node 16, Type 0, BuildingBlock: OLANEW_clean_sbu_2, # of connection points: 3
#     Node 17, Type 0, BuildingBlock: OLANEW_clean_sbu_2, # of connection points: 3
#     Node 18, Type 0, BuildingBlock: OLANEW_clean_sbu_2, # of connection points: 3
#     Node 19, Type 0, BuildingBlock: OLANEW_clean_sbu_2, # of connection points: 3
#     Node 20, Type 0, BuildingBlock: OLANEW_clean_sbu_2, # of connection points: 3
#     Node 21, Type 0, BuildingBlock: OLANEW_clean_sbu_2, # of connection points: 3
#     Node 22, Type 0, BuildingBlock: OLANEW_clean_sbu_2, # of connection points: 3
#     Node 23, Type 0, BuildingBlock: OLANEW_clean_sbu_2, # of connection points: 3
#     Node 24, Type 0, BuildingBlock: OLANEW_clean_sbu_2, # of connection points: 3
#     Node 25, Type 0, BuildingBlock: OLANEW_clean_sbu_2, # of connection points: 3
#     Node 26, Type 0, BuildingBlock: OLANEW_clean_sbu_2, # of connection points: 3
#     Node 27, Type 0, BuildingBlock: OLANEW_clean_sbu_2, # of connection points: 3
#     Node 28, Type 0, BuildingBlock: OLANEW_clean_sbu_2, # of connection points: 3
#     Node 29, Type 0, BuildingBlock: OLANEW_clean_sbu_2, # of connection points: 3
#     Node 30, Type 0, BuildingBlock: OLANEW_clean_sbu_2, # of connection points: 3
#     Node 31, Type 0, BuildingBlock: OLANEW_clean_sbu_2, # of connection points: 3
#     Node 32, Type 0, BuildingBlock: OLANEW_clean_sbu_2, # of connection points: 3
#     Node 33, Type 0, BuildingBlock: OLANEW_clean_sbu_2, # of connection points: 3
#     Node 34, Type 0, BuildingBlock: OLANEW_clean_sbu_2, # of connection points: 3
#     Node 35, Type 0, BuildingBlock: OLANEW_clean_sbu_2, # of connection points: 3
#     Node 36, Type 0, BuildingBlock: OLANEW_clean_sbu_2, # of connection points: 3
#     Node 37, Type 0, BuildingBlock: OLANEW_clean_sbu_2, # of connection points: 3
#     Node 38, Type 0, BuildingBlock: OLANEW_clean_sbu_2, # of connection points: 3
#     Node 39, Type 0, BuildingBlock: OLANEW_clean_sbu_2, # of connection points: 3
#     Node 40, Type 0, BuildingBlock: OLANEW_clean_sbu_2, # of connection points: 3
#     Node 41, Type 0, BuildingBlock: OLANEW_clean_sbu_2, # of connection points: 3
#     Node 42, Type 0, BuildingBlock: OLANEW_clean_sbu_2, # of connection points: 3
#     Node 43, Type 0, BuildingBlock: OLANEW_clean_sbu_2, # of connection points: 3
#     Node 44, Type 0, BuildingBlock: OLANEW_clean_sbu_2, # of connection points: 3
#     Node 45, Type 0, BuildingBlock: OLANEW_clean_sbu_2, # of connection points: 3
#     Node 46, Type 0, BuildingBlock: OLANEW_clean_sbu_2, # of connection points: 3
#     Node 47, Type 0, BuildingBlock: OLANEW_clean_sbu_2, # of connection points: 3
#     Node 48, Type 0, BuildingBlock: OLANEW_clean_sbu_2, # of connection points: 3
#     Node 49, Type 0, BuildingBlock: OLANEW_clean_sbu_2, # of connection points: 3
#     Node 50, Type 0, BuildingBlock: OLANEW_clean_sbu_2, # of connection points: 3
#     Node 51, Type 0, BuildingBlock: OLANEW_clean_sbu_2, # of connection points: 3
#     Node 52, Type 0, BuildingBlock: OLANEW_clean_sbu_2, # of connection points: 3
#     Node 53, Type 0, BuildingBlock: OLANEW_clean_sbu_2, # of connection points: 3
#     Node 54, Type 0, BuildingBlock: OLANEW_clean_sbu_2, # of connection points: 3
#     Node 55, Type 0, BuildingBlock: OLANEW_clean_sbu_2, # of connection points: 3
#     Node 56, Type 0, BuildingBlock: OLANEW_clean_sbu_2, # of connection points: 3
#     Node 57, Type 0, BuildingBlock: OLANEW_clean_sbu_2, # of connection points: 3
#     Node 58, Type 0, BuildingBlock: OLANEW_clean_sbu_2, # of connection points: 3
#     Node 59, Type 0, BuildingBlock: OLANEW_clean_sbu_2, # of connection points: 3
#     Node 60, Type 0, BuildingBlock: OLANEW_clean_sbu_2, # of connection points: 3
#     Node 61, Type 0, BuildingBlock: OLANEW_clean_sbu_2, # of connection points: 3
#     Node 62, Type 0, BuildingBlock: OLANEW_clean_sbu_2, # of connection points: 3
#     Node 63, Type 0, BuildingBlock: OLANEW_clean_sbu_2, # of connection points: 3
#     Node 64, Type 0, BuildingBlock: OLANEW_clean_sbu_2, # of connection points: 3
#     Node 65, Type 0, BuildingBlock: OLANEW_clean_sbu_2, # of connection points: 3
#     Node 66, Type 0, BuildingBlock: OLANEW_clean_sbu_2, # of connection points: 3
#     Node 67, Type 0, BuildingBlock: OLANEW_clean_sbu_2, # of connection points: 3
#     Node 68, Type 0, BuildingBlock: OLANEW_clean_sbu_2, # of connection points: 3
#     Node 69, Type 0, BuildingBlock: OLANEW_clean_sbu_2, # of connection points: 3
#     Node 70, Type 0, BuildingBlock: OLANEW_clean_sbu_2, # of connection points: 3
#     Node 71, Type 0, BuildingBlock: OLANEW_clean_sbu_2, # of connection points: 3
#     Node 72, Type 0, BuildingBlock: OLANEW_clean_sbu_2, # of connection points: 3
#     Node 73, Type 0, BuildingBlock: OLANEW_clean_sbu_2, # of connection points: 3
#     Node 74, Type 0, BuildingBlock: OLANEW_clean_sbu_2, # of connection points: 3
#     Node 75, Type 0, BuildingBlock: OLANEW_clean_sbu_2, # of connection points: 3
#     Node 76, Type 0, BuildingBlock: OLANEW_clean_sbu_2, # of connection points: 3
#     Node 77, Type 0, BuildingBlock: OLANEW_clean_sbu_2, # of connection points: 3
#     Node 78, Type 0, BuildingBlock: OLANEW_clean_sbu_2, # of connection points: 3
#     Node 79, Type 0, BuildingBlock: OLANEW_clean_sbu_2, # of connection points: 3
#     Node 80, Type 0, BuildingBlock: OLANEW_clean_sbu_2, # of connection points: 3
#     Node 81, Type 0, BuildingBlock: OLANEW_clean_sbu_2, # of connection points: 3
#     Node 82, Type 0, BuildingBlock: OLANEW_clean_sbu_2, # of connection points: 3
#     Node 83, Type 0, BuildingBlock: OLANEW_clean_sbu_2, # of connection points: 3
#     Node 84, Type 0, BuildingBlock: OLANEW_clean_sbu_2, # of connection points: 3
#     Node 85, Type 0, BuildingBlock: OLANEW_clean_sbu_2, # of connection points: 3
#     Node 86, Type 0, BuildingBlock: OLANEW_clean_sbu_2, # of connection points: 3
#     Node 87, Type 0, BuildingBlock: OLANEW_clean_sbu_2, # of connection points: 3
#     Node 88, Type 0, BuildingBlock: OLANEW_clean_sbu_2, # of connection points: 3
#     Node 89, Type 0, BuildingBlock: OLANEW_clean_sbu_2, # of connection points: 3
#     Node 90, Type 0, BuildingBlock: OLANEW_clean_sbu_2, # of connection points: 3
#     Node 91, Type 0, BuildingBlock: OLANEW_clean_sbu_2, # of connection points: 3
#     Node 92, Type 0, BuildingBlock: OLANEW_clean_sbu_2, # of connection points: 3
#     Node 93, Type 0, BuildingBlock: OLANEW_clean_sbu_2, # of connection points: 3
#     Node 94, Type 0, BuildingBlock: OLANEW_clean_sbu_2, # of connection points: 3
#     Node 95, Type 0, BuildingBlock: OLANEW_clean_sbu_2, # of connection points: 3
#     Node 96, Type 1, BuildingBlock: VETTIZ_charged_linker_0, # of connection points: 3
#     Node 97, Type 1, BuildingBlock: VETTIZ_charged_linker_0, # of connection points: 3
#     Node 98, Type 1, BuildingBlock: VETTIZ_charged_linker_0, # of connection points: 3
#     Node 99, Type 1, BuildingBlock: VETTIZ_charged_linker_0, # of connection points: 3
#     Node 100, Type 1, BuildingBlock: VETTIZ_charged_linker_0, # of connection points: 3
#     Node 101, Type 1, BuildingBlock: VETTIZ_charged_linker_0, # of connection points: 3
#     Node 102, Type 1, BuildingBlock: VETTIZ_charged_linker_0, # of connection points: 3
#     Node 103, Type 1, BuildingBlock: VETTIZ_charged_linker_0, # of connection points: 3
#     Node 104, Type 1, BuildingBlock: VETTIZ_charged_linker_0, # of connection points: 3
#     Node 105, Type 1, BuildingBlock: VETTIZ_charged_linker_0, # of connection points: 3
#     Node 106, Type 1, BuildingBlock: VETTIZ_charged_linker_0, # of connection points: 3
#     Node 107, Type 1, BuildingBlock: VETTIZ_charged_linker_0, # of connection points: 3
#     Node 108, Type 1, BuildingBlock: VETTIZ_charged_linker_0, # of connection points: 3
#     Node 109, Type 1, BuildingBlock: VETTIZ_charged_linker_0, # of connection points: 3
#     Node 110, Type 1, BuildingBlock: VETTIZ_charged_linker_0, # of connection points: 3
#     Node 111, Type 1, BuildingBlock: VETTIZ_charged_linker_0, # of connection points: 3
#     Node 112, Type 1, BuildingBlock: VETTIZ_charged_linker_0, # of connection points: 3
#     Node 113, Type 1, BuildingBlock: VETTIZ_charged_linker_0, # of connection points: 3
#     Node 114, Type 1, BuildingBlock: VETTIZ_charged_linker_0, # of connection points: 3
#     Node 115, Type 1, BuildingBlock: VETTIZ_charged_linker_0, # of connection points: 3
#     Node 116, Type 1, BuildingBlock: VETTIZ_charged_linker_0, # of connection points: 3
#     Node 117, Type 1, BuildingBlock: VETTIZ_charged_linker_0, # of connection points: 3
#     Node 118, Type 1, BuildingBlock: VETTIZ_charged_linker_0, # of connection points: 3
#     Node 119, Type 1, BuildingBlock: VETTIZ_charged_linker_0, # of connection points: 3
#     Node 120, Type 1, BuildingBlock: VETTIZ_charged_linker_0, # of connection points: 3
#     Node 121, Type 1, BuildingBlock: VETTIZ_charged_linker_0, # of connection points: 3
#     Node 122, Type 1, BuildingBlock: VETTIZ_charged_linker_0, # of connection points: 3
#     Node 123, Type 1, BuildingBlock: VETTIZ_charged_linker_0, # of connection points: 3
#     Node 124, Type 1, BuildingBlock: VETTIZ_charged_linker_0, # of connection points: 3
#     Node 125, Type 1, BuildingBlock: VETTIZ_charged_linker_0, # of connection points: 3
#     Node 126, Type 1, BuildingBlock: VETTIZ_charged_linker_0, # of connection points: 3
#     Node 127, Type 1, BuildingBlock: VETTIZ_charged_linker_0, # of connection points: 3
#     Node 128, Type 1, BuildingBlock: VETTIZ_charged_linker_0, # of connection points: 3
#     Node 129, Type 1, BuildingBlock: VETTIZ_charged_linker_0, # of connection points: 3
#     Node 130, Type 1, BuildingBlock: VETTIZ_charged_linker_0, # of connection points: 3
#     Node 131, Type 1, BuildingBlock: VETTIZ_charged_linker_0, # of connection points: 3
#     Node 132, Type 1, BuildingBlock: VETTIZ_charged_linker_0, # of connection points: 3
#     Node 133, Type 1, BuildingBlock: VETTIZ_charged_linker_0, # of connection points: 3
#     Node 134, Type 1, BuildingBlock: VETTIZ_charged_linker_0, # of connection points: 3
#     Node 135, Type 1, BuildingBlock: VETTIZ_charged_linker_0, # of connection points: 3
#     Node 136, Type 1, BuildingBlock: VETTIZ_charged_linker_0, # of connection points: 3
#     Node 137, Type 1, BuildingBlock: VETTIZ_charged_linker_0, # of connection points: 3
#     Node 138, Type 1, BuildingBlock: VETTIZ_charged_linker_0, # of connection points: 3
#     Node 139, Type 1, BuildingBlock: VETTIZ_charged_linker_0, # of connection points: 3
#     Node 140, Type 1, BuildingBlock: VETTIZ_charged_linker_0, # of connection points: 3
#     Node 141, Type 1, BuildingBlock: VETTIZ_charged_linker_0, # of connection points: 3
#     Node 142, Type 1, BuildingBlock: VETTIZ_charged_linker_0, # of connection points: 3
#     Node 143, Type 1, BuildingBlock: VETTIZ_charged_linker_0, # of connection points: 3
#     Node 144, Type 1, BuildingBlock: VETTIZ_charged_linker_0, # of connection points: 3
#     Node 145, Type 1, BuildingBlock: VETTIZ_charged_linker_0, # of connection points: 3
#     Node 146, Type 1, BuildingBlock: VETTIZ_charged_linker_0, # of connection points: 3
#     Node 147, Type 1, BuildingBlock: VETTIZ_charged_linker_0, # of connection points: 3
#     Node 148, Type 1, BuildingBlock: VETTIZ_charged_linker_0, # of connection points: 3
#     Node 149, Type 1, BuildingBlock: VETTIZ_charged_linker_0, # of connection points: 3
#     Node 150, Type 1, BuildingBlock: VETTIZ_charged_linker_0, # of connection points: 3
#     Node 151, Type 1, BuildingBlock: VETTIZ_charged_linker_0, # of connection points: 3
#     Node 152, Type 1, BuildingBlock: VETTIZ_charged_linker_0, # of connection points: 3
#     Node 153, Type 1, BuildingBlock: VETTIZ_charged_linker_0, # of connection points: 3
#     Node 154, Type 1, BuildingBlock: VETTIZ_charged_linker_0, # of connection points: 3
#     Node 155, Type 1, BuildingBlock: VETTIZ_charged_linker_0, # of connection points: 3
#     Node 156, Type 1, BuildingBlock: VETTIZ_charged_linker_0, # of connection points: 3
#     Node 157, Type 1, BuildingBlock: VETTIZ_charged_linker_0, # of connection points: 3
#     Node 158, Type 1, BuildingBlock: VETTIZ_charged_linker_0, # of connection points: 3
#     Node 159, Type 1, BuildingBlock: VETTIZ_charged_linker_0, # of connection points: 3
#     Node 160, Type 1, BuildingBlock: VETTIZ_charged_linker_0, # of connection points: 3
#     Node 161, Type 1, BuildingBlock: VETTIZ_charged_linker_0, # of connection points: 3
#     Node 162, Type 1, BuildingBlock: VETTIZ_charged_linker_0, # of connection points: 3
#     Node 163, Type 1, BuildingBlock: VETTIZ_charged_linker_0, # of connection points: 3
#     Node 164, Type 1, BuildingBlock: VETTIZ_charged_linker_0, # of connection points: 3
#     Node 165, Type 1, BuildingBlock: VETTIZ_charged_linker_0, # of connection points: 3
#     Node 166, Type 1, BuildingBlock: VETTIZ_charged_linker_0, # of connection points: 3
#     Node 167, Type 1, BuildingBlock: VETTIZ_charged_linker_0, # of connection points: 3
#     Node 168, Type 1, BuildingBlock: VETTIZ_charged_linker_0, # of connection points: 3
#     Node 169, Type 1, BuildingBlock: VETTIZ_charged_linker_0, # of connection points: 3
#     Node 170, Type 1, BuildingBlock: VETTIZ_charged_linker_0, # of connection points: 3
#     Node 171, Type 1, BuildingBlock: VETTIZ_charged_linker_0, # of connection points: 3
#     Node 172, Type 1, BuildingBlock: VETTIZ_charged_linker_0, # of connection points: 3
#     Node 173, Type 1, BuildingBlock: VETTIZ_charged_linker_0, # of connection points: 3
#     Node 174, Type 1, BuildingBlock: VETTIZ_charged_linker_0, # of connection points: 3
#     Node 175, Type 1, BuildingBlock: VETTIZ_charged_linker_0, # of connection points: 3
#     Node 176, Type 1, BuildingBlock: VETTIZ_charged_linker_0, # of connection points: 3
#     Node 177, Type 1, BuildingBlock: VETTIZ_charged_linker_0, # of connection points: 3
#     Node 178, Type 1, BuildingBlock: VETTIZ_charged_linker_0, # of connection points: 3
#     Node 179, Type 1, BuildingBlock: VETTIZ_charged_linker_0, # of connection points: 3
#     Node 180, Type 1, BuildingBlock: VETTIZ_charged_linker_0, # of connection points: 3
#     Node 181, Type 1, BuildingBlock: VETTIZ_charged_linker_0, # of connection points: 3
#     Node 182, Type 1, BuildingBlock: VETTIZ_charged_linker_0, # of connection points: 3
#     Node 183, Type 1, BuildingBlock: VETTIZ_charged_linker_0, # of connection points: 3
#     Node 184, Type 1, BuildingBlock: VETTIZ_charged_linker_0, # of connection points: 3
#     Node 185, Type 1, BuildingBlock: VETTIZ_charged_linker_0, # of connection points: 3
#     Node 186, Type 1, BuildingBlock: VETTIZ_charged_linker_0, # of connection points: 3
#     Node 187, Type 1, BuildingBlock: VETTIZ_charged_linker_0, # of connection points: 3
#     Node 188, Type 1, BuildingBlock: VETTIZ_charged_linker_0, # of connection points: 3
#     Node 189, Type 1, BuildingBlock: VETTIZ_charged_linker_0, # of connection points: 3
#     Node 190, Type 1, BuildingBlock: VETTIZ_charged_linker_0, # of connection points: 3
#     Node 191, Type 1, BuildingBlock: VETTIZ_charged_linker_0, # of connection points: 3
#     Edge 192, Type (0, 1), None
#     Edge 193, Type (0, 1), None
#     Edge 194, Type (0, 1), None
#     Edge 195, Type (0, 1), None
#     Edge 196, Type (0, 1), None
#     Edge 197, Type (0, 1), None
#     Edge 198, Type (0, 1), None
#     Edge 199, Type (0, 1), None
#     Edge 200, Type (0, 1), None
#     Edge 201, Type (0, 1), None
#     Edge 202, Type (0, 1), None
#     Edge 203, Type (0, 1), None
#     Edge 204, Type (0, 1), None
#     Edge 205, Type (0, 1), None
#     Edge 206, Type (0, 1), None
#     Edge 207, Type (0, 1), None
#     Edge 208, Type (0, 1), None
#     Edge 209, Type (0, 1), None
#     Edge 210, Type (0, 1), None
#     Edge 211, Type (0, 1), None
#     Edge 212, Type (0, 1), None
#     Edge 213, Type (0, 1), None
#     Edge 214, Type (0, 1), None
#     Edge 215, Type (0, 1), None
#     Edge 216, Type (0, 1), None
#     Edge 217, Type (0, 1), None
#     Edge 218, Type (0, 1), None
#     Edge 219, Type (0, 1), None
#     Edge 220, Type (0, 1), None
#     Edge 221, Type (0, 1), None
#     Edge 222, Type (0, 1), None
#     Edge 223, Type (0, 1), None
#     Edge 224, Type (0, 1), None
#     Edge 225, Type (0, 1), None
#     Edge 226, Type (0, 1), None
#     Edge 227, Type (0, 1), None
#     Edge 228, Type (0, 1), None
#     Edge 229, Type (0, 1), None
#     Edge 230, Type (0, 1), None
#     Edge 231, Type (0, 1), None
#     Edge 232, Type (0, 1), None
#     Edge 233, Type (0, 1), None
#     Edge 234, Type (0, 1), None
#     Edge 235, Type (0, 1), None
#     Edge 236, Type (0, 1), None
#     Edge 237, Type (0, 1), None
#     Edge 238, Type (0, 1), None
#     Edge 239, Type (0, 1), None
#     Edge 240, Type (0, 1), None
#     Edge 241, Type (0, 1), None
#     Edge 242, Type (0, 1), None
#     Edge 243, Type (0, 1), None
#     Edge 244, Type (0, 1), None
#     Edge 245, Type (0, 1), None
#     Edge 246, Type (0, 1), None
#     Edge 247, Type (0, 1), None
#     Edge 248, Type (0, 1), None
#     Edge 249, Type (0, 1), None
#     Edge 250, Type (0, 1), None
#     Edge 251, Type (0, 1), None
#     Edge 252, Type (0, 1), None
#     Edge 253, Type (0, 1), None
#     Edge 254, Type (0, 1), None
#     Edge 255, Type (0, 1), None
#     Edge 256, Type (0, 1), None
#     Edge 257, Type (0, 1), None
#     Edge 258, Type (0, 1), None
#     Edge 259, Type (0, 1), None
#     Edge 260, Type (0, 1), None
#     Edge 261, Type (0, 1), None
#     Edge 262, Type (0, 1), None
#     Edge 263, Type (0, 1), None
#     Edge 264, Type (0, 1), None
#     Edge 265, Type (0, 1), None
#     Edge 266, Type (0, 1), None
#     Edge 267, Type (0, 1), None
#     Edge 268, Type (0, 1), None
#     Edge 269, Type (0, 1), None
#     Edge 270, Type (0, 1), None
#     Edge 271, Type (0, 1), None
#     Edge 272, Type (0, 1), None
#     Edge 273, Type (0, 1), None
#     Edge 274, Type (0, 1), None
#     Edge 275, Type (0, 1), None
#     Edge 276, Type (0, 1), None
#     Edge 277, Type (0, 1), None
#     Edge 278, Type (0, 1), None
#     Edge 279, Type (0, 1), None
#     Edge 280, Type (0, 1), None
#     Edge 281, Type (0, 1), None
#     Edge 282, Type (0, 1), None
#     Edge 283, Type (0, 1), None
#     Edge 284, Type (0, 1), None
#     Edge 285, Type (0, 1), None
#     Edge 286, Type (0, 1), None
#     Edge 287, Type (0, 1), None
#     Edge 288, Type (0, 1), None
#     Edge 289, Type (0, 1), None
#     Edge 290, Type (0, 1), None
#     Edge 291, Type (0, 1), None
#     Edge 292, Type (0, 1), None
#     Edge 293, Type (0, 1), None
#     Edge 294, Type (0, 1), None
#     Edge 295, Type (0, 1), None
#     Edge 296, Type (0, 1), None
#     Edge 297, Type (0, 1), None
#     Edge 298, Type (0, 1), None
#     Edge 299, Type (0, 1), None
#     Edge 300, Type (0, 1), None
#     Edge 301, Type (0, 1), None
#     Edge 302, Type (0, 1), None
#     Edge 303, Type (0, 1), None
#     Edge 304, Type (0, 1), None
#     Edge 305, Type (0, 1), None
#     Edge 306, Type (0, 1), None
#     Edge 307, Type (0, 1), None
#     Edge 308, Type (0, 1), None
#     Edge 309, Type (0, 1), None
#     Edge 310, Type (0, 1), None
#     Edge 311, Type (0, 1), None
#     Edge 312, Type (0, 1), None
#     Edge 313, Type (0, 1), None
#     Edge 314, Type (0, 1), None
#     Edge 315, Type (0, 1), None
#     Edge 316, Type (0, 1), None
#     Edge 317, Type (0, 1), None
#     Edge 318, Type (0, 1), None
#     Edge 319, Type (0, 1), None
#     Edge 320, Type (0, 1), None
#     Edge 321, Type (0, 1), None
#     Edge 322, Type (0, 1), None
#     Edge 323, Type (0, 1), None
#     Edge 324, Type (0, 1), None
#     Edge 325, Type (0, 1), None
#     Edge 326, Type (0, 1), None
#     Edge 327, Type (0, 1), None
#     Edge 328, Type (0, 1), None
#     Edge 329, Type (0, 1), None
#     Edge 330, Type (0, 1), None
#     Edge 331, Type (0, 1), None
#     Edge 332, Type (0, 1), None
#     Edge 333, Type (0, 1), None
#     Edge 334, Type (0, 1), None
#     Edge 335, Type (0, 1), None
#     Edge 336, Type (0, 1), None
#     Edge 337, Type (0, 1), None
#     Edge 338, Type (0, 1), None
#     Edge 339, Type (0, 1), None
#     Edge 340, Type (0, 1), None
#     Edge 341, Type (0, 1), None
#     Edge 342, Type (0, 1), None
#     Edge 343, Type (0, 1), None
#     Edge 344, Type (0, 1), None
#     Edge 345, Type (0, 1), None
#     Edge 346, Type (0, 1), None
#     Edge 347, Type (0, 1), None
#     Edge 348, Type (0, 1), None
#     Edge 349, Type (0, 1), None
#     Edge 350, Type (0, 1), None
#     Edge 351, Type (0, 1), None
#     Edge 352, Type (0, 1), None
#     Edge 353, Type (0, 1), None
#     Edge 354, Type (0, 1), None
#     Edge 355, Type (0, 1), None
#     Edge 356, Type (0, 1), None
#     Edge 357, Type (0, 1), None
#     Edge 358, Type (0, 1), None
#     Edge 359, Type (0, 1), None
#     Edge 360, Type (0, 1), None
#     Edge 361, Type (0, 1), None
#     Edge 362, Type (0, 1), None
#     Edge 363, Type (0, 1), None
#     Edge 364, Type (0, 1), None
#     Edge 365, Type (0, 1), None
#     Edge 366, Type (0, 1), None
#     Edge 367, Type (0, 1), None
#     Edge 368, Type (0, 1), None
#     Edge 369, Type (0, 1), None
#     Edge 370, Type (0, 1), None
#     Edge 371, Type (0, 1), None
#     Edge 372, Type (0, 1), None
#     Edge 373, Type (0, 1), None
#     Edge 374, Type (0, 1), None
#     Edge 375, Type (0, 1), None
#     Edge 376, Type (0, 1), None
#     Edge 377, Type (0, 1), None
#     Edge 378, Type (0, 1), None
#     Edge 379, Type (0, 1), None
#     Edge 380, Type (0, 1), None
#     Edge 381, Type (0, 1), None
#     Edge 382, Type (0, 1), None
#     Edge 383, Type (0, 1), None
#     Edge 384, Type (0, 1), None
#     Edge 385, Type (0, 1), None
#     Edge 386, Type (0, 1), None
#     Edge 387, Type (0, 1), None
#     Edge 388, Type (0, 1), None
#     Edge 389, Type (0, 1), None
#     Edge 390, Type (0, 1), None
#     Edge 391, Type (0, 1), None
#     Edge 392, Type (0, 1), None
#     Edge 393, Type (0, 1), None
#     Edge 394, Type (0, 1), None
#     Edge 395, Type (0, 1), None
#     Edge 396, Type (0, 1), None
#     Edge 397, Type (0, 1), None
#     Edge 398, Type (0, 1), None
#     Edge 399, Type (0, 1), None
#     Edge 400, Type (0, 1), None
#     Edge 401, Type (0, 1), None
#     Edge 402, Type (0, 1), None
#     Edge 403, Type (0, 1), None
#     Edge 404, Type (0, 1), None
#     Edge 405, Type (0, 1), None
#     Edge 406, Type (0, 1), None
#     Edge 407, Type (0, 1), None
#     Edge 408, Type (0, 1), None
#     Edge 409, Type (0, 1), None
#     Edge 410, Type (0, 1), None
#     Edge 411, Type (0, 1), None
#     Edge 412, Type (0, 1), None
#     Edge 413, Type (0, 1), None
#     Edge 414, Type (0, 1), None
#     Edge 415, Type (0, 1), None
#     Edge 416, Type (0, 1), None
#     Edge 417, Type (0, 1), None
#     Edge 418, Type (0, 1), None
#     Edge 419, Type (0, 1), None
#     Edge 420, Type (0, 1), None
#     Edge 421, Type (0, 1), None
#     Edge 422, Type (0, 1), None
#     Edge 423, Type (0, 1), None
#     Edge 424, Type (0, 1), None
#     Edge 425, Type (0, 1), None
#     Edge 426, Type (0, 1), None
#     Edge 427, Type (0, 1), None
#     Edge 428, Type (0, 1), None
#     Edge 429, Type (0, 1), None
#     Edge 430, Type (0, 1), None
#     Edge 431, Type (0, 1), None
#     Edge 432, Type (0, 1), None
#     Edge 433, Type (0, 1), None
#     Edge 434, Type (0, 1), None
#     Edge 435, Type (0, 1), None
#     Edge 436, Type (0, 1), None
#     Edge 437, Type (0, 1), None
#     Edge 438, Type (0, 1), None
#     Edge 439, Type (0, 1), None
#     Edge 440, Type (0, 1), None
#     Edge 441, Type (0, 1), None
#     Edge 442, Type (0, 1), None
#     Edge 443, Type (0, 1), None
#     Edge 444, Type (0, 1), None
#     Edge 445, Type (0, 1), None
#     Edge 446, Type (0, 1), None
#     Edge 447, Type (0, 1), None
#     Edge 448, Type (0, 1), None
#     Edge 449, Type (0, 1), None
#     Edge 450, Type (0, 1), None
#     Edge 451, Type (0, 1), None
#     Edge 452, Type (0, 1), None
#     Edge 453, Type (0, 1), None
#     Edge 454, Type (0, 1), None
#     Edge 455, Type (0, 1), None
#     Edge 456, Type (0, 1), None
#     Edge 457, Type (0, 1), None
#     Edge 458, Type (0, 1), None
#     Edge 459, Type (0, 1), None
#     Edge 460, Type (0, 1), None
#     Edge 461, Type (0, 1), None
#     Edge 462, Type (0, 1), None
#     Edge 463, Type (0, 1), None
#     Edge 464, Type (0, 1), None
#     Edge 465, Type (0, 1), None
#     Edge 466, Type (0, 1), None
#     Edge 467, Type (0, 1), None
#     Edge 468, Type (0, 1), None
#     Edge 469, Type (0, 1), None
#     Edge 470, Type (0, 1), None
#     Edge 471, Type (0, 1), None
#     Edge 472, Type (0, 1), None
#     Edge 473, Type (0, 1), None
#     Edge 474, Type (0, 1), None
#     Edge 475, Type (0, 1), None
#     Edge 476, Type (0, 1), None
#     Edge 477, Type (0, 1), None
#     Edge 478, Type (0, 1), None
#     Edge 479, Type (0, 1), None
# Relax obj value: 0.044
# Max RMSD: 0.090
# Mean RMSD: 0.069
data_MOF--net-ana-f--node1-OLANEW_clean_sbu_2--node2-VETTIZ_charged_linker_0--edge1-none
_symmetry_space_group_name_H-M    P1
_symmetry_Int_Tables_number       1
_symmetry_cell_setting            triclinic
loop_
_symmetry_equiv_pos_as_xyz
'x, y, z'
_cell_length_a     100.41651
_cell_length_b     100.4099
_cell_length_c     100.38294
_cell_angle_alpha  90.001832
_cell_angle_beta   90.002402
_cell_angle_gamma 90.004459
loop_
_atom_site_label
_atom_site_type_symbol
_atom_site_fract_x
_atom_site_fract_y
_atom_site_fract_z
_atom_type_partial_charge
O0 O 0.03572 0.1901 0.40931 0.0
Cd1 Cd 0.01758 0.18237 0.42354 0.0
O2 O 0.04537 0.17075 0.41193 0.0
Cd3 Cd 0.06082 0.15561 0.40978 0.0
O4 O 0.07944 0.1461 0.41542 0.0
C5 C 0.07911 0.13696 0.42416 0.0
O6 O 0.06751 0.13303 0.42877 0.0
C7 C 0.04549 0.18242 0.40696 0.0
C8 C 0.99734 0.17146 0.40809 0.0
O9 O 0.99775 0.18397 0.41059 0.0
O10 O 0.00644 0.16402 0.41308 0.0
O11 O 0.05669 0.78438 0.66182 0.0
Cd12 Cd 0.06401 0.76566 0.67545 0.0
O13 O 0.07672 0.79279 0.66348 0.0
Cd14 Cd 0.09283 0.80716 0.6607 0.0
O15 O 0.10208 0.82648 0.66407 0.0
C16 C 0.1095 0.82825 0.67415 0.0
O17 O 0.11223 0.81806 0.6819 0.0
C18 C 0.06486 0.79362 0.65903 0.0
C19 C 0.07704 0.74736 0.65929 0.0
O20 O 0.06437 0.747 0.66083 0.0
O21 O 0.08363 0.75626 0.66565 0.0
O22 O 0.45921 0.80918 0.91512 0.0
Cd23 Cd 0.47877 0.81319 0.9289 0.0
O24 O 0.45455 0.83046 0.91668 0.0
Cd25 Cd 0.44152 0.84743 0.91277 0.0
O26 O 0.42173 0.85604 0.91466 0.0
C27 C 0.41942 0.86357 0.92455 0.0
O28 O 0.42929 0.86677 0.93252 0.0
C29 C 0.4515 0.81887 0.91257 0.0
C30 C 0.49855 0.82669 0.91502 0.0
O31 O 0.49784 0.81395 0.91485 0.0
O32 O 0.48985 0.83312 0.92179 0.0
O33 O 0.43976 0.20848 0.16044 0.0
Cd34 Cd 0.43601 0.22695 0.17581 0.0
O35 O 0.41932 0.2024 0.16491 0.0
Cd36 Cd 0.40205 0.18921 0.16411 0.0
O37 O 0.39146 0.17097 0.16902 0.0
C38 C 0.3821 0.17111 0.17752 0.0
O39 O 0.37832 0.18256 0.18262 0.0
C40 C 0.43033 0.20017 0.15903 0.0
C41 C 0.4276 0.25007 0.1631 0.0
O42 O 0.44001 0.24764 0.16487 0.0
O43 O 0.41912 0.24149 0.16728 0.0
O44 O 0.03782 0.80621 0.08849 0.0
Cd45 Cd 0.01957 0.81369 0.0743 0.0
O46 O 0.04685 0.8259 0.08625 0.0
Cd47 Cd 0.06184 0.84142 0.08893 0.0
O48 O 0.08027 0.85145 0.08359 0.0
C49 C 0.07981 0.86073 0.07501 0.0
O50 O 0.06817 0.86452 0.0704 0.0
C51 C 0.04728 0.81419 0.09108 0.0
C52 C 0.00062 0.82656 0.08984 0.0
O53 O 0.00033 0.81391 0.08816 0.0
O54 O 0.00977 0.83322 0.08394 0.0
O55 O 0.43992 0.79065 0.33872 0.0
Cd56 Cd 0.43622 0.7722 0.32332 0.0
O57 O 0.41947 0.7967 0.33426 0.0
Cd58 Cd 0.40218 0.80984 0.33508 0.0
O59 O 0.39154 0.82807 0.33019 0.0
C60 C 0.3822 0.82791 0.32166 0.0
O61 O 0.37846 0.81647 0.31652 0.0
C62 C 0.43048 0.79894 0.34015 0.0
C63 C 0.4278 0.74905 0.33598 0.0
O64 O 0.4402 0.7515 0.33423 0.0
O65 O 0.41932 0.75763 0.33178 0.0
O66 O 0.45911 0.1898 0.58405 0.0
Cd67 Cd 0.47864 0.18576 0.57023 0.0
O68 O 0.45444 0.16851 0.58253 0.0
Cd69 Cd 0.44142 0.15155 0.58648 0.0
O70 O 0.42161 0.14297 0.58461 0.0
C71 C 0.41927 0.13548 0.57471 0.0
O72 O 0.42912 0.13229 0.56671 0.0
C73 C 0.45141 0.18011 0.58662 0.0
C74 C 0.49844 0.17228 0.58411 0.0
O75 O 0.49773 0.18503 0.58426 0.0
O76 O 0.48972 0.16584 0.57736 0.0
O77 O 0.05667 0.2147 0.83753 0.0
Cd78 Cd 0.06401 0.23343 0.82393 0.0
O79 O 0.07669 0.20628 0.83589 0.0
Cd80 Cd 0.09279 0.1919 0.83866 0.0
O81 O 0.10203 0.17258 0.83528 0.0
C82 C 0.10945 0.17081 0.82519 0.0
O83 O 0.11217 0.18101 0.81745 0.0
C84 C 0.06483 0.20545 0.84032 0.0
C85 C 0.07707 0.2517 0.8401 0.0
O86 O 0.06441 0.25208 0.83857 0.0
O87 O 0.08365 0.2428 0.83374 0.0
O88 O 0.4061 0.04305 0.19097 0.0
Cd89 Cd 0.42026 0.02361 0.18765 0.0
O90 O 0.41135 0.04945 0.17081 0.0
Cd91 Cd 0.41167 0.06285 0.15365 0.0
O92 O 0.41704 0.0812 0.14343 0.0
C93 C 0.42553 0.08116 0.13406 0.0
O94 O 0.43048 0.06975 0.12999 0.0
C95 C 0.4053 0.05165 0.18173 0.0
C96 C 0.40597 0.00124 0.17975 0.0
O97 O 0.40755 0.00405 0.19211 0.0
O98 O 0.4111 0.00908 0.17108 0.0
O99 O 0.20676 0.16187 0.44159 0.0
Cd100 Cd 0.22663 0.17514 0.43727 0.0
O101 O 0.20167 0.16336 0.42039 0.0
Cd102 Cd 0.18818 0.15972 0.4037 0.0
O103 O 0.16816 0.16223 0.39576 0.0
C104 C 0.16585 0.17252 0.3888 0.0
O105 O 0.1758 0.18045 0.38574 0.0
C106 C 0.19875 0.1595 0.4321 0.0
C107 C 0.24622 0.16116 0.42355 0.0
O108 O 0.24557 0.16089 0.4363 0.0
O109 O 0.23748 0.16799 0.41722 0.0
O110 O 0.09568 0.9583 0.69054 0.0
Cd111 Cd 0.07958 0.97528 0.68404 0.0
O112 O 0.09319 0.94934 0.67085 0.0
Cd113 Cd 0.09544 0.93436 0.65522 0.0
O114 O 0.09093 0.91464 0.64745 0.0
C115 C 0.08065 0.91303 0.64026 0.0
O116 O 0.07357 0.9235 0.63689 0.0
C117 C 0.09837 0.94899 0.68242 0.0
C118 C 0.09128 0.99665 0.6709 0.0
O119 O 0.09063 0.99624 0.68365 0.0
O120 O 0.08644 0.98685 0.6643 0.0
O121 O 0.28951 0.84438 0.94175 0.0
Cd122 Cd 0.27242 0.82822 0.9357 0.0
O123 O 0.29907 0.84054 0.92257 0.0
Cd124 Cd 0.31424 0.8418 0.90705 0.0
O125 O 0.33277 0.83606 0.89741 0.0
C126 C 0.33248 0.82745 0.88815 0.0
O127 O 0.32091 0.82289 0.88408 0.0
C128 C 0.29908 0.8465 0.93376 0.0
C129 C 0.24881 0.84063 0.92831 0.0
O130 O 0.2514 0.8381 0.94055 0.0
O131 O 0.25741 0.83725 0.9195 0.0
O132 O 0.40588 0.95608 0.30863 0.0
Cd133 Cd 0.42001 0.97554 0.31203 0.0
O134 O 0.4111 0.94964 0.32878 0.0
Cd135 Cd 0.41142 0.9362 0.3459 0.0
O136 O 0.41685 0.91783 0.35607 0.0
C137 C 0.42536 0.91787 0.36542 0.0
O138 O 0.43029 0.92928 0.3695 0.0
C139 C 0.40508 0.94745 0.31784 0.0
C140 C 0.40568 0.99791 0.31985 0.0
O141 O 0.40732 0.99509 0.3075 0.0
O142 O 0.41077 0.99007 0.32855 0.0
O143 O 0.28943 0.15514 0.55763 0.0
Cd144 Cd 0.27235 0.17128 0.56373 0.0
O145 O 0.29897 0.15883 0.57686 0.0
Cd146 Cd 0.31413 0.15739 0.59237 0.0
O147 O 0.33268 0.16305 0.60201 0.0
C148 C 0.33243 0.17164 0.61128 0.0
O149 O 0.32088 0.17623 0.61537 0.0
C150 C 0.29898 0.15294 0.56563 0.0
C151 C 0.24877 0.15882 0.5711 0.0
O152 O 0.25135 0.16138 0.55886 0.0
O153 O 0.25736 0.16219 0.57992 0.0
O154 O 0.09566 0.04075 0.80877 0.0
Cd155 Cd 0.07955 0.02376 0.81526 0.0
O156 O 0.09314 0.04971 0.82846 0.0
Cd157 Cd 0.09537 0.0647 0.84409 0.0
O158 O 0.09085 0.08441 0.85186 0.0
C159 C 0.08056 0.08603 0.85902 0.0
O160 O 0.07347 0.07555 0.86237 0.0
C161 C 0.09833 0.05007 0.81689 0.0
C162 C 0.09124 0.00239 0.82839 0.0
O163 O 0.0906 0.0028 0.81564 0.0
O164 O 0.08639 0.01218 0.83499 0.0
O165 O 0.20753 0.8372 0.05712 0.0
Cd166 Cd 0.22745 0.82398 0.06128 0.0
O167 O 0.20266 0.83568 0.07837 0.0
Cd168 Cd 0.18933 0.83923 0.09519 0.0
O169 O 0.16938 0.8366 0.10325 0.0
C170 C 0.16718 0.82645 0.11045 0.0
O171 O 0.17721 0.81871 0.11371 0.0
C172 C 0.19961 0.83955 0.06669 0.0
C173 C 0.24695 0.83794 0.07514 0.0
O174 O 0.24631 0.83832 0.06239 0.0
O175 O 0.23825 0.831 0.08139 0.0
O176 O 0.18966 0.41104 0.03901 0.0
Cd177 Cd 0.18565 0.42642 0.02059 0.0
O178 O 0.16916 0.41517 0.0451 0.0
Cd179 Cd 0.15186 0.41408 0.05822 0.0
O180 O 0.14129 0.41885 0.07653 0.0
C181 C 0.13218 0.42762 0.07651 0.0
O182 O 0.12863 0.43308 0.06516 0.0
C183 C 0.18024 0.40943 0.04729 0.0
C184 C 0.1719 0.41459 0.99964 0.0
O185 O 0.18466 0.41452 9e-05 0.0
O186 O 0.16558 0.42024 0.00919 0.0
O187 O 0.68975 0.08816 0.95989 0.0
Cd188 Cd 0.6857 0.07296 0.97844 0.0
O189 O 0.6693 0.0839 0.9537 0.0
Cd190 Cd 0.65208 0.08484 0.94046 0.0
O191 O 0.64157 0.07996 0.92215 0.0
C192 C 0.63239 0.07127 0.92221 0.0
O193 O 0.62874 0.06595 0.9336 0.0
C194 C 0.68038 0.08966 0.95152 0.0
C195 C 0.67197 0.08497 0.9993 0.0
O196 O 0.68473 0.08502 0.99884 0.0
O197 O 0.66564 0.07924 0.9898 0.0
O198 O 0.15626 0.43826 0.20482 0.0
Cd199 Cd 0.17037 0.4343 0.22417 0.0
O200 O 0.16091 0.41804 0.19815 0.0
Cd201 Cd 0.1607 0.40113 0.18446 0.0
O202 O 0.16609 0.3913 0.1659 0.0
C203 C 0.17468 0.38203 0.16581 0.0
O204 O 0.17965 0.37784 0.17717 0.0
C205 C 0.15518 0.42917 0.1961 0.0
C206 C 0.15587 0.42716 0.24665 0.0
O207 O 0.15796 0.43942 0.24375 0.0
O208 O 0.16059 0.41824 0.23884 0.0
O209 O 0.8105 0.9098 0.45997 0.0
Cd210 Cd 0.81794 0.92419 0.47806 0.0
O211 O 0.83038 0.91107 0.45113 0.0
Cd212 Cd 0.84614 0.9077 0.43648 0.0
O213 O 0.85503 0.91043 0.41687 0.0
C214 C 0.86312 0.91992 0.4148 0.0
O215 O 0.86675 0.92746 0.42487 0.0
C216 C 0.81849 0.90664 0.45068 0.0
C217 C 0.83048 0.90881 0.49735 0.0
O218 O 0.81784 0.91058 0.4975 0.0
O219 O 0.83726 0.91454 0.48817 0.0
O220 O 0.83821 0.05436 0.21163 0.0
Cd221 Cd 0.82083 0.05983 0.22778 0.0
O222 O 0.83638 0.07461 0.20382 0.0
Cd223 Cd 0.83973 0.0912 0.19014 0.0
O224 O 0.83673 0.10035 0.17073 0.0
C225 C 0.82683 0.10798 0.16886 0.0
O226 O 0.81915 0.111 0.17902 0.0
C227 C 0.84159 0.06307 0.2031 0.0
C228 C 0.8308 0.07256 0.25028 0.0
O229 O 0.83028 0.05982 0.24956 0.0
O230 O 0.82661 0.07933 0.24029 0.0
O231 O 0.30925 0.59006 0.5386 0.0
Cd232 Cd 0.31661 0.57577 0.5204 0.0
O233 O 0.32928 0.5889 0.54709 0.0
Cd234 Cd 0.34516 0.5923 0.5616 0.0
O235 O 0.35394 0.58896 0.58115 0.0
C236 C 0.36141 0.57893 0.583 0.0
O237 O 0.36448 0.57134 0.57278 0.0
C238 C 0.31737 0.59322 0.54777 0.0
C239 C 0.32943 0.59116 0.50131 0.0
O240 O 0.31677 0.58952 0.50108 0.0
O241 O 0.3361 0.58529 0.51047 0.0
O242 O 0.15679 0.56017 0.294 0.0
Cd243 Cd 0.17081 0.56391 0.27453 0.0
O244 O 0.16166 0.58037 0.30058 0.0
Cd245 Cd 0.16164 0.59734 0.3142 0.0
O246 O 0.16698 0.60725 0.33273 0.0
C247 C 0.17558 0.61652 0.33282 0.0
O248 O 0.18059 0.62066 0.32146 0.0
C249 C 0.15584 0.5693 0.30269 0.0
C250 C 0.15624 0.57132 0.25217 0.0
O251 O 0.15816 0.55903 0.25502 0.0
O252 O 0.16116 0.58015 0.25997 0.0
O253 O 0.3419 0.43948 0.78743 0.0
Cd254 Cd 0.32521 0.43276 0.77104 0.0
O255 O 0.34045 0.41946 0.79588 0.0
Cd256 Cd 0.34384 0.40347 0.81024 0.0
O257 O 0.34018 0.39508 0.82989 0.0
C258 C 0.32996 0.38788 0.83171 0.0
O259 O 0.32244 0.38483 0.82144 0.0
C260 C 0.34527 0.43118 0.79637 0.0
C261 C 0.3363 0.4196 0.74933 0.0
O262 O 0.33521 0.43232 0.74952 0.0
O263 O 0.33216 0.41305 0.75948 0.0
O264 O 0.94865 0.84381 0.59092 0.0
Cd265 Cd 0.96423 0.85129 0.57386 0.0
O266 O 0.93706 0.86237 0.59174 0.0
Cd267 Cd 0.94467 0.8693 0.57261 0.0
O268 O 0.92698 0.86766 0.56008 0.0
C269 C 0.92086 0.85667 0.5615 0.0
O270 O 0.92655 0.84718 0.56847 0.0
C271 C 0.93952 0.8508 0.59622 0.0
C272 C 0.98917 0.8543 0.58555 0.0
O273 O 0.98145 0.86434 0.58392 0.0
O274 O 0.98521 0.84291 0.58137 0.0
O275 O 0.9236 0.21611 0.32108 0.0
Cd276 Cd 0.91471 0.23475 0.30827 0.0
O277 O 0.90548 0.20397 0.31988 0.0
Cd278 Cd 0.89269 0.18719 0.32491 0.0
O279 O 0.88304 0.16801 0.32754 0.0
C280 C 0.87504 0.16349 0.31883 0.0
O281 O 0.87217 0.17084 0.30839 0.0
C282 C 0.91733 0.20553 0.32408 0.0
C283 C 0.91353 0.25674 0.32517 0.0
O284 O 0.90315 0.24965 0.32295 0.0
O285 O 0.92433 0.25366 0.31912 0.0
O286 O 0.54198 0.16754 0.07109 0.0
Cd287 Cd 0.52606 0.15397 0.05872 0.0
O288 O 0.56049 0.16017 0.06187 0.0
Cd289 Cd 0.55351 0.14263 0.05119 0.0
O290 O 0.57187 0.13088 0.05159 0.0
C291 C 0.57788 0.13109 0.06275 0.0
O292 O 0.5719 0.13664 0.07298 0.0
C293 C 0.55455 0.16808 0.06973 0.0
C294 C 0.5024 0.15351 0.07325 0.0
O295 O 0.51053 0.14369 0.07369 0.0
O296 O 0.50526 0.16338 0.06568 0.0
O297 O 0.58767 0.79682 0.83374 0.0
Cd298 Cd 0.59959 0.7828 0.81791 0.0
O299 O 0.60331 0.81201 0.83625 0.0
Cd300 Cd 0.61722 0.80617 0.8206 0.0
O301 O 0.6263 0.82376 0.81154 0.0
C302 C 0.62749 0.83314 0.81997 0.0
O303 O 0.62466 0.83066 0.83251 0.0
C304 C 0.59199 0.80731 0.83934 0.0
C305 C 0.60417 0.75837 0.8302 0.0
O306 O 0.61337 0.76719 0.82958 0.0
O307 O 0.59295 0.76094 0.8247 0.0
O308 O 0.94845 0.15523 0.90806 0.0
Cd309 Cd 0.96397 0.1477 0.92517 0.0
O310 O 0.93668 0.13677 0.90733 0.0
Cd311 Cd 0.9442 0.12988 0.9265 0.0
O312 O 0.92648 0.13171 0.93899 0.0
C313 C 0.92045 0.14275 0.93748 0.0
O314 O 0.92624 0.15215 0.93047 0.0
C315 C 0.93927 0.1483 0.90279 0.0
C316 C 0.98895 0.1447 0.91355 0.0
O317 O 0.98122 0.13466 0.91514 0.0
O318 O 0.98499 0.15608 0.91774 0.0
O319 O 0.58731 0.20223 0.6656 0.0
Cd320 Cd 0.59911 0.21628 0.6815 0.0
O321 O 0.60296 0.18703 0.66319 0.0
Cd322 Cd 0.61681 0.19288 0.67889 0.0
O323 O 0.62594 0.17531 0.68795 0.0
C324 C 0.62717 0.16595 0.67951 0.0
O325 O 0.62434 0.16843 0.66697 0.0
C326 C 0.59165 0.19173 0.66003 0.0
C327 C 0.6037 0.24073 0.66925 0.0
O328 O 0.61291 0.23193 0.66991 0.0
O329 O 0.59245 0.23812 0.67468 0.0
O330 O 0.54211 0.83164 0.42826 0.0
Cd331 Cd 0.52614 0.84521 0.44055 0.0
O332 O 0.56056 0.83899 0.43763 0.0
Cd333 Cd 0.55353 0.85658 0.44817 0.0
O334 O 0.57186 0.86837 0.44773 0.0
C335 C 0.57792 0.86807 0.43659 0.0
O336 O 0.57199 0.86242 0.42638 0.0
C337 C 0.55467 0.83108 0.42972 0.0
C338 C 0.5025 0.84561 0.42599 0.0
O339 O 0.51061 0.85546 0.42555 0.0
O340 O 0.50536 0.83576 0.43356 0.0
O341 O 0.91675 0.79031 0.17366 0.0
Cd342 Cd 0.90261 0.77453 0.18556 0.0
O343 O 0.91005 0.80849 0.18395 0.0
Cd344 Cd 0.89211 0.80107 0.19357 0.0
O345 O 0.8804 0.81943 0.19292 0.0
C346 C 0.88106 0.82569 0.18192 0.0
O347 O 0.88703 0.81996 0.17177 0.0
C348 C 0.91776 0.80275 0.17574 0.0
C349 C 0.90257 0.75088 0.17106 0.0
O350 O 0.89275 0.75899 0.17032 0.0
O351 O 0.9122 0.75375 0.17892 0.0
O352 O 0.58053 0.95036 0.8412 0.0
Cd353 Cd 0.56431 0.96585 0.85055 0.0
O354 O 0.58579 0.94086 0.86029 0.0
Cd355 Cd 0.56893 0.94682 0.87261 0.0
O356 O 0.56243 0.92695 0.87898 0.0
C357 C 0.57205 0.9191 0.88152 0.0
O358 O 0.5842 0.92392 0.88187 0.0
C359 C 0.58774 0.9424 0.84789 0.0
C360 C 0.57588 0.99107 0.85043 0.0
O361 O 0.57595 0.98387 0.86097 0.0
O362 O 0.56999 0.98651 0.84006 0.0
O363 O 0.79341 0.82329 0.57983 0.0
Cd364 Cd 0.77728 0.81062 0.59286 0.0
O365 O 0.81176 0.81701 0.59016 0.0
Cd366 Cd 0.80476 0.80503 0.60686 0.0
O367 O 0.82173 0.80107 0.61996 0.0
C368 C 0.82983 0.8108 0.62052 0.0
O369 O 0.82653 0.82202 0.61465 0.0
C370 C 0.80601 0.82352 0.58097 0.0
C371 C 0.75351 0.82497 0.59332 0.0
O372 O 0.76152 0.82525 0.60326 0.0
O373 O 0.75656 0.81766 0.58332 0.0
O374 O 0.90836 0.04428 0.33934 0.0
Cd375 Cd 0.92816 0.0327 0.34727 0.0
O376 O 0.90642 0.05804 0.3563 0.0
Cd377 Cd 0.92744 0.05811 0.36136 0.0
O378 O 0.9358 0.07826 0.36046 0.0
C379 C 0.93015 0.08614 0.35227 0.0
O380 O 0.92066 0.08147 0.34456 0.0
C381 C 0.90169 0.05291 0.34575 0.0
C382 C 0.92003 0.00656 0.35163 0.0
O383 O 0.92071 0.01489 0.36128 0.0
O384 O 0.92377 0.01043 0.34005 0.0
O385 O 0.70065 0.15915 0.09223 0.0
Cd386 Cd 0.71414 0.17639 0.10275 0.0
O387 O 0.68669 0.15636 0.10889 0.0
Cd388 Cd 0.69231 0.17508 0.11831 0.0
O389 O 0.67449 0.18742 0.117 0.0
C390 C 0.66855 0.18627 0.10587 0.0
O391 O 0.67442 0.17956 0.09629 0.0
C392 C 0.691 0.1529 0.09751 0.0
C393 C 0.73929 0.16565 0.10708 0.0
O394 O 0.73068 0.1661 0.1165 0.0
O395 O 0.73615 0.17063 0.09577 0.0
O396 O 0.58031 0.04868 0.6583 0.0
Cd397 Cd 0.56407 0.03318 0.649 0.0
O398 O 0.58551 0.05821 0.6392 0.0
Cd399 Cd 0.56868 0.05221 0.62686 0.0
O400 O 0.56221 0.07207 0.62042 0.0
C401 C 0.57184 0.07991 0.61788 0.0
O402 O 0.58399 0.07508 0.61757 0.0
C403 C 0.58749 0.05666 0.6516 0.0
C404 C 0.57563 0.00796 0.64911 0.0
O405 O 0.57567 0.01516 0.63856 0.0
O406 O 0.56977 0.01253 0.65949 0.0
O407 O 0.70104 0.84054 0.40782 0.0
Cd408 Cd 0.71467 0.82314 0.39777 0.0
O409 O 0.68699 0.84281 0.39116 0.0
Cd410 Cd 0.69278 0.824 0.38202 0.0
O411 O 0.67494 0.81167 0.38327 0.0
C412 C 0.66889 0.81293 0.39433 0.0
O413 O 0.67467 0.81975 0.40389 0.0
C414 C 0.6913 0.84656 0.40244 0.0
C415 C 0.73992 0.83371 0.3935 0.0
O416 O 0.73142 0.83306 0.38399 0.0
O417 O 0.73661 0.82903 0.4049 0.0
O418 O 0.90971 0.94927 0.15627 0.0
Cd419 Cd 0.92738 0.96318 0.14711 0.0
O420 O 0.90774 0.93562 0.13923 0.0
Cd421 Cd 0.9268 0.94152 0.13066 0.0
O422 O 0.93906 0.92362 0.13185 0.0
C423 C 0.93752 0.91741 0.14278 0.0
O424 O 0.93052 0.92307 0.15228 0.0
C425 C 0.90376 0.9397 0.15052 0.0
C426 C 0.91696 0.98865 0.14386 0.0
O427 O 0.91771 0.98058 0.13399 0.0
O428 O 0.92151 0.98483 0.15515 0.0
O429 O 0.79326 0.17689 0.91869 0.0
Cd430 Cd 0.7771 0.18943 0.90558 0.0
O431 O 0.81165 0.18292 0.90827 0.0
Cd432 Cd 0.80474 0.19478 0.89146 0.0
O433 O 0.82179 0.19859 0.87843 0.0
C434 C 0.82986 0.18882 0.87796 0.0
O435 O 0.82647 0.17765 0.88387 0.0
C436 C 0.80586 0.17655 0.91754 0.0
C437 C 0.75338 0.17498 0.90526 0.0
O438 O 0.76137 0.17466 0.8953 0.0
O439 O 0.75642 0.18237 0.9152 0.0
O440 O 0.83759 0.58068 0.95182 0.0
Cd441 Cd 0.84997 0.56458 0.96515 0.0
O442 O 0.85344 0.58457 0.93714 0.0
Cd443 Cd 0.86767 0.56905 0.94253 0.0
O444 O 0.87687 0.56051 0.92474 0.0
C445 C 0.87786 0.56912 0.9155 0.0
O446 O 0.87476 0.58155 0.91821 0.0
C447 C 0.8419 0.58698 0.94173 0.0
C448 C 0.85499 0.57608 0.98988 0.0
O449 O 0.86398 0.57587 0.98083 0.0
O450 O 0.84377 0.57056 0.98738 0.0
O451 O 0.33797 0.91806 0.04735 0.0
Cd452 Cd 0.3504 0.9341 0.03398 0.0
O453 O 0.35369 0.91436 0.06221 0.0
Cd454 Cd 0.36797 0.92984 0.05682 0.0
O455 O 0.37713 0.93841 0.07462 0.0
C456 C 0.37808 0.92981 0.08387 0.0
O457 O 0.37499 0.91738 0.08118 0.0
C458 C 0.34221 0.91186 0.05754 0.0
C459 C 0.35532 0.92256 0.00924 0.0
O460 O 0.36433 0.92274 0.01828 0.0
O461 O 0.34413 0.92813 0.01177 0.0
O462 O 0.83006 0.5915 0.79893 0.0
Cd463 Cd 0.81363 0.60067 0.78355 0.0
O464 O 0.83514 0.61056 0.80859 0.0
Cd465 Cd 0.81791 0.62253 0.803 0.0
O466 O 0.81121 0.62831 0.823 0.0
C467 C 0.82076 0.63092 0.83091 0.0
O468 O 0.8329 0.63166 0.82609 0.0
C469 C 0.83725 0.59821 0.80689 0.0
C470 C 0.82502 0.60027 0.75825 0.0
O471 O 0.82511 0.6109 0.76532 0.0
O472 O 0.81916 0.58996 0.76296 0.0
O473 O 0.15407 0.08517 0.54889 0.0
Cd474 Cd 0.14522 0.0689 0.53317 0.0
O475 O 0.13473 0.09081 0.55761 0.0
Cd476 Cd 0.12322 0.07332 0.55188 0.0
O477 O 0.11789 0.06611 0.57181 0.0
C478 C 0.11507 0.07543 0.57991 0.0
O479 O 0.11389 0.08763 0.57532 0.0
C480 C 0.14718 0.09263 0.55643 0.0
C481 C 0.14658 0.08057 0.50804 0.0
O482 O 0.1357 0.08066 0.51473 0.0
O483 O 0.15667 0.07457 0.51303 0.0
O484 O 0.16511 0.90701 0.79885 0.0
Cd485 Cd 0.18083 0.89407 0.78562 0.0
O486 O 0.15906 0.89051 0.81199 0.0
Cd487 Cd 0.17445 0.87617 0.80654 0.0
O488 O 0.18339 0.86728 0.82427 0.0
C489 C 0.17498 0.86646 0.8337 0.0
O490 O 0.1625 0.86953 0.83121 0.0
C491 C 0.15781 0.90249 0.80815 0.0
C492 C 0.16929 0.88956 0.76082 0.0
O493 O 0.16904 0.88056 0.76988 0.0
O494 O 0.17529 0.90052 0.76337 0.0
O495 O 0.65475 0.41208 0.44984 0.0
Cd496 Cd 0.64582 0.4283 0.46557 0.0
O497 O 0.63534 0.40607 0.44153 0.0
Cd498 Cd 0.62392 0.4236 0.44733 0.0
O499 O 0.61861 0.4312 0.42755 0.0
C500 C 0.61581 0.422 0.41929 0.0
O501 O 0.61465 0.40974 0.42369 0.0
C502 C 0.64785 0.40445 0.44248 0.0
C503 C 0.64717 0.41669 0.49073 0.0
O504 O 0.6363 0.41656 0.48403 0.0
O505 O 0.65725 0.4227 0.48573 0.0
O506 O 0.83034 0.40722 0.70034 0.0
Cd507 Cd 0.81397 0.39794 0.71573 0.0
O508 O 0.83551 0.38821 0.69062 0.0
Cd509 Cd 0.8183 0.37621 0.6962 0.0
O510 O 0.81122 0.37065 0.67628 0.0
C511 C 0.82063 0.36822 0.66815 0.0
O512 O 0.83287 0.36753 0.67271 0.0
C513 C 0.83755 0.40058 0.69234 0.0
C514 C 0.82532 0.39842 0.74104 0.0
O515 O 0.82549 0.38779 0.73397 0.0
O516 O 0.81942 0.4087 0.73632 0.0
O517 O 0.66489 0.59188 0.20071 0.0
Cd518 Cd 0.68062 0.60476 0.214 0.0
O519 O 0.65913 0.60833 0.18738 0.0
Cd520 Cd 0.67453 0.62264 0.19288 0.0
O521 O 0.68349 0.63156 0.17516 0.0
C522 C 0.67507 0.63241 0.16573 0.0
O523 O 0.66259 0.62936 0.16821 0.0
C524 C 0.65773 0.59639 0.1913 0.0
C525 C 0.66907 0.60929 0.23879 0.0
O526 O 0.66885 0.61829 0.22974 0.0
O527 O 0.67505 0.59831 0.23624 0.0
O528 O 0.53757 0.69217 0.91008 0.0
Cd529 Cd 0.51931 0.68464 0.92424 0.0
O530 O 0.5467 0.67254 0.91244 0.0
Cd531 Cd 0.56179 0.65709 0.90992 0.0
O532 O 0.58024 0.64717 0.9154 0.0
C533 C 0.57979 0.63794 0.92403 0.0
O534 O 0.56814 0.63413 0.92862 0.0
C535 C 0.54709 0.68424 0.90757 0.0
C536 C 0.50036 0.67175 0.9087 0.0
O537 O 0.50006 0.6844 0.91039 0.0
O538 O 0.50953 0.6651 0.91459 0.0
O539 O 0.55643 0.28443 0.1618 0.0
Cd540 Cd 0.56376 0.26573 0.17545 0.0
O541 O 0.57647 0.29281 0.1634 0.0
Cd542 Cd 0.59259 0.30716 0.16058 0.0
O543 O 0.60186 0.32648 0.16392 0.0
C544 C 0.60932 0.32825 0.17398 0.0
O545 O 0.61206 0.31806 0.18172 0.0
C546 C 0.56461 0.29366 0.15898 0.0
C547 C 0.57686 0.24745 0.15931 0.0
O548 O 0.56419 0.24706 0.16083 0.0
O549 O 0.58342 0.25636 0.16568 0.0
O550 O 0.96313 0.31265 0.42124 0.0
Cd551 Cd 0.98228 0.31696 0.43548 0.0
O552 O 0.95795 0.33379 0.4231 0.0
Cd553 Cd 0.94471 0.35049 0.41883 0.0
O554 O 0.92471 0.35876 0.41952 0.0
C555 C 0.92175 0.36656 0.42901 0.0
O556 O 0.93115 0.37021 0.43737 0.0
C557 C 0.95532 0.32224 0.41862 0.0
C558 C 0.00218 0.32993 0.42127 0.0
O559 O 0.00146 0.31719 0.42157 0.0
O560 O 0.99349 0.33661 0.42782 0.0
O561 O 0.93943 0.70856 0.66036 0.0
Cd562 Cd 0.93561 0.72703 0.67572 0.0
O563 O 0.919 0.70244 0.66481 0.0
Cd564 Cd 0.90176 0.68922 0.66403 0.0
O565 O 0.89121 0.67097 0.669 0.0
C566 C 0.88188 0.67111 0.67754 0.0
O567 O 0.87811 0.68256 0.68264 0.0
C568 C 0.93002 0.70023 0.65895 0.0
C569 C 0.92733 0.75019 0.66298 0.0
O570 O 0.93972 0.74771 0.66483 0.0
O571 O 0.91881 0.74163 0.66711 0.0
O572 O 0.53744 0.30699 0.58912 0.0
Cd573 Cd 0.51923 0.31453 0.5749 0.0
O574 O 0.54657 0.32663 0.58683 0.0
Cd575 Cd 0.56164 0.34208 0.58942 0.0
O576 O 0.58016 0.35187 0.58392 0.0
C577 C 0.57979 0.36098 0.57516 0.0
O578 O 0.56819 0.36478 0.57046 0.0
C579 C 0.54695 0.31493 0.59169 0.0
C580 C 0.50026 0.3274 0.59041 0.0
O581 O 0.49995 0.31476 0.5887 0.0
O582 O 0.50944 0.33406 0.58455 0.0
O583 O 0.93995 0.2906 0.83883 0.0
Cd584 Cd 0.93626 0.27215 0.82341 0.0
O585 O 0.91947 0.2966 0.83443 0.0
Cd586 Cd 0.90217 0.30973 0.8353 0.0
O587 O 0.89154 0.32795 0.8304 0.0
C588 C 0.8822 0.32779 0.82188 0.0
O589 O 0.87846 0.31634 0.81676 0.0
C590 C 0.93049 0.29886 0.84028 0.0
C591 C 0.92783 0.249 0.83604 0.0
O592 O 0.94024 0.25145 0.83431 0.0
O593 O 0.91936 0.25758 0.83185 0.0
O594 O 0.95945 0.68899 0.08375 0.0
Cd595 Cd 0.97901 0.68495 0.06998 0.0
O596 O 0.95475 0.66771 0.08224 0.0
Cd597 Cd 0.94169 0.65079 0.08621 0.0
O598 O 0.92186 0.64226 0.08438 0.0
C599 C 0.91949 0.63477 0.07448 0.0
O600 O 0.92933 0.63156 0.06648 0.0
C601 C 0.95173 0.67932 0.08632 0.0
C602 C 0.99882 0.67158 0.08394 0.0
O603 O 0.99808 0.68433 0.08404 0.0
O604 O 0.99013 0.6651 0.0772 0.0
O605 O 0.55702 0.71478 0.33763 0.0
Cd606 Cd 0.5645 0.73348 0.32406 0.0
O607 O 0.57704 0.70636 0.33614 0.0
Cd608 Cd 0.59312 0.69198 0.33903 0.0
O609 O 0.60235 0.67264 0.33569 0.0
C610 C 0.60967 0.67084 0.32554 0.0
O611 O 0.6123 0.68099 0.31772 0.0
C612 C 0.56515 0.70553 0.34049 0.0
C613 C 0.57752 0.75172 0.34029 0.0
O614 O 0.56487 0.75214 0.33868 0.0
O615 O 0.58411 0.7428 0.33398 0.0
O616 O 0.90603 0.54306 0.69102 0.0
Cd617 Cd 0.92014 0.5236 0.68758 0.0
O618 O 0.91124 0.54947 0.67085 0.0
Cd619 Cd 0.91153 0.56288 0.6537 0.0
O620 O 0.9169 0.58123 0.64348 0.0
C621 C 0.92542 0.58119 0.63413 0.0
O622 O 0.9304 0.56978 0.63009 0.0
C623 C 0.90522 0.55167 0.6818 0.0
C624 C 0.90575 0.50131 0.67966 0.0
O625 O 0.90745 0.50404 0.69202 0.0
O626 O 0.91082 0.5092 0.671 0.0
O627 O 0.70742 0.66188 0.94211 0.0
Cd628 Cd 0.72734 0.6751 0.93793 0.0
O629 O 0.70258 0.66331 0.92085 0.0
Cd630 Cd 0.68927 0.65966 0.90402 0.0
O631 O 0.66932 0.66224 0.89592 0.0
C632 C 0.66712 0.6724 0.88875 0.0
O633 O 0.67715 0.68018 0.88554 0.0
C634 C 0.69952 0.65948 0.93254 0.0
C635 C 0.74683 0.66112 0.92408 0.0
O636 O 0.74619 0.66075 0.93683 0.0
O637 O 0.73813 0.66806 0.91782 0.0
O638 O 0.59545 0.45827 0.1904 0.0
Cd639 Cd 0.57932 0.47524 0.18393 0.0
O640 O 0.59296 0.44933 0.17069 0.0
Cd641 Cd 0.59523 0.43437 0.15506 0.0
O642 O 0.59073 0.41465 0.14728 0.0
C643 C 0.58044 0.41304 0.14011 0.0
O644 O 0.57335 0.42351 0.13675 0.0
C645 C 0.59815 0.44898 0.18227 0.0
C646 C 0.591 0.49664 0.17084 0.0
O647 O 0.59034 0.49621 0.18358 0.0
O648 O 0.58617 0.48685 0.16421 0.0
O649 O 0.79139 0.34541 0.43914 0.0
Cd650 Cd 0.77482 0.32894 0.43252 0.0
O651 O 0.80219 0.34127 0.42069 0.0
Cd652 Cd 0.81821 0.34238 0.40601 0.0
O653 O 0.83734 0.3374 0.39715 0.0
C654 C 0.83788 0.32967 0.38716 0.0
O655 O 0.82672 0.32539 0.38182 0.0
C656 C 0.80142 0.34749 0.43172 0.0
C657 C 0.75074 0.34079 0.42576 0.0
O658 O 0.75353 0.33796 0.43789 0.0
O659 O 0.75937 0.338 0.41677 0.0
O660 O 0.90599 0.4559 0.80843 0.0
Cd661 Cd 0.92012 0.47537 0.81176 0.0
O662 O 0.91122 0.44952 0.82861 0.0
Cd663 Cd 0.91154 0.43613 0.84577 0.0
O664 O 0.91695 0.41779 0.85599 0.0
C665 C 0.92545 0.41783 0.86536 0.0
O666 O 0.93038 0.42925 0.86942 0.0
C667 C 0.90519 0.4473 0.81767 0.0
C668 C 0.90581 0.49773 0.81964 0.0
O669 O 0.9074 0.49491 0.80728 0.0
O670 O 0.91094 0.48988 0.82831 0.0
O671 O 0.78961 0.65444 0.05762 0.0
Cd672 Cd 0.77258 0.67062 0.06377 0.0
O673 O 0.7992 0.65814 0.07681 0.0
Cd674 Cd 0.8144 0.65671 0.09229 0.0
O675 O 0.83298 0.66235 0.10187 0.0
C676 C 0.83276 0.67095 0.11114 0.0
O677 O 0.82122 0.67555 0.11526 0.0
C678 C 0.79917 0.65224 0.06559 0.0
C679 C 0.74894 0.65827 0.07115 0.0
O680 O 0.75153 0.66083 0.05892 0.0
O681 O 0.75757 0.66158 0.07996 0.0
O682 O 0.5961 0.54064 0.30997 0.0
Cd683 Cd 0.58005 0.5237 0.31673 0.0
O684 O 0.59372 0.54973 0.32962 0.0
Cd685 Cd 0.59602 0.56483 0.34512 0.0
O686 O 0.59142 0.58459 0.35273 0.0
C687 C 0.58104 0.58621 0.35976 0.0
O688 O 0.57393 0.57573 0.36308 0.0
C689 C 0.59882 0.55002 0.31801 0.0
C690 C 0.59186 0.50219 0.32954 0.0
O691 O 0.591 0.50269 0.31681 0.0
O692 O 0.58717 0.51197 0.33628 0.0
O693 O 0.70713 0.33549 0.55757 0.0
Cd694 Cd 0.72704 0.32233 0.56199 0.0
O695 O 0.70241 0.33473 0.5789 0.0
Cd696 Cd 0.68917 0.33901 0.59563 0.0
O697 O 0.6692 0.33672 0.60375 0.0
C698 C 0.66693 0.32659 0.61095 0.0
O699 O 0.67691 0.31875 0.61417 0.0
C700 C 0.69931 0.33823 0.56712 0.0
C701 C 0.74636 0.33666 0.5757 0.0
O702 O 0.74574 0.33688 0.56295 0.0
O703 O 0.73775 0.32968 0.58203 0.0
O704 O 0.68939 0.91187 0.53938 0.0
Cd705 Cd 0.6852 0.92714 0.52092 0.0
O706 O 0.66887 0.91582 0.54554 0.0
Cd707 Cd 0.65167 0.91454 0.55877 0.0
O708 O 0.64116 0.91924 0.57712 0.0
C709 C 0.63195 0.9279 0.57711 0.0
O710 O 0.62828 0.93326 0.56574 0.0
C711 C 0.68002 0.91019 0.5477 0.0
C712 C 0.67159 0.91508 0.50001 0.0
O713 O 0.68435 0.91514 0.50047 0.0
O714 O 0.6652 0.92072 0.50952 0.0
O715 O 0.18975 0.58836 0.45989 0.0
Cd716 Cd 0.18561 0.57305 0.47833 0.0
O717 O 0.16923 0.58436 0.45377 0.0
Cd718 Cd 0.15202 0.58558 0.44055 0.0
O719 O 0.14156 0.58079 0.4222 0.0
C720 C 0.13239 0.57209 0.42223 0.0
O721 O 0.12872 0.56676 0.43361 0.0
C722 C 0.18036 0.59001 0.45158 0.0
C723 C 0.17186 0.58492 0.49925 0.0
O724 O 0.18462 0.58495 0.49882 0.0
O725 O 0.16554 0.57928 0.48969 0.0
O726 O 0.65615 0.93926 0.70542 0.0
Cd727 Cd 0.67022 0.93547 0.72484 0.0
O728 O 0.66115 0.91914 0.69871 0.0
Cd729 Cd 0.66127 0.90223 0.68502 0.0
O730 O 0.66671 0.89241 0.66646 0.0
C731 C 0.67536 0.88319 0.66635 0.0
O732 O 0.68039 0.87904 0.6777 0.0
C733 C 0.65525 0.93018 0.69667 0.0
C734 C 0.65573 0.92792 0.74721 0.0
O735 O 0.65762 0.94023 0.7444 0.0
O736 O 0.66065 0.91913 0.73936 0.0
O737 O 0.30923 0.40924 0.96056 0.0
Cd738 Cd 0.31658 0.42358 0.97873 0.0
O739 O 0.32929 0.41032 0.95213 0.0
Cd740 Cd 0.3452 0.40684 0.93768 0.0
O741 O 0.35403 0.41013 0.91815 0.0
C742 C 0.36151 0.42015 0.91629 0.0
O743 O 0.36456 0.42776 0.9265 0.0
C744 C 0.31738 0.40603 0.95143 0.0
C745 C 0.32937 0.40823 0.99786 0.0
O746 O 0.31672 0.40987 0.99808 0.0
O747 O 0.33606 0.41408 0.9887 0.0
O748 O 0.34182 0.55952 0.71187 0.0
Cd749 Cd 0.32515 0.56622 0.72829 0.0
O750 O 0.34032 0.57953 0.70341 0.0
Cd751 Cd 0.34368 0.59552 0.68904 0.0
O752 O 0.34001 0.6039 0.66939 0.0
C753 C 0.32978 0.6111 0.66757 0.0
O754 O 0.32226 0.61413 0.67784 0.0
C755 C 0.34516 0.56782 0.70292 0.0
C756 C 0.33626 0.57938 0.74998 0.0
O757 O 0.33517 0.56666 0.74979 0.0
O758 O 0.33209 0.58593 0.73984 0.0
O759 O 0.80936 0.09066 0.0391 0.0
Cd760 Cd 0.81671 0.07636 0.02089 0.0
O761 O 0.82922 0.08903 0.04791 0.0
Cd762 Cd 0.84486 0.09198 0.06276 0.0
O763 O 0.85328 0.08825 0.0824 0.0
C764 C 0.86105 0.07843 0.08415 0.0
O765 O 0.86464 0.07127 0.0738 0.0
C766 C 0.81738 0.09356 0.04844 0.0
C767 C 0.82948 0.09168 0.00172 0.0
O768 O 0.81682 0.09004 0.00152 0.0
O769 O 0.83618 0.08586 0.01089 0.0
O770 O 0.65626 0.05974 0.79387 0.0
Cd771 Cd 0.67029 0.06356 0.77442 0.0
O772 O 0.6612 0.0799 0.80052 0.0
Cd773 Cd 0.66127 0.09684 0.81418 0.0
O774 O 0.66672 0.10674 0.83269 0.0
C775 C 0.67533 0.11601 0.83273 0.0
O776 O 0.6803 0.12013 0.82135 0.0
C777 C 0.65535 0.06884 0.8026 0.0
C778 C 0.65574 0.07112 0.7521 0.0
O779 O 0.65764 0.05881 0.75489 0.0
O780 O 0.66068 0.07991 0.75995 0.0
O781 O 0.84267 0.93765 0.28604 0.0
Cd782 Cd 0.82554 0.93126 0.26997 0.0
O783 O 0.84067 0.91779 0.29476 0.0
Cd784 Cd 0.84378 0.9019 0.30928 0.0
O785 O 0.84015 0.89387 0.32908 0.0
C786 C 0.82992 0.88674 0.3311 0.0
O787 O 0.82233 0.88352 0.32093 0.0
C788 C 0.8459 0.92934 0.29501 0.0
C789 C 0.83615 0.91815 0.24801 0.0
O790 O 0.83515 0.93087 0.24828 0.0
O791 O 0.83211 0.91157 0.25818 0.0
O792 O 0.44831 0.3438 0.091 0.0
Cd793 Cd 0.46387 0.35136 0.07393 0.0
O794 O 0.43658 0.36228 0.09178 0.0
Cd795 Cd 0.44414 0.36926 0.07265 0.0
O796 O 0.42642 0.36755 0.06016 0.0
C797 C 0.42036 0.35652 0.06159 0.0
O798 O 0.42614 0.34705 0.06852 0.0
C799 C 0.43913 0.35073 0.09627 0.0
C800 C 0.48882 0.35435 0.0856 0.0
O801 O 0.4811 0.36439 0.084 0.0
O802 O 0.48487 0.34297 0.0814 0.0
O803 O 0.41598 0.70786 0.82528 0.0
Cd804 Cd 0.40183 0.72369 0.81348 0.0
O805 O 0.40933 0.68966 0.81499 0.0
Cd806 Cd 0.39141 0.6969 0.80518 0.0
O807 O 0.37993 0.67839 0.80548 0.0
C808 C 0.38053 0.67205 0.81645 0.0
O809 O 0.38629 0.67779 0.82671 0.0
C810 C 0.41702 0.69543 0.82319 0.0
C811 C 0.4019 0.74733 0.82803 0.0
O812 O 0.39206 0.73923 0.82879 0.0
O813 O 0.41149 0.74445 0.82013 0.0
O814 O 0.0419 0.66752 0.5711 0.0
Cd815 Cd 0.02594 0.65398 0.55876 0.0
O816 O 0.0604 0.66005 0.56192 0.0
Cd817 Cd 0.0534 0.64253 0.55123 0.0
O818 O 0.07174 0.63075 0.55161 0.0
C819 C 0.07775 0.63094 0.56278 0.0
O820 O 0.07178 0.63649 0.57302 0.0
C821 C 0.05447 0.66801 0.56976 0.0
C822 C 0.00229 0.65354 0.57332 0.0
O823 O 0.01041 0.64371 0.57374 0.0
O824 O 0.00515 0.66341 0.56575 0.0
O825 O 0.08697 0.29783 0.33628 0.0
Cd826 Cd 0.09791 0.28364 0.31989 0.0
O827 O 0.10283 0.31294 0.33774 0.0
Cd828 Cd 0.11606 0.3068 0.32162 0.0
O829 O 0.1253 0.32416 0.31226 0.0
C830 C 0.12689 0.33356 0.32061 0.0
O831 O 0.12429 0.33122 0.33322 0.0
C832 C 0.09165 0.30837 0.34149 0.0
C833 C 0.10239 0.25896 0.33171 0.0
O834 O 0.11172 0.26763 0.33094 0.0
O835 O 0.09106 0.26181 0.32659 0.0
O836 O 0.44844 0.65534 0.40807 0.0
Cd837 Cd 0.46399 0.64783 0.42516 0.0
O838 O 0.43666 0.63689 0.40736 0.0
Cd839 Cd 0.44423 0.62994 0.4265 0.0
O840 O 0.42653 0.6317 0.43902 0.0
C841 C 0.42049 0.64273 0.43757 0.0
O842 O 0.42627 0.65218 0.4306 0.0
C843 C 0.43924 0.64841 0.40282 0.0
C844 C 0.48897 0.64486 0.41354 0.0
O845 O 0.48125 0.63481 0.41514 0.0
O846 O 0.48499 0.65624 0.41771 0.0
O847 O 0.08769 0.70194 0.16537 0.0
Cd848 Cd 0.09958 0.716 0.1812 0.0
O849 O 0.10342 0.68685 0.16283 0.0
Cd850 Cd 0.1173 0.69275 0.17849 0.0
O851 O 0.12641 0.6752 0.1876 0.0
C852 C 0.12761 0.6658 0.17919 0.0
O853 O 0.12477 0.66824 0.16665 0.0
C854 C 0.09207 0.69148 0.15975 0.0
C855 C 0.10418 0.74041 0.16888 0.0
O856 O 0.11338 0.7316 0.16954 0.0
O857 O 0.09295 0.73784 0.17436 0.0
O858 O 0.04206 0.33158 0.92828 0.0
Cd859 Cd 0.02613 0.34516 0.94063 0.0
O860 O 0.06056 0.33899 0.93751 0.0
Cd861 Cd 0.05353 0.35655 0.94811 0.0
O862 O 0.07184 0.36839 0.9476 0.0
C863 C 0.07782 0.36815 0.93642 0.0
O864 O 0.07184 0.36251 0.92623 0.0
C865 C 0.05462 0.33105 0.92965 0.0
C866 C 0.00247 0.34559 0.9261 0.0
O867 O 0.01059 0.35542 0.92566 0.0
O868 O 0.00533 0.33573 0.93368 0.0
O869 O 0.41609 0.29119 0.67399 0.0
Cd870 Cd 0.40199 0.27533 0.68582 0.0
O871 O 0.4094 0.30939 0.68426 0.0
Cd872 Cd 0.39151 0.30213 0.69411 0.0
O873 O 0.38002 0.32064 0.69381 0.0
C874 C 0.38059 0.32697 0.68284 0.0
O875 O 0.38634 0.32124 0.67258 0.0
C876 C 0.4171 0.30363 0.67606 0.0
C877 C 0.40203 0.25171 0.67126 0.0
O878 O 0.39218 0.25979 0.67053 0.0
O879 O 0.41165 0.25459 0.67913 0.0
O880 O 0.08145 0.45074 0.3413 0.0
Cd881 Cd 0.06517 0.46613 0.35072 0.0
O882 O 0.08822 0.44277 0.36061 0.0
Cd883 Cd 0.07144 0.44862 0.37308 0.0
O884 O 0.06495 0.42894 0.38 0.0
C885 C 0.07459 0.42106 0.38236 0.0
O886 O 0.08678 0.42579 0.38218 0.0
C887 C 0.0894 0.44358 0.34804 0.0
C888 C 0.07656 0.49141 0.35054 0.0
O889 O 0.07671 0.48423 0.3611 0.0
O890 O 0.07067 0.48681 0.3402 0.0
O891 O 0.29316 0.32219 0.08 0.0
Cd892 Cd 0.27696 0.3095 0.09292 0.0
O893 O 0.31154 0.31613 0.09044 0.0
Cd894 Cd 0.30463 0.30413 0.10715 0.0
O895 O 0.32166 0.3003 0.12022 0.0
C896 C 0.3297 0.31008 0.12076 0.0
O897 O 0.32631 0.32127 0.11488 0.0
C898 C 0.30576 0.32255 0.0812 0.0
C899 C 0.2532 0.32387 0.09321 0.0
O900 O 0.26113 0.32413 0.10321 0.0
O901 O 0.25632 0.31657 0.08322 0.0
O902 O 0.40985 0.54851 0.84208 0.0
Cd903 Cd 0.42748 0.53478 0.8516 0.0
O904 O 0.40775 0.56229 0.85899 0.0
Cd905 Cd 0.42676 0.55656 0.86777 0.0
O906 O 0.43892 0.57454 0.86669 0.0
C907 C 0.4374 0.58077 0.85577 0.0
O908 O 0.43048 0.57509 0.84622 0.0
C909 C 0.40385 0.55812 0.84771 0.0
C910 C 0.41717 0.50932 0.85532 0.0
O911 O 0.41776 0.51763 0.865 0.0
O912 O 0.4218 0.51293 0.84399 0.0
O913 O 0.20058 0.65846 0.59245 0.0
Cd914 Cd 0.21409 0.6758 0.60276 0.0
O915 O 0.18655 0.65584 0.60908 0.0
Cd916 Cd 0.19224 0.6746 0.61841 0.0
O917 O 0.17447 0.687 0.61703 0.0
C918 C 0.16852 0.68581 0.60591 0.0
O919 O 0.17435 0.67902 0.59637 0.0
C920 C 0.19089 0.65228 0.59775 0.0
C921 C 0.23941 0.6653 0.60673 0.0
O922 O 0.23096 0.66574 0.61629 0.0
O923 O 0.23603 0.67018 0.59544 0.0
O924 O 0.08098 0.54845 0.15824 0.0
Cd925 Cd 0.06473 0.533 0.14884 0.0
O926 O 0.08636 0.55779 0.13911 0.0
Cd927 Cd 0.0695 0.55181 0.12681 0.0
O928 O 0.06293 0.57165 0.1204 0.0
C929 C 0.07252 0.57953 0.11786 0.0
O930 O 0.08469 0.57474 0.11754 0.0
C931 C 0.08825 0.55634 0.15153 0.0
C932 C 0.07622 0.50776 0.14881 0.0
O933 O 0.0763 0.51501 0.1383 0.0
O934 O 0.07037 0.51228 0.15921 0.0
O935 O 0.20064 0.34072 0.90671 0.0
Cd936 Cd 0.21415 0.32334 0.89648 0.0
O937 O 0.1866 0.34325 0.89008 0.0
Cd938 Cd 0.19231 0.32447 0.88082 0.0
O939 O 0.17455 0.31205 0.88225 0.0
C940 C 0.16862 0.31326 0.89337 0.0
O941 O 0.17446 0.32008 0.90289 0.0
C942 C 0.19094 0.34687 0.90139 0.0
C943 C 0.23949 0.33381 0.89253 0.0
O944 O 0.23105 0.33336 0.88296 0.0
O945 O 0.23608 0.32897 0.90383 0.0
O946 O 0.40978 0.45054 0.65717 0.0
Cd947 Cd 0.42739 0.46428 0.64764 0.0
O948 O 0.40766 0.43677 0.64025 0.0
Cd949 Cd 0.42666 0.44252 0.63146 0.0
O950 O 0.43883 0.42455 0.63252 0.0
C951 C 0.43733 0.41832 0.64345 0.0
O952 O 0.43042 0.42399 0.653 0.0
C953 C 0.40377 0.44093 0.65155 0.0
C954 C 0.41707 0.48973 0.64393 0.0
O955 O 0.41766 0.48143 0.63425 0.0
O956 O 0.42171 0.48613 0.65526 0.0
O957 O 0.29335 0.67712 0.41902 0.0
Cd958 Cd 0.27722 0.68977 0.40597 0.0
O959 O 0.31175 0.68318 0.40862 0.0
Cd960 Cd 0.30482 0.6951 0.39186 0.0
O961 O 0.32182 0.69887 0.37876 0.0
C962 C 0.32985 0.68908 0.37824 0.0
O963 O 0.32646 0.67791 0.38415 0.0
C964 C 0.30595 0.67678 0.41786 0.0
C965 C 0.25348 0.67536 0.40558 0.0
O966 O 0.26147 0.67508 0.39563 0.0
O967 O 0.25653 0.68271 0.41556 0.0
O968 O 0.33743 0.08139 0.45185 0.0
Cd969 Cd 0.34986 0.06535 0.46521 0.0
O970 O 0.35321 0.08515 0.43707 0.0
Cd971 Cd 0.36746 0.06967 0.4425 0.0
O972 O 0.37666 0.06104 0.42475 0.0
C973 C 0.37764 0.06961 0.41548 0.0
O974 O 0.37454 0.08205 0.41813 0.0
C975 C 0.3417 0.08762 0.4417 0.0
C976 C 0.35488 0.07687 0.48994 0.0
O977 O 0.36387 0.07668 0.48087 0.0
O978 O 0.34366 0.07132 0.48743 0.0
O979 O 0.83431 0.42008 0.54743 0.0
Cd980 Cd 0.8462 0.43653 0.53408 0.0
O981 O 0.85036 0.41659 0.562 0.0
Cd982 Cd 0.86437 0.43229 0.55657 0.0
O983 O 0.87408 0.44043 0.57429 0.0
C984 C 0.87531 0.43163 0.58331 0.0
O985 O 0.87211 0.41926 0.58045 0.0
C986 C 0.83886 0.41389 0.55749 0.0
C987 C 0.85234 0.42496 0.50963 0.0
O988 O 0.86106 0.42565 0.51893 0.0
O989 O 0.84083 0.43003 0.51178 0.0
O990 O 0.32993 0.09157 0.29875 0.0
Cd991 Cd 0.31352 0.10069 0.28332 0.0
O992 O 0.33492 0.11064 0.30843 0.0
Cd993 Cd 0.3177 0.12259 0.30277 0.0
O994 O 0.31098 0.12839 0.32275 0.0
C995 C 0.32052 0.13103 0.33067 0.0
O996 O 0.33266 0.13178 0.32587 0.0
C997 C 0.33707 0.0983 0.30674 0.0
C998 C 0.32498 0.10028 0.25805 0.0
O999 O 0.32504 0.11091 0.26511 0.0
O1000 O 0.31912 0.08996 0.26275 0.0
O1001 O 0.65373 0.58535 0.04891 0.0
Cd1002 Cd 0.64482 0.56915 0.03317 0.0
O1003 O 0.63444 0.59104 0.0577 0.0
Cd1004 Cd 0.62286 0.57359 0.05197 0.0
O1005 O 0.61758 0.56633 0.07189 0.0
C1006 C 0.61482 0.57564 0.08003 0.0
O1007 O 0.61367 0.58785 0.07548 0.0
C1008 C 0.64689 0.59282 0.0565 0.0
C1009 C 0.6464 0.58079 0.00803 0.0
O1010 O 0.63549 0.58097 0.01467 0.0
O1011 O 0.65641 0.5747 0.01308 0.0
O1012 O 0.66543 0.407 0.29853 0.0
Cd1013 Cd 0.68108 0.39411 0.28516 0.0
O1014 O 0.65892 0.39022 0.31109 0.0
Cd1015 Cd 0.67426 0.37591 0.30546 0.0
O1016 O 0.68337 0.36697 0.32308 0.0
C1017 C 0.67507 0.36614 0.33261 0.0
O1018 O 0.66257 0.36926 0.3303 0.0
C1019 C 0.65791 0.40233 0.30758 0.0
C1020 C 0.66938 0.3896 0.26044 0.0
O1021 O 0.66921 0.38059 0.26948 0.0
O1022 O 0.67538 0.40057 0.26296 0.0
O1023 O 0.15375 0.91376 0.95047 0.0
Cd1024 Cd 0.14485 0.92998 0.96621 0.0
O1025 O 0.13445 0.90811 0.94165 0.0
Cd1026 Cd 0.12289 0.92557 0.94738 0.0
O1027 O 0.1176 0.9328 0.92745 0.0
C1028 C 0.11482 0.92348 0.91932 0.0
O1029 O 0.11365 0.91128 0.9239 0.0
C1030 C 0.1469 0.90631 0.94287 0.0
C1031 C 0.14643 0.91832 0.99134 0.0
O1032 O 0.13552 0.91815 0.9847 0.0
O1033 O 0.15645 0.92441 0.98629 0.0
O1034 O 0.33013 0.90756 0.20049 0.0
Cd1035 Cd 0.3137 0.8984 0.21587 0.0
O1036 O 0.33506 0.88853 0.19069 0.0
Cd1037 Cd 0.31785 0.87654 0.1963 0.0
O1038 O 0.3112 0.87075 0.17629 0.0
C1039 C 0.32077 0.86813 0.16841 0.0
O1040 O 0.3329 0.86738 0.17325 0.0
C1041 C 0.33725 0.90086 0.19245 0.0
C1042 C 0.32509 0.89879 0.24118 0.0
O1043 O 0.32518 0.88817 0.2341 0.0
O1044 O 0.31923 0.90911 0.23647 0.0
O1045 O 0.16509 0.09208 0.70047 0.0
Cd1046 Cd 0.18079 0.10504 0.71371 0.0
O1047 O 0.15905 0.10856 0.68731 0.0
Cd1048 Cd 0.17441 0.12294 0.69278 0.0
O1049 O 0.18335 0.13185 0.67506 0.0
C1050 C 0.17495 0.13265 0.66562 0.0
O1051 O 0.16248 0.12954 0.66809 0.0
C1052 C 0.1578 0.09658 0.69116 0.0
C1053 C 0.16923 0.10954 0.7385 0.0
O1054 O 0.16898 0.11854 0.72945 0.0
O1055 O 0.17525 0.09858 0.73596 0.0
C1056 C 0.09358 0.23964 0.3447 0.0
C1057 C 0.10444 0.2463 0.3389 0.0
C1058 C 0.11737 0.24118 0.34071 0.0
C1059 C 0.10856 0.2233 0.35434 0.0
C1060 C 0.09588 0.22831 0.35251 0.0
C1061 C 0.08561 0.2208 0.36044 0.0
H1062 H 0.07197 0.17525 0.40803 0.0
C1063 C 0.10762 0.21185 0.36354 0.0
C1064 C 0.09422 0.21038 0.36724 0.0
H1065 H 0.04435 0.20093 0.38726 0.0
H1066 H 0.06227 0.20943 0.37372 0.0
H1067 H 0.08617 0.16504 0.38198 0.0
H1068 H 0.09687 0.19561 0.40999 0.0
H1069 H 0.11093 0.18555 0.40677 0.0
H1070 H 0.09626 0.17813 0.4138 0.0
H1071 H 0.09502 0.16121 0.39701 0.0
H1072 H 0.10365 0.1657 0.38188 0.0
C1073 C 0.0756 0.21442 0.3506 0.0
C1074 C 0.07929 0.23061 0.37056 0.0
C1075 C 0.1496 0.18715 0.37697 0.0
C1076 C 0.15202 0.17642 0.38562 0.0
C1077 C 0.14115 0.17012 0.39192 0.0
C1078 C 0.12812 0.17474 0.38995 0.0
C1079 C 0.12591 0.18575 0.3816 0.0
C1080 C 0.13654 0.19158 0.37507 0.0
C1081 C 0.13234 0.2031 0.36649 0.0
C1082 C 0.11743 0.20319 0.36888 0.0
C1083 C 0.11374 0.19314 0.37787 0.0
C1084 C 0.13577 0.19966 0.35184 0.0
C1085 C 0.13916 0.21589 0.37185 0.0
C1086 C 0.06965 0.18232 0.40028 0.0
C1087 C 0.05662 0.18717 0.39854 0.0
C1088 C 0.05429 0.19701 0.3888 0.0
C1089 C 0.0647 0.20193 0.38093 0.0
C1090 C 0.07766 0.197 0.38281 0.0
C1091 C 0.07992 0.18718 0.39218 0.0
C1092 C 0.09425 0.18275 0.39242 0.0
C1093 C 0.10026 0.1919 0.38197 0.0
C1094 C 0.09053 0.20034 0.37651 0.0
C1095 C 0.09489 0.1679 0.3882 0.0
C1096 C 0.09995 0.18556 0.40648 0.0
H1097 H 0.12956 0.2263 0.34935 0.0
H1098 H 0.08355 0.24349 0.34368 0.0
H1099 H 0.08685 0.23777 0.37437 0.0
H1100 H 0.07537 0.22567 0.37955 0.0
H1101 H 0.07118 0.23648 0.36587 0.0
H1102 H 0.08071 0.21114 0.34133 0.0
H1103 H 0.06771 0.22161 0.34771 0.0
H1104 H 0.07089 0.20531 0.3546 0.0
H1105 H 0.15772 0.19218 0.37195 0.0
H1106 H 0.14275 0.16186 0.39868 0.0
H1107 H 0.12029 0.1697 0.3952 0.0
H1108 H 0.13358 0.18901 0.3497 0.0
H1109 H 0.14651 0.20137 0.34978 0.0
H1110 H 0.1298 0.20533 0.34456 0.0
H1111 H 0.14104 0.2152 0.38275 0.0
H1112 H 0.1329 0.22487 0.37072 0.0
H1113 H 0.1489 0.21762 0.3669 0.0
H1114 H 0.12588 0.24615 0.33632 0.0
C1115 C 0.11947 0.22966 0.34829 0.0
C1116 C 0.06473 0.89768 0.6288 0.0
C1117 C 0.07587 0.89947 0.63709 0.0
C1118 C 0.08184 0.88821 0.64301 0.0
C1119 C 0.06506 0.87391 0.63318 0.0
C1120 C 0.05954 0.88488 0.62697 0.0
C1121 C 0.04749 0.88133 0.61882 0.0
H1122 H 0.00363 0.83477 0.59769 0.0
C1123 C 0.05685 0.86218 0.62979 0.0
C1124 C 0.04663 0.86644 0.62125 0.0
H1125 H 0.00345 0.87707 0.58961 0.0
H1126 H 0.02372 0.87972 0.60223 0.0
H1127 H 0.03593 0.83007 0.59463 0.0
H1128 H 0.01013 0.83792 0.62797 0.0
H1129 H 0.02204 0.82637 0.6334 0.0
H1130 H 0.01084 0.8219 0.62008 0.0
H1131 H 0.02438 0.81799 0.60098 0.0
H1132 H 0.04092 0.81965 0.60781 0.0
C1133 C 0.05058 0.88457 0.60405 0.0
C1134 C 0.03532 0.88886 0.62463 0.0
C1135 C 0.06633 0.8176 0.65176 0.0
C1136 C 0.06042 0.80495 0.65067 0.0
C1137 C 0.04978 0.8032 0.64166 0.0
C1138 C 0.04509 0.81383 0.63393 0.0
C1139 C 0.05109 0.82641 0.63516 0.0
C1140 C 0.06169 0.82806 0.64378 0.0
C1141 C 0.06703 0.84206 0.64355 0.0
C1142 C 0.05747 0.84867 0.63389 0.0
C1143 C 0.04817 0.83945 0.62898 0.0
C1144 C 0.08137 0.84164 0.63785 0.0
C1145 C 0.06597 0.84791 0.6578 0.0
C1146 C 0.00808 0.84456 0.59848 0.0
C1147 C 0.002 0.85572 0.59259 0.0
C1148 C 0.00795 0.86833 0.59407 0.0
C1149 C 0.01972 0.86985 0.60142 0.0
C1150 C 0.02552 0.85866 0.60752 0.0
C1151 C 0.01971 0.84628 0.606 0.0
C1152 C 0.02683 0.83567 0.61381 0.0
C1153 C 0.03797 0.84369 0.62015 0.0
C1154 C 0.03718 0.85713 0.61636 0.0
C1155 C 0.03226 0.82519 0.60388 0.0
C1156 C 0.01702 0.83004 0.62433 0.0
H1157 H 0.08135 0.86734 0.64608 0.0
H1158 H 0.05993 0.9061 0.62405 0.0
H1159 H 0.03634 0.89026 0.63559 0.0
H1160 H 0.02588 0.88334 0.62343 0.0
H1161 H 0.03426 0.89889 0.62008 0.0
H1162 H 0.06108 0.88204 0.60158 0.0
H1163 H 0.04914 0.89534 0.60196 0.0
H1164 H 0.04452 0.87871 0.59699 0.0
H1165 H 0.07403 0.81955 0.65898 0.0
H1166 H 0.04503 0.79357 0.64061 0.0
H1167 H 0.03691 0.81185 0.62734 0.0
H1168 H 0.08238 0.83368 0.6302 0.0
H1169 H 0.08875 0.83958 0.64579 0.0
H1170 H 0.08418 0.85091 0.63263 0.0
H1171 H 0.05672 0.84441 0.66281 0.0
H1172 H 0.06528 0.85887 0.65795 0.0
H1173 H 0.07456 0.84479 0.66404 0.0
H1174 H 0.09043 0.88927 0.64943 0.0
C1175 C 0.0765 0.87546 0.6411 0.0
C1176 C 0.4387 0.80758 0.89447 0.0
C1177 C 0.43902 0.81656 0.90519 0.0
C1178 C 0.42718 0.82298 0.90909 0.0
C1179 C 0.41512 0.81199 0.89133 0.0
C1180 C 0.42668 0.80544 0.88771 0.0
C1181 C 0.42448 0.79595 0.87632 0.0
H1182 H 0.38118 0.76231 0.8373 0.0
C1183 C 0.40429 0.80727 0.88258 0.0
C1184 C 0.40968 0.79781 0.8738 0.0
H1185 H 0.4241 0.75925 0.83795 0.0
H1186 H 0.42535 0.77746 0.85361 0.0
H1187 H 0.37614 0.76792 0.86871 0.0
H1188 H 0.38141 0.79372 0.83494 0.0
H1189 H 0.37069 0.80222 0.84581 0.0
H1190 H 0.36554 0.78649 0.83874 0.0
H1191 H 0.36445 0.76931 0.85524 0.0
H1192 H 0.36384 0.78044 0.86926 0.0
C1193 C 0.42777 0.78173 0.88133 0.0
C1194 C 0.43301 0.8006 0.86432 0.0
C1195 C 0.35728 0.82491 0.88896 0.0
C1196 C 0.345 0.82165 0.88303 0.0
C1197 C 0.34473 0.81215 0.87269 0.0
C1198 C 0.35643 0.80579 0.86853 0.0
C1199 C 0.36855 0.80888 0.8748 0.0
C1200 C 0.36886 0.81841 0.88472 0.0
C1201 C 0.38259 0.82021 0.89044 0.0
C1202 C 0.39049 0.81034 0.88213 0.0
C1203 C 0.38219 0.80369 0.87305 0.0
C1204 C 0.38221 0.81631 0.90541 0.0
C1205 C 0.38701 0.83475 0.88781 0.0
C1206 C 0.39082 0.76556 0.84088 0.0
C1207 C 0.40254 0.75922 0.83662 0.0
C1208 C 0.41494 0.76396 0.84116 0.0
C1209 C 0.41564 0.77447 0.85032 0.0
C1210 C 0.40382 0.78038 0.8549 0.0
C1211 C 0.39172 0.77625 0.84981 0.0
C1212 C 0.38032 0.78449 0.85497 0.0
C1213 C 0.38753 0.79379 0.86448 0.0
C1214 C 0.40125 0.79114 0.8646 0.0
C1215 C 0.37057 0.77512 0.86239 0.0
C1216 C 0.37404 0.79209 0.84306 0.0
H1217 H 0.40663 0.82609 0.90559 0.0
H1218 H 0.44763 0.80236 0.8914 0.0
H1219 H 0.43462 0.81157 0.86453 0.0
H1220 H 0.42809 0.7987 0.85465 0.0
H1221 H 0.44296 0.79577 0.86436 0.0
H1222 H 0.42341 0.78005 0.89138 0.0
H1223 H 0.4387 0.78025 0.8821 0.0
H1224 H 0.42363 0.7738 0.87498 0.0
H1225 H 0.35784 0.83209 0.897 0.0
H1226 H 0.33543 0.80946 0.86794 0.0
H1227 H 0.35553 0.79852 0.86075 0.0
H1228 H 0.37394 0.80925 0.90758 0.0
H1229 H 0.38076 0.82519 0.91185 0.0
H1230 H 0.39129 0.81096 0.90862 0.0
H1231 H 0.38448 0.83777 0.87745 0.0
H1232 H 0.39787 0.83619 0.88874 0.0
H1233 H 0.38191 0.84174 0.89471 0.0
H1234 H 0.42704 0.82937 0.91777 0.0
C1235 C 0.41528 0.82087 0.90214 0.0
C1236 C 0.48449 0.14186 0.08603 0.0
C1237 C 0.49046 0.15378 0.08181 0.0
C1238 C 0.48529 0.16602 0.08636 0.0
C1239 C 0.46925 0.15432 0.10009 0.0
C1240 C 0.47379 0.14237 0.09498 0.0
C1241 C 0.46603 0.13067 0.10018 0.0
H1242 H 0.41998 0.10634 0.14284 0.0
C1243 C 0.45863 0.15135 0.10984 0.0
C1244 C 0.45652 0.13753 0.10974 0.0
H1245 H 0.44309 0.08477 0.11353 0.0
H1246 H 0.45303 0.10531 0.10608 0.0
H1247 H 0.44248 0.12349 0.15291 0.0
H1248 H 0.41273 0.13237 0.12349 0.0
H1249 H 0.41411 0.14614 0.1343 0.0
H1250 H 0.40931 0.13018 0.14092 0.0
H1251 H 0.42627 0.12936 0.15755 0.0
H1252 H 0.4398 0.14069 0.15407 0.0
C1253 C 0.47581 0.1213 0.10756 0.0
C1254 C 0.4586 0.12411 0.08833 0.0
C1255 C 0.44113 0.18805 0.14012 0.0
C1256 C 0.43244 0.18794 0.1511 0.0
C1257 C 0.42643 0.17584 0.1549 0.0
C1258 C 0.42876 0.16412 0.14772 0.0
C1259 C 0.43747 0.16437 0.13677 0.0
C1260 C 0.44353 0.17618 0.13315 0.0
C1261 C 0.45301 0.17438 0.12167 0.0
C1262 C 0.4517 0.15952 0.1191 0.0
C1263 C 0.44253 0.15375 0.12795 0.0
C1264 C 0.46713 0.1782 0.12655 0.0
C1265 C 0.44792 0.18276 0.10974 0.0
C1266 C 0.42705 0.10604 0.13469 0.0
C1267 C 0.43075 0.09389 0.12877 0.0
C1268 C 0.44008 0.09398 0.11828 0.0
C1269 C 0.44586 0.10593 0.11397 0.0
C1270 C 0.44235 0.11794 0.12025 0.0
C1271 C 0.43297 0.11788 0.13032 0.0
C1272 C 0.43068 0.13153 0.13604 0.0
C1273 C 0.44005 0.13983 0.12754 0.0
C1274 C 0.44693 0.1318 0.1184 0.0
C1275 C 0.43491 0.13134 0.15093 0.0
C1276 C 0.41593 0.13532 0.13368 0.0
H1277 H 0.47142 0.17594 0.09882 0.0
H1278 H 0.48807 0.13233 0.08245 0.0
H1279 H 0.45657 0.13142 0.08025 0.0
H1280 H 0.44866 0.12029 0.09116 0.0
H1281 H 0.46454 0.11588 0.08393 0.0
H1282 H 0.48285 0.12715 0.1138 0.0
H1283 H 0.48178 0.11537 0.10038 0.0
H1284 H 0.47081 0.1144 0.11449 0.0
H1285 H 0.44607 0.19715 0.1371 0.0
H1286 H 0.42037 0.17526 0.16377 0.0
H1287 H 0.42391 0.15525 0.15116 0.0
H1288 H 0.46905 0.17397 0.13661 0.0
H1289 H 0.46823 0.18919 0.12725 0.0
H1290 H 0.47516 0.17432 0.12017 0.0
H1291 H 0.43688 0.18369 0.10992 0.0
H1292 H 0.45017 0.17808 0.10003 0.0
H1293 H 0.45214 0.19298 0.10994 0.0
H1294 H 0.4897 0.17534 0.08317 0.0
C1295 C 0.47475 0.16635 0.09551 0.0
C1296 C 0.09535 0.7593 0.15534 0.0
C1297 C 0.10622 0.75288 0.16139 0.0
C1298 C 0.11912 0.75804 0.15952 0.0
C1299 C 0.11027 0.77552 0.1454 0.0
C1300 C 0.09761 0.77044 0.14725 0.0
C1301 C 0.08736 0.77759 0.13899 0.0
H1302 H 0.07359 0.82195 0.09032 0.0
C1303 C 0.10929 0.78673 0.1359 0.0
C1304 C 0.09592 0.78792 0.13201 0.0
H1305 H 0.04624 0.79588 0.11094 0.0
H1306 H 0.0641 0.788 0.12492 0.0
H1307 H 0.08725 0.83284 0.11627 0.0
H1308 H 0.09892 0.80197 0.08903 0.0
H1309 H 0.11273 0.81237 0.09224 0.0
H1310 H 0.098 0.81936 0.08489 0.0
H1311 H 0.09638 0.83654 0.10138 0.0
H1312 H 0.10474 0.83244 0.11677 0.0
C1313 C 0.07716 0.78411 0.14854 0.0
C1314 C 0.08126 0.76742 0.12907 0.0
C1315 C 0.15104 0.81182 0.12246 0.0
C1316 C 0.15339 0.82243 0.11364 0.0
C1317 C 0.14248 0.82847 0.10716 0.0
C1318 C 0.12949 0.82371 0.1091 0.0
C1319 C 0.12738 0.81278 0.1176 0.0
C1320 C 0.13802 0.80723 0.12432 0.0
C1321 C 0.13391 0.7958 0.13307 0.0
C1322 C 0.11903 0.79543 0.13052 0.0
C1323 C 0.11529 0.80527 0.12131 0.0
C1324 C 0.13713 0.79956 0.14769 0.0
C1325 C 0.14098 0.78302 0.12803 0.0
C1326 C 0.07132 0.81491 0.09811 0.0
C1327 C 0.05839 0.80977 0.0997 0.0
C1328 C 0.05611 0.8 0.10952 0.0
C1329 C 0.06649 0.79545 0.11765 0.0
C1330 C 0.07936 0.80067 0.11593 0.0
C1331 C 0.08157 0.81039 0.10644 0.0
C1332 C 0.09582 0.81507 0.10632 0.0
C1333 C 0.10185 0.80621 0.11701 0.0
C1334 C 0.09219 0.7977 0.12248 0.0
C1335 C 0.09614 0.83 0.1103 0.0
C1336 C 0.10175 0.81214 0.09239 0.0
H1337 H 0.13125 0.77281 0.15059 0.0
H1338 H 0.08534 0.75539 0.15638 0.0
H1339 H 0.08881 0.75996 0.12588 0.0
H1340 H 0.07783 0.77202 0.1197 0.0
H1341 H 0.07285 0.7619 0.13368 0.0
H1342 H 0.08219 0.78798 0.15763 0.0
H1343 H 0.0695 0.77681 0.15179 0.0
H1344 H 0.07215 0.79286 0.14412 0.0
H1345 H 0.15919 0.80698 0.12762 0.0
H1346 H 0.14401 0.83665 0.10028 0.0
H1347 H 0.12164 0.82855 0.10371 0.0
H1348 H 0.13467 0.81019 0.14963 0.0
H1349 H 0.14788 0.79814 0.14987 0.0
H1350 H 0.13123 0.79386 0.15501 0.0
H1351 H 0.14296 0.78354 0.11713 0.0
H1352 H 0.13484 0.77397 0.12926 0.0
H1353 H 0.15069 0.78153 0.13311 0.0
H1354 H 0.12764 0.75324 0.16409 0.0
C1355 C 0.12119 0.7694 0.15167 0.0
C1356 C 0.48455 0.85724 0.41323 0.0
C1357 C 0.49056 0.84533 0.41742 0.0
C1358 C 0.48543 0.83309 0.41285 0.0
C1359 C 0.46933 0.84476 0.39916 0.0
C1360 C 0.47385 0.85671 0.40429 0.0
C1361 C 0.46604 0.8684 0.39912 0.0
H1362 H 0.41987 0.89269 0.35658 0.0
C1363 C 0.4587 0.84772 0.38942 0.0
C1364 C 0.45654 0.86154 0.38956 0.0
H1365 H 0.44295 0.91426 0.38592 0.0
H1366 H 0.45297 0.89373 0.3933 0.0
H1367 H 0.4424 0.87565 0.34643 0.0
H1368 H 0.41272 0.86659 0.37588 0.0
H1369 H 0.41413 0.85285 0.36502 0.0
H1370 H 0.40928 0.86882 0.35846 0.0
H1371 H 0.42621 0.86973 0.34181 0.0
H1372 H 0.43979 0.85844 0.34524 0.0
C1373 C 0.47579 0.87783 0.39176 0.0
C1374 C 0.45861 0.87492 0.411 0.0
C1375 C 0.44127 0.81104 0.35908 0.0
C1376 C 0.43256 0.81116 0.3481 0.0
C1377 C 0.42652 0.82324 0.34433 0.0
C1378 C 0.42882 0.83495 0.35154 0.0
C1379 C 0.43754 0.8347 0.36248 0.0
C1380 C 0.44364 0.8229 0.36607 0.0
C1381 C 0.45312 0.8247 0.37755 0.0
C1382 C 0.45177 0.83956 0.38015 0.0
C1383 C 0.44258 0.84532 0.37133 0.0
C1384 C 0.46725 0.82093 0.37264 0.0
C1385 C 0.44807 0.81629 0.38946 0.0
C1386 C 0.42695 0.893 0.36472 0.0
C1387 C 0.43062 0.90515 0.37067 0.0
C1388 C 0.43996 0.90506 0.38115 0.0
C1389 C 0.44579 0.89312 0.38542 0.0
C1390 C 0.44231 0.88111 0.37912 0.0
C1391 C 0.43291 0.88117 0.36906 0.0
C1392 C 0.43066 0.86752 0.3633 0.0
C1393 C 0.44006 0.85923 0.37177 0.0
C1394 C 0.44692 0.86726 0.38092 0.0
C1395 C 0.43487 0.86777 0.34841 0.0
C1396 C 0.41592 0.86368 0.36567 0.0
H1397 H 0.47157 0.82315 0.40038 0.0
H1398 H 0.4881 0.86677 0.41683 0.0
H1399 H 0.45662 0.86758 0.41906 0.0
H1400 H 0.44865 0.8787 0.40819 0.0
H1401 H 0.46453 0.88316 0.41541 0.0
H1402 H 0.48284 0.87201 0.38549 0.0
H1403 H 0.48175 0.88375 0.39895 0.0
H1404 H 0.47076 0.88472 0.38485 0.0
H1405 H 0.44623 0.80195 0.36207 0.0
H1406 H 0.42045 0.82383 0.33547 0.0
H1407 H 0.42394 0.84382 0.34812 0.0
H1408 H 0.46915 0.8252 0.36259 0.0
H1409 H 0.46838 0.80995 0.37192 0.0
H1410 H 0.47528 0.82483 0.37902 0.0
H1411 H 0.43703 0.81534 0.3893 0.0
H1412 H 0.45033 0.82094 0.39919 0.0
H1413 H 0.45231 0.80607 0.38923 0.0
H1414 H 0.48986 0.82378 0.41602 0.0
C1415 C 0.47488 0.83275 0.40371 0.0
C1416 C 0.43866 0.19142 0.60474 0.0
C1417 C 0.43894 0.18243 0.59403 0.0
C1418 C 0.4271 0.17601 0.59016 0.0
C1419 C 0.41508 0.18702 0.60794 0.0
C1420 C 0.42665 0.19357 0.61154 0.0
C1421 C 0.42449 0.20307 0.62292 0.0
H1422 H 0.38129 0.23672 0.66205 0.0
C1423 C 0.40427 0.19175 0.61672 0.0
C1424 C 0.40969 0.20121 0.62548 0.0
H1425 H 0.42421 0.23979 0.66129 0.0
H1426 H 0.42542 0.22157 0.64562 0.0
H1427 H 0.37618 0.23111 0.63065 0.0
H1428 H 0.38152 0.20532 0.66441 0.0
H1429 H 0.37077 0.19681 0.65357 0.0
H1430 H 0.36564 0.21255 0.66064 0.0
H1431 H 0.36451 0.22972 0.64415 0.0
H1432 H 0.36387 0.2186 0.63013 0.0
C1433 C 0.42777 0.21728 0.6179 0.0
C1434 C 0.43304 0.19841 0.6349 0.0
C1435 C 0.35723 0.17414 0.61044 0.0
C1436 C 0.34497 0.17742 0.61639 0.0
C1437 C 0.34474 0.1869 0.62674 0.0
C1438 C 0.35645 0.19326 0.63088 0.0
C1439 C 0.36855 0.19015 0.62458 0.0
C1440 C 0.36883 0.18062 0.61466 0.0
C1441 C 0.38255 0.17881 0.60891 0.0
C1442 C 0.39048 0.18868 0.61721 0.0
C1443 C 0.3822 0.19533 0.6263 0.0
C1444 C 0.38214 0.18271 0.59394 0.0
C1445 C 0.38696 0.16428 0.61154 0.0
C1446 C 0.39092 0.23347 0.65844 0.0
C1447 C 0.40265 0.23982 0.66266 0.0
C1448 C 0.41504 0.23508 0.6581 0.0
C1449 C 0.41572 0.22456 0.64894 0.0
C1450 C 0.40389 0.21865 0.64439 0.0
C1451 C 0.39179 0.22278 0.64951 0.0
C1452 C 0.38038 0.21454 0.64438 0.0
C1453 C 0.38756 0.20524 0.63485 0.0
C1454 C 0.40129 0.20789 0.6347 0.0
C1455 C 0.37062 0.22391 0.63698 0.0
C1456 C 0.37413 0.20694 0.65631 0.0
H1457 H 0.40655 0.17291 0.59371 0.0
H1458 H 0.4476 0.19664 0.6078 0.0
H1459 H 0.43464 0.18745 0.6347 0.0
H1460 H 0.42815 0.20033 0.64459 0.0
H1461 H 0.443 0.20324 0.63483 0.0
H1462 H 0.42339 0.21896 0.60786 0.0
H1463 H 0.4387 0.21876 0.61711 0.0
H1464 H 0.42365 0.22522 0.62425 0.0
H1465 H 0.35777 0.16696 0.6024 0.0
H1466 H 0.33544 0.18961 0.63151 0.0
H1467 H 0.35557 0.20052 0.63866 0.0
H1468 H 0.37387 0.18978 0.59179 0.0
H1469 H 0.38066 0.17383 0.5875 0.0
H1470 H 0.39121 0.18805 0.5907 0.0
H1471 H 0.38445 0.16126 0.6219 0.0
H1472 H 0.39782 0.16283 0.61059 0.0
H1473 H 0.38184 0.15729 0.60465 0.0
H1474 H 0.42693 0.16961 0.58149 0.0
C1475 C 0.41521 0.17813 0.59714 0.0
C1476 C 0.06461 0.10136 0.87045 0.0
C1477 C 0.07577 0.09958 0.86219 0.0
C1478 C 0.08175 0.11085 0.85629 0.0
C1479 C 0.06496 0.12514 0.86609 0.0
C1480 C 0.05942 0.11417 0.87229 0.0
C1481 C 0.04736 0.11771 0.88041 0.0
H1482 H 0.00345 0.16425 0.90147 0.0
C1483 C 0.05674 0.13686 0.86948 0.0
C1484 C 0.0465 0.1326 0.87799 0.0
H1485 H 0.00324 0.12194 0.90951 0.0
H1486 H 0.02354 0.1193 0.89694 0.0
H1487 H 0.03574 0.16894 0.90463 0.0
H1488 H 0.01004 0.16112 0.87121 0.0
H1489 H 0.02195 0.1727 0.86583 0.0
H1490 H 0.01071 0.17713 0.87913 0.0
H1491 H 0.02421 0.18103 0.89825 0.0
H1492 H 0.04077 0.17937 0.89148 0.0
C1493 C 0.05041 0.11445 0.89519 0.0
C1494 C 0.0352 0.11018 0.87456 0.0
C1495 C 0.06627 0.18147 0.84757 0.0
C1496 C 0.06037 0.19411 0.84866 0.0
C1497 C 0.04971 0.19586 0.85765 0.0
C1498 C 0.045 0.18522 0.86537 0.0
C1499 C 0.051 0.17265 0.86413 0.0
C1500 C 0.06162 0.17099 0.85553 0.0
C1501 C 0.06695 0.15699 0.85576 0.0
C1502 C 0.05737 0.15038 0.86539 0.0
C1503 C 0.04807 0.1596 0.87029 0.0
C1504 C 0.08128 0.15741 0.86148 0.0
C1505 C 0.06591 0.15116 0.8415 0.0
C1506 C 0.0079 0.15445 0.90068 0.0
C1507 C 0.0018 0.14329 0.90655 0.0
C1508 C 0.00776 0.13068 0.90507 0.0
C1509 C 0.01954 0.12917 0.89776 0.0
C1510 C 0.02536 0.14036 0.89168 0.0
C1511 C 0.01955 0.15274 0.8932 0.0
C1512 C 0.0267 0.16337 0.88542 0.0
C1513 C 0.03785 0.15534 0.8791 0.0
C1514 C 0.03704 0.1419 0.88287 0.0
C1515 C 0.0321 0.17383 0.89537 0.0
C1516 C 0.01691 0.16901 0.87488 0.0
H1517 H 0.08127 0.13172 0.85324 0.0
H1518 H 0.0598 0.09294 0.87519 0.0
H1519 H 0.03624 0.10879 0.86361 0.0
H1520 H 0.02575 0.1157 0.87574 0.0
H1521 H 0.03412 0.10015 0.87912 0.0
H1522 H 0.06091 0.11699 0.89768 0.0
H1523 H 0.04897 0.10368 0.89726 0.0
H1524 H 0.04433 0.1203 0.90224 0.0
H1525 H 0.07398 0.17952 0.84036 0.0
H1526 H 0.04497 0.20549 0.8587 0.0
H1527 H 0.03682 0.1872 0.87195 0.0
H1528 H 0.08229 0.16537 0.86913 0.0
H1529 H 0.08868 0.15946 0.85355 0.0
H1530 H 0.08407 0.14814 0.86671 0.0
H1531 H 0.05667 0.15465 0.83648 0.0
H1532 H 0.06523 0.14019 0.84134 0.0
H1533 H 0.0745 0.15429 0.83527 0.0
H1534 H 0.09036 0.10979 0.84989 0.0
C1535 C 0.07641 0.1236 0.8582 0.0
C1536 C 0.38694 0.06417 0.19297 0.0
C1537 C 0.3977 0.06408 0.18399 0.0
C1538 C 0.4016 0.07612 0.17795 0.0
C1539 C 0.38395 0.0879 0.18943 0.0
C1540 C 0.3803 0.07615 0.1956 0.0
C1541 C 0.36932 0.07819 0.2056 0.0
H1542 H 0.33264 0.12107 0.24227 0.0
C1543 C 0.3755 0.09868 0.1948 0.0
C1544 C 0.36695 0.09308 0.20435 0.0
H1545 H 0.33366 0.0781 0.24493 0.0
H1546 H 0.34778 0.07708 0.22549 0.0
H1547 H 0.36334 0.12596 0.23529 0.0
H1548 H 0.32858 0.12144 0.21069 0.0
H1549 H 0.33914 0.13238 0.20208 0.0
H1550 H 0.33271 0.1371 0.21822 0.0
H1551 H 0.34995 0.13781 0.23464 0.0
H1552 H 0.36354 0.13851 0.22303 0.0
C1553 C 0.37482 0.07432 0.2195 0.0
C1554 C 0.35703 0.07001 0.2011 0.0
C1555 C 0.38231 0.14622 0.17888 0.0
C1556 C 0.37665 0.15846 0.18271 0.0
C1557 C 0.36634 0.1585 0.19224 0.0
C1558 C 0.36201 0.14662 0.19814 0.0
C1559 C 0.36811 0.13454 0.19457 0.0
C1560 C 0.37793 0.13445 0.18492 0.0
C1561 C 0.38344 0.12073 0.18255 0.0
C1562 C 0.37514 0.11257 0.19221 0.0
C1563 C 0.3663 0.12074 0.19931 0.0
C1564 C 0.39844 0.12078 0.18633 0.0
C1565 C 0.38061 0.11688 0.16789 0.0
C1566 C 0.3359 0.11145 0.23864 0.0
C1567 C 0.33226 0.09968 0.24527 0.0
C1568 C 0.33641 0.08732 0.24005 0.0
C1569 C 0.3447 0.08675 0.22882 0.0
C1570 C 0.34886 0.09864 0.22274 0.0
C1571 C 0.34406 0.11069 0.22735 0.0
C1572 C 0.34894 0.12224 0.21917 0.0
C1573 C 0.35799 0.11519 0.20931 0.0
C1574 C 0.35808 0.1014 0.21159 0.0
C1575 C 0.35681 0.13174 0.22845 0.0
C1576 C 0.33677 0.12875 0.21221 0.0
H1577 H 0.39818 0.09679 0.17556 0.0
H1578 H 0.38389 0.05513 0.19801 0.0
H1579 H 0.35639 0.06955 0.19005 0.0
H1580 H 0.34752 0.07455 0.20429 0.0
H1581 H 0.35755 0.05962 0.20487 0.0
H1582 H 0.38525 0.07788 0.22071 0.0
H1583 H 0.37484 0.06334 0.22084 0.0
H1584 H 0.36929 0.07886 0.22782 0.0
H1585 H 0.3903 0.14581 0.17164 0.0
H1586 H 0.36177 0.16777 0.19535 0.0
H1587 H 0.35429 0.14734 0.20548 0.0
H1588 H 0.40076 0.1287 0.19374 0.0
H1589 H 0.40482 0.12257 0.17747 0.0
H1590 H 0.40161 0.11144 0.19124 0.0
H1591 H 0.37032 0.11982 0.16501 0.0
H1592 H 0.38119 0.10605 0.16609 0.0
H1593 H 0.38762 0.122 0.16102 0.0
H1594 H 0.41037 0.07659 0.17175 0.0
C1595 C 0.39468 0.08797 0.18046 0.0
C1596 C 0.13619 0.09167 0.4883 0.0
C1597 C 0.14769 0.088 0.49539 0.0
C1598 C 0.16023 0.09224 0.49074 0.0
C1599 C 0.14963 0.10476 0.47303 0.0
C1600 C 0.13741 0.09991 0.47711 0.0
C1601 C 0.12621 0.10476 0.46843 0.0
H1602 H 0.1046 0.1455 0.41941 0.0
C1603 C 0.14733 0.11396 0.46177 0.0
C1604 C 0.13366 0.11384 0.4589 0.0
H1605 H 0.08183 0.11709 0.4425 0.0
H1606 H 0.10178 0.11002 0.45375 0.0
H1607 H 0.12071 0.15653 0.44194 0.0
H1608 H 0.13129 0.12538 0.41452 0.0
H1609 H 0.14462 0.13679 0.41576 0.0
H1610 H 0.12867 0.14248 0.40993 0.0
H1611 H 0.1277 0.16023 0.42593 0.0
H1612 H 0.13808 0.15733 0.44035 0.0
C1613 C 0.11631 0.11261 0.4773 0.0
C1614 C 0.12004 0.09257 0.4612 0.0
C1615 C 0.1855 0.14221 0.44414 0.0
C1616 C 0.18606 0.1526 0.43479 0.0
C1617 C 0.17426 0.15669 0.42841 0.0
C1618 C 0.16218 0.15015 0.4308 0.0
C1619 C 0.1618 0.1396 0.43998 0.0
C1620 C 0.17329 0.13589 0.4466 0.0
C1621 C 0.1708 0.12505 0.45663 0.0
C1622 C 0.15595 0.12279 0.45484 0.0
C1623 C 0.15076 0.13129 0.44501 0.0
C1624 C 0.17418 0.13068 0.4706 0.0
C1625 C 0.17903 0.11265 0.45257 0.0
C1626 C 0.10393 0.13763 0.42676 0.0
C1627 C 0.09159 0.13186 0.43008 0.0
C1628 C 0.09118 0.12172 0.43978 0.0
C1629 C 0.1028 0.11763 0.44633 0.0
C1630 C 0.11497 0.12378 0.44322 0.0
C1631 C 0.11545 0.13345 0.43344 0.0
C1632 C 0.12926 0.13897 0.43159 0.0
C1633 C 0.13699 0.13089 0.4418 0.0
C1634 C 0.12854 0.12209 0.44862 0.0
C1635 C 0.12901 0.15405 0.43503 0.0
C1636 C 0.13377 0.13585 0.41719 0.0
H1637 H 0.17106 0.10375 0.47673 0.0
H1638 H 0.12644 0.08835 0.49149 0.0
H1639 H 0.1274 0.08436 0.46008 0.0
H1640 H 0.11693 0.09491 0.45088 0.0
H1641 H 0.11139 0.08854 0.46679 0.0
H1642 H 0.12177 0.11911 0.48442 0.0
H1643 H 0.10996 0.10573 0.48319 0.0
H1644 H 0.1098 0.11937 0.4716 0.0
H1645 H 0.19436 0.13906 0.44942 0.0
H1646 H 0.17429 0.16523 0.42184 0.0
H1647 H 0.15358 0.15372 0.42558 0.0
H1648 H 0.17065 0.14114 0.47157 0.0
H1649 H 0.18511 0.13064 0.47234 0.0
H1650 H 0.1693 0.12526 0.4788 0.0
H1651 H 0.17998 0.11193 0.44155 0.0
H1652 H 0.17425 0.1032 0.45559 0.0
H1653 H 0.18924 0.11307 0.4568 0.0
H1654 H 0.16924 0.08948 0.49599 0.0
C1655 C 0.16126 0.10062 0.47962 0.0
C1656 C 0.12227 0.84379 0.6889 0.0
C1657 C 0.11377 0.84183 0.67793 0.0
C1658 C 0.10873 0.85304 0.67112 0.0
C1659 C 0.11982 0.86775 0.68672 0.0
C1660 C 0.12518 0.85678 0.69307 0.0
C1661 C 0.1337 0.86059 0.70479 0.0
H1662 H 0.15904 0.90872 0.7446 0.0
C1663 C 0.12424 0.87977 0.69397 0.0
C1664 C 0.13251 0.87566 0.70446 0.0
H1665 H 0.16321 0.86606 0.74859 0.0
H1666 H 0.15039 0.86277 0.72851 0.0
H1667 H 0.16202 0.91049 0.7118 0.0
H1668 H 0.12873 0.90756 0.73867 0.0
H1669 H 0.12387 0.9183 0.72581 0.0
H1670 H 0.13769 0.92284 0.73634 0.0
H1671 H 0.15701 0.92385 0.72258 0.0
H1672 H 0.14966 0.92166 0.70633 0.0
C1673 C 0.14812 0.85591 0.70195 0.0
C1674 C 0.12739 0.85456 0.71755 0.0
C1675 C 0.105 0.92487 0.68174 0.0
C1676 C 0.10689 0.93778 0.68681 0.0
C1677 C 0.11645 0.93977 0.6969 0.0
C1678 C 0.12385 0.92907 0.70199 0.0
C1679 C 0.12166 0.91619 0.69696 0.0
C1680 C 0.11262 0.91433 0.68676 0.0
C1681 C 0.11177 0.9 0.68246 0.0
C1682 C 0.12119 0.89347 0.6923 0.0
C1683 C 0.12697 0.90299 0.70076 0.0
C1684 C 0.11712 0.899 0.66802 0.0
C1685 C 0.09719 0.89523 0.68425 0.0
C1686 C 0.15739 0.89869 0.741 0.0
C1687 C 0.16223 0.88763 0.74808 0.0
C1688 C 0.15958 0.87472 0.74328 0.0
C1689 C 0.15212 0.87284 0.73162 0.0
C1690 C 0.14705 0.88398 0.72482 0.0
C1691 C 0.14969 0.89664 0.72954 0.0
C1692 C 0.14267 0.90724 0.72162 0.0
C1693 C 0.13557 0.89887 0.71121 0.0
C1694 C 0.13825 0.88528 0.7131 0.0
C1695 C 0.15332 0.91641 0.71528 0.0
C1696 C 0.13277 0.91449 0.73102 0.0
H1697 H 0.10737 0.87406 0.67 0.0
H1698 H 0.12636 0.83541 0.69432 0.0
H1699 H 0.11638 0.85381 0.7166 0.0
H1700 H 0.12897 0.86081 0.72647 0.0
H1701 H 0.13128 0.84439 0.71951 0.0
H1702 H 0.15077 0.85762 0.69133 0.0
H1703 H 0.14925 0.8451 0.704 0.0
H1704 H 0.15566 0.86144 0.70772 0.0
H1705 H 0.09731 0.92279 0.67454 0.0
H1706 H 0.11809 0.94961 0.70101 0.0
H1707 H 0.13084 0.93121 0.70978 0.0
H1708 H 0.12511 0.90646 0.66619 0.0
H1709 H 0.10912 0.90083 0.66065 0.0
H1710 H 0.12184 0.88929 0.66587 0.0
H1711 H 0.09271 0.89962 0.69339 0.0
H1712 H 0.0963 0.88437 0.68561 0.0
H1713 H 0.09093 0.89825 0.67564 0.0
H1714 H 0.10218 0.85185 0.66264 0.0
C1715 C 0.11172 0.86597 0.67545 0.0
C1716 C 0.40314 0.87613 0.93855 0.0
C1717 C 0.4056 0.86723 0.92803 0.0
C1718 C 0.39472 0.86112 0.92156 0.0
C1719 C 0.37939 0.87204 0.93668 0.0
C1720 C 0.39002 0.87842 0.94265 0.0
C1721 C 0.38576 0.88723 0.95398 0.0
H1722 H 0.3366 0.9111 0.99332 0.0
C1723 C 0.36715 0.87611 0.94375 0.0
C1724 C 0.3708 0.88516 0.95377 0.0
H1725 H 0.37899 0.91765 0.99686 0.0
H1726 H 0.38282 0.90463 0.977 0.0
H1727 H 0.33435 0.9134 0.96088 0.0
H1728 H 0.33954 0.88042 0.98779 0.0
H1729 H 0.32816 0.87536 0.97555 0.0
H1730 H 0.32404 0.88918 0.98621 0.0
H1731 H 0.32106 0.90724 0.97112 0.0
H1732 H 0.32448 0.90023 0.95491 0.0
C1733 C 0.38958 0.90175 0.95046 0.0
C1734 C 0.3922 0.88188 0.96698 0.0
C1735 C 0.32307 0.8537 0.93302 0.0
C1736 C 0.31003 0.85552 0.93779 0.0
C1737 C 0.30758 0.8657 0.94714 0.0
C1738 C 0.31794 0.87382 0.95178 0.0
C1739 C 0.33095 0.87171 0.94709 0.0
C1740 C 0.33328 0.86202 0.9376 0.0
C1741 C 0.34766 0.86157 0.93336 0.0
C1742 C 0.35363 0.8722 0.94232 0.0
C1743 C 0.34383 0.87796 0.95047 0.0
C1744 C 0.34848 0.86543 0.91841 0.0
C1745 C 0.35322 0.84755 0.93656 0.0
C1746 C 0.34668 0.90992 0.98966 0.0
C1747 C 0.35752 0.91547 0.99656 0.0
C1748 C 0.37051 0.91345 0.99169 0.0
C1749 C 0.3727 0.90587 0.98017 0.0
C1750 C 0.3618 0.90001 0.97359 0.0
C1751 C 0.34906 0.90209 0.97836 0.0
C1752 C 0.33881 0.89426 0.97071 0.0
C1753 C 0.34749 0.88728 0.96048 0.0
C1754 C 0.36092 0.89076 0.96218 0.0
C1755 C 0.32905 0.90421 0.96409 0.0
C1756 C 0.33216 0.88432 0.98049 0.0
H1757 H 0.37381 0.85833 0.92071 0.0
H1758 H 0.41126 0.88102 0.94371 0.0
H1759 H 0.39394 0.87095 0.96642 0.0
H1760 H 0.38573 0.88317 0.9758 0.0
H1761 H 0.40196 0.88671 0.96891 0.0
H1762 H 0.38755 0.90384 0.93976 0.0
H1763 H 0.40034 0.90357 0.95227 0.0
H1764 H 0.38372 0.90921 0.95601 0.0
H1765 H 0.32548 0.84566 0.92632 0.0
H1766 H 0.29763 0.86733 0.95098 0.0
H1767 H 0.31544 0.88131 0.95897 0.0
H1768 H 0.33988 0.87171 0.91534 0.0
H1769 H 0.34853 0.85647 0.91193 0.0
H1770 H 0.35735 0.87157 0.91614 0.0
H1771 H 0.34995 0.84428 0.94664 0.0
H1772 H 0.36419 0.84718 0.93674 0.0
H1773 H 0.3496 0.84008 0.92923 0.0
H1774 H 0.39633 0.85419 0.91345 0.0
C1775 C 0.38164 0.86348 0.92583 0.0
C1776 C 0.38678 0.93492 0.30652 0.0
C1777 C 0.39752 0.93501 0.31552 0.0
C1778 C 0.40144 0.92296 0.32154 0.0
C1779 C 0.38384 0.91116 0.30999 0.0
C1780 C 0.38017 0.92292 0.30384 0.0
C1781 C 0.36923 0.92088 0.2938 0.0
H1782 H 0.33276 0.87798 0.25693 0.0
C1783 C 0.37544 0.90038 0.30456 0.0
C1784 C 0.3669 0.90597 0.29501 0.0
H1785 H 0.33368 0.92096 0.25437 0.0
H1786 H 0.34775 0.92198 0.27384 0.0
H1787 H 0.36345 0.87316 0.26397 0.0
H1788 H 0.32862 0.87752 0.28849 0.0
H1789 H 0.3392 0.86658 0.2971 0.0
H1790 H 0.33281 0.86189 0.28093 0.0
H1791 H 0.35009 0.86127 0.26455 0.0
H1792 H 0.36366 0.86058 0.2762 0.0
C1793 C 0.37476 0.9248 0.27993 0.0
C1794 C 0.35691 0.929 0.29828 0.0
C1795 C 0.38234 0.85281 0.32038 0.0
C1796 C 0.37672 0.84057 0.31649 0.0
C1797 C 0.36644 0.84052 0.30694 0.0
C1798 C 0.36209 0.8524 0.30106 0.0
C1799 C 0.36815 0.86449 0.30468 0.0
C1800 C 0.37794 0.86458 0.31435 0.0
C1801 C 0.38342 0.87831 0.31678 0.0
C1802 C 0.37511 0.88647 0.30711 0.0
C1803 C 0.36631 0.8783 0.29997 0.0
C1804 C 0.39843 0.87832 0.31303 0.0
C1805 C 0.38053 0.88212 0.33144 0.0
C1806 C 0.33599 0.8876 0.26058 0.0
C1807 C 0.33233 0.89938 0.25397 0.0
C1808 C 0.33644 0.91173 0.25924 0.0
C1809 C 0.3447 0.9123 0.27048 0.0
C1810 C 0.34888 0.90041 0.27655 0.0
C1811 C 0.34412 0.88836 0.2719 0.0
C1812 C 0.349 0.8768 0.28007 0.0
C1813 C 0.35801 0.88385 0.28996 0.0
C1814 C 0.35807 0.89765 0.28771 0.0
C1815 C 0.35692 0.86735 0.27078 0.0
C1816 C 0.33684 0.87024 0.28698 0.0
H1817 H 0.39806 0.90228 0.32387 0.0
H1818 H 0.38371 0.94395 0.30149 0.0
H1819 H 0.35623 0.92942 0.30934 0.0
H1820 H 0.34742 0.92445 0.29506 0.0
H1821 H 0.35741 0.93941 0.29456 0.0
H1822 H 0.3852 0.92128 0.27874 0.0
H1823 H 0.37474 0.93579 0.27862 0.0
H1824 H 0.36927 0.92026 0.27158 0.0
H1825 H 0.39031 0.85322 0.32764 0.0
H1826 H 0.3619 0.83124 0.3038 0.0
H1827 H 0.35439 0.85168 0.2937 0.0
H1828 H 0.40078 0.87043 0.30561 0.0
H1829 H 0.40479 0.87652 0.32191 0.0
H1830 H 0.40158 0.88768 0.30815 0.0
H1831 H 0.37024 0.87914 0.33428 0.0
H1832 H 0.38108 0.89294 0.33327 0.0
H1833 H 0.38754 0.877 0.33831 0.0
H1834 H 0.41019 0.9225 0.32776 0.0
C1835 C 0.39455 0.9111 0.31898 0.0
C1836 C 0.40294 0.123 0.56069 0.0
C1837 C 0.40543 0.13187 0.57123 0.0
C1838 C 0.39458 0.13798 0.57773 0.0
C1839 C 0.3792 0.12715 0.56259 0.0
C1840 C 0.38981 0.12076 0.55659 0.0
C1841 C 0.38551 0.112 0.54524 0.0
H1842 H 0.33622 0.08836 0.50591 0.0
C1843 C 0.36694 0.12315 0.55552 0.0
C1844 C 0.37056 0.11412 0.54546 0.0
H1845 H 0.37859 0.0817 0.50228 0.0
H1846 H 0.38249 0.09467 0.52216 0.0
H1847 H 0.33402 0.08602 0.53836 0.0
H1848 H 0.33926 0.11899 0.51146 0.0
H1849 H 0.32796 0.12411 0.52374 0.0
H1850 H 0.32372 0.11032 0.51309 0.0
H1851 H 0.32074 0.09221 0.52812 0.0
H1852 H 0.32418 0.0992 0.54434 0.0
C1853 C 0.38928 0.09746 0.54871 0.0
C1854 C 0.39195 0.11737 0.53225 0.0
C1855 C 0.32294 0.14566 0.56635 0.0
C1856 C 0.3099 0.1439 0.56157 0.0
C1857 C 0.30741 0.13376 0.55218 0.0
C1858 C 0.31774 0.12562 0.54752 0.0
C1859 C 0.33076 0.12767 0.55222 0.0
C1860 C 0.33313 0.13732 0.56174 0.0
C1861 C 0.34751 0.13771 0.56597 0.0
C1862 C 0.35344 0.12709 0.55697 0.0
C1863 C 0.34361 0.12139 0.54881 0.0
C1864 C 0.34833 0.1338 0.5809 0.0
C1865 C 0.35311 0.15173 0.5628 0.0
C1866 C 0.34631 0.08951 0.50955 0.0
C1867 C 0.35712 0.08394 0.50262 0.0
C1868 C 0.37012 0.08592 0.50748 0.0
C1869 C 0.37236 0.09347 0.519 0.0
C1870 C 0.36149 0.09934 0.52561 0.0
C1871 C 0.34873 0.09732 0.52086 0.0
C1872 C 0.33852 0.10515 0.52854 0.0
C1873 C 0.34723 0.11209 0.53877 0.0
C1874 C 0.36065 0.10857 0.53705 0.0
C1875 C 0.32874 0.09522 0.53515 0.0
C1876 C 0.33189 0.11514 0.51879 0.0
H1877 H 0.37368 0.14083 0.57861 0.0
H1878 H 0.41104 0.11811 0.5555 0.0
H1879 H 0.39372 0.1283 0.53284 0.0
H1880 H 0.38547 0.11613 0.52343 0.0
H1881 H 0.4017 0.11252 0.5303 0.0
H1882 H 0.38726 0.09534 0.5594 0.0
H1883 H 0.40004 0.09561 0.5469 0.0
H1884 H 0.38341 0.09003 0.54313 0.0
H1885 H 0.32538 0.15367 0.57307 0.0
H1886 H 0.29745 0.13218 0.54834 0.0
H1887 H 0.31522 0.11816 0.5403 0.0
H1888 H 0.33971 0.12755 0.58396 0.0
H1889 H 0.34842 0.14275 0.58741 0.0
H1890 H 0.35718 0.12762 0.58314 0.0
H1891 H 0.34985 0.15504 0.55274 0.0
H1892 H 0.36409 0.15207 0.56262 0.0
H1893 H 0.34952 0.15918 0.57016 0.0
H1894 H 0.39622 0.14488 0.58586 0.0
C1895 C 0.38149 0.13567 0.57347 0.0
C1896 C 0.12221 0.15528 0.81044 0.0
C1897 C 0.11372 0.15723 0.82141 0.0
C1898 C 0.10867 0.14602 0.82821 0.0
C1899 C 0.11976 0.13132 0.81261 0.0
C1900 C 0.12512 0.14229 0.80627 0.0
C1901 C 0.13364 0.13848 0.79454 0.0
H1902 H 0.159 0.09037 0.75472 0.0
C1903 C 0.12418 0.1193 0.80536 0.0
C1904 C 0.13245 0.12342 0.79487 0.0
H1905 H 0.16315 0.13304 0.75074 0.0
H1906 H 0.15032 0.13632 0.77082 0.0
H1907 H 0.16197 0.0886 0.78752 0.0
H1908 H 0.12868 0.09152 0.76066 0.0
H1909 H 0.12383 0.08077 0.77352 0.0
H1910 H 0.13765 0.07625 0.76298 0.0
H1911 H 0.15697 0.07524 0.77674 0.0
H1912 H 0.14962 0.07743 0.793 0.0
C1913 C 0.14805 0.14317 0.79738 0.0
C1914 C 0.12733 0.14452 0.78179 0.0
C1915 C 0.10495 0.07419 0.81757 0.0
C1916 C 0.10685 0.06128 0.81251 0.0
C1917 C 0.11642 0.0593 0.80242 0.0
C1918 C 0.12381 0.07 0.79733 0.0
C1919 C 0.12161 0.08288 0.80236 0.0
C1920 C 0.11257 0.08474 0.81256 0.0
C1921 C 0.11171 0.09906 0.81685 0.0
C1922 C 0.12114 0.1056 0.80702 0.0
C1923 C 0.12692 0.09608 0.79856 0.0
C1924 C 0.11706 0.10007 0.8313 0.0
C1925 C 0.09713 0.10383 0.81507 0.0
C1926 C 0.15733 0.10041 0.75833 0.0
C1927 C 0.16218 0.11147 0.75125 0.0
C1928 C 0.15952 0.12437 0.75605 0.0
C1929 C 0.15206 0.12625 0.7677 0.0
C1930 C 0.14699 0.1151 0.7745 0.0
C1931 C 0.14964 0.10245 0.76978 0.0
C1932 C 0.14262 0.09184 0.77771 0.0
C1933 C 0.13552 0.1002 0.78811 0.0
C1934 C 0.13819 0.1138 0.78623 0.0
C1935 C 0.15327 0.08268 0.78405 0.0
C1936 C 0.13272 0.08459 0.76831 0.0
H1937 H 0.10731 0.125 0.82933 0.0
H1938 H 0.1263 0.16366 0.80502 0.0
H1939 H 0.11631 0.14527 0.78273 0.0
H1940 H 0.1289 0.13827 0.77286 0.0
H1941 H 0.13121 0.15469 0.77982 0.0
H1942 H 0.15071 0.14145 0.808 0.0
H1943 H 0.14918 0.15398 0.79534 0.0
H1944 H 0.1556 0.13764 0.79161 0.0
H1945 H 0.09726 0.07627 0.82477 0.0
H1946 H 0.11806 0.04945 0.79831 0.0
H1947 H 0.13081 0.06787 0.78954 0.0
H1948 H 0.12505 0.0926 0.83314 0.0
H1949 H 0.10905 0.09824 0.83867 0.0
H1950 H 0.12179 0.10978 0.83345 0.0
H1951 H 0.09267 0.09944 0.80592 0.0
H1952 H 0.09624 0.11469 0.81371 0.0
H1953 H 0.09087 0.10079 0.82367 0.0
H1954 H 0.10213 0.1472 0.8367 0.0
C1955 C 0.11166 0.13309 0.82388 0.0
C1956 C 0.13624 0.9071 0.01111 0.0
C1957 C 0.14766 0.9109 0.00398 0.0
C1958 C 0.16027 0.90677 0.00857 0.0
C1959 C 0.14986 0.89411 0.02629 0.0
C1960 C 0.13758 0.89885 0.02228 0.0
C1961 C 0.12646 0.89386 0.03098 0.0
H1962 H 0.10541 0.85257 0.07977 0.0
C1963 C 0.1477 0.88485 0.03753 0.0
C1964 C 0.13403 0.88483 0.04046 0.0
H1965 H 0.08227 0.88087 0.05691 0.0
H1966 H 0.10214 0.88831 0.04574 0.0
H1967 H 0.12163 0.84193 0.05719 0.0
H1968 H 0.13184 0.87302 0.0848 0.0
H1969 H 0.14534 0.86185 0.08345 0.0
H1970 H 0.12949 0.85586 0.08928 0.0
H1971 H 0.12864 0.83822 0.07319 0.0
H1972 H 0.13901 0.8413 0.0588 0.0
C1973 C 0.11661 0.88594 0.02212 0.0
C1974 C 0.1202 0.90596 0.03827 0.0
C1975 C 0.18617 0.85682 0.05483 0.0
C1976 C 0.18686 0.8464 0.06414 0.0
C1977 C 0.17514 0.84222 0.07061 0.0
C1978 C 0.16301 0.84869 0.06831 0.0
C1979 C 0.16249 0.85925 0.05916 0.0
C1980 C 0.17391 0.86306 0.05248 0.0
C1981 C 0.17128 0.87393 0.0425 0.0
C1982 C 0.15642 0.87607 0.04439 0.0
C1983 C 0.15136 0.86749 0.05421 0.0
C1984 C 0.17462 0.86838 0.02849 0.0
C1985 C 0.17945 0.88637 0.04656 0.0
C1986 C 0.10464 0.8605 0.07249 0.0
C1987 C 0.09222 0.86611 0.0692 0.0
C1988 C 0.09169 0.87635 0.0596 0.0
C1989 C 0.10325 0.88065 0.0531 0.0
C1990 C 0.1155 0.87463 0.05614 0.0
C1991 C 0.1161 0.86489 0.06585 0.0
C1992 C 0.12998 0.85952 0.06765 0.0
C1993 C 0.1376 0.86775 0.05748 0.0
C1994 C 0.12904 0.87649 0.05072 0.0
C1995 C 0.12989 0.84445 0.06413 0.0
C1996 C 0.13447 0.86262 0.08206 0.0
H1997 H 0.17127 0.89534 0.02251 0.0
H1998 H 0.12644 0.91034 0.00797 0.0
H1999 H 0.12748 0.91424 0.0394 0.0
H2000 H 0.11714 0.90356 0.04859 0.0
H2001 H 0.1115 0.90993 0.03272 0.0
H2002 H 0.12211 0.87952 0.01496 0.0
H2003 H 0.11017 0.89278 0.01627 0.0
H2004 H 0.11019 0.8791 0.02782 0.0
H2005 H 0.19498 0.86004 0.04949 0.0
H2006 H 0.17527 0.83367 0.07716 0.0
H2007 H 0.15447 0.84505 0.07359 0.0
H2008 H 0.17112 0.85791 0.02749 0.0
H2009 H 0.18554 0.86846 0.0267 0.0
H2010 H 0.16968 0.87382 0.02034 0.0
H2011 H 0.1805 0.88704 0.05757 0.0
H2012 H 0.17456 0.8958 0.04363 0.0
H2013 H 0.18963 0.88606 0.04224 0.0
H2014 H 0.16923 0.90964 0.00329 0.0
C2015 C 0.16143 0.89839 0.01967 0.0
C2016 C 0.23496 0.33617 0.10485 0.0
C2017 C 0.24118 0.33231 0.09293 0.0
C2018 C 0.23615 0.33708 0.08072 0.0
C2019 C 0.21971 0.3503 0.09247 0.0
C2020 C 0.22415 0.34498 0.10437 0.0
C2021 C 0.21615 0.3498 0.11607 0.0
H2022 H 0.16925 0.39127 0.14076 0.0
C2023 C 0.20891 0.35983 0.0955 0.0
C2024 C 0.20661 0.35938 0.10929 0.0
H2025 H 0.19247 0.36177 0.16194 0.0
H2026 H 0.20273 0.3549 0.14135 0.0
H2027 H 0.1918 0.402 0.12411 0.0
H2028 H 0.16257 0.37239 0.11417 0.0
H2029 H 0.16396 0.38355 0.10068 0.0
H2030 H 0.15888 0.38971 0.11674 0.0
H2031 H 0.1756 0.40655 0.11815 0.0
H2032 H 0.1893 0.40353 0.10689 0.0
C2033 C 0.22569 0.35709 0.12576 0.0
C2034 C 0.20879 0.3377 0.12225 0.0
C2035 C 0.19131 0.39054 0.0592 0.0
C2036 C 0.18244 0.40137 0.05943 0.0
C2037 C 0.17629 0.40487 0.07155 0.0
C2038 C 0.17863 0.39752 0.08317 0.0
C2039 C 0.1875 0.38671 0.08279 0.0
C2040 C 0.19372 0.3834 0.07097 0.0
C2041 C 0.20337 0.37204 0.07265 0.0
C2042 C 0.20194 0.36916 0.08745 0.0
C2043 C 0.19257 0.37775 0.09329 0.0
C2044 C 0.21745 0.37722 0.06908 0.0
C2045 C 0.19856 0.36021 0.06399 0.0
C2046 C 0.17641 0.3832 0.14096 0.0
C2047 C 0.18005 0.37706 0.15302 0.0
C2048 C 0.1895 0.36668 0.1528 0.0
C2049 C 0.19547 0.36271 0.14083 0.0
C2050 C 0.19203 0.36922 0.12892 0.0
C2051 C 0.18253 0.37917 0.12909 0.0
C2052 C 0.18033 0.38517 0.11554 0.0
C2053 C 0.18992 0.37699 0.10717 0.0
C2054 C 0.19681 0.36777 0.11508 0.0
C2055 C 0.18435 0.4001 0.11612 0.0
C2056 C 0.16566 0.3827 0.11151 0.0
H2057 H 0.22226 0.34957 0.07086 0.0
H2058 H 0.23843 0.33242 0.11435 0.0
H2059 H 0.20701 0.32975 0.11473 0.0
H2060 H 0.19874 0.34029 0.12595 0.0
H2061 H 0.21466 0.33321 0.13049 0.0
H2062 H 0.23274 0.36355 0.12015 0.0
H2063 H 0.23167 0.34986 0.13162 0.0
H2064 H 0.2205 0.3638 0.13273 0.0
H2065 H 0.19637 0.38775 0.05009 0.0
H2066 H 0.17009 0.41364 0.07224 0.0
H2067 H 0.17366 0.40073 0.09205 0.0
H2068 H 0.21914 0.38725 0.07348 0.0
H2069 H 0.21867 0.37809 0.05811 0.0
H2070 H 0.22554 0.37093 0.07299 0.0
H2071 H 0.18752 0.36016 0.06305 0.0
H2072 H 0.20103 0.35044 0.06843 0.0
H2073 H 0.20278 0.36074 0.05378 0.0
H2074 H 0.24074 0.33416 0.0714 0.0
C2075 C 0.22548 0.34609 0.08043 0.0
C2076 C 0.73525 0.16251 0.89361 0.0
C2077 C 0.74137 0.16651 0.90554 0.0
C2078 C 0.73628 0.16184 0.91775 0.0
C2079 C 0.71996 0.14846 0.90602 0.0
C2080 C 0.72446 0.15367 0.8941 0.0
C2081 C 0.71654 0.14872 0.8824 0.0
H2082 H 0.66984 0.10694 0.85784 0.0
C2083 C 0.70921 0.13887 0.90301 0.0
C2084 C 0.70698 0.13918 0.8892 0.0
H2085 H 0.69311 0.13629 0.83651 0.0
H2086 H 0.70329 0.14334 0.85708 0.0
H2087 H 0.69234 0.09638 0.87469 0.0
H2088 H 0.66301 0.12602 0.88422 0.0
H2089 H 0.66435 0.11497 0.89781 0.0
H2090 H 0.65936 0.10868 0.88177 0.0
H2091 H 0.67612 0.09185 0.88062 0.0
H2092 H 0.68977 0.09501 0.8919 0.0
C2093 C 0.72616 0.14137 0.87284 0.0
C2094 C 0.70919 0.16074 0.87606 0.0
C2095 C 0.69146 0.10847 0.9395 0.0
C2096 C 0.68262 0.0976 0.93932 0.0
C2097 C 0.67657 0.09396 0.9272 0.0
C2098 C 0.67896 0.10121 0.91553 0.0
C2099 C 0.68779 0.11205 0.91585 0.0
C2100 C 0.69393 0.1155 0.92768 0.0
C2101 C 0.70355 0.12687 0.92595 0.0
C2102 C 0.70221 0.1296 0.91111 0.0
C2103 C 0.6929 0.12093 0.90529 0.0
C2104 C 0.71763 0.12176 0.92966 0.0
C2105 C 0.69866 0.13877 0.93446 0.0
C2106 C 0.67699 0.11501 0.8576 0.0
C2107 C 0.68067 0.12106 0.8455 0.0
C2108 C 0.69011 0.13144 0.84567 0.0
C2109 C 0.69603 0.13552 0.85764 0.0
C2110 C 0.69255 0.12911 0.86958 0.0
C2111 C 0.68305 0.11915 0.86945 0.0
C2112 C 0.6808 0.11327 0.88305 0.0
C2113 C 0.69033 0.12154 0.8914 0.0
C2114 C 0.69725 0.13071 0.88343 0.0
C2115 C 0.68485 0.09834 0.88262 0.0
C2116 C 0.6661 0.11574 0.88699 0.0
H2117 H 0.72236 0.14939 0.92764 0.0
H2118 H 0.73877 0.16619 0.88409 0.0
H2119 H 0.70734 0.16875 0.8835 0.0
H2120 H 0.69917 0.15808 0.87231 0.0
H2121 H 0.7151 0.16517 0.86781 0.0
H2122 H 0.73319 0.13498 0.87855 0.0
H2123 H 0.73216 0.14856 0.86694 0.0
H2124 H 0.72103 0.13458 0.86589 0.0
H2125 H 0.69646 0.11136 0.94862 0.0
H2126 H 0.6704 0.08517 0.92656 0.0
H2127 H 0.67405 0.09789 0.90664 0.0
H2128 H 0.71937 0.11169 0.92537 0.0
H2129 H 0.71879 0.121 0.94064 0.0
H2130 H 0.72573 0.12802 0.92573 0.0
H2131 H 0.68761 0.13879 0.93534 0.0
H2132 H 0.70112 0.1485 0.92993 0.0
H2133 H 0.70283 0.13835 0.9447 0.0
H2134 H 0.74081 0.16485 0.92708 0.0
C2135 C 0.72564 0.1528 0.91806 0.0
C2136 C 0.1371 0.44101 0.18376 0.0
C2137 C 0.14766 0.43181 0.18371 0.0
C2138 C 0.15146 0.4259 0.17156 0.0
C2139 C 0.13409 0.43797 0.15995 0.0
C2140 C 0.13054 0.44399 0.1718 0.0
C2141 C 0.11977 0.45425 0.16993 0.0
H2142 H 0.08379 0.49235 0.1277 0.0
C2143 C 0.12579 0.44371 0.14925 0.0
C2144 C 0.11742 0.45333 0.15501 0.0
H2145 H 0.08479 0.49415 0.17072 0.0
H2146 H 0.09865 0.47452 0.17139 0.0
H2147 H 0.11444 0.48498 0.12273 0.0
H2148 H 0.07927 0.46088 0.1267 0.0
H2149 H 0.08969 0.45235 0.11556 0.0
H2150 H 0.08352 0.4687 0.11122 0.0
H2151 H 0.10108 0.48478 0.11083 0.0
H2152 H 0.11448 0.47295 0.10995 0.0
C2153 C 0.12555 0.46796 0.17408 0.0
C2154 C 0.10738 0.44985 0.17799 0.0
C2155 C 0.13236 0.42852 0.10143 0.0
C2156 C 0.12682 0.43271 0.08925 0.0
C2157 C 0.11673 0.44247 0.08935 0.0
C2158 C 0.11251 0.44825 0.10133 0.0
C2159 C 0.11849 0.44431 0.11336 0.0
C2160 C 0.12808 0.43445 0.1133 0.0
C2161 C 0.13351 0.43171 0.12699 0.0
C2162 C 0.12541 0.4414 0.13531 0.0
C2163 C 0.11674 0.44884 0.12725 0.0
C2164 C 0.14859 0.43516 0.12704 0.0
C2165 C 0.13035 0.41705 0.13057 0.0
C2166 C 0.087 0.4885 0.13725 0.0
C2167 C 0.08342 0.49493 0.14916 0.0
C2168 C 0.0875 0.48942 0.16141 0.0
C2169 C 0.09563 0.47808 0.16178 0.0
C2170 C 0.09971 0.47216 0.14977 0.0
C2171 C 0.09501 0.47708 0.1378 0.0
C2172 C 0.09976 0.46904 0.1261 0.0
C2173 C 0.10862 0.45889 0.13297 0.0
C2174 C 0.10872 0.46091 0.14681 0.0
C2175 C 0.10782 0.47836 0.1168 0.0
C2176 C 0.08749 0.46243 0.11943 0.0
H2177 H 0.14804 0.42396 0.15084 0.0
H2178 H 0.13413 0.44595 0.19288 0.0
H2179 H 0.10653 0.43881 0.17828 0.0
H2180 H 0.09794 0.45327 0.17347 0.0
H2181 H 0.10792 0.45344 0.18845 0.0
H2182 H 0.136 0.46902 0.17057 0.0
H2183 H 0.12556 0.46909 0.18509 0.0
H2184 H 0.1202 0.47647 0.16968 0.0
H2185 H 0.14018 0.4211 0.10172 0.0
H2186 H 0.11227 0.44585 0.08013 0.0
H2187 H 0.10496 0.45578 0.10073 0.0
H2188 H 0.15109 0.44266 0.11927 0.0
H2189 H 0.15478 0.42619 0.1251 0.0
H2190 H 0.15185 0.43982 0.13648 0.0
H2191 H 0.12 0.41445 0.12756 0.0
H2192 H 0.13086 0.41504 0.14136 0.0
H2193 H 0.13722 0.41013 0.12534 0.0
H2194 H 0.16009 0.41952 0.171 0.0
C2195 C 0.14462 0.42877 0.15974 0.0
C2196 C 0.81453 0.87539 0.34707 0.0
C2197 C 0.82571 0.88353 0.34484 0.0
C2198 C 0.83223 0.88932 0.35585 0.0
C2199 C 0.8159 0.87975 0.37082 0.0
C2200 C 0.80985 0.87362 0.36008 0.0
C2201 C 0.79782 0.86567 0.36411 0.0
H2202 H 0.7555 0.84533 0.41243 0.0
C2203 C 0.80809 0.87651 0.38286 0.0
C2204 C 0.79758 0.86813 0.37903 0.0
H2205 H 0.75333 0.83743 0.37015 0.0
H2206 H 0.77377 0.84958 0.36667 0.0
H2207 H 0.78811 0.84186 0.41586 0.0
H2208 H 0.76217 0.87529 0.409 0.0
H2209 H 0.77471 0.88082 0.4198 0.0
H2210 H 0.7637 0.86765 0.42509 0.0
H2211 H 0.77693 0.8482 0.42829 0.0
H2212 H 0.79342 0.855 0.42618 0.0
C2213 C 0.80053 0.85086 0.36078 0.0
C2214 C 0.78545 0.87167 0.35705 0.0
C2215 C 0.81932 0.89882 0.42686 0.0
C2216 C 0.81378 0.89799 0.4397 0.0
C2217 C 0.80317 0.88905 0.44193 0.0
C2218 C 0.79813 0.88116 0.43158 0.0
C2219 C 0.80371 0.88219 0.41879 0.0
C2220 C 0.81432 0.8907 0.41667 0.0
C2221 C 0.81917 0.89028 0.4025 0.0
C2222 C 0.80928 0.88067 0.39633 0.0
C2223 C 0.80027 0.87593 0.40592 0.0
C2224 C 0.83344 0.88441 0.4025 0.0
C2225 C 0.81808 0.90449 0.39655 0.0
C2226 C 0.75958 0.84603 0.40246 0.0
C2227 C 0.75289 0.84033 0.39156 0.0
C2228 C 0.75832 0.84173 0.3787 0.0
C2229 C 0.77019 0.84881 0.37671 0.0
C2230 C 0.77659 0.85475 0.38766 0.0
C2231 C 0.77127 0.85331 0.40027 0.0
C2232 C 0.7789 0.86106 0.41058 0.0
C2233 C 0.7898 0.86722 0.4021 0.0
C2234 C 0.78843 0.86341 0.38871 0.0
C2235 C 0.78461 0.8511 0.42087 0.0
C2236 C 0.76945 0.87173 0.41656 0.0
H2237 H 0.83264 0.89237 0.37673 0.0
H2238 H 0.80932 0.87074 0.33885 0.0
H2239 H 0.78664 0.88258 0.35548 0.0
H2240 H 0.77624 0.87074 0.36301 0.0
H2241 H 0.78385 0.86703 0.34714 0.0
H2242 H 0.81105 0.8482 0.36303 0.0
H2243 H 0.79877 0.84881 0.35005 0.0
H2244 H 0.79449 0.84391 0.36678 0.0
H2245 H 0.82698 0.90598 0.42456 0.0
H2246 H 0.79871 0.8882 0.45172 0.0
H2247 H 0.78998 0.87465 0.43391 0.0
H2248 H 0.83464 0.87682 0.41049 0.0
H2249 H 0.84099 0.89228 0.40424 0.0
H2250 H 0.83588 0.87908 0.39318 0.0
H2251 H 0.80902 0.90964 0.40033 0.0
H2252 H 0.817 0.90454 0.38562 0.0
H2253 H 0.82685 0.91064 0.3993 0.0
H2254 H 0.84087 0.89562 0.35445 0.0
C2255 C 0.8274 0.88747 0.36881 0.0
C2256 C 0.87326 0.0633 0.09974 0.0
C2257 C 0.86463 0.07416 0.09779 0.0
C2258 C 0.85874 0.08027 0.10899 0.0
C2259 C 0.86916 0.0641 0.12356 0.0
C2260 C 0.87539 0.05849 0.11265 0.0
C2261 C 0.88381 0.04668 0.11637 0.0
H2262 H 0.90531 0.00351 0.16337 0.0
C2263 C 0.8728 0.05618 0.13543 0.0
C2264 C 0.88152 0.04607 0.1313 0.0
H2265 H 0.91326 0.00294 0.12105 0.0
H2266 H 0.90083 0.0233 0.11828 0.0
H2267 H 0.90824 0.03614 0.16786 0.0
H2268 H 0.8752 0.0099 0.16017 0.0
H2269 H 0.86968 0.02182 0.17166 0.0
H2270 H 0.88309 0.01077 0.17618 0.0
H2271 H 0.90209 0.02452 0.17998 0.0
H2272 H 0.895 0.04094 0.17829 0.0
C2273 C 0.89849 0.05 0.11296 0.0
C2274 C 0.87819 0.03424 0.10912 0.0
C2275 C 0.85005 0.06533 0.17964 0.0
C2276 C 0.85096 0.05941 0.1923 0.0
C2277 C 0.8604 0.04921 0.19434 0.0
C2278 C 0.86864 0.04487 0.18393 0.0
C2279 C 0.86742 0.05074 0.17128 0.0
C2280 C 0.85849 0.06103 0.1694 0.0
C2281 C 0.85869 0.06624 0.15535 0.0
C2282 C 0.86868 0.0569 0.14894 0.0
C2283 C 0.87379 0.04785 0.1583 0.0
C2284 C 0.86397 0.08073 0.15569 0.0
C2285 C 0.84453 0.0647 0.14938 0.0
C2286 C 0.90456 0.00792 0.15355 0.0
C2287 C 0.91033 0.00168 0.14242 0.0
C2288 C 0.90889 0.00757 0.12976 0.0
C2289 C 0.90165 0.01938 0.12818 0.0
C2290 C 0.89556 0.02528 0.13933 0.0
C2291 C 0.89711 0.01958 0.15176 0.0
C2292 C 0.88921 0.02673 0.16231 0.0
C2293 C 0.8828 0.03775 0.15418 0.0
C2294 C 0.8866 0.03686 0.14074 0.0
C2295 C 0.89906 0.03234 0.17277 0.0
C2296 C 0.87878 0.01687 0.16801 0.0
H2297 H 0.85596 0.08023 0.12991 0.0
H2298 H 0.878 0.05841 0.09138 0.0
H2299 H 0.86723 0.03506 0.10767 0.0
H2300 H 0.87951 0.02495 0.11486 0.0
H2301 H 0.88278 0.03301 0.09913 0.0
H2302 H 0.90076 0.0606 0.11528 0.0
H2303 H 0.90052 0.04841 0.1022 0.0
H2304 H 0.9057 0.04419 0.11887 0.0
H2305 H 0.84251 0.07265 0.17746 0.0
H2306 H 0.86129 0.04446 0.20399 0.0
H2307 H 0.87549 0.03696 0.18608 0.0
H2308 H 0.87156 0.08202 0.16366 0.0
H2309 H 0.85582 0.0879 0.15768 0.0
H2310 H 0.86913 0.08363 0.14641 0.0
H2311 H 0.83973 0.05538 0.15297 0.0
H2312 H 0.84449 0.06383 0.13843 0.0
H2313 H 0.83803 0.07317 0.1523 0.0
H2314 H 0.85207 0.08866 0.10781 0.0
C2315 C 0.86097 0.07531 0.12184 0.0
C2316 C 0.31431 0.62275 0.6519 0.0
C2317 C 0.32549 0.61456 0.65391 0.0
C2318 C 0.33193 0.60897 0.64275 0.0
C2319 C 0.3155 0.61883 0.62807 0.0
C2320 C 0.30954 0.62477 0.63896 0.0
C2321 C 0.29749 0.6328 0.63516 0.0
H2322 H 0.25486 0.65403 0.5875 0.0
C2323 C 0.30761 0.62228 0.61614 0.0
C2324 C 0.29714 0.6306 0.62021 0.0
H2325 H 0.25299 0.66121 0.62992 0.0
H2326 H 0.27345 0.64898 0.63305 0.0
H2327 H 0.28751 0.65747 0.5839 0.0
H2328 H 0.2614 0.62409 0.59034 0.0
H2329 H 0.27391 0.61859 0.5795 0.0
H2330 H 0.26299 0.63189 0.57434 0.0
H2331 H 0.27614 0.65143 0.57148 0.0
H2332 H 0.29261 0.6445 0.57327 0.0
C2333 C 0.30025 0.64755 0.63873 0.0
C2334 C 0.28517 0.62669 0.6422 0.0
C2335 C 0.31844 0.6007 0.57169 0.0
C2336 C 0.31277 0.60172 0.55892 0.0
C2337 C 0.30214 0.61068 0.55693 0.0
C2338 C 0.29721 0.61842 0.56745 0.0
C2339 C 0.30293 0.6172 0.58016 0.0
C2340 C 0.31355 0.60866 0.58205 0.0
C2341 C 0.31852 0.60885 0.59618 0.0
C2342 C 0.30868 0.61834 0.6026 0.0
C2343 C 0.2996 0.62325 0.59317 0.0
C2344 C 0.33279 0.61473 0.59617 0.0
C2345 C 0.31749 0.59454 0.6019 0.0
C2346 C 0.25901 0.65316 0.59742 0.0
C2347 C 0.25241 0.65867 0.60847 0.0
C2348 C 0.25792 0.65705 0.62127 0.0
C2349 C 0.26979 0.64993 0.62305 0.0
C2350 C 0.2761 0.64417 0.61196 0.0
C2351 C 0.2707 0.64583 0.59941 0.0
C2352 C 0.27823 0.63823 0.58892 0.0
C2353 C 0.28918 0.63191 0.59721 0.0
C2354 C 0.28792 0.63549 0.61067 0.0
C2355 C 0.28389 0.64835 0.57875 0.0
C2356 C 0.26871 0.62769 0.58283 0.0
H2357 H 0.3322 0.60631 0.62181 0.0
H2358 H 0.30916 0.62726 0.66024 0.0
H2359 H 0.28634 0.61576 0.64356 0.0
H2360 H 0.27591 0.62776 0.63634 0.0
H2361 H 0.28365 0.63115 0.65222 0.0
H2362 H 0.31076 0.65024 0.63645 0.0
H2363 H 0.29857 0.64941 0.64951 0.0
H2364 H 0.29417 0.65461 0.63289 0.0
H2365 H 0.32612 0.59349 0.5738 0.0
H2366 H 0.29758 0.61167 0.5472 0.0
H2367 H 0.28904 0.62496 0.56529 0.0
H2368 H 0.33389 0.62248 0.58832 0.0
H2369 H 0.34032 0.60692 0.5942 0.0
H2370 H 0.3353 0.61988 0.60556 0.0
H2371 H 0.30842 0.58943 0.5981 0.0
H2372 H 0.31648 0.59429 0.61284 0.0
H2373 H 0.32625 0.58844 0.59899 0.0
H2374 H 0.34058 0.60264 0.64398 0.0
C2375 C 0.32701 0.61106 0.62986 0.0
C2376 C 0.13769 0.55765 0.31511 0.0
C2377 C 0.14831 0.56678 0.31511 0.0
C2378 C 0.15214 0.57274 0.32722 0.0
C2379 C 0.13466 0.56089 0.33889 0.0
C2380 C 0.13109 0.55479 0.32708 0.0
C2381 C 0.12027 0.54461 0.32901 0.0
H2382 H 0.08404 0.50705 0.3715 0.0
C2383 C 0.12628 0.5553 0.34961 0.0
C2384 C 0.11787 0.54568 0.34392 0.0
H2385 H 0.08516 0.50481 0.32851 0.0
H2386 H 0.09905 0.52441 0.32768 0.0
H2387 H 0.11467 0.51441 0.37652 0.0
H2388 H 0.07954 0.53849 0.37217 0.0
H2389 H 0.08996 0.54721 0.38316 0.0
H2390 H 0.08379 0.53095 0.38778 0.0
H2391 H 0.10124 0.51474 0.38834 0.0
H2392 H 0.11465 0.52656 0.38919 0.0
C2393 C 0.12597 0.53084 0.325 0.0
C2394 C 0.10792 0.549 0.32088 0.0
C2395 C 0.13271 0.57094 0.39732 0.0
C2396 C 0.12706 0.56692 0.40951 0.0
C2397 C 0.11691 0.55723 0.40945 0.0
C2398 C 0.11272 0.55135 0.3975 0.0
C2399 C 0.11881 0.55512 0.38547 0.0
C2400 C 0.12847 0.56492 0.38549 0.0
C2401 C 0.13399 0.56748 0.3718 0.0
C2402 C 0.12586 0.55776 0.36353 0.0
C2403 C 0.11711 0.55046 0.37162 0.0
C2404 C 0.14905 0.56393 0.37186 0.0
C2405 C 0.13095 0.58213 0.36805 0.0
C2406 C 0.08728 0.5108 0.36192 0.0
C2407 C 0.08373 0.50424 0.35008 0.0
C2408 C 0.08785 0.50963 0.33778 0.0
C2409 C 0.096 0.52095 0.33732 0.0
C2410 C 0.10006 0.52698 0.34928 0.0
C2411 C 0.0953 0.52219 0.36128 0.0
C2412 C 0.10004 0.53035 0.37292 0.0
C2413 C 0.10896 0.54039 0.36597 0.0
C2414 C 0.1091 0.53823 0.35215 0.0
C2415 C 0.10802 0.5211 0.38235 0.0
C2416 C 0.08776 0.53707 0.37946 0.0
H2417 H 0.1487 0.57486 0.34792 0.0
H2418 H 0.13469 0.55266 0.30603 0.0
H2419 H 0.10711 0.56005 0.32053 0.0
H2420 H 0.09845 0.54564 0.32538 0.0
H2421 H 0.10849 0.54535 0.31045 0.0
H2422 H 0.13643 0.52976 0.32853 0.0
H2423 H 0.12599 0.5296 0.31401 0.0
H2424 H 0.12059 0.52239 0.32948 0.0
H2425 H 0.14059 0.57831 0.397 0.0
H2426 H 0.11236 0.55398 0.41868 0.0
H2427 H 0.10512 0.54388 0.39814 0.0
H2428 H 0.15145 0.5565 0.37973 0.0
H2429 H 0.15529 0.57287 0.37374 0.0
H2430 H 0.15232 0.55915 0.36249 0.0
H2431 H 0.12059 0.58481 0.37095 0.0
H2432 H 0.13157 0.58402 0.35724 0.0
H2433 H 0.13782 0.58905 0.37328 0.0
H2434 H 0.16082 0.57906 0.32775 0.0
C2435 C 0.14526 0.57001 0.33905 0.0
C2436 C 0.37375 0.43514 0.90059 0.0
C2437 C 0.36536 0.42411 0.90263 0.0
C2438 C 0.35994 0.41751 0.89147 0.0
C2439 C 0.37035 0.43351 0.8767 0.0
C2440 C 0.37612 0.43962 0.8876 0.0
C2441 C 0.38436 0.45151 0.88374 0.0
H2442 H 0.40625 0.49367 0.83599 0.0
C2443 C 0.37414 0.44115 0.86469 0.0
C2444 C 0.38248 0.45161 0.86874 0.0
H2445 H 0.41304 0.49572 0.87847 0.0
H2446 H 0.4009 0.47522 0.88156 0.0
H2447 H 0.41002 0.46105 0.83264 0.0
H2448 H 0.37613 0.48666 0.83857 0.0
H2449 H 0.37127 0.47428 0.82728 0.0
H2450 H 0.38453 0.48553 0.82284 0.0
H2451 H 0.40392 0.4721 0.81998 0.0
H2452 H 0.39719 0.45557 0.82203 0.0
C2453 C 0.399 0.44867 0.88767 0.0
C2454 C 0.37823 0.46402 0.89044 0.0
C2455 C 0.353 0.42998 0.82015 0.0
C2456 C 0.35416 0.43549 0.80733 0.0
C2457 C 0.36336 0.44589 0.80524 0.0
C2458 C 0.37114 0.45081 0.81575 0.0
C2459 C 0.36969 0.44532 0.82855 0.0
C2460 C 0.36098 0.43485 0.83049 0.0
C2461 C 0.36088 0.43011 0.84471 0.0
C2462 C 0.37044 0.4399 0.8511 0.0
C2463 C 0.37559 0.44879 0.8416 0.0
C2464 C 0.36653 0.41575 0.84501 0.0
C2465 C 0.34651 0.43147 0.8502 0.0
C2466 C 0.40531 0.48956 0.84592 0.0
C2467 C 0.41067 0.49625 0.857 0.0
C2468 C 0.40899 0.49074 0.8698 0.0
C2469 C 0.40192 0.47884 0.87156 0.0
C2470 C 0.39626 0.47248 0.86045 0.0
C2471 C 0.39804 0.47782 0.84788 0.0
C2472 C 0.39062 0.47014 0.83735 0.0
C2473 C 0.38422 0.45924 0.84566 0.0
C2474 C 0.38761 0.46065 0.85916 0.0
C2475 C 0.40089 0.46445 0.82737 0.0
C2476 C 0.38013 0.47957 0.83105 0.0
H2477 H 0.35776 0.41685 0.87049 0.0
H2478 H 0.37813 0.4404 0.90892 0.0
H2479 H 0.36724 0.463 0.89152 0.0
H2480 H 0.37956 0.47317 0.88448 0.0
H2481 H 0.38244 0.46563 0.90054 0.0
H2482 H 0.40159 0.43806 0.8858 0.0
H2483 H 0.4007 0.45069 0.89842 0.0
H2484 H 0.40625 0.45444 0.88175 0.0
H2485 H 0.34559 0.42252 0.82234 0.0
H2486 H 0.36443 0.45034 0.79546 0.0
H2487 H 0.37784 0.45884 0.81354 0.0
H2488 H 0.37434 0.41438 0.83726 0.0
H2489 H 0.35861 0.4083 0.84309 0.0
H2490 H 0.37153 0.41332 0.8545 0.0
H2491 H 0.34162 0.44057 0.8462 0.0
H2492 H 0.34612 0.43264 0.86112 0.0
H2493 H 0.34031 0.42277 0.84732 0.0
H2494 H 0.35347 0.40898 0.89272 0.0
C2495 C 0.3624 0.42214 0.87853 0.0
C2496 C 0.90944 0.76543 0.65447 0.0
C2497 C 0.92305 0.76261 0.65634 0.0
C2498 C 0.93261 0.77184 0.65182 0.0
C2499 C 0.91512 0.78626 0.6436 0.0
C2500 C 0.90572 0.7773 0.64814 0.0
C2501 C 0.89172 0.78186 0.64526 0.0
H2502 H 0.8508 0.82763 0.61735 0.0
C2503 C 0.90804 0.79758 0.63746 0.0
C2504 C 0.89431 0.79517 0.63853 0.0
H2505 H 0.83995 0.78987 0.63501 0.0
H2506 H 0.86294 0.78603 0.64112 0.0
H2507 H 0.87315 0.83634 0.6403 0.0
H2508 H 0.87427 0.81736 0.60195 0.0
H2509 H 0.88856 0.82732 0.6028 0.0
H2510 H 0.87242 0.83503 0.60375 0.0
H2511 H 0.87027 0.84507 0.62498 0.0
H2512 H 0.88685 0.84296 0.63162 0.0
C2513 C 0.88432 0.78358 0.65868 0.0
C2514 C 0.88521 0.77168 0.63565 0.0
C2515 C 0.93424 0.83317 0.61297 0.0
C2516 C 0.93034 0.84458 0.60586 0.0
C2517 C 0.91698 0.84884 0.60658 0.0
C2518 C 0.90745 0.84131 0.61345 0.0
C2519 C 0.91133 0.82942 0.61972 0.0
C2520 C 0.92461 0.82582 0.61989 0.0
C2521 C 0.92693 0.81308 0.62742 0.0
C2522 C 0.91275 0.80926 0.63106 0.0
C2523 C 0.90366 0.81876 0.62636 0.0
C2524 C 0.93545 0.81631 0.6399 0.0
C2525 C 0.93334 0.80287 0.61777 0.0
C2526 C 0.85329 0.81863 0.62275 0.0
C2527 C 0.84352 0.80904 0.62571 0.0
C2528 C 0.84729 0.79739 0.63258 0.0
C2529 C 0.86066 0.79516 0.63606 0.0
C2530 C 0.87038 0.8046 0.63248 0.0
C2531 C 0.86658 0.81617 0.62607 0.0
C2532 C 0.87827 0.82476 0.62235 0.0
C2533 C 0.88975 0.81637 0.62742 0.0
C2534 C 0.8851 0.80462 0.63344 0.0
C2535 C 0.87712 0.83805 0.63009 0.0
C2536 C 0.87844 0.82633 0.60695 0.0
H2537 H 0.93648 0.79021 0.64225 0.0
H2538 H 0.90183 0.75856 0.65783 0.0
H2539 H 0.89275 0.76719 0.62888 0.0
H2540 H 0.87783 0.77626 0.62891 0.0
H2541 H 0.8804 0.76342 0.64124 0.0
H2542 H 0.89095 0.78826 0.66622 0.0
H2543 H 0.88104 0.7738 0.66268 0.0
H2544 H 0.8756 0.79023 0.65795 0.0
H2545 H 0.94446 0.82974 0.61271 0.0
H2546 H 0.9137 0.85758 0.60116 0.0
H2547 H 0.89734 0.84475 0.61316 0.0
H2548 H 0.93422 0.82686 0.64307 0.0
H2549 H 0.94621 0.81467 0.63796 0.0
H2550 H 0.93242 0.81042 0.64872 0.0
H2551 H 0.92846 0.80332 0.60782 0.0
H2552 H 0.93222 0.79246 0.62108 0.0
H2553 H 0.9441 0.80497 0.61635 0.0
H2554 H 0.94314 0.76995 0.65315 0.0
C2555 C 0.92872 0.78364 0.64551 0.0
C2556 C 0.9215 0.18194 0.33197 0.0
C2557 C 0.92376 0.19576 0.33306 0.0
C2558 C 0.93281 0.20044 0.3427 0.0
C2559 C 0.93736 0.17789 0.34983 0.0
C2560 C 0.92842 0.17319 0.34046 0.0
C2561 C 0.92762 0.15816 0.34059 0.0
H2562 H 0.94826 0.09953 0.36768 0.0
C2563 C 0.94327 0.16637 0.35677 0.0
C2564 C 0.93763 0.15473 0.35148 0.0
H2565 H 0.919 0.10547 0.33663 0.0
H2566 H 0.92261 0.12919 0.3375 0.0
H2567 H 0.96937 0.11999 0.35595 0.0
H2568 H 0.93916 0.12416 0.38606 0.0
H2569 H 0.95378 0.13178 0.392 0.0
H2570 H 0.95388 0.11424 0.38826 0.0
H2571 H 0.97165 0.1137 0.37251 0.0
H2572 H 0.97598 0.13061 0.36815 0.0
C2573 C 0.93216 0.15298 0.32679 0.0
C2574 C 0.91325 0.15411 0.34443 0.0
C2575 C 0.97877 0.17443 0.39184 0.0
C2576 C 0.98688 0.16588 0.39938 0.0
C2577 C 0.98515 0.152 0.39816 0.0
C2578 C 0.97553 0.14673 0.38949 0.0
C2579 C 0.96762 0.15542 0.38187 0.0
C2580 C 0.96934 0.16901 0.38313 0.0
C2581 C 0.96049 0.17676 0.37389 0.0
C2582 C 0.95312 0.16558 0.36688 0.0
C2583 C 0.95726 0.15313 0.37165 0.0
C2584 C 0.96949 0.18477 0.36419 0.0
C2585 C 0.951 0.18538 0.3825 0.0
C2586 C 0.94268 0.10592 0.36101 0.0
C2587 C 0.93324 0.10058 0.35217 0.0
C2588 C 0.92625 0.1093 0.34363 0.0
C2589 C 0.92835 0.1231 0.34414 0.0
C2590 C 0.93762 0.1283 0.35322 0.0
C2591 C 0.94469 0.11972 0.36137 0.0
C2592 C 0.95422 0.12698 0.37034 0.0
C2593 C 0.95151 0.14132 0.36644 0.0
C2594 C 0.94177 0.14208 0.3564 0.0
C2595 C 0.96857 0.12259 0.36669 0.0
C2596 C 0.95019 0.12414 0.38497 0.0
H2597 H 0.94629 0.19591 0.35816 0.0
H2598 H 0.9149 0.17799 0.32443 0.0
H2599 H 0.90902 0.16115 0.35188 0.0
H2600 H 0.91272 0.14424 0.34924 0.0
H2601 H 0.9066 0.15417 0.33559 0.0
H2602 H 0.94078 0.15885 0.32305 0.0
H2603 H 0.92401 0.15383 0.31935 0.0
H2604 H 0.93566 0.14257 0.32706 0.0
H2605 H 0.97993 0.18514 0.39242 0.0
H2606 H 0.99127 0.14519 0.40387 0.0
H2607 H 0.97471 0.13609 0.38899 0.0
H2608 H 0.97913 0.17958 0.36242 0.0
H2609 H 0.97181 0.1948 0.36822 0.0
H2610 H 0.9651 0.18584 0.35415 0.0
H2611 H 0.94802 0.17998 0.39171 0.0
H2612 H 0.94152 0.18772 0.37744 0.0
H2613 H 0.95588 0.19481 0.38559 0.0
H2614 H 0.9347 0.21101 0.34377 0.0
C2615 C 0.93954 0.19163 0.35109 0.0
C2616 C 0.64824 0.19851 0.11381 0.0
C2617 C 0.65445 0.19018 0.10441 0.0
C2618 C 0.64677 0.18467 0.09402 0.0
C2619 C 0.62688 0.1948 0.10307 0.0
C2620 C 0.63449 0.20077 0.11288 0.0
C2621 C 0.62623 0.20935 0.12198 0.0
H2622 H 0.56531 0.23127 0.14086 0.0
C2623 C 0.61284 0.19846 0.10533 0.0
C2624 C 0.61238 0.20711 0.1163 0.0
H2625 H 0.60363 0.24284 0.15678 0.0
H2626 H 0.61466 0.22823 0.14116 0.0
H2627 H 0.57363 0.23327 0.11086 0.0
H2628 H 0.57206 0.1998 0.13758 0.0
H2629 H 0.56572 0.19444 0.12218 0.0
H2630 H 0.55738 0.20764 0.13105 0.0
H2631 H 0.5582 0.22564 0.11566 0.0
H2632 H 0.56767 0.21971 0.10158 0.0
C2633 C 0.63085 0.224 0.12037 0.0
C2634 C 0.62751 0.20383 0.13632 0.0
C2635 C 0.57655 0.17665 0.07765 0.0
C2636 C 0.56256 0.17723 0.07807 0.0
C2637 C 0.55638 0.186 0.08713 0.0
C2638 C 0.56402 0.1938 0.09584 0.0
C2639 C 0.57798 0.1928 0.09555 0.0
C2640 C 0.58402 0.18444 0.08645 0.0
C2641 C 0.59896 0.18453 0.08763 0.0
C2642 C 0.60088 0.19427 0.09905 0.0
C2643 C 0.58857 0.19903 0.10365 0.0
C2644 C 0.60485 0.1899 0.0744 0.0
C2645 C 0.60355 0.17025 0.09133 0.0
C2646 C 0.57607 0.23058 0.14107 0.0
C2647 C 0.5836 0.23816 0.15011 0.0
C2648 C 0.5976 0.2371 0.14992 0.0
C2649 C 0.60399 0.22863 0.14082 0.0
C2650 C 0.59631 0.22121 0.13177 0.0
C2651 C 0.5826 0.22231 0.13197 0.0
C2652 C 0.57604 0.21407 0.12134 0.0
C2653 C 0.58808 0.20792 0.11463 0.0
C2654 C 0.59992 0.21201 0.12086 0.0
C2655 C 0.56838 0.22356 0.11186 0.0
C2656 C 0.56724 0.20345 0.12828 0.0
H2657 H 0.62773 0.18218 0.08535 0.0
H2658 H 0.65391 0.20302 0.12181 0.0
H2659 H 0.62685 0.19276 0.1363 0.0
H2660 H 0.61949 0.20724 0.143 0.0
H2661 H 0.63724 0.20663 0.14079 0.0
H2662 H 0.63497 0.22584 0.11024 0.0
H2663 H 0.63875 0.22654 0.12769 0.0
H2664 H 0.62256 0.23119 0.12134 0.0
H2665 H 0.58166 0.17001 0.07084 0.0
H2666 H 0.54564 0.18667 0.08767 0.0
H2667 H 0.55873 0.20017 0.10259 0.0
H2668 H 0.59785 0.19692 0.06943 0.0
H2669 H 0.60692 0.18168 0.0673 0.0
H2670 H 0.61404 0.19578 0.07592 0.0
H2671 H 0.59663 0.16571 0.09871 0.0
H2672 H 0.61343 0.16995 0.09611 0.0
H2673 H 0.60372 0.1637 0.08242 0.0
H2674 H 0.65128 0.17823 0.08664 0.0
C2675 C 0.63304 0.18691 0.09332 0.0
C2676 C 0.55834 0.89863 0.88607 0.0
C2677 C 0.57011 0.90454 0.88132 0.0
C2678 C 0.5801 0.8964 0.87575 0.0
C2679 C 0.5663 0.87693 0.87883 0.0
C2680 C 0.55678 0.88477 0.88497 0.0
C2681 C 0.54543 0.87657 0.89036 0.0
H2682 H 0.51717 0.81581 0.89856 0.0
C2683 C 0.56154 0.86305 0.87882 0.0
C2684 C 0.54943 0.86269 0.8858 0.0
H2685 H 0.50413 0.85343 0.91501 0.0
H2686 H 0.5222 0.86472 0.90381 0.0
H2687 H 0.52261 0.82667 0.86989 0.0
H2688 H 0.54867 0.82013 0.9032 0.0
H2689 H 0.55645 0.81375 0.88882 0.0
H2690 H 0.54069 0.80701 0.89402 0.0
H2691 H 0.5294 0.81053 0.87339 0.0
H2692 H 0.53807 0.82238 0.86298 0.0
C2693 C 0.5324 0.88126 0.88359 0.0
C2694 C 0.5454 0.87786 0.90576 0.0
C2695 C 0.58637 0.82798 0.85205 0.0
C2696 C 0.58356 0.81459 0.84898 0.0
C2697 C 0.57234 0.80848 0.85478 0.0
C2698 C 0.56398 0.81562 0.86339 0.0
C2699 C 0.56677 0.82907 0.86613 0.0
C2700 C 0.57779 0.83504 0.86048 0.0
C2701 C 0.5789 0.84955 0.86407 0.0
C2702 C 0.56661 0.85133 0.87272 0.0
C2703 C 0.55963 0.83929 0.87395 0.0
C2704 C 0.57803 0.85774 0.85103 0.0
C2705 C 0.59199 0.85166 0.87202 0.0
C2706 C 0.51821 0.82647 0.89979 0.0
C2707 C 0.50929 0.83371 0.90779 0.0
C2708 C 0.51091 0.84761 0.90896 0.0
C2709 C 0.52144 0.85415 0.9025 0.0
C2710 C 0.53043 0.84671 0.89477 0.0
C2711 C 0.52864 0.83313 0.89342 0.0
C2712 C 0.53902 0.82683 0.88468 0.0
C2713 C 0.54769 0.83877 0.88148 0.0
C2714 C 0.5426 0.8504 0.88736 0.0
C2715 C 0.532 0.82121 0.8721 0.0
C2716 C 0.54662 0.8163 0.89301 0.0
H2717 H 0.58613 0.87708 0.86991 0.0
H2718 H 0.55064 0.90462 0.89068 0.0
H2719 H 0.55557 0.87989 0.90967 0.0
H2720 H 0.54232 0.86857 0.9108 0.0
H2721 H 0.53886 0.88614 0.90908 0.0
H2722 H 0.53399 0.88272 0.87272 0.0
H2723 H 0.52899 0.89089 0.88784 0.0
H2724 H 0.52425 0.87394 0.88445 0.0
H2725 H 0.59485 0.83301 0.84768 0.0
H2726 H 0.56998 0.79818 0.85261 0.0
H2727 H 0.5556 0.81041 0.86748 0.0
H2728 H 0.56966 0.85412 0.84473 0.0
H2729 H 0.58735 0.85678 0.84514 0.0
H2730 H 0.57611 0.86841 0.8527 0.0
H2731 H 0.59542 0.84229 0.87683 0.0
H2732 H 0.59072 0.85877 0.88037 0.0
H2733 H 0.60016 0.8552 0.86545 0.0
H2734 H 0.58929 0.9007 0.87209 0.0
C2735 C 0.57823 0.88268 0.87441 0.0
C2736 C 0.90983 0.23381 0.84442 0.0
C2737 C 0.92346 0.23658 0.84264 0.0
C2738 C 0.93296 0.2273 0.84719 0.0
C2739 C 0.91537 0.21294 0.85529 0.0
C2740 C 0.90603 0.22194 0.85072 0.0
C2741 C 0.892 0.21744 0.85352 0.0
H2742 H 0.85072 0.17189 0.88127 0.0
C2743 C 0.90821 0.20165 0.8614 0.0
C2744 C 0.8945 0.20412 0.86026 0.0
H2745 H 0.84015 0.20967 0.86347 0.0
H2746 H 0.86319 0.21338 0.85748 0.0
H2747 H 0.87314 0.16304 0.85843 0.0
H2748 H 0.87419 0.18208 0.89676 0.0
H2749 H 0.88843 0.17203 0.89599 0.0
H2750 H 0.87223 0.16441 0.89497 0.0
H2751 H 0.87016 0.15434 0.87376 0.0
H2752 H 0.88677 0.15637 0.86718 0.0
C2753 C 0.88466 0.21575 0.84006 0.0
C2754 C 0.88548 0.22765 0.86309 0.0
C2755 C 0.93413 0.16594 0.886 0.0
C2756 C 0.93014 0.15456 0.89311 0.0
C2757 C 0.91676 0.15036 0.89234 0.0
C2758 C 0.9073 0.15794 0.88543 0.0
C2759 C 0.91126 0.16981 0.87917 0.0
C2760 C 0.92457 0.17334 0.87904 0.0
C2761 C 0.92698 0.18606 0.87153 0.0
C2762 C 0.91283 0.18995 0.86783 0.0
C2763 C 0.90367 0.1805 0.87249 0.0
C2764 C 0.93553 0.18279 0.85908 0.0
C2765 C 0.93339 0.19624 0.88121 0.0
C2766 C 0.85329 0.18087 0.87587 0.0
C2767 C 0.84358 0.1905 0.87284 0.0
C2768 C 0.84744 0.20211 0.86595 0.0
C2769 C 0.86083 0.20427 0.86254 0.0
C2770 C 0.8705 0.1948 0.86619 0.0
C2771 C 0.86661 0.18326 0.8726 0.0
C2772 C 0.87823 0.17462 0.87639 0.0
C2773 C 0.88979 0.18295 0.87137 0.0
C2774 C 0.88521 0.19471 0.86531 0.0
C2775 C 0.87706 0.16132 0.86866 0.0
C2776 C 0.87833 0.17307 0.89179 0.0
H2777 H 0.93671 0.20891 0.85676 0.0
H2778 H 0.90227 0.24071 0.84102 0.0
H2779 H 0.893 0.2321 0.86991 0.0
H2780 H 0.87803 0.2231 0.86978 0.0
H2781 H 0.88075 0.23593 0.85748 0.0
H2782 H 0.89133 0.21107 0.83254 0.0
H2783 H 0.88143 0.22554 0.83605 0.0
H2784 H 0.87593 0.20912 0.84073 0.0
H2785 H 0.94437 0.16932 0.8863 0.0
H2786 H 0.91342 0.14165 0.89776 0.0
H2787 H 0.89717 0.15455 0.88569 0.0
H2788 H 0.93424 0.17226 0.85589 0.0
H2789 H 0.9463 0.18435 0.86109 0.0
H2790 H 0.93259 0.18873 0.85026 0.0
H2791 H 0.92849 0.1958 0.89114 0.0
H2792 H 0.93232 0.20666 0.87791 0.0
H2793 H 0.94415 0.19411 0.88265 0.0
H2794 H 0.94351 0.22915 0.84593 0.0
C2795 C 0.92899 0.21551 0.85347 0.0
C2796 C 0.55816 0.10037 0.61326 0.0
C2797 C 0.56992 0.09447 0.61805 0.0
C2798 C 0.57991 0.10261 0.62362 0.0
C2799 C 0.56612 0.12208 0.62048 0.0
C2800 C 0.55661 0.11424 0.61433 0.0
C2801 C 0.54527 0.12243 0.6089 0.0
H2802 H 0.51704 0.18318 0.60058 0.0
C2803 C 0.56136 0.13597 0.62046 0.0
C2804 C 0.54927 0.13632 0.61345 0.0
H2805 H 0.50403 0.14554 0.58413 0.0
H2806 H 0.52208 0.13426 0.59538 0.0
H2807 H 0.52241 0.17235 0.62925 0.0
H2808 H 0.54855 0.17887 0.596 0.0
H2809 H 0.5563 0.18525 0.61041 0.0
H2810 H 0.54055 0.19199 0.60516 0.0
H2811 H 0.52922 0.18848 0.62577 0.0
H2812 H 0.53785 0.17663 0.63621 0.0
C2813 C 0.53223 0.11775 0.61564 0.0
C2814 C 0.54528 0.12112 0.5935 0.0
C2815 C 0.58609 0.17106 0.6473 0.0
C2816 C 0.58327 0.18444 0.65035 0.0
C2817 C 0.57207 0.19055 0.64451 0.0
C2818 C 0.56375 0.18341 0.63586 0.0
C2819 C 0.56655 0.16996 0.63314 0.0
C2820 C 0.57756 0.164 0.63884 0.0
C2821 C 0.57868 0.14948 0.63526 0.0
C2822 C 0.56642 0.14769 0.62656 0.0
C2823 C 0.55944 0.15973 0.6253 0.0
C2824 C 0.57776 0.14129 0.6483 0.0
C2825 C 0.59179 0.14737 0.62735 0.0
C2826 C 0.51808 0.17252 0.59936 0.0
C2827 C 0.50917 0.16528 0.59135 0.0
C2828 C 0.5108 0.15137 0.59019 0.0
C2829 C 0.52131 0.14484 0.59668 0.0
C2830 C 0.5303 0.15229 0.60441 0.0
C2831 C 0.5285 0.16587 0.60575 0.0
C2832 C 0.53886 0.17218 0.61451 0.0
C2833 C 0.54752 0.16024 0.61774 0.0
C2834 C 0.54245 0.14861 0.61186 0.0
C2835 C 0.53181 0.17781 0.62707 0.0
C2836 C 0.54648 0.1827 0.60619 0.0
H2837 H 0.58593 0.12194 0.62944 0.0
H2838 H 0.55048 0.09438 0.60864 0.0
H2839 H 0.55547 0.11909 0.58962 0.0
H2840 H 0.54222 0.1304 0.58844 0.0
H2841 H 0.53875 0.11284 0.59018 0.0
H2842 H 0.53379 0.11631 0.62652 0.0
H2843 H 0.52882 0.10812 0.6114 0.0
H2844 H 0.52408 0.12507 0.61476 0.0
H2845 H 0.59456 0.16603 0.65171 0.0
H2846 H 0.5697 0.20085 0.64666 0.0
H2847 H 0.55539 0.18861 0.63173 0.0
H2848 H 0.56937 0.14491 0.65457 0.0
H2849 H 0.58706 0.14226 0.65422 0.0
H2850 H 0.57586 0.13062 0.64663 0.0
H2851 H 0.59524 0.15674 0.62255 0.0
H2852 H 0.59056 0.14026 0.619 0.0
H2853 H 0.59994 0.14383 0.63396 0.0
H2854 H 0.58909 0.09832 0.6273 0.0
C2855 C 0.57804 0.11634 0.62493 0.0
C2856 C 0.64864 0.80066 0.38627 0.0
C2857 C 0.65478 0.80901 0.3957 0.0
C2858 C 0.64703 0.81453 0.40602 0.0
C2859 C 0.62721 0.80437 0.39686 0.0
C2860 C 0.63489 0.7984 0.38711 0.0
C2861 C 0.62668 0.78981 0.37796 0.0
H2862 H 0.56587 0.76789 0.35868 0.0
C2863 C 0.61318 0.80071 0.39451 0.0
C2864 C 0.61279 0.79205 0.38354 0.0
H2865 H 0.60428 0.7563 0.34301 0.0
H2866 H 0.61523 0.77091 0.35871 0.0
H2867 H 0.574 0.76589 0.38873 0.0
H2868 H 0.57261 0.79936 0.36201 0.0
H2869 H 0.56618 0.80472 0.37736 0.0
H2870 H 0.5579 0.79152 0.36844 0.0
H2871 H 0.5586 0.77353 0.38384 0.0
H2872 H 0.568 0.77945 0.39798 0.0
C2873 C 0.63129 0.77516 0.37961 0.0
C2874 C 0.62806 0.79531 0.36362 0.0
C2875 C 0.57672 0.82251 0.42196 0.0
C2876 C 0.56273 0.82193 0.42144 0.0
C2877 C 0.55661 0.81315 0.41234 0.0
C2878 C 0.5643 0.80535 0.40369 0.0
C2879 C 0.57827 0.80635 0.40407 0.0
C2880 C 0.58425 0.81472 0.4132 0.0
C2881 C 0.59918 0.81463 0.41211 0.0
C2882 C 0.60118 0.80489 0.40071 0.0
C2883 C 0.58891 0.80013 0.39603 0.0
C2884 C 0.60499 0.80927 0.42538 0.0
C2885 C 0.60379 0.82892 0.40844 0.0
C2886 C 0.57664 0.76858 0.35853 0.0
C2887 C 0.58422 0.76099 0.34955 0.0
C2888 C 0.59822 0.76205 0.34984 0.0
C2889 C 0.60455 0.77052 0.35897 0.0
C2890 C 0.59682 0.77794 0.36798 0.0
C2891 C 0.58311 0.77684 0.36768 0.0
C2892 C 0.57649 0.78509 0.37827 0.0
C2893 C 0.58849 0.79124 0.38506 0.0
C2894 C 0.60036 0.78715 0.3789 0.0
C2895 C 0.56876 0.7756 0.3877 0.0
C2896 C 0.56774 0.7957 0.37127 0.0
H2897 H 0.62794 0.81703 0.41456 0.0
H2898 H 0.65437 0.79614 0.37832 0.0
H2899 H 0.6274 0.80638 0.36363 0.0
H2900 H 0.62009 0.7919 0.35689 0.0
H2901 H 0.63782 0.79251 0.35923 0.0
H2902 H 0.63531 0.77332 0.38978 0.0
H2903 H 0.63926 0.77262 0.37237 0.0
H2904 H 0.62302 0.76797 0.37857 0.0
H2905 H 0.58178 0.82916 0.42879 0.0
H2906 H 0.54587 0.81248 0.41174 0.0
H2907 H 0.55905 0.79898 0.3969 0.0
H2908 H 0.59798 0.80223 0.4303 0.0
H2909 H 0.607 0.81749 0.43251 0.0
H2910 H 0.61421 0.80342 0.42392 0.0
H2911 H 0.59691 0.83347 0.40104 0.0
H2912 H 0.61369 0.82922 0.40369 0.0
H2913 H 0.60395 0.83547 0.41736 0.0
H2914 H 0.65149 0.821 0.41343 0.0
C2915 C 0.6333 0.81229 0.40663 0.0
C2916 C 0.92668 0.82487 0.16861 0.0
C2917 C 0.92719 0.81088 0.16786 0.0
C2918 C 0.93616 0.80486 0.1589 0.0
C2919 C 0.94338 0.8266 0.15125 0.0
C2920 C 0.93477 0.83248 0.16021 0.0
C2921 C 0.93495 0.84744 0.15935 0.0
H2922 H 0.95477 0.90306 0.12707 0.0
C2923 C 0.94992 0.83734 0.14359 0.0
C2924 C 0.94506 0.84956 0.1483 0.0
H2925 H 0.92875 0.89971 0.16127 0.0
H2926 H 0.93257 0.87614 0.16214 0.0
H2927 H 0.9771 0.88374 0.13905 0.0
H2928 H 0.94502 0.8763 0.11157 0.0
H2929 H 0.95976 0.8691 0.10526 0.0
H2930 H 0.95903 0.8868 0.10787 0.0
H2931 H 0.97845 0.88794 0.12174 0.0
H2932 H 0.98282 0.87159 0.12786 0.0
C2933 C 0.93991 0.85303 0.17288 0.0
C2934 C 0.92081 0.85216 0.15529 0.0
C2935 C 0.98295 0.82549 0.10728 0.0
C2936 C 0.99093 0.83317 0.09873 0.0
C2937 C 0.98986 0.84716 0.09912 0.0
C2938 C 0.98101 0.8534 0.10794 0.0
C2939 C 0.9732 0.84558 0.11654 0.0
C2940 C 0.9743 0.83186 0.11612 0.0
C2941 C 0.9656 0.82512 0.12627 0.0
C2942 C 0.95921 0.83705 0.13295 0.0
C2943 C 0.96357 0.849 0.12713 0.0
C2944 C 0.97467 0.81725 0.13598 0.0
C2945 C 0.95526 0.8165 0.11871 0.0
C2946 C 0.94996 0.89723 0.13476 0.0
C2947 C 0.94133 0.90325 0.14401 0.0
C2948 C 0.93543 0.89535 0.15401 0.0
C2949 C 0.93759 0.88161 0.15447 0.0
C2950 C 0.94581 0.87564 0.14487 0.0
C2951 C 0.95214 0.88344 0.13545 0.0
C2952 C 0.96104 0.87535 0.12649 0.0
C2953 C 0.95854 0.86138 0.13177 0.0
C2954 C 0.94949 0.86163 0.14243 0.0
C2955 C 0.97562 0.87988 0.12876 0.0
C2956 C 0.95607 0.87697 0.11198 0.0
H2957 H 0.9508 0.80746 0.14393 0.0
H2958 H 0.91986 0.82985 0.17533 0.0
H2959 H 0.91645 0.84538 0.14768 0.0
H2960 H 0.92069 0.86211 0.15065 0.0
H2961 H 0.91399 0.85223 0.16401 0.0
H2962 H 0.94676 0.84591 0.17791 0.0
H2963 H 0.93147 0.85495 0.17977 0.0
H2964 H 0.94584 0.86224 0.17174 0.0
H2965 H 0.98362 0.81472 0.10733 0.0
H2966 H 0.99591 0.8533 0.09262 0.0
H2967 H 0.98062 0.86408 0.10778 0.0
H2968 H 0.98429 0.82253 0.13758 0.0
H2969 H 0.977 0.80719 0.132 0.0
H2970 H 0.97034 0.81623 0.14604 0.0
H2971 H 0.95213 0.82142 0.10928 0.0
H2972 H 0.94593 0.81505 0.12433 0.0
H2973 H 0.95948 0.80661 0.11608 0.0
H2974 H 0.93676 0.79411 0.15812 0.0
C2975 C 0.94428 0.81264 0.15063 0.0
C2976 C 0.64799 0.91063 0.76348 0.0
C2977 C 0.64835 0.92401 0.75933 0.0
C2978 C 0.64187 0.93375 0.76709 0.0
C2979 C 0.63523 0.91692 0.78303 0.0
C2980 C 0.64148 0.90733 0.77538 0.0
C2981 C 0.64054 0.89368 0.78153 0.0
H2982 H 0.62139 0.85548 0.83375 0.0
C2983 C 0.62999 0.91041 0.7951 0.0
C2984 C 0.63322 0.89681 0.7944 0.0
H2985 H 0.63809 0.84219 0.79634 0.0
H2986 H 0.63979 0.8651 0.78888 0.0
H2987 H 0.64003 0.88213 0.83763 0.0
H2988 H 0.60136 0.87402 0.82133 0.0
H2989 H 0.60001 0.88956 0.82911 0.0
H2990 H 0.60422 0.87515 0.83892 0.0
H2991 H 0.62578 0.87836 0.84773 0.0
H2992 H 0.62958 0.89521 0.84273 0.0
C2993 C 0.65482 0.88852 0.78416 0.0
C2994 C 0.63218 0.88469 0.77216 0.0
C2995 C 0.6027 0.93689 0.82859 0.0
C2996 C 0.59729 0.93355 0.84107 0.0
C2997 C 0.60032 0.92105 0.84671 0.0
C2998 C 0.60794 0.91172 0.83974 0.0
C2999 C 0.61273 0.91493 0.82702 0.0
C3000 C 0.61055 0.9275 0.82184 0.0
C3001 C 0.61735 0.92936 0.8086 0.0
C3002 C 0.6231 0.91553 0.80633 0.0
C3003 C 0.62019 0.90712 0.81708 0.0
C3004 C 0.62838 0.94007 0.81027 0.0
C3005 C 0.60665 0.93289 0.79807 0.0
C3006 C 0.62568 0.85747 0.82405 0.0
C3007 C 0.62974 0.84703 0.81567 0.0
C3008 C 0.63492 0.85008 0.80298 0.0
C3009 C 0.63584 0.86337 0.79867 0.0
C3010 C 0.63135 0.87368 0.80705 0.0
C3011 C 0.62636 0.87059 0.8195 0.0
C3012 C 0.62098 0.88257 0.82668 0.0
C3013 C 0.6235 0.89339 0.81646 0.0
C3014 C 0.6298 0.88821 0.80509 0.0
C3015 C 0.62941 0.88471 0.83943 0.0
C3016 C 0.60589 0.88028 0.82927 0.0
H3017 H 0.63056 0.93812 0.78434 0.0
H3018 H 0.65287 0.90291 0.75774 0.0
H3019 H 0.62482 0.89064 0.76638 0.0
H3020 H 0.62609 0.87735 0.77766 0.0
H3021 H 0.63862 0.87939 0.7649 0.0
H3022 H 0.66107 0.89651 0.78862 0.0
H3023 H 0.65964 0.88528 0.77475 0.0
H3024 H 0.65513 0.88017 0.79129 0.0
H3025 H 0.60077 0.94653 0.82414 0.0
H3026 H 0.59632 0.91824 0.85632 0.0
H3027 H 0.60953 0.90225 0.84441 0.0
H3028 H 0.63148 0.94119 0.82085 0.0
H3029 H 0.62494 0.94998 0.80678 0.0
H3030 H 0.63766 0.93739 0.80494 0.0
H3031 H 0.59784 0.92624 0.79912 0.0
H3032 H 0.61017 0.93158 0.78775 0.0
H3033 H 0.60319 0.94332 0.7993 0.0
H3034 H 0.64193 0.94411 0.76409 0.0
C3035 C 0.6353 0.93027 0.77888 0.0
C3036 C 0.82919 0.89161 0.51526 0.0
C3037 C 0.83695 0.90003 0.50722 0.0
C3038 C 0.85094 0.89961 0.5084 0.0
C3039 C 0.84918 0.88245 0.5253 0.0
C3040 C 0.83547 0.88288 0.5241 0.0
C3041 C 0.82866 0.87286 0.5329 0.0
H3042 H 0.83313 0.82478 0.57974 0.0
C3043 C 0.85252 0.87201 0.53511 0.0
C3044 C 0.84054 0.86627 0.53949 0.0
H3045 H 0.79748 0.84092 0.56167 0.0
H3046 H 0.8109 0.85511 0.54766 0.0
H3047 H 0.84918 0.8212 0.55395 0.0
H3048 H 0.84898 0.85341 0.58217 0.0
H3049 H 0.86561 0.84896 0.57873 0.0
H3050 H 0.85456 0.83681 0.58581 0.0
H3051 H 0.85902 0.82056 0.56884 0.0
H3052 H 0.86534 0.82786 0.55364 0.0
C3053 C 0.82083 0.86302 0.52392 0.0
C3054 C 0.81997 0.88057 0.54306 0.0
C3055 C 0.90069 0.86453 0.54896 0.0
C3056 C 0.90669 0.8554 0.55772 0.0
C3057 C 0.89876 0.84553 0.56379 0.0
C3058 C 0.88501 0.84509 0.56164 0.0
C3059 C 0.87906 0.85459 0.5533 0.0
C3060 C 0.8869 0.86386 0.54681 0.0
C3061 C 0.87885 0.87268 0.53774 0.0
C3062 C 0.86486 0.86746 0.54029 0.0
C3063 C 0.86507 0.85699 0.54954 0.0
C3064 C 0.88342 0.87017 0.5232 0.0
C3065 C 0.88048 0.88726 0.54249 0.0
C3066 C 0.82818 0.83135 0.57276 0.0
C3067 C 0.8142 0.83176 0.57188 0.0
C3068 C 0.80822 0.84041 0.56257 0.0
C3069 C 0.81604 0.84868 0.55447 0.0
C3070 C 0.82999 0.84832 0.55567 0.0
C3071 C 0.83583 0.83966 0.56461 0.0
C3072 C 0.85078 0.84053 0.56451 0.0
C3073 C 0.85296 0.85124 0.55406 0.0
C3074 C 0.84076 0.85583 0.54901 0.0
C3075 C 0.85646 0.82685 0.5601 0.0
C3076 C 0.85534 0.8451 0.57852 0.0
H3077 H 0.86776 0.89104 0.51787 0.0
H3078 H 0.81843 0.89158 0.5145 0.0
H3079 H 0.82509 0.88982 0.5464 0.0
H3080 H 0.81805 0.87492 0.55228 0.0
H3081 H 0.8103 0.88353 0.53857 0.0
H3082 H 0.82601 0.86147 0.51425 0.0
H3083 H 0.81069 0.86683 0.52171 0.0
H3084 H 0.82003 0.85296 0.52829 0.0
H3085 H 0.90655 0.87213 0.54402 0.0
H3086 H 0.9031 0.83837 0.5706 0.0
H3087 H 0.87952 0.83749 0.56676 0.0
H3088 H 0.88736 0.85989 0.52192 0.0
H3089 H 0.89143 0.8772 0.52025 0.0
H3090 H 0.87513 0.87087 0.51597 0.0
H3091 H 0.87984 0.88784 0.55355 0.0
H3092 H 0.8726 0.89393 0.53874 0.0
H3093 H 0.8903 0.89134 0.53945 0.0
H3094 H 0.85714 0.906 0.50231 0.0
C3095 C 0.85708 0.8909 0.51742 0.0
C3096 C 0.8635 0.14362 0.309 0.0
C3097 C 0.8705 0.14951 0.31963 0.0
C3098 C 0.87413 0.1416 0.33064 0.0
C3099 C 0.86561 0.12199 0.31954 0.0
C3100 C 0.86117 0.12984 0.30916 0.0
C3101 C 0.85477 0.12171 0.29828 0.0
H3102 H 0.84293 0.06087 0.27156 0.0
C3103 C 0.8633 0.10794 0.31593 0.0
C3104 C 0.85681 0.10766 0.30356 0.0
H3105 H 0.83101 0.09925 0.25603 0.0
H3106 H 0.84036 0.1101 0.27538 0.0
H3107 H 0.87061 0.06889 0.27938 0.0
H3108 H 0.83522 0.06679 0.30326 0.0
H3109 H 0.84842 0.05914 0.31203 0.0
H3110 H 0.8435 0.05267 0.29604 0.0
H3111 H 0.86566 0.05367 0.28726 0.0
H3112 H 0.87627 0.06558 0.29556 0.0
C3113 C 0.86255 0.12415 0.28518 0.0
C3114 C 0.83983 0.12547 0.29758 0.0
C3115 C 0.88659 0.07222 0.34263 0.0
C3116 C 0.8898 0.05895 0.33959 0.0
C3117 C 0.88305 0.05252 0.32911 0.0
C3118 C 0.87392 0.05952 0.32119 0.0
C3119 C 0.87181 0.07316 0.32357 0.0
C3120 C 0.8779 0.0792 0.33433 0.0
C3121 C 0.87584 0.09402 0.3345 0.0
C3122 C 0.86767 0.09593 0.32194 0.0
C3123 C 0.86521 0.08369 0.31567 0.0
C3124 C 0.88974 0.10083 0.3336 0.0
C3125 C 0.86774 0.09759 0.34713 0.0
C3126 C 0.84223 0.0716 0.27235 0.0
C3127 C 0.83622 0.0792 0.26225 0.0
C3128 C 0.83563 0.09316 0.26365 0.0
C3129 C 0.84104 0.09945 0.2749 0.0
C3130 C 0.84724 0.09172 0.28479 0.0
C3131 C 0.84764 0.07803 0.28346 0.0
C3132 C 0.85488 0.0714 0.29475 0.0
C3133 C 0.85835 0.08333 0.30333 0.0
C3134 C 0.85401 0.09523 0.29739 0.0
C3135 C 0.86747 0.06444 0.28903 0.0
C3136 C 0.84508 0.06191 0.30192 0.0
H3137 H 0.875 0.12237 0.33917 0.0
H3138 H 0.86043 0.14946 0.30047 0.0
H3139 H 0.83595 0.12833 0.30756 0.0
H3140 H 0.83348 0.11705 0.29441 0.0
H3141 H 0.83818 0.13404 0.29077 0.0
H3142 H 0.87346 0.12422 0.2871 0.0
H3143 H 0.85983 0.13389 0.28071 0.0
H3144 H 0.86097 0.1163 0.27766 0.0
H3145 H 0.89177 0.07752 0.35048 0.0
H3146 H 0.8853 0.04226 0.32664 0.0
H3147 H 0.86937 0.05421 0.31311 0.0
H3148 H 0.89705 0.09442 0.3283 0.0
H3149 H 0.89383 0.10293 0.34366 0.0
H3150 H 0.88969 0.11013 0.32775 0.0
H3151 H 0.86012 0.08983 0.34925 0.0
H3152 H 0.86205 0.10695 0.34604 0.0
H3153 H 0.87431 0.09834 0.356 0.0
H3154 H 0.87934 0.14589 0.33905 0.0
C3155 C 0.87163 0.1279 0.33069 0.0
C3156 C 0.59862 0.12075 0.05326 0.0
C3157 C 0.59211 0.1274 0.06374 0.0
C3158 C 0.59962 0.13154 0.07488 0.0
C3159 C 0.61987 0.12366 0.06447 0.0
C3160 C 0.61246 0.11891 0.05388 0.0
C3161 C 0.62104 0.11227 0.04353 0.0
H3162 H 0.68281 0.09739 0.02086 0.0
C3163 C 0.63408 0.12113 0.06162 0.0
C3164 C 0.63483 0.1143 0.04943 0.0
H3165 H 0.64499 0.08692 0.00309 0.0
H3166 H 0.63336 0.09749 0.02132 0.0
H3167 H 0.67538 0.12611 0.02811 0.0
H3168 H 0.67447 0.09026 0.05138 0.0
H3169 H 0.68131 0.10287 0.06145 0.0
H3170 H 0.68955 0.09832 0.04616 0.0
H3171 H 0.69008 0.11963 0.0359 0.0
H3172 H 0.67914 0.1311 0.0444 0.0
C3173 C 0.6193 0.11986 0.03021 0.0
C3174 C 0.61718 0.09734 0.04289 0.0
C3175 C 0.66974 0.1418 0.09106 0.0
C3176 C 0.68361 0.143 0.08958 0.0
C3177 C 0.69004 0.13594 0.07931 0.0
C3178 C 0.68271 0.12816 0.07036 0.0
C3179 C 0.66877 0.12764 0.0715 0.0
C3180 C 0.66251 0.13424 0.08183 0.0
C3181 C 0.64756 0.13323 0.08097 0.0
C3182 C 0.64591 0.12505 0.06833 0.0
C3183 C 0.65837 0.1218 0.06289 0.0
C3184 C 0.64186 0.14752 0.07948 0.0
C3185 C 0.64252 0.12563 0.09342 0.0
C3186 C 0.67202 0.09732 0.02088 0.0
C3187 C 0.66482 0.09132 0.0105 0.0
C3188 C 0.65078 0.09149 0.01095 0.0
C3189 C 0.64405 0.09762 0.02156 0.0
C3190 C 0.65141 0.10367 0.03182 0.0
C3191 C 0.66516 0.10337 0.03138 0.0
C3192 C 0.67141 0.11034 0.04305 0.0
C3193 C 0.65915 0.11467 0.05072 0.0
C3194 C 0.64746 0.11086 0.04406 0.0
C3195 C 0.67951 0.12238 0.03769 0.0
C3196 C 0.67972 0.10001 0.05095 0.0
H3197 H 0.61858 0.13338 0.0839 0.0
H3198 H 0.59312 0.11731 0.04464 0.0
H3199 H 0.61384 0.09365 0.0528 0.0
H3200 H 0.62567 0.09086 0.04023 0.0
H3201 H 0.60892 0.09565 0.03573 0.0
H3202 H 0.61909 0.1308 0.03196 0.0
H3203 H 0.60982 0.11705 0.02525 0.0
H3204 H 0.62757 0.11821 0.02318 0.0
H3205 H 0.6645 0.14733 0.09871 0.0
H3206 H 0.70072 0.13674 0.078 0.0
H3207 H 0.68817 0.1232 0.06264 0.0
H3208 H 0.64836 0.15367 0.07293 0.0
H3209 H 0.64122 0.15259 0.08929 0.0
H3210 H 0.63198 0.14781 0.07471 0.0
H3211 H 0.6499 0.11804 0.09672 0.0
H3212 H 0.63332 0.11991 0.09147 0.0
H3213 H 0.6408 0.13252 0.1019 0.0
H3214 H 0.59489 0.13665 0.08312 0.0
C3215 C 0.61342 0.12971 0.07529 0.0
C3216 C 0.64793 0.08843 0.73587 0.0
C3217 C 0.64832 0.07504 0.74001 0.0
C3218 C 0.64183 0.0653 0.73225 0.0
C3219 C 0.63513 0.08214 0.71635 0.0
C3220 C 0.64139 0.09173 0.724 0.0
C3221 C 0.64041 0.10538 0.71786 0.0
H3222 H 0.62108 0.1436 0.66572 0.0
C3223 C 0.62984 0.08866 0.7043 0.0
C3224 C 0.63306 0.10226 0.70501 0.0
H3225 H 0.63783 0.1569 0.70311 0.0
H3226 H 0.63958 0.13398 0.71054 0.0
H3227 H 0.63975 0.11698 0.66178 0.0
H3228 H 0.6011 0.12504 0.67817 0.0
H3229 H 0.59975 0.1095 0.6704 0.0
H3230 H 0.60392 0.12391 0.66057 0.0
H3231 H 0.62547 0.12076 0.65171 0.0
H3232 H 0.62929 0.1039 0.65669 0.0
C3233 C 0.65467 0.11058 0.7152 0.0
C3234 C 0.63206 0.11435 0.72726 0.0
C3235 C 0.6025 0.06217 0.67086 0.0
C3236 C 0.59705 0.06552 0.6584 0.0
C3237 C 0.60004 0.07803 0.65277 0.0
C3238 C 0.60767 0.08736 0.65972 0.0
C3239 C 0.61251 0.08414 0.67243 0.0
C3240 C 0.61035 0.07157 0.6776 0.0
C3241 C 0.61719 0.0697 0.69082 0.0
C3242 C 0.62293 0.08354 0.69309 0.0
C3243 C 0.61998 0.09196 0.68236 0.0
C3244 C 0.62824 0.05901 0.68911 0.0
C3245 C 0.60653 0.06615 0.70137 0.0
C3246 C 0.62539 0.14161 0.67541 0.0
C3247 C 0.62945 0.15206 0.68379 0.0
C3248 C 0.63466 0.149 0.69647 0.0
C3249 C 0.63561 0.13571 0.70077 0.0
C3250 C 0.63113 0.1254 0.69238 0.0
C3251 C 0.6261 0.12849 0.67995 0.0
C3252 C 0.62072 0.11652 0.67278 0.0
C3253 C 0.62328 0.10569 0.68297 0.0
C3254 C 0.6296 0.11087 0.69433 0.0
C3255 C 0.62912 0.1144 0.66 0.0
C3256 C 0.60562 0.11878 0.67022 0.0
H3257 H 0.63048 0.06093 0.71502 0.0
H3258 H 0.65282 0.09615 0.74161 0.0
H3259 H 0.62473 0.10839 0.73306 0.0
H3260 H 0.62595 0.12169 0.72179 0.0
H3261 H 0.63851 0.11966 0.73451 0.0
H3262 H 0.66092 0.10261 0.71071 0.0
H3263 H 0.65952 0.1138 0.72461 0.0
H3264 H 0.65495 0.11894 0.70809 0.0
H3265 H 0.6006 0.05252 0.6753 0.0
H3266 H 0.59601 0.08084 0.64317 0.0
H3267 H 0.60924 0.09684 0.65505 0.0
H3268 H 0.6313 0.0579 0.67851 0.0
H3269 H 0.62482 0.04909 0.6926 0.0
H3270 H 0.63753 0.0617 0.69441 0.0
H3271 H 0.59771 0.07278 0.70035 0.0
H3272 H 0.61008 0.06745 0.71169 0.0
H3273 H 0.60308 0.05571 0.70014 0.0
H3274 H 0.64192 0.05494 0.73523 0.0
C3275 C 0.63523 0.06879 0.72048 0.0
C3276 C 0.59858 0.87858 0.44606 0.0
C3277 C 0.59214 0.87182 0.43561 0.0
C3278 C 0.5997 0.86762 0.42453 0.0
C3279 C 0.61988 0.8757 0.43493 0.0
C3280 C 0.61241 0.88049 0.44546 0.0
C3281 C 0.62093 0.88726 0.45579 0.0
H3282 H 0.68255 0.90269 0.4785 0.0
C3283 C 0.63406 0.87834 0.43779 0.0
C3284 C 0.63474 0.88527 0.44993 0.0
H3285 H 0.64462 0.91296 0.49616 0.0
H3286 H 0.6331 0.90225 0.47794 0.0
H3287 H 0.67534 0.8739 0.4714 0.0
H3288 H 0.67422 0.90962 0.44793 0.0
H3289 H 0.68112 0.897 0.43791 0.0
H3290 H 0.68935 0.90167 0.45318 0.0
H3291 H 0.69 0.88045 0.4636 0.0
H3292 H 0.67917 0.86884 0.45515 0.0
C3293 C 0.6192 0.87975 0.46915 0.0
C3294 C 0.61697 0.90216 0.4563 0.0
C3295 C 0.66994 0.85761 0.40866 0.0
C3296 C 0.68383 0.85654 0.41019 0.0
C3297 C 0.69018 0.86379 0.42037 0.0
C3298 C 0.68277 0.87163 0.42921 0.0
C3299 C 0.66882 0.87201 0.42804 0.0
C3300 C 0.66263 0.86523 0.41779 0.0
C3301 C 0.64768 0.86615 0.41859 0.0
C3302 C 0.64594 0.87445 0.43115 0.0
C3303 C 0.65836 0.87786 0.43657 0.0
C3304 C 0.64207 0.85184 0.42022 0.0
C3305 C 0.64262 0.87358 0.40605 0.0
C3306 C 0.67176 0.90269 0.47845 0.0
C3307 C 0.6645 0.90867 0.4888 0.0
C3308 C 0.65046 0.90841 0.48832 0.0
C3309 C 0.64379 0.90219 0.47772 0.0
C3310 C 0.65122 0.89614 0.4675 0.0
C3311 C 0.66496 0.89655 0.46796 0.0
C3312 C 0.67128 0.88956 0.45635 0.0
C3313 C 0.65907 0.88508 0.44869 0.0
C3314 C 0.64733 0.88886 0.4553 0.0
C3315 C 0.67946 0.87761 0.4618 0.0
C3316 C 0.67953 0.8999 0.4484 0.0
H3317 H 0.6187 0.86581 0.41558 0.0
H3318 H 0.59304 0.88206 0.45464 0.0
H3319 H 0.61367 0.90577 0.44635 0.0
H3320 H 0.6254 0.90871 0.45898 0.0
H3321 H 0.60865 0.90385 0.4634 0.0
H3322 H 0.61903 0.8688 0.46748 0.0
H3323 H 0.60971 0.88256 0.47409 0.0
H3324 H 0.62747 0.88147 0.47618 0.0
H3325 H 0.66476 0.85194 0.40108 0.0
H3326 H 0.70086 0.8631 0.42172 0.0
H3327 H 0.68817 0.87673 0.43688 0.0
H3328 H 0.64857 0.84582 0.42688 0.0
H3329 H 0.64153 0.84664 0.41047 0.0
H3330 H 0.63216 0.85153 0.42492 0.0
H3331 H 0.64996 0.88116 0.40267 0.0
H3332 H 0.63338 0.87928 0.40793 0.0
H3333 H 0.64093 0.86658 0.39765 0.0
H3334 H 0.59502 0.86241 0.41632 0.0
C3335 C 0.6135 0.86952 0.42414 0.0
C3336 C 0.87066 0.84624 0.19168 0.0
C3337 C 0.87739 0.83994 0.18113 0.0
C3338 C 0.88167 0.84768 0.1702 0.0
C3339 C 0.87377 0.86773 0.181 0.0
C3340 C 0.8689 0.86009 0.19137 0.0
C3341 C 0.86232 0.86844 0.20193 0.0
H3342 H 0.84763 0.92958 0.22623 0.0
C3343 C 0.87127 0.88188 0.18419 0.0
C3344 C 0.8644 0.88235 0.19637 0.0
H3345 H 0.83795 0.89129 0.24345 0.0
H3346 H 0.84801 0.88016 0.22465 0.0
H3347 H 0.87601 0.92264 0.21862 0.0
H3348 H 0.84018 0.92181 0.19534 0.0
H3349 H 0.85272 0.92902 0.18543 0.0
H3350 H 0.84809 0.93684 0.20093 0.0
H3351 H 0.86953 0.93739 0.21092 0.0
H3352 H 0.88105 0.92653 0.20238 0.0
C3353 C 0.86994 0.86633 0.21519 0.0
C3354 C 0.84738 0.86462 0.20249 0.0
C3355 C 0.89242 0.91827 0.156 0.0
C3356 C 0.89356 0.93211 0.15787 0.0
C3357 C 0.88617 0.93828 0.16806 0.0
C3358 C 0.87817 0.93072 0.17662 0.0
C3359 C 0.87777 0.9168 0.17517 0.0
C3360 C 0.88463 0.9108 0.16485 0.0
C3361 C 0.8836 0.89584 0.16532 0.0
C3362 C 0.87522 0.89388 0.17778 0.0
C3363 C 0.87184 0.9062 0.18346 0.0
C3364 C 0.89785 0.89009 0.16691 0.0
C3365 C 0.87622 0.8911 0.15263 0.0
C3366 C 0.84757 0.91879 0.22593 0.0
C3367 C 0.84198 0.91131 0.23634 0.0
C3368 C 0.84222 0.89729 0.23557 0.0
C3369 C 0.84806 0.89084 0.22463 0.0
C3370 C 0.85381 0.89848 0.2144 0.0
C3371 C 0.85342 0.91221 0.21514 0.0
C3372 C 0.86029 0.91876 0.20358 0.0
C3373 C 0.86468 0.90669 0.19562 0.0
C3374 C 0.86092 0.89484 0.20202 0.0
C3375 C 0.8723 0.92684 0.20905 0.0
C3376 C 0.84987 0.92715 0.19589 0.0
H3377 H 0.88367 0.86686 0.16164 0.0
H3378 H 0.86714 0.84057 0.20016 0.0
H3379 H 0.8436 0.86189 0.19243 0.0
H3380 H 0.84096 0.87296 0.20571 0.0
H3381 H 0.84571 0.85596 0.20916 0.0
H3382 H 0.88085 0.86565 0.21337 0.0
H3383 H 0.86676 0.85696 0.22016 0.0
H3384 H 0.86875 0.87466 0.22225 0.0
H3385 H 0.89818 0.91323 0.14839 0.0
H3386 H 0.8869 0.94893 0.16966 0.0
H3387 H 0.87298 0.93598 0.18433 0.0
H3388 H 0.90383 0.89632 0.17387 0.0
H3389 H 0.90316 0.88986 0.15721 0.0
H3390 H 0.89805 0.88001 0.17125 0.0
H3391 H 0.86873 0.89859 0.14934 0.0
H3392 H 0.87042 0.88189 0.15428 0.0
H3393 H 0.88327 0.88952 0.14425 0.0
H3394 H 0.88686 0.84312 0.16191 0.0
C3395 C 0.87989 0.86151 0.17009 0.0
C3396 C 0.8284 0.10884 0.98376 0.0
C3397 C 0.83607 0.10039 0.99187 0.0
C3398 C 0.85006 0.10069 0.99073 0.0
C3399 C 0.84849 0.11778 0.97374 0.0
C3400 C 0.83478 0.11748 0.9749 0.0
C3401 C 0.82807 0.12748 0.96603 0.0
H3402 H 0.83297 0.17513 0.9188 0.0
C3403 C 0.85194 0.12813 0.96387 0.0
C3404 C 0.84002 0.13394 0.95942 0.0
H3405 H 0.79719 0.15942 0.93701 0.0
H3406 H 0.81049 0.14527 0.95115 0.0
H3407 H 0.84902 0.17883 0.94458 0.0
H3408 H 0.84864 0.14635 0.91667 0.0
H3409 H 0.86529 0.15075 0.92007 0.0
H3410 H 0.8543 0.16288 0.91287 0.0
H3411 H 0.85891 0.17925 0.92971 0.0
H3412 H 0.86513 0.17204 0.94499 0.0
C3413 C 0.82031 0.13745 0.97492 0.0
C3414 C 0.81934 0.11977 0.9559 0.0
C3415 C 0.9002 0.13512 0.95004 0.0
C3416 C 0.90629 0.14414 0.94122 0.0
C3417 C 0.89844 0.15403 0.93506 0.0
C3418 C 0.88469 0.15459 0.93718 0.0
C3419 C 0.87866 0.1452 0.94558 0.0
C3420 C 0.88641 0.13591 0.95216 0.0
C3421 C 0.87827 0.12723 0.96128 0.0
C3422 C 0.86433 0.13254 0.95867 0.0
C3423 C 0.86464 0.14294 0.94934 0.0
C3424 C 0.88284 0.12981 0.97581 0.0
C3425 C 0.87978 0.1126 0.95664 0.0
C3426 C 0.82797 0.16865 0.92584 0.0
C3427 C 0.81398 0.16835 0.92671 0.0
C3428 C 0.80793 0.15985 0.9361 0.0
C3429 C 0.81568 0.1516 0.94429 0.0
C3430 C 0.82964 0.15183 0.94309 0.0
C3431 C 0.83555 0.16037 0.93407 0.0
C3432 C 0.85049 0.15939 0.93421 0.0
C3433 C 0.85258 0.14875 0.94475 0.0
C3434 C 0.84034 0.1443 0.94982 0.0
C3435 C 0.85628 0.17306 0.9385 0.0
C3436 C 0.85504 0.15466 0.92024 0.0
H3437 H 0.86698 0.10908 0.98127 0.0
H3438 H 0.81763 0.10896 0.98448 0.0
H3439 H 0.82439 0.11046 0.95264 0.0
H3440 H 0.81749 0.12538 0.94663 0.0
H3441 H 0.80964 0.11693 0.96038 0.0
H3442 H 0.82545 0.13898 0.98462 0.0
H3443 H 0.81011 0.13376 0.9771 0.0
H3444 H 0.81964 0.1475 0.97051 0.0
H3445 H 0.90599 0.12752 0.95505 0.0
H3446 H 0.90285 0.1611 0.92821 0.0
H3447 H 0.87927 0.16218 0.93199 0.0
H3448 H 0.88682 0.14008 0.97703 0.0
H3449 H 0.89082 0.12277 0.97881 0.0
H3450 H 0.87455 0.12918 0.98303 0.0
H3451 H 0.87916 0.11194 0.94559 0.0
H3452 H 0.87185 0.10603 0.96043 0.0
H3453 H 0.88957 0.10847 0.95973 0.0
H3454 H 0.85619 0.09428 0.99687 0.0
C3455 C 0.85631 0.10931 0.98169 0.0
C3456 C 0.80696 0.6347 0.85146 0.0
C3457 C 0.81884 0.63037 0.84546 0.0
C3458 C 0.82898 0.62491 0.85348 0.0
C3459 C 0.81512 0.62725 0.87302 0.0
C3460 C 0.80543 0.63329 0.86531 0.0
C3461 C 0.79395 0.63821 0.87362 0.0
H3462 H 0.76564 0.64461 0.93459 0.0
C3463 C 0.81037 0.62684 0.88691 0.0
C3464 C 0.79807 0.63347 0.88741 0.0
H3465 H 0.75221 0.66153 0.8973 0.0
H3466 H 0.77041 0.65083 0.88575 0.0
H3467 H 0.77164 0.61621 0.92314 0.0
H3468 H 0.79702 0.64992 0.9303 0.0
H3469 H 0.80503 0.63556 0.93647 0.0
H3470 H 0.78916 0.64037 0.94324 0.0
H3471 H 0.77843 0.61949 0.93933 0.0
H3472 H 0.78727 0.60955 0.92721 0.0
C3473 C 0.7811 0.63121 0.86878 0.0
C3474 C 0.79353 0.65363 0.87265 0.0
C3475 C 0.83598 0.6001 0.92142 0.0
C3476 C 0.83323 0.5966 0.93472 0.0
C3477 C 0.82182 0.60188 0.94094 0.0
C3478 C 0.81323 0.61042 0.934 0.0
C3479 C 0.81596 0.61359 0.92063 0.0
C3480 C 0.82716 0.60842 0.91455 0.0
C3481 C 0.82816 0.61234 0.90011 0.0
C3482 C 0.81561 0.62064 0.8985 0.0
C3483 C 0.80859 0.62141 0.91057 0.0
C3484 C 0.82768 0.59945 0.89165 0.0
C3485 C 0.84099 0.62073 0.89817 0.0
C3486 C 0.7666 0.64604 0.92394 0.0
C3487 C 0.75755 0.65404 0.91688 0.0
C3488 C 0.7591 0.65547 0.90299 0.0
C3489 C 0.7697 0.64931 0.8963 0.0
C3490 C 0.77887 0.64162 0.90357 0.0
C3491 C 0.77713 0.63998 0.91713 0.0
C3492 C 0.78772 0.63135 0.92325 0.0
C3493 C 0.79646 0.6286 0.91124 0.0
C3494 C 0.7912 0.63458 0.89973 0.0
C3495 C 0.78101 0.6185 0.92862 0.0
C3496 C 0.79514 0.63963 0.93395 0.0
H3497 H 0.83518 0.61886 0.87269 0.0
H3498 H 0.79914 0.63923 0.84557 0.0
H3499 H 0.80359 0.65783 0.87066 0.0
H3500 H 0.79038 0.65839 0.88206 0.0
H3501 H 0.78686 0.65695 0.86447 0.0
H3502 H 0.78296 0.62042 0.86712 0.0
H3503 H 0.77758 0.63556 0.85923 0.0
H3504 H 0.77293 0.63173 0.87611 0.0
H3505 H 0.8446 0.5961 0.9163 0.0
H3506 H 0.8195 0.59936 0.95117 0.0
H3507 H 0.80471 0.61412 0.93928 0.0
H3508 H 0.81957 0.59278 0.89521 0.0
H3509 H 0.83721 0.59388 0.89242 0.0
H3510 H 0.8256 0.60125 0.88103 0.0
H3511 H 0.84422 0.62552 0.90763 0.0
H3512 H 0.8395 0.62912 0.89117 0.0
H3513 H 0.84938 0.61447 0.89459 0.0
H3514 H 0.83825 0.62156 0.84911 0.0
C3515 C 0.82716 0.62326 0.86719 0.0
C3516 C 0.307 0.86435 0.14782 0.0
C3517 C 0.31887 0.86867 0.15385 0.0
C3518 C 0.32904 0.87411 0.14584 0.0
C3519 C 0.31521 0.87176 0.12627 0.0
C3520 C 0.3055 0.86575 0.13398 0.0
C3521 C 0.29403 0.86083 0.12565 0.0
H3522 H 0.26581 0.8544 0.06464 0.0
C3523 C 0.31049 0.87217 0.11238 0.0
C3524 C 0.29819 0.86555 0.11186 0.0
H3525 H 0.25229 0.83756 0.10193 0.0
H3526 H 0.27049 0.84824 0.11349 0.0
H3527 H 0.27188 0.88281 0.07606 0.0
H3528 H 0.29716 0.84902 0.06899 0.0
H3529 H 0.30524 0.86334 0.06284 0.0
H3530 H 0.28938 0.85858 0.05602 0.0
H3531 H 0.27865 0.87946 0.05988 0.0
H3532 H 0.28752 0.88942 0.07197 0.0
C3533 C 0.28118 0.86786 0.13045 0.0
C3534 C 0.29358 0.84542 0.12664 0.0
C3535 C 0.33621 0.89882 0.07787 0.0
C3536 C 0.33351 0.90228 0.06456 0.0
C3537 C 0.32211 0.89698 0.05832 0.0
C3538 C 0.31349 0.88847 0.06526 0.0
C3539 C 0.31618 0.88534 0.07865 0.0
C3540 C 0.32737 0.89051 0.08474 0.0
C3541 C 0.32833 0.88662 0.09918 0.0
C3542 C 0.31576 0.87833 0.10078 0.0
C3543 C 0.30877 0.87755 0.0887 0.0
C3544 C 0.32785 0.89953 0.10762 0.0
C3545 C 0.34115 0.87822 0.10117 0.0
C3546 C 0.26676 0.85299 0.07529 0.0
C3547 C 0.25767 0.84502 0.08234 0.0
C3548 C 0.25919 0.84359 0.09624 0.0
C3549 C 0.2698 0.84975 0.10294 0.0
C3550 C 0.279 0.8574 0.09567 0.0
C3551 C 0.27729 0.85903 0.08211 0.0
C3552 C 0.28791 0.86762 0.076 0.0
C3553 C 0.29663 0.87037 0.08802 0.0
C3554 C 0.29134 0.86443 0.09953 0.0
C3555 C 0.28123 0.88048 0.07059 0.0
C3556 C 0.29533 0.85931 0.06532 0.0
H3557 H 0.33528 0.88014 0.12664 0.0
H3558 H 0.29916 0.85983 0.15371 0.0
H3559 H 0.30363 0.8412 0.12865 0.0
H3560 H 0.29043 0.84065 0.11723 0.0
H3561 H 0.28689 0.84212 0.13481 0.0
H3562 H 0.28305 0.87865 0.13211 0.0
H3563 H 0.27764 0.86353 0.13999 0.0
H3564 H 0.27302 0.86735 0.1231 0.0
H3565 H 0.34482 0.90281 0.08301 0.0
H3566 H 0.31983 0.89947 0.04807 0.0
H3567 H 0.30498 0.88477 0.05996 0.0
H3568 H 0.31976 0.9062 0.10404 0.0
H3569 H 0.33739 0.90509 0.10686 0.0
H3570 H 0.32575 0.89774 0.11824 0.0
H3571 H 0.34439 0.87341 0.09173 0.0
H3572 H 0.33962 0.86984 0.10818 0.0
H3573 H 0.34954 0.88447 0.10476 0.0
H3574 H 0.33831 0.87745 0.15023 0.0
C3575 C 0.32724 0.87575 0.13213 0.0
C3576 C 0.85248 0.57903 0.81202 0.0
C3577 C 0.847 0.59142 0.81556 0.0
C3578 C 0.85012 0.59696 0.82808 0.0
C3579 C 0.86275 0.5773 0.83386 0.0
C3580 C 0.86048 0.57225 0.82125 0.0
C3581 C 0.86735 0.55908 0.81918 0.0
H3582 H 0.90324 0.50806 0.84477 0.0
C3583 C 0.87034 0.56732 0.8415 0.0
C3584 C 0.87325 0.5567 0.83293 0.0
H3585 H 0.89189 0.51479 0.80373 0.0
H3586 H 0.8806 0.53499 0.81002 0.0
H3587 H 0.91146 0.5389 0.85142 0.0
H3588 H 0.87535 0.51647 0.85736 0.0
H3589 H 0.87665 0.52763 0.87075 0.0
H3590 H 0.88923 0.51496 0.8685 0.0
H3591 H 0.91016 0.52493 0.86254 0.0
H3592 H 0.90565 0.54142 0.86783 0.0
C3593 C 0.87826 0.56094 0.80838 0.0
C3594 C 0.85667 0.54853 0.81564 0.0
C3595 C 0.87599 0.57361 0.89123 0.0
C3596 C 0.88017 0.56511 0.90153 0.0
C3597 C 0.88549 0.55254 0.89826 0.0
C3598 C 0.88642 0.54845 0.8849 0.0
C3599 C 0.88179 0.55694 0.87474 0.0
C3600 C 0.87668 0.56928 0.87803 0.0
C3601 C 0.87118 0.57658 0.86619 0.0
C3602 C 0.87375 0.56655 0.8552 0.0
C3603 C 0.88017 0.55517 0.86019 0.0
C3604 C 0.87948 0.58945 0.8642 0.0
C3605 C 0.85609 0.57899 0.86858 0.0
C3606 C 0.89829 0.51387 0.83715 0.0
C3607 C 0.89851 0.50984 0.82372 0.0
C3608 C 0.89194 0.5177 0.81412 0.0
C3609 C 0.88541 0.52946 0.81778 0.0
C3610 C 0.88547 0.53347 0.83117 0.0
C3611 C 0.89182 0.52573 0.84062 0.0
C3612 C 0.89097 0.53173 0.85435 0.0
C3613 C 0.88359 0.54461 0.85143 0.0
C3614 C 0.88024 0.54545 0.83786 0.0
C3615 C 0.90528 0.53436 0.85942 0.0
C3616 C 0.88272 0.52224 0.86331 0.0
H3617 H 0.85956 0.59454 0.84676 0.0
H3618 H 0.85048 0.57467 0.80235 0.0
H3619 H 0.84792 0.54946 0.82237 0.0
H3620 H 0.86027 0.53821 0.81682 0.0
H3621 H 0.85312 0.54983 0.80524 0.0
H3622 H 0.88131 0.57154 0.80739 0.0
H3623 H 0.87472 0.55758 0.79845 0.0
H3624 H 0.88758 0.5556 0.81089 0.0
H3625 H 0.87161 0.58323 0.89339 0.0
H3626 H 0.88875 0.54581 0.90603 0.0
H3627 H 0.89047 0.53874 0.883 0.0
H3628 H 0.89012 0.58774 0.86678 0.0
H3629 H 0.87575 0.59764 0.87062 0.0
H3630 H 0.87964 0.59284 0.85372 0.0
H3631 H 0.85163 0.57083 0.87462 0.0
H3632 H 0.85017 0.57908 0.85932 0.0
H3633 H 0.85436 0.58847 0.87402 0.0
H3634 H 0.84608 0.60651 0.83103 0.0
C3635 C 0.8579 0.58996 0.83725 0.0
C3636 C 0.23203 0.15188 0.58827 0.0
C3637 C 0.23618 0.15221 0.57489 0.0
C3638 C 0.2281 0.1463 0.56506 0.0
C3639 C 0.21198 0.14 0.58184 0.0
C3640 C 0.21985 0.14585 0.59149 0.0
C3641 C 0.21365 0.14503 0.60513 0.0
H3642 H 0.16111 0.12662 0.64326 0.0
C3643 C 0.1998 0.135 0.58832 0.0
C3644 C 0.20058 0.13811 0.60194 0.0
H3645 H 0.19862 0.14309 0.65655 0.0
H3646 H 0.20612 0.14466 0.63365 0.0
H3647 H 0.15763 0.14546 0.61621 0.0
H3648 H 0.17282 0.10656 0.62519 0.0
H3649 H 0.16612 0.1052 0.60914 0.0
H3650 H 0.15537 0.10952 0.62285 0.0
H3651 H 0.14734 0.13155 0.6207 0.0
H3652 H 0.15198 0.13466 0.60361 0.0
C3653 C 0.21143 0.15937 0.61034 0.0
C3654 C 0.22275 0.13636 0.61409 0.0
C3655 C 0.16626 0.10782 0.56186 0.0
C3656 C 0.15383 0.10234 0.56523 0.0
C3657 C 0.14817 0.10536 0.57772 0.0
C3658 C 0.1551 0.11305 0.58703 0.0
C3659 C 0.16779 0.11792 0.58379 0.0
C3660 C 0.17297 0.11573 0.57122 0.0
C3661 C 0.18621 0.1225 0.56934 0.0
C3662 C 0.1885 0.12824 0.58318 0.0
C3663 C 0.17775 0.12537 0.5916 0.0
C3664 C 0.18456 0.13355 0.55865 0.0
C3665 C 0.1967 0.11178 0.56579 0.0
C3666 C 0.17085 0.13082 0.64127 0.0
C3667 C 0.17925 0.13485 0.65172 0.0
C3668 C 0.19196 0.13995 0.64866 0.0
C3669 C 0.1963 0.1408 0.63537 0.0
C3670 C 0.1879 0.13635 0.62507 0.0
C3671 C 0.17541 0.13147 0.62815 0.0
C3672 C 0.16817 0.12619 0.61616 0.0
C3673 C 0.17841 0.12864 0.60534 0.0
C3674 C 0.18984 0.1348 0.61054 0.0
C3675 C 0.15554 0.13479 0.61403 0.0
C3676 C 0.16536 0.11113 0.61838 0.0
H3677 H 0.21039 0.1358 0.56055 0.0
H3678 H 0.23799 0.15639 0.59605 0.0
H3679 H 0.22807 0.12867 0.60814 0.0
H3680 H 0.2171 0.13063 0.62161 0.0
H3681 H 0.23039 0.14252 0.61919 0.0
H3682 H 0.2074 0.16584 0.6023 0.0
H3683 H 0.22094 0.16382 0.61382 0.0
H3684 H 0.20411 0.1599 0.61851 0.0
H3685 H 0.17072 0.10587 0.55223 0.0
H3686 H 0.1386 0.10127 0.58055 0.0
H3687 H 0.15045 0.11461 0.59652 0.0
H3688 H 0.17397 0.13659 0.55745 0.0
H3689 H 0.18814 0.13015 0.54875 0.0
H3690 H 0.18982 0.14285 0.5614 0.0
H3691 H 0.19569 0.103 0.57248 0.0
H3692 H 0.20704 0.11529 0.56699 0.0
H3693 H 0.1954 0.10828 0.55537 0.0
H3694 H 0.23109 0.14638 0.55469 0.0
C3695 C 0.21606 0.14017 0.56847 0.0
C3696 C 0.11207 0.93801 0.89912 0.0
C3697 C 0.11549 0.92569 0.90481 0.0
C3698 C 0.12019 0.91538 0.89652 0.0
C3699 C 0.11892 0.92989 0.87735 0.0
C3700 C 0.11363 0.93979 0.88533 0.0
C3701 C 0.1097 0.95188 0.87735 0.0
H3702 H 0.10565 0.98231 0.81722 0.0
C3703 C 0.11975 0.93498 0.8636 0.0
C3704 C 0.11412 0.94778 0.86345 0.0
H3705 H 0.09042 0.99634 0.855 0.0
H3706 H 0.09936 0.97687 0.86598 0.0
H3707 H 0.13326 0.97388 0.82811 0.0
H3708 H 0.09778 0.95115 0.82075 0.0
H3709 H 0.1115 0.94237 0.81415 0.0
H3710 H 0.10774 0.95876 0.80798 0.0
H3711 H 0.12964 0.96732 0.81191 0.0
H3712 H 0.13883 0.95781 0.82411 0.0
C3713 C 0.11772 0.96396 0.88257 0.0
C3714 C 0.09437 0.95352 0.87832 0.0
C3715 C 0.14468 0.90847 0.82841 0.0
C3716 C 0.14853 0.91142 0.81526 0.0
C3717 C 0.14406 0.92333 0.80934 0.0
C3718 C 0.13601 0.93224 0.81647 0.0
C3719 C 0.13256 0.92933 0.82973 0.0
C3720 C 0.1369 0.91761 0.83549 0.0
C3721 C 0.13288 0.91651 0.8499 0.0
C3722 C 0.12552 0.92959 0.85186 0.0
C3723 C 0.12529 0.93697 0.83999 0.0
C3724 C 0.14575 0.91579 0.85838 0.0
C3725 C 0.12356 0.90428 0.85147 0.0
C3726 C 0.10418 0.98118 0.82785 0.0
C3727 C 0.09719 0.99079 0.83522 0.0
C3728 C 0.09572 0.98904 0.84908 0.0
C3729 C 0.10086 0.9777 0.85543 0.0
C3730 C 0.10758 0.96803 0.84785 0.0
C3731 C 0.10928 0.96996 0.83433 0.0
C3732 C 0.11702 0.95889 0.8279 0.0
C3733 C 0.11908 0.94965 0.83966 0.0
C3734 C 0.11357 0.95505 0.85133 0.0
C3735 C 0.13035 0.96469 0.82263 0.0
C3736 C 0.10815 0.95243 0.81705 0.0
H3737 H 0.12578 0.90925 0.87715 0.0
H3738 H 0.10815 0.946 0.90522 0.0
H3739 H 0.08935 0.94372 0.87963 0.0
H3740 H 0.08994 0.95768 0.86915 0.0
H3741 H 0.09156 0.95988 0.88693 0.0
H3742 H 0.12826 0.96111 0.88444 0.0
H3743 H 0.11349 0.9677 0.89209 0.0
H3744 H 0.11814 0.97226 0.87538 0.0
H3745 H 0.14808 0.89947 0.83329 0.0
H3746 H 0.14687 0.9258 0.79922 0.0
H3747 H 0.13293 0.94113 0.81142 0.0
H3748 H 0.153 0.9235 0.85508 0.0
H3749 H 0.15061 0.90591 0.85732 0.0
H3750 H 0.14407 0.91767 0.86906 0.0
H3751 H 0.11853 0.90172 0.84193 0.0
H3752 H 0.11531 0.90618 0.85854 0.0
H3753 H 0.12918 0.89534 0.85477 0.0
H3754 H 0.12284 0.90577 0.90065 0.0
C3755 C 0.12198 0.91743 0.88287 0.0
C3756 C 0.73353 0.34744 0.40895 0.0
C3757 C 0.7379 0.34705 0.42226 0.0
C3758 C 0.72978 0.35257 0.4323 0.0
C3759 C 0.71324 0.35863 0.41584 0.0
C3760 C 0.72114 0.35313 0.406 0.0
C3761 C 0.7147 0.35392 0.39247 0.0
H3762 H 0.66134 0.37162 0.3552 0.0
C3763 C 0.70083 0.36337 0.40959 0.0
C3764 C 0.7015 0.36044 0.39593 0.0
H3765 H 0.69899 0.35598 0.34132 0.0
H3766 H 0.70675 0.35427 0.36411 0.0
H3767 H 0.65845 0.35237 0.38192 0.0
H3768 H 0.673 0.39167 0.37361 0.0
H3769 H 0.66606 0.39263 0.38958 0.0
H3770 H 0.65559 0.3883 0.37567 0.0
H3771 H 0.64785 0.3662 0.37794 0.0
H3772 H 0.65286 0.36276 0.39487 0.0
C3773 C 0.71281 0.33958 0.38714 0.0
C3774 C 0.72342 0.36294 0.38347 0.0
C3775 C 0.66709 0.38959 0.43674 0.0
C3776 C 0.6545 0.39484 0.43358 0.0
C3777 C 0.6487 0.39175 0.42117 0.0
C3778 C 0.65565 0.38425 0.41172 0.0
C3779 C 0.6685 0.37965 0.41473 0.0
C3780 C 0.67381 0.38187 0.42724 0.0
C3781 C 0.68723 0.37538 0.42887 0.0
C3782 C 0.68945 0.36981 0.41495 0.0
C3783 C 0.67851 0.37251 0.40671 0.0
C3784 C 0.68597 0.3642 0.43949 0.0
C3785 C 0.69753 0.3863 0.43237 0.0
C3786 C 0.67117 0.36757 0.35703 0.0
C3787 C 0.67953 0.36382 0.34645 0.0
C3788 C 0.69236 0.35891 0.34931 0.0
C3789 C 0.69685 0.35797 0.36254 0.0
C3790 C 0.68849 0.36216 0.37299 0.0
C3791 C 0.67588 0.36684 0.3701 0.0
C3792 C 0.66867 0.37181 0.38224 0.0
C3793 C 0.67907 0.36942 0.39292 0.0
C3794 C 0.69057 0.36358 0.38751 0.0
C3795 C 0.65623 0.36294 0.38439 0.0
C3796 C 0.66555 0.38684 0.38025 0.0
H3797 H 0.71184 0.36248 0.43721 0.0
H3798 H 0.7395 0.34321 0.40102 0.0
H3799 H 0.72859 0.37074 0.38942 0.0
H3800 H 0.71752 0.36856 0.37607 0.0
H3801 H 0.73118 0.35706 0.37823 0.0
H3802 H 0.70918 0.33289 0.3952 0.0
H3803 H 0.72236 0.33547 0.38337 0.0
H3804 H 0.70529 0.3389 0.37916 0.0
H3805 H 0.67166 0.3916 0.44631 0.0
H3806 H 0.63901 0.39565 0.41851 0.0
H3807 H 0.65089 0.38264 0.40229 0.0
H3808 H 0.67547 0.36091 0.4408 0.0
H3809 H 0.68962 0.3676 0.44937 0.0
H3810 H 0.6914 0.35505 0.43659 0.0
H3811 H 0.69627 0.39509 0.42574 0.0
H3812 H 0.70793 0.383 0.43105 0.0
H3813 H 0.69628 0.38971 0.44282 0.0
H3814 H 0.73294 0.35244 0.44262 0.0
C3815 C 0.71751 0.35838 0.42915 0.0
C3816 C 0.85266 0.41984 0.6872 0.0
C3817 C 0.84718 0.40746 0.68362 0.0
C3818 C 0.85015 0.40206 0.67101 0.0
C3819 C 0.86251 0.42188 0.6652 0.0
C3820 C 0.86046 0.42677 0.67791 0.0
C3821 C 0.86734 0.43992 0.68002 0.0
H3822 H 0.90266 0.49135 0.65444 0.0
C3823 C 0.8699 0.43199 0.65753 0.0
C3824 C 0.87297 0.4425 0.66619 0.0
H3825 H 0.89219 0.48399 0.69561 0.0
H3826 H 0.88077 0.46388 0.68926 0.0
H3827 H 0.91072 0.46062 0.64709 0.0
H3828 H 0.87452 0.48317 0.64239 0.0
H3829 H 0.87541 0.47218 0.62883 0.0
H3830 H 0.88809 0.48478 0.63088 0.0
H3831 H 0.90916 0.47477 0.63624 0.0
H3832 H 0.90451 0.45837 0.63078 0.0
C3833 C 0.87847 0.43794 0.69058 0.0
C3834 C 0.85673 0.4504 0.68391 0.0
C3835 C 0.87413 0.42665 0.60754 0.0
C3836 C 0.87803 0.43535 0.59729 0.0
C3837 C 0.88349 0.44784 0.60066 0.0
C3838 C 0.88482 0.45166 0.61407 0.0
C3839 C 0.88044 0.44298 0.62418 0.0
C3840 C 0.8752 0.43072 0.6208 0.0
C3841 C 0.87003 0.4232 0.63265 0.0
C3842 C 0.87295 0.433 0.64376 0.0
C3843 C 0.87923 0.44447 0.6388 0.0
C3844 C 0.87829 0.41024 0.63414 0.0
C3845 C 0.85486 0.42093 0.63063 0.0
C3846 C 0.89788 0.48541 0.66208 0.0
C3847 C 0.89838 0.48924 0.67556 0.0
C3848 C 0.89202 0.48124 0.68518 0.0
C3849 C 0.88542 0.46953 0.68148 0.0
C3850 C 0.8852 0.46571 0.66804 0.0
C3851 C 0.89134 0.4736 0.65857 0.0
C3852 C 0.89016 0.46782 0.64477 0.0
C3853 C 0.88286 0.4549 0.64766 0.0
C3854 C 0.87983 0.45384 0.66128 0.0
C3855 C 0.90435 0.46529 0.63931 0.0
C3856 C 0.8817 0.47746 0.63617 0.0
H3857 H 0.85928 0.40472 0.6522 0.0
H3858 H 0.8508 0.42409 0.69695 0.0
H3859 H 0.84786 0.44956 0.67733 0.0
H3860 H 0.8603 0.46074 0.68283 0.0
H3861 H 0.85337 0.44894 0.69435 0.0
H3862 H 0.88152 0.42732 0.69142 0.0
H3863 H 0.87515 0.44121 0.70061 0.0
H3864 H 0.88776 0.44328 0.68793 0.0
H3865 H 0.86966 0.41709 0.60531 0.0
H3866 H 0.88655 0.45471 0.59293 0.0
H3867 H 0.88895 0.46131 0.61604 0.0
H3868 H 0.88876 0.4118 0.63087 0.0
H3869 H 0.87406 0.40206 0.62802 0.0
H3870 H 0.8791 0.4069 0.64461 0.0
H3871 H 0.85022 0.42956 0.62546 0.0
H3872 H 0.84928 0.42 0.64004 0.0
H3873 H 0.85297 0.41194 0.62447 0.0
H3874 H 0.84613 0.39251 0.66803 0.0
C3875 C 0.85773 0.4092 0.66178 0.0
C3876 C 0.61203 0.56107 0.10022 0.0
C3877 C 0.61548 0.5734 0.09454 0.0
C3878 C 0.62021 0.58369 0.10285 0.0
C3879 C 0.61889 0.56915 0.122 0.0
C3880 C 0.61357 0.55927 0.11401 0.0
C3881 C 0.6096 0.54719 0.12196 0.0
H3882 H 0.6054 0.5167 0.18206 0.0
C3883 C 0.61969 0.56404 0.13574 0.0
C3884 C 0.61402 0.55126 0.13587 0.0
H3885 H 0.59023 0.50273 0.14423 0.0
H3886 H 0.59921 0.5222 0.13329 0.0
H3887 H 0.63305 0.52511 0.17122 0.0
H3888 H 0.59758 0.54787 0.17854 0.0
H3889 H 0.6113 0.55664 0.18515 0.0
H3890 H 0.60752 0.54026 0.19133 0.0
H3891 H 0.62938 0.53163 0.18743 0.0
H3892 H 0.63862 0.54116 0.17527 0.0
C3893 C 0.6176 0.5351 0.11674 0.0
C3894 C 0.59428 0.54559 0.12097 0.0
C3895 C 0.64463 0.59046 0.171 0.0
C3896 C 0.64843 0.5875 0.18416 0.0
C3897 C 0.6439 0.57561 0.19007 0.0
C3898 C 0.63584 0.56672 0.18292 0.0
C3899 C 0.63244 0.56964 0.16964 0.0
C3900 C 0.63684 0.58134 0.1639 0.0
C3901 C 0.63284 0.58247 0.14949 0.0
C3902 C 0.62545 0.56941 0.1475 0.0
C3903 C 0.62517 0.56203 0.15936 0.0
C3904 C 0.64573 0.58315 0.14103 0.0
C3905 C 0.62357 0.59473 0.1479 0.0
C3906 C 0.60395 0.51785 0.17143 0.0
C3907 C 0.59696 0.50825 0.16403 0.0
C3908 C 0.59552 0.51001 0.15017 0.0
C3909 C 0.60069 0.52135 0.14384 0.0
C3910 C 0.6074 0.53101 0.15144 0.0
C3911 C 0.60908 0.52906 0.16497 0.0
C3912 C 0.61682 0.54012 0.17142 0.0
C3913 C 0.61893 0.54936 0.15967 0.0
C3914 C 0.61343 0.54398 0.14798 0.0
C3915 C 0.63013 0.53429 0.17671 0.0
C3916 C 0.60794 0.54658 0.18226 0.0
H3917 H 0.62581 0.58977 0.12223 0.0
H3918 H 0.60809 0.5531 0.0941 0.0
H3919 H 0.58928 0.5554 0.11969 0.0
H3920 H 0.58982 0.5414 0.13012 0.0
H3921 H 0.59146 0.53926 0.11233 0.0
H3922 H 0.62815 0.53792 0.11488 0.0
H3923 H 0.61337 0.53136 0.10722 0.0
H3924 H 0.618 0.52679 0.12393 0.0
H3925 H 0.64808 0.59945 0.16613 0.0
H3926 H 0.64666 0.57313 0.2002 0.0
H3927 H 0.63271 0.55784 0.18796 0.0
H3928 H 0.65295 0.57542 0.14434 0.0
H3929 H 0.65063 0.59302 0.1421 0.0
H3930 H 0.64406 0.58128 0.13034 0.0
H3931 H 0.61854 0.59731 0.15743 0.0
H3932 H 0.61532 0.59285 0.14082 0.0
H3933 H 0.62922 0.60365 0.1446 0.0
H3934 H 0.62289 0.59329 0.09873 0.0
C3935 C 0.62199 0.58161 0.1165 0.0
C3936 C 0.59531 0.73943 0.84366 0.0
C3937 C 0.6062 0.74588 0.83767 0.0
C3938 C 0.6191 0.74075 0.83959 0.0
C3939 C 0.61022 0.72322 0.85364 0.0
C3940 C 0.59757 0.72827 0.85173 0.0
C3941 C 0.58729 0.72107 0.85993 0.0
H3942 H 0.57344 0.67659 0.90847 0.0
C3943 C 0.60923 0.71199 0.8631 0.0
C3944 C 0.59584 0.71074 0.86692 0.0
H3945 H 0.54608 0.70255 0.8877 0.0
H3946 H 0.56399 0.71052 0.87383 0.0
H3947 H 0.58725 0.66578 0.88255 0.0
H3948 H 0.59867 0.69666 0.90991 0.0
H3949 H 0.61254 0.68631 0.90675 0.0
H3950 H 0.59781 0.67925 0.91401 0.0
H3951 H 0.5963 0.66209 0.8975 0.0
H3952 H 0.60474 0.66623 0.88217 0.0
C3953 C 0.57715 0.71454 0.85031 0.0
C3954 C 0.58112 0.7312 0.86984 0.0
C3955 C 0.65099 0.687 0.8767 0.0
C3956 C 0.65333 0.67639 0.88552 0.0
C3957 C 0.64241 0.67031 0.89194 0.0
C3958 C 0.62943 0.67504 0.88996 0.0
C3959 C 0.62732 0.68597 0.88146 0.0
C3960 C 0.63797 0.69156 0.87479 0.0
C3961 C 0.63386 0.70299 0.86604 0.0
C3962 C 0.61897 0.70331 0.86852 0.0
C3963 C 0.61522 0.69345 0.8777 0.0
C3964 C 0.63716 0.69926 0.85143 0.0
C3965 C 0.64088 0.71579 0.87113 0.0
C3966 C 0.57117 0.68363 0.90066 0.0
C3967 C 0.55823 0.68871 0.89901 0.0
C3968 C 0.55596 0.69847 0.88918 0.0
C3969 C 0.56637 0.70307 0.88111 0.0
C3970 C 0.57925 0.69791 0.8829 0.0
C3971 C 0.58145 0.68819 0.89239 0.0
C3972 C 0.59571 0.68356 0.89258 0.0
C3973 C 0.60176 0.69246 0.88193 0.0
C3974 C 0.5921 0.70094 0.87642 0.0
C3975 C 0.5961 0.66864 0.88858 0.0
C3976 C 0.60157 0.6865 0.90654 0.0
H3977 H 0.63123 0.72599 0.84855 0.0
H3978 H 0.58531 0.74331 0.84258 0.0
H3979 H 0.58866 0.73863 0.87313 0.0
H3980 H 0.57759 0.72655 0.87915 0.0
H3981 H 0.57276 0.73675 0.86518 0.0
H3982 H 0.58223 0.71074 0.84122 0.0
H3983 H 0.56947 0.72181 0.84707 0.0
H3984 H 0.57218 0.70575 0.85467 0.0
H3985 H 0.65915 0.69187 0.87158 0.0
H3986 H 0.64394 0.66213 0.89882 0.0
H3987 H 0.62156 0.67017 0.89531 0.0
H3988 H 0.63475 0.68863 0.84947 0.0
H3989 H 0.64792 0.70072 0.8493 0.0
H3990 H 0.63127 0.70494 0.84409 0.0
H3991 H 0.64282 0.71525 0.88204 0.0
H3992 H 0.63471 0.72482 0.8699 0.0
H3993 H 0.6506 0.71731 0.86609 0.0
H3994 H 0.62763 0.74558 0.83508 0.0
C3995 C 0.62116 0.72938 0.84743 0.0
C3996 C 0.56449 0.39769 0.12868 0.0
C3997 C 0.57565 0.39948 0.13695 0.0
C3998 C 0.58162 0.38822 0.14286 0.0
C3999 C 0.56482 0.37392 0.13307 0.0
C4000 C 0.5593 0.38489 0.12686 0.0
C4001 C 0.54723 0.38134 0.11874 0.0
H4002 H 0.5033 0.3348 0.09772 0.0
C4003 C 0.55659 0.3622 0.1297 0.0
C4004 C 0.54636 0.36646 0.12118 0.0
H4005 H 0.50313 0.3771 0.08962 0.0
H4006 H 0.52342 0.37975 0.10221 0.0
H4007 H 0.53559 0.33008 0.09461 0.0
H4008 H 0.50985 0.33797 0.12798 0.0
H4009 H 0.52176 0.32641 0.1334 0.0
H4010 H 0.51054 0.32194 0.1201 0.0
H4011 H 0.52403 0.31802 0.10097 0.0
H4012 H 0.54058 0.31966 0.10778 0.0
C4013 C 0.55029 0.38457 0.10396 0.0
C4014 C 0.53507 0.38889 0.12457 0.0
C4015 C 0.56608 0.31762 0.15168 0.0
C4016 C 0.56016 0.30498 0.15062 0.0
C4017 C 0.5495 0.30323 0.14163 0.0
C4018 C 0.5448 0.31386 0.13389 0.0
C4019 C 0.55082 0.32643 0.13511 0.0
C4020 C 0.56144 0.32808 0.1437 0.0
C4021 C 0.56679 0.34208 0.14345 0.0
C4022 C 0.55722 0.34868 0.13381 0.0
C4023 C 0.5479 0.33947 0.12893 0.0
C4024 C 0.58112 0.34164 0.13772 0.0
C4025 C 0.56576 0.34794 0.1577 0.0
C4026 C 0.50775 0.3446 0.0985 0.0
C4027 C 0.50167 0.35576 0.09261 0.0
C4028 C 0.50763 0.36837 0.09408 0.0
C4029 C 0.51942 0.36988 0.1014 0.0
C4030 C 0.52522 0.35869 0.10749 0.0
C4031 C 0.5194 0.34631 0.10599 0.0
C4032 C 0.52653 0.33569 0.1138 0.0
C4033 C 0.53768 0.34372 0.12011 0.0
C4034 C 0.5369 0.35715 0.11632 0.0
C4035 C 0.53193 0.32521 0.10386 0.0
C4036 C 0.51673 0.33008 0.12434 0.0
H4037 H 0.58113 0.36735 0.14594 0.0
H4038 H 0.55969 0.40611 0.12394 0.0
H4039 H 0.53612 0.3903 0.13552 0.0
H4040 H 0.52563 0.38337 0.1234 0.0
H4041 H 0.53401 0.39891 0.12 0.0
H4042 H 0.56079 0.38203 0.10148 0.0
H4043 H 0.54886 0.39534 0.10187 0.0
H4044 H 0.54421 0.37872 0.09692 0.0
H4045 H 0.5738 0.31957 0.15889 0.0
H4046 H 0.54474 0.2936 0.1406 0.0
H4047 H 0.53661 0.31188 0.12732 0.0
H4048 H 0.5821 0.33368 0.13007 0.0
H4049 H 0.58851 0.33957 0.14565 0.0
H4050 H 0.58393 0.3509 0.1325 0.0
H4051 H 0.55652 0.34445 0.16273 0.0
H4052 H 0.56508 0.3589 0.15785 0.0
H4053 H 0.57436 0.34482 0.16393 0.0
H4054 H 0.59023 0.38927 0.14927 0.0
C4055 C 0.57628 0.37547 0.14096 0.0
C4056 C 0.94389 0.31158 0.3993 0.0
C4057 C 0.94331 0.31992 0.4105 0.0
C4058 C 0.93111 0.32587 0.414 0.0
C4059 C 0.92046 0.31571 0.39489 0.0
C4060 C 0.93239 0.30963 0.39164 0.0
C4061 C 0.93121 0.30097 0.37947 0.0
H4062 H 0.89187 0.27072 0.33397 0.0
C4063 C 0.91037 0.31144 0.38507 0.0
C4064 C 0.91659 0.30277 0.37603 0.0
H4065 H 0.93458 0.26754 0.33845 0.0
H4066 H 0.93417 0.28412 0.35583 0.0
H4067 H 0.88422 0.27272 0.36512 0.0
H4068 H 0.89175 0.30248 0.33522 0.0
H4069 H 0.87936 0.30903 0.34566 0.0
H4070 H 0.87605 0.29402 0.3363 0.0
H4071 H 0.87336 0.27571 0.35122 0.0
H4072 H 0.87184 0.28506 0.36644 0.0
C4073 C 0.93443 0.28648 0.38366 0.0
C4074 C 0.94047 0.30665 0.3685 0.0
C4075 C 0.86261 0.32757 0.38943 0.0
C4076 C 0.85085 0.32453 0.38245 0.0
C4077 C 0.85153 0.31592 0.37138 0.0
C4078 C 0.86365 0.31018 0.36752 0.0
C4079 C 0.87524 0.31303 0.37482 0.0
C4080 C 0.87463 0.32171 0.38549 0.0
C4081 C 0.88789 0.32336 0.39226 0.0
C4082 C 0.89659 0.31431 0.38382 0.0
C4083 C 0.88912 0.30828 0.37364 0.0
C4084 C 0.8866 0.31836 0.40684 0.0
C4085 C 0.89209 0.33814 0.39098 0.0
C4086 C 0.90112 0.2736 0.33873 0.0
C4087 C 0.91324 0.26768 0.33499 0.0
C4088 C 0.92511 0.27192 0.34119 0.0
C4089 C 0.92484 0.28149 0.35134 0.0
C4090 C 0.9126 0.28697 0.3553 0.0
C4091 C 0.90105 0.28331 0.34875 0.0
C4092 C 0.8891 0.29084 0.35375 0.0
C4093 C 0.89531 0.29924 0.3647 0.0
C4094 C 0.90903 0.29674 0.3657 0.0
C4095 C 0.87899 0.28063 0.35938 0.0
C4096 C 0.88365 0.2995 0.34218 0.0
H4097 H 0.91074 0.32875 0.40938 0.0
H4098 H 0.95313 0.30677 0.39647 0.0
H4099 H 0.94173 0.31761 0.36957 0.0
H4100 H 0.93634 0.30532 0.35836 0.0
H4101 H 0.95053 0.30207 0.36897 0.0
H4102 H 0.92962 0.28406 0.39335 0.0
H4103 H 0.94533 0.28504 0.38486 0.0
H4104 H 0.93067 0.27896 0.37661 0.0
H4105 H 0.86245 0.33409 0.39803 0.0
H4106 H 0.84263 0.31342 0.36581 0.0
H4107 H 0.86347 0.30357 0.35913 0.0
H4108 H 0.87851 0.31086 0.40787 0.0
H4109 H 0.88431 0.32668 0.41376 0.0
H4110 H 0.89564 0.31313 0.41035 0.0
H4111 H 0.89017 0.34186 0.38072 0.0
H4112 H 0.90281 0.33975 0.39274 0.0
H4113 H 0.88635 0.34449 0.398 0.0
H4114 H 0.93031 0.33183 0.42295 0.0
C4115 C 0.91971 0.32391 0.4062 0.0
C4116 C 0.98439 0.64189 0.58611 0.0
C4117 C 0.99035 0.65381 0.58188 0.0
C4118 C 0.98518 0.66604 0.58642 0.0
C4119 C 0.96912 0.65435 0.60015 0.0
C4120 C 0.97369 0.6424 0.59505 0.0
C4121 C 0.96593 0.6307 0.60026 0.0
H4122 H 0.91983 0.60637 0.64287 0.0
C4123 C 0.9585 0.65138 0.60989 0.0
C4124 C 0.9564 0.63756 0.6098 0.0
H4125 H 0.94302 0.58479 0.61364 0.0
H4126 H 0.95296 0.60533 0.60618 0.0
H4127 H 0.94229 0.62355 0.65297 0.0
H4128 H 0.91259 0.63236 0.62347 0.0
H4129 H 0.91394 0.64615 0.63427 0.0
H4130 H 0.90914 0.6302 0.6409 0.0
H4131 H 0.92607 0.62941 0.65756 0.0
H4132 H 0.9396 0.64076 0.6541 0.0
C4133 C 0.97571 0.62134 0.60766 0.0
C4134 C 0.95852 0.62411 0.58841 0.0
C4135 C 0.94089 0.6881 0.64008 0.0
C4136 C 0.93217 0.68799 0.65105 0.0
C4137 C 0.92618 0.67589 0.65486 0.0
C4138 C 0.92854 0.66416 0.64769 0.0
C4139 C 0.93727 0.66441 0.63676 0.0
C4140 C 0.94332 0.67623 0.63313 0.0
C4141 C 0.95282 0.67442 0.62167 0.0
C4142 C 0.95154 0.65955 0.61912 0.0
C4143 C 0.94236 0.65378 0.62796 0.0
C4144 C 0.96693 0.67827 0.62657 0.0
C4145 C 0.94774 0.68277 0.60973 0.0
C4146 C 0.92692 0.60607 0.63474 0.0
C4147 C 0.93064 0.59391 0.62884 0.0
C4148 C 0.93999 0.594 0.61837 0.0
C4149 C 0.94577 0.60595 0.61405 0.0
C4150 C 0.94224 0.61796 0.62031 0.0
C4151 C 0.93284 0.6179 0.63036 0.0
C4152 C 0.93053 0.63156 0.63607 0.0
C4153 C 0.93989 0.63986 0.62757 0.0
C4154 C 0.9468 0.63183 0.61845 0.0
C4155 C 0.93473 0.63139 0.65096 0.0
C4156 C 0.91577 0.63533 0.63367 0.0
H4157 H 0.97129 0.67597 0.59886 0.0
H4158 H 0.98797 0.63236 0.58254 0.0
H4159 H 0.95648 0.63142 0.58033 0.0
H4160 H 0.94858 0.62028 0.59123 0.0
H4161 H 0.96448 0.61589 0.58401 0.0
H4162 H 0.98274 0.62721 0.6139 0.0
H4163 H 0.98169 0.61541 0.60049 0.0
H4164 H 0.97071 0.61445 0.6146 0.0
H4165 H 0.94582 0.69721 0.63705 0.0
H4166 H 0.9201 0.67531 0.66372 0.0
H4167 H 0.9237 0.65529 0.65114 0.0
H4168 H 0.96883 0.67406 0.63665 0.0
H4169 H 0.96801 0.68926 0.62725 0.0
H4170 H 0.97498 0.67438 0.62022 0.0
H4171 H 0.9367 0.68367 0.60987 0.0
H4172 H 0.95003 0.67809 0.60002 0.0
H4173 H 0.95193 0.69301 0.60992 0.0
H4174 H 0.98957 0.67536 0.58322 0.0
C4175 C 0.97463 0.66638 0.59556 0.0
C4176 C 0.59489 0.25968 0.65576 0.0
C4177 C 0.60575 0.25323 0.6618 0.0
C4178 C 0.61866 0.25838 0.65996 0.0
C4179 C 0.60984 0.27591 0.64589 0.0
C4180 C 0.59717 0.27084 0.64772 0.0
C4181 C 0.58693 0.27805 0.63948 0.0
H4182 H 0.5733 0.32259 0.59092 0.0
C4183 C 0.60888 0.28715 0.63642 0.0
C4184 C 0.59552 0.28839 0.63254 0.0
H4185 H 0.54585 0.2966 0.61153 0.0
H4186 H 0.5637 0.28862 0.62548 0.0
H4187 H 0.58704 0.33334 0.61696 0.0
H4188 H 0.59852 0.30252 0.58956 0.0
H4189 H 0.6124 0.31282 0.59281 0.0
H4190 H 0.59771 0.31993 0.58548 0.0
H4191 H 0.59606 0.33707 0.602 0.0
H4192 H 0.60453 0.33292 0.61732 0.0
C4193 C 0.57675 0.28456 0.64905 0.0
C4194 C 0.58082 0.26793 0.62952 0.0
C4195 C 0.65073 0.31209 0.623 0.0
C4196 C 0.65312 0.32267 0.61417 0.0
C4197 C 0.64224 0.32878 0.6077 0.0
C4198 C 0.62923 0.32408 0.60965 0.0
C4199 C 0.62707 0.31317 0.61815 0.0
C4200 C 0.63769 0.30756 0.62487 0.0
C4201 C 0.63353 0.29614 0.63361 0.0
C4202 C 0.61865 0.29583 0.63105 0.0
C4203 C 0.61495 0.3057 0.62186 0.0
C4204 C 0.63676 0.29987 0.64823 0.0
C4205 C 0.64056 0.28333 0.62855 0.0
C4206 C 0.571 0.31554 0.59871 0.0
C4207 C 0.55805 0.31046 0.6003 0.0
C4208 C 0.55574 0.30068 0.6101 0.0
C4209 C 0.56611 0.29607 0.61822 0.0
C4210 C 0.579 0.30123 0.61649 0.0
C4211 C 0.58124 0.31097 0.60702 0.0
C4212 C 0.5955 0.31559 0.6069 0.0
C4213 C 0.60151 0.30669 0.61757 0.0
C4214 C 0.59182 0.2982 0.62303 0.0
C4215 C 0.59589 0.33051 0.61091 0.0
C4216 C 0.60142 0.31266 0.59296 0.0
H4217 H 0.63081 0.27316 0.65109 0.0
H4218 H 0.58488 0.25577 0.65679 0.0
H4219 H 0.58838 0.26052 0.62625 0.0
H4220 H 0.57731 0.27258 0.62021 0.0
H4221 H 0.57245 0.26235 0.63414 0.0
H4222 H 0.58177 0.28834 0.65818 0.0
H4223 H 0.56905 0.27728 0.65223 0.0
H4224 H 0.5718 0.29336 0.64468 0.0
H4225 H 0.65885 0.30721 0.62816 0.0
H4226 H 0.64381 0.33693 0.60081 0.0
H4227 H 0.6214 0.32895 0.60426 0.0
H4228 H 0.63437 0.31051 0.65017 0.0
H4229 H 0.64751 0.29839 0.65041 0.0
H4230 H 0.63083 0.2942 0.65554 0.0
H4231 H 0.64256 0.28387 0.61766 0.0
H4232 H 0.63437 0.27431 0.62975 0.0
H4233 H 0.65025 0.2818 0.63365 0.0
H4234 H 0.62716 0.25355 0.66452 0.0
C4235 C 0.62074 0.26975 0.65215 0.0
C4236 C 0.98454 0.35722 0.91333 0.0
C4237 C 0.99053 0.3453 0.91754 0.0
C4238 C 0.98538 0.33307 0.91299 0.0
C4239 C 0.96931 0.34474 0.89927 0.0
C4240 C 0.97384 0.35669 0.90438 0.0
C4241 C 0.96605 0.36838 0.89919 0.0
H4242 H 0.91993 0.39265 0.85657 0.0
C4243 C 0.95868 0.34769 0.88952 0.0
C4244 C 0.95654 0.36151 0.88963 0.0
H4245 H 0.94302 0.41425 0.88588 0.0
H4246 H 0.953 0.39372 0.89332 0.0
H4247 H 0.94246 0.37555 0.84648 0.0
H4248 H 0.91274 0.3666 0.8759 0.0
H4249 H 0.91414 0.35283 0.86509 0.0
H4250 H 0.90931 0.36878 0.85848 0.0
H4251 H 0.92626 0.36966 0.84184 0.0
H4252 H 0.93981 0.35834 0.8453 0.0
C4253 C 0.97581 0.37778 0.89182 0.0
C4254 C 0.95862 0.37493 0.91105 0.0
C4255 C 0.94127 0.31099 0.8592 0.0
C4256 C 0.93256 0.31109 0.84823 0.0
C4257 C 0.92652 0.32317 0.84444 0.0
C4258 C 0.92882 0.33489 0.85164 0.0
C4259 C 0.93754 0.33465 0.86258 0.0
C4260 C 0.94363 0.32285 0.86619 0.0
C4261 C 0.95311 0.32467 0.87767 0.0
C4262 C 0.95176 0.33952 0.88026 0.0
C4263 C 0.94258 0.34528 0.87142 0.0
C4264 C 0.96724 0.32088 0.87278 0.0
C4265 C 0.94804 0.31626 0.88959 0.0
C4266 C 0.92701 0.39296 0.86471 0.0
C4267 C 0.93069 0.40512 0.87064 0.0
C4268 C 0.94002 0.40504 0.88112 0.0
C4269 C 0.94583 0.3931 0.88543 0.0
C4270 C 0.94234 0.38109 0.87914 0.0
C4271 C 0.93295 0.38113 0.86908 0.0
C4272 C 0.93069 0.36748 0.86334 0.0
C4273 C 0.94007 0.35919 0.87184 0.0
C4274 C 0.94694 0.36723 0.88098 0.0
C4275 C 0.93491 0.36769 0.84846 0.0
C4276 C 0.91594 0.36366 0.86571 0.0
H4277 H 0.97152 0.32312 0.90052 0.0
H4278 H 0.9881 0.36676 0.91691 0.0
H4279 H 0.9566 0.3676 0.91912 0.0
H4280 H 0.94867 0.37873 0.90823 0.0
H4281 H 0.96454 0.38316 0.91546 0.0
H4282 H 0.98286 0.37195 0.88556 0.0
H4283 H 0.98178 0.38371 0.899 0.0
H4284 H 0.97079 0.38468 0.88489 0.0
H4285 H 0.94623 0.30189 0.86221 0.0
H4286 H 0.92045 0.32374 0.83558 0.0
H4287 H 0.92394 0.34375 0.84822 0.0
H4288 H 0.96915 0.32514 0.86273 0.0
H4289 H 0.96836 0.3099 0.87206 0.0
H4290 H 0.97526 0.32477 0.87917 0.0
H4291 H 0.93701 0.31529 0.88941 0.0
H4292 H 0.95027 0.32094 0.89931 0.0
H4293 H 0.9523 0.30606 0.88939 0.0
H4294 H 0.9898 0.32375 0.91617 0.0
C4295 C 0.97484 0.33272 0.90384 0.0
C4296 C 0.93901 0.69062 0.10446 0.0
C4297 C 0.93927 0.68165 0.09373 0.0
C4298 C 0.92741 0.67525 0.08986 0.0
C4299 C 0.91543 0.68624 0.10767 0.0
C4300 C 0.92701 0.69277 0.11127 0.0
C4301 C 0.92487 0.70225 0.12267 0.0
H4302 H 0.88179 0.73593 0.16188 0.0
C4303 C 0.90463 0.69097 0.11647 0.0
C4304 C 0.91008 0.7004 0.12524 0.0
H4305 H 0.92472 0.7389 0.16108 0.0
H4306 H 0.92587 0.72069 0.14541 0.0
H4307 H 0.87663 0.73035 0.13049 0.0
H4308 H 0.88195 0.70452 0.16423 0.0
H4309 H 0.8712 0.69603 0.15338 0.0
H4310 H 0.86608 0.71177 0.16046 0.0
H4311 H 0.86498 0.72897 0.144 0.0
H4312 H 0.86429 0.71786 0.12997 0.0
C4313 C 0.92817 0.71647 0.11767 0.0
C4314 C 0.93344 0.69756 0.13464 0.0
C4315 C 0.85756 0.67343 0.11025 0.0
C4316 C 0.84532 0.67672 0.11623 0.0
C4317 C 0.84511 0.68619 0.12658 0.0
C4318 C 0.85683 0.69253 0.13071 0.0
C4319 C 0.86892 0.68942 0.12439 0.0
C4320 C 0.86918 0.6799 0.11445 0.0
C4321 C 0.88288 0.67808 0.10867 0.0
C4322 C 0.89084 0.68792 0.11697 0.0
C4323 C 0.88258 0.69457 0.12609 0.0
C4324 C 0.88245 0.682 0.09371 0.0
C4325 C 0.88728 0.66353 0.11127 0.0
C4326 C 0.89141 0.73266 0.15826 0.0
C4327 C 0.90316 0.73898 0.16247 0.0
C4328 C 0.91553 0.73421 0.1579 0.0
C4329 C 0.91618 0.7237 0.14874 0.0
C4330 C 0.90433 0.71782 0.14419 0.0
C4331 C 0.89225 0.72197 0.14932 0.0
C4332 C 0.88081 0.71376 0.1442 0.0
C4333 C 0.88797 0.70445 0.13465 0.0
C4334 C 0.9017 0.70708 0.13448 0.0
C4335 C 0.87106 0.72315 0.13682 0.0
C4336 C 0.87457 0.70616 0.15612 0.0
H4337 H 0.90686 0.67218 0.09342 0.0
H4338 H 0.94796 0.69582 0.10752 0.0
H4339 H 0.93504 0.6866 0.1344 0.0
H4340 H 0.92855 0.69944 0.14433 0.0
H4341 H 0.94339 0.70239 0.13458 0.0
H4342 H 0.92378 0.71817 0.10764 0.0
H4343 H 0.9391 0.71793 0.11687 0.0
H4344 H 0.92407 0.7244 0.12405 0.0
H4345 H 0.85807 0.66626 0.10219 0.0
H4346 H 0.83583 0.6889 0.13137 0.0
H4347 H 0.85598 0.69978 0.1385 0.0
H4348 H 0.87419 0.68908 0.09158 0.0
H4349 H 0.88095 0.67313 0.08726 0.0
H4350 H 0.89153 0.68733 0.09047 0.0
H4351 H 0.8848 0.66052 0.12164 0.0
H4352 H 0.89813 0.66207 0.11028 0.0
H4353 H 0.88212 0.65656 0.1044 0.0
H4354 H 0.92723 0.66887 0.08118 0.0
C4355 C 0.91553 0.67738 0.09685 0.0
C4356 C 0.56495 0.60155 0.37099 0.0
C4357 C 0.57617 0.59977 0.36282 0.0
C4358 C 0.58216 0.61102 0.3569 0.0
C4359 C 0.56524 0.6253 0.36652 0.0
C4360 C 0.5597 0.61434 0.37272 0.0
C4361 C 0.54757 0.61788 0.38075 0.0
H4362 H 0.50346 0.6644 0.40142 0.0
C4363 C 0.55697 0.63702 0.3698 0.0
C4364 C 0.54669 0.63276 0.37826 0.0
H4365 H 0.5033 0.62211 0.4096 0.0
H4366 H 0.52365 0.61947 0.39711 0.0
H4367 H 0.53571 0.66918 0.4047 0.0
H4368 H 0.5102 0.66117 0.37117 0.0
H4369 H 0.5221 0.67277 0.36583 0.0
H4370 H 0.51078 0.6772 0.37905 0.0
H4371 H 0.52418 0.68121 0.39822 0.0
H4372 H 0.54077 0.67957 0.39153 0.0
C4373 C 0.55054 0.6147 0.39556 0.0
C4374 C 0.53547 0.61029 0.37486 0.0
C4375 C 0.56655 0.68156 0.34779 0.0
C4376 C 0.56063 0.69421 0.34882 0.0
C4377 C 0.5499 0.69596 0.35772 0.0
C4378 C 0.54515 0.68534 0.36543 0.0
C4379 C 0.55118 0.67277 0.36427 0.0
C4380 C 0.56185 0.67111 0.35575 0.0
C4381 C 0.56722 0.65712 0.35606 0.0
C4382 C 0.55759 0.65052 0.36566 0.0
C4383 C 0.54823 0.65974 0.37046 0.0
C4384 C 0.58151 0.65759 0.36187 0.0
C4385 C 0.56628 0.65123 0.34182 0.0
C4386 C 0.50793 0.65461 0.40068 0.0
C4387 C 0.50183 0.64345 0.40657 0.0
C4388 C 0.50781 0.63085 0.40514 0.0
C4389 C 0.51963 0.62934 0.39788 0.0
C4390 C 0.52546 0.64052 0.3918 0.0
C4391 C 0.51961 0.65289 0.39325 0.0
C4392 C 0.52677 0.66351 0.38546 0.0
C4393 C 0.53797 0.65549 0.37923 0.0
C4394 C 0.53718 0.64206 0.38304 0.0
C4395 C 0.5321 0.67402 0.3954 0.0
C4396 C 0.51702 0.66909 0.37485 0.0
H4397 H 0.58162 0.63188 0.35374 0.0
H4398 H 0.56014 0.59313 0.37573 0.0
H4399 H 0.5366 0.60885 0.36392 0.0
H4400 H 0.52601 0.6158 0.37595 0.0
H4401 H 0.5344 0.60029 0.37945 0.0
H4402 H 0.56102 0.61727 0.39811 0.0
H4403 H 0.54912 0.60394 0.39768 0.0
H4404 H 0.5444 0.62057 0.40255 0.0
H4405 H 0.57431 0.67961 0.34064 0.0
H4406 H 0.54514 0.70559 0.35872 0.0
H4407 H 0.53692 0.68732 0.37195 0.0
H4408 H 0.58247 0.6656 0.36947 0.0
H4409 H 0.58896 0.65959 0.35398 0.0
H4410 H 0.58428 0.64835 0.36718 0.0
H4411 H 0.55705 0.65466 0.33675 0.0
H4412 H 0.56565 0.64026 0.34169 0.0
H4413 H 0.57489 0.65438 0.33562 0.0
H4414 H 0.59082 0.60996 0.35057 0.0
C4415 C 0.57676 0.62376 0.35871 0.0
C4416 C 0.88689 0.56419 0.69308 0.0
C4417 C 0.89763 0.5641 0.68408 0.0
C4418 C 0.90151 0.57615 0.67803 0.0
C4419 C 0.88387 0.58792 0.68953 0.0
C4420 C 0.88024 0.57617 0.69572 0.0
C4421 C 0.86928 0.5782 0.70574 0.0
H4422 H 0.83262 0.62107 0.74245 0.0
C4423 C 0.87542 0.59869 0.69491 0.0
C4424 C 0.86689 0.59309 0.70448 0.0
H4425 H 0.83368 0.5781 0.74512 0.0
H4426 H 0.84777 0.57708 0.72566 0.0
H4427 H 0.86331 0.62598 0.73541 0.0
H4428 H 0.8285 0.62142 0.71088 0.0
H4429 H 0.83904 0.63236 0.70223 0.0
H4430 H 0.83263 0.63709 0.71838 0.0
H4431 H 0.8499 0.63782 0.73478 0.0
H4432 H 0.86347 0.63853 0.72313 0.0
C4433 C 0.87481 0.57434 0.71963 0.0
C4434 C 0.85699 0.57001 0.70127 0.0
C4435 C 0.88213 0.64622 0.67893 0.0
C4436 C 0.87646 0.65845 0.68276 0.0
C4437 C 0.86618 0.6585 0.69231 0.0
C4438 C 0.86188 0.64662 0.69824 0.0
C4439 C 0.86799 0.63455 0.69467 0.0
C4440 C 0.87778 0.63446 0.685 0.0
C4441 C 0.88332 0.62074 0.68263 0.0
C4442 C 0.87504 0.61258 0.69232 0.0
C4443 C 0.86621 0.62075 0.69943 0.0
C4444 C 0.89832 0.62081 0.68638 0.0
C4445 C 0.88046 0.61687 0.66798 0.0
C4446 C 0.83589 0.61145 0.73882 0.0
C4447 C 0.83227 0.59967 0.74546 0.0
C4448 C 0.83642 0.58732 0.74023 0.0
C4449 C 0.84469 0.58675 0.72899 0.0
C4450 C 0.84883 0.59864 0.7229 0.0
C4451 C 0.84403 0.61069 0.72752 0.0
C4452 C 0.84888 0.62224 0.71931 0.0
C4453 C 0.85792 0.6152 0.70945 0.0
C4454 C 0.85803 0.6014 0.71174 0.0
C4455 C 0.85676 0.63175 0.72857 0.0
C4456 C 0.8367 0.62873 0.71237 0.0
H4457 H 0.89807 0.59681 0.67564 0.0
H4458 H 0.88385 0.55515 0.69813 0.0
H4459 H 0.85634 0.56954 0.69021 0.0
H4460 H 0.84748 0.57455 0.70445 0.0
H4461 H 0.85752 0.55963 0.70504 0.0
H4462 H 0.88523 0.57792 0.72082 0.0
H4463 H 0.87484 0.56336 0.72097 0.0
H4464 H 0.86929 0.57887 0.72796 0.0
H4465 H 0.89011 0.64582 0.67167 0.0
H4466 H 0.86161 0.66777 0.69542 0.0
H4467 H 0.85418 0.64734 0.7056 0.0
H4468 H 0.90064 0.62874 0.69377 0.0
H4469 H 0.90468 0.6226 0.6775 0.0
H4470 H 0.90151 0.61149 0.6913 0.0
H4471 H 0.87015 0.61978 0.66512 0.0
H4472 H 0.88105 0.60604 0.66619 0.0
H4473 H 0.88745 0.622 0.66109 0.0
H4474 H 0.91027 0.57662 0.67181 0.0
C4475 C 0.89459 0.58799 0.68055 0.0
C4476 C 0.63621 0.59195 0.98823 0.0
C4477 C 0.64763 0.58819 0.99538 0.0
C4478 C 0.66023 0.59234 0.9908 0.0
C4479 C 0.64982 0.60494 0.97304 0.0
C4480 C 0.63755 0.60018 0.97704 0.0
C4481 C 0.62643 0.60512 0.96831 0.0
H4482 H 0.60537 0.64617 0.91931 0.0
C4483 C 0.64766 0.61416 0.96177 0.0
C4484 C 0.634 0.61414 0.95882 0.0
H4485 H 0.58226 0.6179 0.94224 0.0
H4486 H 0.60212 0.61057 0.95349 0.0
H4487 H 0.62151 0.65696 0.9419 0.0
H4488 H 0.63187 0.62578 0.91443 0.0
H4489 H 0.64533 0.63701 0.91576 0.0
H4490 H 0.62948 0.64292 0.90988 0.0
H4491 H 0.62856 0.66063 0.92591 0.0
H4492 H 0.63889 0.65762 0.94033 0.0
C4493 C 0.61655 0.61304 0.97712 0.0
C4494 C 0.62021 0.59298 0.96104 0.0
C4495 C 0.6861 0.64223 0.94444 0.0
C4496 C 0.68678 0.65262 0.9351 0.0
C4497 C 0.67506 0.65675 0.9286 0.0
C4498 C 0.66294 0.65027 0.9309 0.0
C4499 C 0.66242 0.63973 0.94008 0.0
C4500 C 0.67384 0.63597 0.9468 0.0
C4501 C 0.67122 0.62513 0.9568 0.0
C4502 C 0.65637 0.62294 0.9549 0.0
C4503 C 0.65131 0.63148 0.94504 0.0
C4504 C 0.67453 0.63072 0.9708 0.0
C4505 C 0.67942 0.61269 0.9528 0.0
C4506 C 0.60461 0.63827 0.92663 0.0
C4507 C 0.5922 0.63263 0.92991 0.0
C4508 C 0.59167 0.62244 0.93955 0.0
C4509 C 0.60322 0.6182 0.9461 0.0
C4510 C 0.61547 0.62425 0.94306 0.0
C4511 C 0.61606 0.63395 0.93331 0.0
C4512 C 0.62993 0.63935 0.93153 0.0
C4513 C 0.63755 0.63117 0.94175 0.0
C4514 C 0.629 0.62244 0.94851 0.0
C4515 C 0.6298 0.65443 0.93499 0.0
C4516 C 0.63446 0.63621 0.91713 0.0
H4517 H 0.67122 0.60377 0.97686 0.0
H4518 H 0.62641 0.5887 0.99136 0.0
H4519 H 0.62751 0.58472 0.95994 0.0
H4520 H 0.61716 0.59535 0.95071 0.0
H4521 H 0.61151 0.589 0.96659 0.0
H4522 H 0.62202 0.6195 0.98428 0.0
H4523 H 0.61011 0.60621 0.98298 0.0
H4524 H 0.61011 0.61985 0.97139 0.0
H4525 H 0.6949 0.63905 0.9498 0.0
H4526 H 0.67519 0.66528 0.92202 0.0
H4527 H 0.6544 0.65386 0.92559 0.0
H4528 H 0.671 0.64118 0.97177 0.0
H4529 H 0.68544 0.63068 0.97261 0.0
H4530 H 0.6696 0.62529 0.97896 0.0
H4531 H 0.68049 0.61199 0.94178 0.0
H4532 H 0.67455 0.60326 0.95573 0.0
H4533 H 0.68959 0.61303 0.95714 0.0
H4534 H 0.6692 0.58951 0.9961 0.0
C4535 C 0.66139 0.60071 0.97969 0.0
C4536 C 0.62212 0.3438 0.18868 0.0
C4537 C 0.6136 0.34183 0.17774 0.0
C4538 C 0.60854 0.35304 0.17094 0.0
C4539 C 0.61966 0.36775 0.18651 0.0
C4540 C 0.62504 0.35678 0.19285 0.0
C4541 C 0.63359 0.3606 0.20454 0.0
H4542 H 0.65904 0.40875 0.24427 0.0
C4543 C 0.62409 0.37977 0.19375 0.0
C4544 C 0.63239 0.37567 0.20422 0.0
H4545 H 0.66326 0.3661 0.24824 0.0
H4546 H 0.65035 0.36279 0.22822 0.0
H4547 H 0.66189 0.41052 0.21146 0.0
H4548 H 0.62871 0.40757 0.23846 0.0
H4549 H 0.62378 0.41828 0.2256 0.0
H4550 H 0.63763 0.42287 0.23607 0.0
H4551 H 0.65692 0.42387 0.22227 0.0
H4552 H 0.64951 0.4217 0.20604 0.0
C4553 C 0.648 0.35593 0.20167 0.0
C4554 C 0.62732 0.35457 0.21732 0.0
C4555 C 0.6048 0.42487 0.18156 0.0
C4556 C 0.60669 0.43777 0.18663 0.0
C4557 C 0.61626 0.43977 0.19671 0.0
C4558 C 0.62368 0.42907 0.20178 0.0
C4559 C 0.62149 0.41619 0.19675 0.0
C4560 C 0.61243 0.41433 0.18656 0.0
C4561 C 0.61159 0.4 0.18227 0.0
C4562 C 0.62103 0.39347 0.19209 0.0
C4563 C 0.62683 0.403 0.20053 0.0
C4564 C 0.61692 0.399 0.16782 0.0
C4565 C 0.59701 0.39522 0.18408 0.0
C4566 C 0.65737 0.39872 0.24067 0.0
C4567 C 0.66226 0.38766 0.24773 0.0
C4568 C 0.65959 0.37475 0.24294 0.0
C4569 C 0.65209 0.37287 0.23132 0.0
C4570 C 0.64698 0.384 0.22454 0.0
C4571 C 0.64964 0.39666 0.22925 0.0
C4572 C 0.64257 0.40726 0.22135 0.0
C4573 C 0.63545 0.39889 0.21097 0.0
C4574 C 0.63814 0.38529 0.21284 0.0
C4575 C 0.6532 0.41643 0.21497 0.0
C4576 C 0.6327 0.4145 0.23078 0.0
H4577 H 0.60717 0.37406 0.16982 0.0
H4578 H 0.62623 0.33542 0.1941 0.0
H4579 H 0.6163 0.35382 0.21641 0.0
H4580 H 0.62893 0.36081 0.22624 0.0
H4581 H 0.63121 0.3444 0.21926 0.0
H4582 H 0.65062 0.35763 0.19103 0.0
H4583 H 0.64915 0.34512 0.20372 0.0
H4584 H 0.65556 0.36147 0.20741 0.0
H4585 H 0.5971 0.42278 0.17437 0.0
H4586 H 0.61789 0.44961 0.20083 0.0
H4587 H 0.63068 0.43121 0.20956 0.0
H4588 H 0.62491 0.40646 0.16598 0.0
H4589 H 0.60891 0.40085 0.16046 0.0
H4590 H 0.62162 0.38929 0.16566 0.0
H4591 H 0.59255 0.39962 0.19321 0.0
H4592 H 0.59613 0.38436 0.18546 0.0
H4593 H 0.59074 0.39823 0.17547 0.0
H4594 H 0.60197 0.35185 0.16248 0.0
C4595 C 0.61153 0.36597 0.17526 0.0
C4596 C 0.90452 0.37906 0.44187 0.0
C4597 C 0.90771 0.37005 0.43165 0.0
C4598 C 0.89731 0.36368 0.42467 0.0
C4599 C 0.88098 0.37454 0.43874 0.0
C4600 C 0.89116 0.38118 0.4452 0.0
C4601 C 0.88613 0.39002 0.45618 0.0
H4602 H 0.83461 0.413 0.49291 0.0
C4603 C 0.8683 0.37846 0.44509 0.0
C4604 C 0.87124 0.38767 0.45519 0.0
H4605 H 0.87664 0.42062 0.49831 0.0
H4606 H 0.88167 0.40764 0.47873 0.0
H4607 H 0.83382 0.41528 0.4605 0.0
H4608 H 0.83853 0.38222 0.4874 0.0
H4609 H 0.82754 0.37721 0.47477 0.0
H4610 H 0.82304 0.39091 0.48541 0.0
H4611 H 0.82014 0.40864 0.46989 0.0
H4612 H 0.82473 0.40188 0.45385 0.0
C4613 C 0.88986 0.40458 0.45269 0.0
C4614 C 0.89196 0.38493 0.46957 0.0
C4615 C 0.82528 0.35514 0.4322 0.0
C4616 C 0.81197 0.35676 0.43623 0.0
C4617 C 0.80883 0.36699 0.44533 0.0
C4618 C 0.81878 0.37532 0.45046 0.0
C4619 C 0.83206 0.3734 0.44653 0.0
C4620 C 0.83508 0.36368 0.43726 0.0
C4621 C 0.84967 0.36346 0.43382 0.0
C4622 C 0.85496 0.37428 0.44298 0.0
C4623 C 0.84463 0.37992 0.45055 0.0
C4624 C 0.85124 0.36719 0.4189 0.0
C4625 C 0.8553 0.34957 0.43747 0.0
C4626 C 0.84488 0.41204 0.48972 0.0
C4627 C 0.85525 0.41789 0.49708 0.0
C4628 C 0.86849 0.41619 0.49279 0.0
C4629 C 0.87139 0.40862 0.48143 0.0
C4630 C 0.86095 0.40246 0.47441 0.0
C4631 C 0.84796 0.40424 0.47856 0.0
C4632 C 0.83826 0.39619 0.47044 0.0
C4633 C 0.84758 0.38937 0.46067 0.0
C4634 C 0.86083 0.39314 0.46301 0.0
C4635 C 0.82862 0.40591 0.46333 0.0
C4636 C 0.83136 0.38613 0.47991 0.0
H4637 H 0.87653 0.36053 0.42267 0.0
H4638 H 0.91225 0.38415 0.44742 0.0
H4639 H 0.89393 0.37403 0.46923 0.0
H4640 H 0.885 0.38618 0.47801 0.0
H4641 H 0.90151 0.38997 0.47196 0.0
H4642 H 0.88846 0.40649 0.44186 0.0
H4643 H 0.90045 0.40665 0.45513 0.0
H4644 H 0.88352 0.41198 0.45777 0.0
H4645 H 0.82821 0.34709 0.42572 0.0
H4646 H 0.79866 0.36847 0.44859 0.0
H4647 H 0.81576 0.38284 0.45743 0.0
H4648 H 0.84273 0.37332 0.41532 0.0
H4649 H 0.85174 0.35817 0.41252 0.0
H4650 H 0.86014 0.37343 0.41704 0.0
H4651 H 0.85151 0.34632 0.44737 0.0
H4652 H 0.86624 0.34941 0.4383 0.0
H4653 H 0.85225 0.34198 0.43001 0.0
H4654 H 0.89949 0.35667 0.41676 0.0
C4655 C 0.88397 0.36588 0.42815 0.0
C4656 C 0.88689 0.43474 0.80639 0.0
C4657 C 0.89762 0.43486 0.8154 0.0
C4658 C 0.90152 0.42282 0.82147 0.0
C4659 C 0.88392 0.411 0.80994 0.0
C4660 C 0.88027 0.42273 0.80375 0.0
C4661 C 0.86935 0.42067 0.79369 0.0
H4662 H 0.83295 0.37766 0.75688 0.0
C4663 C 0.87552 0.4002 0.80454 0.0
C4664 C 0.867 0.40577 0.79495 0.0
H4665 H 0.83388 0.42063 0.75419 0.0
H4666 H 0.8479 0.42171 0.77369 0.0
H4667 H 0.86362 0.37285 0.76404 0.0
H4668 H 0.8287 0.37731 0.78842 0.0
H4669 H 0.83925 0.36643 0.79713 0.0
H4670 H 0.83293 0.36164 0.78097 0.0
H4671 H 0.85024 0.36098 0.76461 0.0
H4672 H 0.86377 0.3603 0.77631 0.0
C4673 C 0.8749 0.42454 0.77981 0.0
C4674 C 0.85703 0.42882 0.79813 0.0
C4675 C 0.88235 0.35268 0.82053 0.0
C4676 C 0.87673 0.34043 0.81668 0.0
C4677 C 0.86645 0.34036 0.80712 0.0
C4678 C 0.86213 0.35223 0.80119 0.0
C4679 C 0.8682 0.36432 0.80478 0.0
C4680 C 0.87797 0.36444 0.81446 0.0
C4681 C 0.88346 0.37817 0.81685 0.0
C4682 C 0.87518 0.38631 0.80714 0.0
C4683 C 0.86638 0.37811 0.80001 0.0
C4684 C 0.89847 0.37815 0.81312 0.0
C4685 C 0.88056 0.38203 0.83149 0.0
C4686 C 0.83617 0.38729 0.76051 0.0
C4687 C 0.83253 0.39905 0.75385 0.0
C4688 C 0.83663 0.41142 0.75909 0.0
C4689 C 0.84485 0.41203 0.77036 0.0
C4690 C 0.84901 0.40015 0.77648 0.0
C4691 C 0.84427 0.38809 0.77185 0.0
C4692 C 0.84912 0.37655 0.78008 0.0
C4693 C 0.85811 0.38363 0.78997 0.0
C4694 C 0.85818 0.39743 0.78767 0.0
C4695 C 0.85706 0.36706 0.77085 0.0
C4696 C 0.83693 0.37003 0.78697 0.0
H4697 H 0.89812 0.40215 0.82387 0.0
H4698 H 0.88384 0.44376 0.80132 0.0
H4699 H 0.85633 0.42928 0.80918 0.0
H4700 H 0.84754 0.42426 0.7949 0.0
H4701 H 0.85754 0.43921 0.79437 0.0
H4702 H 0.88534 0.421 0.77866 0.0
H4703 H 0.8749 0.43552 0.77847 0.0
H4704 H 0.86942 0.41997 0.77148 0.0
H4705 H 0.89032 0.35311 0.8278 0.0
H4706 H 0.86192 0.33108 0.804 0.0
H4707 H 0.85443 0.35149 0.79382 0.0
H4708 H 0.90083 0.37023 0.80574 0.0
H4709 H 0.90482 0.37638 0.82202 0.0
H4710 H 0.90164 0.38749 0.80822 0.0
H4711 H 0.87026 0.37908 0.83433 0.0
H4712 H 0.88111 0.39286 0.83328 0.0
H4713 H 0.88755 0.37692 0.83839 0.0
H4714 H 0.91027 0.42237 0.8277 0.0
C4715 C 0.89462 0.41096 0.81895 0.0
C4716 C 0.90313 0.62228 0.06051 0.0
C4717 C 0.90565 0.63116 0.07103 0.0
C4718 C 0.89481 0.63731 0.07753 0.0
C4719 C 0.8794 0.62646 0.06243 0.0
C4720 C 0.88999 0.62005 0.05644 0.0
C4721 C 0.88567 0.61127 0.04511 0.0
H4722 H 0.83634 0.5876 0.00585 0.0
C4723 C 0.86712 0.62245 0.05538 0.0
C4724 C 0.87072 0.6134 0.04535 0.0
H4725 H 0.8787 0.58091 0.00222 0.0
H4726 H 0.88262 0.5939 0.02208 0.0
H4727 H 0.83416 0.58529 0.0383 0.0
H4728 H 0.8394 0.61826 0.0114 0.0
H4729 H 0.82808 0.62336 0.02366 0.0
H4730 H 0.82387 0.60957 0.013 0.0
H4731 H 0.82087 0.59151 0.02808 0.0
H4732 H 0.82434 0.59849 0.04429 0.0
C4733 C 0.88944 0.59673 0.0486 0.0
C4734 C 0.8921 0.61661 0.03209 0.0
C4735 C 0.82314 0.64498 0.06625 0.0
C4736 C 0.81009 0.64321 0.06151 0.0
C4737 C 0.80759 0.63305 0.05214 0.0
C4738 C 0.81791 0.62491 0.04746 0.0
C4739 C 0.83094 0.62697 0.05213 0.0
C4740 C 0.83332 0.63664 0.06163 0.0
C4741 C 0.84771 0.63704 0.06584 0.0
C4742 C 0.85363 0.6264 0.05685 0.0
C4743 C 0.84379 0.62068 0.04871 0.0
C4744 C 0.84856 0.63315 0.08078 0.0
C4745 C 0.85331 0.65105 0.06264 0.0
C4746 C 0.84643 0.58875 0.00949 0.0
C4747 C 0.85723 0.58316 0.00256 0.0
C4748 C 0.87024 0.58514 0.00741 0.0
C4749 C 0.87249 0.5927 0.01893 0.0
C4750 C 0.86163 0.59859 0.02553 0.0
C4751 C 0.84886 0.59657 0.02079 0.0
C4752 C 0.83866 0.60442 0.02847 0.0
C4753 C 0.84739 0.61137 0.03868 0.0
C4754 C 0.8608 0.60784 0.03696 0.0
C4755 C 0.82888 0.5945 0.0351 0.0
C4756 C 0.83203 0.6144 0.01871 0.0
H4757 H 0.87391 0.64018 0.07843 0.0
H4758 H 0.91121 0.61737 0.05532 0.0
H4759 H 0.89389 0.62753 0.03266 0.0
H4760 H 0.88561 0.61536 0.02329 0.0
H4761 H 0.90184 0.61174 0.03014 0.0
H4762 H 0.88744 0.59464 0.0593 0.0
H4763 H 0.90019 0.59487 0.04676 0.0
H4764 H 0.88354 0.58929 0.04306 0.0
H4765 H 0.82559 0.653 0.07296 0.0
H4766 H 0.79762 0.63147 0.04832 0.0
H4767 H 0.81537 0.61744 0.04026 0.0
H4768 H 0.83995 0.6269 0.08386 0.0
H4769 H 0.84865 0.64211 0.08727 0.0
H4770 H 0.85742 0.62698 0.08302 0.0
H4771 H 0.85003 0.65434 0.05258 0.0
H4772 H 0.86428 0.65138 0.06244 0.0
H4773 H 0.84974 0.65851 0.06999 0.0
H4774 H 0.89647 0.64423 0.08564 0.0
C4775 C 0.88171 0.635 0.07329 0.0
C4776 C 0.62235 0.65525 0.31077 0.0
C4777 C 0.61393 0.65724 0.32179 0.0
C4778 C 0.60896 0.64605 0.32868 0.0
C4779 C 0.61996 0.6313 0.31306 0.0
C4780 C 0.62526 0.64226 0.30663 0.0
C4781 C 0.6337 0.63841 0.29488 0.0
H4782 H 0.65892 0.59016 0.25513 0.0
C4783 C 0.62436 0.61926 0.30585 0.0
C4784 C 0.63255 0.62334 0.29528 0.0
H4785 H 0.66299 0.63282 0.25095 0.0
H4786 H 0.65025 0.63616 0.27107 0.0
H4787 H 0.66211 0.58855 0.28789 0.0
H4788 H 0.62858 0.59129 0.26129 0.0
H4789 H 0.62391 0.58052 0.2742 0.0
H4790 H 0.63766 0.57606 0.26354 0.0
H4791 H 0.65704 0.57511 0.27723 0.0
H4792 H 0.64982 0.57739 0.29352 0.0
C4793 C 0.64813 0.64314 0.2976 0.0
C4794 C 0.6273 0.64436 0.28213 0.0
C4795 C 0.60536 0.57416 0.31847 0.0
C4796 C 0.60726 0.56123 0.31347 0.0
C4797 C 0.61675 0.55921 0.30331 0.0
C4798 C 0.62406 0.56991 0.2981 0.0
C4799 C 0.62186 0.58281 0.30306 0.0
C4800 C 0.61289 0.58471 0.31332 0.0
C4801 C 0.61203 0.59906 0.31754 0.0
C4802 C 0.62136 0.60556 0.3076 0.0
C4803 C 0.62711 0.59601 0.29915 0.0
C4804 C 0.61747 0.60016 0.33194 0.0
C4805 C 0.59742 0.60377 0.31582 0.0
C4806 C 0.65726 0.60021 0.2587 0.0
C4807 C 0.66205 0.61125 0.25155 0.0
C4808 C 0.65939 0.62417 0.25631 0.0
C4809 C 0.65199 0.62608 0.26799 0.0
C4810 C 0.64698 0.61496 0.27487 0.0
C4811 C 0.64962 0.60229 0.27018 0.0
C4812 C 0.64267 0.5917 0.2782 0.0
C4813 C 0.63563 0.6001 0.28862 0.0
C4814 C 0.63825 0.6137 0.28665 0.0
C4815 C 0.65339 0.58259 0.28452 0.0
C4816 C 0.63273 0.58439 0.26891 0.0
H4817 H 0.60764 0.62504 0.3299 0.0
H4818 H 0.62639 0.66362 0.30528 0.0
H4819 H 0.61629 0.64508 0.28314 0.0
H4820 H 0.62884 0.63809 0.27322 0.0
H4821 H 0.63113 0.65454 0.2801 0.0
H4822 H 0.65085 0.6415 0.30822 0.0
H4823 H 0.64923 0.65394 0.29547 0.0
H4824 H 0.65565 0.63758 0.29182 0.0
H4825 H 0.59771 0.57626 0.32571 0.0
H4826 H 0.61839 0.54935 0.29925 0.0
H4827 H 0.631 0.56775 0.29026 0.0
H4828 H 0.62547 0.59271 0.33378 0.0
H4829 H 0.60952 0.59837 0.33938 0.0
H4830 H 0.62221 0.60989 0.33399 0.0
H4831 H 0.59291 0.59932 0.30673 0.0
H4832 H 0.59649 0.61462 0.31443 0.0
H4833 H 0.59122 0.60075 0.32448 0.0
H4834 H 0.60247 0.64727 0.3372 0.0
C4835 C 0.61193 0.63312 0.32439 0.0
C4836 C 0.63679 0.40575 0.51056 0.0
C4837 C 0.64828 0.40934 0.50342 0.0
C4838 C 0.66082 0.40509 0.50807 0.0
C4839 C 0.65023 0.39276 0.52591 0.0
C4840 C 0.63802 0.3976 0.52183 0.0
C4841 C 0.62683 0.39287 0.53059 0.0
H4842 H 0.6053 0.35263 0.58006 0.0
C4843 C 0.64795 0.38368 0.53727 0.0
C4844 C 0.63428 0.38388 0.5402 0.0
H4845 H 0.58247 0.38077 0.55671 0.0
H4846 H 0.60242 0.38779 0.54541 0.0
H4847 H 0.62138 0.3414 0.55768 0.0
H4848 H 0.63198 0.37287 0.58471 0.0
H4849 H 0.64534 0.3615 0.58357 0.0
H4850 H 0.62941 0.35583 0.58952 0.0
H4851 H 0.62834 0.33789 0.57375 0.0
H4852 H 0.63874 0.34059 0.55931 0.0
C4853 C 0.61689 0.38495 0.52184 0.0
C4854 C 0.62072 0.40515 0.53771 0.0
C4855 C 0.68606 0.3554 0.55494 0.0
C4856 C 0.68664 0.34516 0.56445 0.0
C4857 C 0.67489 0.34126 0.57103 0.0
C4858 C 0.66283 0.34784 0.56864 0.0
C4859 C 0.66242 0.35823 0.55929 0.0
C4860 C 0.67388 0.36177 0.55251 0.0
C4861 C 0.67138 0.37252 0.54238 0.0
C4862 C 0.65656 0.3749 0.54426 0.0
C4863 C 0.6514 0.36654 0.55423 0.0
C4864 C 0.67462 0.36672 0.52845 0.0
C4865 C 0.67973 0.38491 0.54623 0.0
C4866 C 0.60462 0.36044 0.57264 0.0
C4867 C 0.59226 0.36613 0.56926 0.0
C4868 C 0.59184 0.37619 0.55948 0.0
C4869 C 0.60344 0.38025 0.5529 0.0
C4870 C 0.61563 0.37415 0.55605 0.0
C4871 C 0.61612 0.36458 0.56593 0.0
C4872 C 0.62993 0.35907 0.56781 0.0
C4873 C 0.63765 0.36703 0.55749 0.0
C4874 C 0.62918 0.37576 0.5506 0.0
C4875 C 0.62967 0.34395 0.56458 0.0
C4876 C 0.63448 0.36238 0.58217 0.0
H4877 H 0.67165 0.39367 0.52214 0.0
H4878 H 0.62704 0.40907 0.50738 0.0
H4879 H 0.62811 0.41334 0.53877 0.0
H4880 H 0.61758 0.40292 0.54804 0.0
H4881 H 0.61209 0.40918 0.53207 0.0
H4882 H 0.62231 0.37837 0.51477 0.0
H4883 H 0.61053 0.39178 0.5159 0.0
H4884 H 0.61038 0.37826 0.52763 0.0
H4885 H 0.6949 0.35841 0.54953 0.0
H4886 H 0.67495 0.33286 0.57778 0.0
H4887 H 0.65426 0.34443 0.57402 0.0
H4888 H 0.67091 0.35631 0.52759 0.0
H4889 H 0.68553 0.36656 0.52667 0.0
H4890 H 0.6698 0.37215 0.52022 0.0
H4891 H 0.68091 0.38567 0.55723 0.0
H4892 H 0.67492 0.39436 0.54328 0.0
H4893 H 0.68986 0.38445 0.54181 0.0
H4894 H 0.66983 0.40779 0.50278 0.0
C4895 C 0.66186 0.39681 0.51926 0.0
C4896 C 0.73536 0.83729 0.60509 0.0
C4897 C 0.74147 0.83339 0.59312 0.0
C4898 C 0.73633 0.83811 0.58094 0.0
C4899 C 0.71998 0.85134 0.59279 0.0
C4900 C 0.72453 0.84607 0.60467 0.0
C4901 C 0.71661 0.85092 0.61642 0.0
H4902 H 0.66976 0.89234 0.64131 0.0
C4903 C 0.70918 0.86085 0.59588 0.0
C4904 C 0.70699 0.86046 0.60969 0.0
H4905 H 0.69323 0.86301 0.66244 0.0
H4906 H 0.70339 0.85611 0.6418 0.0
H4907 H 0.69217 0.9031 0.62444 0.0
H4908 H 0.66295 0.87336 0.61486 0.0
H4909 H 0.66422 0.88446 0.6013 0.0
H4910 H 0.65923 0.89068 0.61737 0.0
H4911 H 0.6759 0.90757 0.61862 0.0
H4912 H 0.68952 0.90455 0.60725 0.0
C4913 C 0.72622 0.85827 0.626 0.0
C4914 C 0.70933 0.83883 0.62271 0.0
C4915 C 0.69124 0.89138 0.5596 0.0
C4916 C 0.68233 0.90219 0.55985 0.0
C4917 C 0.67625 0.90571 0.572 0.0
C4918 C 0.6787 0.89841 0.58363 0.0
C4919 C 0.6876 0.88763 0.58323 0.0
C4920 C 0.69375 0.8843 0.57137 0.0
C4921 C 0.70344 0.87297 0.57303 0.0
C4922 C 0.70213 0.87014 0.58785 0.0
C4923 C 0.69278 0.87872 0.59373 0.0
C4924 C 0.71748 0.87817 0.56933 0.0
C4925 C 0.69859 0.86109 0.56444 0.0
C4926 C 0.67695 0.8843 0.64149 0.0
C4927 C 0.68069 0.87822 0.65355 0.0
C4928 C 0.69019 0.86788 0.6533 0.0
C4929 C 0.69609 0.86389 0.6413 0.0
C4930 C 0.69255 0.87034 0.6294 0.0
C4931 C 0.683 0.88025 0.6296 0.0
C4932 C 0.68069 0.8862 0.61604 0.0
C4933 C 0.69023 0.87801 0.60762 0.0
C4934 C 0.69722 0.86884 0.61553 0.0
C4935 C 0.68466 0.90114 0.61653 0.0
C4936 C 0.66599 0.88366 0.61212 0.0
H4937 H 0.72233 0.85054 0.57116 0.0
H4938 H 0.73891 0.83357 0.61457 0.0
H4939 H 0.70748 0.83086 0.61523 0.0
H4940 H 0.69932 0.84142 0.62651 0.0
H4941 H 0.71529 0.83437 0.6309 0.0
H4942 H 0.7332 0.86472 0.62031 0.0
H4943 H 0.73226 0.85107 0.63184 0.0
H4944 H 0.72107 0.865 0.63299 0.0
H4945 H 0.69624 0.88858 0.55046 0.0
H4946 H 0.67002 0.91445 0.57269 0.0
H4947 H 0.67378 0.90164 0.59254 0.0
H4948 H 0.71918 0.88822 0.57369 0.0
H4949 H 0.71862 0.87901 0.55836 0.0
H4950 H 0.72561 0.87191 0.5732 0.0
H4951 H 0.68755 0.86104 0.56354 0.0
H4952 H 0.70107 0.85134 0.56893 0.0
H4953 H 0.70278 0.86157 0.55421 0.0
H4954 H 0.74084 0.83517 0.57159 0.0
C4955 C 0.72565 0.84709 0.58072 0.0
C4956 C 0.23535 0.66294 0.39389 0.0
C4957 C 0.24147 0.6669 0.40583 0.0
C4958 C 0.23636 0.66221 0.41803 0.0
C4959 C 0.22005 0.64887 0.40625 0.0
C4960 C 0.22456 0.65411 0.39435 0.0
C4961 C 0.21666 0.64918 0.38262 0.0
H4962 H 0.17001 0.60744 0.3579 0.0
C4963 C 0.20929 0.63929 0.40321 0.0
C4964 C 0.20708 0.63963 0.3894 0.0
H4965 H 0.19333 0.63682 0.33667 0.0
H4966 H 0.20344 0.64385 0.35728 0.0
H4967 H 0.19248 0.59687 0.37483 0.0
H4968 H 0.1631 0.62649 0.38428 0.0
H4969 H 0.16442 0.61546 0.39788 0.0
H4970 H 0.15947 0.60914 0.38185 0.0
H4971 H 0.17622 0.59233 0.38064 0.0
H4972 H 0.1898 0.59546 0.39202 0.0
C4973 C 0.22629 0.64184 0.37306 0.0
C4974 C 0.20932 0.66122 0.37629 0.0
C4975 C 0.1915 0.60882 0.43961 0.0
C4976 C 0.18263 0.59798 0.4394 0.0
C4977 C 0.17656 0.59438 0.42727 0.0
C4978 C 0.17898 0.60165 0.41562 0.0
C4979 C 0.18783 0.61247 0.41597 0.0
C4980 C 0.19398 0.61587 0.42781 0.0
C4981 C 0.20361 0.62724 0.42611 0.0
C4982 C 0.20228 0.63001 0.41128 0.0
C4983 C 0.19297 0.62136 0.40543 0.0
C4984 C 0.21768 0.62211 0.42981 0.0
C4985 C 0.19872 0.63912 0.43465 0.0
C4986 C 0.17716 0.61551 0.35769 0.0
C4987 C 0.18087 0.62157 0.34561 0.0
C4988 C 0.19031 0.63196 0.34582 0.0
C4989 C 0.19619 0.63603 0.35781 0.0
C4990 C 0.19268 0.6296 0.36973 0.0
C4991 C 0.18319 0.61964 0.36957 0.0
C4992 C 0.1809 0.61374 0.38315 0.0
C4993 C 0.19041 0.622 0.39154 0.0
C4994 C 0.19735 0.63117 0.3836 0.0
C4995 C 0.18495 0.59881 0.38272 0.0
C4996 C 0.16619 0.61622 0.38706 0.0
H4997 H 0.22242 0.64975 0.42788 0.0
H4998 H 0.23888 0.66664 0.38438 0.0
H4999 H 0.20746 0.66921 0.38374 0.0
H5000 H 0.19931 0.65857 0.37253 0.0
H5001 H 0.21524 0.66566 0.36807 0.0
H5002 H 0.23331 0.63545 0.37877 0.0
H5003 H 0.23229 0.64904 0.36719 0.0
H5004 H 0.22117 0.63506 0.36611 0.0
H5005 H 0.19649 0.61168 0.44874 0.0
H5006 H 0.17036 0.58561 0.42662 0.0
H5007 H 0.17406 0.59836 0.40672 0.0
H5008 H 0.21942 0.61205 0.42549 0.0
H5009 H 0.21883 0.62131 0.44079 0.0
H5010 H 0.22578 0.62839 0.42592 0.0
H5011 H 0.18768 0.63914 0.43555 0.0
H5012 H 0.20117 0.64887 0.43013 0.0
H5013 H 0.20291 0.63869 0.44489 0.0
H5014 H 0.24087 0.6652 0.42737 0.0
C5015 C 0.22571 0.65318 0.41831 0.0
C5016 C 0.63706 0.94183 0.68429 0.0
C5017 C 0.64771 0.93274 0.68426 0.0
C5018 C 0.65157 0.92685 0.67212 0.0
C5019 C 0.63406 0.93869 0.6605 0.0
C5020 C 0.63046 0.94472 0.67234 0.0
C5021 C 0.6196 0.95488 0.67044 0.0
H5022 H 0.58321 0.99246 0.62809 0.0
C5023 C 0.62568 0.94432 0.6498 0.0
C5024 C 0.61723 0.95387 0.65553 0.0
H5025 H 0.58432 0.99454 0.67109 0.0
H5026 H 0.59833 0.97501 0.67184 0.0
H5027 H 0.61388 0.9853 0.62306 0.0
H5028 H 0.57891 0.96097 0.62729 0.0
H5029 H 0.58938 0.95241 0.61622 0.0
H5030 H 0.58309 0.96866 0.61172 0.0
H5031 H 0.60048 0.98493 0.61121 0.0
H5032 H 0.61397 0.97321 0.61035 0.0
C5033 C 0.62526 0.96865 0.67453 0.0
C5034 C 0.60726 0.9504 0.67854 0.0
C5035 C 0.63223 0.92893 0.60202 0.0
C5036 C 0.62659 0.93299 0.58985 0.0
C5037 C 0.6164 0.94264 0.58994 0.0
C5038 C 0.61217 0.94844 0.6019 0.0
C5039 C 0.61825 0.94464 0.61393 0.0
C5040 C 0.62794 0.93488 0.61388 0.0
C5041 C 0.63346 0.93227 0.62757 0.0
C5042 C 0.62528 0.94192 0.63586 0.0
C5043 C 0.61651 0.94923 0.62779 0.0
C5044 C 0.6485 0.93587 0.62754 0.0
C5045 C 0.63046 0.9176 0.63123 0.0
C5046 C 0.58648 0.98869 0.63766 0.0
C5047 C 0.58289 0.99518 0.64952 0.0
C5048 C 0.58704 0.98977 0.6618 0.0
C5049 C 0.59525 0.97849 0.66222 0.0
C5050 C 0.59934 0.97252 0.65023 0.0
C5051 C 0.59456 0.97734 0.63825 0.0
C5052 C 0.59935 0.96926 0.62658 0.0
C5053 C 0.60831 0.95924 0.63349 0.0
C5054 C 0.60844 0.96133 0.64732 0.0
C5055 C 0.60729 0.97859 0.6172 0.0
C5056 C 0.58711 0.96251 0.61999 0.0
H5057 H 0.64815 0.92482 0.65141 0.0
H5058 H 0.63404 0.94677 0.6934 0.0
H5059 H 0.60648 0.93935 0.67881 0.0
H5060 H 0.59779 0.95378 0.67406 0.0
H5061 H 0.60782 0.95398 0.689 0.0
H5062 H 0.63571 0.96978 0.67103 0.0
H5063 H 0.62525 0.96984 0.68553 0.0
H5064 H 0.61986 0.9771 0.67007 0.0
H5065 H 0.64013 0.92159 0.60232 0.0
H5066 H 0.61186 0.94592 0.58072 0.0
H5067 H 0.60454 0.95589 0.60129 0.0
H5068 H 0.65089 0.94335 0.61971 0.0
H5069 H 0.65477 0.92696 0.62563 0.0
H5070 H 0.65174 0.94063 0.63694 0.0
H5071 H 0.62012 0.91489 0.62829 0.0
H5072 H 0.63105 0.91565 0.64203 0.0
H5073 H 0.63737 0.91072 0.62599 0.0
H5074 H 0.66027 0.92056 0.67157 0.0
C5075 C 0.64469 0.92962 0.6603 0.0
C5076 C 0.31447 0.37624 0.84737 0.0
C5077 C 0.32565 0.38442 0.84537 0.0
C5078 C 0.33209 0.39003 0.85653 0.0
C5079 C 0.31564 0.3802 0.8712 0.0
C5080 C 0.30969 0.37424 0.86032 0.0
C5081 C 0.29763 0.36622 0.86412 0.0
H5082 H 0.25491 0.34513 0.91176 0.0
C5083 C 0.30773 0.37678 0.88312 0.0
C5084 C 0.29726 0.36845 0.87906 0.0
H5085 H 0.25312 0.33784 0.86935 0.0
H5086 H 0.27358 0.35005 0.86623 0.0
H5087 H 0.28756 0.34169 0.91542 0.0
H5088 H 0.26146 0.37504 0.90885 0.0
H5089 H 0.27397 0.38059 0.91968 0.0
H5090 H 0.26304 0.3673 0.92488 0.0
H5091 H 0.27617 0.34775 0.9278 0.0
H5092 H 0.29264 0.35469 0.92604 0.0
C5093 C 0.30039 0.35147 0.86058 0.0
C5094 C 0.28532 0.37232 0.85704 0.0
C5095 C 0.3185 0.39847 0.92754 0.0
C5096 C 0.3128 0.3975 0.9403 0.0
C5097 C 0.30216 0.38855 0.9423 0.0
C5098 C 0.29724 0.38078 0.93179 0.0
C5099 C 0.30299 0.38196 0.91909 0.0
C5100 C 0.31362 0.39048 0.9172 0.0
C5101 C 0.31862 0.39026 0.90307 0.0
C5102 C 0.30878 0.38075 0.89666 0.0
C5103 C 0.29968 0.37588 0.90609 0.0
C5104 C 0.33288 0.38436 0.90313 0.0
C5105 C 0.31761 0.40455 0.89731 0.0
C5106 C 0.25908 0.34597 0.90184 0.0
C5107 C 0.25249 0.34043 0.89079 0.0
C5108 C 0.25803 0.34202 0.878 0.0
C5109 C 0.26991 0.34913 0.87622 0.0
C5110 C 0.2762 0.35492 0.88731 0.0
C5111 C 0.27077 0.35329 0.89985 0.0
C5112 C 0.2783 0.36091 0.91034 0.0
C5113 C 0.28926 0.36721 0.90205 0.0
C5114 C 0.28802 0.36359 0.88859 0.0
C5115 C 0.28393 0.35082 0.92054 0.0
C5116 C 0.26877 0.37148 0.91638 0.0
H5117 H 0.33234 0.39273 0.87746 0.0
H5118 H 0.30933 0.37172 0.83903 0.0
H5119 H 0.2865 0.38326 0.85567 0.0
H5120 H 0.27605 0.37126 0.86288 0.0
H5121 H 0.28382 0.36785 0.84703 0.0
H5122 H 0.31089 0.34878 0.86287 0.0
H5123 H 0.29872 0.34959 0.8498 0.0
H5124 H 0.29431 0.34442 0.86643 0.0
H5125 H 0.32619 0.40567 0.92542 0.0
H5126 H 0.29757 0.38759 0.95202 0.0
H5127 H 0.28906 0.37425 0.93394 0.0
H5128 H 0.33395 0.37662 0.91099 0.0
H5129 H 0.34041 0.39216 0.9051 0.0
H5130 H 0.33541 0.37919 0.89374 0.0
H5131 H 0.30855 0.40968 0.90109 0.0
H5132 H 0.31661 0.40477 0.88637 0.0
H5133 H 0.32638 0.41064 0.90021 0.0
H5134 H 0.34074 0.39636 0.8553 0.0
C5135 C 0.32716 0.38796 0.86942 0.0
C5136 C 0.37363 0.56393 0.5987 0.0
C5137 C 0.36524 0.57495 0.59666 0.0
C5138 C 0.35981 0.58153 0.60782 0.0
C5139 C 0.37022 0.56553 0.62259 0.0
C5140 C 0.376 0.55943 0.61168 0.0
C5141 C 0.38424 0.54754 0.61553 0.0
H5142 H 0.40616 0.50538 0.66327 0.0
C5143 C 0.37401 0.55788 0.63458 0.0
C5144 C 0.38236 0.54743 0.63053 0.0
H5145 H 0.41293 0.50334 0.62078 0.0
H5146 H 0.40078 0.52383 0.6177 0.0
H5147 H 0.40992 0.53799 0.66662 0.0
H5148 H 0.37603 0.51237 0.66069 0.0
H5149 H 0.37117 0.52474 0.672 0.0
H5150 H 0.38444 0.51349 0.67642 0.0
H5151 H 0.40382 0.52694 0.67929 0.0
H5152 H 0.39709 0.54347 0.67723 0.0
C5153 C 0.39888 0.55039 0.61161 0.0
C5154 C 0.37811 0.53503 0.60883 0.0
C5155 C 0.35287 0.56902 0.67914 0.0
C5156 C 0.35405 0.56351 0.69196 0.0
C5157 C 0.36326 0.55312 0.69404 0.0
C5158 C 0.37104 0.54821 0.68353 0.0
C5159 C 0.36958 0.5537 0.67073 0.0
C5160 C 0.36085 0.56416 0.66879 0.0
C5161 C 0.36075 0.56891 0.65458 0.0
C5162 C 0.37031 0.55912 0.64817 0.0
C5163 C 0.37547 0.55024 0.65767 0.0
C5164 C 0.36639 0.58327 0.65428 0.0
C5165 C 0.34638 0.56754 0.64908 0.0
C5166 C 0.40521 0.50949 0.65333 0.0
C5167 C 0.41056 0.5028 0.64225 0.0
C5168 C 0.40888 0.50831 0.62946 0.0
C5169 C 0.40181 0.52021 0.6277 0.0
C5170 C 0.39615 0.52657 0.63882 0.0
C5171 C 0.39794 0.52123 0.65138 0.0
C5172 C 0.39051 0.52889 0.66191 0.0
C5173 C 0.38411 0.53979 0.65361 0.0
C5174 C 0.38749 0.53839 0.64011 0.0
C5175 C 0.40078 0.53459 0.6719 0.0
C5176 C 0.38003 0.51946 0.66822 0.0
H5177 H 0.35762 0.58218 0.6288 0.0
H5178 H 0.37802 0.55867 0.59036 0.0
H5179 H 0.36713 0.53605 0.60774 0.0
H5180 H 0.37944 0.52588 0.61478 0.0
H5181 H 0.38233 0.53343 0.59873 0.0
H5182 H 0.40146 0.561 0.6135 0.0
H5183 H 0.40058 0.54839 0.60086 0.0
H5184 H 0.40613 0.54461 0.61752 0.0
H5185 H 0.34546 0.57647 0.67695 0.0
H5186 H 0.36434 0.54867 0.70381 0.0
H5187 H 0.37775 0.54019 0.68573 0.0
H5188 H 0.37419 0.58465 0.66203 0.0
H5189 H 0.35846 0.59071 0.65619 0.0
H5190 H 0.3714 0.58571 0.64479 0.0
H5191 H 0.3415 0.55842 0.65308 0.0
H5192 H 0.34599 0.56638 0.63817 0.0
H5193 H 0.34017 0.57622 0.65197 0.0
H5194 H 0.35334 0.59006 0.60657 0.0
C5195 C 0.36227 0.5769 0.62075 0.0
C5196 C 0.81214 0.12053 0.15312 0.0
C5197 C 0.82305 0.11201 0.1552 0.0
C5198 C 0.82971 0.10661 0.14407 0.0
C5199 C 0.81397 0.1173 0.12922 0.0
C5200 C 0.80781 0.12305 0.14011 0.0
C5201 C 0.79605 0.13146 0.13619 0.0
H5202 H 0.75508 0.15462 0.08798 0.0
C5203 C 0.8065 0.12126 0.11718 0.0
C5204 C 0.79609 0.12969 0.12118 0.0
H5205 H 0.75229 0.1609 0.13049 0.0
H5206 H 0.77247 0.14828 0.13384 0.0
H5207 H 0.78789 0.15763 0.0853 0.0
H5208 H 0.76105 0.12458 0.09025 0.0
H5209 H 0.77375 0.1191 0.07962 0.0
H5210 H 0.7632 0.13271 0.07449 0.0
H5211 H 0.77675 0.15209 0.07245 0.0
H5212 H 0.79304 0.14482 0.07448 0.0
C5213 C 0.79902 0.14604 0.14026 0.0
C5214 C 0.7834 0.12543 0.14271 0.0
C5215 C 0.81809 0.10057 0.07249 0.0
C5216 C 0.81274 0.10197 0.05963 0.0
C5217 C 0.80235 0.11119 0.05758 0.0
C5218 C 0.79732 0.1188 0.06814 0.0
C5219 C 0.80269 0.11719 0.08096 0.0
C5220 C 0.8131 0.1084 0.08291 0.0
C5221 C 0.8177 0.10814 0.09717 0.0
C5222 C 0.80786 0.11765 0.10357 0.0
C5223 C 0.79914 0.12297 0.09403 0.0
C5224 C 0.83205 0.11376 0.09768 0.0
C5225 C 0.81626 0.09371 0.10249 0.0
C5226 C 0.75896 0.15348 0.09798 0.0
C5227 C 0.75217 0.15884 0.10899 0.0
C5228 C 0.75736 0.15686 0.12187 0.0
C5229 C 0.76907 0.14951 0.12379 0.0
C5230 C 0.77555 0.14388 0.11272 0.0
C5231 C 0.77049 0.14592 0.10008 0.0
C5232 C 0.77816 0.13844 0.0896 0.0
C5233 C 0.78878 0.13173 0.09802 0.0
C5234 C 0.78723 0.13501 0.11153 0.0
C5235 C 0.78425 0.14869 0.07983 0.0
C5236 C 0.76862 0.12821 0.08302 0.0
H5237 H 0.83056 0.1046 0.12308 0.0
H5238 H 0.80683 0.12489 0.16144 0.0
H5239 H 0.78427 0.11443 0.14371 0.0
H5240 H 0.77433 0.12693 0.13666 0.0
H5241 H 0.78174 0.12958 0.15283 0.0
H5242 H 0.80966 0.14854 0.13841 0.0
H5243 H 0.79702 0.14764 0.15102 0.0
H5244 H 0.79331 0.15339 0.13442 0.0
H5245 H 0.82557 0.09316 0.07463 0.0
H5246 H 0.79804 0.11247 0.04777 0.0
H5247 H 0.78933 0.12555 0.06594 0.0
H5248 H 0.83346 0.12177 0.09015 0.0
H5249 H 0.83949 0.10589 0.09559 0.0
H5250 H 0.83446 0.11851 0.10732 0.0
H5251 H 0.80729 0.08881 0.09821 0.0
H5252 H 0.81479 0.09321 0.11337 0.0
H5253 H 0.82505 0.08757 0.09979 0.0
H5254 H 0.83816 0.10004 0.14535 0.0
C5255 C 0.82524 0.10922 0.13111 0.0
C5256 C 0.6372 0.05718 0.81504 0.0
C5257 C 0.64785 0.06629 0.81503 0.0
C5258 C 0.65173 0.0722 0.82715 0.0
C5259 C 0.63427 0.06035 0.83883 0.0
C5260 C 0.63064 0.0543 0.82701 0.0
C5261 C 0.61979 0.04414 0.82895 0.0
H5262 H 0.58354 0.00657 0.87143 0.0
C5263 C 0.62592 0.05473 0.84957 0.0
C5264 C 0.61746 0.04516 0.84387 0.0
H5265 H 0.5845 0.00449 0.82842 0.0
H5266 H 0.59851 0.02402 0.82762 0.0
H5267 H 0.61423 0.01373 0.87635 0.0
H5268 H 0.57925 0.03807 0.87223 0.0
H5269 H 0.58975 0.04662 0.88329 0.0
H5270 H 0.58346 0.03035 0.88777 0.0
H5271 H 0.60088 0.01411 0.88825 0.0
H5272 H 0.61437 0.02584 0.88906 0.0
C5273 C 0.62544 0.03037 0.82486 0.0
C5274 C 0.60743 0.0486 0.82088 0.0
C5275 C 0.63261 0.07017 0.8973 0.0
C5276 C 0.62701 0.06612 0.9095 0.0
C5277 C 0.61685 0.05644 0.90946 0.0
C5278 C 0.61259 0.05061 0.89751 0.0
C5279 C 0.61862 0.05442 0.88546 0.0
C5280 C 0.6283 0.06419 0.88547 0.0
C5281 C 0.63376 0.0668 0.87176 0.0
C5282 C 0.62557 0.05713 0.8635 0.0
C5283 C 0.61684 0.04982 0.8716 0.0
C5284 C 0.64881 0.06322 0.87174 0.0
C5285 C 0.63073 0.08147 0.86809 0.0
C5286 C 0.58677 0.01034 0.86185 0.0
C5287 C 0.58314 0.00385 0.84999 0.0
C5288 C 0.58725 0.00926 0.8377 0.0
C5289 C 0.59546 0.02054 0.83726 0.0
C5290 C 0.5996 0.0265 0.84923 0.0
C5291 C 0.59486 0.02169 0.86123 0.0
C5292 C 0.59968 0.02977 0.87288 0.0
C5293 C 0.60863 0.0398 0.86594 0.0
C5294 C 0.60871 0.0377 0.85211 0.0
C5295 C 0.60766 0.02045 0.88223 0.0
C5296 C 0.58747 0.03652 0.87951 0.0
H5297 H 0.64837 0.07425 0.84787 0.0
H5298 H 0.63417 0.05223 0.80594 0.0
H5299 H 0.60665 0.05966 0.82058 0.0
H5300 H 0.59797 0.04525 0.82541 0.0
H5301 H 0.60794 0.04499 0.81043 0.0
H5302 H 0.6359 0.02924 0.82835 0.0
H5303 H 0.62542 0.02918 0.81386 0.0
H5304 H 0.62004 0.02192 0.82932 0.0
H5305 H 0.64049 0.07753 0.89697 0.0
H5306 H 0.61234 0.05317 0.9187 0.0
H5307 H 0.60498 0.04315 0.89816 0.0
H5308 H 0.65123 0.05576 0.87957 0.0
H5309 H 0.65507 0.07214 0.87362 0.0
H5310 H 0.65202 0.05846 0.86234 0.0
H5311 H 0.6204 0.08417 0.87106 0.0
H5312 H 0.63128 0.0834 0.85728 0.0
H5313 H 0.63765 0.08836 0.87329 0.0
H5314 H 0.66042 0.07851 0.82767 0.0
C5315 C 0.64489 0.06944 0.83899 0.0
C5316 C 0.87594 0.93401 0.39871 0.0
C5317 C 0.86709 0.92341 0.40105 0.0
C5318 C 0.86134 0.91679 0.39006 0.0
C5319 C 0.87232 0.932 0.37488 0.0
C5320 C 0.87842 0.9381 0.3856 0.0
C5321 C 0.8871 0.94957 0.38142 0.0
H5322 H 0.90909 0.99051 0.33267 0.0
C5323 C 0.87629 0.93923 0.36269 0.0
C5324 C 0.88509 0.94943 0.36643 0.0
H5325 H 0.91689 0.99292 0.37496 0.0
H5326 H 0.90469 0.97253 0.37853 0.0
H5327 H 0.91238 0.95763 0.32968 0.0
H5328 H 0.87922 0.98411 0.33587 0.0
H5329 H 0.87385 0.97172 0.32481 0.0
H5330 H 0.88732 0.98257 0.32001 0.0
H5331 H 0.90623 0.96855 0.31693 0.0
H5332 H 0.89921 0.9522 0.31947 0.0
C5333 C 0.90165 0.94625 0.38529 0.0
C5334 C 0.88152 0.96245 0.3879 0.0
C5335 C 0.85399 0.92819 0.31867 0.0
C5336 C 0.85515 0.93346 0.30575 0.0
C5337 C 0.86473 0.94343 0.30334 0.0
C5338 C 0.87289 0.94819 0.31364 0.0
C5339 C 0.87143 0.94297 0.32655 0.0
C5340 C 0.86234 0.93289 0.32881 0.0
C5341 C 0.86228 0.9284 0.3431 0.0
C5342 C 0.87233 0.9379 0.34918 0.0
C5343 C 0.87767 0.94641 0.33945 0.0
C5344 C 0.86732 0.91383 0.34357 0.0
C5345 C 0.84806 0.93046 0.34878 0.0
C5346 C 0.90841 0.98648 0.34266 0.0
C5347 C 0.914 0.99328 0.35355 0.0
C5348 C 0.91265 0.98786 0.36642 0.0
C5349 C 0.90552 0.97604 0.36847 0.0
C5350 C 0.89946 0.96967 0.35756 0.0
C5351 C 0.90108 0.97483 0.3449 0.0
C5352 C 0.89326 0.96722 0.33462 0.0
C5353 C 0.88674 0.9566 0.34319 0.0
C5354 C 0.89043 0.95809 0.35661 0.0
C5355 C 0.9032 0.96111 0.32454 0.0
C5356 C 0.8829 0.97683 0.32837 0.0
H5357 H 0.85903 0.91573 0.36912 0.0
H5358 H 0.88058 0.93928 0.4069 0.0
H5359 H 0.8705 0.96194 0.38892 0.0
H5360 H 0.88331 0.97145 0.38184 0.0
H5361 H 0.88575 0.96399 0.39801 0.0
H5362 H 0.90379 0.93549 0.38368 0.0
H5363 H 0.90355 0.94849 0.39596 0.0
H5364 H 0.90905 0.95156 0.37913 0.0
H5365 H 0.84633 0.92107 0.32111 0.0
H5366 H 0.86581 0.94769 0.29348 0.0
H5367 H 0.87986 0.95591 0.31119 0.0
H5368 H 0.87491 0.91198 0.3357 0.0
H5369 H 0.85907 0.90669 0.34197 0.0
H5370 H 0.87243 0.91137 0.35302 0.0
H5371 H 0.84348 0.93968 0.34467 0.0
H5372 H 0.84788 0.93186 0.35968 0.0
H5373 H 0.84146 0.92197 0.34617 0.0
H5374 H 0.85452 0.90857 0.39154 0.0
C5375 C 0.86393 0.92101 0.37701 0.0
C5376 C 0.40961 0.26522 0.15462 0.0
C5377 C 0.42324 0.26247 0.15646 0.0
C5378 C 0.43274 0.27175 0.15192 0.0
C5379 C 0.41516 0.28608 0.14373 0.0
C5380 C 0.40582 0.27707 0.14829 0.0
C5381 C 0.39179 0.28155 0.14543 0.0
H5382 H 0.35056 0.32704 0.11752 0.0
C5383 C 0.40801 0.29734 0.13759 0.0
C5384 C 0.3943 0.29486 0.13868 0.0
H5385 H 0.33997 0.28923 0.13525 0.0
H5386 H 0.36299 0.28554 0.14133 0.0
H5387 H 0.37292 0.33589 0.14046 0.0
H5388 H 0.37404 0.31692 0.1021 0.0
H5389 H 0.38831 0.32691 0.10292 0.0
H5390 H 0.37215 0.33459 0.1039 0.0
H5391 H 0.36992 0.3446 0.12513 0.0
H5392 H 0.38654 0.34261 0.13172 0.0
C5393 C 0.3844 0.28324 0.15885 0.0
C5394 C 0.38532 0.27131 0.13584 0.0
C5395 C 0.43396 0.33308 0.11304 0.0
C5396 C 0.42999 0.34445 0.10593 0.0
C5397 C 0.4166 0.34864 0.10665 0.0
C5398 C 0.40713 0.34105 0.11353 0.0
C5399 C 0.41109 0.32919 0.11981 0.0
C5400 C 0.42439 0.32567 0.11998 0.0
C5401 C 0.42679 0.31295 0.12751 0.0
C5402 C 0.41264 0.30905 0.13117 0.0
C5403 C 0.40348 0.31849 0.12647 0.0
C5404 C 0.43531 0.31624 0.13998 0.0
C5405 C 0.43325 0.30278 0.11786 0.0
C5406 C 0.35311 0.31806 0.12293 0.0
C5407 C 0.3434 0.30841 0.12592 0.0
C5408 C 0.34725 0.2968 0.1328 0.0
C5409 C 0.36064 0.29466 0.13626 0.0
C5410 C 0.37031 0.30414 0.13266 0.0
C5411 C 0.36643 0.31568 0.12624 0.0
C5412 C 0.37805 0.32434 0.12249 0.0
C5413 C 0.3896 0.31602 0.12755 0.0
C5414 C 0.38502 0.30425 0.13359 0.0
C5415 C 0.37684 0.33763 0.13023 0.0
C5416 C 0.3782 0.3259 0.10709 0.0
H5417 H 0.4365 0.29013 0.14233 0.0
H5418 H 0.40205 0.25831 0.158 0.0
H5419 H 0.39287 0.26685 0.12907 0.0
H5420 H 0.37791 0.27585 0.1291 0.0
H5421 H 0.38055 0.26305 0.14144 0.0
H5422 H 0.39102 0.28797 0.16638 0.0
H5423 H 0.38118 0.27345 0.16287 0.0
H5424 H 0.37565 0.28984 0.15813 0.0
H5425 H 0.44421 0.32971 0.11278 0.0
H5426 H 0.41327 0.35735 0.10122 0.0
H5427 H 0.397 0.34442 0.11324 0.0
H5428 H 0.434 0.32678 0.14315 0.0
H5429 H 0.44608 0.31469 0.13801 0.0
H5430 H 0.43234 0.31032 0.1488 0.0
H5431 H 0.42837 0.3032 0.10791 0.0
H5432 H 0.43218 0.29236 0.12117 0.0
H5433 H 0.44401 0.30493 0.11644 0.0
H5434 H 0.44329 0.26992 0.15323 0.0
C5435 C 0.42878 0.28353 0.14561 0.0
C5436 C 0.42605 0.67333 0.83027 0.0
C5437 C 0.42648 0.68732 0.83105 0.0
C5438 C 0.43545 0.69336 0.84002 0.0
C5439 C 0.44281 0.67162 0.84758 0.0
C5440 C 0.4342 0.66573 0.83862 0.0
C5441 C 0.43446 0.65077 0.83943 0.0
H5442 H 0.45461 0.59515 0.8715 0.0
C5443 C 0.44943 0.6609 0.85517 0.0
C5444 C 0.44461 0.64867 0.85044 0.0
H5445 H 0.42853 0.59847 0.83734 0.0
H5446 H 0.43224 0.62207 0.83653 0.0
H5447 H 0.47683 0.61457 0.8595 0.0
H5448 H 0.44482 0.62185 0.8871 0.0
H5449 H 0.45956 0.62907 0.89338 0.0
H5450 H 0.45887 0.61138 0.89072 0.0
H5451 H 0.47827 0.61037 0.87681 0.0
H5452 H 0.48254 0.62674 0.87067 0.0
C5453 C 0.43941 0.64526 0.82587 0.0
C5454 C 0.42036 0.64596 0.84351 0.0
C5455 C 0.4826 0.67279 0.89135 0.0
C5456 C 0.49065 0.66513 0.89984 0.0
C5457 C 0.48963 0.65113 0.89943 0.0
C5458 C 0.48075 0.64487 0.89063 0.0
C5459 C 0.47287 0.65269 0.88209 0.0
C5460 C 0.47392 0.66641 0.88253 0.0
C5461 C 0.46515 0.67314 0.87246 0.0
C5462 C 0.45877 0.6612 0.86577 0.0
C5463 C 0.4632 0.64925 0.87154 0.0
C5464 C 0.47414 0.68107 0.86272 0.0
C5465 C 0.45481 0.6817 0.88009 0.0
C5466 C 0.44976 0.60098 0.86383 0.0
C5467 C 0.44114 0.59495 0.85458 0.0
C5468 C 0.4352 0.60285 0.84461 0.0
C5469 C 0.43729 0.6166 0.84419 0.0
C5470 C 0.4455 0.62258 0.85379 0.0
C5471 C 0.45188 0.61478 0.86317 0.0
C5472 C 0.46078 0.62289 0.87212 0.0
C5473 C 0.45821 0.63686 0.86689 0.0
C5474 C 0.44913 0.6366 0.85626 0.0
C5475 C 0.47537 0.61843 0.8698 0.0
C5476 C 0.45587 0.62122 0.88664 0.0
H5477 H 0.45015 0.69078 0.85494 0.0
H5478 H 0.41923 0.66833 0.82355 0.0
H5479 H 0.416 0.65268 0.85118 0.0
H5480 H 0.4203 0.63599 0.8481 0.0
H5481 H 0.4135 0.6459 0.83482 0.0
H5482 H 0.44619 0.65243 0.82083 0.0
H5483 H 0.43095 0.64329 0.819 0.0
H5484 H 0.4454 0.63608 0.82695 0.0
H5485 H 0.48323 0.68356 0.89132 0.0
H5486 H 0.49572 0.64499 0.90588 0.0
H5487 H 0.4804 0.63419 0.89078 0.0
H5488 H 0.48374 0.67581 0.86102 0.0
H5489 H 0.47648 0.69111 0.86673 0.0
H5490 H 0.46973 0.68214 0.8527 0.0
H5491 H 0.45178 0.67676 0.88954 0.0
H5492 H 0.44543 0.68309 0.87453 0.0
H5493 H 0.45899 0.69161 0.88268 0.0
H5494 H 0.436 0.7041 0.84082 0.0
C5495 C 0.44363 0.68559 0.84824 0.0
C5496 C 0.14826 0.69816 0.61382 0.0
C5497 C 0.15443 0.68979 0.60444 0.0
C5498 C 0.14673 0.68429 0.59405 0.0
C5499 C 0.12688 0.69452 0.60308 0.0
C5500 C 0.13451 0.70047 0.61288 0.0
C5501 C 0.12628 0.70909 0.62197 0.0
H5502 H 0.06543 0.73122 0.64084 0.0
C5503 C 0.11285 0.69823 0.60533 0.0
C5504 C 0.11242 0.70689 0.61629 0.0
H5505 H 0.1038 0.74268 0.65674 0.0
H5506 H 0.11478 0.72803 0.64113 0.0
H5507 H 0.07376 0.73318 0.61083 0.0
H5508 H 0.07209 0.69973 0.63757 0.0
H5509 H 0.06572 0.69439 0.62217 0.0
H5510 H 0.05744 0.70762 0.63104 0.0
H5511 H 0.05831 0.7256 0.61563 0.0
H5512 H 0.06776 0.71963 0.60156 0.0
C5513 C 0.13096 0.72372 0.62035 0.0
C5514 C 0.12754 0.70358 0.63632 0.0
C5515 C 0.0765 0.67651 0.57767 0.0
C5516 C 0.06251 0.67714 0.57809 0.0
C5517 C 0.05636 0.68594 0.58714 0.0
C5518 C 0.06402 0.69373 0.59583 0.0
C5519 C 0.07798 0.69268 0.59555 0.0
C5520 C 0.084 0.68428 0.58647 0.0
C5521 C 0.09893 0.68433 0.58765 0.0
C5522 C 0.10088 0.69408 0.59905 0.0
C5523 C 0.08859 0.69888 0.60365 0.0
C5524 C 0.10484 0.68966 0.57441 0.0
C5525 C 0.10346 0.67004 0.59137 0.0
C5526 C 0.0762 0.7305 0.64105 0.0
C5527 C 0.08375 0.73806 0.65008 0.0
C5528 C 0.09775 0.73695 0.64988 0.0
C5529 C 0.10411 0.72846 0.64079 0.0
C5530 C 0.0964 0.72106 0.63174 0.0
C5531 C 0.08269 0.72221 0.63195 0.0
C5532 C 0.07611 0.71398 0.62132 0.0
C5533 C 0.08813 0.70779 0.61462 0.0
C5534 C 0.09998 0.71184 0.62085 0.0
C5535 C 0.06848 0.72349 0.61184 0.0
C5536 C 0.06728 0.7034 0.62828 0.0
H5537 H 0.1277 0.68187 0.58538 0.0
H5538 H 0.15394 0.70265 0.62182 0.0
H5539 H 0.12684 0.69252 0.63631 0.0
H5540 H 0.11953 0.70702 0.64299 0.0
H5541 H 0.13728 0.70635 0.64078 0.0
H5542 H 0.13508 0.72553 0.61022 0.0
H5543 H 0.13886 0.72624 0.62766 0.0
H5544 H 0.1227 0.73094 0.6213 0.0
H5545 H 0.08159 0.66984 0.57087 0.0
H5546 H 0.04562 0.68665 0.58767 0.0
H5547 H 0.05875 0.70013 0.60258 0.0
H5548 H 0.09787 0.69669 0.56943 0.0
H5549 H 0.10688 0.68142 0.56732 0.0
H5550 H 0.11405 0.6955 0.57593 0.0
H5551 H 0.09654 0.66553 0.59875 0.0
H5552 H 0.11334 0.6697 0.59615 0.0
H5553 H 0.10362 0.66347 0.58247 0.0
H5554 H 0.15122 0.67782 0.58668 0.0
C5555 C 0.13302 0.68659 0.59335 0.0
C5556 C 0.061 0.4008 0.388 0.0
C5557 C 0.07254 0.40652 0.38253 0.0
C5558 C 0.08221 0.3982 0.37666 0.0
C5559 C 0.06848 0.37889 0.38086 0.0
C5560 C 0.05932 0.38692 0.3873 0.0
C5561 C 0.04823 0.37891 0.39346 0.0
H5562 H 0.02014 0.31852 0.40446 0.0
C5563 C 0.06367 0.36504 0.38143 0.0
C5564 C 0.05195 0.3649 0.38904 0.0
H5565 H 0.00805 0.3566 0.42058 0.0
H5566 H 0.02569 0.3675 0.40836 0.0
H5567 H 0.02415 0.32864 0.37544 0.0
H5568 H 0.05201 0.32276 0.4074 0.0
H5569 H 0.05889 0.31595 0.39275 0.0
H5570 H 0.0434 0.3095 0.39903 0.0
H5571 H 0.03113 0.31257 0.37888 0.0
H5572 H 0.0392 0.32421 0.36777 0.0
C5573 C 0.0349 0.3835 0.38726 0.0
C5574 C 0.04901 0.38057 0.4088 0.0
C5575 C 0.08683 0.32929 0.35409 0.0
C5576 C 0.0838 0.31586 0.35144 0.0
C5577 C 0.07289 0.30993 0.35797 0.0
C5578 C 0.06506 0.31728 0.3669 0.0
C5579 C 0.06806 0.33077 0.36922 0.0
C5580 C 0.07878 0.33656 0.36283 0.0
C5581 C 0.08015 0.35113 0.36606 0.0
C5582 C 0.06836 0.35316 0.37533 0.0
C5583 C 0.06141 0.34119 0.3772 0.0
C5584 C 0.07859 0.35906 0.35291 0.0
C5585 C 0.09367 0.35334 0.37322 0.0
C5586 C 0.02132 0.3292 0.40543 0.0
C5587 C 0.01278 0.33668 0.41361 0.0
C5588 C 0.01454 0.35059 0.41441 0.0
C5589 C 0.02481 0.3569 0.40734 0.0
C5590 C 0.0334 0.34923 0.39937 0.0
C5591 C 0.03149 0.33564 0.39844 0.0
C5592 C 0.04135 0.32908 0.3893 0.0
C5593 C 0.04989 0.3409 0.38538 0.0
C5594 C 0.04517 0.35269 0.39125 0.0
C5595 C 0.03365 0.32322 0.37724 0.0
C5596 C 0.04934 0.3187 0.39744 0.0
H5597 H 0.08783 0.37872 0.37095 0.0
H5598 H 0.05358 0.40693 0.39286 0.0
H5599 H 0.05938 0.38263 0.41213 0.0
H5600 H 0.04615 0.37142 0.41422 0.0
H5601 H 0.04268 0.38896 0.41226 0.0
H5602 H 0.03592 0.3847 0.37629 0.0
H5603 H 0.03173 0.39324 0.39145 0.0
H5604 H 0.02677 0.37624 0.3887 0.0
H5605 H 0.09508 0.33419 0.34916 0.0
H5606 H 0.07036 0.2996 0.35614 0.0
H5607 H 0.0569 0.3122 0.37156 0.0
H5608 H 0.06985 0.35538 0.34718 0.0
H5609 H 0.08755 0.3579 0.34653 0.0
H5610 H 0.07685 0.36978 0.35446 0.0
H5611 H 0.09735 0.34404 0.37798 0.0
H5612 H 0.09288 0.36058 0.38152 0.0
H5613 H 0.10146 0.35676 0.36615 0.0
H5614 H 0.09123 0.40236 0.37246 0.0
C5615 C 0.0802 0.38446 0.37572 0.0
C5616 C 0.4098 0.73389 0.34441 0.0
C5617 C 0.42342 0.73664 0.34259 0.0
C5618 C 0.43292 0.72736 0.34713 0.0
C5619 C 0.41533 0.71303 0.35529 0.0
C5620 C 0.40599 0.72204 0.35073 0.0
C5621 C 0.39196 0.71756 0.35357 0.0
H5622 H 0.35069 0.6721 0.38148 0.0
C5623 C 0.40817 0.70176 0.36143 0.0
C5624 C 0.39446 0.70425 0.36032 0.0
H5625 H 0.34013 0.7099 0.3637 0.0
H5626 H 0.36316 0.71356 0.35762 0.0
H5627 H 0.37304 0.6632 0.35858 0.0
H5628 H 0.37421 0.68225 0.39689 0.0
H5629 H 0.38843 0.67219 0.3961 0.0
H5630 H 0.37223 0.66459 0.39512 0.0
H5631 H 0.37007 0.65452 0.37392 0.0
H5632 H 0.38668 0.65651 0.36731 0.0
C5633 C 0.38459 0.71587 0.34013 0.0
C5634 C 0.38548 0.72779 0.36315 0.0
C5635 C 0.43409 0.66604 0.38602 0.0
C5636 C 0.43011 0.65468 0.39315 0.0
C5637 C 0.41672 0.65049 0.39241 0.0
C5638 C 0.40726 0.65807 0.38551 0.0
C5639 C 0.41122 0.66993 0.37922 0.0
C5640 C 0.42453 0.67344 0.37907 0.0
C5641 C 0.42694 0.68616 0.37154 0.0
C5642 C 0.41279 0.69006 0.36786 0.0
C5643 C 0.40363 0.68062 0.37255 0.0
C5644 C 0.43547 0.68286 0.35908 0.0
C5645 C 0.43339 0.69634 0.38119 0.0
C5646 C 0.35325 0.68108 0.37606 0.0
C5647 C 0.34356 0.69073 0.37306 0.0
C5648 C 0.34741 0.70233 0.36616 0.0
C5649 C 0.3608 0.70446 0.3627 0.0
C5650 C 0.37046 0.69497 0.36633 0.0
C5651 C 0.36657 0.68344 0.37276 0.0
C5652 C 0.37819 0.67478 0.37652 0.0
C5653 C 0.38975 0.68309 0.37146 0.0
C5654 C 0.38517 0.69485 0.3654 0.0
C5655 C 0.37698 0.66148 0.3688 0.0
C5656 C 0.37832 0.67324 0.39192 0.0
H5657 H 0.43667 0.70897 0.35671 0.0
H5658 H 0.40224 0.7408 0.34103 0.0
H5659 H 0.39303 0.73225 0.36993 0.0
H5660 H 0.37806 0.72326 0.36988 0.0
H5661 H 0.38073 0.73606 0.35754 0.0
H5662 H 0.39122 0.71115 0.33261 0.0
H5663 H 0.38137 0.72566 0.33612 0.0
H5664 H 0.37584 0.70926 0.34084 0.0
H5665 H 0.44434 0.66941 0.3863 0.0
H5666 H 0.41338 0.64178 0.39784 0.0
H5667 H 0.39713 0.65469 0.38579 0.0
H5668 H 0.43415 0.67232 0.35591 0.0
H5669 H 0.44624 0.68441 0.36106 0.0
H5670 H 0.43251 0.68878 0.35026 0.0
H5671 H 0.4285 0.69592 0.39113 0.0
H5672 H 0.43232 0.70675 0.37788 0.0
H5673 H 0.44414 0.69419 0.38262 0.0
H5674 H 0.44347 0.7292 0.34584 0.0
C5675 C 0.42895 0.71558 0.35343 0.0
C5676 C 0.05876 0.59993 0.11324 0.0
C5677 C 0.07054 0.59408 0.11803 0.0
C5678 C 0.0805 0.60226 0.12359 0.0
C5679 C 0.06664 0.62168 0.12043 0.0
C5680 C 0.05715 0.61379 0.1143 0.0
C5681 C 0.04579 0.62194 0.10886 0.0
H5682 H 0.01737 0.68259 0.1004 0.0
C5683 C 0.06184 0.63555 0.12039 0.0
C5684 C 0.04974 0.63585 0.11339 0.0
H5685 H 0.00448 0.64487 0.08406 0.0
H5686 H 0.02255 0.63367 0.09534 0.0
H5687 H 0.02278 0.67184 0.12912 0.0
H5688 H 0.04892 0.67835 0.09586 0.0
H5689 H 0.05662 0.68481 0.11025 0.0
H5690 H 0.04085 0.69147 0.10496 0.0
H5691 H 0.02954 0.68798 0.12559 0.0
H5692 H 0.03821 0.67619 0.13606 0.0
C5693 C 0.03277 0.61723 0.11562 0.0
C5694 C 0.04579 0.6206 0.09347 0.0
C5695 C 0.08652 0.67077 0.14709 0.0
C5696 C 0.08367 0.68416 0.15012 0.0
C5697 C 0.07243 0.69022 0.1443 0.0
C5698 C 0.06411 0.68303 0.13569 0.0
C5699 C 0.06695 0.66958 0.13298 0.0
C5700 C 0.07798 0.66367 0.13867 0.0
C5701 C 0.07914 0.64915 0.13512 0.0
C5702 C 0.06686 0.6473 0.12646 0.0
C5703 C 0.05985 0.65932 0.12519 0.0
C5704 C 0.07827 0.64099 0.14819 0.0
C5705 C 0.09224 0.64705 0.1272 0.0
C5706 C 0.01844 0.67192 0.09921 0.0
C5707 C 0.00956 0.66463 0.09122 0.0
C5708 C 0.01123 0.65073 0.0901 0.0
C5709 C 0.02176 0.64425 0.09661 0.0
C5710 C 0.03072 0.65174 0.10433 0.0
C5711 C 0.02888 0.66532 0.10563 0.0
C5712 C 0.03922 0.67168 0.11437 0.0
C5713 C 0.04792 0.65978 0.11763 0.0
C5714 C 0.04288 0.64811 0.11178 0.0
C5715 C 0.03216 0.67732 0.12692 0.0
C5716 C 0.04681 0.68221 0.10603 0.0
H5717 H 0.08645 0.62161 0.12939 0.0
H5718 H 0.05109 0.59391 0.10863 0.0
H5719 H 0.05597 0.61858 0.08959 0.0
H5720 H 0.04271 0.62987 0.0884 0.0
H5721 H 0.03927 0.6123 0.09016 0.0
H5722 H 0.03434 0.6158 0.1265 0.0
H5723 H 0.02938 0.60758 0.1114 0.0
H5724 H 0.02459 0.62452 0.11473 0.0
H5725 H 0.09502 0.66578 0.15148 0.0
H5726 H 0.07004 0.70052 0.14644 0.0
H5727 H 0.05572 0.6882 0.13158 0.0
H5728 H 0.06989 0.64461 0.15447 0.0
H5729 H 0.08758 0.642 0.15409 0.0
H5730 H 0.07638 0.63031 0.14656 0.0
H5731 H 0.09565 0.65642 0.12236 0.0
H5732 H 0.09101 0.63991 0.11887 0.0
H5733 H 0.10041 0.64356 0.1338 0.0
H5734 H 0.0897 0.598 0.12728 0.0
C5735 C 0.07858 0.61598 0.12489 0.0
C5736 C 0.14835 0.30089 0.88551 0.0
C5737 C 0.15454 0.30927 0.89488 0.0
C5738 C 0.14685 0.31477 0.90527 0.0
C5739 C 0.12699 0.30453 0.89628 0.0
C5740 C 0.13461 0.29858 0.88647 0.0
C5741 C 0.12637 0.28995 0.87739 0.0
H5742 H 0.06549 0.26782 0.85858 0.0
C5743 C 0.11296 0.30081 0.89405 0.0
C5744 C 0.11252 0.29214 0.88309 0.0
H5745 H 0.10383 0.25636 0.84264 0.0
H5746 H 0.11484 0.271 0.85826 0.0
H5747 H 0.07385 0.26586 0.88858 0.0
H5748 H 0.07216 0.29931 0.86186 0.0
H5749 H 0.06581 0.30465 0.87725 0.0
H5750 H 0.05752 0.29142 0.86839 0.0
H5751 H 0.0584 0.27344 0.8838 0.0
H5752 H 0.06787 0.2794 0.89787 0.0
C5753 C 0.13105 0.27532 0.87902 0.0
C5754 C 0.12761 0.29545 0.86304 0.0
C5755 C 0.07665 0.32253 0.92174 0.0
C5756 C 0.06265 0.32191 0.92133 0.0
C5757 C 0.05649 0.3131 0.9123 0.0
C5758 C 0.06414 0.30531 0.9036 0.0
C5759 C 0.0781 0.30635 0.90387 0.0
C5760 C 0.08413 0.31475 0.91294 0.0
C5761 C 0.09906 0.31471 0.91174 0.0
C5762 C 0.101 0.30496 0.90034 0.0
C5763 C 0.0887 0.30015 0.89575 0.0
C5764 C 0.10499 0.30939 0.92497 0.0
C5765 C 0.10359 0.329 0.90801 0.0
C5766 C 0.07626 0.26854 0.85836 0.0
C5767 C 0.0838 0.26099 0.84932 0.0
C5768 C 0.0978 0.26208 0.84951 0.0
C5769 C 0.10417 0.27057 0.8586 0.0
C5770 C 0.09648 0.27798 0.86765 0.0
C5771 C 0.08277 0.27683 0.86746 0.0
C5772 C 0.0762 0.28506 0.87809 0.0
C5773 C 0.08823 0.29125 0.88479 0.0
C5774 C 0.10007 0.2872 0.87855 0.0
C5775 C 0.06857 0.27555 0.88759 0.0
C5776 C 0.06736 0.29564 0.87115 0.0
H5777 H 0.12783 0.31719 0.91397 0.0
H5778 H 0.15402 0.29639 0.87751 0.0
H5779 H 0.12691 0.30651 0.86305 0.0
H5780 H 0.11959 0.29201 0.85638 0.0
H5781 H 0.13734 0.29268 0.85857 0.0
H5782 H 0.13518 0.27351 0.88914 0.0
H5783 H 0.13895 0.2728 0.87169 0.0
H5784 H 0.12279 0.2681 0.87807 0.0
H5785 H 0.08174 0.32921 0.92853 0.0
H5786 H 0.04574 0.3124 0.91177 0.0
H5787 H 0.05886 0.29891 0.89686 0.0
H5788 H 0.09803 0.30234 0.92996 0.0
H5789 H 0.10703 0.31763 0.93207 0.0
H5790 H 0.11421 0.30355 0.92345 0.0
H5791 H 0.09664 0.33352 0.90064 0.0
H5792 H 0.11345 0.32934 0.9032 0.0
H5793 H 0.10377 0.33557 0.91691 0.0
H5794 H 0.15135 0.32125 0.91263 0.0
C5795 C 0.13314 0.31247 0.906 0.0
C5796 C 0.42609 0.32574 0.66896 0.0
C5797 C 0.42654 0.31175 0.66818 0.0
C5798 C 0.43549 0.30572 0.6592 0.0
C5799 C 0.44281 0.32747 0.65162 0.0
C5800 C 0.43421 0.33335 0.6606 0.0
C5801 C 0.43446 0.34831 0.65979 0.0
H5802 H 0.45451 0.40396 0.62769 0.0
C5803 C 0.44941 0.3382 0.64401 0.0
C5804 C 0.44459 0.35043 0.64876 0.0
H5805 H 0.42849 0.40061 0.66189 0.0
H5806 H 0.43222 0.37701 0.66269 0.0
H5807 H 0.47676 0.38455 0.63964 0.0
H5808 H 0.44471 0.37725 0.6121 0.0
H5809 H 0.45944 0.37005 0.60579 0.0
H5810 H 0.45875 0.38773 0.60845 0.0
H5811 H 0.47817 0.38875 0.62233 0.0
H5812 H 0.48246 0.37238 0.62846 0.0
C5813 C 0.43943 0.35383 0.67334 0.0
C5814 C 0.42034 0.35311 0.65573 0.0
C5815 C 0.48251 0.32634 0.60777 0.0
C5816 C 0.49055 0.33402 0.59927 0.0
C5817 C 0.48951 0.34802 0.59969 0.0
C5818 C 0.48064 0.35426 0.60849 0.0
C5819 C 0.47279 0.34643 0.61704 0.0
C5820 C 0.47384 0.33272 0.6166 0.0
C5821 C 0.4651 0.32598 0.62669 0.0
C5822 C 0.45872 0.33791 0.6334 0.0
C5823 C 0.46313 0.34986 0.62762 0.0
C5824 C 0.47411 0.31805 0.63641 0.0
C5825 C 0.45475 0.31741 0.61908 0.0
C5826 C 0.44968 0.39812 0.63536 0.0
C5827 C 0.44108 0.40414 0.64463 0.0
C5828 C 0.43515 0.39624 0.65461 0.0
C5829 C 0.43726 0.38249 0.65502 0.0
C5830 C 0.44545 0.37651 0.6454 0.0
C5831 C 0.45181 0.38432 0.63602 0.0
C5832 C 0.46069 0.37622 0.62705 0.0
C5833 C 0.45814 0.36224 0.63229 0.0
C5834 C 0.44908 0.3625 0.64293 0.0
C5835 C 0.47529 0.38069 0.62935 0.0
C5836 C 0.45576 0.37789 0.61254 0.0
H5837 H 0.45015 0.30832 0.64425 0.0
H5838 H 0.41928 0.33074 0.6757 0.0
H5839 H 0.41597 0.34639 0.64808 0.0
H5840 H 0.42028 0.36308 0.65114 0.0
H5841 H 0.41351 0.35317 0.66444 0.0
H5842 H 0.44624 0.34666 0.67836 0.0
H5843 H 0.43099 0.35578 0.68022 0.0
H5844 H 0.44541 0.36302 0.67224 0.0
H5845 H 0.48315 0.31557 0.6078 0.0
H5846 H 0.4956 0.35415 0.59323 0.0
H5847 H 0.48029 0.36494 0.60836 0.0
H5848 H 0.48372 0.3233 0.63808 0.0
H5849 H 0.47644 0.308 0.6324 0.0
H5850 H 0.46973 0.31698 0.64645 0.0
H5851 H 0.45168 0.32235 0.60964 0.0
H5852 H 0.44538 0.316 0.62466 0.0
H5853 H 0.45893 0.30751 0.61646 0.0
H5854 H 0.43605 0.29499 0.65839 0.0
C5855 C 0.44364 0.3135 0.65095 0.0
C5856 C 0.14801 0.41014 0.26314 0.0
C5857 C 0.1485 0.42347 0.25885 0.0
C5858 C 0.1422 0.43337 0.26655 0.0
C5859 C 0.13553 0.41681 0.28275 0.0
C5860 C 0.14158 0.40706 0.27514 0.0
C5861 C 0.14053 0.39349 0.28146 0.0
H5862 H 0.1215 0.35612 0.33432 0.0
C5863 C 0.13039 0.41051 0.29497 0.0
C5864 C 0.13345 0.39687 0.2944 0.0
H5865 H 0.13732 0.34221 0.29676 0.0
H5866 H 0.13939 0.36502 0.2891 0.0
H5867 H 0.14052 0.38183 0.33803 0.0
H5868 H 0.10155 0.37574 0.32143 0.0
H5869 H 0.10084 0.39059 0.33058 0.0
H5870 H 0.1048 0.37529 0.339 0.0
H5871 H 0.12605 0.37954 0.34826 0.0
H5872 H 0.13104 0.39584 0.3425 0.0
C5873 C 0.15476 0.38814 0.28394 0.0
C5874 C 0.1319 0.38452 0.27232 0.0
C5875 C 0.1039 0.4377 0.32852 0.0
C5876 C 0.09886 0.43464 0.34122 0.0
C5877 C 0.10208 0.4223 0.34709 0.0
C5878 C 0.1095 0.41281 0.34012 0.0
C5879 C 0.11386 0.41569 0.32717 0.0
C5880 C 0.11158 0.42816 0.32179 0.0
C5881 C 0.11815 0.42977 0.3084 0.0
C5882 C 0.12378 0.41586 0.30626 0.0
C5883 C 0.12102 0.40764 0.31719 0.0
C5884 C 0.12926 0.44044 0.30969 0.0
C5885 C 0.10729 0.43318 0.298 0.0
C5886 C 0.12566 0.35796 0.32453 0.0
C5887 C 0.12937 0.34737 0.31617 0.0
C5888 C 0.13442 0.35021 0.30338 0.0
C5889 C 0.13556 0.36345 0.29895 0.0
C5890 C 0.13141 0.37391 0.30732 0.0
C5891 C 0.12654 0.37103 0.31987 0.0
C5892 C 0.12151 0.38316 0.32702 0.0
C5893 C 0.12411 0.39386 0.31668 0.0
C5894 C 0.1301 0.38844 0.30526 0.0
C5895 C 0.1301 0.38524 0.33968 0.0
C5896 C 0.10642 0.38118 0.32978 0.0
H5897 H 0.1311 0.43807 0.28385 0.0
H5898 H 0.15274 0.4023 0.25744 0.0
H5899 H 0.12463 0.39051 0.26648 0.0
H5900 H 0.1257 0.37741 0.278 0.0
H5901 H 0.13816 0.37894 0.2651 0.0
H5902 H 0.16119 0.39607 0.28825 0.0
H5903 H 0.15942 0.38476 0.27449 0.0
H5904 H 0.15505 0.37984 0.29113 0.0
H5905 H 0.10184 0.44724 0.32392 0.0
H5906 H 0.09838 0.41975 0.35688 0.0
H5907 H 0.11126 0.40346 0.34498 0.0
H5908 H 0.13242 0.44187 0.32022 0.0
H5909 H 0.12588 0.45027 0.30591 0.0
H5910 H 0.1385 0.43753 0.3044 0.0
H5911 H 0.0985 0.42654 0.29926 0.0
H5912 H 0.11067 0.43178 0.28764 0.0
H5913 H 0.10385 0.44363 0.29917 0.0
H5914 H 0.14236 0.4437 0.26344 0.0
C5915 C 0.1357 0.4301 0.27844 0.0
C5916 C 0.3283 0.39095 0.01569 0.0
C5917 C 0.33597 0.39946 0.00766 0.0
C5918 C 0.34996 0.39916 0.00879 0.0
C5919 C 0.3484 0.38191 0.02562 0.0
C5920 C 0.33469 0.38223 0.02447 0.0
C5921 C 0.32798 0.37213 0.03324 0.0
H5922 H 0.33287 0.324 0.07996 0.0
C5923 C 0.35185 0.37146 0.03539 0.0
C5924 C 0.33992 0.36561 0.03978 0.0
H5925 H 0.2971 0.33989 0.06191 0.0
H5926 H 0.3104 0.35419 0.04792 0.0
H5927 H 0.34892 0.32056 0.05416 0.0
H5928 H 0.34855 0.35276 0.0824 0.0
H5929 H 0.3652 0.3484 0.07895 0.0
H5930 H 0.35421 0.33619 0.08603 0.0
H5931 H 0.35881 0.32 0.06902 0.0
H5932 H 0.36502 0.32735 0.05381 0.0
C5933 C 0.32021 0.36226 0.02425 0.0
C5934 C 0.31926 0.37974 0.04345 0.0
C5935 C 0.40011 0.3643 0.04912 0.0
C5936 C 0.4062 0.35518 0.05784 0.0
C5937 C 0.39835 0.34524 0.06391 0.0
C5938 C 0.38459 0.34472 0.0618 0.0
C5939 C 0.37856 0.35419 0.05349 0.0
C5940 C 0.38632 0.36354 0.047 0.0
C5941 C 0.37818 0.37232 0.03797 0.0
C5942 C 0.36424 0.36699 0.04053 0.0
C5943 C 0.36454 0.3565 0.04976 0.0
C5944 C 0.38274 0.36988 0.02342 0.0
C5945 C 0.37972 0.3869 0.04275 0.0
C5946 C 0.32787 0.33055 0.073 0.0
C5947 C 0.31388 0.33085 0.07212 0.0
C5948 C 0.30784 0.33945 0.06281 0.0
C5949 C 0.31559 0.34779 0.05472 0.0
C5950 C 0.32954 0.34755 0.05592 0.0
C5951 C 0.33545 0.33892 0.06485 0.0
C5952 C 0.3504 0.3399 0.06473 0.0
C5953 C 0.35249 0.35065 0.05429 0.0
C5954 C 0.34025 0.35515 0.04927 0.0
C5955 C 0.35618 0.32627 0.0603 0.0
C5956 C 0.35495 0.34448 0.07875 0.0
H5957 H 0.36688 0.39068 0.01817 0.0
H5958 H 0.31754 0.39082 0.01497 0.0
H5959 H 0.32432 0.38901 0.04682 0.0
H5960 H 0.3174 0.37403 0.05266 0.0
H5961 H 0.30956 0.38264 0.039 0.0
H5962 H 0.32533 0.36084 0.01452 0.0
H5963 H 0.31 0.36596 0.02214 0.0
H5964 H 0.31957 0.35215 0.02855 0.0
H5965 H 0.40591 0.37194 0.04418 0.0
H5966 H 0.40275 0.3381 0.07069 0.0
H5967 H 0.37917 0.33708 0.06691 0.0
H5968 H 0.38669 0.35961 0.02209 0.0
H5969 H 0.39074 0.37693 0.02048 0.0
H5970 H 0.37445 0.3706 0.0162 0.0
H5971 H 0.3791 0.38745 0.05381 0.0
H5972 H 0.37178 0.39352 0.03903 0.0
H5973 H 0.3895 0.39105 0.0397 0.0
H5974 H 0.35609 0.40562 0.0027 0.0
C5975 C 0.35621 0.39046 0.01776 0.0
C5976 C 0.37044 0.65145 0.80645 0.0
C5977 C 0.37702 0.65775 0.8171 0.0
C5978 C 0.38129 0.65 0.82802 0.0
C5979 C 0.37366 0.62993 0.81706 0.0
C5980 C 0.36881 0.63758 0.80669 0.0
C5981 C 0.36236 0.62921 0.79605 0.0
H5982 H 0.34797 0.568 0.77167 0.0
C5983 C 0.3713 0.61578 0.81381 0.0
C5984 C 0.36451 0.61529 0.80158 0.0
H5985 H 0.33815 0.60626 0.75444 0.0
H5986 H 0.34826 0.61743 0.7732 0.0
H5987 H 0.37641 0.57507 0.77927 0.0
H5988 H 0.34054 0.57572 0.80251 0.0
H5989 H 0.35311 0.5685 0.81239 0.0
H5990 H 0.34851 0.56073 0.79687 0.0
H5991 H 0.37001 0.5603 0.78697 0.0
H5992 H 0.38145 0.57123 0.79552 0.0
C5993 C 0.37004 0.63143 0.78284 0.0
C5994 C 0.34739 0.63291 0.79542 0.0
C5995 C 0.39244 0.57948 0.8421 0.0
C5996 C 0.3937 0.56565 0.84022 0.0
C5997 C 0.38646 0.55945 0.82994 0.0
C5998 C 0.3785 0.56697 0.82131 0.0
C5999 C 0.37798 0.58088 0.82279 0.0
C6000 C 0.38469 0.58691 0.83318 0.0
C6001 C 0.38356 0.60186 0.83275 0.0
C6002 C 0.37528 0.60379 0.82021 0.0
C6003 C 0.37204 0.59146 0.81448 0.0
C6004 C 0.39778 0.60772 0.8313 0.0
C6005 C 0.37601 0.60651 0.84538 0.0
C6006 C 0.3479 0.57879 0.77195 0.0
C6007 C 0.34224 0.58625 0.76156 0.0
C6008 C 0.34248 0.60027 0.76231 0.0
C6009 C 0.34834 0.60675 0.77322 0.0
C6010 C 0.3541 0.59913 0.78347 0.0
C6011 C 0.35376 0.58539 0.78272 0.0
C6012 C 0.36065 0.57887 0.79429 0.0
C6013 C 0.36495 0.59095 0.80227 0.0
C6014 C 0.36116 0.60279 0.79587 0.0
C6015 C 0.37271 0.57086 0.78883 0.0
C6016 C 0.35026 0.57041 0.80194 0.0
H6017 H 0.3834 0.6308 0.8365 0.0
H6018 H 0.36693 0.65712 0.79798 0.0
H6019 H 0.34353 0.63557 0.80546 0.0
H6020 H 0.34106 0.62454 0.79212 0.0
H6021 H 0.3457 0.64159 0.78877 0.0
H6022 H 0.38094 0.63214 0.78473 0.0
H6023 H 0.36685 0.6408 0.77791 0.0
H6024 H 0.36892 0.62312 0.77574 0.0
H6025 H 0.39807 0.58455 0.84979 0.0
H6026 H 0.38728 0.54881 0.82833 0.0
H6027 H 0.37343 0.56168 0.81353 0.0
H6028 H 0.40388 0.60154 0.82442 0.0
H6029 H 0.40298 0.608 0.84107 0.0
H6030 H 0.39795 0.6178 0.82696 0.0
H6031 H 0.36856 0.59895 0.84858 0.0
H6032 H 0.37015 0.61567 0.84369 0.0
H6033 H 0.38297 0.60813 0.85383 0.0
H6034 H 0.38636 0.65457 0.83638 0.0
C6035 C 0.37964 0.63616 0.82805 0.0
C6036 C 0.09848 0.62058 0.55328 0.0
C6037 C 0.09197 0.6272 0.56378 0.0
C6038 C 0.09947 0.63126 0.57495 0.0
C6039 C 0.11972 0.62336 0.56455 0.0
C6040 C 0.11231 0.61869 0.55392 0.0
C6041 C 0.12089 0.61207 0.54355 0.0
H6042 H 0.18267 0.59711 0.52095 0.0
C6043 C 0.13392 0.62079 0.56172 0.0
C6044 C 0.13467 0.61401 0.5495 0.0
H6045 H 0.14486 0.58692 0.50298 0.0
H6046 H 0.13322 0.59738 0.52127 0.0
H6047 H 0.17533 0.62579 0.52839 0.0
H6048 H 0.17422 0.58976 0.55137 0.0
H6049 H 0.18102 0.60227 0.56159 0.0
H6050 H 0.18935 0.59783 0.54631 0.0
H6051 H 0.18998 0.61918 0.53616 0.0
H6052 H 0.17909 0.63064 0.54472 0.0
C6053 C 0.11922 0.61975 0.53027 0.0
C6054 C 0.11697 0.59717 0.54282 0.0
C6055 C 0.1696 0.64123 0.5913 0.0
C6056 C 0.18349 0.64236 0.58985 0.0
C6057 C 0.18991 0.63527 0.57961 0.0
C6058 C 0.18256 0.62752 0.57064 0.0
C6059 C 0.16861 0.62708 0.57173 0.0
C6060 C 0.16235 0.63371 0.58204 0.0
C6061 C 0.14741 0.63276 0.58115 0.0
C6062 C 0.14576 0.62462 0.56848 0.0
C6063 C 0.15821 0.62132 0.56307 0.0
C6064 C 0.14178 0.64708 0.57967 0.0
C6065 C 0.1423 0.62516 0.59357 0.0
C6066 C 0.17188 0.59708 0.52094 0.0
C6067 C 0.16469 0.59119 0.51048 0.0
C6068 C 0.15065 0.59141 0.5109 0.0
C6069 C 0.1439 0.59747 0.52154 0.0
C6070 C 0.15126 0.60342 0.53187 0.0
C6071 C 0.16501 0.60307 0.53147 0.0
C6072 C 0.17126 0.60992 0.5432 0.0
C6073 C 0.15899 0.61426 0.55086 0.0
C6074 C 0.1473 0.61054 0.54415 0.0
C6075 C 0.17943 0.62197 0.53795 0.0
C6076 C 0.1795 0.5995 0.55105 0.0
H6077 H 0.11842 0.63299 0.58402 0.0
H6078 H 0.09299 0.6172 0.54462 0.0
H6079 H 0.11363 0.59343 0.55271 0.0
H6080 H 0.12543 0.59067 0.5401 0.0
H6081 H 0.10869 0.59556 0.53566 0.0
H6082 H 0.11903 0.63068 0.53209 0.0
H6083 H 0.10975 0.61699 0.52526 0.0
H6084 H 0.12751 0.61812 0.52326 0.0
H6085 H 0.16437 0.64679 0.59893 0.0
H6086 H 0.20059 0.63602 0.57832 0.0
H6087 H 0.18802 0.62253 0.56293 0.0
H6088 H 0.14829 0.6532 0.57311 0.0
H6089 H 0.14118 0.65216 0.58948 0.0
H6090 H 0.13189 0.64742 0.57493 0.0
H6091 H 0.14965 0.61757 0.5969 0.0
H6092 H 0.1331 0.61944 0.59156 0.0
H6093 H 0.14054 0.63205 0.60204 0.0
H6094 H 0.09475 0.63636 0.58321 0.0
C6095 C 0.11327 0.62938 0.57539 0.0
C6096 C 0.1484 0.58854 0.23587 0.0
C6097 C 0.14881 0.57517 0.24006 0.0
C6098 C 0.14235 0.56539 0.23233 0.0
C6099 C 0.13564 0.58215 0.21635 0.0
C6100 C 0.14187 0.59178 0.22397 0.0
C6101 C 0.14087 0.60541 0.21778 0.0
H6102 H 0.12159 0.6434 0.16546 0.0
C6103 C 0.13037 0.58861 0.20427 0.0
C6104 C 0.13356 0.60222 0.20492 0.0
H6105 H 0.13824 0.65685 0.20284 0.0
H6106 H 0.14002 0.63396 0.21036 0.0
H6107 H 0.14031 0.61688 0.16163 0.0
H6108 H 0.10161 0.62474 0.17799 0.0
H6109 H 0.10034 0.60924 0.1701 0.0
H6110 H 0.1045 0.62374 0.16039 0.0
H6111 H 0.12602 0.62046 0.15152 0.0
H6112 H 0.12998 0.60367 0.15663 0.0
C6113 C 0.15513 0.61061 0.21512 0.0
C6114 C 0.13249 0.61439 0.22713 0.0
C6115 C 0.10317 0.56194 0.17084 0.0
C6116 C 0.09779 0.56522 0.15833 0.0
C6117 C 0.10079 0.57771 0.15265 0.0
C6118 C 0.10838 0.58708 0.1596 0.0
C6119 C 0.11315 0.58393 0.17235 0.0
C6120 C 0.11099 0.57137 0.17757 0.0
C6121 C 0.11779 0.56957 0.19082 0.0
C6122 C 0.1235 0.58343 0.19305 0.0
C6123 C 0.12057 0.5918 0.18227 0.0
C6124 C 0.12885 0.55889 0.18919 0.0
C6125 C 0.10709 0.56605 0.20135 0.0
C6126 C 0.12588 0.64145 0.17518 0.0
C6127 C 0.12991 0.65193 0.18353 0.0
C6128 C 0.1351 0.64893 0.19622 0.0
C6129 C 0.13606 0.63565 0.20057 0.0
C6130 C 0.13161 0.62531 0.19221 0.0
C6131 C 0.1266 0.62834 0.17976 0.0
C6132 C 0.12127 0.61633 0.17261 0.0
C6133 C 0.12384 0.60554 0.18285 0.0
C6134 C 0.13011 0.61078 0.19421 0.0
C6135 C 0.12971 0.61419 0.15986 0.0
C6136 C 0.10618 0.61855 0.17001 0.0
H6137 H 0.13103 0.56093 0.21511 0.0
H6138 H 0.15327 0.59629 0.24158 0.0
H6139 H 0.12517 0.60844 0.23295 0.0
H6140 H 0.12636 0.62169 0.22161 0.0
H6141 H 0.13892 0.61976 0.23436 0.0
H6142 H 0.16141 0.60263 0.21069 0.0
H6143 H 0.15995 0.61389 0.22453 0.0
H6144 H 0.15541 0.61894 0.20797 0.0
H6145 H 0.10126 0.55231 0.17531 0.0
H6146 H 0.09681 0.58047 0.14302 0.0
H6147 H 0.10995 0.59654 0.1549 0.0
H6148 H 0.13195 0.55774 0.17861 0.0
H6149 H 0.12543 0.54898 0.19272 0.0
H6150 H 0.13812 0.56162 0.19451 0.0
H6151 H 0.09828 0.57268 0.20028 0.0
H6152 H 0.11062 0.56738 0.21167 0.0
H6153 H 0.10365 0.5556 0.20014 0.0
H6154 H 0.14245 0.55503 0.23536 0.0
C6155 C 0.13575 0.56881 0.22054 0.0
C6156 C 0.09853 0.37862 0.94582 0.0
C6157 C 0.09203 0.37192 0.93537 0.0
C6158 C 0.09951 0.36782 0.92421 0.0
C6159 C 0.11976 0.37582 0.93453 0.0
C6160 C 0.11236 0.38053 0.94515 0.0
C6161 C 0.12094 0.38722 0.95547 0.0
H6162 H 0.18272 0.40236 0.97796 0.0
C6163 C 0.13396 0.37844 0.93732 0.0
C6164 C 0.13472 0.38528 0.94951 0.0
H6165 H 0.14491 0.41258 0.9959 0.0
H6166 H 0.13327 0.40205 0.97765 0.0
H6167 H 0.1754 0.37365 0.97063 0.0
H6168 H 0.17424 0.40958 0.9475 0.0
H6169 H 0.18104 0.39704 0.93733 0.0
H6170 H 0.18938 0.40155 0.95258 0.0
H6171 H 0.19004 0.38025 0.96284 0.0
H6172 H 0.17916 0.36874 0.95432 0.0
C6173 C 0.1193 0.37961 0.96879 0.0
C6174 C 0.117 0.40213 0.95613 0.0
C6175 C 0.16964 0.35791 0.90781 0.0
C6176 C 0.18353 0.35681 0.90925 0.0
C6177 C 0.18995 0.36397 0.91945 0.0
C6178 C 0.18261 0.37175 0.92839 0.0
C6179 C 0.16865 0.37216 0.92731 0.0
C6180 C 0.16239 0.36547 0.91703 0.0
C6181 C 0.14745 0.36639 0.91794 0.0
C6182 C 0.1458 0.37459 0.93057 0.0
C6183 C 0.15825 0.37794 0.93595 0.0
C6184 C 0.14185 0.35207 0.91951 0.0
C6185 C 0.14231 0.37392 0.90549 0.0
C6186 C 0.17193 0.40238 0.97797 0.0
C6187 C 0.16474 0.4083 0.98841 0.0
C6188 C 0.1507 0.40808 0.98799 0.0
C6189 C 0.14395 0.40197 0.97737 0.0
C6190 C 0.15131 0.39599 0.96707 0.0
C6191 C 0.16506 0.39635 0.96746 0.0
C6192 C 0.1713 0.38945 0.95576 0.0
C6193 C 0.15904 0.38506 0.94813 0.0
C6194 C 0.14735 0.38881 0.95483 0.0
C6195 C 0.17949 0.37744 0.96105 0.0
C6196 C 0.17952 0.39985 0.94785 0.0
H6197 H 0.11845 0.36608 0.91511 0.0
H6198 H 0.09305 0.38203 0.95447 0.0
H6199 H 0.11362 0.40581 0.94623 0.0
H6200 H 0.12545 0.40865 0.95879 0.0
H6201 H 0.10874 0.40376 0.9633 0.0
H6202 H 0.11913 0.36867 0.96703 0.0
H6203 H 0.10983 0.38238 0.97379 0.0
H6204 H 0.1276 0.38129 0.97578 0.0
H6205 H 0.16441 0.3523 0.90021 0.0
H6206 H 0.20064 0.36324 0.92073 0.0
H6207 H 0.18806 0.37678 0.93606 0.0
H6208 H 0.14838 0.346 0.92609 0.0
H6209 H 0.14124 0.34694 0.90972 0.0
H6210 H 0.13196 0.35173 0.92426 0.0
H6211 H 0.14964 0.38151 0.90211 0.0
H6212 H 0.1331 0.37962 0.90748 0.0
H6213 H 0.14055 0.36698 0.89706 0.0
H6214 H 0.09478 0.36266 0.91598 0.0
C6215 C 0.11331 0.36973 0.92374 0.0
C6216 C 0.3705 0.34757 0.69285 0.0
C6217 C 0.37707 0.34127 0.68219 0.0
C6218 C 0.38132 0.34902 0.67127 0.0
C6219 C 0.37369 0.36909 0.68223 0.0
C6220 C 0.36886 0.36144 0.69261 0.0
C6221 C 0.36241 0.3698 0.70325 0.0
H6222 H 0.34798 0.43099 0.72763 0.0
C6223 C 0.37132 0.38324 0.68548 0.0
C6224 C 0.36454 0.38371 0.69772 0.0
H6225 H 0.33822 0.39273 0.74488 0.0
H6226 H 0.34832 0.38157 0.72612 0.0
H6227 H 0.37641 0.42396 0.72001 0.0
H6228 H 0.34053 0.42326 0.6968 0.0
H6229 H 0.35308 0.43049 0.68691 0.0
H6230 H 0.34848 0.43826 0.70243 0.0
H6231 H 0.36999 0.43872 0.71231 0.0
H6232 H 0.38144 0.4278 0.70375 0.0
C6233 C 0.3701 0.36759 0.71645 0.0
C6234 C 0.34745 0.36608 0.7039 0.0
C6235 C 0.39239 0.41956 0.65716 0.0
C6236 C 0.39363 0.43339 0.65904 0.0
C6237 C 0.38641 0.43958 0.66933 0.0
C6238 C 0.37846 0.43205 0.67797 0.0
C6239 C 0.37795 0.41814 0.67649 0.0
C6240 C 0.38466 0.41212 0.66609 0.0
C6241 C 0.38354 0.39716 0.66653 0.0
C6242 C 0.37528 0.39523 0.67908 0.0
C6243 C 0.37203 0.40755 0.68481 0.0
C6244 C 0.39777 0.39132 0.66796 0.0
C6245 C 0.37599 0.39251 0.6539 0.0
C6246 C 0.34792 0.42021 0.72735 0.0
C6247 C 0.34228 0.41275 0.73775 0.0
C6248 C 0.34253 0.39872 0.737 0.0
C6249 C 0.34839 0.39225 0.72609 0.0
C6250 C 0.35413 0.39987 0.71584 0.0
C6251 C 0.35378 0.41361 0.71658 0.0
C6252 C 0.36064 0.42013 0.705 0.0
C6253 C 0.36495 0.40805 0.69703 0.0
C6254 C 0.36118 0.39621 0.70343 0.0
C6255 C 0.3727 0.42816 0.71045 0.0
C6256 C 0.35024 0.42858 0.69736 0.0
H6257 H 0.38341 0.36822 0.66278 0.0
H6258 H 0.36701 0.34189 0.70133 0.0
H6259 H 0.34358 0.36341 0.69386 0.0
H6260 H 0.34111 0.37444 0.70721 0.0
H6261 H 0.34577 0.3574 0.71055 0.0
H6262 H 0.381 0.36689 0.71456 0.0
H6263 H 0.36693 0.35822 0.72139 0.0
H6264 H 0.36898 0.3759 0.72356 0.0
H6265 H 0.39802 0.41449 0.64948 0.0
H6266 H 0.38722 0.45022 0.67094 0.0
H6267 H 0.37339 0.43733 0.68575 0.0
H6268 H 0.40387 0.39751 0.67484 0.0
H6269 H 0.40296 0.39104 0.65819 0.0
H6270 H 0.39795 0.38125 0.67231 0.0
H6271 H 0.36853 0.40005 0.65071 0.0
H6272 H 0.37014 0.38333 0.6556 0.0
H6273 H 0.38294 0.3909 0.64545 0.0
H6274 H 0.38639 0.34446 0.6629 0.0
C6275 C 0.37966 0.36286 0.67123 0.0
C6276 C 0.32838 0.60846 0.48349 0.0
C6277 C 0.33604 0.59993 0.49153 0.0
C6278 C 0.35003 0.60023 0.49041 0.0
C6279 C 0.34849 0.61748 0.47357 0.0
C6280 C 0.33478 0.61717 0.47472 0.0
C6281 C 0.32809 0.62727 0.46593 0.0
H6282 H 0.33306 0.67534 0.41916 0.0
C6283 C 0.35196 0.62792 0.4638 0.0
C6284 C 0.34004 0.63378 0.4594 0.0
H6285 H 0.29726 0.65949 0.43719 0.0
H6286 H 0.31053 0.64521 0.45122 0.0
H6287 H 0.34909 0.67881 0.445 0.0
H6288 H 0.34871 0.6466 0.41677 0.0
H6289 H 0.36536 0.65094 0.42024 0.0
H6290 H 0.35441 0.66316 0.41314 0.0
H6291 H 0.35899 0.67936 0.43014 0.0
H6292 H 0.36519 0.67201 0.44537 0.0
C6293 C 0.32032 0.63715 0.47491 0.0
C6294 C 0.31937 0.61966 0.45572 0.0
C6295 C 0.40023 0.63501 0.45007 0.0
C6296 C 0.40633 0.64411 0.44134 0.0
C6297 C 0.3985 0.65406 0.43527 0.0
C6298 C 0.38474 0.65461 0.43739 0.0
C6299 C 0.3787 0.64515 0.4457 0.0
C6300 C 0.38645 0.63579 0.45219 0.0
C6301 C 0.37829 0.62703 0.46122 0.0
C6302 C 0.36436 0.63237 0.45866 0.0
C6303 C 0.36468 0.64286 0.44943 0.0
C6304 C 0.38285 0.62946 0.47578 0.0
C6305 C 0.3798 0.61245 0.45645 0.0
C6306 C 0.32805 0.66881 0.42614 0.0
C6307 C 0.31406 0.66851 0.42699 0.0
C6308 C 0.308 0.65993 0.4363 0.0
C6309 C 0.31574 0.6516 0.44442 0.0
C6310 C 0.32969 0.65184 0.44324 0.0
C6311 C 0.33561 0.66045 0.4343 0.0
C6312 C 0.35056 0.65946 0.43444 0.0
C6313 C 0.35263 0.64872 0.44489 0.0
C6314 C 0.34039 0.64423 0.44991 0.0
C6315 C 0.35634 0.67309 0.43887 0.0
C6316 C 0.35512 0.65487 0.42043 0.0
H6317 H 0.36697 0.60869 0.48104 0.0
H6318 H 0.31762 0.60858 0.4842 0.0
H6319 H 0.32442 0.61039 0.45236 0.0
H6320 H 0.31752 0.62536 0.44651 0.0
H6321 H 0.30966 0.61677 0.46016 0.0
H6322 H 0.32545 0.63858 0.48464 0.0
H6323 H 0.31011 0.63345 0.47703 0.0
H6324 H 0.31968 0.64725 0.4706 0.0
H6325 H 0.40602 0.62735 0.455 0.0
H6326 H 0.40291 0.6612 0.42849 0.0
H6327 H 0.37933 0.66226 0.43228 0.0
H6328 H 0.38683 0.63973 0.4771 0.0
H6329 H 0.39084 0.6224 0.47872 0.0
H6330 H 0.37456 0.62877 0.48299 0.0
H6331 H 0.37918 0.61189 0.4454 0.0
H6332 H 0.37186 0.60584 0.46018 0.0
H6333 H 0.38959 0.60828 0.4595 0.0
H6334 H 0.35615 0.59376 0.4965 0.0
C6335 C 0.35629 0.60893 0.48145 0.0
C6336 C 0.30665 0.13481 0.35119 0.0
C6337 C 0.31857 0.13052 0.34522 0.0
C6338 C 0.32873 0.12514 0.35329 0.0
C6339 C 0.31482 0.12749 0.37279 0.0
C6340 C 0.30512 0.13344 0.36503 0.0
C6341 C 0.29359 0.13832 0.3733 0.0
H6342 H 0.26511 0.14483 0.43419 0.0
C6343 C 0.31004 0.1271 0.38667 0.0
C6344 C 0.29771 0.13366 0.38712 0.0
H6345 H 0.25165 0.16145 0.39678 0.0
H6346 H 0.26994 0.15082 0.38532 0.0
H6347 H 0.27134 0.11639 0.42289 0.0
H6348 H 0.29648 0.15031 0.42993 0.0
H6349 H 0.30457 0.13603 0.43618 0.0
H6350 H 0.28866 0.14078 0.4429 0.0
H6351 H 0.27805 0.11982 0.43908 0.0
H6352 H 0.287 0.10987 0.42704 0.0
C6353 C 0.28079 0.13123 0.36847 0.0
C6354 C 0.29307 0.15373 0.37227 0.0
C6355 C 0.33575 0.10064 0.42134 0.0
C6356 C 0.333 0.09718 0.43464 0.0
C6357 C 0.32157 0.10245 0.44083 0.0
C6358 C 0.31294 0.11092 0.43384 0.0
C6359 C 0.31567 0.11404 0.42046 0.0
C6360 C 0.3269 0.1089 0.41442 0.0
C6361 C 0.3279 0.11276 0.39997 0.0
C6362 C 0.3153 0.12099 0.3983 0.0
C6363 C 0.30827 0.12177 0.41035 0.0
C6364 C 0.3275 0.09983 0.39156 0.0
C6365 C 0.34069 0.12121 0.39801 0.0
C6366 C 0.26609 0.1462 0.42353 0.0
C6367 C 0.25699 0.1541 0.41641 0.0
C6368 C 0.25856 0.15547 0.40252 0.0
C6369 C 0.26922 0.14935 0.39589 0.0
C6370 C 0.27843 0.14177 0.40322 0.0
C6371 C 0.27668 0.14018 0.41678 0.0
C6372 C 0.28731 0.13165 0.42295 0.0
C6373 C 0.29608 0.1289 0.41097 0.0
C6374 C 0.29081 0.13478 0.39942 0.0
C6375 C 0.28067 0.11878 0.42838 0.0
C6376 C 0.29466 0.14002 0.43363 0.0
H6377 H 0.33492 0.11919 0.37252 0.0
H6378 H 0.29882 0.13927 0.34526 0.0
H6379 H 0.30311 0.15799 0.3703 0.0
H6380 H 0.28986 0.15851 0.38166 0.0
H6381 H 0.28641 0.15698 0.36406 0.0
H6382 H 0.28272 0.12044 0.36683 0.0
H6383 H 0.27725 0.13553 0.35891 0.0
H6384 H 0.27261 0.13169 0.37579 0.0
H6385 H 0.34438 0.09666 0.41624 0.0
H6386 H 0.31925 0.09996 0.45107 0.0
H6387 H 0.3044 0.11461 0.4391 0.0
H6388 H 0.31943 0.09313 0.39514 0.0
H6389 H 0.33706 0.09432 0.39236 0.0
H6390 H 0.32541 0.10158 0.38093 0.0
H6391 H 0.34387 0.12607 0.40745 0.0
H6392 H 0.33916 0.12956 0.39097 0.0
H6393 H 0.34912 0.11498 0.39448 0.0
H6394 H 0.33802 0.12183 0.34894 0.0
C6395 C 0.32689 0.12353 0.36699 0.0
C6396 C 0.80657 0.36434 0.64778 0.0
C6397 C 0.81842 0.36895 0.65365 0.0
C6398 C 0.82826 0.37482 0.64554 0.0
C6399 C 0.81417 0.37229 0.62619 0.0
C6400 C 0.80479 0.36587 0.63398 0.0
C6401 C 0.79335 0.36067 0.62578 0.0
H6402 H 0.76454 0.35379 0.56508 0.0
C6403 C 0.80921 0.3727 0.61238 0.0
C6404 C 0.79713 0.36567 0.61198 0.0
H6405 H 0.75205 0.33626 0.60241 0.0
H6406 H 0.77003 0.34747 0.61384 0.0
H6407 H 0.76968 0.38228 0.57664 0.0
H6408 H 0.79617 0.34956 0.569 0.0
H6409 H 0.80355 0.36424 0.5628 0.0
H6410 H 0.78779 0.35887 0.55622 0.0
H6411 H 0.77645 0.3794 0.56038 0.0
H6412 H 0.78503 0.38953 0.57253 0.0
C6413 C 0.78036 0.36721 0.63086 0.0
C6414 C 0.79343 0.34524 0.6266 0.0
C6415 C 0.83352 0.40052 0.57779 0.0
C6416 C 0.83051 0.40403 0.56455 0.0
C6417 C 0.81918 0.39846 0.55843 0.0
C6418 C 0.81094 0.38961 0.56541 0.0
C6419 C 0.81394 0.38641 0.57872 0.0
C6420 C 0.82505 0.39188 0.5847 0.0
C6421 C 0.82637 0.38786 0.59908 0.0
C6422 C 0.8141 0.37915 0.60078 0.0
C6423 C 0.80696 0.37827 0.5888 0.0
C6424 C 0.8256 0.40065 0.60767 0.0
C6425 C 0.83948 0.37985 0.60077 0.0
C6426 C 0.76567 0.35233 0.57572 0.0
C6427 C 0.75695 0.34402 0.58282 0.0
C6428 C 0.75868 0.34256 0.59669 0.0
C6429 C 0.76916 0.34902 0.6033 0.0
C6430 C 0.77801 0.35703 0.59597 0.0
C6431 C 0.77607 0.35869 0.58245 0.0
C6432 C 0.78628 0.36773 0.57628 0.0
C6433 C 0.79505 0.37068 0.58821 0.0
C6434 C 0.79014 0.36445 0.59974 0.0
C6435 C 0.77907 0.38037 0.57108 0.0
C6436 C 0.79386 0.35979 0.56543 0.0
H6437 H 0.83396 0.3813 0.62633 0.0
H6438 H 0.799 0.3595 0.65374 0.0
H6439 H 0.80365 0.34134 0.62836 0.0
H6440 H 0.79025 0.34047 0.61719 0.0
H6441 H 0.78702 0.34163 0.63486 0.0
H6442 H 0.78191 0.37804 0.63263 0.0
H6443 H 0.7771 0.36265 0.6404 0.0
H6444 H 0.77211 0.36653 0.62362 0.0
H6445 H 0.84209 0.40472 0.58283 0.0
H6446 H 0.81667 0.40098 0.54824 0.0
H6447 H 0.80247 0.38569 0.5602 0.0
H6448 H 0.81725 0.4071 0.60429 0.0
H6449 H 0.83495 0.40652 0.60684 0.0
H6450 H 0.82372 0.39868 0.6183 0.0
H6451 H 0.84274 0.37528 0.59122 0.0
H6452 H 0.83833 0.37133 0.60768 0.0
H6453 H 0.84771 0.38633 0.60434 0.0
H6454 H 0.8375 0.37838 0.64981 0.0
C6455 C 0.82617 0.37659 0.63189 0.0
C6456 C 0.35232 0.07915 0.31194 0.0
C6457 C 0.34681 0.09154 0.31544 0.0
C6458 C 0.3499 0.09711 0.32796 0.0
C6459 C 0.36255 0.07749 0.33381 0.0
C6460 C 0.36031 0.0724 0.32121 0.0
C6461 C 0.36719 0.05923 0.31918 0.0
H6462 H 0.40307 0.0083 0.34496 0.0
C6463 C 0.37014 0.06753 0.34148 0.0
C6464 C 0.37307 0.05689 0.33295 0.0
H6465 H 0.39178 0.01493 0.30388 0.0
H6466 H 0.38047 0.03513 0.3101 0.0
H6467 H 0.41127 0.03916 0.35153 0.0
H6468 H 0.37515 0.01676 0.35749 0.0
H6469 H 0.37647 0.02793 0.37087 0.0
H6470 H 0.38903 0.01525 0.36863 0.0
H6471 H 0.40997 0.02523 0.36269 0.0
H6472 H 0.40544 0.04173 0.36793 0.0
C6473 C 0.37812 0.06107 0.3084 0.0
C6474 C 0.35653 0.04866 0.31565 0.0
C6475 C 0.37577 0.074 0.39119 0.0
C6476 C 0.37994 0.06554 0.40153 0.0
C6477 C 0.38527 0.05295 0.3983 0.0
C6478 C 0.3862 0.04881 0.38495 0.0
C6479 C 0.38157 0.05726 0.37477 0.0
C6480 C 0.37646 0.06962 0.37801 0.0
C6481 C 0.37096 0.07688 0.36614 0.0
C6482 C 0.37354 0.06681 0.35518 0.0
C6483 C 0.37996 0.05545 0.36022 0.0
C6484 C 0.37926 0.08973 0.36411 0.0
C6485 C 0.35586 0.07929 0.36852 0.0
C6486 C 0.39813 0.01409 0.33731 0.0
C6487 C 0.39837 0.01003 0.3239 0.0
C6488 C 0.39181 0.01786 0.31427 0.0
C6489 C 0.38527 0.02962 0.31788 0.0
C6490 C 0.38531 0.03367 0.33127 0.0
C6491 C 0.39165 0.02596 0.34075 0.0
C6492 C 0.39078 0.032 0.35446 0.0
C6493 C 0.3834 0.04486 0.35149 0.0
C6494 C 0.38007 0.04566 0.33792 0.0
C6495 C 0.40509 0.03464 0.35954 0.0
C6496 C 0.38253 0.02252 0.36343 0.0
H6497 H 0.35931 0.09475 0.34666 0.0
H6498 H 0.35034 0.07476 0.30228 0.0
H6499 H 0.34776 0.04961 0.32237 0.0
H6500 H 0.36013 0.03835 0.31686 0.0
H6501 H 0.35299 0.04994 0.30524 0.0
H6502 H 0.38116 0.07168 0.30738 0.0
H6503 H 0.3746 0.05769 0.29847 0.0
H6504 H 0.38744 0.05575 0.31093 0.0
H6505 H 0.37138 0.08363 0.39331 0.0
H6506 H 0.38853 0.04626 0.4061 0.0
H6507 H 0.39025 0.0391 0.38309 0.0
H6508 H 0.3899 0.08802 0.36667 0.0
H6509 H 0.37555 0.09794 0.37053 0.0
H6510 H 0.37939 0.09312 0.35363 0.0
H6511 H 0.35142 0.07118 0.37463 0.0
H6512 H 0.34995 0.07928 0.35926 0.0
H6513 H 0.35413 0.08882 0.37386 0.0
H6514 H 0.34583 0.10666 0.33089 0.0
C6515 C 0.35768 0.09014 0.33716 0.0
C6516 C 0.73217 0.65141 0.08834 0.0
C6517 C 0.73632 0.65174 0.07495 0.0
C6518 C 0.72818 0.64591 0.06512 0.0
C6519 C 0.71203 0.6397 0.08191 0.0
C6520 C 0.71996 0.64548 0.09156 0.0
C6521 C 0.71376 0.64467 0.1052 0.0
H6522 H 0.66116 0.62653 0.14337 0.0
C6523 C 0.69982 0.63477 0.0884 0.0
C6524 C 0.70064 0.63785 0.10202 0.0
H6525 H 0.69879 0.64274 0.15665 0.0
H6526 H 0.70626 0.64432 0.13374 0.0
H6527 H 0.65773 0.64544 0.11641 0.0
H6528 H 0.67277 0.60643 0.12519 0.0
H6529 H 0.66592 0.60516 0.1092 0.0
H6530 H 0.65532 0.60952 0.12301 0.0
H6531 H 0.64737 0.63156 0.12083 0.0
H6532 H 0.65203 0.63474 0.10376 0.0
C6533 C 0.71166 0.65901 0.11044 0.0
C6534 C 0.72281 0.63592 0.11414 0.0
C6535 C 0.66606 0.60789 0.06193 0.0
C6536 C 0.6536 0.60248 0.0653 0.0
C6537 C 0.64797 0.60551 0.0778 0.0
C6538 C 0.65497 0.61314 0.08712 0.0
C6539 C 0.66769 0.61794 0.08387 0.0
C6540 C 0.67283 0.61573 0.07129 0.0
C6541 C 0.68612 0.62241 0.06942 0.0
C6542 C 0.68847 0.6281 0.08326 0.0
C6543 C 0.67771 0.62529 0.09169 0.0
C6544 C 0.68454 0.6335 0.05875 0.0
C6545 C 0.69653 0.61162 0.06583 0.0
C6546 C 0.67092 0.63068 0.14138 0.0
C6547 C 0.67936 0.63463 0.15182 0.0
C6548 C 0.69211 0.63965 0.14876 0.0
C6549 C 0.69643 0.64051 0.13547 0.0
C6550 C 0.68798 0.63613 0.12517 0.0
C6551 C 0.67546 0.63132 0.12825 0.0
C6552 C 0.66818 0.62612 0.11626 0.0
C6553 C 0.67841 0.62853 0.10543 0.0
C6554 C 0.68989 0.6346 0.11063 0.0
C6555 C 0.65559 0.6348 0.11417 0.0
C6556 C 0.66528 0.61107 0.11846 0.0
H6557 H 0.71039 0.63554 0.06062 0.0
H6558 H 0.73818 0.65587 0.09612 0.0
H6559 H 0.72807 0.6282 0.10817 0.0
H6560 H 0.71714 0.63023 0.12166 0.0
H6561 H 0.73051 0.64202 0.11923 0.0
H6562 H 0.70767 0.66553 0.10242 0.0
H6563 H 0.72121 0.6634 0.11392 0.0
H6564 H 0.70435 0.65959 0.11862 0.0
H6565 H 0.6705 0.60592 0.05229 0.0
H6566 H 0.63838 0.60149 0.08063 0.0
H6567 H 0.65034 0.61472 0.09661 0.0
H6568 H 0.67397 0.63662 0.05757 0.0
H6569 H 0.68808 0.63009 0.04883 0.0
H6570 H 0.68988 0.64275 0.0615 0.0
H6571 H 0.69546 0.60283 0.07249 0.0
H6572 H 0.70689 0.61505 0.06703 0.0
H6573 H 0.6952 0.60816 0.0554 0.0
H6574 H 0.73116 0.64598 0.05475 0.0
C6575 C 0.71609 0.63986 0.06853 0.0
C6576 C 0.61299 0.43684 0.39931 0.0
C6577 C 0.61641 0.42443 0.40481 0.0
C6578 C 0.62103 0.41422 0.39635 0.0
C6579 C 0.61967 0.429 0.37739 0.0
C6580 C 0.61446 0.43881 0.38553 0.0
C6581 C 0.61053 0.45102 0.37775 0.0
H6582 H 0.60614 0.48223 0.31802 0.0
C6583 C 0.62043 0.43428 0.3637 0.0
C6584 C 0.61485 0.4471 0.36377 0.0
H6585 H 0.59127 0.49585 0.35609 0.0
H6586 H 0.60024 0.47623 0.36677 0.0
H6587 H 0.63381 0.47361 0.32859 0.0
H6588 H 0.59824 0.45104 0.32124 0.0
H6589 H 0.6119 0.44235 0.3144 0.0
H6590 H 0.6081 0.45882 0.30849 0.0
H6591 H 0.63008 0.46721 0.31235 0.0
H6592 H 0.63932 0.45757 0.32442 0.0
C6593 C 0.61862 0.463 0.38309 0.0
C6594 C 0.59522 0.4527 0.37884 0.0
C6595 C 0.64491 0.40808 0.32797 0.0
C6596 C 0.64871 0.4112 0.31485 0.0
C6597 C 0.64431 0.42323 0.30913 0.0
C6598 C 0.63636 0.43209 0.31643 0.0
C6599 C 0.63296 0.42901 0.32967 0.0
C6600 C 0.63725 0.41718 0.33523 0.0
C6601 C 0.63334 0.41591 0.34965 0.0
C6602 C 0.62608 0.42901 0.35185 0.0
C6603 C 0.62581 0.43655 0.34008 0.0
C6604 C 0.64628 0.415 0.35801 0.0
C6605 C 0.62395 0.40373 0.35115 0.0
C6606 C 0.60475 0.48097 0.32865 0.0
C6607 C 0.59785 0.49052 0.3362 0.0
C6608 C 0.5965 0.48861 0.35005 0.0
C6609 C 0.60166 0.47718 0.35622 0.0
C6610 C 0.60828 0.46758 0.34847 0.0
C6611 C 0.60988 0.46967 0.33496 0.0
C6612 C 0.61754 0.45865 0.32833 0.0
C6613 C 0.61966 0.44926 0.33997 0.0
C6614 C 0.61425 0.45454 0.35175 0.0
C6615 C 0.63085 0.46448 0.32305 0.0
C6616 C 0.60857 0.45236 0.31747 0.0
H6617 H 0.62648 0.40835 0.37686 0.0
H6618 H 0.60913 0.44476 0.40554 0.0
H6619 H 0.59017 0.4429 0.37998 0.0
H6620 H 0.59075 0.45706 0.36978 0.0
H6621 H 0.59248 0.45889 0.38759 0.0
H6622 H 0.62916 0.46009 0.38486 0.0
H6623 H 0.61446 0.46664 0.39267 0.0
H6624 H 0.61904 0.47139 0.376 0.0
H6625 H 0.64829 0.39899 0.3327 0.0
H6626 H 0.6471 0.42583 0.29904 0.0
H6627 H 0.63332 0.44108 0.31153 0.0
H6628 H 0.65357 0.42267 0.35472 0.0
H6629 H 0.65104 0.40509 0.35683 0.0
H6630 H 0.64471 0.41682 0.36872 0.0
H6631 H 0.61881 0.40134 0.34162 0.0
H6632 H 0.61579 0.40557 0.35833 0.0
H6633 H 0.62955 0.3947 0.35425 0.0
H6634 H 0.6237 0.40456 0.40033 0.0
C6635 C 0.62274 0.41646 0.38271 0.0
C6636 C 0.23205 0.84749 0.91112 0.0
C6637 C 0.2362 0.84718 0.9245 0.0
C6638 C 0.22808 0.85305 0.93432 0.0
C6639 C 0.21194 0.85926 0.91753 0.0
C6640 C 0.21986 0.85345 0.90788 0.0
C6641 C 0.21366 0.85424 0.89424 0.0
H6642 H 0.16109 0.87242 0.85605 0.0
C6643 C 0.19975 0.86421 0.91103 0.0
C6644 C 0.20056 0.8611 0.89741 0.0
H6645 H 0.19868 0.85611 0.8428 0.0
H6646 H 0.20615 0.85456 0.86571 0.0
H6647 H 0.15765 0.85355 0.88309 0.0
H6648 H 0.17268 0.89252 0.87414 0.0
H6649 H 0.16596 0.89385 0.89017 0.0
H6650 H 0.15524 0.88947 0.87645 0.0
H6651 H 0.14731 0.86742 0.87858 0.0
H6652 H 0.15194 0.86432 0.89568 0.0
C6653 C 0.21152 0.83989 0.88903 0.0
C6654 C 0.22273 0.86296 0.88529 0.0
C6655 C 0.16605 0.8912 0.93746 0.0
C6656 C 0.1536 0.89663 0.93407 0.0
C6657 C 0.14797 0.8936 0.92157 0.0
C6658 C 0.15494 0.88594 0.91227 0.0
C6659 C 0.16765 0.88112 0.91553 0.0
C6660 C 0.1728 0.88333 0.9281 0.0
C6661 C 0.18608 0.87663 0.92999 0.0
C6662 C 0.18841 0.87091 0.91616 0.0
C6663 C 0.17766 0.87373 0.90773 0.0
C6664 C 0.18447 0.86557 0.94068 0.0
C6665 C 0.19651 0.88741 0.93356 0.0
C6666 C 0.17084 0.86825 0.85805 0.0
C6667 C 0.17927 0.86426 0.84761 0.0
C6668 C 0.192 0.85922 0.85068 0.0
C6669 C 0.19633 0.85838 0.86397 0.0
C6670 C 0.18789 0.8628 0.87427 0.0
C6671 C 0.17538 0.86763 0.87118 0.0
C6672 C 0.16811 0.87287 0.88316 0.0
C6673 C 0.17834 0.87046 0.89399 0.0
C6674 C 0.18981 0.86436 0.8888 0.0
C6675 C 0.15551 0.86421 0.88527 0.0
C6676 C 0.16523 0.88792 0.88094 0.0
H6677 H 0.21032 0.86347 0.93881 0.0
H6678 H 0.23804 0.843 0.90334 0.0
H6679 H 0.22801 0.87067 0.89124 0.0
H6680 H 0.21706 0.86865 0.87776 0.0
H6681 H 0.2304 0.85683 0.8802 0.0
H6682 H 0.20751 0.8334 0.89707 0.0
H6683 H 0.22105 0.83548 0.88556 0.0
H6684 H 0.20421 0.83932 0.88086 0.0
H6685 H 0.17049 0.89317 0.9471 0.0
H6686 H 0.13838 0.89764 0.91874 0.0
H6687 H 0.15031 0.88436 0.90277 0.0
H6688 H 0.17389 0.86246 0.94185 0.0
H6689 H 0.18801 0.86899 0.95059 0.0
H6690 H 0.18979 0.8563 0.93794 0.0
H6691 H 0.19545 0.89619 0.92688 0.0
H6692 H 0.20686 0.88395 0.93236 0.0
H6693 H 0.19519 0.89089 0.94399 0.0
H6694 H 0.23107 0.853 0.94469 0.0
C6695 C 0.21601 0.85912 0.9309 0.0
C6696 C 0.35252 0.92001 0.18733 0.0
C6697 C 0.347 0.90763 0.18378 0.0
C6698 C 0.3501 0.9021 0.17125 0.0
C6699 C 0.36279 0.92173 0.16549 0.0
C6700 C 0.36053 0.92678 0.17809 0.0
C6701 C 0.36742 0.93994 0.18018 0.0
H6702 H 0.40342 0.9909 0.15461 0.0
C6703 C 0.37041 0.93169 0.15786 0.0
C6704 C 0.37333 0.94231 0.16643 0.0
H6705 H 0.39202 0.98418 0.19565 0.0
H6706 H 0.38071 0.964 0.18935 0.0
H6707 H 0.4116 0.96005 0.14799 0.0
H6708 H 0.37553 0.98251 0.14199 0.0
H6709 H 0.37686 0.97136 0.1286 0.0
H6710 H 0.38944 0.98402 0.13088 0.0
H6711 H 0.41034 0.97401 0.13686 0.0
H6712 H 0.40581 0.95753 0.13157 0.0
C6713 C 0.37833 0.93806 0.19098 0.0
C6714 C 0.35677 0.9505 0.18371 0.0
C6715 C 0.37615 0.92536 0.10814 0.0
C6716 C 0.38036 0.93384 0.09784 0.0
C6717 C 0.3857 0.94641 0.10111 0.0
C6718 C 0.3866 0.95051 0.11448 0.0
C6719 C 0.38193 0.94204 0.12463 0.0
C6720 C 0.37681 0.9297 0.12134 0.0
C6721 C 0.37128 0.92242 0.13317 0.0
C6722 C 0.37384 0.93245 0.14416 0.0
C6723 C 0.38029 0.94382 0.13918 0.0
C6724 C 0.37955 0.90954 0.1352 0.0
C6725 C 0.35618 0.92003 0.13075 0.0
C6726 C 0.39846 0.9851 0.16223 0.0
C6727 C 0.39866 0.98913 0.17566 0.0
C6728 C 0.39208 0.98128 0.18525 0.0
C6729 C 0.38554 0.96953 0.18159 0.0
C6730 C 0.3856 0.96551 0.1682 0.0
C6731 C 0.39197 0.97324 0.15875 0.0
C6732 C 0.39113 0.96724 0.14503 0.0
C6733 C 0.38372 0.95438 0.14794 0.0
C6734 C 0.38036 0.95354 0.1615 0.0
C6735 C 0.40544 0.96459 0.13997 0.0
C6736 C 0.38291 0.97675 0.13606 0.0
H6737 H 0.35954 0.90451 0.15257 0.0
H6738 H 0.35053 0.92437 0.197 0.0
H6739 H 0.34801 0.94958 0.17698 0.0
H6740 H 0.36038 0.96082 0.18253 0.0
H6741 H 0.35321 0.94921 0.19411 0.0
H6742 H 0.38137 0.92744 0.19196 0.0
H6743 H 0.37479 0.94141 0.20091 0.0
H6744 H 0.38766 0.94338 0.18848 0.0
H6745 H 0.37175 0.91574 0.10598 0.0
H6746 H 0.38899 0.95312 0.09334 0.0
H6747 H 0.39065 0.96022 0.11637 0.0
H6748 H 0.3902 0.91125 0.13267 0.0
H6749 H 0.37585 0.90136 0.12873 0.0
H6750 H 0.37965 0.90613 0.14566 0.0
H6751 H 0.35176 0.92815 0.12465 0.0
H6752 H 0.35024 0.92003 0.14 0.0
H6753 H 0.35445 0.91051 0.12539 0.0
H6754 H 0.34603 0.89257 0.16829 0.0
C6755 C 0.3579 0.90909 0.16208 0.0
C6756 C 0.11228 0.06092 0.60013 0.0
C6757 C 0.1157 0.07324 0.59443 0.0
C6758 C 0.12038 0.08357 0.60272 0.0
C6759 C 0.11907 0.06908 0.6219 0.0
C6760 C 0.1138 0.05916 0.61393 0.0
C6761 C 0.10985 0.04709 0.62191 0.0
H6762 H 0.10567 0.01674 0.68208 0.0
C6763 C 0.11987 0.06401 0.63566 0.0
C6764 C 0.11424 0.05121 0.63581 0.0
H6765 H 0.09052 0.00266 0.64428 0.0
H6766 H 0.09949 0.02211 0.63329 0.0
H6767 H 0.13331 0.02516 0.67124 0.0
H6768 H 0.09781 0.0479 0.67849 0.0
H6769 H 0.11152 0.05668 0.6851 0.0
H6770 H 0.10774 0.04031 0.69129 0.0
H6771 H 0.12964 0.03174 0.68742 0.0
H6772 H 0.13886 0.04124 0.67522 0.0
C6773 C 0.11789 0.035 0.61673 0.0
C6774 C 0.09453 0.04544 0.6209 0.0
C6775 C 0.14472 0.09058 0.67088 0.0
C6776 C 0.14854 0.08764 0.68404 0.0
C6777 C 0.14406 0.07574 0.68996 0.0
C6778 C 0.13603 0.06682 0.68283 0.0
C6779 C 0.13261 0.06971 0.66955 0.0
C6780 C 0.13695 0.08142 0.66379 0.0
C6781 C 0.13296 0.08251 0.64937 0.0
C6782 C 0.12561 0.06942 0.64741 0.0
C6783 C 0.12536 0.06206 0.65929 0.0
C6784 C 0.14585 0.08322 0.64092 0.0
C6785 C 0.12365 0.09473 0.64776 0.0
C6786 C 0.10422 0.01786 0.67145 0.0
C6787 C 0.09724 0.00823 0.66407 0.0
C6788 C 0.09581 0.00997 0.6502 0.0
C6789 C 0.10096 0.0213 0.64385 0.0
C6790 C 0.10766 0.03098 0.65143 0.0
C6791 C 0.10934 0.02907 0.66496 0.0
C6792 C 0.11706 0.04015 0.67139 0.0
C6793 C 0.11915 0.04938 0.65962 0.0
C6794 C 0.11367 0.04395 0.64794 0.0
C6795 C 0.13038 0.03436 0.6767 0.0
C6796 C 0.10817 0.04662 0.68221 0.0
H6797 H 0.12592 0.08973 0.62209 0.0
H6798 H 0.10838 0.05292 0.59404 0.0
H6799 H 0.08951 0.05523 0.61955 0.0
H6800 H 0.09008 0.04131 0.63008 0.0
H6801 H 0.09175 0.03906 0.6123 0.0
H6802 H 0.12844 0.03785 0.6149 0.0
H6803 H 0.11369 0.03125 0.6072 0.0
H6804 H 0.11828 0.02671 0.62393 0.0
H6805 H 0.14813 0.09957 0.66599 0.0
H6806 H 0.14685 0.07329 0.70009 0.0
H6807 H 0.13294 0.05794 0.68788 0.0
H6808 H 0.15309 0.07551 0.64424 0.0
H6809 H 0.15072 0.0931 0.64198 0.0
H6810 H 0.1442 0.08133 0.63024 0.0
H6811 H 0.1186 0.09731 0.65728 0.0
H6812 H 0.11541 0.09281 0.64068 0.0
H6813 H 0.12927 0.10366 0.64445 0.0
H6814 H 0.12303 0.09317 0.59858 0.0
C6815 C 0.12214 0.08154 0.61638 0.0
loop_
_geom_bond_atom_site_label_1
_geom_bond_atom_site_label_2
_geom_bond_distance
_geom_bond_site_symmetry_2
_ccdc_geom_bond_type
O0 Cd1 2.300 . S
O0 C7 1.275 . S
Cd1 O0 2.300 . S
Cd1 O9 2.381 . S
Cd1 O10 2.378 . S
O2 Cd3 2.385 . S
O2 C7 1.255 . S
Cd3 O2 2.385 . S
Cd3 O4 2.317 . S
O4 Cd3 2.317 . S
O4 C5 1.232 . S
C5 O4 1.232 . S
C5 O6 1.218 . S
O6 C5 1.218 . S
C7 O0 1.275 . S
C7 O2 1.255 . S
C8 O9 1.258 . S
C8 O10 1.256 . S
O9 Cd1 2.381 . S
O9 C8 1.258 . S
O10 Cd1 2.378 . S
O10 C8 1.256 . S
O11 Cd12 2.300 . S
O11 C18 1.275 . S
Cd12 O11 2.300 . S
Cd12 O20 2.381 . S
Cd12 O21 2.378 . S
O13 Cd14 2.385 . S
O13 C18 1.255 . S
Cd14 O13 2.385 . S
Cd14 O15 2.317 . S
O15 Cd14 2.317 . S
O15 C16 1.232 . S
C16 O15 1.232 . S
C16 O17 1.218 . S
O17 C16 1.218 . S
C18 O11 1.275 . S
C18 O13 1.255 . S
C19 O20 1.258 . S
C19 O21 1.256 . S
O20 Cd12 2.381 . S
O20 C19 1.258 . S
O21 Cd12 2.378 . S
O21 C19 1.256 . S
O22 Cd23 2.300 . S
O22 C29 1.275 . S
Cd23 O22 2.300 . S
Cd23 O31 2.381 . S
Cd23 O32 2.378 . S
O24 Cd25 2.385 . S
O24 C29 1.255 . S
Cd25 O24 2.385 . S
Cd25 O26 2.317 . S
O26 Cd25 2.317 . S
O26 C27 1.232 . S
C27 O26 1.232 . S
C27 O28 1.218 . S
O28 C27 1.218 . S
C29 O22 1.275 . S
C29 O24 1.255 . S
C30 O31 1.258 . S
C30 O32 1.256 . S
O31 Cd23 2.381 . S
O31 C30 1.258 . S
O32 Cd23 2.378 . S
O32 C30 1.256 . S
O33 Cd34 2.300 . S
O33 C40 1.275 . S
Cd34 O33 2.300 . S
Cd34 O42 2.381 . S
Cd34 O43 2.378 . S
O35 Cd36 2.385 . S
O35 C40 1.255 . S
Cd36 O35 2.385 . S
Cd36 O37 2.317 . S
O37 Cd36 2.317 . S
O37 C38 1.232 . S
C38 O37 1.232 . S
C38 O39 1.218 . S
O39 C38 1.218 . S
C40 O33 1.275 . S
C40 O35 1.255 . S
C41 O42 1.258 . S
C41 O43 1.256 . S
O42 Cd34 2.381 . S
O42 C41 1.258 . S
O43 Cd34 2.378 . S
O43 C41 1.256 . S
O44 Cd45 2.300 . S
O44 C51 1.275 . S
Cd45 O44 2.300 . S
Cd45 O53 2.381 . S
Cd45 O54 2.378 . S
O46 Cd47 2.385 . S
O46 C51 1.255 . S
Cd47 O46 2.385 . S
Cd47 O48 2.317 . S
O48 Cd47 2.317 . S
O48 C49 1.232 . S
C49 O48 1.232 . S
C49 O50 1.218 . S
O50 C49 1.218 . S
C51 O44 1.275 . S
C51 O46 1.255 . S
C52 O53 1.258 . S
C52 O54 1.256 . S
O53 Cd45 2.381 . S
O53 C52 1.258 . S
O54 Cd45 2.378 . S
O54 C52 1.256 . S
O55 Cd56 2.300 . S
O55 C62 1.275 . S
Cd56 O55 2.300 . S
Cd56 O64 2.381 . S
Cd56 O65 2.378 . S
O57 Cd58 2.385 . S
O57 C62 1.255 . S
Cd58 O57 2.385 . S
Cd58 O59 2.317 . S
O59 Cd58 2.317 . S
O59 C60 1.232 . S
C60 O59 1.232 . S
C60 O61 1.218 . S
O61 C60 1.218 . S
C62 O55 1.275 . S
C62 O57 1.255 . S
C63 O64 1.258 . S
C63 O65 1.256 . S
O64 Cd56 2.381 . S
O64 C63 1.258 . S
O65 Cd56 2.378 . S
O65 C63 1.256 . S
O66 Cd67 2.300 . S
O66 C73 1.275 . S
Cd67 O66 2.300 . S
Cd67 O75 2.381 . S
Cd67 O76 2.378 . S
O68 Cd69 2.385 . S
O68 C73 1.255 . S
Cd69 O68 2.385 . S
Cd69 O70 2.317 . S
O70 Cd69 2.317 . S
O70 C71 1.232 . S
C71 O70 1.232 . S
C71 O72 1.218 . S
O72 C71 1.218 . S
C73 O66 1.275 . S
C73 O68 1.255 . S
C74 O75 1.258 . S
C74 O76 1.256 . S
O75 Cd67 2.381 . S
O75 C74 1.258 . S
O76 Cd67 2.378 . S
O76 C74 1.256 . S
O77 Cd78 2.300 . S
O77 C84 1.275 . S
Cd78 O77 2.300 . S
Cd78 O86 2.381 . S
Cd78 O87 2.378 . S
O79 Cd80 2.385 . S
O79 C84 1.255 . S
Cd80 O79 2.385 . S
Cd80 O81 2.317 . S
O81 Cd80 2.317 . S
O81 C82 1.232 . S
C82 O81 1.232 . S
C82 O83 1.218 . S
O83 C82 1.218 . S
C84 O77 1.275 . S
C84 O79 1.255 . S
C85 O86 1.258 . S
C85 O87 1.256 . S
O86 Cd78 2.381 . S
O86 C85 1.258 . S
O87 Cd78 2.378 . S
O87 C85 1.256 . S
O88 Cd89 2.300 . S
O88 C95 1.275 . S
Cd89 O88 2.300 . S
Cd89 O97 2.381 . S
Cd89 O98 2.378 . S
O90 Cd91 2.385 . S
O90 C95 1.255 . S
Cd91 O90 2.385 . S
Cd91 O92 2.317 . S
O92 Cd91 2.317 . S
O92 C93 1.232 . S
C93 O92 1.232 . S
C93 O94 1.218 . S
O94 C93 1.218 . S
C95 O88 1.275 . S
C95 O90 1.255 . S
C96 O97 1.258 . S
C96 O98 1.256 . S
O97 Cd89 2.381 . S
O97 C96 1.258 . S
O98 Cd89 2.378 . S
O98 C96 1.256 . S
O99 Cd100 2.300 . S
O99 C106 1.275 . S
Cd100 O99 2.300 . S
Cd100 O108 2.381 . S
Cd100 O109 2.378 . S
O101 Cd102 2.385 . S
O101 C106 1.255 . S
Cd102 O101 2.385 . S
Cd102 O103 2.317 . S
O103 Cd102 2.317 . S
O103 C104 1.232 . S
C104 O103 1.232 . S
C104 O105 1.218 . S
O105 C104 1.218 . S
C106 O99 1.275 . S
C106 O101 1.255 . S
C107 O108 1.258 . S
C107 O109 1.256 . S
O108 Cd100 2.381 . S
O108 C107 1.258 . S
O109 Cd100 2.378 . S
O109 C107 1.256 . S
O110 Cd111 2.300 . S
O110 C117 1.275 . S
Cd111 O110 2.300 . S
Cd111 O119 2.381 . S
Cd111 O120 2.378 . S
O112 Cd113 2.385 . S
O112 C117 1.255 . S
Cd113 O112 2.385 . S
Cd113 O114 2.317 . S
O114 Cd113 2.317 . S
O114 C115 1.232 . S
C115 O114 1.232 . S
C115 O116 1.218 . S
O116 C115 1.218 . S
C117 O110 1.275 . S
C117 O112 1.255 . S
C118 O119 1.258 . S
C118 O120 1.256 . S
O119 Cd111 2.381 . S
O119 C118 1.258 . S
O120 Cd111 2.378 . S
O120 C118 1.256 . S
O121 Cd122 2.300 . S
O121 C128 1.275 . S
Cd122 O121 2.300 . S
Cd122 O130 2.381 . S
Cd122 O131 2.378 . S
O123 Cd124 2.385 . S
O123 C128 1.255 . S
Cd124 O123 2.385 . S
Cd124 O125 2.317 . S
O125 Cd124 2.317 . S
O125 C126 1.232 . S
C126 O125 1.232 . S
C126 O127 1.218 . S
O127 C126 1.218 . S
C128 O121 1.275 . S
C128 O123 1.255 . S
C129 O130 1.258 . S
C129 O131 1.256 . S
O130 Cd122 2.381 . S
O130 C129 1.258 . S
O131 Cd122 2.378 . S
O131 C129 1.256 . S
O132 Cd133 2.300 . S
O132 C139 1.275 . S
Cd133 O132 2.300 . S
Cd133 O141 2.381 . S
Cd133 O142 2.378 . S
O134 Cd135 2.385 . S
O134 C139 1.255 . S
Cd135 O134 2.385 . S
Cd135 O136 2.317 . S
O136 Cd135 2.317 . S
O136 C137 1.232 . S
C137 O136 1.232 . S
C137 O138 1.218 . S
O138 C137 1.218 . S
C139 O132 1.275 . S
C139 O134 1.255 . S
C140 O141 1.258 . S
C140 O142 1.256 . S
O141 Cd133 2.381 . S
O141 C140 1.258 . S
O142 Cd133 2.378 . S
O142 C140 1.256 . S
O143 Cd144 2.300 . S
O143 C150 1.275 . S
Cd144 O143 2.300 . S
Cd144 O152 2.381 . S
Cd144 O153 2.378 . S
O145 Cd146 2.385 . S
O145 C150 1.255 . S
Cd146 O145 2.385 . S
Cd146 O147 2.317 . S
O147 Cd146 2.317 . S
O147 C148 1.232 . S
C148 O147 1.232 . S
C148 O149 1.218 . S
O149 C148 1.218 . S
C150 O143 1.275 . S
C150 O145 1.255 . S
C151 O152 1.258 . S
C151 O153 1.256 . S
O152 Cd144 2.381 . S
O152 C151 1.258 . S
O153 Cd144 2.378 . S
O153 C151 1.256 . S
O154 Cd155 2.300 . S
O154 C161 1.275 . S
Cd155 O154 2.300 . S
Cd155 O163 2.381 . S
Cd155 O164 2.378 . S
O156 Cd157 2.385 . S
O156 C161 1.255 . S
Cd157 O156 2.385 . S
Cd157 O158 2.317 . S
O158 Cd157 2.317 . S
O158 C159 1.232 . S
C159 O158 1.232 . S
C159 O160 1.218 . S
O160 C159 1.218 . S
C161 O154 1.275 . S
C161 O156 1.255 . S
C162 O163 1.258 . S
C162 O164 1.256 . S
O163 Cd155 2.381 . S
O163 C162 1.258 . S
O164 Cd155 2.378 . S
O164 C162 1.256 . S
O165 Cd166 2.300 . S
O165 C172 1.275 . S
Cd166 O165 2.300 . S
Cd166 O174 2.381 . S
Cd166 O175 2.378 . S
O167 Cd168 2.385 . S
O167 C172 1.255 . S
Cd168 O167 2.385 . S
Cd168 O169 2.317 . S
O169 Cd168 2.317 . S
O169 C170 1.232 . S
C170 O169 1.232 . S
C170 O171 1.218 . S
O171 C170 1.218 . S
C172 O165 1.275 . S
C172 O167 1.255 . S
C173 O174 1.258 . S
C173 O175 1.256 . S
O174 Cd166 2.381 . S
O174 C173 1.258 . S
O175 Cd166 2.378 . S
O175 C173 1.256 . S
O176 Cd177 2.300 . S
O176 C183 1.275 . S
Cd177 O176 2.300 . S
Cd177 O185 2.381 . S
Cd177 O186 2.378 . S
O178 Cd179 2.385 . S
O178 C183 1.255 . S
Cd179 O178 2.385 . S
Cd179 O180 2.317 . S
O180 Cd179 2.317 . S
O180 C181 1.232 . S
C181 O180 1.232 . S
C181 O182 1.218 . S
O182 C181 1.218 . S
C183 O176 1.275 . S
C183 O178 1.255 . S
C184 O185 1.258 . S
C184 O186 1.256 . S
O185 Cd177 2.381 . S
O185 C184 1.258 . S
O186 Cd177 2.378 . S
O186 C184 1.256 . S
O187 Cd188 2.300 . S
O187 C194 1.275 . S
Cd188 O187 2.300 . S
Cd188 O196 2.381 . S
Cd188 O197 2.378 . S
O189 Cd190 2.385 . S
O189 C194 1.255 . S
Cd190 O189 2.385 . S
Cd190 O191 2.317 . S
O191 Cd190 2.317 . S
O191 C192 1.232 . S
C192 O191 1.232 . S
C192 O193 1.218 . S
O193 C192 1.218 . S
C194 O187 1.275 . S
C194 O189 1.255 . S
C195 O196 1.258 . S
C195 O197 1.256 . S
O196 Cd188 2.381 . S
O196 C195 1.258 . S
O197 Cd188 2.378 . S
O197 C195 1.256 . S
O198 Cd199 2.300 . S
O198 C205 1.275 . S
Cd199 O198 2.300 . S
Cd199 O207 2.381 . S
Cd199 O208 2.378 . S
O200 Cd201 2.385 . S
O200 C205 1.255 . S
Cd201 O200 2.385 . S
Cd201 O202 2.317 . S
O202 Cd201 2.317 . S
O202 C203 1.232 . S
C203 O202 1.232 . S
C203 O204 1.218 . S
O204 C203 1.218 . S
C205 O198 1.275 . S
C205 O200 1.255 . S
C206 O207 1.258 . S
C206 O208 1.256 . S
O207 Cd199 2.381 . S
O207 C206 1.258 . S
O208 Cd199 2.378 . S
O208 C206 1.256 . S
O209 Cd210 2.300 . S
O209 C216 1.275 . S
Cd210 O209 2.300 . S
Cd210 O218 2.381 . S
Cd210 O219 2.378 . S
O211 Cd212 2.385 . S
O211 C216 1.255 . S
Cd212 O211 2.385 . S
Cd212 O213 2.317 . S
O213 Cd212 2.317 . S
O213 C214 1.232 . S
C214 O213 1.232 . S
C214 O215 1.218 . S
O215 C214 1.218 . S
C216 O209 1.275 . S
C216 O211 1.255 . S
C217 O218 1.258 . S
C217 O219 1.256 . S
O218 Cd210 2.381 . S
O218 C217 1.258 . S
O219 Cd210 2.378 . S
O219 C217 1.256 . S
O220 Cd221 2.300 . S
O220 C227 1.275 . S
Cd221 O220 2.300 . S
Cd221 O229 2.381 . S
Cd221 O230 2.378 . S
O222 Cd223 2.385 . S
O222 C227 1.255 . S
Cd223 O222 2.385 . S
Cd223 O224 2.317 . S
O224 Cd223 2.317 . S
O224 C225 1.232 . S
C225 O224 1.232 . S
C225 O226 1.218 . S
O226 C225 1.218 . S
C227 O220 1.275 . S
C227 O222 1.255 . S
C228 O229 1.258 . S
C228 O230 1.256 . S
O229 Cd221 2.381 . S
O229 C228 1.258 . S
O230 Cd221 2.378 . S
O230 C228 1.256 . S
O231 Cd232 2.300 . S
O231 C238 1.275 . S
Cd232 O231 2.300 . S
Cd232 O240 2.381 . S
Cd232 O241 2.378 . S
O233 Cd234 2.385 . S
O233 C238 1.255 . S
Cd234 O233 2.385 . S
Cd234 O235 2.317 . S
O235 Cd234 2.317 . S
O235 C236 1.232 . S
C236 O235 1.232 . S
C236 O237 1.218 . S
O237 C236 1.218 . S
C238 O231 1.275 . S
C238 O233 1.255 . S
C239 O240 1.258 . S
C239 O241 1.256 . S
O240 Cd232 2.381 . S
O240 C239 1.258 . S
O241 Cd232 2.378 . S
O241 C239 1.256 . S
O242 Cd243 2.300 . S
O242 C249 1.275 . S
Cd243 O242 2.300 . S
Cd243 O251 2.381 . S
Cd243 O252 2.378 . S
O244 Cd245 2.385 . S
O244 C249 1.255 . S
Cd245 O244 2.385 . S
Cd245 O246 2.317 . S
O246 Cd245 2.317 . S
O246 C247 1.232 . S
C247 O246 1.232 . S
C247 O248 1.218 . S
O248 C247 1.218 . S
C249 O242 1.275 . S
C249 O244 1.255 . S
C250 O251 1.258 . S
C250 O252 1.256 . S
O251 Cd243 2.381 . S
O251 C250 1.258 . S
O252 Cd243 2.378 . S
O252 C250 1.256 . S
O253 Cd254 2.300 . S
O253 C260 1.275 . S
Cd254 O253 2.300 . S
Cd254 O262 2.381 . S
Cd254 O263 2.378 . S
O255 Cd256 2.385 . S
O255 C260 1.255 . S
Cd256 O255 2.385 . S
Cd256 O257 2.317 . S
O257 Cd256 2.317 . S
O257 C258 1.232 . S
C258 O257 1.232 . S
C258 O259 1.218 . S
O259 C258 1.218 . S
C260 O253 1.275 . S
C260 O255 1.255 . S
C261 O262 1.258 . S
C261 O263 1.256 . S
O262 Cd254 2.381 . S
O262 C261 1.258 . S
O263 Cd254 2.378 . S
O263 C261 1.256 . S
O264 Cd265 2.300 . S
O264 C271 1.275 . S
Cd265 O264 2.300 . S
Cd265 O273 2.381 . S
Cd265 O274 2.378 . S
O266 Cd267 2.385 . S
O266 C271 1.255 . S
Cd267 O266 2.385 . S
Cd267 O268 2.317 . S
O268 Cd267 2.317 . S
O268 C269 1.232 . S
C269 O268 1.232 . S
C269 O270 1.218 . S
O270 C269 1.218 . S
C271 O264 1.275 . S
C271 O266 1.255 . S
C272 O273 1.258 . S
C272 O274 1.256 . S
O273 Cd265 2.381 . S
O273 C272 1.258 . S
O274 Cd265 2.378 . S
O274 C272 1.256 . S
O275 Cd276 2.300 . S
O275 C282 1.275 . S
Cd276 O275 2.300 . S
Cd276 O284 2.381 . S
Cd276 O285 2.378 . S
O277 Cd278 2.385 . S
O277 C282 1.255 . S
Cd278 O277 2.385 . S
Cd278 O279 2.317 . S
O279 Cd278 2.317 . S
O279 C280 1.232 . S
C280 O279 1.232 . S
C280 O281 1.218 . S
O281 C280 1.218 . S
C282 O275 1.275 . S
C282 O277 1.255 . S
C283 O284 1.258 . S
C283 O285 1.256 . S
O284 Cd276 2.381 . S
O284 C283 1.258 . S
O285 Cd276 2.378 . S
O285 C283 1.256 . S
O286 Cd287 2.300 . S
O286 C293 1.275 . S
Cd287 O286 2.300 . S
Cd287 O295 2.381 . S
Cd287 O296 2.378 . S
O288 Cd289 2.385 . S
O288 C293 1.255 . S
Cd289 O288 2.385 . S
Cd289 O290 2.317 . S
O290 Cd289 2.317 . S
O290 C291 1.232 . S
C291 O290 1.232 . S
C291 O292 1.218 . S
O292 C291 1.218 . S
C293 O286 1.275 . S
C293 O288 1.255 . S
C294 O295 1.258 . S
C294 O296 1.256 . S
O295 Cd287 2.381 . S
O295 C294 1.258 . S
O296 Cd287 2.378 . S
O296 C294 1.256 . S
O297 Cd298 2.300 . S
O297 C304 1.275 . S
Cd298 O297 2.300 . S
Cd298 O306 2.381 . S
Cd298 O307 2.378 . S
O299 Cd300 2.385 . S
O299 C304 1.255 . S
Cd300 O299 2.385 . S
Cd300 O301 2.317 . S
O301 Cd300 2.317 . S
O301 C302 1.232 . S
C302 O301 1.232 . S
C302 O303 1.218 . S
O303 C302 1.218 . S
C304 O297 1.275 . S
C304 O299 1.255 . S
C305 O306 1.258 . S
C305 O307 1.256 . S
O306 Cd298 2.381 . S
O306 C305 1.258 . S
O307 Cd298 2.378 . S
O307 C305 1.256 . S
O308 Cd309 2.300 . S
O308 C315 1.275 . S
Cd309 O308 2.300 . S
Cd309 O317 2.381 . S
Cd309 O318 2.378 . S
O310 Cd311 2.385 . S
O310 C315 1.255 . S
Cd311 O310 2.385 . S
Cd311 O312 2.317 . S
O312 Cd311 2.317 . S
O312 C313 1.232 . S
C313 O312 1.232 . S
C313 O314 1.218 . S
O314 C313 1.218 . S
C315 O308 1.275 . S
C315 O310 1.255 . S
C316 O317 1.258 . S
C316 O318 1.256 . S
O317 Cd309 2.381 . S
O317 C316 1.258 . S
O318 Cd309 2.378 . S
O318 C316 1.256 . S
O319 Cd320 2.300 . S
O319 C326 1.275 . S
Cd320 O319 2.300 . S
Cd320 O328 2.381 . S
Cd320 O329 2.378 . S
O321 Cd322 2.385 . S
O321 C326 1.255 . S
Cd322 O321 2.385 . S
Cd322 O323 2.317 . S
O323 Cd322 2.317 . S
O323 C324 1.232 . S
C324 O323 1.232 . S
C324 O325 1.218 . S
O325 C324 1.218 . S
C326 O319 1.275 . S
C326 O321 1.255 . S
C327 O328 1.258 . S
C327 O329 1.256 . S
O328 Cd320 2.381 . S
O328 C327 1.258 . S
O329 Cd320 2.378 . S
O329 C327 1.256 . S
O330 Cd331 2.300 . S
O330 C337 1.275 . S
Cd331 O330 2.300 . S
Cd331 O339 2.381 . S
Cd331 O340 2.378 . S
O332 Cd333 2.385 . S
O332 C337 1.255 . S
Cd333 O332 2.385 . S
Cd333 O334 2.317 . S
O334 Cd333 2.317 . S
O334 C335 1.232 . S
C335 O334 1.232 . S
C335 O336 1.218 . S
O336 C335 1.218 . S
C337 O330 1.275 . S
C337 O332 1.255 . S
C338 O339 1.258 . S
C338 O340 1.256 . S
O339 Cd331 2.381 . S
O339 C338 1.258 . S
O340 Cd331 2.378 . S
O340 C338 1.256 . S
O341 Cd342 2.300 . S
O341 C348 1.275 . S
Cd342 O341 2.300 . S
Cd342 O350 2.381 . S
Cd342 O351 2.378 . S
O343 Cd344 2.385 . S
O343 C348 1.255 . S
Cd344 O343 2.385 . S
Cd344 O345 2.317 . S
O345 Cd344 2.317 . S
O345 C346 1.232 . S
C346 O345 1.232 . S
C346 O347 1.218 . S
O347 C346 1.218 . S
C348 O341 1.275 . S
C348 O343 1.255 . S
C349 O350 1.258 . S
C349 O351 1.256 . S
O350 Cd342 2.381 . S
O350 C349 1.258 . S
O351 Cd342 2.378 . S
O351 C349 1.256 . S
O352 Cd353 2.300 . S
O352 C359 1.275 . S
Cd353 O352 2.300 . S
Cd353 O361 2.381 . S
Cd353 O362 2.378 . S
O354 Cd355 2.385 . S
O354 C359 1.255 . S
Cd355 O354 2.385 . S
Cd355 O356 2.317 . S
O356 Cd355 2.317 . S
O356 C357 1.232 . S
C357 O356 1.232 . S
C357 O358 1.218 . S
O358 C357 1.218 . S
C359 O352 1.275 . S
C359 O354 1.255 . S
C360 O361 1.258 . S
C360 O362 1.256 . S
O361 Cd353 2.381 . S
O361 C360 1.258 . S
O362 Cd353 2.378 . S
O362 C360 1.256 . S
O363 Cd364 2.300 . S
O363 C370 1.275 . S
Cd364 O363 2.300 . S
Cd364 O372 2.381 . S
Cd364 O373 2.378 . S
O365 Cd366 2.385 . S
O365 C370 1.255 . S
Cd366 O365 2.385 . S
Cd366 O367 2.317 . S
O367 Cd366 2.317 . S
O367 C368 1.232 . S
C368 O367 1.232 . S
C368 O369 1.218 . S
O369 C368 1.218 . S
C370 O363 1.275 . S
C370 O365 1.255 . S
C371 O372 1.258 . S
C371 O373 1.256 . S
O372 Cd364 2.381 . S
O372 C371 1.258 . S
O373 Cd364 2.378 . S
O373 C371 1.256 . S
O374 Cd375 2.300 . S
O374 C381 1.275 . S
Cd375 O374 2.300 . S
Cd375 O383 2.381 . S
Cd375 O384 2.378 . S
O376 Cd377 2.385 . S
O376 C381 1.255 . S
Cd377 O376 2.385 . S
Cd377 O378 2.317 . S
O378 Cd377 2.317 . S
O378 C379 1.232 . S
C379 O378 1.232 . S
C379 O380 1.218 . S
O380 C379 1.218 . S
C381 O374 1.275 . S
C381 O376 1.255 . S
C382 O383 1.258 . S
C382 O384 1.256 . S
O383 Cd375 2.381 . S
O383 C382 1.258 . S
O384 Cd375 2.378 . S
O384 C382 1.256 . S
O385 Cd386 2.300 . S
O385 C392 1.275 . S
Cd386 O385 2.300 . S
Cd386 O394 2.381 . S
Cd386 O395 2.378 . S
O387 Cd388 2.385 . S
O387 C392 1.255 . S
Cd388 O387 2.385 . S
Cd388 O389 2.317 . S
O389 Cd388 2.317 . S
O389 C390 1.232 . S
C390 O389 1.232 . S
C390 O391 1.218 . S
O391 C390 1.218 . S
C392 O385 1.275 . S
C392 O387 1.255 . S
C393 O394 1.258 . S
C393 O395 1.256 . S
O394 Cd386 2.381 . S
O394 C393 1.258 . S
O395 Cd386 2.378 . S
O395 C393 1.256 . S
O396 Cd397 2.300 . S
O396 C403 1.275 . S
Cd397 O396 2.300 . S
Cd397 O405 2.381 . S
Cd397 O406 2.378 . S
O398 Cd399 2.385 . S
O398 C403 1.255 . S
Cd399 O398 2.385 . S
Cd399 O400 2.317 . S
O400 Cd399 2.317 . S
O400 C401 1.232 . S
C401 O400 1.232 . S
C401 O402 1.218 . S
O402 C401 1.218 . S
C403 O396 1.275 . S
C403 O398 1.255 . S
C404 O405 1.258 . S
C404 O406 1.256 . S
O405 Cd397 2.381 . S
O405 C404 1.258 . S
O406 Cd397 2.378 . S
O406 C404 1.256 . S
O407 Cd408 2.300 . S
O407 C414 1.275 . S
Cd408 O407 2.300 . S
Cd408 O416 2.381 . S
Cd408 O417 2.378 . S
O409 Cd410 2.385 . S
O409 C414 1.255 . S
Cd410 O409 2.385 . S
Cd410 O411 2.317 . S
O411 Cd410 2.317 . S
O411 C412 1.232 . S
C412 O411 1.232 . S
C412 O413 1.218 . S
O413 C412 1.218 . S
C414 O407 1.275 . S
C414 O409 1.255 . S
C415 O416 1.258 . S
C415 O417 1.256 . S
O416 Cd408 2.381 . S
O416 C415 1.258 . S
O417 Cd408 2.378 . S
O417 C415 1.256 . S
O418 Cd419 2.300 . S
O418 C425 1.275 . S
Cd419 O418 2.300 . S
Cd419 O427 2.381 . S
Cd419 O428 2.378 . S
O420 Cd421 2.385 . S
O420 C425 1.255 . S
Cd421 O420 2.385 . S
Cd421 O422 2.317 . S
O422 Cd421 2.317 . S
O422 C423 1.232 . S
C423 O422 1.232 . S
C423 O424 1.218 . S
O424 C423 1.218 . S
C425 O418 1.275 . S
C425 O420 1.255 . S
C426 O427 1.258 . S
C426 O428 1.256 . S
O427 Cd419 2.381 . S
O427 C426 1.258 . S
O428 Cd419 2.378 . S
O428 C426 1.256 . S
O429 Cd430 2.300 . S
O429 C436 1.275 . S
Cd430 O429 2.300 . S
Cd430 O438 2.381 . S
Cd430 O439 2.378 . S
O431 Cd432 2.385 . S
O431 C436 1.255 . S
Cd432 O431 2.385 . S
Cd432 O433 2.317 . S
O433 Cd432 2.317 . S
O433 C434 1.232 . S
C434 O433 1.232 . S
C434 O435 1.218 . S
O435 C434 1.218 . S
C436 O429 1.275 . S
C436 O431 1.255 . S
C437 O438 1.258 . S
C437 O439 1.256 . S
O438 Cd430 2.381 . S
O438 C437 1.258 . S
O439 Cd430 2.378 . S
O439 C437 1.256 . S
O440 Cd441 2.300 . S
O440 C447 1.275 . S
Cd441 O440 2.300 . S
Cd441 O449 2.381 . S
Cd441 O450 2.378 . S
O442 Cd443 2.385 . S
O442 C447 1.255 . S
Cd443 O442 2.385 . S
Cd443 O444 2.317 . S
O444 Cd443 2.317 . S
O444 C445 1.232 . S
C445 O444 1.232 . S
C445 O446 1.218 . S
O446 C445 1.218 . S
C447 O440 1.275 . S
C447 O442 1.255 . S
C448 O449 1.258 . S
C448 O450 1.256 . S
O449 Cd441 2.381 . S
O449 C448 1.258 . S
O450 Cd441 2.378 . S
O450 C448 1.256 . S
O451 Cd452 2.300 . S
O451 C458 1.275 . S
Cd452 O451 2.300 . S
Cd452 O460 2.381 . S
Cd452 O461 2.378 . S
O453 Cd454 2.385 . S
O453 C458 1.255 . S
Cd454 O453 2.385 . S
Cd454 O455 2.317 . S
O455 Cd454 2.317 . S
O455 C456 1.232 . S
C456 O455 1.232 . S
C456 O457 1.218 . S
O457 C456 1.218 . S
C458 O451 1.275 . S
C458 O453 1.255 . S
C459 O460 1.258 . S
C459 O461 1.256 . S
O460 Cd452 2.381 . S
O460 C459 1.258 . S
O461 Cd452 2.378 . S
O461 C459 1.256 . S
O462 Cd463 2.300 . S
O462 C469 1.275 . S
Cd463 O462 2.300 . S
Cd463 O471 2.381 . S
Cd463 O472 2.378 . S
O464 Cd465 2.385 . S
O464 C469 1.255 . S
Cd465 O464 2.385 . S
Cd465 O466 2.317 . S
O466 Cd465 2.317 . S
O466 C467 1.232 . S
C467 O466 1.232 . S
C467 O468 1.218 . S
O468 C467 1.218 . S
C469 O462 1.275 . S
C469 O464 1.255 . S
C470 O471 1.258 . S
C470 O472 1.256 . S
O471 Cd463 2.381 . S
O471 C470 1.258 . S
O472 Cd463 2.378 . S
O472 C470 1.256 . S
O473 Cd474 2.300 . S
O473 C480 1.275 . S
Cd474 O473 2.300 . S
Cd474 O482 2.381 . S
Cd474 O483 2.378 . S
O475 Cd476 2.385 . S
O475 C480 1.255 . S
Cd476 O475 2.385 . S
Cd476 O477 2.317 . S
O477 Cd476 2.317 . S
O477 C478 1.232 . S
C478 O477 1.232 . S
C478 O479 1.218 . S
O479 C478 1.218 . S
C480 O473 1.275 . S
C480 O475 1.255 . S
C481 O482 1.258 . S
C481 O483 1.256 . S
O482 Cd474 2.381 . S
O482 C481 1.258 . S
O483 Cd474 2.378 . S
O483 C481 1.256 . S
O484 Cd485 2.300 . S
O484 C491 1.275 . S
Cd485 O484 2.300 . S
Cd485 O493 2.381 . S
Cd485 O494 2.378 . S
O486 Cd487 2.385 . S
O486 C491 1.255 . S
Cd487 O486 2.385 . S
Cd487 O488 2.317 . S
O488 Cd487 2.317 . S
O488 C489 1.232 . S
C489 O488 1.232 . S
C489 O490 1.218 . S
O490 C489 1.218 . S
C491 O484 1.275 . S
C491 O486 1.255 . S
C492 O493 1.258 . S
C492 O494 1.256 . S
O493 Cd485 2.381 . S
O493 C492 1.258 . S
O494 Cd485 2.378 . S
O494 C492 1.256 . S
O495 Cd496 2.300 . S
O495 C502 1.275 . S
Cd496 O495 2.300 . S
Cd496 O504 2.381 . S
Cd496 O505 2.378 . S
O497 Cd498 2.385 . S
O497 C502 1.255 . S
Cd498 O497 2.385 . S
Cd498 O499 2.317 . S
O499 Cd498 2.317 . S
O499 C500 1.232 . S
C500 O499 1.232 . S
C500 O501 1.218 . S
O501 C500 1.218 . S
C502 O495 1.275 . S
C502 O497 1.255 . S
C503 O504 1.258 . S
C503 O505 1.256 . S
O504 Cd496 2.381 . S
O504 C503 1.258 . S
O505 Cd496 2.378 . S
O505 C503 1.256 . S
O506 Cd507 2.300 . S
O506 C513 1.275 . S
Cd507 O506 2.300 . S
Cd507 O515 2.381 . S
Cd507 O516 2.378 . S
O508 Cd509 2.385 . S
O508 C513 1.255 . S
Cd509 O508 2.385 . S
Cd509 O510 2.317 . S
O510 Cd509 2.317 . S
O510 C511 1.232 . S
C511 O510 1.232 . S
C511 O512 1.218 . S
O512 C511 1.218 . S
C513 O506 1.275 . S
C513 O508 1.255 . S
C514 O515 1.258 . S
C514 O516 1.256 . S
O515 Cd507 2.381 . S
O515 C514 1.258 . S
O516 Cd507 2.378 . S
O516 C514 1.256 . S
O517 Cd518 2.300 . S
O517 C524 1.275 . S
Cd518 O517 2.300 . S
Cd518 O526 2.381 . S
Cd518 O527 2.378 . S
O519 Cd520 2.385 . S
O519 C524 1.255 . S
Cd520 O519 2.385 . S
Cd520 O521 2.317 . S
O521 Cd520 2.317 . S
O521 C522 1.232 . S
C522 O521 1.232 . S
C522 O523 1.218 . S
O523 C522 1.218 . S
C524 O517 1.275 . S
C524 O519 1.255 . S
C525 O526 1.258 . S
C525 O527 1.256 . S
O526 Cd518 2.381 . S
O526 C525 1.258 . S
O527 Cd518 2.378 . S
O527 C525 1.256 . S
O528 Cd529 2.300 . S
O528 C535 1.275 . S
Cd529 O528 2.300 . S
Cd529 O537 2.381 . S
Cd529 O538 2.378 . S
O530 Cd531 2.385 . S
O530 C535 1.255 . S
Cd531 O530 2.385 . S
Cd531 O532 2.317 . S
O532 Cd531 2.317 . S
O532 C533 1.232 . S
C533 O532 1.232 . S
C533 O534 1.218 . S
O534 C533 1.218 . S
C535 O528 1.275 . S
C535 O530 1.255 . S
C536 O537 1.258 . S
C536 O538 1.256 . S
O537 Cd529 2.381 . S
O537 C536 1.258 . S
O538 Cd529 2.378 . S
O538 C536 1.256 . S
O539 Cd540 2.300 . S
O539 C546 1.275 . S
Cd540 O539 2.300 . S
Cd540 O548 2.381 . S
Cd540 O549 2.378 . S
O541 Cd542 2.385 . S
O541 C546 1.255 . S
Cd542 O541 2.385 . S
Cd542 O543 2.317 . S
O543 Cd542 2.317 . S
O543 C544 1.232 . S
C544 O543 1.232 . S
C544 O545 1.218 . S
O545 C544 1.218 . S
C546 O539 1.275 . S
C546 O541 1.255 . S
C547 O548 1.258 . S
C547 O549 1.256 . S
O548 Cd540 2.381 . S
O548 C547 1.258 . S
O549 Cd540 2.378 . S
O549 C547 1.256 . S
O550 Cd551 2.300 . S
O550 C557 1.275 . S
Cd551 O550 2.300 . S
Cd551 O559 2.381 . S
Cd551 O560 2.378 . S
O552 Cd553 2.385 . S
O552 C557 1.255 . S
Cd553 O552 2.385 . S
Cd553 O554 2.317 . S
O554 Cd553 2.317 . S
O554 C555 1.232 . S
C555 O554 1.232 . S
C555 O556 1.218 . S
O556 C555 1.218 . S
C557 O550 1.275 . S
C557 O552 1.255 . S
C558 O559 1.258 . S
C558 O560 1.256 . S
O559 Cd551 2.381 . S
O559 C558 1.258 . S
O560 Cd551 2.378 . S
O560 C558 1.256 . S
O561 Cd562 2.300 . S
O561 C568 1.275 . S
Cd562 O561 2.300 . S
Cd562 O570 2.381 . S
Cd562 O571 2.378 . S
O563 Cd564 2.385 . S
O563 C568 1.255 . S
Cd564 O563 2.385 . S
Cd564 O565 2.317 . S
O565 Cd564 2.317 . S
O565 C566 1.232 . S
C566 O565 1.232 . S
C566 O567 1.218 . S
O567 C566 1.218 . S
C568 O561 1.275 . S
C568 O563 1.255 . S
C569 O570 1.258 . S
C569 O571 1.256 . S
O570 Cd562 2.381 . S
O570 C569 1.258 . S
O571 Cd562 2.378 . S
O571 C569 1.256 . S
O572 Cd573 2.300 . S
O572 C579 1.275 . S
Cd573 O572 2.300 . S
Cd573 O581 2.381 . S
Cd573 O582 2.378 . S
O574 Cd575 2.385 . S
O574 C579 1.255 . S
Cd575 O574 2.385 . S
Cd575 O576 2.317 . S
O576 Cd575 2.317 . S
O576 C577 1.232 . S
C577 O576 1.232 . S
C577 O578 1.218 . S
O578 C577 1.218 . S
C579 O572 1.275 . S
C579 O574 1.255 . S
C580 O581 1.258 . S
C580 O582 1.256 . S
O581 Cd573 2.381 . S
O581 C580 1.258 . S
O582 Cd573 2.378 . S
O582 C580 1.256 . S
O583 Cd584 2.300 . S
O583 C590 1.275 . S
Cd584 O583 2.300 . S
Cd584 O592 2.381 . S
Cd584 O593 2.378 . S
O585 Cd586 2.385 . S
O585 C590 1.255 . S
Cd586 O585 2.385 . S
Cd586 O587 2.317 . S
O587 Cd586 2.317 . S
O587 C588 1.232 . S
C588 O587 1.232 . S
C588 O589 1.218 . S
O589 C588 1.218 . S
C590 O583 1.275 . S
C590 O585 1.255 . S
C591 O592 1.258 . S
C591 O593 1.256 . S
O592 Cd584 2.381 . S
O592 C591 1.258 . S
O593 Cd584 2.378 . S
O593 C591 1.256 . S
O594 Cd595 2.300 . S
O594 C601 1.275 . S
Cd595 O594 2.300 . S
Cd595 O603 2.381 . S
Cd595 O604 2.378 . S
O596 Cd597 2.385 . S
O596 C601 1.255 . S
Cd597 O596 2.385 . S
Cd597 O598 2.317 . S
O598 Cd597 2.317 . S
O598 C599 1.232 . S
C599 O598 1.232 . S
C599 O600 1.218 . S
O600 C599 1.218 . S
C601 O594 1.275 . S
C601 O596 1.255 . S
C602 O603 1.258 . S
C602 O604 1.256 . S
O603 Cd595 2.381 . S
O603 C602 1.258 . S
O604 Cd595 2.378 . S
O604 C602 1.256 . S
O605 Cd606 2.300 . S
O605 C612 1.275 . S
Cd606 O605 2.300 . S
Cd606 O614 2.381 . S
Cd606 O615 2.378 . S
O607 Cd608 2.385 . S
O607 C612 1.255 . S
Cd608 O607 2.385 . S
Cd608 O609 2.317 . S
O609 Cd608 2.317 . S
O609 C610 1.232 . S
C610 O609 1.232 . S
C610 O611 1.218 . S
O611 C610 1.218 . S
C612 O605 1.275 . S
C612 O607 1.255 . S
C613 O614 1.258 . S
C613 O615 1.256 . S
O614 Cd606 2.381 . S
O614 C613 1.258 . S
O615 Cd606 2.378 . S
O615 C613 1.256 . S
O616 Cd617 2.300 . S
O616 C623 1.275 . S
Cd617 O616 2.300 . S
Cd617 O625 2.381 . S
Cd617 O626 2.378 . S
O618 Cd619 2.385 . S
O618 C623 1.255 . S
Cd619 O618 2.385 . S
Cd619 O620 2.317 . S
O620 Cd619 2.317 . S
O620 C621 1.232 . S
C621 O620 1.232 . S
C621 O622 1.218 . S
O622 C621 1.218 . S
C623 O616 1.275 . S
C623 O618 1.255 . S
C624 O625 1.258 . S
C624 O626 1.256 . S
O625 Cd617 2.381 . S
O625 C624 1.258 . S
O626 Cd617 2.378 . S
O626 C624 1.256 . S
O627 Cd628 2.300 . S
O627 C634 1.275 . S
Cd628 O627 2.300 . S
Cd628 O636 2.381 . S
Cd628 O637 2.378 . S
O629 Cd630 2.385 . S
O629 C634 1.255 . S
Cd630 O629 2.385 . S
Cd630 O631 2.317 . S
O631 Cd630 2.317 . S
O631 C632 1.232 . S
C632 O631 1.232 . S
C632 O633 1.218 . S
O633 C632 1.218 . S
C634 O627 1.275 . S
C634 O629 1.255 . S
C635 O636 1.258 . S
C635 O637 1.256 . S
O636 Cd628 2.381 . S
O636 C635 1.258 . S
O637 Cd628 2.378 . S
O637 C635 1.256 . S
O638 Cd639 2.300 . S
O638 C645 1.275 . S
Cd639 O638 2.300 . S
Cd639 O647 2.381 . S
Cd639 O648 2.378 . S
O640 Cd641 2.385 . S
O640 C645 1.255 . S
Cd641 O640 2.385 . S
Cd641 O642 2.317 . S
O642 Cd641 2.317 . S
O642 C643 1.232 . S
C643 O642 1.232 . S
C643 O644 1.218 . S
O644 C643 1.218 . S
C645 O638 1.275 . S
C645 O640 1.255 . S
C646 O647 1.258 . S
C646 O648 1.256 . S
O647 Cd639 2.381 . S
O647 C646 1.258 . S
O648 Cd639 2.378 . S
O648 C646 1.256 . S
O649 Cd650 2.300 . S
O649 C656 1.275 . S
Cd650 O649 2.300 . S
Cd650 O658 2.381 . S
Cd650 O659 2.378 . S
O651 Cd652 2.385 . S
O651 C656 1.255 . S
Cd652 O651 2.385 . S
Cd652 O653 2.317 . S
O653 Cd652 2.317 . S
O653 C654 1.232 . S
C654 O653 1.232 . S
C654 O655 1.218 . S
O655 C654 1.218 . S
C656 O649 1.275 . S
C656 O651 1.255 . S
C657 O658 1.258 . S
C657 O659 1.256 . S
O658 Cd650 2.381 . S
O658 C657 1.258 . S
O659 Cd650 2.378 . S
O659 C657 1.256 . S
O660 Cd661 2.300 . S
O660 C667 1.275 . S
Cd661 O660 2.300 . S
Cd661 O669 2.381 . S
Cd661 O670 2.378 . S
O662 Cd663 2.385 . S
O662 C667 1.255 . S
Cd663 O662 2.385 . S
Cd663 O664 2.317 . S
O664 Cd663 2.317 . S
O664 C665 1.232 . S
C665 O664 1.232 . S
C665 O666 1.218 . S
O666 C665 1.218 . S
C667 O660 1.275 . S
C667 O662 1.255 . S
C668 O669 1.258 . S
C668 O670 1.256 . S
O669 Cd661 2.381 . S
O669 C668 1.258 . S
O670 Cd661 2.378 . S
O670 C668 1.256 . S
O671 Cd672 2.300 . S
O671 C678 1.275 . S
Cd672 O671 2.300 . S
Cd672 O680 2.381 . S
Cd672 O681 2.378 . S
O673 Cd674 2.385 . S
O673 C678 1.255 . S
Cd674 O673 2.385 . S
Cd674 O675 2.317 . S
O675 Cd674 2.317 . S
O675 C676 1.232 . S
C676 O675 1.232 . S
C676 O677 1.218 . S
O677 C676 1.218 . S
C678 O671 1.275 . S
C678 O673 1.255 . S
C679 O680 1.258 . S
C679 O681 1.256 . S
O680 Cd672 2.381 . S
O680 C679 1.258 . S
O681 Cd672 2.378 . S
O681 C679 1.256 . S
O682 Cd683 2.300 . S
O682 C689 1.275 . S
Cd683 O682 2.300 . S
Cd683 O691 2.381 . S
Cd683 O692 2.378 . S
O684 Cd685 2.385 . S
O684 C689 1.255 . S
Cd685 O684 2.385 . S
Cd685 O686 2.317 . S
O686 Cd685 2.317 . S
O686 C687 1.232 . S
C687 O686 1.232 . S
C687 O688 1.218 . S
O688 C687 1.218 . S
C689 O682 1.275 . S
C689 O684 1.255 . S
C690 O691 1.258 . S
C690 O692 1.256 . S
O691 Cd683 2.381 . S
O691 C690 1.258 . S
O692 Cd683 2.378 . S
O692 C690 1.256 . S
O693 Cd694 2.300 . S
O693 C700 1.275 . S
Cd694 O693 2.300 . S
Cd694 O702 2.381 . S
Cd694 O703 2.378 . S
O695 Cd696 2.385 . S
O695 C700 1.255 . S
Cd696 O695 2.385 . S
Cd696 O697 2.317 . S
O697 Cd696 2.317 . S
O697 C698 1.232 . S
C698 O697 1.232 . S
C698 O699 1.218 . S
O699 C698 1.218 . S
C700 O693 1.275 . S
C700 O695 1.255 . S
C701 O702 1.258 . S
C701 O703 1.256 . S
O702 Cd694 2.381 . S
O702 C701 1.258 . S
O703 Cd694 2.378 . S
O703 C701 1.256 . S
O704 Cd705 2.300 . S
O704 C711 1.275 . S
Cd705 O704 2.300 . S
Cd705 O713 2.381 . S
Cd705 O714 2.378 . S
O706 Cd707 2.385 . S
O706 C711 1.255 . S
Cd707 O706 2.385 . S
Cd707 O708 2.317 . S
O708 Cd707 2.317 . S
O708 C709 1.232 . S
C709 O708 1.232 . S
C709 O710 1.218 . S
O710 C709 1.218 . S
C711 O704 1.275 . S
C711 O706 1.255 . S
C712 O713 1.258 . S
C712 O714 1.256 . S
O713 Cd705 2.381 . S
O713 C712 1.258 . S
O714 Cd705 2.378 . S
O714 C712 1.256 . S
O715 Cd716 2.300 . S
O715 C722 1.275 . S
Cd716 O715 2.300 . S
Cd716 O724 2.381 . S
Cd716 O725 2.378 . S
O717 Cd718 2.385 . S
O717 C722 1.255 . S
Cd718 O717 2.385 . S
Cd718 O719 2.317 . S
O719 Cd718 2.317 . S
O719 C720 1.232 . S
C720 O719 1.232 . S
C720 O721 1.218 . S
O721 C720 1.218 . S
C722 O715 1.275 . S
C722 O717 1.255 . S
C723 O724 1.258 . S
C723 O725 1.256 . S
O724 Cd716 2.381 . S
O724 C723 1.258 . S
O725 Cd716 2.378 . S
O725 C723 1.256 . S
O726 Cd727 2.300 . S
O726 C733 1.275 . S
Cd727 O726 2.300 . S
Cd727 O735 2.381 . S
Cd727 O736 2.378 . S
O728 Cd729 2.385 . S
O728 C733 1.255 . S
Cd729 O728 2.385 . S
Cd729 O730 2.317 . S
O730 Cd729 2.317 . S
O730 C731 1.232 . S
C731 O730 1.232 . S
C731 O732 1.218 . S
O732 C731 1.218 . S
C733 O726 1.275 . S
C733 O728 1.255 . S
C734 O735 1.258 . S
C734 O736 1.256 . S
O735 Cd727 2.381 . S
O735 C734 1.258 . S
O736 Cd727 2.378 . S
O736 C734 1.256 . S
O737 Cd738 2.300 . S
O737 C744 1.275 . S
Cd738 O737 2.300 . S
Cd738 O746 2.381 . S
Cd738 O747 2.378 . S
O739 Cd740 2.385 . S
O739 C744 1.255 . S
Cd740 O739 2.385 . S
Cd740 O741 2.317 . S
O741 Cd740 2.317 . S
O741 C742 1.232 . S
C742 O741 1.232 . S
C742 O743 1.218 . S
O743 C742 1.218 . S
C744 O737 1.275 . S
C744 O739 1.255 . S
C745 O746 1.258 . S
C745 O747 1.256 . S
O746 Cd738 2.381 . S
O746 C745 1.258 . S
O747 Cd738 2.378 . S
O747 C745 1.256 . S
O748 Cd749 2.300 . S
O748 C755 1.275 . S
Cd749 O748 2.300 . S
Cd749 O757 2.381 . S
Cd749 O758 2.378 . S
O750 Cd751 2.385 . S
O750 C755 1.255 . S
Cd751 O750 2.385 . S
Cd751 O752 2.317 . S
O752 Cd751 2.317 . S
O752 C753 1.232 . S
C753 O752 1.232 . S
C753 O754 1.218 . S
O754 C753 1.218 . S
C755 O748 1.275 . S
C755 O750 1.255 . S
C756 O757 1.258 . S
C756 O758 1.256 . S
O757 Cd749 2.381 . S
O757 C756 1.258 . S
O758 Cd749 2.378 . S
O758 C756 1.256 . S
O759 Cd760 2.300 . S
O759 C766 1.275 . S
Cd760 O759 2.300 . S
Cd760 O768 2.381 . S
Cd760 O769 2.378 . S
O761 Cd762 2.385 . S
O761 C766 1.255 . S
Cd762 O761 2.385 . S
Cd762 O763 2.317 . S
O763 Cd762 2.317 . S
O763 C764 1.232 . S
C764 O763 1.232 . S
C764 O765 1.218 . S
O765 C764 1.218 . S
C766 O759 1.275 . S
C766 O761 1.255 . S
C767 O768 1.258 . S
C767 O769 1.256 . S
O768 Cd760 2.381 . S
O768 C767 1.258 . S
O769 Cd760 2.378 . S
O769 C767 1.256 . S
O770 Cd771 2.300 . S
O770 C777 1.275 . S
Cd771 O770 2.300 . S
Cd771 O779 2.381 . S
Cd771 O780 2.378 . S
O772 Cd773 2.385 . S
O772 C777 1.255 . S
Cd773 O772 2.385 . S
Cd773 O774 2.317 . S
O774 Cd773 2.317 . S
O774 C775 1.232 . S
C775 O774 1.232 . S
C775 O776 1.218 . S
O776 C775 1.218 . S
C777 O770 1.275 . S
C777 O772 1.255 . S
C778 O779 1.258 . S
C778 O780 1.256 . S
O779 Cd771 2.381 . S
O779 C778 1.258 . S
O780 Cd771 2.378 . S
O780 C778 1.256 . S
O781 Cd782 2.300 . S
O781 C788 1.275 . S
Cd782 O781 2.300 . S
Cd782 O790 2.381 . S
Cd782 O791 2.378 . S
O783 Cd784 2.385 . S
O783 C788 1.255 . S
Cd784 O783 2.385 . S
Cd784 O785 2.317 . S
O785 Cd784 2.317 . S
O785 C786 1.232 . S
C786 O785 1.232 . S
C786 O787 1.218 . S
O787 C786 1.218 . S
C788 O781 1.275 . S
C788 O783 1.255 . S
C789 O790 1.258 . S
C789 O791 1.256 . S
O790 Cd782 2.381 . S
O790 C789 1.258 . S
O791 Cd782 2.378 . S
O791 C789 1.256 . S
O792 Cd793 2.300 . S
O792 C799 1.275 . S
Cd793 O792 2.300 . S
Cd793 O801 2.381 . S
Cd793 O802 2.378 . S
O794 Cd795 2.385 . S
O794 C799 1.255 . S
Cd795 O794 2.385 . S
Cd795 O796 2.317 . S
O796 Cd795 2.317 . S
O796 C797 1.232 . S
C797 O796 1.232 . S
C797 O798 1.218 . S
O798 C797 1.218 . S
C799 O792 1.275 . S
C799 O794 1.255 . S
C800 O801 1.258 . S
C800 O802 1.256 . S
O801 Cd793 2.381 . S
O801 C800 1.258 . S
O802 Cd793 2.378 . S
O802 C800 1.256 . S
O803 Cd804 2.300 . S
O803 C810 1.275 . S
Cd804 O803 2.300 . S
Cd804 O812 2.381 . S
Cd804 O813 2.378 . S
O805 Cd806 2.385 . S
O805 C810 1.255 . S
Cd806 O805 2.385 . S
Cd806 O807 2.317 . S
O807 Cd806 2.317 . S
O807 C808 1.232 . S
C808 O807 1.232 . S
C808 O809 1.218 . S
O809 C808 1.218 . S
C810 O803 1.275 . S
C810 O805 1.255 . S
C811 O812 1.258 . S
C811 O813 1.256 . S
O812 Cd804 2.381 . S
O812 C811 1.258 . S
O813 Cd804 2.378 . S
O813 C811 1.256 . S
O814 Cd815 2.300 . S
O814 C821 1.275 . S
Cd815 O814 2.300 . S
Cd815 O823 2.381 . S
Cd815 O824 2.378 . S
O816 Cd817 2.385 . S
O816 C821 1.255 . S
Cd817 O816 2.385 . S
Cd817 O818 2.317 . S
O818 Cd817 2.317 . S
O818 C819 1.232 . S
C819 O818 1.232 . S
C819 O820 1.218 . S
O820 C819 1.218 . S
C821 O814 1.275 . S
C821 O816 1.255 . S
C822 O823 1.258 . S
C822 O824 1.256 . S
O823 Cd815 2.381 . S
O823 C822 1.258 . S
O824 Cd815 2.378 . S
O824 C822 1.256 . S
O825 Cd826 2.300 . S
O825 C832 1.275 . S
Cd826 O825 2.300 . S
Cd826 O834 2.381 . S
Cd826 O835 2.378 . S
O827 Cd828 2.385 . S
O827 C832 1.255 . S
Cd828 O827 2.385 . S
Cd828 O829 2.317 . S
O829 Cd828 2.317 . S
O829 C830 1.232 . S
C830 O829 1.232 . S
C830 O831 1.218 . S
O831 C830 1.218 . S
C832 O825 1.275 . S
C832 O827 1.255 . S
C833 O834 1.258 . S
C833 O835 1.256 . S
O834 Cd826 2.381 . S
O834 C833 1.258 . S
O835 Cd826 2.378 . S
O835 C833 1.256 . S
O836 Cd837 2.300 . S
O836 C843 1.275 . S
Cd837 O836 2.300 . S
Cd837 O845 2.381 . S
Cd837 O846 2.378 . S
O838 Cd839 2.385 . S
O838 C843 1.255 . S
Cd839 O838 2.385 . S
Cd839 O840 2.317 . S
O840 Cd839 2.317 . S
O840 C841 1.232 . S
C841 O840 1.232 . S
C841 O842 1.218 . S
O842 C841 1.218 . S
C843 O836 1.275 . S
C843 O838 1.255 . S
C844 O845 1.258 . S
C844 O846 1.256 . S
O845 Cd837 2.381 . S
O845 C844 1.258 . S
O846 Cd837 2.378 . S
O846 C844 1.256 . S
O847 Cd848 2.300 . S
O847 C854 1.275 . S
Cd848 O847 2.300 . S
Cd848 O856 2.381 . S
Cd848 O857 2.378 . S
O849 Cd850 2.385 . S
O849 C854 1.255 . S
Cd850 O849 2.385 . S
Cd850 O851 2.317 . S
O851 Cd850 2.317 . S
O851 C852 1.232 . S
C852 O851 1.232 . S
C852 O853 1.218 . S
O853 C852 1.218 . S
C854 O847 1.275 . S
C854 O849 1.255 . S
C855 O856 1.258 . S
C855 O857 1.256 . S
O856 Cd848 2.381 . S
O856 C855 1.258 . S
O857 Cd848 2.378 . S
O857 C855 1.256 . S
O858 Cd859 2.300 . S
O858 C865 1.275 . S
Cd859 O858 2.300 . S
Cd859 O867 2.381 . S
Cd859 O868 2.378 . S
O860 Cd861 2.385 . S
O860 C865 1.255 . S
Cd861 O860 2.385 . S
Cd861 O862 2.317 . S
O862 Cd861 2.317 . S
O862 C863 1.232 . S
C863 O862 1.232 . S
C863 O864 1.218 . S
O864 C863 1.218 . S
C865 O858 1.275 . S
C865 O860 1.255 . S
C866 O867 1.258 . S
C866 O868 1.256 . S
O867 Cd859 2.381 . S
O867 C866 1.258 . S
O868 Cd859 2.378 . S
O868 C866 1.256 . S
O869 Cd870 2.300 . S
O869 C876 1.275 . S
Cd870 O869 2.300 . S
Cd870 O878 2.381 . S
Cd870 O879 2.378 . S
O871 Cd872 2.385 . S
O871 C876 1.255 . S
Cd872 O871 2.385 . S
Cd872 O873 2.317 . S
O873 Cd872 2.317 . S
O873 C874 1.232 . S
C874 O873 1.232 . S
C874 O875 1.218 . S
O875 C874 1.218 . S
C876 O869 1.275 . S
C876 O871 1.255 . S
C877 O878 1.258 . S
C877 O879 1.256 . S
O878 Cd870 2.381 . S
O878 C877 1.258 . S
O879 Cd870 2.378 . S
O879 C877 1.256 . S
O880 Cd881 2.300 . S
O880 C887 1.275 . S
Cd881 O880 2.300 . S
Cd881 O889 2.381 . S
Cd881 O890 2.378 . S
O882 Cd883 2.385 . S
O882 C887 1.255 . S
Cd883 O882 2.385 . S
Cd883 O884 2.317 . S
O884 Cd883 2.317 . S
O884 C885 1.232 . S
C885 O884 1.232 . S
C885 O886 1.218 . S
O886 C885 1.218 . S
C887 O880 1.275 . S
C887 O882 1.255 . S
C888 O889 1.258 . S
C888 O890 1.256 . S
O889 Cd881 2.381 . S
O889 C888 1.258 . S
O890 Cd881 2.378 . S
O890 C888 1.256 . S
O891 Cd892 2.300 . S
O891 C898 1.275 . S
Cd892 O891 2.300 . S
Cd892 O900 2.381 . S
Cd892 O901 2.378 . S
O893 Cd894 2.385 . S
O893 C898 1.255 . S
Cd894 O893 2.385 . S
Cd894 O895 2.317 . S
O895 Cd894 2.317 . S
O895 C896 1.232 . S
C896 O895 1.232 . S
C896 O897 1.218 . S
O897 C896 1.218 . S
C898 O891 1.275 . S
C898 O893 1.255 . S
C899 O900 1.258 . S
C899 O901 1.256 . S
O900 Cd892 2.381 . S
O900 C899 1.258 . S
O901 Cd892 2.378 . S
O901 C899 1.256 . S
O902 Cd903 2.300 . S
O902 C909 1.275 . S
Cd903 O902 2.300 . S
Cd903 O911 2.381 . S
Cd903 O912 2.378 . S
O904 Cd905 2.385 . S
O904 C909 1.255 . S
Cd905 O904 2.385 . S
Cd905 O906 2.317 . S
O906 Cd905 2.317 . S
O906 C907 1.232 . S
C907 O906 1.232 . S
C907 O908 1.218 . S
O908 C907 1.218 . S
C909 O902 1.275 . S
C909 O904 1.255 . S
C910 O911 1.258 . S
C910 O912 1.256 . S
O911 Cd903 2.381 . S
O911 C910 1.258 . S
O912 Cd903 2.378 . S
O912 C910 1.256 . S
O913 Cd914 2.300 . S
O913 C920 1.275 . S
Cd914 O913 2.300 . S
Cd914 O922 2.381 . S
Cd914 O923 2.378 . S
O915 Cd916 2.385 . S
O915 C920 1.255 . S
Cd916 O915 2.385 . S
Cd916 O917 2.317 . S
O917 Cd916 2.317 . S
O917 C918 1.232 . S
C918 O917 1.232 . S
C918 O919 1.218 . S
O919 C918 1.218 . S
C920 O913 1.275 . S
C920 O915 1.255 . S
C921 O922 1.258 . S
C921 O923 1.256 . S
O922 Cd914 2.381 . S
O922 C921 1.258 . S
O923 Cd914 2.378 . S
O923 C921 1.256 . S
O924 Cd925 2.300 . S
O924 C931 1.275 . S
Cd925 O924 2.300 . S
Cd925 O933 2.381 . S
Cd925 O934 2.378 . S
O926 Cd927 2.385 . S
O926 C931 1.255 . S
Cd927 O926 2.385 . S
Cd927 O928 2.317 . S
O928 Cd927 2.317 . S
O928 C929 1.232 . S
C929 O928 1.232 . S
C929 O930 1.218 . S
O930 C929 1.218 . S
C931 O924 1.275 . S
C931 O926 1.255 . S
C932 O933 1.258 . S
C932 O934 1.256 . S
O933 Cd925 2.381 . S
O933 C932 1.258 . S
O934 Cd925 2.378 . S
O934 C932 1.256 . S
O935 Cd936 2.300 . S
O935 C942 1.275 . S
Cd936 O935 2.300 . S
Cd936 O944 2.381 . S
Cd936 O945 2.378 . S
O937 Cd938 2.385 . S
O937 C942 1.255 . S
Cd938 O937 2.385 . S
Cd938 O939 2.317 . S
O939 Cd938 2.317 . S
O939 C940 1.232 . S
C940 O939 1.232 . S
C940 O941 1.218 . S
O941 C940 1.218 . S
C942 O935 1.275 . S
C942 O937 1.255 . S
C943 O944 1.258 . S
C943 O945 1.256 . S
O944 Cd936 2.381 . S
O944 C943 1.258 . S
O945 Cd936 2.378 . S
O945 C943 1.256 . S
O946 Cd947 2.300 . S
O946 C953 1.275 . S
Cd947 O946 2.300 . S
Cd947 O955 2.381 . S
Cd947 O956 2.378 . S
O948 Cd949 2.385 . S
O948 C953 1.255 . S
Cd949 O948 2.385 . S
Cd949 O950 2.317 . S
O950 Cd949 2.317 . S
O950 C951 1.232 . S
C951 O950 1.232 . S
C951 O952 1.218 . S
O952 C951 1.218 . S
C953 O946 1.275 . S
C953 O948 1.255 . S
C954 O955 1.258 . S
C954 O956 1.256 . S
O955 Cd947 2.381 . S
O955 C954 1.258 . S
O956 Cd947 2.378 . S
O956 C954 1.256 . S
O957 Cd958 2.300 . S
O957 C964 1.275 . S
Cd958 O957 2.300 . S
Cd958 O966 2.381 . S
Cd958 O967 2.378 . S
O959 Cd960 2.385 . S
O959 C964 1.255 . S
Cd960 O959 2.385 . S
Cd960 O961 2.317 . S
O961 Cd960 2.317 . S
O961 C962 1.232 . S
C962 O961 1.232 . S
C962 O963 1.218 . S
O963 C962 1.218 . S
C964 O957 1.275 . S
C964 O959 1.255 . S
C965 O966 1.258 . S
C965 O967 1.256 . S
O966 Cd958 2.381 . S
O966 C965 1.258 . S
O967 Cd958 2.378 . S
O967 C965 1.256 . S
O968 Cd969 2.300 . S
O968 C975 1.275 . S
Cd969 O968 2.300 . S
Cd969 O977 2.381 . S
Cd969 O978 2.378 . S
O970 Cd971 2.385 . S
O970 C975 1.255 . S
Cd971 O970 2.385 . S
Cd971 O972 2.317 . S
O972 Cd971 2.317 . S
O972 C973 1.232 . S
C973 O972 1.232 . S
C973 O974 1.218 . S
O974 C973 1.218 . S
C975 O968 1.275 . S
C975 O970 1.255 . S
C976 O977 1.258 . S
C976 O978 1.256 . S
O977 Cd969 2.381 . S
O977 C976 1.258 . S
O978 Cd969 2.378 . S
O978 C976 1.256 . S
O979 Cd980 2.300 . S
O979 C986 1.275 . S
Cd980 O979 2.300 . S
Cd980 O988 2.381 . S
Cd980 O989 2.378 . S
O981 Cd982 2.385 . S
O981 C986 1.255 . S
Cd982 O981 2.385 . S
Cd982 O983 2.317 . S
O983 Cd982 2.317 . S
O983 C984 1.232 . S
C984 O983 1.232 . S
C984 O985 1.218 . S
O985 C984 1.218 . S
C986 O979 1.275 . S
C986 O981 1.255 . S
C987 O988 1.258 . S
C987 O989 1.256 . S
O988 Cd980 2.381 . S
O988 C987 1.258 . S
O989 Cd980 2.378 . S
O989 C987 1.256 . S
O990 Cd991 2.300 . S
O990 C997 1.275 . S
Cd991 O990 2.300 . S
Cd991 O999 2.381 . S
Cd991 O1000 2.378 . S
O992 Cd993 2.385 . S
O992 C997 1.255 . S
Cd993 O992 2.385 . S
Cd993 O994 2.317 . S
O994 Cd993 2.317 . S
O994 C995 1.232 . S
C995 O994 1.232 . S
C995 O996 1.218 . S
O996 C995 1.218 . S
C997 O990 1.275 . S
C997 O992 1.255 . S
C998 O999 1.258 . S
C998 O1000 1.256 . S
O999 Cd991 2.381 . S
O999 C998 1.258 . S
O1000 Cd991 2.378 . S
O1000 C998 1.256 . S
O1001 Cd1002 2.300 . S
O1001 C1008 1.275 . S
Cd1002 O1001 2.300 . S
Cd1002 O1010 2.381 . S
Cd1002 O1011 2.378 . S
O1003 Cd1004 2.385 . S
O1003 C1008 1.255 . S
Cd1004 O1003 2.385 . S
Cd1004 O1005 2.317 . S
O1005 Cd1004 2.317 . S
O1005 C1006 1.232 . S
C1006 O1005 1.232 . S
C1006 O1007 1.218 . S
O1007 C1006 1.218 . S
C1008 O1001 1.275 . S
C1008 O1003 1.255 . S
C1009 O1010 1.258 . S
C1009 O1011 1.256 . S
O1010 Cd1002 2.381 . S
O1010 C1009 1.258 . S
O1011 Cd1002 2.378 . S
O1011 C1009 1.256 . S
O1012 Cd1013 2.300 . S
O1012 C1019 1.275 . S
Cd1013 O1012 2.300 . S
Cd1013 O1021 2.381 . S
Cd1013 O1022 2.378 . S
O1014 Cd1015 2.385 . S
O1014 C1019 1.255 . S
Cd1015 O1014 2.385 . S
Cd1015 O1016 2.317 . S
O1016 Cd1015 2.317 . S
O1016 C1017 1.232 . S
C1017 O1016 1.232 . S
C1017 O1018 1.218 . S
O1018 C1017 1.218 . S
C1019 O1012 1.275 . S
C1019 O1014 1.255 . S
C1020 O1021 1.258 . S
C1020 O1022 1.256 . S
O1021 Cd1013 2.381 . S
O1021 C1020 1.258 . S
O1022 Cd1013 2.378 . S
O1022 C1020 1.256 . S
O1023 Cd1024 2.300 . S
O1023 C1030 1.275 . S
Cd1024 O1023 2.300 . S
Cd1024 O1032 2.381 . S
Cd1024 O1033 2.378 . S
O1025 Cd1026 2.385 . S
O1025 C1030 1.255 . S
Cd1026 O1025 2.385 . S
Cd1026 O1027 2.317 . S
O1027 Cd1026 2.317 . S
O1027 C1028 1.232 . S
C1028 O1027 1.232 . S
C1028 O1029 1.218 . S
O1029 C1028 1.218 . S
C1030 O1023 1.275 . S
C1030 O1025 1.255 . S
C1031 O1032 1.258 . S
C1031 O1033 1.256 . S
O1032 Cd1024 2.381 . S
O1032 C1031 1.258 . S
O1033 Cd1024 2.378 . S
O1033 C1031 1.256 . S
O1034 Cd1035 2.300 . S
O1034 C1041 1.275 . S
Cd1035 O1034 2.300 . S
Cd1035 O1043 2.381 . S
Cd1035 O1044 2.378 . S
O1036 Cd1037 2.385 . S
O1036 C1041 1.255 . S
Cd1037 O1036 2.385 . S
Cd1037 O1038 2.317 . S
O1038 Cd1037 2.317 . S
O1038 C1039 1.232 . S
C1039 O1038 1.232 . S
C1039 O1040 1.218 . S
O1040 C1039 1.218 . S
C1041 O1034 1.275 . S
C1041 O1036 1.255 . S
C1042 O1043 1.258 . S
C1042 O1044 1.256 . S
O1043 Cd1035 2.381 . S
O1043 C1042 1.258 . S
O1044 Cd1035 2.378 . S
O1044 C1042 1.256 . S
O1045 Cd1046 2.300 . S
O1045 C1052 1.275 . S
Cd1046 O1045 2.300 . S
Cd1046 O1054 2.381 . S
Cd1046 O1055 2.378 . S
O1047 Cd1048 2.385 . S
O1047 C1052 1.255 . S
Cd1048 O1047 2.385 . S
Cd1048 O1049 2.317 . S
O1049 Cd1048 2.317 . S
O1049 C1050 1.232 . S
C1050 O1049 1.232 . S
C1050 O1051 1.218 . S
O1051 C1050 1.218 . S
C1052 O1045 1.275 . S
C1052 O1047 1.255 . S
C1053 O1054 1.258 . S
C1053 O1055 1.256 . S
O1054 Cd1046 2.381 . S
O1054 C1053 1.258 . S
O1055 Cd1046 2.378 . S
O1055 C1053 1.256 . S
C1056 C1057 1.391 . S
C1056 C1060 1.391 . S
C1056 H1098 0.948 . S
C1057 C1056 1.391 . S
C1057 C1058 1.391 . S
C1058 C1057 1.391 . S
C1058 H1114 0.947 . S
C1058 C1115 1.392 . S
C1059 C1060 1.391 . S
C1059 C1063 1.397 . S
C1059 C1115 1.419 . S
C1060 C1056 1.391 . S
C1060 C1059 1.391 . S
C1060 C1061 1.399 . S
C1061 C1060 1.399 . S
C1061 C1064 1.396 . S
C1061 C1073 1.453 . S
C1061 C1074 1.684 . S
H1062 C1086 0.948 . S
C1063 C1059 1.397 . S
C1063 C1064 1.394 . S
C1063 C1082 1.723 . S
C1064 C1061 1.396 . S
C1064 C1063 1.394 . S
C1064 C1094 1.723 . S
H1065 C1088 0.947 . S
H1066 C1089 0.948 . S
H1067 C1095 0.982 . S
H1068 C1096 0.979 . S
H1069 C1096 0.980 . S
H1070 C1096 0.983 . S
H1071 C1095 0.979 . S
H1072 C1095 0.977 . S
C1073 C1061 1.453 . S
C1073 H1102 0.982 . S
C1073 H1103 0.979 . S
C1073 H1104 0.977 . S
C1074 C1061 1.684 . S
C1074 H1099 0.979 . S
C1074 H1100 0.980 . S
C1074 H1101 0.983 . S
C1075 C1076 1.391 . S
C1075 C1080 1.391 . S
C1075 H1105 0.948 . S
C1076 C1075 1.391 . S
C1076 C1077 1.391 . S
C1077 C1076 1.391 . S
C1077 C1078 1.392 . S
C1077 H1106 0.947 . S
C1078 C1077 1.392 . S
C1078 C1079 1.419 . S
C1078 H1107 0.948 . S
C1079 C1078 1.419 . S
C1079 C1080 1.391 . S
C1079 C1083 1.397 . S
C1080 C1075 1.391 . S
C1080 C1079 1.391 . S
C1080 C1081 1.399 . S
C1081 C1080 1.399 . S
C1081 C1082 1.396 . S
C1081 C1084 1.453 . S
C1081 C1085 1.684 . S
C1082 C1063 1.723 . S
C1082 C1081 1.396 . S
C1082 C1083 1.394 . S
C1083 C1079 1.397 . S
C1083 C1082 1.394 . S
C1083 C1093 1.723 . S
C1084 C1081 1.453 . S
C1084 H1108 0.982 . S
C1084 H1109 0.979 . S
C1084 H1110 0.977 . S
C1085 C1081 1.684 . S
C1085 H1111 0.979 . S
C1085 H1112 0.980 . S
C1085 H1113 0.983 . S
C1086 H1062 0.948 . S
C1086 C1087 1.391 . S
C1086 C1091 1.391 . S
C1087 C1086 1.391 . S
C1087 C1088 1.391 . S
C1088 H1065 0.947 . S
C1088 C1087 1.391 . S
C1088 C1089 1.392 . S
C1089 H1066 0.948 . S
C1089 C1088 1.392 . S
C1089 C1090 1.419 . S
C1090 C1089 1.419 . S
C1090 C1091 1.391 . S
C1090 C1094 1.397 . S
C1091 C1086 1.391 . S
C1091 C1090 1.391 . S
C1091 C1092 1.399 . S
C1092 C1091 1.399 . S
C1092 C1093 1.396 . S
C1092 C1095 1.453 . S
C1092 C1096 1.684 . S
C1093 C1083 1.723 . S
C1093 C1092 1.396 . S
C1093 C1094 1.394 . S
C1094 C1064 1.723 . S
C1094 C1090 1.397 . S
C1094 C1093 1.394 . S
C1095 H1067 0.982 . S
C1095 H1071 0.979 . S
C1095 H1072 0.977 . S
C1095 C1092 1.453 . S
C1096 H1068 0.979 . S
C1096 H1069 0.980 . S
C1096 H1070 0.983 . S
C1096 C1092 1.684 . S
H1097 C1115 0.948 . S
H1098 C1056 0.948 . S
H1099 C1074 0.979 . S
H1100 C1074 0.980 . S
H1101 C1074 0.983 . S
H1102 C1073 0.982 . S
H1103 C1073 0.979 . S
H1104 C1073 0.977 . S
H1105 C1075 0.948 . S
H1106 C1077 0.947 . S
H1107 C1078 0.948 . S
H1108 C1084 0.982 . S
H1109 C1084 0.979 . S
H1110 C1084 0.977 . S
H1111 C1085 0.979 . S
H1112 C1085 0.980 . S
H1113 C1085 0.983 . S
H1114 C1058 0.947 . S
C1115 C1058 1.392 . S
C1115 C1059 1.419 . S
C1115 H1097 0.948 . S
C1116 C1117 1.391 . S
C1116 C1120 1.391 . S
C1116 H1158 0.948 . S
C1117 C1116 1.391 . S
C1117 C1118 1.391 . S
C1118 C1117 1.391 . S
C1118 H1174 0.947 . S
C1118 C1175 1.392 . S
C1119 C1120 1.391 . S
C1119 C1123 1.397 . S
C1119 C1175 1.419 . S
C1120 C1116 1.391 . S
C1120 C1119 1.391 . S
C1120 C1121 1.399 . S
C1121 C1120 1.399 . S
C1121 C1124 1.396 . S
C1121 C1133 1.453 . S
C1121 C1134 1.684 . S
H1122 C1146 0.948 . S
C1123 C1119 1.397 . S
C1123 C1124 1.394 . S
C1123 C1142 1.723 . S
C1124 C1121 1.396 . S
C1124 C1123 1.394 . S
C1124 C1154 1.723 . S
H1125 C1148 0.943 . S
H1126 C1149 0.948 . S
H1127 C1155 0.982 . S
H1128 C1156 0.979 . S
H1129 C1156 0.980 . S
H1130 C1156 0.983 . S
H1131 C1155 0.979 . S
H1132 C1155 0.977 . S
C1133 C1121 1.453 . S
C1133 H1162 0.982 . S
C1133 H1163 0.979 . S
C1133 H1164 0.977 . S
C1134 C1121 1.684 . S
C1134 H1159 0.979 . S
C1134 H1160 0.980 . S
C1134 H1161 0.983 . S
C1135 C1136 1.391 . S
C1135 C1140 1.391 . S
C1135 H1165 0.948 . S
C1136 C1135 1.391 . S
C1136 C1137 1.391 . S
C1137 C1136 1.391 . S
C1137 C1138 1.392 . S
C1137 H1166 0.947 . S
C1138 C1137 1.392 . S
C1138 C1139 1.419 . S
C1138 H1167 0.948 . S
C1139 C1138 1.419 . S
C1139 C1140 1.391 . S
C1139 C1143 1.397 . S
C1140 C1135 1.391 . S
C1140 C1139 1.391 . S
C1140 C1141 1.399 . S
C1141 C1140 1.399 . S
C1141 C1142 1.396 . S
C1141 C1144 1.453 . S
C1141 C1145 1.684 . S
C1142 C1123 1.723 . S
C1142 C1141 1.396 . S
C1142 C1143 1.394 . S
C1143 C1139 1.397 . S
C1143 C1142 1.394 . S
C1143 C1153 1.723 . S
C1144 C1141 1.453 . S
C1144 H1168 0.982 . S
C1144 H1169 0.979 . S
C1144 H1170 0.977 . S
C1145 C1141 1.684 . S
C1145 H1171 0.979 . S
C1145 H1172 0.980 . S
C1145 H1173 0.983 . S
C1146 H1122 0.948 . S
C1146 C1147 1.391 . S
C1146 C1151 1.391 . S
C1147 C1146 1.391 . S
C1147 C1148 1.391 . S
C1148 H1125 0.943 . S
C1148 C1147 1.391 . S
C1148 C1149 1.392 . S
C1149 H1126 0.948 . S
C1149 C1148 1.392 . S
C1149 C1150 1.419 . S
C1150 C1149 1.419 . S
C1150 C1151 1.391 . S
C1150 C1154 1.397 . S
C1151 C1146 1.391 . S
C1151 C1150 1.391 . S
C1151 C1152 1.399 . S
C1152 C1151 1.399 . S
C1152 C1153 1.396 . S
C1152 C1155 1.453 . S
C1152 C1156 1.684 . S
C1153 C1143 1.723 . S
C1153 C1152 1.396 . S
C1153 C1154 1.394 . S
C1154 C1124 1.723 . S
C1154 C1150 1.397 . S
C1154 C1153 1.394 . S
C1155 H1127 0.982 . S
C1155 H1131 0.979 . S
C1155 H1132 0.977 . S
C1155 C1152 1.453 . S
C1156 H1128 0.979 . S
C1156 H1129 0.980 . S
C1156 H1130 0.983 . S
C1156 C1152 1.684 . S
H1157 C1175 0.948 . S
H1158 C1116 0.948 . S
H1159 C1134 0.979 . S
H1160 C1134 0.980 . S
H1161 C1134 0.983 . S
H1162 C1133 0.982 . S
H1163 C1133 0.979 . S
H1164 C1133 0.977 . S
H1165 C1135 0.948 . S
H1166 C1137 0.947 . S
H1167 C1138 0.948 . S
H1168 C1144 0.982 . S
H1169 C1144 0.979 . S
H1170 C1144 0.977 . S
H1171 C1145 0.979 . S
H1172 C1145 0.980 . S
H1173 C1145 0.983 . S
H1174 C1118 0.947 . S
C1175 C1118 1.392 . S
C1175 C1119 1.419 . S
C1175 H1157 0.948 . S
C1176 C1177 1.391 . S
C1176 C1180 1.391 . S
C1176 H1218 0.948 . S
C1177 C1176 1.391 . S
C1177 C1178 1.391 . S
C1178 C1177 1.391 . S
C1178 H1234 0.947 . S
C1178 C1235 1.392 . S
C1179 C1180 1.391 . S
C1179 C1183 1.397 . S
C1179 C1235 1.419 . S
C1180 C1176 1.391 . S
C1180 C1179 1.391 . S
C1180 C1181 1.399 . S
C1181 C1180 1.399 . S
C1181 C1184 1.396 . S
C1181 C1193 1.453 . S
C1181 C1194 1.684 . S
H1182 C1206 0.948 . S
C1183 C1179 1.397 . S
C1183 C1184 1.394 . S
C1183 C1202 1.723 . S
C1184 C1181 1.396 . S
C1184 C1183 1.394 . S
C1184 C1214 1.723 . S
H1185 C1208 0.947 . S
H1186 C1209 0.948 . S
H1187 C1215 0.982 . S
H1188 C1216 0.979 . S
H1189 C1216 0.980 . S
H1190 C1216 0.983 . S
H1191 C1215 0.979 . S
H1192 C1215 0.977 . S
C1193 C1181 1.453 . S
C1193 H1222 0.982 . S
C1193 H1223 0.979 . S
C1193 H1224 0.977 . S
C1194 C1181 1.684 . S
C1194 H1219 0.979 . S
C1194 H1220 0.980 . S
C1194 H1221 0.983 . S
C1195 C1196 1.391 . S
C1195 C1200 1.391 . S
C1195 H1225 0.948 . S
C1196 C1195 1.391 . S
C1196 C1197 1.391 . S
C1197 C1196 1.391 . S
C1197 C1198 1.392 . S
C1197 H1226 0.947 . S
C1198 C1197 1.392 . S
C1198 C1199 1.419 . S
C1198 H1227 0.948 . S
C1199 C1198 1.419 . S
C1199 C1200 1.391 . S
C1199 C1203 1.397 . S
C1200 C1195 1.391 . S
C1200 C1199 1.391 . S
C1200 C1201 1.399 . S
C1201 C1200 1.399 . S
C1201 C1202 1.396 . S
C1201 C1204 1.453 . S
C1201 C1205 1.684 . S
C1202 C1183 1.723 . S
C1202 C1201 1.396 . S
C1202 C1203 1.394 . S
C1203 C1199 1.397 . S
C1203 C1202 1.394 . S
C1203 C1213 1.723 . S
C1204 C1201 1.453 . S
C1204 H1228 0.982 . S
C1204 H1229 0.979 . S
C1204 H1230 0.977 . S
C1205 C1201 1.684 . S
C1205 H1231 0.979 . S
C1205 H1232 0.980 . S
C1205 H1233 0.983 . S
C1206 H1182 0.948 . S
C1206 C1207 1.391 . S
C1206 C1211 1.391 . S
C1207 C1206 1.391 . S
C1207 C1208 1.391 . S
C1208 H1185 0.947 . S
C1208 C1207 1.391 . S
C1208 C1209 1.392 . S
C1209 H1186 0.948 . S
C1209 C1208 1.392 . S
C1209 C1210 1.419 . S
C1210 C1209 1.419 . S
C1210 C1211 1.391 . S
C1210 C1214 1.397 . S
C1211 C1206 1.391 . S
C1211 C1210 1.391 . S
C1211 C1212 1.399 . S
C1212 C1211 1.399 . S
C1212 C1213 1.396 . S
C1212 C1215 1.453 . S
C1212 C1216 1.684 . S
C1213 C1203 1.723 . S
C1213 C1212 1.396 . S
C1213 C1214 1.394 . S
C1214 C1184 1.723 . S
C1214 C1210 1.397 . S
C1214 C1213 1.394 . S
C1215 H1187 0.982 . S
C1215 H1191 0.979 . S
C1215 H1192 0.977 . S
C1215 C1212 1.453 . S
C1216 H1188 0.979 . S
C1216 H1189 0.980 . S
C1216 H1190 0.983 . S
C1216 C1212 1.684 . S
H1217 C1235 0.948 . S
H1218 C1176 0.948 . S
H1219 C1194 0.979 . S
H1220 C1194 0.980 . S
H1221 C1194 0.983 . S
H1222 C1193 0.982 . S
H1223 C1193 0.979 . S
H1224 C1193 0.977 . S
H1225 C1195 0.948 . S
H1226 C1197 0.947 . S
H1227 C1198 0.948 . S
H1228 C1204 0.982 . S
H1229 C1204 0.979 . S
H1230 C1204 0.977 . S
H1231 C1205 0.979 . S
H1232 C1205 0.980 . S
H1233 C1205 0.983 . S
H1234 C1178 0.947 . S
C1235 C1178 1.392 . S
C1235 C1179 1.419 . S
C1235 H1217 0.948 . S
C1236 C1237 1.391 . S
C1236 C1240 1.391 . S
C1236 H1278 0.948 . S
C1237 C1236 1.391 . S
C1237 C1238 1.391 . S
C1238 C1237 1.391 . S
C1238 H1294 0.947 . S
C1238 C1295 1.392 . S
C1239 C1240 1.391 . S
C1239 C1243 1.397 . S
C1239 C1295 1.419 . S
C1240 C1236 1.391 . S
C1240 C1239 1.391 . S
C1240 C1241 1.399 . S
C1241 C1240 1.399 . S
C1241 C1244 1.396 . S
C1241 C1253 1.453 . S
C1241 C1254 1.684 . S
H1242 C1266 0.948 . S
C1243 C1239 1.397 . S
C1243 C1244 1.394 . S
C1243 C1262 1.723 . S
C1244 C1241 1.396 . S
C1244 C1243 1.394 . S
C1244 C1274 1.723 . S
H1245 C1268 0.947 . S
H1246 C1269 0.948 . S
H1247 C1275 0.982 . S
H1248 C1276 0.979 . S
H1249 C1276 0.980 . S
H1250 C1276 0.983 . S
H1251 C1275 0.979 . S
H1252 C1275 0.977 . S
C1253 C1241 1.453 . S
C1253 H1282 0.982 . S
C1253 H1283 0.979 . S
C1253 H1284 0.977 . S
C1254 C1241 1.684 . S
C1254 H1279 0.979 . S
C1254 H1280 0.980 . S
C1254 H1281 0.983 . S
C1255 C1256 1.391 . S
C1255 C1260 1.391 . S
C1255 H1285 0.948 . S
C1256 C1255 1.391 . S
C1256 C1257 1.391 . S
C1257 C1256 1.391 . S
C1257 C1258 1.392 . S
C1257 H1286 0.947 . S
C1258 C1257 1.392 . S
C1258 C1259 1.419 . S
C1258 H1287 0.948 . S
C1259 C1258 1.419 . S
C1259 C1260 1.391 . S
C1259 C1263 1.397 . S
C1260 C1255 1.391 . S
C1260 C1259 1.391 . S
C1260 C1261 1.399 . S
C1261 C1260 1.399 . S
C1261 C1262 1.396 . S
C1261 C1264 1.453 . S
C1261 C1265 1.684 . S
C1262 C1243 1.723 . S
C1262 C1261 1.396 . S
C1262 C1263 1.394 . S
C1263 C1259 1.397 . S
C1263 C1262 1.394 . S
C1263 C1273 1.723 . S
C1264 C1261 1.453 . S
C1264 H1288 0.982 . S
C1264 H1289 0.979 . S
C1264 H1290 0.977 . S
C1265 C1261 1.684 . S
C1265 H1291 0.979 . S
C1265 H1292 0.980 . S
C1265 H1293 0.983 . S
C1266 H1242 0.948 . S
C1266 C1267 1.391 . S
C1266 C1271 1.391 . S
C1267 C1266 1.391 . S
C1267 C1268 1.391 . S
C1268 H1245 0.947 . S
C1268 C1267 1.391 . S
C1268 C1269 1.392 . S
C1269 H1246 0.948 . S
C1269 C1268 1.392 . S
C1269 C1270 1.419 . S
C1270 C1269 1.419 . S
C1270 C1271 1.391 . S
C1270 C1274 1.397 . S
C1271 C1266 1.391 . S
C1271 C1270 1.391 . S
C1271 C1272 1.399 . S
C1272 C1271 1.399 . S
C1272 C1273 1.396 . S
C1272 C1275 1.453 . S
C1272 C1276 1.684 . S
C1273 C1263 1.723 . S
C1273 C1272 1.396 . S
C1273 C1274 1.394 . S
C1274 C1244 1.723 . S
C1274 C1270 1.397 . S
C1274 C1273 1.394 . S
C1275 H1247 0.982 . S
C1275 H1251 0.979 . S
C1275 H1252 0.977 . S
C1275 C1272 1.453 . S
C1276 H1248 0.979 . S
C1276 H1249 0.980 . S
C1276 H1250 0.983 . S
C1276 C1272 1.684 . S
H1277 C1295 0.948 . S
H1278 C1236 0.948 . S
H1279 C1254 0.979 . S
H1280 C1254 0.980 . S
H1281 C1254 0.983 . S
H1282 C1253 0.982 . S
H1283 C1253 0.979 . S
H1284 C1253 0.977 . S
H1285 C1255 0.948 . S
H1286 C1257 0.947 . S
H1287 C1258 0.948 . S
H1288 C1264 0.982 . S
H1289 C1264 0.979 . S
H1290 C1264 0.977 . S
H1291 C1265 0.979 . S
H1292 C1265 0.980 . S
H1293 C1265 0.983 . S
H1294 C1238 0.947 . S
C1295 C1238 1.392 . S
C1295 C1239 1.419 . S
C1295 H1277 0.948 . S
C1296 C1297 1.391 . S
C1296 C1300 1.391 . S
C1296 H1338 0.948 . S
C1297 C1296 1.391 . S
C1297 C1298 1.391 . S
C1298 C1297 1.391 . S
C1298 H1354 0.947 . S
C1298 C1355 1.392 . S
C1299 C1300 1.391 . S
C1299 C1303 1.397 . S
C1299 C1355 1.419 . S
C1300 C1296 1.391 . S
C1300 C1299 1.391 . S
C1300 C1301 1.399 . S
C1301 C1300 1.399 . S
C1301 C1304 1.396 . S
C1301 C1313 1.453 . S
C1301 C1314 1.684 . S
H1302 C1326 0.948 . S
C1303 C1299 1.397 . S
C1303 C1304 1.394 . S
C1303 C1322 1.723 . S
C1304 C1301 1.396 . S
C1304 C1303 1.394 . S
C1304 C1334 1.723 . S
H1305 C1328 0.947 . S
H1306 C1329 0.948 . S
H1307 C1335 0.982 . S
H1308 C1336 0.979 . S
H1309 C1336 0.980 . S
H1310 C1336 0.983 . S
H1311 C1335 0.979 . S
H1312 C1335 0.977 . S
C1313 C1301 1.453 . S
C1313 H1342 0.982 . S
C1313 H1343 0.979 . S
C1313 H1344 0.977 . S
C1314 C1301 1.684 . S
C1314 H1339 0.979 . S
C1314 H1340 0.980 . S
C1314 H1341 0.983 . S
C1315 C1316 1.391 . S
C1315 C1320 1.391 . S
C1315 H1345 0.948 . S
C1316 C1315 1.391 . S
C1316 C1317 1.391 . S
C1317 C1316 1.391 . S
C1317 C1318 1.392 . S
C1317 H1346 0.947 . S
C1318 C1317 1.392 . S
C1318 C1319 1.419 . S
C1318 H1347 0.948 . S
C1319 C1318 1.419 . S
C1319 C1320 1.391 . S
C1319 C1323 1.397 . S
C1320 C1315 1.391 . S
C1320 C1319 1.391 . S
C1320 C1321 1.399 . S
C1321 C1320 1.399 . S
C1321 C1322 1.396 . S
C1321 C1324 1.453 . S
C1321 C1325 1.684 . S
C1322 C1303 1.723 . S
C1322 C1321 1.396 . S
C1322 C1323 1.394 . S
C1323 C1319 1.397 . S
C1323 C1322 1.394 . S
C1323 C1333 1.723 . S
C1324 C1321 1.453 . S
C1324 H1348 0.982 . S
C1324 H1349 0.979 . S
C1324 H1350 0.977 . S
C1325 C1321 1.684 . S
C1325 H1351 0.979 . S
C1325 H1352 0.980 . S
C1325 H1353 0.983 . S
C1326 H1302 0.948 . S
C1326 C1327 1.391 . S
C1326 C1331 1.391 . S
C1327 C1326 1.391 . S
C1327 C1328 1.391 . S
C1328 H1305 0.947 . S
C1328 C1327 1.391 . S
C1328 C1329 1.392 . S
C1329 H1306 0.948 . S
C1329 C1328 1.392 . S
C1329 C1330 1.419 . S
C1330 C1329 1.419 . S
C1330 C1331 1.391 . S
C1330 C1334 1.397 . S
C1331 C1326 1.391 . S
C1331 C1330 1.391 . S
C1331 C1332 1.399 . S
C1332 C1331 1.399 . S
C1332 C1333 1.396 . S
C1332 C1335 1.453 . S
C1332 C1336 1.684 . S
C1333 C1323 1.723 . S
C1333 C1332 1.396 . S
C1333 C1334 1.394 . S
C1334 C1304 1.723 . S
C1334 C1330 1.397 . S
C1334 C1333 1.394 . S
C1335 H1307 0.982 . S
C1335 H1311 0.979 . S
C1335 H1312 0.977 . S
C1335 C1332 1.453 . S
C1336 H1308 0.979 . S
C1336 H1309 0.980 . S
C1336 H1310 0.983 . S
C1336 C1332 1.684 . S
H1337 C1355 0.948 . S
H1338 C1296 0.948 . S
H1339 C1314 0.979 . S
H1340 C1314 0.980 . S
H1341 C1314 0.983 . S
H1342 C1313 0.982 . S
H1343 C1313 0.979 . S
H1344 C1313 0.977 . S
H1345 C1315 0.948 . S
H1346 C1317 0.947 . S
H1347 C1318 0.948 . S
H1348 C1324 0.982 . S
H1349 C1324 0.979 . S
H1350 C1324 0.977 . S
H1351 C1325 0.979 . S
H1352 C1325 0.980 . S
H1353 C1325 0.983 . S
H1354 C1298 0.947 . S
C1355 C1298 1.392 . S
C1355 C1299 1.419 . S
C1355 H1337 0.948 . S
C1356 C1357 1.391 . S
C1356 C1360 1.391 . S
C1356 H1398 0.948 . S
C1357 C1356 1.391 . S
C1357 C1358 1.391 . S
C1358 C1357 1.391 . S
C1358 H1414 0.947 . S
C1358 C1415 1.392 . S
C1359 C1360 1.391 . S
C1359 C1363 1.397 . S
C1359 C1415 1.419 . S
C1360 C1356 1.391 . S
C1360 C1359 1.391 . S
C1360 C1361 1.399 . S
C1361 C1360 1.399 . S
C1361 C1364 1.396 . S
C1361 C1373 1.453 . S
C1361 C1374 1.684 . S
H1362 C1386 0.948 . S
C1363 C1359 1.397 . S
C1363 C1364 1.394 . S
C1363 C1382 1.723 . S
C1364 C1361 1.396 . S
C1364 C1363 1.394 . S
C1364 C1394 1.723 . S
H1365 C1388 0.947 . S
H1366 C1389 0.948 . S
H1367 C1395 0.982 . S
H1368 C1396 0.979 . S
H1369 C1396 0.980 . S
H1370 C1396 0.983 . S
H1371 C1395 0.979 . S
H1372 C1395 0.977 . S
C1373 C1361 1.453 . S
C1373 H1402 0.982 . S
C1373 H1403 0.979 . S
C1373 H1404 0.977 . S
C1374 C1361 1.684 . S
C1374 H1399 0.979 . S
C1374 H1400 0.980 . S
C1374 H1401 0.983 . S
C1375 C1376 1.391 . S
C1375 C1380 1.391 . S
C1375 H1405 0.948 . S
C1376 C1375 1.391 . S
C1376 C1377 1.391 . S
C1377 C1376 1.391 . S
C1377 C1378 1.392 . S
C1377 H1406 0.947 . S
C1378 C1377 1.392 . S
C1378 C1379 1.419 . S
C1378 H1407 0.948 . S
C1379 C1378 1.419 . S
C1379 C1380 1.391 . S
C1379 C1383 1.397 . S
C1380 C1375 1.391 . S
C1380 C1379 1.391 . S
C1380 C1381 1.399 . S
C1381 C1380 1.399 . S
C1381 C1382 1.396 . S
C1381 C1384 1.453 . S
C1381 C1385 1.684 . S
C1382 C1363 1.723 . S
C1382 C1381 1.396 . S
C1382 C1383 1.394 . S
C1383 C1379 1.397 . S
C1383 C1382 1.394 . S
C1383 C1393 1.723 . S
C1384 C1381 1.453 . S
C1384 H1408 0.982 . S
C1384 H1409 0.979 . S
C1384 H1410 0.977 . S
C1385 C1381 1.684 . S
C1385 H1411 0.979 . S
C1385 H1412 0.980 . S
C1385 H1413 0.983 . S
C1386 H1362 0.948 . S
C1386 C1387 1.391 . S
C1386 C1391 1.391 . S
C1387 C1386 1.391 . S
C1387 C1388 1.391 . S
C1388 H1365 0.947 . S
C1388 C1387 1.391 . S
C1388 C1389 1.392 . S
C1389 H1366 0.948 . S
C1389 C1388 1.392 . S
C1389 C1390 1.419 . S
C1390 C1389 1.419 . S
C1390 C1391 1.391 . S
C1390 C1394 1.397 . S
C1391 C1386 1.391 . S
C1391 C1390 1.391 . S
C1391 C1392 1.399 . S
C1392 C1391 1.399 . S
C1392 C1393 1.396 . S
C1392 C1395 1.453 . S
C1392 C1396 1.684 . S
C1393 C1383 1.723 . S
C1393 C1392 1.396 . S
C1393 C1394 1.394 . S
C1394 C1364 1.723 . S
C1394 C1390 1.397 . S
C1394 C1393 1.394 . S
C1395 H1367 0.982 . S
C1395 H1371 0.979 . S
C1395 H1372 0.977 . S
C1395 C1392 1.453 . S
C1396 H1368 0.979 . S
C1396 H1369 0.980 . S
C1396 H1370 0.983 . S
C1396 C1392 1.684 . S
H1397 C1415 0.948 . S
H1398 C1356 0.948 . S
H1399 C1374 0.979 . S
H1400 C1374 0.980 . S
H1401 C1374 0.983 . S
H1402 C1373 0.982 . S
H1403 C1373 0.979 . S
H1404 C1373 0.977 . S
H1405 C1375 0.948 . S
H1406 C1377 0.947 . S
H1407 C1378 0.948 . S
H1408 C1384 0.982 . S
H1409 C1384 0.979 . S
H1410 C1384 0.977 . S
H1411 C1385 0.979 . S
H1412 C1385 0.980 . S
H1413 C1385 0.983 . S
H1414 C1358 0.947 . S
C1415 C1358 1.392 . S
C1415 C1359 1.419 . S
C1415 H1397 0.948 . S
C1416 C1417 1.391 . S
C1416 C1420 1.391 . S
C1416 H1458 0.948 . S
C1417 C1416 1.391 . S
C1417 C1418 1.391 . S
C1418 C1417 1.391 . S
C1418 H1474 0.947 . S
C1418 C1475 1.392 . S
C1419 C1420 1.391 . S
C1419 C1423 1.397 . S
C1419 C1475 1.419 . S
C1420 C1416 1.391 . S
C1420 C1419 1.391 . S
C1420 C1421 1.399 . S
C1421 C1420 1.399 . S
C1421 C1424 1.396 . S
C1421 C1433 1.453 . S
C1421 C1434 1.684 . S
H1422 C1446 0.948 . S
C1423 C1419 1.397 . S
C1423 C1424 1.394 . S
C1423 C1442 1.723 . S
C1424 C1421 1.396 . S
C1424 C1423 1.394 . S
C1424 C1454 1.723 . S
H1425 C1448 0.947 . S
H1426 C1449 0.948 . S
H1427 C1455 0.982 . S
H1428 C1456 0.979 . S
H1429 C1456 0.980 . S
H1430 C1456 0.983 . S
H1431 C1455 0.979 . S
H1432 C1455 0.977 . S
C1433 C1421 1.453 . S
C1433 H1462 0.982 . S
C1433 H1463 0.979 . S
C1433 H1464 0.977 . S
C1434 C1421 1.684 . S
C1434 H1459 0.979 . S
C1434 H1460 0.980 . S
C1434 H1461 0.983 . S
C1435 C1436 1.391 . S
C1435 C1440 1.391 . S
C1435 H1465 0.948 . S
C1436 C1435 1.391 . S
C1436 C1437 1.391 . S
C1437 C1436 1.391 . S
C1437 C1438 1.392 . S
C1437 H1466 0.947 . S
C1438 C1437 1.392 . S
C1438 C1439 1.419 . S
C1438 H1467 0.948 . S
C1439 C1438 1.419 . S
C1439 C1440 1.391 . S
C1439 C1443 1.397 . S
C1440 C1435 1.391 . S
C1440 C1439 1.391 . S
C1440 C1441 1.399 . S
C1441 C1440 1.399 . S
C1441 C1442 1.396 . S
C1441 C1444 1.453 . S
C1441 C1445 1.684 . S
C1442 C1423 1.723 . S
C1442 C1441 1.396 . S
C1442 C1443 1.394 . S
C1443 C1439 1.397 . S
C1443 C1442 1.394 . S
C1443 C1453 1.723 . S
C1444 C1441 1.453 . S
C1444 H1468 0.982 . S
C1444 H1469 0.979 . S
C1444 H1470 0.977 . S
C1445 C1441 1.684 . S
C1445 H1471 0.979 . S
C1445 H1472 0.980 . S
C1445 H1473 0.983 . S
C1446 H1422 0.948 . S
C1446 C1447 1.391 . S
C1446 C1451 1.391 . S
C1447 C1446 1.391 . S
C1447 C1448 1.391 . S
C1448 H1425 0.947 . S
C1448 C1447 1.391 . S
C1448 C1449 1.392 . S
C1449 H1426 0.948 . S
C1449 C1448 1.392 . S
C1449 C1450 1.419 . S
C1450 C1449 1.419 . S
C1450 C1451 1.391 . S
C1450 C1454 1.397 . S
C1451 C1446 1.391 . S
C1451 C1450 1.391 . S
C1451 C1452 1.399 . S
C1452 C1451 1.399 . S
C1452 C1453 1.396 . S
C1452 C1455 1.453 . S
C1452 C1456 1.684 . S
C1453 C1443 1.723 . S
C1453 C1452 1.396 . S
C1453 C1454 1.394 . S
C1454 C1424 1.723 . S
C1454 C1450 1.397 . S
C1454 C1453 1.394 . S
C1455 H1427 0.982 . S
C1455 H1431 0.979 . S
C1455 H1432 0.977 . S
C1455 C1452 1.453 . S
C1456 H1428 0.979 . S
C1456 H1429 0.980 . S
C1456 H1430 0.983 . S
C1456 C1452 1.684 . S
H1457 C1475 0.948 . S
H1458 C1416 0.948 . S
H1459 C1434 0.979 . S
H1460 C1434 0.980 . S
H1461 C1434 0.983 . S
H1462 C1433 0.982 . S
H1463 C1433 0.979 . S
H1464 C1433 0.977 . S
H1465 C1435 0.948 . S
H1466 C1437 0.947 . S
H1467 C1438 0.948 . S
H1468 C1444 0.982 . S
H1469 C1444 0.979 . S
H1470 C1444 0.977 . S
H1471 C1445 0.979 . S
H1472 C1445 0.980 . S
H1473 C1445 0.983 . S
H1474 C1418 0.947 . S
C1475 C1418 1.392 . S
C1475 C1419 1.419 . S
C1475 H1457 0.948 . S
C1476 C1477 1.391 . S
C1476 C1480 1.391 . S
C1476 H1518 0.948 . S
C1477 C1476 1.391 . S
C1477 C1478 1.391 . S
C1478 C1477 1.391 . S
C1478 H1534 0.947 . S
C1478 C1535 1.392 . S
C1479 C1480 1.391 . S
C1479 C1483 1.397 . S
C1479 C1535 1.419 . S
C1480 C1476 1.391 . S
C1480 C1479 1.391 . S
C1480 C1481 1.399 . S
C1481 C1480 1.399 . S
C1481 C1484 1.396 . S
C1481 C1493 1.453 . S
C1481 C1494 1.684 . S
H1482 C1506 0.948 . S
C1483 C1479 1.397 . S
C1483 C1484 1.394 . S
C1483 C1502 1.723 . S
C1484 C1481 1.396 . S
C1484 C1483 1.394 . S
C1484 C1514 1.723 . S
H1485 C1508 0.943 . S
H1486 C1509 0.948 . S
H1487 C1515 0.982 . S
H1488 C1516 0.979 . S
H1489 C1516 0.980 . S
H1490 C1516 0.983 . S
H1491 C1515 0.979 . S
H1492 C1515 0.977 . S
C1493 C1481 1.453 . S
C1493 H1522 0.982 . S
C1493 H1523 0.979 . S
C1493 H1524 0.977 . S
C1494 C1481 1.684 . S
C1494 H1519 0.979 . S
C1494 H1520 0.980 . S
C1494 H1521 0.983 . S
C1495 C1496 1.391 . S
C1495 C1500 1.391 . S
C1495 H1525 0.948 . S
C1496 C1495 1.391 . S
C1496 C1497 1.391 . S
C1497 C1496 1.391 . S
C1497 C1498 1.392 . S
C1497 H1526 0.947 . S
C1498 C1497 1.392 . S
C1498 C1499 1.419 . S
C1498 H1527 0.948 . S
C1499 C1498 1.419 . S
C1499 C1500 1.391 . S
C1499 C1503 1.397 . S
C1500 C1495 1.391 . S
C1500 C1499 1.391 . S
C1500 C1501 1.399 . S
C1501 C1500 1.399 . S
C1501 C1502 1.396 . S
C1501 C1504 1.453 . S
C1501 C1505 1.684 . S
C1502 C1483 1.723 . S
C1502 C1501 1.396 . S
C1502 C1503 1.394 . S
C1503 C1499 1.397 . S
C1503 C1502 1.394 . S
C1503 C1513 1.723 . S
C1504 C1501 1.453 . S
C1504 H1528 0.982 . S
C1504 H1529 0.979 . S
C1504 H1530 0.977 . S
C1505 C1501 1.684 . S
C1505 H1531 0.979 . S
C1505 H1532 0.980 . S
C1505 H1533 0.983 . S
C1506 H1482 0.948 . S
C1506 C1507 1.391 . S
C1506 C1511 1.391 . S
C1507 C1506 1.391 . S
C1507 C1508 1.391 . S
C1508 H1485 0.943 . S
C1508 C1507 1.391 . S
C1508 C1509 1.392 . S
C1509 H1486 0.948 . S
C1509 C1508 1.392 . S
C1509 C1510 1.419 . S
C1510 C1509 1.419 . S
C1510 C1511 1.391 . S
C1510 C1514 1.397 . S
C1511 C1506 1.391 . S
C1511 C1510 1.391 . S
C1511 C1512 1.399 . S
C1512 C1511 1.399 . S
C1512 C1513 1.396 . S
C1512 C1515 1.453 . S
C1512 C1516 1.684 . S
C1513 C1503 1.723 . S
C1513 C1512 1.396 . S
C1513 C1514 1.394 . S
C1514 C1484 1.723 . S
C1514 C1510 1.397 . S
C1514 C1513 1.394 . S
C1515 H1487 0.982 . S
C1515 H1491 0.979 . S
C1515 H1492 0.977 . S
C1515 C1512 1.453 . S
C1516 H1488 0.979 . S
C1516 H1489 0.980 . S
C1516 H1490 0.983 . S
C1516 C1512 1.684 . S
H1517 C1535 0.948 . S
H1518 C1476 0.948 . S
H1519 C1494 0.979 . S
H1520 C1494 0.980 . S
H1521 C1494 0.983 . S
H1522 C1493 0.982 . S
H1523 C1493 0.979 . S
H1524 C1493 0.977 . S
H1525 C1495 0.948 . S
H1526 C1497 0.947 . S
H1527 C1498 0.948 . S
H1528 C1504 0.982 . S
H1529 C1504 0.979 . S
H1530 C1504 0.977 . S
H1531 C1505 0.979 . S
H1532 C1505 0.980 . S
H1533 C1505 0.983 . S
H1534 C1478 0.947 . S
C1535 C1478 1.392 . S
C1535 C1479 1.419 . S
C1535 H1517 0.948 . S
C1536 C1537 1.391 . S
C1536 C1540 1.391 . S
C1536 H1578 0.948 . S
C1537 C1536 1.391 . S
C1537 C1538 1.391 . S
C1538 C1537 1.391 . S
C1538 H1594 0.947 . S
C1538 C1595 1.392 . S
C1539 C1540 1.391 . S
C1539 C1543 1.397 . S
C1539 C1595 1.419 . S
C1540 C1536 1.391 . S
C1540 C1539 1.391 . S
C1540 C1541 1.399 . S
C1541 C1540 1.399 . S
C1541 C1544 1.396 . S
C1541 C1553 1.453 . S
C1541 C1554 1.684 . S
H1542 C1566 0.948 . S
C1543 C1539 1.397 . S
C1543 C1544 1.394 . S
C1543 C1562 1.723 . S
C1544 C1541 1.396 . S
C1544 C1543 1.394 . S
C1544 C1574 1.723 . S
H1545 C1568 0.947 . S
H1546 C1569 0.948 . S
H1547 C1575 0.982 . S
H1548 C1576 0.979 . S
H1549 C1576 0.980 . S
H1550 C1576 0.983 . S
H1551 C1575 0.979 . S
H1552 C1575 0.977 . S
C1553 C1541 1.453 . S
C1553 H1582 0.982 . S
C1553 H1583 0.979 . S
C1553 H1584 0.977 . S
C1554 C1541 1.684 . S
C1554 H1579 0.979 . S
C1554 H1580 0.980 . S
C1554 H1581 0.983 . S
C1555 C1556 1.391 . S
C1555 C1560 1.391 . S
C1555 H1585 0.948 . S
C1556 C1555 1.391 . S
C1556 C1557 1.391 . S
C1557 C1556 1.391 . S
C1557 C1558 1.392 . S
C1557 H1586 0.947 . S
C1558 C1557 1.392 . S
C1558 C1559 1.419 . S
C1558 H1587 0.948 . S
C1559 C1558 1.419 . S
C1559 C1560 1.391 . S
C1559 C1563 1.397 . S
C1560 C1555 1.391 . S
C1560 C1559 1.391 . S
C1560 C1561 1.399 . S
C1561 C1560 1.399 . S
C1561 C1562 1.396 . S
C1561 C1564 1.453 . S
C1561 C1565 1.684 . S
C1562 C1543 1.723 . S
C1562 C1561 1.396 . S
C1562 C1563 1.394 . S
C1563 C1559 1.397 . S
C1563 C1562 1.394 . S
C1563 C1573 1.723 . S
C1564 C1561 1.453 . S
C1564 H1588 0.982 . S
C1564 H1589 0.979 . S
C1564 H1590 0.977 . S
C1565 C1561 1.684 . S
C1565 H1591 0.979 . S
C1565 H1592 0.980 . S
C1565 H1593 0.983 . S
C1566 H1542 0.948 . S
C1566 C1567 1.391 . S
C1566 C1571 1.391 . S
C1567 C1566 1.391 . S
C1567 C1568 1.391 . S
C1568 H1545 0.947 . S
C1568 C1567 1.391 . S
C1568 C1569 1.392 . S
C1569 H1546 0.948 . S
C1569 C1568 1.392 . S
C1569 C1570 1.419 . S
C1570 C1569 1.419 . S
C1570 C1571 1.391 . S
C1570 C1574 1.397 . S
C1571 C1566 1.391 . S
C1571 C1570 1.391 . S
C1571 C1572 1.399 . S
C1572 C1571 1.399 . S
C1572 C1573 1.396 . S
C1572 C1575 1.453 . S
C1572 C1576 1.684 . S
C1573 C1563 1.723 . S
C1573 C1572 1.396 . S
C1573 C1574 1.394 . S
C1574 C1544 1.723 . S
C1574 C1570 1.397 . S
C1574 C1573 1.394 . S
C1575 H1547 0.982 . S
C1575 H1551 0.979 . S
C1575 H1552 0.977 . S
C1575 C1572 1.453 . S
C1576 H1548 0.979 . S
C1576 H1549 0.980 . S
C1576 H1550 0.983 . S
C1576 C1572 1.684 . S
H1577 C1595 0.948 . S
H1578 C1536 0.948 . S
H1579 C1554 0.979 . S
H1580 C1554 0.980 . S
H1581 C1554 0.983 . S
H1582 C1553 0.982 . S
H1583 C1553 0.979 . S
H1584 C1553 0.977 . S
H1585 C1555 0.948 . S
H1586 C1557 0.947 . S
H1587 C1558 0.948 . S
H1588 C1564 0.982 . S
H1589 C1564 0.979 . S
H1590 C1564 0.977 . S
H1591 C1565 0.979 . S
H1592 C1565 0.980 . S
H1593 C1565 0.983 . S
H1594 C1538 0.947 . S
C1595 C1538 1.392 . S
C1595 C1539 1.419 . S
C1595 H1577 0.948 . S
C1596 C1597 1.391 . S
C1596 C1600 1.391 . S
C1596 H1638 0.948 . S
C1597 C1596 1.391 . S
C1597 C1598 1.391 . S
C1598 C1597 1.391 . S
C1598 H1654 0.947 . S
C1598 C1655 1.392 . S
C1599 C1600 1.391 . S
C1599 C1603 1.397 . S
C1599 C1655 1.419 . S
C1600 C1596 1.391 . S
C1600 C1599 1.391 . S
C1600 C1601 1.399 . S
C1601 C1600 1.399 . S
C1601 C1604 1.396 . S
C1601 C1613 1.453 . S
C1601 C1614 1.684 . S
H1602 C1626 0.948 . S
C1603 C1599 1.397 . S
C1603 C1604 1.394 . S
C1603 C1622 1.723 . S
C1604 C1601 1.396 . S
C1604 C1603 1.394 . S
C1604 C1634 1.723 . S
H1605 C1628 0.947 . S
H1606 C1629 0.948 . S
H1607 C1635 0.982 . S
H1608 C1636 0.979 . S
H1609 C1636 0.980 . S
H1610 C1636 0.983 . S
H1611 C1635 0.979 . S
H1612 C1635 0.977 . S
C1613 C1601 1.453 . S
C1613 H1642 0.982 . S
C1613 H1643 0.979 . S
C1613 H1644 0.977 . S
C1614 C1601 1.684 . S
C1614 H1639 0.979 . S
C1614 H1640 0.980 . S
C1614 H1641 0.983 . S
C1615 C1616 1.391 . S
C1615 C1620 1.391 . S
C1615 H1645 0.948 . S
C1616 C1615 1.391 . S
C1616 C1617 1.391 . S
C1617 C1616 1.391 . S
C1617 C1618 1.392 . S
C1617 H1646 0.947 . S
C1618 C1617 1.392 . S
C1618 C1619 1.419 . S
C1618 H1647 0.948 . S
C1619 C1618 1.419 . S
C1619 C1620 1.391 . S
C1619 C1623 1.397 . S
C1620 C1615 1.391 . S
C1620 C1619 1.391 . S
C1620 C1621 1.399 . S
C1621 C1620 1.399 . S
C1621 C1622 1.396 . S
C1621 C1624 1.453 . S
C1621 C1625 1.684 . S
C1622 C1603 1.723 . S
C1622 C1621 1.396 . S
C1622 C1623 1.394 . S
C1623 C1619 1.397 . S
C1623 C1622 1.394 . S
C1623 C1633 1.723 . S
C1624 C1621 1.453 . S
C1624 H1648 0.982 . S
C1624 H1649 0.979 . S
C1624 H1650 0.977 . S
C1625 C1621 1.684 . S
C1625 H1651 0.979 . S
C1625 H1652 0.980 . S
C1625 H1653 0.983 . S
C1626 H1602 0.948 . S
C1626 C1627 1.391 . S
C1626 C1631 1.391 . S
C1627 C1626 1.391 . S
C1627 C1628 1.391 . S
C1628 H1605 0.947 . S
C1628 C1627 1.391 . S
C1628 C1629 1.392 . S
C1629 H1606 0.948 . S
C1629 C1628 1.392 . S
C1629 C1630 1.419 . S
C1630 C1629 1.419 . S
C1630 C1631 1.391 . S
C1630 C1634 1.397 . S
C1631 C1626 1.391 . S
C1631 C1630 1.391 . S
C1631 C1632 1.399 . S
C1632 C1631 1.399 . S
C1632 C1633 1.396 . S
C1632 C1635 1.453 . S
C1632 C1636 1.684 . S
C1633 C1623 1.723 . S
C1633 C1632 1.396 . S
C1633 C1634 1.394 . S
C1634 C1604 1.723 . S
C1634 C1630 1.397 . S
C1634 C1633 1.394 . S
C1635 H1607 0.982 . S
C1635 H1611 0.979 . S
C1635 H1612 0.977 . S
C1635 C1632 1.453 . S
C1636 H1608 0.979 . S
C1636 H1609 0.980 . S
C1636 H1610 0.983 . S
C1636 C1632 1.684 . S
H1637 C1655 0.948 . S
H1638 C1596 0.948 . S
H1639 C1614 0.979 . S
H1640 C1614 0.980 . S
H1641 C1614 0.983 . S
H1642 C1613 0.982 . S
H1643 C1613 0.979 . S
H1644 C1613 0.977 . S
H1645 C1615 0.948 . S
H1646 C1617 0.947 . S
H1647 C1618 0.948 . S
H1648 C1624 0.982 . S
H1649 C1624 0.979 . S
H1650 C1624 0.977 . S
H1651 C1625 0.979 . S
H1652 C1625 0.980 . S
H1653 C1625 0.983 . S
H1654 C1598 0.947 . S
C1655 C1598 1.392 . S
C1655 C1599 1.419 . S
C1655 H1637 0.948 . S
C1656 C1657 1.391 . S
C1656 C1660 1.391 . S
C1656 H1698 0.948 . S
C1657 C1656 1.391 . S
C1657 C1658 1.391 . S
C1658 C1657 1.391 . S
C1658 H1714 0.947 . S
C1658 C1715 1.392 . S
C1659 C1660 1.391 . S
C1659 C1663 1.397 . S
C1659 C1715 1.419 . S
C1660 C1656 1.391 . S
C1660 C1659 1.391 . S
C1660 C1661 1.399 . S
C1661 C1660 1.399 . S
C1661 C1664 1.396 . S
C1661 C1673 1.453 . S
C1661 C1674 1.684 . S
H1662 C1686 0.948 . S
C1663 C1659 1.397 . S
C1663 C1664 1.394 . S
C1663 C1682 1.723 . S
C1664 C1661 1.396 . S
C1664 C1663 1.394 . S
C1664 C1694 1.723 . S
H1665 C1688 0.947 . S
H1666 C1689 0.948 . S
H1667 C1695 0.982 . S
H1668 C1696 0.979 . S
H1669 C1696 0.980 . S
H1670 C1696 0.983 . S
H1671 C1695 0.979 . S
H1672 C1695 0.977 . S
C1673 C1661 1.453 . S
C1673 H1702 0.982 . S
C1673 H1703 0.979 . S
C1673 H1704 0.977 . S
C1674 C1661 1.684 . S
C1674 H1699 0.979 . S
C1674 H1700 0.980 . S
C1674 H1701 0.983 . S
C1675 C1676 1.391 . S
C1675 C1680 1.391 . S
C1675 H1705 0.948 . S
C1676 C1675 1.391 . S
C1676 C1677 1.391 . S
C1677 C1676 1.391 . S
C1677 C1678 1.392 . S
C1677 H1706 0.947 . S
C1678 C1677 1.392 . S
C1678 C1679 1.419 . S
C1678 H1707 0.948 . S
C1679 C1678 1.419 . S
C1679 C1680 1.391 . S
C1679 C1683 1.397 . S
C1680 C1675 1.391 . S
C1680 C1679 1.391 . S
C1680 C1681 1.399 . S
C1681 C1680 1.399 . S
C1681 C1682 1.396 . S
C1681 C1684 1.453 . S
C1681 C1685 1.684 . S
C1682 C1663 1.723 . S
C1682 C1681 1.396 . S
C1682 C1683 1.394 . S
C1683 C1679 1.397 . S
C1683 C1682 1.394 . S
C1683 C1693 1.723 . S
C1684 C1681 1.453 . S
C1684 H1708 0.982 . S
C1684 H1709 0.979 . S
C1684 H1710 0.977 . S
C1685 C1681 1.684 . S
C1685 H1711 0.979 . S
C1685 H1712 0.980 . S
C1685 H1713 0.983 . S
C1686 H1662 0.948 . S
C1686 C1687 1.391 . S
C1686 C1691 1.391 . S
C1687 C1686 1.391 . S
C1687 C1688 1.391 . S
C1688 H1665 0.947 . S
C1688 C1687 1.391 . S
C1688 C1689 1.392 . S
C1689 H1666 0.948 . S
C1689 C1688 1.392 . S
C1689 C1690 1.419 . S
C1690 C1689 1.419 . S
C1690 C1691 1.391 . S
C1690 C1694 1.397 . S
C1691 C1686 1.391 . S
C1691 C1690 1.391 . S
C1691 C1692 1.399 . S
C1692 C1691 1.399 . S
C1692 C1693 1.396 . S
C1692 C1695 1.453 . S
C1692 C1696 1.684 . S
C1693 C1683 1.723 . S
C1693 C1692 1.396 . S
C1693 C1694 1.394 . S
C1694 C1664 1.723 . S
C1694 C1690 1.397 . S
C1694 C1693 1.394 . S
C1695 H1667 0.982 . S
C1695 H1671 0.979 . S
C1695 H1672 0.977 . S
C1695 C1692 1.453 . S
C1696 H1668 0.979 . S
C1696 H1669 0.980 . S
C1696 H1670 0.983 . S
C1696 C1692 1.684 . S
H1697 C1715 0.948 . S
H1698 C1656 0.948 . S
H1699 C1674 0.979 . S
H1700 C1674 0.980 . S
H1701 C1674 0.983 . S
H1702 C1673 0.982 . S
H1703 C1673 0.979 . S
H1704 C1673 0.977 . S
H1705 C1675 0.948 . S
H1706 C1677 0.947 . S
H1707 C1678 0.948 . S
H1708 C1684 0.982 . S
H1709 C1684 0.979 . S
H1710 C1684 0.977 . S
H1711 C1685 0.979 . S
H1712 C1685 0.980 . S
H1713 C1685 0.983 . S
H1714 C1658 0.947 . S
C1715 C1658 1.392 . S
C1715 C1659 1.419 . S
C1715 H1697 0.948 . S
C1716 C1717 1.391 . S
C1716 C1720 1.391 . S
C1716 H1758 0.948 . S
C1717 C1716 1.391 . S
C1717 C1718 1.391 . S
C1718 C1717 1.391 . S
C1718 H1774 0.947 . S
C1718 C1775 1.392 . S
C1719 C1720 1.391 . S
C1719 C1723 1.397 . S
C1719 C1775 1.419 . S
C1720 C1716 1.391 . S
C1720 C1719 1.391 . S
C1720 C1721 1.399 . S
C1721 C1720 1.399 . S
C1721 C1724 1.396 . S
C1721 C1733 1.453 . S
C1721 C1734 1.684 . S
H1722 C1746 0.948 . S
C1723 C1719 1.397 . S
C1723 C1724 1.394 . S
C1723 C1742 1.723 . S
C1724 C1721 1.396 . S
C1724 C1723 1.394 . S
C1724 C1754 1.723 . S
H1725 C1748 0.945 . S
H1726 C1749 0.948 . S
H1727 C1755 0.982 . S
H1728 C1756 0.979 . S
H1729 C1756 0.980 . S
H1730 C1756 0.983 . S
H1731 C1755 0.979 . S
H1732 C1755 0.977 . S
C1733 C1721 1.453 . S
C1733 H1762 0.982 . S
C1733 H1763 0.979 . S
C1733 H1764 0.977 . S
C1734 C1721 1.684 . S
C1734 H1759 0.979 . S
C1734 H1760 0.980 . S
C1734 H1761 0.983 . S
C1735 C1736 1.391 . S
C1735 C1740 1.391 . S
C1735 H1765 0.948 . S
C1736 C1735 1.391 . S
C1736 C1737 1.391 . S
C1737 C1736 1.391 . S
C1737 C1738 1.392 . S
C1737 H1766 0.947 . S
C1738 C1737 1.392 . S
C1738 C1739 1.419 . S
C1738 H1767 0.948 . S
C1739 C1738 1.419 . S
C1739 C1740 1.391 . S
C1739 C1743 1.397 . S
C1740 C1735 1.391 . S
C1740 C1739 1.391 . S
C1740 C1741 1.399 . S
C1741 C1740 1.399 . S
C1741 C1742 1.396 . S
C1741 C1744 1.453 . S
C1741 C1745 1.684 . S
C1742 C1723 1.723 . S
C1742 C1741 1.396 . S
C1742 C1743 1.394 . S
C1743 C1739 1.397 . S
C1743 C1742 1.394 . S
C1743 C1753 1.723 . S
C1744 C1741 1.453 . S
C1744 H1768 0.982 . S
C1744 H1769 0.979 . S
C1744 H1770 0.977 . S
C1745 C1741 1.684 . S
C1745 H1771 0.979 . S
C1745 H1772 0.980 . S
C1745 H1773 0.983 . S
C1746 H1722 0.948 . S
C1746 C1747 1.391 . S
C1746 C1751 1.391 . S
C1747 C1746 1.391 . S
C1747 C1748 1.391 . S
C1748 H1725 0.945 . S
C1748 C1747 1.391 . S
C1748 C1749 1.392 . S
C1749 H1726 0.948 . S
C1749 C1748 1.392 . S
C1749 C1750 1.419 . S
C1750 C1749 1.419 . S
C1750 C1751 1.391 . S
C1750 C1754 1.397 . S
C1751 C1746 1.391 . S
C1751 C1750 1.391 . S
C1751 C1752 1.399 . S
C1752 C1751 1.399 . S
C1752 C1753 1.396 . S
C1752 C1755 1.453 . S
C1752 C1756 1.684 . S
C1753 C1743 1.723 . S
C1753 C1752 1.396 . S
C1753 C1754 1.394 . S
C1754 C1724 1.723 . S
C1754 C1750 1.397 . S
C1754 C1753 1.394 . S
C1755 H1727 0.982 . S
C1755 H1731 0.979 . S
C1755 H1732 0.977 . S
C1755 C1752 1.453 . S
C1756 H1728 0.979 . S
C1756 H1729 0.980 . S
C1756 H1730 0.983 . S
C1756 C1752 1.684 . S
H1757 C1775 0.948 . S
H1758 C1716 0.948 . S
H1759 C1734 0.979 . S
H1760 C1734 0.980 . S
H1761 C1734 0.983 . S
H1762 C1733 0.982 . S
H1763 C1733 0.979 . S
H1764 C1733 0.977 . S
H1765 C1735 0.948 . S
H1766 C1737 0.947 . S
H1767 C1738 0.948 . S
H1768 C1744 0.982 . S
H1769 C1744 0.979 . S
H1770 C1744 0.977 . S
H1771 C1745 0.979 . S
H1772 C1745 0.980 . S
H1773 C1745 0.983 . S
H1774 C1718 0.947 . S
C1775 C1718 1.392 . S
C1775 C1719 1.419 . S
C1775 H1757 0.948 . S
C1776 C1777 1.391 . S
C1776 C1780 1.391 . S
C1776 H1818 0.948 . S
C1777 C1776 1.391 . S
C1777 C1778 1.391 . S
C1778 C1777 1.391 . S
C1778 H1834 0.947 . S
C1778 C1835 1.392 . S
C1779 C1780 1.391 . S
C1779 C1783 1.397 . S
C1779 C1835 1.419 . S
C1780 C1776 1.391 . S
C1780 C1779 1.391 . S
C1780 C1781 1.399 . S
C1781 C1780 1.399 . S
C1781 C1784 1.396 . S
C1781 C1793 1.453 . S
C1781 C1794 1.684 . S
H1782 C1806 0.948 . S
C1783 C1779 1.397 . S
C1783 C1784 1.394 . S
C1783 C1802 1.723 . S
C1784 C1781 1.396 . S
C1784 C1783 1.394 . S
C1784 C1814 1.723 . S
H1785 C1808 0.947 . S
H1786 C1809 0.948 . S
H1787 C1815 0.982 . S
H1788 C1816 0.979 . S
H1789 C1816 0.980 . S
H1790 C1816 0.983 . S
H1791 C1815 0.979 . S
H1792 C1815 0.977 . S
C1793 C1781 1.453 . S
C1793 H1822 0.982 . S
C1793 H1823 0.979 . S
C1793 H1824 0.977 . S
C1794 C1781 1.684 . S
C1794 H1819 0.979 . S
C1794 H1820 0.980 . S
C1794 H1821 0.983 . S
C1795 C1796 1.391 . S
C1795 C1800 1.391 . S
C1795 H1825 0.948 . S
C1796 C1795 1.391 . S
C1796 C1797 1.391 . S
C1797 C1796 1.391 . S
C1797 C1798 1.392 . S
C1797 H1826 0.947 . S
C1798 C1797 1.392 . S
C1798 C1799 1.419 . S
C1798 H1827 0.948 . S
C1799 C1798 1.419 . S
C1799 C1800 1.391 . S
C1799 C1803 1.397 . S
C1800 C1795 1.391 . S
C1800 C1799 1.391 . S
C1800 C1801 1.399 . S
C1801 C1800 1.399 . S
C1801 C1802 1.396 . S
C1801 C1804 1.453 . S
C1801 C1805 1.684 . S
C1802 C1783 1.723 . S
C1802 C1801 1.396 . S
C1802 C1803 1.394 . S
C1803 C1799 1.397 . S
C1803 C1802 1.394 . S
C1803 C1813 1.723 . S
C1804 C1801 1.453 . S
C1804 H1828 0.982 . S
C1804 H1829 0.979 . S
C1804 H1830 0.977 . S
C1805 C1801 1.684 . S
C1805 H1831 0.979 . S
C1805 H1832 0.980 . S
C1805 H1833 0.983 . S
C1806 H1782 0.948 . S
C1806 C1807 1.391 . S
C1806 C1811 1.391 . S
C1807 C1806 1.391 . S
C1807 C1808 1.391 . S
C1808 H1785 0.947 . S
C1808 C1807 1.391 . S
C1808 C1809 1.392 . S
C1809 H1786 0.948 . S
C1809 C1808 1.392 . S
C1809 C1810 1.419 . S
C1810 C1809 1.419 . S
C1810 C1811 1.391 . S
C1810 C1814 1.397 . S
C1811 C1806 1.391 . S
C1811 C1810 1.391 . S
C1811 C1812 1.399 . S
C1812 C1811 1.399 . S
C1812 C1813 1.396 . S
C1812 C1815 1.453 . S
C1812 C1816 1.684 . S
C1813 C1803 1.723 . S
C1813 C1812 1.396 . S
C1813 C1814 1.394 . S
C1814 C1784 1.723 . S
C1814 C1810 1.397 . S
C1814 C1813 1.394 . S
C1815 H1787 0.982 . S
C1815 H1791 0.979 . S
C1815 H1792 0.977 . S
C1815 C1812 1.453 . S
C1816 H1788 0.979 . S
C1816 H1789 0.980 . S
C1816 H1790 0.983 . S
C1816 C1812 1.684 . S
H1817 C1835 0.948 . S
H1818 C1776 0.948 . S
H1819 C1794 0.979 . S
H1820 C1794 0.980 . S
H1821 C1794 0.983 . S
H1822 C1793 0.982 . S
H1823 C1793 0.979 . S
H1824 C1793 0.977 . S
H1825 C1795 0.948 . S
H1826 C1797 0.947 . S
H1827 C1798 0.948 . S
H1828 C1804 0.982 . S
H1829 C1804 0.979 . S
H1830 C1804 0.977 . S
H1831 C1805 0.979 . S
H1832 C1805 0.980 . S
H1833 C1805 0.983 . S
H1834 C1778 0.947 . S
C1835 C1778 1.392 . S
C1835 C1779 1.419 . S
C1835 H1817 0.948 . S
C1836 C1837 1.391 . S
C1836 C1840 1.391 . S
C1836 H1878 0.948 . S
C1837 C1836 1.391 . S
C1837 C1838 1.391 . S
C1838 C1837 1.391 . S
C1838 H1894 0.947 . S
C1838 C1895 1.392 . S
C1839 C1840 1.391 . S
C1839 C1843 1.397 . S
C1839 C1895 1.419 . S
C1840 C1836 1.391 . S
C1840 C1839 1.391 . S
C1840 C1841 1.399 . S
C1841 C1840 1.399 . S
C1841 C1844 1.396 . S
C1841 C1853 1.453 . S
C1841 C1854 1.684 . S
H1842 C1866 0.948 . S
C1843 C1839 1.397 . S
C1843 C1844 1.394 . S
C1843 C1862 1.723 . S
C1844 C1841 1.396 . S
C1844 C1843 1.394 . S
C1844 C1874 1.723 . S
H1845 C1868 0.947 . S
H1846 C1869 0.948 . S
H1847 C1875 0.982 . S
H1848 C1876 0.979 . S
H1849 C1876 0.980 . S
H1850 C1876 0.983 . S
H1851 C1875 0.979 . S
H1852 C1875 0.977 . S
C1853 C1841 1.453 . S
C1853 H1882 0.982 . S
C1853 H1883 0.979 . S
C1853 H1884 0.977 . S
C1854 C1841 1.684 . S
C1854 H1879 0.979 . S
C1854 H1880 0.980 . S
C1854 H1881 0.983 . S
C1855 C1856 1.391 . S
C1855 C1860 1.391 . S
C1855 H1885 0.948 . S
C1856 C1855 1.391 . S
C1856 C1857 1.391 . S
C1857 C1856 1.391 . S
C1857 C1858 1.392 . S
C1857 H1886 0.947 . S
C1858 C1857 1.392 . S
C1858 C1859 1.419 . S
C1858 H1887 0.948 . S
C1859 C1858 1.419 . S
C1859 C1860 1.391 . S
C1859 C1863 1.397 . S
C1860 C1855 1.391 . S
C1860 C1859 1.391 . S
C1860 C1861 1.399 . S
C1861 C1860 1.399 . S
C1861 C1862 1.396 . S
C1861 C1864 1.453 . S
C1861 C1865 1.684 . S
C1862 C1843 1.723 . S
C1862 C1861 1.396 . S
C1862 C1863 1.394 . S
C1863 C1859 1.397 . S
C1863 C1862 1.394 . S
C1863 C1873 1.723 . S
C1864 C1861 1.453 . S
C1864 H1888 0.982 . S
C1864 H1889 0.979 . S
C1864 H1890 0.977 . S
C1865 C1861 1.684 . S
C1865 H1891 0.979 . S
C1865 H1892 0.980 . S
C1865 H1893 0.983 . S
C1866 H1842 0.948 . S
C1866 C1867 1.391 . S
C1866 C1871 1.391 . S
C1867 C1866 1.391 . S
C1867 C1868 1.391 . S
C1868 H1845 0.947 . S
C1868 C1867 1.391 . S
C1868 C1869 1.392 . S
C1869 H1846 0.948 . S
C1869 C1868 1.392 . S
C1869 C1870 1.419 . S
C1870 C1869 1.419 . S
C1870 C1871 1.391 . S
C1870 C1874 1.397 . S
C1871 C1866 1.391 . S
C1871 C1870 1.391 . S
C1871 C1872 1.399 . S
C1872 C1871 1.399 . S
C1872 C1873 1.396 . S
C1872 C1875 1.453 . S
C1872 C1876 1.684 . S
C1873 C1863 1.723 . S
C1873 C1872 1.396 . S
C1873 C1874 1.394 . S
C1874 C1844 1.723 . S
C1874 C1870 1.397 . S
C1874 C1873 1.394 . S
C1875 H1847 0.982 . S
C1875 H1851 0.979 . S
C1875 H1852 0.977 . S
C1875 C1872 1.453 . S
C1876 H1848 0.979 . S
C1876 H1849 0.980 . S
C1876 H1850 0.983 . S
C1876 C1872 1.684 . S
H1877 C1895 0.948 . S
H1878 C1836 0.948 . S
H1879 C1854 0.979 . S
H1880 C1854 0.980 . S
H1881 C1854 0.983 . S
H1882 C1853 0.982 . S
H1883 C1853 0.979 . S
H1884 C1853 0.977 . S
H1885 C1855 0.948 . S
H1886 C1857 0.947 . S
H1887 C1858 0.948 . S
H1888 C1864 0.982 . S
H1889 C1864 0.979 . S
H1890 C1864 0.977 . S
H1891 C1865 0.979 . S
H1892 C1865 0.980 . S
H1893 C1865 0.983 . S
H1894 C1838 0.947 . S
C1895 C1838 1.392 . S
C1895 C1839 1.419 . S
C1895 H1877 0.948 . S
C1896 C1897 1.391 . S
C1896 C1900 1.391 . S
C1896 H1938 0.948 . S
C1897 C1896 1.391 . S
C1897 C1898 1.391 . S
C1898 C1897 1.391 . S
C1898 H1954 0.947 . S
C1898 C1955 1.392 . S
C1899 C1900 1.391 . S
C1899 C1903 1.397 . S
C1899 C1955 1.419 . S
C1900 C1896 1.391 . S
C1900 C1899 1.391 . S
C1900 C1901 1.399 . S
C1901 C1900 1.399 . S
C1901 C1904 1.396 . S
C1901 C1913 1.453 . S
C1901 C1914 1.684 . S
H1902 C1926 0.948 . S
C1903 C1899 1.397 . S
C1903 C1904 1.394 . S
C1903 C1922 1.723 . S
C1904 C1901 1.396 . S
C1904 C1903 1.394 . S
C1904 C1934 1.723 . S
H1905 C1928 0.947 . S
H1906 C1929 0.948 . S
H1907 C1935 0.982 . S
H1908 C1936 0.979 . S
H1909 C1936 0.980 . S
H1910 C1936 0.983 . S
H1911 C1935 0.979 . S
H1912 C1935 0.977 . S
C1913 C1901 1.453 . S
C1913 H1942 0.982 . S
C1913 H1943 0.979 . S
C1913 H1944 0.977 . S
C1914 C1901 1.684 . S
C1914 H1939 0.979 . S
C1914 H1940 0.980 . S
C1914 H1941 0.983 . S
C1915 C1916 1.391 . S
C1915 C1920 1.391 . S
C1915 H1945 0.948 . S
C1916 C1915 1.391 . S
C1916 C1917 1.391 . S
C1917 C1916 1.391 . S
C1917 C1918 1.392 . S
C1917 H1946 0.947 . S
C1918 C1917 1.392 . S
C1918 C1919 1.419 . S
C1918 H1947 0.948 . S
C1919 C1918 1.419 . S
C1919 C1920 1.391 . S
C1919 C1923 1.397 . S
C1920 C1915 1.391 . S
C1920 C1919 1.391 . S
C1920 C1921 1.399 . S
C1921 C1920 1.399 . S
C1921 C1922 1.396 . S
C1921 C1924 1.453 . S
C1921 C1925 1.684 . S
C1922 C1903 1.723 . S
C1922 C1921 1.396 . S
C1922 C1923 1.394 . S
C1923 C1919 1.397 . S
C1923 C1922 1.394 . S
C1923 C1933 1.723 . S
C1924 C1921 1.453 . S
C1924 H1948 0.982 . S
C1924 H1949 0.979 . S
C1924 H1950 0.977 . S
C1925 C1921 1.684 . S
C1925 H1951 0.979 . S
C1925 H1952 0.980 . S
C1925 H1953 0.983 . S
C1926 H1902 0.948 . S
C1926 C1927 1.391 . S
C1926 C1931 1.391 . S
C1927 C1926 1.391 . S
C1927 C1928 1.391 . S
C1928 H1905 0.947 . S
C1928 C1927 1.391 . S
C1928 C1929 1.392 . S
C1929 H1906 0.948 . S
C1929 C1928 1.392 . S
C1929 C1930 1.419 . S
C1930 C1929 1.419 . S
C1930 C1931 1.391 . S
C1930 C1934 1.397 . S
C1931 C1926 1.391 . S
C1931 C1930 1.391 . S
C1931 C1932 1.399 . S
C1932 C1931 1.399 . S
C1932 C1933 1.396 . S
C1932 C1935 1.453 . S
C1932 C1936 1.684 . S
C1933 C1923 1.723 . S
C1933 C1932 1.396 . S
C1933 C1934 1.394 . S
C1934 C1904 1.723 . S
C1934 C1930 1.397 . S
C1934 C1933 1.394 . S
C1935 H1907 0.982 . S
C1935 H1911 0.979 . S
C1935 H1912 0.977 . S
C1935 C1932 1.453 . S
C1936 H1908 0.979 . S
C1936 H1909 0.980 . S
C1936 H1910 0.983 . S
C1936 C1932 1.684 . S
H1937 C1955 0.948 . S
H1938 C1896 0.948 . S
H1939 C1914 0.979 . S
H1940 C1914 0.980 . S
H1941 C1914 0.983 . S
H1942 C1913 0.982 . S
H1943 C1913 0.979 . S
H1944 C1913 0.977 . S
H1945 C1915 0.948 . S
H1946 C1917 0.947 . S
H1947 C1918 0.948 . S
H1948 C1924 0.982 . S
H1949 C1924 0.979 . S
H1950 C1924 0.977 . S
H1951 C1925 0.979 . S
H1952 C1925 0.980 . S
H1953 C1925 0.983 . S
H1954 C1898 0.947 . S
C1955 C1898 1.392 . S
C1955 C1899 1.419 . S
C1955 H1937 0.948 . S
C1956 C1957 1.391 . S
C1956 C1960 1.391 . S
C1956 H1998 0.948 . S
C1957 C1956 1.391 . S
C1957 C1958 1.391 . S
C1958 C1957 1.391 . S
C1958 H2014 0.947 . S
C1958 C2015 1.392 . S
C1959 C1960 1.391 . S
C1959 C1963 1.397 . S
C1959 C2015 1.419 . S
C1960 C1956 1.391 . S
C1960 C1959 1.391 . S
C1960 C1961 1.399 . S
C1961 C1960 1.399 . S
C1961 C1964 1.396 . S
C1961 C1973 1.453 . S
C1961 C1974 1.684 . S
H1962 C1986 0.948 . S
C1963 C1959 1.397 . S
C1963 C1964 1.394 . S
C1963 C1982 1.723 . S
C1964 C1961 1.396 . S
C1964 C1963 1.394 . S
C1964 C1994 1.723 . S
H1965 C1988 0.947 . S
H1966 C1989 0.948 . S
H1967 C1995 0.982 . S
H1968 C1996 0.979 . S
H1969 C1996 0.980 . S
H1970 C1996 0.983 . S
H1971 C1995 0.979 . S
H1972 C1995 0.977 . S
C1973 C1961 1.453 . S
C1973 H2002 0.982 . S
C1973 H2003 0.979 . S
C1973 H2004 0.977 . S
C1974 C1961 1.684 . S
C1974 H1999 0.979 . S
C1974 H2000 0.980 . S
C1974 H2001 0.983 . S
C1975 C1976 1.391 . S
C1975 C1980 1.391 . S
C1975 H2005 0.948 . S
C1976 C1975 1.391 . S
C1976 C1977 1.391 . S
C1977 C1976 1.391 . S
C1977 C1978 1.392 . S
C1977 H2006 0.947 . S
C1978 C1977 1.392 . S
C1978 C1979 1.419 . S
C1978 H2007 0.948 . S
C1979 C1978 1.419 . S
C1979 C1980 1.391 . S
C1979 C1983 1.397 . S
C1980 C1975 1.391 . S
C1980 C1979 1.391 . S
C1980 C1981 1.399 . S
C1981 C1980 1.399 . S
C1981 C1982 1.396 . S
C1981 C1984 1.453 . S
C1981 C1985 1.684 . S
C1982 C1963 1.723 . S
C1982 C1981 1.396 . S
C1982 C1983 1.394 . S
C1983 C1979 1.397 . S
C1983 C1982 1.394 . S
C1983 C1993 1.723 . S
C1984 C1981 1.453 . S
C1984 H2008 0.982 . S
C1984 H2009 0.979 . S
C1984 H2010 0.977 . S
C1985 C1981 1.684 . S
C1985 H2011 0.979 . S
C1985 H2012 0.980 . S
C1985 H2013 0.983 . S
C1986 H1962 0.948 . S
C1986 C1987 1.391 . S
C1986 C1991 1.391 . S
C1987 C1986 1.391 . S
C1987 C1988 1.391 . S
C1988 H1965 0.947 . S
C1988 C1987 1.391 . S
C1988 C1989 1.392 . S
C1989 H1966 0.948 . S
C1989 C1988 1.392 . S
C1989 C1990 1.419 . S
C1990 C1989 1.419 . S
C1990 C1991 1.391 . S
C1990 C1994 1.397 . S
C1991 C1986 1.391 . S
C1991 C1990 1.391 . S
C1991 C1992 1.399 . S
C1992 C1991 1.399 . S
C1992 C1993 1.396 . S
C1992 C1995 1.453 . S
C1992 C1996 1.684 . S
C1993 C1983 1.723 . S
C1993 C1992 1.396 . S
C1993 C1994 1.394 . S
C1994 C1964 1.723 . S
C1994 C1990 1.397 . S
C1994 C1993 1.394 . S
C1995 H1967 0.982 . S
C1995 H1971 0.979 . S
C1995 H1972 0.977 . S
C1995 C1992 1.453 . S
C1996 H1968 0.979 . S
C1996 H1969 0.980 . S
C1996 H1970 0.983 . S
C1996 C1992 1.684 . S
H1997 C2015 0.948 . S
H1998 C1956 0.948 . S
H1999 C1974 0.979 . S
H2000 C1974 0.980 . S
H2001 C1974 0.983 . S
H2002 C1973 0.982 . S
H2003 C1973 0.979 . S
H2004 C1973 0.977 . S
H2005 C1975 0.948 . S
H2006 C1977 0.947 . S
H2007 C1978 0.948 . S
H2008 C1984 0.982 . S
H2009 C1984 0.979 . S
H2010 C1984 0.977 . S
H2011 C1985 0.979 . S
H2012 C1985 0.980 . S
H2013 C1985 0.983 . S
H2014 C1958 0.947 . S
C2015 C1958 1.392 . S
C2015 C1959 1.419 . S
C2015 H1997 0.948 . S
C2016 C2017 1.391 . S
C2016 C2020 1.391 . S
C2016 H2058 0.948 . S
C2017 C2016 1.391 . S
C2017 C2018 1.391 . S
C2018 C2017 1.391 . S
C2018 H2074 0.947 . S
C2018 C2075 1.392 . S
C2019 C2020 1.391 . S
C2019 C2023 1.397 . S
C2019 C2075 1.419 . S
C2020 C2016 1.391 . S
C2020 C2019 1.391 . S
C2020 C2021 1.399 . S
C2021 C2020 1.399 . S
C2021 C2024 1.396 . S
C2021 C2033 1.453 . S
C2021 C2034 1.684 . S
H2022 C2046 0.948 . S
C2023 C2019 1.397 . S
C2023 C2024 1.394 . S
C2023 C2042 1.723 . S
C2024 C2021 1.396 . S
C2024 C2023 1.394 . S
C2024 C2054 1.723 . S
H2025 C2048 0.947 . S
H2026 C2049 0.948 . S
H2027 C2055 0.982 . S
H2028 C2056 0.979 . S
H2029 C2056 0.980 . S
H2030 C2056 0.983 . S
H2031 C2055 0.979 . S
H2032 C2055 0.977 . S
C2033 C2021 1.453 . S
C2033 H2062 0.982 . S
C2033 H2063 0.979 . S
C2033 H2064 0.977 . S
C2034 C2021 1.684 . S
C2034 H2059 0.979 . S
C2034 H2060 0.980 . S
C2034 H2061 0.983 . S
C2035 C2036 1.391 . S
C2035 C2040 1.391 . S
C2035 H2065 0.948 . S
C2036 C2035 1.391 . S
C2036 C2037 1.391 . S
C2037 C2036 1.391 . S
C2037 C2038 1.392 . S
C2037 H2066 0.947 . S
C2038 C2037 1.392 . S
C2038 C2039 1.419 . S
C2038 H2067 0.948 . S
C2039 C2038 1.419 . S
C2039 C2040 1.391 . S
C2039 C2043 1.397 . S
C2040 C2035 1.391 . S
C2040 C2039 1.391 . S
C2040 C2041 1.399 . S
C2041 C2040 1.399 . S
C2041 C2042 1.396 . S
C2041 C2044 1.453 . S
C2041 C2045 1.684 . S
C2042 C2023 1.723 . S
C2042 C2041 1.396 . S
C2042 C2043 1.394 . S
C2043 C2039 1.397 . S
C2043 C2042 1.394 . S
C2043 C2053 1.723 . S
C2044 C2041 1.453 . S
C2044 H2068 0.982 . S
C2044 H2069 0.979 . S
C2044 H2070 0.977 . S
C2045 C2041 1.684 . S
C2045 H2071 0.979 . S
C2045 H2072 0.980 . S
C2045 H2073 0.983 . S
C2046 H2022 0.948 . S
C2046 C2047 1.391 . S
C2046 C2051 1.391 . S
C2047 C2046 1.391 . S
C2047 C2048 1.391 . S
C2048 H2025 0.947 . S
C2048 C2047 1.391 . S
C2048 C2049 1.392 . S
C2049 H2026 0.948 . S
C2049 C2048 1.392 . S
C2049 C2050 1.419 . S
C2050 C2049 1.419 . S
C2050 C2051 1.391 . S
C2050 C2054 1.397 . S
C2051 C2046 1.391 . S
C2051 C2050 1.391 . S
C2051 C2052 1.399 . S
C2052 C2051 1.399 . S
C2052 C2053 1.396 . S
C2052 C2055 1.453 . S
C2052 C2056 1.684 . S
C2053 C2043 1.723 . S
C2053 C2052 1.396 . S
C2053 C2054 1.394 . S
C2054 C2024 1.723 . S
C2054 C2050 1.397 . S
C2054 C2053 1.394 . S
C2055 H2027 0.982 . S
C2055 H2031 0.979 . S
C2055 H2032 0.977 . S
C2055 C2052 1.453 . S
C2056 H2028 0.979 . S
C2056 H2029 0.980 . S
C2056 H2030 0.983 . S
C2056 C2052 1.684 . S
H2057 C2075 0.948 . S
H2058 C2016 0.948 . S
H2059 C2034 0.979 . S
H2060 C2034 0.980 . S
H2061 C2034 0.983 . S
H2062 C2033 0.982 . S
H2063 C2033 0.979 . S
H2064 C2033 0.977 . S
H2065 C2035 0.948 . S
H2066 C2037 0.947 . S
H2067 C2038 0.948 . S
H2068 C2044 0.982 . S
H2069 C2044 0.979 . S
H2070 C2044 0.977 . S
H2071 C2045 0.979 . S
H2072 C2045 0.980 . S
H2073 C2045 0.983 . S
H2074 C2018 0.947 . S
C2075 C2018 1.392 . S
C2075 C2019 1.419 . S
C2075 H2057 0.948 . S
C2076 C2077 1.391 . S
C2076 C2080 1.391 . S
C2076 H2118 0.948 . S
C2077 C2076 1.391 . S
C2077 C2078 1.391 . S
C2078 C2077 1.391 . S
C2078 H2134 0.947 . S
C2078 C2135 1.392 . S
C2079 C2080 1.391 . S
C2079 C2083 1.397 . S
C2079 C2135 1.419 . S
C2080 C2076 1.391 . S
C2080 C2079 1.391 . S
C2080 C2081 1.399 . S
C2081 C2080 1.399 . S
C2081 C2084 1.396 . S
C2081 C2093 1.453 . S
C2081 C2094 1.684 . S
H2082 C2106 0.948 . S
C2083 C2079 1.397 . S
C2083 C2084 1.394 . S
C2083 C2102 1.723 . S
C2084 C2081 1.396 . S
C2084 C2083 1.394 . S
C2084 C2114 1.723 . S
H2085 C2108 0.947 . S
H2086 C2109 0.948 . S
H2087 C2115 0.982 . S
H2088 C2116 0.979 . S
H2089 C2116 0.980 . S
H2090 C2116 0.983 . S
H2091 C2115 0.979 . S
H2092 C2115 0.977 . S
C2093 C2081 1.453 . S
C2093 H2122 0.982 . S
C2093 H2123 0.979 . S
C2093 H2124 0.977 . S
C2094 C2081 1.684 . S
C2094 H2119 0.979 . S
C2094 H2120 0.980 . S
C2094 H2121 0.983 . S
C2095 C2096 1.391 . S
C2095 C2100 1.391 . S
C2095 H2125 0.948 . S
C2096 C2095 1.391 . S
C2096 C2097 1.391 . S
C2097 C2096 1.391 . S
C2097 C2098 1.392 . S
C2097 H2126 0.947 . S
C2098 C2097 1.392 . S
C2098 C2099 1.419 . S
C2098 H2127 0.948 . S
C2099 C2098 1.419 . S
C2099 C2100 1.391 . S
C2099 C2103 1.397 . S
C2100 C2095 1.391 . S
C2100 C2099 1.391 . S
C2100 C2101 1.399 . S
C2101 C2100 1.399 . S
C2101 C2102 1.396 . S
C2101 C2104 1.453 . S
C2101 C2105 1.684 . S
C2102 C2083 1.723 . S
C2102 C2101 1.396 . S
C2102 C2103 1.394 . S
C2103 C2099 1.397 . S
C2103 C2102 1.394 . S
C2103 C2113 1.723 . S
C2104 C2101 1.453 . S
C2104 H2128 0.982 . S
C2104 H2129 0.979 . S
C2104 H2130 0.977 . S
C2105 C2101 1.684 . S
C2105 H2131 0.979 . S
C2105 H2132 0.980 . S
C2105 H2133 0.983 . S
C2106 H2082 0.948 . S
C2106 C2107 1.391 . S
C2106 C2111 1.391 . S
C2107 C2106 1.391 . S
C2107 C2108 1.391 . S
C2108 H2085 0.947 . S
C2108 C2107 1.391 . S
C2108 C2109 1.392 . S
C2109 H2086 0.948 . S
C2109 C2108 1.392 . S
C2109 C2110 1.419 . S
C2110 C2109 1.419 . S
C2110 C2111 1.391 . S
C2110 C2114 1.397 . S
C2111 C2106 1.391 . S
C2111 C2110 1.391 . S
C2111 C2112 1.399 . S
C2112 C2111 1.399 . S
C2112 C2113 1.396 . S
C2112 C2115 1.453 . S
C2112 C2116 1.684 . S
C2113 C2103 1.723 . S
C2113 C2112 1.396 . S
C2113 C2114 1.394 . S
C2114 C2084 1.723 . S
C2114 C2110 1.397 . S
C2114 C2113 1.394 . S
C2115 H2087 0.982 . S
C2115 H2091 0.979 . S
C2115 H2092 0.977 . S
C2115 C2112 1.453 . S
C2116 H2088 0.979 . S
C2116 H2089 0.980 . S
C2116 H2090 0.983 . S
C2116 C2112 1.684 . S
H2117 C2135 0.948 . S
H2118 C2076 0.948 . S
H2119 C2094 0.979 . S
H2120 C2094 0.980 . S
H2121 C2094 0.983 . S
H2122 C2093 0.982 . S
H2123 C2093 0.979 . S
H2124 C2093 0.977 . S
H2125 C2095 0.948 . S
H2126 C2097 0.947 . S
H2127 C2098 0.948 . S
H2128 C2104 0.982 . S
H2129 C2104 0.979 . S
H2130 C2104 0.977 . S
H2131 C2105 0.979 . S
H2132 C2105 0.980 . S
H2133 C2105 0.983 . S
H2134 C2078 0.947 . S
C2135 C2078 1.392 . S
C2135 C2079 1.419 . S
C2135 H2117 0.948 . S
C2136 C2137 1.391 . S
C2136 C2140 1.391 . S
C2136 H2178 0.948 . S
C2137 C2136 1.391 . S
C2137 C2138 1.391 . S
C2138 C2137 1.391 . S
C2138 H2194 0.947 . S
C2138 C2195 1.392 . S
C2139 C2140 1.391 . S
C2139 C2143 1.397 . S
C2139 C2195 1.419 . S
C2140 C2136 1.391 . S
C2140 C2139 1.391 . S
C2140 C2141 1.399 . S
C2141 C2140 1.399 . S
C2141 C2144 1.396 . S
C2141 C2153 1.453 . S
C2141 C2154 1.684 . S
H2142 C2166 0.948 . S
C2143 C2139 1.397 . S
C2143 C2144 1.394 . S
C2143 C2162 1.723 . S
C2144 C2141 1.396 . S
C2144 C2143 1.394 . S
C2144 C2174 1.723 . S
H2145 C2168 0.947 . S
H2146 C2169 0.948 . S
H2147 C2175 0.982 . S
H2148 C2176 0.979 . S
H2149 C2176 0.980 . S
H2150 C2176 0.983 . S
H2151 C2175 0.979 . S
H2152 C2175 0.977 . S
C2153 C2141 1.453 . S
C2153 H2182 0.982 . S
C2153 H2183 0.979 . S
C2153 H2184 0.977 . S
C2154 C2141 1.684 . S
C2154 H2179 0.979 . S
C2154 H2180 0.980 . S
C2154 H2181 0.983 . S
C2155 C2156 1.391 . S
C2155 C2160 1.391 . S
C2155 H2185 0.948 . S
C2156 C2155 1.391 . S
C2156 C2157 1.391 . S
C2157 C2156 1.391 . S
C2157 C2158 1.392 . S
C2157 H2186 0.947 . S
C2158 C2157 1.392 . S
C2158 C2159 1.419 . S
C2158 H2187 0.948 . S
C2159 C2158 1.419 . S
C2159 C2160 1.391 . S
C2159 C2163 1.397 . S
C2160 C2155 1.391 . S
C2160 C2159 1.391 . S
C2160 C2161 1.399 . S
C2161 C2160 1.399 . S
C2161 C2162 1.396 . S
C2161 C2164 1.453 . S
C2161 C2165 1.684 . S
C2162 C2143 1.723 . S
C2162 C2161 1.396 . S
C2162 C2163 1.394 . S
C2163 C2159 1.397 . S
C2163 C2162 1.394 . S
C2163 C2173 1.723 . S
C2164 C2161 1.453 . S
C2164 H2188 0.982 . S
C2164 H2189 0.979 . S
C2164 H2190 0.977 . S
C2165 C2161 1.684 . S
C2165 H2191 0.979 . S
C2165 H2192 0.980 . S
C2165 H2193 0.983 . S
C2166 H2142 0.948 . S
C2166 C2167 1.391 . S
C2166 C2171 1.391 . S
C2167 C2166 1.391 . S
C2167 C2168 1.391 . S
C2168 H2145 0.947 . S
C2168 C2167 1.391 . S
C2168 C2169 1.392 . S
C2169 H2146 0.948 . S
C2169 C2168 1.392 . S
C2169 C2170 1.419 . S
C2170 C2169 1.419 . S
C2170 C2171 1.391 . S
C2170 C2174 1.397 . S
C2171 C2166 1.391 . S
C2171 C2170 1.391 . S
C2171 C2172 1.399 . S
C2172 C2171 1.399 . S
C2172 C2173 1.396 . S
C2172 C2175 1.453 . S
C2172 C2176 1.684 . S
C2173 C2163 1.723 . S
C2173 C2172 1.396 . S
C2173 C2174 1.394 . S
C2174 C2144 1.723 . S
C2174 C2170 1.397 . S
C2174 C2173 1.394 . S
C2175 H2147 0.982 . S
C2175 H2151 0.979 . S
C2175 H2152 0.977 . S
C2175 C2172 1.453 . S
C2176 H2148 0.979 . S
C2176 H2149 0.980 . S
C2176 H2150 0.983 . S
C2176 C2172 1.684 . S
H2177 C2195 0.948 . S
H2178 C2136 0.948 . S
H2179 C2154 0.979 . S
H2180 C2154 0.980 . S
H2181 C2154 0.983 . S
H2182 C2153 0.982 . S
H2183 C2153 0.979 . S
H2184 C2153 0.977 . S
H2185 C2155 0.948 . S
H2186 C2157 0.947 . S
H2187 C2158 0.948 . S
H2188 C2164 0.982 . S
H2189 C2164 0.979 . S
H2190 C2164 0.977 . S
H2191 C2165 0.979 . S
H2192 C2165 0.980 . S
H2193 C2165 0.983 . S
H2194 C2138 0.947 . S
C2195 C2138 1.392 . S
C2195 C2139 1.419 . S
C2195 H2177 0.948 . S
C2196 C2197 1.391 . S
C2196 C2200 1.391 . S
C2196 H2238 0.948 . S
C2197 C2196 1.391 . S
C2197 C2198 1.391 . S
C2198 C2197 1.391 . S
C2198 H2254 0.947 . S
C2198 C2255 1.392 . S
C2199 C2200 1.391 . S
C2199 C2203 1.397 . S
C2199 C2255 1.419 . S
C2200 C2196 1.391 . S
C2200 C2199 1.391 . S
C2200 C2201 1.399 . S
C2201 C2200 1.399 . S
C2201 C2204 1.396 . S
C2201 C2213 1.453 . S
C2201 C2214 1.684 . S
H2202 C2226 0.948 . S
C2203 C2199 1.397 . S
C2203 C2204 1.394 . S
C2203 C2222 1.723 . S
C2204 C2201 1.396 . S
C2204 C2203 1.394 . S
C2204 C2234 1.723 . S
H2205 C2228 0.947 . S
H2206 C2229 0.948 . S
H2207 C2235 0.982 . S
H2208 C2236 0.979 . S
H2209 C2236 0.980 . S
H2210 C2236 0.983 . S
H2211 C2235 0.979 . S
H2212 C2235 0.977 . S
C2213 C2201 1.453 . S
C2213 H2242 0.982 . S
C2213 H2243 0.979 . S
C2213 H2244 0.977 . S
C2214 C2201 1.684 . S
C2214 H2239 0.979 . S
C2214 H2240 0.980 . S
C2214 H2241 0.983 . S
C2215 C2216 1.391 . S
C2215 C2220 1.391 . S
C2215 H2245 0.948 . S
C2216 C2215 1.391 . S
C2216 C2217 1.391 . S
C2217 C2216 1.391 . S
C2217 C2218 1.392 . S
C2217 H2246 0.947 . S
C2218 C2217 1.392 . S
C2218 C2219 1.419 . S
C2218 H2247 0.948 . S
C2219 C2218 1.419 . S
C2219 C2220 1.391 . S
C2219 C2223 1.397 . S
C2220 C2215 1.391 . S
C2220 C2219 1.391 . S
C2220 C2221 1.399 . S
C2221 C2220 1.399 . S
C2221 C2222 1.396 . S
C2221 C2224 1.453 . S
C2221 C2225 1.684 . S
C2222 C2203 1.723 . S
C2222 C2221 1.396 . S
C2222 C2223 1.394 . S
C2223 C2219 1.397 . S
C2223 C2222 1.394 . S
C2223 C2233 1.723 . S
C2224 C2221 1.453 . S
C2224 H2248 0.982 . S
C2224 H2249 0.979 . S
C2224 H2250 0.977 . S
C2225 C2221 1.684 . S
C2225 H2251 0.979 . S
C2225 H2252 0.980 . S
C2225 H2253 0.983 . S
C2226 H2202 0.948 . S
C2226 C2227 1.391 . S
C2226 C2231 1.391 . S
C2227 C2226 1.391 . S
C2227 C2228 1.391 . S
C2228 H2205 0.947 . S
C2228 C2227 1.391 . S
C2228 C2229 1.392 . S
C2229 H2206 0.948 . S
C2229 C2228 1.392 . S
C2229 C2230 1.419 . S
C2230 C2229 1.419 . S
C2230 C2231 1.391 . S
C2230 C2234 1.397 . S
C2231 C2226 1.391 . S
C2231 C2230 1.391 . S
C2231 C2232 1.399 . S
C2232 C2231 1.399 . S
C2232 C2233 1.396 . S
C2232 C2235 1.453 . S
C2232 C2236 1.684 . S
C2233 C2223 1.723 . S
C2233 C2232 1.396 . S
C2233 C2234 1.394 . S
C2234 C2204 1.723 . S
C2234 C2230 1.397 . S
C2234 C2233 1.394 . S
C2235 H2207 0.982 . S
C2235 H2211 0.979 . S
C2235 H2212 0.977 . S
C2235 C2232 1.453 . S
C2236 H2208 0.979 . S
C2236 H2209 0.980 . S
C2236 H2210 0.983 . S
C2236 C2232 1.684 . S
H2237 C2255 0.948 . S
H2238 C2196 0.948 . S
H2239 C2214 0.979 . S
H2240 C2214 0.980 . S
H2241 C2214 0.983 . S
H2242 C2213 0.982 . S
H2243 C2213 0.979 . S
H2244 C2213 0.977 . S
H2245 C2215 0.948 . S
H2246 C2217 0.947 . S
H2247 C2218 0.948 . S
H2248 C2224 0.982 . S
H2249 C2224 0.979 . S
H2250 C2224 0.977 . S
H2251 C2225 0.979 . S
H2252 C2225 0.980 . S
H2253 C2225 0.983 . S
H2254 C2198 0.947 . S
C2255 C2198 1.392 . S
C2255 C2199 1.419 . S
C2255 H2237 0.948 . S
C2256 C2257 1.391 . S
C2256 C2260 1.391 . S
C2256 H2298 0.948 . S
C2257 C2256 1.391 . S
C2257 C2258 1.391 . S
C2258 C2257 1.391 . S
C2258 H2314 0.947 . S
C2258 C2315 1.392 . S
C2259 C2260 1.391 . S
C2259 C2263 1.397 . S
C2259 C2315 1.419 . S
C2260 C2256 1.391 . S
C2260 C2259 1.391 . S
C2260 C2261 1.399 . S
C2261 C2260 1.399 . S
C2261 C2264 1.396 . S
C2261 C2273 1.453 . S
C2261 C2274 1.684 . S
H2262 C2286 0.948 . S
C2263 C2259 1.397 . S
C2263 C2264 1.394 . S
C2263 C2282 1.723 . S
C2264 C2261 1.396 . S
C2264 C2263 1.394 . S
C2264 C2294 1.723 . S
H2265 C2288 0.945 . S
H2266 C2289 0.948 . S
H2267 C2295 0.982 . S
H2268 C2296 0.979 . S
H2269 C2296 0.980 . S
H2270 C2296 0.983 . S
H2271 C2295 0.979 . S
H2272 C2295 0.977 . S
C2273 C2261 1.453 . S
C2273 H2302 0.982 . S
C2273 H2303 0.979 . S
C2273 H2304 0.977 . S
C2274 C2261 1.684 . S
C2274 H2299 0.979 . S
C2274 H2300 0.980 . S
C2274 H2301 0.983 . S
C2275 C2276 1.391 . S
C2275 C2280 1.391 . S
C2275 H2305 0.948 . S
C2276 C2275 1.391 . S
C2276 C2277 1.391 . S
C2277 C2276 1.391 . S
C2277 C2278 1.392 . S
C2277 H2306 0.947 . S
C2278 C2277 1.392 . S
C2278 C2279 1.419 . S
C2278 H2307 0.948 . S
C2279 C2278 1.419 . S
C2279 C2280 1.391 . S
C2279 C2283 1.397 . S
C2280 C2275 1.391 . S
C2280 C2279 1.391 . S
C2280 C2281 1.399 . S
C2281 C2280 1.399 . S
C2281 C2282 1.396 . S
C2281 C2284 1.453 . S
C2281 C2285 1.684 . S
C2282 C2263 1.723 . S
C2282 C2281 1.396 . S
C2282 C2283 1.394 . S
C2283 C2279 1.397 . S
C2283 C2282 1.394 . S
C2283 C2293 1.723 . S
C2284 C2281 1.453 . S
C2284 H2308 0.982 . S
C2284 H2309 0.979 . S
C2284 H2310 0.977 . S
C2285 C2281 1.684 . S
C2285 H2311 0.979 . S
C2285 H2312 0.980 . S
C2285 H2313 0.983 . S
C2286 H2262 0.948 . S
C2286 C2287 1.391 . S
C2286 C2291 1.391 . S
C2287 C2286 1.391 . S
C2287 C2288 1.391 . S
C2288 H2265 0.945 . S
C2288 C2287 1.391 . S
C2288 C2289 1.392 . S
C2289 H2266 0.948 . S
C2289 C2288 1.392 . S
C2289 C2290 1.419 . S
C2290 C2289 1.419 . S
C2290 C2291 1.391 . S
C2290 C2294 1.397 . S
C2291 C2286 1.391 . S
C2291 C2290 1.391 . S
C2291 C2292 1.399 . S
C2292 C2291 1.399 . S
C2292 C2293 1.396 . S
C2292 C2295 1.453 . S
C2292 C2296 1.684 . S
C2293 C2283 1.723 . S
C2293 C2292 1.396 . S
C2293 C2294 1.394 . S
C2294 C2264 1.723 . S
C2294 C2290 1.397 . S
C2294 C2293 1.394 . S
C2295 H2267 0.982 . S
C2295 H2271 0.979 . S
C2295 H2272 0.977 . S
C2295 C2292 1.453 . S
C2296 H2268 0.979 . S
C2296 H2269 0.980 . S
C2296 H2270 0.983 . S
C2296 C2292 1.684 . S
H2297 C2315 0.948 . S
H2298 C2256 0.948 . S
H2299 C2274 0.979 . S
H2300 C2274 0.980 . S
H2301 C2274 0.983 . S
H2302 C2273 0.982 . S
H2303 C2273 0.979 . S
H2304 C2273 0.977 . S
H2305 C2275 0.948 . S
H2306 C2277 0.947 . S
H2307 C2278 0.948 . S
H2308 C2284 0.982 . S
H2309 C2284 0.979 . S
H2310 C2284 0.977 . S
H2311 C2285 0.979 . S
H2312 C2285 0.980 . S
H2313 C2285 0.983 . S
H2314 C2258 0.947 . S
C2315 C2258 1.392 . S
C2315 C2259 1.419 . S
C2315 H2297 0.948 . S
C2316 C2317 1.391 . S
C2316 C2320 1.391 . S
C2316 H2358 0.948 . S
C2317 C2316 1.391 . S
C2317 C2318 1.391 . S
C2318 C2317 1.391 . S
C2318 H2374 0.947 . S
C2318 C2375 1.392 . S
C2319 C2320 1.391 . S
C2319 C2323 1.397 . S
C2319 C2375 1.419 . S
C2320 C2316 1.391 . S
C2320 C2319 1.391 . S
C2320 C2321 1.399 . S
C2321 C2320 1.399 . S
C2321 C2324 1.396 . S
C2321 C2333 1.453 . S
C2321 C2334 1.684 . S
H2322 C2346 0.948 . S
C2323 C2319 1.397 . S
C2323 C2324 1.394 . S
C2323 C2342 1.723 . S
C2324 C2321 1.396 . S
C2324 C2323 1.394 . S
C2324 C2354 1.723 . S
H2325 C2348 0.947 . S
H2326 C2349 0.948 . S
H2327 C2355 0.982 . S
H2328 C2356 0.979 . S
H2329 C2356 0.980 . S
H2330 C2356 0.983 . S
H2331 C2355 0.979 . S
H2332 C2355 0.977 . S
C2333 C2321 1.453 . S
C2333 H2362 0.982 . S
C2333 H2363 0.979 . S
C2333 H2364 0.977 . S
C2334 C2321 1.684 . S
C2334 H2359 0.979 . S
C2334 H2360 0.980 . S
C2334 H2361 0.983 . S
C2335 C2336 1.391 . S
C2335 C2340 1.391 . S
C2335 H2365 0.948 . S
C2336 C2335 1.391 . S
C2336 C2337 1.391 . S
C2337 C2336 1.391 . S
C2337 C2338 1.392 . S
C2337 H2366 0.947 . S
C2338 C2337 1.392 . S
C2338 C2339 1.419 . S
C2338 H2367 0.948 . S
C2339 C2338 1.419 . S
C2339 C2340 1.391 . S
C2339 C2343 1.397 . S
C2340 C2335 1.391 . S
C2340 C2339 1.391 . S
C2340 C2341 1.399 . S
C2341 C2340 1.399 . S
C2341 C2342 1.396 . S
C2341 C2344 1.453 . S
C2341 C2345 1.684 . S
C2342 C2323 1.723 . S
C2342 C2341 1.396 . S
C2342 C2343 1.394 . S
C2343 C2339 1.397 . S
C2343 C2342 1.394 . S
C2343 C2353 1.723 . S
C2344 C2341 1.453 . S
C2344 H2368 0.982 . S
C2344 H2369 0.979 . S
C2344 H2370 0.977 . S
C2345 C2341 1.684 . S
C2345 H2371 0.979 . S
C2345 H2372 0.980 . S
C2345 H2373 0.983 . S
C2346 H2322 0.948 . S
C2346 C2347 1.391 . S
C2346 C2351 1.391 . S
C2347 C2346 1.391 . S
C2347 C2348 1.391 . S
C2348 H2325 0.947 . S
C2348 C2347 1.391 . S
C2348 C2349 1.392 . S
C2349 H2326 0.948 . S
C2349 C2348 1.392 . S
C2349 C2350 1.419 . S
C2350 C2349 1.419 . S
C2350 C2351 1.391 . S
C2350 C2354 1.397 . S
C2351 C2346 1.391 . S
C2351 C2350 1.391 . S
C2351 C2352 1.399 . S
C2352 C2351 1.399 . S
C2352 C2353 1.396 . S
C2352 C2355 1.453 . S
C2352 C2356 1.684 . S
C2353 C2343 1.723 . S
C2353 C2352 1.396 . S
C2353 C2354 1.394 . S
C2354 C2324 1.723 . S
C2354 C2350 1.397 . S
C2354 C2353 1.394 . S
C2355 H2327 0.982 . S
C2355 H2331 0.979 . S
C2355 H2332 0.977 . S
C2355 C2352 1.453 . S
C2356 H2328 0.979 . S
C2356 H2329 0.980 . S
C2356 H2330 0.983 . S
C2356 C2352 1.684 . S
H2357 C2375 0.948 . S
H2358 C2316 0.948 . S
H2359 C2334 0.979 . S
H2360 C2334 0.980 . S
H2361 C2334 0.983 . S
H2362 C2333 0.982 . S
H2363 C2333 0.979 . S
H2364 C2333 0.977 . S
H2365 C2335 0.948 . S
H2366 C2337 0.947 . S
H2367 C2338 0.948 . S
H2368 C2344 0.982 . S
H2369 C2344 0.979 . S
H2370 C2344 0.977 . S
H2371 C2345 0.979 . S
H2372 C2345 0.980 . S
H2373 C2345 0.983 . S
H2374 C2318 0.947 . S
C2375 C2318 1.392 . S
C2375 C2319 1.419 . S
C2375 H2357 0.948 . S
C2376 C2377 1.391 . S
C2376 C2380 1.391 . S
C2376 H2418 0.948 . S
C2377 C2376 1.391 . S
C2377 C2378 1.391 . S
C2378 C2377 1.391 . S
C2378 H2434 0.947 . S
C2378 C2435 1.392 . S
C2379 C2380 1.391 . S
C2379 C2383 1.397 . S
C2379 C2435 1.419 . S
C2380 C2376 1.391 . S
C2380 C2379 1.391 . S
C2380 C2381 1.399 . S
C2381 C2380 1.399 . S
C2381 C2384 1.396 . S
C2381 C2393 1.453 . S
C2381 C2394 1.684 . S
H2382 C2406 0.948 . S
C2383 C2379 1.397 . S
C2383 C2384 1.394 . S
C2383 C2402 1.723 . S
C2384 C2381 1.396 . S
C2384 C2383 1.394 . S
C2384 C2414 1.723 . S
H2385 C2408 0.947 . S
H2386 C2409 0.948 . S
H2387 C2415 0.982 . S
H2388 C2416 0.979 . S
H2389 C2416 0.980 . S
H2390 C2416 0.983 . S
H2391 C2415 0.979 . S
H2392 C2415 0.977 . S
C2393 C2381 1.453 . S
C2393 H2422 0.982 . S
C2393 H2423 0.979 . S
C2393 H2424 0.977 . S
C2394 C2381 1.684 . S
C2394 H2419 0.979 . S
C2394 H2420 0.980 . S
C2394 H2421 0.983 . S
C2395 C2396 1.391 . S
C2395 C2400 1.391 . S
C2395 H2425 0.948 . S
C2396 C2395 1.391 . S
C2396 C2397 1.391 . S
C2397 C2396 1.391 . S
C2397 C2398 1.392 . S
C2397 H2426 0.947 . S
C2398 C2397 1.392 . S
C2398 C2399 1.419 . S
C2398 H2427 0.948 . S
C2399 C2398 1.419 . S
C2399 C2400 1.391 . S
C2399 C2403 1.397 . S
C2400 C2395 1.391 . S
C2400 C2399 1.391 . S
C2400 C2401 1.399 . S
C2401 C2400 1.399 . S
C2401 C2402 1.396 . S
C2401 C2404 1.453 . S
C2401 C2405 1.684 . S
C2402 C2383 1.723 . S
C2402 C2401 1.396 . S
C2402 C2403 1.394 . S
C2403 C2399 1.397 . S
C2403 C2402 1.394 . S
C2403 C2413 1.723 . S
C2404 C2401 1.453 . S
C2404 H2428 0.982 . S
C2404 H2429 0.979 . S
C2404 H2430 0.977 . S
C2405 C2401 1.684 . S
C2405 H2431 0.979 . S
C2405 H2432 0.980 . S
C2405 H2433 0.983 . S
C2406 H2382 0.948 . S
C2406 C2407 1.391 . S
C2406 C2411 1.391 . S
C2407 C2406 1.391 . S
C2407 C2408 1.391 . S
C2408 H2385 0.947 . S
C2408 C2407 1.391 . S
C2408 C2409 1.392 . S
C2409 H2386 0.948 . S
C2409 C2408 1.392 . S
C2409 C2410 1.419 . S
C2410 C2409 1.419 . S
C2410 C2411 1.391 . S
C2410 C2414 1.397 . S
C2411 C2406 1.391 . S
C2411 C2410 1.391 . S
C2411 C2412 1.399 . S
C2412 C2411 1.399 . S
C2412 C2413 1.396 . S
C2412 C2415 1.453 . S
C2412 C2416 1.684 . S
C2413 C2403 1.723 . S
C2413 C2412 1.396 . S
C2413 C2414 1.394 . S
C2414 C2384 1.723 . S
C2414 C2410 1.397 . S
C2414 C2413 1.394 . S
C2415 H2387 0.982 . S
C2415 H2391 0.979 . S
C2415 H2392 0.977 . S
C2415 C2412 1.453 . S
C2416 H2388 0.979 . S
C2416 H2389 0.980 . S
C2416 H2390 0.983 . S
C2416 C2412 1.684 . S
H2417 C2435 0.948 . S
H2418 C2376 0.948 . S
H2419 C2394 0.979 . S
H2420 C2394 0.980 . S
H2421 C2394 0.983 . S
H2422 C2393 0.982 . S
H2423 C2393 0.979 . S
H2424 C2393 0.977 . S
H2425 C2395 0.948 . S
H2426 C2397 0.947 . S
H2427 C2398 0.948 . S
H2428 C2404 0.982 . S
H2429 C2404 0.979 . S
H2430 C2404 0.977 . S
H2431 C2405 0.979 . S
H2432 C2405 0.980 . S
H2433 C2405 0.983 . S
H2434 C2378 0.947 . S
C2435 C2378 1.392 . S
C2435 C2379 1.419 . S
C2435 H2417 0.948 . S
C2436 C2437 1.391 . S
C2436 C2440 1.391 . S
C2436 H2478 0.948 . S
C2437 C2436 1.391 . S
C2437 C2438 1.391 . S
C2438 C2437 1.391 . S
C2438 H2494 0.947 . S
C2438 C2495 1.392 . S
C2439 C2440 1.391 . S
C2439 C2443 1.397 . S
C2439 C2495 1.419 . S
C2440 C2436 1.391 . S
C2440 C2439 1.391 . S
C2440 C2441 1.399 . S
C2441 C2440 1.399 . S
C2441 C2444 1.396 . S
C2441 C2453 1.453 . S
C2441 C2454 1.684 . S
H2442 C2466 0.948 . S
C2443 C2439 1.397 . S
C2443 C2444 1.394 . S
C2443 C2462 1.723 . S
C2444 C2441 1.396 . S
C2444 C2443 1.394 . S
C2444 C2474 1.723 . S
H2445 C2468 0.947 . S
H2446 C2469 0.948 . S
H2447 C2475 0.982 . S
H2448 C2476 0.979 . S
H2449 C2476 0.980 . S
H2450 C2476 0.983 . S
H2451 C2475 0.979 . S
H2452 C2475 0.977 . S
C2453 C2441 1.453 . S
C2453 H2482 0.982 . S
C2453 H2483 0.979 . S
C2453 H2484 0.977 . S
C2454 C2441 1.684 . S
C2454 H2479 0.979 . S
C2454 H2480 0.980 . S
C2454 H2481 0.983 . S
C2455 C2456 1.391 . S
C2455 C2460 1.391 . S
C2455 H2485 0.948 . S
C2456 C2455 1.391 . S
C2456 C2457 1.391 . S
C2457 C2456 1.391 . S
C2457 C2458 1.392 . S
C2457 H2486 0.947 . S
C2458 C2457 1.392 . S
C2458 C2459 1.419 . S
C2458 H2487 0.948 . S
C2459 C2458 1.419 . S
C2459 C2460 1.391 . S
C2459 C2463 1.397 . S
C2460 C2455 1.391 . S
C2460 C2459 1.391 . S
C2460 C2461 1.399 . S
C2461 C2460 1.399 . S
C2461 C2462 1.396 . S
C2461 C2464 1.453 . S
C2461 C2465 1.684 . S
C2462 C2443 1.723 . S
C2462 C2461 1.396 . S
C2462 C2463 1.394 . S
C2463 C2459 1.397 . S
C2463 C2462 1.394 . S
C2463 C2473 1.723 . S
C2464 C2461 1.453 . S
C2464 H2488 0.982 . S
C2464 H2489 0.979 . S
C2464 H2490 0.977 . S
C2465 C2461 1.684 . S
C2465 H2491 0.979 . S
C2465 H2492 0.980 . S
C2465 H2493 0.983 . S
C2466 H2442 0.948 . S
C2466 C2467 1.391 . S
C2466 C2471 1.391 . S
C2467 C2466 1.391 . S
C2467 C2468 1.391 . S
C2468 H2445 0.947 . S
C2468 C2467 1.391 . S
C2468 C2469 1.392 . S
C2469 H2446 0.948 . S
C2469 C2468 1.392 . S
C2469 C2470 1.419 . S
C2470 C2469 1.419 . S
C2470 C2471 1.391 . S
C2470 C2474 1.397 . S
C2471 C2466 1.391 . S
C2471 C2470 1.391 . S
C2471 C2472 1.399 . S
C2472 C2471 1.399 . S
C2472 C2473 1.396 . S
C2472 C2475 1.453 . S
C2472 C2476 1.684 . S
C2473 C2463 1.723 . S
C2473 C2472 1.396 . S
C2473 C2474 1.394 . S
C2474 C2444 1.723 . S
C2474 C2470 1.397 . S
C2474 C2473 1.394 . S
C2475 H2447 0.982 . S
C2475 H2451 0.979 . S
C2475 H2452 0.977 . S
C2475 C2472 1.453 . S
C2476 H2448 0.979 . S
C2476 H2449 0.980 . S
C2476 H2450 0.983 . S
C2476 C2472 1.684 . S
H2477 C2495 0.948 . S
H2478 C2436 0.948 . S
H2479 C2454 0.979 . S
H2480 C2454 0.980 . S
H2481 C2454 0.983 . S
H2482 C2453 0.982 . S
H2483 C2453 0.979 . S
H2484 C2453 0.977 . S
H2485 C2455 0.948 . S
H2486 C2457 0.947 . S
H2487 C2458 0.948 . S
H2488 C2464 0.982 . S
H2489 C2464 0.979 . S
H2490 C2464 0.977 . S
H2491 C2465 0.979 . S
H2492 C2465 0.980 . S
H2493 C2465 0.983 . S
H2494 C2438 0.947 . S
C2495 C2438 1.392 . S
C2495 C2439 1.419 . S
C2495 H2477 0.948 . S
C2496 C2497 1.391 . S
C2496 C2500 1.391 . S
C2496 H2538 0.948 . S
C2497 C2496 1.391 . S
C2497 C2498 1.391 . S
C2498 C2497 1.391 . S
C2498 H2554 0.947 . S
C2498 C2555 1.392 . S
C2499 C2500 1.391 . S
C2499 C2503 1.397 . S
C2499 C2555 1.419 . S
C2500 C2496 1.391 . S
C2500 C2499 1.391 . S
C2500 C2501 1.399 . S
C2501 C2500 1.399 . S
C2501 C2504 1.396 . S
C2501 C2513 1.453 . S
C2501 C2514 1.684 . S
H2502 C2526 0.948 . S
C2503 C2499 1.397 . S
C2503 C2504 1.394 . S
C2503 C2522 1.723 . S
C2504 C2501 1.396 . S
C2504 C2503 1.394 . S
C2504 C2534 1.723 . S
H2505 C2528 0.947 . S
H2506 C2529 0.948 . S
H2507 C2535 0.982 . S
H2508 C2536 0.979 . S
H2509 C2536 0.980 . S
H2510 C2536 0.983 . S
H2511 C2535 0.979 . S
H2512 C2535 0.977 . S
C2513 C2501 1.453 . S
C2513 H2542 0.982 . S
C2513 H2543 0.979 . S
C2513 H2544 0.977 . S
C2514 C2501 1.684 . S
C2514 H2539 0.979 . S
C2514 H2540 0.980 . S
C2514 H2541 0.983 . S
C2515 C2516 1.391 . S
C2515 C2520 1.391 . S
C2515 H2545 0.948 . S
C2516 C2515 1.391 . S
C2516 C2517 1.391 . S
C2517 C2516 1.391 . S
C2517 C2518 1.392 . S
C2517 H2546 0.947 . S
C2518 C2517 1.392 . S
C2518 C2519 1.419 . S
C2518 H2547 0.948 . S
C2519 C2518 1.419 . S
C2519 C2520 1.391 . S
C2519 C2523 1.397 . S
C2520 C2515 1.391 . S
C2520 C2519 1.391 . S
C2520 C2521 1.399 . S
C2521 C2520 1.399 . S
C2521 C2522 1.396 . S
C2521 C2524 1.453 . S
C2521 C2525 1.684 . S
C2522 C2503 1.723 . S
C2522 C2521 1.396 . S
C2522 C2523 1.394 . S
C2523 C2519 1.397 . S
C2523 C2522 1.394 . S
C2523 C2533 1.723 . S
C2524 C2521 1.453 . S
C2524 H2548 0.982 . S
C2524 H2549 0.979 . S
C2524 H2550 0.977 . S
C2525 C2521 1.684 . S
C2525 H2551 0.979 . S
C2525 H2552 0.980 . S
C2525 H2553 0.983 . S
C2526 H2502 0.948 . S
C2526 C2527 1.391 . S
C2526 C2531 1.391 . S
C2527 C2526 1.391 . S
C2527 C2528 1.391 . S
C2528 H2505 0.947 . S
C2528 C2527 1.391 . S
C2528 C2529 1.392 . S
C2529 H2506 0.948 . S
C2529 C2528 1.392 . S
C2529 C2530 1.419 . S
C2530 C2529 1.419 . S
C2530 C2531 1.391 . S
C2530 C2534 1.397 . S
C2531 C2526 1.391 . S
C2531 C2530 1.391 . S
C2531 C2532 1.399 . S
C2532 C2531 1.399 . S
C2532 C2533 1.396 . S
C2532 C2535 1.453 . S
C2532 C2536 1.684 . S
C2533 C2523 1.723 . S
C2533 C2532 1.396 . S
C2533 C2534 1.394 . S
C2534 C2504 1.723 . S
C2534 C2530 1.397 . S
C2534 C2533 1.394 . S
C2535 H2507 0.982 . S
C2535 H2511 0.979 . S
C2535 H2512 0.977 . S
C2535 C2532 1.453 . S
C2536 H2508 0.979 . S
C2536 H2509 0.980 . S
C2536 H2510 0.983 . S
C2536 C2532 1.684 . S
H2537 C2555 0.948 . S
H2538 C2496 0.948 . S
H2539 C2514 0.979 . S
H2540 C2514 0.980 . S
H2541 C2514 0.983 . S
H2542 C2513 0.982 . S
H2543 C2513 0.979 . S
H2544 C2513 0.977 . S
H2545 C2515 0.948 . S
H2546 C2517 0.947 . S
H2547 C2518 0.948 . S
H2548 C2524 0.982 . S
H2549 C2524 0.979 . S
H2550 C2524 0.977 . S
H2551 C2525 0.979 . S
H2552 C2525 0.980 . S
H2553 C2525 0.983 . S
H2554 C2498 0.947 . S
C2555 C2498 1.392 . S
C2555 C2499 1.419 . S
C2555 H2537 0.948 . S
C2556 C2557 1.391 . S
C2556 C2560 1.391 . S
C2556 H2598 0.948 . S
C2557 C2556 1.391 . S
C2557 C2558 1.391 . S
C2558 C2557 1.391 . S
C2558 H2614 0.947 . S
C2558 C2615 1.392 . S
C2559 C2560 1.391 . S
C2559 C2563 1.397 . S
C2559 C2615 1.419 . S
C2560 C2556 1.391 . S
C2560 C2559 1.391 . S
C2560 C2561 1.399 . S
C2561 C2560 1.399 . S
C2561 C2564 1.396 . S
C2561 C2573 1.453 . S
C2561 C2574 1.684 . S
H2562 C2586 0.948 . S
C2563 C2559 1.397 . S
C2563 C2564 1.394 . S
C2563 C2582 1.723 . S
C2564 C2561 1.396 . S
C2564 C2563 1.394 . S
C2564 C2594 1.723 . S
H2565 C2588 0.947 . S
H2566 C2589 0.948 . S
H2567 C2595 0.982 . S
H2568 C2596 0.979 . S
H2569 C2596 0.980 . S
H2570 C2596 0.983 . S
H2571 C2595 0.979 . S
H2572 C2595 0.977 . S
C2573 C2561 1.453 . S
C2573 H2602 0.982 . S
C2573 H2603 0.979 . S
C2573 H2604 0.977 . S
C2574 C2561 1.684 . S
C2574 H2599 0.979 . S
C2574 H2600 0.980 . S
C2574 H2601 0.983 . S
C2575 C2576 1.391 . S
C2575 C2580 1.391 . S
C2575 H2605 0.948 . S
C2576 C2575 1.391 . S
C2576 C2577 1.391 . S
C2577 C2576 1.391 . S
C2577 C2578 1.392 . S
C2577 H2606 0.947 . S
C2578 C2577 1.392 . S
C2578 C2579 1.419 . S
C2578 H2607 0.948 . S
C2579 C2578 1.419 . S
C2579 C2580 1.391 . S
C2579 C2583 1.397 . S
C2580 C2575 1.391 . S
C2580 C2579 1.391 . S
C2580 C2581 1.399 . S
C2581 C2580 1.399 . S
C2581 C2582 1.396 . S
C2581 C2584 1.453 . S
C2581 C2585 1.684 . S
C2582 C2563 1.723 . S
C2582 C2581 1.396 . S
C2582 C2583 1.394 . S
C2583 C2579 1.397 . S
C2583 C2582 1.394 . S
C2583 C2593 1.723 . S
C2584 C2581 1.453 . S
C2584 H2608 0.982 . S
C2584 H2609 0.979 . S
C2584 H2610 0.977 . S
C2585 C2581 1.684 . S
C2585 H2611 0.979 . S
C2585 H2612 0.980 . S
C2585 H2613 0.983 . S
C2586 H2562 0.948 . S
C2586 C2587 1.391 . S
C2586 C2591 1.391 . S
C2587 C2586 1.391 . S
C2587 C2588 1.391 . S
C2588 H2565 0.947 . S
C2588 C2587 1.391 . S
C2588 C2589 1.392 . S
C2589 H2566 0.948 . S
C2589 C2588 1.392 . S
C2589 C2590 1.419 . S
C2590 C2589 1.419 . S
C2590 C2591 1.391 . S
C2590 C2594 1.397 . S
C2591 C2586 1.391 . S
C2591 C2590 1.391 . S
C2591 C2592 1.399 . S
C2592 C2591 1.399 . S
C2592 C2593 1.396 . S
C2592 C2595 1.453 . S
C2592 C2596 1.684 . S
C2593 C2583 1.723 . S
C2593 C2592 1.396 . S
C2593 C2594 1.394 . S
C2594 C2564 1.723 . S
C2594 C2590 1.397 . S
C2594 C2593 1.394 . S
C2595 H2567 0.982 . S
C2595 H2571 0.979 . S
C2595 H2572 0.977 . S
C2595 C2592 1.453 . S
C2596 H2568 0.979 . S
C2596 H2569 0.980 . S
C2596 H2570 0.983 . S
C2596 C2592 1.684 . S
H2597 C2615 0.948 . S
H2598 C2556 0.948 . S
H2599 C2574 0.979 . S
H2600 C2574 0.980 . S
H2601 C2574 0.983 . S
H2602 C2573 0.982 . S
H2603 C2573 0.979 . S
H2604 C2573 0.977 . S
H2605 C2575 0.948 . S
H2606 C2577 0.947 . S
H2607 C2578 0.948 . S
H2608 C2584 0.982 . S
H2609 C2584 0.979 . S
H2610 C2584 0.977 . S
H2611 C2585 0.979 . S
H2612 C2585 0.980 . S
H2613 C2585 0.983 . S
H2614 C2558 0.947 . S
C2615 C2558 1.392 . S
C2615 C2559 1.419 . S
C2615 H2597 0.948 . S
C2616 C2617 1.391 . S
C2616 C2620 1.391 . S
C2616 H2658 0.948 . S
C2617 C2616 1.391 . S
C2617 C2618 1.391 . S
C2618 C2617 1.391 . S
C2618 H2674 0.947 . S
C2618 C2675 1.392 . S
C2619 C2620 1.391 . S
C2619 C2623 1.397 . S
C2619 C2675 1.419 . S
C2620 C2616 1.391 . S
C2620 C2619 1.391 . S
C2620 C2621 1.399 . S
C2621 C2620 1.399 . S
C2621 C2624 1.396 . S
C2621 C2633 1.453 . S
C2621 C2634 1.684 . S
H2622 C2646 0.948 . S
C2623 C2619 1.397 . S
C2623 C2624 1.394 . S
C2623 C2642 1.723 . S
C2624 C2621 1.396 . S
C2624 C2623 1.394 . S
C2624 C2654 1.723 . S
H2625 C2648 0.947 . S
H2626 C2649 0.948 . S
H2627 C2655 0.982 . S
H2628 C2656 0.979 . S
H2629 C2656 0.980 . S
H2630 C2656 0.983 . S
H2631 C2655 0.979 . S
H2632 C2655 0.977 . S
C2633 C2621 1.453 . S
C2633 H2662 0.982 . S
C2633 H2663 0.979 . S
C2633 H2664 0.977 . S
C2634 C2621 1.684 . S
C2634 H2659 0.979 . S
C2634 H2660 0.980 . S
C2634 H2661 0.983 . S
C2635 C2636 1.391 . S
C2635 C2640 1.391 . S
C2635 H2665 0.948 . S
C2636 C2635 1.391 . S
C2636 C2637 1.391 . S
C2637 C2636 1.391 . S
C2637 C2638 1.392 . S
C2637 H2666 0.947 . S
C2638 C2637 1.392 . S
C2638 C2639 1.419 . S
C2638 H2667 0.948 . S
C2639 C2638 1.419 . S
C2639 C2640 1.391 . S
C2639 C2643 1.397 . S
C2640 C2635 1.391 . S
C2640 C2639 1.391 . S
C2640 C2641 1.399 . S
C2641 C2640 1.399 . S
C2641 C2642 1.396 . S
C2641 C2644 1.453 . S
C2641 C2645 1.684 . S
C2642 C2623 1.723 . S
C2642 C2641 1.396 . S
C2642 C2643 1.394 . S
C2643 C2639 1.397 . S
C2643 C2642 1.394 . S
C2643 C2653 1.723 . S
C2644 C2641 1.453 . S
C2644 H2668 0.982 . S
C2644 H2669 0.979 . S
C2644 H2670 0.977 . S
C2645 C2641 1.684 . S
C2645 H2671 0.979 . S
C2645 H2672 0.980 . S
C2645 H2673 0.983 . S
C2646 H2622 0.948 . S
C2646 C2647 1.391 . S
C2646 C2651 1.391 . S
C2647 C2646 1.391 . S
C2647 C2648 1.391 . S
C2648 H2625 0.947 . S
C2648 C2647 1.391 . S
C2648 C2649 1.392 . S
C2649 H2626 0.948 . S
C2649 C2648 1.392 . S
C2649 C2650 1.419 . S
C2650 C2649 1.419 . S
C2650 C2651 1.391 . S
C2650 C2654 1.397 . S
C2651 C2646 1.391 . S
C2651 C2650 1.391 . S
C2651 C2652 1.399 . S
C2652 C2651 1.399 . S
C2652 C2653 1.396 . S
C2652 C2655 1.453 . S
C2652 C2656 1.684 . S
C2653 C2643 1.723 . S
C2653 C2652 1.396 . S
C2653 C2654 1.394 . S
C2654 C2624 1.723 . S
C2654 C2650 1.397 . S
C2654 C2653 1.394 . S
C2655 H2627 0.982 . S
C2655 H2631 0.979 . S
C2655 H2632 0.977 . S
C2655 C2652 1.453 . S
C2656 H2628 0.979 . S
C2656 H2629 0.980 . S
C2656 H2630 0.983 . S
C2656 C2652 1.684 . S
H2657 C2675 0.948 . S
H2658 C2616 0.948 . S
H2659 C2634 0.979 . S
H2660 C2634 0.980 . S
H2661 C2634 0.983 . S
H2662 C2633 0.982 . S
H2663 C2633 0.979 . S
H2664 C2633 0.977 . S
H2665 C2635 0.948 . S
H2666 C2637 0.947 . S
H2667 C2638 0.948 . S
H2668 C2644 0.982 . S
H2669 C2644 0.979 . S
H2670 C2644 0.977 . S
H2671 C2645 0.979 . S
H2672 C2645 0.980 . S
H2673 C2645 0.983 . S
H2674 C2618 0.947 . S
C2675 C2618 1.392 . S
C2675 C2619 1.419 . S
C2675 H2657 0.948 . S
C2676 C2677 1.391 . S
C2676 C2680 1.391 . S
C2676 H2718 0.948 . S
C2677 C2676 1.391 . S
C2677 C2678 1.391 . S
C2678 C2677 1.391 . S
C2678 H2734 0.947 . S
C2678 C2735 1.392 . S
C2679 C2680 1.391 . S
C2679 C2683 1.397 . S
C2679 C2735 1.419 . S
C2680 C2676 1.391 . S
C2680 C2679 1.391 . S
C2680 C2681 1.399 . S
C2681 C2680 1.399 . S
C2681 C2684 1.396 . S
C2681 C2693 1.453 . S
C2681 C2694 1.684 . S
H2682 C2706 0.948 . S
C2683 C2679 1.397 . S
C2683 C2684 1.394 . S
C2683 C2702 1.723 . S
C2684 C2681 1.396 . S
C2684 C2683 1.394 . S
C2684 C2714 1.723 . S
H2685 C2708 0.947 . S
H2686 C2709 0.948 . S
H2687 C2715 0.982 . S
H2688 C2716 0.979 . S
H2689 C2716 0.980 . S
H2690 C2716 0.983 . S
H2691 C2715 0.979 . S
H2692 C2715 0.977 . S
C2693 C2681 1.453 . S
C2693 H2722 0.982 . S
C2693 H2723 0.979 . S
C2693 H2724 0.977 . S
C2694 C2681 1.684 . S
C2694 H2719 0.979 . S
C2694 H2720 0.980 . S
C2694 H2721 0.983 . S
C2695 C2696 1.391 . S
C2695 C2700 1.391 . S
C2695 H2725 0.948 . S
C2696 C2695 1.391 . S
C2696 C2697 1.391 . S
C2697 C2696 1.391 . S
C2697 C2698 1.392 . S
C2697 H2726 0.947 . S
C2698 C2697 1.392 . S
C2698 C2699 1.419 . S
C2698 H2727 0.948 . S
C2699 C2698 1.419 . S
C2699 C2700 1.391 . S
C2699 C2703 1.397 . S
C2700 C2695 1.391 . S
C2700 C2699 1.391 . S
C2700 C2701 1.399 . S
C2701 C2700 1.399 . S
C2701 C2702 1.396 . S
C2701 C2704 1.453 . S
C2701 C2705 1.684 . S
C2702 C2683 1.723 . S
C2702 C2701 1.396 . S
C2702 C2703 1.394 . S
C2703 C2699 1.397 . S
C2703 C2702 1.394 . S
C2703 C2713 1.723 . S
C2704 C2701 1.453 . S
C2704 H2728 0.982 . S
C2704 H2729 0.979 . S
C2704 H2730 0.977 . S
C2705 C2701 1.684 . S
C2705 H2731 0.979 . S
C2705 H2732 0.980 . S
C2705 H2733 0.983 . S
C2706 H2682 0.948 . S
C2706 C2707 1.391 . S
C2706 C2711 1.391 . S
C2707 C2706 1.391 . S
C2707 C2708 1.391 . S
C2708 H2685 0.947 . S
C2708 C2707 1.391 . S
C2708 C2709 1.392 . S
C2709 H2686 0.948 . S
C2709 C2708 1.392 . S
C2709 C2710 1.419 . S
C2710 C2709 1.419 . S
C2710 C2711 1.391 . S
C2710 C2714 1.397 . S
C2711 C2706 1.391 . S
C2711 C2710 1.391 . S
C2711 C2712 1.399 . S
C2712 C2711 1.399 . S
C2712 C2713 1.396 . S
C2712 C2715 1.453 . S
C2712 C2716 1.684 . S
C2713 C2703 1.723 . S
C2713 C2712 1.396 . S
C2713 C2714 1.394 . S
C2714 C2684 1.723 . S
C2714 C2710 1.397 . S
C2714 C2713 1.394 . S
C2715 H2687 0.982 . S
C2715 H2691 0.979 . S
C2715 H2692 0.977 . S
C2715 C2712 1.453 . S
C2716 H2688 0.979 . S
C2716 H2689 0.980 . S
C2716 H2690 0.983 . S
C2716 C2712 1.684 . S
H2717 C2735 0.948 . S
H2718 C2676 0.948 . S
H2719 C2694 0.979 . S
H2720 C2694 0.980 . S
H2721 C2694 0.983 . S
H2722 C2693 0.982 . S
H2723 C2693 0.979 . S
H2724 C2693 0.977 . S
H2725 C2695 0.948 . S
H2726 C2697 0.947 . S
H2727 C2698 0.948 . S
H2728 C2704 0.982 . S
H2729 C2704 0.979 . S
H2730 C2704 0.977 . S
H2731 C2705 0.979 . S
H2732 C2705 0.980 . S
H2733 C2705 0.983 . S
H2734 C2678 0.947 . S
C2735 C2678 1.392 . S
C2735 C2679 1.419 . S
C2735 H2717 0.948 . S
C2736 C2737 1.391 . S
C2736 C2740 1.391 . S
C2736 H2778 0.948 . S
C2737 C2736 1.391 . S
C2737 C2738 1.391 . S
C2738 C2737 1.391 . S
C2738 H2794 0.947 . S
C2738 C2795 1.392 . S
C2739 C2740 1.391 . S
C2739 C2743 1.397 . S
C2739 C2795 1.419 . S
C2740 C2736 1.391 . S
C2740 C2739 1.391 . S
C2740 C2741 1.399 . S
C2741 C2740 1.399 . S
C2741 C2744 1.396 . S
C2741 C2753 1.453 . S
C2741 C2754 1.684 . S
H2742 C2766 0.948 . S
C2743 C2739 1.397 . S
C2743 C2744 1.394 . S
C2743 C2762 1.723 . S
C2744 C2741 1.396 . S
C2744 C2743 1.394 . S
C2744 C2774 1.723 . S
H2745 C2768 0.947 . S
H2746 C2769 0.948 . S
H2747 C2775 0.982 . S
H2748 C2776 0.979 . S
H2749 C2776 0.980 . S
H2750 C2776 0.983 . S
H2751 C2775 0.979 . S
H2752 C2775 0.977 . S
C2753 C2741 1.453 . S
C2753 H2782 0.982 . S
C2753 H2783 0.979 . S
C2753 H2784 0.977 . S
C2754 C2741 1.684 . S
C2754 H2779 0.979 . S
C2754 H2780 0.980 . S
C2754 H2781 0.983 . S
C2755 C2756 1.391 . S
C2755 C2760 1.391 . S
C2755 H2785 0.948 . S
C2756 C2755 1.391 . S
C2756 C2757 1.391 . S
C2757 C2756 1.391 . S
C2757 C2758 1.392 . S
C2757 H2786 0.947 . S
C2758 C2757 1.392 . S
C2758 C2759 1.419 . S
C2758 H2787 0.948 . S
C2759 C2758 1.419 . S
C2759 C2760 1.391 . S
C2759 C2763 1.397 . S
C2760 C2755 1.391 . S
C2760 C2759 1.391 . S
C2760 C2761 1.399 . S
C2761 C2760 1.399 . S
C2761 C2762 1.396 . S
C2761 C2764 1.453 . S
C2761 C2765 1.684 . S
C2762 C2743 1.723 . S
C2762 C2761 1.396 . S
C2762 C2763 1.394 . S
C2763 C2759 1.397 . S
C2763 C2762 1.394 . S
C2763 C2773 1.723 . S
C2764 C2761 1.453 . S
C2764 H2788 0.982 . S
C2764 H2789 0.979 . S
C2764 H2790 0.977 . S
C2765 C2761 1.684 . S
C2765 H2791 0.979 . S
C2765 H2792 0.980 . S
C2765 H2793 0.983 . S
C2766 H2742 0.948 . S
C2766 C2767 1.391 . S
C2766 C2771 1.391 . S
C2767 C2766 1.391 . S
C2767 C2768 1.391 . S
C2768 H2745 0.947 . S
C2768 C2767 1.391 . S
C2768 C2769 1.392 . S
C2769 H2746 0.948 . S
C2769 C2768 1.392 . S
C2769 C2770 1.419 . S
C2770 C2769 1.419 . S
C2770 C2771 1.391 . S
C2770 C2774 1.397 . S
C2771 C2766 1.391 . S
C2771 C2770 1.391 . S
C2771 C2772 1.399 . S
C2772 C2771 1.399 . S
C2772 C2773 1.396 . S
C2772 C2775 1.453 . S
C2772 C2776 1.684 . S
C2773 C2763 1.723 . S
C2773 C2772 1.396 . S
C2773 C2774 1.394 . S
C2774 C2744 1.723 . S
C2774 C2770 1.397 . S
C2774 C2773 1.394 . S
C2775 H2747 0.982 . S
C2775 H2751 0.979 . S
C2775 H2752 0.977 . S
C2775 C2772 1.453 . S
C2776 H2748 0.979 . S
C2776 H2749 0.980 . S
C2776 H2750 0.983 . S
C2776 C2772 1.684 . S
H2777 C2795 0.948 . S
H2778 C2736 0.948 . S
H2779 C2754 0.979 . S
H2780 C2754 0.980 . S
H2781 C2754 0.983 . S
H2782 C2753 0.982 . S
H2783 C2753 0.979 . S
H2784 C2753 0.977 . S
H2785 C2755 0.948 . S
H2786 C2757 0.947 . S
H2787 C2758 0.948 . S
H2788 C2764 0.982 . S
H2789 C2764 0.979 . S
H2790 C2764 0.977 . S
H2791 C2765 0.979 . S
H2792 C2765 0.980 . S
H2793 C2765 0.983 . S
H2794 C2738 0.947 . S
C2795 C2738 1.392 . S
C2795 C2739 1.419 . S
C2795 H2777 0.948 . S
C2796 C2797 1.391 . S
C2796 C2800 1.391 . S
C2796 H2838 0.948 . S
C2797 C2796 1.391 . S
C2797 C2798 1.391 . S
C2798 C2797 1.391 . S
C2798 H2854 0.947 . S
C2798 C2855 1.392 . S
C2799 C2800 1.391 . S
C2799 C2803 1.397 . S
C2799 C2855 1.419 . S
C2800 C2796 1.391 . S
C2800 C2799 1.391 . S
C2800 C2801 1.399 . S
C2801 C2800 1.399 . S
C2801 C2804 1.396 . S
C2801 C2813 1.453 . S
C2801 C2814 1.684 . S
H2802 C2826 0.948 . S
C2803 C2799 1.397 . S
C2803 C2804 1.394 . S
C2803 C2822 1.723 . S
C2804 C2801 1.396 . S
C2804 C2803 1.394 . S
C2804 C2834 1.723 . S
H2805 C2828 0.947 . S
H2806 C2829 0.948 . S
H2807 C2835 0.982 . S
H2808 C2836 0.979 . S
H2809 C2836 0.980 . S
H2810 C2836 0.983 . S
H2811 C2835 0.979 . S
H2812 C2835 0.977 . S
C2813 C2801 1.453 . S
C2813 H2842 0.982 . S
C2813 H2843 0.979 . S
C2813 H2844 0.977 . S
C2814 C2801 1.684 . S
C2814 H2839 0.979 . S
C2814 H2840 0.980 . S
C2814 H2841 0.983 . S
C2815 C2816 1.391 . S
C2815 C2820 1.391 . S
C2815 H2845 0.948 . S
C2816 C2815 1.391 . S
C2816 C2817 1.391 . S
C2817 C2816 1.391 . S
C2817 C2818 1.392 . S
C2817 H2846 0.947 . S
C2818 C2817 1.392 . S
C2818 C2819 1.419 . S
C2818 H2847 0.948 . S
C2819 C2818 1.419 . S
C2819 C2820 1.391 . S
C2819 C2823 1.397 . S
C2820 C2815 1.391 . S
C2820 C2819 1.391 . S
C2820 C2821 1.399 . S
C2821 C2820 1.399 . S
C2821 C2822 1.396 . S
C2821 C2824 1.453 . S
C2821 C2825 1.684 . S
C2822 C2803 1.723 . S
C2822 C2821 1.396 . S
C2822 C2823 1.394 . S
C2823 C2819 1.397 . S
C2823 C2822 1.394 . S
C2823 C2833 1.723 . S
C2824 C2821 1.453 . S
C2824 H2848 0.982 . S
C2824 H2849 0.979 . S
C2824 H2850 0.977 . S
C2825 C2821 1.684 . S
C2825 H2851 0.979 . S
C2825 H2852 0.980 . S
C2825 H2853 0.983 . S
C2826 H2802 0.948 . S
C2826 C2827 1.391 . S
C2826 C2831 1.391 . S
C2827 C2826 1.391 . S
C2827 C2828 1.391 . S
C2828 H2805 0.947 . S
C2828 C2827 1.391 . S
C2828 C2829 1.392 . S
C2829 H2806 0.948 . S
C2829 C2828 1.392 . S
C2829 C2830 1.419 . S
C2830 C2829 1.419 . S
C2830 C2831 1.391 . S
C2830 C2834 1.397 . S
C2831 C2826 1.391 . S
C2831 C2830 1.391 . S
C2831 C2832 1.399 . S
C2832 C2831 1.399 . S
C2832 C2833 1.396 . S
C2832 C2835 1.453 . S
C2832 C2836 1.684 . S
C2833 C2823 1.723 . S
C2833 C2832 1.396 . S
C2833 C2834 1.394 . S
C2834 C2804 1.723 . S
C2834 C2830 1.397 . S
C2834 C2833 1.394 . S
C2835 H2807 0.982 . S
C2835 H2811 0.979 . S
C2835 H2812 0.977 . S
C2835 C2832 1.453 . S
C2836 H2808 0.979 . S
C2836 H2809 0.980 . S
C2836 H2810 0.983 . S
C2836 C2832 1.684 . S
H2837 C2855 0.948 . S
H2838 C2796 0.948 . S
H2839 C2814 0.979 . S
H2840 C2814 0.980 . S
H2841 C2814 0.983 . S
H2842 C2813 0.982 . S
H2843 C2813 0.979 . S
H2844 C2813 0.977 . S
H2845 C2815 0.948 . S
H2846 C2817 0.947 . S
H2847 C2818 0.948 . S
H2848 C2824 0.982 . S
H2849 C2824 0.979 . S
H2850 C2824 0.977 . S
H2851 C2825 0.979 . S
H2852 C2825 0.980 . S
H2853 C2825 0.983 . S
H2854 C2798 0.947 . S
C2855 C2798 1.392 . S
C2855 C2799 1.419 . S
C2855 H2837 0.948 . S
C2856 C2857 1.391 . S
C2856 C2860 1.391 . S
C2856 H2898 0.948 . S
C2857 C2856 1.391 . S
C2857 C2858 1.391 . S
C2858 C2857 1.391 . S
C2858 H2914 0.947 . S
C2858 C2915 1.392 . S
C2859 C2860 1.391 . S
C2859 C2863 1.397 . S
C2859 C2915 1.419 . S
C2860 C2856 1.391 . S
C2860 C2859 1.391 . S
C2860 C2861 1.399 . S
C2861 C2860 1.399 . S
C2861 C2864 1.396 . S
C2861 C2873 1.453 . S
C2861 C2874 1.684 . S
H2862 C2886 0.948 . S
C2863 C2859 1.397 . S
C2863 C2864 1.394 . S
C2863 C2882 1.723 . S
C2864 C2861 1.396 . S
C2864 C2863 1.394 . S
C2864 C2894 1.723 . S
H2865 C2888 0.947 . S
H2866 C2889 0.948 . S
H2867 C2895 0.982 . S
H2868 C2896 0.979 . S
H2869 C2896 0.980 . S
H2870 C2896 0.983 . S
H2871 C2895 0.979 . S
H2872 C2895 0.977 . S
C2873 C2861 1.453 . S
C2873 H2902 0.982 . S
C2873 H2903 0.979 . S
C2873 H2904 0.977 . S
C2874 C2861 1.684 . S
C2874 H2899 0.979 . S
C2874 H2900 0.980 . S
C2874 H2901 0.983 . S
C2875 C2876 1.391 . S
C2875 C2880 1.391 . S
C2875 H2905 0.948 . S
C2876 C2875 1.391 . S
C2876 C2877 1.391 . S
C2877 C2876 1.391 . S
C2877 C2878 1.392 . S
C2877 H2906 0.947 . S
C2878 C2877 1.392 . S
C2878 C2879 1.419 . S
C2878 H2907 0.948 . S
C2879 C2878 1.419 . S
C2879 C2880 1.391 . S
C2879 C2883 1.397 . S
C2880 C2875 1.391 . S
C2880 C2879 1.391 . S
C2880 C2881 1.399 . S
C2881 C2880 1.399 . S
C2881 C2882 1.396 . S
C2881 C2884 1.453 . S
C2881 C2885 1.684 . S
C2882 C2863 1.723 . S
C2882 C2881 1.396 . S
C2882 C2883 1.394 . S
C2883 C2879 1.397 . S
C2883 C2882 1.394 . S
C2883 C2893 1.723 . S
C2884 C2881 1.453 . S
C2884 H2908 0.982 . S
C2884 H2909 0.979 . S
C2884 H2910 0.977 . S
C2885 C2881 1.684 . S
C2885 H2911 0.979 . S
C2885 H2912 0.980 . S
C2885 H2913 0.983 . S
C2886 H2862 0.948 . S
C2886 C2887 1.391 . S
C2886 C2891 1.391 . S
C2887 C2886 1.391 . S
C2887 C2888 1.391 . S
C2888 H2865 0.947 . S
C2888 C2887 1.391 . S
C2888 C2889 1.392 . S
C2889 H2866 0.948 . S
C2889 C2888 1.392 . S
C2889 C2890 1.419 . S
C2890 C2889 1.419 . S
C2890 C2891 1.391 . S
C2890 C2894 1.397 . S
C2891 C2886 1.391 . S
C2891 C2890 1.391 . S
C2891 C2892 1.399 . S
C2892 C2891 1.399 . S
C2892 C2893 1.396 . S
C2892 C2895 1.453 . S
C2892 C2896 1.684 . S
C2893 C2883 1.723 . S
C2893 C2892 1.396 . S
C2893 C2894 1.394 . S
C2894 C2864 1.723 . S
C2894 C2890 1.397 . S
C2894 C2893 1.394 . S
C2895 H2867 0.982 . S
C2895 H2871 0.979 . S
C2895 H2872 0.977 . S
C2895 C2892 1.453 . S
C2896 H2868 0.979 . S
C2896 H2869 0.980 . S
C2896 H2870 0.983 . S
C2896 C2892 1.684 . S
H2897 C2915 0.948 . S
H2898 C2856 0.948 . S
H2899 C2874 0.979 . S
H2900 C2874 0.980 . S
H2901 C2874 0.983 . S
H2902 C2873 0.982 . S
H2903 C2873 0.979 . S
H2904 C2873 0.977 . S
H2905 C2875 0.948 . S
H2906 C2877 0.947 . S
H2907 C2878 0.948 . S
H2908 C2884 0.982 . S
H2909 C2884 0.979 . S
H2910 C2884 0.977 . S
H2911 C2885 0.979 . S
H2912 C2885 0.980 . S
H2913 C2885 0.983 . S
H2914 C2858 0.947 . S
C2915 C2858 1.392 . S
C2915 C2859 1.419 . S
C2915 H2897 0.948 . S
C2916 C2917 1.391 . S
C2916 C2920 1.391 . S
C2916 H2958 0.948 . S
C2917 C2916 1.391 . S
C2917 C2918 1.391 . S
C2918 C2917 1.391 . S
C2918 H2974 0.947 . S
C2918 C2975 1.392 . S
C2919 C2920 1.391 . S
C2919 C2923 1.397 . S
C2919 C2975 1.419 . S
C2920 C2916 1.391 . S
C2920 C2919 1.391 . S
C2920 C2921 1.399 . S
C2921 C2920 1.399 . S
C2921 C2924 1.396 . S
C2921 C2933 1.453 . S
C2921 C2934 1.684 . S
H2922 C2946 0.948 . S
C2923 C2919 1.397 . S
C2923 C2924 1.394 . S
C2923 C2942 1.723 . S
C2924 C2921 1.396 . S
C2924 C2923 1.394 . S
C2924 C2954 1.723 . S
H2925 C2948 0.947 . S
H2926 C2949 0.948 . S
H2927 C2955 0.982 . S
H2928 C2956 0.979 . S
H2929 C2956 0.980 . S
H2930 C2956 0.983 . S
H2931 C2955 0.979 . S
H2932 C2955 0.977 . S
C2933 C2921 1.453 . S
C2933 H2962 0.982 . S
C2933 H2963 0.979 . S
C2933 H2964 0.977 . S
C2934 C2921 1.684 . S
C2934 H2959 0.979 . S
C2934 H2960 0.980 . S
C2934 H2961 0.983 . S
C2935 C2936 1.391 . S
C2935 C2940 1.391 . S
C2935 H2965 0.948 . S
C2936 C2935 1.391 . S
C2936 C2937 1.391 . S
C2937 C2936 1.391 . S
C2937 C2938 1.392 . S
C2937 H2966 0.947 . S
C2938 C2937 1.392 . S
C2938 C2939 1.419 . S
C2938 H2967 0.948 . S
C2939 C2938 1.419 . S
C2939 C2940 1.391 . S
C2939 C2943 1.397 . S
C2940 C2935 1.391 . S
C2940 C2939 1.391 . S
C2940 C2941 1.399 . S
C2941 C2940 1.399 . S
C2941 C2942 1.396 . S
C2941 C2944 1.453 . S
C2941 C2945 1.684 . S
C2942 C2923 1.723 . S
C2942 C2941 1.396 . S
C2942 C2943 1.394 . S
C2943 C2939 1.397 . S
C2943 C2942 1.394 . S
C2943 C2953 1.723 . S
C2944 C2941 1.453 . S
C2944 H2968 0.982 . S
C2944 H2969 0.979 . S
C2944 H2970 0.977 . S
C2945 C2941 1.684 . S
C2945 H2971 0.979 . S
C2945 H2972 0.980 . S
C2945 H2973 0.983 . S
C2946 H2922 0.948 . S
C2946 C2947 1.391 . S
C2946 C2951 1.391 . S
C2947 C2946 1.391 . S
C2947 C2948 1.391 . S
C2948 H2925 0.947 . S
C2948 C2947 1.391 . S
C2948 C2949 1.392 . S
C2949 H2926 0.948 . S
C2949 C2948 1.392 . S
C2949 C2950 1.419 . S
C2950 C2949 1.419 . S
C2950 C2951 1.391 . S
C2950 C2954 1.397 . S
C2951 C2946 1.391 . S
C2951 C2950 1.391 . S
C2951 C2952 1.399 . S
C2952 C2951 1.399 . S
C2952 C2953 1.396 . S
C2952 C2955 1.453 . S
C2952 C2956 1.684 . S
C2953 C2943 1.723 . S
C2953 C2952 1.396 . S
C2953 C2954 1.394 . S
C2954 C2924 1.723 . S
C2954 C2950 1.397 . S
C2954 C2953 1.394 . S
C2955 H2927 0.982 . S
C2955 H2931 0.979 . S
C2955 H2932 0.977 . S
C2955 C2952 1.453 . S
C2956 H2928 0.979 . S
C2956 H2929 0.980 . S
C2956 H2930 0.983 . S
C2956 C2952 1.684 . S
H2957 C2975 0.948 . S
H2958 C2916 0.948 . S
H2959 C2934 0.979 . S
H2960 C2934 0.980 . S
H2961 C2934 0.983 . S
H2962 C2933 0.982 . S
H2963 C2933 0.979 . S
H2964 C2933 0.977 . S
H2965 C2935 0.948 . S
H2966 C2937 0.947 . S
H2967 C2938 0.948 . S
H2968 C2944 0.982 . S
H2969 C2944 0.979 . S
H2970 C2944 0.977 . S
H2971 C2945 0.979 . S
H2972 C2945 0.980 . S
H2973 C2945 0.983 . S
H2974 C2918 0.947 . S
C2975 C2918 1.392 . S
C2975 C2919 1.419 . S
C2975 H2957 0.948 . S
C2976 C2977 1.391 . S
C2976 C2980 1.391 . S
C2976 H3018 0.948 . S
C2977 C2976 1.391 . S
C2977 C2978 1.391 . S
C2978 C2977 1.391 . S
C2978 H3034 0.947 . S
C2978 C3035 1.392 . S
C2979 C2980 1.391 . S
C2979 C2983 1.397 . S
C2979 C3035 1.419 . S
C2980 C2976 1.391 . S
C2980 C2979 1.391 . S
C2980 C2981 1.399 . S
C2981 C2980 1.399 . S
C2981 C2984 1.396 . S
C2981 C2993 1.453 . S
C2981 C2994 1.684 . S
H2982 C3006 0.948 . S
C2983 C2979 1.397 . S
C2983 C2984 1.394 . S
C2983 C3002 1.723 . S
C2984 C2981 1.396 . S
C2984 C2983 1.394 . S
C2984 C3014 1.723 . S
H2985 C3008 0.947 . S
H2986 C3009 0.948 . S
H2987 C3015 0.982 . S
H2988 C3016 0.979 . S
H2989 C3016 0.980 . S
H2990 C3016 0.983 . S
H2991 C3015 0.979 . S
H2992 C3015 0.977 . S
C2993 C2981 1.453 . S
C2993 H3022 0.982 . S
C2993 H3023 0.979 . S
C2993 H3024 0.977 . S
C2994 C2981 1.684 . S
C2994 H3019 0.979 . S
C2994 H3020 0.980 . S
C2994 H3021 0.983 . S
C2995 C2996 1.391 . S
C2995 C3000 1.391 . S
C2995 H3025 0.948 . S
C2996 C2995 1.391 . S
C2996 C2997 1.391 . S
C2997 C2996 1.391 . S
C2997 C2998 1.392 . S
C2997 H3026 0.947 . S
C2998 C2997 1.392 . S
C2998 C2999 1.419 . S
C2998 H3027 0.948 . S
C2999 C2998 1.419 . S
C2999 C3000 1.391 . S
C2999 C3003 1.397 . S
C3000 C2995 1.391 . S
C3000 C2999 1.391 . S
C3000 C3001 1.399 . S
C3001 C3000 1.399 . S
C3001 C3002 1.396 . S
C3001 C3004 1.453 . S
C3001 C3005 1.684 . S
C3002 C2983 1.723 . S
C3002 C3001 1.396 . S
C3002 C3003 1.394 . S
C3003 C2999 1.397 . S
C3003 C3002 1.394 . S
C3003 C3013 1.723 . S
C3004 C3001 1.453 . S
C3004 H3028 0.982 . S
C3004 H3029 0.979 . S
C3004 H3030 0.977 . S
C3005 C3001 1.684 . S
C3005 H3031 0.979 . S
C3005 H3032 0.980 . S
C3005 H3033 0.983 . S
C3006 H2982 0.948 . S
C3006 C3007 1.391 . S
C3006 C3011 1.391 . S
C3007 C3006 1.391 . S
C3007 C3008 1.391 . S
C3008 H2985 0.947 . S
C3008 C3007 1.391 . S
C3008 C3009 1.392 . S
C3009 H2986 0.948 . S
C3009 C3008 1.392 . S
C3009 C3010 1.419 . S
C3010 C3009 1.419 . S
C3010 C3011 1.391 . S
C3010 C3014 1.397 . S
C3011 C3006 1.391 . S
C3011 C3010 1.391 . S
C3011 C3012 1.399 . S
C3012 C3011 1.399 . S
C3012 C3013 1.396 . S
C3012 C3015 1.453 . S
C3012 C3016 1.684 . S
C3013 C3003 1.723 . S
C3013 C3012 1.396 . S
C3013 C3014 1.394 . S
C3014 C2984 1.723 . S
C3014 C3010 1.397 . S
C3014 C3013 1.394 . S
C3015 H2987 0.982 . S
C3015 H2991 0.979 . S
C3015 H2992 0.977 . S
C3015 C3012 1.453 . S
C3016 H2988 0.979 . S
C3016 H2989 0.980 . S
C3016 H2990 0.983 . S
C3016 C3012 1.684 . S
H3017 C3035 0.948 . S
H3018 C2976 0.948 . S
H3019 C2994 0.979 . S
H3020 C2994 0.980 . S
H3021 C2994 0.983 . S
H3022 C2993 0.982 . S
H3023 C2993 0.979 . S
H3024 C2993 0.977 . S
H3025 C2995 0.948 . S
H3026 C2997 0.947 . S
H3027 C2998 0.948 . S
H3028 C3004 0.982 . S
H3029 C3004 0.979 . S
H3030 C3004 0.977 . S
H3031 C3005 0.979 . S
H3032 C3005 0.980 . S
H3033 C3005 0.983 . S
H3034 C2978 0.947 . S
C3035 C2978 1.392 . S
C3035 C2979 1.419 . S
C3035 H3017 0.948 . S
C3036 C3037 1.391 . S
C3036 C3040 1.391 . S
C3036 H3078 0.948 . S
C3037 C3036 1.391 . S
C3037 C3038 1.391 . S
C3038 C3037 1.391 . S
C3038 H3094 0.947 . S
C3038 C3095 1.392 . S
C3039 C3040 1.391 . S
C3039 C3043 1.397 . S
C3039 C3095 1.419 . S
C3040 C3036 1.391 . S
C3040 C3039 1.391 . S
C3040 C3041 1.399 . S
C3041 C3040 1.399 . S
C3041 C3044 1.396 . S
C3041 C3053 1.453 . S
C3041 C3054 1.684 . S
H3042 C3066 0.948 . S
C3043 C3039 1.397 . S
C3043 C3044 1.394 . S
C3043 C3062 1.723 . S
C3044 C3041 1.396 . S
C3044 C3043 1.394 . S
C3044 C3074 1.723 . S
H3045 C3068 0.947 . S
H3046 C3069 0.948 . S
H3047 C3075 0.982 . S
H3048 C3076 0.979 . S
H3049 C3076 0.980 . S
H3050 C3076 0.983 . S
H3051 C3075 0.979 . S
H3052 C3075 0.977 . S
C3053 C3041 1.453 . S
C3053 H3082 0.982 . S
C3053 H3083 0.979 . S
C3053 H3084 0.977 . S
C3054 C3041 1.684 . S
C3054 H3079 0.979 . S
C3054 H3080 0.980 . S
C3054 H3081 0.983 . S
C3055 C3056 1.391 . S
C3055 C3060 1.391 . S
C3055 H3085 0.948 . S
C3056 C3055 1.391 . S
C3056 C3057 1.391 . S
C3057 C3056 1.391 . S
C3057 C3058 1.392 . S
C3057 H3086 0.947 . S
C3058 C3057 1.392 . S
C3058 C3059 1.419 . S
C3058 H3087 0.948 . S
C3059 C3058 1.419 . S
C3059 C3060 1.391 . S
C3059 C3063 1.397 . S
C3060 C3055 1.391 . S
C3060 C3059 1.391 . S
C3060 C3061 1.399 . S
C3061 C3060 1.399 . S
C3061 C3062 1.396 . S
C3061 C3064 1.453 . S
C3061 C3065 1.684 . S
C3062 C3043 1.723 . S
C3062 C3061 1.396 . S
C3062 C3063 1.394 . S
C3063 C3059 1.397 . S
C3063 C3062 1.394 . S
C3063 C3073 1.723 . S
C3064 C3061 1.453 . S
C3064 H3088 0.982 . S
C3064 H3089 0.979 . S
C3064 H3090 0.977 . S
C3065 C3061 1.684 . S
C3065 H3091 0.979 . S
C3065 H3092 0.980 . S
C3065 H3093 0.983 . S
C3066 H3042 0.948 . S
C3066 C3067 1.391 . S
C3066 C3071 1.391 . S
C3067 C3066 1.391 . S
C3067 C3068 1.391 . S
C3068 H3045 0.947 . S
C3068 C3067 1.391 . S
C3068 C3069 1.392 . S
C3069 H3046 0.948 . S
C3069 C3068 1.392 . S
C3069 C3070 1.419 . S
C3070 C3069 1.419 . S
C3070 C3071 1.391 . S
C3070 C3074 1.397 . S
C3071 C3066 1.391 . S
C3071 C3070 1.391 . S
C3071 C3072 1.399 . S
C3072 C3071 1.399 . S
C3072 C3073 1.396 . S
C3072 C3075 1.453 . S
C3072 C3076 1.684 . S
C3073 C3063 1.723 . S
C3073 C3072 1.396 . S
C3073 C3074 1.394 . S
C3074 C3044 1.723 . S
C3074 C3070 1.397 . S
C3074 C3073 1.394 . S
C3075 H3047 0.982 . S
C3075 H3051 0.979 . S
C3075 H3052 0.977 . S
C3075 C3072 1.453 . S
C3076 H3048 0.979 . S
C3076 H3049 0.980 . S
C3076 H3050 0.983 . S
C3076 C3072 1.684 . S
H3077 C3095 0.948 . S
H3078 C3036 0.948 . S
H3079 C3054 0.979 . S
H3080 C3054 0.980 . S
H3081 C3054 0.983 . S
H3082 C3053 0.982 . S
H3083 C3053 0.979 . S
H3084 C3053 0.977 . S
H3085 C3055 0.948 . S
H3086 C3057 0.947 . S
H3087 C3058 0.948 . S
H3088 C3064 0.982 . S
H3089 C3064 0.979 . S
H3090 C3064 0.977 . S
H3091 C3065 0.979 . S
H3092 C3065 0.980 . S
H3093 C3065 0.983 . S
H3094 C3038 0.947 . S
C3095 C3038 1.392 . S
C3095 C3039 1.419 . S
C3095 H3077 0.948 . S
C3096 C3097 1.391 . S
C3096 C3100 1.391 . S
C3096 H3138 0.948 . S
C3097 C3096 1.391 . S
C3097 C3098 1.391 . S
C3098 C3097 1.391 . S
C3098 H3154 0.947 . S
C3098 C3155 1.392 . S
C3099 C3100 1.391 . S
C3099 C3103 1.397 . S
C3099 C3155 1.419 . S
C3100 C3096 1.391 . S
C3100 C3099 1.391 . S
C3100 C3101 1.399 . S
C3101 C3100 1.399 . S
C3101 C3104 1.396 . S
C3101 C3113 1.453 . S
C3101 C3114 1.684 . S
H3102 C3126 0.948 . S
C3103 C3099 1.397 . S
C3103 C3104 1.394 . S
C3103 C3122 1.723 . S
C3104 C3101 1.396 . S
C3104 C3103 1.394 . S
C3104 C3134 1.723 . S
H3105 C3128 0.947 . S
H3106 C3129 0.948 . S
H3107 C3135 0.982 . S
H3108 C3136 0.979 . S
H3109 C3136 0.980 . S
H3110 C3136 0.983 . S
H3111 C3135 0.979 . S
H3112 C3135 0.977 . S
C3113 C3101 1.453 . S
C3113 H3142 0.982 . S
C3113 H3143 0.979 . S
C3113 H3144 0.977 . S
C3114 C3101 1.684 . S
C3114 H3139 0.979 . S
C3114 H3140 0.980 . S
C3114 H3141 0.983 . S
C3115 C3116 1.391 . S
C3115 C3120 1.391 . S
C3115 H3145 0.948 . S
C3116 C3115 1.391 . S
C3116 C3117 1.391 . S
C3117 C3116 1.391 . S
C3117 C3118 1.392 . S
C3117 H3146 0.947 . S
C3118 C3117 1.392 . S
C3118 C3119 1.419 . S
C3118 H3147 0.948 . S
C3119 C3118 1.419 . S
C3119 C3120 1.391 . S
C3119 C3123 1.397 . S
C3120 C3115 1.391 . S
C3120 C3119 1.391 . S
C3120 C3121 1.399 . S
C3121 C3120 1.399 . S
C3121 C3122 1.396 . S
C3121 C3124 1.453 . S
C3121 C3125 1.684 . S
C3122 C3103 1.723 . S
C3122 C3121 1.396 . S
C3122 C3123 1.394 . S
C3123 C3119 1.397 . S
C3123 C3122 1.394 . S
C3123 C3133 1.723 . S
C3124 C3121 1.453 . S
C3124 H3148 0.982 . S
C3124 H3149 0.979 . S
C3124 H3150 0.977 . S
C3125 C3121 1.684 . S
C3125 H3151 0.979 . S
C3125 H3152 0.980 . S
C3125 H3153 0.983 . S
C3126 H3102 0.948 . S
C3126 C3127 1.391 . S
C3126 C3131 1.391 . S
C3127 C3126 1.391 . S
C3127 C3128 1.391 . S
C3128 H3105 0.947 . S
C3128 C3127 1.391 . S
C3128 C3129 1.392 . S
C3129 H3106 0.948 . S
C3129 C3128 1.392 . S
C3129 C3130 1.419 . S
C3130 C3129 1.419 . S
C3130 C3131 1.391 . S
C3130 C3134 1.397 . S
C3131 C3126 1.391 . S
C3131 C3130 1.391 . S
C3131 C3132 1.399 . S
C3132 C3131 1.399 . S
C3132 C3133 1.396 . S
C3132 C3135 1.453 . S
C3132 C3136 1.684 . S
C3133 C3123 1.723 . S
C3133 C3132 1.396 . S
C3133 C3134 1.394 . S
C3134 C3104 1.723 . S
C3134 C3130 1.397 . S
C3134 C3133 1.394 . S
C3135 H3107 0.982 . S
C3135 H3111 0.979 . S
C3135 H3112 0.977 . S
C3135 C3132 1.453 . S
C3136 H3108 0.979 . S
C3136 H3109 0.980 . S
C3136 H3110 0.983 . S
C3136 C3132 1.684 . S
H3137 C3155 0.948 . S
H3138 C3096 0.948 . S
H3139 C3114 0.979 . S
H3140 C3114 0.980 . S
H3141 C3114 0.983 . S
H3142 C3113 0.982 . S
H3143 C3113 0.979 . S
H3144 C3113 0.977 . S
H3145 C3115 0.948 . S
H3146 C3117 0.947 . S
H3147 C3118 0.948 . S
H3148 C3124 0.982 . S
H3149 C3124 0.979 . S
H3150 C3124 0.977 . S
H3151 C3125 0.979 . S
H3152 C3125 0.980 . S
H3153 C3125 0.983 . S
H3154 C3098 0.947 . S
C3155 C3098 1.392 . S
C3155 C3099 1.419 . S
C3155 H3137 0.948 . S
C3156 C3157 1.391 . S
C3156 C3160 1.391 . S
C3156 H3198 0.948 . S
C3157 C3156 1.391 . S
C3157 C3158 1.391 . S
C3158 C3157 1.391 . S
C3158 H3214 0.947 . S
C3158 C3215 1.392 . S
C3159 C3160 1.391 . S
C3159 C3163 1.397 . S
C3159 C3215 1.419 . S
C3160 C3156 1.391 . S
C3160 C3159 1.391 . S
C3160 C3161 1.399 . S
C3161 C3160 1.399 . S
C3161 C3164 1.396 . S
C3161 C3173 1.453 . S
C3161 C3174 1.684 . S
H3162 C3186 0.948 . S
C3163 C3159 1.397 . S
C3163 C3164 1.394 . S
C3163 C3182 1.723 . S
C3164 C3161 1.396 . S
C3164 C3163 1.394 . S
C3164 C3194 1.723 . S
H3165 C3188 0.947 . S
H3166 C3189 0.948 . S
H3167 C3195 0.982 . S
H3168 C3196 0.979 . S
H3169 C3196 0.980 . S
H3170 C3196 0.983 . S
H3171 C3195 0.979 . S
H3172 C3195 0.977 . S
C3173 C3161 1.453 . S
C3173 H3202 0.982 . S
C3173 H3203 0.979 . S
C3173 H3204 0.977 . S
C3174 C3161 1.684 . S
C3174 H3199 0.979 . S
C3174 H3200 0.980 . S
C3174 H3201 0.983 . S
C3175 C3176 1.391 . S
C3175 C3180 1.391 . S
C3175 H3205 0.948 . S
C3176 C3175 1.391 . S
C3176 C3177 1.391 . S
C3177 C3176 1.391 . S
C3177 C3178 1.392 . S
C3177 H3206 0.947 . S
C3178 C3177 1.392 . S
C3178 C3179 1.419 . S
C3178 H3207 0.948 . S
C3179 C3178 1.419 . S
C3179 C3180 1.391 . S
C3179 C3183 1.397 . S
C3180 C3175 1.391 . S
C3180 C3179 1.391 . S
C3180 C3181 1.399 . S
C3181 C3180 1.399 . S
C3181 C3182 1.396 . S
C3181 C3184 1.453 . S
C3181 C3185 1.684 . S
C3182 C3163 1.723 . S
C3182 C3181 1.396 . S
C3182 C3183 1.394 . S
C3183 C3179 1.397 . S
C3183 C3182 1.394 . S
C3183 C3193 1.723 . S
C3184 C3181 1.453 . S
C3184 H3208 0.982 . S
C3184 H3209 0.979 . S
C3184 H3210 0.977 . S
C3185 C3181 1.684 . S
C3185 H3211 0.979 . S
C3185 H3212 0.980 . S
C3185 H3213 0.983 . S
C3186 H3162 0.948 . S
C3186 C3187 1.391 . S
C3186 C3191 1.391 . S
C3187 C3186 1.391 . S
C3187 C3188 1.391 . S
C3188 H3165 0.947 . S
C3188 C3187 1.391 . S
C3188 C3189 1.392 . S
C3189 H3166 0.948 . S
C3189 C3188 1.392 . S
C3189 C3190 1.419 . S
C3190 C3189 1.419 . S
C3190 C3191 1.391 . S
C3190 C3194 1.397 . S
C3191 C3186 1.391 . S
C3191 C3190 1.391 . S
C3191 C3192 1.399 . S
C3192 C3191 1.399 . S
C3192 C3193 1.396 . S
C3192 C3195 1.453 . S
C3192 C3196 1.684 . S
C3193 C3183 1.723 . S
C3193 C3192 1.396 . S
C3193 C3194 1.394 . S
C3194 C3164 1.723 . S
C3194 C3190 1.397 . S
C3194 C3193 1.394 . S
C3195 H3167 0.982 . S
C3195 H3171 0.979 . S
C3195 H3172 0.977 . S
C3195 C3192 1.453 . S
C3196 H3168 0.979 . S
C3196 H3169 0.980 . S
C3196 H3170 0.983 . S
C3196 C3192 1.684 . S
H3197 C3215 0.948 . S
H3198 C3156 0.948 . S
H3199 C3174 0.979 . S
H3200 C3174 0.980 . S
H3201 C3174 0.983 . S
H3202 C3173 0.982 . S
H3203 C3173 0.979 . S
H3204 C3173 0.977 . S
H3205 C3175 0.948 . S
H3206 C3177 0.947 . S
H3207 C3178 0.948 . S
H3208 C3184 0.982 . S
H3209 C3184 0.979 . S
H3210 C3184 0.977 . S
H3211 C3185 0.979 . S
H3212 C3185 0.980 . S
H3213 C3185 0.983 . S
H3214 C3158 0.947 . S
C3215 C3158 1.392 . S
C3215 C3159 1.419 . S
C3215 H3197 0.948 . S
C3216 C3217 1.391 . S
C3216 C3220 1.391 . S
C3216 H3258 0.948 . S
C3217 C3216 1.391 . S
C3217 C3218 1.391 . S
C3218 C3217 1.391 . S
C3218 H3274 0.947 . S
C3218 C3275 1.392 . S
C3219 C3220 1.391 . S
C3219 C3223 1.397 . S
C3219 C3275 1.419 . S
C3220 C3216 1.391 . S
C3220 C3219 1.391 . S
C3220 C3221 1.399 . S
C3221 C3220 1.399 . S
C3221 C3224 1.396 . S
C3221 C3233 1.453 . S
C3221 C3234 1.684 . S
H3222 C3246 0.948 . S
C3223 C3219 1.397 . S
C3223 C3224 1.394 . S
C3223 C3242 1.723 . S
C3224 C3221 1.396 . S
C3224 C3223 1.394 . S
C3224 C3254 1.723 . S
H3225 C3248 0.947 . S
H3226 C3249 0.948 . S
H3227 C3255 0.982 . S
H3228 C3256 0.979 . S
H3229 C3256 0.980 . S
H3230 C3256 0.983 . S
H3231 C3255 0.979 . S
H3232 C3255 0.977 . S
C3233 C3221 1.453 . S
C3233 H3262 0.982 . S
C3233 H3263 0.979 . S
C3233 H3264 0.977 . S
C3234 C3221 1.684 . S
C3234 H3259 0.979 . S
C3234 H3260 0.980 . S
C3234 H3261 0.983 . S
C3235 C3236 1.391 . S
C3235 C3240 1.391 . S
C3235 H3265 0.948 . S
C3236 C3235 1.391 . S
C3236 C3237 1.391 . S
C3237 C3236 1.391 . S
C3237 C3238 1.392 . S
C3237 H3266 0.947 . S
C3238 C3237 1.392 . S
C3238 C3239 1.419 . S
C3238 H3267 0.948 . S
C3239 C3238 1.419 . S
C3239 C3240 1.391 . S
C3239 C3243 1.397 . S
C3240 C3235 1.391 . S
C3240 C3239 1.391 . S
C3240 C3241 1.399 . S
C3241 C3240 1.399 . S
C3241 C3242 1.396 . S
C3241 C3244 1.453 . S
C3241 C3245 1.684 . S
C3242 C3223 1.723 . S
C3242 C3241 1.396 . S
C3242 C3243 1.394 . S
C3243 C3239 1.397 . S
C3243 C3242 1.394 . S
C3243 C3253 1.723 . S
C3244 C3241 1.453 . S
C3244 H3268 0.982 . S
C3244 H3269 0.979 . S
C3244 H3270 0.977 . S
C3245 C3241 1.684 . S
C3245 H3271 0.979 . S
C3245 H3272 0.980 . S
C3245 H3273 0.983 . S
C3246 H3222 0.948 . S
C3246 C3247 1.391 . S
C3246 C3251 1.391 . S
C3247 C3246 1.391 . S
C3247 C3248 1.391 . S
C3248 H3225 0.947 . S
C3248 C3247 1.391 . S
C3248 C3249 1.392 . S
C3249 H3226 0.948 . S
C3249 C3248 1.392 . S
C3249 C3250 1.419 . S
C3250 C3249 1.419 . S
C3250 C3251 1.391 . S
C3250 C3254 1.397 . S
C3251 C3246 1.391 . S
C3251 C3250 1.391 . S
C3251 C3252 1.399 . S
C3252 C3251 1.399 . S
C3252 C3253 1.396 . S
C3252 C3255 1.453 . S
C3252 C3256 1.684 . S
C3253 C3243 1.723 . S
C3253 C3252 1.396 . S
C3253 C3254 1.394 . S
C3254 C3224 1.723 . S
C3254 C3250 1.397 . S
C3254 C3253 1.394 . S
C3255 H3227 0.982 . S
C3255 H3231 0.979 . S
C3255 H3232 0.977 . S
C3255 C3252 1.453 . S
C3256 H3228 0.979 . S
C3256 H3229 0.980 . S
C3256 H3230 0.983 . S
C3256 C3252 1.684 . S
H3257 C3275 0.948 . S
H3258 C3216 0.948 . S
H3259 C3234 0.979 . S
H3260 C3234 0.980 . S
H3261 C3234 0.983 . S
H3262 C3233 0.982 . S
H3263 C3233 0.979 . S
H3264 C3233 0.977 . S
H3265 C3235 0.948 . S
H3266 C3237 0.947 . S
H3267 C3238 0.948 . S
H3268 C3244 0.982 . S
H3269 C3244 0.979 . S
H3270 C3244 0.977 . S
H3271 C3245 0.979 . S
H3272 C3245 0.980 . S
H3273 C3245 0.983 . S
H3274 C3218 0.947 . S
C3275 C3218 1.392 . S
C3275 C3219 1.419 . S
C3275 H3257 0.948 . S
C3276 C3277 1.391 . S
C3276 C3280 1.391 . S
C3276 H3318 0.948 . S
C3277 C3276 1.391 . S
C3277 C3278 1.391 . S
C3278 C3277 1.391 . S
C3278 H3334 0.947 . S
C3278 C3335 1.392 . S
C3279 C3280 1.391 . S
C3279 C3283 1.397 . S
C3279 C3335 1.419 . S
C3280 C3276 1.391 . S
C3280 C3279 1.391 . S
C3280 C3281 1.399 . S
C3281 C3280 1.399 . S
C3281 C3284 1.396 . S
C3281 C3293 1.453 . S
C3281 C3294 1.684 . S
H3282 C3306 0.948 . S
C3283 C3279 1.397 . S
C3283 C3284 1.394 . S
C3283 C3302 1.723 . S
C3284 C3281 1.396 . S
C3284 C3283 1.394 . S
C3284 C3314 1.723 . S
H3285 C3308 0.947 . S
H3286 C3309 0.948 . S
H3287 C3315 0.982 . S
H3288 C3316 0.979 . S
H3289 C3316 0.980 . S
H3290 C3316 0.983 . S
H3291 C3315 0.979 . S
H3292 C3315 0.977 . S
C3293 C3281 1.453 . S
C3293 H3322 0.982 . S
C3293 H3323 0.979 . S
C3293 H3324 0.977 . S
C3294 C3281 1.684 . S
C3294 H3319 0.979 . S
C3294 H3320 0.980 . S
C3294 H3321 0.983 . S
C3295 C3296 1.391 . S
C3295 C3300 1.391 . S
C3295 H3325 0.948 . S
C3296 C3295 1.391 . S
C3296 C3297 1.391 . S
C3297 C3296 1.391 . S
C3297 C3298 1.392 . S
C3297 H3326 0.947 . S
C3298 C3297 1.392 . S
C3298 C3299 1.419 . S
C3298 H3327 0.948 . S
C3299 C3298 1.419 . S
C3299 C3300 1.391 . S
C3299 C3303 1.397 . S
C3300 C3295 1.391 . S
C3300 C3299 1.391 . S
C3300 C3301 1.399 . S
C3301 C3300 1.399 . S
C3301 C3302 1.396 . S
C3301 C3304 1.453 . S
C3301 C3305 1.684 . S
C3302 C3283 1.723 . S
C3302 C3301 1.396 . S
C3302 C3303 1.394 . S
C3303 C3299 1.397 . S
C3303 C3302 1.394 . S
C3303 C3313 1.723 . S
C3304 C3301 1.453 . S
C3304 H3328 0.982 . S
C3304 H3329 0.979 . S
C3304 H3330 0.977 . S
C3305 C3301 1.684 . S
C3305 H3331 0.979 . S
C3305 H3332 0.980 . S
C3305 H3333 0.983 . S
C3306 H3282 0.948 . S
C3306 C3307 1.391 . S
C3306 C3311 1.391 . S
C3307 C3306 1.391 . S
C3307 C3308 1.391 . S
C3308 H3285 0.947 . S
C3308 C3307 1.391 . S
C3308 C3309 1.392 . S
C3309 H3286 0.948 . S
C3309 C3308 1.392 . S
C3309 C3310 1.419 . S
C3310 C3309 1.419 . S
C3310 C3311 1.391 . S
C3310 C3314 1.397 . S
C3311 C3306 1.391 . S
C3311 C3310 1.391 . S
C3311 C3312 1.399 . S
C3312 C3311 1.399 . S
C3312 C3313 1.396 . S
C3312 C3315 1.453 . S
C3312 C3316 1.684 . S
C3313 C3303 1.723 . S
C3313 C3312 1.396 . S
C3313 C3314 1.394 . S
C3314 C3284 1.723 . S
C3314 C3310 1.397 . S
C3314 C3313 1.394 . S
C3315 H3287 0.982 . S
C3315 H3291 0.979 . S
C3315 H3292 0.977 . S
C3315 C3312 1.453 . S
C3316 H3288 0.979 . S
C3316 H3289 0.980 . S
C3316 H3290 0.983 . S
C3316 C3312 1.684 . S
H3317 C3335 0.948 . S
H3318 C3276 0.948 . S
H3319 C3294 0.979 . S
H3320 C3294 0.980 . S
H3321 C3294 0.983 . S
H3322 C3293 0.982 . S
H3323 C3293 0.979 . S
H3324 C3293 0.977 . S
H3325 C3295 0.948 . S
H3326 C3297 0.947 . S
H3327 C3298 0.948 . S
H3328 C3304 0.982 . S
H3329 C3304 0.979 . S
H3330 C3304 0.977 . S
H3331 C3305 0.979 . S
H3332 C3305 0.980 . S
H3333 C3305 0.983 . S
H3334 C3278 0.947 . S
C3335 C3278 1.392 . S
C3335 C3279 1.419 . S
C3335 H3317 0.948 . S
C3336 C3337 1.391 . S
C3336 C3340 1.391 . S
C3336 H3378 0.948 . S
C3337 C3336 1.391 . S
C3337 C3338 1.391 . S
C3338 C3337 1.391 . S
C3338 H3394 0.947 . S
C3338 C3395 1.392 . S
C3339 C3340 1.391 . S
C3339 C3343 1.397 . S
C3339 C3395 1.419 . S
C3340 C3336 1.391 . S
C3340 C3339 1.391 . S
C3340 C3341 1.399 . S
C3341 C3340 1.399 . S
C3341 C3344 1.396 . S
C3341 C3353 1.453 . S
C3341 C3354 1.684 . S
H3342 C3366 0.948 . S
C3343 C3339 1.397 . S
C3343 C3344 1.394 . S
C3343 C3362 1.723 . S
C3344 C3341 1.396 . S
C3344 C3343 1.394 . S
C3344 C3374 1.723 . S
H3345 C3368 0.947 . S
H3346 C3369 0.948 . S
H3347 C3375 0.982 . S
H3348 C3376 0.979 . S
H3349 C3376 0.980 . S
H3350 C3376 0.983 . S
H3351 C3375 0.979 . S
H3352 C3375 0.977 . S
C3353 C3341 1.453 . S
C3353 H3382 0.982 . S
C3353 H3383 0.979 . S
C3353 H3384 0.977 . S
C3354 C3341 1.684 . S
C3354 H3379 0.979 . S
C3354 H3380 0.980 . S
C3354 H3381 0.983 . S
C3355 C3356 1.391 . S
C3355 C3360 1.391 . S
C3355 H3385 0.948 . S
C3356 C3355 1.391 . S
C3356 C3357 1.391 . S
C3357 C3356 1.391 . S
C3357 C3358 1.392 . S
C3357 H3386 0.947 . S
C3358 C3357 1.392 . S
C3358 C3359 1.419 . S
C3358 H3387 0.948 . S
C3359 C3358 1.419 . S
C3359 C3360 1.391 . S
C3359 C3363 1.397 . S
C3360 C3355 1.391 . S
C3360 C3359 1.391 . S
C3360 C3361 1.399 . S
C3361 C3360 1.399 . S
C3361 C3362 1.396 . S
C3361 C3364 1.453 . S
C3361 C3365 1.684 . S
C3362 C3343 1.723 . S
C3362 C3361 1.396 . S
C3362 C3363 1.394 . S
C3363 C3359 1.397 . S
C3363 C3362 1.394 . S
C3363 C3373 1.723 . S
C3364 C3361 1.453 . S
C3364 H3388 0.982 . S
C3364 H3389 0.979 . S
C3364 H3390 0.977 . S
C3365 C3361 1.684 . S
C3365 H3391 0.979 . S
C3365 H3392 0.980 . S
C3365 H3393 0.983 . S
C3366 H3342 0.948 . S
C3366 C3367 1.391 . S
C3366 C3371 1.391 . S
C3367 C3366 1.391 . S
C3367 C3368 1.391 . S
C3368 H3345 0.947 . S
C3368 C3367 1.391 . S
C3368 C3369 1.392 . S
C3369 H3346 0.948 . S
C3369 C3368 1.392 . S
C3369 C3370 1.419 . S
C3370 C3369 1.419 . S
C3370 C3371 1.391 . S
C3370 C3374 1.397 . S
C3371 C3366 1.391 . S
C3371 C3370 1.391 . S
C3371 C3372 1.399 . S
C3372 C3371 1.399 . S
C3372 C3373 1.396 . S
C3372 C3375 1.453 . S
C3372 C3376 1.684 . S
C3373 C3363 1.723 . S
C3373 C3372 1.396 . S
C3373 C3374 1.394 . S
C3374 C3344 1.723 . S
C3374 C3370 1.397 . S
C3374 C3373 1.394 . S
C3375 H3347 0.982 . S
C3375 H3351 0.979 . S
C3375 H3352 0.977 . S
C3375 C3372 1.453 . S
C3376 H3348 0.979 . S
C3376 H3349 0.980 . S
C3376 H3350 0.983 . S
C3376 C3372 1.684 . S
H3377 C3395 0.948 . S
H3378 C3336 0.948 . S
H3379 C3354 0.979 . S
H3380 C3354 0.980 . S
H3381 C3354 0.983 . S
H3382 C3353 0.982 . S
H3383 C3353 0.979 . S
H3384 C3353 0.977 . S
H3385 C3355 0.948 . S
H3386 C3357 0.947 . S
H3387 C3358 0.948 . S
H3388 C3364 0.982 . S
H3389 C3364 0.979 . S
H3390 C3364 0.977 . S
H3391 C3365 0.979 . S
H3392 C3365 0.980 . S
H3393 C3365 0.983 . S
H3394 C3338 0.947 . S
C3395 C3338 1.392 . S
C3395 C3339 1.419 . S
C3395 H3377 0.948 . S
C3396 C3397 1.391 . S
C3396 C3400 1.391 . S
C3396 H3438 0.948 . S
C3397 C3396 1.391 . S
C3397 C3398 1.391 . S
C3398 C3397 1.391 . S
C3398 H3454 0.947 . S
C3398 C3455 1.392 . S
C3399 C3400 1.391 . S
C3399 C3403 1.397 . S
C3399 C3455 1.419 . S
C3400 C3396 1.391 . S
C3400 C3399 1.391 . S
C3400 C3401 1.399 . S
C3401 C3400 1.399 . S
C3401 C3404 1.396 . S
C3401 C3413 1.453 . S
C3401 C3414 1.684 . S
H3402 C3426 0.948 . S
C3403 C3399 1.397 . S
C3403 C3404 1.394 . S
C3403 C3422 1.723 . S
C3404 C3401 1.396 . S
C3404 C3403 1.394 . S
C3404 C3434 1.723 . S
H3405 C3428 0.947 . S
H3406 C3429 0.948 . S
H3407 C3435 0.982 . S
H3408 C3436 0.979 . S
H3409 C3436 0.980 . S
H3410 C3436 0.983 . S
H3411 C3435 0.979 . S
H3412 C3435 0.977 . S
C3413 C3401 1.453 . S
C3413 H3442 0.982 . S
C3413 H3443 0.979 . S
C3413 H3444 0.977 . S
C3414 C3401 1.684 . S
C3414 H3439 0.979 . S
C3414 H3440 0.980 . S
C3414 H3441 0.983 . S
C3415 C3416 1.391 . S
C3415 C3420 1.391 . S
C3415 H3445 0.948 . S
C3416 C3415 1.391 . S
C3416 C3417 1.391 . S
C3417 C3416 1.391 . S
C3417 C3418 1.392 . S
C3417 H3446 0.947 . S
C3418 C3417 1.392 . S
C3418 C3419 1.419 . S
C3418 H3447 0.948 . S
C3419 C3418 1.419 . S
C3419 C3420 1.391 . S
C3419 C3423 1.397 . S
C3420 C3415 1.391 . S
C3420 C3419 1.391 . S
C3420 C3421 1.399 . S
C3421 C3420 1.399 . S
C3421 C3422 1.396 . S
C3421 C3424 1.453 . S
C3421 C3425 1.684 . S
C3422 C3403 1.723 . S
C3422 C3421 1.396 . S
C3422 C3423 1.394 . S
C3423 C3419 1.397 . S
C3423 C3422 1.394 . S
C3423 C3433 1.723 . S
C3424 C3421 1.453 . S
C3424 H3448 0.982 . S
C3424 H3449 0.979 . S
C3424 H3450 0.977 . S
C3425 C3421 1.684 . S
C3425 H3451 0.979 . S
C3425 H3452 0.980 . S
C3425 H3453 0.983 . S
C3426 H3402 0.948 . S
C3426 C3427 1.391 . S
C3426 C3431 1.391 . S
C3427 C3426 1.391 . S
C3427 C3428 1.391 . S
C3428 H3405 0.947 . S
C3428 C3427 1.391 . S
C3428 C3429 1.392 . S
C3429 H3406 0.948 . S
C3429 C3428 1.392 . S
C3429 C3430 1.419 . S
C3430 C3429 1.419 . S
C3430 C3431 1.391 . S
C3430 C3434 1.397 . S
C3431 C3426 1.391 . S
C3431 C3430 1.391 . S
C3431 C3432 1.399 . S
C3432 C3431 1.399 . S
C3432 C3433 1.396 . S
C3432 C3435 1.453 . S
C3432 C3436 1.684 . S
C3433 C3423 1.723 . S
C3433 C3432 1.396 . S
C3433 C3434 1.394 . S
C3434 C3404 1.723 . S
C3434 C3430 1.397 . S
C3434 C3433 1.394 . S
C3435 H3407 0.982 . S
C3435 H3411 0.979 . S
C3435 H3412 0.977 . S
C3435 C3432 1.453 . S
C3436 H3408 0.979 . S
C3436 H3409 0.980 . S
C3436 H3410 0.983 . S
C3436 C3432 1.684 . S
H3437 C3455 0.948 . S
H3438 C3396 0.948 . S
H3439 C3414 0.979 . S
H3440 C3414 0.980 . S
H3441 C3414 0.983 . S
H3442 C3413 0.982 . S
H3443 C3413 0.979 . S
H3444 C3413 0.977 . S
H3445 C3415 0.948 . S
H3446 C3417 0.947 . S
H3447 C3418 0.948 . S
H3448 C3424 0.982 . S
H3449 C3424 0.979 . S
H3450 C3424 0.977 . S
H3451 C3425 0.979 . S
H3452 C3425 0.980 . S
H3453 C3425 0.983 . S
H3454 C3398 0.947 . S
C3455 C3398 1.392 . S
C3455 C3399 1.419 . S
C3455 H3437 0.948 . S
C3456 C3457 1.391 . S
C3456 C3460 1.391 . S
C3456 H3498 0.948 . S
C3457 C3456 1.391 . S
C3457 C3458 1.391 . S
C3458 C3457 1.391 . S
C3458 H3514 0.947 . S
C3458 C3515 1.392 . S
C3459 C3460 1.391 . S
C3459 C3463 1.397 . S
C3459 C3515 1.419 . S
C3460 C3456 1.391 . S
C3460 C3459 1.391 . S
C3460 C3461 1.399 . S
C3461 C3460 1.399 . S
C3461 C3464 1.396 . S
C3461 C3473 1.453 . S
C3461 C3474 1.684 . S
H3462 C3486 0.948 . S
C3463 C3459 1.397 . S
C3463 C3464 1.394 . S
C3463 C3482 1.723 . S
C3464 C3461 1.396 . S
C3464 C3463 1.394 . S
C3464 C3494 1.723 . S
H3465 C3488 0.947 . S
H3466 C3489 0.948 . S
H3467 C3495 0.982 . S
H3468 C3496 0.979 . S
H3469 C3496 0.980 . S
H3470 C3496 0.983 . S
H3471 C3495 0.979 . S
H3472 C3495 0.977 . S
C3473 C3461 1.453 . S
C3473 H3502 0.982 . S
C3473 H3503 0.979 . S
C3473 H3504 0.977 . S
C3474 C3461 1.684 . S
C3474 H3499 0.979 . S
C3474 H3500 0.980 . S
C3474 H3501 0.983 . S
C3475 C3476 1.391 . S
C3475 C3480 1.391 . S
C3475 H3505 0.948 . S
C3476 C3475 1.391 . S
C3476 C3477 1.391 . S
C3477 C3476 1.391 . S
C3477 C3478 1.392 . S
C3477 H3506 0.947 . S
C3478 C3477 1.392 . S
C3478 C3479 1.419 . S
C3478 H3507 0.948 . S
C3479 C3478 1.419 . S
C3479 C3480 1.391 . S
C3479 C3483 1.397 . S
C3480 C3475 1.391 . S
C3480 C3479 1.391 . S
C3480 C3481 1.399 . S
C3481 C3480 1.399 . S
C3481 C3482 1.396 . S
C3481 C3484 1.453 . S
C3481 C3485 1.684 . S
C3482 C3463 1.723 . S
C3482 C3481 1.396 . S
C3482 C3483 1.394 . S
C3483 C3479 1.397 . S
C3483 C3482 1.394 . S
C3483 C3493 1.723 . S
C3484 C3481 1.453 . S
C3484 H3508 0.982 . S
C3484 H3509 0.979 . S
C3484 H3510 0.977 . S
C3485 C3481 1.684 . S
C3485 H3511 0.979 . S
C3485 H3512 0.980 . S
C3485 H3513 0.983 . S
C3486 H3462 0.948 . S
C3486 C3487 1.391 . S
C3486 C3491 1.391 . S
C3487 C3486 1.391 . S
C3487 C3488 1.391 . S
C3488 H3465 0.947 . S
C3488 C3487 1.391 . S
C3488 C3489 1.392 . S
C3489 H3466 0.948 . S
C3489 C3488 1.392 . S
C3489 C3490 1.419 . S
C3490 C3489 1.419 . S
C3490 C3491 1.391 . S
C3490 C3494 1.397 . S
C3491 C3486 1.391 . S
C3491 C3490 1.391 . S
C3491 C3492 1.399 . S
C3492 C3491 1.399 . S
C3492 C3493 1.396 . S
C3492 C3495 1.453 . S
C3492 C3496 1.684 . S
C3493 C3483 1.723 . S
C3493 C3492 1.396 . S
C3493 C3494 1.394 . S
C3494 C3464 1.723 . S
C3494 C3490 1.397 . S
C3494 C3493 1.394 . S
C3495 H3467 0.982 . S
C3495 H3471 0.979 . S
C3495 H3472 0.977 . S
C3495 C3492 1.453 . S
C3496 H3468 0.979 . S
C3496 H3469 0.980 . S
C3496 H3470 0.983 . S
C3496 C3492 1.684 . S
H3497 C3515 0.948 . S
H3498 C3456 0.948 . S
H3499 C3474 0.979 . S
H3500 C3474 0.980 . S
H3501 C3474 0.983 . S
H3502 C3473 0.982 . S
H3503 C3473 0.979 . S
H3504 C3473 0.977 . S
H3505 C3475 0.948 . S
H3506 C3477 0.947 . S
H3507 C3478 0.948 . S
H3508 C3484 0.982 . S
H3509 C3484 0.979 . S
H3510 C3484 0.977 . S
H3511 C3485 0.979 . S
H3512 C3485 0.980 . S
H3513 C3485 0.983 . S
H3514 C3458 0.947 . S
C3515 C3458 1.392 . S
C3515 C3459 1.419 . S
C3515 H3497 0.948 . S
C3516 C3517 1.391 . S
C3516 C3520 1.391 . S
C3516 H3558 0.948 . S
C3517 C3516 1.391 . S
C3517 C3518 1.391 . S
C3518 C3517 1.391 . S
C3518 H3574 0.947 . S
C3518 C3575 1.392 . S
C3519 C3520 1.391 . S
C3519 C3523 1.397 . S
C3519 C3575 1.419 . S
C3520 C3516 1.391 . S
C3520 C3519 1.391 . S
C3520 C3521 1.399 . S
C3521 C3520 1.399 . S
C3521 C3524 1.396 . S
C3521 C3533 1.453 . S
C3521 C3534 1.684 . S
H3522 C3546 0.948 . S
C3523 C3519 1.397 . S
C3523 C3524 1.394 . S
C3523 C3542 1.723 . S
C3524 C3521 1.396 . S
C3524 C3523 1.394 . S
C3524 C3554 1.723 . S
H3525 C3548 0.947 . S
H3526 C3549 0.948 . S
H3527 C3555 0.982 . S
H3528 C3556 0.979 . S
H3529 C3556 0.980 . S
H3530 C3556 0.983 . S
H3531 C3555 0.979 . S
H3532 C3555 0.977 . S
C3533 C3521 1.453 . S
C3533 H3562 0.982 . S
C3533 H3563 0.979 . S
C3533 H3564 0.977 . S
C3534 C3521 1.684 . S
C3534 H3559 0.979 . S
C3534 H3560 0.980 . S
C3534 H3561 0.983 . S
C3535 C3536 1.391 . S
C3535 C3540 1.391 . S
C3535 H3565 0.948 . S
C3536 C3535 1.391 . S
C3536 C3537 1.391 . S
C3537 C3536 1.391 . S
C3537 C3538 1.392 . S
C3537 H3566 0.947 . S
C3538 C3537 1.392 . S
C3538 C3539 1.419 . S
C3538 H3567 0.948 . S
C3539 C3538 1.419 . S
C3539 C3540 1.391 . S
C3539 C3543 1.397 . S
C3540 C3535 1.391 . S
C3540 C3539 1.391 . S
C3540 C3541 1.399 . S
C3541 C3540 1.399 . S
C3541 C3542 1.396 . S
C3541 C3544 1.453 . S
C3541 C3545 1.684 . S
C3542 C3523 1.723 . S
C3542 C3541 1.396 . S
C3542 C3543 1.394 . S
C3543 C3539 1.397 . S
C3543 C3542 1.394 . S
C3543 C3553 1.723 . S
C3544 C3541 1.453 . S
C3544 H3568 0.982 . S
C3544 H3569 0.979 . S
C3544 H3570 0.977 . S
C3545 C3541 1.684 . S
C3545 H3571 0.979 . S
C3545 H3572 0.980 . S
C3545 H3573 0.983 . S
C3546 H3522 0.948 . S
C3546 C3547 1.391 . S
C3546 C3551 1.391 . S
C3547 C3546 1.391 . S
C3547 C3548 1.391 . S
C3548 H3525 0.947 . S
C3548 C3547 1.391 . S
C3548 C3549 1.392 . S
C3549 H3526 0.948 . S
C3549 C3548 1.392 . S
C3549 C3550 1.419 . S
C3550 C3549 1.419 . S
C3550 C3551 1.391 . S
C3550 C3554 1.397 . S
C3551 C3546 1.391 . S
C3551 C3550 1.391 . S
C3551 C3552 1.399 . S
C3552 C3551 1.399 . S
C3552 C3553 1.396 . S
C3552 C3555 1.453 . S
C3552 C3556 1.684 . S
C3553 C3543 1.723 . S
C3553 C3552 1.396 . S
C3553 C3554 1.394 . S
C3554 C3524 1.723 . S
C3554 C3550 1.397 . S
C3554 C3553 1.394 . S
C3555 H3527 0.982 . S
C3555 H3531 0.979 . S
C3555 H3532 0.977 . S
C3555 C3552 1.453 . S
C3556 H3528 0.979 . S
C3556 H3529 0.980 . S
C3556 H3530 0.983 . S
C3556 C3552 1.684 . S
H3557 C3575 0.948 . S
H3558 C3516 0.948 . S
H3559 C3534 0.979 . S
H3560 C3534 0.980 . S
H3561 C3534 0.983 . S
H3562 C3533 0.982 . S
H3563 C3533 0.979 . S
H3564 C3533 0.977 . S
H3565 C3535 0.948 . S
H3566 C3537 0.947 . S
H3567 C3538 0.948 . S
H3568 C3544 0.982 . S
H3569 C3544 0.979 . S
H3570 C3544 0.977 . S
H3571 C3545 0.979 . S
H3572 C3545 0.980 . S
H3573 C3545 0.983 . S
H3574 C3518 0.947 . S
C3575 C3518 1.392 . S
C3575 C3519 1.419 . S
C3575 H3557 0.948 . S
C3576 C3577 1.391 . S
C3576 C3580 1.391 . S
C3576 H3618 0.948 . S
C3577 C3576 1.391 . S
C3577 C3578 1.391 . S
C3578 C3577 1.391 . S
C3578 H3634 0.947 . S
C3578 C3635 1.392 . S
C3579 C3580 1.391 . S
C3579 C3583 1.397 . S
C3579 C3635 1.419 . S
C3580 C3576 1.391 . S
C3580 C3579 1.391 . S
C3580 C3581 1.399 . S
C3581 C3580 1.399 . S
C3581 C3584 1.396 . S
C3581 C3593 1.453 . S
C3581 C3594 1.684 . S
H3582 C3606 0.948 . S
C3583 C3579 1.397 . S
C3583 C3584 1.394 . S
C3583 C3602 1.723 . S
C3584 C3581 1.396 . S
C3584 C3583 1.394 . S
C3584 C3614 1.723 . S
H3585 C3608 0.947 . S
H3586 C3609 0.948 . S
H3587 C3615 0.982 . S
H3588 C3616 0.979 . S
H3589 C3616 0.980 . S
H3590 C3616 0.983 . S
H3591 C3615 0.979 . S
H3592 C3615 0.977 . S
C3593 C3581 1.453 . S
C3593 H3622 0.982 . S
C3593 H3623 0.979 . S
C3593 H3624 0.977 . S
C3594 C3581 1.684 . S
C3594 H3619 0.979 . S
C3594 H3620 0.980 . S
C3594 H3621 0.983 . S
C3595 C3596 1.391 . S
C3595 C3600 1.391 . S
C3595 H3625 0.948 . S
C3596 C3595 1.391 . S
C3596 C3597 1.391 . S
C3597 C3596 1.391 . S
C3597 C3598 1.392 . S
C3597 H3626 0.947 . S
C3598 C3597 1.392 . S
C3598 C3599 1.419 . S
C3598 H3627 0.948 . S
C3599 C3598 1.419 . S
C3599 C3600 1.391 . S
C3599 C3603 1.397 . S
C3600 C3595 1.391 . S
C3600 C3599 1.391 . S
C3600 C3601 1.399 . S
C3601 C3600 1.399 . S
C3601 C3602 1.396 . S
C3601 C3604 1.453 . S
C3601 C3605 1.684 . S
C3602 C3583 1.723 . S
C3602 C3601 1.396 . S
C3602 C3603 1.394 . S
C3603 C3599 1.397 . S
C3603 C3602 1.394 . S
C3603 C3613 1.723 . S
C3604 C3601 1.453 . S
C3604 H3628 0.982 . S
C3604 H3629 0.979 . S
C3604 H3630 0.977 . S
C3605 C3601 1.684 . S
C3605 H3631 0.979 . S
C3605 H3632 0.980 . S
C3605 H3633 0.983 . S
C3606 H3582 0.948 . S
C3606 C3607 1.391 . S
C3606 C3611 1.391 . S
C3607 C3606 1.391 . S
C3607 C3608 1.391 . S
C3608 H3585 0.947 . S
C3608 C3607 1.391 . S
C3608 C3609 1.392 . S
C3609 H3586 0.948 . S
C3609 C3608 1.392 . S
C3609 C3610 1.419 . S
C3610 C3609 1.419 . S
C3610 C3611 1.391 . S
C3610 C3614 1.397 . S
C3611 C3606 1.391 . S
C3611 C3610 1.391 . S
C3611 C3612 1.399 . S
C3612 C3611 1.399 . S
C3612 C3613 1.396 . S
C3612 C3615 1.453 . S
C3612 C3616 1.684 . S
C3613 C3603 1.723 . S
C3613 C3612 1.396 . S
C3613 C3614 1.394 . S
C3614 C3584 1.723 . S
C3614 C3610 1.397 . S
C3614 C3613 1.394 . S
C3615 H3587 0.982 . S
C3615 H3591 0.979 . S
C3615 H3592 0.977 . S
C3615 C3612 1.453 . S
C3616 H3588 0.979 . S
C3616 H3589 0.980 . S
C3616 H3590 0.983 . S
C3616 C3612 1.684 . S
H3617 C3635 0.948 . S
H3618 C3576 0.948 . S
H3619 C3594 0.979 . S
H3620 C3594 0.980 . S
H3621 C3594 0.983 . S
H3622 C3593 0.982 . S
H3623 C3593 0.979 . S
H3624 C3593 0.977 . S
H3625 C3595 0.948 . S
H3626 C3597 0.947 . S
H3627 C3598 0.948 . S
H3628 C3604 0.982 . S
H3629 C3604 0.979 . S
H3630 C3604 0.977 . S
H3631 C3605 0.979 . S
H3632 C3605 0.980 . S
H3633 C3605 0.983 . S
H3634 C3578 0.947 . S
C3635 C3578 1.392 . S
C3635 C3579 1.419 . S
C3635 H3617 0.948 . S
C3636 C3637 1.391 . S
C3636 C3640 1.391 . S
C3636 H3678 0.948 . S
C3637 C3636 1.391 . S
C3637 C3638 1.391 . S
C3638 C3637 1.391 . S
C3638 H3694 0.947 . S
C3638 C3695 1.392 . S
C3639 C3640 1.391 . S
C3639 C3643 1.397 . S
C3639 C3695 1.419 . S
C3640 C3636 1.391 . S
C3640 C3639 1.391 . S
C3640 C3641 1.399 . S
C3641 C3640 1.399 . S
C3641 C3644 1.396 . S
C3641 C3653 1.453 . S
C3641 C3654 1.684 . S
H3642 C3666 0.948 . S
C3643 C3639 1.397 . S
C3643 C3644 1.394 . S
C3643 C3662 1.723 . S
C3644 C3641 1.396 . S
C3644 C3643 1.394 . S
C3644 C3674 1.723 . S
H3645 C3668 0.947 . S
H3646 C3669 0.948 . S
H3647 C3675 0.982 . S
H3648 C3676 0.979 . S
H3649 C3676 0.980 . S
H3650 C3676 0.983 . S
H3651 C3675 0.979 . S
H3652 C3675 0.977 . S
C3653 C3641 1.453 . S
C3653 H3682 0.982 . S
C3653 H3683 0.979 . S
C3653 H3684 0.977 . S
C3654 C3641 1.684 . S
C3654 H3679 0.979 . S
C3654 H3680 0.980 . S
C3654 H3681 0.983 . S
C3655 C3656 1.391 . S
C3655 C3660 1.391 . S
C3655 H3685 0.948 . S
C3656 C3655 1.391 . S
C3656 C3657 1.391 . S
C3657 C3656 1.391 . S
C3657 C3658 1.392 . S
C3657 H3686 0.947 . S
C3658 C3657 1.392 . S
C3658 C3659 1.419 . S
C3658 H3687 0.948 . S
C3659 C3658 1.419 . S
C3659 C3660 1.391 . S
C3659 C3663 1.397 . S
C3660 C3655 1.391 . S
C3660 C3659 1.391 . S
C3660 C3661 1.399 . S
C3661 C3660 1.399 . S
C3661 C3662 1.396 . S
C3661 C3664 1.453 . S
C3661 C3665 1.684 . S
C3662 C3643 1.723 . S
C3662 C3661 1.396 . S
C3662 C3663 1.394 . S
C3663 C3659 1.397 . S
C3663 C3662 1.394 . S
C3663 C3673 1.723 . S
C3664 C3661 1.453 . S
C3664 H3688 0.982 . S
C3664 H3689 0.979 . S
C3664 H3690 0.977 . S
C3665 C3661 1.684 . S
C3665 H3691 0.979 . S
C3665 H3692 0.980 . S
C3665 H3693 0.983 . S
C3666 H3642 0.948 . S
C3666 C3667 1.391 . S
C3666 C3671 1.391 . S
C3667 C3666 1.391 . S
C3667 C3668 1.391 . S
C3668 H3645 0.947 . S
C3668 C3667 1.391 . S
C3668 C3669 1.392 . S
C3669 H3646 0.948 . S
C3669 C3668 1.392 . S
C3669 C3670 1.419 . S
C3670 C3669 1.419 . S
C3670 C3671 1.391 . S
C3670 C3674 1.397 . S
C3671 C3666 1.391 . S
C3671 C3670 1.391 . S
C3671 C3672 1.399 . S
C3672 C3671 1.399 . S
C3672 C3673 1.396 . S
C3672 C3675 1.453 . S
C3672 C3676 1.684 . S
C3673 C3663 1.723 . S
C3673 C3672 1.396 . S
C3673 C3674 1.394 . S
C3674 C3644 1.723 . S
C3674 C3670 1.397 . S
C3674 C3673 1.394 . S
C3675 H3647 0.982 . S
C3675 H3651 0.979 . S
C3675 H3652 0.977 . S
C3675 C3672 1.453 . S
C3676 H3648 0.979 . S
C3676 H3649 0.980 . S
C3676 H3650 0.983 . S
C3676 C3672 1.684 . S
H3677 C3695 0.948 . S
H3678 C3636 0.948 . S
H3679 C3654 0.979 . S
H3680 C3654 0.980 . S
H3681 C3654 0.983 . S
H3682 C3653 0.982 . S
H3683 C3653 0.979 . S
H3684 C3653 0.977 . S
H3685 C3655 0.948 . S
H3686 C3657 0.947 . S
H3687 C3658 0.948 . S
H3688 C3664 0.982 . S
H3689 C3664 0.979 . S
H3690 C3664 0.977 . S
H3691 C3665 0.979 . S
H3692 C3665 0.980 . S
H3693 C3665 0.983 . S
H3694 C3638 0.947 . S
C3695 C3638 1.392 . S
C3695 C3639 1.419 . S
C3695 H3677 0.948 . S
C3696 C3697 1.391 . S
C3696 C3700 1.391 . S
C3696 H3738 0.948 . S
C3697 C3696 1.391 . S
C3697 C3698 1.391 . S
C3698 C3697 1.391 . S
C3698 H3754 0.947 . S
C3698 C3755 1.392 . S
C3699 C3700 1.391 . S
C3699 C3703 1.397 . S
C3699 C3755 1.419 . S
C3700 C3696 1.391 . S
C3700 C3699 1.391 . S
C3700 C3701 1.399 . S
C3701 C3700 1.399 . S
C3701 C3704 1.396 . S
C3701 C3713 1.453 . S
C3701 C3714 1.684 . S
H3702 C3726 0.948 . S
C3703 C3699 1.397 . S
C3703 C3704 1.394 . S
C3703 C3722 1.723 . S
C3704 C3701 1.396 . S
C3704 C3703 1.394 . S
C3704 C3734 1.723 . S
H3705 C3728 0.947 . S
H3706 C3729 0.948 . S
H3707 C3735 0.982 . S
H3708 C3736 0.979 . S
H3709 C3736 0.980 . S
H3710 C3736 0.983 . S
H3711 C3735 0.979 . S
H3712 C3735 0.977 . S
C3713 C3701 1.453 . S
C3713 H3742 0.982 . S
C3713 H3743 0.979 . S
C3713 H3744 0.977 . S
C3714 C3701 1.684 . S
C3714 H3739 0.979 . S
C3714 H3740 0.980 . S
C3714 H3741 0.983 . S
C3715 C3716 1.391 . S
C3715 C3720 1.391 . S
C3715 H3745 0.948 . S
C3716 C3715 1.391 . S
C3716 C3717 1.391 . S
C3717 C3716 1.391 . S
C3717 C3718 1.392 . S
C3717 H3746 0.947 . S
C3718 C3717 1.392 . S
C3718 C3719 1.419 . S
C3718 H3747 0.948 . S
C3719 C3718 1.419 . S
C3719 C3720 1.391 . S
C3719 C3723 1.397 . S
C3720 C3715 1.391 . S
C3720 C3719 1.391 . S
C3720 C3721 1.399 . S
C3721 C3720 1.399 . S
C3721 C3722 1.396 . S
C3721 C3724 1.453 . S
C3721 C3725 1.684 . S
C3722 C3703 1.723 . S
C3722 C3721 1.396 . S
C3722 C3723 1.394 . S
C3723 C3719 1.397 . S
C3723 C3722 1.394 . S
C3723 C3733 1.723 . S
C3724 C3721 1.453 . S
C3724 H3748 0.982 . S
C3724 H3749 0.979 . S
C3724 H3750 0.977 . S
C3725 C3721 1.684 . S
C3725 H3751 0.979 . S
C3725 H3752 0.980 . S
C3725 H3753 0.983 . S
C3726 H3702 0.948 . S
C3726 C3727 1.391 . S
C3726 C3731 1.391 . S
C3727 C3726 1.391 . S
C3727 C3728 1.391 . S
C3728 H3705 0.947 . S
C3728 C3727 1.391 . S
C3728 C3729 1.392 . S
C3729 H3706 0.948 . S
C3729 C3728 1.392 . S
C3729 C3730 1.419 . S
C3730 C3729 1.419 . S
C3730 C3731 1.391 . S
C3730 C3734 1.397 . S
C3731 C3726 1.391 . S
C3731 C3730 1.391 . S
C3731 C3732 1.399 . S
C3732 C3731 1.399 . S
C3732 C3733 1.396 . S
C3732 C3735 1.453 . S
C3732 C3736 1.684 . S
C3733 C3723 1.723 . S
C3733 C3732 1.396 . S
C3733 C3734 1.394 . S
C3734 C3704 1.723 . S
C3734 C3730 1.397 . S
C3734 C3733 1.394 . S
C3735 H3707 0.982 . S
C3735 H3711 0.979 . S
C3735 H3712 0.977 . S
C3735 C3732 1.453 . S
C3736 H3708 0.979 . S
C3736 H3709 0.980 . S
C3736 H3710 0.983 . S
C3736 C3732 1.684 . S
H3737 C3755 0.948 . S
H3738 C3696 0.948 . S
H3739 C3714 0.979 . S
H3740 C3714 0.980 . S
H3741 C3714 0.983 . S
H3742 C3713 0.982 . S
H3743 C3713 0.979 . S
H3744 C3713 0.977 . S
H3745 C3715 0.948 . S
H3746 C3717 0.947 . S
H3747 C3718 0.948 . S
H3748 C3724 0.982 . S
H3749 C3724 0.979 . S
H3750 C3724 0.977 . S
H3751 C3725 0.979 . S
H3752 C3725 0.980 . S
H3753 C3725 0.983 . S
H3754 C3698 0.947 . S
C3755 C3698 1.392 . S
C3755 C3699 1.419 . S
C3755 H3737 0.948 . S
C3756 C3757 1.391 . S
C3756 C3760 1.391 . S
C3756 H3798 0.948 . S
C3757 C3756 1.391 . S
C3757 C3758 1.391 . S
C3758 C3757 1.391 . S
C3758 H3814 0.947 . S
C3758 C3815 1.392 . S
C3759 C3760 1.391 . S
C3759 C3763 1.397 . S
C3759 C3815 1.419 . S
C3760 C3756 1.391 . S
C3760 C3759 1.391 . S
C3760 C3761 1.399 . S
C3761 C3760 1.399 . S
C3761 C3764 1.396 . S
C3761 C3773 1.453 . S
C3761 C3774 1.684 . S
H3762 C3786 0.948 . S
C3763 C3759 1.397 . S
C3763 C3764 1.394 . S
C3763 C3782 1.723 . S
C3764 C3761 1.396 . S
C3764 C3763 1.394 . S
C3764 C3794 1.723 . S
H3765 C3788 0.947 . S
H3766 C3789 0.948 . S
H3767 C3795 0.982 . S
H3768 C3796 0.979 . S
H3769 C3796 0.980 . S
H3770 C3796 0.983 . S
H3771 C3795 0.979 . S
H3772 C3795 0.977 . S
C3773 C3761 1.453 . S
C3773 H3802 0.982 . S
C3773 H3803 0.979 . S
C3773 H3804 0.977 . S
C3774 C3761 1.684 . S
C3774 H3799 0.979 . S
C3774 H3800 0.980 . S
C3774 H3801 0.983 . S
C3775 C3776 1.391 . S
C3775 C3780 1.391 . S
C3775 H3805 0.948 . S
C3776 C3775 1.391 . S
C3776 C3777 1.391 . S
C3777 C3776 1.391 . S
C3777 C3778 1.392 . S
C3777 H3806 0.947 . S
C3778 C3777 1.392 . S
C3778 C3779 1.419 . S
C3778 H3807 0.948 . S
C3779 C3778 1.419 . S
C3779 C3780 1.391 . S
C3779 C3783 1.397 . S
C3780 C3775 1.391 . S
C3780 C3779 1.391 . S
C3780 C3781 1.399 . S
C3781 C3780 1.399 . S
C3781 C3782 1.396 . S
C3781 C3784 1.453 . S
C3781 C3785 1.684 . S
C3782 C3763 1.723 . S
C3782 C3781 1.396 . S
C3782 C3783 1.394 . S
C3783 C3779 1.397 . S
C3783 C3782 1.394 . S
C3783 C3793 1.723 . S
C3784 C3781 1.453 . S
C3784 H3808 0.982 . S
C3784 H3809 0.979 . S
C3784 H3810 0.977 . S
C3785 C3781 1.684 . S
C3785 H3811 0.979 . S
C3785 H3812 0.980 . S
C3785 H3813 0.983 . S
C3786 H3762 0.948 . S
C3786 C3787 1.391 . S
C3786 C3791 1.391 . S
C3787 C3786 1.391 . S
C3787 C3788 1.391 . S
C3788 H3765 0.947 . S
C3788 C3787 1.391 . S
C3788 C3789 1.392 . S
C3789 H3766 0.948 . S
C3789 C3788 1.392 . S
C3789 C3790 1.419 . S
C3790 C3789 1.419 . S
C3790 C3791 1.391 . S
C3790 C3794 1.397 . S
C3791 C3786 1.391 . S
C3791 C3790 1.391 . S
C3791 C3792 1.399 . S
C3792 C3791 1.399 . S
C3792 C3793 1.396 . S
C3792 C3795 1.453 . S
C3792 C3796 1.684 . S
C3793 C3783 1.723 . S
C3793 C3792 1.396 . S
C3793 C3794 1.394 . S
C3794 C3764 1.723 . S
C3794 C3790 1.397 . S
C3794 C3793 1.394 . S
C3795 H3767 0.982 . S
C3795 H3771 0.979 . S
C3795 H3772 0.977 . S
C3795 C3792 1.453 . S
C3796 H3768 0.979 . S
C3796 H3769 0.980 . S
C3796 H3770 0.983 . S
C3796 C3792 1.684 . S
H3797 C3815 0.948 . S
H3798 C3756 0.948 . S
H3799 C3774 0.979 . S
H3800 C3774 0.980 . S
H3801 C3774 0.983 . S
H3802 C3773 0.982 . S
H3803 C3773 0.979 . S
H3804 C3773 0.977 . S
H3805 C3775 0.948 . S
H3806 C3777 0.947 . S
H3807 C3778 0.948 . S
H3808 C3784 0.982 . S
H3809 C3784 0.979 . S
H3810 C3784 0.977 . S
H3811 C3785 0.979 . S
H3812 C3785 0.980 . S
H3813 C3785 0.983 . S
H3814 C3758 0.947 . S
C3815 C3758 1.392 . S
C3815 C3759 1.419 . S
C3815 H3797 0.948 . S
C3816 C3817 1.391 . S
C3816 C3820 1.391 . S
C3816 H3858 0.948 . S
C3817 C3816 1.391 . S
C3817 C3818 1.391 . S
C3818 C3817 1.391 . S
C3818 H3874 0.947 . S
C3818 C3875 1.392 . S
C3819 C3820 1.391 . S
C3819 C3823 1.397 . S
C3819 C3875 1.419 . S
C3820 C3816 1.391 . S
C3820 C3819 1.391 . S
C3820 C3821 1.399 . S
C3821 C3820 1.399 . S
C3821 C3824 1.396 . S
C3821 C3833 1.453 . S
C3821 C3834 1.684 . S
H3822 C3846 0.948 . S
C3823 C3819 1.397 . S
C3823 C3824 1.394 . S
C3823 C3842 1.723 . S
C3824 C3821 1.396 . S
C3824 C3823 1.394 . S
C3824 C3854 1.723 . S
H3825 C3848 0.947 . S
H3826 C3849 0.948 . S
H3827 C3855 0.982 . S
H3828 C3856 0.979 . S
H3829 C3856 0.980 . S
H3830 C3856 0.983 . S
H3831 C3855 0.979 . S
H3832 C3855 0.977 . S
C3833 C3821 1.453 . S
C3833 H3862 0.982 . S
C3833 H3863 0.979 . S
C3833 H3864 0.977 . S
C3834 C3821 1.684 . S
C3834 H3859 0.979 . S
C3834 H3860 0.980 . S
C3834 H3861 0.983 . S
C3835 C3836 1.391 . S
C3835 C3840 1.391 . S
C3835 H3865 0.948 . S
C3836 C3835 1.391 . S
C3836 C3837 1.391 . S
C3837 C3836 1.391 . S
C3837 C3838 1.392 . S
C3837 H3866 0.947 . S
C3838 C3837 1.392 . S
C3838 C3839 1.419 . S
C3838 H3867 0.948 . S
C3839 C3838 1.419 . S
C3839 C3840 1.391 . S
C3839 C3843 1.397 . S
C3840 C3835 1.391 . S
C3840 C3839 1.391 . S
C3840 C3841 1.399 . S
C3841 C3840 1.399 . S
C3841 C3842 1.396 . S
C3841 C3844 1.453 . S
C3841 C3845 1.684 . S
C3842 C3823 1.723 . S
C3842 C3841 1.396 . S
C3842 C3843 1.394 . S
C3843 C3839 1.397 . S
C3843 C3842 1.394 . S
C3843 C3853 1.723 . S
C3844 C3841 1.453 . S
C3844 H3868 0.982 . S
C3844 H3869 0.979 . S
C3844 H3870 0.977 . S
C3845 C3841 1.684 . S
C3845 H3871 0.979 . S
C3845 H3872 0.980 . S
C3845 H3873 0.983 . S
C3846 H3822 0.948 . S
C3846 C3847 1.391 . S
C3846 C3851 1.391 . S
C3847 C3846 1.391 . S
C3847 C3848 1.391 . S
C3848 H3825 0.947 . S
C3848 C3847 1.391 . S
C3848 C3849 1.392 . S
C3849 H3826 0.948 . S
C3849 C3848 1.392 . S
C3849 C3850 1.419 . S
C3850 C3849 1.419 . S
C3850 C3851 1.391 . S
C3850 C3854 1.397 . S
C3851 C3846 1.391 . S
C3851 C3850 1.391 . S
C3851 C3852 1.399 . S
C3852 C3851 1.399 . S
C3852 C3853 1.396 . S
C3852 C3855 1.453 . S
C3852 C3856 1.684 . S
C3853 C3843 1.723 . S
C3853 C3852 1.396 . S
C3853 C3854 1.394 . S
C3854 C3824 1.723 . S
C3854 C3850 1.397 . S
C3854 C3853 1.394 . S
C3855 H3827 0.982 . S
C3855 H3831 0.979 . S
C3855 H3832 0.977 . S
C3855 C3852 1.453 . S
C3856 H3828 0.979 . S
C3856 H3829 0.980 . S
C3856 H3830 0.983 . S
C3856 C3852 1.684 . S
H3857 C3875 0.948 . S
H3858 C3816 0.948 . S
H3859 C3834 0.979 . S
H3860 C3834 0.980 . S
H3861 C3834 0.983 . S
H3862 C3833 0.982 . S
H3863 C3833 0.979 . S
H3864 C3833 0.977 . S
H3865 C3835 0.948 . S
H3866 C3837 0.947 . S
H3867 C3838 0.948 . S
H3868 C3844 0.982 . S
H3869 C3844 0.979 . S
H3870 C3844 0.977 . S
H3871 C3845 0.979 . S
H3872 C3845 0.980 . S
H3873 C3845 0.983 . S
H3874 C3818 0.947 . S
C3875 C3818 1.392 . S
C3875 C3819 1.419 . S
C3875 H3857 0.948 . S
C3876 C3877 1.391 . S
C3876 C3880 1.391 . S
C3876 H3918 0.948 . S
C3877 C3876 1.391 . S
C3877 C3878 1.391 . S
C3878 C3877 1.391 . S
C3878 H3934 0.947 . S
C3878 C3935 1.392 . S
C3879 C3880 1.391 . S
C3879 C3883 1.397 . S
C3879 C3935 1.419 . S
C3880 C3876 1.391 . S
C3880 C3879 1.391 . S
C3880 C3881 1.399 . S
C3881 C3880 1.399 . S
C3881 C3884 1.396 . S
C3881 C3893 1.453 . S
C3881 C3894 1.684 . S
H3882 C3906 0.948 . S
C3883 C3879 1.397 . S
C3883 C3884 1.394 . S
C3883 C3902 1.723 . S
C3884 C3881 1.396 . S
C3884 C3883 1.394 . S
C3884 C3914 1.723 . S
H3885 C3908 0.947 . S
H3886 C3909 0.948 . S
H3887 C3915 0.982 . S
H3888 C3916 0.979 . S
H3889 C3916 0.980 . S
H3890 C3916 0.983 . S
H3891 C3915 0.979 . S
H3892 C3915 0.977 . S
C3893 C3881 1.453 . S
C3893 H3922 0.982 . S
C3893 H3923 0.979 . S
C3893 H3924 0.977 . S
C3894 C3881 1.684 . S
C3894 H3919 0.979 . S
C3894 H3920 0.980 . S
C3894 H3921 0.983 . S
C3895 C3896 1.391 . S
C3895 C3900 1.391 . S
C3895 H3925 0.948 . S
C3896 C3895 1.391 . S
C3896 C3897 1.391 . S
C3897 C3896 1.391 . S
C3897 C3898 1.392 . S
C3897 H3926 0.947 . S
C3898 C3897 1.392 . S
C3898 C3899 1.419 . S
C3898 H3927 0.948 . S
C3899 C3898 1.419 . S
C3899 C3900 1.391 . S
C3899 C3903 1.397 . S
C3900 C3895 1.391 . S
C3900 C3899 1.391 . S
C3900 C3901 1.399 . S
C3901 C3900 1.399 . S
C3901 C3902 1.396 . S
C3901 C3904 1.453 . S
C3901 C3905 1.684 . S
C3902 C3883 1.723 . S
C3902 C3901 1.396 . S
C3902 C3903 1.394 . S
C3903 C3899 1.397 . S
C3903 C3902 1.394 . S
C3903 C3913 1.723 . S
C3904 C3901 1.453 . S
C3904 H3928 0.982 . S
C3904 H3929 0.979 . S
C3904 H3930 0.977 . S
C3905 C3901 1.684 . S
C3905 H3931 0.979 . S
C3905 H3932 0.980 . S
C3905 H3933 0.983 . S
C3906 H3882 0.948 . S
C3906 C3907 1.391 . S
C3906 C3911 1.391 . S
C3907 C3906 1.391 . S
C3907 C3908 1.391 . S
C3908 H3885 0.947 . S
C3908 C3907 1.391 . S
C3908 C3909 1.392 . S
C3909 H3886 0.948 . S
C3909 C3908 1.392 . S
C3909 C3910 1.419 . S
C3910 C3909 1.419 . S
C3910 C3911 1.391 . S
C3910 C3914 1.397 . S
C3911 C3906 1.391 . S
C3911 C3910 1.391 . S
C3911 C3912 1.399 . S
C3912 C3911 1.399 . S
C3912 C3913 1.396 . S
C3912 C3915 1.453 . S
C3912 C3916 1.684 . S
C3913 C3903 1.723 . S
C3913 C3912 1.396 . S
C3913 C3914 1.394 . S
C3914 C3884 1.723 . S
C3914 C3910 1.397 . S
C3914 C3913 1.394 . S
C3915 H3887 0.982 . S
C3915 H3891 0.979 . S
C3915 H3892 0.977 . S
C3915 C3912 1.453 . S
C3916 H3888 0.979 . S
C3916 H3889 0.980 . S
C3916 H3890 0.983 . S
C3916 C3912 1.684 . S
H3917 C3935 0.948 . S
H3918 C3876 0.948 . S
H3919 C3894 0.979 . S
H3920 C3894 0.980 . S
H3921 C3894 0.983 . S
H3922 C3893 0.982 . S
H3923 C3893 0.979 . S
H3924 C3893 0.977 . S
H3925 C3895 0.948 . S
H3926 C3897 0.947 . S
H3927 C3898 0.948 . S
H3928 C3904 0.982 . S
H3929 C3904 0.979 . S
H3930 C3904 0.977 . S
H3931 C3905 0.979 . S
H3932 C3905 0.980 . S
H3933 C3905 0.983 . S
H3934 C3878 0.947 . S
C3935 C3878 1.392 . S
C3935 C3879 1.419 . S
C3935 H3917 0.948 . S
C3936 C3937 1.391 . S
C3936 C3940 1.391 . S
C3936 H3978 0.948 . S
C3937 C3936 1.391 . S
C3937 C3938 1.391 . S
C3938 C3937 1.391 . S
C3938 H3994 0.947 . S
C3938 C3995 1.392 . S
C3939 C3940 1.391 . S
C3939 C3943 1.397 . S
C3939 C3995 1.419 . S
C3940 C3936 1.391 . S
C3940 C3939 1.391 . S
C3940 C3941 1.399 . S
C3941 C3940 1.399 . S
C3941 C3944 1.396 . S
C3941 C3953 1.453 . S
C3941 C3954 1.684 . S
H3942 C3966 0.948 . S
C3943 C3939 1.397 . S
C3943 C3944 1.394 . S
C3943 C3962 1.723 . S
C3944 C3941 1.396 . S
C3944 C3943 1.394 . S
C3944 C3974 1.723 . S
H3945 C3968 0.947 . S
H3946 C3969 0.948 . S
H3947 C3975 0.982 . S
H3948 C3976 0.979 . S
H3949 C3976 0.980 . S
H3950 C3976 0.983 . S
H3951 C3975 0.979 . S
H3952 C3975 0.977 . S
C3953 C3941 1.453 . S
C3953 H3982 0.982 . S
C3953 H3983 0.979 . S
C3953 H3984 0.977 . S
C3954 C3941 1.684 . S
C3954 H3979 0.979 . S
C3954 H3980 0.980 . S
C3954 H3981 0.983 . S
C3955 C3956 1.391 . S
C3955 C3960 1.391 . S
C3955 H3985 0.948 . S
C3956 C3955 1.391 . S
C3956 C3957 1.391 . S
C3957 C3956 1.391 . S
C3957 C3958 1.392 . S
C3957 H3986 0.947 . S
C3958 C3957 1.392 . S
C3958 C3959 1.419 . S
C3958 H3987 0.948 . S
C3959 C3958 1.419 . S
C3959 C3960 1.391 . S
C3959 C3963 1.397 . S
C3960 C3955 1.391 . S
C3960 C3959 1.391 . S
C3960 C3961 1.399 . S
C3961 C3960 1.399 . S
C3961 C3962 1.396 . S
C3961 C3964 1.453 . S
C3961 C3965 1.684 . S
C3962 C3943 1.723 . S
C3962 C3961 1.396 . S
C3962 C3963 1.394 . S
C3963 C3959 1.397 . S
C3963 C3962 1.394 . S
C3963 C3973 1.723 . S
C3964 C3961 1.453 . S
C3964 H3988 0.982 . S
C3964 H3989 0.979 . S
C3964 H3990 0.977 . S
C3965 C3961 1.684 . S
C3965 H3991 0.979 . S
C3965 H3992 0.980 . S
C3965 H3993 0.983 . S
C3966 H3942 0.948 . S
C3966 C3967 1.391 . S
C3966 C3971 1.391 . S
C3967 C3966 1.391 . S
C3967 C3968 1.391 . S
C3968 H3945 0.947 . S
C3968 C3967 1.391 . S
C3968 C3969 1.392 . S
C3969 H3946 0.948 . S
C3969 C3968 1.392 . S
C3969 C3970 1.419 . S
C3970 C3969 1.419 . S
C3970 C3971 1.391 . S
C3970 C3974 1.397 . S
C3971 C3966 1.391 . S
C3971 C3970 1.391 . S
C3971 C3972 1.399 . S
C3972 C3971 1.399 . S
C3972 C3973 1.396 . S
C3972 C3975 1.453 . S
C3972 C3976 1.684 . S
C3973 C3963 1.723 . S
C3973 C3972 1.396 . S
C3973 C3974 1.394 . S
C3974 C3944 1.723 . S
C3974 C3970 1.397 . S
C3974 C3973 1.394 . S
C3975 H3947 0.982 . S
C3975 H3951 0.979 . S
C3975 H3952 0.977 . S
C3975 C3972 1.453 . S
C3976 H3948 0.979 . S
C3976 H3949 0.980 . S
C3976 H3950 0.983 . S
C3976 C3972 1.684 . S
H3977 C3995 0.948 . S
H3978 C3936 0.948 . S
H3979 C3954 0.979 . S
H3980 C3954 0.980 . S
H3981 C3954 0.983 . S
H3982 C3953 0.982 . S
H3983 C3953 0.979 . S
H3984 C3953 0.977 . S
H3985 C3955 0.948 . S
H3986 C3957 0.947 . S
H3987 C3958 0.948 . S
H3988 C3964 0.982 . S
H3989 C3964 0.979 . S
H3990 C3964 0.977 . S
H3991 C3965 0.979 . S
H3992 C3965 0.980 . S
H3993 C3965 0.983 . S
H3994 C3938 0.947 . S
C3995 C3938 1.392 . S
C3995 C3939 1.419 . S
C3995 H3977 0.948 . S
C3996 C3997 1.391 . S
C3996 C4000 1.391 . S
C3996 H4038 0.948 . S
C3997 C3996 1.391 . S
C3997 C3998 1.391 . S
C3998 C3997 1.391 . S
C3998 H4054 0.947 . S
C3998 C4055 1.392 . S
C3999 C4000 1.391 . S
C3999 C4003 1.397 . S
C3999 C4055 1.419 . S
C4000 C3996 1.391 . S
C4000 C3999 1.391 . S
C4000 C4001 1.399 . S
C4001 C4000 1.399 . S
C4001 C4004 1.396 . S
C4001 C4013 1.453 . S
C4001 C4014 1.684 . S
H4002 C4026 0.948 . S
C4003 C3999 1.397 . S
C4003 C4004 1.394 . S
C4003 C4022 1.723 . S
C4004 C4001 1.396 . S
C4004 C4003 1.394 . S
C4004 C4034 1.723 . S
H4005 C4028 0.947 . S
H4006 C4029 0.948 . S
H4007 C4035 0.982 . S
H4008 C4036 0.979 . S
H4009 C4036 0.980 . S
H4010 C4036 0.983 . S
H4011 C4035 0.979 . S
H4012 C4035 0.977 . S
C4013 C4001 1.453 . S
C4013 H4042 0.982 . S
C4013 H4043 0.979 . S
C4013 H4044 0.977 . S
C4014 C4001 1.684 . S
C4014 H4039 0.979 . S
C4014 H4040 0.980 . S
C4014 H4041 0.983 . S
C4015 C4016 1.391 . S
C4015 C4020 1.391 . S
C4015 H4045 0.948 . S
C4016 C4015 1.391 . S
C4016 C4017 1.391 . S
C4017 C4016 1.391 . S
C4017 C4018 1.392 . S
C4017 H4046 0.947 . S
C4018 C4017 1.392 . S
C4018 C4019 1.419 . S
C4018 H4047 0.948 . S
C4019 C4018 1.419 . S
C4019 C4020 1.391 . S
C4019 C4023 1.397 . S
C4020 C4015 1.391 . S
C4020 C4019 1.391 . S
C4020 C4021 1.399 . S
C4021 C4020 1.399 . S
C4021 C4022 1.396 . S
C4021 C4024 1.453 . S
C4021 C4025 1.684 . S
C4022 C4003 1.723 . S
C4022 C4021 1.396 . S
C4022 C4023 1.394 . S
C4023 C4019 1.397 . S
C4023 C4022 1.394 . S
C4023 C4033 1.723 . S
C4024 C4021 1.453 . S
C4024 H4048 0.982 . S
C4024 H4049 0.979 . S
C4024 H4050 0.977 . S
C4025 C4021 1.684 . S
C4025 H4051 0.979 . S
C4025 H4052 0.980 . S
C4025 H4053 0.983 . S
C4026 H4002 0.948 . S
C4026 C4027 1.391 . S
C4026 C4031 1.391 . S
C4027 C4026 1.391 . S
C4027 C4028 1.391 . S
C4028 H4005 0.947 . S
C4028 C4027 1.391 . S
C4028 C4029 1.392 . S
C4029 H4006 0.948 . S
C4029 C4028 1.392 . S
C4029 C4030 1.419 . S
C4030 C4029 1.419 . S
C4030 C4031 1.391 . S
C4030 C4034 1.397 . S
C4031 C4026 1.391 . S
C4031 C4030 1.391 . S
C4031 C4032 1.399 . S
C4032 C4031 1.399 . S
C4032 C4033 1.396 . S
C4032 C4035 1.453 . S
C4032 C4036 1.684 . S
C4033 C4023 1.723 . S
C4033 C4032 1.396 . S
C4033 C4034 1.394 . S
C4034 C4004 1.723 . S
C4034 C4030 1.397 . S
C4034 C4033 1.394 . S
C4035 H4007 0.982 . S
C4035 H4011 0.979 . S
C4035 H4012 0.977 . S
C4035 C4032 1.453 . S
C4036 H4008 0.979 . S
C4036 H4009 0.980 . S
C4036 H4010 0.983 . S
C4036 C4032 1.684 . S
H4037 C4055 0.948 . S
H4038 C3996 0.948 . S
H4039 C4014 0.979 . S
H4040 C4014 0.980 . S
H4041 C4014 0.983 . S
H4042 C4013 0.982 . S
H4043 C4013 0.979 . S
H4044 C4013 0.977 . S
H4045 C4015 0.948 . S
H4046 C4017 0.947 . S
H4047 C4018 0.948 . S
H4048 C4024 0.982 . S
H4049 C4024 0.979 . S
H4050 C4024 0.977 . S
H4051 C4025 0.979 . S
H4052 C4025 0.980 . S
H4053 C4025 0.983 . S
H4054 C3998 0.947 . S
C4055 C3998 1.392 . S
C4055 C3999 1.419 . S
C4055 H4037 0.948 . S
C4056 C4057 1.391 . S
C4056 C4060 1.391 . S
C4056 H4098 0.948 . S
C4057 C4056 1.391 . S
C4057 C4058 1.391 . S
C4058 C4057 1.391 . S
C4058 H4114 0.947 . S
C4058 C4115 1.392 . S
C4059 C4060 1.391 . S
C4059 C4063 1.397 . S
C4059 C4115 1.419 . S
C4060 C4056 1.391 . S
C4060 C4059 1.391 . S
C4060 C4061 1.399 . S
C4061 C4060 1.399 . S
C4061 C4064 1.396 . S
C4061 C4073 1.453 . S
C4061 C4074 1.684 . S
H4062 C4086 0.948 . S
C4063 C4059 1.397 . S
C4063 C4064 1.394 . S
C4063 C4082 1.723 . S
C4064 C4061 1.396 . S
C4064 C4063 1.394 . S
C4064 C4094 1.723 . S
H4065 C4088 0.947 . S
H4066 C4089 0.948 . S
H4067 C4095 0.982 . S
H4068 C4096 0.979 . S
H4069 C4096 0.980 . S
H4070 C4096 0.983 . S
H4071 C4095 0.979 . S
H4072 C4095 0.977 . S
C4073 C4061 1.453 . S
C4073 H4102 0.982 . S
C4073 H4103 0.979 . S
C4073 H4104 0.977 . S
C4074 C4061 1.684 . S
C4074 H4099 0.979 . S
C4074 H4100 0.980 . S
C4074 H4101 0.983 . S
C4075 C4076 1.391 . S
C4075 C4080 1.391 . S
C4075 H4105 0.948 . S
C4076 C4075 1.391 . S
C4076 C4077 1.391 . S
C4077 C4076 1.391 . S
C4077 C4078 1.392 . S
C4077 H4106 0.947 . S
C4078 C4077 1.392 . S
C4078 C4079 1.419 . S
C4078 H4107 0.948 . S
C4079 C4078 1.419 . S
C4079 C4080 1.391 . S
C4079 C4083 1.397 . S
C4080 C4075 1.391 . S
C4080 C4079 1.391 . S
C4080 C4081 1.399 . S
C4081 C4080 1.399 . S
C4081 C4082 1.396 . S
C4081 C4084 1.453 . S
C4081 C4085 1.684 . S
C4082 C4063 1.723 . S
C4082 C4081 1.396 . S
C4082 C4083 1.394 . S
C4083 C4079 1.397 . S
C4083 C4082 1.394 . S
C4083 C4093 1.723 . S
C4084 C4081 1.453 . S
C4084 H4108 0.982 . S
C4084 H4109 0.979 . S
C4084 H4110 0.977 . S
C4085 C4081 1.684 . S
C4085 H4111 0.979 . S
C4085 H4112 0.980 . S
C4085 H4113 0.983 . S
C4086 H4062 0.948 . S
C4086 C4087 1.391 . S
C4086 C4091 1.391 . S
C4087 C4086 1.391 . S
C4087 C4088 1.391 . S
C4088 H4065 0.947 . S
C4088 C4087 1.391 . S
C4088 C4089 1.392 . S
C4089 H4066 0.948 . S
C4089 C4088 1.392 . S
C4089 C4090 1.419 . S
C4090 C4089 1.419 . S
C4090 C4091 1.391 . S
C4090 C4094 1.397 . S
C4091 C4086 1.391 . S
C4091 C4090 1.391 . S
C4091 C4092 1.399 . S
C4092 C4091 1.399 . S
C4092 C4093 1.396 . S
C4092 C4095 1.453 . S
C4092 C4096 1.684 . S
C4093 C4083 1.723 . S
C4093 C4092 1.396 . S
C4093 C4094 1.394 . S
C4094 C4064 1.723 . S
C4094 C4090 1.397 . S
C4094 C4093 1.394 . S
C4095 H4067 0.982 . S
C4095 H4071 0.979 . S
C4095 H4072 0.977 . S
C4095 C4092 1.453 . S
C4096 H4068 0.979 . S
C4096 H4069 0.980 . S
C4096 H4070 0.983 . S
C4096 C4092 1.684 . S
H4097 C4115 0.948 . S
H4098 C4056 0.948 . S
H4099 C4074 0.979 . S
H4100 C4074 0.980 . S
H4101 C4074 0.983 . S
H4102 C4073 0.982 . S
H4103 C4073 0.979 . S
H4104 C4073 0.977 . S
H4105 C4075 0.948 . S
H4106 C4077 0.947 . S
H4107 C4078 0.948 . S
H4108 C4084 0.982 . S
H4109 C4084 0.979 . S
H4110 C4084 0.977 . S
H4111 C4085 0.979 . S
H4112 C4085 0.980 . S
H4113 C4085 0.983 . S
H4114 C4058 0.947 . S
C4115 C4058 1.392 . S
C4115 C4059 1.419 . S
C4115 H4097 0.948 . S
C4116 C4117 1.391 . S
C4116 C4120 1.391 . S
C4116 H4158 0.948 . S
C4117 C4116 1.391 . S
C4117 C4118 1.391 . S
C4118 C4117 1.391 . S
C4118 H4174 0.947 . S
C4118 C4175 1.392 . S
C4119 C4120 1.391 . S
C4119 C4123 1.397 . S
C4119 C4175 1.419 . S
C4120 C4116 1.391 . S
C4120 C4119 1.391 . S
C4120 C4121 1.399 . S
C4121 C4120 1.399 . S
C4121 C4124 1.396 . S
C4121 C4133 1.453 . S
C4121 C4134 1.684 . S
H4122 C4146 0.948 . S
C4123 C4119 1.397 . S
C4123 C4124 1.394 . S
C4123 C4142 1.723 . S
C4124 C4121 1.396 . S
C4124 C4123 1.394 . S
C4124 C4154 1.723 . S
H4125 C4148 0.947 . S
H4126 C4149 0.948 . S
H4127 C4155 0.982 . S
H4128 C4156 0.979 . S
H4129 C4156 0.980 . S
H4130 C4156 0.983 . S
H4131 C4155 0.979 . S
H4132 C4155 0.977 . S
C4133 C4121 1.453 . S
C4133 H4162 0.982 . S
C4133 H4163 0.979 . S
C4133 H4164 0.977 . S
C4134 C4121 1.684 . S
C4134 H4159 0.979 . S
C4134 H4160 0.980 . S
C4134 H4161 0.983 . S
C4135 C4136 1.391 . S
C4135 C4140 1.391 . S
C4135 H4165 0.948 . S
C4136 C4135 1.391 . S
C4136 C4137 1.391 . S
C4137 C4136 1.391 . S
C4137 C4138 1.392 . S
C4137 H4166 0.947 . S
C4138 C4137 1.392 . S
C4138 C4139 1.419 . S
C4138 H4167 0.948 . S
C4139 C4138 1.419 . S
C4139 C4140 1.391 . S
C4139 C4143 1.397 . S
C4140 C4135 1.391 . S
C4140 C4139 1.391 . S
C4140 C4141 1.399 . S
C4141 C4140 1.399 . S
C4141 C4142 1.396 . S
C4141 C4144 1.453 . S
C4141 C4145 1.684 . S
C4142 C4123 1.723 . S
C4142 C4141 1.396 . S
C4142 C4143 1.394 . S
C4143 C4139 1.397 . S
C4143 C4142 1.394 . S
C4143 C4153 1.723 . S
C4144 C4141 1.453 . S
C4144 H4168 0.982 . S
C4144 H4169 0.979 . S
C4144 H4170 0.977 . S
C4145 C4141 1.684 . S
C4145 H4171 0.979 . S
C4145 H4172 0.980 . S
C4145 H4173 0.983 . S
C4146 H4122 0.948 . S
C4146 C4147 1.391 . S
C4146 C4151 1.391 . S
C4147 C4146 1.391 . S
C4147 C4148 1.391 . S
C4148 H4125 0.947 . S
C4148 C4147 1.391 . S
C4148 C4149 1.392 . S
C4149 H4126 0.948 . S
C4149 C4148 1.392 . S
C4149 C4150 1.419 . S
C4150 C4149 1.419 . S
C4150 C4151 1.391 . S
C4150 C4154 1.397 . S
C4151 C4146 1.391 . S
C4151 C4150 1.391 . S
C4151 C4152 1.399 . S
C4152 C4151 1.399 . S
C4152 C4153 1.396 . S
C4152 C4155 1.453 . S
C4152 C4156 1.684 . S
C4153 C4143 1.723 . S
C4153 C4152 1.396 . S
C4153 C4154 1.394 . S
C4154 C4124 1.723 . S
C4154 C4150 1.397 . S
C4154 C4153 1.394 . S
C4155 H4127 0.982 . S
C4155 H4131 0.979 . S
C4155 H4132 0.977 . S
C4155 C4152 1.453 . S
C4156 H4128 0.979 . S
C4156 H4129 0.980 . S
C4156 H4130 0.983 . S
C4156 C4152 1.684 . S
H4157 C4175 0.948 . S
H4158 C4116 0.948 . S
H4159 C4134 0.979 . S
H4160 C4134 0.980 . S
H4161 C4134 0.983 . S
H4162 C4133 0.982 . S
H4163 C4133 0.979 . S
H4164 C4133 0.977 . S
H4165 C4135 0.948 . S
H4166 C4137 0.947 . S
H4167 C4138 0.948 . S
H4168 C4144 0.982 . S
H4169 C4144 0.979 . S
H4170 C4144 0.977 . S
H4171 C4145 0.979 . S
H4172 C4145 0.980 . S
H4173 C4145 0.983 . S
H4174 C4118 0.947 . S
C4175 C4118 1.392 . S
C4175 C4119 1.419 . S
C4175 H4157 0.948 . S
C4176 C4177 1.391 . S
C4176 C4180 1.391 . S
C4176 H4218 0.948 . S
C4177 C4176 1.391 . S
C4177 C4178 1.391 . S
C4178 C4177 1.391 . S
C4178 H4234 0.947 . S
C4178 C4235 1.392 . S
C4179 C4180 1.391 . S
C4179 C4183 1.397 . S
C4179 C4235 1.419 . S
C4180 C4176 1.391 . S
C4180 C4179 1.391 . S
C4180 C4181 1.399 . S
C4181 C4180 1.399 . S
C4181 C4184 1.396 . S
C4181 C4193 1.453 . S
C4181 C4194 1.684 . S
H4182 C4206 0.948 . S
C4183 C4179 1.397 . S
C4183 C4184 1.394 . S
C4183 C4202 1.723 . S
C4184 C4181 1.396 . S
C4184 C4183 1.394 . S
C4184 C4214 1.723 . S
H4185 C4208 0.947 . S
H4186 C4209 0.948 . S
H4187 C4215 0.982 . S
H4188 C4216 0.979 . S
H4189 C4216 0.980 . S
H4190 C4216 0.983 . S
H4191 C4215 0.979 . S
H4192 C4215 0.977 . S
C4193 C4181 1.453 . S
C4193 H4222 0.982 . S
C4193 H4223 0.979 . S
C4193 H4224 0.977 . S
C4194 C4181 1.684 . S
C4194 H4219 0.979 . S
C4194 H4220 0.980 . S
C4194 H4221 0.983 . S
C4195 C4196 1.391 . S
C4195 C4200 1.391 . S
C4195 H4225 0.948 . S
C4196 C4195 1.391 . S
C4196 C4197 1.391 . S
C4197 C4196 1.391 . S
C4197 C4198 1.392 . S
C4197 H4226 0.947 . S
C4198 C4197 1.392 . S
C4198 C4199 1.419 . S
C4198 H4227 0.948 . S
C4199 C4198 1.419 . S
C4199 C4200 1.391 . S
C4199 C4203 1.397 . S
C4200 C4195 1.391 . S
C4200 C4199 1.391 . S
C4200 C4201 1.399 . S
C4201 C4200 1.399 . S
C4201 C4202 1.396 . S
C4201 C4204 1.453 . S
C4201 C4205 1.684 . S
C4202 C4183 1.723 . S
C4202 C4201 1.396 . S
C4202 C4203 1.394 . S
C4203 C4199 1.397 . S
C4203 C4202 1.394 . S
C4203 C4213 1.723 . S
C4204 C4201 1.453 . S
C4204 H4228 0.982 . S
C4204 H4229 0.979 . S
C4204 H4230 0.977 . S
C4205 C4201 1.684 . S
C4205 H4231 0.979 . S
C4205 H4232 0.980 . S
C4205 H4233 0.983 . S
C4206 H4182 0.948 . S
C4206 C4207 1.391 . S
C4206 C4211 1.391 . S
C4207 C4206 1.391 . S
C4207 C4208 1.391 . S
C4208 H4185 0.947 . S
C4208 C4207 1.391 . S
C4208 C4209 1.392 . S
C4209 H4186 0.948 . S
C4209 C4208 1.392 . S
C4209 C4210 1.419 . S
C4210 C4209 1.419 . S
C4210 C4211 1.391 . S
C4210 C4214 1.397 . S
C4211 C4206 1.391 . S
C4211 C4210 1.391 . S
C4211 C4212 1.399 . S
C4212 C4211 1.399 . S
C4212 C4213 1.396 . S
C4212 C4215 1.453 . S
C4212 C4216 1.684 . S
C4213 C4203 1.723 . S
C4213 C4212 1.396 . S
C4213 C4214 1.394 . S
C4214 C4184 1.723 . S
C4214 C4210 1.397 . S
C4214 C4213 1.394 . S
C4215 H4187 0.982 . S
C4215 H4191 0.979 . S
C4215 H4192 0.977 . S
C4215 C4212 1.453 . S
C4216 H4188 0.979 . S
C4216 H4189 0.980 . S
C4216 H4190 0.983 . S
C4216 C4212 1.684 . S
H4217 C4235 0.948 . S
H4218 C4176 0.948 . S
H4219 C4194 0.979 . S
H4220 C4194 0.980 . S
H4221 C4194 0.983 . S
H4222 C4193 0.982 . S
H4223 C4193 0.979 . S
H4224 C4193 0.977 . S
H4225 C4195 0.948 . S
H4226 C4197 0.947 . S
H4227 C4198 0.948 . S
H4228 C4204 0.982 . S
H4229 C4204 0.979 . S
H4230 C4204 0.977 . S
H4231 C4205 0.979 . S
H4232 C4205 0.980 . S
H4233 C4205 0.983 . S
H4234 C4178 0.947 . S
C4235 C4178 1.392 . S
C4235 C4179 1.419 . S
C4235 H4217 0.948 . S
C4236 C4237 1.391 . S
C4236 C4240 1.391 . S
C4236 H4278 0.948 . S
C4237 C4236 1.391 . S
C4237 C4238 1.391 . S
C4238 C4237 1.391 . S
C4238 H4294 0.947 . S
C4238 C4295 1.392 . S
C4239 C4240 1.391 . S
C4239 C4243 1.397 . S
C4239 C4295 1.419 . S
C4240 C4236 1.391 . S
C4240 C4239 1.391 . S
C4240 C4241 1.399 . S
C4241 C4240 1.399 . S
C4241 C4244 1.396 . S
C4241 C4253 1.453 . S
C4241 C4254 1.684 . S
H4242 C4266 0.948 . S
C4243 C4239 1.397 . S
C4243 C4244 1.394 . S
C4243 C4262 1.723 . S
C4244 C4241 1.396 . S
C4244 C4243 1.394 . S
C4244 C4274 1.723 . S
H4245 C4268 0.947 . S
H4246 C4269 0.948 . S
H4247 C4275 0.982 . S
H4248 C4276 0.979 . S
H4249 C4276 0.980 . S
H4250 C4276 0.983 . S
H4251 C4275 0.979 . S
H4252 C4275 0.977 . S
C4253 C4241 1.453 . S
C4253 H4282 0.982 . S
C4253 H4283 0.979 . S
C4253 H4284 0.977 . S
C4254 C4241 1.684 . S
C4254 H4279 0.979 . S
C4254 H4280 0.980 . S
C4254 H4281 0.983 . S
C4255 C4256 1.391 . S
C4255 C4260 1.391 . S
C4255 H4285 0.948 . S
C4256 C4255 1.391 . S
C4256 C4257 1.391 . S
C4257 C4256 1.391 . S
C4257 C4258 1.392 . S
C4257 H4286 0.947 . S
C4258 C4257 1.392 . S
C4258 C4259 1.419 . S
C4258 H4287 0.948 . S
C4259 C4258 1.419 . S
C4259 C4260 1.391 . S
C4259 C4263 1.397 . S
C4260 C4255 1.391 . S
C4260 C4259 1.391 . S
C4260 C4261 1.399 . S
C4261 C4260 1.399 . S
C4261 C4262 1.396 . S
C4261 C4264 1.453 . S
C4261 C4265 1.684 . S
C4262 C4243 1.723 . S
C4262 C4261 1.396 . S
C4262 C4263 1.394 . S
C4263 C4259 1.397 . S
C4263 C4262 1.394 . S
C4263 C4273 1.723 . S
C4264 C4261 1.453 . S
C4264 H4288 0.982 . S
C4264 H4289 0.979 . S
C4264 H4290 0.977 . S
C4265 C4261 1.684 . S
C4265 H4291 0.979 . S
C4265 H4292 0.980 . S
C4265 H4293 0.983 . S
C4266 H4242 0.948 . S
C4266 C4267 1.391 . S
C4266 C4271 1.391 . S
C4267 C4266 1.391 . S
C4267 C4268 1.391 . S
C4268 H4245 0.947 . S
C4268 C4267 1.391 . S
C4268 C4269 1.392 . S
C4269 H4246 0.948 . S
C4269 C4268 1.392 . S
C4269 C4270 1.419 . S
C4270 C4269 1.419 . S
C4270 C4271 1.391 . S
C4270 C4274 1.397 . S
C4271 C4266 1.391 . S
C4271 C4270 1.391 . S
C4271 C4272 1.399 . S
C4272 C4271 1.399 . S
C4272 C4273 1.396 . S
C4272 C4275 1.453 . S
C4272 C4276 1.684 . S
C4273 C4263 1.723 . S
C4273 C4272 1.396 . S
C4273 C4274 1.394 . S
C4274 C4244 1.723 . S
C4274 C4270 1.397 . S
C4274 C4273 1.394 . S
C4275 H4247 0.982 . S
C4275 H4251 0.979 . S
C4275 H4252 0.977 . S
C4275 C4272 1.453 . S
C4276 H4248 0.979 . S
C4276 H4249 0.980 . S
C4276 H4250 0.983 . S
C4276 C4272 1.684 . S
H4277 C4295 0.948 . S
H4278 C4236 0.948 . S
H4279 C4254 0.979 . S
H4280 C4254 0.980 . S
H4281 C4254 0.983 . S
H4282 C4253 0.982 . S
H4283 C4253 0.979 . S
H4284 C4253 0.977 . S
H4285 C4255 0.948 . S
H4286 C4257 0.947 . S
H4287 C4258 0.948 . S
H4288 C4264 0.982 . S
H4289 C4264 0.979 . S
H4290 C4264 0.977 . S
H4291 C4265 0.979 . S
H4292 C4265 0.980 . S
H4293 C4265 0.983 . S
H4294 C4238 0.947 . S
C4295 C4238 1.392 . S
C4295 C4239 1.419 . S
C4295 H4277 0.948 . S
C4296 C4297 1.391 . S
C4296 C4300 1.391 . S
C4296 H4338 0.948 . S
C4297 C4296 1.391 . S
C4297 C4298 1.391 . S
C4298 C4297 1.391 . S
C4298 H4354 0.947 . S
C4298 C4355 1.392 . S
C4299 C4300 1.391 . S
C4299 C4303 1.397 . S
C4299 C4355 1.419 . S
C4300 C4296 1.391 . S
C4300 C4299 1.391 . S
C4300 C4301 1.399 . S
C4301 C4300 1.399 . S
C4301 C4304 1.396 . S
C4301 C4313 1.453 . S
C4301 C4314 1.684 . S
H4302 C4326 0.948 . S
C4303 C4299 1.397 . S
C4303 C4304 1.394 . S
C4303 C4322 1.723 . S
C4304 C4301 1.396 . S
C4304 C4303 1.394 . S
C4304 C4334 1.723 . S
H4305 C4328 0.947 . S
H4306 C4329 0.948 . S
H4307 C4335 0.982 . S
H4308 C4336 0.979 . S
H4309 C4336 0.980 . S
H4310 C4336 0.983 . S
H4311 C4335 0.979 . S
H4312 C4335 0.977 . S
C4313 C4301 1.453 . S
C4313 H4342 0.982 . S
C4313 H4343 0.979 . S
C4313 H4344 0.977 . S
C4314 C4301 1.684 . S
C4314 H4339 0.979 . S
C4314 H4340 0.980 . S
C4314 H4341 0.983 . S
C4315 C4316 1.391 . S
C4315 C4320 1.391 . S
C4315 H4345 0.948 . S
C4316 C4315 1.391 . S
C4316 C4317 1.391 . S
C4317 C4316 1.391 . S
C4317 C4318 1.392 . S
C4317 H4346 0.947 . S
C4318 C4317 1.392 . S
C4318 C4319 1.419 . S
C4318 H4347 0.948 . S
C4319 C4318 1.419 . S
C4319 C4320 1.391 . S
C4319 C4323 1.397 . S
C4320 C4315 1.391 . S
C4320 C4319 1.391 . S
C4320 C4321 1.399 . S
C4321 C4320 1.399 . S
C4321 C4322 1.396 . S
C4321 C4324 1.453 . S
C4321 C4325 1.684 . S
C4322 C4303 1.723 . S
C4322 C4321 1.396 . S
C4322 C4323 1.394 . S
C4323 C4319 1.397 . S
C4323 C4322 1.394 . S
C4323 C4333 1.723 . S
C4324 C4321 1.453 . S
C4324 H4348 0.982 . S
C4324 H4349 0.979 . S
C4324 H4350 0.977 . S
C4325 C4321 1.684 . S
C4325 H4351 0.979 . S
C4325 H4352 0.980 . S
C4325 H4353 0.983 . S
C4326 H4302 0.948 . S
C4326 C4327 1.391 . S
C4326 C4331 1.391 . S
C4327 C4326 1.391 . S
C4327 C4328 1.391 . S
C4328 H4305 0.947 . S
C4328 C4327 1.391 . S
C4328 C4329 1.392 . S
C4329 H4306 0.948 . S
C4329 C4328 1.392 . S
C4329 C4330 1.419 . S
C4330 C4329 1.419 . S
C4330 C4331 1.391 . S
C4330 C4334 1.397 . S
C4331 C4326 1.391 . S
C4331 C4330 1.391 . S
C4331 C4332 1.399 . S
C4332 C4331 1.399 . S
C4332 C4333 1.396 . S
C4332 C4335 1.453 . S
C4332 C4336 1.684 . S
C4333 C4323 1.723 . S
C4333 C4332 1.396 . S
C4333 C4334 1.394 . S
C4334 C4304 1.723 . S
C4334 C4330 1.397 . S
C4334 C4333 1.394 . S
C4335 H4307 0.982 . S
C4335 H4311 0.979 . S
C4335 H4312 0.977 . S
C4335 C4332 1.453 . S
C4336 H4308 0.979 . S
C4336 H4309 0.980 . S
C4336 H4310 0.983 . S
C4336 C4332 1.684 . S
H4337 C4355 0.948 . S
H4338 C4296 0.948 . S
H4339 C4314 0.979 . S
H4340 C4314 0.980 . S
H4341 C4314 0.983 . S
H4342 C4313 0.982 . S
H4343 C4313 0.979 . S
H4344 C4313 0.977 . S
H4345 C4315 0.948 . S
H4346 C4317 0.947 . S
H4347 C4318 0.948 . S
H4348 C4324 0.982 . S
H4349 C4324 0.979 . S
H4350 C4324 0.977 . S
H4351 C4325 0.979 . S
H4352 C4325 0.980 . S
H4353 C4325 0.983 . S
H4354 C4298 0.947 . S
C4355 C4298 1.392 . S
C4355 C4299 1.419 . S
C4355 H4337 0.948 . S
C4356 C4357 1.391 . S
C4356 C4360 1.391 . S
C4356 H4398 0.948 . S
C4357 C4356 1.391 . S
C4357 C4358 1.391 . S
C4358 C4357 1.391 . S
C4358 H4414 0.947 . S
C4358 C4415 1.392 . S
C4359 C4360 1.391 . S
C4359 C4363 1.397 . S
C4359 C4415 1.419 . S
C4360 C4356 1.391 . S
C4360 C4359 1.391 . S
C4360 C4361 1.399 . S
C4361 C4360 1.399 . S
C4361 C4364 1.396 . S
C4361 C4373 1.453 . S
C4361 C4374 1.684 . S
H4362 C4386 0.948 . S
C4363 C4359 1.397 . S
C4363 C4364 1.394 . S
C4363 C4382 1.723 . S
C4364 C4361 1.396 . S
C4364 C4363 1.394 . S
C4364 C4394 1.723 . S
H4365 C4388 0.947 . S
H4366 C4389 0.948 . S
H4367 C4395 0.982 . S
H4368 C4396 0.979 . S
H4369 C4396 0.980 . S
H4370 C4396 0.983 . S
H4371 C4395 0.979 . S
H4372 C4395 0.977 . S
C4373 C4361 1.453 . S
C4373 H4402 0.982 . S
C4373 H4403 0.979 . S
C4373 H4404 0.977 . S
C4374 C4361 1.684 . S
C4374 H4399 0.979 . S
C4374 H4400 0.980 . S
C4374 H4401 0.983 . S
C4375 C4376 1.391 . S
C4375 C4380 1.391 . S
C4375 H4405 0.948 . S
C4376 C4375 1.391 . S
C4376 C4377 1.391 . S
C4377 C4376 1.391 . S
C4377 C4378 1.392 . S
C4377 H4406 0.947 . S
C4378 C4377 1.392 . S
C4378 C4379 1.419 . S
C4378 H4407 0.948 . S
C4379 C4378 1.419 . S
C4379 C4380 1.391 . S
C4379 C4383 1.397 . S
C4380 C4375 1.391 . S
C4380 C4379 1.391 . S
C4380 C4381 1.399 . S
C4381 C4380 1.399 . S
C4381 C4382 1.396 . S
C4381 C4384 1.453 . S
C4381 C4385 1.684 . S
C4382 C4363 1.723 . S
C4382 C4381 1.396 . S
C4382 C4383 1.394 . S
C4383 C4379 1.397 . S
C4383 C4382 1.394 . S
C4383 C4393 1.723 . S
C4384 C4381 1.453 . S
C4384 H4408 0.982 . S
C4384 H4409 0.979 . S
C4384 H4410 0.977 . S
C4385 C4381 1.684 . S
C4385 H4411 0.979 . S
C4385 H4412 0.980 . S
C4385 H4413 0.983 . S
C4386 H4362 0.948 . S
C4386 C4387 1.391 . S
C4386 C4391 1.391 . S
C4387 C4386 1.391 . S
C4387 C4388 1.391 . S
C4388 H4365 0.947 . S
C4388 C4387 1.391 . S
C4388 C4389 1.392 . S
C4389 H4366 0.948 . S
C4389 C4388 1.392 . S
C4389 C4390 1.419 . S
C4390 C4389 1.419 . S
C4390 C4391 1.391 . S
C4390 C4394 1.397 . S
C4391 C4386 1.391 . S
C4391 C4390 1.391 . S
C4391 C4392 1.399 . S
C4392 C4391 1.399 . S
C4392 C4393 1.396 . S
C4392 C4395 1.453 . S
C4392 C4396 1.684 . S
C4393 C4383 1.723 . S
C4393 C4392 1.396 . S
C4393 C4394 1.394 . S
C4394 C4364 1.723 . S
C4394 C4390 1.397 . S
C4394 C4393 1.394 . S
C4395 H4367 0.982 . S
C4395 H4371 0.979 . S
C4395 H4372 0.977 . S
C4395 C4392 1.453 . S
C4396 H4368 0.979 . S
C4396 H4369 0.980 . S
C4396 H4370 0.983 . S
C4396 C4392 1.684 . S
H4397 C4415 0.948 . S
H4398 C4356 0.948 . S
H4399 C4374 0.979 . S
H4400 C4374 0.980 . S
H4401 C4374 0.983 . S
H4402 C4373 0.982 . S
H4403 C4373 0.979 . S
H4404 C4373 0.977 . S
H4405 C4375 0.948 . S
H4406 C4377 0.947 . S
H4407 C4378 0.948 . S
H4408 C4384 0.982 . S
H4409 C4384 0.979 . S
H4410 C4384 0.977 . S
H4411 C4385 0.979 . S
H4412 C4385 0.980 . S
H4413 C4385 0.983 . S
H4414 C4358 0.947 . S
C4415 C4358 1.392 . S
C4415 C4359 1.419 . S
C4415 H4397 0.948 . S
C4416 C4417 1.391 . S
C4416 C4420 1.391 . S
C4416 H4458 0.948 . S
C4417 C4416 1.391 . S
C4417 C4418 1.391 . S
C4418 C4417 1.391 . S
C4418 H4474 0.947 . S
C4418 C4475 1.392 . S
C4419 C4420 1.391 . S
C4419 C4423 1.397 . S
C4419 C4475 1.419 . S
C4420 C4416 1.391 . S
C4420 C4419 1.391 . S
C4420 C4421 1.399 . S
C4421 C4420 1.399 . S
C4421 C4424 1.396 . S
C4421 C4433 1.453 . S
C4421 C4434 1.684 . S
H4422 C4446 0.948 . S
C4423 C4419 1.397 . S
C4423 C4424 1.394 . S
C4423 C4442 1.723 . S
C4424 C4421 1.396 . S
C4424 C4423 1.394 . S
C4424 C4454 1.723 . S
H4425 C4448 0.947 . S
H4426 C4449 0.948 . S
H4427 C4455 0.982 . S
H4428 C4456 0.979 . S
H4429 C4456 0.980 . S
H4430 C4456 0.983 . S
H4431 C4455 0.979 . S
H4432 C4455 0.977 . S
C4433 C4421 1.453 . S
C4433 H4462 0.982 . S
C4433 H4463 0.979 . S
C4433 H4464 0.977 . S
C4434 C4421 1.684 . S
C4434 H4459 0.979 . S
C4434 H4460 0.980 . S
C4434 H4461 0.983 . S
C4435 C4436 1.391 . S
C4435 C4440 1.391 . S
C4435 H4465 0.948 . S
C4436 C4435 1.391 . S
C4436 C4437 1.391 . S
C4437 C4436 1.391 . S
C4437 C4438 1.392 . S
C4437 H4466 0.947 . S
C4438 C4437 1.392 . S
C4438 C4439 1.419 . S
C4438 H4467 0.948 . S
C4439 C4438 1.419 . S
C4439 C4440 1.391 . S
C4439 C4443 1.397 . S
C4440 C4435 1.391 . S
C4440 C4439 1.391 . S
C4440 C4441 1.399 . S
C4441 C4440 1.399 . S
C4441 C4442 1.396 . S
C4441 C4444 1.453 . S
C4441 C4445 1.684 . S
C4442 C4423 1.723 . S
C4442 C4441 1.396 . S
C4442 C4443 1.394 . S
C4443 C4439 1.397 . S
C4443 C4442 1.394 . S
C4443 C4453 1.723 . S
C4444 C4441 1.453 . S
C4444 H4468 0.982 . S
C4444 H4469 0.979 . S
C4444 H4470 0.977 . S
C4445 C4441 1.684 . S
C4445 H4471 0.979 . S
C4445 H4472 0.980 . S
C4445 H4473 0.983 . S
C4446 H4422 0.948 . S
C4446 C4447 1.391 . S
C4446 C4451 1.391 . S
C4447 C4446 1.391 . S
C4447 C4448 1.391 . S
C4448 H4425 0.947 . S
C4448 C4447 1.391 . S
C4448 C4449 1.392 . S
C4449 H4426 0.948 . S
C4449 C4448 1.392 . S
C4449 C4450 1.419 . S
C4450 C4449 1.419 . S
C4450 C4451 1.391 . S
C4450 C4454 1.397 . S
C4451 C4446 1.391 . S
C4451 C4450 1.391 . S
C4451 C4452 1.399 . S
C4452 C4451 1.399 . S
C4452 C4453 1.396 . S
C4452 C4455 1.453 . S
C4452 C4456 1.684 . S
C4453 C4443 1.723 . S
C4453 C4452 1.396 . S
C4453 C4454 1.394 . S
C4454 C4424 1.723 . S
C4454 C4450 1.397 . S
C4454 C4453 1.394 . S
C4455 H4427 0.982 . S
C4455 H4431 0.979 . S
C4455 H4432 0.977 . S
C4455 C4452 1.453 . S
C4456 H4428 0.979 . S
C4456 H4429 0.980 . S
C4456 H4430 0.983 . S
C4456 C4452 1.684 . S
H4457 C4475 0.948 . S
H4458 C4416 0.948 . S
H4459 C4434 0.979 . S
H4460 C4434 0.980 . S
H4461 C4434 0.983 . S
H4462 C4433 0.982 . S
H4463 C4433 0.979 . S
H4464 C4433 0.977 . S
H4465 C4435 0.948 . S
H4466 C4437 0.947 . S
H4467 C4438 0.948 . S
H4468 C4444 0.982 . S
H4469 C4444 0.979 . S
H4470 C4444 0.977 . S
H4471 C4445 0.979 . S
H4472 C4445 0.980 . S
H4473 C4445 0.983 . S
H4474 C4418 0.947 . S
C4475 C4418 1.392 . S
C4475 C4419 1.419 . S
C4475 H4457 0.948 . S
C4476 C4477 1.391 . S
C4476 C4480 1.391 . S
C4476 H4518 0.948 . S
C4477 C4476 1.391 . S
C4477 C4478 1.391 . S
C4478 C4477 1.391 . S
C4478 H4534 0.947 . S
C4478 C4535 1.392 . S
C4479 C4480 1.391 . S
C4479 C4483 1.397 . S
C4479 C4535 1.419 . S
C4480 C4476 1.391 . S
C4480 C4479 1.391 . S
C4480 C4481 1.399 . S
C4481 C4480 1.399 . S
C4481 C4484 1.396 . S
C4481 C4493 1.453 . S
C4481 C4494 1.684 . S
H4482 C4506 0.948 . S
C4483 C4479 1.397 . S
C4483 C4484 1.394 . S
C4483 C4502 1.723 . S
C4484 C4481 1.396 . S
C4484 C4483 1.394 . S
C4484 C4514 1.723 . S
H4485 C4508 0.947 . S
H4486 C4509 0.948 . S
H4487 C4515 0.982 . S
H4488 C4516 0.979 . S
H4489 C4516 0.980 . S
H4490 C4516 0.983 . S
H4491 C4515 0.979 . S
H4492 C4515 0.977 . S
C4493 C4481 1.453 . S
C4493 H4522 0.982 . S
C4493 H4523 0.979 . S
C4493 H4524 0.977 . S
C4494 C4481 1.684 . S
C4494 H4519 0.979 . S
C4494 H4520 0.980 . S
C4494 H4521 0.983 . S
C4495 C4496 1.391 . S
C4495 C4500 1.391 . S
C4495 H4525 0.948 . S
C4496 C4495 1.391 . S
C4496 C4497 1.391 . S
C4497 C4496 1.391 . S
C4497 C4498 1.392 . S
C4497 H4526 0.947 . S
C4498 C4497 1.392 . S
C4498 C4499 1.419 . S
C4498 H4527 0.948 . S
C4499 C4498 1.419 . S
C4499 C4500 1.391 . S
C4499 C4503 1.397 . S
C4500 C4495 1.391 . S
C4500 C4499 1.391 . S
C4500 C4501 1.399 . S
C4501 C4500 1.399 . S
C4501 C4502 1.396 . S
C4501 C4504 1.453 . S
C4501 C4505 1.684 . S
C4502 C4483 1.723 . S
C4502 C4501 1.396 . S
C4502 C4503 1.394 . S
C4503 C4499 1.397 . S
C4503 C4502 1.394 . S
C4503 C4513 1.723 . S
C4504 C4501 1.453 . S
C4504 H4528 0.982 . S
C4504 H4529 0.979 . S
C4504 H4530 0.977 . S
C4505 C4501 1.684 . S
C4505 H4531 0.979 . S
C4505 H4532 0.980 . S
C4505 H4533 0.983 . S
C4506 H4482 0.948 . S
C4506 C4507 1.391 . S
C4506 C4511 1.391 . S
C4507 C4506 1.391 . S
C4507 C4508 1.391 . S
C4508 H4485 0.947 . S
C4508 C4507 1.391 . S
C4508 C4509 1.392 . S
C4509 H4486 0.948 . S
C4509 C4508 1.392 . S
C4509 C4510 1.419 . S
C4510 C4509 1.419 . S
C4510 C4511 1.391 . S
C4510 C4514 1.397 . S
C4511 C4506 1.391 . S
C4511 C4510 1.391 . S
C4511 C4512 1.399 . S
C4512 C4511 1.399 . S
C4512 C4513 1.396 . S
C4512 C4515 1.453 . S
C4512 C4516 1.684 . S
C4513 C4503 1.723 . S
C4513 C4512 1.396 . S
C4513 C4514 1.394 . S
C4514 C4484 1.723 . S
C4514 C4510 1.397 . S
C4514 C4513 1.394 . S
C4515 H4487 0.982 . S
C4515 H4491 0.979 . S
C4515 H4492 0.977 . S
C4515 C4512 1.453 . S
C4516 H4488 0.979 . S
C4516 H4489 0.980 . S
C4516 H4490 0.983 . S
C4516 C4512 1.684 . S
H4517 C4535 0.948 . S
H4518 C4476 0.948 . S
H4519 C4494 0.979 . S
H4520 C4494 0.980 . S
H4521 C4494 0.983 . S
H4522 C4493 0.982 . S
H4523 C4493 0.979 . S
H4524 C4493 0.977 . S
H4525 C4495 0.948 . S
H4526 C4497 0.947 . S
H4527 C4498 0.948 . S
H4528 C4504 0.982 . S
H4529 C4504 0.979 . S
H4530 C4504 0.977 . S
H4531 C4505 0.979 . S
H4532 C4505 0.980 . S
H4533 C4505 0.983 . S
H4534 C4478 0.947 . S
C4535 C4478 1.392 . S
C4535 C4479 1.419 . S
C4535 H4517 0.948 . S
C4536 C4537 1.391 . S
C4536 C4540 1.391 . S
C4536 H4578 0.948 . S
C4537 C4536 1.391 . S
C4537 C4538 1.391 . S
C4538 C4537 1.391 . S
C4538 H4594 0.947 . S
C4538 C4595 1.392 . S
C4539 C4540 1.391 . S
C4539 C4543 1.397 . S
C4539 C4595 1.419 . S
C4540 C4536 1.391 . S
C4540 C4539 1.391 . S
C4540 C4541 1.399 . S
C4541 C4540 1.399 . S
C4541 C4544 1.396 . S
C4541 C4553 1.453 . S
C4541 C4554 1.684 . S
H4542 C4566 0.948 . S
C4543 C4539 1.397 . S
C4543 C4544 1.394 . S
C4543 C4562 1.723 . S
C4544 C4541 1.396 . S
C4544 C4543 1.394 . S
C4544 C4574 1.723 . S
H4545 C4568 0.947 . S
H4546 C4569 0.948 . S
H4547 C4575 0.982 . S
H4548 C4576 0.979 . S
H4549 C4576 0.980 . S
H4550 C4576 0.983 . S
H4551 C4575 0.979 . S
H4552 C4575 0.977 . S
C4553 C4541 1.453 . S
C4553 H4582 0.982 . S
C4553 H4583 0.979 . S
C4553 H4584 0.977 . S
C4554 C4541 1.684 . S
C4554 H4579 0.979 . S
C4554 H4580 0.980 . S
C4554 H4581 0.983 . S
C4555 C4556 1.391 . S
C4555 C4560 1.391 . S
C4555 H4585 0.948 . S
C4556 C4555 1.391 . S
C4556 C4557 1.391 . S
C4557 C4556 1.391 . S
C4557 C4558 1.392 . S
C4557 H4586 0.947 . S
C4558 C4557 1.392 . S
C4558 C4559 1.419 . S
C4558 H4587 0.948 . S
C4559 C4558 1.419 . S
C4559 C4560 1.391 . S
C4559 C4563 1.397 . S
C4560 C4555 1.391 . S
C4560 C4559 1.391 . S
C4560 C4561 1.399 . S
C4561 C4560 1.399 . S
C4561 C4562 1.396 . S
C4561 C4564 1.453 . S
C4561 C4565 1.684 . S
C4562 C4543 1.723 . S
C4562 C4561 1.396 . S
C4562 C4563 1.394 . S
C4563 C4559 1.397 . S
C4563 C4562 1.394 . S
C4563 C4573 1.723 . S
C4564 C4561 1.453 . S
C4564 H4588 0.982 . S
C4564 H4589 0.979 . S
C4564 H4590 0.977 . S
C4565 C4561 1.684 . S
C4565 H4591 0.979 . S
C4565 H4592 0.980 . S
C4565 H4593 0.983 . S
C4566 H4542 0.948 . S
C4566 C4567 1.391 . S
C4566 C4571 1.391 . S
C4567 C4566 1.391 . S
C4567 C4568 1.391 . S
C4568 H4545 0.947 . S
C4568 C4567 1.391 . S
C4568 C4569 1.392 . S
C4569 H4546 0.948 . S
C4569 C4568 1.392 . S
C4569 C4570 1.419 . S
C4570 C4569 1.419 . S
C4570 C4571 1.391 . S
C4570 C4574 1.397 . S
C4571 C4566 1.391 . S
C4571 C4570 1.391 . S
C4571 C4572 1.399 . S
C4572 C4571 1.399 . S
C4572 C4573 1.396 . S
C4572 C4575 1.453 . S
C4572 C4576 1.684 . S
C4573 C4563 1.723 . S
C4573 C4572 1.396 . S
C4573 C4574 1.394 . S
C4574 C4544 1.723 . S
C4574 C4570 1.397 . S
C4574 C4573 1.394 . S
C4575 H4547 0.982 . S
C4575 H4551 0.979 . S
C4575 H4552 0.977 . S
C4575 C4572 1.453 . S
C4576 H4548 0.979 . S
C4576 H4549 0.980 . S
C4576 H4550 0.983 . S
C4576 C4572 1.684 . S
H4577 C4595 0.948 . S
H4578 C4536 0.948 . S
H4579 C4554 0.979 . S
H4580 C4554 0.980 . S
H4581 C4554 0.983 . S
H4582 C4553 0.982 . S
H4583 C4553 0.979 . S
H4584 C4553 0.977 . S
H4585 C4555 0.948 . S
H4586 C4557 0.947 . S
H4587 C4558 0.948 . S
H4588 C4564 0.982 . S
H4589 C4564 0.979 . S
H4590 C4564 0.977 . S
H4591 C4565 0.979 . S
H4592 C4565 0.980 . S
H4593 C4565 0.983 . S
H4594 C4538 0.947 . S
C4595 C4538 1.392 . S
C4595 C4539 1.419 . S
C4595 H4577 0.948 . S
C4596 C4597 1.391 . S
C4596 C4600 1.391 . S
C4596 H4638 0.948 . S
C4597 C4596 1.391 . S
C4597 C4598 1.391 . S
C4598 C4597 1.391 . S
C4598 H4654 0.947 . S
C4598 C4655 1.392 . S
C4599 C4600 1.391 . S
C4599 C4603 1.397 . S
C4599 C4655 1.419 . S
C4600 C4596 1.391 . S
C4600 C4599 1.391 . S
C4600 C4601 1.399 . S
C4601 C4600 1.399 . S
C4601 C4604 1.396 . S
C4601 C4613 1.453 . S
C4601 C4614 1.684 . S
H4602 C4626 0.948 . S
C4603 C4599 1.397 . S
C4603 C4604 1.394 . S
C4603 C4622 1.723 . S
C4604 C4601 1.396 . S
C4604 C4603 1.394 . S
C4604 C4634 1.723 . S
H4605 C4628 0.947 . S
H4606 C4629 0.948 . S
H4607 C4635 0.982 . S
H4608 C4636 0.979 . S
H4609 C4636 0.980 . S
H4610 C4636 0.983 . S
H4611 C4635 0.979 . S
H4612 C4635 0.977 . S
C4613 C4601 1.453 . S
C4613 H4642 0.982 . S
C4613 H4643 0.979 . S
C4613 H4644 0.977 . S
C4614 C4601 1.684 . S
C4614 H4639 0.979 . S
C4614 H4640 0.980 . S
C4614 H4641 0.983 . S
C4615 C4616 1.391 . S
C4615 C4620 1.391 . S
C4615 H4645 0.948 . S
C4616 C4615 1.391 . S
C4616 C4617 1.391 . S
C4617 C4616 1.391 . S
C4617 C4618 1.392 . S
C4617 H4646 0.947 . S
C4618 C4617 1.392 . S
C4618 C4619 1.419 . S
C4618 H4647 0.948 . S
C4619 C4618 1.419 . S
C4619 C4620 1.391 . S
C4619 C4623 1.397 . S
C4620 C4615 1.391 . S
C4620 C4619 1.391 . S
C4620 C4621 1.399 . S
C4621 C4620 1.399 . S
C4621 C4622 1.396 . S
C4621 C4624 1.453 . S
C4621 C4625 1.684 . S
C4622 C4603 1.723 . S
C4622 C4621 1.396 . S
C4622 C4623 1.394 . S
C4623 C4619 1.397 . S
C4623 C4622 1.394 . S
C4623 C4633 1.723 . S
C4624 C4621 1.453 . S
C4624 H4648 0.982 . S
C4624 H4649 0.979 . S
C4624 H4650 0.977 . S
C4625 C4621 1.684 . S
C4625 H4651 0.979 . S
C4625 H4652 0.980 . S
C4625 H4653 0.983 . S
C4626 H4602 0.948 . S
C4626 C4627 1.391 . S
C4626 C4631 1.391 . S
C4627 C4626 1.391 . S
C4627 C4628 1.391 . S
C4628 H4605 0.947 . S
C4628 C4627 1.391 . S
C4628 C4629 1.392 . S
C4629 H4606 0.948 . S
C4629 C4628 1.392 . S
C4629 C4630 1.419 . S
C4630 C4629 1.419 . S
C4630 C4631 1.391 . S
C4630 C4634 1.397 . S
C4631 C4626 1.391 . S
C4631 C4630 1.391 . S
C4631 C4632 1.399 . S
C4632 C4631 1.399 . S
C4632 C4633 1.396 . S
C4632 C4635 1.453 . S
C4632 C4636 1.684 . S
C4633 C4623 1.723 . S
C4633 C4632 1.396 . S
C4633 C4634 1.394 . S
C4634 C4604 1.723 . S
C4634 C4630 1.397 . S
C4634 C4633 1.394 . S
C4635 H4607 0.982 . S
C4635 H4611 0.979 . S
C4635 H4612 0.977 . S
C4635 C4632 1.453 . S
C4636 H4608 0.979 . S
C4636 H4609 0.980 . S
C4636 H4610 0.983 . S
C4636 C4632 1.684 . S
H4637 C4655 0.948 . S
H4638 C4596 0.948 . S
H4639 C4614 0.979 . S
H4640 C4614 0.980 . S
H4641 C4614 0.983 . S
H4642 C4613 0.982 . S
H4643 C4613 0.979 . S
H4644 C4613 0.977 . S
H4645 C4615 0.948 . S
H4646 C4617 0.947 . S
H4647 C4618 0.948 . S
H4648 C4624 0.982 . S
H4649 C4624 0.979 . S
H4650 C4624 0.977 . S
H4651 C4625 0.979 . S
H4652 C4625 0.980 . S
H4653 C4625 0.983 . S
H4654 C4598 0.947 . S
C4655 C4598 1.392 . S
C4655 C4599 1.419 . S
C4655 H4637 0.948 . S
C4656 C4657 1.391 . S
C4656 C4660 1.391 . S
C4656 H4698 0.948 . S
C4657 C4656 1.391 . S
C4657 C4658 1.391 . S
C4658 C4657 1.391 . S
C4658 H4714 0.947 . S
C4658 C4715 1.392 . S
C4659 C4660 1.391 . S
C4659 C4663 1.397 . S
C4659 C4715 1.419 . S
C4660 C4656 1.391 . S
C4660 C4659 1.391 . S
C4660 C4661 1.399 . S
C4661 C4660 1.399 . S
C4661 C4664 1.396 . S
C4661 C4673 1.453 . S
C4661 C4674 1.684 . S
H4662 C4686 0.948 . S
C4663 C4659 1.397 . S
C4663 C4664 1.394 . S
C4663 C4682 1.723 . S
C4664 C4661 1.396 . S
C4664 C4663 1.394 . S
C4664 C4694 1.723 . S
H4665 C4688 0.947 . S
H4666 C4689 0.948 . S
H4667 C4695 0.982 . S
H4668 C4696 0.979 . S
H4669 C4696 0.980 . S
H4670 C4696 0.983 . S
H4671 C4695 0.979 . S
H4672 C4695 0.977 . S
C4673 C4661 1.453 . S
C4673 H4702 0.982 . S
C4673 H4703 0.979 . S
C4673 H4704 0.977 . S
C4674 C4661 1.684 . S
C4674 H4699 0.979 . S
C4674 H4700 0.980 . S
C4674 H4701 0.983 . S
C4675 C4676 1.391 . S
C4675 C4680 1.391 . S
C4675 H4705 0.948 . S
C4676 C4675 1.391 . S
C4676 C4677 1.391 . S
C4677 C4676 1.391 . S
C4677 C4678 1.392 . S
C4677 H4706 0.947 . S
C4678 C4677 1.392 . S
C4678 C4679 1.419 . S
C4678 H4707 0.948 . S
C4679 C4678 1.419 . S
C4679 C4680 1.391 . S
C4679 C4683 1.397 . S
C4680 C4675 1.391 . S
C4680 C4679 1.391 . S
C4680 C4681 1.399 . S
C4681 C4680 1.399 . S
C4681 C4682 1.396 . S
C4681 C4684 1.453 . S
C4681 C4685 1.684 . S
C4682 C4663 1.723 . S
C4682 C4681 1.396 . S
C4682 C4683 1.394 . S
C4683 C4679 1.397 . S
C4683 C4682 1.394 . S
C4683 C4693 1.723 . S
C4684 C4681 1.453 . S
C4684 H4708 0.982 . S
C4684 H4709 0.979 . S
C4684 H4710 0.977 . S
C4685 C4681 1.684 . S
C4685 H4711 0.979 . S
C4685 H4712 0.980 . S
C4685 H4713 0.983 . S
C4686 H4662 0.948 . S
C4686 C4687 1.391 . S
C4686 C4691 1.391 . S
C4687 C4686 1.391 . S
C4687 C4688 1.391 . S
C4688 H4665 0.947 . S
C4688 C4687 1.391 . S
C4688 C4689 1.392 . S
C4689 H4666 0.948 . S
C4689 C4688 1.392 . S
C4689 C4690 1.419 . S
C4690 C4689 1.419 . S
C4690 C4691 1.391 . S
C4690 C4694 1.397 . S
C4691 C4686 1.391 . S
C4691 C4690 1.391 . S
C4691 C4692 1.399 . S
C4692 C4691 1.399 . S
C4692 C4693 1.396 . S
C4692 C4695 1.453 . S
C4692 C4696 1.684 . S
C4693 C4683 1.723 . S
C4693 C4692 1.396 . S
C4693 C4694 1.394 . S
C4694 C4664 1.723 . S
C4694 C4690 1.397 . S
C4694 C4693 1.394 . S
C4695 H4667 0.982 . S
C4695 H4671 0.979 . S
C4695 H4672 0.977 . S
C4695 C4692 1.453 . S
C4696 H4668 0.979 . S
C4696 H4669 0.980 . S
C4696 H4670 0.983 . S
C4696 C4692 1.684 . S
H4697 C4715 0.948 . S
H4698 C4656 0.948 . S
H4699 C4674 0.979 . S
H4700 C4674 0.980 . S
H4701 C4674 0.983 . S
H4702 C4673 0.982 . S
H4703 C4673 0.979 . S
H4704 C4673 0.977 . S
H4705 C4675 0.948 . S
H4706 C4677 0.947 . S
H4707 C4678 0.948 . S
H4708 C4684 0.982 . S
H4709 C4684 0.979 . S
H4710 C4684 0.977 . S
H4711 C4685 0.979 . S
H4712 C4685 0.980 . S
H4713 C4685 0.983 . S
H4714 C4658 0.947 . S
C4715 C4658 1.392 . S
C4715 C4659 1.419 . S
C4715 H4697 0.948 . S
C4716 C4717 1.391 . S
C4716 C4720 1.391 . S
C4716 H4758 0.948 . S
C4717 C4716 1.391 . S
C4717 C4718 1.391 . S
C4718 C4717 1.391 . S
C4718 H4774 0.947 . S
C4718 C4775 1.392 . S
C4719 C4720 1.391 . S
C4719 C4723 1.397 . S
C4719 C4775 1.419 . S
C4720 C4716 1.391 . S
C4720 C4719 1.391 . S
C4720 C4721 1.399 . S
C4721 C4720 1.399 . S
C4721 C4724 1.396 . S
C4721 C4733 1.453 . S
C4721 C4734 1.684 . S
H4722 C4746 0.948 . S
C4723 C4719 1.397 . S
C4723 C4724 1.394 . S
C4723 C4742 1.723 . S
C4724 C4721 1.396 . S
C4724 C4723 1.394 . S
C4724 C4754 1.723 . S
H4725 C4748 0.945 . S
H4726 C4749 0.948 . S
H4727 C4755 0.982 . S
H4728 C4756 0.979 . S
H4729 C4756 0.980 . S
H4730 C4756 0.983 . S
H4731 C4755 0.979 . S
H4732 C4755 0.977 . S
C4733 C4721 1.453 . S
C4733 H4762 0.982 . S
C4733 H4763 0.979 . S
C4733 H4764 0.977 . S
C4734 C4721 1.684 . S
C4734 H4759 0.979 . S
C4734 H4760 0.980 . S
C4734 H4761 0.983 . S
C4735 C4736 1.391 . S
C4735 C4740 1.391 . S
C4735 H4765 0.948 . S
C4736 C4735 1.391 . S
C4736 C4737 1.391 . S
C4737 C4736 1.391 . S
C4737 C4738 1.392 . S
C4737 H4766 0.947 . S
C4738 C4737 1.392 . S
C4738 C4739 1.419 . S
C4738 H4767 0.948 . S
C4739 C4738 1.419 . S
C4739 C4740 1.391 . S
C4739 C4743 1.397 . S
C4740 C4735 1.391 . S
C4740 C4739 1.391 . S
C4740 C4741 1.399 . S
C4741 C4740 1.399 . S
C4741 C4742 1.396 . S
C4741 C4744 1.453 . S
C4741 C4745 1.684 . S
C4742 C4723 1.723 . S
C4742 C4741 1.396 . S
C4742 C4743 1.394 . S
C4743 C4739 1.397 . S
C4743 C4742 1.394 . S
C4743 C4753 1.723 . S
C4744 C4741 1.453 . S
C4744 H4768 0.982 . S
C4744 H4769 0.979 . S
C4744 H4770 0.977 . S
C4745 C4741 1.684 . S
C4745 H4771 0.979 . S
C4745 H4772 0.980 . S
C4745 H4773 0.983 . S
C4746 H4722 0.948 . S
C4746 C4747 1.391 . S
C4746 C4751 1.391 . S
C4747 C4746 1.391 . S
C4747 C4748 1.391 . S
C4748 H4725 0.945 . S
C4748 C4747 1.391 . S
C4748 C4749 1.392 . S
C4749 H4726 0.948 . S
C4749 C4748 1.392 . S
C4749 C4750 1.419 . S
C4750 C4749 1.419 . S
C4750 C4751 1.391 . S
C4750 C4754 1.397 . S
C4751 C4746 1.391 . S
C4751 C4750 1.391 . S
C4751 C4752 1.399 . S
C4752 C4751 1.399 . S
C4752 C4753 1.396 . S
C4752 C4755 1.453 . S
C4752 C4756 1.684 . S
C4753 C4743 1.723 . S
C4753 C4752 1.396 . S
C4753 C4754 1.394 . S
C4754 C4724 1.723 . S
C4754 C4750 1.397 . S
C4754 C4753 1.394 . S
C4755 H4727 0.982 . S
C4755 H4731 0.979 . S
C4755 H4732 0.977 . S
C4755 C4752 1.453 . S
C4756 H4728 0.979 . S
C4756 H4729 0.980 . S
C4756 H4730 0.983 . S
C4756 C4752 1.684 . S
H4757 C4775 0.948 . S
H4758 C4716 0.948 . S
H4759 C4734 0.979 . S
H4760 C4734 0.980 . S
H4761 C4734 0.983 . S
H4762 C4733 0.982 . S
H4763 C4733 0.979 . S
H4764 C4733 0.977 . S
H4765 C4735 0.948 . S
H4766 C4737 0.947 . S
H4767 C4738 0.948 . S
H4768 C4744 0.982 . S
H4769 C4744 0.979 . S
H4770 C4744 0.977 . S
H4771 C4745 0.979 . S
H4772 C4745 0.980 . S
H4773 C4745 0.983 . S
H4774 C4718 0.947 . S
C4775 C4718 1.392 . S
C4775 C4719 1.419 . S
C4775 H4757 0.948 . S
C4776 C4777 1.391 . S
C4776 C4780 1.391 . S
C4776 H4818 0.948 . S
C4777 C4776 1.391 . S
C4777 C4778 1.391 . S
C4778 C4777 1.391 . S
C4778 H4834 0.947 . S
C4778 C4835 1.392 . S
C4779 C4780 1.391 . S
C4779 C4783 1.397 . S
C4779 C4835 1.419 . S
C4780 C4776 1.391 . S
C4780 C4779 1.391 . S
C4780 C4781 1.399 . S
C4781 C4780 1.399 . S
C4781 C4784 1.396 . S
C4781 C4793 1.453 . S
C4781 C4794 1.684 . S
H4782 C4806 0.948 . S
C4783 C4779 1.397 . S
C4783 C4784 1.394 . S
C4783 C4802 1.723 . S
C4784 C4781 1.396 . S
C4784 C4783 1.394 . S
C4784 C4814 1.723 . S
H4785 C4808 0.947 . S
H4786 C4809 0.948 . S
H4787 C4815 0.982 . S
H4788 C4816 0.979 . S
H4789 C4816 0.980 . S
H4790 C4816 0.983 . S
H4791 C4815 0.979 . S
H4792 C4815 0.977 . S
C4793 C4781 1.453 . S
C4793 H4822 0.982 . S
C4793 H4823 0.979 . S
C4793 H4824 0.977 . S
C4794 C4781 1.684 . S
C4794 H4819 0.979 . S
C4794 H4820 0.980 . S
C4794 H4821 0.983 . S
C4795 C4796 1.391 . S
C4795 C4800 1.391 . S
C4795 H4825 0.948 . S
C4796 C4795 1.391 . S
C4796 C4797 1.391 . S
C4797 C4796 1.391 . S
C4797 C4798 1.392 . S
C4797 H4826 0.947 . S
C4798 C4797 1.392 . S
C4798 C4799 1.419 . S
C4798 H4827 0.948 . S
C4799 C4798 1.419 . S
C4799 C4800 1.391 . S
C4799 C4803 1.397 . S
C4800 C4795 1.391 . S
C4800 C4799 1.391 . S
C4800 C4801 1.399 . S
C4801 C4800 1.399 . S
C4801 C4802 1.396 . S
C4801 C4804 1.453 . S
C4801 C4805 1.684 . S
C4802 C4783 1.723 . S
C4802 C4801 1.396 . S
C4802 C4803 1.394 . S
C4803 C4799 1.397 . S
C4803 C4802 1.394 . S
C4803 C4813 1.723 . S
C4804 C4801 1.453 . S
C4804 H4828 0.982 . S
C4804 H4829 0.979 . S
C4804 H4830 0.977 . S
C4805 C4801 1.684 . S
C4805 H4831 0.979 . S
C4805 H4832 0.980 . S
C4805 H4833 0.983 . S
C4806 H4782 0.948 . S
C4806 C4807 1.391 . S
C4806 C4811 1.391 . S
C4807 C4806 1.391 . S
C4807 C4808 1.391 . S
C4808 H4785 0.947 . S
C4808 C4807 1.391 . S
C4808 C4809 1.392 . S
C4809 H4786 0.948 . S
C4809 C4808 1.392 . S
C4809 C4810 1.419 . S
C4810 C4809 1.419 . S
C4810 C4811 1.391 . S
C4810 C4814 1.397 . S
C4811 C4806 1.391 . S
C4811 C4810 1.391 . S
C4811 C4812 1.399 . S
C4812 C4811 1.399 . S
C4812 C4813 1.396 . S
C4812 C4815 1.453 . S
C4812 C4816 1.684 . S
C4813 C4803 1.723 . S
C4813 C4812 1.396 . S
C4813 C4814 1.394 . S
C4814 C4784 1.723 . S
C4814 C4810 1.397 . S
C4814 C4813 1.394 . S
C4815 H4787 0.982 . S
C4815 H4791 0.979 . S
C4815 H4792 0.977 . S
C4815 C4812 1.453 . S
C4816 H4788 0.979 . S
C4816 H4789 0.980 . S
C4816 H4790 0.983 . S
C4816 C4812 1.684 . S
H4817 C4835 0.948 . S
H4818 C4776 0.948 . S
H4819 C4794 0.979 . S
H4820 C4794 0.980 . S
H4821 C4794 0.983 . S
H4822 C4793 0.982 . S
H4823 C4793 0.979 . S
H4824 C4793 0.977 . S
H4825 C4795 0.948 . S
H4826 C4797 0.947 . S
H4827 C4798 0.948 . S
H4828 C4804 0.982 . S
H4829 C4804 0.979 . S
H4830 C4804 0.977 . S
H4831 C4805 0.979 . S
H4832 C4805 0.980 . S
H4833 C4805 0.983 . S
H4834 C4778 0.947 . S
C4835 C4778 1.392 . S
C4835 C4779 1.419 . S
C4835 H4817 0.948 . S
C4836 C4837 1.391 . S
C4836 C4840 1.391 . S
C4836 H4878 0.948 . S
C4837 C4836 1.391 . S
C4837 C4838 1.391 . S
C4838 C4837 1.391 . S
C4838 H4894 0.947 . S
C4838 C4895 1.392 . S
C4839 C4840 1.391 . S
C4839 C4843 1.397 . S
C4839 C4895 1.419 . S
C4840 C4836 1.391 . S
C4840 C4839 1.391 . S
C4840 C4841 1.399 . S
C4841 C4840 1.399 . S
C4841 C4844 1.396 . S
C4841 C4853 1.453 . S
C4841 C4854 1.684 . S
H4842 C4866 0.948 . S
C4843 C4839 1.397 . S
C4843 C4844 1.394 . S
C4843 C4862 1.723 . S
C4844 C4841 1.396 . S
C4844 C4843 1.394 . S
C4844 C4874 1.723 . S
H4845 C4868 0.947 . S
H4846 C4869 0.948 . S
H4847 C4875 0.982 . S
H4848 C4876 0.979 . S
H4849 C4876 0.980 . S
H4850 C4876 0.983 . S
H4851 C4875 0.979 . S
H4852 C4875 0.977 . S
C4853 C4841 1.453 . S
C4853 H4882 0.982 . S
C4853 H4883 0.979 . S
C4853 H4884 0.977 . S
C4854 C4841 1.684 . S
C4854 H4879 0.979 . S
C4854 H4880 0.980 . S
C4854 H4881 0.983 . S
C4855 C4856 1.391 . S
C4855 C4860 1.391 . S
C4855 H4885 0.948 . S
C4856 C4855 1.391 . S
C4856 C4857 1.391 . S
C4857 C4856 1.391 . S
C4857 C4858 1.392 . S
C4857 H4886 0.947 . S
C4858 C4857 1.392 . S
C4858 C4859 1.419 . S
C4858 H4887 0.948 . S
C4859 C4858 1.419 . S
C4859 C4860 1.391 . S
C4859 C4863 1.397 . S
C4860 C4855 1.391 . S
C4860 C4859 1.391 . S
C4860 C4861 1.399 . S
C4861 C4860 1.399 . S
C4861 C4862 1.396 . S
C4861 C4864 1.453 . S
C4861 C4865 1.684 . S
C4862 C4843 1.723 . S
C4862 C4861 1.396 . S
C4862 C4863 1.394 . S
C4863 C4859 1.397 . S
C4863 C4862 1.394 . S
C4863 C4873 1.723 . S
C4864 C4861 1.453 . S
C4864 H4888 0.982 . S
C4864 H4889 0.979 . S
C4864 H4890 0.977 . S
C4865 C4861 1.684 . S
C4865 H4891 0.979 . S
C4865 H4892 0.980 . S
C4865 H4893 0.983 . S
C4866 H4842 0.948 . S
C4866 C4867 1.391 . S
C4866 C4871 1.391 . S
C4867 C4866 1.391 . S
C4867 C4868 1.391 . S
C4868 H4845 0.947 . S
C4868 C4867 1.391 . S
C4868 C4869 1.392 . S
C4869 H4846 0.948 . S
C4869 C4868 1.392 . S
C4869 C4870 1.419 . S
C4870 C4869 1.419 . S
C4870 C4871 1.391 . S
C4870 C4874 1.397 . S
C4871 C4866 1.391 . S
C4871 C4870 1.391 . S
C4871 C4872 1.399 . S
C4872 C4871 1.399 . S
C4872 C4873 1.396 . S
C4872 C4875 1.453 . S
C4872 C4876 1.684 . S
C4873 C4863 1.723 . S
C4873 C4872 1.396 . S
C4873 C4874 1.394 . S
C4874 C4844 1.723 . S
C4874 C4870 1.397 . S
C4874 C4873 1.394 . S
C4875 H4847 0.982 . S
C4875 H4851 0.979 . S
C4875 H4852 0.977 . S
C4875 C4872 1.453 . S
C4876 H4848 0.979 . S
C4876 H4849 0.980 . S
C4876 H4850 0.983 . S
C4876 C4872 1.684 . S
H4877 C4895 0.948 . S
H4878 C4836 0.948 . S
H4879 C4854 0.979 . S
H4880 C4854 0.980 . S
H4881 C4854 0.983 . S
H4882 C4853 0.982 . S
H4883 C4853 0.979 . S
H4884 C4853 0.977 . S
H4885 C4855 0.948 . S
H4886 C4857 0.947 . S
H4887 C4858 0.948 . S
H4888 C4864 0.982 . S
H4889 C4864 0.979 . S
H4890 C4864 0.977 . S
H4891 C4865 0.979 . S
H4892 C4865 0.980 . S
H4893 C4865 0.983 . S
H4894 C4838 0.947 . S
C4895 C4838 1.392 . S
C4895 C4839 1.419 . S
C4895 H4877 0.948 . S
C4896 C4897 1.391 . S
C4896 C4900 1.391 . S
C4896 H4938 0.948 . S
C4897 C4896 1.391 . S
C4897 C4898 1.391 . S
C4898 C4897 1.391 . S
C4898 H4954 0.947 . S
C4898 C4955 1.392 . S
C4899 C4900 1.391 . S
C4899 C4903 1.397 . S
C4899 C4955 1.419 . S
C4900 C4896 1.391 . S
C4900 C4899 1.391 . S
C4900 C4901 1.399 . S
C4901 C4900 1.399 . S
C4901 C4904 1.396 . S
C4901 C4913 1.453 . S
C4901 C4914 1.684 . S
H4902 C4926 0.948 . S
C4903 C4899 1.397 . S
C4903 C4904 1.394 . S
C4903 C4922 1.723 . S
C4904 C4901 1.396 . S
C4904 C4903 1.394 . S
C4904 C4934 1.723 . S
H4905 C4928 0.947 . S
H4906 C4929 0.948 . S
H4907 C4935 0.982 . S
H4908 C4936 0.979 . S
H4909 C4936 0.980 . S
H4910 C4936 0.983 . S
H4911 C4935 0.979 . S
H4912 C4935 0.977 . S
C4913 C4901 1.453 . S
C4913 H4942 0.982 . S
C4913 H4943 0.979 . S
C4913 H4944 0.977 . S
C4914 C4901 1.684 . S
C4914 H4939 0.979 . S
C4914 H4940 0.980 . S
C4914 H4941 0.983 . S
C4915 C4916 1.391 . S
C4915 C4920 1.391 . S
C4915 H4945 0.948 . S
C4916 C4915 1.391 . S
C4916 C4917 1.391 . S
C4917 C4916 1.391 . S
C4917 C4918 1.392 . S
C4917 H4946 0.947 . S
C4918 C4917 1.392 . S
C4918 C4919 1.419 . S
C4918 H4947 0.948 . S
C4919 C4918 1.419 . S
C4919 C4920 1.391 . S
C4919 C4923 1.397 . S
C4920 C4915 1.391 . S
C4920 C4919 1.391 . S
C4920 C4921 1.399 . S
C4921 C4920 1.399 . S
C4921 C4922 1.396 . S
C4921 C4924 1.453 . S
C4921 C4925 1.684 . S
C4922 C4903 1.723 . S
C4922 C4921 1.396 . S
C4922 C4923 1.394 . S
C4923 C4919 1.397 . S
C4923 C4922 1.394 . S
C4923 C4933 1.723 . S
C4924 C4921 1.453 . S
C4924 H4948 0.982 . S
C4924 H4949 0.979 . S
C4924 H4950 0.977 . S
C4925 C4921 1.684 . S
C4925 H4951 0.979 . S
C4925 H4952 0.980 . S
C4925 H4953 0.983 . S
C4926 H4902 0.948 . S
C4926 C4927 1.391 . S
C4926 C4931 1.391 . S
C4927 C4926 1.391 . S
C4927 C4928 1.391 . S
C4928 H4905 0.947 . S
C4928 C4927 1.391 . S
C4928 C4929 1.392 . S
C4929 H4906 0.948 . S
C4929 C4928 1.392 . S
C4929 C4930 1.419 . S
C4930 C4929 1.419 . S
C4930 C4931 1.391 . S
C4930 C4934 1.397 . S
C4931 C4926 1.391 . S
C4931 C4930 1.391 . S
C4931 C4932 1.399 . S
C4932 C4931 1.399 . S
C4932 C4933 1.396 . S
C4932 C4935 1.453 . S
C4932 C4936 1.684 . S
C4933 C4923 1.723 . S
C4933 C4932 1.396 . S
C4933 C4934 1.394 . S
C4934 C4904 1.723 . S
C4934 C4930 1.397 . S
C4934 C4933 1.394 . S
C4935 H4907 0.982 . S
C4935 H4911 0.979 . S
C4935 H4912 0.977 . S
C4935 C4932 1.453 . S
C4936 H4908 0.979 . S
C4936 H4909 0.980 . S
C4936 H4910 0.983 . S
C4936 C4932 1.684 . S
H4937 C4955 0.948 . S
H4938 C4896 0.948 . S
H4939 C4914 0.979 . S
H4940 C4914 0.980 . S
H4941 C4914 0.983 . S
H4942 C4913 0.982 . S
H4943 C4913 0.979 . S
H4944 C4913 0.977 . S
H4945 C4915 0.948 . S
H4946 C4917 0.947 . S
H4947 C4918 0.948 . S
H4948 C4924 0.982 . S
H4949 C4924 0.979 . S
H4950 C4924 0.977 . S
H4951 C4925 0.979 . S
H4952 C4925 0.980 . S
H4953 C4925 0.983 . S
H4954 C4898 0.947 . S
C4955 C4898 1.392 . S
C4955 C4899 1.419 . S
C4955 H4937 0.948 . S
C4956 C4957 1.391 . S
C4956 C4960 1.391 . S
C4956 H4998 0.948 . S
C4957 C4956 1.391 . S
C4957 C4958 1.391 . S
C4958 C4957 1.391 . S
C4958 H5014 0.947 . S
C4958 C5015 1.392 . S
C4959 C4960 1.391 . S
C4959 C4963 1.397 . S
C4959 C5015 1.419 . S
C4960 C4956 1.391 . S
C4960 C4959 1.391 . S
C4960 C4961 1.399 . S
C4961 C4960 1.399 . S
C4961 C4964 1.396 . S
C4961 C4973 1.453 . S
C4961 C4974 1.684 . S
H4962 C4986 0.948 . S
C4963 C4959 1.397 . S
C4963 C4964 1.394 . S
C4963 C4982 1.723 . S
C4964 C4961 1.396 . S
C4964 C4963 1.394 . S
C4964 C4994 1.723 . S
H4965 C4988 0.947 . S
H4966 C4989 0.948 . S
H4967 C4995 0.982 . S
H4968 C4996 0.979 . S
H4969 C4996 0.980 . S
H4970 C4996 0.983 . S
H4971 C4995 0.979 . S
H4972 C4995 0.977 . S
C4973 C4961 1.453 . S
C4973 H5002 0.982 . S
C4973 H5003 0.979 . S
C4973 H5004 0.977 . S
C4974 C4961 1.684 . S
C4974 H4999 0.979 . S
C4974 H5000 0.980 . S
C4974 H5001 0.983 . S
C4975 C4976 1.391 . S
C4975 C4980 1.391 . S
C4975 H5005 0.948 . S
C4976 C4975 1.391 . S
C4976 C4977 1.391 . S
C4977 C4976 1.391 . S
C4977 C4978 1.392 . S
C4977 H5006 0.947 . S
C4978 C4977 1.392 . S
C4978 C4979 1.419 . S
C4978 H5007 0.948 . S
C4979 C4978 1.419 . S
C4979 C4980 1.391 . S
C4979 C4983 1.397 . S
C4980 C4975 1.391 . S
C4980 C4979 1.391 . S
C4980 C4981 1.399 . S
C4981 C4980 1.399 . S
C4981 C4982 1.396 . S
C4981 C4984 1.453 . S
C4981 C4985 1.684 . S
C4982 C4963 1.723 . S
C4982 C4981 1.396 . S
C4982 C4983 1.394 . S
C4983 C4979 1.397 . S
C4983 C4982 1.394 . S
C4983 C4993 1.723 . S
C4984 C4981 1.453 . S
C4984 H5008 0.982 . S
C4984 H5009 0.979 . S
C4984 H5010 0.977 . S
C4985 C4981 1.684 . S
C4985 H5011 0.979 . S
C4985 H5012 0.980 . S
C4985 H5013 0.983 . S
C4986 H4962 0.948 . S
C4986 C4987 1.391 . S
C4986 C4991 1.391 . S
C4987 C4986 1.391 . S
C4987 C4988 1.391 . S
C4988 H4965 0.947 . S
C4988 C4987 1.391 . S
C4988 C4989 1.392 . S
C4989 H4966 0.948 . S
C4989 C4988 1.392 . S
C4989 C4990 1.419 . S
C4990 C4989 1.419 . S
C4990 C4991 1.391 . S
C4990 C4994 1.397 . S
C4991 C4986 1.391 . S
C4991 C4990 1.391 . S
C4991 C4992 1.399 . S
C4992 C4991 1.399 . S
C4992 C4993 1.396 . S
C4992 C4995 1.453 . S
C4992 C4996 1.684 . S
C4993 C4983 1.723 . S
C4993 C4992 1.396 . S
C4993 C4994 1.394 . S
C4994 C4964 1.723 . S
C4994 C4990 1.397 . S
C4994 C4993 1.394 . S
C4995 H4967 0.982 . S
C4995 H4971 0.979 . S
C4995 H4972 0.977 . S
C4995 C4992 1.453 . S
C4996 H4968 0.979 . S
C4996 H4969 0.980 . S
C4996 H4970 0.983 . S
C4996 C4992 1.684 . S
H4997 C5015 0.948 . S
H4998 C4956 0.948 . S
H4999 C4974 0.979 . S
H5000 C4974 0.980 . S
H5001 C4974 0.983 . S
H5002 C4973 0.982 . S
H5003 C4973 0.979 . S
H5004 C4973 0.977 . S
H5005 C4975 0.948 . S
H5006 C4977 0.947 . S
H5007 C4978 0.948 . S
H5008 C4984 0.982 . S
H5009 C4984 0.979 . S
H5010 C4984 0.977 . S
H5011 C4985 0.979 . S
H5012 C4985 0.980 . S
H5013 C4985 0.983 . S
H5014 C4958 0.947 . S
C5015 C4958 1.392 . S
C5015 C4959 1.419 . S
C5015 H4997 0.948 . S
C5016 C5017 1.391 . S
C5016 C5020 1.391 . S
C5016 H5058 0.948 . S
C5017 C5016 1.391 . S
C5017 C5018 1.391 . S
C5018 C5017 1.391 . S
C5018 H5074 0.947 . S
C5018 C5075 1.392 . S
C5019 C5020 1.391 . S
C5019 C5023 1.397 . S
C5019 C5075 1.419 . S
C5020 C5016 1.391 . S
C5020 C5019 1.391 . S
C5020 C5021 1.399 . S
C5021 C5020 1.399 . S
C5021 C5024 1.396 . S
C5021 C5033 1.453 . S
C5021 C5034 1.684 . S
H5022 C5046 0.948 . S
C5023 C5019 1.397 . S
C5023 C5024 1.394 . S
C5023 C5042 1.723 . S
C5024 C5021 1.396 . S
C5024 C5023 1.394 . S
C5024 C5054 1.723 . S
H5025 C5048 0.947 . S
H5026 C5049 0.948 . S
H5027 C5055 0.982 . S
H5028 C5056 0.979 . S
H5029 C5056 0.980 . S
H5030 C5056 0.983 . S
H5031 C5055 0.979 . S
H5032 C5055 0.977 . S
C5033 C5021 1.453 . S
C5033 H5062 0.982 . S
C5033 H5063 0.979 . S
C5033 H5064 0.977 . S
C5034 C5021 1.684 . S
C5034 H5059 0.979 . S
C5034 H5060 0.980 . S
C5034 H5061 0.983 . S
C5035 C5036 1.391 . S
C5035 C5040 1.391 . S
C5035 H5065 0.948 . S
C5036 C5035 1.391 . S
C5036 C5037 1.391 . S
C5037 C5036 1.391 . S
C5037 C5038 1.392 . S
C5037 H5066 0.947 . S
C5038 C5037 1.392 . S
C5038 C5039 1.419 . S
C5038 H5067 0.948 . S
C5039 C5038 1.419 . S
C5039 C5040 1.391 . S
C5039 C5043 1.397 . S
C5040 C5035 1.391 . S
C5040 C5039 1.391 . S
C5040 C5041 1.399 . S
C5041 C5040 1.399 . S
C5041 C5042 1.396 . S
C5041 C5044 1.453 . S
C5041 C5045 1.684 . S
C5042 C5023 1.723 . S
C5042 C5041 1.396 . S
C5042 C5043 1.394 . S
C5043 C5039 1.397 . S
C5043 C5042 1.394 . S
C5043 C5053 1.723 . S
C5044 C5041 1.453 . S
C5044 H5068 0.982 . S
C5044 H5069 0.979 . S
C5044 H5070 0.977 . S
C5045 C5041 1.684 . S
C5045 H5071 0.979 . S
C5045 H5072 0.980 . S
C5045 H5073 0.983 . S
C5046 H5022 0.948 . S
C5046 C5047 1.391 . S
C5046 C5051 1.391 . S
C5047 C5046 1.391 . S
C5047 C5048 1.391 . S
C5048 H5025 0.947 . S
C5048 C5047 1.391 . S
C5048 C5049 1.392 . S
C5049 H5026 0.948 . S
C5049 C5048 1.392 . S
C5049 C5050 1.419 . S
C5050 C5049 1.419 . S
C5050 C5051 1.391 . S
C5050 C5054 1.397 . S
C5051 C5046 1.391 . S
C5051 C5050 1.391 . S
C5051 C5052 1.399 . S
C5052 C5051 1.399 . S
C5052 C5053 1.396 . S
C5052 C5055 1.453 . S
C5052 C5056 1.684 . S
C5053 C5043 1.723 . S
C5053 C5052 1.396 . S
C5053 C5054 1.394 . S
C5054 C5024 1.723 . S
C5054 C5050 1.397 . S
C5054 C5053 1.394 . S
C5055 H5027 0.982 . S
C5055 H5031 0.979 . S
C5055 H5032 0.977 . S
C5055 C5052 1.453 . S
C5056 H5028 0.979 . S
C5056 H5029 0.980 . S
C5056 H5030 0.983 . S
C5056 C5052 1.684 . S
H5057 C5075 0.948 . S
H5058 C5016 0.948 . S
H5059 C5034 0.979 . S
H5060 C5034 0.980 . S
H5061 C5034 0.983 . S
H5062 C5033 0.982 . S
H5063 C5033 0.979 . S
H5064 C5033 0.977 . S
H5065 C5035 0.948 . S
H5066 C5037 0.947 . S
H5067 C5038 0.948 . S
H5068 C5044 0.982 . S
H5069 C5044 0.979 . S
H5070 C5044 0.977 . S
H5071 C5045 0.979 . S
H5072 C5045 0.980 . S
H5073 C5045 0.983 . S
H5074 C5018 0.947 . S
C5075 C5018 1.392 . S
C5075 C5019 1.419 . S
C5075 H5057 0.948 . S
C5076 C5077 1.391 . S
C5076 C5080 1.391 . S
C5076 H5118 0.948 . S
C5077 C5076 1.391 . S
C5077 C5078 1.391 . S
C5078 C5077 1.391 . S
C5078 H5134 0.947 . S
C5078 C5135 1.392 . S
C5079 C5080 1.391 . S
C5079 C5083 1.397 . S
C5079 C5135 1.419 . S
C5080 C5076 1.391 . S
C5080 C5079 1.391 . S
C5080 C5081 1.399 . S
C5081 C5080 1.399 . S
C5081 C5084 1.396 . S
C5081 C5093 1.453 . S
C5081 C5094 1.684 . S
H5082 C5106 0.948 . S
C5083 C5079 1.397 . S
C5083 C5084 1.394 . S
C5083 C5102 1.723 . S
C5084 C5081 1.396 . S
C5084 C5083 1.394 . S
C5084 C5114 1.723 . S
H5085 C5108 0.947 . S
H5086 C5109 0.948 . S
H5087 C5115 0.982 . S
H5088 C5116 0.979 . S
H5089 C5116 0.980 . S
H5090 C5116 0.983 . S
H5091 C5115 0.979 . S
H5092 C5115 0.977 . S
C5093 C5081 1.453 . S
C5093 H5122 0.982 . S
C5093 H5123 0.979 . S
C5093 H5124 0.977 . S
C5094 C5081 1.684 . S
C5094 H5119 0.979 . S
C5094 H5120 0.980 . S
C5094 H5121 0.983 . S
C5095 C5096 1.391 . S
C5095 C5100 1.391 . S
C5095 H5125 0.948 . S
C5096 C5095 1.391 . S
C5096 C5097 1.391 . S
C5097 C5096 1.391 . S
C5097 C5098 1.392 . S
C5097 H5126 0.947 . S
C5098 C5097 1.392 . S
C5098 C5099 1.419 . S
C5098 H5127 0.948 . S
C5099 C5098 1.419 . S
C5099 C5100 1.391 . S
C5099 C5103 1.397 . S
C5100 C5095 1.391 . S
C5100 C5099 1.391 . S
C5100 C5101 1.399 . S
C5101 C5100 1.399 . S
C5101 C5102 1.396 . S
C5101 C5104 1.453 . S
C5101 C5105 1.684 . S
C5102 C5083 1.723 . S
C5102 C5101 1.396 . S
C5102 C5103 1.394 . S
C5103 C5099 1.397 . S
C5103 C5102 1.394 . S
C5103 C5113 1.723 . S
C5104 C5101 1.453 . S
C5104 H5128 0.982 . S
C5104 H5129 0.979 . S
C5104 H5130 0.977 . S
C5105 C5101 1.684 . S
C5105 H5131 0.979 . S
C5105 H5132 0.980 . S
C5105 H5133 0.983 . S
C5106 H5082 0.948 . S
C5106 C5107 1.391 . S
C5106 C5111 1.391 . S
C5107 C5106 1.391 . S
C5107 C5108 1.391 . S
C5108 H5085 0.947 . S
C5108 C5107 1.391 . S
C5108 C5109 1.392 . S
C5109 H5086 0.948 . S
C5109 C5108 1.392 . S
C5109 C5110 1.419 . S
C5110 C5109 1.419 . S
C5110 C5111 1.391 . S
C5110 C5114 1.397 . S
C5111 C5106 1.391 . S
C5111 C5110 1.391 . S
C5111 C5112 1.399 . S
C5112 C5111 1.399 . S
C5112 C5113 1.396 . S
C5112 C5115 1.453 . S
C5112 C5116 1.684 . S
C5113 C5103 1.723 . S
C5113 C5112 1.396 . S
C5113 C5114 1.394 . S
C5114 C5084 1.723 . S
C5114 C5110 1.397 . S
C5114 C5113 1.394 . S
C5115 H5087 0.982 . S
C5115 H5091 0.979 . S
C5115 H5092 0.977 . S
C5115 C5112 1.453 . S
C5116 H5088 0.979 . S
C5116 H5089 0.980 . S
C5116 H5090 0.983 . S
C5116 C5112 1.684 . S
H5117 C5135 0.948 . S
H5118 C5076 0.948 . S
H5119 C5094 0.979 . S
H5120 C5094 0.980 . S
H5121 C5094 0.983 . S
H5122 C5093 0.982 . S
H5123 C5093 0.979 . S
H5124 C5093 0.977 . S
H5125 C5095 0.948 . S
H5126 C5097 0.947 . S
H5127 C5098 0.948 . S
H5128 C5104 0.982 . S
H5129 C5104 0.979 . S
H5130 C5104 0.977 . S
H5131 C5105 0.979 . S
H5132 C5105 0.980 . S
H5133 C5105 0.983 . S
H5134 C5078 0.947 . S
C5135 C5078 1.392 . S
C5135 C5079 1.419 . S
C5135 H5117 0.948 . S
C5136 C5137 1.391 . S
C5136 C5140 1.391 . S
C5136 H5178 0.948 . S
C5137 C5136 1.391 . S
C5137 C5138 1.391 . S
C5138 C5137 1.391 . S
C5138 H5194 0.947 . S
C5138 C5195 1.392 . S
C5139 C5140 1.391 . S
C5139 C5143 1.397 . S
C5139 C5195 1.419 . S
C5140 C5136 1.391 . S
C5140 C5139 1.391 . S
C5140 C5141 1.399 . S
C5141 C5140 1.399 . S
C5141 C5144 1.396 . S
C5141 C5153 1.453 . S
C5141 C5154 1.684 . S
H5142 C5166 0.948 . S
C5143 C5139 1.397 . S
C5143 C5144 1.394 . S
C5143 C5162 1.723 . S
C5144 C5141 1.396 . S
C5144 C5143 1.394 . S
C5144 C5174 1.723 . S
H5145 C5168 0.947 . S
H5146 C5169 0.948 . S
H5147 C5175 0.982 . S
H5148 C5176 0.979 . S
H5149 C5176 0.980 . S
H5150 C5176 0.983 . S
H5151 C5175 0.979 . S
H5152 C5175 0.977 . S
C5153 C5141 1.453 . S
C5153 H5182 0.982 . S
C5153 H5183 0.979 . S
C5153 H5184 0.977 . S
C5154 C5141 1.684 . S
C5154 H5179 0.979 . S
C5154 H5180 0.980 . S
C5154 H5181 0.983 . S
C5155 C5156 1.391 . S
C5155 C5160 1.391 . S
C5155 H5185 0.948 . S
C5156 C5155 1.391 . S
C5156 C5157 1.391 . S
C5157 C5156 1.391 . S
C5157 C5158 1.392 . S
C5157 H5186 0.947 . S
C5158 C5157 1.392 . S
C5158 C5159 1.419 . S
C5158 H5187 0.948 . S
C5159 C5158 1.419 . S
C5159 C5160 1.391 . S
C5159 C5163 1.397 . S
C5160 C5155 1.391 . S
C5160 C5159 1.391 . S
C5160 C5161 1.399 . S
C5161 C5160 1.399 . S
C5161 C5162 1.396 . S
C5161 C5164 1.453 . S
C5161 C5165 1.684 . S
C5162 C5143 1.723 . S
C5162 C5161 1.396 . S
C5162 C5163 1.394 . S
C5163 C5159 1.397 . S
C5163 C5162 1.394 . S
C5163 C5173 1.723 . S
C5164 C5161 1.453 . S
C5164 H5188 0.982 . S
C5164 H5189 0.979 . S
C5164 H5190 0.977 . S
C5165 C5161 1.684 . S
C5165 H5191 0.979 . S
C5165 H5192 0.980 . S
C5165 H5193 0.983 . S
C5166 H5142 0.948 . S
C5166 C5167 1.391 . S
C5166 C5171 1.391 . S
C5167 C5166 1.391 . S
C5167 C5168 1.391 . S
C5168 H5145 0.947 . S
C5168 C5167 1.391 . S
C5168 C5169 1.392 . S
C5169 H5146 0.948 . S
C5169 C5168 1.392 . S
C5169 C5170 1.419 . S
C5170 C5169 1.419 . S
C5170 C5171 1.391 . S
C5170 C5174 1.397 . S
C5171 C5166 1.391 . S
C5171 C5170 1.391 . S
C5171 C5172 1.399 . S
C5172 C5171 1.399 . S
C5172 C5173 1.396 . S
C5172 C5175 1.453 . S
C5172 C5176 1.684 . S
C5173 C5163 1.723 . S
C5173 C5172 1.396 . S
C5173 C5174 1.394 . S
C5174 C5144 1.723 . S
C5174 C5170 1.397 . S
C5174 C5173 1.394 . S
C5175 H5147 0.982 . S
C5175 H5151 0.979 . S
C5175 H5152 0.977 . S
C5175 C5172 1.453 . S
C5176 H5148 0.979 . S
C5176 H5149 0.980 . S
C5176 H5150 0.983 . S
C5176 C5172 1.684 . S
H5177 C5195 0.948 . S
H5178 C5136 0.948 . S
H5179 C5154 0.979 . S
H5180 C5154 0.980 . S
H5181 C5154 0.983 . S
H5182 C5153 0.982 . S
H5183 C5153 0.979 . S
H5184 C5153 0.977 . S
H5185 C5155 0.948 . S
H5186 C5157 0.947 . S
H5187 C5158 0.948 . S
H5188 C5164 0.982 . S
H5189 C5164 0.979 . S
H5190 C5164 0.977 . S
H5191 C5165 0.979 . S
H5192 C5165 0.980 . S
H5193 C5165 0.983 . S
H5194 C5138 0.947 . S
C5195 C5138 1.392 . S
C5195 C5139 1.419 . S
C5195 H5177 0.948 . S
C5196 C5197 1.391 . S
C5196 C5200 1.391 . S
C5196 H5238 0.948 . S
C5197 C5196 1.391 . S
C5197 C5198 1.391 . S
C5198 C5197 1.391 . S
C5198 H5254 0.947 . S
C5198 C5255 1.392 . S
C5199 C5200 1.391 . S
C5199 C5203 1.397 . S
C5199 C5255 1.419 . S
C5200 C5196 1.391 . S
C5200 C5199 1.391 . S
C5200 C5201 1.399 . S
C5201 C5200 1.399 . S
C5201 C5204 1.396 . S
C5201 C5213 1.453 . S
C5201 C5214 1.684 . S
H5202 C5226 0.948 . S
C5203 C5199 1.397 . S
C5203 C5204 1.394 . S
C5203 C5222 1.723 . S
C5204 C5201 1.396 . S
C5204 C5203 1.394 . S
C5204 C5234 1.723 . S
H5205 C5228 0.947 . S
H5206 C5229 0.948 . S
H5207 C5235 0.982 . S
H5208 C5236 0.979 . S
H5209 C5236 0.980 . S
H5210 C5236 0.983 . S
H5211 C5235 0.979 . S
H5212 C5235 0.977 . S
C5213 C5201 1.453 . S
C5213 H5242 0.982 . S
C5213 H5243 0.979 . S
C5213 H5244 0.977 . S
C5214 C5201 1.684 . S
C5214 H5239 0.979 . S
C5214 H5240 0.980 . S
C5214 H5241 0.983 . S
C5215 C5216 1.391 . S
C5215 C5220 1.391 . S
C5215 H5245 0.948 . S
C5216 C5215 1.391 . S
C5216 C5217 1.391 . S
C5217 C5216 1.391 . S
C5217 C5218 1.392 . S
C5217 H5246 0.947 . S
C5218 C5217 1.392 . S
C5218 C5219 1.419 . S
C5218 H5247 0.948 . S
C5219 C5218 1.419 . S
C5219 C5220 1.391 . S
C5219 C5223 1.397 . S
C5220 C5215 1.391 . S
C5220 C5219 1.391 . S
C5220 C5221 1.399 . S
C5221 C5220 1.399 . S
C5221 C5222 1.396 . S
C5221 C5224 1.453 . S
C5221 C5225 1.684 . S
C5222 C5203 1.723 . S
C5222 C5221 1.396 . S
C5222 C5223 1.394 . S
C5223 C5219 1.397 . S
C5223 C5222 1.394 . S
C5223 C5233 1.723 . S
C5224 C5221 1.453 . S
C5224 H5248 0.982 . S
C5224 H5249 0.979 . S
C5224 H5250 0.977 . S
C5225 C5221 1.684 . S
C5225 H5251 0.979 . S
C5225 H5252 0.980 . S
C5225 H5253 0.983 . S
C5226 H5202 0.948 . S
C5226 C5227 1.391 . S
C5226 C5231 1.391 . S
C5227 C5226 1.391 . S
C5227 C5228 1.391 . S
C5228 H5205 0.947 . S
C5228 C5227 1.391 . S
C5228 C5229 1.392 . S
C5229 H5206 0.948 . S
C5229 C5228 1.392 . S
C5229 C5230 1.419 . S
C5230 C5229 1.419 . S
C5230 C5231 1.391 . S
C5230 C5234 1.397 . S
C5231 C5226 1.391 . S
C5231 C5230 1.391 . S
C5231 C5232 1.399 . S
C5232 C5231 1.399 . S
C5232 C5233 1.396 . S
C5232 C5235 1.453 . S
C5232 C5236 1.684 . S
C5233 C5223 1.723 . S
C5233 C5232 1.396 . S
C5233 C5234 1.394 . S
C5234 C5204 1.723 . S
C5234 C5230 1.397 . S
C5234 C5233 1.394 . S
C5235 H5207 0.982 . S
C5235 H5211 0.979 . S
C5235 H5212 0.977 . S
C5235 C5232 1.453 . S
C5236 H5208 0.979 . S
C5236 H5209 0.980 . S
C5236 H5210 0.983 . S
C5236 C5232 1.684 . S
H5237 C5255 0.948 . S
H5238 C5196 0.948 . S
H5239 C5214 0.979 . S
H5240 C5214 0.980 . S
H5241 C5214 0.983 . S
H5242 C5213 0.982 . S
H5243 C5213 0.979 . S
H5244 C5213 0.977 . S
H5245 C5215 0.948 . S
H5246 C5217 0.947 . S
H5247 C5218 0.948 . S
H5248 C5224 0.982 . S
H5249 C5224 0.979 . S
H5250 C5224 0.977 . S
H5251 C5225 0.979 . S
H5252 C5225 0.980 . S
H5253 C5225 0.983 . S
H5254 C5198 0.947 . S
C5255 C5198 1.392 . S
C5255 C5199 1.419 . S
C5255 H5237 0.948 . S
C5256 C5257 1.391 . S
C5256 C5260 1.391 . S
C5256 H5298 0.948 . S
C5257 C5256 1.391 . S
C5257 C5258 1.391 . S
C5258 C5257 1.391 . S
C5258 H5314 0.947 . S
C5258 C5315 1.392 . S
C5259 C5260 1.391 . S
C5259 C5263 1.397 . S
C5259 C5315 1.419 . S
C5260 C5256 1.391 . S
C5260 C5259 1.391 . S
C5260 C5261 1.399 . S
C5261 C5260 1.399 . S
C5261 C5264 1.396 . S
C5261 C5273 1.453 . S
C5261 C5274 1.684 . S
H5262 C5286 0.948 . S
C5263 C5259 1.397 . S
C5263 C5264 1.394 . S
C5263 C5282 1.723 . S
C5264 C5261 1.396 . S
C5264 C5263 1.394 . S
C5264 C5294 1.723 . S
H5265 C5288 0.947 . S
H5266 C5289 0.948 . S
H5267 C5295 0.982 . S
H5268 C5296 0.979 . S
H5269 C5296 0.980 . S
H5270 C5296 0.983 . S
H5271 C5295 0.979 . S
H5272 C5295 0.977 . S
C5273 C5261 1.453 . S
C5273 H5302 0.982 . S
C5273 H5303 0.979 . S
C5273 H5304 0.977 . S
C5274 C5261 1.684 . S
C5274 H5299 0.979 . S
C5274 H5300 0.980 . S
C5274 H5301 0.983 . S
C5275 C5276 1.391 . S
C5275 C5280 1.391 . S
C5275 H5305 0.948 . S
C5276 C5275 1.391 . S
C5276 C5277 1.391 . S
C5277 C5276 1.391 . S
C5277 C5278 1.392 . S
C5277 H5306 0.947 . S
C5278 C5277 1.392 . S
C5278 C5279 1.419 . S
C5278 H5307 0.948 . S
C5279 C5278 1.419 . S
C5279 C5280 1.391 . S
C5279 C5283 1.397 . S
C5280 C5275 1.391 . S
C5280 C5279 1.391 . S
C5280 C5281 1.399 . S
C5281 C5280 1.399 . S
C5281 C5282 1.396 . S
C5281 C5284 1.453 . S
C5281 C5285 1.684 . S
C5282 C5263 1.723 . S
C5282 C5281 1.396 . S
C5282 C5283 1.394 . S
C5283 C5279 1.397 . S
C5283 C5282 1.394 . S
C5283 C5293 1.723 . S
C5284 C5281 1.453 . S
C5284 H5308 0.982 . S
C5284 H5309 0.979 . S
C5284 H5310 0.977 . S
C5285 C5281 1.684 . S
C5285 H5311 0.979 . S
C5285 H5312 0.980 . S
C5285 H5313 0.983 . S
C5286 H5262 0.948 . S
C5286 C5287 1.391 . S
C5286 C5291 1.391 . S
C5287 C5286 1.391 . S
C5287 C5288 1.391 . S
C5288 H5265 0.947 . S
C5288 C5287 1.391 . S
C5288 C5289 1.392 . S
C5289 H5266 0.948 . S
C5289 C5288 1.392 . S
C5289 C5290 1.419 . S
C5290 C5289 1.419 . S
C5290 C5291 1.391 . S
C5290 C5294 1.397 . S
C5291 C5286 1.391 . S
C5291 C5290 1.391 . S
C5291 C5292 1.399 . S
C5292 C5291 1.399 . S
C5292 C5293 1.396 . S
C5292 C5295 1.453 . S
C5292 C5296 1.684 . S
C5293 C5283 1.723 . S
C5293 C5292 1.396 . S
C5293 C5294 1.394 . S
C5294 C5264 1.723 . S
C5294 C5290 1.397 . S
C5294 C5293 1.394 . S
C5295 H5267 0.982 . S
C5295 H5271 0.979 . S
C5295 H5272 0.977 . S
C5295 C5292 1.453 . S
C5296 H5268 0.979 . S
C5296 H5269 0.980 . S
C5296 H5270 0.983 . S
C5296 C5292 1.684 . S
H5297 C5315 0.948 . S
H5298 C5256 0.948 . S
H5299 C5274 0.979 . S
H5300 C5274 0.980 . S
H5301 C5274 0.983 . S
H5302 C5273 0.982 . S
H5303 C5273 0.979 . S
H5304 C5273 0.977 . S
H5305 C5275 0.948 . S
H5306 C5277 0.947 . S
H5307 C5278 0.948 . S
H5308 C5284 0.982 . S
H5309 C5284 0.979 . S
H5310 C5284 0.977 . S
H5311 C5285 0.979 . S
H5312 C5285 0.980 . S
H5313 C5285 0.983 . S
H5314 C5258 0.947 . S
C5315 C5258 1.392 . S
C5315 C5259 1.419 . S
C5315 H5297 0.948 . S
C5316 C5317 1.391 . S
C5316 C5320 1.391 . S
C5316 H5358 0.948 . S
C5317 C5316 1.391 . S
C5317 C5318 1.391 . S
C5318 C5317 1.391 . S
C5318 H5374 0.947 . S
C5318 C5375 1.392 . S
C5319 C5320 1.391 . S
C5319 C5323 1.397 . S
C5319 C5375 1.419 . S
C5320 C5316 1.391 . S
C5320 C5319 1.391 . S
C5320 C5321 1.399 . S
C5321 C5320 1.399 . S
C5321 C5324 1.396 . S
C5321 C5333 1.453 . S
C5321 C5334 1.684 . S
H5322 C5346 0.948 . S
C5323 C5319 1.397 . S
C5323 C5324 1.394 . S
C5323 C5342 1.723 . S
C5324 C5321 1.396 . S
C5324 C5323 1.394 . S
C5324 C5354 1.723 . S
H5325 C5348 0.944 . S
H5326 C5349 0.948 . S
H5327 C5355 0.982 . S
H5328 C5356 0.979 . S
H5329 C5356 0.980 . S
H5330 C5356 0.983 . S
H5331 C5355 0.979 . S
H5332 C5355 0.977 . S
C5333 C5321 1.453 . S
C5333 H5362 0.982 . S
C5333 H5363 0.979 . S
C5333 H5364 0.977 . S
C5334 C5321 1.684 . S
C5334 H5359 0.979 . S
C5334 H5360 0.980 . S
C5334 H5361 0.983 . S
C5335 C5336 1.391 . S
C5335 C5340 1.391 . S
C5335 H5365 0.948 . S
C5336 C5335 1.391 . S
C5336 C5337 1.391 . S
C5337 C5336 1.391 . S
C5337 C5338 1.392 . S
C5337 H5366 0.947 . S
C5338 C5337 1.392 . S
C5338 C5339 1.419 . S
C5338 H5367 0.948 . S
C5339 C5338 1.419 . S
C5339 C5340 1.391 . S
C5339 C5343 1.397 . S
C5340 C5335 1.391 . S
C5340 C5339 1.391 . S
C5340 C5341 1.399 . S
C5341 C5340 1.399 . S
C5341 C5342 1.396 . S
C5341 C5344 1.453 . S
C5341 C5345 1.684 . S
C5342 C5323 1.723 . S
C5342 C5341 1.396 . S
C5342 C5343 1.394 . S
C5343 C5339 1.397 . S
C5343 C5342 1.394 . S
C5343 C5353 1.723 . S
C5344 C5341 1.453 . S
C5344 H5368 0.982 . S
C5344 H5369 0.979 . S
C5344 H5370 0.977 . S
C5345 C5341 1.684 . S
C5345 H5371 0.979 . S
C5345 H5372 0.980 . S
C5345 H5373 0.983 . S
C5346 H5322 0.948 . S
C5346 C5347 1.391 . S
C5346 C5351 1.391 . S
C5347 C5346 1.391 . S
C5347 C5348 1.391 . S
C5348 H5325 0.944 . S
C5348 C5347 1.391 . S
C5348 C5349 1.392 . S
C5349 H5326 0.948 . S
C5349 C5348 1.392 . S
C5349 C5350 1.419 . S
C5350 C5349 1.419 . S
C5350 C5351 1.391 . S
C5350 C5354 1.397 . S
C5351 C5346 1.391 . S
C5351 C5350 1.391 . S
C5351 C5352 1.399 . S
C5352 C5351 1.399 . S
C5352 C5353 1.396 . S
C5352 C5355 1.453 . S
C5352 C5356 1.684 . S
C5353 C5343 1.723 . S
C5353 C5352 1.396 . S
C5353 C5354 1.394 . S
C5354 C5324 1.723 . S
C5354 C5350 1.397 . S
C5354 C5353 1.394 . S
C5355 H5327 0.982 . S
C5355 H5331 0.979 . S
C5355 H5332 0.977 . S
C5355 C5352 1.453 . S
C5356 H5328 0.979 . S
C5356 H5329 0.980 . S
C5356 H5330 0.983 . S
C5356 C5352 1.684 . S
H5357 C5375 0.948 . S
H5358 C5316 0.948 . S
H5359 C5334 0.979 . S
H5360 C5334 0.980 . S
H5361 C5334 0.983 . S
H5362 C5333 0.982 . S
H5363 C5333 0.979 . S
H5364 C5333 0.977 . S
H5365 C5335 0.948 . S
H5366 C5337 0.947 . S
H5367 C5338 0.948 . S
H5368 C5344 0.982 . S
H5369 C5344 0.979 . S
H5370 C5344 0.977 . S
H5371 C5345 0.979 . S
H5372 C5345 0.980 . S
H5373 C5345 0.983 . S
H5374 C5318 0.947 . S
C5375 C5318 1.392 . S
C5375 C5319 1.419 . S
C5375 H5357 0.948 . S
C5376 C5377 1.391 . S
C5376 C5380 1.391 . S
C5376 H5418 0.948 . S
C5377 C5376 1.391 . S
C5377 C5378 1.391 . S
C5378 C5377 1.391 . S
C5378 H5434 0.947 . S
C5378 C5435 1.392 . S
C5379 C5380 1.391 . S
C5379 C5383 1.397 . S
C5379 C5435 1.419 . S
C5380 C5376 1.391 . S
C5380 C5379 1.391 . S
C5380 C5381 1.399 . S
C5381 C5380 1.399 . S
C5381 C5384 1.396 . S
C5381 C5393 1.453 . S
C5381 C5394 1.684 . S
H5382 C5406 0.948 . S
C5383 C5379 1.397 . S
C5383 C5384 1.394 . S
C5383 C5402 1.723 . S
C5384 C5381 1.396 . S
C5384 C5383 1.394 . S
C5384 C5414 1.723 . S
H5385 C5408 0.947 . S
H5386 C5409 0.948 . S
H5387 C5415 0.982 . S
H5388 C5416 0.979 . S
H5389 C5416 0.980 . S
H5390 C5416 0.983 . S
H5391 C5415 0.979 . S
H5392 C5415 0.977 . S
C5393 C5381 1.453 . S
C5393 H5422 0.982 . S
C5393 H5423 0.979 . S
C5393 H5424 0.977 . S
C5394 C5381 1.684 . S
C5394 H5419 0.979 . S
C5394 H5420 0.980 . S
C5394 H5421 0.983 . S
C5395 C5396 1.391 . S
C5395 C5400 1.391 . S
C5395 H5425 0.948 . S
C5396 C5395 1.391 . S
C5396 C5397 1.391 . S
C5397 C5396 1.391 . S
C5397 C5398 1.392 . S
C5397 H5426 0.947 . S
C5398 C5397 1.392 . S
C5398 C5399 1.419 . S
C5398 H5427 0.948 . S
C5399 C5398 1.419 . S
C5399 C5400 1.391 . S
C5399 C5403 1.397 . S
C5400 C5395 1.391 . S
C5400 C5399 1.391 . S
C5400 C5401 1.399 . S
C5401 C5400 1.399 . S
C5401 C5402 1.396 . S
C5401 C5404 1.453 . S
C5401 C5405 1.684 . S
C5402 C5383 1.723 . S
C5402 C5401 1.396 . S
C5402 C5403 1.394 . S
C5403 C5399 1.397 . S
C5403 C5402 1.394 . S
C5403 C5413 1.723 . S
C5404 C5401 1.453 . S
C5404 H5428 0.982 . S
C5404 H5429 0.979 . S
C5404 H5430 0.977 . S
C5405 C5401 1.684 . S
C5405 H5431 0.979 . S
C5405 H5432 0.980 . S
C5405 H5433 0.983 . S
C5406 H5382 0.948 . S
C5406 C5407 1.391 . S
C5406 C5411 1.391 . S
C5407 C5406 1.391 . S
C5407 C5408 1.391 . S
C5408 H5385 0.947 . S
C5408 C5407 1.391 . S
C5408 C5409 1.392 . S
C5409 H5386 0.948 . S
C5409 C5408 1.392 . S
C5409 C5410 1.419 . S
C5410 C5409 1.419 . S
C5410 C5411 1.391 . S
C5410 C5414 1.397 . S
C5411 C5406 1.391 . S
C5411 C5410 1.391 . S
C5411 C5412 1.399 . S
C5412 C5411 1.399 . S
C5412 C5413 1.396 . S
C5412 C5415 1.453 . S
C5412 C5416 1.684 . S
C5413 C5403 1.723 . S
C5413 C5412 1.396 . S
C5413 C5414 1.394 . S
C5414 C5384 1.723 . S
C5414 C5410 1.397 . S
C5414 C5413 1.394 . S
C5415 H5387 0.982 . S
C5415 H5391 0.979 . S
C5415 H5392 0.977 . S
C5415 C5412 1.453 . S
C5416 H5388 0.979 . S
C5416 H5389 0.980 . S
C5416 H5390 0.983 . S
C5416 C5412 1.684 . S
H5417 C5435 0.948 . S
H5418 C5376 0.948 . S
H5419 C5394 0.979 . S
H5420 C5394 0.980 . S
H5421 C5394 0.983 . S
H5422 C5393 0.982 . S
H5423 C5393 0.979 . S
H5424 C5393 0.977 . S
H5425 C5395 0.948 . S
H5426 C5397 0.947 . S
H5427 C5398 0.948 . S
H5428 C5404 0.982 . S
H5429 C5404 0.979 . S
H5430 C5404 0.977 . S
H5431 C5405 0.979 . S
H5432 C5405 0.980 . S
H5433 C5405 0.983 . S
H5434 C5378 0.947 . S
C5435 C5378 1.392 . S
C5435 C5379 1.419 . S
C5435 H5417 0.948 . S
C5436 C5437 1.391 . S
C5436 C5440 1.391 . S
C5436 H5478 0.948 . S
C5437 C5436 1.391 . S
C5437 C5438 1.391 . S
C5438 C5437 1.391 . S
C5438 H5494 0.947 . S
C5438 C5495 1.392 . S
C5439 C5440 1.391 . S
C5439 C5443 1.397 . S
C5439 C5495 1.419 . S
C5440 C5436 1.391 . S
C5440 C5439 1.391 . S
C5440 C5441 1.399 . S
C5441 C5440 1.399 . S
C5441 C5444 1.396 . S
C5441 C5453 1.453 . S
C5441 C5454 1.684 . S
H5442 C5466 0.948 . S
C5443 C5439 1.397 . S
C5443 C5444 1.394 . S
C5443 C5462 1.723 . S
C5444 C5441 1.396 . S
C5444 C5443 1.394 . S
C5444 C5474 1.723 . S
H5445 C5468 0.947 . S
H5446 C5469 0.948 . S
H5447 C5475 0.982 . S
H5448 C5476 0.979 . S
H5449 C5476 0.980 . S
H5450 C5476 0.983 . S
H5451 C5475 0.979 . S
H5452 C5475 0.977 . S
C5453 C5441 1.453 . S
C5453 H5482 0.982 . S
C5453 H5483 0.979 . S
C5453 H5484 0.977 . S
C5454 C5441 1.684 . S
C5454 H5479 0.979 . S
C5454 H5480 0.980 . S
C5454 H5481 0.983 . S
C5455 C5456 1.391 . S
C5455 C5460 1.391 . S
C5455 H5485 0.948 . S
C5456 C5455 1.391 . S
C5456 C5457 1.391 . S
C5457 C5456 1.391 . S
C5457 C5458 1.392 . S
C5457 H5486 0.947 . S
C5458 C5457 1.392 . S
C5458 C5459 1.419 . S
C5458 H5487 0.948 . S
C5459 C5458 1.419 . S
C5459 C5460 1.391 . S
C5459 C5463 1.397 . S
C5460 C5455 1.391 . S
C5460 C5459 1.391 . S
C5460 C5461 1.399 . S
C5461 C5460 1.399 . S
C5461 C5462 1.396 . S
C5461 C5464 1.453 . S
C5461 C5465 1.684 . S
C5462 C5443 1.723 . S
C5462 C5461 1.396 . S
C5462 C5463 1.394 . S
C5463 C5459 1.397 . S
C5463 C5462 1.394 . S
C5463 C5473 1.723 . S
C5464 C5461 1.453 . S
C5464 H5488 0.982 . S
C5464 H5489 0.979 . S
C5464 H5490 0.977 . S
C5465 C5461 1.684 . S
C5465 H5491 0.979 . S
C5465 H5492 0.980 . S
C5465 H5493 0.983 . S
C5466 H5442 0.948 . S
C5466 C5467 1.391 . S
C5466 C5471 1.391 . S
C5467 C5466 1.391 . S
C5467 C5468 1.391 . S
C5468 H5445 0.947 . S
C5468 C5467 1.391 . S
C5468 C5469 1.392 . S
C5469 H5446 0.948 . S
C5469 C5468 1.392 . S
C5469 C5470 1.419 . S
C5470 C5469 1.419 . S
C5470 C5471 1.391 . S
C5470 C5474 1.397 . S
C5471 C5466 1.391 . S
C5471 C5470 1.391 . S
C5471 C5472 1.399 . S
C5472 C5471 1.399 . S
C5472 C5473 1.396 . S
C5472 C5475 1.453 . S
C5472 C5476 1.684 . S
C5473 C5463 1.723 . S
C5473 C5472 1.396 . S
C5473 C5474 1.394 . S
C5474 C5444 1.723 . S
C5474 C5470 1.397 . S
C5474 C5473 1.394 . S
C5475 H5447 0.982 . S
C5475 H5451 0.979 . S
C5475 H5452 0.977 . S
C5475 C5472 1.453 . S
C5476 H5448 0.979 . S
C5476 H5449 0.980 . S
C5476 H5450 0.983 . S
C5476 C5472 1.684 . S
H5477 C5495 0.948 . S
H5478 C5436 0.948 . S
H5479 C5454 0.979 . S
H5480 C5454 0.980 . S
H5481 C5454 0.983 . S
H5482 C5453 0.982 . S
H5483 C5453 0.979 . S
H5484 C5453 0.977 . S
H5485 C5455 0.948 . S
H5486 C5457 0.947 . S
H5487 C5458 0.948 . S
H5488 C5464 0.982 . S
H5489 C5464 0.979 . S
H5490 C5464 0.977 . S
H5491 C5465 0.979 . S
H5492 C5465 0.980 . S
H5493 C5465 0.983 . S
H5494 C5438 0.947 . S
C5495 C5438 1.392 . S
C5495 C5439 1.419 . S
C5495 H5477 0.948 . S
C5496 C5497 1.391 . S
C5496 C5500 1.391 . S
C5496 H5538 0.948 . S
C5497 C5496 1.391 . S
C5497 C5498 1.391 . S
C5498 C5497 1.391 . S
C5498 H5554 0.947 . S
C5498 C5555 1.392 . S
C5499 C5500 1.391 . S
C5499 C5503 1.397 . S
C5499 C5555 1.419 . S
C5500 C5496 1.391 . S
C5500 C5499 1.391 . S
C5500 C5501 1.399 . S
C5501 C5500 1.399 . S
C5501 C5504 1.396 . S
C5501 C5513 1.453 . S
C5501 C5514 1.684 . S
H5502 C5526 0.948 . S
C5503 C5499 1.397 . S
C5503 C5504 1.394 . S
C5503 C5522 1.723 . S
C5504 C5501 1.396 . S
C5504 C5503 1.394 . S
C5504 C5534 1.723 . S
H5505 C5528 0.947 . S
H5506 C5529 0.948 . S
H5507 C5535 0.982 . S
H5508 C5536 0.979 . S
H5509 C5536 0.980 . S
H5510 C5536 0.983 . S
H5511 C5535 0.979 . S
H5512 C5535 0.977 . S
C5513 C5501 1.453 . S
C5513 H5542 0.982 . S
C5513 H5543 0.979 . S
C5513 H5544 0.977 . S
C5514 C5501 1.684 . S
C5514 H5539 0.979 . S
C5514 H5540 0.980 . S
C5514 H5541 0.983 . S
C5515 C5516 1.391 . S
C5515 C5520 1.391 . S
C5515 H5545 0.948 . S
C5516 C5515 1.391 . S
C5516 C5517 1.391 . S
C5517 C5516 1.391 . S
C5517 C5518 1.392 . S
C5517 H5546 0.947 . S
C5518 C5517 1.392 . S
C5518 C5519 1.419 . S
C5518 H5547 0.948 . S
C5519 C5518 1.419 . S
C5519 C5520 1.391 . S
C5519 C5523 1.397 . S
C5520 C5515 1.391 . S
C5520 C5519 1.391 . S
C5520 C5521 1.399 . S
C5521 C5520 1.399 . S
C5521 C5522 1.396 . S
C5521 C5524 1.453 . S
C5521 C5525 1.684 . S
C5522 C5503 1.723 . S
C5522 C5521 1.396 . S
C5522 C5523 1.394 . S
C5523 C5519 1.397 . S
C5523 C5522 1.394 . S
C5523 C5533 1.723 . S
C5524 C5521 1.453 . S
C5524 H5548 0.982 . S
C5524 H5549 0.979 . S
C5524 H5550 0.977 . S
C5525 C5521 1.684 . S
C5525 H5551 0.979 . S
C5525 H5552 0.980 . S
C5525 H5553 0.983 . S
C5526 H5502 0.948 . S
C5526 C5527 1.391 . S
C5526 C5531 1.391 . S
C5527 C5526 1.391 . S
C5527 C5528 1.391 . S
C5528 H5505 0.947 . S
C5528 C5527 1.391 . S
C5528 C5529 1.392 . S
C5529 H5506 0.948 . S
C5529 C5528 1.392 . S
C5529 C5530 1.419 . S
C5530 C5529 1.419 . S
C5530 C5531 1.391 . S
C5530 C5534 1.397 . S
C5531 C5526 1.391 . S
C5531 C5530 1.391 . S
C5531 C5532 1.399 . S
C5532 C5531 1.399 . S
C5532 C5533 1.396 . S
C5532 C5535 1.453 . S
C5532 C5536 1.684 . S
C5533 C5523 1.723 . S
C5533 C5532 1.396 . S
C5533 C5534 1.394 . S
C5534 C5504 1.723 . S
C5534 C5530 1.397 . S
C5534 C5533 1.394 . S
C5535 H5507 0.982 . S
C5535 H5511 0.979 . S
C5535 H5512 0.977 . S
C5535 C5532 1.453 . S
C5536 H5508 0.979 . S
C5536 H5509 0.980 . S
C5536 H5510 0.983 . S
C5536 C5532 1.684 . S
H5537 C5555 0.948 . S
H5538 C5496 0.948 . S
H5539 C5514 0.979 . S
H5540 C5514 0.980 . S
H5541 C5514 0.983 . S
H5542 C5513 0.982 . S
H5543 C5513 0.979 . S
H5544 C5513 0.977 . S
H5545 C5515 0.948 . S
H5546 C5517 0.947 . S
H5547 C5518 0.948 . S
H5548 C5524 0.982 . S
H5549 C5524 0.979 . S
H5550 C5524 0.977 . S
H5551 C5525 0.979 . S
H5552 C5525 0.980 . S
H5553 C5525 0.983 . S
H5554 C5498 0.947 . S
C5555 C5498 1.392 . S
C5555 C5499 1.419 . S
C5555 H5537 0.948 . S
C5556 C5557 1.391 . S
C5556 C5560 1.391 . S
C5556 H5598 0.948 . S
C5557 C5556 1.391 . S
C5557 C5558 1.391 . S
C5558 C5557 1.391 . S
C5558 H5614 0.947 . S
C5558 C5615 1.392 . S
C5559 C5560 1.391 . S
C5559 C5563 1.397 . S
C5559 C5615 1.419 . S
C5560 C5556 1.391 . S
C5560 C5559 1.391 . S
C5560 C5561 1.399 . S
C5561 C5560 1.399 . S
C5561 C5564 1.396 . S
C5561 C5573 1.453 . S
C5561 C5574 1.684 . S
H5562 C5586 0.948 . S
C5563 C5559 1.397 . S
C5563 C5564 1.394 . S
C5563 C5582 1.723 . S
C5564 C5561 1.396 . S
C5564 C5563 1.394 . S
C5564 C5594 1.723 . S
H5565 C5588 0.947 . S
H5566 C5589 0.948 . S
H5567 C5595 0.982 . S
H5568 C5596 0.979 . S
H5569 C5596 0.980 . S
H5570 C5596 0.983 . S
H5571 C5595 0.979 . S
H5572 C5595 0.977 . S
C5573 C5561 1.453 . S
C5573 H5602 0.982 . S
C5573 H5603 0.979 . S
C5573 H5604 0.977 . S
C5574 C5561 1.684 . S
C5574 H5599 0.979 . S
C5574 H5600 0.980 . S
C5574 H5601 0.983 . S
C5575 C5576 1.391 . S
C5575 C5580 1.391 . S
C5575 H5605 0.948 . S
C5576 C5575 1.391 . S
C5576 C5577 1.391 . S
C5577 C5576 1.391 . S
C5577 C5578 1.392 . S
C5577 H5606 0.947 . S
C5578 C5577 1.392 . S
C5578 C5579 1.419 . S
C5578 H5607 0.948 . S
C5579 C5578 1.419 . S
C5579 C5580 1.391 . S
C5579 C5583 1.397 . S
C5580 C5575 1.391 . S
C5580 C5579 1.391 . S
C5580 C5581 1.399 . S
C5581 C5580 1.399 . S
C5581 C5582 1.396 . S
C5581 C5584 1.453 . S
C5581 C5585 1.684 . S
C5582 C5563 1.723 . S
C5582 C5581 1.396 . S
C5582 C5583 1.394 . S
C5583 C5579 1.397 . S
C5583 C5582 1.394 . S
C5583 C5593 1.723 . S
C5584 C5581 1.453 . S
C5584 H5608 0.982 . S
C5584 H5609 0.979 . S
C5584 H5610 0.977 . S
C5585 C5581 1.684 . S
C5585 H5611 0.979 . S
C5585 H5612 0.980 . S
C5585 H5613 0.983 . S
C5586 H5562 0.948 . S
C5586 C5587 1.391 . S
C5586 C5591 1.391 . S
C5587 C5586 1.391 . S
C5587 C5588 1.391 . S
C5588 H5565 0.947 . S
C5588 C5587 1.391 . S
C5588 C5589 1.392 . S
C5589 H5566 0.948 . S
C5589 C5588 1.392 . S
C5589 C5590 1.419 . S
C5590 C5589 1.419 . S
C5590 C5591 1.391 . S
C5590 C5594 1.397 . S
C5591 C5586 1.391 . S
C5591 C5590 1.391 . S
C5591 C5592 1.399 . S
C5592 C5591 1.399 . S
C5592 C5593 1.396 . S
C5592 C5595 1.453 . S
C5592 C5596 1.684 . S
C5593 C5583 1.723 . S
C5593 C5592 1.396 . S
C5593 C5594 1.394 . S
C5594 C5564 1.723 . S
C5594 C5590 1.397 . S
C5594 C5593 1.394 . S
C5595 H5567 0.982 . S
C5595 H5571 0.979 . S
C5595 H5572 0.977 . S
C5595 C5592 1.453 . S
C5596 H5568 0.979 . S
C5596 H5569 0.980 . S
C5596 H5570 0.983 . S
C5596 C5592 1.684 . S
H5597 C5615 0.948 . S
H5598 C5556 0.948 . S
H5599 C5574 0.979 . S
H5600 C5574 0.980 . S
H5601 C5574 0.983 . S
H5602 C5573 0.982 . S
H5603 C5573 0.979 . S
H5604 C5573 0.977 . S
H5605 C5575 0.948 . S
H5606 C5577 0.947 . S
H5607 C5578 0.948 . S
H5608 C5584 0.982 . S
H5609 C5584 0.979 . S
H5610 C5584 0.977 . S
H5611 C5585 0.979 . S
H5612 C5585 0.980 . S
H5613 C5585 0.983 . S
H5614 C5558 0.947 . S
C5615 C5558 1.392 . S
C5615 C5559 1.419 . S
C5615 H5597 0.948 . S
C5616 C5617 1.391 . S
C5616 C5620 1.391 . S
C5616 H5658 0.948 . S
C5617 C5616 1.391 . S
C5617 C5618 1.391 . S
C5618 C5617 1.391 . S
C5618 H5674 0.947 . S
C5618 C5675 1.392 . S
C5619 C5620 1.391 . S
C5619 C5623 1.397 . S
C5619 C5675 1.419 . S
C5620 C5616 1.391 . S
C5620 C5619 1.391 . S
C5620 C5621 1.399 . S
C5621 C5620 1.399 . S
C5621 C5624 1.396 . S
C5621 C5633 1.453 . S
C5621 C5634 1.684 . S
H5622 C5646 0.948 . S
C5623 C5619 1.397 . S
C5623 C5624 1.394 . S
C5623 C5642 1.723 . S
C5624 C5621 1.396 . S
C5624 C5623 1.394 . S
C5624 C5654 1.723 . S
H5625 C5648 0.947 . S
H5626 C5649 0.948 . S
H5627 C5655 0.982 . S
H5628 C5656 0.979 . S
H5629 C5656 0.980 . S
H5630 C5656 0.983 . S
H5631 C5655 0.979 . S
H5632 C5655 0.977 . S
C5633 C5621 1.453 . S
C5633 H5662 0.982 . S
C5633 H5663 0.979 . S
C5633 H5664 0.977 . S
C5634 C5621 1.684 . S
C5634 H5659 0.979 . S
C5634 H5660 0.980 . S
C5634 H5661 0.983 . S
C5635 C5636 1.391 . S
C5635 C5640 1.391 . S
C5635 H5665 0.948 . S
C5636 C5635 1.391 . S
C5636 C5637 1.391 . S
C5637 C5636 1.391 . S
C5637 C5638 1.392 . S
C5637 H5666 0.947 . S
C5638 C5637 1.392 . S
C5638 C5639 1.419 . S
C5638 H5667 0.948 . S
C5639 C5638 1.419 . S
C5639 C5640 1.391 . S
C5639 C5643 1.397 . S
C5640 C5635 1.391 . S
C5640 C5639 1.391 . S
C5640 C5641 1.399 . S
C5641 C5640 1.399 . S
C5641 C5642 1.396 . S
C5641 C5644 1.453 . S
C5641 C5645 1.684 . S
C5642 C5623 1.723 . S
C5642 C5641 1.396 . S
C5642 C5643 1.394 . S
C5643 C5639 1.397 . S
C5643 C5642 1.394 . S
C5643 C5653 1.723 . S
C5644 C5641 1.453 . S
C5644 H5668 0.982 . S
C5644 H5669 0.979 . S
C5644 H5670 0.977 . S
C5645 C5641 1.684 . S
C5645 H5671 0.979 . S
C5645 H5672 0.980 . S
C5645 H5673 0.983 . S
C5646 H5622 0.948 . S
C5646 C5647 1.391 . S
C5646 C5651 1.391 . S
C5647 C5646 1.391 . S
C5647 C5648 1.391 . S
C5648 H5625 0.947 . S
C5648 C5647 1.391 . S
C5648 C5649 1.392 . S
C5649 H5626 0.948 . S
C5649 C5648 1.392 . S
C5649 C5650 1.419 . S
C5650 C5649 1.419 . S
C5650 C5651 1.391 . S
C5650 C5654 1.397 . S
C5651 C5646 1.391 . S
C5651 C5650 1.391 . S
C5651 C5652 1.399 . S
C5652 C5651 1.399 . S
C5652 C5653 1.396 . S
C5652 C5655 1.453 . S
C5652 C5656 1.684 . S
C5653 C5643 1.723 . S
C5653 C5652 1.396 . S
C5653 C5654 1.394 . S
C5654 C5624 1.723 . S
C5654 C5650 1.397 . S
C5654 C5653 1.394 . S
C5655 H5627 0.982 . S
C5655 H5631 0.979 . S
C5655 H5632 0.977 . S
C5655 C5652 1.453 . S
C5656 H5628 0.979 . S
C5656 H5629 0.980 . S
C5656 H5630 0.983 . S
C5656 C5652 1.684 . S
H5657 C5675 0.948 . S
H5658 C5616 0.948 . S
H5659 C5634 0.979 . S
H5660 C5634 0.980 . S
H5661 C5634 0.983 . S
H5662 C5633 0.982 . S
H5663 C5633 0.979 . S
H5664 C5633 0.977 . S
H5665 C5635 0.948 . S
H5666 C5637 0.947 . S
H5667 C5638 0.948 . S
H5668 C5644 0.982 . S
H5669 C5644 0.979 . S
H5670 C5644 0.977 . S
H5671 C5645 0.979 . S
H5672 C5645 0.980 . S
H5673 C5645 0.983 . S
H5674 C5618 0.947 . S
C5675 C5618 1.392 . S
C5675 C5619 1.419 . S
C5675 H5657 0.948 . S
C5676 C5677 1.391 . S
C5676 C5680 1.391 . S
C5676 H5718 0.948 . S
C5677 C5676 1.391 . S
C5677 C5678 1.391 . S
C5678 C5677 1.391 . S
C5678 H5734 0.947 . S
C5678 C5735 1.392 . S
C5679 C5680 1.391 . S
C5679 C5683 1.397 . S
C5679 C5735 1.419 . S
C5680 C5676 1.391 . S
C5680 C5679 1.391 . S
C5680 C5681 1.399 . S
C5681 C5680 1.399 . S
C5681 C5684 1.396 . S
C5681 C5693 1.453 . S
C5681 C5694 1.684 . S
H5682 C5706 0.948 . S
C5683 C5679 1.397 . S
C5683 C5684 1.394 . S
C5683 C5702 1.723 . S
C5684 C5681 1.396 . S
C5684 C5683 1.394 . S
C5684 C5714 1.723 . S
H5685 C5708 0.947 . S
H5686 C5709 0.948 . S
H5687 C5715 0.982 . S
H5688 C5716 0.979 . S
H5689 C5716 0.980 . S
H5690 C5716 0.983 . S
H5691 C5715 0.979 . S
H5692 C5715 0.977 . S
C5693 C5681 1.453 . S
C5693 H5722 0.982 . S
C5693 H5723 0.979 . S
C5693 H5724 0.977 . S
C5694 C5681 1.684 . S
C5694 H5719 0.979 . S
C5694 H5720 0.980 . S
C5694 H5721 0.983 . S
C5695 C5696 1.391 . S
C5695 C5700 1.391 . S
C5695 H5725 0.948 . S
C5696 C5695 1.391 . S
C5696 C5697 1.391 . S
C5697 C5696 1.391 . S
C5697 C5698 1.392 . S
C5697 H5726 0.947 . S
C5698 C5697 1.392 . S
C5698 C5699 1.419 . S
C5698 H5727 0.948 . S
C5699 C5698 1.419 . S
C5699 C5700 1.391 . S
C5699 C5703 1.397 . S
C5700 C5695 1.391 . S
C5700 C5699 1.391 . S
C5700 C5701 1.399 . S
C5701 C5700 1.399 . S
C5701 C5702 1.396 . S
C5701 C5704 1.453 . S
C5701 C5705 1.684 . S
C5702 C5683 1.723 . S
C5702 C5701 1.396 . S
C5702 C5703 1.394 . S
C5703 C5699 1.397 . S
C5703 C5702 1.394 . S
C5703 C5713 1.723 . S
C5704 C5701 1.453 . S
C5704 H5728 0.982 . S
C5704 H5729 0.979 . S
C5704 H5730 0.977 . S
C5705 C5701 1.684 . S
C5705 H5731 0.979 . S
C5705 H5732 0.980 . S
C5705 H5733 0.983 . S
C5706 H5682 0.948 . S
C5706 C5707 1.391 . S
C5706 C5711 1.391 . S
C5707 C5706 1.391 . S
C5707 C5708 1.391 . S
C5708 H5685 0.947 . S
C5708 C5707 1.391 . S
C5708 C5709 1.392 . S
C5709 H5686 0.948 . S
C5709 C5708 1.392 . S
C5709 C5710 1.419 . S
C5710 C5709 1.419 . S
C5710 C5711 1.391 . S
C5710 C5714 1.397 . S
C5711 C5706 1.391 . S
C5711 C5710 1.391 . S
C5711 C5712 1.399 . S
C5712 C5711 1.399 . S
C5712 C5713 1.396 . S
C5712 C5715 1.453 . S
C5712 C5716 1.684 . S
C5713 C5703 1.723 . S
C5713 C5712 1.396 . S
C5713 C5714 1.394 . S
C5714 C5684 1.723 . S
C5714 C5710 1.397 . S
C5714 C5713 1.394 . S
C5715 H5687 0.982 . S
C5715 H5691 0.979 . S
C5715 H5692 0.977 . S
C5715 C5712 1.453 . S
C5716 H5688 0.979 . S
C5716 H5689 0.980 . S
C5716 H5690 0.983 . S
C5716 C5712 1.684 . S
H5717 C5735 0.948 . S
H5718 C5676 0.948 . S
H5719 C5694 0.979 . S
H5720 C5694 0.980 . S
H5721 C5694 0.983 . S
H5722 C5693 0.982 . S
H5723 C5693 0.979 . S
H5724 C5693 0.977 . S
H5725 C5695 0.948 . S
H5726 C5697 0.947 . S
H5727 C5698 0.948 . S
H5728 C5704 0.982 . S
H5729 C5704 0.979 . S
H5730 C5704 0.977 . S
H5731 C5705 0.979 . S
H5732 C5705 0.980 . S
H5733 C5705 0.983 . S
H5734 C5678 0.947 . S
C5735 C5678 1.392 . S
C5735 C5679 1.419 . S
C5735 H5717 0.948 . S
C5736 C5737 1.391 . S
C5736 C5740 1.391 . S
C5736 H5778 0.948 . S
C5737 C5736 1.391 . S
C5737 C5738 1.391 . S
C5738 C5737 1.391 . S
C5738 H5794 0.947 . S
C5738 C5795 1.392 . S
C5739 C5740 1.391 . S
C5739 C5743 1.397 . S
C5739 C5795 1.419 . S
C5740 C5736 1.391 . S
C5740 C5739 1.391 . S
C5740 C5741 1.399 . S
C5741 C5740 1.399 . S
C5741 C5744 1.396 . S
C5741 C5753 1.453 . S
C5741 C5754 1.684 . S
H5742 C5766 0.948 . S
C5743 C5739 1.397 . S
C5743 C5744 1.394 . S
C5743 C5762 1.723 . S
C5744 C5741 1.396 . S
C5744 C5743 1.394 . S
C5744 C5774 1.723 . S
H5745 C5768 0.947 . S
H5746 C5769 0.948 . S
H5747 C5775 0.982 . S
H5748 C5776 0.979 . S
H5749 C5776 0.980 . S
H5750 C5776 0.983 . S
H5751 C5775 0.979 . S
H5752 C5775 0.977 . S
C5753 C5741 1.453 . S
C5753 H5782 0.982 . S
C5753 H5783 0.979 . S
C5753 H5784 0.977 . S
C5754 C5741 1.684 . S
C5754 H5779 0.979 . S
C5754 H5780 0.980 . S
C5754 H5781 0.983 . S
C5755 C5756 1.391 . S
C5755 C5760 1.391 . S
C5755 H5785 0.948 . S
C5756 C5755 1.391 . S
C5756 C5757 1.391 . S
C5757 C5756 1.391 . S
C5757 C5758 1.392 . S
C5757 H5786 0.947 . S
C5758 C5757 1.392 . S
C5758 C5759 1.419 . S
C5758 H5787 0.948 . S
C5759 C5758 1.419 . S
C5759 C5760 1.391 . S
C5759 C5763 1.397 . S
C5760 C5755 1.391 . S
C5760 C5759 1.391 . S
C5760 C5761 1.399 . S
C5761 C5760 1.399 . S
C5761 C5762 1.396 . S
C5761 C5764 1.453 . S
C5761 C5765 1.684 . S
C5762 C5743 1.723 . S
C5762 C5761 1.396 . S
C5762 C5763 1.394 . S
C5763 C5759 1.397 . S
C5763 C5762 1.394 . S
C5763 C5773 1.723 . S
C5764 C5761 1.453 . S
C5764 H5788 0.982 . S
C5764 H5789 0.979 . S
C5764 H5790 0.977 . S
C5765 C5761 1.684 . S
C5765 H5791 0.979 . S
C5765 H5792 0.980 . S
C5765 H5793 0.983 . S
C5766 H5742 0.948 . S
C5766 C5767 1.391 . S
C5766 C5771 1.391 . S
C5767 C5766 1.391 . S
C5767 C5768 1.391 . S
C5768 H5745 0.947 . S
C5768 C5767 1.391 . S
C5768 C5769 1.392 . S
C5769 H5746 0.948 . S
C5769 C5768 1.392 . S
C5769 C5770 1.419 . S
C5770 C5769 1.419 . S
C5770 C5771 1.391 . S
C5770 C5774 1.397 . S
C5771 C5766 1.391 . S
C5771 C5770 1.391 . S
C5771 C5772 1.399 . S
C5772 C5771 1.399 . S
C5772 C5773 1.396 . S
C5772 C5775 1.453 . S
C5772 C5776 1.684 . S
C5773 C5763 1.723 . S
C5773 C5772 1.396 . S
C5773 C5774 1.394 . S
C5774 C5744 1.723 . S
C5774 C5770 1.397 . S
C5774 C5773 1.394 . S
C5775 H5747 0.982 . S
C5775 H5751 0.979 . S
C5775 H5752 0.977 . S
C5775 C5772 1.453 . S
C5776 H5748 0.979 . S
C5776 H5749 0.980 . S
C5776 H5750 0.983 . S
C5776 C5772 1.684 . S
H5777 C5795 0.948 . S
H5778 C5736 0.948 . S
H5779 C5754 0.979 . S
H5780 C5754 0.980 . S
H5781 C5754 0.983 . S
H5782 C5753 0.982 . S
H5783 C5753 0.979 . S
H5784 C5753 0.977 . S
H5785 C5755 0.948 . S
H5786 C5757 0.947 . S
H5787 C5758 0.948 . S
H5788 C5764 0.982 . S
H5789 C5764 0.979 . S
H5790 C5764 0.977 . S
H5791 C5765 0.979 . S
H5792 C5765 0.980 . S
H5793 C5765 0.983 . S
H5794 C5738 0.947 . S
C5795 C5738 1.392 . S
C5795 C5739 1.419 . S
C5795 H5777 0.948 . S
C5796 C5797 1.391 . S
C5796 C5800 1.391 . S
C5796 H5838 0.948 . S
C5797 C5796 1.391 . S
C5797 C5798 1.391 . S
C5798 C5797 1.391 . S
C5798 H5854 0.947 . S
C5798 C5855 1.392 . S
C5799 C5800 1.391 . S
C5799 C5803 1.397 . S
C5799 C5855 1.419 . S
C5800 C5796 1.391 . S
C5800 C5799 1.391 . S
C5800 C5801 1.399 . S
C5801 C5800 1.399 . S
C5801 C5804 1.396 . S
C5801 C5813 1.453 . S
C5801 C5814 1.684 . S
H5802 C5826 0.948 . S
C5803 C5799 1.397 . S
C5803 C5804 1.394 . S
C5803 C5822 1.723 . S
C5804 C5801 1.396 . S
C5804 C5803 1.394 . S
C5804 C5834 1.723 . S
H5805 C5828 0.947 . S
H5806 C5829 0.948 . S
H5807 C5835 0.982 . S
H5808 C5836 0.979 . S
H5809 C5836 0.980 . S
H5810 C5836 0.983 . S
H5811 C5835 0.979 . S
H5812 C5835 0.977 . S
C5813 C5801 1.453 . S
C5813 H5842 0.982 . S
C5813 H5843 0.979 . S
C5813 H5844 0.977 . S
C5814 C5801 1.684 . S
C5814 H5839 0.979 . S
C5814 H5840 0.980 . S
C5814 H5841 0.983 . S
C5815 C5816 1.391 . S
C5815 C5820 1.391 . S
C5815 H5845 0.948 . S
C5816 C5815 1.391 . S
C5816 C5817 1.391 . S
C5817 C5816 1.391 . S
C5817 C5818 1.392 . S
C5817 H5846 0.947 . S
C5818 C5817 1.392 . S
C5818 C5819 1.419 . S
C5818 H5847 0.948 . S
C5819 C5818 1.419 . S
C5819 C5820 1.391 . S
C5819 C5823 1.397 . S
C5820 C5815 1.391 . S
C5820 C5819 1.391 . S
C5820 C5821 1.399 . S
C5821 C5820 1.399 . S
C5821 C5822 1.396 . S
C5821 C5824 1.453 . S
C5821 C5825 1.684 . S
C5822 C5803 1.723 . S
C5822 C5821 1.396 . S
C5822 C5823 1.394 . S
C5823 C5819 1.397 . S
C5823 C5822 1.394 . S
C5823 C5833 1.723 . S
C5824 C5821 1.453 . S
C5824 H5848 0.982 . S
C5824 H5849 0.979 . S
C5824 H5850 0.977 . S
C5825 C5821 1.684 . S
C5825 H5851 0.979 . S
C5825 H5852 0.980 . S
C5825 H5853 0.983 . S
C5826 H5802 0.948 . S
C5826 C5827 1.391 . S
C5826 C5831 1.391 . S
C5827 C5826 1.391 . S
C5827 C5828 1.391 . S
C5828 H5805 0.947 . S
C5828 C5827 1.391 . S
C5828 C5829 1.392 . S
C5829 H5806 0.948 . S
C5829 C5828 1.392 . S
C5829 C5830 1.419 . S
C5830 C5829 1.419 . S
C5830 C5831 1.391 . S
C5830 C5834 1.397 . S
C5831 C5826 1.391 . S
C5831 C5830 1.391 . S
C5831 C5832 1.399 . S
C5832 C5831 1.399 . S
C5832 C5833 1.396 . S
C5832 C5835 1.453 . S
C5832 C5836 1.684 . S
C5833 C5823 1.723 . S
C5833 C5832 1.396 . S
C5833 C5834 1.394 . S
C5834 C5804 1.723 . S
C5834 C5830 1.397 . S
C5834 C5833 1.394 . S
C5835 H5807 0.982 . S
C5835 H5811 0.979 . S
C5835 H5812 0.977 . S
C5835 C5832 1.453 . S
C5836 H5808 0.979 . S
C5836 H5809 0.980 . S
C5836 H5810 0.983 . S
C5836 C5832 1.684 . S
H5837 C5855 0.948 . S
H5838 C5796 0.948 . S
H5839 C5814 0.979 . S
H5840 C5814 0.980 . S
H5841 C5814 0.983 . S
H5842 C5813 0.982 . S
H5843 C5813 0.979 . S
H5844 C5813 0.977 . S
H5845 C5815 0.948 . S
H5846 C5817 0.947 . S
H5847 C5818 0.948 . S
H5848 C5824 0.982 . S
H5849 C5824 0.979 . S
H5850 C5824 0.977 . S
H5851 C5825 0.979 . S
H5852 C5825 0.980 . S
H5853 C5825 0.983 . S
H5854 C5798 0.947 . S
C5855 C5798 1.392 . S
C5855 C5799 1.419 . S
C5855 H5837 0.948 . S
C5856 C5857 1.391 . S
C5856 C5860 1.391 . S
C5856 H5898 0.948 . S
C5857 C5856 1.391 . S
C5857 C5858 1.391 . S
C5858 C5857 1.391 . S
C5858 H5914 0.947 . S
C5858 C5915 1.392 . S
C5859 C5860 1.391 . S
C5859 C5863 1.397 . S
C5859 C5915 1.419 . S
C5860 C5856 1.391 . S
C5860 C5859 1.391 . S
C5860 C5861 1.399 . S
C5861 C5860 1.399 . S
C5861 C5864 1.396 . S
C5861 C5873 1.453 . S
C5861 C5874 1.684 . S
H5862 C5886 0.948 . S
C5863 C5859 1.397 . S
C5863 C5864 1.394 . S
C5863 C5882 1.723 . S
C5864 C5861 1.396 . S
C5864 C5863 1.394 . S
C5864 C5894 1.723 . S
H5865 C5888 0.947 . S
H5866 C5889 0.948 . S
H5867 C5895 0.982 . S
H5868 C5896 0.979 . S
H5869 C5896 0.980 . S
H5870 C5896 0.983 . S
H5871 C5895 0.979 . S
H5872 C5895 0.977 . S
C5873 C5861 1.453 . S
C5873 H5902 0.982 . S
C5873 H5903 0.979 . S
C5873 H5904 0.977 . S
C5874 C5861 1.684 . S
C5874 H5899 0.979 . S
C5874 H5900 0.980 . S
C5874 H5901 0.983 . S
C5875 C5876 1.391 . S
C5875 C5880 1.391 . S
C5875 H5905 0.948 . S
C5876 C5875 1.391 . S
C5876 C5877 1.391 . S
C5877 C5876 1.391 . S
C5877 C5878 1.392 . S
C5877 H5906 0.947 . S
C5878 C5877 1.392 . S
C5878 C5879 1.419 . S
C5878 H5907 0.948 . S
C5879 C5878 1.419 . S
C5879 C5880 1.391 . S
C5879 C5883 1.397 . S
C5880 C5875 1.391 . S
C5880 C5879 1.391 . S
C5880 C5881 1.399 . S
C5881 C5880 1.399 . S
C5881 C5882 1.396 . S
C5881 C5884 1.453 . S
C5881 C5885 1.684 . S
C5882 C5863 1.723 . S
C5882 C5881 1.396 . S
C5882 C5883 1.394 . S
C5883 C5879 1.397 . S
C5883 C5882 1.394 . S
C5883 C5893 1.723 . S
C5884 C5881 1.453 . S
C5884 H5908 0.982 . S
C5884 H5909 0.979 . S
C5884 H5910 0.977 . S
C5885 C5881 1.684 . S
C5885 H5911 0.979 . S
C5885 H5912 0.980 . S
C5885 H5913 0.983 . S
C5886 H5862 0.948 . S
C5886 C5887 1.391 . S
C5886 C5891 1.391 . S
C5887 C5886 1.391 . S
C5887 C5888 1.391 . S
C5888 H5865 0.947 . S
C5888 C5887 1.391 . S
C5888 C5889 1.392 . S
C5889 H5866 0.948 . S
C5889 C5888 1.392 . S
C5889 C5890 1.419 . S
C5890 C5889 1.419 . S
C5890 C5891 1.391 . S
C5890 C5894 1.397 . S
C5891 C5886 1.391 . S
C5891 C5890 1.391 . S
C5891 C5892 1.399 . S
C5892 C5891 1.399 . S
C5892 C5893 1.396 . S
C5892 C5895 1.453 . S
C5892 C5896 1.684 . S
C5893 C5883 1.723 . S
C5893 C5892 1.396 . S
C5893 C5894 1.394 . S
C5894 C5864 1.723 . S
C5894 C5890 1.397 . S
C5894 C5893 1.394 . S
C5895 H5867 0.982 . S
C5895 H5871 0.979 . S
C5895 H5872 0.977 . S
C5895 C5892 1.453 . S
C5896 H5868 0.979 . S
C5896 H5869 0.980 . S
C5896 H5870 0.983 . S
C5896 C5892 1.684 . S
H5897 C5915 0.948 . S
H5898 C5856 0.948 . S
H5899 C5874 0.979 . S
H5900 C5874 0.980 . S
H5901 C5874 0.983 . S
H5902 C5873 0.982 . S
H5903 C5873 0.979 . S
H5904 C5873 0.977 . S
H5905 C5875 0.948 . S
H5906 C5877 0.947 . S
H5907 C5878 0.948 . S
H5908 C5884 0.982 . S
H5909 C5884 0.979 . S
H5910 C5884 0.977 . S
H5911 C5885 0.979 . S
H5912 C5885 0.980 . S
H5913 C5885 0.983 . S
H5914 C5858 0.947 . S
C5915 C5858 1.392 . S
C5915 C5859 1.419 . S
C5915 H5897 0.948 . S
C5916 C5917 1.391 . S
C5916 C5920 1.391 . S
C5916 H5958 0.948 . S
C5917 C5916 1.391 . S
C5917 C5918 1.391 . S
C5918 C5917 1.391 . S
C5918 H5974 0.947 . S
C5918 C5975 1.392 . S
C5919 C5920 1.391 . S
C5919 C5923 1.397 . S
C5919 C5975 1.419 . S
C5920 C5916 1.391 . S
C5920 C5919 1.391 . S
C5920 C5921 1.399 . S
C5921 C5920 1.399 . S
C5921 C5924 1.396 . S
C5921 C5933 1.453 . S
C5921 C5934 1.684 . S
H5922 C5946 0.948 . S
C5923 C5919 1.397 . S
C5923 C5924 1.394 . S
C5923 C5942 1.723 . S
C5924 C5921 1.396 . S
C5924 C5923 1.394 . S
C5924 C5954 1.723 . S
H5925 C5948 0.947 . S
H5926 C5949 0.948 . S
H5927 C5955 0.982 . S
H5928 C5956 0.979 . S
H5929 C5956 0.980 . S
H5930 C5956 0.983 . S
H5931 C5955 0.979 . S
H5932 C5955 0.977 . S
C5933 C5921 1.453 . S
C5933 H5962 0.982 . S
C5933 H5963 0.979 . S
C5933 H5964 0.977 . S
C5934 C5921 1.684 . S
C5934 H5959 0.979 . S
C5934 H5960 0.980 . S
C5934 H5961 0.983 . S
C5935 C5936 1.391 . S
C5935 C5940 1.391 . S
C5935 H5965 0.948 . S
C5936 C5935 1.391 . S
C5936 C5937 1.391 . S
C5937 C5936 1.391 . S
C5937 C5938 1.392 . S
C5937 H5966 0.947 . S
C5938 C5937 1.392 . S
C5938 C5939 1.419 . S
C5938 H5967 0.948 . S
C5939 C5938 1.419 . S
C5939 C5940 1.391 . S
C5939 C5943 1.397 . S
C5940 C5935 1.391 . S
C5940 C5939 1.391 . S
C5940 C5941 1.399 . S
C5941 C5940 1.399 . S
C5941 C5942 1.396 . S
C5941 C5944 1.453 . S
C5941 C5945 1.684 . S
C5942 C5923 1.723 . S
C5942 C5941 1.396 . S
C5942 C5943 1.394 . S
C5943 C5939 1.397 . S
C5943 C5942 1.394 . S
C5943 C5953 1.723 . S
C5944 C5941 1.453 . S
C5944 H5968 0.982 . S
C5944 H5969 0.979 . S
C5944 H5970 0.977 . S
C5945 C5941 1.684 . S
C5945 H5971 0.979 . S
C5945 H5972 0.980 . S
C5945 H5973 0.983 . S
C5946 H5922 0.948 . S
C5946 C5947 1.391 . S
C5946 C5951 1.391 . S
C5947 C5946 1.391 . S
C5947 C5948 1.391 . S
C5948 H5925 0.947 . S
C5948 C5947 1.391 . S
C5948 C5949 1.392 . S
C5949 H5926 0.948 . S
C5949 C5948 1.392 . S
C5949 C5950 1.419 . S
C5950 C5949 1.419 . S
C5950 C5951 1.391 . S
C5950 C5954 1.397 . S
C5951 C5946 1.391 . S
C5951 C5950 1.391 . S
C5951 C5952 1.399 . S
C5952 C5951 1.399 . S
C5952 C5953 1.396 . S
C5952 C5955 1.453 . S
C5952 C5956 1.684 . S
C5953 C5943 1.723 . S
C5953 C5952 1.396 . S
C5953 C5954 1.394 . S
C5954 C5924 1.723 . S
C5954 C5950 1.397 . S
C5954 C5953 1.394 . S
C5955 H5927 0.982 . S
C5955 H5931 0.979 . S
C5955 H5932 0.977 . S
C5955 C5952 1.453 . S
C5956 H5928 0.979 . S
C5956 H5929 0.980 . S
C5956 H5930 0.983 . S
C5956 C5952 1.684 . S
H5957 C5975 0.948 . S
H5958 C5916 0.948 . S
H5959 C5934 0.979 . S
H5960 C5934 0.980 . S
H5961 C5934 0.983 . S
H5962 C5933 0.982 . S
H5963 C5933 0.979 . S
H5964 C5933 0.977 . S
H5965 C5935 0.948 . S
H5966 C5937 0.947 . S
H5967 C5938 0.948 . S
H5968 C5944 0.982 . S
H5969 C5944 0.979 . S
H5970 C5944 0.977 . S
H5971 C5945 0.979 . S
H5972 C5945 0.980 . S
H5973 C5945 0.983 . S
H5974 C5918 0.947 . S
C5975 C5918 1.392 . S
C5975 C5919 1.419 . S
C5975 H5957 0.948 . S
C5976 C5977 1.391 . S
C5976 C5980 1.391 . S
C5976 H6018 0.948 . S
C5977 C5976 1.391 . S
C5977 C5978 1.391 . S
C5978 C5977 1.391 . S
C5978 H6034 0.947 . S
C5978 C6035 1.392 . S
C5979 C5980 1.391 . S
C5979 C5983 1.397 . S
C5979 C6035 1.419 . S
C5980 C5976 1.391 . S
C5980 C5979 1.391 . S
C5980 C5981 1.399 . S
C5981 C5980 1.399 . S
C5981 C5984 1.396 . S
C5981 C5993 1.453 . S
C5981 C5994 1.684 . S
H5982 C6006 0.948 . S
C5983 C5979 1.397 . S
C5983 C5984 1.394 . S
C5983 C6002 1.723 . S
C5984 C5981 1.396 . S
C5984 C5983 1.394 . S
C5984 C6014 1.723 . S
H5985 C6008 0.947 . S
H5986 C6009 0.948 . S
H5987 C6015 0.982 . S
H5988 C6016 0.979 . S
H5989 C6016 0.980 . S
H5990 C6016 0.983 . S
H5991 C6015 0.979 . S
H5992 C6015 0.977 . S
C5993 C5981 1.453 . S
C5993 H6022 0.982 . S
C5993 H6023 0.979 . S
C5993 H6024 0.977 . S
C5994 C5981 1.684 . S
C5994 H6019 0.979 . S
C5994 H6020 0.980 . S
C5994 H6021 0.983 . S
C5995 C5996 1.391 . S
C5995 C6000 1.391 . S
C5995 H6025 0.948 . S
C5996 C5995 1.391 . S
C5996 C5997 1.391 . S
C5997 C5996 1.391 . S
C5997 C5998 1.392 . S
C5997 H6026 0.947 . S
C5998 C5997 1.392 . S
C5998 C5999 1.419 . S
C5998 H6027 0.948 . S
C5999 C5998 1.419 . S
C5999 C6000 1.391 . S
C5999 C6003 1.397 . S
C6000 C5995 1.391 . S
C6000 C5999 1.391 . S
C6000 C6001 1.399 . S
C6001 C6000 1.399 . S
C6001 C6002 1.396 . S
C6001 C6004 1.453 . S
C6001 C6005 1.684 . S
C6002 C5983 1.723 . S
C6002 C6001 1.396 . S
C6002 C6003 1.394 . S
C6003 C5999 1.397 . S
C6003 C6002 1.394 . S
C6003 C6013 1.723 . S
C6004 C6001 1.453 . S
C6004 H6028 0.982 . S
C6004 H6029 0.979 . S
C6004 H6030 0.977 . S
C6005 C6001 1.684 . S
C6005 H6031 0.979 . S
C6005 H6032 0.980 . S
C6005 H6033 0.983 . S
C6006 H5982 0.948 . S
C6006 C6007 1.391 . S
C6006 C6011 1.391 . S
C6007 C6006 1.391 . S
C6007 C6008 1.391 . S
C6008 H5985 0.947 . S
C6008 C6007 1.391 . S
C6008 C6009 1.392 . S
C6009 H5986 0.948 . S
C6009 C6008 1.392 . S
C6009 C6010 1.419 . S
C6010 C6009 1.419 . S
C6010 C6011 1.391 . S
C6010 C6014 1.397 . S
C6011 C6006 1.391 . S
C6011 C6010 1.391 . S
C6011 C6012 1.399 . S
C6012 C6011 1.399 . S
C6012 C6013 1.396 . S
C6012 C6015 1.453 . S
C6012 C6016 1.684 . S
C6013 C6003 1.723 . S
C6013 C6012 1.396 . S
C6013 C6014 1.394 . S
C6014 C5984 1.723 . S
C6014 C6010 1.397 . S
C6014 C6013 1.394 . S
C6015 H5987 0.982 . S
C6015 H5991 0.979 . S
C6015 H5992 0.977 . S
C6015 C6012 1.453 . S
C6016 H5988 0.979 . S
C6016 H5989 0.980 . S
C6016 H5990 0.983 . S
C6016 C6012 1.684 . S
H6017 C6035 0.948 . S
H6018 C5976 0.948 . S
H6019 C5994 0.979 . S
H6020 C5994 0.980 . S
H6021 C5994 0.983 . S
H6022 C5993 0.982 . S
H6023 C5993 0.979 . S
H6024 C5993 0.977 . S
H6025 C5995 0.948 . S
H6026 C5997 0.947 . S
H6027 C5998 0.948 . S
H6028 C6004 0.982 . S
H6029 C6004 0.979 . S
H6030 C6004 0.977 . S
H6031 C6005 0.979 . S
H6032 C6005 0.980 . S
H6033 C6005 0.983 . S
H6034 C5978 0.947 . S
C6035 C5978 1.392 . S
C6035 C5979 1.419 . S
C6035 H6017 0.948 . S
C6036 C6037 1.391 . S
C6036 C6040 1.391 . S
C6036 H6078 0.948 . S
C6037 C6036 1.391 . S
C6037 C6038 1.391 . S
C6038 C6037 1.391 . S
C6038 H6094 0.947 . S
C6038 C6095 1.392 . S
C6039 C6040 1.391 . S
C6039 C6043 1.397 . S
C6039 C6095 1.419 . S
C6040 C6036 1.391 . S
C6040 C6039 1.391 . S
C6040 C6041 1.399 . S
C6041 C6040 1.399 . S
C6041 C6044 1.396 . S
C6041 C6053 1.453 . S
C6041 C6054 1.684 . S
H6042 C6066 0.948 . S
C6043 C6039 1.397 . S
C6043 C6044 1.394 . S
C6043 C6062 1.723 . S
C6044 C6041 1.396 . S
C6044 C6043 1.394 . S
C6044 C6074 1.723 . S
H6045 C6068 0.947 . S
H6046 C6069 0.948 . S
H6047 C6075 0.982 . S
H6048 C6076 0.979 . S
H6049 C6076 0.980 . S
H6050 C6076 0.983 . S
H6051 C6075 0.979 . S
H6052 C6075 0.977 . S
C6053 C6041 1.453 . S
C6053 H6082 0.982 . S
C6053 H6083 0.979 . S
C6053 H6084 0.977 . S
C6054 C6041 1.684 . S
C6054 H6079 0.979 . S
C6054 H6080 0.980 . S
C6054 H6081 0.983 . S
C6055 C6056 1.391 . S
C6055 C6060 1.391 . S
C6055 H6085 0.948 . S
C6056 C6055 1.391 . S
C6056 C6057 1.391 . S
C6057 C6056 1.391 . S
C6057 C6058 1.392 . S
C6057 H6086 0.947 . S
C6058 C6057 1.392 . S
C6058 C6059 1.419 . S
C6058 H6087 0.948 . S
C6059 C6058 1.419 . S
C6059 C6060 1.391 . S
C6059 C6063 1.397 . S
C6060 C6055 1.391 . S
C6060 C6059 1.391 . S
C6060 C6061 1.399 . S
C6061 C6060 1.399 . S
C6061 C6062 1.396 . S
C6061 C6064 1.453 . S
C6061 C6065 1.684 . S
C6062 C6043 1.723 . S
C6062 C6061 1.396 . S
C6062 C6063 1.394 . S
C6063 C6059 1.397 . S
C6063 C6062 1.394 . S
C6063 C6073 1.723 . S
C6064 C6061 1.453 . S
C6064 H6088 0.982 . S
C6064 H6089 0.979 . S
C6064 H6090 0.977 . S
C6065 C6061 1.684 . S
C6065 H6091 0.979 . S
C6065 H6092 0.980 . S
C6065 H6093 0.983 . S
C6066 H6042 0.948 . S
C6066 C6067 1.391 . S
C6066 C6071 1.391 . S
C6067 C6066 1.391 . S
C6067 C6068 1.391 . S
C6068 H6045 0.947 . S
C6068 C6067 1.391 . S
C6068 C6069 1.392 . S
C6069 H6046 0.948 . S
C6069 C6068 1.392 . S
C6069 C6070 1.419 . S
C6070 C6069 1.419 . S
C6070 C6071 1.391 . S
C6070 C6074 1.397 . S
C6071 C6066 1.391 . S
C6071 C6070 1.391 . S
C6071 C6072 1.399 . S
C6072 C6071 1.399 . S
C6072 C6073 1.396 . S
C6072 C6075 1.453 . S
C6072 C6076 1.684 . S
C6073 C6063 1.723 . S
C6073 C6072 1.396 . S
C6073 C6074 1.394 . S
C6074 C6044 1.723 . S
C6074 C6070 1.397 . S
C6074 C6073 1.394 . S
C6075 H6047 0.982 . S
C6075 H6051 0.979 . S
C6075 H6052 0.977 . S
C6075 C6072 1.453 . S
C6076 H6048 0.979 . S
C6076 H6049 0.980 . S
C6076 H6050 0.983 . S
C6076 C6072 1.684 . S
H6077 C6095 0.948 . S
H6078 C6036 0.948 . S
H6079 C6054 0.979 . S
H6080 C6054 0.980 . S
H6081 C6054 0.983 . S
H6082 C6053 0.982 . S
H6083 C6053 0.979 . S
H6084 C6053 0.977 . S
H6085 C6055 0.948 . S
H6086 C6057 0.947 . S
H6087 C6058 0.948 . S
H6088 C6064 0.982 . S
H6089 C6064 0.979 . S
H6090 C6064 0.977 . S
H6091 C6065 0.979 . S
H6092 C6065 0.980 . S
H6093 C6065 0.983 . S
H6094 C6038 0.947 . S
C6095 C6038 1.392 . S
C6095 C6039 1.419 . S
C6095 H6077 0.948 . S
C6096 C6097 1.391 . S
C6096 C6100 1.391 . S
C6096 H6138 0.948 . S
C6097 C6096 1.391 . S
C6097 C6098 1.391 . S
C6098 C6097 1.391 . S
C6098 H6154 0.947 . S
C6098 C6155 1.392 . S
C6099 C6100 1.391 . S
C6099 C6103 1.397 . S
C6099 C6155 1.419 . S
C6100 C6096 1.391 . S
C6100 C6099 1.391 . S
C6100 C6101 1.399 . S
C6101 C6100 1.399 . S
C6101 C6104 1.396 . S
C6101 C6113 1.453 . S
C6101 C6114 1.684 . S
H6102 C6126 0.948 . S
C6103 C6099 1.397 . S
C6103 C6104 1.394 . S
C6103 C6122 1.723 . S
C6104 C6101 1.396 . S
C6104 C6103 1.394 . S
C6104 C6134 1.723 . S
H6105 C6128 0.947 . S
H6106 C6129 0.948 . S
H6107 C6135 0.982 . S
H6108 C6136 0.979 . S
H6109 C6136 0.980 . S
H6110 C6136 0.983 . S
H6111 C6135 0.979 . S
H6112 C6135 0.977 . S
C6113 C6101 1.453 . S
C6113 H6142 0.982 . S
C6113 H6143 0.979 . S
C6113 H6144 0.977 . S
C6114 C6101 1.684 . S
C6114 H6139 0.979 . S
C6114 H6140 0.980 . S
C6114 H6141 0.983 . S
C6115 C6116 1.391 . S
C6115 C6120 1.391 . S
C6115 H6145 0.948 . S
C6116 C6115 1.391 . S
C6116 C6117 1.391 . S
C6117 C6116 1.391 . S
C6117 C6118 1.392 . S
C6117 H6146 0.947 . S
C6118 C6117 1.392 . S
C6118 C6119 1.419 . S
C6118 H6147 0.948 . S
C6119 C6118 1.419 . S
C6119 C6120 1.391 . S
C6119 C6123 1.397 . S
C6120 C6115 1.391 . S
C6120 C6119 1.391 . S
C6120 C6121 1.399 . S
C6121 C6120 1.399 . S
C6121 C6122 1.396 . S
C6121 C6124 1.453 . S
C6121 C6125 1.684 . S
C6122 C6103 1.723 . S
C6122 C6121 1.396 . S
C6122 C6123 1.394 . S
C6123 C6119 1.397 . S
C6123 C6122 1.394 . S
C6123 C6133 1.723 . S
C6124 C6121 1.453 . S
C6124 H6148 0.982 . S
C6124 H6149 0.979 . S
C6124 H6150 0.977 . S
C6125 C6121 1.684 . S
C6125 H6151 0.979 . S
C6125 H6152 0.980 . S
C6125 H6153 0.983 . S
C6126 H6102 0.948 . S
C6126 C6127 1.391 . S
C6126 C6131 1.391 . S
C6127 C6126 1.391 . S
C6127 C6128 1.391 . S
C6128 H6105 0.947 . S
C6128 C6127 1.391 . S
C6128 C6129 1.392 . S
C6129 H6106 0.948 . S
C6129 C6128 1.392 . S
C6129 C6130 1.419 . S
C6130 C6129 1.419 . S
C6130 C6131 1.391 . S
C6130 C6134 1.397 . S
C6131 C6126 1.391 . S
C6131 C6130 1.391 . S
C6131 C6132 1.399 . S
C6132 C6131 1.399 . S
C6132 C6133 1.396 . S
C6132 C6135 1.453 . S
C6132 C6136 1.684 . S
C6133 C6123 1.723 . S
C6133 C6132 1.396 . S
C6133 C6134 1.394 . S
C6134 C6104 1.723 . S
C6134 C6130 1.397 . S
C6134 C6133 1.394 . S
C6135 H6107 0.982 . S
C6135 H6111 0.979 . S
C6135 H6112 0.977 . S
C6135 C6132 1.453 . S
C6136 H6108 0.979 . S
C6136 H6109 0.980 . S
C6136 H6110 0.983 . S
C6136 C6132 1.684 . S
H6137 C6155 0.948 . S
H6138 C6096 0.948 . S
H6139 C6114 0.979 . S
H6140 C6114 0.980 . S
H6141 C6114 0.983 . S
H6142 C6113 0.982 . S
H6143 C6113 0.979 . S
H6144 C6113 0.977 . S
H6145 C6115 0.948 . S
H6146 C6117 0.947 . S
H6147 C6118 0.948 . S
H6148 C6124 0.982 . S
H6149 C6124 0.979 . S
H6150 C6124 0.977 . S
H6151 C6125 0.979 . S
H6152 C6125 0.980 . S
H6153 C6125 0.983 . S
H6154 C6098 0.947 . S
C6155 C6098 1.392 . S
C6155 C6099 1.419 . S
C6155 H6137 0.948 . S
C6156 C6157 1.391 . S
C6156 C6160 1.391 . S
C6156 H6198 0.948 . S
C6157 C6156 1.391 . S
C6157 C6158 1.391 . S
C6158 C6157 1.391 . S
C6158 H6214 0.947 . S
C6158 C6215 1.392 . S
C6159 C6160 1.391 . S
C6159 C6163 1.397 . S
C6159 C6215 1.419 . S
C6160 C6156 1.391 . S
C6160 C6159 1.391 . S
C6160 C6161 1.399 . S
C6161 C6160 1.399 . S
C6161 C6164 1.396 . S
C6161 C6173 1.453 . S
C6161 C6174 1.684 . S
H6162 C6186 0.948 . S
C6163 C6159 1.397 . S
C6163 C6164 1.394 . S
C6163 C6182 1.723 . S
C6164 C6161 1.396 . S
C6164 C6163 1.394 . S
C6164 C6194 1.723 . S
H6165 C6188 0.947 . S
H6166 C6189 0.948 . S
H6167 C6195 0.982 . S
H6168 C6196 0.979 . S
H6169 C6196 0.980 . S
H6170 C6196 0.983 . S
H6171 C6195 0.979 . S
H6172 C6195 0.977 . S
C6173 C6161 1.453 . S
C6173 H6202 0.982 . S
C6173 H6203 0.979 . S
C6173 H6204 0.977 . S
C6174 C6161 1.684 . S
C6174 H6199 0.979 . S
C6174 H6200 0.980 . S
C6174 H6201 0.983 . S
C6175 C6176 1.391 . S
C6175 C6180 1.391 . S
C6175 H6205 0.948 . S
C6176 C6175 1.391 . S
C6176 C6177 1.391 . S
C6177 C6176 1.391 . S
C6177 C6178 1.392 . S
C6177 H6206 0.947 . S
C6178 C6177 1.392 . S
C6178 C6179 1.419 . S
C6178 H6207 0.948 . S
C6179 C6178 1.419 . S
C6179 C6180 1.391 . S
C6179 C6183 1.397 . S
C6180 C6175 1.391 . S
C6180 C6179 1.391 . S
C6180 C6181 1.399 . S
C6181 C6180 1.399 . S
C6181 C6182 1.396 . S
C6181 C6184 1.453 . S
C6181 C6185 1.684 . S
C6182 C6163 1.723 . S
C6182 C6181 1.396 . S
C6182 C6183 1.394 . S
C6183 C6179 1.397 . S
C6183 C6182 1.394 . S
C6183 C6193 1.723 . S
C6184 C6181 1.453 . S
C6184 H6208 0.982 . S
C6184 H6209 0.979 . S
C6184 H6210 0.977 . S
C6185 C6181 1.684 . S
C6185 H6211 0.979 . S
C6185 H6212 0.980 . S
C6185 H6213 0.983 . S
C6186 H6162 0.948 . S
C6186 C6187 1.391 . S
C6186 C6191 1.391 . S
C6187 C6186 1.391 . S
C6187 C6188 1.391 . S
C6188 H6165 0.947 . S
C6188 C6187 1.391 . S
C6188 C6189 1.392 . S
C6189 H6166 0.948 . S
C6189 C6188 1.392 . S
C6189 C6190 1.419 . S
C6190 C6189 1.419 . S
C6190 C6191 1.391 . S
C6190 C6194 1.397 . S
C6191 C6186 1.391 . S
C6191 C6190 1.391 . S
C6191 C6192 1.399 . S
C6192 C6191 1.399 . S
C6192 C6193 1.396 . S
C6192 C6195 1.453 . S
C6192 C6196 1.684 . S
C6193 C6183 1.723 . S
C6193 C6192 1.396 . S
C6193 C6194 1.394 . S
C6194 C6164 1.723 . S
C6194 C6190 1.397 . S
C6194 C6193 1.394 . S
C6195 H6167 0.982 . S
C6195 H6171 0.979 . S
C6195 H6172 0.977 . S
C6195 C6192 1.453 . S
C6196 H6168 0.979 . S
C6196 H6169 0.980 . S
C6196 H6170 0.983 . S
C6196 C6192 1.684 . S
H6197 C6215 0.948 . S
H6198 C6156 0.948 . S
H6199 C6174 0.979 . S
H6200 C6174 0.980 . S
H6201 C6174 0.983 . S
H6202 C6173 0.982 . S
H6203 C6173 0.979 . S
H6204 C6173 0.977 . S
H6205 C6175 0.948 . S
H6206 C6177 0.947 . S
H6207 C6178 0.948 . S
H6208 C6184 0.982 . S
H6209 C6184 0.979 . S
H6210 C6184 0.977 . S
H6211 C6185 0.979 . S
H6212 C6185 0.980 . S
H6213 C6185 0.983 . S
H6214 C6158 0.947 . S
C6215 C6158 1.392 . S
C6215 C6159 1.419 . S
C6215 H6197 0.948 . S
C6216 C6217 1.391 . S
C6216 C6220 1.391 . S
C6216 H6258 0.948 . S
C6217 C6216 1.391 . S
C6217 C6218 1.391 . S
C6218 C6217 1.391 . S
C6218 H6274 0.947 . S
C6218 C6275 1.392 . S
C6219 C6220 1.391 . S
C6219 C6223 1.397 . S
C6219 C6275 1.419 . S
C6220 C6216 1.391 . S
C6220 C6219 1.391 . S
C6220 C6221 1.399 . S
C6221 C6220 1.399 . S
C6221 C6224 1.396 . S
C6221 C6233 1.453 . S
C6221 C6234 1.684 . S
H6222 C6246 0.948 . S
C6223 C6219 1.397 . S
C6223 C6224 1.394 . S
C6223 C6242 1.723 . S
C6224 C6221 1.396 . S
C6224 C6223 1.394 . S
C6224 C6254 1.723 . S
H6225 C6248 0.947 . S
H6226 C6249 0.948 . S
H6227 C6255 0.982 . S
H6228 C6256 0.979 . S
H6229 C6256 0.980 . S
H6230 C6256 0.983 . S
H6231 C6255 0.979 . S
H6232 C6255 0.977 . S
C6233 C6221 1.453 . S
C6233 H6262 0.982 . S
C6233 H6263 0.979 . S
C6233 H6264 0.977 . S
C6234 C6221 1.684 . S
C6234 H6259 0.979 . S
C6234 H6260 0.980 . S
C6234 H6261 0.983 . S
C6235 C6236 1.391 . S
C6235 C6240 1.391 . S
C6235 H6265 0.948 . S
C6236 C6235 1.391 . S
C6236 C6237 1.391 . S
C6237 C6236 1.391 . S
C6237 C6238 1.392 . S
C6237 H6266 0.947 . S
C6238 C6237 1.392 . S
C6238 C6239 1.419 . S
C6238 H6267 0.948 . S
C6239 C6238 1.419 . S
C6239 C6240 1.391 . S
C6239 C6243 1.397 . S
C6240 C6235 1.391 . S
C6240 C6239 1.391 . S
C6240 C6241 1.399 . S
C6241 C6240 1.399 . S
C6241 C6242 1.396 . S
C6241 C6244 1.453 . S
C6241 C6245 1.684 . S
C6242 C6223 1.723 . S
C6242 C6241 1.396 . S
C6242 C6243 1.394 . S
C6243 C6239 1.397 . S
C6243 C6242 1.394 . S
C6243 C6253 1.723 . S
C6244 C6241 1.453 . S
C6244 H6268 0.982 . S
C6244 H6269 0.979 . S
C6244 H6270 0.977 . S
C6245 C6241 1.684 . S
C6245 H6271 0.979 . S
C6245 H6272 0.980 . S
C6245 H6273 0.983 . S
C6246 H6222 0.948 . S
C6246 C6247 1.391 . S
C6246 C6251 1.391 . S
C6247 C6246 1.391 . S
C6247 C6248 1.391 . S
C6248 H6225 0.947 . S
C6248 C6247 1.391 . S
C6248 C6249 1.392 . S
C6249 H6226 0.948 . S
C6249 C6248 1.392 . S
C6249 C6250 1.419 . S
C6250 C6249 1.419 . S
C6250 C6251 1.391 . S
C6250 C6254 1.397 . S
C6251 C6246 1.391 . S
C6251 C6250 1.391 . S
C6251 C6252 1.399 . S
C6252 C6251 1.399 . S
C6252 C6253 1.396 . S
C6252 C6255 1.453 . S
C6252 C6256 1.684 . S
C6253 C6243 1.723 . S
C6253 C6252 1.396 . S
C6253 C6254 1.394 . S
C6254 C6224 1.723 . S
C6254 C6250 1.397 . S
C6254 C6253 1.394 . S
C6255 H6227 0.982 . S
C6255 H6231 0.979 . S
C6255 H6232 0.977 . S
C6255 C6252 1.453 . S
C6256 H6228 0.979 . S
C6256 H6229 0.980 . S
C6256 H6230 0.983 . S
C6256 C6252 1.684 . S
H6257 C6275 0.948 . S
H6258 C6216 0.948 . S
H6259 C6234 0.979 . S
H6260 C6234 0.980 . S
H6261 C6234 0.983 . S
H6262 C6233 0.982 . S
H6263 C6233 0.979 . S
H6264 C6233 0.977 . S
H6265 C6235 0.948 . S
H6266 C6237 0.947 . S
H6267 C6238 0.948 . S
H6268 C6244 0.982 . S
H6269 C6244 0.979 . S
H6270 C6244 0.977 . S
H6271 C6245 0.979 . S
H6272 C6245 0.980 . S
H6273 C6245 0.983 . S
H6274 C6218 0.947 . S
C6275 C6218 1.392 . S
C6275 C6219 1.419 . S
C6275 H6257 0.948 . S
C6276 C6277 1.391 . S
C6276 C6280 1.391 . S
C6276 H6318 0.948 . S
C6277 C6276 1.391 . S
C6277 C6278 1.391 . S
C6278 C6277 1.391 . S
C6278 H6334 0.947 . S
C6278 C6335 1.392 . S
C6279 C6280 1.391 . S
C6279 C6283 1.397 . S
C6279 C6335 1.419 . S
C6280 C6276 1.391 . S
C6280 C6279 1.391 . S
C6280 C6281 1.399 . S
C6281 C6280 1.399 . S
C6281 C6284 1.396 . S
C6281 C6293 1.453 . S
C6281 C6294 1.684 . S
H6282 C6306 0.948 . S
C6283 C6279 1.397 . S
C6283 C6284 1.394 . S
C6283 C6302 1.723 . S
C6284 C6281 1.396 . S
C6284 C6283 1.394 . S
C6284 C6314 1.723 . S
H6285 C6308 0.947 . S
H6286 C6309 0.948 . S
H6287 C6315 0.982 . S
H6288 C6316 0.979 . S
H6289 C6316 0.980 . S
H6290 C6316 0.983 . S
H6291 C6315 0.979 . S
H6292 C6315 0.977 . S
C6293 C6281 1.453 . S
C6293 H6322 0.982 . S
C6293 H6323 0.979 . S
C6293 H6324 0.977 . S
C6294 C6281 1.684 . S
C6294 H6319 0.979 . S
C6294 H6320 0.980 . S
C6294 H6321 0.983 . S
C6295 C6296 1.391 . S
C6295 C6300 1.391 . S
C6295 H6325 0.948 . S
C6296 C6295 1.391 . S
C6296 C6297 1.391 . S
C6297 C6296 1.391 . S
C6297 C6298 1.392 . S
C6297 H6326 0.947 . S
C6298 C6297 1.392 . S
C6298 C6299 1.419 . S
C6298 H6327 0.948 . S
C6299 C6298 1.419 . S
C6299 C6300 1.391 . S
C6299 C6303 1.397 . S
C6300 C6295 1.391 . S
C6300 C6299 1.391 . S
C6300 C6301 1.399 . S
C6301 C6300 1.399 . S
C6301 C6302 1.396 . S
C6301 C6304 1.453 . S
C6301 C6305 1.684 . S
C6302 C6283 1.723 . S
C6302 C6301 1.396 . S
C6302 C6303 1.394 . S
C6303 C6299 1.397 . S
C6303 C6302 1.394 . S
C6303 C6313 1.723 . S
C6304 C6301 1.453 . S
C6304 H6328 0.982 . S
C6304 H6329 0.979 . S
C6304 H6330 0.977 . S
C6305 C6301 1.684 . S
C6305 H6331 0.979 . S
C6305 H6332 0.980 . S
C6305 H6333 0.983 . S
C6306 H6282 0.948 . S
C6306 C6307 1.391 . S
C6306 C6311 1.391 . S
C6307 C6306 1.391 . S
C6307 C6308 1.391 . S
C6308 H6285 0.947 . S
C6308 C6307 1.391 . S
C6308 C6309 1.392 . S
C6309 H6286 0.948 . S
C6309 C6308 1.392 . S
C6309 C6310 1.419 . S
C6310 C6309 1.419 . S
C6310 C6311 1.391 . S
C6310 C6314 1.397 . S
C6311 C6306 1.391 . S
C6311 C6310 1.391 . S
C6311 C6312 1.399 . S
C6312 C6311 1.399 . S
C6312 C6313 1.396 . S
C6312 C6315 1.453 . S
C6312 C6316 1.684 . S
C6313 C6303 1.723 . S
C6313 C6312 1.396 . S
C6313 C6314 1.394 . S
C6314 C6284 1.723 . S
C6314 C6310 1.397 . S
C6314 C6313 1.394 . S
C6315 H6287 0.982 . S
C6315 H6291 0.979 . S
C6315 H6292 0.977 . S
C6315 C6312 1.453 . S
C6316 H6288 0.979 . S
C6316 H6289 0.980 . S
C6316 H6290 0.983 . S
C6316 C6312 1.684 . S
H6317 C6335 0.948 . S
H6318 C6276 0.948 . S
H6319 C6294 0.979 . S
H6320 C6294 0.980 . S
H6321 C6294 0.983 . S
H6322 C6293 0.982 . S
H6323 C6293 0.979 . S
H6324 C6293 0.977 . S
H6325 C6295 0.948 . S
H6326 C6297 0.947 . S
H6327 C6298 0.948 . S
H6328 C6304 0.982 . S
H6329 C6304 0.979 . S
H6330 C6304 0.977 . S
H6331 C6305 0.979 . S
H6332 C6305 0.980 . S
H6333 C6305 0.983 . S
H6334 C6278 0.947 . S
C6335 C6278 1.392 . S
C6335 C6279 1.419 . S
C6335 H6317 0.948 . S
C6336 C6337 1.391 . S
C6336 C6340 1.391 . S
C6336 H6378 0.948 . S
C6337 C6336 1.391 . S
C6337 C6338 1.391 . S
C6338 C6337 1.391 . S
C6338 H6394 0.947 . S
C6338 C6395 1.392 . S
C6339 C6340 1.391 . S
C6339 C6343 1.397 . S
C6339 C6395 1.419 . S
C6340 C6336 1.391 . S
C6340 C6339 1.391 . S
C6340 C6341 1.399 . S
C6341 C6340 1.399 . S
C6341 C6344 1.396 . S
C6341 C6353 1.453 . S
C6341 C6354 1.684 . S
H6342 C6366 0.948 . S
C6343 C6339 1.397 . S
C6343 C6344 1.394 . S
C6343 C6362 1.723 . S
C6344 C6341 1.396 . S
C6344 C6343 1.394 . S
C6344 C6374 1.723 . S
H6345 C6368 0.947 . S
H6346 C6369 0.948 . S
H6347 C6375 0.982 . S
H6348 C6376 0.979 . S
H6349 C6376 0.980 . S
H6350 C6376 0.983 . S
H6351 C6375 0.979 . S
H6352 C6375 0.977 . S
C6353 C6341 1.453 . S
C6353 H6382 0.982 . S
C6353 H6383 0.979 . S
C6353 H6384 0.977 . S
C6354 C6341 1.684 . S
C6354 H6379 0.979 . S
C6354 H6380 0.980 . S
C6354 H6381 0.983 . S
C6355 C6356 1.391 . S
C6355 C6360 1.391 . S
C6355 H6385 0.948 . S
C6356 C6355 1.391 . S
C6356 C6357 1.391 . S
C6357 C6356 1.391 . S
C6357 C6358 1.392 . S
C6357 H6386 0.947 . S
C6358 C6357 1.392 . S
C6358 C6359 1.419 . S
C6358 H6387 0.948 . S
C6359 C6358 1.419 . S
C6359 C6360 1.391 . S
C6359 C6363 1.397 . S
C6360 C6355 1.391 . S
C6360 C6359 1.391 . S
C6360 C6361 1.399 . S
C6361 C6360 1.399 . S
C6361 C6362 1.396 . S
C6361 C6364 1.453 . S
C6361 C6365 1.684 . S
C6362 C6343 1.723 . S
C6362 C6361 1.396 . S
C6362 C6363 1.394 . S
C6363 C6359 1.397 . S
C6363 C6362 1.394 . S
C6363 C6373 1.723 . S
C6364 C6361 1.453 . S
C6364 H6388 0.982 . S
C6364 H6389 0.979 . S
C6364 H6390 0.977 . S
C6365 C6361 1.684 . S
C6365 H6391 0.979 . S
C6365 H6392 0.980 . S
C6365 H6393 0.983 . S
C6366 H6342 0.948 . S
C6366 C6367 1.391 . S
C6366 C6371 1.391 . S
C6367 C6366 1.391 . S
C6367 C6368 1.391 . S
C6368 H6345 0.947 . S
C6368 C6367 1.391 . S
C6368 C6369 1.392 . S
C6369 H6346 0.948 . S
C6369 C6368 1.392 . S
C6369 C6370 1.419 . S
C6370 C6369 1.419 . S
C6370 C6371 1.391 . S
C6370 C6374 1.397 . S
C6371 C6366 1.391 . S
C6371 C6370 1.391 . S
C6371 C6372 1.399 . S
C6372 C6371 1.399 . S
C6372 C6373 1.396 . S
C6372 C6375 1.453 . S
C6372 C6376 1.684 . S
C6373 C6363 1.723 . S
C6373 C6372 1.396 . S
C6373 C6374 1.394 . S
C6374 C6344 1.723 . S
C6374 C6370 1.397 . S
C6374 C6373 1.394 . S
C6375 H6347 0.982 . S
C6375 H6351 0.979 . S
C6375 H6352 0.977 . S
C6375 C6372 1.453 . S
C6376 H6348 0.979 . S
C6376 H6349 0.980 . S
C6376 H6350 0.983 . S
C6376 C6372 1.684 . S
H6377 C6395 0.948 . S
H6378 C6336 0.948 . S
H6379 C6354 0.979 . S
H6380 C6354 0.980 . S
H6381 C6354 0.983 . S
H6382 C6353 0.982 . S
H6383 C6353 0.979 . S
H6384 C6353 0.977 . S
H6385 C6355 0.948 . S
H6386 C6357 0.947 . S
H6387 C6358 0.948 . S
H6388 C6364 0.982 . S
H6389 C6364 0.979 . S
H6390 C6364 0.977 . S
H6391 C6365 0.979 . S
H6392 C6365 0.980 . S
H6393 C6365 0.983 . S
H6394 C6338 0.947 . S
C6395 C6338 1.392 . S
C6395 C6339 1.419 . S
C6395 H6377 0.948 . S
C6396 C6397 1.391 . S
C6396 C6400 1.391 . S
C6396 H6438 0.948 . S
C6397 C6396 1.391 . S
C6397 C6398 1.391 . S
C6398 C6397 1.391 . S
C6398 H6454 0.947 . S
C6398 C6455 1.392 . S
C6399 C6400 1.391 . S
C6399 C6403 1.397 . S
C6399 C6455 1.419 . S
C6400 C6396 1.391 . S
C6400 C6399 1.391 . S
C6400 C6401 1.399 . S
C6401 C6400 1.399 . S
C6401 C6404 1.396 . S
C6401 C6413 1.453 . S
C6401 C6414 1.684 . S
H6402 C6426 0.948 . S
C6403 C6399 1.397 . S
C6403 C6404 1.394 . S
C6403 C6422 1.723 . S
C6404 C6401 1.396 . S
C6404 C6403 1.394 . S
C6404 C6434 1.723 . S
H6405 C6428 0.947 . S
H6406 C6429 0.948 . S
H6407 C6435 0.982 . S
H6408 C6436 0.979 . S
H6409 C6436 0.980 . S
H6410 C6436 0.983 . S
H6411 C6435 0.979 . S
H6412 C6435 0.977 . S
C6413 C6401 1.453 . S
C6413 H6442 0.982 . S
C6413 H6443 0.979 . S
C6413 H6444 0.977 . S
C6414 C6401 1.684 . S
C6414 H6439 0.979 . S
C6414 H6440 0.980 . S
C6414 H6441 0.983 . S
C6415 C6416 1.391 . S
C6415 C6420 1.391 . S
C6415 H6445 0.948 . S
C6416 C6415 1.391 . S
C6416 C6417 1.391 . S
C6417 C6416 1.391 . S
C6417 C6418 1.392 . S
C6417 H6446 0.947 . S
C6418 C6417 1.392 . S
C6418 C6419 1.419 . S
C6418 H6447 0.948 . S
C6419 C6418 1.419 . S
C6419 C6420 1.391 . S
C6419 C6423 1.397 . S
C6420 C6415 1.391 . S
C6420 C6419 1.391 . S
C6420 C6421 1.399 . S
C6421 C6420 1.399 . S
C6421 C6422 1.396 . S
C6421 C6424 1.453 . S
C6421 C6425 1.684 . S
C6422 C6403 1.723 . S
C6422 C6421 1.396 . S
C6422 C6423 1.394 . S
C6423 C6419 1.397 . S
C6423 C6422 1.394 . S
C6423 C6433 1.723 . S
C6424 C6421 1.453 . S
C6424 H6448 0.982 . S
C6424 H6449 0.979 . S
C6424 H6450 0.977 . S
C6425 C6421 1.684 . S
C6425 H6451 0.979 . S
C6425 H6452 0.980 . S
C6425 H6453 0.983 . S
C6426 H6402 0.948 . S
C6426 C6427 1.391 . S
C6426 C6431 1.391 . S
C6427 C6426 1.391 . S
C6427 C6428 1.391 . S
C6428 H6405 0.947 . S
C6428 C6427 1.391 . S
C6428 C6429 1.392 . S
C6429 H6406 0.948 . S
C6429 C6428 1.392 . S
C6429 C6430 1.419 . S
C6430 C6429 1.419 . S
C6430 C6431 1.391 . S
C6430 C6434 1.397 . S
C6431 C6426 1.391 . S
C6431 C6430 1.391 . S
C6431 C6432 1.399 . S
C6432 C6431 1.399 . S
C6432 C6433 1.396 . S
C6432 C6435 1.453 . S
C6432 C6436 1.684 . S
C6433 C6423 1.723 . S
C6433 C6432 1.396 . S
C6433 C6434 1.394 . S
C6434 C6404 1.723 . S
C6434 C6430 1.397 . S
C6434 C6433 1.394 . S
C6435 H6407 0.982 . S
C6435 H6411 0.979 . S
C6435 H6412 0.977 . S
C6435 C6432 1.453 . S
C6436 H6408 0.979 . S
C6436 H6409 0.980 . S
C6436 H6410 0.983 . S
C6436 C6432 1.684 . S
H6437 C6455 0.948 . S
H6438 C6396 0.948 . S
H6439 C6414 0.979 . S
H6440 C6414 0.980 . S
H6441 C6414 0.983 . S
H6442 C6413 0.982 . S
H6443 C6413 0.979 . S
H6444 C6413 0.977 . S
H6445 C6415 0.948 . S
H6446 C6417 0.947 . S
H6447 C6418 0.948 . S
H6448 C6424 0.982 . S
H6449 C6424 0.979 . S
H6450 C6424 0.977 . S
H6451 C6425 0.979 . S
H6452 C6425 0.980 . S
H6453 C6425 0.983 . S
H6454 C6398 0.947 . S
C6455 C6398 1.392 . S
C6455 C6399 1.419 . S
C6455 H6437 0.948 . S
C6456 C6457 1.391 . S
C6456 C6460 1.391 . S
C6456 H6498 0.948 . S
C6457 C6456 1.391 . S
C6457 C6458 1.391 . S
C6458 C6457 1.391 . S
C6458 H6514 0.947 . S
C6458 C6515 1.392 . S
C6459 C6460 1.391 . S
C6459 C6463 1.397 . S
C6459 C6515 1.419 . S
C6460 C6456 1.391 . S
C6460 C6459 1.391 . S
C6460 C6461 1.399 . S
C6461 C6460 1.399 . S
C6461 C6464 1.396 . S
C6461 C6473 1.453 . S
C6461 C6474 1.684 . S
H6462 C6486 0.948 . S
C6463 C6459 1.397 . S
C6463 C6464 1.394 . S
C6463 C6482 1.723 . S
C6464 C6461 1.396 . S
C6464 C6463 1.394 . S
C6464 C6494 1.723 . S
H6465 C6488 0.947 . S
H6466 C6489 0.948 . S
H6467 C6495 0.982 . S
H6468 C6496 0.979 . S
H6469 C6496 0.980 . S
H6470 C6496 0.983 . S
H6471 C6495 0.979 . S
H6472 C6495 0.977 . S
C6473 C6461 1.453 . S
C6473 H6502 0.982 . S
C6473 H6503 0.979 . S
C6473 H6504 0.977 . S
C6474 C6461 1.684 . S
C6474 H6499 0.979 . S
C6474 H6500 0.980 . S
C6474 H6501 0.983 . S
C6475 C6476 1.391 . S
C6475 C6480 1.391 . S
C6475 H6505 0.948 . S
C6476 C6475 1.391 . S
C6476 C6477 1.391 . S
C6477 C6476 1.391 . S
C6477 C6478 1.392 . S
C6477 H6506 0.947 . S
C6478 C6477 1.392 . S
C6478 C6479 1.419 . S
C6478 H6507 0.948 . S
C6479 C6478 1.419 . S
C6479 C6480 1.391 . S
C6479 C6483 1.397 . S
C6480 C6475 1.391 . S
C6480 C6479 1.391 . S
C6480 C6481 1.399 . S
C6481 C6480 1.399 . S
C6481 C6482 1.396 . S
C6481 C6484 1.453 . S
C6481 C6485 1.684 . S
C6482 C6463 1.723 . S
C6482 C6481 1.396 . S
C6482 C6483 1.394 . S
C6483 C6479 1.397 . S
C6483 C6482 1.394 . S
C6483 C6493 1.723 . S
C6484 C6481 1.453 . S
C6484 H6508 0.982 . S
C6484 H6509 0.979 . S
C6484 H6510 0.977 . S
C6485 C6481 1.684 . S
C6485 H6511 0.979 . S
C6485 H6512 0.980 . S
C6485 H6513 0.983 . S
C6486 H6462 0.948 . S
C6486 C6487 1.391 . S
C6486 C6491 1.391 . S
C6487 C6486 1.391 . S
C6487 C6488 1.391 . S
C6488 H6465 0.947 . S
C6488 C6487 1.391 . S
C6488 C6489 1.392 . S
C6489 H6466 0.948 . S
C6489 C6488 1.392 . S
C6489 C6490 1.419 . S
C6490 C6489 1.419 . S
C6490 C6491 1.391 . S
C6490 C6494 1.397 . S
C6491 C6486 1.391 . S
C6491 C6490 1.391 . S
C6491 C6492 1.399 . S
C6492 C6491 1.399 . S
C6492 C6493 1.396 . S
C6492 C6495 1.453 . S
C6492 C6496 1.684 . S
C6493 C6483 1.723 . S
C6493 C6492 1.396 . S
C6493 C6494 1.394 . S
C6494 C6464 1.723 . S
C6494 C6490 1.397 . S
C6494 C6493 1.394 . S
C6495 H6467 0.982 . S
C6495 H6471 0.979 . S
C6495 H6472 0.977 . S
C6495 C6492 1.453 . S
C6496 H6468 0.979 . S
C6496 H6469 0.980 . S
C6496 H6470 0.983 . S
C6496 C6492 1.684 . S
H6497 C6515 0.948 . S
H6498 C6456 0.948 . S
H6499 C6474 0.979 . S
H6500 C6474 0.980 . S
H6501 C6474 0.983 . S
H6502 C6473 0.982 . S
H6503 C6473 0.979 . S
H6504 C6473 0.977 . S
H6505 C6475 0.948 . S
H6506 C6477 0.947 . S
H6507 C6478 0.948 . S
H6508 C6484 0.982 . S
H6509 C6484 0.979 . S
H6510 C6484 0.977 . S
H6511 C6485 0.979 . S
H6512 C6485 0.980 . S
H6513 C6485 0.983 . S
H6514 C6458 0.947 . S
C6515 C6458 1.392 . S
C6515 C6459 1.419 . S
C6515 H6497 0.948 . S
C6516 C6517 1.391 . S
C6516 C6520 1.391 . S
C6516 H6558 0.948 . S
C6517 C6516 1.391 . S
C6517 C6518 1.391 . S
C6518 C6517 1.391 . S
C6518 H6574 0.947 . S
C6518 C6575 1.392 . S
C6519 C6520 1.391 . S
C6519 C6523 1.397 . S
C6519 C6575 1.419 . S
C6520 C6516 1.391 . S
C6520 C6519 1.391 . S
C6520 C6521 1.399 . S
C6521 C6520 1.399 . S
C6521 C6524 1.396 . S
C6521 C6533 1.453 . S
C6521 C6534 1.684 . S
H6522 C6546 0.948 . S
C6523 C6519 1.397 . S
C6523 C6524 1.394 . S
C6523 C6542 1.723 . S
C6524 C6521 1.396 . S
C6524 C6523 1.394 . S
C6524 C6554 1.723 . S
H6525 C6548 0.947 . S
H6526 C6549 0.948 . S
H6527 C6555 0.982 . S
H6528 C6556 0.979 . S
H6529 C6556 0.980 . S
H6530 C6556 0.983 . S
H6531 C6555 0.979 . S
H6532 C6555 0.977 . S
C6533 C6521 1.453 . S
C6533 H6562 0.982 . S
C6533 H6563 0.979 . S
C6533 H6564 0.977 . S
C6534 C6521 1.684 . S
C6534 H6559 0.979 . S
C6534 H6560 0.980 . S
C6534 H6561 0.983 . S
C6535 C6536 1.391 . S
C6535 C6540 1.391 . S
C6535 H6565 0.948 . S
C6536 C6535 1.391 . S
C6536 C6537 1.391 . S
C6537 C6536 1.391 . S
C6537 C6538 1.392 . S
C6537 H6566 0.947 . S
C6538 C6537 1.392 . S
C6538 C6539 1.419 . S
C6538 H6567 0.948 . S
C6539 C6538 1.419 . S
C6539 C6540 1.391 . S
C6539 C6543 1.397 . S
C6540 C6535 1.391 . S
C6540 C6539 1.391 . S
C6540 C6541 1.399 . S
C6541 C6540 1.399 . S
C6541 C6542 1.396 . S
C6541 C6544 1.453 . S
C6541 C6545 1.684 . S
C6542 C6523 1.723 . S
C6542 C6541 1.396 . S
C6542 C6543 1.394 . S
C6543 C6539 1.397 . S
C6543 C6542 1.394 . S
C6543 C6553 1.723 . S
C6544 C6541 1.453 . S
C6544 H6568 0.982 . S
C6544 H6569 0.979 . S
C6544 H6570 0.977 . S
C6545 C6541 1.684 . S
C6545 H6571 0.979 . S
C6545 H6572 0.980 . S
C6545 H6573 0.983 . S
C6546 H6522 0.948 . S
C6546 C6547 1.391 . S
C6546 C6551 1.391 . S
C6547 C6546 1.391 . S
C6547 C6548 1.391 . S
C6548 H6525 0.947 . S
C6548 C6547 1.391 . S
C6548 C6549 1.392 . S
C6549 H6526 0.948 . S
C6549 C6548 1.392 . S
C6549 C6550 1.419 . S
C6550 C6549 1.419 . S
C6550 C6551 1.391 . S
C6550 C6554 1.397 . S
C6551 C6546 1.391 . S
C6551 C6550 1.391 . S
C6551 C6552 1.399 . S
C6552 C6551 1.399 . S
C6552 C6553 1.396 . S
C6552 C6555 1.453 . S
C6552 C6556 1.684 . S
C6553 C6543 1.723 . S
C6553 C6552 1.396 . S
C6553 C6554 1.394 . S
C6554 C6524 1.723 . S
C6554 C6550 1.397 . S
C6554 C6553 1.394 . S
C6555 H6527 0.982 . S
C6555 H6531 0.979 . S
C6555 H6532 0.977 . S
C6555 C6552 1.453 . S
C6556 H6528 0.979 . S
C6556 H6529 0.980 . S
C6556 H6530 0.983 . S
C6556 C6552 1.684 . S
H6557 C6575 0.948 . S
H6558 C6516 0.948 . S
H6559 C6534 0.979 . S
H6560 C6534 0.980 . S
H6561 C6534 0.983 . S
H6562 C6533 0.982 . S
H6563 C6533 0.979 . S
H6564 C6533 0.977 . S
H6565 C6535 0.948 . S
H6566 C6537 0.947 . S
H6567 C6538 0.948 . S
H6568 C6544 0.982 . S
H6569 C6544 0.979 . S
H6570 C6544 0.977 . S
H6571 C6545 0.979 . S
H6572 C6545 0.980 . S
H6573 C6545 0.983 . S
H6574 C6518 0.947 . S
C6575 C6518 1.392 . S
C6575 C6519 1.419 . S
C6575 H6557 0.948 . S
C6576 C6577 1.391 . S
C6576 C6580 1.391 . S
C6576 H6618 0.948 . S
C6577 C6576 1.391 . S
C6577 C6578 1.391 . S
C6578 C6577 1.391 . S
C6578 H6634 0.947 . S
C6578 C6635 1.392 . S
C6579 C6580 1.391 . S
C6579 C6583 1.397 . S
C6579 C6635 1.419 . S
C6580 C6576 1.391 . S
C6580 C6579 1.391 . S
C6580 C6581 1.399 . S
C6581 C6580 1.399 . S
C6581 C6584 1.396 . S
C6581 C6593 1.453 . S
C6581 C6594 1.684 . S
H6582 C6606 0.948 . S
C6583 C6579 1.397 . S
C6583 C6584 1.394 . S
C6583 C6602 1.723 . S
C6584 C6581 1.396 . S
C6584 C6583 1.394 . S
C6584 C6614 1.723 . S
H6585 C6608 0.947 . S
H6586 C6609 0.948 . S
H6587 C6615 0.982 . S
H6588 C6616 0.979 . S
H6589 C6616 0.980 . S
H6590 C6616 0.983 . S
H6591 C6615 0.979 . S
H6592 C6615 0.977 . S
C6593 C6581 1.453 . S
C6593 H6622 0.982 . S
C6593 H6623 0.979 . S
C6593 H6624 0.977 . S
C6594 C6581 1.684 . S
C6594 H6619 0.979 . S
C6594 H6620 0.980 . S
C6594 H6621 0.983 . S
C6595 C6596 1.391 . S
C6595 C6600 1.391 . S
C6595 H6625 0.948 . S
C6596 C6595 1.391 . S
C6596 C6597 1.391 . S
C6597 C6596 1.391 . S
C6597 C6598 1.392 . S
C6597 H6626 0.947 . S
C6598 C6597 1.392 . S
C6598 C6599 1.419 . S
C6598 H6627 0.948 . S
C6599 C6598 1.419 . S
C6599 C6600 1.391 . S
C6599 C6603 1.397 . S
C6600 C6595 1.391 . S
C6600 C6599 1.391 . S
C6600 C6601 1.399 . S
C6601 C6600 1.399 . S
C6601 C6602 1.396 . S
C6601 C6604 1.453 . S
C6601 C6605 1.684 . S
C6602 C6583 1.723 . S
C6602 C6601 1.396 . S
C6602 C6603 1.394 . S
C6603 C6599 1.397 . S
C6603 C6602 1.394 . S
C6603 C6613 1.723 . S
C6604 C6601 1.453 . S
C6604 H6628 0.982 . S
C6604 H6629 0.979 . S
C6604 H6630 0.977 . S
C6605 C6601 1.684 . S
C6605 H6631 0.979 . S
C6605 H6632 0.980 . S
C6605 H6633 0.983 . S
C6606 H6582 0.948 . S
C6606 C6607 1.391 . S
C6606 C6611 1.391 . S
C6607 C6606 1.391 . S
C6607 C6608 1.391 . S
C6608 H6585 0.947 . S
C6608 C6607 1.391 . S
C6608 C6609 1.392 . S
C6609 H6586 0.948 . S
C6609 C6608 1.392 . S
C6609 C6610 1.419 . S
C6610 C6609 1.419 . S
C6610 C6611 1.391 . S
C6610 C6614 1.397 . S
C6611 C6606 1.391 . S
C6611 C6610 1.391 . S
C6611 C6612 1.399 . S
C6612 C6611 1.399 . S
C6612 C6613 1.396 . S
C6612 C6615 1.453 . S
C6612 C6616 1.684 . S
C6613 C6603 1.723 . S
C6613 C6612 1.396 . S
C6613 C6614 1.394 . S
C6614 C6584 1.723 . S
C6614 C6610 1.397 . S
C6614 C6613 1.394 . S
C6615 H6587 0.982 . S
C6615 H6591 0.979 . S
C6615 H6592 0.977 . S
C6615 C6612 1.453 . S
C6616 H6588 0.979 . S
C6616 H6589 0.980 . S
C6616 H6590 0.983 . S
C6616 C6612 1.684 . S
H6617 C6635 0.948 . S
H6618 C6576 0.948 . S
H6619 C6594 0.979 . S
H6620 C6594 0.980 . S
H6621 C6594 0.983 . S
H6622 C6593 0.982 . S
H6623 C6593 0.979 . S
H6624 C6593 0.977 . S
H6625 C6595 0.948 . S
H6626 C6597 0.947 . S
H6627 C6598 0.948 . S
H6628 C6604 0.982 . S
H6629 C6604 0.979 . S
H6630 C6604 0.977 . S
H6631 C6605 0.979 . S
H6632 C6605 0.980 . S
H6633 C6605 0.983 . S
H6634 C6578 0.947 . S
C6635 C6578 1.392 . S
C6635 C6579 1.419 . S
C6635 H6617 0.948 . S
C6636 C6637 1.391 . S
C6636 C6640 1.391 . S
C6636 H6678 0.948 . S
C6637 C6636 1.391 . S
C6637 C6638 1.391 . S
C6638 C6637 1.391 . S
C6638 H6694 0.947 . S
C6638 C6695 1.392 . S
C6639 C6640 1.391 . S
C6639 C6643 1.397 . S
C6639 C6695 1.419 . S
C6640 C6636 1.391 . S
C6640 C6639 1.391 . S
C6640 C6641 1.399 . S
C6641 C6640 1.399 . S
C6641 C6644 1.396 . S
C6641 C6653 1.453 . S
C6641 C6654 1.684 . S
H6642 C6666 0.948 . S
C6643 C6639 1.397 . S
C6643 C6644 1.394 . S
C6643 C6662 1.723 . S
C6644 C6641 1.396 . S
C6644 C6643 1.394 . S
C6644 C6674 1.723 . S
H6645 C6668 0.947 . S
H6646 C6669 0.948 . S
H6647 C6675 0.982 . S
H6648 C6676 0.979 . S
H6649 C6676 0.980 . S
H6650 C6676 0.983 . S
H6651 C6675 0.979 . S
H6652 C6675 0.977 . S
C6653 C6641 1.453 . S
C6653 H6682 0.982 . S
C6653 H6683 0.979 . S
C6653 H6684 0.977 . S
C6654 C6641 1.684 . S
C6654 H6679 0.979 . S
C6654 H6680 0.980 . S
C6654 H6681 0.983 . S
C6655 C6656 1.391 . S
C6655 C6660 1.391 . S
C6655 H6685 0.948 . S
C6656 C6655 1.391 . S
C6656 C6657 1.391 . S
C6657 C6656 1.391 . S
C6657 C6658 1.392 . S
C6657 H6686 0.947 . S
C6658 C6657 1.392 . S
C6658 C6659 1.419 . S
C6658 H6687 0.948 . S
C6659 C6658 1.419 . S
C6659 C6660 1.391 . S
C6659 C6663 1.397 . S
C6660 C6655 1.391 . S
C6660 C6659 1.391 . S
C6660 C6661 1.399 . S
C6661 C6660 1.399 . S
C6661 C6662 1.396 . S
C6661 C6664 1.453 . S
C6661 C6665 1.684 . S
C6662 C6643 1.723 . S
C6662 C6661 1.396 . S
C6662 C6663 1.394 . S
C6663 C6659 1.397 . S
C6663 C6662 1.394 . S
C6663 C6673 1.723 . S
C6664 C6661 1.453 . S
C6664 H6688 0.982 . S
C6664 H6689 0.979 . S
C6664 H6690 0.977 . S
C6665 C6661 1.684 . S
C6665 H6691 0.979 . S
C6665 H6692 0.980 . S
C6665 H6693 0.983 . S
C6666 H6642 0.948 . S
C6666 C6667 1.391 . S
C6666 C6671 1.391 . S
C6667 C6666 1.391 . S
C6667 C6668 1.391 . S
C6668 H6645 0.947 . S
C6668 C6667 1.391 . S
C6668 C6669 1.392 . S
C6669 H6646 0.948 . S
C6669 C6668 1.392 . S
C6669 C6670 1.419 . S
C6670 C6669 1.419 . S
C6670 C6671 1.391 . S
C6670 C6674 1.397 . S
C6671 C6666 1.391 . S
C6671 C6670 1.391 . S
C6671 C6672 1.399 . S
C6672 C6671 1.399 . S
C6672 C6673 1.396 . S
C6672 C6675 1.453 . S
C6672 C6676 1.684 . S
C6673 C6663 1.723 . S
C6673 C6672 1.396 . S
C6673 C6674 1.394 . S
C6674 C6644 1.723 . S
C6674 C6670 1.397 . S
C6674 C6673 1.394 . S
C6675 H6647 0.982 . S
C6675 H6651 0.979 . S
C6675 H6652 0.977 . S
C6675 C6672 1.453 . S
C6676 H6648 0.979 . S
C6676 H6649 0.980 . S
C6676 H6650 0.983 . S
C6676 C6672 1.684 . S
H6677 C6695 0.948 . S
H6678 C6636 0.948 . S
H6679 C6654 0.979 . S
H6680 C6654 0.980 . S
H6681 C6654 0.983 . S
H6682 C6653 0.982 . S
H6683 C6653 0.979 . S
H6684 C6653 0.977 . S
H6685 C6655 0.948 . S
H6686 C6657 0.947 . S
H6687 C6658 0.948 . S
H6688 C6664 0.982 . S
H6689 C6664 0.979 . S
H6690 C6664 0.977 . S
H6691 C6665 0.979 . S
H6692 C6665 0.980 . S
H6693 C6665 0.983 . S
H6694 C6638 0.947 . S
C6695 C6638 1.392 . S
C6695 C6639 1.419 . S
C6695 H6677 0.948 . S
C6696 C6697 1.391 . S
C6696 C6700 1.391 . S
C6696 H6738 0.948 . S
C6697 C6696 1.391 . S
C6697 C6698 1.391 . S
C6698 C6697 1.391 . S
C6698 H6754 0.947 . S
C6698 C6755 1.392 . S
C6699 C6700 1.391 . S
C6699 C6703 1.397 . S
C6699 C6755 1.419 . S
C6700 C6696 1.391 . S
C6700 C6699 1.391 . S
C6700 C6701 1.399 . S
C6701 C6700 1.399 . S
C6701 C6704 1.396 . S
C6701 C6713 1.453 . S
C6701 C6714 1.684 . S
H6702 C6726 0.948 . S
C6703 C6699 1.397 . S
C6703 C6704 1.394 . S
C6703 C6722 1.723 . S
C6704 C6701 1.396 . S
C6704 C6703 1.394 . S
C6704 C6734 1.723 . S
H6705 C6728 0.947 . S
H6706 C6729 0.948 . S
H6707 C6735 0.982 . S
H6708 C6736 0.979 . S
H6709 C6736 0.980 . S
H6710 C6736 0.983 . S
H6711 C6735 0.979 . S
H6712 C6735 0.977 . S
C6713 C6701 1.453 . S
C6713 H6742 0.982 . S
C6713 H6743 0.979 . S
C6713 H6744 0.977 . S
C6714 C6701 1.684 . S
C6714 H6739 0.979 . S
C6714 H6740 0.980 . S
C6714 H6741 0.983 . S
C6715 C6716 1.391 . S
C6715 C6720 1.391 . S
C6715 H6745 0.948 . S
C6716 C6715 1.391 . S
C6716 C6717 1.391 . S
C6717 C6716 1.391 . S
C6717 C6718 1.392 . S
C6717 H6746 0.947 . S
C6718 C6717 1.392 . S
C6718 C6719 1.419 . S
C6718 H6747 0.948 . S
C6719 C6718 1.419 . S
C6719 C6720 1.391 . S
C6719 C6723 1.397 . S
C6720 C6715 1.391 . S
C6720 C6719 1.391 . S
C6720 C6721 1.399 . S
C6721 C6720 1.399 . S
C6721 C6722 1.396 . S
C6721 C6724 1.453 . S
C6721 C6725 1.684 . S
C6722 C6703 1.723 . S
C6722 C6721 1.396 . S
C6722 C6723 1.394 . S
C6723 C6719 1.397 . S
C6723 C6722 1.394 . S
C6723 C6733 1.723 . S
C6724 C6721 1.453 . S
C6724 H6748 0.982 . S
C6724 H6749 0.979 . S
C6724 H6750 0.977 . S
C6725 C6721 1.684 . S
C6725 H6751 0.979 . S
C6725 H6752 0.980 . S
C6725 H6753 0.983 . S
C6726 H6702 0.948 . S
C6726 C6727 1.391 . S
C6726 C6731 1.391 . S
C6727 C6726 1.391 . S
C6727 C6728 1.391 . S
C6728 H6705 0.947 . S
C6728 C6727 1.391 . S
C6728 C6729 1.392 . S
C6729 H6706 0.948 . S
C6729 C6728 1.392 . S
C6729 C6730 1.419 . S
C6730 C6729 1.419 . S
C6730 C6731 1.391 . S
C6730 C6734 1.397 . S
C6731 C6726 1.391 . S
C6731 C6730 1.391 . S
C6731 C6732 1.399 . S
C6732 C6731 1.399 . S
C6732 C6733 1.396 . S
C6732 C6735 1.453 . S
C6732 C6736 1.684 . S
C6733 C6723 1.723 . S
C6733 C6732 1.396 . S
C6733 C6734 1.394 . S
C6734 C6704 1.723 . S
C6734 C6730 1.397 . S
C6734 C6733 1.394 . S
C6735 H6707 0.982 . S
C6735 H6711 0.979 . S
C6735 H6712 0.977 . S
C6735 C6732 1.453 . S
C6736 H6708 0.979 . S
C6736 H6709 0.980 . S
C6736 H6710 0.983 . S
C6736 C6732 1.684 . S
H6737 C6755 0.948 . S
H6738 C6696 0.948 . S
H6739 C6714 0.979 . S
H6740 C6714 0.980 . S
H6741 C6714 0.983 . S
H6742 C6713 0.982 . S
H6743 C6713 0.979 . S
H6744 C6713 0.977 . S
H6745 C6715 0.948 . S
H6746 C6717 0.947 . S
H6747 C6718 0.948 . S
H6748 C6724 0.982 . S
H6749 C6724 0.979 . S
H6750 C6724 0.977 . S
H6751 C6725 0.979 . S
H6752 C6725 0.980 . S
H6753 C6725 0.983 . S
H6754 C6698 0.947 . S
C6755 C6698 1.392 . S
C6755 C6699 1.419 . S
C6755 H6737 0.948 . S
C6756 C6757 1.391 . S
C6756 C6760 1.391 . S
C6756 H6798 0.948 . S
C6757 C6756 1.391 . S
C6757 C6758 1.391 . S
C6758 C6757 1.391 . S
C6758 H6814 0.947 . S
C6758 C6815 1.392 . S
C6759 C6760 1.391 . S
C6759 C6763 1.397 . S
C6759 C6815 1.419 . S
C6760 C6756 1.391 . S
C6760 C6759 1.391 . S
C6760 C6761 1.399 . S
C6761 C6760 1.399 . S
C6761 C6764 1.396 . S
C6761 C6773 1.453 . S
C6761 C6774 1.684 . S
H6762 C6786 0.948 . S
C6763 C6759 1.397 . S
C6763 C6764 1.394 . S
C6763 C6782 1.723 . S
C6764 C6761 1.396 . S
C6764 C6763 1.394 . S
C6764 C6794 1.723 . S
H6765 C6788 0.947 . S
H6766 C6789 0.948 . S
H6767 C6795 0.982 . S
H6768 C6796 0.979 . S
H6769 C6796 0.980 . S
H6770 C6796 0.983 . S
H6771 C6795 0.979 . S
H6772 C6795 0.977 . S
C6773 C6761 1.453 . S
C6773 H6802 0.982 . S
C6773 H6803 0.979 . S
C6773 H6804 0.977 . S
C6774 C6761 1.684 . S
C6774 H6799 0.979 . S
C6774 H6800 0.980 . S
C6774 H6801 0.983 . S
C6775 C6776 1.391 . S
C6775 C6780 1.391 . S
C6775 H6805 0.948 . S
C6776 C6775 1.391 . S
C6776 C6777 1.391 . S
C6777 C6776 1.391 . S
C6777 C6778 1.392 . S
C6777 H6806 0.947 . S
C6778 C6777 1.392 . S
C6778 C6779 1.419 . S
C6778 H6807 0.948 . S
C6779 C6778 1.419 . S
C6779 C6780 1.391 . S
C6779 C6783 1.397 . S
C6780 C6775 1.391 . S
C6780 C6779 1.391 . S
C6780 C6781 1.399 . S
C6781 C6780 1.399 . S
C6781 C6782 1.396 . S
C6781 C6784 1.453 . S
C6781 C6785 1.684 . S
C6782 C6763 1.723 . S
C6782 C6781 1.396 . S
C6782 C6783 1.394 . S
C6783 C6779 1.397 . S
C6783 C6782 1.394 . S
C6783 C6793 1.723 . S
C6784 C6781 1.453 . S
C6784 H6808 0.982 . S
C6784 H6809 0.979 . S
C6784 H6810 0.977 . S
C6785 C6781 1.684 . S
C6785 H6811 0.979 . S
C6785 H6812 0.980 . S
C6785 H6813 0.983 . S
C6786 H6762 0.948 . S
C6786 C6787 1.391 . S
C6786 C6791 1.391 . S
C6787 C6786 1.391 . S
C6787 C6788 1.391 . S
C6788 H6765 0.947 . S
C6788 C6787 1.391 . S
C6788 C6789 1.392 . S
C6789 H6766 0.948 . S
C6789 C6788 1.392 . S
C6789 C6790 1.419 . S
C6790 C6789 1.419 . S
C6790 C6791 1.391 . S
C6790 C6794 1.397 . S
C6791 C6786 1.391 . S
C6791 C6790 1.391 . S
C6791 C6792 1.399 . S
C6792 C6791 1.399 . S
C6792 C6793 1.396 . S
C6792 C6795 1.453 . S
C6792 C6796 1.684 . S
C6793 C6783 1.723 . S
C6793 C6792 1.396 . S
C6793 C6794 1.394 . S
C6794 C6764 1.723 . S
C6794 C6790 1.397 . S
C6794 C6793 1.394 . S
C6795 H6767 0.982 . S
C6795 H6771 0.979 . S
C6795 H6772 0.977 . S
C6795 C6792 1.453 . S
C6796 H6768 0.979 . S
C6796 H6769 0.980 . S
C6796 H6770 0.983 . S
C6796 C6792 1.684 . S
H6797 C6815 0.948 . S
H6798 C6756 0.948 . S
H6799 C6774 0.979 . S
H6800 C6774 0.980 . S
H6801 C6774 0.983 . S
H6802 C6773 0.982 . S
H6803 C6773 0.979 . S
H6804 C6773 0.977 . S
H6805 C6775 0.948 . S
H6806 C6777 0.947 . S
H6807 C6778 0.948 . S
H6808 C6784 0.982 . S
H6809 C6784 0.979 . S
H6810 C6784 0.977 . S
H6811 C6785 0.979 . S
H6812 C6785 0.980 . S
H6813 C6785 0.983 . S
H6814 C6758 0.947 . S
C6815 C6758 1.392 . S
C6815 C6759 1.419 . S
C6815 H6797 0.948 . S
C2576 C8 1.851 1_655 S
C5527 C19 1.851 . S
C2707 C30 1.851 . S
C5377 C41 1.611 . S
C2936 C52 1.852 1_655 S
C63 C5617 1.611 . S
C2827 C74 1.852 . S
C5767 C85 1.851 . S
C6727 C96 1.610 1_565 S
C107 C6367 1.851 . S
C6787 C118 1.851 1_545 S
C129 C6637 1.610 . S
C6487 C140 1.611 1_545 S
C3637 C151 1.610 . S
C3727 C162 1.851 1_565 S
C173 C3547 1.851 . S
C184 C6187 1.852 1_554 S
C3187 C195 1.852 1_554 S
C5857 C206 1.611 . S
C3037 C217 1.851 . S
C228 C3127 1.851 . S
C6277 C239 1.851 . S
C6097 C250 1.611 . S
C261 C6247 1.851 . S
C272 C1147 1.699 1_655 S
C283 C4087 1.726 . S
C1237 C294 1.726 . S
C305 C3937 1.699 . S
C1507 C316 1.699 1_455 S
C327 C4177 1.699 . S
C1357 C338 1.726 . S
C4327 C349 1.726 . S
C360 C5287 1.725 1_565 S
C4897 C371 1.726 . S
C382 C5347 1.700 1_545 S
C5227 C393 1.700 . S
C5047 C404 1.725 1_565 S
C415 C2227 1.700 . S
C426 C2287 1.700 1_565 S
C2077 C437 1.726 . S
C448 C4747 1.699 1_556 S
C1747 C459 1.700 1_556 S
C470 C4447 1.725 . S
C1597 C481 1.726 . S
C492 C1687 1.700 . S
C4837 C503 1.726 . S
C4687 C514 1.725 . S
C4807 C525 1.700 . S
C536 C5456 1.851 . S
C2647 C547 1.851 . S
C5587 C558 1.851 1_455 S
C2497 C569 1.611 . S
C580 C5816 1.852 . S
C2737 C591 1.611 . S
C5707 C602 1.852 1_455 S
C2887 C613 1.851 . S
C624 C3847 1.610 . S
C3487 C635 1.851 . S
C3907 C646 1.851 . S
C657 C3757 1.610 . S
C668 C3607 1.611 . S
C679 C6517 1.610 . S
C690 C6607 1.851 . S
C6427 C701 1.851 . S
C712 C3307 1.852 . S
C6067 C723 1.852 . S
C2977 C734 1.611 . S
C5917 C745 1.851 1_554 S
C756 C6007 1.851 . S
C767 C3397 1.851 1_554 S
C3217 C778 1.611 . S
C789 C3367 1.851 . S
C800 C4027 1.699 . S
C1207 C811 1.726 . S
C4117 C822 1.726 1_655 S
C833 C1057 1.699 . S
C4387 C844 1.699 . S
C1297 C855 1.699 . S
C866 C4237 1.726 1_455 S
C877 C1447 1.726 . S
C2407 C888 1.725 . S
C899 C2017 1.726 . S
C2467 C910 1.700 . S
C2347 C921 1.700 . S
C932 C2167 1.725 . S
C943 C5107 1.700 . S
C5167 C954 1.700 . S
C965 C4957 1.726 . S
C1867 C976 1.699 . S
C4627 C987 1.700 . S
C998 C1567 1.725 . S
C1009 C4477 1.726 1_554 S
C1020 C4567 1.700 . S
C1031 C1957 1.726 1_556 S
C1042 C1807 1.725 . S
C1927 C1053 1.700 . S
C1627 C5 1.813 . S
C1657 C16 1.452 . S
C27 C1717 1.452 . S
C38 C1556 1.811 . S
C49 C1987 1.812 . S
C1796 C60 1.811 . S
C1837 C71 1.451 . S
C82 C1897 1.452 . S
C93 C1267 1.812 . S
C104 C1076 1.451 . S
C115 C1117 1.452 . S
C1196 C126 1.812 . S
C137 C1387 1.812 . S
C148 C1436 1.812 . S
C159 C1477 1.452 . S
C170 C1316 1.451 . S
C2156 C181 1.811 . S
C192 C5276 1.811 . S
C2047 C203 1.812 . S
C5317 C214 1.452 . S
C225 C5197 1.452 . S
C236 C5137 1.452 . S
C4987 C247 1.812 . S
C5077 C258 1.452 . S
C3056 C269 2.708 . S
C3097 C280 2.709 . S
C3157 C291 2.710 . S
C302 C3007 2.468 . S
C313 C3416 2.707 . S
C3247 C324 2.469 . S
C335 C3277 2.710 . S
C3337 C346 2.710 . S
C357 C2677 2.709 . S
C2527 C368 2.470 . S
C379 C2587 2.709 . S
C2617 C390 2.709 . S
C2797 C401 2.709 . S
C412 C2857 2.708 . S
C2947 C423 2.709 . S
C2767 C434 2.470 . S
C3596 C445 2.469 . S
C6716 C456 2.469 . S
C3457 C467 2.709 . S
C478 C6757 2.710 . S
C489 C6667 2.469 . S
C6577 C500 2.709 . S
C6397 C511 2.709 . S
C6547 C522 2.469 . S
C533 C4507 1.813 . S
C4537 C544 1.452 . S
C555 C4597 1.452 . S
C4436 C566 1.811 . S
C577 C4867 1.812 . S
C588 C4676 1.811 . S
C599 C4717 1.451 . S
C610 C4777 1.452 . S
C621 C4147 1.812 . S
C3956 C632 1.451 . S
C3997 C643 1.452 . S
C654 C4076 1.812 . S
C665 C4267 1.812 . S
C676 C4316 1.812 . S
C687 C4357 1.452 . S
C698 C4196 1.451 . S
C5036 C709 1.811 . S
C2396 C720 1.811 . S
C4927 C731 1.812 . S
C2437 C742 1.452 . S
C2317 C753 1.452 . S
C2257 C764 1.452 . S
C775 C2107 1.812 . S
C2197 C786 1.452 . S
C797 C5936 2.708 . S
C808 C5977 2.709 . S
C6037 C819 2.710 . S
C830 C5887 2.468 . S
C6296 C841 2.707 . S
C852 C6127 2.469 . S
C863 C6157 2.710 . S
C6217 C874 2.710 . S
C5557 C885 2.709 . S
C5407 C896 2.470 . S
C5467 C907 2.709 . S
C5497 C918 2.709 . S
C929 C5677 2.709 . S
C5737 C940 2.708 . S
C951 C5827 2.709 . S
C962 C5647 2.470 . S
C973 C6476 2.469 . S
C984 C3836 2.469 . S
C995 C6337 2.709 . S
C3877 C1006 2.710 . S
C1017 C3787 2.469 . S
C1028 C3697 2.709 . S
C1039 C3517 2.709 . S
C3667 C1050 2.469 . S
C7 C1087 2.061 . S
C18 C1136 2.061 . S
C29 C1177 2.195 . S
C1256 C40 2.195 . S
C1327 C51 2.061 . S
C62 C1376 2.195 . S
C73 C1417 2.194 . S
C84 C1496 2.061 . S
C1537 C95 2.194 . S
C1616 C106 2.195 . S
C117 C1676 2.061 . S
C1736 C128 2.061 . S
C139 C1777 2.194 . S
C150 C1856 2.061 . S
C161 C1916 2.061 . S
C172 C1976 2.195 . S
C183 C2036 2.195 . S
C194 C2096 2.195 . S
C2137 C205 2.194 . S
C2216 C216 2.060 . S
C2276 C227 2.061 . S
C2336 C238 2.061 . S
C249 C2377 2.194 . S
C2456 C260 2.061 . S
C271 C2516 2.346 . S
C282 C2557 2.630 . S
C293 C2636 2.630 . S
C2696 C304 2.629 . S
C315 C2756 2.345 . S
C2816 C326 2.629 . S
C337 C2876 2.629 . S
C348 C2917 2.630 . S
C2996 C359 2.346 . S
C370 C3067 2.629 . S
C3116 C381 2.629 . S
C392 C3176 2.629 . S
C3236 C403 2.346 . S
C3296 C414 2.629 . S
C3356 C425 2.629 . S
C436 C3427 2.630 . S
C447 C3476 2.629 . S
C458 C3536 2.629 . S
C469 C3577 2.346 . S
C480 C3656 2.346 . S
C491 C3716 2.629 . S
C3776 C502 2.346 . S
C513 C3817 2.346 . S
C3896 C524 2.629 . S
C535 C3967 2.061 . S
C4016 C546 2.061 . S
C4057 C557 2.195 . S
C4136 C568 2.195 . S
C579 C4207 2.061 . S
C590 C4256 2.195 . S
C4297 C601 2.194 . S
C4376 C612 2.061 . S
C623 C4417 2.194 . S
C634 C4496 2.195 . S
C645 C4556 2.061 . S
C656 C4616 2.061 . S
C667 C4657 2.194 . S
C4736 C678 2.061 . S
C4796 C689 2.061 . S
C4856 C700 2.195 . S
C4916 C711 2.195 . S
C722 C4976 2.195 . S
C733 C5017 2.194 . S
C5096 C744 2.060 . S
C755 C5156 2.061 . S
C5216 C766 2.061 . S
C5257 C777 2.194 . S
C5336 C788 2.061 . S
C799 C5396 2.346 . S
C810 C5437 2.630 . S
C821 C5516 2.630 . S
C832 C5576 2.629 . S
C5636 C843 2.345 . S
C5696 C854 2.629 . S
C5756 C865 2.629 . S
C876 C5797 2.630 . S
C887 C5876 2.346 . S
C5947 C898 2.629 . S
C5996 C909 2.629 . S
C6056 C920 2.629 . S
C6116 C931 2.346 . S
C6176 C942 2.629 . S
C6236 C953 2.629 . S
C6307 C964 2.630 . S
C6356 C975 2.629 . S
C6416 C986 2.629 . S
C6457 C997 2.346 . S
C1008 C6536 2.346 . S
C6596 C1019 2.629 . S
C1030 C6656 2.346 . S
C6697 C1041 2.346 . S
C6776 C1052 2.629 . S
