# Generated by pormake.
# Topology nom, (4,4)-cn, num edge types: 1
# Building blocks:
#     Node 0, Type 0, BuildingBlock: MUDLON_clean_linker_0, # of connection points: 4
#     Node 1, Type 0, BuildingBlock: MUDLON_clean_linker_0, # of connection points: 4
#     Node 2, Type 0, BuildingBlock: MUDLON_clean_linker_0, # of connection points: 4
#     Node 3, Type 0, BuildingBlock: MUDLON_clean_linker_0, # of connection points: 4
#     Node 4, Type 0, BuildingBlock: MUDLON_clean_linker_0, # of connection points: 4
#     Node 5, Type 0, BuildingBlock: MUDLON_clean_linker_0, # of connection points: 4
#     Node 6, Type 1, BuildingBlock: KUFVIS_clean_sbu_0, # of connection points: 4
#     Node 7, Type 1, BuildingBlock: KUFVIS_clean_sbu_0, # of connection points: 4
#     Node 8, Type 1, BuildingBlock: KUFVIS_clean_sbu_0, # of connection points: 4
#     Node 9, Type 1, BuildingBlock: KUFVIS_clean_sbu_0, # of connection points: 4
#     Node 10, Type 1, BuildingBlock: KUFVIS_clean_sbu_0, # of connection points: 4
#     Node 11, Type 1, BuildingBlock: KUFVIS_clean_sbu_0, # of connection points: 4
#     Edge 12, Type (0, 1), BuildingBlock: CIFDUS_clean_linker_0, # of connection points: 2
#     Edge 13, Type (0, 1), BuildingBlock: CIFDUS_clean_linker_0, # of connection points: 2
#     Edge 14, Type (0, 1), BuildingBlock: CIFDUS_clean_linker_0, # of connection points: 2
#     Edge 15, Type (0, 1), BuildingBlock: CIFDUS_clean_linker_0, # of connection points: 2
#     Edge 16, Type (0, 1), BuildingBlock: CIFDUS_clean_linker_0, # of connection points: 2
#     Edge 17, Type (0, 1), BuildingBlock: CIFDUS_clean_linker_0, # of connection points: 2
#     Edge 18, Type (0, 1), BuildingBlock: CIFDUS_clean_linker_0, # of connection points: 2
#     Edge 19, Type (0, 1), BuildingBlock: CIFDUS_clean_linker_0, # of connection points: 2
#     Edge 20, Type (0, 1), BuildingBlock: CIFDUS_clean_linker_0, # of connection points: 2
#     Edge 21, Type (0, 1), BuildingBlock: CIFDUS_clean_linker_0, # of connection points: 2
#     Edge 22, Type (0, 1), BuildingBlock: CIFDUS_clean_linker_0, # of connection points: 2
#     Edge 23, Type (0, 1), BuildingBlock: CIFDUS_clean_linker_0, # of connection points: 2
#     Edge 24, Type (0, 1), BuildingBlock: CIFDUS_clean_linker_0, # of connection points: 2
#     Edge 25, Type (0, 1), BuildingBlock: CIFDUS_clean_linker_0, # of connection points: 2
#     Edge 26, Type (0, 1), BuildingBlock: CIFDUS_clean_linker_0, # of connection points: 2
#     Edge 27, Type (0, 1), BuildingBlock: CIFDUS_clean_linker_0, # of connection points: 2
#     Edge 28, Type (0, 1), BuildingBlock: CIFDUS_clean_linker_0, # of connection points: 2
#     Edge 29, Type (0, 1), BuildingBlock: CIFDUS_clean_linker_0, # of connection points: 2
#     Edge 30, Type (0, 1), BuildingBlock: CIFDUS_clean_linker_0, # of connection points: 2
#     Edge 31, Type (0, 1), BuildingBlock: CIFDUS_clean_linker_0, # of connection points: 2
#     Edge 32, Type (0, 1), BuildingBlock: CIFDUS_clean_linker_0, # of connection points: 2
#     Edge 33, Type (0, 1), BuildingBlock: CIFDUS_clean_linker_0, # of connection points: 2
#     Edge 34, Type (0, 1), BuildingBlock: CIFDUS_clean_linker_0, # of connection points: 2
#     Edge 35, Type (0, 1), BuildingBlock: CIFDUS_clean_linker_0, # of connection points: 2
# Relax obj value: 0.008
# Max RMSD: 0.107
# Mean RMSD: 0.063
data_MOF--net-nom--node1-KUFVIS_clean_sbu_0--node2-MUDLON_clean_linker_0--edge1-CIFDUS_clean_linker_0
_symmetry_space_group_name_H-M    P1
_symmetry_Int_Tables_number       1
_symmetry_cell_setting            triclinic
loop_
_symmetry_equiv_pos_as_xyz
'x, y, z'
_cell_length_a     54.296989
_cell_length_b     55.808202
_cell_length_c     55.18524
_cell_angle_alpha  90.957229
_cell_angle_beta   90.590845
_cell_angle_gamma 120.54701
loop_
_atom_site_label
_atom_site_type_symbol
_atom_site_fract_x
_atom_site_fract_y
_atom_site_fract_z
_atom_type_partial_charge
H0 H 0.15716 0.57659 0.32833 0.0
N1 N 0.11811 0.59444 0.32798 0.0
H2 H 0.19977 0.59528 0.30501 0.0
H3 H 0.12867 0.62372 0.28781 0.0
H4 H 0.16977 0.63986 0.26173 0.0
H5 H 0.13989 0.63918 0.35721 0.0
H6 H 0.16139 0.64466 0.39782 0.0
H7 H 0.11517 0.55254 0.35522 0.0
H8 H 0.1377 0.55825 0.39536 0.0
H9 H 0.0975 0.54125 0.31061 0.0
H10 H 0.07334 0.60114 0.33108 0.0
H11 H 0.04743 0.50707 0.30025 0.0
H12 H 0.02323 0.56707 0.32164 0.0
H13 H 0.85651 0.42637 0.2742 0.0
H14 H 0.8376 0.42082 0.23372 0.0
H15 H 0.92315 0.46265 0.20583 0.0
H16 H 0.94267 0.46968 0.24688 0.0
H17 H 0.89413 0.49085 0.29486 0.0
H18 H 0.85447 0.48473 0.31951 0.0
H19 H 0.84811 0.41083 0.34961 0.0
H20 H 0.88765 0.41693 0.32437 0.0
H21 H 0.95165 0.44435 0.30915 0.0
H22 H 1.00206 0.47816 0.31826 0.0
H23 H 0.99056 0.54325 0.28888 0.0
N24 N 0.91245 0.45356 0.2895 0.0
H25 H 0.94019 0.50941 0.28045 0.0
C26 C 0.14004 0.59972 0.31063 0.0
C27 C 0.15965 0.59056 0.31404 0.0
C28 C 0.1842 0.60108 0.30013 0.0
C29 C 0.18929 0.62007 0.28159 0.0
C30 C 0.16781 0.62656 0.2765 0.0
C31 C 0.14383 0.61691 0.29113 0.0
C32 C 0.12619 0.59563 0.35316 0.0
C33 C 0.13862 0.62127 0.36576 0.0
C34 C 0.15085 0.62436 0.38883 0.0
C35 C 0.15121 0.60188 0.39946 0.0
C36 C 0.13759 0.57582 0.38741 0.0
C37 C 0.1247 0.57256 0.36457 0.0
C38 C 0.08905 0.5738 0.3214 0.0
C39 C 0.08137 0.54699 0.31287 0.0
C40 C 0.05269 0.52744 0.30714 0.0
C41 C 0.03117 0.53428 0.31001 0.0
C42 C 0.03914 0.56115 0.31871 0.0
C43 C 0.06774 0.58063 0.32428 0.0
C44 C 0.90146 0.45054 0.26461 0.0
C45 C 0.87167 0.43535 0.25976 0.0
C46 C 0.86061 0.43153 0.23624 0.0
C47 C 0.8788 0.44146 0.21638 0.0
C48 C 0.90851 0.4554 0.22076 0.0
C49 C 0.91971 0.45956 0.2445 0.0
C50 C 0.89391 0.45427 0.30779 0.0
C51 C 0.88498 0.47394 0.30741 0.0
C52 C 0.86208 0.47028 0.32147 0.0
C53 C 0.84775 0.44702 0.3363 0.0
C54 C 0.85823 0.42863 0.338 0.0
C55 C 0.88105 0.43225 0.32386 0.0
C56 C 0.94215 0.47427 0.29421 0.0
C57 C 0.96012 0.46595 0.30473 0.0
C58 C 0.98896 0.48529 0.30974 0.0
C59 C 1.00051 0.51351 0.30429 0.0
C60 C 0.98237 0.52182 0.29371 0.0
C61 C 0.95348 0.50247 0.28885 0.0
H62 H 0.49153 0.89338 0.46045 0.0
N63 N 0.47495 0.92814 0.44626 0.0
H64 H 0.46332 0.84988 0.48191 0.0
H65 H 0.42381 0.91162 0.46825 0.0
H66 H 0.3954 0.86809 0.48967 0.0
H67 H 0.42354 0.9118 0.42329 0.0
H68 H 0.41008 0.89365 0.38165 0.0
H69 H 0.50821 0.92521 0.41288 0.0
H70 H 0.49422 0.90569 0.37137 0.0
H71 H 0.5246 0.9661 0.46621 0.0
H72 H 0.44226 0.95292 0.44385 0.0
H73 H 0.53998 0.01421 0.47819 0.0
H74 H 0.45766 1.00093 0.45466 0.0
H75 H 0.51084 0.13974 0.52639 0.0
H76 H 0.53028 0.16005 0.56677 0.0
H77 H 0.60418 0.15229 0.55356 0.0
H78 H 0.58408 0.13102 0.51355 0.0
H79 H 0.50743 0.14455 0.4674 0.0
H80 H 0.528 0.18596 0.44244 0.0
H81 H 0.61172 0.19599 0.45284 0.0
H82 H 0.5911 0.15485 0.47773 0.0
H83 H 0.56857 0.10633 0.47236 0.0
H84 H 0.55323 0.05811 0.46147 0.0
H85 H 0.46881 0.03234 0.48784 0.0
N86 N 0.53541 0.12531 0.49249 0.0
H87 H 0.48419 0.08088 0.4977 0.0
C88 C 0.45989 0.90573 0.46275 0.0
C89 C 0.47085 0.88828 0.46733 0.0
C90 C 0.45464 0.86339 0.4794 0.0
C91 C 0.42705 0.85548 0.48725 0.0
C92 C 0.41667 0.87375 0.48395 0.0
C93 C 0.43289 0.89864 0.47166 0.0
C94 C 0.46724 0.92052 0.42107 0.0
C95 C 0.43955 0.91171 0.4119 0.0
C96 C 0.43175 0.90114 0.38814 0.0
C97 C 0.45124 0.89856 0.37346 0.0
C98 C 0.479 0.90779 0.38241 0.0
C99 C 0.48697 0.91892 0.40597 0.0
C100 C 0.48242 0.95585 0.45405 0.0
C101 C 0.50987 0.97361 0.46388 0.0
C102 C 0.51869 1.00117 0.47047 0.0
C103 C 0.50017 0.01163 0.46724 0.0
C104 C 0.47243 0.99359 0.45769 0.0
C105 C 0.4636 0.96599 0.45128 0.0
C106 C 0.54613 0.13426 0.51691 0.0
C107 C 0.53096 0.14196 0.53244 0.0
C108 C 0.54204 0.15346 0.55543 0.0
C109 C 0.56878 0.15783 0.56315 0.0
C110 C 0.58363 0.14931 0.54789 0.0
C111 C 0.57221 0.13727 0.52503 0.0
C112 C 0.54756 0.14657 0.47455 0.0
C113 C 0.53009 0.15531 0.46376 0.0
C114 C 0.54189 0.17894 0.44948 0.0
C115 C 0.57155 0.1944 0.44584 0.0
C116 C 0.58885 0.18472 0.45557 0.0
C117 C 0.57699 0.161 0.46974 0.0
C118 C 0.52732 0.09723 0.48556 0.0
C119 C 0.54673 0.09039 0.47559 0.0
C120 C 0.53795 0.06266 0.4696 0.0
C121 C 0.50969 0.0412 0.4737 0.0
C122 C 0.49052 0.04825 0.48395 0.0
C123 C 0.49928 0.07595 0.48973 0.0
H124 H 0.47279 0.62524 0.65375 0.0
N125 N 0.46263 0.57661 0.67007 0.0
H126 H 0.44165 0.63438 0.62795 0.0
H127 H 0.412 0.53721 0.64795 0.0
H128 H 0.38036 0.54608 0.62331 0.0
H129 H 0.4108 0.54293 0.69105 0.0
H130 H 0.39873 0.54503 0.73295 0.0
H131 H 0.49702 0.6101 0.7056 0.0
H132 H 0.48499 0.61225 0.74806 0.0
H133 H 0.51161 0.58853 0.64977 0.0
H134 H 0.43284 0.51971 0.67498 0.0
H135 H 0.52801 0.55637 0.63836 0.0
H136 H 0.44843 0.48758 0.66296 0.0
H137 H 0.57133 0.47152 0.60258 0.0
H138 H 0.59024 0.46982 0.56301 0.0
H139 H 0.50663 0.4028 0.54 0.0
H140 H 0.48792 0.40478 0.57972 0.0
H141 H 0.48938 0.38397 0.6315 0.0
H142 H 0.50742 0.3609 0.65767 0.0
H143 H 0.58661 0.43883 0.66884 0.0
H144 H 0.56787 0.46206 0.64349 0.0
H145 H 0.53109 0.48623 0.59579 0.0
H146 H 0.51885 0.52018 0.60926 0.0
H147 H 0.48136 0.47307 0.6735 0.0
N148 N 0.51688 0.43656 0.61801 0.0
H149 H 0.49276 0.43832 0.65968 0.0
C150 C 0.44492 0.58067 0.65287 0.0
C151 C 0.45283 0.60789 0.64676 0.0
C152 C 0.43484 0.61306 0.63224 0.0
C153 C 0.40829 0.591 0.62365 0.0
C154 C 0.40075 0.56361 0.62927 0.0
C155 C 0.41888 0.55847 0.6436 0.0
C156 C 0.45503 0.57638 0.69509 0.0
C157 C 0.42733 0.55795 0.70326 0.0
C158 C 0.42041 0.5591 0.72737 0.0
C159 C 0.44092 0.57875 0.74387 0.0
C160 C 0.46866 0.59702 0.73574 0.0
C161 C 0.47561 0.59574 0.71159 0.0
C162 C 0.47105 0.55675 0.66316 0.0
C163 C 0.49779 0.56649 0.65268 0.0
C164 C 0.50704 0.54805 0.64609 0.0
C165 C 0.4896 0.51932 0.6498 0.0
C166 C 0.4627 0.50959 0.66024 0.0
C167 C 0.45356 0.52804 0.66692 0.0
C168 C 0.52814 0.43808 0.59412 0.0
C169 C 0.55708 0.45648 0.58905 0.0
C170 C 0.56786 0.45549 0.56639 0.0
C171 C 0.54998 0.43607 0.54838 0.0
C172 C 0.52091 0.41823 0.55334 0.0
C173 C 0.51017 0.41924 0.576 0.0
C174 C 0.52736 0.42452 0.63528 0.0
C175 C 0.51042 0.39612 0.63995 0.0
C176 C 0.52072 0.38304 0.65488 0.0
C177 C 0.54843 0.39811 0.66514 0.0
C178 C 0.56524 0.42676 0.66097 0.0
C179 C 0.55464 0.43998 0.64641 0.0
C180 C 0.5137 0.45949 0.62697 0.0
C181 C 0.52088 0.48313 0.61308 0.0
C182 C 0.51378 0.50283 0.62081 0.0
C183 C 0.49906 0.49945 0.64247 0.0
C184 C 0.49237 0.47624 0.65656 0.0
C185 C 0.49932 0.45648 0.6488 0.0
H186 H 0.15776 0.61823 0.7957 0.0
N187 N 0.11071 0.57169 0.78182 0.0
H188 H 0.2 0.62285 0.81597 0.0
H189 H 0.11452 0.52922 0.80246 0.0
H190 H 0.15552 0.5336 0.82465 0.0
H191 H 0.10885 0.53003 0.75343 0.0
H192 H 0.12653 0.53442 0.71268 0.0
H193 H 0.12911 0.61527 0.75379 0.0
H194 H 0.15042 0.62127 0.71425 0.0
H195 H 0.08178 0.59301 0.80198 0.0
H196 H 0.07328 0.51489 0.77905 0.0
H197 H 0.03236 0.56834 0.81566 0.0
H198 H 0.02445 0.49015 0.79312 0.0
H199 H 0.88356 0.49529 0.86438 0.0
H200 H 0.8688 0.48355 0.90623 0.0
H201 H 0.90023 0.42612 0.90512 0.0
H202 H 0.91712 0.44005 0.86413 0.0
H203 H 0.89448 0.42017 0.82764 0.0
H204 H 0.85313 0.38341 0.80537 0.0
H205 H 0.82749 0.44244 0.78598 0.0
H206 H 0.86848 0.47893 0.80932 0.0
H207 H 0.95316 0.51519 0.85866 0.0
H208 H 1.00278 0.53774 0.84646 0.0
H209 H 0.97761 0.48282 0.78346 0.0
N210 N 0.9068 0.47386 0.83562 0.0
H211 H 0.92839 0.45986 0.79574 0.0
C212 C 0.13286 0.57352 0.79769 0.0
C213 C 0.15708 0.59975 0.80232 0.0
C214 C 0.18122 0.60231 0.81408 0.0
C215 C 0.1815 0.5786 0.822 0.0
C216 C 0.15654 0.55235 0.81836 0.0
C217 C 0.13267 0.54978 0.80597 0.0
C218 C 0.11672 0.57213 0.75643 0.0
C219 C 0.11634 0.54953 0.7445 0.0
C220 C 0.12745 0.55243 0.72127 0.0
C221 C 0.14056 0.57839 0.70989 0.0
C222 C 0.14012 0.60073 0.7218 0.0
C223 C 0.12801 0.59745 0.74459 0.0
C224 C 0.08141 0.55605 0.78942 0.0
C225 C 0.06929 0.57055 0.79997 0.0
C226 C 0.04112 0.55636 0.80795 0.0
C227 C 0.02438 0.52718 0.80561 0.0
C228 C 0.03657 0.51264 0.79496 0.0
C229 C 0.06474 0.52689 0.78693 0.0
C230 C 0.90088 0.46821 0.86101 0.0
C231 C 0.88762 0.48052 0.87342 0.0
C232 C 0.87888 0.47345 0.89726 0.0
C233 C 0.88265 0.45333 0.90911 0.0
C234 C 0.897 0.44177 0.89683 0.0
C235 C 0.90632 0.44938 0.87315 0.0
C236 C 0.88446 0.45237 0.8203 0.0
C237 C 0.87995 0.42522 0.81871 0.0
C238 C 0.85641 0.40424 0.80568 0.0
C239 C 0.83684 0.40989 0.79396 0.0
C240 C 0.84185 0.43724 0.7951 0.0
C241 C 0.86538 0.45818 0.80819 0.0
C242 C 0.93647 0.48485 0.82894 0.0
C243 C 0.95826 0.5074 0.84253 0.0
C244 C 0.98672 0.52063 0.83533 0.0
C245 C 0.99428 0.51209 0.81398 0.0
C246 C 0.97268 0.48959 0.80029 0.0
C247 C 0.94419 0.47628 0.80751 0.0
H248 H 0.5477 0.15913 0.95093 0.0
N249 N 0.54453 0.11053 0.9444 0.0
H250 H 0.58607 0.201 0.97075 0.0
H251 H 0.58891 0.11359 0.97124 0.0
H252 H 0.62644 0.15477 0.99284 0.0
H253 H 0.59295 0.11894 0.92216 0.0
H254 H 0.60694 0.1353 0.88106 0.0
H255 H 0.51135 0.11257 0.90973 0.0
H256 H 0.52495 0.12852 0.86827 0.0
H257 H 0.50196 0.08684 0.97511 0.0
H258 H 0.56041 0.07161 0.9348 0.0
H259 H 0.47919 0.03975 0.99058 0.0
H260 H 0.53686 0.02403 0.94903 0.0
H261 H 0.39539 0.87878 0.02166 0.0
H262 H 0.38973 0.86154 0.06271 0.0
H263 H 0.48011 0.91732 0.0771 0.0
H264 H 0.48566 0.93329 0.03558 0.0
H265 H 0.47901 0.89227 0.00498 0.0
H266 H 0.47352 0.85097 0.98346 0.0
H267 H 0.4066 0.84785 0.93831 0.0
H268 H 0.41123 0.8885 0.96064 0.0
H269 H 0.42249 0.94584 0.99015 0.0
H270 H 0.44816 0.99394 0.97711 0.0
H271 H 0.5278 0.99406 0.98196 0.0
N272 N 0.44356 0.91345 1.00001 0.0
H273 H 0.50141 0.94528 0.99388 0.0
C274 C 0.5652 0.13321 0.95977 0.0
C275 C 0.56465 0.15803 0.9604 0.0
C276 C 0.58665 0.18195 0.97189 0.0
C277 C 0.60963 0.18153 0.98353 0.0
C278 C 0.60951 0.15619 0.98372 0.0
C279 C 0.58775 0.13238 0.97168 0.0
C280 C 0.55098 0.11447 0.91898 0.0
C281 C 0.57768 0.12022 0.91031 0.0
C282 C 0.58566 0.12962 0.88676 0.0
C283 C 0.56718 0.13353 0.87145 0.0
C284 C 0.53986 0.12618 0.87973 0.0
C285 C 0.5319 0.11675 0.90328 0.0
C286 C 0.53249 0.08273 0.95349 0.0
C287 C 0.50973 0.07322 0.96948 0.0
C288 C 0.49662 0.04618 0.97813 0.0
C289 C 0.50578 0.02773 0.97078 0.0
C290 C 0.52924 0.03758 0.95524 0.0
C291 C 0.54261 0.06484 0.94682 0.0
C292 C 0.44076 0.90744 0.02551 0.0
C293 C 0.41384 0.88762 0.03387 0.0
C294 C 0.41069 0.87787 0.05742 0.0
C295 C 0.43448 0.88795 0.07339 0.0
C296 C 0.46137 0.9087 0.06526 0.0
C297 C 0.46454 0.91821 0.04152 0.0
C298 C 0.44512 0.89316 0.98461 0.0
C299 C 0.46344 0.883 0.99025 0.0
C300 C 0.46032 0.85945 0.97798 0.0
C301 C 0.43953 0.8463 0.95942 0.0
C302 C 0.42281 0.85775 0.95254 0.0
C303 C 0.42546 0.8809 0.96519 0.0
C304 C 0.45998 0.94212 0.99316 0.0
C305 C 0.4455 0.95635 0.98845 0.0
C306 C 0.46032 0.98396 0.98117 0.0
C307 C 0.49023 0.9982 0.97867 0.0
C308 C 0.50479 0.9838 0.98346 0.0
C309 C 0.48979 0.95596 0.99052 0.0
H310 H 0.54816 0.40081 0.17511 0.0
N311 N 0.54323 0.44558 0.17842 0.0
H312 H 0.58258 0.39467 0.15249 0.0
H313 H 0.58093 0.48227 0.14567 0.0
H314 H 0.61346 0.47524 0.12062 0.0
H315 H 0.59473 0.48192 0.20006 0.0
H316 H 0.61035 0.47821 0.24088 0.0
H317 H 0.51029 0.41327 0.21328 0.0
H318 H 0.52539 0.40976 0.25439 0.0
H319 H 0.497 0.42769 0.15033 0.0
H320 H 0.56272 0.50089 0.18827 0.0
H321 H 0.47399 0.45339 0.13748 0.0
H322 H 0.53908 0.5265 0.17667 0.0
H323 H 0.40161 0.55488 0.11296 0.0
H324 H 0.39806 0.5695 0.07314 0.0
H325 H 0.46858 0.55939 0.05054 0.0
H326 H 0.47439 0.54851 0.09172 0.0
H327 H 0.4809 0.60242 0.12909 0.0
H328 H 0.47548 0.63934 0.14784 0.0
H329 H 0.40381 0.57789 0.18808 0.0
H330 H 0.40884 0.54108 0.16834 0.0
H331 H 0.42063 0.49421 0.14266 0.0
H332 H 0.44636 0.47062 0.15396 0.0
H333 H 0.52672 0.54725 0.14506 0.0
N334 N 0.44219 0.54693 0.13127 0.0
H335 H 0.50043 0.57085 0.13476 0.0
C336 C 0.56171 0.44181 0.16209 0.0
C337 C 0.5623 0.41705 0.16311 0.0
C338 C 0.58196 0.41351 0.14981 0.0
C339 C 0.60109 0.43432 0.13428 0.0
C340 C 0.59971 0.45885 0.13263 0.0
C341 C 0.58066 0.4628 0.14672 0.0
C342 C 0.55132 0.44772 0.20369 0.0
C343 C 0.57934 0.4666 0.21207 0.0
C344 C 0.58821 0.46443 0.23542 0.0
C345 C 0.56922 0.4434 0.25081 0.0
C346 C 0.54071 0.42581 0.24285 0.0
C347 C 0.53192 0.42796 0.21951 0.0
C348 C 0.5312 0.4621 0.17055 0.0
C349 C 0.50634 0.44932 0.15598 0.0
C350 C 0.49311 0.46404 0.14885 0.0
C351 C 0.50429 0.49198 0.15639 0.0
C352 C 0.52984 0.50509 0.17042 0.0
C353 C 0.54329 0.49036 0.1773 0.0
C354 C 0.43851 0.55105 0.10589 0.0
C355 C 0.41638 0.55584 0.09943 0.0
C356 C 0.41413 0.56385 0.07617 0.0
C357 C 0.4329 0.56569 0.05787 0.0
C358 C 0.4541 0.55914 0.06396 0.0
C359 C 0.45724 0.55243 0.08775 0.0
C360 C 0.44513 0.56898 0.14729 0.0
C361 C 0.46471 0.59704 0.1426 0.0
C362 C 0.46142 0.61814 0.15329 0.0
C363 C 0.43875 0.61159 0.16911 0.0
C364 C 0.42098 0.58366 0.17548 0.0
C365 C 0.42412 0.5626 0.16459 0.0
C366 C 0.45854 0.53409 0.13777 0.0
C367 C 0.44379 0.50584 0.1432 0.0
C368 C 0.45862 0.49239 0.14945 0.0
C369 C 0.48875 0.50686 0.15016 0.0
C370 C 0.50357 0.53543 0.14492 0.0
C371 C 0.4886 0.54897 0.13891 0.0
Mn372 Mn 0.64813 0.39782 0.40784 0.0
Mn373 Mn 0.67999 0.46651 0.42148 0.0
C374 C 0.62896 0.41365 0.43681 0.0
C375 C 0.643 0.35429 0.41427 0.0
C376 C 0.64386 0.4399 0.37579 0.0
O377 O 0.68791 0.41339 0.39393 0.0
O378 O 0.70812 0.45837 0.40615 0.0
C379 C 0.72096 0.47047 0.45939 0.0
N380 N 0.69894 0.47407 0.45243 0.0
C381 C 0.69723 0.49151 0.49218 0.0
C382 C 0.72003 0.48818 0.49972 0.0
C383 C 0.73191 0.47757 0.48325 0.0
C384 C 0.68734 0.48426 0.46813 0.0
H385 H 0.73004 0.46217 0.44683 0.0
C386 C 0.70933 0.43819 0.39589 0.0
O387 O 0.63481 0.35977 0.39395 0.0
O388 O 0.65503 0.37435 0.43037 0.0
N389 N 0.65523 0.47706 0.43667 0.0
C390 C 0.63237 0.4776 0.42691 0.0
C391 C 0.61752 0.48693 0.44123 0.0
C392 C 0.62641 0.49573 0.46538 0.0
C393 C 0.65018 0.49527 0.47494 0.0
C394 C 0.6643 0.48599 0.45974 0.0
H395 H 0.62536 0.47076 0.4084 0.0
O396 O 0.61315 0.38961 0.42605 0.0
O397 O 0.65549 0.42761 0.43034 0.0
O398 O 0.63679 0.41489 0.38042 0.0
O399 O 0.66042 0.46069 0.38963 0.0
C400 C 0.66005 0.50309 0.49911 0.0
C401 C 0.68354 0.5012 0.50773 0.0
H402 H 0.7284 0.49344 0.51816 0.0
H403 H 0.7494 0.47479 0.48898 0.0
H404 H 0.59916 0.48718 0.43374 0.0
H405 H 0.61468 0.50259 0.47646 0.0
H406 H 0.64947 0.51021 0.51133 0.0
H407 H 0.69069 0.50691 0.52644 0.0
Mn408 Mn 0.27384 0.66815 0.55386 0.0
Mn409 Mn 0.23945 0.59856 0.54378 0.0
C410 C 0.23714 0.64781 0.52526 0.0
C411 C 0.31194 0.7126 0.54614 0.0
C412 C 0.229 0.62595 0.58732 0.0
O413 O 0.30004 0.65663 0.57008 0.0
O414 O 0.27785 0.61131 0.55865 0.0
C415 C 0.27652 0.59584 0.5062 0.0
N416 N 0.25017 0.59003 0.51341 0.0
C417 C 0.2285 0.56618 0.47553 0.0
C418 C 0.25537 0.57175 0.46775 0.0
C419 C 0.27949 0.58672 0.48313 0.0
C420 C 0.22684 0.57575 0.49873 0.0
H421 H 0.2951 0.60737 0.51796 0.0
C422 C 0.29868 0.63311 0.56889 0.0
O423 O 0.29801 0.70733 0.56621 0.0
O424 O 0.30424 0.69188 0.53095 0.0
N425 N 0.20214 0.58335 0.52924 0.0
C426 C 0.17815 0.58134 0.53884 0.0
C427 C 0.15237 0.56799 0.52532 0.0
C428 C 0.15143 0.55659 0.5022 0.0
C429 C 0.1763 0.55861 0.49282 0.0
C430 C 0.20137 0.5721 0.50715 0.0
H431 H 0.17873 0.59002 0.55661 0.0
O432 O 0.24531 0.67239 0.53432 0.0
O433 O 0.25131 0.63612 0.53267 0.0
O434 O 0.24518 0.6511 0.58116 0.0
O435 O 0.22637 0.60499 0.57528 0.0
C436 C 0.17733 0.54827 0.46962 0.0
C437 C 0.20341 0.55202 0.46099 0.0
H438 H 0.25778 0.56485 0.44993 0.0
H439 H 0.30033 0.59122 0.47721 0.0
H440 H 0.13326 0.56652 0.53268 0.0
H441 H 0.13155 0.5465 0.49175 0.0
H442 H 0.1583 0.53781 0.4581 0.0
H443 H 0.20403 0.54439 0.44296 0.0
Mn444 Mn 0.6233 0.27251 0.71936 0.0
Mn445 Mn 0.65925 0.23811 0.71325 0.0
C446 C 0.60736 0.23612 0.6915 0.0
C447 C 0.61685 0.30943 0.70924 0.0
C448 C 0.61918 0.22892 0.75465 0.0
O449 O 0.66135 0.29836 0.73639 0.0
O450 O 0.68476 0.27535 0.72908 0.0
C451 C 0.702 0.27446 0.67782 0.0
N452 N 0.68055 0.24882 0.68409 0.0
C453 C 0.68412 0.2283 0.64656 0.0
C454 C 0.70637 0.25446 0.63977 0.0
C455 C 0.7153 0.27765 0.65545 0.0
C456 C 0.67176 0.22638 0.66912 0.0
H457 H 0.70886 0.29236 0.68978 0.0
C458 C 0.6837 0.29633 0.73764 0.0
O459 O 0.60753 0.2965 0.72945 0.0
O460 O 0.63047 0.30135 0.69528 0.0
N461 N 0.63745 0.20203 0.69799 0.0
C462 C 0.61458 0.17863 0.7066 0.0
C463 C 0.60235 0.15379 0.69267 0.0
C464 C 0.6139 0.1532 0.67016 0.0
C465 C 0.63765 0.17745 0.66181 0.0
C466 C 0.64903 0.20156 0.67654 0.0
H467 H 0.60556 0.17897 0.72386 0.0
O468 O 0.59024 0.24421 0.69931 0.0
O469 O 0.63361 0.24999 0.69986 0.0
O470 O 0.61133 0.24575 0.74763 0.0
O471 O 0.63742 0.22508 0.74343 0.0
C472 C 0.65012 0.17878 0.63924 0.0
C473 C 0.67335 0.20418 0.63162 0.0
H474 H 0.71658 0.25704 0.62247 0.0
H475 H 0.73236 0.29793 0.65028 0.0
H476 H 0.58401 0.13517 0.69922 0.0
H477 H 0.60425 0.13406 0.65937 0.0
H478 H 0.64172 0.16049 0.62742 0.0
H479 H 0.68246 0.20505 0.61406 0.0
Mn480 Mn 0.38759 0.64699 0.9104 0.0
Mn481 Mn 0.35021 0.57662 0.90803 0.0
C482 C 0.39804 0.622 0.93749 0.0
C483 C 0.39462 0.68977 0.92439 0.0
C484 C 0.39517 0.61146 0.87164 0.0
O485 O 0.35142 0.63805 0.89138 0.0
O486 O 0.32746 0.59105 0.89211 0.0
C487 C 0.30207 0.56586 0.93961 0.0
N488 N 0.32456 0.5624 0.93444 0.0
C489 C 0.31505 0.53292 0.96861 0.0
C490 C 0.29169 0.53604 0.97423 0.0
C491 C 0.28521 0.55263 0.95969 0.0
C492 C 0.3309 0.54638 0.94824 0.0
H493 H 0.29705 0.57864 0.92851 0.0
C494 C 0.32947 0.61419 0.88647 0.0
O495 O 0.40547 0.6875 0.90425 0.0
O496 O 0.3791 0.66708 0.93611 0.0
N497 N 0.36986 0.56031 0.92319 0.0
C498 C 0.39461 0.56157 0.91661 0.0
C499 C 0.40504 0.54739 0.93015 0.0
C500 C 0.38986 0.53196 0.95019 0.0
C501 C 0.36438 0.53088 0.95654 0.0
C502 C 0.35496 0.54534 0.94232 0.0
H503 H 0.40641 0.57351 0.90129 0.0
O504 O 0.41735 0.64734 0.93248 0.0
O505 O 0.37361 0.61197 0.92606 0.0
O506 O 0.40225 0.63508 0.88124 0.0
O507 O 0.37593 0.58849 0.8802 0.0
C508 C 0.34838 0.51665 0.97682 0.0
C509 C 0.3237 0.51762 0.98282 0.0
H510 H 0.27879 0.52608 0.98983 0.0
H511 H 0.26731 0.55526 0.96399 0.0
H512 H 0.42479 0.54844 0.9252 0.0
H513 H 0.39813 0.52128 0.96073 0.0
H514 H 0.35516 0.50532 0.98818 0.0
H515 H 0.31187 0.50701 0.9987 0.0
Mn516 Mn 0.74678 0.38625 0.06668 0.0
Mn517 Mn 0.78379 0.35256 0.06702 0.0
C518 C 0.78308 0.39829 0.0951 0.0
C519 C 0.70802 0.39029 0.07855 0.0
C520 C 0.79216 0.39527 0.02974 0.0
O521 O 0.72101 0.35076 0.04698 0.0
O522 O 0.74596 0.3286 0.05041 0.0
C523 C 0.74719 0.30619 0.09903 0.0
N524 N 0.77318 0.32861 0.0941 0.0
C525 C 0.79427 0.32243 0.13027 0.0
C526 C 0.76778 0.29917 0.13565 0.0
C527 C 0.74414 0.29105 0.11998 0.0
C528 C 0.79609 0.33657 0.10902 0.0
H529 H 0.72893 0.29994 0.0871 0.0
C530 C 0.7239 0.32963 0.04339 0.0
O531 O 0.72208 0.40217 0.05925 0.0
O532 O 0.71616 0.37579 0.09083 0.0
N533 N 0.82042 0.37346 0.08302 0.0
C534 C 0.84385 0.39758 0.07621 0.0
C535 C 0.86903 0.40919 0.0905 0.0
C536 C 0.8699 0.39587 0.1116 0.0
C537 C 0.84556 0.37103 0.1182 0.0
C538 C 0.82113 0.36031 0.10314 0.0
H539 H 0.84324 0.40803 0.06013 0.0
O540 O 0.77521 0.41597 0.08957 0.0
O541 O 0.76964 0.37435 0.08368 0.0
O542 O 0.77458 0.40159 0.03868 0.0
O543 O 0.79692 0.37702 0.03871 0.0
C544 C 0.84437 0.35684 0.13944 0.0
C545 C 0.81875 0.33256 0.14546 0.0
H546 H 0.76527 0.28758 0.1519 0.0
H547 H 0.72359 0.27322 0.12409 0.0
H548 H 0.88768 0.42845 0.08536 0.0
H549 H 0.88925 0.40507 0.12273 0.0
H550 H 0.86289 0.36469 0.15148 0.0
H551 H 0.81797 0.32209 0.16203 0.0
Mn552 Mn 0.3897 0.76489 0.22613 0.0
Mn553 Mn 0.46055 0.80196 0.2396 0.0
C554 C 0.40711 0.79875 0.25672 0.0
C555 C 0.34354 0.72741 0.23092 0.0
C556 C 0.43387 0.81161 0.19508 0.0
O557 O 0.40459 0.741 0.21092 0.0
O558 O 0.45092 0.76621 0.22329 0.0
C559 C 0.46407 0.76539 0.27601 0.0
N560 N 0.46836 0.79075 0.26988 0.0
C561 C 0.4884 0.81019 0.30941 0.0
C562 C 0.48434 0.78432 0.31611 0.0
C563 C 0.47206 0.76181 0.29935 0.0
C564 C 0.48014 0.81255 0.28587 0.0
H565 H 0.45459 0.74803 0.2632 0.0
C566 C 0.42991 0.7448 0.21273 0.0
O567 O 0.35085 0.74173 0.21134 0.0
O568 O 0.36341 0.73378 0.2473 0.0
N569 N 0.47237 0.83687 0.25582 0.0
C570 C 0.47305 0.85988 0.24704 0.0
C571 C 0.48379 0.88397 0.26186 0.0
C572 C 0.49388 0.88422 0.28546 0.0
C573 C 0.49315 0.86036 0.29403 0.0
C574 C 0.48235 0.83701 0.27839 0.0
H575 H 0.46529 0.8598 0.22893 0.0
O576 O 0.38272 0.79113 0.24609 0.0
O577 O 0.42061 0.78656 0.249 0.0
O578 O 0.40809 0.79379 0.19987 0.0
O579 O 0.45519 0.81575 0.2083 0.0
C580 C 0.50212 0.85862 0.31765 0.0
C581 C 0.49973 0.83355 0.32535 0.0
H582 H 0.49032 0.78142 0.33414 0.0
H583 H 0.46874 0.74175 0.30443 0.0
H584 H 0.48418 0.90226 0.25515 0.0
H585 H 0.50185 0.90273 0.29693 0.0
H586 H 0.51042 0.8763 0.33019 0.0
H587 H 0.50626 0.83234 0.34368 0.0
H588 H 0.21563 0.67152 0.26079 0.0
H589 H 0.22804 0.60213 0.27417 0.0
H590 H 0.2769 0.62918 0.26044 0.0
H591 H 0.31747 0.67389 0.24652 0.0
H592 H 0.30187 0.73967 0.22748 0.0
H593 H 0.25255 0.71216 0.24074 0.0
C594 C 0.22833 0.6616 0.26011 0.0
C595 C 0.2177 0.63472 0.26931 0.0
C596 C 0.25612 0.67676 0.2511 0.0
C597 C 0.23548 0.62307 0.26832 0.0
C598 C 0.26356 0.63846 0.26016 0.0
C599 C 0.30304 0.6819 0.24503 0.0
C600 C 0.31315 0.70873 0.23625 0.0
C601 C 0.27433 0.66557 0.25198 0.0
C602 C 0.29438 0.71896 0.23412 0.0
C603 C 0.26625 0.70331 0.2418 0.0
H604 H 0.61842 0.24259 0.46116 0.0
H605 H 0.55344 0.20804 0.4045 0.0
H606 H 0.57179 0.25444 0.38807 0.0
H607 H 0.60386 0.30534 0.39196 0.0
H608 H 0.66719 0.33956 0.44999 0.0
H609 H 0.65236 0.29277 0.46339 0.0
C610 C 0.60865 0.2451 0.4449 0.0
C611 C 0.58459 0.22188 0.43408 0.0
C612 C 0.61899 0.27184 0.43585 0.0
C613 C 0.57184 0.22561 0.41329 0.0
C614 C 0.58236 0.25213 0.40387 0.0
C615 C 0.61474 0.3025 0.40726 0.0
C616 C 0.63655 0.32589 0.42 0.0
C617 C 0.60556 0.27549 0.4153 0.0
C618 C 0.65026 0.32191 0.43994 0.0
C619 C 0.64175 0.29515 0.44766 0.0
H620 H 0.39782 0.6337 0.63038 0.0
H621 H 0.37292 0.56052 0.58535 0.0
H622 H 0.33716 0.56725 0.56453 0.0
H623 H 0.31198 0.593 0.55979 0.0
H624 H 0.33814 0.66735 0.60343 0.0
H625 H 0.37485 0.66136 0.62366 0.0
C626 C 0.38498 0.61946 0.61572 0.0
C627 C 0.38802 0.59645 0.60968 0.0
C628 C 0.36463 0.62364 0.60354 0.0
C629 C 0.37075 0.57807 0.59082 0.0
C630 C 0.35037 0.58199 0.57876 0.0
C631 C 0.32572 0.60796 0.5737 0.0
C632 C 0.32209 0.63046 0.58021 0.0
C633 C 0.34689 0.6045 0.58516 0.0
C634 C 0.34041 0.64983 0.59804 0.0
C635 C 0.36138 0.64637 0.60968 0.0
H636 H 0.78273 0.40127 0.79408 0.0
H637 H 0.83249 0.3672 0.76537 0.0
H638 H 0.78958 0.32896 0.74584 0.0
H639 H 0.73795 0.30514 0.73694 0.0
H640 H 0.68853 0.34006 0.7648 0.0
H641 H 0.73142 0.37821 0.78427 0.0
C642 C 0.78432 0.38572 0.78328 0.0
C643 C 0.81088 0.38717 0.78126 0.0
C644 C 0.7596 0.36388 0.77193 0.0
C645 C 0.81231 0.36646 0.76753 0.0
C646 C 0.78779 0.34463 0.75624 0.0
C647 C 0.73648 0.32103 0.74731 0.0
C648 C 0.70991 0.31956 0.74942 0.0
C649 C 0.7613 0.34307 0.7584 0.0
C650 C 0.70861 0.34057 0.7628 0.0
C651 C 0.73316 0.36243 0.77399 0.0
H652 H 0.41961 0.79831 0.98293 0.0
H653 H 0.44467 0.83381 0.91243 0.0
H654 H 0.43306 0.78831 0.89513 0.0
H655 H 0.41567 0.73837 0.90035 0.0
H656 H 0.38772 0.70264 0.97063 0.0
H657 H 0.40032 0.74818 0.98776 0.0
C658 C 0.42266 0.79599 0.96382 0.0
C659 C 0.4333 0.81921 0.94895 0.0
C660 C 0.41524 0.76974 0.954 0.0
C661 C 0.43668 0.8161 0.92414 0.0
C662 C 0.43001 0.79015 0.91431 0.0
C663 C 0.41229 0.74057 0.91939 0.0
C664 C 0.40087 0.71718 0.93421 0.0
C665 C 0.41923 0.7668 0.92907 0.0
C666 C 0.39638 0.72029 0.95881 0.0
C667 C 0.40368 0.74635 0.96866 0.0
H668 H 0.59774 0.38568 0.11834 0.0
H669 H 0.65474 0.475 0.11995 0.0
H670 H 0.69116 0.4691 0.10029 0.0
H671 H 0.70865 0.4386 0.08537 0.0
H672 H 0.65484 0.34972 0.09048 0.0
H673 H 0.61577 0.35543 0.10558 0.0
C674 C 0.61821 0.40402 0.11493 0.0
C675 C 0.62305 0.4308 0.12093 0.0
C676 C 0.63991 0.40051 0.10496 0.0
C677 C 0.64969 0.45407 0.11527 0.0
C678 C 0.67088 0.45075 0.10424 0.0
C679 C 0.68823 0.42055 0.08965 0.0
C680 C 0.68432 0.39379 0.08671 0.0
C681 C 0.6664 0.42409 0.09935 0.0
C682 C 0.65813 0.37049 0.09264 0.0
C683 C 0.63587 0.37377 0.10123 0.0
H684 H 0.39383 0.84078 0.52744 0.0
H685 H 0.41799 0.80658 0.46783 0.0
H686 H 0.38564 0.75954 0.48143 0.0
H687 H 0.34895 0.72795 0.50909 0.0
H688 H 0.32488 0.7615 0.56926 0.0
H689 H 0.35876 0.80884 0.55674 0.0
C690 C 0.39201 0.82298 0.51752 0.0
C691 C 0.4083 0.82717 0.49668 0.0
C692 C 0.37337 0.79587 0.52552 0.0
C693 C 0.40593 0.80395 0.48408 0.0
C694 C 0.38732 0.77702 0.49177 0.0
C695 C 0.35125 0.74561 0.51958 0.0
C696 C 0.33429 0.74119 0.53999 0.0
C697 C 0.37076 0.77272 0.51232 0.0
C698 C 0.33769 0.76432 0.55348 0.0
C699 C 0.35698 0.79141 0.54627 0.0
H700 H 0.5975 0.39819 0.65681 0.0
H701 H 0.5249 0.3643 0.70356 0.0
H702 H 0.54141 0.3358 0.72326 0.0
H703 H 0.57439 0.31775 0.72481 0.0
H704 H 0.64483 0.34904 0.67569 0.0
H705 H 0.63155 0.38151 0.65947 0.0
C706 C 0.58564 0.38492 0.67161 0.0
C707 C 0.56013 0.38335 0.67883 0.0
C708 C 0.59479 0.368 0.68229 0.0
C709 C 0.5446 0.36575 0.69772 0.0
C710 C 0.55401 0.34946 0.70894 0.0
C711 C 0.58707 0.33199 0.71082 0.0
C712 C 0.61055 0.33102 0.70146 0.0
C713 C 0.57877 0.35 0.70104 0.0
C714 C 0.6266 0.34934 0.68313 0.0
C715 C 0.619 0.36788 0.67383 0.0
H716 H 0.22314 0.62154 0.85011 0.0
H717 H 0.20058 0.5416 0.81786 0.0
H718 H 0.24391 0.5456 0.83504 0.0
H719 H 0.28851 0.57176 0.85883 0.0
H720 H 0.31348 0.65341 0.88796 0.0
H721 H 0.26942 0.64919 0.87143 0.0
C722 C 0.22776 0.60511 0.84643 0.0
C723 C 0.20811 0.58114 0.83281 0.0
C724 C 0.2534 0.60797 0.85556 0.0
C725 C 0.2146 0.55996 0.8288 0.0
C726 C 0.23967 0.56236 0.83837 0.0
C727 C 0.28437 0.58869 0.86148 0.0
C728 C 0.30418 0.61281 0.87468 0.0
C729 C 0.2592 0.58625 0.85176 0.0
C730 C 0.29867 0.63469 0.87774 0.0
C731 C 0.27339 0.63221 0.86843 0.0
H732 H 0.60838 0.2253 0.00566 0.0
H733 H 0.66654 0.19728 0.98549 0.0
H734 H 0.70659 0.24021 0.00227 0.0
H735 H 0.72547 0.2861 0.02208 0.0
H736 H 0.6679 0.31567 0.03926 0.0
H737 H 0.62751 0.27216 0.02327 0.0
C738 C 0.6298 0.2286 0.00453 0.0
C739 C 0.63411 0.20769 0.99434 0.0
C740 C 0.65302 0.25385 0.01341 0.0
C741 C 0.66218 0.21246 0.99368 0.0
C742 C 0.68528 0.23724 0.00303 0.0
C743 C 0.70411 0.28311 0.02224 0.0
C744 C 0.69978 0.30417 0.03189 0.0
C745 C 0.68096 0.25811 0.01287 0.0
C746 C 0.67194 0.29995 0.03179 0.0
C747 C 0.64877 0.27497 0.02279 0.0
H748 H 0.47652 0.66581 0.18219 0.0
H749 H 0.38613 0.60657 0.17398 0.0
H750 H 0.37524 0.64235 0.18602 0.0
H751 H 0.39133 0.69076 0.19886 0.0
H752 H 0.48196 0.74991 0.20583 0.0
H753 H 0.49256 0.71413 0.19372 0.0
C754 C 0.45443 0.66071 0.18284 0.0
C755 C 0.43227 0.63338 0.17734 0.0
C756 C 0.44825 0.68152 0.18936 0.0
C757 C 0.40373 0.62722 0.17862 0.0
C758 C 0.39742 0.64778 0.18526 0.0
C759 C 0.41339 0.69589 0.19749 0.0
C760 C 0.43572 0.72309 0.20332 0.0
C761 C 0.41951 0.67505 0.19064 0.0
C762 C 0.46422 0.7292 0.20159 0.0
C763 C 0.4704 0.70871 0.19468 0.0
H764 H 0.83498 0.48331 0.35879 0.0
H765 H 0.79901 0.39629 0.33995 0.0
H766 H 0.75343 0.38578 0.35695 0.0
H767 H 0.7231 0.40138 0.37595 0.0
H768 H 0.75888 0.48863 0.39409 0.0
H769 H 0.80483 0.49884 0.37826 0.0
C770 C 0.81716 0.46205 0.35835 0.0
C771 C 0.8206 0.44067 0.34816 0.0
C772 C 0.79077 0.45615 0.36786 0.0
C773 C 0.79727 0.41316 0.34805 0.0
C774 C 0.77104 0.40713 0.35757 0.0
C775 C 0.7409 0.42265 0.37644 0.0
C776 C 0.73729 0.44415 0.38614 0.0
C777 C 0.76745 0.42848 0.36735 0.0
C778 C 0.76081 0.47157 0.3867 0.0
C779 C 0.78722 0.47749 0.37766 0.0
H780 H 0.14197 0.6158 0.44436 0.0
H781 H 0.1993 0.59916 0.4039 0.0
H782 H 0.23134 0.61198 0.43943 0.0
H783 H 0.24394 0.62991 0.48153 0.0
H784 H 0.18558 0.64425 0.52278 0.0
H785 H 0.15294 0.63047 0.48753 0.0
C786 C 0.16129 0.61465 0.44358 0.0
C787 C 0.16842 0.60658 0.42177 0.0
C788 C 0.17932 0.62162 0.46415 0.0
C789 C 0.19346 0.60517 0.42068 0.0
C790 C 0.2118 0.61264 0.44089 0.0
C791 C 0.22369 0.62925 0.48289 0.0
C792 C 0.21652 0.63703 0.50479 0.0
C793 C 0.20503 0.62107 0.46266 0.0
C794 C 0.19105 0.63763 0.50614 0.0
C795 C 0.17247 0.62982 0.48603 0.0
H796 H 0.54496 0.14673 0.60756 0.0
H797 H 0.62162 0.20344 0.57028 0.0
H798 H 0.64102 0.23241 0.60719 0.0
H799 H 0.63441 0.24342 0.64918 0.0
H800 H 0.55852 0.18615 0.68687 0.0
H801 H 0.54026 0.15563 0.65066 0.0
C802 C 0.56604 0.16527 0.60769 0.0
C803 C 0.58182 0.17308 0.58631 0.0
C804 C 0.57705 0.18173 0.62896 0.0
C805 C 0.60919 0.19699 0.58661 0.0
C806 C 0.62017 0.21365 0.60762 0.0
C807 C 0.61429 0.22383 0.64958 0.0
C808 C 0.59818 0.21643 0.67073 0.0
C809 C 0.6041 0.20645 0.62878 0.0
C810 C 0.57146 0.19181 0.67083 0.0
C811 C 0.56105 0.17445 0.65017 0.0
H812 H 0.45414 0.62547 0.77054 0.0
H813 H 0.40946 0.53591 0.77404 0.0
H814 H 0.39263 0.53829 0.81435 0.0
H815 H 0.38855 0.56549 0.84758 0.0
H816 H 0.43281 0.65514 0.8442 0.0
H817 H 0.45227 0.65299 0.80507 0.0
C818 C 0.44111 0.60651 0.7803 0.0
C819 C 0.4329 0.58054 0.76921 0.0
C820 C 0.43135 0.60802 0.80346 0.0
C821 C 0.41572 0.55614 0.782 0.0
C822 C 0.40617 0.55748 0.80509 0.0
C823 C 0.40257 0.58464 0.83841 0.0
C824 C 0.40895 0.61043 0.84884 0.0
C825 C 0.41347 0.58327 0.81582 0.0
C826 C 0.42741 0.63497 0.83666 0.0
C827 C 0.43852 0.63377 0.81422 0.0
H828 H 0.83352 0.44792 0.92746 0.0
H829 H 0.90424 0.43642 0.94626 0.0
H830 H 0.88246 0.41731 0.98495 0.0
H831 H 0.84276 0.40288 0.01321 0.0
H832 H 0.77431 0.41804 0.9955 0.0
H833 H 0.79638 0.43752 0.95694 0.0
C834 C 0.84467 0.4419 0.94013 0.0
C835 C 0.87052 0.44355 0.93361 0.0
C836 C 0.83244 0.4316 0.96267 0.0
C837 C 0.88404 0.43491 0.95034 0.0
C838 C 0.87171 0.42414 0.97264 0.0
C839 C 0.83276 0.41059 0.00096 0.0
C840 C 0.80683 0.40885 0.0072 0.0
C841 C 0.84577 0.42214 0.9789 0.0
C842 C 0.79431 0.41919 0.99122 0.0
C843 C 0.80685 0.43024 0.9691 0.0
H844 H 0.47219 0.87765 0.09779 0.0
H845 H 0.38946 0.87044 0.10422 0.0
H846 H 0.38197 0.84606 0.14209 0.0
H847 H 0.3981 0.82538 0.17279 0.0
H848 H 0.482 0.83523 0.16791 0.0
H849 H 0.49004 0.86054 0.13031 0.0
C850 C 0.45274 0.87131 0.10765 0.0
C851 C 0.4313 0.87568 0.09782 0.0
C852 C 0.44872 0.85767 0.12972 0.0
C853 C 0.4061 0.86685 0.11091 0.0
C854 C 0.40183 0.85302 0.1327 0.0
C855 C 0.41817 0.8331 0.16351 0.0
C856 C 0.43929 0.82816 0.17299 0.0
C857 C 0.42281 0.84797 0.1421 0.0
C858 C 0.46537 0.83872 0.16098 0.0
C859 C 0.46996 0.85314 0.13944 0.0
H860 H 0.60605 0.48184 0.28453 0.0
H861 H 0.55614 0.39338 0.26939 0.0
H862 H 0.57434 0.3845 0.30664 0.0
H863 H 0.6053 0.40169 0.34299 0.0
H864 H 0.65577 0.49021 0.3581 0.0
H865 H 0.63675 0.49908 0.32132 0.0
C866 C 0.59922 0.46063 0.28935 0.0
C867 C 0.57961 0.43835 0.27418 0.0
C868 C 0.61001 0.45562 0.31075 0.0
C869 C 0.57079 0.41095 0.28089 0.0
C870 C 0.58139 0.40583 0.30211 0.0
C871 C 0.61221 0.42296 0.3383 0.0
C872 C 0.63211 0.44519 0.35337 0.0
C873 C 0.60112 0.42799 0.31712 0.0
C874 C 0.64058 0.4726 0.34691 0.0
C875 C 0.62968 0.47775 0.32584 0.0
H876 H 0.44477 0.84873 0.36251 0.0
H877 H 0.436 0.91467 0.33224 0.0
H878 H 0.42061 0.88923 0.29304 0.0
H879 H 0.41072 0.84826 0.26727 0.0
H880 H 0.41792 0.78191 0.29878 0.0
H881 H 0.43206 0.80694 0.33786 0.0
C882 C 0.43944 0.85742 0.34727 0.0
C883 C 0.44172 0.88349 0.34991 0.0
C884 C 0.43012 0.84248 0.32518 0.0
C885 C 0.43447 0.8946 0.33034 0.0
C886 C 0.42565 0.88006 0.30805 0.0
C887 C 0.4154 0.83944 0.28279 0.0
C888 C 0.41448 0.81394 0.28014 0.0
C889 C 0.42353 0.85401 0.30522 0.0
C890 C 0.41958 0.80207 0.30036 0.0
C891 C 0.4275 0.81627 0.32268 0.0
H892 H 0.60005 0.43724 0.54136 0.0
H893 H 0.52632 0.42859 0.50278 0.0
H894 H 0.54436 0.42117 0.46467 0.0
H895 H 0.58057 0.41571 0.44243 0.0
H896 H 0.65406 0.4245 0.48121 0.0
H897 H 0.63674 0.43332 0.51915 0.0
C898 C 0.58811 0.43415 0.52458 0.0
C899 C 0.56183 0.43342 0.52496 0.0
C900 C 0.59854 0.4298 0.50279 0.0
C901 C 0.54643 0.42892 0.50306 0.0
C902 C 0.55676 0.42473 0.48125 0.0
C903 C 0.59279 0.41983 0.45923 0.0
C904 C 0.61891 0.42039 0.4591 0.0
C905 C 0.58264 0.42484 0.48093 0.0
C906 C 0.63432 0.42491 0.48091 0.0
C907 C 0.62433 0.42975 0.50257 0.0
H908 H 0.14997 0.61576 0.67403 0.0
H909 H 0.16798 0.55127 0.69336 0.0
H910 H 0.19499 0.55914 0.65672 0.0
H911 H 0.21563 0.5856 0.61988 0.0
H912 H 0.20342 0.65417 0.60349 0.0
H913 H 0.17308 0.64415 0.63882 0.0
C914 C 0.16008 0.60361 0.67064 0.0
C915 C 0.15639 0.58271 0.68676 0.0
C916 C 0.1771 0.60925 0.65009 0.0
C917 C 0.16938 0.56694 0.68126 0.0
C918 C 0.18534 0.57168 0.66035 0.0
C919 C 0.20629 0.59832 0.6241 0.0
C920 C 0.21165 0.62054 0.60916 0.0
C921 C 0.18954 0.59291 0.64476 0.0
C922 C 0.19973 0.63708 0.61488 0.0
C923 C 0.18228 0.63126 0.63498 0.0
H924 H 0.55912 0.17373 0.85244 0.0
H925 H 0.59845 0.12471 0.83753 0.0
H926 H 0.61791 0.14983 0.80013 0.0
H927 H 0.62461 0.18635 0.77221 0.0
H928 H 0.58481 0.23507 0.78709 0.0
H929 H 0.5644 0.2091 0.82381 0.0
C930 C 0.57153 0.16818 0.84081 0.0
C931 C 0.57725 0.1473 0.84779 0.0
C932 C 0.58269 0.18273 0.81938 0.0
C933 C 0.59391 0.14083 0.83272 0.0
C934 C 0.60499 0.15515 0.8113 0.0
C935 C 0.61149 0.19136 0.78345 0.0
C936 C 0.60644 0.21282 0.77684 0.0
C937 C 0.59974 0.17632 0.80457 0.0
C938 C 0.58915 0.21875 0.79164 0.0
C939 C 0.57744 0.2039 0.81269 0.0
H940 H 0.38579 0.56239 0.03532 0.0
H941 H 0.47517 0.59113 0.02345 0.0
H942 H 0.47173 0.60888 0.98441 0.0
H943 H 0.44399 0.61915 0.95441 0.0
H944 H 0.35886 0.59988 0.97215 0.0
H945 H 0.36078 0.57748 0.00902 0.0
C946 C 0.40504 0.57326 0.02491 0.0
C947 C 0.43081 0.57541 0.03309 0.0
C948 C 0.40375 0.58557 0.00342 0.0
C949 C 0.45473 0.58841 0.01795 0.0
C950 C 0.45298 0.59908 0.99559 0.0
C951 C 0.42592 0.60986 0.96638 0.0
C952 C 0.40062 0.60952 0.95995 0.0
C953 C 0.42769 0.59814 0.98828 0.0
C954 C 0.37787 0.59882 0.97608 0.0
C955 C 0.37906 0.58627 0.99727 0.0
H956 H 0.83129 0.39548 0.19811 0.0
H957 H 0.89838 0.47715 0.17816 0.0
H958 H 0.87542 0.47073 0.13828 0.0
H959 H 0.83436 0.44274 0.10986 0.0
H960 H 0.76606 0.36292 0.13194 0.0
H961 H 0.79079 0.36822 0.17058 0.0
C962 C 0.84082 0.4121 0.18521 0.0
C963 C 0.86636 0.43692 0.19136 0.0
C964 C 0.82705 0.40869 0.16275 0.0
C965 C 0.87882 0.45774 0.17396 0.0
C966 C 0.86554 0.45421 0.15121 0.0
C967 C 0.82514 0.42656 0.12317 0.0
C968 C 0.79901 0.40206 0.11791 0.0
C969 C 0.83939 0.42993 0.14554 0.0
C970 C 0.78668 0.3815 0.1354 0.0
C971 C 0.80071 0.38459 0.15751 0.0
loop_
_geom_bond_atom_site_label_1
_geom_bond_atom_site_label_2
_geom_bond_distance
_geom_bond_site_symmetry_2
_ccdc_geom_bond_type
H0 C27 0.929 . S
N1 C26 1.433 . S
N1 C32 1.435 . S
N1 C38 1.423 . S
H2 C28 0.930 . S
H3 C31 0.931 . S
H4 C30 0.929 . S
H5 C33 0.930 . S
H6 C34 0.932 . S
H7 C37 0.929 . S
H8 C36 0.931 . S
H9 C39 0.929 . S
H10 C43 0.932 . S
H11 C40 0.931 . S
H12 C42 0.929 . S
H13 C45 0.929 . S
H14 C46 0.930 . S
H15 C48 0.929 . S
H16 C49 0.931 . S
H17 C51 0.930 . S
H18 C52 0.932 . S
H19 C54 0.931 . S
H20 C55 0.929 . S
H21 C57 0.929 . S
H22 C58 0.931 . S
H23 C60 0.929 . S
N24 C44 1.433 . S
N24 C50 1.435 . S
N24 C56 1.423 . S
H25 C61 0.932 . S
C26 N1 1.433 . S
C26 C27 1.363 . S
C26 C31 1.370 . S
C27 H0 0.929 . S
C27 C26 1.363 . S
C27 C28 1.385 . S
C28 H2 0.930 . S
C28 C27 1.385 . S
C28 C29 1.357 . S
C29 C28 1.357 . S
C29 C30 1.406 . S
C30 H4 0.929 . S
C30 C29 1.406 . S
C30 C31 1.391 . S
C31 H3 0.931 . S
C31 C26 1.370 . S
C31 C30 1.391 . S
C32 N1 1.435 . S
C32 C33 1.358 . S
C32 C37 1.371 . S
C33 H5 0.930 . S
C33 C32 1.358 . S
C33 C34 1.405 . S
C34 H6 0.932 . S
C34 C33 1.405 . S
C34 C35 1.383 . S
C35 C34 1.383 . S
C35 C36 1.393 . S
C36 H8 0.931 . S
C36 C35 1.393 . S
C36 C37 1.382 . S
C37 H7 0.929 . S
C37 C32 1.371 . S
C37 C36 1.382 . S
C38 N1 1.423 . S
C38 C39 1.362 . S
C38 C43 1.388 . S
C39 H9 0.929 . S
C39 C38 1.362 . S
C39 C40 1.376 . S
C40 H11 0.931 . S
C40 C39 1.376 . S
C40 C41 1.396 . S
C41 C40 1.396 . S
C41 C42 1.348 . S
C41 C59 1.472 1_455 S
C42 H12 0.929 . S
C42 C41 1.348 . S
C42 C43 1.443 . S
C43 H10 0.932 . S
C43 C38 1.388 . S
C43 C42 1.443 . S
C44 N24 1.433 . S
C44 C45 1.363 . S
C44 C49 1.370 . S
C45 H13 0.929 . S
C45 C44 1.363 . S
C45 C46 1.385 . S
C46 H14 0.930 . S
C46 C45 1.385 . S
C46 C47 1.357 . S
C47 C46 1.357 . S
C47 C48 1.406 . S
C48 H15 0.929 . S
C48 C47 1.406 . S
C48 C49 1.391 . S
C49 H16 0.931 . S
C49 C44 1.370 . S
C49 C48 1.391 . S
C50 N24 1.435 . S
C50 C51 1.358 . S
C50 C55 1.371 . S
C51 H17 0.930 . S
C51 C50 1.358 . S
C51 C52 1.405 . S
C52 H18 0.932 . S
C52 C51 1.405 . S
C52 C53 1.383 . S
C53 C52 1.383 . S
C53 C54 1.393 . S
C54 H19 0.931 . S
C54 C53 1.393 . S
C54 C55 1.382 . S
C55 H20 0.929 . S
C55 C50 1.371 . S
C55 C54 1.382 . S
C56 N24 1.423 . S
C56 C57 1.362 . S
C56 C61 1.388 . S
C57 H21 0.929 . S
C57 C56 1.362 . S
C57 C58 1.376 . S
C58 H22 0.931 . S
C58 C57 1.376 . S
C58 C59 1.396 . S
C59 C41 1.472 1_655 S
C59 C58 1.396 . S
C59 C60 1.348 . S
C60 H23 0.929 . S
C60 C59 1.348 . S
C60 C61 1.443 . S
C61 H25 0.932 . S
C61 C56 1.388 . S
C61 C60 1.443 . S
H62 C89 0.929 . S
N63 C88 1.433 . S
N63 C94 1.435 . S
N63 C100 1.423 . S
H64 C90 0.930 . S
H65 C93 0.931 . S
H66 C92 0.929 . S
H67 C95 0.930 . S
H68 C96 0.932 . S
H69 C99 0.929 . S
H70 C98 0.931 . S
H71 C101 0.929 . S
H72 C105 0.932 . S
H73 C102 0.931 . S
H74 C104 0.929 1_545 S
H75 C107 0.929 . S
H76 C108 0.930 . S
H77 C110 0.929 . S
H78 C111 0.931 . S
H79 C113 0.930 . S
H80 C114 0.932 . S
H81 C116 0.931 . S
H82 C117 0.929 . S
H83 C119 0.929 . S
H84 C120 0.931 . S
H85 C122 0.929 . S
N86 C106 1.433 . S
N86 C112 1.435 . S
N86 C118 1.423 . S
H87 C123 0.932 . S
C88 N63 1.433 . S
C88 C89 1.363 . S
C88 C93 1.370 . S
C89 H62 0.929 . S
C89 C88 1.363 . S
C89 C90 1.385 . S
C90 H64 0.930 . S
C90 C89 1.385 . S
C90 C91 1.357 . S
C91 C90 1.357 . S
C91 C92 1.406 . S
C92 H66 0.929 . S
C92 C91 1.406 . S
C92 C93 1.391 . S
C93 H65 0.931 . S
C93 C88 1.370 . S
C93 C92 1.391 . S
C94 N63 1.435 . S
C94 C95 1.358 . S
C94 C99 1.371 . S
C95 H67 0.930 . S
C95 C94 1.358 . S
C95 C96 1.405 . S
C96 H68 0.932 . S
C96 C95 1.405 . S
C96 C97 1.383 . S
C97 C96 1.383 . S
C97 C98 1.393 . S
C98 H70 0.931 . S
C98 C97 1.393 . S
C98 C99 1.382 . S
C99 H69 0.929 . S
C99 C94 1.371 . S
C99 C98 1.382 . S
C100 N63 1.423 . S
C100 C101 1.362 . S
C100 C105 1.388 . S
C101 H71 0.929 . S
C101 C100 1.362 . S
C101 C102 1.376 . S
C102 H73 0.931 . S
C102 C101 1.376 . S
C102 C103 1.396 1_565 S
C103 C102 1.396 1_545 S
C103 C104 1.348 1_545 S
C103 C121 1.472 . S
C104 H74 0.929 1_565 S
C104 C103 1.348 1_565 S
C104 C105 1.443 . S
C105 H72 0.932 . S
C105 C100 1.388 . S
C105 C104 1.443 . S
C106 N86 1.433 . S
C106 C107 1.363 . S
C106 C111 1.370 . S
C107 H75 0.929 . S
C107 C106 1.363 . S
C107 C108 1.385 . S
C108 H76 0.930 . S
C108 C107 1.385 . S
C108 C109 1.357 . S
C109 C108 1.357 . S
C109 C110 1.406 . S
C110 H77 0.929 . S
C110 C109 1.406 . S
C110 C111 1.391 . S
C111 H78 0.931 . S
C111 C106 1.370 . S
C111 C110 1.391 . S
C112 N86 1.435 . S
C112 C113 1.358 . S
C112 C117 1.371 . S
C113 H79 0.930 . S
C113 C112 1.358 . S
C113 C114 1.405 . S
C114 H80 0.932 . S
C114 C113 1.405 . S
C114 C115 1.383 . S
C115 C114 1.383 . S
C115 C116 1.393 . S
C116 H81 0.931 . S
C116 C115 1.393 . S
C116 C117 1.382 . S
C117 H82 0.929 . S
C117 C112 1.371 . S
C117 C116 1.382 . S
C118 N86 1.423 . S
C118 C119 1.362 . S
C118 C123 1.388 . S
C119 H83 0.929 . S
C119 C118 1.362 . S
C119 C120 1.376 . S
C120 H84 0.931 . S
C120 C119 1.376 . S
C120 C121 1.396 . S
C121 C103 1.472 . S
C121 C120 1.396 . S
C121 C122 1.348 . S
C122 H85 0.929 . S
C122 C121 1.348 . S
C122 C123 1.443 . S
C123 H87 0.932 . S
C123 C118 1.388 . S
C123 C122 1.443 . S
H124 C151 0.929 . S
N125 C150 1.433 . S
N125 C156 1.435 . S
N125 C162 1.423 . S
H126 C152 0.930 . S
H127 C155 0.931 . S
H128 C154 0.929 . S
H129 C157 0.930 . S
H130 C158 0.932 . S
H131 C161 0.929 . S
H132 C160 0.931 . S
H133 C163 0.929 . S
H134 C167 0.932 . S
H135 C164 0.931 . S
H136 C166 0.929 . S
H137 C169 0.929 . S
H138 C170 0.930 . S
H139 C172 0.929 . S
H140 C173 0.931 . S
H141 C175 0.930 . S
H142 C176 0.932 . S
H143 C178 0.931 . S
H144 C179 0.929 . S
H145 C181 0.929 . S
H146 C182 0.931 . S
H147 C184 0.929 . S
N148 C168 1.433 . S
N148 C174 1.435 . S
N148 C180 1.423 . S
H149 C185 0.932 . S
C150 N125 1.433 . S
C150 C151 1.363 . S
C150 C155 1.370 . S
C151 H124 0.929 . S
C151 C150 1.363 . S
C151 C152 1.385 . S
C152 H126 0.930 . S
C152 C151 1.385 . S
C152 C153 1.357 . S
C153 C152 1.357 . S
C153 C154 1.406 . S
C154 H128 0.929 . S
C154 C153 1.406 . S
C154 C155 1.391 . S
C155 H127 0.931 . S
C155 C150 1.370 . S
C155 C154 1.391 . S
C156 N125 1.435 . S
C156 C157 1.358 . S
C156 C161 1.371 . S
C157 H129 0.930 . S
C157 C156 1.358 . S
C157 C158 1.405 . S
C158 H130 0.932 . S
C158 C157 1.405 . S
C158 C159 1.383 . S
C159 C158 1.383 . S
C159 C160 1.393 . S
C160 H132 0.931 . S
C160 C159 1.393 . S
C160 C161 1.382 . S
C161 H131 0.929 . S
C161 C156 1.371 . S
C161 C160 1.382 . S
C162 N125 1.423 . S
C162 C163 1.362 . S
C162 C167 1.388 . S
C163 H133 0.929 . S
C163 C162 1.362 . S
C163 C164 1.376 . S
C164 H135 0.931 . S
C164 C163 1.376 . S
C164 C165 1.396 . S
C165 C164 1.396 . S
C165 C166 1.348 . S
C165 C183 1.472 . S
C166 H136 0.929 . S
C166 C165 1.348 . S
C166 C167 1.443 . S
C167 H134 0.932 . S
C167 C162 1.388 . S
C167 C166 1.443 . S
C168 N148 1.433 . S
C168 C169 1.363 . S
C168 C173 1.370 . S
C169 H137 0.929 . S
C169 C168 1.363 . S
C169 C170 1.385 . S
C170 H138 0.930 . S
C170 C169 1.385 . S
C170 C171 1.357 . S
C171 C170 1.357 . S
C171 C172 1.406 . S
C172 H139 0.929 . S
C172 C171 1.406 . S
C172 C173 1.391 . S
C173 H140 0.931 . S
C173 C168 1.370 . S
C173 C172 1.391 . S
C174 N148 1.435 . S
C174 C175 1.358 . S
C174 C179 1.371 . S
C175 H141 0.930 . S
C175 C174 1.358 . S
C175 C176 1.405 . S
C176 H142 0.932 . S
C176 C175 1.405 . S
C176 C177 1.383 . S
C177 C176 1.383 . S
C177 C178 1.393 . S
C178 H143 0.931 . S
C178 C177 1.393 . S
C178 C179 1.382 . S
C179 H144 0.929 . S
C179 C174 1.371 . S
C179 C178 1.382 . S
C180 N148 1.423 . S
C180 C181 1.362 . S
C180 C185 1.388 . S
C181 H145 0.929 . S
C181 C180 1.362 . S
C181 C182 1.376 . S
C182 H146 0.931 . S
C182 C181 1.376 . S
C182 C183 1.396 . S
C183 C165 1.472 . S
C183 C182 1.396 . S
C183 C184 1.348 . S
C184 H147 0.929 . S
C184 C183 1.348 . S
C184 C185 1.443 . S
C185 H149 0.932 . S
C185 C180 1.388 . S
C185 C184 1.443 . S
H186 C213 0.929 . S
N187 C212 1.433 . S
N187 C218 1.435 . S
N187 C224 1.423 . S
H188 C214 0.930 . S
H189 C217 0.931 . S
H190 C216 0.929 . S
H191 C219 0.930 . S
H192 C220 0.932 . S
H193 C223 0.929 . S
H194 C222 0.931 . S
H195 C225 0.929 . S
H196 C229 0.932 . S
H197 C226 0.931 . S
H198 C228 0.929 . S
H199 C231 0.929 . S
H200 C232 0.930 . S
H201 C234 0.929 . S
H202 C235 0.931 . S
H203 C237 0.930 . S
H204 C238 0.932 . S
H205 C240 0.931 . S
H206 C241 0.929 . S
H207 C243 0.929 . S
H208 C244 0.931 . S
H209 C246 0.929 . S
N210 C230 1.433 . S
N210 C236 1.435 . S
N210 C242 1.423 . S
H211 C247 0.932 . S
C212 N187 1.433 . S
C212 C213 1.363 . S
C212 C217 1.370 . S
C213 H186 0.929 . S
C213 C212 1.363 . S
C213 C214 1.385 . S
C214 H188 0.930 . S
C214 C213 1.385 . S
C214 C215 1.357 . S
C215 C214 1.357 . S
C215 C216 1.406 . S
C216 H190 0.929 . S
C216 C215 1.406 . S
C216 C217 1.391 . S
C217 H189 0.931 . S
C217 C212 1.370 . S
C217 C216 1.391 . S
C218 N187 1.435 . S
C218 C219 1.358 . S
C218 C223 1.371 . S
C219 H191 0.930 . S
C219 C218 1.358 . S
C219 C220 1.405 . S
C220 H192 0.932 . S
C220 C219 1.405 . S
C220 C221 1.383 . S
C221 C220 1.383 . S
C221 C222 1.393 . S
C222 H194 0.931 . S
C222 C221 1.393 . S
C222 C223 1.382 . S
C223 H193 0.929 . S
C223 C218 1.371 . S
C223 C222 1.382 . S
C224 N187 1.423 . S
C224 C225 1.362 . S
C224 C229 1.388 . S
C225 H195 0.929 . S
C225 C224 1.362 . S
C225 C226 1.376 . S
C226 H197 0.931 . S
C226 C225 1.376 . S
C226 C227 1.396 . S
C227 C226 1.396 . S
C227 C228 1.348 . S
C227 C245 1.472 1_455 S
C228 H198 0.929 . S
C228 C227 1.348 . S
C228 C229 1.443 . S
C229 H196 0.932 . S
C229 C224 1.388 . S
C229 C228 1.443 . S
C230 N210 1.433 . S
C230 C231 1.363 . S
C230 C235 1.370 . S
C231 H199 0.929 . S
C231 C230 1.363 . S
C231 C232 1.385 . S
C232 H200 0.930 . S
C232 C231 1.385 . S
C232 C233 1.357 . S
C233 C232 1.357 . S
C233 C234 1.406 . S
C234 H201 0.929 . S
C234 C233 1.406 . S
C234 C235 1.391 . S
C235 H202 0.931 . S
C235 C230 1.370 . S
C235 C234 1.391 . S
C236 N210 1.435 . S
C236 C237 1.358 . S
C236 C241 1.371 . S
C237 H203 0.930 . S
C237 C236 1.358 . S
C237 C238 1.405 . S
C238 H204 0.932 . S
C238 C237 1.405 . S
C238 C239 1.383 . S
C239 C238 1.383 . S
C239 C240 1.393 . S
C240 H205 0.931 . S
C240 C239 1.393 . S
C240 C241 1.382 . S
C241 H206 0.929 . S
C241 C236 1.371 . S
C241 C240 1.382 . S
C242 N210 1.423 . S
C242 C243 1.362 . S
C242 C247 1.388 . S
C243 H207 0.929 . S
C243 C242 1.362 . S
C243 C244 1.376 . S
C244 H208 0.931 . S
C244 C243 1.376 . S
C244 C245 1.396 . S
C245 C227 1.472 1_655 S
C245 C244 1.396 . S
C245 C246 1.348 . S
C246 H209 0.929 . S
C246 C245 1.348 . S
C246 C247 1.443 . S
C247 H211 0.932 . S
C247 C242 1.388 . S
C247 C246 1.443 . S
H248 C275 0.929 . S
N249 C274 1.433 . S
N249 C280 1.435 . S
N249 C286 1.423 . S
H250 C276 0.930 . S
H251 C279 0.931 . S
H252 C278 0.929 . S
H253 C281 0.930 . S
H254 C282 0.932 . S
H255 C285 0.929 . S
H256 C284 0.931 . S
H257 C287 0.929 . S
H258 C291 0.932 . S
H259 C288 0.931 . S
H260 C290 0.929 . S
H261 C293 0.929 . S
H262 C294 0.930 . S
H263 C296 0.929 . S
H264 C297 0.931 . S
H265 C299 0.930 1_554 S
H266 C300 0.932 . S
H267 C302 0.931 . S
H268 C303 0.929 . S
H269 C305 0.929 . S
H270 C306 0.921 1_544 S
H271 C308 0.929 . S
N272 C292 1.433 . S
N272 C298 1.435 1_554 S
N272 C304 1.423 1_554 S
H273 C309 0.932 . S
C274 N249 1.433 . S
C274 C275 1.363 . S
C274 C279 1.370 . S
C275 H248 0.929 . S
C275 C274 1.363 . S
C275 C276 1.385 . S
C276 H250 0.930 . S
C276 C275 1.385 . S
C276 C277 1.357 1_556 S
C277 C276 1.357 1_554 S
C277 C278 1.406 . S
C278 H252 0.929 . S
C278 C277 1.406 . S
C278 C279 1.391 1_554 S
C279 H251 0.931 . S
C279 C274 1.370 . S
C279 C278 1.391 1_556 S
C280 N249 1.435 . S
C280 C281 1.358 . S
C280 C285 1.371 . S
C281 H253 0.930 . S
C281 C280 1.358 . S
C281 C282 1.405 . S
C282 H254 0.932 . S
C282 C281 1.405 . S
C282 C283 1.383 . S
C283 C282 1.383 . S
C283 C284 1.393 . S
C284 H256 0.931 . S
C284 C283 1.393 . S
C284 C285 1.382 . S
C285 H255 0.929 . S
C285 C280 1.371 . S
C285 C284 1.382 . S
C286 N249 1.423 . S
C286 C287 1.362 . S
C286 C291 1.388 . S
C287 H257 0.929 . S
C287 C286 1.362 . S
C287 C288 1.376 . S
C288 H259 0.931 . S
C288 C287 1.376 . S
C288 C289 1.396 . S
C289 C288 1.396 . S
C289 C290 1.348 . S
C289 C307 1.472 1_545 S
C290 H260 0.929 . S
C290 C289 1.348 . S
C290 C291 1.443 . S
C291 H258 0.932 . S
C291 C286 1.388 . S
C291 C290 1.443 . S
C292 N272 1.433 . S
C292 C293 1.363 . S
C292 C297 1.370 . S
C293 H261 0.929 . S
C293 C292 1.363 . S
C293 C294 1.385 . S
C294 H262 0.930 . S
C294 C293 1.385 . S
C294 C295 1.357 . S
C295 C294 1.357 . S
C295 C296 1.406 . S
C296 H263 0.929 . S
C296 C295 1.406 . S
C296 C297 1.391 . S
C297 H264 0.931 . S
C297 C292 1.370 . S
C297 C296 1.391 . S
C298 N272 1.435 1_556 S
C298 C299 1.358 . S
C298 C303 1.371 . S
C299 H265 0.930 1_556 S
C299 C298 1.358 . S
C299 C300 1.405 . S
C300 H266 0.932 . S
C300 C299 1.405 . S
C300 C301 1.383 . S
C301 C300 1.383 . S
C301 C302 1.393 . S
C302 H267 0.931 . S
C302 C301 1.393 . S
C302 C303 1.382 . S
C303 H268 0.929 . S
C303 C298 1.371 . S
C303 C302 1.382 . S
C304 N272 1.423 1_556 S
C304 C305 1.362 1_556 S
C304 C309 1.388 . S
C305 H269 0.929 . S
C305 C304 1.362 1_554 S
C305 C306 1.376 1_554 S
C306 H270 0.921 1_566 S
C306 C305 1.376 1_556 S
C306 C307 1.396 . S
C307 C289 1.472 1_565 S
C307 C306 1.396 . S
C307 C308 1.348 . S
C308 H271 0.929 . S
C308 C307 1.348 . S
C308 C309 1.443 . S
C309 H273 0.932 . S
C309 C304 1.388 . S
C309 C308 1.443 . S
H310 C337 0.929 . S
N311 C336 1.433 . S
N311 C342 1.435 . S
N311 C348 1.423 . S
H312 C338 0.930 . S
H313 C341 0.931 . S
H314 C340 0.929 . S
H315 C343 0.930 . S
H316 C344 0.932 . S
H317 C347 0.929 . S
H318 C346 0.931 . S
H319 C349 0.929 . S
H320 C353 0.932 . S
H321 C350 0.931 . S
H322 C352 0.929 . S
H323 C355 0.929 . S
H324 C356 0.930 . S
H325 C358 0.929 . S
H326 C359 0.931 . S
H327 C361 0.930 . S
H328 C362 0.932 . S
H329 C364 0.931 . S
H330 C365 0.929 . S
H331 C367 0.929 . S
H332 C368 0.931 . S
H333 C370 0.929 . S
N334 C354 1.433 . S
N334 C360 1.435 . S
N334 C366 1.423 . S
H335 C371 0.932 . S
C336 N311 1.433 . S
C336 C337 1.363 . S
C336 C341 1.370 . S
C337 H310 0.929 . S
C337 C336 1.363 . S
C337 C338 1.385 . S
C338 H312 0.930 . S
C338 C337 1.385 . S
C338 C339 1.357 . S
C339 C338 1.357 . S
C339 C340 1.406 . S
C340 H314 0.929 . S
C340 C339 1.406 . S
C340 C341 1.391 . S
C341 H313 0.931 . S
C341 C336 1.370 . S
C341 C340 1.391 . S
C342 N311 1.435 . S
C342 C343 1.358 . S
C342 C347 1.371 . S
C343 H315 0.930 . S
C343 C342 1.358 . S
C343 C344 1.405 . S
C344 H316 0.932 . S
C344 C343 1.405 . S
C344 C345 1.383 . S
C345 C344 1.383 . S
C345 C346 1.393 . S
C346 H318 0.931 . S
C346 C345 1.393 . S
C346 C347 1.382 . S
C347 H317 0.929 . S
C347 C342 1.371 . S
C347 C346 1.382 . S
C348 N311 1.423 . S
C348 C349 1.362 . S
C348 C353 1.388 . S
C349 H319 0.929 . S
C349 C348 1.362 . S
C349 C350 1.376 . S
C350 H321 0.931 . S
C350 C349 1.376 . S
C350 C351 1.396 . S
C351 C350 1.396 . S
C351 C352 1.348 . S
C351 C369 1.472 . S
C352 H322 0.929 . S
C352 C351 1.348 . S
C352 C353 1.443 . S
C353 H320 0.932 . S
C353 C348 1.388 . S
C353 C352 1.443 . S
C354 N334 1.433 . S
C354 C355 1.363 . S
C354 C359 1.370 . S
C355 H323 0.929 . S
C355 C354 1.363 . S
C355 C356 1.385 . S
C356 H324 0.930 . S
C356 C355 1.385 . S
C356 C357 1.357 . S
C357 C356 1.357 . S
C357 C358 1.406 . S
C358 H325 0.929 . S
C358 C357 1.406 . S
C358 C359 1.391 . S
C359 H326 0.931 . S
C359 C354 1.370 . S
C359 C358 1.391 . S
C360 N334 1.435 . S
C360 C361 1.358 . S
C360 C365 1.371 . S
C361 H327 0.930 . S
C361 C360 1.358 . S
C361 C362 1.405 . S
C362 H328 0.932 . S
C362 C361 1.405 . S
C362 C363 1.383 . S
C363 C362 1.383 . S
C363 C364 1.393 . S
C364 H329 0.931 . S
C364 C363 1.393 . S
C364 C365 1.382 . S
C365 H330 0.929 . S
C365 C360 1.371 . S
C365 C364 1.382 . S
C366 N334 1.423 . S
C366 C367 1.362 . S
C366 C371 1.388 . S
C367 H331 0.929 . S
C367 C366 1.362 . S
C367 C368 1.376 . S
C368 H332 0.931 . S
C368 C367 1.376 . S
C368 C369 1.396 . S
C369 C351 1.472 . S
C369 C368 1.396 . S
C369 C370 1.348 . S
C370 H333 0.929 . S
C370 C369 1.348 . S
C370 C371 1.443 . S
C371 H335 0.932 . S
C371 C366 1.388 . S
C371 C370 1.443 . S
Mn372 O377 2.095 . S
Mn372 O387 2.162 . S
Mn372 O388 2.297 . S
Mn372 O396 2.385 . S
Mn372 O397 2.209 . S
Mn372 O398 2.094 . S
Mn373 O378 2.121 . S
Mn373 N380 2.257 . S
Mn373 N389 2.282 . S
Mn373 O397 2.215 . S
Mn373 O399 2.117 . S
C374 O396 1.234 . S
C374 O397 1.283 . S
C375 O387 1.281 . S
C375 O388 1.236 . S
C376 O398 1.240 . S
C376 O399 1.264 . S
O377 Mn372 2.095 . S
O377 C386 1.250 . S
O378 Mn373 2.121 . S
O378 C386 1.258 . S
C379 N380 1.326 . S
C379 C383 1.460 . S
C379 H385 0.929 . S
N380 Mn373 2.257 . S
N380 C379 1.326 . S
N380 C384 1.362 . S
C381 C382 1.258 . S
C381 C384 1.431 . S
C381 C401 1.449 . S
C382 C381 1.258 . S
C382 C383 1.477 . S
C382 H402 0.931 . S
C383 C379 1.460 . S
C383 C382 1.477 . S
C383 H403 0.930 . S
C384 N380 1.362 . S
C384 C381 1.431 . S
C384 C394 1.476 . S
H385 C379 0.929 . S
C386 O377 1.250 . S
C386 O378 1.258 . S
O387 Mn372 2.162 . S
O387 C375 1.281 . S
O388 Mn372 2.297 . S
O388 C375 1.236 . S
N389 Mn373 2.282 . S
N389 C390 1.328 . S
N389 C394 1.318 . S
C390 N389 1.328 . S
C390 C391 1.457 . S
C390 H395 0.929 . S
C391 C390 1.457 . S
C391 C392 1.291 . S
C391 H404 0.931 . S
C392 C391 1.291 . S
C392 C393 1.373 . S
C392 H405 0.929 . S
C393 C392 1.373 . S
C393 C394 1.396 . S
C393 C400 1.403 . S
C394 C384 1.476 . S
C394 N389 1.318 . S
C394 C393 1.396 . S
H395 C390 0.929 . S
O396 Mn372 2.385 . S
O396 C374 1.234 . S
O397 Mn372 2.209 . S
O397 Mn373 2.215 . S
O397 C374 1.283 . S
O398 Mn372 2.094 . S
O398 C376 1.240 . S
O399 Mn373 2.117 . S
O399 C376 1.264 . S
C400 C393 1.403 . S
C400 C401 1.399 . S
C400 H406 0.929 . S
C401 C381 1.449 . S
C401 C400 1.399 . S
C401 H407 0.930 . S
H402 C382 0.931 . S
H403 C383 0.930 . S
H404 C391 0.931 . S
H405 C392 0.929 . S
H406 C400 0.929 . S
H407 C401 0.930 . S
Mn408 O413 2.095 . S
Mn408 O423 2.162 . S
Mn408 O424 2.297 . S
Mn408 O432 2.385 . S
Mn408 O433 2.209 . S
Mn408 O434 2.094 . S
Mn409 O414 2.121 . S
Mn409 N416 2.257 . S
Mn409 N425 2.282 . S
Mn409 O433 2.215 . S
Mn409 O435 2.117 . S
C410 O432 1.234 . S
C410 O433 1.283 . S
C411 O423 1.281 . S
C411 O424 1.236 . S
C412 O434 1.240 . S
C412 O435 1.264 . S
O413 Mn408 2.095 . S
O413 C422 1.250 . S
O414 Mn409 2.121 . S
O414 C422 1.258 . S
C415 N416 1.326 . S
C415 C419 1.460 . S
C415 H421 0.929 . S
N416 Mn409 2.257 . S
N416 C415 1.326 . S
N416 C420 1.362 . S
C417 C418 1.258 . S
C417 C420 1.431 . S
C417 C437 1.449 . S
C418 C417 1.258 . S
C418 C419 1.477 . S
C418 H438 0.931 . S
C419 C415 1.460 . S
C419 C418 1.477 . S
C419 H439 0.930 . S
C420 N416 1.362 . S
C420 C417 1.431 . S
C420 C430 1.476 . S
H421 C415 0.929 . S
C422 O413 1.250 . S
C422 O414 1.258 . S
O423 Mn408 2.162 . S
O423 C411 1.281 . S
O424 Mn408 2.297 . S
O424 C411 1.236 . S
N425 Mn409 2.282 . S
N425 C426 1.328 . S
N425 C430 1.318 . S
C426 N425 1.328 . S
C426 C427 1.457 . S
C426 H431 0.929 . S
C427 C426 1.457 . S
C427 C428 1.291 . S
C427 H440 0.931 . S
C428 C427 1.291 . S
C428 C429 1.373 . S
C428 H441 0.929 . S
C429 C428 1.373 . S
C429 C430 1.396 . S
C429 C436 1.403 . S
C430 C420 1.476 . S
C430 N425 1.318 . S
C430 C429 1.396 . S
H431 C426 0.929 . S
O432 Mn408 2.385 . S
O432 C410 1.234 . S
O433 Mn408 2.209 . S
O433 Mn409 2.215 . S
O433 C410 1.283 . S
O434 Mn408 2.094 . S
O434 C412 1.240 . S
O435 Mn409 2.117 . S
O435 C412 1.264 . S
C436 C429 1.403 . S
C436 C437 1.399 . S
C436 H442 0.929 . S
C437 C417 1.449 . S
C437 C436 1.399 . S
C437 H443 0.930 . S
H438 C418 0.931 . S
H439 C419 0.930 . S
H440 C427 0.931 . S
H441 C428 0.929 . S
H442 C436 0.929 . S
H443 C437 0.930 . S
Mn444 O449 2.095 . S
Mn444 O459 2.162 . S
Mn444 O460 2.297 . S
Mn444 O468 2.385 . S
Mn444 O469 2.209 . S
Mn444 O470 2.094 . S
Mn445 O450 2.121 . S
Mn445 N452 2.257 . S
Mn445 N461 2.282 . S
Mn445 O469 2.215 . S
Mn445 O471 2.117 . S
C446 O468 1.234 . S
C446 O469 1.283 . S
C447 O459 1.281 . S
C447 O460 1.236 . S
C448 O470 1.240 . S
C448 O471 1.264 . S
O449 Mn444 2.095 . S
O449 C458 1.250 . S
O450 Mn445 2.121 . S
O450 C458 1.258 . S
C451 N452 1.326 . S
C451 C455 1.460 . S
C451 H457 0.929 . S
N452 Mn445 2.257 . S
N452 C451 1.326 . S
N452 C456 1.362 . S
C453 C454 1.258 . S
C453 C456 1.431 . S
C453 C473 1.449 . S
C454 C453 1.258 . S
C454 C455 1.477 . S
C454 H474 0.931 . S
C455 C451 1.460 . S
C455 C454 1.477 . S
C455 H475 0.930 . S
C456 N452 1.362 . S
C456 C453 1.431 . S
C456 C466 1.476 . S
H457 C451 0.929 . S
C458 O449 1.250 . S
C458 O450 1.258 . S
O459 Mn444 2.162 . S
O459 C447 1.281 . S
O460 Mn444 2.297 . S
O460 C447 1.236 . S
N461 Mn445 2.282 . S
N461 C462 1.328 . S
N461 C466 1.318 . S
C462 N461 1.328 . S
C462 C463 1.457 . S
C462 H467 0.929 . S
C463 C462 1.457 . S
C463 C464 1.291 . S
C463 H476 0.931 . S
C464 C463 1.291 . S
C464 C465 1.373 . S
C464 H477 0.929 . S
C465 C464 1.373 . S
C465 C466 1.396 . S
C465 C472 1.403 . S
C466 C456 1.476 . S
C466 N461 1.318 . S
C466 C465 1.396 . S
H467 C462 0.929 . S
O468 Mn444 2.385 . S
O468 C446 1.234 . S
O469 Mn444 2.209 . S
O469 Mn445 2.215 . S
O469 C446 1.283 . S
O470 Mn444 2.094 . S
O470 C448 1.240 . S
O471 Mn445 2.117 . S
O471 C448 1.264 . S
C472 C465 1.403 . S
C472 C473 1.399 . S
C472 H478 0.929 . S
C473 C453 1.449 . S
C473 C472 1.399 . S
C473 H479 0.930 . S
H474 C454 0.931 . S
H475 C455 0.930 . S
H476 C463 0.931 . S
H477 C464 0.929 . S
H478 C472 0.929 . S
H479 C473 0.930 . S
Mn480 O485 2.095 . S
Mn480 O495 2.162 . S
Mn480 O496 2.297 . S
Mn480 O504 2.385 . S
Mn480 O505 2.209 . S
Mn480 O506 2.094 . S
Mn481 O486 2.121 . S
Mn481 N488 2.257 . S
Mn481 N497 2.282 . S
Mn481 O505 2.215 . S
Mn481 O507 2.117 . S
C482 O504 1.234 . S
C482 O505 1.283 . S
C483 O495 1.281 . S
C483 O496 1.236 . S
C484 O506 1.240 . S
C484 O507 1.264 . S
O485 Mn480 2.095 . S
O485 C494 1.250 . S
O486 Mn481 2.121 . S
O486 C494 1.258 . S
C487 N488 1.326 . S
C487 C491 1.460 . S
C487 H493 0.929 . S
N488 Mn481 2.257 . S
N488 C487 1.326 . S
N488 C492 1.362 . S
C489 C490 1.258 . S
C489 C492 1.431 . S
C489 C509 1.449 . S
C490 C489 1.258 . S
C490 C491 1.477 . S
C490 H510 0.931 . S
C491 C487 1.460 . S
C491 C490 1.477 . S
C491 H511 0.930 . S
C492 N488 1.362 . S
C492 C489 1.431 . S
C492 C502 1.476 . S
H493 C487 0.929 . S
C494 O485 1.250 . S
C494 O486 1.258 . S
O495 Mn480 2.162 . S
O495 C483 1.281 . S
O496 Mn480 2.297 . S
O496 C483 1.236 . S
N497 Mn481 2.282 . S
N497 C498 1.328 . S
N497 C502 1.318 . S
C498 N497 1.328 . S
C498 C499 1.457 . S
C498 H503 0.929 . S
C499 C498 1.457 . S
C499 C500 1.291 . S
C499 H512 0.931 . S
C500 C499 1.291 . S
C500 C501 1.373 . S
C500 H513 0.929 . S
C501 C500 1.373 . S
C501 C502 1.396 . S
C501 C508 1.403 . S
C502 C492 1.476 . S
C502 N497 1.318 . S
C502 C501 1.396 . S
H503 C498 0.929 . S
O504 Mn480 2.385 . S
O504 C482 1.234 . S
O505 Mn480 2.209 . S
O505 Mn481 2.215 . S
O505 C482 1.283 . S
O506 Mn480 2.094 . S
O506 C484 1.240 . S
O507 Mn481 2.117 . S
O507 C484 1.264 . S
C508 C501 1.403 . S
C508 C509 1.399 . S
C508 H514 0.929 . S
C509 C489 1.449 . S
C509 C508 1.399 . S
C509 H515 0.930 . S
H510 C490 0.931 . S
H511 C491 0.930 . S
H512 C499 0.931 . S
H513 C500 0.929 . S
H514 C508 0.929 . S
H515 C509 0.930 . S
Mn516 O521 2.095 . S
Mn516 O531 2.162 . S
Mn516 O532 2.297 . S
Mn516 O540 2.385 . S
Mn516 O541 2.209 . S
Mn516 O542 2.094 . S
Mn517 O522 2.121 . S
Mn517 N524 2.257 . S
Mn517 N533 2.282 . S
Mn517 O541 2.215 . S
Mn517 O543 2.117 . S
C518 O540 1.234 . S
C518 O541 1.283 . S
C519 O531 1.281 . S
C519 O532 1.236 . S
C520 O542 1.240 . S
C520 O543 1.264 . S
O521 Mn516 2.095 . S
O521 C530 1.250 . S
O522 Mn517 2.121 . S
O522 C530 1.258 . S
C523 N524 1.326 . S
C523 C527 1.460 . S
C523 H529 0.929 . S
N524 Mn517 2.257 . S
N524 C523 1.326 . S
N524 C528 1.362 . S
C525 C526 1.258 . S
C525 C528 1.431 . S
C525 C545 1.449 . S
C526 C525 1.258 . S
C526 C527 1.477 . S
C526 H546 0.931 . S
C527 C523 1.460 . S
C527 C526 1.477 . S
C527 H547 0.930 . S
C528 N524 1.362 . S
C528 C525 1.431 . S
C528 C538 1.476 . S
H529 C523 0.929 . S
C530 O521 1.250 . S
C530 O522 1.258 . S
O531 Mn516 2.162 . S
O531 C519 1.281 . S
O532 Mn516 2.297 . S
O532 C519 1.236 . S
N533 Mn517 2.282 . S
N533 C534 1.328 . S
N533 C538 1.318 . S
C534 N533 1.328 . S
C534 C535 1.457 . S
C534 H539 0.929 . S
C535 C534 1.457 . S
C535 C536 1.291 . S
C535 H548 0.931 . S
C536 C535 1.291 . S
C536 C537 1.373 . S
C536 H549 0.929 . S
C537 C536 1.373 . S
C537 C538 1.396 . S
C537 C544 1.403 . S
C538 C528 1.476 . S
C538 N533 1.318 . S
C538 C537 1.396 . S
H539 C534 0.929 . S
O540 Mn516 2.385 . S
O540 C518 1.234 . S
O541 Mn516 2.209 . S
O541 Mn517 2.215 . S
O541 C518 1.283 . S
O542 Mn516 2.094 . S
O542 C520 1.240 . S
O543 Mn517 2.117 . S
O543 C520 1.264 . S
C544 C537 1.403 . S
C544 C545 1.399 . S
C544 H550 0.929 . S
C545 C525 1.449 . S
C545 C544 1.399 . S
C545 H551 0.930 . S
H546 C526 0.931 . S
H547 C527 0.930 . S
H548 C535 0.931 . S
H549 C536 0.929 . S
H550 C544 0.929 . S
H551 C545 0.930 . S
Mn552 O557 2.095 . S
Mn552 O567 2.162 . S
Mn552 O568 2.297 . S
Mn552 O576 2.385 . S
Mn552 O577 2.209 . S
Mn552 O578 2.094 . S
Mn553 O558 2.121 . S
Mn553 N560 2.257 . S
Mn553 N569 2.282 . S
Mn553 O577 2.215 . S
Mn553 O579 2.117 . S
C554 O576 1.234 . S
C554 O577 1.283 . S
C555 O567 1.281 . S
C555 O568 1.236 . S
C556 O578 1.240 . S
C556 O579 1.264 . S
O557 Mn552 2.095 . S
O557 C566 1.250 . S
O558 Mn553 2.121 . S
O558 C566 1.258 . S
C559 N560 1.326 . S
C559 C563 1.460 . S
C559 H565 0.929 . S
N560 Mn553 2.257 . S
N560 C559 1.326 . S
N560 C564 1.362 . S
C561 C562 1.258 . S
C561 C564 1.431 . S
C561 C581 1.449 . S
C562 C561 1.258 . S
C562 C563 1.477 . S
C562 H582 0.931 . S
C563 C559 1.460 . S
C563 C562 1.477 . S
C563 H583 0.930 . S
C564 N560 1.362 . S
C564 C561 1.431 . S
C564 C574 1.476 . S
H565 C559 0.929 . S
C566 O557 1.250 . S
C566 O558 1.258 . S
O567 Mn552 2.162 . S
O567 C555 1.281 . S
O568 Mn552 2.297 . S
O568 C555 1.236 . S
N569 Mn553 2.282 . S
N569 C570 1.328 . S
N569 C574 1.318 . S
C570 N569 1.328 . S
C570 C571 1.457 . S
C570 H575 0.929 . S
C571 C570 1.457 . S
C571 C572 1.291 . S
C571 H584 0.931 . S
C572 C571 1.291 . S
C572 C573 1.373 . S
C572 H585 0.929 . S
C573 C572 1.373 . S
C573 C574 1.396 . S
C573 C580 1.403 . S
C574 C564 1.476 . S
C574 N569 1.318 . S
C574 C573 1.396 . S
H575 C570 0.929 . S
O576 Mn552 2.385 . S
O576 C554 1.234 . S
O577 Mn552 2.209 . S
O577 Mn553 2.215 . S
O577 C554 1.283 . S
O578 Mn552 2.094 . S
O578 C556 1.240 . S
O579 Mn553 2.117 . S
O579 C556 1.264 . S
C580 C573 1.403 . S
C580 C581 1.399 . S
C580 H586 0.929 . S
C581 C561 1.449 . S
C581 C580 1.399 . S
C581 H587 0.930 . S
H582 C562 0.931 . S
H583 C563 0.930 . S
H584 C571 0.931 . S
H585 C572 0.929 . S
H586 C580 0.929 . S
H587 C581 0.930 . S
H588 C594 0.930 . S
H589 C597 0.930 . S
H590 C598 0.930 . S
H591 C599 0.930 . S
H592 C602 0.930 . S
H593 C603 0.930 . S
C594 H588 0.930 . S
C594 C595 1.355 . S
C594 C596 1.415 . S
C595 C594 1.355 . S
C595 C597 1.419 . S
C596 C594 1.415 . S
C596 C601 1.425 . S
C596 C603 1.409 . S
C597 H589 0.930 . S
C597 C595 1.419 . S
C597 C598 1.362 . S
C598 H590 0.930 . S
C598 C597 1.362 . S
C598 C601 1.409 . S
C599 H591 0.930 . S
C599 C600 1.355 . S
C599 C601 1.415 . S
C600 C599 1.355 . S
C600 C602 1.419 . S
C601 C596 1.425 . S
C601 C598 1.409 . S
C601 C599 1.415 . S
C602 H592 0.930 . S
C602 C600 1.419 . S
C602 C603 1.362 . S
C603 H593 0.930 . S
C603 C596 1.409 . S
C603 C602 1.362 . S
H604 C610 0.930 . S
H605 C613 0.930 . S
H606 C614 0.930 . S
H607 C615 0.930 . S
H608 C618 0.930 . S
H609 C619 0.930 . S
C610 H604 0.930 . S
C610 C611 1.355 . S
C610 C612 1.415 . S
C611 C610 1.355 . S
C611 C613 1.419 . S
C612 C610 1.415 . S
C612 C617 1.425 . S
C612 C619 1.409 . S
C613 H605 0.930 . S
C613 C611 1.419 . S
C613 C614 1.362 . S
C614 H606 0.930 . S
C614 C613 1.362 . S
C614 C617 1.409 . S
C615 H607 0.930 . S
C615 C616 1.355 . S
C615 C617 1.415 . S
C616 C615 1.355 . S
C616 C618 1.419 . S
C617 C612 1.425 . S
C617 C614 1.409 . S
C617 C615 1.415 . S
C618 H608 0.930 . S
C618 C616 1.419 . S
C618 C619 1.362 . S
C619 H609 0.930 . S
C619 C612 1.409 . S
C619 C618 1.362 . S
H620 C626 0.930 . S
H621 C629 0.930 . S
H622 C630 0.930 . S
H623 C631 0.930 . S
H624 C634 0.930 . S
H625 C635 0.930 . S
C626 H620 0.930 . S
C626 C627 1.355 . S
C626 C628 1.415 . S
C627 C626 1.355 . S
C627 C629 1.419 . S
C628 C626 1.415 . S
C628 C633 1.425 . S
C628 C635 1.409 . S
C629 H621 0.930 . S
C629 C627 1.419 . S
C629 C630 1.362 . S
C630 H622 0.930 . S
C630 C629 1.362 . S
C630 C633 1.409 . S
C631 H623 0.930 . S
C631 C632 1.355 . S
C631 C633 1.415 . S
C632 C631 1.355 . S
C632 C634 1.419 . S
C633 C628 1.425 . S
C633 C630 1.409 . S
C633 C631 1.415 . S
C634 H624 0.930 . S
C634 C632 1.419 . S
C634 C635 1.362 . S
C635 H625 0.930 . S
C635 C628 1.409 . S
C635 C634 1.362 . S
H636 C642 0.930 . S
H637 C645 0.930 . S
H638 C646 0.930 . S
H639 C647 0.930 . S
H640 C650 0.930 . S
H641 C651 0.930 . S
C642 H636 0.930 . S
C642 C643 1.355 . S
C642 C644 1.415 . S
C643 C642 1.355 . S
C643 C645 1.419 . S
C644 C642 1.415 . S
C644 C649 1.425 . S
C644 C651 1.409 . S
C645 H637 0.930 . S
C645 C643 1.419 . S
C645 C646 1.362 . S
C646 H638 0.930 . S
C646 C645 1.362 . S
C646 C649 1.409 . S
C647 H639 0.930 . S
C647 C648 1.355 . S
C647 C649 1.415 . S
C648 C647 1.355 . S
C648 C650 1.419 . S
C649 C644 1.425 . S
C649 C646 1.409 . S
C649 C647 1.415 . S
C650 H640 0.930 . S
C650 C648 1.419 . S
C650 C651 1.362 . S
C651 H641 0.930 . S
C651 C644 1.409 . S
C651 C650 1.362 . S
H652 C658 0.930 . S
H653 C661 0.930 . S
H654 C662 0.930 . S
H655 C663 0.930 . S
H656 C666 0.930 . S
H657 C667 0.930 . S
C658 H652 0.930 . S
C658 C659 1.355 . S
C658 C660 1.415 . S
C659 C658 1.355 . S
C659 C661 1.419 . S
C660 C658 1.415 . S
C660 C665 1.425 . S
C660 C667 1.409 . S
C661 H653 0.930 . S
C661 C659 1.419 . S
C661 C662 1.362 . S
C662 H654 0.930 . S
C662 C661 1.362 . S
C662 C665 1.409 . S
C663 H655 0.930 . S
C663 C664 1.355 . S
C663 C665 1.415 . S
C664 C663 1.355 . S
C664 C666 1.419 . S
C665 C660 1.425 . S
C665 C662 1.409 . S
C665 C663 1.415 . S
C666 H656 0.930 . S
C666 C664 1.419 . S
C666 C667 1.362 . S
C667 H657 0.930 . S
C667 C660 1.409 . S
C667 C666 1.362 . S
H668 C674 0.930 . S
H669 C677 0.930 . S
H670 C678 0.930 . S
H671 C679 0.930 . S
H672 C682 0.930 . S
H673 C683 0.930 . S
C674 H668 0.930 . S
C674 C675 1.355 . S
C674 C676 1.415 . S
C675 C674 1.355 . S
C675 C677 1.419 . S
C676 C674 1.415 . S
C676 C681 1.425 . S
C676 C683 1.409 . S
C677 H669 0.930 . S
C677 C675 1.419 . S
C677 C678 1.362 . S
C678 H670 0.930 . S
C678 C677 1.362 . S
C678 C681 1.409 . S
C679 H671 0.930 . S
C679 C680 1.355 . S
C679 C681 1.415 . S
C680 C679 1.355 . S
C680 C682 1.419 . S
C681 C676 1.425 . S
C681 C678 1.409 . S
C681 C679 1.415 . S
C682 H672 0.930 . S
C682 C680 1.419 . S
C682 C683 1.362 . S
C683 H673 0.930 . S
C683 C676 1.409 . S
C683 C682 1.362 . S
H684 C690 0.930 . S
H685 C693 0.930 . S
H686 C694 0.930 . S
H687 C695 0.930 . S
H688 C698 0.930 . S
H689 C699 0.930 . S
C690 H684 0.930 . S
C690 C691 1.355 . S
C690 C692 1.415 . S
C691 C690 1.355 . S
C691 C693 1.419 . S
C692 C690 1.415 . S
C692 C697 1.425 . S
C692 C699 1.409 . S
C693 H685 0.930 . S
C693 C691 1.419 . S
C693 C694 1.362 . S
C694 H686 0.930 . S
C694 C693 1.362 . S
C694 C697 1.409 . S
C695 H687 0.930 . S
C695 C696 1.355 . S
C695 C697 1.415 . S
C696 C695 1.355 . S
C696 C698 1.419 . S
C697 C692 1.425 . S
C697 C694 1.409 . S
C697 C695 1.415 . S
C698 H688 0.930 . S
C698 C696 1.419 . S
C698 C699 1.362 . S
C699 H689 0.930 . S
C699 C692 1.409 . S
C699 C698 1.362 . S
H700 C706 0.930 . S
H701 C709 0.930 . S
H702 C710 0.930 . S
H703 C711 0.930 . S
H704 C714 0.930 . S
H705 C715 0.930 . S
C706 H700 0.930 . S
C706 C707 1.355 . S
C706 C708 1.415 . S
C707 C706 1.355 . S
C707 C709 1.419 . S
C708 C706 1.415 . S
C708 C713 1.425 . S
C708 C715 1.409 . S
C709 H701 0.930 . S
C709 C707 1.419 . S
C709 C710 1.362 . S
C710 H702 0.930 . S
C710 C709 1.362 . S
C710 C713 1.409 . S
C711 H703 0.930 . S
C711 C712 1.355 . S
C711 C713 1.415 . S
C712 C711 1.355 . S
C712 C714 1.419 . S
C713 C708 1.425 . S
C713 C710 1.409 . S
C713 C711 1.415 . S
C714 H704 0.930 . S
C714 C712 1.419 . S
C714 C715 1.362 . S
C715 H705 0.930 . S
C715 C708 1.409 . S
C715 C714 1.362 . S
H716 C722 0.930 . S
H717 C725 0.930 . S
H718 C726 0.930 . S
H719 C727 0.930 . S
H720 C730 0.930 . S
H721 C731 0.930 . S
C722 H716 0.930 . S
C722 C723 1.355 . S
C722 C724 1.415 . S
C723 C722 1.355 . S
C723 C725 1.419 . S
C724 C722 1.415 . S
C724 C729 1.425 . S
C724 C731 1.409 . S
C725 H717 0.930 . S
C725 C723 1.419 . S
C725 C726 1.362 . S
C726 H718 0.930 . S
C726 C725 1.362 . S
C726 C729 1.409 . S
C727 H719 0.930 . S
C727 C728 1.355 . S
C727 C729 1.415 . S
C728 C727 1.355 . S
C728 C730 1.419 . S
C729 C724 1.425 . S
C729 C726 1.409 . S
C729 C727 1.415 . S
C730 H720 0.930 . S
C730 C728 1.419 . S
C730 C731 1.362 . S
C731 H721 0.930 . S
C731 C724 1.409 . S
C731 C730 1.362 . S
H732 C738 0.930 . S
H733 C741 0.930 . S
H734 C742 0.930 . S
H735 C743 0.930 . S
H736 C746 0.930 . S
H737 C747 0.930 . S
C738 H732 0.930 . S
C738 C739 1.355 . S
C738 C740 1.415 . S
C739 C738 1.355 . S
C739 C741 1.419 . S
C740 C738 1.415 . S
C740 C745 1.425 . S
C740 C747 1.409 . S
C741 H733 0.930 . S
C741 C739 1.419 . S
C741 C742 1.362 . S
C742 H734 0.930 . S
C742 C741 1.362 . S
C742 C745 1.409 . S
C743 H735 0.930 . S
C743 C744 1.355 . S
C743 C745 1.415 . S
C744 C743 1.355 . S
C744 C746 1.419 . S
C745 C740 1.425 . S
C745 C742 1.409 . S
C745 C743 1.415 . S
C746 H736 0.930 . S
C746 C744 1.419 . S
C746 C747 1.362 . S
C747 H737 0.930 . S
C747 C740 1.409 . S
C747 C746 1.362 . S
H748 C754 0.930 . S
H749 C757 0.930 . S
H750 C758 0.930 . S
H751 C759 0.930 . S
H752 C762 0.930 . S
H753 C763 0.930 . S
C754 H748 0.930 . S
C754 C755 1.355 . S
C754 C756 1.415 . S
C755 C754 1.355 . S
C755 C757 1.419 . S
C756 C754 1.415 . S
C756 C761 1.425 . S
C756 C763 1.409 . S
C757 H749 0.930 . S
C757 C755 1.419 . S
C757 C758 1.362 . S
C758 H750 0.930 . S
C758 C757 1.362 . S
C758 C761 1.409 . S
C759 H751 0.930 . S
C759 C760 1.355 . S
C759 C761 1.415 . S
C760 C759 1.355 . S
C760 C762 1.419 . S
C761 C756 1.425 . S
C761 C758 1.409 . S
C761 C759 1.415 . S
C762 H752 0.930 . S
C762 C760 1.419 . S
C762 C763 1.362 . S
C763 H753 0.930 . S
C763 C756 1.409 . S
C763 C762 1.362 . S
H764 C770 0.930 . S
H765 C773 0.930 . S
H766 C774 0.930 . S
H767 C775 0.930 . S
H768 C778 0.930 . S
H769 C779 0.930 . S
C770 H764 0.930 . S
C770 C771 1.355 . S
C770 C772 1.415 . S
C771 C770 1.355 . S
C771 C773 1.419 . S
C772 C770 1.415 . S
C772 C777 1.425 . S
C772 C779 1.409 . S
C773 H765 0.930 . S
C773 C771 1.419 . S
C773 C774 1.362 . S
C774 H766 0.930 . S
C774 C773 1.362 . S
C774 C777 1.409 . S
C775 H767 0.930 . S
C775 C776 1.355 . S
C775 C777 1.415 . S
C776 C775 1.355 . S
C776 C778 1.419 . S
C777 C772 1.425 . S
C777 C774 1.409 . S
C777 C775 1.415 . S
C778 H768 0.930 . S
C778 C776 1.419 . S
C778 C779 1.362 . S
C779 H769 0.930 . S
C779 C772 1.409 . S
C779 C778 1.362 . S
H780 C786 0.930 . S
H781 C789 0.930 . S
H782 C790 0.930 . S
H783 C791 0.930 . S
H784 C794 0.930 . S
H785 C795 0.930 . S
C786 H780 0.930 . S
C786 C787 1.355 . S
C786 C788 1.415 . S
C787 C786 1.355 . S
C787 C789 1.419 . S
C788 C786 1.415 . S
C788 C793 1.425 . S
C788 C795 1.409 . S
C789 H781 0.930 . S
C789 C787 1.419 . S
C789 C790 1.362 . S
C790 H782 0.930 . S
C790 C789 1.362 . S
C790 C793 1.409 . S
C791 H783 0.930 . S
C791 C792 1.355 . S
C791 C793 1.415 . S
C792 C791 1.355 . S
C792 C794 1.419 . S
C793 C788 1.425 . S
C793 C790 1.409 . S
C793 C791 1.415 . S
C794 H784 0.930 . S
C794 C792 1.419 . S
C794 C795 1.362 . S
C795 H785 0.930 . S
C795 C788 1.409 . S
C795 C794 1.362 . S
H796 C802 0.930 . S
H797 C805 0.930 . S
H798 C806 0.930 . S
H799 C807 0.930 . S
H800 C810 0.930 . S
H801 C811 0.930 . S
C802 H796 0.930 . S
C802 C803 1.355 . S
C802 C804 1.415 . S
C803 C802 1.355 . S
C803 C805 1.419 . S
C804 C802 1.415 . S
C804 C809 1.425 . S
C804 C811 1.409 . S
C805 H797 0.930 . S
C805 C803 1.419 . S
C805 C806 1.362 . S
C806 H798 0.930 . S
C806 C805 1.362 . S
C806 C809 1.409 . S
C807 H799 0.930 . S
C807 C808 1.355 . S
C807 C809 1.415 . S
C808 C807 1.355 . S
C808 C810 1.419 . S
C809 C804 1.425 . S
C809 C806 1.409 . S
C809 C807 1.415 . S
C810 H800 0.930 . S
C810 C808 1.419 . S
C810 C811 1.362 . S
C811 H801 0.930 . S
C811 C804 1.409 . S
C811 C810 1.362 . S
H812 C818 0.930 . S
H813 C821 0.930 . S
H814 C822 0.930 . S
H815 C823 0.930 . S
H816 C826 0.930 . S
H817 C827 0.930 . S
C818 H812 0.930 . S
C818 C819 1.355 . S
C818 C820 1.415 . S
C819 C818 1.355 . S
C819 C821 1.419 . S
C820 C818 1.415 . S
C820 C825 1.425 . S
C820 C827 1.409 . S
C821 H813 0.930 . S
C821 C819 1.419 . S
C821 C822 1.362 . S
C822 H814 0.930 . S
C822 C821 1.362 . S
C822 C825 1.409 . S
C823 H815 0.930 . S
C823 C824 1.355 . S
C823 C825 1.415 . S
C824 C823 1.355 . S
C824 C826 1.419 . S
C825 C820 1.425 . S
C825 C822 1.409 . S
C825 C823 1.415 . S
C826 H816 0.930 . S
C826 C824 1.419 . S
C826 C827 1.362 . S
C827 H817 0.930 . S
C827 C820 1.409 . S
C827 C826 1.362 . S
H828 C834 0.930 . S
H829 C837 0.930 . S
H830 C838 0.930 . S
H831 C839 0.897 1_554 S
H832 C842 0.930 . S
H833 C843 0.930 . S
C834 H828 0.930 . S
C834 C835 1.355 . S
C834 C836 1.415 . S
C835 C834 1.355 . S
C835 C837 1.419 . S
C836 C834 1.415 . S
C836 C841 1.425 . S
C836 C843 1.409 . S
C837 H829 0.930 . S
C837 C835 1.419 . S
C837 C838 1.362 . S
C838 H830 0.930 . S
C838 C837 1.362 . S
C838 C841 1.409 . S
C839 H831 0.897 1_556 S
C839 C840 1.357 . S
C839 C841 1.445 . S
C840 C839 1.357 . S
C840 C842 1.419 . S
C841 C836 1.425 . S
C841 C838 1.409 . S
C841 C839 1.445 . S
C842 H832 0.930 . S
C842 C840 1.419 . S
C842 C843 1.362 . S
C843 H833 0.930 . S
C843 C836 1.409 . S
C843 C842 1.362 . S
H844 C850 0.930 . S
H845 C853 0.930 . S
H846 C854 0.930 . S
H847 C855 0.930 . S
H848 C858 0.930 . S
H849 C859 0.930 . S
C850 H844 0.930 . S
C850 C851 1.355 . S
C850 C852 1.415 . S
C851 C850 1.355 . S
C851 C853 1.419 . S
C852 C850 1.415 . S
C852 C857 1.425 . S
C852 C859 1.409 . S
C853 H845 0.930 . S
C853 C851 1.419 . S
C853 C854 1.362 . S
C854 H846 0.930 . S
C854 C853 1.362 . S
C854 C857 1.409 . S
C855 H847 0.930 . S
C855 C856 1.355 . S
C855 C857 1.415 . S
C856 C855 1.355 . S
C856 C858 1.419 . S
C857 C852 1.425 . S
C857 C854 1.409 . S
C857 C855 1.415 . S
C858 H848 0.930 . S
C858 C856 1.419 . S
C858 C859 1.362 . S
C859 H849 0.930 . S
C859 C852 1.409 . S
C859 C858 1.362 . S
H860 C866 0.930 . S
H861 C869 0.930 . S
H862 C870 0.930 . S
H863 C871 0.930 . S
H864 C874 0.930 . S
H865 C875 0.930 . S
C866 H860 0.930 . S
C866 C867 1.355 . S
C866 C868 1.415 . S
C867 C866 1.355 . S
C867 C869 1.419 . S
C868 C866 1.415 . S
C868 C873 1.425 . S
C868 C875 1.409 . S
C869 H861 0.930 . S
C869 C867 1.419 . S
C869 C870 1.362 . S
C870 H862 0.930 . S
C870 C869 1.362 . S
C870 C873 1.409 . S
C871 H863 0.930 . S
C871 C872 1.355 . S
C871 C873 1.415 . S
C872 C871 1.355 . S
C872 C874 1.419 . S
C873 C868 1.425 . S
C873 C870 1.409 . S
C873 C871 1.415 . S
C874 H864 0.930 . S
C874 C872 1.419 . S
C874 C875 1.362 . S
C875 H865 0.930 . S
C875 C868 1.409 . S
C875 C874 1.362 . S
H876 C882 0.930 . S
H877 C885 0.930 . S
H878 C886 0.930 . S
H879 C887 0.930 . S
H880 C890 0.930 . S
H881 C891 0.930 . S
C882 H876 0.930 . S
C882 C883 1.355 . S
C882 C884 1.415 . S
C883 C882 1.355 . S
C883 C885 1.419 . S
C884 C882 1.415 . S
C884 C889 1.425 . S
C884 C891 1.409 . S
C885 H877 0.930 . S
C885 C883 1.419 . S
C885 C886 1.362 . S
C886 H878 0.930 . S
C886 C885 1.362 . S
C886 C889 1.409 . S
C887 H879 0.930 . S
C887 C888 1.355 . S
C887 C889 1.415 . S
C888 C887 1.355 . S
C888 C890 1.419 . S
C889 C884 1.425 . S
C889 C886 1.409 . S
C889 C887 1.415 . S
C890 H880 0.930 . S
C890 C888 1.419 . S
C890 C891 1.362 . S
C891 H881 0.930 . S
C891 C884 1.409 . S
C891 C890 1.362 . S
H892 C898 0.930 . S
H893 C901 0.930 . S
H894 C902 0.930 . S
H895 C903 0.930 . S
H896 C906 0.930 . S
H897 C907 0.930 . S
C898 H892 0.930 . S
C898 C899 1.355 . S
C898 C900 1.415 . S
C899 C898 1.355 . S
C899 C901 1.419 . S
C900 C898 1.415 . S
C900 C905 1.425 . S
C900 C907 1.409 . S
C901 H893 0.930 . S
C901 C899 1.419 . S
C901 C902 1.362 . S
C902 H894 0.930 . S
C902 C901 1.362 . S
C902 C905 1.409 . S
C903 H895 0.930 . S
C903 C904 1.355 . S
C903 C905 1.415 . S
C904 C903 1.355 . S
C904 C906 1.419 . S
C905 C900 1.425 . S
C905 C902 1.409 . S
C905 C903 1.415 . S
C906 H896 0.930 . S
C906 C904 1.419 . S
C906 C907 1.362 . S
C907 H897 0.930 . S
C907 C900 1.409 . S
C907 C906 1.362 . S
H908 C914 0.930 . S
H909 C917 0.930 . S
H910 C918 0.930 . S
H911 C919 0.930 . S
H912 C922 0.930 . S
H913 C923 0.930 . S
C914 H908 0.930 . S
C914 C915 1.355 . S
C914 C916 1.415 . S
C915 C914 1.355 . S
C915 C917 1.419 . S
C916 C914 1.415 . S
C916 C921 1.425 . S
C916 C923 1.409 . S
C917 H909 0.930 . S
C917 C915 1.419 . S
C917 C918 1.362 . S
C918 H910 0.930 . S
C918 C917 1.362 . S
C918 C921 1.409 . S
C919 H911 0.930 . S
C919 C920 1.355 . S
C919 C921 1.415 . S
C920 C919 1.355 . S
C920 C922 1.419 . S
C921 C916 1.425 . S
C921 C918 1.409 . S
C921 C919 1.415 . S
C922 H912 0.930 . S
C922 C920 1.419 . S
C922 C923 1.362 . S
C923 H913 0.930 . S
C923 C916 1.409 . S
C923 C922 1.362 . S
H924 C930 0.930 . S
H925 C933 0.930 . S
H926 C934 0.930 . S
H927 C935 0.930 . S
H928 C938 0.930 . S
H929 C939 0.930 . S
C930 H924 0.930 . S
C930 C931 1.355 . S
C930 C932 1.415 . S
C931 C930 1.355 . S
C931 C933 1.419 . S
C932 C930 1.415 . S
C932 C937 1.425 . S
C932 C939 1.409 . S
C933 H925 0.930 . S
C933 C931 1.419 . S
C933 C934 1.362 . S
C934 H926 0.930 . S
C934 C933 1.362 . S
C934 C937 1.409 . S
C935 H927 0.930 . S
C935 C936 1.355 . S
C935 C937 1.415 . S
C936 C935 1.355 . S
C936 C938 1.419 . S
C937 C932 1.425 . S
C937 C934 1.409 . S
C937 C935 1.415 . S
C938 H928 0.930 . S
C938 C936 1.419 . S
C938 C939 1.362 . S
C939 H929 0.930 . S
C939 C932 1.409 . S
C939 C938 1.362 . S
H940 C946 0.935 . S
H941 C949 0.930 . S
H942 C950 0.930 . S
H943 C951 0.930 . S
H944 C954 0.930 . S
H945 C955 0.930 . S
C946 H940 0.935 . S
C946 C947 1.333 1_556 S
C946 C948 1.432 . S
C947 C946 1.333 1_554 S
C947 C949 1.419 . S
C948 C946 1.432 . S
C948 C953 1.425 . S
C948 C955 1.409 . S
C949 H941 0.930 . S
C949 C947 1.419 . S
C949 C950 1.362 . S
C950 H942 0.930 . S
C950 C949 1.362 . S
C950 C953 1.409 1_554 S
C951 H943 0.930 . S
C951 C952 1.355 . S
C951 C953 1.415 . S
C952 C951 1.355 . S
C952 C954 1.419 . S
C953 C948 1.425 . S
C953 C950 1.409 1_556 S
C953 C951 1.415 . S
C954 H944 0.930 . S
C954 C952 1.419 . S
C954 C955 1.362 . S
C955 H945 0.930 . S
C955 C948 1.409 . S
C955 C954 1.362 . S
H956 C962 0.930 . S
H957 C965 0.930 . S
H958 C966 0.930 . S
H959 C967 0.930 . S
H960 C970 0.930 . S
H961 C971 0.930 . S
C962 H956 0.930 . S
C962 C963 1.355 . S
C962 C964 1.415 . S
C963 C962 1.355 . S
C963 C965 1.419 . S
C964 C962 1.415 . S
C964 C969 1.425 . S
C964 C971 1.409 . S
C965 H957 0.930 . S
C965 C963 1.419 . S
C965 C966 1.362 . S
C966 H958 0.930 . S
C966 C965 1.362 . S
C966 C969 1.409 . S
C967 H959 0.930 . S
C967 C968 1.355 . S
C967 C969 1.415 . S
C968 C967 1.355 . S
C968 C970 1.419 . S
C969 C964 1.425 . S
C969 C966 1.409 . S
C969 C967 1.415 . S
C970 H960 0.930 . S
C970 C968 1.419 . S
C970 C971 1.362 . S
C971 H961 0.930 . S
C971 C964 1.409 . S
C971 C970 1.362 . S
C600 C555 1.686 . S
C595 C29 1.584 . S
C611 C115 1.620 . S
C616 C375 1.620 . S
C627 C153 1.601 . S
C632 C422 1.671 . S
C643 C239 1.488 . S
C648 C458 1.533 . S
C664 C483 1.607 . S
C659 C301 1.600 . S
C675 C339 1.778 . S
C680 C519 1.901 . S
C691 C91 1.590 . S
C696 C411 1.715 . S
C707 C177 1.550 . S
C712 C447 1.553 . S
C723 C215 1.474 . S
C728 C494 1.596 . S
C744 C530 1.907 . S
C739 C277 1.755 . S
C760 C566 1.576 . S
C755 C363 1.613 . S
C776 C386 1.543 . S
C771 C53 1.586 . S
C787 C35 1.505 . S
C792 C410 1.525 . S
C803 C109 1.357 . S
C808 C446 1.490 . S
C824 C484 1.471 . S
C819 C159 1.473 . S
C835 C233 1.628 . S
C840 C520 1.716 1_556 S
C856 C556 1.500 . S
C851 C295 1.365 . S
C872 C376 1.339 . S
C867 C345 1.328 . S
C888 C554 1.442 . S
C883 C97 1.448 . S
C899 C171 1.433 . S
C904 C374 1.501 . S
C920 C412 1.542 . S
C915 C221 1.511 . S
C931 C283 1.407 . S
C936 C448 1.424 . S
C947 C357 1.431 . S
C952 C482 1.558 . S
C963 C47 1.618 . S
C968 C518 1.721 . S
