# Generated by pormake.
# Topology anh, (6,3)-cn, num edge types: 1
# Building blocks:
#     Node 0, Type 0, BuildingBlock: BETDAH_clean_sbu_0, # of connection points: 6
#     Node 1, Type 0, BuildingBlock: BETDAH_clean_sbu_0, # of connection points: 6
#     Node 2, Type 0, BuildingBlock: BETDAH_clean_sbu_0, # of connection points: 6
#     Node 3, Type 1, BuildingBlock: BETDAH_clean_linker_0, # of connection points: 3
#     Node 4, Type 1, BuildingBlock: BETDAH_clean_linker_0, # of connection points: 3
#     Node 5, Type 1, BuildingBlock: BETDAH_clean_linker_0, # of connection points: 3
#     Node 6, Type 1, BuildingBlock: BETDAH_clean_linker_0, # of connection points: 3
#     Node 7, Type 1, BuildingBlock: BETDAH_clean_linker_0, # of connection points: 3
#     Node 8, Type 1, BuildingBlock: BETDAH_clean_linker_0, # of connection points: 3
#     Edge 9, Type (0, 1), BuildingBlock: OJICUG_clean_linker_0, # of connection points: 2
#     Edge 10, Type (0, 1), BuildingBlock: OJICUG_clean_linker_0, # of connection points: 2
#     Edge 11, Type (0, 1), BuildingBlock: OJICUG_clean_linker_0, # of connection points: 2
#     Edge 12, Type (0, 1), BuildingBlock: OJICUG_clean_linker_0, # of connection points: 2
#     Edge 13, Type (0, 1), BuildingBlock: OJICUG_clean_linker_0, # of connection points: 2
#     Edge 14, Type (0, 1), BuildingBlock: OJICUG_clean_linker_0, # of connection points: 2
#     Edge 15, Type (0, 1), BuildingBlock: OJICUG_clean_linker_0, # of connection points: 2
#     Edge 16, Type (0, 1), BuildingBlock: OJICUG_clean_linker_0, # of connection points: 2
#     Edge 17, Type (0, 1), BuildingBlock: OJICUG_clean_linker_0, # of connection points: 2
#     Edge 18, Type (0, 1), BuildingBlock: OJICUG_clean_linker_0, # of connection points: 2
#     Edge 19, Type (0, 1), BuildingBlock: OJICUG_clean_linker_0, # of connection points: 2
#     Edge 20, Type (0, 1), BuildingBlock: OJICUG_clean_linker_0, # of connection points: 2
#     Edge 21, Type (0, 1), BuildingBlock: OJICUG_clean_linker_0, # of connection points: 2
#     Edge 22, Type (0, 1), BuildingBlock: OJICUG_clean_linker_0, # of connection points: 2
#     Edge 23, Type (0, 1), BuildingBlock: OJICUG_clean_linker_0, # of connection points: 2
#     Edge 24, Type (0, 1), BuildingBlock: OJICUG_clean_linker_0, # of connection points: 2
#     Edge 25, Type (0, 1), BuildingBlock: OJICUG_clean_linker_0, # of connection points: 2
#     Edge 26, Type (0, 1), BuildingBlock: OJICUG_clean_linker_0, # of connection points: 2
# Relax obj value: 0.213
# Max RMSD: 0.217
# Mean RMSD: 0.121
data_MOF--net-anh--node1-BETDAH_clean_sbu_0--node2-BETDAH_clean_linker_0--edge1-OJICUG_clean_linker_0
_symmetry_space_group_name_H-M    P1
_symmetry_Int_Tables_number       1
_symmetry_cell_setting            triclinic
loop_
_symmetry_equiv_pos_as_xyz
'x, y, z'
_cell_length_a     22.028092
_cell_length_b     29.843825
_cell_length_c     35.403572
_cell_angle_alpha  93.618974
_cell_angle_beta   87.992492
_cell_angle_gamma 133.37909
loop_
_atom_site_label
_atom_site_type_symbol
_atom_site_fract_x
_atom_site_fract_y
_atom_site_fract_z
_atom_type_partial_charge
Ho0 Ho 0.27209 0.59884 0.15227 0.0
Ho1 Ho 0.14882 0.60635 0.18509 0.0
C2 C 0.34053 0.73407 0.17339 0.0
C3 C 0.36487 0.59265 0.11098 0.0
C4 C 0.35842 0.54087 0.10239 0.0
C5 C 0.41865 0.54866 0.08022 0.0
C6 C 0.41001 0.49828 0.07099 0.0
C7 C 0.34054 0.43944 0.08354 0.0
C8 C 0.28023 0.43188 0.10565 0.0
C9 C 0.28948 0.48236 0.11523 0.0
C10 C 0.24922 0.58805 0.22797 0.0
C11 C 1.088 0.47434 0.17148 0.0
C12 C 1.05007 0.61085 0.22104 0.0
C13 C 0.9581 0.56201 0.21913 0.0
C14 C 0.91759 0.50017 0.22319 0.0
C15 C 0.83794 0.45206 0.20791 0.0
C16 C 0.79722 0.46495 0.18874 0.0
C17 C 0.83304 0.52618 0.18909 0.0
C18 C 0.91321 0.57449 0.20413 0.0
C19 C 1.13355 0.57733 0.10958 0.0
O20 O 0.35666 0.70218 0.15676 0.0
O21 O 0.26628 0.70725 0.18741 0.0
O22 O 0.30327 0.58454 0.09735 0.0
O23 O 0.38372 0.61485 0.14615 0.0
O24 O 0.26204 0.55801 0.20697 0.0
O25 O 0.25383 0.62362 0.20815 0.0
O26 O 1.08304 0.50826 0.19452 0.0
O27 O 0.14956 0.5 0.14709 0.0
O28 O 1.08566 0.63851 0.18932 0.0
O29 O 1.08703 0.59633 0.23707 0.0
O30 O 1.07108 0.55374 0.13183 0.0
O31 O 0.20054 0.61673 0.12819 0.0
H32 H 0.47191 0.59347 0.06993 0.0
H33 H 0.45712 0.50511 0.0537 0.0
H34 H 0.22676 0.38723 0.11604 0.0
H35 H 0.24265 0.47571 0.13257 0.0
H36 H 0.95007 0.4888 0.23492 0.0
H37 H 0.81114 0.40516 0.20833 0.0
H38 H 0.80291 0.53733 0.17434 0.0
H39 H 0.9431 0.62167 0.20064 0.0
Ho40 Ho 0.8047 0.09839 0.4906 0.0
Ho41 Ho 0.68285 0.10939 0.47275 0.0
C42 C 0.61177 0.97494 0.47034 0.0
C43 C 0.88168 0.07203 0.52072 0.0
C44 C 0.86388 1.01655 0.52937 0.0
C45 C 0.91061 0.02069 0.55766 0.0
C46 C 0.89778 0.96933 0.56513 0.0
C47 C 0.83799 0.91288 0.54432 0.0
C48 C 0.78936 0.90849 0.51672 0.0
C49 C 0.80214 0.95992 0.50934 0.0
C50 C 0.79705 0.11365 0.41692 0.0
C51 C 0.8812 0.23404 0.48558 0.0
C52 C 0.60709 0.1412 0.45076 0.0
C53 C 0.60992 0.18981 0.46622 0.0
C54 C 0.63971 0.23859 0.44392 0.0
C55 C 0.65211 0.28861 0.45966 0.0
C56 C 0.63471 0.29067 0.49803 0.0
C57 C 0.60196 0.24063 0.51987 0.0
C58 C 0.59003 0.19093 0.50424 0.0
C59 C 0.69088 0.09529 0.54651 0.0
O60 O 0.67903 0.99956 0.49044 0.0
O61 O 0.60594 1.01035 0.45372 0.0
O62 O 0.88621 0.08213 0.48489 0.0
O63 O 0.84067 0.08238 0.54037 0.0
O64 O 0.86437 0.13453 0.43361 0.0
O65 O 0.73611 0.08041 0.43877 0.0
O66 O 0.80766 0.20832 0.47179 0.0
O67 O 0.89334 0.20073 0.49954 0.0
O68 O 0.57214 0.0946 0.47194 0.0
O69 O 0.67619 0.16084 0.43547 0.0
O70 O 0.62342 0.07211 0.52906 0.0
O71 O 0.75222 0.1288 0.52474 0.0
H72 H 0.95796 0.06397 0.57362 0.0
H73 H 0.93526 0.974 0.58699 0.0
H74 H 0.74338 0.86595 0.4999 0.0
H75 H 0.76511 0.95582 0.48749 0.0
H76 H 0.65595 0.23896 0.41462 0.0
H77 H 0.67807 0.32661 0.4421 0.0
H78 H 0.58636 0.24013 0.5493 0.0
H79 H 0.56713 0.15419 0.52233 0.0
Ho80 Ho 0.71252 0.6164 0.84906 0.0
Ho81 Ho 0.57529 0.47623 0.84798 0.0
C82 C 0.51486 0.54669 0.85531 0.0
C83 C 0.80947 0.73159 0.83429 0.0
C84 C 0.80234 0.775 0.82448 0.0
C85 C 0.72459 0.75468 0.81656 0.0
C86 C 0.71906 0.797 0.80811 0.0
C87 C 0.79146 0.86044 0.80716 0.0
C88 C 0.86943 0.88012 0.81425 0.0
C89 C 0.87468 0.83781 0.82294 0.0
C90 C 0.67228 0.56479 0.91654 0.0
C91 C 0.77399 0.54655 0.85116 0.0
C92 C 0.48982 0.36117 0.85713 0.0
C93 C 0.50536 0.32191 0.84353 0.0
C94 C 0.51934 0.29619 0.86966 0.0
C95 C 0.54417 0.26535 0.85728 0.0
C96 C 0.55545 0.2596 0.8185 0.0
C97 C 0.53868 0.28363 0.79238 0.0
C98 C 0.51429 0.3146 0.80472 0.0
C99 C 0.61659 0.52456 0.77926 0.0
O100 O 0.59132 0.59519 0.84379 0.0
O101 O 0.49608 0.49607 0.86463 0.0
O102 O 0.78759 0.71186 0.86858 0.0
O103 O 0.78242 0.68763 0.80869 0.0
O104 O 0.74833 0.61265 0.9072 0.0
O105 O 0.62321 0.54974 0.89046 0.0
O106 O 0.69418 0.49591 0.85569 0.0
O107 O 0.79735 0.59936 0.84356 0.0
O108 O 0.47134 0.38 0.83145 0.0
O109 O 0.54335 0.40511 0.88231 0.0
O110 O 0.54171 0.47622 0.78897 0.0
O111 O 0.66686 0.5427 0.80583 0.0
H112 H 0.66825 0.70622 0.81719 0.0
H113 H 0.65789 0.78014 0.80324 0.0
H114 H 0.92662 0.92832 0.81311 0.0
H115 H 0.93538 0.85423 0.8286 0.0
H116 H 0.51359 0.30165 0.89975 0.0
H117 H 0.55717 0.24785 0.8782 0.0
H118 H 0.54513 0.27902 0.76227 0.0
H119 H 0.50445 0.33407 0.78377 0.0
H120 H 0.61924 0.97566 0.26698 0.0
H121 H 0.80857 0.16665 0.24031 0.0
H122 H 0.63863 0.02733 0.15348 0.0
C123 C 0.64991 1.01101 0.24653 0.0
C124 C 0.62067 0.99414 0.20898 0.0
C125 C 0.71806 0.07299 0.258 0.0
C126 C 0.75636 0.11877 0.2315 0.0
C127 C 0.72795 0.1022 0.19356 0.0
C128 C 0.66078 0.03991 0.18258 0.0
N129 N 0.76472 0.14642 0.16557 0.0
C130 C 0.83024 0.20987 0.17193 0.0
H131 H 0.65655 0.46517 0.6214 0.0
H132 H 0.7632 0.65073 0.61496 0.0
H133 H 0.76828 0.559 0.51791 0.0
C134 C 0.68851 0.50577 0.60528 0.0
C135 C 0.70991 0.50549 0.56753 0.0
C136 C 0.70793 0.55804 0.62253 0.0
C137 C 0.74838 0.61045 0.60165 0.0
C138 C 0.76914 0.61028 0.56358 0.0
C139 C 0.75061 0.55819 0.54701 0.0
N140 N 0.80928 0.66159 0.54102 0.0
C141 C 0.81225 0.70912 0.54941 0.0
H142 H 0.99846 0.54719 0.95041 0.0
H143 H 0.20206 0.55738 0.93168 0.0
H144 H 1.07963 0.55307 0.83721 0.0
C145 C 1.03906 0.54849 0.93124 0.0
C146 C 1.03058 0.54892 0.89216 0.0
C147 C 1.10126 0.55232 0.94594 0.0
C148 C 0.15484 0.55529 0.9207 0.0
C149 C 0.14696 0.55508 0.88133 0.0
C150 C 1.08553 0.55287 0.86745 0.0
N151 N 0.19913 0.55708 0.85479 0.0
C152 C 0.25996 0.55597 0.86281 0.0
H153 H 0.36852 0.72347 0.37966 0.0
H154 H 0.19449 0.534 0.40971 0.0
H155 H 0.33675 0.68098 0.49646 0.0
C156 C 0.33763 0.68966 0.40113 0.0
C157 C 0.35907 0.71001 0.43926 0.0
C158 C 0.27845 0.62648 0.39015 0.0
C159 C 0.24053 0.58278 0.41802 0.0
C160 C 0.26149 0.60255 0.45657 0.0
C161 C 0.32126 0.66602 0.4668 0.0
N162 N 0.22367 0.56046 0.48596 0.0
C163 C 0.15736 0.49679 0.48113 0.0
H164 H 0.65589 0.14964 0.70457 0.0
H165 H 0.74281 0.06017 0.7223 0.0
H166 H 0.69361 0.12775 0.81776 0.0
C167 C 0.67478 0.13408 0.72378 0.0
C168 C 0.6719 0.14267 0.76297 0.0
C169 C 0.70049 0.10466 0.70897 0.0
C170 C 0.7235 0.08324 0.7337 0.0
C171 C 0.72017 0.09122 0.77317 0.0
C172 C 0.69496 0.12115 0.78738 0.0
N173 N 0.74181 0.07041 0.79982 0.0
C174 C 0.75483 0.03136 0.79187 0.0
H175 H 0.67257 0.42224 0.04218 0.0
H176 H 0.44336 0.29996 0.97758 0.0
H177 H 0.46276 0.24308 0.08096 0.0
C178 C 0.61098 0.37678 0.03659 0.0
C179 C 0.57528 0.33196 0.0633 0.0
C180 C 0.56383 0.36616 0.00566 0.0
C181 C 0.48205 0.30813 0.00038 0.0
C182 C 0.4452 0.2634 0.02739 0.0
C183 C 0.49276 0.27516 0.05851 0.0
N184 N 0.35722 0.21901 0.03031 0.0
C185 C 0.32297 0.24268 0.04236 0.0
C186 C 0.25722 0.3294 0.06016 0.0
C187 C 0.33259 0.38658 0.07454 0.0
H188 H 0.19456 0.23746 0.03815 0.0
C189 C 0.40137 0.39348 0.08013 0.0
H190 H 0.20342 0.32316 0.0555 0.0
C191 C 0.39567 0.34472 0.07088 0.0
C192 C 0.32151 0.28843 0.05558 0.0
H193 H 0.45972 0.4367 0.09162 0.0
H194 H 0.45023 0.35168 0.07489 0.0
C195 C 0.25193 0.28054 0.05037 0.0
C196 C 0.94166 0.33893 0.46961 0.0
C197 C 0.95232 0.30194 0.48441 0.0
H198 H 0.99946 0.43044 0.45674 0.0
C199 C 1.03233 0.33039 0.49715 0.0
H200 H 0.88109 0.31868 0.45945 0.0
C201 C 1.09975 0.39416 0.49532 0.0
C202 C 1.08853 0.4306 0.48069 0.0
H203 H 1.04307 0.30348 0.50856 0.0
H204 H 0.16055 0.41508 0.50566 0.0
C205 C 1.00927 0.40279 0.46784 0.0
C206 C 0.72693 0.8927 0.77473 0.0
C207 C 0.7856 0.90626 0.80057 0.0
H208 H 0.67157 0.92268 0.75134 0.0
C209 C 0.83708 0.96349 0.82132 0.0
H210 H 0.68695 0.84945 0.75796 0.0
C211 C 0.82888 1.00533 0.81703 0.0
C212 C 0.76914 0.99091 0.792 0.0
H213 H 0.88185 0.97523 0.84195 0.0
H214 H 0.86756 0.04822 0.83422 0.0
C215 C 0.71861 0.9347 0.77058 0.0
C216 C 0.73884 0.38757 0.13469 0.0
C217 C 0.72808 0.41791 0.16205 0.0
H218 H 0.69767 0.33597 0.08125 0.0
C219 C 0.65839 0.41074 0.15945 0.0
H220 H 0.79291 0.39323 0.13571 0.0
C221 C 0.60355 0.37726 0.12859 0.0
C222 C 0.61842 0.35126 0.09985 0.0
H223 H 0.64908 0.43388 0.1801 0.0
H224 H 0.55306 0.37545 0.12576 0.0
C225 C 0.68474 0.35494 0.10355 0.0
C226 C 0.54837 0.8679 0.48225 0.0
C227 C 0.54472 0.90684 0.46435 0.0
H228 H 0.49233 0.77506 0.4885 0.0
C229 C 0.47717 0.88009 0.43986 0.0
H230 H 0.59936 0.88692 0.50141 0.0
C231 C 0.41609 0.8162 0.43257 0.0
C232 C 0.42076 0.77736 0.44967 0.0
H233 H 0.47198 0.90853 0.42577 0.0
H234 H 0.3653 0.79713 0.41324 0.0
C235 C 0.48682 0.80378 0.47508 0.0
C236 C 0.64469 0.25517 0.77559 0.0
C237 C 0.5867 0.23024 0.80516 0.0
H238 H 0.71755 0.24757 0.73947 0.0
C239 C 0.55881 0.17714 0.82154 0.0
H240 H 0.66905 0.29682 0.76289 0.0
C241 C 0.58724 0.14915 0.80824 0.0
C242 C 0.64397 0.17353 0.77819 0.0
H243 H 0.5136 0.15638 0.8441 0.0
H244 H 0.56329 0.10756 0.82087 0.0
C245 C 0.67274 0.22707 0.76221 0.0
C246 C 0.90194 0.87014 0.55426 0.0
C247 C 0.83 0.86003 0.54969 0.0
H248 H 0.95199 0.82922 0.55799 0.0
C249 C 0.75133 0.799 0.54813 0.0
H250 H 0.96354 0.9164 0.555 0.0
C251 C 0.74513 0.74925 0.54972 0.0
C252 C 0.81735 0.75989 0.55302 0.0
H253 H 0.69471 0.78966 0.54508 0.0
H254 H 0.68421 0.70255 0.54727 0.0
C255 C 0.89556 0.8204 0.55586 0.0
C256 C 0.81874 0.49703 0.87865 0.0
C257 C 0.83886 0.5446 0.85809 0.0
H258 H 0.86319 0.46154 0.90565 0.0
C259 C 0.92224 0.5917 0.84662 0.0
H260 H 0.75554 0.46009 0.88821 0.0
C261 C 0.98389 0.59172 0.85607 0.0
C262 C 0.96406 0.54544 0.87796 0.0
H263 H 0.94018 0.62907 0.83078 0.0
H264 H 1.04774 0.62925 0.84753 0.0
C265 C 0.88054 0.49786 0.88879 0.0
C266 C 0.40471 0.83315 0.20915 0.0
C267 C 0.41002 0.80178 0.17996 0.0
H268 H 0.46765 0.91843 0.24133 0.0
C269 C 0.48414 0.83504 0.15909 0.0
H270 H 0.3488 0.80894 0.22596 0.0
C271 C 0.55191 0.89812 0.16767 0.0
C272 C 0.54731 0.92866 0.19777 0.0
H273 H 0.49014 0.81221 0.13642 0.0
H274 H 0.60882 0.92259 0.15159 0.0
C275 C 0.47286 0.89574 0.21817 0.0
C276 C 0.68795 0.36806 0.55247 0.0
C277 C 0.65342 0.34562 0.51571 0.0
H278 H 0.73339 0.43625 0.59742 0.0
C279 C 0.63785 0.37642 0.49606 0.0
H280 H 0.70244 0.34631 0.56812 0.0
C281 C 0.65623 0.42833 0.51283 0.0
C282 C 0.6903 0.45042 0.54964 0.0
H283 H 0.61041 0.35994 0.4679 0.0
H284 H 0.64267 0.45069 0.49719 0.0
C285 C 0.70591 0.41971 0.56926 0.0
C286 C 0.36745 0.49843 0.86969 0.0
C287 C 0.44977 0.54987 0.85891 0.0
H288 H 0.24283 0.46021 0.87966 0.0
C289 C 0.46884 0.60423 0.85147 0.0
H290 H 0.35003 0.45575 0.87574 0.0
C291 C 0.40731 0.60667 0.854 0.0
C292 C 0.32524 0.555 0.86416 0.0
H293 H 0.53118 0.6449 0.84333 0.0
H294 H 0.42365 0.64876 0.8473 0.0
C295 C 0.30592 0.50095 0.87217 0.0
C296 C 1.02838 0.36903 0.14947 0.0
C297 C 1.02298 0.40609 0.17285 0.0
H298 H 0.97084 0.27705 0.13128 0.0
C299 C 0.95429 0.37714 0.19718 0.0
H300 H 1.08026 0.38959 0.13041 0.0
C301 C 0.89188 0.31266 0.19761 0.0
C302 C 0.89738 0.27623 0.17389 0.0
H303 H 0.94807 0.40414 0.21558 0.0
H304 H 0.83878 0.29131 0.21603 0.0
C305 C 0.96604 0.30465 0.15001 0.0
C306 C 0.19793 0.60392 0.04498 0.0
C307 C 1.12666 0.56777 0.06779 0.0
H308 H 0.24597 0.62747 0.98859 0.0
C309 C 1.04766 0.52373 0.05028 0.0
H310 H 0.25965 0.63839 0.05771 0.0
C311 C 1.03976 0.51733 0.01081 0.0
C312 C 1.11072 0.55489 0.98781 0.0
H313 H 0.99161 0.49483 0.06711 0.0
H314 H 0.97778 0.48337 -0.00173 0.0
C315 C 0.19007 0.59747 0.00538 0.0
C316 C 0.77377 0.14288 0.3586 0.0
C317 C 0.78679 0.10888 0.3757 0.0
H318 H 0.74323 0.15897 0.30733 0.0
C319 C 0.78265 0.0662 0.35362 0.0
H320 H 0.77636 0.17582 0.37537 0.0
C321 C 0.76283 0.05602 0.31507 0.0
C322 C 0.74772 0.08886 0.2979 0.0
H323 H 0.79187 0.03922 0.36648 0.0
H324 H 0.75776 0.02159 0.29874 0.0
C325 C 0.75519 0.13342 0.31983 0.0
C326 C 0.72455 0.58614 0.72898 0.0
C327 C 0.64049 0.53966 0.73934 0.0
H328 H 0.81187 0.62924 0.6832 0.0
C329 C 0.5787 0.50387 0.71084 0.0
H330 H 0.77338 0.61428 0.75039 0.0
C331 C 0.60075 0.51183 0.67276 0.0
C332 C 0.68483 0.55651 0.66241 0.0
H333 H 0.51337 0.46788 0.71793 0.0
H334 H 0.55227 0.48185 0.65135 0.0
C335 C 0.74654 0.5948 0.69068 0.0
C336 C 0.77163 0.12761 0.6072 0.0
C337 C 0.69511 0.09272 0.5878 0.0
H338 H 0.83324 0.15788 0.66155 0.0
C339 C 0.62071 0.05673 0.6085 0.0
H340 H 0.82985 0.15571 0.5919 0.0
C341 C 0.62276 0.05813 0.64789 0.0
C342 C 0.69913 0.09494 0.66745 0.0
H343 H 0.56074 0.02898 0.59433 0.0
H344 H 0.56471 0.03212 0.66325 0.0
C345 C 0.77359 0.12858 0.64688 0.0
C346 C 0.56706 0.47644 0.95596 0.0
C347 C 0.64963 0.51978 0.94336 0.0
H348 H 0.47566 0.39457 0.98571 0.0
C349 C 0.70537 0.51383 0.95221 0.0
H350 H 0.523 0.48015 0.9494 0.0
C351 C 0.67762 0.46353 0.97204 0.0
C352 C 0.59395 0.41883 0.98358 0.0
H353 H 0.76917 0.54637 0.94237 0.0
H354 H 0.72109 0.45893 0.97768 0.0
C355 C 0.53962 0.42676 0.97605 0.0
C356 C 0.23921 0.62993 0.28808 0.0
C357 C 0.24582 0.5904 0.2697 0.0
H358 H 0.24154 0.67054 0.34052 0.0
C359 C 0.25397 0.55703 0.29157 0.0
H360 H 0.23296 0.65634 0.27205 0.0
C361 C 0.25984 0.56577 0.33121 0.0
C362 C 0.2577 0.60802 0.3493 0.0
H363 H 0.25892 0.52608 0.27804 0.0
H364 H 0.27022 0.54197 0.34748 0.0
C365 C 0.24456 0.63835 0.32734 0.0
loop_
_geom_bond_atom_site_label_1
_geom_bond_atom_site_label_2
_geom_bond_distance
_geom_bond_site_symmetry_2
_ccdc_geom_bond_type
Ho0 C3 2.811 . S
Ho0 O20 2.322 . S
Ho0 O22 2.378 . S
Ho0 O23 2.524 . S
Ho0 O24 2.381 . S
Ho0 O25 2.669 . S
Ho0 O27 2.346 1_455 S
Ho0 O31 2.305 . S
Ho1 C12 2.811 1_455 S
Ho1 O21 2.346 . S
Ho1 O25 2.305 . S
Ho1 O26 2.322 1_455 S
Ho1 O28 2.378 1_455 S
Ho1 O29 2.524 1_455 S
Ho1 O30 2.381 . S
Ho1 O31 2.669 . S
C2 O20 1.259 . S
C2 O21 1.268 . S
C3 Ho0 2.811 . S
C3 C4 1.488 . S
C3 O22 1.215 . S
C3 O23 1.289 . S
C4 C3 1.488 . S
C4 C5 1.348 . S
C4 C9 1.413 . S
C5 C4 1.348 . S
C5 C6 1.442 . S
C5 H32 0.930 . S
C6 C5 1.442 . S
C6 C7 1.381 . S
C6 H33 0.931 . S
C7 C6 1.381 . S
C7 C8 1.321 . S
C8 C7 1.321 . S
C8 C9 1.403 . S
C8 H34 0.934 . S
C9 C4 1.413 . S
C9 C8 1.403 . S
C9 H35 0.930 . S
C10 O24 1.275 . S
C10 O25 1.256 . S
C11 O26 1.259 . S
C11 O27 1.268 . S
C12 Ho1 2.811 1_655 S
C12 C13 1.488 . S
C12 O28 1.215 . S
C12 O29 1.289 . S
C13 C12 1.488 . S
C13 C14 1.348 . S
C13 C18 1.413 . S
C14 C13 1.348 . S
C14 C15 1.442 . S
C14 H36 0.930 . S
C15 C14 1.442 . S
C15 C16 1.381 . S
C15 H37 0.931 . S
C16 C15 1.381 . S
C16 C17 1.321 . S
C17 C16 1.321 . S
C17 C18 1.403 . S
C17 H38 0.934 . S
C18 C13 1.413 . S
C18 C17 1.403 . S
C18 H39 0.930 . S
C19 O30 1.275 . S
C19 O31 1.256 . S
O20 Ho0 2.322 . S
O20 C2 1.259 . S
O21 Ho1 2.346 . S
O21 C2 1.268 . S
O22 Ho0 2.378 . S
O22 C3 1.215 . S
O23 Ho0 2.524 . S
O23 C3 1.289 . S
O24 Ho0 2.381 . S
O24 C10 1.275 . S
O25 Ho0 2.669 . S
O25 Ho1 2.305 . S
O25 C10 1.256 . S
O26 Ho1 2.322 1_655 S
O26 C11 1.259 . S
O27 Ho0 2.346 1_655 S
O27 C11 1.268 . S
O28 Ho1 2.378 1_655 S
O28 C12 1.215 . S
O29 Ho1 2.524 1_655 S
O29 C12 1.289 . S
O30 Ho1 2.381 . S
O30 C19 1.275 . S
O31 Ho0 2.305 . S
O31 Ho1 2.669 . S
O31 C19 1.256 . S
H32 C5 0.930 . S
H33 C6 0.931 . S
H34 C8 0.934 . S
H35 C9 0.930 . S
H36 C14 0.930 . S
H37 C15 0.931 . S
H38 C17 0.934 . S
H39 C18 0.930 . S
Ho40 C43 2.811 1_545 S
Ho40 O60 2.322 1_545 S
Ho40 O62 2.378 1_545 S
Ho40 O63 2.524 1_545 S
Ho40 O64 2.381 . S
Ho40 O65 2.669 . S
Ho40 O67 2.346 . S
Ho40 O71 2.305 . S
Ho41 C52 2.811 . S
Ho41 O61 2.346 1_545 S
Ho41 O65 2.305 . S
Ho41 O66 2.322 . S
Ho41 O68 2.378 . S
Ho41 O69 2.524 . S
Ho41 O70 2.381 . S
Ho41 O71 2.669 . S
C42 O60 1.259 . S
C42 O61 1.268 . S
C43 Ho40 2.811 1_565 S
C43 C44 1.488 . S
C43 O62 1.215 . S
C43 O63 1.289 . S
C44 C43 1.488 . S
C44 C45 1.348 . S
C44 C49 1.413 . S
C45 C44 1.348 . S
C45 C46 1.442 . S
C45 H72 0.930 . S
C46 C45 1.442 . S
C46 C47 1.381 . S
C46 H73 0.931 . S
C47 C46 1.381 . S
C47 C48 1.321 . S
C48 C47 1.321 . S
C48 C49 1.403 . S
C48 H74 0.934 . S
C49 C44 1.413 . S
C49 C48 1.403 . S
C49 H75 0.930 . S
C50 O64 1.275 . S
C50 O65 1.256 . S
C51 O66 1.259 . S
C51 O67 1.268 . S
C52 Ho41 2.811 . S
C52 C53 1.488 . S
C52 O68 1.215 . S
C52 O69 1.289 . S
C53 C52 1.488 . S
C53 C54 1.348 . S
C53 C58 1.413 . S
C54 C53 1.348 . S
C54 C55 1.442 . S
C54 H76 0.930 . S
C55 C54 1.442 . S
C55 C56 1.381 . S
C55 H77 0.931 . S
C56 C55 1.381 . S
C56 C57 1.321 . S
C57 C56 1.321 . S
C57 C58 1.403 . S
C57 H78 0.934 . S
C58 C53 1.413 . S
C58 C57 1.403 . S
C58 H79 0.930 . S
C59 O70 1.275 . S
C59 O71 1.256 . S
O60 Ho40 2.322 1_565 S
O60 C42 1.259 . S
O61 Ho41 2.346 1_565 S
O61 C42 1.268 . S
O62 Ho40 2.378 1_565 S
O62 C43 1.215 . S
O63 Ho40 2.524 1_565 S
O63 C43 1.289 . S
O64 Ho40 2.381 . S
O64 C50 1.275 . S
O65 Ho40 2.669 . S
O65 Ho41 2.305 . S
O65 C50 1.256 . S
O66 Ho41 2.322 . S
O66 C51 1.259 . S
O67 Ho40 2.346 . S
O67 C51 1.268 . S
O68 Ho41 2.378 . S
O68 C52 1.215 . S
O69 Ho41 2.524 . S
O69 C52 1.289 . S
O70 Ho41 2.381 . S
O70 C59 1.275 . S
O71 Ho40 2.305 . S
O71 Ho41 2.669 . S
O71 C59 1.256 . S
H72 C45 0.930 . S
H73 C46 0.931 . S
H74 C48 0.934 . S
H75 C49 0.930 . S
H76 C54 0.930 . S
H77 C55 0.931 . S
H78 C57 0.934 . S
H79 C58 0.930 . S
Ho80 C83 2.811 . S
Ho80 O100 2.322 . S
Ho80 O102 2.378 . S
Ho80 O103 2.524 . S
Ho80 O104 2.381 . S
Ho80 O105 2.669 . S
Ho80 O107 2.346 . S
Ho80 O111 2.305 . S
Ho81 C92 2.811 . S
Ho81 O101 2.346 . S
Ho81 O105 2.305 . S
Ho81 O106 2.322 . S
Ho81 O108 2.378 . S
Ho81 O109 2.524 . S
Ho81 O110 2.381 . S
Ho81 O111 2.669 . S
C82 O100 1.259 . S
C82 O101 1.268 . S
C83 Ho80 2.811 . S
C83 C84 1.488 . S
C83 O102 1.215 . S
C83 O103 1.289 . S
C84 C83 1.488 . S
C84 C85 1.348 . S
C84 C89 1.413 . S
C85 C84 1.348 . S
C85 C86 1.442 . S
C85 H112 0.930 . S
C86 C85 1.442 . S
C86 C87 1.381 . S
C86 H113 0.931 . S
C87 C86 1.381 . S
C87 C88 1.321 . S
C88 C87 1.321 . S
C88 C89 1.403 . S
C88 H114 0.934 . S
C89 C84 1.413 . S
C89 C88 1.403 . S
C89 H115 0.930 . S
C90 O104 1.275 . S
C90 O105 1.256 . S
C91 O106 1.259 . S
C91 O107 1.268 . S
C92 Ho81 2.811 . S
C92 C93 1.488 . S
C92 O108 1.215 . S
C92 O109 1.289 . S
C93 C92 1.488 . S
C93 C94 1.348 . S
C93 C98 1.413 . S
C94 C93 1.348 . S
C94 C95 1.442 . S
C94 H116 0.930 . S
C95 C94 1.442 . S
C95 C96 1.381 . S
C95 H117 0.931 . S
C96 C95 1.381 . S
C96 C97 1.321 . S
C97 C96 1.321 . S
C97 C98 1.403 . S
C97 H118 0.934 . S
C98 C93 1.413 . S
C98 C97 1.403 . S
C98 H119 0.930 . S
C99 O110 1.275 . S
C99 O111 1.256 . S
O100 Ho80 2.322 . S
O100 C82 1.259 . S
O101 Ho81 2.346 . S
O101 C82 1.268 . S
O102 Ho80 2.378 . S
O102 C83 1.215 . S
O103 Ho80 2.524 . S
O103 C83 1.289 . S
O104 Ho80 2.381 . S
O104 C90 1.275 . S
O105 Ho80 2.669 . S
O105 Ho81 2.305 . S
O105 C90 1.256 . S
O106 Ho81 2.322 . S
O106 C91 1.259 . S
O107 Ho80 2.346 . S
O107 C91 1.268 . S
O108 Ho81 2.378 . S
O108 C92 1.215 . S
O109 Ho81 2.524 . S
O109 C92 1.289 . S
O110 Ho81 2.381 . S
O110 C99 1.275 . S
O111 Ho80 2.305 . S
O111 Ho81 2.669 . S
O111 C99 1.256 . S
H112 C85 0.930 . S
H113 C86 0.931 . S
H114 C88 0.934 . S
H115 C89 0.930 . S
H116 C94 0.930 . S
H117 C95 0.931 . S
H118 C97 0.934 . S
H119 C98 0.930 . S
H120 C123 0.929 . S
H121 C126 0.929 . S
H122 C128 0.930 1_565 S
C123 H120 0.929 . S
C123 C124 1.398 . S
C123 C125 1.396 1_565 S
C124 C123 1.398 . S
C124 C128 1.407 1_565 S
C125 C123 1.396 1_545 S
C125 C126 1.394 . S
C126 H121 0.929 . S
C126 C125 1.394 . S
C126 C127 1.382 . S
C127 C126 1.382 . S
C127 C128 1.392 . S
C127 N129 1.420 . S
C128 H122 0.930 1_545 S
C128 C124 1.407 1_545 S
C128 C127 1.392 . S
N129 C127 1.420 . S
N129 C130 1.244 . S
C130 N129 1.244 . S
H131 C134 0.929 . S
H132 C137 0.929 . S
H133 C139 0.930 . S
C134 H131 0.929 . S
C134 C135 1.398 . S
C134 C136 1.396 . S
C135 C134 1.398 . S
C135 C139 1.407 . S
C136 C134 1.396 . S
C136 C137 1.394 . S
C137 H132 0.929 . S
C137 C136 1.394 . S
C137 C138 1.382 . S
C138 C137 1.382 . S
C138 C139 1.392 . S
C138 N140 1.420 . S
C139 H133 0.930 . S
C139 C135 1.407 . S
C139 C138 1.392 . S
N140 C138 1.420 . S
N140 C141 1.244 . S
C141 N140 1.244 . S
H142 C145 0.929 1_655 S
H143 C148 0.929 . S
H144 C150 0.930 . S
C145 H142 0.929 1_455 S
C145 C146 1.398 1_455 S
C145 C147 1.396 . S
C146 C145 1.398 1_655 S
C146 C150 1.404 1_655 S
C147 C145 1.396 . S
C147 C148 1.394 . S
C148 H143 0.929 . S
C148 C147 1.394 . S
C148 C149 1.382 . S
C149 C148 1.382 . S
C149 C150 1.392 . S
C149 N151 1.420 . S
C150 H144 0.930 . S
C150 C146 1.404 1_455 S
C150 C149 1.392 . S
N151 C149 1.420 . S
N151 C152 1.244 . S
C152 N151 1.244 . S
H153 C156 0.929 . S
H154 C159 0.929 . S
H155 C161 0.930 . S
C156 H153 0.929 . S
C156 C157 1.398 . S
C156 C158 1.396 . S
C157 C156 1.398 . S
C157 C161 1.407 . S
C158 C156 1.396 . S
C158 C159 1.394 1_455 S
C159 H154 0.929 . S
C159 C158 1.394 1_655 S
C159 C160 1.382 . S
C160 C159 1.382 . S
C160 C161 1.392 1_655 S
C160 N162 1.420 . S
C161 H155 0.930 . S
C161 C157 1.407 . S
C161 C160 1.392 1_455 S
N162 C160 1.420 . S
N162 C163 1.244 . S
C163 N162 1.244 . S
H164 C167 0.929 . S
H165 C170 0.929 1_565 S
H166 C172 0.930 . S
C167 H164 0.929 . S
C167 C168 1.398 . S
C167 C169 1.396 . S
C168 C167 1.398 . S
C168 C172 1.407 . S
C169 C167 1.396 . S
C169 C170 1.394 . S
C170 H165 0.929 1_545 S
C170 C169 1.394 . S
C170 C171 1.382 . S
C171 C170 1.382 . S
C171 C172 1.392 . S
C171 N173 1.420 . S
C172 H166 0.930 . S
C172 C168 1.407 . S
C172 C171 1.392 . S
N173 C171 1.420 . S
N173 C174 1.244 1_545 S
C174 N173 1.244 1_565 S
H175 C178 0.929 . S
H176 C181 0.929 . S
H177 C183 0.930 . S
C178 H175 0.929 . S
C178 C179 1.398 . S
C178 C180 1.396 . S
C179 C178 1.398 . S
C179 C183 1.407 . S
C180 C178 1.396 . S
C180 C181 1.394 . S
C181 H176 0.929 . S
C181 C180 1.394 . S
C181 C182 1.382 . S
C182 C181 1.382 . S
C182 C183 1.392 . S
C182 N184 1.420 . S
C183 H177 0.930 . S
C183 C179 1.407 . S
C183 C182 1.392 . S
N184 C182 1.420 . S
N184 C185 1.244 . S
C185 N184 1.244 . S
C186 C187 1.387 . S
C186 H190 0.950 . S
C186 C195 1.390 . S
C187 C186 1.387 . S
C187 C189 1.387 . S
H188 C195 0.950 . S
C189 C187 1.387 . S
C189 C191 1.390 . S
C189 H193 0.950 . S
H190 C186 0.950 . S
C191 C189 1.390 . S
C191 C192 1.387 . S
C191 H194 0.950 . S
C192 C191 1.387 . S
C192 C195 1.387 . S
H193 C189 0.950 . S
H194 C191 0.950 . S
C195 C186 1.390 . S
C195 H188 0.950 . S
C195 C192 1.387 . S
C196 C197 1.387 . S
C196 H200 0.950 . S
C196 C205 1.390 . S
C197 C196 1.387 . S
C197 C199 1.387 . S
H198 C205 0.950 . S
C199 C197 1.387 . S
C199 C201 1.390 . S
C199 H203 0.950 . S
H200 C196 0.950 . S
C201 C199 1.390 . S
C201 C202 1.387 . S
C201 H204 0.950 . S
C202 C201 1.387 . S
C202 C205 1.387 . S
H203 C199 0.950 . S
H204 C201 0.950 . S
C205 C196 1.390 . S
C205 H198 0.950 . S
C205 C202 1.387 . S
C206 C207 1.387 . S
C206 H210 0.950 . S
C206 C215 1.390 . S
C207 C206 1.387 . S
C207 C209 1.387 . S
H208 C215 0.950 . S
C209 C207 1.387 . S
C209 C211 1.390 . S
C209 H213 0.950 . S
H210 C206 0.950 . S
C211 C209 1.390 . S
C211 C212 1.387 . S
C211 H214 0.950 . S
C212 C211 1.387 . S
C212 C215 1.387 . S
H213 C209 0.950 . S
H214 C211 0.950 . S
C215 C206 1.390 . S
C215 H208 0.950 . S
C215 C212 1.387 . S
C216 C217 1.387 . S
C216 H220 0.950 . S
C216 C225 1.390 . S
C217 C216 1.387 . S
C217 C219 1.387 . S
H218 C225 0.950 . S
C219 C217 1.387 . S
C219 C221 1.390 . S
C219 H223 0.950 . S
H220 C216 0.950 . S
C221 C219 1.390 . S
C221 C222 1.387 . S
C221 H224 0.950 . S
C222 C221 1.387 . S
C222 C225 1.387 . S
H223 C219 0.950 . S
H224 C221 0.950 . S
C225 C216 1.390 . S
C225 H218 0.950 . S
C225 C222 1.387 . S
C226 C227 1.387 . S
C226 H230 0.950 . S
C226 C235 1.390 . S
C227 C226 1.387 . S
C227 C229 1.387 . S
H228 C235 0.950 . S
C229 C227 1.387 . S
C229 C231 1.390 . S
C229 H233 0.950 . S
H230 C226 0.950 . S
C231 C229 1.390 . S
C231 C232 1.387 . S
C231 H234 0.950 . S
C232 C231 1.387 . S
C232 C235 1.387 . S
H233 C229 0.950 . S
H234 C231 0.950 . S
C235 C226 1.390 . S
C235 H228 0.950 . S
C235 C232 1.387 . S
C236 C237 1.387 . S
C236 H240 0.950 . S
C236 C245 1.390 . S
C237 C236 1.387 . S
C237 C239 1.387 . S
H238 C245 0.950 . S
C239 C237 1.387 . S
C239 C241 1.390 . S
C239 H243 0.950 . S
H240 C236 0.950 . S
C241 C239 1.390 . S
C241 C242 1.387 . S
C241 H244 0.950 . S
C242 C241 1.387 . S
C242 C245 1.387 . S
H243 C239 0.950 . S
H244 C241 0.950 . S
C245 C236 1.390 . S
C245 H238 0.950 . S
C245 C242 1.387 . S
C246 C247 1.387 . S
C246 H250 0.950 . S
C246 C255 1.390 . S
C247 C246 1.387 . S
C247 C249 1.387 . S
H248 C255 0.950 . S
C249 C247 1.387 . S
C249 C251 1.390 . S
C249 H253 0.950 . S
H250 C246 0.950 . S
C251 C249 1.390 . S
C251 C252 1.387 . S
C251 H254 0.950 . S
C252 C251 1.387 . S
C252 C255 1.387 . S
H253 C249 0.950 . S
H254 C251 0.950 . S
C255 C246 1.390 . S
C255 H248 0.950 . S
C255 C252 1.387 . S
C256 C257 1.387 . S
C256 H260 0.950 . S
C256 C265 1.390 . S
C257 C256 1.387 . S
C257 C259 1.387 . S
H258 C265 0.950 . S
C259 C257 1.387 . S
C259 C261 1.390 . S
C259 H263 0.950 . S
H260 C256 0.950 . S
C261 C259 1.390 . S
C261 C262 1.387 . S
C261 H264 0.950 . S
C262 C261 1.387 . S
C262 C265 1.387 . S
H263 C259 0.950 . S
H264 C261 0.950 . S
C265 C256 1.390 . S
C265 H258 0.950 . S
C265 C262 1.387 . S
C266 C267 1.387 . S
C266 H270 0.950 . S
C266 C275 1.390 . S
C267 C266 1.387 . S
C267 C269 1.387 . S
H268 C275 0.950 . S
C269 C267 1.387 . S
C269 C271 1.390 . S
C269 H273 0.950 . S
H270 C266 0.950 . S
C271 C269 1.390 . S
C271 C272 1.387 . S
C271 H274 0.950 . S
C272 C271 1.387 . S
C272 C275 1.387 . S
H273 C269 0.950 . S
H274 C271 0.950 . S
C275 C266 1.390 . S
C275 H268 0.950 . S
C275 C272 1.387 . S
C276 C277 1.387 . S
C276 H280 0.950 . S
C276 C285 1.390 . S
C277 C276 1.387 . S
C277 C279 1.387 . S
H278 C285 0.950 . S
C279 C277 1.387 . S
C279 C281 1.390 . S
C279 H283 0.950 . S
H280 C276 0.950 . S
C281 C279 1.390 . S
C281 C282 1.387 . S
C281 H284 0.950 . S
C282 C281 1.387 . S
C282 C285 1.387 . S
H283 C279 0.950 . S
H284 C281 0.950 . S
C285 C276 1.390 . S
C285 H278 0.950 . S
C285 C282 1.387 . S
C286 C287 1.387 . S
C286 H290 0.950 . S
C286 C295 1.390 . S
C287 C286 1.387 . S
C287 C289 1.387 . S
H288 C295 0.950 . S
C289 C287 1.387 . S
C289 C291 1.390 . S
C289 H293 0.950 . S
H290 C286 0.950 . S
C291 C289 1.390 . S
C291 C292 1.387 . S
C291 H294 0.950 . S
C292 C291 1.387 . S
C292 C295 1.387 . S
H293 C289 0.950 . S
H294 C291 0.950 . S
C295 C286 1.390 . S
C295 H288 0.950 . S
C295 C292 1.387 . S
C296 C297 1.387 . S
C296 H300 0.950 . S
C296 C305 1.390 . S
C297 C296 1.387 . S
C297 C299 1.387 . S
H298 C305 0.950 . S
C299 C297 1.387 . S
C299 C301 1.390 . S
C299 H303 0.950 . S
H300 C296 0.950 . S
C301 C299 1.390 . S
C301 C302 1.387 . S
C301 H304 0.950 . S
C302 C301 1.387 . S
C302 C305 1.387 . S
H303 C299 0.950 . S
H304 C301 0.950 . S
C305 C296 1.390 . S
C305 H298 0.950 . S
C305 C302 1.387 . S
C306 C307 1.387 . S
C306 H310 0.950 . S
C306 C315 1.390 . S
C307 C306 1.387 . S
C307 C309 1.387 . S
H308 C315 0.950 1_556 S
C309 C307 1.387 . S
C309 C311 1.390 1_554 S
C309 H313 0.950 1_455 S
H310 C306 0.950 . S
C311 C309 1.390 1_556 S
C311 C312 1.387 . S
C311 H314 0.950 1_455 S
C312 C311 1.387 . S
C312 C315 1.387 1_556 S
H313 C309 0.950 1_655 S
H314 C311 0.950 1_655 S
C315 C306 1.390 . S
C315 H308 0.950 1_554 S
C315 C312 1.387 1_554 S
C316 C317 1.387 . S
C316 H320 0.950 . S
C316 C325 1.390 . S
C317 C316 1.387 . S
C317 C319 1.387 1_545 S
H318 C325 0.950 . S
C319 C317 1.387 1_565 S
C319 C321 1.390 . S
C319 H323 0.950 . S
H320 C316 0.950 . S
C321 C319 1.390 . S
C321 C322 1.387 1_565 S
C321 H324 0.950 . S
C322 C321 1.387 1_545 S
C322 C325 1.387 . S
H323 C319 0.950 . S
H324 C321 0.950 . S
C325 C316 1.390 . S
C325 H318 0.950 . S
C325 C322 1.387 . S
C326 C327 1.387 . S
C326 H330 0.950 . S
C326 C335 1.390 . S
C327 C326 1.387 . S
C327 C329 1.387 . S
H328 C335 0.950 . S
C329 C327 1.387 . S
C329 C331 1.390 . S
C329 H333 0.950 . S
H330 C326 0.950 . S
C331 C329 1.390 . S
C331 C332 1.387 . S
C331 H334 0.950 . S
C332 C331 1.387 . S
C332 C335 1.387 . S
H333 C329 0.950 . S
H334 C331 0.950 . S
C335 C326 1.390 . S
C335 H328 0.950 . S
C335 C332 1.387 . S
C336 C337 1.387 . S
C336 H340 0.950 . S
C336 C345 1.390 . S
C337 C336 1.387 . S
C337 C339 1.387 1_545 S
H338 C345 0.950 . S
C339 C337 1.387 1_565 S
C339 C341 1.390 . S
C339 H343 0.950 . S
H340 C336 0.950 . S
C341 C339 1.390 . S
C341 C342 1.387 1_565 S
C341 H344 0.950 . S
C342 C341 1.387 1_545 S
C342 C345 1.387 . S
H343 C339 0.950 . S
H344 C341 0.950 . S
C345 C336 1.390 . S
C345 H338 0.950 . S
C345 C342 1.387 . S
C346 C347 1.387 . S
C346 H350 0.950 . S
C346 C355 1.390 1_556 S
C347 C346 1.387 . S
C347 C349 1.387 . S
H348 C355 0.950 . S
C349 C347 1.387 . S
C349 C351 1.390 . S
C349 H353 0.950 . S
H350 C346 0.950 . S
C351 C349 1.390 . S
C351 C352 1.387 1_556 S
C351 H354 0.950 . S
C352 C351 1.387 1_554 S
C352 C355 1.387 . S
H353 C349 0.950 . S
H354 C351 0.950 . S
C355 C346 1.390 1_554 S
C355 H348 0.950 . S
C355 C352 1.387 . S
C356 C357 1.387 . S
C356 H360 0.950 . S
C356 C365 1.390 . S
C357 C356 1.387 . S
C357 C359 1.387 . S
H358 C365 0.950 1_655 S
C359 C357 1.387 . S
C359 C361 1.390 . S
C359 H363 0.950 . S
H360 C356 0.950 . S
C361 C359 1.390 . S
C361 C362 1.387 . S
C361 H364 0.950 . S
C362 C361 1.387 . S
C362 C365 1.387 . S
H363 C359 0.950 . S
H364 C361 0.950 . S
C365 C356 1.390 . S
C365 H358 0.950 1_455 S
C365 C362 1.387 . S
C187 C7 1.151 . S
C192 C185 1.274 . S
C197 C51 1.968 . S
C202 C163 1.908 . S
C207 C87 1.423 . S
C212 C174 1.479 . S
C217 C16 0.695 . S
C222 C179 0.647 . S
C232 C157 1.876 . S
C227 C42 1.926 . S
C242 C168 1.272 . S
C237 C96 1.246 . S
C247 C47 1.381 . S
C252 C141 1.415 . S
C257 C91 3.091 . S
C262 C146 3.049 . S
C267 C2 1.955 . S
C272 C124 1.929 . S
C282 C135 1.288 . S
C277 C56 1.247 . S
C292 C152 3.044 . S
C287 C82 3.093 . S
C297 C11 1.983 . S
C302 C130 1.945 . S
C312 C147 1.757 . S
C307 C19 1.723 . S
C317 C50 1.393 . S
C322 C125 1.449 . S
C327 C99 1.504 . S
C332 C136 1.534 . S
C342 C169 1.497 . S
C337 C59 1.494 . S
C352 C180 1.200 . S
C347 C90 1.205 . S
C357 C10 1.368 . S
C362 C158 1.406 . S
