# Generated by pormake.
# Topology nom, (4,4)-cn, num edge types: 1
# Building blocks:
#     Node 0, Type 0, BuildingBlock: GIZVER_clean_linker_0, # of connection points: 4
#     Node 1, Type 0, BuildingBlock: GIZVER_clean_linker_0, # of connection points: 4
#     Node 2, Type 0, BuildingBlock: GIZVER_clean_linker_0, # of connection points: 4
#     Node 3, Type 0, BuildingBlock: GIZVER_clean_linker_0, # of connection points: 4
#     Node 4, Type 0, BuildingBlock: GIZVER_clean_linker_0, # of connection points: 4
#     Node 5, Type 0, BuildingBlock: GIZVER_clean_linker_0, # of connection points: 4
#     Node 6, Type 1, BuildingBlock: TATPOV_clean_sbu_0, # of connection points: 4
#     Node 7, Type 1, BuildingBlock: TATPOV_clean_sbu_0, # of connection points: 4
#     Node 8, Type 1, BuildingBlock: TATPOV_clean_sbu_0, # of connection points: 4
#     Node 9, Type 1, BuildingBlock: TATPOV_clean_sbu_0, # of connection points: 4
#     Node 10, Type 1, BuildingBlock: TATPOV_clean_sbu_0, # of connection points: 4
#     Node 11, Type 1, BuildingBlock: TATPOV_clean_sbu_0, # of connection points: 4
#     Edge 12, Type (0, 1), BuildingBlock: AJUNOK_clean_linker_0, # of connection points: 2
#     Edge 13, Type (0, 1), BuildingBlock: AJUNOK_clean_linker_0, # of connection points: 2
#     Edge 14, Type (0, 1), BuildingBlock: AJUNOK_clean_linker_0, # of connection points: 2
#     Edge 15, Type (0, 1), BuildingBlock: AJUNOK_clean_linker_0, # of connection points: 2
#     Edge 16, Type (0, 1), BuildingBlock: AJUNOK_clean_linker_0, # of connection points: 2
#     Edge 17, Type (0, 1), BuildingBlock: AJUNOK_clean_linker_0, # of connection points: 2
#     Edge 18, Type (0, 1), BuildingBlock: AJUNOK_clean_linker_0, # of connection points: 2
#     Edge 19, Type (0, 1), BuildingBlock: AJUNOK_clean_linker_0, # of connection points: 2
#     Edge 20, Type (0, 1), BuildingBlock: AJUNOK_clean_linker_0, # of connection points: 2
#     Edge 21, Type (0, 1), BuildingBlock: AJUNOK_clean_linker_0, # of connection points: 2
#     Edge 22, Type (0, 1), BuildingBlock: AJUNOK_clean_linker_0, # of connection points: 2
#     Edge 23, Type (0, 1), BuildingBlock: AJUNOK_clean_linker_0, # of connection points: 2
#     Edge 24, Type (0, 1), BuildingBlock: AJUNOK_clean_linker_0, # of connection points: 2
#     Edge 25, Type (0, 1), BuildingBlock: AJUNOK_clean_linker_0, # of connection points: 2
#     Edge 26, Type (0, 1), BuildingBlock: AJUNOK_clean_linker_0, # of connection points: 2
#     Edge 27, Type (0, 1), BuildingBlock: AJUNOK_clean_linker_0, # of connection points: 2
#     Edge 28, Type (0, 1), BuildingBlock: AJUNOK_clean_linker_0, # of connection points: 2
#     Edge 29, Type (0, 1), BuildingBlock: AJUNOK_clean_linker_0, # of connection points: 2
#     Edge 30, Type (0, 1), BuildingBlock: AJUNOK_clean_linker_0, # of connection points: 2
#     Edge 31, Type (0, 1), BuildingBlock: AJUNOK_clean_linker_0, # of connection points: 2
#     Edge 32, Type (0, 1), BuildingBlock: AJUNOK_clean_linker_0, # of connection points: 2
#     Edge 33, Type (0, 1), BuildingBlock: AJUNOK_clean_linker_0, # of connection points: 2
#     Edge 34, Type (0, 1), BuildingBlock: AJUNOK_clean_linker_0, # of connection points: 2
#     Edge 35, Type (0, 1), BuildingBlock: AJUNOK_clean_linker_0, # of connection points: 2
# Relax obj value: 0.021
# Max RMSD: 0.120
# Mean RMSD: 0.092
data_MOF--net-nom--node1-TATPOV_clean_sbu_0--node2-GIZVER_clean_linker_0--edge1-AJUNOK_clean_linker_0
_symmetry_space_group_name_H-M    P1
_symmetry_Int_Tables_number       1
_symmetry_cell_setting            triclinic
loop_
_symmetry_equiv_pos_as_xyz
'x, y, z'
_cell_length_a     33.851654
_cell_length_b     34.056045
_cell_length_c     35.496226
_cell_angle_alpha  90.99535
_cell_angle_beta   90.221695
_cell_angle_gamma 119.86247
loop_
_atom_site_label
_atom_site_type_symbol
_atom_site_fract_x
_atom_site_fract_y
_atom_site_fract_z
_atom_type_partial_charge
H0 H 0.98353 0.55913 0.33848 0.0
H1 H 1.01151 0.52236 0.22994 0.0
H2 H 0.87556 0.45236 0.2731 0.0
H3 H 0.04182 0.61553 0.29914 0.0
H4 H 0.04865 0.60135 0.25222 0.0
H5 H 0.06887 0.58203 0.35261 0.0
H6 H 0.21038 0.63145 0.33132 0.0
H7 H 0.11662 0.60206 0.23894 0.0
C8 C 0.9725 0.53603 0.31432 0.0
C9 C 0.92677 0.50151 0.31102 0.0
C10 C 1.00273 0.54418 0.28467 0.0
C11 C 0.98812 0.51517 0.25301 0.0
C12 C 0.94194 0.48253 0.24797 0.0
C13 C 0.91175 0.47499 0.27763 0.0
C14 C 0.04508 0.58975 0.2818 0.0
C15 C 0.08757 0.58981 0.29431 0.0
C16 C 0.09596 0.58951 0.33287 0.0
C17 C 0.14028 0.60459 0.34635 0.0
C18 C 0.1757 0.61657 0.32066 0.0
C19 C 0.16756 0.61544 0.28168 0.0
C20 C 0.12295 0.60081 0.26873 0.0
H21 H 0.41138 0.98167 0.49453 0.0
H22 H 0.48058 0.03289 0.39078 0.0
H23 H 0.45738 0.90461 0.42941 0.0
H24 H 0.40711 0.04193 0.46387 0.0
H25 H 0.42757 0.05639 0.41693 0.0
H26 H 0.46663 0.06899 0.51758 0.0
H27 H 0.5756 0.20541 0.50353 0.0
H28 H 0.49511 0.12784 0.40764 0.0
C29 C 0.43051 0.97874 0.47137 0.0
C30 C 0.43531 0.94005 0.46726 0.0
C31 C 0.44727 1.01241 0.44398 0.0
C32 C 0.46862 1.00728 0.41218 0.0
C33 C 0.46871 0.9667 0.40534 0.0
C34 C 0.45562 0.93515 0.43424 0.0
C35 C 0.43687 0.05061 0.44559 0.0
C36 C 0.47725 0.09319 0.46079 0.0
C37 C 0.48747 0.09694 0.4994 0.0
C38 C 0.52304 0.13713 0.51494 0.0
C39 C 0.54936 0.17345 0.49142 0.0
C40 C 0.53954 0.17027 0.45277 0.0
C41 C 0.50346 0.13001 0.43739 0.0
H42 H 0.41092 0.50651 0.57162 0.0
H43 H 0.44258 0.47215 0.67979 0.0
H44 H 0.40323 0.57351 0.67272 0.0
H45 H 0.42968 0.44758 0.57422 0.0
H46 H 0.41127 0.41699 0.61682 0.0
H47 H 0.5109 0.49486 0.5614 0.0
H48 H 0.60636 0.47862 0.62937 0.0
H49 H 0.46497 0.41442 0.66016 0.0
C50 C 0.41593 0.51228 0.60182 0.0
C51 C 0.40583 0.54338 0.61967 0.0
C52 C 0.4299 0.48673 0.62335 0.0
C53 C 0.43375 0.4928 0.66274 0.0
C54 C 0.42527 0.52482 0.68041 0.0
C55 C 0.41157 0.55 0.65878 0.0
C56 C 0.4366 0.45012 0.60509 0.0
C57 C 0.4841 0.45806 0.61249 0.0
C58 C 0.51884 0.483 0.58692 0.0
C59 C 0.56227 0.48829 0.59219 0.0
C60 C 0.57208 0.47273 0.6252 0.0
C61 C 0.53717 0.44417 0.64944 0.0
C62 C 0.49308 0.43755 0.64305 0.0
H63 H 0.9325 0.39559 0.71883 0.0
H64 H 0.98832 0.43857 0.83148 0.0
H65 H 0.84543 0.38495 0.81032 0.0
H66 H 1.01138 0.4205 0.72966 0.0
H67 H 0.022 0.40713 0.77554 0.0
H68 H 0.03144 0.5008 0.71599 0.0
H69 H 0.1453 0.60352 0.77936 0.0
H70 H 0.07995 0.46506 0.81427 0.0
C71 C 0.92832 0.40116 0.74834 0.0
C72 C 0.88469 0.38823 0.76189 0.0
C73 C 0.96619 0.41969 0.7734 0.0
C74 C 0.95973 0.42538 0.81185 0.0
C75 C 0.91616 0.41275 0.82516 0.0
C76 C 0.87916 0.39453 0.80005 0.0
C77 C 1.01246 0.42941 0.7601 0.0
C78 C 0.04854 0.47844 0.76688 0.0
C79 C 0.05336 0.51106 0.74083 0.0
C80 C 0.08918 0.5559 0.74473 0.0
C81 C 0.11797 0.56871 0.7764 0.0
C82 C 0.1172 0.53589 0.80018 0.0
C83 C 0.08104 0.49095 0.79628 0.0
H84 H 0.65326 0.07396 -0.00371 0.0
H85 H 0.57996 0.03487 0.89023 0.0
H86 H 0.59627 0.1517 0.95182 0.0
H87 H 0.65748 0.01839 0.95527 0.0
H88 H 0.63701 1.01147 0.90773 0.0
H89 H 0.58887 0.98292 0.00606 0.0
H90 H 0.49708 0.84377 -0.02416 0.0
H91 H 0.58058 0.93559 0.89089 0.0
C92 C 0.63233 0.07813 -0.02464 0.0
C93 C 0.62442 0.11487 -0.02119 0.0
C94 C 0.61505 0.04812 0.94386 0.0
C95 C 0.59094 0.05609 0.91555 0.0
C96 C 0.5844 0.09362 0.91831 0.0
C97 C 0.59952 0.12156 0.95058 0.0
C98 C 0.62733 1.01141 0.93766 0.0
C99 C 0.58858 0.96508 0.9472 0.0
C100 C 0.57404 0.95613 -0.01528 0.0
C101 C 0.54145 0.91232 -0.00501 0.0
C102 C 0.52276 0.87757 0.96778 0.0
C103 C 0.53645 0.88559 0.93033 0.0
C104 C 0.5693 0.9295 0.91981 0.0
H105 H 0.62052 0.54339 0.07036 0.0
H106 H 0.60342 0.56224 0.18758 0.0
H107 H 0.61936 0.45019 0.15117 0.0
H108 H 0.62617 0.61266 0.09179 0.0
H109 H 0.63815 0.6266 0.1407 0.0
H110 H 0.54413 0.56952 0.06913 0.0
H111 H 0.45682 0.6065 0.12823 0.0
H112 H 0.5835 0.63325 0.17927 0.0
C113 C 0.61553 0.53102 0.09885 0.0
C114 C 0.62008 0.49307 0.10691 0.0
C115 C 0.60882 0.55561 0.12793 0.0
C116 C 0.60508 0.54119 0.16511 0.0
C117 C 0.60805 0.50265 0.17366 0.0
C118 C 0.6144 0.47827 0.14424 0.0
C119 C 0.61289 0.60095 0.1205 0.0
C120 C 0.56775 0.5992 0.12461 0.0
C121 C 0.53619 0.58213 0.09459 0.0
C122 C 0.49613 0.58452 0.09607 0.0
C123 C 0.4867 0.60252 0.12819 0.0
C124 C 0.51813 0.62042 0.15825 0.0
C125 C 0.5585 0.61826 0.1566 0.0
Zn126 Zn 0.71484 0.53777 0.39064 0.0
Zn127 Zn 0.67093 0.44479 0.39351 0.0
O128 O 0.73702 0.45984 0.38846 0.0
O129 O 0.77327 0.53429 0.38682 0.0
O130 O 0.63354 0.37702 0.40013 0.0
O131 O 0.68969 0.5436 0.44061 0.0
O132 O 0.65576 0.46917 0.44115 0.0
C133 C 0.77398 0.49735 0.38565 0.0
C134 C 0.65235 0.49069 0.32841 0.0
O135 O 0.64715 0.45522 0.34418 0.0
O136 O 0.67829 0.52963 0.3428 0.0
C137 C 0.64484 0.34794 0.39021 0.0
O138 O 0.68415 0.36143 0.37393 0.0
C139 C 0.66391 0.50664 0.4565 0.0
Zn140 Zn 0.22231 0.73189 0.56517 0.0
Zn141 Zn 0.2638 0.68209 0.56406 0.0
O142 O 0.31405 0.74806 0.55548 0.0
O143 O 0.28258 0.79041 0.56517 0.0
O144 O 0.29599 0.64648 0.57365 0.0
O145 O 0.18734 0.70593 0.61266 0.0
O146 O 0.21923 0.66339 0.60829 0.0
C147 C 0.31719 0.78695 0.55742 0.0
C148 C 0.20258 0.66857 0.49941 0.0
O149 O 0.22882 0.65703 0.51539 0.0
O150 O 0.19549 0.69846 0.51473 0.0
C151 C 0.32883 0.64716 0.55573 0.0
O152 O 0.34594 0.67402 0.52695 0.0
C153 C 0.19186 0.67359 0.62448 0.0
Zn154 Zn 0.51194 0.21287 0.74187 0.0
Zn155 Zn 0.6048 0.25381 0.73256 0.0
O156 O 0.59007 0.30499 0.72977 0.0
O157 O 0.51697 0.27522 0.74182 0.0
O158 O 0.67324 0.28268 0.73195 0.0
O159 O 0.51502 0.18198 0.78945 0.0
O160 O 0.58829 0.21364 0.77809 0.0
C161 C 0.55491 0.30919 0.73364 0.0
C162 C 0.54444 0.1896 0.67211 0.0
O163 O 0.5841 0.21658 0.68506 0.0
O164 O 0.50953 0.18272 0.69055 0.0
C165 C 0.70093 0.31134 0.70897 0.0
O166 O 0.68546 0.32643 0.68217 0.0
C167 C 0.55388 0.18722 0.79733 0.0
Zn168 Zn 0.32904 0.51749 0.89988 0.0
Zn169 Zn 0.38141 0.60987 0.89016 0.0
O170 O 0.31617 0.59674 0.88104 0.0
O171 O 0.27282 0.52404 0.89265 0.0
O172 O 0.42326 0.67785 0.88931 0.0
O173 O 0.35744 0.52241 0.95141 0.0
O174 O 0.39856 0.59524 0.94081 0.0
C175 C 0.27688 0.5615 0.88294 0.0
C176 C 0.39038 0.54612 0.83506 0.0
O177 O 0.40155 0.58591 0.84658 0.0
O178 O 0.36087 0.51197 0.85264 0.0
C179 C 0.42291 0.70769 0.86843 0.0
O180 O 0.39079 0.69549 0.84259 0.0
C181 C 0.38852 0.56161 0.96163 0.0
Zn182 Zn 0.83717 0.47387 0.03201 0.0
Zn183 Zn 0.78869 0.38582 0.03824 0.0
O184 O 0.73958 0.40585 0.04115 0.0
O185 O 0.78084 0.47885 0.03123 0.0
O186 O 0.75409 0.31721 0.03461 0.0
O187 O 0.86842 0.47417 -0.01516 0.0
O188 O 0.82716 0.40035 -0.01037 0.0
C189 C 0.74247 0.44446 0.03733 0.0
C190 C 0.8572 0.44041 0.0997 0.0
O191 O 0.82688 0.40156 0.08723 0.0
O192 O 0.86681 0.47544 0.08119 0.0
C193 C 0.71867 0.28954 0.05222 0.0
O194 O 0.70084 0.30526 0.07686 0.0
C195 C 0.85693 0.43497 -0.0277 0.0
Zn196 Zn 0.38806 0.83678 0.19171 0.0
Zn197 Zn 0.43718 0.80038 0.21217 0.0
O198 O 0.3702 0.74852 0.21681 0.0
O199 O 0.32991 0.77763 0.1948 0.0
O200 O 0.47404 0.76893 0.21714 0.0
O201 O 0.41884 0.86044 0.14317 0.0
O202 O 0.45975 0.82993 0.16053 0.0
C203 C 0.33162 0.74444 0.20848 0.0
C204 C 0.44222 0.87546 0.26083 0.0
O205 O 0.45614 0.84725 0.25552 0.0
O206 O 0.4138 0.87617 0.23798 0.0
C207 C 0.46256 0.73291 0.23508 0.0
O208 O 0.42588 0.71602 0.2558 0.0
C209 C 0.45088 0.85242 0.13698 0.0
C210 C 0.20737 0.67308 0.23252 0.0
C211 C 0.20676 0.64002 0.2561 0.0
C212 C 0.24718 0.70424 0.21465 0.0
C213 C 0.28841 0.70417 0.21991 0.0
H214 H 0.17779 0.67725 0.22988 0.0
H215 H 0.24607 0.73043 0.19859 0.0
S216 S 0.30256 0.6185 0.27246 0.0
N217 N 0.24879 0.60428 0.27886 0.0
N218 N 0.32422 0.66351 0.24567 0.0
C219 C 0.28729 0.66867 0.24055 0.0
C220 C 0.24642 0.63659 0.25865 0.0
C221 C 0.61064 0.23011 0.42354 0.0
C222 C 0.56387 0.21146 0.43024 0.0
C223 C 0.63619 0.27345 0.40852 0.0
C224 C 0.61601 0.30001 0.40074 0.0
H225 H 0.62783 0.21171 0.43124 0.0
H226 H 0.67244 0.28712 0.40488 0.0
S227 S 0.49389 0.26501 0.41153 0.0
N228 N 0.49777 0.22126 0.42618 0.0
N229 N 0.54574 0.30311 0.39874 0.0
C230 C 0.56884 0.28088 0.40609 0.0
C231 C 0.54277 0.23648 0.42068 0.0
C232 C 0.34338 0.5611 0.61162 0.0
C233 C 0.385 0.56627 0.59908 0.0
C234 C 0.3252 0.58654 0.59667 0.0
C235 C 0.34788 0.61843 0.56848 0.0
H236 H 0.32517 0.53785 0.63395 0.0
H237 H 0.29342 0.58164 0.60796 0.0
S238 S 0.45732 0.64319 0.5248 0.0
N239 N 0.44782 0.60414 0.55603 0.0
N240 N 0.41376 0.65224 0.52748 0.0
C241 C 0.38889 0.62276 0.55465 0.0
C242 C 0.40738 0.59658 0.57001 0.0
C243 C 0.8103 0.32098 0.74609 0.0
C244 C 0.84306 0.3658 0.73808 0.0
C245 C 0.76486 0.30286 0.73453 0.0
C246 C 0.75045 0.32886 0.71441 0.0
H247 H 0.81921 0.30094 0.76389 0.0
H248 H 0.74044 0.26892 0.74307 0.0
S249 S 0.82448 0.44656 0.68289 0.0
N250 N 0.85931 0.43464 0.70638 0.0
N251 N 0.77379 0.40043 0.68379 0.0
C252 C 0.7837 0.37254 0.70354 0.0
C253 C 0.83009 0.39109 0.71564 0.0
C254 C 0.52614 0.81121 0.91001 0.0
C255 C 0.51624 0.84608 0.90401 0.0
C256 C 0.49712 0.76713 0.89625 0.0
C257 C 0.45698 0.75614 0.87591 0.0
H258 H 0.55466 0.8173 0.92803 0.0
H259 H 0.50502 0.74097 0.90338 0.0
S260 S 0.41869 0.83691 0.8491 0.0
N261 N 0.46601 0.86806 0.87389 0.0
N262 N 0.41147 0.78521 0.84724 0.0
C263 C 0.44873 0.79163 0.86703 0.0
C264 C 0.47836 0.83663 0.88133 0.0
C265 C 0.68034 0.508 0.05993 0.0
C266 C 0.64184 0.47617 0.07943 0.0
C267 C 0.71027 0.49605 0.04318 0.0
C268 C 0.70354 0.45186 0.04558 0.0
H269 H 0.68992 0.54345 0.06028 0.0
H270 H 0.74081 0.52279 0.03072 0.0
S271 S 0.60164 0.35314 0.08463 0.0
N272 N 0.5934 0.39636 0.09308 0.0
N273 N 0.65081 0.37416 0.06275 0.0
C274 C 0.66252 0.41847 0.06113 0.0
C275 C 0.6315 0.4306 0.07782 0.0
C276 C 0.38969 0.85643 0.4785 0.0
C277 C 0.41193 0.90115 0.49343 0.0
C278 C 0.36274 0.81936 0.50086 0.0
C279 C 0.35532 0.82527 0.53882 0.0
H280 H 0.39058 0.84964 0.44872 0.0
H281 H 0.34464 0.78604 0.48745 0.0
S282 S 0.40898 0.93337 0.59358 0.0
N283 N 0.429 0.94792 0.55062 0.0
N284 N 0.37436 0.87797 0.59164 0.0
C285 C 0.37829 0.86907 0.55483 0.0
C286 C 0.40746 0.907 0.53239 0.0
C287 C 0.57488 0.39878 0.66422 0.0
C288 C 0.54555 0.41495 0.67571 0.0
C289 C 0.58046 0.36769 0.68528 0.0
C290 C 0.55564 0.34957 0.71817 0.0
H291 H 0.59218 0.40807 0.63754 0.0
H292 H 0.602 0.35527 0.67399 0.0
S293 S 0.47804 0.38302 0.76349 0.0
N294 N 0.49531 0.4138 0.72523 0.0
N295 N 0.50299 0.35187 0.7632 0.0
C296 C 0.52726 0.36604 0.73102 0.0
C297 C 0.52279 0.39934 0.71016 0.0
C298 C 0.15453 0.5289 0.8596 0.0
C299 C 0.15847 0.54698 0.8235 0.0
C300 C 0.19323 0.5355 0.87994 0.0
C301 C 0.23724 0.5614 0.8653 0.0
H302 H 0.12127 0.50859 0.87182 0.0
H303 H 0.18865 0.51943 0.90689 0.0
S304 S 0.2665 0.6135 0.77132 0.0
N305 N 0.21056 0.58923 0.77313 0.0
N306 N 0.28264 0.60419 0.81249 0.0
C307 C 0.2418 0.5806 0.82981 0.0
C308 C 0.20262 0.57273 0.80861 0.0
C309 C 0.69641 0.17995 0.00382 0.0
C310 C 0.64904 0.15216 0.0069 0.0
C311 C 0.7191 0.22343 0.02057 0.0
C312 C 0.69532 0.24062 0.04126 0.0
H313 H 0.71548 0.16953 -0.01417 0.0
H314 H 0.75522 0.24456 0.0156 0.0
S315 S 0.57168 0.1781 0.06183 0.0
N316 N 0.57973 0.14259 0.03509 0.0
N317 N 0.62225 0.22389 0.06731 0.0
C318 C 0.64852 0.21148 0.04723 0.0
C319 C 0.62541 0.16737 0.02981 0.0
C320 C 0.47085 0.62961 0.2076 0.0
C321 C 0.5115 0.64837 0.18716 0.0
C322 C 0.45725 0.6574 0.22641 0.0
C323 C 0.48339 0.70493 0.22468 0.0
H324 H 0.44798 0.59331 0.20688 0.0
H325 H 0.42425 0.64144 0.23968 0.0
S326 S 0.59555 0.77042 0.17887 0.0
N327 N 0.58009 0.71694 0.16964 0.0
N328 N 0.55453 0.76932 0.20465 0.0
C329 C 0.52594 0.72393 0.20695 0.0
C330 C 0.53999 0.69559 0.18824 0.0
C331 C 0.89186 0.54029 0.34645 0.0
C332 C 0.8925 0.50016 0.33777 0.0
C333 C 0.85484 0.53925 0.36476 0.0
C334 C 0.81675 0.49801 0.37496 0.0
H335 H 0.91869 0.57259 0.33678 0.0
H336 H 0.85504 0.57096 0.36875 0.0
S337 S 0.80601 0.38426 0.36498 0.0
N338 N 0.85519 0.41878 0.34537 0.0
N339 N 0.78539 0.41656 0.37998 0.0
C340 C 0.81887 0.45799 0.36943 0.0
C341 C 0.85669 0.45912 0.35067 0.0
C342 C 0.17847 0.60323 0.40642 0.0
C343 C 0.15145 0.61687 0.38672 0.0
C344 C 0.19351 0.61884 0.44337 0.0
C345 C 0.18242 0.64902 0.46182 0.0
H346 H 0.18875 0.58104 0.39288 0.0
H347 H 0.21503 0.60806 0.45712 0.0
S348 S 0.11214 0.69472 0.42202 0.0
N349 N 0.11414 0.66216 0.38801 0.0
N350 N 0.14153 0.69088 0.45753 0.0
C351 C 0.15438 0.66197 0.44258 0.0
C352 C 0.13916 0.6461 0.40502 0.0
C353 C 0.49067 0.13503 0.5781 0.0
C354 C 0.52857 0.1437 0.5562 0.0
C355 C 0.49582 0.14776 0.61621 0.0
C356 C 0.53909 0.16975 0.63377 0.0
H357 H 0.45708 0.12048 0.56523 0.0
H358 H 0.46586 0.14221 0.63144 0.0
S359 S 0.64807 0.19355 0.58969 0.0
N360 N 0.60975 0.17056 0.55534 0.0
N361 N 0.61991 0.19478 0.62715 0.0
C362 C 0.57688 0.1758 0.61267 0.0
C363 C 0.57151 0.16279 0.57382 0.0
C364 C 0.39517 0.49141 0.74281 0.0
C365 C 0.42531 0.52896 0.72183 0.0
C366 C 0.38643 0.4967 0.78054 0.0
C367 C 0.40755 0.53977 0.79844 0.0
H368 H 0.37589 0.45829 0.72928 0.0
H369 H 0.36084 0.46724 0.79491 0.0
S370 S 0.49608 0.64714 0.75711 0.0
N371 N 0.48105 0.60912 0.72253 0.0
N372 N 0.46526 0.61945 0.79357 0.0
C373 C 0.44096 0.57684 0.77854 0.0
C374 C 0.44962 0.57135 0.74015 0.0
C375 C 0.87317 0.38089 0.88401 0.0
C376 C 0.90778 0.41802 0.86521 0.0
C377 C 0.85815 0.38642 0.91929 0.0
C378 C 0.87697 0.42941 0.93696 0.0
H379 H 0.85639 0.34755 0.87063 0.0
H380 H 0.83038 0.35701 0.93204 0.0
S381 S 0.97181 0.53673 0.90065 0.0
N382 N 0.96279 0.49839 0.86755 0.0
N383 N 0.93508 0.50925 0.93416 0.0
C384 C 0.91346 0.46646 0.91925 0.0
C385 C 0.92881 0.46063 0.88333 0.0
C386 C 0.50074 0.92122 0.04951 0.0
C387 C 0.52522 0.90189 0.03388 0.0
C388 C 0.47745 0.90543 0.08329 0.0
C389 C 0.47827 0.87007 0.1027 0.0
H390 H 0.49778 0.94717 0.03461 0.0
H391 H 0.45798 0.92055 0.09386 0.0
S392 S 0.54115 0.81108 0.07443 0.0
N393 N 0.55154 0.84778 0.04081 0.0
N394 N 0.50825 0.81826 0.10472 0.0
C395 C 0.50463 0.85204 0.08815 0.0
C396 C 0.52797 0.8679 0.05357 0.0
C397 C 0.6489 0.48435 0.22297 0.0
C398 C 0.61362 0.4932 0.21349 0.0
C399 C 0.65931 0.48112 0.26046 0.0
C400 C 0.63549 0.48745 0.28988 0.0
H401 H 0.67029 0.48207 0.20145 0.0
H402 H 0.6877 0.47582 0.26655 0.0
S403 S 0.53801 0.5074 0.28113 0.0
N404 N 0.55224 0.50418 0.23717 0.0
N405 N 0.57393 0.50048 0.30804 0.0
C406 C 0.59942 0.49493 0.28128 0.0
C407 C 0.58798 0.49725 0.24296 0.0
C408 C 0.49114 0.92564 0.3579 0.0
C409 C 0.47044 0.95185 0.36598 0.0
C410 C 0.48389 0.90269 0.32307 0.0
C411 C 0.45588 0.90535 0.29498 0.0
H412 H 0.5114 0.92117 0.37927 0.0
H413 H 0.49878 0.88125 0.3188 0.0
S414 S 0.397 0.97283 0.30062 0.0
N415 N 0.42231 0.9806 0.34199 0.0
N416 N 0.41102 0.94005 0.27634 0.0
C417 C 0.43772 0.93411 0.30174 0.0
C418 C 0.44443 0.95673 0.33725 0.0
C419 C 0.60476 0.46511 0.54912 0.0
C420 C 0.59268 0.49775 0.55963 0.0
C421 C 0.62881 0.46913 0.51627 0.0
C422 C 0.64212 0.50612 0.49261 0.0
H423 H 0.594 0.43512 0.56571 0.0
H424 H 0.63636 0.44252 0.50908 0.0
S425 S 0.62046 0.60184 0.50815 0.0
N426 N 0.59672 0.56888 0.5445 0.0
N427 N 0.64275 0.57699 0.48245 0.0
C428 C 0.63157 0.53988 0.50327 0.0
C429 C 0.60646 0.53544 0.53676 0.0
C430 C 0.12056 0.56868 0.6806 0.0
C431 C 0.10646 0.58488 0.71142 0.0
C432 C 0.14803 0.5978 0.65272 0.0
C433 C 0.16193 0.64417 0.65424 0.0
H434 H 0.11264 0.53368 0.67917 0.0
H435 H 0.15893 0.58387 0.63001 0.0
S436 S 0.13157 0.70289 0.72775 0.0
N437 N 0.10676 0.64973 0.74125 0.0
N438 N 0.15738 0.7046 0.68788 0.0
C439 C 0.1462 0.6605 0.68387 0.0
C440 C 0.11877 0.63084 0.71274 0.0
C441 C 0.53685 0.12148 0.88694 0.0
C442 C 0.5716 0.1103 0.88489 0.0
C443 C 0.53032 0.14542 0.85804 0.0
C444 C 0.55919 0.15996 0.82676 0.0
H445 H 0.51552 0.11282 0.91157 0.0
H446 H 0.50366 0.15401 0.86089 0.0
S447 S 0.65405 0.13749 0.80762 0.0
N448 N 0.63402 0.11404 0.84861 0.0
N449 N 0.62218 0.15913 0.79452 0.0
C450 C 0.59321 0.14778 0.82399 0.0
C451 C 0.59929 0.12289 0.853 0.0
C452 C 0.42516 0.54046 0.057 0.0
C453 C 0.46925 0.5777 0.06147 0.0
C454 C 0.39897 0.53541 0.02461 0.0
C455 C 0.41582 0.56804 -0.00378 0.0
H456 H 0.41098 0.51517 0.0786 0.0
H457 H 0.36523 0.506 0.02195 0.0
S458 S 0.52947 0.67247 -0.00392 0.0
N459 N 0.52866 0.64781 0.03591 0.0
N460 N 0.47973 0.63915 -0.02468 0.0
C461 C 0.4599 0.60576 0.00092 0.0
C462 C 0.48657 0.61038 0.03351 0.0
C463 C 0.93949 0.49922 0.18046 0.0
C464 C 0.92375 0.46697 0.20904 0.0
C465 C 0.91894 0.48912 0.14494 0.0
C466 C 0.88109 0.44646 0.13622 0.0
H467 H 0.96653 0.53366 0.18594 0.0
H468 H 0.93208 0.51592 0.12458 0.0
S469 S 0.82901 0.34832 0.19967 0.0
N470 N 0.87036 0.38915 0.22534 0.0
N471 N 0.83054 0.37026 0.15818 0.0
C472 C 0.86608 0.41292 0.16376 0.0
C473 C 0.8875 0.42323 0.20026 0.0
loop_
_geom_bond_atom_site_label_1
_geom_bond_atom_site_label_2
_geom_bond_distance
_geom_bond_site_symmetry_2
_ccdc_geom_bond_type
H0 C8 0.930 . S
H1 C11 0.930 . S
H2 C13 0.930 . S
H3 C14 0.970 1_655 S
H4 C14 0.970 . S
H5 C16 0.930 . S
H6 C18 0.930 . S
H7 C20 0.930 . S
C8 H0 0.930 . S
C8 C9 1.382 . S
C8 C10 1.426 . S
C9 C8 1.382 . S
C9 C13 1.389 . S
C10 C8 1.426 . S
C10 C11 1.375 . S
C10 C14 1.532 1_655 S
C11 H1 0.930 . S
C11 C10 1.375 . S
C11 C12 1.416 . S
C12 C11 1.416 . S
C12 C13 1.371 . S
C13 H2 0.930 . S
C13 C9 1.389 . S
C13 C12 1.371 . S
C14 H3 0.970 1_455 S
C14 H4 0.970 . S
C14 C10 1.532 1_455 S
C14 C15 1.499 . S
C15 C14 1.499 . S
C15 C16 1.370 . S
C15 C20 1.415 . S
C16 H5 0.930 . S
C16 C15 1.370 . S
C16 C17 1.407 . S
C17 C16 1.407 . S
C17 C18 1.365 . S
C18 H6 0.930 . S
C18 C17 1.365 . S
C18 C19 1.393 . S
C19 C18 1.393 . S
C19 C20 1.387 . S
C20 H7 0.930 . S
C20 C15 1.415 . S
C20 C19 1.387 . S
H21 C29 0.930 . S
H22 C32 0.930 . S
H23 C34 0.930 . S
H24 C35 0.968 . S
H25 C35 0.970 . S
H26 C37 0.930 . S
H27 C39 0.930 . S
H28 C41 0.930 . S
C29 H21 0.930 . S
C29 C30 1.382 . S
C29 C31 1.426 . S
C30 C29 1.382 . S
C30 C34 1.389 . S
C31 C29 1.426 . S
C31 C32 1.375 . S
C31 C35 1.532 1_565 S
C32 H22 0.930 . S
C32 C31 1.375 . S
C32 C33 1.416 . S
C33 C32 1.416 . S
C33 C34 1.371 . S
C34 H23 0.930 . S
C34 C30 1.389 . S
C34 C33 1.371 . S
C35 H24 0.968 . S
C35 H25 0.970 . S
C35 C31 1.532 1_545 S
C35 C36 1.499 . S
C36 C35 1.499 . S
C36 C37 1.370 . S
C36 C41 1.415 . S
C37 H26 0.930 . S
C37 C36 1.370 . S
C37 C38 1.407 . S
C38 C37 1.407 . S
C38 C39 1.365 . S
C39 H27 0.930 . S
C39 C38 1.365 . S
C39 C40 1.393 . S
C40 C39 1.393 . S
C40 C41 1.387 . S
C41 H28 0.930 . S
C41 C36 1.415 . S
C41 C40 1.387 . S
H42 C50 0.930 . S
H43 C53 0.930 . S
H44 C55 0.930 . S
H45 C56 0.970 . S
H46 C56 0.970 . S
H47 C58 0.930 . S
H48 C60 0.930 . S
H49 C62 0.930 . S
C50 H42 0.930 . S
C50 C51 1.382 . S
C50 C52 1.426 . S
C51 C50 1.382 . S
C51 C55 1.389 . S
C52 C50 1.426 . S
C52 C53 1.375 . S
C52 C56 1.532 . S
C53 H43 0.930 . S
C53 C52 1.375 . S
C53 C54 1.416 . S
C54 C53 1.416 . S
C54 C55 1.371 . S
C55 H44 0.930 . S
C55 C51 1.389 . S
C55 C54 1.371 . S
C56 H45 0.970 . S
C56 H46 0.970 . S
C56 C52 1.532 . S
C56 C57 1.499 . S
C57 C56 1.499 . S
C57 C58 1.370 . S
C57 C62 1.415 . S
C58 H47 0.930 . S
C58 C57 1.370 . S
C58 C59 1.407 . S
C59 C58 1.407 . S
C59 C60 1.365 . S
C60 H48 0.930 . S
C60 C59 1.365 . S
C60 C61 1.393 . S
C61 C60 1.393 . S
C61 C62 1.387 . S
C62 H49 0.930 . S
C62 C57 1.415 . S
C62 C61 1.387 . S
H63 C71 0.930 . S
H64 C74 0.930 . S
H65 C76 0.930 . S
H66 C77 0.969 . S
H67 C77 0.970 . S
H68 C79 0.930 . S
H69 C81 0.930 . S
H70 C83 0.930 . S
C71 H63 0.930 . S
C71 C72 1.382 . S
C71 C73 1.426 . S
C72 C71 1.382 . S
C72 C76 1.389 . S
C73 C71 1.426 . S
C73 C74 1.375 . S
C73 C77 1.532 1_655 S
C74 H64 0.930 . S
C74 C73 1.375 . S
C74 C75 1.416 . S
C75 C74 1.416 . S
C75 C76 1.371 . S
C76 H65 0.930 . S
C76 C72 1.389 . S
C76 C75 1.371 . S
C77 H66 0.969 . S
C77 H67 0.970 . S
C77 C73 1.532 1_455 S
C77 C78 1.499 . S
C78 C77 1.499 . S
C78 C79 1.370 . S
C78 C83 1.415 . S
C79 H68 0.930 . S
C79 C78 1.370 . S
C79 C80 1.407 . S
C80 C79 1.407 . S
C80 C81 1.365 . S
C81 H69 0.930 . S
C81 C80 1.365 . S
C81 C82 1.393 . S
C82 C81 1.393 . S
C82 C83 1.387 . S
C83 H70 0.930 . S
C83 C78 1.415 . S
C83 C82 1.387 . S
H84 C92 0.930 . S
H85 C95 0.930 . S
H86 C97 0.930 . S
H87 C98 0.970 1_554 S
H88 C98 0.970 . S
H89 C100 0.930 . S
H90 C102 0.930 . S
H91 C104 0.930 . S
C92 H84 0.930 . S
C92 C93 1.387 . S
C92 C94 1.426 1_554 S
C93 C92 1.387 . S
C93 C97 1.373 1_554 S
C94 C92 1.426 1_556 S
C94 C95 1.375 . S
C94 C98 1.532 . S
C95 H85 0.930 . S
C95 C94 1.375 . S
C95 C96 1.416 . S
C96 C95 1.416 . S
C96 C97 1.371 . S
C97 H86 0.930 . S
C97 C93 1.373 1_556 S
C97 C96 1.371 . S
C98 H87 0.970 1_556 S
C98 H88 0.970 . S
C98 C94 1.532 . S
C98 C99 1.499 1_546 S
C99 C98 1.499 1_564 S
C99 C100 1.370 . S
C99 C104 1.415 1_554 S
C100 H89 0.930 . S
C100 C99 1.370 . S
C100 C101 1.407 . S
C101 C100 1.407 . S
C101 C102 1.365 . S
C102 H90 0.930 . S
C102 C101 1.365 . S
C102 C103 1.393 1_554 S
C103 C102 1.393 1_556 S
C103 C104 1.387 . S
C104 H91 0.930 . S
C104 C99 1.415 1_556 S
C104 C103 1.387 . S
H105 C113 0.930 . S
H106 C116 0.930 . S
H107 C118 0.930 . S
H108 C119 0.970 . S
H109 C119 0.970 . S
H110 C121 0.930 . S
H111 C123 0.930 . S
H112 C125 0.930 . S
C113 H105 0.930 . S
C113 C114 1.382 . S
C113 C115 1.426 . S
C114 C113 1.382 . S
C114 C118 1.389 . S
C115 C113 1.426 . S
C115 C116 1.375 . S
C115 C119 1.532 . S
C116 H106 0.930 . S
C116 C115 1.375 . S
C116 C117 1.416 . S
C117 C116 1.416 . S
C117 C118 1.371 . S
C118 H107 0.930 . S
C118 C114 1.389 . S
C118 C117 1.371 . S
C119 H108 0.970 . S
C119 H109 0.970 . S
C119 C115 1.532 . S
C119 C120 1.499 . S
C120 C119 1.499 . S
C120 C121 1.370 . S
C120 C125 1.415 . S
C121 H110 0.930 . S
C121 C120 1.370 . S
C121 C122 1.407 . S
C122 C121 1.407 . S
C122 C123 1.365 . S
C123 H111 0.930 . S
C123 C122 1.365 . S
C123 C124 1.393 . S
C124 C123 1.393 . S
C124 C125 1.387 . S
C125 H112 0.930 . S
C125 C120 1.415 . S
C125 C124 1.387 . S
Zn126 O129 2.031 . S
Zn126 O131 2.049 . S
Zn126 O136 2.067 . S
Zn127 O128 1.962 . S
Zn127 O130 1.986 . S
Zn127 O132 1.996 . S
Zn127 O135 1.943 . S
O128 Zn127 1.962 . S
O128 C133 1.254 . S
O129 Zn126 2.031 . S
O129 C133 1.269 . S
O130 Zn127 1.986 . S
O130 C137 1.262 . S
O131 Zn126 2.049 . S
O131 C139 1.260 . S
O132 Zn127 1.996 . S
O132 C139 1.257 . S
C133 O128 1.254 . S
C133 O129 1.269 . S
C134 O135 1.249 . S
C134 O136 1.270 . S
O135 Zn127 1.943 . S
O135 C134 1.249 . S
O136 Zn126 2.067 . S
O136 C134 1.270 . S
C137 O130 1.262 . S
C137 O138 1.232 . S
O138 C137 1.232 . S
C139 O131 1.260 . S
C139 O132 1.257 . S
Zn140 O143 2.031 . S
Zn140 O145 2.049 . S
Zn140 O150 2.067 . S
Zn141 O142 1.962 . S
Zn141 O144 1.986 . S
Zn141 O146 1.996 . S
Zn141 O149 1.943 . S
O142 Zn141 1.962 . S
O142 C147 1.254 . S
O143 Zn140 2.031 . S
O143 C147 1.269 . S
O144 Zn141 1.986 . S
O144 C151 1.262 . S
O145 Zn140 2.049 . S
O145 C153 1.260 . S
O146 Zn141 1.996 . S
O146 C153 1.257 . S
C147 O142 1.254 . S
C147 O143 1.269 . S
C148 O149 1.249 . S
C148 O150 1.270 . S
O149 Zn141 1.943 . S
O149 C148 1.249 . S
O150 Zn140 2.067 . S
O150 C148 1.270 . S
C151 O144 1.262 . S
C151 O152 1.232 . S
O152 C151 1.232 . S
C153 O145 1.260 . S
C153 O146 1.257 . S
Zn154 O157 2.031 . S
Zn154 O159 2.049 . S
Zn154 O164 2.067 . S
Zn155 O156 1.962 . S
Zn155 O158 1.986 . S
Zn155 O160 1.996 . S
Zn155 O163 1.943 . S
O156 Zn155 1.962 . S
O156 C161 1.254 . S
O157 Zn154 2.031 . S
O157 C161 1.269 . S
O158 Zn155 1.986 . S
O158 C165 1.262 . S
O159 Zn154 2.049 . S
O159 C167 1.260 . S
O160 Zn155 1.996 . S
O160 C167 1.257 . S
C161 O156 1.254 . S
C161 O157 1.269 . S
C162 O163 1.249 . S
C162 O164 1.270 . S
O163 Zn155 1.943 . S
O163 C162 1.249 . S
O164 Zn154 2.067 . S
O164 C162 1.270 . S
C165 O158 1.262 . S
C165 O166 1.232 . S
O166 C165 1.232 . S
C167 O159 1.260 . S
C167 O160 1.257 . S
Zn168 O171 2.031 . S
Zn168 O173 2.049 . S
Zn168 O178 2.067 . S
Zn169 O170 1.962 . S
Zn169 O172 1.986 . S
Zn169 O174 1.996 . S
Zn169 O177 1.943 . S
O170 Zn169 1.962 . S
O170 C175 1.254 . S
O171 Zn168 2.031 . S
O171 C175 1.269 . S
O172 Zn169 1.986 . S
O172 C179 1.262 . S
O173 Zn168 2.049 . S
O173 C181 1.260 . S
O174 Zn169 1.996 . S
O174 C181 1.257 . S
C175 O170 1.254 . S
C175 O171 1.269 . S
C176 O177 1.249 . S
C176 O178 1.270 . S
O177 Zn169 1.943 . S
O177 C176 1.249 . S
O178 Zn168 2.067 . S
O178 C176 1.270 . S
C179 O172 1.262 . S
C179 O180 1.232 . S
O180 C179 1.232 . S
C181 O173 1.260 . S
C181 O174 1.257 . S
Zn182 O185 2.031 . S
Zn182 O187 2.049 . S
Zn182 O192 2.067 . S
Zn183 O184 1.962 . S
Zn183 O186 1.986 . S
Zn183 O188 1.996 . S
Zn183 O191 1.943 . S
O184 Zn183 1.962 . S
O184 C189 1.254 . S
O185 Zn182 2.031 . S
O185 C189 1.269 . S
O186 Zn183 1.986 . S
O186 C193 1.262 . S
O187 Zn182 2.049 . S
O187 C195 1.260 . S
O188 Zn183 1.996 . S
O188 C195 1.257 . S
C189 O184 1.254 . S
C189 O185 1.269 . S
C190 O191 1.249 . S
C190 O192 1.270 . S
O191 Zn183 1.943 . S
O191 C190 1.249 . S
O192 Zn182 2.067 . S
O192 C190 1.270 . S
C193 O186 1.262 . S
C193 O194 1.232 . S
O194 C193 1.232 . S
C195 O187 1.260 . S
C195 O188 1.257 . S
Zn196 O199 2.031 . S
Zn196 O201 2.049 . S
Zn196 O206 2.067 . S
Zn197 O198 1.962 . S
Zn197 O200 1.986 . S
Zn197 O202 1.996 . S
Zn197 O205 1.943 . S
O198 Zn197 1.962 . S
O198 C203 1.254 . S
O199 Zn196 2.031 . S
O199 C203 1.269 . S
O200 Zn197 1.986 . S
O200 C207 1.262 . S
O201 Zn196 2.049 . S
O201 C209 1.260 . S
O202 Zn197 1.996 . S
O202 C209 1.257 . S
C203 O198 1.254 . S
C203 O199 1.269 . S
C204 O205 1.249 . S
C204 O206 1.270 . S
O205 Zn197 1.943 . S
O205 C204 1.249 . S
O206 Zn196 2.067 . S
O206 C204 1.270 . S
C207 O200 1.262 . S
C207 O208 1.232 . S
O208 C207 1.232 . S
C209 O201 1.260 . S
C209 O202 1.257 . S
C210 C211 1.369 . S
C210 C212 1.419 . S
C210 H214 0.930 . S
C211 C210 1.369 . S
C211 C220 1.429 . S
C212 C210 1.419 . S
C212 C213 1.363 . S
C212 H215 0.929 . S
C213 C212 1.363 . S
C213 C219 1.428 . S
H214 C210 0.930 . S
H215 C212 0.929 . S
S216 N217 1.613 . S
S216 N218 1.610 . S
N217 S216 1.613 . S
N217 C220 1.350 . S
N218 S216 1.610 . S
N218 C219 1.351 . S
C219 C213 1.428 . S
C219 N218 1.351 . S
C219 C220 1.434 . S
C220 C211 1.429 . S
C220 N217 1.350 . S
C220 C219 1.434 . S
C221 C222 1.369 . S
C221 C223 1.419 . S
C221 H225 0.930 . S
C222 C221 1.369 . S
C222 C231 1.429 . S
C223 C221 1.419 . S
C223 C224 1.363 . S
C223 H226 0.929 . S
C224 C223 1.363 . S
C224 C230 1.428 . S
H225 C221 0.930 . S
H226 C223 0.929 . S
S227 N228 1.613 . S
S227 N229 1.610 . S
N228 S227 1.613 . S
N228 C231 1.350 . S
N229 S227 1.610 . S
N229 C230 1.351 . S
C230 C224 1.428 . S
C230 N229 1.351 . S
C230 C231 1.434 . S
C231 C222 1.429 . S
C231 N228 1.350 . S
C231 C230 1.434 . S
C232 C233 1.369 . S
C232 C234 1.419 . S
C232 H236 0.930 . S
C233 C232 1.369 . S
C233 C242 1.429 . S
C234 C232 1.419 . S
C234 C235 1.363 . S
C234 H237 0.929 . S
C235 C234 1.363 . S
C235 C241 1.428 . S
H236 C232 0.930 . S
H237 C234 0.929 . S
S238 N239 1.613 . S
S238 N240 1.610 . S
N239 S238 1.613 . S
N239 C242 1.350 . S
N240 S238 1.610 . S
N240 C241 1.351 . S
C241 C235 1.428 . S
C241 N240 1.351 . S
C241 C242 1.434 . S
C242 C233 1.429 . S
C242 N239 1.350 . S
C242 C241 1.434 . S
C243 C244 1.369 . S
C243 C245 1.419 . S
C243 H247 0.930 . S
C244 C243 1.369 . S
C244 C253 1.429 . S
C245 C243 1.419 . S
C245 C246 1.363 . S
C245 H248 0.929 . S
C246 C245 1.363 . S
C246 C252 1.428 . S
H247 C243 0.930 . S
H248 C245 0.929 . S
S249 N250 1.613 . S
S249 N251 1.610 . S
N250 S249 1.613 . S
N250 C253 1.350 . S
N251 S249 1.610 . S
N251 C252 1.351 . S
C252 C246 1.428 . S
C252 N251 1.351 . S
C252 C253 1.434 . S
C253 C244 1.429 . S
C253 N250 1.350 . S
C253 C252 1.434 . S
C254 C255 1.369 . S
C254 C256 1.419 . S
C254 H258 0.930 1_556 S
C255 C254 1.369 . S
C255 C264 1.429 . S
C256 C254 1.419 . S
C256 C257 1.363 . S
C256 H259 0.929 . S
C257 C256 1.363 . S
C257 C263 1.428 . S
H258 C254 0.930 1_554 S
H259 C256 0.929 . S
S260 N261 1.613 . S
S260 N262 1.610 . S
N261 S260 1.613 . S
N261 C264 1.350 . S
N262 S260 1.610 . S
N262 C263 1.351 . S
C263 C257 1.428 . S
C263 N262 1.351 . S
C263 C264 1.434 . S
C264 C255 1.429 . S
C264 N261 1.350 . S
C264 C263 1.434 . S
C265 C266 1.369 . S
C265 C267 1.419 . S
C265 H269 0.930 . S
C266 C265 1.369 . S
C266 C275 1.429 . S
C267 C265 1.419 . S
C267 C268 1.363 . S
C267 H270 0.929 . S
C268 C267 1.363 . S
C268 C274 1.428 . S
H269 C265 0.930 . S
H270 C267 0.929 . S
S271 N272 1.613 . S
S271 N273 1.610 . S
N272 S271 1.613 . S
N272 C275 1.350 . S
N273 S271 1.610 . S
N273 C274 1.351 . S
C274 C268 1.428 . S
C274 N273 1.351 . S
C274 C275 1.434 . S
C275 C266 1.429 . S
C275 N272 1.350 . S
C275 C274 1.434 . S
C276 C277 1.369 . S
C276 C278 1.419 . S
C276 H280 0.930 . S
C277 C276 1.369 . S
C277 C286 1.429 . S
C278 C276 1.419 . S
C278 C279 1.363 . S
C278 H281 0.929 . S
C279 C278 1.363 . S
C279 C285 1.428 . S
H280 C276 0.930 . S
H281 C278 0.929 . S
S282 N283 1.613 . S
S282 N284 1.610 . S
N283 S282 1.613 . S
N283 C286 1.350 . S
N284 S282 1.610 . S
N284 C285 1.351 . S
C285 C279 1.428 . S
C285 N284 1.351 . S
C285 C286 1.434 . S
C286 C277 1.429 . S
C286 N283 1.350 . S
C286 C285 1.434 . S
C287 C288 1.369 . S
C287 C289 1.419 . S
C287 H291 0.930 . S
C288 C287 1.369 . S
C288 C297 1.429 . S
C289 C287 1.419 . S
C289 C290 1.363 . S
C289 H292 0.929 . S
C290 C289 1.363 . S
C290 C296 1.428 . S
H291 C287 0.930 . S
H292 C289 0.929 . S
S293 N294 1.613 . S
S293 N295 1.610 . S
N294 S293 1.613 . S
N294 C297 1.350 . S
N295 S293 1.610 . S
N295 C296 1.351 . S
C296 C290 1.428 . S
C296 N295 1.351 . S
C296 C297 1.434 . S
C297 C288 1.429 . S
C297 N294 1.350 . S
C297 C296 1.434 . S
C298 C299 1.369 . S
C298 C300 1.419 . S
C298 H302 0.930 . S
C299 C298 1.369 . S
C299 C308 1.429 . S
C300 C298 1.419 . S
C300 C301 1.363 . S
C300 H303 0.929 . S
C301 C300 1.363 . S
C301 C307 1.428 . S
H302 C298 0.930 . S
H303 C300 0.929 . S
S304 N305 1.613 . S
S304 N306 1.610 . S
N305 S304 1.613 . S
N305 C308 1.350 . S
N306 S304 1.610 . S
N306 C307 1.351 . S
C307 C301 1.428 . S
C307 N306 1.351 . S
C307 C308 1.434 . S
C308 C299 1.429 . S
C308 N305 1.350 . S
C308 C307 1.434 . S
C309 C310 1.369 . S
C309 C311 1.418 . S
C309 H313 0.931 1_554 S
C310 C309 1.369 . S
C310 C319 1.429 . S
C311 C309 1.418 . S
C311 C312 1.363 . S
C311 H314 0.929 1_554 S
C312 C311 1.363 . S
C312 C318 1.428 . S
H313 C309 0.931 1_556 S
H314 C311 0.929 1_556 S
S315 N316 1.613 . S
S315 N317 1.610 . S
N316 S315 1.613 . S
N316 C319 1.350 . S
N317 S315 1.610 . S
N317 C318 1.351 . S
C318 C312 1.428 . S
C318 N317 1.351 . S
C318 C319 1.434 . S
C319 C310 1.429 . S
C319 N316 1.350 . S
C319 C318 1.434 . S
C320 C321 1.369 . S
C320 C322 1.419 . S
C320 H324 0.930 . S
C321 C320 1.369 . S
C321 C330 1.429 . S
C322 C320 1.419 . S
C322 C323 1.363 . S
C322 H325 0.929 . S
C323 C322 1.363 . S
C323 C329 1.428 . S
H324 C320 0.930 . S
H325 C322 0.929 . S
S326 N327 1.613 . S
S326 N328 1.610 . S
N327 S326 1.613 . S
N327 C330 1.350 . S
N328 S326 1.610 . S
N328 C329 1.351 . S
C329 C323 1.428 . S
C329 N328 1.351 . S
C329 C330 1.434 . S
C330 C321 1.429 . S
C330 N327 1.350 . S
C330 C329 1.434 . S
C331 C332 1.369 . S
C331 C333 1.419 . S
C331 H335 0.930 . S
C332 C331 1.369 . S
C332 C341 1.429 . S
C333 C331 1.419 . S
C333 C334 1.363 . S
C333 H336 0.929 . S
C334 C333 1.363 . S
C334 C340 1.428 . S
H335 C331 0.930 . S
H336 C333 0.929 . S
S337 N338 1.613 . S
S337 N339 1.610 . S
N338 S337 1.613 . S
N338 C341 1.350 . S
N339 S337 1.610 . S
N339 C340 1.351 . S
C340 C334 1.428 . S
C340 N339 1.351 . S
C340 C341 1.434 . S
C341 C332 1.429 . S
C341 N338 1.350 . S
C341 C340 1.434 . S
C342 C343 1.369 . S
C342 C344 1.419 . S
C342 H346 0.930 . S
C343 C342 1.369 . S
C343 C352 1.429 . S
C344 C342 1.419 . S
C344 C345 1.363 . S
C344 H347 0.929 . S
C345 C344 1.363 . S
C345 C351 1.428 . S
H346 C342 0.930 . S
H347 C344 0.929 . S
S348 N349 1.613 . S
S348 N350 1.610 . S
N349 S348 1.613 . S
N349 C352 1.350 . S
N350 S348 1.610 . S
N350 C351 1.351 . S
C351 C345 1.428 . S
C351 N350 1.351 . S
C351 C352 1.434 . S
C352 C343 1.429 . S
C352 N349 1.350 . S
C352 C351 1.434 . S
C353 C354 1.369 . S
C353 C355 1.419 . S
C353 H357 0.930 . S
C354 C353 1.369 . S
C354 C363 1.429 . S
C355 C353 1.419 . S
C355 C356 1.363 . S
C355 H358 0.929 . S
C356 C355 1.363 . S
C356 C362 1.428 . S
H357 C353 0.930 . S
H358 C355 0.929 . S
S359 N360 1.613 . S
S359 N361 1.610 . S
N360 S359 1.613 . S
N360 C363 1.350 . S
N361 S359 1.610 . S
N361 C362 1.351 . S
C362 C356 1.428 . S
C362 N361 1.351 . S
C362 C363 1.434 . S
C363 C354 1.429 . S
C363 N360 1.350 . S
C363 C362 1.434 . S
C364 C365 1.369 . S
C364 C366 1.419 . S
C364 H368 0.930 . S
C365 C364 1.369 . S
C365 C374 1.429 . S
C366 C364 1.419 . S
C366 C367 1.363 . S
C366 H369 0.929 . S
C367 C366 1.363 . S
C367 C373 1.428 . S
H368 C364 0.930 . S
H369 C366 0.929 . S
S370 N371 1.613 . S
S370 N372 1.610 . S
N371 S370 1.613 . S
N371 C374 1.350 . S
N372 S370 1.610 . S
N372 C373 1.351 . S
C373 C367 1.428 . S
C373 N372 1.351 . S
C373 C374 1.434 . S
C374 C365 1.429 . S
C374 N371 1.350 . S
C374 C373 1.434 . S
C375 C376 1.369 . S
C375 C377 1.419 . S
C375 H379 0.930 . S
C376 C375 1.369 . S
C376 C385 1.429 . S
C377 C375 1.419 . S
C377 C378 1.363 . S
C377 H380 0.929 . S
C378 C377 1.363 . S
C378 C384 1.428 . S
H379 C375 0.930 . S
H380 C377 0.929 . S
S381 N382 1.613 1_554 S
S381 N383 1.610 . S
N382 S381 1.613 1_556 S
N382 C385 1.350 . S
N383 S381 1.610 . S
N383 C384 1.351 1_554 S
C384 C378 1.428 . S
C384 N383 1.351 1_556 S
C384 C385 1.434 . S
C385 C376 1.429 . S
C385 N382 1.350 . S
C385 C384 1.434 . S
C386 C387 1.369 . S
C386 C388 1.419 . S
C386 H390 0.930 . S
C387 C386 1.369 . S
C387 C396 1.429 . S
C388 C386 1.419 . S
C388 C389 1.363 . S
C388 H391 0.929 . S
C389 C388 1.363 . S
C389 C395 1.428 . S
H390 C386 0.930 . S
H391 C388 0.929 . S
S392 N393 1.613 . S
S392 N394 1.610 . S
N393 S392 1.613 . S
N393 C396 1.350 . S
N394 S392 1.610 . S
N394 C395 1.351 . S
C395 C389 1.428 . S
C395 N394 1.351 . S
C395 C396 1.434 . S
C396 C387 1.429 . S
C396 N393 1.350 . S
C396 C395 1.434 . S
C397 C398 1.369 . S
C397 C399 1.419 . S
C397 H401 0.930 . S
C398 C397 1.369 . S
C398 C407 1.429 . S
C399 C397 1.419 . S
C399 C400 1.363 . S
C399 H402 0.929 . S
C400 C399 1.363 . S
C400 C406 1.428 . S
H401 C397 0.930 . S
H402 C399 0.929 . S
S403 N404 1.613 . S
S403 N405 1.610 . S
N404 S403 1.613 . S
N404 C407 1.350 . S
N405 S403 1.610 . S
N405 C406 1.351 . S
C406 C400 1.428 . S
C406 N405 1.351 . S
C406 C407 1.434 . S
C407 C398 1.429 . S
C407 N404 1.350 . S
C407 C406 1.434 . S
C408 C409 1.369 . S
C408 C410 1.419 . S
C408 H412 0.930 . S
C409 C408 1.369 . S
C409 C418 1.429 . S
C410 C408 1.419 . S
C410 C411 1.363 . S
C410 H413 0.929 . S
C411 C410 1.363 . S
C411 C417 1.428 . S
H412 C408 0.930 . S
H413 C410 0.929 . S
S414 N415 1.613 . S
S414 N416 1.610 . S
N415 S414 1.613 . S
N415 C418 1.350 . S
N416 S414 1.610 . S
N416 C417 1.351 . S
C417 C411 1.428 . S
C417 N416 1.351 . S
C417 C418 1.434 . S
C418 C409 1.429 . S
C418 N415 1.350 . S
C418 C417 1.434 . S
C419 C420 1.369 . S
C419 C421 1.419 . S
C419 H423 0.930 . S
C420 C419 1.369 . S
C420 C429 1.429 . S
C421 C419 1.419 . S
C421 C422 1.363 . S
C421 H424 0.929 . S
C422 C421 1.363 . S
C422 C428 1.428 . S
H423 C419 0.930 . S
H424 C421 0.929 . S
S425 N426 1.613 . S
S425 N427 1.610 . S
N426 S425 1.613 . S
N426 C429 1.350 . S
N427 S425 1.610 . S
N427 C428 1.351 . S
C428 C422 1.428 . S
C428 N427 1.351 . S
C428 C429 1.434 . S
C429 C420 1.429 . S
C429 N426 1.350 . S
C429 C428 1.434 . S
C430 C431 1.369 . S
C430 C432 1.419 . S
C430 H434 0.930 . S
C431 C430 1.369 . S
C431 C440 1.429 . S
C432 C430 1.419 . S
C432 C433 1.363 . S
C432 H435 0.929 . S
C433 C432 1.363 . S
C433 C439 1.428 . S
H434 C430 0.930 . S
H435 C432 0.929 . S
S436 N437 1.613 . S
S436 N438 1.610 . S
N437 S436 1.613 . S
N437 C440 1.350 . S
N438 S436 1.610 . S
N438 C439 1.351 . S
C439 C433 1.428 . S
C439 N438 1.351 . S
C439 C440 1.434 . S
C440 C431 1.429 . S
C440 N437 1.350 . S
C440 C439 1.434 . S
C441 C442 1.369 . S
C441 C443 1.419 . S
C441 H445 0.930 . S
C442 C441 1.369 . S
C442 C451 1.429 . S
C443 C441 1.419 . S
C443 C444 1.363 . S
C443 H446 0.929 . S
C444 C443 1.363 . S
C444 C450 1.428 . S
H445 C441 0.930 . S
H446 C443 0.929 . S
S447 N448 1.613 . S
S447 N449 1.610 . S
N448 S447 1.613 . S
N448 C451 1.350 . S
N449 S447 1.610 . S
N449 C450 1.351 . S
C450 C444 1.428 . S
C450 N449 1.351 . S
C450 C451 1.434 . S
C451 C442 1.429 . S
C451 N448 1.350 . S
C451 C450 1.434 . S
C452 C453 1.369 . S
C452 C454 1.419 . S
C452 H456 0.930 . S
C453 C452 1.369 . S
C453 C462 1.429 . S
C454 C452 1.419 . S
C454 C455 1.363 . S
C454 H457 0.929 . S
C455 C454 1.363 . S
C455 C461 1.428 . S
H456 C452 0.930 . S
H457 C454 0.929 . S
S458 N459 1.613 . S
S458 N460 1.610 1_554 S
N459 S458 1.613 . S
N459 C462 1.350 . S
N460 S458 1.610 1_556 S
N460 C461 1.351 1_556 S
C461 C455 1.428 . S
C461 N460 1.351 1_554 S
C461 C462 1.434 . S
C462 C453 1.429 . S
C462 N459 1.350 . S
C462 C461 1.434 . S
C463 C464 1.369 . S
C463 C465 1.419 . S
C463 H467 0.930 . S
C464 C463 1.369 . S
C464 C473 1.429 . S
C465 C463 1.419 . S
C465 C466 1.363 . S
C465 H468 0.929 . S
C466 C465 1.363 . S
C466 C472 1.428 . S
H467 C463 0.930 . S
H468 C465 0.929 . S
S469 N470 1.613 . S
S469 N471 1.610 . S
N470 S469 1.613 . S
N470 C473 1.350 . S
N471 S469 1.610 . S
N471 C472 1.351 . S
C472 C466 1.428 . S
C472 N471 1.351 . S
C472 C473 1.434 . S
C473 C464 1.429 . S
C473 N470 1.350 . S
C473 C472 1.434 . S
C213 C203 1.565 . S
C211 C19 1.485 . S
C222 C40 1.432 . S
C224 C137 1.490 . S
C233 C51 1.381 . S
C235 C151 1.445 . S
C244 C72 1.400 . S
C246 C165 1.478 . S
C257 C179 1.497 . S
C255 C103 1.434 . S
C266 C114 1.432 . S
C268 C189 1.536 . S
C277 C30 1.480 . S
C279 C147 1.578 . S
C288 C61 1.519 . S
C290 C161 1.622 . S
C299 C82 1.461 . S
C301 C175 1.572 . S
C312 C193 1.490 . S
C310 C93 1.419 . S
C323 C207 1.519 . S
C321 C124 1.442 . S
C334 C133 1.555 . S
C332 C9 1.460 . S
C343 C17 1.453 . S
C345 C148 1.452 . S
C354 C38 1.499 . S
C356 C162 1.509 . S
C367 C176 1.509 . S
C365 C54 1.497 . S
C376 C75 1.427 . S
C378 C195 1.441 1_556 S
C389 C209 1.418 . S
C387 C101 1.394 . S
C400 C134 1.435 . S
C398 C117 1.429 . S
C411 C204 1.439 . S
C409 C33 1.418 . S
C420 C59 1.362 . S
C422 C139 1.378 . S
C433 C153 1.393 . S
C431 C80 1.376 . S
C442 C96 1.399 . S
C444 C167 1.429 . S
C453 C122 1.421 . S
C455 C181 1.442 1_554 S
C464 C12 1.457 . S
C466 C190 1.461 . S
