# Generated by pormake.
# Topology ptr, (4,4)-cn, num edge types: 1
# Building blocks:
#     Node 0, Type 0, BuildingBlock: CEKHIL_clean_sbu_0, # of connection points: 4
#     Node 1, Type 0, BuildingBlock: CEKHIL_clean_sbu_0, # of connection points: 4
#     Node 2, Type 0, BuildingBlock: CEKHIL_clean_sbu_0, # of connection points: 4
#     Node 3, Type 0, BuildingBlock: CEKHIL_clean_sbu_0, # of connection points: 4
#     Node 4, Type 0, BuildingBlock: CEKHIL_clean_sbu_0, # of connection points: 4
#     Node 5, Type 0, BuildingBlock: CEKHIL_clean_sbu_0, # of connection points: 4
#     Node 6, Type 0, BuildingBlock: CEKHIL_clean_sbu_0, # of connection points: 4
#     Node 7, Type 0, BuildingBlock: CEKHIL_clean_sbu_0, # of connection points: 4
#     Node 8, Type 0, BuildingBlock: CEKHIL_clean_sbu_0, # of connection points: 4
#     Node 9, Type 0, BuildingBlock: CEKHIL_clean_sbu_0, # of connection points: 4
#     Node 10, Type 0, BuildingBlock: CEKHIL_clean_sbu_0, # of connection points: 4
#     Node 11, Type 0, BuildingBlock: CEKHIL_clean_sbu_0, # of connection points: 4
#     Node 12, Type 0, BuildingBlock: CEKHIL_clean_sbu_0, # of connection points: 4
#     Node 13, Type 0, BuildingBlock: CEKHIL_clean_sbu_0, # of connection points: 4
#     Node 14, Type 0, BuildingBlock: CEKHIL_clean_sbu_0, # of connection points: 4
#     Node 15, Type 0, BuildingBlock: CEKHIL_clean_sbu_0, # of connection points: 4
#     Node 16, Type 0, BuildingBlock: CEKHIL_clean_sbu_0, # of connection points: 4
#     Node 17, Type 0, BuildingBlock: CEKHIL_clean_sbu_0, # of connection points: 4
#     Node 18, Type 1, BuildingBlock: AZAVOO_clean_linker_0, # of connection points: 4
#     Node 19, Type 1, BuildingBlock: AZAVOO_clean_linker_0, # of connection points: 4
#     Node 20, Type 1, BuildingBlock: AZAVOO_clean_linker_0, # of connection points: 4
#     Node 21, Type 1, BuildingBlock: AZAVOO_clean_linker_0, # of connection points: 4
#     Node 22, Type 1, BuildingBlock: AZAVOO_clean_linker_0, # of connection points: 4
#     Node 23, Type 1, BuildingBlock: AZAVOO_clean_linker_0, # of connection points: 4
#     Node 24, Type 1, BuildingBlock: AZAVOO_clean_linker_0, # of connection points: 4
#     Node 25, Type 1, BuildingBlock: AZAVOO_clean_linker_0, # of connection points: 4
#     Node 26, Type 1, BuildingBlock: AZAVOO_clean_linker_0, # of connection points: 4
#     Node 27, Type 1, BuildingBlock: AZAVOO_clean_linker_0, # of connection points: 4
#     Node 28, Type 1, BuildingBlock: AZAVOO_clean_linker_0, # of connection points: 4
#     Node 29, Type 1, BuildingBlock: AZAVOO_clean_linker_0, # of connection points: 4
#     Node 30, Type 1, BuildingBlock: AZAVOO_clean_linker_0, # of connection points: 4
#     Node 31, Type 1, BuildingBlock: AZAVOO_clean_linker_0, # of connection points: 4
#     Node 32, Type 1, BuildingBlock: AZAVOO_clean_linker_0, # of connection points: 4
#     Node 33, Type 1, BuildingBlock: AZAVOO_clean_linker_0, # of connection points: 4
#     Node 34, Type 1, BuildingBlock: AZAVOO_clean_linker_0, # of connection points: 4
#     Node 35, Type 1, BuildingBlock: AZAVOO_clean_linker_0, # of connection points: 4
#     Edge 36, Type (0, 1), BuildingBlock: AJUNOK_clean_linker_0, # of connection points: 2
#     Edge 37, Type (0, 1), BuildingBlock: AJUNOK_clean_linker_0, # of connection points: 2
#     Edge 38, Type (0, 1), BuildingBlock: AJUNOK_clean_linker_0, # of connection points: 2
#     Edge 39, Type (0, 1), BuildingBlock: AJUNOK_clean_linker_0, # of connection points: 2
#     Edge 40, Type (0, 1), BuildingBlock: AJUNOK_clean_linker_0, # of connection points: 2
#     Edge 41, Type (0, 1), BuildingBlock: AJUNOK_clean_linker_0, # of connection points: 2
#     Edge 42, Type (0, 1), BuildingBlock: AJUNOK_clean_linker_0, # of connection points: 2
#     Edge 43, Type (0, 1), BuildingBlock: AJUNOK_clean_linker_0, # of connection points: 2
#     Edge 44, Type (0, 1), BuildingBlock: AJUNOK_clean_linker_0, # of connection points: 2
#     Edge 45, Type (0, 1), BuildingBlock: AJUNOK_clean_linker_0, # of connection points: 2
#     Edge 46, Type (0, 1), BuildingBlock: AJUNOK_clean_linker_0, # of connection points: 2
#     Edge 47, Type (0, 1), BuildingBlock: AJUNOK_clean_linker_0, # of connection points: 2
#     Edge 48, Type (0, 1), BuildingBlock: AJUNOK_clean_linker_0, # of connection points: 2
#     Edge 49, Type (0, 1), BuildingBlock: AJUNOK_clean_linker_0, # of connection points: 2
#     Edge 50, Type (0, 1), BuildingBlock: AJUNOK_clean_linker_0, # of connection points: 2
#     Edge 51, Type (0, 1), BuildingBlock: AJUNOK_clean_linker_0, # of connection points: 2
#     Edge 52, Type (0, 1), BuildingBlock: AJUNOK_clean_linker_0, # of connection points: 2
#     Edge 53, Type (0, 1), BuildingBlock: AJUNOK_clean_linker_0, # of connection points: 2
#     Edge 54, Type (0, 1), BuildingBlock: AJUNOK_clean_linker_0, # of connection points: 2
#     Edge 55, Type (0, 1), BuildingBlock: AJUNOK_clean_linker_0, # of connection points: 2
#     Edge 56, Type (0, 1), BuildingBlock: AJUNOK_clean_linker_0, # of connection points: 2
#     Edge 57, Type (0, 1), BuildingBlock: AJUNOK_clean_linker_0, # of connection points: 2
#     Edge 58, Type (0, 1), BuildingBlock: AJUNOK_clean_linker_0, # of connection points: 2
#     Edge 59, Type (0, 1), BuildingBlock: AJUNOK_clean_linker_0, # of connection points: 2
#     Edge 60, Type (0, 1), BuildingBlock: AJUNOK_clean_linker_0, # of connection points: 2
#     Edge 61, Type (0, 1), BuildingBlock: AJUNOK_clean_linker_0, # of connection points: 2
#     Edge 62, Type (0, 1), BuildingBlock: AJUNOK_clean_linker_0, # of connection points: 2
#     Edge 63, Type (0, 1), BuildingBlock: AJUNOK_clean_linker_0, # of connection points: 2
#     Edge 64, Type (0, 1), BuildingBlock: AJUNOK_clean_linker_0, # of connection points: 2
#     Edge 65, Type (0, 1), BuildingBlock: AJUNOK_clean_linker_0, # of connection points: 2
#     Edge 66, Type (0, 1), BuildingBlock: AJUNOK_clean_linker_0, # of connection points: 2
#     Edge 67, Type (0, 1), BuildingBlock: AJUNOK_clean_linker_0, # of connection points: 2
#     Edge 68, Type (0, 1), BuildingBlock: AJUNOK_clean_linker_0, # of connection points: 2
#     Edge 69, Type (0, 1), BuildingBlock: AJUNOK_clean_linker_0, # of connection points: 2
#     Edge 70, Type (0, 1), BuildingBlock: AJUNOK_clean_linker_0, # of connection points: 2
#     Edge 71, Type (0, 1), BuildingBlock: AJUNOK_clean_linker_0, # of connection points: 2
#     Edge 72, Type (0, 1), BuildingBlock: AJUNOK_clean_linker_0, # of connection points: 2
#     Edge 73, Type (0, 1), BuildingBlock: AJUNOK_clean_linker_0, # of connection points: 2
#     Edge 74, Type (0, 1), BuildingBlock: AJUNOK_clean_linker_0, # of connection points: 2
#     Edge 75, Type (0, 1), BuildingBlock: AJUNOK_clean_linker_0, # of connection points: 2
#     Edge 76, Type (0, 1), BuildingBlock: AJUNOK_clean_linker_0, # of connection points: 2
#     Edge 77, Type (0, 1), BuildingBlock: AJUNOK_clean_linker_0, # of connection points: 2
#     Edge 78, Type (0, 1), BuildingBlock: AJUNOK_clean_linker_0, # of connection points: 2
#     Edge 79, Type (0, 1), BuildingBlock: AJUNOK_clean_linker_0, # of connection points: 2
#     Edge 80, Type (0, 1), BuildingBlock: AJUNOK_clean_linker_0, # of connection points: 2
#     Edge 81, Type (0, 1), BuildingBlock: AJUNOK_clean_linker_0, # of connection points: 2
#     Edge 82, Type (0, 1), BuildingBlock: AJUNOK_clean_linker_0, # of connection points: 2
#     Edge 83, Type (0, 1), BuildingBlock: AJUNOK_clean_linker_0, # of connection points: 2
#     Edge 84, Type (0, 1), BuildingBlock: AJUNOK_clean_linker_0, # of connection points: 2
#     Edge 85, Type (0, 1), BuildingBlock: AJUNOK_clean_linker_0, # of connection points: 2
#     Edge 86, Type (0, 1), BuildingBlock: AJUNOK_clean_linker_0, # of connection points: 2
#     Edge 87, Type (0, 1), BuildingBlock: AJUNOK_clean_linker_0, # of connection points: 2
#     Edge 88, Type (0, 1), BuildingBlock: AJUNOK_clean_linker_0, # of connection points: 2
#     Edge 89, Type (0, 1), BuildingBlock: AJUNOK_clean_linker_0, # of connection points: 2
#     Edge 90, Type (0, 1), BuildingBlock: AJUNOK_clean_linker_0, # of connection points: 2
#     Edge 91, Type (0, 1), BuildingBlock: AJUNOK_clean_linker_0, # of connection points: 2
#     Edge 92, Type (0, 1), BuildingBlock: AJUNOK_clean_linker_0, # of connection points: 2
#     Edge 93, Type (0, 1), BuildingBlock: AJUNOK_clean_linker_0, # of connection points: 2
#     Edge 94, Type (0, 1), BuildingBlock: AJUNOK_clean_linker_0, # of connection points: 2
#     Edge 95, Type (0, 1), BuildingBlock: AJUNOK_clean_linker_0, # of connection points: 2
#     Edge 96, Type (0, 1), BuildingBlock: AJUNOK_clean_linker_0, # of connection points: 2
#     Edge 97, Type (0, 1), BuildingBlock: AJUNOK_clean_linker_0, # of connection points: 2
#     Edge 98, Type (0, 1), BuildingBlock: AJUNOK_clean_linker_0, # of connection points: 2
#     Edge 99, Type (0, 1), BuildingBlock: AJUNOK_clean_linker_0, # of connection points: 2
#     Edge 100, Type (0, 1), BuildingBlock: AJUNOK_clean_linker_0, # of connection points: 2
#     Edge 101, Type (0, 1), BuildingBlock: AJUNOK_clean_linker_0, # of connection points: 2
#     Edge 102, Type (0, 1), BuildingBlock: AJUNOK_clean_linker_0, # of connection points: 2
#     Edge 103, Type (0, 1), BuildingBlock: AJUNOK_clean_linker_0, # of connection points: 2
#     Edge 104, Type (0, 1), BuildingBlock: AJUNOK_clean_linker_0, # of connection points: 2
#     Edge 105, Type (0, 1), BuildingBlock: AJUNOK_clean_linker_0, # of connection points: 2
#     Edge 106, Type (0, 1), BuildingBlock: AJUNOK_clean_linker_0, # of connection points: 2
#     Edge 107, Type (0, 1), BuildingBlock: AJUNOK_clean_linker_0, # of connection points: 2
# Relax obj value: 0.055
# Max RMSD: 0.175
# Mean RMSD: 0.116
data_MOF--net-ptr--node1-CEKHIL_clean_sbu_0--node2-AZAVOO_clean_linker_0--edge1-AJUNOK_clean_linker_0
_symmetry_space_group_name_H-M    P1
_symmetry_Int_Tables_number       1
_symmetry_cell_setting            triclinic
loop_
_symmetry_equiv_pos_as_xyz
'x, y, z'
_cell_length_a     64.603778
_cell_length_b     62.414513
_cell_length_c     53.990223
_cell_angle_alpha  94.102968
_cell_angle_beta   92.04633
_cell_angle_gamma 121.2342
loop_
_atom_site_label
_atom_site_type_symbol
_atom_site_fract_x
_atom_site_fract_y
_atom_site_fract_z
_atom_type_partial_charge
Co0 Co 0.01065 0.35199 0.02068 0.0
O1 O 0.0199 0.33682 0.0449 0.0
O2 O 0.04489 0.37395 0.03174 0.0
C3 C 0.98937 0.31697 0.99407 0.0
O4 O 0.00709 0.37282 0.99511 0.0
Co5 Co 0.9555 0.33211 0.01008 0.0
O6 O 0.96716 0.35574 0.98425 0.0
C7 C 0.98258 0.36746 0.05453 0.0
C8 C 0.04152 0.35663 0.04602 0.0
C9 C 0.98944 0.37199 0.9822 0.0
O10 O 0.00231 0.36939 0.04778 0.0
O11 O 0.9617 0.35254 0.04285 0.0
O12 O 0.01281 0.33067 0.99368 0.0
O13 O 0.98013 0.32338 0.01173 0.0
Co14 Co 0.63765 0.62423 0.06191 0.0
O15 O 0.65823 0.64065 0.03628 0.0
O16 O 0.65615 0.60861 0.05361 0.0
C17 C 0.64701 0.66019 0.08462 0.0
O18 O 0.6188 0.60324 0.08949 0.0
Co19 Co 0.59474 0.63199 0.07202 0.0
O20 O 0.59571 0.61805 0.10353 0.0
C21 C 0.59075 0.59853 0.0282 0.0
C22 C 0.66568 0.62505 0.03751 0.0
C23 C 0.60494 0.60443 0.10542 0.0
O24 O 0.61086 0.6006 0.03583 0.0
O25 O 0.58205 0.61069 0.03909 0.0
O26 O 0.66099 0.65108 0.08697 0.0
O27 O 0.62904 0.64819 0.06779 0.0
Co28 Co 0.3739 0.00226 0.02636 0.0
O29 O 0.35482 0.01133 0.00691 0.0
O30 O 0.39118 0.03869 0.02608 0.0
C31 C 0.34319 0.97555 0.04797 0.0
O32 O 0.39782 0.99914 0.04939 0.0
Co33 Co 0.36137 0.94733 0.01888 0.0
O34 O 0.38498 0.95792 0.04834 0.0
C35 C 0.38889 0.98121 0.98198 0.0
C36 C 0.37207 0.03454 0.01262 0.0
C37 C 0.39932 0.98085 0.05704 0.0
O38 O 0.39003 0.99939 0.996 0.0
O39 O 0.37639 0.95822 0.98662 0.0
O40 O 0.35537 -0.00036 0.05461 0.0
O41 O 0.34828 0.96858 0.02703 0.0
Co42 Co 0.99863 0.64615 0.04623 0.0
O43 O 0.99227 0.66016 0.01853 0.0
O44 O 0.96392 0.62895 0.03731 0.0
C45 C 0.02574 0.68356 0.06776 0.0
O46 O 0.9986 0.62721 0.07566 0.0
Co47 Co 0.05067 0.65651 0.05859 0.0
O48 O 0.03737 0.64241 0.08998 0.0
C49 C 0.01914 0.61908 0.01656 0.0
C50 C 0.9694 0.64394 0.01984 0.0
C51 C 0.0146 0.62875 0.09187 0.0
O52 O 0.00128 0.62144 0.02258 0.0
O53 O 0.04057 0.63245 0.02761 0.0
O54 O 0.00259 0.674 0.06928 0.0
O55 O 0.03137 0.67123 0.05208 0.0
Co56 Co 0.36077 0.37043 0.00626 0.0
O57 O 0.33989 0.35468 0.03202 0.0
O58 O 0.34304 0.38702 0.01436 0.0
C59 C 0.35051 0.33389 0.98395 0.0
O60 O 0.37999 0.39083 0.97839 0.0
Co61 Co 0.40258 0.36074 0.99612 0.0
O62 O 0.40234 0.37499 0.96463 0.0
C63 C 0.40759 0.3948 0.03994 0.0
C64 C 0.33299 0.37071 0.03048 0.0
C65 C 0.3937 0.38913 0.96255 0.0
O66 O 0.38797 0.39379 0.03224 0.0
O67 O 0.41534 0.38168 0.02915 0.0
O68 O 0.33696 0.34349 0.98136 0.0
O69 O 0.36851 0.34581 0.0007 0.0
Co70 Co 0.62965 0.00028 0.05399 0.0
O71 O 0.64844 0.99445 0.07773 0.0
O72 O 0.61393 0.96449 0.0571 0.0
C73 C 0.66105 0.02616 0.03282 0.0
O74 O 0.60613 -0.00041 0.02714 0.0
Co75 Co 0.63886 0.05399 0.05383 0.0
O76 O 0.61593 0.0395 0.02354 0.0
C77 C 0.61195 0.02346 0.09329 0.0
C78 C 0.63224 0.97068 0.07306 0.0
C79 C 0.60346 0.01596 0.01656 0.0
O80 O 0.61143 0.00447 0.08161 0.0
O81 O 0.62376 0.04563 0.08635 0.0
O82 O 0.65036 0.00188 0.02828 0.0
O83 O 0.65403 0.03407 0.05169 0.0
Co84 Co 0.67272 0.68968 0.36069 0.0
O85 O 0.68016 0.67471 0.38669 0.0
O86 O 0.7075 0.70807 0.3695 0.0
C87 C 0.64682 0.65309 0.33732 0.0
O88 O 0.67148 0.70995 0.33313 0.0
Co89 Co 0.61913 0.67637 0.35049 0.0
O90 O 0.63242 0.69774 0.323 0.0
C91 C 0.65013 0.71253 0.39338 0.0
C92 C 0.70277 0.692 0.38576 0.0
C93 C 0.65502 0.71111 0.32012 0.0
O94 O 0.66869 0.71197 0.38638 0.0
O95 O 0.62866 0.69857 0.38261 0.0
O96 O 0.67008 0.66385 0.33558 0.0
O97 O 0.6405 0.66366 0.35425 0.0
Co98 Co 0.31009 0.95737 0.40563 0.0
O99 O 0.33312 0.97543 0.38222 0.0
O100 O 0.32468 0.93857 0.39398 0.0
C101 C 0.32245 0.99106 0.43346 0.0
O102 O 0.28842 0.93381 0.43027 0.0
Co103 Co 0.27092 0.9699 0.41863 0.0
O104 O 0.26676 0.94948 0.44653 0.0
C105 C 0.26515 0.94105 0.37069 0.0
C106 C 0.33707 0.95704 0.38062 0.0
C107 C 0.27439 0.93433 0.44631 0.0
O108 O 0.28354 0.93952 0.37768 0.0
O109 O 0.25808 0.9537 0.38363 0.0
O110 O 0.33411 0.97923 0.43314 0.0
O111 O 0.3053 0.98358 0.41596 0.0
Co112 Co 0.04393 0.33909 0.35801 0.0
O113 O 0.02659 0.35007 0.3384 0.0
O114 O 0.06348 0.3754 0.35747 0.0
C115 C 0.01245 0.31407 0.37974 0.0
O116 O 0.06645 0.33415 0.38122 0.0
Co117 Co 0.02805 0.28309 0.35179 0.0
O118 O 0.04856 0.29253 0.3836 0.0
C119 C 0.05615 0.31516 0.31375 0.0
C120 C 0.04507 0.37271 0.34385 0.0
C121 C 0.06477 0.31526 0.3913 0.0
O122 O 0.05908 0.33432 0.32762 0.0
O123 O 0.04277 0.29251 0.31913 0.0
O124 O 0.0258 0.33815 0.38623 0.0
O125 O 0.01692 0.30625 0.35889 0.0
Co126 Co 0.66037 0.97866 0.38535 0.0
O127 O 0.65348 0.99458 0.3599 0.0
O128 O 0.62561 0.96092 0.37618 0.0
C129 C 0.68669 0.01472 0.40943 0.0
O130 O 0.66115 0.95766 0.41239 0.0
Co131 Co 0.71374 0.99098 0.39465 0.0
O132 O 0.7 0.96827 0.42115 0.0
C133 C 0.68325 0.95871 0.34994 0.0
C134 C 0.63073 0.97751 0.3604 0.0
C135 C 0.67746 0.9556 0.4246 0.0
O136 O 0.66423 0.9566 0.35909 0.0
O137 O 0.70488 0.97377 0.35986 0.0
O138 O 0.66345 0.00439 0.41107 0.0
O139 O 0.69268 0.00415 0.39219 0.0
Co140 Co 0.02896 0.70539 0.34363 0.0
O141 O 0.00682 0.68782 0.36787 0.0
O142 O 0.01026 0.7209 0.35161 0.0
C143 C 0.02065 0.67033 0.3196 0.0
O144 O 0.04943 0.72771 0.31746 0.0
Co145 Co 0.07223 0.69771 0.33509 0.0
O146 O 0.07357 0.71383 0.30448 0.0
C147 C 0.07377 0.72846 0.38012 0.0
C148 C 0.99967 0.70368 0.36679 0.0
C149 C 0.0644 0.72749 0.30241 0.0
O150 O 0.05467 0.72781 0.37126 0.0
O151 O 0.08249 0.71628 0.36932 0.0
O152 O 0.00671 0.67948 0.31705 0.0
O153 O 0.03768 0.68156 0.33743 0.0
Co154 Co 0.29693 0.33244 0.38351 0.0
O155 O 0.31632 0.32577 0.40545 0.0
O156 O 0.28081 0.29651 0.38621 0.0
C157 C 0.32753 0.35816 0.36138 0.0
O158 O 0.27273 0.33283 0.35846 0.0
Co159 Co 0.30744 0.38675 0.38595 0.0
O160 O 0.28287 0.37313 0.35695 0.0
C161 C 0.28251 0.35591 0.42579 0.0
C162 C 0.29975 0.30211 0.40093 0.0
C163 C 0.26983 0.34973 0.3494 0.0
O164 O 0.28019 0.33673 0.41255 0.0
O165 O 0.29488 0.37835 0.41962 0.0
O166 O 0.31622 0.33387 0.35636 0.0
O167 O 0.32162 0.36606 0.38116 0.0
Co168 Co 0.34645 0.02156 0.68715 0.0
O169 O 0.35325 0.00918 0.71595 0.0
O170 O 0.38098 0.04105 0.69735 0.0
C171 C 0.32183 0.98298 0.66686 0.0
O172 O 0.34617 0.03931 0.65695 0.0
Co173 Co 0.2936 0.00671 0.67076 0.0
O174 O 0.30784 0.02285 0.64041 0.0
C175 C 0.32076 0.04335 0.7149 0.0
C176 C 0.3759 0.02643 0.71511 0.0
C177 C 0.33069 0.03759 0.64 0.0
O178 O 0.34066 0.04494 0.70924 0.0
O179 O 0.29998 0.02767 0.70332 0.0
O180 O 0.34516 0.99418 0.66542 0.0
O181 O 0.31453 0.99485 0.6809 0.0
Co182 Co 0.97657 0.28858 0.73447 0.0
O183 O 0.99831 0.307 0.71025 0.0
O184 O 0.99326 0.27186 0.72315 0.0
C185 C 0.98725 0.32228 0.76156 0.0
O186 O 0.95641 0.26509 0.75999 0.0
Co187 Co 0.93524 0.29824 0.74738 0.0
O188 O 0.93369 0.27959 0.77606 0.0
C189 C 0.93076 0.26918 0.69994 0.0
C190 C 0.00421 0.29003 0.70906 0.0
C191 C 0.94243 0.26542 0.77624 0.0
O192 O 0.94975 0.26873 0.70706 0.0
O193 O 0.92298 0.28134 0.71256 0.0
O194 O 1.00046 0.31215 0.76136 0.0
O195 O 0.96967 0.31326 0.74429 0.0
Co196 Co 0.70838 0.66784 0.69206 0.0
O197 O 0.68942 0.6753 0.67024 0.0
O198 O 0.72465 0.70394 0.69049 0.0
C199 C 0.67758 0.64133 0.71358 0.0
O200 O 0.73223 0.66695 0.7172 0.0
Co201 Co 0.69822 0.61366 0.68877 0.0
O202 O 0.7221 0.62664 0.71836 0.0
C203 C 0.72364 0.64535 0.64953 0.0
C204 C 0.70605 0.69887 0.67553 0.0
C205 C 0.73497 0.64996 0.72627 0.0
O206 O 0.72565 0.66433 0.66295 0.0
O207 O 0.71132 0.6228 0.65544 0.0
O208 O 0.68864 0.66553 0.71913 0.0
O209 O 0.68361 0.63395 0.69355 0.0
Co210 Co 0.32607 0.30603 0.71278 0.0
O211 O 0.31966 0.31938 0.68461 0.0
O212 O 0.29171 0.28622 0.70156 0.0
C213 C 0.34925 0.34354 0.73524 0.0
O214 O 0.32626 0.28738 0.74235 0.0
Co215 Co 0.379 0.3215 0.72902 0.0
O216 O 0.36466 0.30584 0.75948 0.0
C217 C 0.3523 0.284 0.68544 0.0
C218 C 0.2971 0.30161 0.68447 0.0
C219 C 0.34195 0.29026 0.75978 0.0
O220 O 0.33285 0.28394 0.68992 0.0
O221 O 0.37283 0.29867 0.69793 0.0
O222 O 0.32579 0.33169 0.73555 0.0
O223 O 0.35769 0.33339 0.72037 0.0
Co224 Co 0.69642 0.0483 0.67506 0.0
O225 O 0.67574 0.0331 0.70112 0.0
O226 O 0.67902 0.06528 0.68282 0.0
C227 C 0.68604 0.0118 0.65269 0.0
O228 O 0.71579 0.06836 0.64708 0.0
Co229 Co 0.73807 0.03809 0.66572 0.0
O230 O 0.73843 0.05254 0.63417 0.0
C231 C 0.74204 0.07101 0.71003 0.0
C232 C 0.66928 0.04947 0.69943 0.0
C233 C 0.72961 0.06644 0.63155 0.0
O234 O 0.72361 0.07154 0.70105 0.0
O235 O 0.74947 0.05741 0.69962 0.0
O236 O 0.67246 0.02138 0.65023 0.0
O237 O 0.70391 0.0235 0.66964 0.0
Co238 Co 0.95979 0.66387 0.71814 0.0
O239 O 0.97542 0.65469 0.74215 0.0
O240 O 0.94111 0.62762 0.71941 0.0
C241 C 0.99351 0.68914 0.69958 0.0
O242 O 0.93929 0.6673 0.69079 0.0
Co243 Co 0.97424 0.71963 0.7213 0.0
O244 O 0.95586 0.70878 0.68804 0.0
C245 C 0.94333 0.68775 0.75787 0.0
C246 C 0.95796 0.63157 0.73633 0.0
C247 C 0.94097 0.68579 0.67985 0.0
O248 O 0.94113 0.66855 0.74481 0.0
O249 O 0.95765 0.71043 0.75305 0.0
O250 O 0.98137 0.66494 0.69357 0.0
O251 O 0.9863 0.69694 0.71831 0.0
H252 H 0.18108 0.38579 0.00569 0.0
H253 H 0.30581 0.32064 0.20319 0.0
H254 H 0.17225 0.39341 0.13797 0.0
H255 H 0.14194 0.39648 0.11311 0.0
H256 H 0.08765 0.3204 0.126 0.0
H257 H 0.11889 0.3167 0.14878 0.0
H258 H 0.21143 0.3937 0.11101 0.0
H259 H 0.2046 0.39755 0.06711 0.0
H260 H 0.14201 0.32161 0.05891 0.0
H261 H 0.14927 0.31788 0.10273 0.0
H262 H 0.25057 0.39308 0.14402 0.0
H263 H 0.28131 0.39901 0.11526 0.0
H264 H 0.23185 0.32468 0.07778 0.0
H265 H 0.20128 0.31882 0.1067 0.0
H266 H 0.2475 0.38293 0.20043 0.0
H267 H 0.28241 0.38067 0.21556 0.0
H268 H 0.25188 0.3079 0.17291 0.0
H269 H 0.21693 0.3103 0.15817 0.0
H270 H 0.20583 0.3788 0.22689 0.0
H271 H 0.22035 0.376 0.26815 0.0
H272 H 0.19891 0.29882 0.24599 0.0
H273 H 0.18546 0.30231 0.20421 0.0
H274 H 0.15691 0.37866 0.19719 0.0
H275 H 0.12688 0.37102 0.22736 0.0
H276 H 0.11253 0.29554 0.23037 0.0
H277 H 0.14129 0.30279 0.19922 0.0
O278 O 0.18352 0.38383 0.02297 0.0
O279 O 0.15137 0.3448 0.01982 0.0
O280 O 0.30713 0.35948 0.21906 0.0
O281 O 0.29232 0.32212 0.19731 0.0
C282 C 0.16785 0.3511 0.15372 0.0
C283 C 0.18489 0.3531 0.13674 0.0
C284 C 0.20525 0.35198 0.14489 0.0
C285 C 0.20819 0.34785 0.16974 0.0
C286 C 0.19057 0.34446 0.18642 0.0
C287 C 0.17024 0.34595 0.17847 0.0
C288 C 0.14789 0.35474 0.14497 0.0
C289 C 0.15368 0.37755 0.13582 0.0
C290 C 0.1362 0.37937 0.12179 0.0
C291 C 0.11223 0.35869 0.11746 0.0
C292 C 0.10602 0.33656 0.12859 0.0
C293 C 0.12375 0.33451 0.14198 0.0
C294 C 0.1809 0.35548 0.11001 0.0
C295 C 0.19638 0.37786 0.09965 0.0
C296 C 0.19237 0.38003 0.07459 0.0
C297 C 0.17275 0.35988 0.05949 0.0
C298 C 0.15728 0.33749 0.07 0.0
C299 C 0.16137 0.33531 0.09502 0.0
C300 C 0.22376 0.35551 0.12742 0.0
C301 C 0.2464 0.37813 0.12954 0.0
C302 C 0.26379 0.38158 0.11301 0.0
C303 C 0.25881 0.3624 0.09417 0.0
C304 C 0.2361 0.33976 0.09212 0.0
C305 C 0.21867 0.33639 0.10857 0.0
C306 C 0.2297 0.34676 0.17829 0.0
C307 C 0.24839 0.36652 0.19442 0.0
C308 C 0.26831 0.36518 0.203 0.0
C309 C 0.26992 0.34407 0.19547 0.0
C310 C 0.25121 0.32441 0.17909 0.0
C311 C 0.23127 0.32575 0.17059 0.0
C312 C 0.19451 0.34075 0.21264 0.0
C313 C 0.20366 0.36109 0.23118 0.0
C314 C 0.21182 0.35935 0.25482 0.0
C315 C 0.21054 0.33704 0.26052 0.0
C316 C 0.20021 0.31626 0.24218 0.0
C317 C 0.19235 0.31814 0.21841 0.0
C318 C 0.15132 0.34128 0.19593 0.0
C319 C 0.14691 0.36033 0.20402 0.0
C320 C 0.12988 0.35598 0.22139 0.0
C321 C 0.11705 0.33255 0.23111 0.0
C322 C 0.1215 0.31354 0.22281 0.0
C323 C 0.13823 0.31778 0.20524 0.0
C324 C 0.16849 0.36228 0.03291 0.0
C325 C 0.29095 0.34246 0.20469 0.0
H326 H 0.64469 0.76937 0.01946 0.0
H327 H 0.70368 0.99681 0.22731 0.0
H328 H 0.63629 0.77625 0.16979 0.0
H329 H 0.63047 0.73583 0.15316 0.0
H330 H 0.70447 0.77377 0.13311 0.0
H331 H 0.7104 0.81439 0.15027 0.0
H332 H 0.63521 0.79537 0.12292 0.0
H333 H 0.63213 0.77874 0.07964 0.0
H334 H 0.70515 0.84012 0.07216 0.0
H335 H 0.70812 0.85631 0.11565 0.0
H336 H 0.63113 0.84252 0.13029 0.0
H337 H 0.61978 0.86832 0.10806 0.0
H338 H 0.69475 0.92942 0.11612 0.0
H339 H 0.70589 0.90368 0.13875 0.0
H340 H 0.63976 0.87663 0.17829 0.0
H341 H 0.64158 0.91602 0.19124 0.0
H342 H 0.71834 0.95161 0.21313 0.0
H343 H 0.71634 0.91226 0.19966 0.0
H344 H 0.63799 0.84791 0.22095 0.0
H345 H 0.63832 0.87195 0.25898 0.0
H346 H 0.71497 0.90121 0.27447 0.0
H347 H 0.71462 0.87763 0.23593 0.0
H348 H 0.63732 0.7971 0.21435 0.0
H349 H 0.63453 0.76881 0.24476 0.0
H350 H 0.7124 0.80201 0.24785 0.0
H351 H 0.71468 0.82927 0.21603 0.0
O352 O 0.64623 0.7764 0.03648 0.0
O353 O 0.6836 0.80867 0.03338 0.0
O354 O 0.66307 0.96207 0.20984 0.0
O355 O 0.70252 0.98113 0.22162 0.0
C356 C 0.67584 0.82252 0.16806 0.0
C357 C 0.67427 0.83624 0.14906 0.0
C358 C 0.67446 0.85863 0.15548 0.0
C359 C 0.67679 0.86757 0.1808 0.0
C360 C 0.67738 0.85329 0.19964 0.0
C361 C 0.67712 0.8309 0.19335 0.0
C362 C 0.67378 0.79811 0.16128 0.0
C363 C 0.65148 0.77577 0.16255 0.0
C364 C 0.64815 0.7528 0.15298 0.0
C365 C 0.66702 0.75194 0.14186 0.0
C366 C 0.68978 0.77413 0.14181 0.0
C367 C 0.69313 0.7972 0.15144 0.0
C368 C 0.67196 0.8269 0.12244 0.0
C369 C 0.65053 0.80515 0.11192 0.0
C370 C 0.64881 0.79573 0.08718 0.0
C371 C 0.66842 0.80805 0.07245 0.0
C372 C 0.68973 0.83013 0.08299 0.0
C373 C 0.69146 0.83946 0.10778 0.0
C374 C 0.66929 0.87134 0.13621 0.0
C375 C 0.64521 0.86117 0.12648 0.0
C376 C 0.63873 0.87593 0.11393 0.0
C377 C 0.6563 0.90101 0.11101 0.0
C378 C 0.68079 0.9103 0.11872 0.0
C379 C 0.68723 0.89559 0.13133 0.0
C380 C 0.67796 0.89168 0.18785 0.0
C381 C 0.65699 0.89305 0.1856 0.0
C382 C 0.65807 0.91552 0.19315 0.0
C383 C 0.68012 0.93696 0.20326 0.0
C384 C 0.70109 0.93548 0.2054 0.0
C385 C 0.70001 0.91304 0.19772 0.0
C386 C 0.67632 0.86127 0.22573 0.0
C387 C 0.65466 0.85888 0.23302 0.0
C388 C 0.65489 0.87265 0.25463 0.0
C389 C 0.6768 0.88888 0.26919 0.0
C390 C 0.69798 0.88927 0.26313 0.0
C391 C 0.69776 0.87559 0.24141 0.0
C392 C 0.67616 0.81512 0.21303 0.0
C393 C 0.65375 0.7982 0.22157 0.0
C394 C 0.65225 0.78213 0.239 0.0
C395 C 0.67324 0.78302 0.24869 0.0
C396 C 0.69582 0.8004 0.24036 0.0
C397 C 0.69722 0.8162 0.22247 0.0
C398 C 0.66663 0.79783 0.04626 0.0
C399 C 0.68129 0.96075 0.21172 0.0
H400 H 0.14434 0.82878 0.00471 0.0
H401 H 0.33767 0.98022 0.22658 0.0
H402 H 0.12306 0.83764 0.135 0.0
H403 H 0.08742 0.79838 0.115 0.0
H404 H 0.11596 0.7557 0.14501 0.0
H405 H 0.15147 0.79477 0.16473 0.0
H406 H 0.17102 0.87875 0.10658 0.0
H407 H 0.15966 0.864 0.06217 0.0
H408 H 0.16342 0.79829 0.07424 0.0
H409 H 0.17517 0.81348 0.11849 0.0
H410 H 0.22073 0.92345 0.13604 0.0
H411 H 0.25425 0.94537 0.1097 0.0
H412 H 0.26131 0.88015 0.10135 0.0
H413 H 0.22755 0.85824 0.12745 0.0
H414 H 0.22011 0.93222 0.19331 0.0
H415 H 0.25973 0.96808 0.21022 0.0
H416 H 0.29143 0.9222 0.19854 0.0
H417 H 0.25169 0.88653 0.18162 0.0
H418 H 0.18303 0.90109 0.22587 0.0
H419 H 0.19928 0.91661 0.26942 0.0
H420 H 0.23372 0.87286 0.26642 0.0
H421 H 0.21843 0.85857 0.22259 0.0
H422 H 0.12609 0.84548 0.19743 0.0
H423 H 0.0968 0.81601 0.22452 0.0
H424 H 0.14549 0.79 0.24123 0.0
H425 H 0.17424 0.81894 0.21404 0.0
O426 O 0.14911 0.8344 0.02228 0.0
O427 O 0.15099 0.8008 0.02956 0.0
O428 O 0.30527 0.98997 0.22279 0.0
O429 O 0.32192 0.9665 0.21949 0.0
C430 C 0.16295 0.84249 0.16012 0.0
C431 C 0.17989 0.85576 0.14279 0.0
C432 C 0.20296 0.87683 0.15129 0.0
C433 C 0.20884 0.88494 0.17702 0.0
C434 C 0.19204 0.87147 0.19429 0.0
C435 C 0.1691 0.85021 0.1859 0.0
C436 C 0.13977 0.81897 0.15127 0.0
C437 C 0.12128 0.81974 0.13769 0.0
C438 C 0.10099 0.79743 0.12642 0.0
C439 C 0.09918 0.77425 0.12853 0.0
C440 C 0.11708 0.77345 0.14321 0.0
C441 C 0.13724 0.79566 0.15451 0.0
C442 C 0.17374 0.8471 0.11574 0.0
C443 C 0.1695 0.86125 0.09955 0.0
C444 C 0.16296 0.85274 0.07421 0.0
C445 C 0.16054 0.82991 0.06466 0.0
C446 C 0.16506 0.81591 0.08097 0.0
C447 C 0.17171 0.82451 0.10626 0.0
C448 C 0.22171 0.88928 0.13356 0.0
C449 C 0.22932 0.91381 0.12824 0.0
C450 C 0.24848 0.92629 0.1133 0.0
C451 C 0.26032 0.91442 0.10342 0.0
C452 C 0.25226 0.88959 0.10833 0.0
C453 C 0.23307 0.87712 0.12328 0.0
C454 C 0.23312 0.90689 0.18619 0.0
C455 C 0.23568 0.93004 0.1943 0.0
C456 C 0.25832 0.95046 0.20395 0.0
C457 C 0.27877 0.948 0.20574 0.0
C458 C 0.27609 0.92475 0.19741 0.0
C459 C 0.25345 0.90437 0.18768 0.0
C460 C 0.19945 0.87862 0.22128 0.0
C461 C 0.19381 0.89465 0.23481 0.0
C462 C 0.20296 0.90331 0.25969 0.0
C463 C 0.21757 0.89572 0.27144 0.0
C464 C 0.22262 0.87913 0.25786 0.0
C465 C 0.21378 0.8708 0.23294 0.0
C466 C 0.1524 0.83453 0.20406 0.0
C467 C 0.1305 0.83364 0.20727 0.0
C468 C 0.11386 0.8169 0.2227 0.0
C469 C 0.11893 0.80076 0.23488 0.0
C470 C 0.1411 0.80214 0.23194 0.0
C471 C 0.15764 0.81883 0.21666 0.0
C472 C 0.15328 0.82075 0.03781 0.0
C473 C 0.30274 0.96948 0.21648 0.0
H474 H 0.3174 0.18851 0.05506 0.0
H475 H 0.35679 0.02872 0.85585 0.0
H476 H 0.2921 0.17898 0.9232 0.0
H477 H 0.29575 0.21873 0.93965 0.0
H478 H 0.36637 0.26047 0.91161 0.0
H479 H 0.36297 0.22096 0.89579 0.0
H480 H 0.29756 0.13739 0.95424 0.0
H481 H 0.29953 0.1525 0.99787 0.0
H482 H 0.36879 0.21955 0.98973 0.0
H483 H 0.36677 0.20401 0.94628 0.0
H484 H 0.30311 0.09188 0.92636 0.0
H485 H 0.3143 0.06947 0.95391 0.0
H486 H 0.38463 0.13709 0.97297 0.0
H487 H 0.37368 0.15908 0.94426 0.0
H488 H 0.29376 0.08587 0.86602 0.0
H489 H 0.29552 0.04868 0.85229 0.0
H490 H 0.37101 0.08786 0.88093 0.0
H491 H 0.36913 0.12511 0.89411 0.0
H492 H 0.29038 0.12367 0.83328 0.0
H493 H 0.28868 0.1023 0.79265 0.0
H494 H 0.36385 0.1248 0.80731 0.0
H495 H 0.36573 0.14716 0.84717 0.0
H496 H 0.28745 0.17031 0.86189 0.0
H497 H 0.28777 0.20037 0.83448 0.0
H498 H 0.36187 0.22518 0.82054 0.0
H499 H 0.36144 0.19512 0.84765 0.0
O500 O 0.31712 0.18275 0.03785 0.0
O501 O 0.35254 0.217 0.0326 0.0
O502 O 0.31682 0.02398 0.84646 0.0
O503 O 0.35557 0.04313 0.8612 0.0
C504 C 0.32697 0.17362 0.90154 0.0
C505 C 0.33023 0.16074 0.9204 0.0
C506 C 0.33211 0.13954 0.91382 0.0
C507 C 0.33029 0.13103 0.8884 0.0
C508 C 0.32773 0.14443 0.86963 0.0
C509 C 0.32577 0.16552 0.87615 0.0
C510 C 0.32733 0.19719 0.90845 0.0
C511 C 0.30811 0.19675 0.92021 0.0
C512 C 0.31009 0.21932 0.92934 0.0
C513 C 0.3313 0.2424 0.92675 0.0
C514 C 0.34984 0.24279 0.91366 0.0
C515 C 0.34791 0.22032 0.90467 0.0
C516 C 0.33194 0.16966 0.94708 0.0
C517 C 0.3132 0.15525 0.96197 0.0
C518 C 0.31435 0.16397 0.98686 0.0
C519 C 0.33428 0.18728 0.99727 0.0
C520 C 0.35316 0.20155 0.9823 0.0
C521 C 0.35203 0.19275 0.95746 0.0
C522 C 0.33754 0.12711 0.93334 0.0
C523 C 0.32079 0.10195 0.93676 0.0
C524 C 0.32718 0.08926 0.95268 0.0
C525 C 0.35027 0.10163 0.96592 0.0
C526 C 0.36673 0.12709 0.96304 0.0
C527 C 0.36042 0.13971 0.94686 0.0
C528 C 0.33127 0.10813 0.88118 0.0
C529 C 0.31064 0.08636 0.86935 0.0
C530 C 0.3117 0.06515 0.86154 0.0
C531 C 0.33341 0.06529 0.86555 0.0
C532 C 0.354 0.08711 0.87759 0.0
C533 C 0.35296 0.10837 0.88526 0.0
C534 C 0.32806 0.13655 0.84322 0.0
C535 C 0.30665 0.12464 0.8273 0.0
C536 C 0.30564 0.11221 0.80433 0.0
C537 C 0.32594 0.11129 0.79725 0.0
C538 C 0.34792 0.12511 0.81234 0.0
C539 C 0.349 0.1378 0.8351 0.0
C540 C 0.32441 0.18051 0.85667 0.0
C541 C 0.30355 0.18188 0.85248 0.0
C542 C 0.30376 0.19903 0.83696 0.0
C543 C 0.32495 0.21521 0.82579 0.0
C544 C 0.34543 0.21305 0.82923 0.0
C545 C 0.34513 0.19577 0.84446 0.0
C546 C 0.33529 0.19665 0.02361 0.0
C547 C 0.33466 0.04285 0.85713 0.0
H548 H 0.84434 0.18915 0.07621 0.0
H549 H 0.67514 0.00234 0.8591 0.0
H550 H 0.85049 0.20456 0.94126 0.0
H551 H 0.88998 0.24277 0.95359 0.0
H552 H 0.9258 0.20216 0.9352 0.0
H553 H 0.88595 0.16372 0.9228 0.0
H554 H 0.80803 0.16899 0.97117 0.0
H555 H 0.81886 0.1803 0.01607 0.0
H556 H 0.86598 0.15032 0.0124 0.0
H557 H 0.85478 0.13886 0.96754 0.0
H558 H 0.76258 0.13371 0.93705 0.0
H559 H 0.72925 0.11115 0.96349 0.0
H560 H 0.76187 0.06985 0.9873 0.0
H561 H 0.79509 0.09238 0.96065 0.0
H562 H 0.75876 0.12505 0.88052 0.0
H563 H 0.7181 0.09127 0.86356 0.0
H564 H 0.73323 0.03613 0.88873 0.0
H565 H 0.77394 0.0701 0.90533 0.0
H566 H 0.80185 0.16047 0.85678 0.0
H567 H 0.78693 0.14918 0.81248 0.0
H568 H 0.79115 0.08236 0.81275 0.0
H569 H 0.80608 0.09378 0.857 0.0
H570 H 0.84803 0.19944 0.88511 0.0
H571 H 0.87843 0.22565 0.85761 0.0
H572 H 0.89347 0.16661 0.84049 0.0
H573 H 0.86253 0.14018 0.86804 0.0
O574 O 0.84024 0.18443 0.05845 0.0
O575 O 0.86427 0.16884 0.05554 0.0
O576 O 0.68376 0.0452 0.8542 0.0
O577 O 0.69097 0.01608 0.86596 0.0
C578 C 0.84152 0.15919 0.9221 0.0
C579 C 0.82398 0.14614 0.93891 0.0
C580 C 0.80019 0.127 0.92966 0.0
C581 C 0.79419 0.12045 0.90373 0.0
C582 C 0.81181 0.13355 0.88703 0.0
C583 C 0.83542 0.15291 0.89618 0.0
C584 C 0.86545 0.18144 0.93137 0.0
C585 C 0.86684 0.20387 0.94007 0.0
C586 C 0.88935 0.22568 0.94671 0.0
C587 C 0.91082 0.22539 0.94479 0.0
C588 C 0.90943 0.20279 0.93655 0.0
C589 C 0.88682 0.18093 0.92967 0.0
C590 C 0.83048 0.15294 0.96617 0.0
C591 C 0.82055 0.16472 0.98014 0.0
C592 C 0.82684 0.17124 0.00576 0.0
C593 C 0.84327 0.16619 0.01784 0.0
C594 C 0.85326 0.15446 0.0037 0.0
C595 C 0.84691 0.14791 0.97808 0.0
C596 C 0.78111 0.11455 0.94696 0.0
C597 C 0.7626 0.11995 0.94818 0.0
C598 C 0.74375 0.10725 0.96337 0.0
C599 C 0.74317 0.08894 0.97747 0.0
C600 C 0.76199 0.08392 0.97656 0.0
C601 C 0.78091 0.09673 0.96146 0.0
C602 C 0.7693 0.09998 0.894 0.0
C603 C 0.75327 0.10565 0.88226 0.0
C604 C 0.73005 0.08634 0.87266 0.0
C605 C 0.72243 0.06098 0.87475 0.0
C606 C 0.73852 0.05543 0.88676 0.0
C607 C 0.76176 0.07478 0.8963 0.0
C608 C 0.805 0.1279 0.85991 0.0
C609 C 0.79984 0.14359 0.84712 0.0
C610 C 0.79122 0.13708 0.82201 0.0
C611 C 0.78782 0.11487 0.80943 0.0
C612 C 0.79377 0.09964 0.82211 0.0
C613 C 0.80222 0.10607 0.84726 0.0
C614 C 0.85328 0.16807 0.87866 0.0
C615 C 0.85795 0.1922 0.8755 0.0
C616 C 0.87547 0.2072 0.86 0.0
C617 C 0.88876 0.19838 0.84745 0.0
C618 C 0.88366 0.17392 0.85018 0.0
C619 C 0.86603 0.15885 0.86577 0.0
C620 C 0.84995 0.17319 0.04506 0.0
C621 C 0.69787 0.04036 0.86436 0.0
H622 H 0.85808 0.65231 0.07461 0.0
H623 H 0.68523 0.64246 0.8452 0.0
H624 H 0.88604 0.6901 0.93367 0.0
H625 H 0.91831 0.68673 0.9549 0.0
H626 H 0.8692 0.60641 0.95384 0.0
H627 H 0.83705 0.60995 0.93274 0.0
H628 H 0.85364 0.68401 0.97623 0.0
H629 H 0.86085 0.67807 0.0193 0.0
H630 H 0.80366 0.59959 0.00563 0.0
H631 H 0.79683 0.60576 0.9625 0.0
H632 H 0.80035 0.68235 0.9678 0.0
H633 H 0.7675 0.67491 0.99421 0.0
H634 H 0.72494 0.59772 0.96126 0.0
H635 H 0.75769 0.60536 0.93452 0.0
H636 H 0.7877 0.69118 0.91922 0.0
H637 H 0.7531 0.69367 0.90338 0.0
H638 H 0.7235 0.62116 0.8605 0.0
H639 H 0.75795 0.61872 0.87686 0.0
H640 H 0.81849 0.6998 0.87225 0.0
H641 H 0.80445 0.70213 0.83025 0.0
H642 H 0.78495 0.62533 0.80942 0.0
H643 H 0.80008 0.62372 0.85084 0.0
H644 H 0.86446 0.70173 0.87862 0.0
H645 H 0.89126 0.70872 0.84525 0.0
H646 H 0.87664 0.63295 0.84639 0.0
H647 H 0.84882 0.62567 0.87886 0.0
O648 O 0.85484 0.65425 0.05754 0.0
O649 O 0.82518 0.61408 0.04962 0.0
O650 O 0.71298 0.67727 0.87711 0.0
O651 O 0.69871 0.64162 0.85236 0.0
C652 C 0.83853 0.65272 0.92319 0.0
C653 C 0.82094 0.649 0.94003 0.0
C654 C 0.80016 0.64941 0.93205 0.0
C655 C 0.79714 0.65418 0.90748 0.0
C656 C 0.81494 0.65854 0.89078 0.0
C657 C 0.83581 0.65804 0.89866 0.0
C658 C 0.85927 0.65027 0.93159 0.0
C659 C 0.88249 0.67172 0.93741 0.0
C660 C 0.90084 0.66974 0.94956 0.0
C661 C 0.89621 0.64628 0.956 0.0
C662 C 0.8732 0.62472 0.94922 0.0
C663 C 0.85493 0.62669 0.93702 0.0
C664 C 0.82467 0.64534 0.96633 0.0
C665 C 0.84267 0.66556 0.98261 0.0
C666 C 0.84675 0.66211 0.00719 0.0
C667 C 0.83282 0.63835 0.01592 0.0
C668 C 0.81468 0.61814 0.99952 0.0
C669 C 0.81067 0.62162 0.97492 0.0
C670 C 0.78123 0.64441 0.94928 0.0
C671 C 0.78403 0.6638 0.96648 0.0
C672 C 0.76538 0.65954 0.98149 0.0
C673 C 0.74388 0.63576 0.97963 0.0
C674 C 0.74148 0.61612 0.96303 0.0
C675 C 0.76001 0.62048 0.94778 0.0
C676 C 0.7753 0.65479 0.89915 0.0
C677 C 0.77355 0.67573 0.90665 0.0
C678 C 0.75384 0.67714 0.89749 0.0
C679 C 0.73561 0.65768 0.88053 0.0
C680 C 0.73726 0.63653 0.87342 0.0
C681 C 0.75689 0.63506 0.88275 0.0
C682 C 0.81046 0.66165 0.86447 0.0
C683 C 0.81188 0.68381 0.85829 0.0
C684 C 0.80368 0.68501 0.83439 0.0
C685 C 0.79375 0.664 0.81634 0.0
C686 C 0.79316 0.64215 0.82249 0.0
C687 C 0.80167 0.6411 0.84624 0.0
C688 C 0.85454 0.66313 0.88101 0.0
C689 C 0.86716 0.68669 0.87174 0.0
C690 C 0.88253 0.69069 0.85278 0.0
C691 C 0.8857 0.67123 0.84289 0.0
C692 C 0.87404 0.64807 0.85318 0.0
C693 C 0.85842 0.64399 0.87195 0.0
C694 C 0.8373 0.63473 0.04201 0.0
C695 C 0.71511 0.65952 0.87 0.0
H696 H 0.83685 0.73232 0.34664 0.0
H697 H 0.9734 0.65694 0.52693 0.0
H698 H 0.83175 0.72601 0.48044 0.0
H699 H 0.80043 0.72994 0.45806 0.0
H700 H 0.75278 0.649 0.45065 0.0
H701 H 0.78413 0.64526 0.47344 0.0
H702 H 0.8714 0.73063 0.44774 0.0
H703 H 0.86269 0.73868 0.40606 0.0
H704 H 0.80589 0.66024 0.39039 0.0
H705 H 0.81495 0.65244 0.43202 0.0
H706 H 0.91348 0.7277 0.4738 0.0
H707 H 0.94485 0.73316 0.446 0.0
H708 H 0.89585 0.65854 0.409 0.0
H709 H 0.86458 0.65321 0.43675 0.0
H710 H 0.91157 0.71564 0.53132 0.0
H711 H 0.9475 0.71431 0.54453 0.0
H712 H 0.9191 0.64408 0.49773 0.0
H713 H 0.88311 0.64544 0.48503 0.0
H714 H 0.86521 0.70845 0.55922 0.0
H715 H 0.88199 0.70743 0.60014 0.0
H716 H 0.87544 0.63685 0.57446 0.0
H717 H 0.85762 0.63744 0.53388 0.0
H718 H 0.82052 0.70936 0.53042 0.0
H719 H 0.79141 0.7012 0.56169 0.0
H720 H 0.77942 0.6266 0.5645 0.0
H721 H 0.80728 0.63433 0.53219 0.0
O722 O 0.84038 0.72862 0.36281 0.0
O723 O 0.81156 0.68807 0.35561 0.0
O724 O 0.97368 0.69456 0.54517 0.0
O725 O 0.95966 0.65824 0.52166 0.0
C726 C 0.83104 0.68293 0.48626 0.0
C727 C 0.848 0.68648 0.46867 0.0
C728 C 0.86881 0.68575 0.4756 0.0
C729 C 0.87254 0.68098 0.5 0.0
C730 C 0.85527 0.67666 0.51749 0.0
C731 C 0.83434 0.67753 0.5106 0.0
C732 C 0.81015 0.68535 0.47857 0.0
C733 C 0.81427 0.70919 0.47462 0.0
C734 C 0.79655 0.71138 0.46153 0.0
C735 C 0.77445 0.68974 0.45211 0.0
C736 C 0.76971 0.66598 0.45765 0.0
C737 C 0.78747 0.6638 0.47079 0.0
C738 C 0.84381 0.69098 0.44283 0.0
C739 C 0.85728 0.71519 0.43515 0.0
C740 C 0.85218 0.71974 0.41139 0.0
C741 C 0.83353 0.70012 0.39492 0.0
C742 C 0.82034 0.67578 0.40261 0.0
C743 C 0.82549 0.67126 0.42635 0.0
C744 C 0.88686 0.69002 0.45732 0.0
C745 C 0.90946 0.7127 0.45945 0.0
C746 C 0.92725 0.71583 0.44358 0.0
C747 C 0.92272 0.6962 0.42556 0.0
C748 C 0.89977 0.67385 0.4229 0.0
C749 C 0.88194 0.67082 0.43863 0.0
C750 C 0.89476 0.68062 0.50727 0.0
C751 C 0.91318 0.70001 0.52396 0.0
C752 C 0.93367 0.69921 0.53144 0.0
C753 C 0.93614 0.67905 0.52221 0.0
C754 C 0.91776 0.65984 0.50522 0.0
C755 C 0.89723 0.66061 0.49785 0.0
C756 C 0.86036 0.67313 0.5435 0.0
C757 C 0.86658 0.69232 0.56269 0.0
C758 C 0.87636 0.69181 0.58596 0.0
C759 C 0.88023 0.67217 0.59043 0.0
C760 C 0.87243 0.65207 0.57171 0.0
C761 C 0.8624 0.65247 0.54848 0.0
C762 C 0.8159 0.67237 0.52879 0.0
C763 C 0.81116 0.69105 0.53736 0.0
C764 C 0.79471 0.68644 0.55541 0.0
C765 C 0.78283 0.66313 0.56541 0.0
C766 C 0.78765 0.64448 0.55673 0.0
C767 C 0.80382 0.64898 0.53846 0.0
C768 C 0.82778 0.70512 0.36991 0.0
C769 C 0.95767 0.67787 0.53039 0.0
H770 H 0.31021 0.12545 0.34315 0.0
H771 H 0.3578 0.32248 0.55912 0.0
H772 H 0.30738 0.11227 0.47849 0.0
H773 H 0.30478 0.07231 0.46702 0.0
H774 H 0.38193 0.10793 0.48621 0.0
H775 H 0.38451 0.14828 0.49703 0.0
H776 H 0.30185 0.14866 0.44788 0.0
H777 H 0.29811 0.13642 0.40311 0.0
H778 H 0.3746 0.16203 0.40687 0.0
H779 H 0.37813 0.17442 0.45159 0.0
H780 H 0.29591 0.18503 0.48285 0.0
H781 H 0.28446 0.20964 0.45876 0.0
H782 H 0.35595 0.24825 0.43198 0.0
H783 H 0.36744 0.22384 0.45661 0.0
H784 H 0.30595 0.19786 0.53609 0.0
H785 H 0.30397 0.23418 0.55286 0.0
H786 H 0.37584 0.28417 0.53028 0.0
H787 H 0.37757 0.24763 0.51362 0.0
H788 H 0.31355 0.16494 0.56446 0.0
H789 H 0.31415 0.18578 0.60497 0.0
H790 H 0.38851 0.24443 0.5987 0.0
H791 H 0.3879 0.2233 0.55843 0.0
H792 H 0.31 0.12356 0.53916 0.0
H793 H 0.30912 0.09341 0.56622 0.0
H794 H 0.38764 0.134 0.57253 0.0
H795 H 0.38825 0.16486 0.54622 0.0
O796 O 0.31211 0.13048 0.36086 0.0
O797 O 0.35149 0.14382 0.36383 0.0
O798 O 0.32103 0.28127 0.56346 0.0
O799 O 0.35798 0.3078 0.55234 0.0
C800 C 0.3469 0.15645 0.49729 0.0
C801 C 0.34263 0.17005 0.48006 0.0
C802 C 0.34011 0.19034 0.48884 0.0
C803 C 0.34354 0.19809 0.5146 0.0
C804 C 0.34809 0.18464 0.53174 0.0
C805 C 0.34903 0.16338 0.52317 0.0
C806 C 0.3461 0.13304 0.48854 0.0
C807 C 0.32375 0.11149 0.47998 0.0
C808 C 0.32226 0.08868 0.47383 0.0
C809 C 0.34307 0.08699 0.4764 0.0
C810 C 0.36562 0.10877 0.48434 0.0
C811 C 0.36711 0.1317 0.49044 0.0
C812 C 0.3403 0.1626 0.45291 0.0
C813 C 0.3178 0.15177 0.43896 0.0
C814 C 0.31571 0.14471 0.41341 0.0
C815 C 0.33607 0.14829 0.40139 0.0
C816 C 0.35857 0.15905 0.41552 0.0
C817 C 0.36064 0.16613 0.44106 0.0
C818 C 0.33251 0.20279 0.47148 0.0
C819 C 0.30893 0.1985 0.4714 0.0
C820 C 0.30236 0.21239 0.45751 0.0
C821 C 0.31928 0.23072 0.44342 0.0
C822 C 0.3426 0.23422 0.44273 0.0
C823 C 0.34916 0.2203 0.45666 0.0
C824 C 0.34195 0.22017 0.52378 0.0
C825 C 0.32123 0.21668 0.53478 0.0
C826 C 0.32015 0.23745 0.54434 0.0
C827 C 0.33982 0.2621 0.54304 0.0
C828 C 0.36042 0.26547 0.53166 0.0
C829 C 0.36144 0.24466 0.52208 0.0
C830 C 0.35071 0.19263 0.55866 0.0
C831 C 0.33027 0.18169 0.57236 0.0
C832 C 0.33053 0.19376 0.59525 0.0
C833 C 0.35122 0.2169 0.60457 0.0
C834 C 0.37236 0.22659 0.59185 0.0
C835 C 0.37208 0.21453 0.56897 0.0
C836 C 0.34917 0.14648 0.54103 0.0
C837 C 0.327 0.12614 0.54674 0.0
C838 C 0.32656 0.10879 0.56193 0.0
C839 C 0.34832 0.11128 0.57154 0.0
C840 C 0.37058 0.1318 0.5658 0.0
C841 C 0.37099 0.14939 0.55077 0.0
C842 C 0.33379 0.14076 0.37425 0.0
C843 C 0.33894 0.28422 0.55357 0.0
H844 H 0.81195 0.16628 0.33268 0.0
H845 H 0.00591 0.31312 0.55306 0.0
H846 H 0.78942 0.1709 0.46362 0.0
H847 H 0.75224 0.13074 0.44829 0.0
H848 H 0.78255 0.09029 0.48005 0.0
H849 H 0.81975 0.13021 0.49446 0.0
H850 H 0.83781 0.21421 0.43532 0.0
H851 H 0.82668 0.20028 0.39075 0.0
H852 H 0.83008 0.13411 0.40139 0.0
H853 H 0.84146 0.14841 0.44585 0.0
H854 H 0.88804 0.25947 0.46645 0.0
H855 H 0.92245 0.2831 0.44162 0.0
H856 H 0.92798 0.21738 0.42729 0.0
H857 H 0.89354 0.19381 0.45224 0.0
H858 H 0.88798 0.26635 0.52405 0.0
H859 H 0.92804 0.3018 0.54046 0.0
H860 H 0.95947 0.25662 0.52248 0.0
H861 H 0.91928 0.2213 0.5062 0.0
H862 H 0.85028 0.23391 0.55589 0.0
H863 H 0.86601 0.24711 0.5998 0.0
H864 H 0.90212 0.20517 0.59271 0.0
H865 H 0.88723 0.19312 0.5486 0.0
H866 H 0.79466 0.18266 0.52573 0.0
H867 H 0.76452 0.15392 0.5527 0.0
H868 H 0.81039 0.12459 0.56946 0.0
H869 H 0.84024 0.15312 0.5427 0.0
O870 O 0.81648 0.17149 0.35033 0.0
O871 O 0.81843 0.13777 0.35682 0.0
O872 O 0.974 0.32362 0.55051 0.0
O873 O 0.99014 0.29977 0.54565 0.0
C874 C 0.83025 0.17728 0.48838 0.0
C875 C 0.84684 0.1907 0.47083 0.0
C876 C 0.86995 0.21187 0.47913 0.0
C877 C 0.87632 0.21963 0.50491 0.0
C878 C 0.85977 0.2061 0.52233 0.0
C879 C 0.83664 0.18515 0.51412 0.0
C880 C 0.8072 0.15338 0.48012 0.0
C881 C 0.78786 0.15332 0.4674 0.0
C882 C 0.76661 0.13047 0.45896 0.0
C883 C 0.76452 0.1075 0.46324 0.0
C884 C 0.78371 0.10775 0.47658 0.0
C885 C 0.8049 0.13048 0.48483 0.0
C886 C 0.84027 0.18223 0.4438 0.0
C887 C 0.83618 0.19674 0.42795 0.0
C888 C 0.8298 0.18872 0.40252 0.0
C889 C 0.82742 0.16604 0.39251 0.0
C890 C 0.83169 0.15163 0.40849 0.0
C891 C 0.83812 0.15971 0.4339 0.0
C892 C 0.88834 0.22497 0.46119 0.0
C893 C 0.89646 0.25009 0.45767 0.0
C894 C 0.91617 0.26356 0.44367 0.0
C895 C 0.92807 0.25213 0.43294 0.0
C896 C 0.91913 0.2266 0.43541 0.0
C897 C 0.89946 0.21314 0.44955 0.0
C898 C 0.9008 0.24134 0.51394 0.0
C899 C 0.90358 0.26421 0.52361 0.0
C900 C 0.92646 0.28441 0.53293 0.0
C901 C 0.94694 0.28201 0.53284 0.0
C902 C 0.94407 0.25907 0.5229 0.0
C903 C 0.92118 0.23891 0.51352 0.0
C904 C 0.86763 0.21258 0.54925 0.0
C905 C 0.8614 0.22744 0.56397 0.0
C906 C 0.87022 0.23474 0.58904 0.0
C907 C 0.88506 0.22689 0.59977 0.0
C908 C 0.89082 0.21157 0.58495 0.0
C909 C 0.88227 0.20459 0.55985 0.0
C910 C 0.81969 0.17007 0.53245 0.0
C911 C 0.79829 0.17028 0.53557 0.0
C912 C 0.78115 0.15392 0.55085 0.0
C913 C 0.78511 0.13695 0.5628 0.0
C914 C 0.80685 0.13734 0.56017 0.0
C915 C 0.824 0.15377 0.54515 0.0
C916 C 0.82052 0.1575 0.36551 0.0
C917 C 0.97114 0.30313 0.54345 0.0
H918 H 0.0062 0.53824 0.3881 0.0
H919 H 0.04346 0.37843 0.18499 0.0
H920 H 0.96827 0.51868 0.25631 0.0
H921 H 0.97094 0.55785 0.27292 0.0
H922 H 0.04005 0.6012 0.24232 0.0
H923 H 0.03749 0.56216 0.22603 0.0
H924 H 0.97835 0.48163 0.28922 0.0
H925 H 0.98384 0.49922 0.33264 0.0
H926 H 0.05163 0.56492 0.31796 0.0
H927 H 0.04611 0.54692 0.27475 0.0
H928 H 0.98043 0.43491 0.26034 0.0
H929 H 0.99177 0.41222 0.28725 0.0
H930 H 0.06378 0.47838 0.30255 0.0
H931 H 0.05256 0.50055 0.27432 0.0
H932 H 0.97082 0.423 0.20642 0.0
H933 H 0.97582 0.38773 0.19315 0.0
H934 H 0.05379 0.4371 0.20616 0.0
H935 H 0.04851 0.47226 0.21906 0.0
H936 H 0.9588 0.45023 0.17509 0.0
H937 H 0.95389 0.42259 0.13792 0.0
H938 H 0.03158 0.46514 0.13317 0.0
H939 H 0.03637 0.49192 0.17099 0.0
H940 H 0.96124 0.50993 0.19548 0.0
H941 H 0.96096 0.5399 0.1683 0.0
H942 H 0.03376 0.56278 0.15066 0.0
H943 H 0.034 0.53305 0.17766 0.0
O944 O 0.00452 0.5315 0.37094 0.0
O945 O 0.03902 0.56506 0.36228 0.0
O946 O 1.00076 0.36747 0.18364 0.0
O947 O 0.04095 0.39198 0.19035 0.0
C948 C 0.00306 0.51446 0.23341 0.0
C949 C 0.00795 0.50269 0.25233 0.0
C950 C 0.0097 0.48141 0.24589 0.0
C951 C 0.00631 0.47181 0.22064 0.0
C952 C 0.00132 0.48354 0.20183 0.0
C953 C 0.99991 0.505 0.20811 0.0
C954 C 0.00276 0.53769 0.24015 0.0
C955 C 0.98369 0.53665 0.25273 0.0
C956 C 0.98511 0.5589 0.26198 0.0
C957 C 0.00566 0.5823 0.25876 0.0
C958 C 0.02401 0.58327 0.24485 0.0
C959 C 0.02258 0.56108 0.23562 0.0
C960 C 0.01176 0.51305 0.27885 0.0
C961 C 0.99444 0.49974 0.29549 0.0
C962 C 0.99759 0.50987 0.32024 0.0
C963 C 0.01814 0.53352 0.32876 0.0
C964 C 0.03558 0.54669 0.31202 0.0
C965 C 0.03245 0.53648 0.28732 0.0
C966 C 0.01569 0.4693 0.26527 0.0
C967 C 0.99859 0.44457 0.26965 0.0
C968 C 0.00511 0.43169 0.28513 0.0
C969 C 0.0288 0.44341 0.29683 0.0
C970 C 0.04558 0.46865 0.29336 0.0
C971 C 0.03911 0.48145 0.27756 0.0
C972 C 0.0093 0.45015 0.21361 0.0
C973 C 0.98895 0.42613 0.20636 0.0
C974 C 0.99186 0.40603 0.19883 0.0
C975 C 0.01523 0.4096 0.19859 0.0
C976 C 0.03556 0.43369 0.20612 0.0
C977 C 0.03261 0.45379 0.21356 0.0
C978 C 0.99792 0.47296 0.17563 0.0
C979 C 0.97464 0.45408 0.16548 0.0
C980 C 0.9719 0.43823 0.1444 0.0
C981 C 0.99245 0.44128 0.13319 0.0
C982 C 0.01553 0.46188 0.14197 0.0
C983 C 0.01827 0.47749 0.16322 0.0
C984 C 0.99759 0.5192 0.18838 0.0
C985 C 0.97687 0.521 0.18524 0.0
C986 C 0.97675 0.53811 0.16987 0.0
C987 C 0.99747 0.5538 0.15779 0.0
C988 C 0.01769 0.55106 0.16006 0.0
C989 C 0.01773 0.5339 0.1752 0.0
C990 C 0.02128 0.54439 0.35497 0.0
C991 C 0.01843 0.38835 0.19043 0.0
H992 H 0.50929 0.52966 0.40191 0.0
H993 H 0.34671 0.32761 0.18841 0.0
H994 H 0.51375 0.53876 0.25319 0.0
H995 H 0.5498 0.5785 0.27059 0.0
H996 H 0.58652 0.53896 0.28635 0.0
H997 H 0.55036 0.49914 0.2682 0.0
H998 H 0.47746 0.50717 0.29547 0.0
H999 H 0.48727 0.52047 0.34026 0.0
H1000 H 0.52553 0.48071 0.34412 0.0
H1001 H 0.51546 0.46747 0.29931 0.0
H1002 H 0.43081 0.46693 0.26748 0.0
H1003 H 0.39744 0.44452 0.29392 0.0
H1004 H 0.42668 0.39886 0.31331 0.0
H1005 H 0.46 0.42134 0.28671 0.0
H1006 H 0.42206 0.45202 0.21246 0.0
H1007 H 0.38226 0.41604 0.19617 0.0
H1008 H 0.40585 0.36532 0.21484 0.0
H1009 H 0.44563 0.40152 0.23085 0.0
H1010 H 0.45857 0.48443 0.18571 0.0
H1011 H 0.44438 0.47168 0.14138 0.0
H1012 H 0.46714 0.41764 0.14081 0.0
H1013 H 0.48174 0.43091 0.18499 0.0
H1014 H 0.50027 0.52235 0.20168 0.0
H1015 H 0.52948 0.55077 0.17447 0.0
H1016 H 0.57081 0.51468 0.18209 0.0
H1017 H 0.54095 0.48573 0.20907 0.0
O1018 O 0.50557 0.52415 0.38425 0.0
O1019 O 0.52514 0.50354 0.3852 0.0
O1020 O 0.35114 0.36907 0.18521 0.0
O1021 O 0.3622 0.34217 0.19491 0.0
C1022 C 0.50703 0.49238 0.25033 0.0
C1023 C 0.48991 0.47852 0.26715 0.0
C1024 C 0.46672 0.45817 0.25801 0.0
C1025 C 0.46093 0.45113 0.23215 0.0
C1026 C 0.47808 0.46507 0.21539 0.0
C1027 C 0.50112 0.48571 0.22445 0.0
C1028 C 0.52954 0.51623 0.25962 0.0
C1029 C 0.52972 0.53877 0.26006 0.0
C1030 C 0.55025 0.56135 0.26995 0.0
C1031 C 0.57088 0.56172 0.27971 0.0
C1032 C 0.57095 0.53918 0.27858 0.0
C1033 C 0.55033 0.5165 0.26851 0.0
C1034 C 0.49573 0.48636 0.29428 0.0
C1035 C 0.48789 0.50132 0.30608 0.0
C1036 C 0.49355 0.5089 0.33164 0.0
C1037 C 0.50719 0.50165 0.34578 0.0
C1038 C 0.515 0.48662 0.33379 0.0
C1039 C 0.50929 0.47903 0.30823 0.0
C1040 C 0.44767 0.44564 0.27527 0.0
C1041 C 0.4301 0.45226 0.27769 0.0
C1042 C 0.41122 0.43962 0.29285 0.0
C1043 C 0.40967 0.42015 0.30571 0.0
C1044 C 0.42756 0.41385 0.30354 0.0
C1045 C 0.44653 0.42661 0.28848 0.0
C1046 C 0.43671 0.42931 0.22261 0.0
C1047 C 0.41859 0.43312 0.2129 0.0
C1048 C 0.39588 0.41254 0.20367 0.0
C1049 C 0.39089 0.38778 0.20414 0.0
C1050 C 0.40909 0.38411 0.21415 0.0
C1051 C 0.43181 0.40472 0.22331 0.0
C1052 C 0.47135 0.45871 0.18831 0.0
C1053 C 0.46091 0.47021 0.17581 0.0
C1054 C 0.45273 0.46285 0.15064 0.0
C1055 C 0.45493 0.4439 0.13769 0.0
C1056 C 0.46576 0.4327 0.15024 0.0
C1057 C 0.47395 0.44011 0.17541 0.0
C1058 C 0.51834 0.5018 0.20696 0.0
C1059 C 0.51541 0.52032 0.19716 0.0
C1060 C 0.53224 0.53668 0.18189 0.0
C1061 C 0.55241 0.53492 0.17622 0.0
C1062 C 0.55529 0.51623 0.18596 0.0
C1063 C 0.53834 0.49979 0.20132 0.0
C1064 C 0.51322 0.50978 0.37292 0.0
C1065 C 0.36685 0.36586 0.19419 0.0
H1066 H 0.51355 0.99406 0.41 0.0
H1067 H 0.33335 0.93844 0.18151 0.0
H1068 H 0.54059 0.02122 0.28336 0.0
H1069 H 0.57228 0.01935 0.30774 0.0
H1070 H 0.54387 0.94336 0.27428 0.0
H1071 H 0.51222 0.9454 0.24983 0.0
H1072 H 0.4935 0.01326 0.31011 0.0
H1073 H 0.50248 0.01193 0.35422 0.0
H1074 H 0.49349 0.93872 0.33658 0.0
H1075 H 0.48411 0.94011 0.29264 0.0
H1076 H 0.44543 0.00724 0.27468 0.0
H1077 H 0.41423 0.00064 0.30261 0.0
H1078 H 0.40672 0.93014 0.3186 0.0
H1079 H 0.43636 0.93585 0.2888 0.0
H1080 H 0.45064 0.0141 0.22088 0.0
H1081 H 0.41297 0.00842 0.20178 0.0
H1082 H 0.37577 0.92912 0.21178 0.0
H1083 H 0.41366 0.93503 0.23058 0.0
H1084 H 0.4945 0.02481 0.19621 0.0
H1085 H 0.48102 0.02785 0.15406 0.0
H1086 H 0.43308 0.94695 0.14377 0.0
H1087 H 0.44675 0.9441 0.18549 0.0
H1088 H 0.54253 0.0275 0.22979 0.0
H1089 H 0.57237 0.03761 0.19891 0.0
H1090 H 0.5258 0.96369 0.15919 0.0
H1091 H 0.49651 0.95341 0.19064 0.0
O1092 O 0.50963 0.99405 0.39253 0.0
O1093 O 0.50517 0.95662 0.3824 0.0
O1094 O 0.36816 0.98233 0.18544 0.0
O1095 O 0.3483 0.94134 0.18969 0.0
C1096 C 0.50191 0.9824 0.25493 0.0
C1097 C 0.48385 0.97826 0.27133 0.0
C1098 C 0.46197 0.97607 0.26231 0.0
C1099 C 0.45818 0.97809 0.23687 0.0
C1100 C 0.47631 0.98251 0.22052 0.0
C1101 C 0.49823 0.98469 0.22954 0.0
C1102 C 0.52422 0.98349 0.26476 0.0
C1103 C 0.54167 0.00446 0.28074 0.0
C1104 C 0.55959 0.00329 0.29476 0.0
C1105 C 0.56017 0.98104 0.29318 0.0
C1106 C 0.54351 0.96056 0.27612 0.0
C1107 C 0.52572 0.96183 0.2619 0.0
C1108 C 0.48825 0.97684 0.29821 0.0
C1109 C 0.4933 0.99689 0.31587 0.0
C1110 C 0.4985 0.9961 0.34102 0.0
C1111 C 0.49878 0.97525 0.34892 0.0
C1112 C 0.49347 0.95508 0.33114 0.0
C1113 C 0.48816 0.95584 0.30603 0.0
C1114 C 0.44311 0.97199 0.27958 0.0
C1115 C 0.43672 0.99015 0.28386 0.0
C1116 C 0.41906 0.98645 0.30005 0.0
C1117 C 0.40781 0.96476 0.31277 0.0
C1118 C 0.41449 0.94671 0.30865 0.0
C1119 C 0.43173 0.95014 0.29193 0.0
C1120 C 0.43488 0.97495 0.227 0.0
C1121 C 0.43431 0.99554 0.21897 0.0
C1122 C 0.41277 0.99224 0.20809 0.0
C1123 C 0.39137 0.96827 0.20513 0.0
C1124 C 0.39192 0.9478 0.2137 0.0
C1125 C 0.41351 0.95113 0.22454 0.0
C1126 C 0.47168 0.98421 0.19379 0.0
C1127 C 0.4816 0.00774 0.18452 0.0
C1128 C 0.47376 0.00946 0.16061 0.0
C1129 C 0.45615 0.98763 0.14559 0.0
C1130 C 0.44704 0.96405 0.15467 0.0
C1131 C 0.45477 0.96237 0.17851 0.0
C1132 C 0.51731 0.98978 0.21236 0.0
C1133 C 0.53899 0.01337 0.21464 0.0
C1134 C 0.55585 0.01919 0.19687 0.0
C1135 C 0.55118 0.00159 0.1764 0.0
C1136 C 0.52988 0.97762 0.17475 0.0
C1137 C 0.51311 0.97176 0.19261 0.0
C1138 C 0.50469 0.97464 0.37558 0.0
C1139 C 0.36863 0.96452 0.19287 0.0
H1140 H 0.5224 0.08202 0.6872 0.0
H1141 H 0.63226 0.97955 0.8718 0.0
H1142 H 0.50277 0.06388 0.81603 0.0
H1143 H 0.47189 0.06744 0.79218 0.0
H1144 H 0.42471 0.98643 0.78473 0.0
H1145 H 0.45558 0.98307 0.8089 0.0
H1146 H 0.54742 0.07098 0.7888 0.0
H1147 H 0.5429 0.08278 0.74757 0.0
H1148 H 0.48309 0.00668 0.72596 0.0
H1149 H 0.48804 0.99506 0.76711 0.0
H1150 H 0.58771 0.06184 0.82036 0.0
H1151 H 0.61988 0.07088 0.79244 0.0
H1152 H 0.56828 0.00769 0.74068 0.0
H1153 H 0.53639 0.99787 0.76914 0.0
H1154 H 0.58057 0.04842 0.87158 0.0
H1155 H 0.61328 0.04271 0.88706 0.0
H1156 H 0.58295 0.97379 0.83764 0.0
H1157 H 0.55019 0.97962 0.82252 0.0
H1158 H 0.53748 0.04436 0.89652 0.0
H1159 H 0.55235 0.04023 0.93706 0.0
H1160 H 0.53338 0.96463 0.91095 0.0
H1161 H 0.51934 0.96935 0.87003 0.0
H1162 H 0.49036 0.04656 0.86559 0.0
H1163 H 0.46045 0.03904 0.89563 0.0
H1164 H 0.44613 0.96362 0.89912 0.0
H1165 H 0.47461 0.97062 0.86756 0.0
O1166 O 0.52413 0.07687 0.70325 0.0
O1167 O 0.49379 0.03737 0.69293 0.0
O1168 O 0.63608 0.01935 0.88892 0.0
O1169 O 0.62002 0.98272 0.8654 0.0
C1170 C 0.50209 0.02085 0.8228 0.0
C1171 C 0.52018 0.02533 0.8063 0.0
C1172 C 0.54029 0.02351 0.81394 0.0
C1173 C 0.54214 0.01686 0.83801 0.0
C1174 C 0.52401 0.01222 0.8545 0.0
C1175 C 0.50383 0.0141 0.84692 0.0
C1176 C 0.48139 0.02321 0.81411 0.0
C1177 C 0.48548 0.04698 0.80984 0.0
C1178 C 0.46801 0.04895 0.79595 0.0
C1179 C 0.44619 0.02717 0.78612 0.0
C1180 C 0.44142 0.00351 0.79203 0.0
C1181 C 0.45892 0.00155 0.80595 0.0
C1182 C 0.51804 0.0322 0.78092 0.0
C1183 C 0.53349 0.05686 0.77505 0.0
C1184 C 0.5308 0.06356 0.75153 0.0
C1185 C 0.51258 0.04569 0.73348 0.0
C1186 C 0.49728 0.02091 0.73941 0.0
C1187 C 0.50004 0.01423 0.7629 0.0
C1188 C 0.5597 0.02911 0.79687 0.0
C1189 C 0.58337 0.04981 0.8031 0.0
C1190 C 0.60163 0.05509 0.78713 0.0
C1191 C 0.59632 0.04013 0.76442 0.0
C1192 C 0.57261 0.01965 0.75799 0.0
C1193 C 0.55447 0.01403 0.77421 0.0
C1194 C 0.56299 0.01438 0.84602 0.0
C1195 C 0.58109 0.03216 0.86408 0.0
C1196 C 0.59975 0.02885 0.87286 0.0
C1197 C 0.60067 0.00772 0.86365 0.0
C1198 C 0.58274 0.99022 0.84518 0.0
C1199 C 0.56407 0.99354 0.83643 0.0
C1200 C 0.5275 0.00723 0.88033 0.0
C1201 C 0.53599 0.02669 0.89976 0.0
C1202 C 0.5445 0.02428 0.92289 0.0
C1203 C 0.54451 0.00228 0.92706 0.0
C1204 C 0.53424 0.98206 0.9081 0.0
C1205 C 0.52593 0.98459 0.88486 0.0
C1206 C 0.48482 0.00919 0.86437 0.0
C1207 C 0.48044 0.02825 0.87248 0.0
C1208 C 0.46361 0.02405 0.88998 0.0
C1209 C 0.45127 0.0009 0.90027 0.0
C1210 C 0.45527 0.98165 0.89161 0.0
C1211 C 0.47172 0.9857 0.87373 0.0
C1212 C 0.50954 0.05295 0.70865 0.0
C1213 C 0.62006 0.00374 0.87343 0.0
H1214 H 0.9631 0.44516 0.67541 0.0
H1215 H 0.00413 0.64635 0.88003 0.0
H1216 H 0.96108 0.43595 0.80541 0.0
H1217 H 0.96194 0.39819 0.79287 0.0
H1218 H 0.03537 0.43402 0.82708 0.0
H1219 H 0.03495 0.47261 0.83799 0.0
H1220 H 0.95227 0.47041 0.77865 0.0
H1221 H 0.9496 0.45735 0.73427 0.0
H1222 H 0.0262 0.48342 0.74053 0.0
H1223 H 0.02868 0.49667 0.78486 0.0
H1224 H 0.94443 0.50463 0.80944 0.0
H1225 H 0.93383 0.53058 0.78623 0.0
H1226 H 0.00792 0.57469 0.76735 0.0
H1227 H 0.01839 0.54851 0.7903 0.0
H1228 H 0.95545 0.52174 0.86596 0.0
H1229 H 0.95258 0.55821 0.88006 0.0
H1230 H 0.02369 0.60772 0.85553 0.0
H1231 H 0.02647 0.57108 0.84192 0.0
H1232 H 0.96559 0.49392 0.89783 0.0
H1233 H 0.9696 0.51763 0.93792 0.0
H1234 H 0.04413 0.57209 0.92657 0.0
H1235 H 0.03997 0.54843 0.88663 0.0
H1236 H 0.96369 0.44151 0.86389 0.0
H1237 H 0.96419 0.41475 0.8944 0.0
H1238 H 0.03751 0.47288 0.92152 0.0
H1239 H 0.0372 0.49936 0.89001 0.0
O1240 O 0.96459 0.45058 0.69298 0.0
O1241 O 0.00401 0.4642 0.69721 0.0
O1242 O 0.9684 0.60534 0.88714 0.0
O1243 O 0.0048 0.6316 0.87463 0.0
C1244 C 0.99711 0.47988 0.83 0.0
C1245 C 0.99237 0.49249 0.81191 0.0
C1246 C 0.98943 0.51275 0.81962 0.0
C1247 C 0.99313 0.52167 0.84508 0.0
C1248 C 0.99847 0.5095 0.86303 0.0
C1249 C 0.99954 0.48801 0.85568 0.0
C1250 C 0.99807 0.45716 0.82222 0.0
C1251 C 0.97752 0.43585 0.80976 0.0
C1252 C 0.97794 0.41416 0.80298 0.0
C1253 C 0.99875 0.41313 0.80898 0.0
C1254 C 0.01925 0.4344 0.82181 0.0
C1255 C 0.01897 0.45634 0.82819 0.0
C1256 C 0.99071 0.48467 0.78492 0.0
C1257 C 0.9685 0.4735 0.77035 0.0
C1258 C 0.967 0.46595 0.74502 0.0
C1259 C 0.98769 0.46937 0.73383 0.0
C1260 C 0.00992 0.48053 0.74855 0.0
C1261 C 0.0114 0.48811 0.77386 0.0
C1262 C 0.98214 0.52475 0.80142 0.0
C1263 C 0.95814 0.51935 0.79955 0.0
C1264 C 0.9521 0.53406 0.78634 0.0
C1265 C 0.9701 0.55443 0.77512 0.0
C1266 C 0.99379 0.55889 0.77579 0.0
C1267 C 0.99976 0.54402 0.78879 0.0
C1268 C 0.9912 0.54383 0.85303 0.0
C1269 C 0.9704 0.54049 0.86373 0.0
C1270 C 0.9688 0.56134 0.87171 0.0
C1271 C 0.98793 0.5859 0.86895 0.0
C1272 C 0.00866 0.5891 0.85798 0.0
C1273 C 0.01028 0.56822 0.85014 0.0
C1274 C 0.00252 0.51953 0.8895 0.0
C1275 C 0.98298 0.5105 0.90446 0.0
C1276 C 0.98521 0.52414 0.9271 0.0
C1277 C 0.00706 0.54678 0.93499 0.0
C1278 C 0.02713 0.55465 0.92085 0.0
C1279 C 0.02483 0.54116 0.89817 0.0
C1280 C 1.00038 0.47237 0.87473 0.0
C1281 C 0.97995 0.44843 0.87627 0.0
C1282 C 0.98024 0.43321 0.89375 0.0
C1283 C 1.00091 0.4417 0.91032 0.0
C1284 C 0.02148 0.4657 0.90875 0.0
C1285 C 0.02122 0.48094 0.89102 0.0
C1286 C 0.98603 0.46127 0.70693 0.0
C1287 C 0.98636 0.60812 0.87748 0.0
H1288 H 0.48063 0.50159 0.6623 0.0
H1289 H 0.66775 0.62855 0.89294 0.0
H1290 H 0.45634 0.50043 0.79077 0.0
H1291 H 0.41742 0.46325 0.77341 0.0
H1292 H 0.43837 0.41487 0.80484 0.0
H1293 H 0.47738 0.45183 0.82135 0.0
H1294 H 0.50567 0.54278 0.76714 0.0
H1295 H 0.49552 0.5321 0.7221 0.0
H1296 H 0.49276 0.46192 0.72791 0.0
H1297 H 0.50318 0.47297 0.77289 0.0
H1298 H 0.5535 0.58368 0.80005 0.0
H1299 H 0.58849 0.60815 0.77624 0.0
H1300 H 0.59332 0.54232 0.75909 0.0
H1301 H 0.55813 0.51785 0.78286 0.0
H1302 H 0.55226 0.58783 0.85721 0.0
H1303 H 0.59204 0.62143 0.87651 0.0
H1304 H 0.6218 0.57479 0.85783 0.0
H1305 H 0.58189 0.54135 0.83862 0.0
H1306 H 0.5102 0.55326 0.88512 0.0
H1307 H 0.52451 0.56671 0.92928 0.0
H1308 H 0.56283 0.5269 0.92484 0.0
H1309 H 0.54922 0.51446 0.88042 0.0
H1310 H 0.45669 0.50389 0.85433 0.0
H1311 H 0.42674 0.47531 0.88152 0.0
H1312 H 0.47248 0.44562 0.89762 0.0
H1313 H 0.50198 0.47383 0.87047 0.0
O1314 O 0.48477 0.50551 0.68011 0.0
O1315 O 0.48354 0.46966 0.68411 0.0
O1316 O 0.63737 0.64113 0.88922 0.0
O1317 O 0.65218 0.61605 0.88435 0.0
C1318 C 0.49343 0.50094 0.81717 0.0
C1319 C 0.51093 0.51508 0.80061 0.0
C1320 C 0.53421 0.53518 0.81018 0.0
C1321 C 0.53978 0.54138 0.83619 0.0
C1322 C 0.5223 0.5272 0.85258 0.0
C1323 C 0.49916 0.50701 0.84318 0.0
C1324 C 0.46957 0.47877 0.8074 0.0
C1325 C 0.45241 0.48179 0.79399 0.0
C1326 C 0.43025 0.46068 0.78429 0.0
C1327 C 0.42488 0.43639 0.78829 0.0
C1328 C 0.4419 0.43347 0.80209 0.0
C1329 C 0.46417 0.4545 0.81139 0.0
C1330 C 0.50507 0.50861 0.77326 0.0
C1331 C 0.50295 0.52515 0.75861 0.0
C1332 C 0.4971 0.51898 0.73291 0.0
C1333 C 0.49327 0.49612 0.7214 0.0
C1334 C 0.49555 0.47965 0.73617 0.0
C1335 C 0.50145 0.48588 0.76187 0.0
C1336 C 0.55337 0.54906 0.79323 0.0
C1337 C 0.56195 0.57449 0.79092 0.0
C1338 C 0.582 0.58844 0.77752 0.0
C1339 C 0.59386 0.5772 0.76627 0.0
C1340 C 0.58455 0.55142 0.76765 0.0
C1341 C 0.56448 0.53746 0.78113 0.0
C1342 C 0.56426 0.56223 0.84652 0.0
C1343 C 0.56745 0.585 0.85718 0.0
C1344 C 0.59018 0.60414 0.86818 0.0
C1345 C 0.61008 0.60074 0.8688 0.0
C1346 C 0.60684 0.57798 0.85776 0.0
C1347 C 0.58412 0.5589 0.84668 0.0
C1348 C 0.52876 0.53299 0.87975 0.0
C1349 C 0.52139 0.54719 0.89385 0.0
C1350 C 0.5294 0.55462 0.91906 0.0
C1351 C 0.54457 0.54759 0.93055 0.0
C1352 C 0.55121 0.53262 0.91644 0.0
C1353 C 0.54343 0.52546 0.89119 0.0
C1354 C 0.48156 0.49102 0.86061 0.0
C1355 C 0.46024 0.49132 0.86394 0.0
C1356 C 0.44324 0.4751 0.87943 0.0
C1357 C 0.44734 0.45828 0.89158 0.0
C1358 C 0.46882 0.45828 0.88833 0.0
C1359 C 0.48577 0.47451 0.87304 0.0
C1360 C 0.48691 0.48955 0.69411 0.0
C1361 C 0.63402 0.62061 0.88132 0.0
H1362 H 0.661 0.8651 0.73374 0.0
H1363 H 0.6921 0.70533 0.5211 0.0
H1364 H 0.631 0.8559 0.60006 0.0
H1365 H 0.63443 0.89608 0.61394 0.0
H1366 H 0.70561 0.93636 0.58665 0.0
H1367 H 0.70239 0.89634 0.57364 0.0
H1368 H 0.6356 0.8147 0.63214 0.0
H1369 H 0.63966 0.82991 0.67615 0.0
H1370 H 0.71095 0.89355 0.66697 0.0
H1371 H 0.70675 0.87796 0.62306 0.0
H1372 H 0.63745 0.77239 0.61223 0.0
H1373 H 0.64763 0.74661 0.63602 0.0
H1374 H 0.72402 0.80121 0.63333 0.0
H1375 H 0.71361 0.82723 0.61029 0.0
H1376 H 0.62833 0.75713 0.55656 0.0
H1377 H 0.62952 0.71977 0.54181 0.0
H1378 H 0.70778 0.76578 0.54295 0.0
H1379 H 0.70627 0.80293 0.55772 0.0
H1380 H 0.62277 0.78549 0.51768 0.0
H1381 H 0.62072 0.76182 0.47852 0.0
H1382 H 0.69887 0.80719 0.47883 0.0
H1383 H 0.70078 0.83025 0.51838 0.0
H1384 H 0.62485 0.84415 0.53603 0.0
H1385 H 0.62457 0.87004 0.50387 0.0
H1386 H 0.70062 0.89822 0.49629 0.0
H1387 H 0.70044 0.87183 0.52761 0.0
O1388 O 0.65983 0.85936 0.71633 0.0
O1389 O 0.69636 0.89176 0.71063 0.0
O1390 O 0.6509 0.69679 0.5274 0.0
O1391 O 0.69113 0.71966 0.52742 0.0
C1392 C 0.66534 0.84938 0.57899 0.0
C1393 C 0.6681 0.83607 0.59774 0.0
C1394 C 0.66895 0.81431 0.59094 0.0
C1395 C 0.66624 0.80545 0.5656 0.0
C1396 C 0.66354 0.81876 0.54699 0.0
C1397 C 0.66328 0.84083 0.55357 0.0
C1398 C 0.66645 0.87332 0.58587 0.0
C1399 C 0.64718 0.87344 0.59688 0.0
C1400 C 0.64904 0.8963 0.60449 0.0
C1401 C 0.67019 0.91922 0.6011 0.0
C1402 C 0.6891 0.91892 0.58938 0.0
C1403 C 0.68728 0.89615 0.58193 0.0
C1404 C 0.67084 0.84527 0.62445 0.0
C1405 C 0.65211 0.83186 0.63972 0.0
C1406 C 0.65446 0.84063 0.66482 0.0
C1407 C 0.67562 0.86298 0.67508 0.0
C1408 C 0.69441 0.8763 0.65967 0.0
C1409 C 0.69205 0.86747 0.63458 0.0
C1410 C 0.6748 0.80174 0.60982 0.0
C1411 C 0.65634 0.77917 0.61759 0.0
C1412 C 0.66221 0.7644 0.63093 0.0
C1413 C 0.68664 0.77187 0.6365 0.0
C1414 C 0.70507 0.79517 0.62976 0.0
C1415 C 0.69917 0.81003 0.61658 0.0
C1416 C 0.66721 0.78261 0.55827 0.0
C1417 C 0.6457 0.759 0.55381 0.0
C1418 C 0.64645 0.73775 0.54532 0.0
C1419 C 0.66877 0.73981 0.54115 0.0
C1420 C 0.69031 0.76353 0.54597 0.0
C1421 C 0.68952 0.78475 0.55448 0.0
C1422 C 0.66189 0.80957 0.52064 0.0
C1423 C 0.63933 0.7908 0.50884 0.0
C1424 C 0.63823 0.77726 0.48662 0.0
C1425 C 0.6597 0.78241 0.47603 0.0
C1426 C 0.68213 0.80253 0.48696 0.0
C1427 C 0.68322 0.81596 0.50925 0.0
C1428 C 0.6626 0.85593 0.53388 0.0
C1429 C 0.64135 0.85584 0.52724 0.0
C1430 C 0.6413 0.87081 0.50909 0.0
C1431 C 0.6626 0.88625 0.49757 0.0
C1432 C 0.68383 0.8863 0.50454 0.0
C1433 C 0.68379 0.87124 0.52241 0.0
C1434 C 0.67799 0.87231 0.70172 0.0
C1435 C 0.66962 0.7174 0.53161 0.0
H1436 H 0.18193 0.85846 0.7437 0.0
H1437 H 0.01406 0.66063 0.52641 0.0
H1438 H 0.18243 0.86732 0.61201 0.0
H1439 H 0.22083 0.90473 0.62907 0.0
H1440 H 0.25946 0.86821 0.60648 0.0
H1441 H 0.22065 0.83038 0.58946 0.0
H1442 H 0.14094 0.83144 0.63993 0.0
H1443 H 0.15319 0.84495 0.68439 0.0
H1444 H 0.20311 0.81845 0.68064 0.0
H1445 H 0.19045 0.80474 0.63624 0.0
H1446 H 0.09639 0.79575 0.60556 0.0
H1447 H 0.06325 0.77321 0.63216 0.0
H1448 H 0.09696 0.73329 0.65706 0.0
H1449 H 0.13008 0.75589 0.63026 0.0
H1450 H 0.09149 0.78477 0.54916 0.0
H1451 H 0.05208 0.74929 0.53125 0.0
H1452 H 0.07121 0.69744 0.5576 0.0
H1453 H 0.1107 0.7331 0.57508 0.0
H1454 H 0.13334 0.82137 0.5252 0.0
H1455 H 0.11734 0.80836 0.48123 0.0
H1456 H 0.12587 0.74424 0.48259 0.0
H1457 H 0.14179 0.75731 0.52649 0.0
H1458 H 0.17985 0.86313 0.55517 0.0
H1459 H 0.20901 0.89045 0.52727 0.0
H1460 H 0.22564 0.83316 0.5068 0.0
H1461 H 0.19601 0.80562 0.53482 0.0
O1462 O 0.17707 0.85261 0.72619 0.0
O1463 O 0.20248 0.83872 0.72324 0.0
O1464 O 0.02056 0.70247 0.52003 0.0
O1465 O 0.02923 0.67504 0.53383 0.0
C1466 C 0.17517 0.82328 0.59071 0.0
C1467 C 0.158 0.80971 0.6077 0.0
C1468 C 0.13446 0.78987 0.59865 0.0
C1469 C 0.12844 0.78292 0.57278 0.0
C1470 C 0.14567 0.79649 0.55591 0.0
C1471 C 0.16893 0.81676 0.56483 0.0
C1472 C 0.19878 0.84605 0.59999 0.0
C1473 C 0.19915 0.86734 0.61076 0.0
C1474 C 0.22101 0.88865 0.62032 0.0
C1475 C 0.24287 0.88906 0.61919 0.0
C1476 C 0.24273 0.86817 0.60749 0.0
C1477 C 0.22069 0.84666 0.59796 0.0
C1478 C 0.16462 0.81688 0.63494 0.0
C1479 C 0.15426 0.82826 0.64882 0.0
C1480 C 0.16142 0.8361 0.67419 0.0
C1481 C 0.17914 0.83279 0.68608 0.0
C1482 C 0.1894 0.82126 0.67208 0.0
C1483 C 0.18218 0.81338 0.64673 0.0
C1484 C 0.1155 0.77733 0.61603 0.0
C1485 C 0.09671 0.78232 0.61698 0.0
C1486 C 0.07797 0.76963 0.63226 0.0
C1487 C 0.07775 0.75173 0.64673 0.0
C1488 C 0.09683 0.74708 0.64606 0.0
C1489 C 0.11568 0.75991 0.63087 0.0
C1490 C 0.10397 0.76146 0.56324 0.0
C1491 C 0.08712 0.76572 0.55102 0.0
C1492 C 0.06462 0.74544 0.54085 0.0
C1493 C 0.05854 0.72051 0.5429 0.0
C1494 C 0.07533 0.71637 0.55563 0.0
C1495 C 0.09786 0.73669 0.56569 0.0
C1496 C 0.13869 0.79024 0.52884 0.0
C1497 C 0.13207 0.80474 0.51582 0.0
C1498 C 0.12281 0.79724 0.49092 0.0
C1499 C 0.12028 0.77526 0.47878 0.0
C1500 C 0.12777 0.76131 0.49163 0.0
C1501 C 0.13682 0.7687 0.51657 0.0
C1502 C 0.18608 0.83259 0.54715 0.0
C1503 C 0.18985 0.85652 0.54474 0.0
C1504 C 0.20661 0.87212 0.52898 0.0
C1505 C 0.21998 0.8641 0.51539 0.0
C1506 C 0.21571 0.83981 0.51729 0.0
C1507 C 0.19887 0.82414 0.53318 0.0
C1508 C 0.18698 0.8415 0.71294 0.0
C1509 C 0.03493 0.69888 0.53159 0.0
H1510 H 0.18603 0.31278 0.73774 0.0
H1511 H 0.0212 0.30829 0.50231 0.0
H1512 H 0.21929 0.35197 0.59746 0.0
H1513 H 0.25003 0.3462 0.61865 0.0
H1514 H 0.19769 0.26648 0.61669 0.0
H1515 H 0.16707 0.27241 0.59558 0.0
H1516 H 0.18693 0.34653 0.6393 0.0
H1517 H 0.1923 0.33952 0.68245 0.0
H1518 H 0.13139 0.26288 0.66783 0.0
H1519 H 0.12642 0.27007 0.62462 0.0
H1520 H 0.13639 0.34598 0.63343 0.0
H1521 H 0.10517 0.33881 0.66194 0.0
H1522 H 0.05622 0.26599 0.62125 0.0
H1523 H 0.08764 0.27318 0.59296 0.0
H1524 H 0.11995 0.35505 0.58179 0.0
H1525 H 0.08635 0.3581 0.56382 0.0
H1526 H 0.0599 0.28767 0.51804 0.0
H1527 H 0.09342 0.28473 0.53636 0.0
H1528 H 0.14832 0.36322 0.53567 0.0
H1529 H 0.13163 0.36367 0.49446 0.0
H1530 H 0.12565 0.29305 0.47019 0.0
H1531 H 0.14109 0.29207 0.51186 0.0
H1532 H 0.19818 0.3664 0.54207 0.0
H1533 H 0.22728 0.37476 0.51102 0.0
H1534 H 0.21469 0.29985 0.51323 0.0
H1535 H 0.18429 0.29105 0.54313 0.0
O1536 O 0.18356 0.31513 0.7206 0.0
O1537 O 0.15201 0.27595 0.71221 0.0
O1538 O 0.04959 0.34417 0.53294 0.0
O1539 O 0.03419 0.30715 0.51031 0.0
C1540 C 0.17123 0.31645 0.58618 0.0
C1541 C 0.15344 0.31317 0.60259 0.0
C1542 C 0.13319 0.31437 0.59416 0.0
C1543 C 0.13082 0.31919 0.56944 0.0
C1544 C 0.14913 0.32362 0.55326 0.0
C1545 C 0.16953 0.32249 0.56171 0.0
C1546 C 0.19102 0.31261 0.59492 0.0
C1547 C 0.21469 0.3332 0.60101 0.0
C1548 C 0.23217 0.32985 0.61312 0.0
C1549 C 0.2262 0.30585 0.61926 0.0
C1550 C 0.20271 0.28516 0.61228 0.0
C1551 C 0.18532 0.2885 0.6001 0.0
C1552 C 0.15628 0.30883 0.62888 0.0
C1553 C 0.17479 0.32824 0.64546 0.0
C1554 C 0.1778 0.32418 0.6701 0.0
C1555 C 0.16227 0.30064 0.6786 0.0
C1556 C 0.14365 0.28124 0.6619 0.0
C1557 C 0.14072 0.28531 0.63724 0.0
C1558 C 0.1142 0.31011 0.61118 0.0
C1559 C 0.11895 0.32847 0.63076 0.0
C1560 C 0.10116 0.32436 0.64695 0.0
C1561 C 0.07842 0.30175 0.64388 0.0
C1562 C 0.07374 0.28337 0.62426 0.0
C1563 C 0.09152 0.28754 0.608 0.0
C1564 C 0.1091 0.3197 0.56034 0.0
C1565 C 0.10666 0.34013 0.56815 0.0
C1566 C 0.08755 0.34189 0.55774 0.0
C1567 C 0.07054 0.32321 0.53934 0.0
C1568 C 0.07271 0.30241 0.53209 0.0
C1569 C 0.09179 0.30065 0.54256 0.0
C1570 C 0.14559 0.32743 0.52688 0.0
C1571 C 0.14397 0.34817 0.52125 0.0
C1572 C 0.1346 0.34849 0.49762 0.0
C1573 C 0.12717 0.3283 0.4791 0.0
C1574 C 0.13095 0.30872 0.48419 0.0
C1575 C 0.13999 0.30825 0.5079 0.0
C1576 C 0.1891 0.32813 0.54493 0.0
C1577 C 0.20183 0.35185 0.53599 0.0
C1578 C 0.21871 0.35671 0.51846 0.0
C1579 C 0.2236 0.3381 0.50989 0.0
C1580 C 0.21131 0.31456 0.51943 0.0
C1581 C 0.19411 0.30957 0.53669 0.0
C1582 C 0.16555 0.2964 0.70478 0.0
C1583 C 0.05083 0.32554 0.52744 0.0
C1584 C 0.96915 0.39474 0.07502 0.0
C1585 C 0.98443 0.38492 0.0756 0.0
C1586 C 0.9719 0.41304 0.09364 0.0
C1587 C 0.98991 0.42202 0.11358 0.0
H1588 H 0.95542 0.3888 0.05967 0.0
H1589 H 0.9601 0.42051 0.09219 0.0
S1590 S 0.03251 0.39998 0.12528 0.0
N1591 N 0.01705 0.38414 0.09856 0.0
N1592 N 0.02175 0.41798 0.13404 0.0
C1593 C 0.00473 0.41166 0.11485 0.0
C1594 C 0.00211 0.39325 0.09574 0.0
C1595 C 0.59175 0.59566 0.14805 0.0
C1596 C 0.59679 0.58749 0.12536 0.0
C1597 C 0.57878 0.5787 0.16518 0.0
C1598 C 0.57014 0.55288 0.16018 0.0
H1599 H 0.59689 0.61514 0.15207 0.0
H1600 H 0.57449 0.58567 0.18197 0.0
S1601 S 0.58018 0.52222 0.10441 0.0
N1602 N 0.59383 0.55225 0.09963 0.0
N1603 N 0.56898 0.52017 0.13177 0.0
C1604 C 0.57644 0.54469 0.13836 0.0
C1605 C 0.58989 0.56207 0.12094 0.0
C1606 C 0.42232 0.00335 0.09828 0.0
C1607 C 0.41759 0.98595 0.07758 0.0
C1608 C 0.43608 0.00488 0.11985 0.0
C1609 C 0.44567 0.98919 0.12132 0.0
H1610 H 0.41415 0.01474 0.09838 0.0
H1611 H 0.43805 0.01739 0.13595 0.0
S1612 S 0.44222 0.94396 0.0705 0.0
N1613 N 0.42614 0.95509 0.05876 0.0
N1614 N 0.45226 0.95831 0.09904 0.0
C1615 C 0.4426 0.97317 0.10005 0.0
C1616 C 0.4285 0.97147 0.07825 0.0
C1617 C 0.39752 0.96923 0.9399 0.0
C1618 C 0.40408 0.98733 0.96049 0.0
C1619 C 0.41253 0.97401 0.92026 0.0
C1620 C 0.43486 0.99696 0.92052 0.0
H1621 H 0.3807 0.95115 0.93899 0.0
H1622 H 0.40663 0.95949 0.9048 0.0
S1623 S 0.46106 0.05012 0.97079 0.0
N1624 N 0.43463 0.02904 0.98008 0.0
N1625 N 0.46312 0.03762 0.9437 0.0
C1626 C 0.4416 0.01524 0.94099 0.0
C1627 C 0.42616 0.01053 0.96081 0.0
C1628 C 0.97682 0.39786 0.96083 0.0
C1629 C 0.99439 0.39132 0.96504 0.0
C1630 C 0.97961 0.41472 0.94373 0.0
C1631 C 1.0 0.42572 0.92987 0.0
H1632 H 0.96058 0.38976 0.97077 0.0
H1633 H 0.96546 0.41898 0.94114 0.0
S1634 S 0.05159 0.4154 0.93407 0.0
N1635 N 0.03335 0.39774 0.95444 0.0
N1636 N 0.03842 0.42932 0.92174 0.0
C1637 C 0.01812 0.41997 0.93428 0.0
C1638 C 0.01535 0.4028 0.95198 0.0
C1639 C 0.59158 0.581 0.98565 0.0
C1640 C 0.57801 0.58283 0.00458 0.0
C1641 C 0.58043 0.56884 0.962 0.0
C1642 C 0.55527 0.5578 0.95649 0.0
H1643 H 0.61113 0.59002 0.98875 0.0
H1644 H 0.59179 0.56899 0.94765 0.0
S1645 S 0.51115 0.55404 0.00073 0.0
N1646 N 0.53783 0.57055 0.01706 0.0
N1647 N 0.51674 0.54702 0.97266 0.0
C1648 C 0.5413 0.55826 0.97566 0.0
C1649 C 0.5527 0.57092 -0.00031 0.0
C1650 C 0.03054 0.5904 0.99496 0.0
C1651 C 0.01481 0.59971 0.99615 0.0
C1652 C 0.02747 0.57267 0.97552 0.0
C1653 C 0.00852 0.56352 0.95661 0.0
H1654 H 0.04545 0.59692 0.00911 0.0
H1655 H 0.04015 0.56624 0.97512 0.0
S1656 S 0.96308 0.58255 0.95019 0.0
N1657 N 0.97988 0.59877 0.97623 0.0
N1658 N 0.97427 0.56547 0.93961 0.0
C1659 C 0.99255 0.57246 0.95755 0.0
C1660 C 0.99565 0.59054 0.97735 0.0
C1661 C 0.40866 0.39783 0.92046 0.0
C1662 C 0.4023 0.40587 0.94235 0.0
C1663 C 0.42192 0.41467 0.90335 0.0
C1664 C 0.4294 0.44025 0.90743 0.0
H1665 H 0.40435 0.37856 0.91709 0.0
H1666 H 0.4273 0.40784 0.8873 0.0
S1667 S 0.4156 0.47052 0.96053 0.0
N1668 N 0.40283 0.44077 0.96616 0.0
N1669 N 0.428 0.47256 0.93389 0.0
C1670 C 0.42176 0.44826 0.92828 0.0
C1671 C 0.40812 0.43102 0.94577 0.0
C1672 C 0.56804 0.01451 0.99516 0.0
C1673 C 0.58565 0.00774 0.99485 0.0
C1674 C 0.55374 0.01121 0.97343 0.0
C1675 C 0.55691 0.00153 0.95047 0.0
H1676 H 0.56585 0.02317 0.01218 0.0
H1677 H 0.5407 0.01714 0.97444 0.0
S1678 S 0.60116 0.9814 0.94 0.0
N1679 N 0.60532 0.99051 0.97018 0.0
N1680 N 0.57921 0.98519 0.92897 0.0
C1681 C 0.57407 0.99401 0.95014 0.0
C1682 C 0.5883 0.99696 0.97244 0.0
C1683 C 0.58973 0.99706 0.12716 0.0
C1684 C 0.59762 0.01914 0.11533 0.0
C1685 C 0.57516 0.99179 0.14718 0.0
C1686 C 0.56789 0.00836 0.15622 0.0
H1687 H 0.59473 0.98361 0.12085 0.0
H1688 H 0.56947 0.97453 0.15561 0.0
S1689 S 0.58279 0.06828 0.1315 0.0
N1690 N 0.59671 0.05759 0.11415 0.0
N1691 N 0.56911 0.04742 0.15155 0.0
C1692 C 0.57574 0.03057 0.14477 0.0
C1693 C 0.59065 0.03602 0.12441 0.0
C1694 C 0.98691 0.58651 0.10652 0.0
C1695 C 0.00686 0.6114 0.11157 0.0
C1696 C 0.98298 0.56803 0.12235 0.0
C1697 C 0.99887 0.57393 0.14367 0.0
H1698 H 0.97527 0.58085 0.08939 0.0
H1699 H 0.96834 0.54876 0.11712 0.0
S1700 S 0.05068 0.63717 0.16777 0.0
N1701 N 0.04044 0.64159 0.14134 0.0
N1702 N 0.03297 0.6069 0.17096 0.0
C1703 C 0.01754 0.59911 0.15 0.0
C1704 C 0.02155 0.61784 0.13398 0.0
C1705 C 0.40861 0.41544 0.0817 0.0
C1706 C 0.42102 0.41048 0.06345 0.0
C1707 C 0.42004 0.42716 0.10542 0.0
C1708 C 0.44429 0.43444 0.11168 0.0
H1709 H 0.3896 0.40918 0.07806 0.0
H1710 H 0.40948 0.42954 0.1193 0.0
S1711 S 0.48596 0.42952 0.06946 0.0
N1712 N 0.45975 0.41636 0.05242 0.0
N1713 N 0.4812 0.43861 0.09704 0.0
C1714 C 0.45734 0.431 0.0932 0.0
C1715 C 0.44572 0.41899 0.06907 0.0
C1716 C 0.63943 0.74192 0.41417 0.0
C1717 C 0.65368 0.73089 0.41433 0.0
C1718 C 0.64192 0.75905 0.43392 0.0
C1719 C 0.65864 0.76564 0.45462 0.0
H1720 H 0.62629 0.73736 0.39858 0.0
H1721 H 0.6306 0.76713 0.43305 0.0
S1722 S 0.69913 0.74079 0.46483 0.0
N1723 N 0.68464 0.72721 0.43712 0.0
N1724 N 0.68891 0.759 0.4747 0.0
C1725 C 0.67297 0.7547 0.45509 0.0
C1726 C 0.6706 0.73742 0.43482 0.0
C1727 C 0.24971 0.89005 0.45651 0.0
C1728 C 0.26518 0.91579 0.46457 0.0
C1729 C 0.23611 0.87289 0.47341 0.0
C1730 C 0.23771 0.88108 0.49878 0.0
H1731 H 0.24687 0.88345 0.43686 0.0
H1732 H 0.22318 0.85347 0.46633 0.0
S1733 S 0.27914 0.94578 0.52957 0.0
N1734 N 0.2837 0.94808 0.49972 0.0
N1735 N 0.25862 0.91587 0.53158 0.0
C1736 C 0.25469 0.90641 0.50725 0.0
C1737 C 0.2683 0.92379 0.49008 0.0
C1738 C 0.07571 0.29975 0.42794 0.0
C1739 C 0.08171 0.31955 0.41312 0.0
C1740 C 0.09073 0.30281 0.44886 0.0
C1741 C 0.11256 0.32576 0.45594 0.0
H1742 H 0.05899 0.28168 0.42366 0.0
H1743 H 0.08485 0.28712 0.45992 0.0
S1744 S 0.13741 0.38336 0.42315 0.0
N1745 N 0.11146 0.36296 0.40683 0.0
N1746 N 0.13992 0.36854 0.44615 0.0
C1747 C 0.11901 0.34575 0.4413 0.0
C1748 C 0.10358 0.34268 0.41991 0.0
C1749 C 0.09237 0.34272 0.29096 0.0
C1750 C 0.07022 0.31974 0.29148 0.0
C1751 C 0.10705 0.34689 0.27114 0.0
C1752 C 0.10012 0.32838 0.25085 0.0
H1753 H 0.09886 0.35735 0.3064 0.0
H1754 H 0.12436 0.36449 0.27215 0.0
S1755 S 0.04228 0.26634 0.24148 0.0
N1756 N 0.04115 0.27903 0.26891 0.0
N1757 N 0.06838 0.28717 0.23135 0.0
C1758 C 0.07749 0.30577 0.25058 0.0
C1759 C 0.06266 0.30139 0.27092 0.0
C1760 C 0.65112 0.74501 0.3039 0.0
C1761 C 0.6622 0.73069 0.30292 0.0
C1762 C 0.65566 0.76252 0.28693 0.0
C1763 C 0.67112 0.76613 0.26788 0.0
H1764 H 0.63863 0.74254 0.31787 0.0
H1765 H 0.64664 0.77306 0.28857 0.0
S1766 S 0.70496 0.73343 0.25759 0.0
N1767 N 0.69003 0.72176 0.28222 0.0
N1768 N 0.69794 0.75405 0.24937 0.0
C1769 C 0.68288 0.75236 0.26708 0.0
C1770 C 0.67855 0.73476 0.2848 0.0
C1771 C 0.26502 0.92578 0.32671 0.0
C1772 C 0.25219 0.92838 0.34601 0.0
C1773 C 0.25361 0.91507 0.30277 0.0
C1774 C 0.22883 0.90622 0.29726 0.0
H1775 H 0.28423 0.93268 0.32992 0.0
H1776 H 0.26446 0.9142 0.28834 0.0
S1777 S 0.1865 0.9062 0.34195 0.0
N1778 N 0.21304 0.91995 0.35847 0.0
N1779 N 0.19139 0.89907 0.31358 0.0
C1780 C 0.2156 0.90802 0.31658 0.0
C1781 C 0.22731 0.91924 0.34092 0.0
C1782 C 0.66213 0.91597 0.32637 0.0
C1783 C 0.68025 0.94167 0.32799 0.0
C1784 C 0.66105 0.89888 0.30727 0.0
C1785 C 0.67797 0.90704 0.28918 0.0
H1786 H 0.6493 0.90888 0.34046 0.0
H1787 H 0.64723 0.87911 0.30695 0.0
S1788 S 0.7264 0.97303 0.2831 0.0
N1789 N 0.71394 0.97484 0.30873 0.0
N1790 N 0.71149 0.94289 0.27242 0.0
C1791 C 0.69538 0.9329 0.28994 0.0
C1792 C 0.69662 0.95018 0.30947 0.0
C1793 C 0.08163 0.73871 0.26159 0.0
C1794 C 0.07355 0.74522 0.28308 0.0
C1795 C 0.0951 0.75654 0.24536 0.0
C1796 C 0.10109 0.78164 0.24998 0.0
H1797 H 0.07842 0.71989 0.25781 0.0
H1798 H 0.10171 0.75087 0.22957 0.0
S1799 S 0.08254 0.80796 0.30232 0.0
N1800 N 0.07091 0.77811 0.30707 0.0
N1801 N 0.09648 0.81179 0.27647 0.0
C1802 C 0.0918 0.78809 0.27042 0.0
C1803 C 0.07794 0.76983 0.28701 0.0
C1804 C 0.25192 0.32953 0.30631 0.0
C1805 C 0.25135 0.34234 0.32849 0.0
C1806 C 0.23772 0.32679 0.28464 0.0
C1807 C 0.22225 0.33647 0.28454 0.0
H1808 H 0.26449 0.32299 0.30529 0.0
H1809 H 0.2399 0.31823 0.26755 0.0
S1810 S 0.21129 0.36757 0.33936 0.0
N1811 N 0.23245 0.36241 0.34998 0.0
N1812 N 0.20489 0.35624 0.30967 0.0
C1813 C 0.22026 0.34761 0.30722 0.0
C1814 C 0.23504 0.3508 0.32909 0.0
C1815 C 0.24702 0.32833 0.44917 0.0
C1816 C 0.26888 0.35145 0.44827 0.0
C1817 C 0.23284 0.32404 0.46938 0.0
C1818 C 0.24006 0.34257 0.4897 0.0
H1819 H 0.24036 0.31366 0.43375 0.0
H1820 H 0.21569 0.3063 0.46869 0.0
S1821 S 0.29732 0.40513 0.49793 0.0
N1822 N 0.298 0.39245 0.47028 0.0
N1823 N 0.2717 0.38408 0.50869 0.0
C1824 C 0.26239 0.3654 0.48953 0.0
C1825 C 0.2767 0.36991 0.46875 0.0
C1826 C 0.67859 0.91943 0.43887 0.0
C1827 C 0.67013 0.93606 0.44186 0.0
C1828 C 0.67497 0.90263 0.45639 0.0
C1829 C 0.66312 0.90206 0.47792 0.0
H1830 H 0.68856 0.91977 0.42303 0.0
H1831 H 0.68208 0.89038 0.45333 0.0
S1832 S 0.63704 0.94158 0.49412 0.0
N1833 N 0.64853 0.95043 0.46722 0.0
N1834 N 0.64233 0.91933 0.50087 0.0
C1835 C 0.65379 0.91804 0.48073 0.0
C1836 C 0.6572 0.93497 0.46254 0.0
C1837 C 0.10999 0.74951 0.41112 0.0
C1838 C 0.08602 0.74313 0.40444 0.0
C1839 C 0.12124 0.76073 0.43496 0.0
C1840 C 0.10903 0.76613 0.45299 0.0
H1841 H 0.12003 0.74531 0.398 0.0
H1842 H 0.13948 0.76476 0.43951 0.0
S1843 S 0.04639 0.75377 0.44521 0.0
N1844 N 0.05066 0.74366 0.41789 0.0
N1845 N 0.07201 0.76482 0.46281 0.0
C1846 C 0.08543 0.76072 0.44647 0.0
C1847 C 0.07388 0.74922 0.42215 0.0
C1848 C 0.3409 0.08575 0.73915 0.0
C1849 C 0.32174 0.06045 0.73575 0.0
C1850 C 0.34182 0.10234 0.75869 0.0
C1851 C 0.32374 0.09408 0.77559 0.0
H1852 H 0.35511 0.09282 0.72647 0.0
H1853 H 0.3568 0.12175 0.76063 0.0
S1854 S 0.27115 0.02891 0.77606 0.0
N1855 N 0.28498 0.02757 0.7514 0.0
N1856 N 0.28713 0.05846 0.78863 0.0
C1857 C 0.30473 0.06867 0.77258 0.0
C1858 C 0.30364 0.05192 0.75253 0.0
C1859 C 0.91923 0.22173 0.78824 0.0
C1860 C 0.9344 0.24772 0.79529 0.0
C1861 C 0.90565 0.20534 0.80571 0.0
C1862 C 0.90697 0.21454 0.83068 0.0
H1863 H 0.91639 0.21436 0.76882 0.0
H1864 H 0.89281 0.18572 0.79927 0.0
S1865 S 0.94771 0.28039 0.85902 0.0
N1866 N 0.95238 0.28144 0.82914 0.0
N1867 N 0.92755 0.25062 0.86218 0.0
C1868 C 0.92384 0.24014 0.83826 0.0
C1869 C 0.93738 0.25676 0.82048 0.0
C1870 C 0.75197 0.66999 0.7696 0.0
C1871 C 0.75298 0.65721 0.74763 0.0
C1872 C 0.76605 0.67311 0.79152 0.0
C1873 C 0.78188 0.66387 0.7921 0.0
H1874 H 0.7392 0.67631 0.77024 0.0
H1875 H 0.76356 0.68169 0.80841 0.0
S1876 S 0.79389 0.63284 0.73804 0.0
N1877 N 0.77253 0.63746 0.7269 0.0
N1878 N 0.7999 0.64438 0.76766 0.0
C1879 C 0.78421 0.65264 0.76966 0.0
C1880 C 0.76953 0.64904 0.74754 0.0
C1881 C 0.75923 0.67313 0.62612 0.0
C1882 C 0.73738 0.65 0.62704 0.0
C1883 C 0.77353 0.67736 0.60595 0.0
C1884 C 0.76645 0.65873 0.58573 0.0
H1885 H 0.76578 0.68785 0.64148 0.0
H1886 H 0.79063 0.69514 0.60658 0.0
S1887 S 0.70921 0.59614 0.57753 0.0
N1888 N 0.7084 0.60893 0.60505 0.0
N1889 N 0.73489 0.61716 0.56685 0.0
C1890 C 0.74411 0.63591 0.58593 0.0
C1891 C 0.72969 0.63149 0.60662 0.0
C1892 C 0.32609 0.04866 0.59749 0.0
C1893 C 0.33906 0.05575 0.62106 0.0
C1894 C 0.33026 0.06659 0.58102 0.0
C1895 C 0.34728 0.0924 0.58764 0.0
H1896 H 0.31197 0.0292 0.59208 0.0
H1897 H 0.31942 0.06028 0.56329 0.0
S1898 S 0.38668 0.12061 0.64689 0.0
N1899 N 0.37059 0.09012 0.64971 0.0
N1900 N 0.37789 0.12396 0.61909 0.0
C1901 C 0.36122 0.0996 0.61068 0.0
C1902 C 0.35722 0.08123 0.62732 0.0
C1903 C 0.93161 0.25522 0.65579 0.0
C1904 C 0.91816 0.25631 0.67522 0.0
C1905 C 0.92064 0.24532 0.63157 0.0
C1906 C 0.89575 0.23585 0.62593 0.0
H1907 H 0.95096 0.26291 0.65909 0.0
H1908 H 0.93193 0.24577 0.61701 0.0
S1909 S 0.85191 0.23139 0.6709 0.0
N1910 N 0.87832 0.24538 0.68771 0.0
N1911 N 0.85752 0.22604 0.64225 0.0
C1912 C 0.88188 0.23585 0.64542 0.0
C1913 C 0.89312 0.24623 0.67004 0.0
C1914 C 0.36865 0.25923 0.66507 0.0
C1915 C 0.35098 0.26603 0.66509 0.0
C1916 C 0.36824 0.24275 0.64579 0.0
C1917 C 0.35012 0.2324 0.62588 0.0
H1918 H 0.38298 0.26672 0.68005 0.0
H1919 H 0.38232 0.23821 0.64635 0.0
S1920 S 0.30047 0.24509 0.61621 0.0
N1921 N 0.31522 0.26159 0.64295 0.0
N1922 N 0.3146 0.23068 0.6067 0.0
C1923 C 0.3323 0.23892 0.62563 0.0
C1924 C 0.33269 0.25571 0.64524 0.0
C1925 C 0.74565 0.1086 0.61581 0.0
C1926 C 0.73839 0.08305 0.61132 0.0
C1927 C 0.75961 0.12597 0.59917 0.0
C1928 C 0.76659 0.11821 0.5776 0.0
H1929 H 0.74204 0.11554 0.63308 0.0
H1930 H 0.76621 0.14575 0.60396 0.0
S1931 S 0.7481 0.05276 0.55497 0.0
N1932 N 0.73626 0.05039 0.582 0.0
N1933 N 0.7623 0.08296 0.55081 0.0
C1934 C 0.75765 0.09244 0.57189 0.0
C1935 C 0.74357 0.07486 0.58873 0.0
C1936 C 0.93173 0.70037 0.64147 0.0
C1937 C 0.92514 0.68084 0.65683 0.0
C1938 C 0.91705 0.69722 0.62022 0.0
C1939 C 0.89503 0.67444 0.61331 0.0
H1940 H 0.9485 0.71838 0.64581 0.0
H1941 H 0.92318 0.71278 0.60895 0.0
S1942 S 0.8691 0.61731 0.64691 0.0
N1943 N 0.89494 0.63768 0.66344 0.0
N1944 N 0.86717 0.63189 0.62338 0.0
C1945 C 0.88821 0.65456 0.6282 0.0
C1946 C 0.90328 0.65774 0.64996 0.0
C1947 C 0.93686 0.70128 0.80023 0.0
C1948 C 0.92839 0.68324 0.77929 0.0
C1949 C 0.92312 0.69713 0.82086 0.0
C1950 C 0.90033 0.67488 0.82123 0.0
H1951 H 0.95438 0.71859 0.80085 0.0
H1952 H 0.93048 0.71139 0.8367 0.0
S1953 S 0.86895 0.62285 0.77006 0.0
N1954 N 0.89523 0.64285 0.75969 0.0
N1955 N 0.8692 0.63541 0.79811 0.0
C1956 C 0.89146 0.65692 0.80021 0.0
C1957 C 0.90553 0.66102 0.77933 0.0
C1958 C 0.31522 0.24725 0.77333 0.0
C1959 C 0.33426 0.2725 0.77912 0.0
C1960 C 0.31134 0.22882 0.78919 0.0
C1961 C 0.32639 0.23511 0.81128 0.0
H1962 H 0.30424 0.24136 0.75572 0.0
H1963 H 0.2974 0.20935 0.78349 0.0
S1964 S 0.37545 0.29911 0.8373 0.0
N1965 N 0.36592 0.30327 0.8103 0.0
N1966 N 0.35862 0.26862 0.8399 0.0
C1967 C 0.34413 0.26052 0.81822 0.0
C1968 C 0.34805 0.27923 0.8022 0.0
C1969 C 0.77792 0.09031 0.7414 0.0
C1970 C 0.75455 0.08549 0.73436 0.0
C1971 C 0.78895 0.10072 0.76549 0.0
C1972 C 0.7771 0.10681 0.7834 0.0
H1973 H 0.78756 0.08539 0.7284 0.0
H1974 H 0.80667 0.1035 0.77033 0.0
S1975 S 0.71609 0.09852 0.77466 0.0
N1976 N 0.72021 0.08829 0.74732 0.0
N1977 N 0.7411 0.10787 0.79268 0.0
C1978 C 0.75418 0.10302 0.77649 0.0
C1979 C 0.74287 0.09238 0.75193 0.0
C1980 C 0.06286 0.33751 0.06479 0.0
C1981 C 0.06093 0.35875 0.0631 0.0
C1982 C 0.07951 0.33781 0.08232 0.0
C1983 C 0.09446 0.35916 0.09941 0.0
H1984 H 0.05142 0.32048 0.05236 0.0
H1985 H 0.08073 0.32115 0.08229 0.0
S1986 S 0.09491 0.41911 0.10364 0.0
N1987 N 0.07476 0.40154 0.07998 0.0
N1988 N 0.10524 0.40184 0.11406 0.0
C1989 C 0.09245 0.38052 0.09803 0.0
C1990 C 0.07587 0.38037 0.07964 0.0
C1991 C 0.66975 0.69453 0.11957 0.0
C1992 C 0.65171 0.68332 0.09944 0.0
C1993 C 0.6748 0.71688 0.13337 0.0
C1994 C 0.66185 0.7285 0.12751 0.0
H1995 H 0.68004 0.68604 0.12468 0.0
H1996 H 0.68875 0.72501 0.14878 0.0
S1997 S 0.61428 0.70807 0.07565 0.0
N1998 N 0.62174 0.68644 0.07375 0.0
N1999 N 0.63138 0.72831 0.09972 0.0
C2000 C 0.64407 0.71775 0.10732 0.0
C2001 C 0.63893 0.69514 0.09328 0.0
C2002 C 0.32054 0.96746 0.08589 0.0
C2003 C 0.32299 0.95828 0.06228 0.0
C2004 C 0.30045 0.95295 0.09911 0.0
C2005 C 0.28192 0.92862 0.08929 0.0
H2006 H 0.33409 0.98626 0.09416 0.0
H2007 H 0.29934 0.96094 0.11714 0.0
S2008 S 0.27977 0.89538 0.02859 0.0
N2009 N 0.30545 0.92293 0.02993 0.0
N2010 N 0.26743 0.89565 0.05479 0.0
C2011 C 0.28438 0.91884 0.06604 0.0
C2012 C 0.30497 0.93366 0.05252 0.0
C2013 C 0.38549 0.07285 0.9903 0.0
C2014 C 0.36882 0.05477 0.00477 0.0
C2015 C 0.37987 0.08887 0.97865 0.0
C2016 C 0.35753 0.0874 0.98135 0.0
H2017 H 0.40223 0.07357 0.98675 0.0
H2018 H 0.39255 0.10156 0.96644 0.0
S2019 S 0.30981 0.04594 0.02096 0.0
N2020 N 0.33045 0.03797 0.02338 0.0
N2021 N 0.32028 0.06864 0.0024 0.0
C2022 C 0.34162 0.07059 0.99732 0.0
C2023 C 0.34718 0.05412 0.0088 0.0
C2024 C 0.96867 0.27084 0.98464 0.0
C2025 C 0.97404 0.29413 0.97714 0.0
C2026 C 0.94919 0.24826 0.97263 0.0
C2027 C 0.93439 0.24848 0.95306 0.0
H2028 H 0.97858 0.27016 0.00089 0.0
H2029 H 0.94461 0.23071 0.97989 0.0
S2030 S 0.94324 0.30461 0.92448 0.0
N2031 N 0.965 0.31614 0.94744 0.0
N2032 N 0.92814 0.27369 0.92487 0.0
C2033 C 0.94077 0.27161 0.94426 0.0
C2034 C 0.96068 0.29451 0.95637 0.0
C2035 C 0.69545 0.61249 0.02557 0.0
C2036 C 0.68462 0.62672 0.02165 0.0
C2037 C 0.71445 0.61511 0.01164 0.0
C2038 C 0.72328 0.63218 0.99354 0.0
H2039 H 0.68953 0.59956 0.03976 0.0
H2040 H 0.72262 0.60415 0.01537 0.0
S2041 S 0.69982 0.67193 0.97416 0.0
N2042 N 0.68318 0.65714 0.99677 0.0
N2043 N 0.71896 0.66207 0.97105 0.0
C2044 C 0.71222 0.6459 0.98889 0.0
C2045 C 0.69285 0.64317 0.00284 0.0
C2046 C 0.92637 0.63153 0.00834 0.0
C2047 C 0.95066 0.64318 0.00247 0.0
C2048 C 0.90877 0.63221 0.99296 0.0
C2049 C 0.91482 0.64449 0.9711 0.0
H2050 H 0.921 0.62239 0.02528 0.0
H2051 H 0.89043 0.62364 0.99858 0.0
S2052 S 0.97513 0.67521 0.94576 0.0
N2053 N 0.97937 0.66561 0.97214 0.0
N2054 N 0.94624 0.66667 0.94329 0.0
C2055 C 0.93881 0.65539 0.96455 0.0
C2056 C 0.95673 0.65476 0.98019 0.0
C2057 C 0.3268 0.29856 0.94994 0.0
C2058 C 0.34577 0.3107 0.96915 0.0
C2059 C 0.32192 0.27624 0.93615 0.0
C2060 C 0.33603 0.26565 0.94108 0.0
H2061 H 0.31564 0.30628 0.94556 0.0
H2062 H 0.30724 0.26735 0.92147 0.0
S2063 S 0.38656 0.28882 0.99016 0.0
N2064 N 0.37794 0.3095 0.99292 0.0
N2065 N 0.36871 0.26785 0.96687 0.0
C2066 C 0.35475 0.27734 0.96031 0.0
C2067 C 0.35967 0.29984 0.97438 0.0
C2068 C 0.68955 0.03235 0.00049 0.0
C2069 C 0.68142 0.04307 0.01856 0.0
C2070 C 0.70956 0.04739 0.98743 0.0
C2071 C 0.72212 0.07376 0.99174 0.0
H2072 H 0.6806 0.01209 0.99651 0.0
H2073 H 0.71517 0.03829 0.97371 0.0
S2074 S 0.70816 0.1114 0.03662 0.0
N2075 N 0.68742 0.08184 0.03985 0.0
N2076 N 0.72511 0.11018 0.01502 0.0
C2077 C 0.71406 0.08486 0.00941 0.0
C2078 C 0.6937 0.06949 0.0229 0.0
C2079 C 0.62739 0.92809 0.07114 0.0
C2080 C 0.63589 0.95185 0.08423 0.0
C2081 C 0.6338 0.91149 0.07997 0.0
C2082 C 0.64887 0.91816 0.10216 0.0
H2083 H 0.61655 0.9227 0.05349 0.0
H2084 H 0.6275 0.89363 0.06905 0.0
S2085 S 0.67254 0.97646 0.14528 0.0
N2086 N 0.65798 0.98008 0.12174 0.0
N2087 N 0.66961 0.94877 0.13847 0.0
C2088 C 0.65633 0.94128 0.11605 0.0
C2089 C 0.64994 0.95815 0.10705 0.0
C2090 C 0.03795 0.7189 0.10137 0.0
C2091 C 0.04457 0.70675 0.08313 0.0
C2092 C 0.05564 0.74095 0.11601 0.0
C2093 C 0.08045 0.75133 0.11301 0.0
H2094 H 0.01901 0.71134 0.10439 0.0
H2095 H 0.04994 0.74977 0.12993 0.0
S2096 S 0.10741 0.72813 0.06699 0.0
N2097 N 0.07788 0.70778 0.06225 0.0
N2098 N 0.11083 0.74892 0.08994 0.0
C2099 C 0.0873 0.73967 0.09471 0.0
C2100 C 0.06943 0.71743 0.07974 0.0
C2101 C 0.30169 0.34882 0.06019 0.0
C2102 C 0.31419 0.36956 0.04631 0.0
C2103 C 0.28376 0.34668 0.07538 0.0
C2104 C 0.27769 0.36527 0.07756 0.0
H2105 H 0.30567 0.33394 0.0593 0.0
H2106 H 0.27477 0.33043 0.08578 0.0
S2107 S 0.30456 0.42316 0.04513 0.0
N2108 N 0.31896 0.40902 0.03563 0.0
N2109 N 0.28519 0.40495 0.06442 0.0
C2110 C 0.28997 0.38614 0.06389 0.0
C2111 C 0.30819 0.38827 0.04818 0.0
C2112 C 0.71498 0.67954 0.42389 0.0
C2113 C 0.72181 0.69298 0.40279 0.0
C2114 C 0.73214 0.67892 0.43993 0.0
C2115 C 0.75682 0.69172 0.43553 0.0
H2116 H 0.69615 0.66927 0.42808 0.0
H2117 H 0.72601 0.66828 0.4559 0.0
S2118 S 0.78416 0.72886 0.38242 0.0
N2119 N 0.75502 0.71914 0.37819 0.0
N2120 N 0.78726 0.71765 0.40817 0.0
C2121 C 0.76399 0.70534 0.41457 0.0
C2122 C 0.7465 0.70606 0.39826 0.0
C2123 C 0.35084 0.03704 0.442 0.0
C2124 C 0.33115 0.01478 0.44905 0.0
C2125 C 0.35575 0.06066 0.45223 0.0
C2126 C 0.34104 0.06255 0.46976 0.0
H2127 H 0.36146 0.03619 0.42729 0.0
H2128 H 0.37009 0.07742 0.44519 0.0
S2129 S 0.29004 0.00969 0.49736 0.0
N2130 N 0.29875 0.99597 0.47647 0.0
N2131 N 0.30831 0.0403 0.49634 0.0
C2132 C 0.32261 0.04039 0.47842 0.0
C2133 C 0.31752 0.01645 0.46783 0.0
C2134 C 0.97292 0.27395 0.38309 0.0
C2135 C 0.99214 0.29738 0.39425 0.0
C2136 C 0.95237 0.2591 0.39583 0.0
C2137 C 0.95039 0.26721 0.42015 0.0
H2138 H 0.97338 0.26737 0.36411 0.0
H2139 H 0.93765 0.2415 0.38636 0.0
S2140 S 0.99719 0.32519 0.45899 0.0
N2141 N 0.00885 0.32672 0.43198 0.0
N2142 N 0.97041 0.29874 0.45584 0.0
C2143 C 0.96997 0.28998 0.43191 0.0
C2144 C 0.99081 0.30508 0.419 0.0
C2145 C 0.02338 0.39534 0.33933 0.0
C2146 C 0.04408 0.39405 0.33541 0.0
C2147 C 0.01941 0.4125 0.328 0.0
C2148 C 0.03573 0.42864 0.31181 0.0
H2149 H 0.00974 0.38242 0.35069 0.0
H2150 H 0.00295 0.41249 0.33125 0.0
S2151 S 0.09294 0.43253 0.29571 0.0
N2152 N 0.08158 0.4107 0.31523 0.0
N2153 N 0.07379 0.44245 0.29291 0.0
C2154 C 0.05703 0.42812 0.30846 0.0
C2155 C 0.06126 0.41089 0.32048 0.0
C2156 C 0.60375 0.61979 0.32589 0.0
C2157 C 0.62834 0.63014 0.32155 0.0
C2158 C 0.58549 0.59777 0.31215 0.0
C2159 C 0.59099 0.58514 0.29346 0.0
H2160 H 0.59843 0.62859 0.34023 0.0
H2161 H 0.56686 0.59036 0.31646 0.0
S2162 S 0.65225 0.60458 0.27402 0.0
N2163 N 0.65723 0.62627 0.29681 0.0
N2164 N 0.62255 0.58462 0.27074 0.0
C2165 C 0.61541 0.5952 0.28871 0.0
C2166 C 0.63417 0.6178 0.30276 0.0
C2167 C 0.37699 0.98066 0.3632 0.0
C2168 C 0.35518 0.95771 0.36442 0.0
C2169 C 0.39407 0.98251 0.34692 0.0
C2170 C 0.38973 0.96161 0.33075 0.0
H2171 H 0.38092 0.99736 0.37499 0.0
H2172 H 0.41079 0.00056 0.34695 0.0
S2173 S 0.33443 0.89749 0.3259 0.0
N2174 N 0.32978 0.91369 0.34819 0.0
N2175 N 0.36132 0.9173 0.31652 0.0
C2176 C 0.36785 0.93846 0.33182 0.0
C2177 C 0.35068 0.93649 0.34889 0.0
C2178 C 0.61936 0.99658 0.32745 0.0
C2179 C 0.61204 0.9774 0.34342 0.0
C2180 C 0.60252 0.99747 0.31117 0.0
C2181 C 0.57768 0.9791 0.30998 0.0
H2182 H 0.63831 0.01122 0.32753 0.0
H2183 H 0.60902 0.01264 0.29933 0.0
S2184 S 0.54866 0.92535 0.34813 0.0
N2185 N 0.57793 0.93978 0.3572 0.0
N2186 N 0.54628 0.94154 0.32649 0.0
C2187 C 0.56998 0.9598 0.32574 0.0
C2188 C 0.58715 0.95894 0.3425 0.0
C2189 C 0.99843 0.63609 0.28432 0.0
C2190 C 0.01743 0.64844 0.30348 0.0
C2191 C 0.99464 0.61467 0.26958 0.0
C2192 C 0.00996 0.60527 0.27338 0.0
H2193 H 0.98623 0.64279 0.28086 0.0
H2194 H 0.9797 0.60542 0.25518 0.0
S2195 S 0.06153 0.62971 0.32145 0.0
N2196 N 0.05123 0.64887 0.32571 0.0
N2197 N 0.04413 0.60901 0.29778 0.0
C2198 C 0.02894 0.61736 0.29233 0.0
C2199 C 0.0327 0.63888 0.30744 0.0
C2200 C 0.3548 0.36407 0.32779 0.0
C2201 C 0.3478 0.37493 0.34693 0.0
C2202 C 0.37483 0.3789 0.31467 0.0
C2203 C 0.38856 0.40519 0.31999 0.0
H2204 H 0.34496 0.34384 0.32304 0.0
H2205 H 0.37957 0.36969 0.30013 0.0
S2206 S 0.37777 0.44318 0.36782 0.0
N2207 N 0.35606 0.41379 0.37026 0.0
N2208 N 0.39381 0.44173 0.34532 0.0
C2209 C 0.3816 0.41646 0.3387 0.0
C2210 C 0.36121 0.40131 0.35225 0.0
C2211 C 0.32476 0.29121 0.42707 0.0
C2212 C 0.30343 0.28298 0.41157 0.0
C2213 C 0.32974 0.27412 0.4369 0.0
C2214 C 0.31361 0.24803 0.43173 0.0
H2215 H 0.3379 0.31111 0.43172 0.0
H2216 H 0.34626 0.28143 0.44897 0.0
S2217 S 0.25539 0.21642 0.39204 0.0
N2218 N 0.26604 0.24681 0.39139 0.0
N2219 N 0.27554 0.21455 0.40998 0.0
C2220 C 0.29215 0.23939 0.41637 0.0
C2221 C 0.28705 0.25688 0.40624 0.0
C2222 C 0.72999 0.0448 0.42387 0.0
C2223 C 0.7055 0.03747 0.42523 0.0
C2224 C 0.74873 0.06719 0.43666 0.0
C2225 C 0.74384 0.08329 0.45132 0.0
H2226 H 0.73489 0.0334 0.41245 0.0
H2227 H 0.7673 0.07226 0.43449 0.0
S2228 S 0.68296 0.07237 0.4624 0.0
N2229 N 0.67729 0.04767 0.44332 0.0
N2230 N 0.71285 0.09007 0.46752 0.0
C2231 C 0.71949 0.07608 0.4534 0.0
C2232 C 0.70024 0.05304 0.4404 0.0
C2233 C 0.97301 0.71956 0.38145 0.0
C2234 C 0.98028 0.70186 0.38213 0.0
C2235 C 0.95448 0.71784 0.39568 0.0
C2236 C 0.94243 0.69819 0.41082 0.0
H2237 H 0.98163 0.73485 0.36983 0.0
H2238 H 0.94933 0.73175 0.3946 0.0
S2239 S 0.95536 0.64796 0.4206 0.0
N2240 N 0.9744 0.66462 0.40034 0.0
N2241 N 0.9397 0.66153 0.42675 0.0
C2242 C 0.9497 0.68064 0.41199 0.0
C2243 C 0.96859 0.68244 0.39773 0.0
C2244 C 0.38724 0.01557 0.75489 0.0
C2245 C 0.39462 0.0286 0.73355 0.0
C2246 C 0.40406 0.01568 0.77205 0.0
C2247 C 0.42897 0.02884 0.76861 0.0
H2248 H 0.36821 0.00494 0.75832 0.0
H2249 H 0.39749 0.00523 0.78807 0.0
S2250 S 0.45785 0.06549 0.71565 0.0
N2251 N 0.42866 0.055 0.70996 0.0
N2252 N 0.46029 0.0549 0.74208 0.0
C2253 C 0.43672 0.0422 0.74754 0.0
C2254 C 0.41955 0.04216 0.73005 0.0
C2255 C 0.97502 0.34404 0.79229 0.0
C2256 C 0.99312 0.3445 0.77838 0.0
C2257 C 0.9779 0.36628 0.80383 0.0
C2258 C 0.99869 0.38984 0.80121 0.0
H2259 H 0.95809 0.32652 0.79343 0.0
H2260 H 0.96317 0.36513 0.81384 0.0
S2261 S 0.0519 0.40065 0.7676 0.0
N2262 N 0.0332 0.36976 0.76397 0.0
N2263 N 0.03833 0.412 0.78468 0.0
C2264 C 0.01756 0.39035 0.78847 0.0
C2265 C 0.01479 0.36753 0.7772 0.0
C2266 C 0.63889 0.60035 0.71667 0.0
C2267 C 0.65776 0.62385 0.72806 0.0
C2268 C 0.61845 0.58498 0.72931 0.0
C2269 C 0.61629 0.59263 0.75376 0.0
H2270 H 0.63946 0.59421 0.69756 0.0
H2271 H 0.6039 0.56742 0.71962 0.0
S2272 S 0.66252 0.65051 0.79317 0.0
N2273 N 0.67417 0.65273 0.76607 0.0
N2274 N 0.636 0.62373 0.78985 0.0
C2275 C 0.63566 0.61541 0.76578 0.0
C2276 C 0.65634 0.63105 0.75292 0.0
C2277 C 0.68534 0.71152 0.64538 0.0
C2278 C 0.70292 0.71856 0.66541 0.0
C2279 C 0.68036 0.72893 0.63626 0.0
C2280 C 0.69263 0.75413 0.64687 0.0
H2281 H 0.67517 0.6923 0.63663 0.0
H2282 H 0.66683 0.72257 0.62062 0.0
S2283 S 0.74018 0.78229 0.69986 0.0
N2284 N 0.73279 0.7526 0.69558 0.0
N2285 N 0.72313 0.78535 0.67859 0.0
C2286 C 0.71049 0.7616 0.66674 0.0
C2287 C 0.71569 0.74382 0.67598 0.0
C2288 C 0.30433 0.94978 0.63032 0.0
C2289 C 0.30432 0.95728 0.65549 0.0
C2290 C 0.2849 0.92676 0.61864 0.0
C2291 C 0.26526 0.91079 0.63201 0.0
H2292 H 0.31861 0.96233 0.61932 0.0
H2293 H 0.28461 0.92204 0.59887 0.0
S2294 S 0.25901 0.92012 0.69921 0.0
N2295 N 0.28463 0.94572 0.69399 0.0
N2296 N 0.24849 0.90253 0.67217 0.0
C2297 C 0.26609 0.91734 0.65755 0.0
C2298 C 0.28557 0.94063 0.66928 0.0
C2299 C 0.03537 0.31354 0.67973 0.0
C2300 C 0.02283 0.292 0.69252 0.0
C2301 C 0.05331 0.31649 0.66416 0.0
C2302 C 0.05935 0.29795 0.66057 0.0
H2303 H 0.03144 0.32844 0.68179 0.0
H2304 H 0.0624 0.33336 0.65464 0.0
S2305 S 0.03238 0.23816 0.6898 0.0
N2306 N 0.01795 0.25182 0.70062 0.0
N2307 N 0.05179 0.25746 0.67121 0.0
C2308 C 0.047 0.27626 0.67311 0.0
C2309 C 0.02874 0.27328 0.68915 0.0
C2310 C 0.25427 0.28909 0.67182 0.0
C2311 C 0.2786 0.30013 0.66627 0.0
C2312 C 0.23723 0.2904 0.65613 0.0
C2313 C 0.24394 0.3027 0.63431 0.0
H2314 H 0.24855 0.28027 0.68887 0.0
H2315 H 0.21889 0.28253 0.66158 0.0
S2316 S 0.30443 0.33123 0.60951 0.0
N2317 N 0.30791 0.32146 0.63609 0.0
N2318 N 0.27584 0.32371 0.60665 0.0
C2319 C 0.26788 0.31264 0.62792 0.0
C2320 C 0.28521 0.31138 0.64387 0.0
C2321 C 0.69887 0.98162 0.64064 0.0
C2322 C 0.68176 0.98894 0.63764 0.0
C2323 C 0.69507 0.95933 0.62828 0.0
C2324 C 0.67397 0.94337 0.61243 0.0
H2325 H 0.71527 0.99294 0.653 0.0
H2326 H 0.7085 0.95421 0.63173 0.0
S2327 S 0.62413 0.9544 0.59686 0.0
N2328 N 0.6433 0.97892 0.61673 0.0
N2329 N 0.63618 0.93673 0.59333 0.0
C2330 C 0.65688 0.95059 0.60872 0.0
C2331 C 0.66081 0.97349 0.6213 0.0
C2332 C 0.02374 0.69516 0.6693 0.0
C2333 C 0.01501 0.70594 0.68658 0.0
C2334 C 0.04426 0.71017 0.65686 0.0
C2335 C 0.05673 0.73654 0.66103 0.0
H2336 H 0.01474 0.6749 0.66536 0.0
H2337 H 0.0502 0.70104 0.64357 0.0
S2338 S 0.0417 0.77431 0.70445 0.0
N2339 N 0.02069 0.74476 0.70738 0.0
N2340 N 0.0593 0.77302 0.68369 0.0
C2341 C 0.04829 0.74768 0.67817 0.0
C2342 C 0.02744 0.73237 0.69105 0.0
C2343 C 0.9466 0.58645 0.7354 0.0
C2344 C 0.95856 0.61104 0.74774 0.0
C2345 C 0.9499 0.56779 0.74453 0.0
C2346 C 0.96528 0.5733 0.76616 0.0
H2347 H 0.93539 0.58187 0.71814 0.0
H2348 H 0.94098 0.54922 0.73429 0.0
S2349 S 0.99781 0.63335 0.80727 0.0
N2350 N 0.98428 0.63888 0.78423 0.0
N2351 N 0.99047 0.60385 0.80102 0.0
C2352 C 0.97628 0.5973 0.77929 0.0
C2353 C 0.97291 0.61618 0.77017 0.0
C2354 C 0.38154 0.38828 0.73661 0.0
C2355 C 0.36563 0.36798 0.74946 0.0
C2356 C 0.39974 0.41103 0.74952 0.0
C2357 C 0.40295 0.41392 0.77566 0.0
H2358 H 0.38028 0.38631 0.71642 0.0
H2359 H 0.4122 0.42598 0.73894 0.0
S2360 S 0.36544 0.36648 0.81784 0.0
N2361 N 0.35335 0.35229 0.78954 0.0
N2362 N 0.3882 0.395 0.81402 0.0
C2363 C 0.38668 0.39397 0.78875 0.0
C2364 C 0.3678 0.37095 0.77557 0.0
C2365 C 0.65172 0.04278 0.74039 0.0
C2366 C 0.65184 0.04978 0.71616 0.0
C2367 C 0.63417 0.04061 0.75621 0.0
C2368 C 0.61582 0.04483 0.74813 0.0
H2369 H 0.66519 0.03869 0.74712 0.0
H2370 H 0.63448 0.03482 0.7746 0.0
S2371 S 0.60832 0.06421 0.68682 0.0
N2372 N 0.63258 0.06184 0.68522 0.0
N2373 N 0.59902 0.05697 0.71482 0.0
C2374 C 0.6159 0.05226 0.72418 0.0
C2375 C 0.63412 0.055 0.70822 0.0
loop_
_geom_bond_atom_site_label_1
_geom_bond_atom_site_label_2
_geom_bond_distance
_geom_bond_site_symmetry_2
_ccdc_geom_bond_type
Co0 O1 2.216 . S
Co0 O2 2.091 . S
Co0 O4 2.004 1_554 S
Co0 O10 2.021 . S
Co0 O12 2.137 1_455 S
Co0 O13 2.244 1_455 S
O1 Co0 2.216 . S
O1 C8 1.247 . S
O2 Co0 2.091 . S
O2 C8 1.261 . S
C3 O12 1.247 . S
C3 O13 1.272 . S
O4 Co0 2.004 1_556 S
O4 C9 1.259 . S
Co5 O6 2.061 1_554 S
Co5 O11 2.052 . S
Co5 O13 2.135 . S
O6 Co5 2.061 1_556 S
O6 C9 1.235 1_655 S
C7 O10 1.238 1_655 S
C7 O11 1.241 . S
C8 O1 1.247 . S
C8 O2 1.261 . S
C9 O4 1.259 . S
C9 O6 1.235 1_455 S
O10 Co0 2.021 . S
O10 C7 1.238 1_455 S
O11 Co5 2.052 . S
O11 C7 1.241 . S
O12 Co0 2.137 1_655 S
O12 C3 1.247 . S
O13 Co0 2.244 1_655 S
O13 C3 1.272 . S
O13 Co5 2.135 . S
Co14 O15 2.216 . S
Co14 O16 2.091 . S
Co14 O18 2.004 . S
Co14 O24 2.021 . S
Co14 O26 2.137 . S
Co14 O27 2.244 . S
O15 Co14 2.216 . S
O15 C22 1.247 . S
O16 Co14 2.091 . S
O16 C22 1.261 . S
C17 O26 1.247 . S
C17 O27 1.272 . S
O18 Co14 2.004 . S
O18 C23 1.259 . S
Co19 O20 2.061 . S
Co19 O25 2.052 . S
Co19 O27 2.135 . S
O20 Co19 2.061 . S
O20 C23 1.235 . S
C21 O24 1.238 . S
C21 O25 1.241 . S
C22 O15 1.247 . S
C22 O16 1.261 . S
C23 O18 1.259 . S
C23 O20 1.235 . S
O24 Co14 2.021 . S
O24 C21 1.238 . S
O25 Co19 2.052 . S
O25 C21 1.241 . S
O26 Co14 2.137 . S
O26 C17 1.247 . S
O27 Co14 2.244 . S
O27 C17 1.272 . S
O27 Co19 2.135 . S
Co28 O29 2.230 . S
Co28 O30 2.091 . S
Co28 O32 2.004 . S
Co28 O38 2.021 . S
Co28 O40 2.137 1_545 S
Co28 O41 2.244 1_545 S
O29 Co28 2.230 . S
O29 C36 1.250 . S
O30 Co28 2.091 . S
O30 C36 1.261 . S
C31 O40 1.247 . S
C31 O41 1.272 . S
O32 Co28 2.004 . S
O32 C37 1.259 . S
Co33 O34 2.061 . S
Co33 O39 2.052 . S
Co33 O41 2.135 . S
O34 Co33 2.061 . S
O34 C37 1.235 1_565 S
C35 O38 1.238 1_566 S
C35 O39 1.241 1_556 S
C36 O29 1.250 . S
C36 O30 1.261 . S
C37 O32 1.259 . S
C37 O34 1.235 1_545 S
O38 Co28 2.021 . S
O38 C35 1.238 1_544 S
O39 Co33 2.052 . S
O39 C35 1.241 1_554 S
O40 Co28 2.137 1_565 S
O40 C31 1.247 . S
O41 Co28 2.244 1_565 S
O41 C31 1.272 . S
O41 Co33 2.135 . S
Co42 O43 2.216 . S
Co42 O44 2.091 . S
Co42 O46 2.004 . S
Co42 O52 2.021 . S
Co42 O54 2.137 1_655 S
Co42 O55 2.244 1_655 S
O43 Co42 2.216 . S
O43 C50 1.247 . S
O44 Co42 2.091 . S
O44 C50 1.261 . S
C45 O54 1.247 . S
C45 O55 1.272 . S
O46 Co42 2.004 . S
O46 C51 1.259 . S
Co47 O48 2.061 . S
Co47 O53 2.052 . S
Co47 O55 2.135 . S
O48 Co47 2.061 . S
O48 C51 1.235 1_455 S
C49 O52 1.238 1_455 S
C49 O53 1.241 . S
C50 O43 1.247 . S
C50 O44 1.261 . S
C51 O46 1.259 . S
C51 O48 1.235 1_655 S
O52 Co42 2.021 . S
O52 C49 1.238 1_655 S
O53 Co47 2.052 . S
O53 C49 1.241 . S
O54 Co42 2.137 1_455 S
O54 C45 1.247 . S
O55 Co42 2.244 1_455 S
O55 C45 1.272 . S
O55 Co47 2.135 . S
Co56 O57 2.216 . S
Co56 O58 2.091 . S
Co56 O60 2.004 1_554 S
Co56 O66 2.021 . S
Co56 O68 2.137 1_554 S
Co56 O69 2.244 1_554 S
O57 Co56 2.216 . S
O57 C64 1.247 . S
O58 Co56 2.091 . S
O58 C64 1.261 . S
C59 O68 1.247 . S
C59 O69 1.272 . S
O60 Co56 2.004 1_556 S
O60 C65 1.259 . S
Co61 O62 2.061 . S
Co61 O67 2.052 1_556 S
Co61 O69 2.135 . S
O62 Co61 2.061 . S
O62 C65 1.235 . S
C63 O66 1.238 . S
C63 O67 1.241 . S
C64 O57 1.247 . S
C64 O58 1.261 . S
C65 O60 1.259 . S
C65 O62 1.235 . S
O66 Co56 2.021 . S
O66 C63 1.238 . S
O67 Co61 2.052 1_554 S
O67 C63 1.241 . S
O68 Co56 2.137 1_556 S
O68 C59 1.247 . S
O69 Co56 2.244 1_556 S
O69 C59 1.272 . S
O69 Co61 2.135 . S
Co70 O71 2.216 . S
Co70 O72 2.091 . S
Co70 O74 2.004 . S
Co70 O80 2.021 . S
Co70 O82 2.137 1_565 S
Co70 O83 2.244 1_565 S
O71 Co70 2.216 . S
O71 C78 1.247 . S
O72 Co70 2.091 . S
O72 C78 1.261 . S
C73 O82 1.247 . S
C73 O83 1.272 . S
O74 Co70 2.004 . S
O74 C79 1.259 . S
Co75 O76 2.061 . S
Co75 O81 2.052 . S
Co75 O83 2.135 . S
O76 Co75 2.061 . S
O76 C79 1.235 1_545 S
C77 O80 1.238 1_545 S
C77 O81 1.241 . S
C78 O71 1.247 . S
C78 O72 1.261 . S
C79 O74 1.259 . S
C79 O76 1.235 1_565 S
O80 Co70 2.021 . S
O80 C77 1.238 1_565 S
O81 Co75 2.052 . S
O81 C77 1.241 . S
O82 Co70 2.137 1_545 S
O82 C73 1.247 . S
O83 Co70 2.244 1_545 S
O83 C73 1.272 . S
O83 Co75 2.135 . S
Co84 O85 2.216 . S
Co84 O86 2.091 . S
Co84 O88 2.004 . S
Co84 O94 2.021 . S
Co84 O96 2.137 . S
Co84 O97 2.244 . S
O85 Co84 2.216 . S
O85 C92 1.247 . S
O86 Co84 2.091 . S
O86 C92 1.261 . S
C87 O96 1.247 . S
C87 O97 1.272 . S
O88 Co84 2.004 . S
O88 C93 1.259 . S
Co89 O90 2.061 . S
Co89 O95 2.052 . S
Co89 O97 2.135 . S
O90 Co89 2.061 . S
O90 C93 1.235 . S
C91 O94 1.238 . S
C91 O95 1.241 . S
C92 O85 1.247 . S
C92 O86 1.261 . S
C93 O88 1.259 . S
C93 O90 1.235 . S
O94 Co84 2.021 . S
O94 C91 1.238 . S
O95 Co89 2.052 . S
O95 C91 1.241 . S
O96 Co84 2.137 . S
O96 C87 1.247 . S
O97 Co84 2.244 . S
O97 C87 1.272 . S
O97 Co89 2.135 . S
Co98 O99 2.216 . S
Co98 O100 2.091 . S
Co98 O102 2.004 . S
Co98 O108 2.021 . S
Co98 O110 2.137 . S
Co98 O111 2.244 . S
O99 Co98 2.216 . S
O99 C106 1.247 . S
O100 Co98 2.091 . S
O100 C106 1.261 . S
C101 O110 1.247 . S
C101 O111 1.272 . S
O102 Co98 2.004 . S
O102 C107 1.259 . S
Co103 O104 2.061 . S
Co103 O109 2.052 . S
Co103 O111 2.135 . S
O104 Co103 2.061 . S
O104 C107 1.235 . S
C105 O108 1.238 . S
C105 O109 1.241 . S
C106 O99 1.247 . S
C106 O100 1.261 . S
C107 O102 1.259 . S
C107 O104 1.235 . S
O108 Co98 2.021 . S
O108 C105 1.238 . S
O109 Co103 2.052 . S
O109 C105 1.241 . S
O110 Co98 2.137 . S
O110 C101 1.247 . S
O111 Co98 2.244 . S
O111 C101 1.272 . S
O111 Co103 2.135 . S
Co112 O113 2.216 . S
Co112 O114 2.091 . S
Co112 O116 2.004 . S
Co112 O122 2.021 . S
Co112 O124 2.137 . S
Co112 O125 2.244 . S
O113 Co112 2.216 . S
O113 C120 1.247 . S
O114 Co112 2.091 . S
O114 C120 1.261 . S
C115 O124 1.247 . S
C115 O125 1.272 . S
O116 Co112 2.004 . S
O116 C121 1.259 . S
Co117 O118 2.061 . S
Co117 O123 2.052 . S
Co117 O125 2.135 . S
O118 Co117 2.061 . S
O118 C121 1.235 . S
C119 O122 1.238 . S
C119 O123 1.241 . S
C120 O113 1.247 . S
C120 O114 1.261 . S
C121 O116 1.259 . S
C121 O118 1.235 . S
O122 Co112 2.021 . S
O122 C119 1.238 . S
O123 Co117 2.052 . S
O123 C119 1.241 . S
O124 Co112 2.137 . S
O124 C115 1.247 . S
O125 Co112 2.244 . S
O125 C115 1.272 . S
O125 Co117 2.135 . S
Co126 O127 2.216 . S
Co126 O128 2.091 . S
Co126 O130 2.004 . S
Co126 O136 2.021 . S
Co126 O138 2.137 . S
Co126 O139 2.244 . S
O127 Co126 2.216 . S
O127 C134 1.247 . S
O128 Co126 2.091 . S
O128 C134 1.261 . S
C129 O138 1.247 1_545 S
C129 O139 1.272 1_545 S
O130 Co126 2.004 . S
O130 C135 1.259 . S
Co131 O132 2.061 . S
Co131 O137 2.052 . S
Co131 O139 2.135 . S
O132 Co131 2.061 . S
O132 C135 1.235 . S
C133 O136 1.238 . S
C133 O137 1.241 . S
C134 O127 1.247 . S
C134 O128 1.261 . S
C135 O130 1.259 . S
C135 O132 1.235 . S
O136 Co126 2.021 . S
O136 C133 1.238 . S
O137 Co131 2.052 . S
O137 C133 1.241 . S
O138 Co126 2.137 . S
O138 C129 1.247 1_565 S
O139 Co126 2.244 . S
O139 C129 1.272 1_565 S
O139 Co131 2.135 . S
Co140 O141 2.216 . S
Co140 O142 2.109 . S
Co140 O144 2.004 . S
Co140 O150 2.021 . S
Co140 O152 2.137 . S
Co140 O153 2.244 . S
O141 Co140 2.216 . S
O141 C148 1.247 1_455 S
O142 Co140 2.109 . S
O142 C148 1.263 1_455 S
C143 O152 1.247 . S
C143 O153 1.272 . S
O144 Co140 2.004 . S
O144 C149 1.259 . S
Co145 O146 2.061 . S
Co145 O151 2.052 . S
Co145 O153 2.135 . S
O146 Co145 2.061 . S
O146 C149 1.235 . S
C147 O150 1.238 . S
C147 O151 1.241 . S
C148 O141 1.247 1_655 S
C148 O142 1.263 1_655 S
C149 O144 1.259 . S
C149 O146 1.235 . S
O150 Co140 2.021 . S
O150 C147 1.238 . S
O151 Co145 2.052 . S
O151 C147 1.241 . S
O152 Co140 2.137 . S
O152 C143 1.247 . S
O153 Co140 2.244 . S
O153 C143 1.272 . S
O153 Co145 2.135 . S
Co154 O155 2.216 . S
Co154 O156 2.091 . S
Co154 O158 2.004 . S
Co154 O164 2.021 . S
Co154 O166 2.137 . S
Co154 O167 2.244 . S
O155 Co154 2.216 . S
O155 C162 1.247 . S
O156 Co154 2.091 . S
O156 C162 1.261 . S
C157 O166 1.247 . S
C157 O167 1.272 . S
O158 Co154 2.004 . S
O158 C163 1.259 . S
Co159 O160 2.061 . S
Co159 O165 2.052 . S
Co159 O167 2.135 . S
O160 Co159 2.061 . S
O160 C163 1.235 . S
C161 O164 1.238 . S
C161 O165 1.241 . S
C162 O155 1.247 . S
C162 O156 1.261 . S
C163 O158 1.259 . S
C163 O160 1.235 . S
O164 Co154 2.021 . S
O164 C161 1.238 . S
O165 Co159 2.052 . S
O165 C161 1.241 . S
O166 Co154 2.137 . S
O166 C157 1.247 . S
O167 Co154 2.244 . S
O167 C157 1.272 . S
O167 Co159 2.135 . S
Co168 O169 2.216 . S
Co168 O170 2.091 . S
Co168 O172 2.004 . S
Co168 O178 2.021 . S
Co168 O180 2.137 . S
Co168 O181 2.244 . S
O169 Co168 2.216 . S
O169 C176 1.247 . S
O170 Co168 2.091 . S
O170 C176 1.261 . S
C171 O180 1.247 1_565 S
C171 O181 1.272 1_565 S
O172 Co168 2.004 . S
O172 C177 1.259 . S
Co173 O174 2.061 . S
Co173 O179 2.052 . S
Co173 O181 2.135 . S
O174 Co173 2.061 . S
O174 C177 1.235 . S
C175 O178 1.238 . S
C175 O179 1.241 . S
C176 O169 1.247 . S
C176 O170 1.261 . S
C177 O172 1.259 . S
C177 O174 1.235 . S
O178 Co168 2.021 . S
O178 C175 1.238 . S
O179 Co173 2.052 . S
O179 C175 1.241 . S
O180 Co168 2.137 . S
O180 C171 1.247 1_545 S
O181 Co168 2.244 . S
O181 C171 1.272 1_545 S
O181 Co173 2.135 . S
Co182 O183 2.216 . S
Co182 O184 2.091 1_655 S
Co182 O186 2.004 . S
Co182 O192 2.021 . S
Co182 O194 2.137 . S
Co182 O195 2.244 . S
O183 Co182 2.216 . S
O183 C190 1.247 1_655 S
O184 Co182 2.091 1_455 S
O184 C190 1.261 . S
C185 O194 1.247 . S
C185 O195 1.272 . S
O186 Co182 2.004 . S
O186 C191 1.259 . S
Co187 O188 2.061 . S
Co187 O193 2.052 . S
Co187 O195 2.135 . S
O188 Co187 2.061 . S
O188 C191 1.235 . S
C189 O192 1.238 . S
C189 O193 1.241 . S
C190 O183 1.247 1_455 S
C190 O184 1.261 . S
C191 O186 1.259 . S
C191 O188 1.235 . S
O192 Co182 2.021 . S
O192 C189 1.238 . S
O193 Co187 2.052 . S
O193 C189 1.241 . S
O194 Co182 2.137 . S
O194 C185 1.247 . S
O195 Co182 2.244 . S
O195 C185 1.272 . S
O195 Co187 2.135 . S
Co196 O197 2.216 . S
Co196 O198 2.091 . S
Co196 O200 2.004 . S
Co196 O206 2.021 . S
Co196 O208 2.137 . S
Co196 O209 2.244 . S
O197 Co196 2.216 . S
O197 C204 1.247 . S
O198 Co196 2.091 . S
O198 C204 1.261 . S
C199 O208 1.247 . S
C199 O209 1.272 . S
O200 Co196 2.004 . S
O200 C205 1.259 . S
Co201 O202 2.061 . S
Co201 O207 2.052 . S
Co201 O209 2.135 . S
O202 Co201 2.061 . S
O202 C205 1.235 . S
C203 O206 1.238 . S
C203 O207 1.241 . S
C204 O197 1.247 . S
C204 O198 1.261 . S
C205 O200 1.259 . S
C205 O202 1.235 . S
O206 Co196 2.021 . S
O206 C203 1.238 . S
O207 Co201 2.052 . S
O207 C203 1.241 . S
O208 Co196 2.137 . S
O208 C199 1.247 . S
O209 Co196 2.244 . S
O209 C199 1.272 . S
O209 Co201 2.135 . S
Co210 O211 2.216 . S
Co210 O212 2.091 . S
Co210 O214 2.004 . S
Co210 O220 2.021 . S
Co210 O222 2.137 . S
Co210 O223 2.244 . S
O211 Co210 2.216 . S
O211 C218 1.247 . S
O212 Co210 2.091 . S
O212 C218 1.261 . S
C213 O222 1.247 . S
C213 O223 1.272 . S
O214 Co210 2.004 . S
O214 C219 1.259 . S
Co215 O216 2.061 . S
Co215 O221 2.052 . S
Co215 O223 2.135 . S
O216 Co215 2.061 . S
O216 C219 1.235 . S
C217 O220 1.238 . S
C217 O221 1.241 . S
C218 O211 1.247 . S
C218 O212 1.261 . S
C219 O214 1.259 . S
C219 O216 1.235 . S
O220 Co210 2.021 . S
O220 C217 1.238 . S
O221 Co215 2.052 . S
O221 C217 1.241 . S
O222 Co210 2.137 . S
O222 C213 1.247 . S
O223 Co210 2.244 . S
O223 C213 1.272 . S
O223 Co215 2.135 . S
Co224 O225 2.216 . S
Co224 O226 2.091 . S
Co224 O228 2.004 . S
Co224 O234 2.021 . S
Co224 O236 2.137 . S
Co224 O237 2.244 . S
O225 Co224 2.216 . S
O225 C232 1.247 . S
O226 Co224 2.091 . S
O226 C232 1.261 . S
C227 O236 1.247 . S
C227 O237 1.272 . S
O228 Co224 2.004 . S
O228 C233 1.259 . S
Co229 O230 2.061 . S
Co229 O235 2.052 . S
Co229 O237 2.135 . S
O230 Co229 2.061 . S
O230 C233 1.235 . S
C231 O234 1.238 . S
C231 O235 1.241 . S
C232 O225 1.247 . S
C232 O226 1.261 . S
C233 O228 1.259 . S
C233 O230 1.235 . S
O234 Co224 2.021 . S
O234 C231 1.238 . S
O235 Co229 2.052 . S
O235 C231 1.241 . S
O236 Co224 2.137 . S
O236 C227 1.247 . S
O237 Co224 2.244 . S
O237 C227 1.272 . S
O237 Co229 2.135 . S
Co238 O239 2.216 . S
Co238 O240 2.091 . S
Co238 O242 2.004 . S
Co238 O248 2.021 . S
Co238 O250 2.137 . S
Co238 O251 2.244 . S
O239 Co238 2.216 . S
O239 C246 1.247 . S
O240 Co238 2.091 . S
O240 C246 1.261 . S
C241 O250 1.247 . S
C241 O251 1.272 . S
O242 Co238 2.004 . S
O242 C247 1.259 . S
Co243 O244 2.061 . S
Co243 O249 2.052 . S
Co243 O251 2.135 . S
O244 Co243 2.061 . S
O244 C247 1.235 . S
C245 O248 1.238 . S
C245 O249 1.241 . S
C246 O239 1.247 . S
C246 O240 1.261 . S
C247 O242 1.259 . S
C247 O244 1.235 . S
O248 Co238 2.021 . S
O248 C245 1.238 . S
O249 Co243 2.052 . S
O249 C245 1.241 . S
O250 Co238 2.137 . S
O250 C241 1.247 . S
O251 Co238 2.244 . S
O251 C241 1.272 . S
O251 Co243 2.135 . S
H252 O278 0.856 1_556 S
H253 O281 0.854 . S
H254 C289 0.930 . S
H255 C290 0.930 . S
H256 C292 0.930 . S
H257 C293 0.930 . S
H258 C295 0.931 . S
H259 C296 0.930 . S
H260 C298 0.930 . S
H261 C299 0.929 . S
H262 C301 0.930 . S
H263 C302 0.931 . S
H264 C304 0.930 . S
H265 C305 0.929 . S
H266 C307 0.931 . S
H267 C308 0.930 . S
H268 C310 0.930 . S
H269 C311 0.932 . S
H270 C313 0.930 . S
H271 C314 0.929 . S
H272 C316 0.931 . S
H273 C317 0.930 . S
H274 C319 0.929 . S
H275 C320 0.931 . S
H276 C322 0.930 . S
H277 C323 0.929 . S
O278 H252 0.856 1_554 S
O278 C324 1.300 . S
O279 C324 1.209 . S
O280 C325 1.199 . S
O281 H253 0.854 . S
O281 C325 1.297 . S
C282 C283 1.404 . S
C282 C287 1.397 . S
C282 C288 1.492 . S
C283 C282 1.404 . S
C283 C284 1.396 . S
C283 C294 1.492 . S
C284 C283 1.396 . S
C284 C285 1.397 . S
C284 C300 1.509 . S
C285 C284 1.397 . S
C285 C286 1.412 . S
C285 C306 1.485 . S
C286 C285 1.412 . S
C286 C287 1.388 . S
C286 C312 1.490 . S
C287 C282 1.397 . S
C287 C286 1.388 . S
C287 C318 1.519 . S
C288 C282 1.492 . S
C288 C289 1.363 . S
C288 C293 1.390 . S
C289 H254 0.930 . S
C289 C288 1.363 . S
C289 C290 1.372 . S
C290 H255 0.930 . S
C290 C289 1.372 . S
C290 C291 1.383 . S
C291 C290 1.383 . S
C291 C292 1.395 . S
C292 H256 0.930 . S
C292 C291 1.395 . S
C292 C293 1.362 . S
C293 H257 0.930 . S
C293 C288 1.390 . S
C293 C292 1.362 . S
C294 C283 1.492 . S
C294 C295 1.377 . S
C294 C299 1.397 . S
C295 H258 0.931 . S
C295 C294 1.377 . S
C295 C296 1.376 . S
C296 H259 0.930 . S
C296 C295 1.376 . S
C296 C297 1.376 . S
C297 C296 1.376 . S
C297 C298 1.378 . S
C297 C324 1.486 . S
C298 H260 0.930 . S
C298 C297 1.378 . S
C298 C299 1.376 . S
C299 H261 0.929 . S
C299 C294 1.397 . S
C299 C298 1.376 . S
C300 C284 1.509 . S
C300 C301 1.391 . S
C300 C305 1.386 . S
C301 H262 0.930 . S
C301 C300 1.391 . S
C301 C302 1.375 . S
C302 H263 0.931 . S
C302 C301 1.375 . S
C302 C303 1.375 . S
C303 C302 1.375 . S
C303 C304 1.361 . S
C304 H264 0.930 . S
C304 C303 1.361 . S
C304 C305 1.399 . S
C305 H265 0.929 . S
C305 C300 1.386 . S
C305 C304 1.399 . S
C306 C285 1.485 . S
C306 C307 1.394 . S
C306 C311 1.360 . S
C307 H266 0.931 . S
C307 C306 1.394 . S
C307 C308 1.372 . S
C308 H267 0.930 . S
C308 C307 1.372 . S
C308 C309 1.397 . S
C309 C308 1.397 . S
C309 C310 1.390 . S
C309 C325 1.476 . S
C310 H268 0.930 . S
C310 C309 1.390 . S
C310 C311 1.366 . S
C311 H269 0.932 . S
C311 C306 1.360 . S
C311 C310 1.366 . S
C312 C286 1.490 . S
C312 C313 1.380 . S
C312 C317 1.386 . S
C313 H270 0.930 . S
C313 C312 1.380 . S
C313 C314 1.381 . S
C314 H271 0.929 . S
C314 C313 1.381 . S
C314 C315 1.371 . S
C315 C314 1.371 . S
C315 C316 1.380 . S
C316 H272 0.931 . S
C316 C315 1.380 . S
C316 C317 1.387 . S
C317 H273 0.930 . S
C317 C312 1.386 . S
C317 C316 1.387 . S
C318 C287 1.519 . S
C318 C319 1.377 . S
C318 C323 1.361 . S
C319 H274 0.929 . S
C319 C318 1.377 . S
C319 C320 1.386 . S
C320 H275 0.931 . S
C320 C319 1.386 . S
C320 C321 1.363 . S
C321 C320 1.363 . S
C321 C322 1.385 . S
C322 H276 0.930 . S
C322 C321 1.385 . S
C322 C323 1.396 . S
C323 H277 0.929 . S
C323 C318 1.361 . S
C323 C322 1.396 . S
C324 O278 1.300 . S
C324 O279 1.209 . S
C324 C297 1.486 . S
C325 O280 1.199 . S
C325 O281 1.297 . S
C325 C309 1.476 . S
H326 O352 0.856 . S
H327 O355 0.854 . S
H328 C363 0.930 . S
H329 C364 0.930 . S
H330 C366 0.930 . S
H331 C367 0.930 . S
H332 C369 0.931 . S
H333 C370 0.930 . S
H334 C372 0.930 . S
H335 C373 0.929 . S
H336 C375 0.930 . S
H337 C376 0.931 . S
H338 C378 0.930 . S
H339 C379 0.929 . S
H340 C381 0.931 . S
H341 C382 0.930 . S
H342 C384 0.930 . S
H343 C385 0.932 . S
H344 C387 0.930 . S
H345 C388 0.929 . S
H346 C390 0.931 . S
H347 C391 0.930 . S
H348 C393 0.929 . S
H349 C394 0.931 . S
H350 C396 0.930 . S
H351 C397 0.929 . S
O352 H326 0.856 . S
O352 C398 1.300 . S
O353 C398 1.209 . S
O354 C399 1.199 . S
O355 H327 0.854 . S
O355 C399 1.297 1_545 S
C356 C357 1.404 . S
C356 C361 1.397 . S
C356 C362 1.492 . S
C357 C356 1.404 . S
C357 C358 1.396 . S
C357 C368 1.492 . S
C358 C357 1.396 . S
C358 C359 1.397 . S
C358 C374 1.509 . S
C359 C358 1.397 . S
C359 C360 1.412 . S
C359 C380 1.485 . S
C360 C359 1.412 . S
C360 C361 1.388 . S
C360 C386 1.490 . S
C361 C356 1.397 . S
C361 C360 1.388 . S
C361 C392 1.519 . S
C362 C356 1.492 . S
C362 C363 1.363 . S
C362 C367 1.390 . S
C363 H328 0.930 . S
C363 C362 1.363 . S
C363 C364 1.372 . S
C364 H329 0.930 . S
C364 C363 1.372 . S
C364 C365 1.383 . S
C365 C364 1.383 . S
C365 C366 1.395 . S
C366 H330 0.930 . S
C366 C365 1.395 . S
C366 C367 1.362 . S
C367 H331 0.930 . S
C367 C362 1.390 . S
C367 C366 1.362 . S
C368 C357 1.492 . S
C368 C369 1.377 . S
C368 C373 1.397 . S
C369 H332 0.931 . S
C369 C368 1.377 . S
C369 C370 1.376 . S
C370 H333 0.930 . S
C370 C369 1.376 . S
C370 C371 1.376 . S
C371 C370 1.376 . S
C371 C372 1.378 . S
C371 C398 1.486 . S
C372 H334 0.930 . S
C372 C371 1.378 . S
C372 C373 1.376 . S
C373 H335 0.929 . S
C373 C368 1.397 . S
C373 C372 1.376 . S
C374 C358 1.509 . S
C374 C375 1.391 . S
C374 C379 1.386 . S
C375 H336 0.930 . S
C375 C374 1.391 . S
C375 C376 1.375 . S
C376 H337 0.931 . S
C376 C375 1.375 . S
C376 C377 1.375 . S
C377 C376 1.375 . S
C377 C378 1.361 . S
C378 H338 0.930 . S
C378 C377 1.361 . S
C378 C379 1.399 . S
C379 H339 0.929 . S
C379 C374 1.386 . S
C379 C378 1.399 . S
C380 C359 1.485 . S
C380 C381 1.394 . S
C380 C385 1.360 . S
C381 H340 0.931 . S
C381 C380 1.394 . S
C381 C382 1.372 . S
C382 H341 0.930 . S
C382 C381 1.372 . S
C382 C383 1.397 . S
C383 C382 1.397 . S
C383 C384 1.390 . S
C383 C399 1.476 . S
C384 H342 0.930 . S
C384 C383 1.390 . S
C384 C385 1.366 . S
C385 H343 0.932 . S
C385 C380 1.360 . S
C385 C384 1.366 . S
C386 C360 1.490 . S
C386 C387 1.380 . S
C386 C391 1.386 . S
C387 H344 0.930 . S
C387 C386 1.380 . S
C387 C388 1.381 . S
C388 H345 0.929 . S
C388 C387 1.381 . S
C388 C389 1.371 . S
C389 C388 1.371 . S
C389 C390 1.380 . S
C390 H346 0.931 . S
C390 C389 1.380 . S
C390 C391 1.387 . S
C391 H347 0.930 . S
C391 C386 1.386 . S
C391 C390 1.387 . S
C392 C361 1.519 . S
C392 C393 1.377 . S
C392 C397 1.361 . S
C393 H348 0.929 . S
C393 C392 1.377 . S
C393 C394 1.386 . S
C394 H349 0.931 . S
C394 C393 1.386 . S
C394 C395 1.363 . S
C395 C394 1.363 . S
C395 C396 1.385 . S
C396 H350 0.930 . S
C396 C395 1.385 . S
C396 C397 1.396 . S
C397 H351 0.929 . S
C397 C392 1.361 . S
C397 C396 1.396 . S
C398 O352 1.300 . S
C398 O353 1.209 . S
C398 C371 1.486 . S
C399 O354 1.199 . S
C399 O355 1.297 1_565 S
C399 C383 1.476 . S
H400 O426 0.856 . S
H401 O429 0.844 1_545 S
H402 C437 0.930 . S
H403 C438 0.930 . S
H404 C440 0.930 . S
H405 C441 0.930 . S
H406 C443 0.931 . S
H407 C444 0.930 . S
H408 C446 0.930 . S
H409 C447 0.929 . S
H410 C449 0.930 . S
H411 C450 0.931 . S
H412 C452 0.930 . S
H413 C453 0.929 . S
H414 C455 0.931 . S
H415 C456 0.930 . S
H416 C458 0.930 . S
H417 C459 0.932 . S
H418 C461 0.930 . S
H419 C462 0.929 . S
H420 C464 0.931 . S
H421 C465 0.930 . S
H422 C467 0.929 . S
H423 C468 0.931 . S
H424 C470 0.930 . S
H425 C471 0.929 . S
O426 H400 0.856 . S
O426 C472 1.300 . S
O427 C472 1.209 . S
O428 C473 1.199 1_545 S
O429 H401 0.844 1_565 S
O429 C473 1.297 . S
C430 C431 1.404 . S
C430 C435 1.397 . S
C430 C436 1.492 . S
C431 C430 1.404 . S
C431 C432 1.396 . S
C431 C442 1.492 . S
C432 C431 1.396 . S
C432 C433 1.397 . S
C432 C448 1.509 . S
C433 C432 1.397 . S
C433 C434 1.412 . S
C433 C454 1.485 . S
C434 C433 1.412 . S
C434 C435 1.388 . S
C434 C460 1.490 . S
C435 C430 1.397 . S
C435 C434 1.388 . S
C435 C466 1.519 . S
C436 C430 1.492 . S
C436 C437 1.363 . S
C436 C441 1.390 . S
C437 H402 0.930 . S
C437 C436 1.363 . S
C437 C438 1.372 . S
C438 H403 0.930 . S
C438 C437 1.372 . S
C438 C439 1.383 . S
C439 C438 1.383 . S
C439 C440 1.395 . S
C440 H404 0.930 . S
C440 C439 1.395 . S
C440 C441 1.362 . S
C441 H405 0.930 . S
C441 C436 1.390 . S
C441 C440 1.362 . S
C442 C431 1.492 . S
C442 C443 1.377 . S
C442 C447 1.397 . S
C443 H406 0.931 . S
C443 C442 1.377 . S
C443 C444 1.376 . S
C444 H407 0.930 . S
C444 C443 1.376 . S
C444 C445 1.376 . S
C445 C444 1.376 . S
C445 C446 1.378 . S
C445 C472 1.486 . S
C446 H408 0.930 . S
C446 C445 1.378 . S
C446 C447 1.376 . S
C447 H409 0.929 . S
C447 C442 1.397 . S
C447 C446 1.376 . S
C448 C432 1.509 . S
C448 C449 1.391 . S
C448 C453 1.386 . S
C449 H410 0.930 . S
C449 C448 1.391 . S
C449 C450 1.375 . S
C450 H411 0.931 . S
C450 C449 1.375 . S
C450 C451 1.375 . S
C451 C450 1.375 . S
C451 C452 1.361 . S
C452 H412 0.930 . S
C452 C451 1.361 . S
C452 C453 1.399 . S
C453 H413 0.929 . S
C453 C448 1.386 . S
C453 C452 1.399 . S
C454 C433 1.485 . S
C454 C455 1.394 . S
C454 C459 1.360 . S
C455 H414 0.931 . S
C455 C454 1.394 . S
C455 C456 1.372 . S
C456 H415 0.930 . S
C456 C455 1.372 . S
C456 C457 1.397 . S
C457 C456 1.397 . S
C457 C458 1.390 . S
C457 C473 1.476 . S
C458 H416 0.930 . S
C458 C457 1.390 . S
C458 C459 1.366 . S
C459 H417 0.932 . S
C459 C454 1.360 . S
C459 C458 1.366 . S
C460 C434 1.490 . S
C460 C461 1.380 . S
C460 C465 1.386 . S
C461 H418 0.930 . S
C461 C460 1.380 . S
C461 C462 1.381 . S
C462 H419 0.929 . S
C462 C461 1.381 . S
C462 C463 1.371 . S
C463 C462 1.371 . S
C463 C464 1.380 . S
C464 H420 0.931 . S
C464 C463 1.380 . S
C464 C465 1.387 . S
C465 H421 0.930 . S
C465 C460 1.386 . S
C465 C464 1.387 . S
C466 C435 1.519 . S
C466 C467 1.377 . S
C466 C471 1.361 . S
C467 H422 0.929 . S
C467 C466 1.377 . S
C467 C468 1.386 . S
C468 H423 0.931 . S
C468 C467 1.386 . S
C468 C469 1.363 . S
C469 C468 1.363 . S
C469 C470 1.385 . S
C470 H424 0.930 . S
C470 C469 1.385 . S
C470 C471 1.396 . S
C471 H425 0.929 . S
C471 C466 1.361 . S
C471 C470 1.396 . S
C472 O426 1.300 . S
C472 O427 1.209 . S
C472 C445 1.486 . S
C473 O428 1.199 1_565 S
C473 O429 1.297 . S
C473 C457 1.476 . S
H474 O500 0.856 . S
H475 O503 0.854 . S
H476 C511 0.930 . S
H477 C512 0.930 . S
H478 C514 0.930 . S
H479 C515 0.930 . S
H480 C517 0.931 . S
H481 C518 0.930 1_554 S
H482 C520 0.930 . S
H483 C521 0.929 . S
H484 C523 0.930 . S
H485 C524 0.931 . S
H486 C526 0.930 . S
H487 C527 0.929 . S
H488 C529 0.931 . S
H489 C530 0.930 . S
H490 C532 0.930 . S
H491 C533 0.932 . S
H492 C535 0.930 . S
H493 C536 0.929 . S
H494 C538 0.931 . S
H495 C539 0.930 . S
H496 C541 0.929 . S
H497 C542 0.931 . S
H498 C544 0.930 . S
H499 C545 0.929 . S
O500 H474 0.856 . S
O500 C546 1.300 . S
O501 C546 1.209 . S
O502 C547 1.199 . S
O503 H475 0.854 . S
O503 C547 1.297 . S
C504 C505 1.404 . S
C504 C509 1.397 . S
C504 C510 1.492 . S
C505 C504 1.404 . S
C505 C506 1.396 . S
C505 C516 1.492 . S
C506 C505 1.396 . S
C506 C507 1.397 . S
C506 C522 1.509 . S
C507 C506 1.397 . S
C507 C508 1.412 . S
C507 C528 1.485 . S
C508 C507 1.412 . S
C508 C509 1.388 . S
C508 C534 1.490 . S
C509 C504 1.397 . S
C509 C508 1.388 . S
C509 C540 1.519 . S
C510 C504 1.492 . S
C510 C511 1.363 . S
C510 C515 1.390 . S
C511 H476 0.930 . S
C511 C510 1.363 . S
C511 C512 1.372 . S
C512 H477 0.930 . S
C512 C511 1.372 . S
C512 C513 1.383 . S
C513 C512 1.383 . S
C513 C514 1.395 . S
C514 H478 0.930 . S
C514 C513 1.395 . S
C514 C515 1.362 . S
C515 H479 0.930 . S
C515 C510 1.390 . S
C515 C514 1.362 . S
C516 C505 1.492 . S
C516 C517 1.377 . S
C516 C521 1.397 . S
C517 H480 0.931 . S
C517 C516 1.377 . S
C517 C518 1.376 . S
C518 H481 0.930 1_556 S
C518 C517 1.376 . S
C518 C519 1.376 1_556 S
C519 C518 1.376 1_554 S
C519 C520 1.378 1_554 S
C519 C546 1.486 . S
C520 H482 0.930 . S
C520 C519 1.378 1_556 S
C520 C521 1.376 . S
C521 H483 0.929 . S
C521 C516 1.397 . S
C521 C520 1.376 . S
C522 C506 1.509 . S
C522 C523 1.391 . S
C522 C527 1.386 . S
C523 H484 0.930 . S
C523 C522 1.391 . S
C523 C524 1.375 . S
C524 H485 0.931 . S
C524 C523 1.375 . S
C524 C525 1.375 . S
C525 C524 1.375 . S
C525 C526 1.361 . S
C526 H486 0.930 . S
C526 C525 1.361 . S
C526 C527 1.399 . S
C527 H487 0.929 . S
C527 C522 1.386 . S
C527 C526 1.399 . S
C528 C507 1.485 . S
C528 C529 1.394 . S
C528 C533 1.360 . S
C529 H488 0.931 . S
C529 C528 1.394 . S
C529 C530 1.372 . S
C530 H489 0.930 . S
C530 C529 1.372 . S
C530 C531 1.397 . S
C531 C530 1.397 . S
C531 C532 1.390 . S
C531 C547 1.476 . S
C532 H490 0.930 . S
C532 C531 1.390 . S
C532 C533 1.366 . S
C533 H491 0.932 . S
C533 C528 1.360 . S
C533 C532 1.366 . S
C534 C508 1.490 . S
C534 C535 1.380 . S
C534 C539 1.386 . S
C535 H492 0.930 . S
C535 C534 1.380 . S
C535 C536 1.381 . S
C536 H493 0.929 . S
C536 C535 1.381 . S
C536 C537 1.371 . S
C537 C536 1.371 . S
C537 C538 1.380 . S
C538 H494 0.931 . S
C538 C537 1.380 . S
C538 C539 1.387 . S
C539 H495 0.930 . S
C539 C534 1.386 . S
C539 C538 1.387 . S
C540 C509 1.519 . S
C540 C541 1.377 . S
C540 C545 1.361 . S
C541 H496 0.929 . S
C541 C540 1.377 . S
C541 C542 1.386 . S
C542 H497 0.931 . S
C542 C541 1.386 . S
C542 C543 1.363 . S
C543 C542 1.363 . S
C543 C544 1.385 . S
C544 H498 0.930 . S
C544 C543 1.385 . S
C544 C545 1.396 . S
C545 H499 0.929 . S
C545 C540 1.361 . S
C545 C544 1.396 . S
C546 O500 1.300 . S
C546 O501 1.209 . S
C546 C519 1.486 . S
C547 O502 1.199 . S
C547 O503 1.297 . S
C547 C531 1.476 . S
H548 O574 0.856 . S
H549 O577 0.854 . S
H550 C585 0.930 . S
H551 C586 0.930 . S
H552 C588 0.930 . S
H553 C589 0.930 . S
H554 C591 0.931 . S
H555 C592 0.930 . S
H556 C594 0.930 1_554 S
H557 C595 0.929 . S
H558 C597 0.930 . S
H559 C598 0.931 . S
H560 C600 0.930 . S
H561 C601 0.929 . S
H562 C603 0.931 . S
H563 C604 0.930 . S
H564 C606 0.930 . S
H565 C607 0.932 . S
H566 C609 0.930 . S
H567 C610 0.929 . S
H568 C612 0.931 . S
H569 C613 0.930 . S
H570 C615 0.929 . S
H571 C616 0.931 . S
H572 C618 0.930 . S
H573 C619 0.929 . S
O574 H548 0.856 . S
O574 C620 1.300 . S
O575 C620 1.209 . S
O576 C621 1.199 . S
O577 H549 0.854 . S
O577 C621 1.297 1_565 S
C578 C579 1.404 . S
C578 C583 1.397 . S
C578 C584 1.492 . S
C579 C578 1.404 . S
C579 C580 1.396 . S
C579 C590 1.492 . S
C580 C579 1.396 . S
C580 C581 1.397 . S
C580 C596 1.509 . S
C581 C580 1.397 . S
C581 C582 1.412 . S
C581 C602 1.485 . S
C582 C581 1.412 . S
C582 C583 1.388 . S
C582 C608 1.490 . S
C583 C578 1.397 . S
C583 C582 1.388 . S
C583 C614 1.519 . S
C584 C578 1.492 . S
C584 C585 1.363 . S
C584 C589 1.390 . S
C585 H550 0.930 . S
C585 C584 1.363 . S
C585 C586 1.372 . S
C586 H551 0.930 . S
C586 C585 1.372 . S
C586 C587 1.383 . S
C587 C586 1.383 . S
C587 C588 1.395 . S
C588 H552 0.930 . S
C588 C587 1.395 . S
C588 C589 1.362 . S
C589 H553 0.930 . S
C589 C584 1.390 . S
C589 C588 1.362 . S
C590 C579 1.492 . S
C590 C591 1.377 . S
C590 C595 1.397 . S
C591 H554 0.931 . S
C591 C590 1.377 . S
C591 C592 1.376 1_556 S
C592 H555 0.930 . S
C592 C591 1.376 1_554 S
C592 C593 1.376 . S
C593 C592 1.376 . S
C593 C594 1.378 1_554 S
C593 C620 1.486 . S
C594 H556 0.930 1_556 S
C594 C593 1.378 1_556 S
C594 C595 1.376 . S
C595 H557 0.929 . S
C595 C590 1.397 . S
C595 C594 1.376 . S
C596 C580 1.509 . S
C596 C597 1.391 . S
C596 C601 1.386 . S
C597 H558 0.930 . S
C597 C596 1.391 . S
C597 C598 1.375 . S
C598 H559 0.931 . S
C598 C597 1.375 . S
C598 C599 1.375 . S
C599 C598 1.375 . S
C599 C600 1.361 . S
C600 H560 0.930 . S
C600 C599 1.361 . S
C600 C601 1.399 . S
C601 H561 0.929 . S
C601 C596 1.386 . S
C601 C600 1.399 . S
C602 C581 1.485 . S
C602 C603 1.394 . S
C602 C607 1.360 . S
C603 H562 0.931 . S
C603 C602 1.394 . S
C603 C604 1.372 . S
C604 H563 0.930 . S
C604 C603 1.372 . S
C604 C605 1.397 . S
C605 C604 1.397 . S
C605 C606 1.390 . S
C605 C621 1.476 . S
C606 H564 0.930 . S
C606 C605 1.390 . S
C606 C607 1.366 . S
C607 H565 0.932 . S
C607 C602 1.360 . S
C607 C606 1.366 . S
C608 C582 1.490 . S
C608 C609 1.380 . S
C608 C613 1.386 . S
C609 H566 0.930 . S
C609 C608 1.380 . S
C609 C610 1.381 . S
C610 H567 0.929 . S
C610 C609 1.381 . S
C610 C611 1.371 . S
C611 C610 1.371 . S
C611 C612 1.380 . S
C612 H568 0.931 . S
C612 C611 1.380 . S
C612 C613 1.387 . S
C613 H569 0.930 . S
C613 C608 1.386 . S
C613 C612 1.387 . S
C614 C583 1.519 . S
C614 C615 1.377 . S
C614 C619 1.361 . S
C615 H570 0.929 . S
C615 C614 1.377 . S
C615 C616 1.386 . S
C616 H571 0.931 . S
C616 C615 1.386 . S
C616 C617 1.363 . S
C617 C616 1.363 . S
C617 C618 1.385 . S
C618 H572 0.930 . S
C618 C617 1.385 . S
C618 C619 1.396 . S
C619 H573 0.929 . S
C619 C614 1.361 . S
C619 C618 1.396 . S
C620 O574 1.300 . S
C620 O575 1.209 . S
C620 C593 1.486 . S
C621 O576 1.199 . S
C621 O577 1.297 1_545 S
C621 C605 1.476 . S
H622 O648 0.856 . S
H623 O651 0.854 . S
H624 C659 0.930 . S
H625 C660 0.930 . S
H626 C662 0.930 . S
H627 C663 0.930 . S
H628 C665 0.931 . S
H629 C666 0.930 . S
H630 C668 0.930 . S
H631 C669 0.929 . S
H632 C671 0.930 . S
H633 C672 0.931 . S
H634 C674 0.930 . S
H635 C675 0.929 . S
H636 C677 0.931 . S
H637 C678 0.930 . S
H638 C680 0.930 . S
H639 C681 0.932 . S
H640 C683 0.930 . S
H641 C684 0.929 . S
H642 C686 0.931 . S
H643 C687 0.930 . S
H644 C689 0.929 . S
H645 C690 0.931 . S
H646 C692 0.930 . S
H647 C693 0.929 . S
O648 H622 0.856 . S
O648 C694 1.300 . S
O649 C694 1.209 . S
O650 C695 1.199 . S
O651 H623 0.854 . S
O651 C695 1.297 . S
C652 C653 1.404 . S
C652 C657 1.397 . S
C652 C658 1.492 . S
C653 C652 1.404 . S
C653 C654 1.396 . S
C653 C664 1.492 . S
C654 C653 1.396 . S
C654 C655 1.397 . S
C654 C670 1.509 . S
C655 C654 1.397 . S
C655 C656 1.412 . S
C655 C676 1.485 . S
C656 C655 1.412 . S
C656 C657 1.388 . S
C656 C682 1.490 . S
C657 C652 1.397 . S
C657 C656 1.388 . S
C657 C688 1.519 . S
C658 C652 1.492 . S
C658 C659 1.363 . S
C658 C663 1.390 . S
C659 H624 0.930 . S
C659 C658 1.363 . S
C659 C660 1.372 . S
C660 H625 0.930 . S
C660 C659 1.372 . S
C660 C661 1.383 . S
C661 C660 1.383 . S
C661 C662 1.395 . S
C662 H626 0.930 . S
C662 C661 1.395 . S
C662 C663 1.362 . S
C663 H627 0.930 . S
C663 C658 1.390 . S
C663 C662 1.362 . S
C664 C653 1.492 . S
C664 C665 1.377 . S
C664 C669 1.397 . S
C665 H628 0.931 . S
C665 C664 1.377 . S
C665 C666 1.376 1_556 S
C666 H629 0.930 . S
C666 C665 1.376 1_554 S
C666 C667 1.376 . S
C667 C666 1.376 . S
C667 C668 1.378 . S
C667 C694 1.486 . S
C668 H630 0.930 . S
C668 C667 1.378 . S
C668 C669 1.376 1_554 S
C669 H631 0.929 . S
C669 C664 1.397 . S
C669 C668 1.376 1_556 S
C670 C654 1.509 . S
C670 C671 1.391 . S
C670 C675 1.386 . S
C671 H632 0.930 . S
C671 C670 1.391 . S
C671 C672 1.375 . S
C672 H633 0.931 . S
C672 C671 1.375 . S
C672 C673 1.375 . S
C673 C672 1.375 . S
C673 C674 1.361 . S
C674 H634 0.930 . S
C674 C673 1.361 . S
C674 C675 1.399 . S
C675 H635 0.929 . S
C675 C670 1.386 . S
C675 C674 1.399 . S
C676 C655 1.485 . S
C676 C677 1.394 . S
C676 C681 1.360 . S
C677 H636 0.931 . S
C677 C676 1.394 . S
C677 C678 1.372 . S
C678 H637 0.930 . S
C678 C677 1.372 . S
C678 C679 1.397 . S
C679 C678 1.397 . S
C679 C680 1.390 . S
C679 C695 1.476 . S
C680 H638 0.930 . S
C680 C679 1.390 . S
C680 C681 1.366 . S
C681 H639 0.932 . S
C681 C676 1.360 . S
C681 C680 1.366 . S
C682 C656 1.490 . S
C682 C683 1.380 . S
C682 C687 1.386 . S
C683 H640 0.930 . S
C683 C682 1.380 . S
C683 C684 1.381 . S
C684 H641 0.929 . S
C684 C683 1.381 . S
C684 C685 1.371 . S
C685 C684 1.371 . S
C685 C686 1.380 . S
C686 H642 0.931 . S
C686 C685 1.380 . S
C686 C687 1.387 . S
C687 H643 0.930 . S
C687 C682 1.386 . S
C687 C686 1.387 . S
C688 C657 1.519 . S
C688 C689 1.377 . S
C688 C693 1.361 . S
C689 H644 0.929 . S
C689 C688 1.377 . S
C689 C690 1.386 . S
C690 H645 0.931 . S
C690 C689 1.386 . S
C690 C691 1.363 . S
C691 C690 1.363 . S
C691 C692 1.385 . S
C692 H646 0.930 . S
C692 C691 1.385 . S
C692 C693 1.396 . S
C693 H647 0.929 . S
C693 C688 1.361 . S
C693 C692 1.396 . S
C694 O648 1.300 . S
C694 O649 1.209 . S
C694 C667 1.486 . S
C695 O650 1.199 . S
C695 O651 1.297 . S
C695 C679 1.476 . S
H696 O722 0.856 . S
H697 O725 0.854 . S
H698 C733 0.930 . S
H699 C734 0.930 . S
H700 C736 0.930 . S
H701 C737 0.930 . S
H702 C739 0.931 . S
H703 C740 0.930 . S
H704 C742 0.930 . S
H705 C743 0.929 . S
H706 C745 0.930 . S
H707 C746 0.931 . S
H708 C748 0.930 . S
H709 C749 0.929 . S
H710 C751 0.931 . S
H711 C752 0.930 . S
H712 C754 0.930 . S
H713 C755 0.932 . S
H714 C757 0.930 . S
H715 C758 0.929 . S
H716 C760 0.931 . S
H717 C761 0.930 . S
H718 C763 0.929 . S
H719 C764 0.931 . S
H720 C766 0.930 . S
H721 C767 0.929 . S
O722 H696 0.856 . S
O722 C768 1.300 . S
O723 C768 1.209 . S
O724 C769 1.199 . S
O725 H697 0.854 . S
O725 C769 1.297 . S
C726 C727 1.404 . S
C726 C731 1.397 . S
C726 C732 1.492 . S
C727 C726 1.404 . S
C727 C728 1.396 . S
C727 C738 1.492 . S
C728 C727 1.396 . S
C728 C729 1.397 . S
C728 C744 1.509 . S
C729 C728 1.397 . S
C729 C730 1.412 . S
C729 C750 1.485 . S
C730 C729 1.412 . S
C730 C731 1.388 . S
C730 C756 1.490 . S
C731 C726 1.397 . S
C731 C730 1.388 . S
C731 C762 1.519 . S
C732 C726 1.492 . S
C732 C733 1.363 . S
C732 C737 1.390 . S
C733 H698 0.930 . S
C733 C732 1.363 . S
C733 C734 1.372 . S
C734 H699 0.930 . S
C734 C733 1.372 . S
C734 C735 1.383 . S
C735 C734 1.383 . S
C735 C736 1.395 . S
C736 H700 0.930 . S
C736 C735 1.395 . S
C736 C737 1.362 . S
C737 H701 0.930 . S
C737 C732 1.390 . S
C737 C736 1.362 . S
C738 C727 1.492 . S
C738 C739 1.377 . S
C738 C743 1.397 . S
C739 H702 0.931 . S
C739 C738 1.377 . S
C739 C740 1.376 . S
C740 H703 0.930 . S
C740 C739 1.376 . S
C740 C741 1.376 . S
C741 C740 1.376 . S
C741 C742 1.378 . S
C741 C768 1.486 . S
C742 H704 0.930 . S
C742 C741 1.378 . S
C742 C743 1.376 . S
C743 H705 0.929 . S
C743 C738 1.397 . S
C743 C742 1.376 . S
C744 C728 1.509 . S
C744 C745 1.391 . S
C744 C749 1.386 . S
C745 H706 0.930 . S
C745 C744 1.391 . S
C745 C746 1.375 . S
C746 H707 0.931 . S
C746 C745 1.375 . S
C746 C747 1.375 . S
C747 C746 1.375 . S
C747 C748 1.361 . S
C748 H708 0.930 . S
C748 C747 1.361 . S
C748 C749 1.399 . S
C749 H709 0.929 . S
C749 C744 1.386 . S
C749 C748 1.399 . S
C750 C729 1.485 . S
C750 C751 1.394 . S
C750 C755 1.360 . S
C751 H710 0.931 . S
C751 C750 1.394 . S
C751 C752 1.372 . S
C752 H711 0.930 . S
C752 C751 1.372 . S
C752 C753 1.397 . S
C753 C752 1.397 . S
C753 C754 1.390 . S
C753 C769 1.476 . S
C754 H712 0.930 . S
C754 C753 1.390 . S
C754 C755 1.366 . S
C755 H713 0.932 . S
C755 C750 1.360 . S
C755 C754 1.366 . S
C756 C730 1.490 . S
C756 C757 1.380 . S
C756 C761 1.386 . S
C757 H714 0.930 . S
C757 C756 1.380 . S
C757 C758 1.381 . S
C758 H715 0.929 . S
C758 C757 1.381 . S
C758 C759 1.371 . S
C759 C758 1.371 . S
C759 C760 1.380 . S
C760 H716 0.931 . S
C760 C759 1.380 . S
C760 C761 1.387 . S
C761 H717 0.930 . S
C761 C756 1.386 . S
C761 C760 1.387 . S
C762 C731 1.519 . S
C762 C763 1.377 . S
C762 C767 1.361 . S
C763 H718 0.929 . S
C763 C762 1.377 . S
C763 C764 1.386 . S
C764 H719 0.931 . S
C764 C763 1.386 . S
C764 C765 1.363 . S
C765 C764 1.363 . S
C765 C766 1.385 . S
C766 H720 0.930 . S
C766 C765 1.385 . S
C766 C767 1.396 . S
C767 H721 0.929 . S
C767 C762 1.361 . S
C767 C766 1.396 . S
C768 O722 1.300 . S
C768 O723 1.209 . S
C768 C741 1.486 . S
C769 O724 1.199 . S
C769 O725 1.297 . S
C769 C753 1.476 . S
H770 O796 0.856 . S
H771 O799 0.854 . S
H772 C807 0.930 . S
H773 C808 0.930 . S
H774 C810 0.930 . S
H775 C811 0.930 . S
H776 C813 0.931 . S
H777 C814 0.930 . S
H778 C816 0.930 . S
H779 C817 0.929 . S
H780 C819 0.930 . S
H781 C820 0.931 . S
H782 C822 0.930 . S
H783 C823 0.929 . S
H784 C825 0.931 . S
H785 C826 0.930 . S
H786 C828 0.930 . S
H787 C829 0.932 . S
H788 C831 0.930 . S
H789 C832 0.929 . S
H790 C834 0.931 . S
H791 C835 0.930 . S
H792 C837 0.929 . S
H793 C838 0.931 . S
H794 C840 0.930 . S
H795 C841 0.929 . S
O796 H770 0.856 . S
O796 C842 1.300 . S
O797 C842 1.209 . S
O798 C843 1.199 . S
O799 H771 0.854 . S
O799 C843 1.297 . S
C800 C801 1.404 . S
C800 C805 1.397 . S
C800 C806 1.492 . S
C801 C800 1.404 . S
C801 C802 1.396 . S
C801 C812 1.492 . S
C802 C801 1.396 . S
C802 C803 1.397 . S
C802 C818 1.509 . S
C803 C802 1.397 . S
C803 C804 1.412 . S
C803 C824 1.485 . S
C804 C803 1.412 . S
C804 C805 1.388 . S
C804 C830 1.490 . S
C805 C800 1.397 . S
C805 C804 1.388 . S
C805 C836 1.519 . S
C806 C800 1.492 . S
C806 C807 1.363 . S
C806 C811 1.390 . S
C807 H772 0.930 . S
C807 C806 1.363 . S
C807 C808 1.372 . S
C808 H773 0.930 . S
C808 C807 1.372 . S
C808 C809 1.383 . S
C809 C808 1.383 . S
C809 C810 1.395 . S
C810 H774 0.930 . S
C810 C809 1.395 . S
C810 C811 1.362 . S
C811 H775 0.930 . S
C811 C806 1.390 . S
C811 C810 1.362 . S
C812 C801 1.492 . S
C812 C813 1.377 . S
C812 C817 1.397 . S
C813 H776 0.931 . S
C813 C812 1.377 . S
C813 C814 1.376 . S
C814 H777 0.930 . S
C814 C813 1.376 . S
C814 C815 1.376 . S
C815 C814 1.376 . S
C815 C816 1.378 . S
C815 C842 1.486 . S
C816 H778 0.930 . S
C816 C815 1.378 . S
C816 C817 1.376 . S
C817 H779 0.929 . S
C817 C812 1.397 . S
C817 C816 1.376 . S
C818 C802 1.509 . S
C818 C819 1.391 . S
C818 C823 1.386 . S
C819 H780 0.930 . S
C819 C818 1.391 . S
C819 C820 1.375 . S
C820 H781 0.931 . S
C820 C819 1.375 . S
C820 C821 1.375 . S
C821 C820 1.375 . S
C821 C822 1.361 . S
C822 H782 0.930 . S
C822 C821 1.361 . S
C822 C823 1.399 . S
C823 H783 0.929 . S
C823 C818 1.386 . S
C823 C822 1.399 . S
C824 C803 1.485 . S
C824 C825 1.394 . S
C824 C829 1.360 . S
C825 H784 0.931 . S
C825 C824 1.394 . S
C825 C826 1.372 . S
C826 H785 0.930 . S
C826 C825 1.372 . S
C826 C827 1.397 . S
C827 C826 1.397 . S
C827 C828 1.390 . S
C827 C843 1.476 . S
C828 H786 0.930 . S
C828 C827 1.390 . S
C828 C829 1.366 . S
C829 H787 0.932 . S
C829 C824 1.360 . S
C829 C828 1.366 . S
C830 C804 1.490 . S
C830 C831 1.380 . S
C830 C835 1.386 . S
C831 H788 0.930 . S
C831 C830 1.380 . S
C831 C832 1.381 . S
C832 H789 0.929 . S
C832 C831 1.381 . S
C832 C833 1.371 . S
C833 C832 1.371 . S
C833 C834 1.380 . S
C834 H790 0.931 . S
C834 C833 1.380 . S
C834 C835 1.387 . S
C835 H791 0.930 . S
C835 C830 1.386 . S
C835 C834 1.387 . S
C836 C805 1.519 . S
C836 C837 1.377 . S
C836 C841 1.361 . S
C837 H792 0.929 . S
C837 C836 1.377 . S
C837 C838 1.386 . S
C838 H793 0.931 . S
C838 C837 1.386 . S
C838 C839 1.363 . S
C839 C838 1.363 . S
C839 C840 1.385 . S
C840 H794 0.930 . S
C840 C839 1.385 . S
C840 C841 1.396 . S
C841 H795 0.929 . S
C841 C836 1.361 . S
C841 C840 1.396 . S
C842 O796 1.300 . S
C842 O797 1.209 . S
C842 C815 1.486 . S
C843 O798 1.199 . S
C843 O799 1.297 . S
C843 C827 1.476 . S
H844 O870 0.856 . S
H845 O873 0.854 . S
H846 C881 0.930 . S
H847 C882 0.930 . S
H848 C884 0.930 . S
H849 C885 0.930 . S
H850 C887 0.931 . S
H851 C888 0.930 . S
H852 C890 0.930 . S
H853 C891 0.929 . S
H854 C893 0.930 . S
H855 C894 0.931 . S
H856 C896 0.930 . S
H857 C897 0.929 . S
H858 C899 0.931 . S
H859 C900 0.930 . S
H860 C902 0.930 . S
H861 C903 0.932 . S
H862 C905 0.930 . S
H863 C906 0.929 . S
H864 C908 0.931 . S
H865 C909 0.930 . S
H866 C911 0.929 . S
H867 C912 0.931 . S
H868 C914 0.930 . S
H869 C915 0.929 . S
O870 H844 0.856 . S
O870 C916 1.300 . S
O871 C916 1.209 . S
O872 C917 1.199 . S
O873 H845 0.854 . S
O873 C917 1.297 . S
C874 C875 1.404 . S
C874 C879 1.397 . S
C874 C880 1.492 . S
C875 C874 1.404 . S
C875 C876 1.396 . S
C875 C886 1.492 . S
C876 C875 1.396 . S
C876 C877 1.397 . S
C876 C892 1.509 . S
C877 C876 1.397 . S
C877 C878 1.412 . S
C877 C898 1.485 . S
C878 C877 1.412 . S
C878 C879 1.388 . S
C878 C904 1.490 . S
C879 C874 1.397 . S
C879 C878 1.388 . S
C879 C910 1.519 . S
C880 C874 1.492 . S
C880 C881 1.363 . S
C880 C885 1.390 . S
C881 H846 0.930 . S
C881 C880 1.363 . S
C881 C882 1.372 . S
C882 H847 0.930 . S
C882 C881 1.372 . S
C882 C883 1.383 . S
C883 C882 1.383 . S
C883 C884 1.395 . S
C884 H848 0.930 . S
C884 C883 1.395 . S
C884 C885 1.362 . S
C885 H849 0.930 . S
C885 C880 1.390 . S
C885 C884 1.362 . S
C886 C875 1.492 . S
C886 C887 1.377 . S
C886 C891 1.397 . S
C887 H850 0.931 . S
C887 C886 1.377 . S
C887 C888 1.376 . S
C888 H851 0.930 . S
C888 C887 1.376 . S
C888 C889 1.376 . S
C889 C888 1.376 . S
C889 C890 1.378 . S
C889 C916 1.486 . S
C890 H852 0.930 . S
C890 C889 1.378 . S
C890 C891 1.376 . S
C891 H853 0.929 . S
C891 C886 1.397 . S
C891 C890 1.376 . S
C892 C876 1.509 . S
C892 C893 1.391 . S
C892 C897 1.386 . S
C893 H854 0.930 . S
C893 C892 1.391 . S
C893 C894 1.375 . S
C894 H855 0.931 . S
C894 C893 1.375 . S
C894 C895 1.375 . S
C895 C894 1.375 . S
C895 C896 1.361 . S
C896 H856 0.930 . S
C896 C895 1.361 . S
C896 C897 1.399 . S
C897 H857 0.929 . S
C897 C892 1.386 . S
C897 C896 1.399 . S
C898 C877 1.485 . S
C898 C899 1.394 . S
C898 C903 1.360 . S
C899 H858 0.931 . S
C899 C898 1.394 . S
C899 C900 1.372 . S
C900 H859 0.930 . S
C900 C899 1.372 . S
C900 C901 1.397 . S
C901 C900 1.397 . S
C901 C902 1.390 . S
C901 C917 1.476 . S
C902 H860 0.930 . S
C902 C901 1.390 . S
C902 C903 1.366 . S
C903 H861 0.932 . S
C903 C898 1.360 . S
C903 C902 1.366 . S
C904 C878 1.490 . S
C904 C905 1.380 . S
C904 C909 1.386 . S
C905 H862 0.930 . S
C905 C904 1.380 . S
C905 C906 1.381 . S
C906 H863 0.929 . S
C906 C905 1.381 . S
C906 C907 1.371 . S
C907 C906 1.371 . S
C907 C908 1.380 . S
C908 H864 0.931 . S
C908 C907 1.380 . S
C908 C909 1.387 . S
C909 H865 0.930 . S
C909 C904 1.386 . S
C909 C908 1.387 . S
C910 C879 1.519 . S
C910 C911 1.377 . S
C910 C915 1.361 . S
C911 H866 0.929 . S
C911 C910 1.377 . S
C911 C912 1.386 . S
C912 H867 0.931 . S
C912 C911 1.386 . S
C912 C913 1.363 . S
C913 C912 1.363 . S
C913 C914 1.385 . S
C914 H868 0.930 . S
C914 C913 1.385 . S
C914 C915 1.396 . S
C915 H869 0.929 . S
C915 C910 1.361 . S
C915 C914 1.396 . S
C916 O870 1.300 . S
C916 O871 1.209 . S
C916 C889 1.486 . S
C917 O872 1.199 . S
C917 O873 1.297 . S
C917 C901 1.476 . S
H918 O944 0.856 . S
H919 O947 0.854 . S
H920 C955 0.930 . S
H921 C956 0.930 . S
H922 C958 0.930 . S
H923 C959 0.930 . S
H924 C961 0.931 . S
H925 C962 0.930 1_655 S
H926 C964 0.930 . S
H927 C965 0.929 . S
H928 C967 0.930 . S
H929 C968 0.931 1_655 S
H930 C970 0.930 . S
H931 C971 0.929 . S
H932 C973 0.931 . S
H933 C974 0.930 . S
H934 C976 0.930 . S
H935 C977 0.932 . S
H936 C979 0.930 . S
H937 C980 0.929 . S
H938 C982 0.931 . S
H939 C983 0.930 . S
H940 C985 0.929 . S
H941 C986 0.931 . S
H942 C988 0.930 . S
H943 C989 0.929 . S
O944 H918 0.856 . S
O944 C990 1.300 . S
O945 C990 1.209 . S
O946 C991 1.199 1_655 S
O947 H919 0.854 . S
O947 C991 1.297 . S
C948 C949 1.404 . S
C948 C953 1.394 . S
C948 C954 1.492 . S
C949 C948 1.404 . S
C949 C950 1.396 . S
C949 C960 1.492 . S
C950 C949 1.396 . S
C950 C951 1.397 . S
C950 C966 1.509 . S
C951 C950 1.397 . S
C951 C952 1.426 . S
C951 C972 1.485 . S
C952 C951 1.426 . S
C952 C953 1.404 . S
C952 C978 1.490 1_455 S
C953 C948 1.394 . S
C953 C952 1.404 . S
C953 C984 1.479 1_455 S
C954 C948 1.492 . S
C954 C955 1.363 1_455 S
C954 C959 1.390 . S
C955 H920 0.930 . S
C955 C954 1.363 1_655 S
C955 C956 1.372 . S
C956 H921 0.930 . S
C956 C955 1.372 . S
C956 C957 1.383 . S
C957 C956 1.383 . S
C957 C958 1.395 1_655 S
C958 H922 0.930 . S
C958 C957 1.395 1_455 S
C958 C959 1.362 . S
C959 H923 0.930 . S
C959 C954 1.390 . S
C959 C958 1.362 . S
C960 C949 1.492 . S
C960 C961 1.377 1_455 S
C960 C965 1.397 . S
C961 H924 0.931 . S
C961 C960 1.377 1_655 S
C961 C962 1.376 1_655 S
C962 H925 0.930 1_455 S
C962 C961 1.376 1_455 S
C962 C963 1.376 . S
C963 C962 1.376 . S
C963 C964 1.378 . S
C963 C990 1.486 . S
C964 H926 0.930 . S
C964 C963 1.378 . S
C964 C965 1.376 . S
C965 H927 0.929 . S
C965 C960 1.397 . S
C965 C964 1.376 . S
C966 C950 1.509 . S
C966 C967 1.391 1_455 S
C966 C971 1.386 . S
C967 H928 0.930 . S
C967 C966 1.391 1_655 S
C967 C968 1.375 1_655 S
C968 H929 0.931 1_455 S
C968 C967 1.375 1_455 S
C968 C969 1.375 . S
C969 C968 1.375 . S
C969 C970 1.361 . S
C970 H930 0.930 . S
C970 C969 1.361 . S
C970 C971 1.399 . S
C971 H931 0.929 . S
C971 C966 1.386 . S
C971 C970 1.399 . S
C972 C951 1.485 . S
C972 C973 1.394 1_455 S
C972 C977 1.360 . S
C973 H932 0.931 . S
C973 C972 1.394 1_655 S
C973 C974 1.372 . S
C974 H933 0.930 . S
C974 C973 1.372 . S
C974 C975 1.397 1_655 S
C975 C974 1.397 1_455 S
C975 C976 1.390 . S
C975 C991 1.476 . S
C976 H934 0.930 . S
C976 C975 1.390 . S
C976 C977 1.366 . S
C977 H935 0.932 . S
C977 C972 1.360 . S
C977 C976 1.366 . S
C978 C952 1.490 1_655 S
C978 C979 1.380 . S
C978 C983 1.386 1_655 S
C979 H936 0.930 . S
C979 C978 1.380 . S
C979 C980 1.381 . S
C980 H937 0.929 . S
C980 C979 1.381 . S
C980 C981 1.371 . S
C981 C980 1.371 . S
C981 C982 1.380 1_655 S
C982 H938 0.931 . S
C982 C981 1.380 1_455 S
C982 C983 1.387 . S
C983 H939 0.930 . S
C983 C978 1.386 1_455 S
C983 C982 1.387 . S
C984 C953 1.479 1_655 S
C984 C985 1.430 . S
C984 C989 1.327 1_655 S
C985 H940 0.929 . S
C985 C984 1.430 . S
C985 C986 1.386 . S
C986 H941 0.931 . S
C986 C985 1.386 . S
C986 C987 1.363 . S
C987 C986 1.363 . S
C987 C988 1.385 1_655 S
C988 H942 0.930 . S
C988 C987 1.385 1_455 S
C988 C989 1.396 . S
C989 H943 0.929 . S
C989 C984 1.327 1_455 S
C989 C988 1.396 . S
C990 O944 1.300 . S
C990 O945 1.209 . S
C990 C963 1.486 . S
C991 O946 1.199 1_455 S
C991 O947 1.297 . S
C991 C975 1.476 . S
H992 O1018 0.856 . S
H993 O1021 0.854 . S
H994 C1029 0.930 . S
H995 C1030 0.930 . S
H996 C1032 0.930 . S
H997 C1033 0.930 . S
H998 C1035 0.931 . S
H999 C1036 0.930 . S
H1000 C1038 0.930 . S
H1001 C1039 0.929 . S
H1002 C1041 0.930 . S
H1003 C1042 0.931 . S
H1004 C1044 0.930 . S
H1005 C1045 0.929 . S
H1006 C1047 0.931 . S
H1007 C1048 0.930 . S
H1008 C1050 0.930 . S
H1009 C1051 0.932 . S
H1010 C1053 0.930 . S
H1011 C1054 0.929 . S
H1012 C1056 0.931 . S
H1013 C1057 0.930 . S
H1014 C1059 0.929 . S
H1015 C1060 0.931 . S
H1016 C1062 0.930 . S
H1017 C1063 0.929 . S
O1018 H992 0.856 . S
O1018 C1064 1.300 . S
O1019 C1064 1.209 . S
O1020 C1065 1.199 . S
O1021 H993 0.854 . S
O1021 C1065 1.297 . S
C1022 C1023 1.404 . S
C1022 C1027 1.397 . S
C1022 C1028 1.492 . S
C1023 C1022 1.404 . S
C1023 C1024 1.396 . S
C1023 C1034 1.492 . S
C1024 C1023 1.396 . S
C1024 C1025 1.397 . S
C1024 C1040 1.509 . S
C1025 C1024 1.397 . S
C1025 C1026 1.412 . S
C1025 C1046 1.485 . S
C1026 C1025 1.412 . S
C1026 C1027 1.388 . S
C1026 C1052 1.490 . S
C1027 C1022 1.397 . S
C1027 C1026 1.388 . S
C1027 C1058 1.519 . S
C1028 C1022 1.492 . S
C1028 C1029 1.363 . S
C1028 C1033 1.390 . S
C1029 H994 0.930 . S
C1029 C1028 1.363 . S
C1029 C1030 1.372 . S
C1030 H995 0.930 . S
C1030 C1029 1.372 . S
C1030 C1031 1.383 . S
C1031 C1030 1.383 . S
C1031 C1032 1.395 . S
C1032 H996 0.930 . S
C1032 C1031 1.395 . S
C1032 C1033 1.362 . S
C1033 H997 0.930 . S
C1033 C1028 1.390 . S
C1033 C1032 1.362 . S
C1034 C1023 1.492 . S
C1034 C1035 1.377 . S
C1034 C1039 1.397 . S
C1035 H998 0.931 . S
C1035 C1034 1.377 . S
C1035 C1036 1.376 . S
C1036 H999 0.930 . S
C1036 C1035 1.376 . S
C1036 C1037 1.376 . S
C1037 C1036 1.376 . S
C1037 C1038 1.378 . S
C1037 C1064 1.486 . S
C1038 H1000 0.930 . S
C1038 C1037 1.378 . S
C1038 C1039 1.376 . S
C1039 H1001 0.929 . S
C1039 C1034 1.397 . S
C1039 C1038 1.376 . S
C1040 C1024 1.509 . S
C1040 C1041 1.391 . S
C1040 C1045 1.386 . S
C1041 H1002 0.930 . S
C1041 C1040 1.391 . S
C1041 C1042 1.375 . S
C1042 H1003 0.931 . S
C1042 C1041 1.375 . S
C1042 C1043 1.375 . S
C1043 C1042 1.375 . S
C1043 C1044 1.361 . S
C1044 H1004 0.930 . S
C1044 C1043 1.361 . S
C1044 C1045 1.399 . S
C1045 H1005 0.929 . S
C1045 C1040 1.386 . S
C1045 C1044 1.399 . S
C1046 C1025 1.485 . S
C1046 C1047 1.394 . S
C1046 C1051 1.360 . S
C1047 H1006 0.931 . S
C1047 C1046 1.394 . S
C1047 C1048 1.372 . S
C1048 H1007 0.930 . S
C1048 C1047 1.372 . S
C1048 C1049 1.397 . S
C1049 C1048 1.397 . S
C1049 C1050 1.390 . S
C1049 C1065 1.476 . S
C1050 H1008 0.930 . S
C1050 C1049 1.390 . S
C1050 C1051 1.366 . S
C1051 H1009 0.932 . S
C1051 C1046 1.360 . S
C1051 C1050 1.366 . S
C1052 C1026 1.490 . S
C1052 C1053 1.380 . S
C1052 C1057 1.386 . S
C1053 H1010 0.930 . S
C1053 C1052 1.380 . S
C1053 C1054 1.381 . S
C1054 H1011 0.929 . S
C1054 C1053 1.381 . S
C1054 C1055 1.371 . S
C1055 C1054 1.371 . S
C1055 C1056 1.380 . S
C1056 H1012 0.931 . S
C1056 C1055 1.380 . S
C1056 C1057 1.387 . S
C1057 H1013 0.930 . S
C1057 C1052 1.386 . S
C1057 C1056 1.387 . S
C1058 C1027 1.519 . S
C1058 C1059 1.377 . S
C1058 C1063 1.361 . S
C1059 H1014 0.929 . S
C1059 C1058 1.377 . S
C1059 C1060 1.386 . S
C1060 H1015 0.931 . S
C1060 C1059 1.386 . S
C1060 C1061 1.363 . S
C1061 C1060 1.363 . S
C1061 C1062 1.385 . S
C1062 H1016 0.930 . S
C1062 C1061 1.385 . S
C1062 C1063 1.396 . S
C1063 H1017 0.929 . S
C1063 C1058 1.361 . S
C1063 C1062 1.396 . S
C1064 O1018 1.300 . S
C1064 O1019 1.209 . S
C1064 C1037 1.486 . S
C1065 O1020 1.199 . S
C1065 O1021 1.297 . S
C1065 C1049 1.476 . S
H1066 O1092 0.856 . S
H1067 O1095 0.854 . S
H1068 C1103 0.930 . S
H1069 C1104 0.930 . S
H1070 C1106 0.930 . S
H1071 C1107 0.930 . S
H1072 C1109 0.931 . S
H1073 C1110 0.938 . S
H1074 C1112 0.930 . S
H1075 C1113 0.929 . S
H1076 C1115 0.930 . S
H1077 C1116 0.931 . S
H1078 C1118 0.930 . S
H1079 C1119 0.929 . S
H1080 C1121 0.931 . S
H1081 C1122 0.930 . S
H1082 C1124 0.930 . S
H1083 C1125 0.932 . S
H1084 C1127 0.930 . S
H1085 C1128 0.929 . S
H1086 C1130 0.931 . S
H1087 C1131 0.930 . S
H1088 C1133 0.929 . S
H1089 C1134 0.931 . S
H1090 C1136 0.930 . S
H1091 C1137 0.929 . S
O1092 H1066 0.856 . S
O1092 C1138 1.300 . S
O1093 C1138 1.209 . S
O1094 C1139 1.199 1_545 S
O1095 H1067 0.854 . S
O1095 C1139 1.297 . S
C1096 C1097 1.404 . S
C1096 C1101 1.415 . S
C1096 C1102 1.492 . S
C1097 C1096 1.404 . S
C1097 C1098 1.396 . S
C1097 C1108 1.492 . S
C1098 C1097 1.396 . S
C1098 C1099 1.397 . S
C1098 C1114 1.509 . S
C1099 C1098 1.397 . S
C1099 C1100 1.412 . S
C1099 C1120 1.485 . S
C1100 C1099 1.412 . S
C1100 C1101 1.363 . S
C1100 C1126 1.489 1_565 S
C1101 C1096 1.415 . S
C1101 C1100 1.363 . S
C1101 C1132 1.534 1_565 S
C1102 C1096 1.492 . S
C1102 C1103 1.363 1_565 S
C1102 C1107 1.390 . S
C1103 H1068 0.930 . S
C1103 C1102 1.363 1_545 S
C1103 C1104 1.372 . S
C1104 H1069 0.930 . S
C1104 C1103 1.372 . S
C1104 C1105 1.383 . S
C1105 C1104 1.383 . S
C1105 C1106 1.395 1_545 S
C1106 H1070 0.930 . S
C1106 C1105 1.395 1_565 S
C1106 C1107 1.362 . S
C1107 H1071 0.930 . S
C1107 C1102 1.390 . S
C1107 C1106 1.362 . S
C1108 C1097 1.492 . S
C1108 C1109 1.377 1_565 S
C1108 C1113 1.397 . S
C1109 H1072 0.931 . S
C1109 C1108 1.377 1_545 S
C1109 C1110 1.381 . S
C1110 H1073 0.938 . S
C1110 C1109 1.381 . S
C1110 C1111 1.362 1_545 S
C1111 C1110 1.362 1_565 S
C1111 C1112 1.378 . S
C1111 C1138 1.486 . S
C1112 H1074 0.930 . S
C1112 C1111 1.378 . S
C1112 C1113 1.376 . S
C1113 H1075 0.929 . S
C1113 C1108 1.397 . S
C1113 C1112 1.376 . S
C1114 C1098 1.509 . S
C1114 C1115 1.391 1_565 S
C1114 C1119 1.386 . S
C1115 H1076 0.930 . S
C1115 C1114 1.391 1_545 S
C1115 C1116 1.375 . S
C1116 H1077 0.931 . S
C1116 C1115 1.375 . S
C1116 C1117 1.375 1_545 S
C1117 C1116 1.375 1_565 S
C1117 C1118 1.361 . S
C1118 H1078 0.930 . S
C1118 C1117 1.361 . S
C1118 C1119 1.399 . S
C1119 H1079 0.929 . S
C1119 C1114 1.386 . S
C1119 C1118 1.399 . S
C1120 C1099 1.485 . S
C1120 C1121 1.394 1_565 S
C1120 C1125 1.360 . S
C1121 H1080 0.931 . S
C1121 C1120 1.394 1_545 S
C1121 C1122 1.372 . S
C1122 H1081 0.930 . S
C1122 C1121 1.372 . S
C1122 C1123 1.397 1_545 S
C1123 C1122 1.397 1_565 S
C1123 C1124 1.390 . S
C1123 C1139 1.476 . S
C1124 H1082 0.930 . S
C1124 C1123 1.390 . S
C1124 C1125 1.366 . S
C1125 H1083 0.932 . S
C1125 C1120 1.360 . S
C1125 C1124 1.366 . S
C1126 C1100 1.489 1_545 S
C1126 C1127 1.380 . S
C1126 C1131 1.386 1_545 S
C1127 H1084 0.930 . S
C1127 C1126 1.380 . S
C1127 C1128 1.381 . S
C1128 H1085 0.929 . S
C1128 C1127 1.381 . S
C1128 C1129 1.371 . S
C1129 C1128 1.371 . S
C1129 C1130 1.380 1_545 S
C1130 H1086 0.931 . S
C1130 C1129 1.380 1_565 S
C1130 C1131 1.387 . S
C1131 H1087 0.930 . S
C1131 C1126 1.386 1_565 S
C1131 C1130 1.387 . S
C1132 C1101 1.534 1_545 S
C1132 C1133 1.378 . S
C1132 C1137 1.359 1_545 S
C1133 H1088 0.929 . S
C1133 C1132 1.378 . S
C1133 C1134 1.386 . S
C1134 H1089 0.931 . S
C1134 C1133 1.386 . S
C1134 C1135 1.363 1_545 S
C1135 C1134 1.363 1_565 S
C1135 C1136 1.385 . S
C1136 H1090 0.930 . S
C1136 C1135 1.385 . S
C1136 C1137 1.396 . S
C1137 H1091 0.929 . S
C1137 C1132 1.359 1_565 S
C1137 C1136 1.396 . S
C1138 O1092 1.300 . S
C1138 O1093 1.209 . S
C1138 C1111 1.486 . S
C1139 O1094 1.199 1_565 S
C1139 O1095 1.297 . S
C1139 C1123 1.476 . S
H1140 O1166 0.856 . S
H1141 O1169 0.854 . S
H1142 C1177 0.930 . S
H1143 C1178 0.930 . S
H1144 C1180 0.930 . S
H1145 C1181 0.930 . S
H1146 C1183 0.931 . S
H1147 C1184 0.930 . S
H1148 C1186 0.930 . S
H1149 C1187 0.929 . S
H1150 C1189 0.930 . S
H1151 C1190 0.931 . S
H1152 C1192 0.930 . S
H1153 C1193 0.929 . S
H1154 C1195 0.931 . S
H1155 C1196 0.930 . S
H1156 C1198 0.930 . S
H1157 C1199 0.932 . S
H1158 C1201 0.930 . S
H1159 C1202 0.929 . S
H1160 C1204 0.931 . S
H1161 C1205 0.930 . S
H1162 C1207 0.929 . S
H1163 C1208 0.931 . S
H1164 C1210 0.930 . S
H1165 C1211 0.929 . S
O1166 H1140 0.856 . S
O1166 C1212 1.300 . S
O1167 C1212 1.209 1_565 S
O1168 C1213 1.199 1_545 S
O1169 H1141 0.854 . S
O1169 C1213 1.297 . S
C1170 C1171 1.404 . S
C1170 C1175 1.396 1_545 S
C1170 C1176 1.492 . S
C1171 C1170 1.404 . S
C1171 C1172 1.396 . S
C1171 C1182 1.492 . S
C1172 C1171 1.396 . S
C1172 C1173 1.390 1_545 S
C1172 C1188 1.509 . S
C1173 C1172 1.390 1_565 S
C1173 C1174 1.418 . S
C1173 C1194 1.501 . S
C1174 C1173 1.418 . S
C1174 C1175 1.364 . S
C1174 C1200 1.502 . S
C1175 C1170 1.396 1_565 S
C1175 C1174 1.364 . S
C1175 C1206 1.518 . S
C1176 C1170 1.492 . S
C1176 C1177 1.363 . S
C1176 C1181 1.390 1_545 S
C1177 H1142 0.930 . S
C1177 C1176 1.363 . S
C1177 C1178 1.372 . S
C1178 H1143 0.930 . S
C1178 C1177 1.372 . S
C1178 C1179 1.383 . S
C1179 C1178 1.383 . S
C1179 C1180 1.395 1_545 S
C1180 H1144 0.930 . S
C1180 C1179 1.395 1_565 S
C1180 C1181 1.362 . S
C1181 H1145 0.930 . S
C1181 C1176 1.390 1_565 S
C1181 C1180 1.362 . S
C1182 C1171 1.492 . S
C1182 C1183 1.377 . S
C1182 C1187 1.397 1_545 S
C1183 H1146 0.931 . S
C1183 C1182 1.377 . S
C1183 C1184 1.376 . S
C1184 H1147 0.930 . S
C1184 C1183 1.376 . S
C1184 C1185 1.376 . S
C1185 C1184 1.376 . S
C1185 C1186 1.378 1_545 S
C1185 C1212 1.486 . S
C1186 H1148 0.930 . S
C1186 C1185 1.378 1_565 S
C1186 C1187 1.376 . S
C1187 H1149 0.929 . S
C1187 C1182 1.397 1_565 S
C1187 C1186 1.376 . S
C1188 C1172 1.509 . S
C1188 C1189 1.391 . S
C1188 C1193 1.386 1_545 S
C1189 H1150 0.930 . S
C1189 C1188 1.391 . S
C1189 C1190 1.375 . S
C1190 H1151 0.931 . S
C1190 C1189 1.375 . S
C1190 C1191 1.405 . S
C1191 C1190 1.405 . S
C1191 C1192 1.345 1_545 S
C1192 H1152 0.930 . S
C1192 C1191 1.345 1_565 S
C1192 C1193 1.399 . S
C1193 H1153 0.929 . S
C1193 C1188 1.386 1_565 S
C1193 C1192 1.399 . S
C1194 C1173 1.501 . S
C1194 C1195 1.394 1_565 S
C1194 C1199 1.360 . S
C1195 H1154 0.931 . S
C1195 C1194 1.394 1_545 S
C1195 C1196 1.372 . S
C1196 H1155 0.930 . S
C1196 C1195 1.372 . S
C1196 C1197 1.397 1_545 S
C1197 C1196 1.397 1_565 S
C1197 C1198 1.390 . S
C1197 C1213 1.476 . S
C1198 H1156 0.930 . S
C1198 C1197 1.390 . S
C1198 C1199 1.366 . S
C1199 H1157 0.932 . S
C1199 C1194 1.360 . S
C1199 C1198 1.366 . S
C1200 C1174 1.502 . S
C1200 C1201 1.380 1_565 S
C1200 C1205 1.386 . S
C1201 H1158 0.930 . S
C1201 C1200 1.380 1_545 S
C1201 C1202 1.381 . S
C1202 H1159 0.929 . S
C1202 C1201 1.381 . S
C1202 C1203 1.372 1_545 S
C1203 C1202 1.372 1_565 S
C1203 C1204 1.379 . S
C1204 H1160 0.931 . S
C1204 C1203 1.379 . S
C1204 C1205 1.387 . S
C1205 H1161 0.930 . S
C1205 C1200 1.386 . S
C1205 C1204 1.387 . S
C1206 C1175 1.518 . S
C1206 C1207 1.377 1_565 S
C1206 C1211 1.361 . S
C1207 H1162 0.929 . S
C1207 C1206 1.377 1_545 S
C1207 C1208 1.386 . S
C1208 H1163 0.931 . S
C1208 C1207 1.386 . S
C1208 C1209 1.363 1_545 S
C1209 C1208 1.363 1_565 S
C1209 C1210 1.385 . S
C1210 H1164 0.930 . S
C1210 C1209 1.385 . S
C1210 C1211 1.396 . S
C1211 H1165 0.929 . S
C1211 C1206 1.361 . S
C1211 C1210 1.396 . S
C1212 O1166 1.300 . S
C1212 O1167 1.209 1_545 S
C1212 C1185 1.486 . S
C1213 O1168 1.199 1_565 S
C1213 O1169 1.297 . S
C1213 C1197 1.476 . S
H1214 O1240 0.856 . S
H1215 O1243 0.854 . S
H1216 C1251 0.930 . S
H1217 C1252 0.930 . S
H1218 C1254 0.930 . S
H1219 C1255 0.930 . S
H1220 C1257 0.931 . S
H1221 C1258 0.930 . S
H1222 C1260 0.930 . S
H1223 C1261 0.929 . S
H1224 C1263 0.930 . S
H1225 C1264 0.931 . S
H1226 C1266 0.930 . S
H1227 C1267 0.929 . S
H1228 C1269 0.931 . S
H1229 C1270 0.930 . S
H1230 C1272 0.930 . S
H1231 C1273 0.932 . S
H1232 C1275 0.930 . S
H1233 C1276 0.929 . S
H1234 C1278 0.931 . S
H1235 C1279 0.930 . S
H1236 C1281 0.929 . S
H1237 C1282 0.931 . S
H1238 C1284 0.930 . S
H1239 C1285 0.929 . S
O1240 H1214 0.856 . S
O1240 C1286 1.300 . S
O1241 C1286 1.209 1_455 S
O1242 C1287 1.199 1_655 S
O1243 H1215 0.854 . S
O1243 C1287 1.297 . S
C1244 C1245 1.404 . S
C1244 C1249 1.398 . S
C1244 C1250 1.492 . S
C1245 C1244 1.404 . S
C1245 C1246 1.396 . S
C1245 C1256 1.492 . S
C1246 C1245 1.396 . S
C1246 C1247 1.395 . S
C1246 C1262 1.509 . S
C1247 C1246 1.395 . S
C1247 C1248 1.389 1_655 S
C1247 C1268 1.526 1_655 S
C1248 C1247 1.389 1_455 S
C1248 C1249 1.405 1_455 S
C1248 C1274 1.486 . S
C1249 C1244 1.398 . S
C1249 C1248 1.405 1_655 S
C1249 C1280 1.521 1_655 S
C1250 C1244 1.492 . S
C1250 C1251 1.363 . S
C1250 C1255 1.390 1_655 S
C1251 H1216 0.930 . S
C1251 C1250 1.363 . S
C1251 C1252 1.372 . S
C1252 H1217 0.930 . S
C1252 C1251 1.372 . S
C1252 C1253 1.383 . S
C1253 C1252 1.383 . S
C1253 C1254 1.395 1_655 S
C1254 H1218 0.930 . S
C1254 C1253 1.395 1_455 S
C1254 C1255 1.362 . S
C1255 H1219 0.930 . S
C1255 C1250 1.390 1_455 S
C1255 C1254 1.362 . S
C1256 C1245 1.492 . S
C1256 C1257 1.377 . S
C1256 C1261 1.397 1_655 S
C1257 H1220 0.931 . S
C1257 C1256 1.377 . S
C1257 C1258 1.376 . S
C1258 H1221 0.930 . S
C1258 C1257 1.376 . S
C1258 C1259 1.376 . S
C1259 C1258 1.376 . S
C1259 C1260 1.378 1_655 S
C1259 C1286 1.486 . S
C1260 H1222 0.930 . S
C1260 C1259 1.378 1_455 S
C1260 C1261 1.376 . S
C1261 H1223 0.929 . S
C1261 C1256 1.397 1_455 S
C1261 C1260 1.376 . S
C1262 C1246 1.509 . S
C1262 C1263 1.391 . S
C1262 C1267 1.386 1_655 S
C1263 H1224 0.930 . S
C1263 C1262 1.391 . S
C1263 C1264 1.375 . S
C1264 H1225 0.931 . S
C1264 C1263 1.375 . S
C1264 C1265 1.375 . S
C1265 C1264 1.375 . S
C1265 C1266 1.361 1_655 S
C1266 H1226 0.930 . S
C1266 C1265 1.361 1_455 S
C1266 C1267 1.399 . S
C1267 H1227 0.929 . S
C1267 C1262 1.386 1_455 S
C1267 C1266 1.399 . S
C1268 C1247 1.526 1_455 S
C1268 C1269 1.348 1_455 S
C1268 C1273 1.380 . S
C1269 H1228 0.931 . S
C1269 C1268 1.348 1_655 S
C1269 C1270 1.372 . S
C1270 H1229 0.930 . S
C1270 C1269 1.372 . S
C1270 C1271 1.397 1_655 S
C1271 C1270 1.397 1_455 S
C1271 C1272 1.390 . S
C1271 C1287 1.476 . S
C1272 H1230 0.930 . S
C1272 C1271 1.390 . S
C1272 C1273 1.366 . S
C1273 H1231 0.932 . S
C1273 C1268 1.380 . S
C1273 C1272 1.366 . S
C1274 C1248 1.486 . S
C1274 C1275 1.380 1_455 S
C1274 C1279 1.386 . S
C1275 H1232 0.930 . S
C1275 C1274 1.380 1_655 S
C1275 C1276 1.381 . S
C1276 H1233 0.929 . S
C1276 C1275 1.381 . S
C1276 C1277 1.371 1_655 S
C1277 C1276 1.371 1_455 S
C1277 C1278 1.380 . S
C1278 H1234 0.931 . S
C1278 C1277 1.380 . S
C1278 C1279 1.387 . S
C1279 H1235 0.930 . S
C1279 C1274 1.386 . S
C1279 C1278 1.387 . S
C1280 C1249 1.521 1_455 S
C1280 C1281 1.377 1_455 S
C1280 C1285 1.361 . S
C1281 H1236 0.929 . S
C1281 C1280 1.377 1_655 S
C1281 C1282 1.386 . S
C1282 H1237 0.931 . S
C1282 C1281 1.386 . S
C1282 C1283 1.363 1_655 S
C1283 C1282 1.363 1_455 S
C1283 C1284 1.385 . S
C1284 H1238 0.930 . S
C1284 C1283 1.385 . S
C1284 C1285 1.396 . S
C1285 H1239 0.929 . S
C1285 C1280 1.361 . S
C1285 C1284 1.396 . S
C1286 O1240 1.300 . S
C1286 O1241 1.209 1_655 S
C1286 C1259 1.486 . S
C1287 O1242 1.199 1_455 S
C1287 O1243 1.297 . S
C1287 C1271 1.476 . S
H1288 O1314 0.856 . S
H1289 O1317 0.854 . S
H1290 C1325 0.930 . S
H1291 C1326 0.930 . S
H1292 C1328 0.930 . S
H1293 C1329 0.930 . S
H1294 C1331 0.931 . S
H1295 C1332 0.930 . S
H1296 C1334 0.930 . S
H1297 C1335 0.929 . S
H1298 C1337 0.930 . S
H1299 C1338 0.931 . S
H1300 C1340 0.930 . S
H1301 C1341 0.929 . S
H1302 C1343 0.931 . S
H1303 C1344 0.930 . S
H1304 C1346 0.930 . S
H1305 C1347 0.932 . S
H1306 C1349 0.930 . S
H1307 C1350 0.929 . S
H1308 C1352 0.931 . S
H1309 C1353 0.930 . S
H1310 C1355 0.929 . S
H1311 C1356 0.931 . S
H1312 C1358 0.930 . S
H1313 C1359 0.929 . S
O1314 H1288 0.856 . S
O1314 C1360 1.300 . S
O1315 C1360 1.209 . S
O1316 C1361 1.199 . S
O1317 H1289 0.854 . S
O1317 C1361 1.297 . S
C1318 C1319 1.404 . S
C1318 C1323 1.397 . S
C1318 C1324 1.492 . S
C1319 C1318 1.404 . S
C1319 C1320 1.396 . S
C1319 C1330 1.492 . S
C1320 C1319 1.396 . S
C1320 C1321 1.397 . S
C1320 C1336 1.509 . S
C1321 C1320 1.397 . S
C1321 C1322 1.412 . S
C1321 C1342 1.485 . S
C1322 C1321 1.412 . S
C1322 C1323 1.388 . S
C1322 C1348 1.490 . S
C1323 C1318 1.397 . S
C1323 C1322 1.388 . S
C1323 C1354 1.519 . S
C1324 C1318 1.492 . S
C1324 C1325 1.363 . S
C1324 C1329 1.390 . S
C1325 H1290 0.930 . S
C1325 C1324 1.363 . S
C1325 C1326 1.372 . S
C1326 H1291 0.930 . S
C1326 C1325 1.372 . S
C1326 C1327 1.383 . S
C1327 C1326 1.383 . S
C1327 C1328 1.395 . S
C1328 H1292 0.930 . S
C1328 C1327 1.395 . S
C1328 C1329 1.362 . S
C1329 H1293 0.930 . S
C1329 C1324 1.390 . S
C1329 C1328 1.362 . S
C1330 C1319 1.492 . S
C1330 C1331 1.377 . S
C1330 C1335 1.397 . S
C1331 H1294 0.931 . S
C1331 C1330 1.377 . S
C1331 C1332 1.376 . S
C1332 H1295 0.930 . S
C1332 C1331 1.376 . S
C1332 C1333 1.376 . S
C1333 C1332 1.376 . S
C1333 C1334 1.378 . S
C1333 C1360 1.486 . S
C1334 H1296 0.930 . S
C1334 C1333 1.378 . S
C1334 C1335 1.376 . S
C1335 H1297 0.929 . S
C1335 C1330 1.397 . S
C1335 C1334 1.376 . S
C1336 C1320 1.509 . S
C1336 C1337 1.391 . S
C1336 C1341 1.386 . S
C1337 H1298 0.930 . S
C1337 C1336 1.391 . S
C1337 C1338 1.375 . S
C1338 H1299 0.931 . S
C1338 C1337 1.375 . S
C1338 C1339 1.375 . S
C1339 C1338 1.375 . S
C1339 C1340 1.361 . S
C1340 H1300 0.930 . S
C1340 C1339 1.361 . S
C1340 C1341 1.399 . S
C1341 H1301 0.929 . S
C1341 C1336 1.386 . S
C1341 C1340 1.399 . S
C1342 C1321 1.485 . S
C1342 C1343 1.394 . S
C1342 C1347 1.360 . S
C1343 H1302 0.931 . S
C1343 C1342 1.394 . S
C1343 C1344 1.372 . S
C1344 H1303 0.930 . S
C1344 C1343 1.372 . S
C1344 C1345 1.397 . S
C1345 C1344 1.397 . S
C1345 C1346 1.390 . S
C1345 C1361 1.476 . S
C1346 H1304 0.930 . S
C1346 C1345 1.390 . S
C1346 C1347 1.366 . S
C1347 H1305 0.932 . S
C1347 C1342 1.360 . S
C1347 C1346 1.366 . S
C1348 C1322 1.490 . S
C1348 C1349 1.380 . S
C1348 C1353 1.386 . S
C1349 H1306 0.930 . S
C1349 C1348 1.380 . S
C1349 C1350 1.381 . S
C1350 H1307 0.929 . S
C1350 C1349 1.381 . S
C1350 C1351 1.371 . S
C1351 C1350 1.371 . S
C1351 C1352 1.380 . S
C1352 H1308 0.931 . S
C1352 C1351 1.380 . S
C1352 C1353 1.387 . S
C1353 H1309 0.930 . S
C1353 C1348 1.386 . S
C1353 C1352 1.387 . S
C1354 C1323 1.519 . S
C1354 C1355 1.377 . S
C1354 C1359 1.361 . S
C1355 H1310 0.929 . S
C1355 C1354 1.377 . S
C1355 C1356 1.386 . S
C1356 H1311 0.931 . S
C1356 C1355 1.386 . S
C1356 C1357 1.363 . S
C1357 C1356 1.363 . S
C1357 C1358 1.385 . S
C1358 H1312 0.930 . S
C1358 C1357 1.385 . S
C1358 C1359 1.396 . S
C1359 H1313 0.929 . S
C1359 C1354 1.361 . S
C1359 C1358 1.396 . S
C1360 O1314 1.300 . S
C1360 O1315 1.209 . S
C1360 C1333 1.486 . S
C1361 O1316 1.199 . S
C1361 O1317 1.297 . S
C1361 C1345 1.476 . S
H1362 O1388 0.856 . S
H1363 O1391 0.854 . S
H1364 C1399 0.930 . S
H1365 C1400 0.930 . S
H1366 C1402 0.930 . S
H1367 C1403 0.930 . S
H1368 C1405 0.931 . S
H1369 C1406 0.930 . S
H1370 C1408 0.930 . S
H1371 C1409 0.929 . S
H1372 C1411 0.930 . S
H1373 C1412 0.931 . S
H1374 C1414 0.930 . S
H1375 C1415 0.929 . S
H1376 C1417 0.931 . S
H1377 C1418 0.930 . S
H1378 C1420 0.930 . S
H1379 C1421 0.932 . S
H1380 C1423 0.930 . S
H1381 C1424 0.929 . S
H1382 C1426 0.931 . S
H1383 C1427 0.930 . S
H1384 C1429 0.929 . S
H1385 C1430 0.931 . S
H1386 C1432 0.930 . S
H1387 C1433 0.929 . S
O1388 H1362 0.856 . S
O1388 C1434 1.300 . S
O1389 C1434 1.209 . S
O1390 C1435 1.199 . S
O1391 H1363 0.854 . S
O1391 C1435 1.297 . S
C1392 C1393 1.404 . S
C1392 C1397 1.397 . S
C1392 C1398 1.492 . S
C1393 C1392 1.404 . S
C1393 C1394 1.396 . S
C1393 C1404 1.492 . S
C1394 C1393 1.396 . S
C1394 C1395 1.397 . S
C1394 C1410 1.509 . S
C1395 C1394 1.397 . S
C1395 C1396 1.412 . S
C1395 C1416 1.485 . S
C1396 C1395 1.412 . S
C1396 C1397 1.388 . S
C1396 C1422 1.490 . S
C1397 C1392 1.397 . S
C1397 C1396 1.388 . S
C1397 C1428 1.519 . S
C1398 C1392 1.492 . S
C1398 C1399 1.363 . S
C1398 C1403 1.390 . S
C1399 H1364 0.930 . S
C1399 C1398 1.363 . S
C1399 C1400 1.372 . S
C1400 H1365 0.930 . S
C1400 C1399 1.372 . S
C1400 C1401 1.383 . S
C1401 C1400 1.383 . S
C1401 C1402 1.395 . S
C1402 H1366 0.930 . S
C1402 C1401 1.395 . S
C1402 C1403 1.362 . S
C1403 H1367 0.930 . S
C1403 C1398 1.390 . S
C1403 C1402 1.362 . S
C1404 C1393 1.492 . S
C1404 C1405 1.377 . S
C1404 C1409 1.397 . S
C1405 H1368 0.931 . S
C1405 C1404 1.377 . S
C1405 C1406 1.376 . S
C1406 H1369 0.930 . S
C1406 C1405 1.376 . S
C1406 C1407 1.376 . S
C1407 C1406 1.376 . S
C1407 C1408 1.378 . S
C1407 C1434 1.486 . S
C1408 H1370 0.930 . S
C1408 C1407 1.378 . S
C1408 C1409 1.376 . S
C1409 H1371 0.929 . S
C1409 C1404 1.397 . S
C1409 C1408 1.376 . S
C1410 C1394 1.509 . S
C1410 C1411 1.391 . S
C1410 C1415 1.386 . S
C1411 H1372 0.930 . S
C1411 C1410 1.391 . S
C1411 C1412 1.375 . S
C1412 H1373 0.931 . S
C1412 C1411 1.375 . S
C1412 C1413 1.375 . S
C1413 C1412 1.375 . S
C1413 C1414 1.361 . S
C1414 H1374 0.930 . S
C1414 C1413 1.361 . S
C1414 C1415 1.399 . S
C1415 H1375 0.929 . S
C1415 C1410 1.386 . S
C1415 C1414 1.399 . S
C1416 C1395 1.485 . S
C1416 C1417 1.394 . S
C1416 C1421 1.360 . S
C1417 H1376 0.931 . S
C1417 C1416 1.394 . S
C1417 C1418 1.372 . S
C1418 H1377 0.930 . S
C1418 C1417 1.372 . S
C1418 C1419 1.397 . S
C1419 C1418 1.397 . S
C1419 C1420 1.390 . S
C1419 C1435 1.476 . S
C1420 H1378 0.930 . S
C1420 C1419 1.390 . S
C1420 C1421 1.366 . S
C1421 H1379 0.932 . S
C1421 C1416 1.360 . S
C1421 C1420 1.366 . S
C1422 C1396 1.490 . S
C1422 C1423 1.380 . S
C1422 C1427 1.386 . S
C1423 H1380 0.930 . S
C1423 C1422 1.380 . S
C1423 C1424 1.381 . S
C1424 H1381 0.929 . S
C1424 C1423 1.381 . S
C1424 C1425 1.371 . S
C1425 C1424 1.371 . S
C1425 C1426 1.380 . S
C1426 H1382 0.931 . S
C1426 C1425 1.380 . S
C1426 C1427 1.387 . S
C1427 H1383 0.930 . S
C1427 C1422 1.386 . S
C1427 C1426 1.387 . S
C1428 C1397 1.519 . S
C1428 C1429 1.377 . S
C1428 C1433 1.361 . S
C1429 H1384 0.929 . S
C1429 C1428 1.377 . S
C1429 C1430 1.386 . S
C1430 H1385 0.931 . S
C1430 C1429 1.386 . S
C1430 C1431 1.363 . S
C1431 C1430 1.363 . S
C1431 C1432 1.385 . S
C1432 H1386 0.930 . S
C1432 C1431 1.385 . S
C1432 C1433 1.396 . S
C1433 H1387 0.929 . S
C1433 C1428 1.361 . S
C1433 C1432 1.396 . S
C1434 O1388 1.300 . S
C1434 O1389 1.209 . S
C1434 C1407 1.486 . S
C1435 O1390 1.199 . S
C1435 O1391 1.297 . S
C1435 C1419 1.476 . S
H1436 O1462 0.856 . S
H1437 O1465 0.854 . S
H1438 C1473 0.930 . S
H1439 C1474 0.930 . S
H1440 C1476 0.930 . S
H1441 C1477 0.930 . S
H1442 C1479 0.931 . S
H1443 C1480 0.930 . S
H1444 C1482 0.930 . S
H1445 C1483 0.929 . S
H1446 C1485 0.930 . S
H1447 C1486 0.931 . S
H1448 C1488 0.930 . S
H1449 C1489 0.929 . S
H1450 C1491 0.931 . S
H1451 C1492 0.930 . S
H1452 C1494 0.930 . S
H1453 C1495 0.932 . S
H1454 C1497 0.930 . S
H1455 C1498 0.929 . S
H1456 C1500 0.931 . S
H1457 C1501 0.930 . S
H1458 C1503 0.929 . S
H1459 C1504 0.931 . S
H1460 C1506 0.930 . S
H1461 C1507 0.929 . S
O1462 H1436 0.856 . S
O1462 C1508 1.300 . S
O1463 C1508 1.209 . S
O1464 C1509 1.199 . S
O1465 H1437 0.854 . S
O1465 C1509 1.297 . S
C1466 C1467 1.404 . S
C1466 C1471 1.397 . S
C1466 C1472 1.492 . S
C1467 C1466 1.404 . S
C1467 C1468 1.396 . S
C1467 C1478 1.492 . S
C1468 C1467 1.396 . S
C1468 C1469 1.397 . S
C1468 C1484 1.509 . S
C1469 C1468 1.397 . S
C1469 C1470 1.412 . S
C1469 C1490 1.485 . S
C1470 C1469 1.412 . S
C1470 C1471 1.388 . S
C1470 C1496 1.490 . S
C1471 C1466 1.397 . S
C1471 C1470 1.388 . S
C1471 C1502 1.519 . S
C1472 C1466 1.492 . S
C1472 C1473 1.363 . S
C1472 C1477 1.390 . S
C1473 H1438 0.930 . S
C1473 C1472 1.363 . S
C1473 C1474 1.372 . S
C1474 H1439 0.930 . S
C1474 C1473 1.372 . S
C1474 C1475 1.383 . S
C1475 C1474 1.383 . S
C1475 C1476 1.395 . S
C1476 H1440 0.930 . S
C1476 C1475 1.395 . S
C1476 C1477 1.362 . S
C1477 H1441 0.930 . S
C1477 C1472 1.390 . S
C1477 C1476 1.362 . S
C1478 C1467 1.492 . S
C1478 C1479 1.377 . S
C1478 C1483 1.397 . S
C1479 H1442 0.931 . S
C1479 C1478 1.377 . S
C1479 C1480 1.376 . S
C1480 H1443 0.930 . S
C1480 C1479 1.376 . S
C1480 C1481 1.376 . S
C1481 C1480 1.376 . S
C1481 C1482 1.378 . S
C1481 C1508 1.486 . S
C1482 H1444 0.930 . S
C1482 C1481 1.378 . S
C1482 C1483 1.376 . S
C1483 H1445 0.929 . S
C1483 C1478 1.397 . S
C1483 C1482 1.376 . S
C1484 C1468 1.509 . S
C1484 C1485 1.391 . S
C1484 C1489 1.386 . S
C1485 H1446 0.930 . S
C1485 C1484 1.391 . S
C1485 C1486 1.375 . S
C1486 H1447 0.931 . S
C1486 C1485 1.375 . S
C1486 C1487 1.375 . S
C1487 C1486 1.375 . S
C1487 C1488 1.361 . S
C1488 H1448 0.930 . S
C1488 C1487 1.361 . S
C1488 C1489 1.399 . S
C1489 H1449 0.929 . S
C1489 C1484 1.386 . S
C1489 C1488 1.399 . S
C1490 C1469 1.485 . S
C1490 C1491 1.394 . S
C1490 C1495 1.360 . S
C1491 H1450 0.931 . S
C1491 C1490 1.394 . S
C1491 C1492 1.372 . S
C1492 H1451 0.930 . S
C1492 C1491 1.372 . S
C1492 C1493 1.397 . S
C1493 C1492 1.397 . S
C1493 C1494 1.390 . S
C1493 C1509 1.476 . S
C1494 H1452 0.930 . S
C1494 C1493 1.390 . S
C1494 C1495 1.366 . S
C1495 H1453 0.932 . S
C1495 C1490 1.360 . S
C1495 C1494 1.366 . S
C1496 C1470 1.490 . S
C1496 C1497 1.380 . S
C1496 C1501 1.386 . S
C1497 H1454 0.930 . S
C1497 C1496 1.380 . S
C1497 C1498 1.381 . S
C1498 H1455 0.929 . S
C1498 C1497 1.381 . S
C1498 C1499 1.371 . S
C1499 C1498 1.371 . S
C1499 C1500 1.380 . S
C1500 H1456 0.931 . S
C1500 C1499 1.380 . S
C1500 C1501 1.387 . S
C1501 H1457 0.930 . S
C1501 C1496 1.386 . S
C1501 C1500 1.387 . S
C1502 C1471 1.519 . S
C1502 C1503 1.377 . S
C1502 C1507 1.361 . S
C1503 H1458 0.929 . S
C1503 C1502 1.377 . S
C1503 C1504 1.386 . S
C1504 H1459 0.931 . S
C1504 C1503 1.386 . S
C1504 C1505 1.363 . S
C1505 C1504 1.363 . S
C1505 C1506 1.385 . S
C1506 H1460 0.930 . S
C1506 C1505 1.385 . S
C1506 C1507 1.396 . S
C1507 H1461 0.929 . S
C1507 C1502 1.361 . S
C1507 C1506 1.396 . S
C1508 O1462 1.300 . S
C1508 O1463 1.209 . S
C1508 C1481 1.486 . S
C1509 O1464 1.199 . S
C1509 O1465 1.297 . S
C1509 C1493 1.476 . S
H1510 O1536 0.856 . S
H1511 O1539 0.854 . S
H1512 C1547 0.930 . S
H1513 C1548 0.930 . S
H1514 C1550 0.930 . S
H1515 C1551 0.930 . S
H1516 C1553 0.931 . S
H1517 C1554 0.930 . S
H1518 C1556 0.930 . S
H1519 C1557 0.929 . S
H1520 C1559 0.930 . S
H1521 C1560 0.931 . S
H1522 C1562 0.930 . S
H1523 C1563 0.929 . S
H1524 C1565 0.931 . S
H1525 C1566 0.930 . S
H1526 C1568 0.930 . S
H1527 C1569 0.932 . S
H1528 C1571 0.930 . S
H1529 C1572 0.929 . S
H1530 C1574 0.931 . S
H1531 C1575 0.930 . S
H1532 C1577 0.929 . S
H1533 C1578 0.931 . S
H1534 C1580 0.930 . S
H1535 C1581 0.929 . S
O1536 H1510 0.856 . S
O1536 C1582 1.300 . S
O1537 C1582 1.209 . S
O1538 C1583 1.199 . S
O1539 H1511 0.854 . S
O1539 C1583 1.297 . S
C1540 C1541 1.404 . S
C1540 C1545 1.397 . S
C1540 C1546 1.492 . S
C1541 C1540 1.404 . S
C1541 C1542 1.396 . S
C1541 C1552 1.492 . S
C1542 C1541 1.396 . S
C1542 C1543 1.397 . S
C1542 C1558 1.509 . S
C1543 C1542 1.397 . S
C1543 C1544 1.412 . S
C1543 C1564 1.485 . S
C1544 C1543 1.412 . S
C1544 C1545 1.388 . S
C1544 C1570 1.490 . S
C1545 C1540 1.397 . S
C1545 C1544 1.388 . S
C1545 C1576 1.519 . S
C1546 C1540 1.492 . S
C1546 C1547 1.363 . S
C1546 C1551 1.390 . S
C1547 H1512 0.930 . S
C1547 C1546 1.363 . S
C1547 C1548 1.372 . S
C1548 H1513 0.930 . S
C1548 C1547 1.372 . S
C1548 C1549 1.383 . S
C1549 C1548 1.383 . S
C1549 C1550 1.395 . S
C1550 H1514 0.930 . S
C1550 C1549 1.395 . S
C1550 C1551 1.362 . S
C1551 H1515 0.930 . S
C1551 C1546 1.390 . S
C1551 C1550 1.362 . S
C1552 C1541 1.492 . S
C1552 C1553 1.377 . S
C1552 C1557 1.397 . S
C1553 H1516 0.931 . S
C1553 C1552 1.377 . S
C1553 C1554 1.376 . S
C1554 H1517 0.930 . S
C1554 C1553 1.376 . S
C1554 C1555 1.376 . S
C1555 C1554 1.376 . S
C1555 C1556 1.378 . S
C1555 C1582 1.486 . S
C1556 H1518 0.930 . S
C1556 C1555 1.378 . S
C1556 C1557 1.376 . S
C1557 H1519 0.929 . S
C1557 C1552 1.397 . S
C1557 C1556 1.376 . S
C1558 C1542 1.509 . S
C1558 C1559 1.391 . S
C1558 C1563 1.386 . S
C1559 H1520 0.930 . S
C1559 C1558 1.391 . S
C1559 C1560 1.375 . S
C1560 H1521 0.931 . S
C1560 C1559 1.375 . S
C1560 C1561 1.375 . S
C1561 C1560 1.375 . S
C1561 C1562 1.361 . S
C1562 H1522 0.930 . S
C1562 C1561 1.361 . S
C1562 C1563 1.399 . S
C1563 H1523 0.929 . S
C1563 C1558 1.386 . S
C1563 C1562 1.399 . S
C1564 C1543 1.485 . S
C1564 C1565 1.394 . S
C1564 C1569 1.360 . S
C1565 H1524 0.931 . S
C1565 C1564 1.394 . S
C1565 C1566 1.372 . S
C1566 H1525 0.930 . S
C1566 C1565 1.372 . S
C1566 C1567 1.397 . S
C1567 C1566 1.397 . S
C1567 C1568 1.390 . S
C1567 C1583 1.476 . S
C1568 H1526 0.930 . S
C1568 C1567 1.390 . S
C1568 C1569 1.366 . S
C1569 H1527 0.932 . S
C1569 C1564 1.360 . S
C1569 C1568 1.366 . S
C1570 C1544 1.490 . S
C1570 C1571 1.380 . S
C1570 C1575 1.386 . S
C1571 H1528 0.930 . S
C1571 C1570 1.380 . S
C1571 C1572 1.381 . S
C1572 H1529 0.929 . S
C1572 C1571 1.381 . S
C1572 C1573 1.371 . S
C1573 C1572 1.371 . S
C1573 C1574 1.380 . S
C1574 H1530 0.931 . S
C1574 C1573 1.380 . S
C1574 C1575 1.387 . S
C1575 H1531 0.930 . S
C1575 C1570 1.386 . S
C1575 C1574 1.387 . S
C1576 C1545 1.519 . S
C1576 C1577 1.377 . S
C1576 C1581 1.361 . S
C1577 H1532 0.929 . S
C1577 C1576 1.377 . S
C1577 C1578 1.386 . S
C1578 H1533 0.931 . S
C1578 C1577 1.386 . S
C1578 C1579 1.363 . S
C1579 C1578 1.363 . S
C1579 C1580 1.385 . S
C1580 H1534 0.930 . S
C1580 C1579 1.385 . S
C1580 C1581 1.396 . S
C1581 H1535 0.929 . S
C1581 C1576 1.361 . S
C1581 C1580 1.396 . S
C1582 O1536 1.300 . S
C1582 O1537 1.209 . S
C1582 C1555 1.486 . S
C1583 O1538 1.199 . S
C1583 O1539 1.297 . S
C1583 C1567 1.476 . S
C1584 C1585 1.369 . S
C1584 C1586 1.419 . S
C1584 H1588 0.930 . S
C1585 C1584 1.369 . S
C1585 C1594 1.429 . S
C1586 C1584 1.419 . S
C1586 C1587 1.363 . S
C1586 H1589 0.929 . S
C1587 C1586 1.363 . S
C1587 C1593 1.428 . S
H1588 C1584 0.930 . S
H1589 C1586 0.929 . S
S1590 N1591 1.613 . S
S1590 N1592 1.610 1_455 S
N1591 S1590 1.613 . S
N1591 C1594 1.350 1_455 S
N1592 S1590 1.610 1_655 S
N1592 C1593 1.351 . S
C1593 C1587 1.428 . S
C1593 N1592 1.351 . S
C1593 C1594 1.434 . S
C1594 C1585 1.429 . S
C1594 N1591 1.350 1_655 S
C1594 C1593 1.434 . S
C1595 C1596 1.369 . S
C1595 C1597 1.419 . S
C1595 H1599 0.930 . S
C1596 C1595 1.369 . S
C1596 C1605 1.429 . S
C1597 C1595 1.419 . S
C1597 C1598 1.363 . S
C1597 H1600 0.929 . S
C1598 C1597 1.363 . S
C1598 C1604 1.428 . S
H1599 C1595 0.930 . S
H1600 C1597 0.929 . S
S1601 N1602 1.613 . S
S1601 N1603 1.610 . S
N1602 S1601 1.613 . S
N1602 C1605 1.350 . S
N1603 S1601 1.610 . S
N1603 C1604 1.351 . S
C1604 C1598 1.428 . S
C1604 N1603 1.351 . S
C1604 C1605 1.434 . S
C1605 C1596 1.429 . S
C1605 N1602 1.350 . S
C1605 C1604 1.434 . S
C1606 C1607 1.369 . S
C1606 C1608 1.419 . S
C1606 H1610 0.930 . S
C1607 C1606 1.369 . S
C1607 C1616 1.429 . S
C1608 C1606 1.419 . S
C1608 C1609 1.363 . S
C1608 H1611 0.929 . S
C1609 C1608 1.363 . S
C1609 C1615 1.428 . S
H1610 C1606 0.930 . S
H1611 C1608 0.929 . S
S1612 N1613 1.613 . S
S1612 N1614 1.610 . S
N1613 S1612 1.613 . S
N1613 C1616 1.350 . S
N1614 S1612 1.610 . S
N1614 C1615 1.351 . S
C1615 C1609 1.428 . S
C1615 N1614 1.351 . S
C1615 C1616 1.434 . S
C1616 C1607 1.429 . S
C1616 N1613 1.350 . S
C1616 C1615 1.434 . S
C1617 C1618 1.369 . S
C1617 C1619 1.419 . S
C1617 H1621 0.930 . S
C1618 C1617 1.369 . S
C1618 C1627 1.429 1_565 S
C1619 C1617 1.419 . S
C1619 C1620 1.363 . S
C1619 H1622 0.929 . S
C1620 C1619 1.363 . S
C1620 C1626 1.428 1_565 S
H1621 C1617 0.930 . S
H1622 C1619 0.929 . S
S1623 N1624 1.613 . S
S1623 N1625 1.610 . S
N1624 S1623 1.613 . S
N1624 C1627 1.350 . S
N1625 S1623 1.610 . S
N1625 C1626 1.351 . S
C1626 C1620 1.428 1_545 S
C1626 N1625 1.351 . S
C1626 C1627 1.434 . S
C1627 C1618 1.429 1_545 S
C1627 N1624 1.350 . S
C1627 C1626 1.434 . S
C1628 C1629 1.369 1_655 S
C1628 C1630 1.419 . S
C1628 H1632 0.930 . S
C1629 C1628 1.369 1_455 S
C1629 C1638 1.429 . S
C1630 C1628 1.419 . S
C1630 C1631 1.363 1_655 S
C1630 H1633 0.929 . S
C1631 C1630 1.363 1_455 S
C1631 C1637 1.428 . S
H1632 C1628 0.930 . S
H1633 C1630 0.929 . S
S1634 N1635 1.613 . S
S1634 N1636 1.610 . S
N1635 S1634 1.613 . S
N1635 C1638 1.350 . S
N1636 S1634 1.610 . S
N1636 C1637 1.351 . S
C1637 C1631 1.428 . S
C1637 N1636 1.351 . S
C1637 C1638 1.434 . S
C1638 C1629 1.429 . S
C1638 N1635 1.350 . S
C1638 C1637 1.434 . S
C1639 C1640 1.369 1_556 S
C1639 C1641 1.419 . S
C1639 H1643 0.930 . S
C1640 C1639 1.369 1_554 S
C1640 C1649 1.429 . S
C1641 C1639 1.419 . S
C1641 C1642 1.363 . S
C1641 H1644 0.929 . S
C1642 C1641 1.363 . S
C1642 C1648 1.428 . S
H1643 C1639 0.930 . S
H1644 C1641 0.929 . S
S1645 N1646 1.613 . S
S1645 N1647 1.610 1_554 S
N1646 S1645 1.613 . S
N1646 C1649 1.350 . S
N1647 S1645 1.610 1_556 S
N1647 C1648 1.351 . S
C1648 C1642 1.428 . S
C1648 N1647 1.351 . S
C1648 C1649 1.434 1_556 S
C1649 C1640 1.429 . S
C1649 N1646 1.350 . S
C1649 C1648 1.434 1_554 S
C1650 C1651 1.374 . S
C1650 C1652 1.431 . S
C1650 H1654 0.913 1_556 S
C1651 C1650 1.374 . S
C1651 C1660 1.429 1_455 S
C1652 C1650 1.431 . S
C1652 C1653 1.363 . S
C1652 H1655 0.929 . S
C1653 C1652 1.363 . S
C1653 C1659 1.428 1_455 S
H1654 C1650 0.913 1_554 S
H1655 C1652 0.929 . S
S1656 N1657 1.613 . S
S1656 N1658 1.610 . S
N1657 S1656 1.613 . S
N1657 C1660 1.350 . S
N1658 S1656 1.610 . S
N1658 C1659 1.351 . S
C1659 C1653 1.428 1_655 S
C1659 N1658 1.351 . S
C1659 C1660 1.434 . S
C1660 C1651 1.429 1_655 S
C1660 N1657 1.350 . S
C1660 C1659 1.434 . S
C1661 C1662 1.369 . S
C1661 C1663 1.419 . S
C1661 H1665 0.930 . S
C1662 C1661 1.369 . S
C1662 C1671 1.429 . S
C1663 C1661 1.419 . S
C1663 C1664 1.363 . S
C1663 H1666 0.929 . S
C1664 C1663 1.363 . S
C1664 C1670 1.428 . S
H1665 C1661 0.930 . S
H1666 C1663 0.929 . S
S1667 N1668 1.613 . S
S1667 N1669 1.610 . S
N1668 S1667 1.613 . S
N1668 C1671 1.350 . S
N1669 S1667 1.610 . S
N1669 C1670 1.351 . S
C1670 C1664 1.428 . S
C1670 N1669 1.351 . S
C1670 C1671 1.434 . S
C1671 C1662 1.429 . S
C1671 N1668 1.350 . S
C1671 C1670 1.434 . S
C1672 C1673 1.369 1_545 S
C1672 C1674 1.419 . S
C1672 H1676 0.930 1_556 S
C1673 C1672 1.369 1_565 S
C1673 C1682 1.429 . S
C1674 C1672 1.419 . S
C1674 C1675 1.352 1_545 S
C1674 H1677 0.929 . S
C1675 C1674 1.352 1_565 S
C1675 C1681 1.461 . S
H1676 C1672 0.930 1_554 S
H1677 C1674 0.929 . S
S1678 N1679 1.613 . S
S1678 N1680 1.610 . S
N1679 S1678 1.613 . S
N1679 C1682 1.350 . S
N1680 S1678 1.610 . S
N1680 C1681 1.351 . S
C1681 C1675 1.461 . S
C1681 N1680 1.351 . S
C1681 C1682 1.434 . S
C1682 C1673 1.429 . S
C1682 N1679 1.350 . S
C1682 C1681 1.434 . S
C1683 C1684 1.369 1_565 S
C1683 C1685 1.419 . S
C1683 H1687 0.930 . S
C1684 C1683 1.369 1_545 S
C1684 C1693 1.429 . S
C1685 C1683 1.419 . S
C1685 C1686 1.363 1_565 S
C1685 H1688 0.929 . S
C1686 C1685 1.363 1_545 S
C1686 C1692 1.428 . S
H1687 C1683 0.930 . S
H1688 C1685 0.929 . S
S1689 N1690 1.613 . S
S1689 N1691 1.610 . S
N1690 S1689 1.613 . S
N1690 C1693 1.350 . S
N1691 S1689 1.610 . S
N1691 C1692 1.351 . S
C1692 C1686 1.428 . S
C1692 N1691 1.351 . S
C1692 C1693 1.434 . S
C1693 C1684 1.429 . S
C1693 N1690 1.350 . S
C1693 C1692 1.434 . S
C1694 C1695 1.369 . S
C1694 C1696 1.419 . S
C1694 H1698 0.930 . S
C1695 C1694 1.369 . S
C1695 C1704 1.429 1_655 S
C1696 C1694 1.419 . S
C1696 C1697 1.363 . S
C1696 H1699 0.929 . S
C1697 C1696 1.363 . S
C1697 C1703 1.428 1_655 S
H1698 C1694 0.930 . S
H1699 C1696 0.929 . S
S1700 N1701 1.613 . S
S1700 N1702 1.610 . S
N1701 S1700 1.613 . S
N1701 C1704 1.350 . S
N1702 S1700 1.610 . S
N1702 C1703 1.351 . S
C1703 C1697 1.428 1_455 S
C1703 N1702 1.351 . S
C1703 C1704 1.434 . S
C1704 C1695 1.429 1_455 S
C1704 N1701 1.350 . S
C1704 C1703 1.434 . S
C1705 C1706 1.369 . S
C1705 C1707 1.419 . S
C1705 H1709 0.930 . S
C1706 C1705 1.369 . S
C1706 C1715 1.429 . S
C1707 C1705 1.419 . S
C1707 C1708 1.363 . S
C1707 H1710 0.929 . S
C1708 C1707 1.363 . S
C1708 C1714 1.428 . S
H1709 C1705 0.930 . S
H1710 C1707 0.929 . S
S1711 N1712 1.613 . S
S1711 N1713 1.610 . S
N1712 S1711 1.613 . S
N1712 C1715 1.350 . S
N1713 S1711 1.610 . S
N1713 C1714 1.351 . S
C1714 C1708 1.428 . S
C1714 N1713 1.351 . S
C1714 C1715 1.434 . S
C1715 C1706 1.429 . S
C1715 N1712 1.350 . S
C1715 C1714 1.434 . S
C1716 C1717 1.369 . S
C1716 C1718 1.419 . S
C1716 H1720 0.930 . S
C1717 C1716 1.369 . S
C1717 C1726 1.429 . S
C1718 C1716 1.419 . S
C1718 C1719 1.363 . S
C1718 H1721 0.929 . S
C1719 C1718 1.363 . S
C1719 C1725 1.428 . S
H1720 C1716 0.930 . S
H1721 C1718 0.929 . S
S1722 N1723 1.613 . S
S1722 N1724 1.610 . S
N1723 S1722 1.613 . S
N1723 C1726 1.350 . S
N1724 S1722 1.610 . S
N1724 C1725 1.351 . S
C1725 C1719 1.428 . S
C1725 N1724 1.351 . S
C1725 C1726 1.434 . S
C1726 C1717 1.429 . S
C1726 N1723 1.350 . S
C1726 C1725 1.434 . S
C1727 C1728 1.369 . S
C1727 C1729 1.419 . S
C1727 H1731 0.930 . S
C1728 C1727 1.369 . S
C1728 C1737 1.429 . S
C1729 C1727 1.419 . S
C1729 C1730 1.363 . S
C1729 H1732 0.929 . S
C1730 C1729 1.363 . S
C1730 C1736 1.428 . S
H1731 C1727 0.930 . S
H1732 C1729 0.929 . S
S1733 N1734 1.613 . S
S1733 N1735 1.610 . S
N1734 S1733 1.613 . S
N1734 C1737 1.350 . S
N1735 S1733 1.610 . S
N1735 C1736 1.351 . S
C1736 C1730 1.428 . S
C1736 N1735 1.351 . S
C1736 C1737 1.434 . S
C1737 C1728 1.429 . S
C1737 N1734 1.350 . S
C1737 C1736 1.434 . S
C1738 C1739 1.369 . S
C1738 C1740 1.419 . S
C1738 H1742 0.930 . S
C1739 C1738 1.369 . S
C1739 C1748 1.429 . S
C1740 C1738 1.419 . S
C1740 C1741 1.363 . S
C1740 H1743 0.929 . S
C1741 C1740 1.363 . S
C1741 C1747 1.428 . S
H1742 C1738 0.930 . S
H1743 C1740 0.929 . S
S1744 N1745 1.613 . S
S1744 N1746 1.610 . S
N1745 S1744 1.613 . S
N1745 C1748 1.350 . S
N1746 S1744 1.610 . S
N1746 C1747 1.351 . S
C1747 C1741 1.428 . S
C1747 N1746 1.351 . S
C1747 C1748 1.434 . S
C1748 C1739 1.429 . S
C1748 N1745 1.350 . S
C1748 C1747 1.434 . S
C1749 C1750 1.369 . S
C1749 C1751 1.419 . S
C1749 H1753 0.930 . S
C1750 C1749 1.369 . S
C1750 C1759 1.429 . S
C1751 C1749 1.419 . S
C1751 C1752 1.363 . S
C1751 H1754 0.929 . S
C1752 C1751 1.363 . S
C1752 C1758 1.428 . S
H1753 C1749 0.930 . S
H1754 C1751 0.929 . S
S1755 N1756 1.613 . S
S1755 N1757 1.610 . S
N1756 S1755 1.613 . S
N1756 C1759 1.350 . S
N1757 S1755 1.610 . S
N1757 C1758 1.351 . S
C1758 C1752 1.428 . S
C1758 N1757 1.351 . S
C1758 C1759 1.434 . S
C1759 C1750 1.429 . S
C1759 N1756 1.350 . S
C1759 C1758 1.434 . S
C1760 C1761 1.369 . S
C1760 C1762 1.419 . S
C1760 H1764 0.930 . S
C1761 C1760 1.369 . S
C1761 C1770 1.429 . S
C1762 C1760 1.419 . S
C1762 C1763 1.363 . S
C1762 H1765 0.929 . S
C1763 C1762 1.363 . S
C1763 C1769 1.428 . S
H1764 C1760 0.930 . S
H1765 C1762 0.929 . S
S1766 N1767 1.613 . S
S1766 N1768 1.610 . S
N1767 S1766 1.613 . S
N1767 C1770 1.350 . S
N1768 S1766 1.610 . S
N1768 C1769 1.351 . S
C1769 C1763 1.428 . S
C1769 N1768 1.351 . S
C1769 C1770 1.434 . S
C1770 C1761 1.429 . S
C1770 N1767 1.350 . S
C1770 C1769 1.434 . S
C1771 C1772 1.369 . S
C1771 C1773 1.419 . S
C1771 H1775 0.930 . S
C1772 C1771 1.369 . S
C1772 C1781 1.429 . S
C1773 C1771 1.419 . S
C1773 C1774 1.363 . S
C1773 H1776 0.929 . S
C1774 C1773 1.363 . S
C1774 C1780 1.428 . S
H1775 C1771 0.930 . S
H1776 C1773 0.929 . S
S1777 N1778 1.613 . S
S1777 N1779 1.610 . S
N1778 S1777 1.613 . S
N1778 C1781 1.350 . S
N1779 S1777 1.610 . S
N1779 C1780 1.351 . S
C1780 C1774 1.428 . S
C1780 N1779 1.351 . S
C1780 C1781 1.434 . S
C1781 C1772 1.429 . S
C1781 N1778 1.350 . S
C1781 C1780 1.434 . S
C1782 C1783 1.369 . S
C1782 C1784 1.419 . S
C1782 H1786 0.930 . S
C1783 C1782 1.369 . S
C1783 C1792 1.429 . S
C1784 C1782 1.419 . S
C1784 C1785 1.363 . S
C1784 H1787 0.929 . S
C1785 C1784 1.363 . S
C1785 C1791 1.428 . S
H1786 C1782 0.930 . S
H1787 C1784 0.929 . S
S1788 N1789 1.613 . S
S1788 N1790 1.610 . S
N1789 S1788 1.613 . S
N1789 C1792 1.350 . S
N1790 S1788 1.610 . S
N1790 C1791 1.351 . S
C1791 C1785 1.428 . S
C1791 N1790 1.351 . S
C1791 C1792 1.434 . S
C1792 C1783 1.429 . S
C1792 N1789 1.350 . S
C1792 C1791 1.434 . S
C1793 C1794 1.369 . S
C1793 C1795 1.419 . S
C1793 H1797 0.930 . S
C1794 C1793 1.369 . S
C1794 C1803 1.429 . S
C1795 C1793 1.419 . S
C1795 C1796 1.363 . S
C1795 H1798 0.929 . S
C1796 C1795 1.363 . S
C1796 C1802 1.428 . S
H1797 C1793 0.930 . S
H1798 C1795 0.929 . S
S1799 N1800 1.613 . S
S1799 N1801 1.610 . S
N1800 S1799 1.613 . S
N1800 C1803 1.350 . S
N1801 S1799 1.610 . S
N1801 C1802 1.351 . S
C1802 C1796 1.428 . S
C1802 N1801 1.351 . S
C1802 C1803 1.434 . S
C1803 C1794 1.429 . S
C1803 N1800 1.350 . S
C1803 C1802 1.434 . S
C1804 C1805 1.369 . S
C1804 C1806 1.419 . S
C1804 H1808 0.930 . S
C1805 C1804 1.369 . S
C1805 C1814 1.429 . S
C1806 C1804 1.419 . S
C1806 C1807 1.363 . S
C1806 H1809 0.929 . S
C1807 C1806 1.363 . S
C1807 C1813 1.428 . S
H1808 C1804 0.930 . S
H1809 C1806 0.929 . S
S1810 N1811 1.613 . S
S1810 N1812 1.610 . S
N1811 S1810 1.613 . S
N1811 C1814 1.350 . S
N1812 S1810 1.610 . S
N1812 C1813 1.351 . S
C1813 C1807 1.428 . S
C1813 N1812 1.351 . S
C1813 C1814 1.434 . S
C1814 C1805 1.429 . S
C1814 N1811 1.350 . S
C1814 C1813 1.434 . S
C1815 C1816 1.369 . S
C1815 C1817 1.419 . S
C1815 H1819 0.930 . S
C1816 C1815 1.369 . S
C1816 C1825 1.429 . S
C1817 C1815 1.419 . S
C1817 C1818 1.363 . S
C1817 H1820 0.929 . S
C1818 C1817 1.363 . S
C1818 C1824 1.428 . S
H1819 C1815 0.930 . S
H1820 C1817 0.929 . S
S1821 N1822 1.613 . S
S1821 N1823 1.610 . S
N1822 S1821 1.613 . S
N1822 C1825 1.350 . S
N1823 S1821 1.610 . S
N1823 C1824 1.351 . S
C1824 C1818 1.428 . S
C1824 N1823 1.351 . S
C1824 C1825 1.434 . S
C1825 C1816 1.429 . S
C1825 N1822 1.350 . S
C1825 C1824 1.434 . S
C1826 C1827 1.369 . S
C1826 C1828 1.419 . S
C1826 H1830 0.930 . S
C1827 C1826 1.369 . S
C1827 C1836 1.429 . S
C1828 C1826 1.419 . S
C1828 C1829 1.363 . S
C1828 H1831 0.929 . S
C1829 C1828 1.363 . S
C1829 C1835 1.428 . S
H1830 C1826 0.930 . S
H1831 C1828 0.929 . S
S1832 N1833 1.613 . S
S1832 N1834 1.610 . S
N1833 S1832 1.613 . S
N1833 C1836 1.350 . S
N1834 S1832 1.610 . S
N1834 C1835 1.351 . S
C1835 C1829 1.428 . S
C1835 N1834 1.351 . S
C1835 C1836 1.434 . S
C1836 C1827 1.429 . S
C1836 N1833 1.350 . S
C1836 C1835 1.434 . S
C1837 C1838 1.369 . S
C1837 C1839 1.419 . S
C1837 H1841 0.930 . S
C1838 C1837 1.369 . S
C1838 C1847 1.429 . S
C1839 C1837 1.419 . S
C1839 C1840 1.363 . S
C1839 H1842 0.929 . S
C1840 C1839 1.363 . S
C1840 C1846 1.428 . S
H1841 C1837 0.930 . S
H1842 C1839 0.929 . S
S1843 N1844 1.613 . S
S1843 N1845 1.610 . S
N1844 S1843 1.613 . S
N1844 C1847 1.350 . S
N1845 S1843 1.610 . S
N1845 C1846 1.351 . S
C1846 C1840 1.428 . S
C1846 N1845 1.351 . S
C1846 C1847 1.434 . S
C1847 C1838 1.429 . S
C1847 N1844 1.350 . S
C1847 C1846 1.434 . S
C1848 C1849 1.369 . S
C1848 C1850 1.419 . S
C1848 H1852 0.930 . S
C1849 C1848 1.369 . S
C1849 C1858 1.429 . S
C1850 C1848 1.419 . S
C1850 C1851 1.363 . S
C1850 H1853 0.929 . S
C1851 C1850 1.363 . S
C1851 C1857 1.428 . S
H1852 C1848 0.930 . S
H1853 C1850 0.929 . S
S1854 N1855 1.613 . S
S1854 N1856 1.610 . S
N1855 S1854 1.613 . S
N1855 C1858 1.350 . S
N1856 S1854 1.610 . S
N1856 C1857 1.351 . S
C1857 C1851 1.428 . S
C1857 N1856 1.351 . S
C1857 C1858 1.434 . S
C1858 C1849 1.429 . S
C1858 N1855 1.350 . S
C1858 C1857 1.434 . S
C1859 C1860 1.369 . S
C1859 C1861 1.419 . S
C1859 H1863 0.930 . S
C1860 C1859 1.369 . S
C1860 C1869 1.429 . S
C1861 C1859 1.419 . S
C1861 C1862 1.363 . S
C1861 H1864 0.929 . S
C1862 C1861 1.363 . S
C1862 C1868 1.428 . S
H1863 C1859 0.930 . S
H1864 C1861 0.929 . S
S1865 N1866 1.613 . S
S1865 N1867 1.610 . S
N1866 S1865 1.613 . S
N1866 C1869 1.350 . S
N1867 S1865 1.610 . S
N1867 C1868 1.351 . S
C1868 C1862 1.428 . S
C1868 N1867 1.351 . S
C1868 C1869 1.434 . S
C1869 C1860 1.429 . S
C1869 N1866 1.350 . S
C1869 C1868 1.434 . S
C1870 C1871 1.369 . S
C1870 C1872 1.419 . S
C1870 H1874 0.930 . S
C1871 C1870 1.369 . S
C1871 C1880 1.429 . S
C1872 C1870 1.419 . S
C1872 C1873 1.363 . S
C1872 H1875 0.929 . S
C1873 C1872 1.363 . S
C1873 C1879 1.428 . S
H1874 C1870 0.930 . S
H1875 C1872 0.929 . S
S1876 N1877 1.613 . S
S1876 N1878 1.610 . S
N1877 S1876 1.613 . S
N1877 C1880 1.350 . S
N1878 S1876 1.610 . S
N1878 C1879 1.351 . S
C1879 C1873 1.428 . S
C1879 N1878 1.351 . S
C1879 C1880 1.434 . S
C1880 C1871 1.429 . S
C1880 N1877 1.350 . S
C1880 C1879 1.434 . S
C1881 C1882 1.369 . S
C1881 C1883 1.419 . S
C1881 H1885 0.930 . S
C1882 C1881 1.369 . S
C1882 C1891 1.429 . S
C1883 C1881 1.419 . S
C1883 C1884 1.363 . S
C1883 H1886 0.929 . S
C1884 C1883 1.363 . S
C1884 C1890 1.428 . S
H1885 C1881 0.930 . S
H1886 C1883 0.929 . S
S1887 N1888 1.613 . S
S1887 N1889 1.610 . S
N1888 S1887 1.613 . S
N1888 C1891 1.350 . S
N1889 S1887 1.610 . S
N1889 C1890 1.351 . S
C1890 C1884 1.428 . S
C1890 N1889 1.351 . S
C1890 C1891 1.434 . S
C1891 C1882 1.429 . S
C1891 N1888 1.350 . S
C1891 C1890 1.434 . S
C1892 C1893 1.369 . S
C1892 C1894 1.419 . S
C1892 H1896 0.930 . S
C1893 C1892 1.369 . S
C1893 C1902 1.429 . S
C1894 C1892 1.419 . S
C1894 C1895 1.363 . S
C1894 H1897 0.929 . S
C1895 C1894 1.363 . S
C1895 C1901 1.428 . S
H1896 C1892 0.930 . S
H1897 C1894 0.929 . S
S1898 N1899 1.613 . S
S1898 N1900 1.610 . S
N1899 S1898 1.613 . S
N1899 C1902 1.350 . S
N1900 S1898 1.610 . S
N1900 C1901 1.351 . S
C1901 C1895 1.428 . S
C1901 N1900 1.351 . S
C1901 C1902 1.434 . S
C1902 C1893 1.429 . S
C1902 N1899 1.350 . S
C1902 C1901 1.434 . S
C1903 C1904 1.369 . S
C1903 C1905 1.419 . S
C1903 H1907 0.930 . S
C1904 C1903 1.369 . S
C1904 C1913 1.429 . S
C1905 C1903 1.419 . S
C1905 C1906 1.363 . S
C1905 H1908 0.929 . S
C1906 C1905 1.363 . S
C1906 C1912 1.428 . S
H1907 C1903 0.930 . S
H1908 C1905 0.929 . S
S1909 N1910 1.613 . S
S1909 N1911 1.610 . S
N1910 S1909 1.613 . S
N1910 C1913 1.350 . S
N1911 S1909 1.610 . S
N1911 C1912 1.351 . S
C1912 C1906 1.428 . S
C1912 N1911 1.351 . S
C1912 C1913 1.434 . S
C1913 C1904 1.429 . S
C1913 N1910 1.350 . S
C1913 C1912 1.434 . S
C1914 C1915 1.369 . S
C1914 C1916 1.419 . S
C1914 H1918 0.930 . S
C1915 C1914 1.369 . S
C1915 C1924 1.429 . S
C1916 C1914 1.419 . S
C1916 C1917 1.363 . S
C1916 H1919 0.929 . S
C1917 C1916 1.363 . S
C1917 C1923 1.428 . S
H1918 C1914 0.930 . S
H1919 C1916 0.929 . S
S1920 N1921 1.613 . S
S1920 N1922 1.610 . S
N1921 S1920 1.613 . S
N1921 C1924 1.350 . S
N1922 S1920 1.610 . S
N1922 C1923 1.351 . S
C1923 C1917 1.428 . S
C1923 N1922 1.351 . S
C1923 C1924 1.434 . S
C1924 C1915 1.429 . S
C1924 N1921 1.350 . S
C1924 C1923 1.434 . S
C1925 C1926 1.369 . S
C1925 C1927 1.419 . S
C1925 H1929 0.930 . S
C1926 C1925 1.369 . S
C1926 C1935 1.429 . S
C1927 C1925 1.419 . S
C1927 C1928 1.363 . S
C1927 H1930 0.929 . S
C1928 C1927 1.363 . S
C1928 C1934 1.428 . S
H1929 C1925 0.930 . S
H1930 C1927 0.929 . S
S1931 N1932 1.613 . S
S1931 N1933 1.610 . S
N1932 S1931 1.613 . S
N1932 C1935 1.350 . S
N1933 S1931 1.610 . S
N1933 C1934 1.351 . S
C1934 C1928 1.428 . S
C1934 N1933 1.351 . S
C1934 C1935 1.434 . S
C1935 C1926 1.429 . S
C1935 N1932 1.350 . S
C1935 C1934 1.434 . S
C1936 C1937 1.369 . S
C1936 C1938 1.419 . S
C1936 H1940 0.930 . S
C1937 C1936 1.369 . S
C1937 C1946 1.429 . S
C1938 C1936 1.419 . S
C1938 C1939 1.363 . S
C1938 H1941 0.929 . S
C1939 C1938 1.363 . S
C1939 C1945 1.428 . S
H1940 C1936 0.930 . S
H1941 C1938 0.929 . S
S1942 N1943 1.613 . S
S1942 N1944 1.610 . S
N1943 S1942 1.613 . S
N1943 C1946 1.350 . S
N1944 S1942 1.610 . S
N1944 C1945 1.351 . S
C1945 C1939 1.428 . S
C1945 N1944 1.351 . S
C1945 C1946 1.434 . S
C1946 C1937 1.429 . S
C1946 N1943 1.350 . S
C1946 C1945 1.434 . S
C1947 C1948 1.369 . S
C1947 C1949 1.419 . S
C1947 H1951 0.930 . S
C1948 C1947 1.369 . S
C1948 C1957 1.429 . S
C1949 C1947 1.419 . S
C1949 C1950 1.363 . S
C1949 H1952 0.929 . S
C1950 C1949 1.363 . S
C1950 C1956 1.428 . S
H1951 C1947 0.930 . S
H1952 C1949 0.929 . S
S1953 N1954 1.613 . S
S1953 N1955 1.610 . S
N1954 S1953 1.613 . S
N1954 C1957 1.350 . S
N1955 S1953 1.610 . S
N1955 C1956 1.351 . S
C1956 C1950 1.428 . S
C1956 N1955 1.351 . S
C1956 C1957 1.434 . S
C1957 C1948 1.429 . S
C1957 N1954 1.350 . S
C1957 C1956 1.434 . S
C1958 C1959 1.369 . S
C1958 C1960 1.419 . S
C1958 H1962 0.930 . S
C1959 C1958 1.369 . S
C1959 C1968 1.429 . S
C1960 C1958 1.419 . S
C1960 C1961 1.363 . S
C1960 H1963 0.929 . S
C1961 C1960 1.363 . S
C1961 C1967 1.428 . S
H1962 C1958 0.930 . S
H1963 C1960 0.929 . S
S1964 N1965 1.613 . S
S1964 N1966 1.610 . S
N1965 S1964 1.613 . S
N1965 C1968 1.350 . S
N1966 S1964 1.610 . S
N1966 C1967 1.351 . S
C1967 C1961 1.428 . S
C1967 N1966 1.351 . S
C1967 C1968 1.434 . S
C1968 C1959 1.429 . S
C1968 N1965 1.350 . S
C1968 C1967 1.434 . S
C1969 C1970 1.369 . S
C1969 C1971 1.419 . S
C1969 H1973 0.930 . S
C1970 C1969 1.369 . S
C1970 C1979 1.429 . S
C1971 C1969 1.419 . S
C1971 C1972 1.363 . S
C1971 H1974 0.929 . S
C1972 C1971 1.363 . S
C1972 C1978 1.428 . S
H1973 C1969 0.930 . S
H1974 C1971 0.929 . S
S1975 N1976 1.613 . S
S1975 N1977 1.610 . S
N1976 S1975 1.613 . S
N1976 C1979 1.350 . S
N1977 S1975 1.610 . S
N1977 C1978 1.351 . S
C1978 C1972 1.428 . S
C1978 N1977 1.351 . S
C1978 C1979 1.434 . S
C1979 C1970 1.429 . S
C1979 N1976 1.350 . S
C1979 C1978 1.434 . S
C1980 C1981 1.369 . S
C1980 C1982 1.419 . S
C1980 H1984 0.930 . S
C1981 C1980 1.369 . S
C1981 C1990 1.429 . S
C1982 C1980 1.419 . S
C1982 C1983 1.363 . S
C1982 H1985 0.929 . S
C1983 C1982 1.363 . S
C1983 C1989 1.428 . S
H1984 C1980 0.930 . S
H1985 C1982 0.929 . S
S1986 N1987 1.613 . S
S1986 N1988 1.610 . S
N1987 S1986 1.613 . S
N1987 C1990 1.350 . S
N1988 S1986 1.610 . S
N1988 C1989 1.351 . S
C1989 C1983 1.428 . S
C1989 N1988 1.351 . S
C1989 C1990 1.434 . S
C1990 C1981 1.429 . S
C1990 N1987 1.350 . S
C1990 C1989 1.434 . S
C1991 C1992 1.369 . S
C1991 C1993 1.419 . S
C1991 H1995 0.930 . S
C1992 C1991 1.369 . S
C1992 C2001 1.429 . S
C1993 C1991 1.419 . S
C1993 C1994 1.363 . S
C1993 H1996 0.929 . S
C1994 C1993 1.363 . S
C1994 C2000 1.428 . S
H1995 C1991 0.930 . S
H1996 C1993 0.929 . S
S1997 N1998 1.613 . S
S1997 N1999 1.610 . S
N1998 S1997 1.613 . S
N1998 C2001 1.350 . S
N1999 S1997 1.610 . S
N1999 C2000 1.351 . S
C2000 C1994 1.428 . S
C2000 N1999 1.351 . S
C2000 C2001 1.434 . S
C2001 C1992 1.429 . S
C2001 N1998 1.350 . S
C2001 C2000 1.434 . S
C2002 C2003 1.369 . S
C2002 C2004 1.419 . S
C2002 H2006 0.930 . S
C2003 C2002 1.369 . S
C2003 C2012 1.429 . S
C2004 C2002 1.419 . S
C2004 C2005 1.363 . S
C2004 H2007 0.929 . S
C2005 C2004 1.363 . S
C2005 C2011 1.428 . S
H2006 C2002 0.930 . S
H2007 C2004 0.929 . S
S2008 N2009 1.613 . S
S2008 N2010 1.610 . S
N2009 S2008 1.613 . S
N2009 C2012 1.350 . S
N2010 S2008 1.610 . S
N2010 C2011 1.351 . S
C2011 C2005 1.428 . S
C2011 N2010 1.351 . S
C2011 C2012 1.434 . S
C2012 C2003 1.429 . S
C2012 N2009 1.350 . S
C2012 C2011 1.434 . S
C2013 C2014 1.369 . S
C2013 C2015 1.419 . S
C2013 H2017 0.930 . S
C2014 C2013 1.369 . S
C2014 C2023 1.429 1_556 S
C2015 C2013 1.419 . S
C2015 C2016 1.363 . S
C2015 H2018 0.929 . S
C2016 C2015 1.363 . S
C2016 C2022 1.428 . S
H2017 C2013 0.930 . S
H2018 C2015 0.929 . S
S2019 N2020 1.613 . S
S2019 N2021 1.622 . S
N2020 S2019 1.613 . S
N2020 C2023 1.350 . S
N2021 S2019 1.622 . S
N2021 C2022 1.344 1_554 S
C2022 C2016 1.428 . S
C2022 N2021 1.344 1_556 S
C2022 C2023 1.434 1_556 S
C2023 C2014 1.429 1_554 S
C2023 N2020 1.350 . S
C2023 C2022 1.434 1_554 S
C2024 C2025 1.369 . S
C2024 C2026 1.419 . S
C2024 H2028 0.930 1_556 S
C2025 C2024 1.369 . S
C2025 C2034 1.429 . S
C2026 C2024 1.419 . S
C2026 C2027 1.363 . S
C2026 H2029 0.929 . S
C2027 C2026 1.363 . S
C2027 C2033 1.428 . S
H2028 C2024 0.930 1_554 S
H2029 C2026 0.929 . S
S2030 N2031 1.613 . S
S2030 N2032 1.610 . S
N2031 S2030 1.613 . S
N2031 C2034 1.350 . S
N2032 S2030 1.610 . S
N2032 C2033 1.351 . S
C2033 C2027 1.428 . S
C2033 N2032 1.351 . S
C2033 C2034 1.434 . S
C2034 C2025 1.429 . S
C2034 N2031 1.350 . S
C2034 C2033 1.434 . S
C2035 C2036 1.369 . S
C2035 C2037 1.419 . S
C2035 H2039 0.930 . S
C2036 C2035 1.369 . S
C2036 C2045 1.429 . S
C2037 C2035 1.419 . S
C2037 C2038 1.363 . S
C2037 H2040 0.929 . S
C2038 C2037 1.363 . S
C2038 C2044 1.428 1_554 S
H2039 C2035 0.930 . S
H2040 C2037 0.929 . S
S2041 N2042 1.613 . S
S2041 N2043 1.610 . S
N2042 S2041 1.613 . S
N2042 C2045 1.350 1_556 S
N2043 S2041 1.610 . S
N2043 C2044 1.351 . S
C2044 C2038 1.428 1_556 S
C2044 N2043 1.351 . S
C2044 C2045 1.434 1_556 S
C2045 C2036 1.429 . S
C2045 N2042 1.350 1_554 S
C2045 C2044 1.434 1_554 S
C2046 C2047 1.380 . S
C2046 C2048 1.419 1_554 S
C2046 H2050 0.930 . S
C2047 C2046 1.380 . S
C2047 C2056 1.397 1_554 S
C2048 C2046 1.419 1_556 S
C2048 C2049 1.363 . S
C2048 H2051 0.929 1_556 S
C2049 C2048 1.363 . S
C2049 C2055 1.428 . S
H2050 C2046 0.930 . S
H2051 C2048 0.929 1_554 S
S2052 N2053 1.613 . S
S2052 N2054 1.610 . S
N2053 S2052 1.613 . S
N2053 C2056 1.350 . S
N2054 S2052 1.610 . S
N2054 C2055 1.351 . S
C2055 C2049 1.428 . S
C2055 N2054 1.351 . S
C2055 C2056 1.434 . S
C2056 C2047 1.397 1_556 S
C2056 N2053 1.350 . S
C2056 C2055 1.434 . S
C2057 C2058 1.369 . S
C2057 C2059 1.419 . S
C2057 H2061 0.930 . S
C2058 C2057 1.369 . S
C2058 C2067 1.429 . S
C2059 C2057 1.419 . S
C2059 C2060 1.363 . S
C2059 H2062 0.929 . S
C2060 C2059 1.363 . S
C2060 C2066 1.428 . S
H2061 C2057 0.930 . S
H2062 C2059 0.929 . S
S2063 N2064 1.613 . S
S2063 N2065 1.610 . S
N2064 S2063 1.613 . S
N2064 C2067 1.350 . S
N2065 S2063 1.610 . S
N2065 C2066 1.351 . S
C2066 C2060 1.428 . S
C2066 N2065 1.351 . S
C2066 C2067 1.434 . S
C2067 C2058 1.429 . S
C2067 N2064 1.350 . S
C2067 C2066 1.434 . S
C2068 C2069 1.369 . S
C2068 C2070 1.419 . S
C2068 H2072 0.930 . S
C2069 C2068 1.369 . S
C2069 C2078 1.429 . S
C2070 C2068 1.419 . S
C2070 C2071 1.363 1_554 S
C2070 H2073 0.929 . S
C2071 C2070 1.363 1_556 S
C2071 C2077 1.428 . S
H2072 C2068 0.930 . S
H2073 C2070 0.929 . S
S2074 N2075 1.613 1_556 S
S2074 N2076 1.610 . S
N2075 S2074 1.613 1_554 S
N2075 C2078 1.350 . S
N2076 S2074 1.610 . S
N2076 C2077 1.351 . S
C2077 C2071 1.428 . S
C2077 N2076 1.351 . S
C2077 C2078 1.434 1_556 S
C2078 C2069 1.429 . S
C2078 N2075 1.350 . S
C2078 C2077 1.434 1_554 S
C2079 C2080 1.369 . S
C2079 C2081 1.419 . S
C2079 H2083 0.930 . S
C2080 C2079 1.369 . S
C2080 C2089 1.429 . S
C2081 C2079 1.419 . S
C2081 C2082 1.363 . S
C2081 H2084 0.929 . S
C2082 C2081 1.363 . S
C2082 C2088 1.428 . S
H2083 C2079 0.930 . S
H2084 C2081 0.929 . S
S2085 N2086 1.613 . S
S2085 N2087 1.610 . S
N2086 S2085 1.613 . S
N2086 C2089 1.350 . S
N2087 S2085 1.610 . S
N2087 C2088 1.351 . S
C2088 C2082 1.428 . S
C2088 N2087 1.351 . S
C2088 C2089 1.434 . S
C2089 C2080 1.429 . S
C2089 N2086 1.350 . S
C2089 C2088 1.434 . S
C2090 C2091 1.369 . S
C2090 C2092 1.419 . S
C2090 H2094 0.930 . S
C2091 C2090 1.369 . S
C2091 C2100 1.429 . S
C2092 C2090 1.419 . S
C2092 C2093 1.363 . S
C2092 H2095 0.929 . S
C2093 C2092 1.363 . S
C2093 C2099 1.428 . S
H2094 C2090 0.930 . S
H2095 C2092 0.929 . S
S2096 N2097 1.613 . S
S2096 N2098 1.610 . S
N2097 S2096 1.613 . S
N2097 C2100 1.350 . S
N2098 S2096 1.610 . S
N2098 C2099 1.351 . S
C2099 C2093 1.428 . S
C2099 N2098 1.351 . S
C2099 C2100 1.434 . S
C2100 C2091 1.429 . S
C2100 N2097 1.350 . S
C2100 C2099 1.434 . S
C2101 C2102 1.369 . S
C2101 C2103 1.419 . S
C2101 H2105 0.930 . S
C2102 C2101 1.369 . S
C2102 C2111 1.429 . S
C2103 C2101 1.419 . S
C2103 C2104 1.363 . S
C2103 H2106 0.929 . S
C2104 C2103 1.363 . S
C2104 C2110 1.428 . S
H2105 C2101 0.930 . S
H2106 C2103 0.929 . S
S2107 N2108 1.613 . S
S2107 N2109 1.610 . S
N2108 S2107 1.613 . S
N2108 C2111 1.350 . S
N2109 S2107 1.610 . S
N2109 C2110 1.351 . S
C2110 C2104 1.428 . S
C2110 N2109 1.351 . S
C2110 C2111 1.434 . S
C2111 C2102 1.429 . S
C2111 N2108 1.350 . S
C2111 C2110 1.434 . S
C2112 C2113 1.369 . S
C2112 C2114 1.419 . S
C2112 H2116 0.930 . S
C2113 C2112 1.369 . S
C2113 C2122 1.429 . S
C2114 C2112 1.419 . S
C2114 C2115 1.363 . S
C2114 H2117 0.929 . S
C2115 C2114 1.363 . S
C2115 C2121 1.428 . S
H2116 C2112 0.930 . S
H2117 C2114 0.929 . S
S2118 N2119 1.613 . S
S2118 N2120 1.610 . S
N2119 S2118 1.613 . S
N2119 C2122 1.350 . S
N2120 S2118 1.610 . S
N2120 C2121 1.351 . S
C2121 C2115 1.428 . S
C2121 N2120 1.351 . S
C2121 C2122 1.434 . S
C2122 C2113 1.429 . S
C2122 N2119 1.350 . S
C2122 C2121 1.434 . S
C2123 C2124 1.369 . S
C2123 C2125 1.419 . S
C2123 H2127 0.930 . S
C2124 C2123 1.369 . S
C2124 C2133 1.429 . S
C2125 C2123 1.419 . S
C2125 C2126 1.363 . S
C2125 H2128 0.929 . S
C2126 C2125 1.363 . S
C2126 C2132 1.428 . S
H2127 C2123 0.930 . S
H2128 C2125 0.929 . S
S2129 N2130 1.613 . S
S2129 N2131 1.610 . S
N2130 S2129 1.613 . S
N2130 C2133 1.350 . S
N2131 S2129 1.610 . S
N2131 C2132 1.351 . S
C2132 C2126 1.428 . S
C2132 N2131 1.351 . S
C2132 C2133 1.434 . S
C2133 C2124 1.429 . S
C2133 N2130 1.350 . S
C2133 C2132 1.434 . S
C2134 C2135 1.369 . S
C2134 C2136 1.419 . S
C2134 H2138 0.930 . S
C2135 C2134 1.369 . S
C2135 C2144 1.429 . S
C2136 C2134 1.419 . S
C2136 C2137 1.363 . S
C2136 H2139 0.929 . S
C2137 C2136 1.363 . S
C2137 C2143 1.428 . S
H2138 C2134 0.930 . S
H2139 C2136 0.929 . S
S2140 N2141 1.613 1_655 S
S2140 N2142 1.610 . S
N2141 S2140 1.613 1_455 S
N2141 C2144 1.350 1_455 S
N2142 S2140 1.610 . S
N2142 C2143 1.351 . S
C2143 C2137 1.428 . S
C2143 N2142 1.351 . S
C2143 C2144 1.434 . S
C2144 C2135 1.429 . S
C2144 N2141 1.350 1_655 S
C2144 C2143 1.434 . S
C2145 C2146 1.369 . S
C2145 C2147 1.419 . S
C2145 H2149 0.930 . S
C2146 C2145 1.369 . S
C2146 C2155 1.429 . S
C2147 C2145 1.419 . S
C2147 C2148 1.363 . S
C2147 H2150 0.929 1_455 S
C2148 C2147 1.363 . S
C2148 C2154 1.428 . S
H2149 C2145 0.930 . S
H2150 C2147 0.929 1_655 S
S2151 N2152 1.613 . S
S2151 N2153 1.610 . S
N2152 S2151 1.613 . S
N2152 C2155 1.350 . S
N2153 S2151 1.610 . S
N2153 C2154 1.351 . S
C2154 C2148 1.428 . S
C2154 N2153 1.351 . S
C2154 C2155 1.434 . S
C2155 C2146 1.429 . S
C2155 N2152 1.350 . S
C2155 C2154 1.434 . S
C2156 C2157 1.369 . S
C2156 C2158 1.419 . S
C2156 H2160 0.930 . S
C2157 C2156 1.369 . S
C2157 C2166 1.429 . S
C2158 C2156 1.419 . S
C2158 C2159 1.363 . S
C2158 H2161 0.929 . S
C2159 C2158 1.363 . S
C2159 C2165 1.428 . S
H2160 C2156 0.930 . S
H2161 C2158 0.929 . S
S2162 N2163 1.613 . S
S2162 N2164 1.610 . S
N2163 S2162 1.613 . S
N2163 C2166 1.350 . S
N2164 S2162 1.610 . S
N2164 C2165 1.351 . S
C2165 C2159 1.428 . S
C2165 N2164 1.351 . S
C2165 C2166 1.434 . S
C2166 C2157 1.429 . S
C2166 N2163 1.350 . S
C2166 C2165 1.434 . S
C2167 C2168 1.369 . S
C2167 C2169 1.419 . S
C2167 H2171 0.930 . S
C2168 C2167 1.369 . S
C2168 C2177 1.429 . S
C2169 C2167 1.419 . S
C2169 C2170 1.363 . S
C2169 H2172 0.929 . S
C2170 C2169 1.363 . S
C2170 C2176 1.428 . S
H2171 C2167 0.930 . S
H2172 C2169 0.929 . S
S2173 N2174 1.613 . S
S2173 N2175 1.610 . S
N2174 S2173 1.613 . S
N2174 C2177 1.350 . S
N2175 S2173 1.610 . S
N2175 C2176 1.351 . S
C2176 C2170 1.428 . S
C2176 N2175 1.351 . S
C2176 C2177 1.434 . S
C2177 C2168 1.429 . S
C2177 N2174 1.350 . S
C2177 C2176 1.434 . S
C2178 C2179 1.369 . S
C2178 C2180 1.419 . S
C2178 H2182 0.930 . S
C2179 C2178 1.369 . S
C2179 C2188 1.429 1_565 S
C2180 C2178 1.419 . S
C2180 C2181 1.363 . S
C2180 H2183 0.929 . S
C2181 C2180 1.363 . S
C2181 C2187 1.428 1_565 S
H2182 C2178 0.930 . S
H2183 C2180 0.929 . S
S2184 N2185 1.613 . S
S2184 N2186 1.610 . S
N2185 S2184 1.613 . S
N2185 C2188 1.350 . S
N2186 S2184 1.610 . S
N2186 C2187 1.351 . S
C2187 C2181 1.428 1_545 S
C2187 N2186 1.351 . S
C2187 C2188 1.434 . S
C2188 C2179 1.429 1_545 S
C2188 N2185 1.350 . S
C2188 C2187 1.434 . S
C2189 C2190 1.369 1_655 S
C2189 C2191 1.419 . S
C2189 H2193 0.930 . S
C2190 C2189 1.369 1_455 S
C2190 C2199 1.429 . S
C2191 C2189 1.419 . S
C2191 C2192 1.363 1_655 S
C2191 H2194 0.929 . S
C2192 C2191 1.363 1_455 S
C2192 C2198 1.428 . S
H2193 C2189 0.930 . S
H2194 C2191 0.929 . S
S2195 N2196 1.613 . S
S2195 N2197 1.610 . S
N2196 S2195 1.613 . S
N2196 C2199 1.350 . S
N2197 S2195 1.610 . S
N2197 C2198 1.351 . S
C2198 C2192 1.428 . S
C2198 N2197 1.351 . S
C2198 C2199 1.434 . S
C2199 C2190 1.429 . S
C2199 N2196 1.350 . S
C2199 C2198 1.434 . S
C2200 C2201 1.369 . S
C2200 C2202 1.419 . S
C2200 H2204 0.930 . S
C2201 C2200 1.369 . S
C2201 C2210 1.429 . S
C2202 C2200 1.419 . S
C2202 C2203 1.363 . S
C2202 H2205 0.929 . S
C2203 C2202 1.363 . S
C2203 C2209 1.428 . S
H2204 C2200 0.930 . S
H2205 C2202 0.929 . S
S2206 N2207 1.613 . S
S2206 N2208 1.610 . S
N2207 S2206 1.613 . S
N2207 C2210 1.350 . S
N2208 S2206 1.610 . S
N2208 C2209 1.351 . S
C2209 C2203 1.428 . S
C2209 N2208 1.351 . S
C2209 C2210 1.434 . S
C2210 C2201 1.429 . S
C2210 N2207 1.350 . S
C2210 C2209 1.434 . S
C2211 C2212 1.369 . S
C2211 C2213 1.419 . S
C2211 H2215 0.930 . S
C2212 C2211 1.369 . S
C2212 C2221 1.429 . S
C2213 C2211 1.419 . S
C2213 C2214 1.363 . S
C2213 H2216 0.929 . S
C2214 C2213 1.363 . S
C2214 C2220 1.428 . S
H2215 C2211 0.930 . S
H2216 C2213 0.929 . S
S2217 N2218 1.613 . S
S2217 N2219 1.610 . S
N2218 S2217 1.613 . S
N2218 C2221 1.350 . S
N2219 S2217 1.610 . S
N2219 C2220 1.351 . S
C2220 C2214 1.428 . S
C2220 N2219 1.351 . S
C2220 C2221 1.434 . S
C2221 C2212 1.429 . S
C2221 N2218 1.350 . S
C2221 C2220 1.434 . S
C2222 C2223 1.369 . S
C2222 C2224 1.419 . S
C2222 H2226 0.930 . S
C2223 C2222 1.369 . S
C2223 C2232 1.429 . S
C2224 C2222 1.419 . S
C2224 C2225 1.363 . S
C2224 H2227 0.929 . S
C2225 C2224 1.363 . S
C2225 C2231 1.428 . S
H2226 C2222 0.930 . S
H2227 C2224 0.929 . S
S2228 N2229 1.613 . S
S2228 N2230 1.610 . S
N2229 S2228 1.613 . S
N2229 C2232 1.350 . S
N2230 S2228 1.610 . S
N2230 C2231 1.351 . S
C2231 C2225 1.428 . S
C2231 N2230 1.351 . S
C2231 C2232 1.434 . S
C2232 C2223 1.429 . S
C2232 N2229 1.350 . S
C2232 C2231 1.434 . S
C2233 C2234 1.369 . S
C2233 C2235 1.419 . S
C2233 H2237 0.930 . S
C2234 C2233 1.369 . S
C2234 C2243 1.429 . S
C2235 C2233 1.419 . S
C2235 C2236 1.363 . S
C2235 H2238 0.929 . S
C2236 C2235 1.363 . S
C2236 C2242 1.428 . S
H2237 C2233 0.930 . S
H2238 C2235 0.929 . S
S2239 N2240 1.613 . S
S2239 N2241 1.610 . S
N2240 S2239 1.613 . S
N2240 C2243 1.350 . S
N2241 S2239 1.610 . S
N2241 C2242 1.351 . S
C2242 C2236 1.428 . S
C2242 N2241 1.351 . S
C2242 C2243 1.434 . S
C2243 C2234 1.429 . S
C2243 N2240 1.350 . S
C2243 C2242 1.434 . S
C2244 C2245 1.369 . S
C2244 C2246 1.419 . S
C2244 H2248 0.930 . S
C2245 C2244 1.369 . S
C2245 C2254 1.429 . S
C2246 C2244 1.419 . S
C2246 C2247 1.363 . S
C2246 H2249 0.929 . S
C2247 C2246 1.363 . S
C2247 C2253 1.428 . S
H2248 C2244 0.930 . S
H2249 C2246 0.929 . S
S2250 N2251 1.613 . S
S2250 N2252 1.610 . S
N2251 S2250 1.613 . S
N2251 C2254 1.350 . S
N2252 S2250 1.610 . S
N2252 C2253 1.351 . S
C2253 C2247 1.428 . S
C2253 N2252 1.351 . S
C2253 C2254 1.434 . S
C2254 C2245 1.429 . S
C2254 N2251 1.350 . S
C2254 C2253 1.434 . S
C2255 C2256 1.369 . S
C2255 C2257 1.419 . S
C2255 H2259 0.930 . S
C2256 C2255 1.369 . S
C2256 C2265 1.429 . S
C2257 C2255 1.419 . S
C2257 C2258 1.363 . S
C2257 H2260 0.929 . S
C2258 C2257 1.363 . S
C2258 C2264 1.428 . S
H2259 C2255 0.930 . S
H2260 C2257 0.929 . S
S2261 N2262 1.613 . S
S2261 N2263 1.610 . S
N2262 S2261 1.613 . S
N2262 C2265 1.350 1_455 S
N2263 S2261 1.610 . S
N2263 C2264 1.351 1_455 S
C2264 C2258 1.428 . S
C2264 N2263 1.351 1_655 S
C2264 C2265 1.434 . S
C2265 C2256 1.429 . S
C2265 N2262 1.350 1_655 S
C2265 C2264 1.434 . S
C2266 C2267 1.369 . S
C2266 C2268 1.419 . S
C2266 H2270 0.930 . S
C2267 C2266 1.369 . S
C2267 C2276 1.429 . S
C2268 C2266 1.419 . S
C2268 C2269 1.363 . S
C2268 H2271 0.929 . S
C2269 C2268 1.363 . S
C2269 C2275 1.428 . S
H2270 C2266 0.930 . S
H2271 C2268 0.929 . S
S2272 N2273 1.613 . S
S2272 N2274 1.610 . S
N2273 S2272 1.613 . S
N2273 C2276 1.350 . S
N2274 S2272 1.610 . S
N2274 C2275 1.351 . S
C2275 C2269 1.428 . S
C2275 N2274 1.351 . S
C2275 C2276 1.434 . S
C2276 C2267 1.429 . S
C2276 N2273 1.350 . S
C2276 C2275 1.434 . S
C2277 C2278 1.369 . S
C2277 C2279 1.419 . S
C2277 H2281 0.930 . S
C2278 C2277 1.369 . S
C2278 C2287 1.429 . S
C2279 C2277 1.419 . S
C2279 C2280 1.363 . S
C2279 H2282 0.929 . S
C2280 C2279 1.363 . S
C2280 C2286 1.428 . S
H2281 C2277 0.930 . S
H2282 C2279 0.929 . S
S2283 N2284 1.613 . S
S2283 N2285 1.610 . S
N2284 S2283 1.613 . S
N2284 C2287 1.350 . S
N2285 S2283 1.610 . S
N2285 C2286 1.351 . S
C2286 C2280 1.428 . S
C2286 N2285 1.351 . S
C2286 C2287 1.434 . S
C2287 C2278 1.429 . S
C2287 N2284 1.350 . S
C2287 C2286 1.434 . S
C2288 C2289 1.369 . S
C2288 C2290 1.419 . S
C2288 H2292 0.930 . S
C2289 C2288 1.369 . S
C2289 C2298 1.429 . S
C2290 C2288 1.419 . S
C2290 C2291 1.363 . S
C2290 H2293 0.929 . S
C2291 C2290 1.363 . S
C2291 C2297 1.428 . S
H2292 C2288 0.930 . S
H2293 C2290 0.929 . S
S2294 N2295 1.613 . S
S2294 N2296 1.610 . S
N2295 S2294 1.613 . S
N2295 C2298 1.350 . S
N2296 S2294 1.610 . S
N2296 C2297 1.351 . S
C2297 C2291 1.428 . S
C2297 N2296 1.351 . S
C2297 C2298 1.434 . S
C2298 C2289 1.429 . S
C2298 N2295 1.350 . S
C2298 C2297 1.434 . S
C2299 C2300 1.369 . S
C2299 C2301 1.419 . S
C2299 H2303 0.930 . S
C2300 C2299 1.369 . S
C2300 C2309 1.429 . S
C2301 C2299 1.419 . S
C2301 C2302 1.363 . S
C2301 H2304 0.929 . S
C2302 C2301 1.363 . S
C2302 C2308 1.428 . S
H2303 C2299 0.930 . S
H2304 C2301 0.929 . S
S2305 N2306 1.613 . S
S2305 N2307 1.610 . S
N2306 S2305 1.613 . S
N2306 C2309 1.350 . S
N2307 S2305 1.610 . S
N2307 C2308 1.351 . S
C2308 C2302 1.428 . S
C2308 N2307 1.351 . S
C2308 C2309 1.434 . S
C2309 C2300 1.429 . S
C2309 N2306 1.350 . S
C2309 C2308 1.434 . S
C2310 C2311 1.369 . S
C2310 C2312 1.419 . S
C2310 H2314 0.930 . S
C2311 C2310 1.369 . S
C2311 C2320 1.429 . S
C2312 C2310 1.419 . S
C2312 C2313 1.363 . S
C2312 H2315 0.929 . S
C2313 C2312 1.363 . S
C2313 C2319 1.428 . S
H2314 C2310 0.930 . S
H2315 C2312 0.929 . S
S2316 N2317 1.613 . S
S2316 N2318 1.610 . S
N2317 S2316 1.613 . S
N2317 C2320 1.350 . S
N2318 S2316 1.610 . S
N2318 C2319 1.351 . S
C2319 C2313 1.428 . S
C2319 N2318 1.351 . S
C2319 C2320 1.434 . S
C2320 C2311 1.429 . S
C2320 N2317 1.350 . S
C2320 C2319 1.434 . S
C2321 C2322 1.369 . S
C2321 C2323 1.419 . S
C2321 H2325 0.930 . S
C2322 C2321 1.369 . S
C2322 C2331 1.429 . S
C2323 C2321 1.419 . S
C2323 C2324 1.363 . S
C2323 H2326 0.929 . S
C2324 C2323 1.363 . S
C2324 C2330 1.428 . S
H2325 C2321 0.930 . S
H2326 C2323 0.929 . S
S2327 N2328 1.613 . S
S2327 N2329 1.610 . S
N2328 S2327 1.613 . S
N2328 C2331 1.350 . S
N2329 S2327 1.610 . S
N2329 C2330 1.351 . S
C2330 C2324 1.428 . S
C2330 N2329 1.351 . S
C2330 C2331 1.434 . S
C2331 C2322 1.429 . S
C2331 N2328 1.350 . S
C2331 C2330 1.434 . S
C2332 C2333 1.369 . S
C2332 C2334 1.419 . S
C2332 H2336 0.930 . S
C2333 C2332 1.369 . S
C2333 C2342 1.429 . S
C2334 C2332 1.419 . S
C2334 C2335 1.363 . S
C2334 H2337 0.929 . S
C2335 C2334 1.363 . S
C2335 C2341 1.428 . S
H2336 C2332 0.930 . S
H2337 C2334 0.929 . S
S2338 N2339 1.613 . S
S2338 N2340 1.610 . S
N2339 S2338 1.613 . S
N2339 C2342 1.350 . S
N2340 S2338 1.610 . S
N2340 C2341 1.351 . S
C2341 C2335 1.428 . S
C2341 N2340 1.351 . S
C2341 C2342 1.434 . S
C2342 C2333 1.429 . S
C2342 N2339 1.350 . S
C2342 C2341 1.434 . S
C2343 C2344 1.369 . S
C2343 C2345 1.419 . S
C2343 H2347 0.930 . S
C2344 C2343 1.369 . S
C2344 C2353 1.429 . S
C2345 C2343 1.419 . S
C2345 C2346 1.363 . S
C2345 H2348 0.929 1_655 S
C2346 C2345 1.363 . S
C2346 C2352 1.428 . S
H2347 C2343 0.930 . S
H2348 C2345 0.929 1_455 S
S2349 N2350 1.613 . S
S2349 N2351 1.610 . S
N2350 S2349 1.613 . S
N2350 C2353 1.350 . S
N2351 S2349 1.610 . S
N2351 C2352 1.351 . S
C2352 C2346 1.428 . S
C2352 N2351 1.351 . S
C2352 C2353 1.434 . S
C2353 C2344 1.429 . S
C2353 N2350 1.350 . S
C2353 C2352 1.434 . S
C2354 C2355 1.369 . S
C2354 C2356 1.419 . S
C2354 H2358 0.930 . S
C2355 C2354 1.369 . S
C2355 C2364 1.429 . S
C2356 C2354 1.419 . S
C2356 C2357 1.363 . S
C2356 H2359 0.929 . S
C2357 C2356 1.363 . S
C2357 C2363 1.428 . S
H2358 C2354 0.930 . S
H2359 C2356 0.929 . S
S2360 N2361 1.613 . S
S2360 N2362 1.610 . S
N2361 S2360 1.613 . S
N2361 C2364 1.350 . S
N2362 S2360 1.610 . S
N2362 C2363 1.351 . S
C2363 C2357 1.428 . S
C2363 N2362 1.351 . S
C2363 C2364 1.434 . S
C2364 C2355 1.429 . S
C2364 N2361 1.350 . S
C2364 C2363 1.434 . S
C2365 C2366 1.369 . S
C2365 C2367 1.419 . S
C2365 H2369 0.930 . S
C2366 C2365 1.369 . S
C2366 C2375 1.429 . S
C2367 C2365 1.419 . S
C2367 C2368 1.363 . S
C2367 H2370 0.929 . S
C2368 C2367 1.363 . S
C2368 C2374 1.428 . S
H2369 C2365 0.930 . S
H2370 C2367 0.929 . S
S2371 N2372 1.613 1_565 S
S2371 N2373 1.610 . S
N2372 S2371 1.613 1_545 S
N2372 C2375 1.350 . S
N2373 S2371 1.610 . S
N2373 C2374 1.351 1_565 S
C2374 C2368 1.428 . S
C2374 N2373 1.351 1_545 S
C2374 C2375 1.434 . S
C2375 C2366 1.429 . S
C2375 N2372 1.350 . S
C2375 C2374 1.434 . S
C1585 C7 1.313 . S
C1587 C981 1.256 . S
C1596 C23 1.694 . S
C1598 C1061 1.613 . S
C1609 C1129 1.373 . S
C1607 C37 1.416 . S
C1618 C35 1.736 . S
C1620 C1209 1.698 . S
C1629 C9 1.556 . S
C1631 C1283 1.543 . S
C1640 C21 1.707 . S
C1642 C1351 1.647 . S
C1651 C49 1.233 1_556 S
C1653 C1277 1.193 . S
C1664 C1357 1.495 . S
C1662 C65 1.488 . S
C1675 C1203 1.336 . S
C1673 C79 1.346 1_556 S
C1684 C77 1.703 . S
C1686 C1135 1.673 1_545 S
C1697 C987 1.504 . S
C1695 C51 1.463 . S
C1706 C63 1.498 . S
C1708 C1055 1.505 . S
C1717 C91 1.597 . S
C1719 C1425 1.502 . S
C1728 C107 1.754 . S
C1730 C1505 1.649 . S
C1741 C1573 1.580 . S
C1739 C121 1.736 . S
C1750 C119 1.968 . S
C1752 C321 1.892 . S
C1761 C93 1.862 . S
C1763 C395 1.752 . S
C1772 C105 1.745 . S
C1774 C463 1.683 . S
C1783 C133 1.262 . S
C1785 C389 1.247 . S
C1794 C149 1.531 . S
C1796 C469 1.529 . S
C1807 C315 1.448 . S
C1805 C163 1.471 . S
C1818 C1579 1.855 . S
C1816 C161 1.874 . S
C1829 C1431 1.598 . S
C1827 C135 1.616 . S
C1840 C1499 1.547 . S
C1838 C147 1.539 . S
C1849 C175 1.501 . S
C1851 C537 1.420 . S
C1860 C191 1.753 . S
C1862 C617 1.655 . S
C1871 C205 1.746 . S
C1873 C685 1.592 . S
C1882 C203 2.045 . S
C1884 C765 1.968 . S
C1895 C839 1.740 . S
C1893 C177 1.864 . S
C1906 C907 1.709 . S
C1904 C189 1.767 . S
C1917 C833 1.344 . S
C1915 C217 1.357 . S
C1928 C913 1.524 . S
C1926 C233 1.528 . S
C1937 C247 1.442 . S
C1939 C759 1.413 . S
C1950 C691 1.769 . S
C1948 C245 1.795 . S
C1959 C219 1.627 . S
C1961 C543 1.617 . S
C1972 C611 1.525 . S
C1970 C231 1.524 . S
C1983 C291 1.914 . S
C1981 C8 1.980 . S
C1992 C17 1.497 . S
C1994 C365 1.490 . S
C2005 C451 1.589 . S
C2003 C31 1.584 . S
C2016 C525 1.391 . S
C2014 C36 1.423 1_556 S
C2027 C587 1.636 . S
C2025 C3 1.648 1_556 S
C2038 C673 1.555 1_554 S
C2036 C22 1.578 . S
C2047 C50 2.192 . S
C2049 C661 2.037 . S
C2058 C59 1.745 . S
C2060 C513 1.642 . S
C2069 C73 1.844 . S
C2071 C599 1.799 . S
C2080 C78 1.744 . S
C2082 C377 1.637 . S
C2093 C439 1.787 . S
C2091 C45 1.887 . S
C2102 C64 1.859 . S
C2104 C303 1.768 . S
C2115 C735 1.862 . S
C2113 C92 1.923 . S
C2124 C101 1.623 1_545 S
C2126 C809 1.604 . S
C2135 C115 1.638 1_655 S
C2137 C895 1.619 . S
C2148 C969 1.226 . S
C2146 C120 1.245 . S
C2157 C87 1.583 . S
C2159 C1031 1.575 . S
C2168 C106 1.445 . S
C2170 C1117 1.438 . S
C2179 C134 1.857 . S
C2181 C1105 1.764 1_565 S
C2190 C143 1.463 . S
C2192 C957 1.416 1_455 S
C2203 C1043 1.743 . S
C2201 C157 1.786 . S
C2212 C162 1.740 . S
C2214 C821 1.623 . S
C2223 C129 1.897 . S
C2225 C883 1.803 . S
C2236 C747 1.828 . S
C2234 C148 1.920 . S
C2247 C1179 1.740 . S
C2245 C176 1.802 . S
C2256 C185 1.356 . S
C2258 C1253 1.342 . S
C2267 C199 1.550 . S
C2269 C1339 1.542 . S
C2280 C1413 1.388 . S
C2278 C204 1.428 . S
C2291 C1475 1.661 . S
C2289 C171 1.676 . S
C2300 C190 1.655 . S
C2302 C1561 1.629 . S
C2311 C218 2.119 . S
C2313 C1549 1.983 . S
C2322 C227 1.849 1_565 S
C2324 C1401 1.754 . S
C2335 C1487 1.810 . S
C2333 C241 1.877 1_455 S
C2346 C1265 1.318 . S
C2344 C246 1.379 . S
C2357 C1327 1.717 . S
C2355 C213 1.813 . S
C2366 C232 1.550 . S
C2368 C1191 1.512 . S
