# Generated by pormake.
# Topology eea, (3,6)-cn, num edge types: 1
# Building blocks:
#     Node 0, Type 0, BuildingBlock: QEWDON_clean_linker_0, # of connection points: 3
#     Node 1, Type 0, BuildingBlock: QEWDON_clean_linker_0, # of connection points: 3
#     Node 2, Type 0, BuildingBlock: QEWDON_clean_linker_0, # of connection points: 3
#     Node 3, Type 0, BuildingBlock: QEWDON_clean_linker_0, # of connection points: 3
#     Node 4, Type 0, BuildingBlock: QEWDON_clean_linker_0, # of connection points: 3
#     Node 5, Type 0, BuildingBlock: QEWDON_clean_linker_0, # of connection points: 3
#     Node 6, Type 0, BuildingBlock: QEWDON_clean_linker_0, # of connection points: 3
#     Node 7, Type 0, BuildingBlock: QEWDON_clean_linker_0, # of connection points: 3
#     Node 8, Type 0, BuildingBlock: QEWDON_clean_linker_0, # of connection points: 3
#     Node 9, Type 0, BuildingBlock: QEWDON_clean_linker_0, # of connection points: 3
#     Node 10, Type 0, BuildingBlock: QEWDON_clean_linker_0, # of connection points: 3
#     Node 11, Type 0, BuildingBlock: QEWDON_clean_linker_0, # of connection points: 3
#     Node 12, Type 0, BuildingBlock: QEWDON_clean_linker_0, # of connection points: 3
#     Node 13, Type 0, BuildingBlock: QEWDON_clean_linker_0, # of connection points: 3
#     Node 14, Type 0, BuildingBlock: QEWDON_clean_linker_0, # of connection points: 3
#     Node 15, Type 0, BuildingBlock: QEWDON_clean_linker_0, # of connection points: 3
#     Node 16, Type 0, BuildingBlock: QEWDON_clean_linker_0, # of connection points: 3
#     Node 17, Type 0, BuildingBlock: QEWDON_clean_linker_0, # of connection points: 3
#     Node 18, Type 1, BuildingBlock: KUMJIN_clean_sbu_0, # of connection points: 6
#     Node 19, Type 1, BuildingBlock: KUMJIN_clean_sbu_0, # of connection points: 6
#     Node 20, Type 1, BuildingBlock: KUMJIN_clean_sbu_0, # of connection points: 6
#     Node 21, Type 1, BuildingBlock: KUMJIN_clean_sbu_0, # of connection points: 6
#     Node 22, Type 1, BuildingBlock: KUMJIN_clean_sbu_0, # of connection points: 6
#     Node 23, Type 1, BuildingBlock: KUMJIN_clean_sbu_0, # of connection points: 6
#     Node 24, Type 1, BuildingBlock: KUMJIN_clean_sbu_0, # of connection points: 6
#     Node 25, Type 1, BuildingBlock: KUMJIN_clean_sbu_0, # of connection points: 6
#     Node 26, Type 1, BuildingBlock: KUMJIN_clean_sbu_0, # of connection points: 6
#     Edge 27, Type (0, 1), BuildingBlock: XUDNAN_clean_linker_2, # of connection points: 2
#     Edge 28, Type (0, 1), BuildingBlock: XUDNAN_clean_linker_2, # of connection points: 2
#     Edge 29, Type (0, 1), BuildingBlock: XUDNAN_clean_linker_2, # of connection points: 2
#     Edge 30, Type (0, 1), BuildingBlock: XUDNAN_clean_linker_2, # of connection points: 2
#     Edge 31, Type (0, 1), BuildingBlock: XUDNAN_clean_linker_2, # of connection points: 2
#     Edge 32, Type (0, 1), BuildingBlock: XUDNAN_clean_linker_2, # of connection points: 2
#     Edge 33, Type (0, 1), BuildingBlock: XUDNAN_clean_linker_2, # of connection points: 2
#     Edge 34, Type (0, 1), BuildingBlock: XUDNAN_clean_linker_2, # of connection points: 2
#     Edge 35, Type (0, 1), BuildingBlock: XUDNAN_clean_linker_2, # of connection points: 2
#     Edge 36, Type (0, 1), BuildingBlock: XUDNAN_clean_linker_2, # of connection points: 2
#     Edge 37, Type (0, 1), BuildingBlock: XUDNAN_clean_linker_2, # of connection points: 2
#     Edge 38, Type (0, 1), BuildingBlock: XUDNAN_clean_linker_2, # of connection points: 2
#     Edge 39, Type (0, 1), BuildingBlock: XUDNAN_clean_linker_2, # of connection points: 2
#     Edge 40, Type (0, 1), BuildingBlock: XUDNAN_clean_linker_2, # of connection points: 2
#     Edge 41, Type (0, 1), BuildingBlock: XUDNAN_clean_linker_2, # of connection points: 2
#     Edge 42, Type (0, 1), BuildingBlock: XUDNAN_clean_linker_2, # of connection points: 2
#     Edge 43, Type (0, 1), BuildingBlock: XUDNAN_clean_linker_2, # of connection points: 2
#     Edge 44, Type (0, 1), BuildingBlock: XUDNAN_clean_linker_2, # of connection points: 2
#     Edge 45, Type (0, 1), BuildingBlock: XUDNAN_clean_linker_2, # of connection points: 2
#     Edge 46, Type (0, 1), BuildingBlock: XUDNAN_clean_linker_2, # of connection points: 2
#     Edge 47, Type (0, 1), BuildingBlock: XUDNAN_clean_linker_2, # of connection points: 2
#     Edge 48, Type (0, 1), BuildingBlock: XUDNAN_clean_linker_2, # of connection points: 2
#     Edge 49, Type (0, 1), BuildingBlock: XUDNAN_clean_linker_2, # of connection points: 2
#     Edge 50, Type (0, 1), BuildingBlock: XUDNAN_clean_linker_2, # of connection points: 2
#     Edge 51, Type (0, 1), BuildingBlock: XUDNAN_clean_linker_2, # of connection points: 2
#     Edge 52, Type (0, 1), BuildingBlock: XUDNAN_clean_linker_2, # of connection points: 2
#     Edge 53, Type (0, 1), BuildingBlock: XUDNAN_clean_linker_2, # of connection points: 2
#     Edge 54, Type (0, 1), BuildingBlock: XUDNAN_clean_linker_2, # of connection points: 2
#     Edge 55, Type (0, 1), BuildingBlock: XUDNAN_clean_linker_2, # of connection points: 2
#     Edge 56, Type (0, 1), BuildingBlock: XUDNAN_clean_linker_2, # of connection points: 2
#     Edge 57, Type (0, 1), BuildingBlock: XUDNAN_clean_linker_2, # of connection points: 2
#     Edge 58, Type (0, 1), BuildingBlock: XUDNAN_clean_linker_2, # of connection points: 2
#     Edge 59, Type (0, 1), BuildingBlock: XUDNAN_clean_linker_2, # of connection points: 2
#     Edge 60, Type (0, 1), BuildingBlock: XUDNAN_clean_linker_2, # of connection points: 2
#     Edge 61, Type (0, 1), BuildingBlock: XUDNAN_clean_linker_2, # of connection points: 2
#     Edge 62, Type (0, 1), BuildingBlock: XUDNAN_clean_linker_2, # of connection points: 2
#     Edge 63, Type (0, 1), BuildingBlock: XUDNAN_clean_linker_2, # of connection points: 2
#     Edge 64, Type (0, 1), BuildingBlock: XUDNAN_clean_linker_2, # of connection points: 2
#     Edge 65, Type (0, 1), BuildingBlock: XUDNAN_clean_linker_2, # of connection points: 2
#     Edge 66, Type (0, 1), BuildingBlock: XUDNAN_clean_linker_2, # of connection points: 2
#     Edge 67, Type (0, 1), BuildingBlock: XUDNAN_clean_linker_2, # of connection points: 2
#     Edge 68, Type (0, 1), BuildingBlock: XUDNAN_clean_linker_2, # of connection points: 2
#     Edge 69, Type (0, 1), BuildingBlock: XUDNAN_clean_linker_2, # of connection points: 2
#     Edge 70, Type (0, 1), BuildingBlock: XUDNAN_clean_linker_2, # of connection points: 2
#     Edge 71, Type (0, 1), BuildingBlock: XUDNAN_clean_linker_2, # of connection points: 2
#     Edge 72, Type (0, 1), BuildingBlock: XUDNAN_clean_linker_2, # of connection points: 2
#     Edge 73, Type (0, 1), BuildingBlock: XUDNAN_clean_linker_2, # of connection points: 2
#     Edge 74, Type (0, 1), BuildingBlock: XUDNAN_clean_linker_2, # of connection points: 2
#     Edge 75, Type (0, 1), BuildingBlock: XUDNAN_clean_linker_2, # of connection points: 2
#     Edge 76, Type (0, 1), BuildingBlock: XUDNAN_clean_linker_2, # of connection points: 2
#     Edge 77, Type (0, 1), BuildingBlock: XUDNAN_clean_linker_2, # of connection points: 2
#     Edge 78, Type (0, 1), BuildingBlock: XUDNAN_clean_linker_2, # of connection points: 2
#     Edge 79, Type (0, 1), BuildingBlock: XUDNAN_clean_linker_2, # of connection points: 2
#     Edge 80, Type (0, 1), BuildingBlock: XUDNAN_clean_linker_2, # of connection points: 2
# Relax obj value: 0.044
# Max RMSD: 0.209
# Mean RMSD: 0.150
data_MOF--net-eea--node1-KUMJIN_clean_sbu_0--node2-QEWDON_clean_linker_0--edge1-XUDNAN_clean_linker_2
_symmetry_space_group_name_H-M    P1
_symmetry_Int_Tables_number       1
_symmetry_cell_setting            triclinic
loop_
_symmetry_equiv_pos_as_xyz
'x, y, z'
_cell_length_a     57.817275
_cell_length_b     59.129198
_cell_length_c     63.647886
_cell_angle_alpha  90.27124
_cell_angle_beta   89.821803
_cell_angle_gamma 119.97811
loop_
_atom_site_label
_atom_site_type_symbol
_atom_site_fract_x
_atom_site_fract_y
_atom_site_fract_z
_atom_type_partial_charge
H0 H 0.21152 0.11643 0.44105 0.0
C1 C 0.21106 0.10174 0.43052 0.0
C2 C 0.22246 0.08675 0.4368 0.0
C3 C 0.19693 0.09615 0.41158 0.0
H4 H 0.22778 0.05425 0.4295 0.0
C5 C 0.21998 0.06633 0.42383 0.0
C6 C 0.20692 0.06108 0.40424 0.0
C7 C 0.19587 0.07665 0.39823 0.0
C8 C 0.17901 0.10684 0.40754 0.0
H9 H 0.18556 0.07334 0.3834 0.0
C10 C 0.18866 0.13381 0.40506 0.0
C11 C 0.17067 0.14298 0.40123 0.0
C12 C 0.15142 0.08929 0.40662 0.0
H13 H 0.14359 0.06853 0.40868 0.0
C14 C 0.13361 0.0983 0.4035 0.0
H15 H 0.20997 0.14733 0.40547 0.0
C16 C 0.14307 0.12487 0.40089 0.0
H17 H 0.12863 0.13122 0.39868 0.0
H18 H 0.11235 0.08463 0.4031 0.0
H19 H 0.91035 0.11414 0.43049 0.0
C20 C 0.92538 0.13035 0.42144 0.0
C21 C 0.93702 0.15587 0.42962 0.0
C22 C 0.93462 0.12542 0.40242 0.0
H23 H 0.96574 0.1964 0.42396 0.0
C24 C 0.95697 0.17663 0.41793 0.0
C25 C 0.96615 0.17217 0.39874 0.0
C26 C 0.95527 0.14643 0.39128 0.0
C27 C 0.9251 0.09811 0.39559 0.0
H28 H 0.96265 0.14275 0.37673 0.0
C29 C 0.89797 0.08059 0.39085 0.0
C30 C 0.88952 0.0544 0.38531 0.0
C31 C 0.94353 0.08926 0.39453 0.0
H32 H 0.9644 0.10232 0.39817 0.0
C33 C 0.93518 0.06339 0.38927 0.0
H34 H 0.88361 0.08726 0.39145 0.0
C35 C 0.90839 0.04604 0.38479 0.0
H36 H 0.90247 0.02613 0.38046 0.0
H37 H 0.94954 0.05674 0.38864 0.0
H38 H 0.91302 0.79008 0.43422 0.0
C39 C 0.89941 0.79429 0.42572 0.0
C40 C 0.87195 0.78083 0.43066 0.0
C41 C 0.90975 0.81429 0.41066 0.0
H42 H 0.83381 0.77769 0.42379 0.0
C43 C 0.85477 0.78713 0.41964 0.0
C44 C 0.86468 0.80708 0.40452 0.0
C45 C 0.8923 0.82066 0.40024 0.0
C46 C 0.93905 0.83222 0.40932 0.0
H47 H 0.90042 0.83683 0.38929 0.0
C48 C 0.95644 0.826 0.39818 0.0
C49 C 0.98413 0.84436 0.39721 0.0
C50 C 0.94965 0.85633 0.41975 0.0
H51 H 0.9367 0.86137 0.42845 0.0
C52 C 0.97693 0.87408 0.4192 0.0
H53 H 0.94845 0.80756 0.3899 0.0
C54 C 0.99401 0.86824 0.40799 0.0
H55 H 0.01512 0.88258 0.40756 0.0
H56 H 0.98486 0.89259 0.42736 0.0
H57 H 0.12422 0.21401 0.59763 0.0
C58 C 0.10768 0.21196 0.60712 0.0
C59 C 0.09352 0.22451 0.60099 0.0
C60 C 0.09898 0.19467 0.62424 0.0
H61 H 0.05998 0.22976 0.6081 0.0
C62 C 0.07113 0.22041 0.6129 0.0
C63 C 0.06213 0.2033 0.63019 0.0
C64 C 0.07631 0.19053 0.63568 0.0
C65 C 0.11022 0.17719 0.62759 0.0
H66 H 0.06937 0.17677 0.64857 0.0
C67 C 0.13676 0.1866 0.63438 0.0
C68 C 0.14716 0.1694 0.63642 0.0
C69 C 0.09403 0.15056 0.62304 0.0
H70 H 0.07366 0.14294 0.61774 0.0
C71 C 0.10411 0.13364 0.62462 0.0
H72 H 0.14887 0.20708 0.63832 0.0
C73 C 0.13039 0.14291 0.63098 0.0
H74 H 0.13752 0.12914 0.63122 0.0
H75 H 0.09157 0.11322 0.62061 0.0
H76 H 0.80482 0.9078 0.59215 0.0
C77 C 0.80388 0.89204 0.60144 0.0
C78 C 0.78968 0.86624 0.59383 0.0
C79 C 0.81848 0.8978 0.62024 0.0
H80 H 0.77842 0.82612 0.5999 0.0
C81 C 0.78962 0.8461 0.60551 0.0
C82 C 0.80366 0.8514 0.62448 0.0
C83 C 0.8179 0.87726 0.63183 0.0
C84 C 0.83648 0.92534 0.62676 0.0
H85 H 0.82919 0.88152 0.6463 0.0
C86 C 0.82772 0.94379 0.62745 0.0
C87 C 0.84519 0.96961 0.63422 0.0
C88 C 0.86301 0.93329 0.63224 0.0
H89 H 0.8704 0.9197 0.63148 0.0
C90 C 0.88044 0.95892 0.63843 0.0
H91 H 0.80724 0.93785 0.62348 0.0
C92 C 0.87164 0.97693 0.6395 0.0
H93 H 0.8856 0.99671 0.64447 0.0
H94 H 0.90086 0.96483 0.6425 0.0
H95 H 0.09521 0.89658 0.60518 0.0
C96 C 0.11336 0.90999 0.61342 0.0
C97 C 0.13844 0.91977 0.60333 0.0
C98 C 0.11151 0.91865 0.6337 0.0
H99 H 0.18109 0.94638 0.60667 0.0
C100 C 0.16162 0.9387 0.61388 0.0
C101 C 0.16013 0.94763 0.634 0.0
C102 C 0.13522 0.93681 0.64397 0.0
C103 C 0.08519 0.91137 0.64374 0.0
H104 H 0.1342 0.94355 0.65962 0.0
C105 C 0.06256 0.88581 0.64285 0.0
C106 C 0.03863 0.88012 0.65351 0.0
C107 C 0.08299 0.93093 0.65478 0.0
H108 H 0.09923 0.95095 0.65505 0.0
C109 C 0.06 0.92517 0.66584 0.0
H110 H 0.06354 0.87062 0.634 0.0
C111 C 0.03827 0.90004 0.66553 0.0
H112 H 0.02092 0.8963 0.67471 0.0
H113 H 0.059 0.94034 0.6747 0.0
H114 H 0.89881 0.46179 0.76254 0.0
C115 C 0.898 0.44387 0.75755 0.0
C116 C 0.91457 0.43623 0.76753 0.0
C117 C 0.87949 0.42792 0.74217 0.0
H118 H 0.92634 0.40724 0.76929 0.0
C119 C 0.91281 0.41248 0.76193 0.0
C120 C 0.89397 0.39557 0.74713 0.0
C121 C 0.87771 0.40376 0.73704 0.0
C122 C 0.86092 0.43584 0.73267 0.0
H123 H 0.86328 0.39107 0.72552 0.0
C124 C 0.86904 0.46245 0.72926 0.0
C125 C 0.85092 0.46997 0.72172 0.0
C126 C 0.8344 0.41687 0.72795 0.0
H127 H 0.82705 0.39636 0.73084 0.0
C128 C 0.81657 0.42412 0.7201 0.0
H129 H 0.8895 0.47735 0.73233 0.0
C130 C 0.82463 0.45038 0.71711 0.0
H131 H 0.80999 0.45533 0.71166 0.0
H132 H 0.79617 0.4093 0.71671 0.0
H133 H 0.57225 0.44098 0.77066 0.0
C134 C 0.58854 0.45618 0.76171 0.0
C135 C 0.60197 0.48204 0.76937 0.0
C136 C 0.59767 0.44942 0.74355 0.0
H137 H 0.63492 0.521 0.76428 0.0
C138 C 0.6242 0.50124 0.7582 0.0
C139 C 0.6335 0.4949 0.73989 0.0
C140 C 0.61971 0.46896 0.73257 0.0
C141 C 0.5873 0.42159 0.73778 0.0
H142 H 0.62658 0.46361 0.71856 0.0
C143 C 0.55998 0.40417 0.73377 0.0
C144 C 0.55111 0.37792 0.72795 0.0
C145 C 0.60549 0.41244 0.73634 0.0
H146 H 0.62651 0.42534 0.73956 0.0
C147 C 0.59681 0.38655 0.7311 0.0
H148 H 0.54595 0.41123 0.73461 0.0
C149 C 0.56992 0.36942 0.72699 0.0
H150 H 0.56385 0.34931 0.7233 0.0
H151 H 0.61099 0.37969 0.73029 0.0
H152 H 0.58866 0.13667 0.75739 0.0
C153 C 0.57148 0.13635 0.75036 0.0
C154 C 0.54672 0.1238 0.76109 0.0
C155 C 0.57396 0.14863 0.73084 0.0
H156 H 0.50636 0.11705 0.76172 0.0
C157 C 0.52475 0.12497 0.75277 0.0
C158 C 0.52686 0.13753 0.73362 0.0
C159 C 0.55083 0.14746 0.72226 0.0
C160 C 0.60051 0.16459 0.71984 0.0
H161 H 0.55145 0.15512 0.70674 0.0
C162 C 0.62247 0.16011 0.72201 0.0
C163 C 0.64689 0.17625 0.71133 0.0
C164 C 0.6042 0.18574 0.70718 0.0
H165 H 0.58921 0.19151 0.70605 0.0
C166 C 0.62754 0.20047 0.69586 0.0
H167 H 0.62092 0.14474 0.73211 0.0
C168 C 0.64852 0.19563 0.69771 0.0
H169 H 0.66663 0.20783 0.68891 0.0
H170 H 0.62959 0.2162 0.68594 0.0
H171 H 0.79058 0.53344 0.94084 0.0
C172 C 0.77345 0.53336 0.94783 0.0
C173 C 0.76026 0.54437 0.93684 0.0
C174 C 0.76404 0.52125 0.96742 0.0
H175 H 0.72644 0.5507 0.93742 0.0
C176 C 0.73754 0.5435 0.94607 0.0
C177 C 0.72796 0.53174 0.96578 0.0
C178 C 0.7418 0.52133 0.97643 0.0
C179 C 0.77542 0.50615 0.97763 0.0
H180 H 0.73481 0.51267 0.99177 0.0
C181 C 0.80317 0.51497 0.97785 0.0
C182 C 0.8131 0.49999 0.9876 0.0
C183 C 0.75788 0.48197 0.98698 0.0
H184 H 0.73648 0.47409 0.98661 0.0
C185 C 0.76753 0.46733 0.99674 0.0
H186 H 0.81692 0.53338 0.97051 0.0
C187 C 0.79481 0.47626 0.9972 0.0
H188 H 0.80154 0.4646 1.0054 0.0
H189 H 0.75374 0.44892 1.00404 0.0
H190 H 0.47497 0.24979 0.94201 0.0
C191 C 0.47129 0.23198 0.94972 0.0
C192 C 0.45738 0.20809 0.93897 0.0
C193 C 0.48208 0.23314 0.96975 0.0
H194 H 0.4432 0.1669 0.9401 0.0
C195 C 0.45355 0.18521 0.94864 0.0
C196 C 0.46354 0.18576 0.96883 0.0
C197 C 0.47783 0.20988 0.97928 0.0
C198 C 0.49971 0.25877 0.97998 0.0
H199 H 0.48574 0.21062 0.99483 0.0
C200 C 0.49283 0.27854 0.98056 0.0
C201 C 0.51017 0.30305 0.98979 0.0
C202 C 0.52413 0.26377 0.98869 0.0
H203 H 0.53015 0.24912 0.98818 0.0
C204 C 0.54143 0.28798 0.99765 0.0
H205 H 0.4738 0.2746 0.97422 0.0
C206 C 0.53464 0.30751 0.99813 0.0
H207 H 0.54883 0.32627 1.0048 0.0
H208 H 0.56034 0.29172 1.00408 0.0
H209 H 0.76151 0.21623 0.93768 0.0
C210 C 0.7793 0.23372 0.94288 0.0
C211 C 0.80432 0.23911 0.93502 0.0
C212 C 0.77747 0.25094 0.95737 0.0
H213 H 0.84651 0.26584 0.93501 0.0
C214 C 0.82741 0.26211 0.94113 0.0
C215 C 0.82624 0.28029 0.95468 0.0
C216 C 0.8013 0.27397 0.96331 0.0
C217 C 0.75101 0.24602 0.96588 0.0
H218 H 0.80048 0.2874 0.97442 0.0
C219 C 0.72891 0.22051 0.96931 0.0
C220 C 0.70486 0.21709 0.97834 0.0
C221 C 0.74796 0.26763 0.97094 0.0
H222 H 0.76333 0.2874 0.9674 0.0
C223 C 0.72508 0.26436 0.98081 0.0
H224 H 0.73032 0.20353 0.96496 0.0
C225 C 0.70407 0.2395 0.9849 0.0
H226 H 0.68689 0.23799 0.99305 0.0
H227 H 0.72357 0.28128 0.98525 0.0
H228 H 0.5646 0.79892 0.09565 0.0
C229 C 0.56614 0.78294 0.08877 0.0
C230 C 0.58366 0.77554 0.09753 0.0
C231 C 0.54964 0.76921 0.0717 0.0
H232 H 0.59763 0.74798 0.09558 0.0
C233 C 0.58429 0.75388 0.0889 0.0
C234 C 0.56785 0.73968 0.07184 0.0
C235 C 0.55056 0.74758 0.06336 0.0
C236 C 0.53073 0.77703 0.06322 0.0
H237 H 0.53811 0.73722 0.05001 0.0
C238 C 0.53905 0.80351 0.05944 0.0
C239 C 0.52069 0.81098 0.05262 0.0
C240 C 0.50391 0.75808 0.05968 0.0
H241 H 0.49691 0.73763 0.06261 0.0
C242 C 0.48567 0.76542 0.0529 0.0
H243 H 0.55973 0.81832 0.06197 0.0
C244 C 0.49391 0.79168 0.04951 0.0
H245 H 0.47943 0.7969 0.04414 0.0
H246 H 0.46501 0.75069 0.05037 0.0
H247 H 0.2425 0.76602 0.09364 0.0
C248 C 0.25876 0.78206 0.08535 0.0
C249 C 0.27209 0.80702 0.09477 0.0
C250 C 0.26743 0.7774 0.06593 0.0
H251 H 0.30499 0.84654 0.09173 0.0
C252 C 0.2943 0.8274 0.08448 0.0
C253 C 0.30341 0.8231 0.06523 0.0
C254 C 0.2894 0.79832 0.05586 0.0
C255 C 0.25523 0.75051 0.05676 0.0
H256 H 0.29601 0.79532 0.04069 0.0
C257 C 0.22756 0.73231 0.05834 0.0
C258 C 0.21675 0.70708 0.04938 0.0
C259 C 0.27179 0.74282 0.0464 0.0
H260 H 0.29319 0.75569 0.04554 0.0
C261 C 0.26113 0.71832 0.0371 0.0
H262 H 0.21456 0.73768 0.06652 0.0
C263 C 0.2339 0.7007 0.03837 0.0
H264 H 0.2263 0.68199 0.0306 0.0
H265 H 0.27409 0.7129 0.0289 0.0
H266 H 0.25313 0.4642 0.0973 0.0
C267 C 0.23773 0.46638 0.0895 0.0
C268 C 0.2109 0.45133 0.09614 0.0
C269 C 0.24463 0.48447 0.07296 0.0
H270 H 0.1709 0.44469 0.0923 0.0
C271 C 0.1912 0.45507 0.08641 0.0
C272 C 0.1975 0.47276 0.06985 0.0
C273 C 0.22413 0.48678 0.06294 0.0
C274 C 0.27307 0.50242 0.06656 0.0
H275 H 0.22903 0.49988 0.04973 0.0
C276 C 0.29205 0.49403 0.06427 0.0
C277 C 0.31812 0.51122 0.05628 0.0
C278 C 0.281 0.52853 0.06188 0.0
H279 H 0.26745 0.536 0.06413 0.0
C280 C 0.30626 0.54536 0.05392 0.0
H281 H 0.28629 0.47418 0.06841 0.0
C282 C 0.3244 0.53675 0.05074 0.0
H283 H 0.34327 0.55031 0.04357 0.0
H284 H 0.3117 0.56518 0.04988 0.0
H285 H 0.46355 0.87927 0.27297 0.0
C286 C 0.44587 0.87842 0.27961 0.0
C287 C 0.43534 0.8929 0.27013 0.0
C288 C 0.43347 0.86242 0.29709 0.0
H289 H 0.40237 0.90035 0.26996 0.0
C290 C 0.41099 0.89002 0.27768 0.0
C291 C 0.3979 0.87396 0.29516 0.0
C292 C 0.41016 0.86135 0.30514 0.0
C293 C 0.44372 0.84569 0.30641 0.0
H294 H 0.40137 0.8505 0.31939 0.0
C295 C 0.47127 0.85323 0.30658 0.0
C296 C 0.48008 0.83683 0.31551 0.0
C297 C 0.42532 0.82124 0.31497 0.0
H298 H 0.40405 0.81399 0.31443 0.0
C299 C 0.43388 0.80544 0.32422 0.0
H300 H 0.48575 0.8717 0.29977 0.0
C301 C 0.46087 0.81319 0.32472 0.0
H302 H 0.46659 0.80052 0.33255 0.0
H303 H 0.41941 0.78696 0.33106 0.0
H304 H 0.13233 0.58773 0.27275 0.0
C305 C 0.13108 0.5699 0.27842 0.0
C306 C 0.11506 0.54629 0.26771 0.0
C307 C 0.14643 0.57087 0.29582 0.0
H308 H 0.10252 0.50547 0.26608 0.0
C309 C 0.11451 0.52349 0.27465 0.0
C310 C 0.12904 0.52373 0.2925 0.0
C311 C 0.14497 0.54769 0.30293 0.0
C312 C 0.16512 0.59635 0.30583 0.0
H313 H 0.15607 0.54842 0.31684 0.0
C314 C 0.15713 0.61475 0.31072 0.0
C315 C 0.1755 0.63915 0.3194 0.0
C316 C 0.1916 0.60271 0.30991 0.0
H317 H 0.19839 0.5891 0.3061 0.0
C318 C 0.20981 0.62696 0.31844 0.0
H319 H 0.13674 0.61011 0.30788 0.0
C320 C 0.20186 0.64515 0.32311 0.0
H321 H 0.21622 0.66385 0.32981 0.0
H322 H 0.23018 0.63172 0.32139 0.0
H323 H 0.43238 0.55788 0.28267 0.0
C324 C 0.45132 0.57373 0.28807 0.0
C325 C 0.47392 0.58222 0.275 0.0
C326 C 0.45305 0.58601 0.30758 0.0
H327 H 0.51558 0.61077 0.27111 0.0
C328 C 0.49828 0.60389 0.28123 0.0
C329 C 0.50073 0.61656 0.30048 0.0
C330 C 0.47834 0.60696 0.31373 0.0
C331 C 0.42877 0.57797 0.32132 0.0
H332 H 0.4811 0.61584 0.32908 0.0
C333 C 0.40533 0.55282 0.32018 0.0
C334 C 0.38286 0.54668 0.333 0.0
C335 C 0.42868 0.59632 0.33559 0.0
H336 H 0.44494 0.61624 0.33638 0.0
C337 C 0.40728 0.5897 0.34903 0.0
H338 H 0.40411 0.53825 0.3092 0.0
C339 C 0.38472 0.56515 0.34789 0.0
H340 H 0.36823 0.56083 0.35838 0.0
H341 H 0.40794 0.60398 0.36009 0.0
Eu342 Eu 0.50747 1.00242 0.99079 0.0
C343 C 0.54917 0.08208 0.06026 0.0
C344 C 0.59612 0.09511 0.05982 0.0
C345 C 0.58267 0.12714 0.06776 0.0
C346 C 0.56907 0.07588 0.05718 0.0
C347 C 0.55573 0.1076 0.06624 0.0
C348 C 0.60283 0.12091 0.06455 0.0
C349 C 0.50864 0.09191 0.0712 0.0
N350 N 0.52335 0.06274 0.05889 0.0
C351 C 0.50316 0.06688 0.0654 0.0
C352 C 0.53502 0.11247 0.07127 0.0
Eu353 Eu 0.5159 0.02156 0.04706 0.0
N354 N 0.56196 0.05076 0.05266 0.0
C355 C 0.58076 0.04324 0.05171 0.0
C356 C 0.61555 0.08769 0.05821 0.0
C357 C 0.60781 0.06159 0.05436 0.0
H358 H 0.48272 0.05098 0.06514 0.0
H359 H 0.62268 0.05562 0.05331 0.0
H360 H 0.62353 0.13602 0.06634 0.0
H361 H 0.49254 0.09534 0.07557 0.0
H362 H 0.5751 0.02321 0.04854 0.0
H363 H 0.39787 0.95055 0.98324 0.0
H364 H 0.63651 0.10182 0.06036 0.0
H365 H 0.54946 0.98586 0.96783 0.0
H366 H 0.44202 0.98863 0.98829 0.0
H367 H 0.54839 0.94612 0.95407 0.0
H368 H 0.58811 0.14695 0.07205 0.0
H369 H 0.39314 0.90765 0.97472 0.0
H370 H 0.41497 0.88149 0.96559 0.0
H371 H 0.53923 0.13183 0.07587 0.0
H372 H 0.45594 0.8802 0.95765 0.0
N373 N 0.46317 0.96787 0.98387 0.0
C374 C 0.44085 0.97032 0.98476 0.0
C375 C 0.41286 0.92443 0.977 0.0
C376 C 0.43578 0.92243 0.97434 0.0
C377 C 0.41545 0.94861 0.98177 0.0
C378 C 0.46102 0.94485 0.97763 0.0
H379 H 0.50567 0.90428 0.95288 0.0
N380 N 0.50798 0.96629 0.97506 0.0
C381 C 0.5302 0.9452 0.95954 0.0
C382 C 0.48409 0.94402 0.9732 0.0
C383 C 0.53073 0.96763 0.96725 0.0
C384 C 0.50606 0.92162 0.95897 0.0
C385 C 0.48252 0.92093 0.96535 0.0
O386 O 0.51569 0.03738 0.97302 0.0
O387 O 0.53248 0.03175 0.01463 0.0
O388 O 0.50552 0.04776 0.02848 0.0
O389 O 0.48288 0.02151 0.99971 0.0
O390 O 0.55301 0.02426 0.99211 0.0
O391 O 0.50931 1.00327 0.95626 0.0
O392 O 0.49079 0.01013 0.0752 0.0
O393 O 0.49129 0.99047 0.02357 0.0
O394 O 0.5259 0.98081 1.00607 0.0
O395 O 0.52851 0.99096 0.04196 0.0
O396 O 0.47076 0.9995 0.04572 0.0
O397 O 0.52671 0.00744 0.07501 0.0
C398 C 0.55573 0.03922 0.00791 0.0
C399 C 0.53729 0.04412 0.93997 0.0
C400 C 0.55183 0.0639 0.90501 0.0
C401 C 0.53125 0.04824 0.91937 0.0
C402 C 0.57851 0.07517 0.9118 0.0
C403 C 0.56408 0.05604 0.94625 0.0
C404 C 0.58449 0.07139 0.93225 0.0
C405 C 0.48924 0.04171 0.01228 0.0
C406 C 0.5155 0.02753 0.95471 0.0
C407 C 0.45751 0.89821 0.96335 0.0
C408 C 0.43418 0.89896 0.96786 0.0
C409 C 0.46827 0.98399 0.03045 0.0
C410 C 0.51212 0.01477 0.10788 0.0
C411 C 0.50341 0.99742 0.12511 0.0
C412 C 0.50961 0.00716 0.14587 0.0
C413 C 0.52394 0.03434 0.14908 0.0
C414 C 0.52654 0.04175 0.1116 0.0
C415 C 0.53222 0.05144 0.13208 0.0
C416 C 0.5314 0.97842 0.02576 0.0
C417 C 0.50644 0.00471 0.08612 0.0
H418 H 0.51052 0.0395 0.91471 0.0
H419 H 0.59495 0.08668 0.90125 0.0
H420 H 0.5694 0.05357 0.96192 0.0
H421 H 0.6051 0.08031 0.93725 0.0
H422 H 0.49258 0.97652 0.12236 0.0
H423 H 0.52889 0.04237 0.16483 0.0
H424 H 0.53357 0.05536 0.0987 0.0
H425 H 0.54334 0.07231 0.13478 0.0
Eu426 Eu 0.02949 0.50745 0.99112 0.0
C427 C 0.93414 0.45266 0.05528 0.0
C428 C 0.91425 0.48013 0.05828 0.0
C429 C 0.8873 0.43352 0.06477 0.0
C430 C 0.93635 0.47697 0.05368 0.0
C431 C 0.90971 0.43072 0.06119 0.0
C432 C 0.88961 0.45821 0.06347 0.0
C433 C 0.93219 0.40555 0.06205 0.0
N434 N 0.9564 0.45081 0.05248 0.0
C435 C 0.95599 0.4279 0.05636 0.0
C436 C 0.90885 0.40688 0.06421 0.0
Eu437 Eu 0.9961 0.48951 0.04328 0.0
N438 N 0.96065 0.49786 0.04935 0.0
C439 C 0.96462 0.52259 0.05076 0.0
C440 C 0.9178 0.50534 0.05826 0.0
C441 C 0.9432 0.52669 0.05476 0.0
H442 H 0.97394 0.42671 0.05467 0.0
H443 H 0.94633 0.54632 0.05524 0.0
H444 H 0.87236 0.46023 0.06689 0.0
H445 H 0.93185 0.38733 0.06474 0.0
H446 H 0.98424 0.53925 0.04834 0.0
H447 H 0.07112 0.44261 0.98401 0.0
H448 H 0.90128 0.50857 0.06155 0.0
H449 H 0.05849 0.57129 0.98009 0.0
H450 H 0.03553 0.45375 0.98755 0.0
H451 H 0.10382 0.60875 0.97394 0.0
H452 H 0.86831 0.41688 0.0692 0.0
H453 H 0.1182 0.47766 0.9805 0.0
H454 H 0.15143 0.52558 0.97742 0.0
H455 H 0.89046 0.38957 0.06872 0.0
H456 H 0.16039 0.57081 0.97498 0.0
N457 N 0.06213 0.49479 0.98637 0.0
C458 C 0.05593 0.46927 0.98586 0.0
C459 C 0.10263 0.48268 0.98191 0.0
C460 C 0.10871 0.50875 0.98144 0.0
C461 C 0.07607 0.46285 0.98386 0.0
C462 C 0.08771 0.51423 0.98354 0.0
H463 H 0.14274 0.60198 0.97344 0.0
N464 N 0.07191 0.54397 0.98361 0.0
C465 C 0.10101 0.58943 0.97636 0.0
C466 C 0.09279 0.53964 0.98232 0.0
C467 C 0.07541 0.56822 0.97975 0.0
C468 C 0.12294 0.58554 0.97613 0.0
C469 C 0.11895 0.56034 0.97877 0.0
O470 O 0.01921 0.52022 0.96224 0.0
O471 O 0.99457 0.5016 0.01031 0.0
O472 O 0.96895 0.45801 0.02014 0.0
O473 O 1.0 0.46361 0.99421 0.0
O474 O 0.01071 0.53323 0.99018 0.0
O475 O 0.01929 0.4837 0.96257 0.0
O476 O 1.00674 0.47902 0.07318 0.0
O477 O 0.03065 0.49549 0.0239 0.0
O478 O 0.05476 0.53896 0.0144 0.0
O479 O 0.02336 0.53407 0.03987 0.0
O480 O 0.0175 0.46576 0.04503 0.0
O481 O 1.00872 0.51638 0.06998 0.0
C482 C 0.99207 0.52038 1.0037 0.0
C483 C 0.03026 0.50706 0.93063 0.0
C484 C 0.02806 0.50906 0.89243 0.0
C485 C 0.01522 0.50162 0.91209 0.0
C486 C 0.05608 0.52178 0.89157 0.0
C487 C 0.05817 0.51948 0.9294 0.0
C488 C 0.07099 0.52679 0.90996 0.0
C489 C 0.97613 0.44997 1.00315 0.0
C490 C 0.0167 0.50055 0.95113 0.0
C491 C 0.1401 0.55513 0.97746 0.0
C492 C 0.13499 0.52938 0.9788 0.0
C493 C 0.03548 0.47846 0.03105 0.0
C494 C 0.99878 0.49723 0.1036 0.0
C495 C 0.01509 0.50756 0.12146 0.0
C496 C 1.0036 0.50585 0.14137 0.0
C497 C 0.97566 0.49337 0.14318 0.0
C498 C 0.97096 0.4847 0.10581 0.0
C499 C 0.95948 0.48276 0.12551 0.0
C500 C 0.04702 0.54765 0.03058 0.0
C501 C 0.01096 0.50034 0.0827 0.0
H502 H 0.99363 0.49211 0.913 0.0
H503 H 0.06642 0.52754 0.87663 0.0
H504 H 0.07006 0.52365 0.94343 0.0
H505 H 0.09255 0.53644 0.90915 0.0
H506 H 0.03662 0.5174 0.11981 0.0
H507 H 0.96632 0.49163 0.15833 0.0
H508 H 0.95812 0.47657 0.09235 0.0
H509 H 0.93798 0.47309 0.12706 0.0
Eu510 Eu 0.52974 0.51141 0.04997 0.0
C511 C 0.48586 0.55356 0.98045 0.0
C512 C 0.43819 0.5237 0.97864 0.0
C513 C 0.45609 0.56958 0.97038 0.0
C514 C 0.46423 0.52872 0.98304 0.0
C515 C 0.48208 0.57423 0.97387 0.0
C516 C 0.4342 0.54432 0.97262 0.0
C517 C 0.53007 0.60196 0.97279 0.0
N518 N 0.51073 0.55729 0.98351 0.0
C519 C 0.53281 0.58076 0.97899 0.0
C520 C 0.50459 0.59877 0.97044 0.0
Eu521 Eu 0.51358 0.52094 0.99552 0.0
N522 N 0.46879 0.50916 0.98859 0.0
C523 C 0.44852 0.48384 0.98842 0.0
C524 C 0.41704 0.49795 0.97977 0.0
C525 C 0.42231 0.47788 0.98432 0.0
H526 H 0.55253 0.58331 0.98093 0.0
H527 H 0.40618 0.45783 0.98476 0.0
H528 H 0.41431 0.54087 0.96934 0.0
H529 H 0.5476 0.62074 0.96982 0.0
H530 H 0.45239 0.4682 0.99194 0.0
H531 H 0.63865 0.57185 0.05058 0.0
H532 H 0.39672 0.49328 0.97659 0.0
H533 H 0.49169 0.45291 0.07203 0.0
H534 H 0.59241 0.5628 0.04713 0.0
H535 H 0.49651 0.41696 0.08686 0.0
H536 H 0.45275 0.58522 0.96544 0.0
H537 H 0.64748 0.53657 0.06086 0.0
H538 H 0.62934 0.49013 0.07251 0.0
H539 H 0.50252 0.61518 0.96551 0.0
H540 H 0.59061 0.44793 0.08246 0.0
N541 N 0.57493 0.5225 0.05468 0.0
C542 C 0.59584 0.54719 0.05168 0.0
C543 C 0.62707 0.53246 0.05935 0.0
C544 C 0.60557 0.50761 0.06369 0.0
C545 C 0.62217 0.55243 0.05361 0.0
C546 C 0.5794 0.50325 0.06131 0.0
H547 H 0.54105 0.42067 0.08834 0.0
N548 N 0.533 0.47656 0.06499 0.0
C549 C 0.51388 0.43439 0.08112 0.0
C550 C 0.55772 0.47951 0.06668 0.0
C551 C 0.51123 0.45479 0.07272 0.0
C552 C 0.53905 0.43654 0.0819 0.0
C553 C 0.56143 0.45945 0.0749 0.0
O554 O 0.50622 0.50725 0.07818 0.0
O555 O 0.50011 0.51352 0.02885 0.0
O556 O 0.51824 0.55451 0.01588 0.0
O557 O 0.54742 0.55427 0.04077 0.0
O558 O 0.48473 0.48513 0.0518 0.0
O559 O 0.54593 0.54037 0.07531 0.0
O560 O 0.5361 0.52998 0.9661 0.0
O561 O 0.54224 0.51717 0.01632 0.0
O562 O 0.52113 0.47516 0.03185 0.0
O563 O 0.49775 0.47749 1.00262 0.0
O564 O 0.55902 0.54512 0.99345 0.0
O565 O 0.49988 0.49257 0.96985 0.0
C566 C 0.47868 0.4953 0.03643 0.0
C567 C 0.53061 0.52365 0.10945 0.0
C568 C 0.52067 0.52217 0.14694 0.0
C569 C 0.51715 0.52793 0.12614 0.0
C570 C 0.538 0.51246 0.15086 0.0
C571 C 0.54807 0.51423 0.11378 0.0
C572 C 0.55174 0.50872 0.13438 0.0
C573 C 0.53655 0.56614 0.0306 0.0
C574 C 0.52527 0.52763 0.08755 0.0
C575 C 0.58736 0.46322 0.07644 0.0
C576 C 0.6094 0.48726 0.0708 0.0
C577 C 0.56426 0.53341 0.00814 0.0
C578 C 0.51205 0.50911 0.93522 0.0
C579 C 0.52744 0.50708 0.91895 0.0
C580 C 0.52108 0.50796 0.8977 0.0
C581 C 0.49888 0.5108 0.89307 0.0
C582 C 0.49013 0.51209 0.93023 0.0
C583 C 0.48359 0.51288 0.90924 0.0
C584 C 0.50621 0.46485 0.01485 0.0
C585 C 0.5192 0.5079 0.9572 0.0
H586 H 0.5035 0.53504 0.12292 0.0
H587 H 0.54101 0.50791 0.16674 0.0
H588 H 0.55869 0.51094 0.10123 0.0
H589 H 0.56514 0.50133 0.13757 0.0
H590 H 0.54422 0.50454 0.92291 0.0
H591 H 0.4936 0.51191 0.87695 0.0
H592 H 0.47808 0.51376 0.94252 0.0
H593 H 0.46667 0.51522 0.90547 0.0
Eu594 Eu 0.17036 0.33513 0.3228 0.0
C595 C 0.21009 0.42129 0.39219 0.0
C596 C 0.25755 0.43714 0.39353 0.0
C597 C 0.24084 0.46681 0.40072 0.0
C598 C 0.23119 0.41685 0.38984 0.0
C599 C 0.21455 0.44618 0.39806 0.0
C600 C 0.26231 0.46228 0.3985 0.0
C601 C 0.16672 0.42787 0.39989 0.0
N602 N 0.18503 0.4009 0.38968 0.0
C603 C 0.16336 0.40352 0.39425 0.0
C604 C 0.19245 0.4494 0.40154 0.0
Eu605 Eu 0.18066 0.36092 0.37773 0.0
N606 N 0.22585 0.39238 0.38488 0.0
C607 C 0.24582 0.38641 0.38481 0.0
C608 C 0.27822 0.43137 0.39263 0.0
C609 C 0.27228 0.40581 0.38854 0.0
H610 H 0.14344 0.38694 0.39274 0.0
H611 H 0.28808 0.40105 0.3881 0.0
H612 H 0.28246 0.47819 0.40111 0.0
H613 H 0.1495 0.43003 0.40291 0.0
H614 H 0.24163 0.36683 0.38149 0.0
H615 H 0.06365 0.28458 0.30546 0.0
H616 H 0.2987 0.44636 0.39553 0.0
H617 H 0.21498 0.31575 0.31363 0.0
H618 H 0.10767 0.32227 0.31436 0.0
H619 H 0.21552 0.27599 0.30224 0.0
H620 H 0.24472 0.48616 0.40502 0.0
H621 H 0.05924 0.24137 0.29859 0.0
H622 H 0.08153 0.21449 0.29394 0.0
H623 H 0.19502 0.46824 0.40598 0.0
H624 H 0.12295 0.21235 0.29242 0.0
N625 N 0.12765 0.30034 0.31366 0.0
C626 C 0.10594 0.30346 0.31157 0.0
C627 C 0.07856 0.25781 0.30266 0.0
C628 C 0.1013 0.25518 0.30337 0.0
C629 C 0.08098 0.28217 0.30647 0.0
C630 C 0.12593 0.27714 0.3089 0.0
H631 H 0.17308 0.23551 0.29459 0.0
N632 N 0.17264 0.29764 0.31297 0.0
C633 C 0.19672 0.27566 0.30398 0.0
C634 C 0.14916 0.27581 0.30829 0.0
C635 C 0.19637 0.29812 0.31042 0.0
C636 C 0.17271 0.25283 0.29971 0.0
C637 C 0.14851 0.25268 0.30181 0.0
O638 O 0.19609 0.35147 0.29533 0.0
O639 O 0.19601 0.36689 0.34505 0.0
O640 O 0.17211 0.38703 0.35694 0.0
O641 O 0.1506 0.35998 0.32794 0.0
O642 O 0.21622 0.35766 0.32356 0.0
O643 O 0.15615 0.3457 0.29458 0.0
O644 O 0.15671 0.34867 0.40655 0.0
O645 O 0.15337 0.33034 0.35516 0.0
O646 O 0.17167 0.30585 0.3446 0.0
O647 O 0.19726 0.33328 0.3718 0.0
O648 O 0.13556 0.342 0.37769 0.0
O649 O 0.1905 0.34269 0.40332 0.0
C650 C 0.21914 0.37348 0.33866 0.0
C651 C 0.17442 0.34108 0.26244 0.0
C652 C 0.173 0.34476 0.22418 0.0
C653 C 0.17619 0.35581 0.24446 0.0
C654 C 0.16858 0.31919 0.22223 0.0
C655 C 0.16992 0.31563 0.25987 0.0
C656 C 0.16708 0.3048 0.23994 0.0
C657 C 0.15724 0.38096 0.33974 0.0
C658 C 0.17785 0.35223 0.28382 0.0
C659 C 0.1239 0.23042 0.29715 0.0
C660 C 0.10032 0.23164 0.29802 0.0
C661 C 0.13114 0.32653 0.362 0.0
C662 C 0.17818 0.34756 0.43785 0.0
C663 C 0.16333 0.32936 0.45362 0.0
C664 C 0.16974 0.33546 0.47507 0.0
C665 C 0.19138 0.36014 0.48035 0.0
C666 C 0.19953 0.37205 0.44353 0.0
C667 C 0.20608 0.37824 0.46469 0.0
C668 C 0.18653 0.31064 0.36158 0.0
C669 C 0.17136 0.34048 0.41558 0.0
H670 H 0.17959 0.37548 0.24625 0.0
H671 H 0.16639 0.3103 0.2069 0.0
H672 H 0.16885 0.30411 0.27324 0.0
H673 H 0.16372 0.28516 0.23821 0.0
H674 H 0.14699 0.31036 0.44912 0.0
H675 H 0.19668 0.36568 0.49663 0.0
H676 H 0.21114 0.38631 0.43162 0.0
H677 H 0.22257 0.3972 0.46899 0.0
Eu678 Eu 0.70013 0.84346 0.31404 0.0
C679 C 0.61451 0.81424 0.38096 0.0
C680 C 0.60276 0.8482 0.37946 0.0
C681 C 0.56955 0.80436 0.39013 0.0
C682 C 0.62144 0.83974 0.37652 0.0
C683 C 0.58863 0.79639 0.38825 0.0
C684 C 0.57663 0.83025 0.38582 0.0
C685 C 0.6035 0.76535 0.39426 0.0
N686 N 0.63367 0.80744 0.37973 0.0
C687 C 0.62903 0.78396 0.38745 0.0
C688 C 0.58308 0.77146 0.39436 0.0
Eu689 Eu 0.6763 0.83992 0.36763 0.0
N690 N 0.64699 0.85673 0.3708 0.0
C691 C 0.65566 0.88277 0.36908 0.0
C692 C 0.61123 0.8747 0.3768 0.0
C693 C 0.63792 0.89213 0.37196 0.0
H694 H 0.64491 0.77932 0.38751 0.0
H695 H 0.64478 0.91273 0.37024 0.0
H696 H 0.56193 0.83633 0.38793 0.0
H697 H 0.59964 0.74641 0.39956 0.0
H698 H 0.67619 0.89638 0.36518 0.0
H699 H 0.65317 0.75714 0.26337 0.0
H700 H 0.5975 0.88198 0.37895 0.0
H701 H 0.7651 0.87994 0.32587 0.0
H702 H 0.65742 0.79605 0.28176 0.0
H703 H 0.80569 0.87607 0.32591 0.0
H704 H 0.5495 0.79088 0.39553 0.0
H705 H 0.68905 0.7461 0.26651 0.0
H706 H 0.73504 0.75864 0.27943 0.0
H707 H 0.5634 0.75714 0.39991 0.0
H708 H 0.7767 0.79113 0.2966 0.0
N709 N 0.69464 0.80598 0.29584 0.0
C710 C 0.67311 0.79126 0.28317 0.0
C711 C 0.69092 0.76306 0.27466 0.0
C712 C 0.71391 0.77952 0.2862 0.0
C713 C 0.67065 0.76926 0.27279 0.0
C714 C 0.71535 0.80135 0.29649 0.0
H715 H 0.80347 0.83531 0.31354 0.0
N716 N 0.74005 0.84156 0.31406 0.0
C717 C 0.78696 0.85998 0.32038 0.0
C718 C 0.73878 0.81967 0.30603 0.0
C719 C 0.76391 0.8621 0.32034 0.0
C720 C 0.7856 0.8369 0.31347 0.0
C721 C 0.76145 0.81661 0.3057 0.0
O722 O 0.7288 0.87189 0.29188 0.0
O723 O 0.67447 0.85277 0.33499 0.0
O724 O 0.64744 0.80273 0.34976 0.0
O725 O 0.67531 0.801 0.32417 0.0
O726 O 0.65742 0.83236 0.30717 0.0
O727 O 0.6869 0.85185 0.28439 0.0
O728 O 0.6882 0.83052 0.39746 0.0
O729 O 0.71011 0.84341 0.34795 0.0
O730 O 0.72456 0.88441 0.32774 0.0
O731 O 0.70932 0.88189 0.3622 0.0
O732 O 0.69434 0.81371 0.3699 0.0
O733 O 0.68871 0.8671 0.39407 0.0
C734 C 0.65362 0.8428 0.32364 0.0
C735 C 0.71619 0.8572 0.25674 0.0
C736 C 0.70177 0.84183 0.22086 0.0
C737 C 0.69952 0.85355 0.23946 0.0
C738 C 0.72119 0.83426 0.21951 0.0
C739 C 0.73578 0.8498 0.25491 0.0
C740 C 0.73823 0.83846 0.23639 0.0
C741 C 0.6532 0.78986 0.33555 0.0
C742 C 0.71103 0.86589 0.27717 0.0
C743 C 0.7596 0.794 0.29676 0.0
C744 C 0.73587 0.77549 0.28699 0.0
C745 C 0.71322 0.82571 0.35637 0.0
C746 C 0.68073 0.84862 0.42802 0.0
C747 C 0.69565 0.84793 0.44504 0.0
C748 C 0.68602 0.84541 0.4657 0.0
C749 C 0.66116 0.8437 0.4691 0.0
C750 C 0.65584 0.84665 0.43161 0.0
C751 C 0.64615 0.84422 0.45211 0.0
C752 C 0.72519 0.89489 0.34631 0.0
C753 C 0.69186 0.85167 0.40678 0.0
H754 H 0.68412 0.85884 0.24078 0.0
H755 H 0.72327 0.82522 0.20532 0.0
H756 H 0.74884 0.8522 0.26792 0.0
H757 H 0.75317 0.83258 0.23522 0.0
H758 H 0.715 0.84973 0.44216 0.0
H759 H 0.65317 0.84157 0.48484 0.0
H760 H 0.64401 0.84713 0.41866 0.0
H761 H 0.62695 0.84273 0.45484 0.0
Eu762 Eu 0.19485 0.85421 0.37308 0.0
C763 C 0.14191 0.8703 0.29313 0.0
C764 C 0.09522 0.83743 0.29665 0.0
C765 C 0.10772 0.87771 0.27798 0.0
C766 C 0.12243 0.84624 0.30054 0.0
C767 C 0.13481 0.88609 0.28142 0.0
C768 C 0.08796 0.85345 0.28561 0.0
C769 C 0.18182 0.91648 0.27621 0.0
N770 N 0.16789 0.8779 0.29678 0.0
C771 C 0.18787 0.90011 0.28785 0.0
C772 C 0.15517 0.90959 0.27317 0.0
Eu773 Eu 0.17653 0.84937 0.31676 0.0
N774 N 0.13008 0.83123 0.31122 0.0
C775 C 0.11159 0.80659 0.31741 0.0
C776 C 0.07611 0.81266 0.30379 0.0
C777 C 0.08437 0.7971 0.31406 0.0
H778 H 0.20849 0.90545 0.29025 0.0
H779 H 0.06977 0.77781 0.31945 0.0
H780 H 0.06715 0.8471 0.28261 0.0
H781 H 0.1977 0.93437 0.26957 0.0
H782 H 0.1176 0.79437 0.32547 0.0
H783 H 0.30097 0.92782 0.36659 0.0
H784 H 0.05501 0.80525 0.30123 0.0
H785 H 0.16704 0.8007 0.40313 0.0
H786 H 0.25273 0.91087 0.36415 0.0
H787 H 0.18035 0.77245 0.42195 0.0
H788 H 0.10185 0.88966 0.26916 0.0
H789 H 0.31803 0.90012 0.38081 0.0
H790 H 0.30832 0.85806 0.39786 0.0
H791 H 0.15053 0.92227 0.2641 0.0
H792 H 0.27549 0.81574 0.41301 0.0
N793 N 0.24197 0.87335 0.37641 0.0
C794 C 0.2596 0.89843 0.37052 0.0
C795 C 0.29669 0.8925 0.37984 0.0
C796 C 0.2786 0.86747 0.38711 0.0
C797 C 0.28714 0.90822 0.37186 0.0
C798 C 0.251 0.85843 0.38533 0.0
H799 H 0.22778 0.78387 0.4224 0.0
N800 N 0.20638 0.82723 0.3926 0.0
C801 C 0.19525 0.78979 0.41397 0.0
C802 C 0.23261 0.83461 0.39369 0.0
C803 C 0.1878 0.80584 0.4034 0.0
C804 C 0.22202 0.79627 0.41413 0.0
C805 C 0.24117 0.81917 0.40426 0.0
O806 O 0.17571 0.85007 0.40374 0.0
O807 O 0.16417 0.85004 0.34994 0.0
O808 O 0.18068 0.88704 0.32908 0.0
O809 O 0.20642 0.89426 0.35921 0.0
O810 O 0.14973 0.82874 0.37696 0.0
O811 O 0.20528 0.88831 0.3927 0.0
O812 O 0.1994 0.85347 0.2882 0.0
O813 O 0.20676 0.8523 0.33994 0.0
O814 O 0.18516 0.81392 0.36235 0.0
O815 O 0.16449 0.809 0.32965 0.0
O816 O 0.22148 0.87616 0.3141 0.0
O817 O 0.16372 0.81663 0.29498 0.0
C818 C 0.14285 0.83501 0.35965 0.0
C819 C 0.20208 0.88145 0.42946 0.0
C820 C 0.19855 0.88917 0.46682 0.0
C821 C 0.1868 0.88133 0.44679 0.0
C822 C 0.22562 0.89678 0.46932 0.0
C823 C 0.22899 0.88874 0.43241 0.0
C824 C 0.24063 0.89635 0.45225 0.0
C825 C 0.1954 0.90202 0.34476 0.0
C826 C 0.19004 0.87479 0.40833 0.0
C827 C 0.26854 0.82747 0.40519 0.0
C828 C 0.28723 0.85157 0.39658 0.0
C829 C 0.22809 0.86827 0.33069 0.0
C830 C 0.17482 0.82796 0.25916 0.0
C831 C 0.19128 0.82645 0.24358 0.0
C832 C 0.18477 0.82528 0.22209 0.0
C833 C 0.16131 0.82551 0.21659 0.0
C834 C 0.1515 0.828 0.25327 0.0
C835 C 0.14482 0.82677 0.23209 0.0
C836 C 0.17161 0.79987 0.34588 0.0
C837 C 0.18265 0.83005 0.2814 0.0
H838 H 0.16602 0.87571 0.4446 0.0
H839 H 0.23508 0.90274 0.48458 0.0
H840 H 0.24107 0.88881 0.41935 0.0
H841 H 0.26141 0.90206 0.45438 0.0
H842 H 0.20907 0.82605 0.24828 0.0
H843 H 0.15587 0.82518 0.20028 0.0
H844 H 0.13848 0.82901 0.26499 0.0
H845 H 0.12688 0.82699 0.22764 0.0
Eu846 Eu 0.83851 0.6626 0.65643 0.0
C847 C 0.88361 0.74374 0.7267 0.0
C848 C 0.93065 0.75755 0.72409 0.0
C849 C 0.91709 0.78879 0.73443 0.0
C850 C 0.90358 0.73799 0.72194 0.0
C851 C 0.89024 0.76896 0.73371 0.0
C852 C 0.93726 0.78308 0.72965 0.0
C853 C 0.84363 0.75236 0.74166 0.0
N854 N 0.85781 0.72421 0.72616 0.0
C855 C 0.83809 0.72769 0.73474 0.0
C856 C 0.86976 0.77325 0.7407 0.0
Eu857 Eu 0.84977 0.68374 0.71229 0.0
N858 N 0.89664 0.71304 0.7166 0.0
C859 C 0.916 0.70621 0.71476 0.0
C860 C 0.95036 0.75072 0.7214 0.0
C861 C 0.94299 0.72491 0.71696 0.0
H862 H 0.81784 0.71152 0.73542 0.0
H863 H 0.95813 0.71937 0.71521 0.0
H864 H 0.95795 0.79837 0.73099 0.0
H865 H 0.82777 0.75523 0.7477 0.0
H866 H 0.91134 0.68658 0.71136 0.0
H867 H 0.7304 0.62041 0.65034 0.0
H868 H 0.97128 0.76504 0.7234 0.0
H869 H 0.87675 0.63897 0.63852 0.0
H870 H 0.7769 0.65543 0.65591 0.0
H871 H 0.87116 0.59755 0.62399 0.0
H872 H 0.92252 0.80836 0.73945 0.0
H873 H 0.7207 0.57591 0.64084 0.0
H874 H 0.738 0.54578 0.63133 0.0
H875 H 0.87406 0.79234 0.74619 0.0
H876 H 0.77629 0.53957 0.62403 0.0
N877 N 0.79337 0.63081 0.65042 0.0
C878 C 0.77298 0.63612 0.65177 0.0
C879 C 0.74118 0.59119 0.64334 0.0
C880 C 0.76233 0.5863 0.64069 0.0
C881 C 0.74657 0.61631 0.64863 0.0
C882 C 0.7886 0.60681 0.64432 0.0
H883 H 0.82591 0.55904 0.62046 0.0
N884 N 0.83519 0.62353 0.6436 0.0
C885 C 0.85387 0.59879 0.6288 0.0
C886 C 0.81012 0.60307 0.64074 0.0
C887 C 0.85699 0.62213 0.63701 0.0
C888 C 0.82828 0.57707 0.62689 0.0
C889 C 0.806 0.57908 0.6327 0.0
O890 O 0.86177 0.67606 0.62739 0.0
O891 O 0.86425 0.69345 0.6793 0.0
O892 O 0.83316 0.70698 0.69666 0.0
O893 O 0.82301 0.69094 0.6621 0.0
O894 O 0.88419 0.68573 0.65635 0.0
O895 O 0.82404 0.67519 0.62962 0.0
O896 O 0.83434 0.64908 0.73251 0.0
O897 O 0.82246 0.65412 0.6893 0.0
O898 O 0.84541 0.63383 0.67498 0.0
O899 O 0.86756 0.65774 0.70491 0.0
O900 O 0.80488 0.66657 0.71129 0.0
O901 O 0.85128 0.68695 0.74665 0.0
C902 C 0.88721 0.701 0.67195 0.0
C903 C 0.8371 0.66838 0.59585 0.0
C904 C 0.83128 0.67308 0.55824 0.0
C905 C 0.83837 0.68403 0.57864 0.0
C906 C 0.82352 0.64662 0.55534 0.0
C907 C 0.82911 0.64206 0.59231 0.0
C908 C 0.82247 0.63131 0.57224 0.0
C909 C 0.82377 0.70643 0.67759 0.0
C910 C 0.84396 0.67933 0.6174 0.0
C911 C 0.77985 0.55827 0.6299 0.0
C912 C 0.75805 0.56183 0.634 0.0
C913 C 0.8002 0.65007 0.69622 0.0
C914 C 0.81617 0.65209 0.76518 0.0
C915 C 0.81631 0.63864 0.7834 0.0
C916 C 0.7953 0.62991 0.79823 0.0
C917 C 0.77399 0.63437 0.79422 0.0
C918 C 0.79481 0.65659 0.76187 0.0
C919 C 0.7738 0.64757 0.77619 0.0
C920 C 0.85948 0.63724 0.69227 0.0
C921 C 0.83856 0.66197 0.74999 0.0
H922 H 0.84435 0.70437 0.58116 0.0
H923 H 0.81836 0.63775 0.53987 0.0
H924 H 0.82804 0.62969 0.60498 0.0
H925 H 0.81645 0.61097 0.56978 0.0
H926 H 0.83295 0.63547 0.7862 0.0
H927 H 0.75726 0.62743 0.80496 0.0
H928 H 0.79436 0.66726 0.74835 0.0
H929 H 0.75732 0.65095 0.77335 0.0
Eu930 Eu 0.35602 0.17154 0.66023 0.0
C931 C 0.27198 0.14047 0.73406 0.0
C932 C 0.25534 0.17059 0.73096 0.0
C933 C 0.22768 0.12822 0.74715 0.0
C934 C 0.2754 0.16409 0.72729 0.0
C935 C 0.24833 0.12248 0.74449 0.0
C936 C 0.23124 0.1523 0.74048 0.0
C937 C 0.26867 0.09618 0.75144 0.0
N938 N 0.29265 0.13596 0.73191 0.0
C939 C 0.29185 0.11483 0.74126 0.0
C940 C 0.24664 0.09983 0.7528 0.0
Eu941 Eu 0.33134 0.16807 0.71453 0.0
N942 N 0.29924 0.18158 0.71877 0.0
C943 C 0.30506 0.20664 0.71515 0.0
C944 C 0.26049 0.19563 0.7257 0.0
C945 C 0.28562 0.21386 0.71805 0.0
H946 H 0.30892 0.11204 0.74037 0.0
H947 H 0.2901 0.23352 0.71448 0.0
H948 H 0.2155 0.15685 0.74324 0.0
H949 H 0.26787 0.0791 0.75831 0.0
H950 H 0.32449 0.22106 0.70947 0.0
H951 H 0.38906 0.09952 0.66264 0.0
H952 H 0.24555 0.20133 0.72814 0.0
H953 H 0.38638 0.23085 0.63836 0.0
H954 H 0.35686 0.11509 0.66529 0.0
H955 H 0.43097 0.26293 0.62455 0.0
H956 H 0.20928 0.11457 0.75498 0.0
H957 H 0.43586 0.13001 0.65249 0.0
H958 H 0.47052 0.17493 0.6408 0.0
H959 H 0.22881 0.08551 0.7609 0.0
H960 H 0.482 0.21944 0.63056 0.0
N961 N 0.3851 0.15427 0.657 0.0
C962 C 0.3771 0.12863 0.66064 0.0
C963 C 0.42175 0.13696 0.65349 0.0
C964 C 0.42948 0.16287 0.64872 0.0
C965 C 0.39534 0.11969 0.65919 0.0
C966 C 0.41038 0.17098 0.65047 0.0
H967 H 0.46728 0.25229 0.62414 0.0
N968 N 0.39775 0.20282 0.64607 0.0
C969 C 0.42733 0.24425 0.63033 0.0
C970 C 0.41694 0.19607 0.64494 0.0
C971 C 0.40215 0.22608 0.6381 0.0
C972 C 0.44779 0.23819 0.63017 0.0
C973 C 0.44263 0.2137 0.63721 0.0
O974 O 0.34277 0.17931 0.63045 0.0
O975 O 0.32404 0.17141 0.68035 0.0
O976 O 0.30185 0.12954 0.69948 0.0
O977 O 0.32472 0.12955 0.66891 0.0
O978 O 0.34 0.19917 0.6567 0.0
O979 O 0.34006 0.14185 0.63545 0.0
O980 O 0.34933 0.16538 0.74389 0.0
O981 O 0.3623 0.16784 0.69404 0.0
O982 O 0.38632 0.20797 0.67757 0.0
O983 O 0.35944 0.2101 0.70394 0.0
O984 O 0.3507 0.14287 0.71908 0.0
O985 O 0.34724 0.20017 0.73717 0.0
C986 C 0.32222 0.18951 0.67134 0.0
C987 C 0.34557 0.15722 0.60051 0.0
C988 C 0.33415 0.14579 0.56363 0.0
C989 C 0.32638 0.14446 0.58476 0.0
C990 C 0.36144 0.15992 0.55849 0.0
C991 C 0.37273 0.17097 0.59516 0.0
C992 C 0.38058 0.17228 0.57422 0.0
C993 C 0.30492 0.11792 0.6827 0.0
C994 C 0.33674 0.15679 0.62224 0.0
C995 C 0.46205 0.20607 0.63622 0.0
C996 C 0.4555 0.18071 0.642 0.0
C997 C 0.36687 0.1517 0.70334 0.0
C998 C 0.34589 0.18841 0.77284 0.0
C999 C 0.36397 0.19166 0.78878 0.0
C1000 C 0.35718 0.1913 0.81008 0.0
C1001 C 0.33201 0.18814 0.81512 0.0
C1002 C 0.32085 0.18517 0.77813 0.0
C1003 C 0.31405 0.18516 0.79921 0.0
C1004 C 0.38184 0.22064 0.69282 0.0
C1005 C 0.3535 0.18783 0.7509 0.0
H1006 H 0.30537 0.13396 0.5889 0.0
H1007 H 0.36796 0.16111 0.54236 0.0
H1008 H 0.3878 0.18082 0.60706 0.0
H1009 H 0.40157 0.18299 0.57016 0.0
H1010 H 0.38339 0.19446 0.78448 0.0
H1011 H 0.32594 0.18739 0.83133 0.0
H1012 H 0.30661 0.18258 0.76604 0.0
H1013 H 0.29466 0.18255 0.80325 0.0
Eu1014 Eu 0.8538 0.1644 0.71327 0.0
C1015 C 0.82216 0.22027 0.64607 0.0
C1016 C 0.77414 0.19269 0.64434 0.0
C1017 C 0.79448 0.23923 0.63765 0.0
C1018 C 0.79966 0.19598 0.64814 0.0
C1019 C 0.81991 0.24208 0.6403 0.0
C1020 C 0.77162 0.21456 0.63965 0.0
C1021 C 0.86807 0.26722 0.63819 0.0
N1022 N 0.84637 0.22226 0.64854 0.0
C1023 C 0.86924 0.24501 0.64396 0.0
C1024 C 0.84331 0.26587 0.6367 0.0
Eu1025 Eu 0.84693 0.18438 0.65954 0.0
N1026 N 0.80286 0.17528 0.65251 0.0
C1027 C 0.78159 0.15047 0.65165 0.0
C1028 C 0.75207 0.16742 0.64456 0.0
C1029 C 0.75588 0.14618 0.64786 0.0
H1030 H 0.88843 0.24618 0.6454 0.0
H1031 H 0.73901 0.1265 0.6476 0.0
H1032 H 0.75215 0.21246 0.63694 0.0
H1033 H 0.88626 0.28539 0.63506 0.0
H1034 H 0.78421 0.1339 0.65437 0.0
H1035 H 0.96184 0.21984 0.7252 0.0
H1036 H 0.73215 0.16406 0.64158 0.0
H1037 H 0.81065 0.1024 0.72551 0.0
H1038 H 0.91711 0.21383 0.7187 0.0
H1039 H 0.81151 0.063 0.7374 0.0
H1040 H 0.7923 0.25581 0.63345 0.0
H1041 H 0.96723 0.1815 0.73161 0.0
H1042 H 0.9458 0.13309 0.73707 0.0
H1043 H 0.84245 0.28311 0.63227 0.0
H1044 H 0.90485 0.0904 0.74065 0.0
N1045 N 0.89738 0.17237 0.72046 0.0
C1046 C 0.91913 0.1969 0.72141 0.0
C1047 C 0.94753 0.17871 0.72863 0.0
C1048 C 0.92493 0.15375 0.72898 0.0
C1049 C 0.94456 0.20041 0.7251 0.0
C1050 C 0.89977 0.15117 0.72479 0.0
H1051 H 0.85474 0.06441 0.74176 0.0
N1052 N 0.85286 0.12541 0.72283 0.0
C1053 C 0.82999 0.0808 0.7341 0.0
C1054 C 0.87681 0.12699 0.72618 0.0
C1055 C 0.82954 0.10304 0.72733 0.0
C1056 C 0.85445 0.08167 0.73651 0.0
C1057 C 0.87826 0.10498 0.73267 0.0
O1058 O 0.82731 0.155 0.74042 0.0
O1059 O 0.82979 0.17392 0.69172 0.0
O1060 O 0.8551 0.21816 0.68131 0.0
O1061 O 0.87339 0.20878 0.71045 0.0
O1062 O 0.80822 0.14285 0.71117 0.0
O1063 O 0.86809 0.18622 0.74292 0.0
O1064 O 0.87212 0.1957 0.63136 0.0
O1065 O 0.87169 0.17572 0.68115 0.0
O1066 O 0.84739 0.13172 0.69137 0.0
O1067 O 0.82817 0.13971 0.66218 0.0
O1068 O 0.89215 0.20735 0.66171 0.0
O1069 O 0.83503 0.15887 0.63204 0.0
C1070 C 0.80628 0.15753 0.69716 0.0
C1071 C 0.84731 0.16216 0.77388 0.0
C1072 C 0.84297 0.16179 0.8123 0.0
C1073 C 0.84248 0.17235 0.79247 0.0
C1074 C 0.84738 0.1404 0.81295 0.0
C1075 C 0.85285 0.14171 0.77539 0.0
C1076 C 0.85256 0.13072 0.79469 0.0
C1077 C 0.8678 0.2246 0.6996 0.0
C1078 C 0.84566 0.172 0.75291 0.0
C1079 C 0.90332 0.10721 0.73599 0.0
C1080 C 0.92663 0.13152 0.73399 0.0
C1081 C 0.89486 0.19307 0.67562 0.0
C1082 C 0.85024 0.17871 0.59883 0.0
C1083 C 0.86524 0.17613 0.58248 0.0
C1084 C 0.85979 0.17866 0.56128 0.0
C1085 C 0.8391 0.18387 0.5568 0.0
C1086 C 0.82988 0.18413 0.59397 0.0
C1087 C 0.82437 0.18667 0.57304 0.0
C1088 C 0.83469 0.12462 0.67317 0.0
C1089 C 0.8556 0.17492 0.62078 0.0
H1090 H 0.83877 0.18855 0.79149 0.0
H1091 H 0.84689 0.13105 0.82766 0.0
H1092 H 0.85716 0.13394 0.76168 0.0
H1093 H 0.85635 0.11457 0.7955 0.0
H1094 H 0.88085 0.17176 0.58628 0.0
H1095 H 0.8346 0.18627 0.54073 0.0
H1096 H 0.81815 0.18621 0.60633 0.0
H1097 H 0.80861 0.19084 0.56939 0.0
H1098 H 0.32051 0.87551 0.06059 0.0
H1099 H 0.34415 0.81752 0.04902 0.0
H1100 H 0.38775 0.85193 0.03567 0.0
H1101 H 0.35529 0.91681 0.01449 0.0
H1102 H 0.36451 0.94662 0.02861 0.0
H1103 H 0.3342 0.91706 0.03532 0.0
H1104 H 0.35015 0.92183 0.07399 0.0
H1105 H 0.38044 0.95132 0.06736 0.0
H1106 H 0.38208 0.92468 0.07951 0.0
H1107 H 0.43065 0.89335 0.02712 0.0
H1108 H 0.4686 0.93836 0.02314 0.0
H1109 H 0.41674 0.96915 0.03929 0.0
C1110 C 0.33476 0.87003 0.05504 0.0
C1111 C 0.32881 0.84377 0.05574 0.0
C1112 C 0.34804 0.83742 0.04832 0.0
C1113 C 0.37292 0.85685 0.04076 0.0
C1114 C 0.37826 0.88257 0.0405 0.0
C1115 C 0.35962 0.88917 0.04727 0.0
C1116 C 0.37076 0.91839 0.04621 0.0
C1117 C 0.35526 0.92511 0.03021 0.0
C1118 C 0.37087 0.92971 0.06807 0.0
C1119 C 0.39883 0.92727 0.03856 0.0
C1120 C 0.40274 0.90632 0.03515 0.0
C1121 C 0.42762 0.90985 0.0293 0.0
C1122 C 0.44904 0.93545 0.02697 0.0
C1123 C 0.44531 0.95711 0.03028 0.0
C1124 C 0.41989 0.95286 0.03614 0.0
H1125 H 0.14392 0.43752 0.06209 0.0
H1126 H 0.20347 0.51982 0.05761 0.0
H1127 H 0.16912 0.5292 0.04462 0.0
H1128 H 0.1044 0.43526 0.01584 0.0
H1129 H 0.07299 0.41319 0.02814 0.0
H1130 H 0.10267 0.41221 0.03512 0.0
H1131 H 0.09523 0.41897 0.07431 0.0
H1132 H 0.06559 0.42 0.06743 0.0
H1133 H 0.09202 0.44673 0.08178 0.0
H1134 H 0.12822 0.53058 0.03481 0.0
H1135 H 0.08332 0.52358 0.02837 0.0
H1136 H 0.04901 0.44093 0.03983 0.0
C1137 C 0.14981 0.45751 0.05829 0.0
C1138 C 0.17667 0.47787 0.06075 0.0
C1139 C 0.18334 0.50372 0.05546 0.0
C1140 C 0.16388 0.50931 0.04817 0.0
C1141 C 0.13769 0.4889 0.04619 0.0
C1142 C 0.13056 0.46349 0.05101 0.0
C1143 C 0.10065 0.44543 0.04837 0.0
C1144 C 0.09485 0.42533 0.03082 0.0
C1145 C 0.08761 0.43199 0.06922 0.0
C1146 C 0.09203 0.46481 0.04194 0.0
C1147 C 0.11384 0.4897 0.04056 0.0
C1148 C 0.11107 0.5111 0.03562 0.0
C1149 C 0.08538 0.50698 0.03197 0.0
C1150 C 0.06264 0.48177 0.03309 0.0
C1151 C 0.06608 0.4604 0.03835 0.0
H1152 H 0.52615 0.69315 0.05632 0.0
H1153 H 0.61175 0.73357 0.06751 0.0
H1154 H 0.61295 0.69413 0.05704 0.0
H1155 H 0.51078 0.63146 0.07434 0.0
H1156 H 0.48682 0.613 0.05414 0.0
H1157 H 0.49242 0.64476 0.06157 0.0
H1158 H 0.50339 0.66009 0.02288 0.0
H1159 H 0.49761 0.62823 0.01538 0.0
H1160 H 0.52894 0.6569 0.00915 0.0
H1161 H 0.60447 0.64934 0.04917 0.0
H1162 H 0.58736 0.60286 0.04068 0.0
H1163 H 0.50825 0.59209 0.03091 0.0
C1164 C 0.54528 0.69399 0.05614 0.0
C1165 C 0.56878 0.71654 0.06321 0.0
C1166 C 0.59328 0.71645 0.06285 0.0
C1167 C 0.59426 0.69417 0.0567 0.0
C1168 C 0.5707 0.67218 0.0504 0.0
C1169 C 0.54674 0.672 0.04961 0.0
C1170 C 0.52433 0.64554 0.04233 0.0
C1171 C 0.5023 0.63296 0.0591 0.0
C1172 C 0.5129 0.64784 0.02118 0.0
C1173 C 0.53936 0.63075 0.03986 0.0
C1174 C 0.56608 0.64653 0.04466 0.0
C1175 C 0.5837 0.63691 0.045 0.0
C1176 C 0.57378 0.61047 0.0403 0.0
C1177 C 0.54659 0.59404 0.03504 0.0
C1178 C 0.52924 0.6044 0.03458 0.0
H1179 H 0.84059 0.31189 0.99074 0.0
H1180 H 0.86793 0.30875 0.92757 0.0
H1181 H 0.90907 0.3501 0.93394 0.0
H1182 H 0.86533 0.38213 0.98932 0.0
H1183 H 0.87436 0.38689 0.01673 0.0
H1184 H 0.84717 0.35608 0.0078 0.0
H1185 H 0.87016 0.33217 0.02401 0.0
H1186 H 0.8973 0.36298 0.03288 0.0
H1187 H 0.90399 0.34192 0.01656 0.0
H1188 H 0.94809 0.39095 0.94705 0.0
H1189 H 0.98073 0.43127 0.96493 0.0
H1190 H 0.92661 0.41182 0.01795 0.0
C1191 C 0.85498 0.31987 0.9781 0.0
C1192 C 0.8509 0.3062 0.95879 0.0
C1193 C 0.87066 0.31783 0.94285 0.0
C1194 C 0.89414 0.34164 0.94619 0.0
C1195 C 0.89759 0.35425 0.96538 0.0
C1196 C 0.8784 0.34412 0.98094 0.0
C1197 C 0.88687 0.36244 0.9998 0.0
C1198 C 0.86726 0.37248 1.00363 0.0
C1199 C 0.88975 0.34907 0.01947 0.0
C1200 C 0.91383 0.38425 0.99235 0.0
C1201 C 0.91967 0.37886 0.97255 0.0
C1202 C 0.94366 0.39551 0.96251 0.0
C1203 C 0.96215 0.41842 0.97288 0.0
C1204 C 0.95651 0.42486 0.99303 0.0
C1205 C 0.93183 0.40747 1.00276 0.0
H1206 H 0.70929 0.56694 0.96699 0.0
H1207 H 0.68788 0.48786 0.98418 0.0
H1208 H 0.64537 0.48085 0.99885 0.0
H1209 H 0.67914 0.57976 0.01299 0.0
H1210 H 0.66757 0.59821 0.99835 0.0
H1211 H 0.69713 0.59771 0.98999 0.0
H1212 H 0.67621 0.58133 0.95314 0.0
H1213 H 0.64669 0.58187 0.96143 0.0
H1214 H 0.64395 0.55222 0.95102 0.0
H1215 H 0.60397 0.48119 0.00996 0.0
H1216 H 0.56661 0.48904 0.0165 0.0
H1217 H 0.61415 0.56807 0.99324 0.0
C1218 C 0.69566 0.54818 0.97387 0.0
C1219 C 0.70224 0.52808 0.97461 0.0
C1220 C 0.68373 0.5038 0.98377 0.0
C1221 C 0.65939 0.49955 0.9921 0.0
C1222 C 0.65363 0.51974 0.99126 0.0
C1223 C 0.67119 0.5436 0.98241 0.0
C1224 C 0.65966 0.56175 0.98313 0.0
C1225 C 0.67691 0.58578 0.99694 0.0
C1226 C 0.65643 0.56976 0.96085 0.0
C1227 C 0.63272 0.54416 0.99333 0.0
C1228 C 0.62977 0.52007 0.998 0.0
C1229 C 0.60624 0.50013 0.00666 0.0
C1230 C 0.5851 0.50485 0.0105 0.0
C1231 C 0.58763 0.52943 1.00605 0.0
C1232 C 0.61184 0.54928 0.9973 0.0
H1233 H 0.50019 0.17904 0.99161 0.0
H1234 H 0.41948 0.13672 0.96683 0.0
H1235 H 0.41619 0.09519 0.97737 0.0
H1236 H 0.52073 0.13592 0.97582 0.0
H1237 H 0.53967 0.13863 0.99908 0.0
H1238 H 0.53505 0.16536 0.99144 0.0
H1239 H 0.51463 0.16464 0.028 0.0
H1240 H 0.5197 0.13814 0.03569 0.0
H1241 H 0.48693 0.13458 0.03752 0.0
H1242 H 0.42392 0.05822 0.98589 0.0
H1243 H 0.44058 0.02842 0.9955 0.0
H1244 H 0.51445 0.09449 0.01771 0.0
C1245 C 0.48151 0.16114 0.98898 0.0
C1246 C 0.4602 0.16122 0.97815 0.0
C1247 C 0.4363 0.1372 0.9747 0.0
C1248 C 0.43414 0.11349 0.98077 0.0
C1249 C 0.45582 0.11406 0.99073 0.0
C1250 C 0.47884 0.13727 0.99525 0.0
C1251 C 0.49958 0.13232 1.00542 0.0
C1252 C 0.52526 0.14373 0.99214 0.0
C1253 C 0.50555 0.14306 0.028 0.0
C1254 C 0.48492 0.10276 1.00522 0.0
C1255 C 0.45972 0.0926 0.99665 0.0
C1256 C 0.44337 0.06589 0.99307 0.0
C1257 C 0.45304 0.04914 0.99843 0.0
C1258 C 0.47864 0.05916 0.00748 0.0
C1259 C 0.49458 0.08627 0.01116 0.0
H1260 H 0.69912 0.16773 0.98694 0.0
H1261 H 0.65328 0.20621 0.97408 0.0
H1262 H 0.61217 0.16642 0.98336 0.0
H1263 H 0.64793 0.10523 0.96272 0.0
H1264 H 0.65381 0.08538 0.98093 0.0
H1265 H 0.68058 0.11744 0.9741 0.0
H1266 H 0.6877 0.12938 0.01342 0.0
H1267 H 0.66012 0.09801 0.02078 0.0
H1268 H 0.66065 0.12756 0.02884 0.0
H1269 H 0.57644 0.1248 0.99685 0.0
H1270 H 0.54552 0.07904 1.00544 0.0
H1271 H 0.61096 0.06297 1.00481 0.0
C1272 C 0.68045 0.16774 0.98582 0.0
C1273 C 0.67998 0.19092 0.9808 0.0
C1274 C 0.65477 0.18951 0.97908 0.0
C1275 C 0.63106 0.16681 0.98415 0.0
C1276 C 0.63237 0.14495 0.99011 0.0
C1277 C 0.65611 0.14467 0.99014 0.0
C1278 C 0.65098 0.11746 0.99565 0.0
C1279 C 0.65879 0.10568 0.97725 0.0
C1280 C 0.66574 0.11813 0.01588 0.0
C1281 C 0.62082 0.10292 0.99899 0.0
C1282 C 0.61083 0.11956 0.99614 0.0
C1283 C 0.58394 0.11146 0.99895 0.0
C1284 C 0.56651 0.08539 1.00414 0.0
C1285 C 0.57577 0.06743 1.00622 0.0
C1286 C 0.60338 0.07636 1.00359 0.0
H1287 H 0.83733 0.46993 0.98496 0.0
H1288 H 0.85533 0.55011 0.9929 0.0
H1289 H 0.90293 0.56386 0.998 0.0
H1290 H 0.87727 0.47085 0.02465 0.0
H1291 H 0.89053 0.45184 0.01281 0.0
H1292 H 0.85804 0.44631 1.00541 0.0
H1293 H 0.86932 0.45544 0.96656 0.0
H1294 H 0.9011 0.45801 0.97205 0.0
H1295 H 0.89976 0.48414 0.95865 0.0
H1296 H 0.9488 0.56881 1.00212 0.0
H1297 H 0.98899 0.56442 1.00595 0.0
H1298 H 0.94012 0.48045 0.99959 0.0
C1299 C 0.85118 0.49044 0.98774 0.0
C1300 C 0.84232 0.50891 0.98855 0.0
C1301 C 0.86145 0.53558 0.99188 0.0
C1302 C 0.88857 0.54356 0.99497 0.0
C1303 C 0.89633 0.52468 0.99472 0.0
C1304 C 0.8782 0.49868 0.99106 0.0
C1305 C 0.8914 0.48206 0.99245 0.0
C1306 C 0.8786 0.46153 0.00987 0.0
C1307 C 0.89033 0.46916 0.97116 0.0
C1308 C 0.91977 0.50272 0.99793 0.0
C1309 C 0.92229 0.52725 0.99869 0.0
C1310 C 0.94696 0.54968 1.00187 0.0
C1311 C 0.96963 0.54702 1.00407 0.0
C1312 C 0.96744 0.52209 1.00377 0.0
C1313 C 0.94215 0.49965 1.00071 0.0
H1314 H 0.52075 0.33844 0.02162 0.0
H1315 H 0.48414 0.31591 0.95993 0.0
H1316 H 0.47532 0.35273 0.96087 0.0
H1317 H 0.47777 0.36136 0.04302 0.0
H1318 H 0.50467 0.3881 0.05693 0.0
H1319 H 0.50566 0.35855 0.05227 0.0
H1320 H 0.55174 0.38511 0.03406 0.0
H1321 H 0.55101 0.41475 0.03883 0.0
H1322 H 0.55537 0.40626 0.01246 0.0
H1323 H 0.47328 0.39426 0.9678 0.0
H1324 H 0.47941 0.43684 0.97956 0.0
H1325 H 0.5198 0.43261 0.03551 0.0
C1326 C 0.5109 0.34115 0.00824 0.0
C1327 C 0.50318 0.32416 0.99069 0.0
C1328 C 0.48991 0.32833 0.97372 0.0
C1329 C 0.48492 0.34931 0.97406 0.0
C1330 C 0.49331 0.36594 0.99146 0.0
C1331 C 0.50607 0.36206 0.00821 0.0
C1332 C 0.51445 0.38338 0.02456 0.0
C1333 C 0.49976 0.37217 0.04543 0.0
C1334 C 0.54495 0.39825 0.02764 0.0
C1335 C 0.50506 0.40031 0.01417 0.0
C1336 C 0.49254 0.38981 0.99526 0.0
C1337 C 0.4829 0.40254 0.98267 0.0
C1338 C 0.48648 0.42675 0.98949 0.0
C1339 C 0.4999 0.43813 0.00861 0.0
C1340 C 0.50903 0.42444 0.02106 0.0
H1341 H 0.19521 0.65453 0.05507 0.0
H1342 H 0.17265 0.71384 0.04748 0.0
H1343 H 0.125 0.67923 0.04651 0.0
H1344 H 0.15077 0.61234 0.01759 0.0
H1345 H 0.14403 0.58289 0.031 0.0
H1346 H 0.17555 0.6123 0.03468 0.0
H1347 H 0.16798 0.60955 0.07499 0.0
H1348 H 0.13647 0.57993 0.0715 0.0
H1349 H 0.13782 0.60718 0.08543 0.0
H1350 H 0.07934 0.63655 0.04271 0.0
H1351 H 0.04229 0.5915 0.03509 0.0
H1352 H 0.09687 0.56222 0.04343 0.0
C1353 C 0.18036 0.66043 0.05332 0.0
C1354 C 0.18784 0.68702 0.05125 0.0
C1355 C 0.16752 0.69368 0.04935 0.0
C1356 C 0.14037 0.6741 0.04869 0.0
C1357 C 0.13388 0.64799 0.05 0.0
C1358 C 0.15347 0.64128 0.05227 0.0
C1359 C 0.14205 0.61208 0.05123 0.0
C1360 C 0.15379 0.60447 0.03252 0.0
C1361 C 0.14633 0.60158 0.07203 0.0
C1362 C 0.11295 0.60326 0.0478 0.0
C1363 C 0.10831 0.62403 0.04737 0.0
C1364 C 0.08282 0.6202 0.0433 0.0
C1365 C 0.06187 0.59462 0.03912 0.0
C1366 C 0.06681 0.57349 0.03881 0.0
C1367 C 0.0925 0.57795 0.04361 0.0
H1368 H 0.3736 0.54224 0.05616 0.0
H1369 H 0.31035 0.46146 0.04862 0.0
H1370 H 0.34439 0.44891 0.04183 0.0
H1371 H 0.41146 0.54045 0.01263 0.0
H1372 H 0.4439 0.56155 0.02398 0.0
H1373 H 0.41588 0.56548 0.03103 0.0
H1374 H 0.42101 0.55955 0.07032 0.0
H1375 H 0.45031 0.55742 0.06432 0.0
H1376 H 0.42331 0.53177 0.07902 0.0
H1377 H 0.38604 0.44491 0.03814 0.0
H1378 H 0.43127 0.45038 0.03489 0.0
H1379 H 0.46617 0.53434 0.03816 0.0
C1380 C 0.36645 0.52189 0.05269 0.0
C1381 C 0.33873 0.50298 0.05296 0.0
C1382 C 0.33116 0.4765 0.04902 0.0
C1383 C 0.35044 0.46914 0.04488 0.0
C1384 C 0.37731 0.48846 0.04422 0.0
C1385 C 0.38526 0.51435 0.04779 0.0
C1386 C 0.41529 0.53157 0.04533 0.0
C1387 C 0.42207 0.55092 0.02716 0.0
C1388 C 0.42823 0.54591 0.06598 0.0
C1389 C 0.42312 0.51125 0.04014 0.0
C1390 C 0.40095 0.48644 0.03992 0.0
C1391 C 0.40341 0.46427 0.0377 0.0
C1392 C 0.42912 0.46753 0.03583 0.0
C1393 C 0.45198 0.49276 0.03538 0.0
C1394 C 0.4489 0.5149 0.03744 0.0
H1395 H 0.49823 0.83921 0.06743 0.0
H1396 H 0.56226 0.84512 0.02797 0.0
H1397 H 0.57444 0.89036 0.01858 0.0
H1398 H 0.478 0.87416 0.03463 0.0
H1399 H 0.4711 0.89029 0.05578 0.0
H1400 H 0.46839 0.859 0.0601 0.0
H1401 H 0.50175 0.87841 0.09113 0.0
H1402 H 0.50457 0.9098 0.08685 0.0
H1403 H 0.53409 0.90678 0.08686 0.0
H1404 H 0.57579 0.93281 0.01018 0.0
H1405 H 0.5689 0.97074 1.00612 0.0
H1406 H 0.50684 0.93867 0.05349 0.0
C1407 C 0.51499 0.85017 0.05698 0.0
C1408 C 0.52934 0.83875 0.04838 0.0
C1409 C 0.55118 0.85364 0.03483 0.0
C1410 C 0.55816 0.87928 0.02937 0.0
C1411 C 0.54339 0.88987 0.03792 0.0
C1412 C 0.5225 0.87591 0.05169 0.0
C1413 C 0.50958 0.89163 0.05846 0.0
C1414 C 0.48003 0.87795 0.05184 0.0
C1415 C 0.5127 0.89697 0.08224 0.0
C1416 C 0.52613 0.91644 0.04608 0.0
C1417 C 0.54539 0.91498 0.03416 0.0
C1418 C 0.56131 0.93448 0.01987 0.0
C1419 C 0.55732 0.95592 0.01767 0.0
C1420 C 0.53803 0.95789 0.03001 0.0
C1421 C 0.52249 0.93806 0.04453 0.0
H1422 H 0.01651 0.18236 0.3866 0.0
H1423 H 0.96285 0.21359 0.38473 0.0
H1424 H 0.99829 0.25407 0.36866 0.0
H1425 H 0.07243 0.23912 0.40245 0.0
H1426 H 0.09653 0.23547 0.38693 0.0
H1427 H 0.06582 0.20708 0.39459 0.0
H1428 H 0.05605 0.19334 0.35564 0.0
H1429 H 0.08628 0.22222 0.34754 0.0
H1430 H 0.05458 0.21526 0.33682 0.0
H1431 H 0.04017 0.29308 0.3586 0.0
H1432 H 0.08672 0.32901 0.35569 0.0
H1433 H 0.11498 0.27407 0.36288 0.0
C1434 C 0.01211 0.19746 0.38213 0.0
C1435 C 0.98684 0.1948 0.38666 0.0
C1436 C 0.98198 0.21522 0.38125 0.0
C1437 C 1.00196 0.23821 0.37202 0.0
C1438 C 0.02683 0.2406 0.36818 0.0
C1439 C 0.03207 0.2208 0.37295 0.0
C1440 C 0.06147 0.22974 0.36928 0.0
C1441 C 0.07484 0.22774 0.38952 0.0
C1442 C 0.06478 0.21421 0.35125 0.0
C1443 C 0.07209 0.25803 0.36296 0.0
C1444 C 0.05152 0.26357 0.36197 0.0
C1445 C 0.05634 0.28885 0.35871 0.0
C1446 C 0.08282 0.30914 0.35704 0.0
C1447 C 0.10424 0.30412 0.35829 0.0
C1448 C 0.09883 0.27816 0.36088 0.0
H1449 H 0.81507 0.7763 0.38642 0.0
H1450 H 0.87272 0.85667 0.40186 0.0
H1451 H 0.84122 0.87047 0.38943 0.0
H1452 H 0.7896 0.79173 0.33855 0.0
H1453 H 0.75567 0.76614 0.34284 0.0
H1454 H 0.78303 0.76231 0.35192 0.0
H1455 H 0.76404 0.75386 0.38972 0.0
H1456 H 0.73641 0.75729 0.38088 0.0
H1457 H 0.75715 0.77733 0.40215 0.0
H1458 H 0.80156 0.8749 0.37902 0.0
H1459 H 0.75829 0.87012 0.36814 0.0
H1460 H 0.72689 0.78748 0.35735 0.0
C1461 C 0.82116 0.79684 0.38693 0.0
C1462 C 0.84648 0.81544 0.39506 0.0
C1463 C 0.85366 0.84212 0.39546 0.0
C1464 C 0.83581 0.85013 0.38852 0.0
C1465 C 0.81091 0.8313 0.38088 0.0
C1466 C 0.80371 0.80525 0.3797 0.0
C1467 C 0.7756 0.78896 0.371 0.0
C1468 C 0.776 0.77655 0.34982 0.0
C1469 C 0.75722 0.76814 0.38689 0.0
C1470 C 0.7678 0.80976 0.36813 0.0
C1471 C 0.7885 0.83407 0.37392 0.0
C1472 C 0.78551 0.85607 0.37395 0.0
C1473 C 0.7609 0.85321 0.36768 0.0
C1474 C 0.73971 0.82867 0.36104 0.0
C1475 C 0.74314 0.80663 0.36159 0.0
H1476 H 0.23807 0.03707 0.40282 0.0
H1477 H 0.16655 0.03194 0.37555 0.0
H1478 H 0.16027 0.99491 0.35417 0.0
H1479 H 0.26014 0.01434 0.35834 0.0
H1480 H 0.26893 0.99454 0.37416 0.0
H1481 H 0.27082 0.02357 0.38515 0.0
H1482 H 0.23949 0.99633 0.41558 0.0
H1483 H 0.2377 0.96731 0.40478 0.0
H1484 H 0.20749 0.96832 0.40955 0.0
H1485 H 0.16037 0.95728 0.33628 0.0
H1486 H 0.16305 0.91818 0.32719 0.0
H1487 H 0.23023 0.94334 0.36972 0.0
C1488 C 0.22094 0.02834 0.39252 0.0
C1489 C 0.20331 0.03847 0.39084 0.0
C1490 C 0.18132 0.02591 0.37679 0.0
C1491 C 0.17729 0.00445 0.36458 0.0
C1492 C 0.19493 0.99508 0.36682 0.0
C1493 C 0.21599 0.00626 0.38075 0.0
C1494 C 0.23015 0.99052 0.38194 0.0
C1495 C 0.25924 0.00671 0.37445 0.0
C1496 C 0.2286 0.98 0.40428 0.0
C1497 C 0.21355 0.96863 0.36661 0.0
C1498 C 0.19375 0.97204 0.3577 0.0
C1499 C 0.17576 0.95437 0.34318 0.0
C1500 C 0.17754 0.93221 0.33807 0.0
C1501 C 0.19679 0.92755 0.3478 0.0
C1502 C 0.2153 0.94632 0.362 0.0
H1503 H 0.50938 0.66247 0.3193 0.0
H1504 H 0.55114 0.62367 0.29557 0.0
H1505 H 0.59424 0.66301 0.30348 0.0
H1506 H 0.55436 0.72538 0.29926 0.0
H1507 H 0.55249 0.74317 0.32164 0.0
H1508 H 0.52459 0.71161 0.31521 0.0
H1509 H 0.52568 0.6951 0.35264 0.0
H1510 H 0.55343 0.72677 0.35918 0.0
H1511 H 0.5563 0.69801 0.36241 0.0
H1512 H 0.63285 0.70714 0.31193 0.0
H1513 H 0.6645 0.753 0.3212 0.0
H1514 H 0.59844 0.7635 0.34061 0.0
C1515 C 0.52758 0.66207 0.31611 0.0
C1516 C 0.52674 0.63987 0.30668 0.0
C1517 C 0.55113 0.64044 0.30246 0.0
C1518 C 0.57576 0.66267 0.30705 0.0
C1519 C 0.57585 0.68427 0.31601 0.0
C1520 C 0.55244 0.68416 0.32065 0.0
C1521 C 0.55829 0.71036 0.3297 0.0
C1522 C 0.54675 0.72339 0.3156 0.0
C1523 C 0.5478 0.70737 0.35233 0.0
C1524 C 0.58861 0.72523 0.32919 0.0
C1525 C 0.59827 0.70975 0.32124 0.0
C1526 C 0.62551 0.71936 0.31836 0.0
C1527 C 0.64334 0.74548 0.32359 0.0
C1528 C 0.63398 0.76183 0.33165 0.0
C1529 C 0.60622 0.75139 0.33474 0.0
H1530 H 0.37697 0.90779 0.29511 0.0
H1531 H 0.35691 0.82891 0.31211 0.0
H1532 H 0.31382 0.82081 0.32593 0.0
H1533 H 0.34326 0.91942 0.33895 0.0
H1534 H 0.33106 0.93647 0.32319 0.0
H1535 H 0.36175 0.93741 0.31612 0.0
H1536 H 0.3429 0.91967 0.27898 0.0
H1537 H 0.31232 0.91894 0.28592 0.0
H1538 H 0.31143 0.88972 0.27649 0.0
H1539 H 0.2721 0.82045 0.33775 0.0
H1540 H 0.23325 0.82661 0.34292 0.0
H1541 H 0.27787 0.90411 0.31614 0.0
C1542 C 0.3636 0.88877 0.30168 0.0
C1543 C 0.37114 0.86931 0.30289 0.0
C1544 C 0.35253 0.84468 0.3116 0.0
C1545 C 0.32771 0.83972 0.31943 0.0
C1546 C 0.32118 0.85936 0.31827 0.0
C1547 C 0.33838 0.88328 0.30936 0.0
C1548 C 0.32558 0.90037 0.30891 0.0
C1549 C 0.34137 0.92487 0.32261 0.0
C1550 C 0.3229 0.9076 0.28623 0.0
C1551 C 0.29842 0.88211 0.31856 0.0
C1552 C 0.29654 0.85874 0.32425 0.0
C1553 C 0.2734 0.83871 0.33339 0.0
C1554 C 0.25143 0.84244 0.3364 0.0
C1555 C 0.25261 0.86597 0.33023 0.0
C1556 C 0.27652 0.88604 0.32125 0.0
H1557 H 0.16824 0.51741 0.3124 0.0
H1558 H 0.08613 0.47352 0.29039 0.0
H1559 H 0.08438 0.4327 0.30055 0.0
H1560 H 0.18915 0.4732 0.29763 0.0
H1561 H 0.20854 0.47741 0.32094 0.0
H1562 H 0.20372 0.50359 0.31199 0.0
H1563 H 0.18418 0.50523 0.34831 0.0
H1564 H 0.18912 0.47911 0.35738 0.0
H1565 H 0.15648 0.47591 0.35887 0.0
H1566 H 0.09259 0.39624 0.31028 0.0
H1567 H 0.10895 0.36701 0.32233 0.0
H1568 H 0.18326 0.43434 0.34229 0.0
C1569 C 0.14963 0.49938 0.31004 0.0
C1570 C 0.12751 0.49903 0.3001 0.0
C1571 C 0.10378 0.47462 0.29721 0.0
C1572 C 0.10242 0.4512 0.30318 0.0
C1573 C 0.12466 0.45232 0.31259 0.0
C1574 C 0.14764 0.47579 0.31643 0.0
C1575 C 0.16858 0.47149 0.32711 0.0
C1576 C 0.19399 0.48205 0.3136 0.0
C1577 C 0.17496 0.48366 0.34923 0.0
C1578 C 0.15396 0.44194 0.32816 0.0
C1579 C 0.12872 0.43126 0.31955 0.0
C1580 C 0.11213 0.40436 0.31739 0.0
C1581 C 0.12161 0.38793 0.32418 0.0
C1582 C 0.14722 0.39845 0.33335 0.0
C1583 C 0.16343 0.42579 0.3356 0.0
H1584 H 0.37057 0.49443 0.33049 0.0
H1585 H 0.33491 0.54393 0.3298 0.0
H1586 H 0.29022 0.50525 0.3316 0.0
H1587 H 0.31666 0.4416 0.29753 0.0
H1588 H 0.31799 0.41584 0.31154 0.0
H1589 H 0.34762 0.44743 0.30907 0.0
H1590 H 0.35267 0.44943 0.3492 0.0
H1591 H 0.3223 0.41864 0.35246 0.0
H1592 H 0.32632 0.44748 0.36557 0.0
H1593 H 0.24994 0.46277 0.33654 0.0
H1594 H 0.21472 0.41709 0.33948 0.0
H1595 H 0.27366 0.39236 0.33528 0.0
C1596 C 0.35331 0.497 0.33026 0.0
C1597 C 0.35637 0.52237 0.33041 0.0
C1598 C 0.33319 0.52484 0.33013 0.0
C1599 C 0.30764 0.50295 0.33112 0.0
C1600 C 0.30528 0.47841 0.33191 0.0
C1601 C 0.32727 0.47506 0.33093 0.0
C1602 C 0.31845 0.44608 0.3318 0.0
C1603 C 0.32561 0.43721 0.31126 0.0
C1604 C 0.33064 0.44004 0.3509 0.0
C1605 C 0.28829 0.434 0.33409 0.0
C1606 C 0.28138 0.45323 0.33416 0.0
C1607 C 0.25506 0.44749 0.33643 0.0
C1608 C 0.23511 0.42136 0.33838 0.0
C1609 C 0.24132 0.40105 0.3382 0.0
C1610 C 0.26834 0.4075 0.33575 0.0
H1611 H 0.50085 0.8036 0.31296 0.0
H1612 H 0.52539 0.88585 0.31868 0.0
H1613 H 0.5724 0.89645 0.32126 0.0
H1614 H 0.54342 0.80419 0.3514 0.0
H1615 H 0.55272 0.7823 0.33921 0.0
H1616 H 0.52054 0.77898 0.33398 0.0
H1617 H 0.52762 0.78414 0.29437 0.0
H1618 H 0.55877 0.78465 0.29791 0.0
H1619 H 0.55805 0.81074 0.28393 0.0
H1620 H 0.61746 0.89792 0.32216 0.0
H1621 H 0.65556 0.88981 0.32408 0.0
H1622 H 0.60066 0.80653 0.32257 0.0
C1623 C 0.5159 0.82392 0.31493 0.0
C1624 C 0.50897 0.84384 0.31567 0.0
C1625 C 0.52984 0.87014 0.31772 0.0
C1626 C 0.5567 0.87636 0.31938 0.0
C1627 C 0.56254 0.85612 0.31913 0.0
C1628 C 0.54265 0.8304 0.31701 0.0
C1629 C 0.5539 0.81208 0.31812 0.0
C1630 C 0.54197 0.79327 0.33678 0.0
C1631 C 0.54932 0.79703 0.29734 0.0
C1632 C 0.58328 0.83148 0.32142 0.0
C1633 C 0.58797 0.85683 0.32153 0.0
C1634 C 0.61386 0.87813 0.32267 0.0
C1635 C 0.63537 0.87338 0.32398 0.0
C1636 C 0.63087 0.8476 0.32485 0.0
C1637 C 0.6045 0.82644 0.32308 0.0
H1638 H 0.18516 0.68265 0.29765 0.0
H1639 H 0.14932 0.6396 0.35473 0.0
H1640 H 0.14157 0.67513 0.36711 0.0
H1641 H 0.21945 0.74486 0.32037 0.0
H1642 H 0.21396 0.76165 0.2991 0.0
H1643 H 0.21456 0.73199 0.294 0.0
H1644 H 0.16754 0.71135 0.27716 0.0
H1645 H 0.16688 0.74107 0.2821 0.0
H1646 H 0.14039 0.71042 0.29189 0.0
H1647 H 0.14312 0.71778 0.375 0.0
H1648 H 0.14978 0.76255 0.37632 0.0
H1649 H 0.18183 0.77657 0.3131 0.0
C1650 C 0.17507 0.68054 0.31249 0.0
C1651 C 0.16746 0.65844 0.32521 0.0
C1652 C 0.15485 0.65633 0.34473 0.0
C1653 C 0.15049 0.67641 0.35187 0.0
C1654 C 0.15862 0.69825 0.33913 0.0
C1655 C 0.17025 0.70024 0.31969 0.0
C1656 C 0.17797 0.72612 0.30938 0.0
C1657 C 0.20828 0.74209 0.30549 0.0
C1658 C 0.16225 0.72198 0.28892 0.0
C1659 C 0.16938 0.73861 0.32621 0.0
C1660 C 0.15843 0.72231 0.34332 0.0
C1661 C 0.15113 0.73047 0.36152 0.0
C1662 C 0.1551 0.75592 0.3622 0.0
C1663 C 0.16589 0.77267 0.34471 0.0
C1664 C 0.17285 0.76379 0.32645 0.0
H1665 H 0.85603 0.0063 0.40215 0.0
H1666 H 0.86062 0.05961 0.35371 0.0
H1667 H 0.81731 0.02527 0.33929 0.0
H1668 H 0.8295 0.94997 0.37142 0.0
H1669 H 0.80752 0.92809 0.39127 0.0
H1670 H 0.83751 0.95742 0.39885 0.0
H1671 H 0.80977 0.9718 0.42153 0.0
H1672 H 0.77968 0.94233 0.4142 0.0
H1673 H 0.78247 0.97368 0.40973 0.0
H1674 H 0.77694 0.98267 0.32713 0.0
H1675 H 0.73977 0.93742 0.32125 0.0
H1676 H 0.75936 0.91332 0.37952 0.0
C1677 C 0.84753 0.0109 0.38883 0.0
C1678 C 0.86153 0.03564 0.37909 0.0
C1679 C 0.85 0.04091 0.36155 0.0
C1680 C 0.82552 0.02146 0.35319 0.0
C1681 C 0.81256 0.997 0.36282 0.0
C1682 C 0.8229 0.99189 0.38056 0.0
C1683 C 0.80541 0.96388 0.3877 0.0
C1684 C 0.82091 0.94897 0.38727 0.0
C1685 C 0.79363 0.96287 0.40959 0.0
C1686 C 0.78395 0.95381 0.37093 0.0
C1687 C 0.78854 0.97309 0.35657 0.0
C1688 C 0.77278 0.96764 0.33859 0.0
C1689 C 0.7518 0.94193 0.33532 0.0
C1690 C 0.74643 0.92216 0.35015 0.0
C1691 C 0.7626 0.9283 0.36824 0.0
H1692 H 1.00084 0.80815 0.40224 0.0
H1693 H 0.0124 0.87348 0.36408 0.0
H1694 H 0.05185 0.87516 0.34751 0.0
H1695 H 0.06692 0.83067 0.41331 0.0
H1696 H 0.06626 0.79991 0.41161 0.0
H1697 H 0.03629 0.80055 0.41814 0.0
H1698 H 0.01152 0.76955 0.38695 0.0
H1699 H 0.04139 0.76853 0.38051 0.0
H1700 H 0.02556 0.77811 0.36091 0.0
H1701 H 0.09446 0.87586 0.34055 0.0
H1702 H 0.13453 0.87166 0.33999 0.0
H1703 H 0.09523 0.8034 0.3797 0.0
C1704 C 0.01105 0.822 0.38974 0.0
C1705 C 1.00334 0.84047 0.38419 0.0
C1706 C 0.01777 0.85897 0.36833 0.0
C1707 C 0.04026 0.86012 0.35888 0.0
C1708 C 0.04806 0.84242 0.36524 0.0
C1709 C 0.03364 0.8233 0.37996 0.0
C1710 C 0.04764 0.80792 0.3849 0.0
C1711 C 0.05469 0.80989 0.40838 0.0
C1712 C 0.0305 0.77933 0.3779 0.0
C1713 C 0.07262 0.82216 0.3714 0.0
C1714 C 0.07234 0.84195 0.36019 0.0
C1715 C 0.0944 0.85973 0.34856 0.0
C1716 C 0.11719 0.85709 0.34819 0.0
C1717 C 0.11774 0.83634 0.35873 0.0
C1718 C 0.09506 0.81877 0.37065 0.0
H1719 H 0.15068 0.16289 0.37246 0.0
H1720 H 0.21154 0.18673 0.42059 0.0
H1721 H 0.224 0.23295 0.41494 0.0
H1722 H 0.18533 0.21841 0.33731 0.0
H1723 H 0.15399 0.21676 0.3315 0.0
H1724 H 0.15441 0.18773 0.33882 0.0
H1725 H 0.11963 0.18212 0.36794 0.0
H1726 H 0.12223 0.21275 0.36092 0.0
H1727 H 0.12902 0.2074 0.38748 0.0
H1728 H 0.2274 0.27683 0.40511 0.0
H1729 H 0.22253 0.3134 0.39135 0.0
H1730 H 0.15869 0.25913 0.35044 0.0
C1731 C 0.16663 0.17773 0.38192 0.0
C1732 C 0.18001 0.17107 0.39708 0.0
C1733 C 0.20112 0.19131 0.40875 0.0
C1734 C 0.20821 0.21761 0.40573 0.0
C1735 C 0.19405 0.22331 0.39096 0.0
C1736 C 0.17373 0.20382 0.37925 0.0
C1737 C 0.16076 0.21455 0.36491 0.0
C1738 C 0.16389 0.20907 0.34176 0.0
C1739 C 0.13117 0.20355 0.37068 0.0
C1740 C 0.17711 0.2433 0.37011 0.0
C1741 C 0.19613 0.2481 0.38526 0.0
C1742 C 0.21274 0.27325 0.39309 0.0
C1743 C 0.20981 0.2939 0.38521 0.0
C1744 C 0.19049 0.28928 0.36959 0.0
C1745 C 0.17406 0.26357 0.36204 0.0
H1746 H 0.65279 0.54788 0.73421 0.0
H1747 H 0.6727 0.48708 0.72285 0.0
H1748 H 0.7155 0.51952 0.70727 0.0
H1749 H 0.68511 0.58697 0.68733 0.0
H1750 H 0.69713 0.61757 0.70101 0.0
H1751 H 0.66671 0.58919 0.70941 0.0
H1752 H 0.68612 0.5945 0.74703 0.0
H1753 H 0.71648 0.62288 0.73867 0.0
H1754 H 0.71776 0.59592 0.75051 0.0
H1755 H 0.75794 0.55896 0.69569 0.0
H1756 H 0.79677 0.60262 0.6894 0.0
H1757 H 0.75007 0.63823 0.70815 0.0
C1758 C 0.66603 0.5413 0.72836 0.0
C1759 C 0.65893 0.51466 0.72955 0.0
C1760 C 0.67708 0.5071 0.72166 0.0
C1761 C 0.70164 0.52546 0.71287 0.0
C1762 C 0.708 0.55147 0.71208 0.0
C1763 C 0.69077 0.55943 0.71962 0.0
C1764 C 0.70318 0.58884 0.718 0.0
C1765 C 0.68706 0.59606 0.70305 0.0
C1766 C 0.70605 0.60125 0.73985 0.0
C1767 C 0.7302 0.59615 0.70871 0.0
C1768 C 0.7325 0.57427 0.70527 0.0
C1769 C 0.75616 0.57618 0.69794 0.0
C1770 C 0.7781 0.6011 0.69425 0.0
C1771 C 0.77616 0.62379 0.69757 0.0
C1772 C 0.75185 0.62117 0.70489 0.0
H1773 H 0.47137 0.10528 0.7345 0.0
H1774 H 0.534 0.18295 0.71687 0.0
H1775 H 0.50014 0.19387 0.70564 0.0
H1776 H 0.42562 0.09758 0.69147 0.0
H1777 H 0.39606 0.08065 0.70745 0.0
H1778 H 0.42507 0.07793 0.71325 0.0
H1779 H 0.42567 0.09397 0.75131 0.0
H1780 H 0.3966 0.09661 0.74567 0.0
H1781 H 0.42648 0.12453 0.75552 0.0
H1782 H 0.46005 0.19789 0.69838 0.0
H1783 H 0.41592 0.19407 0.69476 0.0
H1784 H 0.37806 0.11392 0.71618 0.0
C1785 C 0.47794 0.12453 0.7282 0.0
C1786 C 0.50554 0.14309 0.72634 0.0
C1787 C 0.51314 0.1681 0.71803 0.0
C1788 C 0.49401 0.17461 0.7117 0.0
C1789 C 0.46713 0.15596 0.71369 0.0
C1790 C 0.45899 0.13139 0.72164 0.0
C1791 C 0.42866 0.1153 0.72243 0.0
C1792 C 0.41824 0.09145 0.70778 0.0
C1793 C 0.41878 0.10713 0.74508 0.0
C1794 C 0.42119 0.13491 0.7142 0.0
C1795 C 0.44376 0.15818 0.70914 0.0
C1796 C 0.44221 0.1796 0.70195 0.0
C1797 C 0.41694 0.17718 0.69977 0.0
C1798 C 0.3934 0.15341 0.70439 0.0
C1799 C 0.39568 0.13213 0.71199 0.0
H1800 H 0.87946 0.3657 0.71018 0.0
H1801 H 0.89992 0.36419 0.77569 0.0
H1802 H 0.89777 0.32228 0.76974 0.0
H1803 H 0.83041 0.29584 0.7081 0.0
H1804 H 0.83814 0.29208 0.6813 0.0
H1805 H 0.84241 0.32292 0.69017 0.0
H1806 H 0.89176 0.34593 0.67794 0.0
H1807 H 0.88757 0.31507 0.66924 0.0
H1808 H 0.91356 0.33479 0.68773 0.0
H1809 H 0.89538 0.28157 0.75699 0.0
H1810 H 0.88726 0.24136 0.73917 0.0
H1811 H 0.86311 0.26546 0.68289 0.0
C1812 C 0.88328 0.35654 0.72336 0.0
C1813 C 0.89077 0.36907 0.74329 0.0
C1814 C 0.89537 0.35596 0.76001 0.0
C1815 C 0.89392 0.33185 0.75688 0.0
C1816 C 0.88715 0.32047 0.73706 0.0
C1817 C 0.88131 0.33199 0.72065 0.0
C1818 C 0.87326 0.31463 0.7012 0.0
C1819 C 0.84433 0.30585 0.69482 0.0
C1820 C 0.89271 0.32844 0.68295 0.0
C1821 C 0.87579 0.29182 0.70931 0.0
C1822 C 0.88416 0.29587 0.72996 0.0
C1823 C 0.88861 0.27804 0.74085 0.0
C1824 C 0.884 0.25522 0.73049 0.0
C1825 C 0.87465 0.25008 0.70946 0.0
C1826 C 0.87054 0.26878 0.6988 0.0
H1827 H 0.19781 0.99427 0.61656 0.0
H1828 H 0.17611 0.9508 0.67493 0.0
H1829 H 0.21222 0.98901 0.69323 0.0
H1830 H 0.27082 0.031 0.6259 0.0
H1831 H 0.27473 0.06035 0.61407 0.0
H1832 H 0.24864 0.02888 0.60516 0.0
H1833 H 0.21358 0.04303 0.61252 0.0
H1834 H 0.23954 0.07441 0.6216 0.0
H1835 H 0.21153 0.05446 0.63839 0.0
H1836 H 0.24802 0.03284 0.70586 0.0
H1837 H 0.2827 0.07875 0.71157 0.0
H1838 H 0.28211 0.09424 0.64518 0.0
C1839 C 0.20112 0.99258 0.63307 0.0
C1840 C 0.18412 0.96946 0.64431 0.0
C1841 C 0.18875 0.96829 0.66602 0.0
C1842 C 0.20927 0.98989 0.67654 0.0
C1843 C 0.22518 0.01256 0.66515 0.0
C1844 C 0.22156 0.01403 0.64385 0.0
C1845 C 0.24071 0.04118 0.63555 0.0
C1846 C 0.25986 0.04029 0.6192 0.0
C1847 C 0.22542 0.05402 0.62648 0.0
C1848 C 0.25537 0.0548 0.65557 0.0
C1849 C 0.24604 0.0379 0.67244 0.0
C1850 C 0.25556 0.04619 0.69274 0.0
C1851 C 0.27504 0.07242 0.69591 0.0
C1852 C 0.28489 0.09013 0.67893 0.0
C1853 C 0.2751 0.08106 0.65845 0.0
H1854 H 0.04368 0.23691 0.64095 0.0
H1855 H 0.02217 0.15537 0.64369 0.0
H1856 H 0.9787 0.1444 0.6593 0.0
H1857 H 1.00915 0.23759 0.68981 0.0
H1858 H 0.9988 0.25916 0.67882 0.0
H1859 H 0.0294 0.26103 0.6701 0.0
H1860 H 0.01265 0.25421 0.63156 0.0
H1861 H 0.98209 0.25234 0.64021 0.0
H1862 H 0.98099 0.22603 0.625 0.0
H1863 H 0.93534 0.14152 0.67122 0.0
H1864 H 0.89658 0.14737 0.67824 0.0
H1865 H 0.94624 0.23061 0.66825 0.0
C1866 C 0.02996 0.21677 0.64501 0.0
C1867 C 0.03665 0.19709 0.64118 0.0
C1868 C 0.01796 0.17097 0.64681 0.0
C1869 C 0.99306 0.16449 0.65562 0.0
C1870 C 0.98703 0.1843 0.6589 0.0
C1871 C 1.00503 0.20995 0.65386 0.0
C1872 C 0.99312 0.22736 0.65782 0.0
C1873 C 1.00854 0.24748 0.67517 0.0
C1874 C 0.99215 0.24076 0.63744 0.0
C1875 C 0.96533 0.2074 0.66521 0.0
C1876 C 0.96225 0.18269 0.66597 0.0
C1877 C 0.93775 0.16088 0.67108 0.0
C1878 C 0.91582 0.1644 0.6752 0.0
C1879 C 0.91855 0.18956 0.67444 0.0
C1880 C 0.94373 0.21125 0.66949 0.0
H1881 H 0.81447 0.81433 0.60897 0.0
H1882 H 0.79403 0.84022 0.66635 0.0
H1883 H 0.79405 0.804 0.68573 0.0
H1884 H 0.77553 0.74478 0.61845 0.0
H1885 H 0.80035 0.73809 0.60762 0.0
H1886 H 0.79774 0.76538 0.5981 0.0
H1887 H 0.84766 0.79665 0.60678 0.0
H1888 H 0.85042 0.76941 0.61614 0.0
H1889 H 0.8596 0.79718 0.63302 0.0
H1890 H 0.79617 0.76493 0.69872 0.0
H1891 H 0.80387 0.72815 0.70513 0.0
H1892 H 0.82483 0.72874 0.63958 0.0
C1893 C 0.80976 0.8122 0.62558 0.0
C1894 C 0.80403 0.82991 0.63619 0.0
C1895 C 0.79851 0.82686 0.65799 0.0
C1896 C 0.79832 0.80629 0.66906 0.0
C1897 C 0.8039 0.78907 0.65812 0.0
C1898 C 0.80979 0.79196 0.6369 0.0
C1899 C 0.8164 0.77157 0.62908 0.0
C1900 C 0.7963 0.75391 0.61232 0.0
C1901 C 0.84523 0.78448 0.62077 0.0
C1902 C 0.81327 0.75671 0.64921 0.0
C1903 C 0.80586 0.76701 0.66572 0.0
C1904 C 0.80215 0.75685 0.68593 0.0
C1905 C 0.80679 0.73606 0.68947 0.0
C1906 C 0.81536 0.7258 0.67298 0.0
C1907 C 0.81807 0.73598 0.65249 0.0
H1908 H 0.03159 0.82952 0.654 0.0
H1909 H 0.98795 0.87158 0.65016 0.0
H1910 H 0.94595 0.83093 0.6561 0.0
H1911 H 0.97787 0.7705 0.62522 0.0
H1912 H 0.98381 0.74821 0.64036 0.0
H1913 H 0.01085 0.78071 0.6351 0.0
H1914 H 0.01983 0.78706 0.67458 0.0
H1915 H 0.99146 0.75585 0.68114 0.0
H1916 H 0.9946 0.78548 0.69208 0.0
H1917 H 0.90969 0.78804 0.66722 0.0
H1918 H 0.87826 0.7418 0.67404 0.0
H1919 H 0.94198 0.72393 0.6659 0.0
C1920 C 0.01316 0.83006 0.6539 0.0
C1921 C 0.01341 0.85415 0.65246 0.0
C1922 C 0.98863 0.85374 0.65216 0.0
C1923 C 0.96452 0.83067 0.65543 0.0
C1924 C 0.96507 0.80767 0.6581 0.0
C1925 C 0.98844 0.80678 0.65643 0.0
C1926 C 0.98264 0.7788 0.65903 0.0
C1927 C 0.98918 0.76897 0.63871 0.0
C1928 C 0.99802 0.77663 0.67783 0.0
C1929 C 0.95263 0.76455 0.66313 0.0
C1930 C 0.94321 0.78188 0.6628 0.0
C1931 C 0.91667 0.77412 0.6671 0.0
C1932 C 0.89894 0.74775 0.67113 0.0
C1933 C 0.90756 0.72917 0.67055 0.0
C1934 C 0.93485 0.73773 0.66648 0.0
H1935 H 0.16722 0.14122 0.6569 0.0
H1936 H 0.19199 0.21855 0.63219 0.0
H1937 H 0.2382 0.23279 0.64258 0.0
H1938 H 0.21256 0.15921 0.69952 0.0
H1939 H 0.22022 0.13334 0.69572 0.0
H1940 H 0.18808 0.12859 0.68819 0.0
H1941 H 0.19388 0.11721 0.65026 0.0
H1942 H 0.22549 0.12043 0.65746 0.0
H1943 H 0.22362 0.13901 0.63581 0.0
H1944 H 0.28238 0.23797 0.65299 0.0
H1945 H 0.32143 0.23319 0.66106 0.0
H1946 H 0.26895 0.1519 0.67699 0.0
C1947 C 0.18215 0.16115 0.65338 0.0
C1948 C 0.17533 0.17866 0.64364 0.0
C1949 C 0.19602 0.2047 0.64002 0.0
C1950 C 0.22257 0.213 0.64574 0.0
C1951 C 0.22842 0.19505 0.65489 0.0
C1952 C 0.20884 0.16957 0.65845 0.0
C1953 C 0.22072 0.15357 0.66692 0.0
C1954 C 0.20977 0.14306 0.68892 0.0
C1955 C 0.21563 0.13124 0.6517 0.0
C1956 C 0.25014 0.17409 0.66763 0.0
C1957 C 0.25405 0.19792 0.66071 0.0
C1958 C 0.27952 0.21952 0.65864 0.0
C1959 C 0.30157 0.21661 0.66326 0.0
C1960 C 0.2982 0.19236 0.67001 0.0
C1961 C 0.27208 0.17086 0.67245 0.0
H1962 H 0.85253 1.00021 0.66831 0.0
H1963 H 0.81809 0.98321 0.60591 0.0
H1964 H 0.80805 0.01934 0.60957 0.0
H1965 H 0.80503 0.01704 0.69078 0.0
H1966 H 0.82962 0.04189 0.7075 0.0
H1967 H 0.83266 0.01402 0.70043 0.0
H1968 H 0.88006 0.04387 0.68552 0.0
H1969 H 0.87796 0.07214 0.69297 0.0
H1970 H 0.88516 0.06805 0.6661 0.0
H1971 H 0.80588 0.06095 0.61972 0.0
H1972 H 0.81071 0.10165 0.63525 0.0
H1973 H 0.84729 0.08987 0.69036 0.0
C1974 C 0.8427 1.00395 0.65543 0.0
C1975 C 0.83622 0.98906 0.63678 0.0
C1976 C 0.82306 0.99433 0.6204 0.0
C1977 C 0.81741 0.01487 0.62233 0.0
C1978 C 0.82475 0.02965 0.64084 0.0
C1979 C 0.83693 0.02415 0.65712 0.0
C1980 C 0.84329 0.04279 0.67531 0.0
C1981 C 0.82668 0.02806 0.69464 0.0
C1982 C 0.8734 0.05758 0.68025 0.0
C1983 C 0.83422 0.0607 0.6664 0.0
C1984 C 0.82311 0.05272 0.64667 0.0
C1985 C 0.81428 0.06712 0.63527 0.0
C1986 C 0.81714 0.09027 0.64422 0.0
C1987 C 0.82904 0.09898 0.66428 0.0
C1988 C 0.83745 0.08369 0.67535 0.0
H1989 H 0.53126 0.33951 0.6976 0.0
H1990 H 0.50603 0.37283 0.74742 0.0
H1991 H 0.45915 0.33837 0.74153 0.0
H1992 H 0.47247 0.31698 0.66367 0.0
H1993 H 0.47266 0.28759 0.6564 0.0
H1994 H 0.50352 0.31674 0.66278 0.0
H1995 H 0.51319 0.29107 0.69105 0.0
H1996 H 0.4823 0.262 0.68472 0.0
H1997 H 0.48884 0.27406 0.71136 0.0
H1998 H 0.41542 0.29768 0.7323 0.0
H1999 H 0.37891 0.25472 0.72071 0.0
H2000 H 0.43352 0.24721 0.67811 0.0
C2001 C 0.51594 0.33973 0.70727 0.0
C2002 C 0.5225 0.35898 0.72306 0.0
C2003 C 0.50161 0.35861 0.73505 0.0
C2004 C 0.4749 0.33899 0.73188 0.0
C2005 C 0.46934 0.31992 0.71661 0.0
C2006 C 0.48932 0.32023 0.70445 0.0
C2007 C 0.47845 0.29665 0.69 0.0
C2008 C 0.48198 0.305 0.66684 0.0
C2009 C 0.49147 0.27996 0.69457 0.0
C2010 C 0.44929 0.28261 0.69628 0.0
C2011 C 0.44434 0.29648 0.71146 0.0
C2012 C 0.41906 0.28683 0.72028 0.0
C2013 C 0.39843 0.26232 0.7136 0.0
C2014 C 0.40317 0.24754 0.69832 0.0
C2015 C 0.42898 0.2581 0.68948 0.0
H2016 H 0.65652 0.13436 0.70762 0.0
H2017 H 0.69455 0.21704 0.72233 0.0
H2018 H 0.73868 0.22075 0.71952 0.0
H2019 H 0.70735 0.12459 0.73789 0.0
H2020 H 0.70582 0.10074 0.71934 0.0
H2021 H 0.67677 0.1039 0.72392 0.0
H2022 H 0.67413 0.11038 0.68422 0.0
H2023 H 0.70389 0.10861 0.67928 0.0
H2024 H 0.70207 0.13681 0.671 0.0
H2025 H 0.77823 0.2177 0.70978 0.0
H2026 H 0.81251 0.20596 0.70228 0.0
H2027 H 0.75146 0.12431 0.69765 0.0
C2028 C 0.67413 0.15298 0.71093 0.0
C2029 C 0.67205 0.17553 0.71489 0.0
C2030 C 0.69563 0.1996 0.719 0.0
C2031 C 0.72084 0.20196 0.71735 0.0
C2032 C 0.72238 0.17988 0.71222 0.0
C2033 C 0.69981 0.15561 0.70989 0.0
C2034 C 0.70774 0.13515 0.70486 0.0
C2035 C 0.6989 0.11489 0.72256 0.0
C2036 C 0.69629 0.12196 0.68357 0.0
C2037 C 0.73809 0.15201 0.70403 0.0
C2038 C 0.74586 0.1778 0.70803 0.0
C2039 C 0.77247 0.1975 0.707 0.0
C2040 C 0.79187 0.19064 0.70244 0.0
C2041 C 0.78478 0.16427 0.69915 0.0
C2042 C 0.75745 0.14466 0.70006 0.0
H2043 H 0.83638 0.49249 0.69047 0.0
H2044 H 0.88291 0.51117 0.74783 0.0
H2045 H 0.89306 0.55694 0.74526 0.0
H2046 H 0.87867 0.55452 0.66441 0.0
H2047 H 0.85086 0.55504 0.65238 0.0
H2048 H 0.84883 0.52432 0.65797 0.0
H2049 H 0.8057 0.50994 0.67968 0.0
H2050 H 0.8074 0.5405 0.67394 0.0
H2051 H 0.80602 0.53047 0.70085 0.0
H2052 H 0.89533 0.60031 0.73759 0.0
H2053 H 0.88973 0.63694 0.72553 0.0
H2054 H 0.84043 0.5889 0.67397 0.0
C2055 C 0.84872 0.50614 0.70254 0.0
C2056 C 0.85883 0.49808 0.71937 0.0
C2057 C 0.87524 0.51683 0.73459 0.0
C2058 C 0.88098 0.54289 0.73334 0.0
C2059 C 0.87027 0.54999 0.71672 0.0
C2060 C 0.85453 0.53211 0.70159 0.0
C2061 C 0.84488 0.54441 0.68558 0.0
C2062 C 0.85651 0.54458 0.6638 0.0
C2063 C 0.81418 0.5305 0.685 0.0
C2064 C 0.85677 0.57177 0.69449 0.0
C2065 C 0.87168 0.57478 0.71229 0.0
C2066 C 0.88389 0.59819 0.72356 0.0
C2067 C 0.88056 0.61892 0.71657 0.0
C2068 C 0.86495 0.61611 0.69855 0.0
C2069 C 0.85308 0.59213 0.68742 0.0
H2070 H 0.41626 0.9017 0.23262 0.0
H2071 H 0.48901 0.92628 0.26822 0.0
H2072 H 0.51533 0.95583 0.23958 0.0
H2073 H 0.44438 0.90334 0.18121 0.0
H2074 H 0.42585 0.9161 0.16794 0.0
H2075 H 0.41219 0.89628 0.19107 0.0
H2076 H 0.40714 0.93305 0.20886 0.0
H2077 H 0.42058 0.95288 0.18573 0.0
H2078 H 0.43583 0.96535 0.21097 0.0
H2079 H 0.53408 0.98324 0.20791 0.0
H2080 H 0.54417 0.00841 0.17506 0.0
H2081 H 0.46008 0.96706 0.15882 0.0
C2082 C 0.4377 0.91341 0.23441 0.0
C2083 C 0.45054 0.91135 0.25269 0.0
C2084 C 0.47869 0.92702 0.2543 0.0
C2085 C 0.49386 0.94399 0.23812 0.0
C2086 C 0.48072 0.94527 0.22027 0.0
C2087 C 0.4533 0.93054 0.21826 0.0
C2088 C 0.4444 0.93616 0.19739 0.0
C2089 C 0.4309 0.9115 0.18359 0.0
C2090 C 0.42589 0.94754 0.20096 0.0
C2091 C 0.47109 0.95645 0.18814 0.0
C2092 C 0.49171 0.96125 0.20169 0.0
C2093 C 0.51813 0.9796 0.19714 0.0
C2094 C 0.52367 0.9938 0.17844 0.0
C2095 C 0.50298 0.98964 0.16437 0.0
C2096 C 0.47634 0.97039 0.16916 0.0
H2097 H 0.10826 0.5209 0.22983 0.0
H2098 H 0.08428 0.56927 0.26444 0.0
H2099 H 0.05528 0.56634 0.23492 0.0
H2100 H 0.10861 0.54697 0.17778 0.0
H2101 H 0.09557 0.5157 0.16496 0.0
H2102 H 0.11562 0.52277 0.18831 0.0
H2103 H 0.0777 0.48157 0.20622 0.0
H2104 H 0.05758 0.47436 0.18293 0.0
H2105 H 0.04474 0.4776 0.20792 0.0
H2106 H 0.02651 0.55561 0.20291 0.0
H2107 H 1.0008 0.53879 0.17 0.0
H2108 H 0.04383 0.498 0.15568 0.0
C2109 C 0.09695 0.53093 0.23117 0.0
C2110 C 0.09857 0.54537 0.24946 0.0
C2111 C 0.08362 0.55838 0.25051 0.0
C2112 C 0.06702 0.55674 0.23385 0.0
C2113 C 0.06571 0.54218 0.21616 0.0
C2114 C 0.08038 0.52963 0.21463 0.0
C2115 C 0.07482 0.51471 0.19407 0.0
C2116 C 0.10017 0.5257 0.18048 0.0
C2117 C 0.063 0.48532 0.19803 0.0
C2118 C 0.05435 0.52045 0.18446 0.0
C2119 C 0.04943 0.53637 0.19747 0.0
C2120 C 0.03039 0.54336 0.1925 0.0
C2121 C 0.01583 0.53366 0.17384 0.0
C2122 C 0.02047 0.51725 0.1603 0.0
C2123 C 0.04022 0.51085 0.1656 0.0
H2124 H 0.49706 0.60285 0.23659 0.0
H2125 H 0.44888 0.52929 0.26885 0.0
H2126 H 0.45162 0.5056 0.23776 0.0
H2127 H 0.47095 0.57893 0.18291 0.0
H2128 H 0.50324 0.59878 0.17099 0.0
H2129 H 0.49458 0.60974 0.19466 0.0
H2130 H 0.53673 0.61448 0.21298 0.0
H2131 H 0.54547 0.60349 0.18945 0.0
H2132 H 0.54181 0.58679 0.21392 0.0
H2133 H 0.46465 0.49032 0.20531 0.0
H2134 H 0.48534 0.48452 0.17314 0.0
H2135 H 0.52445 0.56768 0.16143 0.0
C2136 C 0.48675 0.58173 0.23703 0.0
C2137 C 0.47268 0.56795 0.25523 0.0
C2138 C 0.45942 0.5403 0.25504 0.0
C2139 C 0.46097 0.52666 0.23747 0.0
C2140 C 0.47563 0.5409 0.22005 0.0
C2141 C 0.48805 0.56782 0.21959 0.0
C2142 C 0.50395 0.57855 0.19948 0.0
C2143 C 0.49249 0.59231 0.18623 0.0
C2144 C 0.53375 0.5969 0.20425 0.0
C2145 C 0.49927 0.55353 0.18899 0.0
C2146 C 0.48272 0.53201 0.20108 0.0
C2147 C 0.47716 0.50695 0.19551 0.0
C2148 C 0.489 0.50383 0.17728 0.0
C2149 C 0.50606 0.52558 0.16473 0.0
C2150 C 0.51092 0.55068 0.17051 0.0
H2151 H 0.92056 0.41999 0.80627 0.0
H2152 H 0.94981 0.48893 0.7673 0.0
H2153 H 0.98112 0.51556 0.79556 0.0
H2154 H 0.92369 0.45214 0.85576 0.0
H2155 H 0.93394 0.43269 0.87051 0.0
H2156 H 0.91358 0.41932 0.84738 0.0
H2157 H 0.94873 0.4092 0.83142 0.0
H2158 H 0.96916 0.42248 0.8545 0.0
H2159 H 0.98289 0.43511 0.82892 0.0
H2160 H 0.01094 0.53399 0.82736 0.0
H2161 H 0.03564 0.5433 0.86092 0.0
H2162 H 0.98568 0.46253 0.87951 0.0
C2163 C 0.93361 0.4407 0.80368 0.0
C2164 C 0.93295 0.45243 0.78457 0.0
C2165 C 0.95 0.47963 0.78187 0.0
C2166 C 0.96784 0.49485 0.79779 0.0
C2167 C 0.96812 0.48261 0.8164 0.0
C2168 C 0.95128 0.45618 0.81948 0.0
C2169 C 0.9555 0.44775 0.84088 0.0
C2170 C 0.93017 0.43737 0.85443 0.0
C2171 C 0.96462 0.42744 0.8388 0.0
C2172 C 0.97766 0.47348 0.84929 0.0
C2173 C 0.9847 0.49335 0.83491 0.0
C2174 C 1.00543 0.51864 0.8388 0.0
C2175 C 0.01939 0.52373 0.85783 0.0
C2176 C 0.01242 0.50367 0.87279 0.0
C2177 C 0.99113 0.4783 0.86848 0.0
H2178 H 0.55153 0.46668 0.78497 0.0
H2179 H 0.63567 0.51188 0.80088 0.0
H2180 H 0.62411 0.52314 0.83514 0.0
H2181 H 0.53201 0.50969 0.80932 0.0
H2182 H 0.50046 0.48372 0.81876 0.0
H2183 H 0.51521 0.47901 0.79538 0.0
H2184 H 0.51306 0.43801 0.81184 0.0
H2185 H 0.49827 0.44258 0.83526 0.0
H2186 H 0.52833 0.44064 0.83706 0.0
H2187 H 0.60369 0.52962 0.86774 0.0
H2188 H 0.57567 0.53139 0.89628 0.0
H2189 H 0.50455 0.48145 0.85988 0.0
C2190 C 0.5675 0.47886 0.7957 0.0
C2191 C 0.59455 0.48861 0.79007 0.0
C2192 C 0.61484 0.50459 0.80458 0.0
C2193 C 0.60847 0.51095 0.82419 0.0
C2194 C 0.58168 0.50118 0.82918 0.0
C2195 C 0.56149 0.48549 0.81539 0.0
C2196 C 0.53432 0.47775 0.82468 0.0
C2197 C 0.51964 0.48817 0.81123 0.0
C2198 C 0.51751 0.44798 0.82737 0.0
C2199 C 0.54245 0.49157 0.8458 0.0
C2200 C 0.56987 0.5049 0.84807 0.0
C2201 C 0.58217 0.51917 0.86618 0.0
C2202 C 0.56606 0.51992 0.88238 0.0
C2203 C 0.53786 0.5065 0.88045 0.0
C2204 C 0.52602 0.49213 0.86183 0.0
H2205 H 0.57864 0.14194 0.79636 0.0
H2206 H 0.50744 0.07484 0.77175 0.0
H2207 H 0.5007 0.0522 0.80572 0.0
H2208 H 0.60183 0.10634 0.82789 0.0
H2209 H 0.61323 0.12968 0.84915 0.0
H2210 H 0.61289 0.14019 0.82269 0.0
H2211 H 0.58368 0.15973 0.83482 0.0
H2212 H 0.58388 0.1492 0.8613 0.0
H2213 H 0.5526 0.1392 0.84822 0.0
H2214 H 0.502 0.03665 0.84246 0.0
H2215 H 0.51081 0.02971 0.87907 0.0
H2216 H 0.57949 0.10817 0.88052 0.0
C2217 C 0.56182 0.12237 0.79808 0.0
C2218 C 0.54363 0.11006 0.78137 0.0
C2219 C 0.52158 0.08462 0.78436 0.0
C2220 C 0.51761 0.0716 0.80358 0.0
C2221 C 0.53574 0.08434 0.8198 0.0
C2222 C 0.55735 0.1092 0.81729 0.0
C2223 C 0.57341 0.1188 0.83743 0.0
C2224 C 0.60203 0.12405 0.83409 0.0
C2225 C 0.57338 0.14317 0.84594 0.0
C2226 C 0.55757 0.09542 0.85159 0.0
C2227 C 0.53598 0.07571 0.84112 0.0
C2228 C 0.51875 0.05206 0.85087 0.0
C2229 C 0.5238 0.04839 0.87181 0.0
C2230 C 0.54584 0.06832 0.88297 0.0
C2231 C 0.56269 0.09224 0.87256 0.0
H2232 H 0.14336 0.26045 0.58537 0.0
H2233 H 0.05878 0.22214 0.57079 0.0
H2234 H 0.06908 0.24591 0.53725 0.0
H2235 H 0.16065 0.32315 0.56322 0.0
H2236 H 0.19234 0.32921 0.55297 0.0
H2237 H 0.17844 0.30923 0.57597 0.0
H2238 H 0.18159 0.27161 0.55773 0.0
H2239 H 0.19549 0.29147 0.53466 0.0
H2240 H 0.16594 0.25978 0.53251 0.0
H2241 H 0.08836 0.27336 0.50495 0.0
H2242 H 0.11531 0.30379 0.47678 0.0
H2243 H 0.18756 0.32429 0.51176 0.0
C2244 C 0.12702 0.25705 0.5751 0.0
C2245 C 0.1002 0.23956 0.58091 0.0
C2246 C 0.07944 0.23578 0.56699 0.0
C2247 C 0.08509 0.24906 0.54778 0.0
C2248 C 0.11166 0.26615 0.54256 0.0
C2249 C 0.13231 0.27028 0.55583 0.0
C2250 C 0.1591 0.28993 0.54645 0.0
C2251 C 0.17347 0.31432 0.56049 0.0
C2252 C 0.17656 0.27744 0.54261 0.0
C2253 C 0.15024 0.29612 0.52587 0.0
C2254 C 0.12279 0.28209 0.52392 0.0
C2255 C 0.10989 0.28442 0.50629 0.0
C2256 C 0.12541 0.30165 0.49027 0.0
C2257 C 0.15362 0.31648 0.49192 0.0
C2258 C 0.16606 0.31349 0.51003 0.0
H2259 H 0.75762 0.88431 0.57806 0.0
H2260 H 0.79097 0.83474 0.56292 0.0
H2261 H 0.76736 0.82345 0.52895 0.0
H2262 H 0.69313 0.84333 0.55497 0.0
H2263 H 0.68987 0.87008 0.54499 0.0
H2264 H 0.70947 0.87452 0.5682 0.0
H2265 H 0.7504 0.91361 0.55077 0.0
H2266 H 0.73087 0.90941 0.52757 0.0
H2267 H 0.76188 0.90922 0.52553 0.0
H2268 H 0.74041 0.81747 0.4968 0.0
H2269 H 0.71204 0.81762 0.46799 0.0
H2270 H 0.69631 0.87134 0.50354 0.0
C2271 C 0.76007 0.87123 0.56751 0.0
C2272 C 0.77596 0.86024 0.57319 0.0
C2273 C 0.77855 0.84305 0.55904 0.0
C2274 C 0.76533 0.83661 0.53967 0.0
C2275 C 0.7496 0.84753 0.53466 0.0
C2276 C 0.74693 0.86452 0.5481 0.0
C2277 C 0.72875 0.87346 0.5388 0.0
C2278 C 0.70383 0.86483 0.55257 0.0
C2279 C 0.74389 0.90319 0.53547 0.0
C2280 C 0.72168 0.85887 0.51805 0.0
C2281 C 0.73396 0.84405 0.51601 0.0
C2282 C 0.73073 0.82903 0.49817 0.0
C2283 C 0.71467 0.82933 0.48187 0.0
C2284 C 0.70204 0.84453 0.48351 0.0
C2285 C 0.70548 0.85932 0.50194 0.0
H2286 H 0.17459 0.94808 0.57194 0.0
H2287 H 0.10776 0.87089 0.58542 0.0
H2288 H 0.11322 0.85574 0.55054 0.0
H2289 H 0.16418 0.94907 0.51592 0.0
H2290 H 0.19937 0.96522 0.51002 0.0
H2291 H 0.18814 0.97081 0.53493 0.0
H2292 H 0.21813 0.95667 0.5544 0.0
H2293 H 0.22951 0.95111 0.5296 0.0
H2294 H 0.21471 0.92525 0.54867 0.0
H2295 H 0.1275 0.84849 0.51431 0.0
H2296 H 0.15124 0.84914 0.48158 0.0
H2297 H 0.21088 0.92976 0.4938 0.0
C2298 C 0.16108 0.9279 0.56779 0.0
C2299 C 0.14068 0.91077 0.58172 0.0
C2300 C 0.12325 0.88469 0.57509 0.0
C2301 C 0.12628 0.87581 0.55528 0.0
C2302 C 0.14696 0.89313 0.54223 0.0
C2303 C 0.16415 0.9186 0.54833 0.0
C2304 C 0.18601 0.93286 0.53221 0.0
C2305 C 0.18431 0.95585 0.52271 0.0
C2306 C 0.21372 0.942 0.5418 0.0
C2307 C 0.17872 0.91134 0.51619 0.0
C2308 C 0.15584 0.88868 0.52201 0.0
C2309 C 0.14539 0.86615 0.50963 0.0
C2310 C 0.15892 0.8667 0.49105 0.0
C2311 C 0.18286 0.88946 0.48525 0.0
C2312 C 0.19265 0.91208 0.49793 0.0
H2313 H 0.59963 0.75641 0.1307 0.0
H2314 H 0.60789 0.8284 0.10572 0.0
H2315 H 0.63651 0.85264 0.13573 0.0
H2316 H 0.60026 0.77094 0.18563 0.0
H2317 H 0.62022 0.75659 0.19285 0.0
H2318 H 0.59859 0.74445 0.17029 0.0
H2319 H 0.63877 0.75267 0.14684 0.0
H2320 H 0.66049 0.76469 0.16934 0.0
H2321 H 0.66798 0.78474 0.14627 0.0
H2322 H 0.66469 0.86927 0.16865 0.0
H2323 H 0.69307 0.87722 0.20007 0.0
H2324 H 0.6696 0.79523 0.20139 0.0
C2325 C 0.60757 0.7773 0.13129 0.0
C2326 C 0.60112 0.7903 0.11573 0.0
C2327 C 0.61183 0.8177 0.11758 0.0
C2328 C 0.62831 0.83175 0.13454 0.0
C2329 C 0.63427 0.81827 0.14946 0.0
C2330 C 0.62446 0.79171 0.14786 0.0
C2331 C 0.63502 0.78205 0.16533 0.0
C2332 C 0.61216 0.76235 0.17936 0.0
C2333 C 0.65155 0.77036 0.15641 0.0
C2334 C 0.65247 0.80738 0.17694 0.0
C2335 C 0.65146 0.828 0.16776 0.0
C2336 C 0.6657 0.85328 0.17592 0.0
C2337 C 0.68166 0.85762 0.19376 0.0
C2338 C 0.68355 0.83687 0.20296 0.0
C2339 C 0.66862 0.81145 0.19449 0.0
H2340 H 0.22103 0.78855 0.11006 0.0
H2341 H 0.30453 0.83564 0.12747 0.0
H2342 H 0.2913 0.84475 0.16191 0.0
H2343 H 0.19827 0.82797 0.13476 0.0
H2344 H 0.16708 0.80091 0.14362 0.0
H2345 H 0.18298 0.79757 0.12038 0.0
H2346 H 0.18263 0.75723 0.13645 0.0
H2347 H 0.16661 0.76037 0.15972 0.0
H2348 H 0.19748 0.75997 0.16188 0.0
H2349 H 0.26919 0.85016 0.194 0.0
H2350 H 0.23967 0.85079 0.22173 0.0
H2351 H 0.17041 0.7982 0.18445 0.0
C2352 C 0.23654 0.80054 0.12119 0.0
C2353 C 0.26386 0.8116 0.11588 0.0
C2354 C 0.28349 0.82738 0.13091 0.0
C2355 C 0.27618 0.83252 0.15062 0.0
C2356 C 0.24913 0.82157 0.15523 0.0
C2357 C 0.2296 0.80578 0.14102 0.0
C2358 C 0.20195 0.79666 0.14988 0.0
C2359 C 0.18668 0.80637 0.13635 0.0
C2360 C 0.18625 0.76678 0.15212 0.0
C2361 C 0.20904 0.81003 0.17118 0.0
C2362 C 0.23636 0.82427 0.17395 0.0
C2363 C 0.24774 0.83884 0.19212 0.0
C2364 C 0.23075 0.83891 0.20787 0.0
C2365 C 0.2026 0.82442 0.20547 0.0
C2366 C 0.19177 0.80971 0.18682 0.0
H2367 H 0.23483 0.45593 0.13501 0.0
H2368 H 0.16804 0.40219 0.09613 0.0
H2369 H 0.15047 0.37087 0.1253 0.0
H2370 H 0.24318 0.40548 0.16146 0.0
H2371 H 0.2517 0.42226 0.1864 0.0
H2372 H 0.25944 0.44061 0.16236 0.0
H2373 H 0.23317 0.46272 0.17573 0.0
H2374 H 0.225 0.44413 0.19968 0.0
H2375 H 0.19876 0.44272 0.18353 0.0
H2376 H 0.13885 0.34602 0.15838 0.0
H2377 H 0.13625 0.32638 0.19295 0.0
H2378 H 0.21081 0.39463 0.21127 0.0
C2379 C 0.21674 0.43741 0.13258 0.0
C2380 C 0.20265 0.43167 0.1133 0.0
C2381 C 0.17895 0.40724 0.11082 0.0
C2382 C 0.16879 0.38928 0.1273 0.0
C2383 C 0.18261 0.39581 0.14625 0.0
C2384 C 0.20626 0.41905 0.14898 0.0
C2385 C 0.21711 0.42076 0.17104 0.0
C2386 C 0.24448 0.42237 0.17026 0.0
C2387 C 0.21859 0.44396 0.18321 0.0
C2388 C 0.19582 0.39488 0.18018 0.0
C2389 C 0.17606 0.38101 0.16553 0.0
C2390 C 0.15427 0.35659 0.16995 0.0
C2391 C 0.15296 0.34561 0.18964 0.0
C2392 C 0.17335 0.35888 0.20476 0.0
C2393 C 0.19482 0.38414 0.2001 0.0
H2394 H 0.76028 0.58677 0.91845 0.0
H2395 H 0.77961 0.52588 0.90555 0.0
H2396 H 0.79364 0.54296 0.86977 0.0
H2397 H 0.73174 0.58383 0.86814 0.0
H2398 H 0.74419 0.61846 0.8667 0.0
H2399 H 0.73755 0.60265 0.89188 0.0
H2400 H 0.78613 0.63483 0.90349 0.0
H2401 H 0.79295 0.65069 0.8783 0.0
H2402 H 0.81353 0.63795 0.88773 0.0
H2403 H 0.8043 0.56588 0.83457 0.0
H2404 H 0.80847 0.59144 0.80267 0.0
H2405 H 0.78103 0.63645 0.83812 0.0
C2406 C 0.76743 0.57695 0.90815 0.0
C2407 C 0.76912 0.55511 0.91515 0.0
C2408 C 0.77873 0.54304 0.90098 0.0
C2409 C 0.78661 0.5525 0.88047 0.0
C2410 C 0.78467 0.57401 0.87414 0.0
C2411 C 0.7752 0.58601 0.88754 0.0
C2412 C 0.774 0.60811 0.87656 0.0
C2413 C 0.74515 0.60294 0.87578 0.0
C2414 C 0.79277 0.63445 0.88715 0.0
C2415 C 0.78398 0.60646 0.85486 0.0
C2416 C 0.79028 0.58683 0.85381 0.0
C2417 C 0.79952 0.58138 0.83525 0.0
C2418 C 0.80199 0.59611 0.81722 0.0
C2419 C 0.79505 0.61594 0.8178 0.0
C2420 C 0.78627 0.62128 0.83704 0.0
H2421 H 0.42671 0.22781 0.92346 0.0
H2422 H 0.46625 0.1847 0.9055 0.0
H2423 H 0.44676 0.17784 0.87002 0.0
H2424 H 0.36647 0.18761 0.89718 0.0
H2425 H 0.36081 0.21351 0.88876 0.0
H2426 H 0.3799 0.21749 0.91217 0.0
H2427 H 0.41955 0.2598 0.89711 0.0
H2428 H 0.40047 0.25611 0.87372 0.0
H2429 H 0.43294 0.25899 0.87168 0.0
H2430 H 0.42015 0.17216 0.83793 0.0
H2431 H 0.38917 0.16936 0.81029 0.0
H2432 H 0.36739 0.2172 0.84818 0.0
C2433 C 0.43168 0.21745 0.91186 0.0
C2434 C 0.4479 0.20672 0.91715 0.0
C2435 C 0.45368 0.19288 0.90174 0.0
C2436 C 0.4428 0.18898 0.88156 0.0
C2437 C 0.42628 0.19915 0.87698 0.0
C2438 C 0.42087 0.21329 0.89157 0.0
C2439 C 0.40134 0.22089 0.88282 0.0
C2440 C 0.37561 0.20917 0.89602 0.0
C2441 C 0.41436 0.25072 0.88123 0.0
C2442 C 0.39623 0.20831 0.86124 0.0
C2443 C 0.41097 0.19603 0.8582 0.0
C2444 C 0.40885 0.18209 0.83993 0.0
C2445 C 0.39126 0.18074 0.82426 0.0
C2446 C 0.37601 0.19332 0.82687 0.0
C2447 C 0.37866 0.20731 0.84567 0.0
H2448 H 0.78391 0.22421 0.89493 0.0
H2449 H 0.83357 0.21576 0.94155 0.0
H2450 H 0.84795 0.19467 0.91515 0.0
H2451 H 0.76438 0.16127 0.86643 0.0
H2452 H 0.76539 0.17529 0.84112 0.0
H2453 H 0.7566 0.18713 0.86421 0.0
H2454 H 0.79433 0.23401 0.8557 0.0
H2455 H 0.80363 0.22227 0.83286 0.0
H2456 H 0.82811 0.24043 0.85281 0.0
H2457 H 0.86202 0.1809 0.88349 0.0
H2458 H 0.86993 0.16773 0.84889 0.0
H2459 H 0.80924 0.18163 0.82179 0.0
C2460 C 0.79702 0.217 0.89966 0.0
C2461 C 0.80749 0.22132 0.9203 0.0
C2462 C 0.82521 0.21238 0.92586 0.0
C2463 C 0.83359 0.20053 0.91096 0.0
C2464 C 0.82389 0.19755 0.89054 0.0
C2465 C 0.80555 0.20492 0.88488 0.0
C2466 C 0.7992 0.20012 0.86153 0.0
C2467 C 0.76963 0.17973 0.85812 0.0
C2468 C 0.80677 0.22574 0.85005 0.0
C2469 C 0.8173 0.18949 0.85499 0.0
C2470 C 0.8314 0.18842 0.87207 0.0
C2471 C 0.85052 0.18087 0.87009 0.0
C2472 C 0.85478 0.17331 0.85029 0.0
C2473 C 0.83965 0.17277 0.83257 0.0
C2474 C 0.82099 0.18154 0.83496 0.0
H2475 H 0.26384 0.1321 0.45257 0.0
H2476 H 0.21001 0.05085 0.46781 0.0
H2477 H 0.23179 0.0574 0.50248 0.0
H2478 H 0.32176 0.13563 0.4759 0.0
H2479 H 0.33516 0.16863 0.48534 0.0
H2480 H 0.31435 0.15793 0.46228 0.0
H2481 H 0.28249 0.17162 0.47949 0.0
H2482 H 0.30324 0.18241 0.50259 0.0
H2483 H 0.2682 0.15877 0.50489 0.0
H2484 H 0.25939 0.07286 0.53543 0.0
H2485 H 0.29268 0.09549 0.56356 0.0
H2486 H 0.32988 0.16613 0.5262 0.0
C2487 C 0.25656 0.11582 0.46334 0.0
C2488 C 0.23525 0.091 0.45767 0.0
C2489 C 0.2264 0.06998 0.47194 0.0
C2490 C 0.23856 0.07354 0.49164 0.0
C2491 C 0.25968 0.09821 0.49673 0.0
C2492 C 0.26875 0.11895 0.48295 0.0
C2493 C 0.29258 0.14313 0.4919 0.0
C2494 C 0.31743 0.15183 0.47803 0.0
C2495 C 0.28624 0.16529 0.4949 0.0
C2496 C 0.29553 0.13273 0.51282 0.0
C2497 C 0.27617 0.10686 0.51541 0.0
C2498 C 0.27467 0.09311 0.53358 0.0
C2499 C 0.29357 0.1061 0.54947 0.0
C2500 C 0.31385 0.13247 0.54697 0.0
C2501 C 0.31474 0.14588 0.52841 0.0
H2502 H 0.88694 0.1392 0.44655 0.0
H2503 H 0.97144 0.18392 0.46108 0.0
H2504 H 0.96085 0.19324 0.49655 0.0
H2505 H 0.869 0.18183 0.47325 0.0
H2506 H 0.83737 0.15594 0.48265 0.0
H2507 H 0.85143 0.15167 0.45869 0.0
H2508 H 0.84864 0.10973 0.4737 0.0
H2509 H 0.83455 0.11387 0.49771 0.0
H2510 H 0.86425 0.11118 0.49853 0.0
H2511 H 0.94128 0.19803 0.53042 0.0
H2512 H 0.9141 0.19981 0.5597 0.0
H2513 H 0.84214 0.15289 0.5233 0.0
C2514 C 0.90315 0.15077 0.45729 0.0
C2515 C 0.93004 0.16088 0.45104 0.0
C2516 C 0.95072 0.17619 0.46546 0.0
C2517 C 0.9449 0.18147 0.48569 0.0
C2518 C 0.91825 0.17143 0.49132 0.0
C2519 C 0.89768 0.15652 0.47754 0.0
C2520 C 0.87081 0.14898 0.48736 0.0
C2521 C 0.85631 0.16029 0.47473 0.0
C2522 C 0.85355 0.11917 0.48945 0.0
C2523 C 0.87953 0.16205 0.50873 0.0
C2524 C 0.90697 0.17468 0.51074 0.0
C2525 C 0.91976 0.18816 0.52903 0.0
C2526 C 0.90413 0.18894 0.54565 0.0
C2527 C 0.87597 0.1765 0.54388 0.0
C2528 C 0.86362 0.16279 0.52512 0.0
H2529 H 0.89578 0.78287 0.46896 0.0
H2530 H 0.82386 0.73509 0.43262 0.0
H2531 H 0.80472 0.70488 0.46246 0.0
H2532 H 0.89798 0.72878 0.49314 0.0
H2533 H 0.91036 0.74538 0.5179 0.0
H2534 H 0.91805 0.76388 0.49395 0.0
H2535 H 0.89814 0.79089 0.50982 0.0
H2536 H 0.89005 0.7722 0.53371 0.0
H2537 H 0.86429 0.7743 0.51947 0.0
H2538 H 0.79314 0.67978 0.49591 0.0
H2539 H 0.79145 0.65884 0.5297 0.0
H2540 H 0.87141 0.72129 0.54441 0.0
C2541 C 0.87614 0.76591 0.46711 0.0
C2542 C 0.8613 0.76161 0.44832 0.0
C2543 C 0.8355 0.73923 0.44687 0.0
C2544 C 0.82445 0.72187 0.46375 0.0
C2545 C 0.83942 0.72694 0.48206 0.0
C2546 C 0.86483 0.7482 0.4838 0.0
C2547 C 0.87698 0.74851 0.50504 0.0
C2548 C 0.90234 0.74651 0.50234 0.0
C2549 C 0.8827 0.77293 0.51776 0.0
C2550 C 0.85448 0.72395 0.51487 0.0
C2551 C 0.83293 0.71204 0.50136 0.0
C2552 C 0.80991 0.68889 0.50659 0.0
C2553 C 0.80915 0.67715 0.52583 0.0
C2554 C 0.83131 0.68835 0.53967 0.0
C2555 C 0.85406 0.71243 0.53428 0.0
loop_
_geom_bond_atom_site_label_1
_geom_bond_atom_site_label_2
_geom_bond_distance
_geom_bond_site_symmetry_2
_ccdc_geom_bond_type
H0 C1 0.949 . S
C1 H0 0.949 . S
C1 C2 1.395 . S
C1 C3 1.391 . S
C2 C1 1.395 . S
C2 C5 1.390 . S
C3 C1 1.391 . S
C3 C7 1.387 . S
C3 C8 1.491 . S
H4 C5 0.950 . S
C5 C2 1.390 . S
C5 H4 0.950 . S
C5 C6 1.378 . S
C6 C5 1.378 . S
C6 C7 1.409 . S
C7 C3 1.387 . S
C7 C6 1.409 . S
C7 H9 0.951 . S
C8 C3 1.491 . S
C8 C10 1.382 . S
C8 C12 1.404 . S
H9 C7 0.951 . S
C10 C8 1.382 . S
C10 C11 1.390 . S
C10 H15 0.949 . S
C11 C10 1.390 . S
C11 C16 1.399 . S
C12 C8 1.404 . S
C12 H13 0.950 . S
C12 C14 1.375 . S
H13 C12 0.950 . S
C14 C12 1.375 . S
C14 C16 1.382 . S
C14 H18 0.950 . S
H15 C10 0.949 . S
C16 C11 1.399 . S
C16 C14 1.382 . S
C16 H17 0.952 . S
H17 C16 0.952 . S
H18 C14 0.950 . S
H19 C20 0.949 . S
C20 H19 0.949 . S
C20 C21 1.395 . S
C20 C22 1.391 . S
C21 C20 1.395 . S
C21 C24 1.390 . S
C22 C20 1.391 . S
C22 C26 1.387 . S
C22 C27 1.491 . S
H23 C24 0.950 . S
C24 C21 1.390 . S
C24 H23 0.950 . S
C24 C25 1.378 . S
C25 C24 1.378 . S
C25 C26 1.409 . S
C26 C22 1.387 . S
C26 C25 1.409 . S
C26 H28 0.951 . S
C27 C22 1.491 . S
C27 C29 1.382 . S
C27 C31 1.404 . S
H28 C26 0.951 . S
C29 C27 1.382 . S
C29 C30 1.390 . S
C29 H34 0.949 . S
C30 C29 1.390 . S
C30 C35 1.399 . S
C31 C27 1.404 . S
C31 H32 0.950 . S
C31 C33 1.375 . S
H32 C31 0.950 . S
C33 C31 1.375 . S
C33 C35 1.382 . S
C33 H37 0.950 . S
H34 C29 0.949 . S
C35 C30 1.399 . S
C35 C33 1.382 . S
C35 H36 0.952 1_545 S
H36 C35 0.952 1_565 S
H37 C33 0.950 . S
H38 C39 0.949 . S
C39 H38 0.949 . S
C39 C40 1.395 . S
C39 C41 1.391 . S
C40 C39 1.395 . S
C40 C43 1.390 . S
C41 C39 1.391 . S
C41 C45 1.387 . S
C41 C46 1.491 . S
H42 C43 0.950 . S
C43 C40 1.390 . S
C43 H42 0.950 . S
C43 C44 1.378 . S
C44 C43 1.378 . S
C44 C45 1.409 . S
C45 C41 1.387 . S
C45 C44 1.409 . S
C45 H47 0.951 . S
C46 C41 1.491 . S
C46 C48 1.382 . S
C46 C50 1.404 . S
H47 C45 0.951 . S
C48 C46 1.382 . S
C48 C49 1.390 . S
C48 H53 0.949 . S
C49 C48 1.390 . S
C49 C54 1.399 1_655 S
C50 C46 1.404 . S
C50 H51 0.950 . S
C50 C52 1.375 . S
H51 C50 0.950 . S
C52 C50 1.375 . S
C52 C54 1.382 1_655 S
C52 H56 0.950 . S
H53 C48 0.949 . S
C54 C49 1.399 1_455 S
C54 C52 1.382 1_455 S
C54 H55 0.952 . S
H55 C54 0.952 . S
H56 C52 0.950 . S
H57 C58 0.949 . S
C58 H57 0.949 . S
C58 C59 1.395 . S
C58 C60 1.391 . S
C59 C58 1.395 . S
C59 C62 1.390 . S
C60 C58 1.391 . S
C60 C64 1.387 . S
C60 C65 1.491 . S
H61 C62 0.950 . S
C62 C59 1.390 . S
C62 H61 0.950 . S
C62 C63 1.378 . S
C63 C62 1.378 . S
C63 C64 1.409 . S
C64 C60 1.387 . S
C64 C63 1.409 . S
C64 H66 0.951 . S
C65 C60 1.491 . S
C65 C67 1.382 . S
C65 C69 1.404 . S
H66 C64 0.951 . S
C67 C65 1.382 . S
C67 C68 1.390 . S
C67 H72 0.949 . S
C68 C67 1.390 . S
C68 C73 1.399 . S
C69 C65 1.404 . S
C69 H70 0.950 . S
C69 C71 1.375 . S
H70 C69 0.950 . S
C71 C69 1.375 . S
C71 C73 1.382 . S
C71 H75 0.950 . S
H72 C67 0.949 . S
C73 C68 1.399 . S
C73 C71 1.382 . S
C73 H74 0.952 . S
H74 C73 0.952 . S
H75 C71 0.950 . S
H76 C77 0.949 . S
C77 H76 0.949 . S
C77 C78 1.395 . S
C77 C79 1.391 . S
C78 C77 1.395 . S
C78 C81 1.390 . S
C79 C77 1.391 . S
C79 C83 1.387 . S
C79 C84 1.491 . S
H80 C81 0.950 . S
C81 C78 1.390 . S
C81 H80 0.950 . S
C81 C82 1.378 . S
C82 C81 1.378 . S
C82 C83 1.409 . S
C83 C79 1.387 . S
C83 C82 1.409 . S
C83 H85 0.951 . S
C84 C79 1.491 . S
C84 C86 1.382 . S
C84 C88 1.404 . S
H85 C83 0.951 . S
C86 C84 1.382 . S
C86 C87 1.390 . S
C86 H91 0.949 . S
C87 C86 1.390 . S
C87 C92 1.399 . S
C88 C84 1.404 . S
C88 H89 0.950 . S
C88 C90 1.375 . S
H89 C88 0.950 . S
C90 C88 1.375 . S
C90 C92 1.382 . S
C90 H94 0.950 . S
H91 C86 0.949 . S
C92 C87 1.399 . S
C92 C90 1.382 . S
C92 H93 0.952 1_565 S
H93 C92 0.952 1_545 S
H94 C90 0.950 . S
H95 C96 0.949 . S
C96 H95 0.949 . S
C96 C97 1.395 . S
C96 C98 1.391 . S
C97 C96 1.395 . S
C97 C100 1.390 . S
C98 C96 1.391 . S
C98 C102 1.387 . S
C98 C103 1.491 . S
H99 C100 0.950 . S
C100 C97 1.390 . S
C100 H99 0.950 . S
C100 C101 1.378 . S
C101 C100 1.378 . S
C101 C102 1.409 . S
C102 C98 1.387 . S
C102 C101 1.409 . S
C102 H104 0.951 . S
C103 C98 1.491 . S
C103 C105 1.382 . S
C103 C107 1.404 . S
H104 C102 0.951 . S
C105 C103 1.382 . S
C105 C106 1.390 . S
C105 H110 0.949 . S
C106 C105 1.390 . S
C106 C111 1.399 . S
C107 C103 1.404 . S
C107 H108 0.950 . S
C107 C109 1.375 . S
H108 C107 0.950 . S
C109 C107 1.375 . S
C109 C111 1.382 . S
C109 H113 0.950 . S
H110 C105 0.949 . S
C111 C106 1.399 . S
C111 C109 1.382 . S
C111 H112 0.952 1_455 S
H112 C111 0.952 1_655 S
H113 C109 0.950 . S
H114 C115 0.949 . S
C115 H114 0.949 . S
C115 C116 1.395 . S
C115 C117 1.391 . S
C116 C115 1.395 . S
C116 C119 1.390 . S
C117 C115 1.391 . S
C117 C121 1.387 . S
C117 C122 1.491 . S
H118 C119 0.950 . S
C119 C116 1.390 . S
C119 H118 0.950 . S
C119 C120 1.378 . S
C120 C119 1.378 . S
C120 C121 1.409 . S
C121 C117 1.387 . S
C121 C120 1.409 . S
C121 H123 0.951 . S
C122 C117 1.491 . S
C122 C124 1.382 . S
C122 C126 1.404 . S
H123 C121 0.951 . S
C124 C122 1.382 . S
C124 C125 1.390 . S
C124 H129 0.949 . S
C125 C124 1.390 . S
C125 C130 1.399 . S
C126 C122 1.404 . S
C126 H127 0.950 . S
C126 C128 1.375 . S
H127 C126 0.950 . S
C128 C126 1.375 . S
C128 C130 1.382 . S
C128 H132 0.950 . S
H129 C124 0.949 . S
C130 C125 1.399 . S
C130 C128 1.382 . S
C130 H131 0.952 . S
H131 C130 0.952 . S
H132 C128 0.950 . S
H133 C134 0.949 . S
C134 H133 0.949 . S
C134 C135 1.395 . S
C134 C136 1.391 . S
C135 C134 1.395 . S
C135 C138 1.390 . S
C136 C134 1.391 . S
C136 C140 1.387 . S
C136 C141 1.491 . S
H137 C138 0.950 . S
C138 C135 1.390 . S
C138 H137 0.950 . S
C138 C139 1.378 . S
C139 C138 1.378 . S
C139 C140 1.409 . S
C140 C136 1.387 . S
C140 C139 1.409 . S
C140 H142 0.951 . S
C141 C136 1.491 . S
C141 C143 1.382 . S
C141 C145 1.404 . S
H142 C140 0.951 . S
C143 C141 1.382 . S
C143 C144 1.390 . S
C143 H148 0.949 . S
C144 C143 1.390 . S
C144 C149 1.399 . S
C145 C141 1.404 . S
C145 H146 0.950 . S
C145 C147 1.375 . S
H146 C145 0.950 . S
C147 C145 1.375 . S
C147 C149 1.382 . S
C147 H151 0.950 . S
H148 C143 0.949 . S
C149 C144 1.399 . S
C149 C147 1.382 . S
C149 H150 0.952 . S
H150 C149 0.952 . S
H151 C147 0.950 . S
H152 C153 0.949 . S
C153 H152 0.949 . S
C153 C154 1.395 . S
C153 C155 1.391 . S
C154 C153 1.395 . S
C154 C157 1.390 . S
C155 C153 1.391 . S
C155 C159 1.387 . S
C155 C160 1.491 . S
H156 C157 0.950 . S
C157 C154 1.390 . S
C157 H156 0.950 . S
C157 C158 1.378 . S
C158 C157 1.378 . S
C158 C159 1.409 . S
C159 C155 1.387 . S
C159 C158 1.409 . S
C159 H161 0.951 . S
C160 C155 1.491 . S
C160 C162 1.382 . S
C160 C164 1.404 . S
H161 C159 0.951 . S
C162 C160 1.382 . S
C162 C163 1.390 . S
C162 H167 0.949 . S
C163 C162 1.390 . S
C163 C168 1.399 . S
C164 C160 1.404 . S
C164 H165 0.950 . S
C164 C166 1.375 . S
H165 C164 0.950 . S
C166 C164 1.375 . S
C166 C168 1.382 . S
C166 H170 0.950 . S
H167 C162 0.949 . S
C168 C163 1.399 . S
C168 C166 1.382 . S
C168 H169 0.952 . S
H169 C168 0.952 . S
H170 C166 0.950 . S
H171 C172 0.949 . S
C172 H171 0.949 . S
C172 C173 1.395 . S
C172 C174 1.391 . S
C173 C172 1.395 . S
C173 C176 1.390 . S
C174 C172 1.391 . S
C174 C178 1.387 . S
C174 C179 1.491 . S
H175 C176 0.950 . S
C176 C173 1.390 . S
C176 H175 0.950 . S
C176 C177 1.378 . S
C177 C176 1.378 . S
C177 C178 1.409 . S
C178 C174 1.387 . S
C178 C177 1.409 . S
C178 H180 0.951 . S
C179 C174 1.491 . S
C179 C181 1.382 . S
C179 C183 1.404 . S
H180 C178 0.951 . S
C181 C179 1.382 . S
C181 C182 1.390 . S
C181 H186 0.949 . S
C182 C181 1.390 . S
C182 C187 1.399 . S
C183 C179 1.404 . S
C183 H184 0.950 . S
C183 C185 1.375 . S
H184 C183 0.950 . S
C185 C183 1.375 . S
C185 C187 1.382 . S
C185 H189 0.950 . S
H186 C181 0.949 . S
C187 C182 1.399 . S
C187 C185 1.382 . S
C187 H188 0.952 . S
H188 C187 0.952 . S
H189 C185 0.950 . S
H190 C191 0.949 . S
C191 H190 0.949 . S
C191 C192 1.395 . S
C191 C193 1.391 . S
C192 C191 1.395 . S
C192 C195 1.390 . S
C193 C191 1.391 . S
C193 C197 1.387 . S
C193 C198 1.491 . S
H194 C195 0.950 . S
C195 C192 1.390 . S
C195 H194 0.950 . S
C195 C196 1.378 . S
C196 C195 1.378 . S
C196 C197 1.409 . S
C197 C193 1.387 . S
C197 C196 1.409 . S
C197 H199 0.951 . S
C198 C193 1.491 . S
C198 C200 1.382 . S
C198 C202 1.404 . S
H199 C197 0.951 . S
C200 C198 1.382 . S
C200 C201 1.390 . S
C200 H205 0.949 . S
C201 C200 1.390 . S
C201 C206 1.399 . S
C202 C198 1.404 . S
C202 H203 0.950 . S
C202 C204 1.375 . S
H203 C202 0.950 . S
C204 C202 1.375 . S
C204 C206 1.382 . S
C204 H208 0.950 1_556 S
H205 C200 0.949 . S
C206 C201 1.399 . S
C206 C204 1.382 . S
C206 H207 0.952 1_556 S
H207 C206 0.952 1_554 S
H208 C204 0.950 1_554 S
H209 C210 0.949 . S
C210 H209 0.949 . S
C210 C211 1.395 . S
C210 C212 1.391 . S
C211 C210 1.395 . S
C211 C214 1.390 . S
C212 C210 1.391 . S
C212 C216 1.387 . S
C212 C217 1.491 . S
H213 C214 0.950 . S
C214 C211 1.390 . S
C214 H213 0.950 . S
C214 C215 1.378 . S
C215 C214 1.378 . S
C215 C216 1.409 . S
C216 C212 1.387 . S
C216 C215 1.409 . S
C216 H218 0.951 . S
C217 C212 1.491 . S
C217 C219 1.382 . S
C217 C221 1.404 . S
H218 C216 0.951 . S
C219 C217 1.382 . S
C219 C220 1.390 . S
C219 H224 0.949 . S
C220 C219 1.390 . S
C220 C225 1.399 . S
C221 C217 1.404 . S
C221 H222 0.950 . S
C221 C223 1.375 . S
H222 C221 0.950 . S
C223 C221 1.375 . S
C223 C225 1.382 . S
C223 H227 0.950 . S
H224 C219 0.949 . S
C225 C220 1.399 . S
C225 C223 1.382 . S
C225 H226 0.952 . S
H226 C225 0.952 . S
H227 C223 0.950 . S
H228 C229 0.949 . S
C229 H228 0.949 . S
C229 C230 1.395 . S
C229 C231 1.391 . S
C230 C229 1.395 . S
C230 C233 1.390 . S
C231 C229 1.391 . S
C231 C235 1.387 . S
C231 C236 1.491 . S
H232 C233 0.950 . S
C233 C230 1.390 . S
C233 H232 0.950 . S
C233 C234 1.378 . S
C234 C233 1.378 . S
C234 C235 1.409 . S
C235 C231 1.387 . S
C235 C234 1.409 . S
C235 H237 0.951 . S
C236 C231 1.491 . S
C236 C238 1.382 . S
C236 C240 1.404 . S
H237 C235 0.951 . S
C238 C236 1.382 . S
C238 C239 1.390 . S
C238 H243 0.949 . S
C239 C238 1.390 . S
C239 C244 1.399 . S
C240 C236 1.404 . S
C240 H241 0.950 . S
C240 C242 1.375 . S
H241 C240 0.950 . S
C242 C240 1.375 . S
C242 C244 1.382 . S
C242 H246 0.950 . S
H243 C238 0.949 . S
C244 C239 1.399 . S
C244 C242 1.382 . S
C244 H245 0.952 . S
H245 C244 0.952 . S
H246 C242 0.950 . S
H247 C248 0.949 . S
C248 H247 0.949 . S
C248 C249 1.395 . S
C248 C250 1.391 . S
C249 C248 1.395 . S
C249 C252 1.390 . S
C250 C248 1.391 . S
C250 C254 1.387 . S
C250 C255 1.491 . S
H251 C252 0.950 . S
C252 C249 1.390 . S
C252 H251 0.950 . S
C252 C253 1.378 . S
C253 C252 1.378 . S
C253 C254 1.409 . S
C254 C250 1.387 . S
C254 C253 1.409 . S
C254 H256 0.951 . S
C255 C250 1.491 . S
C255 C257 1.382 . S
C255 C259 1.404 . S
H256 C254 0.951 . S
C257 C255 1.382 . S
C257 C258 1.390 . S
C257 H262 0.949 . S
C258 C257 1.390 . S
C258 C263 1.399 . S
C259 C255 1.404 . S
C259 H260 0.950 . S
C259 C261 1.375 . S
H260 C259 0.950 . S
C261 C259 1.375 . S
C261 C263 1.382 . S
C261 H265 0.950 . S
H262 C257 0.949 . S
C263 C258 1.399 . S
C263 C261 1.382 . S
C263 H264 0.952 . S
H264 C263 0.952 . S
H265 C261 0.950 . S
H266 C267 0.949 . S
C267 H266 0.949 . S
C267 C268 1.395 . S
C267 C269 1.391 . S
C268 C267 1.395 . S
C268 C271 1.390 . S
C269 C267 1.391 . S
C269 C273 1.387 . S
C269 C274 1.491 . S
H270 C271 0.950 . S
C271 C268 1.390 . S
C271 H270 0.950 . S
C271 C272 1.378 . S
C272 C271 1.378 . S
C272 C273 1.409 . S
C273 C269 1.387 . S
C273 C272 1.409 . S
C273 H275 0.951 . S
C274 C269 1.491 . S
C274 C276 1.382 . S
C274 C278 1.404 . S
H275 C273 0.951 . S
C276 C274 1.382 . S
C276 C277 1.390 . S
C276 H281 0.949 . S
C277 C276 1.390 . S
C277 C282 1.399 . S
C278 C274 1.404 . S
C278 H279 0.950 . S
C278 C280 1.375 . S
H279 C278 0.950 . S
C280 C278 1.375 . S
C280 C282 1.382 . S
C280 H284 0.950 . S
H281 C276 0.949 . S
C282 C277 1.399 . S
C282 C280 1.382 . S
C282 H283 0.952 . S
H283 C282 0.952 . S
H284 C280 0.950 . S
H285 C286 0.949 . S
C286 H285 0.949 . S
C286 C287 1.395 . S
C286 C288 1.391 . S
C287 C286 1.395 . S
C287 C290 1.390 . S
C288 C286 1.391 . S
C288 C292 1.387 . S
C288 C293 1.491 . S
H289 C290 0.950 . S
C290 C287 1.390 . S
C290 H289 0.950 . S
C290 C291 1.378 . S
C291 C290 1.378 . S
C291 C292 1.409 . S
C292 C288 1.387 . S
C292 C291 1.409 . S
C292 H294 0.951 . S
C293 C288 1.491 . S
C293 C295 1.382 . S
C293 C297 1.404 . S
H294 C292 0.951 . S
C295 C293 1.382 . S
C295 C296 1.390 . S
C295 H300 0.949 . S
C296 C295 1.390 . S
C296 C301 1.399 . S
C297 C293 1.404 . S
C297 H298 0.950 . S
C297 C299 1.375 . S
H298 C297 0.950 . S
C299 C297 1.375 . S
C299 C301 1.382 . S
C299 H303 0.950 . S
H300 C295 0.949 . S
C301 C296 1.399 . S
C301 C299 1.382 . S
C301 H302 0.952 . S
H302 C301 0.952 . S
H303 C299 0.950 . S
H304 C305 0.949 . S
C305 H304 0.949 . S
C305 C306 1.395 . S
C305 C307 1.391 . S
C306 C305 1.395 . S
C306 C309 1.390 . S
C307 C305 1.391 . S
C307 C311 1.387 . S
C307 C312 1.491 . S
H308 C309 0.950 . S
C309 C306 1.390 . S
C309 H308 0.950 . S
C309 C310 1.378 . S
C310 C309 1.378 . S
C310 C311 1.409 . S
C311 C307 1.387 . S
C311 C310 1.409 . S
C311 H313 0.951 . S
C312 C307 1.491 . S
C312 C314 1.382 . S
C312 C316 1.404 . S
H313 C311 0.951 . S
C314 C312 1.382 . S
C314 C315 1.390 . S
C314 H319 0.949 . S
C315 C314 1.390 . S
C315 C320 1.399 . S
C316 C312 1.404 . S
C316 H317 0.950 . S
C316 C318 1.375 . S
H317 C316 0.950 . S
C318 C316 1.375 . S
C318 C320 1.382 . S
C318 H322 0.950 . S
H319 C314 0.949 . S
C320 C315 1.399 . S
C320 C318 1.382 . S
C320 H321 0.952 . S
H321 C320 0.952 . S
H322 C318 0.950 . S
H323 C324 0.949 . S
C324 H323 0.949 . S
C324 C325 1.395 . S
C324 C326 1.391 . S
C325 C324 1.395 . S
C325 C328 1.390 . S
C326 C324 1.391 . S
C326 C330 1.387 . S
C326 C331 1.491 . S
H327 C328 0.950 . S
C328 C325 1.390 . S
C328 H327 0.950 . S
C328 C329 1.378 . S
C329 C328 1.378 . S
C329 C330 1.409 . S
C330 C326 1.387 . S
C330 C329 1.409 . S
C330 H332 0.951 . S
C331 C326 1.491 . S
C331 C333 1.382 . S
C331 C335 1.404 . S
H332 C330 0.951 . S
C333 C331 1.382 . S
C333 C334 1.390 . S
C333 H338 0.949 . S
C334 C333 1.390 . S
C334 C339 1.399 . S
C335 C331 1.404 . S
C335 H336 0.950 . S
C335 C337 1.375 . S
H336 C335 0.950 . S
C337 C335 1.375 . S
C337 C339 1.382 . S
C337 H341 0.950 . S
H338 C333 0.949 . S
C339 C334 1.399 . S
C339 C337 1.382 . S
C339 H340 0.952 . S
H340 C339 0.952 . S
H341 C337 0.950 . S
Eu342 N373 2.657 . S
Eu342 N380 2.609 . S
Eu342 O386 2.558 . S
Eu342 O387 2.612 1_566 S
Eu342 O389 2.339 1_565 S
Eu342 O390 2.563 1_565 S
Eu342 O391 2.419 1_565 S
Eu342 O393 2.380 1_556 S
Eu342 O394 2.432 . S
Eu342 C406 2.848 1_565 S
C343 C346 1.429 . S
C343 C347 1.411 . S
C343 N350 1.377 . S
C344 C346 1.420 . S
C344 C348 1.423 . S
C344 C356 1.392 . S
C345 C347 1.420 . S
C345 C348 1.351 . S
C345 H368 0.931 . S
C346 C343 1.429 . S
C346 C344 1.420 . S
C346 N354 1.362 . S
C347 C343 1.411 . S
C347 C345 1.420 . S
C347 C352 1.395 . S
C348 C344 1.423 . S
C348 C345 1.351 . S
C348 H360 0.930 . S
C349 C351 1.400 . S
C349 C352 1.386 . S
C349 H361 0.930 . S
N350 C343 1.377 . S
N350 C351 1.321 . S
N350 Eu353 2.609 . S
C351 C349 1.400 . S
C351 N350 1.321 . S
C351 H358 0.930 . S
C352 C347 1.395 . S
C352 C349 1.386 . S
C352 H371 0.930 . S
Eu353 N350 2.609 . S
Eu353 N354 2.657 . S
Eu353 O387 2.380 . S
Eu353 O388 2.432 . S
Eu353 O392 2.558 . S
Eu353 O393 2.612 1_545 S
Eu353 O395 2.339 1_545 S
Eu353 O396 2.563 1_545 S
Eu353 O397 2.419 1_545 S
Eu353 C417 2.847 1_545 S
N354 C346 1.362 . S
N354 Eu353 2.657 . S
N354 C355 1.334 . S
C355 N354 1.334 . S
C355 C357 1.413 . S
C355 H362 0.929 . S
C356 C344 1.392 . S
C356 C357 1.367 . S
C356 H364 0.930 . S
C357 C355 1.413 . S
C357 C356 1.367 . S
C357 H359 0.930 . S
H358 C351 0.930 . S
H359 C357 0.930 . S
H360 C348 0.930 . S
H361 C349 0.930 . S
H362 C355 0.929 . S
H363 C377 0.930 . S
H364 C356 0.930 . S
H365 C383 0.930 . S
H366 C374 0.918 1_545 S
H367 C381 0.930 . S
H368 C345 0.931 . S
H369 C375 0.930 . S
H370 C408 0.930 . S
H371 C352 0.930 . S
H372 C407 0.931 . S
N373 Eu342 2.657 . S
N373 C374 1.334 . S
N373 C378 1.362 . S
C374 H366 0.918 1_565 S
C374 N373 1.334 . S
C374 C377 1.413 . S
C375 H369 0.930 . S
C375 C376 1.392 . S
C375 C377 1.367 . S
C376 C375 1.392 . S
C376 C378 1.420 . S
C376 C408 1.423 . S
C377 H363 0.930 . S
C377 C374 1.413 . S
C377 C375 1.367 . S
C378 N373 1.362 . S
C378 C376 1.420 . S
C378 C382 1.429 . S
H379 C384 0.930 . S
N380 Eu342 2.609 . S
N380 C382 1.377 . S
N380 C383 1.321 . S
C381 H367 0.930 . S
C381 C383 1.400 . S
C381 C384 1.386 . S
C382 C378 1.429 . S
C382 N380 1.377 . S
C382 C385 1.411 . S
C383 H365 0.930 . S
C383 N380 1.321 . S
C383 C381 1.400 . S
C384 H379 0.930 . S
C384 C381 1.386 . S
C384 C385 1.395 . S
C385 C382 1.411 . S
C385 C384 1.395 . S
C385 C407 1.420 . S
O386 Eu342 2.558 . S
O386 C406 1.257 1_565 S
O387 Eu342 2.612 1_544 S
O387 Eu353 2.380 . S
O387 C398 1.276 1_554 S
O388 Eu353 2.432 . S
O388 C405 1.264 . S
O389 Eu342 2.339 1_545 S
O389 C405 1.254 1_556 S
O390 Eu342 2.563 1_545 S
O390 C398 1.235 . S
O391 Eu342 2.419 1_545 S
O391 C406 1.249 . S
O392 Eu353 2.558 . S
O392 C417 1.250 1_545 S
O393 Eu342 2.380 1_554 S
O393 Eu353 2.612 1_565 S
O393 C409 1.276 . S
O394 Eu342 2.432 . S
O394 C416 1.264 1_556 S
O395 Eu353 2.339 1_565 S
O395 C416 1.254 . S
O396 Eu353 2.563 1_565 S
O396 C409 1.235 . S
O397 Eu353 2.419 1_565 S
O397 C417 1.254 . S
C398 O387 1.276 1_556 S
C398 O390 1.235 . S
C399 C401 1.393 . S
C399 C403 1.395 1_545 S
C399 C406 1.492 . S
C400 C401 1.392 . S
C400 C402 1.386 . S
C401 C399 1.393 . S
C401 C400 1.392 . S
C401 H418 0.930 . S
C402 C400 1.386 . S
C402 C404 1.395 . S
C402 H419 0.930 . S
C403 C399 1.395 1_565 S
C403 C404 1.379 1_565 S
C403 H420 0.930 . S
C404 C402 1.395 . S
C404 C403 1.379 1_545 S
C404 H421 0.930 1_545 S
C405 O388 1.264 . S
C405 O389 1.254 1_554 S
C406 Eu342 2.848 1_545 S
C406 O386 1.257 1_545 S
C406 O391 1.249 . S
C406 C399 1.492 . S
C407 H372 0.931 . S
C407 C385 1.420 . S
C407 C408 1.351 . S
C408 H370 0.930 . S
C408 C376 1.423 . S
C408 C407 1.351 . S
C409 O393 1.276 . S
C409 O396 1.235 . S
C410 C411 1.393 . S
C410 C414 1.395 1_565 S
C410 C417 1.493 . S
C411 C410 1.393 . S
C411 C412 1.392 . S
C411 H422 0.930 . S
C412 C411 1.392 . S
C412 C413 1.386 . S
C413 C412 1.386 . S
C413 C415 1.395 . S
C413 H423 0.930 . S
C414 C410 1.395 1_545 S
C414 C415 1.379 1_545 S
C414 H424 0.930 . S
C415 C413 1.395 . S
C415 C414 1.379 1_565 S
C415 H425 0.930 1_565 S
C416 O394 1.264 1_554 S
C416 O395 1.254 . S
C417 Eu353 2.847 1_565 S
C417 O392 1.250 1_565 S
C417 O397 1.254 . S
C417 C410 1.493 . S
H418 C401 0.930 . S
H419 C402 0.930 . S
H420 C403 0.930 . S
H421 C404 0.930 1_565 S
H422 C411 0.930 . S
H423 C413 0.930 . S
H424 C414 0.930 . S
H425 C415 0.930 1_545 S
Eu426 N457 2.657 . S
Eu426 N464 2.609 . S
Eu426 O470 2.558 . S
Eu426 O471 2.612 1_456 S
Eu426 O473 2.339 1_455 S
Eu426 O474 2.563 1_455 S
Eu426 O475 2.419 1_455 S
Eu426 O477 2.380 1_556 S
Eu426 O478 2.432 . S
Eu426 C490 2.848 . S
C427 C430 1.429 . S
C427 C431 1.411 . S
C427 N434 1.377 . S
C428 C430 1.420 . S
C428 C432 1.423 . S
C428 C440 1.392 . S
C429 C431 1.420 . S
C429 C432 1.351 . S
C429 H452 0.931 . S
C430 C427 1.429 . S
C430 C428 1.420 . S
C430 N438 1.362 . S
C431 C427 1.411 . S
C431 C429 1.420 . S
C431 C436 1.395 . S
C432 C428 1.423 . S
C432 C429 1.351 . S
C432 H444 0.930 . S
C433 C435 1.400 . S
C433 C436 1.386 . S
C433 H445 0.930 . S
N434 C427 1.377 . S
N434 C435 1.321 . S
N434 Eu437 2.609 . S
C435 C433 1.400 . S
C435 N434 1.321 . S
C435 H442 0.930 . S
C436 C431 1.395 . S
C436 C433 1.386 . S
C436 H455 0.930 . S
Eu437 N434 2.609 . S
Eu437 N438 2.657 . S
Eu437 O471 2.380 . S
Eu437 O472 2.432 . S
Eu437 O476 2.558 . S
Eu437 O477 2.612 1_655 S
Eu437 O479 2.339 1_655 S
Eu437 O480 2.563 1_655 S
Eu437 O481 2.419 1_655 S
Eu437 C501 2.848 1_655 S
N438 C430 1.362 . S
N438 Eu437 2.657 . S
N438 C439 1.334 . S
C439 N438 1.334 . S
C439 C441 1.413 . S
C439 H446 0.890 1_655 S
C440 C428 1.392 . S
C440 C441 1.367 . S
C440 H448 0.930 . S
C441 C439 1.413 . S
C441 C440 1.367 . S
C441 H443 0.930 . S
H442 C435 0.930 . S
H443 C441 0.930 . S
H444 C432 0.930 . S
H445 C433 0.930 . S
H446 C439 0.890 1_455 S
H447 C461 0.930 . S
H448 C440 0.930 . S
H449 C467 0.930 . S
H450 C458 0.929 . S
H451 C465 0.930 . S
H452 C429 0.931 . S
H453 C459 0.930 . S
H454 C492 0.930 . S
H455 C436 0.930 . S
H456 C491 0.931 . S
N457 Eu426 2.657 . S
N457 C458 1.334 . S
N457 C462 1.362 . S
C458 H450 0.929 . S
C458 N457 1.334 . S
C458 C461 1.413 . S
C459 H453 0.930 . S
C459 C460 1.392 . S
C459 C461 1.367 . S
C460 C459 1.392 . S
C460 C462 1.420 . S
C460 C492 1.423 . S
C461 H447 0.930 . S
C461 C458 1.413 . S
C461 C459 1.367 . S
C462 N457 1.362 . S
C462 C460 1.420 . S
C462 C466 1.429 . S
H463 C468 0.930 . S
N464 Eu426 2.609 . S
N464 C466 1.377 . S
N464 C467 1.321 . S
C465 H451 0.930 . S
C465 C467 1.400 . S
C465 C468 1.386 . S
C466 C462 1.429 . S
C466 N464 1.377 . S
C466 C469 1.411 . S
C467 H449 0.930 . S
C467 N464 1.321 . S
C467 C465 1.400 . S
C468 H463 0.930 . S
C468 C465 1.386 . S
C468 C469 1.395 . S
C469 C466 1.411 . S
C469 C468 1.395 . S
C469 C491 1.420 . S
O470 Eu426 2.558 . S
O470 C490 1.257 . S
O471 Eu426 2.612 1_654 S
O471 Eu437 2.380 . S
O471 C482 1.276 1_554 S
O472 Eu437 2.432 . S
O472 C489 1.264 . S
O473 Eu426 2.339 1_655 S
O473 C489 1.254 1_556 S
O474 Eu426 2.563 1_655 S
O474 C482 1.235 . S
O475 Eu426 2.419 1_655 S
O475 C490 1.249 1_655 S
O476 Eu437 2.558 . S
O476 C501 1.257 1_655 S
O477 Eu426 2.380 1_554 S
O477 Eu437 2.612 1_455 S
O477 C493 1.276 . S
O478 Eu426 2.432 . S
O478 C500 1.264 1_556 S
O479 Eu437 2.339 1_455 S
O479 C500 1.254 . S
O480 Eu437 2.563 1_455 S
O480 C493 1.235 . S
O481 Eu437 2.419 1_455 S
O481 C501 1.249 . S
C482 O471 1.276 1_556 S
C482 O474 1.235 . S
C483 C485 1.393 . S
C483 C487 1.395 1_655 S
C483 C490 1.492 1_655 S
C484 C485 1.392 . S
C484 C486 1.386 . S
C485 C483 1.393 . S
C485 C484 1.392 . S
C485 H502 0.930 . S
C486 C484 1.386 . S
C486 C488 1.395 1_655 S
C486 H503 0.930 . S
C487 C483 1.395 1_455 S
C487 C488 1.379 . S
C487 H504 0.930 . S
C488 C486 1.395 1_455 S
C488 C487 1.379 . S
C488 H505 0.930 . S
C489 O472 1.264 . S
C489 O473 1.254 1_554 S
C490 Eu426 2.848 . S
C490 O470 1.257 . S
C490 O475 1.249 1_455 S
C490 C483 1.492 1_455 S
C491 H456 0.931 . S
C491 C469 1.420 . S
C491 C492 1.351 . S
C492 H454 0.930 . S
C492 C460 1.423 . S
C492 C491 1.351 . S
C493 O477 1.276 . S
C493 O480 1.235 . S
C494 C495 1.393 . S
C494 C498 1.395 1_455 S
C494 C501 1.492 . S
C495 C494 1.393 . S
C495 C496 1.392 . S
C495 H506 0.930 . S
C496 C495 1.392 . S
C496 C497 1.386 . S
C497 C496 1.386 . S
C497 C499 1.395 . S
C497 H507 0.930 . S
C498 C494 1.395 1_655 S
C498 C499 1.379 1_655 S
C498 H508 0.930 . S
C499 C497 1.395 . S
C499 C498 1.379 1_455 S
C499 H509 0.930 1_455 S
C500 O478 1.264 1_554 S
C500 O479 1.254 . S
C501 Eu437 2.848 1_455 S
C501 O476 1.257 1_455 S
C501 O481 1.249 . S
C501 C494 1.492 . S
H502 C485 0.930 . S
H503 C486 0.930 . S
H504 C487 0.930 . S
H505 C488 0.930 . S
H506 C495 0.930 . S
H507 C497 0.930 . S
H508 C498 0.930 . S
H509 C499 0.930 1_655 S
Eu510 N541 2.657 . S
Eu510 N548 2.609 . S
Eu510 O554 2.558 . S
Eu510 O555 2.612 . S
Eu510 O557 2.339 . S
Eu510 O558 2.563 . S
Eu510 O559 2.419 . S
Eu510 O561 2.380 . S
Eu510 O562 2.432 . S
Eu510 C574 2.848 . S
C511 C514 1.429 . S
C511 C515 1.411 . S
C511 N518 1.377 . S
C512 C514 1.420 . S
C512 C516 1.423 . S
C512 C524 1.392 . S
C513 C515 1.420 . S
C513 C516 1.351 . S
C513 H536 0.931 . S
C514 C511 1.429 . S
C514 C512 1.420 . S
C514 N522 1.362 . S
C515 C511 1.411 . S
C515 C513 1.420 . S
C515 C520 1.395 . S
C516 C512 1.423 . S
C516 C513 1.351 . S
C516 H528 0.930 . S
C517 C519 1.400 . S
C517 C520 1.386 . S
C517 H529 0.930 . S
N518 C511 1.377 . S
N518 C519 1.321 . S
N518 Eu521 2.609 . S
C519 C517 1.400 . S
C519 N518 1.321 . S
C519 H526 0.930 . S
C520 C515 1.395 . S
C520 C517 1.386 . S
C520 H539 0.930 . S
Eu521 N518 2.609 . S
Eu521 N522 2.657 . S
Eu521 O555 2.380 1_556 S
Eu521 O556 2.459 . S
Eu521 O560 2.558 . S
Eu521 O561 2.612 1_556 S
Eu521 O563 2.339 . S
Eu521 O564 2.563 . S
Eu521 O565 2.419 . S
Eu521 C585 2.848 . S
N522 C514 1.362 . S
N522 Eu521 2.657 . S
N522 C523 1.334 . S
C523 N522 1.334 . S
C523 C525 1.413 . S
C523 H530 0.929 . S
C524 C512 1.392 . S
C524 C525 1.367 . S
C524 H532 0.930 . S
C525 C523 1.413 . S
C525 C524 1.367 . S
C525 H527 0.930 . S
H526 C519 0.930 . S
H527 C525 0.930 . S
H528 C516 0.930 . S
H529 C517 0.930 . S
H530 C523 0.929 . S
H531 C545 0.930 . S
H532 C524 0.930 . S
H533 C551 0.930 . S
H534 C542 0.929 . S
H535 C549 0.930 . S
H536 C513 0.931 . S
H537 C543 0.930 . S
H538 C576 0.930 . S
H539 C520 0.930 . S
H540 C575 0.931 . S
N541 Eu510 2.657 . S
N541 C542 1.334 . S
N541 C546 1.362 . S
C542 H534 0.929 . S
C542 N541 1.334 . S
C542 C545 1.413 . S
C543 H537 0.930 . S
C543 C544 1.392 . S
C543 C545 1.367 . S
C544 C543 1.392 . S
C544 C546 1.420 . S
C544 C576 1.423 . S
C545 H531 0.930 . S
C545 C542 1.413 . S
C545 C543 1.367 . S
C546 N541 1.362 . S
C546 C544 1.420 . S
C546 C550 1.429 . S
H547 C552 0.930 . S
N548 Eu510 2.609 . S
N548 C550 1.377 . S
N548 C551 1.321 . S
C549 H535 0.930 . S
C549 C551 1.400 . S
C549 C552 1.386 . S
C550 C546 1.429 . S
C550 N548 1.377 . S
C550 C553 1.411 . S
C551 H533 0.930 . S
C551 N548 1.321 . S
C551 C549 1.400 . S
C552 H547 0.930 . S
C552 C549 1.386 . S
C552 C553 1.395 . S
C553 C550 1.411 . S
C553 C552 1.395 . S
C553 C575 1.420 . S
O554 Eu510 2.558 . S
O554 C574 1.257 . S
O555 Eu510 2.612 . S
O555 Eu521 2.380 1_554 S
O555 C566 1.276 . S
O556 Eu521 2.459 . S
O556 C573 1.208 1_556 S
O557 Eu510 2.339 . S
O557 C573 1.254 . S
O558 Eu510 2.563 . S
O558 C566 1.235 . S
O559 Eu510 2.419 . S
O559 C574 1.249 . S
O560 Eu521 2.558 . S
O560 C585 1.257 . S
O561 Eu510 2.380 . S
O561 Eu521 2.612 1_554 S
O561 C577 1.276 1_554 S
O562 Eu510 2.432 . S
O562 C584 1.264 . S
O563 Eu521 2.339 . S
O563 C584 1.254 1_556 S
O564 Eu521 2.563 . S
O564 C577 1.235 . S
O565 Eu521 2.419 . S
O565 C585 1.249 . S
C566 O555 1.276 . S
C566 O558 1.235 . S
C567 C569 1.393 . S
C567 C571 1.395 . S
C567 C574 1.492 . S
C568 C569 1.392 . S
C568 C570 1.386 . S
C569 C567 1.393 . S
C569 C568 1.392 . S
C569 H586 0.930 . S
C570 C568 1.386 . S
C570 C572 1.395 . S
C570 H587 0.930 . S
C571 C567 1.395 . S
C571 C572 1.379 . S
C571 H588 0.930 . S
C572 C570 1.395 . S
C572 C571 1.379 . S
C572 H589 0.930 . S
C573 O556 1.208 1_554 S
C573 O557 1.254 . S
C574 Eu510 2.848 . S
C574 O554 1.257 . S
C574 O559 1.249 . S
C574 C567 1.492 . S
C575 H540 0.931 . S
C575 C553 1.420 . S
C575 C576 1.351 . S
C576 H538 0.930 . S
C576 C544 1.423 . S
C576 C575 1.351 . S
C577 O561 1.276 1_556 S
C577 O564 1.235 . S
C578 C579 1.393 . S
C578 C582 1.395 . S
C578 C585 1.492 . S
C579 C578 1.393 . S
C579 C580 1.392 . S
C579 H590 0.930 . S
C580 C579 1.392 . S
C580 C581 1.386 . S
C581 C580 1.386 . S
C581 C583 1.395 . S
C581 H591 0.930 . S
C582 C578 1.395 . S
C582 C583 1.379 . S
C582 H592 0.930 . S
C583 C581 1.395 . S
C583 C582 1.379 . S
C583 H593 0.930 . S
C584 O562 1.264 . S
C584 O563 1.254 1_554 S
C585 Eu521 2.848 . S
C585 O560 1.257 . S
C585 O565 1.249 . S
C585 C578 1.492 . S
H586 C569 0.930 . S
H587 C570 0.930 . S
H588 C571 0.930 . S
H589 C572 0.930 . S
H590 C579 0.930 . S
H591 C581 0.930 . S
H592 C582 0.930 . S
H593 C583 0.930 . S
Eu594 N625 2.657 . S
Eu594 N632 2.609 . S
Eu594 O638 2.558 . S
Eu594 O639 2.612 . S
Eu594 O641 2.339 . S
Eu594 O642 2.563 . S
Eu594 O643 2.419 . S
Eu594 O645 2.380 . S
Eu594 O646 2.432 . S
Eu594 C658 2.848 . S
C595 C598 1.429 . S
C595 C599 1.411 . S
C595 N602 1.377 . S
C596 C598 1.420 . S
C596 C600 1.423 . S
C596 C608 1.392 . S
C597 C599 1.420 . S
C597 C600 1.351 . S
C597 H620 0.931 . S
C598 C595 1.429 . S
C598 C596 1.420 . S
C598 N606 1.362 . S
C599 C595 1.411 . S
C599 C597 1.420 . S
C599 C604 1.395 . S
C600 C596 1.423 . S
C600 C597 1.351 . S
C600 H612 0.930 . S
C601 C603 1.400 . S
C601 C604 1.386 . S
C601 H613 0.930 . S
N602 C595 1.377 . S
N602 C603 1.321 . S
N602 Eu605 2.609 . S
C603 C601 1.400 . S
C603 N602 1.321 . S
C603 H610 0.930 . S
C604 C599 1.395 . S
C604 C601 1.386 . S
C604 H623 0.930 . S
Eu605 N602 2.609 . S
Eu605 N606 2.657 . S
Eu605 O639 2.380 . S
Eu605 O640 2.432 . S
Eu605 O644 2.558 . S
Eu605 O645 2.612 . S
Eu605 O647 2.339 . S
Eu605 O648 2.563 . S
Eu605 O649 2.419 . S
Eu605 C669 2.848 . S
N606 C598 1.362 . S
N606 Eu605 2.657 . S
N606 C607 1.334 . S
C607 N606 1.334 . S
C607 C609 1.413 . S
C607 H614 0.929 . S
C608 C596 1.392 . S
C608 C609 1.367 . S
C608 H616 0.930 . S
C609 C607 1.413 . S
C609 C608 1.367 . S
C609 H611 0.930 . S
H610 C603 0.930 . S
H611 C609 0.930 . S
H612 C600 0.930 . S
H613 C601 0.930 . S
H614 C607 0.929 . S
H615 C629 0.930 . S
H616 C608 0.930 . S
H617 C635 0.930 . S
H618 C626 0.929 . S
H619 C633 0.930 . S
H620 C597 0.931 . S
H621 C627 0.930 1_655 S
H622 C660 0.930 1_655 S
H623 C604 0.930 . S
H624 C659 0.931 . S
N625 Eu594 2.657 . S
N625 C626 1.334 . S
N625 C630 1.362 . S
C626 H618 0.929 . S
C626 N625 1.334 . S
C626 C629 1.413 . S
C627 H621 0.930 1_455 S
C627 C628 1.392 . S
C627 C629 1.367 . S
C628 C627 1.392 . S
C628 C630 1.420 . S
C628 C660 1.423 . S
C629 H615 0.930 . S
C629 C626 1.413 . S
C629 C627 1.367 . S
C630 N625 1.362 . S
C630 C628 1.420 . S
C630 C634 1.429 . S
H631 C636 0.930 . S
N632 Eu594 2.609 . S
N632 C634 1.377 . S
N632 C635 1.321 . S
C633 H619 0.930 . S
C633 C635 1.400 . S
C633 C636 1.386 . S
C634 C630 1.429 . S
C634 N632 1.377 . S
C634 C637 1.411 . S
C635 H617 0.930 . S
C635 N632 1.321 . S
C635 C633 1.400 . S
C636 H631 0.930 . S
C636 C633 1.386 . S
C636 C637 1.395 . S
C637 C634 1.411 . S
C637 C636 1.395 . S
C637 C659 1.420 . S
O638 Eu594 2.558 . S
O638 C658 1.257 . S
O639 Eu594 2.612 . S
O639 Eu605 2.380 . S
O639 C650 1.276 . S
O640 Eu605 2.432 . S
O640 C657 1.264 . S
O641 Eu594 2.339 . S
O641 C657 1.254 . S
O642 Eu594 2.563 . S
O642 C650 1.235 . S
O643 Eu594 2.419 . S
O643 C658 1.249 . S
O644 Eu605 2.558 . S
O644 C669 1.257 . S
O645 Eu594 2.380 . S
O645 Eu605 2.612 . S
O645 C661 1.276 . S
O646 Eu594 2.432 . S
O646 C668 1.264 . S
O647 Eu605 2.339 . S
O647 C668 1.254 . S
O648 Eu605 2.563 . S
O648 C661 1.235 . S
O649 Eu605 2.419 . S
O649 C669 1.249 . S
C650 O639 1.276 . S
C650 O642 1.235 . S
C651 C653 1.393 . S
C651 C655 1.395 . S
C651 C658 1.492 . S
C652 C653 1.392 . S
C652 C654 1.386 . S
C653 C651 1.393 . S
C653 C652 1.392 . S
C653 H670 0.930 . S
C654 C652 1.386 . S
C654 C656 1.395 . S
C654 H671 0.930 . S
C655 C651 1.395 . S
C655 C656 1.379 . S
C655 H672 0.930 . S
C656 C654 1.395 . S
C656 C655 1.379 . S
C656 H673 0.930 . S
C657 O640 1.264 . S
C657 O641 1.254 . S
C658 Eu594 2.848 . S
C658 O638 1.257 . S
C658 O643 1.249 . S
C658 C651 1.492 . S
C659 H624 0.931 . S
C659 C637 1.420 . S
C659 C660 1.351 . S
C660 H622 0.930 1_455 S
C660 C628 1.423 . S
C660 C659 1.351 . S
C661 O645 1.276 . S
C661 O648 1.235 . S
C662 C663 1.393 . S
C662 C666 1.395 . S
C662 C669 1.492 . S
C663 C662 1.393 . S
C663 C664 1.392 . S
C663 H674 0.930 . S
C664 C663 1.392 . S
C664 C665 1.386 . S
C665 C664 1.386 . S
C665 C667 1.395 . S
C665 H675 0.930 . S
C666 C662 1.395 . S
C666 C667 1.379 . S
C666 H676 0.930 . S
C667 C665 1.395 . S
C667 C666 1.379 . S
C667 H677 0.930 . S
C668 O646 1.264 . S
C668 O647 1.254 . S
C669 Eu605 2.848 . S
C669 O644 1.257 . S
C669 O649 1.249 . S
C669 C662 1.492 . S
H670 C653 0.930 . S
H671 C654 0.930 . S
H672 C655 0.930 . S
H673 C656 0.930 . S
H674 C663 0.930 . S
H675 C665 0.930 . S
H676 C666 0.930 . S
H677 C667 0.930 . S
Eu678 N709 2.657 . S
Eu678 N716 2.609 . S
Eu678 O722 2.558 . S
Eu678 O723 2.612 . S
Eu678 O725 2.339 . S
Eu678 O726 2.563 . S
Eu678 O727 2.419 . S
Eu678 O729 2.380 . S
Eu678 O730 2.432 . S
Eu678 C742 2.848 . S
C679 C682 1.429 . S
C679 C683 1.411 . S
C679 N686 1.377 . S
C680 C682 1.420 . S
C680 C684 1.423 . S
C680 C692 1.392 . S
C681 C683 1.420 . S
C681 C684 1.351 . S
C681 H704 0.931 . S
C682 C679 1.429 . S
C682 C680 1.420 . S
C682 N690 1.362 . S
C683 C679 1.411 . S
C683 C681 1.420 . S
C683 C688 1.395 . S
C684 C680 1.423 . S
C684 C681 1.351 . S
C684 H696 0.930 . S
C685 C687 1.400 . S
C685 C688 1.386 . S
C685 H697 0.930 . S
N686 C679 1.377 . S
N686 C687 1.321 . S
N686 Eu689 2.609 . S
C687 C685 1.400 . S
C687 N686 1.321 . S
C687 H694 0.930 . S
C688 C683 1.395 . S
C688 C685 1.386 . S
C688 H707 0.930 . S
Eu689 N686 2.609 . S
Eu689 N690 2.657 . S
Eu689 O723 2.380 . S
Eu689 O724 2.432 . S
Eu689 O728 2.558 . S
Eu689 O729 2.612 . S
Eu689 O731 2.339 . S
Eu689 O732 2.563 . S
Eu689 O733 2.419 . S
Eu689 C753 2.848 . S
N690 C682 1.362 . S
N690 Eu689 2.657 . S
N690 C691 1.334 . S
C691 N690 1.334 . S
C691 C693 1.413 . S
C691 H698 0.929 . S
C692 C680 1.392 . S
C692 C693 1.367 . S
C692 H700 0.930 . S
C693 C691 1.413 . S
C693 C692 1.367 . S
C693 H695 0.930 . S
H694 C687 0.930 . S
H695 C693 0.930 . S
H696 C684 0.930 . S
H697 C685 0.930 . S
H698 C691 0.929 . S
H699 C713 0.930 . S
H700 C692 0.930 . S
H701 C719 0.930 . S
H702 C710 0.929 . S
H703 C717 0.930 . S
H704 C681 0.931 . S
H705 C711 0.930 . S
H706 C744 0.930 . S
H707 C688 0.930 . S
H708 C743 0.931 . S
N709 Eu678 2.657 . S
N709 C710 1.334 . S
N709 C714 1.362 . S
C710 H702 0.929 . S
C710 N709 1.334 . S
C710 C713 1.413 . S
C711 H705 0.930 . S
C711 C712 1.392 . S
C711 C713 1.367 . S
C712 C711 1.392 . S
C712 C714 1.420 . S
C712 C744 1.423 . S
C713 H699 0.930 . S
C713 C710 1.413 . S
C713 C711 1.367 . S
C714 N709 1.362 . S
C714 C712 1.420 . S
C714 C718 1.429 . S
H715 C720 0.930 . S
N716 Eu678 2.609 . S
N716 C718 1.377 . S
N716 C719 1.321 . S
C717 H703 0.930 . S
C717 C719 1.400 . S
C717 C720 1.386 . S
C718 C714 1.429 . S
C718 N716 1.377 . S
C718 C721 1.411 . S
C719 H701 0.930 . S
C719 N716 1.321 . S
C719 C717 1.400 . S
C720 H715 0.930 . S
C720 C717 1.386 . S
C720 C721 1.395 . S
C721 C718 1.411 . S
C721 C720 1.395 . S
C721 C743 1.420 . S
O722 Eu678 2.558 . S
O722 C742 1.257 . S
O723 Eu678 2.612 . S
O723 Eu689 2.380 . S
O723 C734 1.276 . S
O724 Eu689 2.432 . S
O724 C741 1.264 . S
O725 Eu678 2.339 . S
O725 C741 1.254 . S
O726 Eu678 2.563 . S
O726 C734 1.235 . S
O727 Eu678 2.419 . S
O727 C742 1.249 . S
O728 Eu689 2.558 . S
O728 C753 1.257 . S
O729 Eu678 2.380 . S
O729 Eu689 2.612 . S
O729 C745 1.276 . S
O730 Eu678 2.432 . S
O730 C752 1.264 . S
O731 Eu689 2.339 . S
O731 C752 1.254 . S
O732 Eu689 2.563 . S
O732 C745 1.235 . S
O733 Eu689 2.419 . S
O733 C753 1.249 . S
C734 O723 1.276 . S
C734 O726 1.235 . S
C735 C737 1.393 . S
C735 C739 1.395 . S
C735 C742 1.492 . S
C736 C737 1.392 . S
C736 C738 1.386 . S
C737 C735 1.393 . S
C737 C736 1.392 . S
C737 H754 0.930 . S
C738 C736 1.386 . S
C738 C740 1.395 . S
C738 H755 0.930 . S
C739 C735 1.395 . S
C739 C740 1.379 . S
C739 H756 0.930 . S
C740 C738 1.395 . S
C740 C739 1.379 . S
C740 H757 0.930 . S
C741 O724 1.264 . S
C741 O725 1.254 . S
C742 Eu678 2.848 . S
C742 O722 1.257 . S
C742 O727 1.249 . S
C742 C735 1.492 . S
C743 H708 0.931 . S
C743 C721 1.420 . S
C743 C744 1.351 . S
C744 H706 0.930 . S
C744 C712 1.423 . S
C744 C743 1.351 . S
C745 O729 1.276 . S
C745 O732 1.235 . S
C746 C747 1.393 . S
C746 C750 1.395 . S
C746 C753 1.492 . S
C747 C746 1.393 . S
C747 C748 1.392 . S
C747 H758 0.930 . S
C748 C747 1.392 . S
C748 C749 1.386 . S
C749 C748 1.386 . S
C749 C751 1.395 . S
C749 H759 0.930 . S
C750 C746 1.395 . S
C750 C751 1.379 . S
C750 H760 0.930 . S
C751 C749 1.395 . S
C751 C750 1.379 . S
C751 H761 0.930 . S
C752 O730 1.264 . S
C752 O731 1.254 . S
C753 Eu689 2.848 . S
C753 O728 1.257 . S
C753 O733 1.249 . S
C753 C746 1.492 . S
H754 C737 0.930 . S
H755 C738 0.930 . S
H756 C739 0.930 . S
H757 C740 0.930 . S
H758 C747 0.930 . S
H759 C749 0.930 . S
H760 C750 0.930 . S
H761 C751 0.930 . S
Eu762 N793 2.657 . S
Eu762 N800 2.609 . S
Eu762 O806 2.558 . S
Eu762 O807 2.612 . S
Eu762 O809 2.339 . S
Eu762 O810 2.563 . S
Eu762 O811 2.419 . S
Eu762 O813 2.380 . S
Eu762 O814 2.432 . S
Eu762 C826 2.848 . S
C763 C766 1.429 . S
C763 C767 1.411 . S
C763 N770 1.377 . S
C764 C766 1.420 . S
C764 C768 1.423 . S
C764 C776 1.392 . S
C765 C767 1.420 . S
C765 C768 1.351 . S
C765 H788 0.931 . S
C766 C763 1.429 . S
C766 C764 1.420 . S
C766 N774 1.362 . S
C767 C763 1.411 . S
C767 C765 1.420 . S
C767 C772 1.395 . S
C768 C764 1.423 . S
C768 C765 1.351 . S
C768 H780 0.930 . S
C769 C771 1.400 . S
C769 C772 1.386 . S
C769 H781 0.930 . S
N770 C763 1.377 . S
N770 C771 1.321 . S
N770 Eu773 2.609 . S
C771 C769 1.400 . S
C771 N770 1.321 . S
C771 H778 0.930 . S
C772 C767 1.395 . S
C772 C769 1.386 . S
C772 H791 0.930 . S
Eu773 N770 2.609 . S
Eu773 N774 2.657 . S
Eu773 O807 2.380 . S
Eu773 O808 2.432 . S
Eu773 O812 2.558 . S
Eu773 O813 2.612 . S
Eu773 O815 2.339 . S
Eu773 O816 2.563 . S
Eu773 O817 2.419 . S
Eu773 C837 2.848 . S
N774 C766 1.362 . S
N774 Eu773 2.657 . S
N774 C775 1.334 . S
C775 N774 1.334 . S
C775 C777 1.413 . S
C775 H782 0.929 . S
C776 C764 1.392 . S
C776 C777 1.367 . S
C776 H784 0.930 . S
C777 C775 1.413 . S
C777 C776 1.367 . S
C777 H779 0.930 . S
H778 C771 0.930 . S
H779 C777 0.930 . S
H780 C768 0.930 . S
H781 C769 0.930 . S
H782 C775 0.929 . S
H783 C797 0.930 . S
H784 C776 0.930 . S
H785 C803 0.930 . S
H786 C794 0.929 . S
H787 C801 0.930 . S
H788 C765 0.931 . S
H789 C795 0.930 . S
H790 C828 0.930 . S
H791 C772 0.930 . S
H792 C827 0.931 . S
N793 Eu762 2.657 . S
N793 C794 1.334 . S
N793 C798 1.362 . S
C794 H786 0.929 . S
C794 N793 1.334 . S
C794 C797 1.413 . S
C795 H789 0.930 . S
C795 C796 1.392 . S
C795 C797 1.367 . S
C796 C795 1.392 . S
C796 C798 1.420 . S
C796 C828 1.423 . S
C797 H783 0.930 . S
C797 C794 1.413 . S
C797 C795 1.367 . S
C798 N793 1.362 . S
C798 C796 1.420 . S
C798 C802 1.429 . S
H799 C804 0.930 . S
N800 Eu762 2.609 . S
N800 C802 1.377 . S
N800 C803 1.321 . S
C801 H787 0.930 . S
C801 C803 1.400 . S
C801 C804 1.386 . S
C802 C798 1.429 . S
C802 N800 1.377 . S
C802 C805 1.411 . S
C803 H785 0.930 . S
C803 N800 1.321 . S
C803 C801 1.400 . S
C804 H799 0.930 . S
C804 C801 1.386 . S
C804 C805 1.395 . S
C805 C802 1.411 . S
C805 C804 1.395 . S
C805 C827 1.420 . S
O806 Eu762 2.558 . S
O806 C826 1.257 . S
O807 Eu762 2.612 . S
O807 Eu773 2.380 . S
O807 C818 1.276 . S
O808 Eu773 2.432 . S
O808 C825 1.264 . S
O809 Eu762 2.339 . S
O809 C825 1.254 . S
O810 Eu762 2.563 . S
O810 C818 1.235 . S
O811 Eu762 2.419 . S
O811 C826 1.249 . S
O812 Eu773 2.558 . S
O812 C837 1.257 . S
O813 Eu762 2.380 . S
O813 Eu773 2.612 . S
O813 C829 1.276 . S
O814 Eu762 2.432 . S
O814 C836 1.264 . S
O815 Eu773 2.339 . S
O815 C836 1.254 . S
O816 Eu773 2.563 . S
O816 C829 1.235 . S
O817 Eu773 2.419 . S
O817 C837 1.249 . S
C818 O807 1.276 . S
C818 O810 1.235 . S
C819 C821 1.393 . S
C819 C823 1.395 . S
C819 C826 1.492 . S
C820 C821 1.392 . S
C820 C822 1.386 . S
C821 C819 1.393 . S
C821 C820 1.392 . S
C821 H838 0.930 . S
C822 C820 1.386 . S
C822 C824 1.395 . S
C822 H839 0.930 . S
C823 C819 1.395 . S
C823 C824 1.379 . S
C823 H840 0.930 . S
C824 C822 1.395 . S
C824 C823 1.379 . S
C824 H841 0.930 . S
C825 O808 1.264 . S
C825 O809 1.254 . S
C826 Eu762 2.848 . S
C826 O806 1.257 . S
C826 O811 1.249 . S
C826 C819 1.492 . S
C827 H792 0.931 . S
C827 C805 1.420 . S
C827 C828 1.351 . S
C828 H790 0.930 . S
C828 C796 1.423 . S
C828 C827 1.351 . S
C829 O813 1.276 . S
C829 O816 1.235 . S
C830 C831 1.393 . S
C830 C834 1.395 . S
C830 C837 1.492 . S
C831 C830 1.393 . S
C831 C832 1.392 . S
C831 H842 0.930 . S
C832 C831 1.392 . S
C832 C833 1.386 . S
C833 C832 1.386 . S
C833 C835 1.395 . S
C833 H843 0.930 . S
C834 C830 1.395 . S
C834 C835 1.379 . S
C834 H844 0.930 . S
C835 C833 1.395 . S
C835 C834 1.379 . S
C835 H845 0.930 . S
C836 O814 1.264 . S
C836 O815 1.254 . S
C837 Eu773 2.848 . S
C837 O812 1.257 . S
C837 O817 1.249 . S
C837 C830 1.492 . S
H838 C821 0.930 . S
H839 C822 0.930 . S
H840 C823 0.930 . S
H841 C824 0.930 . S
H842 C831 0.930 . S
H843 C833 0.930 . S
H844 C834 0.930 . S
H845 C835 0.930 . S
Eu846 N877 2.657 . S
Eu846 N884 2.609 . S
Eu846 O890 2.558 . S
Eu846 O891 2.612 . S
Eu846 O893 2.339 . S
Eu846 O894 2.563 . S
Eu846 O895 2.419 . S
Eu846 O897 2.380 . S
Eu846 O898 2.432 . S
Eu846 C910 2.848 . S
C847 C850 1.429 . S
C847 C851 1.411 . S
C847 N854 1.377 . S
C848 C850 1.420 . S
C848 C852 1.423 . S
C848 C860 1.392 . S
C849 C851 1.420 . S
C849 C852 1.351 . S
C849 H872 0.931 . S
C850 C847 1.429 . S
C850 C848 1.420 . S
C850 N858 1.362 . S
C851 C847 1.411 . S
C851 C849 1.420 . S
C851 C856 1.395 . S
C852 C848 1.423 . S
C852 C849 1.351 . S
C852 H864 0.930 . S
C853 C855 1.400 . S
C853 C856 1.386 . S
C853 H865 0.930 . S
N854 C847 1.377 . S
N854 C855 1.321 . S
N854 Eu857 2.609 . S
C855 C853 1.400 . S
C855 N854 1.321 . S
C855 H862 0.930 . S
C856 C851 1.395 . S
C856 C853 1.386 . S
C856 H875 0.930 . S
Eu857 N854 2.609 . S
Eu857 N858 2.657 . S
Eu857 O891 2.380 . S
Eu857 O892 2.432 . S
Eu857 O896 2.558 . S
Eu857 O897 2.612 . S
Eu857 O899 2.339 . S
Eu857 O900 2.563 . S
Eu857 O901 2.419 . S
Eu857 C921 2.848 . S
N858 C850 1.362 . S
N858 Eu857 2.657 . S
N858 C859 1.334 . S
C859 N858 1.334 . S
C859 C861 1.413 . S
C859 H866 0.929 . S
C860 C848 1.392 . S
C860 C861 1.367 . S
C860 H868 0.930 . S
C861 C859 1.413 . S
C861 C860 1.367 . S
C861 H863 0.930 . S
H862 C855 0.930 . S
H863 C861 0.930 . S
H864 C852 0.930 . S
H865 C853 0.930 . S
H866 C859 0.929 . S
H867 C881 0.930 . S
H868 C860 0.930 . S
H869 C887 0.930 . S
H870 C878 0.929 . S
H871 C885 0.930 . S
H872 C849 0.931 . S
H873 C879 0.930 . S
H874 C912 0.930 . S
H875 C856 0.930 . S
H876 C911 0.931 . S
N877 Eu846 2.657 . S
N877 C878 1.334 . S
N877 C882 1.362 . S
C878 H870 0.929 . S
C878 N877 1.334 . S
C878 C881 1.413 . S
C879 H873 0.930 . S
C879 C880 1.392 . S
C879 C881 1.367 . S
C880 C879 1.392 . S
C880 C882 1.420 . S
C880 C912 1.423 . S
C881 H867 0.930 . S
C881 C878 1.413 . S
C881 C879 1.367 . S
C882 N877 1.362 . S
C882 C880 1.420 . S
C882 C886 1.429 . S
H883 C888 0.930 . S
N884 Eu846 2.609 . S
N884 C886 1.377 . S
N884 C887 1.321 . S
C885 H871 0.930 . S
C885 C887 1.400 . S
C885 C888 1.386 . S
C886 C882 1.429 . S
C886 N884 1.377 . S
C886 C889 1.411 . S
C887 H869 0.930 . S
C887 N884 1.321 . S
C887 C885 1.400 . S
C888 H883 0.930 . S
C888 C885 1.386 . S
C888 C889 1.395 . S
C889 C886 1.411 . S
C889 C888 1.395 . S
C889 C911 1.420 . S
O890 Eu846 2.558 . S
O890 C910 1.257 . S
O891 Eu846 2.612 . S
O891 Eu857 2.380 . S
O891 C902 1.276 . S
O892 Eu857 2.432 . S
O892 C909 1.264 . S
O893 Eu846 2.339 . S
O893 C909 1.254 . S
O894 Eu846 2.563 . S
O894 C902 1.235 . S
O895 Eu846 2.419 . S
O895 C910 1.249 . S
O896 Eu857 2.558 . S
O896 C921 1.257 . S
O897 Eu846 2.380 . S
O897 Eu857 2.612 . S
O897 C913 1.276 . S
O898 Eu846 2.432 . S
O898 C920 1.264 . S
O899 Eu857 2.339 . S
O899 C920 1.254 . S
O900 Eu857 2.563 . S
O900 C913 1.235 . S
O901 Eu857 2.419 . S
O901 C921 1.249 . S
C902 O891 1.276 . S
C902 O894 1.235 . S
C903 C905 1.393 . S
C903 C907 1.395 . S
C903 C910 1.492 . S
C904 C905 1.392 . S
C904 C906 1.386 . S
C905 C903 1.393 . S
C905 C904 1.392 . S
C905 H922 0.930 . S
C906 C904 1.386 . S
C906 C908 1.395 . S
C906 H923 0.930 . S
C907 C903 1.395 . S
C907 C908 1.379 . S
C907 H924 0.930 . S
C908 C906 1.395 . S
C908 C907 1.379 . S
C908 H925 0.930 . S
C909 O892 1.264 . S
C909 O893 1.254 . S
C910 Eu846 2.848 . S
C910 O890 1.257 . S
C910 O895 1.249 . S
C910 C903 1.492 . S
C911 H876 0.931 . S
C911 C889 1.420 . S
C911 C912 1.351 . S
C912 H874 0.930 . S
C912 C880 1.423 . S
C912 C911 1.351 . S
C913 O897 1.276 . S
C913 O900 1.235 . S
C914 C915 1.393 . S
C914 C918 1.395 . S
C914 C921 1.492 . S
C915 C914 1.393 . S
C915 C916 1.392 . S
C915 H926 0.930 . S
C916 C915 1.392 . S
C916 C917 1.386 . S
C917 C916 1.386 . S
C917 C919 1.395 . S
C917 H927 0.930 . S
C918 C914 1.395 . S
C918 C919 1.379 . S
C918 H928 0.930 . S
C919 C917 1.395 . S
C919 C918 1.379 . S
C919 H929 0.930 . S
C920 O898 1.264 . S
C920 O899 1.254 . S
C921 Eu857 2.848 . S
C921 O896 1.257 . S
C921 O901 1.249 . S
C921 C914 1.492 . S
H922 C905 0.930 . S
H923 C906 0.930 . S
H924 C907 0.930 . S
H925 C908 0.930 . S
H926 C915 0.930 . S
H927 C917 0.930 . S
H928 C918 0.930 . S
H929 C919 0.930 . S
Eu930 N961 2.657 . S
Eu930 N968 2.609 . S
Eu930 O974 2.558 . S
Eu930 O975 2.612 . S
Eu930 O977 2.339 . S
Eu930 O978 2.563 . S
Eu930 O979 2.419 . S
Eu930 O981 2.380 . S
Eu930 O982 2.432 . S
Eu930 C994 2.848 . S
C931 C934 1.429 . S
C931 C935 1.411 . S
C931 N938 1.377 . S
C932 C934 1.420 . S
C932 C936 1.423 . S
C932 C944 1.392 . S
C933 C935 1.420 . S
C933 C936 1.351 . S
C933 H956 0.931 . S
C934 C931 1.429 . S
C934 C932 1.420 . S
C934 N942 1.362 . S
C935 C931 1.411 . S
C935 C933 1.420 . S
C935 C940 1.395 . S
C936 C932 1.423 . S
C936 C933 1.351 . S
C936 H948 0.930 . S
C937 C939 1.400 . S
C937 C940 1.386 . S
C937 H949 0.930 . S
N938 C931 1.377 . S
N938 C939 1.321 . S
N938 Eu941 2.609 . S
C939 C937 1.400 . S
C939 N938 1.321 . S
C939 H946 0.930 . S
C940 C935 1.395 . S
C940 C937 1.386 . S
C940 H959 0.930 . S
Eu941 N938 2.609 . S
Eu941 N942 2.657 . S
Eu941 O975 2.380 . S
Eu941 O976 2.432 . S
Eu941 O980 2.558 . S
Eu941 O981 2.612 . S
Eu941 O983 2.339 . S
Eu941 O984 2.563 . S
Eu941 O985 2.419 . S
Eu941 C1005 2.848 . S
N942 C934 1.362 . S
N942 Eu941 2.657 . S
N942 C943 1.334 . S
C943 N942 1.334 . S
C943 C945 1.413 . S
C943 H950 0.929 . S
C944 C932 1.392 . S
C944 C945 1.367 . S
C944 H952 0.930 . S
C945 C943 1.413 . S
C945 C944 1.367 . S
C945 H947 0.930 . S
H946 C939 0.930 . S
H947 C945 0.930 . S
H948 C936 0.930 . S
H949 C937 0.930 . S
H950 C943 0.929 . S
H951 C965 0.930 . S
H952 C944 0.930 . S
H953 C971 0.930 . S
H954 C962 0.929 . S
H955 C969 0.930 . S
H956 C933 0.931 . S
H957 C963 0.930 . S
H958 C996 0.930 . S
H959 C940 0.930 . S
H960 C995 0.931 . S
N961 Eu930 2.657 . S
N961 C962 1.334 . S
N961 C966 1.362 . S
C962 H954 0.929 . S
C962 N961 1.334 . S
C962 C965 1.413 . S
C963 H957 0.930 . S
C963 C964 1.392 . S
C963 C965 1.367 . S
C964 C963 1.392 . S
C964 C966 1.420 . S
C964 C996 1.423 . S
C965 H951 0.930 . S
C965 C962 1.413 . S
C965 C963 1.367 . S
C966 N961 1.362 . S
C966 C964 1.420 . S
C966 C970 1.429 . S
H967 C972 0.930 . S
N968 Eu930 2.609 . S
N968 C970 1.377 . S
N968 C971 1.321 . S
C969 H955 0.930 . S
C969 C971 1.400 . S
C969 C972 1.386 . S
C970 C966 1.429 . S
C970 N968 1.377 . S
C970 C973 1.411 . S
C971 H953 0.930 . S
C971 N968 1.321 . S
C971 C969 1.400 . S
C972 H967 0.930 . S
C972 C969 1.386 . S
C972 C973 1.395 . S
C973 C970 1.411 . S
C973 C972 1.395 . S
C973 C995 1.420 . S
O974 Eu930 2.558 . S
O974 C994 1.257 . S
O975 Eu930 2.612 . S
O975 Eu941 2.380 . S
O975 C986 1.276 . S
O976 Eu941 2.432 . S
O976 C993 1.264 . S
O977 Eu930 2.339 . S
O977 C993 1.254 . S
O978 Eu930 2.563 . S
O978 C986 1.235 . S
O979 Eu930 2.419 . S
O979 C994 1.249 . S
O980 Eu941 2.558 . S
O980 C1005 1.257 . S
O981 Eu930 2.380 . S
O981 Eu941 2.612 . S
O981 C997 1.276 . S
O982 Eu930 2.432 . S
O982 C1004 1.264 . S
O983 Eu941 2.339 . S
O983 C1004 1.254 . S
O984 Eu941 2.563 . S
O984 C997 1.235 . S
O985 Eu941 2.419 . S
O985 C1005 1.249 . S
C986 O975 1.276 . S
C986 O978 1.235 . S
C987 C989 1.393 . S
C987 C991 1.395 . S
C987 C994 1.492 . S
C988 C989 1.392 . S
C988 C990 1.386 . S
C989 C987 1.393 . S
C989 C988 1.392 . S
C989 H1006 0.930 . S
C990 C988 1.386 . S
C990 C992 1.395 . S
C990 H1007 0.930 . S
C991 C987 1.395 . S
C991 C992 1.379 . S
C991 H1008 0.930 . S
C992 C990 1.395 . S
C992 C991 1.379 . S
C992 H1009 0.930 . S
C993 O976 1.264 . S
C993 O977 1.254 . S
C994 Eu930 2.848 . S
C994 O974 1.257 . S
C994 O979 1.249 . S
C994 C987 1.492 . S
C995 H960 0.931 . S
C995 C973 1.420 . S
C995 C996 1.351 . S
C996 H958 0.930 . S
C996 C964 1.423 . S
C996 C995 1.351 . S
C997 O981 1.276 . S
C997 O984 1.235 . S
C998 C999 1.393 . S
C998 C1002 1.395 . S
C998 C1005 1.492 . S
C999 C998 1.393 . S
C999 C1000 1.392 . S
C999 H1010 0.930 . S
C1000 C999 1.392 . S
C1000 C1001 1.386 . S
C1001 C1000 1.386 . S
C1001 C1003 1.395 . S
C1001 H1011 0.930 . S
C1002 C998 1.395 . S
C1002 C1003 1.379 . S
C1002 H1012 0.930 . S
C1003 C1001 1.395 . S
C1003 C1002 1.379 . S
C1003 H1013 0.930 . S
C1004 O982 1.264 . S
C1004 O983 1.254 . S
C1005 Eu941 2.848 . S
C1005 O980 1.257 . S
C1005 O985 1.249 . S
C1005 C998 1.492 . S
H1006 C989 0.930 . S
H1007 C990 0.930 . S
H1008 C991 0.930 . S
H1009 C992 0.930 . S
H1010 C999 0.930 . S
H1011 C1001 0.930 . S
H1012 C1002 0.930 . S
H1013 C1003 0.930 . S
Eu1014 N1045 2.657 . S
Eu1014 N1052 2.609 . S
Eu1014 O1058 2.558 . S
Eu1014 O1059 2.612 . S
Eu1014 O1061 2.339 . S
Eu1014 O1062 2.563 . S
Eu1014 O1063 2.419 . S
Eu1014 O1065 2.380 . S
Eu1014 O1066 2.432 . S
Eu1014 C1078 2.848 . S
C1015 C1018 1.429 . S
C1015 C1019 1.411 . S
C1015 N1022 1.377 . S
C1016 C1018 1.420 . S
C1016 C1020 1.423 . S
C1016 C1028 1.392 . S
C1017 C1019 1.420 . S
C1017 C1020 1.351 . S
C1017 H1040 0.931 . S
C1018 C1015 1.429 . S
C1018 C1016 1.420 . S
C1018 N1026 1.362 . S
C1019 C1015 1.411 . S
C1019 C1017 1.420 . S
C1019 C1024 1.395 . S
C1020 C1016 1.423 . S
C1020 C1017 1.351 . S
C1020 H1032 0.930 . S
C1021 C1023 1.400 . S
C1021 C1024 1.386 . S
C1021 H1033 0.930 . S
N1022 C1015 1.377 . S
N1022 C1023 1.321 . S
N1022 Eu1025 2.609 . S
C1023 C1021 1.400 . S
C1023 N1022 1.321 . S
C1023 H1030 0.930 . S
C1024 C1019 1.395 . S
C1024 C1021 1.386 . S
C1024 H1043 0.930 . S
Eu1025 N1022 2.609 . S
Eu1025 N1026 2.657 . S
Eu1025 O1059 2.380 . S
Eu1025 O1060 2.432 . S
Eu1025 O1064 2.558 . S
Eu1025 O1065 2.612 . S
Eu1025 O1067 2.339 . S
Eu1025 O1068 2.563 . S
Eu1025 O1069 2.419 . S
Eu1025 C1089 2.848 . S
N1026 C1018 1.362 . S
N1026 Eu1025 2.657 . S
N1026 C1027 1.334 . S
C1027 N1026 1.334 . S
C1027 C1029 1.413 . S
C1027 H1034 0.929 . S
C1028 C1016 1.392 . S
C1028 C1029 1.367 . S
C1028 H1036 0.930 . S
C1029 C1027 1.413 . S
C1029 C1028 1.367 . S
C1029 H1031 0.930 . S
H1030 C1023 0.930 . S
H1031 C1029 0.930 . S
H1032 C1020 0.930 . S
H1033 C1021 0.930 . S
H1034 C1027 0.929 . S
H1035 C1049 0.930 . S
H1036 C1028 0.930 . S
H1037 C1055 0.930 . S
H1038 C1046 0.929 . S
H1039 C1053 0.930 . S
H1040 C1017 0.931 . S
H1041 C1047 0.930 1_455 S
H1042 C1080 0.930 1_455 S
H1043 C1024 0.930 . S
H1044 C1079 0.931 . S
N1045 Eu1014 2.657 . S
N1045 C1046 1.334 . S
N1045 C1050 1.362 . S
C1046 H1038 0.929 . S
C1046 N1045 1.334 . S
C1046 C1049 1.413 . S
C1047 H1041 0.930 1_655 S
C1047 C1048 1.392 . S
C1047 C1049 1.367 . S
C1048 C1047 1.392 . S
C1048 C1050 1.420 . S
C1048 C1080 1.423 . S
C1049 H1035 0.930 . S
C1049 C1046 1.413 . S
C1049 C1047 1.367 . S
C1050 N1045 1.362 . S
C1050 C1048 1.420 . S
C1050 C1054 1.429 . S
H1051 C1056 0.930 . S
N1052 Eu1014 2.609 . S
N1052 C1054 1.377 . S
N1052 C1055 1.321 . S
C1053 H1039 0.930 . S
C1053 C1055 1.400 . S
C1053 C1056 1.386 . S
C1054 C1050 1.429 . S
C1054 N1052 1.377 . S
C1054 C1057 1.411 . S
C1055 H1037 0.930 . S
C1055 N1052 1.321 . S
C1055 C1053 1.400 . S
C1056 H1051 0.930 . S
C1056 C1053 1.386 . S
C1056 C1057 1.395 . S
C1057 C1054 1.411 . S
C1057 C1056 1.395 . S
C1057 C1079 1.420 . S
O1058 Eu1014 2.558 . S
O1058 C1078 1.257 . S
O1059 Eu1014 2.612 . S
O1059 Eu1025 2.380 . S
O1059 C1070 1.276 . S
O1060 Eu1025 2.432 . S
O1060 C1077 1.264 . S
O1061 Eu1014 2.339 . S
O1061 C1077 1.254 . S
O1062 Eu1014 2.563 . S
O1062 C1070 1.235 . S
O1063 Eu1014 2.419 . S
O1063 C1078 1.249 . S
O1064 Eu1025 2.558 . S
O1064 C1089 1.257 . S
O1065 Eu1014 2.380 . S
O1065 Eu1025 2.612 . S
O1065 C1081 1.276 . S
O1066 Eu1014 2.432 . S
O1066 C1088 1.264 . S
O1067 Eu1025 2.339 . S
O1067 C1088 1.254 . S
O1068 Eu1025 2.563 . S
O1068 C1081 1.235 . S
O1069 Eu1025 2.419 . S
O1069 C1089 1.249 . S
C1070 O1059 1.276 . S
C1070 O1062 1.235 . S
C1071 C1073 1.393 . S
C1071 C1075 1.395 . S
C1071 C1078 1.492 . S
C1072 C1073 1.392 . S
C1072 C1074 1.386 . S
C1073 C1071 1.393 . S
C1073 C1072 1.392 . S
C1073 H1090 0.930 . S
C1074 C1072 1.386 . S
C1074 C1076 1.395 . S
C1074 H1091 0.930 . S
C1075 C1071 1.395 . S
C1075 C1076 1.379 . S
C1075 H1092 0.930 . S
C1076 C1074 1.395 . S
C1076 C1075 1.379 . S
C1076 H1093 0.930 . S
C1077 O1060 1.264 . S
C1077 O1061 1.254 . S
C1078 Eu1014 2.848 . S
C1078 O1058 1.257 . S
C1078 O1063 1.249 . S
C1078 C1071 1.492 . S
C1079 H1044 0.931 . S
C1079 C1057 1.420 . S
C1079 C1080 1.351 . S
C1080 H1042 0.930 1_655 S
C1080 C1048 1.423 . S
C1080 C1079 1.351 . S
C1081 O1065 1.276 . S
C1081 O1068 1.235 . S
C1082 C1083 1.393 . S
C1082 C1086 1.395 . S
C1082 C1089 1.492 . S
C1083 C1082 1.393 . S
C1083 C1084 1.392 . S
C1083 H1094 0.930 . S
C1084 C1083 1.392 . S
C1084 C1085 1.386 . S
C1085 C1084 1.386 . S
C1085 C1087 1.395 . S
C1085 H1095 0.930 . S
C1086 C1082 1.395 . S
C1086 C1087 1.379 . S
C1086 H1096 0.930 . S
C1087 C1085 1.395 . S
C1087 C1086 1.379 . S
C1087 H1097 0.930 . S
C1088 O1066 1.264 . S
C1088 O1067 1.254 . S
C1089 Eu1025 2.848 . S
C1089 O1064 1.257 . S
C1089 O1069 1.249 . S
C1089 C1082 1.492 . S
H1090 C1073 0.930 . S
H1091 C1074 0.930 . S
H1092 C1075 0.930 . S
H1093 C1076 0.930 . S
H1094 C1083 0.930 . S
H1095 C1085 0.930 . S
H1096 C1086 0.930 . S
H1097 C1087 0.930 . S
H1098 C1110 0.930 . S
H1099 C1112 0.930 . S
H1100 C1113 0.930 . S
H1101 C1117 0.959 . S
H1102 C1117 0.959 . S
H1103 C1117 0.961 . S
H1104 C1118 0.960 . S
H1105 C1118 0.961 . S
H1106 C1118 0.959 . S
H1107 C1121 0.929 1_556 S
H1108 C1122 0.931 1_556 S
H1109 C1124 0.930 . S
C1110 H1098 0.930 . S
C1110 C1111 1.399 . S
C1110 C1115 1.399 . S
C1111 C1110 1.399 . S
C1111 C1112 1.376 . S
C1112 H1099 0.930 . S
C1112 C1111 1.376 . S
C1112 C1113 1.388 . S
C1113 H1100 0.930 . S
C1113 C1112 1.388 . S
C1113 C1114 1.390 . S
C1114 C1113 1.390 . S
C1114 C1115 1.394 . S
C1114 C1120 1.465 . S
C1115 C1110 1.399 . S
C1115 C1114 1.394 . S
C1115 C1116 1.516 . S
C1116 C1115 1.516 . S
C1116 C1117 1.502 . S
C1116 C1118 1.561 . S
C1116 C1119 1.526 . S
C1117 H1101 0.959 . S
C1117 H1102 0.959 . S
C1117 H1103 0.961 . S
C1117 C1116 1.502 . S
C1118 H1104 0.960 . S
C1118 H1105 0.961 . S
C1118 H1106 0.959 . S
C1118 C1116 1.561 . S
C1119 C1116 1.526 . S
C1119 C1120 1.396 . S
C1119 C1124 1.390 . S
C1120 C1114 1.465 . S
C1120 C1119 1.396 . S
C1120 C1121 1.399 . S
C1121 H1107 0.929 1_554 S
C1121 C1120 1.399 . S
C1121 C1122 1.385 . S
C1122 H1108 0.931 1_554 S
C1122 C1121 1.385 . S
C1122 C1123 1.389 . S
C1123 C1122 1.389 . S
C1123 C1124 1.387 . S
C1124 H1109 0.930 . S
C1124 C1119 1.390 . S
C1124 C1123 1.387 . S
H1125 C1137 0.930 . S
H1126 C1139 0.930 . S
H1127 C1140 0.930 . S
H1128 C1144 0.959 . S
H1129 C1144 0.959 . S
H1130 C1144 0.961 . S
H1131 C1145 0.960 . S
H1132 C1145 0.961 . S
H1133 C1145 0.959 . S
H1134 C1148 0.929 . S
H1135 C1149 0.931 . S
H1136 C1151 0.930 . S
C1137 H1125 0.930 . S
C1137 C1138 1.399 . S
C1137 C1142 1.399 . S
C1138 C1137 1.399 . S
C1138 C1139 1.376 . S
C1139 H1126 0.930 . S
C1139 C1138 1.376 . S
C1139 C1140 1.388 . S
C1140 H1127 0.930 . S
C1140 C1139 1.388 . S
C1140 C1141 1.390 . S
C1141 C1140 1.390 . S
C1141 C1142 1.394 . S
C1141 C1147 1.465 . S
C1142 C1137 1.399 . S
C1142 C1141 1.394 . S
C1142 C1143 1.516 . S
C1143 C1142 1.516 . S
C1143 C1144 1.502 . S
C1143 C1145 1.561 . S
C1143 C1146 1.526 . S
C1144 H1128 0.959 . S
C1144 H1129 0.959 . S
C1144 H1130 0.961 . S
C1144 C1143 1.502 . S
C1145 H1131 0.960 . S
C1145 H1132 0.961 . S
C1145 H1133 0.959 . S
C1145 C1143 1.561 . S
C1146 C1143 1.526 . S
C1146 C1147 1.396 . S
C1146 C1151 1.390 . S
C1147 C1141 1.465 . S
C1147 C1146 1.396 . S
C1147 C1148 1.399 . S
C1148 H1134 0.929 . S
C1148 C1147 1.399 . S
C1148 C1149 1.385 . S
C1149 H1135 0.931 . S
C1149 C1148 1.385 . S
C1149 C1150 1.389 . S
C1150 C1149 1.389 . S
C1150 C1151 1.387 . S
C1151 H1136 0.930 . S
C1151 C1146 1.390 . S
C1151 C1150 1.387 . S
H1152 C1164 0.930 . S
H1153 C1166 0.930 . S
H1154 C1167 0.930 . S
H1155 C1171 0.959 . S
H1156 C1171 0.959 . S
H1157 C1171 0.961 . S
H1158 C1172 0.960 . S
H1159 C1172 0.961 . S
H1160 C1172 0.959 . S
H1161 C1175 0.929 . S
H1162 C1176 0.931 . S
H1163 C1178 0.930 . S
C1164 H1152 0.930 . S
C1164 C1165 1.399 . S
C1164 C1169 1.399 . S
C1165 C1164 1.399 . S
C1165 C1166 1.376 . S
C1166 H1153 0.930 . S
C1166 C1165 1.376 . S
C1166 C1167 1.388 . S
C1167 H1154 0.930 . S
C1167 C1166 1.388 . S
C1167 C1168 1.390 . S
C1168 C1167 1.390 . S
C1168 C1169 1.394 . S
C1168 C1174 1.465 . S
C1169 C1164 1.399 . S
C1169 C1168 1.394 . S
C1169 C1170 1.516 . S
C1170 C1169 1.516 . S
C1170 C1171 1.502 . S
C1170 C1172 1.561 1_554 S
C1170 C1173 1.526 . S
C1171 H1155 0.959 . S
C1171 H1156 0.959 . S
C1171 H1157 0.961 . S
C1171 C1170 1.502 . S
C1172 H1158 0.960 . S
C1172 H1159 0.961 . S
C1172 H1160 0.959 . S
C1172 C1170 1.561 1_556 S
C1173 C1170 1.526 . S
C1173 C1174 1.396 . S
C1173 C1178 1.390 . S
C1174 C1168 1.465 . S
C1174 C1173 1.396 . S
C1174 C1175 1.399 . S
C1175 H1161 0.929 . S
C1175 C1174 1.399 . S
C1175 C1176 1.385 . S
C1176 H1162 0.931 . S
C1176 C1175 1.385 . S
C1176 C1177 1.389 . S
C1177 C1176 1.389 . S
C1177 C1178 1.387 . S
C1178 H1163 0.930 . S
C1178 C1173 1.390 . S
C1178 C1177 1.387 . S
H1179 C1191 0.966 . S
H1180 C1193 0.930 . S
H1181 C1194 0.930 . S
H1182 C1198 0.959 . S
H1183 C1198 0.959 . S
H1184 C1198 0.961 . S
H1185 C1199 0.960 . S
H1186 C1199 0.961 . S
H1187 C1199 0.959 . S
H1188 C1202 0.929 . S
H1189 C1203 0.931 . S
H1190 C1205 0.930 . S
C1191 H1179 0.966 . S
C1191 C1192 1.399 . S
C1191 C1196 1.399 . S
C1192 C1191 1.399 . S
C1192 C1193 1.376 . S
C1193 H1180 0.930 . S
C1193 C1192 1.376 . S
C1193 C1194 1.388 . S
C1194 H1181 0.930 . S
C1194 C1193 1.388 . S
C1194 C1195 1.390 . S
C1195 C1194 1.390 . S
C1195 C1196 1.394 . S
C1195 C1201 1.465 . S
C1196 C1191 1.399 . S
C1196 C1195 1.394 . S
C1196 C1197 1.516 1_556 S
C1197 C1196 1.516 1_554 S
C1197 C1198 1.502 . S
C1197 C1199 1.561 . S
C1197 C1200 1.526 1_554 S
C1198 H1182 0.959 . S
C1198 H1183 0.959 . S
C1198 H1184 0.961 . S
C1198 C1197 1.502 . S
C1199 H1185 0.960 . S
C1199 H1186 0.961 . S
C1199 H1187 0.959 . S
C1199 C1197 1.561 . S
C1200 C1197 1.526 1_556 S
C1200 C1201 1.396 . S
C1200 C1205 1.390 1_556 S
C1201 C1195 1.465 . S
C1201 C1200 1.396 . S
C1201 C1202 1.399 . S
C1202 H1188 0.929 . S
C1202 C1201 1.399 . S
C1202 C1203 1.385 . S
C1203 H1189 0.931 . S
C1203 C1202 1.385 . S
C1203 C1204 1.389 . S
C1204 C1203 1.389 . S
C1204 C1205 1.387 1_556 S
C1205 H1190 0.930 . S
C1205 C1200 1.390 1_554 S
C1205 C1204 1.387 1_554 S
H1206 C1218 0.930 . S
H1207 C1220 0.930 . S
H1208 C1221 0.930 . S
H1209 C1225 0.959 . S
H1210 C1225 0.959 . S
H1211 C1225 0.961 . S
H1212 C1226 0.960 . S
H1213 C1226 0.961 . S
H1214 C1226 0.959 . S
H1215 C1229 0.931 . S
H1216 C1230 0.931 . S
H1217 C1232 0.930 . S
C1218 H1206 0.930 . S
C1218 C1219 1.399 . S
C1218 C1223 1.399 . S
C1219 C1218 1.399 . S
C1219 C1220 1.376 . S
C1220 H1207 0.930 . S
C1220 C1219 1.376 . S
C1220 C1221 1.388 . S
C1221 H1208 0.930 . S
C1221 C1220 1.388 . S
C1221 C1222 1.390 . S
C1222 C1221 1.390 . S
C1222 C1223 1.394 . S
C1222 C1228 1.465 . S
C1223 C1218 1.399 . S
C1223 C1222 1.394 . S
C1223 C1224 1.516 . S
C1224 C1223 1.516 . S
C1224 C1225 1.502 . S
C1224 C1226 1.561 . S
C1224 C1227 1.526 . S
C1225 H1209 0.959 . S
C1225 H1210 0.959 . S
C1225 H1211 0.961 . S
C1225 C1224 1.502 . S
C1226 H1212 0.960 . S
C1226 H1213 0.961 . S
C1226 H1214 0.959 . S
C1226 C1224 1.561 . S
C1227 C1224 1.526 . S
C1227 C1228 1.396 . S
C1227 C1232 1.390 . S
C1228 C1222 1.465 . S
C1228 C1227 1.396 . S
C1228 C1229 1.399 . S
C1229 H1215 0.931 . S
C1229 C1228 1.399 . S
C1229 C1230 1.385 1_556 S
C1230 H1216 0.931 . S
C1230 C1229 1.385 1_554 S
C1230 C1231 1.389 1_554 S
C1231 C1230 1.389 1_556 S
C1231 C1232 1.387 . S
C1232 H1217 0.930 . S
C1232 C1227 1.390 . S
C1232 C1231 1.387 . S
H1233 C1245 0.930 . S
H1234 C1247 0.930 . S
H1235 C1248 0.930 . S
H1236 C1252 0.959 . S
H1237 C1252 0.959 . S
H1238 C1252 0.961 . S
H1239 C1253 0.960 . S
H1240 C1253 0.961 . S
H1241 C1253 0.959 . S
H1242 C1256 0.929 . S
H1243 C1257 0.931 . S
H1244 C1259 0.930 . S
C1245 H1233 0.930 . S
C1245 C1246 1.399 . S
C1245 C1250 1.399 . S
C1246 C1245 1.399 . S
C1246 C1247 1.376 . S
C1247 H1234 0.930 . S
C1247 C1246 1.376 . S
C1247 C1248 1.388 . S
C1248 H1235 0.930 . S
C1248 C1247 1.388 . S
C1248 C1249 1.390 . S
C1249 C1248 1.390 . S
C1249 C1250 1.394 . S
C1249 C1255 1.465 . S
C1250 C1245 1.399 . S
C1250 C1249 1.394 . S
C1250 C1251 1.516 . S
C1251 C1250 1.516 . S
C1251 C1252 1.502 . S
C1251 C1253 1.561 1_556 S
C1251 C1254 1.526 . S
C1252 H1236 0.959 . S
C1252 H1237 0.959 . S
C1252 H1238 0.961 . S
C1252 C1251 1.502 . S
C1253 H1239 0.960 . S
C1253 H1240 0.961 . S
C1253 H1241 0.959 . S
C1253 C1251 1.561 1_554 S
C1254 C1251 1.526 . S
C1254 C1255 1.396 . S
C1254 C1259 1.390 1_556 S
C1255 C1249 1.465 . S
C1255 C1254 1.396 . S
C1255 C1256 1.399 . S
C1256 H1242 0.929 . S
C1256 C1255 1.399 . S
C1256 C1257 1.385 . S
C1257 H1243 0.931 . S
C1257 C1256 1.385 . S
C1257 C1258 1.389 . S
C1258 C1257 1.389 . S
C1258 C1259 1.387 1_556 S
C1259 H1244 0.930 . S
C1259 C1254 1.390 1_554 S
C1259 C1258 1.387 1_554 S
H1260 C1272 0.930 1_554 S
H1261 C1274 0.930 . S
H1262 C1275 0.930 . S
H1263 C1279 0.959 . S
H1264 C1279 0.959 . S
H1265 C1279 0.961 . S
H1266 C1280 0.960 . S
H1267 C1280 0.961 . S
H1268 C1280 0.959 . S
H1269 C1283 0.929 . S
H1270 C1284 0.931 . S
H1271 C1286 0.930 . S
C1272 H1260 0.930 1_556 S
C1272 C1273 1.399 . S
C1272 C1277 1.399 . S
C1273 C1272 1.399 . S
C1273 C1274 1.376 . S
C1274 H1261 0.930 . S
C1274 C1273 1.376 . S
C1274 C1275 1.388 . S
C1275 H1262 0.930 . S
C1275 C1274 1.388 . S
C1275 C1276 1.390 . S
C1276 C1275 1.390 . S
C1276 C1277 1.394 . S
C1276 C1282 1.465 . S
C1277 C1272 1.399 . S
C1277 C1276 1.394 . S
C1277 C1278 1.516 1_556 S
C1278 C1277 1.516 1_554 S
C1278 C1279 1.502 . S
C1278 C1280 1.561 . S
C1278 C1281 1.551 . S
C1279 H1263 0.959 . S
C1279 H1264 0.959 . S
C1279 H1265 0.961 . S
C1279 C1278 1.502 . S
C1280 H1266 0.960 . S
C1280 H1267 0.961 . S
C1280 H1268 0.959 . S
C1280 C1278 1.561 . S
C1281 C1278 1.551 . S
C1281 C1282 1.349 1_554 S
C1281 C1286 1.408 . S
C1282 C1276 1.465 . S
C1282 C1281 1.349 1_556 S
C1282 C1283 1.399 . S
C1283 H1269 0.929 . S
C1283 C1282 1.399 . S
C1283 C1284 1.385 . S
C1284 H1270 0.931 . S
C1284 C1283 1.385 . S
C1284 C1285 1.389 . S
C1285 C1284 1.389 . S
C1285 C1286 1.387 1_556 S
C1286 H1271 0.930 . S
C1286 C1281 1.408 . S
C1286 C1285 1.387 1_554 S
H1287 C1299 0.930 . S
H1288 C1301 0.930 1_554 S
H1289 C1302 0.930 . S
H1290 C1306 0.959 . S
H1291 C1306 0.959 . S
H1292 C1306 0.961 . S
H1293 C1307 0.960 . S
H1294 C1307 0.961 . S
H1295 C1307 0.959 . S
H1296 C1310 0.929 . S
H1297 C1311 0.931 . S
H1298 C1313 0.930 . S
C1299 H1287 0.930 . S
C1299 C1300 1.399 . S
C1299 C1304 1.399 . S
C1300 C1299 1.399 . S
C1300 C1301 1.376 . S
C1301 H1288 0.930 1_556 S
C1301 C1300 1.376 . S
C1301 C1302 1.388 1_556 S
C1302 H1289 0.930 . S
C1302 C1301 1.388 1_554 S
C1302 C1303 1.390 1_554 S
C1303 C1302 1.390 1_556 S
C1303 C1304 1.394 . S
C1303 C1309 1.465 . S
C1304 C1299 1.399 . S
C1304 C1303 1.394 . S
C1304 C1305 1.516 . S
C1305 C1304 1.516 . S
C1305 C1306 1.502 . S
C1305 C1307 1.561 . S
C1305 C1308 1.526 . S
C1306 H1290 0.959 . S
C1306 H1291 0.959 . S
C1306 H1292 0.961 . S
C1306 C1305 1.502 . S
C1307 H1293 0.960 . S
C1307 H1294 0.961 . S
C1307 H1295 0.959 . S
C1307 C1305 1.561 . S
C1308 C1305 1.526 . S
C1308 C1309 1.396 . S
C1308 C1313 1.390 . S
C1309 C1303 1.465 . S
C1309 C1308 1.396 . S
C1309 C1310 1.399 1_556 S
C1310 H1296 0.929 . S
C1310 C1309 1.399 1_554 S
C1310 C1311 1.385 . S
C1311 H1297 0.931 . S
C1311 C1310 1.385 . S
C1311 C1312 1.389 1_554 S
C1312 C1311 1.389 1_556 S
C1312 C1313 1.387 . S
C1313 H1298 0.930 . S
C1313 C1308 1.390 . S
C1313 C1312 1.387 . S
H1314 C1326 0.940 . S
H1315 C1328 0.930 . S
H1316 C1329 0.930 . S
H1317 C1333 0.959 . S
H1318 C1333 0.959 . S
H1319 C1333 0.961 . S
H1320 C1334 0.960 . S
H1321 C1334 0.961 . S
H1322 C1334 0.959 . S
H1323 C1337 0.929 . S
H1324 C1338 0.931 . S
H1325 C1340 0.930 . S
C1326 H1314 0.940 . S
C1326 C1327 1.389 1_554 S
C1326 C1331 1.398 1_554 S
C1327 C1326 1.389 1_556 S
C1327 C1328 1.376 . S
C1328 H1315 0.930 . S
C1328 C1327 1.376 . S
C1328 C1329 1.388 . S
C1329 H1316 0.930 . S
C1329 C1328 1.388 . S
C1329 C1330 1.390 . S
C1330 C1329 1.390 . S
C1330 C1331 1.400 . S
C1330 C1336 1.465 . S
C1331 C1326 1.398 1_556 S
C1331 C1330 1.400 . S
C1331 C1332 1.511 1_556 S
C1332 C1331 1.511 1_554 S
C1332 C1333 1.502 . S
C1332 C1334 1.561 . S
C1332 C1335 1.526 . S
C1333 H1317 0.959 . S
C1333 H1318 0.959 . S
C1333 H1319 0.961 . S
C1333 C1332 1.502 . S
C1334 H1320 0.960 . S
C1334 H1321 0.961 . S
C1334 H1322 0.959 . S
C1334 C1332 1.561 . S
C1335 C1332 1.526 . S
C1335 C1336 1.396 1_554 S
C1335 C1340 1.390 . S
C1336 C1330 1.465 . S
C1336 C1335 1.396 1_556 S
C1336 C1337 1.399 . S
C1337 H1323 0.929 . S
C1337 C1336 1.399 . S
C1337 C1338 1.385 . S
C1338 H1324 0.931 . S
C1338 C1337 1.385 . S
C1338 C1339 1.389 . S
C1339 C1338 1.389 . S
C1339 C1340 1.387 1_556 S
C1340 H1325 0.930 . S
C1340 C1335 1.390 . S
C1340 C1339 1.387 1_554 S
H1341 C1353 0.930 . S
H1342 C1355 0.930 . S
H1343 C1356 0.930 1_556 S
H1344 C1360 0.959 . S
H1345 C1360 0.959 . S
H1346 C1360 0.961 . S
H1347 C1361 0.960 . S
H1348 C1361 0.961 . S
H1349 C1361 0.959 . S
H1350 C1364 0.929 1_556 S
H1351 C1365 0.931 1_556 S
H1352 C1367 0.930 . S
C1353 H1341 0.930 . S
C1353 C1354 1.399 . S
C1353 C1358 1.399 . S
C1354 C1353 1.399 . S
C1354 C1355 1.376 . S
C1355 H1342 0.930 . S
C1355 C1354 1.376 . S
C1355 C1356 1.388 . S
C1356 H1343 0.930 1_554 S
C1356 C1355 1.388 . S
C1356 C1357 1.390 . S
C1357 C1356 1.390 . S
C1357 C1358 1.394 . S
C1357 C1363 1.465 . S
C1358 C1353 1.399 . S
C1358 C1357 1.394 . S
C1358 C1359 1.516 . S
C1359 C1358 1.516 . S
C1359 C1360 1.502 . S
C1359 C1361 1.561 . S
C1359 C1362 1.526 . S
C1360 H1344 0.959 . S
C1360 H1345 0.959 . S
C1360 H1346 0.961 . S
C1360 C1359 1.502 . S
C1361 H1347 0.960 . S
C1361 H1348 0.961 . S
C1361 H1349 0.959 . S
C1361 C1359 1.561 . S
C1362 C1359 1.526 . S
C1362 C1363 1.396 . S
C1362 C1367 1.390 . S
C1363 C1357 1.465 . S
C1363 C1362 1.396 . S
C1363 C1364 1.399 . S
C1364 H1350 0.929 1_554 S
C1364 C1363 1.399 . S
C1364 C1365 1.385 . S
C1365 H1351 0.931 1_554 S
C1365 C1364 1.385 . S
C1365 C1366 1.389 . S
C1366 C1365 1.389 . S
C1366 C1367 1.387 . S
C1367 H1352 0.930 . S
C1367 C1362 1.390 . S
C1367 C1366 1.387 . S
H1368 C1380 0.930 . S
H1369 C1382 0.930 . S
H1370 C1383 0.930 . S
H1371 C1387 0.959 . S
H1372 C1387 0.959 . S
H1373 C1387 0.961 . S
H1374 C1388 0.960 . S
H1375 C1388 0.961 . S
H1376 C1388 0.959 . S
H1377 C1391 0.929 . S
H1378 C1392 0.931 . S
H1379 C1394 0.930 . S
C1380 H1368 0.930 . S
C1380 C1381 1.399 . S
C1380 C1385 1.399 . S
C1381 C1380 1.399 . S
C1381 C1382 1.376 . S
C1382 H1369 0.930 . S
C1382 C1381 1.376 . S
C1382 C1383 1.388 . S
C1383 H1370 0.930 . S
C1383 C1382 1.388 . S
C1383 C1384 1.390 . S
C1384 C1383 1.390 . S
C1384 C1385 1.394 . S
C1384 C1390 1.465 . S
C1385 C1380 1.399 . S
C1385 C1384 1.394 . S
C1385 C1386 1.516 . S
C1386 C1385 1.516 . S
C1386 C1387 1.502 . S
C1386 C1388 1.561 . S
C1386 C1389 1.526 . S
C1387 H1371 0.959 . S
C1387 H1372 0.959 . S
C1387 H1373 0.961 . S
C1387 C1386 1.502 . S
C1388 H1374 0.960 . S
C1388 H1375 0.961 . S
C1388 H1376 0.959 . S
C1388 C1386 1.561 . S
C1389 C1386 1.526 . S
C1389 C1390 1.396 . S
C1389 C1394 1.390 . S
C1390 C1384 1.465 . S
C1390 C1389 1.396 . S
C1390 C1391 1.399 . S
C1391 H1377 0.929 . S
C1391 C1390 1.399 . S
C1391 C1392 1.385 . S
C1392 H1378 0.931 . S
C1392 C1391 1.385 . S
C1392 C1393 1.389 . S
C1393 C1392 1.389 . S
C1393 C1394 1.387 . S
C1394 H1379 0.930 . S
C1394 C1389 1.390 . S
C1394 C1393 1.387 . S
H1395 C1407 0.930 . S
H1396 C1409 0.930 . S
H1397 C1410 0.930 1_556 S
H1398 C1414 0.959 . S
H1399 C1414 0.959 . S
H1400 C1414 0.961 . S
H1401 C1415 0.960 . S
H1402 C1415 0.961 . S
H1403 C1415 0.959 . S
H1404 C1418 0.929 . S
H1405 C1419 0.948 . S
H1406 C1421 0.930 . S
C1407 H1395 0.930 . S
C1407 C1408 1.399 . S
C1407 C1412 1.399 . S
C1408 C1407 1.399 . S
C1408 C1409 1.376 . S
C1409 H1396 0.930 . S
C1409 C1408 1.376 . S
C1409 C1410 1.388 . S
C1410 H1397 0.930 1_554 S
C1410 C1409 1.388 . S
C1410 C1411 1.390 . S
C1411 C1410 1.390 . S
C1411 C1412 1.394 . S
C1411 C1417 1.465 . S
C1412 C1407 1.399 . S
C1412 C1411 1.394 . S
C1412 C1413 1.516 . S
C1413 C1412 1.516 . S
C1413 C1414 1.502 . S
C1413 C1415 1.561 . S
C1413 C1416 1.526 . S
C1414 H1398 0.959 . S
C1414 H1399 0.959 . S
C1414 H1400 0.961 . S
C1414 C1413 1.502 . S
C1415 H1401 0.960 . S
C1415 H1402 0.961 . S
C1415 H1403 0.959 . S
C1415 C1413 1.561 . S
C1416 C1413 1.526 . S
C1416 C1417 1.396 . S
C1416 C1421 1.390 . S
C1417 C1411 1.465 . S
C1417 C1416 1.396 . S
C1417 C1418 1.399 1_554 S
C1418 H1404 0.929 . S
C1418 C1417 1.399 1_556 S
C1418 C1419 1.387 . S
C1419 H1405 0.948 . S
C1419 C1418 1.387 . S
C1419 C1420 1.371 1_556 S
C1420 C1419 1.371 1_554 S
C1420 C1421 1.387 . S
C1421 H1406 0.930 . S
C1421 C1416 1.390 . S
C1421 C1420 1.387 . S
H1422 C1434 0.930 . S
H1423 C1436 0.930 . S
H1424 C1437 0.930 . S
H1425 C1441 0.959 . S
H1426 C1441 0.959 . S
H1427 C1441 0.961 . S
H1428 C1442 0.960 . S
H1429 C1442 0.961 . S
H1430 C1442 0.959 . S
H1431 C1445 0.929 1_655 S
H1432 C1446 0.931 . S
H1433 C1448 0.930 . S
C1434 H1422 0.930 . S
C1434 C1435 1.399 . S
C1434 C1439 1.399 . S
C1435 C1434 1.399 . S
C1435 C1436 1.376 . S
C1436 H1423 0.930 . S
C1436 C1435 1.376 . S
C1436 C1437 1.388 . S
C1437 H1424 0.930 . S
C1437 C1436 1.388 . S
C1437 C1438 1.390 . S
C1438 C1437 1.390 . S
C1438 C1439 1.394 . S
C1438 C1444 1.465 1_655 S
C1439 C1434 1.399 . S
C1439 C1438 1.394 . S
C1439 C1440 1.516 1_655 S
C1440 C1439 1.516 1_455 S
C1440 C1441 1.502 . S
C1440 C1442 1.561 . S
C1440 C1443 1.526 . S
C1441 H1425 0.959 . S
C1441 H1426 0.959 . S
C1441 H1427 0.961 . S
C1441 C1440 1.502 . S
C1442 H1428 0.960 . S
C1442 H1429 0.961 . S
C1442 H1430 0.959 . S
C1442 C1440 1.561 . S
C1443 C1440 1.526 . S
C1443 C1444 1.396 . S
C1443 C1448 1.390 . S
C1444 C1438 1.465 1_455 S
C1444 C1443 1.396 . S
C1444 C1445 1.399 . S
C1445 H1431 0.929 1_455 S
C1445 C1444 1.399 . S
C1445 C1446 1.385 . S
C1446 H1432 0.931 . S
C1446 C1445 1.385 . S
C1446 C1447 1.389 . S
C1447 C1446 1.389 . S
C1447 C1448 1.387 . S
C1448 H1433 0.930 . S
C1448 C1443 1.390 . S
C1448 C1447 1.387 . S
H1449 C1461 0.930 . S
H1450 C1463 0.930 . S
H1451 C1464 0.930 . S
H1452 C1468 0.959 . S
H1453 C1468 0.959 . S
H1454 C1468 0.961 . S
H1455 C1469 0.960 . S
H1456 C1469 0.961 . S
H1457 C1469 0.959 . S
H1458 C1472 0.929 . S
H1459 C1473 0.931 . S
H1460 C1475 0.930 . S
C1461 H1449 0.930 . S
C1461 C1462 1.399 . S
C1461 C1466 1.399 . S
C1462 C1461 1.399 . S
C1462 C1463 1.376 . S
C1463 H1450 0.930 . S
C1463 C1462 1.376 . S
C1463 C1464 1.388 . S
C1464 H1451 0.930 . S
C1464 C1463 1.388 . S
C1464 C1465 1.390 . S
C1465 C1464 1.390 . S
C1465 C1466 1.394 . S
C1465 C1471 1.465 . S
C1466 C1461 1.399 . S
C1466 C1465 1.394 . S
C1466 C1467 1.516 . S
C1467 C1466 1.516 . S
C1467 C1468 1.502 . S
C1467 C1469 1.561 . S
C1467 C1470 1.526 . S
C1468 H1452 0.959 . S
C1468 H1453 0.959 . S
C1468 H1454 0.961 . S
C1468 C1467 1.502 . S
C1469 H1455 0.960 . S
C1469 H1456 0.961 . S
C1469 H1457 0.959 . S
C1469 C1467 1.561 . S
C1470 C1467 1.526 . S
C1470 C1471 1.396 . S
C1470 C1475 1.390 . S
C1471 C1465 1.465 . S
C1471 C1470 1.396 . S
C1471 C1472 1.399 . S
C1472 H1458 0.929 . S
C1472 C1471 1.399 . S
C1472 C1473 1.385 . S
C1473 H1459 0.931 . S
C1473 C1472 1.385 . S
C1473 C1474 1.389 . S
C1474 C1473 1.389 . S
C1474 C1475 1.387 . S
C1475 H1460 0.930 . S
C1475 C1470 1.390 . S
C1475 C1474 1.387 . S
H1476 C1488 0.930 . S
H1477 C1490 0.930 . S
H1478 C1491 0.930 . S
H1479 C1495 0.959 . S
H1480 C1495 0.959 . S
H1481 C1495 0.961 . S
H1482 C1496 0.960 . S
H1483 C1496 0.958 . S
H1484 C1496 0.959 1_565 S
H1485 C1499 0.929 . S
H1486 C1500 0.931 . S
H1487 C1502 0.930 . S
C1488 H1476 0.930 . S
C1488 C1489 1.399 . S
C1488 C1493 1.399 . S
C1489 C1488 1.399 . S
C1489 C1490 1.376 . S
C1490 H1477 0.930 . S
C1490 C1489 1.376 . S
C1490 C1491 1.388 . S
C1491 H1478 0.930 . S
C1491 C1490 1.388 . S
C1491 C1492 1.390 . S
C1492 C1491 1.390 . S
C1492 C1493 1.394 . S
C1492 C1498 1.465 1_545 S
C1493 C1488 1.399 . S
C1493 C1492 1.394 . S
C1493 C1494 1.516 . S
C1494 C1493 1.516 . S
C1494 C1495 1.502 . S
C1494 C1496 1.561 . S
C1494 C1497 1.526 1_545 S
C1495 H1479 0.959 . S
C1495 H1480 0.959 . S
C1495 H1481 0.961 . S
C1495 C1494 1.502 . S
C1496 H1482 0.960 . S
C1496 H1483 0.958 . S
C1496 H1484 0.959 1_545 S
C1496 C1494 1.561 . S
C1497 C1494 1.526 1_565 S
C1497 C1498 1.396 . S
C1497 C1502 1.390 . S
C1498 C1492 1.465 1_565 S
C1498 C1497 1.396 . S
C1498 C1499 1.399 . S
C1499 H1485 0.929 . S
C1499 C1498 1.399 . S
C1499 C1500 1.385 . S
C1500 H1486 0.931 . S
C1500 C1499 1.385 . S
C1500 C1501 1.389 . S
C1501 C1500 1.389 . S
C1501 C1502 1.387 . S
C1502 H1487 0.930 . S
C1502 C1497 1.390 . S
C1502 C1501 1.387 . S
H1503 C1515 0.930 . S
H1504 C1517 0.930 . S
H1505 C1518 0.930 . S
H1506 C1522 0.959 . S
H1507 C1522 0.959 . S
H1508 C1522 0.961 . S
H1509 C1523 0.960 . S
H1510 C1523 0.961 . S
H1511 C1523 0.959 . S
H1512 C1526 0.929 . S
H1513 C1527 0.931 . S
H1514 C1529 0.930 . S
C1515 H1503 0.930 . S
C1515 C1516 1.399 . S
C1515 C1520 1.399 . S
C1516 C1515 1.399 . S
C1516 C1517 1.376 . S
C1517 H1504 0.930 . S
C1517 C1516 1.376 . S
C1517 C1518 1.388 . S
C1518 H1505 0.930 . S
C1518 C1517 1.388 . S
C1518 C1519 1.390 . S
C1519 C1518 1.390 . S
C1519 C1520 1.394 . S
C1519 C1525 1.465 . S
C1520 C1515 1.399 . S
C1520 C1519 1.394 . S
C1520 C1521 1.516 . S
C1521 C1520 1.516 . S
C1521 C1522 1.502 . S
C1521 C1523 1.561 . S
C1521 C1524 1.526 . S
C1522 H1506 0.959 . S
C1522 H1507 0.959 . S
C1522 H1508 0.961 . S
C1522 C1521 1.502 . S
C1523 H1509 0.960 . S
C1523 H1510 0.961 . S
C1523 H1511 0.959 . S
C1523 C1521 1.561 . S
C1524 C1521 1.526 . S
C1524 C1525 1.396 . S
C1524 C1529 1.390 . S
C1525 C1519 1.465 . S
C1525 C1524 1.396 . S
C1525 C1526 1.399 . S
C1526 H1512 0.929 . S
C1526 C1525 1.399 . S
C1526 C1527 1.385 . S
C1527 H1513 0.931 . S
C1527 C1526 1.385 . S
C1527 C1528 1.389 . S
C1528 C1527 1.389 . S
C1528 C1529 1.387 . S
C1529 H1514 0.930 . S
C1529 C1524 1.390 . S
C1529 C1528 1.387 . S
H1530 C1542 0.930 . S
H1531 C1544 0.930 . S
H1532 C1545 0.930 . S
H1533 C1549 0.959 . S
H1534 C1549 0.959 . S
H1535 C1549 0.961 . S
H1536 C1550 0.960 . S
H1537 C1550 0.961 . S
H1538 C1550 0.959 . S
H1539 C1553 0.929 . S
H1540 C1554 0.931 . S
H1541 C1556 0.930 . S
C1542 H1530 0.930 . S
C1542 C1543 1.399 . S
C1542 C1547 1.399 . S
C1543 C1542 1.399 . S
C1543 C1544 1.376 . S
C1544 H1531 0.930 . S
C1544 C1543 1.376 . S
C1544 C1545 1.388 . S
C1545 H1532 0.930 . S
C1545 C1544 1.388 . S
C1545 C1546 1.390 . S
C1546 C1545 1.390 . S
C1546 C1547 1.394 . S
C1546 C1552 1.465 . S
C1547 C1542 1.399 . S
C1547 C1546 1.394 . S
C1547 C1548 1.516 . S
C1548 C1547 1.516 . S
C1548 C1549 1.502 . S
C1548 C1550 1.561 . S
C1548 C1551 1.526 . S
C1549 H1533 0.959 . S
C1549 H1534 0.959 . S
C1549 H1535 0.961 . S
C1549 C1548 1.502 . S
C1550 H1536 0.960 . S
C1550 H1537 0.961 . S
C1550 H1538 0.959 . S
C1550 C1548 1.561 . S
C1551 C1548 1.526 . S
C1551 C1552 1.396 . S
C1551 C1556 1.390 . S
C1552 C1546 1.465 . S
C1552 C1551 1.396 . S
C1552 C1553 1.399 . S
C1553 H1539 0.929 . S
C1553 C1552 1.399 . S
C1553 C1554 1.385 . S
C1554 H1540 0.931 . S
C1554 C1553 1.385 . S
C1554 C1555 1.389 . S
C1555 C1554 1.389 . S
C1555 C1556 1.387 . S
C1556 H1541 0.930 . S
C1556 C1551 1.390 . S
C1556 C1555 1.387 . S
H1557 C1569 0.930 . S
H1558 C1571 0.930 . S
H1559 C1572 0.930 . S
H1560 C1576 0.959 . S
H1561 C1576 0.959 . S
H1562 C1576 0.961 . S
H1563 C1577 0.960 . S
H1564 C1577 0.961 . S
H1565 C1577 0.959 . S
H1566 C1580 0.929 . S
H1567 C1581 0.931 . S
H1568 C1583 0.930 . S
C1569 H1557 0.930 . S
C1569 C1570 1.399 . S
C1569 C1574 1.399 . S
C1570 C1569 1.399 . S
C1570 C1571 1.376 . S
C1571 H1558 0.930 . S
C1571 C1570 1.376 . S
C1571 C1572 1.388 . S
C1572 H1559 0.930 . S
C1572 C1571 1.388 . S
C1572 C1573 1.390 . S
C1573 C1572 1.390 . S
C1573 C1574 1.394 . S
C1573 C1579 1.465 . S
C1574 C1569 1.399 . S
C1574 C1573 1.394 . S
C1574 C1575 1.516 . S
C1575 C1574 1.516 . S
C1575 C1576 1.502 . S
C1575 C1577 1.561 . S
C1575 C1578 1.526 . S
C1576 H1560 0.959 . S
C1576 H1561 0.959 . S
C1576 H1562 0.961 . S
C1576 C1575 1.502 . S
C1577 H1563 0.960 . S
C1577 H1564 0.961 . S
C1577 H1565 0.959 . S
C1577 C1575 1.561 . S
C1578 C1575 1.526 . S
C1578 C1579 1.396 . S
C1578 C1583 1.390 . S
C1579 C1573 1.465 . S
C1579 C1578 1.396 . S
C1579 C1580 1.399 . S
C1580 H1566 0.929 . S
C1580 C1579 1.399 . S
C1580 C1581 1.385 . S
C1581 H1567 0.931 . S
C1581 C1580 1.385 . S
C1581 C1582 1.389 . S
C1582 C1581 1.389 . S
C1582 C1583 1.387 . S
C1583 H1568 0.930 . S
C1583 C1578 1.390 . S
C1583 C1582 1.387 . S
H1584 C1596 0.930 . S
H1585 C1598 0.930 . S
H1586 C1599 0.930 . S
H1587 C1603 0.959 . S
H1588 C1603 0.959 . S
H1589 C1603 0.961 . S
H1590 C1604 0.960 . S
H1591 C1604 0.961 . S
H1592 C1604 0.959 . S
H1593 C1607 0.929 . S
H1594 C1608 0.931 . S
H1595 C1610 0.930 . S
C1596 H1584 0.930 . S
C1596 C1597 1.399 . S
C1596 C1601 1.399 . S
C1597 C1596 1.399 . S
C1597 C1598 1.376 . S
C1598 H1585 0.930 . S
C1598 C1597 1.376 . S
C1598 C1599 1.388 . S
C1599 H1586 0.930 . S
C1599 C1598 1.388 . S
C1599 C1600 1.390 . S
C1600 C1599 1.390 . S
C1600 C1601 1.394 . S
C1600 C1606 1.465 . S
C1601 C1596 1.399 . S
C1601 C1600 1.394 . S
C1601 C1602 1.516 . S
C1602 C1601 1.516 . S
C1602 C1603 1.502 . S
C1602 C1604 1.561 . S
C1602 C1605 1.526 . S
C1603 H1587 0.959 . S
C1603 H1588 0.959 . S
C1603 H1589 0.961 . S
C1603 C1602 1.502 . S
C1604 H1590 0.960 . S
C1604 H1591 0.961 . S
C1604 H1592 0.959 . S
C1604 C1602 1.561 . S
C1605 C1602 1.526 . S
C1605 C1606 1.396 . S
C1605 C1610 1.390 . S
C1606 C1600 1.465 . S
C1606 C1605 1.396 . S
C1606 C1607 1.399 . S
C1607 H1593 0.929 . S
C1607 C1606 1.399 . S
C1607 C1608 1.385 . S
C1608 H1594 0.931 . S
C1608 C1607 1.385 . S
C1608 C1609 1.389 . S
C1609 C1608 1.389 . S
C1609 C1610 1.387 . S
C1610 H1595 0.930 . S
C1610 C1605 1.390 . S
C1610 C1609 1.387 . S
H1611 C1623 0.930 . S
H1612 C1625 0.930 . S
H1613 C1626 0.930 . S
H1614 C1630 0.959 . S
H1615 C1630 0.959 . S
H1616 C1630 0.961 . S
H1617 C1631 0.960 . S
H1618 C1631 0.961 . S
H1619 C1631 0.959 . S
H1620 C1634 0.929 . S
H1621 C1635 0.931 . S
H1622 C1637 0.930 . S
C1623 H1611 0.930 . S
C1623 C1624 1.399 . S
C1623 C1628 1.399 . S
C1624 C1623 1.399 . S
C1624 C1625 1.376 . S
C1625 H1612 0.930 . S
C1625 C1624 1.376 . S
C1625 C1626 1.388 . S
C1626 H1613 0.930 . S
C1626 C1625 1.388 . S
C1626 C1627 1.390 . S
C1627 C1626 1.390 . S
C1627 C1628 1.394 . S
C1627 C1633 1.465 . S
C1628 C1623 1.399 . S
C1628 C1627 1.394 . S
C1628 C1629 1.516 . S
C1629 C1628 1.516 . S
C1629 C1630 1.502 . S
C1629 C1631 1.561 . S
C1629 C1632 1.526 . S
C1630 H1614 0.959 . S
C1630 H1615 0.959 . S
C1630 H1616 0.961 . S
C1630 C1629 1.502 . S
C1631 H1617 0.960 . S
C1631 H1618 0.961 . S
C1631 H1619 0.959 . S
C1631 C1629 1.561 . S
C1632 C1629 1.526 . S
C1632 C1633 1.396 . S
C1632 C1637 1.390 . S
C1633 C1627 1.465 . S
C1633 C1632 1.396 . S
C1633 C1634 1.399 . S
C1634 H1620 0.929 . S
C1634 C1633 1.399 . S
C1634 C1635 1.385 . S
C1635 H1621 0.931 . S
C1635 C1634 1.385 . S
C1635 C1636 1.389 . S
C1636 C1635 1.389 . S
C1636 C1637 1.387 . S
C1637 H1622 0.930 . S
C1637 C1632 1.390 . S
C1637 C1636 1.387 . S
H1638 C1650 0.930 . S
H1639 C1652 0.930 . S
H1640 C1653 0.930 . S
H1641 C1657 0.959 . S
H1642 C1657 0.959 . S
H1643 C1657 0.961 . S
H1644 C1658 0.960 . S
H1645 C1658 0.961 . S
H1646 C1658 0.959 . S
H1647 C1661 0.929 . S
H1648 C1662 0.931 . S
H1649 C1664 0.930 . S
C1650 H1638 0.930 . S
C1650 C1651 1.399 . S
C1650 C1655 1.399 . S
C1651 C1650 1.399 . S
C1651 C1652 1.376 . S
C1652 H1639 0.930 . S
C1652 C1651 1.376 . S
C1652 C1653 1.388 . S
C1653 H1640 0.930 . S
C1653 C1652 1.388 . S
C1653 C1654 1.390 . S
C1654 C1653 1.390 . S
C1654 C1655 1.394 . S
C1654 C1660 1.465 . S
C1655 C1650 1.399 . S
C1655 C1654 1.394 . S
C1655 C1656 1.516 . S
C1656 C1655 1.516 . S
C1656 C1657 1.502 . S
C1656 C1658 1.561 . S
C1656 C1659 1.526 . S
C1657 H1641 0.959 . S
C1657 H1642 0.959 . S
C1657 H1643 0.961 . S
C1657 C1656 1.502 . S
C1658 H1644 0.960 . S
C1658 H1645 0.961 . S
C1658 H1646 0.959 . S
C1658 C1656 1.561 . S
C1659 C1656 1.526 . S
C1659 C1660 1.396 . S
C1659 C1664 1.390 . S
C1660 C1654 1.465 . S
C1660 C1659 1.396 . S
C1660 C1661 1.399 . S
C1661 H1647 0.929 . S
C1661 C1660 1.399 . S
C1661 C1662 1.385 . S
C1662 H1648 0.931 . S
C1662 C1661 1.385 . S
C1662 C1663 1.389 . S
C1663 C1662 1.389 . S
C1663 C1664 1.387 . S
C1664 H1649 0.930 . S
C1664 C1659 1.390 . S
C1664 C1663 1.387 . S
H1665 C1677 0.930 . S
H1666 C1679 0.930 1_545 S
H1667 C1680 0.930 . S
H1668 C1684 0.959 . S
H1669 C1684 0.959 . S
H1670 C1684 0.961 . S
H1671 C1685 0.960 . S
H1672 C1685 0.961 . S
H1673 C1685 0.959 . S
H1674 C1688 0.929 . S
H1675 C1689 0.931 . S
H1676 C1691 0.930 . S
C1677 H1665 0.930 . S
C1677 C1678 1.399 . S
C1677 C1682 1.399 . S
C1678 C1677 1.399 . S
C1678 C1679 1.376 . S
C1679 H1666 0.930 1_565 S
C1679 C1678 1.376 . S
C1679 C1680 1.388 . S
C1680 H1667 0.930 . S
C1680 C1679 1.388 . S
C1680 C1681 1.390 . S
C1681 C1680 1.390 . S
C1681 C1682 1.394 . S
C1681 C1687 1.465 . S
C1682 C1677 1.399 . S
C1682 C1681 1.394 . S
C1682 C1683 1.516 . S
C1683 C1682 1.516 . S
C1683 C1684 1.502 . S
C1683 C1685 1.561 . S
C1683 C1686 1.526 . S
C1684 H1668 0.959 . S
C1684 H1669 0.959 . S
C1684 H1670 0.961 . S
C1684 C1683 1.502 . S
C1685 H1671 0.960 . S
C1685 H1672 0.961 . S
C1685 H1673 0.959 . S
C1685 C1683 1.561 . S
C1686 C1683 1.526 . S
C1686 C1687 1.396 . S
C1686 C1691 1.390 . S
C1687 C1681 1.465 . S
C1687 C1686 1.396 . S
C1687 C1688 1.399 . S
C1688 H1674 0.929 . S
C1688 C1687 1.399 . S
C1688 C1689 1.385 . S
C1689 H1675 0.931 . S
C1689 C1688 1.385 . S
C1689 C1690 1.389 . S
C1690 C1689 1.389 . S
C1690 C1691 1.387 . S
C1691 H1676 0.930 . S
C1691 C1686 1.390 . S
C1691 C1690 1.387 . S
H1692 C1704 0.930 . S
H1693 C1706 0.930 . S
H1694 C1707 0.930 . S
H1695 C1711 0.959 . S
H1696 C1711 0.959 . S
H1697 C1711 0.961 . S
H1698 C1712 0.960 . S
H1699 C1712 0.961 . S
H1700 C1712 0.959 . S
H1701 C1715 0.929 . S
H1702 C1716 0.931 . S
H1703 C1718 0.930 . S
C1704 H1692 0.930 . S
C1704 C1705 1.399 . S
C1704 C1709 1.399 . S
C1705 C1704 1.399 . S
C1705 C1706 1.376 . S
C1706 H1693 0.930 . S
C1706 C1705 1.376 . S
C1706 C1707 1.388 . S
C1707 H1694 0.930 . S
C1707 C1706 1.388 . S
C1707 C1708 1.390 . S
C1708 C1707 1.390 . S
C1708 C1709 1.394 . S
C1708 C1714 1.465 . S
C1709 C1704 1.399 . S
C1709 C1708 1.394 . S
C1709 C1710 1.516 . S
C1710 C1709 1.516 . S
C1710 C1711 1.502 . S
C1710 C1712 1.561 . S
C1710 C1713 1.526 . S
C1711 H1695 0.959 . S
C1711 H1696 0.959 . S
C1711 H1697 0.961 . S
C1711 C1710 1.502 . S
C1712 H1698 0.960 . S
C1712 H1699 0.961 . S
C1712 H1700 0.959 . S
C1712 C1710 1.561 . S
C1713 C1710 1.526 . S
C1713 C1714 1.396 . S
C1713 C1718 1.390 . S
C1714 C1708 1.465 . S
C1714 C1713 1.396 . S
C1714 C1715 1.399 . S
C1715 H1701 0.929 . S
C1715 C1714 1.399 . S
C1715 C1716 1.385 . S
C1716 H1702 0.931 . S
C1716 C1715 1.385 . S
C1716 C1717 1.389 . S
C1717 C1716 1.389 . S
C1717 C1718 1.387 . S
C1718 H1703 0.930 . S
C1718 C1713 1.390 . S
C1718 C1717 1.387 . S
H1719 C1731 0.930 . S
H1720 C1733 0.930 . S
H1721 C1734 0.930 . S
H1722 C1738 0.959 . S
H1723 C1738 0.959 . S
H1724 C1738 0.961 . S
H1725 C1739 0.960 . S
H1726 C1739 0.961 . S
H1727 C1739 0.959 . S
H1728 C1742 0.929 . S
H1729 C1743 0.931 . S
H1730 C1745 0.930 . S
C1731 H1719 0.930 . S
C1731 C1732 1.399 . S
C1731 C1736 1.399 . S
C1732 C1731 1.399 . S
C1732 C1733 1.376 . S
C1733 H1720 0.930 . S
C1733 C1732 1.376 . S
C1733 C1734 1.388 . S
C1734 H1721 0.930 . S
C1734 C1733 1.388 . S
C1734 C1735 1.390 . S
C1735 C1734 1.390 . S
C1735 C1736 1.394 . S
C1735 C1741 1.465 . S
C1736 C1731 1.399 . S
C1736 C1735 1.394 . S
C1736 C1737 1.516 . S
C1737 C1736 1.516 . S
C1737 C1738 1.502 . S
C1737 C1739 1.561 . S
C1737 C1740 1.526 . S
C1738 H1722 0.959 . S
C1738 H1723 0.959 . S
C1738 H1724 0.961 . S
C1738 C1737 1.502 . S
C1739 H1725 0.960 . S
C1739 H1726 0.961 . S
C1739 H1727 0.959 . S
C1739 C1737 1.561 . S
C1740 C1737 1.526 . S
C1740 C1741 1.396 . S
C1740 C1745 1.390 . S
C1741 C1735 1.465 . S
C1741 C1740 1.396 . S
C1741 C1742 1.399 . S
C1742 H1728 0.929 . S
C1742 C1741 1.399 . S
C1742 C1743 1.385 . S
C1743 H1729 0.931 . S
C1743 C1742 1.385 . S
C1743 C1744 1.389 . S
C1744 C1743 1.389 . S
C1744 C1745 1.387 . S
C1745 H1730 0.930 . S
C1745 C1740 1.390 . S
C1745 C1744 1.387 . S
H1746 C1758 0.930 . S
H1747 C1760 0.930 . S
H1748 C1761 0.930 . S
H1749 C1765 0.959 . S
H1750 C1765 0.959 . S
H1751 C1765 0.961 . S
H1752 C1766 0.960 . S
H1753 C1766 0.961 . S
H1754 C1766 0.959 . S
H1755 C1769 0.929 . S
H1756 C1770 0.931 . S
H1757 C1772 0.930 . S
C1758 H1746 0.930 . S
C1758 C1759 1.399 . S
C1758 C1763 1.399 . S
C1759 C1758 1.399 . S
C1759 C1760 1.376 . S
C1760 H1747 0.930 . S
C1760 C1759 1.376 . S
C1760 C1761 1.388 . S
C1761 H1748 0.930 . S
C1761 C1760 1.388 . S
C1761 C1762 1.390 . S
C1762 C1761 1.390 . S
C1762 C1763 1.394 . S
C1762 C1768 1.465 . S
C1763 C1758 1.399 . S
C1763 C1762 1.394 . S
C1763 C1764 1.516 . S
C1764 C1763 1.516 . S
C1764 C1765 1.502 . S
C1764 C1766 1.561 . S
C1764 C1767 1.526 . S
C1765 H1749 0.959 . S
C1765 H1750 0.959 . S
C1765 H1751 0.961 . S
C1765 C1764 1.502 . S
C1766 H1752 0.960 . S
C1766 H1753 0.961 . S
C1766 H1754 0.959 . S
C1766 C1764 1.561 . S
C1767 C1764 1.526 . S
C1767 C1768 1.396 . S
C1767 C1772 1.390 . S
C1768 C1762 1.465 . S
C1768 C1767 1.396 . S
C1768 C1769 1.399 . S
C1769 H1755 0.929 . S
C1769 C1768 1.399 . S
C1769 C1770 1.385 . S
C1770 H1756 0.931 . S
C1770 C1769 1.385 . S
C1770 C1771 1.389 . S
C1771 C1770 1.389 . S
C1771 C1772 1.387 . S
C1772 H1757 0.930 . S
C1772 C1767 1.390 . S
C1772 C1771 1.387 . S
H1773 C1785 0.930 . S
H1774 C1787 0.930 . S
H1775 C1788 0.930 . S
H1776 C1792 0.959 . S
H1777 C1792 0.959 . S
H1778 C1792 0.961 . S
H1779 C1793 0.960 . S
H1780 C1793 0.961 . S
H1781 C1793 0.959 . S
H1782 C1796 0.929 . S
H1783 C1797 0.931 . S
H1784 C1799 0.930 . S
C1785 H1773 0.930 . S
C1785 C1786 1.399 . S
C1785 C1790 1.399 . S
C1786 C1785 1.399 . S
C1786 C1787 1.376 . S
C1787 H1774 0.930 . S
C1787 C1786 1.376 . S
C1787 C1788 1.388 . S
C1788 H1775 0.930 . S
C1788 C1787 1.388 . S
C1788 C1789 1.390 . S
C1789 C1788 1.390 . S
C1789 C1790 1.394 . S
C1789 C1795 1.465 . S
C1790 C1785 1.399 . S
C1790 C1789 1.394 . S
C1790 C1791 1.516 . S
C1791 C1790 1.516 . S
C1791 C1792 1.502 . S
C1791 C1793 1.561 . S
C1791 C1794 1.526 . S
C1792 H1776 0.959 . S
C1792 H1777 0.959 . S
C1792 H1778 0.961 . S
C1792 C1791 1.502 . S
C1793 H1779 0.960 . S
C1793 H1780 0.961 . S
C1793 H1781 0.959 . S
C1793 C1791 1.561 . S
C1794 C1791 1.526 . S
C1794 C1795 1.396 . S
C1794 C1799 1.390 . S
C1795 C1789 1.465 . S
C1795 C1794 1.396 . S
C1795 C1796 1.399 . S
C1796 H1782 0.929 . S
C1796 C1795 1.399 . S
C1796 C1797 1.385 . S
C1797 H1783 0.931 . S
C1797 C1796 1.385 . S
C1797 C1798 1.389 . S
C1798 C1797 1.389 . S
C1798 C1799 1.387 . S
C1799 H1784 0.930 . S
C1799 C1794 1.390 . S
C1799 C1798 1.387 . S
H1800 C1812 0.930 . S
H1801 C1814 0.930 . S
H1802 C1815 0.930 . S
H1803 C1819 0.959 . S
H1804 C1819 0.959 . S
H1805 C1819 0.961 . S
H1806 C1820 0.960 . S
H1807 C1820 0.961 . S
H1808 C1820 0.959 . S
H1809 C1823 0.929 . S
H1810 C1824 0.931 . S
H1811 C1826 0.930 . S
C1812 H1800 0.930 . S
C1812 C1813 1.399 . S
C1812 C1817 1.399 . S
C1813 C1812 1.399 . S
C1813 C1814 1.376 . S
C1814 H1801 0.930 . S
C1814 C1813 1.376 . S
C1814 C1815 1.388 . S
C1815 H1802 0.930 . S
C1815 C1814 1.388 . S
C1815 C1816 1.390 . S
C1816 C1815 1.390 . S
C1816 C1817 1.394 . S
C1816 C1822 1.465 . S
C1817 C1812 1.399 . S
C1817 C1816 1.394 . S
C1817 C1818 1.516 . S
C1818 C1817 1.516 . S
C1818 C1819 1.502 . S
C1818 C1820 1.561 . S
C1818 C1821 1.526 . S
C1819 H1803 0.959 . S
C1819 H1804 0.959 . S
C1819 H1805 0.961 . S
C1819 C1818 1.502 . S
C1820 H1806 0.960 . S
C1820 H1807 0.961 . S
C1820 H1808 0.959 . S
C1820 C1818 1.561 . S
C1821 C1818 1.526 . S
C1821 C1822 1.396 . S
C1821 C1826 1.390 . S
C1822 C1816 1.465 . S
C1822 C1821 1.396 . S
C1822 C1823 1.399 . S
C1823 H1809 0.929 . S
C1823 C1822 1.399 . S
C1823 C1824 1.385 . S
C1824 H1810 0.931 . S
C1824 C1823 1.385 . S
C1824 C1825 1.389 . S
C1825 C1824 1.389 . S
C1825 C1826 1.387 . S
C1826 H1811 0.930 . S
C1826 C1821 1.390 . S
C1826 C1825 1.387 . S
H1827 C1839 0.930 . S
H1828 C1841 0.930 . S
H1829 C1842 0.930 . S
H1830 C1846 0.959 . S
H1831 C1846 0.959 1_545 S
H1832 C1846 0.961 . S
H1833 C1847 0.960 . S
H1834 C1847 0.961 . S
H1835 C1847 0.959 . S
H1836 C1850 0.929 . S
H1837 C1851 0.931 . S
H1838 C1853 0.930 . S
C1839 H1827 0.930 . S
C1839 C1840 1.399 . S
C1839 C1844 1.399 . S
C1840 C1839 1.399 . S
C1840 C1841 1.376 . S
C1841 H1828 0.930 . S
C1841 C1840 1.376 . S
C1841 C1842 1.388 . S
C1842 H1829 0.930 . S
C1842 C1841 1.388 . S
C1842 C1843 1.390 . S
C1843 C1842 1.390 . S
C1843 C1844 1.394 . S
C1843 C1849 1.465 1_565 S
C1844 C1839 1.399 . S
C1844 C1843 1.394 . S
C1844 C1845 1.516 1_565 S
C1845 C1844 1.516 1_545 S
C1845 C1846 1.502 1_545 S
C1845 C1847 1.561 . S
C1845 C1848 1.526 . S
C1846 H1830 0.959 . S
C1846 H1831 0.959 1_565 S
C1846 H1832 0.961 . S
C1846 C1845 1.502 1_565 S
C1847 H1833 0.960 . S
C1847 H1834 0.961 . S
C1847 H1835 0.959 . S
C1847 C1845 1.561 . S
C1848 C1845 1.526 . S
C1848 C1849 1.396 . S
C1848 C1853 1.390 . S
C1849 C1843 1.465 1_545 S
C1849 C1848 1.396 . S
C1849 C1850 1.399 . S
C1850 H1836 0.929 . S
C1850 C1849 1.399 . S
C1850 C1851 1.385 . S
C1851 H1837 0.931 . S
C1851 C1850 1.385 . S
C1851 C1852 1.389 . S
C1852 C1851 1.389 . S
C1852 C1853 1.387 . S
C1853 H1838 0.930 . S
C1853 C1848 1.390 . S
C1853 C1852 1.387 . S
H1854 C1866 0.930 . S
H1855 C1868 0.930 . S
H1856 C1869 0.930 1_655 S
H1857 C1873 0.959 . S
H1858 C1873 0.959 . S
H1859 C1873 0.961 . S
H1860 C1874 0.960 . S
H1861 C1874 0.961 . S
H1862 C1874 0.972 . S
H1863 C1877 0.929 . S
H1864 C1878 0.931 . S
H1865 C1880 0.930 . S
C1866 H1854 0.930 . S
C1866 C1867 1.399 . S
C1866 C1871 1.399 . S
C1867 C1866 1.399 . S
C1867 C1868 1.376 . S
C1868 H1855 0.930 . S
C1868 C1867 1.376 . S
C1868 C1869 1.388 . S
C1869 H1856 0.930 1_455 S
C1869 C1868 1.388 . S
C1869 C1870 1.390 . S
C1870 C1869 1.390 . S
C1870 C1871 1.394 . S
C1870 C1876 1.465 1_455 S
C1871 C1866 1.399 . S
C1871 C1870 1.394 . S
C1871 C1872 1.516 . S
C1872 C1871 1.516 . S
C1872 C1873 1.502 . S
C1872 C1874 1.561 . S
C1872 C1875 1.526 1_455 S
C1873 H1857 0.959 . S
C1873 H1858 0.959 . S
C1873 H1859 0.961 . S
C1873 C1872 1.502 . S
C1874 H1860 0.960 . S
C1874 H1861 0.961 . S
C1874 H1862 0.972 . S
C1874 C1872 1.561 . S
C1875 C1872 1.526 1_655 S
C1875 C1876 1.396 . S
C1875 C1880 1.390 . S
C1876 C1870 1.465 1_655 S
C1876 C1875 1.396 . S
C1876 C1877 1.399 . S
C1877 H1863 0.929 . S
C1877 C1876 1.399 . S
C1877 C1878 1.385 . S
C1878 H1864 0.931 . S
C1878 C1877 1.385 . S
C1878 C1879 1.389 . S
C1879 C1878 1.389 . S
C1879 C1880 1.387 . S
C1880 H1865 0.930 . S
C1880 C1875 1.390 . S
C1880 C1879 1.387 . S
H1881 C1893 0.930 . S
H1882 C1895 0.930 . S
H1883 C1896 0.930 . S
H1884 C1900 0.959 . S
H1885 C1900 0.959 . S
H1886 C1900 0.961 . S
H1887 C1901 0.960 . S
H1888 C1901 0.961 . S
H1889 C1901 0.959 . S
H1890 C1904 0.929 . S
H1891 C1905 0.931 . S
H1892 C1907 0.930 . S
C1893 H1881 0.930 . S
C1893 C1894 1.399 . S
C1893 C1898 1.399 . S
C1894 C1893 1.399 . S
C1894 C1895 1.376 . S
C1895 H1882 0.930 . S
C1895 C1894 1.376 . S
C1895 C1896 1.388 . S
C1896 H1883 0.930 . S
C1896 C1895 1.388 . S
C1896 C1897 1.390 . S
C1897 C1896 1.390 . S
C1897 C1898 1.394 . S
C1897 C1903 1.465 . S
C1898 C1893 1.399 . S
C1898 C1897 1.394 . S
C1898 C1899 1.516 . S
C1899 C1898 1.516 . S
C1899 C1900 1.502 . S
C1899 C1901 1.561 . S
C1899 C1902 1.526 . S
C1900 H1884 0.959 . S
C1900 H1885 0.959 . S
C1900 H1886 0.961 . S
C1900 C1899 1.502 . S
C1901 H1887 0.960 . S
C1901 H1888 0.961 . S
C1901 H1889 0.959 . S
C1901 C1899 1.561 . S
C1902 C1899 1.526 . S
C1902 C1903 1.396 . S
C1902 C1907 1.390 . S
C1903 C1897 1.465 . S
C1903 C1902 1.396 . S
C1903 C1904 1.399 . S
C1904 H1890 0.929 . S
C1904 C1903 1.399 . S
C1904 C1905 1.385 . S
C1905 H1891 0.931 . S
C1905 C1904 1.385 . S
C1905 C1906 1.389 . S
C1906 C1905 1.389 . S
C1906 C1907 1.387 . S
C1907 H1892 0.930 . S
C1907 C1902 1.390 . S
C1907 C1906 1.387 . S
H1908 C1920 0.930 . S
H1909 C1922 0.930 . S
H1910 C1923 0.930 . S
H1911 C1927 0.959 . S
H1912 C1927 0.959 . S
H1913 C1927 0.961 . S
H1914 C1928 0.960 . S
H1915 C1928 0.961 . S
H1916 C1928 0.959 . S
H1917 C1931 0.929 . S
H1918 C1932 0.931 . S
H1919 C1934 0.930 . S
C1920 H1908 0.930 . S
C1920 C1921 1.399 . S
C1920 C1925 1.399 . S
C1921 C1920 1.399 . S
C1921 C1922 1.376 . S
C1922 H1909 0.930 . S
C1922 C1921 1.376 . S
C1922 C1923 1.388 . S
C1923 H1910 0.930 . S
C1923 C1922 1.388 . S
C1923 C1924 1.390 . S
C1924 C1923 1.390 . S
C1924 C1925 1.394 . S
C1924 C1930 1.465 . S
C1925 C1920 1.399 . S
C1925 C1924 1.394 . S
C1925 C1926 1.516 . S
C1926 C1925 1.516 . S
C1926 C1927 1.502 . S
C1926 C1928 1.561 . S
C1926 C1929 1.526 . S
C1927 H1911 0.959 . S
C1927 H1912 0.959 . S
C1927 H1913 0.961 . S
C1927 C1926 1.502 . S
C1928 H1914 0.960 . S
C1928 H1915 0.961 . S
C1928 H1916 0.959 . S
C1928 C1926 1.561 . S
C1929 C1926 1.526 . S
C1929 C1930 1.396 . S
C1929 C1934 1.390 . S
C1930 C1924 1.465 . S
C1930 C1929 1.396 . S
C1930 C1931 1.399 . S
C1931 H1917 0.929 . S
C1931 C1930 1.399 . S
C1931 C1932 1.385 . S
C1932 H1918 0.931 . S
C1932 C1931 1.385 . S
C1932 C1933 1.389 . S
C1933 C1932 1.389 . S
C1933 C1934 1.387 . S
C1934 H1919 0.930 . S
C1934 C1929 1.390 . S
C1934 C1933 1.387 . S
H1935 C1947 0.930 . S
H1936 C1949 0.930 . S
H1937 C1950 0.930 . S
H1938 C1954 0.959 . S
H1939 C1954 0.959 . S
H1940 C1954 0.961 . S
H1941 C1955 0.960 . S
H1942 C1955 0.961 . S
H1943 C1955 0.959 . S
H1944 C1958 0.929 . S
H1945 C1959 0.931 . S
H1946 C1961 0.930 . S
C1947 H1935 0.930 . S
C1947 C1948 1.399 . S
C1947 C1952 1.399 . S
C1948 C1947 1.399 . S
C1948 C1949 1.376 . S
C1949 H1936 0.930 . S
C1949 C1948 1.376 . S
C1949 C1950 1.388 . S
C1950 H1937 0.930 . S
C1950 C1949 1.388 . S
C1950 C1951 1.390 . S
C1951 C1950 1.390 . S
C1951 C1952 1.394 . S
C1951 C1957 1.465 . S
C1952 C1947 1.399 . S
C1952 C1951 1.394 . S
C1952 C1953 1.516 . S
C1953 C1952 1.516 . S
C1953 C1954 1.502 . S
C1953 C1955 1.561 . S
C1953 C1956 1.526 . S
C1954 H1938 0.959 . S
C1954 H1939 0.959 . S
C1954 H1940 0.961 . S
C1954 C1953 1.502 . S
C1955 H1941 0.960 . S
C1955 H1942 0.961 . S
C1955 H1943 0.959 . S
C1955 C1953 1.561 . S
C1956 C1953 1.526 . S
C1956 C1957 1.396 . S
C1956 C1961 1.390 . S
C1957 C1951 1.465 . S
C1957 C1956 1.396 . S
C1957 C1958 1.399 . S
C1958 H1944 0.929 . S
C1958 C1957 1.399 . S
C1958 C1959 1.385 . S
C1959 H1945 0.931 . S
C1959 C1958 1.385 . S
C1959 C1960 1.389 . S
C1960 C1959 1.389 . S
C1960 C1961 1.387 . S
C1961 H1946 0.930 . S
C1961 C1956 1.390 . S
C1961 C1960 1.387 . S
H1962 C1974 0.930 . S
H1963 C1976 0.930 . S
H1964 C1977 0.930 . S
H1965 C1981 0.959 . S
H1966 C1981 0.959 . S
H1967 C1981 0.961 . S
H1968 C1982 0.960 . S
H1969 C1982 0.961 . S
H1970 C1982 0.959 . S
H1971 C1985 0.929 . S
H1972 C1986 0.931 . S
H1973 C1988 0.930 . S
C1974 H1962 0.930 . S
C1974 C1975 1.399 . S
C1974 C1979 1.399 . S
C1975 C1974 1.399 . S
C1975 C1976 1.376 . S
C1976 H1963 0.930 . S
C1976 C1975 1.376 . S
C1976 C1977 1.388 . S
C1977 H1964 0.930 . S
C1977 C1976 1.388 . S
C1977 C1978 1.390 . S
C1978 C1977 1.390 . S
C1978 C1979 1.394 . S
C1978 C1984 1.465 . S
C1979 C1974 1.399 . S
C1979 C1978 1.394 . S
C1979 C1980 1.516 . S
C1980 C1979 1.516 . S
C1980 C1981 1.502 . S
C1980 C1982 1.561 . S
C1980 C1983 1.526 . S
C1981 H1965 0.959 . S
C1981 H1966 0.959 . S
C1981 H1967 0.961 . S
C1981 C1980 1.502 . S
C1982 H1968 0.960 . S
C1982 H1969 0.961 . S
C1982 H1970 0.959 . S
C1982 C1980 1.561 . S
C1983 C1980 1.526 . S
C1983 C1984 1.396 . S
C1983 C1988 1.390 . S
C1984 C1978 1.465 . S
C1984 C1983 1.396 . S
C1984 C1985 1.399 . S
C1985 H1971 0.929 . S
C1985 C1984 1.399 . S
C1985 C1986 1.385 . S
C1986 H1972 0.931 . S
C1986 C1985 1.385 . S
C1986 C1987 1.389 . S
C1987 C1986 1.389 . S
C1987 C1988 1.387 . S
C1988 H1973 0.930 . S
C1988 C1983 1.390 . S
C1988 C1987 1.387 . S
H1989 C2001 0.930 . S
H1990 C2003 0.930 . S
H1991 C2004 0.930 . S
H1992 C2008 0.959 . S
H1993 C2008 0.959 . S
H1994 C2008 0.961 . S
H1995 C2009 0.960 . S
H1996 C2009 0.961 . S
H1997 C2009 0.959 . S
H1998 C2012 0.929 . S
H1999 C2013 0.931 . S
H2000 C2015 0.930 . S
C2001 H1989 0.930 . S
C2001 C2002 1.399 . S
C2001 C2006 1.399 . S
C2002 C2001 1.399 . S
C2002 C2003 1.376 . S
C2003 H1990 0.930 . S
C2003 C2002 1.376 . S
C2003 C2004 1.388 . S
C2004 H1991 0.930 . S
C2004 C2003 1.388 . S
C2004 C2005 1.390 . S
C2005 C2004 1.390 . S
C2005 C2006 1.394 . S
C2005 C2011 1.465 . S
C2006 C2001 1.399 . S
C2006 C2005 1.394 . S
C2006 C2007 1.516 . S
C2007 C2006 1.516 . S
C2007 C2008 1.502 . S
C2007 C2009 1.561 . S
C2007 C2010 1.526 . S
C2008 H1992 0.959 . S
C2008 H1993 0.959 . S
C2008 H1994 0.961 . S
C2008 C2007 1.502 . S
C2009 H1995 0.960 . S
C2009 H1996 0.961 . S
C2009 H1997 0.959 . S
C2009 C2007 1.561 . S
C2010 C2007 1.526 . S
C2010 C2011 1.396 . S
C2010 C2015 1.390 . S
C2011 C2005 1.465 . S
C2011 C2010 1.396 . S
C2011 C2012 1.399 . S
C2012 H1998 0.929 . S
C2012 C2011 1.399 . S
C2012 C2013 1.385 . S
C2013 H1999 0.931 . S
C2013 C2012 1.385 . S
C2013 C2014 1.389 . S
C2014 C2013 1.389 . S
C2014 C2015 1.387 . S
C2015 H2000 0.930 . S
C2015 C2010 1.390 . S
C2015 C2014 1.387 . S
H2016 C2028 0.930 . S
H2017 C2030 0.930 . S
H2018 C2031 0.930 . S
H2019 C2035 0.959 . S
H2020 C2035 0.959 . S
H2021 C2035 0.961 . S
H2022 C2036 0.960 . S
H2023 C2036 0.961 . S
H2024 C2036 0.959 . S
H2025 C2039 0.929 . S
H2026 C2040 0.931 . S
H2027 C2042 0.930 . S
C2028 H2016 0.930 . S
C2028 C2029 1.399 . S
C2028 C2033 1.399 . S
C2029 C2028 1.399 . S
C2029 C2030 1.376 . S
C2030 H2017 0.930 . S
C2030 C2029 1.376 . S
C2030 C2031 1.388 . S
C2031 H2018 0.930 . S
C2031 C2030 1.388 . S
C2031 C2032 1.390 . S
C2032 C2031 1.390 . S
C2032 C2033 1.394 . S
C2032 C2038 1.465 . S
C2033 C2028 1.399 . S
C2033 C2032 1.394 . S
C2033 C2034 1.516 . S
C2034 C2033 1.516 . S
C2034 C2035 1.502 . S
C2034 C2036 1.561 . S
C2034 C2037 1.526 . S
C2035 H2019 0.959 . S
C2035 H2020 0.959 . S
C2035 H2021 0.961 . S
C2035 C2034 1.502 . S
C2036 H2022 0.960 . S
C2036 H2023 0.961 . S
C2036 H2024 0.959 . S
C2036 C2034 1.561 . S
C2037 C2034 1.526 . S
C2037 C2038 1.396 . S
C2037 C2042 1.390 . S
C2038 C2032 1.465 . S
C2038 C2037 1.396 . S
C2038 C2039 1.399 . S
C2039 H2025 0.929 . S
C2039 C2038 1.399 . S
C2039 C2040 1.385 . S
C2040 H2026 0.931 . S
C2040 C2039 1.385 . S
C2040 C2041 1.389 . S
C2041 C2040 1.389 . S
C2041 C2042 1.387 . S
C2042 H2027 0.930 . S
C2042 C2037 1.390 . S
C2042 C2041 1.387 . S
H2043 C2055 0.930 . S
H2044 C2057 0.930 . S
H2045 C2058 0.930 . S
H2046 C2062 0.959 . S
H2047 C2062 0.959 . S
H2048 C2062 0.961 . S
H2049 C2063 0.960 . S
H2050 C2063 0.961 . S
H2051 C2063 0.959 . S
H2052 C2066 0.929 . S
H2053 C2067 0.931 . S
H2054 C2069 0.930 . S
C2055 H2043 0.930 . S
C2055 C2056 1.399 . S
C2055 C2060 1.399 . S
C2056 C2055 1.399 . S
C2056 C2057 1.376 . S
C2057 H2044 0.930 . S
C2057 C2056 1.376 . S
C2057 C2058 1.388 . S
C2058 H2045 0.930 . S
C2058 C2057 1.388 . S
C2058 C2059 1.390 . S
C2059 C2058 1.390 . S
C2059 C2060 1.394 . S
C2059 C2065 1.465 . S
C2060 C2055 1.399 . S
C2060 C2059 1.394 . S
C2060 C2061 1.516 . S
C2061 C2060 1.516 . S
C2061 C2062 1.502 . S
C2061 C2063 1.561 . S
C2061 C2064 1.526 . S
C2062 H2046 0.959 . S
C2062 H2047 0.959 . S
C2062 H2048 0.961 . S
C2062 C2061 1.502 . S
C2063 H2049 0.960 . S
C2063 H2050 0.961 . S
C2063 H2051 0.959 . S
C2063 C2061 1.561 . S
C2064 C2061 1.526 . S
C2064 C2065 1.396 . S
C2064 C2069 1.390 . S
C2065 C2059 1.465 . S
C2065 C2064 1.396 . S
C2065 C2066 1.399 . S
C2066 H2052 0.929 . S
C2066 C2065 1.399 . S
C2066 C2067 1.385 . S
C2067 H2053 0.931 . S
C2067 C2066 1.385 . S
C2067 C2068 1.389 . S
C2068 C2067 1.389 . S
C2068 C2069 1.387 . S
C2069 H2054 0.930 . S
C2069 C2064 1.390 . S
C2069 C2068 1.387 . S
H2070 C2082 0.930 . S
H2071 C2084 0.930 . S
H2072 C2085 0.930 . S
H2073 C2089 0.959 . S
H2074 C2089 0.959 . S
H2075 C2089 0.961 . S
H2076 C2090 0.960 . S
H2077 C2090 0.961 . S
H2078 C2090 0.959 . S
H2079 C2093 0.929 . S
H2080 C2094 0.931 . S
H2081 C2096 0.930 . S
C2082 H2070 0.930 . S
C2082 C2083 1.399 . S
C2082 C2087 1.399 . S
C2083 C2082 1.399 . S
C2083 C2084 1.376 . S
C2084 H2071 0.930 . S
C2084 C2083 1.376 . S
C2084 C2085 1.388 . S
C2085 H2072 0.930 . S
C2085 C2084 1.388 . S
C2085 C2086 1.390 . S
C2086 C2085 1.390 . S
C2086 C2087 1.394 . S
C2086 C2092 1.465 . S
C2087 C2082 1.399 . S
C2087 C2086 1.394 . S
C2087 C2088 1.516 . S
C2088 C2087 1.516 . S
C2088 C2089 1.502 . S
C2088 C2090 1.561 . S
C2088 C2091 1.526 . S
C2089 H2073 0.959 . S
C2089 H2074 0.959 . S
C2089 H2075 0.961 . S
C2089 C2088 1.502 . S
C2090 H2076 0.960 . S
C2090 H2077 0.961 . S
C2090 H2078 0.959 . S
C2090 C2088 1.561 . S
C2091 C2088 1.526 . S
C2091 C2092 1.396 . S
C2091 C2096 1.390 . S
C2092 C2086 1.465 . S
C2092 C2091 1.396 . S
C2092 C2093 1.399 . S
C2093 H2079 0.929 . S
C2093 C2092 1.399 . S
C2093 C2094 1.385 . S
C2094 H2080 0.931 . S
C2094 C2093 1.385 . S
C2094 C2095 1.389 . S
C2095 C2094 1.389 . S
C2095 C2096 1.387 . S
C2096 H2081 0.930 . S
C2096 C2091 1.390 . S
C2096 C2095 1.387 . S
H2097 C2109 0.930 . S
H2098 C2111 0.930 . S
H2099 C2112 0.930 . S
H2100 C2116 0.959 . S
H2101 C2116 0.959 . S
H2102 C2116 0.961 . S
H2103 C2117 0.960 . S
H2104 C2117 0.961 . S
H2105 C2117 0.959 . S
H2106 C2120 0.929 . S
H2107 C2121 0.931 . S
H2108 C2123 0.930 . S
C2109 H2097 0.930 . S
C2109 C2110 1.399 . S
C2109 C2114 1.399 . S
C2110 C2109 1.399 . S
C2110 C2111 1.376 . S
C2111 H2098 0.930 . S
C2111 C2110 1.376 . S
C2111 C2112 1.388 . S
C2112 H2099 0.930 . S
C2112 C2111 1.388 . S
C2112 C2113 1.390 . S
C2113 C2112 1.390 . S
C2113 C2114 1.394 . S
C2113 C2119 1.465 . S
C2114 C2109 1.399 . S
C2114 C2113 1.394 . S
C2114 C2115 1.516 . S
C2115 C2114 1.516 . S
C2115 C2116 1.502 . S
C2115 C2117 1.561 . S
C2115 C2118 1.526 . S
C2116 H2100 0.959 . S
C2116 H2101 0.959 . S
C2116 H2102 0.961 . S
C2116 C2115 1.502 . S
C2117 H2103 0.960 . S
C2117 H2104 0.961 . S
C2117 H2105 0.959 . S
C2117 C2115 1.561 . S
C2118 C2115 1.526 . S
C2118 C2119 1.396 . S
C2118 C2123 1.390 . S
C2119 C2113 1.465 . S
C2119 C2118 1.396 . S
C2119 C2120 1.399 . S
C2120 H2106 0.929 . S
C2120 C2119 1.399 . S
C2120 C2121 1.385 . S
C2121 H2107 0.931 . S
C2121 C2120 1.385 . S
C2121 C2122 1.389 . S
C2122 C2121 1.389 . S
C2122 C2123 1.387 . S
C2123 H2108 0.930 . S
C2123 C2118 1.390 . S
C2123 C2122 1.387 . S
H2124 C2136 0.930 . S
H2125 C2138 0.930 . S
H2126 C2139 0.930 . S
H2127 C2143 0.959 . S
H2128 C2143 0.959 . S
H2129 C2143 0.961 . S
H2130 C2144 0.960 . S
H2131 C2144 0.961 . S
H2132 C2144 0.959 . S
H2133 C2147 0.929 . S
H2134 C2148 0.931 . S
H2135 C2150 0.930 . S
C2136 H2124 0.930 . S
C2136 C2137 1.399 . S
C2136 C2141 1.399 . S
C2137 C2136 1.399 . S
C2137 C2138 1.376 . S
C2138 H2125 0.930 . S
C2138 C2137 1.376 . S
C2138 C2139 1.388 . S
C2139 H2126 0.930 . S
C2139 C2138 1.388 . S
C2139 C2140 1.390 . S
C2140 C2139 1.390 . S
C2140 C2141 1.394 . S
C2140 C2146 1.465 . S
C2141 C2136 1.399 . S
C2141 C2140 1.394 . S
C2141 C2142 1.516 . S
C2142 C2141 1.516 . S
C2142 C2143 1.502 . S
C2142 C2144 1.561 . S
C2142 C2145 1.526 . S
C2143 H2127 0.959 . S
C2143 H2128 0.959 . S
C2143 H2129 0.961 . S
C2143 C2142 1.502 . S
C2144 H2130 0.960 . S
C2144 H2131 0.961 . S
C2144 H2132 0.959 . S
C2144 C2142 1.561 . S
C2145 C2142 1.526 . S
C2145 C2146 1.396 . S
C2145 C2150 1.390 . S
C2146 C2140 1.465 . S
C2146 C2145 1.396 . S
C2146 C2147 1.399 . S
C2147 H2133 0.929 . S
C2147 C2146 1.399 . S
C2147 C2148 1.385 . S
C2148 H2134 0.931 . S
C2148 C2147 1.385 . S
C2148 C2149 1.389 . S
C2149 C2148 1.389 . S
C2149 C2150 1.387 . S
C2150 H2135 0.930 . S
C2150 C2145 1.390 . S
C2150 C2149 1.387 . S
H2151 C2163 0.930 . S
H2152 C2165 0.930 . S
H2153 C2166 0.930 . S
H2154 C2170 0.959 . S
H2155 C2170 0.959 . S
H2156 C2170 0.961 . S
H2157 C2171 0.960 . S
H2158 C2171 0.961 . S
H2159 C2171 0.959 . S
H2160 C2174 0.929 . S
H2161 C2175 0.931 . S
H2162 C2177 0.930 . S
C2163 H2151 0.930 . S
C2163 C2164 1.399 . S
C2163 C2168 1.399 . S
C2164 C2163 1.399 . S
C2164 C2165 1.376 . S
C2165 H2152 0.930 . S
C2165 C2164 1.376 . S
C2165 C2166 1.388 . S
C2166 H2153 0.930 . S
C2166 C2165 1.388 . S
C2166 C2167 1.390 . S
C2167 C2166 1.390 . S
C2167 C2168 1.394 . S
C2167 C2173 1.465 . S
C2168 C2163 1.399 . S
C2168 C2167 1.394 . S
C2168 C2169 1.516 . S
C2169 C2168 1.516 . S
C2169 C2170 1.502 . S
C2169 C2171 1.561 . S
C2169 C2172 1.526 . S
C2170 H2154 0.959 . S
C2170 H2155 0.959 . S
C2170 H2156 0.961 . S
C2170 C2169 1.502 . S
C2171 H2157 0.960 . S
C2171 H2158 0.961 . S
C2171 H2159 0.959 . S
C2171 C2169 1.561 . S
C2172 C2169 1.526 . S
C2172 C2173 1.396 . S
C2172 C2177 1.390 . S
C2173 C2167 1.465 . S
C2173 C2172 1.396 . S
C2173 C2174 1.399 . S
C2174 H2160 0.929 . S
C2174 C2173 1.399 . S
C2174 C2175 1.385 . S
C2175 H2161 0.931 . S
C2175 C2174 1.385 . S
C2175 C2176 1.389 . S
C2176 C2175 1.389 . S
C2176 C2177 1.387 . S
C2177 H2162 0.930 . S
C2177 C2172 1.390 . S
C2177 C2176 1.387 . S
H2178 C2190 0.930 . S
H2179 C2192 0.930 . S
H2180 C2193 0.930 . S
H2181 C2197 0.959 . S
H2182 C2197 0.959 . S
H2183 C2197 0.961 . S
H2184 C2198 0.960 . S
H2185 C2198 0.961 . S
H2186 C2198 0.959 . S
H2187 C2201 0.929 . S
H2188 C2202 0.931 . S
H2189 C2204 0.930 . S
C2190 H2178 0.930 . S
C2190 C2191 1.399 . S
C2190 C2195 1.399 . S
C2191 C2190 1.399 . S
C2191 C2192 1.376 . S
C2192 H2179 0.930 . S
C2192 C2191 1.376 . S
C2192 C2193 1.388 . S
C2193 H2180 0.930 . S
C2193 C2192 1.388 . S
C2193 C2194 1.390 . S
C2194 C2193 1.390 . S
C2194 C2195 1.394 . S
C2194 C2200 1.465 . S
C2195 C2190 1.399 . S
C2195 C2194 1.394 . S
C2195 C2196 1.516 . S
C2196 C2195 1.516 . S
C2196 C2197 1.502 . S
C2196 C2198 1.561 . S
C2196 C2199 1.526 . S
C2197 H2181 0.959 . S
C2197 H2182 0.959 . S
C2197 H2183 0.961 . S
C2197 C2196 1.502 . S
C2198 H2184 0.960 . S
C2198 H2185 0.961 . S
C2198 H2186 0.959 . S
C2198 C2196 1.561 . S
C2199 C2196 1.526 . S
C2199 C2200 1.396 . S
C2199 C2204 1.390 . S
C2200 C2194 1.465 . S
C2200 C2199 1.396 . S
C2200 C2201 1.399 . S
C2201 H2187 0.929 . S
C2201 C2200 1.399 . S
C2201 C2202 1.385 . S
C2202 H2188 0.931 . S
C2202 C2201 1.385 . S
C2202 C2203 1.389 . S
C2203 C2202 1.389 . S
C2203 C2204 1.387 . S
C2204 H2189 0.930 . S
C2204 C2199 1.390 . S
C2204 C2203 1.387 . S
H2205 C2217 0.930 . S
H2206 C2219 0.930 . S
H2207 C2220 0.930 . S
H2208 C2224 0.959 . S
H2209 C2224 0.959 . S
H2210 C2224 0.961 . S
H2211 C2225 0.960 . S
H2212 C2225 0.961 . S
H2213 C2225 0.959 . S
H2214 C2228 0.929 . S
H2215 C2229 0.931 . S
H2216 C2231 0.930 . S
C2217 H2205 0.930 . S
C2217 C2218 1.399 . S
C2217 C2222 1.399 . S
C2218 C2217 1.399 . S
C2218 C2219 1.376 . S
C2219 H2206 0.930 . S
C2219 C2218 1.376 . S
C2219 C2220 1.388 . S
C2220 H2207 0.930 . S
C2220 C2219 1.388 . S
C2220 C2221 1.390 . S
C2221 C2220 1.390 . S
C2221 C2222 1.394 . S
C2221 C2227 1.465 . S
C2222 C2217 1.399 . S
C2222 C2221 1.394 . S
C2222 C2223 1.516 . S
C2223 C2222 1.516 . S
C2223 C2224 1.502 . S
C2223 C2225 1.561 . S
C2223 C2226 1.526 . S
C2224 H2208 0.959 . S
C2224 H2209 0.959 . S
C2224 H2210 0.961 . S
C2224 C2223 1.502 . S
C2225 H2211 0.960 . S
C2225 H2212 0.961 . S
C2225 H2213 0.959 . S
C2225 C2223 1.561 . S
C2226 C2223 1.526 . S
C2226 C2227 1.396 . S
C2226 C2231 1.390 . S
C2227 C2221 1.465 . S
C2227 C2226 1.396 . S
C2227 C2228 1.399 . S
C2228 H2214 0.929 . S
C2228 C2227 1.399 . S
C2228 C2229 1.385 . S
C2229 H2215 0.931 . S
C2229 C2228 1.385 . S
C2229 C2230 1.389 . S
C2230 C2229 1.389 . S
C2230 C2231 1.387 . S
C2231 H2216 0.930 . S
C2231 C2226 1.390 . S
C2231 C2230 1.387 . S
H2232 C2244 0.930 . S
H2233 C2246 0.930 . S
H2234 C2247 0.930 . S
H2235 C2251 0.959 . S
H2236 C2251 0.959 . S
H2237 C2251 0.961 . S
H2238 C2252 0.960 . S
H2239 C2252 0.961 . S
H2240 C2252 0.959 . S
H2241 C2255 0.929 . S
H2242 C2256 0.931 . S
H2243 C2258 0.930 . S
C2244 H2232 0.930 . S
C2244 C2245 1.399 . S
C2244 C2249 1.399 . S
C2245 C2244 1.399 . S
C2245 C2246 1.376 . S
C2246 H2233 0.930 . S
C2246 C2245 1.376 . S
C2246 C2247 1.388 . S
C2247 H2234 0.930 . S
C2247 C2246 1.388 . S
C2247 C2248 1.390 . S
C2248 C2247 1.390 . S
C2248 C2249 1.394 . S
C2248 C2254 1.465 . S
C2249 C2244 1.399 . S
C2249 C2248 1.394 . S
C2249 C2250 1.516 . S
C2250 C2249 1.516 . S
C2250 C2251 1.502 . S
C2250 C2252 1.561 . S
C2250 C2253 1.526 . S
C2251 H2235 0.959 . S
C2251 H2236 0.959 . S
C2251 H2237 0.961 . S
C2251 C2250 1.502 . S
C2252 H2238 0.960 . S
C2252 H2239 0.961 . S
C2252 H2240 0.959 . S
C2252 C2250 1.561 . S
C2253 C2250 1.526 . S
C2253 C2254 1.396 . S
C2253 C2258 1.390 . S
C2254 C2248 1.465 . S
C2254 C2253 1.396 . S
C2254 C2255 1.399 . S
C2255 H2241 0.929 . S
C2255 C2254 1.399 . S
C2255 C2256 1.385 . S
C2256 H2242 0.931 . S
C2256 C2255 1.385 . S
C2256 C2257 1.389 . S
C2257 C2256 1.389 . S
C2257 C2258 1.387 . S
C2258 H2243 0.930 . S
C2258 C2253 1.390 . S
C2258 C2257 1.387 . S
H2259 C2271 0.930 . S
H2260 C2273 0.930 . S
H2261 C2274 0.930 . S
H2262 C2278 0.959 . S
H2263 C2278 0.959 . S
H2264 C2278 0.961 . S
H2265 C2279 0.960 . S
H2266 C2279 0.961 . S
H2267 C2279 0.959 . S
H2268 C2282 0.929 . S
H2269 C2283 0.931 . S
H2270 C2285 0.930 . S
C2271 H2259 0.930 . S
C2271 C2272 1.399 . S
C2271 C2276 1.399 . S
C2272 C2271 1.399 . S
C2272 C2273 1.376 . S
C2273 H2260 0.930 . S
C2273 C2272 1.376 . S
C2273 C2274 1.388 . S
C2274 H2261 0.930 . S
C2274 C2273 1.388 . S
C2274 C2275 1.390 . S
C2275 C2274 1.390 . S
C2275 C2276 1.394 . S
C2275 C2281 1.465 . S
C2276 C2271 1.399 . S
C2276 C2275 1.394 . S
C2276 C2277 1.516 . S
C2277 C2276 1.516 . S
C2277 C2278 1.502 . S
C2277 C2279 1.561 . S
C2277 C2280 1.526 . S
C2278 H2262 0.959 . S
C2278 H2263 0.959 . S
C2278 H2264 0.961 . S
C2278 C2277 1.502 . S
C2279 H2265 0.960 . S
C2279 H2266 0.961 . S
C2279 H2267 0.959 . S
C2279 C2277 1.561 . S
C2280 C2277 1.526 . S
C2280 C2281 1.396 . S
C2280 C2285 1.390 . S
C2281 C2275 1.465 . S
C2281 C2280 1.396 . S
C2281 C2282 1.399 . S
C2282 H2268 0.929 . S
C2282 C2281 1.399 . S
C2282 C2283 1.385 . S
C2283 H2269 0.931 . S
C2283 C2282 1.385 . S
C2283 C2284 1.389 . S
C2284 C2283 1.389 . S
C2284 C2285 1.387 . S
C2285 H2270 0.930 . S
C2285 C2280 1.390 . S
C2285 C2284 1.387 . S
H2286 C2298 0.930 . S
H2287 C2300 0.930 . S
H2288 C2301 0.930 . S
H2289 C2305 0.959 . S
H2290 C2305 0.959 . S
H2291 C2305 0.961 . S
H2292 C2306 0.960 . S
H2293 C2306 0.961 . S
H2294 C2306 0.959 . S
H2295 C2309 0.929 . S
H2296 C2310 0.931 . S
H2297 C2312 0.930 . S
C2298 H2286 0.930 . S
C2298 C2299 1.399 . S
C2298 C2303 1.399 . S
C2299 C2298 1.399 . S
C2299 C2300 1.376 . S
C2300 H2287 0.930 . S
C2300 C2299 1.376 . S
C2300 C2301 1.388 . S
C2301 H2288 0.930 . S
C2301 C2300 1.388 . S
C2301 C2302 1.390 . S
C2302 C2301 1.390 . S
C2302 C2303 1.394 . S
C2302 C2308 1.465 . S
C2303 C2298 1.399 . S
C2303 C2302 1.394 . S
C2303 C2304 1.516 . S
C2304 C2303 1.516 . S
C2304 C2305 1.502 . S
C2304 C2306 1.561 . S
C2304 C2307 1.526 . S
C2305 H2289 0.959 . S
C2305 H2290 0.959 . S
C2305 H2291 0.961 . S
C2305 C2304 1.502 . S
C2306 H2292 0.960 . S
C2306 H2293 0.961 . S
C2306 H2294 0.959 . S
C2306 C2304 1.561 . S
C2307 C2304 1.526 . S
C2307 C2308 1.396 . S
C2307 C2312 1.390 . S
C2308 C2302 1.465 . S
C2308 C2307 1.396 . S
C2308 C2309 1.399 . S
C2309 H2295 0.929 . S
C2309 C2308 1.399 . S
C2309 C2310 1.385 . S
C2310 H2296 0.931 . S
C2310 C2309 1.385 . S
C2310 C2311 1.389 . S
C2311 C2310 1.389 . S
C2311 C2312 1.387 . S
C2312 H2297 0.930 . S
C2312 C2307 1.390 . S
C2312 C2311 1.387 . S
H2313 C2325 0.930 . S
H2314 C2327 0.930 . S
H2315 C2328 0.930 . S
H2316 C2332 0.959 . S
H2317 C2332 0.959 . S
H2318 C2332 0.961 . S
H2319 C2333 0.960 . S
H2320 C2333 0.961 . S
H2321 C2333 0.959 . S
H2322 C2336 0.929 . S
H2323 C2337 0.931 . S
H2324 C2339 0.930 . S
C2325 H2313 0.930 . S
C2325 C2326 1.399 . S
C2325 C2330 1.399 . S
C2326 C2325 1.399 . S
C2326 C2327 1.376 . S
C2327 H2314 0.930 . S
C2327 C2326 1.376 . S
C2327 C2328 1.388 . S
C2328 H2315 0.930 . S
C2328 C2327 1.388 . S
C2328 C2329 1.390 . S
C2329 C2328 1.390 . S
C2329 C2330 1.394 . S
C2329 C2335 1.465 . S
C2330 C2325 1.399 . S
C2330 C2329 1.394 . S
C2330 C2331 1.516 . S
C2331 C2330 1.516 . S
C2331 C2332 1.502 . S
C2331 C2333 1.561 . S
C2331 C2334 1.526 . S
C2332 H2316 0.959 . S
C2332 H2317 0.959 . S
C2332 H2318 0.961 . S
C2332 C2331 1.502 . S
C2333 H2319 0.960 . S
C2333 H2320 0.961 . S
C2333 H2321 0.959 . S
C2333 C2331 1.561 . S
C2334 C2331 1.526 . S
C2334 C2335 1.396 . S
C2334 C2339 1.390 . S
C2335 C2329 1.465 . S
C2335 C2334 1.396 . S
C2335 C2336 1.399 . S
C2336 H2322 0.929 . S
C2336 C2335 1.399 . S
C2336 C2337 1.385 . S
C2337 H2323 0.931 . S
C2337 C2336 1.385 . S
C2337 C2338 1.389 . S
C2338 C2337 1.389 . S
C2338 C2339 1.387 . S
C2339 H2324 0.930 . S
C2339 C2334 1.390 . S
C2339 C2338 1.387 . S
H2340 C2352 0.930 . S
H2341 C2354 0.930 . S
H2342 C2355 0.930 . S
H2343 C2359 0.959 . S
H2344 C2359 0.959 . S
H2345 C2359 0.961 . S
H2346 C2360 0.960 . S
H2347 C2360 0.961 . S
H2348 C2360 0.959 . S
H2349 C2363 0.929 . S
H2350 C2364 0.931 . S
H2351 C2366 0.930 . S
C2352 H2340 0.930 . S
C2352 C2353 1.399 . S
C2352 C2357 1.399 . S
C2353 C2352 1.399 . S
C2353 C2354 1.376 . S
C2354 H2341 0.930 . S
C2354 C2353 1.376 . S
C2354 C2355 1.388 . S
C2355 H2342 0.930 . S
C2355 C2354 1.388 . S
C2355 C2356 1.390 . S
C2356 C2355 1.390 . S
C2356 C2357 1.394 . S
C2356 C2362 1.465 . S
C2357 C2352 1.399 . S
C2357 C2356 1.394 . S
C2357 C2358 1.516 . S
C2358 C2357 1.516 . S
C2358 C2359 1.502 . S
C2358 C2360 1.561 . S
C2358 C2361 1.526 . S
C2359 H2343 0.959 . S
C2359 H2344 0.959 . S
C2359 H2345 0.961 . S
C2359 C2358 1.502 . S
C2360 H2346 0.960 . S
C2360 H2347 0.961 . S
C2360 H2348 0.959 . S
C2360 C2358 1.561 . S
C2361 C2358 1.526 . S
C2361 C2362 1.396 . S
C2361 C2366 1.390 . S
C2362 C2356 1.465 . S
C2362 C2361 1.396 . S
C2362 C2363 1.399 . S
C2363 H2349 0.929 . S
C2363 C2362 1.399 . S
C2363 C2364 1.385 . S
C2364 H2350 0.931 . S
C2364 C2363 1.385 . S
C2364 C2365 1.389 . S
C2365 C2364 1.389 . S
C2365 C2366 1.387 . S
C2366 H2351 0.930 . S
C2366 C2361 1.390 . S
C2366 C2365 1.387 . S
H2367 C2379 0.930 . S
H2368 C2381 0.930 . S
H2369 C2382 0.930 . S
H2370 C2386 0.959 . S
H2371 C2386 0.959 . S
H2372 C2386 0.961 . S
H2373 C2387 0.960 . S
H2374 C2387 0.961 . S
H2375 C2387 0.959 . S
H2376 C2390 0.929 . S
H2377 C2391 0.931 . S
H2378 C2393 0.930 . S
C2379 H2367 0.930 . S
C2379 C2380 1.399 . S
C2379 C2384 1.399 . S
C2380 C2379 1.399 . S
C2380 C2381 1.376 . S
C2381 H2368 0.930 . S
C2381 C2380 1.376 . S
C2381 C2382 1.388 . S
C2382 H2369 0.930 . S
C2382 C2381 1.388 . S
C2382 C2383 1.390 . S
C2383 C2382 1.390 . S
C2383 C2384 1.394 . S
C2383 C2389 1.465 . S
C2384 C2379 1.399 . S
C2384 C2383 1.394 . S
C2384 C2385 1.516 . S
C2385 C2384 1.516 . S
C2385 C2386 1.502 . S
C2385 C2387 1.561 . S
C2385 C2388 1.526 . S
C2386 H2370 0.959 . S
C2386 H2371 0.959 . S
C2386 H2372 0.961 . S
C2386 C2385 1.502 . S
C2387 H2373 0.960 . S
C2387 H2374 0.961 . S
C2387 H2375 0.959 . S
C2387 C2385 1.561 . S
C2388 C2385 1.526 . S
C2388 C2389 1.396 . S
C2388 C2393 1.390 . S
C2389 C2383 1.465 . S
C2389 C2388 1.396 . S
C2389 C2390 1.399 . S
C2390 H2376 0.929 . S
C2390 C2389 1.399 . S
C2390 C2391 1.385 . S
C2391 H2377 0.931 . S
C2391 C2390 1.385 . S
C2391 C2392 1.389 . S
C2392 C2391 1.389 . S
C2392 C2393 1.387 . S
C2393 H2378 0.930 . S
C2393 C2388 1.390 . S
C2393 C2392 1.387 . S
H2394 C2406 0.930 . S
H2395 C2408 0.930 . S
H2396 C2409 0.930 . S
H2397 C2413 0.959 . S
H2398 C2413 0.959 . S
H2399 C2413 0.961 . S
H2400 C2414 0.960 . S
H2401 C2414 0.961 . S
H2402 C2414 0.959 . S
H2403 C2417 0.929 . S
H2404 C2418 0.931 . S
H2405 C2420 0.930 . S
C2406 H2394 0.930 . S
C2406 C2407 1.399 . S
C2406 C2411 1.399 . S
C2407 C2406 1.399 . S
C2407 C2408 1.376 . S
C2408 H2395 0.930 . S
C2408 C2407 1.376 . S
C2408 C2409 1.388 . S
C2409 H2396 0.930 . S
C2409 C2408 1.388 . S
C2409 C2410 1.390 . S
C2410 C2409 1.390 . S
C2410 C2411 1.394 . S
C2410 C2416 1.465 . S
C2411 C2406 1.399 . S
C2411 C2410 1.394 . S
C2411 C2412 1.516 . S
C2412 C2411 1.516 . S
C2412 C2413 1.502 . S
C2412 C2414 1.561 . S
C2412 C2415 1.526 . S
C2413 H2397 0.959 . S
C2413 H2398 0.959 . S
C2413 H2399 0.961 . S
C2413 C2412 1.502 . S
C2414 H2400 0.960 . S
C2414 H2401 0.961 . S
C2414 H2402 0.959 . S
C2414 C2412 1.561 . S
C2415 C2412 1.526 . S
C2415 C2416 1.396 . S
C2415 C2420 1.390 . S
C2416 C2410 1.465 . S
C2416 C2415 1.396 . S
C2416 C2417 1.399 . S
C2417 H2403 0.929 . S
C2417 C2416 1.399 . S
C2417 C2418 1.385 . S
C2418 H2404 0.931 . S
C2418 C2417 1.385 . S
C2418 C2419 1.389 . S
C2419 C2418 1.389 . S
C2419 C2420 1.387 . S
C2420 H2405 0.930 . S
C2420 C2415 1.390 . S
C2420 C2419 1.387 . S
H2421 C2433 0.930 . S
H2422 C2435 0.930 . S
H2423 C2436 0.930 . S
H2424 C2440 0.959 . S
H2425 C2440 0.959 . S
H2426 C2440 0.961 . S
H2427 C2441 0.960 . S
H2428 C2441 0.961 . S
H2429 C2441 0.959 . S
H2430 C2444 0.929 . S
H2431 C2445 0.931 . S
H2432 C2447 0.930 . S
C2433 H2421 0.930 . S
C2433 C2434 1.399 . S
C2433 C2438 1.399 . S
C2434 C2433 1.399 . S
C2434 C2435 1.376 . S
C2435 H2422 0.930 . S
C2435 C2434 1.376 . S
C2435 C2436 1.388 . S
C2436 H2423 0.930 . S
C2436 C2435 1.388 . S
C2436 C2437 1.390 . S
C2437 C2436 1.390 . S
C2437 C2438 1.394 . S
C2437 C2443 1.465 . S
C2438 C2433 1.399 . S
C2438 C2437 1.394 . S
C2438 C2439 1.516 . S
C2439 C2438 1.516 . S
C2439 C2440 1.502 . S
C2439 C2441 1.561 . S
C2439 C2442 1.526 . S
C2440 H2424 0.959 . S
C2440 H2425 0.959 . S
C2440 H2426 0.961 . S
C2440 C2439 1.502 . S
C2441 H2427 0.960 . S
C2441 H2428 0.961 . S
C2441 H2429 0.959 . S
C2441 C2439 1.561 . S
C2442 C2439 1.526 . S
C2442 C2443 1.396 . S
C2442 C2447 1.390 . S
C2443 C2437 1.465 . S
C2443 C2442 1.396 . S
C2443 C2444 1.399 . S
C2444 H2430 0.929 . S
C2444 C2443 1.399 . S
C2444 C2445 1.385 . S
C2445 H2431 0.931 . S
C2445 C2444 1.385 . S
C2445 C2446 1.389 . S
C2446 C2445 1.389 . S
C2446 C2447 1.387 . S
C2447 H2432 0.930 . S
C2447 C2442 1.390 . S
C2447 C2446 1.387 . S
H2448 C2460 0.930 . S
H2449 C2462 0.930 . S
H2450 C2463 0.930 . S
H2451 C2467 0.959 . S
H2452 C2467 0.959 . S
H2453 C2467 0.961 . S
H2454 C2468 0.960 . S
H2455 C2468 0.961 . S
H2456 C2468 0.959 . S
H2457 C2471 0.929 . S
H2458 C2472 0.931 . S
H2459 C2474 0.930 . S
C2460 H2448 0.930 . S
C2460 C2461 1.399 . S
C2460 C2465 1.399 . S
C2461 C2460 1.399 . S
C2461 C2462 1.376 . S
C2462 H2449 0.930 . S
C2462 C2461 1.376 . S
C2462 C2463 1.388 . S
C2463 H2450 0.930 . S
C2463 C2462 1.388 . S
C2463 C2464 1.390 . S
C2464 C2463 1.390 . S
C2464 C2465 1.394 . S
C2464 C2470 1.465 . S
C2465 C2460 1.399 . S
C2465 C2464 1.394 . S
C2465 C2466 1.516 . S
C2466 C2465 1.516 . S
C2466 C2467 1.502 . S
C2466 C2468 1.561 . S
C2466 C2469 1.526 . S
C2467 H2451 0.959 . S
C2467 H2452 0.959 . S
C2467 H2453 0.961 . S
C2467 C2466 1.502 . S
C2468 H2454 0.960 . S
C2468 H2455 0.961 . S
C2468 H2456 0.959 . S
C2468 C2466 1.561 . S
C2469 C2466 1.526 . S
C2469 C2470 1.396 . S
C2469 C2474 1.390 . S
C2470 C2464 1.465 . S
C2470 C2469 1.396 . S
C2470 C2471 1.399 . S
C2471 H2457 0.929 . S
C2471 C2470 1.399 . S
C2471 C2472 1.385 . S
C2472 H2458 0.931 . S
C2472 C2471 1.385 . S
C2472 C2473 1.389 . S
C2473 C2472 1.389 . S
C2473 C2474 1.387 . S
C2474 H2459 0.930 . S
C2474 C2469 1.390 . S
C2474 C2473 1.387 . S
H2475 C2487 0.930 . S
H2476 C2489 0.930 . S
H2477 C2490 0.930 . S
H2478 C2494 0.959 . S
H2479 C2494 0.959 . S
H2480 C2494 0.961 . S
H2481 C2495 0.960 . S
H2482 C2495 0.961 . S
H2483 C2495 0.959 . S
H2484 C2498 0.929 . S
H2485 C2499 0.931 . S
H2486 C2501 0.930 . S
C2487 H2475 0.930 . S
C2487 C2488 1.399 . S
C2487 C2492 1.399 . S
C2488 C2487 1.399 . S
C2488 C2489 1.376 . S
C2489 H2476 0.930 . S
C2489 C2488 1.376 . S
C2489 C2490 1.388 . S
C2490 H2477 0.930 . S
C2490 C2489 1.388 . S
C2490 C2491 1.390 . S
C2491 C2490 1.390 . S
C2491 C2492 1.394 . S
C2491 C2497 1.465 . S
C2492 C2487 1.399 . S
C2492 C2491 1.394 . S
C2492 C2493 1.516 . S
C2493 C2492 1.516 . S
C2493 C2494 1.502 . S
C2493 C2495 1.561 . S
C2493 C2496 1.526 . S
C2494 H2478 0.959 . S
C2494 H2479 0.959 . S
C2494 H2480 0.961 . S
C2494 C2493 1.502 . S
C2495 H2481 0.960 . S
C2495 H2482 0.961 . S
C2495 H2483 0.959 . S
C2495 C2493 1.561 . S
C2496 C2493 1.526 . S
C2496 C2497 1.396 . S
C2496 C2501 1.390 . S
C2497 C2491 1.465 . S
C2497 C2496 1.396 . S
C2497 C2498 1.399 . S
C2498 H2484 0.929 . S
C2498 C2497 1.399 . S
C2498 C2499 1.385 . S
C2499 H2485 0.931 . S
C2499 C2498 1.385 . S
C2499 C2500 1.389 . S
C2500 C2499 1.389 . S
C2500 C2501 1.387 . S
C2501 H2486 0.930 . S
C2501 C2496 1.390 . S
C2501 C2500 1.387 . S
H2502 C2514 0.930 . S
H2503 C2516 0.930 . S
H2504 C2517 0.930 . S
H2505 C2521 0.959 . S
H2506 C2521 0.959 . S
H2507 C2521 0.961 . S
H2508 C2522 0.960 . S
H2509 C2522 0.961 . S
H2510 C2522 0.959 . S
H2511 C2525 0.929 . S
H2512 C2526 0.931 . S
H2513 C2528 0.930 . S
C2514 H2502 0.930 . S
C2514 C2515 1.399 . S
C2514 C2519 1.399 . S
C2515 C2514 1.399 . S
C2515 C2516 1.376 . S
C2516 H2503 0.930 . S
C2516 C2515 1.376 . S
C2516 C2517 1.388 . S
C2517 H2504 0.930 . S
C2517 C2516 1.388 . S
C2517 C2518 1.390 . S
C2518 C2517 1.390 . S
C2518 C2519 1.394 . S
C2518 C2524 1.465 . S
C2519 C2514 1.399 . S
C2519 C2518 1.394 . S
C2519 C2520 1.516 . S
C2520 C2519 1.516 . S
C2520 C2521 1.502 . S
C2520 C2522 1.561 . S
C2520 C2523 1.526 . S
C2521 H2505 0.959 . S
C2521 H2506 0.959 . S
C2521 H2507 0.961 . S
C2521 C2520 1.502 . S
C2522 H2508 0.960 . S
C2522 H2509 0.961 . S
C2522 H2510 0.959 . S
C2522 C2520 1.561 . S
C2523 C2520 1.526 . S
C2523 C2524 1.396 . S
C2523 C2528 1.390 . S
C2524 C2518 1.465 . S
C2524 C2523 1.396 . S
C2524 C2525 1.399 . S
C2525 H2511 0.929 . S
C2525 C2524 1.399 . S
C2525 C2526 1.385 . S
C2526 H2512 0.931 . S
C2526 C2525 1.385 . S
C2526 C2527 1.389 . S
C2527 C2526 1.389 . S
C2527 C2528 1.387 . S
C2528 H2513 0.930 . S
C2528 C2523 1.390 . S
C2528 C2527 1.387 . S
H2529 C2541 0.930 . S
H2530 C2543 0.930 . S
H2531 C2544 0.930 . S
H2532 C2548 0.959 . S
H2533 C2548 0.959 . S
H2534 C2548 0.961 . S
H2535 C2549 0.960 . S
H2536 C2549 0.961 . S
H2537 C2549 0.959 . S
H2538 C2552 0.929 . S
H2539 C2553 0.931 . S
H2540 C2555 0.930 . S
C2541 H2529 0.930 . S
C2541 C2542 1.399 . S
C2541 C2546 1.399 . S
C2542 C2541 1.399 . S
C2542 C2543 1.376 . S
C2543 H2530 0.930 . S
C2543 C2542 1.376 . S
C2543 C2544 1.388 . S
C2544 H2531 0.930 . S
C2544 C2543 1.388 . S
C2544 C2545 1.390 . S
C2545 C2544 1.390 . S
C2545 C2546 1.394 . S
C2545 C2551 1.465 . S
C2546 C2541 1.399 . S
C2546 C2545 1.394 . S
C2546 C2547 1.516 . S
C2547 C2546 1.516 . S
C2547 C2548 1.502 . S
C2547 C2549 1.561 . S
C2547 C2550 1.526 . S
C2548 H2532 0.959 . S
C2548 H2533 0.959 . S
C2548 H2534 0.961 . S
C2548 C2547 1.502 . S
C2549 H2535 0.960 . S
C2549 H2536 0.961 . S
C2549 H2537 0.959 . S
C2549 C2547 1.561 . S
C2550 C2547 1.526 . S
C2550 C2551 1.396 . S
C2550 C2555 1.390 . S
C2551 C2545 1.465 . S
C2551 C2550 1.396 . S
C2551 C2552 1.399 . S
C2552 H2538 0.929 . S
C2552 C2551 1.399 . S
C2552 C2553 1.385 . S
C2553 H2539 0.931 . S
C2553 C2552 1.385 . S
C2553 C2554 1.389 . S
C2554 C2553 1.389 . S
C2554 C2555 1.387 . S
C2555 H2540 0.930 . S
C2555 C2550 1.390 . S
C2555 C2554 1.387 . S
C1111 C253 1.475 . S
C1123 C409 1.445 . S
C1138 C272 1.504 . S
C1150 C493 1.458 . S
C1165 C234 1.437 . S
C1177 C573 1.452 . S
C1192 C215 1.420 . S
C1204 C489 1.450 1_556 S
C1231 C577 1.405 . S
C1219 C177 1.463 . S
C1246 C196 1.406 . S
C1258 C405 1.409 1_556 S
C1285 C398 1.472 . S
C1273 C220 1.429 . S
C1312 C482 1.524 . S
C1300 C182 1.504 . S
C1327 C201 1.440 . S
C1339 C584 1.543 1_556 S
C1354 C258 1.467 . S
C1366 C500 1.453 . S
C1381 C277 1.471 . S
C1393 C566 1.460 . S
C1420 C416 1.450 . S
C1408 C239 1.428 . S
C1447 C661 1.444 . S
C1435 C25 1.473 . S
C1462 C44 1.503 . S
C1474 C745 1.454 . S
C1489 C6 1.458 . S
C1501 C825 1.459 . S
C1516 C329 1.433 . S
C1528 C741 1.439 . S
C1543 C291 1.470 . S
C1555 C829 1.434 . S
C1570 C310 1.407 . S
C1582 C657 1.408 . S
C1597 C334 1.430 . S
C1609 C650 1.471 . S
C1624 C296 1.527 . S
C1636 C734 1.478 . S
C1663 C836 1.482 . S
C1651 C315 1.497 . S
C1678 C30 1.460 1_565 S
C1690 C752 1.458 . S
C1717 C818 1.482 . S
C1705 C49 1.448 1_455 S
C1732 C11 1.397 . S
C1744 C668 1.492 . S
C1771 C913 1.439 . S
C1759 C139 1.474 . S
C1786 C158 1.496 . S
C1798 C997 1.435 . S
C1825 C1077 1.462 . S
C1813 C120 1.429 . S
C1852 C993 1.442 . S
C1840 C101 1.456 . S
C1879 C1081 1.400 . S
C1867 C63 1.461 . S
C1894 C82 1.425 . S
C1906 C909 1.419 . S
C1921 C106 1.409 1_655 S
C1933 C902 1.509 . S
C1948 C68 1.495 . S
C1960 C986 1.471 . S
C1987 C1088 1.533 . S
C1975 C87 1.457 1_545 S
C2002 C144 1.414 . S
C2014 C1004 1.513 . S
C2029 C163 1.424 . S
C2041 C1070 1.429 . S
C2056 C125 1.375 . S
C2068 C920 1.503 . S
C2083 C287 1.637 . S
C2095 C412 1.482 . S
C2122 C496 1.532 . S
C2110 C306 1.693 . S
C2137 C325 1.652 . S
C2149 C568 1.386 . S
C2164 C116 1.678 . S
C2176 C484 1.397 . S
C2191 C135 1.643 . S
C2203 C580 1.530 . S
C2230 C400 1.369 . S
C2218 C154 1.590 . S
C2245 C59 1.668 . S
C2257 C664 1.583 . S
C2272 C78 1.688 . S
C2284 C748 1.566 . S
C2299 C97 1.658 . S
C2311 C820 1.387 . S
C2326 C230 1.677 . S
C2338 C736 1.397 . S
C2365 C832 1.592 . S
C2353 C249 1.676 . S
C2380 C268 1.579 . S
C2392 C652 1.403 . S
C2407 C173 1.664 . S
C2419 C916 1.586 . S
C2434 C192 1.689 . S
C2446 C1000 1.574 . S
C2473 C1072 1.425 . S
C2461 C211 1.627 . S
C2488 C2 1.651 . S
C2500 C988 1.507 . S
C2515 C21 1.643 . S
C2527 C1084 1.534 . S
C2542 C40 1.578 . S
C2554 C904 1.412 . S
