# Generated by pormake.
# Topology ctn, (3,4)-cn, num edge types: 1
# Building blocks:
#     Node 0, Type 0, BuildingBlock: KAKCAD_clean_linker_0, # of connection points: 3
#     Node 1, Type 0, BuildingBlock: KAKCAD_clean_linker_0, # of connection points: 3
#     Node 2, Type 0, BuildingBlock: KAKCAD_clean_linker_0, # of connection points: 3
#     Node 3, Type 0, BuildingBlock: KAKCAD_clean_linker_0, # of connection points: 3
#     Node 4, Type 0, BuildingBlock: KAKCAD_clean_linker_0, # of connection points: 3
#     Node 5, Type 0, BuildingBlock: KAKCAD_clean_linker_0, # of connection points: 3
#     Node 6, Type 0, BuildingBlock: KAKCAD_clean_linker_0, # of connection points: 3
#     Node 7, Type 0, BuildingBlock: KAKCAD_clean_linker_0, # of connection points: 3
#     Node 8, Type 0, BuildingBlock: KAKCAD_clean_linker_0, # of connection points: 3
#     Node 9, Type 0, BuildingBlock: KAKCAD_clean_linker_0, # of connection points: 3
#     Node 10, Type 0, BuildingBlock: KAKCAD_clean_linker_0, # of connection points: 3
#     Node 11, Type 0, BuildingBlock: KAKCAD_clean_linker_0, # of connection points: 3
#     Node 12, Type 0, BuildingBlock: KAKCAD_clean_linker_0, # of connection points: 3
#     Node 13, Type 0, BuildingBlock: KAKCAD_clean_linker_0, # of connection points: 3
#     Node 14, Type 0, BuildingBlock: KAKCAD_clean_linker_0, # of connection points: 3
#     Node 15, Type 0, BuildingBlock: KAKCAD_clean_linker_0, # of connection points: 3
#     Node 16, Type 1, BuildingBlock: NAHDIM_clean_sbu_0, # of connection points: 4
#     Node 17, Type 1, BuildingBlock: NAHDIM_clean_sbu_0, # of connection points: 4
#     Node 18, Type 1, BuildingBlock: NAHDIM_clean_sbu_0, # of connection points: 4
#     Node 19, Type 1, BuildingBlock: NAHDIM_clean_sbu_0, # of connection points: 4
#     Node 20, Type 1, BuildingBlock: NAHDIM_clean_sbu_0, # of connection points: 4
#     Node 21, Type 1, BuildingBlock: NAHDIM_clean_sbu_0, # of connection points: 4
#     Node 22, Type 1, BuildingBlock: NAHDIM_clean_sbu_0, # of connection points: 4
#     Node 23, Type 1, BuildingBlock: NAHDIM_clean_sbu_0, # of connection points: 4
#     Node 24, Type 1, BuildingBlock: NAHDIM_clean_sbu_0, # of connection points: 4
#     Node 25, Type 1, BuildingBlock: NAHDIM_clean_sbu_0, # of connection points: 4
#     Node 26, Type 1, BuildingBlock: NAHDIM_clean_sbu_0, # of connection points: 4
#     Node 27, Type 1, BuildingBlock: NAHDIM_clean_sbu_0, # of connection points: 4
#     Edge 28, Type (0, 1), BuildingBlock: CIFDUS_clean_linker_0, # of connection points: 2
#     Edge 29, Type (0, 1), BuildingBlock: CIFDUS_clean_linker_0, # of connection points: 2
#     Edge 30, Type (0, 1), BuildingBlock: CIFDUS_clean_linker_0, # of connection points: 2
#     Edge 31, Type (0, 1), BuildingBlock: CIFDUS_clean_linker_0, # of connection points: 2
#     Edge 32, Type (0, 1), BuildingBlock: CIFDUS_clean_linker_0, # of connection points: 2
#     Edge 33, Type (0, 1), BuildingBlock: CIFDUS_clean_linker_0, # of connection points: 2
#     Edge 34, Type (0, 1), BuildingBlock: CIFDUS_clean_linker_0, # of connection points: 2
#     Edge 35, Type (0, 1), BuildingBlock: CIFDUS_clean_linker_0, # of connection points: 2
#     Edge 36, Type (0, 1), BuildingBlock: CIFDUS_clean_linker_0, # of connection points: 2
#     Edge 37, Type (0, 1), BuildingBlock: CIFDUS_clean_linker_0, # of connection points: 2
#     Edge 38, Type (0, 1), BuildingBlock: CIFDUS_clean_linker_0, # of connection points: 2
#     Edge 39, Type (0, 1), BuildingBlock: CIFDUS_clean_linker_0, # of connection points: 2
#     Edge 40, Type (0, 1), BuildingBlock: CIFDUS_clean_linker_0, # of connection points: 2
#     Edge 41, Type (0, 1), BuildingBlock: CIFDUS_clean_linker_0, # of connection points: 2
#     Edge 42, Type (0, 1), BuildingBlock: CIFDUS_clean_linker_0, # of connection points: 2
#     Edge 43, Type (0, 1), BuildingBlock: CIFDUS_clean_linker_0, # of connection points: 2
#     Edge 44, Type (0, 1), BuildingBlock: CIFDUS_clean_linker_0, # of connection points: 2
#     Edge 45, Type (0, 1), BuildingBlock: CIFDUS_clean_linker_0, # of connection points: 2
#     Edge 46, Type (0, 1), BuildingBlock: CIFDUS_clean_linker_0, # of connection points: 2
#     Edge 47, Type (0, 1), BuildingBlock: CIFDUS_clean_linker_0, # of connection points: 2
#     Edge 48, Type (0, 1), BuildingBlock: CIFDUS_clean_linker_0, # of connection points: 2
#     Edge 49, Type (0, 1), BuildingBlock: CIFDUS_clean_linker_0, # of connection points: 2
#     Edge 50, Type (0, 1), BuildingBlock: CIFDUS_clean_linker_0, # of connection points: 2
#     Edge 51, Type (0, 1), BuildingBlock: CIFDUS_clean_linker_0, # of connection points: 2
#     Edge 52, Type (0, 1), BuildingBlock: CIFDUS_clean_linker_0, # of connection points: 2
#     Edge 53, Type (0, 1), BuildingBlock: CIFDUS_clean_linker_0, # of connection points: 2
#     Edge 54, Type (0, 1), BuildingBlock: CIFDUS_clean_linker_0, # of connection points: 2
#     Edge 55, Type (0, 1), BuildingBlock: CIFDUS_clean_linker_0, # of connection points: 2
#     Edge 56, Type (0, 1), BuildingBlock: CIFDUS_clean_linker_0, # of connection points: 2
#     Edge 57, Type (0, 1), BuildingBlock: CIFDUS_clean_linker_0, # of connection points: 2
#     Edge 58, Type (0, 1), BuildingBlock: CIFDUS_clean_linker_0, # of connection points: 2
#     Edge 59, Type (0, 1), BuildingBlock: CIFDUS_clean_linker_0, # of connection points: 2
#     Edge 60, Type (0, 1), BuildingBlock: CIFDUS_clean_linker_0, # of connection points: 2
#     Edge 61, Type (0, 1), BuildingBlock: CIFDUS_clean_linker_0, # of connection points: 2
#     Edge 62, Type (0, 1), BuildingBlock: CIFDUS_clean_linker_0, # of connection points: 2
#     Edge 63, Type (0, 1), BuildingBlock: CIFDUS_clean_linker_0, # of connection points: 2
#     Edge 64, Type (0, 1), BuildingBlock: CIFDUS_clean_linker_0, # of connection points: 2
#     Edge 65, Type (0, 1), BuildingBlock: CIFDUS_clean_linker_0, # of connection points: 2
#     Edge 66, Type (0, 1), BuildingBlock: CIFDUS_clean_linker_0, # of connection points: 2
#     Edge 67, Type (0, 1), BuildingBlock: CIFDUS_clean_linker_0, # of connection points: 2
#     Edge 68, Type (0, 1), BuildingBlock: CIFDUS_clean_linker_0, # of connection points: 2
#     Edge 69, Type (0, 1), BuildingBlock: CIFDUS_clean_linker_0, # of connection points: 2
#     Edge 70, Type (0, 1), BuildingBlock: CIFDUS_clean_linker_0, # of connection points: 2
#     Edge 71, Type (0, 1), BuildingBlock: CIFDUS_clean_linker_0, # of connection points: 2
#     Edge 72, Type (0, 1), BuildingBlock: CIFDUS_clean_linker_0, # of connection points: 2
#     Edge 73, Type (0, 1), BuildingBlock: CIFDUS_clean_linker_0, # of connection points: 2
#     Edge 74, Type (0, 1), BuildingBlock: CIFDUS_clean_linker_0, # of connection points: 2
#     Edge 75, Type (0, 1), BuildingBlock: CIFDUS_clean_linker_0, # of connection points: 2
# Relax obj value: 0.002
# Max RMSD: 0.033
# Mean RMSD: 0.016
data_MOF--net-ctn--node1-NAHDIM_clean_sbu_0--node2-KAKCAD_clean_linker_0--edge1-CIFDUS_clean_linker_0
_symmetry_space_group_name_H-M    P1
_symmetry_Int_Tables_number       1
_symmetry_cell_setting            triclinic
loop_
_symmetry_equiv_pos_as_xyz
'x, y, z'
_cell_length_a     60.609302
_cell_length_b     60.903438
_cell_length_c     60.25083
_cell_angle_alpha  91.252138
_cell_angle_beta   90.346394
_cell_angle_gamma 92.320144
loop_
_atom_site_label
_atom_site_type_symbol
_atom_site_fract_x
_atom_site_fract_y
_atom_site_fract_z
_atom_type_partial_charge
C0 C 0.03629 0.09663 0.97813 0.0
C1 C 0.02988 0.11707 0.98666 0.0
C2 C 0.03993 0.07924 0.99234 0.0
C3 C 0.03722 0.08189 0.0154 0.0
C4 C 0.03066 0.10229 0.02387 0.0
C5 C 0.027 0.11963 0.0097 0.0
C6 C 0.04159 0.06368 0.03071 0.0
C7 C 0.05983 0.05047 0.02743 0.0
C8 C 0.06468 0.03403 0.04251 0.0
C9 C 0.05116 0.031 0.06115 0.0
C10 C 0.03259 0.04376 0.0646 0.0
C11 C 0.02787 0.0599 0.0491 0.0
C12 C 0.01833 0.04044 0.0845 0.0
C13 C 0.01476 0.01938 0.09338 0.0
C14 C 0.00835 0.05838 0.095 0.0
C15 C 0.99518 0.05532 0.11373 0.0
C16 C 0.99208 0.03438 0.12269 0.0
C17 C 0.08388 0.01999 0.03883 0.0
C18 C 0.08795 0.01089 0.01768 0.0
C19 C 0.09799 0.01519 0.05653 0.0
C20 C 0.11562 0.0014 0.0532 0.0
C21 C 0.11949 0.99203 0.03212 0.0
C22 C 0.10551 0.99701 0.01438 0.0
C23 C 0.002 0.01645 0.11241 0.0
H24 H 0.03884 0.09415 0.96049 0.0
H25 H 0.04477 0.06368 0.98523 0.0
H26 H 0.02868 0.10501 0.04156 0.0
H27 H 0.0218 0.13505 0.01682 0.0
H28 H 0.07071 0.05342 0.01351 0.0
H29 H 0.01329 0.06943 0.05112 0.0
H30 H 0.05518 0.01861 0.07297 0.0
H31 H 0.02168 0.00506 0.08557 0.0
H32 H 0.01101 0.07491 0.08905 0.0
H33 H 0.98782 0.06942 0.12155 0.0
H34 H 0.07728 0.01417 0.00375 0.0
H35 H 0.09543 0.02213 0.07297 0.0
H36 H 0.99965 1.00011 0.11899 0.0
H37 H 0.1082 0.99024 0.99789 0.0
H38 H 0.12599 0.99776 0.06725 0.0
C39 C 0.34491 0.75903 0.26786 0.0
C40 C 0.36136 0.74399 0.27214 0.0
C41 C 0.32696 0.75311 0.25406 0.0
C42 C 0.32485 0.73194 0.24441 0.0
C43 C 0.34096 0.7167 0.24899 0.0
C44 C 0.35909 0.7227 0.26261 0.0
C45 C 0.30603 0.72599 0.2293 0.0
C46 C 0.30043 0.7402 0.21232 0.0
C47 C 0.28247 0.73506 0.19802 0.0
C48 C 0.2699 0.71545 0.20108 0.0
C49 C 0.27528 0.70101 0.21803 0.0
C50 C 0.29352 0.70633 0.23193 0.0
C51 C 0.26157 0.68063 0.22156 0.0
C52 C 0.23842 0.68116 0.22155 0.0
C53 C 0.27151 0.66059 0.22535 0.0
C54 C 0.25859 0.6415 0.22907 0.0
C55 C 0.23539 0.64202 0.22925 0.0
C56 C 0.27714 0.75011 0.17979 0.0
C57 C 0.27828 0.77301 0.18343 0.0
C58 C 0.27155 0.74175 0.15846 0.0
C59 C 0.26765 0.75598 0.14108 0.0
C60 C 0.26924 0.7789 0.14463 0.0
C61 C 0.27441 0.78723 0.16606 0.0
C62 C 0.22549 0.66212 0.22543 0.0
H63 H 0.34579 0.7754 0.27529 0.0
H64 H 0.31459 0.76508 0.25106 0.0
H65 H 0.3398 0.70031 0.24161 0.0
H66 H 0.37156 0.71077 0.26525 0.0
H67 H 0.31048 0.75507 0.2099 0.0
H68 H 0.29755 0.69552 0.2453 0.0
H69 H 0.25589 0.71141 0.19029 0.0
H70 H 0.23028 0.69643 0.21901 0.0
H71 H 0.28932 0.65963 0.22521 0.0
H72 H 0.26679 0.62627 0.23156 0.0
H73 H 0.28216 0.77999 0.19975 0.0
H74 H 0.27081 0.72421 0.15503 0.0
H75 H 0.20771 0.66326 0.22585 0.0
H76 H 0.27538 0.80478 0.16945 0.0
H77 H 0.26396 0.74903 0.12472 0.0
C78 C 0.0082 0.48328 0.11853 0.0
C79 C 0.03121 0.48226 0.11619 0.0
C80 C 0.99426 0.48124 0.09995 0.0
C81 C 0.00302 0.47804 0.07862 0.0
C82 C 0.02603 0.47715 0.07628 0.0
C83 C 0.03996 0.47925 0.09483 0.0
C84 C 0.98823 0.47527 0.05889 0.0
C85 C 0.9701 0.48869 0.05628 0.0
C86 C 0.95608 0.4861 0.03763 0.0
C87 C 0.96035 0.46973 0.02156 0.0
C88 C 0.97842 0.45621 0.02388 0.0
C89 C 0.99224 0.45911 0.0426 0.0
C90 C 0.98288 0.43892 0.0069 0.0
C91 C 0.96563 0.42513 0.99822 0.0
C92 C 0.00453 0.43585 0.99955 0.0
C93 C 0.00887 0.41924 0.984 0.0
C94 C 0.99167 0.40525 0.97553 0.0
C95 C 0.93709 0.50057 0.03484 0.0
C96 C 0.92385 0.5061 0.05305 0.0
C97 C 0.93205 0.50896 0.01393 0.0
C98 C 0.91415 0.52245 0.01127 0.0
C99 C 0.90086 0.52792 0.02946 0.0
C100 C 0.90596 0.51962 0.0504 0.0
C101 C 0.96999 0.40843 0.98275 0.0
H102 H 1.00096 0.48581 0.13473 0.0
H103 H 0.97659 0.48182 0.10233 0.0
H104 H 0.03332 0.47493 0.06006 0.0
H105 H 0.05759 0.47819 0.09247 0.0
H106 H 0.96726 0.50157 0.0685 0.0
H107 H 0.00584 0.44832 0.04477 0.0
H108 H 0.9496 0.46751 0.00718 0.0
H109 H 0.9488 0.42698 0.00369 0.0
H110 H 0.01814 0.44635 0.00578 0.0
H111 H 0.02577 0.41711 0.97892 0.0
H112 H 0.92708 0.49967 0.06932 0.0
H113 H 0.94213 0.50534 0.99963 0.0
H114 H 0.95636 0.39805 0.97637 0.0
H115 H 0.89587 0.52326 0.06468 0.0
H116 H 0.91089 0.52885 0.995 0.0
C117 C 0.708 0.73829 0.14716 0.0
C118 C 0.72942 0.73093 0.14357 0.0
C119 C 0.70394 0.75336 0.16433 0.0
C120 C 0.7212 0.7614 0.17835 0.0
C121 C 0.74257 0.75391 0.17487 0.0
C122 C 0.74664 0.73888 0.15768 0.0
C123 C 0.717 0.77762 0.19649 0.0
C124 C 0.69795 0.77549 0.20952 0.0
C125 C 0.69393 0.79073 0.22673 0.0
C126 C 0.70959 0.80797 0.2312 0.0
C127 C 0.72877 0.8105 0.21826 0.0
C128 C 0.73208 0.79533 0.20076 0.0
C129 C 0.74524 0.82901 0.22269 0.0
C130 C 0.73856 0.84972 0.23028 0.0
C131 C 0.76787 0.82623 0.21895 0.0
C132 C 0.78324 0.84374 0.22204 0.0
C133 C 0.77659 0.86447 0.22956 0.0
C134 C 0.67316 0.78877 0.23971 0.0
C135 C 0.65299 0.78326 0.22893 0.0
C136 C 0.67324 0.79253 0.26283 0.0
C137 C 0.65359 0.79083 0.27485 0.0
C138 C 0.63341 0.78535 0.26403 0.0
C139 C 0.63338 0.78153 0.24094 0.0
C140 C 0.75404 0.86711 0.2339 0.0
H141 H 0.69431 0.73231 0.13676 0.0
H142 H 0.68733 0.75894 0.16643 0.0
H143 H 0.75618 0.75957 0.18553 0.0
H144 H 0.76336 0.73373 0.15525 0.0
H145 H 0.6864 0.76168 0.20654 0.0
H146 H 0.74621 0.79754 0.19001 0.0
H147 H 0.70669 0.81951 0.24468 0.0
H148 H 0.72132 0.8527 0.23311 0.0
H149 H 0.77384 0.81048 0.21358 0.0
H150 H 0.80033 0.84099 0.21814 0.0
H151 H 0.65228 0.78051 0.21112 0.0
H152 H 0.68852 0.7966 0.27167 0.0
H153 H 0.74821 0.88262 0.24013 0.0
H154 H 0.6182 0.77702 0.23211 0.0
H155 H 0.65418 0.79409 0.29259 0.0
C156 C 0.97208 0.98339 0.40097 0.0
C157 C 0.98161 0.98517 0.37985 0.0
C158 C 0.98541 0.98156 0.41984 0.0
C159 C 0.00853 0.98175 0.41798 0.0
C160 C 0.01804 0.98389 0.39689 0.0
C161 C 0.00473 0.98548 0.37802 0.0
C162 C 0.02272 0.97939 0.4379 0.0
C163 C 0.01753 0.96313 0.45345 0.0
C164 C 0.03121 0.96037 0.47202 0.0
C165 C 0.05004 0.97436 0.4751 0.0
C166 C 0.05541 0.9908 0.45983 0.0
C167 C 0.04172 0.99311 0.44119 0.0
C168 C 0.07535 0.00551 0.46343 0.0
C169 C 0.08053 0.0142 0.48472 0.0
C170 C 0.08949 0.01072 0.44573 0.0
C171 C 0.1085 0.02417 0.4493 0.0
C172 C 0.11373 0.03278 0.47062 0.0
C173 C 0.02608 0.94273 0.4881 0.0
C174 C 0.00434 0.93858 0.49536 0.0
C175 C 0.04299 0.93004 0.49647 0.0
C176 C 0.03832 0.91371 0.51188 0.0
C177 C 0.01662 0.90967 0.5193 0.0
C178 C 0.99967 0.92225 0.51081 0.0
C179 C 0.09949 0.02767 0.48827 0.0
H180 H 0.95431 0.98296 0.40286 0.0
H181 H 0.97763 0.9801 0.43591 0.0
H182 H 0.0358 0.98392 0.39492 0.0
H183 H 0.01254 0.98701 0.36197 0.0
H184 H 0.00322 0.95214 0.45069 0.0
H185 H 0.04556 0.00595 0.42948 0.0
H186 H 0.06061 0.97239 0.48943 0.0
H187 H 0.06986 0.01069 0.49866 0.0
H188 H 0.08605 0.00413 0.42917 0.0
H189 H 0.11902 0.02797 0.43531 0.0
H190 H 0.99097 0.94817 0.48934 0.0
H191 H 0.05987 0.93264 0.49102 0.0
H192 H 0.10314 0.03384 0.50494 0.0
H193 H 0.98274 0.91939 0.51601 0.0
H194 H 0.05179 0.90446 0.51823 0.0
C195 C 0.13841 0.71463 0.73648 0.0
C196 C 0.134 0.73605 0.72993 0.0
C197 C 0.15554 0.71099 0.75145 0.0
C198 C 0.16861 0.7287 0.76029 0.0
C199 C 0.16418 0.75012 0.75381 0.0
C200 C 0.1471 0.75375 0.73879 0.0
C201 C 0.18688 0.72488 0.77617 0.0
C202 C 0.20111 0.70751 0.77251 0.0
C203 C 0.21865 0.70406 0.78723 0.0
C204 C 0.22179 0.71816 0.80586 0.0
C205 C 0.20763 0.7355 0.80994 0.0
C206 C 0.19024 0.73872 0.79497 0.0
C207 C 0.21102 0.7502 0.82983 0.0
C208 C 0.21687 0.74159 0.85042 0.0
C209 C 0.20853 0.77298 0.82837 0.0
C210 C 0.21187 0.78681 0.84701 0.0
C211 C 0.21784 0.77822 0.86758 0.0
C212 C 0.23378 0.68582 0.78314 0.0
C213 C 0.22539 0.66476 0.7767 0.0
C214 C 0.25672 0.68927 0.78586 0.0
C215 C 0.27094 0.67204 0.78235 0.0
C216 C 0.26254 0.65094 0.77612 0.0
C217 C 0.2396 0.6475 0.7733 0.0
C218 C 0.22026 0.75543 0.86905 0.0
H219 H 0.12844 0.70065 0.73025 0.0
H220 H 0.15833 0.69432 0.75635 0.0
H221 H 0.17416 0.76409 0.76006 0.0
H222 H 0.14441 0.77043 0.73385 0.0
H223 H 0.19892 0.69704 0.75783 0.0
H224 H 0.17894 0.75173 0.79823 0.0
H225 H 0.23532 0.7156 0.81722 0.0
H226 H 0.21866 0.7241 0.85222 0.0
H227 H 0.20425 0.7802 0.81273 0.0
H228 H 0.2096 0.80425 0.84534 0.0
H229 H 0.20778 0.66155 0.77462 0.0
H230 H 0.26372 0.70535 0.79059 0.0
H231 H 0.22507 0.74826 0.88455 0.0
H232 H 0.23264 0.63148 0.7683 0.0
H233 H 0.28851 0.67518 0.78483 0.0
C234 C 0.98456 0.61977 0.49353 0.0
C235 C 0.981 0.61915 0.51657 0.0
C236 C 0.98143 0.60077 0.48024 0.0
C237 C 0.9747 0.58069 0.48966 0.0
C238 C 0.97135 0.58004 0.51272 0.0
C239 C 0.97442 0.59903 0.52599 0.0
C240 C 0.97084 0.56055 0.47549 0.0
C241 C 0.98515 0.55571 0.45795 0.0
C242 C 0.98151 0.53676 0.44444 0.0
C243 C 0.96336 0.52239 0.44889 0.0
C244 C 0.94895 0.52687 0.46649 0.0
C245 C 0.95275 0.54609 0.47951 0.0
C246 C 0.92985 0.51165 0.47142 0.0
C247 C 0.91672 0.50198 0.45424 0.0
C248 C 0.92431 0.5071 0.49352 0.0
C249 C 0.90589 0.49358 0.49837 0.0
C250 C 0.89256 0.48412 0.48123 0.0
C251 C 0.99679 0.53201 0.42581 0.0
C252 C 0.00518 0.5491 0.41254 0.0
C253 C 0.00332 0.51047 0.42127 0.0
C254 C 0.01798 0.50618 0.404 0.0
C255 C 0.02654 0.52333 0.39094 0.0
C256 C 0.0199 0.54483 0.39537 0.0
C257 C 0.89828 0.48837 0.45909 0.0
H258 H 0.98988 0.63493 0.48576 0.0
H259 H 0.98396 0.60191 0.46252 0.0
H260 H 0.96643 0.5648 0.52057 0.0
H261 H 0.9713 0.59798 0.54362 0.0
H262 H 0.99948 0.56648 0.45515 0.0
H263 H 0.94126 0.55007 0.49256 0.0
H264 H 0.96044 0.5077 0.43866 0.0
H265 H 0.92041 0.50527 0.43703 0.0
H266 H 0.93423 0.51403 0.50717 0.0
H267 H 0.90187 0.49089 0.51561 0.0
H268 H 1.0002 0.56582 0.41529 0.0
H269 H 0.99745 0.49696 0.43133 0.0
H270 H 0.88853 0.48116 0.44548 0.0
H271 H 0.0259 0.55835 0.38537 0.0
H272 H 0.02296 0.48948 0.40115 0.0
C273 C 0.81638 0.74236 0.86388 0.0
C274 C 0.79731 0.72924 0.86816 0.0
C275 C 0.81669 0.7572 0.84655 0.0
C276 C 0.79789 0.75945 0.83317 0.0
C277 C 0.77862 0.74682 0.83774 0.0
C278 C 0.77835 0.7318 0.855 0.0
C279 C 0.79878 0.77432 0.814 0.0
C280 C 0.81676 0.77393 0.79951 0.0
C281 C 0.81814 0.78788 0.78129 0.0
C282 C 0.8011 0.80238 0.77755 0.0
C283 C 0.78292 0.80312 0.79201 0.0
C284 C 0.7819 0.78889 0.81013 0.0
C285 C 0.76532 0.81914 0.78878 0.0
C286 C 0.77072 0.84094 0.78296 0.0
C287 C 0.74304 0.81303 0.79248 0.0
C288 C 0.72665 0.82845 0.791 0.0
C289 C 0.73212 0.85036 0.78572 0.0
C290 C 0.83746 0.7868 0.7663 0.0
C291 C 0.85878 0.78536 0.77531 0.0
C292 C 0.83469 0.78551 0.74312 0.0
C293 C 0.85275 0.7817 0.72933 0.0
C294 C 0.87387 0.77914 0.7385 0.0
C295 C 0.87675 0.78158 0.76159 0.0
C296 C 0.75431 0.85636 0.78144 0.0
H297 H 0.83112 0.74122 0.87397 0.0
H298 H 0.83168 0.76698 0.84361 0.0
H299 H 0.76395 0.74809 0.82756 0.0
H300 H 0.76346 0.7218 0.85764 0.0
H301 H 0.82954 0.76229 0.80216 0.0
H302 H 0.7683 0.7896 0.82169 0.0
H303 H 0.80207 0.81315 0.76347 0.0
H304 H 0.78774 0.84629 0.78029 0.0
H305 H 0.73824 0.79629 0.7966 0.0
H306 H 0.70967 0.8232 0.79402 0.0
H307 H 0.86151 0.78674 0.79308 0.0
H308 H 0.81843 0.78644 0.73572 0.0
H309 H 0.75911 0.87316 0.77758 0.0
H310 H 0.8929 0.78021 0.76912 0.0
H311 H 0.85 0.77984 0.7116 0.0
C312 C 0.30462 0.24772 0.36285 0.0
C313 C 0.28327 0.23935 0.36763 0.0
C314 C 0.30819 0.26165 0.34501 0.0
C315 C 0.2905 0.26755 0.33147 0.0
C316 C 0.26908 0.25947 0.33644 0.0
C317 C 0.2655 0.24552 0.35433 0.0
C318 C 0.29456 0.2817 0.31199 0.0
C319 C 0.31285 0.27834 0.29834 0.0
C320 C 0.31722 0.29167 0.28002 0.0
C321 C 0.30282 0.30851 0.27525 0.0
C322 C 0.28431 0.3121 0.28868 0.0
C323 C 0.28033 0.29857 0.30699 0.0
C324 C 0.26932 0.3302 0.28397 0.0
C325 C 0.2779 0.35119 0.27858 0.0
C326 C 0.2463 0.32677 0.28544 0.0
C327 C 0.2322 0.34398 0.28187 0.0
C328 C 0.24078 0.36506 0.27683 0.0
C329 C 0.33681 0.28767 0.26599 0.0
C330 C 0.35712 0.28312 0.27593 0.0
C331 C 0.3352 0.28734 0.2427 0.0
C332 C 0.35332 0.28187 0.22967 0.0
C333 C 0.37343 0.27665 0.23968 0.0
C334 C 0.37519 0.27769 0.26295 0.0
C335 C 0.2638 0.36844 0.27512 0.0
H336 H 0.3186 0.24362 0.37302 0.0
H337 H 0.32484 0.26792 0.3419 0.0
H338 H 0.25514 0.2635 0.32619 0.0
H339 H 0.24888 0.23917 0.35743 0.0
H340 H 0.32351 0.26492 0.3017 0.0
H341 H 0.26648 0.3016 0.31777 0.0
H342 H 0.30605 0.31885 0.26113 0.0
H343 H 0.29556 0.35442 0.2775 0.0
H344 H 0.23916 0.31074 0.28936 0.0
H345 H 0.21457 0.34086 0.28348 0.0
H346 H 0.35902 0.28365 0.29383 0.0
H347 H 0.31973 0.29059 0.23455 0.0
H348 H 0.27092 0.38443 0.27104 0.0
H349 H 0.39056 0.27425 0.27119 0.0
H350 H 0.35137 0.28107 0.21179 0.0
C351 C 0.50798 0.99259 0.6108 0.0
C352 C 0.53051 0.99076 0.60591 0.0
C353 C 0.49192 0.98918 0.59416 0.0
C354 C 0.49804 0.98371 0.57232 0.0
C355 C 0.52057 0.98208 0.56742 0.0
C356 C 0.53661 0.98558 0.584 0.0
C357 C 0.48106 0.97925 0.55472 0.0
C358 C 0.46305 0.99289 0.55251 0.0
C359 C 0.44728 0.9889 0.53552 0.0
C360 C 0.44957 0.97088 0.52083 0.0
C361 C 0.46738 0.957 0.5229 0.0
C362 C 0.483 0.96132 0.53991 0.0
C363 C 0.46975 0.93792 0.5074 0.0
C364 C 0.45135 0.92427 0.50131 0.0
C365 C 0.49057 0.93301 0.4989 0.0
C366 C 0.493 0.91472 0.48487 0.0
C367 C 0.47466 0.9009 0.47898 0.0
C368 C 0.42859 0.00372 0.53285 0.0
C369 C 0.41666 0.0109 0.5514 0.0
C370 C 0.4225 0.01073 0.51168 0.0
C371 C 0.40487 0.02456 0.5091 0.0
C372 C 0.39285 0.03165 0.52761 0.0
C373 C 0.39893 0.02465 0.5488 0.0
C374 C 0.45378 0.90594 0.48728 0.0
H375 H 0.50278 0.99677 0.62747 0.0
H376 H 0.47469 0.99042 0.59847 0.0
H377 H 0.52584 0.97813 0.55071 0.0
H378 H 0.55379 0.98385 0.57973 0.0
H379 H 0.46168 0.00702 0.56359 0.0
H380 H 0.4965 0.95037 0.54194 0.0
H381 H 0.43748 0.9677 0.50771 0.0
H382 H 0.43512 0.92751 0.50772 0.0
H383 H 0.50504 0.94334 0.50307 0.0
H384 H 0.50935 0.91118 0.47896 0.0
H385 H 0.42086 0.00566 0.56791 0.0
H386 H 0.43151 0.00566 0.49709 0.0
H387 H 0.43929 0.89574 0.48289 0.0
H388 H 0.39011 0.02998 0.5634 0.0
H389 H 0.40047 0.02949 0.49254 0.0
C390 C 0.20548 0.24427 0.64346 0.0
C391 C 0.22726 0.23799 0.63983 0.0
C392 C 0.20074 0.2591 0.66062 0.0
C393 C 0.21764 0.26802 0.67458 0.0
C394 C 0.23942 0.26173 0.67097 0.0
C395 C 0.24418 0.24689 0.65379 0.0
C396 C 0.21253 0.28396 0.69269 0.0
C397 C 0.19356 0.28068 0.7057 0.0
C398 C 0.18817 0.29598 0.72241 0.0
C399 C 0.20218 0.31467 0.72615 0.0
C400 C 0.22132 0.31816 0.71343 0.0
C401 C 0.22636 0.30271 0.69675 0.0
C402 C 0.23589 0.3381 0.71736 0.0
C403 C 0.22682 0.35877 0.72082 0.0
C404 C 0.25897 0.33661 0.71765 0.0
C405 C 0.27268 0.35536 0.72138 0.0
C406 C 0.26362 0.37604 0.72487 0.0
C407 C 0.16778 0.29255 0.73575 0.0
C408 C 0.14804 0.28452 0.72558 0.0
C409 C 0.16782 0.29741 0.75868 0.0
C410 C 0.14855 0.29442 0.7711 0.0
C411 C 0.1288 0.28645 0.7609 0.0
C412 C 0.12882 0.28146 0.738 0.0
C413 C 0.24052 0.37752 0.72451 0.0
H414 H 0.19212 0.23802 0.63278 0.0
H415 H 0.18384 0.26389 0.6627 0.0
H416 H 0.25278 0.26807 0.68161 0.0
H417 H 0.26108 0.24216 0.65161 0.0
H418 H 0.18316 0.26596 0.70305 0.0
H419 H 0.24073 0.30565 0.68645 0.0
H420 H 0.19813 0.32662 0.73892 0.0
H421 H 0.20911 0.36052 0.72034 0.0
H422 H 0.26645 0.32088 0.71532 0.0
H423 H 0.29038 0.35358 0.72189 0.0
H424 H 0.14735 0.28083 0.70791 0.0
H425 H 0.18279 0.30339 0.7671 0.0
H426 H 0.23301 0.39324 0.72678 0.0
H427 H 0.11398 0.27503 0.72964 0.0
H428 H 0.14908 0.29864 0.78865 0.0
C429 C 0.84492 0.24546 0.77833 0.0
C430 C 0.85872 0.22785 0.78218 0.0
C431 C 0.82678 0.24283 0.76395 0.0
C432 C 0.82179 0.22247 0.75338 0.0
C433 C 0.83532 0.20478 0.75735 0.0
C434 C 0.85368 0.20748 0.77145 0.0
C435 C 0.8025 0.2197 0.7382 0.0
C436 C 0.7994 0.23472 0.72123 0.0
C437 C 0.78126 0.23215 0.70664 0.0
C438 C 0.76602 0.21441 0.70939 0.0
C439 C 0.76871 0.19935 0.72648 0.0
C440 C 0.78714 0.20208 0.74071 0.0
C441 C 0.7521 0.18101 0.72972 0.0
C442 C 0.72942 0.18433 0.72705 0.0
C443 C 0.75877 0.16011 0.73582 0.0
C444 C 0.74316 0.14304 0.73932 0.0
C445 C 0.72047 0.14636 0.73666 0.0
C446 C 0.77827 0.24797 0.68851 0.0
C447 C 0.78195 0.27067 0.69243 0.0
C448 C 0.77172 0.24048 0.66714 0.0
C449 C 0.7689 0.25534 0.6501 0.0
C450 C 0.77255 0.27805 0.65403 0.0
C451 C 0.7791 0.28553 0.6754 0.0
C452 C 0.71381 0.16721 0.7304 0.0
H453 H 0.84793 0.26125 0.78662 0.0
H454 H 0.81643 0.25666 0.76136 0.0
H455 H 0.83191 0.18896 0.74921 0.0
H456 H 0.86409 0.19365 0.77364 0.0
H457 H 0.81148 0.24811 0.71906 0.0
H458 H 0.78925 0.19089 0.75423 0.0
H459 H 0.75198 0.21238 0.69822 0.0
H460 H 0.72364 0.20026 0.72265 0.0
H461 H 0.77611 0.15688 0.73778 0.0
H462 H 0.74891 0.12731 0.74441 0.0
H463 H 0.78681 0.27698 0.70876 0.0
H464 H 0.76898 0.22309 0.66351 0.0
H465 H 0.69651 0.17031 0.72793 0.0
H466 H 0.78226 0.3029 0.67892 0.0
H467 H 0.76362 0.24904 0.63389 0.0
C468 C 0.52306 0.59187 0.47697 0.0
C469 C 0.51617 0.61279 0.48352 0.0
C470 C 0.52827 0.57646 0.49282 0.0
C471 C 0.52678 0.5816 0.51561 0.0
C472 C 0.51972 0.60246 0.52218 0.0
C473 C 0.51448 0.61787 0.50632 0.0
C474 C 0.53276 0.56531 0.53243 0.0
C475 C 0.55128 0.5525 0.52928 0.0
C476 C 0.55698 0.5368 0.54483 0.0
C477 C 0.54401 0.53413 0.56393 0.0
C478 C 0.52541 0.54684 0.56741 0.0
C479 C 0.51994 0.56237 0.55155 0.0
C480 C 0.51126 0.54362 0.58726 0.0
C481 C 0.50536 0.52237 0.5944 0.0
C482 C 0.5029 0.5618 0.59875 0.0
C483 C 0.48866 0.5588 0.61669 0.0
C484 C 0.48241 0.53754 0.62356 0.0
C485 C 0.57645 0.52322 0.54083 0.0
C486 C 0.58024 0.51427 0.51956 0.0
C487 C 0.59169 0.51961 0.55793 0.0
C488 C 0.61058 0.50776 0.55367 0.0
C489 C 0.6146 0.49923 0.53224 0.0
C490 C 0.59905 0.50242 0.51533 0.0
C491 C 0.49108 0.51937 0.61232 0.0
H492 H 0.52475 0.58748 0.45957 0.0
H493 H 0.53339 0.56046 0.48719 0.0
H494 H 0.51855 0.607 0.5396 0.0
H495 H 0.50899 0.63375 0.51193 0.0
H496 H 0.56158 0.55507 0.51486 0.0
H497 H 0.50525 0.57173 0.55376 0.0
H498 H 0.54832 0.52207 0.576 0.0
H499 H 0.51136 0.50802 0.5858 0.0
H500 H 0.50731 0.57839 0.59382 0.0
H501 H 0.48214 0.57315 0.62484 0.0
H502 H 0.5686 0.51641 0.50614 0.0
H503 H 0.58931 0.52646 0.57444 0.0
H504 H 0.48679 0.50278 0.61736 0.0
H505 H 0.60136 0.49566 0.49877 0.0
H506 H 0.62232 0.50576 0.56703 0.0
C507 C 0.47578 0.46569 0.89858 0.0
C508 C 0.4847 0.4695 0.87745 0.0
C509 C 0.48967 0.46361 0.917 0.0
C510 C 0.51272 0.46557 0.91466 0.0
C511 C 0.5216 0.46933 0.89352 0.0
C512 C 0.50775 0.47121 0.87513 0.0
C513 C 0.52763 0.46396 0.93414 0.0
C514 C 0.52453 0.44698 0.94935 0.0
C515 C 0.53937 0.44487 0.96714 0.0
C516 C 0.55721 0.4602 0.96981 0.0
C517 C 0.56035 0.47749 0.95494 0.0
C518 C 0.54544 0.47921 0.93719 0.0
C519 C 0.57922 0.49371 0.95777 0.0
C520 C 0.58541 0.50205 0.97895 0.0
C521 C 0.59102 0.5012 0.9392 0.0
C522 C 0.60838 0.51687 0.94169 0.0
C523 C 0.61443 0.52534 0.96283 0.0
C524 C 0.53659 0.42633 0.98261 0.0
C525 C 0.51577 0.42074 0.99148 0.0
C526 C 0.55477 0.41405 0.98855 0.0
C527 C 0.55219 0.39651 0.003 0.0
C528 C 0.53141 0.39098 0.01198 0.0
C529 C 0.51323 0.40332 0.00612 0.0
C530 C 0.60285 0.51767 0.98146 0.0
H531 H 0.45807 0.46415 0.90082 0.0
H532 H 0.48239 0.46082 0.93312 0.0
H533 H 0.5393 0.4707 0.89118 0.0
H534 H 0.51511 0.47434 0.8591 0.0
H535 H 0.51104 0.43491 0.94687 0.0
H536 H 0.54747 0.4927 0.92584 0.0
H537 H 0.56873 0.45858 0.98344 0.0
H538 H 0.57648 0.49685 0.99357 0.0
H539 H 0.58698 0.49482 0.92269 0.0
H540 H 0.61723 0.52218 0.92707 0.0
H541 H 0.50149 0.43 0.98729 0.0
H542 H 0.57097 0.41785 0.98181 0.0
H543 H 0.60699 0.52408 0.99794 0.0
H544 H 0.49698 0.39932 0.01264 0.0
H545 H 0.56653 0.3874 0.00735 0.0
C546 C 0.64069 0.22787 0.24701 0.0
C547 C 0.63499 0.24969 0.24344 0.0
C548 C 0.65895 0.22337 0.26028 0.0
C549 C 0.6719 0.2406 0.27025 0.0
C550 C 0.6664 0.26239 0.26632 0.0
C551 C 0.64819 0.26688 0.25311 0.0
C552 C 0.6909 0.23605 0.285 0.0
C553 C 0.70565 0.21953 0.27941 0.0
C554 C 0.72413 0.21606 0.29293 0.0
C555 C 0.72755 0.22905 0.31227 0.0
C556 C 0.71284 0.2453 0.31841 0.0
C557 C 0.69454 0.24863 0.30467 0.0
C558 C 0.71708 0.259 0.33891 0.0
C559 C 0.7261 0.24971 0.35795 0.0
C560 C 0.71317 0.28164 0.33931 0.0
C561 C 0.71878 0.29473 0.35804 0.0
C562 C 0.72869 0.2855 0.37657 0.0
C563 C 0.74008 0.19893 0.28726 0.0
C564 C 0.73274 0.17745 0.28113 0.0
C565 C 0.76288 0.20361 0.2897 0.0
C566 C 0.77792 0.187 0.28728 0.0
C567 C 0.77056 0.16528 0.28227 0.0
C568 C 0.74785 0.16076 0.27865 0.0
C569 C 0.73203 0.26285 0.37647 0.0
H570 H 0.63074 0.21425 0.23997 0.0
H571 H 0.66261 0.2064 0.26313 0.0
H572 H 0.6763 0.27606 0.27335 0.0
H573 H 0.64455 0.28387 0.25033 0.0
H574 H 0.7032 0.20989 0.2642 0.0
H575 H 0.68285 0.26084 0.30946 0.0
H576 H 0.74187 0.22649 0.3226 0.0
H577 H 0.72881 0.23226 0.35851 0.0
H578 H 0.70648 0.28943 0.3249 0.0
H579 H 0.71615 0.31221 0.35771 0.0
H580 H 0.71527 0.17333 0.27924 0.0
H581 H 0.76909 0.22011 0.29396 0.0
H582 H 0.73934 0.25531 0.39073 0.0
H583 H 0.74168 0.14416 0.27484 0.0
H584 H 0.79534 0.1911 0.28967 0.0
C585 C 0.48631 0.1158 0.99438 0.0
C586 C 0.48129 0.11538 0.01714 0.0
C587 C 0.48349 0.09682 0.98102 0.0
C588 C 0.4756 0.07693 0.99008 0.0
C589 C 0.47075 0.07649 0.01287 0.0
C590 C 0.47351 0.09547 0.0262 0.0
C591 C 0.47205 0.05683 0.97578 0.0
C592 C 0.48724 0.05158 0.95911 0.0
C593 C 0.48378 0.03278 0.94533 0.0
C594 C 0.46484 0.01909 0.94856 0.0
C595 C 0.44967 0.02388 0.96535 0.0
C596 C 0.45335 0.04283 0.97875 0.0
C597 C 0.42998 0.00909 0.96903 0.0
C598 C 0.41715 1.00068 0.95103 0.0
C599 C 0.42381 0.00339 0.99067 0.0
C600 C 0.40521 0.98965 0.99426 0.0
C601 C 0.39227 0.98137 0.97629 0.0
C602 C 0.49994 0.02739 0.92765 0.0
C603 C 0.5103 0.04413 0.91522 0.0
C604 C 0.50506 0.00544 0.92293 0.0
C605 C 0.51986 1.00036 0.90605 0.0
C606 C 0.53011 0.01711 0.89364 0.0
C607 C 0.52529 0.03905 0.89849 0.0
C608 C 0.39846 0.98703 0.95463 0.0
H609 H 0.49258 0.13079 0.98689 0.0
H610 H 0.48718 0.09781 0.96349 0.0
H611 H 0.4649 0.06141 0.02047 0.0
H612 H 0.46923 0.09458 0.0436 0.0
H613 H 0.50205 0.06191 0.95723 0.0
H614 H 0.44129 0.04696 0.99121 0.0
H615 H 0.46189 0.0046 0.93804 0.0
H616 H 0.42138 0.00491 0.93417 0.0
H617 H 0.43348 0.00944 0.00487 0.0
H618 H 0.40077 0.98577 0.01116 0.0
H619 H 0.50653 0.06118 0.9181 0.0
H620 H 0.49779 0.99213 0.93242 0.0
H621 H 0.38893 0.98076 0.94043 0.0
H622 H 0.53274 0.05228 0.88901 0.0
H623 H 0.52348 0.98331 0.90285 0.0
C624 C 0.20441 0.89813 0.00439 0.0
O625 O 0.20088 0.87952 0.99326 0.0
O626 O 0.24333 0.86302 0.98081 0.0
Zn627 Zn 0.24889 0.88256 0.00792 0.0
O628 O 0.27695 0.90099 0.00343 0.0
C629 C 0.23855 0.84707 0.03739 0.0
O630 O 0.22286 0.84285 0.02258 0.0
O631 O 0.22358 0.90281 0.01227 0.0
C632 C 0.29538 0.89646 0.01203 0.0
O633 O 0.29644 0.87921 0.02465 0.0
C634 C 0.24813 0.86965 0.9615 0.0
O635 O 0.25686 0.88958 0.9593 0.0
O636 O 0.25176 0.86355 0.03478 0.0
C637 C 0.17276 0.475 0.273 0.0
O638 O 0.17769 0.49432 0.28227 0.0
O639 O 0.11641 0.50271 0.28399 0.0
Zn640 Zn 0.13567 0.49826 0.25703 0.0
O641 O 0.15474 0.52569 0.25163 0.0
C642 C 0.09792 0.48122 0.23117 0.0
O643 O 0.092 0.47254 0.25011 0.0
O644 O 0.15521 0.47253 0.26139 0.0
C645 C 0.14776 0.54076 0.23945 0.0
O646 O 0.12792 0.53839 0.23059 0.0
C647 C 0.12056 0.5179 0.29842 0.0
O648 O 0.13818 0.53089 0.29609 0.0
O649 O 0.11606 0.49239 0.2302 0.0
C650 C 0.79273 0.59199 0.99766 0.0
O651 O 0.77882 0.58787 0.98114 0.0
O652 O 0.76298 0.64347 0.98066 0.0
Zn653 Zn 0.76107 0.62421 0.00754 0.0
O654 O 0.73521 0.60243 0.00427 0.0
C655 C 0.74167 0.65834 0.03241 0.0
O656 O 0.73107 0.65984 0.01345 0.0
O657 O 0.78883 0.60741 0.01147 0.0
C658 C 0.71987 0.60467 0.99011 0.0
O659 O 0.72077 0.62171 0.97711 0.0
C660 C 0.78047 0.64804 0.9699 0.0
O661 O 0.7991 0.63952 0.97592 0.0
O662 O 0.75595 0.64375 0.03426 0.0
C663 C 0.84714 0.06221 0.26548 0.0
O664 O 0.86162 0.06098 0.28167 0.0
O665 O 0.88356 0.01897 0.27747 0.0
Zn666 Zn 0.86589 0.02135 0.24874 0.0
O667 O 0.84519 0.9947 0.24445 0.0
C668 C 0.90661 0.02743 0.22272 0.0
O669 O 0.91671 0.02864 0.24206 0.0
O670 O 0.84646 0.04753 0.25014 0.0
C671 C 0.85088 0.97606 0.23709 0.0
O672 O 0.87149 0.97324 0.23153 0.0
C673 C 0.89701 0.00373 0.28022 0.0
O674 O 0.89962 0.98922 0.26412 0.0
O675 O 0.88571 0.02452 0.22187 0.0
C676 C 0.30255 0.11897 0.49804 0.0
O677 O 0.30486 0.13674 0.48616 0.0
O678 O 0.26205 0.15292 0.47629 0.0
Zn679 Zn 0.25762 0.13321 0.50253 0.0
O680 O 0.23006 0.11392 0.49722 0.0
C681 C 0.26714 0.16838 0.53445 0.0
O682 O 0.2837 0.1726 0.52102 0.0
O683 O 0.28387 0.11418 0.50657 0.0
C684 C 0.21157 0.11916 0.50521 0.0
O685 O 0.21053 0.13729 0.51732 0.0
C686 C 0.24893 0.16832 0.47306 0.0
O687 O 0.23254 0.17101 0.4869 0.0
O688 O 0.25397 0.15207 0.53005 0.0
C689 C 0.33058 0.54108 0.76922 0.0
O690 O 0.32578 0.5219 0.77795 0.0
O691 O 0.3847 0.51276 0.78178 0.0
Zn692 Zn 0.36753 0.51752 0.75366 0.0
O693 O 0.34831 0.49034 0.74678 0.0
C694 C 0.40493 0.53695 0.7307 0.0
O695 O 0.40727 0.54837 0.74938 0.0
O696 O 0.34812 0.54343 0.7579 0.0
C697 C 0.35372 0.47568 0.73273 0.0
O698 O 0.37246 0.4782 0.72206 0.0
C699 C 0.40002 0.49911 0.78145 0.0
O700 O 0.40419 0.48858 0.76278 0.0
O701 O 0.38885 0.52299 0.72858 0.0
C702 C 0.71838 0.42284 0.52007 0.0
O703 O 0.72768 0.42489 0.50053 0.0
O704 O 0.73912 0.37228 0.49563 0.0
Zn705 Zn 0.74946 0.38874 0.52349 0.0
O706 O 0.77729 0.40694 0.51682 0.0
C707 C 0.76423 0.34917 0.54438 0.0
O708 O 0.77119 0.3445 0.5243 0.0
O709 O 0.7253 0.40852 0.53316 0.0
C710 C 0.79512 0.40561 0.52785 0.0
O711 O 0.7956 0.39229 0.54469 0.0
C712 C 0.75272 0.36569 0.48122 0.0
O713 O 0.77396 0.36979 0.48444 0.0
O714 O 0.75467 0.36711 0.54792 0.0
C715 C 0.65075 0.94938 0.77039 0.0
O716 O 0.63675 0.95087 0.78686 0.0
O717 O 0.61495 0.99385 0.78374 0.0
Zn718 Zn 0.6315 0.99 0.75492 0.0
O719 O 0.6514 0.01662 0.74922 0.0
C720 C 0.61201 0.99394 0.71102 0.0
O721 O 0.63074 0.00461 0.70685 0.0
O722 O 0.65089 0.96375 0.75539 0.0
C723 C 0.64559 0.03638 0.75121 0.0
O724 O 0.6254 0.0403 0.75759 0.0
C725 C 0.62237 0.00532 0.80024 0.0
O726 O 0.64224 0.01469 0.79922 0.0
O727 O 0.60892 0.98607 0.73018 0.0
C728 C 1.00127 0.20514 0.89512 0.0
O729 O 0.99261 0.20199 0.87521 0.0
O730 O 0.97481 0.24643 0.86382 0.0
Zn731 Zn 0.00207 0.25125 0.88324 0.0
O732 O 0.99746 0.2771 0.90407 0.0
C733 C 0.02909 0.26243 0.84458 0.0
O734 O 0.00998 0.2655 0.83502 0.0
O735 O 0.0064 0.22462 0.90187 0.0
C736 C 0.00617 0.29621 0.90146 0.0
O737 O 0.01921 0.29973 0.88446 0.0
C738 C 0.96509 0.26281 0.8562 0.0
O739 O 0.97301 0.28276 0.86103 0.0
O740 O 0.02956 0.25645 0.86467 0.0
C741 C 0.50137 0.7142 0.40331 0.0
O742 O 0.49217 0.70797 0.38427 0.0
O743 O 0.47598 0.74833 0.36447 0.0
Zn744 Zn 0.50261 0.75724 0.38349 0.0
O745 O 0.49736 0.786 0.39966 0.0
C746 C 0.53062 0.76631 0.34511 0.0
O747 O 0.51214 0.77216 0.3359 0.0
O748 O 0.50704 0.73434 0.40657 0.0
C749 C 0.50648 0.80433 0.39446 0.0
O750 O 0.52004 0.80508 0.37755 0.0
C751 C 0.46464 0.76251 0.35487 0.0
O752 O 0.47041 0.78345 0.35731 0.0
O753 O 0.53034 0.75954 0.36493 0.0
C754 C 0.00331 0.80643 0.59872 0.0
O755 O 0.99036 0.81047 0.6156 0.0
O756 O 0.97609 0.76951 0.6345 0.0
Zn757 Zn 0.00368 0.76284 0.61738 0.0
O758 O 0.9986 0.73477 0.59926 0.0
C759 C 0.03284 0.77258 0.65498 0.0
O760 O 0.01997 0.78925 0.6579 0.0
O761 O 0.01106 0.78743 0.59639 0.0
C762 C 0.00421 0.71629 0.60639 0.0
O763 O 0.0132 0.71536 0.62623 0.0
C764 C 0.97113 0.75924 0.65202 0.0
O765 O 0.98402 0.74382 0.6587 0.0
O766 O 0.02915 0.75937 0.63864 0.0
C767 C 0.50523 0.3029 0.10579 0.0
O768 O 0.49532 0.30574 0.12491 0.0
O769 O 0.47773 0.26421 0.1383 0.0
Zn770 Zn 0.50467 0.25792 0.11994 0.0
O771 O 0.4987 0.23067 0.10072 0.0
C772 C 0.53557 0.26378 0.15738 0.0
O773 O 0.52257 0.27947 0.16369 0.0
O774 O 0.51116 0.28378 0.10016 0.0
C775 C 0.50284 0.21185 0.10809 0.0
O776 O 0.51053 0.21045 0.12842 0.0
C777 C 0.47234 0.25403 0.15576 0.0
O778 O 0.48459 0.23812 0.16249 0.0
O779 O 0.53114 0.25295 0.13953 0.0
H780 H 0.23877 0.81869 0.86931 0.0
H781 H 0.20542 0.77084 0.91048 0.0
H782 H 0.21211 0.79469 0.94312 0.0
H783 H 0.22725 0.82919 0.95998 0.0
H784 H 0.25973 0.87745 0.91859 0.0
H785 H 0.25322 0.8535 0.88601 0.0
C786 C 0.23273 0.81357 0.88536 0.0
C787 C 0.22163 0.79296 0.88738 0.0
C788 C 0.23644 0.82745 0.90405 0.0
C789 C 0.21428 0.78646 0.90845 0.0
C790 C 0.21798 0.80015 0.92712 0.0
C791 C 0.23292 0.83449 0.94384 0.0
C792 C 0.244 0.8551 0.94177 0.0
C793 C 0.22907 0.82066 0.92512 0.0
C794 C 0.25115 0.8617 0.92069 0.0
C795 C 0.24745 0.848 0.90203 0.0
H796 H 0.06421 0.54684 0.38116 0.0
H797 H 0.02445 0.48977 0.35997 0.0
H798 H 0.05018 0.48277 0.32978 0.0
H799 H 0.08361 0.49329 0.30894 0.0
H800 H 0.12328 0.55046 0.33028 0.0
H801 H 0.09787 0.55704 0.36072 0.0
C802 C 0.0611 0.53295 0.36984 0.0
C803 C 0.04238 0.5189 0.37278 0.0
C804 C 0.07594 0.52904 0.35251 0.0
C805 C 0.03881 0.50074 0.3582 0.0
C806 C 0.05346 0.49679 0.34086 0.0
C807 C 0.08673 0.50717 0.32027 0.0
C808 C 0.10534 0.52138 0.31725 0.0
C809 C 0.07205 0.51087 0.33781 0.0
C810 C 0.10913 0.53924 0.33216 0.0
C811 C 0.09457 0.54305 0.34959 0.0
H812 H 0.76419 0.71869 0.89706 0.0
H813 H 0.83067 0.70257 0.87951 0.0
H814 H 0.83138 0.67627 0.90939 0.0
H815 H 0.81326 0.65788 0.94064 0.0
H816 H 0.74629 0.67296 0.95731 0.0
H817 H 0.74555 0.69927 0.92738 0.0
C818 C 0.77875 0.70925 0.89957 0.0
C819 C 0.79739 0.7128 0.88609 0.0
C820 C 0.77897 0.69389 0.91662 0.0
C821 C 0.81622 0.70056 0.88986 0.0
C822 C 0.8166 0.68537 0.90687 0.0
C823 C 0.79849 0.66689 0.93772 0.0
C824 C 0.77991 0.66348 0.95127 0.0
C825 C 0.79812 0.68196 0.92041 0.0
C826 C 0.76085 0.67523 0.94714 0.0
C827 C 0.76041 0.69033 0.93004 0.0
H828 H 0.94621 0.01059 0.37325 0.0
H829 H 0.98548 0.96179 0.34116 0.0
H830 H 0.96265 0.9631 0.30773 0.0
H831 H 0.9317 0.97806 0.2876 0.0
H832 H 0.89267 0.0275 0.31901 0.0
H833 H 0.91515 0.0259 0.35277 0.0
C834 C 0.94965 1.00017 0.35896 0.0
C835 C 0.96752 0.98613 0.35967 0.0
C836 C 0.93652 0.00111 0.3397 0.0
C837 C 0.97197 0.9729 0.34095 0.0
C838 C 0.95887 0.97357 0.32187 0.0
C839 C 0.92803 0.98846 0.30183 0.0
C840 C 0.91046 0.00282 0.30078 0.0
C841 C 0.94113 0.98762 0.32105 0.0
C842 C 0.90609 0.0163 0.31935 0.0
C843 C 0.91894 0.01538 0.33867 0.0
H844 H 0.26177 0.24037 0.61109 0.0
H845 H 0.20385 0.20045 0.62719 0.0
H846 H 0.21122 0.17532 0.59624 0.0
H847 H 0.23377 0.16493 0.56434 0.0
H848 H 0.29186 0.20469 0.54832 0.0
H849 H 0.28491 0.22942 0.57971 0.0
C850 C 0.25091 0.22603 0.60799 0.0
C851 C 0.23225 0.22236 0.62142 0.0
C852 C 0.25526 0.2116 0.59019 0.0
C853 C 0.21816 0.20385 0.61694 0.0
C854 C 0.22242 0.1894 0.59932 0.0
C855 C 0.24498 0.17895 0.56774 0.0
C856 C 0.26329 0.18294 0.55394 0.0
C857 C 0.24085 0.19317 0.58576 0.0
C858 C 0.27762 0.20121 0.55863 0.0
C859 C 0.27365 0.21539 0.57658 0.0
H860 H 0.48095 0.56052 0.66286 0.0
H861 H 0.44783 0.50745 0.62557 0.0
H862 H 0.42109 0.50253 0.65536 0.0
H863 H 0.40676 0.51359 0.69175 0.0
H864 H 0.43968 0.56687 0.72897 0.0
H865 H 0.46662 0.57158 0.69932 0.0
C866 C 0.46779 0.54797 0.66118 0.0
C867 C 0.46644 0.53437 0.64199 0.0
C868 C 0.45235 0.54532 0.67832 0.0
C869 C 0.44947 0.51796 0.64026 0.0
C870 C 0.43406 0.51523 0.65723 0.0
C871 C 0.41979 0.52628 0.69338 0.0
C872 C 0.42112 0.53989 0.71256 0.0
C873 C 0.4353 0.52885 0.6763 0.0
C874 C 0.43821 0.55616 0.7144 0.0
C875 C 0.45365 0.55887 0.69745 0.0
H876 H 0.78532 0.274 0.61094 0.0
H877 H 0.75289 0.31767 0.65644 0.0
H878 H 0.74777 0.34366 0.62671 0.0
H879 H 0.75206 0.35377 0.58767 0.0
H880 H 0.78405 0.30975 0.54211 0.0
H881 H 0.78952 0.28404 0.57193 0.0
C882 C 0.77695 0.28911 0.61431 0.0
C883 C 0.7695 0.29385 0.6359 0.0
C884 C 0.77394 0.30392 0.59712 0.0
C885 C 0.75903 0.31371 0.64005 0.0
C886 C 0.75598 0.32853 0.62303 0.0
C887 C 0.76024 0.33856 0.58425 0.0
C888 C 0.7676 0.33372 0.56265 0.0
C889 C 0.76333 0.32379 0.60149 0.0
C890 C 0.77819 0.31393 0.55855 0.0
C891 C 0.78133 0.29918 0.57561 0.0
H892 H 0.52938 0.97512 0.64791 0.0
H893 H 0.57023 0.01342 0.60348 0.0
H894 H 0.59905 0.01757 0.63193 0.0
H895 H 0.61275 0.0102 0.66931 0.0
H896 H 0.57181 0.97214 0.71392 0.0
H897 H 0.54289 0.9682 0.68558 0.0
C898 C 0.54449 0.98458 0.64455 0.0
C899 C 0.54764 0.99391 0.62358 0.0
C900 C 0.56101 0.98692 0.66099 0.0
C901 C 0.56747 0.00584 0.61938 0.0
C902 C 0.58394 0.0083 0.63567 0.0
C903 C 0.59752 0.00102 0.67286 0.0
C904 C 0.59452 0.99145 0.69373 0.0
C905 C 0.58093 0.99883 0.6565 0.0
C906 C 0.57462 0.97967 0.69801 0.0
C907 C 0.55804 0.97741 0.68181 0.0
H908 H 0.88637 0.26415 0.78747 0.0
H909 H 0.87533 0.19812 0.81091 0.0
H910 H 0.90761 0.20278 0.83514 0.0
H911 H 0.93872 0.22583 0.85024 0.0
H912 H 0.948 0.29264 0.82857 0.0
H913 H 0.91636 0.28755 0.80351 0.0
C914 C 0.89075 0.25084 0.79809 0.0
C915 C 0.87832 0.23079 0.79722 0.0
C916 C 0.90902 0.25379 0.81242 0.0
C917 C 0.88471 0.21362 0.81084 0.0
C918 C 0.90311 0.21632 0.82488 0.0
C919 C 0.93382 0.23926 0.84001 0.0
C920 C 0.94573 0.25956 0.84125 0.0
C921 C 0.91538 0.23634 0.82583 0.0
C922 C 0.93908 0.27686 0.82801 0.0
C923 C 0.92101 0.27396 0.81362 0.0
H924 H 0.49987 0.89731 0.44191 0.0
H925 H 0.45574 0.8598 0.48393 0.0
H926 H 0.46116 0.82683 0.46115 0.0
H927 H 0.47928 0.8084 0.43 0.0
H928 H 0.52397 0.84578 0.38836 0.0
H929 H 0.51765 0.87897 0.41045 0.0
C930 C 0.49154 0.88189 0.44616 0.0
C931 C 0.47745 0.88104 0.46463 0.0
C932 C 0.49489 0.86294 0.43312 0.0
C933 C 0.46647 0.861 0.46966 0.0
C934 C 0.46968 0.84209 0.45673 0.0
C935 C 0.48762 0.8238 0.42571 0.0
C936 C 0.50215 0.82454 0.40757 0.0
C937 C 0.48395 0.84284 0.4385 0.0
C938 C 0.51274 0.84469 0.40224 0.0
C939 C 0.50914 0.8637 0.41488 0.0
H940 H 0.12434 0.27039 0.80267 0.0
H941 H 0.08682 0.29598 0.74857 0.0
H942 H 0.05283 0.29055 0.76954 0.0
H943 H 0.0337 0.27863 0.80315 0.0
H944 H 0.07115 0.25401 0.85778 0.0
H945 H 0.10525 0.25932 0.83679 0.0
C946 C 0.10877 0.27501 0.79554 0.0
C947 C 0.10819 0.28349 0.774 0.0
C948 C 0.08925 0.27206 0.80779 0.0
C949 C 0.08777 0.28907 0.76495 0.0
C950 C 0.0683 0.28611 0.77698 0.0
C951 C 0.0493 0.27441 0.8105 0.0
C952 C 0.04983 0.26588 0.832 0.0
C953 C 0.06884 0.27756 0.79838 0.0
C954 C 0.07024 0.26061 0.84127 0.0
C955 C 0.08976 0.26362 0.82927 0.0
H956 H 0.52724 0.65659 0.48462 0.0
H957 H 0.49364 0.60604 0.44431 0.0
H958 H 0.48621 0.63286 0.41596 0.0
H959 H 0.4894 0.67062 0.40251 0.0
H960 H 0.52242 0.72128 0.44321 0.0
H961 H 0.52961 0.6945 0.47162 0.0
C962 C 0.51805 0.65148 0.46977 0.0
C963 C 0.51106 0.6293 0.46661 0.0
C964 C 0.51371 0.667 0.45358 0.0
C965 C 0.49949 0.62293 0.44706 0.0
C966 C 0.49512 0.63828 0.43087 0.0
C967 C 0.49815 0.67583 0.4176 0.0
C968 C 0.50538 0.69794 0.42066 0.0
C969 C 0.50223 0.66034 0.43392 0.0
C970 C 0.51665 0.70438 0.44037 0.0
C971 C 0.5208 0.68907 0.45665 0.0
H972 H 0.88608 0.79555 0.69829 0.0
H973 H 0.90383 0.74824 0.74692 0.0
H974 H 0.93519 0.73782 0.72444 0.0
H975 H 0.9578 0.74224 0.69125 0.0
H976 H 0.94045 0.7895 0.64239 0.0
H977 H 0.90864 0.79963 0.66455 0.0
C978 C 0.89673 0.78286 0.70386 0.0
C979 C 0.8927 0.77283 0.72435 0.0
C980 C 0.91481 0.7769 0.69082 0.0
C981 C 0.90677 0.75651 0.73142 0.0
C982 C 0.92465 0.75043 0.71851 0.0
C983 C 0.94705 0.75472 0.68537 0.0
C984 C 0.95154 0.76506 0.66517 0.0
C985 C 0.92888 0.76057 0.69824 0.0
C986 C 0.93741 0.78124 0.65788 0.0
C987 C 0.9192 0.78707 0.67056 0.0
H988 H 0.03285 0.86868 0.52086 0.0
H989 H 0.98944 0.91218 0.55524 0.0
H990 H 0.98156 0.88417 0.58281 0.0
H991 H 0.98715 0.84743 0.59728 0.0
H992 H 0.03079 0.80401 0.56301 0.0
H993 H 0.03866 0.83203 0.53549 0.0
C994 C 0.02182 0.8721 0.5345 0.0
C995 C 0.01175 0.89251 0.53596 0.0
C996 C 0.01744 0.85597 0.55036 0.0
C997 C 0.9972 0.89652 0.55354 0.0
C998 C 0.99279 0.88057 0.5694 0.0
C999 C 0.99843 0.84408 0.58384 0.0
C1000 C 0.00836 0.82362 0.58226 0.0
C1001 C 0.00282 0.86024 0.56798 0.0
C1002 C 0.02289 0.81959 0.56466 0.0
C1003 C 0.02741 0.83561 0.54888 0.0
H1004 H 0.10466 0.76886 0.73113 0.0
H1005 H 0.12264 0.71191 0.69245 0.0
H1006 H 0.09294 0.71807 0.66605 0.0
H1007 H 0.06204 0.73973 0.65375 0.0
H1008 H 0.04448 0.79711 0.69205 0.0
H1009 H 0.07406 0.79083 0.71856 0.0
C1010 C 0.10224 0.75791 0.71681 0.0
C1011 C 0.1159 0.73993 0.71384 0.0
C1012 C 0.08524 0.76165 0.70156 0.0
C1013 C 0.11223 0.7257 0.69536 0.0
C1014 C 0.09532 0.72929 0.68015 0.0
C1015 C 0.06468 0.75091 0.66787 0.0
C1016 C 0.05103 0.76889 0.67086 0.0
C1017 C 0.08173 0.74721 0.68308 0.0
C1018 C 0.05473 0.78315 0.68929 0.0
C1019 C 0.07164 0.77957 0.70449 0.0
H1020 H 0.9996 0.62323 0.55785 0.0
H1021 H 0.96886 0.66074 0.50706 0.0
H1022 H 0.97347 0.69402 0.53021 0.0
H1023 H 0.98589 0.71245 0.565 0.0
H1024 H 0.01585 0.67471 0.61612 0.0
H1025 H 0.0115 0.64151 0.59284 0.0
C1026 C 0.9937 0.63863 0.55191 0.0
C1027 C 0.98392 0.63943 0.5307 0.0
C1028 C 0.99618 0.65768 0.5654 0.0
C1029 C 0.97674 0.65966 0.52316 0.0
C1030 C 0.97922 0.67869 0.53646 0.0
C1031 C 0.99145 0.69697 0.57108 0.0
C1032 C 1.00118 0.69612 0.5923 0.0
C1033 C 0.9889 0.6779 0.55761 0.0
C1034 C 0.00828 0.67588 0.59988 0.0
C1035 C 0.00582 0.65686 0.58656 0.0
H1036 H 0.77054 0.90826 0.22313 0.0
H1037 H 0.82007 0.86325 0.2428 0.0
H1038 H 0.84747 0.89349 0.24552 0.0
H1039 H 0.85755 0.93284 0.24258 0.0
H1040 H 0.8072 0.97826 0.22717 0.0
H1041 H 0.77982 0.94776 0.22308 0.0
C1042 C 0.78717 0.90497 0.22844 0.0
C1043 C 0.79308 0.88326 0.23247 0.0
C1044 C 0.80277 0.92258 0.23078 0.0
C1045 C 0.81498 0.87958 0.23895 0.0
C1046 C 0.83071 0.89693 0.24073 0.0
C1047 C 0.84058 0.936 0.23828 0.0
C1048 C 0.83438 0.95766 0.23497 0.0
C1049 C 0.82482 0.91847 0.23659 0.0
C1050 C 0.8123 0.96166 0.22978 0.0
C1051 C 0.79668 0.94425 0.22742 0.0
H1052 H 0.77323 0.13133 0.25215 0.0
H1053 H 0.80361 0.15894 0.31198 0.0
H1054 H 0.83005 0.1298 0.31194 0.0
H1055 H 0.84447 0.09634 0.29514 0.0
H1056 H 0.8142 0.0685 0.23531 0.0
H1057 H 0.78781 0.09772 0.23522 0.0
C1058 C 0.78557 0.13087 0.26522 0.0
C1059 C 0.7865 0.14736 0.28196 0.0
C1060 C 0.80078 0.11402 0.26512 0.0
C1061 C 0.80273 0.14665 0.29869 0.0
C1062 C 0.8178 0.12992 0.29877 0.0
C1063 C 0.83213 0.09665 0.28205 0.0
C1064 C 0.83136 0.0802 0.26529 0.0
C1065 C 0.817 0.11353 0.28206 0.0
C1066 C 0.81522 0.08093 0.24845 0.0
C1067 C 0.80008 0.09764 0.24838 0.0
H1068 H 0.38794 0.94729 0.00464 0.0
H1069 H 0.35167 0.98337 0.95665 0.0
H1070 H 0.31858 0.96029 0.96337 0.0
H1071 H 0.29982 0.93017 0.98321 0.0
H1072 H 0.33615 0.894 0.03116 0.0
H1073 H 0.36925 0.91696 0.02428 0.0
C1074 C 0.37275 0.95019 0.99577 0.0
C1075 C 0.37228 0.96706 0.98019 0.0
C1076 C 0.35377 0.93688 0.99974 0.0
C1077 C 0.35255 0.97036 0.96856 0.0
C1078 C 0.33359 0.95725 0.97249 0.0
C1079 C 0.31496 0.92731 0.9922 0.0
C1080 C 0.31544 0.91041 0.00774 0.0
C1081 C 0.33399 0.9405 0.98808 0.0
C1082 C 0.33527 0.90688 0.01911 0.0
C1083 C 0.35423 0.92001 0.01519 0.0
H1084 H 0.246 0.40701 0.2931 0.0
H1085 H 0.20172 0.36449 0.25378 0.0
H1086 H 0.17669 0.39457 0.24929 0.0
H1087 H 0.1674 0.43302 0.25646 0.0
H1088 H 0.21186 0.47548 0.29575 0.0
H1089 H 0.23682 0.44542 0.30013 0.0
C1090 C 0.23098 0.40438 0.28335 0.0
C1091 C 0.22578 0.38352 0.27376 0.0
C1092 C 0.21666 0.42175 0.28084 0.0
C1093 C 0.20604 0.38031 0.26152 0.0
C1094 C 0.19175 0.39754 0.25887 0.0
C1095 C 0.18254 0.43571 0.26599 0.0
C1096 C 0.18771 0.45652 0.27574 0.0
C1097 C 0.19687 0.41832 0.26848 0.0
C1098 C 0.20742 0.45966 0.28805 0.0
C1099 C 0.22174 0.44247 0.29057 0.0
H1100 H 0.118 0.07023 0.49599 0.0
H1101 H 0.15506 0.02704 0.45401 0.0
H1102 H 0.18854 0.04996 0.46083 0.0
H1103 H 0.20739 0.08202 0.47914 0.0
H1104 H 0.17022 0.12496 0.52138 0.0
H1105 H 0.13679 0.10221 0.51425 0.0
C1106 C 0.13344 0.06573 0.48847 0.0
C1107 C 0.13401 0.04692 0.47454 0.0
C1108 C 0.15264 0.0789 0.49256 0.0
C1109 C 0.15409 0.04156 0.46461 0.0
C1110 C 0.17328 0.05458 0.46861 0.0
C1111 C 0.19199 0.0864 0.48681 0.0
C1112 C 0.19137 0.10517 0.50081 0.0
C1113 C 0.17276 0.07327 0.4826 0.0
C1114 C 0.17122 0.11062 0.51054 0.0
C1115 C 0.15206 0.09761 0.50648 0.0
H1116 H 0.7233 0.10292 0.72555 0.0
H1117 H 0.6801 0.14893 0.75665 0.0
H1118 H 0.65286 0.11921 0.76313 0.0
H1119 H 0.64158 0.07997 0.76075 0.0
H1120 H 0.68566 0.03386 0.73119 0.0
H1121 H 0.71237 0.06376 0.72372 0.0
C1122 C 0.70805 0.10646 0.73397 0.0
C1123 C 0.70383 0.1282 0.74056 0.0
C1124 C 0.6926 0.08924 0.73801 0.0
C1125 C 0.68372 0.13245 0.75107 0.0
C1126 C 0.66816 0.11542 0.75494 0.0
C1127 C 0.657 0.07647 0.75262 0.0
C1128 C 0.66158 0.0547 0.74655 0.0
C1129 C 0.67244 0.09374 0.74854 0.0
C1130 C 0.68171 0.05045 0.73612 0.0
C1131 C 0.69702 0.06755 0.7318 0.0
H1132 H 0.39091 0.06751 0.50163 0.0
H1133 H 0.35235 0.0284 0.54728 0.0
H1134 H 0.32109 0.05196 0.54229 0.0
H1135 H 0.30454 0.08341 0.5246 0.0
H1136 H 0.34325 0.12255 0.479 0.0
H1137 H 0.37449 0.09911 0.48419 0.0
C1138 C 0.37561 0.06406 0.51037 0.0
C1139 C 0.37397 0.04619 0.52477 0.0
C1140 C 0.35769 0.07765 0.5074 0.0
C1141 C 0.35414 0.04217 0.53626 0.0
C1142 C 0.33621 0.05556 0.53333 0.0
C1143 C 0.3198 0.08682 0.51577 0.0
C1144 C 0.32148 0.10471 0.50138 0.0
C1145 C 0.33778 0.07332 0.5189 0.0
C1146 C 0.34145 0.10891 0.49018 0.0
C1147 C 0.35935 0.0955 0.49312 0.0
H1148 H 0.63444 0.46903 0.5577 0.0
H1149 H 0.64078 0.50278 0.49567 0.0
H1150 H 0.6735 0.48244 0.48665 0.0
H1151 H 0.69994 0.45464 0.49595 0.0
H1152 H 0.69406 0.4211 0.55816 0.0
H1153 H 0.66179 0.44205 0.56764 0.0
C1154 C 0.64312 0.47212 0.54233 0.0
C1155 C 0.63502 0.4873 0.52733 0.0
C1156 C 0.66204 0.46042 0.53726 0.0
C1157 C 0.64638 0.49091 0.50736 0.0
C1158 C 0.66519 0.47938 0.50222 0.0
C1159 C 0.69167 0.45195 0.51163 0.0
C1160 C 0.69941 0.43625 0.52626 0.0
C1161 C 0.67308 0.46399 0.51697 0.0
C1162 C 0.68848 0.43305 0.54654 0.0
C1163 C 0.66998 0.44501 0.55199 0.0
H1164 H 0.70523 0.31471 0.40057 0.0
H1165 H 0.76961 0.28755 0.39512 0.0
H1166 H 0.78297 0.31055 0.42655 0.0
H1167 H 0.77626 0.33802 0.45578 0.0
H1168 H 0.71137 0.36384 0.46282 0.0
H1169 H 0.69827 0.34181 0.43057 0.0
C1170 C 0.72218 0.31396 0.40628 0.0
C1171 C 0.73645 0.29954 0.39563 0.0
C1172 C 0.72963 0.32696 0.42461 0.0
C1173 C 0.75832 0.29846 0.40323 0.0
C1174 C 0.76598 0.31163 0.42112 0.0
C1175 C 0.75928 0.33892 0.45018 0.0
C1176 C 0.74484 0.35261 0.46157 0.0
C1177 C 0.75177 0.32589 0.43196 0.0
C1178 C 0.72281 0.35338 0.45432 0.0
C1179 C 0.71531 0.34082 0.43588 0.0
H1180 H 0.57052 0.03621 0.88537 0.0
H1181 H 0.52404 0.98572 0.86098 0.0
H1182 H 0.54869 0.9772 0.83029 0.0
H1183 H 0.58299 0.98474 0.80984 0.0
H1184 H 0.62981 0.03488 0.8345 0.0
H1185 H 0.60552 0.04286 0.86559 0.0
C1186 C 0.56579 0.02339 0.87327 0.0
C1187 C 0.54546 0.01167 0.87539 0.0
C1188 C 0.5801 0.01851 0.85573 0.0
C1189 C 0.53968 0.99487 0.8598 0.0
C1190 C 0.55372 0.99005 0.8422 0.0
C1191 C 0.58793 0.99737 0.82204 0.0
C1192 C 0.60816 0.00925 0.81975 0.0
C1193 C 0.57391 0.00184 0.83994 0.0
C1194 C 0.61435 0.02545 0.83584 0.0
C1195 C 0.60043 0.03009 0.85361 0.0
H1196 H 0.25021 0.23931 0.3981 0.0
H1197 H 0.30829 0.20498 0.37903 0.0
H1198 H 0.30287 0.18009 0.4099 0.0
H1199 H 0.28168 0.16803 0.44232 0.0
H1200 H 0.2234 0.20217 0.46126 0.0
H1201 H 0.22875 0.22696 0.43031 0.0
C1202 C 0.26156 0.22625 0.40058 0.0
C1203 C 0.27966 0.22407 0.38629 0.0
C1204 C 0.25832 0.21193 0.41834 0.0
C1205 C 0.29439 0.20724 0.38994 0.0
C1206 C 0.29125 0.19291 0.40753 0.0
C1207 C 0.27012 0.18086 0.43967 0.0
C1208 C 0.25217 0.1832 0.45412 0.0
C1209 C 0.27329 0.19512 0.42186 0.0
C1210 C 0.23738 0.19997 0.45043 0.0
C1211 C 0.24041 0.21418 0.43271 0.0
H1212 H 0.44813 0.49382 0.87449 0.0
H1213 H 0.48881 0.45065 0.83631 0.0
H1214 H 0.46605 0.45579 0.80339 0.0
H1215 H 0.43511 0.47306 0.78527 0.0
H1216 H 0.39455 0.51664 0.82318 0.0
H1217 H 0.41665 0.5107 0.8564 0.0
C1218 C 0.45184 0.48536 0.85902 0.0
C1219 C 0.47014 0.47191 0.85783 0.0
C1220 C 0.43876 0.48851 0.84009 0.0
C1221 C 0.47494 0.46127 0.83759 0.0
C1222 C 0.4619 0.46415 0.81878 0.0
C1223 C 0.43104 0.48123 0.8008 0.0
C1224 C 0.4132 0.49529 0.80169 0.0
C1225 C 0.44388 0.47785 0.8198 0.0
C1226 C 0.40821 0.50576 0.82198 0.0
C1227 C 0.42084 0.50236 0.84101 0.0
H1228 H 0.71287 0.73091 0.10149 0.0
H1229 H 0.75604 0.69567 0.144 0.0
H1230 H 0.7639 0.67032 0.11337 0.0
H1231 H 0.7584 0.65805 0.07451 0.0
H1232 H 0.71449 0.69292 0.03238 0.0
H1233 H 0.70682 0.71828 0.06297 0.0
C1234 C 0.72379 0.71753 0.10415 0.0
C1235 C 0.73384 0.71523 0.12503 0.0
C1236 C 0.72811 0.7029 0.08653 0.0
C1237 C 0.74829 0.69802 0.12803 0.0
C1238 C 0.7527 0.68342 0.11055 0.0
C1239 C 0.74715 0.67119 0.07201 0.0
C1240 C 0.73706 0.67356 0.05115 0.0
C1241 C 0.74273 0.68573 0.08972 0.0
C1242 C 0.72249 0.69067 0.04825 0.0
C1243 C 0.71808 0.70522 0.06573 0.0
H1244 H 0.94924 0.04385 0.12876 0.0
H1245 H 0.00549 0.01803 0.16184 0.0
H1246 H 0.98412 0.01394 0.196 0.0
H1247 H 0.9495 0.01809 0.21647 0.0
H1248 H 0.89241 0.04153 0.18264 0.0
H1249 H 0.91394 0.04614 0.14872 0.0
C1250 C 0.95671 0.03734 0.1435 0.0
C1251 C 0.97884 0.03135 0.14298 0.0
C1252 C 0.94419 0.03462 0.16287 0.0
C1253 C 0.98842 0.02268 0.16198 0.0
C1254 C 0.97625 0.0204 0.18147 0.0
C1255 C 0.9418 0.02424 0.20167 0.0
C1256 C 0.91947 0.02963 0.20207 0.0
C1257 C 0.95414 0.02639 0.18212 0.0
C1258 C 0.90959 0.03725 0.1827 0.0
C1259 C 0.92189 0.03994 0.16333 0.0
H1260 H 0.23776 0.77574 0.11206 0.0
H1261 H 0.29368 0.81618 0.13525 0.0
H1262 H 0.28887 0.84104 0.10451 0.0
H1263 H 0.26922 0.85098 0.07066 0.0
H1264 H 0.21352 0.8103 0.04721 0.0
H1265 H 0.21797 0.78579 0.07828 0.0
C1266 C 0.24898 0.78991 0.1103 0.0
C1267 C 0.26604 0.79407 0.12597 0.0
C1268 C 0.2462 0.80409 0.0925 0.0
C1269 C 0.28023 0.81272 0.12361 0.0
C1270 C 0.27758 0.82688 0.10595 0.0
C1271 C 0.25801 0.83678 0.07235 0.0
C1272 C 0.24108 0.83251 0.05657 0.0
C1273 C 0.26065 0.82271 0.09027 0.0
C1274 C 0.22672 0.81402 0.05907 0.0
C1275 C 0.22924 0.79996 0.07685 0.0
H1276 H 0.02542 0.46331 0.15641 0.0
H1277 H 0.0705 0.50568 0.12023 0.0
H1278 H 0.0953 0.50862 0.15232 0.0
H1279 H 0.10404 0.49951 0.19075 0.0
H1280 H 0.05872 0.45759 0.22723 0.0
H1281 H 0.03411 0.4543 0.19499 0.0
C1282 C 0.04057 0.47336 0.15562 0.0
C1283 C 0.04608 0.48424 0.13592 0.0
C1284 C 0.05473 0.47505 0.17418 0.0
C1285 C 0.06597 0.49691 0.13507 0.0
C1286 C 0.08012 0.49869 0.15346 0.0
C1287 C 0.08881 0.48959 0.19166 0.0
C1288 C 0.08327 0.47881 0.21141 0.0
C1289 C 0.07468 0.48783 0.17309 0.0
C1290 C 0.06343 0.46608 0.21226 0.0
C1291 C 0.04931 0.46419 0.19383 0.0
H1292 H 0.38292 0.71933 0.30221 0.0
H1293 H 0.38407 0.7838 0.27362 0.0
H1294 H 0.41549 0.79527 0.29707 0.0
H1295 H 0.44289 0.78707 0.32546 0.0
H1296 H 0.44324 0.72212 0.35266 0.0
H1297 H 0.41128 0.71069 0.32966 0.0
C1298 C 0.39018 0.73581 0.30088 0.0
C1299 C 0.38091 0.75068 0.28622 0.0
C1300 C 0.40859 0.74224 0.31413 0.0
C1301 C 0.39045 0.77209 0.28504 0.0
C1302 C 0.40858 0.77865 0.29834 0.0
C1303 C 0.43596 0.77042 0.3264 0.0
C1304 C 0.44539 0.75552 0.34083 0.0
C1305 C 0.41775 0.76389 0.31297 0.0
C1306 C 0.43632 0.73393 0.34168 0.0
C1307 C 0.41801 0.72739 0.32855 0.0
H1308 H 0.97537 0.363 0.97562 0.0
H1309 H 0.01882 0.40701 0.93949 0.0
H1310 H 0.02728 0.37719 0.91351 0.0
H1311 H 0.02231 0.33861 0.90106 0.0
H1312 H 0.97876 0.29465 0.93727 0.0
H1313 H 0.97025 0.3245 0.96307 0.0
C1314 C 0.98652 0.36611 0.96193 0.0
C1315 C 0.99642 0.3872 0.95949 0.0
C1316 C 0.99132 0.34889 0.94707 0.0
C1317 C 0.01113 0.39087 0.94187 0.0
C1318 C 0.01591 0.37385 0.92695 0.0
C1319 C 0.01096 0.33553 0.91458 0.0
C1320 C 1.00121 0.31439 0.91718 0.0
C1321 C 0.00613 0.35278 0.92942 0.0
C1322 C 0.98654 0.31074 0.93485 0.0
C1323 C 0.98163 0.32781 0.94963 0.0
H1324 H 0.62654 0.76715 0.30452 0.0
H1325 H 0.59304 0.79984 0.25198 0.0
H1326 H 0.55835 0.79642 0.27216 0.0
H1327 H 0.53751 0.78433 0.30473 0.0
H1328 H 0.5711 0.75253 0.35782 0.0
H1329 H 0.6058 0.7557 0.33753 0.0
C1330 C 0.61171 0.77374 0.29759 0.0
C1331 C 0.61244 0.78366 0.2767 0.0
C1332 C 0.59181 0.7719 0.30938 0.0
C1333 C 0.59294 0.79181 0.26785 0.0
C1334 C 0.57309 0.78999 0.27944 0.0
C1335 C 0.5524 0.77805 0.31188 0.0
C1336 C 0.55165 0.76817 0.33276 0.0
C1337 C 0.57233 0.78002 0.30018 0.0
C1338 C 0.57117 0.76022 0.34178 0.0
C1339 C 0.59104 0.76202 0.33019 0.0
H1340 H 0.00974 0.11608 0.94595 0.0
H1341 H 0.04245 0.16026 0.99378 0.0
H1342 H 0.03623 0.19126 0.96992 0.0
H1343 H 0.02158 0.20592 0.93554 0.0
H1344 H 0.9896 0.16181 0.88716 0.0
H1345 H 0.99574 0.13071 0.91105 0.0
C1346 C 0.01571 0.13245 0.95105 0.0
C1347 C 0.02645 0.1358 0.97172 0.0
C1348 C 0.01223 0.15025 0.93715 0.0
C1349 C 0.03381 0.15721 0.97816 0.0
C1350 C 0.03038 0.17496 0.96446 0.0
C1351 C 0.01592 0.18951 0.93019 0.0
C1352 C 0.0051 0.18625 0.90958 0.0
C1353 C 0.01956 0.17169 0.94396 0.0
C1354 C 0.99798 0.16483 0.90292 0.0
C1355 C 0.00147 0.14702 0.91658 0.0
H1356 H 0.38847 0.2939 0.20085 0.0
H1357 H 0.40095 0.24333 0.24787 0.0
H1358 H 0.43248 0.23188 0.22615 0.0
H1359 H 0.45667 0.23625 0.19393 0.0
H1360 H 0.44408 0.28658 0.14664 0.0
H1361 H 0.41233 0.29785 0.16817 0.0
C1362 C 0.39796 0.28025 0.20624 0.0
C1363 C 0.39239 0.2696 0.22605 0.0
C1364 C 0.41607 0.27365 0.1936 0.0
C1365 C 0.40507 0.25208 0.2329 0.0
C1366 C 0.42304 0.24542 0.22041 0.0
C1367 C 0.44697 0.24966 0.18828 0.0
C1368 C 0.45281 0.26052 0.16868 0.0
C1369 C 0.42875 0.25612 0.20078 0.0
C1370 C 0.44001 0.27788 0.16165 0.0
C1371 C 0.42183 0.28437 0.17397 0.0
H1372 H 0.50932 0.3903 0.05109 0.0
H1373 H 0.54761 0.34997 0.0074 0.0
H1374 H 0.54318 0.31922 0.03264 0.0
H1375 H 0.52802 0.30367 0.06691 0.0
H1376 H 0.49008 0.34428 0.1108 0.0
H1377 H 0.49471 0.37495 0.08566 0.0
C1378 C 0.51656 0.37472 0.04705 0.0
C1379 C 0.52871 0.37239 0.02739 0.0
C1380 C 0.51402 0.35716 0.06167 0.0
C1381 C 0.53832 0.35223 0.02253 0.0
C1382 C 0.53572 0.33462 0.0369 0.0
C1383 C 0.52078 0.31923 0.071 0.0
C1384 C 0.50867 0.32161 0.09071 0.0
C1385 C 0.52357 0.33689 0.05651 0.0
C1386 C 0.4995 0.34195 0.09577 0.0
C1387 C 0.5021 0.35953 0.08138 0.0
H1388 H 0.62115 0.2302 0.20428 0.0
H1389 H 0.6044 0.28038 0.25225 0.0
H1390 H 0.57244 0.28931 0.22986 0.0
H1391 H 0.54919 0.28294 0.19666 0.0
H1392 H 0.56564 0.23247 0.14884 0.0
H1393 H 0.59757 0.22349 0.17126 0.0
C1394 C 0.61039 0.24295 0.20994 0.0
C1395 C 0.61525 0.25464 0.22989 0.0
C1396 C 0.59195 0.24798 0.197 0.0
C1397 C 0.60126 0.27132 0.23681 0.0
C1398 C 0.58289 0.27637 0.22407 0.0
C1399 C 0.55975 0.26998 0.19111 0.0
C1400 C 0.55499 0.25845 0.17105 0.0
C1401 C 0.57811 0.26486 0.2041 0.0
C1402 C 0.56888 0.24167 0.16418 0.0
C1403 C 0.58717 0.23649 0.17701 0.0
H1404 H 0.49729 0.11888 0.05949 0.0
H1405 H 0.47142 0.15749 0.00679 0.0
H1406 H 0.4759 0.19068 0.03011 0.0
H1407 H 0.4869 0.20875 0.06562 0.0
H1408 H 0.51189 0.16979 0.11853 0.0
H1409 H 0.5076 0.13674 0.09509 0.0
C1410 C 0.49239 0.1345 0.05316 0.0
C1411 C 0.48405 0.13562 0.03137 0.0
C1412 C 0.49477 0.1535 0.06673 0.0
C1413 C 0.47819 0.15614 0.02336 0.0
C1414 C 0.4806 0.17513 0.03675 0.0
C1415 C 0.49137 0.19303 0.07205 0.0
C1416 C 0.49971 0.19181 0.09383 0.0
C1417 C 0.48886 0.17401 0.05847 0.0
C1418 C 0.50541 0.17127 0.10186 0.0
C1419 C 0.50299 0.15232 0.08845 0.0
H1420 H 0.3021 0.38731 0.70406 0.0
H1421 H 0.25782 0.40965 0.75485 0.0
H1422 H 0.28151 0.44253 0.76146 0.0
H1423 H 0.31497 0.46477 0.75312 0.0
H1424 H 0.35968 0.44207 0.70287 0.0
H1425 H 0.33578 0.40938 0.69599 0.0
C1426 C 0.29774 0.39926 0.71673 0.0
C1427 C 0.27818 0.39599 0.72891 0.0
C1428 C 0.31153 0.41806 0.72058 0.0
C1429 C 0.27261 0.41186 0.74501 0.0
C1430 C 0.28622 0.43062 0.7489 0.0
C1431 C 0.31951 0.45269 0.74065 0.0
C1432 C 0.33911 0.45591 0.72854 0.0
C1433 C 0.30572 0.43389 0.73679 0.0
C1434 C 0.34471 0.44004 0.71245 0.0
C1435 C 0.33104 0.42132 0.70849 0.0
H1436 H 0.25709 0.60901 0.79041 0.0
H1437 H 0.30204 0.65163 0.75439 0.0
H1438 H 0.32712 0.62155 0.7492 0.0
H1439 H 0.33622 0.58306 0.75476 0.0
H1440 H 0.29112 0.54052 0.7908 0.0
H1441 H 0.26613 0.57058 0.79591 0.0
C1442 C 0.27228 0.61166 0.78124 0.0
C1443 C 0.27765 0.63253 0.77278 0.0
C1444 C 0.28662 0.5943 0.77832 0.0
C1445 C 0.2976 0.63579 0.76127 0.0
C1446 C 0.31191 0.61856 0.75821 0.0
C1447 C 0.32093 0.58035 0.76373 0.0
C1448 C 0.31559 0.55952 0.77235 0.0
C1449 C 0.3066 0.59775 0.76667 0.0
C1450 C 0.2957 0.55635 0.78398 0.0
C1451 C 0.28136 0.57355 0.78691 0.0
H1452 H 0.88809 0.45362 0.51352 0.0
H1453 H 0.85195 0.4835 0.46096 0.0
H1454 H 0.81882 0.46162 0.47041 0.0
H1455 H 0.79981 0.43468 0.49422 0.0
H1456 H 0.83585 0.40565 0.54742 0.0
H1457 H 0.86915 0.42682 0.53731 0.0
C1458 C 0.87293 0.4555 0.50423 0.0
C1459 C 0.87257 0.47024 0.48656 0.0
C1460 C 0.85384 0.44311 0.50995 0.0
C1461 C 0.85284 0.4721 0.47444 0.0
C1462 C 0.83381 0.45971 0.47995 0.0
C1463 C 0.81494 0.43298 0.50362 0.0
C1464 C 0.81526 0.41861 0.52161 0.0
C1465 C 0.83409 0.44525 0.49775 0.0
C1466 C 0.83506 0.4166 0.53355 0.0
C1467 C 0.85415 0.4287 0.52777 0.0
H1468 H 0.72669 0.88249 0.75555 0.0
H1469 H 0.69874 0.85574 0.81537 0.0
H1470 H 0.6708 0.88351 0.81559 0.0
H1471 H 0.65483 0.916 0.79936 0.0
H1472 H 0.68301 0.94295 0.73969 0.0
H1473 H 0.71035 0.91464 0.73898 0.0
C1474 C 0.71455 0.88281 0.7687 0.0
C1475 C 0.71484 0.86703 0.78541 0.0
C1476 C 0.69857 0.89891 0.76879 0.0
C1477 C 0.69876 0.8675 0.80214 0.0
C1478 C 0.68284 0.88347 0.80236 0.0
C1479 C 0.6669 0.91566 0.78616 0.0
C1480 C 0.66685 0.93166 0.76965 0.0
C1481 C 0.68264 0.89932 0.78583 0.0
C1482 C 0.68262 0.93089 0.75264 0.0
C1483 C 0.69831 0.9147 0.75222 0.0
H1484 H 0.64767 0.52703 0.99347 0.0
H1485 H 0.62209 0.56159 0.93775 0.0
H1486 H 0.65235 0.58917 0.94132 0.0
H1487 H 0.68612 0.60339 0.96013 0.0
H1488 H 0.71188 0.5688 0.01581 0.0
H1489 H 0.68139 0.54145 0.01251 0.0
C1490 C 0.64863 0.54071 0.98225 0.0
C1491 C 0.63268 0.54223 0.96536 0.0
C1492 C 0.6661 0.55651 0.98437 0.0
C1493 C 0.63431 0.55989 0.95073 0.0
C1494 C 0.65154 0.57573 0.95282 0.0
C1495 C 0.68508 0.5899 0.97158 0.0
C1496 C 0.70129 0.58818 0.98818 0.0
C1497 C 0.66756 0.57417 0.96954 0.0
C1498 C 0.69966 0.57054 0.00284 0.0
C1499 C 0.68222 0.55488 0.00098 0.0
H1500 H 0.1963 0.62879 0.20951 0.0
H1501 H 0.24339 0.6096 0.25878 0.0
H1502 H 0.22081 0.57645 0.26589 0.0
H1503 H 0.18737 0.55312 0.25859 0.0
H1504 H 0.13967 0.57319 0.21034 0.0
H1505 H 0.16263 0.60593 0.20273 0.0
C1506 C 0.20155 0.61751 0.222 0.0
C1507 C 0.22158 0.62177 0.23354 0.0
C1508 C 0.18832 0.59863 0.22628 0.0
C1509 C 0.22824 0.60666 0.24936 0.0
C1510 C 0.21525 0.58774 0.25358 0.0
C1511 C 0.182 0.56464 0.24639 0.0
C1512 C 0.16181 0.56066 0.23505 0.0
C1513 C 0.19524 0.58357 0.24216 0.0
C1514 C 0.15509 0.57583 0.21936 0.0
C1515 C 0.16823 0.59458 0.21496 0.0
H1516 H 0.87065 0.52619 0.9958 0.0
H1517 H 0.88792 0.56149 0.05672 0.0
H1518 H 0.85616 0.58449 0.05225 0.0
H1519 H 0.82339 0.59453 0.03106 0.0
H1520 H 0.80633 0.55919 0.97005 0.0
H1521 H 0.83825 0.53651 0.9744 0.0
C1522 C 0.8676 0.53906 0.00798 0.0
C1523 C 0.88167 0.54208 0.02657 0.0
C1524 C 0.84935 0.55227 0.00529 0.0
C1525 C 0.87723 0.55862 0.04239 0.0
C1526 C 0.85913 0.57187 0.03979 0.0
C1527 C 0.82668 0.58191 0.01868 0.0
C1528 C 0.81244 0.5786 1.00026 0.0
C1529 C 0.84505 0.56881 0.02132 0.0
C1530 C 0.81696 0.56212 0.98441 0.0
C1531 C 0.83523 0.54911 0.98688 0.0
H1532 H 0.11837 0.95323 0.00883 0.0
H1533 H 0.1618 0.99672 0.04804 0.0
H1534 H 0.19184 0.97152 0.04306 0.0
H1535 H 0.20578 0.93715 0.02752 0.0
H1536 H 0.16223 0.8937 0.98827 0.0
H1537 H 0.13233 0.91897 0.99316 0.0
C1538 C 0.13447 0.9573 0.01609 0.0
C1539 C 0.13783 0.97685 0.02875 0.0
C1540 C 0.15166 0.94273 0.01318 0.0
C1541 C 0.1587 0.98168 0.03839 0.0
C1542 C 0.17592 0.96732 0.03547 0.0
C1543 C 0.18976 0.93319 0.02002 0.0
C1544 C 0.1863 0.91353 0.00753 0.0
C1545 C 0.17257 0.94778 0.02293 0.0
C1546 C 0.1654 0.90869 0.99798 0.0
C1547 C 0.14826 0.92314 0.00075 0.0
loop_
_geom_bond_atom_site_label_1
_geom_bond_atom_site_label_2
_geom_bond_distance
_geom_bond_site_symmetry_2
_ccdc_geom_bond_type
C0 C1 1.386 . S
C0 C2 1.397 . S
C0 H24 0.931 . S
C1 C0 1.386 . S
C1 C5 1.397 1_556 S
C2 C0 1.397 . S
C2 C3 1.384 1_556 S
C2 H25 0.930 . S
C3 C2 1.384 1_554 S
C3 C4 1.377 . S
C3 C6 1.481 . S
C4 C3 1.377 . S
C4 C5 1.389 . S
C4 H26 0.929 . S
C5 C1 1.397 1_554 S
C5 C4 1.389 . S
C5 H27 0.931 . S
C6 C3 1.481 . S
C6 C7 1.387 . S
C6 C11 1.390 . S
C7 C6 1.387 . S
C7 C8 1.401 . S
C7 H28 0.930 . S
C8 C7 1.401 . S
C8 C9 1.376 . S
C8 C17 1.511 . S
C9 C8 1.376 . S
C9 C10 1.392 . S
C9 H30 0.931 . S
C10 C9 1.392 . S
C10 C11 1.361 . S
C10 C12 1.500 . S
C11 C6 1.390 . S
C11 C10 1.361 . S
C11 H29 0.931 . S
C12 C10 1.500 . S
C12 C13 1.371 . S
C12 C14 1.364 . S
C13 C12 1.371 . S
C13 C23 1.386 1_455 S
C13 H31 0.931 . S
C14 C12 1.364 . S
C14 C15 1.410 1_455 S
C14 H32 0.929 . S
C15 C14 1.410 1_655 S
C15 C16 1.380 . S
C15 H33 0.930 . S
C16 C15 1.380 . S
C16 C23 1.357 . S
C17 C8 1.511 . S
C17 C18 1.341 . S
C17 C19 1.371 . S
C18 C17 1.341 . S
C18 C22 1.420 . S
C18 H34 0.930 . S
C19 C17 1.371 . S
C19 C20 1.392 1_545 S
C19 H35 0.931 . S
C20 C19 1.392 1_565 S
C20 C21 1.331 . S
C20 H38 0.932 . S
C21 C20 1.331 . S
C21 C22 1.312 1_565 S
C22 C18 1.420 . S
C22 C21 1.312 1_545 S
C22 H37 0.903 1_554 S
C23 C13 1.386 1_655 S
C23 C16 1.357 . S
C23 H36 0.928 . S
H24 C0 0.931 . S
H25 C2 0.930 . S
H26 C4 0.929 . S
H27 C5 0.931 . S
H28 C7 0.930 . S
H29 C11 0.931 . S
H30 C9 0.931 . S
H31 C13 0.931 . S
H32 C14 0.929 . S
H33 C15 0.930 . S
H34 C18 0.930 . S
H35 C19 0.931 . S
H36 C23 0.928 . S
H37 C22 0.903 1_556 S
H38 C20 0.932 . S
C39 C40 1.386 . S
C39 C41 1.397 . S
C39 H63 0.931 . S
C40 C39 1.386 . S
C40 C44 1.397 . S
C41 C39 1.397 . S
C41 C42 1.384 . S
C41 H64 0.930 . S
C42 C41 1.384 . S
C42 C43 1.377 . S
C42 C45 1.481 . S
C43 C42 1.377 . S
C43 C44 1.389 . S
C43 H65 0.929 . S
C44 C40 1.397 . S
C44 C43 1.389 . S
C44 H66 0.931 . S
C45 C42 1.481 . S
C45 C46 1.387 . S
C45 C50 1.390 . S
C46 C45 1.387 . S
C46 C47 1.401 . S
C46 H67 0.930 . S
C47 C46 1.401 . S
C47 C48 1.376 . S
C47 C56 1.511 . S
C48 C47 1.376 . S
C48 C49 1.392 . S
C48 H69 0.931 . S
C49 C48 1.392 . S
C49 C50 1.361 . S
C49 C51 1.500 . S
C50 C45 1.390 . S
C50 C49 1.361 . S
C50 H68 0.931 . S
C51 C49 1.500 . S
C51 C52 1.371 . S
C51 C53 1.365 . S
C52 C51 1.371 . S
C52 C62 1.386 . S
C52 H70 0.931 . S
C53 C51 1.365 . S
C53 C54 1.409 . S
C53 H71 0.929 . S
C54 C53 1.409 . S
C54 C55 1.380 . S
C54 H72 0.930 . S
C55 C54 1.380 . S
C55 C62 1.357 . S
C56 C47 1.511 . S
C56 C57 1.341 . S
C56 C58 1.371 . S
C57 C56 1.341 . S
C57 C61 1.394 . S
C57 H73 0.930 . S
C58 C56 1.371 . S
C58 C59 1.392 . S
C58 H74 0.931 . S
C59 C58 1.392 . S
C59 C60 1.331 . S
C59 H77 0.932 . S
C60 C59 1.331 . S
C60 C61 1.336 . S
C61 C57 1.394 . S
C61 C60 1.336 . S
C61 H76 0.929 . S
C62 C52 1.386 . S
C62 C55 1.357 . S
C62 H75 0.928 . S
H63 C39 0.931 . S
H64 C41 0.930 . S
H65 C43 0.929 . S
H66 C44 0.931 . S
H67 C46 0.930 . S
H68 C50 0.931 . S
H69 C48 0.931 . S
H70 C52 0.931 . S
H71 C53 0.929 . S
H72 C54 0.930 . S
H73 C57 0.930 . S
H74 C58 0.931 . S
H75 C62 0.928 . S
H76 C61 0.929 . S
H77 C59 0.932 . S
C78 C79 1.428 . S
C78 C80 1.372 1_455 S
C78 H102 0.915 1_455 S
C79 C78 1.428 . S
C79 C83 1.397 . S
C80 C78 1.372 1_655 S
C80 C81 1.384 . S
C80 H103 0.930 . S
C81 C80 1.384 . S
C81 C82 1.377 1_655 S
C81 C84 1.481 . S
C82 C81 1.377 1_455 S
C82 C83 1.389 . S
C82 H104 0.929 . S
C83 C79 1.397 . S
C83 C82 1.389 . S
C83 H105 0.931 . S
C84 C81 1.481 . S
C84 C85 1.387 . S
C84 C89 1.390 . S
C85 C84 1.387 . S
C85 C86 1.401 . S
C85 H106 0.930 . S
C86 C85 1.401 . S
C86 C87 1.376 . S
C86 C95 1.511 . S
C87 C86 1.376 . S
C87 C88 1.392 . S
C87 H108 0.931 . S
C88 C87 1.392 . S
C88 C89 1.361 . S
C88 C90 1.500 . S
C89 C84 1.390 . S
C89 C88 1.361 . S
C89 H107 0.931 . S
C90 C88 1.500 . S
C90 C91 1.371 1_554 S
C90 C92 1.365 . S
C91 C90 1.371 1_556 S
C91 C101 1.386 . S
C91 H109 0.931 . S
C92 C90 1.365 . S
C92 C93 1.409 1_554 S
C92 H110 0.929 1_655 S
C93 C92 1.409 1_556 S
C93 C94 1.380 . S
C93 H111 0.930 1_655 S
C94 C93 1.380 . S
C94 C101 1.357 . S
C95 C86 1.511 . S
C95 C96 1.341 . S
C95 C97 1.371 . S
C96 C95 1.341 . S
C96 C100 1.394 . S
C96 H112 0.930 . S
C97 C95 1.371 . S
C97 C98 1.392 . S
C97 H113 0.931 1_554 S
C98 C97 1.392 . S
C98 C99 1.331 . S
C98 H116 0.932 1_554 S
C99 C98 1.331 . S
C99 C100 1.336 . S
C100 C96 1.394 . S
C100 C99 1.336 . S
C100 H115 0.929 . S
C101 C91 1.386 . S
C101 C94 1.357 . S
C101 H114 0.928 . S
H102 C78 0.915 1_655 S
H103 C80 0.930 . S
H104 C82 0.929 . S
H105 C83 0.931 . S
H106 C85 0.930 . S
H107 C89 0.931 . S
H108 C87 0.931 . S
H109 C91 0.931 . S
H110 C92 0.929 1_455 S
H111 C93 0.930 1_455 S
H112 C96 0.930 . S
H113 C97 0.931 1_556 S
H114 C101 0.928 . S
H115 C100 0.929 . S
H116 C98 0.932 1_556 S
C117 C118 1.386 . S
C117 C119 1.397 . S
C117 H141 0.931 . S
C118 C117 1.386 . S
C118 C122 1.397 . S
C119 C117 1.397 . S
C119 C120 1.384 . S
C119 H142 0.930 . S
C120 C119 1.384 . S
C120 C121 1.377 . S
C120 C123 1.481 . S
C121 C120 1.377 . S
C121 C122 1.389 . S
C121 H143 0.929 . S
C122 C118 1.397 . S
C122 C121 1.389 . S
C122 H144 0.931 . S
C123 C120 1.481 . S
C123 C124 1.387 . S
C123 C128 1.390 . S
C124 C123 1.387 . S
C124 C125 1.401 . S
C124 H145 0.930 . S
C125 C124 1.401 . S
C125 C126 1.376 . S
C125 C134 1.511 . S
C126 C125 1.376 . S
C126 C127 1.392 . S
C126 H147 0.931 . S
C127 C126 1.392 . S
C127 C128 1.361 . S
C127 C129 1.500 . S
C128 C123 1.390 . S
C128 C127 1.361 . S
C128 H146 0.931 . S
C129 C127 1.500 . S
C129 C130 1.371 . S
C129 C131 1.365 . S
C130 C129 1.371 . S
C130 C140 1.386 . S
C130 H148 0.931 . S
C131 C129 1.365 . S
C131 C132 1.409 . S
C131 H149 0.929 . S
C132 C131 1.409 . S
C132 C133 1.380 . S
C132 H150 0.930 . S
C133 C132 1.380 . S
C133 C140 1.357 . S
C134 C125 1.511 . S
C134 C135 1.341 . S
C134 C136 1.371 . S
C135 C134 1.341 . S
C135 C139 1.394 . S
C135 H151 0.930 . S
C136 C134 1.371 . S
C136 C137 1.392 . S
C136 H152 0.931 . S
C137 C136 1.392 . S
C137 C138 1.331 . S
C137 H155 0.932 . S
C138 C137 1.331 . S
C138 C139 1.336 . S
C139 C135 1.394 . S
C139 C138 1.336 . S
C139 H154 0.929 . S
C140 C130 1.386 . S
C140 C133 1.357 . S
C140 H153 0.928 . S
H141 C117 0.931 . S
H142 C119 0.930 . S
H143 C121 0.929 . S
H144 C122 0.931 . S
H145 C124 0.930 . S
H146 C128 0.931 . S
H147 C126 0.931 . S
H148 C130 0.931 . S
H149 C131 0.929 . S
H150 C132 0.930 . S
H151 C135 0.930 . S
H152 C136 0.931 . S
H153 C140 0.928 . S
H154 C139 0.929 . S
H155 C137 0.932 . S
C156 C157 1.386 . S
C156 C158 1.397 . S
C156 H180 0.931 . S
C157 C156 1.386 . S
C157 C161 1.397 1_655 S
C158 C156 1.397 . S
C158 C159 1.384 1_655 S
C158 H181 0.930 . S
C159 C158 1.384 1_455 S
C159 C160 1.377 . S
C159 C162 1.481 . S
C160 C159 1.377 . S
C160 C161 1.389 . S
C160 H182 0.929 . S
C161 C157 1.397 1_455 S
C161 C160 1.389 . S
C161 H183 0.931 . S
C162 C159 1.481 . S
C162 C163 1.387 . S
C162 C167 1.390 . S
C163 C162 1.387 . S
C163 C164 1.401 . S
C163 H184 0.930 . S
C164 C163 1.401 . S
C164 C165 1.376 . S
C164 C173 1.511 . S
C165 C164 1.376 . S
C165 C166 1.392 . S
C165 H186 0.931 . S
C166 C165 1.392 . S
C166 C167 1.361 . S
C166 C168 1.500 1_565 S
C167 C162 1.390 . S
C167 C166 1.361 . S
C167 H185 0.931 1_565 S
C168 C166 1.500 1_545 S
C168 C169 1.371 . S
C168 C170 1.365 . S
C169 C168 1.371 . S
C169 C179 1.386 . S
C169 H187 0.933 . S
C170 C168 1.365 . S
C170 C171 1.409 . S
C170 H188 0.929 . S
C171 C170 1.409 . S
C171 C172 1.380 . S
C171 H189 0.930 . S
C172 C171 1.380 . S
C172 C179 1.357 . S
C173 C164 1.511 . S
C173 C174 1.341 . S
C173 C175 1.371 . S
C174 C173 1.341 . S
C174 C178 1.394 . S
C174 H190 0.951 . S
C175 C173 1.371 . S
C175 C176 1.392 . S
C175 H191 0.931 . S
C176 C175 1.392 . S
C176 C177 1.331 . S
C176 H194 0.932 . S
C177 C176 1.331 . S
C177 C178 1.336 . S
C178 C174 1.394 . S
C178 C177 1.336 . S
C178 H193 0.929 1_455 S
C179 C169 1.386 . S
C179 C172 1.357 . S
C179 H192 0.928 . S
H180 C156 0.931 . S
H181 C158 0.930 . S
H182 C160 0.929 . S
H183 C161 0.931 . S
H184 C163 0.930 . S
H185 C167 0.931 1_545 S
H186 C165 0.931 . S
H187 C169 0.933 . S
H188 C170 0.929 . S
H189 C171 0.930 . S
H190 C174 0.951 . S
H191 C175 0.931 . S
H192 C179 0.928 . S
H193 C178 0.929 1_655 S
H194 C176 0.932 . S
C195 C196 1.386 . S
C195 C197 1.397 . S
C195 H219 0.931 . S
C196 C195 1.386 . S
C196 C200 1.397 . S
C197 C195 1.397 . S
C197 C198 1.384 . S
C197 H220 0.930 . S
C198 C197 1.384 . S
C198 C199 1.377 . S
C198 C201 1.481 . S
C199 C198 1.377 . S
C199 C200 1.389 . S
C199 H221 0.929 . S
C200 C196 1.397 . S
C200 C199 1.389 . S
C200 H222 0.931 . S
C201 C198 1.481 . S
C201 C202 1.387 . S
C201 C206 1.390 . S
C202 C201 1.387 . S
C202 C203 1.401 . S
C202 H223 0.930 . S
C203 C202 1.401 . S
C203 C204 1.376 . S
C203 C212 1.511 . S
C204 C203 1.376 . S
C204 C205 1.392 . S
C204 H225 0.931 . S
C205 C204 1.392 . S
C205 C206 1.361 . S
C205 C207 1.500 . S
C206 C201 1.390 . S
C206 C205 1.361 . S
C206 H224 0.931 . S
C207 C205 1.500 . S
C207 C208 1.371 . S
C207 C209 1.365 . S
C208 C207 1.371 . S
C208 C218 1.386 . S
C208 H226 0.931 . S
C209 C207 1.365 . S
C209 C210 1.409 . S
C209 H227 0.929 . S
C210 C209 1.409 . S
C210 C211 1.380 . S
C210 H228 0.930 . S
C211 C210 1.380 . S
C211 C218 1.357 . S
C212 C203 1.511 . S
C212 C213 1.341 . S
C212 C214 1.371 . S
C213 C212 1.341 . S
C213 C217 1.394 . S
C213 H229 0.930 . S
C214 C212 1.371 . S
C214 C215 1.392 . S
C214 H230 0.931 . S
C215 C214 1.392 . S
C215 C216 1.331 . S
C215 H233 0.932 . S
C216 C215 1.331 . S
C216 C217 1.336 . S
C217 C213 1.394 . S
C217 C216 1.336 . S
C217 H232 0.929 . S
C218 C208 1.386 . S
C218 C211 1.357 . S
C218 H231 0.928 . S
H219 C195 0.931 . S
H220 C197 0.930 . S
H221 C199 0.929 . S
H222 C200 0.931 . S
H223 C202 0.930 . S
H224 C206 0.931 . S
H225 C204 0.931 . S
H226 C208 0.931 . S
H227 C209 0.929 . S
H228 C210 0.930 . S
H229 C213 0.930 . S
H230 C214 0.931 . S
H231 C218 0.928 . S
H232 C217 0.929 . S
H233 C215 0.932 . S
C234 C235 1.386 . S
C234 C236 1.397 . S
C234 H258 0.931 . S
C235 C234 1.386 . S
C235 C239 1.397 . S
C236 C234 1.397 . S
C236 C237 1.384 . S
C236 H259 0.930 . S
C237 C236 1.384 . S
C237 C238 1.377 . S
C237 C240 1.481 . S
C238 C237 1.377 . S
C238 C239 1.389 . S
C238 H260 0.929 . S
C239 C235 1.397 . S
C239 C238 1.389 . S
C239 H261 0.931 . S
C240 C237 1.481 . S
C240 C241 1.387 . S
C240 C245 1.390 . S
C241 C240 1.387 . S
C241 C242 1.401 . S
C241 H262 0.930 . S
C242 C241 1.401 . S
C242 C243 1.376 . S
C242 C251 1.511 . S
C243 C242 1.376 . S
C243 C244 1.392 . S
C243 H264 0.931 . S
C244 C243 1.392 . S
C244 C245 1.361 . S
C244 C246 1.500 . S
C245 C240 1.390 . S
C245 C244 1.361 . S
C245 H263 0.931 . S
C246 C244 1.500 . S
C246 C247 1.371 . S
C246 C248 1.365 . S
C247 C246 1.371 . S
C247 C257 1.386 . S
C247 H265 0.931 . S
C248 C246 1.365 . S
C248 C249 1.409 . S
C248 H266 0.929 . S
C249 C248 1.409 . S
C249 C250 1.380 . S
C249 H267 0.930 . S
C250 C249 1.380 . S
C250 C257 1.357 . S
C251 C242 1.511 . S
C251 C252 1.341 1_655 S
C251 C253 1.371 . S
C252 C251 1.341 1_455 S
C252 C256 1.394 . S
C252 H268 0.930 . S
C253 C251 1.371 . S
C253 C254 1.392 1_655 S
C253 H269 0.931 . S
C254 C253 1.392 1_455 S
C254 C255 1.331 . S
C254 H272 0.932 . S
C255 C254 1.331 . S
C255 C256 1.336 . S
C256 C252 1.394 . S
C256 C255 1.336 . S
C256 H271 0.929 . S
C257 C247 1.386 . S
C257 C250 1.357 . S
C257 H270 0.928 . S
H258 C234 0.931 . S
H259 C236 0.930 . S
H260 C238 0.929 . S
H261 C239 0.931 . S
H262 C241 0.930 . S
H263 C245 0.931 . S
H264 C243 0.931 . S
H265 C247 0.931 . S
H266 C248 0.929 . S
H267 C249 0.930 . S
H268 C252 0.930 . S
H269 C253 0.931 . S
H270 C257 0.928 . S
H271 C256 0.929 . S
H272 C254 0.932 . S
C273 C274 1.386 . S
C273 C275 1.397 . S
C273 H297 0.931 . S
C274 C273 1.386 . S
C274 C278 1.397 . S
C275 C273 1.397 . S
C275 C276 1.384 . S
C275 H298 0.930 . S
C276 C275 1.384 . S
C276 C277 1.377 . S
C276 C279 1.481 . S
C277 C276 1.377 . S
C277 C278 1.389 . S
C277 H299 0.929 . S
C278 C274 1.397 . S
C278 C277 1.389 . S
C278 H300 0.931 . S
C279 C276 1.481 . S
C279 C280 1.387 . S
C279 C284 1.390 . S
C280 C279 1.387 . S
C280 C281 1.401 . S
C280 H301 0.930 . S
C281 C280 1.401 . S
C281 C282 1.376 . S
C281 C290 1.511 . S
C282 C281 1.376 . S
C282 C283 1.392 . S
C282 H303 0.931 . S
C283 C282 1.392 . S
C283 C284 1.361 . S
C283 C285 1.500 . S
C284 C279 1.390 . S
C284 C283 1.361 . S
C284 H302 0.931 . S
C285 C283 1.500 . S
C285 C286 1.371 . S
C285 C287 1.365 . S
C286 C285 1.371 . S
C286 C296 1.386 . S
C286 H304 0.931 . S
C287 C285 1.365 . S
C287 C288 1.409 . S
C287 H305 0.929 . S
C288 C287 1.409 . S
C288 C289 1.380 . S
C288 H306 0.930 . S
C289 C288 1.380 . S
C289 C296 1.357 . S
C290 C281 1.511 . S
C290 C291 1.341 . S
C290 C292 1.371 . S
C291 C290 1.341 . S
C291 C295 1.394 . S
C291 H307 0.930 . S
C292 C290 1.371 . S
C292 C293 1.392 . S
C292 H308 0.931 . S
C293 C292 1.392 . S
C293 C294 1.331 . S
C293 H311 0.932 . S
C294 C293 1.331 . S
C294 C295 1.336 . S
C295 C291 1.394 . S
C295 C294 1.336 . S
C295 H310 0.929 . S
C296 C286 1.386 . S
C296 C289 1.357 . S
C296 H309 0.928 . S
H297 C273 0.931 . S
H298 C275 0.930 . S
H299 C277 0.929 . S
H300 C278 0.931 . S
H301 C280 0.930 . S
H302 C284 0.931 . S
H303 C282 0.931 . S
H304 C286 0.931 . S
H305 C287 0.929 . S
H306 C288 0.930 . S
H307 C291 0.930 . S
H308 C292 0.931 . S
H309 C296 0.928 . S
H310 C295 0.929 . S
H311 C293 0.932 . S
C312 C313 1.386 . S
C312 C314 1.397 . S
C312 H336 0.931 . S
C313 C312 1.386 . S
C313 C317 1.397 . S
C314 C312 1.397 . S
C314 C315 1.384 . S
C314 H337 0.930 . S
C315 C314 1.384 . S
C315 C316 1.377 . S
C315 C318 1.481 . S
C316 C315 1.377 . S
C316 C317 1.389 . S
C316 H338 0.929 . S
C317 C313 1.397 . S
C317 C316 1.389 . S
C317 H339 0.931 . S
C318 C315 1.481 . S
C318 C319 1.387 . S
C318 C323 1.390 . S
C319 C318 1.387 . S
C319 C320 1.401 . S
C319 H340 0.930 . S
C320 C319 1.401 . S
C320 C321 1.376 . S
C320 C329 1.511 . S
C321 C320 1.376 . S
C321 C322 1.392 . S
C321 H342 0.931 . S
C322 C321 1.392 . S
C322 C323 1.361 . S
C322 C324 1.500 . S
C323 C318 1.390 . S
C323 C322 1.361 . S
C323 H341 0.931 . S
C324 C322 1.500 . S
C324 C325 1.371 . S
C324 C326 1.365 . S
C325 C324 1.371 . S
C325 C335 1.386 . S
C325 H343 0.931 . S
C326 C324 1.365 . S
C326 C327 1.409 . S
C326 H344 0.929 . S
C327 C326 1.409 . S
C327 C328 1.380 . S
C327 H345 0.930 . S
C328 C327 1.380 . S
C328 C335 1.357 . S
C329 C320 1.511 . S
C329 C330 1.341 . S
C329 C331 1.371 . S
C330 C329 1.341 . S
C330 C334 1.394 . S
C330 H346 0.930 . S
C331 C329 1.371 . S
C331 C332 1.392 . S
C331 H347 0.931 . S
C332 C331 1.392 . S
C332 C333 1.331 . S
C332 H350 0.932 . S
C333 C332 1.331 . S
C333 C334 1.336 . S
C334 C330 1.394 . S
C334 C333 1.336 . S
C334 H349 0.929 . S
C335 C325 1.386 . S
C335 C328 1.357 . S
C335 H348 0.928 . S
H336 C312 0.931 . S
H337 C314 0.930 . S
H338 C316 0.929 . S
H339 C317 0.931 . S
H340 C319 0.930 . S
H341 C323 0.931 . S
H342 C321 0.931 . S
H343 C325 0.931 . S
H344 C326 0.929 . S
H345 C327 0.930 . S
H346 C330 0.930 . S
H347 C331 0.931 . S
H348 C335 0.928 . S
H349 C334 0.929 . S
H350 C332 0.932 . S
C351 C352 1.386 . S
C351 C353 1.397 . S
C351 H375 0.931 . S
C352 C351 1.386 . S
C352 C356 1.397 . S
C353 C351 1.397 . S
C353 C354 1.384 . S
C353 H376 0.930 . S
C354 C353 1.384 . S
C354 C355 1.377 . S
C354 C357 1.481 . S
C355 C354 1.377 . S
C355 C356 1.389 . S
C355 H377 0.929 . S
C356 C352 1.397 . S
C356 C355 1.389 . S
C356 H378 0.931 . S
C357 C354 1.481 . S
C357 C358 1.387 . S
C357 C362 1.390 . S
C358 C357 1.387 . S
C358 C359 1.401 . S
C358 H379 0.930 . S
C359 C358 1.401 . S
C359 C360 1.376 . S
C359 C368 1.511 . S
C360 C359 1.376 . S
C360 C361 1.392 . S
C360 H381 0.931 . S
C361 C360 1.392 . S
C361 C362 1.361 . S
C361 C363 1.500 . S
C362 C357 1.390 . S
C362 C361 1.361 . S
C362 H380 0.931 . S
C363 C361 1.500 . S
C363 C364 1.371 . S
C363 C365 1.365 . S
C364 C363 1.371 . S
C364 C374 1.386 . S
C364 H382 0.931 . S
C365 C363 1.365 . S
C365 C366 1.409 . S
C365 H383 0.929 . S
C366 C365 1.409 . S
C366 C367 1.380 . S
C366 H384 0.930 . S
C367 C366 1.380 . S
C367 C374 1.357 . S
C368 C359 1.511 . S
C368 C369 1.341 1_565 S
C368 C370 1.371 . S
C369 C368 1.341 1_545 S
C369 C373 1.394 . S
C369 H385 0.930 . S
C370 C368 1.371 . S
C370 C371 1.392 1_565 S
C370 H386 0.931 . S
C371 C370 1.392 1_545 S
C371 C372 1.331 . S
C371 H389 0.932 . S
C372 C371 1.331 . S
C372 C373 1.336 . S
C373 C369 1.394 . S
C373 C372 1.336 . S
C373 H388 0.929 . S
C374 C364 1.386 . S
C374 C367 1.357 . S
C374 H387 0.928 . S
H375 C351 0.931 . S
H376 C353 0.930 . S
H377 C355 0.929 . S
H378 C356 0.931 . S
H379 C358 0.930 . S
H380 C362 0.931 . S
H381 C360 0.931 . S
H382 C364 0.931 . S
H383 C365 0.929 . S
H384 C366 0.930 . S
H385 C369 0.930 . S
H386 C370 0.931 . S
H387 C374 0.928 . S
H388 C373 0.929 . S
H389 C371 0.932 . S
C390 C391 1.386 . S
C390 C392 1.397 . S
C390 H414 0.931 . S
C391 C390 1.386 . S
C391 C395 1.397 . S
C392 C390 1.397 . S
C392 C393 1.384 . S
C392 H415 0.930 . S
C393 C392 1.384 . S
C393 C394 1.377 . S
C393 C396 1.481 . S
C394 C393 1.377 . S
C394 C395 1.389 . S
C394 H416 0.929 . S
C395 C391 1.397 . S
C395 C394 1.389 . S
C395 H417 0.931 . S
C396 C393 1.481 . S
C396 C397 1.387 . S
C396 C401 1.390 . S
C397 C396 1.387 . S
C397 C398 1.401 . S
C397 H418 0.930 . S
C398 C397 1.401 . S
C398 C399 1.376 . S
C398 C407 1.511 . S
C399 C398 1.376 . S
C399 C400 1.392 . S
C399 H420 0.931 . S
C400 C399 1.392 . S
C400 C401 1.361 . S
C400 C402 1.500 . S
C401 C396 1.390 . S
C401 C400 1.361 . S
C401 H419 0.931 . S
C402 C400 1.500 . S
C402 C403 1.371 . S
C402 C404 1.365 . S
C403 C402 1.371 . S
C403 C413 1.386 . S
C403 H421 0.931 . S
C404 C402 1.365 . S
C404 C405 1.409 . S
C404 H422 0.929 . S
C405 C404 1.409 . S
C405 C406 1.380 . S
C405 H423 0.930 . S
C406 C405 1.380 . S
C406 C413 1.357 . S
C407 C398 1.511 . S
C407 C408 1.341 . S
C407 C409 1.371 . S
C408 C407 1.341 . S
C408 C412 1.394 . S
C408 H424 0.930 . S
C409 C407 1.371 . S
C409 C410 1.392 . S
C409 H425 0.931 . S
C410 C409 1.392 . S
C410 C411 1.331 . S
C410 H428 0.932 . S
C411 C410 1.331 . S
C411 C412 1.336 . S
C412 C408 1.394 . S
C412 C411 1.336 . S
C412 H427 0.929 . S
C413 C403 1.386 . S
C413 C406 1.357 . S
C413 H426 0.928 . S
H414 C390 0.931 . S
H415 C392 0.930 . S
H416 C394 0.929 . S
H417 C395 0.931 . S
H418 C397 0.930 . S
H419 C401 0.931 . S
H420 C399 0.931 . S
H421 C403 0.931 . S
H422 C404 0.929 . S
H423 C405 0.930 . S
H424 C408 0.930 . S
H425 C409 0.931 . S
H426 C413 0.928 . S
H427 C412 0.929 . S
H428 C410 0.932 . S
C429 C430 1.386 . S
C429 C431 1.397 . S
C429 H453 0.931 . S
C430 C429 1.386 . S
C430 C434 1.397 . S
C431 C429 1.397 . S
C431 C432 1.384 . S
C431 H454 0.930 . S
C432 C431 1.384 . S
C432 C433 1.377 . S
C432 C435 1.481 . S
C433 C432 1.377 . S
C433 C434 1.389 . S
C433 H455 0.929 . S
C434 C430 1.397 . S
C434 C433 1.389 . S
C434 H456 0.931 . S
C435 C432 1.481 . S
C435 C436 1.387 . S
C435 C440 1.390 . S
C436 C435 1.387 . S
C436 C437 1.401 . S
C436 H457 0.930 . S
C437 C436 1.401 . S
C437 C438 1.376 . S
C437 C446 1.511 . S
C438 C437 1.376 . S
C438 C439 1.392 . S
C438 H459 0.931 . S
C439 C438 1.392 . S
C439 C440 1.361 . S
C439 C441 1.500 . S
C440 C435 1.390 . S
C440 C439 1.361 . S
C440 H458 0.931 . S
C441 C439 1.500 . S
C441 C442 1.371 . S
C441 C443 1.365 . S
C442 C441 1.371 . S
C442 C452 1.386 . S
C442 H460 0.931 . S
C443 C441 1.365 . S
C443 C444 1.409 . S
C443 H461 0.929 . S
C444 C443 1.409 . S
C444 C445 1.380 . S
C444 H462 0.930 . S
C445 C444 1.380 . S
C445 C452 1.357 . S
C446 C437 1.511 . S
C446 C447 1.341 . S
C446 C448 1.371 . S
C447 C446 1.341 . S
C447 C451 1.394 . S
C447 H463 0.930 . S
C448 C446 1.371 . S
C448 C449 1.392 . S
C448 H464 0.931 . S
C449 C448 1.392 . S
C449 C450 1.331 . S
C449 H467 0.932 . S
C450 C449 1.331 . S
C450 C451 1.336 . S
C451 C447 1.394 . S
C451 C450 1.336 . S
C451 H466 0.929 . S
C452 C442 1.386 . S
C452 C445 1.357 . S
C452 H465 0.928 . S
H453 C429 0.931 . S
H454 C431 0.930 . S
H455 C433 0.929 . S
H456 C434 0.931 . S
H457 C436 0.930 . S
H458 C440 0.931 . S
H459 C438 0.931 . S
H460 C442 0.931 . S
H461 C443 0.929 . S
H462 C444 0.930 . S
H463 C447 0.930 . S
H464 C448 0.931 . S
H465 C452 0.928 . S
H466 C451 0.929 . S
H467 C449 0.932 . S
C468 C469 1.386 . S
C468 C470 1.397 . S
C468 H492 0.931 . S
C469 C468 1.386 . S
C469 C473 1.397 . S
C470 C468 1.397 . S
C470 C471 1.384 . S
C470 H493 0.930 . S
C471 C470 1.384 . S
C471 C472 1.377 . S
C471 C474 1.481 . S
C472 C471 1.377 . S
C472 C473 1.389 . S
C472 H494 0.929 . S
C473 C469 1.397 . S
C473 C472 1.389 . S
C473 H495 0.931 . S
C474 C471 1.481 . S
C474 C475 1.387 . S
C474 C479 1.390 . S
C475 C474 1.387 . S
C475 C476 1.401 . S
C475 H496 0.930 . S
C476 C475 1.401 . S
C476 C477 1.376 . S
C476 C485 1.511 . S
C477 C476 1.376 . S
C477 C478 1.392 . S
C477 H498 0.931 . S
C478 C477 1.392 . S
C478 C479 1.361 . S
C478 C480 1.500 . S
C479 C474 1.390 . S
C479 C478 1.361 . S
C479 H497 0.931 . S
C480 C478 1.500 . S
C480 C481 1.371 . S
C480 C482 1.365 . S
C481 C480 1.371 . S
C481 C491 1.386 . S
C481 H499 0.931 . S
C482 C480 1.365 . S
C482 C483 1.409 . S
C482 H500 0.929 . S
C483 C482 1.409 . S
C483 C484 1.380 . S
C483 H501 0.930 . S
C484 C483 1.380 . S
C484 C491 1.357 . S
C485 C476 1.511 . S
C485 C486 1.341 . S
C485 C487 1.371 . S
C486 C485 1.341 . S
C486 C490 1.394 . S
C486 H502 0.930 . S
C487 C485 1.371 . S
C487 C488 1.392 . S
C487 H503 0.931 . S
C488 C487 1.392 . S
C488 C489 1.331 . S
C488 H506 0.932 . S
C489 C488 1.331 . S
C489 C490 1.336 . S
C490 C486 1.394 . S
C490 C489 1.336 . S
C490 H505 0.929 . S
C491 C481 1.386 . S
C491 C484 1.357 . S
C491 H504 0.928 . S
H492 C468 0.931 . S
H493 C470 0.930 . S
H494 C472 0.929 . S
H495 C473 0.931 . S
H496 C475 0.930 . S
H497 C479 0.931 . S
H498 C477 0.931 . S
H499 C481 0.931 . S
H500 C482 0.929 . S
H501 C483 0.930 . S
H502 C486 0.930 . S
H503 C487 0.931 . S
H504 C491 0.928 . S
H505 C490 0.929 . S
H506 C488 0.932 . S
C507 C508 1.386 . S
C507 C509 1.397 . S
C507 H531 0.931 . S
C508 C507 1.386 . S
C508 C512 1.397 . S
C509 C507 1.397 . S
C509 C510 1.384 . S
C509 H532 0.930 . S
C510 C509 1.384 . S
C510 C511 1.377 . S
C510 C513 1.481 . S
C511 C510 1.377 . S
C511 C512 1.389 . S
C511 H533 0.929 . S
C512 C508 1.397 . S
C512 C511 1.389 . S
C512 H534 0.931 . S
C513 C510 1.481 . S
C513 C514 1.387 . S
C513 C518 1.390 . S
C514 C513 1.387 . S
C514 C515 1.401 . S
C514 H535 0.930 . S
C515 C514 1.401 . S
C515 C516 1.376 . S
C515 C524 1.511 . S
C516 C515 1.376 . S
C516 C517 1.392 . S
C516 H537 0.931 . S
C517 C516 1.392 . S
C517 C518 1.361 . S
C517 C519 1.500 . S
C518 C513 1.390 . S
C518 C517 1.361 . S
C518 H536 0.931 . S
C519 C517 1.500 . S
C519 C520 1.371 . S
C519 C521 1.365 . S
C520 C519 1.371 . S
C520 C530 1.386 . S
C520 H538 0.942 . S
C521 C519 1.365 . S
C521 C522 1.409 . S
C521 H539 0.929 . S
C522 C521 1.409 . S
C522 C523 1.380 . S
C522 H540 0.930 . S
C523 C522 1.380 . S
C523 C530 1.357 . S
C524 C515 1.511 . S
C524 C525 1.341 . S
C524 C526 1.371 1_556 S
C525 C524 1.341 . S
C525 C529 1.394 1_556 S
C525 H541 0.930 . S
C526 C524 1.371 1_554 S
C526 C527 1.392 . S
C526 H542 0.931 . S
C527 C526 1.392 . S
C527 C528 1.331 . S
C527 H545 0.932 . S
C528 C527 1.331 . S
C528 C529 1.336 . S
C529 C525 1.394 1_554 S
C529 C528 1.336 . S
C529 H544 0.929 . S
C530 C520 1.386 . S
C530 C523 1.357 . S
C530 H543 0.928 1_556 S
H531 C507 0.931 . S
H532 C509 0.930 . S
H533 C511 0.929 . S
H534 C512 0.931 . S
H535 C514 0.930 . S
H536 C518 0.931 . S
H537 C516 0.931 . S
H538 C520 0.942 . S
H539 C521 0.929 . S
H540 C522 0.930 . S
H541 C525 0.930 . S
H542 C526 0.931 . S
H543 C530 0.928 1_554 S
H544 C529 0.929 . S
H545 C527 0.932 . S
C546 C547 1.386 . S
C546 C548 1.397 . S
C546 H570 0.931 . S
C547 C546 1.386 . S
C547 C551 1.397 . S
C548 C546 1.397 . S
C548 C549 1.384 . S
C548 H571 0.930 . S
C549 C548 1.384 . S
C549 C550 1.377 . S
C549 C552 1.481 . S
C550 C549 1.377 . S
C550 C551 1.389 . S
C550 H572 0.929 . S
C551 C547 1.397 . S
C551 C550 1.389 . S
C551 H573 0.931 . S
C552 C549 1.481 . S
C552 C553 1.387 . S
C552 C557 1.390 . S
C553 C552 1.387 . S
C553 C554 1.401 . S
C553 H574 0.930 . S
C554 C553 1.401 . S
C554 C555 1.376 . S
C554 C563 1.511 . S
C555 C554 1.376 . S
C555 C556 1.392 . S
C555 H576 0.931 . S
C556 C555 1.392 . S
C556 C557 1.361 . S
C556 C558 1.500 . S
C557 C552 1.390 . S
C557 C556 1.361 . S
C557 H575 0.931 . S
C558 C556 1.500 . S
C558 C559 1.371 . S
C558 C560 1.365 . S
C559 C558 1.371 . S
C559 C569 1.386 . S
C559 H577 0.931 . S
C560 C558 1.365 . S
C560 C561 1.409 . S
C560 H578 0.929 . S
C561 C560 1.409 . S
C561 C562 1.380 . S
C561 H579 0.930 . S
C562 C561 1.380 . S
C562 C569 1.357 . S
C563 C554 1.511 . S
C563 C564 1.341 . S
C563 C565 1.371 . S
C564 C563 1.341 . S
C564 C568 1.394 . S
C564 H580 0.930 . S
C565 C563 1.371 . S
C565 C566 1.392 . S
C565 H581 0.931 . S
C566 C565 1.392 . S
C566 C567 1.331 . S
C566 H584 0.932 . S
C567 C566 1.331 . S
C567 C568 1.336 . S
C568 C564 1.394 . S
C568 C567 1.336 . S
C568 H583 0.929 . S
C569 C559 1.386 . S
C569 C562 1.357 . S
C569 H582 0.928 . S
H570 C546 0.931 . S
H571 C548 0.930 . S
H572 C550 0.929 . S
H573 C551 0.931 . S
H574 C553 0.930 . S
H575 C557 0.931 . S
H576 C555 0.931 . S
H577 C559 0.931 . S
H578 C560 0.929 . S
H579 C561 0.930 . S
H580 C564 0.930 . S
H581 C565 0.931 . S
H582 C569 0.928 . S
H583 C568 0.929 . S
H584 C566 0.932 . S
C585 C586 1.386 . S
C585 C587 1.397 1_554 S
C585 H609 0.931 1_554 S
C586 C585 1.386 . S
C586 C590 1.397 . S
C587 C585 1.397 1_556 S
C587 C588 1.384 . S
C587 H610 0.930 . S
C588 C587 1.384 . S
C588 C589 1.377 1_556 S
C588 C591 1.481 . S
C589 C588 1.377 1_554 S
C589 C590 1.389 . S
C589 H611 0.929 . S
C590 C586 1.397 . S
C590 C589 1.389 . S
C590 H612 0.931 . S
C591 C588 1.481 . S
C591 C592 1.387 . S
C591 C596 1.390 . S
C592 C591 1.387 . S
C592 C593 1.401 . S
C592 H613 0.930 . S
C593 C592 1.401 . S
C593 C594 1.376 . S
C593 C602 1.511 . S
C594 C593 1.376 . S
C594 C595 1.392 . S
C594 H615 0.931 . S
C595 C594 1.392 . S
C595 C596 1.361 . S
C595 C597 1.500 . S
C596 C591 1.390 . S
C596 C595 1.361 . S
C596 H614 0.931 . S
C597 C595 1.500 . S
C597 C598 1.394 . S
C597 C599 1.365 . S
C598 C597 1.394 . S
C598 C608 1.358 1_545 S
C598 H616 0.938 . S
C599 C597 1.365 . S
C599 C600 1.402 1_546 S
C599 H617 0.929 1_556 S
C600 C599 1.402 1_564 S
C600 C601 1.352 1_554 S
C600 H618 0.965 . S
C601 C600 1.352 1_556 S
C601 C608 1.357 . S
C602 C593 1.511 . S
C602 C603 1.341 . S
C602 C604 1.371 . S
C603 C602 1.341 . S
C603 C607 1.394 . S
C603 H619 0.930 . S
C604 C602 1.371 . S
C604 C605 1.392 . S
C604 H620 0.931 . S
C605 C604 1.392 . S
C605 C606 1.331 . S
C605 H623 0.932 1_545 S
C606 C605 1.331 . S
C606 C607 1.336 . S
C607 C603 1.394 . S
C607 C606 1.336 . S
C607 H622 0.929 . S
C608 C598 1.358 1_565 S
C608 C601 1.357 . S
C608 H621 0.928 . S
H609 C585 0.931 1_556 S
H610 C587 0.930 . S
H611 C589 0.929 . S
H612 C590 0.931 . S
H613 C592 0.930 . S
H614 C596 0.931 . S
H615 C594 0.931 . S
H616 C598 0.938 . S
H617 C599 0.929 1_554 S
H618 C600 0.965 . S
H619 C603 0.930 . S
H620 C604 0.931 . S
H621 C608 0.928 . S
H622 C607 0.929 . S
H623 C605 0.932 1_565 S
C624 O625 1.160 1_554 S
C624 O631 1.185 . S
O625 C624 1.160 1_556 S
O626 Zn627 1.899 1_556 S
O626 C634 1.284 . S
Zn627 O626 1.899 1_554 S
Zn627 O628 2.032 . S
Zn627 O631 2.086 . S
Zn627 O636 1.977 . S
O628 Zn627 2.032 . S
O628 C632 1.278 . S
C629 O630 1.203 . S
C629 O636 1.267 . S
O630 C629 1.203 . S
O631 C624 1.185 . S
O631 Zn627 2.086 . S
C632 O628 1.278 . S
C632 O633 1.211 . S
O633 C632 1.211 . S
C634 O626 1.284 . S
C634 O635 1.273 . S
O635 C634 1.273 . S
O636 Zn627 1.977 . S
O636 C629 1.267 . S
C637 O638 1.160 . S
C637 O644 1.185 . S
O638 C637 1.160 . S
O639 Zn640 1.899 . S
O639 C647 1.284 . S
Zn640 O639 1.899 . S
Zn640 O641 2.032 . S
Zn640 O644 2.086 . S
Zn640 O649 1.977 . S
O641 Zn640 2.032 . S
O641 C645 1.278 . S
C642 O643 1.203 . S
C642 O649 1.267 . S
O643 C642 1.203 . S
O644 C637 1.185 . S
O644 Zn640 2.086 . S
C645 O641 1.278 . S
C645 O646 1.211 . S
O646 C645 1.211 . S
C647 O639 1.284 . S
C647 O648 1.273 . S
O648 C647 1.273 . S
O649 Zn640 1.977 . S
O649 C642 1.267 . S
C650 O651 1.160 1_554 S
C650 O657 1.185 . S
O651 C650 1.160 1_556 S
O652 Zn653 1.899 1_556 S
O652 C660 1.284 . S
Zn653 O652 1.899 1_554 S
Zn653 O654 2.032 1_554 S
Zn653 O657 2.086 . S
Zn653 O662 1.977 . S
O654 Zn653 2.032 1_556 S
O654 C658 1.278 . S
C655 O656 1.203 . S
C655 O662 1.267 . S
O656 C655 1.203 . S
O657 C650 1.185 . S
O657 Zn653 2.086 . S
C658 O654 1.278 . S
C658 O659 1.211 1_556 S
O659 C658 1.211 1_554 S
C660 O652 1.284 . S
C660 O661 1.273 . S
O661 C660 1.273 . S
O662 Zn653 1.977 . S
O662 C655 1.267 . S
C663 O664 1.160 . S
C663 O670 1.185 . S
O664 C663 1.160 . S
O665 Zn666 1.899 . S
O665 C673 1.284 . S
Zn666 O665 1.899 . S
Zn666 O667 2.032 1_545 S
Zn666 O670 2.086 . S
Zn666 O675 1.977 . S
O667 Zn666 2.032 1_565 S
O667 C671 1.278 . S
C668 O669 1.203 . S
C668 O675 1.267 . S
O669 C668 1.203 . S
O670 C663 1.185 . S
O670 Zn666 2.086 . S
C671 O667 1.278 . S
C671 O672 1.211 . S
O672 C671 1.211 . S
C673 O665 1.284 . S
C673 O674 1.273 1_545 S
O674 C673 1.273 1_565 S
O675 Zn666 1.977 . S
O675 C668 1.267 . S
C676 O677 1.160 . S
C676 O683 1.185 . S
O677 C676 1.160 . S
O678 Zn679 1.899 . S
O678 C686 1.284 . S
Zn679 O678 1.899 . S
Zn679 O680 2.032 . S
Zn679 O683 2.086 . S
Zn679 O688 1.977 . S
O680 Zn679 2.032 . S
O680 C684 1.278 . S
C681 O682 1.203 . S
C681 O688 1.267 . S
O682 C681 1.203 . S
O683 C676 1.185 . S
O683 Zn679 2.086 . S
C684 O680 1.278 . S
C684 O685 1.211 . S
O685 C684 1.211 . S
C686 O678 1.284 . S
C686 O687 1.273 . S
O687 C686 1.273 . S
O688 Zn679 1.977 . S
O688 C681 1.267 . S
C689 O690 1.160 . S
C689 O696 1.185 . S
O690 C689 1.160 . S
O691 Zn692 1.899 . S
O691 C699 1.284 . S
Zn692 O691 1.899 . S
Zn692 O693 2.032 . S
Zn692 O696 2.086 . S
Zn692 O701 1.977 . S
O693 Zn692 2.032 . S
O693 C697 1.278 . S
C694 O695 1.203 . S
C694 O701 1.267 . S
O695 C694 1.203 . S
O696 C689 1.185 . S
O696 Zn692 2.086 . S
C697 O693 1.278 . S
C697 O698 1.211 . S
O698 C697 1.211 . S
C699 O691 1.284 . S
C699 O700 1.273 . S
O700 C699 1.273 . S
O701 Zn692 1.977 . S
O701 C694 1.267 . S
C702 O703 1.160 . S
C702 O709 1.185 . S
O703 C702 1.160 . S
O704 Zn705 1.899 . S
O704 C712 1.284 . S
Zn705 O704 1.899 . S
Zn705 O706 2.032 . S
Zn705 O709 2.086 . S
Zn705 O714 1.977 . S
O706 Zn705 2.032 . S
O706 C710 1.278 . S
C707 O708 1.203 . S
C707 O714 1.267 . S
O708 C707 1.203 . S
O709 C702 1.185 . S
O709 Zn705 2.086 . S
C710 O706 1.278 . S
C710 O711 1.211 . S
O711 C710 1.211 . S
C712 O704 1.284 . S
C712 O713 1.273 . S
O713 C712 1.273 . S
O714 Zn705 1.977 . S
O714 C707 1.267 . S
C715 O716 1.160 . S
C715 O722 1.185 . S
O716 C715 1.160 . S
O717 Zn718 1.899 . S
O717 C725 1.284 1_565 S
Zn718 O717 1.899 . S
Zn718 O719 2.032 1_565 S
Zn718 O722 2.086 . S
Zn718 O727 1.977 . S
O719 Zn718 2.032 1_545 S
O719 C723 1.278 . S
C720 O721 1.203 1_565 S
C720 O727 1.267 . S
O721 C720 1.203 1_545 S
O722 C715 1.185 . S
O722 Zn718 2.086 . S
C723 O719 1.278 . S
C723 O724 1.211 . S
O724 C723 1.211 . S
C725 O717 1.284 1_545 S
C725 O726 1.273 . S
O726 C725 1.273 . S
O727 Zn718 1.977 . S
O727 C720 1.267 . S
C728 O729 1.160 1_455 S
C728 O735 1.185 . S
O729 C728 1.160 1_655 S
O730 Zn731 1.899 1_655 S
O730 C738 1.284 . S
Zn731 O730 1.899 1_455 S
Zn731 O732 2.032 1_455 S
Zn731 O735 2.086 . S
Zn731 O740 1.977 . S
O732 Zn731 2.032 1_655 S
O732 C736 1.276 1_655 S
C733 O734 1.203 . S
C733 O740 1.267 . S
O734 C733 1.203 . S
O735 C728 1.185 . S
O735 Zn731 2.086 . S
C736 O732 1.276 1_455 S
C736 O737 1.220 . S
O737 C736 1.220 . S
C738 O730 1.284 . S
C738 O739 1.273 . S
O739 C738 1.273 . S
O740 Zn731 1.977 . S
O740 C733 1.267 . S
C741 O742 1.160 . S
C741 O748 1.185 . S
O742 C741 1.160 . S
O743 Zn744 1.899 . S
O743 C751 1.284 . S
Zn744 O743 1.899 . S
Zn744 O745 2.032 . S
Zn744 O748 2.086 . S
Zn744 O753 1.977 . S
O745 Zn744 2.032 . S
O745 C749 1.278 . S
C746 O747 1.203 . S
C746 O753 1.267 . S
O747 C746 1.203 . S
O748 C741 1.185 . S
O748 Zn744 2.086 . S
C749 O745 1.278 . S
C749 O750 1.211 . S
O750 C749 1.211 . S
C751 O743 1.284 . S
C751 O752 1.273 . S
O752 C751 1.273 . S
O753 Zn744 1.977 . S
O753 C746 1.267 . S
C754 O755 1.160 1_455 S
C754 O761 1.185 . S
O755 C754 1.160 1_655 S
O756 Zn757 1.899 1_655 S
O756 C764 1.284 . S
Zn757 O756 1.899 1_455 S
Zn757 O758 2.032 1_455 S
Zn757 O761 2.086 . S
Zn757 O766 1.977 . S
O758 Zn757 2.032 1_655 S
O758 C762 1.277 1_655 S
C759 O760 1.203 . S
C759 O766 1.267 . S
O760 C759 1.203 . S
O761 C754 1.185 . S
O761 Zn757 2.086 . S
C762 O758 1.277 1_455 S
C762 O763 1.213 . S
O763 C762 1.213 . S
C764 O756 1.284 . S
C764 O765 1.273 . S
O765 C764 1.273 . S
O766 Zn757 1.977 . S
O766 C759 1.267 . S
C767 O768 1.160 . S
C767 O774 1.185 . S
O768 C767 1.160 . S
O769 Zn770 1.899 . S
O769 C777 1.284 . S
Zn770 O769 1.899 . S
Zn770 O771 2.032 . S
Zn770 O774 2.086 . S
Zn770 O779 1.977 . S
O771 Zn770 2.032 . S
O771 C775 1.278 . S
C772 O773 1.203 . S
C772 O779 1.267 . S
O773 C772 1.203 . S
O774 C767 1.185 . S
O774 Zn770 2.086 . S
C775 O771 1.278 . S
C775 O776 1.211 . S
O776 C775 1.211 . S
C777 O769 1.284 . S
C777 O778 1.273 . S
O778 C777 1.273 . S
O779 Zn770 1.977 . S
O779 C772 1.267 . S
H780 C786 0.930 . S
H781 C789 0.930 . S
H782 C790 0.930 . S
H783 C791 0.930 . S
H784 C794 0.930 . S
H785 C795 0.930 . S
C786 H780 0.930 . S
C786 C787 1.355 . S
C786 C788 1.415 . S
C787 C786 1.355 . S
C787 C789 1.419 . S
C788 C786 1.415 . S
C788 C793 1.425 . S
C788 C795 1.409 . S
C789 H781 0.930 . S
C789 C787 1.419 . S
C789 C790 1.362 . S
C790 H782 0.930 . S
C790 C789 1.362 . S
C790 C793 1.409 . S
C791 H783 0.930 . S
C791 C792 1.355 . S
C791 C793 1.415 . S
C792 C791 1.355 . S
C792 C794 1.419 . S
C793 C788 1.425 . S
C793 C790 1.409 . S
C793 C791 1.415 . S
C794 H784 0.930 . S
C794 C792 1.419 . S
C794 C795 1.362 . S
C795 H785 0.930 . S
C795 C788 1.409 . S
C795 C794 1.362 . S
H796 C802 0.930 . S
H797 C805 0.930 . S
H798 C806 0.930 . S
H799 C807 0.930 . S
H800 C810 0.930 . S
H801 C811 0.930 . S
C802 H796 0.930 . S
C802 C803 1.355 . S
C802 C804 1.415 . S
C803 C802 1.355 . S
C803 C805 1.419 . S
C804 C802 1.415 . S
C804 C809 1.425 . S
C804 C811 1.409 . S
C805 H797 0.930 . S
C805 C803 1.419 . S
C805 C806 1.362 . S
C806 H798 0.930 . S
C806 C805 1.362 . S
C806 C809 1.409 . S
C807 H799 0.930 . S
C807 C808 1.355 . S
C807 C809 1.415 . S
C808 C807 1.355 . S
C808 C810 1.419 . S
C809 C804 1.425 . S
C809 C806 1.409 . S
C809 C807 1.415 . S
C810 H800 0.930 . S
C810 C808 1.419 . S
C810 C811 1.362 . S
C811 H801 0.930 . S
C811 C804 1.409 . S
C811 C810 1.362 . S
H812 C818 0.930 . S
H813 C821 0.930 . S
H814 C822 0.930 . S
H815 C823 0.930 . S
H816 C826 0.930 . S
H817 C827 0.930 . S
C818 H812 0.930 . S
C818 C819 1.355 . S
C818 C820 1.415 . S
C819 C818 1.355 . S
C819 C821 1.419 . S
C820 C818 1.415 . S
C820 C825 1.425 . S
C820 C827 1.409 . S
C821 H813 0.930 . S
C821 C819 1.419 . S
C821 C822 1.362 . S
C822 H814 0.930 . S
C822 C821 1.362 . S
C822 C825 1.409 . S
C823 H815 0.930 . S
C823 C824 1.355 . S
C823 C825 1.415 . S
C824 C823 1.355 . S
C824 C826 1.419 . S
C825 C820 1.425 . S
C825 C822 1.409 . S
C825 C823 1.415 . S
C826 H816 0.930 . S
C826 C824 1.419 . S
C826 C827 1.362 . S
C827 H817 0.930 . S
C827 C820 1.409 . S
C827 C826 1.362 . S
H828 C834 0.930 . S
H829 C837 0.930 . S
H830 C838 0.930 . S
H831 C839 0.930 . S
H832 C842 0.930 . S
H833 C843 0.930 . S
C834 H828 0.930 . S
C834 C835 1.355 1_545 S
C834 C836 1.415 . S
C835 C834 1.355 1_565 S
C835 C837 1.419 . S
C836 C834 1.415 . S
C836 C841 1.425 1_545 S
C836 C843 1.409 . S
C837 H829 0.930 . S
C837 C835 1.419 . S
C837 C838 1.362 . S
C838 H830 0.930 . S
C838 C837 1.362 . S
C838 C841 1.409 . S
C839 H831 0.930 . S
C839 C840 1.355 1_565 S
C839 C841 1.415 . S
C840 C839 1.355 1_545 S
C840 C842 1.419 . S
C841 C836 1.425 1_565 S
C841 C838 1.409 . S
C841 C839 1.415 . S
C842 H832 0.930 . S
C842 C840 1.419 . S
C842 C843 1.362 . S
C843 H833 0.930 . S
C843 C836 1.409 . S
C843 C842 1.362 . S
H844 C850 0.930 . S
H845 C853 0.930 . S
H846 C854 0.930 . S
H847 C855 0.930 . S
H848 C858 0.930 . S
H849 C859 0.930 . S
C850 H844 0.930 . S
C850 C851 1.355 . S
C850 C852 1.415 . S
C851 C850 1.355 . S
C851 C853 1.419 . S
C852 C850 1.415 . S
C852 C857 1.425 . S
C852 C859 1.409 . S
C853 H845 0.930 . S
C853 C851 1.419 . S
C853 C854 1.362 . S
C854 H846 0.930 . S
C854 C853 1.362 . S
C854 C857 1.409 . S
C855 H847 0.930 . S
C855 C856 1.355 . S
C855 C857 1.415 . S
C856 C855 1.355 . S
C856 C858 1.419 . S
C857 C852 1.425 . S
C857 C854 1.409 . S
C857 C855 1.415 . S
C858 H848 0.930 . S
C858 C856 1.419 . S
C858 C859 1.362 . S
C859 H849 0.930 . S
C859 C852 1.409 . S
C859 C858 1.362 . S
H860 C866 0.930 . S
H861 C869 0.930 . S
H862 C870 0.930 . S
H863 C871 0.930 . S
H864 C874 0.930 . S
H865 C875 0.930 . S
C866 H860 0.930 . S
C866 C867 1.355 . S
C866 C868 1.415 . S
C867 C866 1.355 . S
C867 C869 1.419 . S
C868 C866 1.415 . S
C868 C873 1.425 . S
C868 C875 1.409 . S
C869 H861 0.930 . S
C869 C867 1.419 . S
C869 C870 1.362 . S
C870 H862 0.930 . S
C870 C869 1.362 . S
C870 C873 1.409 . S
C871 H863 0.930 . S
C871 C872 1.355 . S
C871 C873 1.415 . S
C872 C871 1.355 . S
C872 C874 1.419 . S
C873 C868 1.425 . S
C873 C870 1.409 . S
C873 C871 1.415 . S
C874 H864 0.930 . S
C874 C872 1.419 . S
C874 C875 1.362 . S
C875 H865 0.930 . S
C875 C868 1.409 . S
C875 C874 1.362 . S
H876 C882 0.930 . S
H877 C885 0.930 . S
H878 C886 0.930 . S
H879 C887 0.930 . S
H880 C890 0.930 . S
H881 C891 0.930 . S
C882 H876 0.930 . S
C882 C883 1.355 . S
C882 C884 1.415 . S
C883 C882 1.355 . S
C883 C885 1.419 . S
C884 C882 1.415 . S
C884 C889 1.425 . S
C884 C891 1.409 . S
C885 H877 0.930 . S
C885 C883 1.419 . S
C885 C886 1.362 . S
C886 H878 0.930 . S
C886 C885 1.362 . S
C886 C889 1.409 . S
C887 H879 0.930 . S
C887 C888 1.355 . S
C887 C889 1.415 . S
C888 C887 1.355 . S
C888 C890 1.419 . S
C889 C884 1.425 . S
C889 C886 1.409 . S
C889 C887 1.415 . S
C890 H880 0.930 . S
C890 C888 1.419 . S
C890 C891 1.362 . S
C891 H881 0.930 . S
C891 C884 1.409 . S
C891 C890 1.362 . S
H892 C898 0.930 . S
H893 C901 0.930 . S
H894 C902 0.930 . S
H895 C903 0.930 . S
H896 C906 0.930 . S
H897 C907 0.930 . S
C898 H892 0.930 . S
C898 C899 1.355 . S
C898 C900 1.415 . S
C899 C898 1.355 . S
C899 C901 1.419 1_565 S
C900 C898 1.415 . S
C900 C905 1.425 . S
C900 C907 1.409 . S
C901 H893 0.930 . S
C901 C899 1.419 1_545 S
C901 C902 1.362 . S
C902 H894 0.930 . S
C902 C901 1.362 . S
C902 C905 1.409 1_545 S
C903 H895 0.930 . S
C903 C904 1.355 1_545 S
C903 C905 1.415 1_545 S
C904 C903 1.355 1_565 S
C904 C906 1.419 . S
C905 C900 1.425 . S
C905 C902 1.409 1_565 S
C905 C903 1.415 1_565 S
C906 H896 0.930 . S
C906 C904 1.419 . S
C906 C907 1.362 . S
C907 H897 0.930 . S
C907 C900 1.409 . S
C907 C906 1.362 . S
H908 C914 0.930 . S
H909 C917 0.930 . S
H910 C918 0.930 . S
H911 C919 0.930 . S
H912 C922 0.930 . S
H913 C923 0.930 . S
C914 H908 0.930 . S
C914 C915 1.355 . S
C914 C916 1.415 . S
C915 C914 1.355 . S
C915 C917 1.419 . S
C916 C914 1.415 . S
C916 C921 1.425 . S
C916 C923 1.409 . S
C917 H909 0.930 . S
C917 C915 1.419 . S
C917 C918 1.362 . S
C918 H910 0.930 . S
C918 C917 1.362 . S
C918 C921 1.409 . S
C919 H911 0.930 . S
C919 C920 1.355 . S
C919 C921 1.415 . S
C920 C919 1.355 . S
C920 C922 1.419 . S
C921 C916 1.425 . S
C921 C918 1.409 . S
C921 C919 1.415 . S
C922 H912 0.930 . S
C922 C920 1.419 . S
C922 C923 1.362 . S
C923 H913 0.930 . S
C923 C916 1.409 . S
C923 C922 1.362 . S
H924 C930 0.930 . S
H925 C933 0.930 . S
H926 C934 0.930 . S
H927 C935 0.930 . S
H928 C938 0.930 . S
H929 C939 0.930 . S
C930 H924 0.930 . S
C930 C931 1.355 . S
C930 C932 1.415 . S
C931 C930 1.355 . S
C931 C933 1.419 . S
C932 C930 1.415 . S
C932 C937 1.425 . S
C932 C939 1.409 . S
C933 H925 0.930 . S
C933 C931 1.419 . S
C933 C934 1.362 . S
C934 H926 0.930 . S
C934 C933 1.362 . S
C934 C937 1.409 . S
C935 H927 0.930 . S
C935 C936 1.355 . S
C935 C937 1.415 . S
C936 C935 1.355 . S
C936 C938 1.419 . S
C937 C932 1.425 . S
C937 C934 1.409 . S
C937 C935 1.415 . S
C938 H928 0.930 . S
C938 C936 1.419 . S
C938 C939 1.362 . S
C939 H929 0.930 . S
C939 C932 1.409 . S
C939 C938 1.362 . S
H940 C946 0.930 . S
H941 C949 0.930 . S
H942 C950 0.930 . S
H943 C951 0.930 . S
H944 C954 0.930 . S
H945 C955 0.930 . S
C946 H940 0.930 . S
C946 C947 1.355 . S
C946 C948 1.415 . S
C947 C946 1.355 . S
C947 C949 1.419 . S
C948 C946 1.415 . S
C948 C953 1.425 . S
C948 C955 1.409 . S
C949 H941 0.930 . S
C949 C947 1.419 . S
C949 C950 1.362 . S
C950 H942 0.930 . S
C950 C949 1.362 . S
C950 C953 1.409 . S
C951 H943 0.930 . S
C951 C952 1.355 . S
C951 C953 1.415 . S
C952 C951 1.355 . S
C952 C954 1.419 . S
C953 C948 1.425 . S
C953 C950 1.409 . S
C953 C951 1.415 . S
C954 H944 0.930 . S
C954 C952 1.419 . S
C954 C955 1.362 . S
C955 H945 0.930 . S
C955 C948 1.409 . S
C955 C954 1.362 . S
H956 C962 0.930 . S
H957 C965 0.930 . S
H958 C966 0.930 . S
H959 C967 0.930 . S
H960 C970 0.930 . S
H961 C971 0.930 . S
C962 H956 0.930 . S
C962 C963 1.355 . S
C962 C964 1.415 . S
C963 C962 1.355 . S
C963 C965 1.419 . S
C964 C962 1.415 . S
C964 C969 1.425 . S
C964 C971 1.409 . S
C965 H957 0.930 . S
C965 C963 1.419 . S
C965 C966 1.362 . S
C966 H958 0.930 . S
C966 C965 1.362 . S
C966 C969 1.409 . S
C967 H959 0.930 . S
C967 C968 1.355 . S
C967 C969 1.415 . S
C968 C967 1.355 . S
C968 C970 1.419 . S
C969 C964 1.425 . S
C969 C966 1.409 . S
C969 C967 1.415 . S
C970 H960 0.930 . S
C970 C968 1.419 . S
C970 C971 1.362 . S
C971 H961 0.930 . S
C971 C964 1.409 . S
C971 C970 1.362 . S
H972 C978 0.930 . S
H973 C981 0.930 . S
H974 C982 0.930 . S
H975 C983 0.930 . S
H976 C986 0.930 . S
H977 C987 0.930 . S
C978 H972 0.930 . S
C978 C979 1.355 . S
C978 C980 1.415 . S
C979 C978 1.355 . S
C979 C981 1.419 . S
C980 C978 1.415 . S
C980 C985 1.425 . S
C980 C987 1.409 . S
C981 H973 0.930 . S
C981 C979 1.419 . S
C981 C982 1.362 . S
C982 H974 0.930 . S
C982 C981 1.362 . S
C982 C985 1.409 . S
C983 H975 0.930 . S
C983 C984 1.355 . S
C983 C985 1.415 . S
C984 C983 1.355 . S
C984 C986 1.419 . S
C985 C980 1.425 . S
C985 C982 1.409 . S
C985 C983 1.415 . S
C986 H976 0.930 . S
C986 C984 1.419 . S
C986 C987 1.362 . S
C987 H977 0.930 . S
C987 C980 1.409 . S
C987 C986 1.362 . S
H988 C994 0.930 . S
H989 C997 0.930 . S
H990 C998 0.932 . S
H991 C999 0.930 . S
H992 C1002 0.930 . S
H993 C1003 0.930 . S
C994 H988 0.930 . S
C994 C995 1.355 . S
C994 C996 1.415 . S
C995 C994 1.355 . S
C995 C997 1.419 . S
C996 C994 1.415 . S
C996 C1001 1.425 . S
C996 C1003 1.409 . S
C997 H989 0.930 . S
C997 C995 1.419 . S
C997 C998 1.362 . S
C998 H990 0.932 . S
C998 C997 1.362 . S
C998 C1001 1.409 . S
C999 H991 0.930 . S
C999 C1000 1.355 . S
C999 C1001 1.415 . S
C1000 C999 1.355 . S
C1000 C1002 1.419 . S
C1001 C996 1.425 . S
C1001 C998 1.409 . S
C1001 C999 1.415 . S
C1002 H992 0.930 . S
C1002 C1000 1.419 . S
C1002 C1003 1.362 . S
C1003 H993 0.930 . S
C1003 C996 1.409 . S
C1003 C1002 1.362 . S
H1004 C1010 0.930 . S
H1005 C1013 0.930 . S
H1006 C1014 0.930 . S
H1007 C1015 0.930 . S
H1008 C1018 0.930 . S
H1009 C1019 0.930 . S
C1010 H1004 0.930 . S
C1010 C1011 1.355 . S
C1010 C1012 1.415 . S
C1011 C1010 1.355 . S
C1011 C1013 1.419 . S
C1012 C1010 1.415 . S
C1012 C1017 1.425 . S
C1012 C1019 1.409 . S
C1013 H1005 0.930 . S
C1013 C1011 1.419 . S
C1013 C1014 1.362 . S
C1014 H1006 0.930 . S
C1014 C1013 1.362 . S
C1014 C1017 1.409 . S
C1015 H1007 0.930 . S
C1015 C1016 1.355 . S
C1015 C1017 1.415 . S
C1016 C1015 1.355 . S
C1016 C1018 1.419 . S
C1017 C1012 1.425 . S
C1017 C1014 1.409 . S
C1017 C1015 1.415 . S
C1018 H1008 0.930 . S
C1018 C1016 1.419 . S
C1018 C1019 1.362 . S
C1019 H1009 0.930 . S
C1019 C1012 1.409 . S
C1019 C1018 1.362 . S
H1020 C1026 0.930 . S
H1021 C1029 0.930 . S
H1022 C1030 0.930 . S
H1023 C1031 0.930 . S
H1024 C1034 0.930 . S
H1025 C1035 0.930 . S
C1026 H1020 0.930 . S
C1026 C1027 1.355 . S
C1026 C1028 1.415 . S
C1027 C1026 1.355 . S
C1027 C1029 1.419 . S
C1028 C1026 1.415 . S
C1028 C1033 1.425 . S
C1028 C1035 1.409 . S
C1029 H1021 0.930 . S
C1029 C1027 1.419 . S
C1029 C1030 1.362 . S
C1030 H1022 0.930 . S
C1030 C1029 1.362 . S
C1030 C1033 1.409 . S
C1031 H1023 0.930 . S
C1031 C1032 1.355 . S
C1031 C1033 1.415 . S
C1032 C1031 1.355 . S
C1032 C1034 1.419 . S
C1033 C1028 1.425 . S
C1033 C1030 1.409 . S
C1033 C1031 1.415 . S
C1034 H1024 0.930 . S
C1034 C1032 1.419 . S
C1034 C1035 1.362 . S
C1035 H1025 0.930 . S
C1035 C1028 1.409 . S
C1035 C1034 1.362 . S
H1036 C1042 0.930 . S
H1037 C1045 0.930 . S
H1038 C1046 0.930 . S
H1039 C1047 0.930 . S
H1040 C1050 0.930 . S
H1041 C1051 0.930 . S
C1042 H1036 0.930 . S
C1042 C1043 1.355 . S
C1042 C1044 1.415 . S
C1043 C1042 1.355 . S
C1043 C1045 1.419 . S
C1044 C1042 1.415 . S
C1044 C1049 1.425 . S
C1044 C1051 1.409 . S
C1045 H1037 0.930 . S
C1045 C1043 1.419 . S
C1045 C1046 1.362 . S
C1046 H1038 0.930 . S
C1046 C1045 1.362 . S
C1046 C1049 1.409 . S
C1047 H1039 0.930 . S
C1047 C1048 1.355 . S
C1047 C1049 1.415 . S
C1048 C1047 1.355 . S
C1048 C1050 1.419 . S
C1049 C1044 1.425 . S
C1049 C1046 1.409 . S
C1049 C1047 1.415 . S
C1050 H1040 0.930 . S
C1050 C1048 1.419 . S
C1050 C1051 1.362 . S
C1051 H1041 0.930 . S
C1051 C1044 1.409 . S
C1051 C1050 1.362 . S
H1052 C1058 0.930 . S
H1053 C1061 0.930 . S
H1054 C1062 0.930 . S
H1055 C1063 0.930 . S
H1056 C1066 0.930 . S
H1057 C1067 0.930 . S
C1058 H1052 0.930 . S
C1058 C1059 1.355 . S
C1058 C1060 1.415 . S
C1059 C1058 1.355 . S
C1059 C1061 1.419 . S
C1060 C1058 1.415 . S
C1060 C1065 1.425 . S
C1060 C1067 1.409 . S
C1061 H1053 0.930 . S
C1061 C1059 1.419 . S
C1061 C1062 1.362 . S
C1062 H1054 0.930 . S
C1062 C1061 1.362 . S
C1062 C1065 1.409 . S
C1063 H1055 0.930 . S
C1063 C1064 1.355 . S
C1063 C1065 1.415 . S
C1064 C1063 1.355 . S
C1064 C1066 1.419 . S
C1065 C1060 1.425 . S
C1065 C1062 1.409 . S
C1065 C1063 1.415 . S
C1066 H1056 0.930 . S
C1066 C1064 1.419 . S
C1066 C1067 1.362 . S
C1067 H1057 0.930 . S
C1067 C1060 1.409 . S
C1067 C1066 1.362 . S
H1068 C1074 0.930 . S
H1069 C1077 0.930 . S
H1070 C1078 0.930 . S
H1071 C1079 0.930 . S
H1072 C1082 0.930 . S
H1073 C1083 0.939 . S
C1074 H1068 0.930 . S
C1074 C1075 1.355 . S
C1074 C1076 1.415 . S
C1075 C1074 1.355 . S
C1075 C1077 1.419 . S
C1076 C1074 1.415 . S
C1076 C1081 1.425 . S
C1076 C1083 1.396 1_556 S
C1077 H1069 0.930 . S
C1077 C1075 1.419 . S
C1077 C1078 1.362 . S
C1078 H1070 0.930 . S
C1078 C1077 1.362 . S
C1078 C1081 1.409 . S
C1079 H1071 0.930 . S
C1079 C1080 1.355 1_556 S
C1079 C1081 1.415 . S
C1080 C1079 1.355 1_554 S
C1080 C1082 1.419 . S
C1081 C1076 1.425 . S
C1081 C1078 1.409 . S
C1081 C1079 1.415 . S
C1082 H1072 0.930 . S
C1082 C1080 1.419 . S
C1082 C1083 1.370 . S
C1083 H1073 0.939 . S
C1083 C1076 1.396 1_554 S
C1083 C1082 1.370 . S
H1084 C1090 0.930 . S
H1085 C1093 0.930 . S
H1086 C1094 0.930 . S
H1087 C1095 0.930 . S
H1088 C1098 0.930 . S
H1089 C1099 0.930 . S
C1090 H1084 0.930 . S
C1090 C1091 1.355 . S
C1090 C1092 1.415 . S
C1091 C1090 1.355 . S
C1091 C1093 1.419 . S
C1092 C1090 1.415 . S
C1092 C1097 1.425 . S
C1092 C1099 1.409 . S
C1093 H1085 0.930 . S
C1093 C1091 1.419 . S
C1093 C1094 1.362 . S
C1094 H1086 0.930 . S
C1094 C1093 1.362 . S
C1094 C1097 1.409 . S
C1095 H1087 0.930 . S
C1095 C1096 1.355 . S
C1095 C1097 1.415 . S
C1096 C1095 1.355 . S
C1096 C1098 1.419 . S
C1097 C1092 1.425 . S
C1097 C1094 1.409 . S
C1097 C1095 1.415 . S
C1098 H1088 0.930 . S
C1098 C1096 1.419 . S
C1098 C1099 1.362 . S
C1099 H1089 0.930 . S
C1099 C1092 1.409 . S
C1099 C1098 1.362 . S
H1100 C1106 0.930 . S
H1101 C1109 0.930 . S
H1102 C1110 0.930 . S
H1103 C1111 0.930 . S
H1104 C1114 0.930 . S
H1105 C1115 0.930 . S
C1106 H1100 0.930 . S
C1106 C1107 1.355 . S
C1106 C1108 1.415 . S
C1107 C1106 1.355 . S
C1107 C1109 1.419 . S
C1108 C1106 1.415 . S
C1108 C1113 1.425 . S
C1108 C1115 1.409 . S
C1109 H1101 0.930 . S
C1109 C1107 1.419 . S
C1109 C1110 1.362 . S
C1110 H1102 0.930 . S
C1110 C1109 1.362 . S
C1110 C1113 1.409 . S
C1111 H1103 0.930 . S
C1111 C1112 1.355 . S
C1111 C1113 1.415 . S
C1112 C1111 1.355 . S
C1112 C1114 1.419 . S
C1113 C1108 1.425 . S
C1113 C1110 1.409 . S
C1113 C1111 1.415 . S
C1114 H1104 0.930 . S
C1114 C1112 1.419 . S
C1114 C1115 1.362 . S
C1115 H1105 0.930 . S
C1115 C1108 1.409 . S
C1115 C1114 1.362 . S
H1116 C1122 0.930 . S
H1117 C1125 0.930 . S
H1118 C1126 0.930 . S
H1119 C1127 0.930 . S
H1120 C1130 0.930 . S
H1121 C1131 0.930 . S
C1122 H1116 0.930 . S
C1122 C1123 1.355 . S
C1122 C1124 1.415 . S
C1123 C1122 1.355 . S
C1123 C1125 1.419 . S
C1124 C1122 1.415 . S
C1124 C1129 1.425 . S
C1124 C1131 1.409 . S
C1125 H1117 0.930 . S
C1125 C1123 1.419 . S
C1125 C1126 1.362 . S
C1126 H1118 0.930 . S
C1126 C1125 1.362 . S
C1126 C1129 1.409 . S
C1127 H1119 0.930 . S
C1127 C1128 1.355 . S
C1127 C1129 1.415 . S
C1128 C1127 1.355 . S
C1128 C1130 1.419 . S
C1129 C1124 1.425 . S
C1129 C1126 1.409 . S
C1129 C1127 1.415 . S
C1130 H1120 0.930 . S
C1130 C1128 1.419 . S
C1130 C1131 1.362 . S
C1131 H1121 0.930 . S
C1131 C1124 1.409 . S
C1131 C1130 1.362 . S
H1132 C1138 0.930 . S
H1133 C1141 0.930 . S
H1134 C1142 0.930 . S
H1135 C1143 0.930 . S
H1136 C1146 0.930 . S
H1137 C1147 0.930 . S
C1138 H1132 0.930 . S
C1138 C1139 1.355 . S
C1138 C1140 1.415 . S
C1139 C1138 1.355 . S
C1139 C1141 1.419 . S
C1140 C1138 1.415 . S
C1140 C1145 1.425 . S
C1140 C1147 1.409 . S
C1141 H1133 0.930 . S
C1141 C1139 1.419 . S
C1141 C1142 1.362 . S
C1142 H1134 0.930 . S
C1142 C1141 1.362 . S
C1142 C1145 1.409 . S
C1143 H1135 0.930 . S
C1143 C1144 1.355 . S
C1143 C1145 1.415 . S
C1144 C1143 1.355 . S
C1144 C1146 1.419 . S
C1145 C1140 1.425 . S
C1145 C1142 1.409 . S
C1145 C1143 1.415 . S
C1146 H1136 0.930 . S
C1146 C1144 1.419 . S
C1146 C1147 1.362 . S
C1147 H1137 0.930 . S
C1147 C1140 1.409 . S
C1147 C1146 1.362 . S
H1148 C1154 0.930 . S
H1149 C1157 0.930 . S
H1150 C1158 0.930 . S
H1151 C1159 0.930 . S
H1152 C1162 0.930 . S
H1153 C1163 0.930 . S
C1154 H1148 0.930 . S
C1154 C1155 1.355 . S
C1154 C1156 1.415 . S
C1155 C1154 1.355 . S
C1155 C1157 1.419 . S
C1156 C1154 1.415 . S
C1156 C1161 1.425 . S
C1156 C1163 1.409 . S
C1157 H1149 0.930 . S
C1157 C1155 1.419 . S
C1157 C1158 1.362 . S
C1158 H1150 0.930 . S
C1158 C1157 1.362 . S
C1158 C1161 1.409 . S
C1159 H1151 0.930 . S
C1159 C1160 1.355 . S
C1159 C1161 1.415 . S
C1160 C1159 1.355 . S
C1160 C1162 1.419 . S
C1161 C1156 1.425 . S
C1161 C1158 1.409 . S
C1161 C1159 1.415 . S
C1162 H1152 0.930 . S
C1162 C1160 1.419 . S
C1162 C1163 1.362 . S
C1163 H1153 0.930 . S
C1163 C1156 1.409 . S
C1163 C1162 1.362 . S
H1164 C1170 0.930 . S
H1165 C1173 0.930 . S
H1166 C1174 0.930 . S
H1167 C1175 0.930 . S
H1168 C1178 0.930 . S
H1169 C1179 0.930 . S
C1170 H1164 0.930 . S
C1170 C1171 1.355 . S
C1170 C1172 1.415 . S
C1171 C1170 1.355 . S
C1171 C1173 1.419 . S
C1172 C1170 1.415 . S
C1172 C1177 1.425 . S
C1172 C1179 1.409 . S
C1173 H1165 0.930 . S
C1173 C1171 1.419 . S
C1173 C1174 1.362 . S
C1174 H1166 0.930 . S
C1174 C1173 1.362 . S
C1174 C1177 1.409 . S
C1175 H1167 0.930 . S
C1175 C1176 1.355 . S
C1175 C1177 1.415 . S
C1176 C1175 1.355 . S
C1176 C1178 1.419 . S
C1177 C1172 1.425 . S
C1177 C1174 1.409 . S
C1177 C1175 1.415 . S
C1178 H1168 0.930 . S
C1178 C1176 1.419 . S
C1178 C1179 1.362 . S
C1179 H1169 0.930 . S
C1179 C1172 1.409 . S
C1179 C1178 1.362 . S
H1180 C1186 0.930 . S
H1181 C1189 0.930 . S
H1182 C1190 0.946 . S
H1183 C1191 0.930 1_565 S
H1184 C1194 0.930 . S
H1185 C1195 0.930 . S
C1186 H1180 0.930 . S
C1186 C1187 1.355 . S
C1186 C1188 1.415 . S
C1187 C1186 1.355 . S
C1187 C1189 1.419 . S
C1188 C1186 1.415 . S
C1188 C1193 1.425 . S
C1188 C1195 1.409 . S
C1189 H1181 0.930 . S
C1189 C1187 1.419 . S
C1189 C1190 1.362 . S
C1190 H1182 0.946 . S
C1190 C1189 1.362 . S
C1190 C1193 1.409 . S
C1191 H1183 0.930 1_545 S
C1191 C1192 1.355 . S
C1191 C1193 1.415 . S
C1192 C1191 1.355 . S
C1192 C1194 1.419 . S
C1193 C1188 1.425 . S
C1193 C1190 1.409 . S
C1193 C1191 1.415 . S
C1194 H1184 0.930 . S
C1194 C1192 1.419 . S
C1194 C1195 1.362 . S
C1195 H1185 0.930 . S
C1195 C1188 1.409 . S
C1195 C1194 1.362 . S
H1196 C1202 0.930 . S
H1197 C1205 0.930 . S
H1198 C1206 0.930 . S
H1199 C1207 0.930 . S
H1200 C1210 0.930 . S
H1201 C1211 0.930 . S
C1202 H1196 0.930 . S
C1202 C1203 1.355 . S
C1202 C1204 1.415 . S
C1203 C1202 1.355 . S
C1203 C1205 1.419 . S
C1204 C1202 1.415 . S
C1204 C1209 1.425 . S
C1204 C1211 1.409 . S
C1205 H1197 0.930 . S
C1205 C1203 1.419 . S
C1205 C1206 1.362 . S
C1206 H1198 0.930 . S
C1206 C1205 1.362 . S
C1206 C1209 1.409 . S
C1207 H1199 0.930 . S
C1207 C1208 1.355 . S
C1207 C1209 1.415 . S
C1208 C1207 1.355 . S
C1208 C1210 1.419 . S
C1209 C1204 1.425 . S
C1209 C1206 1.409 . S
C1209 C1207 1.415 . S
C1210 H1200 0.930 . S
C1210 C1208 1.419 . S
C1210 C1211 1.362 . S
C1211 H1201 0.930 . S
C1211 C1204 1.409 . S
C1211 C1210 1.362 . S
H1212 C1218 0.930 . S
H1213 C1221 0.930 . S
H1214 C1222 0.930 . S
H1215 C1223 0.930 . S
H1216 C1226 0.930 . S
H1217 C1227 0.930 . S
C1218 H1212 0.930 . S
C1218 C1219 1.355 . S
C1218 C1220 1.415 . S
C1219 C1218 1.355 . S
C1219 C1221 1.419 . S
C1220 C1218 1.415 . S
C1220 C1225 1.425 . S
C1220 C1227 1.409 . S
C1221 H1213 0.930 . S
C1221 C1219 1.419 . S
C1221 C1222 1.362 . S
C1222 H1214 0.930 . S
C1222 C1221 1.362 . S
C1222 C1225 1.409 . S
C1223 H1215 0.930 . S
C1223 C1224 1.355 . S
C1223 C1225 1.415 . S
C1224 C1223 1.355 . S
C1224 C1226 1.419 . S
C1225 C1220 1.425 . S
C1225 C1222 1.409 . S
C1225 C1223 1.415 . S
C1226 H1216 0.930 . S
C1226 C1224 1.419 . S
C1226 C1227 1.362 . S
C1227 H1217 0.930 . S
C1227 C1220 1.409 . S
C1227 C1226 1.362 . S
H1228 C1234 0.930 . S
H1229 C1237 0.930 . S
H1230 C1238 0.930 . S
H1231 C1239 0.930 . S
H1232 C1242 0.930 . S
H1233 C1243 0.930 . S
C1234 H1228 0.930 . S
C1234 C1235 1.355 . S
C1234 C1236 1.415 . S
C1235 C1234 1.355 . S
C1235 C1237 1.419 . S
C1236 C1234 1.415 . S
C1236 C1241 1.425 . S
C1236 C1243 1.409 . S
C1237 H1229 0.930 . S
C1237 C1235 1.419 . S
C1237 C1238 1.362 . S
C1238 H1230 0.930 . S
C1238 C1237 1.362 . S
C1238 C1241 1.409 . S
C1239 H1231 0.930 . S
C1239 C1240 1.355 . S
C1239 C1241 1.415 . S
C1240 C1239 1.355 . S
C1240 C1242 1.419 . S
C1241 C1236 1.425 . S
C1241 C1238 1.409 . S
C1241 C1239 1.415 . S
C1242 H1232 0.930 . S
C1242 C1240 1.419 . S
C1242 C1243 1.362 . S
C1243 H1233 0.930 . S
C1243 C1236 1.409 . S
C1243 C1242 1.362 . S
H1244 C1250 0.930 . S
H1245 C1253 0.930 . S
H1246 C1254 0.930 . S
H1247 C1255 0.930 . S
H1248 C1258 0.930 . S
H1249 C1259 0.930 . S
C1250 H1244 0.930 . S
C1250 C1251 1.355 . S
C1250 C1252 1.415 . S
C1251 C1250 1.355 . S
C1251 C1253 1.419 . S
C1252 C1250 1.415 . S
C1252 C1257 1.425 . S
C1252 C1259 1.409 . S
C1253 H1245 0.930 . S
C1253 C1251 1.419 . S
C1253 C1254 1.362 . S
C1254 H1246 0.930 . S
C1254 C1253 1.362 . S
C1254 C1257 1.409 . S
C1255 H1247 0.930 . S
C1255 C1256 1.355 . S
C1255 C1257 1.415 . S
C1256 C1255 1.355 . S
C1256 C1258 1.419 . S
C1257 C1252 1.425 . S
C1257 C1254 1.409 . S
C1257 C1255 1.415 . S
C1258 H1248 0.930 . S
C1258 C1256 1.419 . S
C1258 C1259 1.362 . S
C1259 H1249 0.930 . S
C1259 C1252 1.409 . S
C1259 C1258 1.362 . S
H1260 C1266 0.930 . S
H1261 C1269 0.930 . S
H1262 C1270 0.930 . S
H1263 C1271 0.930 . S
H1264 C1274 0.930 . S
H1265 C1275 0.930 . S
C1266 H1260 0.930 . S
C1266 C1267 1.355 . S
C1266 C1268 1.415 . S
C1267 C1266 1.355 . S
C1267 C1269 1.419 . S
C1268 C1266 1.415 . S
C1268 C1273 1.425 . S
C1268 C1275 1.409 . S
C1269 H1261 0.930 . S
C1269 C1267 1.419 . S
C1269 C1270 1.362 . S
C1270 H1262 0.930 . S
C1270 C1269 1.362 . S
C1270 C1273 1.409 . S
C1271 H1263 0.930 . S
C1271 C1272 1.355 . S
C1271 C1273 1.415 . S
C1272 C1271 1.355 . S
C1272 C1274 1.419 . S
C1273 C1268 1.425 . S
C1273 C1270 1.409 . S
C1273 C1271 1.415 . S
C1274 H1264 0.930 . S
C1274 C1272 1.419 . S
C1274 C1275 1.362 . S
C1275 H1265 0.930 . S
C1275 C1268 1.409 . S
C1275 C1274 1.362 . S
H1276 C1282 0.930 . S
H1277 C1285 0.930 . S
H1278 C1286 0.930 . S
H1279 C1287 0.930 . S
H1280 C1290 0.930 . S
H1281 C1291 0.930 . S
C1282 H1276 0.930 . S
C1282 C1283 1.355 . S
C1282 C1284 1.415 . S
C1283 C1282 1.355 . S
C1283 C1285 1.419 . S
C1284 C1282 1.415 . S
C1284 C1289 1.425 . S
C1284 C1291 1.409 . S
C1285 H1277 0.930 . S
C1285 C1283 1.419 . S
C1285 C1286 1.362 . S
C1286 H1278 0.930 . S
C1286 C1285 1.362 . S
C1286 C1289 1.409 . S
C1287 H1279 0.930 . S
C1287 C1288 1.355 . S
C1287 C1289 1.415 . S
C1288 C1287 1.355 . S
C1288 C1290 1.419 . S
C1289 C1284 1.425 . S
C1289 C1286 1.409 . S
C1289 C1287 1.415 . S
C1290 H1280 0.930 . S
C1290 C1288 1.419 . S
C1290 C1291 1.362 . S
C1291 H1281 0.930 . S
C1291 C1284 1.409 . S
C1291 C1290 1.362 . S
H1292 C1298 0.930 . S
H1293 C1301 0.930 . S
H1294 C1302 0.930 . S
H1295 C1303 0.930 . S
H1296 C1306 0.930 . S
H1297 C1307 0.930 . S
C1298 H1292 0.930 . S
C1298 C1299 1.355 . S
C1298 C1300 1.415 . S
C1299 C1298 1.355 . S
C1299 C1301 1.419 . S
C1300 C1298 1.415 . S
C1300 C1305 1.425 . S
C1300 C1307 1.409 . S
C1301 H1293 0.930 . S
C1301 C1299 1.419 . S
C1301 C1302 1.362 . S
C1302 H1294 0.930 . S
C1302 C1301 1.362 . S
C1302 C1305 1.409 . S
C1303 H1295 0.930 . S
C1303 C1304 1.355 . S
C1303 C1305 1.415 . S
C1304 C1303 1.355 . S
C1304 C1306 1.419 . S
C1305 C1300 1.425 . S
C1305 C1302 1.409 . S
C1305 C1303 1.415 . S
C1306 H1296 0.930 . S
C1306 C1304 1.419 . S
C1306 C1307 1.362 . S
C1307 H1297 0.930 . S
C1307 C1300 1.409 . S
C1307 C1306 1.362 . S
H1308 C1314 0.930 . S
H1309 C1317 0.930 . S
H1310 C1318 0.930 1_455 S
H1311 C1319 0.930 1_455 S
H1312 C1322 0.930 . S
H1313 C1323 0.930 . S
C1314 H1308 0.930 . S
C1314 C1315 1.355 . S
C1314 C1316 1.415 . S
C1315 C1314 1.355 . S
C1315 C1317 1.419 . S
C1316 C1314 1.415 . S
C1316 C1321 1.425 . S
C1316 C1323 1.409 . S
C1317 H1309 0.930 . S
C1317 C1315 1.419 . S
C1317 C1318 1.362 . S
C1318 H1310 0.930 1_655 S
C1318 C1317 1.362 . S
C1318 C1321 1.409 . S
C1319 H1311 0.930 1_655 S
C1319 C1320 1.355 . S
C1319 C1321 1.415 . S
C1320 C1319 1.355 . S
C1320 C1322 1.419 . S
C1321 C1316 1.425 . S
C1321 C1318 1.409 . S
C1321 C1319 1.415 . S
C1322 H1312 0.930 . S
C1322 C1320 1.419 . S
C1322 C1323 1.362 . S
C1323 H1313 0.930 . S
C1323 C1316 1.409 . S
C1323 C1322 1.362 . S
H1324 C1330 0.930 . S
H1325 C1333 0.930 . S
H1326 C1334 0.930 . S
H1327 C1335 0.930 . S
H1328 C1338 0.930 . S
H1329 C1339 0.930 . S
C1330 H1324 0.930 . S
C1330 C1331 1.355 . S
C1330 C1332 1.415 . S
C1331 C1330 1.355 . S
C1331 C1333 1.419 . S
C1332 C1330 1.415 . S
C1332 C1337 1.425 . S
C1332 C1339 1.409 . S
C1333 H1325 0.930 . S
C1333 C1331 1.419 . S
C1333 C1334 1.362 . S
C1334 H1326 0.930 . S
C1334 C1333 1.362 . S
C1334 C1337 1.409 . S
C1335 H1327 0.930 . S
C1335 C1336 1.355 . S
C1335 C1337 1.415 . S
C1336 C1335 1.355 . S
C1336 C1338 1.419 . S
C1337 C1332 1.425 . S
C1337 C1334 1.409 . S
C1337 C1335 1.415 . S
C1338 H1328 0.930 . S
C1338 C1336 1.419 . S
C1338 C1339 1.362 . S
C1339 H1329 0.930 . S
C1339 C1332 1.409 . S
C1339 C1338 1.362 . S
H1340 C1346 0.930 . S
H1341 C1349 0.930 . S
H1342 C1350 0.930 . S
H1343 C1351 0.930 . S
H1344 C1354 0.930 1_655 S
H1345 C1355 0.921 1_655 S
C1346 H1340 0.930 . S
C1346 C1347 1.355 . S
C1346 C1348 1.415 . S
C1347 C1346 1.355 . S
C1347 C1349 1.419 . S
C1348 C1346 1.415 . S
C1348 C1353 1.425 . S
C1348 C1355 1.409 . S
C1349 H1341 0.930 . S
C1349 C1347 1.419 . S
C1349 C1350 1.362 . S
C1350 H1342 0.930 . S
C1350 C1349 1.362 . S
C1350 C1353 1.409 . S
C1351 H1343 0.930 . S
C1351 C1352 1.355 . S
C1351 C1353 1.415 . S
C1352 C1351 1.355 . S
C1352 C1354 1.419 . S
C1353 C1348 1.425 . S
C1353 C1350 1.409 . S
C1353 C1351 1.415 . S
C1354 H1344 0.930 1_455 S
C1354 C1352 1.419 . S
C1354 C1355 1.362 . S
C1355 H1345 0.921 1_455 S
C1355 C1348 1.409 . S
C1355 C1354 1.362 . S
H1356 C1362 0.930 . S
H1357 C1365 0.930 . S
H1358 C1366 0.930 . S
H1359 C1367 0.930 . S
H1360 C1370 0.930 . S
H1361 C1371 0.930 . S
C1362 H1356 0.930 . S
C1362 C1363 1.355 . S
C1362 C1364 1.415 . S
C1363 C1362 1.355 . S
C1363 C1365 1.419 . S
C1364 C1362 1.415 . S
C1364 C1369 1.425 . S
C1364 C1371 1.409 . S
C1365 H1357 0.930 . S
C1365 C1363 1.419 . S
C1365 C1366 1.362 . S
C1366 H1358 0.930 . S
C1366 C1365 1.362 . S
C1366 C1369 1.409 . S
C1367 H1359 0.930 . S
C1367 C1368 1.355 . S
C1367 C1369 1.415 . S
C1368 C1367 1.355 . S
C1368 C1370 1.419 . S
C1369 C1364 1.425 . S
C1369 C1366 1.409 . S
C1369 C1367 1.415 . S
C1370 H1360 0.930 . S
C1370 C1368 1.419 . S
C1370 C1371 1.362 . S
C1371 H1361 0.930 . S
C1371 C1364 1.409 . S
C1371 C1370 1.362 . S
H1372 C1378 0.930 . S
H1373 C1381 0.930 . S
H1374 C1382 0.930 . S
H1375 C1383 0.930 . S
H1376 C1386 0.930 . S
H1377 C1387 0.930 . S
C1378 H1372 0.930 . S
C1378 C1379 1.355 . S
C1378 C1380 1.415 . S
C1379 C1378 1.355 . S
C1379 C1381 1.419 . S
C1380 C1378 1.415 . S
C1380 C1385 1.425 . S
C1380 C1387 1.409 . S
C1381 H1373 0.930 . S
C1381 C1379 1.419 . S
C1381 C1382 1.362 . S
C1382 H1374 0.930 . S
C1382 C1381 1.362 . S
C1382 C1385 1.409 . S
C1383 H1375 0.930 . S
C1383 C1384 1.355 . S
C1383 C1385 1.415 . S
C1384 C1383 1.355 . S
C1384 C1386 1.419 . S
C1385 C1380 1.425 . S
C1385 C1382 1.409 . S
C1385 C1383 1.415 . S
C1386 H1376 0.930 . S
C1386 C1384 1.419 . S
C1386 C1387 1.362 . S
C1387 H1377 0.930 . S
C1387 C1380 1.409 . S
C1387 C1386 1.362 . S
H1388 C1394 0.930 . S
H1389 C1397 0.930 . S
H1390 C1398 0.930 . S
H1391 C1399 0.930 . S
H1392 C1402 0.930 . S
H1393 C1403 0.930 . S
C1394 H1388 0.930 . S
C1394 C1395 1.355 . S
C1394 C1396 1.415 . S
C1395 C1394 1.355 . S
C1395 C1397 1.419 . S
C1396 C1394 1.415 . S
C1396 C1401 1.425 . S
C1396 C1403 1.409 . S
C1397 H1389 0.930 . S
C1397 C1395 1.419 . S
C1397 C1398 1.362 . S
C1398 H1390 0.930 . S
C1398 C1397 1.362 . S
C1398 C1401 1.409 . S
C1399 H1391 0.930 . S
C1399 C1400 1.355 . S
C1399 C1401 1.415 . S
C1400 C1399 1.355 . S
C1400 C1402 1.419 . S
C1401 C1396 1.425 . S
C1401 C1398 1.409 . S
C1401 C1399 1.415 . S
C1402 H1392 0.930 . S
C1402 C1400 1.419 . S
C1402 C1403 1.362 . S
C1403 H1393 0.930 . S
C1403 C1396 1.409 . S
C1403 C1402 1.362 . S
H1404 C1410 0.930 . S
H1405 C1413 0.930 . S
H1406 C1414 0.930 . S
H1407 C1415 0.930 . S
H1408 C1418 0.930 . S
H1409 C1419 0.930 . S
C1410 H1404 0.930 . S
C1410 C1411 1.355 . S
C1410 C1412 1.415 . S
C1411 C1410 1.355 . S
C1411 C1413 1.419 . S
C1412 C1410 1.415 . S
C1412 C1417 1.425 . S
C1412 C1419 1.409 . S
C1413 H1405 0.930 . S
C1413 C1411 1.419 . S
C1413 C1414 1.362 . S
C1414 H1406 0.930 . S
C1414 C1413 1.362 . S
C1414 C1417 1.409 . S
C1415 H1407 0.930 . S
C1415 C1416 1.355 . S
C1415 C1417 1.415 . S
C1416 C1415 1.355 . S
C1416 C1418 1.419 . S
C1417 C1412 1.425 . S
C1417 C1414 1.409 . S
C1417 C1415 1.415 . S
C1418 H1408 0.930 . S
C1418 C1416 1.419 . S
C1418 C1419 1.362 . S
C1419 H1409 0.930 . S
C1419 C1412 1.409 . S
C1419 C1418 1.362 . S
H1420 C1426 0.930 . S
H1421 C1429 0.930 . S
H1422 C1430 0.930 . S
H1423 C1431 0.930 . S
H1424 C1434 0.930 . S
H1425 C1435 0.930 . S
C1426 H1420 0.930 . S
C1426 C1427 1.355 . S
C1426 C1428 1.415 . S
C1427 C1426 1.355 . S
C1427 C1429 1.419 . S
C1428 C1426 1.415 . S
C1428 C1433 1.425 . S
C1428 C1435 1.409 . S
C1429 H1421 0.930 . S
C1429 C1427 1.419 . S
C1429 C1430 1.362 . S
C1430 H1422 0.930 . S
C1430 C1429 1.362 . S
C1430 C1433 1.409 . S
C1431 H1423 0.930 . S
C1431 C1432 1.355 . S
C1431 C1433 1.415 . S
C1432 C1431 1.355 . S
C1432 C1434 1.419 . S
C1433 C1428 1.425 . S
C1433 C1430 1.409 . S
C1433 C1431 1.415 . S
C1434 H1424 0.930 . S
C1434 C1432 1.419 . S
C1434 C1435 1.362 . S
C1435 H1425 0.930 . S
C1435 C1428 1.409 . S
C1435 C1434 1.362 . S
H1436 C1442 0.930 . S
H1437 C1445 0.930 . S
H1438 C1446 0.930 . S
H1439 C1447 0.930 . S
H1440 C1450 0.930 . S
H1441 C1451 0.930 . S
C1442 H1436 0.930 . S
C1442 C1443 1.355 . S
C1442 C1444 1.415 . S
C1443 C1442 1.355 . S
C1443 C1445 1.419 . S
C1444 C1442 1.415 . S
C1444 C1449 1.425 . S
C1444 C1451 1.409 . S
C1445 H1437 0.930 . S
C1445 C1443 1.419 . S
C1445 C1446 1.362 . S
C1446 H1438 0.930 . S
C1446 C1445 1.362 . S
C1446 C1449 1.409 . S
C1447 H1439 0.930 . S
C1447 C1448 1.355 . S
C1447 C1449 1.415 . S
C1448 C1447 1.355 . S
C1448 C1450 1.419 . S
C1449 C1444 1.425 . S
C1449 C1446 1.409 . S
C1449 C1447 1.415 . S
C1450 H1440 0.930 . S
C1450 C1448 1.419 . S
C1450 C1451 1.362 . S
C1451 H1441 0.930 . S
C1451 C1444 1.409 . S
C1451 C1450 1.362 . S
H1452 C1458 0.930 . S
H1453 C1461 0.930 . S
H1454 C1462 0.930 . S
H1455 C1463 0.930 . S
H1456 C1466 0.930 . S
H1457 C1467 0.930 . S
C1458 H1452 0.930 . S
C1458 C1459 1.355 . S
C1458 C1460 1.415 . S
C1459 C1458 1.355 . S
C1459 C1461 1.419 . S
C1460 C1458 1.415 . S
C1460 C1465 1.425 . S
C1460 C1467 1.409 . S
C1461 H1453 0.930 . S
C1461 C1459 1.419 . S
C1461 C1462 1.362 . S
C1462 H1454 0.930 . S
C1462 C1461 1.362 . S
C1462 C1465 1.409 . S
C1463 H1455 0.930 . S
C1463 C1464 1.355 . S
C1463 C1465 1.415 . S
C1464 C1463 1.355 . S
C1464 C1466 1.419 . S
C1465 C1460 1.425 . S
C1465 C1462 1.409 . S
C1465 C1463 1.415 . S
C1466 H1456 0.930 . S
C1466 C1464 1.419 . S
C1466 C1467 1.362 . S
C1467 H1457 0.930 . S
C1467 C1460 1.409 . S
C1467 C1466 1.362 . S
H1468 C1474 0.930 . S
H1469 C1477 0.930 . S
H1470 C1478 0.930 . S
H1471 C1479 0.930 . S
H1472 C1482 0.930 . S
H1473 C1483 0.930 . S
C1474 H1468 0.930 . S
C1474 C1475 1.355 . S
C1474 C1476 1.415 . S
C1475 C1474 1.355 . S
C1475 C1477 1.419 . S
C1476 C1474 1.415 . S
C1476 C1481 1.425 . S
C1476 C1483 1.409 . S
C1477 H1469 0.930 . S
C1477 C1475 1.419 . S
C1477 C1478 1.362 . S
C1478 H1470 0.930 . S
C1478 C1477 1.362 . S
C1478 C1481 1.409 . S
C1479 H1471 0.930 . S
C1479 C1480 1.355 . S
C1479 C1481 1.415 . S
C1480 C1479 1.355 . S
C1480 C1482 1.419 . S
C1481 C1476 1.425 . S
C1481 C1478 1.409 . S
C1481 C1479 1.415 . S
C1482 H1472 0.930 . S
C1482 C1480 1.419 . S
C1482 C1483 1.362 . S
C1483 H1473 0.930 . S
C1483 C1476 1.409 . S
C1483 C1482 1.362 . S
H1484 C1490 0.957 . S
H1485 C1493 0.930 . S
H1486 C1494 0.930 . S
H1487 C1495 0.930 . S
H1488 C1498 0.930 . S
H1489 C1499 0.930 . S
C1490 H1484 0.957 . S
C1490 C1491 1.355 . S
C1490 C1492 1.415 . S
C1491 C1490 1.355 . S
C1491 C1493 1.419 . S
C1492 C1490 1.415 . S
C1492 C1497 1.425 . S
C1492 C1499 1.409 1_556 S
C1493 H1485 0.930 . S
C1493 C1491 1.419 . S
C1493 C1494 1.362 . S
C1494 H1486 0.930 . S
C1494 C1493 1.362 . S
C1494 C1497 1.409 . S
C1495 H1487 0.930 . S
C1495 C1496 1.355 . S
C1495 C1497 1.415 . S
C1496 C1495 1.355 . S
C1496 C1498 1.419 1_556 S
C1497 C1492 1.425 . S
C1497 C1494 1.409 . S
C1497 C1495 1.415 . S
C1498 H1488 0.930 . S
C1498 C1496 1.419 1_554 S
C1498 C1499 1.362 . S
C1499 H1489 0.930 . S
C1499 C1492 1.409 1_554 S
C1499 C1498 1.362 . S
H1500 C1506 0.930 . S
H1501 C1509 0.930 . S
H1502 C1510 0.930 . S
H1503 C1511 0.930 . S
H1504 C1514 0.930 . S
H1505 C1515 0.930 . S
C1506 H1500 0.930 . S
C1506 C1507 1.355 . S
C1506 C1508 1.415 . S
C1507 C1506 1.355 . S
C1507 C1509 1.419 . S
C1508 C1506 1.415 . S
C1508 C1513 1.425 . S
C1508 C1515 1.409 . S
C1509 H1501 0.930 . S
C1509 C1507 1.419 . S
C1509 C1510 1.362 . S
C1510 H1502 0.930 . S
C1510 C1509 1.362 . S
C1510 C1513 1.409 . S
C1511 H1503 0.930 . S
C1511 C1512 1.355 . S
C1511 C1513 1.415 . S
C1512 C1511 1.355 . S
C1512 C1514 1.419 . S
C1513 C1508 1.425 . S
C1513 C1510 1.409 . S
C1513 C1511 1.415 . S
C1514 H1504 0.930 . S
C1514 C1512 1.419 . S
C1514 C1515 1.362 . S
C1515 H1505 0.930 . S
C1515 C1508 1.409 . S
C1515 C1514 1.362 . S
H1516 C1522 0.930 . S
H1517 C1525 0.930 . S
H1518 C1526 0.930 . S
H1519 C1527 0.930 . S
H1520 C1530 0.930 . S
H1521 C1531 0.930 . S
C1522 H1516 0.930 . S
C1522 C1523 1.355 . S
C1522 C1524 1.415 . S
C1523 C1522 1.355 . S
C1523 C1525 1.419 . S
C1524 C1522 1.415 . S
C1524 C1529 1.425 . S
C1524 C1531 1.409 . S
C1525 H1517 0.930 . S
C1525 C1523 1.419 . S
C1525 C1526 1.362 . S
C1526 H1518 0.930 . S
C1526 C1525 1.362 . S
C1526 C1529 1.409 . S
C1527 H1519 0.930 . S
C1527 C1528 1.355 . S
C1527 C1529 1.415 . S
C1528 C1527 1.355 . S
C1528 C1530 1.419 . S
C1529 C1524 1.425 . S
C1529 C1526 1.409 . S
C1529 C1527 1.415 . S
C1530 H1520 0.930 . S
C1530 C1528 1.419 . S
C1530 C1531 1.362 . S
C1531 H1521 0.930 . S
C1531 C1524 1.409 . S
C1531 C1530 1.362 . S
H1532 C1538 0.930 . S
H1533 C1541 0.930 1_545 S
H1534 C1542 0.930 . S
H1535 C1543 0.930 . S
H1536 C1546 0.930 . S
H1537 C1547 0.930 . S
C1538 H1532 0.930 . S
C1538 C1539 1.355 . S
C1538 C1540 1.415 . S
C1539 C1538 1.355 . S
C1539 C1541 1.419 . S
C1540 C1538 1.415 . S
C1540 C1545 1.425 . S
C1540 C1547 1.409 . S
C1541 H1533 0.930 1_565 S
C1541 C1539 1.419 . S
C1541 C1542 1.362 . S
C1542 H1534 0.930 . S
C1542 C1541 1.362 . S
C1542 C1545 1.409 . S
C1543 H1535 0.930 . S
C1543 C1544 1.355 . S
C1543 C1545 1.415 . S
C1544 C1543 1.355 . S
C1544 C1546 1.419 . S
C1545 C1540 1.425 . S
C1545 C1542 1.409 . S
C1545 C1543 1.415 . S
C1546 H1536 0.930 . S
C1546 C1544 1.419 . S
C1546 C1547 1.362 . S
C1547 H1537 0.930 . S
C1547 C1540 1.409 . S
C1547 C1546 1.362 . S
C792 C634 1.397 . S
C787 C211 1.424 . S
C808 C647 1.579 . S
C803 C255 1.589 . S
C819 C274 1.453 . S
C824 C660 1.439 . S
C840 C673 1.530 . S
C835 C157 1.527 . S
C856 C681 1.460 . S
C851 C391 1.494 . S
C872 C694 1.405 . S
C867 C484 1.434 . S
C883 C450 1.510 . S
C888 C707 1.460 . S
C904 C720 1.506 . S
C899 C352 1.516 . S
C915 C430 1.437 . S
C920 C738 1.420 . S
C936 C749 1.498 . S
C931 C367 1.543 . S
C947 C411 1.477 . S
C952 C733 1.471 . S
C968 C741 1.471 . S
C963 C469 1.480 . S
C979 C294 1.495 . S
C984 C764 1.497 . S
C995 C177 1.513 . S
C1000 C754 1.508 . S
C1011 C196 1.502 . S
C1016 C759 1.472 . S
C1027 C235 1.554 . S
C1032 C762 1.499 1_655 S
C1043 C133 1.447 . S
C1048 C671 1.444 . S
C1059 C567 1.418 . S
C1064 C663 1.426 . S
C1080 C632 1.506 . S
C1075 C601 1.558 . S
C1096 C637 1.506 . S
C1091 C328 1.512 . S
C1107 C172 1.533 . S
C1112 C684 1.487 . S
C1128 C723 1.514 . S
C1123 C445 1.525 . S
C1144 C676 1.463 . S
C1139 C372 1.512 . S
C1160 C702 1.406 . S
C1155 C489 1.465 . S
C1176 C712 1.425 . S
C1171 C562 1.412 . S
C1187 C606 1.589 . S
C1192 C725 1.576 . S
C1203 C313 1.452 . S
C1208 C686 1.431 . S
C1224 C699 1.518 . S
C1219 C508 1.528 . S
C1235 C118 1.492 . S
C1240 C655 1.440 . S
C1256 C668 1.426 . S
C1251 C16 1.426 . S
C1272 C629 1.484 . S
C1267 C60 1.514 . S
C1288 C642 1.491 . S
C1283 C79 1.517 . S
C1299 C40 1.436 . S
C1304 C751 1.426 . S
C1315 C94 1.545 . S
C1320 C736 1.529 1_655 S
C1331 C138 1.477 . S
C1336 C746 1.461 . S
C1347 C1 1.478 . S
C1352 C728 1.424 . S
C1368 C777 1.490 . S
C1363 C333 1.494 . S
C1384 C767 1.463 . S
C1379 C528 1.508 . S
C1400 C772 1.468 . S
C1395 C547 1.506 . S
C1411 C586 1.557 . S
C1416 C775 1.510 . S
C1427 C406 1.445 . S
C1432 C697 1.400 . S
C1448 C689 1.423 . S
C1443 C216 1.418 . S
C1464 C710 1.512 . S
C1459 C250 1.560 . S
C1480 C715 1.512 . S
C1475 C289 1.515 . S
C1491 C523 1.537 . S
C1496 C658 1.516 . S
C1512 C645 1.473 . S
C1507 C55 1.528 . S
C1523 C99 1.525 . S
C1528 C650 1.512 . S
C1544 C624 1.405 . S
C1539 C21 1.465 . S
