# Generated by pormake.
# Topology wbl, (4,4)-cn, num edge types: 1
# Building blocks:
#     Node 0, Type 0, BuildingBlock: MIFKUJ_clean_linker_1, # of connection points: 4
#     Node 1, Type 0, BuildingBlock: MIFKUJ_clean_linker_1, # of connection points: 4
#     Node 2, Type 0, BuildingBlock: MIFKUJ_clean_linker_1, # of connection points: 4
#     Node 3, Type 0, BuildingBlock: MIFKUJ_clean_linker_1, # of connection points: 4
#     Node 4, Type 0, BuildingBlock: MIFKUJ_clean_linker_1, # of connection points: 4
#     Node 5, Type 0, BuildingBlock: MIFKUJ_clean_linker_1, # of connection points: 4
#     Node 6, Type 0, BuildingBlock: MIFKUJ_clean_linker_1, # of connection points: 4
#     Node 7, Type 0, BuildingBlock: MIFKUJ_clean_linker_1, # of connection points: 4
#     Node 8, Type 1, BuildingBlock: CEKHIL_clean_sbu_0, # of connection points: 4
#     Node 9, Type 1, BuildingBlock: CEKHIL_clean_sbu_0, # of connection points: 4
#     Node 10, Type 1, BuildingBlock: CEKHIL_clean_sbu_0, # of connection points: 4
#     Node 11, Type 1, BuildingBlock: CEKHIL_clean_sbu_0, # of connection points: 4
#     Node 12, Type 1, BuildingBlock: CEKHIL_clean_sbu_0, # of connection points: 4
#     Node 13, Type 1, BuildingBlock: CEKHIL_clean_sbu_0, # of connection points: 4
#     Node 14, Type 1, BuildingBlock: CEKHIL_clean_sbu_0, # of connection points: 4
#     Node 15, Type 1, BuildingBlock: CEKHIL_clean_sbu_0, # of connection points: 4
#     Edge 16, Type (0, 1), BuildingBlock: XIVTED_clean_linker_0, # of connection points: 2
#     Edge 17, Type (0, 1), BuildingBlock: XIVTED_clean_linker_0, # of connection points: 2
#     Edge 18, Type (0, 1), BuildingBlock: XIVTED_clean_linker_0, # of connection points: 2
#     Edge 19, Type (0, 1), BuildingBlock: XIVTED_clean_linker_0, # of connection points: 2
#     Edge 20, Type (0, 1), BuildingBlock: XIVTED_clean_linker_0, # of connection points: 2
#     Edge 21, Type (0, 1), BuildingBlock: XIVTED_clean_linker_0, # of connection points: 2
#     Edge 22, Type (0, 1), BuildingBlock: XIVTED_clean_linker_0, # of connection points: 2
#     Edge 23, Type (0, 1), BuildingBlock: XIVTED_clean_linker_0, # of connection points: 2
#     Edge 24, Type (0, 1), BuildingBlock: XIVTED_clean_linker_0, # of connection points: 2
#     Edge 25, Type (0, 1), BuildingBlock: XIVTED_clean_linker_0, # of connection points: 2
#     Edge 26, Type (0, 1), BuildingBlock: XIVTED_clean_linker_0, # of connection points: 2
#     Edge 27, Type (0, 1), BuildingBlock: XIVTED_clean_linker_0, # of connection points: 2
#     Edge 28, Type (0, 1), BuildingBlock: XIVTED_clean_linker_0, # of connection points: 2
#     Edge 29, Type (0, 1), BuildingBlock: XIVTED_clean_linker_0, # of connection points: 2
#     Edge 30, Type (0, 1), BuildingBlock: XIVTED_clean_linker_0, # of connection points: 2
#     Edge 31, Type (0, 1), BuildingBlock: XIVTED_clean_linker_0, # of connection points: 2
#     Edge 32, Type (0, 1), BuildingBlock: XIVTED_clean_linker_0, # of connection points: 2
#     Edge 33, Type (0, 1), BuildingBlock: XIVTED_clean_linker_0, # of connection points: 2
#     Edge 34, Type (0, 1), BuildingBlock: XIVTED_clean_linker_0, # of connection points: 2
#     Edge 35, Type (0, 1), BuildingBlock: XIVTED_clean_linker_0, # of connection points: 2
#     Edge 36, Type (0, 1), BuildingBlock: XIVTED_clean_linker_0, # of connection points: 2
#     Edge 37, Type (0, 1), BuildingBlock: XIVTED_clean_linker_0, # of connection points: 2
#     Edge 38, Type (0, 1), BuildingBlock: XIVTED_clean_linker_0, # of connection points: 2
#     Edge 39, Type (0, 1), BuildingBlock: XIVTED_clean_linker_0, # of connection points: 2
#     Edge 40, Type (0, 1), BuildingBlock: XIVTED_clean_linker_0, # of connection points: 2
#     Edge 41, Type (0, 1), BuildingBlock: XIVTED_clean_linker_0, # of connection points: 2
#     Edge 42, Type (0, 1), BuildingBlock: XIVTED_clean_linker_0, # of connection points: 2
#     Edge 43, Type (0, 1), BuildingBlock: XIVTED_clean_linker_0, # of connection points: 2
#     Edge 44, Type (0, 1), BuildingBlock: XIVTED_clean_linker_0, # of connection points: 2
#     Edge 45, Type (0, 1), BuildingBlock: XIVTED_clean_linker_0, # of connection points: 2
#     Edge 46, Type (0, 1), BuildingBlock: XIVTED_clean_linker_0, # of connection points: 2
#     Edge 47, Type (0, 1), BuildingBlock: XIVTED_clean_linker_0, # of connection points: 2
# Relax obj value: 0.158
# Max RMSD: 0.158
# Mean RMSD: 0.137
data_MOF--net-wbl--node1-CEKHIL_clean_sbu_0--node2-MIFKUJ_clean_linker_1--edge1-XIVTED_clean_linker_0
_symmetry_space_group_name_H-M    P1
_symmetry_Int_Tables_number       1
_symmetry_cell_setting            triclinic
loop_
_symmetry_equiv_pos_as_xyz
'x, y, z'
_cell_length_a     45.937961
_cell_length_b     46.151923
_cell_length_c     75.307893
_cell_angle_alpha  90.401591
_cell_angle_beta   90.111866
_cell_angle_gamma 90.003541
loop_
_atom_site_label
_atom_site_type_symbol
_atom_site_fract_x
_atom_site_fract_y
_atom_site_fract_z
_atom_type_partial_charge
H0 H 0.00178 0.08031 0.34116 0.0
H1 H 0.9681 0.10702 0.3604 0.0
H2 H 0.89851 0.04927 0.34473 0.0
H3 H 0.93233 0.0228 0.32531 0.0
H4 H 0.011 0.01764 0.34646 0.0
H5 H 0.98333 0.08695 0.30065 0.0
H6 H 0.94401 0.1127 0.28547 0.0
H7 H 0.90885 0.03063 0.26744 0.0
H8 H 0.94848 0.00534 0.28222 0.0
H9 H 0.03211 0.93409 0.30903 0.0
H10 H 0.0688 0.90127 0.29663 0.0
H11 H 0.10756 0.97313 0.26872 0.0
H12 H 0.07074 0.00561 0.28105 0.0
H13 H 0.00887 0.00657 0.28083 0.0
H14 H 0.01675 0.95239 0.34611 0.0
H15 H 0.04998 0.92615 0.36574 0.0
H16 H 0.1219 0.97731 0.34651 0.0
H17 H 0.08851 0.00315 0.32654 0.0
C18 C 0.96947 0.04967 0.33187 0.0
C19 C 0.97913 0.07383 0.3416 0.0
C20 C 0.95985 0.08913 0.35247 0.0
C21 C 0.93073 0.08017 0.35402 0.0
C22 C 0.92087 0.05656 0.34377 0.0
C23 C 0.94008 0.04152 0.33268 0.0
C24 C 0.99063 0.03143 0.32216 0.0
C25 C 0.01066 0.01542 0.3321 0.0
C26 C 0.99006 0.0284 0.30349 0.0
C27 C 0.96858 0.04427 0.29265 0.0
C28 C 0.96732 0.07464 0.29318 0.0
C29 C 0.9448 0.08929 0.28457 0.0
C30 C 0.92315 0.07376 0.2753 0.0
C31 C 0.92536 0.04337 0.27417 0.0
C32 C 0.94793 0.0288 0.2827 0.0
C33 C 0.04899 0.97229 0.29608 0.0
C34 C 0.04841 0.94264 0.3001 0.0
C35 C 0.06939 0.92395 0.29306 0.0
C36 C 0.09118 0.9346 0.28176 0.0
C37 C 0.09086 0.96412 0.27718 0.0
C38 C 0.0699 0.98277 0.28425 0.0
C39 C 0.02915 0.99273 0.30518 0.0
C40 C 0.00942 0.00911 0.29516 0.0
C41 C 0.02984 0.99611 0.32381 0.0
C42 C 0.05028 0.97964 0.33499 0.0
C43 C 0.03972 0.9577 0.34601 0.0
C44 C 0.05872 0.94262 0.35706 0.0
C45 C 0.08845 0.94969 0.35752 0.0
C46 C 0.09906 0.9715 0.34633 0.0
C47 C 0.08009 0.98623 0.335 0.0
H48 H 0.00187 0.45619 0.53236 0.0
H49 H 0.9743 0.41572 0.51988 0.0
H50 H 0.89535 0.45052 0.54276 0.0
H51 H 0.92324 0.49101 0.55533 0.0
H52 H -0.00034 0.5154 0.5292 0.0
H53 H 0.98197 0.44366 0.57594 0.0
H54 H 0.95671 0.41522 0.59866 0.0
H55 H 0.91724 0.49348 0.6191 0.0
H56 H 0.94188 0.52165 0.59629 0.0
H57 H 0.00186 0.58356 0.59447 0.0
H58 H 0.0343 0.61157 0.61368 0.0
H59 H 0.10866 0.57585 0.58605 0.0
H60 H 0.07612 0.54661 0.56766 0.0
H61 H -0.00016 0.52626 0.59479 0.0
H62 H 0.00014 0.59431 0.54637 0.0
H63 H 0.02733 0.63277 0.53174 0.0
H64 H 0.09511 0.57171 0.51814 0.0
H65 H 0.06723 0.53286 0.53262 0.0
C66 C 0.96469 0.47642 0.54492 0.0
C67 C 0.97855 0.45534 0.53446 0.0
C68 C 0.96271 0.43225 0.5273 0.0
C69 C 0.93259 0.42983 0.53036 0.0
C70 C 0.91856 0.45153 0.54037 0.0
C71 C 0.93446 0.4747 0.54751 0.0
C72 C 0.98225 0.49919 0.55386 0.0
C73 C -0.00013 0.51749 0.54355 0.0
C74 C 0.98178 0.50289 0.57253 0.0
C75 C 0.96381 0.48479 0.58445 0.0
C76 C 0.96725 0.45455 0.58501 0.0
C77 C 0.95287 0.43834 0.59797 0.0
C78 C 0.93531 0.45228 0.61066 0.0
C79 C 0.93092 0.48231 0.60955 0.0
C80 C 0.94497 0.49838 0.59655 0.0
C81 C 0.03651 0.56302 0.57959 0.0
C82 C 0.02515 0.58215 0.59237 0.0
C83 C 0.04376 0.59841 0.60323 0.0
C84 C 0.07416 0.59584 0.6015 0.0
C85 C 0.08539 0.57807 0.58789 0.0
C86 C 0.06676 0.56161 0.57717 0.0
C87 C 0.01708 0.54221 0.57023 0.0
C88 C -0.0006 0.52416 0.58043 0.0
C89 C 0.01684 0.53925 0.55157 0.0
C90 C 0.03169 0.56087 0.54047 0.0
C91 C 0.02052 0.58907 0.53986 0.0
C92 C 0.03607 0.61097 0.53152 0.0
C93 C 0.0633 0.60515 0.52381 0.0
C94 C 0.07419 0.57669 0.52402 0.0
C95 C 0.05825 0.55454 0.53212 0.0
H96 H 0.49664 0.55669 0.85231 0.0
H97 H 0.46773 0.58834 0.87121 0.0
H98 H 0.38883 0.55056 0.84987 0.0
H99 H 0.41832 0.51823 0.83102 0.0
H100 H 0.49659 0.49728 0.85394 0.0
H101 H 0.47637 0.5731 0.81153 0.0
H102 H 0.44089 0.60405 0.79649 0.0
H103 H 0.40189 0.52807 0.77239 0.0
H104 H 0.43741 0.49744 0.7874 0.0
H105 H 0.51748 0.43154 0.79023 0.0
H106 H 0.55963 0.40762 0.77617 0.0
H107 H 0.61631 0.47286 0.79882 0.0
H108 H 0.57453 0.49629 0.81278 0.0
H109 H 0.49924 0.49589 0.78808 0.0
H110 H 0.53195 0.42183 0.82861 0.0
H111 H 0.56609 0.3952 0.84727 0.0
H112 H 0.58311 0.47363 0.87738 0.0
H113 H 0.55101 0.50033 0.85785 0.0
C114 C 0.45963 0.53508 0.84033 0.0
C115 C 0.47311 0.55536 0.85157 0.0
C116 C 0.45649 0.57369 0.86223 0.0
C117 C 0.42592 0.57216 0.86196 0.0
C118 C 0.41234 0.55219 0.8504 0.0
C119 C 0.42911 0.53383 0.8396 0.0
C120 C 0.47808 0.5147 0.83007 0.0
C121 C 0.49722 0.49695 0.83954 0.0
C122 C 0.4784 0.51396 0.81131 0.0
C123 C 0.45915 0.53296 0.80078 0.0
C124 C 0.46026 0.5632 0.8029 0.0
C125 C 0.44 0.58084 0.79431 0.0
C126 C 0.4185 0.56853 0.78331 0.0
C127 C 0.41839 0.53832 0.78058 0.0
C128 C 0.43858 0.52072 0.78921 0.0
C129 C 0.54304 0.4656 0.8025 0.0
C130 C 0.53901 0.44071 0.79197 0.0
C131 C 0.56302 0.42701 0.78409 0.0
C132 C 0.59115 0.43849 0.78637 0.0
C133 C 0.59485 0.46374 0.79666 0.0
C134 C 0.57105 0.4771 0.80467 0.0
C135 C 0.51853 0.47927 0.81205 0.0
C136 C 0.49826 0.49574 0.80247 0.0
C137 C 0.51775 0.47955 0.83082 0.0
C138 C 0.539 0.46316 0.84173 0.0
C139 C 0.54364 0.43339 0.83895 0.0
C140 C 0.56291 0.41809 0.84981 0.0
C141 C 0.5775 0.43216 0.8639 0.0
C142 C 0.57291 0.46205 0.86648 0.0
C143 C 0.5541 0.47735 0.85546 0.0
H144 H 0.48392 0.95749 0.0363 0.0
H145 H 0.45854 0.91748 0.02195 0.0
H146 H 0.37716 0.94769 0.04424 0.0
H147 H 0.40317 0.9874 0.05904 0.0
H148 H 0.48061 0.017 0.03669 0.0
H149 H 0.4731 0.93769 0.07849 0.0
H150 H 0.4505 0.90075 0.09726 0.0
H151 H 0.39247 0.96555 0.1189 0.0
H152 H 0.4153 0.00238 0.10023 0.0
H153 H 0.50005 0.09367 0.0814 0.0
H154 H 0.53315 0.12329 0.09968 0.0
H155 H 0.57118 0.0452 0.12096 0.0
H156 H 0.53855 0.01598 0.10261 0.0
H157 H 0.47892 0.01358 0.10256 0.0
H158 H 0.48353 0.07898 0.03899 0.0
H159 H 0.51606 0.11458 0.02581 0.0
H160 H 0.59019 0.06991 0.0482 0.0
H161 H 0.55725 0.03464 0.06164 0.0
C162 C 0.44546 0.97517 0.04883 0.0
C163 C 0.46052 0.95584 0.03777 0.0
C164 C 0.44586 0.93302 0.02949 0.0
C165 C 0.41572 0.92924 0.03196 0.0
C166 C 0.40041 0.94969 0.04227 0.0
C167 C 0.41519 0.97245 0.05067 0.0
C168 C 0.46196 0.99641 0.05961 0.0
C169 C 0.47994 0.01651 0.05108 0.0
C170 C 0.46165 0.99538 0.07834 0.0
C171 C 0.44577 0.97265 0.08803 0.0
C172 C 0.45515 0.94375 0.08705 0.0
C173 C 0.44231 0.92275 0.09776 0.0
C174 C 0.41974 0.93034 0.10946 0.0
C175 C 0.40957 0.95907 0.10982 0.0
C176 C 0.42268 0.98013 0.09929 0.0
C177 C 0.5169 0.05265 0.09069 0.0
C178 C 0.51567 0.08304 0.08995 0.0
C179 C 0.5345 0.0999 0.1004 0.0
C180 C 0.55494 0.08657 0.11161 0.0
C181 C 0.55608 0.05614 0.1122 0.0
C182 C 0.53721 0.03938 0.1019 0.0
C183 C 0.49736 0.03437 0.07968 0.0
C184 C 0.47896 0.01466 0.08817 0.0
C185 C 0.49799 0.03513 0.06093 0.0
C186 C 0.51803 0.05452 0.05142 0.0
C187 C 0.50682 0.07666 0.04081 0.0
C188 C 0.52549 0.09688 0.03322 0.0
C189 C 0.55576 0.09512 0.036 0.0
C190 C 0.56699 0.07209 0.04603 0.0
C191 C 0.54825 0.05191 0.05366 0.0
H192 H 0.9985 0.57328 0.90102 0.0
H193 H 0.02925 0.5951 0.87828 0.0
H194 H 0.10409 0.55058 0.89946 0.0
H195 H 0.07303 0.52778 0.92193 0.0
H196 H 0.98929 0.51671 0.90242 0.0
H197 H 0.03246 0.58849 0.94195 0.0
H198 H 0.07663 0.61087 0.9538 0.0
H199 H 0.09923 0.53014 0.9792 0.0
H200 H 0.05613 0.50748 0.96633 0.0
H201 H 0.98494 0.45265 0.96702 0.0
H202 H 0.94769 0.4192 0.97845 0.0
H203 H 0.88033 0.47556 0.95857 0.0
H204 H 0.91722 0.50882 0.94739 0.0
H205 H -0.00031 0.51368 0.96797 0.0
H206 H 0.96539 0.44085 0.92892 0.0
H207 H 0.93446 0.40971 0.91069 0.0
H208 H 0.90255 0.48497 0.88285 0.0
H209 H 0.93216 0.51613 0.90196 0.0
C210 C 0.03343 0.54892 0.9132 0.0
C211 C 0.02159 0.56848 0.90095 0.0
C212 C 0.03911 0.58096 0.88802 0.0
C213 C 0.06888 0.57439 0.88721 0.0
C214 C 0.08118 0.55608 0.89999 0.0
C215 C 0.06349 0.54315 0.91282 0.0
C216 C 0.01359 0.5325 0.92495 0.0
C217 C 0.99119 0.51665 0.91678 0.0
C218 C 0.01708 0.53114 0.94363 0.0
C219 C 0.04137 0.54611 0.95288 0.0
C220 C 0.04698 0.57563 0.95006 0.0
C221 C 0.0721 0.58849 0.95702 0.0
C222 C 0.09178 0.57217 0.96722 0.0
C223 C 0.08499 0.54314 0.97099 0.0
C224 C 0.06013 0.53022 0.96383 0.0
C225 C 0.9537 0.48291 0.95617 0.0
C226 C 0.96214 0.45824 0.96573 0.0
C227 C 0.94098 0.43915 0.97216 0.0
C228 C 0.9114 0.4448 0.96906 0.0
C229 C 0.90311 0.47075 0.9609 0.0
C230 C 0.92409 0.48975 0.9546 0.0
C231 C 0.97498 0.49893 0.94535 0.0
C232 C 0.99756 0.51439 0.95364 0.0
C233 C 0.97218 0.4995 0.92666 0.0
C234 C 0.95102 0.4809 0.9169 0.0
C235 C 0.95098 0.45076 0.91933 0.0
C236 C 0.93351 0.43291 0.90871 0.0
C237 C 0.91621 0.44475 0.89514 0.0
C238 C 0.91529 0.47507 0.89328 0.0
C239 C 0.93251 0.49294 0.90407 0.0
H240 H 0.50362 0.54797 0.22204 0.0
H241 H 0.48524 0.59109 0.237 0.0
H242 H 0.40317 0.58145 0.20936 0.0
H243 H 0.42099 0.53693 0.19548 0.0
H244 H 0.4934 0.49301 0.21907 0.0
H245 H 0.49141 0.57403 0.17377 0.0
H246 H 0.46846 0.60939 0.15388 0.0
H247 H 0.40431 0.54534 0.13873 0.0
H248 H 0.42749 0.5102 0.15839 0.0
H249 H 0.51376 0.41704 0.17283 0.0
H250 H 0.54627 0.38916 0.15332 0.0
H251 H 0.58348 0.46922 0.1343 0.0
H252 H 0.55207 0.49652 0.15418 0.0
H253 H 0.49352 0.49869 0.15332 0.0
H254 H 0.48941 0.42917 0.21362 0.0
H255 H 0.51726 0.38985 0.22688 0.0
H256 H 0.59732 0.43149 0.21084 0.0
H257 H 0.56902 0.47025 0.19705 0.0
C258 C 0.46399 0.53958 0.20724 0.0
C259 C 0.48138 0.55465 0.21955 0.0
C260 C 0.47094 0.57958 0.22794 0.0
C261 C 0.44299 0.59026 0.22403 0.0
C262 C 0.42482 0.57395 0.21268 0.0
C263 C 0.43515 0.54867 0.20451 0.0
C264 C 0.47723 0.51619 0.19629 0.0
C265 C 0.49316 0.49415 0.20469 0.0
C266 C 0.47681 0.51718 0.17752 0.0
C267 C 0.461 0.53965 0.16752 0.0
C268 C 0.4721 0.56789 0.16637 0.0
C269 C 0.45907 0.58796 0.15501 0.0
C270 C 0.43459 0.58009 0.14482 0.0
C271 C 0.42289 0.55212 0.1466 0.0
C272 C 0.43616 0.532 0.15773 0.0
C273 C 0.53057 0.45885 0.16498 0.0
C274 C 0.52931 0.42845 0.16465 0.0
C275 C 0.54775 0.41257 0.15341 0.0
C276 C 0.56765 0.4269 0.1423 0.0
C277 C 0.56896 0.45734 0.14292 0.0
C278 C 0.5507 0.47307 0.15413 0.0
C279 C 0.51058 0.47645 0.17611 0.0
C280 C 0.49329 0.49726 0.16771 0.0
C281 C 0.50994 0.4744 0.1948 0.0
C282 C 0.52719 0.45237 0.20428 0.0
C283 C 0.51297 0.42992 0.21317 0.0
C284 C 0.52899 0.40754 0.22082 0.0
C285 C 0.55961 0.4074 0.21991 0.0
C286 C 0.57379 0.43061 0.21153 0.0
C287 C 0.5577 0.45288 0.20374 0.0
H288 H 0.50365 0.91891 0.40686 0.0
H289 H 0.46647 0.90028 0.38649 0.0
H290 H 0.40862 0.96952 0.40234 0.0
H291 H 0.44595 0.98792 0.42292 0.0
H292 H 0.5246 0.97792 0.40253 0.0
H293 H 0.47773 0.91677 0.44494 0.0
H294 H 0.43276 0.90095 0.45888 0.0
H295 H 0.42589 0.98395 0.48561 0.0
H296 H 0.46941 0.00046 0.47033 0.0
H297 H 0.54457 0.04659 0.46535 0.0
H298 H 0.58581 0.07198 0.47934 0.0
H299 H 0.64461 0.00826 0.45721 0.0
H300 H 0.60357 0.98308 0.44349 0.0
H301 H 0.52368 0.98905 0.4681 0.0
H302 H 0.55746 0.05327 0.42322 0.0
H303 H 0.58679 0.07826 0.4011 0.0
H304 H 0.61441 0.99557 0.37967 0.0
H305 H 0.58428 0.9708 0.40155 0.0
C306 C 0.47748 0.95471 0.41637 0.0
C307 C 0.4827 0.92966 0.40624 0.0
C308 C 0.46139 0.91896 0.39471 0.0
C309 C 0.43466 0.93346 0.39286 0.0
C310 C 0.42905 0.95796 0.40352 0.0
C311 C 0.45027 0.96842 0.41528 0.0
C312 C 0.50155 0.96817 0.42658 0.0
C313 C 0.52471 0.97979 0.4169 0.0
C314 C 0.50092 0.97157 0.44528 0.0
C315 C 0.47642 0.9602 0.45603 0.0
C316 C 0.46639 0.93166 0.45369 0.0
C317 C 0.44086 0.92243 0.46196 0.0
C318 C 0.42522 0.94134 0.47315 0.0
C319 C 0.43678 0.96907 0.47665 0.0
C320 C 0.46194 0.97847 0.46807 0.0
C321 C 0.5711 0.01305 0.45336 0.0
C322 C 0.56635 0.038 0.46372 0.0
C323 C 0.58988 0.05256 0.47158 0.0
C324 C 0.6184 0.04204 0.46941 0.0
C325 C 0.62288 0.01668 0.45933 0.0
C326 C 0.59948 0.00237 0.45138 0.0
C327 C 0.54676 0.99857 0.44396 0.0
C328 C 0.52369 0.98675 0.45376 0.0
C329 C 0.54701 0.99537 0.4253 0.0
C330 C 0.56865 0.01019 0.41397 0.0
C331 C 0.57039 0.04055 0.41401 0.0
C332 C 0.58726 0.05481 0.40136 0.0
C333 C 0.60273 0.03894 0.38844 0.0
C334 C 0.6023 0.00847 0.38918 0.0
C335 C 0.58524 0.99425 0.40173 0.0
H336 H 0.99303 0.05031 0.71659 0.0
H337 H 0.97568 0.09591 0.7293 0.0
H338 H 0.8932 0.08426 0.70245 0.0
H339 H 0.91021 0.03792 0.69053 0.0
H340 H 0.97988 0.99383 0.71584 0.0
H341 H 0.98547 0.07089 0.67122 0.0
H342 H 0.96952 0.10851 0.65045 0.0
H343 H 0.90225 0.05122 0.63079 0.0
H344 H 0.91843 0.01376 0.65142 0.0
H345 H 0.97643 0.93566 0.64601 0.0
H346 H 0.00788 0.90884 0.62553 0.0
H347 H 0.08294 0.93343 0.6569 0.0
H348 H 0.05177 0.96176 0.67642 0.0
H349 H 0.97925 0.99323 0.6499 0.0
H350 H 0.97475 0.91565 0.69372 0.0
H351 H 0.00129 0.87401 0.70504 0.0
H352 H 0.07092 0.93079 0.72238 0.0
H353 H 0.04295 0.97256 0.71209 0.0
C354 C 0.95315 0.04101 0.70231 0.0
C355 C 0.97093 0.05717 0.71383 0.0
C356 C 0.96108 0.0834 0.72093 0.0
C357 C 0.93328 0.09405 0.71656 0.0
C358 C 0.9147 0.07673 0.7061 0.0
C359 C 0.92451 0.05035 0.69912 0.0
C360 C 0.96563 0.01623 0.69226 0.0
C361 C 0.97963 0.99371 0.70144 0.0
C362 C 0.96509 0.01562 0.67347 0.0
C363 C 0.95305 0.03964 0.66282 0.0
C364 C 0.96692 0.06673 0.66267 0.0
C365 C 0.95786 0.08812 0.6508 0.0
C366 C 0.93463 0.08278 0.63905 0.0
C367 C 0.91995 0.05609 0.63986 0.0
C368 C 0.92926 0.03461 0.65153 0.0
C369 C 0.01163 0.95049 0.6629 0.0
C370 C -0.00038 0.93483 0.64862 0.0
C371 C 0.01763 0.91927 0.63701 0.0
C372 C 0.04801 0.91912 0.63949 0.0
C373 C 0.0597 0.93338 0.65445 0.0
C374 C 0.04178 0.94922 0.66585 0.0
C375 C 0.99347 0.97099 0.67339 0.0
C376 C 0.97867 0.99287 0.66431 0.0
C377 C 0.99335 0.97104 0.69217 0.0
C378 C 0.00702 0.94703 0.702 0.0
C379 C 0.99538 0.91911 0.70042 0.0
C380 C 0.01088 0.89529 0.70664 0.0
C381 C 0.03878 0.89881 0.71416 0.0
C382 C 0.04955 0.92713 0.71673 0.0
C383 C 0.0336 0.95109 0.71086 0.0
Co384 Co 0.33144 0.67005 0.00798 0.0
O385 O 0.30795 0.63566 0.00641 0.0
O386 O 0.29321 0.67987 -0.00067 0.0
C387 C 0.34959 0.66151 0.03527 0.0
O388 O 0.34847 0.71074 0.00848 0.0
Co389 Co 0.39879 0.66671 0.01093 0.0
O390 O 0.39671 0.70925 0.01368 0.0
C391 C 0.37044 0.65668 0.97626 0.0
C392 C 0.28726 0.65245 0.00075 0.0
C393 C 0.37315 0.72318 0.01119 0.0
O394 O 0.3455 0.66325 0.98289 0.0
O395 O 0.39388 0.65523 0.98542 0.0
O396 O 0.32393 0.67295 0.03342 0.0
O397 O 0.36224 0.65335 0.02076 0.0
Co398 Co 0.33 0.83856 0.24736 0.0
O399 O 0.30057 0.86784 0.24661 0.0
O400 O 0.29429 0.82379 0.25755 0.0
C401 C 0.3453 0.84475 0.21928 0.0
O402 O 0.35515 0.80239 0.24927 0.0
Co403 Co 0.39493 0.85624 0.24281 0.0
O404 O 0.40085 0.81375 0.24109 0.0
C405 C 0.36411 0.87048 0.27586 0.0
C406 C 0.2833 0.84899 0.25372 0.0
C407 C 0.38152 0.79526 0.24542 0.0
O408 O 0.34337 0.85311 0.27143 0.0
O409 O 0.385 0.87714 0.26544 0.0
O410 O 0.32242 0.82906 0.22241 0.0
O411 O 0.3562 0.85811 0.23285 0.0
Co412 Co 0.1687 0.84206 0.49405 0.0
O413 O 0.13627 0.81616 0.49243 0.0
O414 O 0.17992 0.80398 0.50246 0.0
C415 C 0.16315 0.86073 0.46672 0.0
O416 O 0.2077 0.86308 0.49664 0.0
Co417 Co 0.15797 0.90873 0.49198 0.0
O418 O 0.20073 0.90993 0.48957 0.0
C419 C 0.1457 0.87778 0.52528 0.0
C420 C 0.15341 0.79623 0.49851 0.0
C421 C 0.21735 0.88877 0.49344 0.0
O422 O 0.15628 0.85413 0.51881 0.0
O423 O 0.14294 0.90113 0.51638 0.0
O424 O 0.1766 0.83623 0.46877 0.0
O425 O 0.15138 0.87153 0.48082 0.0
Co426 Co 0.16841 0.67539 0.75143 0.0
O427 O 0.13291 0.69679 0.74896 0.0
O428 O 0.17702 0.71481 0.74445 0.0
C429 C 0.15697 0.65496 0.77764 0.0
O430 O 0.20992 0.65985 0.75318 0.0
Co431 Co 0.16634 0.60788 0.75225 0.0
O432 O 0.20861 0.61132 0.75648 0.0
C433 C 0.15948 0.63839 0.71819 0.0
C434 C 0.14896 0.71872 0.74461 0.0
C435 C 0.22243 0.63517 0.7554 0.0
O436 O 0.16527 0.66286 0.72571 0.0
O437 O 0.15703 0.61458 0.72666 0.0
O438 O 0.16779 0.68097 0.77722 0.0
O439 O 0.1513 0.6434 0.76239 0.0
Co440 Co 0.85055 0.18649 0.49231 0.0
O441 O 0.87822 0.21746 0.4913 0.0
O442 O 0.8336 0.22157 0.50218 0.0
C443 C 0.85779 0.17013 0.46441 0.0
O444 O 0.81586 0.15917 0.49453 0.0
Co445 Co 0.87328 0.12302 0.48866 0.0
O446 O 0.83114 0.1137 0.48851 0.0
C447 C 0.88413 0.15587 0.52145 0.0
C448 C 0.85837 0.23377 0.4984 0.0
C449 C 0.81105 0.13191 0.49209 0.0
O450 O 0.86551 0.1751 0.51658 0.0
O451 O 0.89283 0.13529 0.5113 0.0
O452 O 0.84084 0.19223 0.4672 0.0
O453 O 0.87183 0.16098 0.47811 0.0
Co454 Co 0.83259 0.34899 0.74584 0.0
O455 O 0.80605 0.38074 0.74821 0.0
O456 O 0.79438 0.33476 0.7525 0.0
C457 C 0.85164 0.36395 0.71989 0.0
O458 O 0.85417 0.31038 0.74366 0.0
Co459 Co 0.89943 0.36015 0.74504 0.0
O460 O 0.90053 0.31984 0.7361 0.0
C461 C 0.8681 0.36104 0.7793 0.0
C462 C 0.78625 0.36178 0.75201 0.0
C463 C 0.8796 0.30216 0.73842 0.0
O464 O 0.84416 0.35341 0.77166 0.0
O465 O 0.89177 0.36606 0.77094 0.0
O466 O 0.82746 0.34935 0.72001 0.0
O467 O 0.86207 0.37073 0.73528 0.0
Co468 Co 0.66842 0.32481 -0.00119 0.0
O469 O 0.63449 0.30109 0.00131 0.0
O470 O 0.67943 0.28775 0.00842 0.0
C471 C 0.65769 0.33981 0.97122 0.0
O472 O 0.70893 0.34253 0.99708 0.0
Co473 Co 0.66421 0.39127 0.99355 0.0
O474 O 0.7037 0.38555 0.98366 0.0
C475 C 0.65642 0.36672 0.02937 0.0
C476 C 0.652 0.28114 0.00702 0.0
C477 C 0.7193 0.36431 0.98864 0.0
O478 O 0.66245 0.3412 0.02346 0.0
O479 O 0.65494 0.38917 0.01951 0.0
O480 O 0.66998 0.3148 0.9736 0.0
O481 O 0.65036 0.3538 0.98546 0.0
Co482 Co 0.66796 0.17331 0.25483 0.0
O483 O 0.63454 0.19838 0.25574 0.0
O484 O 0.67932 0.21226 0.24886 0.0
C485 C 0.65921 0.15021 0.28056 0.0
O486 O 0.70803 0.15459 0.25336 0.0
Co487 Co 0.66172 0.10615 0.25285 0.0
O488 O 0.70447 0.10613 0.25572 0.0
C489 C 0.65242 0.14108 0.22065 0.0
C490 C 0.65214 0.21908 0.25123 0.0
C491 C 0.71947 0.12923 0.25449 0.0
O492 O 0.65979 0.16442 0.22895 0.0
O493 O 0.65041 0.11628 0.22803 0.0
O494 O 0.67183 0.17543 0.28071 0.0
O495 O 0.6502 0.14118 0.26526 0.0
H496 H 0.1168 0.9328 0.24897 0.0
H497 H 0.24473 0.82473 0.27729 0.0
H498 H 0.12077 0.89338 0.30075 0.0
H499 H 0.2518 0.88958 0.23652 0.0
H500 H 0.19421 0.8404 0.28269 0.0
H501 H 0.16115 0.90695 0.24068 0.0
C502 C 0.12688 0.91855 0.25856 0.0
C503 C 0.11535 0.91568 0.27568 0.0
C504 C 0.20686 0.85094 0.27248 0.0
C505 C 0.16597 0.88587 0.26624 0.0
C506 C 0.23555 0.84201 0.26939 0.0
C507 C 0.25245 0.85619 0.25662 0.0
C508 C 0.19509 0.87372 0.26247 0.0
C509 C 0.23964 0.87838 0.24669 0.0
C510 C 0.15212 0.90375 0.2538 0.0
C511 C 0.12889 0.89626 0.2874 0.0
N512 N 0.21177 0.88647 0.24983 0.0
N513 N 0.15372 0.8823 0.28252 0.0
H514 H 0.12025 0.61904 0.53075 0.0
H515 H 0.10287 0.77417 0.48568 0.0
H516 H 0.04521 0.64676 0.50088 0.0
H517 H 0.17984 0.74978 0.51493 0.0
H518 H 0.0841 0.72541 0.48889 0.0
H519 H 0.14533 0.66401 0.52254 0.0
C520 C 0.10933 0.63433 0.52216 0.0
C521 C 0.08055 0.62942 0.51659 0.0
C522 C 0.10515 0.73052 0.4946 0.0
C523 C 0.10878 0.6808 0.5074 0.0
C524 C 0.11587 0.7585 0.49282 0.0
C525 C 0.14284 0.76616 0.50024 0.0
C526 C 0.1213 0.70988 0.50401 0.0
C527 C 0.15885 0.74478 0.50912 0.0
C528 C 0.12353 0.66004 0.5176 0.0
C529 C 0.06724 0.64994 0.50563 0.0
N530 N 0.14771 0.71758 0.51092 0.0
N531 N 0.08137 0.67479 0.50152 0.0
H532 H 0.39402 0.56494 0.75015 0.0
H533 H 0.26065 0.66938 0.77427 0.0
H534 H 0.38874 0.61305 0.79941 0.0
H535 H 0.2564 0.59673 0.73806 0.0
H536 H 0.31315 0.66015 0.77829 0.0
H537 H 0.34928 0.58841 0.74019 0.0
C538 C 0.38364 0.58069 0.75879 0.0
C539 C 0.39478 0.58654 0.77579 0.0
C540 C 0.30072 0.64663 0.76924 0.0
C541 C 0.34373 0.61359 0.76443 0.0
C542 C 0.27094 0.65194 0.76691 0.0
C543 C 0.25436 0.63348 0.75603 0.0
C544 C 0.31376 0.62312 0.76033 0.0
C545 C 0.26848 0.61114 0.74677 0.0
C546 C 0.35819 0.59414 0.75307 0.0
C547 C 0.38087 0.60779 0.78622 0.0
N548 N 0.29732 0.60649 0.74919 0.0
N549 N 0.35578 0.62025 0.78048 0.0
H550 H 0.37346 0.89693 0.04836 0.0
H551 H 0.41702 0.75634 -0.00153 0.0
H552 H 0.42541 0.89986 0.00064 0.0
H553 H 0.33279 0.76213 0.02347 0.0
H554 H 0.42122 0.80904 -2e-05 0.0
H555 H 0.35735 0.8483 0.04005 0.0
C556 C 0.38095 0.88775 0.03591 0.0
C557 C 0.40133 0.90241 0.02536 0.0
C558 C 0.40164 0.79884 0.00492 0.0
C559 C 0.38359 0.84642 0.01614 0.0
C560 C 0.39936 0.7688 0.00421 0.0
C561 C 0.37466 0.755 0.01102 0.0
C562 C 0.37942 0.81513 0.01293 0.0
C563 C 0.3522 0.77208 0.01813 0.0
C564 C 0.37182 0.85988 0.03125 0.0
C565 C 0.41044 0.88908 0.00948 0.0
N566 N 0.35535 0.80135 0.01923 0.0
N567 N 0.402 0.8616 0.00555 0.0
H568 H 0.10349 0.62777 0.97889 0.0
H569 H 0.27147 0.5957 0.99789 0.0
H570 H 0.14486 0.54534 0.96846 0.0
H571 H 0.23728 0.68245 0.9933 0.0
H572 H 0.22354 0.5764 0.99035 0.0
H573 H 0.15095 0.64788 0.98722 0.0
C574 C 0.12247 0.61389 0.97833 0.0
C575 C 0.12006 0.58473 0.97303 0.0
C576 C 0.22651 0.59967 0.99097 0.0
C577 C 0.17426 0.60754 0.98276 0.0
C578 C 0.25385 0.6107 0.99531 0.0
C579 C 0.25834 0.64071 0.99617 0.0
C580 C 0.2034 0.61877 0.98761 0.0
C581 C 0.23473 0.65915 0.9927 0.0
C582 C 0.14952 0.62538 0.98314 0.0
C583 C 0.14542 0.56773 0.97281 0.0
N584 N 0.20819 0.64787 0.98861 0.0
N585 N 0.17139 0.57937 0.97762 0.0
H586 H 0.47704 0.63856 0.22709 0.0
H587 H 0.34622 0.7472 0.24837 0.0
H588 H 0.38866 0.60929 0.23479 0.0
H589 H 0.43616 0.77257 0.24237 0.0
H590 H 0.36101 0.6963 0.24572 0.0
H591 H 0.46225 0.68725 0.23517 0.0
C592 C 0.45456 0.6422 0.23079 0.0
C593 C 0.43412 0.61958 0.23031 0.0
C594 C 0.37746 0.71307 0.24513 0.0
C595 C 0.41673 0.67601 0.23911 0.0
C596 C 0.36906 0.74212 0.24666 0.0
C597 C 0.38993 0.76428 0.24541 0.0
C598 C 0.40691 0.7062 0.24234 0.0
C599 C 0.41921 0.75635 0.24322 0.0
C600 C 0.44604 0.67021 0.23525 0.0
C601 C 0.40512 0.62607 0.23477 0.0
N602 N 0.42674 0.72806 0.24166 0.0
N603 N 0.39723 0.65375 0.23888 0.0
H604 H 0.3779 0.97669 0.4773 0.0
H605 H 0.26331 0.85001 0.49288 0.0
H606 H 0.40471 0.88757 0.48354 0.0
H607 H 0.2436 0.94145 0.49547 0.0
H608 H 0.31536 0.86213 0.49089 0.0
H609 H 0.32892 0.96327 0.48552 0.0
C610 C 0.37373 0.95433 0.48073 0.0
C611 C 0.39576 0.9333 0.47973 0.0
C612 C 0.29955 0.87944 0.49207 0.0
C613 C 0.33879 0.91747 0.48864 0.0
C614 C 0.26989 0.87254 0.49323 0.0
C615 C 0.249 0.89474 0.49405 0.0
C616 C 0.30818 0.90867 0.49176 0.0
C617 C 0.25877 0.92356 0.49452 0.0
C618 C 0.34549 0.94659 0.48528 0.0
C619 C 0.38842 0.90449 0.48384 0.0
N620 N 0.28751 0.92962 0.49323 0.0
N621 N 0.36048 0.89736 0.48796 0.0
H622 H 0.04088 0.84721 0.69596 0.0
H623 H 0.17061 0.774 0.74842 0.0
H624 H 0.07927 0.89134 0.7411 0.0
H625 H 0.09618 0.72591 0.72936 0.0
H626 H 0.14527 0.81946 0.74081 0.0
H627 H 0.06926 0.80436 0.70304 0.0
C628 C 0.05499 0.84793 0.70748 0.0
C629 C 0.057 0.87293 0.71819 0.0
C630 C 0.13468 0.79886 0.73831 0.0
C631 C 0.0906 0.824 0.72583 0.0
C632 C 0.1491 0.77306 0.74252 0.0
C633 C 0.13532 0.74632 0.73955 0.0
C634 C 0.10681 0.7976 0.73064 0.0
C635 C 0.10744 0.74612 0.73198 0.0
C636 C 0.07141 0.82348 0.71137 0.0
C637 C 0.07691 0.87269 0.73244 0.0
N638 N 0.09419 0.77135 0.72766 0.0
N639 N 0.09299 0.84856 0.73586 0.0
H640 H 0.60687 0.38103 0.78716 0.0
H641 H 0.76365 0.41517 0.74648 0.0
H642 H 0.63425 0.46421 0.76751 0.0
H643 H 0.73982 0.3299 0.76463 0.0
H644 H 0.71455 0.43181 0.75229 0.0
H645 H 0.65318 0.36008 0.77691 0.0
C646 C 0.62244 0.39473 0.78044 0.0
C647 C 0.61696 0.42444 0.77833 0.0
C648 C 0.71986 0.40941 0.755 0.0
C649 C 0.66976 0.40085 0.76678 0.0
C650 C 0.74803 0.39988 0.75172 0.0
C651 C 0.75595 0.37114 0.75523 0.0
C652 C 0.69924 0.39021 0.762 0.0
C653 C 0.73462 0.35228 0.76182 0.0
C654 C 0.64888 0.38284 0.77471 0.0
C655 C 0.63783 0.44131 0.76965 0.0
N656 N 0.70719 0.36221 0.76514 0.0
N657 N 0.66331 0.42933 0.76432 0.0
H658 H 0.553 0.12349 0.00422 0.0
H659 H 0.67762 0.23849 0.02693 0.0
H660 H 0.60235 0.12016 0.05304 0.0
H661 H 0.60196 0.25703 0.99488 0.0
H662 H 0.65816 0.18965 0.03237 0.0
H663 H 0.57984 0.16697 0.9959 0.0
C664 C 0.56962 0.13176 0.01313 0.0
C665 C 0.57503 0.11849 0.0295 0.0
C666 C 0.646 0.2045 0.02411 0.0
C667 C 0.60599 0.16793 0.01995 0.0
C668 C 0.65701 0.23224 0.02102 0.0
C669 C 0.64116 0.2518 0.01062 0.0
C670 C 0.61938 0.1963 0.01638 0.0
C671 C 0.61467 0.24272 0.00318 0.0
C672 C 0.58495 0.15649 0.00835 0.0
C673 C 0.59745 0.12966 0.04028 0.0
N674 N 0.60466 0.21559 0.00616 0.0
N675 N 0.61198 0.15397 0.03539 0.0
H676 H 0.89307 0.06189 0.24453 0.0
H677 H 0.76023 0.16741 0.26733 0.0
H678 H 0.89312 0.11937 0.29006 0.0
H679 H 0.75114 0.08455 0.241 0.0
H680 H 0.81311 0.15941 0.26913 0.0
H681 H 0.84503 0.08024 0.23634 0.0
C682 C 0.88318 0.07858 0.2527 0.0
C683 C 0.89692 0.0886 0.26824 0.0
C684 C 0.79946 0.14323 0.26277 0.0
C685 C 0.84226 0.10998 0.25873 0.0
C686 C 0.76943 0.14778 0.26172 0.0
C687 C 0.75139 0.12639 0.25425 0.0
C688 C 0.81138 0.11745 0.25596 0.0
C689 C 0.76428 0.10135 0.24713 0.0
C690 C 0.85585 0.0891 0.24797 0.0
C691 C 0.88341 0.11094 0.27798 0.0
N692 N 0.7935 0.09754 0.24819 0.0
N693 N 0.85663 0.12066 0.27318 0.0
H694 H 0.93801 0.40228 0.49822 0.0
H695 H 0.83082 0.27112 0.52162 0.0
H696 H 0.89032 0.39845 0.54748 0.0
H697 H 0.8996 0.26679 0.48276 0.0
H698 H 0.84459 0.3217 0.52811 0.0
H699 H 0.9158 0.35654 0.48906 0.0
C700 C 0.92278 0.39188 0.50709 0.0
C701 C 0.91641 0.40401 0.52377 0.0
C702 C 0.85644 0.30964 0.51808 0.0
C703 C 0.89067 0.35168 0.51329 0.0
C704 C 0.84856 0.2809 0.51435 0.0
C705 C 0.86431 0.26474 0.50178 0.0
C706 C 0.87986 0.32222 0.50894 0.0
C707 C 0.88711 0.27836 0.49272 0.0
C708 C 0.91002 0.36581 0.50183 0.0
C709 C 0.89585 0.38992 0.5345 0.0
N710 N 0.89419 0.30624 0.49648 0.0
N711 N 0.88389 0.36433 0.52915 0.0
H712 H 0.62971 0.1005 0.4691 0.0
H713 H 0.79406 0.07691 0.49954 0.0
H714 H 0.66494 0.01908 0.48695 0.0
H715 H 0.75954 0.16118 0.48668 0.0
H716 H 0.74525 0.05682 0.49781 0.0
H717 H 0.67495 0.12459 0.47831 0.0
C718 C 0.64676 0.08779 0.47524 0.0
C719 C 0.64377 0.05767 0.47704 0.0
C720 C 0.74816 0.07977 0.4955 0.0
C721 C 0.69554 0.08496 0.4874 0.0
C722 C 0.77611 0.09126 0.49645 0.0
C723 C 0.78093 0.12071 0.49302 0.0
C724 C 0.72471 0.09768 0.49082 0.0
C725 C 0.75677 0.13833 0.48935 0.0
C726 C 0.67261 0.10152 0.48041 0.0
C727 C 0.66657 0.04223 0.48497 0.0
N728 N 0.72969 0.12645 0.48809 0.0
N729 N 0.69154 0.05599 0.48969 0.0
H730 H 0.96771 0.14205 0.71574 0.0
H731 H 0.84295 0.25514 0.74283 0.0
H732 H 0.87989 0.11512 0.72759 0.0
H733 H 0.93054 0.27783 0.72738 0.0
H734 H 0.85529 0.20376 0.73844 0.0
H735 H 0.954 0.19189 0.72169 0.0
C736 C 0.94558 0.14655 0.71987 0.0
C737 C 0.92501 0.12424 0.72131 0.0
C738 C 0.8717 0.2201 0.73603 0.0
C739 C 0.90881 0.18181 0.72774 0.0
C740 C 0.86468 0.24941 0.7385 0.0
C741 C 0.88571 0.27094 0.7355 0.0
C742 C 0.89993 0.2124 0.73057 0.0
C743 C 0.91352 0.26218 0.72991 0.0
C744 C 0.93765 0.17516 0.72309 0.0
C745 C 0.89643 0.13166 0.72623 0.0
N746 N 0.91975 0.23372 0.72768 0.0
N747 N 0.88913 0.15987 0.72926 0.0
H748 H 0.89342 0.42173 0.00073 0.0
H749 H 0.7442 0.37828 0.95753 0.0
H750 H 0.87851 0.41824 0.94425 0.0
H751 H 0.76491 0.35436 0.01131 0.0
H752 H 0.7954 0.38851 0.9522 0.0
H753 H 0.84922 0.39245 0.00518 0.0
C754 C 0.88117 0.41414 0.9893 0.0
C755 C 0.889 0.42265 0.97215 0.0
C756 C 0.78901 0.38056 0.96512 0.0
C757 C 0.83888 0.38976 0.97702 0.0
C758 C 0.75977 0.37481 0.96813 0.0
C759 C 0.75055 0.36577 0.98488 0.0
C760 C 0.80909 0.3781 0.97913 0.0
C761 C 0.77141 0.36137 0.99821 0.0
C762 C 0.85604 0.39752 0.99181 0.0
C763 C 0.8727 0.41243 0.9577 0.0
N764 N 0.79979 0.36822 0.99517 0.0
N765 N 0.84817 0.39688 0.96047 0.0
H766 H 0.54893 0.37542 0.24987 0.0
H767 H 0.67915 0.26351 0.23388 0.0
H768 H 0.60862 0.38202 0.20582 0.0
H769 H 0.60069 0.24223 0.26239 0.0
H770 H 0.65924 0.31185 0.22802 0.0
H771 H 0.57364 0.33117 0.25915 0.0
C772 C 0.56724 0.36766 0.24216 0.0
C773 C 0.5764 0.38235 0.22687 0.0
C774 C 0.64652 0.2966 0.23564 0.0
C775 C 0.60509 0.33199 0.23767 0.0
C776 C 0.65787 0.26911 0.23903 0.0
C777 C 0.64141 0.24883 0.2485 0.0
C778 C 0.61876 0.30391 0.24202 0.0
C779 C 0.61397 0.25715 0.25488 0.0
C780 C 0.5814 0.34248 0.24752 0.0
C781 C 0.60085 0.37164 0.21774 0.0
N782 N 0.60349 0.28407 0.25152 0.0
N783 N 0.61425 0.34702 0.22323 0.0
H784 H 0.09578 0.89188 0.36376 0.0
H785 H 0.153 0.91774 0.4602 0.0
H786 H 0.12365 0.97638 0.38169 0.0
H787 H 0.16578 0.83544 0.43386 0.0
H788 H 0.14204 0.93971 0.43154 0.0
H789 H 0.12127 0.87014 0.38902 0.0
C790 C 0.1077 0.90574 0.37288 0.0
C791 C 0.10756 0.9359 0.37078 0.0
C792 C 0.14769 0.91695 0.43198 0.0
C793 C 0.13615 0.91141 0.39971 0.0
C794 C 0.15379 0.90438 0.44833 0.0
C795 C 0.16003 0.87473 0.44934 0.0
C796 C 0.14711 0.89955 0.41662 0.0
C797 C 0.161 0.8584 0.43358 0.0
C798 C 0.12229 0.89338 0.38722 0.0
C799 C 0.12335 0.95301 0.38287 0.0
N800 N 0.15402 0.87092 0.41785 0.0
N801 N 0.13658 0.94057 0.39703 0.0
H802 H 0.07025 0.64867 0.61882 0.0
H803 H 0.17402 0.59462 0.69577 0.0
H804 H 0.12235 0.57088 0.61621 0.0
H805 H 0.13402 0.67916 0.69674 0.0
H806 H 0.15994 0.58901 0.66479 0.0
H807 H 0.09739 0.66371 0.64537 0.0
C808 C 0.08765 0.63496 0.62365 0.0
C809 C 0.09371 0.60825 0.61536 0.0
C810 C 0.15449 0.609 0.67162 0.0
C811 C 0.12481 0.62535 0.64567 0.0
C812 C 0.16248 0.61216 0.68934 0.0
C813 C 0.15478 0.6372 0.69884 0.0
C814 C 0.13804 0.63077 0.66338 0.0
C815 C 0.14023 0.65945 0.68984 0.0
C816 C 0.10322 0.64364 0.63875 0.0
C817 C 0.11688 0.59168 0.62201 0.0
N818 N 0.13178 0.65549 0.67265 0.0
N819 N 0.13124 0.60031 0.63687 0.0
H820 H 0.37904 0.55554 0.88209 0.0
H821 H 0.41398 0.67222 0.95408 0.0
H822 H 0.43451 0.62887 0.87151 0.0
H823 H 0.33214 0.62651 0.95511 0.0
H824 H 0.42079 0.65699 0.92329 0.0
H825 H 0.35911 0.58148 0.90782 0.0
C826 C 0.38649 0.57737 0.88488 0.0
C827 C 0.40898 0.58979 0.87487 0.0
C828 C 0.40109 0.65062 0.93011 0.0
C829 C 0.38678 0.61919 0.90445 0.0
C830 C 0.3973 0.65917 0.9477 0.0
C831 C 0.37262 0.65035 0.95711 0.0
C832 C 0.38044 0.63241 0.92199 0.0
C833 C 0.3515 0.63369 0.94824 0.0
C834 C 0.37519 0.5921 0.89962 0.0
C835 C 0.41784 0.61811 0.87917 0.0
N836 N 0.35617 0.62469 0.93122 0.0
N837 N 0.40716 0.6316 0.89383 0.0
H838 H 0.45196 0.89617 0.13128 0.0
H839 H 0.31627 0.84027 0.18767 0.0
H840 H 0.36319 0.91761 0.11798 0.0
H841 H 0.40059 0.85937 0.21019 0.0
H842 H 0.33471 0.85438 0.15834 0.0
H843 H 0.43432 0.8678 0.15641 0.0
C844 C 0.42872 0.89431 0.13341 0.0
C845 C 0.40896 0.90939 0.12268 0.0
C846 C 0.3492 0.855 0.1697 0.0
C847 C 0.38878 0.87718 0.15132 0.0
C848 C 0.33879 0.84688 0.18636 0.0
C849 C 0.35692 0.84903 0.20131 0.0
C850 C 0.37802 0.86469 0.16805 0.0
C851 C 0.38586 0.85777 0.19899 0.0
C852 C 0.41872 0.87832 0.14779 0.0
C853 C 0.37909 0.90653 0.12611 0.0
N854 N 0.39552 0.86537 0.18266 0.0
N855 N 0.36986 0.89087 0.14024 0.0
H856 H 0.11813 0.60818 0.88707 0.0
H857 H 0.13053 0.60265 0.78123 0.0
H858 H 0.05831 0.56272 0.85263 0.0
H859 H 0.16573 0.67381 0.81196 0.0
H860 H 0.11293 0.58073 0.80852 0.0
H861 H 0.1441 0.62606 0.86064 0.0
C862 C 0.11071 0.60183 0.87395 0.0
C863 C 0.08603 0.58426 0.87187 0.0
C864 C 0.12467 0.60105 0.80931 0.0
C865 C 0.11551 0.60399 0.84195 0.0
C866 C 0.13481 0.61355 0.79375 0.0
C867 C 0.14928 0.64028 0.79433 0.0
C868 C 0.12913 0.61526 0.82562 0.0
C869 C 0.15441 0.65329 0.81095 0.0
C870 C 0.12538 0.61204 0.85896 0.0
C871 C 0.07711 0.57651 0.8547 0.0
N872 N 0.14417 0.64072 0.826 0.0
N873 N 0.09186 0.58639 0.8404 0.0
H874 H 0.46496 0.6102 0.11991 0.0
H875 H 0.32291 0.66286 0.06769 0.0
H876 H 0.37758 0.59382 0.13816 0.0
H877 H 0.40618 0.6483 0.04277 0.0
H878 H 0.34423 0.64911 0.0963 0.0
H879 H 0.44498 0.63624 0.09443 0.0
C880 C 0.44158 0.61265 0.11875 0.0
C881 C 0.42285 0.59969 0.13106 0.0
C882 C 0.35785 0.64924 0.08458 0.0
C883 C 0.39992 0.62917 0.10194 0.0
C884 C 0.34576 0.65715 0.06829 0.0
C885 C 0.36276 0.65637 0.05284 0.0
C886 C 0.38721 0.6409 0.08541 0.0
C887 C 0.39224 0.64886 0.05434 0.0
C888 C 0.43021 0.62728 0.10415 0.0
C889 C 0.39273 0.60323 0.12882 0.0
N890 N 0.40352 0.64131 0.07033 0.0
N891 N 0.38216 0.61751 0.11447 0.0
H892 H 0.41519 0.87905 0.38388 0.0
H893 H 0.3822 0.924 0.28621 0.0
H894 H 0.40939 0.96863 0.36835 0.0
H895 H 0.34945 0.84346 0.30689 0.0
H896 H 0.39117 0.94096 0.31651 0.0
H897 H 0.38979 0.86509 0.35644 0.0
C898 C 0.40807 0.89578 0.37484 0.0
C899 C 0.41456 0.925 0.3783 0.0
C900 C 0.38155 0.91976 0.31448 0.0
C901 C 0.38604 0.90922 0.34687 0.0
C902 C 0.37654 0.91005 0.29719 0.0
C903 C 0.36529 0.88225 0.2941 0.0
C904 C 0.37604 0.90122 0.32878 0.0
C905 C 0.35815 0.86507 0.30876 0.0
C906 C 0.39351 0.88783 0.35925 0.0
C907 C 0.40474 0.94587 0.36623 0.0
N908 N 0.36423 0.8746 0.32552 0.0
N909 N 0.39147 0.93754 0.35089 0.0
H910 H 0.09876 0.94291 0.62769 0.0
H911 H 0.11918 0.83526 0.54502 0.0
H912 H 0.0417 0.86984 0.6187 0.0
H913 H 0.15127 0.923 0.54803 0.0
H914 H 0.09918 0.84092 0.57523 0.0
H915 H 0.1274 0.9282 0.60215 0.0
C916 C 0.09253 0.92337 0.6206 0.0
C917 C 0.06758 0.9077 0.62537 0.0
C918 C 0.11092 0.85872 0.56928 0.0
C919 C 0.1001 0.89118 0.59561 0.0
C920 C 0.1224 0.85547 0.55215 0.0
C921 C 0.13653 0.87884 0.54402 0.0
C922 C 0.11424 0.88528 0.57831 0.0
C923 C 0.14014 0.9046 0.55374 0.0
C924 C 0.1088 0.91516 0.60586 0.0
C925 C 0.06047 0.88285 0.61533 0.0
N926 N 0.12903 0.90713 0.57032 0.0
N927 N 0.07651 0.87548 0.60079 0.0
H928 H 0.6271 0.4503 0.8813 0.0
H929 H 0.64771 0.3097 0.94047 0.0
H930 H 0.57002 0.37628 0.8758 0.0
H931 H 0.65423 0.39648 0.96176 0.0
H932 H 0.63314 0.33005 0.91165 0.0
H933 H 0.65158 0.42616 0.90592 0.0
C934 C 0.61977 0.42895 0.88512 0.0
C935 C 0.59585 0.41571 0.87667 0.0
C936 C 0.63821 0.3445 0.92262 0.0
C937 C 0.62463 0.38768 0.90438 0.0
C938 C 0.64657 0.333 0.93897 0.0
C939 C 0.65193 0.35152 0.95346 0.0
C940 C 0.6361 0.37464 0.92075 0.0
C941 C 0.65005 0.3815 0.95093 0.0
C942 C 0.63394 0.41517 0.89908 0.0
C943 C 0.58827 0.38745 0.88183 0.0
N944 N 0.64234 0.39218 0.93486 0.0
N945 N 0.60249 0.37444 0.89546 0.0
H946 H 0.54059 0.13378 0.13217 0.0
H947 H 0.67391 0.10627 0.19491 0.0
H948 H 0.61288 0.07854 0.11821 0.0
H949 H 0.61492 0.17756 0.20346 0.0
H950 H 0.65548 0.10088 0.16471 0.0
H951 H 0.57015 0.15545 0.15588 0.0
C952 C 0.5629 0.1267 0.13382 0.0
C953 C 0.5741 0.10385 0.12349 0.0
C954 C 0.64685 0.11812 0.17298 0.0
C955 C 0.60781 0.12819 0.15069 0.0
C956 C 0.6574 0.12116 0.19022 0.0
C957 C 0.64566 0.14219 0.2016 0.0
C958 C 0.6237 0.13565 0.16727 0.0
C959 C 0.62442 0.16106 0.19498 0.0
C960 C 0.57974 0.13901 0.14739 0.0
C961 C 0.60312 0.09552 0.12621 0.0
N962 N 0.61357 0.15693 0.17831 0.0
N963 N 0.61879 0.10733 0.13972 0.0
H964 H 0.89859 0.05225 0.37893 0.0
H965 H 0.85114 0.19516 0.43183 0.0
H966 H 0.92097 0.13785 0.3608 0.0
H967 H 0.87295 0.11441 0.45709 0.0
H968 H 0.86271 0.17308 0.40283 0.0
H969 H 0.87423 0.07393 0.40467 0.0
C970 C 0.89775 0.07564 0.38016 0.0
C971 C 0.91194 0.09333 0.36783 0.0
C972 C 0.86456 0.16021 0.41475 0.0
C973 C 0.8843 0.11813 0.39718 0.0
C974 C 0.8579 0.17269 0.43122 0.0
C975 C 0.86144 0.1566 0.44681 0.0
C976 C 0.87408 0.13133 0.41396 0.0
C977 C 0.8703 0.12762 0.44538 0.0
C978 C 0.88407 0.08794 0.39489 0.0
C979 C 0.91051 0.12351 0.37015 0.0
N980 N 0.87632 0.11589 0.42923 0.0
N981 N 0.89705 0.13501 0.38464 0.0
H982 H 0.90331 0.40185 0.61107 0.0
H983 H 0.90021 0.3971 0.71709 0.0
H984 H 0.94187 0.46657 0.64535 0.0
H985 H 0.83594 0.35225 0.68529 0.0
H986 H 0.92205 0.41591 0.69011 0.0
H987 H 0.88408 0.37711 0.6375 0.0
C988 C 0.90777 0.41071 0.62415 0.0
C989 C 0.92387 0.43637 0.62611 0.0
C990 C 0.90322 0.40188 0.689 0.0
C991 C 0.90253 0.40827 0.65611 0.0
C992 C 0.89078 0.39104 0.7044 0.0
C993 C 0.86604 0.37332 0.70342 0.0
C994 C 0.89099 0.39488 0.67243 0.0
C995 C 0.85489 0.36604 0.6866 0.0
C996 C 0.89678 0.39672 0.63915 0.0
C997 C 0.92917 0.44706 0.64328 0.0
N998 N 0.86741 0.37696 0.67169 0.0
N999 N 0.9186 0.43294 0.65759 0.0
H1000 H 0.63316 0.09058 0.38836 0.0
H1001 H 0.63974 0.09471 0.28231 0.0
H1002 H 0.60313 0.02197 0.35361 0.0
H1003 H 0.66995 0.16535 0.31537 0.0
H1004 H 0.63045 0.06634 0.30876 0.0
H1005 H 0.6507 0.11696 0.36234 0.0
C1006 C 0.63044 0.08095 0.37531 0.0
C1007 C 0.61656 0.05398 0.37322 0.0
C1008 C 0.63925 0.08798 0.31031 0.0
C1009 C 0.63666 0.08399 0.34344 0.0
C1010 C 0.64456 0.10423 0.29517 0.0
C1011 C 0.65543 0.13253 0.29665 0.0
C1012 C 0.64461 0.1001 0.32716 0.0
C1013 C 0.66144 0.14363 0.31367 0.0
C1014 C 0.64055 0.09598 0.36047 0.0
C1015 C 0.61401 0.04243 0.35599 0.0
N1016 N 0.65572 0.12746 0.32831 0.0
N1017 N 0.62376 0.05755 0.34182 0.0
H1018 H 0.88102 0.10218 0.62825 0.0
H1019 H 0.93763 0.14047 0.53363 0.0
H1020 H 0.97263 0.1092 0.61662 0.0
H1021 H 0.85324 0.16929 0.55145 0.0
H1022 H 0.95137 0.13109 0.5644 0.0
H1023 H 0.8701 0.1288 0.60097 0.0
C1024 C 0.89882 0.10979 0.6201 0.0
C1025 C 0.92775 0.1033 0.62459 0.0
C1026 C 0.93004 0.14 0.56166 0.0
C1027 C 0.91547 0.13329 0.59334 0.0
C1028 C 0.92218 0.14529 0.5441 0.0
C1029 C 0.89422 0.15545 0.54005 0.0
C1030 C 0.90949 0.14412 0.57522 0.0
C1031 C 0.87503 0.16147 0.55407 0.0
C1032 C 0.89261 0.12506 0.60459 0.0
C1033 C 0.95004 0.11381 0.61367 0.0
N1034 N 0.8828 0.15509 0.57106 0.0
N1035 N 0.94341 0.1278 0.59837 0.0
H1036 H 0.86324 0.45131 0.87817 0.0
H1037 H 0.91069 0.34354 0.80155 0.0
H1038 H 0.93806 0.39484 0.88068 0.0
H1039 H 0.82798 0.38763 0.80095 0.0
H1040 H 0.91706 0.35726 0.83257 0.0
H1041 H 0.84604 0.4243 0.85205 0.0
C1042 C 0.87584 0.43302 0.87341 0.0
C1043 C 0.90239 0.42566 0.88153 0.0
C1044 C 0.89725 0.36365 0.82584 0.0
C1045 C 0.8828 0.39467 0.85172 0.0
C1046 C 0.89365 0.3558 0.80811 0.0
C1047 C 0.86896 0.36477 0.79872 0.0
C1048 C 0.87636 0.38132 0.83416 0.0
C1049 C 0.84737 0.38038 0.80781 0.0
C1050 C 0.86591 0.41751 0.85856 0.0
C1051 C 0.91745 0.40136 0.875 0.0
N1052 N 0.85184 0.38873 0.82499 0.0
N1053 N 0.90766 0.38707 0.86037 0.0
H1054 H 0.55236 0.37953 0.12192 0.0
H1055 H 0.6697 0.41296 0.05037 0.0
H1056 H 0.62409 0.43767 0.13248 0.0
H1057 H 0.62747 0.32952 0.05136 0.0
H1058 H 0.65308 0.42216 0.08067 0.0
H1059 H 0.57928 0.35949 0.09666 0.0
C1060 C 0.574 0.38767 0.11921 0.0
C1061 C 0.58568 0.41081 0.12914 0.0
C1062 C 0.64782 0.40162 0.0744 0.0
C1063 C 0.6162 0.3884 0.10003 0.0
C1064 C 0.65718 0.39645 0.05709 0.0
C1065 C 0.64975 0.37056 0.04838 0.0
C1066 C 0.63019 0.38111 0.08289 0.0
C1067 C 0.63365 0.34976 0.05768 0.0
C1068 C 0.58929 0.37627 0.10473 0.0
C1069 C 0.61379 0.42051 0.12487 0.0
N1070 N 0.62385 0.35573 0.07436 0.0
N1071 N 0.62782 0.40967 0.11045 0.0
loop_
_geom_bond_atom_site_label_1
_geom_bond_atom_site_label_2
_geom_bond_distance
_geom_bond_site_symmetry_2
_ccdc_geom_bond_type
H0 C19 0.949 . S
H1 C20 0.950 . S
H2 C22 0.950 . S
H3 C23 0.950 . S
H4 C25 0.950 . S
H5 C28 0.950 . S
H6 C29 0.950 . S
H7 C31 0.951 . S
H8 C32 0.957 . S
H9 C34 0.949 . S
H10 C35 0.950 . S
H11 C37 0.950 . S
H12 C38 0.950 . S
H13 C40 0.950 1_565 S
H14 C43 0.950 . S
H15 C44 0.950 . S
H16 C46 0.951 . S
H17 C47 0.949 1_545 S
C18 C19 1.376 . S
C18 C23 1.386 . S
C18 C24 1.483 . S
C19 H0 0.949 . S
C19 C18 1.376 . S
C19 C20 1.397 . S
C20 H1 0.950 . S
C20 C19 1.397 . S
C20 C21 1.391 . S
C21 C20 1.391 . S
C21 C22 1.405 . S
C22 H2 0.950 . S
C22 C21 1.405 . S
C22 C23 1.367 . S
C23 H3 0.950 . S
C23 C18 1.386 . S
C23 C22 1.367 . S
C24 C18 1.483 . S
C24 C25 1.382 1_655 S
C24 C26 1.403 . S
C25 H4 0.950 . S
C25 C24 1.382 1_455 S
C25 C41 1.411 1_545 S
C26 C24 1.403 . S
C26 C27 1.489 . S
C26 C40 1.411 1_655 S
C27 C26 1.489 . S
C27 C28 1.383 . S
C27 C32 1.382 . S
C28 H5 0.950 . S
C28 C27 1.383 . S
C28 C29 1.395 . S
C29 H6 0.950 . S
C29 C28 1.395 . S
C29 C30 1.288 . S
C30 C29 1.288 . S
C30 C31 1.392 . S
C31 H7 0.951 . S
C31 C30 1.392 . S
C31 C32 1.392 . S
C32 H8 0.957 . S
C32 C27 1.382 . S
C32 C31 1.392 . S
C33 C34 1.376 . S
C33 C38 1.386 . S
C33 C39 1.483 . S
C34 H9 0.949 . S
C34 C33 1.376 . S
C34 C35 1.397 . S
C35 H10 0.950 . S
C35 C34 1.397 . S
C35 C36 1.391 . S
C36 C35 1.391 . S
C36 C37 1.405 . S
C37 H11 0.950 . S
C37 C36 1.405 . S
C37 C38 1.367 . S
C38 H12 0.950 . S
C38 C33 1.386 . S
C38 C37 1.367 . S
C39 C33 1.483 . S
C39 C40 1.382 1_565 S
C39 C41 1.403 . S
C40 H13 0.950 1_545 S
C40 C26 1.411 1_455 S
C40 C39 1.382 1_545 S
C41 C25 1.411 1_565 S
C41 C39 1.403 . S
C41 C42 1.489 . S
C42 C41 1.489 . S
C42 C43 1.383 . S
C42 C47 1.382 . S
C43 H14 0.950 . S
C43 C42 1.383 . S
C43 C44 1.395 . S
C44 H15 0.950 . S
C44 C43 1.395 . S
C44 C45 1.288 . S
C45 C44 1.288 . S
C45 C46 1.392 . S
C46 H16 0.951 . S
C46 C45 1.392 . S
C46 C47 1.392 . S
C47 H17 0.949 1_565 S
C47 C42 1.382 . S
C47 C46 1.392 . S
H48 C67 0.949 1_455 S
H49 C68 0.950 . S
H50 C70 0.950 . S
H51 C71 0.950 . S
H52 C73 0.950 . S
H53 C76 0.950 . S
H54 C77 0.950 . S
H55 C79 0.951 . S
H56 C80 0.949 . S
H57 C82 0.974 . S
H58 C83 0.950 . S
H59 C85 0.950 . S
H60 C86 0.950 . S
H61 C88 0.950 1_655 S
H62 C91 0.950 . S
H63 C92 0.950 . S
H64 C94 0.951 . S
H65 C95 0.949 . S
C66 C67 1.376 . S
C66 C71 1.386 . S
C66 C72 1.483 . S
C67 H48 0.949 1_655 S
C67 C66 1.376 . S
C67 C68 1.397 . S
C68 H49 0.950 . S
C68 C67 1.397 . S
C68 C69 1.391 . S
C69 C68 1.391 . S
C69 C70 1.405 . S
C70 H50 0.950 . S
C70 C69 1.405 . S
C70 C71 1.367 . S
C71 H51 0.950 . S
C71 C66 1.386 . S
C71 C70 1.367 . S
C72 C66 1.483 . S
C72 C73 1.382 1_655 S
C72 C74 1.403 . S
C73 H52 0.950 . S
C73 C72 1.382 1_455 S
C73 C89 1.411 . S
C74 C72 1.403 . S
C74 C75 1.489 . S
C74 C88 1.411 1_655 S
C75 C74 1.489 . S
C75 C76 1.383 . S
C75 C80 1.382 . S
C76 H53 0.950 . S
C76 C75 1.383 . S
C76 C77 1.395 . S
C77 H54 0.950 . S
C77 C76 1.395 . S
C77 C78 1.288 . S
C78 C77 1.288 . S
C78 C79 1.392 . S
C79 H55 0.951 . S
C79 C78 1.392 . S
C79 C80 1.392 . S
C80 H56 0.949 . S
C80 C75 1.382 . S
C80 C79 1.392 . S
C81 C82 1.376 . S
C81 C86 1.386 . S
C81 C87 1.483 . S
C82 H57 0.974 . S
C82 C81 1.376 . S
C82 C83 1.397 . S
C83 H58 0.950 . S
C83 C82 1.397 . S
C83 C84 1.391 . S
C84 C83 1.391 . S
C84 C85 1.405 . S
C85 H59 0.950 . S
C85 C84 1.405 . S
C85 C86 1.367 . S
C86 H60 0.950 . S
C86 C81 1.386 . S
C86 C85 1.367 . S
C87 C81 1.483 . S
C87 C88 1.382 . S
C87 C89 1.403 . S
C88 H61 0.950 1_455 S
C88 C74 1.411 1_455 S
C88 C87 1.382 . S
C89 C73 1.411 . S
C89 C87 1.403 . S
C89 C90 1.489 . S
C90 C89 1.489 . S
C90 C91 1.383 . S
C90 C95 1.382 . S
C91 H62 0.950 . S
C91 C90 1.383 . S
C91 C92 1.395 . S
C92 H63 0.950 . S
C92 C91 1.395 . S
C92 C93 1.288 . S
C93 C92 1.288 . S
C93 C94 1.392 . S
C94 H64 0.951 . S
C94 C93 1.392 . S
C94 C95 1.392 . S
C95 H65 0.949 . S
C95 C90 1.382 . S
C95 C94 1.392 . S
H96 C115 0.949 . S
H97 C116 0.950 . S
H98 C118 0.950 . S
H99 C119 0.950 . S
H100 C121 0.950 . S
H101 C124 0.950 . S
H102 C125 0.950 . S
H103 C127 0.951 . S
H104 C128 0.949 . S
H105 C130 0.949 . S
H106 C131 0.950 . S
H107 C133 0.950 . S
H108 C134 0.950 . S
H109 C136 0.950 . S
H110 C139 0.950 . S
H111 C140 0.950 . S
H112 C142 0.951 . S
H113 C143 0.949 . S
C114 C115 1.376 . S
C114 C119 1.386 . S
C114 C120 1.483 . S
C115 H96 0.949 . S
C115 C114 1.376 . S
C115 C116 1.397 . S
C116 H97 0.950 . S
C116 C115 1.397 . S
C116 C117 1.391 . S
C117 C116 1.391 . S
C117 C118 1.405 . S
C118 H98 0.950 . S
C118 C117 1.405 . S
C118 C119 1.367 . S
C119 H99 0.950 . S
C119 C114 1.386 . S
C119 C118 1.367 . S
C120 C114 1.483 . S
C120 C121 1.382 . S
C120 C122 1.403 . S
C121 H100 0.950 . S
C121 C120 1.382 . S
C121 C137 1.411 . S
C122 C120 1.403 . S
C122 C123 1.489 . S
C122 C136 1.411 . S
C123 C122 1.489 . S
C123 C124 1.383 . S
C123 C128 1.382 . S
C124 H101 0.950 . S
C124 C123 1.383 . S
C124 C125 1.395 . S
C125 H102 0.950 . S
C125 C124 1.395 . S
C125 C126 1.288 . S
C126 C125 1.288 . S
C126 C127 1.392 . S
C127 H103 0.951 . S
C127 C126 1.392 . S
C127 C128 1.392 . S
C128 H104 0.949 . S
C128 C123 1.382 . S
C128 C127 1.392 . S
C129 C130 1.376 . S
C129 C134 1.386 . S
C129 C135 1.483 . S
C130 H105 0.949 . S
C130 C129 1.376 . S
C130 C131 1.397 . S
C131 H106 0.950 . S
C131 C130 1.397 . S
C131 C132 1.391 . S
C132 C131 1.391 . S
C132 C133 1.405 . S
C133 H107 0.950 . S
C133 C132 1.405 . S
C133 C134 1.367 . S
C134 H108 0.950 . S
C134 C129 1.386 . S
C134 C133 1.367 . S
C135 C129 1.483 . S
C135 C136 1.382 . S
C135 C137 1.403 . S
C136 H109 0.950 . S
C136 C122 1.411 . S
C136 C135 1.382 . S
C137 C121 1.411 . S
C137 C135 1.403 . S
C137 C138 1.489 . S
C138 C137 1.489 . S
C138 C139 1.383 . S
C138 C143 1.382 . S
C139 H110 0.950 . S
C139 C138 1.383 . S
C139 C140 1.395 . S
C140 H111 0.950 . S
C140 C139 1.395 . S
C140 C141 1.288 . S
C141 C140 1.288 . S
C141 C142 1.392 . S
C142 H112 0.951 . S
C142 C141 1.392 . S
C142 C143 1.392 . S
C143 H113 0.949 . S
C143 C138 1.382 . S
C143 C142 1.392 . S
H144 C163 0.949 . S
H145 C164 0.950 . S
H146 C166 0.950 . S
H147 C167 0.950 . S
H148 C169 0.950 . S
H149 C172 0.950 . S
H150 C173 0.950 . S
H151 C175 0.951 . S
H152 C176 0.949 . S
H153 C178 0.949 . S
H154 C179 0.950 . S
H155 C181 0.950 . S
H156 C182 0.950 . S
H157 C184 0.950 . S
H158 C187 0.950 . S
H159 C188 0.950 . S
H160 C190 0.951 . S
H161 C191 0.949 . S
C162 C163 1.376 . S
C162 C167 1.386 . S
C162 C168 1.483 . S
C163 H144 0.949 . S
C163 C162 1.376 . S
C163 C164 1.397 . S
C164 H145 0.950 . S
C164 C163 1.397 . S
C164 C165 1.391 . S
C165 C164 1.391 . S
C165 C166 1.405 . S
C166 H146 0.950 . S
C166 C165 1.405 . S
C166 C167 1.367 . S
C167 H147 0.950 . S
C167 C162 1.386 . S
C167 C166 1.367 . S
C168 C162 1.483 . S
C168 C169 1.382 . S
C168 C170 1.403 . S
C169 H148 0.950 . S
C169 C168 1.382 . S
C169 C185 1.411 1_565 S
C170 C168 1.403 . S
C170 C171 1.489 . S
C170 C184 1.411 1_565 S
C171 C170 1.489 . S
C171 C172 1.383 . S
C171 C176 1.382 . S
C172 H149 0.950 . S
C172 C171 1.383 . S
C172 C173 1.395 . S
C173 H150 0.950 . S
C173 C172 1.395 . S
C173 C174 1.288 . S
C174 C173 1.288 . S
C174 C175 1.392 . S
C175 H151 0.951 . S
C175 C174 1.392 . S
C175 C176 1.392 . S
C176 H152 0.949 . S
C176 C171 1.382 . S
C176 C175 1.392 . S
C177 C178 1.376 . S
C177 C182 1.386 . S
C177 C183 1.483 . S
C178 H153 0.949 . S
C178 C177 1.376 . S
C178 C179 1.397 . S
C179 H154 0.950 . S
C179 C178 1.397 . S
C179 C180 1.391 . S
C180 C179 1.391 . S
C180 C181 1.405 . S
C181 H155 0.950 . S
C181 C180 1.405 . S
C181 C182 1.367 . S
C182 H156 0.950 . S
C182 C177 1.386 . S
C182 C181 1.367 . S
C183 C177 1.483 . S
C183 C184 1.382 . S
C183 C185 1.403 . S
C184 H157 0.950 . S
C184 C170 1.411 1_545 S
C184 C183 1.382 . S
C185 C169 1.411 1_545 S
C185 C183 1.403 . S
C185 C186 1.489 . S
C186 C185 1.489 . S
C186 C187 1.383 . S
C186 C191 1.382 . S
C187 H158 0.950 . S
C187 C186 1.383 . S
C187 C188 1.395 . S
C188 H159 0.950 . S
C188 C187 1.395 . S
C188 C189 1.288 . S
C189 C188 1.288 . S
C189 C190 1.392 . S
C190 H160 0.951 . S
C190 C189 1.392 . S
C190 C191 1.392 . S
C191 H161 0.949 . S
C191 C186 1.382 . S
C191 C190 1.392 . S
H192 C211 0.949 . S
H193 C212 0.950 . S
H194 C214 0.950 . S
H195 C215 0.950 . S
H196 C217 0.950 . S
H197 C220 0.950 . S
H198 C221 0.950 . S
H199 C223 0.951 . S
H200 C224 0.949 . S
H201 C226 0.949 . S
H202 C227 0.950 . S
H203 C229 0.950 . S
H204 C230 0.950 . S
H205 C232 0.950 . S
H206 C235 0.950 . S
H207 C236 0.950 . S
H208 C238 0.951 . S
H209 C239 0.949 . S
C210 C211 1.376 . S
C210 C215 1.386 . S
C210 C216 1.483 . S
C211 H192 0.949 . S
C211 C210 1.376 . S
C211 C212 1.397 . S
C212 H193 0.950 . S
C212 C211 1.397 . S
C212 C213 1.391 . S
C213 C212 1.391 . S
C213 C214 1.405 . S
C214 H194 0.950 . S
C214 C213 1.405 . S
C214 C215 1.367 . S
C215 H195 0.950 . S
C215 C210 1.386 . S
C215 C214 1.367 . S
C216 C210 1.483 . S
C216 C217 1.382 1_455 S
C216 C218 1.403 . S
C217 H196 0.950 . S
C217 C216 1.382 1_655 S
C217 C233 1.411 . S
C218 C216 1.403 . S
C218 C219 1.489 . S
C218 C232 1.411 . S
C219 C218 1.489 . S
C219 C220 1.383 . S
C219 C224 1.382 . S
C220 H197 0.950 . S
C220 C219 1.383 . S
C220 C221 1.395 . S
C221 H198 0.950 . S
C221 C220 1.395 . S
C221 C222 1.288 . S
C222 C221 1.288 . S
C222 C223 1.392 . S
C223 H199 0.951 . S
C223 C222 1.392 . S
C223 C224 1.392 . S
C224 H200 0.949 . S
C224 C219 1.382 . S
C224 C223 1.392 . S
C225 C226 1.376 . S
C225 C230 1.386 . S
C225 C231 1.483 . S
C226 H201 0.949 . S
C226 C225 1.376 . S
C226 C227 1.397 . S
C227 H202 0.950 . S
C227 C226 1.397 . S
C227 C228 1.391 . S
C228 C227 1.391 . S
C228 C229 1.405 . S
C229 H203 0.950 . S
C229 C228 1.405 . S
C229 C230 1.367 . S
C230 H204 0.950 . S
C230 C225 1.386 . S
C230 C229 1.367 . S
C231 C225 1.483 . S
C231 C232 1.382 1_655 S
C231 C233 1.403 . S
C232 H205 0.950 . S
C232 C218 1.411 . S
C232 C231 1.382 1_455 S
C233 C217 1.411 . S
C233 C231 1.403 . S
C233 C234 1.489 . S
C234 C233 1.489 . S
C234 C235 1.383 . S
C234 C239 1.382 . S
C235 H206 0.950 . S
C235 C234 1.383 . S
C235 C236 1.395 . S
C236 H207 0.950 . S
C236 C235 1.395 . S
C236 C237 1.288 . S
C237 C236 1.288 . S
C237 C238 1.392 . S
C238 H208 0.951 . S
C238 C237 1.392 . S
C238 C239 1.392 . S
C239 H209 0.949 . S
C239 C234 1.382 . S
C239 C238 1.392 . S
H240 C259 0.949 . S
H241 C260 0.950 . S
H242 C262 0.950 . S
H243 C263 0.950 . S
H244 C265 0.950 . S
H245 C268 0.950 . S
H246 C269 0.950 . S
H247 C271 0.951 . S
H248 C272 0.949 . S
H249 C274 0.949 . S
H250 C275 0.950 . S
H251 C277 0.950 . S
H252 C278 0.950 . S
H253 C280 0.950 . S
H254 C283 0.950 . S
H255 C284 0.950 . S
H256 C286 0.951 . S
H257 C287 0.949 . S
C258 C259 1.376 . S
C258 C263 1.386 . S
C258 C264 1.483 . S
C259 H240 0.949 . S
C259 C258 1.376 . S
C259 C260 1.397 . S
C260 H241 0.950 . S
C260 C259 1.397 . S
C260 C261 1.391 . S
C261 C260 1.391 . S
C261 C262 1.405 . S
C262 H242 0.950 . S
C262 C261 1.405 . S
C262 C263 1.367 . S
C263 H243 0.950 . S
C263 C258 1.386 . S
C263 C262 1.367 . S
C264 C258 1.483 . S
C264 C265 1.382 . S
C264 C266 1.403 . S
C265 H244 0.950 . S
C265 C264 1.382 . S
C265 C281 1.411 . S
C266 C264 1.403 . S
C266 C267 1.489 . S
C266 C280 1.411 . S
C267 C266 1.489 . S
C267 C268 1.383 . S
C267 C272 1.382 . S
C268 H245 0.950 . S
C268 C267 1.383 . S
C268 C269 1.395 . S
C269 H246 0.950 . S
C269 C268 1.395 . S
C269 C270 1.288 . S
C270 C269 1.288 . S
C270 C271 1.392 . S
C271 H247 0.951 . S
C271 C270 1.392 . S
C271 C272 1.392 . S
C272 H248 0.949 . S
C272 C267 1.382 . S
C272 C271 1.392 . S
C273 C274 1.376 . S
C273 C278 1.386 . S
C273 C279 1.483 . S
C274 H249 0.949 . S
C274 C273 1.376 . S
C274 C275 1.397 . S
C275 H250 0.950 . S
C275 C274 1.397 . S
C275 C276 1.391 . S
C276 C275 1.391 . S
C276 C277 1.405 . S
C277 H251 0.950 . S
C277 C276 1.405 . S
C277 C278 1.367 . S
C278 H252 0.950 . S
C278 C273 1.386 . S
C278 C277 1.367 . S
C279 C273 1.483 . S
C279 C280 1.382 . S
C279 C281 1.403 . S
C280 H253 0.950 . S
C280 C266 1.411 . S
C280 C279 1.382 . S
C281 C265 1.411 . S
C281 C279 1.403 . S
C281 C282 1.489 . S
C282 C281 1.489 . S
C282 C283 1.383 . S
C282 C287 1.382 . S
C283 H254 0.950 . S
C283 C282 1.383 . S
C283 C284 1.395 . S
C284 H255 0.950 . S
C284 C283 1.395 . S
C284 C285 1.288 . S
C285 C284 1.288 . S
C285 C286 1.392 . S
C286 H256 0.951 . S
C286 C285 1.392 . S
C286 C287 1.392 . S
C287 H257 0.949 . S
C287 C282 1.382 . S
C287 C286 1.392 . S
H288 C307 0.949 . S
H289 C308 0.950 . S
H290 C310 0.950 . S
H291 C311 0.950 . S
H292 C313 0.953 . S
H293 C316 0.950 . S
H294 C317 0.950 . S
H295 C319 0.951 . S
H296 C320 0.949 1_545 S
H297 C322 0.949 . S
H298 C323 0.950 . S
H299 C325 0.950 . S
H300 C326 0.950 . S
H301 C328 0.950 . S
H302 C331 0.950 . S
H303 C332 0.950 . S
H304 C334 0.951 . S
H305 C335 0.949 1_565 S
C306 C307 1.376 . S
C306 C311 1.386 . S
C306 C312 1.483 . S
C307 H288 0.949 . S
C307 C306 1.376 . S
C307 C308 1.397 . S
C308 H289 0.950 . S
C308 C307 1.397 . S
C308 C309 1.391 . S
C309 C308 1.391 . S
C309 C310 1.405 . S
C310 H290 0.950 . S
C310 C309 1.405 . S
C310 C311 1.367 . S
C311 H291 0.950 . S
C311 C306 1.386 . S
C311 C310 1.367 . S
C312 C306 1.483 . S
C312 C313 1.389 . S
C312 C314 1.403 . S
C313 H292 0.953 . S
C313 C312 1.389 . S
C313 C329 1.402 1_565 S
C314 C312 1.403 . S
C314 C315 1.489 . S
C314 C328 1.411 1_565 S
C315 C314 1.489 . S
C315 C316 1.383 . S
C315 C320 1.382 . S
C316 H293 0.950 . S
C316 C315 1.383 . S
C316 C317 1.395 . S
C317 H294 0.950 . S
C317 C316 1.395 . S
C317 C318 1.288 . S
C318 C317 1.288 . S
C318 C319 1.392 . S
C319 H295 0.951 . S
C319 C318 1.392 . S
C319 C320 1.392 . S
C320 H296 0.949 1_565 S
C320 C315 1.382 . S
C320 C319 1.392 . S
C321 C322 1.376 . S
C321 C326 1.386 . S
C321 C327 1.483 . S
C322 H297 0.949 . S
C322 C321 1.376 . S
C322 C323 1.397 . S
C323 H298 0.950 . S
C323 C322 1.397 . S
C323 C324 1.391 . S
C324 C323 1.391 . S
C324 C325 1.405 . S
C325 H299 0.950 . S
C325 C324 1.405 . S
C325 C326 1.367 . S
C326 H300 0.950 . S
C326 C321 1.386 . S
C326 C325 1.367 . S
C327 C321 1.483 . S
C327 C328 1.382 . S
C327 C329 1.403 . S
C328 H301 0.950 . S
C328 C314 1.411 1_545 S
C328 C327 1.382 . S
C329 C313 1.402 1_545 S
C329 C327 1.403 . S
C329 C330 1.489 . S
C330 C329 1.489 . S
C330 C331 1.383 . S
C330 C335 1.382 . S
C331 H302 0.950 . S
C331 C330 1.383 . S
C331 C332 1.395 . S
C332 H303 0.950 . S
C332 C331 1.395 . S
C332 C333 1.288 . S
C333 C332 1.288 . S
C333 C334 1.392 . S
C334 H304 0.951 . S
C334 C333 1.392 . S
C334 C335 1.392 . S
C335 H305 0.949 1_545 S
C335 C330 1.382 . S
C335 C334 1.392 . S
H336 C355 0.949 1_455 S
H337 C356 0.950 . S
H338 C358 0.950 . S
H339 C359 0.950 . S
H340 C361 0.950 . S
H341 C364 0.950 . S
H342 C365 0.950 . S
H343 C367 0.951 . S
H344 C368 0.949 . S
H345 C370 0.949 . S
H346 C371 0.950 . S
H347 C373 0.950 . S
H348 C374 0.950 . S
H349 C376 0.950 . S
H350 C379 0.950 . S
H351 C380 0.950 . S
H352 C382 0.951 . S
H353 C383 0.949 1_545 S
C354 C355 1.376 . S
C354 C359 1.386 . S
C354 C360 1.483 . S
C355 H336 0.949 1_655 S
C355 C354 1.376 . S
C355 C356 1.397 . S
C356 H337 0.950 . S
C356 C355 1.397 . S
C356 C357 1.391 . S
C357 C356 1.391 . S
C357 C358 1.405 . S
C358 H338 0.950 . S
C358 C357 1.405 . S
C358 C359 1.367 . S
C359 H339 0.950 . S
C359 C354 1.386 . S
C359 C358 1.367 . S
C360 C354 1.483 . S
C360 C361 1.382 1_655 S
C360 C362 1.403 . S
C361 H340 0.950 . S
C361 C360 1.382 1_455 S
C361 C377 1.411 1_545 S
C362 C360 1.403 . S
C362 C363 1.489 . S
C362 C376 1.411 1_655 S
C363 C362 1.489 . S
C363 C364 1.383 . S
C363 C368 1.382 . S
C364 H341 0.950 . S
C364 C363 1.383 . S
C364 C365 1.395 . S
C365 H342 0.950 . S
C365 C364 1.395 . S
C365 C366 1.288 . S
C366 C365 1.288 . S
C366 C367 1.392 . S
C367 H343 0.951 . S
C367 C366 1.392 . S
C367 C368 1.392 . S
C368 H344 0.949 . S
C368 C363 1.382 . S
C368 C367 1.392 . S
C369 C370 1.376 . S
C369 C374 1.386 . S
C369 C375 1.483 . S
C370 H345 0.949 . S
C370 C369 1.376 . S
C370 C371 1.397 . S
C371 H346 0.950 . S
C371 C370 1.397 . S
C371 C372 1.391 . S
C372 C371 1.391 . S
C372 C373 1.405 . S
C373 H347 0.950 . S
C373 C372 1.405 . S
C373 C374 1.367 . S
C374 H348 0.950 . S
C374 C369 1.386 . S
C374 C373 1.367 . S
C375 C369 1.483 . S
C375 C376 1.382 1_565 S
C375 C377 1.403 . S
C376 H349 0.950 . S
C376 C362 1.411 1_455 S
C376 C375 1.382 1_545 S
C377 C361 1.411 1_565 S
C377 C375 1.403 . S
C377 C378 1.489 . S
C378 C377 1.489 . S
C378 C379 1.383 . S
C378 C383 1.382 . S
C379 H350 0.950 . S
C379 C378 1.383 . S
C379 C380 1.395 . S
C380 H351 0.950 . S
C380 C379 1.395 . S
C380 C381 1.288 . S
C381 C380 1.288 . S
C381 C382 1.392 . S
C382 H352 0.951 . S
C382 C381 1.392 . S
C382 C383 1.392 . S
C383 H353 0.949 1_565 S
C383 C378 1.382 . S
C383 C382 1.392 . S
Co384 O385 2.216 1_554 S
Co384 O386 2.091 1_554 S
Co384 O388 2.004 . S
Co384 O394 2.021 1_554 S
Co384 O396 2.137 . S
Co384 O397 2.244 . S
O385 Co384 2.216 1_556 S
O385 C392 1.247 . S
O386 Co384 2.091 1_556 S
O386 C392 1.261 . S
C387 O396 1.247 . S
C387 O397 1.272 . S
O388 Co384 2.004 . S
O388 C393 1.259 . S
Co389 O390 2.061 . S
Co389 O395 2.052 1_554 S
Co389 O397 2.135 . S
O390 Co389 2.061 . S
O390 C393 1.235 . S
C391 O394 1.238 . S
C391 O395 1.241 . S
C392 O385 1.247 . S
C392 O386 1.261 . S
C393 O388 1.259 . S
C393 O390 1.235 . S
O394 Co384 2.021 1_556 S
O394 C391 1.238 . S
O395 Co389 2.052 1_556 S
O395 C391 1.241 . S
O396 Co384 2.137 . S
O396 C387 1.247 . S
O397 Co384 2.244 . S
O397 C387 1.272 . S
O397 Co389 2.135 . S
Co398 O399 2.216 . S
Co398 O400 2.091 . S
Co398 O402 2.004 . S
Co398 O408 2.021 . S
Co398 O410 2.137 . S
Co398 O411 2.244 . S
O399 Co398 2.216 . S
O399 C406 1.247 . S
O400 Co398 2.091 . S
O400 C406 1.261 . S
C401 O410 1.247 . S
C401 O411 1.272 . S
O402 Co398 2.004 . S
O402 C407 1.259 . S
Co403 O404 2.061 . S
Co403 O409 2.052 . S
Co403 O411 2.135 . S
O404 Co403 2.061 . S
O404 C407 1.235 . S
C405 O408 1.238 . S
C405 O409 1.241 . S
C406 O399 1.247 . S
C406 O400 1.261 . S
C407 O402 1.259 . S
C407 O404 1.235 . S
O408 Co398 2.021 . S
O408 C405 1.238 . S
O409 Co403 2.052 . S
O409 C405 1.241 . S
O410 Co398 2.137 . S
O410 C401 1.247 . S
O411 Co398 2.244 . S
O411 C401 1.272 . S
O411 Co403 2.135 . S
Co412 O413 2.216 . S
Co412 O414 2.091 . S
Co412 O416 2.004 . S
Co412 O422 2.021 . S
Co412 O424 2.137 . S
Co412 O425 2.244 . S
O413 Co412 2.216 . S
O413 C420 1.247 . S
O414 Co412 2.091 . S
O414 C420 1.261 . S
C415 O424 1.247 . S
C415 O425 1.272 . S
O416 Co412 2.004 . S
O416 C421 1.259 . S
Co417 O418 2.061 . S
Co417 O423 2.052 . S
Co417 O425 2.135 . S
O418 Co417 2.061 . S
O418 C421 1.235 . S
C419 O422 1.238 . S
C419 O423 1.241 . S
C420 O413 1.247 . S
C420 O414 1.261 . S
C421 O416 1.259 . S
C421 O418 1.235 . S
O422 Co412 2.021 . S
O422 C419 1.238 . S
O423 Co417 2.052 . S
O423 C419 1.241 . S
O424 Co412 2.137 . S
O424 C415 1.247 . S
O425 Co412 2.244 . S
O425 C415 1.272 . S
O425 Co417 2.135 . S
Co426 O427 2.216 . S
Co426 O428 2.091 . S
Co426 O430 2.004 . S
Co426 O436 2.021 . S
Co426 O438 2.137 . S
Co426 O439 2.244 . S
O427 Co426 2.216 . S
O427 C434 1.247 . S
O428 Co426 2.091 . S
O428 C434 1.261 . S
C429 O438 1.247 . S
C429 O439 1.272 . S
O430 Co426 2.004 . S
O430 C435 1.259 . S
Co431 O432 2.061 . S
Co431 O437 2.052 . S
Co431 O439 2.135 . S
O432 Co431 2.061 . S
O432 C435 1.235 . S
C433 O436 1.238 . S
C433 O437 1.241 . S
C434 O427 1.247 . S
C434 O428 1.261 . S
C435 O430 1.259 . S
C435 O432 1.235 . S
O436 Co426 2.021 . S
O436 C433 1.238 . S
O437 Co431 2.052 . S
O437 C433 1.241 . S
O438 Co426 2.137 . S
O438 C429 1.247 . S
O439 Co426 2.244 . S
O439 C429 1.272 . S
O439 Co431 2.135 . S
Co440 O441 2.216 . S
Co440 O442 2.091 . S
Co440 O444 2.004 . S
Co440 O450 2.021 . S
Co440 O452 2.137 . S
Co440 O453 2.244 . S
O441 Co440 2.216 . S
O441 C448 1.247 . S
O442 Co440 2.091 . S
O442 C448 1.261 . S
C443 O452 1.247 . S
C443 O453 1.272 . S
O444 Co440 2.004 . S
O444 C449 1.259 . S
Co445 O446 2.061 . S
Co445 O451 2.052 . S
Co445 O453 2.135 . S
O446 Co445 2.061 . S
O446 C449 1.235 . S
C447 O450 1.238 . S
C447 O451 1.241 . S
C448 O441 1.247 . S
C448 O442 1.261 . S
C449 O444 1.259 . S
C449 O446 1.235 . S
O450 Co440 2.021 . S
O450 C447 1.238 . S
O451 Co445 2.052 . S
O451 C447 1.241 . S
O452 Co440 2.137 . S
O452 C443 1.247 . S
O453 Co440 2.244 . S
O453 C443 1.272 . S
O453 Co445 2.135 . S
Co454 O455 2.216 . S
Co454 O456 2.091 . S
Co454 O458 2.004 . S
Co454 O464 2.021 . S
Co454 O466 2.137 . S
Co454 O467 2.244 . S
O455 Co454 2.216 . S
O455 C462 1.247 . S
O456 Co454 2.091 . S
O456 C462 1.261 . S
C457 O466 1.247 . S
C457 O467 1.272 . S
O458 Co454 2.004 . S
O458 C463 1.259 . S
Co459 O460 2.061 . S
Co459 O465 2.052 . S
Co459 O467 2.135 . S
O460 Co459 2.061 . S
O460 C463 1.235 . S
C461 O464 1.238 . S
C461 O465 1.241 . S
C462 O455 1.247 . S
C462 O456 1.261 . S
C463 O458 1.259 . S
C463 O460 1.235 . S
O464 Co454 2.021 . S
O464 C461 1.238 . S
O465 Co459 2.052 . S
O465 C461 1.241 . S
O466 Co454 2.137 . S
O466 C457 1.247 . S
O467 Co454 2.244 . S
O467 C457 1.272 . S
O467 Co459 2.135 . S
Co468 O469 2.216 1_556 S
Co468 O470 2.091 1_556 S
Co468 O472 2.004 . S
Co468 O478 2.021 1_556 S
Co468 O480 2.137 . S
Co468 O481 2.244 . S
O469 Co468 2.216 1_554 S
O469 C476 1.247 . S
O470 Co468 2.091 1_554 S
O470 C476 1.261 . S
C471 O480 1.247 . S
C471 O481 1.272 . S
O472 Co468 2.004 . S
O472 C477 1.259 . S
Co473 O474 2.061 . S
Co473 O479 2.052 1_556 S
Co473 O481 2.135 . S
O474 Co473 2.061 . S
O474 C477 1.235 . S
C475 O478 1.238 . S
C475 O479 1.241 . S
C476 O469 1.247 . S
C476 O470 1.261 . S
C477 O472 1.259 . S
C477 O474 1.235 . S
O478 Co468 2.021 1_554 S
O478 C475 1.238 . S
O479 Co473 2.052 1_554 S
O479 C475 1.241 . S
O480 Co468 2.137 . S
O480 C471 1.247 . S
O481 Co468 2.244 . S
O481 C471 1.272 . S
O481 Co473 2.135 . S
Co482 O483 2.216 . S
Co482 O484 2.091 . S
Co482 O486 2.004 . S
Co482 O492 2.021 . S
Co482 O494 2.137 . S
Co482 O495 2.244 . S
O483 Co482 2.216 . S
O483 C490 1.247 . S
O484 Co482 2.091 . S
O484 C490 1.261 . S
C485 O494 1.247 . S
C485 O495 1.272 . S
O486 Co482 2.004 . S
O486 C491 1.259 . S
Co487 O488 2.061 . S
Co487 O493 2.052 . S
Co487 O495 2.135 . S
O488 Co487 2.061 . S
O488 C491 1.235 . S
C489 O492 1.238 . S
C489 O493 1.241 . S
C490 O483 1.247 . S
C490 O484 1.261 . S
C491 O486 1.259 . S
C491 O488 1.235 . S
O492 Co482 2.021 . S
O492 C489 1.238 . S
O493 Co487 2.052 . S
O493 C489 1.241 . S
O494 Co482 2.137 . S
O494 C485 1.247 . S
O495 Co482 2.244 . S
O495 C485 1.272 . S
O495 Co487 2.135 . S
H496 C502 0.930 . S
H497 C506 0.930 . S
H498 C511 0.929 . S
H499 C509 0.929 . S
H500 C504 0.929 . S
H501 C510 0.929 . S
C502 H496 0.930 . S
C502 C503 1.367 . S
C502 C510 1.378 . S
C503 C502 1.367 . S
C503 C511 1.433 . S
C504 H500 0.929 . S
C504 C506 1.378 . S
C504 C508 1.350 . S
C505 C508 1.463 . S
C505 C510 1.350 . S
C505 N513 1.427 . S
C506 H497 0.930 . S
C506 C504 1.378 . S
C506 C507 1.367 . S
C507 C506 1.367 . S
C507 C509 1.433 . S
C508 C504 1.350 . S
C508 C505 1.463 . S
C508 N512 1.427 . S
C509 H499 0.929 . S
C509 C507 1.433 . S
C509 N512 1.384 . S
C510 H501 0.929 . S
C510 C502 1.378 . S
C510 C505 1.350 . S
C511 H498 0.929 . S
C511 C503 1.433 . S
C511 N513 1.384 . S
N512 C508 1.427 . S
N512 C509 1.384 . S
N513 C505 1.427 . S
N513 C511 1.384 . S
H514 C520 0.930 . S
H515 C524 0.930 . S
H516 C529 0.929 . S
H517 C527 0.929 . S
H518 C522 0.929 . S
H519 C528 0.929 . S
C520 H514 0.930 . S
C520 C521 1.367 . S
C520 C528 1.378 . S
C521 C520 1.367 . S
C521 C529 1.433 . S
C522 H518 0.929 . S
C522 C524 1.378 . S
C522 C526 1.350 . S
C523 C526 1.463 . S
C523 C528 1.350 . S
C523 N531 1.427 . S
C524 H515 0.930 . S
C524 C522 1.378 . S
C524 C525 1.367 . S
C525 C524 1.367 . S
C525 C527 1.433 . S
C526 C522 1.350 . S
C526 C523 1.463 . S
C526 N530 1.427 . S
C527 H517 0.929 . S
C527 C525 1.433 . S
C527 N530 1.384 . S
C528 H519 0.929 . S
C528 C520 1.378 . S
C528 C523 1.350 . S
C529 H516 0.929 . S
C529 C521 1.433 . S
C529 N531 1.384 . S
N530 C526 1.427 . S
N530 C527 1.384 . S
N531 C523 1.427 . S
N531 C529 1.384 . S
H532 C538 0.930 . S
H533 C542 0.930 . S
H534 C547 0.929 . S
H535 C545 0.929 . S
H536 C540 0.929 . S
H537 C546 0.929 . S
C538 H532 0.930 . S
C538 C539 1.367 . S
C538 C546 1.378 . S
C539 C538 1.367 . S
C539 C547 1.433 . S
C540 H536 0.929 . S
C540 C542 1.378 . S
C540 C544 1.350 . S
C541 C544 1.463 . S
C541 C546 1.350 . S
C541 N549 1.427 . S
C542 H533 0.930 . S
C542 C540 1.378 . S
C542 C543 1.367 . S
C543 C542 1.367 . S
C543 C545 1.433 . S
C544 C540 1.350 . S
C544 C541 1.463 . S
C544 N548 1.427 . S
C545 H535 0.929 . S
C545 C543 1.433 . S
C545 N548 1.384 . S
C546 H537 0.929 . S
C546 C538 1.378 . S
C546 C541 1.350 . S
C547 H534 0.929 . S
C547 C539 1.433 . S
C547 N549 1.384 . S
N548 C544 1.427 . S
N548 C545 1.384 . S
N549 C541 1.427 . S
N549 C547 1.384 . S
H550 C556 0.930 . S
H551 C560 0.930 . S
H552 C565 0.900 1_556 S
H553 C563 0.929 . S
H554 C558 0.927 . S
H555 C564 0.929 . S
C556 H550 0.930 . S
C556 C557 1.367 . S
C556 C564 1.378 . S
C557 C556 1.367 . S
C557 C565 1.433 . S
C558 H554 0.927 . S
C558 C560 1.377 . S
C558 C562 1.352 1_556 S
C559 C562 1.463 . S
C559 C564 1.350 . S
C559 N567 1.427 . S
C560 H551 0.930 . S
C560 C558 1.377 . S
C560 C561 1.367 1_556 S
C561 C560 1.367 1_554 S
C561 C563 1.433 . S
C562 C558 1.352 1_554 S
C562 C559 1.463 . S
C562 N566 1.427 . S
C563 H553 0.929 . S
C563 C561 1.433 . S
C563 N566 1.384 . S
C564 H555 0.929 . S
C564 C556 1.378 . S
C564 C559 1.350 . S
C565 H552 0.900 1_554 S
C565 C557 1.433 . S
C565 N567 1.384 . S
N566 C562 1.427 . S
N566 C563 1.384 . S
N567 C559 1.427 . S
N567 C565 1.384 . S
H568 C574 0.930 . S
H569 C578 0.930 . S
H570 C583 0.929 . S
H571 C581 0.929 . S
H572 C576 0.929 . S
H573 C582 0.929 . S
C574 H568 0.930 . S
C574 C575 1.367 . S
C574 C582 1.378 . S
C575 C574 1.367 . S
C575 C583 1.433 . S
C576 H572 0.929 . S
C576 C578 1.378 . S
C576 C580 1.350 . S
C577 C580 1.463 . S
C577 C582 1.350 . S
C577 N585 1.427 . S
C578 H569 0.930 . S
C578 C576 1.378 . S
C578 C579 1.367 . S
C579 C578 1.367 . S
C579 C581 1.433 . S
C580 C576 1.350 . S
C580 C577 1.463 . S
C580 N584 1.427 . S
C581 H571 0.929 . S
C581 C579 1.433 . S
C581 N584 1.384 . S
C582 H573 0.929 . S
C582 C574 1.378 . S
C582 C577 1.350 . S
C583 H570 0.929 . S
C583 C575 1.433 . S
C583 N585 1.384 . S
N584 C580 1.427 . S
N584 C581 1.384 . S
N585 C577 1.427 . S
N585 C583 1.384 . S
H586 C592 0.930 . S
H587 C596 0.930 . S
H588 C601 0.929 . S
H589 C599 0.929 . S
H590 C594 0.929 . S
H591 C600 0.929 . S
C592 H586 0.930 . S
C592 C593 1.367 . S
C592 C600 1.378 . S
C593 C592 1.367 . S
C593 C601 1.433 . S
C594 H590 0.929 . S
C594 C596 1.378 . S
C594 C598 1.350 . S
C595 C598 1.463 . S
C595 C600 1.350 . S
C595 N603 1.427 . S
C596 H587 0.930 . S
C596 C594 1.378 . S
C596 C597 1.367 . S
C597 C596 1.367 . S
C597 C599 1.433 . S
C598 C594 1.350 . S
C598 C595 1.463 . S
C598 N602 1.427 . S
C599 H589 0.929 . S
C599 C597 1.433 . S
C599 N602 1.384 . S
C600 H591 0.929 . S
C600 C592 1.378 . S
C600 C595 1.350 . S
C601 H588 0.929 . S
C601 C593 1.433 . S
C601 N603 1.384 . S
N602 C598 1.427 . S
N602 C599 1.384 . S
N603 C595 1.427 . S
N603 C601 1.384 . S
H604 C610 0.930 . S
H605 C614 0.930 . S
H606 C619 0.929 . S
H607 C617 0.929 . S
H608 C612 0.929 . S
H609 C618 0.929 . S
C610 H604 0.930 . S
C610 C611 1.367 . S
C610 C618 1.378 . S
C611 C610 1.367 . S
C611 C619 1.433 . S
C612 H608 0.929 . S
C612 C614 1.378 . S
C612 C616 1.350 . S
C613 C616 1.463 . S
C613 C618 1.350 . S
C613 N621 1.427 . S
C614 H605 0.930 . S
C614 C612 1.378 . S
C614 C615 1.367 . S
C615 C614 1.367 . S
C615 C617 1.433 . S
C616 C612 1.350 . S
C616 C613 1.463 . S
C616 N620 1.427 . S
C617 H607 0.929 . S
C617 C615 1.433 . S
C617 N620 1.384 . S
C618 H609 0.929 . S
C618 C610 1.378 . S
C618 C613 1.350 . S
C619 H606 0.929 . S
C619 C611 1.433 . S
C619 N621 1.384 . S
N620 C616 1.427 . S
N620 C617 1.384 . S
N621 C613 1.427 . S
N621 C619 1.384 . S
H622 C628 0.930 . S
H623 C632 0.930 . S
H624 C637 0.929 . S
H625 C635 0.929 . S
H626 C630 0.929 . S
H627 C636 0.929 . S
C628 H622 0.930 . S
C628 C629 1.367 . S
C628 C636 1.378 . S
C629 C628 1.367 . S
C629 C637 1.433 . S
C630 H626 0.929 . S
C630 C632 1.378 . S
C630 C634 1.350 . S
C631 C634 1.463 . S
C631 C636 1.350 . S
C631 N639 1.427 . S
C632 H623 0.930 . S
C632 C630 1.378 . S
C632 C633 1.367 . S
C633 C632 1.367 . S
C633 C635 1.433 . S
C634 C630 1.350 . S
C634 C631 1.463 . S
C634 N638 1.427 . S
C635 H625 0.929 . S
C635 C633 1.433 . S
C635 N638 1.384 . S
C636 H627 0.929 . S
C636 C628 1.378 . S
C636 C631 1.350 . S
C637 H624 0.929 . S
C637 C629 1.433 . S
C637 N639 1.384 . S
N638 C634 1.427 . S
N638 C635 1.384 . S
N639 C631 1.427 . S
N639 C637 1.384 . S
H640 C646 0.930 . S
H641 C650 0.930 . S
H642 C655 0.929 . S
H643 C653 0.929 . S
H644 C648 0.929 . S
H645 C654 0.929 . S
C646 H640 0.930 . S
C646 C647 1.367 . S
C646 C654 1.378 . S
C647 C646 1.367 . S
C647 C655 1.433 . S
C648 H644 0.929 . S
C648 C650 1.378 . S
C648 C652 1.350 . S
C649 C652 1.463 . S
C649 C654 1.350 . S
C649 N657 1.427 . S
C650 H641 0.930 . S
C650 C648 1.378 . S
C650 C651 1.367 . S
C651 C650 1.367 . S
C651 C653 1.433 . S
C652 C648 1.350 . S
C652 C649 1.463 . S
C652 N656 1.427 . S
C653 H643 0.929 . S
C653 C651 1.433 . S
C653 N656 1.384 . S
C654 H645 0.929 . S
C654 C646 1.378 . S
C654 C649 1.350 . S
C655 H642 0.929 . S
C655 C647 1.433 . S
C655 N657 1.384 . S
N656 C652 1.427 . S
N656 C653 1.384 . S
N657 C649 1.427 . S
N657 C655 1.384 . S
H658 C664 0.882 1_556 S
H659 C668 0.930 . S
H660 C673 0.929 . S
H661 C671 0.929 . S
H662 C666 0.929 . S
H663 C672 0.929 1_556 S
C664 H658 0.882 1_554 S
C664 C665 1.367 . S
C664 C672 1.378 . S
C665 C664 1.367 . S
C665 C673 1.433 . S
C666 H662 0.929 . S
C666 C668 1.378 . S
C666 C670 1.350 . S
C667 C670 1.463 . S
C667 C672 1.350 . S
C667 N675 1.427 . S
C668 H659 0.930 . S
C668 C666 1.378 . S
C668 C669 1.367 . S
C669 C668 1.367 . S
C669 C671 1.433 1_554 S
C670 C666 1.350 . S
C670 C667 1.463 . S
C670 N674 1.427 1_554 S
C671 H661 0.929 . S
C671 C669 1.433 1_556 S
C671 N674 1.384 . S
C672 H663 0.929 1_554 S
C672 C664 1.378 . S
C672 C667 1.350 . S
C673 H660 0.929 . S
C673 C665 1.433 . S
C673 N675 1.384 . S
N674 C670 1.427 1_556 S
N674 C671 1.384 . S
N675 C667 1.427 . S
N675 C673 1.384 . S
H676 C682 0.930 . S
H677 C686 0.930 . S
H678 C691 0.929 . S
H679 C689 0.929 . S
H680 C684 0.929 . S
H681 C690 0.929 . S
C682 H676 0.930 . S
C682 C683 1.367 . S
C682 C690 1.378 . S
C683 C682 1.367 . S
C683 C691 1.433 . S
C684 H680 0.929 . S
C684 C686 1.378 . S
C684 C688 1.350 . S
C685 C688 1.463 . S
C685 C690 1.350 . S
C685 N693 1.427 . S
C686 H677 0.930 . S
C686 C684 1.378 . S
C686 C687 1.367 . S
C687 C686 1.367 . S
C687 C689 1.433 . S
C688 C684 1.350 . S
C688 C685 1.463 . S
C688 N692 1.427 . S
C689 H679 0.929 . S
C689 C687 1.433 . S
C689 N692 1.384 . S
C690 H681 0.929 . S
C690 C682 1.378 . S
C690 C685 1.350 . S
C691 H678 0.929 . S
C691 C683 1.433 . S
C691 N693 1.384 . S
N692 C688 1.427 . S
N692 C689 1.384 . S
N693 C685 1.427 . S
N693 C691 1.384 . S
H694 C700 0.930 . S
H695 C704 0.930 . S
H696 C709 0.929 . S
H697 C707 0.929 . S
H698 C702 0.929 . S
H699 C708 0.929 . S
C700 H694 0.930 . S
C700 C701 1.367 . S
C700 C708 1.378 . S
C701 C700 1.367 . S
C701 C709 1.433 . S
C702 H698 0.929 . S
C702 C704 1.378 . S
C702 C706 1.350 . S
C703 C706 1.463 . S
C703 C708 1.350 . S
C703 N711 1.427 . S
C704 H695 0.930 . S
C704 C702 1.378 . S
C704 C705 1.367 . S
C705 C704 1.367 . S
C705 C707 1.433 . S
C706 C702 1.350 . S
C706 C703 1.463 . S
C706 N710 1.427 . S
C707 H697 0.929 . S
C707 C705 1.433 . S
C707 N710 1.384 . S
C708 H699 0.929 . S
C708 C700 1.378 . S
C708 C703 1.350 . S
C709 H696 0.929 . S
C709 C701 1.433 . S
C709 N711 1.384 . S
N710 C706 1.427 . S
N710 C707 1.384 . S
N711 C703 1.427 . S
N711 C709 1.384 . S
H712 C718 0.930 . S
H713 C722 0.930 . S
H714 C727 0.929 . S
H715 C725 0.929 . S
H716 C720 0.929 . S
H717 C726 0.929 . S
C718 H712 0.930 . S
C718 C719 1.367 . S
C718 C726 1.378 . S
C719 C718 1.367 . S
C719 C727 1.433 . S
C720 H716 0.929 . S
C720 C722 1.378 . S
C720 C724 1.350 . S
C721 C724 1.463 . S
C721 C726 1.350 . S
C721 N729 1.427 . S
C722 H713 0.930 . S
C722 C720 1.378 . S
C722 C723 1.367 . S
C723 C722 1.367 . S
C723 C725 1.433 . S
C724 C720 1.350 . S
C724 C721 1.463 . S
C724 N728 1.427 . S
C725 H715 0.929 . S
C725 C723 1.433 . S
C725 N728 1.384 . S
C726 H717 0.929 . S
C726 C718 1.378 . S
C726 C721 1.350 . S
C727 H714 0.929 . S
C727 C719 1.433 . S
C727 N729 1.384 . S
N728 C724 1.427 . S
N728 C725 1.384 . S
N729 C721 1.427 . S
N729 C727 1.384 . S
H730 C736 0.930 . S
H731 C740 0.930 . S
H732 C745 0.929 . S
H733 C743 0.929 . S
H734 C738 0.929 . S
H735 C744 0.929 . S
C736 H730 0.930 . S
C736 C737 1.367 . S
C736 C744 1.378 . S
C737 C736 1.367 . S
C737 C745 1.433 . S
C738 H734 0.929 . S
C738 C740 1.378 . S
C738 C742 1.350 . S
C739 C742 1.463 . S
C739 C744 1.350 . S
C739 N747 1.427 . S
C740 H731 0.930 . S
C740 C738 1.378 . S
C740 C741 1.367 . S
C741 C740 1.367 . S
C741 C743 1.433 . S
C742 C738 1.350 . S
C742 C739 1.463 . S
C742 N746 1.427 . S
C743 H733 0.929 . S
C743 C741 1.433 . S
C743 N746 1.384 . S
C744 H735 0.929 . S
C744 C736 1.378 . S
C744 C739 1.350 . S
C745 H732 0.929 . S
C745 C737 1.433 . S
C745 N747 1.384 . S
N746 C742 1.427 . S
N746 C743 1.384 . S
N747 C739 1.427 . S
N747 C745 1.384 . S
H748 C754 0.930 . S
H749 C758 0.930 . S
H750 C763 0.929 . S
H751 C761 0.929 . S
H752 C756 0.929 . S
H753 C762 0.929 1_554 S
C754 H748 0.930 . S
C754 C755 1.367 . S
C754 C762 1.378 . S
C755 C754 1.367 . S
C755 C763 1.433 . S
C756 H752 0.929 . S
C756 C758 1.378 . S
C756 C760 1.350 . S
C757 C760 1.463 . S
C757 C762 1.350 . S
C757 N765 1.427 . S
C758 H749 0.930 . S
C758 C756 1.378 . S
C758 C759 1.367 . S
C759 C758 1.367 . S
C759 C761 1.433 1_556 S
C760 C756 1.350 . S
C760 C757 1.463 . S
C760 N764 1.424 1_556 S
C761 H751 0.929 . S
C761 C759 1.433 1_554 S
C761 N764 1.384 . S
C762 H753 0.929 1_556 S
C762 C754 1.378 . S
C762 C757 1.350 . S
C763 H750 0.929 . S
C763 C755 1.433 . S
C763 N765 1.384 . S
N764 C760 1.424 1_554 S
N764 C761 1.384 . S
N765 C757 1.427 . S
N765 C763 1.384 . S
H766 C772 0.930 . S
H767 C776 0.930 . S
H768 C781 0.929 . S
H769 C779 0.929 . S
H770 C774 0.929 . S
H771 C780 0.929 . S
C772 H766 0.930 . S
C772 C773 1.367 . S
C772 C780 1.378 . S
C773 C772 1.367 . S
C773 C781 1.433 . S
C774 H770 0.929 . S
C774 C776 1.378 . S
C774 C778 1.350 . S
C775 C778 1.463 . S
C775 C780 1.350 . S
C775 N783 1.427 . S
C776 H767 0.930 . S
C776 C774 1.378 . S
C776 C777 1.367 . S
C777 C776 1.367 . S
C777 C779 1.433 . S
C778 C774 1.350 . S
C778 C775 1.463 . S
C778 N782 1.427 . S
C779 H769 0.929 . S
C779 C777 1.433 . S
C779 N782 1.384 . S
C780 H771 0.929 . S
C780 C772 1.378 . S
C780 C775 1.350 . S
C781 H768 0.929 . S
C781 C773 1.433 . S
C781 N783 1.384 . S
N782 C778 1.427 . S
N782 C779 1.384 . S
N783 C775 1.427 . S
N783 C781 1.384 . S
H784 C790 0.930 . S
H785 C794 0.930 . S
H786 C799 0.929 . S
H787 C797 0.929 . S
H788 C792 0.929 . S
H789 C798 0.929 . S
C790 H784 0.930 . S
C790 C791 1.367 . S
C790 C798 1.378 . S
C791 C790 1.367 . S
C791 C799 1.433 . S
C792 H788 0.929 . S
C792 C794 1.378 . S
C792 C796 1.350 . S
C793 C796 1.463 . S
C793 C798 1.350 . S
C793 N801 1.427 . S
C794 H785 0.930 . S
C794 C792 1.378 . S
C794 C795 1.367 . S
C795 C794 1.367 . S
C795 C797 1.433 . S
C796 C792 1.350 . S
C796 C793 1.463 . S
C796 N800 1.427 . S
C797 H787 0.929 . S
C797 C795 1.433 . S
C797 N800 1.384 . S
C798 H789 0.929 . S
C798 C790 1.378 . S
C798 C793 1.350 . S
C799 H786 0.929 . S
C799 C791 1.433 . S
C799 N801 1.384 . S
N800 C796 1.427 . S
N800 C797 1.384 . S
N801 C793 1.427 . S
N801 C799 1.384 . S
H802 C808 0.930 . S
H803 C812 0.930 . S
H804 C817 0.929 . S
H805 C815 0.929 . S
H806 C810 0.929 . S
H807 C816 0.929 . S
C808 H802 0.930 . S
C808 C809 1.367 . S
C808 C816 1.378 . S
C809 C808 1.367 . S
C809 C817 1.433 . S
C810 H806 0.929 . S
C810 C812 1.378 . S
C810 C814 1.350 . S
C811 C814 1.463 . S
C811 C816 1.350 . S
C811 N819 1.427 . S
C812 H803 0.930 . S
C812 C810 1.378 . S
C812 C813 1.367 . S
C813 C812 1.367 . S
C813 C815 1.433 . S
C814 C810 1.350 . S
C814 C811 1.463 . S
C814 N818 1.427 . S
C815 H805 0.929 . S
C815 C813 1.433 . S
C815 N818 1.384 . S
C816 H807 0.929 . S
C816 C808 1.378 . S
C816 C811 1.350 . S
C817 H804 0.929 . S
C817 C809 1.433 . S
C817 N819 1.384 . S
N818 C814 1.427 . S
N818 C815 1.384 . S
N819 C811 1.427 . S
N819 C817 1.384 . S
H820 C826 0.930 . S
H821 C830 0.930 . S
H822 C835 0.929 . S
H823 C833 0.929 . S
H824 C828 0.929 . S
H825 C834 0.929 . S
C826 H820 0.930 . S
C826 C827 1.367 . S
C826 C834 1.378 . S
C827 C826 1.367 . S
C827 C835 1.433 . S
C828 H824 0.929 . S
C828 C830 1.378 . S
C828 C832 1.350 . S
C829 C832 1.463 . S
C829 C834 1.350 . S
C829 N837 1.427 . S
C830 H821 0.930 . S
C830 C828 1.378 . S
C830 C831 1.367 . S
C831 C830 1.367 . S
C831 C833 1.433 . S
C832 C828 1.350 . S
C832 C829 1.463 . S
C832 N836 1.427 . S
C833 H823 0.929 . S
C833 C831 1.433 . S
C833 N836 1.384 . S
C834 H825 0.929 . S
C834 C826 1.378 . S
C834 C829 1.350 . S
C835 H822 0.929 . S
C835 C827 1.433 . S
C835 N837 1.384 . S
N836 C832 1.427 . S
N836 C833 1.384 . S
N837 C829 1.427 . S
N837 C835 1.384 . S
H838 C844 0.930 . S
H839 C848 0.930 . S
H840 C853 0.929 . S
H841 C851 0.929 . S
H842 C846 0.929 . S
H843 C852 0.929 . S
C844 H838 0.930 . S
C844 C845 1.367 . S
C844 C852 1.378 . S
C845 C844 1.367 . S
C845 C853 1.433 . S
C846 H842 0.929 . S
C846 C848 1.378 . S
C846 C850 1.350 . S
C847 C850 1.463 . S
C847 C852 1.350 . S
C847 N855 1.427 . S
C848 H839 0.930 . S
C848 C846 1.378 . S
C848 C849 1.367 . S
C849 C848 1.367 . S
C849 C851 1.433 . S
C850 C846 1.350 . S
C850 C847 1.463 . S
C850 N854 1.427 . S
C851 H841 0.929 . S
C851 C849 1.433 . S
C851 N854 1.384 . S
C852 H843 0.929 . S
C852 C844 1.378 . S
C852 C847 1.350 . S
C853 H840 0.929 . S
C853 C845 1.433 . S
C853 N855 1.384 . S
N854 C850 1.427 . S
N854 C851 1.384 . S
N855 C847 1.427 . S
N855 C853 1.384 . S
H856 C862 0.930 . S
H857 C866 0.930 . S
H858 C871 0.929 . S
H859 C869 0.929 . S
H860 C864 0.929 . S
H861 C870 0.929 . S
C862 H856 0.930 . S
C862 C863 1.367 . S
C862 C870 1.378 . S
C863 C862 1.367 . S
C863 C871 1.433 . S
C864 H860 0.929 . S
C864 C866 1.378 . S
C864 C868 1.350 . S
C865 C868 1.463 . S
C865 C870 1.350 . S
C865 N873 1.427 . S
C866 H857 0.930 . S
C866 C864 1.378 . S
C866 C867 1.367 . S
C867 C866 1.367 . S
C867 C869 1.433 . S
C868 C864 1.350 . S
C868 C865 1.463 . S
C868 N872 1.427 . S
C869 H859 0.929 . S
C869 C867 1.433 . S
C869 N872 1.384 . S
C870 H861 0.929 . S
C870 C862 1.378 . S
C870 C865 1.350 . S
C871 H858 0.929 . S
C871 C863 1.433 . S
C871 N873 1.384 . S
N872 C868 1.427 . S
N872 C869 1.384 . S
N873 C865 1.427 . S
N873 C871 1.384 . S
H874 C880 0.930 . S
H875 C884 0.930 . S
H876 C889 0.929 . S
H877 C887 0.929 . S
H878 C882 0.929 . S
H879 C888 0.929 . S
C880 H874 0.930 . S
C880 C881 1.367 . S
C880 C888 1.378 . S
C881 C880 1.367 . S
C881 C889 1.433 . S
C882 H878 0.929 . S
C882 C884 1.378 . S
C882 C886 1.350 . S
C883 C886 1.463 . S
C883 C888 1.350 . S
C883 N891 1.427 . S
C884 H875 0.930 . S
C884 C882 1.378 . S
C884 C885 1.367 . S
C885 C884 1.367 . S
C885 C887 1.433 . S
C886 C882 1.350 . S
C886 C883 1.463 . S
C886 N890 1.427 . S
C887 H877 0.929 . S
C887 C885 1.433 . S
C887 N890 1.384 . S
C888 H879 0.929 . S
C888 C880 1.378 . S
C888 C883 1.350 . S
C889 H876 0.929 . S
C889 C881 1.433 . S
C889 N891 1.384 . S
N890 C886 1.427 . S
N890 C887 1.384 . S
N891 C883 1.427 . S
N891 C889 1.384 . S
H892 C898 0.930 . S
H893 C902 0.930 . S
H894 C907 0.929 . S
H895 C905 0.929 . S
H896 C900 0.929 . S
H897 C906 0.929 . S
C898 H892 0.930 . S
C898 C899 1.367 . S
C898 C906 1.378 . S
C899 C898 1.367 . S
C899 C907 1.433 . S
C900 H896 0.929 . S
C900 C902 1.378 . S
C900 C904 1.350 . S
C901 C904 1.463 . S
C901 C906 1.350 . S
C901 N909 1.427 . S
C902 H893 0.930 . S
C902 C900 1.378 . S
C902 C903 1.367 . S
C903 C902 1.367 . S
C903 C905 1.433 . S
C904 C900 1.350 . S
C904 C901 1.463 . S
C904 N908 1.427 . S
C905 H895 0.929 . S
C905 C903 1.433 . S
C905 N908 1.384 . S
C906 H897 0.929 . S
C906 C898 1.378 . S
C906 C901 1.350 . S
C907 H894 0.929 . S
C907 C899 1.433 . S
C907 N909 1.384 . S
N908 C904 1.427 . S
N908 C905 1.384 . S
N909 C901 1.427 . S
N909 C907 1.384 . S
H910 C916 0.930 . S
H911 C920 0.930 . S
H912 C925 0.929 . S
H913 C923 0.929 . S
H914 C918 0.929 . S
H915 C924 0.929 . S
C916 H910 0.930 . S
C916 C917 1.367 . S
C916 C924 1.378 . S
C917 C916 1.367 . S
C917 C925 1.433 . S
C918 H914 0.929 . S
C918 C920 1.378 . S
C918 C922 1.350 . S
C919 C922 1.463 . S
C919 C924 1.350 . S
C919 N927 1.427 . S
C920 H911 0.930 . S
C920 C918 1.378 . S
C920 C921 1.367 . S
C921 C920 1.367 . S
C921 C923 1.433 . S
C922 C918 1.350 . S
C922 C919 1.463 . S
C922 N926 1.427 . S
C923 H913 0.929 . S
C923 C921 1.433 . S
C923 N926 1.384 . S
C924 H915 0.929 . S
C924 C916 1.378 . S
C924 C919 1.350 . S
C925 H912 0.929 . S
C925 C917 1.433 . S
C925 N927 1.384 . S
N926 C922 1.427 . S
N926 C923 1.384 . S
N927 C919 1.427 . S
N927 C925 1.384 . S
H928 C934 0.930 . S
H929 C938 0.930 . S
H930 C943 0.929 . S
H931 C941 0.929 . S
H932 C936 0.929 . S
H933 C942 0.929 . S
C934 H928 0.930 . S
C934 C935 1.367 . S
C934 C942 1.378 . S
C935 C934 1.367 . S
C935 C943 1.433 . S
C936 H932 0.929 . S
C936 C938 1.378 . S
C936 C940 1.350 . S
C937 C940 1.463 . S
C937 C942 1.350 . S
C937 N945 1.427 . S
C938 H929 0.930 . S
C938 C936 1.378 . S
C938 C939 1.367 . S
C939 C938 1.367 . S
C939 C941 1.433 . S
C940 C936 1.350 . S
C940 C937 1.463 . S
C940 N944 1.427 . S
C941 H931 0.929 . S
C941 C939 1.433 . S
C941 N944 1.384 . S
C942 H933 0.929 . S
C942 C934 1.378 . S
C942 C937 1.350 . S
C943 H930 0.929 . S
C943 C935 1.433 . S
C943 N945 1.384 . S
N944 C940 1.427 . S
N944 C941 1.384 . S
N945 C937 1.427 . S
N945 C943 1.384 . S
H946 C952 0.930 . S
H947 C956 0.930 . S
H948 C961 0.929 . S
H949 C959 0.929 . S
H950 C954 0.929 . S
H951 C960 0.929 . S
C952 H946 0.930 . S
C952 C953 1.367 . S
C952 C960 1.378 . S
C953 C952 1.367 . S
C953 C961 1.433 . S
C954 H950 0.929 . S
C954 C956 1.378 . S
C954 C958 1.350 . S
C955 C958 1.463 . S
C955 C960 1.350 . S
C955 N963 1.427 . S
C956 H947 0.930 . S
C956 C954 1.378 . S
C956 C957 1.367 . S
C957 C956 1.367 . S
C957 C959 1.433 . S
C958 C954 1.350 . S
C958 C955 1.463 . S
C958 N962 1.427 . S
C959 H949 0.929 . S
C959 C957 1.433 . S
C959 N962 1.384 . S
C960 H951 0.929 . S
C960 C952 1.378 . S
C960 C955 1.350 . S
C961 H948 0.929 . S
C961 C953 1.433 . S
C961 N963 1.384 . S
N962 C958 1.427 . S
N962 C959 1.384 . S
N963 C955 1.427 . S
N963 C961 1.384 . S
H964 C970 0.930 . S
H965 C974 0.930 . S
H966 C979 0.929 . S
H967 C977 0.929 . S
H968 C972 0.929 . S
H969 C978 0.929 . S
C970 H964 0.930 . S
C970 C971 1.367 . S
C970 C978 1.378 . S
C971 C970 1.367 . S
C971 C979 1.433 . S
C972 H968 0.929 . S
C972 C974 1.378 . S
C972 C976 1.350 . S
C973 C976 1.463 . S
C973 C978 1.350 . S
C973 N981 1.427 . S
C974 H965 0.930 . S
C974 C972 1.378 . S
C974 C975 1.367 . S
C975 C974 1.367 . S
C975 C977 1.433 . S
C976 C972 1.350 . S
C976 C973 1.463 . S
C976 N980 1.427 . S
C977 H967 0.929 . S
C977 C975 1.433 . S
C977 N980 1.384 . S
C978 H969 0.929 . S
C978 C970 1.378 . S
C978 C973 1.350 . S
C979 H966 0.929 . S
C979 C971 1.433 . S
C979 N981 1.384 . S
N980 C976 1.427 . S
N980 C977 1.384 . S
N981 C973 1.427 . S
N981 C979 1.384 . S
H982 C988 0.930 . S
H983 C992 0.930 . S
H984 C997 0.929 . S
H985 C995 0.929 . S
H986 C990 0.929 . S
H987 C996 0.929 . S
C988 H982 0.930 . S
C988 C989 1.367 . S
C988 C996 1.378 . S
C989 C988 1.367 . S
C989 C997 1.433 . S
C990 H986 0.929 . S
C990 C992 1.378 . S
C990 C994 1.350 . S
C991 C994 1.463 . S
C991 C996 1.350 . S
C991 N999 1.427 . S
C992 H983 0.930 . S
C992 C990 1.378 . S
C992 C993 1.367 . S
C993 C992 1.367 . S
C993 C995 1.433 . S
C994 C990 1.350 . S
C994 C991 1.463 . S
C994 N998 1.427 . S
C995 H985 0.929 . S
C995 C993 1.433 . S
C995 N998 1.384 . S
C996 H987 0.929 . S
C996 C988 1.378 . S
C996 C991 1.350 . S
C997 H984 0.929 . S
C997 C989 1.433 . S
C997 N999 1.384 . S
N998 C994 1.427 . S
N998 C995 1.384 . S
N999 C991 1.427 . S
N999 C997 1.384 . S
H1000 C1006 0.930 . S
H1001 C1010 0.930 . S
H1002 C1015 0.929 . S
H1003 C1013 0.929 . S
H1004 C1008 0.929 . S
H1005 C1014 0.929 . S
C1006 H1000 0.930 . S
C1006 C1007 1.367 . S
C1006 C1014 1.378 . S
C1007 C1006 1.367 . S
C1007 C1015 1.433 . S
C1008 H1004 0.929 . S
C1008 C1010 1.378 . S
C1008 C1012 1.350 . S
C1009 C1012 1.463 . S
C1009 C1014 1.350 . S
C1009 N1017 1.427 . S
C1010 H1001 0.930 . S
C1010 C1008 1.378 . S
C1010 C1011 1.367 . S
C1011 C1010 1.367 . S
C1011 C1013 1.433 . S
C1012 C1008 1.350 . S
C1012 C1009 1.463 . S
C1012 N1016 1.427 . S
C1013 H1003 0.929 . S
C1013 C1011 1.433 . S
C1013 N1016 1.384 . S
C1014 H1005 0.929 . S
C1014 C1006 1.378 . S
C1014 C1009 1.350 . S
C1015 H1002 0.929 . S
C1015 C1007 1.433 . S
C1015 N1017 1.384 . S
N1016 C1012 1.427 . S
N1016 C1013 1.384 . S
N1017 C1009 1.427 . S
N1017 C1015 1.384 . S
H1018 C1024 0.930 . S
H1019 C1028 0.930 . S
H1020 C1033 0.929 . S
H1021 C1031 0.929 . S
H1022 C1026 0.929 . S
H1023 C1032 0.929 . S
C1024 H1018 0.930 . S
C1024 C1025 1.367 . S
C1024 C1032 1.378 . S
C1025 C1024 1.367 . S
C1025 C1033 1.433 . S
C1026 H1022 0.929 . S
C1026 C1028 1.378 . S
C1026 C1030 1.350 . S
C1027 C1030 1.463 . S
C1027 C1032 1.350 . S
C1027 N1035 1.427 . S
C1028 H1019 0.930 . S
C1028 C1026 1.378 . S
C1028 C1029 1.367 . S
C1029 C1028 1.367 . S
C1029 C1031 1.433 . S
C1030 C1026 1.350 . S
C1030 C1027 1.463 . S
C1030 N1034 1.427 . S
C1031 H1021 0.929 . S
C1031 C1029 1.433 . S
C1031 N1034 1.384 . S
C1032 H1023 0.929 . S
C1032 C1024 1.378 . S
C1032 C1027 1.350 . S
C1033 H1020 0.929 . S
C1033 C1025 1.433 . S
C1033 N1035 1.384 . S
N1034 C1030 1.427 . S
N1034 C1031 1.384 . S
N1035 C1027 1.427 . S
N1035 C1033 1.384 . S
H1036 C1042 0.930 . S
H1037 C1046 0.930 . S
H1038 C1051 0.929 . S
H1039 C1049 0.929 . S
H1040 C1044 0.929 . S
H1041 C1050 0.929 . S
C1042 H1036 0.930 . S
C1042 C1043 1.367 . S
C1042 C1050 1.378 . S
C1043 C1042 1.367 . S
C1043 C1051 1.433 . S
C1044 H1040 0.929 . S
C1044 C1046 1.378 . S
C1044 C1048 1.350 . S
C1045 C1048 1.463 . S
C1045 C1050 1.350 . S
C1045 N1053 1.427 . S
C1046 H1037 0.930 . S
C1046 C1044 1.378 . S
C1046 C1047 1.367 . S
C1047 C1046 1.367 . S
C1047 C1049 1.433 . S
C1048 C1044 1.350 . S
C1048 C1045 1.463 . S
C1048 N1052 1.427 . S
C1049 H1039 0.929 . S
C1049 C1047 1.433 . S
C1049 N1052 1.384 . S
C1050 H1041 0.929 . S
C1050 C1042 1.378 . S
C1050 C1045 1.350 . S
C1051 H1038 0.929 . S
C1051 C1043 1.433 . S
C1051 N1053 1.384 . S
N1052 C1048 1.427 . S
N1052 C1049 1.384 . S
N1053 C1045 1.427 . S
N1053 C1051 1.384 . S
H1054 C1060 0.930 . S
H1055 C1064 0.930 . S
H1056 C1069 0.929 . S
H1057 C1067 0.929 . S
H1058 C1062 0.929 . S
H1059 C1068 0.929 . S
C1060 H1054 0.930 . S
C1060 C1061 1.367 . S
C1060 C1068 1.378 . S
C1061 C1060 1.367 . S
C1061 C1069 1.433 . S
C1062 H1058 0.929 . S
C1062 C1064 1.378 . S
C1062 C1066 1.350 . S
C1063 C1066 1.463 . S
C1063 C1068 1.350 . S
C1063 N1071 1.427 . S
C1064 H1055 0.930 . S
C1064 C1062 1.378 . S
C1064 C1065 1.367 . S
C1065 C1064 1.367 . S
C1065 C1067 1.433 . S
C1066 C1062 1.350 . S
C1066 C1063 1.463 . S
C1066 N1070 1.427 . S
C1067 H1057 0.929 . S
C1067 C1065 1.433 . S
C1067 N1070 1.384 . S
C1068 H1059 0.929 . S
C1068 C1060 1.378 . S
C1068 C1063 1.350 . S
C1069 H1056 0.929 . S
C1069 C1061 1.433 . S
C1069 N1071 1.384 . S
N1070 C1066 1.427 . S
N1070 C1067 1.384 . S
N1071 C1063 1.427 . S
N1071 C1069 1.384 . S
C507 C406 1.349 . S
C503 C36 1.317 . S
C525 C420 1.346 . S
C521 C93 1.325 . S
C543 C435 1.331 . S
C539 C126 1.333 . S
C557 C165 1.296 . S
C561 C393 1.315 . S
C575 C222 1.301 . S
C579 C392 1.327 . S
C593 C261 1.291 . S
C597 C407 1.312 . S
C615 C421 1.356 . S
C611 C318 1.343 . S
C633 C434 1.360 . S
C629 C381 1.335 . S
C647 C132 1.297 . S
C651 C462 1.331 . S
C669 C476 1.374 . S
C665 C189 1.352 . S
C683 C30 1.307 . S
C687 C491 1.313 . S
C705 C448 1.317 . S
C701 C69 1.282 . S
C719 C324 1.314 . S
C723 C449 1.319 . S
C737 C357 1.312 . S
C741 C463 1.330 . S
C759 C477 1.322 . S
C755 C228 1.333 . S
C773 C285 1.354 . S
C777 C490 1.374 . S
C795 C415 1.735 . S
C791 C45 1.733 . S
C813 C433 1.702 . S
C809 C84 1.739 . S
C827 C117 1.735 . S
C831 C391 1.706 . S
C845 C174 1.718 . S
C849 C401 1.756 . S
C863 C213 1.727 . S
C867 C429 1.729 . S
C885 C387 1.743 . S
C881 C270 1.709 . S
C903 C405 1.691 . S
C899 C309 1.727 . S
C921 C419 1.698 . S
C917 C372 1.732 . S
C939 C471 1.734 . S
C935 C141 1.724 . S
C957 C489 1.692 . S
C953 C180 1.726 . S
C971 C21 1.728 . S
C975 C443 1.736 . S
C993 C457 1.729 . S
C989 C78 1.701 . S
C1011 C485 1.749 . S
C1007 C333 1.748 . S
C1025 C366 1.712 . S
C1029 C447 1.708 . S
C1047 C461 1.710 . S
C1043 C237 1.738 . S
C1065 C475 1.705 . S
C1061 C276 1.738 . S
