# Generated by pormake.
# Topology zzz, (3,6)-cn, num edge types: 1
# Building blocks:
#     Node 0, Type 0, BuildingBlock: ESEHIV_clean_linker_0, # of connection points: 3
#     Node 1, Type 0, BuildingBlock: ESEHIV_clean_linker_0, # of connection points: 3
#     Node 2, Type 0, BuildingBlock: ESEHIV_clean_linker_0, # of connection points: 3
#     Node 3, Type 0, BuildingBlock: ESEHIV_clean_linker_0, # of connection points: 3
#     Node 4, Type 0, BuildingBlock: ESEHIV_clean_linker_0, # of connection points: 3
#     Node 5, Type 0, BuildingBlock: ESEHIV_clean_linker_0, # of connection points: 3
#     Node 6, Type 0, BuildingBlock: ESEHIV_clean_linker_0, # of connection points: 3
#     Node 7, Type 0, BuildingBlock: ESEHIV_clean_linker_0, # of connection points: 3
#     Node 8, Type 1, BuildingBlock: BETDEL_clean_sbu_0, # of connection points: 6
#     Node 9, Type 1, BuildingBlock: BETDEL_clean_sbu_0, # of connection points: 6
#     Node 10, Type 1, BuildingBlock: BETDEL_clean_sbu_0, # of connection points: 6
#     Node 11, Type 1, BuildingBlock: BETDEL_clean_sbu_0, # of connection points: 6
#     Edge 12, Type (0, 1), BuildingBlock: XUDNAN_clean_linker_2, # of connection points: 2
#     Edge 13, Type (0, 1), BuildingBlock: XUDNAN_clean_linker_2, # of connection points: 2
#     Edge 14, Type (0, 1), BuildingBlock: XUDNAN_clean_linker_2, # of connection points: 2
#     Edge 15, Type (0, 1), BuildingBlock: XUDNAN_clean_linker_2, # of connection points: 2
#     Edge 16, Type (0, 1), BuildingBlock: XUDNAN_clean_linker_2, # of connection points: 2
#     Edge 17, Type (0, 1), BuildingBlock: XUDNAN_clean_linker_2, # of connection points: 2
#     Edge 18, Type (0, 1), BuildingBlock: XUDNAN_clean_linker_2, # of connection points: 2
#     Edge 19, Type (0, 1), BuildingBlock: XUDNAN_clean_linker_2, # of connection points: 2
#     Edge 20, Type (0, 1), BuildingBlock: XUDNAN_clean_linker_2, # of connection points: 2
#     Edge 21, Type (0, 1), BuildingBlock: XUDNAN_clean_linker_2, # of connection points: 2
#     Edge 22, Type (0, 1), BuildingBlock: XUDNAN_clean_linker_2, # of connection points: 2
#     Edge 23, Type (0, 1), BuildingBlock: XUDNAN_clean_linker_2, # of connection points: 2
#     Edge 24, Type (0, 1), BuildingBlock: XUDNAN_clean_linker_2, # of connection points: 2
#     Edge 25, Type (0, 1), BuildingBlock: XUDNAN_clean_linker_2, # of connection points: 2
#     Edge 26, Type (0, 1), BuildingBlock: XUDNAN_clean_linker_2, # of connection points: 2
#     Edge 27, Type (0, 1), BuildingBlock: XUDNAN_clean_linker_2, # of connection points: 2
#     Edge 28, Type (0, 1), BuildingBlock: XUDNAN_clean_linker_2, # of connection points: 2
#     Edge 29, Type (0, 1), BuildingBlock: XUDNAN_clean_linker_2, # of connection points: 2
#     Edge 30, Type (0, 1), BuildingBlock: XUDNAN_clean_linker_2, # of connection points: 2
#     Edge 31, Type (0, 1), BuildingBlock: XUDNAN_clean_linker_2, # of connection points: 2
#     Edge 32, Type (0, 1), BuildingBlock: XUDNAN_clean_linker_2, # of connection points: 2
#     Edge 33, Type (0, 1), BuildingBlock: XUDNAN_clean_linker_2, # of connection points: 2
#     Edge 34, Type (0, 1), BuildingBlock: XUDNAN_clean_linker_2, # of connection points: 2
#     Edge 35, Type (0, 1), BuildingBlock: XUDNAN_clean_linker_2, # of connection points: 2
# Relax obj value: 0.351
# Max RMSD: 0.228
# Mean RMSD: 0.212
data_MOF--net-zzz--node1-BETDEL_clean_sbu_0--node2-ESEHIV_clean_linker_0--edge1-XUDNAN_clean_linker_2
_symmetry_space_group_name_H-M    P1
_symmetry_Int_Tables_number       1
_symmetry_cell_setting            triclinic
loop_
_symmetry_equiv_pos_as_xyz
'x, y, z'
_cell_length_a     43.170952
_cell_length_b     43.523981
_cell_length_c     15.292104
_cell_angle_alpha  90.802975
_cell_angle_beta   88.703047
_cell_angle_gamma 95.380297
loop_
_atom_site_label
_atom_site_type_symbol
_atom_site_fract_x
_atom_site_fract_y
_atom_site_fract_z
_atom_type_partial_charge
H0 H 0.8057 0.44229 0.08203 0.0
H1 H 0.73139 0.42557 0.90345 0.0
H2 H 0.73209 0.50206 0.08801 0.0
C3 C 0.78324 0.4477 0.05925 0.0
C4 C 0.77063 0.47394 0.0929 0.0
C5 C 0.76917 0.43024 0.99126 0.0
C6 C 0.74094 0.43834 0.9594 0.0
C7 C 0.72663 0.46398 0.99349 0.0
C8 C 0.74186 0.48182 0.06146 0.0
H9 H 0.93912 0.80004 0.13398 0.0
H10 H 0.93075 0.73437 0.92414 0.0
H11 H 0.98625 0.71783 0.14796 0.0
C12 C 0.94293 0.77731 0.1079 0.0
C13 C 0.96332 0.75987 0.15088 0.0
C14 C 0.93308 0.76928 0.02395 0.0
C15 C 0.93892 0.74043 0.98913 0.0
C16 C 0.95713 0.72076 0.0346 0.0
C17 C 0.96992 0.73107 0.11561 0.0
H18 H 0.71589 0.06812 0.10493 0.0
H19 H 0.79156 0.07732 0.92043 0.0
H20 H 0.78766 0.00622 0.11605 0.0
C21 C 0.73844 0.06161 0.08305 0.0
C22 C 0.75061 0.03659 0.12269 0.0
C23 C 0.75304 0.07623 0.01025 0.0
C24 C 0.78107 0.0663 0.97822 0.0
C25 C 0.79427 0.0411 0.01481 0.0
C26 C 0.77847 0.02597 0.08731 0.0
H27 H 0.57231 0.70431 0.07545 0.0
H28 H 0.55877 0.7899 0.20879 0.0
H29 H 0.5645 0.78543 0.92658 0.0
C30 C 0.57093 0.72907 0.07334 0.0
C31 C 0.56887 0.74304 0.99245 0.0
C32 C 0.56591 0.74509 0.15167 0.0
C33 C 0.56312 0.7772 0.14905 0.0
C34 C 0.56361 0.79211 0.06711 0.0
C35 C 0.56628 0.77468 0.98965 0.0
H36 H 0.20149 0.53247 0.02589 0.0
H37 H 0.28348 0.55142 0.17974 0.0
H38 H 0.27765 0.47691 0.991 0.0
C39 C 0.22485 0.52812 0.04255 0.0
C40 C 0.23785 0.50374 0.999 0.0
C41 C 0.24085 0.54606 0.10722 0.0
C42 C 0.27041 0.53821 0.13011 0.0
C43 C 0.2834 0.51282 0.09089 0.0
C44 C 0.26756 0.49615 0.02271 0.0
H45 H 0.07973 0.21502 0.91798 0.0
H46 H 0.08711 0.27673 0.13736 0.0
H47 H 0.03977 0.30143 0.9062 0.0
C48 C 0.0774 0.23788 0.94538 0.0
C49 C 0.06038 0.25811 0.90001 0.0
C50 C 0.08542 0.24374 0.03216 0.0
C51 C 0.08051 0.2724 0.07006 0.0
C52 C 0.06502 0.29419 0.02423 0.0
C53 C 0.05434 0.28649 0.93922 0.0
H54 H 0.33142 0.96557 0.08659 0.0
H55 H 0.24553 0.94948 0.2315 0.0
H56 H 0.2525 0.01194 0.01378 0.0
C57 C 0.30709 0.96913 0.09621 0.0
C58 C 0.2939 0.98917 0.03972 0.0
C59 C 0.28992 0.95464 0.16561 0.0
C60 C 0.25875 0.96045 0.17778 0.0
C61 C 0.24487 0.98159 0.12577 0.0
C62 C 0.26262 0.9957 0.05511 0.0
H63 H 0.43664 0.27924 0.94989 0.0
H64 H 0.49241 0.2041 0.89973 0.0
H65 H 0.44488 0.21269 0.14867 0.0
C66 C 0.44391 0.25713 0.96923 0.0
C67 C 0.43848 0.24764 0.05525 0.0
C68 C 0.46512 0.24312 0.91521 0.0
C69 C 0.47587 0.21507 0.94112 0.0
C70 C 0.4663 0.20234 0.02347 0.0
C71 C 0.44842 0.21953 0.08099 0.0
Dy72 Dy 0.02 0.99263 0.63934 0.0
C73 C 0.01913 0.04953 0.30514 0.0
C74 C 0.0092 0.9648 0.79693 0.0
Dy75 Dy 0.00806 0.02144 0.46224 0.0
O76 O 0.99317 0.98572 0.76572 0.0
O77 O 0.03308 0.96159 0.7453 0.0
O78 O 0.06668 0.98002 0.58629 0.0
O79 O 0.04832 0.01961 0.54265 0.0
C80 C 0.06991 1.00242 0.53051 0.0
C81 C 0.95827 0.01224 0.57179 0.0
O82 O 0.00821 0.97089 0.42253 0.0
O83 O 1.00205 0.95117 0.5627 0.0
O84 O 0.99477 0.0521 0.35543 0.0
O85 O 0.03587 0.02941 0.33764 0.0
O86 O 0.96162 0.03459 0.51575 0.0
O87 O 0.9797 0.99486 0.55934 0.0
O88 O 0.01684 0.04218 0.67993 0.0
O89 O 0.02456 0.06322 0.54149 0.0
C90 C 1.00382 0.94714 0.4769 0.0
C91 C 0.02111 0.06626 0.6273 0.0
Dy92 Dy 0.50493 0.98429 0.53925 0.0
C93 C 0.58799 0.0815 0.67071 0.0
C94 C 0.4575 0.94022 0.50393 0.0
Dy95 Dy 0.54381 0.03537 0.6252 0.0
O96 O 0.48044 0.94865 0.45059 0.0
O97 O 0.46075 0.95573 0.57662 0.0
O98 O 0.54009 0.97814 0.43261 0.0
O99 O 0.55562 0.99341 0.55642 0.0
C100 C 0.56383 0.98948 0.47705 0.0
C101 C 0.48411 0.02865 0.68378 0.0
O102 O 0.53787 0.05517 0.49285 0.0
O103 O 0.49453 0.02334 0.4531 0.0
O104 O 0.5591 0.07978 0.69688 0.0
O105 O 0.59248 0.05807 0.62043 0.0
O106 O 0.50765 0.03687 0.7329 0.0
O107 O 0.49334 0.02645 0.60493 0.0
O108 O 0.51602 0.96179 0.66532 0.0
O109 O 0.5547 0.99784 0.71479 0.0
C110 C 0.51475 0.04769 0.43913 0.0
C111 C 0.53776 0.971 0.72239 0.0
Dy112 Dy 0.49729 0.5076 0.61387 0.0
C113 C 0.50482 0.44502 0.29059 0.0
C114 C 0.49505 0.54756 0.75104 0.0
Dy115 Dy 0.52283 0.47866 0.43355 0.0
O116 O 0.47249 0.54036 0.69756 0.0
O117 O 0.5178 0.53075 0.73345 0.0
O118 O 0.44841 0.49549 0.56584 0.0
O119 O 0.48548 0.506 0.47701 0.0
C120 C 0.45682 0.4974 0.48346 0.0
C121 C 0.56466 0.48141 0.56233 0.0
O122 O 0.53304 0.52872 0.40147 0.0
O123 O 0.52387 0.54782 0.54351 0.0
O124 O 0.53395 0.45382 0.30741 0.0
O125 O 0.48659 0.45475 0.35096 0.0
O126 O 0.57123 0.47106 0.48392 0.0
O127 O 0.53725 0.48848 0.56228 0.0
O128 O 0.49587 0.45802 0.65399 0.0
O129 O 0.5022 0.43803 0.5124 0.0
C130 C 0.53352 0.55161 0.46052 0.0
C131 C 0.49642 0.43444 0.59763 0.0
Dy132 Dy 0.99193 0.48014 0.59215 0.0
C133 C 0.06478 0.56869 0.4067 0.0
C134 C 0.94881 0.44562 0.69058 0.0
Dy135 Dy 0.02209 0.52735 0.48683 0.0
O136 O 0.97693 0.43848 0.67538 0.0
O137 O 0.945 0.47184 0.6557 0.0
O138 O 0.01632 0.44306 0.52704 0.0
O139 O 1.00504 0.4799 0.45092 0.0
C140 C 0.01895 0.45558 0.45075 0.0
C141 C 0.99275 0.55039 0.6265 0.0
O142 O 0.97745 0.5248 0.41311 0.0
O143 O 0.95132 0.497 0.52327 0.0
O144 O 0.05791 0.56782 0.48925 0.0
O145 O 0.04795 0.54679 0.36622 0.0
O146 O 0.99243 0.56109 0.54796 0.0
O147 O 0.00868 0.52741 0.6277 0.0
O148 O 0.0358 0.48766 0.66729 0.0
O149 O 0.06171 0.50386 0.542 0.0
C150 C 0.95114 0.51258 0.44972 0.0
C151 C 0.0622 0.49352 0.62284 0.0
H152 H 0.19491 0.94382 0.19051 0.0
H153 H 0.22383 0.03967 0.13312 0.0
H154 H 0.17828 0.05526 0.21824 0.0
H155 H 0.10895 0.94852 0.20808 0.0
H156 H 0.10544 0.92271 0.29963 0.0
H157 H 0.13517 0.91885 0.21658 0.0
H158 H 0.17699 0.92349 0.33615 0.0
H159 H 0.14753 0.9279 0.4192 0.0
H160 H 0.18002 0.95686 0.40769 0.0
H161 H 0.13234 0.06058 0.3263 0.0
H162 H 0.09272 0.0552 0.4465 0.0
H163 H 0.09931 0.95651 0.44806 0.0
C164 C 0.19143 0.96812 0.19399 0.0
C165 C 0.21332 0.99049 0.15478 0.0
C166 C 0.20738 0.02195 0.16087 0.0
C167 C 0.18162 0.03105 0.21004 0.0
C168 C 0.16195 0.00847 0.25318 0.0
C169 C 0.16657 0.97757 0.24502 0.0
C170 C 0.14496 0.95803 0.30639 0.0
C171 C 0.12229 0.93572 0.25455 0.0
C172 C 0.16349 0.94056 0.37117 0.0
C173 C 0.12802 0.98277 0.3526 0.0
C174 C 0.13744 0.01165 0.31945 0.0
C175 C 0.12494 0.03803 0.35243 0.0
C176 C 0.10252 0.03479 0.42094 0.0
C177 C 0.09328 0.00551 0.4574 0.0
C178 C 0.10621 0.97924 0.42228 0.0
H179 H 0.43401 0.15558 0.1147 0.0
H180 H 0.5264 0.18637 0.01514 0.0
H181 H 0.5481 0.14561 0.09927 0.0
H182 H 0.45519 0.14428 0.32573 0.0
H183 H 0.42861 0.11057 0.34624 0.0
H184 H 0.41946 0.13813 0.2665 0.0
H185 H 0.41346 0.09504 0.14955 0.0
H186 H 0.42279 0.06691 0.22768 0.0
H187 H 0.44499 0.07145 0.1267 0.0
H188 H 0.56071 0.1083 0.21413 0.0
H189 H 0.56283 0.07368 0.34006 0.0
H190 H 0.46214 0.06561 0.36321 0.0
C191 C 0.4587 0.1531 0.1085 0.0
C192 C 0.47849 0.17404 0.0577 0.0
C193 C 0.5107 0.1703 0.05209 0.0
C194 C 0.52325 0.14732 0.10025 0.0
C195 C 0.50324 0.128 0.15281 0.0
C196 C 0.47154 0.13027 0.15596 0.0
C197 C 0.45543 0.10852 0.22315 0.0
C198 C 0.4387 0.12645 0.29461 0.0
C199 C 0.43284 0.084 0.17906 0.0
C200 C 0.48311 0.09429 0.25932 0.0
C201 C 0.51047 0.10585 0.21777 0.0
C202 C 0.53938 0.09856 0.24557 0.0
C203 C 0.54036 0.07905 0.31752 0.0
C204 C 0.51263 0.06676 0.36056 0.0
C205 C 0.48363 0.07414 0.33014 0.0
H206 H 0.29186 0.49203 0.2544 0.0
H207 H 0.34107 0.51533 0.01099 0.0
H208 H 0.39134 0.51047 0.08306 0.0
H209 H 0.34239 0.53371 0.39241 0.0
H210 H 0.33977 0.50625 0.48005 0.0
H211 H 0.30783 0.50749 0.40704 0.0
H212 H 0.30988 0.44954 0.3688 0.0
H213 H 0.34157 0.44795 0.44288 0.0
H214 H 0.34601 0.43594 0.33036 0.0
H215 H 0.43594 0.51109 0.18837 0.0
H216 H 0.4714 0.51118 0.31267 0.0
H217 H 0.39312 0.48411 0.48645 0.0
C218 C 0.31324 0.49506 0.21573 0.0
C219 C 0.31275 0.50361 0.12691 0.0
C220 C 0.34105 0.50818 0.07855 0.0
C221 C 0.36963 0.50566 0.11922 0.0
C222 C 0.36937 0.49814 0.20786 0.0
C223 C 0.34183 0.49226 0.25503 0.0
C224 C 0.34783 0.48607 0.35033 0.0
C225 C 0.33361 0.5098 0.41099 0.0
C226 C 0.3356 0.4529 0.3745 0.0
C227 C 0.38307 0.49033 0.35038 0.0
C228 C 0.39505 0.49732 0.26757 0.0
C229 C 0.42682 0.50476 0.2528 0.0
C230 C 0.44681 0.50472 0.32397 0.0
C231 C 0.43519 0.4967 0.40894 0.0
C232 C 0.40282 0.48953 0.42198 0.0
H233 H 0.04578 0.30057 0.1949 0.0
H234 H 0.06561 0.35306 0.95777 0.0
H235 H 0.05465 0.40088 0.03847 0.0
H236 H 0.98468 0.34297 0.28218 0.0
H237 H 0.99694 0.34 0.39338 0.0
H238 H 1.00434 0.31031 0.31453 0.0
H239 H 0.06317 0.31791 0.34829 0.0
H240 H 0.05599 0.34764 0.42713 0.0
H241 H 0.08375 0.35576 0.33873 0.0
H242 H 0.04179 0.44361 0.15085 0.0
H243 H 0.03006 0.47574 0.28135 0.0
H244 H 0.02322 0.39392 0.44164 0.0
C245 C 0.0482 0.32207 0.15957 0.0
C246 C 0.05698 0.32301 0.06999 0.0
C247 C 0.0588 0.35168 0.0263 0.0
C248 C 0.05274 0.37898 0.07174 0.0
C249 C 0.04486 0.37718 0.16079 0.0
C250 C 0.04267 0.34932 0.20383 0.0
C251 C 0.03493 0.35315 0.29989 0.0
C252 C 1.00335 0.33557 0.32386 0.0
C253 C 0.06102 0.34303 0.35683 0.0
C254 C 0.0333 0.38762 0.30504 0.0
C255 C 0.03867 0.40127 0.22436 0.0
C256 C 0.03766 0.43305 0.21421 0.0
C257 C 0.031 0.45112 0.28845 0.0
C258 C 0.02594 0.43735 0.37151 0.0
C259 C 0.02724 0.40524 0.37924 0.0
H260 H 0.84254 0.0759 0.92995 0.0
H261 H 0.81089 0.98105 0.99392 0.0
H262 H 0.85254 0.96328 0.89707 0.0
H263 H 0.84991 0.06044 0.70576 0.0
H264 H 0.88256 0.08879 0.68796 0.0
H265 H 0.85498 0.0942 0.77549 0.0
H266 H 0.89923 0.09837 0.88943 0.0
H267 H 0.92643 0.09467 0.80002 0.0
H268 H 0.92572 0.06872 0.8911 0.0
H269 H 0.89672 0.95612 0.78247 0.0
H270 H 0.93513 0.96014 0.65892 0.0
H271 H 0.93049 0.05909 0.6546 0.0
C272 C 0.84405 0.05128 0.92426 0.0
C273 C 0.82277 0.02999 0.96993 0.0
C274 C 0.82684 0.99808 0.96132 0.0
C275 C 0.85038 0.98772 0.90552 0.0
C276 C 0.86954 0.00943 0.85763 0.0
C277 C 0.86636 0.04057 0.86644 0.0
C278 C 0.88701 0.05926 0.8011 0.0
C279 C 0.86744 0.07669 0.73892 0.0
C280 C 0.91104 0.08154 0.8483 0.0
C281 C 0.90239 0.03384 0.75322 0.0
C282 C 0.89262 0.00525 0.78789 0.0
C283 C 0.9042 0.97841 0.75475 0.0
C284 C 0.92596 0.98088 0.68442 0.0
C285 C 0.93544 0.00985 0.64637 0.0
C286 C 0.9234 0.03658 0.68156 0.0
H287 H 0.51579 0.81432 0.98488 0.0
H288 H 0.60126 0.84324 0.11759 0.0
H289 H 0.60057 0.89578 0.05702 0.0
H290 H 0.53667 0.8476 0.79412 0.0
H291 H 0.49915 0.85901 0.76561 0.0
H292 H 0.50156 0.82685 0.83666 0.0
H293 H 0.46887 0.85251 0.95632 0.0
H294 H 0.4656 0.88456 0.88477 0.0
H295 H 0.48075 0.89129 0.99294 0.0
H296 H 0.59528 0.94197 0.95945 0.0
H297 H 0.58478 0.97782 0.84198 0.0
H298 H 0.50385 0.91697 0.76879 0.0
C299 C 0.53347 0.83223 0.00471 0.0
C300 C 0.55825 0.82504 0.05723 0.0
C301 C 0.58167 0.84858 0.07939 0.0
C302 C 0.58155 0.87837 0.04454 0.0
C303 C 0.55774 0.88416 0.98818 0.0
C304 C 0.53381 0.86177 0.96973 0.0
C305 C 0.51318 0.87211 0.89904 0.0
C306 C 0.51264 0.85008 0.81919 0.0
C307 C 0.48014 0.87532 0.93547 0.0
C308 C 0.52991 0.90328 0.87758 0.0
C309 C 0.55523 0.91016 0.93055 0.0
C310 C 0.5752 0.93697 0.9188 0.0
C311 C 0.56911 0.95716 0.85149 0.0
C312 C 0.5435 0.95028 0.79576 0.0
C313 C 0.52359 0.92305 0.81009 0.0
H314 H 0.68036 0.42612 0.91219 0.0
H315 H 0.70748 0.5227 0.972 0.0
H316 H 0.6652 0.53737 0.87974 0.0
H317 H 0.67314 0.43876 0.6891 0.0
H318 H 0.64164 0.40904 0.67416 0.0
H319 H 0.6691 0.40566 0.75945 0.0
H320 H 0.62405 0.40033 0.87499 0.0
H321 H 0.59654 0.40334 0.78936 0.0
H322 H 0.59692 0.42939 0.88211 0.0
H323 H 0.621 0.54147 0.77101 0.0
H324 H 0.58353 0.53472 0.64971 0.0
H325 H 0.59307 0.43658 0.64316 0.0
C326 C 0.67775 0.45047 0.90653 0.0
C327 C 0.69792 0.47313 0.94998 0.0
C328 C 0.69239 0.5046 0.94144 0.0
C329 C 0.66845 0.51325 0.88825 0.0
C330 C 0.65035 0.49028 0.84276 0.0
C331 C 0.65498 0.45952 0.85112 0.0
C332 C 0.6354 0.43941 0.78752 0.0
C333 C 0.65605 0.42222 0.7238 0.0
C334 C 0.61183 0.41679 0.83649 0.0
C335 C 0.6192 0.46364 0.74093 0.0
C336 C 0.62739 0.4928 0.77525 0.0
C337 C 0.6147 0.51874 0.74356 0.0
C338 C 0.59349 0.51475 0.67475 0.0
C339 C 0.58596 0.48524 0.63674 0.0
C340 C 0.5989 0.45943 0.67049 0.0
H341 H 0.97025 0.71044 0.8608 0.0
H342 H 0.96234 0.66424 0.11103 0.0
H343 H 0.97172 0.61489 0.03609 0.0
H344 H 0.9277 0.65082 0.74179 0.0
H345 H 0.95108 0.65704 0.64335 0.0
H346 H 0.94657 0.68862 0.71837 0.0
H347 H 1.00652 0.69846 0.73009 0.0
H348 H 0.01123 0.66699 0.65474 0.0
H349 H 0.02864 0.66732 0.76081 0.0
H350 H 0.98122 0.56969 0.92819 0.0
H351 H 0.98878 0.53459 0.80106 0.0
H352 H 0.98507 0.61152 0.62575 0.0
C353 C 0.97011 0.69001 0.90042 0.0
C354 C 0.96507 0.69129 0.99203 0.0
C355 C 0.96626 0.66397 0.04085 0.0
C356 C 0.9714 0.63578 0.99872 0.0
C357 C 0.97526 0.63531 0.90773 0.0
C358 C 0.97461 0.66187 0.85958 0.0
C359 C 0.97807 0.65559 0.76264 0.0
C360 C 0.94913 0.66348 0.7137 0.0
C361 C 1.00789 0.67313 0.72489 0.0
C362 C 0.98055 0.62123 0.76301 0.0
C363 C 0.97932 0.60976 0.847 0.0
C364 C 0.98204 0.57853 0.8623 0.0
C365 C 0.98626 0.55875 0.78992 0.0
C366 C 0.98719 0.57026 0.70364 0.0
C367 C 0.98408 0.60185 0.69074 0.0
H368 H 0.04744 0.22411 0.16564 0.0
H369 H 0.1277 0.20062 0.01277 0.0
H370 H 0.11996 0.14714 0.06807 0.0
H371 H 0.05505 0.17032 0.35371 0.0
H372 H 0.0134 0.16216 0.36158 0.0
H373 H 0.03008 0.19952 0.32599 0.0
H374 H 0.99731 0.19271 0.18585 0.0
H375 H 0.98157 0.1548 0.21861 0.0
H376 H 1.0016 0.16 0.1144 0.0
H377 H 0.09921 0.09466 0.12715 0.0
H378 H 0.06994 0.04903 0.19508 0.0
H379 H 1.00056 0.10717 0.29478 0.0
C380 C 0.06446 0.2082 0.1479 0.0
C381 C 0.08869 0.21659 0.08701 0.0
C382 C 0.10954 0.19472 0.06136 0.0
C383 C 0.10507 0.16427 0.09166 0.0
C384 C 0.07956 0.15619 0.14699 0.0
C385 C 0.05991 0.17772 0.17598 0.0
C386 C 0.0323 0.16276 0.22729 0.0
C387 C 0.03274 0.17437 0.3228 0.0
C388 C 1.00139 0.16788 0.18389 0.0
C389 C 0.03895 0.12934 0.22068 0.0
C390 C 0.06651 0.12596 0.17536 0.0
C391 C 0.0776 0.09709 0.16268 0.0
C392 C 0.06064 0.07127 0.20033 0.0
C393 C 0.03269 0.07453 0.24833 0.0
C394 C 0.02144 0.10383 0.25653 0.0
H395 H 0.34017 0.92028 0.13905 0.0
H396 H 0.27662 0.94871 0.34282 0.0
H397 H 0.30824 0.9279 0.45294 0.0
H398 H 0.37499 0.85527 0.26444 0.0
H399 H 0.41326 0.86835 0.22257 0.0
H400 H 0.37962 0.87132 0.15638 0.0
H401 H 0.39525 0.9299 0.13802 0.0
H402 H 0.4287 0.92698 0.20321 0.0
H403 H 0.40107 0.95401 0.23421 0.0
H404 H 0.35175 0.91946 0.54304 0.0
H405 H 0.40421 0.93062 0.60143 0.0
H406 H 0.44435 0.91443 0.3447 0.0
C407 C 0.33244 0.92164 0.2066 0.0
C408 C 0.30556 0.93628 0.23077 0.0
C409 C 0.29634 0.93692 0.32045 0.0
C410 C 0.31438 0.9251 0.38447 0.0
C411 C 0.34202 0.91314 0.35885 0.0
C412 C 0.35112 0.91143 0.27172 0.0
C413 C 0.3851 0.90561 0.26223 0.0
C414 C 0.38843 0.8732 0.22418 0.0
C415 C 0.40358 0.93062 0.20627 0.0
C416 C 0.3944 0.90763 0.35723 0.0
C417 C 0.36877 0.91006 0.41216 0.0
C418 C 0.37187 0.91672 0.50119 0.0
C419 C 0.40181 0.92309 0.53389 0.0
C420 C 0.42811 0.92337 0.47716 0.0
C421 C 0.42447 0.91377 0.3893 0.0
H422 H 0.48082 0.26867 0.17202 0.0
H423 H 0.39104 0.28518 0.07099 0.0
H424 H 0.39987 0.34001 0.11612 0.0
H425 H 0.48331 0.32834 0.35656 0.0
H426 H 0.52446 0.33724 0.33681 0.0
H427 H 0.50681 0.29865 0.31757 0.0
H428 H 0.53005 0.30148 0.15959 0.0
H429 H 0.54594 0.34078 0.1761 0.0
H430 H 0.51971 0.33119 0.08772 0.0
H431 H 0.42244 0.39404 0.14879 0.0
H432 H 0.4524 0.44216 0.19755 0.0
H433 H 0.52922 0.39037 0.26485 0.0
C434 C 0.46208 0.28331 0.16508 0.0
C435 C 0.43502 0.27272 0.11939 0.0
C436 C 0.41154 0.29283 0.10781 0.0
C437 C 0.4167 0.32409 0.1316 0.0
C438 C 0.44525 0.33449 0.16747 0.0
C439 C 0.46715 0.31455 0.18683 0.0
C440 C 0.49707 0.33181 0.21769 0.0
C441 C 0.50327 0.32353 0.3128 0.0
C442 C 0.5248 0.32595 0.1566 0.0
C443 C 0.48889 0.36465 0.2108 0.0
C444 C 0.45889 0.3657 0.18179 0.0
C445 C 0.44589 0.39348 0.17182 0.0
C446 C 0.46326 0.4207 0.198 0.0
C447 C 0.49331 0.41984 0.23245 0.0
C448 C 0.50677 0.39168 0.23558 0.0
H449 H 0.19346 0.5794 0.05147 0.0
H450 H 0.25042 0.56776 0.27748 0.0
H451 H 0.21411 0.59416 0.3684 0.0
H452 H 0.14493 0.64441 0.1387 0.0
H453 H 0.11017 0.62351 0.09741 0.0
H454 H 0.14679 0.62202 0.03899 0.0
H455 H 0.13999 0.56235 0.04474 0.0
H456 H 0.10376 0.56363 0.10301 0.0
H457 H 0.13423 0.54372 0.14921 0.0
H458 H 0.16677 0.60614 0.44432 0.0
H459 H 0.11361 0.59282 0.50027 0.0
H460 H 0.08086 0.58055 0.23529 0.0
C461 C 0.19867 0.58242 0.11999 0.0
C462 C 0.2247 0.5702 0.15654 0.0
C463 C 0.2311 0.57673 0.2458 0.0
C464 C 0.21031 0.59189 0.29881 0.0
C465 C 0.18266 0.59954 0.26291 0.0
C466 C 0.17662 0.59462 0.17515 0.0
C467 C 0.14212 0.59434 0.15768 0.0
C468 C 0.13563 0.62278 0.1051 0.0
C469 C 0.1293 0.56422 0.11111 0.0
C470 C 0.12945 0.59649 0.25038 0.0
C471 C 0.15338 0.60216 0.30901 0.0
C472 C 0.14786 0.60225 0.39902 0.0
C473 C 0.11753 0.59452 0.43021 0.0
C474 C 0.0934 0.58543 0.3716 0.0
C475 C 0.09906 0.58773 0.28081 0.0
H476 H 0.96985 0.78797 0.88846 0.0
H477 H 0.8894 0.81113 0.04073 0.0
H478 H 0.89973 0.86561 0.99612 0.0
H479 H 0.01692 0.84617 0.95878 0.0
H480 H 0.03915 0.85458 0.85943 0.0
H481 H 0.02085 0.81633 0.87743 0.0
H482 H 0.9904 0.81719 0.73351 0.0
H483 H 0.01007 0.85474 0.71159 0.0
H484 H 0.96818 0.84924 0.71232 0.0
H485 H 0.92457 0.91887 0.95537 0.0
H486 H 0.95767 0.96507 0.90445 0.0
H487 H 0.0248 0.90598 0.79628 0.0
C488 C 0.95312 0.80405 0.90722 0.0
C489 C 0.92848 0.79534 0.96647 0.0
C490 C 0.9079 0.81733 0.99341 0.0
C491 C 0.91395 0.84838 0.96954 0.0
C492 C 0.9405 0.8568 0.91857 0.0
C493 C 0.95933 0.83509 0.88591 0.0
C494 C 0.98862 0.85016 0.84265 0.0
C495 C 0.01809 0.84127 0.8873 0.0
C496 C 0.98935 0.84238 0.7442 0.0
C497 C 0.98396 0.8837 0.85889 0.0
C498 C 0.9559 0.88722 0.90133 0.0
C499 C 0.94654 0.91633 0.92184 0.0
C500 C 0.96569 0.94242 0.8941 0.0
C501 C 0.99404 0.93906 0.84814 0.0
C502 C 1.00363 0.90933 0.83314 0.0
H503 H 0.74915 0.0782 0.83335 0.0
H504 H 0.71652 0.12112 0.07112 0.0
H505 H 0.67551 0.14268 0.9884 0.0
H506 H 0.72208 0.14005 0.67098 0.0
H507 H 0.71224 0.10911 0.594 0.0
H508 H 0.74567 0.10805 0.6622 0.0
H509 H 0.72379 0.05418 0.716 0.0
H510 H 0.69013 0.05509 0.65109 0.0
H511 H 0.6856 0.04946 0.76731 0.0
H512 H 0.62922 0.14265 0.89752 0.0
H513 H 0.58488 0.12286 0.80704 0.0
H514 H 0.64826 0.08332 0.62425 0.0
C515 C 0.73481 0.09386 0.86712 0.0
C516 C 0.73593 0.09771 0.95879 0.0
C517 C 0.71587 0.11748 1.00096 0.0
C518 C 0.69267 0.13014 0.95418 0.0
C519 C 0.6904 0.12356 0.86486 0.0
C520 C 0.71169 0.10663 0.82109 0.0
C521 C 0.70095 0.09725 0.73027 0.0
C522 C 0.72146 0.11467 0.66023 0.0
C523 C 0.70003 0.06196 0.71553 0.0
C524 C 0.66874 0.10817 0.73378 0.0
C525 C 0.6634 0.12437 0.81042 0.0
C526 C 0.63346 0.13121 0.83571 0.0
C527 C 0.60833 0.11984 0.7841 0.0
C528 C 0.61349 0.10171 0.70879 0.0
C529 C 0.64406 0.09765 0.6807 0.0
H530 H 0.59775 0.69355 0.93101 0.0
H531 H 0.51825 0.74533 0.89231 0.0
H532 H 0.49087 0.7002 0.82019 0.0
H533 H 0.58625 0.64157 0.72378 0.0
H534 H 0.59883 0.60956 0.78269 0.0
H535 H 0.61528 0.64829 0.80655 0.0
H536 H 0.59947 0.63972 0.96964 0.0
H537 H 0.58147 0.6017 0.94573 0.0
H538 H 0.5591 0.62983 0.99868 0.0
H539 H 0.46738 0.64708 0.78894 0.0
H540 H 0.45403 0.5914 0.76182 0.0
H541 H 0.54827 0.57367 0.82419 0.0
C542 C 0.57537 0.69584 0.90241 0.0
C543 C 0.5601 0.72279 0.91708 0.0
C544 C 0.53056 0.72503 0.88059 0.0
C545 C 0.51461 0.69934 0.84058 0.0
C546 C 0.5289 0.67199 0.83609 0.0
C547 C 0.55913 0.67034 0.86258 0.0
C548 C 0.56792 0.63747 0.85861 0.0
C549 C 0.59358 0.63402 0.78873 0.0
C550 C 0.57756 0.62657 0.94853 0.0
C551 C 0.53732 0.6208 0.83137 0.0
C552 C 0.5152 0.64112 0.81813 0.0
C553 C 0.48471 0.63097 0.7969 0.0
C554 C 0.47719 0.59931 0.78326 0.0
C555 C 0.50012 0.57836 0.7911 0.0
C556 C 0.53022 0.58918 0.81833 0.0
H557 H 0.77787 0.42824 0.81633 0.0
H558 H 0.80506 0.38679 0.05477 0.0
H559 H 0.85241 0.37146 0.98001 0.0
H560 H 0.82349 0.37518 0.6522 0.0
H561 H 0.83243 0.40862 0.58476 0.0
H562 H 0.7952 0.40274 0.64101 0.0
H563 H 0.805 0.4572 0.71025 0.0
H564 H 0.8423 0.46297 0.65748 0.0
H565 H 0.83916 0.46641 0.77495 0.0
H566 H 0.90333 0.37888 0.90237 0.0
H567 H 0.94979 0.40462 0.82572 0.0
H568 H 0.89003 0.4423 0.63965 0.0
C569 C 0.79257 0.4139 0.85086 0.0
C570 C 0.78805 0.40898 0.94123 0.0
C571 C 0.80827 0.39094 0.98533 0.0
C572 C 0.83522 0.38204 0.94313 0.0
C573 C 0.84113 0.39074 0.85644 0.0
C574 C 0.81969 0.40538 0.80965 0.0
C575 C 0.83391 0.41854 0.72531 0.0
C576 C 0.82047 0.40015 0.64614 0.0
C577 C 0.82988 0.4533 0.71678 0.0
C578 C 0.86745 0.41286 0.73793 0.0
C579 C 0.87111 0.39547 0.81141 0.0
C580 C 0.90065 0.3915 0.84296 0.0
C581 C 0.92689 0.40632 0.79975 0.0
C582 C 0.92302 0.42543 0.72786 0.0
C583 C 0.89323 0.42766 0.69482 0.0
H584 H 0.08213 0.23818 0.74257 0.0
H585 H 0.99866 0.24212 0.90235 0.0
H586 H 0.97588 0.19413 0.83324 0.0
H587 H 0.03994 0.19572 0.54039 0.0
H588 H 0.07346 0.17454 0.52194 0.0
H589 H 0.07835 0.21391 0.56133 0.0
H590 H 0.10922 0.19568 0.69086 0.0
H591 H 0.103 0.15614 0.6555 0.0
H592 H 0.09079 0.16706 0.76416 0.0
H593 H 0.97133 0.13863 0.79112 0.0
H594 H 0.97751 0.08519 0.74043 0.0
H595 H 0.06115 0.11763 0.59519 0.0
C596 C 0.05805 0.23029 0.75715 0.0
C597 C 0.04201 0.24393 0.82702 0.0
C598 C 0.01103 0.23241 0.84769 0.0
C599 C 0.9981 0.20479 0.80967 0.0
C600 C 0.016 0.18979 0.74848 0.0
C601 C 0.04468 0.20291 0.71854 0.0
C602 C 0.06068 0.18041 0.66009 0.0
C603 C 0.06324 0.19183 0.56531 0.0
C604 C 0.0928 0.17449 0.69482 0.0
C605 C 0.03782 0.15194 0.66806 0.0
C606 C 0.01223 0.15782 0.71944 0.0
C607 C 0.99046 0.13405 0.74741 0.0
C608 C 0.99436 0.10377 0.71959 0.0
C609 C 0.0195 0.09761 0.66338 0.0
C610 C 0.0414 0.122 0.63696 0.0
H611 H 0.35037 0.02253 0.05348 0.0
H612 H 0.28513 0.98335 0.86222 0.0
H613 H 0.3257 0.99269 0.74527 0.0
H614 H 0.39426 0.0813 0.90345 0.0
H615 H 0.42977 0.07588 0.95862 0.0
H616 H 0.39292 0.07135 0.01731 0.0
H617 H 0.40678 0.0167 0.06225 0.0
H618 H 0.44218 0.02079 0.99763 0.0
H619 H 0.41361 0.98867 0.97773 0.0
H620 H 0.37683 1.00082 0.65188 0.0
H621 H 0.43104 0.00887 0.59312 0.0
H622 H 0.46241 0.04037 0.84912 0.0
C623 C 0.34425 0.01703 0.98637 0.0
C624 C 0.31434 0.00268 0.9668 0.0
C625 C 0.30754 0.99507 0.87852 0.0
C626 C 0.33063 1.00002 0.81183 0.0
C627 C 0.36041 0.01283 0.83428 0.0
C628 C 0.36698 0.0217 0.91955 0.0
C629 C 0.4011 0.03294 0.92881 0.0
C630 C 0.40477 0.06742 0.95351 0.0
C631 C 0.41682 0.0136 0.99551 0.0
C632 C 0.41323 0.02769 0.83653 0.0
C633 C 0.38942 0.01665 0.78215 0.0
C634 C 0.39545 0.00971 0.69411 0.0
C635 C 0.42638 0.01422 0.66124 0.0
C636 C 0.45109 0.02508 0.71644 0.0
C637 C 0.44413 0.032 0.80504 0.0
H638 H 0.4995 0.29719 0.9371 0.0
H639 H 0.45969 0.23527 0.73694 0.0
H640 H 0.46756 0.27755 0.629 0.0
H641 H 0.45788 0.35604 0.88296 0.0
H642 H 0.48694 0.38713 0.90865 0.0
H643 H 0.48674 0.35082 0.96337 0.0
H644 H 0.54374 0.34557 0.91245 0.0
H645 H 0.54434 0.38259 0.86095 0.0
H646 H 0.55426 0.34942 0.79805 0.0
H647 H 0.47295 0.32863 0.54964 0.0
H648 H 0.4767 0.3829 0.50325 0.0
H649 H 0.50718 0.41261 0.76206 0.0
C650 C 0.4941 0.29212 0.86922 0.0
C651 C 0.47983 0.26275 0.84437 0.0
C652 C 0.47155 0.25725 0.75634 0.0
C653 C 0.47559 0.28131 0.69516 0.0
C654 C 0.48753 0.31067 0.72374 0.0
C655 C 0.49686 0.31605 0.80881 0.0
C656 C 0.50437 0.35027 0.82743 0.0
C657 C 0.4827 0.36171 0.89985 0.0
C658 C 0.53874 0.35736 0.85104 0.0
C659 C 0.49769 0.36353 0.73952 0.0
C660 C 0.48839 0.34029 0.68034 0.0
C661 C 0.48042 0.3469 0.59537 0.0
C662 C 0.48249 0.37788 0.5698 0.0
C663 C 0.492 0.40213 0.6292 0.0
C664 C 0.49946 0.39471 0.71544 0.0
H665 H 0.1784 0.47702 0.01192 0.0
H666 H 0.25404 0.49859 0.82578 0.0
H667 H 0.21696 0.4911 0.70442 0.0
H668 H 0.12718 0.42189 0.86788 0.0
H669 H 0.09265 0.43747 0.91102 0.0
H670 H 0.12593 0.43585 0.97933 0.0
H671 H 0.12625 0.49455 0.01033 0.0
H672 H 0.09351 0.49653 0.94086 0.0
H673 H 0.12894 0.52087 0.91988 0.0
H674 H 0.17054 0.49249 0.60778 0.0
H675 H 0.11976 0.49829 0.54236 0.0
H676 H 0.07367 0.47799 0.79286 0.0
C677 C 0.18735 0.47844 0.9452 0.0
C678 C 0.2192 0.48786 0.92801 0.0
C679 C 0.22997 0.49061 0.84025 0.0
C680 C 0.20893 0.48673 0.77103 0.0
C681 C 0.17726 0.47988 0.7908 0.0
C682 C 0.16659 0.47516 0.87589 0.0
C683 C 0.13125 0.47234 0.88151 0.0
C684 C 0.1185 0.43996 0.91169 0.0
C685 C 0.11932 0.49757 0.94168 0.0
C686 C 0.12362 0.47739 0.78682 0.0
C687 C 0.15044 0.4813 0.73536 0.0
C688 C 0.14941 0.48876 0.64718 0.0
C689 C 0.12037 0.4922 0.61068 0.0
C690 C 0.09255 0.48842 0.66216 0.0
C691 C 0.09437 0.48062 0.7513 0.0
H692 H 1.00505 0.80891 0.1302 0.0
H693 H 0.95756 0.75065 0.32754 0.0
H694 H 0.96927 0.79174 0.43882 0.0
H695 H 0.06313 0.85678 0.27448 0.0
H696 H 0.05707 0.89102 0.21463 0.0
H697 H 0.05453 0.85399 0.15963 0.0
H698 H 0.99945 0.86347 0.10833 0.0
H699 H 1.00129 0.89986 0.16576 0.0
H700 H 0.96976 0.87073 0.18864 0.0
H701 H 0.97639 0.8421 0.51969 0.0
H702 H 0.98078 0.89632 0.56794 0.0
H703 H 0.01881 0.92423 0.31269 0.0
C704 C 0.99908 0.80413 0.19821 0.0
C705 C 0.9813 0.77631 0.22131 0.0
C706 C 0.97212 0.77131 0.3095 0.0
C707 C 0.97834 0.79476 0.37264 0.0
C708 C 0.99346 0.82302 0.34589 0.0
C709 C 1.00405 0.82769 0.26075 0.0
C710 C 0.01436 0.86151 0.24446 0.0
C711 C 0.04936 0.86609 0.22202 0.0
C712 C 0.99507 0.87464 0.17259 0.0
C713 C 1.0072 0.87539 0.33313 0.0
C714 C 0.99567 0.8527 0.39094 0.0
C715 C 0.98587 0.85992 0.47535 0.0
C716 C 0.98831 0.89096 0.50187 0.0
C717 C 1.00012 0.91474 0.44402 0.0
C718 C 0.0096 0.90671 0.35833 0.0
H719 H 0.72239 0.06337 0.26286 0.0
H720 H 0.73274 0.97442 0.14052 0.0
H721 H 0.68975 0.9509 0.23505 0.0
H722 H 0.69708 0.03538 0.48675 0.0
H723 H 0.67006 0.06442 0.49712 0.0
H724 H 0.70546 0.07203 0.43352 0.0
H725 H 0.67252 0.08522 0.30164 0.0
H726 H 0.63724 0.07686 0.36506 0.0
H727 H 0.64265 0.05697 0.26248 0.0
H728 H 0.6393 0.93941 0.32323 0.0
H729 H 0.58875 0.94022 0.40243 0.0
H730 H 0.6108 0.0368 0.46678 0.0
C731 C 0.71635 0.03869 0.25801 0.0
C732 C 0.73127 0.0207 0.1945 0.0
C733 C 0.72226 0.9886 0.18959 0.0
C734 C 0.69759 0.97512 0.24264 0.0
C735 C 0.68227 0.99396 0.30099 0.0
C736 C 0.69165 0.02504 0.30964 0.0
C737 C 0.66963 0.04101 0.37012 0.0
C738 C 0.6866 0.05395 0.45176 0.0
C739 C 0.65463 0.0665 0.32192 0.0
C740 C 0.64577 0.0143 0.39288 0.0
C741 C 0.65357 0.98728 0.35267 0.0
C742 C 0.63352 0.96024 0.35681 0.0
C743 C 0.60481 0.96089 0.40201 0.0
C744 C 0.59632 0.98826 0.44351 0.0
C745 C 0.6173 0.01519 0.43952 0.0
H746 H 0.52123 0.69793 0.16476 0.0
H747 H 0.59624 0.74618 0.30976 0.0
H748 H 0.59346 0.7028 0.41489 0.0
H749 H 0.47866 0.65411 0.34447 0.0
H750 H 0.47206 0.62039 0.27516 0.0
H751 H 0.47458 0.65832 0.22828 0.0
H752 H 0.51823 0.64277 0.12207 0.0
H753 H 0.51645 0.60513 0.16991 0.0
H754 H 0.55279 0.62915 0.16604 0.0
H755 H 0.58495 0.65046 0.49558 0.0
H756 H 0.57347 0.59567 0.5388 0.0
H757 H 0.51104 0.58014 0.32168 0.0
C758 C 0.5362 0.69998 0.22092 0.0
C759 C 0.55862 0.72564 0.23014 0.0
C760 C 0.57842 0.72712 0.30276 0.0
C761 C 0.57717 0.70238 0.36203 0.0
C762 C 0.55631 0.67631 0.34667 0.0
C763 C 0.53618 0.67514 0.2775 0.0
C764 C 0.51939 0.64326 0.26559 0.0
C765 C 0.48408 0.64408 0.27924 0.0
C766 C 0.52719 0.62928 0.17559 0.0
C767 C 0.53325 0.62631 0.33845 0.0
C768 C 0.55394 0.64579 0.38612 0.0
C769 C 0.56897 0.63512 0.45806 0.0
C770 C 0.5625 0.60398 0.48182 0.0
C771 C 0.54207 0.58366 0.43197 0.0
C772 C 0.52742 0.59504 0.35935 0.0
H773 H 0.82931 0.50081 0.0657 0.0
H774 H 0.75679 0.4865 0.26491 0.0
H775 H 0.79518 0.50262 0.37878 0.0
H776 H 0.88381 0.46708 0.173 0.0
H777 H 0.91721 0.49233 0.13849 0.0
H778 H 0.88339 0.48762 0.07151 0.0
H779 H 0.87929 0.54656 0.07522 0.0
H780 H 0.9136 0.55166 0.14089 0.0
H781 H 0.8781 0.56666 0.17895 0.0
H782 H 0.84292 0.50952 0.47092 0.0
H783 H 0.89492 0.51045 0.5344 0.0
H784 H 0.93746 0.51999 0.27535 0.0
C785 C 0.82126 0.50267 0.13301 0.0
C786 C 0.78992 0.49306 0.15656 0.0
C787 C 0.78039 0.49458 0.24537 0.0
C788 C 0.80218 0.50344 0.31039 0.0
C789 C 0.83333 0.51096 0.28531 0.0
C790 C 0.84275 0.51123 0.19838 0.0
C791 C 0.878 0.51643 0.18893 0.0
C792 C 0.89136 0.48925 0.14013 0.0
C793 C 0.88782 0.54716 0.14331 0.0
C794 C 0.88716 0.51778 0.28418 0.0
C795 C 0.861 0.51491 0.33864 0.0
C796 C 0.86346 0.51255 0.4289 0.0
C797 C 0.8932 0.51294 0.46433 0.0
C798 C 0.92039 0.51566 0.41003 0.0
C799 C 0.91722 0.51865 0.31876 0.0
loop_
_geom_bond_atom_site_label_1
_geom_bond_atom_site_label_2
_geom_bond_distance
_geom_bond_site_symmetry_2
_ccdc_geom_bond_type
H0 C3 0.931 . S
H1 C6 0.928 . S
H2 C8 0.930 . S
C3 H0 0.931 . S
C3 C4 1.413 . S
C3 C5 1.360 1_554 S
C4 C3 1.413 . S
C4 C8 1.429 . S
C5 C3 1.360 1_556 S
C5 C6 1.372 . S
C6 H1 0.928 . S
C6 C5 1.372 . S
C6 C7 1.404 1_556 S
C7 C6 1.404 1_554 S
C7 C8 1.391 . S
C8 H2 0.930 . S
C8 C4 1.429 . S
C8 C7 1.391 . S
H9 C12 0.931 . S
H10 C15 0.928 . S
H11 C17 0.930 . S
C12 H9 0.931 . S
C12 C13 1.413 . S
C12 C14 1.360 1_554 S
C13 C12 1.413 . S
C13 C17 1.429 . S
C14 C12 1.360 1_556 S
C14 C15 1.372 . S
C15 H10 0.928 . S
C15 C14 1.372 . S
C15 C16 1.404 1_556 S
C16 C15 1.404 1_554 S
C16 C17 1.391 . S
C17 H11 0.930 . S
C17 C13 1.429 . S
C17 C16 1.391 . S
H18 C21 0.931 . S
H19 C24 0.928 . S
H20 C26 0.932 . S
C21 H18 0.931 . S
C21 C22 1.414 . S
C21 C23 1.360 1_554 S
C22 C21 1.414 . S
C22 C26 1.430 1_565 S
C23 C21 1.360 1_556 S
C23 C24 1.374 . S
C24 H19 0.928 . S
C24 C23 1.374 . S
C24 C25 1.403 1_556 S
C25 C24 1.403 1_554 S
C25 C26 1.390 1_565 S
C26 H20 0.932 . S
C26 C22 1.430 1_545 S
C26 C25 1.390 1_545 S
H27 C30 0.931 . S
H28 C33 0.928 . S
H29 C35 0.930 . S
C30 H27 0.931 . S
C30 C31 1.413 . S
C30 C32 1.360 . S
C31 C30 1.413 . S
C31 C35 1.429 1_554 S
C32 C30 1.360 . S
C32 C33 1.372 . S
C33 H28 0.928 . S
C33 C32 1.372 . S
C33 C34 1.404 . S
C34 C33 1.404 . S
C34 C35 1.391 1_554 S
C35 H29 0.930 . S
C35 C31 1.429 1_556 S
C35 C34 1.391 1_556 S
H36 C39 0.931 . S
H37 C42 0.928 . S
H38 C44 0.930 . S
C39 H36 0.931 . S
C39 C40 1.413 1_554 S
C39 C41 1.360 . S
C40 C39 1.413 1_556 S
C40 C44 1.429 . S
C41 C39 1.360 . S
C41 C42 1.372 . S
C42 H37 0.928 . S
C42 C41 1.372 . S
C42 C43 1.404 . S
C43 C42 1.404 . S
C43 C44 1.391 1_554 S
C44 H38 0.930 . S
C44 C40 1.429 . S
C44 C43 1.391 1_556 S
H45 C48 0.931 . S
H46 C51 0.928 . S
H47 C53 0.930 1_556 S
C48 H45 0.931 . S
C48 C49 1.413 1_554 S
C48 C50 1.360 . S
C49 C48 1.413 1_556 S
C49 C53 1.429 1_556 S
C50 C48 1.360 . S
C50 C51 1.372 . S
C51 H46 0.928 . S
C51 C50 1.372 . S
C51 C52 1.404 . S
C52 C51 1.404 . S
C52 C53 1.391 . S
C53 H47 0.930 1_554 S
C53 C49 1.429 1_554 S
C53 C52 1.391 . S
H54 C57 0.930 . S
H55 C60 0.928 . S
H56 C62 0.928 . S
C57 H54 0.930 . S
C57 C58 1.413 1_554 S
C57 C59 1.360 . S
C58 C57 1.413 1_556 S
C58 C62 1.428 1_565 S
C59 C57 1.360 . S
C59 C60 1.371 . S
C60 H55 0.928 . S
C60 C59 1.371 . S
C60 C61 1.404 . S
C61 C60 1.404 . S
C61 C62 1.391 1_564 S
C62 H56 0.928 . S
C62 C58 1.428 1_545 S
C62 C61 1.391 1_546 S
H63 C66 0.931 1_556 S
H64 C69 0.928 . S
H65 C71 0.930 . S
C66 H63 0.931 1_554 S
C66 C67 1.413 . S
C66 C68 1.360 1_554 S
C67 C66 1.413 . S
C67 C71 1.429 . S
C68 C66 1.360 1_556 S
C68 C69 1.372 . S
C69 H64 0.928 . S
C69 C68 1.372 . S
C69 C70 1.404 1_556 S
C70 C69 1.404 1_554 S
C70 C71 1.391 . S
C71 H65 0.930 . S
C71 C67 1.429 . S
C71 C70 1.391 . S
Dy72 O76 2.398 . S
Dy72 O77 2.491 1_455 S
Dy72 O78 2.403 . S
Dy72 O79 2.664 1_565 S
Dy72 O83 2.326 . S
Dy72 O87 2.310 1_455 S
Dy72 O88 2.351 1_565 S
C73 O84 1.185 1_455 S
C73 O85 1.355 . S
C74 O76 1.185 . S
C74 O77 1.355 1_455 S
Dy75 O79 2.310 1_655 S
Dy75 O82 2.351 1_545 S
Dy75 O84 2.398 . S
Dy75 O85 2.491 1_655 S
Dy75 O86 2.403 . S
Dy75 O87 2.664 1_545 S
Dy75 O89 2.326 1_655 S
O76 Dy72 2.398 . S
O76 C74 1.185 . S
O77 Dy72 2.491 1_655 S
O77 C74 1.355 1_655 S
O78 Dy72 2.403 . S
O78 C80 1.254 . S
O79 Dy72 2.664 1_545 S
O79 Dy75 2.310 1_455 S
O79 C80 1.268 1_545 S
C80 O78 1.254 . S
C80 O79 1.268 1_565 S
C81 O86 1.254 . S
C81 O87 1.268 1_545 S
O82 Dy75 2.351 1_565 S
O82 C90 1.249 . S
O83 Dy72 2.326 . S
O83 C90 1.267 1_455 S
O84 C73 1.185 1_655 S
O84 Dy75 2.398 . S
O85 C73 1.355 . S
O85 Dy75 2.491 1_455 S
O86 Dy75 2.403 . S
O86 C81 1.254 . S
O87 Dy72 2.310 1_655 S
O87 Dy75 2.664 1_565 S
O87 C81 1.268 1_565 S
O88 Dy72 2.351 1_545 S
O88 C91 1.249 . S
O89 Dy75 2.326 1_455 S
O89 C91 1.267 . S
C90 O82 1.249 . S
C90 O83 1.267 1_655 S
C91 O88 1.249 . S
C91 O89 1.267 . S
Dy92 O96 2.398 . S
Dy92 O97 2.491 . S
Dy92 O98 2.403 . S
Dy92 O99 2.664 . S
Dy92 O103 2.326 1_565 S
Dy92 O107 2.310 1_565 S
Dy92 O108 2.351 . S
C93 O104 1.185 . S
C93 O105 1.355 . S
C94 O96 1.185 . S
C94 O97 1.355 . S
Dy95 O99 2.310 1_545 S
Dy95 O102 2.351 . S
Dy95 O104 2.398 . S
Dy95 O105 2.491 . S
Dy95 O106 2.403 . S
Dy95 O107 2.664 . S
Dy95 O109 2.326 1_545 S
O96 Dy92 2.398 . S
O96 C94 1.185 . S
O97 Dy92 2.491 . S
O97 C94 1.355 . S
O98 Dy92 2.403 . S
O98 C100 1.254 . S
O99 Dy92 2.664 . S
O99 Dy95 2.310 1_565 S
O99 C100 1.268 . S
C100 O98 1.254 . S
C100 O99 1.268 . S
C101 O106 1.254 . S
C101 O107 1.268 . S
O102 Dy95 2.351 . S
O102 C110 1.249 . S
O103 Dy92 2.326 1_545 S
O103 C110 1.267 . S
O104 C93 1.185 . S
O104 Dy95 2.398 . S
O105 C93 1.355 . S
O105 Dy95 2.491 . S
O106 Dy95 2.403 . S
O106 C101 1.254 . S
O107 Dy92 2.310 1_545 S
O107 Dy95 2.664 . S
O107 C101 1.268 . S
O108 Dy92 2.351 . S
O108 C111 1.249 . S
O109 Dy95 2.326 1_565 S
O109 C111 1.267 . S
C110 O102 1.249 . S
C110 O103 1.267 . S
C111 O108 1.249 . S
C111 O109 1.267 . S
Dy112 O116 2.398 . S
Dy112 O117 2.491 . S
Dy112 O118 2.403 . S
Dy112 O119 2.664 . S
Dy112 O123 2.326 . S
Dy112 O127 2.310 . S
Dy112 O128 2.351 . S
C113 O124 1.185 . S
C113 O125 1.355 . S
C114 O116 1.185 . S
C114 O117 1.355 . S
Dy115 O119 2.310 . S
Dy115 O122 2.351 . S
Dy115 O124 2.398 . S
Dy115 O125 2.491 . S
Dy115 O126 2.403 . S
Dy115 O127 2.664 . S
Dy115 O129 2.326 . S
O116 Dy112 2.398 . S
O116 C114 1.185 . S
O117 Dy112 2.491 . S
O117 C114 1.355 . S
O118 Dy112 2.403 . S
O118 C120 1.254 . S
O119 Dy112 2.664 . S
O119 Dy115 2.310 . S
O119 C120 1.268 . S
C120 O118 1.254 . S
C120 O119 1.268 . S
C121 O126 1.254 . S
C121 O127 1.268 . S
O122 Dy115 2.351 . S
O122 C130 1.249 . S
O123 Dy112 2.326 . S
O123 C130 1.267 . S
O124 C113 1.185 . S
O124 Dy115 2.398 . S
O125 C113 1.355 . S
O125 Dy115 2.491 . S
O126 Dy115 2.403 . S
O126 C121 1.254 . S
O127 Dy112 2.310 . S
O127 Dy115 2.664 . S
O127 C121 1.268 . S
O128 Dy112 2.351 . S
O128 C131 1.249 . S
O129 Dy115 2.326 . S
O129 C131 1.267 . S
C130 O122 1.249 . S
C130 O123 1.267 . S
C131 O128 1.249 . S
C131 O129 1.267 . S
Dy132 O136 2.398 . S
Dy132 O137 2.491 . S
Dy132 O138 2.403 . S
Dy132 O139 2.664 1_655 S
Dy132 O143 2.326 . S
Dy132 O147 2.310 . S
Dy132 O148 2.351 1_655 S
C133 O144 1.185 . S
C133 O145 1.355 . S
C134 O136 1.185 . S
C134 O137 1.355 . S
Dy135 O139 2.310 . S
Dy135 O142 2.351 1_455 S
Dy135 O144 2.398 . S
Dy135 O145 2.491 . S
Dy135 O146 2.403 . S
Dy135 O147 2.664 1_455 S
Dy135 O149 2.326 . S
O136 Dy132 2.398 . S
O136 C134 1.185 . S
O137 Dy132 2.491 . S
O137 C134 1.355 . S
O138 Dy132 2.403 . S
O138 C140 1.254 1_655 S
O139 Dy132 2.664 1_455 S
O139 Dy135 2.310 . S
O139 C140 1.268 . S
C140 O138 1.254 1_455 S
C140 O139 1.268 . S
C141 O146 1.254 1_655 S
C141 O147 1.268 . S
O142 Dy135 2.351 1_655 S
O142 C150 1.249 . S
O143 Dy132 2.326 . S
O143 C150 1.267 . S
O144 C133 1.185 . S
O144 Dy135 2.398 . S
O145 C133 1.355 . S
O145 Dy135 2.491 . S
O146 Dy135 2.403 . S
O146 C141 1.254 1_455 S
O147 Dy132 2.310 . S
O147 Dy135 2.664 1_655 S
O147 C141 1.268 . S
O148 Dy132 2.351 1_455 S
O148 C151 1.249 . S
O149 Dy135 2.326 . S
O149 C151 1.267 . S
C150 O142 1.249 . S
C150 O143 1.267 . S
C151 O148 1.249 . S
C151 O149 1.267 . S
H152 C164 0.930 . S
H153 C166 0.930 . S
H154 C167 0.930 . S
H155 C171 0.959 . S
H156 C171 0.959 . S
H157 C171 0.961 . S
H158 C172 0.960 . S
H159 C172 0.961 . S
H160 C172 0.959 . S
H161 C175 0.929 . S
H162 C176 0.931 . S
H163 C178 0.930 . S
C164 H152 0.930 . S
C164 C165 1.399 1_565 S
C164 C169 1.399 . S
C165 C164 1.399 1_545 S
C165 C166 1.376 . S
C166 H153 0.930 . S
C166 C165 1.376 . S
C166 C167 1.388 . S
C167 H154 0.930 . S
C167 C166 1.388 . S
C167 C168 1.390 . S
C168 C167 1.390 . S
C168 C169 1.394 1_545 S
C168 C174 1.465 . S
C169 C164 1.399 . S
C169 C168 1.394 1_565 S
C169 C170 1.516 . S
C170 C169 1.516 . S
C170 C171 1.502 . S
C170 C172 1.561 . S
C170 C173 1.526 . S
C171 H155 0.959 . S
C171 H156 0.959 . S
C171 H157 0.961 . S
C171 C170 1.502 . S
C172 H158 0.960 . S
C172 H159 0.961 . S
C172 H160 0.959 . S
C172 C170 1.561 . S
C173 C170 1.526 . S
C173 C174 1.396 1_565 S
C173 C178 1.390 . S
C174 C168 1.465 . S
C174 C173 1.396 1_545 S
C174 C175 1.399 . S
C175 H161 0.929 . S
C175 C174 1.399 . S
C175 C176 1.385 . S
C176 H162 0.931 . S
C176 C175 1.385 . S
C176 C177 1.368 1_545 S
C177 C176 1.368 1_565 S
C177 C178 1.406 . S
C178 H163 0.930 . S
C178 C173 1.390 . S
C178 C177 1.406 . S
H179 C191 0.930 . S
H180 C193 0.930 . S
H181 C194 0.930 . S
H182 C198 0.959 . S
H183 C198 0.959 . S
H184 C198 0.961 . S
H185 C199 0.960 . S
H186 C199 0.961 . S
H187 C199 0.959 . S
H188 C202 0.929 . S
H189 C203 0.931 . S
H190 C205 0.930 . S
C191 H179 0.930 . S
C191 C192 1.399 . S
C191 C196 1.399 . S
C192 C191 1.399 . S
C192 C193 1.376 . S
C193 H180 0.930 . S
C193 C192 1.376 . S
C193 C194 1.388 . S
C194 H181 0.930 . S
C194 C193 1.388 . S
C194 C195 1.390 . S
C195 C194 1.390 . S
C195 C196 1.394 . S
C195 C201 1.465 . S
C196 C191 1.399 . S
C196 C195 1.394 . S
C196 C197 1.516 . S
C197 C196 1.516 . S
C197 C198 1.502 . S
C197 C199 1.561 . S
C197 C200 1.526 . S
C198 H182 0.959 . S
C198 H183 0.959 . S
C198 H184 0.961 . S
C198 C197 1.502 . S
C199 H185 0.960 . S
C199 H186 0.961 . S
C199 H187 0.959 . S
C199 C197 1.561 . S
C200 C197 1.526 . S
C200 C201 1.396 . S
C200 C205 1.390 . S
C201 C195 1.465 . S
C201 C200 1.396 . S
C201 C202 1.399 . S
C202 H188 0.929 . S
C202 C201 1.399 . S
C202 C203 1.385 . S
C203 H189 0.931 . S
C203 C202 1.385 . S
C203 C204 1.389 . S
C204 C203 1.389 . S
C204 C205 1.387 . S
C205 H190 0.930 . S
C205 C200 1.390 . S
C205 C204 1.387 . S
H206 C218 0.930 . S
H207 C220 0.930 . S
H208 C221 0.930 . S
H209 C225 0.959 . S
H210 C225 0.959 . S
H211 C225 0.961 . S
H212 C226 0.960 . S
H213 C226 0.961 . S
H214 C226 0.959 . S
H215 C229 0.929 . S
H216 C230 0.931 . S
H217 C232 0.930 . S
C218 H206 0.930 . S
C218 C219 1.399 . S
C218 C223 1.399 . S
C219 C218 1.399 . S
C219 C220 1.376 . S
C220 H207 0.930 . S
C220 C219 1.376 . S
C220 C221 1.388 . S
C221 H208 0.930 . S
C221 C220 1.388 . S
C221 C222 1.390 . S
C222 C221 1.390 . S
C222 C223 1.394 . S
C222 C228 1.465 . S
C223 C218 1.399 . S
C223 C222 1.394 . S
C223 C224 1.516 . S
C224 C223 1.516 . S
C224 C225 1.502 . S
C224 C226 1.561 . S
C224 C227 1.526 . S
C225 H209 0.959 . S
C225 H210 0.959 . S
C225 H211 0.961 . S
C225 C224 1.502 . S
C226 H212 0.960 . S
C226 H213 0.961 . S
C226 H214 0.959 . S
C226 C224 1.561 . S
C227 C224 1.526 . S
C227 C228 1.396 . S
C227 C232 1.390 . S
C228 C222 1.465 . S
C228 C227 1.396 . S
C228 C229 1.399 . S
C229 H215 0.929 . S
C229 C228 1.399 . S
C229 C230 1.385 . S
C230 H216 0.931 . S
C230 C229 1.385 . S
C230 C231 1.389 . S
C231 C230 1.389 . S
C231 C232 1.387 . S
C232 H217 0.930 . S
C232 C227 1.390 . S
C232 C231 1.387 . S
H233 C245 0.930 . S
H234 C247 0.930 . S
H235 C248 0.930 . S
H236 C252 0.959 . S
H237 C252 0.959 . S
H238 C252 0.961 . S
H239 C253 0.960 . S
H240 C253 0.961 1_655 S
H241 C253 0.959 1_655 S
H242 C256 0.929 . S
H243 C257 0.931 . S
H244 C259 0.930 . S
C245 H233 0.930 . S
C245 C246 1.399 . S
C245 C250 1.399 . S
C246 C245 1.399 . S
C246 C247 1.376 . S
C247 H234 0.930 . S
C247 C246 1.376 . S
C247 C248 1.388 . S
C248 H235 0.930 . S
C248 C247 1.388 . S
C248 C249 1.390 . S
C249 C248 1.390 . S
C249 C250 1.394 . S
C249 C255 1.465 . S
C250 C245 1.399 . S
C250 C249 1.394 . S
C250 C251 1.516 . S
C251 C250 1.516 . S
C251 C252 1.502 . S
C251 C253 1.561 . S
C251 C254 1.526 . S
C252 H236 0.959 . S
C252 H237 0.959 . S
C252 H238 0.961 . S
C252 C251 1.502 . S
C253 H239 0.960 . S
C253 H240 0.961 1_455 S
C253 H241 0.959 1_455 S
C253 C251 1.561 . S
C254 C251 1.526 . S
C254 C255 1.396 . S
C254 C259 1.390 . S
C255 C249 1.465 . S
C255 C254 1.396 . S
C255 C256 1.399 . S
C256 H242 0.929 . S
C256 C255 1.399 . S
C256 C257 1.385 . S
C257 H243 0.931 . S
C257 C256 1.385 . S
C257 C258 1.389 . S
C258 C257 1.389 . S
C258 C259 1.387 . S
C259 H244 0.930 . S
C259 C254 1.390 . S
C259 C258 1.387 . S
H260 C272 0.930 . S
H261 C274 0.930 1_554 S
H262 C275 0.930 . S
H263 C279 0.959 . S
H264 C279 0.959 . S
H265 C279 0.961 . S
H266 C280 0.960 . S
H267 C280 0.961 . S
H268 C280 0.959 . S
H269 C283 0.929 . S
H270 C284 0.931 . S
H271 C286 0.930 . S
C272 H260 0.930 . S
C272 C273 1.399 1_545 S
C272 C277 1.399 . S
C273 C272 1.399 1_565 S
C273 C274 1.376 . S
C274 H261 0.930 1_556 S
C274 C273 1.376 . S
C274 C275 1.388 . S
C275 H262 0.930 . S
C275 C274 1.388 . S
C275 C276 1.390 . S
C276 C275 1.390 . S
C276 C277 1.394 1_565 S
C276 C282 1.465 . S
C277 C272 1.399 . S
C277 C276 1.394 1_545 S
C277 C278 1.516 . S
C278 C277 1.516 . S
C278 C279 1.502 . S
C278 C280 1.561 . S
C278 C281 1.526 . S
C279 H263 0.959 . S
C279 H264 0.959 . S
C279 H265 0.961 . S
C279 C278 1.502 . S
C280 H266 0.960 . S
C280 H267 0.961 . S
C280 H268 0.959 . S
C280 C278 1.561 . S
C281 C278 1.526 . S
C281 C282 1.396 1_545 S
C281 C286 1.390 . S
C282 C276 1.465 . S
C282 C281 1.396 1_565 S
C282 C283 1.399 . S
C283 H269 0.929 . S
C283 C282 1.399 . S
C283 C284 1.385 . S
C284 H270 0.931 . S
C284 C283 1.385 . S
C284 C285 1.361 1_565 S
C285 C284 1.361 1_545 S
C285 C286 1.411 . S
C286 H271 0.930 . S
C286 C281 1.390 . S
C286 C285 1.411 . S
H287 C299 0.930 . S
H288 C301 0.930 . S
H289 C302 0.930 1_554 S
H290 C306 0.959 . S
H291 C306 0.959 . S
H292 C306 0.961 . S
H293 C307 0.960 . S
H294 C307 0.961 . S
H295 C307 0.959 . S
H296 C310 0.929 . S
H297 C311 0.931 . S
H298 C313 0.930 . S
C299 H287 0.930 . S
C299 C300 1.399 1_556 S
C299 C304 1.399 . S
C300 C299 1.399 1_554 S
C300 C301 1.376 . S
C301 H288 0.930 . S
C301 C300 1.376 . S
C301 C302 1.388 1_554 S
C302 H289 0.930 1_556 S
C302 C301 1.388 1_556 S
C302 C303 1.390 . S
C303 C302 1.390 . S
C303 C304 1.394 . S
C303 C309 1.465 . S
C304 C299 1.399 . S
C304 C303 1.394 . S
C304 C305 1.516 . S
C305 C304 1.516 . S
C305 C306 1.502 . S
C305 C307 1.561 . S
C305 C308 1.526 . S
C306 H290 0.959 . S
C306 H291 0.959 . S
C306 H292 0.961 . S
C306 C305 1.502 . S
C307 H293 0.960 . S
C307 H294 0.961 . S
C307 H295 0.959 . S
C307 C305 1.561 . S
C308 C305 1.526 . S
C308 C309 1.396 . S
C308 C313 1.390 . S
C309 C303 1.465 . S
C309 C308 1.396 . S
C309 C310 1.399 . S
C310 H296 0.929 . S
C310 C309 1.399 . S
C310 C311 1.385 . S
C311 H297 0.931 . S
C311 C310 1.385 . S
C311 C312 1.389 . S
C312 C311 1.389 . S
C312 C313 1.387 . S
C313 H298 0.930 . S
C313 C308 1.390 . S
C313 C312 1.387 . S
H314 C326 0.930 . S
H315 C328 0.930 . S
H316 C329 0.930 . S
H317 C333 0.959 . S
H318 C333 0.959 . S
H319 C333 0.961 . S
H320 C334 0.960 . S
H321 C334 0.961 . S
H322 C334 0.959 . S
H323 C337 0.929 . S
H324 C338 0.931 . S
H325 C340 0.930 . S
C326 H314 0.930 . S
C326 C327 1.399 . S
C326 C331 1.399 . S
C327 C326 1.399 . S
C327 C328 1.376 . S
C328 H315 0.930 . S
C328 C327 1.376 . S
C328 C329 1.388 . S
C329 H316 0.930 . S
C329 C328 1.388 . S
C329 C330 1.390 . S
C330 C329 1.390 . S
C330 C331 1.394 . S
C330 C336 1.465 . S
C331 C326 1.399 . S
C331 C330 1.394 . S
C331 C332 1.516 . S
C332 C331 1.516 . S
C332 C333 1.502 . S
C332 C334 1.561 . S
C332 C335 1.526 . S
C333 H317 0.959 . S
C333 H318 0.959 . S
C333 H319 0.961 . S
C333 C332 1.502 . S
C334 H320 0.960 . S
C334 H321 0.961 . S
C334 H322 0.959 . S
C334 C332 1.561 . S
C335 C332 1.526 . S
C335 C336 1.396 . S
C335 C340 1.390 . S
C336 C330 1.465 . S
C336 C335 1.396 . S
C336 C337 1.399 . S
C337 H323 0.929 . S
C337 C336 1.399 . S
C337 C338 1.385 . S
C338 H324 0.931 . S
C338 C337 1.385 . S
C338 C339 1.389 . S
C339 C338 1.389 . S
C339 C340 1.387 . S
C340 H325 0.930 . S
C340 C335 1.390 . S
C340 C339 1.387 . S
H341 C353 0.930 . S
H342 C355 0.930 . S
H343 C356 0.930 . S
H344 C360 0.959 . S
H345 C360 0.959 . S
H346 C360 0.961 . S
H347 C361 0.960 . S
H348 C361 0.961 . S
H349 C361 0.958 . S
H350 C364 0.929 . S
H351 C365 0.931 . S
H352 C367 0.930 . S
C353 H341 0.930 . S
C353 C354 1.399 . S
C353 C358 1.399 . S
C354 C353 1.399 . S
C354 C355 1.376 1_556 S
C355 H342 0.930 . S
C355 C354 1.376 1_554 S
C355 C356 1.388 1_554 S
C356 H343 0.930 . S
C356 C355 1.388 1_556 S
C356 C357 1.390 . S
C357 C356 1.390 . S
C357 C358 1.394 . S
C357 C363 1.465 . S
C358 C353 1.399 . S
C358 C357 1.394 . S
C358 C359 1.516 . S
C359 C358 1.516 . S
C359 C360 1.502 . S
C359 C361 1.561 . S
C359 C362 1.526 . S
C360 H344 0.959 . S
C360 H345 0.959 . S
C360 H346 0.961 . S
C360 C359 1.502 . S
C361 H347 0.960 . S
C361 H348 0.961 . S
C361 H349 0.958 . S
C361 C359 1.561 . S
C362 C359 1.526 . S
C362 C363 1.396 . S
C362 C367 1.390 . S
C363 C357 1.465 . S
C363 C362 1.396 . S
C363 C364 1.399 . S
C364 H350 0.929 . S
C364 C363 1.399 . S
C364 C365 1.385 . S
C365 H351 0.931 . S
C365 C364 1.385 . S
C365 C366 1.389 . S
C366 C365 1.389 . S
C366 C367 1.387 . S
C367 H352 0.930 . S
C367 C362 1.390 . S
C367 C366 1.387 . S
H368 C380 0.930 . S
H369 C382 0.930 . S
H370 C383 0.930 . S
H371 C387 0.959 . S
H372 C387 0.959 . S
H373 C387 0.961 . S
H374 C388 0.960 . S
H375 C388 0.961 . S
H376 C388 0.959 . S
H377 C391 0.929 . S
H378 C392 0.931 . S
H379 C394 0.930 1_655 S
C380 H368 0.930 . S
C380 C381 1.399 . S
C380 C385 1.399 . S
C381 C380 1.399 . S
C381 C382 1.376 . S
C382 H369 0.930 . S
C382 C381 1.376 . S
C382 C383 1.388 . S
C383 H370 0.930 . S
C383 C382 1.388 . S
C383 C384 1.390 . S
C384 C383 1.390 . S
C384 C385 1.394 . S
C384 C390 1.465 . S
C385 C380 1.399 . S
C385 C384 1.394 . S
C385 C386 1.516 . S
C386 C385 1.516 . S
C386 C387 1.502 1_455 S
C386 C388 1.561 . S
C386 C389 1.526 . S
C387 H371 0.959 . S
C387 H372 0.959 . S
C387 H373 0.961 . S
C387 C386 1.502 1_655 S
C388 H374 0.960 . S
C388 H375 0.961 . S
C388 H376 0.959 . S
C388 C386 1.561 . S
C389 C386 1.526 . S
C389 C390 1.396 . S
C389 C394 1.390 . S
C390 C384 1.465 . S
C390 C389 1.396 . S
C390 C391 1.399 . S
C391 H377 0.929 . S
C391 C390 1.399 . S
C391 C392 1.385 . S
C392 H378 0.931 . S
C392 C391 1.385 . S
C392 C393 1.389 . S
C393 C392 1.389 . S
C393 C394 1.387 . S
C394 H379 0.930 1_455 S
C394 C389 1.390 . S
C394 C393 1.387 . S
H395 C407 0.930 . S
H396 C409 0.930 . S
H397 C410 0.930 . S
H398 C414 0.959 . S
H399 C414 0.959 . S
H400 C414 0.961 . S
H401 C415 0.960 . S
H402 C415 0.961 . S
H403 C415 0.959 . S
H404 C418 0.929 . S
H405 C419 0.931 . S
H406 C421 0.930 . S
C407 H395 0.930 . S
C407 C408 1.399 1_565 S
C407 C412 1.399 . S
C408 C407 1.399 1_545 S
C408 C409 1.376 . S
C409 H396 0.930 . S
C409 C408 1.376 . S
C409 C410 1.388 . S
C410 H397 0.930 . S
C410 C409 1.388 . S
C410 C411 1.390 . S
C411 C410 1.390 . S
C411 C412 1.394 1_545 S
C411 C417 1.465 . S
C412 C407 1.399 . S
C412 C411 1.394 1_565 S
C412 C413 1.516 . S
C413 C412 1.516 . S
C413 C414 1.502 . S
C413 C415 1.561 . S
C413 C416 1.526 . S
C414 H398 0.959 . S
C414 H399 0.959 . S
C414 H400 0.961 . S
C414 C413 1.502 . S
C415 H401 0.960 . S
C415 H402 0.961 . S
C415 H403 0.959 . S
C415 C413 1.561 . S
C416 C413 1.526 . S
C416 C417 1.396 1_565 S
C416 C421 1.390 . S
C417 C411 1.465 . S
C417 C416 1.396 1_545 S
C417 C418 1.399 . S
C418 H404 0.929 . S
C418 C417 1.399 . S
C418 C419 1.385 . S
C419 H405 0.931 . S
C419 C418 1.385 . S
C419 C420 1.389 1_545 S
C420 C419 1.389 1_565 S
C420 C421 1.387 . S
C421 H406 0.930 . S
C421 C416 1.390 . S
C421 C420 1.387 . S
H422 C434 0.930 . S
H423 C436 0.930 . S
H424 C437 0.930 . S
H425 C441 0.959 . S
H426 C441 0.959 . S
H427 C441 0.961 . S
H428 C442 0.960 . S
H429 C442 0.961 . S
H430 C442 0.959 . S
H431 C445 0.929 . S
H432 C446 0.931 . S
H433 C448 0.930 . S
C434 H422 0.930 . S
C434 C435 1.399 . S
C434 C439 1.399 . S
C435 C434 1.399 . S
C435 C436 1.376 . S
C436 H423 0.930 . S
C436 C435 1.376 . S
C436 C437 1.388 . S
C437 H424 0.930 . S
C437 C436 1.388 . S
C437 C438 1.390 . S
C438 C437 1.390 . S
C438 C439 1.394 . S
C438 C444 1.465 . S
C439 C434 1.399 . S
C439 C438 1.394 . S
C439 C440 1.516 . S
C440 C439 1.516 . S
C440 C441 1.502 . S
C440 C442 1.561 . S
C440 C443 1.526 . S
C441 H425 0.959 . S
C441 H426 0.959 . S
C441 H427 0.961 . S
C441 C440 1.502 . S
C442 H428 0.960 . S
C442 H429 0.961 . S
C442 H430 0.959 . S
C442 C440 1.561 . S
C443 C440 1.526 . S
C443 C444 1.396 . S
C443 C448 1.390 . S
C444 C438 1.465 . S
C444 C443 1.396 . S
C444 C445 1.399 . S
C445 H431 0.929 . S
C445 C444 1.399 . S
C445 C446 1.385 . S
C446 H432 0.931 . S
C446 C445 1.385 . S
C446 C447 1.389 . S
C447 C446 1.389 . S
C447 C448 1.387 . S
C448 H433 0.930 . S
C448 C443 1.390 . S
C448 C447 1.387 . S
H449 C461 0.930 . S
H450 C463 0.930 . S
H451 C464 0.930 . S
H452 C468 0.959 . S
H453 C468 0.959 . S
H454 C468 0.961 . S
H455 C469 0.960 . S
H456 C469 0.961 . S
H457 C469 0.959 . S
H458 C472 0.929 . S
H459 C473 0.931 . S
H460 C475 0.930 . S
C461 H449 0.930 . S
C461 C462 1.399 . S
C461 C466 1.399 . S
C462 C461 1.399 . S
C462 C463 1.376 . S
C463 H450 0.930 . S
C463 C462 1.376 . S
C463 C464 1.388 . S
C464 H451 0.930 . S
C464 C463 1.388 . S
C464 C465 1.390 . S
C465 C464 1.390 . S
C465 C466 1.394 . S
C465 C471 1.465 . S
C466 C461 1.399 . S
C466 C465 1.394 . S
C466 C467 1.516 . S
C467 C466 1.516 . S
C467 C468 1.502 . S
C467 C469 1.561 . S
C467 C470 1.526 . S
C468 H452 0.959 . S
C468 H453 0.959 . S
C468 H454 0.961 . S
C468 C467 1.502 . S
C469 H455 0.960 . S
C469 H456 0.961 . S
C469 H457 0.959 . S
C469 C467 1.561 . S
C470 C467 1.526 . S
C470 C471 1.396 . S
C470 C475 1.390 . S
C471 C465 1.465 . S
C471 C470 1.396 . S
C471 C472 1.399 . S
C472 H458 0.929 . S
C472 C471 1.399 . S
C472 C473 1.385 . S
C473 H459 0.931 . S
C473 C472 1.385 . S
C473 C474 1.389 . S
C474 C473 1.389 . S
C474 C475 1.387 . S
C475 H460 0.930 . S
C475 C470 1.390 . S
C475 C474 1.387 . S
H476 C488 0.930 . S
H477 C490 0.930 . S
H478 C491 0.930 . S
H479 C495 0.959 . S
H480 C495 0.959 . S
H481 C495 0.961 . S
H482 C496 0.960 . S
H483 C496 0.961 . S
H484 C496 0.959 . S
H485 C499 0.929 . S
H486 C500 0.931 . S
H487 C502 0.930 . S
C488 H476 0.930 . S
C488 C489 1.399 . S
C488 C493 1.399 . S
C489 C488 1.399 . S
C489 C490 1.376 . S
C490 H477 0.930 . S
C490 C489 1.376 . S
C490 C491 1.388 . S
C491 H478 0.930 . S
C491 C490 1.388 . S
C491 C492 1.390 . S
C492 C491 1.390 . S
C492 C493 1.394 . S
C492 C498 1.465 . S
C493 C488 1.399 . S
C493 C492 1.394 . S
C493 C494 1.516 . S
C494 C493 1.516 . S
C494 C495 1.502 1_655 S
C494 C496 1.561 . S
C494 C497 1.526 . S
C495 H479 0.959 . S
C495 H480 0.959 . S
C495 H481 0.961 . S
C495 C494 1.502 1_455 S
C496 H482 0.960 . S
C496 H483 0.961 . S
C496 H484 0.959 . S
C496 C494 1.561 . S
C497 C494 1.526 . S
C497 C498 1.396 . S
C497 C502 1.390 1_655 S
C498 C492 1.465 . S
C498 C497 1.396 . S
C498 C499 1.399 . S
C499 H485 0.929 . S
C499 C498 1.399 . S
C499 C500 1.385 . S
C500 H486 0.931 . S
C500 C499 1.385 . S
C500 C501 1.413 . S
C501 C500 1.413 . S
C501 C502 1.379 1_655 S
C502 H487 0.930 . S
C502 C497 1.390 1_455 S
C502 C501 1.379 1_455 S
H503 C515 0.930 . S
H504 C517 0.930 . S
H505 C518 0.930 1_554 S
H506 C522 0.959 . S
H507 C522 0.959 . S
H508 C522 0.961 . S
H509 C523 0.960 . S
H510 C523 0.961 . S
H511 C523 0.959 . S
H512 C526 0.929 . S
H513 C527 0.931 . S
H514 C529 0.930 . S
C515 H503 0.930 . S
C515 C516 1.389 1_565 S
C515 C520 1.399 . S
C516 C515 1.389 1_545 S
C516 C517 1.393 1_556 S
C517 H504 0.930 . S
C517 C516 1.393 1_554 S
C517 C518 1.388 1_554 S
C518 H505 0.930 1_556 S
C518 C517 1.388 1_556 S
C518 C519 1.390 . S
C519 C518 1.390 . S
C519 C520 1.394 1_545 S
C519 C525 1.465 . S
C520 C515 1.399 . S
C520 C519 1.394 1_565 S
C520 C521 1.516 . S
C521 C520 1.516 . S
C521 C522 1.502 . S
C521 C523 1.561 . S
C521 C524 1.526 . S
C522 H506 0.959 . S
C522 H507 0.959 . S
C522 H508 0.961 . S
C522 C521 1.502 . S
C523 H509 0.960 . S
C523 H510 0.961 . S
C523 H511 0.959 . S
C523 C521 1.561 . S
C524 C521 1.526 . S
C524 C525 1.396 1_565 S
C524 C529 1.390 . S
C525 C519 1.465 . S
C525 C524 1.396 1_545 S
C525 C526 1.399 . S
C526 H512 0.929 . S
C526 C525 1.399 . S
C526 C527 1.385 . S
C527 H513 0.931 . S
C527 C526 1.385 . S
C527 C528 1.389 . S
C528 C527 1.389 . S
C528 C529 1.387 1_545 S
C529 H514 0.930 . S
C529 C524 1.390 . S
C529 C528 1.387 1_565 S
H530 C542 0.930 1_554 S
H531 C544 0.930 . S
H532 C545 0.930 . S
H533 C549 0.959 . S
H534 C549 0.959 . S
H535 C549 0.961 1_554 S
H536 C550 0.960 1_554 S
H537 C550 0.960 1_554 S
H538 C550 0.959 . S
H539 C553 0.929 . S
H540 C554 0.931 . S
H541 C556 0.930 . S
C542 H530 0.930 1_556 S
C542 C543 1.399 . S
C542 C547 1.399 . S
C543 C542 1.399 . S
C543 C544 1.376 . S
C544 H531 0.930 . S
C544 C543 1.376 . S
C544 C545 1.388 . S
C545 H532 0.930 . S
C545 C544 1.388 . S
C545 C546 1.390 . S
C546 C545 1.390 . S
C546 C547 1.394 . S
C546 C552 1.465 . S
C547 C542 1.399 . S
C547 C546 1.394 . S
C547 C548 1.516 . S
C548 C547 1.516 . S
C548 C549 1.502 . S
C548 C550 1.561 . S
C548 C551 1.526 . S
C549 H533 0.959 . S
C549 H534 0.959 . S
C549 H535 0.961 1_556 S
C549 C548 1.502 . S
C550 H536 0.960 1_556 S
C550 H537 0.960 1_556 S
C550 H538 0.959 . S
C550 C548 1.561 . S
C551 C548 1.526 . S
C551 C552 1.396 . S
C551 C556 1.390 . S
C552 C546 1.465 . S
C552 C551 1.396 . S
C552 C553 1.399 . S
C553 H539 0.929 . S
C553 C552 1.399 . S
C553 C554 1.385 . S
C554 H540 0.931 . S
C554 C553 1.385 . S
C554 C555 1.389 . S
C555 C554 1.389 . S
C555 C556 1.387 . S
C556 H541 0.930 . S
C556 C551 1.390 . S
C556 C555 1.387 . S
H557 C569 0.930 . S
H558 C571 0.930 . S
H559 C572 0.930 . S
H560 C576 0.959 . S
H561 C576 0.959 . S
H562 C576 0.961 . S
H563 C577 0.960 . S
H564 C577 0.961 . S
H565 C577 0.959 . S
H566 C580 0.929 . S
H567 C581 0.931 . S
H568 C583 0.930 . S
C569 H557 0.930 . S
C569 C570 1.399 . S
C569 C574 1.399 . S
C570 C569 1.399 . S
C570 C571 1.376 . S
C571 H558 0.930 . S
C571 C570 1.376 . S
C571 C572 1.388 . S
C572 H559 0.930 . S
C572 C571 1.388 . S
C572 C573 1.390 . S
C573 C572 1.390 . S
C573 C574 1.394 . S
C573 C579 1.465 . S
C574 C569 1.399 . S
C574 C573 1.394 . S
C574 C575 1.516 . S
C575 C574 1.516 . S
C575 C576 1.502 . S
C575 C577 1.561 . S
C575 C578 1.526 . S
C576 H560 0.959 . S
C576 H561 0.959 . S
C576 H562 0.961 . S
C576 C575 1.502 . S
C577 H563 0.960 . S
C577 H564 0.961 . S
C577 H565 0.959 . S
C577 C575 1.561 . S
C578 C575 1.526 . S
C578 C579 1.396 . S
C578 C583 1.390 . S
C579 C573 1.465 . S
C579 C578 1.396 . S
C579 C580 1.399 . S
C580 H566 0.929 . S
C580 C579 1.399 . S
C580 C581 1.385 . S
C581 H567 0.931 . S
C581 C580 1.385 . S
C581 C582 1.389 . S
C582 C581 1.389 . S
C582 C583 1.387 . S
C583 H568 0.930 . S
C583 C578 1.390 . S
C583 C582 1.387 . S
H584 C596 0.930 . S
H585 C598 0.930 1_554 S
H586 C599 0.930 . S
H587 C603 0.959 . S
H588 C603 0.959 . S
H589 C603 0.961 . S
H590 C604 0.960 . S
H591 C604 0.961 . S
H592 C604 0.959 . S
H593 C607 0.929 . S
H594 C608 0.931 . S
H595 C610 0.930 . S
C596 H584 0.930 . S
C596 C597 1.399 . S
C596 C601 1.399 . S
C597 C596 1.399 . S
C597 C598 1.376 . S
C598 H585 0.930 1_556 S
C598 C597 1.376 . S
C598 C599 1.388 . S
C599 H586 0.930 . S
C599 C598 1.388 . S
C599 C600 1.390 . S
C600 C599 1.390 . S
C600 C601 1.394 . S
C600 C606 1.465 . S
C601 C596 1.399 . S
C601 C600 1.394 . S
C601 C602 1.516 . S
C602 C601 1.516 . S
C602 C603 1.502 . S
C602 C604 1.561 . S
C602 C605 1.526 . S
C603 H587 0.959 . S
C603 H588 0.959 . S
C603 H589 0.961 . S
C603 C602 1.502 . S
C604 H590 0.960 . S
C604 H591 0.961 . S
C604 H592 0.959 . S
C604 C602 1.561 . S
C605 C602 1.526 . S
C605 C606 1.396 . S
C605 C610 1.390 . S
C606 C600 1.465 . S
C606 C605 1.396 . S
C606 C607 1.399 . S
C607 H593 0.929 . S
C607 C606 1.399 . S
C607 C608 1.385 . S
C608 H594 0.931 . S
C608 C607 1.385 . S
C608 C609 1.389 . S
C609 C608 1.389 . S
C609 C610 1.387 . S
C610 H595 0.930 . S
C610 C605 1.390 . S
C610 C609 1.387 . S
H611 C623 0.930 . S
H612 C625 0.930 . S
H613 C626 0.930 . S
H614 C630 0.959 . S
H615 C630 0.959 . S
H616 C630 0.961 . S
H617 C631 0.960 . S
H618 C631 0.961 . S
H619 C631 0.959 . S
H620 C634 0.929 . S
H621 C635 0.931 . S
H622 C637 0.930 . S
C623 H611 0.930 . S
C623 C624 1.399 1_545 S
C623 C628 1.399 . S
C624 C623 1.399 1_565 S
C624 C625 1.376 . S
C625 H612 0.930 . S
C625 C624 1.376 . S
C625 C626 1.388 . S
C626 H613 0.930 . S
C626 C625 1.388 . S
C626 C627 1.390 . S
C627 C626 1.390 . S
C627 C628 1.394 1_565 S
C627 C633 1.465 . S
C628 C623 1.399 . S
C628 C627 1.394 1_545 S
C628 C629 1.516 . S
C629 C628 1.516 . S
C629 C630 1.502 . S
C629 C631 1.561 . S
C629 C632 1.526 . S
C630 H614 0.959 . S
C630 H615 0.959 . S
C630 H616 0.961 . S
C630 C629 1.502 . S
C631 H617 0.960 . S
C631 H618 0.961 . S
C631 H619 0.959 . S
C631 C629 1.561 . S
C632 C629 1.526 . S
C632 C633 1.396 1_545 S
C632 C637 1.390 . S
C633 C627 1.465 . S
C633 C632 1.396 1_565 S
C633 C634 1.399 . S
C634 H620 0.929 . S
C634 C633 1.399 . S
C634 C635 1.385 . S
C635 H621 0.931 . S
C635 C634 1.385 . S
C635 C636 1.389 1_565 S
C636 C635 1.389 1_545 S
C636 C637 1.387 . S
C637 H622 0.930 . S
C637 C632 1.390 . S
C637 C636 1.387 . S
H638 C650 0.930 . S
H639 C652 0.930 . S
H640 C653 0.930 . S
H641 C657 0.959 . S
H642 C657 0.959 . S
H643 C657 0.961 . S
H644 C658 0.960 . S
H645 C658 0.961 . S
H646 C658 0.959 . S
H647 C661 0.929 . S
H648 C662 0.931 . S
H649 C664 0.930 . S
C650 H638 0.930 . S
C650 C651 1.399 . S
C650 C655 1.399 . S
C651 C650 1.399 . S
C651 C652 1.376 . S
C652 H639 0.930 . S
C652 C651 1.376 . S
C652 C653 1.388 . S
C653 H640 0.930 . S
C653 C652 1.388 . S
C653 C654 1.390 . S
C654 C653 1.390 . S
C654 C655 1.394 . S
C654 C660 1.465 . S
C655 C650 1.399 . S
C655 C654 1.394 . S
C655 C656 1.516 . S
C656 C655 1.516 . S
C656 C657 1.502 . S
C656 C658 1.561 . S
C656 C659 1.526 . S
C657 H641 0.959 . S
C657 H642 0.959 . S
C657 H643 0.961 . S
C657 C656 1.502 . S
C658 H644 0.960 . S
C658 H645 0.961 . S
C658 H646 0.959 . S
C658 C656 1.561 . S
C659 C656 1.526 . S
C659 C660 1.396 . S
C659 C664 1.390 . S
C660 C654 1.465 . S
C660 C659 1.396 . S
C660 C661 1.399 . S
C661 H647 0.929 . S
C661 C660 1.399 . S
C661 C662 1.385 . S
C662 H648 0.931 . S
C662 C661 1.385 . S
C662 C663 1.389 . S
C663 C662 1.389 . S
C663 C664 1.387 . S
C664 H649 0.930 . S
C664 C659 1.390 . S
C664 C663 1.387 . S
H665 C677 0.930 . S
H666 C679 0.930 . S
H667 C680 0.930 . S
H668 C684 0.959 . S
H669 C684 0.959 . S
H670 C684 0.961 . S
H671 C685 0.960 . S
H672 C685 0.961 . S
H673 C685 0.959 . S
H674 C688 0.929 . S
H675 C689 0.931 . S
H676 C691 0.930 . S
C677 H665 0.930 . S
C677 C678 1.399 . S
C677 C682 1.399 . S
C678 C677 1.399 . S
C678 C679 1.376 . S
C679 H666 0.930 . S
C679 C678 1.376 . S
C679 C680 1.388 . S
C680 H667 0.930 . S
C680 C679 1.388 . S
C680 C681 1.390 . S
C681 C680 1.390 . S
C681 C682 1.394 . S
C681 C687 1.465 . S
C682 C677 1.399 . S
C682 C681 1.394 . S
C682 C683 1.516 . S
C683 C682 1.516 . S
C683 C684 1.502 . S
C683 C685 1.561 . S
C683 C686 1.526 . S
C684 H668 0.959 . S
C684 H669 0.959 . S
C684 H670 0.961 . S
C684 C683 1.502 . S
C685 H671 0.960 . S
C685 H672 0.961 . S
C685 H673 0.959 . S
C685 C683 1.561 . S
C686 C683 1.526 . S
C686 C687 1.396 . S
C686 C691 1.390 . S
C687 C681 1.465 . S
C687 C686 1.396 . S
C687 C688 1.399 . S
C688 H674 0.929 . S
C688 C687 1.399 . S
C688 C689 1.385 . S
C689 H675 0.931 . S
C689 C688 1.385 . S
C689 C690 1.389 . S
C690 C689 1.389 . S
C690 C691 1.387 . S
C691 H676 0.930 . S
C691 C686 1.390 . S
C691 C690 1.387 . S
H692 C704 0.930 . S
H693 C706 0.930 . S
H694 C707 0.930 . S
H695 C711 0.959 1_455 S
H696 C711 0.959 . S
H697 C711 0.961 . S
H698 C712 0.960 . S
H699 C712 0.961 . S
H700 C712 0.959 . S
H701 C715 0.929 . S
H702 C716 0.931 . S
H703 C718 0.930 . S
C704 H692 0.930 . S
C704 C705 1.399 . S
C704 C709 1.399 . S
C705 C704 1.399 . S
C705 C706 1.376 . S
C706 H693 0.930 . S
C706 C705 1.376 . S
C706 C707 1.388 . S
C707 H694 0.930 . S
C707 C706 1.388 . S
C707 C708 1.390 . S
C708 C707 1.390 . S
C708 C709 1.394 . S
C708 C714 1.465 . S
C709 C704 1.399 . S
C709 C708 1.394 . S
C709 C710 1.516 . S
C710 C709 1.516 . S
C710 C711 1.502 . S
C710 C712 1.561 . S
C710 C713 1.526 . S
C711 H695 0.959 1_655 S
C711 H696 0.959 . S
C711 H697 0.961 . S
C711 C710 1.502 . S
C712 H698 0.960 . S
C712 H699 0.961 . S
C712 H700 0.959 . S
C712 C710 1.561 . S
C713 C710 1.526 . S
C713 C714 1.396 . S
C713 C718 1.390 . S
C714 C708 1.465 . S
C714 C713 1.396 . S
C714 C715 1.399 . S
C715 H701 0.929 . S
C715 C714 1.399 . S
C715 C716 1.385 . S
C716 H702 0.931 . S
C716 C715 1.385 . S
C716 C717 1.389 . S
C717 C716 1.389 . S
C717 C718 1.387 . S
C718 H703 0.930 . S
C718 C713 1.390 . S
C718 C717 1.387 . S
H719 C731 0.930 . S
H720 C733 0.930 . S
H721 C734 0.930 . S
H722 C738 0.959 . S
H723 C738 0.959 . S
H724 C738 0.961 . S
H725 C739 0.960 . S
H726 C739 0.961 . S
H727 C739 0.959 . S
H728 C742 0.929 . S
H729 C743 0.931 . S
H730 C745 0.930 . S
C731 H719 0.930 . S
C731 C732 1.399 1_545 S
C731 C736 1.399 . S
C732 C731 1.399 1_565 S
C732 C733 1.376 . S
C733 H720 0.930 . S
C733 C732 1.376 . S
C733 C734 1.388 . S
C734 H721 0.930 . S
C734 C733 1.388 . S
C734 C735 1.390 . S
C735 C734 1.390 . S
C735 C736 1.394 1_565 S
C735 C741 1.465 . S
C736 C731 1.399 . S
C736 C735 1.394 1_545 S
C736 C737 1.516 . S
C737 C736 1.516 . S
C737 C738 1.502 . S
C737 C739 1.561 . S
C737 C740 1.526 . S
C738 H722 0.959 . S
C738 H723 0.959 . S
C738 H724 0.961 . S
C738 C737 1.502 . S
C739 H725 0.960 . S
C739 H726 0.961 . S
C739 H727 0.959 . S
C739 C737 1.561 . S
C740 C737 1.526 . S
C740 C741 1.396 1_545 S
C740 C745 1.390 . S
C741 C735 1.465 . S
C741 C740 1.396 1_565 S
C741 C742 1.399 . S
C742 H728 0.929 . S
C742 C741 1.399 . S
C742 C743 1.385 . S
C743 H729 0.931 . S
C743 C742 1.385 . S
C743 C744 1.389 . S
C744 C743 1.389 . S
C744 C745 1.387 1_565 S
C745 H730 0.930 . S
C745 C740 1.390 . S
C745 C744 1.387 1_545 S
H746 C758 0.930 . S
H747 C760 0.930 . S
H748 C761 0.930 . S
H749 C765 0.959 . S
H750 C765 0.959 . S
H751 C765 0.961 . S
H752 C766 0.960 . S
H753 C766 0.961 . S
H754 C766 0.959 . S
H755 C769 0.929 . S
H756 C770 0.931 . S
H757 C772 0.930 . S
C758 H746 0.930 . S
C758 C759 1.399 . S
C758 C763 1.399 . S
C759 C758 1.399 . S
C759 C760 1.376 . S
C760 H747 0.930 . S
C760 C759 1.376 . S
C760 C761 1.388 . S
C761 H748 0.930 . S
C761 C760 1.388 . S
C761 C762 1.390 . S
C762 C761 1.390 . S
C762 C763 1.394 . S
C762 C768 1.465 . S
C763 C758 1.399 . S
C763 C762 1.394 . S
C763 C764 1.516 . S
C764 C763 1.516 . S
C764 C765 1.502 . S
C764 C766 1.561 . S
C764 C767 1.526 . S
C765 H749 0.959 . S
C765 H750 0.959 . S
C765 H751 0.961 . S
C765 C764 1.502 . S
C766 H752 0.960 . S
C766 H753 0.961 . S
C766 H754 0.959 . S
C766 C764 1.561 . S
C767 C764 1.526 . S
C767 C768 1.396 . S
C767 C772 1.390 . S
C768 C762 1.465 . S
C768 C767 1.396 . S
C768 C769 1.399 . S
C769 H755 0.929 . S
C769 C768 1.399 . S
C769 C770 1.385 . S
C770 H756 0.931 . S
C770 C769 1.385 . S
C770 C771 1.389 . S
C771 C770 1.389 . S
C771 C772 1.387 . S
C772 H757 0.930 . S
C772 C767 1.390 . S
C772 C771 1.387 . S
H773 C785 0.930 . S
H774 C787 0.930 . S
H775 C788 0.930 . S
H776 C792 0.959 . S
H777 C792 0.959 . S
H778 C792 0.961 . S
H779 C793 0.960 . S
H780 C793 0.961 . S
H781 C793 0.959 . S
H782 C796 0.929 . S
H783 C797 0.931 . S
H784 C799 0.930 . S
C785 H773 0.930 . S
C785 C786 1.399 . S
C785 C790 1.399 . S
C786 C785 1.399 . S
C786 C787 1.376 . S
C787 H774 0.930 . S
C787 C786 1.376 . S
C787 C788 1.388 . S
C788 H775 0.930 . S
C788 C787 1.388 . S
C788 C789 1.390 . S
C789 C788 1.390 . S
C789 C790 1.394 . S
C789 C795 1.465 . S
C790 C785 1.399 . S
C790 C789 1.394 . S
C790 C791 1.516 . S
C791 C790 1.516 . S
C791 C792 1.502 . S
C791 C793 1.561 . S
C791 C794 1.526 . S
C792 H776 0.959 . S
C792 H777 0.959 . S
C792 H778 0.961 . S
C792 C791 1.502 . S
C793 H779 0.960 . S
C793 H780 0.961 . S
C793 H781 0.959 . S
C793 C791 1.561 . S
C794 C791 1.526 . S
C794 C795 1.396 . S
C794 C799 1.390 . S
C795 C789 1.465 . S
C795 C794 1.396 . S
C795 C796 1.399 . S
C796 H782 0.929 . S
C796 C795 1.399 . S
C796 C797 1.385 . S
C797 H783 0.931 . S
C797 C796 1.385 . S
C797 C798 1.389 . S
C798 C797 1.389 . S
C798 C799 1.387 . S
C799 H784 0.930 . S
C799 C794 1.390 . S
C799 C798 1.387 . S
C165 C61 1.497 1_545 S
C177 C80 1.586 . S
C204 C110 1.887 . S
C192 C70 1.782 . S
C231 C120 1.538 . S
C219 C43 1.527 . S
C258 C140 1.436 . S
C246 C52 1.328 . S
C285 C81 1.590 . S
C273 C25 1.549 1_556 S
C300 C34 1.838 . S
C312 C111 1.862 . S
C327 C7 1.471 1_556 S
C339 C121 1.576 . S
C354 C16 1.399 1_556 S
C366 C141 1.446 . S
C393 C73 0.749 . S
C381 C50 0.809 . S
C420 C94 0.396 . S
C408 C59 0.426 1_545 S
C447 C113 0.932 . S
C435 C67 0.965 . S
C462 C41 0.630 . S
C474 C133 0.643 . S
C489 C14 0.783 . S
C501 C74 0.681 1_655 S
C528 C93 0.417 . S
C516 C23 0.296 1_545 S
C555 C114 0.956 . S
C543 C31 0.902 1_556 S
C570 C5 0.632 . S
C582 C134 0.645 . S
C597 C49 1.624 . S
C609 C91 1.752 . S
C624 C58 1.266 . S
C636 C101 1.428 . S
C663 C131 1.866 . S
C651 C68 1.728 . S
C690 C151 1.812 . S
C678 C40 1.701 . S
C705 C13 1.705 . S
C717 C90 1.776 . S
C744 C100 1.405 . S
C732 C22 1.266 . S
C771 C130 1.867 . S
C759 C32 1.772 . S
C786 C4 1.777 . S
C798 C150 1.827 . S
