# Generated by pormake.
# Topology rtl, (3,6)-cn, num edge types: 1
# Building blocks:
#     Node 0, Type 0, BuildingBlock: BELTOD_clean_linker_0, # of connection points: 3
#     Node 1, Type 0, BuildingBlock: BELTOD_clean_linker_0, # of connection points: 3
#     Node 2, Type 0, BuildingBlock: BELTOD_clean_linker_0, # of connection points: 3
#     Node 3, Type 0, BuildingBlock: BELTOD_clean_linker_0, # of connection points: 3
#     Node 4, Type 1, BuildingBlock: VOLQOD_clean_sbu_1, # of connection points: 6
#     Node 5, Type 1, BuildingBlock: VOLQOD_clean_sbu_1, # of connection points: 6
#     Edge 6, Type (0, 1), BuildingBlock: FUNLAD_clean_linker_0, # of connection points: 2
#     Edge 7, Type (0, 1), BuildingBlock: FUNLAD_clean_linker_0, # of connection points: 2
#     Edge 8, Type (0, 1), BuildingBlock: FUNLAD_clean_linker_0, # of connection points: 2
#     Edge 9, Type (0, 1), BuildingBlock: FUNLAD_clean_linker_0, # of connection points: 2
#     Edge 10, Type (0, 1), BuildingBlock: FUNLAD_clean_linker_0, # of connection points: 2
#     Edge 11, Type (0, 1), BuildingBlock: FUNLAD_clean_linker_0, # of connection points: 2
#     Edge 12, Type (0, 1), BuildingBlock: FUNLAD_clean_linker_0, # of connection points: 2
#     Edge 13, Type (0, 1), BuildingBlock: FUNLAD_clean_linker_0, # of connection points: 2
#     Edge 14, Type (0, 1), BuildingBlock: FUNLAD_clean_linker_0, # of connection points: 2
#     Edge 15, Type (0, 1), BuildingBlock: FUNLAD_clean_linker_0, # of connection points: 2
#     Edge 16, Type (0, 1), BuildingBlock: FUNLAD_clean_linker_0, # of connection points: 2
#     Edge 17, Type (0, 1), BuildingBlock: FUNLAD_clean_linker_0, # of connection points: 2
# Relax obj value: 0.074
# Max RMSD: 0.154
# Mean RMSD: 0.083
data_MOF--net-rtl--node1-VOLQOD_clean_sbu_1--node2-BELTOD_clean_linker_0--edge1-FUNLAD_clean_linker_0
_symmetry_space_group_name_H-M    P1
_symmetry_Int_Tables_number       1
_symmetry_cell_setting            triclinic
loop_
_symmetry_equiv_pos_as_xyz
'x, y, z'
_cell_length_a     47.605474
_cell_length_b     41.499921
_cell_length_c     30.515897
_cell_angle_alpha  89.196585
_cell_angle_beta   90.457967
_cell_angle_gamma 89.850917
loop_
_atom_site_label
_atom_site_type_symbol
_atom_site_fract_x
_atom_site_fract_y
_atom_site_fract_z
_atom_type_partial_charge
P0 P 0.16681 0.77377 0.01902 0.0
H1 H 0.18087 0.79368 0.10764 0.0
H2 H 0.15232 0.8039 0.17205 0.0
H3 H 0.07884 0.76974 0.10293 0.0
H4 H 0.10768 0.75981 0.0383 0.0
H5 H 0.21312 0.75101 0.9667 0.0
H6 H 0.23865 0.69995 0.96465 0.0
H7 H 0.18322 0.6601 0.06268 0.0
H8 H 0.1574 0.71126 0.06415 0.0
H9 H 0.12618 0.82479 0.00211 0.0
H10 H 0.16218 0.74613 0.93031 0.0
O11 O 0.19225 0.80128 0.02159 0.0
H12 H 0.10174 0.8435 0.93582 0.0
H13 H 0.13815 0.76514 0.86375 0.0
C14 C 0.14619 0.77694 0.06792 0.0
C15 C 0.15867 0.78814 0.10648 0.0
C16 C 0.14234 0.79368 0.14343 0.0
C17 C 0.11324 0.78794 0.14244 0.0
C18 C 0.10112 0.77491 0.10443 0.0
C19 C 0.11754 0.76923 0.06752 0.0
C20 C 0.18349 0.73496 0.01564 0.0
C21 C 0.20623 0.73116 0.98735 0.0
C22 C 0.2207 0.70194 0.98605 0.0
C23 C 0.21288 0.67607 0.0135 0.0
C24 C 0.18974 0.67973 0.04136 0.0
C25 C 0.17498 0.70894 0.04216 0.0
C26 C 0.14578 0.78387 0.97142 0.0
C27 C 0.12838 0.81114 0.97233 0.0
C28 C 0.11439 0.82181 0.93444 0.0
C29 C 0.11802 0.80572 0.89467 0.0
C30 C 0.13508 0.77804 0.89397 0.0
C31 C 0.14879 0.76714 0.9321 0.0
P32 P 0.65831 0.74188 0.48941 0.0
H33 H 0.68107 0.73412 0.40201 0.0
H34 H 0.66065 0.71541 0.33342 0.0
H35 H 0.57937 0.70891 0.39521 0.0
H36 H 0.59969 0.72936 0.46282 0.0
H37 H 0.66535 0.78284 0.56588 0.0
H38 H 0.6875 0.8351 0.57484 0.0
H39 H 0.69661 0.84362 0.43427 0.0
H40 H 0.67272 0.79247 0.42556 0.0
H41 H 0.65646 0.67942 0.53308 0.0
H42 H 0.61216 0.76991 0.54043 0.0
O43 O 0.68885 0.72207 0.49168 0.0
H44 H 0.62776 0.65731 0.59195 0.0
H45 H 0.58306 0.7478 0.59971 0.0
C46 C 0.64202 0.73272 0.43766 0.0
C47 C 0.65875 0.72923 0.4005 0.0
C48 C 0.64706 0.71821 0.3614 0.0
C49 C 0.61843 0.70999 0.35892 0.0
C50 C 0.60144 0.71512 0.39574 0.0
C51 C 0.61312 0.72659 0.43469 0.0
C52 C 0.66685 0.78386 0.49499 0.0
C53 C 0.67091 0.7966 0.53685 0.0
C54 C 0.68405 0.82637 0.54197 0.0
C55 C 0.69435 0.84348 0.50535 0.0
C56 C 0.68873 0.83147 0.46327 0.0
C57 C 0.67512 0.80195 0.4582 0.0
C58 C 0.63698 0.72656 0.53337 0.0
C59 C 0.64063 0.69461 0.54761 0.0
C60 C 0.62399 0.68189 0.58096 0.0
C61 C 0.60317 0.70085 0.6005 0.0
C62 C 0.59919 0.73279 0.58562 0.0
C63 C 0.61581 0.74544 0.55191 0.0
P64 P 0.91295 0.34276 -0.00172 0.0
H65 H 0.93779 0.35515 0.91252 0.0
H66 H 0.94769 0.32041 0.85024 0.0
H67 H 0.91576 0.23853 0.92316 0.0
H68 H 0.90559 0.27331 0.98467 0.0
H69 H 0.88539 0.39784 0.03737 0.0
H70 H 0.83744 0.41906 0.03224 0.0
H71 H 0.81646 0.34537 0.93885 0.0
H72 H 0.86408 0.32397 0.94491 0.0
H73 H 0.95762 0.33279 0.06344 0.0
H74 H 0.87174 0.30287 0.04443 0.0
O75 O 0.93618 0.37278 -8e-05 0.0
H76 H 0.96058 0.29979 0.13052 0.0
H77 H 0.87462 0.26974 0.11125 0.0
C78 C 0.92152 0.31674 0.95357 0.0
C79 C 0.93318 0.32966 0.91517 0.0
C80 C 0.93883 0.30979 0.87964 0.0
C81 C 0.93257 0.27669 0.8818 0.0
C82 C 0.9206 0.26396 0.92027 0.0
C83 C 0.91504 0.28382 0.95574 0.0
C84 C 0.8784 0.3597 0.99105 0.0
C85 C 0.8705 0.38654 0.01543 0.0
C86 C 0.84313 0.39867 0.01236 0.0
C87 C 0.82313 0.38393 0.98507 0.0
C88 C 0.83126 0.35709 0.9605 0.0
C89 C 0.85862 0.34499 0.96363 0.0
C90 C 0.91436 0.32061 0.04936 0.0
C91 C 0.93929 0.31948 0.07403 0.0
C92 C 0.94094 0.30069 0.11235 0.0
C93 C 0.9178 0.28228 0.12611 0.0
C94 C 0.8928 0.28358 0.10132 0.0
C95 C 0.89109 0.30266 0.06331 0.0
P96 P 0.40664 0.15826 0.50055 0.0
H97 H 0.4236 0.14321 0.59098 0.0
H98 H 0.42905 0.17666 0.65609 0.0
H99 H 0.40619 0.26094 0.57879 0.0
H100 H 0.40017 0.22748 0.51468 0.0
H101 H 0.38047 0.10545 0.45346 0.0
H102 H 0.33185 0.08647 0.44838 0.0
H103 H 0.30634 0.16055 0.53804 0.0
H104 H 0.35471 0.17898 0.54335 0.0
H105 H 0.45829 0.17816 0.45768 0.0
H106 H 0.36928 0.19339 0.4395 0.0
O107 O 0.4291 0.12733 0.50219 0.0
H108 H 0.4678 0.21703 0.39863 0.0
H109 H 0.37856 0.23173 0.38012 0.0
C110 C 0.4121 0.18294 0.54784 0.0
C111 C 0.41999 0.16893 0.58813 0.0
C112 C 0.42312 0.18807 0.62523 0.0
C113 C 0.41808 0.22147 0.62259 0.0
C114 C 0.40993 0.23526 0.5821 0.0
C115 C 0.40682 0.21615 0.54519 0.0
C116 C 0.3713 0.14312 0.49948 0.0
C117 C 0.36441 0.11728 0.47241 0.0
C118 C 0.33661 0.10667 0.46924 0.0
C119 C 0.31528 0.1219 0.49302 0.0
C120 C 0.32235 0.14791 0.51997 0.0
C121 C 0.35008 0.15851 0.523 0.0
C122 C 0.41313 0.18242 0.45236 0.0
C123 C 0.44081 0.18927 0.44023 0.0
C124 C 0.44619 0.21149 0.40652 0.0
C125 C 0.42391 0.22748 0.38476 0.0
C126 C 0.39616 0.22004 0.39654 0.0
C127 C 0.39083 0.1978 0.43017 0.0
O128 O 0.92068 0.01635 0.50269 0.0
Zn129 Zn 0.95473 0.04567 0.50054 0.0
O130 O 0.98979 0.02034 0.50133 0.0
Zn131 Zn 0.01208 0.03126 0.55293 0.0
Zn132 Zn 0.98146 0.97415 0.50318 0.0
Zn133 Zn 0.0115 0.03011 0.44877 0.0
O134 O 0.04991 0.04833 0.53615 0.0
O135 O 0.05023 0.04676 0.46354 0.0
O136 O 0.95297 0.07509 0.5528 0.0
O137 O 0.99287 0.065 0.5886 0.0
O138 O 0.01902 0.99241 0.59165 0.0
O139 O 0.99779 0.9524 0.55721 0.0
O140 O 0.99635 0.95122 0.45006 0.0
O141 O 0.95203 0.07384 0.44583 0.0
O142 O 0.01636 0.99082 0.41211 0.0
O143 O 0.99167 0.06301 0.41093 0.0
C144 C 0.91833 0.98576 0.50446 0.0
C145 C 0.06235 0.05286 0.49984 0.0
C146 C 0.01222 0.96284 0.5893 0.0
C147 C 0.96967 0.08016 0.58481 0.0
C148 C 0.00956 0.96131 0.41645 0.0
C149 C 0.96841 0.07807 0.41342 0.0
O150 O 0.93987 0.96749 0.50478 0.0
O151 O 0.56332 0.48483 0.99028 0.0
Zn152 Zn 0.52614 0.50846 0.98914 0.0
O153 O 0.4944 0.47877 0.99347 0.0
Zn154 Zn 0.47049 0.48349 0.94132 0.0
Zn155 Zn 0.50876 0.43475 0.99683 0.0
Zn156 Zn 0.47251 0.48798 0.04619 0.0
O157 O 0.43176 0.49823 0.95751 0.0
O158 O 0.43308 0.50217 0.02998 0.0
O159 O 0.5242 0.5348 0.93336 0.0
O160 O 0.48608 0.51675 0.89944 0.0
O161 O 0.46715 0.44173 0.90868 0.0
O162 O 0.49541 0.40857 0.94597 0.0
O163 O 0.49566 0.4123 0.05139 0.0
O164 O 0.52643 0.5389 0.03963 0.0
O165 O 0.46982 0.44854 0.08573 0.0
O166 O 0.49035 0.52394 0.08079 0.0
C167 C 0.56977 0.4551 0.99392 0.0
C168 C 0.41993 0.50488 0.99356 0.0
C169 C 0.47869 0.41421 0.91403 0.0
C170 C 0.5073 0.53535 0.9008 0.0
C171 C 0.48032 0.42032 0.08343 0.0
C172 C 0.5114 0.54214 0.07362 0.0
O173 O 0.55089 0.43356 0.99705 0.0
C174 C 0.26876 0.10922 0.5269 0.0
C175 C 0.28564 0.11119 0.48941 0.0
C176 C 0.24056 0.1004 0.52353 0.0
C177 C 0.2285 0.0936 0.48242 0.0
C178 C 0.24558 0.09466 0.44514 0.0
C179 C 0.27383 0.10348 0.44852 0.0
C180 C 0.19847 0.08455 0.47745 0.0
C181 C 0.17848 0.0938 0.50571 0.0
C182 C 0.14858 0.0839 0.50248 0.0
C183 C 0.13244 0.08376 0.54073 0.0
C184 C 0.10442 0.074 0.53974 0.0
C185 C 0.09174 0.06449 0.50024 0.0
H186 H 0.14722 0.07588 0.43219 0.0
C187 C 0.10764 0.06549 0.46161 0.0
C188 C 0.13578 0.0751 0.46267 0.0
H189 H 0.09845 0.05855 0.43057 0.0
H190 H 0.27743 0.11424 0.559 0.0
H191 H 0.22852 0.0985 0.55335 0.0
H192 H 0.23692 0.08918 0.41316 0.0
H193 H 0.28626 0.10494 0.41899 0.0
H194 H 0.19286 0.07004 0.44941 0.0
H195 H 0.1842 0.10855 0.53346 0.0
H196 H 0.14167 0.09073 0.57176 0.0
H197 H 0.09278 0.07376 0.57009 0.0
C198 C 0.23906 0.63234 0.97545 0.0
C199 C 0.23008 0.64626 0.01461 0.0
C200 C 0.25839 0.60697 0.97627 0.0
C201 C 0.26955 0.59535 0.01639 0.0
C202 C 0.25912 0.60792 0.05557 0.0
C203 C 0.2396 0.63315 0.05474 0.0
C204 C 0.29304 0.57161 0.01882 0.0
C205 C 0.31134 0.56739 0.98588 0.0
C206 C 0.33751 0.5479 0.98971 0.0
C207 C 0.35049 0.53788 0.95108 0.0
C208 C 0.37676 0.52287 0.95249 0.0
C209 C 0.39086 0.51779 0.99267 0.0
H210 H 0.34229 0.54993 0.06062 0.0
C211 C 0.37752 0.52692 0.03155 0.0
C212 C 0.35115 0.54189 0.03013 0.0
H213 H 0.3878 0.52345 0.06306 0.0
H214 H 0.23153 0.64154 0.94409 0.0
H215 H 0.26473 0.59701 0.94532 0.0
H216 H 0.26705 0.5992 0.08696 0.0
H217 H 0.23304 0.64345 0.08545 0.0
H218 H 0.29646 0.55913 0.0499 0.0
H219 H 0.30799 0.57984 0.95479 0.0
H220 H 0.34056 0.54234 0.91949 0.0
H221 H 0.38633 0.5161 0.92187 0.0
C222 C 0.73444 0.86946 0.54503 0.0
C223 C 0.71429 0.87076 0.51107 0.0
C224 C 0.75631 0.89169 0.54648 0.0
C225 C 0.75892 0.91548 0.51353 0.0
C226 C 0.73767 0.9185 0.4816 0.0
C227 C 0.71557 0.8963 0.48028 0.0
C228 C 0.78453 0.93576 0.51026 0.0
C229 C 0.81 0.92386 0.52153 0.0
C230 C 0.83706 0.94102 0.51556 0.0
C231 C 0.86174 0.92249 0.51568 0.0
C232 C 0.88791 0.93706 0.51145 0.0
C233 C 0.89018 0.97072 0.50735 0.0
H234 H 0.82063 0.98993 0.51186 0.0
C235 C 0.86548 0.98945 0.50712 0.0
C236 C 0.83913 0.97475 0.51121 0.0
H237 H 0.8665 0.01546 0.50424 0.0
H238 H 0.73439 0.85018 0.5693 0.0
H239 H 0.77171 0.88945 0.57265 0.0
H240 H 0.73891 0.93703 0.45632 0.0
H241 H 0.70007 0.8985 0.45424 0.0
H242 H 0.78269 0.95928 0.49447 0.0
H243 H 0.81148 0.89907 0.5333 0.0
H244 H 0.86083 0.89648 0.5191 0.0
H245 H 0.9064 0.92179 0.51185 0.0
C246 C 0.77121 0.37399 0.9829 0.0
C247 C 0.79369 0.39586 0.98327 0.0
C248 C 0.74348 0.38501 0.98198 0.0
C249 C 0.73755 0.41827 0.98181 0.0
C250 C 0.76001 0.44012 0.98132 0.0
C251 C 0.78779 0.42907 0.98229 0.0
C252 C 0.70829 0.43094 0.98097 0.0
C253 C 0.68632 0.41425 0.99708 0.0
C254 C 0.65674 0.42586 0.99577 0.0
C255 C 0.63522 0.40307 0.00054 0.0
C256 C 0.60707 0.41256 -0.0002 0.0
C257 C 0.59971 0.44523 0.9946 0.0
H258 H 0.66531 0.47717 0.98848 0.0
C259 C 0.62123 0.46818 0.99031 0.0
C260 C 0.64945 0.45865 0.99097 0.0
H261 H 0.61632 0.49358 0.98661 0.0
H262 H 0.77501 0.34824 0.98385 0.0
H263 H 0.72687 0.36731 0.98079 0.0
H264 H 0.75607 0.46585 0.98059 0.0
H265 H 0.80465 0.44655 0.98187 0.0
H266 H 0.70511 0.45488 0.96704 0.0
H267 H 0.68988 0.39052 0.01149 0.0
H268 H 0.64017 0.3777 0.0046 0.0
H269 H 0.5911 0.3942 0.00338 0.0
C270 C 0.07045 0.81551 0.17115 0.0
C271 C 0.09547 0.79835 0.17945 0.0
C272 C 0.05577 0.82956 0.20543 0.0
C273 C 0.06588 0.82685 0.24877 0.0
C274 C 0.08975 0.80783 0.25744 0.0
C275 C 0.10453 0.79388 0.22309 0.0
C276 C 0.05299 0.84507 0.28505 0.0
C277 C 0.04187 0.87466 0.27855 0.0
C278 C 0.03285 0.89591 0.31455 0.0
C279 C 0.03396 0.92936 0.30762 0.0
C280 C 0.02644 0.95046 0.34072 0.0
C281 C 0.01715 0.93859 0.38144 0.0
H282 H 0.02139 0.85821 0.36114 0.0
C283 C 0.01533 0.90506 0.38814 0.0
C284 C 0.02319 0.88387 0.35504 0.0
H285 H 0.00809 0.89515 0.41905 0.0
H286 H 0.0629 0.81944 0.13792 0.0
H287 H 0.03689 0.84318 0.19775 0.0
H288 H 0.09774 0.80498 0.29062 0.0
H289 H 0.12348 0.78031 0.23058 0.0
H290 H 0.05571 0.83562 0.31818 0.0
H291 H 0.04189 0.8852 0.24575 0.0
H292 H 0.04114 0.93927 0.27664 0.0
H293 H 0.02786 0.97613 0.33425 0.0
C294 C 0.57605 0.65557 0.6347 0.0
C295 C 0.58627 0.68723 0.63689 0.0
C296 C 0.56275 0.64134 0.67064 0.0
C297 C 0.55918 0.65858 0.70962 0.0
C298 C 0.56865 0.69057 0.7113 0.0
C299 C 0.58192 0.70485 0.67523 0.0
C300 C 0.54826 0.643 0.75018 0.0
C301 C 0.53229 0.61624 0.75014 0.0
C302 C 0.52496 0.59781 0.79053 0.0
C303 C 0.50191 0.57681 0.78948 0.0
C304 C 0.49579 0.55701 0.82556 0.0
C305 C 0.51282 0.55753 0.86341 0.0
H306 H 0.56026 0.61374 0.83041 0.0
C307 C 0.53571 0.57884 0.86466 0.0
C308 C 0.54178 0.59868 0.82865 0.0
H309 H 0.54935 0.5798 0.8932 0.0
H310 H 0.57892 0.64148 0.60544 0.0
H311 H 0.55648 0.6164 0.66814 0.0
H312 H 0.56641 0.70432 0.741 0.0
H313 H 0.58981 0.7292 0.67802 0.0
H314 H 0.55396 0.65392 0.78112 0.0
H315 H 0.52424 0.60713 0.71933 0.0
H316 H 0.48878 0.5754 0.7604 0.0
H317 H 0.478 0.54087 0.82341 0.0
C318 C 0.91086 0.22869 0.16307 0.0
C319 C 0.92012 0.26075 0.16515 0.0
C320 C 0.91426 0.20782 0.19904 0.0
C321 C 0.9269 0.21867 0.23794 0.0
C322 C 0.93526 0.25099 0.24054 0.0
C323 C 0.93219 0.27178 0.20433 0.0
C324 C 0.93178 0.19669 0.27603 0.0
C325 C 0.93864 0.16548 0.27109 0.0
C326 C 0.94581 0.14362 0.30838 0.0
C327 C 0.96558 0.11907 0.30194 0.0
C328 C 0.97301 0.09802 0.33617 0.0
C329 C 0.96033 0.10058 0.37742 0.0
H330 H 0.91715 0.16444 0.35524 0.0
C331 C 0.94005 0.12473 0.38369 0.0
C332 C 0.93296 0.14621 0.34955 0.0
H333 H 0.92985 0.12724 0.41507 0.0
H334 H 0.90154 0.21952 0.13325 0.0
H335 H 0.90693 0.18325 0.19633 0.0
H336 H 0.9448 0.25998 0.2703 0.0
H337 H 0.93921 0.29649 0.20696 0.0
H338 H 0.93202 0.20706 0.30853 0.0
H339 H 0.94129 0.15611 0.23829 0.0
H340 H 0.97559 0.11642 0.27042 0.0
H341 H 0.98853 0.0795 0.33013 0.0
C342 C 0.44435 0.2378 0.69042 0.0
C343 C 0.42145 0.24213 0.66161 0.0
C344 C 0.44843 0.25862 0.72554 0.0
C345 C 0.4297 0.28439 0.7324 0.0
C346 C 0.40626 0.28786 0.70451 0.0
C347 C 0.4022 0.26707 0.6695 0.0
C348 C 0.43375 0.30842 0.76761 0.0
C349 C 0.45836 0.31344 0.7885 0.0
C350 C 0.46239 0.33921 0.82118 0.0
C351 C 0.48301 0.33508 0.85387 0.0
C352 C 0.48807 0.35925 0.88432 0.0
C353 C 0.47286 0.38834 0.88231 0.0
H354 H 0.43176 0.37287 0.79344 0.0
C355 C 0.45236 0.3926 0.84932 0.0
C356 C 0.44717 0.36833 0.81905 0.0
H357 H 0.44039 0.41479 0.84664 0.0
H358 H 0.45956 0.2188 0.68524 0.0
H359 H 0.46627 0.25425 0.74692 0.0
H360 H 0.39127 0.30717 0.70927 0.0
H361 H 0.38399 0.27063 0.64845 0.0
H362 H 0.41578 0.3234 0.77544 0.0
H363 H 0.47646 0.29844 0.78176 0.0
H364 H 0.49523 0.31304 0.85593 0.0
H365 H 0.50413 0.35521 0.90914 0.0
C366 C 0.57924 0.70006 0.30459 0.0
C367 C 0.60688 0.69402 0.3193 0.0
C368 C 0.56811 0.68341 0.26888 0.0
C369 C 0.58445 0.6604 0.24713 0.0
C370 C 0.61223 0.65506 0.26104 0.0
C371 C 0.62325 0.67141 0.29687 0.0
C372 C 0.57355 0.64157 0.20971 0.0
C373 C 0.54627 0.63386 0.20437 0.0
C374 C 0.53651 0.61202 0.16924 0.0
C375 C 0.51292 0.5925 0.17656 0.0
C376 C 0.50439 0.57012 0.1453 0.0
C377 C 0.51919 0.56703 0.10586 0.0
H378 H 0.56819 0.62538 0.12146 0.0
C379 C 0.54208 0.58759 0.09782 0.0
C380 C 0.55057 0.60989 0.12902 0.0
H381 H 0.55371 0.58628 0.06753 0.0
H382 H 0.56622 0.71774 0.32055 0.0
H383 H 0.54687 0.68885 0.2582 0.0
H384 H 0.62531 0.63755 0.24477 0.0
H385 H 0.64442 0.66561 0.30762 0.0
H386 H 0.58906 0.63135 0.18795 0.0
H387 H 0.53104 0.6413 0.22856 0.0
H388 H 0.50151 0.59393 0.20706 0.0
H389 H 0.48652 0.55487 0.15242 0.0
C390 C 0.91922 0.23165 0.83172 0.0
C391 C 0.93855 0.25542 0.84423 0.0
C392 C 0.92524 0.21085 0.79739 0.0
C393 C 0.95074 0.21349 0.77461 0.0
C394 C 0.97 0.23731 0.78707 0.0
C395 C 0.96394 0.25817 0.82132 0.0
C396 C 0.95869 0.19077 0.73952 0.0
C397 C 0.93993 0.17389 0.71583 0.0
C398 C 0.94824 0.15024 0.68212 0.0
C399 C 0.92931 0.14311 0.64812 0.0
C400 C 0.93623 0.1205 0.61637 0.0
C401 C 0.96217 0.10422 0.61825 0.0
H402 H 0.98887 0.13767 0.71075 0.0
C403 C 0.98097 0.11108 0.65265 0.0
C404 C 0.97408 0.13373 0.68426 0.0
H405 H 0.00104 0.09884 0.65538 0.0
H406 H 0.89939 0.22904 0.84856 0.0
H407 H 0.91013 0.1923 0.78972 0.0
H408 H 0.98993 0.23968 0.77043 0.0
H409 H 0.97944 0.27594 0.83054 0.0
H410 H 0.98091 0.18869 0.73223 0.0
H411 H 0.91762 0.17822 0.71997 0.0
H412 H 0.90913 0.15519 0.64596 0.0
H413 H 0.92118 0.11571 0.59047 0.0
C414 C 0.45068 0.24846 0.31984 0.0
C415 C 0.4296 0.25278 0.35118 0.0
C416 C 0.45628 0.27258 0.28875 0.0
C417 C 0.44079 0.30155 0.28825 0.0
C418 C 0.42002 0.306 0.31997 0.0
C419 C 0.41436 0.28185 0.35095 0.0
C420 C 0.44623 0.328 0.25614 0.0
C421 C 0.45701 0.32294 0.21613 0.0
C422 C 0.46277 0.34893 0.18337 0.0
C423 C 0.48076 0.34196 0.14854 0.0
C424 C 0.48658 0.36519 0.11643 0.0
C425 C 0.47442 0.39605 0.11819 0.0
H426 H 0.43584 0.38607 0.21057 0.0
C427 C 0.45631 0.40311 0.15294 0.0
C428 C 0.45045 0.37981 0.18512 0.0
H429 H 0.4464 0.42655 0.15508 0.0
H430 H 0.46279 0.22634 0.31924 0.0
H431 H 0.4731 0.26858 0.26582 0.0
H432 H 0.40802 0.32821 0.32069 0.0
H433 H 0.39835 0.28617 0.37522 0.0
H434 H 0.44062 0.35217 0.26595 0.0
H435 H 0.46217 0.29854 0.2066 0.0
H436 H 0.49044 0.31839 0.14614 0.0
H437 H 0.50059 0.35882 0.09011 0.0
C438 C 0.07791 0.83053 0.85223 0.0
C439 C 0.10581 0.81941 0.85362 0.0
C440 C 0.06738 0.84646 0.81489 0.0
C441 C 0.08467 0.85177 0.77832 0.0
C442 C 0.11235 0.84006 0.77946 0.0
C443 C 0.12276 0.82379 0.81656 0.0
C444 C 0.07541 0.87193 0.74035 0.0
C445 C 0.04843 0.87482 0.72733 0.0
C446 C 0.03969 0.89725 0.69147 0.0
C447 C 0.01722 0.88903 0.6638 0.0
C448 C 0.00844 0.91013 0.6302 0.0
C449 C 0.02155 0.94021 0.62441 0.0
H450 H 0.06965 0.93478 0.70729 0.0
C451 C 0.04372 0.94862 0.65268 0.0
C452 C 0.05277 0.92734 0.68573 0.0
H453 H 0.05421 0.97163 0.64918 0.0
H454 H 0.06441 0.82746 0.88039 0.0
H455 H 0.04613 0.85578 0.81556 0.0
H456 H 0.12617 0.84408 0.75188 0.0
H457 H 0.14446 0.81586 0.81693 0.0
H458 H 0.0916 0.88462 0.72209 0.0
H459 H 0.03241 0.85981 0.74237 0.0
H460 H 0.00663 0.86613 0.66793 0.0
H461 H 0.99117 0.90305 0.60915 0.0
loop_
_geom_bond_atom_site_label_1
_geom_bond_atom_site_label_2
_geom_bond_distance
_geom_bond_site_symmetry_2
_ccdc_geom_bond_type
P0 O11 1.490 . S
P0 C14 1.812 . S
P0 C20 1.803 . S
P0 C26 1.819 1_554 S
H1 C15 0.941 . S
H2 C16 0.939 . S
H3 C18 0.940 . S
H4 C19 0.940 . S
H5 C21 0.939 . S
H6 C22 0.942 . S
H7 C24 0.940 . S
H8 C25 0.939 . S
H9 C27 0.941 . S
H10 C31 0.939 . S
O11 P0 1.490 . S
H12 C28 0.939 . S
H13 C30 0.940 . S
C14 P0 1.812 . S
C14 C15 1.389 . S
C14 C19 1.391 . S
C15 H1 0.941 . S
C15 C14 1.389 . S
C15 C16 1.397 . S
C16 H2 0.939 . S
C16 C15 1.397 . S
C16 C17 1.378 . S
C17 C16 1.378 . S
C17 C18 1.378 . S
C18 H3 0.940 . S
C18 C17 1.378 . S
C18 C19 1.396 . S
C19 H4 0.940 . S
C19 C14 1.391 . S
C19 C18 1.396 . S
C20 P0 1.803 . S
C20 C21 1.378 1_554 S
C20 C25 1.400 . S
C21 H5 0.939 . S
C21 C20 1.378 1_556 S
C21 C22 1.361 . S
C22 H6 0.942 . S
C22 C21 1.361 . S
C22 C23 1.369 1_556 S
C23 C22 1.369 1_554 S
C23 C24 1.404 . S
C24 H7 0.940 . S
C24 C23 1.404 . S
C24 C25 1.389 . S
C25 H8 0.939 . S
C25 C20 1.400 . S
C25 C24 1.389 . S
C26 P0 1.819 1_556 S
C26 C27 1.391 . S
C26 C31 1.391 . S
C27 H9 0.941 . S
C27 C26 1.391 . S
C27 C28 1.396 . S
C28 H12 0.939 . S
C28 C27 1.396 . S
C28 C29 1.397 . S
C29 C28 1.397 . S
C29 C30 1.385 . S
C30 H13 0.940 . S
C30 C29 1.385 . S
C30 C31 1.388 . S
C31 H10 0.939 . S
C31 C26 1.391 . S
C31 C30 1.388 . S
P32 O43 1.490 . S
P32 C46 1.812 . S
P32 C52 1.803 . S
P32 C58 1.819 . S
H33 C47 0.941 . S
H34 C48 0.939 . S
H35 C50 0.940 . S
H36 C51 0.940 . S
H37 C53 0.939 . S
H38 C54 0.942 . S
H39 C56 0.940 . S
H40 C57 0.939 . S
H41 C59 0.941 . S
H42 C63 0.939 . S
O43 P32 1.490 . S
H44 C60 0.939 . S
H45 C62 0.940 . S
C46 P32 1.812 . S
C46 C47 1.389 . S
C46 C51 1.391 . S
C47 H33 0.941 . S
C47 C46 1.389 . S
C47 C48 1.397 . S
C48 H34 0.939 . S
C48 C47 1.397 . S
C48 C49 1.378 . S
C49 C48 1.378 . S
C49 C50 1.378 . S
C50 H35 0.940 . S
C50 C49 1.378 . S
C50 C51 1.396 . S
C51 H36 0.940 . S
C51 C46 1.391 . S
C51 C50 1.396 . S
C52 P32 1.803 . S
C52 C53 1.378 . S
C52 C57 1.400 . S
C53 H37 0.939 . S
C53 C52 1.378 . S
C53 C54 1.361 . S
C54 H38 0.942 . S
C54 C53 1.361 . S
C54 C55 1.369 . S
C55 C54 1.369 . S
C55 C56 1.404 . S
C56 H39 0.940 . S
C56 C55 1.404 . S
C56 C57 1.389 . S
C57 H40 0.939 . S
C57 C52 1.400 . S
C57 C56 1.389 . S
C58 P32 1.819 . S
C58 C59 1.391 . S
C58 C63 1.391 . S
C59 H41 0.941 . S
C59 C58 1.391 . S
C59 C60 1.396 . S
C60 H44 0.939 . S
C60 C59 1.396 . S
C60 C61 1.397 . S
C61 C60 1.397 . S
C61 C62 1.385 . S
C62 H45 0.940 . S
C62 C61 1.385 . S
C62 C63 1.388 . S
C63 H42 0.939 . S
C63 C58 1.391 . S
C63 C62 1.388 . S
P64 O75 1.490 . S
P64 C78 1.812 . S
P64 C84 1.803 . S
P64 C90 1.819 1_556 S
H65 C79 0.941 . S
H66 C80 0.939 . S
H67 C82 0.940 . S
H68 C83 0.940 . S
H69 C85 0.939 . S
H70 C86 0.942 . S
H71 C88 0.940 . S
H72 C89 0.939 . S
H73 C91 0.941 . S
H74 C95 0.939 . S
O75 P64 1.490 . S
H76 C92 0.939 . S
H77 C94 0.940 . S
C78 P64 1.812 . S
C78 C79 1.389 . S
C78 C83 1.391 . S
C79 H65 0.941 . S
C79 C78 1.389 . S
C79 C80 1.397 . S
C80 H66 0.939 . S
C80 C79 1.397 . S
C80 C81 1.378 . S
C81 C80 1.378 . S
C81 C82 1.378 . S
C82 H67 0.940 . S
C82 C81 1.378 . S
C82 C83 1.396 . S
C83 H68 0.940 . S
C83 C78 1.391 . S
C83 C82 1.396 . S
C84 P64 1.803 . S
C84 C85 1.378 1_556 S
C84 C89 1.400 . S
C85 H69 0.939 . S
C85 C84 1.378 1_554 S
C85 C86 1.361 . S
C86 H70 0.942 . S
C86 C85 1.361 . S
C86 C87 1.374 . S
C87 C86 1.374 . S
C87 C88 1.399 1_554 S
C88 H71 0.940 . S
C88 C87 1.399 1_556 S
C88 C89 1.389 . S
C89 H72 0.939 . S
C89 C84 1.400 . S
C89 C88 1.389 . S
C90 P64 1.819 1_554 S
C90 C91 1.391 . S
C90 C95 1.391 . S
C91 H73 0.941 . S
C91 C90 1.391 . S
C91 C92 1.396 . S
C92 H76 0.939 . S
C92 C91 1.396 . S
C92 C93 1.397 . S
C93 C92 1.397 . S
C93 C94 1.385 . S
C94 H77 0.940 . S
C94 C93 1.385 . S
C94 C95 1.388 . S
C95 H74 0.939 . S
C95 C90 1.391 . S
C95 C94 1.388 . S
P96 O107 1.490 . S
P96 C110 1.812 . S
P96 C116 1.803 . S
P96 C122 1.819 . S
H97 C111 0.941 . S
H98 C112 0.939 . S
H99 C114 0.940 . S
H100 C115 0.940 . S
H101 C117 0.939 . S
H102 C118 0.942 . S
H103 C120 0.940 . S
H104 C121 0.939 . S
H105 C123 0.941 . S
H106 C127 0.939 . S
O107 P96 1.490 . S
H108 C124 0.939 . S
H109 C126 0.940 . S
C110 P96 1.812 . S
C110 C111 1.389 . S
C110 C115 1.391 . S
C111 H97 0.941 . S
C111 C110 1.389 . S
C111 C112 1.397 . S
C112 H98 0.939 . S
C112 C111 1.397 . S
C112 C113 1.378 . S
C113 C112 1.378 . S
C113 C114 1.378 . S
C114 H99 0.940 . S
C114 C113 1.378 . S
C114 C115 1.396 . S
C115 H100 0.940 . S
C115 C110 1.391 . S
C115 C114 1.396 . S
C116 P96 1.803 . S
C116 C117 1.378 . S
C116 C121 1.400 . S
C117 H101 0.939 . S
C117 C116 1.378 . S
C117 C118 1.361 . S
C118 H102 0.942 . S
C118 C117 1.361 . S
C118 C119 1.369 . S
C119 C118 1.369 . S
C119 C120 1.404 . S
C120 H103 0.940 . S
C120 C119 1.404 . S
C120 C121 1.389 . S
C121 H104 0.939 . S
C121 C116 1.400 . S
C121 C120 1.389 . S
C122 P96 1.819 . S
C122 C123 1.391 . S
C122 C127 1.391 . S
C123 H105 0.941 . S
C123 C122 1.391 . S
C123 C124 1.396 . S
C124 H108 0.939 . S
C124 C123 1.396 . S
C124 C125 1.397 . S
C125 C124 1.397 . S
C125 C126 1.385 . S
C126 H109 0.940 . S
C126 C125 1.385 . S
C126 C127 1.388 . S
C127 H106 0.939 . S
C127 C122 1.391 . S
C127 C126 1.388 . S
O128 Zn129 1.953 1_565 S
O128 C144 1.225 . S
Zn129 O128 1.953 1_545 S
Zn129 O130 1.953 1_655 S
Zn129 O136 1.919 . S
Zn129 O141 1.924 . S
O130 Zn129 1.953 1_455 S
O130 Zn131 1.924 . S
O130 Zn132 1.940 1_445 S
O130 Zn133 1.949 . S
Zn131 O130 1.924 . S
Zn131 O134 1.933 . S
Zn131 O137 1.941 . S
Zn131 O138 1.965 1_545 S
Zn132 O130 1.940 1_665 S
Zn132 O139 1.938 1_655 S
Zn132 O140 1.906 1_655 S
Zn132 O150 1.953 . S
Zn133 O130 1.949 . S
Zn133 O135 1.932 . S
Zn133 O142 1.977 1_545 S
Zn133 O143 1.910 1_455 S
O134 Zn131 1.933 . S
O134 C145 1.226 . S
O135 Zn133 1.932 . S
O135 C145 1.307 . S
O136 Zn129 1.919 . S
O136 C147 1.253 . S
O137 Zn131 1.941 . S
O137 C147 1.283 1_455 S
O138 Zn131 1.965 1_565 S
O138 C146 1.303 . S
O139 Zn132 1.938 1_455 S
O139 C146 1.247 . S
O140 Zn132 1.906 1_455 S
O140 C148 1.304 . S
O141 Zn129 1.924 . S
O141 C149 1.311 . S
O142 Zn133 1.977 1_565 S
O142 C148 1.272 . S
O143 Zn133 1.910 1_655 S
O143 C149 1.231 . S
C144 O128 1.225 . S
C144 O150 1.298 . S
C145 O134 1.226 . S
C145 O135 1.307 . S
C146 O138 1.303 . S
C146 O139 1.247 . S
C147 O136 1.253 . S
C147 O137 1.283 1_655 S
C148 O140 1.304 . S
C148 O142 1.272 . S
C149 O141 1.311 . S
C149 O143 1.231 . S
O150 Zn132 1.953 . S
O150 C144 1.298 . S
O151 Zn152 1.953 . S
O151 C167 1.225 1_556 S
Zn152 O151 1.953 . S
Zn152 O153 1.949 1_556 S
Zn152 O159 1.919 . S
Zn152 O164 1.924 1_556 S
O153 Zn152 1.949 1_554 S
O153 Zn154 1.923 1_554 S
O153 Zn155 1.950 . S
O153 Zn156 1.945 . S
Zn154 O153 1.923 1_556 S
Zn154 O157 1.933 . S
Zn154 O160 1.941 . S
Zn154 O161 1.965 . S
Zn155 O153 1.950 . S
Zn155 O162 1.938 1_554 S
Zn155 O163 1.906 . S
Zn155 O173 1.953 . S
Zn156 O153 1.945 . S
Zn156 O158 1.932 . S
Zn156 O165 1.977 . S
Zn156 O166 1.910 . S
O157 Zn154 1.933 . S
O157 C168 1.226 1_556 S
O158 Zn156 1.932 . S
O158 C168 1.307 . S
O159 Zn152 1.919 . S
O159 C170 1.253 . S
O160 Zn154 1.941 . S
O160 C170 1.283 . S
O161 Zn154 1.965 . S
O161 C169 1.303 . S
O162 Zn155 1.938 1_556 S
O162 C169 1.247 . S
O163 Zn155 1.906 . S
O163 C171 1.304 . S
O164 Zn152 1.924 1_554 S
O164 C172 1.311 . S
O165 Zn156 1.977 . S
O165 C171 1.272 . S
O166 Zn156 1.910 . S
O166 C172 1.231 . S
C167 O151 1.225 1_554 S
C167 O173 1.298 . S
C168 O157 1.226 1_554 S
C168 O158 1.307 . S
C169 O161 1.303 . S
C169 O162 1.247 . S
C170 O159 1.253 . S
C170 O160 1.283 . S
C171 O163 1.304 . S
C171 O165 1.272 . S
C172 O164 1.311 . S
C172 O166 1.231 . S
O173 Zn155 1.953 . S
O173 C167 1.298 . S
C174 C175 1.386 . S
C174 C176 1.383 . S
C174 H190 0.951 . S
C175 C174 1.386 . S
C175 C179 1.383 . S
C176 C174 1.383 . S
C176 C177 1.402 . S
C176 H191 0.951 . S
C177 C176 1.402 . S
C177 C178 1.375 . S
C177 C180 1.481 . S
C178 C177 1.375 . S
C178 C179 1.367 . S
C178 H192 0.951 . S
C179 C175 1.383 . S
C179 C178 1.367 . S
C179 H193 0.950 . S
C180 C177 1.481 . S
C180 C181 1.297 . S
C180 H194 0.950 . S
C181 C180 1.297 . S
C181 C182 1.479 . S
C181 H195 0.950 . S
C182 C181 1.479 . S
C182 C183 1.375 . S
C182 C188 1.404 . S
C183 C182 1.375 . S
C183 C184 1.369 . S
C183 H196 0.950 . S
C184 C183 1.369 . S
C184 C185 1.392 . S
C184 H197 0.951 . S
C185 C184 1.392 . S
C185 C187 1.384 . S
H186 C188 0.949 . S
C187 C185 1.384 . S
C187 C188 1.385 . S
C187 H189 0.950 . S
C188 C182 1.404 . S
C188 H186 0.949 . S
C188 C187 1.385 . S
H189 C187 0.950 . S
H190 C174 0.951 . S
H191 C176 0.951 . S
H192 C178 0.951 . S
H193 C179 0.950 . S
H194 C180 0.950 . S
H195 C181 0.950 . S
H196 C183 0.950 . S
H197 C184 0.951 . S
C198 C199 1.386 1_556 S
C198 C200 1.383 . S
C198 H214 0.951 . S
C199 C198 1.386 1_554 S
C199 C203 1.383 . S
C200 C198 1.383 . S
C200 C201 1.402 1_556 S
C200 H215 0.951 . S
C201 C200 1.402 1_554 S
C201 C202 1.375 . S
C201 C204 1.481 . S
C202 C201 1.375 . S
C202 C203 1.367 . S
C202 H216 0.951 . S
C203 C199 1.383 . S
C203 C202 1.367 . S
C203 H217 0.950 . S
C204 C201 1.481 . S
C204 C205 1.297 1_554 S
C204 H218 0.950 . S
C205 C204 1.297 1_556 S
C205 C206 1.479 . S
C205 H219 0.950 . S
C206 C205 1.479 . S
C206 C207 1.375 . S
C206 C212 1.404 1_556 S
C207 C206 1.375 . S
C207 C208 1.369 . S
C207 H220 0.950 . S
C208 C207 1.369 . S
C208 C209 1.373 1_556 S
C208 H221 0.951 . S
C209 C208 1.373 1_554 S
C209 C211 1.402 . S
H210 C212 0.949 . S
C211 C209 1.402 . S
C211 C212 1.385 . S
C211 H213 0.950 . S
C212 C206 1.404 1_554 S
C212 H210 0.949 . S
C212 C211 1.385 . S
H213 C211 0.950 . S
H214 C198 0.951 . S
H215 C200 0.951 . S
H216 C202 0.951 . S
H217 C203 0.950 . S
H218 C204 0.950 . S
H219 C205 0.950 . S
H220 C207 0.950 . S
H221 C208 0.951 . S
C222 C223 1.386 . S
C222 C224 1.383 . S
C222 H238 0.951 . S
C223 C222 1.386 . S
C223 C227 1.383 . S
C224 C222 1.383 . S
C224 C225 1.402 . S
C224 H239 0.951 . S
C225 C224 1.402 . S
C225 C226 1.375 . S
C225 C228 1.481 . S
C226 C225 1.375 . S
C226 C227 1.367 . S
C226 H240 0.951 . S
C227 C223 1.383 . S
C227 C226 1.367 . S
C227 H241 0.950 . S
C228 C225 1.481 . S
C228 C229 1.297 . S
C228 H242 0.950 . S
C229 C228 1.297 . S
C229 C230 1.479 . S
C229 H243 0.950 . S
C230 C229 1.479 . S
C230 C231 1.375 . S
C230 C236 1.404 . S
C231 C230 1.375 . S
C231 C232 1.369 . S
C231 H244 0.950 . S
C232 C231 1.369 . S
C232 C233 1.392 . S
C232 H245 0.951 . S
C233 C232 1.392 . S
C233 C235 1.384 . S
H234 C236 0.949 . S
C235 C233 1.384 . S
C235 C236 1.385 . S
C235 H237 0.950 . S
C236 C230 1.404 . S
C236 H234 0.949 . S
C236 C235 1.385 . S
H237 C235 0.950 . S
H238 C222 0.951 . S
H239 C224 0.951 . S
H240 C226 0.951 . S
H241 C227 0.950 . S
H242 C228 0.950 . S
H243 C229 0.950 . S
H244 C231 0.950 . S
H245 C232 0.951 . S
C246 C247 1.386 . S
C246 C248 1.383 . S
C246 H262 0.951 1_554 S
C247 C246 1.386 . S
C247 C251 1.383 . S
C248 C246 1.383 . S
C248 C249 1.402 . S
C248 H263 0.951 . S
C249 C248 1.402 . S
C249 C250 1.375 . S
C249 C252 1.481 . S
C250 C249 1.375 . S
C250 C251 1.367 . S
C250 H264 0.951 . S
C251 C247 1.383 . S
C251 C250 1.367 . S
C251 H265 0.950 . S
C252 C249 1.481 . S
C252 C253 1.297 . S
C252 H266 0.950 . S
C253 C252 1.297 . S
C253 C254 1.479 . S
C253 H267 0.950 . S
C254 C253 1.479 . S
C254 C255 1.375 . S
C254 C260 1.404 . S
C255 C254 1.375 . S
C255 C256 1.369 . S
C255 H268 0.950 . S
C256 C255 1.369 . S
C256 C257 1.392 . S
C256 H269 0.951 1_554 S
C257 C256 1.392 . S
C257 C259 1.384 . S
H258 C260 0.949 . S
C259 C257 1.384 . S
C259 C260 1.385 . S
C259 H261 0.950 . S
C260 C254 1.404 . S
C260 H258 0.949 . S
C260 C259 1.385 . S
H261 C259 0.950 . S
H262 C246 0.951 1_556 S
H263 C248 0.951 . S
H264 C250 0.951 . S
H265 C251 0.950 . S
H266 C252 0.950 . S
H267 C253 0.950 . S
H268 C255 0.950 . S
H269 C256 0.951 1_556 S
C270 C271 1.386 . S
C270 C272 1.383 . S
C270 H286 0.951 . S
C271 C270 1.386 . S
C271 C275 1.383 . S
C272 C270 1.383 . S
C272 C273 1.402 . S
C272 H287 0.951 . S
C273 C272 1.402 . S
C273 C274 1.375 . S
C273 C276 1.481 . S
C274 C273 1.375 . S
C274 C275 1.367 . S
C274 H288 0.951 . S
C275 C271 1.383 . S
C275 C274 1.367 . S
C275 H289 0.950 . S
C276 C273 1.481 . S
C276 C277 1.297 . S
C276 H290 0.950 . S
C277 C276 1.297 . S
C277 C278 1.479 . S
C277 H291 0.950 . S
C278 C277 1.479 . S
C278 C279 1.375 . S
C278 C284 1.404 . S
C279 C278 1.375 . S
C279 C280 1.369 . S
C279 H292 0.950 . S
C280 C279 1.369 . S
C280 C281 1.392 . S
C280 H293 0.951 . S
C281 C280 1.392 . S
C281 C283 1.384 . S
H282 C284 0.949 . S
C283 C281 1.384 . S
C283 C284 1.385 . S
C283 H285 0.950 . S
C284 C278 1.404 . S
C284 H282 0.949 . S
C284 C283 1.385 . S
H285 C283 0.950 . S
H286 C270 0.951 . S
H287 C272 0.951 . S
H288 C274 0.951 . S
H289 C275 0.950 . S
H290 C276 0.950 . S
H291 C277 0.950 . S
H292 C279 0.950 . S
H293 C280 0.951 . S
C294 C295 1.386 . S
C294 C296 1.383 . S
C294 H310 0.951 . S
C295 C294 1.386 . S
C295 C299 1.383 . S
C296 C294 1.383 . S
C296 C297 1.402 . S
C296 H311 0.951 . S
C297 C296 1.402 . S
C297 C298 1.375 . S
C297 C300 1.481 . S
C298 C297 1.375 . S
C298 C299 1.367 . S
C298 H312 0.951 . S
C299 C295 1.383 . S
C299 C298 1.367 . S
C299 H313 0.950 . S
C300 C297 1.481 . S
C300 C301 1.297 . S
C300 H314 0.950 . S
C301 C300 1.297 . S
C301 C302 1.479 . S
C301 H315 0.950 . S
C302 C301 1.479 . S
C302 C303 1.375 . S
C302 C308 1.404 . S
C303 C302 1.375 . S
C303 C304 1.369 . S
C303 H316 0.950 . S
C304 C303 1.369 . S
C304 C305 1.392 . S
C304 H317 0.951 . S
C305 C304 1.392 . S
C305 C307 1.384 . S
H306 C308 0.949 . S
C307 C305 1.384 . S
C307 C308 1.385 . S
C307 H309 0.950 . S
C308 C302 1.404 . S
C308 H306 0.949 . S
C308 C307 1.385 . S
H309 C307 0.950 . S
H310 C294 0.951 . S
H311 C296 0.951 . S
H312 C298 0.951 . S
H313 C299 0.950 . S
H314 C300 0.950 . S
H315 C301 0.950 . S
H316 C303 0.950 . S
H317 C304 0.951 . S
C318 C319 1.386 . S
C318 C320 1.383 . S
C318 H334 0.951 . S
C319 C318 1.386 . S
C319 C323 1.383 . S
C320 C318 1.383 . S
C320 C321 1.402 . S
C320 H335 0.951 . S
C321 C320 1.402 . S
C321 C322 1.375 . S
C321 C324 1.481 . S
C322 C321 1.375 . S
C322 C323 1.367 . S
C322 H336 0.951 . S
C323 C319 1.383 . S
C323 C322 1.367 . S
C323 H337 0.950 . S
C324 C321 1.481 . S
C324 C325 1.297 . S
C324 H338 0.950 . S
C325 C324 1.297 . S
C325 C326 1.479 . S
C325 H339 0.950 . S
C326 C325 1.479 . S
C326 C327 1.375 . S
C326 C332 1.404 . S
C327 C326 1.375 . S
C327 C328 1.369 . S
C327 H340 0.950 . S
C328 C327 1.369 . S
C328 C329 1.392 . S
C328 H341 0.951 . S
C329 C328 1.392 . S
C329 C331 1.384 . S
H330 C332 0.949 . S
C331 C329 1.384 . S
C331 C332 1.385 . S
C331 H333 0.950 . S
C332 C326 1.404 . S
C332 H330 0.949 . S
C332 C331 1.385 . S
H333 C331 0.950 . S
H334 C318 0.951 . S
H335 C320 0.951 . S
H336 C322 0.951 . S
H337 C323 0.950 . S
H338 C324 0.950 . S
H339 C325 0.950 . S
H340 C327 0.950 . S
H341 C328 0.951 . S
C342 C343 1.386 . S
C342 C344 1.383 . S
C342 H358 0.951 . S
C343 C342 1.386 . S
C343 C347 1.383 . S
C344 C342 1.383 . S
C344 C345 1.402 . S
C344 H359 0.951 . S
C345 C344 1.402 . S
C345 C346 1.375 . S
C345 C348 1.481 . S
C346 C345 1.375 . S
C346 C347 1.367 . S
C346 H360 0.951 . S
C347 C343 1.383 . S
C347 C346 1.367 . S
C347 H361 0.950 . S
C348 C345 1.481 . S
C348 C349 1.297 . S
C348 H362 0.950 . S
C349 C348 1.297 . S
C349 C350 1.479 . S
C349 H363 0.950 . S
C350 C349 1.479 . S
C350 C351 1.375 . S
C350 C356 1.404 . S
C351 C350 1.375 . S
C351 C352 1.369 . S
C351 H364 0.950 . S
C352 C351 1.369 . S
C352 C353 1.392 . S
C352 H365 0.951 . S
C353 C352 1.392 . S
C353 C355 1.384 . S
H354 C356 0.949 . S
C355 C353 1.384 . S
C355 C356 1.385 . S
C355 H357 0.950 . S
C356 C350 1.404 . S
C356 H354 0.949 . S
C356 C355 1.385 . S
H357 C355 0.950 . S
H358 C342 0.951 . S
H359 C344 0.951 . S
H360 C346 0.951 . S
H361 C347 0.950 . S
H362 C348 0.950 . S
H363 C349 0.950 . S
H364 C351 0.950 . S
H365 C352 0.951 . S
C366 C367 1.386 . S
C366 C368 1.383 . S
C366 H382 0.951 . S
C367 C366 1.386 . S
C367 C371 1.383 . S
C368 C366 1.383 . S
C368 C369 1.402 . S
C368 H383 0.951 . S
C369 C368 1.402 . S
C369 C370 1.375 . S
C369 C372 1.481 . S
C370 C369 1.375 . S
C370 C371 1.367 . S
C370 H384 0.951 . S
C371 C367 1.383 . S
C371 C370 1.367 . S
C371 H385 0.950 . S
C372 C369 1.481 . S
C372 C373 1.297 . S
C372 H386 0.950 . S
C373 C372 1.297 . S
C373 C374 1.479 . S
C373 H387 0.950 . S
C374 C373 1.479 . S
C374 C375 1.375 . S
C374 C380 1.404 . S
C375 C374 1.375 . S
C375 C376 1.369 . S
C375 H388 0.950 . S
C376 C375 1.369 . S
C376 C377 1.392 . S
C376 H389 0.951 . S
C377 C376 1.392 . S
C377 C379 1.384 . S
H378 C380 0.949 . S
C379 C377 1.384 . S
C379 C380 1.385 . S
C379 H381 0.950 . S
C380 C374 1.404 . S
C380 H378 0.949 . S
C380 C379 1.385 . S
H381 C379 0.950 . S
H382 C366 0.951 . S
H383 C368 0.951 . S
H384 C370 0.951 . S
H385 C371 0.950 . S
H386 C372 0.950 . S
H387 C373 0.950 . S
H388 C375 0.950 . S
H389 C376 0.951 . S
C390 C391 1.386 . S
C390 C392 1.383 . S
C390 H406 0.951 . S
C391 C390 1.386 . S
C391 C395 1.383 . S
C392 C390 1.383 . S
C392 C393 1.402 . S
C392 H407 0.951 . S
C393 C392 1.402 . S
C393 C394 1.375 . S
C393 C396 1.481 . S
C394 C393 1.375 . S
C394 C395 1.367 . S
C394 H408 0.951 . S
C395 C391 1.383 . S
C395 C394 1.367 . S
C395 H409 0.950 . S
C396 C393 1.481 . S
C396 C397 1.297 . S
C396 H410 0.950 . S
C397 C396 1.297 . S
C397 C398 1.479 . S
C397 H411 0.950 . S
C398 C397 1.479 . S
C398 C399 1.375 . S
C398 C404 1.404 . S
C399 C398 1.375 . S
C399 C400 1.369 . S
C399 H412 0.950 . S
C400 C399 1.369 . S
C400 C401 1.392 . S
C400 H413 0.951 . S
C401 C400 1.392 . S
C401 C403 1.384 1_655 S
H402 C404 0.949 1_455 S
C403 C401 1.384 1_455 S
C403 C404 1.385 1_455 S
C403 H405 0.950 . S
C404 C398 1.404 . S
C404 H402 0.949 1_655 S
C404 C403 1.385 1_655 S
H405 C403 0.950 . S
H406 C390 0.951 . S
H407 C392 0.951 . S
H408 C394 0.951 . S
H409 C395 0.950 . S
H410 C396 0.950 . S
H411 C397 0.950 . S
H412 C399 0.950 . S
H413 C400 0.951 . S
C414 C415 1.386 . S
C414 C416 1.383 . S
C414 H430 0.951 . S
C415 C414 1.386 . S
C415 C419 1.383 . S
C416 C414 1.383 . S
C416 C417 1.402 . S
C416 H431 0.951 . S
C417 C416 1.402 . S
C417 C418 1.375 . S
C417 C420 1.481 . S
C418 C417 1.375 . S
C418 C419 1.367 . S
C418 H432 0.951 . S
C419 C415 1.383 . S
C419 C418 1.367 . S
C419 H433 0.950 . S
C420 C417 1.481 . S
C420 C421 1.297 . S
C420 H434 0.950 . S
C421 C420 1.297 . S
C421 C422 1.479 . S
C421 H435 0.950 . S
C422 C421 1.479 . S
C422 C423 1.375 . S
C422 C428 1.404 . S
C423 C422 1.375 . S
C423 C424 1.369 . S
C423 H436 0.950 . S
C424 C423 1.369 . S
C424 C425 1.392 . S
C424 H437 0.951 . S
C425 C424 1.392 . S
C425 C427 1.384 . S
H426 C428 0.949 . S
C427 C425 1.384 . S
C427 C428 1.385 . S
C427 H429 0.950 . S
C428 C422 1.404 . S
C428 H426 0.949 . S
C428 C427 1.385 . S
H429 C427 0.950 . S
H430 C414 0.951 . S
H431 C416 0.951 . S
H432 C418 0.951 . S
H433 C419 0.950 . S
H434 C420 0.950 . S
H435 C421 0.950 . S
H436 C423 0.950 . S
H437 C424 0.951 . S
C438 C439 1.386 . S
C438 C440 1.383 . S
C438 H454 0.951 . S
C439 C438 1.386 . S
C439 C443 1.383 . S
C440 C438 1.383 . S
C440 C441 1.402 . S
C440 H455 0.951 . S
C441 C440 1.402 . S
C441 C442 1.375 . S
C441 C444 1.481 . S
C442 C441 1.375 . S
C442 C443 1.367 . S
C442 H456 0.951 . S
C443 C439 1.383 . S
C443 C442 1.367 . S
C443 H457 0.950 . S
C444 C441 1.481 . S
C444 C445 1.297 . S
C444 H458 0.950 . S
C445 C444 1.297 . S
C445 C446 1.479 . S
C445 H459 0.950 . S
C446 C445 1.479 . S
C446 C447 1.375 . S
C446 C452 1.404 . S
C447 C446 1.375 . S
C447 C448 1.369 . S
C447 H460 0.950 1_455 S
C448 C447 1.369 . S
C448 C449 1.392 . S
C448 H461 0.951 1_455 S
C449 C448 1.392 . S
C449 C451 1.384 . S
H450 C452 0.949 . S
C451 C449 1.384 . S
C451 C452 1.385 . S
C451 H453 0.950 . S
C452 C446 1.404 . S
C452 H450 0.949 . S
C452 C451 1.385 . S
H453 C451 0.950 . S
H454 C438 0.951 . S
H455 C440 0.951 . S
H456 C442 0.951 . S
H457 C443 0.950 . S
H458 C444 0.950 . S
H459 C445 0.950 . S
H460 C447 0.950 1_655 S
H461 C448 0.951 1_655 S
C185 C145 1.593 . S
C175 C119 1.595 . S
C199 C23 1.454 . S
C209 C168 1.589 . S
C223 C55 1.533 . S
C233 C144 1.597 . S
C247 C87 1.612 . S
C257 C167 1.602 . S
C281 C148 1.481 . S
C271 C17 1.529 . S
C305 C170 1.520 . S
C295 C61 1.479 . S
C319 C93 1.612 . S
C329 C149 1.501 . S
C343 C113 1.579 . S
C353 C169 1.568 . S
C377 C172 1.535 . S
C367 C49 1.476 . S
C401 C147 1.583 . S
C391 C81 1.595 . S
C425 C171 1.552 . S
C415 C125 1.601 . S
C439 C29 1.462 . S
C449 C146 1.568 . S
