# Generated by pormake.
# Topology rtl, (3,6)-cn, num edge types: 1
# Building blocks:
#     Node 0, Type 0, BuildingBlock: MIDCAF_clean_linker_0, # of connection points: 3
#     Node 1, Type 0, BuildingBlock: MIDCAF_clean_linker_0, # of connection points: 3
#     Node 2, Type 0, BuildingBlock: MIDCAF_clean_linker_0, # of connection points: 3
#     Node 3, Type 0, BuildingBlock: MIDCAF_clean_linker_0, # of connection points: 3
#     Node 4, Type 1, BuildingBlock: KUMBOL_clean_sbu_1, # of connection points: 6
#     Node 5, Type 1, BuildingBlock: KUMBOL_clean_sbu_1, # of connection points: 6
#     Edge 6, Type (0, 1), BuildingBlock: MIFKUJ_clean_linker_0, # of connection points: 2
#     Edge 7, Type (0, 1), BuildingBlock: MIFKUJ_clean_linker_0, # of connection points: 2
#     Edge 8, Type (0, 1), BuildingBlock: MIFKUJ_clean_linker_0, # of connection points: 2
#     Edge 9, Type (0, 1), BuildingBlock: MIFKUJ_clean_linker_0, # of connection points: 2
#     Edge 10, Type (0, 1), BuildingBlock: MIFKUJ_clean_linker_0, # of connection points: 2
#     Edge 11, Type (0, 1), BuildingBlock: MIFKUJ_clean_linker_0, # of connection points: 2
#     Edge 12, Type (0, 1), BuildingBlock: MIFKUJ_clean_linker_0, # of connection points: 2
#     Edge 13, Type (0, 1), BuildingBlock: MIFKUJ_clean_linker_0, # of connection points: 2
#     Edge 14, Type (0, 1), BuildingBlock: MIFKUJ_clean_linker_0, # of connection points: 2
#     Edge 15, Type (0, 1), BuildingBlock: MIFKUJ_clean_linker_0, # of connection points: 2
#     Edge 16, Type (0, 1), BuildingBlock: MIFKUJ_clean_linker_0, # of connection points: 2
#     Edge 17, Type (0, 1), BuildingBlock: MIFKUJ_clean_linker_0, # of connection points: 2
# Relax obj value: 0.017
# Max RMSD: 0.084
# Mean RMSD: 0.052
data_MOF--net-rtl--node1-KUMBOL_clean_sbu_1--node2-MIDCAF_clean_linker_0--edge1-MIFKUJ_clean_linker_0
_symmetry_space_group_name_H-M    P1
_symmetry_Int_Tables_number       1
_symmetry_cell_setting            triclinic
loop_
_symmetry_equiv_pos_as_xyz
'x, y, z'
_cell_length_a     49.137488
_cell_length_b     49.717129
_cell_length_c     42.734675
_cell_angle_alpha  81.784607
_cell_angle_beta   99.642689
_cell_angle_gamma 90.185366
loop_
_atom_site_label
_atom_site_type_symbol
_atom_site_fract_x
_atom_site_fract_y
_atom_site_fract_z
_atom_type_partial_charge
C0 C 0.19649 0.9179 0.09758 0.0
C1 C 0.20684 0.90516 0.12882 0.0
C2 C 0.22877 0.88613 0.1333 0.0
C3 C 0.2396 0.87952 0.10704 0.0
H4 H 0.28659 0.8192 0.07846 0.0
H5 H 0.3173 0.78008 0.08176 0.0
H6 H 0.32713 0.80503 0.98318 0.0
H7 H 0.29563 0.84309 0.97952 0.0
H8 H 0.23949 0.86963 0.93465 0.0
H9 H 0.21396 0.88573 0.88174 0.0
H10 H 0.17433 0.94815 0.92021 0.0
H11 H 0.19917 0.93125 0.97366 0.0
H12 H 0.19836 0.92131 0.04771 0.0
H13 H 0.18004 0.9331 0.09328 0.0
H14 H 0.23713 0.87581 0.15702 0.0
H15 H 0.25621 0.86449 0.11132 0.0
N16 N 0.25882 0.86411 0.05115 0.0
N17 N 0.25538 0.86805 0.99527 0.0
N18 N 0.22729 0.89535 0.01747 0.0
C19 C 0.26731 0.85626 0.02506 0.0
C20 C 0.23538 0.8876 0.99123 0.0
C21 C 0.23888 0.8838 0.0475 0.0
C22 C 0.28823 0.83407 0.02856 0.0
C23 C 0.29543 0.81636 0.05755 0.0
C24 C 0.31322 0.79396 0.05948 0.0
C25 C 0.32445 0.78894 0.03256 0.0
C26 C 0.31828 0.80757 0.00415 0.0
C27 C 0.30029 0.82964 1.00211 0.0
C28 C 0.22133 0.89901 0.95855 0.0
C29 C 0.22548 0.88691 0.93191 0.0
C30 C 0.2109 0.8963 0.90138 0.0
C31 C 0.19197 0.91828 0.89652 0.0
C32 C 0.18834 0.93087 0.92306 0.0
C33 C 0.20276 0.92128 0.95373 0.0
C34 C 0.2287 0.89177 0.07572 0.0
C35 C 0.20721 0.91126 0.0714 0.0
C36 C 0.60027 0.67341 0.49821 0.0
C37 C 0.61408 0.67929 0.4718 0.0
C38 C 0.63778 0.69528 0.47492 0.0
C39 C 0.64718 0.70545 0.50346 0.0
H40 H 0.6887 0.76935 0.53601 0.0
H41 H 0.72481 0.80289 0.53498 0.0
H42 H 0.74006 0.79294 0.63832 0.0
H43 H 0.70335 0.75937 0.63982 0.0
H44 H 0.65795 0.72285 0.67642 0.0
H45 H 0.64167 0.7016 0.72484 0.0
H46 H 0.58612 0.6527 0.66797 0.0
H47 H 0.60293 0.67292 0.62025 0.0
H48 H 0.59873 0.67842 0.54674 0.0
H49 H 0.58174 0.6615 0.49663 0.0
H50 H 0.64938 0.69972 0.45544 0.0
H51 H 0.66549 0.71772 0.50491 0.0
N52 N 0.66258 0.73005 0.56074 0.0
N53 N 0.66226 0.73035 0.61554 0.0
N54 N 0.63358 0.70098 0.58713 0.0
C55 C 0.67209 0.74019 0.58827 0.0
C56 C 0.64285 0.71072 0.61503 0.0
C57 C 0.64338 0.71047 0.55995 0.0
C58 C 0.69315 0.76153 0.58807 0.0
C59 C 0.69945 0.77435 0.55864 0.0
C60 C 0.72 0.79367 0.55792 0.0
C61 C 0.73486 0.80037 0.58653 0.0
C62 C 0.72861 0.78797 0.616 0.0
C63 C 0.70768 0.76884 0.61679 0.0
C64 C 0.63206 0.69939 0.64443 0.0
C65 C 0.64227 0.70755 0.67431 0.0
C66 C 0.63279 0.69549 0.70205 0.0
C67 C 0.61285 0.67511 0.70043 0.0
C68 C 0.60202 0.66775 0.67035 0.0
C69 C 0.61158 0.67959 0.64281 0.0
C70 C 0.63336 0.69958 0.52979 0.0
C71 C 0.60992 0.68328 0.52694 0.0
C72 C 0.81585 0.08525 0.95138 0.0
C73 C 0.80775 0.09986 0.92055 0.0
C74 C 0.78914 0.12202 0.91661 0.0
C75 C 0.77933 0.12967 0.94304 0.0
H76 H 0.723 0.18094 0.96936 0.0
H77 H 0.6903 0.21903 0.96427 0.0
H78 H 0.69784 0.21041 0.06717 0.0
H79 H 0.73076 0.17277 0.07273 0.0
H80 H 0.76675 0.12608 0.11602 0.0
H81 H 0.7905 0.10822 0.16992 0.0
H82 H 0.8512 0.06819 0.1296 0.0
H83 H 0.82759 0.08571 0.07546 0.0
H84 H 0.81315 0.08126 1.00111 0.0
H85 H 0.8297 0.06774 0.95521 0.0
H86 H 0.78268 0.13387 0.89323 0.0
H87 H 0.76534 0.14706 0.93923 0.0
N88 N 0.75893 0.14375 0.9989 0.0
N89 N 0.76232 0.13957 0.05478 0.0
N90 N 0.79009 0.11208 0.03235 0.0
C91 C 0.75063 0.15166 0.02505 0.0
C92 C 0.78204 0.11977 0.05867 0.0
C93 C 0.77861 0.12387 1.00238 0.0
C94 C 0.72967 0.17379 0.02147 0.0
C95 C 0.71767 0.18704 0.99094 0.0
C96 C 0.69895 0.20877 0.98794 0.0
C97 C 0.69164 0.21732 0.01535 0.0
C98 C 0.70302 0.20383 0.04574 0.0
C99 C 0.72194 0.18235 0.04882 0.0
C100 C 0.79532 0.10748 0.09132 0.0
C101 C 0.785 0.11328 0.11849 0.0
C102 C 0.79844 0.10301 0.14933 0.0
C103 C 0.82244 0.08688 0.15355 0.0
C104 C 0.83255 0.08052 0.12667 0.0
C105 C 0.81902 0.0906 0.09577 0.0
C106 C 0.78799 0.11537 0.97398 0.0
C107 C 0.80621 0.09295 0.97774 0.0
C108 C 0.40957 0.3324 0.54884 0.0
C109 C 0.40077 0.32154 0.57762 0.0
C110 C 0.38394 0.29861 0.57779 0.0
C111 C 0.37556 0.2872 0.5498 0.0
H112 H 0.31978 0.23635 0.51374 0.0
H113 H 0.28211 0.20453 0.51457 0.0
H114 H 0.27871 0.20109 0.41384 0.0
H115 H 0.31703 0.23295 0.41262 0.0
H116 H 0.35653 0.27582 0.37373 0.0
H117 H 0.3717 0.29797 0.32471 0.0
H118 H 0.42839 0.34612 0.38081 0.0
H119 H 0.41379 0.32415 0.42957 0.0
H120 H 0.40808 0.33008 0.49895 0.0
H121 H 0.42234 0.35019 0.54775 0.0
H122 H 0.37723 0.28936 0.59966 0.0
H123 H 0.36241 0.26969 0.55092 0.0
N124 N 0.35418 0.26767 0.49028 0.0
N125 N 0.3536 0.26741 0.43528 0.0
N126 N 0.38329 0.29627 0.4634 0.0
C127 C 0.34391 0.25774 0.46276 0.0
C128 C 0.37346 0.28667 0.43553 0.0
C129 C 0.37383 0.2869 0.49087 0.0
C130 C 0.32156 0.23741 0.46303 0.0
C131 C 0.31135 0.22878 0.49166 0.0
C132 C 0.28976 0.21049 0.49229 0.0
C133 C 0.27767 0.20047 0.46433 0.0
C134 C 0.28778 0.2087 0.43568 0.0
C135 C 0.30967 0.22691 0.43505 0.0
C136 C 0.38366 0.29834 0.40569 0.0
C137 C 0.37241 0.29093 0.37568 0.0
C138 C 0.38111 0.30354 0.34762 0.0
C139 C 0.40097 0.32393 0.34906 0.0
C140 C 0.41274 0.33076 0.37903 0.0
C141 C 0.40432 0.31806 0.40698 0.0
C142 C 0.3839 0.29833 0.52087 0.0
C143 C 0.40126 0.32091 0.52079 0.0
C144 C 0.96415 0.08756 0.5008 0.0
C145 C 0.91507 0.08303 0.48251 0.0
C146 C 0.94066 0.07191 0.49945 0.0
C147 C 0.91372 0.10958 0.46583 0.0
C148 C 0.96257 0.11467 0.48521 0.0
C149 C 0.93739 0.12538 0.46724 0.0
N150 N 0.98815 0.07683 0.51885 0.0
C151 C 0.01072 0.09271 0.52399 0.0
C152 C 0.98611 0.13056 0.48908 0.0
C153 C 0.01017 0.11962 0.50886 0.0
Gd154 Gd 0.02562 0.97269 0.50568 0.0
Gd155 Gd 0.98674 0.03167 0.54404 0.0
N156 N 0.94244 0.04654 0.51656 0.0
C157 C 0.89133 0.06764 0.48408 0.0
C158 C 0.91893 0.03269 0.52055 0.0
C159 C 0.89322 0.04258 0.50374 0.0
H160 H 0.91962 0.01466 0.53789 0.0
H161 H 0.87477 0.03121 0.5067 0.0
H162 H 0.09016 0.99243 0.5111 0.0
H163 H 0.02913 0.08494 0.5402 0.0
H164 H 0.13679 0.97628 0.53946 0.0
H165 H 0.87131 0.0755 0.47153 0.0
H166 H 0.89427 0.11839 0.45264 0.0
H167 H 0.98595 0.91617 0.50596 0.0
H168 H 0.98567 0.15151 0.47769 0.0
H169 H 0.02823 0.13201 0.5128 0.0
H170 H 0.12105 0.88777 0.59406 0.0
H171 H 0.93585 0.14612 0.45505 0.0
H172 H 0.03098 0.85151 0.56992 0.0
H173 H 0.98847 0.86914 0.53332 0.0
N174 N 0.02551 0.92667 0.52983 0.0
C175 C 0.04976 0.91673 0.54793 0.0
C176 C 0.00418 0.90938 0.5232 0.0
C177 C 0.02972 0.87256 0.55877 0.0
C178 C 0.00569 0.88242 0.53816 0.0
C179 C 0.05243 0.88948 0.56312 0.0
H180 H 0.08037 0.85875 0.5927 0.0
N181 N 0.06997 0.95845 0.5318 0.0
C182 C 0.07275 0.933 0.54863 0.0
C183 C 0.122 0.93875 0.562 0.0
C184 C 0.09886 0.92257 0.56458 0.0
C185 C 0.0926 0.97339 0.52705 0.0
C186 C 0.11891 0.96409 0.54266 0.0
O187 O 0.98356 0.0353 0.4898 0.0
O188 O 0.98379 0.9904 0.48225 0.0
O189 O 0.04375 0.98258 0.46091 0.0
O190 O 0.02519 0.94356 0.47378 0.0
O191 O 0.96342 0.99284 0.54373 0.0
O192 O 0.98484 0.96032 0.52091 0.0
O193 O 0.04572 0.98236 0.55408 0.0
O194 O 0.00697 0.99287 0.57326 0.0
O195 O 0.95962 0.03418 0.57931 0.0
O196 O 0.99901 0.05514 0.58315 0.0
O197 O 0.03664 0.01721 0.49606 0.0
O198 O 0.03247 0.03619 0.54167 0.0
C199 C 0.97806 0.01613 0.47145 0.0
C200 C 0.9651 0.96876 0.53482 0.0
C201 C 0.04282 0.94747 0.42468 0.0
C202 C 0.06612 0.94671 0.37876 0.0
C203 C 0.03454 0.91097 0.39212 0.0
C204 C 0.02948 0.92335 0.41775 0.0
C205 C 0.05276 0.92249 0.37279 0.0
C206 C 0.06138 0.95925 0.405 0.0
C207 C 0.03792 0.95838 0.45368 0.0
C208 C 0.10121 0.89604 0.5814 0.0
C209 C 0.07804 0.87953 0.58068 0.0
H210 H 0.14242 0.93145 0.57383 0.0
C211 C 0.03334 0.9861 0.57809 0.0
C212 C 0.04494 0.03379 0.51708 0.0
C213 C 0.97051 0.06075 0.62344 0.0
C214 C 0.94608 0.06021 0.66897 0.0
C215 C 0.97834 0.09598 0.65764 0.0
C216 C 0.98384 0.08442 0.63152 0.0
C217 C 0.9597 0.08397 0.67627 0.0
C218 C 0.9512 0.04868 0.64212 0.0
C219 C 0.97626 0.05002 0.59464 0.0
H220 H 0.02433 0.89232 0.38726 0.0
H221 H 0.01519 0.91371 0.43239 0.0
H222 H 0.05647 0.91243 0.35295 0.0
H223 H 0.07198 0.97771 0.41002 0.0
H224 H 0.98858 0.11436 0.6635 0.0
H225 H 0.9983 0.09431 0.61728 0.0
H226 H 0.95585 0.09329 0.69658 0.0
H227 H 0.94061 0.03045 0.63617 0.0
C228 C 0.59275 0.53658 0.03494 0.0
C229 C 0.58849 0.58554 0.0193 0.0
C230 C 0.57708 0.56048 0.02996 0.0
C231 C 0.61554 0.58613 0.01271 0.0
C232 C 0.62045 0.53739 0.02986 0.0
C233 C 0.6315 0.56212 0.01805 0.0
N234 N 0.58172 0.51301 0.04712 0.0
C235 C 0.59826 0.49026 0.05749 0.0
C236 C 0.63668 0.51357 0.03821 0.0
C237 C 0.62565 0.49004 0.05259 0.0
Gd238 Gd 0.47476 0.48587 0.99197 0.0
Gd239 Gd 0.53582 0.51651 0.05642 0.0
N240 N 0.55105 0.55943 0.03689 0.0
C241 C 0.57266 0.60939 0.01657 0.0
C242 C 0.53619 0.58274 0.03619 0.0
C243 C 0.54652 0.60801 0.02542 0.0
H244 H 0.51627 0.58169 0.04365 0.0
H245 H 0.53441 0.6264 0.02416 0.0
H246 H 0.49077 0.41889 0.00406 0.0
H247 H 0.59087 0.47234 0.07066 0.0
H248 H 0.47157 0.3759 0.02605 0.0
H249 H 0.5807 0.62901 0.00845 0.0
H250 H 0.6246 0.60515 0.00436 0.0
H251 H 0.42268 0.532 0.9779 0.0
H252 H 0.65807 0.51343 0.03492 0.0
H253 H 0.63843 0.47186 0.06058 0.0
H254 H 0.38283 0.40184 0.04581 0.0
H255 H 0.65266 0.56303 0.01386 0.0
H256 H 0.35351 0.49493 0.01405 0.0
H257 H 0.37518 0.53524 0.98821 0.0
N258 N 0.42906 0.49097 1.00013 0.0
C259 C 0.41707 0.46815 0.0127 0.0
C260 C 0.41406 0.51462 0.99051 0.0
C261 C 0.37469 0.49353 0.01024 0.0
C262 C 0.38687 0.51638 0.99583 0.0
C263 C 0.3896 0.46888 0.01834 0.0
H264 H 0.35658 0.44513 0.03543 0.0
N265 N 0.45797 0.44349 0.01173 0.0
C266 C 0.43193 0.44371 0.01866 0.0
C267 C 0.43446 0.39492 0.03385 0.0
C268 C 0.4196 0.41945 0.03025 0.0
C269 C 0.47167 0.41942 0.01312 0.0
C270 C 0.46043 0.39488 0.02475 0.0
O271 O 0.527 0.53771 0.00537 0.0
O272 O 0.51552 0.50138 0.97932 0.0
O273 O 0.46786 0.45998 0.95427 0.0
O274 O 0.45415 0.5027 0.944 0.0
O275 O 0.49111 0.52998 0.05061 0.0
O276 O 0.47207 0.53072 0.99721 0.0
O277 O 0.47065 0.48093 0.0447 0.0
O278 O 0.51561 0.47717 0.07201 0.0
O279 O 0.52795 0.53538 0.09849 0.0
O280 O 0.56621 0.51318 0.09862 0.0
O281 O 0.51438 0.46138 1.00279 0.0
O282 O 0.54417 0.47377 0.04713 0.0
C283 C 0.52352 0.52656 0.97906 0.0
C284 C 0.47531 0.54154 0.02414 0.0
C285 C 0.44526 0.4761 0.89949 0.0
C286 C 0.44228 0.45113 0.85362 0.0
C287 C 0.41614 0.49331 0.8489 0.0
C288 C 0.42671 0.49577 0.88066 0.0
C289 C 0.42387 0.47123 0.83546 0.0
C290 C 0.45308 0.45352 0.88584 0.0
C291 C 0.45599 0.47964 0.93312 0.0
C292 C 0.39258 0.42027 0.03683 0.0
C293 C 0.37763 0.44492 0.0309 0.0
H294 H 0.42565 0.37584 0.04251 0.0
C295 C 0.48907 0.47297 0.07048 0.0
C296 C 0.53656 0.45793 0.02505 0.0
C297 C 0.56409 0.53075 0.14733 0.0
C298 C 0.56629 0.55298 0.19489 0.0
C299 C 0.60051 0.51845 0.19333 0.0
C300 C 0.58775 0.51515 0.1626 0.0
C301 C 0.58988 0.53723 0.2094 0.0
C302 C 0.55328 0.5499 0.16365 0.0
C303 C 0.55226 0.52707 0.11413 0.0
H304 H 0.4018 0.50857 0.83464 0.0
H305 H 0.4202 0.5131 0.89054 0.0
H306 H 0.4153 0.46971 0.81071 0.0
H307 H 0.46726 0.43802 0.90003 0.0
H308 H 0.61874 0.50641 0.20472 0.0
H309 H 0.59664 0.50033 0.15075 0.0
H310 H 0.60012 0.53954 0.23335 0.0
H311 H 0.53522 0.56224 0.15227 0.0
H312 H 0.22371 0.21256 0.43996 0.0
H313 H 0.18372 0.18392 0.44707 0.0
H314 H 0.23843 0.11888 0.4991 0.0
H315 H 0.27834 0.14768 0.49214 0.0
H316 H 0.19712 0.09956 0.45851 0.0
H317 H 0.20497 0.158 0.5388 0.0
H318 H 0.20835 0.20129 0.56087 0.0
H319 H 0.12933 0.2273 0.50541 0.0
H320 H 0.12568 0.1843 0.48259 0.0
H321 H 0.09872 0.02656 0.54595 0.0
H322 H 0.13835 0.05341 0.53244 0.0
H323 H 0.08312 0.10922 0.46455 0.0
H324 H 0.04378 0.0809 0.47585 0.0
H325 H 0.12418 0.13292 0.51172 0.0
H326 H 0.11662 0.07298 0.43245 0.0
H327 H 0.11488 0.02998 0.40978 0.0
H328 H 0.19463 0.0062 0.46483 0.0
H329 H 0.19666 0.04888 0.48824 0.0
C330 C 0.22708 0.192 0.45247 0.0
C331 C 0.25394 0.18216 0.46537 0.0
C332 C 0.20429 0.17573 0.45675 0.0
C333 C 0.20801 0.14931 0.47395 0.0
C334 C 0.235 0.13918 0.48583 0.0
C335 C 0.25776 0.15557 0.48186 0.0
C336 C 0.18378 0.13253 0.4803 0.0
C337 C 0.18136 0.10672 0.47052 0.0
C338 C 0.1629 0.14202 0.49545 0.0
C339 C 0.1652 0.16807 0.5087 0.0
C340 C 0.18845 0.17307 0.53103 0.0
C341 C 0.19039 0.19753 0.54373 0.0
C342 C 0.1691 0.21707 0.53448 0.0
C343 C 0.14582 0.21218 0.51251 0.0
C344 C 0.14381 0.18776 0.49968 0.0
C345 C 0.09517 0.04431 0.52778 0.0
C346 C 0.06835 0.05152 0.51157 0.0
C347 C 0.11775 0.05967 0.52016 0.0
C348 C 0.11371 0.08314 0.49721 0.0
C349 C 0.08673 0.09101 0.48203 0.0
C350 C 0.0643 0.07499 0.48866 0.0
C351 C 0.13755 0.1 0.48993 0.0
C352 C 0.13993 0.1258 0.49966 0.0
C353 C 0.15849 0.09037 0.475 0.0
C354 C 0.15658 0.06396 0.4625 0.0
C355 C 0.13355 0.05837 0.4402 0.0
C356 C 0.13258 0.03411 0.42708 0.0
C357 C 0.15458 0.01532 0.43595 0.0
C358 C 0.17756 0.02072 0.45806 0.0
C359 C 0.17862 0.04494 0.47128 0.0
H360 H 0.15387 0.99664 0.42559 0.0
H361 H 0.17061 0.23597 0.5444 0.0
H362 H 0.3616 0.76168 0.08287 0.0
H363 H 0.38756 0.71964 0.08368 0.0
H364 H 0.35278 0.71813 0.98432 0.0
H365 H 0.32529 0.75859 0.98401 0.0
H366 H 0.3512 0.67057 0.01412 0.0
H367 H 0.42223 0.73763 0.01286 0.0
H368 H 0.45056 0.77468 0.03268 0.0
H369 H 0.479 0.72313 0.12167 0.0
H370 H 0.45051 0.68589 0.10254 0.0
H371 H 0.44337 0.57506 0.97461 0.0
H372 H 0.4177 0.61636 0.97799 0.0
H373 H 0.44789 0.60786 0.07969 0.0
H374 H 0.47284 0.56626 0.0768 0.0
H375 H 0.45211 0.65947 0.0518 0.0
H376 H 0.38118 0.59262 0.05223 0.0
H377 H 0.35081 0.55659 0.03327 0.0
H378 H 0.32201 0.60879 0.94487 0.0
H379 H 0.35232 0.64508 0.96324 0.0
C380 C 0.35925 0.75227 0.06126 0.0
C381 C 0.34138 0.76385 0.03329 0.0
C382 C 0.37447 0.72838 0.06163 0.0
C383 C 0.37255 0.71581 0.03389 0.0
C384 C 0.35479 0.72739 0.00603 0.0
C385 C 0.33929 0.75089 0.00579 0.0
C386 C 0.38807 0.69009 0.03376 0.0
C387 C 0.37336 0.66839 0.0219 0.0
C388 C 0.41686 0.68672 0.04489 0.0
C389 C 0.43401 0.70908 0.05639 0.0
C390 C 0.43436 0.73427 0.03674 0.0
C391 C 0.45047 0.75529 0.04784 0.0
C392 C 0.46651 0.75129 0.07845 0.0
C393 C 0.46653 0.72622 0.09799 0.0
C394 C 0.45041 0.70515 0.08703 0.0
C395 C 0.44417 0.58165 0.99781 0.0
C396 C 0.45978 0.56689 0.02552 0.0
C397 C 0.42956 0.60538 0.99968 0.0
C398 C 0.43057 0.61507 0.02919 0.0
C399 C 0.44663 0.60073 0.0567 0.0
C400 C 0.46087 0.57685 0.05496 0.0
C401 C 0.41527 0.64034 0.03139 0.0
C402 C 0.42998 0.66182 0.04386 0.0
C403 C 0.38649 0.64365 0.0206 0.0
C404 C 0.36924 0.62143 0.00896 0.0
C405 C 0.36861 0.59629 0.0286 0.0
C406 C 0.35129 0.57589 0.01804 0.0
C407 C 0.33453 0.58038 0.98787 0.0
C408 C 0.33504 0.60531 0.9682 0.0
C409 C 0.35225 0.62581 0.9787 0.0
H410 H 0.32114 0.56455 0.97974 0.0
H411 H 0.47898 0.76758 0.08699 0.0
H412 H 0.73242 0.85469 0.56565 0.0
H413 H 0.77144 0.88462 0.55855 0.0
H414 H 0.82808 0.81672 0.59477 0.0
H415 H 0.78913 0.7873 0.60329 0.0
H416 H 0.84779 0.85952 0.61758 0.0
H417 H 0.80669 0.84146 0.51114 0.0
H418 H 0.76965 0.84175 0.46431 0.0
H419 H 0.76109 0.92852 0.45633 0.0
H420 H 0.79786 0.92868 0.50332 0.0
H421 H 0.96754 0.91664 0.56557 0.0
H422 H 0.92856 0.88743 0.57461 0.0
H423 H 0.87204 0.95241 0.52573 0.0
H424 H 0.91086 0.97917 0.51196 0.0
H425 H 0.85145 0.91153 0.51048 0.0
H426 H 0.89147 0.931 0.61644 0.0
H427 H 0.92751 0.93167 0.66409 0.0
H428 H 0.93708 0.84486 0.67425 0.0
H429 H 0.90126 0.84372 0.62656 0.0
C430 C 0.7533 0.84645 0.57251 0.0
C431 C 0.75806 0.81895 0.5852 0.0
C432 C 0.7755 0.86339 0.56817 0.0
C433 C 0.80267 0.85278 0.57554 0.0
C434 C 0.80732 0.82535 0.58892 0.0
C435 C 0.78517 0.80859 0.59384 0.0
C436 C 0.82638 0.86997 0.56911 0.0
C437 C 0.84873 0.87078 0.59409 0.0
C438 C 0.82728 0.88525 0.53874 0.0
C439 C 0.8048 0.88503 0.51092 0.0
C440 C 0.79672 0.86055 0.49956 0.0
C441 C 0.77582 0.86065 0.47296 0.0
C442 C 0.76298 0.88513 0.4574 0.0
C443 C 0.77101 0.90957 0.46842 0.0
C444 C 0.79188 0.90958 0.49502 0.0
C445 C 0.94674 0.92425 0.55616 0.0
C446 C 0.94207 0.95051 0.53907 0.0
C447 C 0.92443 0.90787 0.56204 0.0
C448 C 0.89715 0.91802 0.55211 0.0
C449 C 0.89273 0.94409 0.53423 0.0
C450 C 0.91496 0.95981 0.52709 0.0
C451 C 0.87305 0.90144 0.55909 0.0
C452 C 0.85057 0.90062 0.53415 0.0
C453 C 0.87189 0.88648 0.58966 0.0
C454 C 0.89388 0.88732 0.61782 0.0
C455 C 0.90143 0.9121 0.62871 0.0
C456 C 0.92177 0.91255 0.65575 0.0
C457 C 0.93461 0.88833 0.67214 0.0
C458 C 0.92715 0.86361 0.66153 0.0
C459 C 0.90681 0.86305 0.63453 0.0
H460 H 0.95031 0.88871 0.69311 0.0
H461 H 0.74685 0.88516 0.43677 0.0
H462 H 0.70235 0.26928 0.99302 0.0
H463 H 0.67459 0.31011 0.99339 0.0
H464 H 0.61275 0.26021 0.03233 0.0
H465 H 0.6408 0.2193 0.03236 0.0
H466 H 0.59016 0.30205 0.98432 0.0
H467 H 0.65571 0.29086 0.08164 0.0
H468 H 0.70146 0.28459 0.11604 0.0
H469 H 0.72807 0.35936 0.06791 0.0
H470 H 0.68258 0.36587 0.03288 0.0
H471 H 0.52531 0.40612 0.04755 0.0
H472 H 0.54943 0.36474 0.04104 0.0
H473 H 0.61111 0.41367 1.00043 0.0
H474 H 0.58579 0.45517 0.00494 0.0
H475 H 0.6326 0.37193 0.0482 0.0
H476 H 0.56591 0.38345 0.95143 0.0
H477 H 0.52015 0.38898 0.91695 0.0
H478 H 0.49487 0.3135 0.9648 0.0
H479 H 0.54038 0.30767 0.99984 0.0
C480 C 0.68265 0.26711 1.00121 0.0
C481 C 0.67354 0.24138 0.01262 0.0
C482 C 0.66692 0.29035 1.0016 0.0
C483 C 0.64178 0.28814 0.01318 0.0
C484 C 0.63213 0.2623 0.0234 0.0
C485 C 0.64809 0.23905 0.02346 0.0
C486 C 0.62619 0.31293 0.01571 0.0
C487 C 0.59924 0.3172 0.9986 0.0
C488 C 0.63831 0.33284 0.0339 0.0
C489 C 0.66588 0.32867 0.05438 0.0
C490 C 0.67144 0.30579 0.07813 0.0
C491 C 0.69729 0.30224 0.0978 0.0
C492 C 0.71769 0.32152 0.0941 0.0
C493 C 0.71227 0.3444 0.0707 0.0
C494 C 0.68646 0.34804 0.05094 0.0
C495 C 0.54369 0.40794 0.03663 0.0
C496 C 0.55342 0.43356 0.0259 0.0
C497 C 0.55748 0.38438 0.03305 0.0
C498 C 0.58164 0.38621 0.01954 0.0
C499 C 0.59221 0.41191 0.01041 0.0
C500 C 0.578 0.43549 0.01328 0.0
C501 C 0.59666 0.36126 0.01657 0.0
C502 C 0.6235 0.35686 0.03379 0.0
C503 C 0.5843 0.34124 0.99862 0.0
C504 C 0.55648 0.34529 0.97855 0.0
C505 C 0.55047 0.36822 0.95493 0.0
C506 C 0.52461 0.37135 0.93518 0.0
C507 C 0.50459 0.35164 0.93874 0.0
C508 C 0.51038 0.32878 0.9621 0.0
C509 C 0.53621 0.32555 0.9819 0.0
H510 H 0.48463 0.35404 0.92332 0.0
H511 H 0.73767 0.31876 0.10941 0.0
H512 H 0.23314 0.91066 0.18952 0.0
H513 H 0.21231 0.92218 0.23417 0.0
H514 H 0.13179 0.92607 0.17501 0.0
H515 H 0.15221 0.91386 0.13062 0.0
H516 H 0.14162 0.97042 0.20583 0.0
H517 H 0.14893 0.87373 0.23104 0.0
H518 H 0.17295 0.82911 0.24109 0.0
H519 H 0.22602 0.8529 0.32255 0.0
H520 H 0.20264 0.89791 0.31264 0.0
H521 H 0.05083 0.96721 0.31687 0.0
H522 H 0.07869 0.96515 0.2756 0.0
H523 H 0.1514 0.94805 0.34824 0.0
H524 H 0.1225 0.94772 0.38994 0.0
H525 H 0.14942 0.91247 0.31161 0.0
H526 H 0.13891 0.01047 0.28535 0.0
H527 H 0.11251 0.05392 0.27319 0.0
H528 H 0.06267 0.02599 0.1921 0.0
H529 H 0.08865 0.98235 0.20389 0.0
C530 C 0.21096 0.91359 0.18613 0.0
C531 C 0.19439 0.9115 0.15638 0.0
C532 C 0.19912 0.92027 0.21163 0.0
C533 C 0.17054 0.92499 0.20783 0.0
C534 C 0.15393 0.9227 0.17833 0.0
C535 C 0.16569 0.91587 0.15293 0.0
C536 C 0.15788 0.93296 0.23432 0.0
C537 C 0.14321 0.95775 0.22898 0.0
C538 C 0.1604 0.91655 0.26456 0.0
C539 C 0.17425 0.88935 0.27086 0.0
C540 C 0.16589 0.86956 0.25093 0.0
C541 C 0.17937 0.84417 0.25662 0.0
C542 C 0.20106 0.8382 0.28238 0.0
C543 C 0.20925 0.85758 0.30257 0.0
C544 C 0.19589 0.88304 0.29693 0.0
C545 C 0.07297 0.96426 0.32395 0.0
C546 C 0.08457 0.95773 0.35643 0.0
C547 C 0.08904 0.96312 0.30026 0.0
C548 C 0.11741 0.95667 0.30851 0.0
C549 C 0.12958 0.95299 0.34115 0.0
C550 C 0.11322 0.95333 0.36501 0.0
C551 C 0.13321 0.95034 0.28345 0.0
C552 C 0.14831 0.9256 0.28885 0.0
C553 C 0.13089 0.9667 0.25305 0.0
C554 C 0.11572 0.99318 0.24555 0.0
C555 C 0.1223 0.01361 0.26496 0.0
C556 C 0.10741 0.03826 0.25812 0.0
C557 C 0.08592 0.04271 0.2319 0.0
C558 C 0.07935 0.02255 0.21237 0.0
C559 C 0.09422 0.99791 0.21904 0.0
H560 H 0.07438 0.06178 0.22671 0.0
H561 H 0.21148 0.81854 0.28674 0.0
H562 H 0.60413 0.69625 0.75424 0.0
H563 H 0.58893 0.67197 0.80216 0.0
H564 H 0.58541 0.59762 0.76073 0.0
H565 H 0.60147 0.62124 0.71356 0.0
H566 H 0.53873 0.60706 0.78527 0.0
H567 H 0.63689 0.60678 0.81654 0.0
H568 H 0.68257 0.62766 0.82528 0.0
H569 H 0.65666 0.67214 0.89458 0.0
H570 H 0.61055 0.65194 0.88575 0.0
H571 H 0.52581 0.5092 0.92118 0.0
H572 H 0.54032 0.5352 0.87382 0.0
H573 H 0.55218 0.60554 0.92278 0.0
H574 H 0.53757 0.57991 0.96963 0.0
H575 H 0.59443 0.59969 0.89433 0.0
H576 H 0.49559 0.59898 0.86241 0.0
H577 H 0.4494 0.57953 0.85038 0.0
H578 H 0.47691 0.53686 0.78047 0.0
H579 H 0.52336 0.55572 0.79242 0.0
C580 C 0.60045 0.67467 0.75549 0.0
C581 C 0.60386 0.66077 0.72987 0.0
C582 C 0.59163 0.66087 0.78281 0.0
C583 C 0.58602 0.63302 0.7849 0.0
C584 C 0.58941 0.61916 0.75945 0.0
C585 C 0.59845 0.63279 0.73239 0.0
C586 C 0.57648 0.61804 0.81346 0.0
C587 C 0.55099 0.60518 0.80912 0.0
C588 C 0.59233 0.61612 0.84453 0.0
C589 C 0.62013 0.62808 0.8502 0.0
C590 C 0.64082 0.62122 0.83342 0.0
C591 C 0.66681 0.63291 0.83841 0.0
C592 C 0.67249 0.65128 0.8604 0.0
C593 C 0.6522 0.65795 0.8775 0.0
C594 C 0.62613 0.64639 0.87251 0.0
C595 C 0.53147 0.53021 0.92182 0.0
C596 C 0.53105 0.54227 0.94957 0.0
C597 C 0.53966 0.54512 0.89466 0.0
C598 C 0.54732 0.57242 0.89464 0.0
C599 C 0.54658 0.5845 0.92219 0.0
C600 C 0.53833 0.5697 0.94916 0.0
C601 C 0.55653 0.58843 0.86624 0.0
C602 C 0.58202 0.60157 0.87058 0.0
C603 C 0.54072 0.59051 0.83503 0.0
C604 C 0.51304 0.57849 0.82862 0.0
C605 C 0.49188 0.58518 0.84477 0.0
C606 C 0.46563 0.57432 0.83789 0.0
C607 C 0.46025 0.55689 0.81476 0.0
C608 C 0.48111 0.55029 0.79845 0.0
C609 C 0.5074 0.56105 0.80527 0.0
H610 H 0.4399 0.54857 0.80942 0.0
H611 H 0.69264 0.6603 0.86425 0.0
H612 H 0.81453 0.04261 0.19639 0.0
H613 H 0.84103 0.02935 0.25058 0.0
H614 H 0.89138 0.10011 0.23741 0.0
H615 H 0.86542 0.11271 0.1831 0.0
H616 H 0.92273 0.05824 0.26347 0.0
H617 H 0.83843 0.0957 0.28306 0.0
H618 H 0.78802 0.09993 0.27969 0.0
H619 H 0.78602 0.01818 0.32784 0.0
H620 H 0.83639 0.01327 0.33095 0.0
H621 H 0.98112 0.0624 0.42901 0.0
H622 H 0.95575 0.07305 0.37384 0.0
H623 H 0.91403 0.9967 0.38516 0.0
H624 H 0.93971 0.98573 0.43976 0.0
H625 H 0.87827 0.03999 0.36007 0.0
H626 H 0.96321 0.0034 0.34059 0.0
H627 H 0.01299 0.99852 0.33962 0.0
H628 H 0.01346 0.07983 0.28973 0.0
H629 H 0.96381 0.08537 0.2909 0.0
C630 C 0.83133 0.05515 0.20527 0.0
C631 C 0.83815 0.07858 0.18595 0.0
C632 C 0.84633 0.04773 0.23618 0.0
C633 C 0.86804 0.06391 0.24828 0.0
C634 C 0.87478 0.08728 0.22867 0.0
C635 C 0.85998 0.09453 0.19776 0.0
C636 C 0.88415 0.05648 0.28111 0.0
C637 C 0.91302 0.05469 0.28467 0.0
C638 C 0.87145 0.05108 0.30869 0.0
C639 C 0.84116 0.05403 0.30693 0.0
C640 C 0.82722 0.07854 0.29269 0.0
C641 C 0.79865 0.08107 0.29084 0.0
C642 C 0.78382 0.05932 0.30347 0.0
C643 C 0.79754 0.035 0.31801 0.0
C644 C 0.82609 0.03233 0.31982 0.0
C645 C 0.96651 0.04795 0.41964 0.0
C646 C 0.96238 0.02324 0.43858 0.0
C647 C 0.9522 0.05394 0.38811 0.0
C648 C 0.93313 0.03557 0.37531 0.0
C649 C 0.92874 0.0111 0.39445 0.0
C650 C 0.94344 0.00485 0.42562 0.0
C651 C 0.91691 0.04218 0.34244 0.0
C652 C 0.88798 0.04371 0.3389 0.0
C653 C 0.92958 0.04759 0.31487 0.0
C654 C 0.95985 0.04494 0.31629 0.0
C655 C 0.97403 0.02042 0.32997 0.0
C656 C 1.0022 0.01748 0.32922 0.0
C657 C 0.01639 0.03887 0.3147 0.0
C658 C 0.00248 0.0633 0.30106 0.0
C659 C 0.97434 0.06636 0.3018 0.0
H660 H 0.03815 0.03648 0.31392 0.0
H661 H 0.7617 0.06133 0.30206 0.0
H662 H 0.36845 0.32925 0.62196 0.0
H663 H 0.3814 0.34858 0.67146 0.0
H664 H 0.46322 0.36326 0.64961 0.0
H665 H 0.45075 0.34268 0.60053 0.0
H666 H 0.4662 0.34297 0.71094 0.0
H667 H 0.41517 0.41544 0.64086 0.0
H668 H 0.37601 0.43748 0.60205 0.0
H669 H 0.32231 0.41897 0.67146 0.0
H670 H 0.36106 0.39646 0.71056 0.0
H671 H 0.48652 0.44409 0.82423 0.0
H672 H 0.4862 0.41698 0.78028 0.0
H673 H 0.40988 0.3811 0.80032 0.0
H674 H 0.41043 0.40774 0.84432 0.0
H675 H 0.40793 0.41448 0.7383 0.0
H676 H 0.45976 0.34078 0.80764 0.0
H677 H 0.49909 0.31764 0.84508 0.0
H678 H 0.55221 0.3393 0.77564 0.0
H679 H 0.51328 0.36305 0.73799 0.0
C680 C 0.38931 0.33632 0.62777 0.0
C681 C 0.40859 0.33426 0.60728 0.0
C682 C 0.39659 0.34771 0.65595 0.0
C683 C 0.4232 0.35773 0.66413 0.0
C684 C 0.44254 0.35576 0.64376 0.0
C685 C 0.4353 0.34421 0.61556 0.0
C686 C 0.43078 0.36975 0.69429 0.0
C687 C 0.45376 0.35898 0.7167 0.0
C688 C 0.41436 0.39039 0.70201 0.0
C689 C 0.39101 0.40408 0.67858 0.0
C690 C 0.39498 0.4159 0.64779 0.0
C691 C 0.37285 0.4285 0.62574 0.0
C692 C 0.34668 0.42958 0.63426 0.0
C693 C 0.34259 0.41811 0.66489 0.0
C694 C 0.36464 0.40545 0.68702 0.0
C695 C 0.47054 0.42929 0.82032 0.0
C696 C 0.44856 0.42783 0.83773 0.0
C697 C 0.47023 0.41399 0.79505 0.0
C698 C 0.44781 0.39729 0.78681 0.0
C699 C 0.42734 0.39389 0.80625 0.0
C700 C 0.42779 0.40891 0.83159 0.0
C701 C 0.44295 0.38724 0.75525 0.0
C702 C 0.42052 0.39863 0.73243 0.0
C703 C 0.46005 0.36742 0.74712 0.0
C704 C 0.4837 0.35415 0.77023 0.0
C705 C 0.47993 0.34106 0.80057 0.0
C706 C 0.50213 0.32771 0.82177 0.0
C707 C 0.52817 0.32711 0.81281 0.0
C708 C 0.53206 0.33987 0.78261 0.0
C709 C 0.50994 0.35331 0.76135 0.0
H710 H 0.5453 0.31666 0.82921 0.0
H711 H 0.32958 0.43934 0.61716 0.0
H712 H 0.61505 0.70432 0.41043 0.0
H713 H 0.60108 0.68584 0.36061 0.0
H714 H 0.5741 0.61289 0.41339 0.0
H715 H 0.59029 0.63018 0.46359 0.0
H716 H 0.60172 0.5998 0.3722 0.0
H717 H 0.52736 0.66455 0.36516 0.0
H718 H 0.50708 0.70976 0.36578 0.0
H719 H 0.54673 0.74319 0.28708 0.0
H720 H 0.5674 0.69819 0.28617 0.0
H721 H 0.53713 0.54099 0.24285 0.0
H722 H 0.53859 0.56654 0.28794 0.0
H723 H 0.57767 0.63269 0.2367 0.0
H724 H 0.57621 0.60699 0.19149 0.0
H725 H 0.54307 0.65023 0.276 0.0
H726 H 0.61739 0.58586 0.28347 0.0
H727 H 0.64075 0.54173 0.28517 0.0
H728 H 0.60282 0.508 0.36512 0.0
H729 H 0.57894 0.55185 0.36364 0.0
C730 C 0.60647 0.6842 0.41158 0.0
C731 C 0.60395 0.66873 0.4412 0.0
C732 C 0.59797 0.67386 0.38292 0.0
C733 C 0.58602 0.64818 0.38313 0.0
C734 C 0.58311 0.63285 0.41258 0.0
C735 C 0.59212 0.64292 0.44131 0.0
C736 C 0.57803 0.63655 0.3529 0.0
C737 C 0.58836 0.61061 0.35144 0.0
C738 C 0.56152 0.65108 0.32534 0.0
C739 C 0.54901 0.67807 0.32571 0.0
C740 C 0.53184 0.68158 0.34809 0.0
C741 C 0.52026 0.70715 0.34847 0.0
C742 C 0.52564 0.72934 0.32651 0.0
C743 C 0.54257 0.72598 0.30407 0.0
C744 C 0.55416 0.70044 0.30355 0.0
C745 C 0.54466 0.56156 0.2406 0.0
C746 C 0.55635 0.57221 0.2138 0.0
C747 C 0.54587 0.57597 0.26649 0.0
C748 C 0.55886 0.60116 0.26588 0.0
C749 C 0.56771 0.61318 0.23763 0.0
C750 C 0.5666 0.59867 0.21171 0.0
C751 C 0.56611 0.61323 0.2958 0.0
C752 C 0.55599 0.63931 0.29702 0.0
C753 C 0.58283 0.59882 0.32328 0.0
C754 C 0.59603 0.57204 0.3231 0.0
C755 C 0.61367 0.56892 0.30108 0.0
C756 C 0.62712 0.54399 0.30211 0.0
C757 C 0.62318 0.52204 0.32515 0.0
C758 C 0.60577 0.52498 0.3472 0.0
C759 C 0.59227 0.54986 0.34627 0.0
H760 H 0.6337 0.5028 0.32599 0.0
H761 H 0.51666 0.74912 0.32685 0.0
H762 H 0.86069 0.08369 0.91991 0.0
H763 H 0.87993 0.07066 0.87525 0.0
H764 H 0.80117 0.08721 0.81341 0.0
H765 H 0.78124 0.099 0.85868 0.0
H766 H 0.82449 0.0415 0.80233 0.0
H767 H 0.85353 0.13231 0.81046 0.0
H768 H 0.87377 0.16962 0.83839 0.0
H769 H 0.95159 0.1263 0.86368 0.0
H770 H 0.9317 0.08851 0.83631 0.0
H771 H 0.88955 0.06168 0.65793 0.0
H772 H 0.86096 0.06037 0.70018 0.0
H773 H 0.93212 0.03407 0.77169 0.0
H774 H 0.96042 0.03501 0.72968 0.0
H775 H 0.90999 0.08557 0.77559 0.0
H776 H 0.88003 0.99445 0.7677 0.0
H777 H 0.85851 0.95634 0.7423 0.0
H778 H 0.78149 0.00105 0.7162 0.0
H779 H 0.80266 0.03959 0.74108 0.0
C780 C 0.84727 0.0842 0.89697 0.0
C781 C 0.81937 0.09234 0.89294 0.0
C782 C 0.85842 0.07702 0.87132 0.0
C783 C 0.84211 0.07833 0.84084 0.0
C784 C 0.81416 0.08616 0.8367 0.0
C785 C 0.80289 0.09316 0.8625 0.0
C786 C 0.85456 0.07183 0.81338 0.0
C787 C 0.84293 0.05144 0.79606 0.0
C788 C 0.87884 0.08453 0.80558 0.0
C789 C 0.89106 0.10749 0.82148 0.0
C790 C 0.87493 0.13067 0.8221 0.0
C791 C 0.88633 0.15191 0.83783 0.0
C792 C 0.91394 0.15031 0.85284 0.0
C793 C 0.93021 0.1275 0.85205 0.0
C794 C 0.91889 0.10618 0.83639 0.0
C795 C 0.89864 0.05417 0.6825 0.0
C796 C 0.92716 0.04845 0.69064 0.0
C797 C 0.88237 0.05363 0.70665 0.0
C798 C 0.89455 0.04752 0.7391 0.0
C799 C 0.92234 0.03893 0.74683 0.0
C800 C 0.93845 0.03924 0.7228 0.0
C801 C 0.88024 0.05484 0.7648 0.0
C802 C 0.89148 0.07567 0.78168 0.0
C803 C 0.8555 0.04272 0.7719 0.0
C804 C 0.84306 0.02007 0.75578 0.0
C805 C 0.85863 0.99633 0.75608 0.0
C806 C 0.84646 0.9746 0.74192 0.0
C807 C 0.81868 0.97631 0.72751 0.0
C808 C 0.80302 0.99977 0.72726 0.0
C809 C 0.8151 0.02157 0.74139 0.0
H810 H 0.80927 0.95943 0.71665 0.0
H811 H 0.92273 0.16676 0.86504 0.0
H812 H 0.40118 0.37868 0.33184 0.0
H813 H 0.41543 0.40395 0.28398 0.0
H814 H 0.43313 0.32845 0.25193 0.0
H815 H 0.41874 0.30303 0.29993 0.0
H816 H 0.47495 0.36548 0.24783 0.0
H817 H 0.37678 0.36453 0.21561 0.0
H818 H 0.32837 0.37123 0.22174 0.0
H819 H 0.34195 0.45633 0.22416 0.0
H820 H 0.3906 0.45006 0.21846 0.0
H821 H 0.49184 0.41858 0.08948 0.0
H822 H 0.47674 0.3935 0.1371 0.0
H823 H 0.45105 0.46903 0.16324 0.0
H824 H 0.46548 0.49395 0.11495 0.0
H825 H 0.4132 0.43234 0.17114 0.0
H826 H 0.51115 0.43373 0.20413 0.0
H827 H 0.56051 0.42697 0.20218 0.0
H828 H 0.54812 0.34157 0.20084 0.0
H829 H 0.49863 0.34788 0.20247 0.0
C830 C 0.40807 0.3675 0.31452 0.0
C831 C 0.40884 0.33894 0.31948 0.0
C832 C 0.41607 0.38194 0.28714 0.0
C833 C 0.42514 0.36809 0.26425 0.0
C834 C 0.42608 0.33952 0.26923 0.0
C835 C 0.41774 0.32504 0.29649 0.0
C836 C 0.43416 0.38352 0.23549 0.0
C837 C 0.46133 0.37978 0.23073 0.0
C838 C 0.41666 0.40283 0.21384 0.0
C839 C 0.38737 0.40678 0.21687 0.0
C840 C 0.36949 0.38464 0.21766 0.0
C841 C 0.342 0.38836 0.22102 0.0
C842 C 0.3321 0.41418 0.22341 0.0
C843 C 0.34966 0.43634 0.22233 0.0
C844 C 0.37718 0.43272 0.219 0.0
C845 C 0.48292 0.42969 0.10547 0.0
C846 C 0.47966 0.45802 0.09878 0.0
C847 C 0.47448 0.41544 0.13276 0.0
C848 C 0.46309 0.42936 0.15412 0.0
C849 C 0.45976 0.45781 0.1472 0.0
C850 C 0.46797 0.47202 0.1197 0.0
C851 C 0.45408 0.41417 0.18317 0.0
C852 C 0.42688 0.41802 0.18811 0.0
C853 C 0.47162 0.39501 0.20513 0.0
C854 C 0.50115 0.39134 0.20305 0.0
C855 C 0.5189 0.41357 0.20304 0.0
C856 C 0.54692 0.4098 0.20211 0.0
C857 C 0.55743 0.38387 0.20129 0.0
C858 C 0.53994 0.36165 0.20141 0.0
C859 C 0.51192 0.36531 0.20237 0.0
H860 H 0.57914 0.38098 0.20066 0.0
H861 H 0.31082 0.41701 0.22603 0.0
H862 H 0.13791 0.9365 0.88117 0.0
H863 H 0.11068 0.94929 0.82788 0.0
H864 H 0.18084 0.93171 0.78495 0.0
H865 H 0.20873 0.92065 0.83805 0.0
H866 H 0.15627 0.97556 0.7536 0.0
H867 H 0.12563 0.88711 0.79088 0.0
H868 H 0.10749 0.85252 0.82899 0.0
H869 H 0.03302 0.90024 0.81885 0.0
H870 H 0.0509 0.93534 0.78104 0.0
H871 H 0.08716 0.96875 0.59673 0.0
H872 H 0.11273 0.95717 0.65077 0.0
H873 H 0.0417 0.97928 0.68946 0.0
H874 H 0.01535 0.98974 0.63499 0.0
H875 H 0.06578 0.93341 0.7235 0.0
H876 H 0.09783 0.02182 0.68527 0.0
H877 H 0.11804 0.05651 0.64915 0.0
H878 H 0.19174 0.00721 0.66158 0.0
H879 H 0.17181 0.97207 0.69741 0.0
C880 C 0.14775 0.9358 0.86044 0.0
C881 C 0.17556 0.92729 0.86406 0.0
C882 C 0.13198 0.94274 0.82991 0.0
C883 C 0.14347 0.94088 0.80231 0.0
C884 C 0.17138 0.93308 0.80583 0.0
C885 C 0.18726 0.92648 0.83631 0.0
C886 C 0.1266 0.94723 0.7697 0.0
C887 C 0.13666 0.96604 0.74692 0.0
C888 C 0.10071 0.93527 0.76109 0.0
C889 C 0.0897 0.91396 0.78334 0.0
C890 C 0.10544 0.8903 0.79691 0.0
C891 C 0.09521 0.8706 0.81845 0.0
C892 C 0.06915 0.87421 0.82639 0.0
C893 C 0.05322 0.89749 0.81271 0.0
C894 C 0.06338 0.91728 0.7912 0.0
C895 C 0.07673 0.97084 0.61658 0.0
C896 C 0.04899 0.97984 0.61132 0.0
C897 C 0.09157 0.96448 0.64763 0.0
C898 C 0.07932 0.96766 0.67431 0.0
C899 C 0.05162 0.97663 0.66927 0.0
C900 C 0.0366 0.98269 0.63809 0.0
C901 C 0.09554 0.96171 0.70735 0.0
C902 C 0.08538 0.94293 0.7302 0.0
C903 C 0.12155 0.97346 0.71599 0.0
C904 C 0.13321 0.99423 0.69375 0.0
C905 C 0.11822 0.01826 0.68001 0.0
C906 C 0.12966 0.03802 0.65965 0.0
C907 C 0.15613 0.03404 0.65301 0.0
C908 C 0.17122 0.01026 0.66669 0.0
C909 C 0.15987 0.99042 0.68702 0.0
H910 H 0.16497 0.04941 0.63733 0.0
H911 H 0.06126 0.85894 0.8431 0.0
loop_
_geom_bond_atom_site_label_1
_geom_bond_atom_site_label_2
_geom_bond_distance
_geom_bond_site_symmetry_2
_ccdc_geom_bond_type
C0 C1 1.384 . S
C0 H13 0.947 . S
C0 C35 1.382 . S
C1 C0 1.384 . S
C1 C2 1.378 . S
C2 C1 1.378 . S
C2 C3 1.378 . S
C2 H14 0.952 . S
C3 C2 1.378 . S
C3 H15 0.950 . S
C3 C34 1.383 . S
H4 C23 0.947 . S
H5 C24 0.946 . S
H6 C26 0.953 1_556 S
H7 C27 0.945 . S
H8 C29 0.952 . S
H9 C30 0.949 . S
H10 C32 0.950 . S
H11 C33 0.948 . S
H12 C35 0.951 . S
H13 C0 0.947 . S
H14 C2 0.952 . S
H15 C3 0.950 . S
N16 C19 1.382 . S
N16 C21 1.363 . S
N17 C19 1.371 1_556 S
N17 C20 1.372 . S
N18 C20 1.361 1_554 S
N18 C21 1.377 . S
C19 N16 1.382 . S
C19 N17 1.371 1_554 S
C19 C22 1.480 . S
C20 N17 1.372 . S
C20 N18 1.361 1_556 S
C20 C28 1.457 . S
C21 N16 1.363 . S
C21 N18 1.377 . S
C21 C34 1.479 . S
C22 C19 1.480 . S
C22 C23 1.383 . S
C22 C27 1.385 1_554 S
C23 H4 0.947 . S
C23 C22 1.383 . S
C23 C24 1.388 . S
C24 H5 0.946 . S
C24 C23 1.388 . S
C24 C25 1.384 . S
C25 C24 1.384 . S
C25 C26 1.377 . S
C26 H6 0.953 1_554 S
C26 C25 1.377 . S
C26 C27 1.369 1_554 S
C27 H7 0.945 . S
C27 C22 1.385 1_556 S
C27 C26 1.369 1_556 S
C28 C20 1.457 . S
C28 C29 1.372 . S
C28 C33 1.364 . S
C29 H8 0.952 . S
C29 C28 1.372 . S
C29 C30 1.389 . S
C30 H9 0.949 . S
C30 C29 1.389 . S
C30 C31 1.387 . S
C31 C30 1.387 . S
C31 C32 1.372 . S
C32 H10 0.950 . S
C32 C31 1.372 . S
C32 C33 1.379 . S
C33 H11 0.948 . S
C33 C28 1.364 . S
C33 C32 1.379 . S
C34 C3 1.383 . S
C34 C21 1.479 . S
C34 C35 1.398 . S
C35 C0 1.382 . S
C35 H12 0.951 . S
C35 C34 1.398 . S
C36 C37 1.384 . S
C36 H49 0.947 . S
C36 C71 1.382 . S
C37 C36 1.384 . S
C37 C38 1.378 . S
C38 C37 1.378 . S
C38 C39 1.378 . S
C38 H50 0.952 . S
C39 C38 1.378 . S
C39 H51 0.950 . S
C39 C70 1.383 . S
H40 C59 0.947 . S
H41 C60 0.946 . S
H42 C62 0.953 . S
H43 C63 0.945 . S
H44 C65 0.952 . S
H45 C66 0.949 . S
H46 C68 0.950 . S
H47 C69 0.948 . S
H48 C71 0.951 . S
H49 C36 0.947 . S
H50 C38 0.952 . S
H51 C39 0.950 . S
N52 C55 1.382 . S
N52 C57 1.363 . S
N53 C55 1.371 . S
N53 C56 1.372 . S
N54 C56 1.361 . S
N54 C57 1.377 . S
C55 N52 1.382 . S
C55 N53 1.371 . S
C55 C58 1.480 . S
C56 N53 1.372 . S
C56 N54 1.361 . S
C56 C64 1.457 . S
C57 N52 1.363 . S
C57 N54 1.377 . S
C57 C70 1.479 . S
C58 C55 1.480 . S
C58 C59 1.383 . S
C58 C63 1.385 . S
C59 H40 0.947 . S
C59 C58 1.383 . S
C59 C60 1.388 . S
C60 H41 0.946 . S
C60 C59 1.388 . S
C60 C61 1.384 . S
C61 C60 1.384 . S
C61 C62 1.377 . S
C62 H42 0.953 . S
C62 C61 1.377 . S
C62 C63 1.369 . S
C63 H43 0.945 . S
C63 C58 1.385 . S
C63 C62 1.369 . S
C64 C56 1.457 . S
C64 C65 1.372 . S
C64 C69 1.364 . S
C65 H44 0.952 . S
C65 C64 1.372 . S
C65 C66 1.389 . S
C66 H45 0.949 . S
C66 C65 1.389 . S
C66 C67 1.387 . S
C67 C66 1.387 . S
C67 C68 1.372 . S
C68 H46 0.950 . S
C68 C67 1.372 . S
C68 C69 1.379 . S
C69 H47 0.948 . S
C69 C64 1.364 . S
C69 C68 1.379 . S
C70 C39 1.383 . S
C70 C57 1.479 . S
C70 C71 1.398 . S
C71 C36 1.382 . S
C71 H48 0.951 . S
C71 C70 1.398 . S
C72 C73 1.384 . S
C72 H85 0.947 . S
C72 C107 1.382 . S
C73 C72 1.384 . S
C73 C74 1.378 . S
C74 C73 1.378 . S
C74 C75 1.378 . S
C74 H86 0.952 . S
C75 C74 1.378 . S
C75 H87 0.950 . S
C75 C106 1.383 . S
H76 C95 0.947 . S
H77 C96 0.946 . S
H78 C98 0.953 . S
H79 C99 0.945 . S
H80 C101 0.952 . S
H81 C102 0.949 . S
H82 C104 0.950 . S
H83 C105 0.948 . S
H84 C107 0.951 . S
H85 C72 0.947 . S
H86 C74 0.952 . S
H87 C75 0.950 . S
N88 C91 1.382 1_556 S
N88 C93 1.362 . S
N89 C91 1.371 . S
N89 C92 1.372 . S
N90 C92 1.361 . S
N90 C93 1.367 1_554 S
C91 N88 1.382 1_554 S
C91 N89 1.371 . S
C91 C94 1.480 . S
C92 N89 1.372 . S
C92 N90 1.361 . S
C92 C100 1.457 . S
C93 N88 1.362 . S
C93 N90 1.367 1_556 S
C93 C106 1.491 . S
C94 C91 1.480 . S
C94 C95 1.383 1_554 S
C94 C99 1.385 . S
C95 H76 0.947 . S
C95 C94 1.383 1_556 S
C95 C96 1.388 . S
C96 H77 0.946 . S
C96 C95 1.388 . S
C96 C97 1.384 1_556 S
C97 C96 1.384 1_554 S
C97 C98 1.377 . S
C98 H78 0.953 . S
C98 C97 1.377 . S
C98 C99 1.369 . S
C99 H79 0.945 . S
C99 C94 1.385 . S
C99 C98 1.369 . S
C100 C92 1.457 . S
C100 C101 1.372 . S
C100 C105 1.364 . S
C101 H80 0.952 . S
C101 C100 1.372 . S
C101 C102 1.389 . S
C102 H81 0.949 . S
C102 C101 1.389 . S
C102 C103 1.387 . S
C103 C102 1.387 . S
C103 C104 1.372 . S
C104 H82 0.950 . S
C104 C103 1.372 . S
C104 C105 1.379 . S
C105 H83 0.948 . S
C105 C100 1.364 . S
C105 C104 1.379 . S
C106 C75 1.383 . S
C106 C93 1.491 . S
C106 C107 1.398 . S
C107 C72 1.382 . S
C107 H84 0.951 . S
C107 C106 1.398 . S
C108 C109 1.384 . S
C108 H121 0.947 . S
C108 C143 1.382 . S
C109 C108 1.384 . S
C109 C110 1.378 . S
C110 C109 1.378 . S
C110 C111 1.378 . S
C110 H122 0.952 . S
C111 C110 1.378 . S
C111 H123 0.950 . S
C111 C142 1.383 . S
H112 C131 0.947 . S
H113 C132 0.946 . S
H114 C134 0.953 . S
H115 C135 0.945 . S
H116 C137 0.952 . S
H117 C138 0.949 . S
H118 C140 0.950 . S
H119 C141 0.948 . S
H120 C143 0.951 . S
H121 C108 0.947 . S
H122 C110 0.952 . S
H123 C111 0.950 . S
N124 C127 1.382 . S
N124 C129 1.363 . S
N125 C127 1.371 . S
N125 C128 1.372 . S
N126 C128 1.361 . S
N126 C129 1.377 . S
C127 N124 1.382 . S
C127 N125 1.371 . S
C127 C130 1.480 . S
C128 N125 1.372 . S
C128 N126 1.361 . S
C128 C136 1.457 . S
C129 N124 1.363 . S
C129 N126 1.377 . S
C129 C142 1.479 . S
C130 C127 1.480 . S
C130 C131 1.383 . S
C130 C135 1.385 . S
C131 H112 0.947 . S
C131 C130 1.383 . S
C131 C132 1.388 . S
C132 H113 0.946 . S
C132 C131 1.388 . S
C132 C133 1.384 . S
C133 C132 1.384 . S
C133 C134 1.377 . S
C134 H114 0.953 . S
C134 C133 1.377 . S
C134 C135 1.369 . S
C135 H115 0.945 . S
C135 C130 1.385 . S
C135 C134 1.369 . S
C136 C128 1.457 . S
C136 C137 1.372 . S
C136 C141 1.364 . S
C137 H116 0.952 . S
C137 C136 1.372 . S
C137 C138 1.389 . S
C138 H117 0.949 . S
C138 C137 1.389 . S
C138 C139 1.387 . S
C139 C138 1.387 . S
C139 C140 1.372 . S
C140 H118 0.950 . S
C140 C139 1.372 . S
C140 C141 1.379 . S
C141 H119 0.948 . S
C141 C136 1.364 . S
C141 C140 1.379 . S
C142 C111 1.383 . S
C142 C129 1.479 . S
C142 C143 1.398 . S
C143 C108 1.382 . S
C143 H120 0.951 . S
C143 C142 1.398 . S
C144 C146 1.422 . S
C144 C148 1.415 . S
C144 N150 1.369 . S
C145 C146 1.421 . S
C145 C147 1.417 . S
C145 C157 1.422 . S
C146 C144 1.422 . S
C146 C145 1.421 . S
C146 N156 1.359 . S
C147 C145 1.417 . S
C147 C149 1.329 . S
C147 H166 0.930 . S
C148 C144 1.415 . S
C148 C149 1.437 . S
C148 C152 1.413 . S
C149 C147 1.329 . S
C149 C148 1.437 . S
C149 H171 0.929 . S
N150 C144 1.369 . S
N150 C151 1.338 1_655 S
N150 Gd155 2.622 . S
C151 N150 1.338 1_455 S
C151 C153 1.378 1_455 S
C151 H163 0.929 . S
C152 C148 1.413 . S
C152 C153 1.353 . S
C152 H168 0.931 . S
C153 C151 1.378 1_655 S
C153 C152 1.353 . S
C153 H169 0.925 1_655 S
Gd154 N174 2.622 . S
Gd154 N181 2.570 . S
Gd154 O188 2.353 1_455 S
Gd154 O189 2.468 . S
Gd154 O190 2.427 . S
Gd154 O192 2.388 1_455 S
Gd154 O193 2.386 . S
Gd154 O197 2.307 1_565 S
Gd154 C207 2.805 . S
Gd155 N150 2.622 . S
Gd155 N156 2.570 . S
Gd155 O187 2.386 . S
Gd155 O191 2.307 1_545 S
Gd155 O194 2.353 1_655 S
Gd155 O195 2.468 . S
Gd155 O196 2.427 . S
Gd155 O198 2.388 1_655 S
Gd155 C219 2.805 . S
N156 C146 1.359 . S
N156 Gd155 2.570 . S
N156 C158 1.343 . S
C157 C145 1.422 . S
C157 C159 1.321 . S
C157 H165 0.931 . S
C158 N156 1.343 . S
C158 C159 1.390 . S
C158 H160 0.931 . S
C159 C157 1.321 . S
C159 C158 1.390 . S
C159 H161 0.930 . S
H160 C158 0.931 . S
H161 C159 0.930 . S
H162 C185 0.931 . S
H163 C151 0.929 . S
H164 C186 0.930 . S
H165 C157 0.931 . S
H166 C147 0.930 . S
H167 C176 0.929 1_655 S
H168 C152 0.931 . S
H169 C153 0.925 1_455 S
H170 C208 0.930 . S
H171 C149 0.929 . S
H172 C177 0.931 . S
H173 C178 0.930 1_655 S
N174 Gd154 2.622 . S
N174 C175 1.369 . S
N174 C176 1.338 . S
C175 N174 1.369 . S
C175 C179 1.415 . S
C175 C182 1.422 . S
C176 H167 0.929 1_455 S
C176 N174 1.338 . S
C176 C178 1.378 . S
C177 H172 0.931 . S
C177 C178 1.348 . S
C177 C179 1.413 . S
C178 H173 0.930 1_455 S
C178 C176 1.378 . S
C178 C177 1.348 . S
C179 C175 1.415 . S
C179 C177 1.413 . S
C179 C209 1.437 . S
H180 C209 0.929 . S
N181 Gd154 2.570 . S
N181 C182 1.359 . S
N181 C185 1.343 . S
C182 C175 1.422 . S
C182 N181 1.359 . S
C182 C184 1.421 . S
C183 C184 1.422 . S
C183 C186 1.321 . S
C183 H210 0.931 . S
C184 C182 1.421 . S
C184 C183 1.422 . S
C184 C208 1.417 . S
C185 H162 0.931 . S
C185 N181 1.343 . S
C185 C186 1.390 . S
C186 H164 0.930 . S
C186 C183 1.321 . S
C186 C185 1.390 . S
O187 Gd155 2.386 . S
O187 C199 1.265 . S
O188 Gd154 2.353 1_655 S
O188 C199 1.242 1_565 S
O189 Gd154 2.468 . S
O189 C207 1.263 . S
O190 Gd154 2.427 . S
O190 C207 1.252 . S
O191 Gd155 2.307 1_565 S
O191 C200 1.261 . S
O192 Gd154 2.388 1_655 S
O192 C200 1.252 . S
O193 Gd154 2.386 . S
O193 C211 1.265 . S
O194 Gd155 2.353 1_455 S
O194 C211 1.242 1_545 S
O195 Gd155 2.468 . S
O195 C219 1.263 . S
O196 Gd155 2.427 . S
O196 C219 1.252 . S
O197 Gd154 2.307 1_545 S
O197 C212 1.261 . S
O198 Gd155 2.388 1_455 S
O198 C212 1.252 . S
C199 O187 1.265 . S
C199 O188 1.242 1_545 S
C200 O191 1.261 . S
C200 O192 1.252 . S
C201 C204 1.394 . S
C201 C206 1.370 . S
C201 C207 1.500 . S
C202 C205 1.383 . S
C202 C206 1.395 . S
C203 C204 1.396 . S
C203 C205 1.365 . S
C203 H220 0.929 . S
C204 C201 1.394 . S
C204 C203 1.396 . S
C204 H221 0.930 . S
C205 C202 1.383 . S
C205 C203 1.365 . S
C205 H222 0.931 . S
C206 C201 1.370 . S
C206 C202 1.395 . S
C206 H223 0.930 . S
C207 Gd154 2.805 . S
C207 O189 1.263 . S
C207 O190 1.252 . S
C207 C201 1.500 . S
C208 H170 0.930 . S
C208 C184 1.417 . S
C208 C209 1.329 . S
C209 C179 1.437 . S
C209 H180 0.929 . S
C209 C208 1.329 . S
H210 C183 0.931 . S
C211 O193 1.265 . S
C211 O194 1.242 1_565 S
C212 O197 1.261 . S
C212 O198 1.252 . S
C213 C216 1.394 . S
C213 C218 1.370 . S
C213 C219 1.500 . S
C214 C217 1.383 . S
C214 C218 1.395 . S
C215 C216 1.396 . S
C215 C217 1.365 . S
C215 H224 0.929 . S
C216 C213 1.394 . S
C216 C215 1.396 . S
C216 H225 0.930 . S
C217 C214 1.383 . S
C217 C215 1.365 . S
C217 H226 0.931 . S
C218 C213 1.370 . S
C218 C214 1.395 . S
C218 H227 0.930 . S
C219 Gd155 2.805 . S
C219 O195 1.263 . S
C219 O196 1.252 . S
C219 C213 1.500 . S
H220 C203 0.929 . S
H221 C204 0.930 . S
H222 C205 0.931 . S
H223 C206 0.930 . S
H224 C215 0.929 . S
H225 C216 0.930 . S
H226 C217 0.931 . S
H227 C218 0.930 . S
C228 C230 1.422 . S
C228 C232 1.415 . S
C228 N234 1.369 . S
C229 C230 1.421 . S
C229 C231 1.417 . S
C229 C241 1.422 . S
C230 C228 1.422 . S
C230 C229 1.421 . S
C230 N240 1.359 . S
C231 C229 1.417 . S
C231 C233 1.329 . S
C231 H250 0.930 . S
C232 C228 1.415 . S
C232 C233 1.437 . S
C232 C236 1.413 . S
C233 C231 1.329 . S
C233 C232 1.437 . S
C233 H255 0.929 . S
N234 C228 1.369 . S
N234 C235 1.338 . S
N234 Gd239 2.622 . S
C235 N234 1.338 . S
C235 C237 1.378 . S
C235 H247 0.929 . S
C236 C232 1.413 . S
C236 C237 1.348 . S
C236 H252 0.931 . S
C237 C235 1.378 . S
C237 C236 1.348 . S
C237 H253 0.930 . S
Gd238 N258 2.622 . S
Gd238 N265 2.570 1_556 S
Gd238 O272 2.353 . S
Gd238 O273 2.468 . S
Gd238 O274 2.427 . S
Gd238 O276 2.388 . S
Gd238 O277 2.386 1_556 S
Gd238 O281 2.307 1_556 S
Gd238 C291 2.805 . S
Gd239 N234 2.622 . S
Gd239 N240 2.570 . S
Gd239 O271 2.386 1_554 S
Gd239 O275 2.307 . S
Gd239 O278 2.353 . S
Gd239 O279 2.468 . S
Gd239 O280 2.427 . S
Gd239 O282 2.388 . S
Gd239 C303 2.805 . S
N240 C230 1.359 . S
N240 Gd239 2.570 . S
N240 C242 1.343 . S
C241 C229 1.422 . S
C241 C243 1.321 . S
C241 H249 0.931 . S
C242 N240 1.343 . S
C242 C243 1.390 . S
C242 H244 0.931 . S
C243 C241 1.321 . S
C243 C242 1.390 . S
C243 H245 0.930 . S
H244 C242 0.931 . S
H245 C243 0.930 . S
H246 C269 0.931 . S
H247 C235 0.929 . S
H248 C270 0.930 . S
H249 C241 0.931 . S
H250 C231 0.930 . S
H251 C260 0.929 . S
H252 C236 0.931 . S
H253 C237 0.930 . S
H254 C292 0.930 . S
H255 C233 0.929 . S
H256 C261 0.931 . S
H257 C262 0.930 . S
N258 Gd238 2.622 . S
N258 C259 1.369 1_556 S
N258 C260 1.338 . S
C259 N258 1.369 1_554 S
C259 C263 1.415 . S
C259 C266 1.422 . S
C260 H251 0.929 . S
C260 N258 1.338 . S
C260 C262 1.378 . S
C261 H256 0.931 . S
C261 C262 1.348 1_554 S
C261 C263 1.413 . S
C262 H257 0.930 . S
C262 C260 1.378 . S
C262 C261 1.348 1_556 S
C263 C259 1.415 . S
C263 C261 1.413 . S
C263 C293 1.437 . S
H264 C293 0.929 . S
N265 Gd238 2.570 1_554 S
N265 C266 1.359 . S
N265 C269 1.343 . S
C266 C259 1.422 . S
C266 N265 1.359 . S
C266 C268 1.421 . S
C267 C268 1.422 . S
C267 C270 1.321 . S
C267 H294 0.931 . S
C268 C266 1.421 . S
C268 C267 1.422 . S
C268 C292 1.417 . S
C269 H246 0.931 . S
C269 N265 1.343 . S
C269 C270 1.390 . S
C270 H248 0.930 . S
C270 C267 1.321 . S
C270 C269 1.390 . S
O271 Gd239 2.386 1_556 S
O271 C283 1.265 . S
O272 Gd238 2.353 . S
O272 C283 1.242 . S
O273 Gd238 2.468 . S
O273 C291 1.263 . S
O274 Gd238 2.427 . S
O274 C291 1.252 . S
O275 Gd239 2.307 . S
O275 C284 1.261 . S
O276 Gd238 2.388 . S
O276 C284 1.252 1_556 S
O277 Gd238 2.386 1_554 S
O277 C295 1.265 . S
O278 Gd239 2.353 . S
O278 C295 1.242 . S
O279 Gd239 2.468 . S
O279 C303 1.263 . S
O280 Gd239 2.427 . S
O280 C303 1.252 . S
O281 Gd238 2.307 1_554 S
O281 C296 1.261 . S
O282 Gd239 2.388 . S
O282 C296 1.252 . S
C283 O271 1.265 . S
C283 O272 1.242 . S
C284 O275 1.261 . S
C284 O276 1.252 1_554 S
C285 C288 1.394 . S
C285 C290 1.370 . S
C285 C291 1.500 . S
C286 C289 1.383 . S
C286 C290 1.395 . S
C287 C288 1.396 . S
C287 C289 1.365 . S
C287 H304 0.929 . S
C288 C285 1.394 . S
C288 C287 1.396 . S
C288 H305 0.930 . S
C289 C286 1.383 . S
C289 C287 1.365 . S
C289 H306 0.931 . S
C290 C285 1.370 . S
C290 C286 1.395 . S
C290 H307 0.930 . S
C291 Gd238 2.805 . S
C291 O273 1.263 . S
C291 O274 1.252 . S
C291 C285 1.500 . S
C292 H254 0.930 . S
C292 C268 1.417 . S
C292 C293 1.329 . S
C293 C263 1.437 . S
C293 H264 0.929 . S
C293 C292 1.329 . S
H294 C267 0.931 . S
C295 O277 1.265 . S
C295 O278 1.242 . S
C296 O281 1.261 . S
C296 O282 1.252 . S
C297 C300 1.394 . S
C297 C302 1.370 . S
C297 C303 1.500 . S
C298 C301 1.383 . S
C298 C302 1.395 . S
C299 C300 1.396 . S
C299 C301 1.365 . S
C299 H308 0.929 . S
C300 C297 1.394 . S
C300 C299 1.396 . S
C300 H309 0.930 . S
C301 C298 1.383 . S
C301 C299 1.365 . S
C301 H310 0.931 . S
C302 C297 1.370 . S
C302 C298 1.395 . S
C302 H311 0.930 . S
C303 Gd239 2.805 . S
C303 O279 1.263 . S
C303 O280 1.252 . S
C303 C297 1.500 . S
H304 C287 0.929 . S
H305 C288 0.930 . S
H306 C289 0.931 . S
H307 C290 0.930 . S
H308 C299 0.929 . S
H309 C300 0.930 . S
H310 C301 0.931 . S
H311 C302 0.930 . S
H312 C330 0.951 . S
H313 C332 0.951 . S
H314 C334 0.950 . S
H315 C335 0.950 . S
H316 C337 0.950 . S
H317 C340 0.950 . S
H318 C341 0.950 . S
H319 C343 0.950 . S
H320 C344 0.950 . S
H321 C345 0.951 . S
H322 C347 0.951 . S
H323 C349 0.950 . S
H324 C350 0.950 . S
H325 C352 0.950 . S
H326 C355 0.950 . S
H327 C356 0.950 . S
H328 C358 0.950 . S
H329 C359 0.950 . S
C330 H312 0.951 . S
C330 C331 1.366 . S
C330 C332 1.388 . S
C331 C330 1.366 . S
C331 C335 1.385 . S
C332 H313 0.951 . S
C332 C330 1.388 . S
C332 C333 1.366 . S
C333 C332 1.366 . S
C333 C334 1.414 . S
C333 C336 1.499 . S
C334 H314 0.950 . S
C334 C333 1.414 . S
C334 C335 1.374 . S
C335 H315 0.950 . S
C335 C331 1.385 . S
C335 C334 1.374 . S
C336 C333 1.499 . S
C336 C337 1.373 . S
C336 C338 1.389 . S
C337 H316 0.950 . S
C337 C336 1.373 . S
C337 C353 1.377 . S
C338 C336 1.389 . S
C338 C339 1.524 . S
C338 C352 1.377 . S
C339 C338 1.524 . S
C339 C340 1.397 . S
C339 C344 1.363 . S
C340 H317 0.950 . S
C340 C339 1.397 . S
C340 C341 1.334 . S
C341 H318 0.950 . S
C341 C340 1.334 . S
C341 C342 1.287 . S
C342 C341 1.287 . S
C342 C343 1.524 . S
C342 H361 0.913 . S
C343 H319 0.950 . S
C343 C342 1.524 . S
C343 C344 1.415 . S
C344 H320 0.950 . S
C344 C339 1.363 . S
C344 C343 1.415 . S
C345 H321 0.951 . S
C345 C346 1.366 . S
C345 C347 1.388 . S
C346 C345 1.366 . S
C346 C350 1.385 . S
C347 H322 0.951 . S
C347 C345 1.388 . S
C347 C348 1.366 . S
C348 C347 1.366 . S
C348 C349 1.414 . S
C348 C351 1.499 . S
C349 H323 0.950 . S
C349 C348 1.414 . S
C349 C350 1.374 . S
C350 H324 0.950 . S
C350 C346 1.385 . S
C350 C349 1.374 . S
C351 C348 1.499 . S
C351 C352 1.373 . S
C351 C353 1.389 . S
C352 H325 0.950 . S
C352 C338 1.377 . S
C352 C351 1.373 . S
C353 C337 1.377 . S
C353 C351 1.389 . S
C353 C354 1.524 . S
C354 C353 1.524 . S
C354 C355 1.397 . S
C354 C359 1.363 . S
C355 H326 0.950 . S
C355 C354 1.397 . S
C355 C356 1.334 . S
C356 H327 0.950 . S
C356 C355 1.334 . S
C356 C357 1.287 . S
C357 C356 1.287 . S
C357 C358 1.524 . S
C357 H360 0.999 . S
C358 H328 0.950 . S
C358 C357 1.524 . S
C358 C359 1.415 . S
C359 H329 0.950 . S
C359 C354 1.363 . S
C359 C358 1.415 . S
H360 C357 0.999 . S
H361 C342 0.913 . S
H362 C380 0.951 . S
H363 C382 0.951 . S
H364 C384 0.950 1_556 S
H365 C385 0.950 1_556 S
H366 C387 0.950 . S
H367 C390 0.950 . S
H368 C391 0.950 . S
H369 C393 0.950 . S
H370 C394 0.950 . S
H371 C395 0.951 . S
H372 C397 0.964 . S
H373 C399 0.950 . S
H374 C400 0.950 . S
H375 C402 0.950 . S
H376 C405 0.950 . S
H377 C406 0.950 . S
H378 C408 0.950 . S
H379 C409 0.950 . S
C380 H362 0.951 . S
C380 C381 1.366 . S
C380 C382 1.388 . S
C381 C380 1.366 . S
C381 C385 1.385 . S
C382 H363 0.951 . S
C382 C380 1.388 . S
C382 C383 1.366 . S
C383 C382 1.366 . S
C383 C384 1.414 . S
C383 C386 1.499 . S
C384 H364 0.950 1_554 S
C384 C383 1.414 . S
C384 C385 1.374 . S
C385 H365 0.950 1_554 S
C385 C381 1.385 . S
C385 C384 1.374 . S
C386 C383 1.499 . S
C386 C387 1.373 . S
C386 C388 1.389 . S
C387 H366 0.950 . S
C387 C386 1.373 . S
C387 C403 1.377 . S
C388 C386 1.389 . S
C388 C389 1.524 . S
C388 C402 1.377 . S
C389 C388 1.524 . S
C389 C390 1.397 . S
C389 C394 1.363 . S
C390 H367 0.950 . S
C390 C389 1.397 . S
C390 C391 1.334 . S
C391 H368 0.950 . S
C391 C390 1.334 . S
C391 C392 1.287 . S
C392 C391 1.287 . S
C392 C393 1.524 . S
C392 H411 0.913 . S
C393 H369 0.950 . S
C393 C392 1.524 . S
C393 C394 1.415 . S
C394 H370 0.950 . S
C394 C389 1.363 . S
C394 C393 1.415 . S
C395 H371 0.951 . S
C395 C396 1.366 1_556 S
C395 C397 1.393 . S
C396 C395 1.366 1_554 S
C396 C400 1.385 . S
C397 H372 0.964 . S
C397 C395 1.393 . S
C397 C398 1.348 1_556 S
C398 C397 1.348 1_554 S
C398 C399 1.414 . S
C398 C401 1.499 . S
C399 H373 0.950 . S
C399 C398 1.414 . S
C399 C400 1.374 . S
C400 H374 0.950 . S
C400 C396 1.385 . S
C400 C399 1.374 . S
C401 C398 1.499 . S
C401 C402 1.373 . S
C401 C403 1.389 . S
C402 H375 0.950 . S
C402 C388 1.377 . S
C402 C401 1.373 . S
C403 C387 1.377 . S
C403 C401 1.389 . S
C403 C404 1.524 . S
C404 C403 1.524 . S
C404 C405 1.397 . S
C404 C409 1.363 1_554 S
C405 H376 0.950 . S
C405 C404 1.397 . S
C405 C406 1.334 . S
C406 H377 0.950 . S
C406 C405 1.334 . S
C406 C407 1.287 1_554 S
C407 C406 1.287 1_556 S
C407 C408 1.524 . S
C407 H410 0.999 . S
C408 H378 0.950 . S
C408 C407 1.524 . S
C408 C409 1.415 . S
C409 H379 0.950 . S
C409 C404 1.363 1_556 S
C409 C408 1.415 . S
H410 C407 0.999 . S
H411 C392 0.913 . S
H412 C430 0.951 . S
H413 C432 0.951 . S
H414 C434 0.950 . S
H415 C435 0.950 . S
H416 C437 0.950 . S
H417 C440 0.950 . S
H418 C441 0.950 . S
H419 C443 0.950 . S
H420 C444 0.950 . S
H421 C445 0.951 . S
H422 C447 0.951 . S
H423 C449 0.950 . S
H424 C450 0.950 . S
H425 C452 0.950 . S
H426 C455 0.950 . S
H427 C456 0.950 . S
H428 C458 0.950 . S
H429 C459 0.950 . S
C430 H412 0.951 . S
C430 C431 1.366 . S
C430 C432 1.388 . S
C431 C430 1.366 . S
C431 C435 1.385 . S
C432 H413 0.951 . S
C432 C430 1.388 . S
C432 C433 1.366 . S
C433 C432 1.366 . S
C433 C434 1.414 . S
C433 C436 1.499 . S
C434 H414 0.950 . S
C434 C433 1.414 . S
C434 C435 1.374 . S
C435 H415 0.950 . S
C435 C431 1.385 . S
C435 C434 1.374 . S
C436 C433 1.499 . S
C436 C437 1.373 . S
C436 C438 1.389 . S
C437 H416 0.950 . S
C437 C436 1.373 . S
C437 C453 1.377 . S
C438 C436 1.389 . S
C438 C439 1.524 . S
C438 C452 1.377 . S
C439 C438 1.524 . S
C439 C440 1.397 . S
C439 C444 1.363 . S
C440 H417 0.950 . S
C440 C439 1.397 . S
C440 C441 1.334 . S
C441 H418 0.950 . S
C441 C440 1.334 . S
C441 C442 1.287 . S
C442 C441 1.287 . S
C442 C443 1.524 . S
C442 H461 0.913 . S
C443 H419 0.950 . S
C443 C442 1.524 . S
C443 C444 1.415 . S
C444 H420 0.950 . S
C444 C439 1.363 . S
C444 C443 1.415 . S
C445 H421 0.951 . S
C445 C446 1.366 . S
C445 C447 1.388 . S
C446 C445 1.366 . S
C446 C450 1.385 . S
C447 H422 0.951 . S
C447 C445 1.388 . S
C447 C448 1.366 . S
C448 C447 1.366 . S
C448 C449 1.414 . S
C448 C451 1.499 . S
C449 H423 0.950 . S
C449 C448 1.414 . S
C449 C450 1.374 . S
C450 H424 0.950 . S
C450 C446 1.385 . S
C450 C449 1.374 . S
C451 C448 1.499 . S
C451 C452 1.373 . S
C451 C453 1.389 . S
C452 H425 0.950 . S
C452 C438 1.377 . S
C452 C451 1.373 . S
C453 C437 1.377 . S
C453 C451 1.389 . S
C453 C454 1.524 . S
C454 C453 1.524 . S
C454 C455 1.397 . S
C454 C459 1.363 . S
C455 H426 0.950 . S
C455 C454 1.397 . S
C455 C456 1.334 . S
C456 H427 0.950 . S
C456 C455 1.334 . S
C456 C457 1.287 . S
C457 C456 1.287 . S
C457 C458 1.524 . S
C457 H460 0.999 . S
C458 H428 0.950 . S
C458 C457 1.524 . S
C458 C459 1.415 . S
C459 H429 0.950 . S
C459 C454 1.363 . S
C459 C458 1.415 . S
H460 C457 0.999 . S
H461 C442 0.913 . S
H462 C480 0.936 1_556 S
H463 C482 0.951 1_556 S
H464 C484 0.950 . S
H465 C485 0.950 . S
H466 C487 0.950 . S
H467 C490 0.950 . S
H468 C491 0.950 . S
H469 C493 0.950 . S
H470 C494 0.950 . S
H471 C495 0.951 . S
H472 C497 0.951 . S
H473 C499 0.950 . S
H474 C500 0.950 . S
H475 C502 0.950 . S
H476 C505 0.950 . S
H477 C506 0.950 . S
H478 C508 0.950 . S
H479 C509 0.950 . S
C480 H462 0.936 1_554 S
C480 C481 1.372 . S
C480 C482 1.398 . S
C481 C480 1.372 . S
C481 C485 1.385 . S
C482 H463 0.951 1_554 S
C482 C480 1.398 . S
C482 C483 1.366 . S
C483 C482 1.366 . S
C483 C484 1.414 . S
C483 C486 1.499 . S
C484 H464 0.950 . S
C484 C483 1.414 . S
C484 C485 1.374 . S
C485 H465 0.950 . S
C485 C481 1.385 . S
C485 C484 1.374 . S
C486 C483 1.499 . S
C486 C487 1.373 1_554 S
C486 C488 1.389 . S
C487 H466 0.950 . S
C487 C486 1.373 1_556 S
C487 C503 1.377 . S
C488 C486 1.389 . S
C488 C489 1.524 . S
C488 C502 1.377 . S
C489 C488 1.524 . S
C489 C490 1.397 . S
C489 C494 1.363 . S
C490 H467 0.950 . S
C490 C489 1.397 . S
C490 C491 1.334 . S
C491 H468 0.950 . S
C491 C490 1.334 . S
C491 C492 1.287 . S
C492 C491 1.287 . S
C492 C493 1.524 . S
C492 H511 0.913 . S
C493 H469 0.950 . S
C493 C492 1.524 . S
C493 C494 1.415 . S
C494 H470 0.950 . S
C494 C489 1.363 . S
C494 C493 1.415 . S
C495 H471 0.951 . S
C495 C496 1.366 . S
C495 C497 1.388 . S
C496 C495 1.366 . S
C496 C500 1.385 . S
C497 H472 0.951 . S
C497 C495 1.388 . S
C497 C498 1.366 . S
C498 C497 1.366 . S
C498 C499 1.414 . S
C498 C501 1.499 . S
C499 H473 0.950 . S
C499 C498 1.414 . S
C499 C500 1.374 . S
C500 H474 0.950 . S
C500 C496 1.385 . S
C500 C499 1.374 . S
C501 C498 1.499 . S
C501 C502 1.373 . S
C501 C503 1.389 1_554 S
C502 H475 0.950 . S
C502 C488 1.377 . S
C502 C501 1.373 . S
C503 C487 1.377 . S
C503 C501 1.389 1_556 S
C503 C504 1.524 . S
C504 C503 1.524 . S
C504 C505 1.397 . S
C504 C509 1.363 . S
C505 H476 0.950 . S
C505 C504 1.397 . S
C505 C506 1.334 . S
C506 H477 0.950 . S
C506 C505 1.334 . S
C506 C507 1.287 . S
C507 C506 1.287 . S
C507 C508 1.524 . S
C507 H510 0.999 . S
C508 H478 0.950 . S
C508 C507 1.524 . S
C508 C509 1.415 . S
C509 H479 0.950 . S
C509 C504 1.363 . S
C509 C508 1.415 . S
H510 C507 0.999 . S
H511 C492 0.913 . S
H512 C530 0.951 . S
H513 C532 0.951 . S
H514 C534 0.950 . S
H515 C535 0.950 . S
H516 C537 0.950 . S
H517 C540 0.950 . S
H518 C541 0.950 . S
H519 C543 0.950 . S
H520 C544 0.950 . S
H521 C545 0.951 . S
H522 C547 0.951 . S
H523 C549 0.950 . S
H524 C550 0.950 . S
H525 C552 0.950 . S
H526 C555 0.950 . S
H527 C556 0.950 . S
H528 C558 0.950 . S
H529 C559 0.950 . S
C530 H512 0.951 . S
C530 C531 1.366 . S
C530 C532 1.388 . S
C531 C530 1.366 . S
C531 C535 1.385 . S
C532 H513 0.951 . S
C532 C530 1.388 . S
C532 C533 1.366 . S
C533 C532 1.366 . S
C533 C534 1.414 . S
C533 C536 1.499 . S
C534 H514 0.950 . S
C534 C533 1.414 . S
C534 C535 1.374 . S
C535 H515 0.950 . S
C535 C531 1.385 . S
C535 C534 1.374 . S
C536 C533 1.499 . S
C536 C537 1.373 . S
C536 C538 1.389 . S
C537 H516 0.950 . S
C537 C536 1.373 . S
C537 C553 1.377 . S
C538 C536 1.389 . S
C538 C539 1.524 . S
C538 C552 1.377 . S
C539 C538 1.524 . S
C539 C540 1.397 . S
C539 C544 1.363 . S
C540 H517 0.950 . S
C540 C539 1.397 . S
C540 C541 1.334 . S
C541 H518 0.950 . S
C541 C540 1.334 . S
C541 C542 1.287 . S
C542 C541 1.287 . S
C542 C543 1.524 . S
C542 H561 0.913 . S
C543 H519 0.950 . S
C543 C542 1.524 . S
C543 C544 1.415 . S
C544 H520 0.950 . S
C544 C539 1.363 . S
C544 C543 1.415 . S
C545 H521 0.951 . S
C545 C546 1.366 . S
C545 C547 1.388 . S
C546 C545 1.366 . S
C546 C550 1.385 . S
C547 H522 0.951 . S
C547 C545 1.388 . S
C547 C548 1.366 . S
C548 C547 1.366 . S
C548 C549 1.414 . S
C548 C551 1.499 . S
C549 H523 0.950 . S
C549 C548 1.414 . S
C549 C550 1.374 . S
C550 H524 0.950 . S
C550 C546 1.385 . S
C550 C549 1.374 . S
C551 C548 1.499 . S
C551 C552 1.373 . S
C551 C553 1.389 . S
C552 H525 0.950 . S
C552 C538 1.377 . S
C552 C551 1.373 . S
C553 C537 1.377 . S
C553 C551 1.389 . S
C553 C554 1.524 . S
C554 C553 1.524 . S
C554 C555 1.397 1_565 S
C554 C559 1.363 . S
C555 H526 0.950 . S
C555 C554 1.397 1_545 S
C555 C556 1.334 . S
C556 H527 0.950 . S
C556 C555 1.334 . S
C556 C557 1.287 . S
C557 C556 1.287 . S
C557 C558 1.524 . S
C557 H560 0.999 . S
C558 H528 0.950 . S
C558 C557 1.524 . S
C558 C559 1.415 1_545 S
C559 H529 0.950 . S
C559 C554 1.363 . S
C559 C558 1.415 1_565 S
H560 C557 0.999 . S
H561 C542 0.913 . S
H562 C580 0.951 . S
H563 C582 0.951 . S
H564 C584 0.950 . S
H565 C585 0.950 . S
H566 C587 0.950 . S
H567 C590 0.950 . S
H568 C591 0.950 . S
H569 C593 0.950 . S
H570 C594 0.950 . S
H571 C595 0.951 . S
H572 C597 0.951 . S
H573 C599 0.950 . S
H574 C600 0.950 . S
H575 C602 0.950 . S
H576 C605 0.950 . S
H577 C606 0.950 . S
H578 C608 0.950 . S
H579 C609 0.950 . S
C580 H562 0.951 . S
C580 C581 1.366 . S
C580 C582 1.388 . S
C581 C580 1.366 . S
C581 C585 1.385 . S
C582 H563 0.951 . S
C582 C580 1.388 . S
C582 C583 1.366 . S
C583 C582 1.366 . S
C583 C584 1.414 . S
C583 C586 1.499 . S
C584 H564 0.950 . S
C584 C583 1.414 . S
C584 C585 1.374 . S
C585 H565 0.950 . S
C585 C581 1.385 . S
C585 C584 1.374 . S
C586 C583 1.499 . S
C586 C587 1.373 . S
C586 C588 1.389 . S
C587 H566 0.950 . S
C587 C586 1.373 . S
C587 C603 1.377 . S
C588 C586 1.389 . S
C588 C589 1.524 . S
C588 C602 1.377 . S
C589 C588 1.524 . S
C589 C590 1.397 . S
C589 C594 1.363 . S
C590 H567 0.950 . S
C590 C589 1.397 . S
C590 C591 1.334 . S
C591 H568 0.950 . S
C591 C590 1.334 . S
C591 C592 1.287 . S
C592 C591 1.287 . S
C592 C593 1.524 . S
C592 H611 0.913 . S
C593 H569 0.950 . S
C593 C592 1.524 . S
C593 C594 1.415 . S
C594 H570 0.950 . S
C594 C589 1.363 . S
C594 C593 1.415 . S
C595 H571 0.951 . S
C595 C596 1.366 . S
C595 C597 1.388 . S
C596 C595 1.366 . S
C596 C600 1.385 . S
C597 H572 0.951 . S
C597 C595 1.388 . S
C597 C598 1.366 . S
C598 C597 1.366 . S
C598 C599 1.414 . S
C598 C601 1.499 . S
C599 H573 0.950 . S
C599 C598 1.414 . S
C599 C600 1.374 . S
C600 H574 0.950 . S
C600 C596 1.385 . S
C600 C599 1.374 . S
C601 C598 1.499 . S
C601 C602 1.373 . S
C601 C603 1.389 . S
C602 H575 0.950 . S
C602 C588 1.377 . S
C602 C601 1.373 . S
C603 C587 1.377 . S
C603 C601 1.389 . S
C603 C604 1.524 . S
C604 C603 1.524 . S
C604 C605 1.397 . S
C604 C609 1.363 . S
C605 H576 0.950 . S
C605 C604 1.397 . S
C605 C606 1.334 . S
C606 H577 0.950 . S
C606 C605 1.334 . S
C606 C607 1.287 . S
C607 C606 1.287 . S
C607 C608 1.524 . S
C607 H610 0.999 . S
C608 H578 0.950 . S
C608 C607 1.524 . S
C608 C609 1.415 . S
C609 H579 0.950 . S
C609 C604 1.363 . S
C609 C608 1.415 . S
H610 C607 0.999 . S
H611 C592 0.913 . S
H612 C630 0.951 . S
H613 C632 0.951 . S
H614 C634 0.950 . S
H615 C635 0.950 . S
H616 C637 0.950 . S
H617 C640 0.950 . S
H618 C641 0.950 . S
H619 C643 0.950 . S
H620 C644 0.950 . S
H621 C645 0.951 . S
H622 C647 0.951 . S
H623 C649 0.950 . S
H624 C650 0.950 1_565 S
H625 C652 0.950 . S
H626 C655 0.950 . S
H627 C656 0.950 1_455 S
H628 C658 0.950 1_455 S
H629 C659 0.950 . S
C630 H612 0.951 . S
C630 C631 1.366 . S
C630 C632 1.388 . S
C631 C630 1.366 . S
C631 C635 1.385 . S
C632 H613 0.951 . S
C632 C630 1.388 . S
C632 C633 1.366 . S
C633 C632 1.366 . S
C633 C634 1.414 . S
C633 C636 1.499 . S
C634 H614 0.950 . S
C634 C633 1.414 . S
C634 C635 1.374 . S
C635 H615 0.950 . S
C635 C631 1.385 . S
C635 C634 1.374 . S
C636 C633 1.499 . S
C636 C637 1.373 . S
C636 C638 1.389 . S
C637 H616 0.950 . S
C637 C636 1.373 . S
C637 C653 1.377 . S
C638 C636 1.389 . S
C638 C639 1.524 . S
C638 C652 1.377 . S
C639 C638 1.524 . S
C639 C640 1.397 . S
C639 C644 1.363 . S
C640 H617 0.950 . S
C640 C639 1.397 . S
C640 C641 1.334 . S
C641 H618 0.950 . S
C641 C640 1.334 . S
C641 C642 1.287 . S
C642 C641 1.287 . S
C642 C643 1.524 . S
C642 H661 0.913 . S
C643 H619 0.950 . S
C643 C642 1.524 . S
C643 C644 1.415 . S
C644 H620 0.950 . S
C644 C639 1.363 . S
C644 C643 1.415 . S
C645 H621 0.951 . S
C645 C646 1.366 . S
C645 C647 1.388 . S
C646 C645 1.366 . S
C646 C650 1.385 . S
C647 H622 0.951 . S
C647 C645 1.388 . S
C647 C648 1.366 . S
C648 C647 1.366 . S
C648 C649 1.414 . S
C648 C651 1.499 . S
C649 H623 0.950 . S
C649 C648 1.414 . S
C649 C650 1.374 . S
C650 H624 0.950 1_545 S
C650 C646 1.385 . S
C650 C649 1.374 . S
C651 C648 1.499 . S
C651 C652 1.373 . S
C651 C653 1.389 . S
C652 H625 0.950 . S
C652 C638 1.377 . S
C652 C651 1.373 . S
C653 C637 1.377 . S
C653 C651 1.389 . S
C653 C654 1.524 . S
C654 C653 1.524 . S
C654 C655 1.397 . S
C654 C659 1.363 . S
C655 H626 0.950 . S
C655 C654 1.397 . S
C655 C656 1.334 . S
C656 H627 0.950 1_655 S
C656 C655 1.334 . S
C656 C657 1.287 1_655 S
C657 C656 1.287 1_455 S
C657 C658 1.524 1_455 S
C657 H660 0.999 . S
C658 H628 0.950 1_655 S
C658 C657 1.524 1_655 S
C658 C659 1.415 . S
C659 H629 0.950 . S
C659 C654 1.363 . S
C659 C658 1.415 . S
H660 C657 0.999 . S
H661 C642 0.913 . S
H662 C680 0.951 . S
H663 C682 0.951 . S
H664 C684 0.950 . S
H665 C685 0.950 . S
H666 C687 0.950 . S
H667 C690 0.950 . S
H668 C691 0.950 . S
H669 C693 0.950 . S
H670 C694 0.950 . S
H671 C695 0.951 . S
H672 C697 0.951 . S
H673 C699 0.950 . S
H674 C700 0.950 . S
H675 C702 0.950 . S
H676 C705 0.950 . S
H677 C706 0.950 . S
H678 C708 0.950 . S
H679 C709 0.950 . S
C680 H662 0.951 . S
C680 C681 1.366 . S
C680 C682 1.388 . S
C681 C680 1.366 . S
C681 C685 1.385 . S
C682 H663 0.951 . S
C682 C680 1.388 . S
C682 C683 1.366 . S
C683 C682 1.366 . S
C683 C684 1.414 . S
C683 C686 1.499 . S
C684 H664 0.950 . S
C684 C683 1.414 . S
C684 C685 1.374 . S
C685 H665 0.950 . S
C685 C681 1.385 . S
C685 C684 1.374 . S
C686 C683 1.499 . S
C686 C687 1.373 . S
C686 C688 1.389 . S
C687 H666 0.950 . S
C687 C686 1.373 . S
C687 C703 1.377 . S
C688 C686 1.389 . S
C688 C689 1.524 . S
C688 C702 1.377 . S
C689 C688 1.524 . S
C689 C690 1.397 . S
C689 C694 1.363 . S
C690 H667 0.950 . S
C690 C689 1.397 . S
C690 C691 1.334 . S
C691 H668 0.950 . S
C691 C690 1.334 . S
C691 C692 1.287 . S
C692 C691 1.287 . S
C692 C693 1.524 . S
C692 H711 0.913 . S
C693 H669 0.950 . S
C693 C692 1.524 . S
C693 C694 1.415 . S
C694 H670 0.950 . S
C694 C689 1.363 . S
C694 C693 1.415 . S
C695 H671 0.951 . S
C695 C696 1.366 . S
C695 C697 1.388 . S
C696 C695 1.366 . S
C696 C700 1.385 . S
C697 H672 0.951 . S
C697 C695 1.388 . S
C697 C698 1.366 . S
C698 C697 1.366 . S
C698 C699 1.414 . S
C698 C701 1.499 . S
C699 H673 0.950 . S
C699 C698 1.414 . S
C699 C700 1.374 . S
C700 H674 0.950 . S
C700 C696 1.385 . S
C700 C699 1.374 . S
C701 C698 1.499 . S
C701 C702 1.373 . S
C701 C703 1.389 . S
C702 H675 0.950 . S
C702 C688 1.377 . S
C702 C701 1.373 . S
C703 C687 1.377 . S
C703 C701 1.389 . S
C703 C704 1.524 . S
C704 C703 1.524 . S
C704 C705 1.397 . S
C704 C709 1.363 . S
C705 H676 0.950 . S
C705 C704 1.397 . S
C705 C706 1.334 . S
C706 H677 0.950 . S
C706 C705 1.334 . S
C706 C707 1.287 . S
C707 C706 1.287 . S
C707 C708 1.524 . S
C707 H710 0.999 . S
C708 H678 0.950 . S
C708 C707 1.524 . S
C708 C709 1.415 . S
C709 H679 0.950 . S
C709 C704 1.363 . S
C709 C708 1.415 . S
H710 C707 0.999 . S
H711 C692 0.913 . S
H712 C730 0.951 . S
H713 C732 0.951 . S
H714 C734 0.950 . S
H715 C735 0.950 . S
H716 C737 0.950 . S
H717 C740 0.950 . S
H718 C741 0.950 . S
H719 C743 0.950 . S
H720 C744 0.950 . S
H721 C745 0.951 . S
H722 C747 0.951 . S
H723 C749 0.950 . S
H724 C750 0.950 . S
H725 C752 0.950 . S
H726 C755 0.950 . S
H727 C756 0.950 . S
H728 C758 0.950 . S
H729 C759 0.950 . S
C730 H712 0.951 . S
C730 C731 1.366 . S
C730 C732 1.388 . S
C731 C730 1.366 . S
C731 C735 1.385 . S
C732 H713 0.951 . S
C732 C730 1.388 . S
C732 C733 1.366 . S
C733 C732 1.366 . S
C733 C734 1.414 . S
C733 C736 1.499 . S
C734 H714 0.950 . S
C734 C733 1.414 . S
C734 C735 1.374 . S
C735 H715 0.950 . S
C735 C731 1.385 . S
C735 C734 1.374 . S
C736 C733 1.499 . S
C736 C737 1.373 . S
C736 C738 1.389 . S
C737 H716 0.950 . S
C737 C736 1.373 . S
C737 C753 1.377 . S
C738 C736 1.389 . S
C738 C739 1.524 . S
C738 C752 1.377 . S
C739 C738 1.524 . S
C739 C740 1.397 . S
C739 C744 1.363 . S
C740 H717 0.950 . S
C740 C739 1.397 . S
C740 C741 1.334 . S
C741 H718 0.950 . S
C741 C740 1.334 . S
C741 C742 1.287 . S
C742 C741 1.287 . S
C742 C743 1.524 . S
C742 H761 0.913 . S
C743 H719 0.950 . S
C743 C742 1.524 . S
C743 C744 1.415 . S
C744 H720 0.950 . S
C744 C739 1.363 . S
C744 C743 1.415 . S
C745 H721 0.951 . S
C745 C746 1.366 . S
C745 C747 1.388 . S
C746 C745 1.366 . S
C746 C750 1.385 . S
C747 H722 0.951 . S
C747 C745 1.388 . S
C747 C748 1.366 . S
C748 C747 1.366 . S
C748 C749 1.414 . S
C748 C751 1.499 . S
C749 H723 0.950 . S
C749 C748 1.414 . S
C749 C750 1.374 . S
C750 H724 0.950 . S
C750 C746 1.385 . S
C750 C749 1.374 . S
C751 C748 1.499 . S
C751 C752 1.373 . S
C751 C753 1.389 . S
C752 H725 0.950 . S
C752 C738 1.377 . S
C752 C751 1.373 . S
C753 C737 1.377 . S
C753 C751 1.389 . S
C753 C754 1.524 . S
C754 C753 1.524 . S
C754 C755 1.397 . S
C754 C759 1.363 . S
C755 H726 0.950 . S
C755 C754 1.397 . S
C755 C756 1.334 . S
C756 H727 0.950 . S
C756 C755 1.334 . S
C756 C757 1.287 . S
C757 C756 1.287 . S
C757 C758 1.524 . S
C757 H760 0.999 . S
C758 H728 0.950 . S
C758 C757 1.524 . S
C758 C759 1.415 . S
C759 H729 0.950 . S
C759 C754 1.363 . S
C759 C758 1.415 . S
H760 C757 0.999 . S
H761 C742 0.913 . S
H762 C780 0.951 . S
H763 C782 0.951 . S
H764 C784 0.950 . S
H765 C785 0.950 . S
H766 C787 0.950 . S
H767 C790 0.950 . S
H768 C791 0.950 . S
H769 C793 0.950 . S
H770 C794 0.950 . S
H771 C795 0.951 . S
H772 C797 0.951 . S
H773 C799 0.950 . S
H774 C800 0.950 . S
H775 C802 0.950 . S
H776 C805 0.950 1_565 S
H777 C806 0.950 . S
H778 C808 0.950 . S
H779 C809 0.950 . S
C780 H762 0.951 . S
C780 C781 1.366 . S
C780 C782 1.388 . S
C781 C780 1.366 . S
C781 C785 1.385 . S
C782 H763 0.951 . S
C782 C780 1.388 . S
C782 C783 1.366 . S
C783 C782 1.366 . S
C783 C784 1.414 . S
C783 C786 1.499 . S
C784 H764 0.950 . S
C784 C783 1.414 . S
C784 C785 1.374 . S
C785 H765 0.950 . S
C785 C781 1.385 . S
C785 C784 1.374 . S
C786 C783 1.499 . S
C786 C787 1.373 . S
C786 C788 1.389 . S
C787 H766 0.950 . S
C787 C786 1.373 . S
C787 C803 1.377 . S
C788 C786 1.389 . S
C788 C789 1.524 . S
C788 C802 1.377 . S
C789 C788 1.524 . S
C789 C790 1.397 . S
C789 C794 1.363 . S
C790 H767 0.950 . S
C790 C789 1.397 . S
C790 C791 1.334 . S
C791 H768 0.950 . S
C791 C790 1.334 . S
C791 C792 1.287 . S
C792 C791 1.287 . S
C792 C793 1.524 . S
C792 H811 0.913 . S
C793 H769 0.950 . S
C793 C792 1.524 . S
C793 C794 1.415 . S
C794 H770 0.950 . S
C794 C789 1.363 . S
C794 C793 1.415 . S
C795 H771 0.951 . S
C795 C796 1.366 . S
C795 C797 1.388 . S
C796 C795 1.366 . S
C796 C800 1.385 . S
C797 H772 0.951 . S
C797 C795 1.388 . S
C797 C798 1.366 . S
C798 C797 1.366 . S
C798 C799 1.414 . S
C798 C801 1.499 . S
C799 H773 0.950 . S
C799 C798 1.414 . S
C799 C800 1.374 . S
C800 H774 0.950 . S
C800 C796 1.385 . S
C800 C799 1.374 . S
C801 C798 1.499 . S
C801 C802 1.373 . S
C801 C803 1.389 . S
C802 H775 0.950 . S
C802 C788 1.377 . S
C802 C801 1.373 . S
C803 C787 1.377 . S
C803 C801 1.389 . S
C803 C804 1.524 . S
C804 C803 1.524 . S
C804 C805 1.403 . S
C804 C809 1.363 . S
C805 H776 0.950 1_545 S
C805 C804 1.403 . S
C805 C806 1.327 1_545 S
C806 H777 0.950 . S
C806 C805 1.327 1_565 S
C806 C807 1.287 . S
C807 C806 1.287 . S
C807 C808 1.524 1_565 S
C807 H810 0.999 . S
C808 H778 0.950 . S
C808 C807 1.524 1_545 S
C808 C809 1.415 . S
C809 H779 0.950 . S
C809 C804 1.363 . S
C809 C808 1.415 . S
H810 C807 0.999 . S
H811 C792 0.913 . S
H812 C830 0.951 . S
H813 C832 0.951 . S
H814 C834 0.950 . S
H815 C835 0.950 . S
H816 C837 0.950 . S
H817 C840 0.950 . S
H818 C841 0.950 . S
H819 C843 0.950 . S
H820 C844 0.950 . S
H821 C845 0.951 . S
H822 C847 0.951 . S
H823 C849 0.950 . S
H824 C850 0.950 . S
H825 C852 0.950 . S
H826 C855 0.950 . S
H827 C856 0.950 . S
H828 C858 0.950 . S
H829 C859 0.950 . S
C830 H812 0.951 . S
C830 C831 1.366 . S
C830 C832 1.388 . S
C831 C830 1.366 . S
C831 C835 1.385 . S
C832 H813 0.951 . S
C832 C830 1.388 . S
C832 C833 1.366 . S
C833 C832 1.366 . S
C833 C834 1.414 . S
C833 C836 1.499 . S
C834 H814 0.950 . S
C834 C833 1.414 . S
C834 C835 1.374 . S
C835 H815 0.950 . S
C835 C831 1.385 . S
C835 C834 1.374 . S
C836 C833 1.499 . S
C836 C837 1.373 . S
C836 C838 1.389 . S
C837 H816 0.950 . S
C837 C836 1.373 . S
C837 C853 1.377 . S
C838 C836 1.389 . S
C838 C839 1.524 . S
C838 C852 1.377 . S
C839 C838 1.524 . S
C839 C840 1.397 . S
C839 C844 1.363 . S
C840 H817 0.950 . S
C840 C839 1.397 . S
C840 C841 1.334 . S
C841 H818 0.950 . S
C841 C840 1.334 . S
C841 C842 1.287 . S
C842 C841 1.287 . S
C842 C843 1.524 . S
C842 H861 0.913 . S
C843 H819 0.950 . S
C843 C842 1.524 . S
C843 C844 1.415 . S
C844 H820 0.950 . S
C844 C839 1.363 . S
C844 C843 1.415 . S
C845 H821 0.951 . S
C845 C846 1.366 . S
C845 C847 1.388 . S
C846 C845 1.366 . S
C846 C850 1.385 . S
C847 H822 0.951 . S
C847 C845 1.388 . S
C847 C848 1.366 . S
C848 C847 1.366 . S
C848 C849 1.414 . S
C848 C851 1.499 . S
C849 H823 0.950 . S
C849 C848 1.414 . S
C849 C850 1.374 . S
C850 H824 0.950 . S
C850 C846 1.385 . S
C850 C849 1.374 . S
C851 C848 1.499 . S
C851 C852 1.373 . S
C851 C853 1.389 . S
C852 H825 0.950 . S
C852 C838 1.377 . S
C852 C851 1.373 . S
C853 C837 1.377 . S
C853 C851 1.389 . S
C853 C854 1.524 . S
C854 C853 1.524 . S
C854 C855 1.397 . S
C854 C859 1.363 . S
C855 H826 0.950 . S
C855 C854 1.397 . S
C855 C856 1.334 . S
C856 H827 0.950 . S
C856 C855 1.334 . S
C856 C857 1.287 . S
C857 C856 1.287 . S
C857 C858 1.524 . S
C857 H860 0.999 . S
C858 H828 0.950 . S
C858 C857 1.524 . S
C858 C859 1.415 . S
C859 H829 0.950 . S
C859 C854 1.363 . S
C859 C858 1.415 . S
H860 C857 0.999 . S
H861 C842 0.913 . S
H862 C880 0.951 . S
H863 C882 0.951 . S
H864 C884 0.950 . S
H865 C885 0.950 . S
H866 C887 0.950 . S
H867 C890 0.950 . S
H868 C891 0.950 . S
H869 C893 0.950 . S
H870 C894 0.950 . S
H871 C895 0.951 . S
H872 C897 0.951 . S
H873 C899 0.950 . S
H874 C900 0.950 . S
H875 C902 0.950 . S
H876 C905 0.950 . S
H877 C906 0.950 . S
H878 C908 0.950 . S
H879 C909 0.950 . S
C880 H862 0.951 . S
C880 C881 1.366 . S
C880 C882 1.388 . S
C881 C880 1.366 . S
C881 C885 1.385 . S
C882 H863 0.951 . S
C882 C880 1.388 . S
C882 C883 1.366 . S
C883 C882 1.366 . S
C883 C884 1.414 . S
C883 C886 1.499 . S
C884 H864 0.950 . S
C884 C883 1.414 . S
C884 C885 1.374 . S
C885 H865 0.950 . S
C885 C881 1.385 . S
C885 C884 1.374 . S
C886 C883 1.499 . S
C886 C887 1.373 . S
C886 C888 1.389 . S
C887 H866 0.950 . S
C887 C886 1.373 . S
C887 C903 1.377 . S
C888 C886 1.389 . S
C888 C889 1.524 . S
C888 C902 1.377 . S
C889 C888 1.524 . S
C889 C890 1.397 . S
C889 C894 1.363 . S
C890 H867 0.950 . S
C890 C889 1.397 . S
C890 C891 1.334 . S
C891 H868 0.950 . S
C891 C890 1.334 . S
C891 C892 1.287 . S
C892 C891 1.287 . S
C892 C893 1.524 . S
C892 H911 0.913 . S
C893 H869 0.950 . S
C893 C892 1.524 . S
C893 C894 1.415 . S
C894 H870 0.950 . S
C894 C889 1.363 . S
C894 C893 1.415 . S
C895 H871 0.951 . S
C895 C896 1.366 . S
C895 C897 1.388 . S
C896 C895 1.366 . S
C896 C900 1.385 . S
C897 H872 0.951 . S
C897 C895 1.388 . S
C897 C898 1.366 . S
C898 C897 1.366 . S
C898 C899 1.414 . S
C898 C901 1.499 . S
C899 H873 0.950 . S
C899 C898 1.414 . S
C899 C900 1.374 . S
C900 H874 0.950 . S
C900 C896 1.385 . S
C900 C899 1.374 . S
C901 C898 1.499 . S
C901 C902 1.373 . S
C901 C903 1.389 . S
C902 H875 0.950 . S
C902 C888 1.377 . S
C902 C901 1.373 . S
C903 C887 1.377 . S
C903 C901 1.389 . S
C903 C904 1.524 . S
C904 C903 1.524 . S
C904 C905 1.397 1_565 S
C904 C909 1.363 . S
C905 H876 0.950 . S
C905 C904 1.397 1_545 S
C905 C906 1.334 . S
C906 H877 0.950 . S
C906 C905 1.334 . S
C906 C907 1.287 . S
C907 C906 1.287 . S
C907 C908 1.524 . S
C907 H910 0.999 . S
C908 H878 0.950 . S
C908 C907 1.524 . S
C908 C909 1.415 1_545 S
C909 H879 0.950 . S
C909 C904 1.363 . S
C909 C908 1.415 1_565 S
H910 C907 0.999 . S
H911 C892 0.913 . S
C346 C212 1.615 . S
C331 C133 1.634 . S
C381 C25 1.613 . S
C396 C284 1.602 . S
C431 C61 1.615 . S
C446 C200 1.615 . S
C481 C97 1.585 . S
C496 C296 1.602 . S
C546 C202 1.410 . S
C531 C1 1.563 . S
C596 C283 1.605 . S
C581 C67 1.581 . S
C631 C103 1.569 . S
C646 C199 1.598 . S
C681 C109 1.542 . S
C696 C286 1.398 . S
C746 C298 1.400 . S
C731 C37 1.532 . S
C796 C214 1.409 . S
C781 C73 1.549 . S
C846 C295 1.605 . S
C831 C139 1.599 . S
C881 C31 1.596 . S
C896 C211 1.598 . S
