# Generated by pormake.
# Topology apo, (3,6)-cn, num edge types: 1
# Building blocks:
#     Node 0, Type 0, BuildingBlock: BETDAH_clean_linker_0, # of connection points: 3
#     Node 1, Type 0, BuildingBlock: BETDAH_clean_linker_0, # of connection points: 3
#     Node 2, Type 0, BuildingBlock: BETDAH_clean_linker_0, # of connection points: 3
#     Node 3, Type 0, BuildingBlock: BETDAH_clean_linker_0, # of connection points: 3
#     Node 4, Type 0, BuildingBlock: BETDAH_clean_linker_0, # of connection points: 3
#     Node 5, Type 0, BuildingBlock: BETDAH_clean_linker_0, # of connection points: 3
#     Node 6, Type 0, BuildingBlock: BETDAH_clean_linker_0, # of connection points: 3
#     Node 7, Type 0, BuildingBlock: BETDAH_clean_linker_0, # of connection points: 3
#     Node 8, Type 1, BuildingBlock: KUMBOL_clean_sbu_1, # of connection points: 6
#     Node 9, Type 1, BuildingBlock: KUMBOL_clean_sbu_1, # of connection points: 6
#     Node 10, Type 1, BuildingBlock: KUMBOL_clean_sbu_1, # of connection points: 6
#     Node 11, Type 1, BuildingBlock: KUMBOL_clean_sbu_1, # of connection points: 6
#     Edge 12, Type (0, 1), BuildingBlock: AJUNOK_clean_linker_0, # of connection points: 2
#     Edge 13, Type (0, 1), BuildingBlock: AJUNOK_clean_linker_0, # of connection points: 2
#     Edge 14, Type (0, 1), BuildingBlock: AJUNOK_clean_linker_0, # of connection points: 2
#     Edge 15, Type (0, 1), BuildingBlock: AJUNOK_clean_linker_0, # of connection points: 2
#     Edge 16, Type (0, 1), BuildingBlock: AJUNOK_clean_linker_0, # of connection points: 2
#     Edge 17, Type (0, 1), BuildingBlock: AJUNOK_clean_linker_0, # of connection points: 2
#     Edge 18, Type (0, 1), BuildingBlock: AJUNOK_clean_linker_0, # of connection points: 2
#     Edge 19, Type (0, 1), BuildingBlock: AJUNOK_clean_linker_0, # of connection points: 2
#     Edge 20, Type (0, 1), BuildingBlock: AJUNOK_clean_linker_0, # of connection points: 2
#     Edge 21, Type (0, 1), BuildingBlock: AJUNOK_clean_linker_0, # of connection points: 2
#     Edge 22, Type (0, 1), BuildingBlock: AJUNOK_clean_linker_0, # of connection points: 2
#     Edge 23, Type (0, 1), BuildingBlock: AJUNOK_clean_linker_0, # of connection points: 2
#     Edge 24, Type (0, 1), BuildingBlock: AJUNOK_clean_linker_0, # of connection points: 2
#     Edge 25, Type (0, 1), BuildingBlock: AJUNOK_clean_linker_0, # of connection points: 2
#     Edge 26, Type (0, 1), BuildingBlock: AJUNOK_clean_linker_0, # of connection points: 2
#     Edge 27, Type (0, 1), BuildingBlock: AJUNOK_clean_linker_0, # of connection points: 2
#     Edge 28, Type (0, 1), BuildingBlock: AJUNOK_clean_linker_0, # of connection points: 2
#     Edge 29, Type (0, 1), BuildingBlock: AJUNOK_clean_linker_0, # of connection points: 2
#     Edge 30, Type (0, 1), BuildingBlock: AJUNOK_clean_linker_0, # of connection points: 2
#     Edge 31, Type (0, 1), BuildingBlock: AJUNOK_clean_linker_0, # of connection points: 2
#     Edge 32, Type (0, 1), BuildingBlock: AJUNOK_clean_linker_0, # of connection points: 2
#     Edge 33, Type (0, 1), BuildingBlock: AJUNOK_clean_linker_0, # of connection points: 2
#     Edge 34, Type (0, 1), BuildingBlock: AJUNOK_clean_linker_0, # of connection points: 2
#     Edge 35, Type (0, 1), BuildingBlock: AJUNOK_clean_linker_0, # of connection points: 2
# Relax obj value: 0.036
# Max RMSD: 0.241
# Mean RMSD: 0.168
data_MOF--net-apo--node1-KUMBOL_clean_sbu_1--node2-BETDAH_clean_linker_0--edge1-AJUNOK_clean_linker_0
_symmetry_space_group_name_H-M    P1
_symmetry_Int_Tables_number       1
_symmetry_cell_setting            triclinic
loop_
_symmetry_equiv_pos_as_xyz
'x, y, z'
_cell_length_a     20.583191
_cell_length_b     30.568673
_cell_length_c     40.246448
_cell_angle_alpha  89.361489
_cell_angle_beta   89.825875
_cell_angle_gamma 90.682771
loop_
_atom_site_label
_atom_site_type_symbol
_atom_site_fract_x
_atom_site_fract_y
_atom_site_fract_z
_atom_type_partial_charge
H0 H 0.38974 0.44497 0.41852 0.0
H1 H 0.27021 0.3743 0.34903 0.0
H2 H 0.25806 0.34422 0.45338 0.0
C3 C 0.35448 0.41924 0.41356 0.0
C4 C 0.32823 0.39455 0.44011 0.0
C5 C 0.33348 0.41246 0.38074 0.0
C6 C 0.28713 0.37932 0.37418 0.0
C7 C 0.26105 0.35401 0.4006 0.0
C8 C 0.28125 0.36227 0.43318 0.0
N9 N 0.21038 0.32258 0.39639 0.0
C10 C 0.19528 0.29938 0.3678 0.0
H11 H 0.1274 0.07158 0.9272 0.0
H12 H 0.24943 0.12872 0.85004 0.0
H13 H 0.2685 0.17014 0.95122 0.0
C14 C 0.16487 0.09456 0.91914 0.0
C15 C 0.19576 0.12043 0.94307 0.0
C16 C 0.18491 0.09587 0.88552 0.0
C17 C 0.23231 0.12751 0.87551 0.0
C18 C 0.26156 0.15494 0.89939 0.0
C19 C 0.24353 0.15054 0.93282 0.0
N20 N 0.3169 0.18182 0.89258 0.0
C21 C 0.33024 0.20796 0.86478 0.0
H22 H 0.86347 0.06117 0.59831 0.0
H23 H 0.79966 0.15289 0.67365 0.0
H24 H 0.7654 0.17738 0.57131 0.0
C25 C 0.84191 0.09105 0.60669 0.0
C26 C 0.81875 0.1189 0.58176 0.0
C27 C 0.83696 0.10176 0.64098 0.0
C28 C 0.80341 0.14089 0.64878 0.0
C29 C 0.77513 0.16654 0.62349 0.0
C30 C 0.78417 0.15577 0.59049 0.0
N31 N 0.73838 0.20451 0.62935 0.0
C32 C 0.7217 0.2222 0.65965 0.0
H33 H 0.67131 0.45359 0.096 0.0
H34 H 0.70773 0.36121 0.17704 0.0
H35 H 0.72916 0.3231 0.07732 0.0
C36 C 0.68502 0.4224 0.10634 0.0
C37 C 0.69688 0.38921 0.08358 0.0
C38 C 0.68649 0.41404 0.14121 0.0
C39 C 0.70873 0.37214 0.15164 0.0
C40 C 0.72721 0.34061 0.12852 0.0
C41 C 0.7198 0.34902 0.09486 0.0
N42 N 0.74086 0.29717 0.13838 0.0
C43 C 0.79053 0.28536 0.15977 0.0
H44 H 0.6409 0.5669 0.59859 0.0
H45 H 0.76227 0.63398 0.66905 0.0
H46 H 0.74636 0.68352 0.56958 0.0
C47 C 0.67159 0.59458 0.60463 0.0
C48 C 0.68945 0.62498 0.5796 0.0
C49 C 0.69503 0.59837 0.63742 0.0
C50 C 0.74006 0.63229 0.64473 0.0
C51 C 0.75947 0.66209 0.6195 0.0
C52 C 0.73169 0.65932 0.58808 0.0
N53 N 0.81346 0.69105 0.62233 0.0
C54 C 0.83255 0.71459 0.64993 0.0
H55 H 0.8711 0.95566 0.09889 0.0
H56 H 0.79926 0.82728 0.07649 0.0
H57 H 0.78691 0.87335 0.17627 0.0
C58 C 0.84785 0.92542 0.10696 0.0
C59 C 0.83376 0.91837 0.14106 0.0
C60 C 0.83292 0.89357 0.0831 0.0
C61 C 0.80671 0.85361 0.09393 0.0
C62 C 0.7885 0.84665 0.12689 0.0
C63 C 0.80107 0.87911 0.15067 0.0
N64 N 0.76057 0.8052 0.13439 0.0
C65 C 0.72314 0.79268 0.1616 0.0
H66 H 0.12059 0.92913 0.42352 0.0
H67 H 0.25558 0.88752 0.34801 0.0
H68 H 0.27599 0.84267 0.44867 0.0
C69 C 0.16217 0.91022 0.4159 0.0
C70 C 0.19599 0.88621 0.43998 0.0
C71 C 0.18449 0.91244 0.3827 0.0
C72 C 0.23681 0.88584 0.37318 0.0
C73 C 0.26887 0.86001 0.39702 0.0
C74 C 0.24915 0.86118 0.43024 0.0
N75 N 0.32774 0.83878 0.38949 0.0
C76 C 0.33299 0.80422 0.36756 0.0
H77 H 0.37692 0.56251 0.92005 0.0
H78 H 0.29377 0.6883 0.9383 0.0
H79 H 0.30394 0.6413 0.83878 0.0
C80 C 0.35243 0.59141 0.91094 0.0
C81 C 0.34021 0.59671 0.87657 0.0
C82 C 0.33604 0.62429 0.93354 0.0
C83 C 0.30728 0.66257 0.9214 0.0
C84 C 0.2962 0.66889 0.88754 0.0
C85 C 0.31161 0.63579 0.86511 0.0
N86 N 0.28041 0.71157 0.87663 0.0
C87 C 0.22957 0.72241 0.85566 0.0
C88 C 0.80224 0.06545 0.27409 0.0
C89 C 0.79574 0.98881 0.29083 0.0
C90 C 0.83089 0.02853 0.28795 0.0
C91 C 0.73226 0.98613 0.27834 0.0
C92 C 0.73749 0.06319 0.26275 0.0
C93 C 0.70326 0.02318 0.2643 0.0
N94 N 0.83577 0.10416 0.274 0.0
C95 C 0.80531 0.1421 0.26554 0.0
C96 C 0.70798 0.10162 0.25157 0.0
C97 C 0.74177 0.14133 0.25344 0.0
Gd98 Gd 0.08412 0.10304 0.22766 0.0
Gd99 Gd 0.94081 0.10123 0.29673 0.0
N100 N 0.89237 0.03196 0.29994 0.0
C101 C 0.82463 0.95343 0.30727 0.0
C102 C 0.91931 0.99855 0.31774 0.0
C103 C 0.88633 0.95854 0.32121 0.0
H104 H 0.96613 1.00295 0.32932 0.0
H105 H 0.90826 0.93181 0.33481 0.0
H106 H 0.05853 0.20795 0.20296 0.0
H107 H 0.82852 0.17327 0.26935 0.0
H108 H 0.11698 0.2784 0.20423 0.0
H109 H 0.79904 0.92243 0.31014 0.0
H110 H 0.70454 0.95584 0.28021 0.0
H111 H 0.1899 0.02806 0.25564 0.0
H112 H 0.65825 0.10126 0.24282 0.0
H113 H 0.71829 0.17155 0.24643 0.0
H114 H 0.32471 0.24372 0.25043 0.0
H115 H 0.65356 0.02088 0.25563 0.0
H116 H 0.3661 0.09476 0.28067 0.0
H117 H 0.30127 0.02635 0.27728 0.0
N118 N 0.18887 0.09741 0.24958 0.0
C119 C 0.22461 0.13512 0.24961 0.0
C120 C 0.21627 0.0585 0.25836 0.0
C121 C 0.31652 0.0959 0.27176 0.0
C122 C 0.28003 0.05724 0.27005 0.0
C123 C 0.28923 0.13539 0.26117 0.0
H124 H 0.37454 0.17561 0.27023 0.0
N125 N 0.13426 0.17242 0.22643 0.0
C126 C 0.19655 0.17363 0.23788 0.0
C127 C 0.20291 0.25131 0.22637 0.0
C128 C 0.23239 0.21322 0.2382 0.0
C129 C 0.10618 0.20919 0.21379 0.0
C130 C 0.13969 0.24923 0.21399 0.0
O131 O 0.95118 0.04593 0.26017 0.0
O132 O 0.98376 0.08035 0.21242 0.0
O133 O 0.11913 0.11857 0.17741 0.0
O134 O 0.12831 0.05315 0.19778 0.0
O135 O 0.03798 0.07369 0.30929 0.0
O136 O 0.0757 0.04241 0.26124 0.0
O137 O 0.09986 0.13407 0.27802 0.0
O138 O 1.00265 0.16326 0.29462 0.0
O139 O 0.96064 0.09612 0.34979 0.0
O140 O 0.86761 0.1192 0.33242 0.0
O141 O 0.99431 0.14185 0.21419 0.0
O142 O 0.94214 0.16134 0.26335 0.0
C143 C 0.94957 0.04987 0.22778 0.0
C144 C 0.07051 0.04319 0.29401 0.0
C145 C 0.12759 0.05974 0.13855 0.0
C146 C 0.14043 0.0641 0.07798 0.0
C147 C 0.10917 0.9954 0.10459 0.0
C148 C 0.11067 0.0152 0.13561 0.0
C149 C 0.12407 0.01958 0.076 0.0
C150 C 0.14249 0.08426 0.10936 0.0
C151 C 0.13783 0.07871 0.17201 0.0
C152 C 0.29646 0.2136 0.25011 0.0
C153 C 0.32484 0.17481 0.26144 0.0
H154 H 0.22882 0.28238 0.22628 0.0
C155 C 0.06644 0.16537 0.29187 0.0
C156 C 0.95471 0.16693 0.23137 0.0
C157 C 0.89855 0.13931 0.38627 0.0
C158 C 0.87703 0.14785 0.4451 0.0
C159 C 0.8841 0.21172 0.40882 0.0
C160 C 0.89627 0.18483 0.38173 0.0
C161 C 0.87413 0.19333 0.44038 0.0
C162 C 0.88959 0.1209 0.41805 0.0
C163 C 0.90334 0.10995 0.35804 0.0
H164 H 0.09721 0.96094 0.10275 0.0
H165 H 0.10009 0.99516 0.15736 0.0
H166 H 0.1234 1.00339 0.05217 0.0
H167 H 0.15697 0.11837 0.11108 0.0
H168 H 0.8814 0.2468 0.40528 0.0
H169 H 0.90241 0.19937 0.35723 0.0
H170 H 0.86369 0.21449 0.4611 0.0
H171 H 0.89039 0.08566 0.42156 0.0
C172 C 0.72599 0.44937 0.77338 0.0
C173 C 0.73398 0.52594 0.78922 0.0
C174 C 0.69791 0.48666 0.78684 0.0
C175 C 0.79727 0.52824 0.77622 0.0
C176 C 0.79081 0.45125 0.76185 0.0
C177 C 0.82547 0.49109 0.76243 0.0
N178 N 0.69235 0.41061 0.77443 0.0
C179 C 0.72363 0.37232 0.76815 0.0
C180 C 0.82032 0.41254 0.75182 0.0
C181 C 0.78704 0.37282 0.75568 0.0
Gd182 Gd 0.45621 0.4118 0.72208 0.0
Gd183 Gd 0.58708 0.4152 0.79706 0.0
N184 N 0.63615 0.48397 0.79899 0.0
C185 C 0.70621 0.56129 0.80576 0.0
C186 C 0.61009 0.51729 0.81673 0.0
C187 C 0.64442 0.55671 0.82002 0.0
H188 H 0.56272 0.51322 0.82812 0.0
H189 H 0.62333 0.58346 0.83356 0.0
H190 H 0.47869 0.30861 0.69754 0.0
H191 H 0.70103 0.34102 0.77351 0.0
H192 H 0.41242 0.24189 0.68923 0.0
H193 H 0.73269 0.5919 0.80835 0.0
H194 H 0.82557 0.55828 0.77758 0.0
H195 H 0.34943 0.49129 0.7434 0.0
H196 H 0.86997 0.41267 0.7428 0.0
H197 H 0.81076 0.34242 0.74985 0.0
H198 H 0.19693 0.28349 0.72051 0.0
H199 H 0.87515 0.49308 0.75351 0.0
H200 H 0.16369 0.43012 0.7568 0.0
H201 H 0.23476 0.49571 0.75956 0.0
N202 N 0.34627 0.42238 0.73523 0.0
C203 C 0.3072 0.38656 0.73149 0.0
C204 C 0.32033 0.46172 0.74365 0.0
C205 C 0.21465 0.42765 0.75035 0.0
C206 C 0.25466 0.46468 0.75212 0.0
C207 C 0.24035 0.38822 0.73923 0.0
H208 H 0.14982 0.35139 0.74146 0.0
N209 N 0.39912 0.3464 0.71407 0.0
C210 C 0.33397 0.34796 0.71978 0.0
C211 C 0.32309 0.27204 0.70426 0.0
C212 C 0.29431 0.31051 0.71539 0.0
C213 C 0.42739 0.30919 0.70296 0.0
C214 C 0.38985 0.27144 0.69795 0.0
O215 O 0.57857 0.47193 0.76046 0.0
O216 O 0.56086 0.43153 0.71515 0.0
O217 O 0.44375 0.39828 0.66955 0.0
O218 O 0.4337 0.46449 0.68744 0.0
O219 O 0.48598 0.43826 0.8071 0.0
O220 O 0.45564 0.46965 0.75725 0.0
O221 O 0.42977 0.36992 0.76795 0.0
O222 O 0.52563 0.35329 0.7959 0.0
O223 O 0.5655 0.41613 0.85056 0.0
O224 O 0.66245 0.40407 0.83261 0.0
O225 O 0.54717 0.37236 0.71473 0.0
O226 O 0.58965 0.3534 0.76654 0.0
C227 C 0.58367 0.46715 0.72837 0.0
C228 C 0.45293 0.46705 0.78997 0.0
C229 C 0.37893 0.44572 0.63706 0.0
C230 C 0.34199 0.44173 0.57933 0.0
C231 C 0.27593 0.47736 0.6211 0.0
C232 C 0.32208 0.46803 0.64541 0.0
C233 C 0.28591 0.46461 0.5883 0.0
C234 C 0.38835 0.43209 0.60397 0.0
C235 C 0.43067 0.43863 0.66182 0.0
C236 C 0.22791 0.31211 0.72332 0.0
C237 C 0.20112 0.35074 0.73538 0.0
H238 H 0.29431 0.24257 0.70069 0.0
C239 C 0.46294 0.34703 0.79019 0.0
C240 C 0.58216 0.34729 0.7344 0.0
C241 C 0.63939 0.37789 0.88589 0.0
C242 C 0.65993 0.36784 0.94478 0.0
C243 C 0.6897 0.31127 0.90585 0.0
C244 C 0.66578 0.33655 0.87971 0.0
C245 C 0.68697 0.32681 0.93822 0.0
C246 C 0.63632 0.39344 0.91852 0.0
C247 C 0.62548 0.40798 0.85842 0.0
H248 H 0.23243 0.49488 0.62764 0.0
H249 H 0.31366 0.47879 0.67057 0.0
H250 H 0.24944 0.4724 0.56987 0.0
H251 H 0.43239 0.41515 0.59725 0.0
H252 H 0.71112 0.27981 0.90097 0.0
H253 H 0.6697 0.32441 0.8546 0.0
H254 H 0.70632 0.30691 0.95823 0.0
H255 H 0.61688 0.42558 0.92337 0.0
C256 C 0.79264 0.87534 0.7931 0.0
C257 C 0.78611 0.80548 0.82227 0.0
C258 C 0.82299 0.84153 0.81019 0.0
C259 C 0.71876 0.80382 0.81689 0.0
C260 C 0.72483 0.87369 0.78774 0.0
C261 C 0.68826 0.83776 0.7996 0.0
N262 N 0.8291 0.90992 0.78202 0.0
C263 C 0.79996 0.94447 0.76661 0.0
C264 C 0.69541 0.90858 0.77108 0.0
C265 C 0.73319 0.94423 0.76062 0.0
Gd266 Gd 0.0776 0.9163 0.72727 0.0
Gd267 Gd 0.93822 0.91004 0.79936 0.0
N268 N 0.88855 0.84339 0.81449 0.0
C269 C 0.81831 0.77143 0.83861 0.0
C270 C 0.92014 0.81019 0.83034 0.0
C271 C 0.88565 0.77361 0.84232 0.0
H272 H 0.97146 0.81232 0.83496 0.0
H273 H 0.91095 0.7474 0.85487 0.0
H274 H 0.06075 0.01828 0.69937 0.0
H275 H 0.8269 0.97299 0.75959 0.0
H276 H 0.12228 0.0883 0.69944 0.0
H277 H 0.79176 0.74305 0.84797 0.0
H278 H 0.68987 0.7762 0.82576 0.0
H279 H 0.18699 0.83867 0.74956 0.0
H280 H 0.6435 0.90863 0.76667 0.0
H281 H 0.71079 0.97195 0.74844 0.0
H282 H 0.31984 0.05349 0.75632 0.0
H283 H 0.63625 0.83599 0.79563 0.0
H284 H 0.3565 0.90377 0.78533 0.0
H285 H 0.29468 0.83546 0.77514 0.0
N286 N 0.18147 0.90817 0.75083 0.0
C287 C 0.2166 0.94601 0.75381 0.0
C288 C 0.21041 0.86879 0.75654 0.0
C289 C 0.30757 0.90545 0.77558 0.0
C290 C 0.27277 0.86683 0.77001 0.0
C291 C 0.2805 0.94558 0.76646 0.0
H292 H 0.36565 0.98496 0.77781 0.0
N293 N 0.1303 0.98441 0.72819 0.0
C294 C 0.19094 0.98496 0.74156 0.0
C295 C 0.2024 0.0617 0.72717 0.0
C296 C 0.22819 0.02396 0.74185 0.0
C297 C 0.10674 0.02024 0.71189 0.0
C298 C 0.14177 0.05966 0.71172 0.0
O299 O 0.91622 0.86875 0.75367 0.0
O300 O 0.01439 0.85501 0.72602 0.0
O301 O 0.05843 0.92496 0.67418 0.0
O302 O 0.15126 0.90191 0.69079 0.0
O303 O 0.03111 0.87267 0.80844 0.0
O304 O 0.07597 0.85334 0.75773 0.0
O305 O 0.06768 0.97088 0.765 0.0
O306 O 0.04168 0.92979 0.81013 0.0
O307 O 0.91741 0.90085 0.85216 0.0
O308 O 0.90271 0.96473 0.8281 0.0
O309 O 0.97588 0.93917 0.7185 0.0
O310 O 0.9403 0.97099 0.76606 0.0
C311 C 0.95204 0.84689 0.73219 0.0
C312 C 0.06462 0.84587 0.78961 0.0
C313 C 0.11846 0.87974 0.63794 0.0
C314 C 0.13676 0.86517 0.57925 0.0
C315 C 0.12763 0.80499 0.61898 0.0
C316 C 0.11818 0.83456 0.64465 0.0
C317 C 0.1368 0.82015 0.58646 0.0
C318 C 0.12789 0.89505 0.60513 0.0
C319 C 0.11528 0.91103 0.66531 0.0
C320 C 0.2906 0.0238 0.75576 0.0
C321 C 0.31662 0.98476 0.76808 0.0
H322 H 0.22968 0.09224 0.72679 0.0
C323 C 0.06865 0.96496 0.79723 0.0
C324 C 0.94908 0.97213 0.73358 0.0
C325 C 0.87538 0.95864 0.8871 0.0
C326 C 0.85565 0.95142 0.94677 0.0
C327 C 0.82011 0.01611 0.91685 0.0
C328 C 0.84503 0.99954 0.88739 0.0
C329 C 0.82537 0.99225 0.94638 0.0
C330 C 0.8805 0.93438 0.91706 0.0
C331 C 0.89823 0.94096 0.85521 0.0
H332 H 0.12845 0.77023 0.62435 0.0
H333 H 0.112 0.82225 0.66983 0.0
H334 H 0.14475 0.79674 0.56688 0.0
H335 H 0.12918 0.92991 0.59983 0.0
H336 H 0.79624 0.04746 0.91677 0.0
H337 H 0.83963 0.01852 0.8647 0.0
H338 H 0.80528 1.00551 0.96901 0.0
H339 H 0.90304 0.90251 0.9173 0.0
C340 C 0.7145 0.64109 0.27704 0.0
C341 C 0.71214 0.71952 0.28483 0.0
C342 C 0.68091 0.67821 0.28609 0.0
C343 C 0.77712 0.72288 0.27421 0.0
C344 C 0.78 0.64421 0.26673 0.0
C345 C 0.81101 0.68531 0.26529 0.0
N346 N 0.68249 0.60202 0.27744 0.0
C347 C 0.71395 0.56466 0.26923 0.0
C348 C 0.81208 0.60599 0.25768 0.0
C349 C 0.77891 0.56596 0.25912 0.0
Gd350 Gd 0.43333 0.60616 0.22301 0.0
Gd351 Gd 0.57288 0.60241 0.29404 0.0
N352 N 0.6174 0.67399 0.29548 0.0
C353 C 0.67715 0.75626 0.29434 0.0
C354 C 0.58457 0.70942 0.30665 0.0
C355 C 0.61338 0.75109 0.3057 0.0
H356 H 0.53684 0.70586 0.31704 0.0
H357 H 0.58656 0.77915 0.31409 0.0
H358 H 0.46771 0.50047 0.20578 0.0
H359 H 0.68951 0.5337 0.2715 0.0
H360 H 0.41284 0.42908 0.20635 0.0
H361 H 0.69931 0.78859 0.29363 0.0
H362 H 0.8017 0.75439 0.2729 0.0
H363 H 0.31763 0.67957 0.23519 0.0
H364 H 0.86235 0.60703 0.24962 0.0
H365 H 0.80337 0.53607 0.25264 0.0
H366 H 0.19103 0.46216 0.23115 0.0
H367 H 0.86111 0.6884 0.25716 0.0
H368 H 0.13547 0.61238 0.24638 0.0
H369 H 0.19941 0.68146 0.24532 0.0
N370 N 0.32129 0.61066 0.23264 0.0
C371 C 0.28688 0.5725 0.23201 0.0
C372 C 0.29062 0.64942 0.23694 0.0
C373 C 0.18753 0.61149 0.24243 0.0
C374 C 0.22346 0.65051 0.24204 0.0
C375 C 0.21905 0.57184 0.23719 0.0
H376 H 0.13287 0.53065 0.24102 0.0
N377 N 0.38496 0.53583 0.22096 0.0
C378 C 0.3196 0.53395 0.22606 0.0
C379 C 0.31973 0.45549 0.21921 0.0
C380 C 0.28536 0.49368 0.22561 0.0
C381 C 0.41773 0.49893 0.2128 0.0
C382 C 0.3861 0.45823 0.21239 0.0
O383 O 0.59583 0.63211 0.24412 0.0
O384 O 0.50102 0.66461 0.22872 0.0
O385 O 0.4421 0.59205 0.16997 0.0
O386 O 0.392 0.64969 0.18632 0.0
O387 O 0.47703 0.63572 0.30666 0.0
O388 O 0.43392 0.66348 0.25764 0.0
O389 O 0.40683 0.57082 0.27177 0.0
O390 O 0.5056 0.54482 0.28833 0.0
O391 O 0.56867 0.61055 0.34876 0.0
O392 O 0.63202 0.56277 0.32554 0.0
O393 O 0.52917 0.57348 0.21194 0.0
O394 O 0.56836 0.5433 0.26069 0.0
C395 C 0.56459 0.66285 0.22828 0.0
C396 C 0.43962 0.66351 0.29023 0.0
C397 C 0.35802 0.61999 0.13526 0.0
C398 C 0.32863 0.61528 0.07661 0.0
C399 C 0.24453 0.62007 0.11879 0.0
C400 C 0.29169 0.62137 0.14354 0.0
C401 C 0.26277 0.61699 0.08554 0.0
C402 C 0.3764 0.61699 0.10158 0.0
C403 C 0.40804 0.62588 0.16109 0.0
C404 C 0.21802 0.49281 0.23128 0.0
C405 C 0.1849 0.53181 0.23689 0.0
H406 H 0.29527 0.42392 0.21875 0.0
C407 C 0.44217 0.54448 0.29034 0.0
C408 C 0.56354 0.54395 0.22802 0.0
C409 C 0.63698 0.56399 0.385 0.0
C410 C 0.65569 0.57089 0.44446 0.0
C411 C 0.6995 0.50921 0.41488 0.0
C412 C 0.67271 0.52498 0.38548 0.0
C413 C 0.69116 0.53202 0.44421 0.0
C414 C 0.62826 0.58705 0.41481 0.0
C415 C 0.61212 0.58023 0.35284 0.0
H416 H 0.19363 0.622 0.12538 0.0
H417 H 0.27611 0.62445 0.16904 0.0
H418 H 0.22541 0.61675 0.06662 0.0
H419 H 0.42741 0.61672 0.09479 0.0
H420 H 0.72735 0.4794 0.41486 0.0
H421 H 0.68049 0.50658 0.363 0.0
H422 H 0.71324 0.51964 0.46679 0.0
H423 H 0.60195 0.61756 0.41486 0.0
C424 C 0.14383 0.93647 0.32599 0.0
C425 C 0.15797 0.94619 0.35942 0.0
C426 C 0.11742 0.9682 0.30436 0.0
C427 C 0.10409 0.01067 0.31547 0.0
H428 H 0.15189 0.90387 0.31668 0.0
H429 H 0.10568 0.95905 0.27914 0.0
S430 S 0.13905 0.05423 0.39959 0.0
N431 N 0.16254 1.00291 0.40134 0.0
N432 N 0.11116 0.06139 0.36161 0.0
C433 C 0.11999 0.02104 0.34853 0.0
C434 C 0.14734 0.98916 0.37024 0.0
C435 C 0.39628 0.57563 0.82343 0.0
C436 C 0.3622 0.56301 0.85257 0.0
C437 C 0.42267 0.54438 0.80203 0.0
C438 C 0.4165 0.49949 0.80924 0.0
H439 H 0.40495 0.60993 0.81778 0.0
H440 H 0.4508 0.55547 0.78068 0.0
S441 S 0.32579 0.44883 0.87975 0.0
N442 N 0.31846 0.50199 0.88531 0.0
N443 N 0.36996 0.44362 0.84575 0.0
C444 C 0.38057 0.48634 0.83741 0.0
C445 C 0.353 0.51798 0.85892 0.0
C446 C 0.67011 0.52055 0.6546 0.0
C447 C 0.6735 0.56522 0.66294 0.0
C448 C 0.64167 0.4893 0.67605 0.0
C449 C 0.61591 0.5011 0.70704 0.0
H450 H 0.68859 0.50965 0.6309 0.0
H451 H 0.63942 0.4556 0.66806 0.0
S452 S 0.61237 0.61346 0.74101 0.0
N453 N 0.64915 0.61943 0.7047 0.0
N454 N 0.5953 0.56073 0.74494 0.0
C455 C 0.62034 0.54538 0.71616 0.0
C456 C 0.64941 0.57734 0.69422 0.0
C457 C 0.85566 0.99665 0.15761 0.0
C458 C 0.85625 0.95161 0.16591 0.0
C459 C 0.88536 0.02811 0.17788 0.0
C460 C 0.91547 0.0162 0.20782 0.0
H461 H 0.83308 1.00783 0.13484 0.0
H462 H 0.88493 0.0621 0.16994 0.0
S463 S 0.92947 0.90364 0.24221 0.0
N464 N 0.88965 0.89731 0.20702 0.0
N465 N 0.94313 0.95672 0.24544 0.0
C466 C 0.91423 0.97179 0.21733 0.0
C467 C 0.88501 0.93951 0.1964 0.0
C468 C 0.91307 0.04029 0.65683 0.0
C469 C 0.86786 0.07201 0.6671 0.0
C470 C 0.93721 0.00853 0.67837 0.0
C471 C 0.92343 0.00853 0.71249 0.0
H472 H 0.93154 0.03898 0.6318 0.0
H473 H 0.96848 0.98408 0.66782 0.0
S474 S 0.8222 0.08968 0.75601 0.0
N475 N 0.815 0.10249 0.7163 0.0
N476 N 0.87234 0.04809 0.75734 0.0
C477 C 0.8849 0.04266 0.72448 0.0
C478 C 0.85487 0.07315 0.70189 0.0
C479 C 0.61925 0.4815 0.15265 0.0
C480 C 0.6582 0.44715 0.1652 0.0
C481 C 0.59134 0.51261 0.17308 0.0
C482 C 0.59619 0.51006 0.20776 0.0
H483 H 0.60745 0.48503 0.12674 0.0
H484 H 0.56374 0.53833 0.16118 0.0
S485 S 0.68316 0.42482 0.25586 0.0
N486 N 0.69961 0.41415 0.21671 0.0
N487 N 0.63427 0.46706 0.25469 0.0
C488 C 0.6305 0.47474 0.22144 0.0
C489 C 0.66421 0.44476 0.20043 0.0
C490 C 0.42482 0.44492 0.34748 0.0
C491 C 0.35797 0.44252 0.35422 0.0
C492 C 0.45078 0.47727 0.32621 0.0
C493 C 0.41114 0.50923 0.31112 0.0
H494 H 0.45755 0.42211 0.35938 0.0
H495 H 0.50286 0.47759 0.32224 0.0
S496 S 0.23265 0.51795 0.32227 0.0
N497 N 0.25232 0.47448 0.34461 0.0
N498 N 0.3011 0.53651 0.30553 0.0
C499 C 0.34389 0.50692 0.31761 0.0
C500 C 0.31735 0.47331 0.3389 0.0
C501 C 0.13975 0.07274 0.82961 0.0
C502 C 0.15942 0.06171 0.86213 0.0
C503 C 0.11131 0.0413 0.80854 0.0
C504 C 0.10129 0.99757 0.81914 0.0
H505 H 0.14466 0.10616 0.82065 0.0
H506 H 0.09555 0.05166 0.78409 0.0
S507 S 0.15211 0.95018 0.90015 0.0
N508 N 0.17337 1.00228 0.90224 0.0
N509 N 0.11814 0.94429 0.86339 0.0
C510 C 0.12283 0.98582 0.85109 0.0
C511 C 0.15241 0.0175 0.8723 0.0
C512 C 0.12018 0.11387 0.99222 0.0
C513 C 0.18355 0.11232 0.97912 0.0
C514 C 0.10727 0.10176 0.02544 0.0
C515 C 0.15722 0.08765 0.04665 0.0
H516 H 0.08009 0.12327 0.9764 0.0
H517 H 0.05741 0.10134 0.03415 0.0
S518 S 0.33113 0.07737 0.02449 0.0
N519 N 0.29676 0.09575 0.99011 0.0
N520 N 0.27224 0.07309 0.05237 0.0
C521 C 0.22096 0.08725 0.03418 0.0
C522 C 0.23419 0.09958 1.00046 0.0
C523 C 0.34227 0.44988 0.4852 0.0
C524 C 0.34356 0.40586 0.4753 0.0
C525 C 0.34574 0.46123 0.51883 0.0
C526 C 0.35099 0.42913 0.54398 0.0
H527 H 0.33489 0.47573 0.46704 0.0
H528 H 0.3417 0.49539 0.52533 0.0
S529 S 0.36557 0.30971 0.53117 0.0
N530 N 0.3579 0.33032 0.49329 0.0
N531 N 0.36348 0.35179 0.55656 0.0
C532 C 0.35686 0.38527 0.53439 0.0
C533 C 0.35318 0.37361 0.50007 0.0
C534 C 0.63267 0.36103 0.0365 0.0
C535 C 0.6762 0.39285 0.04857 0.0
C536 C 0.62322 0.35584 1.00251 0.0
C537 C 0.65649 0.38253 0.97945 0.0
H538 H 0.60901 0.33805 0.05345 0.0
H539 H 0.59301 0.32888 0.99413 0.0
S540 S 0.76459 0.47677 0.99849 0.0
N541 N 0.74473 0.45595 0.03528 0.0
N542 N 0.72646 0.44639 0.97075 0.0
C543 C 0.69442 0.41768 0.99113 0.0
C544 C 0.70435 0.42286 0.02599 0.0
C545 C 0.78517 0.11504 0.52245 0.0
C546 C 0.83494 0.11286 0.54628 0.0
C547 C 0.79952 0.1231 0.4889 0.0
C548 C 0.86402 0.129 0.47825 0.0
H549 H 0.73471 0.11365 0.53019 0.0
H550 H 0.75989 0.12749 0.47157 0.0
S551 S 0.01201 0.12114 0.52976 0.0
N552 N 0.95145 0.11326 0.55629 0.0
N553 N 0.97814 0.12778 0.4929 0.0
C554 C 0.91435 0.12324 0.50117 0.0
C555 C 0.89986 0.11515 0.53536 0.0
C556 C 0.89866 0.92551 0.03559 0.0
C557 C 0.84325 0.90212 0.04683 0.0
C558 C 0.90555 0.93816 1.00212 0.0
C559 C 0.85799 0.92714 0.97862 0.0
H560 H 0.93607 0.93536 0.05292 0.0
H561 H 0.94665 0.95863 0.99489 0.0
S562 S 0.70676 0.86332 0.99379 0.0
N563 N 0.74106 0.86698 0.03069 0.0
N564 N 0.75669 0.88893 0.96773 0.0
C565 C 0.80481 0.90132 0.98882 0.0
C566 C 0.79679 0.88921 0.02294 0.0
C567 C 0.7185 0.62899 0.51892 0.0
C568 C 0.67215 0.61819 0.54381 0.0
C569 C 0.70881 0.61802 0.48571 0.0
C570 C 0.65317 0.5949 0.47591 0.0
H571 H 0.76507 0.64343 0.52511 0.0
H572 H 0.74763 0.62455 0.46801 0.0
S573 S 0.51341 0.56233 0.52906 0.0
N574 N 0.56396 0.5874 0.55457 0.0
N575 N 0.54899 0.56378 0.49222 0.0
C576 C 0.60474 0.58578 0.4996 0.0
C577 C 0.61356 0.59798 0.53352 0.0
C578 C 0.32686 0.58075 0.98669 0.0
C579 C 0.34766 0.61911 0.96993 0.0
C580 C 0.32542 0.57851 0.02156 0.0
C581 C 0.34555 0.61426 0.04085 0.0
H582 H 0.3076 0.55333 0.97286 0.0
H583 H 0.30527 0.54946 0.03355 0.0
S584 S 0.41258 0.71981 1.00935 0.0
N585 N 0.39611 0.69173 0.97552 0.0
N586 N 0.39202 0.68754 0.04096 0.0
C587 C 0.37092 0.65148 0.02455 0.0
C588 C 0.37234 0.65388 0.9891 0.0
C589 C 0.11555 0.87556 0.48629 0.0
C590 C 0.17806 0.88845 0.47564 0.0
C591 C 0.10105 0.8709 0.52027 0.0
C592 C 0.14817 0.87982 0.54458 0.0
H593 H 0.07883 0.86668 0.46828 0.0
H594 H 0.05362 0.85835 0.52759 0.0
S595 S 0.31591 0.92076 0.52959 0.0
N596 N 0.28516 0.9146 0.49203 0.0
N597 N 0.25752 0.90618 0.55588 0.0
C598 C 0.20921 0.89585 0.53431 0.0
C599 C 0.22425 0.90009 0.49978 0.0
C600 C 0.12026 0.27747 0.32259 0.0
C601 C 0.16997 0.26694 0.34509 0.0
C602 C 0.08676 0.24445 0.30518 0.0
C603 C 0.10253 0.20009 0.30961 0.0
H604 H 0.1057 0.31118 0.31929 0.0
H605 H 0.04817 0.2536 0.28832 0.0
S606 S 0.22864 0.1559 0.36582 0.0
N607 N 0.23282 0.20939 0.37106 0.0
N608 N 0.1716 0.1477 0.33774 0.0
C609 C 0.15341 0.18951 0.33132 0.0
C610 C 0.18669 0.2229 0.34926 0.0
C611 C 0.33792 0.25804 0.81523 0.0
C612 C 0.36334 0.24155 0.84504 0.0
C613 C 0.37004 0.29231 0.79783 0.0
C614 C 0.42893 0.31095 0.80921 0.0
H615 H 0.29283 0.24486 0.8055 0.0
H616 H 0.34831 0.3042 0.7754 0.0
S617 S 0.51177 0.28042 0.88795 0.0
N618 N 0.44808 0.24722 0.88644 0.0
N619 N 0.5086 0.31081 0.85385 0.0
C620 C 0.45396 0.29456 0.8394 0.0
C621 C 0.42108 0.2601 0.85718 0.0
C622 C 0.64715 0.23867 0.70596 0.0
C623 C 0.69568 0.25214 0.68333 0.0
C624 C 0.6117 0.26974 0.72378 0.0
C625 C 0.62297 0.31471 0.71846 0.0
H626 H 0.63479 0.20428 0.70887 0.0
H627 H 0.57343 0.25871 0.74053 0.0
S628 S 0.74621 0.36589 0.66277 0.0
N629 N 0.75531 0.31274 0.65781 0.0
N630 N 0.68685 0.37101 0.69009 0.0
C631 C 0.67221 0.32824 0.69645 0.0
C632 C 0.70921 0.29684 0.67915 0.0
C633 C 0.87298 0.22871 0.16119 0.0
C634 C 0.83976 0.26181 0.17773 0.0
C635 C 0.91239 0.19941 0.1786 0.0
C636 C 0.91992 0.2022 0.21327 0.0
H637 H 0.86616 0.22414 0.13475 0.0
H638 H 0.9347 0.17321 0.1649 0.0
S639 S 0.85015 0.28808 0.26705 0.0
N640 N 0.82075 0.29888 0.22973 0.0
N641 N 0.89725 0.2451 0.26271 0.0
C642 C 0.89043 0.2375 0.22968 0.0
C643 C 0.84953 0.26698 0.21185 0.0
C644 C 0.90803 0.77618 0.65838 0.0
C645 C 0.86215 0.74637 0.67157 0.0
C646 C 0.937 0.80823 0.67837 0.0
C647 C 0.92068 0.81181 0.71222 0.0
H648 H 0.92144 0.77489 0.63235 0.0
H649 H 0.97172 0.83082 0.66705 0.0
S650 S 0.80747 0.7377 0.75861 0.0
N651 N 0.80395 0.72012 0.7201 0.0
N652 N 0.85907 0.77959 0.75816 0.0
C653 C 0.87567 0.78121 0.72564 0.0
C654 C 0.84623 0.7486 0.70517 0.0
C655 C 0.62379 0.77305 0.19413 0.0
C656 C 0.6855 0.7625 0.18177 0.0
C657 C 0.58357 0.74054 0.20881 0.0
C658 C 0.60399 0.69676 0.21097 0.0
H659 H 0.60613 0.8062 0.19189 0.0
H660 H 0.53666 0.74969 0.21865 0.0
S661 S 0.75871 0.65264 0.17852 0.0
N662 N 0.76363 0.70573 0.17088 0.0
N663 N 0.68789 0.64457 0.19704 0.0
C664 C 0.66512 0.68613 0.19786 0.0
C665 C 0.70598 0.71909 0.18362 0.0
C666 C 0.37996 0.73094 0.36319 0.0
C667 C 0.35111 0.76714 0.34773 0.0
C668 C 0.40656 0.69709 0.3444 0.0
C669 C 0.40648 0.69861 0.30935 0.0
H670 H 0.38356 0.72928 0.39004 0.0
H671 H 0.42894 0.67014 0.35757 0.0
S672 S 0.33621 0.78793 0.25748 0.0
N673 N 0.32129 0.80261 0.29608 0.0
N674 N 0.37565 0.74133 0.26032 0.0
C675 C 0.37713 0.73509 0.29376 0.0
C676 C 0.34839 0.7688 0.31307 0.0
C677 C 0.15137 0.78147 0.8567 0.0
C678 C 0.17996 0.74737 0.83912 0.0
C679 C 0.11211 0.8121 0.84065 0.0
C680 C 0.09987 0.80968 0.80631 0.0
H681 H 0.16178 0.78573 0.88287 0.0
H682 H 0.0935 0.83887 0.85514 0.0
S683 S 0.15738 0.72254 0.7501 0.0
N684 N 0.19026 0.71035 0.78642 0.0
N685 N 0.11392 0.7669 0.75607 0.0
C686 C 0.12502 0.77379 0.78887 0.0
C687 C 0.16587 0.74287 0.80531 0.0
loop_
_geom_bond_atom_site_label_1
_geom_bond_atom_site_label_2
_geom_bond_distance
_geom_bond_site_symmetry_2
_ccdc_geom_bond_type
H0 C3 0.929 . S
H1 C6 0.929 . S
H2 C8 0.930 . S
C3 H0 0.929 . S
C3 C4 1.398 . S
C3 C5 1.396 . S
C4 C3 1.398 . S
C4 C8 1.407 . S
C5 C3 1.396 . S
C5 C6 1.394 . S
C6 H1 0.929 . S
C6 C5 1.394 . S
C6 C7 1.382 . S
C7 C6 1.382 . S
C7 C8 1.392 . S
C7 N9 1.420 . S
C8 H2 0.930 . S
C8 C4 1.407 . S
C8 C7 1.392 . S
N9 C7 1.420 . S
N9 C10 1.244 . S
C10 N9 1.244 . S
H11 C14 0.929 . S
H12 C17 0.929 . S
H13 C19 0.930 . S
C14 H11 0.929 . S
C14 C15 1.398 . S
C14 C16 1.396 . S
C15 C14 1.398 . S
C15 C19 1.407 . S
C16 C14 1.396 . S
C16 C17 1.394 . S
C17 H12 0.929 . S
C17 C16 1.394 . S
C17 C18 1.382 . S
C18 C17 1.382 . S
C18 C19 1.392 . S
C18 N20 1.420 . S
C19 H13 0.930 . S
C19 C15 1.407 . S
C19 C18 1.392 . S
N20 C18 1.420 . S
N20 C21 1.244 . S
C21 N20 1.244 . S
H22 C25 0.929 . S
H23 C28 0.929 . S
H24 C30 0.930 . S
C25 H22 0.929 . S
C25 C26 1.398 . S
C25 C27 1.396 . S
C26 C25 1.398 . S
C26 C30 1.407 . S
C27 C25 1.396 . S
C27 C28 1.394 . S
C28 H23 0.929 . S
C28 C27 1.394 . S
C28 C29 1.382 . S
C29 C28 1.382 . S
C29 C30 1.392 . S
C29 N31 1.420 . S
C30 H24 0.930 . S
C30 C26 1.407 . S
C30 C29 1.392 . S
N31 C29 1.420 . S
N31 C32 1.244 . S
C32 N31 1.244 . S
H33 C36 0.929 . S
H34 C39 0.929 . S
H35 C41 0.930 . S
C36 H33 0.929 . S
C36 C37 1.398 . S
C36 C38 1.396 . S
C37 C36 1.398 . S
C37 C41 1.407 . S
C38 C36 1.396 . S
C38 C39 1.394 . S
C39 H34 0.929 . S
C39 C38 1.394 . S
C39 C40 1.382 . S
C40 C39 1.382 . S
C40 C41 1.392 . S
C40 N42 1.420 . S
C41 H35 0.930 . S
C41 C37 1.407 . S
C41 C40 1.392 . S
N42 C40 1.420 . S
N42 C43 1.244 . S
C43 N42 1.244 . S
H44 C47 0.929 . S
H45 C50 0.929 . S
H46 C52 0.930 . S
C47 H44 0.929 . S
C47 C48 1.398 . S
C47 C49 1.396 . S
C48 C47 1.398 . S
C48 C52 1.407 . S
C49 C47 1.396 . S
C49 C50 1.394 . S
C50 H45 0.929 . S
C50 C49 1.394 . S
C50 C51 1.382 . S
C51 C50 1.382 . S
C51 C52 1.392 . S
C51 N53 1.420 . S
C52 H46 0.930 . S
C52 C48 1.407 . S
C52 C51 1.392 . S
N53 C51 1.420 . S
N53 C54 1.244 . S
C54 N53 1.244 . S
H55 C58 0.929 . S
H56 C61 0.929 . S
H57 C63 0.930 . S
C58 H55 0.929 . S
C58 C59 1.398 . S
C58 C60 1.396 . S
C59 C58 1.398 . S
C59 C63 1.407 . S
C60 C58 1.396 . S
C60 C61 1.394 . S
C61 H56 0.929 . S
C61 C60 1.394 . S
C61 C62 1.382 . S
C62 C61 1.382 . S
C62 C63 1.392 . S
C62 N64 1.420 . S
C63 H57 0.930 . S
C63 C59 1.407 . S
C63 C62 1.392 . S
N64 C62 1.420 . S
N64 C65 1.244 . S
C65 N64 1.244 . S
H66 C69 0.929 . S
H67 C72 0.929 . S
H68 C74 0.930 . S
C69 H66 0.929 . S
C69 C70 1.398 . S
C69 C71 1.396 . S
C70 C69 1.398 . S
C70 C74 1.407 . S
C71 C69 1.396 . S
C71 C72 1.394 . S
C72 H67 0.929 . S
C72 C71 1.394 . S
C72 C73 1.382 . S
C73 C72 1.382 . S
C73 C74 1.392 . S
C73 N75 1.420 . S
C74 H68 0.930 . S
C74 C70 1.407 . S
C74 C73 1.392 . S
N75 C73 1.420 . S
N75 C76 1.244 . S
C76 N75 1.244 . S
H77 C80 0.929 . S
H78 C83 0.929 . S
H79 C85 0.930 . S
C80 H77 0.929 . S
C80 C81 1.398 . S
C80 C82 1.396 . S
C81 C80 1.398 . S
C81 C85 1.407 . S
C82 C80 1.396 . S
C82 C83 1.394 . S
C83 H78 0.929 . S
C83 C82 1.394 . S
C83 C84 1.382 . S
C84 C83 1.382 . S
C84 C85 1.392 . S
C84 N86 1.420 . S
C85 H79 0.930 . S
C85 C81 1.407 . S
C85 C84 1.392 . S
N86 C84 1.420 . S
N86 C87 1.244 . S
C87 N86 1.244 . S
C88 C90 1.422 . S
C88 C92 1.415 . S
C88 N94 1.369 . S
C89 C90 1.421 1_565 S
C89 C91 1.417 . S
C89 C101 1.422 . S
C90 C88 1.422 . S
C90 C89 1.421 1_545 S
C90 N100 1.359 . S
C91 C89 1.417 . S
C91 C93 1.329 1_565 S
C91 H110 0.930 . S
C92 C88 1.415 . S
C92 C93 1.437 . S
C92 C96 1.413 . S
C93 C91 1.329 1_545 S
C93 C92 1.437 . S
C93 H115 0.929 . S
N94 C88 1.369 . S
N94 C95 1.338 . S
N94 Gd99 2.622 . S
C95 N94 1.338 . S
C95 C97 1.378 . S
C95 H107 0.929 . S
C96 C92 1.413 . S
C96 C97 1.348 . S
C96 H112 0.931 . S
C97 C95 1.378 . S
C97 C96 1.348 . S
C97 H113 0.930 . S
Gd98 N118 2.622 . S
Gd98 N125 2.570 . S
Gd98 O132 2.353 . S
Gd98 O133 2.468 . S
Gd98 O134 2.427 . S
Gd98 O136 2.388 . S
Gd98 O137 2.386 . S
Gd98 O141 2.307 . S
Gd98 C151 2.805 . S
Gd99 N94 2.622 . S
Gd99 N100 2.570 . S
Gd99 O131 2.386 . S
Gd99 O135 2.307 1_655 S
Gd99 O138 2.353 1_655 S
Gd99 O139 2.468 . S
Gd99 O140 2.427 . S
Gd99 O142 2.388 . S
Gd99 C163 2.805 . S
N100 C90 1.359 . S
N100 Gd99 2.570 . S
N100 C102 1.343 1_545 S
C101 C89 1.422 . S
C101 C103 1.321 . S
C101 H109 0.931 . S
C102 N100 1.343 1_565 S
C102 C103 1.390 . S
C102 H104 0.931 . S
C103 C101 1.321 . S
C103 C102 1.390 . S
C103 H105 0.930 . S
H104 C102 0.931 . S
H105 C103 0.930 . S
H106 C129 0.931 . S
H107 C95 0.929 . S
H108 C130 0.930 . S
H109 C101 0.931 . S
H110 C91 0.930 . S
H111 C120 0.929 . S
H112 C96 0.931 . S
H113 C97 0.930 . S
H114 C152 0.930 . S
H115 C93 0.929 . S
H116 C121 0.931 . S
H117 C122 0.930 . S
N118 Gd98 2.622 . S
N118 C119 1.369 . S
N118 C120 1.338 . S
C119 N118 1.369 . S
C119 C123 1.415 . S
C119 C126 1.422 . S
C120 H111 0.929 . S
C120 N118 1.338 . S
C120 C122 1.378 . S
C121 H116 0.931 . S
C121 C122 1.348 . S
C121 C123 1.413 . S
C122 H117 0.930 . S
C122 C120 1.378 . S
C122 C121 1.348 . S
C123 C119 1.415 . S
C123 C121 1.413 . S
C123 C153 1.437 . S
H124 C153 0.929 . S
N125 Gd98 2.570 . S
N125 C126 1.359 . S
N125 C129 1.343 . S
C126 C119 1.422 . S
C126 N125 1.359 . S
C126 C128 1.421 . S
C127 C128 1.422 . S
C127 C130 1.321 . S
C127 H154 0.931 . S
C128 C126 1.421 . S
C128 C127 1.422 . S
C128 C152 1.417 . S
C129 H106 0.931 . S
C129 N125 1.343 . S
C129 C130 1.390 . S
C130 H108 0.930 . S
C130 C127 1.321 . S
C130 C129 1.390 . S
O131 Gd99 2.386 . S
O131 C143 1.265 . S
O132 Gd98 2.353 . S
O132 C143 1.242 1_455 S
O133 Gd98 2.468 . S
O133 C151 1.263 . S
O134 Gd98 2.427 . S
O134 C151 1.252 . S
O135 Gd99 2.307 1_455 S
O135 C144 1.261 . S
O136 Gd98 2.388 . S
O136 C144 1.252 . S
O137 Gd98 2.386 . S
O137 C155 1.265 . S
O138 Gd99 2.353 1_455 S
O138 C155 1.242 . S
O139 Gd99 2.468 . S
O139 C163 1.263 . S
O140 Gd99 2.427 . S
O140 C163 1.252 . S
O141 Gd98 2.307 . S
O141 C156 1.261 1_455 S
O142 Gd99 2.388 . S
O142 C156 1.252 . S
C143 O131 1.265 . S
C143 O132 1.242 1_655 S
C144 O135 1.261 . S
C144 O136 1.252 . S
C145 C148 1.394 . S
C145 C150 1.370 . S
C145 C151 1.500 . S
C146 C149 1.383 . S
C146 C150 1.395 . S
C147 C148 1.396 . S
C147 C149 1.365 . S
C147 H164 0.929 . S
C148 C145 1.394 . S
C148 C147 1.396 . S
C148 H165 0.930 . S
C149 C146 1.383 . S
C149 C147 1.365 . S
C149 H166 0.931 . S
C150 C145 1.370 . S
C150 C146 1.395 . S
C150 H167 0.930 . S
C151 Gd98 2.805 . S
C151 O133 1.263 . S
C151 O134 1.252 . S
C151 C145 1.500 . S
C152 H114 0.930 . S
C152 C128 1.417 . S
C152 C153 1.329 . S
C153 C123 1.437 . S
C153 H124 0.929 . S
C153 C152 1.329 . S
H154 C127 0.931 . S
C155 O137 1.265 . S
C155 O138 1.242 . S
C156 O141 1.261 1_655 S
C156 O142 1.252 . S
C157 C160 1.394 . S
C157 C162 1.370 . S
C157 C163 1.500 . S
C158 C161 1.383 . S
C158 C162 1.395 . S
C159 C160 1.396 . S
C159 C161 1.365 . S
C159 H168 0.929 . S
C160 C157 1.394 . S
C160 C159 1.396 . S
C160 H169 0.930 . S
C161 C158 1.383 . S
C161 C159 1.365 . S
C161 H170 0.931 . S
C162 C157 1.370 . S
C162 C158 1.395 . S
C162 H171 0.930 . S
C163 Gd99 2.805 . S
C163 O139 1.263 . S
C163 O140 1.252 . S
C163 C157 1.500 . S
H164 C147 0.929 . S
H165 C148 0.930 . S
H166 C149 0.931 . S
H167 C150 0.930 . S
H168 C159 0.929 . S
H169 C160 0.930 . S
H170 C161 0.931 . S
H171 C162 0.930 . S
C172 C174 1.422 . S
C172 C176 1.415 . S
C172 N178 1.369 . S
C173 C174 1.421 . S
C173 C175 1.417 . S
C173 C185 1.422 . S
C174 C172 1.422 . S
C174 C173 1.421 . S
C174 N184 1.359 . S
C175 C173 1.417 . S
C175 C177 1.329 . S
C175 H194 0.930 . S
C176 C172 1.415 . S
C176 C177 1.437 . S
C176 C180 1.413 . S
C177 C175 1.329 . S
C177 C176 1.437 . S
C177 H199 0.929 . S
N178 C172 1.369 . S
N178 C179 1.338 . S
N178 Gd183 2.622 . S
C179 N178 1.338 . S
C179 C181 1.378 . S
C179 H191 0.929 . S
C180 C176 1.413 . S
C180 C181 1.348 . S
C180 H196 0.931 . S
C181 C179 1.378 . S
C181 C180 1.348 . S
C181 H197 0.930 . S
Gd182 N202 2.622 . S
Gd182 N209 2.570 . S
Gd182 O216 2.353 . S
Gd182 O217 2.468 . S
Gd182 O218 2.427 . S
Gd182 O220 2.388 . S
Gd182 O221 2.386 . S
Gd182 O225 2.307 . S
Gd182 C235 2.805 . S
Gd183 N178 2.622 . S
Gd183 N184 2.570 . S
Gd183 O215 2.386 . S
Gd183 O219 2.307 . S
Gd183 O222 2.353 . S
Gd183 O223 2.468 . S
Gd183 O224 2.427 . S
Gd183 O226 2.388 . S
Gd183 C247 2.805 . S
N184 C174 1.359 . S
N184 Gd183 2.570 . S
N184 C186 1.343 . S
C185 C173 1.422 . S
C185 C187 1.321 . S
C185 H193 0.931 . S
C186 N184 1.343 . S
C186 C187 1.390 . S
C186 H188 0.931 . S
C187 C185 1.321 . S
C187 C186 1.390 . S
C187 H189 0.930 . S
H188 C186 0.931 . S
H189 C187 0.930 . S
H190 C213 0.931 . S
H191 C179 0.929 . S
H192 C214 0.930 . S
H193 C185 0.931 . S
H194 C175 0.930 . S
H195 C204 0.929 . S
H196 C180 0.931 . S
H197 C181 0.930 . S
H198 C236 0.930 . S
H199 C177 0.929 . S
H200 C205 0.931 . S
H201 C206 0.930 . S
N202 Gd182 2.622 . S
N202 C203 1.369 . S
N202 C204 1.338 . S
C203 N202 1.369 . S
C203 C207 1.415 . S
C203 C210 1.422 . S
C204 H195 0.929 . S
C204 N202 1.338 . S
C204 C206 1.378 . S
C205 H200 0.931 . S
C205 C206 1.348 . S
C205 C207 1.413 . S
C206 H201 0.930 . S
C206 C204 1.378 . S
C206 C205 1.348 . S
C207 C203 1.415 . S
C207 C205 1.413 . S
C207 C237 1.437 . S
H208 C237 0.929 . S
N209 Gd182 2.570 . S
N209 C210 1.359 . S
N209 C213 1.343 . S
C210 C203 1.422 . S
C210 N209 1.359 . S
C210 C212 1.421 . S
C211 C212 1.422 . S
C211 C214 1.321 . S
C211 H238 0.931 . S
C212 C210 1.421 . S
C212 C211 1.422 . S
C212 C236 1.417 . S
C213 H190 0.931 . S
C213 N209 1.343 . S
C213 C214 1.390 . S
C214 H192 0.930 . S
C214 C211 1.321 . S
C214 C213 1.390 . S
O215 Gd183 2.386 . S
O215 C227 1.265 . S
O216 Gd182 2.353 . S
O216 C227 1.242 . S
O217 Gd182 2.468 . S
O217 C235 1.263 . S
O218 Gd182 2.427 . S
O218 C235 1.252 . S
O219 Gd183 2.307 . S
O219 C228 1.261 . S
O220 Gd182 2.388 . S
O220 C228 1.252 . S
O221 Gd182 2.386 . S
O221 C239 1.265 . S
O222 Gd183 2.353 . S
O222 C239 1.242 . S
O223 Gd183 2.468 . S
O223 C247 1.263 . S
O224 Gd183 2.427 . S
O224 C247 1.252 . S
O225 Gd182 2.307 . S
O225 C240 1.261 . S
O226 Gd183 2.388 . S
O226 C240 1.252 . S
C227 O215 1.265 . S
C227 O216 1.242 . S
C228 O219 1.261 . S
C228 O220 1.252 . S
C229 C232 1.394 . S
C229 C234 1.370 . S
C229 C235 1.500 . S
C230 C233 1.383 . S
C230 C234 1.395 . S
C231 C232 1.396 . S
C231 C233 1.365 . S
C231 H248 0.929 . S
C232 C229 1.394 . S
C232 C231 1.396 . S
C232 H249 0.930 . S
C233 C230 1.383 . S
C233 C231 1.365 . S
C233 H250 0.931 . S
C234 C229 1.370 . S
C234 C230 1.395 . S
C234 H251 0.930 . S
C235 Gd182 2.805 . S
C235 O217 1.263 . S
C235 O218 1.252 . S
C235 C229 1.500 . S
C236 H198 0.930 . S
C236 C212 1.417 . S
C236 C237 1.329 . S
C237 C207 1.437 . S
C237 H208 0.929 . S
C237 C236 1.329 . S
H238 C211 0.931 . S
C239 O221 1.265 . S
C239 O222 1.242 . S
C240 O225 1.261 . S
C240 O226 1.252 . S
C241 C244 1.394 . S
C241 C246 1.370 . S
C241 C247 1.500 . S
C242 C245 1.383 . S
C242 C246 1.395 . S
C243 C244 1.396 . S
C243 C245 1.365 . S
C243 H252 0.929 . S
C244 C241 1.394 . S
C244 C243 1.396 . S
C244 H253 0.930 . S
C245 C242 1.383 . S
C245 C243 1.365 . S
C245 H254 0.931 . S
C246 C241 1.370 . S
C246 C242 1.395 . S
C246 H255 0.930 . S
C247 Gd183 2.805 . S
C247 O223 1.263 . S
C247 O224 1.252 . S
C247 C241 1.500 . S
H248 C231 0.929 . S
H249 C232 0.930 . S
H250 C233 0.931 . S
H251 C234 0.930 . S
H252 C243 0.929 . S
H253 C244 0.930 . S
H254 C245 0.931 . S
H255 C246 0.930 . S
C256 C258 1.422 . S
C256 C260 1.415 . S
C256 N262 1.369 . S
C257 C258 1.421 . S
C257 C259 1.417 . S
C257 C269 1.422 . S
C258 C256 1.422 . S
C258 C257 1.421 . S
C258 N268 1.359 . S
C259 C257 1.417 . S
C259 C261 1.329 . S
C259 H278 0.930 . S
C260 C256 1.415 . S
C260 C261 1.437 . S
C260 C264 1.413 . S
C261 C259 1.329 . S
C261 C260 1.437 . S
C261 H283 0.929 . S
N262 C256 1.369 . S
N262 C263 1.338 . S
N262 Gd267 2.622 . S
C263 N262 1.338 . S
C263 C265 1.378 . S
C263 H275 0.929 . S
C264 C260 1.413 . S
C264 C265 1.348 . S
C264 H280 0.931 . S
C265 C263 1.378 . S
C265 C264 1.348 . S
C265 H281 0.930 . S
Gd266 N286 2.622 . S
Gd266 N293 2.570 . S
Gd266 O300 2.353 1_455 S
Gd266 O301 2.468 . S
Gd266 O302 2.427 . S
Gd266 O304 2.388 . S
Gd266 O305 2.386 . S
Gd266 O309 2.293 1_455 S
Gd266 C319 2.805 . S
Gd267 N262 2.622 . S
Gd267 N268 2.570 . S
Gd267 O299 2.386 . S
Gd267 O303 2.307 1_655 S
Gd267 O306 2.353 1_655 S
Gd267 O307 2.468 . S
Gd267 O308 2.427 . S
Gd267 O310 2.388 . S
Gd267 C331 2.805 . S
N268 C258 1.359 . S
N268 Gd267 2.570 . S
N268 C270 1.343 . S
C269 C257 1.422 . S
C269 C271 1.321 . S
C269 H277 0.931 . S
C270 N268 1.343 . S
C270 C271 1.390 . S
C270 H272 0.931 . S
C271 C269 1.321 . S
C271 C270 1.390 . S
C271 H273 0.930 . S
H272 C270 0.931 . S
H273 C271 0.930 . S
H274 C297 0.931 . S
H275 C263 0.929 . S
H276 C298 0.930 . S
H277 C269 0.931 . S
H278 C259 0.930 . S
H279 C288 0.929 . S
H280 C264 0.931 . S
H281 C265 0.930 . S
H282 C320 0.930 . S
H283 C261 0.929 . S
H284 C289 0.931 . S
H285 C290 0.930 . S
N286 Gd266 2.622 . S
N286 C287 1.369 . S
N286 C288 1.338 . S
C287 N286 1.369 . S
C287 C291 1.415 . S
C287 C294 1.422 . S
C288 H279 0.929 . S
C288 N286 1.338 . S
C288 C290 1.378 . S
C289 H284 0.931 . S
C289 C290 1.348 . S
C289 C291 1.413 . S
C290 H285 0.930 . S
C290 C288 1.378 . S
C290 C289 1.348 . S
C291 C287 1.415 . S
C291 C289 1.413 . S
C291 C321 1.437 . S
H292 C321 0.929 . S
N293 Gd266 2.570 . S
N293 C294 1.359 . S
N293 C297 1.343 1_565 S
C294 C287 1.422 . S
C294 N293 1.359 . S
C294 C296 1.421 1_565 S
C295 C296 1.422 . S
C295 C298 1.321 . S
C295 H322 0.931 . S
C296 C294 1.421 1_545 S
C296 C295 1.422 . S
C296 C320 1.417 . S
C297 H274 0.931 . S
C297 N293 1.343 1_545 S
C297 C298 1.390 . S
C298 H276 0.930 . S
C298 C295 1.321 . S
C298 C297 1.390 . S
O299 Gd267 2.386 . S
O299 C311 1.265 . S
O300 Gd266 2.353 1_655 S
O300 C311 1.242 . S
O301 Gd266 2.468 . S
O301 C319 1.263 . S
O302 Gd266 2.427 . S
O302 C319 1.252 . S
O303 Gd267 2.307 1_455 S
O303 C312 1.261 . S
O304 Gd266 2.388 . S
O304 C312 1.252 . S
O305 Gd266 2.386 . S
O305 C323 1.265 . S
O306 Gd267 2.353 1_455 S
O306 C323 1.242 . S
O307 Gd267 2.468 . S
O307 C331 1.263 . S
O308 Gd267 2.427 . S
O308 C331 1.252 . S
O309 Gd266 2.293 1_655 S
O309 C324 1.278 . S
O310 Gd267 2.388 . S
O310 C324 1.252 . S
C311 O299 1.265 . S
C311 O300 1.242 . S
C312 O303 1.261 . S
C312 O304 1.252 . S
C313 C316 1.394 . S
C313 C318 1.370 . S
C313 C319 1.500 . S
C314 C317 1.383 . S
C314 C318 1.395 . S
C315 C316 1.396 . S
C315 C317 1.365 . S
C315 H332 0.929 . S
C316 C313 1.394 . S
C316 C315 1.396 . S
C316 H333 0.930 . S
C317 C314 1.383 . S
C317 C315 1.365 . S
C317 H334 0.931 . S
C318 C313 1.370 . S
C318 C314 1.395 . S
C318 H335 0.930 . S
C319 Gd266 2.805 . S
C319 O301 1.263 . S
C319 O302 1.252 . S
C319 C313 1.500 . S
C320 H282 0.930 . S
C320 C296 1.417 . S
C320 C321 1.329 1_545 S
C321 C291 1.437 . S
C321 H292 0.929 . S
C321 C320 1.329 1_565 S
H322 C295 0.931 . S
C323 O305 1.265 . S
C323 O306 1.242 . S
C324 O309 1.278 . S
C324 O310 1.252 . S
C325 C328 1.394 . S
C325 C330 1.370 . S
C325 C331 1.500 . S
C326 C329 1.383 . S
C326 C330 1.395 . S
C327 C328 1.396 . S
C327 C329 1.365 . S
C327 H336 0.929 . S
C328 C325 1.394 . S
C328 C327 1.396 . S
C328 H337 0.930 . S
C329 C326 1.383 . S
C329 C327 1.365 . S
C329 H338 0.931 . S
C330 C325 1.370 . S
C330 C326 1.395 . S
C330 H339 0.930 . S
C331 Gd267 2.805 . S
C331 O307 1.263 . S
C331 O308 1.252 . S
C331 C325 1.500 . S
H332 C315 0.929 . S
H333 C316 0.930 . S
H334 C317 0.931 . S
H335 C318 0.930 . S
H336 C327 0.929 . S
H337 C328 0.930 . S
H338 C329 0.931 . S
H339 C330 0.930 . S
C340 C342 1.422 . S
C340 C344 1.415 . S
C340 N346 1.369 . S
C341 C342 1.421 . S
C341 C343 1.417 . S
C341 C353 1.422 . S
C342 C340 1.422 . S
C342 C341 1.421 . S
C342 N352 1.359 . S
C343 C341 1.417 . S
C343 C345 1.329 . S
C343 H362 0.930 . S
C344 C340 1.415 . S
C344 C345 1.437 . S
C344 C348 1.413 . S
C345 C343 1.329 . S
C345 C344 1.437 . S
C345 H367 0.929 . S
N346 C340 1.369 . S
N346 C347 1.338 . S
N346 Gd351 2.622 . S
C347 N346 1.338 . S
C347 C349 1.378 . S
C347 H359 0.929 . S
C348 C344 1.413 . S
C348 C349 1.348 . S
C348 H364 0.931 . S
C349 C347 1.378 . S
C349 C348 1.348 . S
C349 H365 0.930 . S
Gd350 N370 2.622 . S
Gd350 N377 2.570 . S
Gd350 O384 2.353 . S
Gd350 O385 2.468 . S
Gd350 O386 2.427 . S
Gd350 O388 2.388 . S
Gd350 O389 2.386 . S
Gd350 O393 2.307 . S
Gd350 C403 2.805 . S
Gd351 N346 2.622 . S
Gd351 N352 2.570 . S
Gd351 O383 2.386 . S
Gd351 O387 2.307 . S
Gd351 O390 2.353 . S
Gd351 O391 2.468 . S
Gd351 O392 2.427 . S
Gd351 O394 2.388 . S
Gd351 C415 2.805 . S
N352 C342 1.359 . S
N352 Gd351 2.570 . S
N352 C354 1.343 . S
C353 C341 1.422 . S
C353 C355 1.321 . S
C353 H361 0.931 . S
C354 N352 1.343 . S
C354 C355 1.390 . S
C354 H356 0.931 . S
C355 C353 1.321 . S
C355 C354 1.390 . S
C355 H357 0.930 . S
H356 C354 0.931 . S
H357 C355 0.930 . S
H358 C381 0.931 . S
H359 C347 0.929 . S
H360 C382 0.930 . S
H361 C353 0.931 . S
H362 C343 0.930 . S
H363 C372 0.929 . S
H364 C348 0.931 . S
H365 C349 0.930 . S
H366 C404 0.930 . S
H367 C345 0.929 . S
H368 C373 0.931 . S
H369 C374 0.930 . S
N370 Gd350 2.622 . S
N370 C371 1.369 . S
N370 C372 1.338 . S
C371 N370 1.369 . S
C371 C375 1.415 . S
C371 C378 1.422 . S
C372 H363 0.929 . S
C372 N370 1.338 . S
C372 C374 1.378 . S
C373 H368 0.931 . S
C373 C374 1.348 . S
C373 C375 1.413 . S
C374 H369 0.930 . S
C374 C372 1.378 . S
C374 C373 1.348 . S
C375 C371 1.415 . S
C375 C373 1.413 . S
C375 C405 1.437 . S
H376 C405 0.929 . S
N377 Gd350 2.570 . S
N377 C378 1.359 . S
N377 C381 1.343 . S
C378 C371 1.422 . S
C378 N377 1.359 . S
C378 C380 1.421 . S
C379 C380 1.422 . S
C379 C382 1.321 . S
C379 H406 0.931 . S
C380 C378 1.421 . S
C380 C379 1.422 . S
C380 C404 1.417 . S
C381 H358 0.931 . S
C381 N377 1.343 . S
C381 C382 1.390 . S
C382 H360 0.930 . S
C382 C379 1.321 . S
C382 C381 1.390 . S
O383 Gd351 2.386 . S
O383 C395 1.265 . S
O384 Gd350 2.353 . S
O384 C395 1.242 . S
O385 Gd350 2.468 . S
O385 C403 1.263 . S
O386 Gd350 2.427 . S
O386 C403 1.252 . S
O387 Gd351 2.307 . S
O387 C396 1.261 . S
O388 Gd350 2.388 . S
O388 C396 1.252 . S
O389 Gd350 2.386 . S
O389 C407 1.265 . S
O390 Gd351 2.353 . S
O390 C407 1.242 . S
O391 Gd351 2.468 . S
O391 C415 1.263 . S
O392 Gd351 2.427 . S
O392 C415 1.252 . S
O393 Gd350 2.307 . S
O393 C408 1.261 . S
O394 Gd351 2.388 . S
O394 C408 1.252 . S
C395 O383 1.265 . S
C395 O384 1.242 . S
C396 O387 1.261 . S
C396 O388 1.252 . S
C397 C400 1.394 . S
C397 C402 1.370 . S
C397 C403 1.500 . S
C398 C401 1.383 . S
C398 C402 1.395 . S
C399 C400 1.396 . S
C399 C401 1.365 . S
C399 H416 0.929 . S
C400 C397 1.394 . S
C400 C399 1.396 . S
C400 H417 0.930 . S
C401 C398 1.383 . S
C401 C399 1.365 . S
C401 H418 0.931 . S
C402 C397 1.370 . S
C402 C398 1.395 . S
C402 H419 0.930 . S
C403 Gd350 2.805 . S
C403 O385 1.263 . S
C403 O386 1.252 . S
C403 C397 1.500 . S
C404 H366 0.930 . S
C404 C380 1.417 . S
C404 C405 1.329 . S
C405 C375 1.437 . S
C405 H376 0.929 . S
C405 C404 1.329 . S
H406 C379 0.931 . S
C407 O389 1.265 . S
C407 O390 1.242 . S
C408 O393 1.261 . S
C408 O394 1.252 . S
C409 C412 1.394 . S
C409 C414 1.370 . S
C409 C415 1.500 . S
C410 C413 1.383 . S
C410 C414 1.395 . S
C411 C412 1.396 . S
C411 C413 1.365 . S
C411 H420 0.929 . S
C412 C409 1.394 . S
C412 C411 1.396 . S
C412 H421 0.930 . S
C413 C410 1.383 . S
C413 C411 1.365 . S
C413 H422 0.931 . S
C414 C409 1.370 . S
C414 C410 1.395 . S
C414 H423 0.930 . S
C415 Gd351 2.805 . S
C415 O391 1.263 . S
C415 O392 1.252 . S
C415 C409 1.500 . S
H416 C399 0.929 . S
H417 C400 0.930 . S
H418 C401 0.931 . S
H419 C402 0.930 . S
H420 C411 0.929 . S
H421 C412 0.930 . S
H422 C413 0.931 . S
H423 C414 0.930 . S
C424 C425 1.369 . S
C424 C426 1.419 . S
C424 H428 0.930 . S
C425 C424 1.369 . S
C425 C434 1.429 . S
C426 C424 1.419 . S
C426 C427 1.363 . S
C426 H429 0.929 . S
C427 C426 1.363 . S
C427 C433 1.428 1_565 S
H428 C424 0.930 . S
H429 C426 0.929 . S
S430 N431 1.613 1_545 S
S430 N432 1.610 . S
N431 S430 1.613 1_565 S
N431 C434 1.350 . S
N432 S430 1.610 . S
N432 C433 1.351 . S
C433 C427 1.428 1_545 S
C433 N432 1.351 . S
C433 C434 1.434 1_545 S
C434 C425 1.429 . S
C434 N431 1.350 . S
C434 C433 1.434 1_565 S
C435 C436 1.369 . S
C435 C437 1.419 . S
C435 H439 0.930 . S
C436 C435 1.369 . S
C436 C445 1.429 . S
C437 C435 1.419 . S
C437 C438 1.363 . S
C437 H440 0.929 . S
C438 C437 1.363 . S
C438 C444 1.428 . S
H439 C435 0.930 . S
H440 C437 0.929 . S
S441 N442 1.613 . S
S441 N443 1.610 . S
N442 S441 1.613 . S
N442 C445 1.350 . S
N443 S441 1.610 . S
N443 C444 1.351 . S
C444 C438 1.428 . S
C444 N443 1.351 . S
C444 C445 1.434 . S
C445 C436 1.429 . S
C445 N442 1.350 . S
C445 C444 1.434 . S
C446 C447 1.369 . S
C446 C448 1.419 . S
C446 H450 0.930 . S
C447 C446 1.369 . S
C447 C456 1.429 . S
C448 C446 1.419 . S
C448 C449 1.363 . S
C448 H451 0.929 . S
C449 C448 1.363 . S
C449 C455 1.428 . S
H450 C446 0.930 . S
H451 C448 0.929 . S
S452 N453 1.613 . S
S452 N454 1.610 . S
N453 S452 1.613 . S
N453 C456 1.350 . S
N454 S452 1.610 . S
N454 C455 1.351 . S
C455 C449 1.428 . S
C455 N454 1.351 . S
C455 C456 1.434 . S
C456 C447 1.429 . S
C456 N453 1.350 . S
C456 C455 1.434 . S
C457 C458 1.369 . S
C457 C459 1.419 1_565 S
C457 H461 0.930 . S
C458 C457 1.369 . S
C458 C467 1.429 . S
C459 C457 1.419 1_545 S
C459 C460 1.363 . S
C459 H462 0.929 . S
C460 C459 1.363 . S
C460 C466 1.428 1_545 S
H461 C457 0.930 . S
H462 C459 0.929 . S
S463 N464 1.613 . S
S463 N465 1.610 . S
N464 S463 1.613 . S
N464 C467 1.350 . S
N465 S463 1.610 . S
N465 C466 1.351 . S
C466 C460 1.428 1_565 S
C466 N465 1.351 . S
C466 C467 1.434 . S
C467 C458 1.429 . S
C467 N464 1.350 . S
C467 C466 1.434 . S
C468 C469 1.369 . S
C468 C470 1.419 . S
C468 H472 0.930 . S
C469 C468 1.369 . S
C469 C478 1.429 . S
C470 C468 1.419 . S
C470 C471 1.355 1_545 S
C470 H473 0.929 . S
C471 C470 1.355 1_565 S
C471 C477 1.419 1_565 S
H472 C468 0.930 . S
H473 C470 0.929 . S
S474 N475 1.613 . S
S474 N476 1.610 . S
N475 S474 1.613 . S
N475 C478 1.350 . S
N476 S474 1.610 . S
N476 C477 1.351 . S
C477 C471 1.419 1_545 S
C477 N476 1.351 . S
C477 C478 1.434 . S
C478 C469 1.429 . S
C478 N475 1.350 . S
C478 C477 1.434 . S
C479 C480 1.369 . S
C479 C481 1.419 . S
C479 H483 0.930 . S
C480 C479 1.369 . S
C480 C489 1.429 . S
C481 C479 1.419 . S
C481 C482 1.363 . S
C481 H484 0.929 . S
C482 C481 1.363 . S
C482 C488 1.428 . S
H483 C479 0.930 . S
H484 C481 0.929 . S
S485 N486 1.613 . S
S485 N487 1.610 . S
N486 S485 1.613 . S
N486 C489 1.350 . S
N487 S485 1.610 . S
N487 C488 1.351 . S
C488 C482 1.428 . S
C488 N487 1.351 . S
C488 C489 1.434 . S
C489 C480 1.429 . S
C489 N486 1.350 . S
C489 C488 1.434 . S
C490 C491 1.369 . S
C490 C492 1.419 . S
C490 H494 0.930 . S
C491 C490 1.369 . S
C491 C500 1.429 . S
C492 C490 1.419 . S
C492 C493 1.363 . S
C492 H495 0.929 . S
C493 C492 1.363 . S
C493 C499 1.428 . S
H494 C490 0.930 . S
H495 C492 0.929 . S
S496 N497 1.613 . S
S496 N498 1.610 . S
N497 S496 1.613 . S
N497 C500 1.350 . S
N498 S496 1.610 . S
N498 C499 1.351 . S
C499 C493 1.428 . S
C499 N498 1.351 . S
C499 C500 1.434 . S
C500 C491 1.429 . S
C500 N497 1.350 . S
C500 C499 1.434 . S
C501 C502 1.369 . S
C501 C503 1.419 . S
C501 H505 0.930 . S
C502 C501 1.369 . S
C502 C511 1.429 . S
C503 C501 1.419 . S
C503 C504 1.363 1_545 S
C503 H506 0.929 . S
C504 C503 1.363 1_565 S
C504 C510 1.428 . S
H505 C501 0.930 . S
H506 C503 0.929 . S
S507 N508 1.613 1_565 S
S507 N509 1.610 . S
N508 S507 1.613 1_545 S
N508 C511 1.350 . S
N509 S507 1.610 . S
N509 C510 1.351 . S
C510 C504 1.428 . S
C510 N509 1.351 . S
C510 C511 1.434 1_565 S
C511 C502 1.429 . S
C511 N508 1.350 . S
C511 C510 1.434 1_545 S
C512 C513 1.369 . S
C512 C514 1.419 1_556 S
C512 H516 0.930 . S
C513 C512 1.369 . S
C513 C522 1.429 . S
C514 C512 1.419 1_554 S
C514 C515 1.363 . S
C514 H517 0.929 . S
C515 C514 1.363 . S
C515 C521 1.428 . S
H516 C512 0.930 . S
H517 C514 0.929 . S
S518 N519 1.613 1_554 S
S518 N520 1.610 . S
N519 S518 1.613 1_556 S
N519 C522 1.350 . S
N520 S518 1.610 . S
N520 C521 1.351 . S
C521 C515 1.428 . S
C521 N520 1.351 . S
C521 C522 1.434 1_554 S
C522 C513 1.429 . S
C522 N519 1.350 . S
C522 C521 1.434 1_556 S
C523 C524 1.369 . S
C523 C525 1.419 . S
C523 H527 0.930 . S
C524 C523 1.369 . S
C524 C533 1.429 . S
C525 C523 1.419 . S
C525 C526 1.363 . S
C525 H528 0.929 . S
C526 C525 1.363 . S
C526 C532 1.428 . S
H527 C523 0.930 . S
H528 C525 0.929 . S
S529 N530 1.613 . S
S529 N531 1.610 . S
N530 S529 1.613 . S
N530 C533 1.350 . S
N531 S529 1.610 . S
N531 C532 1.351 . S
C532 C526 1.428 . S
C532 N531 1.351 . S
C532 C533 1.434 . S
C533 C524 1.429 . S
C533 N530 1.350 . S
C533 C532 1.434 . S
C534 C535 1.369 . S
C534 C536 1.419 1_554 S
C534 H538 0.930 . S
C535 C534 1.369 . S
C535 C544 1.429 . S
C536 C534 1.419 1_556 S
C536 C537 1.363 . S
C536 H539 0.929 . S
C537 C536 1.363 . S
C537 C543 1.428 . S
H538 C534 0.930 . S
H539 C536 0.929 . S
S540 N541 1.613 1_556 S
S540 N542 1.610 . S
N541 S540 1.613 1_554 S
N541 C544 1.350 . S
N542 S540 1.610 . S
N542 C543 1.351 . S
C543 C537 1.428 . S
C543 N542 1.351 . S
C543 C544 1.434 1_556 S
C544 C535 1.429 . S
C544 N541 1.350 . S
C544 C543 1.434 1_554 S
C545 C546 1.369 . S
C545 C547 1.419 . S
C545 H549 0.930 . S
C546 C545 1.369 . S
C546 C555 1.429 . S
C547 C545 1.419 . S
C547 C548 1.363 . S
C547 H550 0.929 . S
C548 C547 1.363 . S
C548 C554 1.428 . S
H549 C545 0.930 . S
H550 C547 0.929 . S
S551 N552 1.613 1_455 S
S551 N553 1.610 1_455 S
N552 S551 1.613 1_655 S
N552 C555 1.350 . S
N553 S551 1.610 1_655 S
N553 C554 1.351 . S
C554 C548 1.428 . S
C554 N553 1.351 . S
C554 C555 1.434 . S
C555 C546 1.429 . S
C555 N552 1.350 . S
C555 C554 1.434 . S
C556 C557 1.369 . S
C556 C558 1.419 . S
C556 H560 0.930 . S
C557 C556 1.369 . S
C557 C566 1.429 . S
C558 C556 1.419 . S
C558 C559 1.363 1_554 S
C558 H561 0.929 . S
C559 C558 1.363 1_556 S
C559 C565 1.428 . S
H560 C556 0.930 . S
H561 C558 0.929 . S
S562 N563 1.613 1_556 S
S562 N564 1.610 . S
N563 S562 1.613 1_554 S
N563 C566 1.350 . S
N564 S562 1.610 . S
N564 C565 1.351 . S
C565 C559 1.428 . S
C565 N564 1.351 . S
C565 C566 1.434 1_556 S
C566 C557 1.429 . S
C566 N563 1.350 . S
C566 C565 1.434 1_554 S
C567 C568 1.369 . S
C567 C569 1.419 . S
C567 H571 0.930 . S
C568 C567 1.369 . S
C568 C577 1.429 . S
C569 C567 1.419 . S
C569 C570 1.363 . S
C569 H572 0.929 . S
C570 C569 1.363 . S
C570 C576 1.428 . S
H571 C567 0.930 . S
H572 C569 0.929 . S
S573 N574 1.613 . S
S573 N575 1.610 . S
N574 S573 1.613 . S
N574 C577 1.350 . S
N575 S573 1.610 . S
N575 C576 1.351 . S
C576 C570 1.428 . S
C576 N575 1.351 . S
C576 C577 1.434 . S
C577 C568 1.429 . S
C577 N574 1.350 . S
C577 C576 1.434 . S
C578 C579 1.369 . S
C578 C580 1.437 . S
C578 H582 0.930 . S
C579 C578 1.369 . S
C579 C588 1.429 . S
C580 C578 1.437 . S
C580 C581 1.347 1_556 S
C580 H583 0.927 1_556 S
C581 C580 1.347 1_554 S
C581 C587 1.428 . S
H582 C578 0.930 . S
H583 C580 0.927 1_554 S
S584 N585 1.613 1_554 S
S584 N586 1.610 . S
N585 S584 1.613 1_556 S
N585 C588 1.350 . S
N586 S584 1.610 . S
N586 C587 1.351 . S
C587 C581 1.428 . S
C587 N586 1.351 . S
C587 C588 1.434 1_554 S
C588 C579 1.429 . S
C588 N585 1.350 . S
C588 C587 1.434 1_556 S
C589 C590 1.369 . S
C589 C591 1.419 . S
C589 H593 0.930 . S
C590 C589 1.369 . S
C590 C599 1.429 . S
C591 C589 1.419 . S
C591 C592 1.363 . S
C591 H594 0.929 . S
C592 C591 1.363 . S
C592 C598 1.428 . S
H593 C589 0.930 . S
H594 C591 0.929 . S
S595 N596 1.613 . S
S595 N597 1.610 . S
N596 S595 1.613 . S
N596 C599 1.350 . S
N597 S595 1.610 . S
N597 C598 1.351 . S
C598 C592 1.428 . S
C598 N597 1.351 . S
C598 C599 1.434 . S
C599 C590 1.429 . S
C599 N596 1.350 . S
C599 C598 1.434 . S
C600 C601 1.369 . S
C600 C602 1.419 . S
C600 H604 0.930 . S
C601 C600 1.369 . S
C601 C610 1.429 . S
C602 C600 1.419 . S
C602 C603 1.363 . S
C602 H605 0.929 . S
C603 C602 1.363 . S
C603 C609 1.428 . S
H604 C600 0.930 . S
H605 C602 0.929 . S
S606 N607 1.613 . S
S606 N608 1.610 . S
N607 S606 1.613 . S
N607 C610 1.350 . S
N608 S606 1.610 . S
N608 C609 1.351 . S
C609 C603 1.428 . S
C609 N608 1.351 . S
C609 C610 1.434 . S
C610 C601 1.429 . S
C610 N607 1.350 . S
C610 C609 1.434 . S
C611 C612 1.369 . S
C611 C613 1.419 . S
C611 H615 0.930 . S
C612 C611 1.369 . S
C612 C621 1.429 . S
C613 C611 1.419 . S
C613 C614 1.363 . S
C613 H616 0.929 . S
C614 C613 1.363 . S
C614 C620 1.428 . S
H615 C611 0.930 . S
H616 C613 0.929 . S
S617 N618 1.613 . S
S617 N619 1.610 . S
N618 S617 1.613 . S
N618 C621 1.350 . S
N619 S617 1.610 . S
N619 C620 1.351 . S
C620 C614 1.428 . S
C620 N619 1.351 . S
C620 C621 1.434 . S
C621 C612 1.429 . S
C621 N618 1.350 . S
C621 C620 1.434 . S
C622 C623 1.369 . S
C622 C624 1.419 . S
C622 H626 0.930 . S
C623 C622 1.369 . S
C623 C632 1.429 . S
C624 C622 1.419 . S
C624 C625 1.363 . S
C624 H627 0.929 . S
C625 C624 1.363 . S
C625 C631 1.428 . S
H626 C622 0.930 . S
H627 C624 0.929 . S
S628 N629 1.613 . S
S628 N630 1.610 . S
N629 S628 1.613 . S
N629 C632 1.350 . S
N630 S628 1.610 . S
N630 C631 1.351 . S
C631 C625 1.428 . S
C631 N630 1.351 . S
C631 C632 1.434 . S
C632 C623 1.429 . S
C632 N629 1.350 . S
C632 C631 1.434 . S
C633 C634 1.369 . S
C633 C635 1.419 . S
C633 H637 0.930 . S
C634 C633 1.369 . S
C634 C643 1.429 . S
C635 C633 1.419 . S
C635 C636 1.363 . S
C635 H638 0.929 . S
C636 C635 1.363 . S
C636 C642 1.428 . S
H637 C633 0.930 . S
H638 C635 0.929 . S
S639 N640 1.613 . S
S639 N641 1.610 . S
N640 S639 1.613 . S
N640 C643 1.350 . S
N641 S639 1.610 . S
N641 C642 1.351 . S
C642 C636 1.428 . S
C642 N641 1.351 . S
C642 C643 1.434 . S
C643 C634 1.429 . S
C643 N640 1.350 . S
C643 C642 1.434 . S
C644 C645 1.369 . S
C644 C646 1.419 . S
C644 H648 0.930 . S
C645 C644 1.369 . S
C645 C654 1.429 . S
C646 C644 1.419 . S
C646 C647 1.363 . S
C646 H649 0.929 . S
C647 C646 1.363 . S
C647 C653 1.428 . S
H648 C644 0.930 . S
H649 C646 0.929 . S
S650 N651 1.613 . S
S650 N652 1.610 . S
N651 S650 1.613 . S
N651 C654 1.350 . S
N652 S650 1.610 . S
N652 C653 1.351 . S
C653 C647 1.428 . S
C653 N652 1.351 . S
C653 C654 1.434 . S
C654 C645 1.429 . S
C654 N651 1.350 . S
C654 C653 1.434 . S
C655 C656 1.369 . S
C655 C657 1.419 . S
C655 H659 0.930 . S
C656 C655 1.369 . S
C656 C665 1.429 . S
C657 C655 1.419 . S
C657 C658 1.363 . S
C657 H660 0.929 . S
C658 C657 1.363 . S
C658 C664 1.428 . S
H659 C655 0.930 . S
H660 C657 0.929 . S
S661 N662 1.613 . S
S661 N663 1.610 . S
N662 S661 1.613 . S
N662 C665 1.350 . S
N663 S661 1.610 . S
N663 C664 1.351 . S
C664 C658 1.428 . S
C664 N663 1.351 . S
C664 C665 1.434 . S
C665 C656 1.429 . S
C665 N662 1.350 . S
C665 C664 1.434 . S
C666 C667 1.369 . S
C666 C668 1.419 . S
C666 H670 0.930 . S
C667 C666 1.369 . S
C667 C676 1.429 . S
C668 C666 1.419 . S
C668 C669 1.363 . S
C668 H671 0.929 . S
C669 C668 1.363 . S
C669 C675 1.428 . S
H670 C666 0.930 . S
H671 C668 0.929 . S
S672 N673 1.613 . S
S672 N674 1.610 . S
N673 S672 1.613 . S
N673 C676 1.350 . S
N674 S672 1.610 . S
N674 C675 1.351 . S
C675 C669 1.428 . S
C675 N674 1.351 . S
C675 C676 1.434 . S
C676 C667 1.429 . S
C676 N673 1.350 . S
C676 C675 1.434 . S
C677 C678 1.369 . S
C677 C679 1.419 . S
C677 H681 0.930 . S
C678 C677 1.369 . S
C678 C687 1.429 . S
C679 C677 1.419 . S
C679 C680 1.363 . S
C679 H682 0.929 . S
C680 C679 1.363 . S
C680 C686 1.428 . S
H681 C677 0.930 . S
H682 C679 0.929 . S
S683 N684 1.613 . S
S683 N685 1.610 . S
N684 S683 1.613 . S
N684 C687 1.350 . S
N685 S683 1.610 . S
N685 C686 1.351 . S
C686 C680 1.428 . S
C686 N685 1.351 . S
C686 C687 1.434 . S
C687 C678 1.429 . S
C687 N684 1.350 . S
C687 C686 1.434 . S
C425 C71 1.656 . S
C427 C144 1.646 1_565 S
C438 C228 1.635 . S
C436 C81 1.636 . S
C449 C227 1.648 . S
C447 C49 1.654 . S
C458 C59 1.633 . S
C460 C143 1.632 . S
C471 C324 1.663 . S
C469 C27 1.658 . S
C482 C408 1.678 . S
C480 C38 1.690 . S
C491 C5 1.654 . S
C493 C407 1.650 . S
C502 C16 1.685 . S
C504 C323 1.686 . S
C515 C146 1.386 . S
C513 C15 1.556 . S
C526 C230 1.413 . S
C524 C4 1.573 . S
C537 C242 1.341 . S
C535 C37 1.555 . S
C548 C158 1.348 . S
C546 C26 1.570 . S
C559 C326 1.457 . S
C557 C60 1.604 . S
C568 C48 1.622 . S
C570 C410 1.459 . S
C581 C398 1.370 . S
C579 C82 1.603 . S
C590 C70 1.624 . S
C592 C314 1.380 . S
C603 C155 1.492 . S
C601 C10 1.482 . S
C614 C239 1.529 . S
C612 C21 1.521 . S
C623 C32 1.475 . S
C625 C240 1.457 . S
C636 C156 1.490 . S
C634 C43 1.511 . S
C647 C311 1.567 . S
C645 C54 1.546 . S
C656 C65 1.528 . S
C658 C395 1.530 . S
C667 C76 1.545 . S
C669 C396 1.540 . S
C678 C87 1.522 . S
C680 C312 1.504 . S
