# Generated by pormake.
# Topology rtl, (3,6)-cn, num edge types: 1
# Building blocks:
#     Node 0, Type 0, BuildingBlock: BELTOD_clean_linker_0, # of connection points: 3
#     Node 1, Type 0, BuildingBlock: BELTOD_clean_linker_0, # of connection points: 3
#     Node 2, Type 0, BuildingBlock: BELTOD_clean_linker_0, # of connection points: 3
#     Node 3, Type 0, BuildingBlock: BELTOD_clean_linker_0, # of connection points: 3
#     Node 4, Type 1, BuildingBlock: CIFDUS_clean_sbu_1, # of connection points: 6
#     Node 5, Type 1, BuildingBlock: CIFDUS_clean_sbu_1, # of connection points: 6
#     Edge 6, Type (0, 1), BuildingBlock: EZIPEK_clean_linker_0, # of connection points: 2
#     Edge 7, Type (0, 1), BuildingBlock: EZIPEK_clean_linker_0, # of connection points: 2
#     Edge 8, Type (0, 1), BuildingBlock: EZIPEK_clean_linker_0, # of connection points: 2
#     Edge 9, Type (0, 1), BuildingBlock: EZIPEK_clean_linker_0, # of connection points: 2
#     Edge 10, Type (0, 1), BuildingBlock: EZIPEK_clean_linker_0, # of connection points: 2
#     Edge 11, Type (0, 1), BuildingBlock: EZIPEK_clean_linker_0, # of connection points: 2
#     Edge 12, Type (0, 1), BuildingBlock: EZIPEK_clean_linker_0, # of connection points: 2
#     Edge 13, Type (0, 1), BuildingBlock: EZIPEK_clean_linker_0, # of connection points: 2
#     Edge 14, Type (0, 1), BuildingBlock: EZIPEK_clean_linker_0, # of connection points: 2
#     Edge 15, Type (0, 1), BuildingBlock: EZIPEK_clean_linker_0, # of connection points: 2
#     Edge 16, Type (0, 1), BuildingBlock: EZIPEK_clean_linker_0, # of connection points: 2
#     Edge 17, Type (0, 1), BuildingBlock: EZIPEK_clean_linker_0, # of connection points: 2
# Relax obj value: 0.026
# Max RMSD: 0.063
# Mean RMSD: 0.044
data_MOF--net-rtl--node1-CIFDUS_clean_sbu_1--node2-BELTOD_clean_linker_0--edge1-EZIPEK_clean_linker_0
_symmetry_space_group_name_H-M    P1
_symmetry_Int_Tables_number       1
_symmetry_cell_setting            triclinic
loop_
_symmetry_equiv_pos_as_xyz
'x, y, z'
_cell_length_a     26.822875
_cell_length_b     30.186972
_cell_length_c     20.803578
_cell_angle_alpha  89.265526
_cell_angle_beta   97.807569
_cell_angle_gamma 89.917585
loop_
_atom_site_label
_atom_site_type_symbol
_atom_site_fract_x
_atom_site_fract_y
_atom_site_fract_z
_atom_type_partial_charge
P0 P 0.31487 0.92361 0.10368 0.0
H1 H 0.34644 0.93937 0.2411 0.0
H2 H 0.30027 0.95655 0.33222 0.0
H3 H 0.16034 0.95247 0.20327 0.0
H4 H 0.20629 0.93527 0.11222 0.0
H5 H 0.40455 0.88538 0.06119 0.0
H6 H 0.43633 0.80919 0.06062 0.0
H7 H 0.31703 0.76493 0.16522 0.0
H8 H 0.28481 0.84123 0.16517 0.0
H9 H 0.30217 0.99367 0.00353 0.0
H10 H 0.2437 0.86265 0.03005 0.0
O11 O 0.36162 0.96024 0.10598 0.0
H12 H 0.2488 1.00032 0.89821 0.0
H13 H 0.18997 0.86957 0.92468 0.0
C14 C 0.27992 0.93625 0.16975 0.0
C15 C 0.30583 0.94233 0.23234 0.0
C16 C 0.27961 0.95223 0.28425 0.0
C17 C 0.22697 0.95617 0.27432 0.0
C18 C 0.201 0.94997 0.21175 0.0
C19 C 0.22726 0.94001 0.15984 0.0
C20 C 0.34255 0.86902 0.11362 0.0
C21 C 0.38586 0.85951 0.08533 0.0
C22 C 0.40414 0.81609 0.08523 0.0
C23 C 0.37914 0.78143 0.11306 0.0
C24 C 0.33714 0.79128 0.14411 0.0
C25 C 0.31869 0.83475 0.14385 0.0
C26 C 0.27717 0.92755 0.02465 0.0
C27 C 0.27844 0.96609 0.98643 0.0
C28 C 0.2483 0.96979 0.92607 0.0
C29 C 0.21608 0.93513 0.90314 0.0
C30 C 0.21524 0.89633 0.94097 0.0
C31 C 0.2456 0.89257 1.00125 0.0
P32 P 0.79707 0.63056 0.59466 0.0
H33 H 0.81935 0.61514 0.46352 0.0
H34 H 0.76721 0.60333 0.36129 0.0
H35 H 0.63554 0.6322 0.45064 0.0
H36 H 0.6881 0.6439 0.55282 0.0
H37 H 0.88573 0.66231 0.67751 0.0
H38 H 0.9297 0.73374 0.68471 0.0
H39 H 0.81676 0.78828 0.53747 0.0
H40 H 0.77164 0.71751 0.53232 0.0
H41 H 0.72855 0.55868 0.61806 0.0
H42 H 0.79385 0.67231 0.72147 0.0
O43 O 0.843 0.59308 0.59603 0.0
H44 H 0.6824 0.5408 0.70955 0.0
H45 H 0.74931 0.65364 0.81273 0.0
C46 C 0.75734 0.62582 0.51761 0.0
C47 C 0.77884 0.61655 0.4618 0.0
C48 C 0.74829 0.60814 0.40327 0.0
C49 C 0.69519 0.60542 0.39978 0.0
C50 C 0.67482 0.62386 0.45307 0.0
C51 C 0.70533 0.6325 0.51184 0.0
C52 C 0.82619 0.68434 0.60319 0.0
C53 C 0.87008 0.68983 0.6474 0.0
C54 C 0.89492 0.73058 0.65193 0.0
C55 C 0.87696 0.76603 0.61084 0.0
C56 C 0.8315 0.76119 0.56916 0.0
C57 C 0.80603 0.72069 0.56575 0.0
C58 C 0.76365 0.61748 0.66203 0.0
C59 C 0.73313 0.57964 0.66031 0.0
C60 C 0.70736 0.5691 0.71266 0.0
C61 C 0.71266 0.59587 0.76781 0.0
C62 C 0.74501 0.63249 0.77066 0.0
C63 C 0.7701 0.64333 0.7181 0.0
P64 P 0.80686 0.19996 0.99603 0.0
H65 H 0.87035 0.20698 0.89317 0.0
H66 H 0.88485 0.15862 0.80472 0.0
H67 H 0.76912 0.07018 0.85326 0.0
H68 H 0.75551 0.11844 0.9445 0.0
H69 H 0.78473 0.2804 0.06079 0.0
H70 H 0.71161 0.32967 0.05203 0.0
H71 H 0.63312 0.24632 0.90498 0.0
H72 H 0.70663 0.19626 0.91429 0.0
H73 H 0.87466 0.12689 0.03831 0.0
H74 H 0.76143 0.20238 0.11813 0.0
O75 O 0.85551 0.23481 0.00344 0.0
H76 H 0.90046 0.09238 0.14488 0.0
H77 H 0.78791 0.1682 0.22498 0.0
C78 C 0.81203 0.16625 0.9259 0.0
C79 C 0.84777 0.17738 0.88514 0.0
C80 C 0.85611 0.14974 0.83445 0.0
C81 C 0.82857 0.11052 0.82285 0.0
C82 C 0.79114 0.10008 0.86183 0.0
C83 C 0.78327 0.12764 0.91355 0.0
C84 C 0.75126 0.23462 0.98827 0.0
C85 C 0.75191 0.27258 0.02652 0.0
C86 C 0.71029 0.30084 0.02136 0.0
C87 C 0.66709 0.29184 0.97763 0.0
C88 C 0.66628 0.25397 0.93874 0.0
C89 C 0.70808 0.22532 0.94435 0.0
C90 C 0.81563 0.16685 0.0697 0.0
C91 C 0.85436 0.13516 0.07814 0.0
C92 C 0.86938 0.11569 0.13906 0.0
C93 C 0.84621 0.12787 0.19282 0.0
C94 C 0.80617 0.15832 0.18406 0.0
C95 C 0.791 0.17771 0.12289 0.0
P96 P 0.27655 0.35881 0.48835 0.0
H97 H 0.33757 0.32234 0.60311 0.0
H98 H 0.36774 0.35332 0.70916 0.0
H99 H 0.27283 0.46789 0.6632 0.0
H100 H 0.24346 0.4373 0.55522 0.0
H101 H 0.24627 0.29292 0.39112 0.0
H102 H 0.1845 0.23307 0.38669 0.0
H103 H 0.12444 0.28849 0.55019 0.0
H104 H 0.18635 0.3487 0.55463 0.0
H105 H 0.34591 0.43116 0.47841 0.0
H106 H 0.21281 0.37957 0.36426 0.0
O107 O 0.32468 0.32583 0.47763 0.0
H108 H 0.36834 0.46961 0.38227 0.0
H109 H 0.23529 0.41829 0.2682 0.0
C110 C 0.28939 0.37817 0.57063 0.0
C111 C 0.32258 0.35386 0.61584 0.0
C112 C 0.33951 0.37127 0.67668 0.0
C113 C 0.32274 0.41288 0.6938 0.0
C114 C 0.28607 0.43561 0.65077 0.0
C115 C 0.26962 0.41836 0.5892 0.0
C116 C 0.22154 0.32449 0.47419 0.0
C117 C 0.21869 0.29313 0.42463 0.0
C118 C 0.18322 0.25922 0.42161 0.0
C119 C 0.15031 0.25632 0.46833 0.0
C120 C 0.14961 0.29036 0.51368 0.0
C121 C 0.18516 0.32444 0.51658 0.0
C122 C 0.27797 0.40218 0.42853 0.0
C123 C 0.32017 0.42989 0.43358 0.0
C124 C 0.33306 0.45178 0.37867 0.0
C125 C 0.30384 0.44616 0.31812 0.0
C126 C 0.25826 0.42295 0.31461 0.0
C127 C 0.24558 0.40073 0.36957 0.0
O128 O 0.97013 0.04676 0.46992 0.0
Mn129 Mn 0.01388 0.01448 0.54926 0.0
O130 O 0.9412 0.99541 0.39756 0.0
Mn131 Mn 0.98347 0.95228 0.43683 0.0
O132 O 0.05806 0.98378 0.63069 0.0
O133 O 0.04099 0.07517 0.57524 0.0
Mn134 Mn 0.04167 0.08114 0.65931 0.0
O135 O 0.95365 0.02299 0.6037 0.0
O136 O 0.08584 0.03914 0.69798 0.0
O137 O 0.0745 0.00551 0.49473 0.0
O138 O 0.04868 0.95487 0.41903 0.0
O139 O 0.06563 0.1337 0.63213 0.0
O140 O 0.97648 0.07624 0.67663 0.0
C141 C 0.96557 0.91422 0.51557 0.0
C142 C 0.94345 0.03515 0.41663 0.0
C143 C 0.08526 0.99858 0.68212 0.0
C144 C 0.05956 0.11483 0.57608 0.0
C145 C 0.9448 0.0485 0.65004 0.0
C146 C 0.08208 0.9806 0.4469 0.0
O147 O 0.98449 0.95396 0.52225 0.0
O148 O 0.95779 0.89929 0.45694 0.0
O149 O 0.54418 0.5541 0.12179 0.0
Mn150 Mn 0.50257 0.52399 0.03936 0.0
O151 O 0.58455 0.49962 0.18048 0.0
Mn152 Mn 0.53972 0.45912 0.14337 0.0
O153 O 0.46165 0.49345 0.95728 0.0
O154 O 0.46888 0.58594 0.02144 0.0
Mn155 Mn 0.46463 0.58665 0.93523 0.0
O156 O 0.56261 0.5416 0.9882 0.0
O157 O 0.4189 0.54649 0.89883 0.0
O158 O 0.44324 0.50764 0.09125 0.0
O159 O 0.47677 0.46028 0.16924 0.0
O160 O 0.44006 0.6397 0.95051 0.0
O161 O 0.52675 0.58526 0.90789 0.0
C162 C 0.55394 0.42114 0.06517 0.0
C163 C 0.57697 0.54035 0.16874 0.0
C164 C 0.42766 0.50602 0.91109 0.0
C165 C 0.44756 0.62516 0.00999 0.0
C166 C 0.56546 0.56642 0.93818 0.0
C167 C 0.4399 0.48282 0.14107 0.0
O168 O 0.53421 0.46119 0.05712 0.0
O169 O 0.56495 0.4068 0.12446 0.0
C170 C 0.15565 0.17937 0.51431 0.0
C171 C 0.12614 0.21334 0.47974 0.0
C172 C 0.0498 0.16995 0.48562 0.0
C173 C 0.07952 0.13711 0.52186 0.0
N174 N 0.15997 0.10268 0.55079 0.0
N175 N 0.04773 0.23644 0.41793 0.0
C176 C 0.13236 0.139 0.52806 0.0
C177 C 0.07393 0.20695 0.46001 0.0
N178 N 0.20488 0.18683 0.53858 0.0
N179 N 0.99862 0.16692 0.47958 0.0
H180 H 0.06476 0.26402 0.3995 0.0
H181 H 0.01051 0.23166 0.39753 0.0
H182 H 0.98081 0.13919 0.49644 0.0
H183 H 0.97426 0.19191 0.45972 0.0
H184 H 0.22598 0.16518 0.57094 0.0
H185 H 0.22365 0.21627 0.53107 0.0
H186 H 0.1989 0.10074 0.55234 0.0
H187 H 0.14279 0.07301 0.56179 0.0
C188 C 0.43976 0.71676 0.13038 0.0
C189 C 0.39291 0.73464 0.10119 0.0
C190 C 0.37594 0.66584 0.04154 0.0
C191 C 0.42671 0.65272 0.05862 0.0
N192 N 0.50797 0.66538 0.1198 0.0
N193 N 0.31883 0.72783 0.02142 0.0
C194 C 0.45874 0.67751 0.10452 0.0
C195 C 0.36108 0.70931 0.05558 0.0
N196 N 0.46609 0.73757 0.1821 0.0
N197 N 0.34263 0.63714 0.00881 0.0
H198 H 0.30714 0.76021 0.02794 0.0
H199 H 0.29789 0.71241 0.98214 0.0
H200 H 0.35319 0.60505 0.99793 0.0
H201 H 0.30416 0.64355 0.99869 0.0
H202 H 0.4983 0.72419 0.20903 0.0
H203 H 0.45293 0.76635 0.20152 0.0
H204 H 0.53473 0.68459 0.14767 0.0
H205 H 0.52238 0.63677 0.10163 0.0
C206 C 0.88886 0.84865 0.62021 0.0
C207 C 0.90798 0.80652 0.60588 0.0
C208 C 0.98114 0.843 0.57071 0.0
C209 C 0.95569 0.88401 0.56875 0.0
N210 N 0.88509 0.92702 0.59234 0.0
N211 N 0.97072 0.7641 0.55926 0.0
C212 C 0.91005 0.8875 0.59543 0.0
C213 C 0.95441 0.80361 0.58034 0.0
N214 N 0.85018 0.85131 0.65639 0.0
N215 N 0.02991 0.84188 0.55878 0.0
H216 H 0.95106 0.73451 0.56128 0.0
H217 H 0.00139 0.76151 0.5337 0.0
H218 H 0.04947 0.87087 0.55059 0.0
H219 H 0.05182 0.81317 0.56359 0.0
H220 H 0.83739 0.88117 0.67281 0.0
H221 H 0.83427 0.82322 0.67505 0.0
H222 H 0.84897 0.93078 0.60466 0.0
H223 H 0.89996 0.95567 0.57406 0.0
C224 C 0.58354 0.31023 0.01296 0.0
C225 C 0.62256 0.32175 0.97612 0.0
C226 C 0.58993 0.39812 0.96459 0.0
C227 C 0.5597 0.38861 0.01317 0.0
N228 N 0.50883 0.3343 0.05766 0.0
N229 N 0.65876 0.37445 0.90797 0.0
C230 C 0.54989 0.34382 0.02781 0.0
C231 C 0.62363 0.36487 0.94776 0.0
N232 N 0.58143 0.26841 0.03841 0.0
N233 N 0.5844 0.43789 0.93297 0.0
H234 H 0.68231 0.3502 0.89299 0.0
H235 H 0.66542 0.40631 0.89143 0.0
H236 H 0.55793 0.46099 0.94377 0.0
H237 H 0.60122 0.44555 0.89199 0.0
H238 H 0.55783 0.25941 0.07213 0.0
H239 H 0.60508 0.24282 0.02796 0.0
H240 H 0.49677 0.30227 0.06629 0.0
H241 H 0.48419 0.35922 0.06813 0.0
C242 C 0.18353 0.0088 0.34225 0.0
C243 C 0.19852 0.96491 0.3298 0.0
C244 C 0.15413 0.93722 0.41767 0.0
C245 C 0.13128 0.97936 0.42123 0.0
N246 N 0.12505 0.0563 0.38917 0.0
N247 N 0.1978 0.88669 0.35464 0.0
C248 C 0.14706 0.01577 0.38522 0.0
C249 C 0.18438 0.92897 0.36797 0.0
N250 N 0.20418 0.04368 0.31284 0.0
N251 N 0.14633 0.90509 0.46208 0.0
H252 H 0.22085 0.87939 0.31961 0.0
H253 H 0.18358 0.85863 0.37529 0.0
H254 H 0.12487 0.9109 0.49945 0.0
H255 H 0.16484 0.87464 0.46592 0.0
H256 H 0.19871 0.07664 0.32429 0.0
H257 H 0.23027 0.03947 0.28048 0.0
H258 H 0.12991 0.08291 0.35835 0.0
H259 H 0.10019 0.06289 0.42221 0.0
C260 C 0.64225 0.62083 0.82542 0.0
C261 C 0.68008 0.58909 0.81943 0.0
C262 C 0.65386 0.54604 0.9107 0.0
C263 C 0.61408 0.57703 0.913 0.0
N264 N 0.59105 0.65409 0.89832 0.0
N265 N 0.7302 0.52714 0.86474 0.0
C266 C 0.61528 0.61784 0.87878 0.0
C267 C 0.68853 0.55326 0.86481 0.0
N268 N 0.63013 0.65274 0.77863 0.0
N269 N 0.65924 0.51071 0.95258 0.0
H270 H 0.75589 0.53196 0.83189 0.0
H271 H 0.74129 0.5025 0.89912 0.0
H272 H 0.64 0.5081 0.9926 0.0
H273 H 0.68341 0.48419 0.94879 0.0
H274 H 0.59914 0.67369 0.77822 0.0
H275 H 0.6476 0.65539 0.73692 0.0
H276 H 0.59369 0.68552 0.87767 0.0
H277 H 0.57367 0.65354 0.94032 0.0
C278 C 0.91508 0.12553 0.28744 0.0
C279 C 0.86693 0.11098 0.25876 0.0
C280 C 0.8636 0.06036 0.3511 0.0
C281 C 0.91533 0.06831 0.37222 0.0
N282 N 0.99205 0.10654 0.35702 0.0
N283 N 0.79571 0.06263 0.26141 0.0
C284 C 0.94142 0.10103 0.34032 0.0
C285 C 0.84084 0.07831 0.29057 0.0
N286 N 0.93554 0.16286 0.26411 0.0
N287 N 0.83646 0.03543 0.38918 0.0
H288 H 0.77783 0.07498 0.21715 0.0
H289 H 0.77778 0.03524 0.27872 0.0
H290 H 0.85227 0.02258 0.43423 0.0
H291 H 0.79763 0.03136 0.37936 0.0
H292 H 0.96824 0.17753 0.28703 0.0
H293 H 0.91709 0.18163 0.22555 0.0
H294 H 0.01399 0.12601 0.33018 0.0
H295 H 0.01295 0.0895 0.3954 0.0
C296 C 0.38993 0.46434 0.74267 0.0
C297 C 0.34994 0.43512 0.75163 0.0
C298 C 0.36578 0.44667 0.86964 0.0
C299 C 0.40628 0.47501 0.86014 0.0
N300 N 0.46534 0.5016 0.79139 0.0
N301 N 0.3036 0.39326 0.82307 0.0
C302 C 0.42085 0.48094 0.79767 0.0
C303 C 0.33916 0.4245 0.81514 0.0
N304 N 0.39794 0.47693 0.68149 0.0
N305 N 0.35187 0.4423 0.9302 0.0
H306 H 0.28195 0.37811 0.78401 0.0
H307 H 0.29727 0.38061 0.868 0.0
H308 H 0.37206 0.45681 0.97096 0.0
H309 H 0.31953 0.42595 0.93989 0.0
H310 H 0.42177 0.50277 0.67225 0.0
H311 H 0.37826 0.46388 0.63936 0.0
H312 H 0.48069 0.50342 0.74808 0.0
H313 H 0.4897 0.51292 0.83116 0.0
C314 C 0.68491 0.56703 0.28864 0.0
C315 C 0.66254 0.58695 0.33957 0.0
C316 C 0.58088 0.58481 0.2687 0.0
C317 C 0.60512 0.5705 0.21639 0.0
N318 N 0.68203 0.55666 0.17319 0.0
N319 N 0.58446 0.57913 0.38434 0.0
C320 C 0.65793 0.56557 0.22526 0.0
C321 C 0.60878 0.58724 0.33195 0.0
N322 N 0.72666 0.54099 0.30307 0.0
N323 N 0.53051 0.59366 0.25885 0.0
H324 H 0.60372 0.56737 0.4282 0.0
H325 H 0.54554 0.5757 0.38113 0.0
H326 H 0.50905 0.59116 0.21331 0.0
H327 H 0.51166 0.60758 0.29439 0.0
H328 H 0.7419 0.52254 0.26838 0.0
H329 H 0.74069 0.5322 0.35081 0.0
H330 H 0.72117 0.55545 0.17645 0.0
H331 H 0.66264 0.55491 0.12619 0.0
C332 C 0.83129 0.09731 0.70488 0.0
C333 C 0.84075 0.08122 0.76981 0.0
C334 C 0.8953 0.02351 0.7351 0.0
C335 C 0.89631 0.04714 0.67636 0.0
N336 N 0.86062 0.10182 0.59922 0.0
N337 N 0.87932 0.02658 0.84687 0.0
C338 C 0.86161 0.08186 0.65864 0.0
C339 C 0.87083 0.04266 0.78466 0.0
N340 N 0.79432 0.12816 0.68858 0.0
N341 N 0.91947 0.98366 0.74369 0.0
H342 H 0.8618 0.03948 0.8843 0.0
H343 H 0.90555 0.00187 0.86212 0.0
H344 H 0.93739 0.9699 0.70706 0.0
H345 H 0.91776 0.96285 0.78363 0.0
H346 H 0.78322 0.13958 0.64139 0.0
H347 H 0.77182 0.13956 0.72215 0.0
H348 H 0.84062 0.13069 0.58511 0.0
H349 H 0.8814 0.08944 0.56437 0.0
C350 C 0.33199 0.50102 0.23843 0.0
C351 C 0.32667 0.45639 0.25848 0.0
C352 C 0.37638 0.43208 0.17526 0.0
C353 C 0.39134 0.47638 0.16634 0.0
N354 N 0.38197 0.55426 0.18643 0.0
N355 N 0.34753 0.37881 0.24915 0.0
C356 C 0.36784 0.51146 0.1958 0.0
C357 C 0.34898 0.42156 0.22687 0.0
N358 N 0.30309 0.53316 0.26071 0.0
N359 N 0.38966 0.40001 0.13498 0.0
H360 H 0.32874 0.36918 0.28768 0.0
H361 H 0.36858 0.35329 0.23282 0.0
H362 H 0.40933 0.40738 0.09617 0.0
H363 H 0.37666 0.36752 0.13577 0.0
H364 H 0.30186 0.56579 0.24376 0.0
H365 H 0.27683 0.526 0.29208 0.0
H366 H 0.37054 0.58081 0.21239 0.0
H367 H 0.40703 0.5631 0.15437 0.0
C368 C 0.13127 0.96173 0.85153 0.0
C369 C 0.17831 0.9423 0.84425 0.0
C370 C 0.15767 0.94774 0.72521 0.0
C371 C 0.11144 0.96844 0.73308 0.0
N372 N 0.04787 0.9833 0.80101 0.0
N373 N 0.23238 0.90806 0.77578 0.0
C374 C 0.0962 0.97112 0.79559 0.0
C375 C 0.19011 0.93219 0.7814 0.0
N376 N 0.12111 0.97339 0.91176 0.0
N377 N 0.17148 0.94509 0.66455 0.0
H378 H 0.25698 0.8971 0.81606 0.0
H379 H 0.24126 0.89624 0.73195 0.0
H380 H 0.14753 0.95481 0.62297 0.0
H381 H 0.20684 0.93475 0.65542 0.0
H382 H 0.09058 0.99307 0.91935 0.0
H383 H 0.14499 0.96596 0.95441 0.0
H384 H 0.03259 0.98229 0.84441 0.0
H385 H 0.02159 0.99046 0.7605 0.0
loop_
_geom_bond_atom_site_label_1
_geom_bond_atom_site_label_2
_geom_bond_distance
_geom_bond_site_symmetry_2
_ccdc_geom_bond_type
P0 O11 1.490 . S
P0 C14 1.812 . S
P0 C20 1.803 . S
P0 C26 1.819 . S
H1 C15 0.941 . S
H2 C16 0.939 . S
H3 C18 0.940 . S
H4 C19 0.940 . S
H5 C21 0.939 . S
H6 C22 0.942 . S
H7 C24 0.940 . S
H8 C25 0.939 . S
H9 C27 0.941 1_545 S
H10 C31 0.939 . S
O11 P0 1.490 . S
H12 C28 0.939 1_545 S
H13 C30 0.940 . S
C14 P0 1.812 . S
C14 C15 1.389 . S
C14 C19 1.391 . S
C15 H1 0.941 . S
C15 C14 1.389 . S
C15 C16 1.397 . S
C16 H2 0.939 . S
C16 C15 1.397 . S
C16 C17 1.378 . S
C17 C16 1.378 . S
C17 C18 1.378 . S
C18 H3 0.940 . S
C18 C17 1.378 . S
C18 C19 1.396 . S
C19 H4 0.940 . S
C19 C14 1.391 . S
C19 C18 1.396 . S
C20 P0 1.803 . S
C20 C21 1.378 . S
C20 C25 1.400 . S
C21 H5 0.939 . S
C21 C20 1.378 . S
C21 C22 1.361 . S
C22 H6 0.942 . S
C22 C21 1.361 . S
C22 C23 1.369 . S
C23 C22 1.369 . S
C23 C24 1.404 . S
C24 H7 0.940 . S
C24 C23 1.404 . S
C24 C25 1.389 . S
C25 H8 0.939 . S
C25 C20 1.400 . S
C25 C24 1.389 . S
C26 P0 1.819 . S
C26 C27 1.391 . S
C26 C31 1.391 1_554 S
C27 H9 0.941 1_565 S
C27 C26 1.391 . S
C27 C28 1.396 1_554 S
C28 H12 0.939 1_565 S
C28 C27 1.396 1_556 S
C28 C29 1.397 . S
C29 C28 1.397 . S
C29 C30 1.385 . S
C30 H13 0.940 . S
C30 C29 1.385 . S
C30 C31 1.388 . S
C31 H10 0.939 . S
C31 C26 1.391 1_556 S
C31 C30 1.388 . S
P32 O43 1.490 . S
P32 C46 1.812 . S
P32 C52 1.803 . S
P32 C58 1.819 . S
H33 C47 0.941 . S
H34 C48 0.939 . S
H35 C50 0.940 . S
H36 C51 0.940 . S
H37 C53 0.939 . S
H38 C54 0.942 . S
H39 C56 0.940 . S
H40 C57 0.939 . S
H41 C59 0.941 . S
H42 C63 0.939 . S
O43 P32 1.490 . S
H44 C60 0.939 . S
H45 C62 0.940 . S
C46 P32 1.812 . S
C46 C47 1.389 . S
C46 C51 1.391 . S
C47 H33 0.941 . S
C47 C46 1.389 . S
C47 C48 1.397 . S
C48 H34 0.939 . S
C48 C47 1.397 . S
C48 C49 1.378 . S
C49 C48 1.378 . S
C49 C50 1.378 . S
C50 H35 0.940 . S
C50 C49 1.378 . S
C50 C51 1.396 . S
C51 H36 0.940 . S
C51 C46 1.391 . S
C51 C50 1.396 . S
C52 P32 1.803 . S
C52 C53 1.378 . S
C52 C57 1.400 . S
C53 H37 0.939 . S
C53 C52 1.378 . S
C53 C54 1.361 . S
C54 H38 0.942 . S
C54 C53 1.361 . S
C54 C55 1.369 . S
C55 C54 1.369 . S
C55 C56 1.404 . S
C56 H39 0.940 . S
C56 C55 1.404 . S
C56 C57 1.389 . S
C57 H40 0.939 . S
C57 C52 1.400 . S
C57 C56 1.389 . S
C58 P32 1.819 . S
C58 C59 1.391 . S
C58 C63 1.391 . S
C59 H41 0.941 . S
C59 C58 1.391 . S
C59 C60 1.396 . S
C60 H44 0.939 . S
C60 C59 1.396 . S
C60 C61 1.397 . S
C61 C60 1.397 . S
C61 C62 1.385 . S
C62 H45 0.940 . S
C62 C61 1.385 . S
C62 C63 1.388 . S
C63 H42 0.939 . S
C63 C58 1.391 . S
C63 C62 1.388 . S
P64 O75 1.490 . S
P64 C78 1.812 1_554 S
P64 C84 1.804 1_554 S
P64 C90 1.819 . S
H65 C79 0.941 . S
H66 C80 0.939 . S
H67 C82 0.940 . S
H68 C83 0.940 . S
H69 C85 0.939 . S
H70 C86 0.942 . S
H71 C88 0.940 . S
H72 C89 0.939 . S
H73 C91 0.941 . S
H74 C95 0.939 . S
O75 P64 1.490 . S
H76 C92 0.939 . S
H77 C94 0.940 . S
C78 P64 1.812 1_556 S
C78 C79 1.389 . S
C78 C83 1.391 . S
C79 H65 0.941 . S
C79 C78 1.389 . S
C79 C80 1.397 . S
C80 H66 0.939 . S
C80 C79 1.397 . S
C80 C81 1.378 . S
C81 C80 1.378 . S
C81 C82 1.378 . S
C82 H67 0.940 . S
C82 C81 1.378 . S
C82 C83 1.396 . S
C83 H68 0.940 . S
C83 C78 1.391 . S
C83 C82 1.396 . S
C84 P64 1.804 1_556 S
C84 C85 1.371 1_556 S
C84 C89 1.406 . S
C85 H69 0.939 . S
C85 C84 1.371 1_554 S
C85 C86 1.361 . S
C86 H70 0.942 . S
C86 C85 1.361 . S
C86 C87 1.369 1_554 S
C87 C86 1.369 1_556 S
C87 C88 1.404 . S
C88 H71 0.940 . S
C88 C87 1.404 . S
C88 C89 1.389 . S
C89 H72 0.939 . S
C89 C84 1.406 . S
C89 C88 1.389 . S
C90 P64 1.819 . S
C90 C91 1.391 . S
C90 C95 1.391 . S
C91 H73 0.941 . S
C91 C90 1.391 . S
C91 C92 1.396 . S
C92 H76 0.939 . S
C92 C91 1.396 . S
C92 C93 1.397 . S
C93 C92 1.397 . S
C93 C94 1.385 . S
C94 H77 0.940 . S
C94 C93 1.385 . S
C94 C95 1.388 . S
C95 H74 0.939 . S
C95 C90 1.391 . S
C95 C94 1.388 . S
P96 O107 1.490 . S
P96 C110 1.812 . S
P96 C116 1.803 . S
P96 C122 1.819 . S
H97 C111 0.941 . S
H98 C112 0.939 . S
H99 C114 0.940 . S
H100 C115 0.940 . S
H101 C117 0.939 . S
H102 C118 0.942 . S
H103 C120 0.940 . S
H104 C121 0.939 . S
H105 C123 0.941 . S
H106 C127 0.939 . S
O107 P96 1.490 . S
H108 C124 0.939 . S
H109 C126 0.940 . S
C110 P96 1.812 . S
C110 C111 1.389 . S
C110 C115 1.391 . S
C111 H97 0.941 . S
C111 C110 1.389 . S
C111 C112 1.397 . S
C112 H98 0.939 . S
C112 C111 1.397 . S
C112 C113 1.378 . S
C113 C112 1.378 . S
C113 C114 1.378 . S
C114 H99 0.940 . S
C114 C113 1.378 . S
C114 C115 1.396 . S
C115 H100 0.940 . S
C115 C110 1.391 . S
C115 C114 1.396 . S
C116 P96 1.803 . S
C116 C117 1.378 . S
C116 C121 1.400 . S
C117 H101 0.939 . S
C117 C116 1.378 . S
C117 C118 1.361 . S
C118 H102 0.942 . S
C118 C117 1.361 . S
C118 C119 1.369 . S
C119 C118 1.369 . S
C119 C120 1.404 . S
C120 H103 0.940 . S
C120 C119 1.404 . S
C120 C121 1.389 . S
C121 H104 0.939 . S
C121 C116 1.400 . S
C121 C120 1.389 . S
C122 P96 1.819 . S
C122 C123 1.391 . S
C122 C127 1.391 . S
C123 H105 0.941 . S
C123 C122 1.391 . S
C123 C124 1.396 . S
C124 H108 0.939 . S
C124 C123 1.396 . S
C124 C125 1.397 . S
C125 C124 1.397 . S
C125 C126 1.385 . S
C126 H109 0.940 . S
C126 C125 1.385 . S
C126 C127 1.388 . S
C127 H106 0.939 . S
C127 C122 1.391 . S
C127 C126 1.388 . S
O128 Mn129 2.163 1_655 S
O128 C142 1.244 . S
Mn129 O128 2.163 1_455 S
Mn129 O132 2.160 1_545 S
Mn129 O133 2.221 . S
Mn129 O135 2.163 1_455 S
Mn129 O137 2.160 1_545 S
Mn129 O147 2.221 1_445 S
O130 Mn131 2.087 1_545 S
O130 C142 1.256 . S
Mn131 O130 2.087 1_565 S
Mn131 O138 2.089 1_655 S
Mn131 O147 2.290 . S
Mn131 O148 2.251 . S
O132 Mn129 2.160 1_565 S
O132 C143 1.239 . S
O133 Mn129 2.221 . S
O133 Mn134 2.290 . S
O133 C144 1.278 . S
Mn134 O133 2.290 . S
Mn134 O136 2.089 . S
Mn134 O139 2.251 . S
Mn134 O140 2.087 1_455 S
O135 Mn129 2.163 1_655 S
O135 C145 1.244 . S
O136 Mn134 2.089 . S
O136 C143 1.256 1_545 S
O137 Mn129 2.160 1_565 S
O137 C146 1.239 . S
O138 Mn131 2.089 1_455 S
O138 C146 1.256 . S
O139 Mn134 2.251 . S
O139 C144 1.241 . S
O140 Mn134 2.087 1_655 S
O140 C145 1.256 . S
C141 O147 1.278 . S
C141 O148 1.241 . S
C142 O128 1.244 . S
C142 O130 1.256 . S
C143 O132 1.239 . S
C143 O136 1.256 1_565 S
C144 O133 1.278 . S
C144 O139 1.241 . S
C145 O135 1.244 . S
C145 O140 1.256 . S
C146 O137 1.239 . S
C146 O138 1.256 . S
O147 Mn129 2.221 1_665 S
O147 Mn131 2.290 . S
O147 C141 1.278 . S
O148 Mn131 2.251 . S
O148 C141 1.241 . S
O149 Mn150 2.163 . S
O149 C163 1.244 . S
Mn150 O149 2.163 . S
Mn150 O153 2.160 1_554 S
Mn150 O154 2.221 . S
Mn150 O156 2.163 1_554 S
Mn150 O158 2.160 . S
Mn150 O168 2.221 . S
O151 Mn152 2.087 . S
O151 C163 1.256 . S
Mn152 O151 2.087 . S
Mn152 O159 2.089 . S
Mn152 O168 2.290 . S
Mn152 O169 2.251 . S
O153 Mn150 2.160 1_556 S
O153 C164 1.239 . S
O154 Mn150 2.221 . S
O154 Mn155 2.290 1_554 S
O154 C165 1.278 . S
Mn155 O154 2.290 1_556 S
Mn155 O157 2.089 . S
Mn155 O160 2.251 . S
Mn155 O161 2.087 . S
O156 Mn150 2.163 1_556 S
O156 C166 1.244 . S
O157 Mn155 2.089 . S
O157 C164 1.256 . S
O158 Mn150 2.160 . S
O158 C167 1.239 . S
O159 Mn152 2.089 . S
O159 C167 1.256 . S
O160 Mn155 2.251 . S
O160 C165 1.241 1_556 S
O161 Mn155 2.087 . S
O161 C166 1.256 . S
C162 O168 1.278 . S
C162 O169 1.241 . S
C163 O149 1.244 . S
C163 O151 1.256 . S
C164 O153 1.239 . S
C164 O157 1.256 . S
C165 O154 1.278 . S
C165 O160 1.241 1_554 S
C166 O156 1.244 . S
C166 O161 1.256 . S
C167 O158 1.239 . S
C167 O159 1.256 . S
O168 Mn150 2.221 . S
O168 Mn152 2.290 . S
O168 C162 1.278 . S
O169 Mn152 2.251 . S
O169 C162 1.241 . S
C170 C171 1.363 . S
C170 C176 1.379 . S
C170 N178 1.356 . S
C171 C170 1.363 . S
C171 C177 1.363 . S
C172 C173 1.363 . S
C172 C177 1.379 . S
C172 N179 1.356 . S
C173 C172 1.363 . S
C173 C176 1.363 . S
N174 C176 1.356 . S
N174 H186 0.984 . S
N174 H187 0.985 . S
N175 C177 1.356 . S
N175 H180 0.984 . S
N175 H181 0.985 . S
C176 C170 1.379 . S
C176 C173 1.363 . S
C176 N174 1.356 . S
C177 C171 1.363 . S
C177 C172 1.379 . S
C177 N175 1.356 . S
N178 C170 1.356 . S
N178 H184 0.984 . S
N178 H185 0.984 . S
N179 C172 1.356 . S
N179 H182 0.984 . S
N179 H183 0.984 1_455 S
H180 N175 0.984 . S
H181 N175 0.985 . S
H182 N179 0.984 . S
H183 N179 0.984 1_655 S
H184 N178 0.984 . S
H185 N178 0.984 . S
H186 N174 0.984 . S
H187 N174 0.985 . S
C188 C189 1.363 . S
C188 C194 1.379 . S
C188 N196 1.356 . S
C189 C188 1.363 . S
C189 C195 1.363 . S
C190 C191 1.363 . S
C190 C195 1.379 . S
C190 N197 1.356 1_554 S
C191 C190 1.363 . S
C191 C194 1.363 . S
N192 C194 1.356 . S
N192 H204 0.984 . S
N192 H205 0.985 . S
N193 C195 1.356 1_556 S
N193 H198 0.984 1_556 S
N193 H199 0.985 . S
C194 C188 1.379 . S
C194 C191 1.363 . S
C194 N192 1.356 . S
C195 C189 1.363 . S
C195 C190 1.379 . S
C195 N193 1.356 1_554 S
N196 C188 1.356 . S
N196 H202 0.984 . S
N196 H203 0.984 . S
N197 C190 1.356 1_556 S
N197 H200 0.984 . S
N197 H201 0.985 . S
H198 N193 0.984 1_554 S
H199 N193 0.985 . S
H200 N197 0.984 . S
H201 N197 0.985 . S
H202 N196 0.984 . S
H203 N196 0.984 . S
H204 N192 0.984 . S
H205 N192 0.985 . S
C206 C207 1.363 . S
C206 C212 1.379 . S
C206 N214 1.356 . S
C207 C206 1.363 . S
C207 C213 1.363 . S
C208 C209 1.363 . S
C208 C213 1.379 . S
C208 N215 1.356 . S
C209 C208 1.363 . S
C209 C212 1.363 . S
N210 C212 1.356 . S
N210 H222 0.984 . S
N210 H223 0.985 . S
N211 C213 1.356 . S
N211 H216 0.984 . S
N211 H217 0.985 . S
C212 C206 1.379 . S
C212 C209 1.363 . S
C212 N210 1.356 . S
C213 C207 1.363 . S
C213 C208 1.379 . S
C213 N211 1.356 . S
N214 C206 1.356 . S
N214 H220 0.984 . S
N214 H221 0.984 . S
N215 C208 1.356 . S
N215 H218 0.984 . S
N215 H219 0.985 . S
H216 N211 0.984 . S
H217 N211 0.985 . S
H218 N215 0.984 . S
H219 N215 0.985 . S
H220 N214 0.984 . S
H221 N214 0.984 . S
H222 N210 0.984 . S
H223 N210 0.985 . S
C224 C225 1.368 . S
C224 C230 1.379 . S
C224 N232 1.356 . S
C225 C224 1.368 . S
C225 C231 1.359 1_554 S
C226 C227 1.363 1_556 S
C226 C231 1.379 . S
C226 N233 1.356 . S
C227 C226 1.363 1_554 S
C227 C230 1.363 . S
N228 C230 1.356 . S
N228 H240 0.984 . S
N228 H241 0.985 . S
N229 C231 1.356 . S
N229 H234 0.984 . S
N229 H235 0.985 . S
C230 C224 1.379 . S
C230 C227 1.363 . S
C230 N228 1.356 . S
C231 C225 1.359 1_556 S
C231 C226 1.379 . S
C231 N229 1.356 . S
N232 C224 1.356 . S
N232 H238 0.984 . S
N232 H239 0.984 . S
N233 C226 1.356 . S
N233 H236 0.984 . S
N233 H237 0.985 . S
H234 N229 0.984 . S
H235 N229 0.985 . S
H236 N233 0.984 . S
H237 N233 0.985 . S
H238 N232 0.984 . S
H239 N232 0.984 . S
H240 N228 0.984 . S
H241 N228 0.985 . S
C242 C243 1.363 . S
C242 C248 1.379 1_565 S
C242 N250 1.356 1_565 S
C243 C242 1.363 . S
C243 C249 1.363 . S
C244 C245 1.363 . S
C244 C249 1.379 . S
C244 N251 1.356 . S
C245 C244 1.363 . S
C245 C248 1.363 1_565 S
N246 C248 1.356 . S
N246 H258 0.984 . S
N246 H259 0.985 . S
N247 C249 1.356 . S
N247 H252 0.984 . S
N247 H253 0.985 . S
C248 C242 1.379 1_545 S
C248 C245 1.363 1_545 S
C248 N246 1.356 . S
C249 C243 1.363 . S
C249 C244 1.379 . S
C249 N247 1.356 . S
N250 C242 1.356 1_545 S
N250 H256 0.984 . S
N250 H257 0.984 . S
N251 C244 1.356 . S
N251 H254 0.984 . S
N251 H255 0.985 . S
H252 N247 0.984 . S
H253 N247 0.985 . S
H254 N251 0.984 . S
H255 N251 0.985 . S
H256 N250 0.984 . S
H257 N250 0.984 . S
H258 N246 0.984 . S
H259 N246 0.985 . S
C260 C261 1.363 . S
C260 C266 1.379 . S
C260 N268 1.356 . S
C261 C260 1.363 . S
C261 C267 1.363 . S
C262 C263 1.363 . S
C262 C267 1.379 . S
C262 N269 1.356 . S
C263 C262 1.363 . S
C263 C266 1.363 . S
N264 C266 1.356 . S
N264 H276 0.984 . S
N264 H277 0.985 . S
N265 C267 1.356 . S
N265 H270 0.984 . S
N265 H271 0.985 . S
C266 C260 1.379 . S
C266 C263 1.363 . S
C266 N264 1.356 . S
C267 C261 1.363 . S
C267 C262 1.379 . S
C267 N265 1.356 . S
N268 C260 1.356 . S
N268 H274 0.984 . S
N268 H275 0.984 . S
N269 C262 1.356 . S
N269 H272 0.984 . S
N269 H273 0.985 . S
H270 N265 0.984 . S
H271 N265 0.985 . S
H272 N269 0.984 . S
H273 N269 0.985 . S
H274 N268 0.984 . S
H275 N268 0.984 . S
H276 N264 0.984 . S
H277 N264 0.985 . S
C278 C279 1.363 . S
C278 C284 1.379 . S
C278 N286 1.356 . S
C279 C278 1.363 . S
C279 C285 1.363 . S
C280 C281 1.363 . S
C280 C285 1.379 . S
C280 N287 1.356 . S
C281 C280 1.363 . S
C281 C284 1.363 . S
N282 C284 1.356 . S
N282 H294 0.984 . S
N282 H295 0.985 . S
N283 C285 1.356 . S
N283 H288 0.984 . S
N283 H289 0.973 1_545 S
C284 C278 1.379 . S
C284 C281 1.363 . S
C284 N282 1.356 . S
C285 C279 1.363 . S
C285 C280 1.379 . S
C285 N283 1.356 . S
N286 C278 1.356 . S
N286 H292 0.984 . S
N286 H293 0.984 . S
N287 C280 1.356 . S
N287 H290 0.984 . S
N287 H291 0.985 1_545 S
H288 N283 0.984 . S
H289 N283 0.973 1_565 S
H290 N287 0.984 . S
H291 N287 0.985 1_565 S
H292 N286 0.984 . S
H293 N286 0.984 . S
H294 N282 0.984 . S
H295 N282 0.985 . S
C296 C297 1.363 . S
C296 C302 1.379 . S
C296 N304 1.356 . S
C297 C296 1.363 . S
C297 C303 1.363 . S
C298 C299 1.363 . S
C298 C303 1.379 . S
C298 N305 1.356 . S
C299 C298 1.363 . S
C299 C302 1.363 . S
N300 C302 1.356 . S
N300 H312 0.984 . S
N300 H313 0.985 . S
N301 C303 1.356 . S
N301 H306 0.984 . S
N301 H307 0.985 . S
C302 C296 1.379 . S
C302 C299 1.363 . S
C302 N300 1.356 . S
C303 C297 1.363 . S
C303 C298 1.379 . S
C303 N301 1.356 . S
N304 C296 1.356 . S
N304 H310 0.984 . S
N304 H311 0.984 . S
N305 C298 1.356 . S
N305 H308 0.984 . S
N305 H309 0.985 . S
H306 N301 0.984 . S
H307 N301 0.985 . S
H308 N305 0.984 . S
H309 N305 0.985 . S
H310 N304 0.984 . S
H311 N304 0.984 . S
H312 N300 0.984 . S
H313 N300 0.985 . S
C314 C315 1.363 . S
C314 C320 1.379 . S
C314 N322 1.356 . S
C315 C314 1.363 . S
C315 C321 1.363 . S
C316 C317 1.363 . S
C316 C321 1.379 . S
C316 N323 1.356 . S
C317 C316 1.363 . S
C317 C320 1.363 . S
N318 C320 1.356 . S
N318 H330 0.984 . S
N318 H331 0.985 . S
N319 C321 1.356 . S
N319 H324 0.984 . S
N319 H325 0.985 . S
C320 C314 1.379 . S
C320 C317 1.363 . S
C320 N318 1.356 . S
C321 C315 1.363 . S
C321 C316 1.379 . S
C321 N319 1.356 . S
N322 C314 1.356 . S
N322 H328 0.984 . S
N322 H329 0.984 . S
N323 C316 1.356 . S
N323 H326 0.984 . S
N323 H327 0.985 . S
H324 N319 0.984 . S
H325 N319 0.985 . S
H326 N323 0.984 . S
H327 N323 0.985 . S
H328 N322 0.984 . S
H329 N322 0.984 . S
H330 N318 0.984 . S
H331 N318 0.985 . S
C332 C333 1.363 . S
C332 C338 1.379 . S
C332 N340 1.356 . S
C333 C332 1.363 . S
C333 C339 1.363 . S
C334 C335 1.363 . S
C334 C339 1.379 . S
C334 N341 1.372 . S
C335 C334 1.363 . S
C335 C338 1.363 . S
N336 C338 1.356 . S
N336 H348 0.984 . S
N336 H349 0.985 . S
N337 C339 1.356 . S
N337 H342 0.984 . S
N337 H343 0.985 . S
C338 C332 1.379 . S
C338 C335 1.363 . S
C338 N336 1.356 . S
C339 C333 1.363 . S
C339 C334 1.379 . S
C339 N337 1.356 . S
N340 C332 1.356 . S
N340 H346 0.984 . S
N340 H347 0.984 . S
N341 C334 1.372 . S
N341 H344 0.984 1_545 S
N341 H345 0.970 1_545 S
H342 N337 0.984 . S
H343 N337 0.985 . S
H344 N341 0.984 1_565 S
H345 N341 0.970 1_565 S
H346 N340 0.984 . S
H347 N340 0.984 . S
H348 N336 0.984 . S
H349 N336 0.985 . S
C350 C351 1.363 . S
C350 C356 1.379 . S
C350 N358 1.356 . S
C351 C350 1.363 . S
C351 C357 1.363 . S
C352 C353 1.363 . S
C352 C357 1.379 . S
C352 N359 1.356 . S
C353 C352 1.363 . S
C353 C356 1.363 . S
N354 C356 1.356 . S
N354 H366 0.984 . S
N354 H367 0.985 . S
N355 C357 1.356 . S
N355 H360 0.984 . S
N355 H361 0.985 . S
C356 C350 1.379 . S
C356 C353 1.363 . S
C356 N354 1.356 . S
C357 C351 1.363 . S
C357 C352 1.379 . S
C357 N355 1.356 . S
N358 C350 1.356 . S
N358 H364 0.984 . S
N358 H365 0.984 . S
N359 C352 1.356 . S
N359 H362 0.984 . S
N359 H363 0.985 . S
H360 N355 0.984 . S
H361 N355 0.985 . S
H362 N359 0.984 . S
H363 N359 0.985 . S
H364 N358 0.984 . S
H365 N358 0.984 . S
H366 N354 0.984 . S
H367 N354 0.985 . S
C368 C369 1.363 . S
C368 C374 1.379 . S
C368 N376 1.356 1_565 S
C369 C368 1.363 . S
C369 C375 1.363 . S
C370 C371 1.363 . S
C370 C375 1.379 . S
C370 N377 1.356 . S
C371 C370 1.363 . S
C371 C374 1.363 . S
N372 C374 1.356 1_545 S
N372 H384 0.984 . S
N372 H385 0.985 . S
N373 C375 1.356 . S
N373 H378 0.984 . S
N373 H379 0.985 . S
C374 C368 1.379 . S
C374 C371 1.363 . S
C374 N372 1.356 1_565 S
C375 C369 1.363 . S
C375 C370 1.379 . S
C375 N373 1.356 . S
N376 C368 1.356 1_545 S
N376 H382 0.984 . S
N376 H383 0.984 . S
N377 C370 1.356 . S
N377 H380 0.984 . S
N377 H381 0.985 . S
H378 N373 0.984 . S
H379 N373 0.985 . S
H380 N377 0.984 . S
H381 N377 0.985 . S
H382 N376 0.984 . S
H383 N376 0.984 . S
H384 N372 0.984 . S
H385 N372 0.985 . S
C173 C144 1.372 . S
C171 C119 1.424 . S
C189 C23 1.550 . S
C191 C165 1.359 . S
C207 C55 1.662 . S
C209 C141 1.461 . S
C225 C87 1.550 1_554 S
C227 C162 1.450 . S
C245 C146 1.607 . S
C243 C17 1.621 . S
C263 C166 1.567 . S
C261 C61 1.599 . S
C279 C93 1.478 . S
C281 C142 1.496 . S
C297 C113 1.488 . S
C299 C164 1.506 . S
C317 C163 1.497 . S
C315 C49 1.588 . S
C335 C145 1.562 . S
C333 C81 1.522 . S
C353 C167 1.615 . S
C351 C125 1.483 . S
C369 C29 1.623 . S
C371 C143 1.508 . S
