# Generated by pormake.
# Topology zzz, (3,6)-cn, num edge types: 1
# Building blocks:
#     Node 0, Type 0, BuildingBlock: ESEHIV_clean_linker_0, # of connection points: 3
#     Node 1, Type 0, BuildingBlock: ESEHIV_clean_linker_0, # of connection points: 3
#     Node 2, Type 0, BuildingBlock: ESEHIV_clean_linker_0, # of connection points: 3
#     Node 3, Type 0, BuildingBlock: ESEHIV_clean_linker_0, # of connection points: 3
#     Node 4, Type 0, BuildingBlock: ESEHIV_clean_linker_0, # of connection points: 3
#     Node 5, Type 0, BuildingBlock: ESEHIV_clean_linker_0, # of connection points: 3
#     Node 6, Type 0, BuildingBlock: ESEHIV_clean_linker_0, # of connection points: 3
#     Node 7, Type 0, BuildingBlock: ESEHIV_clean_linker_0, # of connection points: 3
#     Node 8, Type 1, BuildingBlock: PAMTOO_clean_sbu_0, # of connection points: 6
#     Node 9, Type 1, BuildingBlock: PAMTOO_clean_sbu_0, # of connection points: 6
#     Node 10, Type 1, BuildingBlock: PAMTOO_clean_sbu_0, # of connection points: 6
#     Node 11, Type 1, BuildingBlock: PAMTOO_clean_sbu_0, # of connection points: 6
#     Edge 12, Type (0, 1), BuildingBlock: ZUJKAS_clean_linker_0, # of connection points: 2
#     Edge 13, Type (0, 1), BuildingBlock: ZUJKAS_clean_linker_0, # of connection points: 2
#     Edge 14, Type (0, 1), BuildingBlock: ZUJKAS_clean_linker_0, # of connection points: 2
#     Edge 15, Type (0, 1), BuildingBlock: ZUJKAS_clean_linker_0, # of connection points: 2
#     Edge 16, Type (0, 1), BuildingBlock: ZUJKAS_clean_linker_0, # of connection points: 2
#     Edge 17, Type (0, 1), BuildingBlock: ZUJKAS_clean_linker_0, # of connection points: 2
#     Edge 18, Type (0, 1), BuildingBlock: ZUJKAS_clean_linker_0, # of connection points: 2
#     Edge 19, Type (0, 1), BuildingBlock: ZUJKAS_clean_linker_0, # of connection points: 2
#     Edge 20, Type (0, 1), BuildingBlock: ZUJKAS_clean_linker_0, # of connection points: 2
#     Edge 21, Type (0, 1), BuildingBlock: ZUJKAS_clean_linker_0, # of connection points: 2
#     Edge 22, Type (0, 1), BuildingBlock: ZUJKAS_clean_linker_0, # of connection points: 2
#     Edge 23, Type (0, 1), BuildingBlock: ZUJKAS_clean_linker_0, # of connection points: 2
#     Edge 24, Type (0, 1), BuildingBlock: ZUJKAS_clean_linker_0, # of connection points: 2
#     Edge 25, Type (0, 1), BuildingBlock: ZUJKAS_clean_linker_0, # of connection points: 2
#     Edge 26, Type (0, 1), BuildingBlock: ZUJKAS_clean_linker_0, # of connection points: 2
#     Edge 27, Type (0, 1), BuildingBlock: ZUJKAS_clean_linker_0, # of connection points: 2
#     Edge 28, Type (0, 1), BuildingBlock: ZUJKAS_clean_linker_0, # of connection points: 2
#     Edge 29, Type (0, 1), BuildingBlock: ZUJKAS_clean_linker_0, # of connection points: 2
#     Edge 30, Type (0, 1), BuildingBlock: ZUJKAS_clean_linker_0, # of connection points: 2
#     Edge 31, Type (0, 1), BuildingBlock: ZUJKAS_clean_linker_0, # of connection points: 2
#     Edge 32, Type (0, 1), BuildingBlock: ZUJKAS_clean_linker_0, # of connection points: 2
#     Edge 33, Type (0, 1), BuildingBlock: ZUJKAS_clean_linker_0, # of connection points: 2
#     Edge 34, Type (0, 1), BuildingBlock: ZUJKAS_clean_linker_0, # of connection points: 2
#     Edge 35, Type (0, 1), BuildingBlock: ZUJKAS_clean_linker_0, # of connection points: 2
# Relax obj value: 0.348
# Max RMSD: 0.275
# Mean RMSD: 0.218
data_MOF--net-zzz--node1-PAMTOO_clean_sbu_0--node2-ESEHIV_clean_linker_0--edge1-ZUJKAS_clean_linker_0
_symmetry_space_group_name_H-M    P1
_symmetry_Int_Tables_number       1
_symmetry_cell_setting            triclinic
loop_
_symmetry_equiv_pos_as_xyz
'x, y, z'
_cell_length_a     65.093271
_cell_length_b     56.594672
_cell_length_c     21.21561
_cell_angle_alpha  91.29216
_cell_angle_beta   81.618837
_cell_angle_gamma 84.694903
loop_
_atom_site_label
_atom_site_type_symbol
_atom_site_fract_x
_atom_site_fract_y
_atom_site_fract_z
_atom_type_partial_charge
H0 H 0.80477 0.54551 0.41207 0.0
H1 H 0.75545 0.55236 0.29814 0.0
H2 H 0.75339 0.50272 0.44998 0.0
C3 C 0.78956 0.54119 0.40287 0.0
C4 C 0.77982 0.52375 0.43856 0.0
C5 C 0.78109 0.55126 0.35163 0.0
C6 C 0.76183 0.54487 0.33861 0.0
C7 C 0.75148 0.52764 0.37412 0.0
C8 C 0.76077 0.51665 0.42374 0.0
H9 H 0.03563 0.74934 0.32499 0.0
H10 H 0.03074 0.68384 0.22418 0.0
H11 H 0.98704 0.70563 0.39229 0.0
C12 C 0.02859 0.73284 0.32113 0.0
C13 C 0.01161 0.72859 0.36696 0.0
C14 C 0.0354 0.71718 0.26842 0.0
C15 C 0.02552 0.69637 0.26396 0.0
C16 C 1.00799 0.69218 0.30768 0.0
C17 C 1.00078 0.70854 0.35897 0.0
H18 H 0.72459 0.01418 0.254 0.0
H19 H 0.78365 0.00917 0.13294 0.0
H20 H 0.78054 0.99005 0.32979 0.0
C21 C 0.74136 0.00983 0.2476 0.0
C22 C 0.75094 0.00207 0.29957 0.0
C23 C 0.75299 0.01239 0.18774 0.0
C24 C 0.77461 0.00714 0.17935 0.0
C25 C 0.78471 0.99893 0.22988 0.0
C26 C 0.77284 0.9962 0.29041 0.0
H27 H 0.49651 0.70231 0.25781 0.0
H28 H 0.5257 0.76601 0.28541 0.0
H29 H 0.49681 0.75563 0.11734 0.0
C30 C 0.50001 0.71982 0.24227 0.0
C31 C 0.49511 0.72743 0.18352 0.0
C32 C 0.51086 0.73354 0.27941 0.0
C33 C 0.51685 0.75559 0.25761 0.0
C34 C 0.51177 0.76372 0.19874 0.0
C35 C 0.5008 0.74952 0.16249 0.0
H36 H 0.20688 0.52683 0.09673 0.0
H37 H 0.26533 0.52331 0.16932 0.0
H38 H 0.25792 0.47692 0.01248 0.0
C39 C 0.22302 0.51971 0.09417 0.0
C40 C 0.23119 0.5021 0.04704 0.0
C41 C 0.23498 0.52731 0.13938 0.0
C42 C 0.25561 0.51728 0.136 0.0
C43 C 0.26387 0.49889 0.09167 0.0
C44 C 0.2516 0.49106 0.04706 0.0
H45 H 0.98764 0.23854 0.16802 0.0
H46 H 0.99495 0.30395 0.2651 0.0
H47 H 0.02901 0.28699 0.07791 0.0
C48 C 0.99401 0.25555 0.16833 0.0
C49 C 1.00779 0.26145 0.11484 0.0
C50 C 0.98918 0.27061 0.22303 0.0
C51 C 0.9986 0.29185 0.22382 0.0
C52 C 0.01324 0.29757 0.17258 0.0
C53 C 0.01782 0.28245 0.11769 0.0
H54 H 0.30083 0.98317 0.18803 0.0
H55 H 0.24497 0.97235 0.31297 0.0
H56 H 0.24121 0.00759 0.13546 0.0
C57 C 0.28392 0.98524 0.19861 0.0
C58 C 0.27236 0.99625 0.15497 0.0
C59 C 0.27412 0.9766 0.25517 0.0
C60 C 0.25237 0.97877 0.26832 0.0
C61 C 0.24015 0.98998 0.22591 0.0
C62 C 0.2503 0.99897 0.16883 0.0
H63 H 0.52098 0.28806 0.18767 0.0
H64 H 0.48845 0.22643 0.16664 0.0
H65 H 0.52497 0.23185 0.31948 0.0
C66 C 0.51756 0.27051 0.20301 0.0
C67 C 0.52479 0.26152 0.25764 0.0
C68 C 0.50478 0.25793 0.16956 0.0
C69 C 0.49883 0.23588 0.19128 0.0
C70 C 0.50594 0.22652 0.24621 0.0
C71 C 0.51919 0.23927 0.27805 0.0
Dy72 Dy 0.99564 0.00878 0.68224 0.0
Dy73 Dy 0.0279 0.98674 0.7747 0.0
C74 C 0.0439 1.00031 0.63289 0.0
O75 O 0.99262 0.96978 0.67775 0.0
O76 O 0.02287 0.95557 0.71387 0.0
O77 O 0.98929 0.02723 0.59845 0.0
O78 O 0.96383 0.01539 0.66364 0.0
O79 O 0.99586 0.97962 0.82073 0.0
O80 O 0.9792 0.01225 0.78291 0.0
O81 O 0.02029 0.02474 0.80795 0.0
O82 O 0.01039 0.03998 0.71646 0.0
O83 O 0.03599 0.97727 0.86681 0.0
O84 O 0.05927 0.97263 0.78249 0.0
C85 C 1.00651 0.9522 0.6862 0.0
O86 O 0.0255 0.99674 0.61824 0.0
O87 O 0.04634 0.0033 0.69276 0.0
C88 C 0.95797 0.05212 0.61665 0.0
C89 C 0.9386 0.09846 0.61044 0.0
C90 C 0.95666 0.09443 0.63954 0.0
C91 C 0.96616 0.07149 0.64295 0.0
C92 C 0.93944 0.05576 0.59049 0.0
C93 C 0.92975 0.07875 0.58764 0.0
C94 C 0.96911 0.0283 0.61494 0.0
C95 C 0.97952 0.99533 0.82419 0.0
C96 C 0.01637 0.04286 0.77245 0.0
C97 C 0.06154 0.94471 0.86095 0.0
C98 C 0.07526 0.89847 0.89227 0.0
C99 C 0.0583 0.9024 0.8583 0.0
C100 C 0.05152 0.92535 0.8427 0.0
C101 C 0.07854 0.94095 0.89422 0.0
C102 C 0.08536 0.91799 0.90989 0.0
C103 C 0.05489 0.96871 0.84295 0.0
H104 H 0.9642 0.10905 0.6567 0.0
H105 H 0.98036 0.069 0.66403 0.0
H106 H 0.93276 0.04091 0.57081 0.0
H107 H 0.91569 0.08114 0.56586 0.0
H108 H 0.04995 0.88782 0.84503 0.0
H109 H 0.03841 0.928 0.8166 0.0
H110 H 0.08656 0.95576 0.90794 0.0
H111 H 0.09854 0.9155 0.93566 0.0
Dy112 Dy 0.50836 0.97754 0.68649 0.0
Dy113 Dy 0.51609 0.02092 0.78093 0.0
C114 C 0.50329 0.03039 0.64295 0.0
O115 O 0.54039 0.98756 0.64991 0.0
O116 O 0.5482 0.00381 0.74249 0.0
O117 O 0.50834 0.96125 0.59348 0.0
O118 O 0.50022 0.94161 0.67854 0.0
O119 O 0.51333 0.98875 0.84 0.0
O120 O 0.52609 0.96156 0.76012 0.0
O121 O 0.4813 0.02338 0.78651 0.0
O122 O 0.47855 0.98494 0.75495 0.0
O123 O 0.51627 0.03629 0.87497 0.0
O124 O 0.52455 0.05665 0.79182 0.0
C125 C 0.55406 0.99497 0.68398 0.0
O126 O 0.4947 0.01028 0.64449 0.0
O127 O 0.51571 0.03522 0.6839 0.0
C128 C 0.48111 0.93641 0.59531 0.0
C129 C 0.44233 0.92515 0.5654 0.0
C130 C 0.44692 0.94893 0.56864 0.0
C131 C 0.46603 0.95451 0.58395 0.0
C132 C 0.47682 0.91265 0.59127 0.0
C133 C 0.45756 0.90703 0.57635 0.0
C134 C 0.50041 0.94241 0.61716 0.0
C135 C 0.52152 0.96727 0.82107 0.0
C136 C 0.47013 0.00534 0.78237 0.0
C137 C 0.5436 0.06122 0.87653 0.0
C138 C 0.58243 0.07059 0.91014 0.0
C139 C 0.57274 0.05067 0.93324 0.0
C140 C 0.55355 0.04599 0.91654 0.0
C141 C 0.55292 0.08159 0.85519 0.0
C142 C 0.57225 0.08617 0.87152 0.0
C143 C 0.52443 0.05519 0.85299 0.0
H144 H 0.43578 0.96332 0.559 0.0
H145 H 0.46891 0.97301 0.58766 0.0
H146 H 0.4882 0.89849 0.60089 0.0
H147 H 0.45447 0.88857 0.57458 0.0
H148 H 0.58036 0.03816 0.96239 0.0
H149 H 0.54686 0.03007 0.93359 0.0
H150 H 0.5455 0.09362 0.82441 0.0
H151 H 0.57933 0.10173 0.85348 0.0
Dy152 Dy 0.53539 0.49334 0.74408 0.0
Dy153 Dy 0.49032 0.49157 0.68174 0.0
C154 C 0.50318 0.45472 0.78682 0.0
O155 O 0.54512 0.47582 0.64751 0.0
O156 O 0.5134 0.46548 0.62385 0.0
O157 O 0.56523 0.47744 0.76492 0.0
O158 O 0.555 0.51424 0.79208 0.0
O159 O 0.50983 0.51442 0.61804 0.0
O160 O 0.53065 0.52629 0.68923 0.0
O161 O 0.48598 0.52089 0.75569 0.0
O162 O 0.50903 0.50598 0.82011 0.0
O163 O 0.46367 0.50992 0.64705 0.0
O164 O 0.46609 0.4717 0.65366 0.0
C165 C 0.53388 0.46394 0.61353 0.0
O166 O 0.5227 0.45965 0.77608 0.0
O167 O 0.48801 0.46774 0.76529 0.0
C168 C 0.57927 0.49416 0.85222 0.0
C169 C 0.60173 0.49363 0.95754 0.0
C170 C 0.58141 0.50528 0.96273 0.0
C171 C 0.5703 0.50556 0.91068 0.0
C172 C 0.59923 0.48193 0.8476 0.0
C173 C 0.61031 0.48163 0.89946 0.0
C174 C 0.56934 0.49667 0.79371 0.0
C175 C 0.52215 0.52941 0.63706 0.0
C176 C 0.49318 0.52083 0.81032 0.0
C177 C 0.44657 0.48823 0.57478 0.0
C178 C 0.42427 0.48398 0.46994 0.0
C179 C 0.43441 0.46381 0.49391 0.0
C180 C 0.44537 0.46588 0.54568 0.0
C181 C 0.43686 0.50844 0.54988 0.0
C182 C 0.42594 0.50637 0.49806 0.0
C183 C 0.45558 0.49035 0.63508 0.0
H184 H 0.57414 0.51443 0.00686 0.0
H185 H 0.55493 0.51516 0.91577 0.0
H186 H 0.60659 0.47321 0.80291 0.0
H187 H 0.62598 0.47276 0.89303 0.0
H188 H 0.43368 0.44631 0.47308 0.0
H189 H 0.45246 0.44987 0.56386 0.0
H190 H 0.43713 0.52586 0.57178 0.0
H191 H 0.41812 0.52228 0.48168 0.0
Dy192 Dy 0.00996 0.51886 0.7016 0.0
Dy193 Dy 1.00118 0.47125 0.78066 0.0
C194 C 0.02021 0.46721 0.63172 0.0
O195 O 0.9804 0.50802 0.67287 0.0
O196 O 0.96986 0.48739 0.76146 0.0
O197 O 0.01594 0.53873 0.61604 0.0
O198 O 0.01322 0.55632 0.70877 0.0
O199 O 0.99888 0.50159 0.85131 0.0
O200 O 0.98723 0.53027 0.78876 0.0
O201 O 0.03594 0.47051 0.76397 0.0
O202 O 0.0373 0.51053 0.75383 0.0
O203 O 1.00593 0.45016 0.8619 0.0
O204 O 0.98516 0.43964 0.79802 0.0
C205 C 0.96588 0.49787 0.70922 0.0
O206 O 0.02549 0.48908 0.63471 0.0
O207 O 0.00891 0.45795 0.67971 0.0
C208 C 0.03742 0.56915 0.62793 0.0
C209 C 0.07469 0.58971 0.58894 0.0
C210 C 0.07504 0.56772 0.61864 0.0
C211 C 0.05656 0.55754 0.63796 0.0
C212 C 0.03684 0.59133 0.59995 0.0
C213 C 0.05537 0.60156 0.58044 0.0
C214 C 0.01813 0.55817 0.64751 0.0
C215 C 0.9894 0.52265 0.84542 0.0
C216 C 0.0461 0.48948 0.76521 0.0
C217 C 0.97231 0.44306 0.90838 0.0
C218 C 0.94397 0.47202 0.99623 0.0
C219 C 0.96244 0.46151 0.0145 0.0
C220 C 0.97656 0.44701 0.97075 0.0
C221 C 0.95242 0.45093 0.89393 0.0
C222 C 0.93849 0.46557 0.93726 0.0
C223 C 0.9899 0.43851 0.85571 0.0
H224 H 0.08964 0.55784 0.62467 0.0
H225 H 0.05723 0.54041 0.65974 0.0
H226 H 0.0221 0.60057 0.59252 0.0
H227 H 0.05462 0.61854 0.5579 0.0
H228 H 0.96678 0.4662 0.06023 0.0
H229 H 0.99171 0.44114 0.9833 0.0
H230 H 0.94842 0.44804 0.84674 0.0
H231 H 0.92409 0.47327 0.92292 0.0
H232 H 0.21221 0.02981 0.22665 0.0
H233 H 0.17578 0.03476 0.2797 0.0
H234 H 0.18001 0.96069 0.32474 0.0
H235 H 0.21574 0.95551 0.26956 0.0
H236 H 0.14247 0.97354 0.29985 0.0
H237 H 0.16265 0.04062 0.46992 0.0
H238 H 0.16623 0.049 0.38828 0.0
H239 H 0.18212 0.02409 0.41249 0.0
C240 C 0.20512 0.01448 0.24627 0.0
C241 C 0.21699 0.99235 0.24463 0.0
C242 C 0.18439 0.01739 0.2776 0.0
C243 C 0.17524 0.99828 0.30837 0.0
C244 C 0.18663 0.97583 0.30228 0.0
H245 H 0.08512 0.99745 0.64678 0.0
H246 H 0.11537 0.99798 0.56427 0.0
C247 C 0.20715 0.97289 0.27072 0.0
C248 C 0.15443 0.00146 0.35008 0.0
H249 H 0.12822 0.03029 0.48591 0.0
C250 C 0.1393 0.9861 0.34026 0.0
C251 C 0.1503 0.01757 0.40362 0.0
C252 C 0.16621 0.03362 0.41977 0.0
C253 C 0.12056 0.98592 0.38295 0.0
C254 C 0.11639 0.00212 0.43626 0.0
C255 C 0.13127 0.01793 0.44507 0.0
C256 C 0.09752 0.00191 0.486 0.0
C257 C 0.10597 0.9675 0.37205 0.0
C258 C 0.07717 0.00412 0.47021 0.0
C259 C 0.05973 0.00344 0.51757 0.0
C260 C 0.06222 0.00105 0.582 0.0
C261 C 0.08256 0.99936 0.59777 0.0
C262 C 0.09993 0.9997 0.55045 0.0
H263 H 0.11398 0.95257 0.34012 0.0
H264 H 0.09925 0.96015 0.41775 0.0
H265 H 0.09299 0.97583 0.34907 0.0
H266 H 0.07471 0.00653 0.42131 0.0
H267 H 0.0443 0.00505 0.50376 0.0
H268 H 0.48986 0.2192 0.36881 0.0
H269 H 0.48468 0.18133 0.41866 0.0
H270 H 0.50171 0.14472 0.23536 0.0
H271 H 0.5073 0.18286 0.18507 0.0
H272 H 0.46035 0.1437 0.40198 0.0
H273 H 0.54552 0.11628 0.34126 0.0
H274 H 0.53463 0.14634 0.33313 0.0
H275 H 0.53159 0.12352 0.27598 0.0
C276 C 0.49226 0.20311 0.33894 0.0
C277 C 0.4993 0.20393 0.27319 0.0
C278 C 0.48919 0.18148 0.36745 0.0
C279 C 0.49315 0.16013 0.33101 0.0
C280 C 0.49888 0.16096 0.26458 0.0
H281 H 0.47953 0.02748 0.54561 0.0
H282 H 0.47541 0.05633 0.46222 0.0
C283 C 0.50191 0.18273 0.23582 0.0
C284 C 0.49298 0.13727 0.36435 0.0
H285 H 0.52578 0.09215 0.40922 0.0
C286 C 0.47455 0.13211 0.40264 0.0
C287 C 0.51159 0.12233 0.36567 0.0
C288 C 0.53203 0.12735 0.32726 0.0
C289 C 0.47442 0.11303 0.44409 0.0
C290 C 0.4932 0.09865 0.447 0.0
C291 C 0.51139 0.10315 0.40662 0.0
C292 C 0.49504 0.08096 0.49714 0.0
C293 C 0.45454 0.1092 0.48723 0.0
C294 C 0.50749 0.08516 0.54406 0.0
C295 C 0.50987 0.06884 0.5914 0.0
C296 C 0.49993 0.04776 0.59296 0.0
C297 C 0.48736 0.04355 0.54596 0.0
C298 C 0.48494 0.06004 0.49839 0.0
H299 H 0.44193 0.12359 0.48433 0.0
H300 H 0.44906 0.09209 0.47357 0.0
H301 H 0.45742 0.10818 0.53748 0.0
H302 H 0.5154 0.10118 0.54412 0.0
H303 H 0.51967 0.07279 0.62662 0.0
H304 H 0.2739 0.45958 0.15581 0.0
H305 H 0.30576 0.45235 0.20451 0.0
H306 H 0.33276 0.50832 0.09628 0.0
H307 H 0.30082 0.51571 0.04824 0.0
H308 H 0.35161 0.44493 0.16492 0.0
H309 H 0.32363 0.5325 0.28646 0.0
H310 H 0.30742 0.5161 0.24289 0.0
H311 H 0.32727 0.53232 0.20084 0.0
C312 C 0.28709 0.46941 0.13983 0.0
C313 C 0.28505 0.48794 0.09749 0.0
C314 C 0.30521 0.46547 0.16824 0.0
C315 C 0.3215 0.4801 0.15495 0.0
C316 C 0.32031 0.49698 0.10773 0.0
H317 H 0.42078 0.51295 0.36884 0.0
H318 H 0.39749 0.51069 0.28863 0.0
C319 C 0.30219 0.50096 0.07951 0.0
C320 C 0.33808 0.48008 0.19659 0.0
H321 H 0.35523 0.51386 0.31029 0.0
C322 C 0.35248 0.46001 0.19657 0.0
C323 C 0.3391 0.49969 0.23833 0.0
C324 C 0.32346 0.52133 0.24283 0.0
C325 C 0.36808 0.45921 0.23641 0.0
C326 C 0.36903 0.47882 0.27833 0.0
C327 C 0.35463 0.49888 0.27803 0.0
C328 C 0.38442 0.47892 0.32415 0.0
C329 C 0.38359 0.43753 0.23245 0.0
C330 C 0.3849 0.46185 0.37113 0.0
C331 C 0.39818 0.46314 0.41728 0.0
C332 C 0.41119 0.48168 0.41799 0.0
C333 C 0.41085 0.49858 0.37033 0.0
C334 C 0.3976 0.49723 0.32414 0.0
H335 H 0.38469 0.42751 0.18624 0.0
H336 H 0.39935 0.44243 0.23838 0.0
H337 H 0.37848 0.42553 0.27108 0.0
H338 H 0.37451 0.44791 0.37344 0.0
H339 H 0.39769 0.45006 0.4538 0.0
H340 H 1.00272 0.34239 0.13681 0.0
H341 H 0.01132 0.37872 0.18812 0.0
H342 H 0.05424 0.33676 0.28766 0.0
H343 H 0.04614 0.30081 0.23482 0.0
H344 H 1.00006 0.38434 0.31001 0.0
H345 H 0.08412 0.395 0.26683 0.0
H346 H 0.07216 0.37605 0.21604 0.0
H347 H 0.08028 0.36517 0.28869 0.0
C348 C 0.01493 0.3412 0.16659 0.0
C349 C 0.02406 0.31895 0.18114 0.0
C350 C 0.0197 0.36191 0.19648 0.0
C351 C 0.03352 0.36062 0.24181 0.0
C352 C 0.04398 0.33849 0.25185 0.0
H353 H 0.01586 0.42021 0.61274 0.0
H354 H 0.02083 0.39745 0.51198 0.0
C355 C 0.03935 0.31786 0.22157 0.0
C356 C 0.03364 0.38091 0.28778 0.0
H357 H 0.06548 0.41004 0.37117 0.0
C358 C 0.01441 0.39036 0.322 0.0
C359 C 0.05226 0.38899 0.30381 0.0
C360 C 0.07333 0.38091 0.26631 0.0
C361 C 0.01334 0.40634 0.37409 0.0
C362 C 0.03199 0.4128 0.39345 0.0
C363 C 0.0512 0.40473 0.35688 0.0
C364 C 0.03157 0.42622 0.45457 0.0
C365 C 0.9922 0.41554 0.40957 0.0
C366 C 0.03673 0.44974 0.45599 0.0
C367 C 0.03392 0.46294 0.51396 0.0
C368 C 0.02593 0.45275 0.57129 0.0
C369 C 0.02183 0.42878 0.56965 0.0
C370 C 0.02465 0.41569 0.512 0.0
H371 H 0.9797 0.41418 0.37953 0.0
H372 H 0.98854 0.40482 0.4522 0.0
H373 H 0.99204 0.43435 0.42588 0.0
H374 H 0.04216 0.45815 0.4121 0.0
H375 H 0.03726 0.48134 0.51347 0.0
H376 H 0.81395 0.02959 0.23918 0.0
H377 H 0.8497 0.02563 0.18132 0.0
H378 H 0.8425 0.95361 0.12445 0.0
H379 H 0.80668 0.95771 0.18178 0.0
H380 H 0.88726 0.99374 0.17575 0.0
H381 H 0.85079 0.98874 0.95537 0.0
H382 H 0.83586 0.9973 0.03225 0.0
H383 H 0.84422 0.96656 0.01217 0.0
C384 C 0.82038 0.01258 0.21677 0.0
C385 C 0.80772 0.99379 0.21602 0.0
C386 C 0.84074 0.01039 0.18315 0.0
C387 C 0.84871 0.98946 0.14753 0.0
C388 C 0.83664 0.97004 0.15089 0.0
H389 H 0.97404 0.96333 0.91997 0.0
H390 H 0.94319 0.96114 1.00048 0.0
C391 C 0.81628 0.97224 0.18447 0.0
C392 C 0.86853 0.98891 0.10174 0.0
H393 H 0.88749 0.98573 0.9423 0.0
C394 C 0.88736 0.99184 0.12473 0.0
C395 C 0.86863 0.98687 0.03498 0.0
C396 C 0.8488 0.9849 0.00692 0.0
C397 C 0.90623 0.99262 0.08288 0.0
C398 C 0.90634 0.99024 0.01617 0.0
C399 C 0.88749 0.98737 0.99334 0.0
C400 C 0.92555 0.99177 0.96882 0.0
C401 C 0.92577 0.9967 0.11031 0.0
C402 C 0.92591 0.00945 0.92336 0.0
C403 C 0.94347 0.01069 0.87715 0.0
C404 C 0.96114 0.99416 0.87479 0.0
C405 C 0.96079 0.97643 0.92041 0.0
C406 C 0.94318 0.97524 0.96683 0.0
H407 H 0.92221 0.00356 0.16058 0.0
H408 H 0.93572 0.97964 0.10916 0.0
H409 H 0.93486 0.00946 0.08174 0.0
H410 H 0.91253 0.02237 0.92358 0.0
H411 H 0.94306 0.02457 0.84291 0.0
H412 H 0.50666 0.80784 0.25912 0.0
H413 H 0.51226 0.84608 0.20961 0.0
H414 H 0.53604 0.80928 0.02988 0.0
H415 H 0.53092 0.77128 0.07913 0.0
H416 H 0.55837 0.84754 0.05456 0.0
H417 H 0.47277 0.87366 0.08965 0.0
H418 H 0.48403 0.86686 0.16035 0.0
H419 H 0.48355 0.84381 0.10114 0.0
C420 C 0.51349 0.80796 0.20942 0.0
C421 C 0.51809 0.78661 0.17278 0.0
C422 C 0.51648 0.82979 0.18102 0.0
C423 C 0.52415 0.83057 0.11564 0.0
C424 C 0.52995 0.80917 0.0802 0.0
H425 H 0.53778 0.92098 0.79864 0.0
H426 H 0.54002 0.88988 0.87589 0.0
C427 C 0.52694 0.78746 0.10837 0.0
C428 C 0.52509 0.85342 0.08241 0.0
H429 H 0.49425 0.89936 0.03259 0.0
C430 C 0.54438 0.85902 0.05034 0.0
C431 C 0.50683 0.86841 0.07681 0.0
C432 C 0.48557 0.86291 0.10832 0.0
C433 C 0.54584 0.8789 0.01189 0.0
C434 C 0.52748 0.89334 0.00433 0.0
C435 C 0.50831 0.88828 0.03834 0.0
C436 C 0.52753 0.9128 0.95823 0.0
C437 C 0.56704 0.88415 0.9794 0.0
C438 C 0.5195 0.93606 0.97849 0.0
C439 C 0.51809 0.95394 0.93424 0.0
C440 C 0.5245 0.94886 0.86867 0.0
C441 C 0.5328 0.9256 0.8487 0.0
C442 C 0.53422 0.90778 0.89295 0.0
H443 H 0.57965 0.8765 0.00514 0.0
H444 H 0.56982 0.87605 0.93042 0.0
H445 H 0.56807 0.90357 0.97598 0.0
H446 H 0.51409 0.94032 0.02855 0.0
H447 H 0.51157 0.97161 0.95136 0.0
H448 H 0.71617 0.55602 0.36485 0.0
H449 H 0.68799 0.54726 0.30591 0.0
H450 H 0.71543 0.47495 0.27217 0.0
H451 H 0.74357 0.48367 0.33229 0.0
H452 H 0.69589 0.53432 0.17935 0.0
H453 H 0.65343 0.4658 0.31207 0.0
H454 H 0.67045 0.48381 0.34789 0.0
H455 H 0.68124 0.45899 0.29534 0.0
C456 C 0.71577 0.53803 0.34679 0.0
C457 C 0.73196 0.52047 0.35365 0.0
C458 C 0.69973 0.53307 0.31272 0.0
C459 C 0.69947 0.51043 0.28453 0.0
C460 C 0.715 0.49244 0.29435 0.0
H461 H 0.62902 0.45881 0.99713 0.0
H462 H 0.65219 0.46249 0.07726 0.0
C463 C 0.73107 0.49739 0.32891 0.0
C464 C 0.68443 0.50671 0.23913 0.0
H465 H 0.64511 0.4739 0.20871 0.0
C466 C 0.68471 0.52119 0.18612 0.0
C467 C 0.66998 0.48939 0.24728 0.0
C468 C 0.66856 0.47371 0.30397 0.0
C469 C 0.67111 0.51883 0.14111 0.0
C470 C 0.6564 0.5018 0.1497 0.0
C471 C 0.65626 0.48706 0.20226 0.0
C472 C 0.64122 0.49907 0.10422 0.0
C473 C 0.67296 0.53428 0.08386 0.0
C474 C 0.6269 0.51819 0.09363 0.0
C475 C 0.61375 0.51623 0.0474 0.0
C476 C 0.61446 0.49501 0.0108 0.0
C477 C 0.62825 0.47557 0.02342 0.0
C478 C 0.64143 0.47757 0.06966 0.0
H479 H 0.68838 0.54154 0.07528 0.0
H480 H 0.67075 0.52422 0.04019 0.0
H481 H 0.66075 0.5495 0.09222 0.0
H482 H 0.62615 0.53484 0.12043 0.0
H483 H 0.60351 0.53165 0.03898 0.0
H484 H 0.02124 0.64543 0.31024 0.0
H485 H 0.01003 0.61378 0.24634 0.0
H486 H 0.95941 0.66179 0.2007 0.0
H487 H 0.97051 0.69348 0.26527 0.0
H488 H 0.95325 0.60706 0.21256 0.0
H489 H 0.022 0.63246 0.04923 0.0
H490 H 0.0262 0.62578 0.12914 0.0
H491 H 0.00915 0.65136 0.11576 0.0
C492 C 1.00705 0.64881 0.28945 0.0
C493 C 0.99662 0.67178 0.29296 0.0
C494 C 1.00075 0.6308 0.25261 0.0
C495 C 0.98404 0.63555 0.21832 0.0
C496 C 0.97227 0.65776 0.2271 0.0
H497 H 0.9771 0.57031 0.84935 0.0
H498 H 0.9718 0.59771 0.94238 0.0
C499 C 0.97852 0.67579 0.26433 0.0
C500 C 0.98161 0.61923 0.16479 0.0
H501 H 1.00543 0.60012 0.01591 0.0
C502 C 0.96462 0.60546 0.16954 0.0
C503 C 0.99625 0.61761 0.10823 0.0
C504 C 0.01437 0.63268 0.09966 0.0
C505 C 0.96225 0.5896 0.11945 0.0
C506 C 0.97728 0.58751 0.06375 0.0
C507 C 0.99396 0.60169 0.05874 0.0
C508 C 0.97652 0.57045 0.01007 0.0
C509 C 0.94352 0.57561 0.12546 0.0
C510 C 0.98057 0.54596 0.01738 0.0
C511 C 0.98383 0.53024 0.96414 0.0
C512 C 0.98307 0.53875 0.90257 0.0
C513 C 0.97784 0.56315 0.89596 0.0
C514 C 0.97476 0.57885 0.94913 0.0
H515 H 0.9319 0.58154 0.16784 0.0
H516 H 0.93588 0.57749 0.08212 0.0
H517 H 0.94855 0.5565 0.12949 0.0
H518 H 0.98229 0.53911 0.06379 0.0
H519 H 0.98763 0.51152 0.97103 0.0
H520 H 0.99175 0.28015 0.34969 0.0
H521 H 0.97281 0.2633 0.44245 0.0
H522 H 0.93841 0.22541 0.32081 0.0
H523 H 0.95542 0.24436 0.22828 0.0
H524 H 0.91507 0.23557 0.43189 0.0
H525 H 0.9937 0.19742 0.47393 0.0
H526 H 0.98973 0.22916 0.48108 0.0
H527 H 0.99001 0.21427 0.40495 0.0
C528 C 0.97963 0.26897 0.34239 0.0
C529 C 0.97563 0.26315 0.28065 0.0
C530 C 0.96902 0.25901 0.39578 0.0
C531 C 0.95486 0.24229 0.38839 0.0
C532 C 0.94955 0.23796 0.32769 0.0
H533 H 0.92356 0.11378 0.50303 0.0
H534 H 0.92047 0.15427 0.46781 0.0
C535 C 0.95963 0.24851 0.27451 0.0
C536 C 0.94743 0.22714 0.44153 0.0
H537 H 0.96503 0.18426 0.5365 0.0
C538 C 0.92597 0.22462 0.45557 0.0
C539 C 0.96167 0.21279 0.47248 0.0
C540 C 0.98505 0.21333 0.45709 0.0
C541 C 0.91853 0.20723 0.49682 0.0
C542 C 0.93288 0.1923 0.52515 0.0
C543 C 0.95408 0.19599 0.51501 0.0
C544 C 0.92737 0.17002 0.55522 0.0
C545 C 0.89554 0.2042 0.50771 0.0
C546 C 0.93133 0.16556 0.61727 0.0
C547 C 0.93287 0.1423 0.63808 0.0
C548 C 0.93098 0.12312 0.59652 0.0
C549 C 0.92498 0.12799 0.53668 0.0
C550 C 0.92315 0.15125 0.51633 0.0
H551 H 0.88607 0.22078 0.49849 0.0
H552 H 0.89236 0.18997 0.47461 0.0
H553 H 0.89049 0.19891 0.55725 0.0
H554 H 0.93475 0.17984 0.6478 0.0
H555 H 0.93696 0.13925 0.6851 0.0
H556 H 0.27211 0.93283 0.30669 0.0
H557 H 0.29705 0.91285 0.36978 0.0
H558 H 0.32975 0.97583 0.36762 0.0
H559 H 0.30524 0.99555 0.30424 0.0
H560 H 0.35423 0.93291 0.31923 0.0
H561 H 0.30792 0.92338 0.5583 0.0
H562 H 0.2976 0.91439 0.48812 0.0
H563 H 0.29982 0.94522 0.50383 0.0
C564 C 0.28441 0.94246 0.32098 0.0
C565 C 0.28698 0.96558 0.30041 0.0
C566 C 0.29857 0.93109 0.35693 0.0
C567 C 0.31518 0.94292 0.37317 0.0
C568 C 0.31704 0.96642 0.35527 0.0
H569 H 0.40411 0.94905 0.60595 0.0
H570 H 0.37205 0.94541 0.56172 0.0
C571 C 0.3031 0.97763 0.3191 0.0
C572 C 0.33193 0.93063 0.40366 0.0
H573 H 0.34419 0.91357 0.54779 0.0
C574 C 0.35208 0.92818 0.36889 0.0
C575 C 0.32885 0.92447 0.46819 0.0
C576 C 0.30743 0.927 0.50727 0.0
C577 C 0.36955 0.92162 0.3982 0.0
C578 C 0.36666 0.91657 0.46383 0.0
C579 C 0.34632 0.91731 0.49747 0.0
C580 C 0.38449 0.91485 0.50006 0.0
C581 C 0.39094 0.92219 0.35974 0.0
C582 C 0.40181 0.89812 0.48257 0.0
C583 C 0.42047 0.90063 0.50635 0.0
C584 C 0.42186 0.91964 0.54891 0.0
C585 C 0.40376 0.93473 0.57148 0.0
C586 C 0.38531 0.93245 0.54696 0.0
H587 H 0.39027 0.9305 0.31303 0.0
H588 H 0.40102 0.93223 0.3863 0.0
H589 H 0.39842 0.90379 0.35028 0.0
H590 H 0.40132 0.88402 0.44762 0.0
H591 H 0.43406 0.88857 0.48838 0.0
H592 H 0.55319 0.29306 0.21596 0.0
H593 H 0.56434 0.32447 0.27934 0.0
H594 H 0.53505 0.29474 0.45127 0.0
H595 H 0.52206 0.26471 0.38808 0.0
H596 H 0.52041 0.33749 0.44694 0.0
H597 H 0.60581 0.33747 0.39128 0.0
H598 H 0.59458 0.33779 0.31907 0.0
H599 H 0.59244 0.31264 0.36952 0.0
C600 C 0.54921 0.29305 0.26732 0.0
C601 C 0.53619 0.27662 0.29651 0.0
C602 C 0.55605 0.3108 0.30373 0.0
C603 C 0.55063 0.31202 0.37029 0.0
C604 C 0.53942 0.29422 0.39995 0.0
H605 H 0.56575 0.43056 0.62616 0.0
H606 H 0.57415 0.39311 0.56292 0.0
C607 C 0.53212 0.27685 0.36353 0.0
C608 C 0.55306 0.33393 0.40728 0.0
H609 H 0.58659 0.37555 0.42862 0.0
C610 C 0.53505 0.34545 0.44377 0.0
C611 C 0.57211 0.34447 0.40362 0.0
C612 C 0.59234 0.33226 0.36927 0.0
C613 C 0.5353 0.36748 0.47452 0.0
C614 C 0.55391 0.37885 0.46681 0.0
C615 C 0.57223 0.36701 0.43298 0.0
C616 C 0.55401 0.40318 0.49343 0.0
C617 C 0.51547 0.37852 0.51453 0.0
C618 C 0.541 0.42166 0.47275 0.0
C619 C 0.53593 0.44274 0.5092 0.0
C620 C 0.54427 0.44586 0.56581 0.0
C621 C 0.55928 0.42857 0.58229 0.0
C622 C 0.56404 0.40719 0.54637 0.0
H623 H 0.5046 0.365 0.52967 0.0
H624 H 0.51888 0.38793 0.55777 0.0
H625 H 0.50738 0.3916 0.48602 0.0
H626 H 0.53333 0.41896 0.43149 0.0
H627 H 0.52435 0.45589 0.49563 0.0
H628 H 0.24375 0.52847 0.26258 0.0
H629 H 0.22475 0.5518 0.35337 0.0
H630 H 0.18403 0.58583 0.23237 0.0
H631 H 0.20442 0.56454 0.13943 0.0
H632 H 0.18837 0.61538 0.33016 0.0
H633 H 0.17093 0.52677 0.42092 0.0
H634 H 0.19802 0.53152 0.41156 0.0
H635 H 0.18491 0.53023 0.34261 0.0
C636 C 0.23134 0.54155 0.25419 0.0
C637 C 0.22539 0.54407 0.1932 0.0
C638 C 0.22026 0.55468 0.30675 0.0
C639 C 0.2025 0.56983 0.30003 0.0
C640 C 0.19752 0.57392 0.23881 0.0
H641 H 0.08368 0.60876 0.47233 0.0
H642 H 0.11829 0.6122 0.41427 0.0
C643 C 0.209 0.56136 0.18578 0.0
C644 C 0.18756 0.57889 0.35666 0.0
H645 H 0.15412 0.5599 0.4798 0.0
C646 C 0.18107 0.60332 0.36352 0.0
C647 C 0.17799 0.56308 0.40006 0.0
C648 C 0.18314 0.53645 0.39329 0.0
C649 C 0.16468 0.61221 0.41108 0.0
C650 C 0.15471 0.59626 0.45264 0.0
C651 C 0.16203 0.57212 0.44822 0.0
C652 C 0.13453 0.60287 0.49357 0.0
C653 C 0.15769 0.63841 0.41525 0.0
C654 C 0.13213 0.59754 0.55832 0.0
C655 C 0.11229 0.59551 0.59175 0.0
C656 C 0.09462 0.59854 0.56061 0.0
C657 C 0.09693 0.60642 0.49784 0.0
C658 C 0.11677 0.60853 0.46455 0.0
H659 H 0.17054 0.64895 0.39538 0.0
H660 H 0.14472 0.64189 0.38707 0.0
H661 H 0.15198 0.64458 0.46535 0.0
H662 H 0.14568 0.59298 0.5814 0.0
H663 H 0.11092 0.58989 0.64053 0.0
H664 H 0.03599 0.70788 0.14035 0.0
H665 H 0.05481 0.72731 0.05258 0.0
H666 H 0.08609 0.76462 0.18437 0.0
H667 H 0.06901 0.74331 0.27208 0.0
H668 H 0.04517 0.77139 0.04716 0.0
H669 H 0.13051 0.7605 0.03549 0.0
H670 H 0.11395 0.74071 0.07946 0.0
H671 H 0.11882 0.76841 0.11575 0.0
C672 C 0.0477 0.71915 0.15086 0.0
C673 C 0.05053 0.72437 0.2141 0.0
C674 C 0.05839 0.73046 0.10019 0.0
C675 C 0.07177 0.74763 0.11158 0.0
C676 C 0.07611 0.75124 0.17382 0.0
H677 H 0.08543 0.88574 0.008 0.0
H678 H 0.08965 0.84567 0.04745 0.0
C679 C 0.06588 0.7394 0.2244 0.0
C680 C 0.07725 0.76515 0.0624 0.0
H681 H 0.11572 0.7991 1.00193 0.0
C682 C 0.06077 0.77687 0.0357 0.0
C683 C 0.09754 0.77251 0.04758 0.0
C684 C 0.1162 0.75964 0.07069 0.0
C685 C 0.06366 0.7967 0.99848 0.0
C686 C 0.08362 0.80501 0.98733 0.0
C687 C 0.10042 0.79265 0.01089 0.0
C688 C 0.08633 0.82817 0.95834 0.0
C689 C 0.04501 0.80958 0.97496 0.0
C690 C 0.08387 0.83143 0.89448 0.0
C691 C 0.0814 0.85433 0.87174 0.0
C692 C 0.0814 0.87426 0.91262 0.0
C693 C 0.08547 0.87078 0.9752 0.0
C694 C 0.08792 0.84789 0.99784 0.0
H695 H 0.03015 0.80237 0.99423 0.0
H696 H 0.04373 0.82879 0.98856 0.0
H697 H 0.047 0.80789 0.92216 0.0
H698 H 0.08268 0.81633 0.86334 0.0
H699 H 0.0787 0.85646 0.82292 0.0
H700 H 0.76281 0.04816 0.10723 0.0
H701 H 0.74172 0.06566 0.02968 0.0
H702 H 0.69779 0.01361 0.0731 0.0
H703 H 0.71884 0.99595 0.14926 0.0
H704 H 0.70663 0.02406 0.94033 0.0
H705 H 0.68547 0.10465 0.10143 0.0
H706 H 0.71259 0.09567 0.07351 0.0
H707 H 0.69787 0.07767 0.12833 0.0
C708 C 0.74888 0.0402 0.09897 0.0
C709 C 0.74222 0.02095 0.13467 0.0
C710 C 0.73684 0.05026 0.05508 0.0
C711 C 0.71811 0.04108 0.04644 0.0
C712 C 0.7122 0.02096 0.07922 0.0
H713 H 0.5966 0.06709 0.02435 0.0
H714 H 0.6327 0.06606 0.04366 0.0
C715 C 0.72412 0.011 0.12299 0.0
C716 C 0.70329 0.0533 0.00865 0.0
H717 H 0.66398 0.09823 0.02487 0.0
C718 C 0.69765 0.04068 0.95721 0.0
C719 C 0.6917 0.07498 0.03122 0.0
C720 C 0.69705 0.08911 0.08676 0.0
C721 C 0.67954 0.048 0.93154 0.0
C722 C 0.66699 0.06864 0.95773 0.0
C723 C 0.67371 0.08245 0.00506 0.0
C724 C 0.64514 0.07323 0.94641 0.0
C725 C 0.67294 0.03241 0.88087 0.0
C726 C 0.64014 0.07842 0.88581 0.0
C727 C 0.61946 0.07883 0.87456 0.0
C728 C 0.6036 0.07408 0.92385 0.0
C729 C 0.60855 0.07045 0.98533 0.0
C730 C 0.62913 0.07004 0.99647 0.0
H731 H 0.68352 0.01581 0.87013 0.0
H732 H 0.65686 0.02759 0.89617 0.0
H733 H 0.67292 0.04226 0.83624 0.0
H734 H 0.65228 0.0812 0.8468 0.0
H735 H 0.61606 0.08163 0.82665 0.0
H736 H 0.46455 0.69788 0.21721 0.0
H737 H 0.45767 0.6633 0.15523 0.0
H738 H 0.49858 0.68493 0.99274 0.0
H739 H 0.50644 0.7188 0.0552 0.0
H740 H 0.44435 0.65248 0.03928 0.0
H741 H 0.52788 0.62201 0.03911 0.0
H742 H 0.51489 0.6473 0.08682 0.0
H743 H 0.52385 0.65015 1.00325 0.0
C744 C 0.47186 0.69545 0.16796 0.0
C745 C 0.48647 0.71073 0.14165 0.0
C746 C 0.46778 0.67579 0.13253 0.0
C747 C 0.4781 0.67126 0.07013 0.0
C748 C 0.49085 0.6879 0.04142 0.0
H749 H 0.46895 0.56147 0.79364 0.0
H750 H 0.46208 0.59672 0.86403 0.0
C751 C 0.49513 0.70741 0.07702 0.0
C752 C 0.47761 0.64788 0.03816 0.0
H753 H 0.50925 0.59887 0.97732 0.0
C754 C 0.45848 0.64067 0.0258 0.0
C755 C 0.496 0.63225 0.02256 0.0
C756 C 0.51678 0.63816 0.03917 0.0
C757 C 0.4574 0.61845 0.99617 0.0
C758 C 0.476 0.60338 0.97749 0.0
C759 C 0.49499 0.61042 0.9915 0.0
C760 C 0.47664 0.58077 0.94032 0.0
C761 C 0.43635 0.61128 0.98593 0.0
C762 C 0.48702 0.55992 0.9598 0.0
C763 C 0.49141 0.53982 0.91893 0.0
C764 C 0.48536 0.54019 0.85803 0.0
C765 C 0.47374 0.56054 0.84038 0.0
C766 C 0.46963 0.58072 0.88088 0.0
H767 H 0.4237 0.6203 0.02161 0.0
H768 H 0.43321 0.61664 0.938 0.0
H769 H 0.43575 0.59179 0.98881 0.0
H770 H 0.4926 0.55958 0.00548 0.0
H771 H 0.5003 0.52439 0.93403 0.0
H772 H 0.8045 0.58773 0.37359 0.0
H773 H 0.83561 0.59739 0.30313 0.0
H774 H 0.82037 0.55098 0.15588 0.0
H775 H 0.78928 0.5423 0.2244 0.0
H776 H 0.86492 0.56592 0.27942 0.0
H777 H 0.85147 0.59276 0.04345 0.0
H778 H 0.83056 0.59637 0.11 0.0
H779 H 0.83505 0.5694 0.06036 0.0
C780 C 0.80732 0.58065 0.3249 0.0
C781 C 0.79466 0.56403 0.30465 0.0
C782 C 0.82511 0.58614 0.28467 0.0
C783 C 0.83056 0.57487 0.22401 0.0
C784 C 0.81648 0.5605 0.20151 0.0
H785 H 0.92117 0.47109 0.11412 0.0
H786 H 0.89818 0.50376 0.17105 0.0
C787 C 0.7986 0.55534 0.24119 0.0
C788 C 0.85252 0.57263 0.19159 0.0
H789 H 0.87893 0.55738 0.04382 0.0
C790 C 0.86819 0.56497 0.22778 0.0
C791 C 0.85749 0.57225 0.12443 0.0
C792 C 0.8427 0.58347 0.08275 0.0
C793 C 0.88732 0.55353 0.19861 0.0
C794 C 0.89049 0.54888 0.13195 0.0
C795 C 0.87625 0.55989 0.09529 0.0
C796 C 0.90636 0.53002 0.10092 0.0
C797 C 0.90333 0.54543 0.24028 0.0
C798 C 0.91817 0.53354 0.04163 0.0
C799 C 0.93072 0.51465 0.00837 0.0
C800 C 0.9318 0.492 0.03405 0.0
C801 C 0.92063 0.48852 0.094 0.0
C802 C 0.90774 0.5073 0.12675 0.0
H803 H 0.90395 0.55927 0.27774 0.0
H804 H 0.89864 0.52925 0.26498 0.0
H805 H 0.91916 0.54149 0.21266 0.0
H806 H 0.91725 0.55072 0.02019 0.0
H807 H 0.93934 0.5176 0.96199 0.0
H808 H 0.04539 0.24498 0.04272 0.0
H809 H 0.05157 0.21207 0.96261 0.0
H810 H 0.98535 0.20585 0.98425 0.0
H811 H 0.97912 0.23933 0.06024 0.0
H812 H 0.04556 0.16853 0.98049 0.0
H813 H 0.99748 0.19654 0.79842 0.0
H814 H 1.00314 0.21726 0.85794 0.0
H815 H 0.98128 0.19973 0.87439 0.0
C816 C 0.03214 0.23713 0.02847 0.0
C817 C 0.01178 0.24468 0.05821 0.0
C818 C 0.03568 0.21816 0.98309 0.0
C819 C 0.01892 0.20648 0.9665 0.0
C820 C 0.99857 0.21479 0.99436 0.0
H821 H 0.01514 0.05806 0.89602 0.0
H822 H 0.01803 0.0981 0.93645 0.0
C823 C 0.99503 0.23382 0.03875 0.0
C824 C 0.02252 0.18406 0.92629 0.0
H825 H 1.00205 0.15366 0.81309 0.0
C826 C 0.03635 0.16548 0.94293 0.0
C827 C 0.01099 0.17997 0.87599 0.0
C828 C 0.99761 0.19959 0.85029 0.0
C829 C 0.03793 0.14269 0.9138 0.0
C830 C 0.02465 0.13796 0.86862 0.0
C831 C 0.01187 0.15693 0.84888 0.0
C832 C 0.02307 0.11342 0.84341 0.0
C833 C 0.05388 0.12402 0.93204 0.0
C834 C 0.02387 0.10868 0.77767 0.0
C835 C 0.02154 0.08583 0.75453 0.0
C836 C 0.01863 0.06716 0.79657 0.0
C837 C 0.01773 0.07194 0.86225 0.0
C838 C 0.0196 0.09485 0.88543 0.0
H839 H 0.06754 0.1322 0.94571 0.0
H840 H 0.0468 0.11471 0.97407 0.0
H841 H 0.0595 0.11076 0.89248 0.0
H842 H 0.02633 0.12265 0.74413 0.0
H843 H 0.02227 0.08273 0.70364 0.0
H844 H 0.28874 0.0384 0.13597 0.0
H845 H 0.31952 0.04482 0.05907 0.0
H846 H 0.31698 0.97614 0.96991 0.0
H847 H 0.28603 0.97005 0.04595 0.0
H848 H 0.35538 0.01751 0.05701 0.0
H849 H 0.33381 0.01333 0.81466 0.0
H850 H 0.31453 0.01796 0.88526 0.0
H851 H 0.32619 0.9885 0.86051 0.0
C852 C 0.29405 0.02534 0.09755 0.0
C853 C 0.28458 0.00405 0.09573 0.0
C854 C 0.31187 0.02882 0.05416 0.0
C855 C 0.32067 0.01105 0.00807 0.0
C856 C 0.31035 0.99043 1.00364 0.0
H857 H 0.44172 0.97236 0.78096 0.0
H858 H 0.40549 0.97531 0.8336 0.0
C859 C 0.2925 0.987 0.04693 0.0
C860 C 0.34197 0.01254 0.97125 0.0
H861 H 0.3704 0.00691 0.82164 0.0
C862 C 0.35856 0.01555 0.00544 0.0
C863 C 0.34633 0.00971 0.90393 0.0
C864 C 0.32924 0.00743 0.86389 0.0
C865 C 0.37929 0.01516 0.97471 0.0
C866 C 0.3837 0.01205 0.90749 0.0
C867 C 0.36711 0.00929 0.87311 0.0
C868 C 0.40549 0.01096 0.87252 0.0
C869 C 0.39642 0.01717 0.01491 0.0
C870 C 0.41759 0.03019 0.8755 0.0
C871 C 0.4384 0.02855 0.84547 0.0
C872 C 0.44764 0.00766 0.81142 0.0
C873 C 0.43527 0.98869 0.80698 0.0
C874 C 0.41446 0.99036 0.83698 0.0
H875 H 0.39119 0.01355 0.06569 0.0
H876 H 0.41029 0.00465 0.99684 0.0
H877 H 0.40123 0.03548 0.01281 0.0
H878 H 0.41097 0.04646 0.90149 0.0
H879 H 0.44731 0.0436 0.84969 0.0
H880 H 0.46654 0.28131 0.16757 0.0
H881 H 0.45827 0.31215 0.09307 0.0
H882 H 0.51829 0.29402 0.9785 0.0
H883 H 0.52644 0.26329 0.05272 0.0
H884 H 0.48239 0.34954 0.07945 0.0
H885 H 0.48108 0.30769 0.8421 0.0
H886 H 0.47775 0.2914 0.91462 0.0
H887 H 0.50345 0.29668 0.87692 0.0
C888 C 0.47744 0.28313 0.12462 0.0
C889 C 0.49693 0.26966 0.115 0.0
C890 C 0.47283 0.3009 0.08245 0.0
C891 C 0.48759 0.30534 0.02981 0.0
C892 C 0.50644 0.29064 0.01777 0.0
H893 H 0.52803 0.42982 0.86042 0.0
H894 H 0.52093 0.39426 0.9196 0.0
C895 C 0.51109 0.27301 0.06008 0.0
C896 C 0.48499 0.32747 0.99399 0.0
H897 H 0.48867 0.34873 0.84354 0.0
C898 C 0.48332 0.34934 0.02797 0.0
C899 C 0.48617 0.32731 0.92682 0.0
C900 C 0.487 0.30451 0.88801 0.0
C901 C 0.48396 0.37087 0.99642 0.0
C902 C 0.48643 0.37058 0.92912 0.0
C903 C 0.48694 0.34889 0.89518 0.0
C904 C 0.49024 0.39239 0.89339 0.0
C905 C 0.4826 0.39379 0.03516 0.0
C906 C 0.47532 0.40311 0.85873 0.0
C907 C 0.47926 0.42368 0.82505 0.0
C908 C 0.49832 0.43363 0.82472 0.0
C909 C 0.5132 0.42269 0.85947 0.0
C910 C 0.50916 0.40237 0.89351 0.0
H911 H 0.476 0.39169 0.08583 0.0
H912 H 0.49848 0.3996 0.03372 0.0
H913 H 0.47284 0.40801 0.01505 0.0
H914 H 0.46064 0.39561 0.85794 0.0
H915 H 0.46753 0.43153 0.79846 0.0
H916 H 0.21178 0.53197 0.97143 0.0
H917 H 0.18339 0.52422 0.91259 0.0
H918 H 0.19047 0.45034 0.9584 0.0
H919 H 0.21887 0.45824 0.01879 0.0
H920 H 0.17865 0.49496 0.81148 0.0
H921 H 0.12983 0.4702 0.03312 0.0
H922 H 0.1539 0.48352 0.03433 0.0
H923 H 0.15441 0.45263 0.01202 0.0
C924 C 0.20757 0.51396 0.96793 0.0
C925 C 0.2175 0.49573 0.99997 0.0
C926 C 0.19129 0.50955 0.93433 0.0
C927 C 0.18439 0.48681 0.93209 0.0
C928 C 0.19518 0.46816 0.96054 0.0
H929 H 0.06825 0.44991 0.80323 0.0
H930 H 0.10259 0.4472 0.83828 0.0
C931 C 0.2116 0.47259 0.99427 0.0
C932 C 0.16522 0.48339 0.90304 0.0
H933 H 0.11445 0.47099 0.93962 0.0
C934 C 0.16468 0.48951 0.8394 0.0
C935 C 0.14688 0.47636 0.93933 0.0
C936 C 0.1461 0.47047 0.00862 0.0
C937 C 0.14635 0.48908 0.81145 0.0
C938 C 0.12787 0.48274 0.84832 0.0
C939 C 0.12857 0.47589 0.9113 0.0
C940 C 0.10743 0.4841 0.82361 0.0
C941 C 0.147 0.4954 0.74254 0.0
C942 C 0.09854 0.50576 0.80382 0.0
C943 C 0.07888 0.50738 0.78373 0.0
C944 C 0.06752 0.48739 0.78324 0.0
C945 C 0.07652 0.46566 0.80265 0.0
C946 C 0.09618 0.46408 0.82288 0.0
H947 H 0.16313 0.49265 0.71614 0.0
H948 H 0.13682 0.48468 0.71823 0.0
H949 H 0.1414 0.51444 0.74017 0.0
H950 H 0.10662 0.52161 0.80522 0.0
H951 H 0.07248 0.52444 0.76946 0.0
H952 H 0.97422 0.75584 0.39586 0.0
H953 H 0.96751 0.79234 0.46397 0.0
H954 H 0.02834 0.77919 0.52113 0.0
H955 H 0.03493 0.74281 0.45389 0.0
H956 H 0.99693 0.79888 0.62108 0.0
H957 H 0.99855 0.84957 0.39888 0.0
H958 H 0.97951 0.82842 0.41103 0.0
H959 H 1.00681 0.81823 0.39789 0.0
C960 C 0.98579 0.76036 0.4248 0.0
C961 C 1.00508 0.74656 0.41978 0.0
C962 C 0.98208 0.78134 0.46303 0.0
C963 C 0.99761 0.78874 0.49664 0.0
C964 C 0.01617 0.77391 0.49549 0.0
H965 H 0.0323 0.9112 0.69068 0.0
H966 H 0.02816 0.87158 0.64906 0.0
C967 C 0.0199 0.7531 0.45725 0.0
C968 C 0.99565 0.81279 0.52802 0.0
H969 H 0.99538 0.87166 0.4952 0.0
C970 C 0.99638 0.81483 0.59373 0.0
C971 C 0.99506 0.8336 0.49221 0.0
C972 C 0.9951 0.8325 0.42102 0.0
C973 C 0.99665 0.83707 0.62451 0.0
C974 C 0.99666 0.85781 0.58834 0.0
C975 C 0.99539 0.8558 0.52294 0.0
C976 C 0.99868 0.88169 0.61656 0.0
C977 C 0.99684 0.83813 0.69553 0.0
C978 C 0.98375 0.90079 0.61099 0.0
C979 C 0.98619 0.92358 0.63412 0.0
C980 C 1.00369 0.92784 0.66311 0.0
C981 C 0.01858 0.90863 0.66891 0.0
C982 C 0.01615 0.88586 0.64559 0.0
H983 H 0.99033 0.82246 0.7186 0.0
H984 H 0.01318 0.83817 0.70482 0.0
H985 H 0.98776 0.85449 0.71814 0.0
H986 H 0.97022 0.89809 0.58841 0.0
H987 H 0.97438 0.93788 0.62876 0.0
H988 H 0.72416 0.03734 0.36179 0.0
H989 H 0.69443 0.03326 0.44318 0.0
H990 H 0.71566 0.95943 0.45924 0.0
H991 H 0.74515 0.96334 0.37443 0.0
H992 H 0.67696 0.96224 0.44745 0.0
H993 H 0.68244 0.03103 0.62932 0.0
H994 H 0.68346 0.04456 0.55366 0.0
H995 H 0.70389 0.0222 0.56694 0.0
C996 C 0.72289 0.02039 0.3841 0.0
C997 C 0.7371 1.00069 0.36179 0.0
C998 C 0.70584 0.01808 0.43117 0.0
C999 C 0.7027 0.9961 0.45866 0.0
C1000 C 0.71765 0.97665 0.43925 0.0
H1001 H 0.58875 0.99663 0.74395 0.0
H1002 H 0.62544 0.99422 0.69461 0.0
C1003 C 0.7347 0.97893 0.39131 0.0
C1004 C 0.68264 0.99308 0.50137 0.0
H1005 H 0.64727 0.02078 0.6218 0.0
C1006 C 0.6707 0.97482 0.48634 0.0
C1007 C 0.67434 0.00906 0.55331 0.0
C1008 C 0.68687 0.0276 0.5771 0.0
C1009 C 0.65051 0.9729 0.51909 0.0
C1010 C 0.64143 0.99028 0.56682 0.0
C1011 C 0.65381 0.00772 0.58433 0.0
C1012 C 0.61904 0.99114 0.59751 0.0
C1013 C 0.63926 0.95203 0.50213 0.0
C1014 C 0.60296 0.99061 0.55995 0.0
C1015 C 0.58203 0.99151 0.58815 0.0
C1016 C 0.57646 0.99366 0.6548 0.0
C1017 C 0.59246 0.99487 0.69251 0.0
C1018 C 0.61349 0.99352 0.66422 0.0
H1019 H 0.65048 0.93645 0.48471 0.0
H1020 H 0.62841 0.94669 0.54355 0.0
H1021 H 0.63022 0.95685 0.46304 0.0
H1022 H 0.60652 0.98979 0.50845 0.0
H1023 H 0.57016 0.99096 0.55744 0.0
H1024 H 0.48554 0.72342 0.38612 0.0
H1025 H 0.49329 0.69212 0.4588 0.0
H1026 H 0.55783 0.68528 0.37185 0.0
H1027 H 0.54989 0.7165 0.29812 0.0
H1028 H 0.54086 0.64412 0.36561 0.0
H1029 H 0.52144 0.68026 0.61317 0.0
H1030 H 0.50057 0.6878 0.56846 0.0
H1031 H 0.52546 0.69914 0.54583 0.0
C1032 C 0.50159 0.71612 0.38491 0.0
C1033 C 0.51718 0.7226 0.33723 0.0
C1034 C 0.50603 0.69812 0.42636 0.0
C1035 C 0.52619 0.68632 0.42119 0.0
C1036 C 0.54218 0.69418 0.37701 0.0
H1037 H 0.54672 0.56438 0.66129 0.0
H1038 H 0.55018 0.60193 0.60793 0.0
C1039 C 0.53772 0.71225 0.33546 0.0
C1040 C 0.52957 0.66362 0.45422 0.0
H1041 H 0.51995 0.63793 0.59845 0.0
C1042 C 0.53663 0.64286 0.41672 0.0
C1043 C 0.5242 0.66185 0.52093 0.0
C1044 C 0.5177 0.68351 0.56445 0.0
C1045 C 0.53758 0.62037 0.44355 0.0
C1046 C 0.53088 0.61847 0.5096 0.0
C1047 C 0.52478 0.6393 0.54764 0.0
C1048 C 0.52956 0.59504 0.53983 0.0
C1049 C 0.54564 0.59886 0.40071 0.0
C1050 C 0.51682 0.57856 0.51937 0.0
C1051 C 0.51486 0.55696 0.54963 0.0
C1052 C 0.52546 0.55144 0.60145 0.0
C1053 C 0.53836 0.56793 0.62145 0.0
C1054 C 0.54032 0.58949 0.5911 0.0
H1055 H 0.55592 0.60371 0.35734 0.0
H1056 H 0.55449 0.58534 0.42602 0.0
H1057 H 0.53226 0.59076 0.38506 0.0
H1058 H 0.50799 0.58262 0.48083 0.0
H1059 H 0.50464 0.54486 0.53324 0.0
H1060 H 0.80923 0.48628 0.4183 0.0
H1061 H 0.83766 0.4779 0.48061 0.0
H1062 H 0.80701 0.529 0.62608 0.0
H1063 H 0.77885 0.53785 0.56238 0.0
H1064 H 0.84503 0.53935 0.5869 0.0
H1065 H 0.85036 0.4437 0.63523 0.0
H1066 H 0.85003 0.44852 0.55216 0.0
H1067 H 0.8276 0.45894 0.60944 0.0
C1068 C 0.80802 0.49474 0.4652 0.0
C1069 C 0.79155 0.51223 0.48634 0.0
C1070 C 0.82438 0.49004 0.50082 0.0
C1071 C 0.82454 0.50264 0.55865 0.0
C1072 C 0.80728 0.51892 0.5819 0.0
H1073 H 0.93058 0.48155 0.77516 0.0
H1074 H 0.89569 0.48281 0.74375 0.0
C1075 C 0.791 0.52374 0.546 0.0
C1076 C 0.84388 0.50144 0.5895 0.0
H1077 H 0.88167 0.46319 0.63923 0.0
C1078 C 0.85282 0.52267 0.59917 0.0
C1079 C 0.85416 0.47979 0.60614 0.0
C1080 C 0.84491 0.45649 0.60083 0.0
C1081 C 0.87193 0.52281 0.62267 0.0
C1082 C 0.88283 0.50105 0.63567 0.0
C1083 C 0.87354 0.47987 0.62847 0.0
C1084 C 0.9041 0.49997 0.65482 0.0
C1085 C 0.88025 0.54637 0.63339 0.0
C1086 C 0.9206 0.50886 0.61505 0.0
C1087 C 0.94051 0.50828 0.63296 0.0
C1088 C 0.94455 0.49856 0.69094 0.0
C1089 C 0.92808 0.48927 0.73032 0.0
C1090 C 0.9081 0.48992 0.71235 0.0
H1091 H 0.86752 0.56111 0.64051 0.0
H1092 H 0.88858 0.54616 0.67549 0.0
H1093 H 0.89135 0.55016 0.59082 0.0
H1094 H 0.91812 0.51617 0.56972 0.0
H1095 H 0.95278 0.51536 0.60096 0.0
loop_
_geom_bond_atom_site_label_1
_geom_bond_atom_site_label_2
_geom_bond_distance
_geom_bond_site_symmetry_2
_ccdc_geom_bond_type
H0 C3 0.931 . S
H1 C6 0.928 . S
H2 C8 0.930 . S
C3 H0 0.931 . S
C3 C4 1.413 . S
C3 C5 1.360 . S
C4 C3 1.413 . S
C4 C8 1.429 . S
C5 C3 1.360 . S
C5 C6 1.372 . S
C6 H1 0.928 . S
C6 C5 1.372 . S
C6 C7 1.404 . S
C7 C6 1.404 . S
C7 C8 1.391 . S
C8 H2 0.930 . S
C8 C4 1.429 . S
C8 C7 1.391 . S
H9 C12 0.931 . S
H10 C15 0.928 . S
H11 C17 0.930 . S
C12 H9 0.931 . S
C12 C13 1.413 . S
C12 C14 1.360 . S
C13 C12 1.413 . S
C13 C17 1.429 . S
C14 C12 1.360 . S
C14 C15 1.372 . S
C15 H10 0.928 . S
C15 C14 1.372 . S
C15 C16 1.404 . S
C16 C15 1.404 . S
C16 C17 1.391 . S
C17 H11 0.930 . S
C17 C13 1.429 . S
C17 C16 1.391 . S
H18 C21 0.930 . S
H19 C24 0.928 . S
H20 C26 0.929 . S
C21 H18 0.930 . S
C21 C22 1.413 . S
C21 C23 1.360 . S
C22 C21 1.413 . S
C22 C26 1.428 1_565 S
C23 C21 1.360 . S
C23 C24 1.370 . S
C24 H19 0.928 . S
C24 C23 1.370 . S
C24 C25 1.405 . S
C25 C24 1.405 . S
C25 C26 1.391 1_565 S
C26 H20 0.929 . S
C26 C22 1.428 1_545 S
C26 C25 1.391 1_545 S
H27 C30 0.931 . S
H28 C33 0.928 . S
H29 C35 0.930 . S
C30 H27 0.931 . S
C30 C31 1.413 . S
C30 C32 1.360 . S
C31 C30 1.413 . S
C31 C35 1.429 . S
C32 C30 1.360 . S
C32 C33 1.372 . S
C33 H28 0.928 . S
C33 C32 1.372 . S
C33 C34 1.404 . S
C34 C33 1.404 . S
C34 C35 1.391 . S
C35 H29 0.930 . S
C35 C31 1.429 . S
C35 C34 1.391 . S
H36 C39 0.931 . S
H37 C42 0.928 . S
H38 C44 0.930 . S
C39 H36 0.931 . S
C39 C40 1.413 . S
C39 C41 1.360 1_556 S
C40 C39 1.413 . S
C40 C44 1.429 . S
C41 C39 1.360 1_554 S
C41 C42 1.372 . S
C42 H37 0.928 . S
C42 C41 1.372 . S
C42 C43 1.404 . S
C43 C42 1.404 . S
C43 C44 1.391 1_554 S
C44 H38 0.930 . S
C44 C40 1.429 . S
C44 C43 1.391 1_556 S
H45 C48 0.931 . S
H46 C51 0.928 . S
H47 C53 0.930 . S
C48 H45 0.931 . S
C48 C49 1.413 . S
C48 C50 1.360 . S
C49 C48 1.413 . S
C49 C53 1.429 . S
C50 C48 1.360 . S
C50 C51 1.372 . S
C51 H46 0.928 . S
C51 C50 1.372 . S
C51 C52 1.404 . S
C52 C51 1.404 . S
C52 C53 1.391 . S
C53 H47 0.930 . S
C53 C49 1.429 . S
C53 C52 1.391 . S
H54 C57 0.931 . S
H55 C60 0.928 . S
H56 C62 0.931 . S
C57 H54 0.931 . S
C57 C58 1.414 . S
C57 C59 1.360 . S
C58 C57 1.414 . S
C58 C62 1.430 1_565 S
C59 C57 1.360 . S
C59 C60 1.373 . S
C60 H55 0.928 . S
C60 C59 1.373 . S
C60 C61 1.404 . S
C61 C60 1.404 . S
C61 C62 1.390 1_565 S
C62 H56 0.931 . S
C62 C58 1.430 1_545 S
C62 C61 1.390 1_545 S
H63 C66 0.931 . S
H64 C69 0.928 . S
H65 C71 0.930 . S
C66 H63 0.931 . S
C66 C67 1.413 . S
C66 C68 1.360 . S
C67 C66 1.413 . S
C67 C71 1.429 . S
C68 C66 1.360 . S
C68 C69 1.372 . S
C69 H64 0.928 . S
C69 C68 1.372 . S
C69 C70 1.404 . S
C70 C69 1.404 . S
C70 C71 1.391 . S
C71 H65 0.930 . S
C71 C67 1.429 . S
C71 C70 1.391 . S
Dy72 O75 2.307 1_545 S
Dy72 O77 2.395 1_655 S
Dy72 O78 2.379 . S
Dy72 O80 2.339 . S
Dy72 O82 2.298 . S
Dy72 O86 2.275 1_655 S
Dy72 C94 2.738 . S
Dy73 O76 2.298 . S
Dy73 O79 2.275 1_455 S
Dy73 O81 2.307 1_565 S
Dy73 O83 2.397 1_455 S
Dy73 O84 2.379 . S
Dy73 O87 2.339 . S
Dy73 C103 2.738 . S
C74 O86 1.254 1_565 S
C74 O87 1.257 . S
O75 Dy72 2.307 1_565 S
O75 C85 1.266 . S
O76 Dy73 2.298 . S
O76 C85 1.236 1_455 S
O77 Dy72 2.395 1_455 S
O77 C94 1.255 1_455 S
O78 Dy72 2.379 . S
O78 C94 1.249 . S
O79 Dy73 2.275 1_655 S
O79 C95 1.254 1_565 S
O80 Dy72 2.339 . S
O80 C95 1.257 . S
O81 Dy73 2.307 1_545 S
O81 C96 1.266 . S
O82 Dy72 2.298 . S
O82 C96 1.236 1_655 S
O83 Dy73 2.397 1_655 S
O83 C103 1.260 1_655 S
O84 Dy73 2.379 . S
O84 C103 1.249 . S
C85 O75 1.266 . S
C85 O76 1.236 1_655 S
O86 Dy72 2.275 1_455 S
O86 C74 1.254 1_545 S
O87 Dy73 2.339 . S
O87 C74 1.257 . S
C88 C91 1.344 1_655 S
C88 C92 1.328 . S
C88 C94 1.516 . S
C89 C90 1.304 1_655 S
C89 C93 1.323 . S
C90 C89 1.304 1_455 S
C90 C91 1.371 . S
C90 H104 0.930 . S
C91 C88 1.344 1_455 S
C91 C90 1.371 . S
C91 H105 0.931 . S
C92 C88 1.328 . S
C92 C93 1.433 . S
C92 H106 0.931 . S
C93 C89 1.323 . S
C93 C92 1.433 . S
C93 H107 0.933 . S
C94 Dy72 2.738 . S
C94 O77 1.255 1_655 S
C94 O78 1.249 . S
C94 C88 1.516 . S
C95 O79 1.254 1_545 S
C95 O80 1.257 . S
C96 O81 1.266 . S
C96 O82 1.236 1_455 S
C97 C100 1.344 . S
C97 C101 1.328 . S
C97 C103 1.516 . S
C98 C99 1.304 . S
C98 C102 1.323 . S
C99 C98 1.304 . S
C99 C100 1.371 . S
C99 H108 0.930 1_455 S
C100 C97 1.344 . S
C100 C99 1.371 . S
C100 H109 0.931 1_455 S
C101 C97 1.328 . S
C101 C102 1.433 . S
C101 H110 0.931 . S
C102 C98 1.323 . S
C102 C101 1.433 . S
C102 H111 0.933 . S
C103 Dy73 2.738 . S
C103 O83 1.260 1_455 S
C103 O84 1.249 . S
C103 C97 1.516 . S
H104 C90 0.930 . S
H105 C91 0.931 . S
H106 C92 0.931 . S
H107 C93 0.933 . S
H108 C99 0.930 1_655 S
H109 C100 0.931 1_655 S
H110 C101 0.931 . S
H111 C102 0.933 . S
Dy112 O115 2.307 . S
Dy112 O117 2.395 1_565 S
Dy112 O118 2.379 . S
Dy112 O120 2.339 . S
Dy112 O122 2.298 . S
Dy112 O126 2.275 1_565 S
Dy112 C134 2.738 . S
Dy113 O116 2.298 . S
Dy113 O119 2.275 1_545 S
Dy113 O121 2.307 . S
Dy113 O123 2.395 1_545 S
Dy113 O124 2.379 . S
Dy113 O127 2.339 . S
Dy113 C143 2.738 . S
C114 O126 1.254 . S
C114 O127 1.257 . S
O115 Dy112 2.307 . S
O115 C125 1.266 . S
O116 Dy113 2.298 . S
O116 C125 1.236 1_545 S
O117 Dy112 2.395 1_545 S
O117 C134 1.255 1_545 S
O118 Dy112 2.379 . S
O118 C134 1.249 . S
O119 Dy113 2.275 1_565 S
O119 C135 1.254 . S
O120 Dy112 2.339 . S
O120 C135 1.257 . S
O121 Dy113 2.307 . S
O121 C136 1.266 . S
O122 Dy112 2.298 . S
O122 C136 1.236 1_565 S
O123 Dy113 2.395 1_565 S
O123 C143 1.255 1_565 S
O124 Dy113 2.379 . S
O124 C143 1.249 . S
C125 O115 1.266 . S
C125 O116 1.236 1_565 S
O126 Dy112 2.275 1_545 S
O126 C114 1.254 . S
O127 Dy113 2.339 . S
O127 C114 1.257 . S
C128 C131 1.329 1_565 S
C128 C132 1.328 . S
C128 C134 1.516 . S
C129 C130 1.304 . S
C129 C133 1.323 . S
C130 C129 1.304 . S
C130 C131 1.368 1_565 S
C130 H144 0.930 1_565 S
C131 C128 1.329 1_545 S
C131 C130 1.368 1_545 S
C131 H145 0.949 . S
C132 C128 1.328 . S
C132 C133 1.433 . S
C132 H146 0.931 . S
C133 C129 1.323 . S
C133 C132 1.433 . S
C133 H147 0.933 . S
C134 Dy112 2.738 . S
C134 O117 1.255 1_565 S
C134 O118 1.249 . S
C134 C128 1.516 . S
C135 O119 1.254 . S
C135 O120 1.257 . S
C136 O121 1.266 . S
C136 O122 1.236 1_545 S
C137 C140 1.337 1_545 S
C137 C141 1.328 . S
C137 C143 1.516 . S
C138 C139 1.304 . S
C138 C142 1.323 . S
C139 C138 1.304 . S
C139 C140 1.370 1_545 S
C139 H148 0.930 1_545 S
C140 C137 1.337 1_565 S
C140 C139 1.370 1_565 S
C140 H149 0.939 . S
C141 C137 1.328 . S
C141 C142 1.433 . S
C141 H150 0.931 . S
C142 C138 1.323 . S
C142 C141 1.433 . S
C142 H151 0.933 . S
C143 Dy113 2.738 . S
C143 O123 1.255 1_545 S
C143 O124 1.249 . S
C143 C137 1.516 . S
H144 C130 0.930 1_545 S
H145 C131 0.949 . S
H146 C132 0.931 . S
H147 C133 0.933 . S
H148 C139 0.930 1_565 S
H149 C140 0.939 . S
H150 C141 0.931 . S
H151 C142 0.933 . S
Dy152 O155 2.307 . S
Dy152 O157 2.395 . S
Dy152 O158 2.379 . S
Dy152 O160 2.339 . S
Dy152 O162 2.298 . S
Dy152 O166 2.275 . S
Dy152 C174 2.738 . S
Dy153 O156 2.298 . S
Dy153 O159 2.275 . S
Dy153 O161 2.307 . S
Dy153 O163 2.395 . S
Dy153 O164 2.379 . S
Dy153 O167 2.339 . S
Dy153 C183 2.738 . S
C154 O166 1.254 . S
C154 O167 1.257 . S
O155 Dy152 2.307 . S
O155 C165 1.266 . S
O156 Dy153 2.298 . S
O156 C165 1.236 . S
O157 Dy152 2.395 . S
O157 C174 1.255 . S
O158 Dy152 2.379 . S
O158 C174 1.249 . S
O159 Dy153 2.275 . S
O159 C175 1.254 . S
O160 Dy152 2.339 . S
O160 C175 1.257 . S
O161 Dy153 2.307 . S
O161 C176 1.266 . S
O162 Dy152 2.298 . S
O162 C176 1.236 . S
O163 Dy153 2.395 . S
O163 C183 1.255 . S
O164 Dy153 2.379 . S
O164 C183 1.249 . S
C165 O155 1.266 . S
C165 O156 1.236 . S
O166 Dy152 2.275 . S
O166 C154 1.254 . S
O167 Dy153 2.339 . S
O167 C154 1.257 . S
C168 C171 1.344 . S
C168 C172 1.328 . S
C168 C174 1.516 . S
C169 C170 1.304 . S
C169 C173 1.323 . S
C170 C169 1.304 . S
C170 C171 1.371 . S
C170 H184 0.930 . S
C171 C168 1.344 . S
C171 C170 1.371 . S
C171 H185 0.931 . S
C172 C168 1.328 . S
C172 C173 1.433 . S
C172 H186 0.931 . S
C173 C169 1.323 . S
C173 C172 1.433 . S
C173 H187 0.933 . S
C174 Dy152 2.738 . S
C174 O157 1.255 . S
C174 O158 1.249 . S
C174 C168 1.516 . S
C175 O159 1.254 . S
C175 O160 1.257 . S
C176 O161 1.266 . S
C176 O162 1.236 . S
C177 C180 1.344 . S
C177 C181 1.328 . S
C177 C183 1.516 . S
C178 C179 1.304 . S
C178 C182 1.323 . S
C179 C178 1.304 . S
C179 C180 1.371 . S
C179 H188 0.930 . S
C180 C177 1.344 . S
C180 C179 1.371 . S
C180 H189 0.931 . S
C181 C177 1.328 . S
C181 C182 1.433 . S
C181 H190 0.931 . S
C182 C178 1.323 . S
C182 C181 1.433 . S
C182 H191 0.933 . S
C183 Dy153 2.738 . S
C183 O163 1.255 . S
C183 O164 1.249 . S
C183 C177 1.516 . S
H184 C170 0.930 . S
H185 C171 0.931 . S
H186 C172 0.931 . S
H187 C173 0.933 . S
H188 C179 0.930 . S
H189 C180 0.931 . S
H190 C181 0.931 . S
H191 C182 0.933 . S
Dy192 O195 2.307 1_455 S
Dy192 O197 2.395 . S
Dy192 O198 2.379 . S
Dy192 O200 2.339 . S
Dy192 O202 2.298 . S
Dy192 O206 2.275 . S
Dy192 C214 2.738 . S
Dy193 O196 2.298 . S
Dy193 O199 2.275 . S
Dy193 O201 2.307 1_655 S
Dy193 O203 2.395 . S
Dy193 O204 2.379 . S
Dy193 O207 2.339 . S
Dy193 C223 2.738 . S
C194 O206 1.254 . S
C194 O207 1.257 1_455 S
O195 Dy192 2.307 1_655 S
O195 C205 1.266 . S
O196 Dy193 2.298 . S
O196 C205 1.236 . S
O197 Dy192 2.395 . S
O197 C214 1.255 . S
O198 Dy192 2.379 . S
O198 C214 1.249 . S
O199 Dy193 2.275 . S
O199 C215 1.254 1_655 S
O200 Dy192 2.339 . S
O200 C215 1.257 . S
O201 Dy193 2.307 1_455 S
O201 C216 1.266 . S
O202 Dy192 2.298 . S
O202 C216 1.236 . S
O203 Dy193 2.395 . S
O203 C223 1.255 . S
O204 Dy193 2.379 . S
O204 C223 1.249 . S
C205 O195 1.266 . S
C205 O196 1.236 . S
O206 Dy192 2.275 . S
O206 C194 1.254 . S
O207 Dy193 2.339 . S
O207 C194 1.257 1_655 S
C208 C211 1.344 . S
C208 C212 1.328 . S
C208 C214 1.516 . S
C209 C210 1.304 . S
C209 C213 1.323 . S
C210 C209 1.304 . S
C210 C211 1.371 . S
C210 H224 0.930 . S
C211 C208 1.344 . S
C211 C210 1.371 . S
C211 H225 0.931 . S
C212 C208 1.328 . S
C212 C213 1.433 . S
C212 H226 0.931 . S
C213 C209 1.323 . S
C213 C212 1.433 . S
C213 H227 0.933 . S
C214 Dy192 2.738 . S
C214 O197 1.255 . S
C214 O198 1.249 . S
C214 C208 1.516 . S
C215 O199 1.254 1_455 S
C215 O200 1.257 . S
C216 O201 1.266 . S
C216 O202 1.236 . S
C217 C220 1.344 . S
C217 C221 1.328 . S
C217 C223 1.516 . S
C218 C219 1.304 . S
C218 C222 1.323 . S
C219 C218 1.304 . S
C219 C220 1.371 . S
C219 H228 0.930 1_556 S
C220 C217 1.344 . S
C220 C219 1.371 . S
C220 H229 0.931 . S
C221 C217 1.328 . S
C221 C222 1.433 . S
C221 H230 0.931 . S
C222 C218 1.323 . S
C222 C221 1.433 . S
C222 H231 0.933 . S
C223 Dy193 2.738 . S
C223 O203 1.255 . S
C223 O204 1.249 . S
C223 C217 1.516 . S
H224 C210 0.930 . S
H225 C211 0.931 . S
H226 C212 0.931 . S
H227 C213 0.933 . S
H228 C219 0.930 1_554 S
H229 C220 0.931 . S
H230 C221 0.931 . S
H231 C222 0.933 . S
H232 C240 0.929 . S
H233 C242 0.930 . S
H234 C244 0.930 . S
H235 C247 0.929 . S
H236 C250 0.930 . S
H237 C252 0.966 . S
H238 C252 0.923 1_545 S
H239 C252 0.991 . S
C240 H232 0.929 . S
C240 C241 1.392 . S
C240 C242 1.384 . S
C241 C240 1.392 . S
C241 C247 1.373 1_545 S
C242 H233 0.930 . S
C242 C240 1.384 . S
C242 C243 1.372 . S
C243 C242 1.372 . S
C243 C244 1.400 1_545 S
C243 C248 1.490 . S
C244 H234 0.930 . S
C244 C243 1.400 1_565 S
C244 C247 1.386 . S
H245 C261 0.930 . S
H246 C262 0.931 . S
C247 H235 0.929 . S
C247 C241 1.373 1_565 S
C247 C244 1.386 . S
C248 C243 1.490 . S
C248 C250 1.395 . S
C248 C251 1.402 . S
H249 C255 0.931 . S
C250 H236 0.930 . S
C250 C248 1.395 . S
C250 C253 1.403 . S
C251 C248 1.402 . S
C251 C252 1.526 1_545 S
C251 C255 1.399 1_545 S
C252 H237 0.966 . S
C252 H238 0.923 1_565 S
C252 H239 0.991 . S
C252 C251 1.526 1_565 S
C253 C250 1.403 . S
C253 C254 1.392 . S
C253 C257 1.495 . S
C254 C253 1.392 . S
C254 C255 1.385 1_545 S
C254 C256 1.483 . S
C255 H249 0.931 . S
C255 C251 1.399 1_565 S
C255 C254 1.385 1_565 S
C256 C254 1.483 . S
C256 C258 1.415 . S
C256 C262 1.345 1_545 S
C257 C253 1.495 . S
C257 H263 0.959 . S
C257 H264 0.961 1_545 S
C257 H265 0.960 . S
C258 C256 1.415 . S
C258 C259 1.394 . S
C258 H266 0.930 . S
C259 C258 1.394 . S
C259 C260 1.402 . S
C259 H267 0.929 . S
C260 C259 1.402 . S
C260 C261 1.360 1_545 S
C261 H245 0.930 . S
C261 C260 1.360 1_565 S
C261 C262 1.379 . S
C262 H246 0.931 . S
C262 C256 1.345 1_565 S
C262 C261 1.379 . S
H263 C257 0.959 . S
H264 C257 0.961 1_565 S
H265 C257 0.960 . S
H266 C258 0.930 . S
H267 C259 0.929 . S
H268 C276 0.929 . S
H269 C278 0.930 . S
H270 C280 0.930 . S
H271 C283 0.929 . S
H272 C286 0.930 . S
H273 C288 0.960 . S
H274 C288 0.960 . S
H275 C288 0.960 . S
C276 H268 0.929 . S
C276 C277 1.377 . S
C276 C278 1.384 . S
C277 C276 1.377 . S
C277 C283 1.390 . S
C278 H269 0.930 . S
C278 C276 1.384 . S
C278 C279 1.372 . S
C279 C278 1.372 . S
C279 C280 1.400 . S
C279 C284 1.490 . S
C280 H270 0.930 . S
C280 C279 1.400 . S
C280 C283 1.386 . S
H281 C297 0.930 . S
H282 C298 0.931 . S
C283 H271 0.929 . S
C283 C277 1.390 . S
C283 C280 1.386 . S
C284 C279 1.490 . S
C284 C286 1.395 . S
C284 C287 1.403 . S
H285 C291 0.930 . S
C286 H272 0.930 . S
C286 C284 1.395 . S
C286 C289 1.403 . S
C287 C284 1.403 . S
C287 C288 1.524 . S
C287 C291 1.400 . S
C288 H273 0.960 . S
C288 H274 0.960 . S
C288 H275 0.960 . S
C288 C287 1.524 . S
C289 C286 1.403 . S
C289 C290 1.392 . S
C289 C293 1.495 . S
C290 C289 1.392 . S
C290 C291 1.385 . S
C290 C292 1.478 . S
C291 H285 0.930 . S
C291 C287 1.400 . S
C291 C290 1.385 . S
C292 C290 1.478 . S
C292 C294 1.381 . S
C292 C298 1.383 . S
C293 C289 1.495 . S
C293 H299 0.959 . S
C293 H300 0.961 . S
C293 H301 0.960 . S
C294 C292 1.381 . S
C294 C295 1.394 . S
C294 H302 0.930 . S
C295 C294 1.394 . S
C295 C296 1.383 . S
C295 H303 0.929 . S
C296 C295 1.383 . S
C296 C297 1.377 . S
C297 H281 0.930 . S
C297 C296 1.377 . S
C297 C298 1.379 . S
C298 H282 0.931 . S
C298 C292 1.383 . S
C298 C297 1.379 . S
H299 C293 0.959 . S
H300 C293 0.961 . S
H301 C293 0.960 . S
H302 C294 0.930 . S
H303 C295 0.929 . S
H304 C312 0.929 . S
H305 C314 0.930 . S
H306 C316 0.930 . S
H307 C319 0.929 . S
H308 C322 0.930 . S
H309 C324 0.960 . S
H310 C324 0.960 . S
H311 C324 0.960 . S
C312 H304 0.929 . S
C312 C313 1.377 . S
C312 C314 1.384 . S
C313 C312 1.377 . S
C313 C319 1.390 . S
C314 H305 0.930 . S
C314 C312 1.384 . S
C314 C315 1.372 . S
C315 C314 1.372 . S
C315 C316 1.400 . S
C315 C320 1.490 . S
C316 H306 0.930 . S
C316 C315 1.400 . S
C316 C319 1.386 . S
H317 C333 0.930 . S
H318 C334 0.931 . S
C319 H307 0.929 . S
C319 C313 1.390 . S
C319 C316 1.386 . S
C320 C315 1.490 . S
C320 C322 1.395 . S
C320 C323 1.403 . S
H321 C327 0.930 . S
C322 H308 0.930 . S
C322 C320 1.395 . S
C322 C325 1.403 . S
C323 C320 1.403 . S
C323 C324 1.524 . S
C323 C327 1.400 . S
C324 H309 0.960 . S
C324 H310 0.960 . S
C324 H311 0.960 . S
C324 C323 1.524 . S
C325 C322 1.403 . S
C325 C326 1.392 . S
C325 C329 1.495 . S
C326 C325 1.392 . S
C326 C327 1.385 . S
C326 C328 1.478 . S
C327 H321 0.930 . S
C327 C323 1.400 . S
C327 C326 1.385 . S
C328 C326 1.478 . S
C328 C330 1.381 . S
C328 C334 1.383 . S
C329 C325 1.495 . S
C329 H335 0.959 . S
C329 H336 0.961 . S
C329 H337 0.960 . S
C330 C328 1.381 . S
C330 C331 1.394 . S
C330 H338 0.930 . S
C331 C330 1.394 . S
C331 C332 1.383 . S
C331 H339 0.929 . S
C332 C331 1.383 . S
C332 C333 1.377 . S
C333 H317 0.930 . S
C333 C332 1.377 . S
C333 C334 1.379 . S
C334 H318 0.931 . S
C334 C328 1.383 . S
C334 C333 1.379 . S
H335 C329 0.959 . S
H336 C329 0.961 . S
H337 C329 0.960 . S
H338 C330 0.930 . S
H339 C331 0.929 . S
H340 C348 0.929 . S
H341 C350 0.930 . S
H342 C352 0.930 . S
H343 C355 0.929 . S
H344 C358 0.930 . S
H345 C360 0.960 . S
H346 C360 0.960 . S
H347 C360 0.960 . S
C348 H340 0.929 . S
C348 C349 1.377 1_655 S
C348 C350 1.384 . S
C349 C348 1.377 1_455 S
C349 C355 1.390 . S
C350 H341 0.930 . S
C350 C348 1.384 . S
C350 C351 1.372 1_655 S
C351 C350 1.372 1_455 S
C351 C352 1.400 . S
C351 C356 1.490 . S
C352 H342 0.930 . S
C352 C351 1.400 . S
C352 C355 1.386 . S
H353 C369 0.930 . S
H354 C370 0.931 . S
C355 H343 0.929 . S
C355 C349 1.390 . S
C355 C352 1.386 . S
C356 C351 1.490 . S
C356 C358 1.395 1_455 S
C356 C359 1.403 . S
H357 C363 0.930 . S
C358 H344 0.930 . S
C358 C356 1.395 1_655 S
C358 C361 1.403 . S
C359 C356 1.403 . S
C359 C360 1.524 . S
C359 C363 1.400 . S
C360 H345 0.960 . S
C360 H346 0.960 . S
C360 H347 0.960 . S
C360 C359 1.524 . S
C361 C358 1.403 . S
C361 C362 1.392 1_655 S
C361 C365 1.495 . S
C362 C361 1.392 1_455 S
C362 C363 1.385 . S
C362 C364 1.478 . S
C363 H357 0.930 . S
C363 C359 1.400 . S
C363 C362 1.385 . S
C364 C362 1.478 . S
C364 C366 1.381 1_455 S
C364 C370 1.383 . S
C365 C361 1.495 . S
C365 H371 0.959 . S
C365 H372 0.961 . S
C365 H373 0.960 . S
C366 C364 1.381 1_655 S
C366 C367 1.394 . S
C366 H374 0.930 . S
C367 C366 1.394 . S
C367 C368 1.383 1_655 S
C367 H375 0.929 . S
C368 C367 1.383 1_455 S
C368 C369 1.377 . S
C369 H353 0.930 . S
C369 C368 1.377 . S
C369 C370 1.379 . S
C370 H354 0.931 . S
C370 C364 1.383 . S
C370 C369 1.379 . S
H371 C365 0.959 . S
H372 C365 0.961 . S
H373 C365 0.960 . S
H374 C366 0.930 . S
H375 C367 0.929 . S
H376 C384 0.929 . S
H377 C386 0.930 . S
H378 C388 0.930 . S
H379 C391 0.929 . S
H380 C394 0.930 . S
H381 C396 0.960 1_565 S
H382 C396 0.981 . S
H383 C396 0.938 1_565 S
C384 H376 0.929 . S
C384 C385 1.392 . S
C384 C386 1.384 . S
C385 C384 1.392 . S
C385 C391 1.377 1_545 S
C386 H377 0.930 . S
C386 C384 1.384 . S
C386 C387 1.372 . S
C387 C386 1.372 . S
C387 C388 1.400 1_545 S
C387 C392 1.490 . S
C388 H378 0.930 . S
C388 C387 1.400 1_565 S
C388 C391 1.386 . S
H389 C405 0.930 . S
H390 C406 0.931 . S
C391 H379 0.929 . S
C391 C385 1.377 1_565 S
C391 C388 1.386 . S
C392 C387 1.490 . S
C392 C394 1.395 . S
C392 C395 1.403 . S
H393 C399 0.930 . S
C394 H380 0.930 . S
C394 C392 1.395 . S
C394 C397 1.403 . S
C395 C392 1.403 . S
C395 C396 1.524 1_554 S
C395 C399 1.401 1_544 S
C396 H381 0.960 1_545 S
C396 H382 0.981 . S
C396 H383 0.938 1_545 S
C396 C395 1.524 1_556 S
C397 C394 1.403 . S
C397 C398 1.394 1_554 S
C397 C401 1.495 . S
C398 C397 1.394 1_556 S
C398 C399 1.381 1_545 S
C398 C400 1.481 . S
C399 H393 0.930 . S
C399 C395 1.401 1_566 S
C399 C398 1.381 1_565 S
C400 C398 1.481 . S
C400 C402 1.380 . S
C400 C406 1.384 1_545 S
C401 C397 1.495 . S
C401 H407 0.959 . S
C401 H408 0.961 1_545 S
C401 H409 0.960 . S
C402 C400 1.380 . S
C402 C403 1.394 . S
C402 H410 0.930 . S
C403 C402 1.394 . S
C403 C404 1.371 1_545 S
C403 H411 0.929 . S
C404 C403 1.371 1_565 S
C404 C405 1.391 . S
C405 H389 0.930 . S
C405 C404 1.391 . S
C405 C406 1.379 . S
C406 H390 0.931 . S
C406 C400 1.384 1_565 S
C406 C405 1.379 . S
H407 C401 0.959 . S
H408 C401 0.961 1_565 S
H409 C401 0.960 . S
H410 C402 0.930 . S
H411 C403 0.929 . S
H412 C420 0.929 . S
H413 C422 0.930 . S
H414 C424 0.930 . S
H415 C427 0.929 1_556 S
H416 C430 0.936 . S
H417 C432 0.960 . S
H418 C432 0.960 . S
H419 C432 0.960 . S
C420 H412 0.929 . S
C420 C421 1.377 . S
C420 C422 1.384 . S
C421 C420 1.377 . S
C421 C427 1.390 . S
C422 H413 0.930 . S
C422 C420 1.384 . S
C422 C423 1.372 . S
C423 C422 1.372 . S
C423 C424 1.400 1_554 S
C423 C428 1.490 1_554 S
C424 H414 0.930 . S
C424 C423 1.400 1_556 S
C424 C427 1.386 1_556 S
H425 C441 0.930 . S
H426 C442 0.931 . S
C427 H415 0.929 1_554 S
C427 C421 1.390 . S
C427 C424 1.386 1_554 S
C428 C423 1.490 1_556 S
C428 C430 1.392 1_556 S
C428 C431 1.403 . S
H429 C435 0.930 . S
C430 H416 0.936 . S
C430 C428 1.392 1_554 S
C430 C433 1.401 1_554 S
C431 C428 1.403 . S
C431 C432 1.524 . S
C431 C435 1.400 . S
C432 H417 0.960 . S
C432 H418 0.960 . S
C432 H419 0.960 . S
C432 C431 1.524 . S
C433 C430 1.401 1_556 S
C433 C434 1.392 . S
C433 C437 1.495 1_556 S
C434 C433 1.392 . S
C434 C435 1.385 . S
C434 C436 1.478 . S
C435 H429 0.930 . S
C435 C431 1.400 . S
C435 C434 1.385 . S
C436 C434 1.478 . S
C436 C438 1.381 . S
C436 C442 1.383 . S
C437 C433 1.495 1_554 S
C437 H443 0.959 . S
C437 H444 0.961 1_554 S
C437 H445 0.960 . S
C438 C436 1.381 . S
C438 C439 1.394 . S
C438 H446 0.930 . S
C439 C438 1.394 . S
C439 C440 1.383 . S
C439 H447 0.929 . S
C440 C439 1.383 . S
C440 C441 1.377 . S
C441 H425 0.930 . S
C441 C440 1.377 . S
C441 C442 1.379 . S
C442 H426 0.931 . S
C442 C436 1.383 . S
C442 C441 1.379 . S
H443 C437 0.959 . S
H444 C437 0.961 1_556 S
H445 C437 0.960 . S
H446 C438 0.930 . S
H447 C439 0.929 . S
H448 C456 0.929 . S
H449 C458 0.930 . S
H450 C460 0.930 . S
H451 C463 0.929 . S
H452 C466 0.930 . S
H453 C468 0.960 . S
H454 C468 0.960 . S
H455 C468 0.960 . S
C456 H448 0.929 . S
C456 C457 1.377 . S
C456 C458 1.384 . S
C457 C456 1.377 . S
C457 C463 1.390 . S
C458 H449 0.930 . S
C458 C456 1.384 . S
C458 C459 1.372 . S
C459 C458 1.372 . S
C459 C460 1.400 . S
C459 C464 1.490 . S
C460 H450 0.930 . S
C460 C459 1.400 . S
C460 C463 1.386 . S
H461 C477 0.930 . S
H462 C478 0.931 . S
C463 H451 0.929 . S
C463 C457 1.390 . S
C463 C460 1.386 . S
C464 C459 1.490 . S
C464 C466 1.395 . S
C464 C467 1.403 . S
H465 C471 0.930 . S
C466 H452 0.930 . S
C466 C464 1.395 . S
C466 C469 1.403 . S
C467 C464 1.403 . S
C467 C468 1.524 . S
C467 C471 1.400 . S
C468 H453 0.960 . S
C468 H454 0.960 . S
C468 H455 0.960 . S
C468 C467 1.524 . S
C469 C466 1.403 . S
C469 C470 1.392 . S
C469 C473 1.495 . S
C470 C469 1.392 . S
C470 C471 1.385 . S
C470 C472 1.478 . S
C471 H465 0.930 . S
C471 C467 1.400 . S
C471 C470 1.385 . S
C472 C470 1.478 . S
C472 C474 1.381 . S
C472 C478 1.383 . S
C473 C469 1.495 . S
C473 H479 0.959 . S
C473 H480 0.961 . S
C473 H481 0.960 . S
C474 C472 1.381 . S
C474 C475 1.394 . S
C474 H482 0.930 . S
C475 C474 1.394 . S
C475 C476 1.383 1_554 S
C475 H483 0.929 . S
C476 C475 1.383 1_556 S
C476 C477 1.377 . S
C477 H461 0.930 . S
C477 C476 1.377 . S
C477 C478 1.379 1_556 S
C478 H462 0.931 . S
C478 C472 1.383 . S
C478 C477 1.379 1_554 S
H479 C473 0.959 . S
H480 C473 0.961 . S
H481 C473 0.960 . S
H482 C474 0.930 . S
H483 C475 0.929 . S
H484 C492 0.929 . S
H485 C494 0.930 . S
H486 C496 0.930 . S
H487 C499 0.929 . S
H488 C502 0.930 . S
H489 C504 0.960 . S
H490 C504 0.960 . S
H491 C504 0.960 1_655 S
C492 H484 0.929 . S
C492 C493 1.377 1_455 S
C492 C494 1.384 . S
C493 C492 1.377 1_655 S
C493 C499 1.390 . S
C494 H485 0.930 . S
C494 C492 1.384 . S
C494 C495 1.372 1_455 S
C495 C494 1.372 1_655 S
C495 C496 1.400 . S
C495 C500 1.490 . S
C496 H486 0.930 . S
C496 C495 1.400 . S
C496 C499 1.386 . S
H497 C513 0.930 . S
H498 C514 0.931 . S
C499 H487 0.929 . S
C499 C493 1.390 . S
C499 C496 1.386 . S
C500 C495 1.490 . S
C500 C502 1.395 . S
C500 C503 1.404 . S
H501 C507 0.930 1_456 S
C502 H488 0.930 . S
C502 C500 1.395 . S
C502 C505 1.403 . S
C503 C500 1.404 . S
C503 C504 1.518 1_655 S
C503 C507 1.400 . S
C504 H489 0.960 . S
C504 H490 0.960 . S
C504 H491 0.960 1_455 S
C504 C503 1.518 1_455 S
C505 C502 1.403 . S
C505 C506 1.392 . S
C505 C509 1.495 . S
C506 C505 1.392 . S
C506 C507 1.390 . S
C506 C508 1.478 1_554 S
C507 H501 0.930 1_654 S
C507 C503 1.400 . S
C507 C506 1.390 . S
C508 C506 1.478 1_556 S
C508 C510 1.381 1_655 S
C508 C514 1.383 . S
C509 C505 1.495 . S
C509 H515 0.959 . S
C509 H516 0.961 . S
C509 H517 0.960 1_655 S
C510 C508 1.381 1_455 S
C510 C511 1.394 . S
C510 H518 0.930 . S
C511 C510 1.394 . S
C511 C512 1.341 1_455 S
C511 H519 0.929 . S
C512 C511 1.341 1_655 S
C512 C513 1.412 . S
C513 H497 0.930 . S
C513 C512 1.412 . S
C513 C514 1.379 . S
C514 H498 0.931 . S
C514 C508 1.383 . S
C514 C513 1.379 . S
H515 C509 0.959 . S
H516 C509 0.961 . S
H517 C509 0.960 1_455 S
H518 C510 0.930 . S
H519 C511 0.929 . S
H520 C528 0.929 . S
H521 C530 0.930 . S
H522 C532 0.930 1_655 S
H523 C535 0.929 . S
H524 C538 0.930 . S
H525 C540 0.960 . S
H526 C540 0.960 . S
H527 C540 0.960 . S
C528 H520 0.929 . S
C528 C529 1.377 . S
C528 C530 1.384 . S
C529 C528 1.377 . S
C529 C535 1.390 . S
C530 H521 0.930 . S
C530 C528 1.384 . S
C530 C531 1.372 . S
C531 C530 1.372 . S
C531 C532 1.400 . S
C531 C536 1.490 . S
C532 H522 0.930 1_455 S
C532 C531 1.400 . S
C532 C535 1.386 . S
H533 C549 0.930 . S
H534 C550 0.931 . S
C535 H523 0.929 . S
C535 C529 1.390 . S
C535 C532 1.386 . S
C536 C531 1.490 . S
C536 C538 1.395 1_455 S
C536 C539 1.403 . S
H537 C543 0.930 . S
C538 H524 0.930 . S
C538 C536 1.395 1_655 S
C538 C541 1.403 . S
C539 C536 1.403 . S
C539 C540 1.524 . S
C539 C543 1.400 . S
C540 H525 0.960 . S
C540 H526 0.960 . S
C540 H527 0.960 . S
C540 C539 1.524 . S
C541 C538 1.403 . S
C541 C542 1.392 . S
C541 C545 1.495 . S
C542 C541 1.392 . S
C542 C543 1.385 1_655 S
C542 C544 1.478 . S
C543 H537 0.930 . S
C543 C539 1.400 . S
C543 C542 1.385 1_455 S
C544 C542 1.478 . S
C544 C546 1.381 . S
C544 C550 1.383 . S
C545 C541 1.495 . S
C545 H551 0.959 . S
C545 H552 0.961 . S
C545 H553 0.960 . S
C546 C544 1.381 . S
C546 C547 1.394 . S
C546 H554 0.930 . S
C547 C546 1.394 . S
C547 C548 1.383 . S
C547 H555 0.929 . S
C548 C547 1.383 . S
C548 C549 1.377 . S
C549 H533 0.930 . S
C549 C548 1.377 . S
C549 C550 1.379 . S
C550 H534 0.931 . S
C550 C544 1.383 . S
C550 C549 1.379 . S
H551 C545 0.959 . S
H552 C545 0.961 . S
H553 C545 0.960 . S
H554 C546 0.930 . S
H555 C547 0.929 . S
H556 C564 0.929 . S
H557 C566 0.930 . S
H558 C568 0.930 . S
H559 C571 0.929 . S
H560 C574 0.930 . S
H561 C576 0.960 . S
H562 C576 0.960 . S
H563 C576 0.960 . S
C564 H556 0.929 . S
C564 C565 1.358 1_565 S
C564 C566 1.384 . S
C565 C564 1.358 1_545 S
C565 C571 1.407 . S
C566 H557 0.930 . S
C566 C564 1.384 . S
C566 C567 1.372 . S
C567 C566 1.372 . S
C567 C568 1.400 1_565 S
C567 C572 1.490 . S
C568 H558 0.930 . S
C568 C567 1.400 1_545 S
C568 C571 1.386 . S
H569 C585 0.930 1_545 S
H570 C586 0.931 1_545 S
C571 H559 0.929 . S
C571 C565 1.407 . S
C571 C568 1.386 . S
C572 C567 1.490 . S
C572 C574 1.395 . S
C572 C575 1.403 . S
H573 C579 0.930 . S
C574 H560 0.930 . S
C574 C572 1.395 . S
C574 C577 1.403 . S
C575 C572 1.403 . S
C575 C576 1.524 . S
C575 C579 1.400 . S
C576 H561 0.960 . S
C576 H562 0.960 . S
C576 H563 0.960 . S
C576 C575 1.524 . S
C577 C574 1.403 . S
C577 C578 1.392 . S
C577 C581 1.495 . S
C578 C577 1.392 . S
C578 C579 1.385 . S
C578 C580 1.478 . S
C579 H573 0.930 . S
C579 C575 1.400 . S
C579 C578 1.385 . S
C580 C578 1.478 . S
C580 C582 1.381 . S
C580 C586 1.383 . S
C581 C577 1.495 . S
C581 H587 0.959 . S
C581 H588 0.961 1_565 S
C581 H589 0.960 . S
C582 C580 1.381 . S
C582 C583 1.394 . S
C582 H590 0.930 . S
C583 C582 1.394 . S
C583 C584 1.383 . S
C583 H591 0.929 . S
C584 C583 1.383 . S
C584 C585 1.377 . S
C585 H569 0.930 1_565 S
C585 C584 1.377 . S
C585 C586 1.379 . S
C586 H570 0.931 1_565 S
C586 C580 1.383 . S
C586 C585 1.379 . S
H587 C581 0.959 . S
H588 C581 0.961 1_545 S
H589 C581 0.960 . S
H590 C582 0.930 . S
H591 C583 0.929 . S
H592 C600 0.929 . S
H593 C602 0.930 . S
H594 C604 0.930 . S
H595 C607 0.929 . S
H596 C610 0.930 . S
H597 C612 0.960 . S
H598 C612 0.960 . S
H599 C612 0.960 . S
C600 H592 0.929 . S
C600 C601 1.377 . S
C600 C602 1.384 . S
C601 C600 1.377 . S
C601 C607 1.390 . S
C602 H593 0.930 . S
C602 C600 1.384 . S
C602 C603 1.372 . S
C603 C602 1.372 . S
C603 C604 1.400 . S
C603 C608 1.490 . S
C604 H594 0.930 . S
C604 C603 1.400 . S
C604 C607 1.386 . S
H605 C621 0.930 . S
H606 C622 0.931 . S
C607 H595 0.929 . S
C607 C601 1.390 . S
C607 C604 1.386 . S
C608 C603 1.490 . S
C608 C610 1.395 . S
C608 C611 1.403 . S
H609 C615 0.930 . S
C610 H596 0.930 . S
C610 C608 1.395 . S
C610 C613 1.403 . S
C611 C608 1.403 . S
C611 C612 1.524 . S
C611 C615 1.400 . S
C612 H597 0.960 . S
C612 H598 0.960 . S
C612 H599 0.960 . S
C612 C611 1.524 . S
C613 C610 1.403 . S
C613 C614 1.392 . S
C613 C617 1.495 . S
C614 C613 1.392 . S
C614 C615 1.385 . S
C614 C616 1.478 . S
C615 H609 0.930 . S
C615 C611 1.400 . S
C615 C614 1.385 . S
C616 C614 1.478 . S
C616 C618 1.381 . S
C616 C622 1.383 . S
C617 C613 1.495 . S
C617 H623 0.959 . S
C617 H624 0.961 . S
C617 H625 0.960 . S
C618 C616 1.381 . S
C618 C619 1.394 . S
C618 H626 0.930 . S
C619 C618 1.394 . S
C619 C620 1.383 . S
C619 H627 0.929 . S
C620 C619 1.383 . S
C620 C621 1.377 . S
C621 H605 0.930 . S
C621 C620 1.377 . S
C621 C622 1.379 . S
C622 H606 0.931 . S
C622 C616 1.383 . S
C622 C621 1.379 . S
H623 C617 0.959 . S
H624 C617 0.961 . S
H625 C617 0.960 . S
H626 C618 0.930 . S
H627 C619 0.929 . S
H628 C636 0.929 . S
H629 C638 0.930 . S
H630 C640 0.930 . S
H631 C643 0.929 . S
H632 C646 0.930 . S
H633 C648 0.960 . S
H634 C648 0.960 . S
H635 C648 0.960 . S
C636 H628 0.929 . S
C636 C637 1.377 . S
C636 C638 1.384 . S
C637 C636 1.377 . S
C637 C643 1.390 . S
C638 H629 0.930 . S
C638 C636 1.384 . S
C638 C639 1.372 . S
C639 C638 1.372 . S
C639 C640 1.400 . S
C639 C644 1.490 . S
C640 H630 0.930 . S
C640 C639 1.400 . S
C640 C643 1.386 . S
H641 C657 0.930 . S
H642 C658 0.931 . S
C643 H631 0.929 . S
C643 C637 1.390 . S
C643 C640 1.386 . S
C644 C639 1.490 . S
C644 C646 1.395 . S
C644 C647 1.403 . S
H645 C651 0.930 . S
C646 H632 0.930 . S
C646 C644 1.395 . S
C646 C649 1.403 . S
C647 C644 1.403 . S
C647 C648 1.524 . S
C647 C651 1.400 . S
C648 H633 0.960 . S
C648 H634 0.960 . S
C648 H635 0.960 . S
C648 C647 1.524 . S
C649 C646 1.403 . S
C649 C650 1.392 . S
C649 C653 1.495 . S
C650 C649 1.392 . S
C650 C651 1.385 . S
C650 C652 1.478 . S
C651 H645 0.930 . S
C651 C647 1.400 . S
C651 C650 1.385 . S
C652 C650 1.478 . S
C652 C654 1.381 . S
C652 C658 1.383 . S
C653 C649 1.495 . S
C653 H659 0.959 . S
C653 H660 0.961 . S
C653 H661 0.960 . S
C654 C652 1.381 . S
C654 C655 1.394 . S
C654 H662 0.930 . S
C655 C654 1.394 . S
C655 C656 1.383 . S
C655 H663 0.929 . S
C656 C655 1.383 . S
C656 C657 1.377 . S
C657 H641 0.930 . S
C657 C656 1.377 . S
C657 C658 1.379 . S
C658 H642 0.931 . S
C658 C652 1.383 . S
C658 C657 1.379 . S
H659 C653 0.959 . S
H660 C653 0.961 . S
H661 C653 0.960 . S
H662 C654 0.930 . S
H663 C655 0.929 . S
H664 C672 0.929 . S
H665 C674 0.930 . S
H666 C676 0.925 1_455 S
H667 C679 0.929 . S
H668 C682 0.930 . S
H669 C684 0.960 . S
H670 C684 0.960 . S
H671 C684 0.960 . S
C672 H664 0.929 . S
C672 C673 1.377 . S
C672 C674 1.384 . S
C673 C672 1.377 . S
C673 C679 1.390 . S
C674 H665 0.930 . S
C674 C672 1.384 . S
C674 C675 1.380 . S
C675 C674 1.380 . S
C675 C676 1.397 . S
C675 C680 1.486 1_655 S
C676 H666 0.925 1_655 S
C676 C675 1.397 . S
C676 C679 1.386 . S
H677 C693 0.930 . S
H678 C694 0.931 . S
C679 H667 0.929 . S
C679 C673 1.390 . S
C679 C676 1.386 . S
C680 C675 1.486 1_455 S
C680 C682 1.395 1_455 S
C680 C683 1.403 . S
H681 C687 0.930 . S
C682 H668 0.930 . S
C682 C680 1.395 1_655 S
C682 C685 1.403 . S
C683 C680 1.403 . S
C683 C684 1.524 . S
C683 C687 1.400 . S
C684 H669 0.960 . S
C684 H670 0.960 . S
C684 H671 0.960 . S
C684 C683 1.524 . S
C685 C682 1.403 . S
C685 C686 1.392 1_655 S
C685 C689 1.495 . S
C686 C685 1.392 1_455 S
C686 C687 1.385 . S
C686 C688 1.478 . S
C687 H681 0.930 . S
C687 C683 1.400 . S
C687 C686 1.385 . S
C688 C686 1.478 . S
C688 C690 1.381 1_554 S
C688 C694 1.383 . S
C689 C685 1.495 . S
C689 H695 0.959 . S
C689 H696 0.961 . S
C689 H697 0.960 1_554 S
C690 C688 1.381 1_556 S
C690 C691 1.394 . S
C690 H698 0.930 . S
C691 C690 1.394 . S
C691 C692 1.383 . S
C691 H699 0.929 . S
C692 C691 1.383 . S
C692 C693 1.377 1_556 S
C693 H677 0.930 . S
C693 C692 1.377 1_554 S
C693 C694 1.379 . S
C694 H678 0.931 . S
C694 C688 1.383 . S
C694 C693 1.379 . S
H695 C689 0.959 . S
H696 C689 0.961 . S
H697 C689 0.960 1_556 S
H698 C690 0.930 . S
H699 C691 0.929 . S
H700 C708 0.929 . S
H701 C710 0.930 . S
H702 C712 0.930 . S
H703 C715 0.929 . S
H704 C718 0.930 . S
H705 C720 0.960 . S
H706 C720 0.960 . S
H707 C720 0.960 1_565 S
C708 H700 0.929 . S
C708 C709 1.363 1_545 S
C708 C710 1.384 . S
C709 C708 1.363 1_565 S
C709 C715 1.403 . S
C710 H701 0.930 . S
C710 C708 1.384 . S
C710 C711 1.372 . S
C711 C710 1.372 . S
C711 C712 1.400 1_545 S
C711 C716 1.490 . S
C712 H702 0.930 . S
C712 C711 1.400 1_565 S
C712 C715 1.386 . S
H713 C729 0.930 1_565 S
H714 C730 0.931 1_564 S
C715 H703 0.929 . S
C715 C709 1.403 . S
C715 C712 1.386 . S
C716 C711 1.490 . S
C716 C718 1.395 . S
C716 C719 1.403 . S
H717 C723 0.930 . S
C718 H704 0.930 . S
C718 C716 1.395 . S
C718 C721 1.403 . S
C719 C716 1.403 . S
C719 C720 1.524 . S
C719 C723 1.400 . S
C720 H705 0.960 . S
C720 H706 0.960 . S
C720 H707 0.960 1_545 S
C720 C719 1.524 . S
C721 C718 1.403 . S
C721 C722 1.392 . S
C721 C725 1.495 1_554 S
C722 C721 1.392 . S
C722 C723 1.385 . S
C722 C724 1.472 1_554 S
C723 H717 0.930 . S
C723 C719 1.400 . S
C723 C722 1.385 . S
C724 C722 1.472 1_556 S
C724 C726 1.385 . S
C724 C730 1.384 . S
C725 C721 1.495 1_556 S
C725 H731 0.959 . S
C725 H732 0.961 . S
C725 H733 0.960 . S
C726 C724 1.385 . S
C726 C727 1.394 . S
C726 H734 0.930 . S
C727 C726 1.394 . S
C727 C728 1.383 . S
C727 H735 0.929 . S
C728 C727 1.383 . S
C728 C729 1.377 . S
C729 H713 0.930 1_545 S
C729 C728 1.377 . S
C729 C730 1.379 . S
C730 H714 0.931 1_546 S
C730 C724 1.384 . S
C730 C729 1.379 . S
H731 C725 0.959 . S
H732 C725 0.961 . S
H733 C725 0.960 . S
H734 C726 0.930 . S
H735 C727 0.929 . S
H736 C744 0.929 . S
H737 C746 0.930 . S
H738 C748 0.930 . S
H739 C751 0.929 1_556 S
H740 C754 0.930 . S
H741 C756 0.961 . S
H742 C756 0.952 1_554 S
H743 C756 0.963 . S
C744 H736 0.929 . S
C744 C745 1.377 . S
C744 C746 1.384 . S
C745 C744 1.377 . S
C745 C751 1.390 . S
C746 H737 0.930 . S
C746 C744 1.384 . S
C746 C747 1.372 . S
C747 C746 1.372 . S
C747 C748 1.400 1_554 S
C747 C752 1.490 1_554 S
C748 H738 0.930 . S
C748 C747 1.400 1_556 S
C748 C751 1.386 1_556 S
H749 C765 0.930 . S
H750 C766 0.931 . S
C751 H739 0.929 1_554 S
C751 C745 1.390 . S
C751 C748 1.386 1_554 S
C752 C747 1.490 1_556 S
C752 C754 1.395 . S
C752 C755 1.403 . S
H753 C759 0.930 . S
C754 H740 0.930 . S
C754 C752 1.395 . S
C754 C757 1.403 . S
C755 C752 1.403 . S
C755 C756 1.528 . S
C755 C759 1.400 . S
C756 H741 0.961 . S
C756 H742 0.952 1_556 S
C756 H743 0.963 . S
C756 C755 1.528 . S
C757 C754 1.403 . S
C757 C758 1.392 . S
C757 C761 1.495 . S
C758 C757 1.392 . S
C758 C759 1.385 . S
C758 C760 1.478 . S
C759 H753 0.930 . S
C759 C755 1.400 . S
C759 C758 1.385 . S
C760 C758 1.478 . S
C760 C762 1.381 . S
C760 C766 1.383 . S
C761 C757 1.495 . S
C761 H767 0.959 . S
C761 H768 0.961 . S
C761 H769 0.960 . S
C762 C760 1.381 . S
C762 C763 1.394 . S
C762 H770 0.930 . S
C763 C762 1.394 . S
C763 C764 1.383 . S
C763 H771 0.929 . S
C764 C763 1.383 . S
C764 C765 1.377 . S
C765 H749 0.930 . S
C765 C764 1.377 . S
C765 C766 1.379 . S
C766 H750 0.931 . S
C766 C760 1.383 . S
C766 C765 1.379 . S
H767 C761 0.959 . S
H768 C761 0.961 . S
H769 C761 0.960 . S
H770 C762 0.930 . S
H771 C763 0.929 . S
H772 C780 0.929 . S
H773 C782 0.930 . S
H774 C784 0.930 . S
H775 C787 0.929 . S
H776 C790 0.930 . S
H777 C792 0.960 . S
H778 C792 0.960 . S
H779 C792 0.960 . S
C780 H772 0.929 . S
C780 C781 1.377 . S
C780 C782 1.384 . S
C781 C780 1.377 . S
C781 C787 1.390 . S
C782 H773 0.930 . S
C782 C780 1.384 . S
C782 C783 1.372 . S
C783 C782 1.372 . S
C783 C784 1.400 . S
C783 C788 1.490 . S
C784 H774 0.930 . S
C784 C783 1.400 . S
C784 C787 1.386 . S
H785 C801 0.930 . S
H786 C802 0.931 . S
C787 H775 0.929 . S
C787 C781 1.390 . S
C787 C784 1.386 . S
C788 C783 1.490 . S
C788 C790 1.395 . S
C788 C791 1.403 . S
H789 C795 0.930 . S
C790 H776 0.930 . S
C790 C788 1.395 . S
C790 C793 1.403 . S
C791 C788 1.403 . S
C791 C792 1.524 . S
C791 C795 1.400 . S
C792 H777 0.960 . S
C792 H778 0.960 . S
C792 H779 0.960 . S
C792 C791 1.524 . S
C793 C790 1.403 . S
C793 C794 1.392 . S
C793 C797 1.495 . S
C794 C793 1.392 . S
C794 C795 1.385 . S
C794 C796 1.478 . S
C795 H789 0.930 . S
C795 C791 1.400 . S
C795 C794 1.385 . S
C796 C794 1.478 . S
C796 C798 1.381 . S
C796 C802 1.383 . S
C797 C793 1.495 . S
C797 H803 0.959 . S
C797 H804 0.961 . S
C797 H805 0.960 . S
C798 C796 1.381 . S
C798 C799 1.394 . S
C798 H806 0.930 . S
C799 C798 1.394 . S
C799 C800 1.383 . S
C799 H807 0.929 1_554 S
C800 C799 1.383 . S
C800 C801 1.377 . S
C801 H785 0.930 . S
C801 C800 1.377 . S
C801 C802 1.379 . S
C802 H786 0.931 . S
C802 C796 1.383 . S
C802 C801 1.379 . S
H803 C797 0.959 . S
H804 C797 0.961 . S
H805 C797 0.960 . S
H806 C798 0.930 . S
H807 C799 0.929 1_556 S
H808 C816 0.929 . S
H809 C818 0.930 . S
H810 C820 0.952 . S
H811 C823 0.955 . S
H812 C826 0.930 . S
H813 C828 0.960 . S
H814 C828 0.960 . S
H815 C828 0.960 . S
C816 H808 0.929 . S
C816 C817 1.363 1_556 S
C816 C818 1.384 . S
C817 C816 1.363 1_554 S
C817 C823 1.366 1_455 S
C818 H809 0.930 . S
C818 C816 1.384 . S
C818 C819 1.372 . S
C819 C818 1.372 . S
C819 C820 1.383 1_456 S
C819 C824 1.490 . S
C820 H810 0.952 . S
C820 C819 1.383 1_654 S
C820 C823 1.388 . S
H821 C837 0.930 1_655 S
H822 C838 0.931 1_655 S
C823 H811 0.955 . S
C823 C817 1.366 1_655 S
C823 C820 1.388 . S
C824 C819 1.490 . S
C824 C826 1.395 . S
C824 C827 1.403 1_455 S
H825 C831 0.930 . S
C826 H812 0.930 . S
C826 C824 1.395 . S
C826 C829 1.403 . S
C827 C824 1.403 1_655 S
C827 C828 1.524 . S
C827 C831 1.400 . S
C828 H813 0.960 . S
C828 H814 0.960 . S
C828 H815 0.960 . S
C828 C827 1.524 . S
C829 C826 1.403 . S
C829 C830 1.392 . S
C829 C833 1.495 . S
C830 C829 1.392 . S
C830 C831 1.385 1_455 S
C830 C832 1.478 . S
C831 H825 0.930 . S
C831 C827 1.400 . S
C831 C830 1.385 1_655 S
C832 C830 1.478 . S
C832 C834 1.381 . S
C832 C838 1.383 . S
C833 C829 1.495 . S
C833 H839 0.959 . S
C833 H840 0.961 . S
C833 H841 0.960 . S
C834 C832 1.381 . S
C834 C835 1.394 . S
C834 H842 0.930 . S
C835 C834 1.394 . S
C835 C836 1.383 . S
C835 H843 0.929 . S
C836 C835 1.383 . S
C836 C837 1.377 . S
C837 H821 0.930 1_455 S
C837 C836 1.377 . S
C837 C838 1.379 . S
C838 H822 0.931 1_455 S
C838 C832 1.383 . S
C838 C837 1.379 . S
H839 C833 0.959 . S
H840 C833 0.961 . S
H841 C833 0.960 . S
H842 C834 0.930 . S
H843 C835 0.929 . S
H844 C852 0.929 . S
H845 C854 0.930 . S
H846 C856 0.930 . S
H847 C859 0.929 . S
H848 C862 0.930 . S
H849 C864 0.960 . S
H850 C864 0.960 . S
H851 C864 0.960 . S
C852 H844 0.929 . S
C852 C853 1.377 . S
C852 C854 1.384 . S
C853 C852 1.377 . S
C853 C859 1.390 1_545 S
C854 H845 0.930 . S
C854 C852 1.384 . S
C854 C855 1.372 . S
C855 C854 1.372 . S
C855 C856 1.400 1_545 S
C855 C860 1.490 1_554 S
C856 H846 0.930 . S
C856 C855 1.400 1_565 S
C856 C859 1.386 . S
H857 C873 0.930 . S
H858 C874 0.931 . S
C859 H847 0.929 . S
C859 C853 1.390 1_565 S
C859 C856 1.386 . S
C860 C855 1.490 1_556 S
C860 C862 1.395 1_556 S
C860 C863 1.403 1_545 S
H861 C867 0.930 . S
C862 H848 0.930 . S
C862 C860 1.395 1_554 S
C862 C865 1.403 1_554 S
C863 C860 1.403 1_565 S
C863 C864 1.524 . S
C863 C867 1.400 . S
C864 H849 0.960 . S
C864 H850 0.960 . S
C864 H851 0.960 . S
C864 C863 1.524 . S
C865 C862 1.403 1_556 S
C865 C866 1.392 . S
C865 C869 1.495 1_556 S
C866 C865 1.392 . S
C866 C867 1.385 1_545 S
C866 C868 1.478 . S
C867 H861 0.930 . S
C867 C863 1.400 . S
C867 C866 1.385 1_565 S
C868 C866 1.478 . S
C868 C870 1.381 . S
C868 C874 1.383 1_545 S
C869 C865 1.495 1_554 S
C869 H875 0.959 . S
C869 H876 0.961 . S
C869 H877 0.959 1_554 S
C870 C868 1.381 . S
C870 C871 1.394 . S
C870 H878 0.930 . S
C871 C870 1.394 . S
C871 C872 1.383 . S
C871 H879 0.929 . S
C872 C871 1.383 . S
C872 C873 1.377 1_545 S
C873 H857 0.930 . S
C873 C872 1.377 1_565 S
C873 C874 1.379 . S
C874 H858 0.931 . S
C874 C868 1.383 1_565 S
C874 C873 1.379 . S
H875 C869 0.959 . S
H876 C869 0.961 . S
H877 C869 0.959 1_556 S
H878 C870 0.930 . S
H879 C871 0.929 . S
H880 C888 0.929 . S
H881 C890 0.930 . S
H882 C892 0.930 . S
H883 C895 0.929 . S
H884 C898 0.930 . S
H885 C900 0.959 1_556 S
H886 C900 0.960 . S
H887 C900 0.961 . S
C888 H880 0.929 . S
C888 C889 1.377 . S
C888 C890 1.384 . S
C889 C888 1.377 . S
C889 C895 1.390 . S
C890 H881 0.930 . S
C890 C888 1.384 . S
C890 C891 1.372 . S
C891 C890 1.372 . S
C891 C892 1.400 . S
C891 C896 1.490 . S
C892 H882 0.930 . S
C892 C891 1.400 . S
C892 C895 1.386 . S
H893 C909 0.930 . S
H894 C910 0.931 . S
C895 H883 0.929 . S
C895 C889 1.390 . S
C895 C892 1.386 . S
C896 C891 1.490 . S
C896 C898 1.395 . S
C896 C899 1.403 . S
H897 C903 0.930 . S
C898 H884 0.930 . S
C898 C896 1.395 . S
C898 C901 1.403 . S
C899 C896 1.403 . S
C899 C900 1.524 . S
C899 C903 1.400 1_554 S
C900 H885 0.959 1_554 S
C900 H886 0.960 . S
C900 H887 0.961 . S
C900 C899 1.524 . S
C901 C898 1.403 . S
C901 C902 1.392 . S
C901 C905 1.495 . S
C902 C901 1.392 . S
C902 C903 1.385 1_554 S
C902 C904 1.478 1_554 S
C903 H897 0.930 . S
C903 C899 1.400 1_556 S
C903 C902 1.385 1_556 S
C904 C902 1.478 1_556 S
C904 C906 1.381 . S
C904 C910 1.383 . S
C905 C901 1.495 . S
C905 H911 0.959 . S
C905 H912 0.961 . S
C905 H913 0.960 . S
C906 C904 1.381 . S
C906 C907 1.394 . S
C906 H914 0.930 . S
C907 C906 1.394 . S
C907 C908 1.383 . S
C907 H915 0.929 . S
C908 C907 1.383 . S
C908 C909 1.377 . S
C909 H893 0.930 . S
C909 C908 1.377 . S
C909 C910 1.379 . S
C910 H894 0.931 . S
C910 C904 1.383 . S
C910 C909 1.379 . S
H911 C905 0.959 . S
H912 C905 0.961 . S
H913 C905 0.960 . S
H914 C906 0.930 . S
H915 C907 0.929 . S
H916 C924 0.929 . S
H917 C926 0.930 . S
H918 C928 0.930 . S
H919 C931 0.929 . S
H920 C934 0.930 . S
H921 C936 0.960 . S
H922 C936 0.960 . S
H923 C936 0.960 . S
C924 H916 0.929 . S
C924 C925 1.377 . S
C924 C926 1.384 . S
C925 C924 1.377 . S
C925 C931 1.390 . S
C926 H917 0.930 . S
C926 C924 1.384 . S
C926 C927 1.372 . S
C927 C926 1.372 . S
C927 C928 1.400 . S
C927 C932 1.490 . S
C928 H918 0.930 . S
C928 C927 1.400 . S
C928 C931 1.386 . S
H929 C945 0.930 . S
H930 C946 0.931 . S
C931 H919 0.929 . S
C931 C925 1.390 . S
C931 C928 1.386 . S
C932 C927 1.490 . S
C932 C934 1.395 . S
C932 C935 1.403 . S
H933 C939 0.930 . S
C934 H920 0.930 . S
C934 C932 1.395 . S
C934 C937 1.403 . S
C935 C932 1.403 . S
C935 C936 1.524 . S
C935 C939 1.400 . S
C936 H921 0.960 . S
C936 H922 0.960 . S
C936 H923 0.960 . S
C936 C935 1.524 . S
C937 C934 1.403 . S
C937 C938 1.392 . S
C937 C941 1.495 . S
C938 C937 1.392 . S
C938 C939 1.385 . S
C938 C940 1.478 . S
C939 H933 0.930 . S
C939 C935 1.400 . S
C939 C938 1.385 . S
C940 C938 1.478 . S
C940 C942 1.381 . S
C940 C946 1.383 . S
C941 C937 1.495 . S
C941 H947 0.959 . S
C941 H948 0.961 . S
C941 H949 0.960 . S
C942 C940 1.381 . S
C942 C943 1.394 . S
C942 H950 0.930 . S
C943 C942 1.394 . S
C943 C944 1.383 . S
C943 H951 0.929 . S
C944 C943 1.383 . S
C944 C945 1.377 . S
C945 H929 0.930 . S
C945 C944 1.377 . S
C945 C946 1.379 . S
C946 H930 0.931 . S
C946 C940 1.383 . S
C946 C945 1.379 . S
H947 C941 0.959 . S
H948 C941 0.961 . S
H949 C941 0.960 . S
H950 C942 0.930 . S
H951 C943 0.929 . S
H952 C960 0.929 . S
H953 C962 0.930 . S
H954 C964 0.930 . S
H955 C967 0.929 . S
H956 C970 0.930 . S
H957 C972 0.960 . S
H958 C972 0.960 1_655 S
H959 C972 0.960 . S
C960 H952 0.929 . S
C960 C961 1.377 . S
C960 C962 1.384 . S
C961 C960 1.377 . S
C961 C967 1.390 1_655 S
C962 H953 0.930 . S
C962 C960 1.384 . S
C962 C963 1.372 . S
C963 C962 1.372 . S
C963 C964 1.400 1_655 S
C963 C968 1.490 . S
C964 H954 0.930 . S
C964 C963 1.400 1_455 S
C964 C967 1.386 . S
H965 C981 0.930 . S
H966 C982 0.931 . S
C967 H955 0.929 . S
C967 C961 1.390 1_455 S
C967 C964 1.386 . S
C968 C963 1.490 . S
C968 C970 1.395 . S
C968 C971 1.409 . S
H969 C975 0.910 1_455 S
C970 H956 0.930 . S
C970 C968 1.395 . S
C970 C973 1.403 . S
C971 C968 1.409 . S
C971 C972 1.520 1_655 S
C971 C975 1.405 . S
C972 H957 0.960 . S
C972 H958 0.960 1_455 S
C972 H959 0.960 . S
C972 C971 1.520 1_455 S
C973 C970 1.403 . S
C973 C974 1.392 . S
C973 C977 1.495 . S
C974 C973 1.392 . S
C974 C975 1.400 . S
C974 C976 1.478 . S
C975 H969 0.910 1_655 S
C975 C971 1.405 . S
C975 C974 1.400 . S
C976 C974 1.478 . S
C976 C978 1.381 . S
C976 C982 1.383 1_655 S
C977 C973 1.495 . S
C977 H983 0.959 . S
C977 H984 0.961 . S
C977 H985 0.960 . S
C978 C976 1.381 . S
C978 C979 1.394 . S
C978 H986 0.930 . S
C979 C978 1.394 . S
C979 C980 1.383 . S
C979 H987 0.929 . S
C980 C979 1.383 . S
C980 C981 1.377 1_655 S
C981 H965 0.930 . S
C981 C980 1.377 1_455 S
C981 C982 1.379 . S
C982 H966 0.931 . S
C982 C976 1.383 1_455 S
C982 C981 1.379 . S
H983 C977 0.959 . S
H984 C977 0.961 . S
H985 C977 0.960 . S
H986 C978 0.930 . S
H987 C979 0.929 . S
H988 C996 0.929 . S
H989 C998 0.930 . S
H990 C1000 0.930 . S
H991 C1003 0.929 . S
H992 C1006 0.930 . S
H993 C1008 0.960 . S
H994 C1008 0.960 . S
H995 C1008 0.960 . S
C996 H988 0.929 . S
C996 C997 1.374 1_545 S
C996 C998 1.384 . S
C997 C996 1.374 1_565 S
C997 C1003 1.394 . S
C998 H989 0.930 . S
C998 C996 1.384 . S
C998 C999 1.372 1_545 S
C999 C998 1.372 1_565 S
C999 C1000 1.400 . S
C999 C1004 1.490 . S
C1000 H990 0.930 . S
C1000 C999 1.400 . S
C1000 C1003 1.386 . S
H1001 C1017 0.930 . S
H1002 C1018 0.931 . S
C1003 H991 0.929 . S
C1003 C997 1.394 . S
C1003 C1000 1.386 . S
C1004 C999 1.490 . S
C1004 C1006 1.395 . S
C1004 C1007 1.403 1_565 S
H1005 C1011 0.930 . S
C1006 H992 0.930 . S
C1006 C1004 1.395 . S
C1006 C1009 1.403 . S
C1007 C1004 1.403 1_545 S
C1007 C1008 1.524 . S
C1007 C1011 1.400 . S
C1008 H993 0.960 . S
C1008 H994 0.960 . S
C1008 H995 0.960 . S
C1008 C1007 1.524 . S
C1009 C1006 1.403 . S
C1009 C1010 1.392 . S
C1009 C1013 1.495 . S
C1010 C1009 1.392 . S
C1010 C1011 1.385 1_565 S
C1010 C1012 1.478 . S
C1011 H1005 0.930 . S
C1011 C1007 1.400 . S
C1011 C1010 1.385 1_545 S
C1012 C1010 1.478 . S
C1012 C1014 1.381 1_565 S
C1012 C1018 1.383 . S
C1013 C1009 1.495 . S
C1013 H1019 0.959 . S
C1013 H1020 0.961 . S
C1013 H1021 0.960 . S
C1014 C1012 1.381 1_545 S
C1014 C1015 1.394 . S
C1014 H1022 0.930 . S
C1015 C1014 1.394 . S
C1015 C1016 1.383 1_545 S
C1015 H1023 0.929 . S
C1016 C1015 1.383 1_565 S
C1016 C1017 1.377 . S
C1017 H1001 0.930 . S
C1017 C1016 1.377 . S
C1017 C1018 1.379 . S
C1018 H1002 0.931 . S
C1018 C1012 1.383 . S
C1018 C1017 1.379 . S
H1019 C1013 0.959 . S
H1020 C1013 0.961 . S
H1021 C1013 0.960 . S
H1022 C1014 0.930 . S
H1023 C1015 0.929 . S
H1024 C1032 0.929 . S
H1025 C1034 0.930 . S
H1026 C1036 0.930 . S
H1027 C1039 0.929 . S
H1028 C1042 0.930 . S
H1029 C1044 0.960 . S
H1030 C1044 0.960 . S
H1031 C1044 0.960 . S
C1032 H1024 0.929 . S
C1032 C1033 1.377 . S
C1032 C1034 1.384 . S
C1033 C1032 1.377 . S
C1033 C1039 1.390 . S
C1034 H1025 0.930 . S
C1034 C1032 1.384 . S
C1034 C1035 1.372 . S
C1035 C1034 1.372 . S
C1035 C1036 1.400 . S
C1035 C1040 1.490 . S
C1036 H1026 0.930 . S
C1036 C1035 1.400 . S
C1036 C1039 1.386 . S
H1037 C1053 0.930 . S
H1038 C1054 0.931 . S
C1039 H1027 0.929 . S
C1039 C1033 1.390 . S
C1039 C1036 1.386 . S
C1040 C1035 1.490 . S
C1040 C1042 1.395 . S
C1040 C1043 1.403 . S
H1041 C1047 0.930 . S
C1042 H1028 0.930 . S
C1042 C1040 1.395 . S
C1042 C1045 1.403 . S
C1043 C1040 1.403 . S
C1043 C1044 1.524 . S
C1043 C1047 1.400 . S
C1044 H1029 0.960 . S
C1044 H1030 0.960 . S
C1044 H1031 0.960 . S
C1044 C1043 1.524 . S
C1045 C1042 1.403 . S
C1045 C1046 1.392 . S
C1045 C1049 1.495 . S
C1046 C1045 1.392 . S
C1046 C1047 1.385 . S
C1046 C1048 1.478 . S
C1047 H1041 0.930 . S
C1047 C1043 1.400 . S
C1047 C1046 1.385 . S
C1048 C1046 1.478 . S
C1048 C1050 1.381 . S
C1048 C1054 1.383 . S
C1049 C1045 1.495 . S
C1049 H1055 0.959 . S
C1049 H1056 0.961 . S
C1049 H1057 0.960 . S
C1050 C1048 1.381 . S
C1050 C1051 1.394 . S
C1050 H1058 0.930 . S
C1051 C1050 1.394 . S
C1051 C1052 1.383 . S
C1051 H1059 0.929 . S
C1052 C1051 1.383 . S
C1052 C1053 1.377 . S
C1053 H1037 0.930 . S
C1053 C1052 1.377 . S
C1053 C1054 1.379 . S
C1054 H1038 0.931 . S
C1054 C1048 1.383 . S
C1054 C1053 1.379 . S
H1055 C1049 0.959 . S
H1056 C1049 0.961 . S
H1057 C1049 0.960 . S
H1058 C1050 0.930 . S
H1059 C1051 0.929 . S
H1060 C1068 0.929 . S
H1061 C1070 0.930 . S
H1062 C1072 0.930 . S
H1063 C1075 0.929 . S
H1064 C1078 0.930 . S
H1065 C1080 0.960 . S
H1066 C1080 0.960 . S
H1067 C1080 0.960 . S
C1068 H1060 0.929 . S
C1068 C1069 1.377 . S
C1068 C1070 1.384 . S
C1069 C1068 1.377 . S
C1069 C1075 1.390 . S
C1070 H1061 0.930 . S
C1070 C1068 1.384 . S
C1070 C1071 1.372 . S
C1071 C1070 1.372 . S
C1071 C1072 1.400 . S
C1071 C1076 1.490 . S
C1072 H1062 0.930 . S
C1072 C1071 1.400 . S
C1072 C1075 1.386 . S
H1073 C1089 0.930 . S
H1074 C1090 0.931 . S
C1075 H1063 0.929 . S
C1075 C1069 1.390 . S
C1075 C1072 1.386 . S
C1076 C1071 1.490 . S
C1076 C1078 1.395 . S
C1076 C1079 1.403 . S
H1077 C1083 0.930 . S
C1078 H1064 0.930 . S
C1078 C1076 1.395 . S
C1078 C1081 1.403 . S
C1079 C1076 1.403 . S
C1079 C1080 1.524 . S
C1079 C1083 1.400 . S
C1080 H1065 0.960 . S
C1080 H1066 0.960 . S
C1080 H1067 0.960 . S
C1080 C1079 1.524 . S
C1081 C1078 1.403 . S
C1081 C1082 1.392 . S
C1081 C1085 1.495 . S
C1082 C1081 1.392 . S
C1082 C1083 1.385 . S
C1082 C1084 1.478 . S
C1083 H1077 0.930 . S
C1083 C1079 1.400 . S
C1083 C1082 1.385 . S
C1084 C1082 1.478 . S
C1084 C1086 1.381 . S
C1084 C1090 1.383 . S
C1085 C1081 1.495 . S
C1085 H1091 0.959 . S
C1085 H1092 0.961 . S
C1085 H1093 0.960 . S
C1086 C1084 1.381 . S
C1086 C1087 1.394 . S
C1086 H1094 0.930 . S
C1087 C1086 1.394 . S
C1087 C1088 1.383 . S
C1087 H1095 0.929 . S
C1088 C1087 1.383 . S
C1088 C1089 1.377 . S
C1089 H1073 0.930 . S
C1089 C1088 1.377 . S
C1089 C1090 1.379 . S
C1090 H1074 0.931 . S
C1090 C1084 1.383 . S
C1090 C1089 1.379 . S
H1091 C1085 0.959 . S
H1092 C1085 0.961 . S
H1093 C1085 0.960 . S
H1094 C1086 0.930 . S
H1095 C1087 0.929 . S
C241 C61 1.722 1_545 S
C260 C74 1.758 1_545 S
C296 C114 1.935 . S
C277 C70 1.909 . S
C332 C178 1.801 . S
C313 C43 1.752 . S
C368 C194 1.378 . S
C349 C52 1.307 . S
C404 C95 1.759 1_565 S
C385 C25 1.718 1_545 S
C421 C34 1.911 . S
C440 C135 1.935 . S
C457 C7 1.765 . S
C476 C169 1.825 . S
C493 C16 1.297 . S
C512 C215 1.384 1_655 S
C548 C89 0.391 . S
C529 C50 0.212 . S
C584 C129 0.424 . S
C565 C59 0.401 1_545 S
C620 C165 0.408 . S
C601 C67 0.297 . S
C637 C41 0.424 . S
C656 C209 0.535 . S
C673 C14 0.163 . S
C692 C98 0.223 . S
C728 C138 0.427 . S
C709 C23 0.396 . S
C764 C176 0.392 . S
C745 C31 0.313 . S
C781 C5 0.400 . S
C800 C218 0.424 1_554 S
C817 C49 1.752 . S
C836 C96 1.894 . S
C853 C58 1.669 1_545 S
C872 C136 1.796 . S
C908 C154 1.527 . S
C889 C68 1.492 . S
C944 C216 2.136 . S
C925 C40 1.940 . S
C961 C13 1.727 . S
C980 C85 1.899 . S
C1016 C125 1.795 . S
C997 C22 1.662 . S
C1052 C175 1.521 . S
C1033 C32 1.484 . S
C1069 C4 1.936 . S
C1088 C205 2.136 . S
