# Generated by pormake.
# Topology nom, (4,4)-cn, num edge types: 1
# Building blocks:
#     Node 0, Type 0, BuildingBlock: MUDLON_clean_linker_0, # of connection points: 4
#     Node 1, Type 0, BuildingBlock: MUDLON_clean_linker_0, # of connection points: 4
#     Node 2, Type 0, BuildingBlock: MUDLON_clean_linker_0, # of connection points: 4
#     Node 3, Type 0, BuildingBlock: MUDLON_clean_linker_0, # of connection points: 4
#     Node 4, Type 0, BuildingBlock: MUDLON_clean_linker_0, # of connection points: 4
#     Node 5, Type 0, BuildingBlock: MUDLON_clean_linker_0, # of connection points: 4
#     Node 6, Type 1, BuildingBlock: AZAVOO_clean_sbu_0, # of connection points: 4
#     Node 7, Type 1, BuildingBlock: AZAVOO_clean_sbu_0, # of connection points: 4
#     Node 8, Type 1, BuildingBlock: AZAVOO_clean_sbu_0, # of connection points: 4
#     Node 9, Type 1, BuildingBlock: AZAVOO_clean_sbu_0, # of connection points: 4
#     Node 10, Type 1, BuildingBlock: AZAVOO_clean_sbu_0, # of connection points: 4
#     Node 11, Type 1, BuildingBlock: AZAVOO_clean_sbu_0, # of connection points: 4
#     Edge 12, Type (0, 1), BuildingBlock: ZUJKAS_clean_linker_0, # of connection points: 2
#     Edge 13, Type (0, 1), BuildingBlock: ZUJKAS_clean_linker_0, # of connection points: 2
#     Edge 14, Type (0, 1), BuildingBlock: ZUJKAS_clean_linker_0, # of connection points: 2
#     Edge 15, Type (0, 1), BuildingBlock: ZUJKAS_clean_linker_0, # of connection points: 2
#     Edge 16, Type (0, 1), BuildingBlock: ZUJKAS_clean_linker_0, # of connection points: 2
#     Edge 17, Type (0, 1), BuildingBlock: ZUJKAS_clean_linker_0, # of connection points: 2
#     Edge 18, Type (0, 1), BuildingBlock: ZUJKAS_clean_linker_0, # of connection points: 2
#     Edge 19, Type (0, 1), BuildingBlock: ZUJKAS_clean_linker_0, # of connection points: 2
#     Edge 20, Type (0, 1), BuildingBlock: ZUJKAS_clean_linker_0, # of connection points: 2
#     Edge 21, Type (0, 1), BuildingBlock: ZUJKAS_clean_linker_0, # of connection points: 2
#     Edge 22, Type (0, 1), BuildingBlock: ZUJKAS_clean_linker_0, # of connection points: 2
#     Edge 23, Type (0, 1), BuildingBlock: ZUJKAS_clean_linker_0, # of connection points: 2
#     Edge 24, Type (0, 1), BuildingBlock: ZUJKAS_clean_linker_0, # of connection points: 2
#     Edge 25, Type (0, 1), BuildingBlock: ZUJKAS_clean_linker_0, # of connection points: 2
#     Edge 26, Type (0, 1), BuildingBlock: ZUJKAS_clean_linker_0, # of connection points: 2
#     Edge 27, Type (0, 1), BuildingBlock: ZUJKAS_clean_linker_0, # of connection points: 2
#     Edge 28, Type (0, 1), BuildingBlock: ZUJKAS_clean_linker_0, # of connection points: 2
#     Edge 29, Type (0, 1), BuildingBlock: ZUJKAS_clean_linker_0, # of connection points: 2
#     Edge 30, Type (0, 1), BuildingBlock: ZUJKAS_clean_linker_0, # of connection points: 2
#     Edge 31, Type (0, 1), BuildingBlock: ZUJKAS_clean_linker_0, # of connection points: 2
#     Edge 32, Type (0, 1), BuildingBlock: ZUJKAS_clean_linker_0, # of connection points: 2
#     Edge 33, Type (0, 1), BuildingBlock: ZUJKAS_clean_linker_0, # of connection points: 2
#     Edge 34, Type (0, 1), BuildingBlock: ZUJKAS_clean_linker_0, # of connection points: 2
#     Edge 35, Type (0, 1), BuildingBlock: ZUJKAS_clean_linker_0, # of connection points: 2
# Relax obj value: 0.034
# Max RMSD: 0.155
# Mean RMSD: 0.120
data_MOF--net-nom--node1-AZAVOO_clean_sbu_0--node2-MUDLON_clean_linker_0--edge1-ZUJKAS_clean_linker_0
_symmetry_space_group_name_H-M    P1
_symmetry_Int_Tables_number       1
_symmetry_cell_setting            triclinic
loop_
_symmetry_equiv_pos_as_xyz
'x, y, z'
_cell_length_a     73.76277
_cell_length_b     74.97635
_cell_length_c     71.90613
_cell_angle_alpha  91.219311
_cell_angle_beta   90.705875
_cell_angle_gamma 120.28432
loop_
_atom_site_label
_atom_site_type_symbol
_atom_site_fract_x
_atom_site_fract_y
_atom_site_fract_z
_atom_type_partial_charge
H0 H 0.09949 0.56547 0.33434 0.0
N1 N 0.07259 0.57972 0.34205 0.0
H2 H 0.12967 0.58151 0.31435 0.0
H3 H 0.08279 0.61087 0.31948 0.0
H4 H 0.11336 0.62731 0.29951 0.0
H5 H 0.08932 0.61177 0.36589 0.0
H6 H 0.10801 0.61524 0.39525 0.0
H7 H 0.07369 0.54824 0.35982 0.0
H8 H 0.0919 0.55136 0.38939 0.0
H9 H 0.06421 0.54405 0.32264 0.0
H10 H 0.03549 0.57531 0.34938 0.0
H11 H 0.02985 0.51591 0.31263 0.0
H12 H 0.00078 0.54651 0.34036 0.0
H13 H 0.91138 0.42484 0.28739 0.0
H14 H 0.89476 0.41479 0.25631 0.0
H15 H 0.91754 0.47894 0.24516 0.0
H16 H 0.93388 0.48882 0.27605 0.0
H17 H 0.90743 0.48187 0.30052 0.0
H18 H 0.87844 0.47692 0.31953 0.0
H19 H 0.88609 0.43364 0.35266 0.0
H20 H 0.91543 0.43867 0.33327 0.0
H21 H 0.9636 0.45937 0.31242 0.0
H22 H 0.99856 0.48729 0.32234 0.0
H23 H 0.97818 0.53158 0.31443 0.0
N24 N 0.93007 0.46214 0.30368 0.0
H25 H 0.94332 0.5037 0.30571 0.0
C26 C 0.08885 0.58706 0.32845 0.0
C27 C 0.10212 0.57873 0.32658 0.0
C28 C 0.1195 0.58801 0.31523 0.0
C29 C 0.12403 0.60581 0.30553 0.0
C30 C 0.1102 0.61353 0.30671 0.0
C31 C 0.09279 0.60421 0.31811 0.0
C32 C 0.08011 0.57984 0.36069 0.0
C33 C 0.08945 0.59842 0.3712 0.0
C34 C 0.10009 0.60034 0.38797 0.0
C35 C 0.10159 0.58361 0.39462 0.0
C36 C 0.09132 0.56464 0.38451 0.0
C37 C 0.0807 0.56276 0.36768 0.0
C38 C 0.05251 0.56213 0.33653 0.0
C39 C 0.05056 0.54491 0.32646 0.0
C40 C 0.03074 0.52859 0.32088 0.0
C41 C 0.01242 0.52892 0.32551 0.0
C42 C 0.01448 0.5459 0.33609 0.0
C43 C 0.03429 0.56231 0.34142 0.0
C44 C 0.92388 0.4575 0.28423 0.0
C45 C 0.91319 0.43674 0.27806 0.0
C46 C 0.90371 0.43105 0.26031 0.0
C47 C 0.90466 0.44607 0.24835 0.0
C48 C 0.91626 0.46698 0.25417 0.0
C49 C 0.9258 0.47267 0.27189 0.0
C50 C 0.91371 0.46062 0.3155 0.0
C51 C 0.90324 0.47157 0.31201 0.0
C52 C 0.88663 0.46879 0.323 0.0
C53 C 0.88003 0.45497 0.33768 0.0
C54 C 0.89077 0.44433 0.3414 0.0
C55 C 0.90752 0.44722 0.33041 0.0
C56 C 0.95082 0.47929 0.30813 0.0
C57 C 0.9668 0.47515 0.31277 0.0
C58 C 0.98679 0.49117 0.31835 0.0
C59 C 0.99128 0.51178 0.31925 0.0
C60 C 0.97527 0.51591 0.31427 0.0
C61 C 0.95525 0.49987 0.30897 0.0
H62 H 0.45991 0.92047 0.46254 0.0
N63 N 0.44047 0.94289 0.45617 0.0
H64 H 0.44706 0.89037 0.48184 0.0
H65 H 0.40911 0.92928 0.47979 0.0
H66 H 0.39595 0.89885 0.49911 0.0
H67 H 0.40718 0.92365 0.43337 0.0
H68 H 0.40464 0.90646 0.40338 0.0
H69 H 0.47356 0.94561 0.43686 0.0
H70 H 0.47131 0.92883 0.40671 0.0
H71 H 0.47837 0.9555 0.47449 0.0
H72 H 0.44037 0.97722 0.44855 0.0
H73 H 0.50525 0.99083 0.48248 0.0
H74 H 0.46783 0.01289 0.45558 0.0
H75 H 0.59153 0.10684 0.50397 0.0
H76 H 0.60207 0.12129 0.53575 0.0
H77 H 0.53689 0.09667 0.54891 0.0
H78 H 0.52653 0.08244 0.51733 0.0
H79 H 0.53076 0.10815 0.49446 0.0
H80 H 0.53523 0.13841 0.47878 0.0
H81 H 0.58125 0.13666 0.44337 0.0
H82 H 0.57687 0.10626 0.45948 0.0
H83 H 0.55861 0.05727 0.47868 0.0
H84 H 0.53166 0.02173 0.47021 0.0
H85 H 0.48356 0.03742 0.48006 0.0
N86 N 0.55324 0.08851 0.48859 0.0
H87 H 0.51049 0.07289 0.4874 0.0
C88 C 0.43538 0.92717 0.46967 0.0
C89 C 0.44618 0.91618 0.47072 0.0
C90 C 0.43873 0.89883 0.48168 0.0
C91 C 0.42036 0.89209 0.49183 0.0
C92 C 0.41023 0.90373 0.49156 0.0
C93 C 0.41769 0.92109 0.48054 0.0
C94 C 0.44045 0.93588 0.43733 0.0
C95 C 0.42128 0.92517 0.4274 0.0
C96 C 0.4199 0.91541 0.41027 0.0
C97 C 0.43776 0.91618 0.40271 0.0
C98 C 0.45721 0.92771 0.4123 0.0
C99 C 0.45856 0.93747 0.42946 0.0
C100 C 0.45703 0.96361 0.46114 0.0
C101 C 0.47573 0.96781 0.47046 0.0
C102 C 0.49132 0.98818 0.47486 0.0
C103 C 0.48878 0.00484 0.46976 0.0
C104 C 0.47021 0.00053 0.46013 0.0
C105 C 0.45453 0.98016 0.45597 0.0
C106 C 0.55833 0.0936 0.50814 0.0
C107 C 0.57953 0.10418 0.51387 0.0
C108 C 0.5855 0.11239 0.53201 0.0
C109 C 0.5703 0.11027 0.54475 0.0
C110 C 0.54897 0.09879 0.5393 0.0
C111 C 0.54302 0.0905 0.52119 0.0
C112 C 0.55352 0.10484 0.47811 0.0
C113 C 0.54153 0.11392 0.48312 0.0
C114 C 0.54407 0.1313 0.47408 0.0
C115 C 0.55866 0.14002 0.45987 0.0
C116 C 0.57008 0.13047 0.45443 0.0
C117 C 0.56749 0.11304 0.46348 0.0
C118 C 0.53671 0.06776 0.48377 0.0
C119 C 0.54222 0.05297 0.47892 0.0
C120 C 0.52676 0.03263 0.47424 0.0
C121 C 0.50534 0.02658 0.47451 0.0
C122 C 0.49986 0.04151 0.4794 0.0
C123 C 0.51535 0.06189 0.48382 0.0
H124 H 0.47832 0.56596 0.63961 0.0
N125 N 0.45982 0.5262 0.65158 0.0
H126 H 0.46359 0.57909 0.6168 0.0
H127 H 0.42571 0.5044 0.63014 0.0
H128 H 0.41037 0.51746 0.60776 0.0
H129 H 0.42926 0.51378 0.67571 0.0
H130 H 0.42974 0.53044 0.70545 0.0
H131 H 0.49381 0.56023 0.66773 0.0
H132 H 0.49463 0.5769 0.69765 0.0
H133 H 0.49681 0.54821 0.63307 0.0
H134 H 0.45861 0.49203 0.66207 0.0
H135 H 0.52241 0.53757 0.62709 0.0
H136 H 0.48476 0.48169 0.65709 0.0
H137 H 0.60353 0.50026 0.61023 0.0
H138 H 0.6111 0.49428 0.57836 0.0
H139 H 0.54455 0.45831 0.56549 0.0
H140 H 0.53713 0.46413 0.59714 0.0
H141 H 0.54167 0.44188 0.61956 0.0
H142 H 0.54509 0.41537 0.63526 0.0
H143 H 0.59384 0.46213 0.67149 0.0
H144 H 0.59049 0.48888 0.65536 0.0
H145 H 0.57401 0.52176 0.63394 0.0
H146 H 0.54872 0.5328 0.641 0.0
H147 H 0.49809 0.4695 0.63381 0.0
N148 N 0.56626 0.48386 0.62576 0.0
H149 H 0.52339 0.45863 0.62784 0.0
C150 C 0.45305 0.5341 0.63656 0.0
C151 C 0.46375 0.55518 0.63241 0.0
C152 C 0.4552 0.56272 0.61944 0.0
C153 C 0.43569 0.54939 0.61051 0.0
C154 C 0.42555 0.52816 0.61412 0.0
C155 C 0.4342 0.52064 0.62699 0.0
C156 C 0.46139 0.53573 0.66957 0.0
C157 C 0.44361 0.52743 0.68056 0.0
C158 C 0.444 0.53691 0.69758 0.0
C159 C 0.46227 0.55497 0.70396 0.0
C160 C 0.48028 0.5631 0.69305 0.0
C161 C 0.47986 0.55356 0.67599 0.0
C162 C 0.47551 0.52066 0.64776 0.0
C163 C 0.49388 0.53357 0.63818 0.0
C164 C 0.50872 0.52755 0.63496 0.0
C165 C 0.50568 0.50869 0.64153 0.0
C166 C 0.48746 0.49608 0.65144 0.0
C167 C 0.47254 0.50199 0.65442 0.0
C168 C 0.56987 0.4827 0.6062 0.0
C169 C 0.59063 0.49147 0.60039 0.0
C170 C 0.5949 0.48805 0.5822 0.0
C171 C 0.57839 0.47565 0.56951 0.0
C172 C 0.55758 0.46768 0.57506 0.0
C173 C 0.55333 0.47116 0.59321 0.0
C174 C 0.5659 0.46752 0.6363 0.0
C175 C 0.55282 0.44653 0.63108 0.0
C176 C 0.55476 0.43128 0.64014 0.0
C177 C 0.56981 0.43663 0.65457 0.0
C178 C 0.58228 0.45754 0.66025 0.0
C179 C 0.5803 0.4728 0.65118 0.0
C180 C 0.55075 0.48946 0.63032 0.0
C181 C 0.55744 0.51031 0.63406 0.0
C182 C 0.54293 0.51658 0.63791 0.0
C183 C 0.52128 0.50206 0.63791 0.0
C184 C 0.51462 0.4811 0.63425 0.0
C185 C 0.52917 0.47484 0.63065 0.0
H186 H 0.11756 0.62346 0.81603 0.0
N187 N 0.08462 0.58755 0.80478 0.0
H188 H 0.1466 0.62886 0.83656 0.0
H189 H 0.08469 0.55852 0.82795 0.0
H190 H 0.11291 0.56402 0.84914 0.0
H191 H 0.10809 0.57011 0.79412 0.0
H192 H 0.1245 0.57345 0.76425 0.0
H193 H 0.08061 0.60549 0.77455 0.0
H194 H 0.09668 0.60827 0.74413 0.0
H195 H 0.05406 0.58951 0.82225 0.0
H196 H 0.06731 0.54708 0.79222 0.0
H197 H 0.01836 0.56108 0.82771 0.0
H198 H 0.03196 0.51901 0.79742 0.0
H199 H 0.93027 0.49136 0.84234 0.0
H200 H 0.9122 0.48952 0.87109 0.0
H201 H 0.91821 0.43751 0.8874 0.0
H202 H 0.93679 0.43991 0.8588 0.0
H203 H 0.93008 0.42695 0.81907 0.0
H204 H 0.90036 0.40641 0.79753 0.0
H205 H 0.89295 0.45947 0.79003 0.0
H206 H 0.92323 0.48004 0.81098 0.0
H207 H 0.97153 0.49812 0.85449 0.0
H208 H 0.00393 0.52858 0.8465 0.0
H209 H 0.99432 0.50708 0.78916 0.0
N210 N 0.94462 0.46558 0.8312 0.0
H211 H 0.96167 0.47647 0.79688 0.0
C212 C 0.09893 0.59067 0.82016 0.0
C213 C 0.11625 0.61052 0.82357 0.0
C214 C 0.13282 0.61358 0.8354 0.0
C215 C 0.13228 0.59679 0.84431 0.0
C216 C 0.1141 0.5772 0.84215 0.0
C217 C 0.09772 0.57409 0.83009 0.0
C218 C 0.09343 0.58803 0.78678 0.0
C219 C 0.10554 0.5786 0.78344 0.0
C220 C 0.11486 0.58041 0.76632 0.0
C221 C 0.11193 0.59123 0.75204 0.0
C222 C 0.09911 0.59984 0.75499 0.0
C223 C 0.09003 0.59834 0.77229 0.0
C224 C 0.06337 0.57065 0.80668 0.0
C225 C 0.04921 0.57419 0.81664 0.0
C226 C 0.02892 0.55797 0.81979 0.0
C227 C 0.02239 0.5379 0.81286 0.0
C228 C 0.03644 0.5344 0.80261 0.0
C229 C 0.05675 0.55053 0.79964 0.0
C230 C 0.93492 0.46573 0.84849 0.0
C231 C 0.92774 0.47962 0.85214 0.0
C232 C 0.91737 0.47852 0.86858 0.0
C233 C 0.91374 0.46337 0.88158 0.0
C234 C 0.92108 0.44963 0.8779 0.0
C235 C 0.93158 0.45085 0.86153 0.0
C236 C 0.92868 0.45485 0.81678 0.0
C237 C 0.92223 0.43418 0.81249 0.0
C238 C 0.90518 0.42248 0.80031 0.0
C239 C 0.89409 0.43123 0.79227 0.0
C240 C 0.9012 0.45228 0.79591 0.0
C241 C 0.91836 0.46401 0.80805 0.0
C242 C 0.96283 0.48509 0.82617 0.0
C243 C 0.97563 0.50007 0.83999 0.0
C244 C 0.99442 0.51761 0.83547 0.0
C245 C 0.00145 0.52036 0.81717 0.0
C246 C 0.98913 0.50543 0.80337 0.0
C247 C 0.97021 0.48797 0.80783 0.0
H248 H 0.49743 0.12537 0.98204 0.0
N249 N 0.49935 0.09201 0.9729 0.0
H250 H 0.522 0.15479 0.00214 0.0
H251 H 0.53142 0.09408 0.99488 0.0
H252 H 0.5557 0.12319 0.01504 0.0
H253 H 0.53776 0.10272 0.95897 0.0
H254 H 0.54928 0.11385 0.92747 0.0
H255 H 0.47635 0.0927 0.9446 0.0
H256 H 0.48757 0.1034 0.91283 0.0
H257 H 0.46024 0.06701 0.9827 0.0
H258 H 0.51819 0.06844 0.97155 0.0
H259 H 0.44302 0.02994 0.98748 0.0
H260 H 0.50173 0.0318 0.97771 0.0
H261 H 0.3969 0.91677 0.01675 0.0
H262 H 0.39775 0.90709 0.0489 0.0
H263 H 0.46551 0.94383 0.05017 0.0
H264 H 0.46447 0.95362 0.018 0.0
H265 H 0.46299 0.9348 0.99059 0.0
H266 H 0.46266 0.90657 0.97275 0.0
H267 H 0.39842 0.88463 0.95507 0.0
H268 H 0.39903 0.91314 0.97284 0.0
H269 H 0.42186 0.96807 0.0118 0.0
H270 H 0.43983 0.00507 0.00751 0.0
H271 H 0.47812 0.99884 0.96571 0.0
N272 N 0.42928 0.94023 0.99583 0.0
H273 H 0.46117 0.96216 0.97097 0.0
C274 C 0.51238 0.10744 0.98692 0.0
C275 C 0.50989 0.12465 0.9895 0.0
C276 C 0.52396 0.14144 0.00087 0.0
C277 C 0.54075 0.14125 0.01008 0.0
C278 C 0.54275 0.12363 0.00823 0.0
C279 C 0.52881 0.10693 0.99662 0.0
C280 C 0.5062 0.09709 0.95412 0.0
C281 C 0.52666 0.10263 0.94894 0.0
C282 C 0.53318 0.10886 0.93088 0.0
C283 C 0.51936 0.10961 0.91768 0.0
C284 C 0.49867 0.10328 0.92275 0.0
C285 C 0.4922 0.0971 0.94081 0.0
C286 C 0.49051 0.07057 0.97717 0.0
C287 C 0.46935 0.05935 0.98175 0.0
C288 C 0.4596 0.03817 0.98457 0.0
C289 C 0.47097 0.02774 0.98315 0.0
C290 C 0.49234 0.03914 0.9787 0.0
C291 C 0.50194 0.06028 0.97549 0.0
C292 C 0.43052 0.93567 0.01501 0.0
C293 C 0.41188 0.92284 0.02406 0.0
C294 C 0.41242 0.91749 0.04242 0.0
C295 C 0.43172 0.92481 0.05203 0.0
C296 C 0.45046 0.93791 0.04303 0.0
C297 C 0.44988 0.94343 0.02468 0.0
C298 C 0.43094 0.92605 0.98304 0.0
C299 C 0.44895 0.92412 0.98267 0.0
C300 C 0.4487 0.90789 0.97252 0.0
C301 C 0.43045 0.89321 0.96263 0.0
C302 C 0.41282 0.89577 0.96236 0.0
C303 C 0.4131 0.91202 0.9725 0.0
C304 C 0.44018 0.96208 0.99208 0.0
C305 C 0.43428 0.9747 0.00182 0.0
C306 C 0.44447 0.99591 -0.00082 0.0
C307 C 0.4605 0.00511 0.98622 0.0
C308 C 0.46619 0.99245 0.97613 0.0
C309 C 0.45628 0.97122 0.97908 0.0
H310 H 0.51463 0.42713 0.13385 0.0
N311 N 0.5186 0.46217 0.14733 0.0
H312 H 0.5421 0.4219 0.12069 0.0
H313 H 0.5576 0.49295 0.13672 0.0
H314 H 0.58483 0.48789 0.12332 0.0
H315 H 0.55358 0.48119 0.17048 0.0
H316 H 0.55628 0.4723 0.20225 0.0
H317 H 0.48743 0.43584 0.16836 0.0
H318 H 0.49017 0.42662 0.20047 0.0
H319 H 0.49001 0.46052 0.12344 0.0
H320 H 0.53999 0.50226 0.16146 0.0
H321 H 0.4831 0.48831 0.11578 0.0
H322 H 0.53345 0.52988 0.15374 0.0
H323 H 0.45731 0.55173 0.10195 0.0
H324 H 0.44189 0.55483 0.07279 0.0
H325 H 0.49905 0.6122 0.0629 0.0
H326 H 0.51445 0.60862 0.09187 0.0
H327 H 0.51367 0.61812 0.13105 0.0
H328 H 0.49844 0.63228 0.15274 0.0
H329 H 0.4432 0.5718 0.15617 0.0
H330 H 0.45868 0.55772 0.13467 0.0
H331 H 0.49495 0.55032 0.09259 0.0
H332 H 0.4998 0.52164 0.10007 0.0
H333 H 0.50719 0.5397 0.1583 0.0
N334 N 0.49602 0.57979 0.11698 0.0
H335 H 0.50277 0.56867 0.151 0.0
C336 C 0.53387 0.46032 0.13632 0.0
C337 C 0.52978 0.44047 0.13114 0.0
C338 C 0.54549 0.43754 0.12363 0.0
C339 C 0.56572 0.45448 0.12116 0.0
C340 C 0.5695 0.47449 0.12535 0.0
C341 C 0.55378 0.47741 0.13287 0.0
C342 C 0.52022 0.45902 0.16689 0.0
C343 C 0.53952 0.4695 0.17688 0.0
C344 C 0.5411 0.46433 0.19508 0.0
C345 C 0.52349 0.4486 0.20373 0.0
C346 C 0.50397 0.43888 0.19415 0.0
C347 C 0.5024 0.44405 0.17584 0.0
C348 C 0.51533 0.47909 0.14308 0.0
C349 C 0.49949 0.47564 0.13009 0.0
C350 C 0.49565 0.49154 0.12569 0.0
C351 C 0.50764 0.51126 0.13426 0.0
C352 C 0.52366 0.51476 0.14716 0.0
C353 C 0.52748 0.49889 0.15154 0.0
C354 C 0.48714 0.57996 0.09901 0.0
C355 C 0.46655 0.56486 0.09341 0.0
C356 C 0.45773 0.56673 0.07677 0.0
C357 C 0.46919 0.58381 0.0655 0.0
C358 C 0.48988 0.59867 0.07104 0.0
C359 C 0.49871 0.59671 0.08761 0.0
C360 C 0.48734 0.58699 0.13119 0.0
C361 C 0.49842 0.60791 0.1367 0.0
C362 C 0.48965 0.61595 0.14898 0.0
C363 C 0.46957 0.60315 0.15602 0.0
C364 C 0.45875 0.58198 0.15105 0.0
C365 C 0.4675 0.57397 0.13865 0.0
C366 C 0.49697 0.56134 0.12129 0.0
C367 C 0.49688 0.54796 0.1071 0.0
C368 C 0.49981 0.53146 0.11134 0.0
C369 C 0.50359 0.5282 0.12979 0.0
C370 C 0.50425 0.54174 0.14392 0.0
C371 C 0.50133 0.55821 0.13972 0.0
Mg372 Mg 0.62198 0.37427 0.36797 0.0
O373 O 0.6206 0.39352 0.39269 0.0
O374 O 0.63291 0.42568 0.38296 0.0
Mg375 Mg 0.64186 0.42705 0.35261 0.0
C376 C 0.62535 0.41229 0.39559 0.0
C377 C 0.59871 0.33515 0.39213 0.0
O378 O 0.58285 0.33767 0.38765 0.0
O379 O 0.65741 0.38967 0.37201 0.0
O380 O 0.66852 0.42135 0.36164 0.0
O381 O 0.58988 0.36659 0.35853 0.0
O382 O 0.61913 0.39377 0.34958 0.0
C383 C 0.67216 0.4078 0.3684 0.0
C384 C 0.5989 0.38352 0.34945 0.0
O385 O 0.61696 0.34819 0.38682 0.0
Mg386 Mg 0.28016 0.64712 0.57926 0.0
O387 O 0.25607 0.63355 0.55476 0.0
O388 O 0.23462 0.60013 0.56033 0.0
Mg389 Mg 0.24439 0.59241 0.5878 0.0
C390 C 0.24035 0.61581 0.55023 0.0
C391 C 0.30783 0.69293 0.57346 0.0
O392 O 0.30287 0.69153 0.59107 0.0
O393 O 0.29746 0.63123 0.56835 0.0
O394 O 0.27543 0.59831 0.57516 0.0
O395 O 0.25913 0.65494 0.59467 0.0
O396 O 0.25815 0.62508 0.59666 0.0
C397 C 0.29274 0.61235 0.5687 0.0
C398 C 0.25029 0.6365 0.60109 0.0
O399 O 0.30092 0.67638 0.5636 0.0
Mg400 Mg 0.63784 0.26669 0.74369 0.0
O401 O 0.63308 0.24399 0.71962 0.0
O402 O 0.64665 0.22484 0.72911 0.0
Mg403 Mg 0.65919 0.23458 0.75903 0.0
C404 C 0.63744 0.22969 0.71675 0.0
C405 C 0.61171 0.2811 0.72045 0.0
O406 O 0.59638 0.26329 0.72589 0.0
O407 O 0.67268 0.28585 0.73792 0.0
O408 O 0.68494 0.26627 0.74914 0.0
O409 O 0.60707 0.24374 0.7552 0.0
O410 O 0.63727 0.24603 0.76282 0.0
C411 C 0.68787 0.28285 0.74172 0.0
C412 C 0.61719 0.23662 0.7643 0.0
O413 O 0.63055 0.28634 0.72474 0.0
Mg414 Mg 0.38631 0.6585 0.87112 0.0
O415 O 0.39116 0.64249 0.89609 0.0
O416 O 0.37519 0.60876 0.88848 0.0
Mg417 Mg 0.36126 0.60335 0.85896 0.0
C418 C 0.38575 0.62392 0.89997 0.0
C419 C 0.39061 0.69987 0.881 0.0
O420 O 0.38025 0.69417 0.86494 0.0
O421 O 0.35201 0.64561 0.87824 0.0
O422 O 0.33742 0.61248 0.86894 0.0
O423 O 0.41583 0.6629 0.85859 0.0
O424 O 0.38441 0.63559 0.85316 0.0
C425 C 0.33596 0.62762 0.87567 0.0
C426 C 0.40432 0.64485 0.8506 0.0
O427 O 0.39594 0.68789 0.8884 0.0
Mg428 Mg 0.74046 0.38043 0.05277 0.0
O429 O 0.76341 0.38513 0.07687 0.0
O430 O 0.78083 0.3693 0.06791 0.0
Mg431 Mg 0.7705 0.35612 0.03817 0.0
C432 C 0.77701 0.37967 0.07996 0.0
C433 C 0.72629 0.40858 0.07266 0.0
O434 O 0.74341 0.42266 0.06483 0.0
O435 O 0.71965 0.34656 0.05964 0.0
O436 O 0.73752 0.33231 0.04793 0.0
O437 O 0.76456 0.40961 0.03997 0.0
O438 O 0.7607 0.37895 0.03371 0.0
C439 C 0.72127 0.33076 0.05562 0.0
C440 C 0.7709 0.39856 0.03126 0.0
O441 O 0.72143 0.38974 0.0712 0.0
Mg442 Mg 0.36901 0.75004 0.21113 0.0
O443 O 0.38532 0.77136 0.23677 0.0
O444 O 0.41923 0.79132 0.23025 0.0
Mg445 Mg 0.42464 0.78261 0.20109 0.0
C446 C 0.40394 0.78578 0.24122 0.0
C447 C 0.32262 0.72488 0.21842 0.0
O448 O 0.32361 0.73123 0.20137 0.0
O449 O 0.38299 0.73007 0.21835 0.0
O450 O 0.41648 0.75033 0.21076 0.0
O451 O 0.36329 0.77399 0.19971 0.0
O452 O 0.39156 0.77183 0.19408 0.0
C453 C 0.4016 0.7333 0.21665 0.0
C454 C 0.38159 0.78175 0.19239 0.0
O455 O 0.33964 0.73009 0.22734 0.0
H456 H 0.16303 0.61435 0.31695 0.0
H457 H 0.19606 0.63396 0.30088 0.0
H458 H 0.16311 0.64245 0.25509 0.0
H459 H 0.12989 0.62284 0.27117 0.0
H460 H 0.20798 0.62669 0.26657 0.0
H461 H 0.20922 0.70143 0.26876 0.0
H462 H 0.19154 0.67984 0.28242 0.0
H463 H 0.18596 0.68024 0.25808 0.0
C464 C 0.16276 0.6202 0.30337 0.0
C465 C 0.14386 0.61705 0.29531 0.0
C466 C 0.18166 0.63148 0.29425 0.0
C467 C 0.18206 0.63989 0.27694 0.0
C468 C 0.16319 0.63646 0.26864 0.0
H469 H 0.28398 0.71348 0.20349 0.0
H470 H 0.24981 0.69226 0.2174 0.0
C471 C 0.14424 0.62523 0.27781 0.0
C472 C 0.20232 0.6522 0.26765 0.0
H473 H 0.23614 0.70034 0.25211 0.0
C474 C 0.21416 0.6428 0.26342 0.0
C475 C 0.21033 0.67322 0.2636 0.0
C476 C 0.19873 0.68438 0.26858 0.0
C477 C 0.23376 0.65382 0.2551 0.0
C478 C 0.24178 0.67483 0.25115 0.0
C479 C 0.22988 0.6842 0.2552 0.0
C480 C 0.26253 0.68741 0.24279 0.0
C481 C 0.24562 0.64286 0.25039 0.0
C482 C 0.28098 0.69185 0.25259 0.0
C483 C 0.30058 0.70404 0.24471 0.0
C484 C 0.302 0.71198 0.22691 0.0
C485 C 0.28344 0.70755 0.2172 0.0
C486 C 0.2639 0.69545 0.22511 0.0
H487 H 0.23533 0.62579 0.25042 0.0
H488 H 0.25277 0.6473 0.23652 0.0
H489 H 0.25849 0.64738 0.26088 0.0
H490 H 0.28022 0.68604 0.26639 0.0
H491 H 0.31458 0.70723 0.25257 0.0
H492 H 0.53005 0.1514 0.44975 0.0
H493 H 0.53725 0.18486 0.4384 0.0
H494 H 0.60366 0.2066 0.44024 0.0
H495 H 0.59666 0.17333 0.45173 0.0
H496 H 0.5619 0.22365 0.45686 0.0
H497 H 0.59364 0.22117 0.38782 0.0
H498 H 0.57884 0.19838 0.40127 0.0
H499 H 0.60601 0.21617 0.40708 0.0
C500 C 0.54619 0.16329 0.44768 0.0
C501 C 0.56278 0.15967 0.45159 0.0
C502 C 0.55026 0.18235 0.44115 0.0
C503 C 0.57096 0.1981 0.4383 0.0
C504 C 0.58754 0.1945 0.44199 0.0
H505 H 0.6278 0.32447 0.40224 0.0
H506 H 0.62119 0.29174 0.41485 0.0
C507 C 0.5835 0.17545 0.44852 0.0
C508 C 0.57527 0.21861 0.43226 0.0
H509 H 0.59685 0.25306 0.39759 0.0
C510 C 0.56945 0.23007 0.44387 0.0
C511 C 0.58523 0.22694 0.41536 0.0
C512 C 0.59115 0.21499 0.40205 0.0
C513 C 0.57359 0.24983 0.43914 0.0
C514 C 0.58348 0.25813 0.4222 0.0
C515 C 0.58934 0.24667 0.41061 0.0
C516 C 0.58753 0.2785 0.41597 0.0
C517 C 0.56773 0.26179 0.45248 0.0
C518 C 0.57079 0.28195 0.41255 0.0
C519 C 0.57451 0.30066 0.40541 0.0
C520 C 0.59503 0.3162 0.40139 0.0
C521 C 0.61181 0.31284 0.40519 0.0
C522 C 0.60807 0.29413 0.41235 0.0
H523 H 0.56576 0.25589 0.4668 0.0
H524 H 0.5798 0.27847 0.45295 0.0
H525 H 0.55258 0.26018 0.44777 0.0
H526 H 0.55478 0.26995 0.4149 0.0
H527 H 0.56122 0.30269 0.40256 0.0
H528 H 0.43471 0.58498 0.6169 0.0
H529 H 0.41272 0.59596 0.60106 0.0
H530 H 0.38922 0.54341 0.563 0.0
H531 H 0.41172 0.5325 0.5784 0.0
H532 H 0.40351 0.59698 0.55446 0.0
H533 H 0.3411 0.54335 0.60161 0.0
H534 H 0.36841 0.55607 0.60892 0.0
H535 H 0.35867 0.5362 0.59102 0.0
C536 C 0.42548 0.57609 0.60476 0.0
C537 C 0.4249 0.55774 0.59902 0.0
C538 C 0.41287 0.5824 0.59576 0.0
C539 C 0.39944 0.57049 0.58091 0.0
C540 C 0.39961 0.55282 0.57442 0.0
H541 H 0.28603 0.57452 0.55727 0.0
H542 H 0.31223 0.56384 0.55491 0.0
C543 C 0.41231 0.54652 0.58336 0.0
C544 C 0.38322 0.57497 0.57415 0.0
H545 H 0.33393 0.56489 0.58381 0.0
C546 C 0.38816 0.58982 0.56062 0.0
C547 C 0.36326 0.56545 0.58218 0.0
C548 C 0.35735 0.54935 0.59675 0.0
C549 C 0.37362 0.59578 0.5552 0.0
C550 C 0.35396 0.58698 0.56394 0.0
C551 C 0.34892 0.57161 0.57703 0.0
C552 C 0.33886 0.59435 0.56104 0.0
C553 C 0.3795 0.61139 0.54021 0.0
C554 C 0.34512 0.61521 0.56454 0.0
C555 C 0.33017 0.62141 0.56557 0.0
C556 C 0.30865 0.60676 0.56358 0.0
C557 C 0.3025 0.58613 0.55901 0.0
C558 C 0.31747 0.58001 0.55764 0.0
H559 H 0.3907 0.61064 0.53048 0.0
H560 H 0.36548 0.60895 0.53211 0.0
H561 H 0.38738 0.62715 0.54673 0.0
H562 H 0.36142 0.6265 0.56769 0.0
H563 H 0.33539 0.6374 0.56925 0.0
H564 H 0.86315 0.39232 0.80007 0.0
H565 H 0.82957 0.37106 0.78361 0.0
H566 H 0.84565 0.41889 0.7441 0.0
H567 H 0.87979 0.44035 0.76032 0.0
H568 H 0.80049 0.39187 0.77404 0.0
H569 H 0.82265 0.35498 0.71758 0.0
H570 H 0.83652 0.36149 0.7398 0.0
H571 H 0.83966 0.38168 0.72495 0.0
C572 C 0.85983 0.39822 0.78765 0.0
C573 C 0.87424 0.41801 0.78144 0.0
C574 C 0.84057 0.38609 0.77836 0.0
C575 C 0.83529 0.39344 0.76268 0.0
C576 C 0.8496 0.41301 0.75618 0.0
H577 H 0.70129 0.3219 0.72929 0.0
H578 H 0.73741 0.35105 0.72967 0.0
C579 C 0.86898 0.42524 0.7655 0.0
C580 C 0.81418 0.38079 0.754 0.0
H581 H 0.78643 0.34045 0.72312 0.0
C582 C 0.79732 0.38094 0.76259 0.0
C583 C 0.81034 0.36658 0.7392 0.0
C584 C 0.82817 0.36604 0.72971 0.0
C585 C 0.7765 0.36633 0.75747 0.0
C586 C 0.77256 0.3514 0.7432 0.0
C587 C 0.78951 0.35199 0.73395 0.0
C588 C 0.75123 0.33344 0.73968 0.0
C589 C 0.75895 0.36609 0.76828 0.0
C590 C 0.74721 0.31371 0.74425 0.0
C591 C 0.72669 0.29703 0.74395 0.0
C592 C 0.70973 0.29976 0.73909 0.0
C593 C 0.71395 0.31928 0.7333 0.0
C594 C 0.73456 0.33599 0.73356 0.0
H595 H 0.76488 0.37662 0.78078 0.0
H596 H 0.75016 0.37109 0.75923 0.0
H597 H 0.7478 0.35023 0.77281 0.0
H598 H 0.75988 0.31141 0.74895 0.0
H599 H 0.72409 0.2822 0.74832 0.0
H600 H 0.41228 0.87458 0.92887 0.0
H601 H 0.40775 0.84216 0.91565 0.0
H602 H 0.4416 0.83741 0.96279 0.0
H603 H 0.44567 0.86943 0.97637 0.0
H604 H 0.43819 0.83098 0.90637 0.0
H605 H 0.38549 0.78224 0.96162 0.0
H606 H 0.39143 0.80843 0.95828 0.0
H607 H 0.41024 0.80362 0.96979 0.0
C608 C 0.41871 0.86661 0.93644 0.0
C609 C 0.42924 0.87455 0.95372 0.0
C610 C 0.41621 0.84816 0.92883 0.0
C611 C 0.42406 0.83725 0.9384 0.0
C612 C 0.43514 0.84544 0.95534 0.0
H613 H 0.41243 0.71702 0.91394 0.0
H614 H 0.422 0.75083 0.92804 0.0
C615 C 0.43766 0.86388 0.96296 0.0
C616 C 0.42037 0.81716 0.93074 0.0
H617 H 0.39525 0.76553 0.93904 0.0
C618 C 0.42882 0.81666 0.9135 0.0
C619 C 0.40821 0.79854 0.94014 0.0
C620 C 0.39815 0.79809 0.95841 0.0
C621 C 0.42546 0.798 0.9054 0.0
C622 C 0.41299 0.77934 0.91464 0.0
C623 C 0.40483 0.77988 0.93202 0.0
C624 C 0.40744 0.759 0.9061 0.0
C625 C 0.43543 0.79846 0.88708 0.0
C626 C 0.39579 0.75229 0.88928 0.0
C627 C 0.3903 0.73306 0.88123 0.0
C628 C 0.39625 0.72007 0.88989 0.0
C629 C 0.40768 0.72669 0.90689 0.0
C630 C 0.41316 0.74598 0.91496 0.0
H631 H 0.44905 0.81402 0.88457 0.0
H632 H 0.44077 0.78701 0.88657 0.0
H633 H 0.4237 0.79452 0.87561 0.0
H634 H 0.3908 0.76188 0.88244 0.0
H635 H 0.38138 0.72841 0.86819 0.0
H636 H 0.60573 0.47373 0.13574 0.0
H637 H 0.63401 0.46711 0.12801 0.0
H638 H 0.59335 0.42043 0.08725 0.0
H639 H 0.56506 0.42734 0.09456 0.0
H640 H 0.63316 0.42926 0.13087 0.0
H641 H 0.64717 0.45708 0.05857 0.0
H642 H 0.63278 0.46353 0.07488 0.0
H643 H 0.62031 0.43855 0.06326 0.0
C644 C 0.60291 0.46234 0.12485 0.0
C645 C 0.58318 0.45117 0.11564 0.0
C646 C 0.61903 0.45846 0.12058 0.0
C647 C 0.61582 0.44342 0.10695 0.0
C648 C 0.59623 0.43231 0.09764 0.0
H649 H 0.68798 0.38296 0.08756 0.0
H650 H 0.66181 0.3919 0.09726 0.0
C651 C 0.58005 0.43616 0.10192 0.0
C652 C 0.63281 0.43896 0.10295 0.0
H653 H 0.66459 0.43952 0.06861 0.0
C654 C 0.6401 0.43155 0.11728 0.0
C655 C 0.64194 0.44219 0.08528 0.0
C656 C 0.63532 0.45094 0.06963 0.0
C657 C 0.65611 0.42695 0.1143 0.0
C658 C 0.66484 0.42965 0.09648 0.0
C659 C 0.65777 0.43737 0.08224 0.0
C660 C 0.6813 0.42451 0.0922 0.0
C661 C 0.66372 0.41951 0.13029 0.0
C662 C 0.70093 0.43989 0.08618 0.0
C663 C 0.71591 0.43483 0.08059 0.0
C664 C 0.71144 0.41425 0.08076 0.0
C665 C 0.69196 0.39897 0.08731 0.0
C666 C 0.677 0.40405 0.09293 0.0
H667 H 0.65928 0.4232 0.14393 0.0
H668 H 0.65652 0.40248 0.1289 0.0
H669 H 0.68105 0.4265 0.13021 0.0
H670 H 0.70453 0.45576 0.08549 0.0
H671 H 0.73074 0.44699 0.07561 0.0
H672 H 0.40318 0.88341 0.52641 0.0
H673 H 0.38589 0.84985 0.54126 0.0
H674 H 0.3983 0.8222 0.49353 0.0
H675 H 0.41567 0.85559 0.47872 0.0
H676 H 0.35118 0.81441 0.52867 0.0
H677 H 0.41823 0.80097 0.53569 0.0
H678 H 0.42164 0.82591 0.53048 0.0
H679 H 0.41404 0.80635 0.51234 0.0
C680 C 0.40234 0.87019 0.51916 0.0
C681 C 0.41095 0.87218 0.50147 0.0
C682 C 0.39252 0.85106 0.52767 0.0
C683 C 0.39114 0.8336 0.51864 0.0
C684 C 0.39972 0.83556 0.50099 0.0
H685 H 0.32319 0.70183 0.5382 0.0
H686 H 0.34364 0.73611 0.52492 0.0
C687 C 0.40963 0.85467 0.49254 0.0
C688 C 0.37961 0.81307 0.52714 0.0
H689 H 0.38413 0.77193 0.54034 0.0
C690 C 0.35844 0.80521 0.53137 0.0
C691 C 0.3891 0.80105 0.53059 0.0
C692 C 0.41206 0.80907 0.52721 0.0
C693 C 0.34638 0.78549 0.53864 0.0
C694 C 0.35581 0.77342 0.54186 0.0
C695 C 0.37697 0.78124 0.53771 0.0
C696 C 0.34397 0.75278 0.54996 0.0
C697 C 0.32355 0.77753 0.54254 0.0
C698 C 0.33773 0.75094 0.56848 0.0
C699 C 0.32618 0.73148 0.57611 0.0
C700 C 0.32062 0.71347 0.56534 0.0
C701 C 0.32716 0.71539 0.54683 0.0
C702 C 0.33885 0.73493 0.53923 0.0
H703 H 0.31764 0.78694 0.5359 0.0
H704 H 0.31372 0.76122 0.5375 0.0
H705 H 0.32162 0.77806 0.55779 0.0
H706 H 0.34177 0.76458 0.57702 0.0
H707 H 0.32146 0.73058 0.59042 0.0
H708 H 0.60739 0.43941 0.663 0.0
H709 H 0.61341 0.41218 0.67408 0.0
H710 H 0.54656 0.37025 0.67527 0.0
H711 H 0.54036 0.39747 0.6643 0.0
H712 H 0.59998 0.38903 0.70652 0.0
H713 H 0.56755 0.33905 0.64251 0.0
H714 H 0.57412 0.36574 0.64342 0.0
H715 H 0.55022 0.34623 0.65331 0.0
C716 C 0.59395 0.4245 0.66589 0.0
C717 C 0.57338 0.42058 0.66271 0.0
C718 C 0.59742 0.40892 0.67209 0.0
C719 C 0.58043 0.38912 0.67515 0.0
C720 C 0.55988 0.38531 0.67257 0.0
H721 H 0.57313 0.27603 0.71175 0.0
H722 H 0.56543 0.30209 0.70036 0.0
C723 C 0.55638 0.40088 0.66634 0.0
C724 C 0.58433 0.37252 0.68103 0.0
H725 H 0.57754 0.32553 0.66753 0.0
C726 C 0.59512 0.37516 0.69799 0.0
C727 C 0.57792 0.35445 0.66986 0.0
C728 C 0.56696 0.35119 0.65118 0.0
C729 C 0.59951 0.36009 0.7042 0.0
C730 C 0.59328 0.34211 0.69295 0.0
C731 C 0.58233 0.33938 0.67607 0.0
C732 C 0.59802 0.32598 0.69856 0.0
C733 C 0.61049 0.36338 0.72288 0.0
C734 C 0.61889 0.33063 0.70072 0.0
C735 C 0.62336 0.31579 0.70721 0.0
C736 C 0.607 0.29601 0.71158 0.0
C737 C 0.58609 0.29114 0.70859 0.0
C738 C 0.58165 0.306 0.7021 0.0
H739 H 0.60949 0.37521 0.73168 0.0
H740 H 0.60365 0.34874 0.7305 0.0
H741 H 0.62734 0.36881 0.72075 0.0
H742 H 0.63174 0.34585 0.69768 0.0
H743 H 0.63964 0.32001 0.70922 0.0
H744 H 0.14667 0.56962 0.84337 0.0
H745 H 0.18024 0.57515 0.85498 0.0
H746 H 0.19613 0.63541 0.87694 0.0
H747 H 0.16191 0.62963 0.8661 0.0
H748 H 0.21703 0.60675 0.84172 0.0
H749 H 0.2165 0.61278 0.9189 0.0
H750 H 0.19272 0.60124 0.90462 0.0
H751 H 0.20913 0.62884 0.90651 0.0
C752 C 0.15687 0.58377 0.85126 0.0
C753 C 0.15148 0.59918 0.85379 0.0
C754 C 0.17619 0.58696 0.85777 0.0
C755 C 0.19063 0.60563 0.86689 0.0
C756 C 0.18507 0.62075 0.87017 0.0
H757 H 0.32528 0.65686 0.88478 0.0
H758 H 0.28986 0.65204 0.88511 0.0
C759 C 0.16561 0.61752 0.86375 0.0
C760 C 0.21229 0.61001 0.8708 0.0
H761 H 0.24878 0.62033 0.90541 0.0
C762 C 0.22393 0.60968 0.85566 0.0
C763 C 0.22131 0.61403 0.88898 0.0
C764 C 0.20927 0.61411 0.90574 0.0
C765 C 0.24427 0.61304 0.85817 0.0
C766 C 0.25316 0.61666 0.87634 0.0
C767 C 0.24179 0.61746 0.89152 0.0
C768 C 0.27411 0.61907 0.87952 0.0
C769 C 0.25616 0.61267 0.84136 0.0
C770 C 0.2768 0.60199 0.87688 0.0
C771 C 0.29692 0.60464 0.8766 0.0
C772 C 0.31475 0.62447 0.87897 0.0
C773 C 0.31191 0.64139 0.88283 0.0
C774 C 0.2917 0.63869 0.88308 0.0
H775 H 0.2487 0.61354 0.82816 0.0
H776 H 0.27262 0.62571 0.84222 0.0
H777 H 0.25657 0.59807 0.84092 0.0
H778 H 0.26333 0.58672 0.87418 0.0
H779 H 0.29848 0.59124 0.87378 0.0
H780 H 0.55763 0.14437 0.04503 0.0
H781 H 0.58589 0.1756 0.06091 0.0
H782 H 0.58984 0.21114 0.0131 0.0
H783 H 0.56127 0.18033 0.99765 0.0
H784 H 0.62484 0.19883 0.05279 0.0
H785 H 0.59004 0.24866 0.05275 0.0
H786 H 0.57465 0.22133 0.04718 0.0
H787 H 0.58929 0.2394 0.02945 0.0
C788 C 0.56439 0.15896 0.0381 0.0
C789 C 0.55711 0.16004 0.02024 0.0
C790 C 0.58049 0.17677 0.04715 0.0
C791 C 0.58967 0.19589 0.03842 0.0
C792 C 0.58251 0.19682 0.02048 0.0
H793 H 0.71358 0.29458 0.03891 0.0
H794 H 0.68151 0.26121 0.03938 0.0
C795 C 0.56625 0.17916 0.01158 0.0
C796 C 0.6078 0.21462 0.04724 0.0
H797 H 0.62836 0.26664 0.05285 0.0
C798 C 0.62545 0.21359 0.05318 0.0
C799 C 0.6085 0.23384 0.0484 0.0
C800 C 0.58947 0.23579 0.04431 0.0
C801 C 0.64424 0.23146 0.05882 0.0
C802 C 0.64568 0.25098 0.05778 0.0
C803 C 0.62753 0.25179 0.05328 0.0
C804 C 0.6661 0.27073 0.05943 0.0
C805 C 0.66237 0.22916 0.0656 0.0
C806 C 0.66816 0.28753 0.07026 0.0
C807 C 0.6864 0.30694 0.06961 0.0
C808 C 0.70301 0.30986 0.05824 0.0
C809 C 0.70122 0.29284 0.04801 0.0
C810 C 0.68289 0.2736 0.0484 0.0
H811 H 0.65661 0.21441 0.07289 0.0
H812 H 0.67132 0.22869 0.05349 0.0
H813 H 0.67315 0.24211 0.07522 0.0
H814 H 0.6554 0.28577 0.07882 0.0
H815 H 0.6873 0.31974 0.07767 0.0
H816 H 0.4479 0.58875 0.18827 0.0
H817 H 0.43059 0.60393 0.20639 0.0
H818 H 0.45103 0.65287 0.16733 0.0
H819 H 0.46814 0.63789 0.14924 0.0
H820 H 0.4514 0.64875 0.22146 0.0
H821 H 0.38471 0.6251 0.17155 0.0
H822 H 0.39948 0.61188 0.17281 0.0
H823 H 0.40979 0.63571 0.16078 0.0
C824 C 0.44862 0.60272 0.18358 0.0
C825 C 0.45943 0.61221 0.16741 0.0
C826 C 0.43881 0.61136 0.19394 0.0
C827 C 0.43944 0.62937 0.18805 0.0
C828 C 0.45028 0.63886 0.17198 0.0
H829 H 0.43946 0.73499 0.21662 0.0
H830 H 0.44559 0.70605 0.21552 0.0
C831 C 0.46018 0.63039 0.16177 0.0
C832 C 0.42909 0.63877 0.19848 0.0
H833 H 0.39367 0.65458 0.19164 0.0
C834 C 0.4384 0.64963 0.21527 0.0
C835 C 0.4119 0.63953 0.19054 0.0
C836 C 0.40072 0.62727 0.17301 0.0
C837 C 0.43214 0.66279 0.22343 0.0
C838 C 0.41645 0.66527 0.21435 0.0
C839 C 0.40584 0.65285 0.19853 0.0
C840 C 0.41304 0.68268 0.21906 0.0
C841 C 0.44296 0.67452 0.24125 0.0
C842 C 0.3927 0.67926 0.2216 0.0
C843 C 0.38908 0.69588 0.22203 0.0
C844 C 0.40573 0.71616 0.21972 0.0
C845 C 0.42625 0.71959 0.21835 0.0
C846 C 0.42983 0.70302 0.21794 0.0
H847 H 0.44786 0.66549 0.2499 0.0
H848 H 0.45735 0.68915 0.23789 0.0
H849 H 0.43266 0.67831 0.24953 0.0
H850 H 0.3795 0.66367 0.22235 0.0
H851 H 0.37308 0.69267 0.22316 0.0
H852 H 0.86934 0.48286 0.35073 0.0
H853 H 0.83529 0.47537 0.36244 0.0
H854 H 0.81366 0.41013 0.35947 0.0
H855 H 0.84758 0.41746 0.34755 0.0
H856 H 0.79902 0.45062 0.3393 0.0
H857 H 0.79071 0.41837 0.40962 0.0
H858 H 0.81596 0.43436 0.39936 0.0
H859 H 0.79994 0.40776 0.39195 0.0
C860 C 0.85746 0.46694 0.35288 0.0
C861 C 0.86105 0.45074 0.34803 0.0
C862 C 0.83809 0.4627 0.35968 0.0
C863 C 0.82205 0.44222 0.36192 0.0
C864 C 0.82599 0.42606 0.35817 0.0
H865 H 0.68734 0.38138 0.37237 0.0
H866 H 0.72419 0.39029 0.37273 0.0
C867 C 0.84537 0.43028 0.35134 0.0
C868 C 0.80044 0.4377 0.36535 0.0
H869 H 0.75992 0.41528 0.39535 0.0
C870 C 0.79053 0.44309 0.35165 0.0
C871 C 0.78938 0.42758 0.38132 0.0
C872 C 0.79953 0.42178 0.39651 0.0
C873 C 0.76969 0.43834 0.3533 0.0
C874 C 0.75862 0.42844 0.36937 0.0
C875 C 0.76851 0.42301 0.38312 0.0
C876 C 0.73661 0.42326 0.37176 0.0
C877 C 0.75953 0.4434 0.33748 0.0
C878 C 0.73147 0.4389 0.3718 0.0
C879 C 0.71049 0.43388 0.37133 0.0
C880 C 0.69426 0.4131 0.37114 0.0
C881 C 0.69948 0.39752 0.3724 0.0
C882 C 0.72051 0.40257 0.37265 0.0
H883 H 0.76812 0.44574 0.32434 0.0
H884 H 0.74299 0.43093 0.33498 0.0
H885 H 0.75963 0.45792 0.34105 0.0
H886 H 0.74369 0.455 0.37157 0.0
H887 H 0.70701 0.44626 0.37069 0.0
H888 H 0.10566 0.60525 0.42718 0.0
H889 H 0.1302 0.61236 0.4533 0.0
H890 H 0.15215 0.57522 0.42609 0.0
H891 H 0.12831 0.5687 0.39963 0.0
H892 H 0.13376 0.58609 0.47703 0.0
H893 H 0.20658 0.62933 0.43733 0.0
H894 H 0.18114 0.62333 0.42822 0.0
H895 H 0.18887 0.60409 0.42742 0.0
C896 C 0.11581 0.5987 0.4267 0.0
C897 C 0.11509 0.58649 0.41125 0.0
C898 C 0.12975 0.60271 0.44167 0.0
C899 C 0.14329 0.59467 0.44145 0.0
C900 C 0.14217 0.58196 0.42635 0.0
H901 H 0.20885 0.57989 0.53426 0.0
H902 H 0.18591 0.57581 0.50785 0.0
C903 C 0.12828 0.57799 0.41136 0.0
C904 C 0.15839 0.59931 0.45715 0.0
H905 H 0.21052 0.61951 0.4678 0.0
C906 C 0.15055 0.5935 0.47504 0.0
C907 C 0.18033 0.60933 0.45457 0.0
C908 C 0.18978 0.61708 0.43588 0.0
C909 C 0.164 0.59688 0.49035 0.0
C910 C 0.18583 0.60593 0.4876 0.0
C911 C 0.19375 0.61233 0.46982 0.0
C912 C 0.2006 0.60852 0.50298 0.0
C913 C 0.15472 0.59086 0.50936 0.0
C914 C 0.21708 0.62824 0.5085 0.0
C915 C 0.23043 0.63065 0.52355 0.0
C916 C 0.22752 0.61336 0.5333 0.0
C917 C 0.21143 0.59358 0.52725 0.0
C918 C 0.19819 0.59121 0.5122 0.0
H919 H 0.13917 0.58981 0.50999 0.0
H920 H 0.15246 0.57545 0.51252 0.0
H921 H 0.1653 0.60212 0.5203 0.0
H922 H 0.2193 0.64179 0.50143 0.0
H923 H 0.24268 0.6461 0.52781 0.0
H924 H 0.55503 0.13279 0.56144 0.0
H925 H 0.56694 0.15282 0.59078 0.0
H926 H 0.61196 0.13289 0.59898 0.0
H927 H 0.60026 0.11295 0.56944 0.0
H928 H 0.5674 0.14118 0.62625 0.0
H929 H 0.64869 0.19514 0.60443 0.0
H930 H 0.62809 0.17795 0.58816 0.0
H931 H 0.64135 0.16841 0.60244 0.0
C932 C 0.56732 0.1325 0.56958 0.0
C933 C 0.57674 0.12132 0.56314 0.0
C934 C 0.57418 0.14404 0.58629 0.0
C935 C 0.59059 0.14465 0.59689 0.0
C936 C 0.59965 0.13306 0.59077 0.0
H937 H 0.64865 0.20219 0.70363 0.0
H938 H 0.63718 0.18172 0.67449 0.0
C939 C 0.59289 0.12161 0.57396 0.0
C940 C 0.59806 0.15739 0.61437 0.0
H941 H 0.64133 0.19748 0.63615 0.0
C942 C 0.58354 0.15353 0.62839 0.0
C943 C 0.61912 0.17357 0.61709 0.0
C944 C 0.63518 0.17919 0.60218 0.0
C945 C 0.58959 0.16524 0.64514 0.0
C946 C 0.61064 0.18127 0.64787 0.0
C947 C 0.62519 0.18512 0.63395 0.0
C948 C 0.61788 0.19412 0.66523 0.0
C949 C 0.57353 0.16023 0.65995 0.0
C950 C 0.61105 0.2081 0.66945 0.0
C951 C 0.61765 0.21994 0.68606 0.0
C952 C 0.63115 0.21791 0.69874 0.0
C953 C 0.63818 0.20407 0.69425 0.0
C954 C 0.63168 0.19237 0.6776 0.0
H955 H 0.55901 0.14511 0.65707 0.0
H956 H 0.58014 0.15992 0.67382 0.0
H957 H 0.5692 0.17241 0.66056 0.0
H958 H 0.60056 0.20979 0.65993 0.0
H959 H 0.61195 0.23044 0.68906 0.0
H960 H 0.44444 0.53785 0.73693 0.0
H961 H 0.43952 0.55523 0.76393 0.0
H962 H 0.47479 0.61387 0.73773 0.0
H963 H 0.47922 0.59657 0.7104 0.0
H964 H 0.46763 0.5889 0.78873 0.0
H965 H 0.41602 0.60668 0.74541 0.0
H966 H 0.42384 0.58853 0.73777 0.0
H967 H 0.44195 0.61582 0.73689 0.0
C968 C 0.45124 0.55446 0.73694 0.0
C969 C 0.46195 0.56579 0.7214 0.0
C970 C 0.44857 0.56438 0.75244 0.0
C971 C 0.45653 0.58576 0.75267 0.0
C972 C 0.46831 0.5973 0.73769 0.0
H973 H 0.44587 0.6597 0.84341 0.0
H974 H 0.46033 0.64558 0.82078 0.0
C975 C 0.47096 0.5874 0.72216 0.0
C976 C 0.45093 0.5956 0.76784 0.0
H977 H 0.4216 0.61818 0.77675 0.0
C978 C 0.4577 0.59546 0.78615 0.0
C979 C 0.43775 0.60387 0.76438 0.0
C980 C 0.42928 0.60364 0.7451 0.0
C981 C 0.45153 0.60335 0.80114 0.0
C982 C 0.43836 0.6116 0.79763 0.0
C983 C 0.43178 0.6119 0.77932 0.0
C984 C 0.43023 0.61909 0.81274 0.0
C985 C 0.45854 0.60226 0.82066 0.0
C986 C 0.40858 0.6088 0.81573 0.0
C987 C 0.40029 0.61681 0.82855 0.0
C988 C 0.4135 0.63536 0.83857 0.0
C989 C 0.43529 0.64535 0.83594 0.0
C990 C 0.4436 0.63727 0.82309 0.0
H991 H 0.4659 0.59249 0.82129 0.0
H992 H 0.4702 0.61806 0.82591 0.0
H993 H 0.44501 0.59599 0.83009 0.0
H994 H 0.39802 0.59479 0.80779 0.0
H995 H 0.38345 0.60878 0.83011 0.0
H996 H 0.87906 0.46749 0.88473 0.0
H997 H 0.85749 0.46147 0.91195 0.0
H998 H 0.89824 0.44703 0.94362 0.0
H999 H 0.92053 0.45408 0.91676 0.0
H1000 H 0.83588 0.42535 0.92829 0.0
H1001 H 0.89049 0.48384 0.98044 0.0
H1002 H 0.89624 0.48513 0.95601 0.0
H1003 H 0.90074 0.46857 0.97076 0.0
C1004 C 0.88381 0.46362 0.89762 0.0
C1005 C 0.90155 0.46126 0.89853 0.0
C1006 C 0.87136 0.46004 0.91314 0.0
C1007 C 0.87638 0.45403 0.92989 0.0
C1008 C 0.8943 0.45208 0.93098 0.0
H1009 H 0.78777 0.37921 0.01141 0.0
H1010 H 0.81437 0.39392 0.98773 0.0
C1011 C 0.90685 0.4558 0.9155 0.0
C1012 C 0.86177 0.44787 0.94557 0.0
H1013 H 0.8589 0.45561 0.99218 0.0
C1014 C 0.84089 0.43212 0.94221 0.0
C1015 C 0.86824 0.45687 0.96369 0.0
C1016 C 0.8901 0.47469 0.96793 0.0
C1017 C 0.82644 0.42472 0.95655 0.0
C1018 C 0.8332 0.43292 0.97486 0.0
C1019 C 0.85388 0.44912 0.97817 0.0
C1020 C 0.8189 0.4247 0.99068 0.0
C1021 C 0.80403 0.40825 0.95191 0.0
C1022 C 0.81342 0.43739 0.00082 0.0
C1023 C 0.79837 0.42907 0.01459 0.0
C1024 C 0.78861 0.40793 0.01842 0.0
C1025 C 0.79491 0.39552 0.0088 0.0
C1026 C 0.81001 0.40387 0.99515 0.0
H1027 H 0.80009 0.40788 0.93689 0.0
H1028 H 0.80182 0.3929 0.95523 0.0
H1029 H 0.79282 0.41075 0.96015 0.0
H1030 H 0.82023 0.45356 0.99764 0.0
H1031 H 0.7939 0.43905 0.02178 0.0
H1032 H 0.40749 0.92269 0.08121 0.0
H1033 H 0.40359 0.90495 0.11033 0.0
H1034 H 0.45224 0.89225 0.09435 0.0
H1035 H 0.4563 0.91008 0.06528 0.0
H1036 H 0.39082 0.86379 0.1086 0.0
H1037 H 0.46538 0.90659 0.14984 0.0
H1038 H 0.45847 0.9182 0.13135 0.0
H1039 H 0.46886 0.9016 0.12601 0.0
C1040 C 0.41766 0.9165 0.08412 0.0
C1041 C 0.43206 0.91758 0.07095 0.0
C1042 C 0.4155 0.90649 0.10078 0.0
C1043 C 0.42772 0.89743 0.10455 0.0
C1044 C 0.44298 0.89954 0.09191 0.0
H1045 H 0.41605 0.79858 0.17056 0.0
H1046 H 0.42837 0.82889 0.15129 0.0
C1047 C 0.44523 0.90965 0.07527 0.0
C1048 C 0.42216 0.88302 0.12 0.0
H1049 H 0.44186 0.87159 0.15823 0.0
C1050 C 0.40187 0.86567 0.11963 0.0
C1051 C 0.43673 0.8854 0.13419 0.0
C1052 C 0.45853 0.90406 0.13552 0.0
C1053 C 0.39588 0.85028 0.13273 0.0
C1054 C 0.41047 0.85253 0.14685 0.0
C1055 C 0.43071 0.87001 0.14742 0.0
C1056 C 0.40506 0.83628 0.16053 0.0
C1057 C 0.37425 0.83133 0.13085 0.0
C1058 C 0.38835 0.83089 0.17254 0.0
C1059 C 0.38113 0.81349 0.18338 0.0
C1060 C 0.39071 0.80137 0.18256 0.0
C1061 C 0.40831 0.80758 0.17142 0.0
C1062 C 0.41541 0.82491 0.16045 0.0
H1063 H 0.36693 0.82983 0.11688 0.0
H1064 H 0.37488 0.81708 0.13331 0.0
H1065 H 0.36394 0.83243 0.14136 0.0
H1066 H 0.38041 0.83973 0.17301 0.0
H1067 H 0.36771 0.80924 0.19203 0.0
H1068 H 0.55382 0.44024 0.21409 0.0
H1069 H 0.55849 0.42795 0.24391 0.0
H1070 H 0.50369 0.42765 0.26449 0.0
H1071 H 0.49885 0.44011 0.23441 0.0
H1072 H 0.54815 0.44934 0.28768 0.0
H1073 H 0.51314 0.367 0.26479 0.0
H1074 H 0.52957 0.38573 0.24827 0.0
H1075 H 0.50536 0.38411 0.2547 0.0
C1076 C 0.54284 0.43776 0.22499 0.0
C1077 C 0.52606 0.44128 0.222 0.0
C1078 C 0.54546 0.43062 0.24195 0.0
C1079 C 0.5314 0.42689 0.25626 0.0
C1080 C 0.51464 0.43044 0.25349 0.0
H1081 H 0.55616 0.36621 0.34794 0.0
H1082 H 0.53568 0.37702 0.32909 0.0
C1083 C 0.51188 0.43746 0.23637 0.0
C1084 C 0.53475 0.41937 0.27401 0.0
H1085 H 0.53681 0.3784 0.29112 0.0
C1086 C 0.5452 0.43369 0.28873 0.0
C1087 C 0.53066 0.39892 0.27533 0.0
C1088 C 0.51891 0.38293 0.26001 0.0
C1089 C 0.55314 0.42844 0.3042 0.0
C1090 C 0.55077 0.40852 0.30469 0.0
C1091 C 0.53875 0.39372 0.29067 0.0
C1092 C 0.56284 0.40351 0.31806 0.0
C1093 C 0.56471 0.44451 0.3195 0.0
C1094 C 0.58486 0.41482 0.31808 0.0
C1095 C 0.59656 0.40865 0.3287 0.0
C1096 C 0.58647 0.39097 0.33947 0.0
C1097 C 0.5644 0.37992 0.3398 0.0
C1098 C 0.55267 0.3861 0.3291 0.0
H1099 H 0.55889 0.45557 0.32054 0.0
H1100 H 0.56305 0.43729 0.33317 0.0
H1101 H 0.58164 0.45345 0.31632 0.0
H1102 H 0.59303 0.42795 0.30925 0.0
H1103 H 0.6135 0.41736 0.32793 0.0
H1104 H 0.41439 0.911 0.37099 0.0
H1105 H 0.40868 0.88811 0.34403 0.0
H1106 H 0.45112 0.87089 0.36849 0.0
H1107 H 0.45635 0.89315 0.39575 0.0
H1108 H 0.43697 0.88785 0.31898 0.0
H1109 H 0.3977 0.8151 0.35772 0.0
H1110 H 0.40197 0.83938 0.36737 0.0
H1111 H 0.4231 0.83396 0.36716 0.0
C1112 C 0.42243 0.90227 0.37066 0.0
C1113 C 0.43573 0.90381 0.38557 0.0
C1114 C 0.41923 0.88929 0.35522 0.0
C1115 C 0.42918 0.87754 0.35445 0.0
C1116 C 0.44297 0.87952 0.369 0.0
H1117 H 0.44161 0.8157 0.25643 0.0
H1118 H 0.4476 0.83738 0.28424 0.0
C1119 C 0.44617 0.89248 0.38445 0.0
C1120 C 0.42512 0.86321 0.33838 0.0
H1121 H 0.40615 0.81241 0.32639 0.0
C1122 C 0.43021 0.87135 0.32058 0.0
C1123 C 0.41598 0.84166 0.34051 0.0
C1124 C 0.40917 0.83193 0.35918 0.0
C1125 C 0.42674 0.85855 0.30483 0.0
C1126 C 0.41829 0.8371 0.30704 0.0
C1127 C 0.41285 0.8289 0.3248 0.0
C1128 C 0.41477 0.82293 0.29099 0.0
C1129 C 0.43182 0.86806 0.28594 0.0
C1130 C 0.3944 0.807 0.28605 0.0
C1131 C 0.3909 0.79442 0.27021 0.0
C1132 C 0.40774 0.79753 0.25907 0.0
C1133 C 0.42824 0.81298 0.26456 0.0
C1134 C 0.4317 0.82549 0.2804 0.0
H1135 H 0.43296 0.88341 0.28611 0.0
H1136 H 0.44719 0.87022 0.28165 0.0
H1137 H 0.41974 0.85786 0.27532 0.0
H1138 H 0.38114 0.80469 0.29416 0.0
H1139 H 0.37492 0.78265 0.26644 0.0
H1140 H 0.60785 0.50055 0.54478 0.0
H1141 H 0.61581 0.49015 0.51481 0.0
H1142 H 0.56743 0.42707 0.52306 0.0
H1143 H 0.55928 0.43735 0.5528 0.0
H1144 H 0.62919 0.46275 0.50789 0.0
H1145 H 0.55294 0.43623 0.47108 0.0
H1146 H 0.56024 0.45134 0.4926 0.0
H1147 H 0.55017 0.42393 0.49283 0.0
C1148 C 0.59885 0.4845 0.54011 0.0
C1149 C 0.58279 0.4698 0.55101 0.0
C1150 C 0.60338 0.47859 0.52301 0.0
C1151 C 0.59195 0.45791 0.51657 0.0
C1152 C 0.57604 0.4432 0.52751 0.0
H1153 H 0.60222 0.38773 0.42391 0.0
H1154 H 0.59486 0.39889 0.45375 0.0
C1155 C 0.57141 0.4491 0.54451 0.0
C1156 C 0.59719 0.45148 0.49878 0.0
H1157 H 0.57619 0.42694 0.45681 0.0
C1158 C 0.61766 0.45506 0.49667 0.0
C1159 C 0.58209 0.44144 0.48416 0.0
C1160 C 0.5602 0.43818 0.48517 0.0
C1161 C 0.6233 0.44852 0.48045 0.0
C1162 C 0.60811 0.43821 0.46602 0.0
C1163 C 0.5877 0.43469 0.46805 0.0
C1164 C 0.61327 0.43151 0.44842 0.0
C1165 C 0.64536 0.45238 0.47889 0.0
C1166 C 0.62601 0.44622 0.43566 0.0
C1167 C 0.63013 0.43995 0.4186 0.0
C1168 C 0.62162 0.41882 0.41403 0.0
C1169 C 0.60908 0.40412 0.42702 0.0
C1170 C 0.60482 0.41043 0.44404 0.0
H1171 H 0.65415 0.45731 0.49245 0.0
H1172 H 0.6451 0.43823 0.47357 0.0
H1173 H 0.65397 0.46474 0.46883 0.0
H1174 H 0.6325 0.46256 0.43878 0.0
H1175 H 0.63989 0.45169 0.40896 0.0
H1176 H 0.1538 0.60804 0.74836 0.0
H1177 H 0.17301 0.61284 0.71974 0.0
H1178 H 0.11469 0.58524 0.68777 0.0
H1179 H 0.09551 0.58131 0.71652 0.0
H1180 H 0.17129 0.58529 0.69574 0.0
H1181 H 0.14904 0.63619 0.6591 0.0
H1182 H 0.14339 0.63009 0.68321 0.0
H1183 H 0.12715 0.61177 0.66514 0.0
C1184 C 0.14514 0.60315 0.73519 0.0
C1185 C 0.12325 0.59437 0.73454 0.0
C1186 C 0.15608 0.60585 0.71885 0.0
C1187 C 0.14534 0.5996 0.70155 0.0
C1188 C 0.12339 0.59065 0.70088 0.0
H1189 H 0.22074 0.59653 0.60875 0.0
H1190 H 0.19232 0.58516 0.63083 0.0
C1191 C 0.11243 0.5883 0.71727 0.0
C1192 C 0.1574 0.60215 0.68446 0.0
H1193 H 0.17006 0.626 0.64281 0.0
C1194 C 0.17098 0.59413 0.68412 0.0
C1195 C 0.15699 0.61374 0.66935 0.0
C1196 C 0.14352 0.62361 0.66922 0.0
C1197 C 0.18481 0.5981 0.66953 0.0
C1198 C 0.18442 0.60969 0.65439 0.0
C1199 C 0.17025 0.61702 0.65437 0.0
C1200 C 0.19995 0.6161 0.6394 0.0
C1201 C 0.20046 0.5908 0.67107 0.0
C1202 C 0.21292 0.63719 0.63606 0.0
C1203 C 0.22878 0.64368 0.6231 0.0
C1204 C 0.23218 0.62921 0.6134 0.0
C1205 C 0.21874 0.60806 0.61624 0.0
C1206 C 0.20255 0.60154 0.62894 0.0
H1207 H 0.20223 0.58696 0.68557 0.0
H1208 H 0.19495 0.57662 0.6622 0.0
H1209 H 0.21615 0.60273 0.66635 0.0
H1210 H 0.2112 0.64873 0.6439 0.0
H1211 H 0.23888 0.6601 0.6212 0.0
H1212 H 0.51125 0.13632 0.89923 0.0
H1213 H 0.52605 0.15329 0.87016 0.0
H1214 H 0.56023 0.12078 0.86554 0.0
H1215 H 0.54503 0.10324 0.89451 0.0
H1216 H 0.57027 0.17857 0.86623 0.0
H1217 H 0.53373 0.11496 0.81241 0.0
H1218 H 0.52243 0.11323 0.83493 0.0
H1219 H 0.54495 0.11022 0.83275 0.0
C1220 C 0.52148 0.13234 0.89182 0.0
C1221 C 0.52694 0.1184 0.89917 0.0
C1222 C 0.53001 0.14215 0.87526 0.0
C1223 C 0.54407 0.13814 0.86567 0.0
C1224 C 0.54916 0.12384 0.87263 0.0
H1225 H 0.63471 0.22099 0.78781 0.0
H1226 H 0.61686 0.1949 0.81116 0.0
C1227 C 0.54064 0.11401 0.88926 0.0
C1228 C 0.55485 0.15048 0.84941 0.0
H1229 H 0.56007 0.14777 0.80246 0.0
C1230 C 0.56808 0.17185 0.85229 0.0
C1231 C 0.55184 0.14159 0.83129 0.0
C1232 C 0.53736 0.11876 0.82751 0.0
C1233 C 0.57841 0.18463 0.83749 0.0
C1234 C 0.57555 0.17577 0.81939 0.0
C1235 C 0.5623 0.1544 0.81643 0.0
C1236 C 0.5858 0.18884 0.80341 0.0
C1237 C 0.59206 0.20762 0.84123 0.0
C1238 C 0.57408 0.1935 0.791 0.0
C1239 C 0.58421 0.20844 0.77766 0.0
C1240 C 0.60621 0.21886 0.77653 0.0
C1241 C 0.61775 0.21326 0.78832 0.0
C1242 C 0.60761 0.19838 0.80167 0.0
H1243 H 0.58999 0.21234 0.85544 0.0
H1244 H 0.6088 0.21214 0.83985 0.0
H1245 H 0.58844 0.21628 0.83091 0.0
H1246 H 0.55721 0.18628 0.79222 0.0
H1247 H 0.57489 0.21235 0.76872 0.0
H1248 H 0.42885 0.5758 0.06028 0.0
H1249 H 0.41315 0.58119 0.0324 0.0
H1250 H 0.47199 0.60469 0.00455 0.0
H1251 H 0.48752 0.59842 0.03201 0.0
H1252 H 0.42401 0.61692 0.01519 0.0
H1253 H 0.4312 0.56267 0.96653 0.0
H1254 H 0.43494 0.56261 0.99137 0.0
H1255 H 0.4558 0.58119 0.97749 0.0
C1256 C 0.43835 0.58171 0.0481 0.0
C1257 C 0.45944 0.58655 0.04837 0.0
C1258 C 0.42939 0.58496 0.03223 0.0
C1259 C 0.44131 0.59309 0.01631 0.0
C1260 C 0.46237 0.59802 0.01654 0.0
H1261 H 0.4151 0.65179 0.92522 0.0
H1262 H 0.42771 0.6443 0.95397 0.0
C1263 C 0.4713 0.59466 0.03236 0.0
C1264 C 0.4319 0.597 -0.00034 0.0
H1265 H 0.42272 0.58638 0.95299 0.0
C1266 C 0.4236 0.61015 0.0016 0.0
C1267 C 0.43111 0.58792 0.982 0.0
C1268 C 0.43854 0.57264 0.97921 0.0
C1269 C 0.41489 0.61479 0.98628 0.0
C1270 C 0.41494 0.60643 0.96847 0.0
C1271 C 0.42289 0.59297 0.96661 0.0
C1272 C 0.40668 0.6112 0.95154 0.0
C1273 C 0.40542 0.62833 0.98939 0.0
C1274 C 0.39091 0.59508 0.94044 0.0
C1275 C 0.38389 0.59927 0.92389 0.0
C1276 C 0.39246 0.61972 0.91807 0.0
C1277 C 0.40803 0.63589 0.92936 0.0
C1278 C 0.41519 0.63165 0.94586 0.0
H1279 H 0.40105 0.62835 0.00413 0.0
H1280 H 0.41711 0.64446 0.98602 0.0
H1281 H 0.39122 0.62317 0.98035 0.0
H1282 H 0.38415 0.57919 0.94453 0.0
H1283 H 0.37183 0.58644 0.91559 0.0
H1284 H 0.88062 0.46097 0.23404 0.0
H1285 H 0.85879 0.44947 0.20557 0.0
H1286 H 0.87895 0.40559 0.19376 0.0
H1287 H 0.90076 0.41694 0.22236 0.0
H1288 H 0.86889 0.44941 0.16914 0.0
H1289 H 0.81549 0.36921 0.1909 0.0
H1290 H 0.8336 0.38941 0.20695 0.0
H1291 H 0.84271 0.37652 0.19157 0.0
C1292 C 0.88059 0.44902 0.22529 0.0
C1293 C 0.89239 0.43983 0.23047 0.0
C1294 C 0.86801 0.44238 0.20908 0.0
C1295 C 0.86693 0.42641 0.19772 0.0
C1296 C 0.87912 0.41757 0.20257 0.0
H1297 H 0.80434 0.3679 0.09288 0.0
H1298 H 0.82575 0.37952 0.12156 0.0
C1299 C 0.89163 0.42412 0.21887 0.0
C1300 C 0.85313 0.41916 0.18075 0.0
H1301 H 0.8119 0.37651 0.15951 0.0
C1302 C 0.85636 0.4335 0.16707 0.0
C1303 C 0.83673 0.3984 0.17812 0.0
C1304 C 0.83175 0.38252 0.19273 0.0
C1305 C 0.8439 0.42755 0.15067 0.0
C1306 C 0.82768 0.40677 0.14798 0.0
C1307 C 0.82439 0.39244 0.16165 0.0
C1308 C 0.81421 0.39951 0.13087 0.0
C1309 C 0.84846 0.44342 0.13615 0.0
C1310 C 0.80036 0.40665 0.12677 0.0
C1311 C 0.78799 0.39999 0.11038 0.0
C1312 C 0.7893 0.38607 0.09779 0.0
C1313 C 0.80297 0.37869 0.10217 0.0
C1314 C 0.81522 0.38529 0.11858 0.0
H1315 H 0.86403 0.45758 0.13862 0.0
H1316 H 0.84801 0.43692 0.12202 0.0
H1317 H 0.83626 0.44793 0.13649 0.0
H1318 H 0.79915 0.41741 0.13624 0.0
H1319 H 0.77762 0.40595 0.10749 0.0
loop_
_geom_bond_atom_site_label_1
_geom_bond_atom_site_label_2
_geom_bond_distance
_geom_bond_site_symmetry_2
_ccdc_geom_bond_type
H0 C27 0.929 . S
N1 C26 1.433 . S
N1 C32 1.435 . S
N1 C38 1.423 . S
H2 C28 0.930 . S
H3 C31 0.931 . S
H4 C30 0.929 . S
H5 C33 0.930 . S
H6 C34 0.932 . S
H7 C37 0.929 . S
H8 C36 0.931 . S
H9 C39 0.929 . S
H10 C43 0.932 . S
H11 C40 0.931 . S
H12 C42 0.929 . S
H13 C45 0.929 . S
H14 C46 0.930 . S
H15 C48 0.929 . S
H16 C49 0.931 . S
H17 C51 0.930 . S
H18 C52 0.932 . S
H19 C54 0.931 . S
H20 C55 0.929 . S
H21 C57 0.929 . S
H22 C58 0.931 . S
H23 C60 0.929 . S
N24 C44 1.433 . S
N24 C50 1.435 . S
N24 C56 1.423 . S
H25 C61 0.932 . S
C26 N1 1.433 . S
C26 C27 1.363 . S
C26 C31 1.370 . S
C27 H0 0.929 . S
C27 C26 1.363 . S
C27 C28 1.385 . S
C28 H2 0.930 . S
C28 C27 1.385 . S
C28 C29 1.357 . S
C29 C28 1.357 . S
C29 C30 1.406 . S
C30 H4 0.929 . S
C30 C29 1.406 . S
C30 C31 1.391 . S
C31 H3 0.931 . S
C31 C26 1.370 . S
C31 C30 1.391 . S
C32 N1 1.435 . S
C32 C33 1.358 . S
C32 C37 1.371 . S
C33 H5 0.930 . S
C33 C32 1.358 . S
C33 C34 1.405 . S
C34 H6 0.932 . S
C34 C33 1.405 . S
C34 C35 1.383 . S
C35 C34 1.383 . S
C35 C36 1.393 . S
C36 H8 0.931 . S
C36 C35 1.393 . S
C36 C37 1.382 . S
C37 H7 0.929 . S
C37 C32 1.371 . S
C37 C36 1.382 . S
C38 N1 1.423 . S
C38 C39 1.362 . S
C38 C43 1.388 . S
C39 H9 0.929 . S
C39 C38 1.362 . S
C39 C40 1.376 . S
C40 H11 0.931 . S
C40 C39 1.376 . S
C40 C41 1.396 . S
C41 C40 1.396 . S
C41 C42 1.348 . S
C41 C59 1.472 1_455 S
C42 H12 0.929 . S
C42 C41 1.348 . S
C42 C43 1.443 . S
C43 H10 0.932 . S
C43 C38 1.388 . S
C43 C42 1.443 . S
C44 N24 1.433 . S
C44 C45 1.363 . S
C44 C49 1.370 . S
C45 H13 0.929 . S
C45 C44 1.363 . S
C45 C46 1.385 . S
C46 H14 0.930 . S
C46 C45 1.385 . S
C46 C47 1.357 . S
C47 C46 1.357 . S
C47 C48 1.406 . S
C48 H15 0.929 . S
C48 C47 1.406 . S
C48 C49 1.391 . S
C49 H16 0.931 . S
C49 C44 1.370 . S
C49 C48 1.391 . S
C50 N24 1.435 . S
C50 C51 1.358 . S
C50 C55 1.371 . S
C51 H17 0.930 . S
C51 C50 1.358 . S
C51 C52 1.405 . S
C52 H18 0.932 . S
C52 C51 1.405 . S
C52 C53 1.383 . S
C53 C52 1.383 . S
C53 C54 1.393 . S
C54 H19 0.931 . S
C54 C53 1.393 . S
C54 C55 1.382 . S
C55 H20 0.929 . S
C55 C50 1.371 . S
C55 C54 1.382 . S
C56 N24 1.423 . S
C56 C57 1.362 . S
C56 C61 1.388 . S
C57 H21 0.929 . S
C57 C56 1.362 . S
C57 C58 1.376 . S
C58 H22 0.931 . S
C58 C57 1.376 . S
C58 C59 1.396 . S
C59 C41 1.472 1_655 S
C59 C58 1.396 . S
C59 C60 1.348 . S
C60 H23 0.929 . S
C60 C59 1.348 . S
C60 C61 1.443 . S
C61 H25 0.932 . S
C61 C56 1.388 . S
C61 C60 1.443 . S
H62 C89 0.929 . S
N63 C88 1.433 . S
N63 C94 1.435 . S
N63 C100 1.423 . S
H64 C90 0.930 . S
H65 C93 0.931 . S
H66 C92 0.929 . S
H67 C95 0.930 . S
H68 C96 0.932 . S
H69 C99 0.929 . S
H70 C98 0.931 . S
H71 C101 0.929 . S
H72 C105 0.932 . S
H73 C102 0.931 . S
H74 C104 0.928 1_545 S
H75 C107 0.929 . S
H76 C108 0.930 . S
H77 C110 0.929 . S
H78 C111 0.931 . S
H79 C113 0.930 . S
H80 C114 0.932 . S
H81 C116 0.931 . S
H82 C117 0.929 . S
H83 C119 0.929 . S
H84 C120 0.931 . S
H85 C122 0.929 . S
N86 C106 1.433 . S
N86 C112 1.435 . S
N86 C118 1.423 . S
H87 C123 0.932 . S
C88 N63 1.433 . S
C88 C89 1.363 . S
C88 C93 1.370 . S
C89 H62 0.929 . S
C89 C88 1.363 . S
C89 C90 1.385 . S
C90 H64 0.930 . S
C90 C89 1.385 . S
C90 C91 1.357 . S
C91 C90 1.357 . S
C91 C92 1.406 . S
C92 H66 0.929 . S
C92 C91 1.406 . S
C92 C93 1.391 . S
C93 H65 0.931 . S
C93 C88 1.370 . S
C93 C92 1.391 . S
C94 N63 1.435 . S
C94 C95 1.358 . S
C94 C99 1.371 . S
C95 H67 0.930 . S
C95 C94 1.358 . S
C95 C96 1.405 . S
C96 H68 0.932 . S
C96 C95 1.405 . S
C96 C97 1.383 . S
C97 C96 1.383 . S
C97 C98 1.393 . S
C98 H70 0.931 . S
C98 C97 1.393 . S
C98 C99 1.382 . S
C99 H69 0.929 . S
C99 C94 1.371 . S
C99 C98 1.382 . S
C100 N63 1.423 . S
C100 C101 1.362 . S
C100 C105 1.388 . S
C101 H71 0.929 . S
C101 C100 1.362 . S
C101 C102 1.376 . S
C102 H73 0.931 . S
C102 C101 1.376 . S
C102 C103 1.396 1_565 S
C103 C102 1.396 1_545 S
C103 C104 1.348 1_545 S
C103 C121 1.472 . S
C104 H74 0.928 1_565 S
C104 C103 1.348 1_565 S
C104 C105 1.444 . S
C105 H72 0.932 . S
C105 C100 1.388 . S
C105 C104 1.444 . S
C106 N86 1.433 . S
C106 C107 1.363 . S
C106 C111 1.370 . S
C107 H75 0.929 . S
C107 C106 1.363 . S
C107 C108 1.385 . S
C108 H76 0.930 . S
C108 C107 1.385 . S
C108 C109 1.357 . S
C109 C108 1.357 . S
C109 C110 1.406 . S
C110 H77 0.929 . S
C110 C109 1.406 . S
C110 C111 1.391 . S
C111 H78 0.931 . S
C111 C106 1.370 . S
C111 C110 1.391 . S
C112 N86 1.435 . S
C112 C113 1.358 . S
C112 C117 1.371 . S
C113 H79 0.930 . S
C113 C112 1.358 . S
C113 C114 1.405 . S
C114 H80 0.932 . S
C114 C113 1.405 . S
C114 C115 1.383 . S
C115 C114 1.383 . S
C115 C116 1.393 . S
C116 H81 0.931 . S
C116 C115 1.393 . S
C116 C117 1.382 . S
C117 H82 0.929 . S
C117 C112 1.371 . S
C117 C116 1.382 . S
C118 N86 1.423 . S
C118 C119 1.362 . S
C118 C123 1.388 . S
C119 H83 0.929 . S
C119 C118 1.362 . S
C119 C120 1.376 . S
C120 H84 0.931 . S
C120 C119 1.376 . S
C120 C121 1.396 . S
C121 C103 1.472 . S
C121 C120 1.396 . S
C121 C122 1.348 . S
C122 H85 0.929 . S
C122 C121 1.348 . S
C122 C123 1.443 . S
C123 H87 0.932 . S
C123 C118 1.388 . S
C123 C122 1.443 . S
H124 C151 0.929 . S
N125 C150 1.433 . S
N125 C156 1.435 . S
N125 C162 1.423 . S
H126 C152 0.930 . S
H127 C155 0.931 . S
H128 C154 0.929 . S
H129 C157 0.930 . S
H130 C158 0.932 . S
H131 C161 0.929 . S
H132 C160 0.931 . S
H133 C163 0.929 . S
H134 C167 0.932 . S
H135 C164 0.931 . S
H136 C166 0.929 . S
H137 C169 0.929 . S
H138 C170 0.930 . S
H139 C172 0.929 . S
H140 C173 0.931 . S
H141 C175 0.930 . S
H142 C176 0.932 . S
H143 C178 0.931 . S
H144 C179 0.929 . S
H145 C181 0.929 . S
H146 C182 0.931 . S
H147 C184 0.929 . S
N148 C168 1.433 . S
N148 C174 1.435 . S
N148 C180 1.423 . S
H149 C185 0.932 . S
C150 N125 1.433 . S
C150 C151 1.363 . S
C150 C155 1.370 . S
C151 H124 0.929 . S
C151 C150 1.363 . S
C151 C152 1.385 . S
C152 H126 0.930 . S
C152 C151 1.385 . S
C152 C153 1.357 . S
C153 C152 1.357 . S
C153 C154 1.406 . S
C154 H128 0.929 . S
C154 C153 1.406 . S
C154 C155 1.391 . S
C155 H127 0.931 . S
C155 C150 1.370 . S
C155 C154 1.391 . S
C156 N125 1.435 . S
C156 C157 1.358 . S
C156 C161 1.371 . S
C157 H129 0.930 . S
C157 C156 1.358 . S
C157 C158 1.405 . S
C158 H130 0.932 . S
C158 C157 1.405 . S
C158 C159 1.383 . S
C159 C158 1.383 . S
C159 C160 1.393 . S
C160 H132 0.931 . S
C160 C159 1.393 . S
C160 C161 1.382 . S
C161 H131 0.929 . S
C161 C156 1.371 . S
C161 C160 1.382 . S
C162 N125 1.423 . S
C162 C163 1.362 . S
C162 C167 1.388 . S
C163 H133 0.929 . S
C163 C162 1.362 . S
C163 C164 1.376 . S
C164 H135 0.931 . S
C164 C163 1.376 . S
C164 C165 1.396 . S
C165 C164 1.396 . S
C165 C166 1.348 . S
C165 C183 1.472 . S
C166 H136 0.929 . S
C166 C165 1.348 . S
C166 C167 1.443 . S
C167 H134 0.932 . S
C167 C162 1.388 . S
C167 C166 1.443 . S
C168 N148 1.433 . S
C168 C169 1.363 . S
C168 C173 1.370 . S
C169 H137 0.929 . S
C169 C168 1.363 . S
C169 C170 1.385 . S
C170 H138 0.930 . S
C170 C169 1.385 . S
C170 C171 1.357 . S
C171 C170 1.357 . S
C171 C172 1.406 . S
C172 H139 0.929 . S
C172 C171 1.406 . S
C172 C173 1.391 . S
C173 H140 0.931 . S
C173 C168 1.370 . S
C173 C172 1.391 . S
C174 N148 1.435 . S
C174 C175 1.358 . S
C174 C179 1.371 . S
C175 H141 0.930 . S
C175 C174 1.358 . S
C175 C176 1.405 . S
C176 H142 0.932 . S
C176 C175 1.405 . S
C176 C177 1.383 . S
C177 C176 1.383 . S
C177 C178 1.393 . S
C178 H143 0.931 . S
C178 C177 1.393 . S
C178 C179 1.382 . S
C179 H144 0.929 . S
C179 C174 1.371 . S
C179 C178 1.382 . S
C180 N148 1.423 . S
C180 C181 1.362 . S
C180 C185 1.388 . S
C181 H145 0.929 . S
C181 C180 1.362 . S
C181 C182 1.376 . S
C182 H146 0.931 . S
C182 C181 1.376 . S
C182 C183 1.396 . S
C183 C165 1.472 . S
C183 C182 1.396 . S
C183 C184 1.348 . S
C184 H147 0.929 . S
C184 C183 1.348 . S
C184 C185 1.443 . S
C185 H149 0.932 . S
C185 C180 1.388 . S
C185 C184 1.443 . S
H186 C213 0.929 . S
N187 C212 1.433 . S
N187 C218 1.435 . S
N187 C224 1.423 . S
H188 C214 0.930 . S
H189 C217 0.931 . S
H190 C216 0.929 . S
H191 C219 0.930 . S
H192 C220 0.932 . S
H193 C223 0.929 . S
H194 C222 0.931 . S
H195 C225 0.929 . S
H196 C229 0.932 . S
H197 C226 0.931 . S
H198 C228 0.929 . S
H199 C231 0.929 . S
H200 C232 0.930 . S
H201 C234 0.929 . S
H202 C235 0.931 . S
H203 C237 0.930 . S
H204 C238 0.932 . S
H205 C240 0.931 . S
H206 C241 0.929 . S
H207 C243 0.929 . S
H208 C244 0.931 . S
H209 C246 0.929 . S
N210 C230 1.433 . S
N210 C236 1.435 . S
N210 C242 1.423 . S
H211 C247 0.932 . S
C212 N187 1.433 . S
C212 C213 1.363 . S
C212 C217 1.370 . S
C213 H186 0.929 . S
C213 C212 1.363 . S
C213 C214 1.385 . S
C214 H188 0.930 . S
C214 C213 1.385 . S
C214 C215 1.357 . S
C215 C214 1.357 . S
C215 C216 1.406 . S
C216 H190 0.929 . S
C216 C215 1.406 . S
C216 C217 1.391 . S
C217 H189 0.931 . S
C217 C212 1.370 . S
C217 C216 1.391 . S
C218 N187 1.435 . S
C218 C219 1.358 . S
C218 C223 1.371 . S
C219 H191 0.930 . S
C219 C218 1.358 . S
C219 C220 1.405 . S
C220 H192 0.932 . S
C220 C219 1.405 . S
C220 C221 1.383 . S
C221 C220 1.383 . S
C221 C222 1.393 . S
C222 H194 0.931 . S
C222 C221 1.393 . S
C222 C223 1.382 . S
C223 H193 0.929 . S
C223 C218 1.371 . S
C223 C222 1.382 . S
C224 N187 1.423 . S
C224 C225 1.362 . S
C224 C229 1.388 . S
C225 H195 0.929 . S
C225 C224 1.362 . S
C225 C226 1.376 . S
C226 H197 0.931 . S
C226 C225 1.376 . S
C226 C227 1.396 . S
C227 C226 1.396 . S
C227 C228 1.348 . S
C227 C245 1.472 1_455 S
C228 H198 0.929 . S
C228 C227 1.348 . S
C228 C229 1.443 . S
C229 H196 0.932 . S
C229 C224 1.388 . S
C229 C228 1.443 . S
C230 N210 1.433 . S
C230 C231 1.363 . S
C230 C235 1.370 . S
C231 H199 0.929 . S
C231 C230 1.363 . S
C231 C232 1.385 . S
C232 H200 0.930 . S
C232 C231 1.385 . S
C232 C233 1.357 . S
C233 C232 1.357 . S
C233 C234 1.406 . S
C234 H201 0.929 . S
C234 C233 1.406 . S
C234 C235 1.391 . S
C235 H202 0.931 . S
C235 C230 1.370 . S
C235 C234 1.391 . S
C236 N210 1.435 . S
C236 C237 1.358 . S
C236 C241 1.371 . S
C237 H203 0.930 . S
C237 C236 1.358 . S
C237 C238 1.405 . S
C238 H204 0.932 . S
C238 C237 1.405 . S
C238 C239 1.383 . S
C239 C238 1.383 . S
C239 C240 1.393 . S
C240 H205 0.931 . S
C240 C239 1.393 . S
C240 C241 1.382 . S
C241 H206 0.929 . S
C241 C236 1.371 . S
C241 C240 1.382 . S
C242 N210 1.423 . S
C242 C243 1.362 . S
C242 C247 1.388 . S
C243 H207 0.929 . S
C243 C242 1.362 . S
C243 C244 1.376 . S
C244 H208 0.931 . S
C244 C243 1.376 . S
C244 C245 1.396 . S
C245 C227 1.472 1_655 S
C245 C244 1.396 . S
C245 C246 1.348 . S
C246 H209 0.929 . S
C246 C245 1.348 . S
C246 C247 1.443 . S
C247 H211 0.932 . S
C247 C242 1.388 . S
C247 C246 1.443 . S
H248 C275 0.929 . S
N249 C274 1.433 . S
N249 C280 1.435 . S
N249 C286 1.423 . S
H250 C276 0.930 . S
H251 C279 0.931 . S
H252 C278 0.929 . S
H253 C281 0.930 . S
H254 C282 0.932 . S
H255 C285 0.929 . S
H256 C284 0.931 . S
H257 C287 0.929 . S
H258 C291 0.932 . S
H259 C288 0.931 . S
H260 C290 0.929 . S
H261 C293 0.929 . S
H262 C294 0.930 . S
H263 C296 0.929 . S
H264 C297 0.931 . S
H265 C299 0.930 1_554 S
H266 C300 0.932 . S
H267 C302 0.931 . S
H268 C303 0.929 . S
H269 C305 0.967 . S
H270 C306 0.956 1_545 S
H271 C308 0.929 . S
N272 C292 1.450 . S
N272 C298 1.425 1_554 S
N272 C304 1.416 1_554 S
H273 C309 0.932 . S
C274 N249 1.433 . S
C274 C275 1.363 . S
C274 C279 1.370 . S
C275 H248 0.929 . S
C275 C274 1.363 . S
C275 C276 1.385 . S
C276 H250 0.930 . S
C276 C275 1.385 . S
C276 C277 1.357 1_556 S
C277 C276 1.357 1_554 S
C277 C278 1.406 . S
C278 H252 0.929 . S
C278 C277 1.406 . S
C278 C279 1.391 1_554 S
C279 H251 0.931 . S
C279 C274 1.370 . S
C279 C278 1.391 1_556 S
C280 N249 1.435 . S
C280 C281 1.358 . S
C280 C285 1.371 . S
C281 H253 0.930 . S
C281 C280 1.358 . S
C281 C282 1.405 . S
C282 H254 0.932 . S
C282 C281 1.405 . S
C282 C283 1.383 . S
C283 C282 1.383 . S
C283 C284 1.393 . S
C284 H256 0.931 . S
C284 C283 1.393 . S
C284 C285 1.382 . S
C285 H255 0.929 . S
C285 C280 1.371 . S
C285 C284 1.382 . S
C286 N249 1.423 . S
C286 C287 1.362 . S
C286 C291 1.388 . S
C287 H257 0.929 . S
C287 C286 1.362 . S
C287 C288 1.376 . S
C288 H259 0.931 . S
C288 C287 1.376 . S
C288 C289 1.396 . S
C289 C288 1.396 . S
C289 C290 1.348 . S
C289 C307 1.472 . S
C290 H260 0.929 . S
C290 C289 1.348 . S
C290 C291 1.443 . S
C291 H258 0.932 . S
C291 C286 1.388 . S
C291 C290 1.443 . S
C292 N272 1.450 . S
C292 C293 1.363 . S
C292 C297 1.370 . S
C293 H261 0.929 . S
C293 C292 1.363 . S
C293 C294 1.385 . S
C294 H262 0.930 . S
C294 C293 1.385 . S
C294 C295 1.357 . S
C295 C294 1.357 . S
C295 C296 1.406 . S
C296 H263 0.929 . S
C296 C295 1.406 . S
C296 C297 1.391 . S
C297 H264 0.931 . S
C297 C292 1.370 . S
C297 C296 1.391 . S
C298 N272 1.425 1_556 S
C298 C299 1.358 . S
C298 C303 1.371 . S
C299 H265 0.930 1_556 S
C299 C298 1.358 . S
C299 C300 1.405 . S
C300 H266 0.932 . S
C300 C299 1.405 . S
C300 C301 1.383 . S
C301 C300 1.383 . S
C301 C302 1.393 . S
C302 H267 0.931 . S
C302 C301 1.393 . S
C302 C303 1.382 . S
C303 H268 0.929 . S
C303 C298 1.371 . S
C303 C302 1.382 . S
C304 N272 1.416 1_556 S
C304 C305 1.344 1_556 S
C304 C309 1.388 . S
C305 H269 0.967 . S
C305 C304 1.344 1_554 S
C305 C306 1.359 1_554 S
C306 H270 0.956 1_565 S
C306 C305 1.359 1_556 S
C306 C307 1.396 1_565 S
C307 C289 1.472 . S
C307 C306 1.396 1_545 S
C307 C308 1.348 1_545 S
C308 H271 0.929 . S
C308 C307 1.348 1_565 S
C308 C309 1.443 . S
C309 H273 0.932 . S
C309 C304 1.388 . S
C309 C308 1.443 . S
H310 C337 0.929 . S
N311 C336 1.433 . S
N311 C342 1.435 . S
N311 C348 1.423 . S
H312 C338 0.930 . S
H313 C341 0.931 . S
H314 C340 0.929 . S
H315 C343 0.930 . S
H316 C344 0.932 . S
H317 C347 0.929 . S
H318 C346 0.931 . S
H319 C349 0.929 . S
H320 C353 0.932 . S
H321 C350 0.931 . S
H322 C352 0.929 . S
H323 C355 0.929 . S
H324 C356 0.930 . S
H325 C358 0.929 . S
H326 C359 0.931 . S
H327 C361 0.930 . S
H328 C362 0.932 . S
H329 C364 0.931 . S
H330 C365 0.929 . S
H331 C367 0.929 . S
H332 C368 0.931 . S
H333 C370 0.929 . S
N334 C354 1.433 . S
N334 C360 1.435 . S
N334 C366 1.423 . S
H335 C371 0.932 . S
C336 N311 1.433 . S
C336 C337 1.363 . S
C336 C341 1.370 . S
C337 H310 0.929 . S
C337 C336 1.363 . S
C337 C338 1.385 . S
C338 H312 0.930 . S
C338 C337 1.385 . S
C338 C339 1.357 . S
C339 C338 1.357 . S
C339 C340 1.406 . S
C340 H314 0.929 . S
C340 C339 1.406 . S
C340 C341 1.391 . S
C341 H313 0.931 . S
C341 C336 1.370 . S
C341 C340 1.391 . S
C342 N311 1.435 . S
C342 C343 1.358 . S
C342 C347 1.371 . S
C343 H315 0.930 . S
C343 C342 1.358 . S
C343 C344 1.405 . S
C344 H316 0.932 . S
C344 C343 1.405 . S
C344 C345 1.383 . S
C345 C344 1.383 . S
C345 C346 1.393 . S
C346 H318 0.931 . S
C346 C345 1.393 . S
C346 C347 1.382 . S
C347 H317 0.929 . S
C347 C342 1.371 . S
C347 C346 1.382 . S
C348 N311 1.423 . S
C348 C349 1.362 . S
C348 C353 1.388 . S
C349 H319 0.929 . S
C349 C348 1.362 . S
C349 C350 1.376 . S
C350 H321 0.931 . S
C350 C349 1.376 . S
C350 C351 1.396 . S
C351 C350 1.396 . S
C351 C352 1.348 . S
C351 C369 1.472 . S
C352 H322 0.929 . S
C352 C351 1.348 . S
C352 C353 1.443 . S
C353 H320 0.932 . S
C353 C348 1.388 . S
C353 C352 1.443 . S
C354 N334 1.433 . S
C354 C355 1.363 . S
C354 C359 1.370 . S
C355 H323 0.929 . S
C355 C354 1.363 . S
C355 C356 1.385 . S
C356 H324 0.930 . S
C356 C355 1.385 . S
C356 C357 1.357 . S
C357 C356 1.357 . S
C357 C358 1.406 . S
C358 H325 0.929 . S
C358 C357 1.406 . S
C358 C359 1.391 . S
C359 H326 0.931 . S
C359 C354 1.370 . S
C359 C358 1.391 . S
C360 N334 1.435 . S
C360 C361 1.358 . S
C360 C365 1.371 . S
C361 H327 0.930 . S
C361 C360 1.358 . S
C361 C362 1.405 . S
C362 H328 0.932 . S
C362 C361 1.405 . S
C362 C363 1.383 . S
C363 C362 1.383 . S
C363 C364 1.393 . S
C364 H329 0.931 . S
C364 C363 1.393 . S
C364 C365 1.382 . S
C365 H330 0.929 . S
C365 C360 1.371 . S
C365 C364 1.382 . S
C366 N334 1.423 . S
C366 C367 1.362 . S
C366 C371 1.388 . S
C367 H331 0.929 . S
C367 C366 1.362 . S
C367 C368 1.376 . S
C368 H332 0.931 . S
C368 C367 1.376 . S
C368 C369 1.396 . S
C369 C351 1.472 . S
C369 C368 1.396 . S
C369 C370 1.348 . S
C370 H333 0.929 . S
C370 C369 1.348 . S
C370 C371 1.443 . S
C371 H335 0.932 . S
C371 C366 1.388 . S
C371 C370 1.443 . S
Mg372 O373 2.028 . S
Mg372 O379 1.986 . S
Mg372 O381 2.114 . S
Mg372 O382 2.251 . S
Mg372 O385 2.010 . S
O373 Mg372 2.028 . S
O373 C376 1.250 . S
O374 Mg375 2.028 . S
O374 C376 1.248 . S
Mg375 O374 2.028 . S
Mg375 O380 2.032 . S
Mg375 O382 2.079 . S
C376 O373 1.250 . S
C376 O374 1.248 . S
C377 O378 1.264 . S
C377 O385 1.249 . S
O378 C377 1.264 . S
O379 Mg372 1.986 . S
O379 C383 1.246 . S
O380 Mg375 2.032 . S
O380 C383 1.259 . S
O381 Mg372 2.114 . S
O381 C384 1.252 . S
O382 Mg372 2.251 . S
O382 Mg375 2.079 . S
O382 C384 1.273 . S
C383 O379 1.246 . S
C383 O380 1.259 . S
C384 O381 1.252 . S
C384 O382 1.273 . S
O385 Mg372 2.010 . S
O385 C377 1.249 . S
Mg386 O387 2.028 . S
Mg386 O393 1.986 . S
Mg386 O395 2.114 . S
Mg386 O396 2.251 . S
Mg386 O399 2.010 . S
O387 Mg386 2.028 . S
O387 C390 1.250 . S
O388 Mg389 2.028 . S
O388 C390 1.248 . S
Mg389 O388 2.028 . S
Mg389 O394 2.032 . S
Mg389 O396 2.079 . S
C390 O387 1.250 . S
C390 O388 1.248 . S
C391 O392 1.264 . S
C391 O399 1.249 . S
O392 C391 1.264 . S
O393 Mg386 1.986 . S
O393 C397 1.246 . S
O394 Mg389 2.032 . S
O394 C397 1.259 . S
O395 Mg386 2.114 . S
O395 C398 1.252 . S
O396 Mg386 2.251 . S
O396 Mg389 2.079 . S
O396 C398 1.273 . S
C397 O393 1.246 . S
C397 O394 1.259 . S
C398 O395 1.252 . S
C398 O396 1.273 . S
O399 Mg386 2.010 . S
O399 C391 1.249 . S
Mg400 O401 2.028 . S
Mg400 O407 1.986 . S
Mg400 O409 2.114 . S
Mg400 O410 2.251 . S
Mg400 O413 2.010 . S
O401 Mg400 2.028 . S
O401 C404 1.250 . S
O402 Mg403 2.028 . S
O402 C404 1.248 . S
Mg403 O402 2.028 . S
Mg403 O408 2.032 . S
Mg403 O410 2.079 . S
C404 O401 1.250 . S
C404 O402 1.248 . S
C405 O406 1.264 . S
C405 O413 1.249 . S
O406 C405 1.264 . S
O407 Mg400 1.986 . S
O407 C411 1.246 . S
O408 Mg403 2.032 . S
O408 C411 1.259 . S
O409 Mg400 2.114 . S
O409 C412 1.252 . S
O410 Mg400 2.251 . S
O410 Mg403 2.079 . S
O410 C412 1.273 . S
C411 O407 1.246 . S
C411 O408 1.259 . S
C412 O409 1.252 . S
C412 O410 1.273 . S
O413 Mg400 2.010 . S
O413 C405 1.249 . S
Mg414 O415 2.028 . S
Mg414 O421 1.986 . S
Mg414 O423 2.114 . S
Mg414 O424 2.251 . S
Mg414 O427 2.010 . S
O415 Mg414 2.028 . S
O415 C418 1.250 . S
O416 Mg417 2.028 . S
O416 C418 1.248 . S
Mg417 O416 2.028 . S
Mg417 O422 2.032 . S
Mg417 O424 2.079 . S
C418 O415 1.250 . S
C418 O416 1.248 . S
C419 O420 1.264 . S
C419 O427 1.249 . S
O420 C419 1.264 . S
O421 Mg414 1.986 . S
O421 C425 1.246 . S
O422 Mg417 2.032 . S
O422 C425 1.259 . S
O423 Mg414 2.114 . S
O423 C426 1.252 . S
O424 Mg414 2.251 . S
O424 Mg417 2.079 . S
O424 C426 1.273 . S
C425 O421 1.246 . S
C425 O422 1.259 . S
C426 O423 1.252 . S
C426 O424 1.273 . S
O427 Mg414 2.010 . S
O427 C419 1.249 . S
Mg428 O429 2.028 . S
Mg428 O435 1.986 . S
Mg428 O437 2.114 . S
Mg428 O438 2.251 . S
Mg428 O441 2.010 . S
O429 Mg428 2.028 . S
O429 C432 1.250 . S
O430 Mg431 2.028 . S
O430 C432 1.248 . S
Mg431 O430 2.028 . S
Mg431 O436 2.032 . S
Mg431 O438 2.079 . S
C432 O429 1.250 . S
C432 O430 1.248 . S
C433 O434 1.264 . S
C433 O441 1.249 . S
O434 C433 1.264 . S
O435 Mg428 1.986 . S
O435 C439 1.246 . S
O436 Mg431 2.032 . S
O436 C439 1.259 . S
O437 Mg428 2.114 . S
O437 C440 1.252 . S
O438 Mg428 2.251 . S
O438 Mg431 2.079 . S
O438 C440 1.273 . S
C439 O435 1.246 . S
C439 O436 1.259 . S
C440 O437 1.252 . S
C440 O438 1.273 . S
O441 Mg428 2.010 . S
O441 C433 1.249 . S
Mg442 O443 2.028 . S
Mg442 O449 1.986 . S
Mg442 O451 2.114 . S
Mg442 O452 2.251 . S
Mg442 O455 2.010 . S
O443 Mg442 2.028 . S
O443 C446 1.250 . S
O444 Mg445 2.028 . S
O444 C446 1.248 . S
Mg445 O444 2.028 . S
Mg445 O450 2.032 . S
Mg445 O452 2.079 . S
C446 O443 1.250 . S
C446 O444 1.248 . S
C447 O448 1.264 . S
C447 O455 1.249 . S
O448 C447 1.264 . S
O449 Mg442 1.986 . S
O449 C453 1.246 . S
O450 Mg445 2.032 . S
O450 C453 1.259 . S
O451 Mg442 2.114 . S
O451 C454 1.252 . S
O452 Mg442 2.251 . S
O452 Mg445 2.079 . S
O452 C454 1.273 . S
C453 O449 1.246 . S
C453 O450 1.259 . S
C454 O451 1.252 . S
C454 O452 1.273 . S
O455 Mg442 2.010 . S
O455 C447 1.249 . S
H456 C464 0.929 . S
H457 C466 0.930 . S
H458 C468 0.930 . S
H459 C471 0.929 . S
H460 C474 0.930 . S
H461 C476 0.960 . S
H462 C476 0.960 . S
H463 C476 0.960 . S
C464 H456 0.929 . S
C464 C465 1.377 . S
C464 C466 1.384 . S
C465 C464 1.377 . S
C465 C471 1.390 . S
C466 H457 0.930 . S
C466 C464 1.384 . S
C466 C467 1.372 . S
C467 C466 1.372 . S
C467 C468 1.400 . S
C467 C472 1.490 . S
C468 H458 0.930 . S
C468 C467 1.400 . S
C468 C471 1.386 . S
H469 C485 0.930 . S
H470 C486 0.931 . S
C471 H459 0.929 . S
C471 C465 1.390 . S
C471 C468 1.386 . S
C472 C467 1.490 . S
C472 C474 1.395 . S
C472 C475 1.403 . S
H473 C479 0.930 . S
C474 H460 0.930 . S
C474 C472 1.395 . S
C474 C477 1.403 . S
C475 C472 1.403 . S
C475 C476 1.524 . S
C475 C479 1.400 . S
C476 H461 0.960 . S
C476 H462 0.960 . S
C476 H463 0.960 . S
C476 C475 1.524 . S
C477 C474 1.403 . S
C477 C478 1.392 . S
C477 C481 1.495 . S
C478 C477 1.392 . S
C478 C479 1.385 . S
C478 C480 1.478 . S
C479 H473 0.930 . S
C479 C475 1.400 . S
C479 C478 1.385 . S
C480 C478 1.478 . S
C480 C482 1.381 . S
C480 C486 1.383 . S
C481 C477 1.495 . S
C481 H487 0.959 . S
C481 H488 0.961 . S
C481 H489 0.960 . S
C482 C480 1.381 . S
C482 C483 1.394 . S
C482 H490 0.930 . S
C483 C482 1.394 . S
C483 C484 1.383 . S
C483 H491 0.929 . S
C484 C483 1.383 . S
C484 C485 1.377 . S
C485 H469 0.930 . S
C485 C484 1.377 . S
C485 C486 1.379 . S
C486 H470 0.931 . S
C486 C480 1.383 . S
C486 C485 1.379 . S
H487 C481 0.959 . S
H488 C481 0.961 . S
H489 C481 0.960 . S
H490 C482 0.930 . S
H491 C483 0.929 . S
H492 C500 0.929 . S
H493 C502 0.930 . S
H494 C504 0.930 . S
H495 C507 0.929 . S
H496 C510 0.930 . S
H497 C512 0.960 . S
H498 C512 0.960 . S
H499 C512 0.960 . S
C500 H492 0.929 . S
C500 C501 1.377 . S
C500 C502 1.384 . S
C501 C500 1.377 . S
C501 C507 1.390 . S
C502 H493 0.930 . S
C502 C500 1.384 . S
C502 C503 1.372 . S
C503 C502 1.372 . S
C503 C504 1.400 . S
C503 C508 1.490 . S
C504 H494 0.930 . S
C504 C503 1.400 . S
C504 C507 1.386 . S
H505 C521 0.930 . S
H506 C522 0.931 . S
C507 H495 0.929 . S
C507 C501 1.390 . S
C507 C504 1.386 . S
C508 C503 1.490 . S
C508 C510 1.395 . S
C508 C511 1.403 . S
H509 C515 0.930 . S
C510 H496 0.930 . S
C510 C508 1.395 . S
C510 C513 1.403 . S
C511 C508 1.403 . S
C511 C512 1.524 . S
C511 C515 1.400 . S
C512 H497 0.960 . S
C512 H498 0.960 . S
C512 H499 0.960 . S
C512 C511 1.524 . S
C513 C510 1.403 . S
C513 C514 1.392 . S
C513 C517 1.495 . S
C514 C513 1.392 . S
C514 C515 1.385 . S
C514 C516 1.478 . S
C515 H509 0.930 . S
C515 C511 1.400 . S
C515 C514 1.385 . S
C516 C514 1.478 . S
C516 C518 1.381 . S
C516 C522 1.383 . S
C517 C513 1.495 . S
C517 H523 0.959 . S
C517 H524 0.961 . S
C517 H525 0.960 . S
C518 C516 1.381 . S
C518 C519 1.394 . S
C518 H526 0.930 . S
C519 C518 1.394 . S
C519 C520 1.383 . S
C519 H527 0.929 . S
C520 C519 1.383 . S
C520 C521 1.377 . S
C521 H505 0.930 . S
C521 C520 1.377 . S
C521 C522 1.379 . S
C522 H506 0.931 . S
C522 C516 1.383 . S
C522 C521 1.379 . S
H523 C517 0.959 . S
H524 C517 0.961 . S
H525 C517 0.960 . S
H526 C518 0.930 . S
H527 C519 0.929 . S
H528 C536 0.929 . S
H529 C538 0.930 . S
H530 C540 0.930 . S
H531 C543 0.929 . S
H532 C546 0.930 . S
H533 C548 0.960 . S
H534 C548 0.960 . S
H535 C548 0.960 . S
C536 H528 0.929 . S
C536 C537 1.377 . S
C536 C538 1.384 . S
C537 C536 1.377 . S
C537 C543 1.390 . S
C538 H529 0.930 . S
C538 C536 1.384 . S
C538 C539 1.372 . S
C539 C538 1.372 . S
C539 C540 1.400 . S
C539 C544 1.490 . S
C540 H530 0.930 . S
C540 C539 1.400 . S
C540 C543 1.386 . S
H541 C557 0.930 . S
H542 C558 0.931 . S
C543 H531 0.929 . S
C543 C537 1.390 . S
C543 C540 1.386 . S
C544 C539 1.490 . S
C544 C546 1.395 . S
C544 C547 1.403 . S
H545 C551 0.930 . S
C546 H532 0.930 . S
C546 C544 1.395 . S
C546 C549 1.403 . S
C547 C544 1.403 . S
C547 C548 1.524 . S
C547 C551 1.400 . S
C548 H533 0.960 . S
C548 H534 0.960 . S
C548 H535 0.960 . S
C548 C547 1.524 . S
C549 C546 1.403 . S
C549 C550 1.392 . S
C549 C553 1.495 . S
C550 C549 1.392 . S
C550 C551 1.385 . S
C550 C552 1.478 . S
C551 H545 0.930 . S
C551 C547 1.400 . S
C551 C550 1.385 . S
C552 C550 1.478 . S
C552 C554 1.381 . S
C552 C558 1.383 . S
C553 C549 1.495 . S
C553 H559 0.959 . S
C553 H560 0.961 . S
C553 H561 0.960 . S
C554 C552 1.381 . S
C554 C555 1.394 . S
C554 H562 0.930 . S
C555 C554 1.394 . S
C555 C556 1.383 . S
C555 H563 0.929 . S
C556 C555 1.383 . S
C556 C557 1.377 . S
C557 H541 0.930 . S
C557 C556 1.377 . S
C557 C558 1.379 . S
C558 H542 0.931 . S
C558 C552 1.383 . S
C558 C557 1.379 . S
H559 C553 0.959 . S
H560 C553 0.961 . S
H561 C553 0.960 . S
H562 C554 0.930 . S
H563 C555 0.929 . S
H564 C572 0.929 . S
H565 C574 0.930 . S
H566 C576 0.930 . S
H567 C579 0.929 . S
H568 C582 0.930 . S
H569 C584 0.960 . S
H570 C584 0.960 . S
H571 C584 0.960 . S
C572 H564 0.929 . S
C572 C573 1.377 . S
C572 C574 1.384 . S
C573 C572 1.377 . S
C573 C579 1.390 . S
C574 H565 0.930 . S
C574 C572 1.384 . S
C574 C575 1.372 . S
C575 C574 1.372 . S
C575 C576 1.400 . S
C575 C580 1.490 . S
C576 H566 0.930 . S
C576 C575 1.400 . S
C576 C579 1.386 . S
H577 C593 0.930 . S
H578 C594 0.931 . S
C579 H567 0.929 . S
C579 C573 1.390 . S
C579 C576 1.386 . S
C580 C575 1.490 . S
C580 C582 1.395 . S
C580 C583 1.403 . S
H581 C587 0.930 . S
C582 H568 0.930 . S
C582 C580 1.395 . S
C582 C585 1.403 . S
C583 C580 1.403 . S
C583 C584 1.524 . S
C583 C587 1.400 . S
C584 H569 0.960 . S
C584 H570 0.960 . S
C584 H571 0.960 . S
C584 C583 1.524 . S
C585 C582 1.403 . S
C585 C586 1.392 . S
C585 C589 1.495 . S
C586 C585 1.392 . S
C586 C587 1.385 . S
C586 C588 1.478 . S
C587 H581 0.930 . S
C587 C583 1.400 . S
C587 C586 1.385 . S
C588 C586 1.478 . S
C588 C590 1.381 . S
C588 C594 1.383 . S
C589 C585 1.495 . S
C589 H595 0.959 . S
C589 H596 0.961 . S
C589 H597 0.960 . S
C590 C588 1.381 . S
C590 C591 1.394 . S
C590 H598 0.930 . S
C591 C590 1.394 . S
C591 C592 1.383 . S
C591 H599 0.929 . S
C592 C591 1.383 . S
C592 C593 1.377 . S
C593 H577 0.930 . S
C593 C592 1.377 . S
C593 C594 1.379 . S
C594 H578 0.931 . S
C594 C588 1.383 . S
C594 C593 1.379 . S
H595 C589 0.959 . S
H596 C589 0.961 . S
H597 C589 0.960 . S
H598 C590 0.930 . S
H599 C591 0.929 . S
H600 C608 0.929 . S
H601 C610 0.930 . S
H602 C612 0.930 . S
H603 C615 0.929 . S
H604 C618 0.930 . S
H605 C620 0.960 . S
H606 C620 0.960 . S
H607 C620 0.960 . S
C608 H600 0.929 . S
C608 C609 1.377 . S
C608 C610 1.384 . S
C609 C608 1.377 . S
C609 C615 1.390 . S
C610 H601 0.930 . S
C610 C608 1.384 . S
C610 C611 1.372 . S
C611 C610 1.372 . S
C611 C612 1.400 . S
C611 C616 1.490 . S
C612 H602 0.930 . S
C612 C611 1.400 . S
C612 C615 1.386 . S
H613 C629 0.930 . S
H614 C630 0.931 . S
C615 H603 0.929 . S
C615 C609 1.390 . S
C615 C612 1.386 . S
C616 C611 1.490 . S
C616 C618 1.395 . S
C616 C619 1.403 . S
H617 C623 0.930 . S
C618 H604 0.930 . S
C618 C616 1.395 . S
C618 C621 1.403 . S
C619 C616 1.403 . S
C619 C620 1.524 . S
C619 C623 1.400 . S
C620 H605 0.960 . S
C620 H606 0.960 . S
C620 H607 0.960 . S
C620 C619 1.524 . S
C621 C618 1.403 . S
C621 C622 1.392 . S
C621 C625 1.495 . S
C622 C621 1.392 . S
C622 C623 1.385 . S
C622 C624 1.478 . S
C623 H617 0.930 . S
C623 C619 1.400 . S
C623 C622 1.385 . S
C624 C622 1.478 . S
C624 C626 1.381 . S
C624 C630 1.383 . S
C625 C621 1.495 . S
C625 H631 0.959 . S
C625 H632 0.961 . S
C625 H633 0.960 . S
C626 C624 1.381 . S
C626 C627 1.394 . S
C626 H634 0.930 . S
C627 C626 1.394 . S
C627 C628 1.383 . S
C627 H635 0.929 . S
C628 C627 1.383 . S
C628 C629 1.377 . S
C629 H613 0.930 . S
C629 C628 1.377 . S
C629 C630 1.379 . S
C630 H614 0.931 . S
C630 C624 1.383 . S
C630 C629 1.379 . S
H631 C625 0.959 . S
H632 C625 0.961 . S
H633 C625 0.960 . S
H634 C626 0.930 . S
H635 C627 0.929 . S
H636 C644 0.929 . S
H637 C646 0.930 . S
H638 C648 0.930 . S
H639 C651 0.929 . S
H640 C654 0.930 . S
H641 C656 0.960 . S
H642 C656 0.960 . S
H643 C656 0.960 . S
C644 H636 0.929 . S
C644 C645 1.377 . S
C644 C646 1.384 . S
C645 C644 1.377 . S
C645 C651 1.390 . S
C646 H637 0.930 . S
C646 C644 1.384 . S
C646 C647 1.372 . S
C647 C646 1.372 . S
C647 C648 1.400 . S
C647 C652 1.490 . S
C648 H638 0.930 . S
C648 C647 1.400 . S
C648 C651 1.386 . S
H649 C665 0.930 . S
H650 C666 0.931 . S
C651 H639 0.929 . S
C651 C645 1.390 . S
C651 C648 1.386 . S
C652 C647 1.490 . S
C652 C654 1.395 . S
C652 C655 1.403 . S
H653 C659 0.930 . S
C654 H640 0.930 . S
C654 C652 1.395 . S
C654 C657 1.403 . S
C655 C652 1.403 . S
C655 C656 1.524 . S
C655 C659 1.400 . S
C656 H641 0.960 . S
C656 H642 0.960 . S
C656 H643 0.960 . S
C656 C655 1.524 . S
C657 C654 1.403 . S
C657 C658 1.392 . S
C657 C661 1.495 . S
C658 C657 1.392 . S
C658 C659 1.385 . S
C658 C660 1.478 . S
C659 H653 0.930 . S
C659 C655 1.400 . S
C659 C658 1.385 . S
C660 C658 1.478 . S
C660 C662 1.381 . S
C660 C666 1.383 . S
C661 C657 1.495 . S
C661 H667 0.959 . S
C661 H668 0.961 . S
C661 H669 0.960 . S
C662 C660 1.381 . S
C662 C663 1.394 . S
C662 H670 0.930 . S
C663 C662 1.394 . S
C663 C664 1.383 . S
C663 H671 0.929 . S
C664 C663 1.383 . S
C664 C665 1.377 . S
C665 H649 0.930 . S
C665 C664 1.377 . S
C665 C666 1.379 . S
C666 H650 0.931 . S
C666 C660 1.383 . S
C666 C665 1.379 . S
H667 C661 0.959 . S
H668 C661 0.961 . S
H669 C661 0.960 . S
H670 C662 0.930 . S
H671 C663 0.929 . S
H672 C680 0.929 . S
H673 C682 0.930 . S
H674 C684 0.930 . S
H675 C687 0.929 . S
H676 C690 0.930 . S
H677 C692 0.960 . S
H678 C692 0.960 . S
H679 C692 0.960 . S
C680 H672 0.929 . S
C680 C681 1.377 . S
C680 C682 1.384 . S
C681 C680 1.377 . S
C681 C687 1.390 . S
C682 H673 0.930 . S
C682 C680 1.384 . S
C682 C683 1.372 . S
C683 C682 1.372 . S
C683 C684 1.400 . S
C683 C688 1.490 . S
C684 H674 0.930 . S
C684 C683 1.400 . S
C684 C687 1.386 . S
H685 C701 0.930 . S
H686 C702 0.931 . S
C687 H675 0.929 . S
C687 C681 1.390 . S
C687 C684 1.386 . S
C688 C683 1.490 . S
C688 C690 1.395 . S
C688 C691 1.403 . S
H689 C695 0.930 . S
C690 H676 0.930 . S
C690 C688 1.395 . S
C690 C693 1.403 . S
C691 C688 1.403 . S
C691 C692 1.524 . S
C691 C695 1.400 . S
C692 H677 0.960 . S
C692 H678 0.960 . S
C692 H679 0.960 . S
C692 C691 1.524 . S
C693 C690 1.403 . S
C693 C694 1.392 . S
C693 C697 1.495 . S
C694 C693 1.392 . S
C694 C695 1.385 . S
C694 C696 1.478 . S
C695 H689 0.930 . S
C695 C691 1.400 . S
C695 C694 1.385 . S
C696 C694 1.478 . S
C696 C698 1.381 . S
C696 C702 1.383 . S
C697 C693 1.495 . S
C697 H703 0.959 . S
C697 H704 0.961 . S
C697 H705 0.960 . S
C698 C696 1.381 . S
C698 C699 1.394 . S
C698 H706 0.930 . S
C699 C698 1.394 . S
C699 C700 1.383 . S
C699 H707 0.929 . S
C700 C699 1.383 . S
C700 C701 1.377 . S
C701 H685 0.930 . S
C701 C700 1.377 . S
C701 C702 1.379 . S
C702 H686 0.931 . S
C702 C696 1.383 . S
C702 C701 1.379 . S
H703 C697 0.959 . S
H704 C697 0.961 . S
H705 C697 0.960 . S
H706 C698 0.930 . S
H707 C699 0.929 . S
H708 C716 0.929 . S
H709 C718 0.930 . S
H710 C720 0.930 . S
H711 C723 0.929 . S
H712 C726 0.930 . S
H713 C728 0.960 . S
H714 C728 0.960 . S
H715 C728 0.960 . S
C716 H708 0.929 . S
C716 C717 1.377 . S
C716 C718 1.384 . S
C717 C716 1.377 . S
C717 C723 1.390 . S
C718 H709 0.930 . S
C718 C716 1.384 . S
C718 C719 1.372 . S
C719 C718 1.372 . S
C719 C720 1.400 . S
C719 C724 1.490 . S
C720 H710 0.930 . S
C720 C719 1.400 . S
C720 C723 1.386 . S
H721 C737 0.930 . S
H722 C738 0.931 . S
C723 H711 0.929 . S
C723 C717 1.390 . S
C723 C720 1.386 . S
C724 C719 1.490 . S
C724 C726 1.395 . S
C724 C727 1.403 . S
H725 C731 0.930 . S
C726 H712 0.930 . S
C726 C724 1.395 . S
C726 C729 1.403 . S
C727 C724 1.403 . S
C727 C728 1.524 . S
C727 C731 1.400 . S
C728 H713 0.960 . S
C728 H714 0.960 . S
C728 H715 0.960 . S
C728 C727 1.524 . S
C729 C726 1.403 . S
C729 C730 1.392 . S
C729 C733 1.495 . S
C730 C729 1.392 . S
C730 C731 1.385 . S
C730 C732 1.478 . S
C731 H725 0.930 . S
C731 C727 1.400 . S
C731 C730 1.385 . S
C732 C730 1.478 . S
C732 C734 1.381 . S
C732 C738 1.383 . S
C733 C729 1.495 . S
C733 H739 0.959 . S
C733 H740 0.961 . S
C733 H741 0.960 . S
C734 C732 1.381 . S
C734 C735 1.394 . S
C734 H742 0.930 . S
C735 C734 1.394 . S
C735 C736 1.383 . S
C735 H743 0.929 . S
C736 C735 1.383 . S
C736 C737 1.377 . S
C737 H721 0.930 . S
C737 C736 1.377 . S
C737 C738 1.379 . S
C738 H722 0.931 . S
C738 C732 1.383 . S
C738 C737 1.379 . S
H739 C733 0.959 . S
H740 C733 0.961 . S
H741 C733 0.960 . S
H742 C734 0.930 . S
H743 C735 0.929 . S
H744 C752 0.929 . S
H745 C754 0.930 . S
H746 C756 0.930 . S
H747 C759 0.929 . S
H748 C762 0.930 . S
H749 C764 0.960 . S
H750 C764 0.960 . S
H751 C764 0.960 . S
C752 H744 0.929 . S
C752 C753 1.377 . S
C752 C754 1.384 . S
C753 C752 1.377 . S
C753 C759 1.390 . S
C754 H745 0.930 . S
C754 C752 1.384 . S
C754 C755 1.372 . S
C755 C754 1.372 . S
C755 C756 1.400 . S
C755 C760 1.490 . S
C756 H746 0.930 . S
C756 C755 1.400 . S
C756 C759 1.386 . S
H757 C773 0.930 . S
H758 C774 0.931 . S
C759 H747 0.929 . S
C759 C753 1.390 . S
C759 C756 1.386 . S
C760 C755 1.490 . S
C760 C762 1.395 . S
C760 C763 1.403 . S
H761 C767 0.930 . S
C762 H748 0.930 . S
C762 C760 1.395 . S
C762 C765 1.403 . S
C763 C760 1.403 . S
C763 C764 1.524 . S
C763 C767 1.400 . S
C764 H749 0.960 . S
C764 H750 0.960 . S
C764 H751 0.960 . S
C764 C763 1.524 . S
C765 C762 1.403 . S
C765 C766 1.392 . S
C765 C769 1.495 . S
C766 C765 1.392 . S
C766 C767 1.385 . S
C766 C768 1.478 . S
C767 H761 0.930 . S
C767 C763 1.400 . S
C767 C766 1.385 . S
C768 C766 1.478 . S
C768 C770 1.381 . S
C768 C774 1.383 . S
C769 C765 1.495 . S
C769 H775 0.959 . S
C769 H776 0.961 . S
C769 H777 0.960 . S
C770 C768 1.381 . S
C770 C771 1.394 . S
C770 H778 0.930 . S
C771 C770 1.394 . S
C771 C772 1.383 . S
C771 H779 0.929 . S
C772 C771 1.383 . S
C772 C773 1.377 . S
C773 H757 0.930 . S
C773 C772 1.377 . S
C773 C774 1.379 . S
C774 H758 0.931 . S
C774 C768 1.383 . S
C774 C773 1.379 . S
H775 C769 0.959 . S
H776 C769 0.961 . S
H777 C769 0.960 . S
H778 C770 0.930 . S
H779 C771 0.929 . S
H780 C788 0.929 . S
H781 C790 0.930 . S
H782 C792 0.930 . S
H783 C795 0.929 1_556 S
H784 C798 0.930 . S
H785 C800 0.960 . S
H786 C800 0.960 . S
H787 C800 0.960 . S
C788 H780 0.929 . S
C788 C789 1.377 . S
C788 C790 1.384 . S
C789 C788 1.377 . S
C789 C795 1.390 . S
C790 H781 0.930 . S
C790 C788 1.384 . S
C790 C791 1.372 . S
C791 C790 1.372 . S
C791 C792 1.400 . S
C791 C796 1.490 . S
C792 H782 0.930 . S
C792 C791 1.400 . S
C792 C795 1.386 . S
H793 C809 0.930 . S
H794 C810 0.931 . S
C795 H783 0.929 1_554 S
C795 C789 1.390 . S
C795 C792 1.386 . S
C796 C791 1.490 . S
C796 C798 1.395 . S
C796 C799 1.403 . S
H797 C803 0.930 . S
C798 H784 0.930 . S
C798 C796 1.395 . S
C798 C801 1.403 . S
C799 C796 1.403 . S
C799 C800 1.524 . S
C799 C803 1.400 . S
C800 H785 0.960 . S
C800 H786 0.960 . S
C800 H787 0.960 . S
C800 C799 1.524 . S
C801 C798 1.403 . S
C801 C802 1.392 . S
C801 C805 1.495 . S
C802 C801 1.392 . S
C802 C803 1.385 . S
C802 C804 1.478 . S
C803 H797 0.930 . S
C803 C799 1.400 . S
C803 C802 1.385 . S
C804 C802 1.478 . S
C804 C806 1.381 . S
C804 C810 1.383 . S
C805 C801 1.495 . S
C805 H811 0.959 . S
C805 H812 0.961 . S
C805 H813 0.960 . S
C806 C804 1.381 . S
C806 C807 1.394 . S
C806 H814 0.930 . S
C807 C806 1.394 . S
C807 C808 1.383 . S
C807 H815 0.929 . S
C808 C807 1.383 . S
C808 C809 1.377 . S
C809 H793 0.930 . S
C809 C808 1.377 . S
C809 C810 1.379 . S
C810 H794 0.931 . S
C810 C804 1.383 . S
C810 C809 1.379 . S
H811 C805 0.959 . S
H812 C805 0.961 . S
H813 C805 0.960 . S
H814 C806 0.930 . S
H815 C807 0.929 . S
H816 C824 0.929 . S
H817 C826 0.930 . S
H818 C828 0.930 . S
H819 C831 0.929 . S
H820 C834 0.930 . S
H821 C836 0.960 . S
H822 C836 0.960 . S
H823 C836 0.960 . S
C824 H816 0.929 . S
C824 C825 1.377 . S
C824 C826 1.384 . S
C825 C824 1.377 . S
C825 C831 1.390 . S
C826 H817 0.930 . S
C826 C824 1.384 . S
C826 C827 1.372 . S
C827 C826 1.372 . S
C827 C828 1.400 . S
C827 C832 1.490 . S
C828 H818 0.930 . S
C828 C827 1.400 . S
C828 C831 1.386 . S
H829 C845 0.930 . S
H830 C846 0.931 . S
C831 H819 0.929 . S
C831 C825 1.390 . S
C831 C828 1.386 . S
C832 C827 1.490 . S
C832 C834 1.395 . S
C832 C835 1.403 . S
H833 C839 0.930 . S
C834 H820 0.930 . S
C834 C832 1.395 . S
C834 C837 1.403 . S
C835 C832 1.403 . S
C835 C836 1.524 . S
C835 C839 1.400 . S
C836 H821 0.960 . S
C836 H822 0.960 . S
C836 H823 0.960 . S
C836 C835 1.524 . S
C837 C834 1.403 . S
C837 C838 1.392 . S
C837 C841 1.495 . S
C838 C837 1.392 . S
C838 C839 1.385 . S
C838 C840 1.478 . S
C839 H833 0.930 . S
C839 C835 1.400 . S
C839 C838 1.385 . S
C840 C838 1.478 . S
C840 C842 1.381 . S
C840 C846 1.383 . S
C841 C837 1.495 . S
C841 H847 0.959 . S
C841 H848 0.961 . S
C841 H849 0.960 . S
C842 C840 1.381 . S
C842 C843 1.394 . S
C842 H850 0.930 . S
C843 C842 1.394 . S
C843 C844 1.383 . S
C843 H851 0.929 . S
C844 C843 1.383 . S
C844 C845 1.377 . S
C845 H829 0.930 . S
C845 C844 1.377 . S
C845 C846 1.379 . S
C846 H830 0.931 . S
C846 C840 1.383 . S
C846 C845 1.379 . S
H847 C841 0.959 . S
H848 C841 0.961 . S
H849 C841 0.960 . S
H850 C842 0.930 . S
H851 C843 0.929 . S
H852 C860 0.929 . S
H853 C862 0.930 . S
H854 C864 0.930 . S
H855 C867 0.929 . S
H856 C870 0.930 . S
H857 C872 0.960 . S
H858 C872 0.960 . S
H859 C872 0.960 . S
C860 H852 0.929 . S
C860 C861 1.377 . S
C860 C862 1.384 . S
C861 C860 1.377 . S
C861 C867 1.390 . S
C862 H853 0.930 . S
C862 C860 1.384 . S
C862 C863 1.372 . S
C863 C862 1.372 . S
C863 C864 1.400 . S
C863 C868 1.490 . S
C864 H854 0.930 . S
C864 C863 1.400 . S
C864 C867 1.386 . S
H865 C881 0.930 . S
H866 C882 0.931 . S
C867 H855 0.929 . S
C867 C861 1.390 . S
C867 C864 1.386 . S
C868 C863 1.490 . S
C868 C870 1.395 . S
C868 C871 1.403 . S
H869 C875 0.930 . S
C870 H856 0.930 . S
C870 C868 1.395 . S
C870 C873 1.403 . S
C871 C868 1.403 . S
C871 C872 1.524 . S
C871 C875 1.400 . S
C872 H857 0.960 . S
C872 H858 0.960 . S
C872 H859 0.960 . S
C872 C871 1.524 . S
C873 C870 1.403 . S
C873 C874 1.392 . S
C873 C877 1.495 . S
C874 C873 1.392 . S
C874 C875 1.385 . S
C874 C876 1.478 . S
C875 H869 0.930 . S
C875 C871 1.400 . S
C875 C874 1.385 . S
C876 C874 1.478 . S
C876 C878 1.381 . S
C876 C882 1.383 . S
C877 C873 1.495 . S
C877 H883 0.959 . S
C877 H884 0.961 . S
C877 H885 0.960 . S
C878 C876 1.381 . S
C878 C879 1.394 . S
C878 H886 0.930 . S
C879 C878 1.394 . S
C879 C880 1.383 . S
C879 H887 0.929 . S
C880 C879 1.383 . S
C880 C881 1.377 . S
C881 H865 0.930 . S
C881 C880 1.377 . S
C881 C882 1.379 . S
C882 H866 0.931 . S
C882 C876 1.383 . S
C882 C881 1.379 . S
H883 C877 0.959 . S
H884 C877 0.961 . S
H885 C877 0.960 . S
H886 C878 0.930 . S
H887 C879 0.929 . S
H888 C896 0.929 . S
H889 C898 0.930 . S
H890 C900 0.930 . S
H891 C903 0.929 . S
H892 C906 0.930 . S
H893 C908 0.960 . S
H894 C908 0.960 . S
H895 C908 0.960 . S
C896 H888 0.929 . S
C896 C897 1.377 . S
C896 C898 1.384 . S
C897 C896 1.377 . S
C897 C903 1.390 . S
C898 H889 0.930 . S
C898 C896 1.384 . S
C898 C899 1.372 . S
C899 C898 1.372 . S
C899 C900 1.400 . S
C899 C904 1.490 . S
C900 H890 0.930 . S
C900 C899 1.400 . S
C900 C903 1.386 . S
H901 C917 0.930 . S
H902 C918 0.931 . S
C903 H891 0.929 . S
C903 C897 1.390 . S
C903 C900 1.386 . S
C904 C899 1.490 . S
C904 C906 1.395 . S
C904 C907 1.403 . S
H905 C911 0.930 . S
C906 H892 0.930 . S
C906 C904 1.395 . S
C906 C909 1.403 . S
C907 C904 1.403 . S
C907 C908 1.524 . S
C907 C911 1.400 . S
C908 H893 0.960 . S
C908 H894 0.960 . S
C908 H895 0.960 . S
C908 C907 1.524 . S
C909 C906 1.403 . S
C909 C910 1.392 . S
C909 C913 1.495 . S
C910 C909 1.392 . S
C910 C911 1.385 . S
C910 C912 1.478 . S
C911 H905 0.930 . S
C911 C907 1.400 . S
C911 C910 1.385 . S
C912 C910 1.478 . S
C912 C914 1.381 . S
C912 C918 1.383 . S
C913 C909 1.495 . S
C913 H919 0.959 . S
C913 H920 0.961 . S
C913 H921 0.960 . S
C914 C912 1.381 . S
C914 C915 1.394 . S
C914 H922 0.930 . S
C915 C914 1.394 . S
C915 C916 1.383 . S
C915 H923 0.929 . S
C916 C915 1.383 . S
C916 C917 1.377 . S
C917 H901 0.930 . S
C917 C916 1.377 . S
C917 C918 1.379 . S
C918 H902 0.931 . S
C918 C912 1.383 . S
C918 C917 1.379 . S
H919 C913 0.959 . S
H920 C913 0.961 . S
H921 C913 0.960 . S
H922 C914 0.930 . S
H923 C915 0.929 . S
H924 C932 0.929 . S
H925 C934 0.930 . S
H926 C936 0.930 . S
H927 C939 0.929 . S
H928 C942 0.930 . S
H929 C944 0.960 . S
H930 C944 0.960 . S
H931 C944 0.960 . S
C932 H924 0.929 . S
C932 C933 1.377 . S
C932 C934 1.384 . S
C933 C932 1.377 . S
C933 C939 1.390 . S
C934 H925 0.930 . S
C934 C932 1.384 . S
C934 C935 1.372 . S
C935 C934 1.372 . S
C935 C936 1.400 . S
C935 C940 1.490 . S
C936 H926 0.930 . S
C936 C935 1.400 . S
C936 C939 1.386 . S
H937 C953 0.930 . S
H938 C954 0.931 . S
C939 H927 0.929 . S
C939 C933 1.390 . S
C939 C936 1.386 . S
C940 C935 1.490 . S
C940 C942 1.395 . S
C940 C943 1.403 . S
H941 C947 0.930 . S
C942 H928 0.930 . S
C942 C940 1.395 . S
C942 C945 1.403 . S
C943 C940 1.403 . S
C943 C944 1.524 . S
C943 C947 1.400 . S
C944 H929 0.960 . S
C944 H930 0.960 . S
C944 H931 0.960 . S
C944 C943 1.524 . S
C945 C942 1.403 . S
C945 C946 1.392 . S
C945 C949 1.495 . S
C946 C945 1.392 . S
C946 C947 1.385 . S
C946 C948 1.478 . S
C947 H941 0.930 . S
C947 C943 1.400 . S
C947 C946 1.385 . S
C948 C946 1.478 . S
C948 C950 1.381 . S
C948 C954 1.383 . S
C949 C945 1.495 . S
C949 H955 0.959 . S
C949 H956 0.961 . S
C949 H957 0.960 . S
C950 C948 1.381 . S
C950 C951 1.394 . S
C950 H958 0.930 . S
C951 C950 1.394 . S
C951 C952 1.383 . S
C951 H959 0.929 . S
C952 C951 1.383 . S
C952 C953 1.377 . S
C953 H937 0.930 . S
C953 C952 1.377 . S
C953 C954 1.379 . S
C954 H938 0.931 . S
C954 C948 1.383 . S
C954 C953 1.379 . S
H955 C949 0.959 . S
H956 C949 0.961 . S
H957 C949 0.960 . S
H958 C950 0.930 . S
H959 C951 0.929 . S
H960 C968 0.929 . S
H961 C970 0.930 . S
H962 C972 0.930 . S
H963 C975 0.929 . S
H964 C978 0.930 . S
H965 C980 0.960 . S
H966 C980 0.960 . S
H967 C980 0.960 . S
C968 H960 0.929 . S
C968 C969 1.377 . S
C968 C970 1.384 . S
C969 C968 1.377 . S
C969 C975 1.390 . S
C970 H961 0.930 . S
C970 C968 1.384 . S
C970 C971 1.372 . S
C971 C970 1.372 . S
C971 C972 1.400 . S
C971 C976 1.490 . S
C972 H962 0.930 . S
C972 C971 1.400 . S
C972 C975 1.386 . S
H973 C989 0.930 . S
H974 C990 0.931 . S
C975 H963 0.929 . S
C975 C969 1.390 . S
C975 C972 1.386 . S
C976 C971 1.490 . S
C976 C978 1.395 . S
C976 C979 1.403 . S
H977 C983 0.930 . S
C978 H964 0.930 . S
C978 C976 1.395 . S
C978 C981 1.403 . S
C979 C976 1.403 . S
C979 C980 1.524 . S
C979 C983 1.400 . S
C980 H965 0.960 . S
C980 H966 0.960 . S
C980 H967 0.960 . S
C980 C979 1.524 . S
C981 C978 1.403 . S
C981 C982 1.392 . S
C981 C985 1.495 . S
C982 C981 1.392 . S
C982 C983 1.385 . S
C982 C984 1.478 . S
C983 H977 0.930 . S
C983 C979 1.400 . S
C983 C982 1.385 . S
C984 C982 1.478 . S
C984 C986 1.381 . S
C984 C990 1.383 . S
C985 C981 1.495 . S
C985 H991 0.959 . S
C985 H992 0.961 . S
C985 H993 0.960 . S
C986 C984 1.381 . S
C986 C987 1.394 . S
C986 H994 0.930 . S
C987 C986 1.394 . S
C987 C988 1.383 . S
C987 H995 0.929 . S
C988 C987 1.383 . S
C988 C989 1.377 . S
C989 H973 0.930 . S
C989 C988 1.377 . S
C989 C990 1.379 . S
C990 H974 0.931 . S
C990 C984 1.383 . S
C990 C989 1.379 . S
H991 C985 0.959 . S
H992 C985 0.961 . S
H993 C985 0.960 . S
H994 C986 0.930 . S
H995 C987 0.929 . S
H996 C1004 0.929 . S
H997 C1006 0.930 . S
H998 C1008 0.930 . S
H999 C1011 0.929 . S
H1000 C1014 0.930 . S
H1001 C1016 0.960 . S
H1002 C1016 0.960 . S
H1003 C1016 0.960 . S
C1004 H996 0.929 . S
C1004 C1005 1.377 . S
C1004 C1006 1.384 . S
C1005 C1004 1.377 . S
C1005 C1011 1.390 . S
C1006 H997 0.930 . S
C1006 C1004 1.384 . S
C1006 C1007 1.372 . S
C1007 C1006 1.372 . S
C1007 C1008 1.400 . S
C1007 C1012 1.490 . S
C1008 H998 0.930 . S
C1008 C1007 1.400 . S
C1008 C1011 1.386 . S
H1009 C1025 0.930 . S
H1010 C1026 0.931 . S
C1011 H999 0.929 . S
C1011 C1005 1.390 . S
C1011 C1008 1.386 . S
C1012 C1007 1.490 . S
C1012 C1014 1.395 . S
C1012 C1015 1.403 . S
H1013 C1019 0.930 . S
C1014 H1000 0.930 . S
C1014 C1012 1.395 . S
C1014 C1017 1.403 . S
C1015 C1012 1.403 . S
C1015 C1016 1.524 . S
C1015 C1019 1.400 . S
C1016 H1001 0.960 . S
C1016 H1002 0.960 . S
C1016 H1003 0.960 . S
C1016 C1015 1.524 . S
C1017 C1014 1.403 . S
C1017 C1018 1.392 . S
C1017 C1021 1.495 . S
C1018 C1017 1.392 . S
C1018 C1019 1.385 . S
C1018 C1020 1.478 . S
C1019 H1013 0.930 . S
C1019 C1015 1.400 . S
C1019 C1018 1.385 . S
C1020 C1018 1.478 . S
C1020 C1022 1.381 . S
C1020 C1026 1.383 1_556 S
C1021 C1017 1.495 . S
C1021 H1027 0.959 . S
C1021 H1028 0.961 . S
C1021 H1029 0.960 . S
C1022 C1020 1.381 . S
C1022 C1023 1.394 . S
C1022 H1030 0.930 . S
C1023 C1022 1.394 . S
C1023 C1024 1.383 1_556 S
C1023 H1031 0.929 . S
C1024 C1023 1.383 1_554 S
C1024 C1025 1.377 . S
C1025 H1009 0.930 . S
C1025 C1024 1.377 . S
C1025 C1026 1.379 . S
C1026 H1010 0.931 . S
C1026 C1020 1.383 1_554 S
C1026 C1025 1.379 . S
H1027 C1021 0.959 . S
H1028 C1021 0.961 . S
H1029 C1021 0.960 . S
H1030 C1022 0.930 . S
H1031 C1023 0.929 . S
H1032 C1040 0.929 . S
H1033 C1042 0.930 . S
H1034 C1044 0.930 . S
H1035 C1047 0.929 . S
H1036 C1050 0.930 . S
H1037 C1052 0.960 . S
H1038 C1052 0.960 . S
H1039 C1052 0.960 . S
C1040 H1032 0.929 . S
C1040 C1041 1.377 . S
C1040 C1042 1.384 . S
C1041 C1040 1.377 . S
C1041 C1047 1.390 . S
C1042 H1033 0.930 . S
C1042 C1040 1.384 . S
C1042 C1043 1.372 . S
C1043 C1042 1.372 . S
C1043 C1044 1.400 . S
C1043 C1048 1.490 . S
C1044 H1034 0.930 . S
C1044 C1043 1.400 . S
C1044 C1047 1.386 . S
H1045 C1061 0.930 . S
H1046 C1062 0.931 . S
C1047 H1035 0.929 . S
C1047 C1041 1.390 . S
C1047 C1044 1.386 . S
C1048 C1043 1.490 . S
C1048 C1050 1.395 . S
C1048 C1051 1.403 . S
H1049 C1055 0.930 . S
C1050 H1036 0.930 . S
C1050 C1048 1.395 . S
C1050 C1053 1.403 . S
C1051 C1048 1.403 . S
C1051 C1052 1.524 . S
C1051 C1055 1.400 . S
C1052 H1037 0.960 . S
C1052 H1038 0.960 . S
C1052 H1039 0.960 . S
C1052 C1051 1.524 . S
C1053 C1050 1.403 . S
C1053 C1054 1.392 . S
C1053 C1057 1.495 . S
C1054 C1053 1.392 . S
C1054 C1055 1.385 . S
C1054 C1056 1.478 . S
C1055 H1049 0.930 . S
C1055 C1051 1.400 . S
C1055 C1054 1.385 . S
C1056 C1054 1.478 . S
C1056 C1058 1.381 . S
C1056 C1062 1.383 . S
C1057 C1053 1.495 . S
C1057 H1063 0.959 . S
C1057 H1064 0.961 . S
C1057 H1065 0.960 . S
C1058 C1056 1.381 . S
C1058 C1059 1.394 . S
C1058 H1066 0.930 . S
C1059 C1058 1.394 . S
C1059 C1060 1.383 . S
C1059 H1067 0.929 . S
C1060 C1059 1.383 . S
C1060 C1061 1.377 . S
C1061 H1045 0.930 . S
C1061 C1060 1.377 . S
C1061 C1062 1.379 . S
C1062 H1046 0.931 . S
C1062 C1056 1.383 . S
C1062 C1061 1.379 . S
H1063 C1057 0.959 . S
H1064 C1057 0.961 . S
H1065 C1057 0.960 . S
H1066 C1058 0.930 . S
H1067 C1059 0.929 . S
H1068 C1076 0.929 . S
H1069 C1078 0.930 . S
H1070 C1080 0.930 . S
H1071 C1083 0.929 . S
H1072 C1086 0.930 . S
H1073 C1088 0.960 . S
H1074 C1088 0.960 . S
H1075 C1088 0.960 . S
C1076 H1068 0.929 . S
C1076 C1077 1.377 . S
C1076 C1078 1.384 . S
C1077 C1076 1.377 . S
C1077 C1083 1.390 . S
C1078 H1069 0.930 . S
C1078 C1076 1.384 . S
C1078 C1079 1.372 . S
C1079 C1078 1.372 . S
C1079 C1080 1.400 . S
C1079 C1084 1.490 . S
C1080 H1070 0.930 . S
C1080 C1079 1.400 . S
C1080 C1083 1.386 . S
H1081 C1097 0.930 . S
H1082 C1098 0.931 . S
C1083 H1071 0.929 . S
C1083 C1077 1.390 . S
C1083 C1080 1.386 . S
C1084 C1079 1.490 . S
C1084 C1086 1.395 . S
C1084 C1087 1.403 . S
H1085 C1091 0.930 . S
C1086 H1072 0.930 . S
C1086 C1084 1.395 . S
C1086 C1089 1.403 . S
C1087 C1084 1.403 . S
C1087 C1088 1.524 . S
C1087 C1091 1.400 . S
C1088 H1073 0.960 . S
C1088 H1074 0.960 . S
C1088 H1075 0.960 . S
C1088 C1087 1.524 . S
C1089 C1086 1.403 . S
C1089 C1090 1.392 . S
C1089 C1093 1.495 . S
C1090 C1089 1.392 . S
C1090 C1091 1.385 . S
C1090 C1092 1.478 . S
C1091 H1085 0.930 . S
C1091 C1087 1.400 . S
C1091 C1090 1.385 . S
C1092 C1090 1.478 . S
C1092 C1094 1.381 . S
C1092 C1098 1.383 . S
C1093 C1089 1.495 . S
C1093 H1099 0.959 . S
C1093 H1100 0.961 . S
C1093 H1101 0.960 . S
C1094 C1092 1.381 . S
C1094 C1095 1.394 . S
C1094 H1102 0.930 . S
C1095 C1094 1.394 . S
C1095 C1096 1.383 . S
C1095 H1103 0.929 . S
C1096 C1095 1.383 . S
C1096 C1097 1.377 . S
C1097 H1081 0.930 . S
C1097 C1096 1.377 . S
C1097 C1098 1.379 . S
C1098 H1082 0.931 . S
C1098 C1092 1.383 . S
C1098 C1097 1.379 . S
H1099 C1093 0.959 . S
H1100 C1093 0.961 . S
H1101 C1093 0.960 . S
H1102 C1094 0.930 . S
H1103 C1095 0.929 . S
H1104 C1112 0.929 . S
H1105 C1114 0.930 . S
H1106 C1116 0.930 . S
H1107 C1119 0.929 . S
H1108 C1122 0.930 . S
H1109 C1124 0.960 . S
H1110 C1124 0.960 . S
H1111 C1124 0.960 . S
C1112 H1104 0.929 . S
C1112 C1113 1.377 . S
C1112 C1114 1.384 . S
C1113 C1112 1.377 . S
C1113 C1119 1.390 . S
C1114 H1105 0.930 . S
C1114 C1112 1.384 . S
C1114 C1115 1.372 . S
C1115 C1114 1.372 . S
C1115 C1116 1.400 . S
C1115 C1120 1.490 . S
C1116 H1106 0.930 . S
C1116 C1115 1.400 . S
C1116 C1119 1.386 . S
H1117 C1133 0.930 . S
H1118 C1134 0.931 . S
C1119 H1107 0.929 . S
C1119 C1113 1.390 . S
C1119 C1116 1.386 . S
C1120 C1115 1.490 . S
C1120 C1122 1.395 . S
C1120 C1123 1.403 . S
H1121 C1127 0.930 . S
C1122 H1108 0.930 . S
C1122 C1120 1.395 . S
C1122 C1125 1.403 . S
C1123 C1120 1.403 . S
C1123 C1124 1.524 . S
C1123 C1127 1.400 . S
C1124 H1109 0.960 . S
C1124 H1110 0.960 . S
C1124 H1111 0.960 . S
C1124 C1123 1.524 . S
C1125 C1122 1.403 . S
C1125 C1126 1.392 . S
C1125 C1129 1.495 . S
C1126 C1125 1.392 . S
C1126 C1127 1.385 . S
C1126 C1128 1.478 . S
C1127 H1121 0.930 . S
C1127 C1123 1.400 . S
C1127 C1126 1.385 . S
C1128 C1126 1.478 . S
C1128 C1130 1.381 . S
C1128 C1134 1.383 . S
C1129 C1125 1.495 . S
C1129 H1135 0.959 . S
C1129 H1136 0.961 . S
C1129 H1137 0.960 . S
C1130 C1128 1.381 . S
C1130 C1131 1.394 . S
C1130 H1138 0.930 . S
C1131 C1130 1.394 . S
C1131 C1132 1.383 . S
C1131 H1139 0.929 . S
C1132 C1131 1.383 . S
C1132 C1133 1.377 . S
C1133 H1117 0.930 . S
C1133 C1132 1.377 . S
C1133 C1134 1.379 . S
C1134 H1118 0.931 . S
C1134 C1128 1.383 . S
C1134 C1133 1.379 . S
H1135 C1129 0.959 . S
H1136 C1129 0.961 . S
H1137 C1129 0.960 . S
H1138 C1130 0.930 . S
H1139 C1131 0.929 . S
H1140 C1148 0.929 . S
H1141 C1150 0.930 . S
H1142 C1152 0.930 . S
H1143 C1155 0.929 . S
H1144 C1158 0.930 . S
H1145 C1160 0.960 . S
H1146 C1160 0.960 . S
H1147 C1160 0.960 . S
C1148 H1140 0.929 . S
C1148 C1149 1.377 . S
C1148 C1150 1.384 . S
C1149 C1148 1.377 . S
C1149 C1155 1.390 . S
C1150 H1141 0.930 . S
C1150 C1148 1.384 . S
C1150 C1151 1.372 . S
C1151 C1150 1.372 . S
C1151 C1152 1.400 . S
C1151 C1156 1.490 . S
C1152 H1142 0.930 . S
C1152 C1151 1.400 . S
C1152 C1155 1.386 . S
H1153 C1169 0.930 . S
H1154 C1170 0.931 . S
C1155 H1143 0.929 . S
C1155 C1149 1.390 . S
C1155 C1152 1.386 . S
C1156 C1151 1.490 . S
C1156 C1158 1.395 . S
C1156 C1159 1.403 . S
H1157 C1163 0.930 . S
C1158 H1144 0.930 . S
C1158 C1156 1.395 . S
C1158 C1161 1.403 . S
C1159 C1156 1.403 . S
C1159 C1160 1.524 . S
C1159 C1163 1.400 . S
C1160 H1145 0.960 . S
C1160 H1146 0.960 . S
C1160 H1147 0.960 . S
C1160 C1159 1.524 . S
C1161 C1158 1.403 . S
C1161 C1162 1.392 . S
C1161 C1165 1.495 . S
C1162 C1161 1.392 . S
C1162 C1163 1.385 . S
C1162 C1164 1.478 . S
C1163 H1157 0.930 . S
C1163 C1159 1.400 . S
C1163 C1162 1.385 . S
C1164 C1162 1.478 . S
C1164 C1166 1.381 . S
C1164 C1170 1.383 . S
C1165 C1161 1.495 . S
C1165 H1171 0.959 . S
C1165 H1172 0.961 . S
C1165 H1173 0.960 . S
C1166 C1164 1.381 . S
C1166 C1167 1.394 . S
C1166 H1174 0.930 . S
C1167 C1166 1.394 . S
C1167 C1168 1.383 . S
C1167 H1175 0.929 . S
C1168 C1167 1.383 . S
C1168 C1169 1.377 . S
C1169 H1153 0.930 . S
C1169 C1168 1.377 . S
C1169 C1170 1.379 . S
C1170 H1154 0.931 . S
C1170 C1164 1.383 . S
C1170 C1169 1.379 . S
H1171 C1165 0.959 . S
H1172 C1165 0.961 . S
H1173 C1165 0.960 . S
H1174 C1166 0.930 . S
H1175 C1167 0.929 . S
H1176 C1184 0.929 . S
H1177 C1186 0.930 . S
H1178 C1188 0.930 . S
H1179 C1191 0.929 . S
H1180 C1194 0.930 . S
H1181 C1196 0.960 . S
H1182 C1196 0.960 . S
H1183 C1196 0.960 . S
C1184 H1176 0.929 . S
C1184 C1185 1.377 . S
C1184 C1186 1.384 . S
C1185 C1184 1.377 . S
C1185 C1191 1.390 . S
C1186 H1177 0.930 . S
C1186 C1184 1.384 . S
C1186 C1187 1.372 . S
C1187 C1186 1.372 . S
C1187 C1188 1.400 . S
C1187 C1192 1.490 . S
C1188 H1178 0.930 . S
C1188 C1187 1.400 . S
C1188 C1191 1.386 . S
H1189 C1205 0.930 . S
H1190 C1206 0.931 . S
C1191 H1179 0.929 . S
C1191 C1185 1.390 . S
C1191 C1188 1.386 . S
C1192 C1187 1.490 . S
C1192 C1194 1.395 . S
C1192 C1195 1.403 . S
H1193 C1199 0.930 . S
C1194 H1180 0.930 . S
C1194 C1192 1.395 . S
C1194 C1197 1.403 . S
C1195 C1192 1.403 . S
C1195 C1196 1.524 . S
C1195 C1199 1.400 . S
C1196 H1181 0.960 . S
C1196 H1182 0.960 . S
C1196 H1183 0.960 . S
C1196 C1195 1.524 . S
C1197 C1194 1.403 . S
C1197 C1198 1.392 . S
C1197 C1201 1.495 . S
C1198 C1197 1.392 . S
C1198 C1199 1.385 . S
C1198 C1200 1.478 . S
C1199 H1193 0.930 . S
C1199 C1195 1.400 . S
C1199 C1198 1.385 . S
C1200 C1198 1.478 . S
C1200 C1202 1.381 . S
C1200 C1206 1.383 . S
C1201 C1197 1.495 . S
C1201 H1207 0.959 . S
C1201 H1208 0.961 . S
C1201 H1209 0.960 . S
C1202 C1200 1.381 . S
C1202 C1203 1.394 . S
C1202 H1210 0.930 . S
C1203 C1202 1.394 . S
C1203 C1204 1.383 . S
C1203 H1211 0.929 . S
C1204 C1203 1.383 . S
C1204 C1205 1.377 . S
C1205 H1189 0.930 . S
C1205 C1204 1.377 . S
C1205 C1206 1.379 . S
C1206 H1190 0.931 . S
C1206 C1200 1.383 . S
C1206 C1205 1.379 . S
H1207 C1201 0.959 . S
H1208 C1201 0.961 . S
H1209 C1201 0.960 . S
H1210 C1202 0.930 . S
H1211 C1203 0.929 . S
H1212 C1220 0.929 . S
H1213 C1222 0.930 . S
H1214 C1224 0.930 . S
H1215 C1227 0.929 . S
H1216 C1230 0.930 . S
H1217 C1232 0.960 . S
H1218 C1232 0.960 . S
H1219 C1232 0.960 . S
C1220 H1212 0.929 . S
C1220 C1221 1.377 . S
C1220 C1222 1.384 . S
C1221 C1220 1.377 . S
C1221 C1227 1.390 . S
C1222 H1213 0.930 . S
C1222 C1220 1.384 . S
C1222 C1223 1.372 . S
C1223 C1222 1.372 . S
C1223 C1224 1.400 . S
C1223 C1228 1.490 . S
C1224 H1214 0.930 . S
C1224 C1223 1.400 . S
C1224 C1227 1.386 . S
H1225 C1241 0.930 . S
H1226 C1242 0.931 . S
C1227 H1215 0.929 . S
C1227 C1221 1.390 . S
C1227 C1224 1.386 . S
C1228 C1223 1.490 . S
C1228 C1230 1.395 . S
C1228 C1231 1.403 . S
H1229 C1235 0.930 . S
C1230 H1216 0.930 . S
C1230 C1228 1.395 . S
C1230 C1233 1.403 . S
C1231 C1228 1.403 . S
C1231 C1232 1.524 . S
C1231 C1235 1.400 . S
C1232 H1217 0.960 . S
C1232 H1218 0.960 . S
C1232 H1219 0.960 . S
C1232 C1231 1.524 . S
C1233 C1230 1.403 . S
C1233 C1234 1.392 . S
C1233 C1237 1.495 . S
C1234 C1233 1.392 . S
C1234 C1235 1.385 . S
C1234 C1236 1.478 . S
C1235 H1229 0.930 . S
C1235 C1231 1.400 . S
C1235 C1234 1.385 . S
C1236 C1234 1.478 . S
C1236 C1238 1.381 . S
C1236 C1242 1.383 . S
C1237 C1233 1.495 . S
C1237 H1243 0.959 . S
C1237 H1244 0.961 . S
C1237 H1245 0.960 . S
C1238 C1236 1.381 . S
C1238 C1239 1.394 . S
C1238 H1246 0.930 . S
C1239 C1238 1.394 . S
C1239 C1240 1.383 . S
C1239 H1247 0.929 . S
C1240 C1239 1.383 . S
C1240 C1241 1.377 . S
C1241 H1225 0.930 . S
C1241 C1240 1.377 . S
C1241 C1242 1.379 . S
C1242 H1226 0.931 . S
C1242 C1236 1.383 . S
C1242 C1241 1.379 . S
H1243 C1237 0.959 . S
H1244 C1237 0.961 . S
H1245 C1237 0.960 . S
H1246 C1238 0.930 . S
H1247 C1239 0.929 . S
H1248 C1256 0.929 . S
H1249 C1258 0.930 . S
H1250 C1260 0.930 . S
H1251 C1263 0.929 . S
H1252 C1266 0.930 . S
H1253 C1268 0.960 . S
H1254 C1268 0.960 . S
H1255 C1268 0.960 . S
C1256 H1248 0.929 . S
C1256 C1257 1.377 . S
C1256 C1258 1.384 . S
C1257 C1256 1.377 . S
C1257 C1263 1.390 . S
C1258 H1249 0.930 . S
C1258 C1256 1.384 . S
C1258 C1259 1.372 . S
C1259 C1258 1.372 . S
C1259 C1260 1.400 . S
C1259 C1264 1.490 . S
C1260 H1250 0.930 . S
C1260 C1259 1.400 . S
C1260 C1263 1.386 . S
H1261 C1277 0.930 . S
H1262 C1278 0.931 . S
C1263 H1251 0.929 . S
C1263 C1257 1.390 . S
C1263 C1260 1.386 . S
C1264 C1259 1.490 . S
C1264 C1266 1.395 . S
C1264 C1267 1.403 1_554 S
H1265 C1271 0.930 . S
C1266 H1252 0.930 . S
C1266 C1264 1.395 . S
C1266 C1269 1.403 . S
C1267 C1264 1.403 1_556 S
C1267 C1268 1.524 . S
C1267 C1271 1.400 . S
C1268 H1253 0.960 . S
C1268 H1254 0.960 . S
C1268 H1255 0.960 . S
C1268 C1267 1.524 . S
C1269 C1266 1.403 . S
C1269 C1270 1.392 1_554 S
C1269 C1273 1.495 . S
C1270 C1269 1.392 1_556 S
C1270 C1271 1.385 . S
C1270 C1272 1.478 . S
C1271 H1265 0.930 . S
C1271 C1267 1.400 . S
C1271 C1270 1.385 . S
C1272 C1270 1.478 . S
C1272 C1274 1.381 . S
C1272 C1278 1.383 . S
C1273 C1269 1.495 . S
C1273 H1279 0.959 . S
C1273 H1280 0.955 1_554 S
C1273 H1281 0.960 . S
C1274 C1272 1.381 . S
C1274 C1275 1.394 . S
C1274 H1282 0.930 . S
C1275 C1274 1.394 . S
C1275 C1276 1.383 . S
C1275 H1283 0.929 . S
C1276 C1275 1.383 . S
C1276 C1277 1.377 . S
C1277 H1261 0.930 . S
C1277 C1276 1.377 . S
C1277 C1278 1.379 . S
C1278 H1262 0.931 . S
C1278 C1272 1.383 . S
C1278 C1277 1.379 . S
H1279 C1273 0.959 . S
H1280 C1273 0.955 1_556 S
H1281 C1273 0.960 . S
H1282 C1274 0.930 . S
H1283 C1275 0.929 . S
H1284 C1292 0.929 . S
H1285 C1294 0.930 . S
H1286 C1296 0.930 . S
H1287 C1299 0.929 . S
H1288 C1302 0.930 . S
H1289 C1304 0.960 . S
H1290 C1304 0.960 . S
H1291 C1304 0.960 . S
C1292 H1284 0.929 . S
C1292 C1293 1.377 . S
C1292 C1294 1.384 . S
C1293 C1292 1.377 . S
C1293 C1299 1.390 . S
C1294 H1285 0.930 . S
C1294 C1292 1.384 . S
C1294 C1295 1.372 . S
C1295 C1294 1.372 . S
C1295 C1296 1.400 . S
C1295 C1300 1.490 . S
C1296 H1286 0.930 . S
C1296 C1295 1.400 . S
C1296 C1299 1.386 . S
H1297 C1313 0.930 . S
H1298 C1314 0.931 . S
C1299 H1287 0.929 . S
C1299 C1293 1.390 . S
C1299 C1296 1.386 . S
C1300 C1295 1.490 . S
C1300 C1302 1.395 . S
C1300 C1303 1.403 . S
H1301 C1307 0.930 . S
C1302 H1288 0.930 . S
C1302 C1300 1.395 . S
C1302 C1305 1.403 . S
C1303 C1300 1.403 . S
C1303 C1304 1.524 . S
C1303 C1307 1.400 . S
C1304 H1289 0.960 . S
C1304 H1290 0.960 . S
C1304 H1291 0.960 . S
C1304 C1303 1.524 . S
C1305 C1302 1.403 . S
C1305 C1306 1.392 . S
C1305 C1309 1.495 . S
C1306 C1305 1.392 . S
C1306 C1307 1.385 . S
C1306 C1308 1.478 . S
C1307 H1301 0.930 . S
C1307 C1303 1.400 . S
C1307 C1306 1.385 . S
C1308 C1306 1.478 . S
C1308 C1310 1.381 . S
C1308 C1314 1.383 . S
C1309 C1305 1.495 . S
C1309 H1315 0.959 . S
C1309 H1316 0.961 . S
C1309 H1317 0.960 . S
C1310 C1308 1.381 . S
C1310 C1311 1.394 . S
C1310 H1318 0.930 . S
C1311 C1310 1.394 . S
C1311 C1312 1.383 . S
C1311 H1319 0.929 . S
C1312 C1311 1.383 . S
C1312 C1313 1.377 . S
C1313 H1297 0.930 . S
C1313 C1312 1.377 . S
C1313 C1314 1.379 . S
C1314 H1298 0.931 . S
C1314 C1308 1.383 . S
C1314 C1313 1.379 . S
H1315 C1309 0.959 . S
H1316 C1309 0.961 . S
H1317 C1309 0.960 . S
H1318 C1310 0.930 . S
H1319 C1311 0.929 . S
C484 C447 1.269 . S
C465 C29 1.463 . S
C501 C115 1.474 . S
C520 C377 1.297 . S
C537 C153 1.442 . S
C556 C397 1.545 . S
C573 C239 1.334 . S
C592 C411 1.352 . S
C628 C419 1.208 . S
C609 C301 1.451 . S
C645 C339 1.731 . S
C664 C433 1.581 . S
C681 C91 1.508 . S
C700 C391 1.381 . S
C717 C177 1.396 . S
C736 C405 1.138 . S
C753 C215 1.371 . S
C772 C425 1.434 . S
C808 C439 1.794 . S
C789 C277 1.692 . S
C844 C453 1.444 . S
C825 C363 1.428 . S
C880 C383 1.391 . S
C861 C53 1.395 . S
C897 C35 1.487 . S
C916 C390 1.464 . S
C933 C109 1.358 . S
C952 C404 1.429 . S
C988 C426 1.385 . S
C969 C159 1.364 . S
C1005 C233 1.566 . S
C1024 C440 1.698 . S
C1060 C454 1.478 . S
C1041 C295 1.343 . S
C1096 C384 1.244 . S
C1077 C345 1.227 . S
C1132 C446 1.335 . S
C1113 C97 1.367 . S
C1149 C171 1.342 . S
C1168 C376 1.393 . S
C1204 C398 1.501 . S
C1185 C221 1.470 . S
C1221 C283 1.301 . S
C1240 C412 1.322 . S
C1257 C357 1.412 . S
C1276 C418 1.524 . S
C1293 C47 1.595 . S
C1312 C432 1.689 . S
