# Generated by pormake.
# Topology zzz, (3,6)-cn, num edge types: 1
# Building blocks:
#     Node 0, Type 0, BuildingBlock: VETTIZ_charged_linker_0, # of connection points: 3
#     Node 1, Type 0, BuildingBlock: VETTIZ_charged_linker_0, # of connection points: 3
#     Node 2, Type 0, BuildingBlock: VETTIZ_charged_linker_0, # of connection points: 3
#     Node 3, Type 0, BuildingBlock: VETTIZ_charged_linker_0, # of connection points: 3
#     Node 4, Type 0, BuildingBlock: VETTIZ_charged_linker_0, # of connection points: 3
#     Node 5, Type 0, BuildingBlock: VETTIZ_charged_linker_0, # of connection points: 3
#     Node 6, Type 0, BuildingBlock: VETTIZ_charged_linker_0, # of connection points: 3
#     Node 7, Type 0, BuildingBlock: VETTIZ_charged_linker_0, # of connection points: 3
#     Node 8, Type 1, BuildingBlock: CIFDUS_clean_sbu_1, # of connection points: 6
#     Node 9, Type 1, BuildingBlock: CIFDUS_clean_sbu_1, # of connection points: 6
#     Node 10, Type 1, BuildingBlock: CIFDUS_clean_sbu_1, # of connection points: 6
#     Node 11, Type 1, BuildingBlock: CIFDUS_clean_sbu_1, # of connection points: 6
#     Edge 12, Type (0, 1), BuildingBlock: AJUNOK_clean_linker_0, # of connection points: 2
#     Edge 13, Type (0, 1), BuildingBlock: AJUNOK_clean_linker_0, # of connection points: 2
#     Edge 14, Type (0, 1), BuildingBlock: AJUNOK_clean_linker_0, # of connection points: 2
#     Edge 15, Type (0, 1), BuildingBlock: AJUNOK_clean_linker_0, # of connection points: 2
#     Edge 16, Type (0, 1), BuildingBlock: AJUNOK_clean_linker_0, # of connection points: 2
#     Edge 17, Type (0, 1), BuildingBlock: AJUNOK_clean_linker_0, # of connection points: 2
#     Edge 18, Type (0, 1), BuildingBlock: AJUNOK_clean_linker_0, # of connection points: 2
#     Edge 19, Type (0, 1), BuildingBlock: AJUNOK_clean_linker_0, # of connection points: 2
#     Edge 20, Type (0, 1), BuildingBlock: AJUNOK_clean_linker_0, # of connection points: 2
#     Edge 21, Type (0, 1), BuildingBlock: AJUNOK_clean_linker_0, # of connection points: 2
#     Edge 22, Type (0, 1), BuildingBlock: AJUNOK_clean_linker_0, # of connection points: 2
#     Edge 23, Type (0, 1), BuildingBlock: AJUNOK_clean_linker_0, # of connection points: 2
#     Edge 24, Type (0, 1), BuildingBlock: AJUNOK_clean_linker_0, # of connection points: 2
#     Edge 25, Type (0, 1), BuildingBlock: AJUNOK_clean_linker_0, # of connection points: 2
#     Edge 26, Type (0, 1), BuildingBlock: AJUNOK_clean_linker_0, # of connection points: 2
#     Edge 27, Type (0, 1), BuildingBlock: AJUNOK_clean_linker_0, # of connection points: 2
#     Edge 28, Type (0, 1), BuildingBlock: AJUNOK_clean_linker_0, # of connection points: 2
#     Edge 29, Type (0, 1), BuildingBlock: AJUNOK_clean_linker_0, # of connection points: 2
#     Edge 30, Type (0, 1), BuildingBlock: AJUNOK_clean_linker_0, # of connection points: 2
#     Edge 31, Type (0, 1), BuildingBlock: AJUNOK_clean_linker_0, # of connection points: 2
#     Edge 32, Type (0, 1), BuildingBlock: AJUNOK_clean_linker_0, # of connection points: 2
#     Edge 33, Type (0, 1), BuildingBlock: AJUNOK_clean_linker_0, # of connection points: 2
#     Edge 34, Type (0, 1), BuildingBlock: AJUNOK_clean_linker_0, # of connection points: 2
#     Edge 35, Type (0, 1), BuildingBlock: AJUNOK_clean_linker_0, # of connection points: 2
# Relax obj value: 0.317
# Max RMSD: 0.223
# Mean RMSD: 0.209
data_MOF--net-zzz--node1-CIFDUS_clean_sbu_1--node2-VETTIZ_charged_linker_0--edge1-AJUNOK_clean_linker_0
_symmetry_space_group_name_H-M    P1
_symmetry_Int_Tables_number       1
_symmetry_cell_setting            triclinic
loop_
_symmetry_equiv_pos_as_xyz
'x, y, z'
_cell_length_a     42.30794
_cell_length_b     44.598812
_cell_length_c     16.451244
_cell_angle_alpha  89.729928
_cell_angle_beta   89.865164
_cell_angle_gamma 88.091298
loop_
_atom_site_label
_atom_site_type_symbol
_atom_site_fract_x
_atom_site_fract_y
_atom_site_fract_z
_atom_type_partial_charge
C0 C 0.82169 0.57269 0.39915 0.0
C1 C 0.85107 0.58441 0.42527 0.0
C2 C 0.86148 0.61081 0.38747 0.0
C3 C 0.81993 0.60833 0.28837 0.0
C4 C 0.80583 0.58596 0.33111 0.0
C5 C 0.7734 0.58019 0.29382 0.0
H6 H 0.68687 0.59146 0.93783 0.0
C7 C 0.80335 0.61338 0.21176 0.0
C8 C 0.7744 0.59875 0.21448 0.0
H9 H 0.65041 0.55947 0.16652 0.0
H10 H 0.70088 0.57004 0.23165 0.0
H11 H 0.71863 0.65094 0.00477 0.0
H12 H 0.7438 0.56217 0.93935 0.0
H13 H 0.78174 0.57657 0.94569 0.0
H14 H 0.75358 0.59182 0.87252 0.0
H15 H 0.72167 0.63553 0.90425 0.0
H16 H 0.75484 0.65273 0.95198 0.0
C17 C 0.74793 0.59269 0.35271 0.0
C18 C 0.77007 0.54655 0.27722 0.0
C19 C 0.8749 0.61621 0.97069 0.0
C20 C 0.86796 0.60759 0.8911 0.0
C21 C 0.83775 0.61428 0.85943 0.0
C22 C 0.81337 0.62412 0.91148 0.0
C23 C 0.81921 0.62518 0.99557 0.0
C24 C 0.84995 0.62354 0.02341 0.0
C25 C 0.85186 0.62309 0.11466 0.0
C26 C 0.81667 0.62196 0.13654 0.0
C27 C 0.79808 0.62182 0.06629 0.0
C28 C 0.86769 0.65212 0.14267 0.0
C29 C 0.87066 0.59427 0.14199 0.0
C30 C 0.68841 0.58814 1.00289 0.0
C31 C 0.66349 0.57579 0.04664 0.0
C32 C 0.66873 0.56952 0.13051 0.0
C33 C 0.69793 0.57585 0.1687 0.0
C34 C 0.72223 0.5888 0.1231 0.0
C35 C 0.71669 0.59479 0.04164 0.0
C36 C 0.74455 0.60724 0.99924 0.0
C37 C 0.76709 0.61068 0.06967 0.0
C38 C 0.75481 0.59902 0.14285 0.0
C39 C 0.73454 0.63818 0.96242 0.0
C40 C 0.75663 0.58352 0.93584 0.0
H41 H 0.85313 0.64391 0.29493 0.0
H42 H 0.81188 0.55358 0.42982 0.0
H43 H 0.78961 0.53808 0.23732 0.0
H44 H 0.74742 0.54221 0.24662 0.0
H45 H 0.77086 0.5335 0.33491 0.0
H46 H 0.75269 0.61629 0.36897 0.0
H47 H 0.74776 0.57921 0.4097 0.0
H48 H 0.72407 0.59279 0.32617 0.0
H49 H 0.89846 0.61222 0.99481 0.0
H50 H 0.83227 0.60881 0.79704 0.0
H51 H 0.79039 0.62772 0.88548 0.0
H52 H 0.88137 0.66271 0.09298 0.0
H53 H 0.8852 0.64748 0.19162 0.0
H54 H 0.84983 0.66915 0.16405 0.0
H55 H 0.85992 0.57394 0.11644 0.0
H56 H 0.87163 0.59152 0.20849 0.0
H57 H 0.89571 0.59471 0.12201 0.0
H58 H 0.88308 0.62103 0.40643 0.0
C59 C 0.84536 0.6233 0.32085 0.0
C60 C 0.97564 0.83356 0.92137 0.0
C61 C 0.96729 0.86422 0.92899 0.0
C62 C 0.94296 0.87336 0.9834 0.0
C63 C 0.94673 0.8248 0.04405 0.0
C64 C 0.96371 0.81379 0.97909 0.0
C65 C 0.97039 0.78074 0.98916 0.0
H66 H 0.02734 0.66991 0.1288 0.0
C67 C 0.94923 0.80326 0.10992 0.0
C68 C 0.95605 0.77577 0.07424 0.0
H69 H 0.94914 0.66966 0.95759 0.0
H70 H 0.92909 0.71736 0.01349 0.0
H71 H 0.04188 0.74595 0.15365 0.0
H72 H 0.96579 0.70629 0.29162 0.0
H73 H 0.99792 0.72286 0.34466 0.0
H74 H 1.00442 0.68799 0.29299 0.0
H75 H 0.05078 0.71373 0.21725 0.0
H76 H 0.04097 0.74958 0.26271 0.0
C77 C 1.00646 0.77391 0.98791 0.0
C78 C 0.95384 0.76411 0.92025 0.0
C79 C 0.98929 0.85256 0.36119 0.0
C80 C 0.99686 0.84318 0.44 0.0
C81 C 1.00223 0.81172 0.4524 0.0
C82 C 0.99824 0.79062 0.38783 0.0
C83 C 0.98853 0.80092 0.31017 0.0
C84 C 0.98342 0.83166 0.30023 0.0
C85 C 0.96912 0.83989 0.22043 0.0
C86 C 0.96245 0.809 0.18723 0.0
C87 C 0.97705 0.78557 0.23423 0.0
C88 C 0.99481 0.85584 0.17047 0.0
C89 C 0.93855 0.85977 0.23272 0.0
C90 C 1.00569 0.6798 0.1042 0.0
C91 C 0.99072 0.66672 0.03464 0.0
C92 C 0.96169 0.67952 0.00771 0.0
C93 C 0.95044 0.70687 0.03808 0.0
C94 C 0.96812 0.72122 0.09638 0.0
C95 C 0.9924 0.70717 0.13738 0.0
C96 C 1.00052 0.72691 0.21191 0.0
C97 C 0.97905 0.75562 0.19873 0.0
C98 C 0.96349 0.75136 0.12484 0.0
C99 C 0.03565 0.73447 0.21135 0.0
C100 C 0.99162 0.71014 0.28995 0.0
H101 H 0.91465 0.86047 0.08514 0.0
H102 H 0.99292 0.82589 0.87679 0.0
H103 H 0.95844 0.77497 0.86059 0.0
H104 H 0.92784 0.76428 0.93005 0.0
H105 H 0.96312 0.7407 0.91453 0.0
H106 H 0.01845 0.78672 0.0361 0.0
H107 H 0.01685 0.77995 0.9282 0.0
H108 H 0.01178 0.74965 0.99816 0.0
H109 H 0.98653 0.87625 0.34723 0.0
H110 H 0.00866 0.80341 0.51224 0.0
H111 H 1.00148 0.76702 0.40035 0.0
H112 H 0.01578 0.84058 0.16028 0.0
H113 H 1.00284 0.87604 0.20282 0.0
H114 H 0.98632 0.86368 0.11054 0.0
H115 H 0.93514 0.86777 0.296 0.0
H116 H 0.91701 0.8472 0.21883 0.0
H117 H 0.93886 0.88032 0.19443 0.0
H118 H 0.93497 0.89665 0.98739 0.0
C119 C 0.93225 0.85326 0.04145 0.0
C120 C 0.83983 0.95119 0.10092 0.0
C121 C 0.85619 0.93878 0.03191 0.0
C122 C 0.8477 0.91033 1.00365 0.0
C123 C 0.8026 0.91167 0.09191 0.0
C124 C 0.81319 0.93612 0.13237 0.0
C125 C 0.79076 0.94323 0.20409 0.0
H126 H 0.63932 0.92077 0.34959 0.0
C127 C 0.77124 0.9049 0.11959 0.0
C128 C 0.76402 0.92095 0.19045 0.0
H129 H 0.70861 0.97463 0.46703 0.0
H130 H 0.74772 0.95916 0.36441 0.0
H131 H 0.63933 0.93558 0.21314 0.0
H132 H 0.68619 0.86126 0.30692 0.0
H133 H 0.67202 0.85241 0.20907 0.0
H134 H 0.64544 0.86968 0.282 0.0
H135 H 0.63334 0.90225 0.16091 0.0
H136 H 0.66177 0.92934 0.12495 0.0
C137 C 0.77849 0.97601 0.19855 0.0
C138 C 0.8087 0.93645 0.28364 0.0
C139 C 0.6841 0.91853 0.92989 0.0
C140 C 0.65181 0.91585 0.94692 0.0
C141 C 0.64169 0.89212 0.99595 0.0
C142 C 0.66385 0.87607 0.04339 0.0
C143 C 0.69517 0.88506 0.04111 0.0
C144 C 0.70592 0.90152 0.97642 0.0
C145 C 0.74111 0.90487 0.98184 0.0
C146 C 0.74673 0.89485 0.07039 0.0
C147 C 0.71807 0.88773 0.10697 0.0
C148 C 0.75004 0.93778 0.96558 0.0
C149 C 0.75703 0.88351 0.91946 0.0
C150 C 0.66309 0.92829 0.35765 0.0
C151 C 0.67019 0.94867 0.41868 0.0
C152 C 0.7017 0.95907 0.42056 0.0
C153 C 0.7246 0.95002 0.36133 0.0
C154 C 0.71622 0.93021 0.29935 0.0
C155 C 0.68585 0.91958 0.29982 0.0
C156 C 0.67897 0.90085 0.22782 0.0
C157 C 0.71101 0.89983 0.18529 0.0
C158 C 0.73316 0.91755 0.22633 0.0
C159 C 0.65216 0.91759 0.17872 0.0
C160 C 0.66998 0.86934 0.25774 0.0
H161 H 0.81377 0.87552 0.00909 0.0
H162 H 0.84635 0.97252 0.12581 0.0
H163 H 0.81895 0.91316 0.28316 0.0
H164 H 0.79314 0.93841 0.33735 0.0
H165 H 0.82837 0.95211 0.29114 0.0
H166 H 0.76716 0.98042 0.13856 0.0
H167 H 0.79821 0.99162 0.20566 0.0
H168 H 0.7607 0.98124 0.24617 0.0
H169 H 0.69173 0.93555 0.88781 0.0
H170 H 0.6167 0.88869 0.00535 0.0
H171 H 0.65567 0.86024 0.08757 0.0
H172 H 0.73786 0.95318 0.00938 0.0
H173 H 0.7436 0.94484 0.90282 0.0
H174 H 0.77584 0.94069 0.97037 0.0
H175 H 0.74458 0.88515 0.86003 0.0
H176 H 0.75658 0.85981 0.94058 0.0
H177 H 0.78175 0.88949 0.90688 0.0
H178 H 0.86038 0.89985 0.95337 0.0
C179 C 0.82078 0.89677 0.0333 0.0
C180 C 0.51286 0.71502 0.44399 0.0
C181 C 0.50925 0.68341 0.46039 0.0
C182 C 0.50033 0.66518 0.39647 0.0
C183 C 0.49885 0.70709 0.30241 0.0
C184 C 0.5079 0.72647 0.36232 0.0
C185 C 0.51003 0.75854 0.32476 0.0
H186 H 0.51065 0.83379 0.94432 0.0
C187 C 0.49601 0.72319 0.22429 0.0
C188 C 0.50344 0.75361 0.23289 0.0
H189 H 0.51185 0.8814 0.17125 0.0
H190 H 0.50966 0.83261 0.24637 0.0
H191 H 0.55503 0.77971 0.98722 0.0
H192 H 0.45491 0.79832 0.99356 0.0
H193 H 0.45945 0.76251 0.952 0.0
H194 H 0.47699 0.7934 0.90103 0.0
H195 H 0.53123 0.7786 0.8974 0.0
H196 H 0.53836 0.74569 0.96026 0.0
C197 C 0.54304 0.77086 0.33807 0.0
C198 C 0.48422 0.7792 0.36247 0.0
C199 C 0.45996 0.66174 0.99096 0.0
C200 C 0.46757 0.6623 0.90866 0.0
C201 C 0.48068 0.68782 0.87367 0.0
C202 C 0.48723 0.71243 0.92301 0.0
C203 C 0.48221 0.71022 0.00781 0.0
C204 C 0.47 0.68457 0.03962 0.0
C205 C 0.47667 0.68079 0.12772 0.0
C206 C 0.4884 0.7114 0.14787 0.0
C207 C 0.49156 0.72846 0.07788 0.0
C208 C 0.50391 0.65632 0.1348 0.0
C209 C 0.44504 0.6737 0.17113 0.0
C210 C 0.51147 0.83443 0.01013 0.0
C211 C 0.51238 0.86177 0.05028 0.0
C212 C 0.51157 0.8607 0.13722 0.0
C213 C 0.51037 0.83259 0.18081 0.0
C214 C 0.5092 0.80533 0.13726 0.0
C215 C 0.50917 0.80756 0.05291 0.0
C216 C 0.50338 0.779 0.0116 0.0
C217 C 0.49961 0.75859 0.08327 0.0
C218 C 0.50428 0.77256 0.1596 0.0
C219 C 0.53332 0.77022 0.96091 0.0
C220 C 0.47229 0.78325 0.96146 0.0
H221 H 0.4865 0.66066 0.27802 0.0
H222 H 0.51918 0.73 0.49241 0.0
H223 H 0.46049 0.76981 0.35319 0.0
H224 H 0.48414 0.80181 0.33435 0.0
H225 H 0.48811 0.78158 0.42888 0.0
H226 H 0.56145 0.7555 0.31131 0.0
H227 H 0.54793 0.77315 0.40406 0.0
H228 H 0.54491 0.79324 0.30895 0.0
H229 H 0.4519 0.64131 0.0193 0.0
H230 H 0.48747 0.68794 0.81014 0.0
H231 H 0.49733 0.73146 0.894 0.0
H232 H 0.51872 0.65508 0.07892 0.0
H233 H 0.49449 0.63369 0.14541 0.0
H234 H 0.52142 0.66127 0.18241 0.0
H235 H 0.4243 0.68355 0.1378 0.0
H236 H 0.44303 0.68354 0.23261 0.0
H237 H 0.44192 0.64912 0.1755 0.0
H238 H 0.49677 0.64143 0.40634 0.0
C239 C 0.49466 0.67666 0.31993 0.0
C240 C 0.34813 0.44598 0.33341 0.0
C241 C 0.36312 0.43806 0.40958 0.0
C242 C 0.34892 0.41532 0.4565 0.0
C243 C 0.30447 0.41477 0.36659 0.0
C244 C 0.31842 0.4338 0.31319 0.0
C245 C 0.29681 0.43857 0.2386 0.0
H246 H 0.14388 0.41902 0.09783 0.0
C247 C 0.27297 0.40832 0.3394 0.0
C248 C 0.26775 0.42006 0.26134 0.0
H249 H 0.21633 0.46579 0.96868 0.0
H250 H 0.25467 0.45119 0.07441 0.0
H251 H 0.18817 0.35994 0.15464 0.0
H252 H 0.14342 0.43753 0.2307 0.0
H253 H 0.16477 0.43324 0.3214 0.0
H254 H 0.13598 0.40601 0.29053 0.0
H255 H 0.14775 0.36959 0.18023 0.0
H256 H 0.1747 0.35371 0.25476 0.0
C257 C 0.31379 0.42594 0.16285 0.0
C258 C 0.288 0.47218 0.23018 0.0
C259 C 0.18351 0.4257 0.52345 0.0
C260 C 0.15141 0.42184 0.50752 0.0
C261 C 0.14198 0.39756 0.46017 0.0
C262 C 0.16458 0.38159 0.41418 0.0
C263 C 0.19567 0.39121 0.41581 0.0
C264 C 0.20571 0.40896 0.47807 0.0
C265 C 0.24081 0.41256 0.47425 0.0
C266 C 0.24758 0.40014 0.3887 0.0
C267 C 0.21952 0.39192 0.3516 0.0
C268 C 0.2559 0.39344 0.54333 0.0
C269 C 0.24905 0.44599 0.48236 0.0
C270 C 0.16808 0.42535 0.08896 0.0
C271 C 0.17646 0.44338 0.0232 0.0
C272 C 0.20855 0.45209 0.01887 0.0
C273 C 0.23088 0.44376 0.08026 0.0
C274 C 0.22119 0.42673 0.14754 0.0
C275 C 0.19017 0.4177 0.14952 0.0
C276 C 0.18212 0.40153 0.22573 0.0
C277 C 0.21381 0.40102 0.26966 0.0
C278 C 0.23713 0.41617 0.22458 0.0
C279 C 0.17246 0.36949 0.20303 0.0
C280 C 0.15539 0.4203 0.26982 0.0
H281 H 0.31133 0.38455 0.4677 0.0
H282 H 0.35875 0.4612 0.29097 0.0
H283 H 0.27722 0.48082 0.28756 0.0
H284 H 0.27074 0.47653 0.18094 0.0
H285 H 0.30935 0.48522 0.21689 0.0
H286 H 0.32161 0.40218 0.17327 0.0
H287 H 0.33499 0.43906 0.14855 0.0
H288 H 0.29815 0.42646 0.10916 0.0
H289 H 0.19069 0.44315 0.56428 0.0
H290 H 0.11714 0.39339 0.45133 0.0
H291 H 0.15687 0.365 0.37211 0.0
H292 H 0.24114 0.3947 0.59934 0.0
H293 H 0.27918 0.40186 0.56155 0.0
H294 H 0.25851 0.36946 0.5256 0.0
H295 H 0.23679 0.45981 0.43482 0.0
H296 H 0.27482 0.44909 0.47655 0.0
H297 H 0.24216 0.45483 0.54307 0.0
H298 H 0.35864 0.4075 0.51365 0.0
C299 C 0.32054 0.40296 0.43338 0.0
C300 C 0.98779 0.19527 0.52746 0.0
C301 C 0.00749 0.1694 0.5352 0.0
C302 C 0.03565 0.16674 0.48893 0.0
C303 C 0.01848 0.20917 0.41115 0.0
C304 C 0.99434 0.21545 0.46492 0.0
C305 C 0.97699 0.2444 0.44333 0.0
H306 H 0.03449 0.36179 0.31851 0.0
C307 C 0.01499 0.22874 0.34187 0.0
C308 C 0.9919 0.25074 0.36004 0.0
H309 H 0.9545 0.35183 0.48067 0.0
H310 H 0.94162 0.30547 0.41197 0.0
H311 H 0.0625 0.29159 0.29192 0.0
H312 H 0.98405 0.32328 0.13972 0.0
H313 H 0.0199 0.30872 0.09293 0.0
H314 H 0.01953 0.34452 0.14358 0.0
H315 H 0.06642 0.32542 0.23266 0.0
H316 H 0.06625 0.28961 0.18286 0.0
C317 C 0.98483 0.26763 0.50962 0.0
C318 C 0.94126 0.23913 0.43665 0.0
C319 C 0.03444 0.1811 0.07272 0.0
C320 C 0.02128 0.18744 0.99628 0.0
C321 C 0.00798 0.21696 0.98387 0.0
C322 C 0.00803 0.23909 0.04665 0.0
C323 C 0.02095 0.23158 0.12312 0.0
C324 C 0.03283 0.2025 0.1351 0.0
C325 C 0.03769 0.1952 0.2232 0.0
C326 C 0.02569 0.22449 0.26179 0.0
C327 C 0.01864 0.24682 0.20422 0.0
C328 C 0.07342 0.18853 0.23859 0.0
C329 C 0.01674 0.16827 0.24494 0.0
C330 C 0.01397 0.34992 0.33854 0.0
C331 C 0.99656 0.35973 0.40908 0.0
C332 C 0.96912 0.34429 0.43008 0.0
C333 C 0.96191 0.31747 0.39195 0.0
C334 C 0.98235 0.3058 0.33276 0.0
C335 C 1.00511 0.323 0.29836 0.0
C336 C 0.01961 0.30577 0.22562 0.0
C337 C 1.00418 0.27481 0.23128 0.0
C338 C 0.98667 0.2749 0.30484 0.0
C339 C 0.05585 0.30295 0.23381 0.0
C340 C 0.01022 0.32152 0.1457 0.0
H341 H 0.06273 0.1845 0.39233 0.0
H342 H 0.96685 0.19841 0.56485 0.0
H343 H 0.93694 0.21904 0.39897 0.0
H344 H 0.92854 0.25837 0.40752 0.0
H345 H 0.93074 0.23558 0.49777 0.0
H346 H 1.00634 0.28003 0.49345 0.0
H347 H 0.9893 0.25673 0.56964 0.0
H348 H 0.96489 0.28374 0.52103 0.0
H349 H 0.0433 0.15864 0.08668 0.0
H350 H 0.99682 0.22267 0.92645 0.0
H351 H 0.9967 0.2609 0.0367 0.0
H352 H 0.08762 0.18837 0.18159 0.0
H353 H 0.07759 0.16615 0.26725 0.0
H354 H 0.08371 0.20578 0.27824 0.0
H355 H 0.99155 0.17354 0.22976 0.0
H356 H 0.01775 0.16176 0.3094 0.0
H357 H 0.02441 0.14777 0.2113 0.0
H358 H 0.05147 0.14722 0.49349 0.0
C359 C 0.04168 0.18734 0.42816 0.0
C360 C 0.31583 0.06568 0.05329 0.0
C361 C 0.34307 0.07966 0.02062 0.0
C362 C 0.34787 0.11001 0.03901 0.0
C363 C 0.30707 0.10835 0.1401 0.0
C364 C 0.29719 0.08136 0.11252 0.0
C365 C 0.26751 0.07287 0.16031 0.0
H366 H 0.1858 0.10174 0.52108 0.0
C367 C 0.29312 0.11431 0.21913 0.0
C368 C 0.26718 0.09587 0.23025 0.0
H369 H 0.15458 0.04264 0.3325 0.0
H370 H 0.20017 0.05594 0.24871 0.0
H371 H 0.2436 0.07036 0.52527 0.0
H372 H 0.22048 0.15636 0.43058 0.0
H373 H 0.25609 0.15732 0.48777 0.0
H374 H 0.221 0.1434 0.5344 0.0
H375 H 0.25786 0.10212 0.57549 0.0
H376 H 0.28163 0.08196 0.50034 0.0
C377 C 0.27078 0.04044 0.19197 0.0
C378 C 0.23876 0.07771 0.10408 0.0
C379 C 0.37539 0.11945 0.43057 0.0
C380 C 0.37211 0.10874 0.51006 0.0
C381 C 0.34416 0.11644 0.55296 0.0
C382 C 0.31769 0.12808 0.51069 0.0
C383 C 0.31906 0.1296 0.4255 0.0
C384 C 0.34815 0.12778 0.38724 0.0
C385 C 0.34545 0.12627 0.2965 0.0
C386 C 0.30945 0.12489 0.28743 0.0
C387 C 0.29448 0.12533 0.36345 0.0
C388 C 0.36314 0.09711 0.26671 0.0
C389 C 0.35954 0.15488 0.25965 0.0
C390 C 0.18796 0.09188 0.46125 0.0
C391 C 0.16581 0.0714 0.43421 0.0
C392 C 0.17048 0.05914 0.35523 0.0
C393 C 0.19702 0.06668 0.30658 0.0
C394 C 0.21964 0.08608 0.33765 0.0
C395 C 0.21486 0.09768 0.41481 0.0
C396 C 0.24367 0.11194 0.44756 0.0
C397 C 0.26431 0.11256 0.37216 0.0
C398 C 0.25075 0.09691 0.30706 0.0
C399 C 0.25753 0.0908 0.51556 0.0
C400 C 0.23491 0.144 0.47709 0.0
H401 H 0.33326 0.14781 0.11247 0.0
H402 H 0.31039 0.04302 0.03634 0.0
H403 H 0.23786 0.10097 0.07935 0.0
H404 H 0.21624 0.07432 0.13605 0.0
H405 H 0.24028 0.06192 0.05201 0.0
H406 H 0.29256 0.03739 0.22921 0.0
H407 H 0.27217 0.02435 0.14063 0.0
H408 H 0.2503 0.03473 0.23042 0.0
H409 H 0.3974 0.11576 0.39817 0.0
H410 H 0.34181 0.11068 0.61667 0.0
H411 H 0.29642 0.13299 0.54421 0.0
H412 H 0.35415 0.07709 0.29875 0.0
H413 H 0.38899 0.098 0.27687 0.0
H414 H 0.36105 0.09317 0.20119 0.0
H415 H 0.37804 0.16408 0.2995 0.0
H416 H 0.341 0.17282 0.25059 0.0
H417 H 0.3717 0.15017 0.20114 0.0
H418 H 0.36713 0.12178 0.01114 0.0
C419 C 0.32929 0.12472 0.09772 0.0
C420 C 0.50845 0.31551 0.02873 0.0
C421 C 0.49535 0.34547 0.01281 0.0
C422 C 0.47373 0.35729 0.07077 0.0
C423 C 0.485 0.31623 0.16317 0.0
C424 C 0.50171 0.30068 0.10487 0.0
C425 C 0.5096 0.26863 0.13888 0.0
H426 H 0.52166 0.1892 0.51213 0.0
C427 C 0.48739 0.30045 0.24117 0.0
C428 C 0.49869 0.27065 0.22938 0.0
H429 H 0.49843 0.14291 0.29268 0.0
H430 H 0.49723 0.19158 0.21686 0.0
H431 H 0.56671 0.23777 0.44183 0.0
H432 H 0.46826 0.23021 0.49434 0.0
H433 H 0.47596 0.26686 0.52272 0.0
H434 H 0.49721 0.23614 0.57162 0.0
H435 H 0.55108 0.24253 0.54233 0.0
H436 H 0.55525 0.27392 0.4736 0.0
C437 C 0.54523 0.26123 0.13278 0.0
C438 C 0.4905 0.24581 0.09168 0.0
C439 C 0.50146 0.36983 0.47757 0.0
C440 C 0.51359 0.36525 0.55588 0.0
C441 C 0.5192 0.3362 0.58574 0.0
C442 C 0.51358 0.31174 0.5359 0.0
C443 C 0.50294 0.31671 0.45534 0.0
C444 C 0.49672 0.34543 0.42812 0.0
C445 C 0.4873 0.34717 0.34052 0.0
C446 C 0.48899 0.31393 0.31862 0.0
C447 C 0.49867 0.29676 0.38555 0.0
C448 C 0.51248 0.36542 0.29485 0.0
C449 C 0.4534 0.36156 0.33524 0.0
C450 C 0.51689 0.18888 0.44738 0.0
C451 C 0.50992 0.16209 0.40981 0.0
C452 C 0.50394 0.16328 0.3244 0.0
C453 C 0.50352 0.19132 0.28026 0.0
C454 C 0.50934 0.21838 0.32154 0.0
C455 C 0.51511 0.21599 0.40458 0.0
C456 C 0.51441 0.24517 0.44639 0.0
C457 C 0.50559 0.26595 0.3775 0.0
C458 C 0.50454 0.25164 0.30105 0.0
C459 C 0.54843 0.25023 0.47833 0.0
C460 C 0.48788 0.24476 0.51264 0.0
H461 H 0.45049 0.35209 0.18379 0.0
H462 H 0.52334 0.30424 0.98407 0.0
H463 H 0.46471 0.25008 0.10105 0.0
H464 H 0.4967 0.22263 0.11139 0.0
H465 H 0.49559 0.24744 0.02552 0.0
H466 H 0.55886 0.27826 0.16565 0.0
H467 H 0.55301 0.26093 0.06821 0.0
H468 H 0.5509 0.23886 0.1601 0.0
H469 H 0.49742 0.39228 0.45338 0.0
H470 H 0.52868 0.33256 0.64626 0.0
H471 H 0.51855 0.29011 0.56207 0.0
H472 H 0.53641 0.35466 0.30225 0.0
H473 H 0.5132 0.38867 0.31846 0.0
H474 H 0.5079 0.3677 0.22929 0.0
H475 H 0.44439 0.37004 0.39471 0.0
H476 H 0.43605 0.34505 0.31467 0.0
H477 H 0.45256 0.38126 0.29365 0.0
H478 H 0.46219 0.3791 0.06244 0.0
C479 C 0.46778 0.3424 0.14346 0.0
O480 O 0.01352 0.05465 0.79471 0.0
Mn481 Mn 0.00815 0.01115 0.73731 0.0
O482 O 0.96513 0.07647 0.79312 0.0
Mn483 Mn 0.94643 0.04505 0.74183 0.0
O484 O 1.00223 0.96774 0.6789 0.0
O485 O 0.05556 0.01222 0.69578 0.0
Mn486 Mn 0.06875 0.97542 0.72894 0.0
O487 O 0.01958 0.99207 0.8482 0.0
O488 O 0.05077 0.9468 0.66602 0.0
O489 O 0.99775 0.03139 0.62659 0.0
O490 O 0.9479 0.04567 0.63082 0.0
O491 O 0.1042 0.99028 0.69015 0.0
O492 O 0.06501 0.96744 0.8381 0.0
C493 C 0.93123 0.00899 0.80801 0.0
C494 C 0.99425 0.07726 0.81107 0.0
C495 C 0.02124 0.94605 0.6539 0.0
C496 C 0.08538 0.01267 0.67008 0.0
C497 C 0.03727 0.96946 0.86643 0.0
C498 C 0.9753 0.04891 0.60275 0.0
O499 O 0.96086 0.00972 0.78094 0.0
O500 O 0.91213 0.03128 0.78922 0.0
O501 O 0.53642 1.00009 0.82273 0.0
Mn502 Mn 0.50674 0.01131 0.72872 0.0
O503 O 0.57057 0.03596 0.84404 0.0
Mn504 Mn 0.56415 0.05173 0.74023 0.0
O505 O 0.4769 0.0215 0.63457 0.0
O506 O 0.48903 0.96968 0.74997 0.0
Mn507 Mn 0.44929 0.9704 0.71676 0.0
O508 O 0.47035 0.02839 0.80865 0.0
O509 O 0.44731 0.98239 0.60866 0.0
O510 O 0.54289 0.99472 0.64597 0.0
O511 O 0.5827 0.02676 0.66374 0.0
O512 O 0.45702 0.93303 0.76317 0.0
O513 O 0.42906 0.99867 0.78295 0.0
C514 C 0.52971 0.07995 0.67957 0.0
C515 C 0.56072 0.00975 0.85806 0.0
C516 C 0.45573 0.00898 0.59297 0.0
C517 C 0.48369 0.94389 0.78507 0.0
C518 C 0.44096 0.02116 0.818 0.0
C519 C 0.57102 0.0042 0.62863 0.0
O520 O 0.52414 0.05327 0.7094 0.0
O521 O 0.55622 0.09042 0.70449 0.0
O522 O 0.49388 0.52678 0.83297 0.0
Mn523 Mn 0.51288 0.51298 0.72237 0.0
O524 O 0.44348 0.529 0.81226 0.0
Mn525 Mn 0.44823 0.53908 0.70525 0.0
O526 O 0.53349 0.50152 0.6117 0.0
O527 O 0.55689 0.51695 0.78303 0.0
Mn528 Mn 0.5774 0.484 0.74394 0.0
O529 O 0.50968 0.46689 0.76786 0.0
O530 O 0.58145 0.48646 0.63307 0.0
O531 O 0.51572 0.55906 0.68156 0.0
O532 O 0.46536 0.57567 0.67651 0.0
O533 O 0.6071 0.5002 0.80359 0.0
O534 O 0.55949 0.45013 0.78784 0.0
C535 C 0.44131 0.50712 0.61903 0.0
C536 C 0.46665 0.53727 0.85266 0.0
C537 C 0.55549 0.48209 0.59895 0.0
C538 C 0.58442 0.51938 0.82082 0.0
C539 C 0.52993 0.44628 0.79389 0.0
C540 C 0.49469 0.58033 0.6672 0.0
O541 O 0.46916 0.50852 0.65686 0.0
O542 O 0.41882 0.52604 0.63955 0.0
O543 O 0.04803 0.49153 0.80292 0.0
Mn544 Mn 0.00866 0.5106 0.73291 0.0
O545 O 0.085 0.52638 0.79449 0.0
Mn546 Mn 0.06303 0.55052 0.72323 0.0
O547 O 0.96957 0.53004 0.66396 0.0
O548 O 0.99322 0.46784 0.70203 0.0
Mn549 Mn 0.95248 0.46873 0.72973 0.0
O550 O 0.98305 0.51375 0.83902 0.0
O551 O 0.93322 0.49429 0.65543 0.0
O552 O 0.03378 0.50499 0.62722 0.0
O553 O 0.07061 0.53853 0.61754 0.0
O554 O 0.96014 0.43045 0.69694 0.0
O555 O 0.94533 0.48116 0.83509 0.0
C556 C 0.03327 0.58131 0.78151 0.0
C557 C 0.07572 0.50148 0.82165 0.0
C558 C 0.94298 0.52013 0.63682 0.0
C559 C 0.98721 0.44069 0.6751 0.0
C560 C 0.9545 0.50712 0.85268 0.0
C561 C 0.05912 0.51404 0.59577 0.0
O562 O 0.02367 0.55402 0.76296 0.0
O563 O 0.06014 0.58917 0.75112 0.0
C564 C 0.15031 0.05645 0.57675 0.0
C565 C 0.1415 0.06033 0.49443 0.0
C566 C 0.12985 0.04468 0.63498 0.0
C567 C 0.09946 0.03536 0.61483 0.0
H568 H 0.17404 0.06103 0.59654 0.0
H569 H 0.13894 0.04071 0.69578 0.0
S570 S 0.06281 0.04254 0.41062 0.0
N571 N 0.09836 0.05618 0.39788 0.0
N572 N 0.06063 0.03214 0.50702 0.0
C573 C 0.08948 0.04006 0.53387 0.0
C574 C 0.11031 0.05276 0.47399 0.0
C575 C 0.48933 0.13697 0.53736 0.0
C576 C 0.50782 0.13481 0.4653 0.0
C577 C 0.4937 0.11689 0.60383 0.0
C578 C 0.51647 0.09317 0.60163 0.0
H579 H 0.47278 0.15582 0.54484 0.0
H580 H 0.48072 0.12134 0.65953 0.0
S581 S 0.57044 0.07642 0.42765 0.0
N582 N 0.5492 0.10601 0.39628 0.0
N583 N 0.55706 0.06822 0.51927 0.0
C584 C 0.53377 0.08965 0.52821 0.0
C585 C 0.52948 0.11027 0.46072 0.0
C586 C 0.40974 0.44007 0.50929 0.0
C587 C 0.39135 0.45392 0.44606 0.0
C588 C 0.42886 0.45664 0.56189 0.0
C589 C 0.43344 0.48726 0.54933 0.0
H590 H 0.40794 0.41646 0.5228 0.0
H591 H 0.43778 0.44599 0.61678 0.0
S592 S 0.39764 0.53391 0.38398 0.0
N593 N 0.38266 0.50062 0.37068 0.0
N594 N 0.42187 0.53009 0.46201 0.0
C595 C 0.41889 0.50055 0.48028 0.0
C596 C 0.39754 0.48433 0.43002 0.0
C597 C 1.00001 0.41385 0.45837 0.0
C598 C 0.00698 0.38291 0.46958 0.0
C599 C 0.99863 0.43411 0.52513 0.0
C600 C 1.0035 0.42422 0.60623 0.0
H601 H 0.99285 0.42202 0.39888 0.0
H602 H 0.99029 0.45699 0.514 0.0
S603 S 0.02416 0.34588 0.66779 0.0
N604 N 0.02159 0.34425 0.5678 0.0
N605 N 0.01664 0.3813 0.69181 0.0
C606 C 0.01223 0.39372 0.61692 0.0
C607 C 0.01465 0.37346 0.54929 0.0
C608 C 0.90803 0.96437 0.99692 0.0
C609 C 0.87699 0.95641 0.97665 0.0
C610 C 0.92765 0.9789 0.93957 0.0
C611 C 0.91714 0.98517 0.85956 0.0
H612 H 0.91704 0.95959 0.05731 0.0
H613 H 0.9505 0.98642 0.95898 0.0
S614 S 0.83846 0.9677 0.77585 0.0
N615 N 0.83722 0.9557 0.87074 0.0
N616 N 0.87404 0.98113 0.76362 0.0
C617 C 0.88669 0.97607 0.8386 0.0
C618 C 0.86669 0.96227 0.89675 0.0
C619 C 0.5298 0.88935 0.92298 0.0
C620 C 0.51189 0.88971 0.99616 0.0
C621 C 0.52255 0.90879 0.85692 0.0
C622 C 0.4987 0.93136 0.86179 0.0
H623 H 0.54776 0.87183 0.91346 0.0
H624 H 0.53378 0.90422 0.79917 0.0
S625 S 0.44674 0.94493 0.04138 0.0
N626 N 0.46974 0.91606 0.06954 0.0
N627 N 0.45834 0.95422 0.9489 0.0
C628 C 0.48244 0.93382 0.93697 0.0
C629 C 0.48875 0.91302 1.0033 0.0
C630 C 0.62072 0.53882 0.01839 0.0
C631 C 0.63431 0.56655 1.0011 0.0
C632 C 0.59951 0.5258 0.96408 0.0
C633 C 0.59109 0.53961 0.88948 0.0
H634 H 0.62858 0.52568 0.07047 0.0
H635 H 0.59237 0.50311 0.9765 0.0
S636 S 0.61335 0.61545 0.82354 0.0
N637 N 0.63164 0.61041 0.91146 0.0
N638 N 0.59431 0.58436 0.80673 0.0
C639 C 0.60197 0.56845 0.87491 0.0
C640 C 0.62278 0.58231 0.93142 0.0
C641 C 1.00388 0.61278 0.98867 0.0
C642 C 1.00579 0.64411 0.97718 0.0
C643 C 0.0114 0.59215 0.92495 0.0
C644 C 0.01928 0.60203 0.84565 0.0
H645 H 0.99611 0.60418 0.04677 0.0
H646 H 0.01121 0.56834 0.93802 0.0
S647 S 0.02717 0.6817 0.78389 0.0
N648 N 0.01699 0.68358 0.88066 0.0
N649 N 0.02895 0.64565 0.76156 0.0
C650 C 0.02106 0.6333 0.83426 0.0
C651 C 0.0147 0.65398 0.89924 0.0
C652 C 0.96696 0.13118 0.54913 0.0
C653 C 0.9961 0.14222 0.57423 0.0
C654 C 0.96072 0.10074 0.55709 0.0
C655 C 0.98375 0.08032 0.58809 0.0
H656 H 0.9498 0.14564 0.51794 0.0
H657 H 0.93807 0.093 0.53676 0.0
S658 S 0.06205 0.10002 0.67286 0.0
N659 N 0.04555 0.13227 0.64412 0.0
N660 N 0.03631 0.0745 0.64929 0.0
C661 C 0.01246 0.09172 0.61677 0.0
C662 C 0.01773 0.12289 0.61351 0.0
C663 C 0.42563 0.08343 0.51652 0.0
C664 C 0.39317 0.08303 0.53482 0.0
C665 C 0.44514 0.05775 0.52518 0.0
C666 C 0.43328 0.03064 0.55449 0.0
H667 H 0.43602 0.1038 0.49469 0.0
H668 H 0.47018 0.05951 0.51301 0.0
S669 S 0.34951 0.01679 0.60581 0.0
N670 N 0.34942 0.05228 0.57697 0.0
N671 N 0.38663 0.0045 0.59857 0.0
C672 C 0.40068 0.02953 0.5707 0.0
C673 C 0.38062 0.05565 0.56057 0.0
C674 C 0.50249 0.41598 0.60134 0.0
C675 C 0.52395 0.3916 0.59858 0.0
C676 C 0.51304 0.44501 0.59777 0.0
C677 C 0.5455 0.45078 0.59948 0.0
H678 H 0.4775 0.41227 0.59505 0.0
H679 H 0.49551 0.46296 0.59224 0.0
S680 S 0.61116 0.39348 0.60979 0.0
N681 N 0.57873 0.37394 0.60602 0.0
N682 N 0.59914 0.42909 0.60875 0.0
C683 C 0.56727 0.42626 0.60582 0.0
C684 C 0.55633 0.39649 0.60531 0.0
C685 C 0.12707 0.47295 0.4884 0.0
C686 C 0.12815 0.44523 0.52984 0.0
C687 C 0.10403 0.49518 0.50769 0.0
C688 C 0.08127 0.48991 0.56781 0.0
H689 H 0.14413 0.47736 0.44096 0.0
H690 H 0.1041 0.51652 0.476 0.0
S691 S 0.0779 0.42166 0.6991 0.0
N692 N 0.1072 0.41426 0.63573 0.0
N693 N 0.06368 0.45521 0.67314 0.0
C694 C 0.08285 0.46206 0.60995 0.0
C695 C 0.10635 0.43987 0.59053 0.0
C696 C 0.97333 0.91256 0.85936 0.0
C697 C 0.98763 0.88737 0.89636 0.0
C698 C 0.98966 0.93886 0.85082 0.0
C699 C 0.02102 0.94107 0.87824 0.0
H700 H 0.94872 0.91246 0.8411 0.0
H701 H 0.97731 0.95763 0.82266 0.0
S702 S 0.07031 0.87996 0.97099 0.0
N703 N 0.03565 0.86497 0.95565 0.0
N704 N 0.06682 0.91476 0.93655 0.0
C705 C 0.03639 0.91532 0.9102 0.0
C706 C 0.0196 0.88836 0.91974 0.0
C707 C 0.62513 0.96567 0.97299 0.0
C708 C 0.62926 0.93996 0.92405 0.0
C709 C 0.60281 0.98853 0.95242 0.0
C710 C 0.58378 0.98582 0.8833 0.0
H711 H 0.63922 0.96805 0.02731 0.0
H712 H 0.60024 0.00812 0.99082 0.0
S713 S 0.58941 0.92378 0.73217 0.0
N714 N 0.61529 0.91392 0.80252 0.0
N715 N 0.57299 0.95589 0.76271 0.0
C716 C 0.58857 0.96014 0.83356 0.0
C717 C 0.61139 0.93739 0.85434 0.0
C718 C 0.44395 0.61979 0.84199 0.0
C719 C 0.47103 0.63279 0.87239 0.0
C720 C 0.44159 0.58869 0.84125 0.0
C721 C 0.46644 0.56961 0.87061 0.0
H722 H 0.42376 0.63377 0.82349 0.0
H723 H 0.42031 0.57965 0.81603 0.0
S724 S 0.53959 0.59396 0.97026 0.0
N725 N 0.52191 0.62528 0.93819 0.0
N726 N 0.51701 0.56664 0.94047 0.0
C727 C 0.49329 0.58269 0.9031 0.0
C728 C 0.49601 0.61425 0.90151 0.0
C729 C 0.92087 0.58704 0.85233 0.0
C730 C 0.8882 0.58335 0.85652 0.0
C731 C 0.94168 0.56217 0.84931 0.0
C732 C 0.93096 0.53262 0.85274 0.0
H733 H 0.93044 0.60924 0.85611 0.0
H734 H 0.96649 0.56624 0.8453 0.0
S735 S 0.84692 0.51125 0.84993 0.0
N736 N 0.84542 0.54825 0.85306 0.0
N737 N 0.88487 0.50137 0.84862 0.0
C738 C 0.89812 0.5287 0.85029 0.0
C739 C 0.87674 0.55412 0.85178 0.0
C740 C 0.9881 0.15713 0.90028 0.0
C741 C 0.01749 0.16155 0.93722 0.0
C742 C 0.98174 0.13043 0.85847 0.0
C743 C 1.00425 0.1062 0.85102 0.0
H744 H 0.96912 0.17383 0.907 0.0
H745 H 0.95823 0.12866 0.83348 0.0
S746 S 0.08677 0.10782 0.92619 0.0
N747 N 0.07095 0.14048 0.95473 0.0
N748 N 0.05852 0.0902 0.87871 0.0
C749 C 0.03437 0.11092 0.88383 0.0
C750 C 0.04103 0.13842 0.92605 0.0
C751 C 0.36253 0.05664 0.88923 0.0
C752 C 0.36795 0.06353 0.97103 0.0
C753 C 0.38697 0.04456 0.83969 0.0
C754 C 0.41802 0.03902 0.86936 0.0
H755 H 0.33934 0.06095 0.86305 0.0
H756 H 0.3814 0.03914 0.77732 0.0
S757 S 0.44429 0.05272 0.08021 0.0
N758 N 0.40666 0.06396 0.07996 0.0
N759 N 0.45231 0.04097 0.98702 0.0
C760 C 0.4238 0.04609 0.95093 0.0
C761 C 0.39886 0.05836 1.00155 0.0
C762 C 0.48069 0.3875 0.90978 0.0
C763 C 0.50361 0.36636 0.94145 0.0
C764 C 0.48872 0.41228 0.85989 0.0
C765 C 0.52017 0.41726 0.83651 0.0
H766 H 0.45605 0.38566 0.9263 0.0
H767 H 0.47014 0.42823 0.84201 0.0
S768 S 0.58891 0.36586 0.88793 0.0
N769 N 0.55899 0.35088 0.93608 0.0
N770 N 0.57396 0.39562 0.83995 0.0
C771 C 0.54295 0.39473 0.8613 0.0
C772 C 0.53477 0.36985 0.91351 0.0
C773 C 0.15226 0.4858 0.94042 0.0
C774 C 0.15085 0.45593 0.96692 0.0
C775 C 0.12772 0.49969 0.89554 0.0
C776 C 0.09978 0.48482 0.87435 0.0
H777 H 0.17219 0.49919 0.95634 0.0
H778 H 0.13095 0.52281 0.87796 0.0
S779 S 0.08332 0.40608 0.92835 0.0
N780 N 0.11895 0.41118 0.96559 0.0
N781 N 0.07195 0.43836 0.88637 0.0
C782 C 0.09758 0.45501 0.90117 0.0
C783 C 0.12318 0.44038 0.94576 0.0
C784 C 0.02508 0.8673 0.55854 0.0
C785 C 0.99907 0.86704 0.5056 0.0
C786 C 0.03062 0.8922 0.60884 0.0
C787 C 0.01053 0.9184 0.60947 0.0
H788 H 0.0423 0.84878 0.55814 0.0
H789 H 0.05176 0.89122 0.64589 0.0
S790 S 0.93629 0.92761 0.49148 0.0
N791 N 0.95052 0.89411 0.46505 0.0
N792 N 0.96166 0.94082 0.55741 0.0
C793 C 0.98327 0.91765 0.56104 0.0
C794 C 0.97745 0.89216 0.50986 0.0
C795 C 0.64436 0.99157 0.49604 0.0
C796 C 0.64395 0.96132 0.47291 0.0
C797 C 0.61996 0.00496 0.54236 0.0
C798 C 0.59319 0.98917 0.56826 0.0
H799 H 0.66355 0.00552 0.47733 0.0
H800 H 0.62247 0.02828 0.55844 0.0
S801 S 0.57785 0.91011 0.51758 0.0
N802 N 0.61318 0.91579 0.47877 0.0
N803 N 0.56604 0.94231 0.55858 0.0
C804 C 0.59123 0.95941 0.54175 0.0
C805 C 0.61684 0.94519 0.49652 0.0
C806 C 0.48283 0.66058 0.58078 0.0
C807 C 0.51143 0.66658 0.54055 0.0
C808 C 0.47871 0.63384 0.62579 0.0
C809 C 0.5029 0.61115 0.63349 0.0
H810 H 0.46226 0.6752 0.57016 0.0
H811 H 0.45539 0.63019 0.65045 0.0
S812 S 0.58418 0.61763 0.55122 0.0
N813 N 0.56562 0.64874 0.51978 0.0
N814 N 0.55817 0.59905 0.60505 0.0
C815 C 0.53256 0.61813 0.60028 0.0
C816 C 0.53671 0.64551 0.55408 0.0
C817 C 0.88029 0.53778 0.47528 0.0
C818 C 0.87278 0.56849 0.48522 0.0
C819 C 0.90385 0.52304 0.52241 0.0
C820 C 0.92138 0.53819 0.58175 0.0
H821 H 0.86843 0.52511 0.42907 0.0
H822 H 0.90842 0.49931 0.51208 0.0
S823 S 0.90927 0.61814 0.63753 0.0
N824 N 0.88363 0.61322 0.56353 0.0
N825 N 0.92818 0.58546 0.65054 0.0
C826 C 0.91397 0.56881 0.59318 0.0
C827 C 0.88965 0.58388 0.54561 0.0
loop_
_geom_bond_atom_site_label_1
_geom_bond_atom_site_label_2
_geom_bond_distance
_geom_bond_site_symmetry_2
_ccdc_geom_bond_type
C0 C1 1.391 . S
C0 C4 1.391 . S
C0 H42 0.948 . S
C1 C0 1.391 . S
C1 C2 1.391 . S
C2 C1 1.391 . S
C2 H58 0.947 . S
C2 C59 1.392 . S
C3 C4 1.391 . S
C3 C7 1.397 . S
C3 C59 1.419 . S
C4 C0 1.391 . S
C4 C3 1.391 . S
C4 C5 1.399 . S
C5 C4 1.399 . S
C5 C8 1.396 . S
C5 C17 1.453 . S
C5 C18 1.684 . S
H6 C30 0.948 . S
C7 C3 1.397 . S
C7 C8 1.394 . S
C7 C26 1.723 . S
C8 C5 1.396 . S
C8 C7 1.394 . S
C8 C38 1.723 . S
H9 C32 0.947 . S
H10 C33 0.948 . S
H11 C39 0.982 . S
H12 C40 0.979 . S
H13 C40 0.980 . S
H14 C40 0.983 . S
H15 C39 0.979 . S
H16 C39 0.977 . S
C17 C5 1.453 . S
C17 H46 0.982 . S
C17 H47 0.979 . S
C17 H48 0.977 . S
C18 C5 1.684 . S
C18 H43 0.979 . S
C18 H44 0.980 . S
C18 H45 0.983 . S
C19 C20 1.391 . S
C19 C24 1.391 . S
C19 H49 0.948 . S
C20 C19 1.391 . S
C20 C21 1.391 . S
C21 C20 1.391 . S
C21 C22 1.392 . S
C21 H50 0.947 . S
C22 C21 1.392 . S
C22 C23 1.419 . S
C22 H51 0.948 . S
C23 C22 1.419 . S
C23 C24 1.391 . S
C23 C27 1.397 1_556 S
C24 C19 1.391 . S
C24 C23 1.391 . S
C24 C25 1.399 1_556 S
C25 C24 1.399 1_554 S
C25 C26 1.396 . S
C25 C28 1.453 . S
C25 C29 1.684 . S
C26 C7 1.723 . S
C26 C25 1.396 . S
C26 C27 1.394 . S
C27 C23 1.397 1_554 S
C27 C26 1.394 . S
C27 C37 1.723 . S
C28 C25 1.453 . S
C28 H52 0.982 . S
C28 H53 0.979 . S
C28 H54 0.977 . S
C29 C25 1.684 . S
C29 H55 0.979 . S
C29 H56 0.980 . S
C29 H57 0.983 . S
C30 H6 0.948 . S
C30 C31 1.391 1_556 S
C30 C35 1.391 1_556 S
C31 C30 1.391 1_554 S
C31 C32 1.391 . S
C32 H9 0.947 . S
C32 C31 1.391 . S
C32 C33 1.392 . S
C33 H10 0.948 . S
C33 C32 1.392 . S
C33 C34 1.419 . S
C34 C33 1.419 . S
C34 C35 1.391 . S
C34 C38 1.397 . S
C35 C30 1.391 1_554 S
C35 C34 1.391 . S
C35 C36 1.399 1_554 S
C36 C35 1.399 1_556 S
C36 C37 1.396 1_556 S
C36 C39 1.453 . S
C36 C40 1.684 . S
C37 C27 1.723 . S
C37 C36 1.396 1_554 S
C37 C38 1.394 . S
C38 C8 1.723 . S
C38 C34 1.397 . S
C38 C37 1.394 . S
C39 H11 0.982 . S
C39 H15 0.979 . S
C39 H16 0.977 . S
C39 C36 1.453 . S
C40 H12 0.979 . S
C40 H13 0.980 . S
C40 H14 0.983 . S
C40 C36 1.684 . S
H41 C59 0.948 . S
H42 C0 0.948 . S
H43 C18 0.979 . S
H44 C18 0.980 . S
H45 C18 0.983 . S
H46 C17 0.982 . S
H47 C17 0.979 . S
H48 C17 0.977 . S
H49 C19 0.948 . S
H50 C21 0.947 . S
H51 C22 0.948 . S
H52 C28 0.982 . S
H53 C28 0.979 . S
H54 C28 0.977 . S
H55 C29 0.979 . S
H56 C29 0.980 . S
H57 C29 0.983 . S
H58 C2 0.947 . S
C59 C2 1.392 . S
C59 C3 1.419 . S
C59 H41 0.948 . S
C60 C61 1.391 . S
C60 C64 1.391 . S
C60 H102 0.948 . S
C61 C60 1.391 . S
C61 C62 1.391 . S
C62 C61 1.391 . S
C62 H118 0.947 . S
C62 C119 1.392 1_556 S
C63 C64 1.391 1_554 S
C63 C67 1.397 1_655 S
C63 C119 1.419 . S
C64 C60 1.391 . S
C64 C63 1.391 1_556 S
C64 C65 1.399 . S
C65 C64 1.399 . S
C65 C68 1.396 1_656 S
C65 C77 1.453 1_655 S
C65 C78 1.684 . S
H66 C90 0.948 . S
C67 C63 1.397 1_455 S
C67 C68 1.394 . S
C67 C86 1.723 . S
C68 C65 1.396 1_454 S
C68 C67 1.394 . S
C68 C98 1.723 . S
H69 C92 0.947 . S
H70 C93 0.948 . S
H71 C99 0.982 . S
H72 C100 0.979 . S
H73 C100 0.980 . S
H74 C100 0.983 . S
H75 C99 0.979 . S
H76 C99 0.977 . S
C77 C65 1.453 1_455 S
C77 H106 0.982 . S
C77 H107 0.979 . S
C77 H108 0.977 . S
C78 C65 1.684 . S
C78 H103 0.979 . S
C78 H104 0.980 . S
C78 H105 0.983 . S
C79 C80 1.391 . S
C79 C84 1.391 . S
C79 H109 0.948 . S
C80 C79 1.391 . S
C80 C81 1.391 . S
C81 C80 1.391 . S
C81 C82 1.392 . S
C81 H110 0.947 . S
C82 C81 1.392 . S
C82 C83 1.419 . S
C82 H111 0.948 . S
C83 C82 1.419 . S
C83 C84 1.391 . S
C83 C87 1.397 1_655 S
C84 C79 1.391 . S
C84 C83 1.391 . S
C84 C85 1.399 . S
C85 C84 1.399 . S
C85 C86 1.396 1_655 S
C85 C88 1.453 1_655 S
C85 C89 1.684 . S
C86 C67 1.723 . S
C86 C85 1.396 1_455 S
C86 C87 1.394 . S
C87 C83 1.397 1_455 S
C87 C86 1.394 . S
C87 C97 1.723 . S
C88 C85 1.453 1_455 S
C88 H112 0.982 . S
C88 H113 0.979 . S
C88 H114 0.977 . S
C89 C85 1.684 . S
C89 H115 0.979 . S
C89 H116 0.980 . S
C89 H117 0.983 . S
C90 H66 0.948 . S
C90 C91 1.391 . S
C90 C95 1.391 . S
C91 C90 1.391 . S
C91 C92 1.391 1_554 S
C92 H69 0.947 . S
C92 C91 1.391 1_556 S
C92 C93 1.392 . S
C93 H70 0.948 . S
C93 C92 1.392 . S
C93 C94 1.419 1_556 S
C94 C93 1.419 1_554 S
C94 C95 1.391 . S
C94 C98 1.397 1_655 S
C95 C90 1.391 . S
C95 C94 1.391 . S
C95 C96 1.399 . S
C96 C95 1.399 . S
C96 C97 1.396 1_655 S
C96 C99 1.453 1_655 S
C96 C100 1.684 . S
C97 C87 1.723 . S
C97 C96 1.396 1_455 S
C97 C98 1.394 . S
C98 C68 1.723 . S
C98 C94 1.397 1_455 S
C98 C97 1.394 . S
C99 H71 0.982 . S
C99 H75 0.979 . S
C99 H76 0.977 . S
C99 C96 1.453 1_455 S
C100 H72 0.979 . S
C100 H73 0.980 . S
C100 H74 0.983 . S
C100 C96 1.684 . S
H101 C119 0.948 . S
H102 C60 0.948 . S
H103 C78 0.979 . S
H104 C78 0.980 . S
H105 C78 0.983 . S
H106 C77 0.982 . S
H107 C77 0.979 . S
H108 C77 0.977 . S
H109 C79 0.948 . S
H110 C81 0.947 . S
H111 C82 0.948 . S
H112 C88 0.982 . S
H113 C88 0.979 . S
H114 C88 0.977 . S
H115 C89 0.979 . S
H116 C89 0.980 . S
H117 C89 0.983 . S
H118 C62 0.947 . S
C119 C62 1.392 1_554 S
C119 C63 1.419 . S
C119 H101 0.948 . S
C120 C121 1.391 . S
C120 C124 1.391 . S
C120 H162 0.948 . S
C121 C120 1.391 . S
C121 C122 1.391 1_554 S
C122 C121 1.391 1_556 S
C122 H178 0.947 . S
C122 C179 1.392 . S
C123 C124 1.391 . S
C123 C127 1.397 . S
C123 C179 1.419 1_554 S
C124 C120 1.391 . S
C124 C123 1.391 . S
C124 C125 1.399 . S
C125 C124 1.399 . S
C125 C128 1.396 . S
C125 C137 1.453 . S
C125 C138 1.684 . S
H126 C150 0.948 . S
C127 C123 1.397 . S
C127 C128 1.394 . S
C127 C146 1.723 . S
C128 C125 1.396 . S
C128 C127 1.394 . S
C128 C158 1.723 . S
H129 C152 0.947 . S
H130 C153 0.948 . S
H131 C159 0.982 . S
H132 C160 0.979 . S
H133 C160 0.980 . S
H134 C160 0.983 . S
H135 C159 0.979 . S
H136 C159 0.977 . S
C137 C125 1.453 . S
C137 H166 0.982 . S
C137 H167 0.979 . S
C137 H168 0.977 . S
C138 C125 1.684 . S
C138 H163 0.979 . S
C138 H164 0.980 . S
C138 H165 0.983 . S
C139 C140 1.391 . S
C139 C144 1.391 . S
C139 H169 0.948 . S
C140 C139 1.391 . S
C140 C141 1.391 . S
C141 C140 1.391 . S
C141 C142 1.392 1_556 S
C141 H170 0.947 . S
C142 C141 1.392 1_554 S
C142 C143 1.419 . S
C142 H171 0.948 . S
C143 C142 1.419 . S
C143 C144 1.391 1_554 S
C143 C147 1.397 . S
C144 C139 1.391 . S
C144 C143 1.391 1_556 S
C144 C145 1.399 . S
C145 C144 1.399 . S
C145 C146 1.396 1_556 S
C145 C148 1.453 . S
C145 C149 1.684 . S
C146 C127 1.723 . S
C146 C145 1.396 1_554 S
C146 C147 1.394 . S
C147 C143 1.397 . S
C147 C146 1.394 . S
C147 C157 1.723 . S
C148 C145 1.453 . S
C148 H172 0.982 . S
C148 H173 0.979 . S
C148 H174 0.977 . S
C149 C145 1.684 . S
C149 H175 0.979 . S
C149 H176 0.980 . S
C149 H177 0.983 . S
C150 H126 0.948 . S
C150 C151 1.391 . S
C150 C155 1.391 . S
C151 C150 1.391 . S
C151 C152 1.391 . S
C152 H129 0.947 . S
C152 C151 1.391 . S
C152 C153 1.392 . S
C153 H130 0.948 . S
C153 C152 1.392 . S
C153 C154 1.419 . S
C154 C153 1.419 . S
C154 C155 1.391 . S
C154 C158 1.397 . S
C155 C150 1.391 . S
C155 C154 1.391 . S
C155 C156 1.399 . S
C156 C155 1.399 . S
C156 C157 1.396 . S
C156 C159 1.453 . S
C156 C160 1.684 . S
C157 C147 1.723 . S
C157 C156 1.396 . S
C157 C158 1.394 . S
C158 C128 1.723 . S
C158 C154 1.397 . S
C158 C157 1.394 . S
C159 H131 0.982 . S
C159 H135 0.979 . S
C159 H136 0.977 . S
C159 C156 1.453 . S
C160 H132 0.979 . S
C160 H133 0.980 . S
C160 H134 0.983 . S
C160 C156 1.684 . S
H161 C179 0.948 . S
H162 C120 0.948 . S
H163 C138 0.979 . S
H164 C138 0.980 . S
H165 C138 0.983 . S
H166 C137 0.982 . S
H167 C137 0.979 . S
H168 C137 0.977 . S
H169 C139 0.948 . S
H170 C141 0.947 . S
H171 C142 0.948 . S
H172 C148 0.982 . S
H173 C148 0.979 . S
H174 C148 0.977 . S
H175 C149 0.979 . S
H176 C149 0.980 . S
H177 C149 0.983 . S
H178 C122 0.947 . S
C179 C122 1.392 . S
C179 C123 1.419 1_556 S
C179 H161 0.948 . S
C180 C181 1.391 . S
C180 C184 1.391 . S
C180 H222 0.948 . S
C181 C180 1.391 . S
C181 C182 1.391 . S
C182 C181 1.391 . S
C182 H238 0.947 . S
C182 C239 1.392 . S
C183 C184 1.391 . S
C183 C187 1.397 . S
C183 C239 1.419 . S
C184 C180 1.391 . S
C184 C183 1.391 . S
C184 C185 1.399 . S
C185 C184 1.399 . S
C185 C188 1.396 . S
C185 C197 1.453 . S
C185 C198 1.684 . S
H186 C210 0.948 1_556 S
C187 C183 1.397 . S
C187 C188 1.394 . S
C187 C206 1.723 . S
C188 C185 1.396 . S
C188 C187 1.394 . S
C188 C218 1.723 . S
H189 C212 0.947 . S
H190 C213 0.948 . S
H191 C219 0.982 . S
H192 C220 0.979 . S
H193 C220 0.980 . S
H194 C220 0.983 . S
H195 C219 0.979 . S
H196 C219 0.977 . S
C197 C185 1.453 . S
C197 H226 0.982 . S
C197 H227 0.979 . S
C197 H228 0.977 . S
C198 C185 1.684 . S
C198 H223 0.979 . S
C198 H224 0.980 . S
C198 H225 0.983 . S
C199 C200 1.391 . S
C199 C204 1.391 1_556 S
C199 H229 0.948 . S
C200 C199 1.391 . S
C200 C201 1.391 . S
C201 C200 1.391 . S
C201 C202 1.392 . S
C201 H230 0.947 . S
C202 C201 1.392 . S
C202 C203 1.419 . S
C202 H231 0.948 . S
C203 C202 1.419 . S
C203 C204 1.391 1_556 S
C203 C207 1.397 1_556 S
C204 C199 1.391 1_554 S
C204 C203 1.391 1_554 S
C204 C205 1.399 . S
C205 C204 1.399 . S
C205 C206 1.396 . S
C205 C208 1.453 . S
C205 C209 1.684 . S
C206 C187 1.723 . S
C206 C205 1.396 . S
C206 C207 1.394 . S
C207 C203 1.397 1_554 S
C207 C206 1.394 . S
C207 C217 1.723 . S
C208 C205 1.453 . S
C208 H232 0.982 . S
C208 H233 0.979 . S
C208 H234 0.977 . S
C209 C205 1.684 . S
C209 H235 0.979 . S
C209 H236 0.980 . S
C209 H237 0.983 . S
C210 H186 0.948 1_554 S
C210 C211 1.391 . S
C210 C215 1.391 . S
C211 C210 1.391 . S
C211 C212 1.391 . S
C212 H189 0.947 . S
C212 C211 1.391 . S
C212 C213 1.392 . S
C213 H190 0.948 . S
C213 C212 1.392 . S
C213 C214 1.419 . S
C214 C213 1.419 . S
C214 C215 1.391 . S
C214 C218 1.397 . S
C215 C210 1.391 . S
C215 C214 1.391 . S
C215 C216 1.399 1_554 S
C216 C215 1.399 1_556 S
C216 C217 1.396 1_556 S
C216 C219 1.453 . S
C216 C220 1.684 . S
C217 C207 1.723 . S
C217 C216 1.396 1_554 S
C217 C218 1.394 . S
C218 C188 1.723 . S
C218 C214 1.397 . S
C218 C217 1.394 . S
C219 H191 0.982 . S
C219 H195 0.979 . S
C219 H196 0.977 . S
C219 C216 1.453 . S
C220 H192 0.979 . S
C220 H193 0.980 . S
C220 H194 0.983 . S
C220 C216 1.684 . S
H221 C239 0.948 . S
H222 C180 0.948 . S
H223 C198 0.979 . S
H224 C198 0.980 . S
H225 C198 0.983 . S
H226 C197 0.982 . S
H227 C197 0.979 . S
H228 C197 0.977 . S
H229 C199 0.948 . S
H230 C201 0.947 . S
H231 C202 0.948 . S
H232 C208 0.982 . S
H233 C208 0.979 . S
H234 C208 0.977 . S
H235 C209 0.979 . S
H236 C209 0.980 . S
H237 C209 0.983 . S
H238 C182 0.947 . S
C239 C182 1.392 . S
C239 C183 1.419 . S
C239 H221 0.948 . S
C240 C241 1.391 . S
C240 C244 1.391 . S
C240 H282 0.948 . S
C241 C240 1.391 . S
C241 C242 1.391 . S
C242 C241 1.391 . S
C242 H298 0.947 . S
C242 C299 1.392 . S
C243 C244 1.391 . S
C243 C247 1.397 . S
C243 C299 1.419 . S
C244 C240 1.391 . S
C244 C243 1.391 . S
C244 C245 1.399 . S
C245 C244 1.399 . S
C245 C248 1.396 . S
C245 C257 1.453 . S
C245 C258 1.684 . S
H246 C270 0.948 . S
C247 C243 1.397 . S
C247 C248 1.394 . S
C247 C266 1.723 . S
C248 C245 1.396 . S
C248 C247 1.394 . S
C248 C278 1.723 . S
H249 C272 0.947 1_556 S
H250 C273 0.948 . S
H251 C279 0.982 . S
H252 C280 0.979 . S
H253 C280 0.980 . S
H254 C280 0.983 . S
H255 C279 0.979 . S
H256 C279 0.977 . S
C257 C245 1.453 . S
C257 H286 0.982 . S
C257 H287 0.979 . S
C257 H288 0.977 . S
C258 C245 1.684 . S
C258 H283 0.979 . S
C258 H284 0.980 . S
C258 H285 0.983 . S
C259 C260 1.391 . S
C259 C264 1.391 . S
C259 H289 0.948 . S
C260 C259 1.391 . S
C260 C261 1.391 . S
C261 C260 1.391 . S
C261 C262 1.392 . S
C261 H290 0.947 . S
C262 C261 1.392 . S
C262 C263 1.419 . S
C262 H291 0.948 . S
C263 C262 1.419 . S
C263 C264 1.391 . S
C263 C267 1.397 . S
C264 C259 1.391 . S
C264 C263 1.391 . S
C264 C265 1.399 . S
C265 C264 1.399 . S
C265 C266 1.396 . S
C265 C268 1.453 . S
C265 C269 1.684 . S
C266 C247 1.723 . S
C266 C265 1.396 . S
C266 C267 1.394 . S
C267 C263 1.397 . S
C267 C266 1.394 . S
C267 C277 1.723 . S
C268 C265 1.453 . S
C268 H292 0.982 . S
C268 H293 0.979 . S
C268 H294 0.977 . S
C269 C265 1.684 . S
C269 H295 0.979 . S
C269 H296 0.980 . S
C269 H297 0.983 . S
C270 H246 0.948 . S
C270 C271 1.391 . S
C270 C275 1.391 . S
C271 C270 1.391 . S
C271 C272 1.391 . S
C272 H249 0.947 1_554 S
C272 C271 1.391 . S
C272 C273 1.392 . S
C273 H250 0.948 . S
C273 C272 1.392 . S
C273 C274 1.419 . S
C274 C273 1.419 . S
C274 C275 1.391 . S
C274 C278 1.397 . S
C275 C270 1.391 . S
C275 C274 1.391 . S
C275 C276 1.399 . S
C276 C275 1.399 . S
C276 C277 1.396 . S
C276 C279 1.453 . S
C276 C280 1.684 . S
C277 C267 1.723 . S
C277 C276 1.396 . S
C277 C278 1.394 . S
C278 C248 1.723 . S
C278 C274 1.397 . S
C278 C277 1.394 . S
C279 H251 0.982 . S
C279 H255 0.979 . S
C279 H256 0.977 . S
C279 C276 1.453 . S
C280 H252 0.979 . S
C280 H253 0.980 . S
C280 H254 0.983 . S
C280 C276 1.684 . S
H281 C299 0.948 . S
H282 C240 0.948 . S
H283 C258 0.979 . S
H284 C258 0.980 . S
H285 C258 0.983 . S
H286 C257 0.982 . S
H287 C257 0.979 . S
H288 C257 0.977 . S
H289 C259 0.948 . S
H290 C261 0.947 . S
H291 C262 0.948 . S
H292 C268 0.982 . S
H293 C268 0.979 . S
H294 C268 0.977 . S
H295 C269 0.979 . S
H296 C269 0.980 . S
H297 C269 0.983 . S
H298 C242 0.947 . S
C299 C242 1.392 . S
C299 C243 1.419 . S
C299 H281 0.948 . S
C300 C301 1.391 . S
C300 C304 1.391 . S
C300 H342 0.948 . S
C301 C300 1.391 . S
C301 C302 1.391 . S
C302 C301 1.391 . S
C302 H358 0.947 . S
C302 C359 1.392 . S
C303 C304 1.391 . S
C303 C307 1.396 1_655 S
C303 C359 1.419 . S
C304 C300 1.391 . S
C304 C303 1.391 . S
C304 C305 1.399 . S
C305 C304 1.399 . S
C305 C308 1.396 1_655 S
C305 C317 1.453 1_655 S
C305 C318 1.684 . S
H306 C330 0.948 . S
C307 C303 1.396 1_455 S
C307 C308 1.395 . S
C307 C326 1.723 . S
C308 C305 1.396 1_455 S
C308 C307 1.395 . S
C308 C338 1.723 . S
H309 C332 0.947 . S
H310 C333 0.948 . S
H311 C339 0.982 . S
H312 C340 0.979 . S
H313 C340 0.980 . S
H314 C340 0.983 . S
H315 C339 0.979 . S
H316 C339 0.977 . S
C317 C305 1.453 1_455 S
C317 H346 0.982 . S
C317 H347 0.979 . S
C317 H348 0.977 . S
C318 C305 1.684 . S
C318 H343 0.979 . S
C318 H344 0.980 . S
C318 H345 0.983 . S
C319 C320 1.391 1_554 S
C319 C324 1.391 . S
C319 H349 0.948 . S
C320 C319 1.391 1_556 S
C320 C321 1.391 1_556 S
C321 C320 1.391 1_554 S
C321 C322 1.392 . S
C321 H350 0.947 1_554 S
C322 C321 1.392 . S
C322 C323 1.419 . S
C322 H351 0.948 . S
C323 C322 1.419 . S
C323 C324 1.391 . S
C323 C327 1.396 1_655 S
C324 C319 1.391 . S
C324 C323 1.391 . S
C324 C325 1.399 . S
C325 C324 1.399 . S
C325 C326 1.396 1_655 S
C325 C328 1.453 1_655 S
C325 C329 1.684 . S
C326 C307 1.723 . S
C326 C325 1.396 1_455 S
C326 C327 1.394 . S
C327 C323 1.396 1_455 S
C327 C326 1.394 . S
C327 C337 1.723 . S
C328 C325 1.453 1_455 S
C328 H352 0.982 . S
C328 H353 0.979 . S
C328 H354 0.977 . S
C329 C325 1.684 . S
C329 H355 0.979 . S
C329 H356 0.980 . S
C329 H357 0.983 . S
C330 H306 0.948 . S
C330 C331 1.391 . S
C330 C335 1.391 . S
C331 C330 1.391 . S
C331 C332 1.391 . S
C332 H309 0.947 . S
C332 C331 1.391 . S
C332 C333 1.392 . S
C333 H310 0.948 . S
C333 C332 1.392 . S
C333 C334 1.419 . S
C334 C333 1.419 . S
C334 C335 1.391 . S
C334 C338 1.397 1_655 S
C335 C330 1.391 . S
C335 C334 1.391 . S
C335 C336 1.399 . S
C336 C335 1.399 . S
C336 C337 1.396 1_655 S
C336 C339 1.453 1_655 S
C336 C340 1.684 . S
C337 C327 1.723 . S
C337 C336 1.396 1_455 S
C337 C338 1.395 . S
C338 C308 1.723 . S
C338 C334 1.397 1_455 S
C338 C337 1.395 . S
C339 H311 0.982 . S
C339 H315 0.979 . S
C339 H316 0.977 . S
C339 C336 1.453 1_455 S
C340 H312 0.979 . S
C340 H313 0.980 . S
C340 H314 0.983 . S
C340 C336 1.684 . S
H341 C359 0.948 . S
H342 C300 0.948 . S
H343 C318 0.979 . S
H344 C318 0.980 . S
H345 C318 0.983 . S
H346 C317 0.982 . S
H347 C317 0.979 . S
H348 C317 0.977 . S
H349 C319 0.948 . S
H350 C321 0.947 1_556 S
H351 C322 0.948 . S
H352 C328 0.982 . S
H353 C328 0.979 . S
H354 C328 0.977 . S
H355 C329 0.979 . S
H356 C329 0.980 . S
H357 C329 0.983 . S
H358 C302 0.947 . S
C359 C302 1.392 . S
C359 C303 1.419 . S
C359 H341 0.948 . S
C360 C361 1.391 . S
C360 C364 1.391 . S
C360 H402 0.948 . S
C361 C360 1.391 . S
C361 C362 1.391 . S
C362 C361 1.391 . S
C362 H418 0.947 . S
C362 C419 1.392 . S
C363 C364 1.391 . S
C363 C367 1.397 . S
C363 C419 1.419 . S
C364 C360 1.391 . S
C364 C363 1.391 . S
C364 C365 1.399 . S
C365 C364 1.399 . S
C365 C368 1.396 . S
C365 C377 1.453 . S
C365 C378 1.684 . S
H366 C390 0.948 . S
C367 C363 1.397 . S
C367 C368 1.394 . S
C367 C386 1.723 . S
C368 C365 1.396 . S
C368 C367 1.394 . S
C368 C398 1.723 . S
H369 C392 0.947 . S
H370 C393 0.948 . S
H371 C399 0.982 . S
H372 C400 0.979 . S
H373 C400 0.980 . S
H374 C400 0.983 . S
H375 C399 0.979 . S
H376 C399 0.977 . S
C377 C365 1.453 . S
C377 H406 0.982 . S
C377 H407 0.979 . S
C377 H408 0.977 . S
C378 C365 1.684 . S
C378 H403 0.979 . S
C378 H404 0.980 . S
C378 H405 0.983 . S
C379 C380 1.391 . S
C379 C384 1.391 . S
C379 H409 0.948 . S
C380 C379 1.391 . S
C380 C381 1.391 . S
C381 C380 1.391 . S
C381 C382 1.392 . S
C381 H410 0.947 . S
C382 C381 1.392 . S
C382 C383 1.419 . S
C382 H411 0.948 . S
C383 C382 1.419 . S
C383 C384 1.391 . S
C383 C387 1.397 . S
C384 C379 1.391 . S
C384 C383 1.391 . S
C384 C385 1.399 . S
C385 C384 1.399 . S
C385 C386 1.396 . S
C385 C388 1.453 . S
C385 C389 1.684 . S
C386 C367 1.723 . S
C386 C385 1.396 . S
C386 C387 1.394 . S
C387 C383 1.397 . S
C387 C386 1.394 . S
C387 C397 1.723 . S
C388 C385 1.453 . S
C388 H412 0.982 . S
C388 H413 0.979 . S
C388 H414 0.977 . S
C389 C385 1.684 . S
C389 H415 0.979 . S
C389 H416 0.980 . S
C389 H417 0.983 . S
C390 H366 0.948 . S
C390 C391 1.391 . S
C390 C395 1.391 . S
C391 C390 1.391 . S
C391 C392 1.391 . S
C392 H369 0.947 . S
C392 C391 1.391 . S
C392 C393 1.392 . S
C393 H370 0.948 . S
C393 C392 1.392 . S
C393 C394 1.419 . S
C394 C393 1.419 . S
C394 C395 1.391 . S
C394 C398 1.397 . S
C395 C390 1.391 . S
C395 C394 1.391 . S
C395 C396 1.399 . S
C396 C395 1.399 . S
C396 C397 1.396 . S
C396 C399 1.453 . S
C396 C400 1.684 . S
C397 C387 1.723 . S
C397 C396 1.396 . S
C397 C398 1.394 . S
C398 C368 1.723 . S
C398 C394 1.397 . S
C398 C397 1.394 . S
C399 H371 0.982 . S
C399 H375 0.979 . S
C399 H376 0.977 . S
C399 C396 1.453 . S
C400 H372 0.979 . S
C400 H373 0.980 . S
C400 H374 0.983 . S
C400 C396 1.684 . S
H401 C419 0.948 . S
H402 C360 0.948 . S
H403 C378 0.979 . S
H404 C378 0.980 . S
H405 C378 0.983 . S
H406 C377 0.982 . S
H407 C377 0.979 . S
H408 C377 0.977 . S
H409 C379 0.948 . S
H410 C381 0.947 . S
H411 C382 0.948 . S
H412 C388 0.982 . S
H413 C388 0.979 . S
H414 C388 0.977 . S
H415 C389 0.979 . S
H416 C389 0.980 . S
H417 C389 0.983 . S
H418 C362 0.947 . S
C419 C362 1.392 . S
C419 C363 1.419 . S
C419 H401 0.948 . S
C420 C421 1.391 1_554 S
C420 C424 1.391 . S
C420 H462 0.948 1_554 S
C421 C420 1.391 1_556 S
C421 C422 1.391 1_556 S
C422 C421 1.391 1_554 S
C422 H478 0.947 . S
C422 C479 1.392 . S
C423 C424 1.391 . S
C423 C427 1.397 . S
C423 C479 1.419 . S
C424 C420 1.391 . S
C424 C423 1.391 . S
C424 C425 1.399 . S
C425 C424 1.399 . S
C425 C428 1.396 . S
C425 C437 1.453 . S
C425 C438 1.684 . S
H426 C450 0.948 . S
C427 C423 1.397 . S
C427 C428 1.394 . S
C427 C446 1.723 . S
C428 C425 1.396 . S
C428 C427 1.394 . S
C428 C458 1.723 . S
H429 C452 0.947 . S
H430 C453 0.948 . S
H431 C459 0.982 . S
H432 C460 0.979 . S
H433 C460 0.980 . S
H434 C460 0.983 . S
H435 C459 0.979 . S
H436 C459 0.977 . S
C437 C425 1.453 . S
C437 H466 0.982 . S
C437 H467 0.979 . S
C437 H468 0.977 . S
C438 C425 1.684 . S
C438 H463 0.979 . S
C438 H464 0.980 . S
C438 H465 0.983 . S
C439 C440 1.391 . S
C439 C444 1.391 . S
C439 H469 0.948 . S
C440 C439 1.391 . S
C440 C441 1.391 . S
C441 C440 1.391 . S
C441 C442 1.392 . S
C441 H470 0.947 . S
C442 C441 1.392 . S
C442 C443 1.419 . S
C442 H471 0.948 . S
C443 C442 1.419 . S
C443 C444 1.391 . S
C443 C447 1.397 . S
C444 C439 1.391 . S
C444 C443 1.391 . S
C444 C445 1.399 . S
C445 C444 1.399 . S
C445 C446 1.396 . S
C445 C448 1.453 . S
C445 C449 1.684 . S
C446 C427 1.723 . S
C446 C445 1.396 . S
C446 C447 1.394 . S
C447 C443 1.397 . S
C447 C446 1.394 . S
C447 C457 1.723 . S
C448 C445 1.453 . S
C448 H472 0.982 . S
C448 H473 0.979 . S
C448 H474 0.977 . S
C449 C445 1.684 . S
C449 H475 0.979 . S
C449 H476 0.980 . S
C449 H477 0.983 . S
C450 H426 0.948 . S
C450 C451 1.391 . S
C450 C455 1.391 . S
C451 C450 1.391 . S
C451 C452 1.391 . S
C452 H429 0.947 . S
C452 C451 1.391 . S
C452 C453 1.392 . S
C453 H430 0.948 . S
C453 C452 1.392 . S
C453 C454 1.419 . S
C454 C453 1.419 . S
C454 C455 1.391 . S
C454 C458 1.397 . S
C455 C450 1.391 . S
C455 C454 1.391 . S
C455 C456 1.399 . S
C456 C455 1.399 . S
C456 C457 1.396 . S
C456 C459 1.453 . S
C456 C460 1.684 . S
C457 C447 1.723 . S
C457 C456 1.396 . S
C457 C458 1.394 . S
C458 C428 1.723 . S
C458 C454 1.397 . S
C458 C457 1.394 . S
C459 H431 0.982 . S
C459 H435 0.979 . S
C459 H436 0.977 . S
C459 C456 1.453 . S
C460 H432 0.979 . S
C460 H433 0.980 . S
C460 H434 0.983 . S
C460 C456 1.684 . S
H461 C479 0.948 . S
H462 C420 0.948 1_556 S
H463 C438 0.979 . S
H464 C438 0.980 . S
H465 C438 0.983 . S
H466 C437 0.982 . S
H467 C437 0.979 . S
H468 C437 0.977 . S
H469 C439 0.948 . S
H470 C441 0.947 . S
H471 C442 0.948 . S
H472 C448 0.982 . S
H473 C448 0.979 . S
H474 C448 0.977 . S
H475 C449 0.979 . S
H476 C449 0.980 . S
H477 C449 0.983 . S
H478 C422 0.947 . S
C479 C422 1.392 . S
C479 C423 1.419 . S
C479 H461 0.948 . S
O480 Mn481 2.163 1_455 S
O480 C494 1.244 . S
Mn481 O480 2.163 1_655 S
Mn481 O484 2.160 1_545 S
Mn481 O485 2.221 1_655 S
Mn481 O487 2.163 1_645 S
Mn481 O489 2.160 . S
Mn481 O499 2.221 . S
O482 Mn483 2.087 . S
O482 C494 1.256 1_655 S
Mn483 O482 2.087 . S
Mn483 O490 2.089 . S
Mn483 O499 2.290 . S
Mn483 O500 2.251 . S
O484 Mn481 2.160 1_565 S
O484 C495 1.239 . S
O485 Mn481 2.221 1_455 S
O485 Mn486 2.290 1_545 S
O485 C496 1.278 . S
Mn486 O485 2.290 1_565 S
Mn486 O488 2.089 . S
Mn486 O491 2.251 . S
Mn486 O492 2.087 . S
O487 Mn481 2.163 1_465 S
O487 C497 1.244 . S
O488 Mn486 2.089 . S
O488 C495 1.256 1_455 S
O489 Mn481 2.160 . S
O489 C498 1.239 . S
O490 Mn483 2.089 . S
O490 C498 1.256 . S
O491 Mn486 2.251 . S
O491 C496 1.241 1_565 S
O492 Mn486 2.087 . S
O492 C497 1.256 . S
C493 O499 1.278 . S
C493 O500 1.241 . S
C494 O480 1.244 . S
C494 O482 1.256 1_455 S
C495 O484 1.239 . S
C495 O488 1.256 1_655 S
C496 O485 1.278 . S
C496 O491 1.241 1_545 S
C497 O487 1.244 . S
C497 O492 1.256 . S
C498 O489 1.239 . S
C498 O490 1.256 . S
O499 Mn481 2.221 . S
O499 Mn483 2.290 . S
O499 C493 1.278 . S
O500 Mn483 2.251 . S
O500 C493 1.241 . S
O501 Mn502 2.163 1_565 S
O501 C515 1.244 1_565 S
Mn502 O501 2.163 1_545 S
Mn502 O505 2.160 . S
Mn502 O506 2.221 1_545 S
Mn502 O508 2.163 . S
Mn502 O510 2.160 1_545 S
Mn502 O520 2.221 . S
O503 Mn504 2.087 . S
O503 C515 1.256 . S
Mn504 O503 2.087 . S
Mn504 O511 2.089 1_545 S
Mn504 O520 2.290 . S
Mn504 O521 2.251 . S
O505 Mn502 2.160 . S
O505 C516 1.239 . S
O506 Mn502 2.221 1_565 S
O506 Mn507 2.290 . S
O506 C517 1.278 . S
Mn507 O506 2.290 . S
Mn507 O509 2.089 1_565 S
Mn507 O512 2.251 . S
Mn507 O513 2.087 1_565 S
O508 Mn502 2.163 . S
O508 C518 1.244 . S
O509 Mn507 2.089 1_545 S
O509 C516 1.256 . S
O510 Mn502 2.160 1_565 S
O510 C519 1.239 . S
O511 Mn504 2.089 1_565 S
O511 C519 1.256 . S
O512 Mn507 2.251 . S
O512 C517 1.241 . S
O513 Mn507 2.087 1_545 S
O513 C518 1.256 . S
C514 O520 1.278 . S
C514 O521 1.241 . S
C515 O501 1.244 1_545 S
C515 O503 1.256 . S
C516 O505 1.239 . S
C516 O509 1.256 . S
C517 O506 1.278 . S
C517 O512 1.241 . S
C518 O508 1.244 . S
C518 O513 1.256 . S
C519 O510 1.239 . S
C519 O511 1.256 . S
O520 Mn502 2.221 . S
O520 Mn504 2.290 . S
O520 C514 1.278 . S
O521 Mn504 2.251 . S
O521 C514 1.241 . S
O522 Mn523 2.163 . S
O522 C536 1.244 . S
Mn523 O522 2.163 . S
Mn523 O526 2.160 . S
Mn523 O527 2.221 . S
Mn523 O529 2.163 . S
Mn523 O531 2.160 . S
Mn523 O541 2.221 . S
O524 Mn525 2.087 . S
O524 C536 1.256 . S
Mn525 O524 2.087 . S
Mn525 O532 2.089 . S
Mn525 O541 2.290 . S
Mn525 O542 2.251 . S
O526 Mn523 2.160 . S
O526 C537 1.239 . S
O527 Mn523 2.221 . S
O527 Mn528 2.290 . S
O527 C538 1.278 . S
Mn528 O527 2.290 . S
Mn528 O530 2.089 . S
Mn528 O533 2.251 . S
Mn528 O534 2.087 . S
O529 Mn523 2.163 . S
O529 C539 1.244 . S
O530 Mn528 2.089 . S
O530 C537 1.256 . S
O531 Mn523 2.160 . S
O531 C540 1.239 . S
O532 Mn525 2.089 . S
O532 C540 1.256 . S
O533 Mn528 2.251 . S
O533 C538 1.241 . S
O534 Mn528 2.087 . S
O534 C539 1.256 . S
C535 O541 1.278 . S
C535 O542 1.241 . S
C536 O522 1.244 . S
C536 O524 1.256 . S
C537 O526 1.239 . S
C537 O530 1.256 . S
C538 O527 1.278 . S
C538 O533 1.241 . S
C539 O529 1.244 . S
C539 O534 1.256 . S
C540 O531 1.239 . S
C540 O532 1.256 . S
O541 Mn523 2.221 . S
O541 Mn525 2.290 . S
O541 C535 1.278 . S
O542 Mn525 2.251 . S
O542 C535 1.241 . S
O543 Mn544 2.163 . S
O543 C557 1.244 . S
Mn544 O543 2.163 . S
Mn544 O547 2.160 1_455 S
Mn544 O548 2.221 1_455 S
Mn544 O550 2.163 1_455 S
Mn544 O552 2.160 . S
Mn544 O562 2.221 . S
O545 Mn546 2.087 . S
O545 C557 1.256 . S
Mn546 O545 2.087 . S
Mn546 O553 2.089 . S
Mn546 O562 2.290 . S
Mn546 O563 2.251 . S
O547 Mn544 2.160 1_655 S
O547 C558 1.239 . S
O548 Mn544 2.221 1_655 S
O548 Mn549 2.290 . S
O548 C559 1.278 . S
Mn549 O548 2.290 . S
Mn549 O551 2.089 . S
Mn549 O554 2.251 . S
Mn549 O555 2.087 . S
O550 Mn544 2.163 1_655 S
O550 C560 1.244 . S
O551 Mn549 2.089 . S
O551 C558 1.256 . S
O552 Mn544 2.160 . S
O552 C561 1.239 . S
O553 Mn546 2.089 . S
O553 C561 1.256 . S
O554 Mn549 2.251 . S
O554 C559 1.241 . S
O555 Mn549 2.087 . S
O555 C560 1.256 . S
C556 O562 1.278 . S
C556 O563 1.241 . S
C557 O543 1.244 . S
C557 O545 1.256 . S
C558 O547 1.239 . S
C558 O551 1.256 . S
C559 O548 1.278 . S
C559 O554 1.241 . S
C560 O550 1.244 . S
C560 O555 1.256 . S
C561 O552 1.239 . S
C561 O553 1.256 . S
O562 Mn544 2.221 . S
O562 Mn546 2.290 . S
O562 C556 1.278 . S
O563 Mn546 2.251 . S
O563 C556 1.241 . S
C564 C565 1.369 . S
C564 C566 1.419 . S
C564 H568 0.930 . S
C565 C564 1.369 . S
C565 C574 1.429 . S
C566 C564 1.419 . S
C566 C567 1.363 . S
C566 H569 0.929 . S
C567 C566 1.363 . S
C567 C573 1.428 . S
H568 C564 0.930 . S
H569 C566 0.929 . S
S570 N571 1.613 . S
S570 N572 1.610 . S
N571 S570 1.613 . S
N571 C574 1.350 . S
N572 S570 1.610 . S
N572 C573 1.351 . S
C573 C567 1.428 . S
C573 N572 1.351 . S
C573 C574 1.434 . S
C574 C565 1.429 . S
C574 N571 1.350 . S
C574 C573 1.434 . S
C575 C576 1.369 . S
C575 C577 1.419 . S
C575 H579 0.930 . S
C576 C575 1.369 . S
C576 C585 1.429 . S
C577 C575 1.419 . S
C577 C578 1.363 . S
C577 H580 0.929 . S
C578 C577 1.363 . S
C578 C584 1.428 . S
H579 C575 0.930 . S
H580 C577 0.929 . S
S581 N582 1.613 . S
S581 N583 1.610 . S
N582 S581 1.613 . S
N582 C585 1.350 . S
N583 S581 1.610 . S
N583 C584 1.351 . S
C584 C578 1.428 . S
C584 N583 1.351 . S
C584 C585 1.434 . S
C585 C576 1.429 . S
C585 N582 1.350 . S
C585 C584 1.434 . S
C586 C587 1.369 . S
C586 C588 1.419 . S
C586 H590 0.930 . S
C587 C586 1.369 . S
C587 C596 1.429 . S
C588 C586 1.419 . S
C588 C589 1.363 . S
C588 H591 0.929 . S
C589 C588 1.363 . S
C589 C595 1.428 . S
H590 C586 0.930 . S
H591 C588 0.929 . S
S592 N593 1.613 . S
S592 N594 1.610 . S
N593 S592 1.613 . S
N593 C596 1.350 . S
N594 S592 1.610 . S
N594 C595 1.351 . S
C595 C589 1.428 . S
C595 N594 1.351 . S
C595 C596 1.434 . S
C596 C587 1.429 . S
C596 N593 1.350 . S
C596 C595 1.434 . S
C597 C598 1.369 . S
C597 C599 1.419 . S
C597 H601 0.930 . S
C598 C597 1.369 . S
C598 C607 1.429 1_655 S
C599 C597 1.419 . S
C599 C600 1.363 . S
C599 H602 0.929 . S
C600 C599 1.363 . S
C600 C606 1.428 1_655 S
H601 C597 0.930 . S
H602 C599 0.929 . S
S603 N604 1.613 . S
S603 N605 1.610 . S
N604 S603 1.613 . S
N604 C607 1.350 . S
N605 S603 1.610 . S
N605 C606 1.351 . S
C606 C600 1.428 1_455 S
C606 N605 1.351 . S
C606 C607 1.434 . S
C607 C598 1.429 1_455 S
C607 N604 1.350 . S
C607 C606 1.434 . S
C608 C609 1.369 . S
C608 C610 1.419 . S
C608 H612 0.930 . S
C609 C608 1.369 . S
C609 C618 1.429 . S
C610 C608 1.419 . S
C610 C611 1.363 . S
C610 H613 0.929 . S
C611 C610 1.363 . S
C611 C617 1.428 . S
H612 C608 0.930 . S
H613 C610 0.929 . S
S614 N615 1.613 . S
S614 N616 1.610 . S
N615 S614 1.613 . S
N615 C618 1.350 . S
N616 S614 1.610 . S
N616 C617 1.351 . S
C617 C611 1.428 . S
C617 N616 1.351 . S
C617 C618 1.434 . S
C618 C609 1.429 . S
C618 N615 1.350 . S
C618 C617 1.434 . S
C619 C620 1.369 . S
C619 C621 1.419 . S
C619 H623 0.930 . S
C620 C619 1.369 . S
C620 C629 1.429 . S
C621 C619 1.419 . S
C621 C622 1.363 . S
C621 H624 0.929 . S
C622 C621 1.363 . S
C622 C628 1.428 . S
H623 C619 0.930 . S
H624 C621 0.929 . S
S625 N626 1.613 1_556 S
S625 N627 1.610 . S
N626 S625 1.613 1_554 S
N626 C629 1.350 1_554 S
N627 S625 1.610 . S
N627 C628 1.351 . S
C628 C622 1.428 . S
C628 N627 1.351 . S
C628 C629 1.434 . S
C629 C620 1.429 . S
C629 N626 1.350 1_556 S
C629 C628 1.434 . S
C630 C631 1.369 . S
C630 C632 1.419 . S
C630 H634 0.930 1_556 S
C631 C630 1.369 . S
C631 C640 1.429 . S
C632 C630 1.419 . S
C632 C633 1.363 . S
C632 H635 0.929 . S
C633 C632 1.363 . S
C633 C639 1.428 . S
H634 C630 0.930 1_554 S
H635 C632 0.929 . S
S636 N637 1.613 . S
S636 N638 1.610 . S
N637 S636 1.613 . S
N637 C640 1.350 . S
N638 S636 1.610 . S
N638 C639 1.351 . S
C639 C633 1.428 . S
C639 N638 1.351 . S
C639 C640 1.434 . S
C640 C631 1.429 . S
C640 N637 1.350 . S
C640 C639 1.434 . S
C641 C642 1.369 1_655 S
C641 C643 1.419 . S
C641 H645 0.930 1_556 S
C642 C641 1.369 1_455 S
C642 C651 1.429 . S
C643 C641 1.419 . S
C643 C644 1.363 1_655 S
C643 H646 0.929 . S
C644 C643 1.363 1_455 S
C644 C650 1.428 . S
H645 C641 0.930 1_554 S
H646 C643 0.929 . S
S647 N648 1.613 . S
S647 N649 1.610 . S
N648 S647 1.613 . S
N648 C651 1.350 . S
N649 S647 1.610 . S
N649 C650 1.351 . S
C650 C644 1.428 . S
C650 N649 1.351 . S
C650 C651 1.434 . S
C651 C642 1.429 . S
C651 N648 1.350 . S
C651 C650 1.434 . S
C652 C653 1.353 1_655 S
C652 C654 1.419 . S
C652 H656 0.930 . S
C653 C652 1.353 1_455 S
C653 C662 1.439 . S
C654 C652 1.419 . S
C654 C655 1.363 . S
C654 H657 0.929 . S
C655 C654 1.363 . S
C655 C661 1.428 1_655 S
H656 C652 0.930 . S
H657 C654 0.929 . S
S658 N659 1.613 . S
S658 N660 1.610 . S
N659 S658 1.613 . S
N659 C662 1.350 . S
N660 S658 1.610 . S
N660 C661 1.351 . S
C661 C655 1.428 1_455 S
C661 N660 1.351 . S
C661 C662 1.434 . S
C662 C653 1.439 . S
C662 N659 1.350 . S
C662 C661 1.434 . S
C663 C664 1.369 . S
C663 C665 1.419 . S
C663 H667 0.930 . S
C664 C663 1.369 . S
C664 C673 1.429 . S
C665 C663 1.419 . S
C665 C666 1.363 . S
C665 H668 0.929 . S
C666 C665 1.363 . S
C666 C672 1.428 . S
H667 C663 0.930 . S
H668 C665 0.929 . S
S669 N670 1.613 . S
S669 N671 1.610 . S
N670 S669 1.613 . S
N670 C673 1.350 . S
N671 S669 1.610 . S
N671 C672 1.351 . S
C672 C666 1.428 . S
C672 N671 1.351 . S
C672 C673 1.434 . S
C673 C664 1.429 . S
C673 N670 1.350 . S
C673 C672 1.434 . S
C674 C675 1.369 . S
C674 C676 1.419 . S
C674 H678 0.930 . S
C675 C674 1.369 . S
C675 C684 1.429 . S
C676 C674 1.419 . S
C676 C677 1.363 . S
C676 H679 0.929 . S
C677 C676 1.363 . S
C677 C683 1.428 . S
H678 C674 0.930 . S
H679 C676 0.929 . S
S680 N681 1.613 . S
S680 N682 1.610 . S
N681 S680 1.613 . S
N681 C684 1.350 . S
N682 S680 1.610 . S
N682 C683 1.351 . S
C683 C677 1.428 . S
C683 N682 1.351 . S
C683 C684 1.434 . S
C684 C675 1.429 . S
C684 N681 1.350 . S
C684 C683 1.434 . S
C685 C686 1.369 . S
C685 C687 1.419 . S
C685 H689 0.930 . S
C686 C685 1.369 . S
C686 C695 1.429 . S
C687 C685 1.419 . S
C687 C688 1.363 . S
C687 H690 0.929 . S
C688 C687 1.363 . S
C688 C694 1.428 . S
H689 C685 0.930 . S
H690 C687 0.929 . S
S691 N692 1.613 . S
S691 N693 1.610 . S
N692 S691 1.613 . S
N692 C695 1.350 . S
N693 S691 1.610 . S
N693 C694 1.351 . S
C694 C688 1.428 . S
C694 N693 1.351 . S
C694 C695 1.434 . S
C695 C686 1.429 . S
C695 N692 1.350 . S
C695 C694 1.434 . S
C696 C697 1.369 . S
C696 C698 1.419 1_655 S
C696 H700 0.930 . S
C697 C696 1.369 . S
C697 C706 1.430 1_655 S
C698 C696 1.419 1_455 S
C698 C699 1.363 . S
C698 H701 0.929 1_455 S
C699 C698 1.363 . S
C699 C705 1.428 . S
H700 C696 0.930 . S
H701 C698 0.929 1_655 S
S702 N703 1.613 1_554 S
S702 N704 1.610 1_554 S
N703 S702 1.613 1_556 S
N703 C706 1.350 . S
N704 S702 1.610 1_556 S
N704 C705 1.351 . S
C705 C699 1.428 . S
C705 N704 1.351 . S
C705 C706 1.434 . S
C706 C697 1.430 1_455 S
C706 N703 1.350 . S
C706 C705 1.434 . S
C707 C708 1.369 . S
C707 C709 1.419 . S
C707 H711 0.930 . S
C708 C707 1.369 . S
C708 C717 1.429 . S
C709 C707 1.419 . S
C709 C710 1.363 . S
C709 H712 0.929 . S
C710 C709 1.363 . S
C710 C716 1.428 . S
H711 C707 0.930 . S
H712 C709 0.929 . S
S713 N714 1.613 . S
S713 N715 1.610 . S
N714 S713 1.613 . S
N714 C717 1.350 . S
N715 S713 1.610 . S
N715 C716 1.351 . S
C716 C710 1.428 . S
C716 N715 1.351 . S
C716 C717 1.434 . S
C717 C708 1.429 . S
C717 N714 1.350 . S
C717 C716 1.434 . S
C718 C719 1.369 . S
C718 C720 1.419 . S
C718 H722 0.930 . S
C719 C718 1.369 . S
C719 C728 1.429 . S
C720 C718 1.419 . S
C720 C721 1.363 . S
C720 H723 0.929 . S
C721 C720 1.363 . S
C721 C727 1.428 . S
H722 C718 0.930 . S
H723 C720 0.929 . S
S724 N725 1.613 1_554 S
S724 N726 1.610 1_554 S
N725 S724 1.613 1_556 S
N725 C728 1.350 . S
N726 S724 1.610 1_556 S
N726 C727 1.351 . S
C727 C721 1.428 . S
C727 N726 1.351 . S
C727 C728 1.434 . S
C728 C719 1.429 . S
C728 N725 1.350 . S
C728 C727 1.434 . S
C729 C730 1.369 . S
C729 C731 1.419 . S
C729 H733 0.930 . S
C730 C729 1.369 . S
C730 C739 1.429 . S
C731 C729 1.419 . S
C731 C732 1.363 . S
C731 H734 0.929 . S
C732 C731 1.363 . S
C732 C738 1.428 . S
H733 C729 0.930 . S
H734 C731 0.929 . S
S735 N736 1.613 . S
S735 N737 1.610 . S
N736 S735 1.613 . S
N736 C739 1.350 . S
N737 S735 1.610 . S
N737 C738 1.351 . S
C738 C732 1.428 . S
C738 N737 1.351 . S
C738 C739 1.434 . S
C739 C730 1.429 . S
C739 N736 1.350 . S
C739 C738 1.434 . S
C740 C741 1.369 1_655 S
C740 C742 1.419 . S
C740 H744 0.930 . S
C741 C740 1.369 1_455 S
C741 C750 1.429 . S
C742 C740 1.419 . S
C742 C743 1.363 1_655 S
C742 H745 0.929 . S
C743 C742 1.363 1_455 S
C743 C749 1.428 . S
H744 C740 0.930 . S
H745 C742 0.929 . S
S746 N747 1.613 . S
S746 N748 1.610 . S
N747 S746 1.613 . S
N747 C750 1.350 . S
N748 S746 1.610 . S
N748 C749 1.351 . S
C749 C743 1.428 . S
C749 N748 1.351 . S
C749 C750 1.434 . S
C750 C741 1.429 . S
C750 N747 1.350 . S
C750 C749 1.434 . S
C751 C752 1.369 . S
C751 C753 1.419 . S
C751 H755 0.930 . S
C752 C751 1.369 . S
C752 C761 1.429 1_556 S
C753 C751 1.419 . S
C753 C754 1.363 . S
C753 H756 0.929 . S
C754 C753 1.363 . S
C754 C760 1.428 . S
H755 C751 0.930 . S
H756 C753 0.929 . S
S757 N758 1.613 . S
S757 N759 1.610 . S
N758 S757 1.613 . S
N758 C761 1.350 . S
N759 S757 1.610 . S
N759 C760 1.351 1_554 S
C760 C754 1.428 . S
C760 N759 1.351 1_556 S
C760 C761 1.434 1_556 S
C761 C752 1.429 1_554 S
C761 N758 1.350 . S
C761 C760 1.434 1_554 S
C762 C763 1.369 . S
C762 C764 1.419 . S
C762 H766 0.930 . S
C763 C762 1.369 . S
C763 C772 1.429 . S
C764 C762 1.419 . S
C764 C765 1.363 . S
C764 H767 0.929 . S
C765 C764 1.363 . S
C765 C771 1.428 . S
H766 C762 0.930 . S
H767 C764 0.929 . S
S768 N769 1.613 . S
S768 N770 1.610 . S
N769 S768 1.613 . S
N769 C772 1.350 . S
N770 S768 1.610 . S
N770 C771 1.351 . S
C771 C765 1.428 . S
C771 N770 1.351 . S
C771 C772 1.434 . S
C772 C763 1.429 . S
C772 N769 1.350 . S
C772 C771 1.434 . S
C773 C774 1.369 . S
C773 C775 1.419 . S
C773 H777 0.930 1_556 S
C774 C773 1.369 . S
C774 C783 1.429 . S
C775 C773 1.419 . S
C775 C776 1.363 . S
C775 H778 0.929 . S
C776 C775 1.363 . S
C776 C782 1.428 . S
H777 C773 0.930 1_554 S
H778 C775 0.929 . S
S779 N780 1.613 . S
S779 N781 1.610 . S
N780 S779 1.613 . S
N780 C783 1.350 . S
N781 S779 1.610 . S
N781 C782 1.351 . S
C782 C776 1.428 . S
C782 N781 1.351 . S
C782 C783 1.434 . S
C783 C774 1.429 . S
C783 N780 1.350 . S
C783 C782 1.434 . S
C784 C785 1.369 1_455 S
C784 C786 1.419 1_455 S
C784 H788 0.930 . S
C785 C784 1.369 1_655 S
C785 C794 1.429 . S
C786 C784 1.419 1_655 S
C786 C787 1.363 . S
C786 H789 0.929 1_655 S
C787 C786 1.363 . S
C787 C793 1.428 . S
H788 C784 0.930 . S
H789 C786 0.929 1_455 S
S790 N791 1.613 . S
S790 N792 1.610 . S
N791 S790 1.613 . S
N791 C794 1.350 . S
N792 S790 1.610 . S
N792 C793 1.351 . S
C793 C787 1.428 . S
C793 N792 1.351 . S
C793 C794 1.434 . S
C794 C785 1.429 . S
C794 N791 1.350 . S
C794 C793 1.434 . S
C795 C796 1.369 . S
C795 C797 1.419 . S
C795 H799 0.930 . S
C796 C795 1.369 . S
C796 C805 1.429 . S
C797 C795 1.419 . S
C797 C798 1.363 . S
C797 H800 0.929 . S
C798 C797 1.363 . S
C798 C804 1.428 . S
H799 C795 0.930 . S
H800 C797 0.929 . S
S801 N802 1.613 . S
S801 N803 1.610 . S
N802 S801 1.613 . S
N802 C805 1.350 . S
N803 S801 1.610 . S
N803 C804 1.351 . S
C804 C798 1.428 . S
C804 N803 1.351 . S
C804 C805 1.434 . S
C805 C796 1.429 . S
C805 N802 1.350 . S
C805 C804 1.434 . S
C806 C807 1.369 . S
C806 C808 1.419 . S
C806 H810 0.930 . S
C807 C806 1.369 . S
C807 C816 1.429 . S
C808 C806 1.419 . S
C808 C809 1.363 . S
C808 H811 0.929 . S
C809 C808 1.363 . S
C809 C815 1.428 . S
H810 C806 0.930 . S
H811 C808 0.929 . S
S812 N813 1.613 . S
S812 N814 1.610 . S
N813 S812 1.613 . S
N813 C816 1.350 . S
N814 S812 1.610 . S
N814 C815 1.351 . S
C815 C809 1.428 . S
C815 N814 1.351 . S
C815 C816 1.434 . S
C816 C807 1.429 . S
C816 N813 1.350 . S
C816 C815 1.434 . S
C817 C818 1.369 . S
C817 C819 1.419 . S
C817 H821 0.930 . S
C818 C817 1.369 . S
C818 C827 1.429 . S
C819 C817 1.419 . S
C819 C820 1.363 . S
C819 H822 0.929 . S
C820 C819 1.363 . S
C820 C826 1.428 . S
H821 C817 0.930 . S
H822 C819 0.929 . S
S823 N824 1.613 . S
S823 N825 1.610 . S
N824 S823 1.613 . S
N824 C827 1.350 . S
N825 S823 1.610 . S
N825 C826 1.351 . S
C826 C820 1.428 . S
C826 N825 1.351 . S
C826 C827 1.434 . S
C827 C818 1.429 . S
C827 N824 1.350 . S
C827 C826 1.434 . S
C565 C391 2.237 . S
C567 C496 2.162 . S
C578 C514 1.564 . S
C576 C451 1.852 . S
C589 C535 2.120 . S
C587 C241 1.884 . S
C600 C559 1.617 . S
C598 C331 1.626 . S
C611 C493 2.001 1_565 S
C609 C121 1.879 1_556 S
C620 C211 1.645 1_556 S
C622 C517 1.386 . S
C631 C31 1.921 1_556 S
C633 C538 1.972 . S
C642 C91 1.468 1_456 S
C644 C556 1.436 . S
C655 C498 0.738 . S
C653 C301 0.748 1_455 S
C666 C516 1.233 . S
C664 C380 1.236 . S
C677 C537 0.724 . S
C675 C440 0.725 . S
C686 C260 1.004 . S
C688 C561 1.236 . S
C697 C61 0.739 . S
C699 C497 0.767 . S
C710 C515 1.297 1_565 S
C708 C140 1.170 . S
C721 C536 0.760 . S
C719 C200 0.748 . S
C730 C20 1.116 . S
C732 C560 1.309 . S
C741 C320 2.119 1_455 S
C743 C494 2.065 . S
C752 C361 2.051 1_556 S
C754 C518 2.294 . S
C765 C539 2.041 . S
C763 C421 1.785 . S
C776 C557 2.307 . S
C774 C271 2.244 1_556 S
C785 C80 2.006 . S
C787 C495 1.942 . S
C798 C519 2.169 . S
C796 C151 2.227 . S
C809 C540 1.921 . S
C807 C181 1.731 . S
C818 C1 1.881 . S
C820 C558 2.181 . S
