# Generated by pormake.
# Topology pto, (3,4)-cn, num edge types: 1
# Building blocks:
#     Node 0, Type 0, BuildingBlock: MIDCAF_clean_linker_0, # of connection points: 3
#     Node 1, Type 0, BuildingBlock: MIDCAF_clean_linker_0, # of connection points: 3
#     Node 2, Type 0, BuildingBlock: MIDCAF_clean_linker_0, # of connection points: 3
#     Node 3, Type 0, BuildingBlock: MIDCAF_clean_linker_0, # of connection points: 3
#     Node 4, Type 0, BuildingBlock: MIDCAF_clean_linker_0, # of connection points: 3
#     Node 5, Type 0, BuildingBlock: MIDCAF_clean_linker_0, # of connection points: 3
#     Node 6, Type 0, BuildingBlock: MIDCAF_clean_linker_0, # of connection points: 3
#     Node 7, Type 0, BuildingBlock: MIDCAF_clean_linker_0, # of connection points: 3
#     Node 8, Type 1, BuildingBlock: KOZSID_clean_sbu_0, # of connection points: 4
#     Node 9, Type 1, BuildingBlock: KOZSID_clean_sbu_0, # of connection points: 4
#     Node 10, Type 1, BuildingBlock: KOZSID_clean_sbu_0, # of connection points: 4
#     Node 11, Type 1, BuildingBlock: KOZSID_clean_sbu_0, # of connection points: 4
#     Node 12, Type 1, BuildingBlock: KOZSID_clean_sbu_0, # of connection points: 4
#     Node 13, Type 1, BuildingBlock: KOZSID_clean_sbu_0, # of connection points: 4
#     Edge 14, Type (0, 1), None
#     Edge 15, Type (0, 1), None
#     Edge 16, Type (0, 1), None
#     Edge 17, Type (0, 1), None
#     Edge 18, Type (0, 1), None
#     Edge 19, Type (0, 1), None
#     Edge 20, Type (0, 1), None
#     Edge 21, Type (0, 1), None
#     Edge 22, Type (0, 1), None
#     Edge 23, Type (0, 1), None
#     Edge 24, Type (0, 1), None
#     Edge 25, Type (0, 1), None
#     Edge 26, Type (0, 1), None
#     Edge 27, Type (0, 1), None
#     Edge 28, Type (0, 1), None
#     Edge 29, Type (0, 1), None
#     Edge 30, Type (0, 1), None
#     Edge 31, Type (0, 1), None
#     Edge 32, Type (0, 1), None
#     Edge 33, Type (0, 1), None
#     Edge 34, Type (0, 1), None
#     Edge 35, Type (0, 1), None
#     Edge 36, Type (0, 1), None
#     Edge 37, Type (0, 1), None
# Relax obj value: 0.000
# Max RMSD: 0.039
# Mean RMSD: 0.016
data_MOF--net-pto--node1-KOZSID_clean_sbu_0--node2-MIDCAF_clean_linker_0--edge1-none
_symmetry_space_group_name_H-M    P1
_symmetry_Int_Tables_number       1
_symmetry_cell_setting            triclinic
loop_
_symmetry_equiv_pos_as_xyz
'x, y, z'
_cell_length_a     26.830531
_cell_length_b     36.129883
_cell_length_c     31.552628
_cell_angle_alpha  85.854663
_cell_angle_beta   85.560759
_cell_angle_gamma 94.680679
loop_
_atom_site_label
_atom_site_type_symbol
_atom_site_fract_x
_atom_site_fract_y
_atom_site_fract_z
_atom_type_partial_charge
C0 C 0.42234 0.25013 0.20737 0.0
C1 C 0.40937 0.26765 0.16908 0.0
C2 C 0.36346 0.28365 0.16839 0.0
C3 C 0.33172 0.28317 0.20573 0.0
H4 H 0.27871 0.36515 0.29272 0.0
H5 H 0.23391 0.41972 0.30417 0.0
H6 H 0.1294 0.35463 0.39725 0.0
H7 H 0.1753 0.2999 0.38666 0.0
H8 H 0.23137 0.22278 0.42934 0.0
H9 H 0.223 0.16551 0.47704 0.0
H10 H 0.28559 0.10541 0.37549 0.0
H11 H 0.29487 0.16226 0.32781 0.0
H12 H 0.40054 0.23477 0.27351 0.0
H13 H 0.4576 0.23761 0.20854 0.0
H14 H 0.35245 0.29682 0.13903 0.0
H15 H 0.29673 0.29607 0.20458 0.0
N16 N 0.2868 0.29479 0.2925 0.0
N17 N 0.24853 0.26268 0.35554 0.0
N18 N 0.30359 0.23324 0.31015 0.0
C19 C 0.25589 0.2943 0.32879 0.0
C20 C 0.27223 0.23196 0.34625 0.0
C21 C 0.31084 0.26446 0.28315 0.0
C22 C 0.23021 0.32793 0.33833 0.0
C23 C 0.24634 0.36237 0.31583 0.0
C24 C 0.22054 0.39374 0.32232 0.0
C25 C 0.17761 0.39149 0.35119 0.0
C26 C 0.16253 0.35742 0.37498 0.0
C27 C 0.18867 0.32597 0.36871 0.0
C28 C 0.26429 0.19724 0.37486 0.0
C29 C 0.2431 0.19735 0.41706 0.0
C30 C 0.23824 0.16471 0.44433 0.0
C31 C 0.25404 0.13147 0.42973 0.0
C32 C 0.27355 0.13094 0.38733 0.0
C33 C 0.27895 0.16353 0.36022 0.0
C34 C 0.34455 0.26541 0.24392 0.0
C35 C 0.38983 0.24853 0.24436 0.0
C36 C 0.19722 0.64325 0.73313 0.0
C37 C 0.15046 0.64315 0.71612 0.0
C38 C 0.1334 0.67696 0.7011 0.0
C39 C 0.16163 0.71064 0.705 0.0
H40 H 0.21118 0.82045 0.64389 0.0
H41 H 0.20884 0.87843 0.59918 0.0
H42 H 0.27073 0.94092 0.697 0.0
H43 H 0.27393 0.88323 0.74185 0.0
H44 H 0.30593 0.83796 0.82688 0.0
H45 H 0.35565 0.83864 0.88809 0.0
H46 H 0.38576 0.72432 0.87274 0.0
H47 H 0.33373 0.7232 0.81302 0.0
H48 H 0.26009 0.67622 0.75255 0.0
H49 H 0.21109 0.61734 0.74459 0.0
H50 H 0.09737 0.67735 0.68784 0.0
H51 H 0.14673 0.73642 0.69455 0.0
N52 N 0.22648 0.77899 0.7117 0.0
N53 N 0.2775 0.81216 0.75571 0.0
N54 N 0.26288 0.74725 0.76733 0.0
C55 C 0.24875 0.81191 0.72209 0.0
C56 C 0.28482 0.77996 0.77839 0.0
C57 C 0.2334 0.74656 0.73423 0.0
C58 C 0.24321 0.8471 0.69635 0.0
C59 C 0.22389 0.84651 0.65616 0.0
C60 C 0.22248 0.87957 0.63054 0.0
C61 C 0.23996 0.91375 0.64478 0.0
C62 C 0.25738 0.91468 0.68546 0.0
C63 C 0.25925 0.88165 0.71095 0.0
C64 C 0.31589 0.78053 0.81512 0.0
C65 C 0.32318 0.81298 0.83664 0.0
C66 C 0.352 0.8134 0.87168 0.0
C67 C 0.37504 0.78156 0.88558 0.0
C68 C 0.36788 0.74917 0.86371 0.0
C69 C 0.3383 0.74857 0.82917 0.0
C70 C 0.20697 0.71098 0.72463 0.0
C71 C 0.22501 0.67689 0.73778 0.0
C72 C 0.69945 0.75506 0.18529 0.0
C73 C 0.66253 0.78044 0.18262 0.0
C74 C 0.6567 0.80495 0.21503 0.0
C75 C 0.68705 0.80415 0.24908 0.0
H76 H 0.74723 0.87143 0.33527 0.0
H77 H 0.75491 0.92454 0.37796 0.0
H78 H 0.85402 0.86764 0.45672 0.0
H79 H 0.8471 0.81436 0.41353 0.0
H80 H 0.8833 0.73471 0.38431 0.0
H81 H 0.92945 0.67963 0.39469 0.0
H82 H 0.83565 0.62178 0.31091 0.0
H83 H 0.79049 0.67666 0.29975 0.0
H84 H 0.75732 0.734 0.22064 0.0
H85 H 0.70581 0.73626 0.16061 0.0
H86 H 0.62809 0.8244 0.21458 0.0
H87 H 0.68133 0.82325 0.27357 0.0
N88 N 0.76089 0.80661 0.31221 0.0
N89 N 0.81394 0.77443 0.35467 0.0
N90 N 0.77872 0.7462 0.29797 0.0
C91 C 0.79038 0.80564 0.34536 0.0
C92 C 0.80802 0.74449 0.33115 0.0
C93 C 0.75505 0.77707 0.28829 0.0
C94 C 0.7963 0.83835 0.37102 0.0
C95 C 0.77086 0.87009 0.36155 0.0
C96 C 0.77507 0.9006 0.38616 0.0
C97 C 0.80484 0.90025 0.42087 0.0
C98 C 0.83113 0.86889 0.42993 0.0
C99 C 0.82685 0.83824 0.40532 0.0
C100 C 0.83366 0.71038 0.34068 0.0
C101 C 0.87228 0.71014 0.36838 0.0
C102 C 0.89855 0.67849 0.37454 0.0
C103 C 0.88657 0.64646 0.35324 0.0
C104 C 0.84654 0.64625 0.32707 0.0
C105 C 0.82055 0.6778 0.32076 0.0
C106 C 0.72343 0.77845 0.2519 0.0
C107 C 0.72926 0.75389 0.21966 0.0
C108 C 0.83319 0.19204 0.6552 0.0
C109 C 0.80444 0.15819 0.66784 0.0
C110 C 0.77256 0.15563 0.70562 0.0
C111 C 0.76898 0.18626 0.72992 0.0
H112 H 0.66349 0.24512 0.81976 0.0
H113 H 0.60914 0.24332 0.88639 0.0
H114 H 0.72878 0.30151 0.94563 0.0
H115 H 0.78192 0.30541 0.87843 0.0
H116 H 0.78759 0.38464 0.76967 0.0
H117 H 0.83856 0.44417 0.75622 0.0
H118 H 0.95851 0.38891 0.69619 0.0
H119 H 0.90698 0.32909 0.70843 0.0
H120 H 0.85193 0.24847 0.66856 0.0
H121 H 0.85768 0.19506 0.62599 0.0
H122 H 0.7504 0.12982 0.71656 0.0
H123 H 0.74383 0.18315 0.75874 0.0
N124 N 0.76184 0.24985 0.77941 0.0
N125 N 0.78478 0.31215 0.79052 0.0
N126 N 0.81938 0.28615 0.73012 0.0
C127 C 0.75819 0.27928 0.80353 0.0
C128 C 0.81506 0.31594 0.75372 0.0
C129 C 0.79265 0.25296 0.74273 0.0
C130 C 0.72652 0.2757 0.84408 0.0
C131 C 0.67799 0.2575 0.84708 0.0
C132 C 0.64705 0.25651 0.88499 0.0
C133 C 0.66476 0.27276 0.92072 0.0
C134 C 0.71409 0.28945 0.9182 0.0
C135 C 0.74437 0.29157 0.87993 0.0
C136 C 0.84366 0.35218 0.74062 0.0
C137 C 0.82454 0.3852 0.75303 0.0
C138 C 0.85344 0.41924 0.74522 0.0
C139 C 0.90239 0.42073 0.72578 0.0
C140 C 0.92076 0.38818 0.71134 0.0
C141 C 0.89138 0.3541 0.71839 0.0
C142 C 0.79718 0.22033 0.71706 0.0
C143 C 0.82957 0.22276 0.67949 0.0
C144 C 0.63844 0.80352 0.87599 0.0
C145 C 0.64984 0.78431 0.91381 0.0
C146 C 0.6944 0.7665 0.91419 0.0
C147 C 0.72642 0.76704 0.87698 0.0
H148 H 0.78092 0.68684 0.78946 0.0
H149 H 0.82512 0.63218 0.77691 0.0
H150 H 0.92986 0.69783 0.68449 0.0
H151 H 0.8845 0.75263 0.69613 0.0
H152 H 0.82881 0.82964 0.65409 0.0
H153 H 0.8362 0.88673 0.60616 0.0
H154 H 0.77251 0.94661 0.70743 0.0
H155 H 0.76423 0.88993 0.75537 0.0
H156 H 0.66164 0.82016 0.81041 0.0
H157 H 0.60419 0.8174 0.87504 0.0
H158 H 0.70417 0.75194 0.9432 0.0
H159 H 0.76037 0.75281 0.87789 0.0
N160 N 0.77315 0.7573 0.79052 0.0
N161 N 0.8114 0.78966 0.72761 0.0
N162 N 0.75651 0.81896 0.77326 0.0
C163 C 0.80404 0.75795 0.75419 0.0
C164 C 0.7878 0.82036 0.73711 0.0
C165 C 0.7492 0.78763 0.80011 0.0
C166 C 0.82953 0.72432 0.74423 0.0
C167 C 0.81322 0.68972 0.76627 0.0
C168 C 0.83868 0.6583 0.75915 0.0
C169 C 0.88149 0.66066 0.73011 0.0
C170 C 0.8968 0.69494 0.70685 0.0
C171 C 0.87098 0.72643 0.71373 0.0
C172 C 0.79542 0.85507 0.70846 0.0
C173 C 0.81666 0.85499 0.66627 0.0
C174 C 0.82097 0.88753 0.63886 0.0
C175 C 0.80454 0.92065 0.65332 0.0
C176 C 0.78504 0.92118 0.69572 0.0
C177 C 0.78022 0.88868 0.72297 0.0
C178 C 0.7152 0.78654 0.83925 0.0
C179 C 0.6712 0.80507 0.83917 0.0
C180 C 0.83125 0.17202 0.45211 0.0
C181 C 0.81363 0.13779 0.43804 0.0
C182 C 0.79593 0.13677 0.39748 0.0
C183 C 0.79415 0.16972 0.37185 0.0
H184 H 0.69761 0.21905 0.28711 0.0
H185 H 0.64586 0.21894 0.22713 0.0
H186 H 0.7296 0.3204 0.17113 0.0
H187 H 0.77951 0.32139 0.23218 0.0
H188 H 0.79972 0.37439 0.32605 0.0
H189 H 0.84855 0.43327 0.33415 0.0
H190 H 0.9622 0.37335 0.39114 0.0
H191 H 0.91282 0.31418 0.38434 0.0
H192 H 0.84306 0.23111 0.4383 0.0
H193 H 0.84513 0.17323 0.48337 0.0
H194 H 0.78252 0.1105 0.38606 0.0
H195 H 0.77949 0.16803 0.34095 0.0
N196 N 0.77782 0.23908 0.32593 0.0
N197 N 0.79722 0.30333 0.31126 0.0
N198 N 0.83057 0.272 0.3689 0.0
C199 C 0.77315 0.27092 0.30154 0.0
C200 C 0.82586 0.30414 0.34489 0.0
C201 C 0.80647 0.23933 0.35962 0.0
C202 C 0.74248 0.27033 0.26454 0.0
C203 C 0.70494 0.24131 0.26195 0.0
C204 C 0.67547 0.24113 0.22731 0.0
C205 C 0.68337 0.26967 0.19405 0.0
C206 C 0.72158 0.29836 0.19644 0.0
C207 C 0.75047 0.29885 0.23141 0.0
C208 C 0.85278 0.33965 0.35408 0.0
C209 C 0.83478 0.37373 0.34085 0.0
C210 C 0.86246 0.40738 0.34561 0.0
C211 C 0.90913 0.40752 0.36276 0.0
C212 C 0.92622 0.37371 0.37778 0.0
C213 C 0.89804 0.33999 0.3738 0.0
C214 C 0.81067 0.2043 0.38612 0.0
C215 C 0.82999 0.20502 0.4263 0.0
C216 C 0.28336 0.15137 0.695 0.0
C217 C 0.25355 0.1515 0.66032 0.0
C218 C 0.22767 0.18294 0.6507 0.0
C219 C 0.23226 0.21387 0.67481 0.0
H220 H 0.1763 0.31742 0.69427 0.0
H221 H 0.12974 0.37222 0.68344 0.0
H222 H 0.22434 0.43148 0.76548 0.0
H223 H 0.26995 0.37685 0.77711 0.0
H224 H 0.30513 0.32241 0.85592 0.0
H225 H 0.35553 0.32018 0.91667 0.0
H226 H 0.42386 0.22488 0.87037 0.0
H227 H 0.37199 0.22624 0.81045 0.0
H228 H 0.31147 0.18102 0.74544 0.0
H229 H 0.30323 0.12737 0.70358 0.0
H230 H 0.20481 0.18403 0.62388 0.0
H231 H 0.21227 0.23779 0.6662 0.0
N232 N 0.24579 0.27822 0.72427 0.0
N233 N 0.28058 0.30689 0.78087 0.0
N234 N 0.2977 0.24607 0.76785 0.0
C235 C 0.25178 0.30842 0.74734 0.0
C236 C 0.30364 0.27588 0.79135 0.0
C237 C 0.26879 0.24692 0.73433 0.0
C238 C 0.22634 0.34248 0.73714 0.0
C239 C 0.18745 0.34226 0.70968 0.0
C240 C 0.16095 0.37374 0.70325 0.0
C241 C 0.17296 0.40605 0.72402 0.0
C242 C 0.21343 0.40677 0.74975 0.0
C243 C 0.23966 0.37539 0.75634 0.0
C244 C 0.33455 0.27453 0.82824 0.0
C245 C 0.33088 0.30095 0.85868 0.0
C246 C 0.36 0.29977 0.89348 0.0
C247 C 0.39396 0.27241 0.89848 0.0
C248 C 0.39753 0.24596 0.86801 0.0
C249 C 0.36799 0.24689 0.83344 0.0
C250 C 0.26273 0.21396 0.70915 0.0
C251 C 0.28788 0.18217 0.71912 0.0
C252 C 0.20305 0.63406 0.33355 0.0
C253 C 0.15393 0.6319 0.3528 0.0
C254 C 0.13445 0.66422 0.3668 0.0
C255 C 0.16289 0.69869 0.35953 0.0
H256 H 0.20074 0.80449 0.41022 0.0
H257 H 0.19564 0.85727 0.45389 0.0
H258 H 0.30286 0.92328 0.36398 0.0
H259 H 0.30875 0.87063 0.32068 0.0
H260 H 0.38762 0.81246 0.25848 0.0
H261 H 0.44325 0.81465 0.19254 0.0
H262 H 0.32821 0.75116 0.13352 0.0
H263 H 0.27382 0.74701 0.20003 0.0
H264 H 0.26809 0.66954 0.30898 0.0
H265 H 0.21879 0.60932 0.32287 0.0
H266 H 0.09657 0.66299 0.38179 0.0
H267 H 0.14647 0.72349 0.3692 0.0
N268 N 0.23377 0.76736 0.34824 0.0
N269 N 0.29067 0.80435 0.29908 0.0
N270 N 0.26872 0.74201 0.28751 0.0
C271 C 0.25997 0.80078 0.33583 0.0
C272 C 0.29476 0.77516 0.27468 0.0
C273 C 0.23851 0.73778 0.32437 0.0
C274 C 0.25542 0.83309 0.36198 0.0
C275 C 0.22319 0.83025 0.39966 0.0
C276 C 0.21996 0.8606 0.42458 0.0
C277 C 0.24896 0.89443 0.41247 0.0
C278 C 0.28055 0.89744 0.37451 0.0
C279 C 0.28372 0.8672 0.34957 0.0
C280 C 0.32683 0.7792 0.2343 0.0
C281 C 0.37434 0.79907 0.23133 0.0
C282 C 0.40601 0.80033 0.19379 0.0
C283 C 0.39005 0.78261 0.1584 0.0
C284 C 0.34155 0.76443 0.16072 0.0
C285 C 0.31057 0.76211 0.19863 0.0
C286 C 0.21077 0.70123 0.33748 0.0
C287 C 0.23099 0.66848 0.32547 0.0
C288 C 0.10404 0.57621 0.39522 0.0
C289 C 0.12035 0.58634 0.43378 0.0
C290 C 0.09416 0.56265 0.46488 0.0
C291 C 0.06377 0.53934 0.44361 0.0
N292 N 0.06925 0.54647 0.40076 0.0
Co293 Co 0.03244 0.51921 0.35775 0.0
N294 N 0.98978 0.48732 0.40372 0.0
C295 C 0.98992 0.48983 0.44628 0.0
C296 C 0.95616 0.46448 0.46995 0.0
C297 C 0.9333 0.44435 0.44081 0.0
C298 C 0.95484 0.45848 0.40089 0.0
N299 N 0.99707 0.49097 0.31464 0.0
C300 C 0.96329 0.46063 0.32022 0.0
C301 C 0.95209 0.44741 0.28142 0.0
C302 C 0.97933 0.47028 0.25033 0.0
C303 C 0.006 0.49577 0.27169 0.0
N304 N 0.07362 0.55215 0.31171 0.0
C305 C 0.07057 0.55164 0.26912 0.0
C306 C 0.09982 0.57969 0.24545 0.0
C307 C 0.1225 0.59977 0.27458 0.0
C308 C 0.10616 0.58243 0.31461 0.0
N309 N 0.08328 0.48218 0.35721 0.0
C310 C 0.14692 0.42385 0.35405 0.0
C311 C 0.1389 0.44562 0.31721 0.0
C312 C 0.10759 0.47444 0.31953 0.0
C313 C 0.12399 0.43275 0.39287 0.0
C314 C 0.09283 0.462 0.39376 0.0
N315 N 0.98165 0.55618 0.3581 0.0
C316 C 0.93078 0.5966 0.31914 0.0
C317 C 0.91767 0.61429 0.35578 0.0
C318 C 0.93579 0.60151 0.39404 0.0
C319 C 0.96719 0.57241 0.39455 0.0
C320 C 0.96224 0.56783 0.32104 0.0
H321 H 0.97988 0.56388 0.42464 0.0
H322 H 0.97114 0.55603 0.29179 0.0
H323 H 0.10283 0.48946 0.29012 0.0
H324 H 0.07628 0.46737 0.42428 0.0
C325 C 0.02572 0.51359 0.46304 0.0
C326 C 0.12136 0.59648 0.35439 0.0
C327 C 0.94208 0.44274 0.36142 0.0
C328 C 0.03953 0.52462 0.25225 0.0
H329 H 0.14746 0.60909 0.43894 0.0
H330 H 0.09571 0.56325 0.49901 0.0
H331 H 0.95006 0.46032 0.50434 0.0
H332 H 0.90479 0.42133 0.44812 0.0
H333 H 0.92746 0.42335 0.27589 0.0
H334 H 0.9802 0.46822 0.21623 0.0
H335 H 0.10343 0.58531 0.21114 0.0
H336 H 0.14744 0.62481 0.26696 0.0
H337 H 0.15542 0.4398 0.28624 0.0
H338 H 0.12986 0.41719 0.42244 0.0
H339 H 0.91809 0.6056 0.2886 0.0
H340 H 0.92589 0.61389 0.42345 0.0
C341 C 0.0958 0.59031 0.75867 0.0
C342 C 0.1073 0.60333 0.79748 0.0
C343 C 0.07974 0.58062 0.82855 0.0
C344 C 0.05261 0.55542 0.80716 0.0
N345 N 0.06152 0.56028 0.76421 0.0
Co346 Co 0.02567 0.5324 0.72108 0.0
N347 N 0.98468 0.4993 0.76707 0.0
C348 C 0.98812 0.49949 0.80964 0.0
C349 C 0.95884 0.4714 0.83323 0.0
C350 C 0.93572 0.45165 0.80405 0.0
C351 C 0.95183 0.46922 0.76409 0.0
N352 N 0.98832 0.50558 0.67806 0.0
C353 C 0.95318 0.47607 0.68355 0.0
C354 C 0.93635 0.46637 0.645 0.0
C355 C 0.96253 0.4901 0.61395 0.0
C356 C 0.99343 0.51302 0.63524 0.0
N357 N 0.06827 0.56433 0.67512 0.0
C358 C 0.06777 0.56207 0.63255 0.0
C359 C 0.10187 0.58717 0.60887 0.0
C360 C 0.12542 0.60682 0.63804 0.0
C361 C 0.10389 0.5927 0.67797 0.0
N362 N 0.07629 0.49532 0.72017 0.0
C363 C 0.14123 0.43785 0.72175 0.0
C364 C 0.12222 0.45031 0.68376 0.0
C365 C 0.09032 0.47911 0.68361 0.0
C366 C 0.12828 0.45539 0.75852 0.0
C367 C 0.09631 0.48382 0.757 0.0
N368 N 0.97504 0.56959 0.72224 0.0
C369 C 0.9348 0.61977 0.68751 0.0
C370 C 0.91186 0.62817 0.72655 0.0
C371 C 0.9196 0.60576 0.76299 0.0
C372 C 0.95066 0.57684 0.7601 0.0
C373 C 0.96574 0.59039 0.68604 0.0
H374 H 0.95517 0.56134 0.78924 0.0
H375 H 0.98233 0.58542 0.65538 0.0
H376 H 0.07697 0.48747 0.65371 0.0
H377 H 0.08761 0.49551 0.78635 0.0
C378 C 0.0192 0.52647 0.82656 0.0
C379 C 0.11735 0.60802 0.71748 0.0
C380 C 0.93591 0.45567 0.7243 0.0
C381 C 0.03157 0.53866 0.61581 0.0
H382 H 0.13243 0.62711 0.80304 0.0
H383 H 0.07913 0.58251 0.86266 0.0
H384 H 0.9554 0.4656 0.86752 0.0
H385 H 0.91054 0.42672 0.81157 0.0
H386 H 0.90885 0.44388 0.6398 0.0
H387 H 0.96061 0.4898 0.57983 0.0
H388 H 0.10786 0.59142 0.57448 0.0
H389 H 0.15442 0.62951 0.63075 0.0
H390 H 0.13185 0.43793 0.65428 0.0
H391 H 0.14154 0.44654 0.78888 0.0
H392 H 0.92913 0.63582 0.65821 0.0
H393 H 0.90309 0.61116 0.79412 0.0
C394 C 0.2909 0.96586 0.59782 0.0
C395 C 0.33632 0.95322 0.60823 0.0
C396 C 0.37317 0.97526 0.58418 0.0
C397 C 0.34837 0.99977 0.56027 0.0
N398 N 0.29781 0.99511 0.5679 0.0
Co399 Co 0.24737 0.02251 0.53718 0.0
N400 N 0.30182 0.05433 0.50105 0.0
C401 C 0.35194 0.05366 0.50319 0.0
C402 C 0.38003 0.08061 0.47686 0.0
C403 C 0.34591 0.1001 0.45704 0.0
C404 C 0.29869 0.08357 0.4722 0.0
N405 N 0.19696 0.04902 0.5055 0.0
C406 C 0.20377 0.07782 0.47501 0.0
C407 C 0.15846 0.08766 0.46109 0.0
C408 C 0.12162 0.06477 0.48423 0.0
C409 C 0.14643 0.04219 0.51061 0.0
N410 N 0.19297 0.99168 0.57436 0.0
C411 C 0.14293 0.99414 0.57427 0.0
C412 C 0.11487 0.96963 0.60371 0.0
C413 C 0.14898 0.95011 0.62364 0.0
C414 C 0.19603 0.96374 0.60488 0.0
N415 N 0.248 0.06079 0.57923 0.0
C416 C 0.25105 0.11947 0.63338 0.0
C417 C 0.20588 0.10595 0.61854 0.0
C418 C 0.20514 0.07663 0.59194 0.0
C419 C 0.29434 0.10243 0.62161 0.0
C420 C 0.29197 0.07339 0.59485 0.0
N421 N 0.24691 0.9842 0.49504 0.0
C422 C 0.20278 0.93553 0.45999 0.0
C423 C 0.24777 0.92604 0.44005 0.0
C424 C 0.29209 0.94678 0.44729 0.0
C425 C 0.29081 0.97545 0.47455 0.0
C426 C 0.20315 0.96463 0.48692 0.0
H427 H 0.32602 0.98972 0.47899 0.0
H428 H 0.16764 0.97051 0.5011 0.0
H429 H 0.16958 0.06756 0.58169 0.0
H430 H 0.32646 0.06204 0.58672 0.0
C431 C 0.37152 0.02755 0.53056 0.0
C432 C 0.24227 0.94839 0.61616 0.0
C433 C 0.25206 0.09741 0.45928 0.0
C434 C 0.12333 0.01723 0.5435 0.0
H435 H 0.34239 0.9301 0.63041 0.0
H436 H 0.41325 0.97333 0.58375 0.0
H437 H 0.42049 0.08589 0.47311 0.0
H438 H 0.35496 0.12418 0.43453 0.0
H439 H 0.15259 0.10966 0.43733 0.0
H440 H 0.08148 0.06539 0.48301 0.0
H441 H 0.07439 0.96567 0.60915 0.0
H442 H 0.14019 0.92781 0.64856 0.0
H443 H 0.17116 0.11784 0.62747 0.0
H444 H 0.33033 0.11206 0.63206 0.0
H445 H 0.16733 0.92067 0.45476 0.0
H446 H 0.328 0.94036 0.43284 0.0
C447 C 0.44376 0.8173 0.09528 0.0
C448 C 0.42671 0.85145 0.10399 0.0
C449 C 0.45527 0.87783 0.0775 0.0
C450 C 0.48759 0.85838 0.05386 0.0
N451 N 0.48113 0.82112 0.06339 0.0
Co452 Co 0.51816 0.78247 0.03489 0.0
N453 N 0.56475 0.82154 0.00027 0.0
C454 C 0.56593 0.85883 0.00267 0.0
C455 C 0.60377 0.8786 0.97683 0.0
C456 C 0.62806 0.8524 0.95641 0.0
C457 C 0.60298 0.81803 0.97058 0.0
N458 N 0.55366 0.7438 0.00483 0.0
C459 C 0.58995 0.74772 0.97197 0.0
C460 C 0.5998 0.71347 0.95729 0.0
C461 C 0.56922 0.68707 0.98195 0.0
C462 C 0.54202 0.70653 0.00979 0.0
N463 N 0.47345 0.74339 0.07143 0.0
C464 C 0.47489 0.70604 0.07142 0.0
C465 C 0.44394 0.68617 0.10303 0.0
C466 C 0.42171 0.71234 0.12503 0.0
C467 C 0.43983 0.74691 0.10498 0.0
N468 N 0.47021 0.78285 0.98983 0.0
C469 C 0.40692 0.78225 0.92226 0.0
C470 C 0.40915 0.75048 0.9499 0.0
C471 C 0.44092 0.75131 0.98292 0.0
C472 C 0.43611 0.81457 0.92985 0.0
C473 C 0.46666 0.81438 0.96371 0.0
N474 N 0.56592 0.78208 0.0797 0.0
C475 C 0.61409 0.74827 0.12859 0.0
C476 C 0.62992 0.7811 0.14649 0.0
C477 C 0.61374 0.81451 0.12967 0.0
C478 C 0.58185 0.81434 0.09677 0.0
C479 C 0.58276 0.74943 0.09529 0.0
H480 H 0.57029 0.84064 0.08584 0.0
H481 H 0.57211 0.72349 0.08299 0.0
H482 H 0.44122 0.72591 0.00216 0.0
H483 H 0.48747 0.84009 0.96762 0.0
C484 C 0.52819 0.87448 0.02654 0.0
C485 C 0.42467 0.78227 0.11928 0.0
C486 C 0.61499 0.7832 0.95301 0.0
C487 C 0.50609 0.69052 0.04146 0.0
H488 H 0.39746 0.85686 0.12775 0.0
H489 H 0.45387 0.90773 0.07667 0.0
H490 H 0.6119 0.90854 0.97249 0.0
H491 H 0.65985 0.85807 0.93292 0.0
H492 H 0.6258 0.7079 0.93108 0.0
H493 H 0.56672 0.65725 0.97958 0.0
H494 H 0.43892 0.65624 0.10982 0.0
H495 H 0.39575 0.70637 0.15309 0.0
H496 H 0.38645 0.7249 0.94629 0.0
H497 H 0.43639 0.83994 0.90931 0.0
H498 H 0.62493 0.72153 0.14065 0.0
H499 H 0.62568 0.84086 0.14164 0.0
C500 C 0.85366 0.97446 0.60743 0.0
C501 C 0.89929 0.96525 0.62125 0.0
C502 C 0.93564 0.9883 0.59775 0.0
C503 C 0.91024 0.01036 0.57128 0.0
N504 N 0.85979 0.00303 0.57665 0.0
Co505 Co 0.80866 0.02877 0.54501 0.0
N506 N 0.86239 0.06008 0.50762 0.0
C507 C 0.91253 0.05809 0.50743 0.0
C508 C 0.94004 0.08289 0.47796 0.0
C509 C 0.90544 0.10214 0.45835 0.0
C510 C 0.85866 0.08807 0.47733 0.0
N511 N 0.7575 0.05546 0.51438 0.0
C512 C 0.76374 0.08488 0.48467 0.0
C513 C 0.71796 0.09693 0.47438 0.0
C514 C 0.68157 0.07434 0.4983 0.0
C515 C 0.70698 0.05012 0.52203 0.0
N516 N 0.75491 0.99648 0.58137 0.0
C517 C 0.7047 0.99645 0.57924 0.0
C518 C 0.67721 0.96935 0.6058 0.0
C519 C 0.71183 0.95052 0.62579 0.0
C520 C 0.75873 0.96756 0.61047 0.0
N521 N 0.8084 0.06722 0.58698 0.0
C522 C 0.8063 0.12607 0.64099 0.0
C523 C 0.76237 0.10467 0.63412 0.0
C524 C 0.76426 0.07563 0.60736 0.0
C525 C 0.85157 0.1168 0.62131 0.0
C526 C 0.85181 0.08735 0.59487 0.0
N527 N 0.80874 0.99034 0.50305 0.0
C528 C 0.76316 0.94851 0.46033 0.0
C529 C 0.80677 0.93192 0.44839 0.0
C530 C 0.85169 0.94565 0.46351 0.0
C531 C 0.85189 0.97482 0.49036 0.0
C532 C 0.76499 0.97739 0.48733 0.0
H533 H 0.88732 0.9841 0.50074 0.0
H534 H 0.73026 0.98837 0.4955 0.0
H535 H 0.72932 0.06085 0.60316 0.0
H536 H 0.8875 0.08167 0.58079 0.0
C537 C 0.93274 0.03536 0.53818 0.0
C538 C 0.80574 0.9545 0.62355 0.0
C539 C 0.81203 0.1031 0.46652 0.0
C540 C 0.68447 0.02215 0.55181 0.0
H541 H 0.90569 0.94355 0.6452 0.0
H542 H 0.97586 0.98816 0.59884 0.0
H543 H 0.98048 0.08728 0.47237 0.0
H544 H 0.91373 0.12458 0.43354 0.0
H545 H 0.71133 0.12006 0.45243 0.0
H546 H 0.64139 0.07579 0.49884 0.0
H547 H 0.63681 0.96358 0.60965 0.0
H548 H 0.70334 0.92654 0.64853 0.0
H549 H 0.72627 0.11085 0.64841 0.0
H550 H 0.88676 0.13212 0.62632 0.0
H551 H 0.72732 0.93868 0.44974 0.0
H552 H 0.88664 0.93409 0.45454 0.0
C553 C 0.46615 0.30463 0.10916 0.0
C554 C 0.45385 0.33881 0.12259 0.0
C555 C 0.48256 0.36559 0.09692 0.0
C556 C 0.51108 0.34647 0.06969 0.0
N557 N 0.50221 0.30898 0.07613 0.0
Co558 Co 0.53876 0.27074 0.046 0.0
N559 N 0.58347 0.31039 0.0103 0.0
C560 C 0.58292 0.34771 0.01178 0.0
C561 C 0.61507 0.36804 0.98136 0.0
C562 C 0.63731 0.34227 0.95872 0.0
C563 C 0.6178 0.30743 0.97705 0.0
N564 N 0.57517 0.23251 0.01586 0.0
C565 C 0.61166 0.23688 0.98323 0.0
C566 C 0.62715 0.20285 0.97216 0.0
C567 C 0.59836 0.17599 0.99772 0.0
C568 C 0.56742 0.19503 0.02312 0.0
N569 N 0.49407 0.23108 0.08155 0.0
C570 C 0.4943 0.19376 0.07985 0.0
C571 C 0.45858 0.17354 0.10743 0.0
C572 C 0.43444 0.1994 0.12851 0.0
C573 C 0.45733 0.23409 0.1128 0.0
N574 N 0.49025 0.27112 0.0016 0.0
C575 C 0.42616 0.27189 0.93482 0.0
C576 C 0.43811 0.23832 0.95475 0.0
C577 C 0.47001 0.23857 0.98768 0.0
C578 C 0.44603 0.30504 0.94965 0.0
C579 C 0.47737 0.30401 0.98292 0.0
N580 N 0.58732 0.27037 0.09048 0.0
C581 C 0.63293 0.23671 0.14173 0.0
C582 C 0.65129 0.26988 0.15752 0.0
C583 C 0.63789 0.30333 0.13833 0.0
C584 C 0.60665 0.30293 0.10497 0.0
C585 C 0.60115 0.23758 0.10869 0.0
H586 H 0.59815 0.32938 0.09189 0.0
H587 H 0.58793 0.21131 0.09875 0.0
H588 H 0.47808 0.21208 0.0011 0.0
H589 H 0.49125 0.33023 0.99254 0.0
C590 C 0.54875 0.36291 0.03968 0.0
C591 C 0.44393 0.26888 0.1297 0.0
C592 C 0.63145 0.2724 0.96074 0.0
C593 C 0.52925 0.1785 0.05268 0.0
H594 H 0.42778 0.34413 0.14885 0.0
H595 H 0.48365 0.39544 0.09877 0.0
H596 H 0.62027 0.39803 0.9753 0.0
H597 H 0.66378 0.34874 0.93107 0.0
H598 H 0.65572 0.19787 0.9476 0.0
H599 H 0.5992 0.14611 0.99727 0.0
H600 H 0.45133 0.14354 0.11201 0.0
H601 H 0.40385 0.19332 0.15309 0.0
H602 H 0.42291 0.21181 0.94513 0.0
H603 H 0.43846 0.33186 0.93512 0.0
H604 H 0.64296 0.21 0.15467 0.0
H605 H 0.65045 0.32989 0.14947 0.0
loop_
_geom_bond_atom_site_label_1
_geom_bond_atom_site_label_2
_geom_bond_distance
_geom_bond_site_symmetry_2
_ccdc_geom_bond_type
C0 C1 1.384 . S
C0 H13 0.947 . S
C0 C35 1.382 . S
C1 C0 1.384 . S
C1 C2 1.378 . S
C2 C1 1.378 . S
C2 C3 1.378 . S
C2 H14 0.952 . S
C3 C2 1.378 . S
C3 H15 0.950 . S
C3 C34 1.383 . S
H4 C23 0.947 . S
H5 C24 0.946 . S
H6 C26 0.953 . S
H7 C27 0.945 . S
H8 C29 0.952 . S
H9 C30 0.949 . S
H10 C32 0.950 . S
H11 C33 0.948 . S
H12 C35 0.951 . S
H13 C0 0.947 . S
H14 C2 0.952 . S
H15 C3 0.950 . S
N16 C19 1.382 . S
N16 C21 1.363 . S
N17 C19 1.371 . S
N17 C20 1.372 . S
N18 C20 1.361 . S
N18 C21 1.377 . S
C19 N16 1.382 . S
C19 N17 1.371 . S
C19 C22 1.480 . S
C20 N17 1.372 . S
C20 N18 1.361 . S
C20 C28 1.457 . S
C21 N16 1.363 . S
C21 N18 1.377 . S
C21 C34 1.479 . S
C22 C19 1.480 . S
C22 C23 1.383 . S
C22 C27 1.385 . S
C23 H4 0.947 . S
C23 C22 1.383 . S
C23 C24 1.388 . S
C24 H5 0.946 . S
C24 C23 1.388 . S
C24 C25 1.384 . S
C25 C24 1.384 . S
C25 C26 1.377 . S
C26 H6 0.953 . S
C26 C25 1.377 . S
C26 C27 1.369 . S
C27 H7 0.945 . S
C27 C22 1.385 . S
C27 C26 1.369 . S
C28 C20 1.457 . S
C28 C29 1.372 . S
C28 C33 1.364 . S
C29 H8 0.952 . S
C29 C28 1.372 . S
C29 C30 1.389 . S
C30 H9 0.949 . S
C30 C29 1.389 . S
C30 C31 1.387 . S
C31 C30 1.387 . S
C31 C32 1.372 . S
C32 H10 0.950 . S
C32 C31 1.372 . S
C32 C33 1.379 . S
C33 H11 0.948 . S
C33 C28 1.364 . S
C33 C32 1.379 . S
C34 C3 1.383 . S
C34 C21 1.479 . S
C34 C35 1.398 . S
C35 C0 1.382 . S
C35 H12 0.951 . S
C35 C34 1.398 . S
C36 C37 1.384 . S
C36 H49 0.947 . S
C36 C71 1.382 . S
C37 C36 1.384 . S
C37 C38 1.378 . S
C38 C37 1.378 . S
C38 C39 1.378 . S
C38 H50 0.952 . S
C39 C38 1.378 . S
C39 H51 0.950 . S
C39 C70 1.383 . S
H40 C59 0.947 . S
H41 C60 0.946 . S
H42 C62 0.953 . S
H43 C63 0.945 . S
H44 C65 0.952 . S
H45 C66 0.949 . S
H46 C68 0.950 . S
H47 C69 0.948 . S
H48 C71 0.951 . S
H49 C36 0.947 . S
H50 C38 0.952 . S
H51 C39 0.950 . S
N52 C55 1.382 . S
N52 C57 1.363 . S
N53 C55 1.371 . S
N53 C56 1.372 . S
N54 C56 1.361 . S
N54 C57 1.377 . S
C55 N52 1.382 . S
C55 N53 1.371 . S
C55 C58 1.480 . S
C56 N53 1.372 . S
C56 N54 1.361 . S
C56 C64 1.457 . S
C57 N52 1.363 . S
C57 N54 1.377 . S
C57 C70 1.479 . S
C58 C55 1.480 . S
C58 C59 1.383 . S
C58 C63 1.385 . S
C59 H40 0.947 . S
C59 C58 1.383 . S
C59 C60 1.388 . S
C60 H41 0.946 . S
C60 C59 1.388 . S
C60 C61 1.384 . S
C61 C60 1.384 . S
C61 C62 1.377 . S
C62 H42 0.953 . S
C62 C61 1.377 . S
C62 C63 1.369 . S
C63 H43 0.945 . S
C63 C58 1.385 . S
C63 C62 1.369 . S
C64 C56 1.457 . S
C64 C65 1.372 . S
C64 C69 1.364 . S
C65 H44 0.952 . S
C65 C64 1.372 . S
C65 C66 1.389 . S
C66 H45 0.949 . S
C66 C65 1.389 . S
C66 C67 1.387 . S
C67 C66 1.387 . S
C67 C68 1.372 . S
C68 H46 0.950 . S
C68 C67 1.372 . S
C68 C69 1.379 . S
C69 H47 0.948 . S
C69 C64 1.364 . S
C69 C68 1.379 . S
C70 C39 1.383 . S
C70 C57 1.479 . S
C70 C71 1.398 . S
C71 C36 1.382 . S
C71 H48 0.951 . S
C71 C70 1.398 . S
C72 C73 1.384 . S
C72 H85 0.947 . S
C72 C107 1.382 . S
C73 C72 1.384 . S
C73 C74 1.378 . S
C74 C73 1.378 . S
C74 C75 1.378 . S
C74 H86 0.952 . S
C75 C74 1.378 . S
C75 H87 0.950 . S
C75 C106 1.383 . S
H76 C95 0.947 . S
H77 C96 0.946 . S
H78 C98 0.953 . S
H79 C99 0.945 . S
H80 C101 0.952 . S
H81 C102 0.949 . S
H82 C104 0.950 . S
H83 C105 0.948 . S
H84 C107 0.951 . S
H85 C72 0.947 . S
H86 C74 0.952 . S
H87 C75 0.950 . S
N88 C91 1.382 . S
N88 C93 1.363 . S
N89 C91 1.371 . S
N89 C92 1.372 . S
N90 C92 1.361 . S
N90 C93 1.377 . S
C91 N88 1.382 . S
C91 N89 1.371 . S
C91 C94 1.480 . S
C92 N89 1.372 . S
C92 N90 1.361 . S
C92 C100 1.457 . S
C93 N88 1.363 . S
C93 N90 1.377 . S
C93 C106 1.479 . S
C94 C91 1.480 . S
C94 C95 1.383 . S
C94 C99 1.385 . S
C95 H76 0.947 . S
C95 C94 1.383 . S
C95 C96 1.388 . S
C96 H77 0.946 . S
C96 C95 1.388 . S
C96 C97 1.384 . S
C97 C96 1.384 . S
C97 C98 1.377 . S
C98 H78 0.953 . S
C98 C97 1.377 . S
C98 C99 1.369 . S
C99 H79 0.945 . S
C99 C94 1.385 . S
C99 C98 1.369 . S
C100 C92 1.457 . S
C100 C101 1.372 . S
C100 C105 1.364 . S
C101 H80 0.952 . S
C101 C100 1.372 . S
C101 C102 1.389 . S
C102 H81 0.949 . S
C102 C101 1.389 . S
C102 C103 1.387 . S
C103 C102 1.387 . S
C103 C104 1.372 . S
C104 H82 0.950 . S
C104 C103 1.372 . S
C104 C105 1.379 . S
C105 H83 0.948 . S
C105 C100 1.364 . S
C105 C104 1.379 . S
C106 C75 1.383 . S
C106 C93 1.479 . S
C106 C107 1.398 . S
C107 C72 1.382 . S
C107 H84 0.951 . S
C107 C106 1.398 . S
C108 C109 1.384 . S
C108 H121 0.947 . S
C108 C143 1.382 . S
C109 C108 1.384 . S
C109 C110 1.378 . S
C110 C109 1.378 . S
C110 C111 1.378 . S
C110 H122 0.952 . S
C111 C110 1.378 . S
C111 H123 0.950 . S
C111 C142 1.383 . S
H112 C131 0.947 . S
H113 C132 0.946 . S
H114 C134 0.953 . S
H115 C135 0.945 . S
H116 C137 0.952 . S
H117 C138 0.949 . S
H118 C140 0.950 . S
H119 C141 0.948 . S
H120 C143 0.951 . S
H121 C108 0.947 . S
H122 C110 0.952 . S
H123 C111 0.950 . S
N124 C127 1.382 . S
N124 C129 1.363 . S
N125 C127 1.371 . S
N125 C128 1.372 . S
N126 C128 1.361 . S
N126 C129 1.377 . S
C127 N124 1.382 . S
C127 N125 1.371 . S
C127 C130 1.480 . S
C128 N125 1.372 . S
C128 N126 1.361 . S
C128 C136 1.457 . S
C129 N124 1.363 . S
C129 N126 1.377 . S
C129 C142 1.479 . S
C130 C127 1.480 . S
C130 C131 1.383 . S
C130 C135 1.385 . S
C131 H112 0.947 . S
C131 C130 1.383 . S
C131 C132 1.388 . S
C132 H113 0.946 . S
C132 C131 1.388 . S
C132 C133 1.384 . S
C133 C132 1.384 . S
C133 C134 1.377 . S
C134 H114 0.953 . S
C134 C133 1.377 . S
C134 C135 1.369 . S
C135 H115 0.945 . S
C135 C130 1.385 . S
C135 C134 1.369 . S
C136 C128 1.457 . S
C136 C137 1.372 . S
C136 C141 1.364 . S
C137 H116 0.952 . S
C137 C136 1.372 . S
C137 C138 1.389 . S
C138 H117 0.949 . S
C138 C137 1.389 . S
C138 C139 1.387 . S
C139 C138 1.387 . S
C139 C140 1.372 . S
C140 H118 0.950 . S
C140 C139 1.372 . S
C140 C141 1.379 . S
C141 H119 0.948 . S
C141 C136 1.364 . S
C141 C140 1.379 . S
C142 C111 1.383 . S
C142 C129 1.479 . S
C142 C143 1.398 . S
C143 C108 1.382 . S
C143 H120 0.951 . S
C143 C142 1.398 . S
C144 C145 1.384 . S
C144 H157 0.947 . S
C144 C179 1.382 . S
C145 C144 1.384 . S
C145 C146 1.378 . S
C146 C145 1.378 . S
C146 C147 1.378 . S
C146 H158 0.952 . S
C147 C146 1.378 . S
C147 H159 0.950 . S
C147 C178 1.383 . S
H148 C167 0.947 . S
H149 C168 0.946 . S
H150 C170 0.953 . S
H151 C171 0.945 . S
H152 C173 0.952 . S
H153 C174 0.949 . S
H154 C176 0.950 . S
H155 C177 0.948 . S
H156 C179 0.951 . S
H157 C144 0.947 . S
H158 C146 0.952 . S
H159 C147 0.950 . S
N160 C163 1.382 . S
N160 C165 1.363 . S
N161 C163 1.371 . S
N161 C164 1.372 . S
N162 C164 1.361 . S
N162 C165 1.377 . S
C163 N160 1.382 . S
C163 N161 1.371 . S
C163 C166 1.480 . S
C164 N161 1.372 . S
C164 N162 1.361 . S
C164 C172 1.457 . S
C165 N160 1.363 . S
C165 N162 1.377 . S
C165 C178 1.479 . S
C166 C163 1.480 . S
C166 C167 1.383 . S
C166 C171 1.385 . S
C167 H148 0.947 . S
C167 C166 1.383 . S
C167 C168 1.388 . S
C168 H149 0.946 . S
C168 C167 1.388 . S
C168 C169 1.384 . S
C169 C168 1.384 . S
C169 C170 1.377 . S
C170 H150 0.953 . S
C170 C169 1.377 . S
C170 C171 1.369 . S
C171 H151 0.945 . S
C171 C166 1.385 . S
C171 C170 1.369 . S
C172 C164 1.457 . S
C172 C173 1.372 . S
C172 C177 1.364 . S
C173 H152 0.952 . S
C173 C172 1.372 . S
C173 C174 1.389 . S
C174 H153 0.949 . S
C174 C173 1.389 . S
C174 C175 1.387 . S
C175 C174 1.387 . S
C175 C176 1.372 . S
C176 H154 0.950 . S
C176 C175 1.372 . S
C176 C177 1.379 . S
C177 H155 0.948 . S
C177 C172 1.364 . S
C177 C176 1.379 . S
C178 C147 1.383 . S
C178 C165 1.479 . S
C178 C179 1.398 . S
C179 C144 1.382 . S
C179 H156 0.951 . S
C179 C178 1.398 . S
C180 C181 1.384 . S
C180 H193 0.947 . S
C180 C215 1.382 . S
C181 C180 1.384 . S
C181 C182 1.378 . S
C182 C181 1.378 . S
C182 C183 1.378 . S
C182 H194 0.952 . S
C183 C182 1.378 . S
C183 H195 0.950 . S
C183 C214 1.383 . S
H184 C203 0.947 . S
H185 C204 0.946 . S
H186 C206 0.953 . S
H187 C207 0.945 . S
H188 C209 0.952 . S
H189 C210 0.949 . S
H190 C212 0.950 . S
H191 C213 0.948 . S
H192 C215 0.951 . S
H193 C180 0.947 . S
H194 C182 0.952 . S
H195 C183 0.950 . S
N196 C199 1.382 . S
N196 C201 1.363 . S
N197 C199 1.371 . S
N197 C200 1.372 . S
N198 C200 1.361 . S
N198 C201 1.377 . S
C199 N196 1.382 . S
C199 N197 1.371 . S
C199 C202 1.480 . S
C200 N197 1.372 . S
C200 N198 1.361 . S
C200 C208 1.457 . S
C201 N196 1.363 . S
C201 N198 1.377 . S
C201 C214 1.479 . S
C202 C199 1.480 . S
C202 C203 1.383 . S
C202 C207 1.385 . S
C203 H184 0.947 . S
C203 C202 1.383 . S
C203 C204 1.388 . S
C204 H185 0.946 . S
C204 C203 1.388 . S
C204 C205 1.384 . S
C205 C204 1.384 . S
C205 C206 1.377 . S
C206 H186 0.953 . S
C206 C205 1.377 . S
C206 C207 1.369 . S
C207 H187 0.945 . S
C207 C202 1.385 . S
C207 C206 1.369 . S
C208 C200 1.457 . S
C208 C209 1.372 . S
C208 C213 1.364 . S
C209 H188 0.952 . S
C209 C208 1.372 . S
C209 C210 1.389 . S
C210 H189 0.949 . S
C210 C209 1.389 . S
C210 C211 1.387 . S
C211 C210 1.387 . S
C211 C212 1.372 . S
C212 H190 0.950 . S
C212 C211 1.372 . S
C212 C213 1.379 . S
C213 H191 0.948 . S
C213 C208 1.364 . S
C213 C212 1.379 . S
C214 C183 1.383 . S
C214 C201 1.479 . S
C214 C215 1.398 . S
C215 C180 1.382 . S
C215 H192 0.951 . S
C215 C214 1.398 . S
C216 C217 1.384 . S
C216 H229 0.947 . S
C216 C251 1.382 . S
C217 C216 1.384 . S
C217 C218 1.378 . S
C218 C217 1.378 . S
C218 C219 1.378 . S
C218 H230 0.952 . S
C219 C218 1.378 . S
C219 H231 0.950 . S
C219 C250 1.383 . S
H220 C239 0.947 . S
H221 C240 0.946 . S
H222 C242 0.953 . S
H223 C243 0.945 . S
H224 C245 0.952 . S
H225 C246 0.949 . S
H226 C248 0.950 . S
H227 C249 0.948 . S
H228 C251 0.951 . S
H229 C216 0.947 . S
H230 C218 0.952 . S
H231 C219 0.950 . S
N232 C235 1.382 . S
N232 C237 1.363 . S
N233 C235 1.371 . S
N233 C236 1.372 . S
N234 C236 1.361 . S
N234 C237 1.377 . S
C235 N232 1.382 . S
C235 N233 1.371 . S
C235 C238 1.480 . S
C236 N233 1.372 . S
C236 N234 1.361 . S
C236 C244 1.457 . S
C237 N232 1.363 . S
C237 N234 1.377 . S
C237 C250 1.479 . S
C238 C235 1.480 . S
C238 C239 1.383 . S
C238 C243 1.385 . S
C239 H220 0.947 . S
C239 C238 1.383 . S
C239 C240 1.388 . S
C240 H221 0.946 . S
C240 C239 1.388 . S
C240 C241 1.384 . S
C241 C240 1.384 . S
C241 C242 1.377 . S
C242 H222 0.953 . S
C242 C241 1.377 . S
C242 C243 1.369 . S
C243 H223 0.945 . S
C243 C238 1.385 . S
C243 C242 1.369 . S
C244 C236 1.457 . S
C244 C245 1.372 . S
C244 C249 1.364 . S
C245 H224 0.952 . S
C245 C244 1.372 . S
C245 C246 1.389 . S
C246 H225 0.949 . S
C246 C245 1.389 . S
C246 C247 1.387 . S
C247 C246 1.387 . S
C247 C248 1.372 . S
C248 H226 0.950 . S
C248 C247 1.372 . S
C248 C249 1.379 . S
C249 H227 0.948 . S
C249 C244 1.364 . S
C249 C248 1.379 . S
C250 C219 1.383 . S
C250 C237 1.479 . S
C250 C251 1.398 . S
C251 C216 1.382 . S
C251 H228 0.951 . S
C251 C250 1.398 . S
C252 C253 1.384 . S
C252 H265 0.947 . S
C252 C287 1.382 . S
C253 C252 1.384 . S
C253 C254 1.378 . S
C254 C253 1.378 . S
C254 C255 1.378 . S
C254 H266 0.952 . S
C255 C254 1.378 . S
C255 H267 0.950 . S
C255 C286 1.383 . S
H256 C275 0.947 . S
H257 C276 0.946 . S
H258 C278 0.953 . S
H259 C279 0.945 . S
H260 C281 0.952 . S
H261 C282 0.949 . S
H262 C284 0.950 . S
H263 C285 0.948 . S
H264 C287 0.951 . S
H265 C252 0.947 . S
H266 C254 0.952 . S
H267 C255 0.950 . S
N268 C271 1.382 . S
N268 C273 1.363 . S
N269 C271 1.371 . S
N269 C272 1.372 . S
N270 C272 1.361 . S
N270 C273 1.377 . S
C271 N268 1.382 . S
C271 N269 1.371 . S
C271 C274 1.480 . S
C272 N269 1.372 . S
C272 N270 1.361 . S
C272 C280 1.457 . S
C273 N268 1.363 . S
C273 N270 1.377 . S
C273 C286 1.479 . S
C274 C271 1.480 . S
C274 C275 1.383 . S
C274 C279 1.385 . S
C275 H256 0.947 . S
C275 C274 1.383 . S
C275 C276 1.388 . S
C276 H257 0.946 . S
C276 C275 1.388 . S
C276 C277 1.384 . S
C277 C276 1.384 . S
C277 C278 1.377 . S
C278 H258 0.953 . S
C278 C277 1.377 . S
C278 C279 1.369 . S
C279 H259 0.945 . S
C279 C274 1.385 . S
C279 C278 1.369 . S
C280 C272 1.457 . S
C280 C281 1.372 . S
C280 C285 1.364 . S
C281 H260 0.952 . S
C281 C280 1.372 . S
C281 C282 1.389 . S
C282 H261 0.949 . S
C282 C281 1.389 . S
C282 C283 1.387 . S
C283 C282 1.387 . S
C283 C284 1.372 . S
C284 H262 0.950 . S
C284 C283 1.372 . S
C284 C285 1.379 . S
C285 H263 0.948 . S
C285 C280 1.364 . S
C285 C284 1.379 . S
C286 C255 1.383 . S
C286 C273 1.479 . S
C286 C287 1.398 . S
C287 C252 1.382 . S
C287 H264 0.951 . S
C287 C286 1.398 . S
C288 C289 1.443 . S
C288 N292 1.376 . S
C288 C326 1.389 . S
C289 C288 1.443 . S
C289 C290 1.340 . S
C289 H329 0.951 . S
C290 C289 1.340 . S
C290 C291 1.439 . S
C290 H330 0.950 . S
C291 C290 1.439 . S
C291 N292 1.374 . S
C291 C325 1.395 . S
N292 C288 1.376 . S
N292 C291 1.374 . S
N292 Co293 2.008 . S
Co293 N292 2.008 . S
Co293 N294 1.995 1_455 S
Co293 N299 2.008 . S
Co293 N304 1.995 . S
Co293 N309 2.282 . S
Co293 N315 2.282 1_455 S
N294 Co293 1.995 1_655 S
N294 C295 1.376 . S
N294 C298 1.383 . S
C295 N294 1.376 . S
C295 C296 1.446 . S
C295 C325 1.391 1_655 S
C296 C295 1.446 . S
C296 C297 1.339 . S
C296 H331 0.949 . S
C297 C296 1.339 . S
C297 C298 1.439 . S
C297 H332 0.950 . S
C298 N294 1.383 . S
C298 C297 1.439 . S
C298 C327 1.392 . S
N299 Co293 2.008 . S
N299 C300 1.376 1_455 S
N299 C303 1.374 . S
C300 N299 1.376 1_655 S
C300 C301 1.443 . S
C300 C327 1.389 . S
C301 C300 1.443 . S
C301 C302 1.340 . S
C301 H333 0.951 . S
C302 C301 1.340 . S
C302 C303 1.439 1_655 S
C302 H334 0.950 . S
C303 N299 1.374 . S
C303 C302 1.439 1_455 S
C303 C328 1.395 . S
N304 Co293 1.995 . S
N304 C305 1.376 . S
N304 C308 1.383 . S
C305 N304 1.376 . S
C305 C306 1.446 . S
C305 C328 1.391 . S
C306 C305 1.446 . S
C306 C307 1.339 . S
C306 H335 0.949 . S
C307 C306 1.339 . S
C307 C308 1.439 . S
C307 H336 0.950 . S
C308 N304 1.383 . S
C308 C307 1.439 . S
C308 C326 1.392 . S
N309 Co293 2.282 . S
N309 C312 1.332 . S
N309 C314 1.332 . S
C310 C311 1.386 . S
C310 C313 1.388 . S
C311 C310 1.386 . S
C311 C312 1.382 . S
C311 H337 0.950 . S
C312 N309 1.332 . S
C312 C311 1.382 . S
C312 H323 0.952 . S
C313 C310 1.388 . S
C313 C314 1.382 . S
C313 H338 0.950 . S
C314 N309 1.332 . S
C314 C313 1.382 . S
C314 H324 0.948 . S
N315 Co293 2.282 1_655 S
N315 C319 1.332 . S
N315 C320 1.332 . S
C316 C317 1.388 . S
C316 C320 1.382 . S
C316 H339 0.950 . S
C317 C316 1.388 . S
C317 C318 1.386 . S
C318 C317 1.386 . S
C318 C319 1.382 . S
C318 H340 0.950 . S
C319 N315 1.332 . S
C319 C318 1.382 . S
C319 H321 0.952 . S
C320 N315 1.332 . S
C320 C316 1.382 . S
C320 H322 0.948 . S
H321 C319 0.952 . S
H322 C320 0.948 . S
H323 C312 0.952 . S
H324 C314 0.948 . S
C325 C291 1.395 . S
C325 C295 1.391 1_455 S
C326 C288 1.389 . S
C326 C308 1.392 . S
C327 C298 1.392 . S
C327 C300 1.389 . S
C328 C303 1.395 . S
C328 C305 1.391 . S
H329 C289 0.951 . S
H330 C290 0.950 . S
H331 C296 0.949 . S
H332 C297 0.950 . S
H333 C301 0.951 . S
H334 C302 0.950 . S
H335 C306 0.949 . S
H336 C307 0.950 . S
H337 C311 0.950 . S
H338 C313 0.950 . S
H339 C316 0.950 . S
H340 C318 0.950 . S
C341 C342 1.443 . S
C341 N345 1.376 . S
C341 C379 1.389 . S
C342 C341 1.443 . S
C342 C343 1.340 . S
C342 H382 0.951 . S
C343 C342 1.340 . S
C343 C344 1.439 . S
C343 H383 0.950 . S
C344 C343 1.439 . S
C344 N345 1.374 . S
C344 C378 1.395 . S
N345 C341 1.376 . S
N345 C344 1.374 . S
N345 Co346 2.008 . S
Co346 N345 2.008 . S
Co346 N347 1.995 1_455 S
Co346 N352 2.008 1_455 S
Co346 N357 1.995 . S
Co346 N362 2.282 . S
Co346 N368 2.282 1_455 S
N347 Co346 1.995 1_655 S
N347 C348 1.376 . S
N347 C351 1.383 . S
C348 N347 1.376 . S
C348 C349 1.446 . S
C348 C378 1.391 1_655 S
C349 C348 1.446 . S
C349 C350 1.339 . S
C349 H384 0.949 . S
C350 C349 1.339 . S
C350 C351 1.439 . S
C350 H385 0.950 . S
C351 N347 1.383 . S
C351 C350 1.439 . S
C351 C380 1.392 . S
N352 Co346 2.008 1_655 S
N352 C353 1.376 . S
N352 C356 1.374 1_655 S
C353 N352 1.376 . S
C353 C354 1.443 . S
C353 C380 1.389 . S
C354 C353 1.443 . S
C354 C355 1.340 . S
C354 H386 0.951 . S
C355 C354 1.340 . S
C355 C356 1.439 1_655 S
C355 H387 0.950 . S
C356 N352 1.374 1_455 S
C356 C355 1.439 1_455 S
C356 C381 1.395 . S
N357 Co346 1.995 . S
N357 C358 1.376 . S
N357 C361 1.383 . S
C358 N357 1.376 . S
C358 C359 1.446 . S
C358 C381 1.391 . S
C359 C358 1.446 . S
C359 C360 1.339 . S
C359 H388 0.949 . S
C360 C359 1.339 . S
C360 C361 1.439 . S
C360 H389 0.950 . S
C361 N357 1.383 . S
C361 C360 1.439 . S
C361 C379 1.392 . S
N362 Co346 2.282 . S
N362 C365 1.332 . S
N362 C367 1.332 . S
C363 C364 1.386 . S
C363 C366 1.388 . S
C364 C363 1.386 . S
C364 C365 1.382 . S
C364 H390 0.950 . S
C365 N362 1.332 . S
C365 C364 1.382 . S
C365 H376 0.952 . S
C366 C363 1.388 . S
C366 C367 1.382 . S
C366 H391 0.950 . S
C367 N362 1.332 . S
C367 C366 1.382 . S
C367 H377 0.948 . S
N368 Co346 2.282 1_655 S
N368 C372 1.332 . S
N368 C373 1.332 . S
C369 C370 1.388 . S
C369 C373 1.382 . S
C369 H392 0.950 . S
C370 C369 1.388 . S
C370 C371 1.386 . S
C371 C370 1.386 . S
C371 C372 1.382 . S
C371 H393 0.950 . S
C372 N368 1.332 . S
C372 C371 1.382 . S
C372 H374 0.952 . S
C373 N368 1.332 . S
C373 C369 1.382 . S
C373 H375 0.948 . S
H374 C372 0.952 . S
H375 C373 0.948 . S
H376 C365 0.952 . S
H377 C367 0.948 . S
C378 C344 1.395 . S
C378 C348 1.391 1_455 S
C379 C341 1.389 . S
C379 C361 1.392 . S
C380 C351 1.392 . S
C380 C353 1.389 . S
C381 C356 1.395 . S
C381 C358 1.391 . S
H382 C342 0.951 . S
H383 C343 0.950 . S
H384 C349 0.949 . S
H385 C350 0.950 . S
H386 C354 0.951 . S
H387 C355 0.950 . S
H388 C359 0.949 . S
H389 C360 0.950 . S
H390 C364 0.950 . S
H391 C366 0.950 . S
H392 C369 0.950 . S
H393 C371 0.950 . S
C394 C395 1.443 . S
C394 N398 1.376 . S
C394 C432 1.389 . S
C395 C394 1.443 . S
C395 C396 1.340 . S
C395 H435 0.951 . S
C396 C395 1.340 . S
C396 C397 1.439 . S
C396 H436 0.950 . S
C397 C396 1.439 . S
C397 N398 1.374 . S
C397 C431 1.395 1_565 S
N398 C394 1.376 . S
N398 C397 1.374 . S
N398 Co399 2.008 1_565 S
Co399 N398 2.008 1_545 S
Co399 N400 1.995 . S
Co399 N405 2.008 . S
Co399 N410 1.995 1_545 S
Co399 N415 2.282 . S
Co399 N421 2.282 1_545 S
N400 Co399 1.995 . S
N400 C401 1.376 . S
N400 C404 1.383 . S
C401 N400 1.376 . S
C401 C402 1.446 . S
C401 C431 1.391 . S
C402 C401 1.446 . S
C402 C403 1.339 . S
C402 H437 0.949 . S
C403 C402 1.339 . S
C403 C404 1.439 . S
C403 H438 0.950 . S
C404 N400 1.383 . S
C404 C403 1.439 . S
C404 C433 1.392 . S
N405 Co399 2.008 . S
N405 C406 1.376 . S
N405 C409 1.374 . S
C406 N405 1.376 . S
C406 C407 1.443 . S
C406 C433 1.389 . S
C407 C406 1.443 . S
C407 C408 1.340 . S
C407 H439 0.951 . S
C408 C407 1.340 . S
C408 C409 1.439 . S
C408 H440 0.950 . S
C409 N405 1.374 . S
C409 C408 1.439 . S
C409 C434 1.395 . S
N410 Co399 1.995 1_565 S
N410 C411 1.376 . S
N410 C414 1.383 . S
C411 N410 1.376 . S
C411 C412 1.446 . S
C411 C434 1.391 1_565 S
C412 C411 1.446 . S
C412 C413 1.339 . S
C412 H441 0.949 . S
C413 C412 1.339 . S
C413 C414 1.439 . S
C413 H442 0.950 . S
C414 N410 1.383 . S
C414 C413 1.439 . S
C414 C432 1.392 . S
N415 Co399 2.282 . S
N415 C418 1.332 . S
N415 C420 1.332 . S
C416 C417 1.386 . S
C416 C419 1.388 . S
C417 C416 1.386 . S
C417 C418 1.382 . S
C417 H443 0.950 . S
C418 N415 1.332 . S
C418 C417 1.382 . S
C418 H429 0.952 . S
C419 C416 1.388 . S
C419 C420 1.382 . S
C419 H444 0.950 . S
C420 N415 1.332 . S
C420 C419 1.382 . S
C420 H430 0.948 . S
N421 Co399 2.282 1_565 S
N421 C425 1.332 . S
N421 C426 1.332 . S
C422 C423 1.388 . S
C422 C426 1.382 . S
C422 H445 0.950 . S
C423 C422 1.388 . S
C423 C424 1.386 . S
C424 C423 1.386 . S
C424 C425 1.382 . S
C424 H446 0.950 . S
C425 N421 1.332 . S
C425 C424 1.382 . S
C425 H427 0.952 . S
C426 N421 1.332 . S
C426 C422 1.382 . S
C426 H428 0.948 . S
H427 C425 0.952 . S
H428 C426 0.948 . S
H429 C418 0.952 . S
H430 C420 0.948 . S
C431 C397 1.395 1_545 S
C431 C401 1.391 . S
C432 C394 1.389 . S
C432 C414 1.392 . S
C433 C404 1.392 . S
C433 C406 1.389 . S
C434 C409 1.395 . S
C434 C411 1.391 1_545 S
H435 C395 0.951 . S
H436 C396 0.950 . S
H437 C402 0.949 . S
H438 C403 0.950 . S
H439 C407 0.951 . S
H440 C408 0.950 . S
H441 C412 0.949 . S
H442 C413 0.950 . S
H443 C417 0.950 . S
H444 C419 0.950 . S
H445 C422 0.950 . S
H446 C424 0.950 . S
C447 C448 1.443 . S
C447 N451 1.376 . S
C447 C485 1.389 . S
C448 C447 1.443 . S
C448 C449 1.340 . S
C448 H488 0.951 . S
C449 C448 1.340 . S
C449 C450 1.439 . S
C449 H489 0.950 . S
C450 C449 1.439 . S
C450 N451 1.374 . S
C450 C484 1.395 . S
N451 C447 1.376 . S
N451 C450 1.374 . S
N451 Co452 2.008 . S
Co452 N451 2.008 . S
Co452 N453 1.995 1_554 S
Co452 N458 2.008 1_554 S
Co452 N463 1.995 . S
Co452 N468 2.282 1_554 S
Co452 N474 2.282 . S
N453 Co452 1.995 1_556 S
N453 C454 1.376 1_556 S
N453 C457 1.383 . S
C454 N453 1.376 1_554 S
C454 C455 1.446 1_554 S
C454 C484 1.391 . S
C455 C454 1.446 1_556 S
C455 C456 1.339 . S
C455 H490 0.949 . S
C456 C455 1.339 . S
C456 C457 1.439 . S
C456 H491 0.950 . S
C457 N453 1.383 . S
C457 C456 1.439 . S
C457 C486 1.392 . S
N458 Co452 2.008 1_556 S
N458 C459 1.376 . S
N458 C462 1.373 . S
C459 N458 1.376 . S
C459 C460 1.443 . S
C459 C486 1.389 . S
C460 C459 1.443 . S
C460 C461 1.340 . S
C460 H492 0.951 . S
C461 C460 1.340 . S
C461 C462 1.452 . S
C461 H493 0.950 . S
C462 N458 1.373 . S
C462 C461 1.452 . S
C462 C487 1.385 1_556 S
N463 Co452 1.995 . S
N463 C464 1.376 . S
N463 C467 1.383 . S
C464 N463 1.376 . S
C464 C465 1.446 . S
C464 C487 1.391 . S
C465 C464 1.446 . S
C465 C466 1.339 . S
C465 H494 0.949 . S
C466 C465 1.339 . S
C466 C467 1.439 . S
C466 H495 0.950 . S
C467 N463 1.383 . S
C467 C466 1.439 . S
C467 C485 1.392 . S
N468 Co452 2.282 1_556 S
N468 C471 1.332 . S
N468 C473 1.332 . S
C469 C470 1.386 . S
C469 C472 1.388 . S
C470 C469 1.386 . S
C470 C471 1.382 . S
C470 H496 0.950 . S
C471 N468 1.332 . S
C471 C470 1.382 . S
C471 H482 0.952 . S
C472 C469 1.388 . S
C472 C473 1.382 . S
C472 H497 0.950 . S
C473 N468 1.332 . S
C473 C472 1.382 . S
C473 H483 0.948 . S
N474 Co452 2.282 . S
N474 C478 1.332 . S
N474 C479 1.332 . S
C475 C476 1.388 . S
C475 C479 1.382 . S
C475 H498 0.950 . S
C476 C475 1.388 . S
C476 C477 1.386 . S
C477 C476 1.386 . S
C477 C478 1.382 . S
C477 H499 0.950 . S
C478 N474 1.332 . S
C478 C477 1.382 . S
C478 H480 0.952 . S
C479 N474 1.332 . S
C479 C475 1.382 . S
C479 H481 0.948 . S
H480 C478 0.952 . S
H481 C479 0.948 . S
H482 C471 0.952 . S
H483 C473 0.948 . S
C484 C450 1.395 . S
C484 C454 1.391 . S
C485 C447 1.389 . S
C485 C467 1.392 . S
C486 C457 1.392 . S
C486 C459 1.389 . S
C487 C462 1.385 1_554 S
C487 C464 1.391 . S
H488 C448 0.951 . S
H489 C449 0.950 . S
H490 C455 0.949 . S
H491 C456 0.950 . S
H492 C460 0.951 . S
H493 C461 0.950 . S
H494 C465 0.949 . S
H495 C466 0.950 . S
H496 C470 0.950 . S
H497 C472 0.950 . S
H498 C475 0.950 . S
H499 C477 0.950 . S
C500 C501 1.443 . S
C500 N504 1.376 1_565 S
C500 C538 1.389 . S
C501 C500 1.443 . S
C501 C502 1.340 . S
C501 H541 0.951 . S
C502 C501 1.340 . S
C502 C503 1.439 1_565 S
C502 H542 0.950 . S
C503 C502 1.439 1_545 S
C503 N504 1.374 . S
C503 C537 1.395 . S
N504 C500 1.376 1_545 S
N504 C503 1.374 . S
N504 Co505 2.008 . S
Co505 N504 2.008 . S
Co505 N506 1.995 . S
Co505 N511 2.008 . S
Co505 N516 1.995 . S
Co505 N521 2.282 . S
Co505 N527 2.282 1_545 S
N506 Co505 1.995 . S
N506 C507 1.376 . S
N506 C510 1.383 . S
C507 N506 1.376 . S
C507 C508 1.446 . S
C507 C537 1.391 . S
C508 C507 1.446 . S
C508 C509 1.339 . S
C508 H543 0.949 . S
C509 C508 1.339 . S
C509 C510 1.439 . S
C509 H544 0.950 . S
C510 N506 1.383 . S
C510 C509 1.439 . S
C510 C539 1.392 . S
N511 Co505 2.008 . S
N511 C512 1.376 . S
N511 C515 1.374 . S
C512 N511 1.376 . S
C512 C513 1.443 . S
C512 C539 1.389 . S
C513 C512 1.443 . S
C513 C514 1.340 . S
C513 H545 0.951 . S
C514 C513 1.340 . S
C514 C515 1.439 . S
C514 H546 0.950 . S
C515 N511 1.374 . S
C515 C514 1.439 . S
C515 C540 1.395 . S
N516 Co505 1.995 . S
N516 C517 1.376 . S
N516 C520 1.383 1_545 S
C517 N516 1.376 . S
C517 C518 1.446 1_545 S
C517 C540 1.391 . S
C518 C517 1.446 1_565 S
C518 C519 1.339 . S
C518 H547 0.949 . S
C519 C518 1.339 . S
C519 C520 1.439 . S
C519 H548 0.950 . S
C520 N516 1.383 1_565 S
C520 C519 1.439 . S
C520 C538 1.392 . S
N521 Co505 2.282 . S
N521 C524 1.332 . S
N521 C526 1.332 . S
C522 C523 1.386 . S
C522 C525 1.388 . S
C523 C522 1.386 . S
C523 C524 1.382 . S
C523 H549 0.950 . S
C524 N521 1.332 . S
C524 C523 1.382 . S
C524 H535 0.952 . S
C525 C522 1.388 . S
C525 C526 1.382 . S
C525 H550 0.950 . S
C526 N521 1.332 . S
C526 C525 1.382 . S
C526 H536 0.948 . S
N527 Co505 2.282 1_565 S
N527 C531 1.332 . S
N527 C532 1.332 . S
C528 C529 1.388 . S
C528 C532 1.382 . S
C528 H551 0.950 . S
C529 C528 1.388 . S
C529 C530 1.386 . S
C530 C529 1.386 . S
C530 C531 1.382 . S
C530 H552 0.950 . S
C531 N527 1.332 . S
C531 C530 1.382 . S
C531 H533 0.952 . S
C532 N527 1.332 . S
C532 C528 1.382 . S
C532 H534 0.948 . S
H533 C531 0.952 . S
H534 C532 0.948 . S
H535 C524 0.952 . S
H536 C526 0.948 . S
C537 C503 1.395 . S
C537 C507 1.391 . S
C538 C500 1.389 . S
C538 C520 1.392 . S
C539 C510 1.392 . S
C539 C512 1.389 . S
C540 C515 1.395 . S
C540 C517 1.391 . S
H541 C501 0.951 . S
H542 C502 0.950 . S
H543 C508 0.949 . S
H544 C509 0.950 . S
H545 C513 0.951 . S
H546 C514 0.950 . S
H547 C518 0.949 . S
H548 C519 0.950 . S
H549 C523 0.950 . S
H550 C525 0.950 . S
H551 C528 0.950 . S
H552 C530 0.950 . S
C553 C554 1.443 . S
C553 N557 1.376 . S
C553 C591 1.389 . S
C554 C553 1.443 . S
C554 C555 1.340 . S
C554 H594 0.951 . S
C555 C554 1.340 . S
C555 C556 1.439 . S
C555 H595 0.950 . S
C556 C555 1.439 . S
C556 N557 1.374 . S
C556 C590 1.395 . S
N557 C553 1.376 . S
N557 C556 1.374 . S
N557 Co558 2.008 . S
Co558 N557 2.008 . S
Co558 N559 1.995 . S
Co558 N564 2.008 . S
Co558 N569 1.995 . S
Co558 N574 2.282 1_554 S
Co558 N580 2.282 . S
N559 Co558 1.995 . S
N559 C560 1.376 . S
N559 C563 1.383 1_554 S
C560 N559 1.376 . S
C560 C561 1.446 1_554 S
C560 C590 1.391 . S
C561 C560 1.446 1_556 S
C561 C562 1.339 . S
C561 H596 0.949 . S
C562 C561 1.339 . S
C562 C563 1.439 . S
C562 H597 0.950 . S
C563 N559 1.383 1_556 S
C563 C562 1.439 . S
C563 C592 1.392 . S
N564 Co558 2.008 . S
N564 C565 1.376 1_554 S
N564 C568 1.374 . S
C565 N564 1.376 1_556 S
C565 C566 1.443 . S
C565 C592 1.389 . S
C566 C565 1.443 . S
C566 C567 1.340 . S
C566 H598 0.951 . S
C567 C566 1.340 . S
C567 C568 1.439 1_556 S
C567 H599 0.950 . S
C568 N564 1.374 . S
C568 C567 1.439 1_554 S
C568 C593 1.395 . S
N569 Co558 1.995 . S
N569 C570 1.376 . S
N569 C573 1.383 . S
C570 N569 1.376 . S
C570 C571 1.446 . S
C570 C593 1.391 . S
C571 C570 1.446 . S
C571 C572 1.339 . S
C571 H600 0.949 . S
C572 C571 1.339 . S
C572 C573 1.439 . S
C572 H601 0.950 . S
C573 N569 1.383 . S
C573 C572 1.439 . S
C573 C591 1.392 . S
N574 Co558 2.282 1_556 S
N574 C577 1.332 . S
N574 C579 1.332 . S
C575 C576 1.386 . S
C575 C578 1.388 . S
C576 C575 1.386 . S
C576 C577 1.382 . S
C576 H602 0.950 . S
C577 N574 1.332 . S
C577 C576 1.382 . S
C577 H588 0.952 1_556 S
C578 C575 1.388 . S
C578 C579 1.382 . S
C578 H603 0.950 . S
C579 N574 1.332 . S
C579 C578 1.382 . S
C579 H589 0.948 . S
N580 Co558 2.282 . S
N580 C584 1.332 . S
N580 C585 1.332 . S
C581 C582 1.388 . S
C581 C585 1.382 . S
C581 H604 0.950 . S
C582 C581 1.388 . S
C582 C583 1.386 . S
C583 C582 1.386 . S
C583 C584 1.382 . S
C583 H605 0.950 . S
C584 N580 1.332 . S
C584 C583 1.382 . S
C584 H586 0.952 . S
C585 N580 1.332 . S
C585 C581 1.382 . S
C585 H587 0.948 . S
H586 C584 0.952 . S
H587 C585 0.948 . S
H588 C577 0.952 1_554 S
H589 C579 0.948 . S
C590 C556 1.395 . S
C590 C560 1.391 . S
C591 C553 1.389 . S
C591 C573 1.392 . S
C592 C563 1.392 . S
C592 C565 1.389 . S
C593 C568 1.395 . S
C593 C570 1.391 . S
H594 C554 0.951 . S
H595 C555 0.950 . S
H596 C561 0.949 . S
H597 C562 0.950 . S
H598 C566 0.951 . S
H599 C567 0.950 . S
H600 C571 0.949 . S
H601 C572 0.950 . S
H602 C576 0.950 . S
H603 C578 0.950 . S
H604 C581 0.950 . S
H605 C583 0.950 . S
C310 C25 1.611 . S
C379 C37 1.579 . S
C317 C103 1.637 . S
C380 C139 1.593 . S
C433 C31 1.739 . S
C469 C67 1.614 . S
C97 C529 1.684 . S
C592 C133 1.602 . S
C432 C61 1.685 . S
C73 C476 1.568 . S
C522 C109 1.755 . S
C591 C1 1.636 . S
C169 C370 1.606 . S
C327 C211 1.580 . S
C241 C363 1.620 . S
C253 C326 1.587 . S
C538 C175 1.710 . S
C582 C205 1.561 . S
C416 C217 1.710 . S
C283 C485 1.556 . S
C539 C181 1.669 . S
C575 C247 1.619 . S
C423 C277 1.642 . S
C145 C486 1.590 . S
