# Generated by pormake.
# Topology zzz, (3,6)-cn, num edge types: 1
# Building blocks:
#     Node 0, Type 0, BuildingBlock: PAMTOO_clean_linker_0, # of connection points: 3
#     Node 1, Type 0, BuildingBlock: PAMTOO_clean_linker_0, # of connection points: 3
#     Node 2, Type 0, BuildingBlock: PAMTOO_clean_linker_0, # of connection points: 3
#     Node 3, Type 0, BuildingBlock: PAMTOO_clean_linker_0, # of connection points: 3
#     Node 4, Type 0, BuildingBlock: PAMTOO_clean_linker_0, # of connection points: 3
#     Node 5, Type 0, BuildingBlock: PAMTOO_clean_linker_0, # of connection points: 3
#     Node 6, Type 0, BuildingBlock: PAMTOO_clean_linker_0, # of connection points: 3
#     Node 7, Type 0, BuildingBlock: PAMTOO_clean_linker_0, # of connection points: 3
#     Node 8, Type 1, BuildingBlock: KUMBUR_clean_sbu_0, # of connection points: 6
#     Node 9, Type 1, BuildingBlock: KUMBUR_clean_sbu_0, # of connection points: 6
#     Node 10, Type 1, BuildingBlock: KUMBUR_clean_sbu_0, # of connection points: 6
#     Node 11, Type 1, BuildingBlock: KUMBUR_clean_sbu_0, # of connection points: 6
#     Edge 12, Type (0, 1), BuildingBlock: XIVTED_clean_linker_0, # of connection points: 2
#     Edge 13, Type (0, 1), BuildingBlock: XIVTED_clean_linker_0, # of connection points: 2
#     Edge 14, Type (0, 1), BuildingBlock: XIVTED_clean_linker_0, # of connection points: 2
#     Edge 15, Type (0, 1), BuildingBlock: XIVTED_clean_linker_0, # of connection points: 2
#     Edge 16, Type (0, 1), BuildingBlock: XIVTED_clean_linker_0, # of connection points: 2
#     Edge 17, Type (0, 1), BuildingBlock: XIVTED_clean_linker_0, # of connection points: 2
#     Edge 18, Type (0, 1), BuildingBlock: XIVTED_clean_linker_0, # of connection points: 2
#     Edge 19, Type (0, 1), BuildingBlock: XIVTED_clean_linker_0, # of connection points: 2
#     Edge 20, Type (0, 1), BuildingBlock: XIVTED_clean_linker_0, # of connection points: 2
#     Edge 21, Type (0, 1), BuildingBlock: XIVTED_clean_linker_0, # of connection points: 2
#     Edge 22, Type (0, 1), BuildingBlock: XIVTED_clean_linker_0, # of connection points: 2
#     Edge 23, Type (0, 1), BuildingBlock: XIVTED_clean_linker_0, # of connection points: 2
#     Edge 24, Type (0, 1), BuildingBlock: XIVTED_clean_linker_0, # of connection points: 2
#     Edge 25, Type (0, 1), BuildingBlock: XIVTED_clean_linker_0, # of connection points: 2
#     Edge 26, Type (0, 1), BuildingBlock: XIVTED_clean_linker_0, # of connection points: 2
#     Edge 27, Type (0, 1), BuildingBlock: XIVTED_clean_linker_0, # of connection points: 2
#     Edge 28, Type (0, 1), BuildingBlock: XIVTED_clean_linker_0, # of connection points: 2
#     Edge 29, Type (0, 1), BuildingBlock: XIVTED_clean_linker_0, # of connection points: 2
#     Edge 30, Type (0, 1), BuildingBlock: XIVTED_clean_linker_0, # of connection points: 2
#     Edge 31, Type (0, 1), BuildingBlock: XIVTED_clean_linker_0, # of connection points: 2
#     Edge 32, Type (0, 1), BuildingBlock: XIVTED_clean_linker_0, # of connection points: 2
#     Edge 33, Type (0, 1), BuildingBlock: XIVTED_clean_linker_0, # of connection points: 2
#     Edge 34, Type (0, 1), BuildingBlock: XIVTED_clean_linker_0, # of connection points: 2
#     Edge 35, Type (0, 1), BuildingBlock: XIVTED_clean_linker_0, # of connection points: 2
# Relax obj value: 0.174
# Max RMSD: 0.164
# Mean RMSD: 0.115
data_MOF--net-zzz--node1-KUMBUR_clean_sbu_0--node2-PAMTOO_clean_linker_0--edge1-XIVTED_clean_linker_0
_symmetry_space_group_name_H-M    P1
_symmetry_Int_Tables_number       1
_symmetry_cell_setting            triclinic
loop_
_symmetry_equiv_pos_as_xyz
'x, y, z'
_cell_length_a     50.084788
_cell_length_b     50.039739
_cell_length_c     14.548442
_cell_angle_alpha  91.296298
_cell_angle_beta   89.893022
_cell_angle_gamma 90.047095
loop_
_atom_site_label
_atom_site_type_symbol
_atom_site_fract_x
_atom_site_fract_y
_atom_site_fract_z
_atom_type_partial_charge
H0 H 0.82539 0.58749 0.23273 0.0
H1 H 0.74743 0.58397 0.11038 0.0
H2 H 0.7675 0.53125 0.33014 0.0
H3 H 0.72479 0.50679 0.18064 0.0
C4 C 0.72306 0.52659 0.14803 0.0
O5 O 0.72915 0.54634 0.2133 0.0
H6 H 0.73779 0.52661 0.09051 0.0
C7 C 0.80516 0.5797 0.23215 0.0
C8 C 0.79877 0.55889 0.29114 0.0
C9 C 0.78705 0.58868 0.16619 0.0
C10 C 0.76135 0.57767 0.16256 0.0
C11 C 0.75399 0.55723 0.22193 0.0
C12 C 0.77279 0.54769 0.28653 0.0
H13 H 0.96654 0.84038 0.22454 0.0
H14 H 0.96825 0.76174 0.09838 0.0
H15 H 0.02048 0.78108 0.32493 0.0
H16 H 0.04451 0.7376 0.16449 0.0
C17 C 0.02427 0.73598 0.13359 0.0
O18 O 1.0055 0.74301 0.20063 0.0
H19 H 0.02383 0.75039 0.07633 0.0
C20 C 0.97361 0.81991 0.22323 0.0
C21 C 0.9933 0.81285 0.28672 0.0
C22 C 0.96483 0.80207 0.15347 0.0
C23 C 0.97499 0.77594 0.1507 0.0
C24 C 0.99528 0.76825 0.21061 0.0
C25 C 1.00474 0.78687 0.27857 0.0
H26 H 0.70786 0.96741 0.22655 0.0
H27 H 0.78742 0.96498 0.11365 0.0
H28 H 0.77153 1.00971 0.36375 0.0
H29 H 0.82232 0.03365 0.23827 0.0
C30 C 0.81877 1.01657 0.18964 0.0
O31 O 0.80891 0.99522 0.23909 0.0
H32 H 0.80368 0.02356 0.13941 0.0
C33 C 0.72894 0.97208 0.23183 0.0
C34 C 0.73746 0.98828 0.30611 0.0
C35 C 0.74645 0.96402 0.16064 0.0
C36 C 0.77348 0.97124 0.16695 0.0
C37 C 0.78267 0.98786 0.2388 0.0
C38 C 0.76455 0.99669 0.30839 0.0
H39 H 0.58437 0.7243 0.25401 0.0
H40 H 0.57455 0.79935 0.1212 0.0
H41 H 0.54233 0.78855 0.39254 0.0
H42 H 0.58552 0.84106 0.26876 0.0
C43 C 0.56381 0.84588 0.2693 0.0
O44 O 0.54858 0.82293 0.25406 0.0
H45 H 0.55913 0.85401 0.3392 0.0
C46 C 0.57792 0.74499 0.25682 0.0
C47 C 0.56353 0.75427 0.33395 0.0
C48 C 0.58189 0.76096 0.17981 0.0
C49 C 0.57212 0.78715 0.18111 0.0
C50 C 0.55855 0.7976 0.25804 0.0
C51 C 0.55378 0.78095 0.33444 0.0
H52 H 0.22581 0.46969 0.11782 0.0
H53 H 0.30201 0.47891 0.24963 0.0
H54 H 0.28276 0.52605 1.01472 0.0
H55 H 0.35047 0.51293 0.04948 0.0
C56 C 0.34424 0.50432 0.11593 0.0
O57 O 0.31985 0.51536 0.14168 0.0
H58 H 0.34241 0.48233 0.1037 0.0
C59 C 0.24574 0.47822 0.11895 0.0
C60 C 0.25191 0.49832 0.05671 0.0
C61 C 0.26348 0.47112 0.18885 0.0
C62 C 0.28854 0.48346 0.1939 0.0
C63 C 0.29604 0.50258 0.12983 0.0
C64 C 0.27764 0.51013 0.06076 0.0
H65 H 0.07875 0.21567 0.13551 0.0
H66 H 0.07151 0.2933 0.26666 0.0
H67 H 0.02819 0.2753 0.0181 0.0
H68 H 0.0438 0.34319 0.06838 0.0
C69 C 0.04998 0.3362 0.1371 0.0
O70 O 0.03731 0.31198 0.15339 0.0
H71 H 0.07205 0.3335 0.13394 0.0
C72 C 0.07158 0.23609 0.13503 0.0
C73 C 0.0539 0.24333 0.06499 0.0
C74 C 0.0779 0.25363 0.20889 0.0
C75 C 0.06703 0.27946 0.21046 0.0
C76 C 0.04933 0.2876 0.14235 0.0
C77 C 0.04253 0.2694 0.0694 0.0
H78 H 0.34056 0.09425 0.12447 0.0
H79 H 0.26361 0.09009 0.25507 0.0
H80 H 0.27839 0.04586 1.00335 0.0
H81 H 0.21283 0.0637 0.04793 0.0
C82 C 0.21911 0.06975 0.11862 0.0
O83 O 0.24284 0.05661 0.13811 0.0
H84 H 0.2222 0.09179 0.11919 0.0
C85 C 0.31986 0.08794 0.12329 0.0
C86 C 0.3115 0.07043 0.05226 0.0
C87 C 0.30309 0.09484 0.19777 0.0
C88 C 0.27679 0.08513 0.19816 0.0
C89 C 0.26756 0.06776 0.12846 0.0
C90 C 0.28507 0.06012 0.05549 0.0
H91 H 0.46341 0.33113 0.08592 0.0
H92 H 0.47339 0.25713 0.22526 0.0
H93 H 0.50708 0.26661 0.95527 0.0
H94 H 0.49 0.2018 1.01088 0.0
C95 C 0.48539 0.20986 0.08093 0.0
O96 O 0.50033 0.23302 0.09576 0.0
H97 H 0.46362 0.21439 0.08223 0.0
C98 C 0.47015 0.31053 0.08514 0.0
C99 C 0.48515 0.30097 1.00984 0.0
C100 C 0.46593 0.29502 0.16307 0.0
C101 C 0.47602 0.26896 0.16452 0.0
C102 C 0.49016 0.2582 0.0893 0.0
C103 C 0.4952 0.27442 1.012 0.0
Tb104 Tb 0.04792 0.02207 0.76099 0.0
C105 C 0.95097 0.99881 0.515 0.0
C106 C 0.9675 0.96926 0.39418 0.0
C107 C 0.92082 0.96729 0.43875 0.0
C108 C 0.97183 0.98969 0.46122 0.0
C109 C 0.92506 0.98817 0.50314 0.0
C110 C 0.94203 0.9578 0.38449 0.0
C111 C 0.90901 0.02099 0.614 0.0
N112 N 0.95583 1.01899 0.57621 0.0
C113 C 0.93502 0.03081 0.62338 0.0
C114 C 0.90405 0.99932 0.55451 0.0
Tb115 Tb 0.99917 0.03409 0.58741 0.0
N116 N 0.99614 1.00138 0.47256 0.0
C117 C 1.01659 0.99428 0.41403 0.0
C118 C 0.98873 0.96128 0.3377 0.0
C119 C 1.01329 0.97405 0.3471 0.0
H120 H 0.93871 0.04746 0.67032 0.0
H121 H 0.02984 0.96822 0.30309 0.0
H122 H 0.93843 0.94198 0.33391 0.0
H123 H 0.89284 0.03006 0.65302 0.0
H124 H 0.03606 1.00305 0.41937 0.0
H125 H 0.01913 0.08954 0.04334 0.0
H126 H 0.98627 0.9456 0.2858 0.0
H127 H 0.10787 1.0065 0.6788 0.0
H128 H 1.01166 0.05562 0.92494 0.0
H129 H 0.15448 0.0211 0.69999 0.0
H130 H 0.90112 0.95871 0.42913 0.0
H131 H 0.06394 0.10911 0.06621 0.0
H132 H 0.11233 0.10968 0.0231 0.0
H133 H 0.88387 0.99173 0.54725 0.0
H134 H 0.1492 0.09112 0.92981 0.0
N135 N 0.05207 0.05465 0.87614 0.0
C136 C 0.03163 0.06296 0.93283 0.0
C137 C 0.0609 0.09381 1.01334 0.0
C138 C 0.08203 0.08466 0.95848 0.0
C139 C 0.03565 0.08275 1.00084 0.0
C140 C 0.07694 0.06481 0.89005 0.0
H141 H 0.16512 0.05799 0.80986 0.0
N142 N 0.09185 0.03517 0.77462 0.0
C143 C 0.13867 0.03083 0.7389 0.0
C144 C 0.09755 0.0547 0.83738 0.0
C145 C 0.11218 0.02261 0.72725 0.0
C146 C 0.14458 0.05168 0.80072 0.0
C147 C 0.12398 0.0637 0.85171 0.0
O148 O 0.07285 0.99172 0.80845 0.0
O149 O 0.02233 1.00439 0.65565 0.0
O150 O 0.97946 1.01142 0.69661 0.0
O151 O 1.007 0.02152 0.82092 0.0
O152 O 0.06023 0.99049 0.66138 0.0
O153 O 0.03431 0.99817 0.86929 0.0
O154 O 0.9725 0.06293 0.54042 0.0
O155 O 0.02502 0.05187 0.69171 0.0
O156 O 0.06845 0.04417 0.6517 0.0
O157 O 0.03998 0.03613 0.52775 0.0
O158 O 0.98727 0.06617 0.68585 0.0
O159 O 1.011 0.05806 0.47697 0.0
C160 C 0.03778 0.98697 0.62073 0.0
C161 C 0.04741 0.95338 0.83363 0.0
C162 C 1.01465 0.91806 0.80121 0.0
C163 C 0.02077 0.94433 0.83127 0.0
C164 C 0.03563 0.90138 0.77003 0.0
C165 C 0.06789 0.93603 0.80405 0.0
C166 C 0.06194 0.91038 0.7713 0.0
C167 C 0.98363 1.01358 0.78641 0.0
C168 C 0.05403 0.98147 0.85773 0.0
C169 C 0.12907 0.08387 0.91801 0.0
C170 C 0.1081 0.09439 0.97117 0.0
C171 C 1.00984 0.06965 0.7259 0.0
C172 C 0.99517 0.1022 0.50836 0.0
C173 C 0.0211 0.11213 0.52428 0.0
C174 C 0.02509 0.13899 0.55171 0.0
C175 C 1.00258 0.15545 0.56651 0.0
C176 C 0.97318 0.11922 0.5218 0.0
C177 C 0.9769 0.14557 0.55179 0.0
C178 C 0.06365 0.04323 0.56194 0.0
C179 C 0.99032 0.07363 0.48806 0.0
H180 H 1.00484 0.95769 0.8528 0.0
H181 H 0.03203 0.88087 0.74828 0.0
H182 H 0.08853 0.94252 0.80439 0.0
H183 H 0.07786 0.89724 0.74807 0.0
H184 H 0.03816 0.09903 0.51536 0.0
H185 H 1.00471 0.17639 0.58541 0.0
H186 H 0.95302 0.11192 0.51109 0.0
H187 H 0.95981 0.15851 0.56241 0.0
Tb188 Tb 0.53092 0.05672 0.76106 0.0
C189 C 0.55152 0.95079 0.54457 0.0
C190 C 0.58072 0.96198 0.41875 0.0
C191 C 0.58031 0.9167 0.47536 0.0
C192 C 0.56125 0.96941 0.48496 0.0
C193 C 0.56057 0.92408 0.53968 0.0
C194 C 0.59041 0.93565 0.41508 0.0
C195 C 0.52854 0.91344 0.65742 0.0
N196 N 0.53234 0.95862 0.60503 0.0
C197 C 0.52016 0.94009 0.65931 0.0
C198 C 0.54904 0.90544 0.59794 0.0
Tb199 Tb 0.51884 1.00254 0.60148 0.0
N200 N 0.55115 0.99459 0.49019 0.0
C201 C 0.55916 1.01296 0.42721 0.0
C202 C 0.58955 0.98107 0.35712 0.0
C203 C 0.57858 1.00661 0.36108 0.0
H204 H 0.50427 0.94606 0.70574 0.0
H205 H 0.58513 0.02154 0.31327 0.0
H206 H 0.60537 0.92962 0.36484 0.0
H207 H 0.51917 0.89911 0.70185 0.0
H208 H 0.55169 0.03303 0.42834 0.0
H209 H 0.465 0.03732 0.04987 0.0
H210 H 0.60454 0.97621 0.30561 0.0
H211 H 0.54483 0.11322 0.65571 0.0
H212 H 0.4983 0.02598 0.93414 0.0
H213 H 0.5295 0.16005 0.65938 0.0
H214 H 0.58756 0.89632 0.47063 0.0
H215 H 0.44543 0.08258 0.05797 0.0
H216 H 0.44424 0.12914 0.99868 0.0
H217 H 0.55544 0.88475 0.59625 0.0
H218 H 0.4616 0.16249 0.89224 0.0
N219 N 0.49859 0.06443 0.87239 0.0
C220 C 0.49075 0.04601 0.93545 0.0
C221 C 0.46035 0.07778 1.00616 0.0
C222 C 0.46897 0.0969 0.94431 0.0
C223 C 0.47141 0.05228 1.00195 0.0
C224 C 0.48836 0.08956 0.87772 0.0
H225 H 0.49333 0.1742 0.76569 0.0
N226 N 0.51699 0.10051 0.75693 0.0
C227 C 0.52033 0.14568 0.70412 0.0
C228 C 0.49786 0.10822 0.81777 0.0
C229 C 0.52895 0.11911 0.70231 0.0
C230 C 0.49989 0.15356 0.764 0.0
C231 C 0.48862 0.13487 0.82268 0.0
O232 O 0.56054 0.08413 0.80113 0.0
O233 O 0.54851 0.02776 0.6656 0.0
O234 O 0.5419 0.98643 0.71653 0.0
O235 O 0.53213 1.01779 0.8322 0.0
O236 O 0.56311 0.06547 0.66232 0.0
O237 O 0.55411 0.04844 0.8779 0.0
O238 O 0.48853 0.97577 0.5625 0.0
O239 O 0.50129 0.03149 0.69709 0.0
O240 O 0.50777 0.07263 0.64583 0.0
O241 O 0.51792 0.04143 0.53022 0.0
O242 O 0.48678 0.99378 0.7007 0.0
O243 O 0.49592 1.01096 0.48416 0.0
C244 C 0.56627 0.04182 0.62845 0.0
C245 C 0.59877 0.06255 0.85016 0.0
C246 C 0.63519 0.03151 0.81458 0.0
C247 C 0.60803 0.03633 0.83353 0.0
C248 C 0.65271 0.0535 0.80933 0.0
C249 C 0.61671 0.08401 0.8458 0.0
C250 C 0.64346 0.07948 0.82461 0.0
C251 C 0.53997 0.99346 0.80476 0.0
C252 C 0.57018 0.06837 0.86224 0.0
C253 C 0.46897 0.14215 0.88744 0.0
C254 C 0.45913 0.12318 0.94809 0.0
C255 C 0.48358 1.01744 0.73452 0.0
C256 C 0.45087 0.99879 0.51527 0.0
C257 C 0.44263 0.02558 0.52531 0.0
C258 C 0.41593 0.03184 0.54693 0.0
C259 C 0.39782 1.01076 0.5615 0.0
C260 C 0.43231 0.97822 0.52863 0.0
C261 C 0.40603 0.98422 0.55253 0.0
C262 C 0.50988 0.06569 0.55759 0.0
C263 C 0.47916 0.99173 0.50148 0.0
H264 H 0.59417 0.01972 0.83517 0.0
H265 H 0.67386 0.0507 0.79729 0.0
H266 H 0.60987 0.10437 0.85699 0.0
H267 H 0.65718 0.09616 0.82117 0.0
H268 H 0.45693 0.04156 0.51657 0.0
H269 H 0.37696 1.01462 0.57605 0.0
H270 H 0.43833 0.95746 0.52255 0.0
H271 H 0.39185 0.96823 0.56307 0.0
Tb272 Tb 0.55404 0.52013 0.59479 0.0
C273 C 0.44132 0.50593 0.75329 0.0
C274 C 0.41167 0.5289 0.65102 0.0
C275 C 0.39548 0.4907 0.73498 0.0
C276 C 0.43706 0.52578 0.69133 0.0
C277 C 0.42047 0.4885 0.77779 0.0
C278 C 0.3911 0.51087 0.67149 0.0
C279 C 0.44987 0.4696 0.89036 0.0
N280 N 0.46566 0.50458 0.79311 0.0
C281 C 0.46989 0.48733 0.86363 0.0
C282 C 0.42514 0.46992 0.84635 0.0
Tb283 Tb 0.49783 0.53368 0.74267 0.0
N284 N 0.45744 0.54284 0.67408 0.0
C285 C 0.45283 0.56487 0.62223 0.0
C286 C 0.4075 0.55046 0.59344 0.0
C287 C 0.42806 0.56876 0.58023 0.0
H288 H 0.48906 0.48663 0.89736 0.0
H289 H 0.42492 0.58585 0.53731 0.0
H290 H 0.37156 0.51278 0.64048 0.0
H291 H 0.45359 0.45561 0.94453 0.0
H292 H 0.46814 0.57935 0.61009 0.0
H293 H 0.62713 0.46741 0.79785 0.0
H294 H 0.38835 0.55352 0.56082 0.0
H295 H 0.56246 0.56799 0.4427 0.0
H296 H 0.58366 0.47449 0.72774 0.0
H297 H 0.59788 0.59906 0.3958 0.0
H298 H 0.37927 0.47735 0.75212 0.0
H299 H 0.664 0.49922 0.77195 0.0
H300 H 0.6808 0.53996 0.69243 0.0
H301 H 0.40964 0.4562 0.8672 0.0
H302 H 0.67287 0.57588 0.58288 0.0
N303 N 0.59453 0.51072 0.66237 0.0
C304 C 0.5991 0.48872 0.71439 0.0
C305 C 0.64475 0.5025 0.74031 0.0
C306 C 0.64055 0.52416 0.68318 0.0
C307 C 0.62401 0.48452 0.75493 0.0
C308 C 0.61502 0.52758 0.6442 0.0
H309 H 0.64213 0.59783 0.47086 0.0
N310 N 0.58613 0.54942 0.54491 0.0
C311 C 0.60174 0.58478 0.44892 0.0
C312 C 0.61063 0.5477 0.58335 0.0
C313 C 0.58174 0.56702 0.47554 0.0
C314 C 0.62665 0.58408 0.49163 0.0
C315 C 0.6315 0.56512 0.55876 0.0
O316 O 0.56092 0.51385 0.45383 0.0
O317 O 0.51095 0.5215 0.60775 0.0
O318 O 0.49706 0.49081 0.70509 0.0
O319 O 0.54186 0.48356 0.67023 0.0
O320 O 0.52678 0.53602 0.49049 0.0
O321 O 0.56051 0.48072 0.54588 0.0
O322 O 0.49103 0.54038 0.88351 0.0
O323 O 0.54083 0.53217 0.72947 0.0
O324 O 0.55494 0.56288 0.63425 0.0
O325 O 0.51006 0.57021 0.66716 0.0
O326 O 0.52519 0.51807 0.8475 0.0
O327 O 0.49137 0.57322 0.7904 0.0
C328 C 0.50471 0.53106 0.53131 0.0
C329 C 0.53775 0.47588 0.40301 0.0
C330 C 0.49777 0.4481 0.38679 0.0
C331 C 0.51928 0.4578 0.43985 0.0
C332 C 0.49455 0.4575 0.29685 0.0
C333 C 0.53431 0.48454 0.31266 0.0
C334 C 0.51267 0.4756 0.26043 0.0
C335 C 0.51795 0.47467 0.69628 0.0
C336 C 0.55891 0.48809 0.46052 0.0
C337 C 0.65665 0.56255 0.60012 0.0
C338 C 0.66116 0.5421 0.66238 0.0
C339 C 0.54722 0.52291 0.80617 0.0
C340 C 0.51517 0.57819 0.93113 0.0
C341 C 0.53187 0.59793 0.89449 0.0
C342 C 0.55431 0.60729 0.94348 0.0
C343 C 0.56022 0.59605 0.02901 0.0
C344 C 0.52122 0.56777 1.01755 0.0
C345 C 0.54377 0.57646 0.0655 0.0
C346 C 0.53408 0.57909 0.64241 0.0
C347 C 0.4934 0.56609 0.8759 0.0
H348 H 0.5216 0.45127 0.50976 0.0
H349 H 0.47867 0.4501 0.25277 0.0
H350 H 0.54809 0.49869 0.28313 0.0
H351 H 0.5101 0.48248 0.19098 0.0
H352 H 0.5275 0.60599 0.82777 0.0
H353 H 0.57693 0.60312 0.06991 0.0
H354 H 0.50884 0.55239 0.04705 0.0
H355 H 0.54837 0.56816 0.1317 0.0
Tb356 Tb 0.03615 0.55173 0.59031 0.0
C357 C 0.0349 0.44487 0.77368 0.0
C358 C 1.01152 0.41702 0.66296 0.0
C359 C 0.04676 0.39792 0.75499 0.0
C360 C 1.01613 0.44223 0.7058 0.0
C361 C 0.04977 0.42256 0.80191 0.0
C362 C 0.02763 0.39516 0.68537 0.0
C363 C 0.06631 0.4495 0.92893 0.0
N364 N 0.03667 0.4688 0.81815 0.0
C365 C 0.05093 0.47086 0.89861 0.0
C366 C 0.06619 0.42536 0.87916 0.0
Tb367 Tb 1.01372 0.50427 0.7565 0.0
N368 N 1.00088 0.46386 0.68734 0.0
C369 C 0.97865 0.46045 0.63304 0.0
C370 C 0.99021 0.41427 0.60188 0.0
C371 C 0.97331 0.43591 0.58875 0.0
H372 H 0.05106 0.48941 0.93803 0.0
H373 H 0.95615 0.43377 0.54408 0.0
H374 H 0.0247 0.3758 0.65202 0.0
H375 H 0.07816 0.45167 0.99081 0.0
H376 H 0.96474 0.47627 0.62088 0.0
H377 H 0.09271 0.62305 0.80311 0.0
H378 H 0.98601 0.39531 0.56742 0.0
H379 H 0.99861 0.56469 0.40828 0.0
H380 H 0.08339 0.57983 0.73333 0.0
H381 H 0.97279 0.60232 0.34805 0.0
H382 H 0.05829 0.38065 0.77456 0.0
H383 H 0.06495 0.66216 0.76729 0.0
H384 H 0.02803 0.68164 0.67428 0.0
H385 H 0.07791 0.40872 0.90312 0.0
H386 H 0.99501 0.67601 0.55027 0.0
N387 N 0.0491 0.59252 0.65666 0.0
C388 C 0.07054 0.59595 0.71469 0.0
C389 C 0.06052 0.6429 0.73536 0.0
C390 C 0.0399 0.63996 0.67161 0.0
C391 C 0.07622 0.62089 0.75552 0.0
C392 C 0.03488 0.61434 0.63239 0.0
H393 H 0.97464 0.64661 0.4269 0.0
N394 N 1.01387 0.58678 0.52371 0.0
C395 C 0.98475 0.60512 0.40942 0.0
C396 C 1.0164 0.61128 0.56366 0.0
C397 C 0.99937 0.58382 0.44406 0.0
C398 C 0.9858 0.63003 0.45416 0.0
C399 C 1.00228 0.63355 0.53095 0.0
O400 O 0.046 0.55402 0.45026 0.0
O401 O 0.03077 0.5096 0.62148 0.0
O402 O 0.05766 0.50318 0.76018 0.0
O403 O 0.0707 0.53994 0.67492 0.0
O404 O 0.019 0.52192 0.49496 0.0
O405 O 0.07658 0.54891 0.55056 0.0
O406 O 1.00377 0.50003 0.89582 0.0
O407 O 0.01915 0.54631 0.72534 0.0
O408 O 0.99221 0.55405 0.59036 0.0
O409 O 0.97937 0.51645 0.67166 0.0
O410 O 0.03002 0.53428 0.85307 0.0
O411 O 0.97335 0.50731 0.79681 0.0
C412 C 0.02166 0.50125 0.5447 0.0
C413 C 0.07937 0.5226 0.41263 0.0
C414 C 0.10813 0.48304 0.39989 0.0
C415 C 0.09917 0.50598 0.44876 0.0
C416 C 0.09536 0.47606 0.31633 0.0
C417 C 0.06731 0.51528 0.32865 0.0
C418 C 0.07497 0.49192 0.28186 0.0
C419 C 0.07593 0.5203 0.73189 0.0
C420 C 0.07048 0.54695 0.46379 0.0
C421 C 1.00592 0.65874 0.57346 0.0
C422 C 0.02473 0.66194 0.64388 0.0
C423 C 0.02771 0.55485 0.80262 0.0
C424 C 0.97073 0.53121 0.93967 0.0
C425 C 0.9512 0.54874 0.90684 0.0
C426 C 0.94247 0.5709 0.96023 0.0
C427 C 0.95502 0.57612 0.04549 0.0
C428 C 0.98262 0.53679 0.02538 0.0
C429 C 0.97507 0.55933 0.07706 0.0
C430 C 0.97399 0.53661 0.61707 0.0
C431 C 0.97939 0.50767 0.88371 0.0
H432 H 0.10779 0.51117 0.5146 0.0
H433 H 0.10174 0.45903 0.27484 0.0
H434 H 0.0518 0.52751 0.29935 0.0
H435 H 0.06554 0.48643 0.21723 0.0
H436 H 0.94259 0.54487 0.84001 0.0
H437 H 0.94871 0.59248 0.09025 0.0
H438 H 0.99788 0.5238 0.05234 0.0
H439 H 0.98433 0.56344 0.14306 0.0
H440 H 0.21992 0.07361 0.30964 0.0
H441 H 0.0641 0.03782 0.37248 0.0
H442 H 0.1671 0.05408 0.08467 0.0
H443 H 0.11451 0.06289 0.59831 0.0
H444 H 0.10166 0.04331 0.2675 0.0
H445 H 0.1824 0.06839 0.4173 0.0
C446 C 0.20056 0.06781 0.28295 0.0
C447 C 0.19694 0.06371 0.18781 0.0
C448 C 0.10465 0.04744 0.34014 0.0
C449 C 0.15347 0.05829 0.31095 0.0
C450 C 0.08307 0.04426 0.40068 0.0
C451 C 0.08608 0.0489 0.49593 0.0
C452 C 0.12975 0.0555 0.37409 0.0
C453 C 0.11126 0.05801 0.5265 0.0
C454 C 0.17904 0.06503 0.34446 0.0
C455 C 0.17108 0.05692 0.15736 0.0
N456 N 0.13204 0.0608 0.46626 0.0
N457 N 0.15052 0.0544 0.21834 0.0
H458 H 0.50811 0.15973 0.05759 0.0
H459 H 0.48425 0.11432 0.57945 0.0
H460 H 0.47382 0.21125 0.26741 0.0
H461 H 0.52173 0.06425 0.37167 0.0
H462 H 0.47919 0.14945 0.4662 0.0
H463 H 0.51279 0.12447 0.17088 0.0
C464 C 0.50192 0.1638 0.1279 0.0
C465 C 0.49092 0.18878 0.15305 0.0
C466 C 0.48863 0.13082 0.44534 0.0
C467 C 0.49585 0.14807 0.28388 0.0
C468 C 0.49166 0.11069 0.51036 0.0
C469 C 0.50423 0.08634 0.48663 0.0
C470 C 0.49797 0.12668 0.35483 0.0
C471 C 0.51239 0.08269 0.39447 0.0
C472 C 0.50445 0.14355 0.19264 0.0
C473 C 0.48281 0.19257 0.24506 0.0
N474 N 0.50928 0.10257 0.33256 0.0
N475 N 0.4854 0.17254 0.30678 0.0
H476 H 0.35751 0.47429 0.26678 0.0
H477 H 0.48671 0.5629 0.39738 0.0
H478 H 0.37977 0.54639 0.12988 0.0
H479 H 0.46546 0.49201 0.54315 0.0
H480 H 0.44659 0.55761 0.30323 0.0
H481 H 0.39512 0.48105 0.37375 0.0
C482 C 0.37018 0.49168 0.25982 0.0
C483 C 0.36563 0.50966 0.18859 0.0
C484 C 0.45042 0.54327 0.35624 0.0
C485 C 0.40885 0.51754 0.31071 0.0
C486 C 0.47337 0.54633 0.41016 0.0
C487 C 0.4791 0.52832 0.47993 0.0
C488 C 0.43305 0.52166 0.37043 0.0
C489 C 0.46141 0.50683 0.49199 0.0
C490 C 0.3917 0.49549 0.3207 0.0
C491 C 0.38261 0.53192 0.18319 0.0
N492 N 0.4392 0.5041 0.43788 0.0
N493 N 0.40345 0.5351 0.24268 0.0
H494 H 1.00636 0.36988 0.14705 0.0
H495 H 0.06008 0.46186 0.572 0.0
H496 H 0.07875 0.35208 0.29236 0.0
H497 H 0.99132 0.48017 0.40793 0.0
H498 H 0.06602 0.42001 0.48065 0.0
H499 H 0.99874 0.40809 0.25254 0.0
C500 C 0.02049 0.37382 0.20198 0.0
C501 C 0.0433 0.35775 0.21019 0.0
C502 C 0.04942 0.43301 0.46543 0.0
C503 C 0.0349 0.40199 0.33191 0.0
C504 C 0.04592 0.45681 0.51816 0.0
C505 C 0.02467 0.47421 0.49946 0.0
C506 C 0.03165 0.4266 0.39296 0.0
C507 C 1.00764 0.46713 0.42613 0.0
C508 C 1.01625 0.39579 0.26211 0.0
C509 C 0.06094 0.36394 0.28308 0.0
N510 N 1.01139 0.44402 0.37636 0.0
N511 N 0.0565 0.38558 0.34043 0.0
H512 H 0.87111 0.02411 0.24538 0.0
H513 H 0.93552 0.98843 0.74962 0.0
H514 H 0.82522 0.99419 1.01518 0.0
H515 H 0.97923 0.02593 0.97246 0.0
H516 H 0.89634 0.98554 0.85004 0.0
H517 H 0.91194 0.01964 0.15243 0.0
C518 C 0.86967 1.01621 0.17563 0.0
C519 C 0.8446 1.00975 0.13791 0.0
C520 C 0.9145 0.99444 0.87708 0.0
C521 C 0.89147 1.00477 0.02998 0.0
C522 C 0.93692 0.99632 0.8193 0.0
C523 C 0.96067 1.00849 0.8507 0.0
C524 C 0.91569 1.00444 0.96817 0.0
C525 C 0.96138 1.01703 0.94363 0.0
C526 C 0.89301 1.01381 0.12224 0.0
C527 C 0.84406 0.99953 0.04701 0.0
N528 N 0.9393 1.01506 0.9984 0.0
N529 N 0.867 0.99761 0.99613 0.0
H530 H 0.57724 0.84494 0.08449 0.0
H531 H 0.52858 0.99527 0.99094 0.0
H532 H 0.54021 0.89573 0.29074 0.0
H533 H 0.56455 0.94423 0.78266 0.0
H534 H 0.53361 0.95963 0.10172 0.0
H535 H 0.57258 0.88073 0.973 0.0
C536 C 0.56772 0.86344 0.106 0.0
C537 C 0.55873 0.86703 0.19703 0.0
C538 C 0.54029 0.95612 0.03167 0.0
C539 C 0.55388 0.90869 0.06969 0.0
C540 C 0.53745 0.9766 0.96793 0.0
C541 C 0.54536 0.97272 0.87569 0.0
C542 C 0.55136 0.93138 1.00392 0.0
C543 C 0.5573 0.94804 0.85179 0.0
C544 C 0.56528 0.88403 0.04242 0.0
C545 C 0.54715 0.89185 0.2212 0.0
N546 N 0.55977 0.92838 0.91495 0.0
N547 N 0.54511 0.91162 0.15831 0.0
H548 H 0.6765 0.50048 0.19323 0.0
H549 H 0.58688 0.56125 0.78858 0.0
H550 H 0.70639 0.55997 1.01005 0.0
H551 H 0.56516 0.49232 0.94417 0.0
H552 H 0.62857 0.56501 0.87777 0.0
H553 H 0.63338 0.50156 0.11409 0.0
C554 C 0.67386 0.51404 0.137 0.0
C555 C 0.69519 0.53 0.10788 0.0
C556 C 0.61474 0.549 0.89214 0.0
C557 C 0.64567 0.53126 1.01571 0.0
C558 C 0.59105 0.54671 0.84062 0.0
C559 C 0.573 0.52579 0.85654 0.0
C560 C 0.62021 0.5305 0.96127 0.0
C561 C 0.57882 0.50833 0.92799 0.0
C562 C 0.64925 0.51456 0.09131 0.0
C563 C 0.69051 0.54727 0.03456 0.0
N564 N 0.60188 0.51094 0.97694 0.0
N565 N 0.66639 0.54731 0.99064 0.0
H566 H 0.0464 0.68847 0.18909 0.0
H567 H 0.99266 0.59662 0.76407 0.0
H568 H 0.9935 0.71923 0.98406 0.0
H569 H 0.05594 0.57441 0.94697 0.0
H570 H 0.98881 0.63994 0.84855 0.0
H571 H 0.0455 0.64475 0.10959 0.0
C572 C 0.03424 0.68591 0.12803 0.0
C573 C 0.02014 0.70771 0.09319 0.0
C574 C 1.00364 0.62563 0.86981 0.0
C575 C 0.01921 0.65736 1.00002 0.0
C576 C 1.00599 0.601 0.82096 0.0
C577 C 0.02532 0.58218 0.84633 0.0
C578 C 0.02035 0.63128 0.94587 0.0
C579 C 0.04119 0.5885 0.92345 0.0
C580 C 0.03388 0.66093 0.08198 0.0
C581 C 1.00473 0.70304 1.01338 0.0
N582 N 0.03846 0.61233 0.96973 0.0
N583 N 1.00482 0.67855 0.96927 0.0
H584 H 0.11858 0.2163 0.21763 0.0
H585 H 0.04553 0.17921 0.66462 0.0
H586 H 0.06862 0.2665 0.39137 0.0
H587 H 0.06739 0.1266 0.43753 0.0
H588 H 0.07971 0.21069 0.61576 0.0
H589 H 0.12519 0.18663 0.34668 0.0
C590 C 0.10965 0.22161 0.28338 0.0
C591 C 0.09149 0.24296 0.29153 0.0
C592 C 0.07773 0.19172 0.57902 0.0
C593 C 0.0996 0.20954 0.43947 0.0
C594 C 0.05802 0.17383 0.60624 0.0
C595 C 0.05221 0.15116 0.55101 0.0
C596 C 0.09144 0.1868 0.49611 0.0
C597 C 0.07018 0.1444 0.47999 0.0
C598 C 0.11373 0.2048 0.35731 0.0
C599 C 0.08194 0.24975 0.37992 0.0
N600 N 0.08845 0.16261 0.4526 0.0
N601 N 0.08546 0.23263 0.44977 0.0
H602 H 0.34173 0.13436 0.21351 0.0
H603 H 0.43204 0.07113 0.42992 0.0
H604 H 0.29205 0.08342 0.37774 0.0
H605 H 0.37677 0.05688 0.65155 0.0
H606 H 0.40451 0.10753 0.38082 0.0
H607 H 0.37313 0.13825 0.34156 0.0
C608 C 0.33704 0.12452 0.27711 0.0
C609 C 0.3151 0.10705 0.28244 0.0
C610 C 0.3987 0.09734 0.44254 0.0
C611 C 0.35102 0.11107 0.428 0.0
C612 C 0.41463 0.07625 0.47086 0.0
C613 C 0.40584 0.05972 0.54158 0.0
C614 C 0.37355 0.10139 0.48381 0.0
C615 C 0.38341 0.06801 0.59279 0.0
C616 C 0.35505 0.1267 0.35014 0.0
C617 C 0.30919 0.09625 0.36838 0.0
N618 N 0.36743 0.08761 0.56072 0.0
N619 N 0.32749 0.09777 0.4368 0.0
H620 H 0.42114 0.32618 0.18227 0.0
H621 H 0.5123 0.40627 0.496 0.0
H622 H 0.48702 0.2946 0.33581 0.0
H623 H 0.44421 0.43852 0.35459 0.0
H624 H 0.49025 0.36327 0.49942 0.0
H625 H 0.41586 0.3616 0.29894 0.0
C626 C 0.43385 0.32615 0.24244 0.0
C627 C 0.45531 0.30825 0.24753 0.0
C628 C 0.47975 0.37986 0.46949 0.0
C629 C 0.45001 0.34905 0.37939 0.0
C630 C 0.49235 0.40468 0.46789 0.0
C631 C 0.48086 0.42573 0.41935 0.0
C632 C 0.45604 0.3759 0.41952 0.0
C633 C 0.45464 0.42232 0.38711 0.0
C634 C 0.43088 0.3464 0.30913 0.0
C635 C 0.47069 0.30852 0.32792 0.0
N636 N 0.4435 0.39758 0.38459 0.0
N637 N 0.46835 0.32922 0.38929 0.0
H638 H 0.23618 0.42349 0.18281 0.0
H639 H 0.15066 0.50273 0.50271 0.0
H640 H 0.26535 0.48428 0.3716 0.0
H641 H 0.12314 0.43017 0.36594 0.0
H642 H 0.19494 0.48463 0.5065 0.0
H643 H 0.20098 0.41283 0.29195 0.0
C644 C 0.2359 0.43376 0.24919 0.0
C645 C 0.25277 0.4557 0.26644 0.0
C646 C 0.1792 0.47232 0.47702 0.0
C647 C 0.21215 0.44434 0.38997 0.0
C648 C 0.15344 0.48268 0.47523 0.0
C649 C 0.13292 0.46878 0.42852 0.0
C650 C 0.1849 0.4485 0.42806 0.0
C651 C 0.13854 0.44263 0.3965 0.0
C652 C 0.21567 0.42778 0.31155 0.0
C653 C 0.25212 0.46781 0.35422 0.0
N654 N 0.16419 0.43377 0.39345 0.0
N655 N 0.23142 0.46267 0.41151 0.0
H656 H 0.96989 0.78865 0.96986 0.0
H657 H 0.97778 0.93047 0.93653 0.0
H658 H 0.92461 0.84011 0.15411 0.0
H659 H 0.98839 0.87947 0.69575 0.0
H660 H 0.94358 0.90065 0.99038 0.0
H661 H 0.96112 0.81879 0.84632 0.0
C662 C 0.9572 0.80575 0.98418 0.0
C663 C 0.94953 0.81273 0.0745 0.0
C664 C 0.95274 0.89624 0.92427 0.0
C665 C 0.9406 0.8482 0.93318 0.0
C666 C 0.97244 0.9135 0.89294 0.0
C667 C 0.98745 0.90658 0.81426 0.0
C668 C 0.94884 0.8715 0.87861 0.0
C669 C 0.97873 0.8846 0.76036 0.0
C670 C 0.95227 0.82321 0.91291 0.0
C671 C 0.93252 0.83488 0.0868 0.0
N672 N 0.96078 0.86718 0.79537 0.0
N673 N 0.92962 0.85253 0.01795 0.0
H674 H 0.76223 0.97394 0.98343 0.0
H675 H 0.61901 0.98869 0.91639 0.0
H676 H 0.70468 0.92828 0.1358 0.0
H677 H 0.67652 1.01046 0.70971 0.0
H678 H 0.64738 0.95192 0.9589 0.0
H679 H 0.73336 0.97144 0.85077 0.0
C680 C 0.74396 0.9625 0.98858 0.0
C681 C 0.73516 0.95277 0.07326 0.0
C682 C 0.65359 0.96418 0.9023 0.0
C683 C 0.70121 0.9511 0.9218 0.0
C684 C 0.63719 0.98532 0.8775 0.0
C685 C 0.64624 1.0039 0.81351 0.0
C686 C 0.67947 0.96229 0.86512 0.0
C687 C 0.66964 0.99772 0.76406 0.0
C688 C 0.72723 0.96122 0.91216 0.0
C689 C 0.7115 0.93764 0.07363 0.0
N690 N 0.68601 0.97806 0.79333 0.0
N691 N 0.69477 0.93822 1.00033 0.0
H692 H 0.56093 0.76391 1.00702 0.0
H693 H 0.60823 0.61789 0.95965 0.0
H694 H 0.62568 0.72854 0.15648 0.0
H695 H 0.53517 0.65121 0.85479 0.0
H696 H 0.62781 0.66262 0.96334 0.0
H697 H 0.56626 0.72972 0.88656 0.0
C698 C 0.57703 0.74962 1.0128 0.0
C699 C 0.5921 0.74824 0.09375 0.0
C700 C 0.60779 0.65997 0.93661 0.0
C701 C 0.59763 0.7086 0.95792 0.0
C702 C 0.5965 0.63446 0.93526 0.0
C703 C 0.56944 0.63103 0.91252 0.0
C704 C 0.59178 0.68205 0.91573 0.0
C705 C 0.55578 0.6529 0.87625 0.0
C706 C 0.57998 0.72995 0.94406 0.0
C707 C 0.6129 0.72953 0.09671 0.0
N708 N 0.56683 0.67763 0.88163 0.0
N709 N 0.61451 0.70985 0.03122 0.0
H710 H 0.81541 0.63563 0.17561 0.0
H711 H 0.8994 0.55358 0.85582 0.0
H712 H 0.78458 0.57679 0.983 0.0
H713 H 0.92926 0.62378 1.00104 0.0
H714 H 0.8558 0.57354 0.85219 0.0
H715 H 0.85174 0.64493 0.0693 0.0
C716 C 0.81555 0.62563 0.10876 0.0
C717 C 0.79784 0.60449 0.08977 0.0
C718 C 0.87193 0.58495 0.88339 0.0
C719 C 0.83978 0.61413 0.96974 0.0
C720 C 0.89725 0.57351 0.88514 0.0
C721 C 0.91816 0.58623 0.93361 0.0
C722 C 0.86707 0.60871 0.93378 0.0
C723 C 0.91347 0.61228 0.96841 0.0
C724 C 0.83647 0.63075 0.04815 0.0
C725 C 0.79843 0.59262 1.00162 0.0
N726 N 0.88823 0.62223 0.97093 0.0
N727 N 0.81977 0.59682 0.94613 0.0
H728 H 1.00366 0.22524 1.01335 0.0
H729 H 0.05904 0.09573 0.72965 0.0
H730 H 0.08718 0.2111 0.96095 0.0
H731 H 0.97727 0.10501 0.81621 0.0
H732 H 0.06936 0.1397 0.80063 0.0
H733 H 0.99299 0.18404 0.925 0.0
C734 C 0.01972 0.21391 0.98133 0.0
C735 C 0.04638 0.22191 0.99473 0.0
C736 C 0.04916 0.13211 0.80443 0.0
C737 C 0.03435 0.17403 0.89458 0.0
C738 C 0.04332 0.10683 0.76448 0.0
C739 C 1.0174 0.09614 0.76941 0.0
C740 C 0.02883 0.14725 0.8482 0.0
C741 C 0.99764 0.11213 0.81219 0.0
C742 C 1.01366 0.19011 0.93175 0.0
C743 C 0.06633 0.20585 0.9527 0.0
N744 N 1.00374 0.13662 0.84997 0.0
N745 N 0.05997 0.18281 0.9054 0.0
H746 H 0.32794 1.01917 1.00649 0.0
H747 H 0.45775 0.0665 0.72231 0.0
H748 H 0.34401 0.10151 0.94635 0.0
H749 H 0.44846 0.98782 0.83199 0.0
H750 H 0.41399 0.07897 0.78765 0.0
H751 H 0.36882 1.00623 0.9226 0.0
C752 C 0.3396 0.03446 0.97338 0.0
C753 C 0.33228 0.06147 0.98322 0.0
C754 C 0.42154 0.05898 0.79768 0.0
C755 C 0.37975 0.04688 0.88852 0.0
C756 C 0.4467 0.05195 0.76109 0.0
C757 C 0.45732 0.02633 0.77433 0.0
C758 C 0.40641 0.04005 0.84585 0.0
C759 C 0.44138 1.00796 0.82162 0.0
C760 C 0.36321 0.02712 0.92651 0.0
C761 C 0.34873 0.08044 0.94036 0.0
N762 N 0.41694 1.01515 0.85566 0.0
N763 N 0.3716 0.07285 0.89564 0.0
H764 H 0.4496 0.32825 0.90516 0.0
H765 H 0.55652 0.43764 0.74341 0.0
H766 H 0.53403 0.32019 0.95153 0.0
H767 H 0.47147 0.44545 0.70899 0.0
H768 H 0.54967 0.39263 0.8024 0.0
H769 H 0.45814 0.36818 0.81546 0.0
C770 C 0.47007 0.33446 0.89417 0.0
C771 C 0.49112 0.3205 0.93532 0.0
C772 C 0.53249 0.40412 0.7815 0.0
C773 C 0.50115 0.36722 0.83428 0.0
C774 C 0.5364 0.42995 0.74738 0.0
C775 C 0.51454 0.44591 0.72248 0.0
C776 C 0.50649 0.3938 0.79049 0.0
C777 C 0.48897 0.43435 0.72903 0.0
C778 C 0.47494 0.35751 0.84361 0.0
C779 C 0.5172 0.32993 0.91995 0.0
N780 N 0.48569 0.40929 0.76274 0.0
N781 N 0.52144 0.35278 0.87175 0.0
H782 H 0.24605 0.4983 0.86601 0.0
H783 H 0.08802 0.51417 0.9124 0.0
H784 H 0.20536 0.5197 0.11807 0.0
H785 H 0.12606 0.52606 0.65121 0.0
H786 H 0.13168 0.5119 0.98496 0.0
H787 H 0.20394 0.50575 0.78116 0.0
C788 C 0.22853 0.50525 0.90312 0.0
C789 C 0.22933 0.50848 0.99941 0.0
C790 C 0.13065 0.51477 0.9115 0.0
C791 C 0.18094 0.5161 0.90353 0.0
C792 C 0.10556 0.51554 0.8696 0.0
C793 C 0.10312 0.51911 0.77464 0.0
C794 C 0.15397 0.51746 0.8585 0.0
C795 C 0.12687 0.52255 0.72409 0.0
C796 C 0.20444 0.50926 0.85485 0.0
C797 C 0.20577 0.51699 0.04401 0.0
N798 N 0.15129 0.5213 0.76625 0.0
N799 N 0.18269 0.52011 0.99626 0.0
H800 H 0.04394 0.83326 0.32087 0.0
H801 H 0.98952 0.95941 0.62416 0.0
H802 H 0.9619 0.84258 0.40453 0.0
H803 H 0.07022 0.95299 0.5237 0.0
H804 H 0.97969 0.91524 0.55435 0.0
H805 H 0.05504 0.87466 0.40768 0.0
C806 C 0.0284 0.84356 0.35946 0.0
C807 C 1.00195 0.83417 0.35549 0.0
C808 C 0.99956 0.92347 0.54722 0.0
C809 C 1.01435 0.88224 0.45365 0.0
C810 C 1.00509 0.94889 0.58644 0.0
C811 C 0.03052 0.96043 0.57733 0.0
C812 C 0.01971 0.90911 0.49954 0.0
C813 C 0.05018 0.94518 0.53092 0.0
C814 C 0.03465 0.86746 0.40817 0.0
C815 C 0.98257 0.84892 0.40559 0.0
N816 N 0.04437 0.92056 0.49357 0.0
N817 N 0.98907 0.8721 0.45165 0.0
H818 H 0.72205 0.03955 0.35671 0.0
H819 H 0.59196 0.99271 0.64023 0.0
H820 H 0.70397 0.95701 0.407 0.0
H821 H 0.60136 0.07137 0.53049 0.0
H822 H 0.63554 0.98006 0.57382 0.0
H823 H 0.68142 0.05264 0.44205 0.0
C824 C 0.70998 0.02423 0.3879 0.0
C825 C 0.71666 0.99714 0.37506 0.0
C826 C 0.62804 1.00007 0.56396 0.0
C827 C 0.66958 1.01192 0.47154 0.0
C828 C 0.603 1.00721 0.60121 0.0
C829 C 0.59246 0.03288 0.58821 0.0
C830 C 0.64312 1.01893 0.51529 0.0
C831 C 0.60838 0.05119 0.54063 0.0
C832 C 0.68654 0.03166 0.43564 0.0
C833 C 0.69974 0.97814 0.41548 0.0
N834 N 0.6327 0.04389 0.50587 0.0
N835 N 0.67709 0.98583 0.46126 0.0
H836 H 0.51474 0.73626 0.39713 0.0
H837 H 0.58068 0.60809 0.6338 0.0
H838 H 0.5993 0.72499 0.43163 0.0
H839 H 0.4959 0.61637 0.59349 0.0
H840 H 0.58713 0.65317 0.57602 0.0
H841 H 0.50664 0.6956 0.48582 0.0
C842 C 0.53157 0.72577 0.42589 0.0
C843 C 0.55775 0.73434 0.40743 0.0
C844 C 0.56705 0.64526 0.58014 0.0
C845 C 0.5487 0.68713 0.50712 0.0
C846 C 0.56334 0.61935 0.61303 0.0
C847 C 0.53771 0.60789 0.61721 0.0
C848 C 0.54499 0.66027 0.55084 0.0
C849 C 0.51606 0.62401 0.5911 0.0
C850 C 0.52697 0.7023 0.47555 0.0
C851 C 0.57878 0.71935 0.44457 0.0
N852 N 0.52019 0.64912 0.55835 0.0
N853 N 0.57383 0.69657 0.49156 0.0
H854 H 0.84382 0.53513 0.22684 0.0
H855 H 0.92457 0.53233 0.70198 0.0
H856 H 0.80595 0.55979 0.48076 0.0
H857 H 0.96081 0.54159 0.43643 0.0
H858 H 0.88016 0.53442 0.62948 0.0
H859 H 0.88549 0.52793 0.30975 0.0
C860 C 0.84409 0.53829 0.30078 0.0
C861 C 0.8212 0.54786 0.34685 0.0
C862 C 0.89788 0.53629 0.58737 0.0
C863 C 0.86943 0.54019 0.44285 0.0
C864 C 0.92327 0.53524 0.62882 0.0
C865 C 0.94664 0.53806 0.57599 0.0
C866 C 0.89582 0.53913 0.49164 0.0
C867 C 0.94356 0.54074 0.48075 0.0
C868 C 0.86802 0.5345 0.34799 0.0
C869 C 0.82295 0.55203 0.44266 0.0
N870 N 0.91883 0.54109 0.44192 0.0
N871 N 0.84668 0.54832 0.4875 0.0
loop_
_geom_bond_atom_site_label_1
_geom_bond_atom_site_label_2
_geom_bond_distance
_geom_bond_site_symmetry_2
_ccdc_geom_bond_type
H0 C7 0.929 . S
H1 C10 0.930 . S
H2 C12 0.929 . S
H3 C4 0.969 . S
C4 H3 0.969 . S
C4 O5 1.550 . S
C4 H6 0.973 . S
O5 C4 1.550 . S
O5 C11 1.412 . S
H6 C4 0.973 . S
C7 H0 0.929 . S
C7 C8 1.400 . S
C7 C9 1.364 . S
C8 C7 1.400 . S
C8 C12 1.377 . S
C9 C7 1.364 . S
C9 C10 1.374 . S
C10 H1 0.930 . S
C10 C9 1.374 . S
C10 C11 1.383 . S
C11 O5 1.412 . S
C11 C10 1.383 . S
C11 C12 1.394 . S
C12 H2 0.929 . S
C12 C8 1.377 . S
C12 C11 1.394 . S
H13 C20 0.929 . S
H14 C23 0.930 . S
H15 C25 0.929 . S
H16 C17 0.969 . S
C17 H16 0.969 . S
C17 O18 1.550 . S
C17 H19 0.973 . S
O18 C17 1.550 . S
O18 C24 1.412 . S
H19 C17 0.973 . S
C20 H13 0.929 . S
C20 C21 1.400 . S
C20 C22 1.364 . S
C21 C20 1.400 . S
C21 C25 1.377 . S
C22 C20 1.364 . S
C22 C23 1.374 . S
C23 H14 0.930 . S
C23 C22 1.374 . S
C23 C24 1.383 . S
C24 O18 1.412 . S
C24 C23 1.383 . S
C24 C25 1.394 . S
C25 H15 0.929 . S
C25 C21 1.377 . S
C25 C24 1.394 . S
H26 C33 0.929 . S
H27 C36 0.930 . S
H28 C38 0.929 . S
H29 C30 0.969 . S
C30 H29 0.969 . S
C30 O31 1.550 . S
C30 H32 0.973 . S
O31 C30 1.550 . S
O31 C37 1.412 . S
H32 C30 0.973 . S
C33 H26 0.929 . S
C33 C34 1.400 . S
C33 C35 1.364 . S
C34 C33 1.400 . S
C34 C38 1.377 . S
C35 C33 1.364 . S
C35 C36 1.374 . S
C36 H27 0.930 . S
C36 C35 1.374 . S
C36 C37 1.383 . S
C37 O31 1.412 . S
C37 C36 1.383 . S
C37 C38 1.394 . S
C38 H28 0.929 . S
C38 C34 1.377 . S
C38 C37 1.394 . S
H39 C46 0.929 . S
H40 C49 0.930 . S
H41 C51 0.929 . S
H42 C43 0.969 . S
C43 H42 0.969 . S
C43 O44 1.550 . S
C43 H45 0.973 . S
O44 C43 1.550 . S
O44 C50 1.412 . S
H45 C43 0.973 . S
C46 H39 0.929 . S
C46 C47 1.400 . S
C46 C48 1.364 . S
C47 C46 1.400 . S
C47 C51 1.377 . S
C48 C46 1.364 . S
C48 C49 1.374 . S
C49 H40 0.930 . S
C49 C48 1.374 . S
C49 C50 1.383 . S
C50 O44 1.412 . S
C50 C49 1.383 . S
C50 C51 1.394 . S
C51 H41 0.929 . S
C51 C47 1.377 . S
C51 C50 1.394 . S
H52 C59 0.929 . S
H53 C62 0.930 . S
H54 C64 0.929 . S
H55 C56 0.969 . S
C56 H55 0.969 . S
C56 O57 1.550 . S
C56 H58 0.973 . S
O57 C56 1.550 . S
O57 C63 1.412 . S
H58 C56 0.973 . S
C59 H52 0.929 . S
C59 C60 1.400 . S
C59 C61 1.364 1_556 S
C60 C59 1.400 . S
C60 C64 1.377 . S
C61 C59 1.364 1_554 S
C61 C62 1.374 . S
C62 H53 0.930 . S
C62 C61 1.374 . S
C62 C63 1.383 . S
C63 O57 1.412 . S
C63 C62 1.383 . S
C63 C64 1.394 1_554 S
C64 H54 0.929 . S
C64 C60 1.377 . S
C64 C63 1.394 1_556 S
H65 C72 0.929 . S
H66 C75 0.930 . S
H67 C77 0.929 . S
H68 C69 0.969 . S
C69 H68 0.969 . S
C69 O70 1.551 . S
C69 H71 0.973 . S
O70 C69 1.551 . S
O70 C76 1.412 1_554 S
H71 C69 0.973 . S
C72 H65 0.929 . S
C72 C73 1.400 . S
C72 C74 1.364 1_556 S
C73 C72 1.400 . S
C73 C77 1.377 . S
C74 C72 1.364 1_554 S
C74 C75 1.374 . S
C75 H66 0.930 . S
C75 C74 1.374 . S
C75 C76 1.384 1_554 S
C76 O70 1.412 1_556 S
C76 C75 1.384 1_556 S
C76 C77 1.393 . S
C77 H67 0.929 . S
C77 C73 1.377 . S
C77 C76 1.393 . S
H78 C85 0.929 . S
H79 C88 0.930 . S
H80 C90 0.929 . S
H81 C82 0.969 . S
C82 H81 0.969 . S
C82 O83 1.550 1_554 S
C82 H84 0.973 . S
O83 C82 1.550 1_556 S
O83 C89 1.412 . S
H84 C82 0.973 . S
C85 H78 0.929 . S
C85 C86 1.400 . S
C85 C87 1.364 1_556 S
C86 C85 1.400 . S
C86 C90 1.377 . S
C87 C85 1.364 1_554 S
C87 C88 1.374 . S
C88 H79 0.930 . S
C88 C87 1.374 . S
C88 C89 1.383 1_554 S
C89 O83 1.412 . S
C89 C88 1.383 1_556 S
C89 C90 1.394 . S
C90 H80 0.929 . S
C90 C86 1.377 . S
C90 C89 1.394 . S
H91 C98 0.929 . S
H92 C101 0.930 . S
H93 C103 0.929 . S
H94 C95 0.969 . S
C95 H94 0.969 . S
C95 O96 1.550 . S
C95 H97 0.973 . S
O96 C95 1.550 . S
O96 C102 1.412 . S
H97 C95 0.973 . S
C98 H91 0.929 . S
C98 C99 1.400 . S
C98 C100 1.364 1_556 S
C99 C98 1.400 . S
C99 C103 1.377 . S
C100 C98 1.364 1_554 S
C100 C101 1.374 . S
C101 H92 0.930 . S
C101 C100 1.374 . S
C101 C102 1.383 . S
C102 O96 1.412 . S
C102 C101 1.383 . S
C102 C103 1.394 1_554 S
C103 H93 0.929 . S
C103 C99 1.377 . S
C103 C102 1.394 1_556 S
Tb104 N135 2.660 1_565 S
Tb104 N142 2.590 1_565 S
Tb104 O148 2.546 . S
Tb104 O149 2.610 1_455 S
Tb104 O151 2.320 1_455 S
Tb104 O152 2.552 . S
Tb104 O153 2.413 . S
Tb104 O155 2.362 1_565 S
Tb104 O156 2.421 . S
Tb104 C168 2.833 . S
C105 C108 1.432 1_545 S
C105 C109 1.408 1_545 S
C105 N112 1.359 . S
C106 C108 1.417 . S
C106 C110 1.432 . S
C106 C118 1.410 . S
C107 C109 1.464 . S
C107 C110 1.317 . S
C107 H130 0.929 . S
C108 C105 1.432 1_565 S
C108 C106 1.417 . S
C108 N116 1.368 . S
C109 C105 1.408 1_565 S
C109 C107 1.464 . S
C109 C114 1.371 1_565 S
C110 C106 1.432 . S
C110 C107 1.317 . S
C110 H122 0.930 . S
C111 C113 1.392 . S
C111 C114 1.370 . S
C111 H123 0.931 . S
N112 C105 1.359 . S
N112 C113 1.327 . S
N112 Tb115 2.600 . S
C113 C111 1.392 . S
C113 N112 1.327 . S
C113 H120 0.930 . S
C114 C109 1.371 1_545 S
C114 C111 1.370 . S
C114 H133 0.930 . S
Tb115 N112 2.600 . S
Tb115 N116 2.639 1_545 S
Tb115 O149 2.362 1_545 S
Tb115 O150 2.421 . S
Tb115 O154 2.546 . S
Tb115 O155 2.610 1_655 S
Tb115 O157 2.320 1_655 S
Tb115 O158 2.552 1_655 S
Tb115 O159 2.413 . S
Tb115 C179 2.833 . S
N116 C108 1.368 . S
N116 Tb115 2.639 1_565 S
N116 C117 1.320 1_655 S
C117 N116 1.320 1_455 S
C117 C119 1.407 . S
C117 H124 0.930 . S
C118 C106 1.410 . S
C118 C119 1.345 1_655 S
C118 H126 0.930 . S
C119 C117 1.407 . S
C119 C118 1.345 1_455 S
C119 H121 0.930 . S
H120 C113 0.930 . S
H121 C119 0.930 . S
H122 C110 0.930 . S
H123 C111 0.931 . S
H124 C117 0.930 . S
H125 C139 0.930 1_655 S
H126 C118 0.930 . S
H127 C145 0.930 . S
H128 C136 0.930 1_655 S
H129 C143 0.931 . S
H130 C107 0.929 . S
H131 C137 0.930 . S
H132 C170 0.930 . S
H133 C114 0.930 . S
H134 C169 0.929 . S
N135 Tb104 2.660 1_545 S
N135 C136 1.305 . S
N135 C140 1.360 . S
C136 H128 0.930 1_455 S
C136 N135 1.305 . S
C136 C139 1.407 1_556 S
C137 H131 0.930 . S
C137 C138 1.410 . S
C137 C139 1.345 . S
C138 C137 1.410 . S
C138 C140 1.417 1_554 S
C138 C170 1.432 . S
C139 H125 0.930 1_455 S
C139 C136 1.407 1_554 S
C139 C137 1.345 . S
C140 N135 1.360 . S
C140 C138 1.417 1_556 S
C140 C144 1.432 . S
H141 C146 0.930 . S
N142 Tb104 2.590 1_545 S
N142 C144 1.381 . S
N142 C145 1.311 1_545 S
C143 H129 0.931 . S
C143 C145 1.392 . S
C143 C146 1.370 1_565 S
C144 C140 1.432 . S
C144 N142 1.381 . S
C144 C147 1.414 . S
C145 H127 0.930 . S
C145 N142 1.311 1_565 S
C145 C143 1.392 . S
C146 H141 0.930 . S
C146 C143 1.370 1_545 S
C146 C147 1.385 . S
C147 C144 1.414 . S
C147 C146 1.385 . S
C147 C169 1.444 1_556 S
O148 Tb104 2.546 . S
O148 C168 1.251 . S
O149 Tb104 2.610 1_655 S
O149 Tb115 2.362 1_565 S
O149 C160 1.283 . S
O150 Tb115 2.421 . S
O150 C167 1.262 . S
O151 Tb104 2.320 1_655 S
O151 C167 1.260 1_565 S
O152 Tb104 2.552 . S
O152 C160 1.243 1_455 S
O153 Tb104 2.413 . S
O153 C168 1.256 . S
O154 Tb115 2.546 . S
O154 C179 1.251 . S
O155 Tb104 2.362 1_545 S
O155 Tb115 2.610 1_455 S
O155 C171 1.283 . S
O156 Tb104 2.421 . S
O156 C178 1.262 1_565 S
O157 Tb115 2.320 1_455 S
O157 C178 1.260 . S
O158 Tb115 2.552 1_455 S
O158 C171 1.243 . S
O159 Tb115 2.413 . S
O159 C179 1.256 . S
C160 O149 1.283 . S
C160 O152 1.243 1_655 S
C161 C163 1.382 . S
C161 C165 1.393 . S
C161 C168 1.500 . S
C162 C163 1.400 . S
C162 C164 1.384 1_556 S
C163 C161 1.382 . S
C163 C162 1.400 . S
C163 H180 0.956 . S
C164 C162 1.384 1_554 S
C164 C166 1.392 1_554 S
C164 H181 0.931 . S
C165 C161 1.393 . S
C165 C166 1.401 . S
C165 H182 0.930 . S
C166 C164 1.392 1_556 S
C166 C165 1.401 . S
C166 H183 0.930 . S
C167 O150 1.262 . S
C167 O151 1.260 1_545 S
C168 Tb104 2.833 . S
C168 O148 1.251 . S
C168 O153 1.256 . S
C168 C161 1.500 . S
C169 H134 0.929 . S
C169 C147 1.444 1_554 S
C169 C170 1.317 . S
C170 H132 0.930 . S
C170 C138 1.432 . S
C170 C169 1.317 . S
C171 O155 1.283 . S
C171 O158 1.243 . S
C172 C173 1.382 . S
C172 C176 1.393 . S
C172 C179 1.500 . S
C173 C172 1.382 . S
C173 C174 1.400 . S
C173 H184 0.930 1_655 S
C174 C173 1.400 . S
C174 C175 1.384 . S
C175 C174 1.384 . S
C175 C177 1.392 . S
C175 H185 0.931 . S
C176 C172 1.393 . S
C176 C177 1.401 . S
C176 H186 0.930 . S
C177 C175 1.392 . S
C177 C176 1.401 . S
C177 H187 0.930 . S
C178 O156 1.262 1_545 S
C178 O157 1.260 . S
C179 Tb115 2.833 . S
C179 O154 1.251 . S
C179 O159 1.256 . S
C179 C172 1.500 . S
H180 C163 0.956 . S
H181 C164 0.931 . S
H182 C165 0.930 . S
H183 C166 0.930 . S
H184 C173 0.930 1_455 S
H185 C175 0.931 . S
H186 C176 0.930 . S
H187 C177 0.930 . S
Tb188 N219 2.660 . S
Tb188 N226 2.600 . S
Tb188 O232 2.546 . S
Tb188 O233 2.610 1_545 S
Tb188 O235 2.320 1_545 S
Tb188 O236 2.552 . S
Tb188 O237 2.413 . S
Tb188 O239 2.362 . S
Tb188 O240 2.421 . S
Tb188 C252 2.833 . S
C189 C192 1.432 . S
C189 C193 1.414 . S
C189 N196 1.359 . S
C190 C192 1.417 . S
C190 C194 1.432 . S
C190 C202 1.410 . S
C191 C193 1.444 . S
C191 C194 1.317 . S
C191 H214 0.929 . S
C192 C189 1.432 . S
C192 C190 1.417 . S
C192 N200 1.360 . S
C193 C189 1.414 . S
C193 C191 1.444 . S
C193 C198 1.385 . S
C194 C190 1.432 . S
C194 C191 1.317 . S
C194 H206 0.930 . S
C195 C197 1.392 . S
C195 C198 1.370 . S
C195 H207 0.931 . S
N196 C189 1.359 . S
N196 C197 1.327 . S
N196 Tb199 2.600 . S
C197 C195 1.392 . S
C197 N196 1.327 . S
C197 H204 0.930 . S
C198 C193 1.385 . S
C198 C195 1.370 . S
C198 H217 0.930 . S
Tb199 N196 2.600 . S
Tb199 N200 2.660 . S
Tb199 O233 2.362 . S
Tb199 O234 2.421 . S
Tb199 O238 2.546 . S
Tb199 O239 2.610 1_565 S
Tb199 O241 2.320 1_565 S
Tb199 O242 2.552 1_565 S
Tb199 O243 2.413 . S
Tb199 C263 2.833 . S
N200 C192 1.360 . S
N200 Tb199 2.660 . S
N200 C201 1.305 1_565 S
C201 N200 1.305 1_545 S
C201 C203 1.407 . S
C201 H208 0.930 . S
C202 C190 1.410 . S
C202 C203 1.345 1_565 S
C202 H210 0.930 . S
C203 C201 1.407 . S
C203 C202 1.345 1_545 S
C203 H205 0.930 . S
H204 C197 0.930 . S
H205 C203 0.930 . S
H206 C194 0.930 . S
H207 C195 0.931 . S
H208 C201 0.930 . S
H209 C223 0.930 1_565 S
H210 C202 0.930 . S
H211 C229 0.930 . S
H212 C220 0.930 1_565 S
H213 C227 0.931 . S
H214 C191 0.929 . S
H215 C221 0.930 . S
H216 C254 0.930 . S
H217 C198 0.930 . S
H218 C253 0.929 . S
N219 Tb188 2.660 . S
N219 C220 1.305 . S
N219 C224 1.360 . S
C220 H212 0.930 1_545 S
C220 N219 1.305 . S
C220 C223 1.407 1_556 S
C221 H215 0.930 . S
C221 C222 1.410 . S
C221 C223 1.345 . S
C222 C221 1.410 . S
C222 C224 1.417 1_554 S
C222 C254 1.432 . S
C223 H209 0.930 1_545 S
C223 C220 1.407 1_554 S
C223 C221 1.345 . S
C224 N219 1.360 . S
C224 C222 1.417 1_556 S
C224 C228 1.432 . S
H225 C230 0.930 . S
N226 Tb188 2.600 . S
N226 C228 1.359 . S
N226 C229 1.327 . S
C227 H213 0.931 . S
C227 C229 1.392 . S
C227 C230 1.370 . S
C228 C224 1.432 . S
C228 N226 1.359 . S
C228 C231 1.414 . S
C229 H211 0.930 . S
C229 N226 1.327 . S
C229 C227 1.392 . S
C230 H225 0.930 . S
C230 C227 1.370 . S
C230 C231 1.385 . S
C231 C228 1.414 . S
C231 C230 1.385 . S
C231 C253 1.444 1_556 S
O232 Tb188 2.546 . S
O232 C252 1.251 . S
O233 Tb188 2.610 1_565 S
O233 Tb199 2.362 . S
O233 C244 1.283 . S
O234 Tb199 2.421 . S
O234 C251 1.262 . S
O235 Tb188 2.320 1_565 S
O235 C251 1.260 . S
O236 Tb188 2.552 . S
O236 C244 1.243 1_545 S
O237 Tb188 2.413 . S
O237 C252 1.256 . S
O238 Tb199 2.546 . S
O238 C263 1.251 . S
O239 Tb188 2.362 . S
O239 Tb199 2.610 1_545 S
O239 C255 1.283 . S
O240 Tb188 2.421 . S
O240 C262 1.262 . S
O241 Tb199 2.320 1_545 S
O241 C262 1.260 . S
O242 Tb199 2.552 1_545 S
O242 C255 1.243 . S
O243 Tb199 2.413 . S
O243 C263 1.256 . S
C244 O233 1.283 . S
C244 O236 1.243 1_565 S
C245 C247 1.382 . S
C245 C249 1.393 . S
C245 C252 1.500 . S
C246 C247 1.400 . S
C246 C248 1.384 1_556 S
C247 C245 1.382 . S
C247 C246 1.400 . S
C247 H264 0.930 . S
C248 C246 1.384 1_554 S
C248 C250 1.392 1_554 S
C248 H265 0.931 . S
C249 C245 1.393 . S
C249 C250 1.401 . S
C249 H266 0.930 . S
C250 C248 1.392 1_556 S
C250 C249 1.401 . S
C250 H267 0.930 . S
C251 O234 1.262 . S
C251 O235 1.260 . S
C252 Tb188 2.833 . S
C252 O232 1.251 . S
C252 O237 1.256 . S
C252 C245 1.500 . S
C253 H218 0.929 . S
C253 C231 1.444 1_554 S
C253 C254 1.317 . S
C254 H216 0.930 . S
C254 C222 1.432 . S
C254 C253 1.317 . S
C255 O239 1.283 . S
C255 O242 1.243 . S
C256 C257 1.382 . S
C256 C260 1.393 . S
C256 C263 1.500 . S
C257 C256 1.382 . S
C257 C258 1.400 . S
C257 H268 0.930 1_565 S
C258 C257 1.400 . S
C258 C259 1.384 . S
C259 C258 1.384 . S
C259 C261 1.392 . S
C259 H269 0.931 . S
C260 C256 1.393 . S
C260 C261 1.401 . S
C260 H270 0.930 . S
C261 C259 1.392 . S
C261 C260 1.401 . S
C261 H271 0.930 . S
C262 O240 1.262 . S
C262 O241 1.260 . S
C263 Tb199 2.833 . S
C263 O238 1.251 . S
C263 O243 1.256 . S
C263 C256 1.500 . S
H264 C247 0.930 . S
H265 C248 0.931 . S
H266 C249 0.930 . S
H267 C250 0.930 . S
H268 C257 0.930 1_545 S
H269 C259 0.931 . S
H270 C260 0.930 . S
H271 C261 0.930 . S
Tb272 N303 2.660 . S
Tb272 N310 2.600 . S
Tb272 O316 2.546 . S
Tb272 O317 2.610 . S
Tb272 O319 2.320 . S
Tb272 O320 2.552 . S
Tb272 O321 2.413 . S
Tb272 O323 2.362 . S
Tb272 O324 2.421 . S
Tb272 C336 2.833 . S
C273 C276 1.432 . S
C273 C277 1.414 . S
C273 N280 1.359 . S
C274 C276 1.417 . S
C274 C278 1.432 . S
C274 C286 1.410 . S
C275 C277 1.444 . S
C275 C278 1.317 . S
C275 H298 0.929 . S
C276 C273 1.432 . S
C276 C274 1.417 . S
C276 N284 1.360 . S
C277 C273 1.414 . S
C277 C275 1.444 . S
C277 C282 1.385 . S
C278 C274 1.432 . S
C278 C275 1.317 . S
C278 H290 0.930 . S
C279 C281 1.392 . S
C279 C282 1.370 . S
C279 H291 0.931 . S
N280 C273 1.359 . S
N280 C281 1.327 . S
N280 Tb283 2.600 . S
C281 C279 1.392 . S
C281 N280 1.327 . S
C281 H288 0.930 . S
C282 C277 1.385 . S
C282 C279 1.370 . S
C282 H301 0.930 . S
Tb283 N280 2.600 . S
Tb283 N284 2.660 . S
Tb283 O317 2.362 . S
Tb283 O318 2.421 . S
Tb283 O322 2.546 . S
Tb283 O323 2.610 . S
Tb283 O325 2.320 . S
Tb283 O326 2.552 . S
Tb283 O327 2.413 . S
Tb283 C347 2.833 . S
N284 C276 1.360 . S
N284 Tb283 2.660 . S
N284 C285 1.305 . S
C285 N284 1.305 . S
C285 C287 1.407 . S
C285 H292 0.930 . S
C286 C274 1.410 . S
C286 C287 1.345 . S
C286 H294 0.930 . S
C287 C285 1.407 . S
C287 C286 1.345 . S
C287 H289 0.930 . S
H288 C281 0.930 . S
H289 C287 0.930 . S
H290 C278 0.930 . S
H291 C279 0.931 . S
H292 C285 0.930 . S
H293 C307 0.930 . S
H294 C286 0.930 . S
H295 C313 0.930 . S
H296 C304 0.930 . S
H297 C311 0.931 . S
H298 C275 0.929 . S
H299 C305 0.930 . S
H300 C338 0.930 . S
H301 C282 0.930 . S
H302 C337 0.929 . S
N303 Tb272 2.660 . S
N303 C304 1.305 . S
N303 C308 1.360 . S
C304 H296 0.930 . S
C304 N303 1.305 . S
C304 C307 1.407 . S
C305 H299 0.930 . S
C305 C306 1.410 . S
C305 C307 1.345 . S
C306 C305 1.410 . S
C306 C308 1.417 . S
C306 C338 1.432 . S
C307 H293 0.930 . S
C307 C304 1.407 . S
C307 C305 1.345 . S
C308 N303 1.360 . S
C308 C306 1.417 . S
C308 C312 1.432 . S
H309 C314 0.930 . S
N310 Tb272 2.600 . S
N310 C312 1.359 . S
N310 C313 1.327 . S
C311 H297 0.931 . S
C311 C313 1.392 . S
C311 C314 1.370 . S
C312 C308 1.432 . S
C312 N310 1.359 . S
C312 C315 1.414 . S
C313 H295 0.930 . S
C313 N310 1.327 . S
C313 C311 1.392 . S
C314 H309 0.930 . S
C314 C311 1.370 . S
C314 C315 1.385 . S
C315 C312 1.414 . S
C315 C314 1.385 . S
C315 C337 1.444 . S
O316 Tb272 2.546 . S
O316 C336 1.251 . S
O317 Tb272 2.610 . S
O317 Tb283 2.362 . S
O317 C328 1.283 . S
O318 Tb283 2.421 . S
O318 C335 1.262 . S
O319 Tb272 2.320 . S
O319 C335 1.260 . S
O320 Tb272 2.552 . S
O320 C328 1.243 . S
O321 Tb272 2.413 . S
O321 C336 1.256 . S
O322 Tb283 2.546 . S
O322 C347 1.251 . S
O323 Tb272 2.362 . S
O323 Tb283 2.610 . S
O323 C339 1.283 . S
O324 Tb272 2.421 . S
O324 C346 1.262 . S
O325 Tb283 2.320 . S
O325 C346 1.260 . S
O326 Tb283 2.552 . S
O326 C339 1.243 . S
O327 Tb283 2.413 . S
O327 C347 1.256 . S
C328 O317 1.283 . S
C328 O320 1.243 . S
C329 C331 1.382 . S
C329 C333 1.393 . S
C329 C336 1.500 . S
C330 C331 1.400 . S
C330 C332 1.384 . S
C331 C329 1.382 . S
C331 C330 1.400 . S
C331 H348 0.930 . S
C332 C330 1.384 . S
C332 C334 1.392 . S
C332 H349 0.931 . S
C333 C329 1.393 . S
C333 C334 1.401 . S
C333 H350 0.930 . S
C334 C332 1.392 . S
C334 C333 1.401 . S
C334 H351 0.930 . S
C335 O318 1.262 . S
C335 O319 1.260 . S
C336 Tb272 2.833 . S
C336 O316 1.251 . S
C336 O321 1.256 . S
C336 C329 1.500 . S
C337 H302 0.929 . S
C337 C315 1.444 . S
C337 C338 1.317 . S
C338 H300 0.930 . S
C338 C306 1.432 . S
C338 C337 1.317 . S
C339 O323 1.283 . S
C339 O326 1.243 . S
C340 C341 1.382 . S
C340 C344 1.393 1_556 S
C340 C347 1.500 . S
C341 C340 1.382 . S
C341 C342 1.400 1_556 S
C341 H352 0.930 . S
C342 C341 1.400 1_554 S
C342 C343 1.384 . S
C343 C342 1.384 . S
C343 C345 1.392 . S
C343 H353 0.931 . S
C344 C340 1.393 1_554 S
C344 C345 1.401 . S
C344 H354 0.930 . S
C345 C343 1.392 . S
C345 C344 1.401 . S
C345 H355 0.930 . S
C346 O324 1.262 . S
C346 O325 1.260 . S
C347 Tb283 2.833 . S
C347 O322 1.251 . S
C347 O327 1.256 . S
C347 C340 1.500 . S
H348 C331 0.930 . S
H349 C332 0.931 . S
H350 C333 0.930 . S
H351 C334 0.930 . S
H352 C341 0.930 . S
H353 C343 0.931 . S
H354 C344 0.930 . S
H355 C345 0.930 . S
Tb356 N387 2.660 . S
Tb356 N394 2.600 . S
Tb356 O400 2.546 . S
Tb356 O401 2.610 . S
Tb356 O403 2.320 . S
Tb356 O404 2.552 . S
Tb356 O405 2.413 . S
Tb356 O407 2.362 . S
Tb356 O408 2.421 1_455 S
Tb356 C420 2.833 . S
C357 C360 1.432 . S
C357 C361 1.414 . S
C357 N364 1.359 . S
C358 C360 1.417 . S
C358 C362 1.432 . S
C358 C370 1.410 . S
C359 C361 1.444 . S
C359 C362 1.317 . S
C359 H382 0.929 . S
C360 C357 1.432 . S
C360 C358 1.417 . S
C360 N368 1.360 . S
C361 C357 1.414 . S
C361 C359 1.444 . S
C361 C366 1.385 1_655 S
C362 C358 1.432 . S
C362 C359 1.317 . S
C362 H374 0.930 . S
C363 C365 1.392 . S
C363 C366 1.370 . S
C363 H375 0.931 . S
N364 C357 1.359 . S
N364 C365 1.327 1_655 S
N364 Tb367 2.600 . S
C365 C363 1.392 . S
C365 N364 1.327 1_455 S
C365 H372 0.930 . S
C366 C361 1.385 1_455 S
C366 C363 1.370 . S
C366 H385 0.930 . S
Tb367 N364 2.600 . S
Tb367 N368 2.660 . S
Tb367 O401 2.362 1_655 S
Tb367 O402 2.421 1_655 S
Tb367 O406 2.546 . S
Tb367 O407 2.610 1_655 S
Tb367 O409 2.320 . S
Tb367 O410 2.552 . S
Tb367 O411 2.413 . S
Tb367 C431 2.833 . S
N368 C360 1.360 . S
N368 Tb367 2.660 . S
N368 C369 1.305 . S
C369 N368 1.305 . S
C369 C371 1.407 . S
C369 H376 0.930 . S
C370 C358 1.410 . S
C370 C371 1.345 . S
C370 H378 0.930 . S
C371 C369 1.407 . S
C371 C370 1.345 . S
C371 H373 0.930 . S
H372 C365 0.930 . S
H373 C371 0.930 . S
H374 C362 0.930 . S
H375 C363 0.931 . S
H376 C369 0.930 . S
H377 C391 0.930 . S
H378 C370 0.930 . S
H379 C397 0.925 1_655 S
H380 C388 0.930 . S
H381 C395 0.931 . S
H382 C359 0.929 . S
H383 C389 0.930 . S
H384 C422 0.930 . S
H385 C366 0.930 . S
H386 C421 0.929 . S
N387 Tb356 2.660 . S
N387 C388 1.305 . S
N387 C392 1.360 . S
C388 H380 0.930 . S
C388 N387 1.305 . S
C388 C391 1.407 . S
C389 H383 0.930 . S
C389 C390 1.410 . S
C389 C391 1.345 . S
C390 C389 1.410 . S
C390 C392 1.417 . S
C390 C422 1.432 . S
C391 H377 0.930 . S
C391 C388 1.407 . S
C391 C389 1.345 . S
C392 N387 1.360 . S
C392 C390 1.417 . S
C392 C396 1.432 . S
H393 C398 0.930 . S
N394 Tb356 2.600 . S
N394 C396 1.359 . S
N394 C397 1.332 . S
C395 H381 0.931 . S
C395 C397 1.391 1_655 S
C395 C398 1.370 1_655 S
C396 C392 1.432 . S
C396 N394 1.359 . S
C396 C399 1.414 . S
C397 H379 0.925 1_455 S
C397 N394 1.332 . S
C397 C395 1.391 1_455 S
C398 H393 0.930 . S
C398 C395 1.370 1_455 S
C398 C399 1.385 . S
C399 C396 1.414 . S
C399 C398 1.385 . S
C399 C421 1.444 . S
O400 Tb356 2.546 . S
O400 C420 1.251 . S
O401 Tb356 2.610 . S
O401 Tb367 2.362 1_455 S
O401 C412 1.283 . S
O402 Tb367 2.421 1_455 S
O402 C419 1.262 . S
O403 Tb356 2.320 . S
O403 C419 1.260 . S
O404 Tb356 2.552 . S
O404 C412 1.243 . S
O405 Tb356 2.413 . S
O405 C420 1.256 . S
O406 Tb367 2.546 . S
O406 C431 1.251 . S
O407 Tb356 2.362 . S
O407 Tb367 2.610 1_455 S
O407 C423 1.283 1_455 S
O408 Tb356 2.421 1_655 S
O408 C430 1.262 . S
O409 Tb367 2.320 . S
O409 C430 1.260 . S
O410 Tb367 2.552 . S
O410 C423 1.243 . S
O411 Tb367 2.413 . S
O411 C431 1.256 . S
C412 O401 1.283 . S
C412 O404 1.243 . S
C413 C415 1.382 . S
C413 C417 1.393 . S
C413 C420 1.500 . S
C414 C415 1.400 . S
C414 C416 1.384 . S
C415 C413 1.382 . S
C415 C414 1.400 . S
C415 H432 0.930 . S
C416 C414 1.384 . S
C416 C418 1.392 . S
C416 H433 0.931 . S
C417 C413 1.393 . S
C417 C418 1.401 . S
C417 H434 0.930 . S
C418 C416 1.392 . S
C418 C417 1.401 . S
C418 H435 0.930 . S
C419 O402 1.262 . S
C419 O403 1.260 . S
C420 Tb356 2.833 . S
C420 O400 1.251 . S
C420 O405 1.256 . S
C420 C413 1.500 . S
C421 H386 0.929 . S
C421 C399 1.444 . S
C421 C422 1.317 . S
C422 H384 0.930 . S
C422 C390 1.432 . S
C422 C421 1.317 . S
C423 O407 1.283 1_655 S
C423 O410 1.243 . S
C424 C425 1.382 . S
C424 C428 1.393 1_556 S
C424 C431 1.500 . S
C425 C424 1.382 . S
C425 C426 1.400 1_556 S
C425 H436 0.930 . S
C426 C425 1.400 1_554 S
C426 C427 1.384 . S
C427 C426 1.384 . S
C427 C429 1.392 . S
C427 H437 0.931 . S
C428 C424 1.393 1_554 S
C428 C429 1.401 . S
C428 H438 0.930 . S
C429 C427 1.392 . S
C429 C428 1.401 . S
C429 H439 0.930 . S
C430 O408 1.262 . S
C430 O409 1.260 . S
C431 Tb367 2.833 . S
C431 O406 1.251 . S
C431 O411 1.256 . S
C431 C424 1.500 . S
H432 C415 0.930 . S
H433 C416 0.931 . S
H434 C417 0.930 . S
H435 C418 0.930 . S
H436 C425 0.930 . S
H437 C427 0.931 . S
H438 C428 0.930 . S
H439 C429 0.930 . S
H440 C446 0.930 . S
H441 C450 0.930 . S
H442 C455 0.929 . S
H443 C453 0.929 1_565 S
H444 C448 0.929 . S
H445 C454 0.929 . S
C446 H440 0.930 . S
C446 C447 1.367 . S
C446 C454 1.378 . S
C447 C446 1.367 . S
C447 C455 1.433 . S
C448 H444 0.929 . S
C448 C450 1.378 . S
C448 C452 1.350 . S
C449 C452 1.463 . S
C449 C454 1.350 . S
C449 N457 1.427 . S
C450 H441 0.930 . S
C450 C448 1.378 . S
C450 C451 1.367 . S
C451 C450 1.367 . S
C451 C453 1.433 . S
C452 C448 1.350 . S
C452 C449 1.463 . S
C452 N456 1.427 . S
C453 H443 0.929 1_545 S
C453 C451 1.433 . S
C453 N456 1.384 . S
C454 H445 0.929 . S
C454 C446 1.378 . S
C454 C449 1.350 . S
C455 H442 0.929 . S
C455 C447 1.433 . S
C455 N457 1.384 . S
N456 C452 1.427 . S
N456 C453 1.384 . S
N457 C449 1.427 . S
N457 C455 1.384 . S
H458 C464 0.930 . S
H459 C468 0.930 . S
H460 C473 0.929 . S
H461 C471 0.929 . S
H462 C466 0.929 . S
H463 C472 0.929 . S
C464 H458 0.930 . S
C464 C465 1.367 . S
C464 C472 1.378 . S
C465 C464 1.367 . S
C465 C473 1.433 . S
C466 H462 0.929 . S
C466 C468 1.378 . S
C466 C470 1.350 . S
C467 C470 1.463 . S
C467 C472 1.350 . S
C467 N475 1.427 . S
C468 H459 0.930 . S
C468 C466 1.378 . S
C468 C469 1.367 . S
C469 C468 1.367 . S
C469 C471 1.433 . S
C470 C466 1.350 . S
C470 C467 1.463 . S
C470 N474 1.427 . S
C471 H461 0.929 . S
C471 C469 1.433 . S
C471 N474 1.384 . S
C472 H463 0.929 . S
C472 C464 1.378 . S
C472 C467 1.350 . S
C473 H460 0.929 . S
C473 C465 1.433 . S
C473 N475 1.384 . S
N474 C470 1.427 . S
N474 C471 1.384 . S
N475 C467 1.427 . S
N475 C473 1.384 . S
H476 C482 0.930 . S
H477 C486 0.930 . S
H478 C491 0.929 . S
H479 C489 0.929 . S
H480 C484 0.929 . S
H481 C490 0.929 . S
C482 H476 0.930 . S
C482 C483 1.367 . S
C482 C490 1.378 . S
C483 C482 1.367 . S
C483 C491 1.433 . S
C484 H480 0.929 . S
C484 C486 1.378 . S
C484 C488 1.350 . S
C485 C488 1.463 . S
C485 C490 1.350 . S
C485 N493 1.427 . S
C486 H477 0.930 . S
C486 C484 1.378 . S
C486 C487 1.367 . S
C487 C486 1.367 . S
C487 C489 1.433 . S
C488 C484 1.350 . S
C488 C485 1.463 . S
C488 N492 1.427 . S
C489 H479 0.929 . S
C489 C487 1.433 . S
C489 N492 1.384 . S
C490 H481 0.929 . S
C490 C482 1.378 . S
C490 C485 1.350 . S
C491 H478 0.929 . S
C491 C483 1.433 . S
C491 N493 1.384 . S
N492 C488 1.427 . S
N492 C489 1.384 . S
N493 C485 1.427 . S
N493 C491 1.384 . S
H494 C500 0.930 . S
H495 C504 0.930 . S
H496 C509 0.929 . S
H497 C507 0.929 . S
H498 C502 0.929 . S
H499 C508 0.929 . S
C500 H494 0.930 . S
C500 C501 1.367 . S
C500 C508 1.378 . S
C501 C500 1.367 . S
C501 C509 1.433 . S
C502 H498 0.929 . S
C502 C504 1.378 . S
C502 C506 1.350 . S
C503 C506 1.463 . S
C503 C508 1.350 . S
C503 N511 1.427 . S
C504 H495 0.930 . S
C504 C502 1.378 . S
C504 C505 1.367 . S
C505 C504 1.367 . S
C505 C507 1.433 . S
C506 C502 1.350 . S
C506 C503 1.463 . S
C506 N510 1.427 . S
C507 H497 0.929 . S
C507 C505 1.433 . S
C507 N510 1.384 . S
C508 H499 0.929 . S
C508 C500 1.378 . S
C508 C503 1.350 . S
C509 H496 0.929 . S
C509 C501 1.433 . S
C509 N511 1.384 . S
N510 C506 1.427 . S
N510 C507 1.384 . S
N511 C503 1.427 . S
N511 C509 1.384 . S
H512 C518 0.930 . S
H513 C522 0.930 . S
H514 C527 0.929 1_545 S
H515 C525 0.929 . S
H516 C520 0.929 . S
H517 C526 0.929 . S
C518 H512 0.930 . S
C518 C519 1.367 . S
C518 C526 1.378 . S
C519 C518 1.367 . S
C519 C527 1.433 . S
C520 H516 0.929 . S
C520 C522 1.378 . S
C520 C524 1.350 1_545 S
C521 C524 1.463 1_554 S
C521 C526 1.350 . S
C521 N529 1.427 . S
C522 H513 0.930 . S
C522 C520 1.378 . S
C522 C523 1.367 1_545 S
C523 C522 1.367 1_565 S
C523 C525 1.433 . S
C524 C520 1.350 1_565 S
C524 C521 1.463 1_556 S
C524 N528 1.427 . S
C525 H515 0.929 . S
C525 C523 1.433 . S
C525 N528 1.384 . S
C526 H517 0.929 . S
C526 C518 1.378 . S
C526 C521 1.350 . S
C527 H514 0.929 1_565 S
C527 C519 1.433 . S
C527 N529 1.384 . S
N528 C524 1.427 . S
N528 C525 1.384 . S
N529 C521 1.427 . S
N529 C527 1.384 . S
H530 C536 0.930 . S
H531 C540 0.930 . S
H532 C545 0.929 . S
H533 C543 0.929 . S
H534 C538 0.929 1_554 S
H535 C544 0.929 1_556 S
C536 H530 0.930 . S
C536 C537 1.367 . S
C536 C544 1.378 . S
C537 C536 1.367 . S
C537 C545 1.433 . S
C538 H534 0.929 1_556 S
C538 C540 1.378 . S
C538 C542 1.350 . S
C539 C542 1.463 1_554 S
C539 C544 1.350 . S
C539 N547 1.427 . S
C540 H531 0.930 . S
C540 C538 1.378 . S
C540 C541 1.367 . S
C541 C540 1.367 . S
C541 C543 1.433 . S
C542 C538 1.350 . S
C542 C539 1.463 1_556 S
C542 N546 1.427 . S
C543 H533 0.929 . S
C543 C541 1.433 . S
C543 N546 1.384 . S
C544 H535 0.929 1_554 S
C544 C536 1.378 . S
C544 C539 1.350 . S
C545 H532 0.929 . S
C545 C537 1.433 . S
C545 N547 1.384 . S
N546 C542 1.427 . S
N546 C543 1.384 . S
N547 C539 1.427 . S
N547 C545 1.384 . S
H548 C554 0.930 . S
H549 C558 0.930 . S
H550 C563 0.929 . S
H551 C561 0.929 . S
H552 C556 0.929 . S
H553 C562 0.929 . S
C554 H548 0.930 . S
C554 C555 1.367 . S
C554 C562 1.378 . S
C555 C554 1.367 . S
C555 C563 1.433 . S
C556 H552 0.929 . S
C556 C558 1.378 . S
C556 C560 1.350 . S
C557 C560 1.463 1_554 S
C557 C562 1.350 . S
C557 N565 1.427 . S
C558 H549 0.930 . S
C558 C556 1.378 . S
C558 C559 1.367 . S
C559 C558 1.367 . S
C559 C561 1.433 . S
C560 C556 1.350 . S
C560 C557 1.463 1_556 S
C560 N564 1.427 . S
C561 H551 0.929 . S
C561 C559 1.433 . S
C561 N564 1.384 . S
C562 H553 0.929 . S
C562 C554 1.378 . S
C562 C557 1.350 . S
C563 H550 0.929 . S
C563 C555 1.433 . S
C563 N565 1.384 . S
N564 C560 1.427 . S
N564 C561 1.384 . S
N565 C557 1.427 . S
N565 C563 1.384 . S
H566 C572 0.930 . S
H567 C576 0.930 . S
H568 C581 0.929 . S
H569 C579 0.929 . S
H570 C574 0.929 . S
H571 C580 0.929 1_455 S
C572 H566 0.930 . S
C572 C573 1.367 . S
C572 C580 1.378 . S
C573 C572 1.367 . S
C573 C581 1.433 . S
C574 H570 0.929 . S
C574 C576 1.378 . S
C574 C578 1.350 . S
C575 C578 1.463 1_554 S
C575 C580 1.350 . S
C575 N583 1.427 . S
C576 H567 0.930 . S
C576 C574 1.378 . S
C576 C577 1.367 . S
C577 C576 1.367 . S
C577 C579 1.433 1_655 S
C578 C574 1.350 . S
C578 C575 1.463 1_556 S
C578 N582 1.427 1_655 S
C579 H569 0.929 . S
C579 C577 1.433 1_455 S
C579 N582 1.384 . S
C580 H571 0.929 1_655 S
C580 C572 1.378 . S
C580 C575 1.350 . S
C581 H568 0.929 . S
C581 C573 1.433 . S
C581 N583 1.384 . S
N582 C578 1.427 1_455 S
N582 C579 1.384 . S
N583 C575 1.427 . S
N583 C581 1.384 . S
H584 C590 0.930 . S
H585 C594 0.930 1_655 S
H586 C599 0.929 . S
H587 C597 0.929 . S
H588 C592 0.929 . S
H589 C598 0.929 . S
C590 H584 0.930 . S
C590 C591 1.367 . S
C590 C598 1.378 . S
C591 C590 1.367 . S
C591 C599 1.433 . S
C592 H588 0.929 . S
C592 C594 1.378 . S
C592 C596 1.350 . S
C593 C596 1.463 . S
C593 C598 1.350 . S
C593 N601 1.427 . S
C594 H585 0.930 1_455 S
C594 C592 1.378 . S
C594 C595 1.367 . S
C595 C594 1.367 . S
C595 C597 1.433 . S
C596 C592 1.350 . S
C596 C593 1.463 . S
C596 N600 1.427 . S
C597 H587 0.929 . S
C597 C595 1.433 . S
C597 N600 1.384 . S
C598 H589 0.929 . S
C598 C590 1.378 . S
C598 C593 1.350 . S
C599 H586 0.929 . S
C599 C591 1.433 . S
C599 N601 1.384 . S
N600 C596 1.427 . S
N600 C597 1.384 . S
N601 C593 1.427 . S
N601 C599 1.384 . S
H602 C608 0.930 . S
H603 C612 0.930 . S
H604 C617 0.929 1_556 S
H605 C615 0.929 . S
H606 C610 0.929 . S
H607 C616 0.929 . S
C608 H602 0.930 . S
C608 C609 1.367 . S
C608 C616 1.378 . S
C609 C608 1.367 . S
C609 C617 1.433 . S
C610 H606 0.929 . S
C610 C612 1.378 1_545 S
C610 C614 1.350 . S
C611 C614 1.463 . S
C611 C616 1.350 . S
C611 N619 1.427 . S
C612 H603 0.930 . S
C612 C610 1.378 1_565 S
C612 C613 1.367 1_565 S
C613 C612 1.367 1_545 S
C613 C615 1.433 . S
C614 C610 1.350 . S
C614 C611 1.463 . S
C614 N618 1.427 . S
C615 H605 0.929 . S
C615 C613 1.433 . S
C615 N618 1.384 . S
C616 H607 0.929 . S
C616 C608 1.378 . S
C616 C611 1.350 . S
C617 H604 0.929 1_554 S
C617 C609 1.433 . S
C617 N619 1.384 . S
N618 C614 1.427 . S
N618 C615 1.384 . S
N619 C611 1.427 . S
N619 C617 1.384 . S
H620 C626 0.930 . S
H621 C630 0.930 . S
H622 C635 0.929 . S
H623 C633 0.929 . S
H624 C628 0.929 . S
H625 C634 0.929 . S
C626 H620 0.930 . S
C626 C627 1.367 . S
C626 C634 1.378 . S
C627 C626 1.367 . S
C627 C635 1.433 . S
C628 H624 0.929 . S
C628 C630 1.378 . S
C628 C632 1.350 . S
C629 C632 1.463 . S
C629 C634 1.350 . S
C629 N637 1.427 . S
C630 H621 0.930 . S
C630 C628 1.378 . S
C630 C631 1.367 . S
C631 C630 1.367 . S
C631 C633 1.433 . S
C632 C628 1.350 . S
C632 C629 1.463 . S
C632 N636 1.427 . S
C633 H623 0.929 . S
C633 C631 1.433 . S
C633 N636 1.384 . S
C634 H625 0.929 . S
C634 C626 1.378 . S
C634 C629 1.350 . S
C635 H622 0.929 . S
C635 C627 1.433 . S
C635 N637 1.384 . S
N636 C632 1.427 . S
N636 C633 1.384 . S
N637 C629 1.427 . S
N637 C635 1.384 . S
H638 C644 0.930 . S
H639 C648 0.930 . S
H640 C653 0.929 . S
H641 C651 0.929 . S
H642 C646 0.929 . S
H643 C652 0.929 . S
C644 H638 0.930 . S
C644 C645 1.367 . S
C644 C652 1.378 . S
C645 C644 1.367 . S
C645 C653 1.433 . S
C646 H642 0.929 . S
C646 C648 1.378 . S
C646 C650 1.350 . S
C647 C650 1.463 . S
C647 C652 1.350 . S
C647 N655 1.427 . S
C648 H639 0.930 . S
C648 C646 1.378 . S
C648 C649 1.367 . S
C649 C648 1.367 . S
C649 C651 1.433 . S
C650 C646 1.350 . S
C650 C647 1.463 . S
C650 N654 1.427 . S
C651 H641 0.929 . S
C651 C649 1.433 . S
C651 N654 1.384 . S
C652 H643 0.929 . S
C652 C644 1.378 . S
C652 C647 1.350 . S
C653 H640 0.929 . S
C653 C645 1.433 . S
C653 N655 1.384 . S
N654 C650 1.427 . S
N654 C651 1.384 . S
N655 C647 1.427 . S
N655 C653 1.384 . S
H656 C662 0.930 . S
H657 C666 0.930 . S
H658 C671 0.929 . S
H659 C669 0.929 . S
H660 C664 0.929 . S
H661 C670 0.929 . S
C662 H656 0.930 . S
C662 C663 1.367 . S
C662 C670 1.378 . S
C663 C662 1.367 . S
C663 C671 1.433 . S
C664 H660 0.929 . S
C664 C666 1.378 . S
C664 C668 1.350 . S
C665 C668 1.463 . S
C665 C670 1.350 . S
C665 N673 1.427 . S
C666 H657 0.930 . S
C666 C664 1.378 . S
C666 C667 1.367 1_654 S
C667 C666 1.367 1_456 S
C667 C669 1.433 . S
C668 C664 1.350 . S
C668 C665 1.463 . S
C668 N672 1.427 1_655 S
C669 H659 0.929 . S
C669 C667 1.433 . S
C669 N672 1.384 1_556 S
C670 H661 0.929 . S
C670 C662 1.378 . S
C670 C665 1.350 . S
C671 H658 0.929 . S
C671 C663 1.433 . S
C671 N673 1.384 . S
N672 C668 1.427 1_455 S
N672 C669 1.384 1_554 S
N673 C665 1.427 . S
N673 C671 1.384 . S
H674 C680 0.930 . S
H675 C684 0.930 . S
H676 C689 0.929 . S
H677 C687 0.929 1_556 S
H678 C682 0.929 . S
H679 C688 0.929 1_545 S
C680 H674 0.930 . S
C680 C681 1.367 . S
C680 C688 1.378 . S
C681 C680 1.367 . S
C681 C689 1.433 . S
C682 H678 0.929 . S
C682 C684 1.378 . S
C682 C686 1.350 . S
C683 C686 1.463 . S
C683 C688 1.350 . S
C683 N691 1.427 . S
C684 H675 0.930 . S
C684 C682 1.378 . S
C684 C685 1.367 1_564 S
C685 C684 1.367 1_546 S
C685 C687 1.433 1_556 S
C686 C682 1.350 . S
C686 C683 1.463 . S
C686 N690 1.427 1_565 S
C687 H677 0.929 1_554 S
C687 C685 1.433 1_554 S
C687 N690 1.384 . S
C688 H679 0.929 1_565 S
C688 C680 1.378 . S
C688 C683 1.350 . S
C689 H676 0.929 . S
C689 C681 1.433 . S
C689 N691 1.384 . S
N690 C686 1.427 1_545 S
N690 C687 1.384 . S
N691 C683 1.427 . S
N691 C689 1.384 . S
H692 C698 0.930 . S
H693 C702 0.930 . S
H694 C707 0.929 . S
H695 C705 0.929 . S
H696 C700 0.929 . S
H697 C706 0.929 . S
C698 H692 0.930 . S
C698 C699 1.367 . S
C698 C706 1.378 . S
C699 C698 1.367 . S
C699 C707 1.433 . S
C700 H696 0.929 . S
C700 C702 1.378 1_554 S
C700 C704 1.350 . S
C701 C704 1.463 . S
C701 C706 1.350 . S
C701 N709 1.427 . S
C702 H693 0.930 . S
C702 C700 1.378 1_556 S
C702 C703 1.367 1_556 S
C703 C702 1.367 1_554 S
C703 C705 1.433 . S
C704 C700 1.350 . S
C704 C701 1.463 . S
C704 N708 1.427 . S
C705 H695 0.929 . S
C705 C703 1.433 . S
C705 N708 1.384 . S
C706 H697 0.929 . S
C706 C698 1.378 . S
C706 C701 1.350 . S
C707 H694 0.929 . S
C707 C699 1.433 . S
C707 N709 1.384 . S
N708 C704 1.427 . S
N708 C705 1.384 . S
N709 C701 1.427 . S
N709 C707 1.384 . S
H710 C716 0.930 . S
H711 C720 0.930 . S
H712 C725 0.929 . S
H713 C723 0.929 1_556 S
H714 C718 0.929 . S
H715 C724 0.929 . S
C716 H710 0.930 . S
C716 C717 1.367 . S
C716 C724 1.378 . S
C717 C716 1.367 . S
C717 C725 1.433 . S
C718 H714 0.929 . S
C718 C720 1.378 . S
C718 C722 1.350 . S
C719 C722 1.463 . S
C719 C724 1.350 . S
C719 N727 1.427 . S
C720 H711 0.930 . S
C720 C718 1.378 . S
C720 C721 1.367 . S
C721 C720 1.367 . S
C721 C723 1.433 . S
C722 C718 1.350 . S
C722 C719 1.463 . S
C722 N726 1.427 . S
C723 H713 0.929 1_554 S
C723 C721 1.433 . S
C723 N726 1.384 . S
C724 H715 0.929 . S
C724 C716 1.378 . S
C724 C719 1.350 . S
C725 H712 0.929 . S
C725 C717 1.433 . S
C725 N727 1.384 . S
N726 C722 1.427 . S
N726 C723 1.384 . S
N727 C719 1.427 . S
N727 C725 1.384 . S
H728 C734 0.930 . S
H729 C738 0.930 . S
H730 C743 0.929 . S
H731 C741 0.929 . S
H732 C736 0.929 . S
H733 C742 0.929 . S
C734 H728 0.930 . S
C734 C735 1.367 . S
C734 C742 1.378 . S
C735 C734 1.367 . S
C735 C743 1.433 . S
C736 H732 0.929 . S
C736 C738 1.378 . S
C736 C740 1.350 . S
C737 C740 1.463 . S
C737 C742 1.350 . S
C737 N745 1.427 . S
C738 H729 0.930 . S
C738 C736 1.378 . S
C738 C739 1.367 . S
C739 C738 1.367 . S
C739 C741 1.433 . S
C740 C736 1.350 . S
C740 C737 1.463 . S
C740 N744 1.427 . S
C741 H731 0.929 . S
C741 C739 1.433 . S
C741 N744 1.384 . S
C742 H733 0.929 . S
C742 C734 1.378 . S
C742 C737 1.350 . S
C743 H730 0.929 . S
C743 C735 1.433 . S
C743 N745 1.384 . S
N744 C740 1.427 . S
N744 C741 1.384 . S
N745 C737 1.427 . S
N745 C743 1.384 . S
H746 C752 0.930 . S
H747 C756 0.930 . S
H748 C761 0.929 . S
H749 C759 0.929 1_565 S
H750 C754 0.929 . S
H751 C760 0.929 . S
C752 H746 0.930 . S
C752 C753 1.367 . S
C752 C760 1.378 . S
C753 C752 1.367 . S
C753 C761 1.433 . S
C754 H750 0.929 . S
C754 C756 1.378 . S
C754 C758 1.350 . S
C755 C758 1.463 . S
C755 C760 1.350 . S
C755 N763 1.427 . S
C756 H747 0.930 . S
C756 C754 1.378 . S
C756 C757 1.367 . S
C757 C756 1.367 . S
C757 C759 1.433 . S
C758 C754 1.350 . S
C758 C755 1.463 . S
C758 N762 1.427 . S
C759 H749 0.929 1_545 S
C759 C757 1.433 . S
C759 N762 1.384 . S
C760 H751 0.929 . S
C760 C752 1.378 . S
C760 C755 1.350 . S
C761 H748 0.929 . S
C761 C753 1.433 . S
C761 N763 1.384 . S
N762 C758 1.427 . S
N762 C759 1.384 . S
N763 C755 1.427 . S
N763 C761 1.384 . S
H764 C770 0.930 . S
H765 C774 0.930 . S
H766 C779 0.929 . S
H767 C777 0.929 . S
H768 C772 0.929 . S
H769 C778 0.929 . S
C770 H764 0.930 . S
C770 C771 1.367 . S
C770 C778 1.378 . S
C771 C770 1.367 . S
C771 C779 1.433 . S
C772 H768 0.929 . S
C772 C774 1.378 . S
C772 C776 1.350 . S
C773 C776 1.463 . S
C773 C778 1.350 . S
C773 N781 1.427 . S
C774 H765 0.930 . S
C774 C772 1.378 . S
C774 C775 1.367 . S
C775 C774 1.367 . S
C775 C777 1.433 . S
C776 C772 1.350 . S
C776 C773 1.463 . S
C776 N780 1.427 . S
C777 H767 0.929 . S
C777 C775 1.433 . S
C777 N780 1.384 . S
C778 H769 0.929 . S
C778 C770 1.378 . S
C778 C773 1.350 . S
C779 H766 0.929 . S
C779 C771 1.433 . S
C779 N781 1.384 . S
N780 C776 1.427 . S
N780 C777 1.384 . S
N781 C773 1.427 . S
N781 C779 1.384 . S
H782 C788 0.930 . S
H783 C792 0.930 . S
H784 C797 0.929 . S
H785 C795 0.929 . S
H786 C790 0.929 . S
H787 C796 0.929 . S
C788 H782 0.930 . S
C788 C789 1.367 . S
C788 C796 1.378 . S
C789 C788 1.367 . S
C789 C797 1.433 . S
C790 H786 0.929 . S
C790 C792 1.378 . S
C790 C794 1.350 . S
C791 C794 1.463 . S
C791 C796 1.350 . S
C791 N799 1.427 . S
C792 H783 0.930 . S
C792 C790 1.378 . S
C792 C793 1.367 . S
C793 C792 1.367 . S
C793 C795 1.433 . S
C794 C790 1.350 . S
C794 C791 1.463 . S
C794 N798 1.427 . S
C795 H785 0.929 . S
C795 C793 1.433 . S
C795 N798 1.384 . S
C796 H787 0.929 . S
C796 C788 1.378 . S
C796 C791 1.350 . S
C797 H784 0.929 . S
C797 C789 1.433 . S
C797 N799 1.384 . S
N798 C794 1.427 . S
N798 C795 1.384 . S
N799 C791 1.427 . S
N799 C797 1.384 . S
H800 C806 0.930 . S
H801 C810 0.930 . S
H802 C815 0.929 . S
H803 C813 0.929 1_455 S
H804 C808 0.929 . S
H805 C814 0.929 . S
C806 H800 0.930 . S
C806 C807 1.367 . S
C806 C814 1.378 . S
C807 C806 1.367 . S
C807 C815 1.433 . S
C808 H804 0.929 . S
C808 C810 1.378 . S
C808 C812 1.350 . S
C809 C812 1.463 . S
C809 C814 1.350 . S
C809 N817 1.427 . S
C810 H801 0.930 . S
C810 C808 1.378 . S
C810 C811 1.367 . S
C811 C810 1.367 . S
C811 C813 1.433 . S
C812 C808 1.350 . S
C812 C809 1.463 . S
C812 N816 1.427 . S
C813 H803 0.929 1_655 S
C813 C811 1.433 . S
C813 N816 1.384 . S
C814 H805 0.929 . S
C814 C806 1.378 . S
C814 C809 1.350 . S
C815 H802 0.929 . S
C815 C807 1.433 . S
C815 N817 1.384 . S
N816 C812 1.427 . S
N816 C813 1.384 . S
N817 C809 1.427 . S
N817 C815 1.384 . S
H818 C824 0.930 . S
H819 C828 0.930 . S
H820 C833 0.929 . S
H821 C831 0.929 1_545 S
H822 C826 0.929 . S
H823 C832 0.929 . S
C824 H818 0.930 . S
C824 C825 1.367 . S
C824 C832 1.378 . S
C825 C824 1.367 . S
C825 C833 1.433 . S
C826 H822 0.929 . S
C826 C828 1.378 . S
C826 C830 1.350 . S
C827 C830 1.463 . S
C827 C832 1.350 . S
C827 N835 1.427 . S
C828 H819 0.930 . S
C828 C826 1.378 . S
C828 C829 1.367 . S
C829 C828 1.367 . S
C829 C831 1.433 . S
C830 C826 1.350 . S
C830 C827 1.463 . S
C830 N834 1.427 . S
C831 H821 0.929 1_565 S
C831 C829 1.433 . S
C831 N834 1.384 . S
C832 H823 0.929 . S
C832 C824 1.378 . S
C832 C827 1.350 . S
C833 H820 0.929 . S
C833 C825 1.433 . S
C833 N835 1.384 . S
N834 C830 1.427 . S
N834 C831 1.384 . S
N835 C827 1.427 . S
N835 C833 1.384 . S
H836 C842 0.930 . S
H837 C846 0.930 . S
H838 C851 0.929 . S
H839 C849 0.929 . S
H840 C844 0.929 . S
H841 C850 0.929 . S
C842 H836 0.930 . S
C842 C843 1.367 . S
C842 C850 1.378 . S
C843 C842 1.367 . S
C843 C851 1.433 . S
C844 H840 0.929 . S
C844 C846 1.378 . S
C844 C848 1.350 . S
C845 C848 1.463 . S
C845 C850 1.350 . S
C845 N853 1.427 . S
C846 H837 0.930 . S
C846 C844 1.378 . S
C846 C847 1.367 . S
C847 C846 1.367 . S
C847 C849 1.433 . S
C848 C844 1.350 . S
C848 C845 1.463 . S
C848 N852 1.427 . S
C849 H839 0.929 . S
C849 C847 1.433 . S
C849 N852 1.384 . S
C850 H841 0.929 . S
C850 C842 1.378 . S
C850 C845 1.350 . S
C851 H838 0.929 . S
C851 C843 1.433 . S
C851 N853 1.384 . S
N852 C848 1.427 . S
N852 C849 1.384 . S
N853 C845 1.427 . S
N853 C851 1.384 . S
H854 C860 0.930 . S
H855 C864 0.930 . S
H856 C869 0.929 . S
H857 C867 0.929 . S
H858 C862 0.929 . S
H859 C868 0.929 . S
C860 H854 0.930 . S
C860 C861 1.367 . S
C860 C868 1.378 . S
C861 C860 1.367 . S
C861 C869 1.433 . S
C862 H858 0.929 . S
C862 C864 1.378 . S
C862 C866 1.350 . S
C863 C866 1.463 . S
C863 C868 1.350 . S
C863 N871 1.427 . S
C864 H855 0.930 . S
C864 C862 1.378 . S
C864 C865 1.367 . S
C865 C864 1.367 . S
C865 C867 1.433 . S
C866 C862 1.350 . S
C866 C863 1.463 . S
C866 N870 1.427 . S
C867 H857 0.929 . S
C867 C865 1.433 . S
C867 N870 1.384 . S
C868 H859 0.929 . S
C868 C860 1.378 . S
C868 C863 1.350 . S
C869 H856 0.929 . S
C869 C861 1.433 . S
C869 N871 1.384 . S
N870 C866 1.427 . S
N870 C867 1.384 . S
N871 C863 1.427 . S
N871 C869 1.384 . S
C447 C82 1.744 . S
C451 C178 1.932 . S
C469 C262 1.950 . S
C465 C95 1.775 . S
C487 C328 1.928 . S
C483 C56 1.865 . S
C505 C412 1.916 . S
C501 C69 1.850 . S
C523 C167 1.928 1_565 S
C519 C30 1.694 . S
C537 C43 1.691 . S
C541 C251 1.947 . S
C555 C4 1.799 . S
C559 C339 1.932 . S
C573 C17 1.771 . S
C577 C423 1.906 . S
C595 C174 0.652 1_455 S
C591 C74 0.647 . S
C613 C258 0.614 1_545 S
C609 C87 0.643 . S
C631 C330 0.595 . S
C627 C100 0.609 . S
C645 C61 0.648 . S
C649 C414 0.608 . S
C663 C22 0.658 . S
C667 C162 0.663 . S
C685 C246 0.642 . S
C681 C35 0.619 . S
C703 C342 0.613 . S
C699 C48 0.588 . S
C717 C9 0.644 . S
C721 C426 0.617 . S
C735 C73 2.020 . S
C739 C171 2.078 . S
C753 C86 1.978 . S
C757 C255 2.044 . S
C775 C335 2.062 . S
C771 C99 1.898 . S
C793 C419 2.092 . S
C789 C60 1.927 . S
C807 C21 2.011 . S
C811 C160 2.078 . S
C829 C244 2.048 . S
C825 C34 1.985 . S
C847 C346 2.065 . S
C843 C47 1.893 . S
C861 C8 1.902 . S
C865 C430 2.095 . S
