# Generated by pormake.
# Topology pth, (4,4)-cn, num edge types: 1
# Building blocks:
#     Node 0, Type 0, BuildingBlock: UXUYUI_clean_sbu_0, # of connection points: 4
#     Node 1, Type 0, BuildingBlock: UXUYUI_clean_sbu_0, # of connection points: 4
#     Node 2, Type 0, BuildingBlock: UXUYUI_clean_sbu_0, # of connection points: 4
#     Node 3, Type 1, BuildingBlock: NAWXER_clean_linker_0, # of connection points: 4
#     Node 4, Type 1, BuildingBlock: NAWXER_clean_linker_0, # of connection points: 4
#     Node 5, Type 1, BuildingBlock: NAWXER_clean_linker_0, # of connection points: 4
#     Edge 6, Type (0, 1), BuildingBlock: UVAHIK_clean_linker_0, # of connection points: 2
#     Edge 7, Type (0, 1), BuildingBlock: UVAHIK_clean_linker_0, # of connection points: 2
#     Edge 8, Type (0, 1), BuildingBlock: UVAHIK_clean_linker_0, # of connection points: 2
#     Edge 9, Type (0, 1), BuildingBlock: UVAHIK_clean_linker_0, # of connection points: 2
#     Edge 10, Type (0, 1), BuildingBlock: UVAHIK_clean_linker_0, # of connection points: 2
#     Edge 11, Type (0, 1), BuildingBlock: UVAHIK_clean_linker_0, # of connection points: 2
#     Edge 12, Type (0, 1), BuildingBlock: UVAHIK_clean_linker_0, # of connection points: 2
#     Edge 13, Type (0, 1), BuildingBlock: UVAHIK_clean_linker_0, # of connection points: 2
#     Edge 14, Type (0, 1), BuildingBlock: UVAHIK_clean_linker_0, # of connection points: 2
#     Edge 15, Type (0, 1), BuildingBlock: UVAHIK_clean_linker_0, # of connection points: 2
#     Edge 16, Type (0, 1), BuildingBlock: UVAHIK_clean_linker_0, # of connection points: 2
#     Edge 17, Type (0, 1), BuildingBlock: UVAHIK_clean_linker_0, # of connection points: 2
# Relax obj value: 0.074
# Max RMSD: 0.209
# Mean RMSD: 0.112
data_MOF--net-pth--node1-UXUYUI_clean_sbu_0--node2-NAWXER_clean_linker_0--edge1-UVAHIK_clean_linker_0
_symmetry_space_group_name_H-M    P1
_symmetry_Int_Tables_number       1
_symmetry_cell_setting            triclinic
loop_
_symmetry_equiv_pos_as_xyz
'x, y, z'
_cell_length_a     41.609877
_cell_length_b     41.581957
_cell_length_c     94.473146
_cell_angle_alpha  90.008479
_cell_angle_beta   90.038115
_cell_angle_gamma 120.042
loop_
_atom_site_label
_atom_site_type_symbol
_atom_site_fract_x
_atom_site_fract_y
_atom_site_fract_z
_atom_type_partial_charge
Li0 Li 0.02582 0.02397 0.03985 0.0
Li1 Li 0.98618 0.01832 0.05942 0.0
Li2 Li 0.00632 0.97264 0.05569 0.0
Li3 Li 0.96054 0.97302 0.03995 0.0
C4 C 0.0739 0.05083 0.06207 0.0
N5 N 0.14866 0.10189 0.06494 0.0
C6 C 0.08537 0.08422 0.06929 0.0
C7 C 0.1005 0.04329 0.05646 0.0
C8 C 0.12328 0.1097 0.0706 0.0
C9 C 0.13814 0.06948 0.05797 0.0
C10 C 0.98809 0.06325 0.03625 0.0
C11 C 0.98118 0.10693 0.0216 0.0
N12 N 0.00557 0.13518 0.03003 0.0
C13 C 0.013 0.0927 0.04478 0.0
C14 C 0.97197 0.07038 0.02457 0.0
C15 C 0.02151 0.12886 0.04147 0.0
C16 C 0.06521 0.04456 0.01436 0.0
N17 N 0.06378 0.05778 0.02736 0.0
C18 C 0.11335 0.11819 0.02126 0.0
C19 C 0.08712 0.09387 0.03093 0.0
C20 C 0.11545 0.10533 0.00774 0.0
C21 C 0.09102 0.06792 0.00435 0.0
H22 H 0.04598 0.01588 0.0117 0.0
H23 H 0.08512 0.10413 0.04118 0.0
C24 C 0.99307 0.04892 0.08618 0.0
N25 N 0.97537 0.04376 0.07359 0.0
C26 C 0.98953 0.07041 0.09672 0.0
C27 C 0.9479 0.07914 0.08141 0.0
C28 C 0.95249 0.05768 0.07111 0.0
C29 C 0.96721 0.08634 0.09429 0.0
H30 H 0.01079 0.03714 0.08787 0.0
H31 H 0.93867 0.05304 0.06099 0.0
C32 C 0.01565 0.94567 0.0314 0.0
N33 N 0.03601 0.89337 0.02515 0.0
C34 C 0.98862 0.90819 0.03011 0.0
C35 C 0.05298 0.95663 0.02924 0.0
C36 C -0.00052 0.88215 0.02702 0.0
C37 C 0.06273 0.92976 0.02616 0.0
C38 C 0.921 0.95303 0.06534 0.0
C39 C 0.9056 0.92812 0.07659 0.0
C40 C 0.90077 0.96777 0.05904 0.0
C41 C 0.87011 0.91837 0.0814 0.0
C42 C 0.86539 0.95735 0.06416 0.0
N43 N 0.85092 0.93308 0.07514 0.0
C44 C 0.04866 0.95044 0.07284 0.0
C45 C 0.98964 0.90284 0.06504 0.0
C46 C 0.05364 0.9248 0.0807 0.0
N47 N 0.01701 0.93902 0.06523 0.0
C48 C 0.99357 0.87628 0.07261 0.0
C49 C 0.02573 0.88723 0.08071 0.0
H50 H 0.06955 0.97949 0.07315 0.0
H51 H 0.96428 0.8948 0.05925 0.0
C52 C 0.91397 0.95531 0.01614 0.0
N53 N 0.91879 0.94218 0.02864 0.0
C54 C 0.88525 0.93193 0.00704 0.0
C55 C 0.86692 0.88209 0.02395 0.0
C56 C 0.89577 0.90653 0.03276 0.0
C57 C 0.86162 0.89454 0.01078 0.0
H58 H 0.93302 0.98369 0.01309 0.0
H59 H 0.90066 0.89675 0.0427 0.0
O60 O 0.03687 0.02564 0.06057 0.0
O61 O 0.97937 0.02758 0.03927 0.0
O62 O 0.00557 0.97152 0.03458 0.0
O63 O 0.95574 0.96279 0.06057 0.0
H64 H 0.06529 0.09059 0.07376 0.0
H65 H 0.09216 0.01749 0.05099 0.0
H66 H 0.13252 0.13571 0.07609 0.0
H67 H 0.15898 0.06403 0.05362 0.0
H68 H 0.96893 0.11284 0.01258 0.0
H69 H 0.02577 0.08774 0.05383 0.0
H70 H 0.95251 0.04794 0.01787 0.0
H71 H 0.04083 0.15189 0.04798 0.0
H72 H 0.13117 0.14697 0.02424 0.0
H73 H 0.09185 0.05679 0.99408 0.0
H74 H 0.00448 0.07494 0.10659 0.0
H75 H 0.93062 0.09115 0.0791 0.0
H76 H 0.9596 0.89923 0.03163 0.0
H77 H 0.0742 0.98558 0.02982 0.0
H78 H 0.97886 0.85301 0.02613 0.0
H79 H 0.09153 0.93785 0.02452 0.0
H80 H 0.92093 0.91645 0.08156 0.0
H81 H 0.91217 0.98702 0.0503 0.0
H82 H 0.85784 0.89913 0.09011 0.0
H83 H 0.84943 0.96856 0.05939 0.0
H84 H 0.0788 0.93432 0.08683 0.0
H85 H 0.97106 0.84773 0.07258 0.0
H86 H 0.88195 0.94291 -0.00291 0.0
H87 H 0.8499 0.85342 0.0272 0.0
Li88 Li 0.98602 0.96564 0.37047 0.0
Li89 Li 0.02938 0.0083 0.38797 0.0
Li90 Li 0.96483 0.99341 0.38762 0.0
Li91 Li 0.0082 0.03202 0.36934 0.0
C92 C 0.97627 0.92397 0.39264 0.0
N93 N 0.96116 0.85132 0.39397 0.0
C94 C 0.00469 0.91632 0.3956 0.0
C95 C 0.94013 0.89467 0.39044 0.0
C96 C -0.00351 0.8794 0.39621 0.0
C97 C 0.93307 0.85814 0.39113 0.0
C98 C 0.05771 0.02396 0.35583 0.0
C99 C 0.10787 0.0776 0.3445 0.0
N100 N 0.09609 0.06064 0.33171 0.0
C101 C 0.04612 0.00705 0.34257 0.0
C102 C 0.08887 0.0595 0.35682 0.0
C103 C 0.06591 0.02605 0.33051 0.0
C104 C 0.94412 0.906 0.35122 0.0
N105 N 0.97497 0.9232 0.35948 0.0
C106 C -0.0042 0.88248 0.35125 0.0
C107 C 0.00069 0.91221 0.3596 0.0
C108 C 0.9644 0.86428 0.34251 0.0
C109 C 0.93825 0.87625 0.34258 0.0
H110 H 0.9245 0.91581 0.35113 0.0
H111 H 0.02542 0.92709 0.36601 0.0
C112 C 0.06049 0.00633 0.41395 0.0
N113 N 0.0689 0.01636 0.40018 0.0
C114 C 0.08787 0.00942 0.42328 0.0
C115 C 0.1322 0.03358 0.40409 0.0
C116 C 0.10389 0.02991 0.39512 0.0
C117 C 0.12426 0.02286 0.41836 0.0
H118 H 0.03224 0.99512 0.4176 0.0
H119 H 0.10967 0.03726 0.38408 0.0
C120 C 0.92228 0.98559 0.36592 0.0
N121 N 0.85218 0.97744 0.3653 0.0
C122 C 0.91782 0.01594 0.36269 0.0
C123 C 0.89107 0.95107 0.36877 0.0
C124 C 0.88215 0.01125 0.36244 0.0
C125 C 0.85588 0.94753 0.36844 0.0
C126 C 0.02971 0.06336 0.40101 0.0
C127 C 0.01331 0.05602 0.41441 0.0
C128 C 0.06707 0.0905 0.39949 0.0
C129 C 0.03464 0.07592 0.42609 0.0
C130 C 0.08748 0.10973 0.41143 0.0
N131 N 0.07098 0.10211 0.42437 0.0
C132 C 0.90696 0.9583 0.40793 0.0
C133 C 0.91676 0.01555 0.39872 0.0
C134 C 0.87919 0.95589 0.41692 0.0
N135 N 0.92502 0.98783 0.3991 0.0
C136 C 0.88901 0.01412 0.4074 0.0
C137 C 0.87005 0.9842 0.41679 0.0
H138 H 0.91469 0.93708 0.40823 0.0
H139 H 0.93213 0.03906 0.39178 0.0
C140 C 0.00541 0.06245 0.34336 0.0
N141 N 0.01983 0.07161 0.35662 0.0
C142 C 0.01083 0.09012 0.33373 0.0
C143 C 0.04689 0.13623 0.35146 0.0
C144 C 0.04045 0.10759 0.3608 0.0
C145 C 0.0315 0.12765 0.33778 0.0
H146 H 0.98887 0.03351 0.3404 0.0
H147 H 0.05144 0.11405 0.37142 0.0
O148 O 0.98386 0.95994 0.39171 0.0
O149 O 0.03815 0.00622 0.36773 0.0
O150 O 0.95702 0.98974 0.36646 0.0
O151 O 0.00952 0.04362 0.38949 0.0
H152 H 0.03289 0.9386 0.39721 0.0
H153 H 0.91784 0.90009 0.38809 0.0
H154 H 0.01824 0.87307 0.39842 0.0
H155 H 0.90527 0.83521 0.38936 0.0
H156 H 0.13186 0.1052 0.3451 0.0
H157 H 0.02187 0.97974 0.34157 0.0
H158 H 0.0979 0.07324 0.36696 0.0
H159 H 0.05717 0.01336 0.32018 0.0
H160 H 0.017 0.87463 0.35129 0.0
H161 H 0.91368 0.86291 0.33598 0.0
H162 H 0.0803 0.00022 0.43411 0.0
H163 H 0.15993 0.04442 0.39987 0.0
H164 H 0.94164 0.04296 0.3606 0.0
H165 H 0.89402 0.92735 0.37137 0.0
H166 H 0.8783 0.03453 0.36002 0.0
H167 H 0.83151 0.92102 0.3707 0.0
H168 H 0.98454 0.03495 0.41583 0.0
H169 H 0.08038 0.09614 0.38924 0.0
H170 H 0.02234 0.07044 0.43652 0.0
H171 H 0.11648 0.13059 0.41041 0.0
H172 H 0.8658 0.93265 0.42414 0.0
H173 H 0.88263 0.03633 0.40679 0.0
H174 H -0.00214 0.08205 0.32342 0.0
H175 H 0.06344 0.16473 0.35498 0.0
Li176 Li 0.02028 0.98844 0.70644 0.0
Li177 Li 0.0173 0.03096 0.72333 0.0
Li178 Li 0.97474 0.96426 0.72585 0.0
Li179 Li 0.96592 -0.00065 0.70727 0.0
C180 C 0.04185 0.96768 0.73117 0.0
N181 N 0.06579 0.91955 0.73961 0.0
C182 C 0.06718 0.97736 0.7423 0.0
C183 C 0.0287 0.93356 0.72432 0.0
C184 C 0.07896 0.95265 0.74641 0.0
C185 C 0.04113 0.9096 0.72875 0.0
C186 C 0.04247 0.07134 0.70007 0.0
C187 C 0.05474 0.13441 0.69866 0.0
N188 N 0.09111 0.14625 0.69601 0.0
C189 C 0.07986 0.08406 0.69717 0.0
C190 C 0.02968 0.09663 0.70067 0.0
C191 C 0.10406 0.12206 0.69522 0.0
C192 C 0.04136 0.9653 0.68171 0.0
N193 N 0.05298 0.98164 0.69459 0.0
C194 C 0.11469 0.99446 0.69002 0.0
C195 C 0.0887 0.99585 0.69892 0.0
C196 C 0.10367 0.97816 0.67657 0.0
C197 C 0.06637 0.96295 0.67251 0.0
H198 H 0.01294 0.95499 0.67845 0.0
H199 H 0.09722 0.00917 0.70915 0.0
C200 C 0.03616 0.09007 0.74302 0.0
N201 N 0.04917 0.07424 0.73377 0.0
C202 C 0.06074 0.1188 0.75191 0.0
C203 C 0.11148 0.11472 0.74132 0.0
C204 C 0.08596 0.08599 0.73275 0.0
C205 C 0.09892 0.13098 0.75131 0.0
H206 H 0.00665 0.07941 0.74393 0.0
H207 H 0.09535 0.07215 0.72557 0.0
C208 C 0.93704 0.91672 0.70317 0.0
N209 N 0.87818 0.84558 0.69915 0.0
C210 C 0.9023 0.90631 0.70895 0.0
C211 C 0.94195 0.89083 0.69544 0.0
C212 C 0.87286 0.87026 0.70679 0.0
C213 C 0.91182 0.85503 0.69349 0.0
C214 C 0.9353 0.01181 0.73031 0.0
C215 C 0.90157 0.98375 0.73575 0.0
C216 C 0.93942 0.04653 0.72718 0.0
C217 C 0.87241 0.99079 0.7378 0.0
C218 C 0.90959 0.05246 0.72936 0.0
N219 N 0.87697 0.0247 0.73457 0.0
C220 C 0.94486 0.93823 0.75224 0.0
C221 C 0.93742 0.8895 0.73712 0.0
C222 C 0.92287 0.91281 0.76257 0.0
N223 N 0.95043 0.9262 0.73962 0.0
C224 C 0.91515 0.863 0.74716 0.0
C225 C 0.90665 0.87459 0.7599 0.0
H226 H 0.95625 0.96766 0.75405 0.0
H227 H 0.94309 0.8806 0.72715 0.0
C228 C 0.94374 0.02329 0.68323 0.0
N229 N 0.93076 0.00304 0.69532 0.0
C230 C 0.91921 0.02517 0.67361 0.0
C231 C 0.86841 0.98545 0.68906 0.0
C232 C 0.89387 0.98443 0.69837 0.0
C233 C 0.88093 0.00568 0.67641 0.0
H234 H 0.97311 0.03738 0.68091 0.0
H235 H 0.88391 0.96831 0.70792 0.0
O236 O 0.0301 0.99166 0.72708 0.0
O237 O 0.01845 0.03429 0.70223 0.0
O238 O 0.96641 0.95171 0.70534 0.0
O239 O 0.96421 0.00546 0.72821 0.0
H240 H 0.07763 0.00373 0.74769 0.0
H241 H 0.00917 0.92563 0.71567 0.0
H242 H 0.09857 0.95977 0.75501 0.0
H243 H 0.03117 0.88309 0.72355 0.0
H244 H 0.04525 0.15431 0.69916 0.0
H245 H 0.09019 0.06487 0.69656 0.0
H246 H 0.00071 0.08718 0.7026 0.0
H247 H 0.13314 0.13232 0.69308 0.0
H248 H 0.14317 0.00631 0.69355 0.0
H249 H 0.05697 0.95058 0.66215 0.0
H250 H 0.04978 0.13011 0.7596 0.0
H251 H 0.14066 0.12349 0.74036 0.0
H252 H 0.89844 0.92548 0.71543 0.0
H253 H 0.96879 0.89818 0.69107 0.0
H254 H 0.84588 0.8618 0.71128 0.0
H255 H 0.91522 0.83473 0.68753 0.0
H256 H 0.89767 0.95662 0.73818 0.0
H257 H 0.96539 0.06868 0.72314 0.0
H258 H 0.8461 0.96924 0.7419 0.0
H259 H 0.91239 0.07917 0.72693 0.0
H260 H 0.91776 0.92296 0.77239 0.0
H261 H 0.90328 0.83379 0.74469 0.0
H262 H 0.92998 0.04077 0.6639 0.0
H263 H 0.83917 0.9704 0.69172 0.0
C264 C 0.9739 0.37765 0.23793 0.0
C265 C 0.00311 0.39045 0.24776 0.0
C266 C 0.96938 0.40281 0.22955 0.0
C267 C -0.00536 0.44111 0.2306 0.0
C268 C 0.02752 0.42883 0.24915 0.0
C269 C 0.02329 0.4539 0.24065 0.0
C270 C 0.99137 0.46831 0.22153 0.0
C271 C 0.00855 0.39231 0.19253 0.0
C272 C 0.97965 0.37356 0.18271 0.0
C273 C 0.01139 0.42231 0.20025 0.0
C274 C 0.98479 0.4334 0.19852 0.0
C275 C 0.95372 0.38539 0.18072 0.0
C276 C 0.95631 0.41506 0.18855 0.0
C277 C 0.9868 0.46472 0.20667 0.0
C278 C 0.0208 0.6163 0.18895 0.0
C279 C -0.00418 0.60735 0.17761 0.0
C280 C 0.01742 0.5888 0.19831 0.0
C281 C 0.98887 0.55184 0.19657 0.0
C282 C 0.96706 0.57034 0.17598 0.0
C283 C 0.96381 0.54283 0.18531 0.0
C284 C 0.98699 0.52212 0.20571 0.0
C285 C 0.95771 0.58944 0.23449 0.0
C286 C 0.98274 0.60723 0.24567 0.0
C287 C 0.9605 0.56325 0.22612 0.0
C288 C 0.98852 0.55454 0.22873 0.0
C289 C 0.01087 0.5986 0.24821 0.0
C290 C 0.01356 0.57231 0.23987 0.0
C291 C 0.99011 0.52499 0.22059 0.0
H292 H 0.95431 0.34822 0.23684 0.0
H293 H 0.94627 0.39231 0.22223 0.0
H294 H 0.05034 0.43942 0.25662 0.0
H295 H 0.04287 0.48335 0.24175 0.0
H296 H 0.02928 0.38416 0.19408 0.0
H297 H 0.03437 0.43685 0.20752 0.0
H298 H 0.93109 0.37133 0.17326 0.0
H299 H 0.93572 0.42339 0.18694 0.0
H300 H 0.0437 0.64435 0.19035 0.0
H301 H 0.03782 0.59626 0.20665 0.0
H302 H 0.94708 0.56259 0.16747 0.0
H303 H 0.94175 0.51443 0.18372 0.0
H304 H 0.93584 0.59563 0.23225 0.0
H305 H 0.94021 0.54921 0.21783 0.0
H306 H 0.03023 0.61145 0.25688 0.0
H307 H 0.0351 0.56568 0.24218 0.0
N308 N 0.99274 0.49827 0.2279 0.0
N309 N 0.98489 0.49183 0.19935 0.0
C310 C 0.61243 0.01159 0.52381 0.0
C311 C 0.60164 0.98465 0.51308 0.0
C312 C 0.58586 0.01298 0.53242 0.0
C313 C 0.548 0.98696 0.53066 0.0
C314 C 0.56365 0.95899 0.51124 0.0
C315 C 0.53715 0.96021 0.51992 0.0
C316 C 0.51925 0.98864 0.53931 0.0
C317 C 0.58946 0.9672 0.56992 0.0
C318 C 0.60811 0.99589 0.57986 0.0
C319 C 0.56118 0.96593 0.56152 0.0
C320 C 0.55128 0.9935 0.56283 0.0
C321 C 0.59779 0.02317 0.58124 0.0
C322 C 0.5695 0.02184 0.57287 0.0
C323 C 0.52116 0.99246 0.5542 0.0
C324 C 0.36902 0.96644 0.56875 0.0
C325 C 0.3783 0.99056 0.58041 0.0
C326 C 0.39673 0.96726 0.56016 0.0
C327 C 0.43432 0.99284 0.56283 0.0
C328 C 0.416 0.01576 0.58316 0.0
C329 C 0.44366 0.01683 0.57448 0.0
C330 C 0.46413 0.99311 0.55418 0.0
C331 C 0.40095 0.02397 0.52369 0.0
C332 C 0.38305 -0.00188 0.51273 0.0
C333 C 0.42648 0.02122 0.53248 0.0
C334 C 0.43438 0.99239 0.53054 0.0
C335 C 0.39104 0.96929 0.51086 0.0
C336 C 0.41665 0.96663 0.51961 0.0
C337 C 0.46278 0.99032 0.53926 0.0
H338 H 0.64144 0.03166 0.52558 0.0
H339 H 0.59493 0.03468 0.54032 0.0
H340 H 0.55425 0.93837 0.50289 0.0
H341 H 0.50805 0.94022 0.51822 0.0
H342 H 0.59685 0.94584 0.56859 0.0
H343 H 0.54692 0.94331 0.55407 0.0
H344 H 0.61116 0.04523 0.58898 0.0
H345 H 0.56198 0.04313 0.57416 0.0
H346 H 0.34031 0.94683 0.56624 0.0
H347 H 0.38869 0.94747 0.55157 0.0
H348 H 0.42426 0.03421 0.59221 0.0
H349 H 0.47247 0.03639 0.57691 0.0
H350 H 0.39596 0.0469 0.52526 0.0
H351 H 0.44062 0.04206 0.54059 0.0
H352 H 0.37742 0.94866 0.50263 0.0
H353 H 0.42254 0.94432 0.51789 0.0
N354 N 0.49012 0.98773 0.53245 0.0
N355 N 0.49353 0.99452 0.56104 0.0
C356 C 0.39006 0.38151 0.85755 0.0
C357 C 0.37375 0.39342 0.84729 0.0
C358 C 0.41917 0.40729 0.866 0.0
C359 C 0.43206 0.44544 0.86454 0.0
C360 C 0.38737 0.43172 0.84566 0.0
C361 C 0.4163 0.45744 0.85417 0.0
C362 C 0.4627 0.47323 0.87341 0.0
C363 C 0.36892 0.40171 0.90305 0.0
C364 C 0.37827 0.3818 0.91264 0.0
C365 C 0.39651 0.43086 0.89514 0.0
C366 C 0.43383 0.44038 0.89661 0.0
C367 C 0.41576 0.39194 0.91426 0.0
C368 C 0.44326 0.42107 0.90637 0.0
C369 C 0.46349 0.47087 0.88831 0.0
C370 C 0.58816 0.62274 0.90383 0.0
C371 C 0.60172 0.61361 0.91588 0.0
C372 C 0.56234 0.59486 0.89498 0.0
C373 C 0.55023 0.55731 0.89783 0.0
C374 C 0.58922 0.57605 0.91884 0.0
C375 C 0.56368 0.54817 0.9099 0.0
C376 C 0.5216 0.5274 0.88889 0.0
C377 C 0.61952 0.58996 0.86034 0.0
C378 C 0.61364 0.60869 0.84915 0.0
C379 C 0.58971 0.56415 0.86847 0.0
C380 C 0.5535 0.5568 0.86563 0.0
C381 C 0.57731 0.60095 0.84623 0.0
C382 C 0.54749 0.57505 0.85434 0.0
C383 C 0.52165 0.52883 0.87395 0.0
H384 H 0.38016 0.35223 0.85914 0.0
H385 H 0.43162 0.39737 0.87364 0.0
H386 H 0.37602 0.44191 0.83766 0.0
H387 H 0.4262 0.48679 0.85272 0.0
H388 H 0.34027 0.3945 0.90156 0.0
H389 H 0.3887 0.44595 0.88788 0.0
H390 H 0.42391 0.37762 0.92175 0.0
H391 H 0.47196 0.42829 0.90778 0.0
H392 H 0.59678 0.65142 0.90145 0.0
H393 H 0.55131 0.60269 0.88609 0.0
H394 H 0.59935 0.56826 0.92804 0.0
H395 H 0.55443 0.51941 0.91242 0.0
H396 H 0.64721 0.59543 0.86287 0.0
H397 H 0.59492 0.5497 0.87691 0.0
H398 H 0.57184 0.61451 0.83753 0.0
H399 H 0.51972 0.56942 0.85185 0.0
N400 N 0.4919 0.50207 0.86681 0.0
N401 N 0.49281 0.49811 0.89547 0.0
C402 C 0.93206 0.1099 0.10836 0.0
C403 C 0.96586 0.11209 0.10479 0.0
C404 C 0.93132 0.13531 0.11785 0.0
C405 C 0.98853 0.20617 0.14495 0.0
H406 H 0.92328 0.24506 0.13645 0.0
C407 C 0.97981 0.31349 0.18116 0.0
C408 C 0.97661 0.34189 0.17446 0.0
C409 C 0.97637 0.28335 0.17337 0.0
C410 C 0.94189 0.2347 0.13892 0.0
H411 H 0.02536 0.14269 0.10822 0.0
H412 H 0.02425 0.1874 0.12451 0.0
H413 H 0.92166 0.19651 0.12161 0.0
H414 H 0.96805 0.36153 0.15435 0.0
H415 H 0.96297 0.30954 0.14066 0.0
H416 H 0.01003 0.24563 0.16184 0.0
C417 C -0.00186 0.16553 0.12034 0.0
C418 C 0.94055 0.20641 0.13053 0.0
C419 C -0.00118 0.13996 0.11096 0.0
C420 C 0.97015 0.33974 0.15981 0.0
C421 C 0.96706 0.30984 0.15199 0.0
C422 C 0.99009 0.23468 0.15327 0.0
C423 C 0.96442 0.16366 0.12386 0.0
C424 C 0.96414 0.19206 0.13334 0.0
C425 C 0.97001 0.28119 0.15868 0.0
C426 C 0.96706 0.24958 0.15027 0.0
H427 H 0.9062 0.08844 0.10385 0.0
H428 H 0.90479 0.1327 0.12049 0.0
H429 H 0.00669 0.19538 0.14756 0.0
H430 H 0.98436 0.31427 0.19248 0.0
H431 H 0.97825 0.26154 0.1789 0.0
C432 C 0.80951 0.94953 0.42995 0.0
C433 C 0.84178 0.98323 0.42668 0.0
C434 C 0.78318 0.94884 0.43933 0.0
C435 C 0.74919 0.00787 0.45409 0.0
H436 H 0.70962 0.935 0.48427 0.0
C437 C 0.66021 0.01714 0.49873 0.0
C438 C 0.6297 0.98388 0.50357 0.0
C439 C 0.68599 0.01646 0.48947 0.0
C440 C 0.72 0.95522 0.47579 0.0
H441 H 0.87196 0.04249 0.431 0.0
H442 H 0.82569 0.04127 0.44707 0.0
H443 H 0.7541 0.93441 0.46759 0.0
H444 H 0.60291 0.92376 0.50265 0.0
H445 H 0.64715 0.92257 0.48613 0.0
H446 H 0.71487 0.02844 0.46207 0.0
C447 C 0.82064 0.01549 0.44227 0.0
C448 C 0.74551 0.95489 0.46626 0.0
C449 C 0.84708 0.01616 0.43301 0.0
C450 C 0.6258 0.94991 0.499 0.0
C451 C 0.65147 0.94923 0.48966 0.0
C452 C 0.72348 0.00802 0.46353 0.0
C453 C 0.78844 0.98185 0.44553 0.0
C454 C 0.76054 0.98137 0.45538 0.0
C455 C 0.68179 0.9825 0.48472 0.0
C456 C 0.70875 0.98187 0.47456 0.0
H457 H 0.80429 0.92373 0.42513 0.0
H458 H 0.7584 0.92256 0.44155 0.0
H459 H 0.75994 0.02827 0.44567 0.0
H460 H 0.66388 0.04381 0.50188 0.0
H461 H 0.70931 0.04263 0.48606 0.0
C462 C 0.87789 0.81372 0.77301 0.0
C463 C 0.87882 0.84721 0.76984 0.0
C464 C 0.8503 0.78744 0.78187 0.0
C465 C 0.75599 0.75804 0.79452 0.0
H466 H 0.77807 0.70767 0.82423 0.0
C467 C 0.64776 0.66974 0.83653 0.0
C468 C 0.64522 0.63595 0.84043 0.0
C469 C 0.67703 0.69512 0.82808 0.0
C470 C 0.77141 0.72119 0.81587 0.0
H471 H 0.85141 0.87924 0.77342 0.0
H472 H 0.80388 0.83383 0.789 0.0
H473 H 0.82809 0.75252 0.80908 0.0
H474 H 0.67132 0.60223 0.83854 0.0
H475 H 0.72238 0.64651 0.8237 0.0
H476 H 0.69942 0.72679 0.80119 0.0
C477 C 0.82427 0.82774 0.78459 0.0
C478 C 0.80004 0.74686 0.80721 0.0
C479 C 0.85182 0.85397 0.77581 0.0
C480 C 0.67278 0.62825 0.83583 0.0
C481 C 0.70203 0.65361 0.82734 0.0
C482 C 0.72742 0.73237 0.80312 0.0
C483 C 0.82298 0.79405 0.78762 0.0
C484 C 0.79265 0.76579 0.79653 0.0
C485 C 0.70435 0.68725 0.8233 0.0
C486 C 0.73481 0.71388 0.81398 0.0
H487 H 0.89845 0.80783 0.76862 0.0
H488 H 0.84987 0.76162 0.78397 0.0
H489 H 0.74931 0.77166 0.7862 0.0
H490 H 0.62728 0.67672 0.84011 0.0
H491 H 0.67839 0.72109 0.82539 0.0
C492 C 0.0402 0.86844 0.10395 0.0
C493 C 0.02876 0.85984 0.08979 0.0
C494 C 0.03959 0.84148 0.11294 0.0
C495 C 0.99373 0.73969 0.11679 0.0
H496 H 0.06735 0.76362 0.14621 0.0
C497 C -0.00505 0.62811 0.15273 0.0
C498 C 0.00049 0.63631 0.16727 0.0
C499 C -0.0001 0.65544 0.14297 0.0
C500 C 0.04646 0.75663 0.1381 0.0
H501 H 0.00949 0.81691 0.07373 0.0
H502 H 0.00903 0.76994 0.08934 0.0
H503 H 0.07491 0.81149 0.1294 0.0
H504 H 0.01514 0.67961 0.18296 0.0
H505 H 0.02413 0.72741 0.16588 0.0
H506 H 0.96534 0.68483 0.12549 0.0
C507 C 0.01759 0.79724 0.09361 0.0
C508 C 0.05076 0.78402 0.12848 0.0
C509 C 0.01798 0.82414 0.08466 0.0
C510 C 0.01117 0.67251 0.17182 0.0
C511 C 0.01632 0.69989 0.16204 0.0
C512 C 0.98956 0.71228 0.12635 0.0
C513 C 0.02773 0.80538 0.10793 0.0
C514 C 0.0243 0.77593 0.11776 0.0
C515 C 0.01071 0.69161 0.14752 0.0
C516 C 0.01573 0.72053 0.13717 0.0
H517 H 0.04818 0.89558 0.10825 0.0
H518 H 0.0471 0.84857 0.12394 0.0
H519 H 0.97244 0.73265 0.10884 0.0
H520 H 0.98742 0.60073 0.14883 0.0
H521 H -0.00417 0.64839 0.13182 0.0
C522 C 0.1551 0.03426 0.44217 0.0
C523 C 0.15318 0.02391 0.42789 0.0
C524 C 0.18085 0.03299 0.45131 0.0
C525 C 0.23771 0.98814 0.45519 0.0
H526 H 0.28917 0.06353 0.4839 0.0
C527 C 0.35699 0.99508 0.4885 0.0
C528 C 0.35682 0.00171 0.50308 0.0
C529 C 0.33243 -0.00154 0.47938 0.0
C530 C 0.27472 0.0421 0.47602 0.0
H531 H 0.17718 0.0045 0.412 0.0
H532 H 0.22275 0.00337 0.42782 0.0
H533 H 0.24649 0.06913 0.4677 0.0
H534 H 0.33047 0.01684 0.51953 0.0
H535 H 0.28773 0.02304 0.50356 0.0
H536 H 0.26608 0.96123 0.46345 0.0
C537 C 0.20394 0.01189 0.43202 0.0
C538 C 0.25028 0.04528 0.46674 0.0
C539 C 0.17814 0.01305 0.42289 0.0
C540 C 0.33164 0.01202 0.50833 0.0
C541 C 0.30716 0.01555 0.49919 0.0
C542 C 0.26224 0.98505 0.46441 0.0
C543 C 0.20531 0.02141 0.44637 0.0
C544 C 0.23153 0.01835 0.45621 0.0
C545 C 0.30724 0.0087 0.48463 0.0
C546 C 0.28103 0.012 0.47492 0.0
H547 H 0.13656 0.04317 0.44631 0.0
H548 H 0.18098 0.04025 0.46233 0.0
H549 H 0.22316 0.96651 0.44739 0.0
H550 H 0.3765 0.9878 0.48406 0.0
H551 H 0.33353 0.99357 0.46818 0.0
C552 C 0.15358 0.15389 0.76759 0.0
C553 C 0.12526 0.15862 0.76162 0.0
C554 C 0.17819 0.1793 0.77742 0.0
C555 C 0.21614 0.2753 0.79032 0.0
H556 H 0.24891 0.23904 0.82183 0.0
C557 C 0.31318 0.37135 0.83456 0.0
C558 C 0.34303 0.36609 0.83819 0.0
C559 C 0.28468 0.34599 0.82578 0.0
C560 C 0.24015 0.24957 0.81304 0.0
H561 H 0.10065 0.19389 0.76134 0.0
H562 H 0.14329 0.23798 0.77881 0.0
H563 H 0.20212 0.19491 0.80557 0.0
H564 H 0.36639 0.33013 0.8353 0.0
H565 H 0.3164 0.28567 0.82017 0.0
H566 H 0.2543 0.33004 0.79787 0.0
C567 C 0.14668 0.21479 0.7757 0.0
C568 C 0.21341 0.22433 0.8037 0.0
C569 C 0.12204 0.18934 0.76579 0.0
C570 C 0.34352 0.33471 0.83293 0.0
C571 C 0.31492 0.30925 0.82424 0.0
C572 C 0.24277 0.30058 0.79972 0.0
C573 C 0.175 0.20998 0.78164 0.0
C574 C 0.20151 0.23689 0.7921 0.0
C575 C 0.28528 0.31469 0.82053 0.0
C576 C 0.25542 0.28795 0.81106 0.0
H577 H 0.15652 0.13022 0.76482 0.0
H578 H 0.19999 0.17502 0.78162 0.0
H579 H 0.20788 0.28592 0.78141 0.0
H580 H 0.31162 0.39489 0.83861 0.0
H581 H 0.26195 0.35064 0.82322 0.0
C582 C 0.8608 0.03807 0.65911 0.0
C583 C 0.85397 0.00536 0.66605 0.0
C584 C 0.83498 0.03755 0.64948 0.0
C585 C 0.7359 0.98216 0.63956 0.0
H586 H 0.76824 0.03829 0.60459 0.0
C587 C 0.63304 0.96439 0.59534 0.0
C588 C 0.63766 -0.00299 0.589 0.0
C589 C 0.66016 0.96567 0.60441 0.0
C590 C 0.75882 0.02274 0.61438 0.0
H591 H 0.81533 0.94625 0.668 0.0
H592 H 0.7705 0.94527 0.6512 0.0
H593 H 0.81433 0.04034 0.62114 0.0
H594 H 0.67481 0.05638 0.58691 0.0
H595 H 0.72201 0.05868 0.6029 0.0
H596 H 0.68044 0.96447 0.6328 0.0
C597 C 0.79535 0.97151 0.65341 0.0
C598 C 0.78521 0.02396 0.62387 0.0
C599 C 0.82105 0.97206 0.66304 0.0
C600 C 0.67028 0.03084 0.59175 0.0
C601 C 0.69748 0.0321 0.60079 0.0
C602 C 0.70957 0.98088 0.63008 0.0
C603 C 0.80188 0.00427 0.64658 0.0
C604 C 0.77403 0.00357 0.63655 0.0
C605 C 0.69255 -0.00043 0.60732 0.0
C606 C 0.72071 0.00106 0.61736 0.0
H607 H 0.88578 0.06421 0.66131 0.0
H608 H 0.84065 0.06334 0.64452 0.0
H609 H 0.72637 0.96669 0.64936 0.0
H610 H 0.60808 0.93795 0.59352 0.0
H611 H 0.65577 0.94006 0.60916 0.0
C612 C 0.84058 0.87046 0.98614 0.0
C613 C 0.83303 0.86816 0.00073 0.0
C614 C 0.81475 0.84434 0.97677 0.0
C615 C 0.7158 0.77059 0.97353 0.0
H616 H 0.75358 0.73555 0.9433 0.0
C617 C 0.62265 0.63978 0.9402 0.0
C618 C 0.6282 0.64319 0.92549 0.0
C619 C 0.6472 0.66802 0.94925 0.0
C620 C 0.74266 0.74532 0.95161 0.0
H621 H 0.79171 0.83711 0.0168 0.0
H622 H 0.74728 0.79078 0.00053 0.0
H623 H 0.79689 0.78365 0.95935 0.0
H624 H 0.66393 0.67845 0.9087 0.0
H625 H 0.70705 0.72778 0.92455 0.0
H626 H 0.66147 0.73145 0.96591 0.0
C627 C 0.77296 0.81314 -0.00371 0.0
C628 C 0.76745 0.77299 0.96079 0.0
C629 C 0.79868 0.83946 0.00566 0.0
C630 C 0.6589 0.67524 0.92 0.0
C631 C 0.68367 0.7033 0.92906 0.0
C632 C 0.691 0.74266 0.96442 0.0
C633 C 0.78085 0.81503 0.98175 0.0
C634 C 0.75434 0.786 0.97186 0.0
C635 C 0.67798 0.70001 0.94377 0.0
C636 C 0.70421 0.72978 0.95338 0.0
H637 H 0.86689 0.89188 0.98196 0.0
H638 H 0.82152 0.84704 0.96561 0.0
H639 H 0.70474 0.78033 0.98179 0.0
H640 H 0.59902 0.61551 0.9447 0.0
H641 H 0.64234 0.66464 0.96056 0.0
C642 C 0.96835 0.80714 0.33768 0.0
C643 C 0.96023 0.83426 0.33289 0.0
C644 C 0.96779 0.78089 0.32831 0.0
C645 C 0.99107 0.74784 0.30475 0.0
H646 H 0.91838 0.70308 0.27468 0.0
C647 C 0.01026 0.66693 0.25932 0.0
C648 C 0.97882 0.63377 0.25499 0.0
C649 C 0.00672 0.69115 0.26858 0.0
C650 C 0.93873 0.71514 0.28308 0.0
H651 H 0.94433 0.85468 0.31462 0.0
H652 H 0.94361 0.80901 0.29822 0.0
H653 H 0.91255 0.74376 0.29183 0.0
H654 H 0.919 0.60003 0.25694 0.0
H655 H 0.91281 0.64221 0.27317 0.0
H656 H 0.01686 0.71874 0.29622 0.0
C657 C 0.94991 0.80767 0.30925 0.0
C658 C 0.9356 0.73873 0.29283 0.0
C659 C 0.95032 0.83384 0.31864 0.0
C660 C 0.94369 0.62562 0.25994 0.0
C661 C 0.94015 0.64979 0.26924 0.0
C662 C -0.00584 0.72425 0.29504 0.0
C663 C 0.95926 0.78129 0.31393 0.0
C664 C 0.96177 0.75539 0.30376 0.0
C665 C 0.97166 0.6827 0.27375 0.0
C666 C 0.96813 0.70772 0.28406 0.0
H667 H 0.97552 0.80644 0.34866 0.0
H668 H 0.97435 0.76045 0.33233 0.0
H669 H 0.01201 0.7606 0.31292 0.0
H670 H 0.03763 0.67421 0.25551 0.0
H671 H 0.03147 0.71661 0.27164 0.0
C672 C 0.12382 0.94653 0.659 0.0
C673 C 0.13136 0.97855 0.66663 0.0
C674 C 0.15012 0.94718 0.64962 0.0
C675 C 0.25052 0.00193 0.64074 0.0
H676 H 0.21872 0.94729 0.6054 0.0
C677 C 0.35234 0.02156 0.59574 0.0
C678 C 0.3489 0.98891 0.58985 0.0
C679 C 0.32535 0.0199 0.60498 0.0
C680 C 0.22793 0.96246 0.61529 0.0
H681 H 0.17175 0.03655 0.67018 0.0
H682 H 0.21724 0.03803 0.65361 0.0
H683 H 0.17241 0.94517 0.62181 0.0
H684 H 0.31417 0.92884 0.58912 0.0
H685 H 0.26667 0.92618 0.60496 0.0
H686 H 0.3061 0.01979 0.63403 0.0
C687 C 0.19158 0.01207 0.65514 0.0
C688 C 0.20144 0.96116 0.62472 0.0
C689 C 0.16549 0.01129 0.66461 0.0
C690 C 0.31746 0.95461 0.59325 0.0
C691 C 0.29028 0.95302 0.60237 0.0
C692 C 0.27697 0.00354 0.63125 0.0
C693 C 0.18434 0.97999 0.64757 0.0
C694 C 0.21241 0.98092 0.63757 0.0
C695 C 0.29413 0.98561 0.60841 0.0
C696 C 0.26595 0.98385 0.61843 0.0
H697 H 0.09782 0.92085 0.66046 0.0
H698 H 0.1438 0.92181 0.64414 0.0
H699 H 0.26 0.01688 0.65065 0.0
H700 H 0.37578 0.04851 0.59316 0.0
H701 H 0.32873 0.04551 0.60934 0.0
C702 C 0.13173 0.12996 0.98296 0.0
C703 C 0.14235 0.13111 -0.00284 0.0
C704 C 0.15665 0.15515 0.97311 0.0
C705 C 0.25656 0.21949 0.96692 0.0
H706 H 0.22125 0.26629 0.94047 0.0
C707 C 0.35051 0.31806 0.92314 0.0
C708 C 0.34924 0.35088 0.92111 0.0
C709 C 0.32422 0.28959 0.93165 0.0
C710 C 0.23156 0.25357 0.94783 0.0
H711 H 0.18773 0.15902 0.01209 0.0
H712 H 0.23099 0.2034 -0.00502 0.0
H713 H 0.17789 0.21988 0.95705 0.0
H714 H 0.31922 0.37947 0.92631 0.0
H715 H 0.27335 0.32979 0.94121 0.0
H716 H 0.31041 0.2539 0.95799 0.0
C717 C 0.2035 0.18282 0.99142 0.0
C718 C 0.20664 0.22669 0.95721 0.0
C719 C 0.17859 0.15767 0.00126 0.0
C720 C 0.32067 0.35433 0.92754 0.0
C721 C 0.29439 0.32586 0.93607 0.0
C722 C 0.28145 0.24634 0.95753 0.0
C723 C 0.19275 0.182 0.97726 0.0
C724 C 0.21892 0.20953 0.96693 0.0
C725 C 0.29609 0.29332 0.93833 0.0
C726 C 0.26928 0.26385 0.94794 0.0
H727 H 0.10389 0.11007 0.97949 0.0
H728 H 0.14766 0.15356 0.96225 0.0
H729 H 0.26681 0.2065 0.97417 0.0
H730 H 0.37182 0.31433 0.91813 0.0
H731 H 0.3259 0.2646 0.93298 0.0
C732 C 0.03334 0.1881 0.33332 0.0
C733 C 0.03511 0.15738 0.32804 0.0
C734 C 0.03394 0.21465 0.32411 0.0
C735 C 0.0089 0.2245 0.28816 0.0
H736 H 0.06753 0.33024 0.29557 0.0
C737 C 0.00742 0.3328 0.25034 0.0
C738 C 0.00833 0.36394 0.25654 0.0
C739 C 0.01323 0.30827 0.25859 0.0
C740 C 0.05064 0.30079 0.29344 0.0
H741 H 0.04053 0.13152 0.30891 0.0
H742 H 0.04062 0.17752 0.29284 0.0
H743 H 0.07406 0.28665 0.3109 0.0
H744 H 0.01525 0.39353 0.2762 0.0
H745 H 0.02436 0.35026 0.29069 0.0
H746 H 0.98448 0.23828 0.27101 0.0
C747 C 0.03857 0.18077 0.30412 0.0
C748 C 0.05456 0.27589 0.30218 0.0
C749 C 0.03839 0.1544 0.31333 0.0
C750 C 0.01485 0.36995 0.27114 0.0
C751 C 0.02026 0.34524 0.27941 0.0
C752 C 0.00468 0.24935 0.2795 0.0
C753 C 0.03596 0.21092 0.30942 0.0
C754 C 0.03355 0.23751 0.29968 0.0
C755 C 0.01968 0.31416 0.27323 0.0
C756 C 0.02527 0.2878 0.2821 0.0
H757 H 0.03015 0.19102 0.34454 0.0
H758 H 0.03145 0.23741 0.32847 0.0
H759 H 0.992 0.19498 0.28611 0.0
H760 H 0.00292 0.32781 0.23907 0.0
H761 H 0.01315 0.28497 0.25343 0.0
loop_
_geom_bond_atom_site_label_1
_geom_bond_atom_site_label_2
_geom_bond_distance
_geom_bond_site_symmetry_2
_ccdc_geom_bond_type
Li0 N17 1.990 . S
Li0 O60 1.956 . S
Li0 O61 1.970 1_455 S
Li0 O62 1.961 1_545 S
Li1 N25 1.990 . S
Li1 O60 1.970 1_655 S
Li1 O61 1.956 . S
Li1 O63 1.961 1_545 S
Li2 N47 1.990 . S
Li2 O60 1.961 1_565 S
Li2 O62 1.956 . S
Li2 O63 1.970 1_455 S
Li3 N53 1.990 . S
Li3 O61 1.961 1_565 S
Li3 O62 1.970 1_655 S
Li3 O63 1.956 . S
C4 C6 1.348 . S
C4 C7 1.356 . S
C4 O60 1.325 . S
N5 C8 1.314 . S
N5 C9 1.279 . S
C6 C4 1.348 . S
C6 C8 1.353 . S
C6 H64 0.929 . S
C7 C4 1.356 . S
C7 C9 1.358 . S
C7 H65 0.930 . S
C8 N5 1.314 . S
C8 C6 1.353 . S
C8 H66 0.930 . S
C9 N5 1.279 . S
C9 C7 1.358 . S
C9 H67 0.930 . S
C10 C13 1.348 1_655 S
C10 C14 1.356 . S
C10 O61 1.325 . S
C11 N12 1.279 . S
C11 C14 1.358 . S
C11 H68 0.930 . S
N12 C11 1.279 . S
N12 C15 1.314 . S
C13 C10 1.348 1_455 S
C13 C15 1.353 1_455 S
C13 H69 0.929 . S
C14 C10 1.356 . S
C14 C11 1.358 . S
C14 H70 0.930 . S
C15 N12 1.314 . S
C15 C13 1.353 1_655 S
C15 H71 0.930 1_655 S
C16 N17 1.314 . S
C16 C21 1.353 . S
C16 H22 0.930 . S
N17 Li0 1.990 . S
N17 C16 1.314 . S
N17 C19 1.279 . S
C18 C19 1.358 . S
C18 C20 1.356 . S
C18 H72 0.930 . S
C19 N17 1.279 . S
C19 C18 1.358 . S
C19 H23 0.930 . S
C20 C18 1.356 . S
C20 C21 1.348 . S
C21 C16 1.353 . S
C21 C20 1.348 . S
C21 H73 0.901 1_554 S
H22 C16 0.930 . S
H23 C19 0.930 . S
C24 N25 1.314 . S
C24 C26 1.353 . S
C24 H30 0.930 . S
N25 Li1 1.990 . S
N25 C24 1.314 . S
N25 C28 1.279 . S
C26 C24 1.353 . S
C26 C29 1.348 . S
C26 H74 0.929 . S
C27 C28 1.358 . S
C27 C29 1.356 . S
C27 H75 0.930 . S
C28 N25 1.279 . S
C28 C27 1.358 . S
C28 H31 0.930 . S
C29 C26 1.348 . S
C29 C27 1.356 . S
H30 C24 0.930 . S
H31 C28 0.930 . S
C32 C34 1.348 1_455 S
C32 C35 1.356 . S
C32 O62 1.325 . S
N33 C36 1.314 . S
N33 C37 1.279 . S
C34 C32 1.348 1_655 S
C34 C36 1.353 1_655 S
C34 H76 0.929 . S
C35 C32 1.356 . S
C35 C37 1.358 . S
C35 H77 0.930 . S
C36 N33 1.314 . S
C36 C34 1.353 1_455 S
C36 H78 0.930 1_455 S
C37 N33 1.279 . S
C37 C35 1.358 . S
C37 H79 0.930 . S
C38 C39 1.348 . S
C38 C40 1.356 . S
C38 O63 1.325 . S
C39 C38 1.348 . S
C39 C41 1.353 . S
C39 H80 0.929 . S
C40 C38 1.356 . S
C40 C42 1.358 . S
C40 H81 0.930 . S
C41 C39 1.353 . S
C41 N43 1.314 . S
C41 H82 0.930 . S
C42 C40 1.358 . S
C42 N43 1.279 . S
C42 H83 0.930 . S
N43 C41 1.314 . S
N43 C42 1.279 . S
C44 C46 1.353 . S
C44 N47 1.314 . S
C44 H50 0.930 . S
C45 N47 1.279 . S
C45 C48 1.358 . S
C45 H51 0.930 . S
C46 C44 1.353 . S
C46 C49 1.348 . S
C46 H84 0.929 . S
N47 Li2 1.990 . S
N47 C44 1.314 . S
N47 C45 1.279 . S
C48 C45 1.358 . S
C48 C49 1.356 . S
C48 H85 0.930 . S
C49 C46 1.348 . S
C49 C48 1.356 . S
H50 C44 0.930 . S
H51 C45 0.930 . S
C52 N53 1.314 . S
C52 C54 1.353 . S
C52 H58 0.930 . S
N53 Li3 1.990 . S
N53 C52 1.314 . S
N53 C56 1.279 . S
C54 C52 1.353 . S
C54 C57 1.348 . S
C54 H86 0.901 1_554 S
C55 C56 1.358 . S
C55 C57 1.356 . S
C55 H87 0.930 . S
C56 N53 1.279 . S
C56 C55 1.358 . S
C56 H59 0.930 . S
C57 C54 1.348 . S
C57 C55 1.356 . S
H58 C52 0.930 . S
H59 C56 0.930 . S
O60 Li0 1.956 . S
O60 Li1 1.970 1_455 S
O60 Li2 1.961 1_545 S
O60 C4 1.325 . S
O61 Li0 1.970 1_655 S
O61 Li1 1.956 . S
O61 Li3 1.961 1_545 S
O61 C10 1.325 . S
O62 Li0 1.961 1_565 S
O62 Li2 1.956 . S
O62 Li3 1.970 1_455 S
O62 C32 1.325 . S
O63 Li1 1.961 1_565 S
O63 Li2 1.970 1_655 S
O63 Li3 1.956 . S
O63 C38 1.325 . S
H64 C6 0.929 . S
H65 C7 0.930 . S
H66 C8 0.930 . S
H67 C9 0.930 . S
H68 C11 0.930 . S
H69 C13 0.929 . S
H70 C14 0.930 . S
H71 C15 0.930 1_455 S
H72 C18 0.930 . S
H73 C21 0.901 1_556 S
H74 C26 0.929 . S
H75 C27 0.930 . S
H76 C34 0.929 . S
H77 C35 0.930 . S
H78 C36 0.930 1_655 S
H79 C37 0.930 . S
H80 C39 0.929 . S
H81 C40 0.930 . S
H82 C41 0.930 . S
H83 C42 0.930 . S
H84 C46 0.929 . S
H85 C48 0.930 . S
H86 C54 0.901 1_556 S
H87 C55 0.930 . S
Li88 N105 1.990 . S
Li88 O148 1.956 . S
Li88 O149 1.970 1_665 S
Li88 O150 1.961 . S
Li89 N113 1.990 . S
Li89 O148 1.970 1_445 S
Li89 O149 1.956 . S
Li89 O151 1.961 . S
Li90 N135 1.990 . S
Li90 O148 1.961 . S
Li90 O150 1.956 . S
Li90 O151 1.970 1_665 S
Li91 N141 1.990 . S
Li91 O149 1.961 . S
Li91 O150 1.970 1_445 S
Li91 O151 1.956 . S
C92 C94 1.348 1_655 S
C92 C95 1.356 . S
C92 O148 1.325 . S
N93 C96 1.314 . S
N93 C97 1.279 . S
C94 C92 1.348 1_455 S
C94 C96 1.353 1_455 S
C94 H152 0.929 . S
C95 C92 1.356 . S
C95 C97 1.358 . S
C95 H153 0.930 . S
C96 N93 1.314 . S
C96 C94 1.353 1_655 S
C96 H154 0.930 1_655 S
C97 N93 1.279 . S
C97 C95 1.358 . S
C97 H155 0.930 . S
C98 C101 1.348 1_545 S
C98 C102 1.356 . S
C98 O149 1.325 . S
C99 N100 1.279 . S
C99 C102 1.358 . S
C99 H156 0.930 . S
N100 C99 1.279 . S
N100 C103 1.314 . S
C101 C98 1.348 1_565 S
C101 C103 1.353 1_565 S
C101 H157 0.929 . S
C102 C98 1.356 . S
C102 C99 1.358 . S
C102 H158 0.930 . S
C103 N100 1.314 . S
C103 C101 1.353 1_545 S
C103 H159 0.930 1_545 S
C104 N105 1.314 . S
C104 C109 1.353 . S
C104 H110 0.930 . S
N105 Li88 1.990 . S
N105 C104 1.314 . S
N105 C107 1.279 . S
C106 C107 1.358 . S
C106 C108 1.356 . S
C106 H160 0.930 . S
C107 N105 1.279 . S
C107 C106 1.358 . S
C107 H111 0.930 . S
C108 C106 1.356 . S
C108 C109 1.348 . S
C109 C104 1.353 . S
C109 C108 1.348 . S
C109 H161 0.929 . S
H110 C104 0.930 . S
H111 C107 0.930 . S
C112 N113 1.314 . S
C112 C114 1.353 . S
C112 H118 0.930 . S
N113 Li89 1.990 . S
N113 C112 1.314 . S
N113 C116 1.279 . S
C114 C112 1.353 . S
C114 C117 1.348 . S
C114 H162 0.929 . S
C115 C116 1.358 . S
C115 C117 1.356 . S
C115 H163 0.930 . S
C116 N113 1.279 . S
C116 C115 1.358 . S
C116 H119 0.930 . S
C117 C114 1.348 . S
C117 C115 1.356 . S
H118 C112 0.930 . S
H119 C116 0.930 . S
C120 C122 1.348 1_565 S
C120 C123 1.356 . S
C120 O150 1.325 . S
N121 C124 1.314 . S
N121 C125 1.279 . S
C122 C120 1.348 1_545 S
C122 C124 1.353 1_545 S
C122 H164 0.929 . S
C123 C120 1.356 . S
C123 C125 1.358 . S
C123 H165 0.930 . S
C124 N121 1.314 . S
C124 C122 1.353 1_565 S
C124 H166 0.930 1_565 S
C125 N121 1.279 . S
C125 C123 1.358 . S
C125 H167 0.930 . S
C126 C127 1.348 1_455 S
C126 C128 1.356 . S
C126 O151 1.325 . S
C127 C126 1.348 1_655 S
C127 C129 1.353 1_655 S
C127 H168 0.929 . S
C128 C126 1.356 . S
C128 C130 1.358 . S
C128 H169 0.930 . S
C129 C127 1.353 1_455 S
C129 N131 1.314 . S
C129 H170 0.930 1_455 S
C130 C128 1.358 . S
C130 N131 1.279 . S
C130 H171 0.930 . S
N131 C129 1.314 . S
N131 C130 1.279 . S
C132 C134 1.353 . S
C132 N135 1.314 . S
C132 H138 0.930 . S
C133 N135 1.279 . S
C133 C136 1.358 . S
C133 H139 0.930 . S
C134 C132 1.353 . S
C134 C137 1.348 . S
C134 H172 0.929 . S
N135 Li90 1.990 . S
N135 C132 1.314 . S
N135 C133 1.279 . S
C136 C133 1.358 . S
C136 C137 1.356 . S
C136 H173 0.930 . S
C137 C134 1.348 . S
C137 C136 1.356 . S
H138 C132 0.930 . S
H139 C133 0.930 . S
C140 N141 1.314 . S
C140 C142 1.353 . S
C140 H146 0.930 . S
N141 Li91 1.990 . S
N141 C140 1.314 . S
N141 C144 1.279 . S
C142 C140 1.353 . S
C142 C145 1.348 . S
C142 H174 0.929 . S
C143 C144 1.358 . S
C143 C145 1.356 . S
C143 H175 0.930 . S
C144 N141 1.279 . S
C144 C143 1.358 . S
C144 H147 0.930 . S
C145 C142 1.348 . S
C145 C143 1.356 . S
H146 C140 0.930 . S
H147 C144 0.930 . S
O148 Li88 1.956 . S
O148 Li89 1.970 1_665 S
O148 Li90 1.961 . S
O148 C92 1.325 . S
O149 Li88 1.970 1_445 S
O149 Li89 1.956 . S
O149 Li91 1.961 . S
O149 C98 1.325 . S
O150 Li88 1.961 . S
O150 Li90 1.956 . S
O150 Li91 1.970 1_665 S
O150 C120 1.325 . S
O151 Li89 1.961 . S
O151 Li90 1.970 1_445 S
O151 Li91 1.956 . S
O151 C126 1.325 . S
H152 C94 0.929 . S
H153 C95 0.930 . S
H154 C96 0.930 1_455 S
H155 C97 0.930 . S
H156 C99 0.930 . S
H157 C101 0.929 . S
H158 C102 0.930 . S
H159 C103 0.930 1_565 S
H160 C106 0.930 . S
H161 C109 0.929 . S
H162 C114 0.929 . S
H163 C115 0.930 . S
H164 C122 0.929 . S
H165 C123 0.930 . S
H166 C124 0.930 1_545 S
H167 C125 0.930 . S
H168 C127 0.929 . S
H169 C128 0.930 . S
H170 C129 0.930 1_655 S
H171 C130 0.930 . S
H172 C134 0.929 . S
H173 C136 0.930 . S
H174 C142 0.929 . S
H175 C143 0.930 . S
Li176 N193 1.990 . S
Li176 O236 1.956 . S
Li176 O237 1.970 1_565 S
Li176 O238 1.961 1_455 S
Li177 N201 1.990 . S
Li177 O236 1.970 1_545 S
Li177 O237 1.956 . S
Li177 O239 1.961 1_455 S
Li178 N223 1.990 . S
Li178 O236 1.961 1_655 S
Li178 O238 1.956 . S
Li178 O239 1.970 1_565 S
Li179 N229 1.990 . S
Li179 O237 1.961 1_655 S
Li179 O238 1.970 1_545 S
Li179 O239 1.956 . S
C180 C182 1.348 1_565 S
C180 C183 1.356 . S
C180 O236 1.325 . S
N181 C184 1.314 . S
N181 C185 1.279 . S
C182 C180 1.348 1_545 S
C182 C184 1.353 1_545 S
C182 H240 0.929 . S
C183 C180 1.356 . S
C183 C185 1.358 . S
C183 H241 0.930 . S
C184 N181 1.314 . S
C184 C182 1.353 1_565 S
C184 H242 0.930 1_565 S
C185 N181 1.279 . S
C185 C183 1.358 . S
C185 H243 0.930 . S
C186 C189 1.348 . S
C186 C190 1.356 . S
C186 O237 1.325 . S
C187 N188 1.279 . S
C187 C190 1.358 . S
C187 H244 0.930 . S
N188 C187 1.279 . S
N188 C191 1.314 . S
C189 C186 1.348 . S
C189 C191 1.353 . S
C189 H245 0.929 . S
C190 C186 1.356 . S
C190 C187 1.358 . S
C190 H246 0.930 . S
C191 N188 1.314 . S
C191 C189 1.353 . S
C191 H247 0.930 . S
C192 N193 1.314 . S
C192 C197 1.353 . S
C192 H198 0.930 . S
N193 Li176 1.990 . S
N193 C192 1.314 . S
N193 C195 1.279 . S
C194 C195 1.358 . S
C194 C196 1.356 . S
C194 H248 0.930 . S
C195 N193 1.279 . S
C195 C194 1.358 . S
C195 H199 0.930 . S
C196 C194 1.356 . S
C196 C197 1.348 . S
C197 C192 1.353 . S
C197 C196 1.348 . S
C197 H249 0.929 . S
H198 C192 0.930 . S
H199 C195 0.930 . S
C200 N201 1.314 . S
C200 C202 1.353 . S
C200 H206 0.930 . S
N201 Li177 1.990 . S
N201 C200 1.314 . S
N201 C204 1.279 . S
C202 C200 1.353 . S
C202 C205 1.348 . S
C202 H250 0.929 . S
C203 C204 1.358 . S
C203 C205 1.356 . S
C203 H251 0.930 . S
C204 N201 1.279 . S
C204 C203 1.358 . S
C204 H207 0.930 . S
C205 C202 1.348 . S
C205 C203 1.356 . S
H206 C200 0.930 . S
H207 C204 0.930 . S
C208 C210 1.348 . S
C208 C211 1.356 . S
C208 O238 1.325 . S
N209 C212 1.314 . S
N209 C213 1.279 . S
C210 C208 1.348 . S
C210 C212 1.353 . S
C210 H252 0.929 . S
C211 C208 1.356 . S
C211 C213 1.358 . S
C211 H253 0.930 . S
C212 N209 1.314 . S
C212 C210 1.353 . S
C212 H254 0.930 . S
C213 N209 1.279 . S
C213 C211 1.358 . S
C213 H255 0.930 . S
C214 C215 1.348 1_545 S
C214 C216 1.356 . S
C214 O239 1.325 . S
C215 C214 1.348 1_565 S
C215 C217 1.353 1_565 S
C215 H256 0.929 . S
C216 C214 1.356 . S
C216 C218 1.358 . S
C216 H257 0.930 . S
C217 C215 1.353 1_545 S
C217 N219 1.314 . S
C217 H258 0.930 1_545 S
C218 C216 1.358 . S
C218 N219 1.279 . S
C218 H259 0.930 . S
N219 C217 1.314 . S
N219 C218 1.279 . S
C220 C222 1.353 . S
C220 N223 1.314 . S
C220 H226 0.930 . S
C221 N223 1.279 . S
C221 C224 1.358 . S
C221 H227 0.930 . S
C222 C220 1.353 . S
C222 C225 1.348 . S
C222 H260 0.929 . S
N223 Li178 1.990 . S
N223 C220 1.314 . S
N223 C221 1.279 . S
C224 C221 1.358 . S
C224 C225 1.356 . S
C224 H261 0.930 . S
C225 C222 1.348 . S
C225 C224 1.356 . S
H226 C220 0.930 . S
H227 C221 0.930 . S
C228 N229 1.314 . S
C228 C230 1.353 . S
C228 H234 0.930 . S
N229 Li179 1.990 . S
N229 C228 1.314 . S
N229 C232 1.279 . S
C230 C228 1.353 . S
C230 C233 1.348 . S
C230 H262 0.929 . S
C231 C232 1.358 . S
C231 C233 1.356 . S
C231 H263 0.930 . S
C232 N229 1.279 . S
C232 C231 1.358 . S
C232 H235 0.930 . S
C233 C230 1.348 . S
C233 C231 1.356 . S
H234 C228 0.930 . S
H235 C232 0.930 . S
O236 Li176 1.956 . S
O236 Li177 1.970 1_565 S
O236 Li178 1.961 1_455 S
O236 C180 1.325 . S
O237 Li176 1.970 1_545 S
O237 Li177 1.956 . S
O237 Li179 1.961 1_455 S
O237 C186 1.325 . S
O238 Li176 1.961 1_655 S
O238 Li178 1.956 . S
O238 Li179 1.970 1_565 S
O238 C208 1.325 . S
O239 Li177 1.961 1_655 S
O239 Li178 1.970 1_545 S
O239 Li179 1.956 . S
O239 C214 1.325 . S
H240 C182 0.929 . S
H241 C183 0.930 . S
H242 C184 0.930 1_545 S
H243 C185 0.930 . S
H244 C187 0.930 . S
H245 C189 0.929 . S
H246 C190 0.930 . S
H247 C191 0.930 . S
H248 C194 0.930 . S
H249 C197 0.929 . S
H250 C202 0.929 . S
H251 C203 0.930 . S
H252 C210 0.929 . S
H253 C211 0.930 . S
H254 C212 0.930 . S
H255 C213 0.930 . S
H256 C215 0.929 . S
H257 C216 0.930 . S
H258 C217 0.930 1_565 S
H259 C218 0.930 . S
H260 C222 0.929 . S
H261 C224 0.930 . S
H262 C230 0.929 . S
H263 C231 0.930 . S
C264 C265 1.384 1_655 S
C264 C266 1.384 . S
C264 H292 0.931 . S
C265 C264 1.384 1_455 S
C265 C268 1.382 . S
C266 C264 1.384 . S
C266 C267 1.381 1_655 S
C266 H293 0.930 . S
C267 C266 1.381 1_455 S
C267 C269 1.381 . S
C267 C270 1.487 . S
C268 C265 1.382 . S
C268 C269 1.387 . S
C268 H294 0.930 . S
C269 C267 1.381 . S
C269 C268 1.387 . S
C269 H295 0.931 . S
C270 C267 1.487 . S
C270 C277 1.399 1_455 S
C270 N308 1.343 . S
C271 C272 1.367 1_455 S
C271 C273 1.384 . S
C271 H296 0.931 . S
C272 C271 1.367 1_655 S
C272 C275 1.413 . S
C273 C271 1.384 . S
C273 C274 1.381 1_455 S
C273 H297 0.930 . S
C274 C273 1.381 1_655 S
C274 C276 1.381 . S
C274 C277 1.487 . S
C275 C272 1.413 . S
C275 C276 1.387 . S
C275 H298 0.930 . S
C276 C274 1.381 . S
C276 C275 1.387 . S
C276 H299 0.931 . S
C277 C270 1.399 1_655 S
C277 C274 1.487 . S
C277 N309 1.343 . S
C278 C279 1.365 1_455 S
C278 C280 1.384 . S
C278 H300 0.931 . S
C279 C278 1.365 1_655 S
C279 C282 1.390 . S
C280 C278 1.384 . S
C280 C281 1.381 1_455 S
C280 H301 0.930 . S
C281 C280 1.381 1_655 S
C281 C283 1.381 . S
C281 C284 1.487 . S
C282 C279 1.390 . S
C282 C283 1.387 . S
C282 H302 0.930 . S
C283 C281 1.381 . S
C283 C282 1.387 . S
C283 H303 0.931 . S
C284 C281 1.487 . S
C284 C291 1.399 1_655 S
C284 N309 1.343 . S
C285 C286 1.384 1_655 S
C285 C287 1.384 . S
C285 H304 0.931 . S
C286 C285 1.384 1_455 S
C286 C289 1.382 . S
C287 C285 1.384 . S
C287 C288 1.381 1_655 S
C287 H305 0.930 . S
C288 C287 1.381 1_455 S
C288 C290 1.381 . S
C288 C291 1.487 . S
C289 C286 1.382 . S
C289 C290 1.387 . S
C289 H306 0.930 . S
C290 C288 1.381 . S
C290 C289 1.387 . S
C290 H307 0.931 . S
C291 C284 1.399 1_455 S
C291 C288 1.487 . S
C291 N308 1.343 . S
H292 C264 0.931 . S
H293 C266 0.930 . S
H294 C268 0.930 . S
H295 C269 0.931 . S
H296 C271 0.931 . S
H297 C273 0.930 . S
H298 C275 0.930 . S
H299 C276 0.931 . S
H300 C278 0.931 . S
H301 C280 0.930 . S
H302 C282 0.930 . S
H303 C283 0.931 . S
H304 C285 0.931 . S
H305 C287 0.930 . S
H306 C289 0.930 . S
H307 C290 0.931 . S
N308 C270 1.343 . S
N308 C291 1.343 . S
N309 C277 1.343 . S
N309 C284 1.343 . S
C310 C311 1.365 1_545 S
C310 C312 1.384 . S
C310 H338 0.931 . S
C311 C310 1.365 1_565 S
C311 C314 1.390 . S
C312 C310 1.384 . S
C312 C313 1.381 1_545 S
C312 H339 0.930 . S
C313 C312 1.381 1_565 S
C313 C315 1.381 . S
C313 C316 1.487 . S
C314 C311 1.390 . S
C314 C315 1.387 . S
C314 H340 0.930 . S
C315 C313 1.381 . S
C315 C314 1.387 . S
C315 H341 0.931 . S
C316 C313 1.487 . S
C316 C323 1.399 1_565 S
C316 N354 1.343 . S
C317 C318 1.384 1_565 S
C317 C319 1.384 . S
C317 H342 0.931 . S
C318 C317 1.384 1_545 S
C318 C321 1.382 . S
C319 C317 1.384 . S
C319 C320 1.381 1_565 S
C319 H343 0.930 . S
C320 C319 1.381 1_545 S
C320 C322 1.381 . S
C320 C323 1.487 . S
C321 C318 1.382 . S
C321 C322 1.387 . S
C321 H344 0.930 . S
C322 C320 1.381 . S
C322 C321 1.387 . S
C322 H345 0.931 . S
C323 C316 1.399 1_545 S
C323 C320 1.487 . S
C323 N355 1.343 . S
C324 C325 1.384 1_565 S
C324 C326 1.384 . S
C324 H346 0.931 . S
C325 C324 1.384 1_545 S
C325 C328 1.382 . S
C326 C324 1.384 . S
C326 C327 1.381 1_565 S
C326 H347 0.930 . S
C327 C326 1.381 1_545 S
C327 C329 1.381 . S
C327 C330 1.487 . S
C328 C325 1.382 . S
C328 C329 1.387 . S
C328 H348 0.930 . S
C329 C327 1.381 . S
C329 C328 1.387 . S
C329 H349 0.931 . S
C330 C327 1.487 . S
C330 C337 1.399 1_545 S
C330 N355 1.343 . S
C331 C332 1.367 1_545 S
C331 C333 1.384 . S
C331 H350 0.931 . S
C332 C331 1.367 1_565 S
C332 C335 1.413 . S
C333 C331 1.384 . S
C333 C334 1.381 1_545 S
C333 H351 0.930 . S
C334 C333 1.381 1_565 S
C334 C336 1.381 . S
C334 C337 1.487 . S
C335 C332 1.413 . S
C335 C336 1.387 . S
C335 H352 0.930 . S
C336 C334 1.381 . S
C336 C335 1.387 . S
C336 H353 0.931 . S
C337 C330 1.399 1_565 S
C337 C334 1.487 . S
C337 N354 1.343 . S
H338 C310 0.931 . S
H339 C312 0.930 . S
H340 C314 0.930 . S
H341 C315 0.931 . S
H342 C317 0.931 . S
H343 C319 0.930 . S
H344 C321 0.930 . S
H345 C322 0.931 . S
H346 C324 0.931 . S
H347 C326 0.930 . S
H348 C328 0.930 . S
H349 C329 0.931 . S
H350 C331 0.931 . S
H351 C333 0.930 . S
H352 C335 0.930 . S
H353 C336 0.931 . S
N354 C316 1.343 . S
N354 C337 1.343 . S
N355 C323 1.343 . S
N355 C330 1.343 . S
C356 C357 1.384 . S
C356 C358 1.384 . S
C356 H384 0.931 . S
C357 C356 1.384 . S
C357 C360 1.382 . S
C358 C356 1.384 . S
C358 C359 1.381 . S
C358 H385 0.930 . S
C359 C358 1.381 . S
C359 C361 1.381 . S
C359 C362 1.487 . S
C360 C357 1.382 . S
C360 C361 1.387 . S
C360 H386 0.930 . S
C361 C359 1.381 . S
C361 C360 1.387 . S
C361 H387 0.931 . S
C362 C359 1.487 . S
C362 C369 1.399 . S
C362 N400 1.343 . S
C363 C364 1.384 . S
C363 C365 1.384 . S
C363 H388 0.931 . S
C364 C363 1.384 . S
C364 C367 1.382 . S
C365 C363 1.384 . S
C365 C366 1.381 . S
C365 H389 0.930 . S
C366 C365 1.381 . S
C366 C368 1.381 . S
C366 C369 1.487 . S
C367 C364 1.382 . S
C367 C368 1.387 . S
C367 H390 0.930 . S
C368 C366 1.381 . S
C368 C367 1.387 . S
C368 H391 0.931 . S
C369 C362 1.399 . S
C369 C366 1.487 . S
C369 N401 1.343 . S
C370 C371 1.384 . S
C370 C372 1.384 . S
C370 H392 0.931 . S
C371 C370 1.384 . S
C371 C374 1.382 . S
C372 C370 1.384 . S
C372 C373 1.381 . S
C372 H393 0.930 . S
C373 C372 1.381 . S
C373 C375 1.381 . S
C373 C376 1.487 . S
C374 C371 1.382 . S
C374 C375 1.387 . S
C374 H394 0.930 . S
C375 C373 1.381 . S
C375 C374 1.387 . S
C375 H395 0.931 . S
C376 C373 1.487 . S
C376 C383 1.399 . S
C376 N401 1.343 . S
C377 C378 1.384 . S
C377 C379 1.384 . S
C377 H396 0.931 . S
C378 C377 1.384 . S
C378 C381 1.382 . S
C379 C377 1.384 . S
C379 C380 1.381 . S
C379 H397 0.930 . S
C380 C379 1.381 . S
C380 C382 1.381 . S
C380 C383 1.487 . S
C381 C378 1.382 . S
C381 C382 1.387 . S
C381 H398 0.930 . S
C382 C380 1.381 . S
C382 C381 1.387 . S
C382 H399 0.931 . S
C383 C376 1.399 . S
C383 C380 1.487 . S
C383 N400 1.343 . S
H384 C356 0.931 . S
H385 C358 0.930 . S
H386 C360 0.930 . S
H387 C361 0.931 . S
H388 C363 0.931 . S
H389 C365 0.930 . S
H390 C367 0.930 . S
H391 C368 0.931 . S
H392 C370 0.931 . S
H393 C372 0.930 . S
H394 C374 0.930 . S
H395 C375 0.931 . S
H396 C377 0.931 . S
H397 C379 0.930 . S
H398 C381 0.930 . S
H399 C382 0.931 . S
N400 C362 1.343 . S
N400 C383 1.343 . S
N401 C369 1.343 . S
N401 C376 1.343 . S
C402 C403 1.349 . S
C402 C404 1.327 . S
C402 H427 0.950 . S
C403 C402 1.349 . S
C403 C419 1.349 . S
C404 C402 1.327 . S
C404 C423 1.429 . S
C404 H428 0.950 . S
C405 C422 1.574 . S
C405 C424 1.368 . S
C405 H429 0.949 . S
H406 C410 0.949 . S
C407 C408 1.349 1_455 S
C407 C409 1.327 . S
C407 H430 0.950 . S
C408 C407 1.349 1_655 S
C408 C420 1.349 . S
C409 C407 1.327 . S
C409 C425 1.429 1_455 S
C409 H431 0.950 . S
C410 H406 0.949 . S
C410 C418 1.574 . S
C410 C426 1.368 . S
H411 C419 0.950 . S
H412 C417 0.950 . S
H413 C418 0.949 . S
H414 C420 0.950 . S
H415 C421 0.950 . S
H416 C422 0.949 1_455 S
C417 H412 0.950 . S
C417 C419 1.327 . S
C417 C423 1.429 . S
C418 C410 1.574 . S
C418 H413 0.949 . S
C418 C424 1.368 . S
C419 C403 1.349 . S
C419 H411 0.950 . S
C419 C417 1.327 . S
C420 C408 1.349 . S
C420 H414 0.950 . S
C420 C421 1.327 . S
C421 H415 0.950 . S
C421 C420 1.327 . S
C421 C425 1.429 . S
C422 C405 1.574 . S
C422 H416 0.949 1_655 S
C422 C426 1.368 . S
C423 C404 1.429 . S
C423 C417 1.429 . S
C423 C424 1.523 . S
C424 C405 1.368 . S
C424 C418 1.368 . S
C424 C423 1.523 . S
C425 C409 1.429 1_655 S
C425 C421 1.429 . S
C425 C426 1.523 . S
C426 C410 1.368 . S
C426 C422 1.368 . S
C426 C425 1.523 . S
H427 C402 0.950 . S
H428 C404 0.950 . S
H429 C405 0.949 . S
H430 C407 0.950 . S
H431 C409 0.950 . S
C432 C433 1.349 . S
C432 C434 1.327 . S
C432 H457 0.950 . S
C433 C432 1.349 . S
C433 C449 1.349 . S
C434 C432 1.327 . S
C434 C453 1.429 . S
C434 H458 0.950 . S
C435 C452 1.574 . S
C435 C454 1.368 1_545 S
C435 H459 0.949 . S
H436 C440 0.949 . S
C437 C438 1.349 1_545 S
C437 C439 1.327 . S
C437 H460 0.950 . S
C438 C437 1.349 1_565 S
C438 C450 1.349 . S
C439 C437 1.327 . S
C439 C455 1.429 1_545 S
C439 H461 0.950 . S
C440 H436 0.949 . S
C440 C448 1.574 . S
C440 C456 1.368 . S
H441 C449 0.950 1_545 S
H442 C447 0.950 1_545 S
H443 C448 0.949 . S
H444 C450 0.950 . S
H445 C451 0.950 . S
H446 C452 0.949 . S
C447 H442 0.950 1_565 S
C447 C449 1.327 . S
C447 C453 1.429 . S
C448 C440 1.574 . S
C448 H443 0.949 . S
C448 C454 1.368 . S
C449 C433 1.349 . S
C449 H441 0.950 1_565 S
C449 C447 1.327 . S
C450 C438 1.349 . S
C450 H444 0.950 . S
C450 C451 1.327 . S
C451 H445 0.950 . S
C451 C450 1.327 . S
C451 C455 1.429 . S
C452 C435 1.574 . S
C452 H446 0.949 . S
C452 C456 1.368 1_545 S
C453 C434 1.429 . S
C453 C447 1.429 . S
C453 C454 1.523 . S
C454 C435 1.368 1_565 S
C454 C448 1.368 . S
C454 C453 1.523 . S
C455 C439 1.429 1_565 S
C455 C451 1.429 . S
C455 C456 1.523 . S
C456 C440 1.368 . S
C456 C452 1.368 1_565 S
C456 C455 1.523 . S
H457 C432 0.950 . S
H458 C434 0.950 . S
H459 C435 0.949 . S
H460 C437 0.950 . S
H461 C439 0.950 . S
C462 C463 1.349 . S
C462 C464 1.327 . S
C462 H487 0.950 . S
C463 C462 1.349 . S
C463 C479 1.349 . S
C464 C462 1.327 . S
C464 C483 1.429 . S
C464 H488 0.950 . S
C465 C482 1.574 . S
C465 C484 1.368 . S
C465 H489 0.949 . S
H466 C470 0.949 . S
C467 C468 1.349 . S
C467 C469 1.327 . S
C467 H490 0.950 . S
C468 C467 1.349 . S
C468 C480 1.349 . S
C469 C467 1.327 . S
C469 C485 1.429 . S
C469 H491 0.950 . S
C470 H466 0.949 . S
C470 C478 1.574 . S
C470 C486 1.368 . S
H471 C479 0.950 . S
H472 C477 0.950 . S
H473 C478 0.949 . S
H474 C480 0.950 . S
H475 C481 0.950 . S
H476 C482 0.949 . S
C477 H472 0.950 . S
C477 C479 1.327 . S
C477 C483 1.429 . S
C478 C470 1.574 . S
C478 H473 0.949 . S
C478 C484 1.368 . S
C479 C463 1.349 . S
C479 H471 0.950 . S
C479 C477 1.327 . S
C480 C468 1.349 . S
C480 H474 0.950 . S
C480 C481 1.327 . S
C481 H475 0.950 . S
C481 C480 1.327 . S
C481 C485 1.429 . S
C482 C465 1.574 . S
C482 H476 0.949 . S
C482 C486 1.368 . S
C483 C464 1.429 . S
C483 C477 1.429 . S
C483 C484 1.523 . S
C484 C465 1.368 . S
C484 C478 1.368 . S
C484 C483 1.523 . S
C485 C469 1.429 . S
C485 C481 1.429 . S
C485 C486 1.523 . S
C486 C470 1.368 . S
C486 C482 1.368 . S
C486 C485 1.523 . S
H487 C462 0.950 . S
H488 C464 0.950 . S
H489 C465 0.949 . S
H490 C467 0.950 . S
H491 C469 0.950 . S
C492 C493 1.349 . S
C492 C494 1.327 . S
C492 H517 0.950 . S
C493 C492 1.349 . S
C493 C509 1.349 . S
C494 C492 1.327 . S
C494 C513 1.429 . S
C494 H518 0.950 . S
C495 C512 1.574 . S
C495 C514 1.368 . S
C495 H519 0.949 . S
H496 C500 0.949 1_655 S
C497 C498 1.349 . S
C497 C499 1.327 . S
C497 H520 0.950 . S
C498 C497 1.349 . S
C498 C510 1.349 1_455 S
C499 C497 1.327 . S
C499 C515 1.429 . S
C499 H521 0.950 . S
C500 H496 0.949 1_455 S
C500 C508 1.574 . S
C500 C516 1.368 . S
H501 C509 0.950 . S
H502 C507 0.950 . S
H503 C508 0.949 . S
H504 C510 0.950 . S
H505 C511 0.950 . S
H506 C512 0.949 . S
C507 H502 0.950 . S
C507 C509 1.327 . S
C507 C513 1.429 . S
C508 C500 1.574 . S
C508 H503 0.949 . S
C508 C514 1.368 . S
C509 C493 1.349 . S
C509 H501 0.950 . S
C509 C507 1.327 . S
C510 C498 1.349 1_655 S
C510 H504 0.950 . S
C510 C511 1.327 . S
C511 H505 0.950 . S
C511 C510 1.327 . S
C511 C515 1.429 1_655 S
C512 C495 1.574 . S
C512 H506 0.949 . S
C512 C516 1.368 . S
C513 C494 1.429 . S
C513 C507 1.429 . S
C513 C514 1.523 . S
C514 C495 1.368 . S
C514 C508 1.368 . S
C514 C513 1.523 . S
C515 C499 1.429 . S
C515 C511 1.429 1_455 S
C515 C516 1.523 . S
C516 C500 1.368 . S
C516 C512 1.368 . S
C516 C515 1.523 . S
H517 C492 0.950 . S
H518 C494 0.950 . S
H519 C495 0.949 . S
H520 C497 0.950 . S
H521 C499 0.950 . S
C522 C523 1.349 . S
C522 C524 1.327 . S
C522 H547 0.950 . S
C523 C522 1.349 . S
C523 C539 1.349 . S
C524 C522 1.327 . S
C524 C543 1.429 . S
C524 H548 0.950 . S
C525 C542 1.557 1_545 S
C525 C544 1.368 . S
C525 H549 0.949 1_545 S
H526 C530 0.949 . S
C527 C528 1.349 1_565 S
C527 C529 1.327 . S
C527 H550 0.950 . S
C528 C527 1.349 1_545 S
C528 C540 1.349 . S
C529 C527 1.327 . S
C529 C545 1.429 1_565 S
C529 H551 0.950 . S
C530 H526 0.949 . S
C530 C538 1.574 . S
C530 C546 1.368 . S
H531 C539 0.950 . S
H532 C537 0.960 . S
H533 C538 0.949 . S
H534 C540 0.950 . S
H535 C541 0.950 . S
H536 C542 0.978 . S
C537 H532 0.960 . S
C537 C539 1.327 . S
C537 C543 1.429 . S
C538 C530 1.574 . S
C538 H533 0.949 . S
C538 C544 1.368 . S
C539 C523 1.349 . S
C539 H531 0.950 . S
C539 C537 1.327 . S
C540 C528 1.349 . S
C540 H534 0.950 . S
C540 C541 1.327 . S
C541 H535 0.950 . S
C541 C540 1.327 . S
C541 C545 1.429 . S
C542 C525 1.557 1_565 S
C542 H536 0.978 . S
C542 C546 1.353 1_565 S
C543 C524 1.429 . S
C543 C537 1.429 . S
C543 C544 1.523 . S
C544 C525 1.368 . S
C544 C538 1.368 . S
C544 C543 1.523 . S
C545 C529 1.429 1_545 S
C545 C541 1.429 . S
C545 C546 1.523 . S
C546 C530 1.368 . S
C546 C542 1.353 1_545 S
C546 C545 1.523 . S
H547 C522 0.950 . S
H548 C524 0.950 . S
H549 C525 0.949 1_565 S
H550 C527 0.950 . S
H551 C529 0.950 . S
C552 C553 1.349 . S
C552 C554 1.327 . S
C552 H577 0.950 . S
C553 C552 1.349 . S
C553 C569 1.349 . S
C554 C552 1.327 . S
C554 C573 1.429 . S
C554 H578 0.950 . S
C555 C572 1.574 . S
C555 C574 1.368 . S
C555 H579 0.949 . S
H556 C560 0.949 . S
C557 C558 1.349 . S
C557 C559 1.327 . S
C557 H580 0.950 . S
C558 C557 1.349 . S
C558 C570 1.349 . S
C559 C557 1.327 . S
C559 C575 1.429 . S
C559 H581 0.950 . S
C560 H556 0.949 . S
C560 C568 1.574 . S
C560 C576 1.368 . S
H561 C569 0.950 . S
H562 C567 0.950 . S
H563 C568 0.949 . S
H564 C570 0.950 . S
H565 C571 0.950 . S
H566 C572 0.949 . S
C567 H562 0.950 . S
C567 C569 1.327 . S
C567 C573 1.429 . S
C568 C560 1.574 . S
C568 H563 0.949 . S
C568 C574 1.368 . S
C569 C553 1.349 . S
C569 H561 0.950 . S
C569 C567 1.327 . S
C570 C558 1.349 . S
C570 H564 0.950 . S
C570 C571 1.327 . S
C571 H565 0.950 . S
C571 C570 1.327 . S
C571 C575 1.429 . S
C572 C555 1.574 . S
C572 H566 0.949 . S
C572 C576 1.368 . S
C573 C554 1.429 . S
C573 C567 1.429 . S
C573 C574 1.523 . S
C574 C555 1.368 . S
C574 C568 1.368 . S
C574 C573 1.523 . S
C575 C559 1.429 . S
C575 C571 1.429 . S
C575 C576 1.523 . S
C576 C560 1.368 . S
C576 C572 1.368 . S
C576 C575 1.523 . S
H577 C552 0.950 . S
H578 C554 0.950 . S
H579 C555 0.949 . S
H580 C557 0.950 . S
H581 C559 0.950 . S
C582 C583 1.349 . S
C582 C584 1.327 . S
C582 H607 0.950 . S
C583 C582 1.349 . S
C583 C599 1.349 . S
C584 C582 1.327 . S
C584 C603 1.429 . S
C584 H608 0.950 . S
C585 C602 1.574 . S
C585 C604 1.368 1_565 S
C585 H609 0.949 . S
H586 C590 0.949 . S
C587 C588 1.349 1_565 S
C587 C589 1.327 . S
C587 H610 0.950 . S
C588 C587 1.349 1_545 S
C588 C600 1.349 . S
C589 C587 1.327 . S
C589 C605 1.429 1_565 S
C589 H611 0.950 . S
C590 H586 0.949 . S
C590 C598 1.574 . S
C590 C606 1.368 . S
H591 C599 0.950 1_565 S
H592 C597 0.950 1_565 S
H593 C598 0.949 . S
H594 C600 0.950 . S
H595 C601 0.950 . S
H596 C602 0.949 . S
C597 H592 0.950 1_545 S
C597 C599 1.327 . S
C597 C603 1.429 . S
C598 C590 1.574 . S
C598 H593 0.949 . S
C598 C604 1.368 . S
C599 C583 1.349 . S
C599 H591 0.950 1_545 S
C599 C597 1.327 . S
C600 C588 1.349 . S
C600 H594 0.950 . S
C600 C601 1.327 . S
C601 H595 0.950 . S
C601 C600 1.327 . S
C601 C605 1.429 . S
C602 C585 1.574 . S
C602 H596 0.949 . S
C602 C606 1.368 1_565 S
C603 C584 1.429 . S
C603 C597 1.429 . S
C603 C604 1.523 . S
C604 C585 1.368 1_545 S
C604 C598 1.368 . S
C604 C603 1.523 . S
C605 C589 1.429 1_545 S
C605 C601 1.429 . S
C605 C606 1.523 . S
C606 C590 1.368 . S
C606 C602 1.368 1_545 S
C606 C605 1.523 . S
H607 C582 0.950 . S
H608 C584 0.950 . S
H609 C585 0.949 . S
H610 C587 0.950 . S
H611 C589 0.950 . S
C612 C613 1.349 1_556 S
C612 C614 1.327 . S
C612 H637 0.950 . S
C613 C612 1.349 1_554 S
C613 C629 1.349 . S
C614 C612 1.327 . S
C614 C633 1.429 . S
C614 H638 0.950 . S
C615 C632 1.574 . S
C615 C634 1.368 . S
C615 H639 0.949 . S
H616 C620 0.949 . S
C617 C618 1.349 . S
C617 C619 1.327 . S
C617 H640 0.950 . S
C618 C617 1.349 . S
C618 C630 1.349 . S
C619 C617 1.327 . S
C619 C635 1.429 . S
C619 H641 0.950 . S
C620 H616 0.949 . S
C620 C628 1.574 . S
C620 C636 1.368 . S
H621 C629 0.950 . S
H622 C627 0.944 1_554 S
H623 C628 0.949 . S
H624 C630 0.950 . S
H625 C631 0.950 . S
H626 C632 0.949 . S
C627 H622 0.944 1_556 S
C627 C629 1.315 1_556 S
C627 C633 1.447 . S
C628 C620 1.574 . S
C628 H623 0.949 . S
C628 C634 1.368 . S
C629 C613 1.349 . S
C629 H621 0.950 . S
C629 C627 1.315 1_554 S
C630 C618 1.349 . S
C630 H624 0.950 . S
C630 C631 1.327 . S
C631 H625 0.950 . S
C631 C630 1.327 . S
C631 C635 1.429 . S
C632 C615 1.574 . S
C632 H626 0.949 . S
C632 C636 1.368 . S
C633 C614 1.429 . S
C633 C627 1.447 . S
C633 C634 1.523 . S
C634 C615 1.368 . S
C634 C628 1.368 . S
C634 C633 1.523 . S
C635 C619 1.429 . S
C635 C631 1.429 . S
C635 C636 1.523 . S
C636 C620 1.368 . S
C636 C632 1.368 . S
C636 C635 1.523 . S
H637 C612 0.950 . S
H638 C614 0.950 . S
H639 C615 0.949 . S
H640 C617 0.950 . S
H641 C619 0.950 . S
C642 C643 1.349 . S
C642 C644 1.327 . S
C642 H667 0.950 . S
C643 C642 1.349 . S
C643 C659 1.349 . S
C644 C642 1.327 . S
C644 C663 1.429 . S
C644 H668 0.950 . S
C645 C662 1.574 . S
C645 C664 1.368 1_455 S
C645 H669 0.949 . S
H646 C650 0.949 . S
C647 C648 1.349 1_455 S
C647 C649 1.327 . S
C647 H670 0.950 . S
C648 C647 1.349 1_655 S
C648 C660 1.349 . S
C649 C647 1.327 . S
C649 C665 1.429 1_455 S
C649 H671 0.950 . S
C650 H646 0.949 . S
C650 C658 1.574 . S
C650 C666 1.368 . S
H651 C659 0.950 1_455 S
H652 C657 0.950 1_455 S
H653 C658 0.949 . S
H654 C660 0.950 . S
H655 C661 0.950 . S
H656 C662 0.949 . S
C657 H652 0.950 1_655 S
C657 C659 1.327 . S
C657 C663 1.429 . S
C658 C650 1.574 . S
C658 H653 0.949 . S
C658 C664 1.368 . S
C659 C643 1.349 . S
C659 H651 0.950 1_655 S
C659 C657 1.327 . S
C660 C648 1.349 . S
C660 H654 0.950 . S
C660 C661 1.327 . S
C661 H655 0.950 . S
C661 C660 1.327 . S
C661 C665 1.429 . S
C662 C645 1.574 . S
C662 H656 0.949 . S
C662 C666 1.368 1_455 S
C663 C644 1.429 . S
C663 C657 1.429 . S
C663 C664 1.523 . S
C664 C645 1.368 1_655 S
C664 C658 1.368 . S
C664 C663 1.523 . S
C665 C649 1.429 1_655 S
C665 C661 1.429 . S
C665 C666 1.523 . S
C666 C650 1.368 . S
C666 C662 1.368 1_655 S
C666 C665 1.523 . S
H667 C642 0.950 . S
H668 C644 0.950 . S
H669 C645 0.949 . S
H670 C647 0.950 . S
H671 C649 0.950 . S
C672 C673 1.349 . S
C672 C674 1.327 . S
C672 H697 0.950 . S
C673 C672 1.349 . S
C673 C689 1.349 . S
C674 C672 1.327 . S
C674 C693 1.429 . S
C674 H698 0.950 . S
C675 C692 1.574 . S
C675 C694 1.368 1_545 S
C675 H699 0.949 . S
H676 C680 0.949 . S
C677 C678 1.349 1_545 S
C677 C679 1.327 . S
C677 H700 0.950 . S
C678 C677 1.349 1_565 S
C678 C690 1.349 . S
C679 C677 1.327 . S
C679 C695 1.429 1_545 S
C679 H701 0.950 . S
C680 H676 0.949 . S
C680 C688 1.574 . S
C680 C696 1.368 . S
H681 C689 0.950 1_545 S
H682 C687 0.949 1_545 S
H683 C688 0.949 . S
H684 C690 0.950 . S
H685 C691 0.950 . S
H686 C692 0.949 . S
C687 H682 0.949 1_565 S
C687 C689 1.327 . S
C687 C693 1.429 . S
C688 C680 1.574 . S
C688 H683 0.949 . S
C688 C694 1.368 . S
C689 C673 1.349 . S
C689 H681 0.950 1_565 S
C689 C687 1.327 . S
C690 C678 1.349 . S
C690 H684 0.950 . S
C690 C691 1.327 . S
C691 H685 0.950 . S
C691 C690 1.327 . S
C691 C695 1.429 . S
C692 C675 1.574 . S
C692 H686 0.949 . S
C692 C696 1.368 1_545 S
C693 C674 1.429 . S
C693 C687 1.429 . S
C693 C694 1.523 . S
C694 C675 1.368 1_565 S
C694 C688 1.368 . S
C694 C693 1.523 . S
C695 C679 1.429 1_565 S
C695 C691 1.429 . S
C695 C696 1.523 . S
C696 C680 1.368 . S
C696 C692 1.368 1_565 S
C696 C695 1.523 . S
H697 C672 0.950 . S
H698 C674 0.950 . S
H699 C675 0.949 . S
H700 C677 0.950 . S
H701 C679 0.950 . S
C702 C703 1.349 1_556 S
C702 C704 1.327 . S
C702 H727 0.950 . S
C703 C702 1.349 1_554 S
C703 C719 1.349 . S
C704 C702 1.327 . S
C704 C723 1.429 . S
C704 H728 0.950 . S
C705 C722 1.574 . S
C705 C724 1.368 . S
C705 H729 0.949 . S
H706 C710 0.949 . S
C707 C708 1.349 . S
C707 C709 1.327 . S
C707 H730 0.950 . S
C708 C707 1.349 . S
C708 C720 1.349 . S
C709 C707 1.327 . S
C709 C725 1.429 . S
C709 H731 0.950 . S
C710 H706 0.949 . S
C710 C718 1.574 . S
C710 C726 1.368 . S
H711 C719 0.950 . S
H712 C717 0.950 . S
H713 C718 0.949 . S
H714 C720 0.950 . S
H715 C721 0.950 . S
H716 C722 0.949 . S
C717 H712 0.950 . S
C717 C719 1.327 1_556 S
C717 C723 1.429 . S
C718 C710 1.574 . S
C718 H713 0.949 . S
C718 C724 1.368 . S
C719 C703 1.349 . S
C719 H711 0.950 . S
C719 C717 1.327 1_554 S
C720 C708 1.349 . S
C720 H714 0.950 . S
C720 C721 1.327 . S
C721 H715 0.950 . S
C721 C720 1.327 . S
C721 C725 1.429 . S
C722 C705 1.574 . S
C722 H716 0.949 . S
C722 C726 1.368 . S
C723 C704 1.429 . S
C723 C717 1.429 . S
C723 C724 1.523 . S
C724 C705 1.368 . S
C724 C718 1.368 . S
C724 C723 1.523 . S
C725 C709 1.429 . S
C725 C721 1.429 . S
C725 C726 1.523 . S
C726 C710 1.368 . S
C726 C722 1.368 . S
C726 C725 1.523 . S
H727 C702 0.950 . S
H728 C704 0.950 . S
H729 C705 0.949 . S
H730 C707 0.950 . S
H731 C709 0.950 . S
C732 C733 1.349 . S
C732 C734 1.327 . S
C732 H757 0.950 . S
C733 C732 1.349 . S
C733 C749 1.349 . S
C734 C732 1.327 . S
C734 C753 1.429 . S
C734 H758 0.950 . S
C735 C752 1.574 . S
C735 C754 1.368 . S
C735 H759 0.949 . S
H736 C740 0.931 1_655 S
C737 C738 1.349 . S
C737 C739 1.327 . S
C737 H760 0.950 . S
C738 C737 1.349 . S
C738 C750 1.349 1_455 S
C739 C737 1.327 . S
C739 C755 1.429 . S
C739 H761 0.950 . S
C740 H736 0.931 1_455 S
C740 C748 1.574 . S
C740 C756 1.368 . S
H741 C749 0.950 . S
H742 C747 0.950 . S
H743 C748 0.949 . S
H744 C750 0.950 . S
H745 C751 0.950 . S
H746 C752 0.949 . S
C747 H742 0.950 . S
C747 C749 1.327 . S
C747 C753 1.429 . S
C748 C740 1.574 . S
C748 H743 0.949 . S
C748 C754 1.368 . S
C749 C733 1.349 . S
C749 H741 0.950 . S
C749 C747 1.327 . S
C750 C738 1.349 1_655 S
C750 H744 0.950 . S
C750 C751 1.327 . S
C751 H745 0.950 . S
C751 C750 1.327 . S
C751 C755 1.429 1_655 S
C752 C735 1.574 . S
C752 H746 0.949 . S
C752 C756 1.368 . S
C753 C734 1.429 . S
C753 C747 1.429 . S
C753 C754 1.523 . S
C754 C735 1.368 . S
C754 C748 1.368 . S
C754 C753 1.523 . S
C755 C739 1.429 . S
C755 C751 1.429 1_455 S
C755 C756 1.523 . S
C756 C740 1.368 . S
C756 C752 1.368 . S
C756 C755 1.523 . S
H757 C732 0.950 . S
H758 C734 0.950 . S
H759 C735 0.949 . S
H760 C737 0.950 . S
H761 C739 0.950 . S
C408 C272 1.388 . S
C403 C29 1.385 . S
C433 C137 1.389 . S
C438 C311 1.417 . S
C463 C225 1.388 . S
C468 C378 1.406 . S
C493 C49 1.389 . S
C498 C279 1.417 1_455 S
C528 C332 1.389 1_545 S
C523 C117 1.385 . S
C553 C205 1.388 . S
C558 C357 1.396 . S
C588 C318 1.399 . S
C583 C233 1.392 . S
C613 C57 1.389 . S
C618 C371 1.407 . S
C648 C286 1.403 1_655 S
C643 C108 1.392 . S
C678 C325 1.403 1_565 S
C673 C196 1.385 . S
C708 C364 1.399 . S
C703 C20 1.385 . S
C733 C145 1.389 . S
C738 C265 1.396 . S
