# Generated by pormake.
# Topology wbl, (4,4)-cn, num edge types: 1
# Building blocks:
#     Node 0, Type 0, BuildingBlock: MIFKUJ_clean_linker_1, # of connection points: 4
#     Node 1, Type 0, BuildingBlock: MIFKUJ_clean_linker_1, # of connection points: 4
#     Node 2, Type 0, BuildingBlock: MIFKUJ_clean_linker_1, # of connection points: 4
#     Node 3, Type 0, BuildingBlock: MIFKUJ_clean_linker_1, # of connection points: 4
#     Node 4, Type 0, BuildingBlock: MIFKUJ_clean_linker_1, # of connection points: 4
#     Node 5, Type 0, BuildingBlock: MIFKUJ_clean_linker_1, # of connection points: 4
#     Node 6, Type 0, BuildingBlock: MIFKUJ_clean_linker_1, # of connection points: 4
#     Node 7, Type 0, BuildingBlock: MIFKUJ_clean_linker_1, # of connection points: 4
#     Node 8, Type 1, BuildingBlock: CEKHIL_clean_sbu_0, # of connection points: 4
#     Node 9, Type 1, BuildingBlock: CEKHIL_clean_sbu_0, # of connection points: 4
#     Node 10, Type 1, BuildingBlock: CEKHIL_clean_sbu_0, # of connection points: 4
#     Node 11, Type 1, BuildingBlock: CEKHIL_clean_sbu_0, # of connection points: 4
#     Node 12, Type 1, BuildingBlock: CEKHIL_clean_sbu_0, # of connection points: 4
#     Node 13, Type 1, BuildingBlock: CEKHIL_clean_sbu_0, # of connection points: 4
#     Node 14, Type 1, BuildingBlock: CEKHIL_clean_sbu_0, # of connection points: 4
#     Node 15, Type 1, BuildingBlock: CEKHIL_clean_sbu_0, # of connection points: 4
#     Edge 16, Type (0, 1), BuildingBlock: KIFKEQ_clean_linker_1, # of connection points: 2
#     Edge 17, Type (0, 1), BuildingBlock: KIFKEQ_clean_linker_1, # of connection points: 2
#     Edge 18, Type (0, 1), BuildingBlock: KIFKEQ_clean_linker_1, # of connection points: 2
#     Edge 19, Type (0, 1), BuildingBlock: KIFKEQ_clean_linker_1, # of connection points: 2
#     Edge 20, Type (0, 1), BuildingBlock: KIFKEQ_clean_linker_1, # of connection points: 2
#     Edge 21, Type (0, 1), BuildingBlock: KIFKEQ_clean_linker_1, # of connection points: 2
#     Edge 22, Type (0, 1), BuildingBlock: KIFKEQ_clean_linker_1, # of connection points: 2
#     Edge 23, Type (0, 1), BuildingBlock: KIFKEQ_clean_linker_1, # of connection points: 2
#     Edge 24, Type (0, 1), BuildingBlock: KIFKEQ_clean_linker_1, # of connection points: 2
#     Edge 25, Type (0, 1), BuildingBlock: KIFKEQ_clean_linker_1, # of connection points: 2
#     Edge 26, Type (0, 1), BuildingBlock: KIFKEQ_clean_linker_1, # of connection points: 2
#     Edge 27, Type (0, 1), BuildingBlock: KIFKEQ_clean_linker_1, # of connection points: 2
#     Edge 28, Type (0, 1), BuildingBlock: KIFKEQ_clean_linker_1, # of connection points: 2
#     Edge 29, Type (0, 1), BuildingBlock: KIFKEQ_clean_linker_1, # of connection points: 2
#     Edge 30, Type (0, 1), BuildingBlock: KIFKEQ_clean_linker_1, # of connection points: 2
#     Edge 31, Type (0, 1), BuildingBlock: KIFKEQ_clean_linker_1, # of connection points: 2
#     Edge 32, Type (0, 1), BuildingBlock: KIFKEQ_clean_linker_1, # of connection points: 2
#     Edge 33, Type (0, 1), BuildingBlock: KIFKEQ_clean_linker_1, # of connection points: 2
#     Edge 34, Type (0, 1), BuildingBlock: KIFKEQ_clean_linker_1, # of connection points: 2
#     Edge 35, Type (0, 1), BuildingBlock: KIFKEQ_clean_linker_1, # of connection points: 2
#     Edge 36, Type (0, 1), BuildingBlock: KIFKEQ_clean_linker_1, # of connection points: 2
#     Edge 37, Type (0, 1), BuildingBlock: KIFKEQ_clean_linker_1, # of connection points: 2
#     Edge 38, Type (0, 1), BuildingBlock: KIFKEQ_clean_linker_1, # of connection points: 2
#     Edge 39, Type (0, 1), BuildingBlock: KIFKEQ_clean_linker_1, # of connection points: 2
#     Edge 40, Type (0, 1), BuildingBlock: KIFKEQ_clean_linker_1, # of connection points: 2
#     Edge 41, Type (0, 1), BuildingBlock: KIFKEQ_clean_linker_1, # of connection points: 2
#     Edge 42, Type (0, 1), BuildingBlock: KIFKEQ_clean_linker_1, # of connection points: 2
#     Edge 43, Type (0, 1), BuildingBlock: KIFKEQ_clean_linker_1, # of connection points: 2
#     Edge 44, Type (0, 1), BuildingBlock: KIFKEQ_clean_linker_1, # of connection points: 2
#     Edge 45, Type (0, 1), BuildingBlock: KIFKEQ_clean_linker_1, # of connection points: 2
#     Edge 46, Type (0, 1), BuildingBlock: KIFKEQ_clean_linker_1, # of connection points: 2
#     Edge 47, Type (0, 1), BuildingBlock: KIFKEQ_clean_linker_1, # of connection points: 2
# Relax obj value: 0.158
# Max RMSD: 0.158
# Mean RMSD: 0.137
data_MOF--net-wbl--node1-CEKHIL_clean_sbu_0--node2-MIFKUJ_clean_linker_1--edge1-KIFKEQ_clean_linker_1
_symmetry_space_group_name_H-M    P1
_symmetry_Int_Tables_number       1
_symmetry_cell_setting            triclinic
loop_
_symmetry_equiv_pos_as_xyz
'x, y, z'
_cell_length_a     46.453938
_cell_length_b     46.661538
_cell_length_c     76.23152
_cell_angle_alpha  90.348724
_cell_angle_beta   90.103566
_cell_angle_gamma 89.978676
loop_
_atom_site_label
_atom_site_type_symbol
_atom_site_fract_x
_atom_site_fract_y
_atom_site_fract_z
_atom_type_partial_charge
H0 H 0.00926 0.07571 0.3487 0.0
H1 H 0.97695 0.10349 0.36742 0.0
H2 H 0.90432 0.05593 0.34697 0.0
H3 H 0.93704 0.02773 0.32843 0.0
H4 H 0.01605 0.01636 0.35043 0.0
H5 H 0.98456 0.08775 0.30851 0.0
H6 H 0.94189 0.11182 0.29705 0.0
H7 H 0.91448 0.0324 0.27276 0.0
H8 H 0.95631 0.00813 0.28516 0.0
H9 H 0.03052 0.94661 0.29024 0.0
H10 H 0.07009 0.91817 0.27746 0.0
H11 H 0.13064 0.98345 0.29352 0.0
H12 H 0.0914 0.01119 0.30667 0.0
H13 H 0.01466 0.01122 0.28537 0.0
H14 H 0.04356 0.93967 0.32603 0.0
H15 H 0.07367 0.9103 0.34494 0.0
H16 H 0.09977 0.98638 0.37353 0.0
H17 H 0.0715 0.01573 0.35362 0.0
C18 C 0.97554 0.04972 0.33718 0.0
C19 C 0.98634 0.07145 0.34814 0.0
C20 C 0.9678 0.0875 0.35869 0.0
C21 C 0.93804 0.08201 0.35862 0.0
C22 C 0.92716 0.06057 0.34736 0.0
C23 C 0.94577 0.04455 0.33672 0.0
C24 C 0.9958 0.03173 0.32692 0.0
C25 C 0.01607 0.01556 0.3362 0.0
C26 C 0.99496 0.02997 0.30838 0.0
C27 C 0.97312 0.04595 0.29814 0.0
C28 C 0.9695 0.07562 0.30055 0.0
C29 C 0.94522 0.08944 0.29382 0.0
C30 C 0.92442 0.0739 0.28431 0.0
C31 C 0.92969 0.04482 0.28045 0.0
C32 C 0.95377 0.03096 0.28737 0.0
C33 C 0.05818 0.98091 0.29935 0.0
C34 C 0.0523 0.95487 0.29075 0.0
C35 C 0.07481 0.93863 0.2836 0.0
C36 C 0.10326 0.94874 0.28453 0.0
C37 C 0.10883 0.97535 0.29254 0.0
C38 C 0.08651 0.99118 0.30001 0.0
C39 C 0.03543 0.9965 0.30897 0.0
C40 C 0.01478 0.01221 0.29959 0.0
C41 C 0.03571 0.99774 0.32749 0.0
C42 C 0.05559 0.98001 0.33819 0.0
C43 C 0.05658 0.95013 0.33596 0.0
C44 C 0.07346 0.93326 0.34703 0.0
C45 C 0.08915 0.94584 0.36089 0.0
C46 C 0.08849 0.97586 0.36286 0.0
C47 C 0.07201 0.99273 0.35159 0.0
H48 H 0.00211 0.45199 0.54106 0.0
H49 H 0.97634 0.41139 0.5282 0.0
H50 H 0.89624 0.44491 0.54857 0.0
H51 H 0.92231 0.48544 0.56153 0.0
H52 H -5e-05 0.51154 0.53928 0.0
H53 H 0.98285 0.43636 0.58229 0.0
H54 H 0.95403 0.40383 0.60023 0.0
H55 H 0.90695 0.47628 0.62109 0.0
H56 H 0.9353 0.5085 0.60282 0.0
H57 H 0.01011 0.5923 0.58257 0.0
H58 H 0.03935 0.6253 0.60054 0.0
H59 H 0.0869 0.55322 0.62094 0.0
H60 H 0.05759 0.52055 0.60321 0.0
H61 H 0.99489 0.51577 0.60431 0.0
H62 H 0.9991 0.57262 0.53908 0.0
H63 H 0.02886 0.60987 0.52593 0.0
H64 H 0.10408 0.57453 0.55134 0.0
H65 H 0.07402 0.53739 0.56454 0.0
C66 C 0.96418 0.47157 0.55238 0.0
C67 C 0.97892 0.45092 0.54242 0.0
C68 C 0.96412 0.42771 0.53507 0.0
C69 C 0.93422 0.42476 0.53748 0.0
C70 C 0.91931 0.44629 0.54673 0.0
C71 C 0.93415 0.46953 0.55405 0.0
C72 C 0.98062 0.49342 0.56242 0.0
C73 C 0.99873 0.51251 0.55348 0.0
C74 C 0.97916 0.49474 0.58095 0.0
C75 C 0.96111 0.47481 0.59121 0.0
C76 C 0.96601 0.44513 0.59054 0.0
C77 C 0.94963 0.42661 0.60084 0.0
C78 C 0.92815 0.43748 0.61203 0.0
C79 C 0.92297 0.46718 0.61239 0.0
C80 C 0.93937 0.48566 0.60212 0.0
C81 C 0.03173 0.55404 0.59164 0.0
C82 C 0.02694 0.58373 0.59089 0.0
C83 C 0.0436 0.6025 0.6011 0.0
C84 C 0.06554 0.59182 0.61198 0.0
C85 C 0.07046 0.5621 0.61246 0.0
C86 C 0.05358 0.54339 0.60249 0.0
C87 C 0.01402 0.53381 0.5812 0.0
C88 C 0.99582 0.51495 0.59009 0.0
C89 C 0.01552 0.53264 0.5627 0.0
C90 C 0.03431 0.5525 0.55291 0.0
C91 C 0.02209 0.57259 0.54153 0.0
C92 C 0.03917 0.59383 0.534 0.0
C93 C 0.06884 0.59527 0.53768 0.0
C94 C 0.08124 0.57427 0.54847 0.0
C95 C 0.06413 0.55299 0.55596 0.0
H96 H 0.50309 0.57524 0.84168 0.0
H97 H 0.47761 0.60773 0.86146 0.0
H98 H 0.40233 0.55349 0.8585 0.0
H99 H 0.42794 0.52136 0.83815 0.0
H100 H 0.5078 0.51316 0.85225 0.0
H101 H 0.47176 0.57645 0.80538 0.0
H102 H 0.42808 0.59864 0.79361 0.0
H103 H 0.39375 0.51464 0.78183 0.0
H104 H 0.43706 0.49263 0.79407 0.0
H105 H 0.51839 0.43587 0.79308 0.0
H106 H 0.55893 0.40587 0.78316 0.0
H107 H 0.61818 0.47272 0.79877 0.0
H108 H 0.57801 0.50201 0.80883 0.0
H109 H 0.49819 0.49691 0.78807 0.0
H110 H 0.53423 0.43268 0.83011 0.0
H111 H 0.56797 0.40615 0.84822 0.0
H112 H 0.59355 0.48525 0.87375 0.0
H113 H 0.56184 0.51186 0.85432 0.0
C114 C 0.46743 0.54589 0.83861 0.0
C115 C 0.48091 0.57067 0.84503 0.0
C116 C 0.46635 0.58911 0.85638 0.0
C117 C 0.43813 0.58289 0.8618 0.0
C118 C 0.42402 0.5589 0.85453 0.0
C119 C 0.43862 0.54047 0.84299 0.0
C120 C 0.4848 0.52458 0.82885 0.0
C121 C 0.50597 0.50977 0.83819 0.0
C122 C 0.48118 0.51925 0.81071 0.0
C123 C 0.45741 0.53288 0.80084 0.0
C124 C 0.45493 0.56286 0.80007 0.0
C125 C 0.43005 0.57552 0.79325 0.0
C126 C 0.40729 0.55838 0.78704 0.0
C127 C 0.41068 0.5284 0.78683 0.0
C128 C 0.43553 0.51579 0.79365 0.0
C129 C 0.54531 0.47097 0.80185 0.0
C130 C 0.5401 0.44422 0.79393 0.0
C131 C 0.56325 0.42708 0.78837 0.0
C132 C 0.59177 0.43665 0.79063 0.0
C133 C 0.59654 0.46438 0.79733 0.0
C134 C 0.57359 0.48131 0.80289 0.0
C135 C 0.5224 0.48663 0.8114 0.0
C136 C 0.50012 0.50024 0.80211 0.0
C137 C 0.52455 0.4905 0.82979 0.0
C138 C 0.54572 0.47439 0.84061 0.0
C139 C 0.54778 0.44443 0.8392 0.0
C140 C 0.56679 0.42918 0.84985 0.0
C141 C 0.58353 0.4434 0.86261 0.0
C142 C 0.58153 0.47347 0.8639 0.0
C143 C 0.563 0.48876 0.85295 0.0
H144 H 0.50207 0.95471 0.03814 0.0
H145 H 0.47754 0.91294 0.02582 0.0
H146 H 0.39903 0.93852 0.05196 0.0
H147 H 0.42331 0.98113 0.06339 0.0
H148 H 0.49844 0.01261 0.03905 0.0
H149 H 0.48613 0.93451 0.08102 0.0
H150 H 0.4599 0.90039 0.09936 0.0
H151 H 0.41223 0.97052 0.12258 0.0
H152 H 0.43798 0.00428 0.10397 0.0
H153 H 0.50096 0.07419 0.10474 0.0
H154 H 0.53391 0.10025 0.12438 0.0
H155 H 0.60608 0.056 0.10109 0.0
H156 H 0.57317 0.03048 0.08121 0.0
H157 H 0.49756 0.01259 0.10419 0.0
H158 H 0.5077 0.08995 0.06576 0.0
H159 H 0.53503 0.12785 0.05165 0.0
H160 H 0.58461 0.0643 0.02338 0.0
H161 H 0.55736 0.02613 0.03801 0.0
C162 C 0.46472 0.97067 0.05203 0.0
C163 C 0.47935 0.95179 0.04078 0.0
C164 C 0.46536 0.92772 0.03391 0.0
C165 C 0.4365 0.92195 0.03827 0.0
C166 C 0.42124 0.94222 0.04833 0.0
C167 C 0.43518 0.96649 0.05502 0.0
C168 C 0.48114 0.99245 0.06218 0.0
C169 C 0.49836 0.01244 0.05328 0.0
C170 C 0.48057 0.99287 0.08076 0.0
C171 C 0.46386 0.97189 0.0911 0.0
C172 C 0.4697 0.94242 0.08988 0.0
C173 C 0.45482 0.92299 0.10042 0.0
C174 C 0.43392 0.93275 0.11238 0.0
C175 C 0.42782 0.96224 0.1133 0.0
C176 C 0.44271 0.98161 0.10281 0.0
C177 C 0.53469 0.05048 0.09157 0.0
C178 C 0.52392 0.07057 0.10365 0.0
C179 C 0.54271 0.08551 0.11475 0.0
C180 C 0.57244 0.08008 0.11416 0.0
C181 C 0.58324 0.06055 0.10172 0.0
C182 C 0.56451 0.04604 0.0904 0.0
C183 C 0.51482 0.0324 0.08111 0.0
C184 C 0.49728 0.01292 0.08996 0.0
C185 C 0.51488 0.03269 0.06259 0.0
C186 C 0.53062 0.05526 0.053 0.0
C187 C 0.52444 0.08414 0.05652 0.0
C188 C 0.53996 0.10579 0.04834 0.0
C189 C 0.56192 0.09907 0.03634 0.0
C190 C 0.56795 0.07009 0.03266 0.0
C191 C 0.55227 0.04832 0.04087 0.0
H192 H 0.00342 0.57032 0.89678 0.0
H193 H 0.03594 0.59669 0.87757 0.0
H194 H 0.10741 0.5458 0.89604 0.0
H195 H 0.07458 0.51946 0.91544 0.0
H196 H 0.99473 0.50925 0.8964 0.0
H197 H 0.03199 0.58496 0.93307 0.0
H198 H 0.07448 0.60939 0.94411 0.0
H199 H 0.09491 0.53535 0.97576 0.0
H200 H 0.05408 0.50996 0.96302 0.0
H201 H 0.97974 0.45819 0.96533 0.0
H202 H 0.94013 0.43546 0.98144 0.0
H203 H 0.87896 0.48571 0.95186 0.0
H204 H 0.91833 0.5087 0.93637 0.0
H205 H 0.9976 0.51476 0.96141 0.0
H206 H 0.96265 0.43875 0.92549 0.0
H207 H 0.93145 0.40788 0.90781 0.0
H208 H 0.90994 0.48012 0.87501 0.0
H209 H 0.93977 0.51105 0.89331 0.0
C210 C 0.03665 0.54303 0.9075 0.0
C211 C 0.02612 0.56493 0.89674 0.0
C212 C 0.04474 0.58014 0.88593 0.0
C213 C 0.07422 0.57343 0.88545 0.0
C214 C 0.08478 0.55139 0.8962 0.0
C215 C 0.06613 0.53639 0.90724 0.0
C216 C 0.01641 0.52716 0.91882 0.0
C217 C 0.99509 0.51067 0.91061 0.0
C218 C 0.01778 0.52837 0.93738 0.0
C219 C 0.04046 0.54515 0.94662 0.0
C220 C 0.04585 0.57384 0.94222 0.0
C221 C 0.07002 0.58804 0.94885 0.0
C222 C 0.0888 0.57428 0.96063 0.0
C223 C 0.08176 0.54639 0.96622 0.0
C224 C 0.05805 0.53191 0.95915 0.0
C225 C 0.95191 0.48494 0.94958 0.0
C226 C 0.95777 0.4645 0.96255 0.0
C227 C 0.93515 0.45139 0.97161 0.0
C228 C 0.9064 0.4588 0.96795 0.0
C229 C 0.90082 0.47979 0.95522 0.0
C230 C 0.92331 0.4928 0.94623 0.0
C231 C 0.9753 0.49742 0.9389 0.0
C232 C 0.99722 0.51327 0.94721 0.0
C233 C 0.97466 0.49554 0.92037 0.0
C234 C 0.95359 0.47728 0.91075 0.0
C235 C 0.95056 0.4481 0.91479 0.0
C236 C 0.93291 0.43039 0.90454 0.0
C237 C 0.91825 0.4414 0.88988 0.0
C238 C 0.92048 0.47088 0.88632 0.0
C239 C 0.93789 0.48859 0.89665 0.0
H240 H 0.50065 0.55733 0.20962 0.0
H241 H 0.47409 0.59622 0.22379 0.0
H242 H 0.3946 0.56306 0.20224 0.0
H243 H 0.42139 0.52413 0.18808 0.0
H244 H 0.49949 0.49843 0.21031 0.0
H245 H 0.48078 0.57354 0.16759 0.0
H246 H 0.45264 0.60594 0.14906 0.0
H247 H 0.40584 0.53338 0.12805 0.0
H248 H 0.43345 0.50136 0.14686 0.0
H249 H 0.48866 0.43803 0.14392 0.0
H250 H 0.51473 0.4064 0.12413 0.0
H251 H 0.59469 0.42965 0.14971 0.0
H252 H 0.56857 0.46314 0.16846 0.0
H253 H 0.49129 0.49319 0.14545 0.0
H254 H 0.4977 0.42099 0.1911 0.0
H255 H 0.5254 0.38288 0.20519 0.0
H256 H 0.59244 0.44355 0.2181 0.0
H257 H 0.56409 0.48201 0.20431 0.0
C258 C 0.46307 0.53812 0.19759 0.0
C259 C 0.47745 0.55813 0.20823 0.0
C260 C 0.46219 0.5803 0.21636 0.0
C261 C 0.43222 0.58281 0.21406 0.0
C262 C 0.4177 0.56193 0.20406 0.0
C263 C 0.43297 0.53969 0.19598 0.0
C264 C 0.47973 0.51678 0.18732 0.0
C265 C 0.49795 0.49755 0.19612 0.0
C266 C 0.47728 0.51506 0.16884 0.0
C267 C 0.45914 0.53506 0.15861 0.0
C268 C 0.46409 0.56473 0.15921 0.0
C269 C 0.44813 0.58318 0.14856 0.0
C270 C 0.42699 0.57222 0.1371 0.0
C271 C 0.42162 0.54257 0.13691 0.0
C272 C 0.43759 0.52419 0.14752 0.0
C273 C 0.52654 0.45291 0.1578 0.0
C274 C 0.5118 0.43623 0.14532 0.0
C275 C 0.5268 0.41776 0.13414 0.0
C276 C 0.55696 0.41524 0.13527 0.0
C277 C 0.57156 0.4312 0.14826 0.0
C278 C 0.55655 0.45008 0.15924 0.0
C279 C 0.51063 0.47457 0.16839 0.0
C280 C 0.4928 0.49407 0.15965 0.0
C281 C 0.51304 0.47624 0.18686 0.0
C282 C 0.52892 0.45417 0.19672 0.0
C283 C 0.51814 0.42616 0.19722 0.0
C284 C 0.53393 0.40449 0.20525 0.0
C285 C 0.56098 0.4104 0.21269 0.0
C286 C 0.57164 0.43857 0.21241 0.0
C287 C 0.55547 0.46045 0.20467 0.0
H288 H 0.50918 0.94024 0.40801 0.0
H289 H 0.48328 0.90998 0.38714 0.0
H290 H 0.40745 0.96271 0.39359 0.0
H291 H 0.43351 0.99248 0.41512 0.0
H292 H 0.51308 0.00317 0.40069 0.0
H293 H 0.47858 0.93343 0.44289 0.0
H294 H 0.43599 0.90893 0.45396 0.0
H295 H 0.40464 0.98921 0.47518 0.0
H296 H 0.44637 0.01383 0.46303 0.0
H297 H 0.52478 0.0756 0.46088 0.0
H298 H 0.56514 0.102 0.4745 0.0
H299 H 0.62272 0.0331 0.46004 0.0
H300 H 0.58281 0.00737 0.4464 0.0
H301 H 0.50512 0.01125 0.46545 0.0
H302 H 0.53942 0.08102 0.42507 0.0
H303 H 0.57116 0.10909 0.40643 0.0
H304 H 0.59795 0.03135 0.37988 0.0
H305 H 0.56794 0.00338 0.39947 0.0
C306 C 0.47328 0.96862 0.41295 0.0
C307 C 0.48682 0.94496 0.40516 0.0
C308 C 0.47202 0.92781 0.39317 0.0
C309 C 0.44348 0.9343 0.38843 0.0
C310 C 0.42939 0.95713 0.39699 0.0
C311 C 0.44423 0.97421 0.40921 0.0
C312 C 0.49075 0.98868 0.42362 0.0
C313 C 0.51152 0.00485 0.41486 0.0
C314 C 0.4878 0.99143 0.44201 0.0
C315 C 0.46514 0.97562 0.45161 0.0
C316 C 0.46252 0.94574 0.44994 0.0
C317 C 0.43832 0.93167 0.45651 0.0
C318 C 0.41656 0.94719 0.46516 0.0
C319 C 0.4206 0.97673 0.46815 0.0
C320 C 0.44459 0.99082 0.46137 0.0
C321 C 0.55097 0.0396 0.45269 0.0
C322 C 0.54606 0.0661 0.46098 0.0
C323 C 0.56905 0.08118 0.46862 0.0
C324 C 0.59696 0.06949 0.4684 0.0
C325 C 0.60138 0.04244 0.46065 0.0
C326 C 0.57865 0.02773 0.45282 0.0
C327 C 0.5282 0.02503 0.44247 0.0
C328 C 0.50656 0.00979 0.45127 0.0
C329 C 0.53022 0.02311 0.42401 0.0
C330 C 0.55144 0.04001 0.41381 0.0
C331 C 0.55289 0.06994 0.41565 0.0
C332 C 0.57074 0.08604 0.40474 0.0
C333 C 0.58705 0.07261 0.39149 0.0
C334 C 0.58615 0.04252 0.39006 0.0
C335 C 0.56867 0.02644 0.40114 0.0
H336 H 0.01307 0.06684 0.70446 0.0
H337 H 0.99107 0.11099 0.71553 0.0
H338 H 0.9066 0.07626 0.70483 0.0
H339 H 0.92878 0.03186 0.69408 0.0
H340 H 0.00997 0.00724 0.71142 0.0
H341 H 0.98723 0.07341 0.66229 0.0
H342 H 0.9584 0.1011 0.6414 0.0
H343 H 0.90011 0.02941 0.63576 0.0
H344 H 0.92952 0.00172 0.65612 0.0
H345 H 0.99693 0.92913 0.65368 0.0
H346 H 0.0253 0.89792 0.63452 0.0
H347 H 0.09945 0.95265 0.64283 0.0
H348 H 0.07136 0.98219 0.66288 0.0
H349 H 0.99084 0.99214 0.6479 0.0
H350 H 0.01407 0.92389 0.68971 0.0
H351 H 0.04806 0.88903 0.70142 0.0
H352 H 0.10118 0.95771 0.7214 0.0
H353 H 0.06745 0.99302 0.70887 0.0
C354 C 0.97258 0.04623 0.69829 0.0
C355 C 0.98981 0.06846 0.7049 0.0
C356 C 0.97721 0.09376 0.71105 0.0
C357 C 0.94711 0.09724 0.71078 0.0
C358 C 0.92982 0.0742 0.70522 0.0
C359 C 0.94247 0.0489 0.69902 0.0
C360 C 0.98614 0.02195 0.68881 0.0
C361 C 0.00586 0.00401 0.69754 0.0
C362 C 0.98024 0.01709 0.67083 0.0
C363 C 0.96054 0.0355 0.6606 0.0
C364 C 0.96792 0.06394 0.65676 0.0
C365 C 0.95136 0.07976 0.64489 0.0
C366 C 0.92719 0.0673 0.63671 0.0
C367 C 0.91895 0.03942 0.64152 0.0
C368 C 0.93561 0.0236 0.65322 0.0
C369 C 0.03211 0.95789 0.65961 0.0
C370 C 0.01944 0.934 0.6515 0.0
C371 C 0.03571 0.91633 0.64046 0.0
C372 C 0.06477 0.92274 0.63687 0.0
C373 C 0.07741 0.94649 0.64542 0.0
C374 C 0.0613 0.96369 0.65678 0.0
C375 C 0.01468 0.97781 0.67038 0.0
C376 C 0.99453 0.99508 0.66186 0.0
C377 C 0.01979 0.98155 0.68853 0.0
C378 C 0.03853 0.96107 0.69806 0.0
C379 C 0.03305 0.93157 0.69654 0.0
C380 C 0.05245 0.91166 0.70322 0.0
C381 C 0.07739 0.92079 0.71199 0.0
C382 C 0.08214 0.95028 0.71453 0.0
C383 C 0.06286 0.97036 0.7075 0.0
Co384 Co 0.32483 0.67411 0.00354 0.0
O385 O 0.30114 0.64178 0.99754 0.0
O386 O 0.28813 0.68724 0.99456 0.0
C387 C 0.33897 0.65764 0.02993 0.0
O388 O 0.34321 0.71307 0.0089 0.0
Co389 Co 0.39072 0.66713 0.00961 0.0
O390 O 0.38629 0.70475 0.02138 0.0
C391 C 0.36731 0.66708 0.97347 0.0
C392 C 0.28167 0.66022 0.99297 0.0
C393 C 0.36559 0.72149 0.01753 0.0
O394 O 0.3419 0.67305 0.97915 0.0
O395 O 0.389 0.66272 0.98349 0.0
O396 O 0.31431 0.67051 0.02828 0.0
O397 O 0.35286 0.65316 0.01553 0.0
Co398 Co 0.33353 0.83468 0.24618 0.0
O399 O 0.3104 0.86845 0.24886 0.0
O400 O 0.29593 0.82451 0.25525 0.0
C401 C 0.34959 0.84515 0.21904 0.0
O402 O 0.35125 0.79462 0.24444 0.0
Co403 Co 0.40001 0.84018 0.2415 0.0
O404 O 0.39787 0.79864 0.23671 0.0
C405 C 0.37416 0.84743 0.27666 0.0
C406 C 0.2901 0.85176 0.25443 0.0
C407 C 0.37567 0.78361 0.24002 0.0
O408 O 0.34911 0.84039 0.27079 0.0
O409 O 0.39641 0.85013 0.26694 0.0
O410 O 0.32458 0.83319 0.22107 0.0
O411 O 0.36268 0.85243 0.23331 0.0
Co412 Co 0.17032 0.82735 0.49448 0.0
O413 O 0.13778 0.80251 0.49725 0.0
O414 O 0.18294 0.79035 0.50293 0.0
C415 C 0.15766 0.84382 0.46787 0.0
O416 O 0.20956 0.8469 0.49226 0.0
Co417 Co 0.16231 0.89327 0.4913 0.0
O418 O 0.2012 0.89052 0.48092 0.0
C419 C 0.15774 0.86599 0.52599 0.0
C420 C 0.15591 0.78308 0.50233 0.0
C421 C 0.21813 0.86997 0.48466 0.0
O422 O 0.16519 0.84167 0.51935 0.0
O423 O 0.15423 0.88873 0.51692 0.0
O424 O 0.17074 0.81931 0.46928 0.0
O425 O 0.15056 0.85609 0.48246 0.0
Co426 Co 0.16886 0.68906 0.75479 0.0
O427 O 0.14047 0.7189 0.75366 0.0
O428 O 0.18657 0.72452 0.74716 0.0
C429 C 0.15528 0.67208 0.78117 0.0
O430 O 0.20467 0.66347 0.75549 0.0
Co431 Co 0.14986 0.62492 0.75636 0.0
O432 O 0.19082 0.61855 0.7621 0.0
C433 C 0.14913 0.65529 0.72249 0.0
C434 C 0.16107 0.7358 0.74877 0.0
C435 C 0.21034 0.63724 0.75951 0.0
O436 O 0.16045 0.6778 0.72953 0.0
O437 O 0.14194 0.633 0.73113 0.0
O438 O 0.17192 0.69441 0.78027 0.0
O439 O 0.14549 0.66273 0.76638 0.0
Co440 Co 0.84386 0.1864 0.49373 0.0
O441 O 0.8757 0.21191 0.4975 0.0
O442 O 0.83021 0.22262 0.50315 0.0
C443 C 0.8574 0.17196 0.46664 0.0
O444 O 0.80519 0.16588 0.49075 0.0
Co445 Co 0.85427 0.12095 0.48802 0.0
O446 O 0.81391 0.12185 0.47984 0.0
C447 C 0.85573 0.14542 0.5239 0.0
C448 C 0.85704 0.23065 0.50292 0.0
C449 C 0.79658 0.14195 0.484 0.0
O450 O 0.84876 0.17042 0.51822 0.0
O451 O 0.86012 0.12367 0.51395 0.0
O452 O 0.84352 0.19592 0.46869 0.0
O453 O 0.86465 0.15914 0.48091 0.0
Co454 Co 0.82489 0.33998 0.74557 0.0
O455 O 0.79778 0.3702 0.74972 0.0
O456 O 0.78932 0.32431 0.75488 0.0
C457 C 0.83833 0.35448 0.71861 0.0
O458 O 0.84802 0.30293 0.74223 0.0
Co459 Co 0.88973 0.35584 0.74049 0.0
O460 O 0.89296 0.31498 0.73391 0.0
C461 C 0.86437 0.35683 0.77596 0.0
C462 C 0.78017 0.35069 0.75521 0.0
C463 C 0.87359 0.29632 0.73695 0.0
O464 O 0.84083 0.34568 0.77011 0.0
O465 O 0.88525 0.36429 0.76605 0.0
O466 O 0.81506 0.33937 0.7205 0.0
O467 O 0.85069 0.36243 0.73297 0.0
Co468 Co 0.67187 0.32485 0.99302 0.0
O469 O 0.64116 0.29766 0.99087 0.0
O470 O 0.68472 0.28759 0.00103 0.0
C471 C 0.66585 0.34464 0.96638 0.0
O472 O 0.70915 0.34736 0.99615 0.0
Co473 Co 0.65709 0.39001 0.99275 0.0
O474 O 0.69946 0.3946 0.99387 0.0
C475 C 0.6417 0.35496 0.023 0.0
C476 C 0.6589 0.2788 0.99706 0.0
C477 C 0.717 0.37382 0.99582 0.0
O478 O 0.65874 0.33508 0.01757 0.0
O479 O 0.63528 0.377 0.0139 0.0
O480 O 0.68018 0.32084 0.96792 0.0
O481 O 0.65355 0.3538 0.98048 0.0
Co482 Co 0.6727 0.18315 0.25655 0.0
O483 O 0.63888 0.20582 0.25273 0.0
O484 O 0.68345 0.22042 0.24762 0.0
C485 C 0.66003 0.16754 0.28334 0.0
O486 O 0.71291 0.16599 0.25968 0.0
Co487 Co 0.6684 0.11714 0.26111 0.0
O488 O 0.70687 0.12255 0.27175 0.0
C489 C 0.66367 0.1421 0.22575 0.0
C490 C 0.656 0.22603 0.24758 0.0
C491 C 0.72269 0.14378 0.2677 0.0
O492 O 0.66923 0.16722 0.23193 0.0
O493 O 0.6613 0.11969 0.23523 0.0
O494 O 0.6718 0.1926 0.28155 0.0
O495 O 0.65415 0.15403 0.26894 0.0
H496 H 0.14366 0.96482 0.26095 0.0
H497 H 0.11776 0.89407 0.29345 0.0
H498 H 0.18734 0.93913 0.25277 0.0
H499 H 0.1622 0.86858 0.28593 0.0
H500 H 0.23874 0.82331 0.2585 0.0
H501 H 0.19141 0.84467 0.26418 0.0
H502 H 0.23087 0.92846 0.26727 0.0
H503 H 0.27741 0.90739 0.26101 0.0
C504 C 0.14735 0.94362 0.26624 0.0
C505 C 0.12757 0.93143 0.27786 0.0
C506 C 0.17245 0.92898 0.26171 0.0
C507 C 0.17865 0.90201 0.269 0.0
C508 C 0.1581 0.88922 0.28001 0.0
C509 C 0.13269 0.90378 0.28434 0.0
C510 C 0.23715 0.84627 0.26046 0.0
C511 C 0.26169 0.86372 0.25916 0.0
C512 C 0.21009 0.85851 0.26373 0.0
C513 C 0.20719 0.88838 0.26588 0.0
C514 C 0.23204 0.90552 0.26514 0.0
C515 C 0.25885 0.89339 0.2617 0.0
H516 H 0.10969 0.62617 0.55551 0.0
H517 H 0.06709 0.61984 0.5052 0.0
H518 H 0.13385 0.66985 0.54603 0.0
H519 H 0.09103 0.66366 0.49582 0.0
H520 H 0.10211 0.76158 0.49797 0.0
H521 H 0.08458 0.71419 0.50544 0.0
H522 H 0.16906 0.69107 0.52442 0.0
H523 H 0.1868 0.73898 0.51694 0.0
C524 C 0.10595 0.63374 0.5423 0.0
C525 C 0.08622 0.6197 0.53116 0.0
C526 C 0.11978 0.65878 0.53689 0.0
C527 C 0.11406 0.67032 0.52027 0.0
C528 C 0.09544 0.65552 0.50883 0.0
C529 C 0.08171 0.63047 0.51421 0.0
C530 C 0.11704 0.74644 0.50369 0.0
C531 C 0.14584 0.75403 0.50688 0.0
C532 C 0.10703 0.71917 0.50784 0.0
C533 C 0.1255 0.69884 0.51537 0.0
C534 C 0.15434 0.70637 0.51865 0.0
C535 C 0.16449 0.73371 0.51433 0.0
H536 H 0.39739 0.60661 0.76726 0.0
H537 H 0.35386 0.54006 0.79605 0.0
H538 H 0.3507 0.62743 0.75931 0.0
H539 H 0.30767 0.56076 0.78831 0.0
H540 H 0.23026 0.58276 0.75691 0.0
H541 H 0.27854 0.5653 0.76231 0.0
H542 H 0.30767 0.65193 0.77183 0.0
H543 H 0.25887 0.66972 0.76595 0.0
C544 C 0.37789 0.59651 0.77192 0.0
C545 C 0.37929 0.57141 0.78203 0.0
C546 C 0.3512 0.60846 0.76741 0.0
C547 C 0.32546 0.59554 0.77297 0.0
C548 C 0.32703 0.57084 0.7834 0.0
C549 C 0.35354 0.55892 0.78783 0.0
C550 C 0.2469 0.59821 0.76008 0.0
C551 C 0.2406 0.62762 0.76126 0.0
C552 C 0.27462 0.58815 0.76324 0.0
C553 C 0.29685 0.60714 0.76786 0.0
C554 C 0.29099 0.63675 0.76829 0.0
C555 C 0.26307 0.64693 0.76497 0.0
H556 H 0.38083 0.90949 0.02797 0.0
H557 H 0.46272 0.86985 0.03963 0.0
H558 H 0.35931 0.86193 0.02398 0.0
H559 H 0.44174 0.82298 0.0349 0.0
H560 H 0.39442 0.74334 0.04541 0.0
H561 H 0.40831 0.79288 0.0505 0.0
H562 H 0.36027 0.81856 0.00463 0.0
H563 H 0.34559 0.76861 -0.0002 0.0
C564 C 0.39428 0.89072 0.02954 0.0
C565 C 0.42355 0.89355 0.03409 0.0
C566 C 0.382 0.86352 0.02714 0.0
C567 C 0.39871 0.83868 0.02937 0.0
C568 C 0.42808 0.84164 0.03344 0.0
C569 C 0.44027 0.86863 0.03585 0.0
C570 C 0.38644 0.7596 0.03655 0.0
C571 C 0.36929 0.75209 0.02206 0.0
C572 C 0.39455 0.78797 0.0394 0.0
C573 C 0.38605 0.80954 0.02769 0.0
C574 C 0.36723 0.8024 0.01385 0.0
C575 C 0.35881 0.77385 0.01109 0.0
H576 H 0.10051 0.63195 0.96546 0.0
H577 H 0.14037 0.54827 0.96819 0.0
H578 H 0.14669 0.65416 0.9715 0.0
H579 H 0.18543 0.57025 0.97622 0.0
H580 H 0.27038 0.61322 0.97326 0.0
H581 H 0.22368 0.5942 0.96483 0.0
H582 H 0.18208 0.66487 0.99176 0.0
H583 H 0.22926 0.68489 -0.00108 0.0
C584 C 0.11896 0.61817 0.96746 0.0
C585 C 0.11641 0.58815 0.96615 0.0
C586 C 0.14551 0.631 0.97124 0.0
C587 C 0.17016 0.61415 0.97421 0.0
C588 C 0.16731 0.58414 0.97354 0.0
C589 C 0.14103 0.57138 0.96933 0.0
C590 C 0.25118 0.6248 0.97715 0.0
C591 C 0.25329 0.65041 0.98675 0.0
C592 C 0.22431 0.61375 0.97253 0.0
C593 C 0.19879 0.62753 0.97791 0.0
C594 C 0.20107 0.65368 0.98719 0.0
C595 C 0.2281 0.66518 0.99138 0.0
H596 H 0.43856 0.60881 0.24611 0.0
H597 H 0.39127 0.61493 0.19742 0.0
H598 H 0.41964 0.65537 0.25521 0.0
H599 H 0.37221 0.66136 0.20662 0.0
H600 H 0.33481 0.74256 0.23243 0.0
H601 H 0.34296 0.69074 0.22881 0.0
H602 H 0.43253 0.70262 0.24229 0.0
H603 H 0.42455 0.75366 0.24579 0.0
C604 C 0.42381 0.6199 0.23747 0.0
C605 C 0.41679 0.6084 0.22093 0.0
C606 C 0.41289 0.64647 0.24271 0.0
C607 C 0.39472 0.66211 0.23153 0.0
C608 C 0.38598 0.64969 0.21556 0.0
C609 C 0.39695 0.62309 0.21029 0.0
C610 C 0.35609 0.7339 0.23483 0.0
C611 C 0.3791 0.75214 0.23922 0.0
C612 C 0.36076 0.70436 0.23271 0.0
C613 C 0.38835 0.69266 0.23536 0.0
C614 C 0.41095 0.71088 0.24041 0.0
C615 C 0.40642 0.74021 0.24223 0.0
H616 H 0.36309 0.97019 0.4614 0.0
H617 H 0.40638 0.89282 0.47786 0.0
H618 H 0.31697 0.94758 0.46615 0.0
H619 H 0.35959 0.86948 0.48181 0.0
H620 H 0.26514 0.85436 0.50432 0.0
H621 H 0.31492 0.87061 0.49997 0.0
H622 H 0.2895 0.91087 0.45144 0.0
H623 H 0.24011 0.89563 0.45612 0.0
C624 C 0.36283 0.94841 0.46624 0.0
C625 C 0.38854 0.93341 0.46932 0.0
C626 C 0.33628 0.93523 0.46866 0.0
C627 C 0.3346 0.90653 0.47403 0.0
C628 C 0.36021 0.8916 0.47761 0.0
C629 C 0.38697 0.90491 0.47523 0.0
C630 C 0.27048 0.86621 0.49259 0.0
C631 C 0.24884 0.87422 0.4807 0.0
C632 C 0.2989 0.87551 0.4901 0.0
C633 C 0.30594 0.89267 0.4756 0.0
C634 C 0.28459 0.8985 0.46304 0.0
C635 C 0.25635 0.88961 0.46564 0.0
H636 H 0.10545 0.88119 0.6923 0.0
H637 H 0.09507 0.91101 0.74557 0.0
H638 H 0.1324 0.83961 0.70274 0.0
H639 H 0.12183 0.86909 0.75614 0.0
H640 H 0.11757 0.76784 0.76203 0.0
H641 H 0.1044 0.81676 0.75449 0.0
H642 H 0.17744 0.82175 0.71971 0.0
H643 H 0.19105 0.77254 0.72756 0.0
C644 C 0.10959 0.8791 0.70623 0.0
C645 C 0.09813 0.89906 0.71818 0.0
C646 C 0.12512 0.85544 0.71219 0.0
C647 C 0.12906 0.85107 0.73024 0.0
C648 C 0.11898 0.87194 0.74215 0.0
C649 C 0.10382 0.89591 0.73614 0.0
C650 C 0.13108 0.77948 0.75296 0.0
C651 C 0.15519 0.76634 0.74525 0.0
C652 C 0.12369 0.8076 0.74877 0.0
C653 C 0.13994 0.82307 0.73655 0.0
C654 C 0.16458 0.81026 0.72919 0.0
C655 C 0.17236 0.7822 0.73367 0.0
H656 H 0.6391 0.42894 0.81105 0.0
H657 H 0.60097 0.40135 0.76206 0.0
H658 H 0.68336 0.40373 0.80359 0.0
H659 H 0.64551 0.37549 0.75474 0.0
H660 H 0.73078 0.31806 0.75677 0.0
H661 H 0.6827 0.33423 0.76631 0.0
H662 H 0.71746 0.418 0.77792 0.0
H663 H 0.76473 0.40228 0.76825 0.0
C664 C 0.64011 0.41731 0.79872 0.0
C665 C 0.61683 0.41778 0.78692 0.0
C666 C 0.66537 0.40272 0.79454 0.0
C667 C 0.66791 0.38799 0.77852 0.0
C668 C 0.644 0.38664 0.7672 0.0
C669 C 0.6186 0.40147 0.77137 0.0
C670 C 0.72803 0.33983 0.76148 0.0
C671 C 0.75142 0.35895 0.76176 0.0
C672 C 0.7006 0.34908 0.76682 0.0
C673 C 0.6965 0.3773 0.77291 0.0
C674 C 0.72007 0.39607 0.77345 0.0
C675 C 0.74712 0.38708 0.76783 0.0
H676 H 0.62027 0.10297 0.03102 0.0
H677 H 0.5404 0.14829 0.02261 0.0
H678 H 0.64694 0.14367 0.01903 0.0
H679 H 0.56679 0.18906 0.01144 0.0
H680 H 0.61518 0.25157 0.98048 0.0
H681 H 0.59454 0.20513 0.98731 0.0
H682 H 0.65918 0.1928 0.02743 0.0
H683 H 0.68061 0.23913 0.02 0.0
C684 C 0.60842 0.12148 0.02646 0.0
C685 C 0.57825 0.12252 0.02785 0.0
C686 C 0.6237 0.14488 0.01977 0.0
C687 C 0.60904 0.16965 0.01426 0.0
C688 C 0.57882 0.17023 0.01529 0.0
C689 C 0.56366 0.14696 0.02192 0.0
C690 C 0.62523 0.23877 0.9906 0.0
C691 C 0.64922 0.24909 -0.0001 0.0
C692 C 0.61333 0.2122 0.99458 0.0
C693 C 0.6248 0.19549 0.00818 0.0
C694 C 0.64986 0.20508 0.01683 0.0
C695 C 0.66208 0.23164 0.01265 0.0
H696 H 0.87201 0.04849 0.28717 0.0
H697 H 0.91205 0.12876 0.27313 0.0
H698 H 0.82496 0.06975 0.28327 0.0
H699 H 0.86428 0.15058 0.26993 0.0
H700 H 0.76831 0.16255 0.24799 0.0
H701 H 0.81891 0.14837 0.25161 0.0
H702 H 0.79699 0.10491 0.29965 0.0
H703 H 0.74682 0.11827 0.29577 0.0
C704 C 0.87082 0.07061 0.28301 0.0
C705 C 0.89589 0.08684 0.28038 0.0
C706 C 0.84376 0.08297 0.28108 0.0
C707 C 0.8409 0.11201 0.27663 0.0
C708 C 0.86584 0.12817 0.27344 0.0
C709 C 0.89314 0.11572 0.27537 0.0
C710 C 0.77457 0.15051 0.25949 0.0
C711 C 0.7537 0.14104 0.27144 0.0
C712 C 0.80345 0.14238 0.26156 0.0
C713 C 0.81173 0.12489 0.27567 0.0
C714 C 0.79112 0.11763 0.28835 0.0
C715 C 0.76243 0.12543 0.28619 0.0
H716 H 0.89296 0.39376 0.55462 0.0
H717 H 0.94162 0.396 0.50639 0.0
H718 H 0.87197 0.34795 0.54576 0.0
H719 H 0.92082 0.35011 0.49765 0.0
H720 H 0.82413 0.27472 0.51617 0.0
H721 H 0.84018 0.32335 0.52368 0.0
H722 H 0.92688 0.30084 0.50857 0.0
H723 H 0.911 0.25275 0.50101 0.0
C724 C 0.89876 0.38478 0.54198 0.0
C725 C 0.91916 0.39846 0.53127 0.0
C726 C 0.88675 0.35849 0.53693 0.0
C727 C 0.89497 0.34528 0.52111 0.0
C728 C 0.91447 0.35951 0.51009 0.0
C729 C 0.9264 0.38578 0.5151 0.0
C730 C 0.84659 0.28023 0.51448 0.0
C731 C 0.86628 0.2599 0.50798 0.0
C732 C 0.85578 0.30801 0.51881 0.0
C733 C 0.88475 0.31599 0.51656 0.0
C734 C 0.90434 0.29555 0.51015 0.0
C735 C 0.89524 0.26787 0.50595 0.0
H736 H 0.63894 0.05011 0.49014 0.0
H737 H 0.61214 0.12499 0.46138 0.0
H738 H 0.68581 0.07205 0.49547 0.0
H739 H 0.65933 0.14712 0.46686 0.0
H740 H 0.75022 0.17595 0.49353 0.0
H741 H 0.69894 0.16267 0.49247 0.0
H742 H 0.7216 0.0812 0.46927 0.0
H743 H 0.77198 0.09411 0.47003 0.0
C744 C 0.64288 0.07156 0.48533 0.0
C745 C 0.62215 0.08567 0.47512 0.0
C746 C 0.66963 0.0841 0.48838 0.0
C747 C 0.67622 0.11103 0.48133 0.0
C748 C 0.65468 0.12635 0.47246 0.0
C749 C 0.62775 0.11371 0.46935 0.0
C750 C 0.74417 0.15534 0.48806 0.0
C751 C 0.76534 0.13599 0.48207 0.0
C752 C 0.7149 0.14779 0.48748 0.0
C753 C 0.70654 0.12071 0.48113 0.0
C754 C 0.72756 0.10196 0.4746 0.0
C755 C 0.7565 0.1095 0.47498 0.0
H756 H 0.96508 0.14923 0.69946 0.0
H757 H 0.8994 0.10916 0.73094 0.0
H758 H 0.94502 0.19604 0.7062 0.0
H759 H 0.87931 0.15652 0.73796 0.0
H760 H 0.83885 0.24894 0.73147 0.0
H761 H 0.85478 0.19961 0.72536 0.0
H762 H 0.94323 0.22618 0.73191 0.0
H763 H 0.92767 0.27479 0.73751 0.0
C764 C 0.94652 0.15048 0.70802 0.0
C765 C 0.93417 0.12555 0.71495 0.0
C766 C 0.93496 0.17733 0.71187 0.0
C767 C 0.91083 0.18007 0.72286 0.0
C768 C 0.89786 0.15511 0.72942 0.0
C769 C 0.90941 0.12805 0.72546 0.0
C770 C 0.86165 0.24407 0.73168 0.0
C771 C 0.88199 0.26589 0.73465 0.0
C772 C 0.87076 0.21587 0.72823 0.0
C773 C 0.90032 0.20912 0.72781 0.0
C774 C 0.92038 0.23077 0.73161 0.0
C775 C 0.91138 0.2587 0.73489 0.0
H776 H 0.90024 0.40162 0.97548 0.0
H777 H 0.85718 0.48332 0.98033 0.0
H778 H 0.85742 0.37761 0.98679 0.0
H779 H 0.81415 0.45952 0.99048 0.0
H780 H 0.74121 0.41708 0.01448 0.0
H781 H 0.79042 0.43466 0.01242 0.0
H782 H 0.81078 0.36563 0.97638 0.0
H783 H 0.76185 0.34715 0.97944 0.0
C784 C 0.88179 0.41448 0.97918 0.0
C785 C 0.88198 0.44435 0.97681 0.0
C786 C 0.85712 0.40069 0.98546 0.0
C787 C 0.83213 0.4165 0.98946 0.0
C788 C 0.83297 0.44652 0.98782 0.0
C789 C 0.85758 0.46023 0.98171 0.0
C790 C 0.75649 0.40533 0.00646 0.0
C791 C 0.7478 0.381 0.99696 0.0
C792 C 0.78462 0.4155 0.00515 0.0
C793 C 0.80447 0.40206 0.99386 0.0
C794 C 0.79622 0.3765 0.98527 0.0
C795 C 0.76816 0.36592 0.98695 0.0
H796 H 0.61578 0.39464 0.20417 0.0
H797 H 0.54439 0.37264 0.23759 0.0
H798 H 0.64089 0.35089 0.21305 0.0
H799 H 0.56968 0.32964 0.24702 0.0
H800 H 0.60033 0.23886 0.24057 0.0
H801 H 0.57982 0.28503 0.23329 0.0
H802 H 0.66435 0.32355 0.23597 0.0
H803 H 0.68516 0.27661 0.24277 0.0
C804 C 0.60585 0.38075 0.21375 0.0
C805 C 0.57811 0.3867 0.2201 0.0
C806 C 0.62019 0.35574 0.21885 0.0
C807 C 0.60707 0.33645 0.23049 0.0
C808 C 0.58006 0.34356 0.23764 0.0
C809 C 0.56564 0.36826 0.23238 0.0
C810 C 0.61461 0.25713 0.23959 0.0
C811 C 0.64433 0.25415 0.24235 0.0
C812 C 0.6028 0.28372 0.23556 0.0
C813 C 0.62034 0.30817 0.23437 0.0
C814 C 0.65024 0.30514 0.23676 0.0
C815 C 0.66216 0.27831 0.24068 0.0
H816 H 0.07259 0.8935 0.37369 0.0
H817 H 0.13989 0.95723 0.37823 0.0
H818 H 0.09406 0.86689 0.39777 0.0
H819 H 0.16031 0.93112 0.40296 0.0
H820 H 0.14682 0.90012 0.4618 0.0
H821 H 0.1352 0.92267 0.43392 0.0
H822 H 0.14334 0.84101 0.40751 0.0
H823 H 0.15584 0.81834 0.43551 0.0
C824 C 0.09228 0.90158 0.3795 0.0
C825 C 0.10429 0.92778 0.37406 0.0
C826 C 0.10449 0.88632 0.39335 0.0
C827 C 0.12866 0.89712 0.40222 0.0
C828 C 0.14148 0.92254 0.39638 0.0
C829 C 0.1296 0.93756 0.38232 0.0
C830 C 0.1465 0.887 0.45004 0.0
C831 C 0.15218 0.85748 0.4508 0.0
C832 C 0.14003 0.89995 0.43408 0.0
C833 C 0.13851 0.88354 0.41863 0.0
C834 C 0.14446 0.85406 0.41929 0.0
C835 C 0.15161 0.84117 0.43525 0.0
H836 H 0.12371 0.59336 0.61661 0.0
H837 H 0.04487 0.63305 0.6342 0.0
H838 H 0.14994 0.61693 0.64043 0.0
H839 H 0.07093 0.65624 0.65824 0.0
H840 H 0.16176 0.61099 0.70121 0.0
H841 H 0.14616 0.60351 0.67117 0.0
H842 H 0.10921 0.68853 0.6705 0.0
H843 H 0.12524 0.69601 0.701 0.0
C844 C 0.11213 0.60761 0.62538 0.0
C845 C 0.08221 0.61098 0.62379 0.0
C846 C 0.12711 0.62111 0.639 0.0
C847 C 0.11242 0.63802 0.65142 0.0
C848 C 0.08293 0.64349 0.64885 0.0
C849 C 0.06796 0.63011 0.63512 0.0
C850 C 0.15093 0.62836 0.6945 0.0
C851 C 0.14448 0.65396 0.70339 0.0
C852 C 0.14216 0.62419 0.67722 0.0
C853 C 0.12636 0.6454 0.66842 0.0
C854 C 0.12124 0.67176 0.67699 0.0
C855 C 0.13053 0.67612 0.69434 0.0
H856 H 0.38225 0.60245 0.86508 0.0
H857 H 0.46426 0.60024 0.89183 0.0
H858 H 0.36144 0.62883 0.88999 0.0
H859 H 0.44379 0.62593 0.91641 0.0
H860 H 0.41221 0.68675 0.95457 0.0
H861 H 0.42631 0.6716 0.9252 0.0
H862 H 0.34836 0.62148 0.92074 0.0
H863 H 0.33362 0.63806 0.94994 0.0
C864 C 0.39582 0.60769 0.87621 0.0
C865 C 0.42501 0.59965 0.87637 0.0
C866 C 0.38393 0.62277 0.89045 0.0
C867 C 0.40105 0.62998 0.90509 0.0
C868 C 0.43014 0.62168 0.90516 0.0
C869 C 0.44193 0.60682 0.89103 0.0
C870 C 0.39774 0.67316 0.94707 0.0
C871 C 0.37205 0.66327 0.95451 0.0
C872 C 0.40588 0.66426 0.93032 0.0
C873 C 0.38889 0.6446 0.92082 0.0
C874 C 0.36197 0.6366 0.92769 0.0
C875 C 0.35351 0.64604 0.9444 0.0
H876 H 0.37736 0.93112 0.12235 0.0
H877 H 0.45928 0.88958 0.13089 0.0
H878 H 0.35666 0.90405 0.14653 0.0
H879 H 0.43834 0.86187 0.15468 0.0
H880 H 0.32332 0.84152 0.1869 0.0
H881 H 0.34306 0.8566 0.15863 0.0
H882 H 0.42353 0.87792 0.18403 0.0
H883 H 0.40401 0.86279 0.21202 0.0
C884 C 0.39079 0.91583 0.12919 0.0
C885 C 0.42005 0.9128 0.12488 0.0
C886 C 0.37885 0.90009 0.14291 0.0
C887 C 0.39597 0.88104 0.15262 0.0
C888 C 0.42473 0.87667 0.14757 0.0
C889 C 0.43665 0.89236 0.13383 0.0
C890 C 0.34536 0.84903 0.18633 0.0
C891 C 0.36207 0.85119 0.20166 0.0
C892 C 0.3566 0.85775 0.17019 0.0
C893 C 0.38484 0.86846 0.16911 0.0
C894 C 0.40185 0.86941 0.18436 0.0
C895 C 0.39057 0.86095 0.20045 0.0
H896 H 0.07838 0.63099 0.87982 0.0
H897 H 0.11236 0.54947 0.86253 0.0
H898 H 0.10352 0.65485 0.85584 0.0
H899 H 0.13771 0.57335 0.83864 0.0
H900 H 0.1296 0.62027 0.78494 0.0
H901 H 0.11611 0.5965 0.81195 0.0
H902 H 0.15222 0.66644 0.8421 0.0
H903 H 0.16605 0.69042 0.81481 0.0
C904 C 0.09167 0.61829 0.87107 0.0
C905 C 0.09322 0.58838 0.87289 0.0
C906 C 0.10623 0.63196 0.85745 0.0
C907 C 0.12236 0.6159 0.84531 0.0
C908 C 0.12521 0.58619 0.84774 0.0
C909 C 0.11089 0.57257 0.86146 0.0
C910 C 0.135 0.63051 0.7973 0.0
C911 C 0.1488 0.65727 0.79776 0.0
C912 C 0.12746 0.61674 0.81279 0.0
C913 C 0.13326 0.62954 0.82912 0.0
C914 C 0.14748 0.65614 0.82966 0.0
C915 C 0.15541 0.6698 0.81408 0.0
H916 H 0.37007 0.57192 0.12758 0.0
H917 H 0.45074 0.6147 0.11737 0.0
H918 H 0.34804 0.59708 0.10298 0.0
H919 H 0.42848 0.64045 0.09316 0.0
H920 H 0.39283 0.63772 0.03643 0.0
H921 H 0.4129 0.62229 0.06425 0.0
H922 H 0.33325 0.64414 0.09027 0.0
H923 H 0.31294 0.65964 0.06217 0.0
C924 C 0.38294 0.58707 0.12027 0.0
C925 C 0.41224 0.59104 0.12427 0.0
C926 C 0.37025 0.60168 0.1063 0.0
C927 C 0.38663 0.62048 0.09602 0.0
C928 C 0.41543 0.62577 0.10071 0.0
C929 C 0.4281 0.61123 0.11469 0.0
C930 C 0.37962 0.6395 0.04808 0.0
C931 C 0.35126 0.64978 0.04711 0.0
C932 C 0.39123 0.63086 0.06407 0.0
C933 C 0.37471 0.63213 0.07947 0.0
C934 C 0.34644 0.64283 0.07858 0.0
C935 C 0.33486 0.65174 0.06254 0.0
H936 H 0.38758 0.91465 0.38507 0.0
H937 H 0.46855 0.92021 0.3575 0.0
H938 H 0.36651 0.88911 0.3598 0.0
H939 H 0.44788 0.89501 0.33273 0.0
H940 H 0.41809 0.82928 0.29682 0.0
H941 H 0.43132 0.84666 0.32588 0.0
H942 H 0.35365 0.89754 0.32781 0.0
H943 H 0.33985 0.87905 0.29872 0.0
C944 C 0.40084 0.91041 0.37368 0.0
C945 C 0.42991 0.91894 0.37343 0.0
C946 C 0.38881 0.8958 0.35926 0.0
C947 C 0.40572 0.88949 0.34444 0.0
C948 C 0.4345 0.89866 0.34415 0.0
C949 C 0.4464 0.91315 0.3584 0.0
C950 C 0.4035 0.84362 0.30365 0.0
C951 C 0.37821 0.8532 0.29551 0.0
C952 C 0.41111 0.85369 0.32023 0.0
C953 C 0.39392 0.87409 0.32891 0.0
C954 C 0.36735 0.88189 0.32141 0.0
C955 C 0.35946 0.87136 0.3048 0.0
H956 H 0.04382 0.89764 0.60673 0.0
H957 H 0.12305 0.911 0.63566 0.0
H958 H 0.07102 0.87684 0.58267 0.0
H959 H 0.15021 0.89191 0.61079 0.0
H960 H 0.1692 0.9101 0.5483 0.0
H961 H 0.15023 0.91698 0.57792 0.0
H962 H 0.11018 0.83364 0.57538 0.0
H963 H 0.13001 0.82627 0.54585 0.0
C964 C 0.06689 0.89558 0.60826 0.0
C965 C 0.08111 0.90642 0.62323 0.0
C966 C 0.08247 0.88371 0.59436 0.0
C967 C 0.11261 0.88289 0.59493 0.0
C968 C 0.12692 0.89244 0.61009 0.0
C969 C 0.11131 0.90369 0.62421 0.0
C970 C 0.15703 0.89294 0.55427 0.0
C971 C 0.15092 0.86773 0.54483 0.0
C972 C 0.14634 0.8968 0.57122 0.0
C973 C 0.12878 0.87583 0.57882 0.0
C974 C 0.12378 0.85002 0.56974 0.0
C975 C 0.13515 0.84582 0.55294 0.0
H976 H 0.63533 0.45886 0.87764 0.0
H977 H 0.57236 0.3905 0.8767 0.0
H978 H 0.66088 0.43456 0.90131 0.0
H979 H 0.59901 0.36575 0.8995 0.0
H980 H 0.66643 0.32065 0.93366 0.0
H981 H 0.65149 0.3435 0.90618 0.0
H982 H 0.64059 0.42389 0.93367 0.0
H983 H 0.6547 0.40101 0.96112 0.0
C984 C 0.62703 0.4386 0.88228 0.0
C985 C 0.60147 0.42692 0.8753 0.0
C986 C 0.64188 0.42461 0.8957 0.0
C987 C 0.63189 0.39833 0.90212 0.0
C988 C 0.60735 0.38583 0.89457 0.0
C989 C 0.59215 0.40006 0.88142 0.0
C990 C 0.66138 0.34332 0.93372 0.0
C991 C 0.66148 0.35908 0.94947 0.0
C992 C 0.65278 0.3563 0.91806 0.0
C993 C 0.64494 0.38538 0.91789 0.0
C994 C 0.64676 0.40149 0.93346 0.0
C995 C 0.65467 0.38838 0.94915 0.0
H996 H 0.60658 0.05074 0.13643 0.0
H997 H 0.58065 0.13649 0.12283 0.0
H998 H 0.63324 0.06911 0.16139 0.0
H999 H 0.60914 0.15564 0.14722 0.0
H1000 H 0.62589 0.1727 0.20623 0.0
H1001 H 0.60788 0.16028 0.17715 0.0
H1002 H 0.67128 0.09242 0.17351 0.0
H1003 H 0.68722 0.10354 0.20323 0.0
C1004 C 0.60738 0.07371 0.13855 0.0
C1005 C 0.59159 0.09222 0.12779 0.0
C1006 C 0.6229 0.08441 0.15283 0.0
C1007 C 0.62357 0.11405 0.15651 0.0
C1008 C 0.60875 0.13268 0.14513 0.0
C1009 C 0.5926 0.12182 0.13105 0.0
C1010 C 0.6362 0.15548 0.19899 0.0
C1011 C 0.65764 0.13883 0.20691 0.0
C1012 C 0.62601 0.14836 0.18224 0.0
C1013 C 0.6376 0.12483 0.17294 0.0
C1014 C 0.66095 0.10993 0.18043 0.0
C1015 C 0.67043 0.11648 0.19737 0.0
H1016 H 0.93785 0.139 0.36749 0.0
H1017 H 0.8958 0.05869 0.37888 0.0
H1018 H 0.913 0.16149 0.3922 0.0
H1019 H 0.87042 0.08138 0.40326 0.0
H1020 H 0.87708 0.11829 0.45982 0.0
H1021 H 0.89054 0.09771 0.4317 0.0
H1022 H 0.86584 0.17609 0.40584 0.0
H1023 H 0.85217 0.19691 0.43428 0.0
C1024 C 0.92289 0.12631 0.37507 0.0
C1025 C 0.9191 0.09698 0.37139 0.0
C1026 C 0.90845 0.13926 0.38911 0.0
C1027 C 0.89003 0.1231 0.39978 0.0
C1028 C 0.88479 0.09426 0.39538 0.0
C1029 C 0.89913 0.08135 0.38132 0.0
C1030 C 0.87418 0.1311 0.44815 0.0
C1031 C 0.86367 0.15927 0.44926 0.0
C1032 C 0.88169 0.11919 0.43199 0.0
C1033 C 0.87911 0.13522 0.41654 0.0
C1034 C 0.86811 0.16327 0.41756 0.0
C1035 C 0.86025 0.17514 0.43379 0.0
H1036 H 0.87087 0.43765 0.62066 0.0
H1037 H 0.95119 0.3947 0.63182 0.0
H1038 H 0.84806 0.41224 0.6449 0.0
H1039 H 0.92822 0.36888 0.6557 0.0
H1040 H 0.81319 0.34924 0.68613 0.0
H1041 H 0.83369 0.36381 0.65787 0.0
H1042 H 0.91185 0.38984 0.68427 0.0
H1043 H 0.89156 0.37565 0.71218 0.0
C1044 C 0.88348 0.4224 0.62808 0.0
C1045 C 0.91292 0.41847 0.62449 0.0
C1046 C 0.87035 0.40765 0.64182 0.0
C1047 C 0.88649 0.38885 0.65228 0.0
C1048 C 0.91538 0.38351 0.64795 0.0
C1049 C 0.92846 0.39813 0.63418 0.0
C1050 C 0.83484 0.35782 0.68579 0.0
C1051 C 0.85076 0.36138 0.70135 0.0
C1052 C 0.8465 0.36619 0.66967 0.0
C1053 C 0.87442 0.37775 0.66888 0.0
C1054 C 0.89047 0.38055 0.68441 0.0
C1055 C 0.87874 0.37261 0.70045 0.0
H1056 H 0.57144 0.1242 0.37721 0.0
H1057 H 0.63857 0.05994 0.37545 0.0
H1058 H 0.59399 0.14905 0.35286 0.0
H1059 H 0.66018 0.0843 0.35047 0.0
H1060 H 0.6506 0.1114 0.29075 0.0
H1061 H 0.63785 0.09064 0.31896 0.0
H1062 H 0.64246 0.17435 0.34321 0.0
H1063 H 0.65593 0.19522 0.31491 0.0
C1064 C 0.59133 0.11566 0.37196 0.0
C1065 C 0.60297 0.0898 0.37826 0.0
C1066 C 0.60416 0.12991 0.35794 0.0
C1067 C 0.62863 0.11842 0.34976 0.0
C1068 C 0.6411 0.09339 0.35648 0.0
C1069 C 0.62857 0.07937 0.3707 0.0
C1070 C 0.64925 0.12535 0.30212 0.0
C1071 C 0.65415 0.15492 0.30065 0.0
C1072 C 0.64215 0.11343 0.31828 0.0
C1073 C 0.63927 0.13093 0.33321 0.0
C1074 C 0.64457 0.16046 0.33184 0.0
C1075 C 0.65229 0.17233 0.31571 0.0
H1076 H 0.90939 0.04317 0.60608 0.0
H1077 H 0.91263 0.12446 0.63346 0.0
H1078 H 0.88734 0.06606 0.5811 0.0
H1079 H 0.89024 0.14774 0.60806 0.0
H1080 H 0.88813 0.17573 0.54763 0.0
H1081 H 0.90187 0.15961 0.5771 0.0
H1082 H 0.84318 0.08817 0.57204 0.0
H1083 H 0.8307 0.10357 0.54254 0.0
C1084 C 0.90478 0.06589 0.60694 0.0
C1085 C 0.91241 0.08186 0.62191 0.0
C1086 C 0.89209 0.07908 0.59256 0.0
C1087 C 0.88657 0.1087 0.59266 0.0
C1088 C 0.89422 0.12488 0.60758 0.0
C1089 C 0.90703 0.11156 0.6221 0.0
C1090 C 0.87773 0.15705 0.55311 0.0
C1091 C 0.85873 0.14059 0.54286 0.0
C1092 C 0.88552 0.14781 0.56995 0.0
C1093 C 0.87413 0.1222 0.57673 0.0
C1094 C 0.85298 0.1075 0.56701 0.0
C1095 C 0.84566 0.11639 0.55018 0.0
H1096 H 0.86836 0.45105 0.87127 0.0
H1097 H 0.935 0.38776 0.87934 0.0
H1098 H 0.85121 0.42417 0.8458 0.0
H1099 H 0.91685 0.36025 0.85457 0.0
H1100 H 0.91467 0.35873 0.79385 0.0
H1101 H 0.92251 0.37299 0.82404 0.0
H1102 H 0.83067 0.38045 0.83175 0.0
H1103 H 0.82274 0.36625 0.80102 0.0
C1104 C 0.87895 0.4311 0.86788 0.0
C1105 C 0.90352 0.42199 0.87714 0.0
C1106 C 0.86884 0.41547 0.85341 0.0
C1107 C 0.88301 0.39035 0.84797 0.0
C1108 C 0.9058 0.37983 0.85824 0.0
C1109 C 0.91603 0.39552 0.8726 0.0
C1110 C 0.89605 0.36303 0.802 0.0
C1111 C 0.8681 0.3617 0.79501 0.0
C1112 C 0.90055 0.37091 0.81942 0.0
C1113 C 0.87721 0.37783 0.83035 0.0
C1114 C 0.84907 0.37537 0.82361 0.0
C1115 C 0.84453 0.36712 0.80608 0.0
H1116 H 0.60969 0.42704 0.1207 0.0
H1117 H 0.54078 0.36466 0.11923 0.0
H1118 H 0.63211 0.40357 0.09565 0.0
H1119 H 0.56267 0.34237 0.09343 0.0
H1120 H 0.58652 0.36368 0.03275 0.0
H1121 H 0.56824 0.37025 0.06254 0.0
H1122 H 0.65276 0.35234 0.08338 0.0
H1123 H 0.67089 0.3447 0.0534 0.0
C1124 C 0.59964 0.40792 0.11542 0.0
C1125 C 0.57307 0.3981 0.12193 0.0
C1126 C 0.61254 0.39452 0.101 0.0
C1127 C 0.59898 0.37133 0.09262 0.0
C1128 C 0.57342 0.36036 0.09966 0.0
C1129 C 0.56078 0.37338 0.11431 0.0
C1130 C 0.60094 0.36032 0.04373 0.0
C1131 C 0.63002 0.35369 0.04089 0.0
C1132 C 0.5905 0.36396 0.06074 0.0
C1133 C 0.60914 0.36177 0.07518 0.0
C1134 C 0.63801 0.35399 0.07241 0.0
C1135 C 0.6483 0.34955 0.05534 0.0
loop_
_geom_bond_atom_site_label_1
_geom_bond_atom_site_label_2
_geom_bond_distance
_geom_bond_site_symmetry_2
_ccdc_geom_bond_type
H0 C19 0.949 . S
H1 C20 0.950 . S
H2 C22 0.950 . S
H3 C23 0.950 . S
H4 C25 0.950 . S
H5 C28 0.950 . S
H6 C29 0.950 . S
H7 C31 0.951 . S
H8 C32 0.946 1_565 S
H9 C34 0.949 . S
H10 C35 0.950 . S
H11 C37 0.950 . S
H12 C38 0.950 . S
H13 C40 0.947 1_565 S
H14 C43 0.950 . S
H15 C44 0.950 . S
H16 C46 0.951 . S
H17 C47 0.949 1_545 S
C18 C19 1.376 . S
C18 C23 1.386 . S
C18 C24 1.483 . S
C19 H0 0.949 . S
C19 C18 1.376 . S
C19 C20 1.397 . S
C20 H1 0.950 . S
C20 C19 1.397 . S
C20 C21 1.391 . S
C21 C20 1.391 . S
C21 C22 1.405 . S
C22 H2 0.950 . S
C22 C21 1.405 . S
C22 C23 1.367 . S
C23 H3 0.950 . S
C23 C18 1.386 . S
C23 C22 1.367 . S
C24 C18 1.483 . S
C24 C25 1.382 1_655 S
C24 C26 1.403 . S
C25 H4 0.950 . S
C25 C24 1.382 1_455 S
C25 C41 1.411 1_545 S
C26 C24 1.403 . S
C26 C27 1.489 . S
C26 C40 1.426 1_655 S
C27 C26 1.489 . S
C27 C28 1.383 . S
C27 C32 1.382 . S
C28 H5 0.950 . S
C28 C27 1.383 . S
C28 C29 1.395 . S
C29 H6 0.950 . S
C29 C28 1.395 . S
C29 C30 1.288 . S
C30 C29 1.288 . S
C30 C31 1.392 . S
C31 H7 0.951 . S
C31 C30 1.392 . S
C31 C32 1.392 . S
C32 H8 0.946 1_545 S
C32 C27 1.382 . S
C32 C31 1.392 . S
C33 C34 1.376 . S
C33 C38 1.386 . S
C33 C39 1.483 . S
C34 H9 0.949 . S
C34 C33 1.376 . S
C34 C35 1.397 . S
C35 H10 0.950 . S
C35 C34 1.397 . S
C35 C36 1.391 . S
C36 C35 1.391 . S
C36 C37 1.405 . S
C37 H11 0.950 . S
C37 C36 1.405 . S
C37 C38 1.367 . S
C38 H12 0.950 . S
C38 C33 1.386 . S
C38 C37 1.367 . S
C39 C33 1.483 . S
C39 C40 1.370 1_565 S
C39 C41 1.403 . S
C40 H13 0.947 1_545 S
C40 C26 1.426 1_455 S
C40 C39 1.370 1_545 S
C41 C25 1.411 1_565 S
C41 C39 1.403 . S
C41 C42 1.489 . S
C42 C41 1.489 . S
C42 C43 1.383 . S
C42 C47 1.382 . S
C43 H14 0.950 . S
C43 C42 1.383 . S
C43 C44 1.395 . S
C44 H15 0.950 . S
C44 C43 1.395 . S
C44 C45 1.288 . S
C45 C44 1.288 . S
C45 C46 1.392 . S
C46 H16 0.951 . S
C46 C45 1.392 . S
C46 C47 1.392 . S
C47 H17 0.949 1_565 S
C47 C42 1.382 . S
C47 C46 1.392 . S
H48 C67 0.949 1_455 S
H49 C68 0.950 . S
H50 C70 0.950 . S
H51 C71 0.950 . S
H52 C73 0.950 . S
H53 C76 0.950 . S
H54 C77 0.950 . S
H55 C79 0.951 . S
H56 C80 0.949 . S
H57 C82 0.971 . S
H58 C83 0.950 . S
H59 C85 0.950 . S
H60 C86 0.950 . S
H61 C88 0.950 1_655 S
H62 C91 0.950 . S
H63 C92 0.950 . S
H64 C94 0.951 . S
H65 C95 0.949 . S
C66 C67 1.376 . S
C66 C71 1.386 . S
C66 C72 1.483 . S
C67 H48 0.949 1_655 S
C67 C66 1.376 . S
C67 C68 1.397 . S
C68 H49 0.950 . S
C68 C67 1.397 . S
C68 C69 1.391 . S
C69 C68 1.391 . S
C69 C70 1.405 . S
C70 H50 0.950 . S
C70 C69 1.405 . S
C70 C71 1.367 . S
C71 H51 0.950 . S
C71 C66 1.386 . S
C71 C70 1.367 . S
C72 C66 1.483 . S
C72 C73 1.382 1_655 S
C72 C74 1.403 . S
C73 H52 0.950 . S
C73 C72 1.382 1_455 S
C73 C89 1.411 . S
C74 C72 1.403 . S
C74 C75 1.489 . S
C74 C88 1.411 1_655 S
C75 C74 1.489 . S
C75 C76 1.383 . S
C75 C80 1.382 . S
C76 H53 0.950 . S
C76 C75 1.383 . S
C76 C77 1.395 . S
C77 H54 0.950 . S
C77 C76 1.395 . S
C77 C78 1.288 . S
C78 C77 1.288 . S
C78 C79 1.392 . S
C79 H55 0.951 . S
C79 C78 1.392 . S
C79 C80 1.392 . S
C80 H56 0.949 . S
C80 C75 1.382 . S
C80 C79 1.392 . S
C81 C82 1.376 . S
C81 C86 1.386 . S
C81 C87 1.483 . S
C82 H57 0.971 . S
C82 C81 1.376 . S
C82 C83 1.397 . S
C83 H58 0.950 . S
C83 C82 1.397 . S
C83 C84 1.391 . S
C84 C83 1.391 . S
C84 C85 1.405 . S
C85 H59 0.950 . S
C85 C84 1.405 . S
C85 C86 1.367 . S
C86 H60 0.950 . S
C86 C81 1.386 . S
C86 C85 1.367 . S
C87 C81 1.483 . S
C87 C88 1.382 . S
C87 C89 1.403 . S
C88 H61 0.950 1_455 S
C88 C74 1.411 1_455 S
C88 C87 1.382 . S
C89 C73 1.411 . S
C89 C87 1.403 . S
C89 C90 1.489 . S
C90 C89 1.489 . S
C90 C91 1.383 . S
C90 C95 1.382 . S
C91 H62 0.950 . S
C91 C90 1.383 . S
C91 C92 1.395 . S
C92 H63 0.950 . S
C92 C91 1.395 . S
C92 C93 1.288 . S
C93 C92 1.288 . S
C93 C94 1.392 . S
C94 H64 0.951 . S
C94 C93 1.392 . S
C94 C95 1.392 . S
C95 H65 0.949 . S
C95 C90 1.382 . S
C95 C94 1.392 . S
H96 C115 0.949 . S
H97 C116 0.950 . S
H98 C118 0.950 . S
H99 C119 0.950 . S
H100 C121 0.950 . S
H101 C124 0.950 . S
H102 C125 0.950 . S
H103 C127 0.951 . S
H104 C128 0.949 . S
H105 C130 0.949 . S
H106 C131 0.950 . S
H107 C133 0.950 . S
H108 C134 0.950 . S
H109 C136 0.950 . S
H110 C139 0.950 . S
H111 C140 0.950 . S
H112 C142 0.951 . S
H113 C143 0.949 . S
C114 C115 1.376 . S
C114 C119 1.386 . S
C114 C120 1.483 . S
C115 H96 0.949 . S
C115 C114 1.376 . S
C115 C116 1.397 . S
C116 H97 0.950 . S
C116 C115 1.397 . S
C116 C117 1.391 . S
C117 C116 1.391 . S
C117 C118 1.405 . S
C118 H98 0.950 . S
C118 C117 1.405 . S
C118 C119 1.367 . S
C119 H99 0.950 . S
C119 C114 1.386 . S
C119 C118 1.367 . S
C120 C114 1.483 . S
C120 C121 1.382 . S
C120 C122 1.403 . S
C121 H100 0.950 . S
C121 C120 1.382 . S
C121 C137 1.411 . S
C122 C120 1.403 . S
C122 C123 1.489 . S
C122 C136 1.411 . S
C123 C122 1.489 . S
C123 C124 1.383 . S
C123 C128 1.382 . S
C124 H101 0.950 . S
C124 C123 1.383 . S
C124 C125 1.395 . S
C125 H102 0.950 . S
C125 C124 1.395 . S
C125 C126 1.288 . S
C126 C125 1.288 . S
C126 C127 1.392 . S
C127 H103 0.951 . S
C127 C126 1.392 . S
C127 C128 1.392 . S
C128 H104 0.949 . S
C128 C123 1.382 . S
C128 C127 1.392 . S
C129 C130 1.376 . S
C129 C134 1.386 . S
C129 C135 1.483 . S
C130 H105 0.949 . S
C130 C129 1.376 . S
C130 C131 1.397 . S
C131 H106 0.950 . S
C131 C130 1.397 . S
C131 C132 1.391 . S
C132 C131 1.391 . S
C132 C133 1.405 . S
C133 H107 0.950 . S
C133 C132 1.405 . S
C133 C134 1.367 . S
C134 H108 0.950 . S
C134 C129 1.386 . S
C134 C133 1.367 . S
C135 C129 1.483 . S
C135 C136 1.382 . S
C135 C137 1.403 . S
C136 H109 0.950 . S
C136 C122 1.411 . S
C136 C135 1.382 . S
C137 C121 1.411 . S
C137 C135 1.403 . S
C137 C138 1.489 . S
C138 C137 1.489 . S
C138 C139 1.383 . S
C138 C143 1.382 . S
C139 H110 0.950 . S
C139 C138 1.383 . S
C139 C140 1.395 . S
C140 H111 0.950 . S
C140 C139 1.395 . S
C140 C141 1.288 . S
C141 C140 1.288 . S
C141 C142 1.392 . S
C142 H112 0.951 . S
C142 C141 1.392 . S
C142 C143 1.392 . S
C143 H113 0.949 . S
C143 C138 1.382 . S
C143 C142 1.392 . S
H144 C163 0.949 . S
H145 C164 0.950 . S
H146 C166 0.950 . S
H147 C167 0.950 . S
H148 C169 0.950 . S
H149 C172 0.950 . S
H150 C173 0.950 . S
H151 C175 0.951 . S
H152 C176 0.949 . S
H153 C178 0.949 . S
H154 C179 0.950 . S
H155 C181 0.950 . S
H156 C182 0.950 . S
H157 C184 0.950 . S
H158 C187 0.950 . S
H159 C188 0.950 . S
H160 C190 0.951 . S
H161 C191 0.949 . S
C162 C163 1.376 . S
C162 C167 1.386 . S
C162 C168 1.483 . S
C163 H144 0.949 . S
C163 C162 1.376 . S
C163 C164 1.397 . S
C164 H145 0.950 . S
C164 C163 1.397 . S
C164 C165 1.391 . S
C165 C164 1.391 . S
C165 C166 1.405 . S
C166 H146 0.950 . S
C166 C165 1.405 . S
C166 C167 1.367 . S
C167 H147 0.950 . S
C167 C162 1.386 . S
C167 C166 1.367 . S
C168 C162 1.483 . S
C168 C169 1.382 . S
C168 C170 1.403 . S
C169 H148 0.950 . S
C169 C168 1.382 . S
C169 C185 1.411 1_565 S
C170 C168 1.403 . S
C170 C171 1.489 . S
C170 C184 1.411 1_565 S
C171 C170 1.489 . S
C171 C172 1.383 . S
C171 C176 1.382 . S
C172 H149 0.950 . S
C172 C171 1.383 . S
C172 C173 1.395 . S
C173 H150 0.950 . S
C173 C172 1.395 . S
C173 C174 1.288 . S
C174 C173 1.288 . S
C174 C175 1.392 . S
C175 H151 0.951 . S
C175 C174 1.392 . S
C175 C176 1.392 . S
C176 H152 0.949 . S
C176 C171 1.382 . S
C176 C175 1.392 . S
C177 C178 1.376 . S
C177 C182 1.386 . S
C177 C183 1.483 . S
C178 H153 0.949 . S
C178 C177 1.376 . S
C178 C179 1.397 . S
C179 H154 0.950 . S
C179 C178 1.397 . S
C179 C180 1.391 . S
C180 C179 1.391 . S
C180 C181 1.405 . S
C181 H155 0.950 . S
C181 C180 1.405 . S
C181 C182 1.367 . S
C182 H156 0.950 . S
C182 C177 1.386 . S
C182 C181 1.367 . S
C183 C177 1.483 . S
C183 C184 1.382 . S
C183 C185 1.403 . S
C184 H157 0.950 . S
C184 C170 1.411 1_545 S
C184 C183 1.382 . S
C185 C169 1.411 1_545 S
C185 C183 1.403 . S
C185 C186 1.489 . S
C186 C185 1.489 . S
C186 C187 1.383 . S
C186 C191 1.382 . S
C187 H158 0.950 . S
C187 C186 1.383 . S
C187 C188 1.395 . S
C188 H159 0.950 . S
C188 C187 1.395 . S
C188 C189 1.288 . S
C189 C188 1.288 . S
C189 C190 1.392 . S
C190 H160 0.951 . S
C190 C189 1.392 . S
C190 C191 1.392 . S
C191 H161 0.949 . S
C191 C186 1.382 . S
C191 C190 1.392 . S
H192 C211 0.949 . S
H193 C212 0.950 . S
H194 C214 0.950 . S
H195 C215 0.950 . S
H196 C217 0.950 . S
H197 C220 0.950 . S
H198 C221 0.950 . S
H199 C223 0.951 . S
H200 C224 0.949 . S
H201 C226 0.949 . S
H202 C227 0.950 . S
H203 C229 0.950 . S
H204 C230 0.950 . S
H205 C232 0.950 . S
H206 C235 0.950 . S
H207 C236 0.950 . S
H208 C238 0.951 . S
H209 C239 0.949 . S
C210 C211 1.376 . S
C210 C215 1.386 . S
C210 C216 1.483 . S
C211 H192 0.949 . S
C211 C210 1.376 . S
C211 C212 1.397 . S
C212 H193 0.950 . S
C212 C211 1.397 . S
C212 C213 1.391 . S
C213 C212 1.391 . S
C213 C214 1.405 . S
C214 H194 0.950 . S
C214 C213 1.405 . S
C214 C215 1.367 . S
C215 H195 0.950 . S
C215 C210 1.386 . S
C215 C214 1.367 . S
C216 C210 1.483 . S
C216 C217 1.382 1_455 S
C216 C218 1.403 . S
C217 H196 0.950 . S
C217 C216 1.382 1_655 S
C217 C233 1.411 . S
C218 C216 1.403 . S
C218 C219 1.489 . S
C218 C232 1.411 . S
C219 C218 1.489 . S
C219 C220 1.383 . S
C219 C224 1.382 . S
C220 H197 0.950 . S
C220 C219 1.383 . S
C220 C221 1.395 . S
C221 H198 0.950 . S
C221 C220 1.395 . S
C221 C222 1.288 . S
C222 C221 1.288 . S
C222 C223 1.392 . S
C223 H199 0.951 . S
C223 C222 1.392 . S
C223 C224 1.392 . S
C224 H200 0.949 . S
C224 C219 1.382 . S
C224 C223 1.392 . S
C225 C226 1.376 . S
C225 C230 1.386 . S
C225 C231 1.483 . S
C226 H201 0.949 . S
C226 C225 1.376 . S
C226 C227 1.397 . S
C227 H202 0.950 . S
C227 C226 1.397 . S
C227 C228 1.391 . S
C228 C227 1.391 . S
C228 C229 1.405 . S
C229 H203 0.950 . S
C229 C228 1.405 . S
C229 C230 1.367 . S
C230 H204 0.950 . S
C230 C225 1.386 . S
C230 C229 1.367 . S
C231 C225 1.483 . S
C231 C232 1.382 1_655 S
C231 C233 1.403 . S
C232 H205 0.950 . S
C232 C218 1.411 . S
C232 C231 1.382 1_455 S
C233 C217 1.411 . S
C233 C231 1.403 . S
C233 C234 1.489 . S
C234 C233 1.489 . S
C234 C235 1.383 . S
C234 C239 1.382 . S
C235 H206 0.950 . S
C235 C234 1.383 . S
C235 C236 1.395 . S
C236 H207 0.950 . S
C236 C235 1.395 . S
C236 C237 1.288 . S
C237 C236 1.288 . S
C237 C238 1.392 . S
C238 H208 0.951 . S
C238 C237 1.392 . S
C238 C239 1.392 . S
C239 H209 0.949 . S
C239 C234 1.382 . S
C239 C238 1.392 . S
H240 C259 0.949 . S
H241 C260 0.950 . S
H242 C262 0.950 . S
H243 C263 0.950 . S
H244 C265 0.950 . S
H245 C268 0.950 . S
H246 C269 0.950 . S
H247 C271 0.951 . S
H248 C272 0.949 . S
H249 C274 0.949 . S
H250 C275 0.950 . S
H251 C277 0.950 . S
H252 C278 0.950 . S
H253 C280 0.950 . S
H254 C283 0.950 . S
H255 C284 0.950 . S
H256 C286 0.951 . S
H257 C287 0.949 . S
C258 C259 1.376 . S
C258 C263 1.386 . S
C258 C264 1.483 . S
C259 H240 0.949 . S
C259 C258 1.376 . S
C259 C260 1.397 . S
C260 H241 0.950 . S
C260 C259 1.397 . S
C260 C261 1.391 . S
C261 C260 1.391 . S
C261 C262 1.405 . S
C262 H242 0.950 . S
C262 C261 1.405 . S
C262 C263 1.367 . S
C263 H243 0.950 . S
C263 C258 1.386 . S
C263 C262 1.367 . S
C264 C258 1.483 . S
C264 C265 1.382 . S
C264 C266 1.403 . S
C265 H244 0.950 . S
C265 C264 1.382 . S
C265 C281 1.411 . S
C266 C264 1.403 . S
C266 C267 1.489 . S
C266 C280 1.411 . S
C267 C266 1.489 . S
C267 C268 1.383 . S
C267 C272 1.382 . S
C268 H245 0.950 . S
C268 C267 1.383 . S
C268 C269 1.395 . S
C269 H246 0.950 . S
C269 C268 1.395 . S
C269 C270 1.288 . S
C270 C269 1.288 . S
C270 C271 1.392 . S
C271 H247 0.951 . S
C271 C270 1.392 . S
C271 C272 1.392 . S
C272 H248 0.949 . S
C272 C267 1.382 . S
C272 C271 1.392 . S
C273 C274 1.376 . S
C273 C278 1.386 . S
C273 C279 1.483 . S
C274 H249 0.949 . S
C274 C273 1.376 . S
C274 C275 1.397 . S
C275 H250 0.950 . S
C275 C274 1.397 . S
C275 C276 1.391 . S
C276 C275 1.391 . S
C276 C277 1.405 . S
C277 H251 0.950 . S
C277 C276 1.405 . S
C277 C278 1.367 . S
C278 H252 0.950 . S
C278 C273 1.386 . S
C278 C277 1.367 . S
C279 C273 1.483 . S
C279 C280 1.382 . S
C279 C281 1.403 . S
C280 H253 0.950 . S
C280 C266 1.411 . S
C280 C279 1.382 . S
C281 C265 1.411 . S
C281 C279 1.403 . S
C281 C282 1.489 . S
C282 C281 1.489 . S
C282 C283 1.383 . S
C282 C287 1.382 . S
C283 H254 0.950 . S
C283 C282 1.383 . S
C283 C284 1.395 . S
C284 H255 0.950 . S
C284 C283 1.395 . S
C284 C285 1.288 . S
C285 C284 1.288 . S
C285 C286 1.392 . S
C286 H256 0.951 . S
C286 C285 1.392 . S
C286 C287 1.392 . S
C287 H257 0.949 . S
C287 C282 1.382 . S
C287 C286 1.392 . S
H288 C307 0.949 . S
H289 C308 0.950 . S
H290 C310 0.950 . S
H291 C311 0.950 . S
H292 C313 0.953 . S
H293 C316 0.950 . S
H294 C317 0.950 . S
H295 C319 0.951 . S
H296 C320 0.949 1_545 S
H297 C322 0.949 . S
H298 C323 0.950 . S
H299 C325 0.950 . S
H300 C326 0.950 . S
H301 C328 0.950 . S
H302 C331 0.950 . S
H303 C332 0.950 . S
H304 C334 0.951 . S
H305 C335 0.949 1_565 S
C306 C307 1.376 . S
C306 C311 1.386 . S
C306 C312 1.483 . S
C307 H288 0.949 . S
C307 C306 1.376 . S
C307 C308 1.397 . S
C308 H289 0.950 . S
C308 C307 1.397 . S
C308 C309 1.391 . S
C309 C308 1.391 . S
C309 C310 1.405 . S
C310 H290 0.950 . S
C310 C309 1.405 . S
C310 C311 1.367 . S
C311 H291 0.950 . S
C311 C306 1.386 . S
C311 C310 1.367 . S
C312 C306 1.483 . S
C312 C313 1.390 . S
C312 C314 1.403 . S
C313 H292 0.953 . S
C313 C312 1.390 . S
C313 C329 1.401 1_565 S
C314 C312 1.403 . S
C314 C315 1.489 . S
C314 C328 1.411 1_565 S
C315 C314 1.489 . S
C315 C316 1.383 . S
C315 C320 1.382 . S
C316 H293 0.950 . S
C316 C315 1.383 . S
C316 C317 1.395 . S
C317 H294 0.950 . S
C317 C316 1.395 . S
C317 C318 1.288 . S
C318 C317 1.288 . S
C318 C319 1.392 . S
C319 H295 0.951 . S
C319 C318 1.392 . S
C319 C320 1.392 . S
C320 H296 0.949 1_565 S
C320 C315 1.382 . S
C320 C319 1.392 . S
C321 C322 1.376 . S
C321 C326 1.386 . S
C321 C327 1.483 . S
C322 H297 0.949 . S
C322 C321 1.376 . S
C322 C323 1.397 . S
C323 H298 0.950 . S
C323 C322 1.397 . S
C323 C324 1.391 . S
C324 C323 1.391 . S
C324 C325 1.405 . S
C325 H299 0.950 . S
C325 C324 1.405 . S
C325 C326 1.367 . S
C326 H300 0.950 . S
C326 C321 1.386 . S
C326 C325 1.367 . S
C327 C321 1.483 . S
C327 C328 1.382 . S
C327 C329 1.403 . S
C328 H301 0.950 . S
C328 C314 1.411 1_545 S
C328 C327 1.382 . S
C329 C313 1.401 1_545 S
C329 C327 1.403 . S
C329 C330 1.489 . S
C330 C329 1.489 . S
C330 C331 1.383 . S
C330 C335 1.382 . S
C331 H302 0.950 . S
C331 C330 1.383 . S
C331 C332 1.395 . S
C332 H303 0.950 . S
C332 C331 1.395 . S
C332 C333 1.288 . S
C333 C332 1.288 . S
C333 C334 1.392 . S
C334 H304 0.951 . S
C334 C333 1.392 . S
C334 C335 1.392 . S
C335 H305 0.949 1_545 S
C335 C330 1.382 . S
C335 C334 1.392 . S
H336 C355 0.949 1_455 S
H337 C356 0.950 . S
H338 C358 0.950 . S
H339 C359 0.950 . S
H340 C361 0.950 . S
H341 C364 0.950 . S
H342 C365 0.950 . S
H343 C367 0.951 . S
H344 C368 0.949 . S
H345 C370 0.949 . S
H346 C371 0.950 . S
H347 C373 0.950 . S
H348 C374 0.950 . S
H349 C376 0.950 . S
H350 C379 0.950 . S
H351 C380 0.950 . S
H352 C382 0.951 . S
H353 C383 0.949 1_545 S
C354 C355 1.376 . S
C354 C359 1.386 . S
C354 C360 1.483 . S
C355 H336 0.949 1_655 S
C355 C354 1.376 . S
C355 C356 1.397 . S
C356 H337 0.950 . S
C356 C355 1.397 . S
C356 C357 1.391 . S
C357 C356 1.391 . S
C357 C358 1.405 . S
C358 H338 0.950 . S
C358 C357 1.405 . S
C358 C359 1.367 . S
C359 H339 0.950 . S
C359 C354 1.386 . S
C359 C358 1.367 . S
C360 C354 1.483 . S
C360 C361 1.382 1_655 S
C360 C362 1.403 . S
C361 H340 0.950 . S
C361 C360 1.382 1_455 S
C361 C377 1.411 1_545 S
C362 C360 1.403 . S
C362 C363 1.489 . S
C362 C376 1.411 1_655 S
C363 C362 1.489 . S
C363 C364 1.383 . S
C363 C368 1.382 . S
C364 H341 0.950 . S
C364 C363 1.383 . S
C364 C365 1.395 . S
C365 H342 0.950 . S
C365 C364 1.395 . S
C365 C366 1.288 . S
C366 C365 1.288 . S
C366 C367 1.392 . S
C367 H343 0.951 . S
C367 C366 1.392 . S
C367 C368 1.392 . S
C368 H344 0.949 . S
C368 C363 1.382 . S
C368 C367 1.392 . S
C369 C370 1.376 . S
C369 C374 1.386 . S
C369 C375 1.483 . S
C370 H345 0.949 . S
C370 C369 1.376 . S
C370 C371 1.397 . S
C371 H346 0.950 . S
C371 C370 1.397 . S
C371 C372 1.391 . S
C372 C371 1.391 . S
C372 C373 1.405 . S
C373 H347 0.950 . S
C373 C372 1.405 . S
C373 C374 1.367 . S
C374 H348 0.950 . S
C374 C369 1.386 . S
C374 C373 1.367 . S
C375 C369 1.483 . S
C375 C376 1.382 1_565 S
C375 C377 1.403 . S
C376 H349 0.950 . S
C376 C362 1.411 1_455 S
C376 C375 1.382 1_545 S
C377 C361 1.411 1_565 S
C377 C375 1.403 . S
C377 C378 1.489 . S
C378 C377 1.489 . S
C378 C379 1.383 . S
C378 C383 1.382 . S
C379 H350 0.950 . S
C379 C378 1.383 . S
C379 C380 1.395 . S
C380 H351 0.950 . S
C380 C379 1.395 . S
C380 C381 1.288 . S
C381 C380 1.288 . S
C381 C382 1.392 . S
C382 H352 0.951 . S
C382 C381 1.392 . S
C382 C383 1.392 . S
C383 H353 0.949 1_565 S
C383 C378 1.382 . S
C383 C382 1.392 . S
Co384 O385 2.216 1_554 S
Co384 O386 2.091 1_554 S
Co384 O388 2.004 . S
Co384 O394 2.021 1_554 S
Co384 O396 2.137 . S
Co384 O397 2.244 . S
O385 Co384 2.216 1_556 S
O385 C392 1.247 . S
O386 Co384 2.091 1_556 S
O386 C392 1.261 . S
C387 O396 1.247 . S
C387 O397 1.272 . S
O388 Co384 2.004 . S
O388 C393 1.259 . S
Co389 O390 2.061 . S
Co389 O395 2.052 1_554 S
Co389 O397 2.135 . S
O390 Co389 2.061 . S
O390 C393 1.235 . S
C391 O394 1.238 . S
C391 O395 1.241 . S
C392 O385 1.247 . S
C392 O386 1.261 . S
C393 O388 1.259 . S
C393 O390 1.235 . S
O394 Co384 2.021 1_556 S
O394 C391 1.238 . S
O395 Co389 2.052 1_556 S
O395 C391 1.241 . S
O396 Co384 2.137 . S
O396 C387 1.247 . S
O397 Co384 2.244 . S
O397 C387 1.272 . S
O397 Co389 2.135 . S
Co398 O399 2.216 . S
Co398 O400 2.091 . S
Co398 O402 2.004 . S
Co398 O408 2.021 . S
Co398 O410 2.137 . S
Co398 O411 2.244 . S
O399 Co398 2.216 . S
O399 C406 1.247 . S
O400 Co398 2.091 . S
O400 C406 1.261 . S
C401 O410 1.247 . S
C401 O411 1.272 . S
O402 Co398 2.004 . S
O402 C407 1.259 . S
Co403 O404 2.061 . S
Co403 O409 2.052 . S
Co403 O411 2.135 . S
O404 Co403 2.061 . S
O404 C407 1.235 . S
C405 O408 1.238 . S
C405 O409 1.241 . S
C406 O399 1.247 . S
C406 O400 1.261 . S
C407 O402 1.259 . S
C407 O404 1.235 . S
O408 Co398 2.021 . S
O408 C405 1.238 . S
O409 Co403 2.052 . S
O409 C405 1.241 . S
O410 Co398 2.137 . S
O410 C401 1.247 . S
O411 Co398 2.244 . S
O411 C401 1.272 . S
O411 Co403 2.135 . S
Co412 O413 2.216 . S
Co412 O414 2.091 . S
Co412 O416 2.004 . S
Co412 O422 2.021 . S
Co412 O424 2.137 . S
Co412 O425 2.244 . S
O413 Co412 2.216 . S
O413 C420 1.247 . S
O414 Co412 2.091 . S
O414 C420 1.261 . S
C415 O424 1.247 . S
C415 O425 1.272 . S
O416 Co412 2.004 . S
O416 C421 1.259 . S
Co417 O418 2.061 . S
Co417 O423 2.052 . S
Co417 O425 2.135 . S
O418 Co417 2.061 . S
O418 C421 1.235 . S
C419 O422 1.238 . S
C419 O423 1.241 . S
C420 O413 1.247 . S
C420 O414 1.261 . S
C421 O416 1.259 . S
C421 O418 1.235 . S
O422 Co412 2.021 . S
O422 C419 1.238 . S
O423 Co417 2.052 . S
O423 C419 1.241 . S
O424 Co412 2.137 . S
O424 C415 1.247 . S
O425 Co412 2.244 . S
O425 C415 1.272 . S
O425 Co417 2.135 . S
Co426 O427 2.216 . S
Co426 O428 2.091 . S
Co426 O430 2.004 . S
Co426 O436 2.021 . S
Co426 O438 2.137 . S
Co426 O439 2.244 . S
O427 Co426 2.216 . S
O427 C434 1.247 . S
O428 Co426 2.091 . S
O428 C434 1.261 . S
C429 O438 1.247 . S
C429 O439 1.272 . S
O430 Co426 2.004 . S
O430 C435 1.259 . S
Co431 O432 2.061 . S
Co431 O437 2.052 . S
Co431 O439 2.135 . S
O432 Co431 2.061 . S
O432 C435 1.235 . S
C433 O436 1.238 . S
C433 O437 1.241 . S
C434 O427 1.247 . S
C434 O428 1.261 . S
C435 O430 1.259 . S
C435 O432 1.235 . S
O436 Co426 2.021 . S
O436 C433 1.238 . S
O437 Co431 2.052 . S
O437 C433 1.241 . S
O438 Co426 2.137 . S
O438 C429 1.247 . S
O439 Co426 2.244 . S
O439 C429 1.272 . S
O439 Co431 2.135 . S
Co440 O441 2.216 . S
Co440 O442 2.091 . S
Co440 O444 2.004 . S
Co440 O450 2.021 . S
Co440 O452 2.137 . S
Co440 O453 2.244 . S
O441 Co440 2.216 . S
O441 C448 1.247 . S
O442 Co440 2.091 . S
O442 C448 1.261 . S
C443 O452 1.247 . S
C443 O453 1.272 . S
O444 Co440 2.004 . S
O444 C449 1.259 . S
Co445 O446 2.061 . S
Co445 O451 2.052 . S
Co445 O453 2.135 . S
O446 Co445 2.061 . S
O446 C449 1.235 . S
C447 O450 1.238 . S
C447 O451 1.241 . S
C448 O441 1.247 . S
C448 O442 1.261 . S
C449 O444 1.259 . S
C449 O446 1.235 . S
O450 Co440 2.021 . S
O450 C447 1.238 . S
O451 Co445 2.052 . S
O451 C447 1.241 . S
O452 Co440 2.137 . S
O452 C443 1.247 . S
O453 Co440 2.244 . S
O453 C443 1.272 . S
O453 Co445 2.135 . S
Co454 O455 2.216 . S
Co454 O456 2.091 . S
Co454 O458 2.004 . S
Co454 O464 2.021 . S
Co454 O466 2.137 . S
Co454 O467 2.244 . S
O455 Co454 2.216 . S
O455 C462 1.247 . S
O456 Co454 2.091 . S
O456 C462 1.261 . S
C457 O466 1.247 . S
C457 O467 1.272 . S
O458 Co454 2.004 . S
O458 C463 1.259 . S
Co459 O460 2.061 . S
Co459 O465 2.052 . S
Co459 O467 2.135 . S
O460 Co459 2.061 . S
O460 C463 1.235 . S
C461 O464 1.238 . S
C461 O465 1.241 . S
C462 O455 1.247 . S
C462 O456 1.261 . S
C463 O458 1.259 . S
C463 O460 1.235 . S
O464 Co454 2.021 . S
O464 C461 1.238 . S
O465 Co459 2.052 . S
O465 C461 1.241 . S
O466 Co454 2.137 . S
O466 C457 1.247 . S
O467 Co454 2.244 . S
O467 C457 1.272 . S
O467 Co459 2.135 . S
Co468 O469 2.216 1_556 S
Co468 O470 2.091 1_556 S
Co468 O472 2.004 . S
Co468 O478 2.021 1_556 S
Co468 O480 2.137 . S
Co468 O481 2.244 . S
O469 Co468 2.216 1_554 S
O469 C476 1.247 . S
O470 Co468 2.091 1_554 S
O470 C476 1.261 . S
C471 O480 1.247 . S
C471 O481 1.272 . S
O472 Co468 2.004 . S
O472 C477 1.259 . S
Co473 O474 2.061 . S
Co473 O479 2.052 1_556 S
Co473 O481 2.135 . S
O474 Co473 2.061 . S
O474 C477 1.235 . S
C475 O478 1.238 . S
C475 O479 1.241 . S
C476 O469 1.247 . S
C476 O470 1.261 . S
C477 O472 1.259 . S
C477 O474 1.235 . S
O478 Co468 2.021 1_554 S
O478 C475 1.238 . S
O479 Co473 2.052 1_554 S
O479 C475 1.241 . S
O480 Co468 2.137 . S
O480 C471 1.247 . S
O481 Co468 2.244 . S
O481 C471 1.272 . S
O481 Co473 2.135 . S
Co482 O483 2.216 . S
Co482 O484 2.091 . S
Co482 O486 2.004 . S
Co482 O492 2.021 . S
Co482 O494 2.137 . S
Co482 O495 2.244 . S
O483 Co482 2.216 . S
O483 C490 1.247 . S
O484 Co482 2.091 . S
O484 C490 1.261 . S
C485 O494 1.247 . S
C485 O495 1.272 . S
O486 Co482 2.004 . S
O486 C491 1.259 . S
Co487 O488 2.061 . S
Co487 O493 2.052 . S
Co487 O495 2.135 . S
O488 Co487 2.061 . S
O488 C491 1.235 . S
C489 O492 1.238 . S
C489 O493 1.241 . S
C490 O483 1.247 . S
C490 O484 1.261 . S
C491 O486 1.259 . S
C491 O488 1.235 . S
O492 Co482 2.021 . S
O492 C489 1.238 . S
O493 Co487 2.052 . S
O493 C489 1.241 . S
O494 Co482 2.137 . S
O494 C485 1.247 . S
O495 Co482 2.244 . S
O495 C485 1.272 . S
O495 Co487 2.135 . S
H496 C504 0.950 . S
H497 C509 0.950 . S
H498 C506 0.950 . S
H499 C508 0.950 . S
H500 C510 0.950 . S
H501 C512 0.950 . S
H502 C514 0.950 . S
H503 C515 0.950 . S
C504 H496 0.950 . S
C504 C505 1.386 . S
C504 C506 1.391 . S
C505 C504 1.386 . S
C505 C509 1.393 . S
C506 H498 0.950 . S
C506 C504 1.391 . S
C506 C507 1.400 . S
C507 C506 1.400 . S
C507 C508 1.398 . S
C507 C513 1.491 . S
C508 H499 0.950 . S
C508 C507 1.398 . S
C508 C509 1.391 . S
C509 H497 0.950 . S
C509 C505 1.393 . S
C509 C508 1.391 . S
C510 H500 0.950 . S
C510 C511 1.386 . S
C510 C512 1.391 . S
C511 C510 1.386 . S
C511 C515 1.393 . S
C512 H501 0.950 . S
C512 C510 1.391 . S
C512 C513 1.400 . S
C513 C507 1.491 . S
C513 C512 1.400 . S
C513 C514 1.398 . S
C514 H502 0.950 . S
C514 C513 1.398 . S
C514 C515 1.391 . S
C515 H503 0.950 . S
C515 C511 1.393 . S
C515 C514 1.391 . S
H516 C524 0.950 . S
H517 C529 0.950 . S
H518 C526 0.950 . S
H519 C528 0.950 . S
H520 C530 0.950 . S
H521 C532 0.950 . S
H522 C534 0.950 . S
H523 C535 0.950 . S
C524 H516 0.950 . S
C524 C525 1.386 . S
C524 C526 1.391 . S
C525 C524 1.386 . S
C525 C529 1.393 . S
C526 H518 0.950 . S
C526 C524 1.391 . S
C526 C527 1.400 . S
C527 C526 1.400 . S
C527 C528 1.398 . S
C527 C533 1.491 . S
C528 H519 0.950 . S
C528 C527 1.398 . S
C528 C529 1.391 . S
C529 H517 0.950 . S
C529 C525 1.393 . S
C529 C528 1.391 . S
C530 H520 0.950 . S
C530 C531 1.386 . S
C530 C532 1.391 . S
C531 C530 1.386 . S
C531 C535 1.393 . S
C532 H521 0.950 . S
C532 C530 1.391 . S
C532 C533 1.400 . S
C533 C527 1.491 . S
C533 C532 1.400 . S
C533 C534 1.398 . S
C534 H522 0.950 . S
C534 C533 1.398 . S
C534 C535 1.391 . S
C535 H523 0.950 . S
C535 C531 1.393 . S
C535 C534 1.391 . S
H536 C544 0.950 . S
H537 C549 0.950 . S
H538 C546 0.950 . S
H539 C548 0.950 . S
H540 C550 0.950 . S
H541 C552 0.950 . S
H542 C554 0.950 . S
H543 C555 0.950 . S
C544 H536 0.950 . S
C544 C545 1.386 . S
C544 C546 1.391 . S
C545 C544 1.386 . S
C545 C549 1.393 . S
C546 H538 0.950 . S
C546 C544 1.391 . S
C546 C547 1.400 . S
C547 C546 1.400 . S
C547 C548 1.398 . S
C547 C553 1.491 . S
C548 H539 0.950 . S
C548 C547 1.398 . S
C548 C549 1.391 . S
C549 H537 0.950 . S
C549 C545 1.393 . S
C549 C548 1.391 . S
C550 H540 0.950 . S
C550 C551 1.386 . S
C550 C552 1.391 . S
C551 C550 1.386 . S
C551 C555 1.393 . S
C552 H541 0.950 . S
C552 C550 1.391 . S
C552 C553 1.400 . S
C553 C547 1.491 . S
C553 C552 1.400 . S
C553 C554 1.398 . S
C554 H542 0.950 . S
C554 C553 1.398 . S
C554 C555 1.391 . S
C555 H543 0.950 . S
C555 C551 1.393 . S
C555 C554 1.391 . S
H556 C564 0.950 . S
H557 C569 0.950 . S
H558 C566 0.950 . S
H559 C568 0.950 . S
H560 C570 0.950 . S
H561 C572 0.950 . S
H562 C574 0.950 . S
H563 C575 0.977 . S
C564 H556 0.950 . S
C564 C565 1.386 . S
C564 C566 1.391 . S
C565 C564 1.386 . S
C565 C569 1.393 . S
C566 H558 0.950 . S
C566 C564 1.391 . S
C566 C567 1.400 . S
C567 C566 1.400 . S
C567 C568 1.398 . S
C567 C573 1.491 . S
C568 H559 0.950 . S
C568 C567 1.398 . S
C568 C569 1.391 . S
C569 H557 0.950 . S
C569 C565 1.393 . S
C569 C568 1.391 . S
C570 H560 0.950 . S
C570 C571 1.386 . S
C570 C572 1.391 . S
C571 C570 1.386 . S
C571 C575 1.393 . S
C572 H561 0.950 . S
C572 C570 1.391 . S
C572 C573 1.400 . S
C573 C567 1.491 . S
C573 C572 1.400 . S
C573 C574 1.398 . S
C574 H562 0.950 . S
C574 C573 1.398 . S
C574 C575 1.391 . S
C575 H563 0.977 . S
C575 C571 1.393 . S
C575 C574 1.391 . S
H576 C584 0.950 . S
H577 C589 0.950 . S
H578 C586 0.950 . S
H579 C588 0.950 . S
H580 C590 0.950 . S
H581 C592 0.950 . S
H582 C594 0.950 . S
H583 C595 0.952 . S
C584 H576 0.950 . S
C584 C585 1.386 . S
C584 C586 1.391 . S
C585 C584 1.386 . S
C585 C589 1.393 . S
C586 H578 0.950 . S
C586 C584 1.391 . S
C586 C587 1.400 . S
C587 C586 1.400 . S
C587 C588 1.398 . S
C587 C593 1.491 . S
C588 H579 0.950 . S
C588 C587 1.398 . S
C588 C589 1.391 . S
C589 H577 0.950 . S
C589 C585 1.393 . S
C589 C588 1.391 . S
C590 H580 0.950 . S
C590 C591 1.386 . S
C590 C592 1.391 . S
C591 C590 1.386 . S
C591 C595 1.393 . S
C592 H581 0.950 . S
C592 C590 1.391 . S
C592 C593 1.400 . S
C593 C587 1.491 . S
C593 C592 1.400 . S
C593 C594 1.398 . S
C594 H582 0.950 . S
C594 C593 1.398 . S
C594 C595 1.391 . S
C595 H583 0.952 . S
C595 C591 1.393 . S
C595 C594 1.391 . S
H596 C604 0.950 . S
H597 C609 0.950 . S
H598 C606 0.950 . S
H599 C608 0.950 . S
H600 C610 0.950 . S
H601 C612 0.950 . S
H602 C614 0.950 . S
H603 C615 0.950 . S
C604 H596 0.950 . S
C604 C605 1.386 . S
C604 C606 1.391 . S
C605 C604 1.386 . S
C605 C609 1.393 . S
C606 H598 0.950 . S
C606 C604 1.391 . S
C606 C607 1.400 . S
C607 C606 1.400 . S
C607 C608 1.398 . S
C607 C613 1.491 . S
C608 H599 0.950 . S
C608 C607 1.398 . S
C608 C609 1.391 . S
C609 H597 0.950 . S
C609 C605 1.393 . S
C609 C608 1.391 . S
C610 H600 0.950 . S
C610 C611 1.386 . S
C610 C612 1.391 . S
C611 C610 1.386 . S
C611 C615 1.393 . S
C612 H601 0.950 . S
C612 C610 1.391 . S
C612 C613 1.400 . S
C613 C607 1.491 . S
C613 C612 1.400 . S
C613 C614 1.398 . S
C614 H602 0.950 . S
C614 C613 1.398 . S
C614 C615 1.391 . S
C615 H603 0.950 . S
C615 C611 1.393 . S
C615 C614 1.391 . S
H616 C624 0.950 . S
H617 C629 0.950 . S
H618 C626 0.950 . S
H619 C628 0.950 . S
H620 C630 0.950 . S
H621 C632 0.950 . S
H622 C634 0.950 . S
H623 C635 0.950 . S
C624 H616 0.950 . S
C624 C625 1.386 . S
C624 C626 1.391 . S
C625 C624 1.386 . S
C625 C629 1.393 . S
C626 H618 0.950 . S
C626 C624 1.391 . S
C626 C627 1.400 . S
C627 C626 1.400 . S
C627 C628 1.398 . S
C627 C633 1.491 . S
C628 H619 0.950 . S
C628 C627 1.398 . S
C628 C629 1.391 . S
C629 H617 0.950 . S
C629 C625 1.393 . S
C629 C628 1.391 . S
C630 H620 0.950 . S
C630 C631 1.386 . S
C630 C632 1.391 . S
C631 C630 1.386 . S
C631 C635 1.393 . S
C632 H621 0.950 . S
C632 C630 1.391 . S
C632 C633 1.400 . S
C633 C627 1.491 . S
C633 C632 1.400 . S
C633 C634 1.398 . S
C634 H622 0.950 . S
C634 C633 1.398 . S
C634 C635 1.391 . S
C635 H623 0.950 . S
C635 C631 1.393 . S
C635 C634 1.391 . S
H636 C644 0.950 . S
H637 C649 0.950 . S
H638 C646 0.950 . S
H639 C648 0.950 . S
H640 C650 0.950 . S
H641 C652 0.950 . S
H642 C654 0.950 . S
H643 C655 0.950 . S
C644 H636 0.950 . S
C644 C645 1.386 . S
C644 C646 1.391 . S
C645 C644 1.386 . S
C645 C649 1.393 . S
C646 H638 0.950 . S
C646 C644 1.391 . S
C646 C647 1.400 . S
C647 C646 1.400 . S
C647 C648 1.398 . S
C647 C653 1.491 . S
C648 H639 0.950 . S
C648 C647 1.398 . S
C648 C649 1.391 . S
C649 H637 0.950 . S
C649 C645 1.393 . S
C649 C648 1.391 . S
C650 H640 0.950 . S
C650 C651 1.386 . S
C650 C652 1.391 . S
C651 C650 1.386 . S
C651 C655 1.393 . S
C652 H641 0.950 . S
C652 C650 1.391 . S
C652 C653 1.400 . S
C653 C647 1.491 . S
C653 C652 1.400 . S
C653 C654 1.398 . S
C654 H642 0.950 . S
C654 C653 1.398 . S
C654 C655 1.391 . S
C655 H643 0.950 . S
C655 C651 1.393 . S
C655 C654 1.391 . S
H656 C664 0.950 . S
H657 C669 0.950 . S
H658 C666 0.950 . S
H659 C668 0.950 . S
H660 C670 0.950 . S
H661 C672 0.950 . S
H662 C674 0.950 . S
H663 C675 0.950 . S
C664 H656 0.950 . S
C664 C665 1.386 . S
C664 C666 1.391 . S
C665 C664 1.386 . S
C665 C669 1.393 . S
C666 H658 0.950 . S
C666 C664 1.391 . S
C666 C667 1.400 . S
C667 C666 1.400 . S
C667 C668 1.398 . S
C667 C673 1.491 . S
C668 H659 0.950 . S
C668 C667 1.398 . S
C668 C669 1.391 . S
C669 H657 0.950 . S
C669 C665 1.393 . S
C669 C668 1.391 . S
C670 H660 0.950 . S
C670 C671 1.386 . S
C670 C672 1.391 . S
C671 C670 1.386 . S
C671 C675 1.393 . S
C672 H661 0.950 . S
C672 C670 1.391 . S
C672 C673 1.400 . S
C673 C667 1.491 . S
C673 C672 1.400 . S
C673 C674 1.398 . S
C674 H662 0.950 . S
C674 C673 1.398 . S
C674 C675 1.391 . S
C675 H663 0.950 . S
C675 C671 1.393 . S
C675 C674 1.391 . S
H676 C684 0.950 . S
H677 C689 0.961 . S
H678 C686 0.950 . S
H679 C688 0.950 1_556 S
H680 C690 0.950 . S
H681 C692 0.960 . S
H682 C694 0.950 . S
H683 C695 0.950 . S
C684 H676 0.950 . S
C684 C685 1.386 . S
C684 C686 1.391 . S
C685 C684 1.386 . S
C685 C689 1.393 . S
C686 H678 0.950 . S
C686 C684 1.391 . S
C686 C687 1.400 . S
C687 C686 1.400 . S
C687 C688 1.398 . S
C687 C693 1.491 . S
C688 H679 0.950 1_554 S
C688 C687 1.398 . S
C688 C689 1.391 . S
C689 H677 0.961 . S
C689 C685 1.393 . S
C689 C688 1.391 . S
C690 H680 0.950 . S
C690 C691 1.386 1_556 S
C690 C692 1.394 . S
C691 C690 1.386 1_554 S
C691 C695 1.393 . S
C692 H681 0.960 . S
C692 C690 1.394 . S
C692 C693 1.387 1_556 S
C693 C687 1.491 . S
C693 C692 1.387 1_554 S
C693 C694 1.398 . S
C694 H682 0.950 . S
C694 C693 1.398 . S
C694 C695 1.391 . S
C695 H683 0.950 . S
C695 C691 1.393 . S
C695 C694 1.391 . S
H696 C704 0.950 . S
H697 C709 0.950 . S
H698 C706 0.950 . S
H699 C708 0.950 . S
H700 C710 0.950 . S
H701 C712 0.950 . S
H702 C714 0.950 . S
H703 C715 0.950 . S
C704 H696 0.950 . S
C704 C705 1.386 . S
C704 C706 1.391 . S
C705 C704 1.386 . S
C705 C709 1.393 . S
C706 H698 0.950 . S
C706 C704 1.391 . S
C706 C707 1.400 . S
C707 C706 1.400 . S
C707 C708 1.398 . S
C707 C713 1.491 . S
C708 H699 0.950 . S
C708 C707 1.398 . S
C708 C709 1.391 . S
C709 H697 0.950 . S
C709 C705 1.393 . S
C709 C708 1.391 . S
C710 H700 0.950 . S
C710 C711 1.386 . S
C710 C712 1.391 . S
C711 C710 1.386 . S
C711 C715 1.393 . S
C712 H701 0.950 . S
C712 C710 1.391 . S
C712 C713 1.400 . S
C713 C707 1.491 . S
C713 C712 1.400 . S
C713 C714 1.398 . S
C714 H702 0.950 . S
C714 C713 1.398 . S
C714 C715 1.391 . S
C715 H703 0.950 . S
C715 C711 1.393 . S
C715 C714 1.391 . S
H716 C724 0.950 . S
H717 C729 0.950 . S
H718 C726 0.950 . S
H719 C728 0.950 . S
H720 C730 0.950 . S
H721 C732 0.950 . S
H722 C734 0.950 . S
H723 C735 0.950 . S
C724 H716 0.950 . S
C724 C725 1.386 . S
C724 C726 1.391 . S
C725 C724 1.386 . S
C725 C729 1.393 . S
C726 H718 0.950 . S
C726 C724 1.391 . S
C726 C727 1.400 . S
C727 C726 1.400 . S
C727 C728 1.398 . S
C727 C733 1.491 . S
C728 H719 0.950 . S
C728 C727 1.398 . S
C728 C729 1.391 . S
C729 H717 0.950 . S
C729 C725 1.393 . S
C729 C728 1.391 . S
C730 H720 0.950 . S
C730 C731 1.386 . S
C730 C732 1.391 . S
C731 C730 1.386 . S
C731 C735 1.393 . S
C732 H721 0.950 . S
C732 C730 1.391 . S
C732 C733 1.400 . S
C733 C727 1.491 . S
C733 C732 1.400 . S
C733 C734 1.398 . S
C734 H722 0.950 . S
C734 C733 1.398 . S
C734 C735 1.391 . S
C735 H723 0.950 . S
C735 C731 1.393 . S
C735 C734 1.391 . S
H736 C744 0.950 . S
H737 C749 0.950 . S
H738 C746 0.950 . S
H739 C748 0.950 . S
H740 C750 0.950 . S
H741 C752 0.950 . S
H742 C754 0.950 . S
H743 C755 0.950 . S
C744 H736 0.950 . S
C744 C745 1.386 . S
C744 C746 1.391 . S
C745 C744 1.386 . S
C745 C749 1.393 . S
C746 H738 0.950 . S
C746 C744 1.391 . S
C746 C747 1.400 . S
C747 C746 1.400 . S
C747 C748 1.398 . S
C747 C753 1.491 . S
C748 H739 0.950 . S
C748 C747 1.398 . S
C748 C749 1.391 . S
C749 H737 0.950 . S
C749 C745 1.393 . S
C749 C748 1.391 . S
C750 H740 0.950 . S
C750 C751 1.386 . S
C750 C752 1.391 . S
C751 C750 1.386 . S
C751 C755 1.393 . S
C752 H741 0.950 . S
C752 C750 1.391 . S
C752 C753 1.400 . S
C753 C747 1.491 . S
C753 C752 1.400 . S
C753 C754 1.398 . S
C754 H742 0.950 . S
C754 C753 1.398 . S
C754 C755 1.391 . S
C755 H743 0.950 . S
C755 C751 1.393 . S
C755 C754 1.391 . S
H756 C764 0.950 . S
H757 C769 0.950 . S
H758 C766 0.950 . S
H759 C768 0.950 . S
H760 C770 0.950 . S
H761 C772 0.950 . S
H762 C774 0.950 . S
H763 C775 0.950 . S
C764 H756 0.950 . S
C764 C765 1.386 . S
C764 C766 1.391 . S
C765 C764 1.386 . S
C765 C769 1.393 . S
C766 H758 0.950 . S
C766 C764 1.391 . S
C766 C767 1.400 . S
C767 C766 1.400 . S
C767 C768 1.398 . S
C767 C773 1.491 . S
C768 H759 0.950 . S
C768 C767 1.398 . S
C768 C769 1.391 . S
C769 H757 0.950 . S
C769 C765 1.393 . S
C769 C768 1.391 . S
C770 H760 0.950 . S
C770 C771 1.386 . S
C770 C772 1.391 . S
C771 C770 1.386 . S
C771 C775 1.393 . S
C772 H761 0.950 . S
C772 C770 1.391 . S
C772 C773 1.400 . S
C773 C767 1.491 . S
C773 C772 1.400 . S
C773 C774 1.398 . S
C774 H762 0.950 . S
C774 C773 1.398 . S
C774 C775 1.391 . S
C775 H763 0.950 . S
C775 C771 1.393 . S
C775 C774 1.391 . S
H776 C784 0.950 . S
H777 C789 0.950 . S
H778 C786 0.950 . S
H779 C788 0.950 . S
H780 C790 0.950 . S
H781 C792 0.950 . S
H782 C794 0.950 . S
H783 C795 0.950 . S
C784 H776 0.950 . S
C784 C785 1.386 . S
C784 C786 1.391 . S
C785 C784 1.386 . S
C785 C789 1.393 . S
C786 H778 0.950 . S
C786 C784 1.391 . S
C786 C787 1.400 . S
C787 C786 1.400 . S
C787 C788 1.398 . S
C787 C793 1.491 . S
C788 H779 0.950 . S
C788 C787 1.398 . S
C788 C789 1.391 . S
C789 H777 0.950 . S
C789 C785 1.393 . S
C789 C788 1.391 . S
C790 H780 0.950 . S
C790 C791 1.386 . S
C790 C792 1.391 . S
C791 C790 1.386 . S
C791 C795 1.393 . S
C792 H781 0.950 . S
C792 C790 1.391 . S
C792 C793 1.400 . S
C793 C787 1.491 . S
C793 C792 1.400 . S
C793 C794 1.398 . S
C794 H782 0.950 . S
C794 C793 1.398 . S
C794 C795 1.391 . S
C795 H783 0.950 . S
C795 C791 1.393 . S
C795 C794 1.391 . S
H796 C804 0.950 . S
H797 C809 0.950 . S
H798 C806 0.950 . S
H799 C808 0.950 . S
H800 C810 0.950 . S
H801 C812 0.950 . S
H802 C814 0.950 . S
H803 C815 0.950 . S
C804 H796 0.950 . S
C804 C805 1.386 . S
C804 C806 1.391 . S
C805 C804 1.386 . S
C805 C809 1.393 . S
C806 H798 0.950 . S
C806 C804 1.391 . S
C806 C807 1.400 . S
C807 C806 1.400 . S
C807 C808 1.398 . S
C807 C813 1.491 . S
C808 H799 0.950 . S
C808 C807 1.398 . S
C808 C809 1.391 . S
C809 H797 0.950 . S
C809 C805 1.393 . S
C809 C808 1.391 . S
C810 H800 0.950 . S
C810 C811 1.386 . S
C810 C812 1.391 . S
C811 C810 1.386 . S
C811 C815 1.393 . S
C812 H801 0.950 . S
C812 C810 1.391 . S
C812 C813 1.400 . S
C813 C807 1.491 . S
C813 C812 1.400 . S
C813 C814 1.398 . S
C814 H802 0.950 . S
C814 C813 1.398 . S
C814 C815 1.391 . S
C815 H803 0.950 . S
C815 C811 1.393 . S
C815 C814 1.391 . S
H816 C824 0.950 . S
H817 C829 0.950 . S
H818 C826 0.950 . S
H819 C828 0.950 . S
H820 C830 0.950 . S
H821 C832 0.950 . S
H822 C834 0.950 . S
H823 C835 0.950 . S
C824 H816 0.950 . S
C824 C825 1.386 . S
C824 C826 1.391 . S
C825 C824 1.386 . S
C825 C829 1.393 . S
C826 H818 0.950 . S
C826 C824 1.391 . S
C826 C827 1.400 . S
C827 C826 1.400 . S
C827 C828 1.398 . S
C827 C833 1.491 . S
C828 H819 0.950 . S
C828 C827 1.398 . S
C828 C829 1.391 . S
C829 H817 0.950 . S
C829 C825 1.393 . S
C829 C828 1.391 . S
C830 H820 0.950 . S
C830 C831 1.386 . S
C830 C832 1.391 . S
C831 C830 1.386 . S
C831 C835 1.393 . S
C832 H821 0.950 . S
C832 C830 1.391 . S
C832 C833 1.400 . S
C833 C827 1.491 . S
C833 C832 1.400 . S
C833 C834 1.398 . S
C834 H822 0.950 . S
C834 C833 1.398 . S
C834 C835 1.391 . S
C835 H823 0.950 . S
C835 C831 1.393 . S
C835 C834 1.391 . S
H836 C844 0.950 . S
H837 C849 0.950 . S
H838 C846 0.950 . S
H839 C848 0.950 . S
H840 C850 0.950 . S
H841 C852 0.950 . S
H842 C854 0.950 . S
H843 C855 0.950 . S
C844 H836 0.950 . S
C844 C845 1.386 . S
C844 C846 1.391 . S
C845 C844 1.386 . S
C845 C849 1.393 . S
C846 H838 0.950 . S
C846 C844 1.391 . S
C846 C847 1.400 . S
C847 C846 1.400 . S
C847 C848 1.398 . S
C847 C853 1.491 . S
C848 H839 0.950 . S
C848 C847 1.398 . S
C848 C849 1.391 . S
C849 H837 0.950 . S
C849 C845 1.393 . S
C849 C848 1.391 . S
C850 H840 0.950 . S
C850 C851 1.386 . S
C850 C852 1.391 . S
C851 C850 1.386 . S
C851 C855 1.393 . S
C852 H841 0.950 . S
C852 C850 1.391 . S
C852 C853 1.400 . S
C853 C847 1.491 . S
C853 C852 1.400 . S
C853 C854 1.398 . S
C854 H842 0.950 . S
C854 C853 1.398 . S
C854 C855 1.391 . S
C855 H843 0.950 . S
C855 C851 1.393 . S
C855 C854 1.391 . S
H856 C864 0.950 . S
H857 C869 0.950 . S
H858 C866 0.950 . S
H859 C868 0.950 . S
H860 C870 0.950 . S
H861 C872 0.950 . S
H862 C874 0.950 . S
H863 C875 0.950 . S
C864 H856 0.950 . S
C864 C865 1.386 . S
C864 C866 1.391 . S
C865 C864 1.386 . S
C865 C869 1.393 . S
C866 H858 0.950 . S
C866 C864 1.391 . S
C866 C867 1.400 . S
C867 C866 1.400 . S
C867 C868 1.398 . S
C867 C873 1.491 . S
C868 H859 0.950 . S
C868 C867 1.398 . S
C868 C869 1.391 . S
C869 H857 0.950 . S
C869 C865 1.393 . S
C869 C868 1.391 . S
C870 H860 0.950 . S
C870 C871 1.386 . S
C870 C872 1.391 . S
C871 C870 1.386 . S
C871 C875 1.393 . S
C872 H861 0.950 . S
C872 C870 1.391 . S
C872 C873 1.400 . S
C873 C867 1.491 . S
C873 C872 1.400 . S
C873 C874 1.398 . S
C874 H862 0.950 . S
C874 C873 1.398 . S
C874 C875 1.391 . S
C875 H863 0.950 . S
C875 C871 1.393 . S
C875 C874 1.391 . S
H876 C884 0.950 . S
H877 C889 0.950 . S
H878 C886 0.950 . S
H879 C888 0.950 . S
H880 C890 0.950 . S
H881 C892 0.950 . S
H882 C894 0.950 . S
H883 C895 0.950 . S
C884 H876 0.950 . S
C884 C885 1.386 . S
C884 C886 1.391 . S
C885 C884 1.386 . S
C885 C889 1.393 . S
C886 H878 0.950 . S
C886 C884 1.391 . S
C886 C887 1.400 . S
C887 C886 1.400 . S
C887 C888 1.398 . S
C887 C893 1.491 . S
C888 H879 0.950 . S
C888 C887 1.398 . S
C888 C889 1.391 . S
C889 H877 0.950 . S
C889 C885 1.393 . S
C889 C888 1.391 . S
C890 H880 0.950 . S
C890 C891 1.386 . S
C890 C892 1.391 . S
C891 C890 1.386 . S
C891 C895 1.393 . S
C892 H881 0.950 . S
C892 C890 1.391 . S
C892 C893 1.400 . S
C893 C887 1.491 . S
C893 C892 1.400 . S
C893 C894 1.398 . S
C894 H882 0.950 . S
C894 C893 1.398 . S
C894 C895 1.391 . S
C895 H883 0.950 . S
C895 C891 1.393 . S
C895 C894 1.391 . S
H896 C904 0.950 . S
H897 C909 0.950 . S
H898 C906 0.950 . S
H899 C908 0.950 . S
H900 C910 0.950 . S
H901 C912 0.950 . S
H902 C914 0.950 . S
H903 C915 0.950 . S
C904 H896 0.950 . S
C904 C905 1.386 . S
C904 C906 1.391 . S
C905 C904 1.386 . S
C905 C909 1.393 . S
C906 H898 0.950 . S
C906 C904 1.391 . S
C906 C907 1.400 . S
C907 C906 1.400 . S
C907 C908 1.398 . S
C907 C913 1.491 . S
C908 H899 0.950 . S
C908 C907 1.398 . S
C908 C909 1.391 . S
C909 H897 0.950 . S
C909 C905 1.393 . S
C909 C908 1.391 . S
C910 H900 0.950 . S
C910 C911 1.386 . S
C910 C912 1.391 . S
C911 C910 1.386 . S
C911 C915 1.393 . S
C912 H901 0.950 . S
C912 C910 1.391 . S
C912 C913 1.400 . S
C913 C907 1.491 . S
C913 C912 1.400 . S
C913 C914 1.398 . S
C914 H902 0.950 . S
C914 C913 1.398 . S
C914 C915 1.391 . S
C915 H903 0.950 . S
C915 C911 1.393 . S
C915 C914 1.391 . S
H916 C924 0.950 . S
H917 C929 0.950 . S
H918 C926 0.950 . S
H919 C928 0.950 . S
H920 C930 0.950 . S
H921 C932 0.950 . S
H922 C934 0.950 . S
H923 C935 0.950 . S
C924 H916 0.950 . S
C924 C925 1.386 . S
C924 C926 1.391 . S
C925 C924 1.386 . S
C925 C929 1.393 . S
C926 H918 0.950 . S
C926 C924 1.391 . S
C926 C927 1.400 . S
C927 C926 1.400 . S
C927 C928 1.398 . S
C927 C933 1.491 . S
C928 H919 0.950 . S
C928 C927 1.398 . S
C928 C929 1.391 . S
C929 H917 0.950 . S
C929 C925 1.393 . S
C929 C928 1.391 . S
C930 H920 0.950 . S
C930 C931 1.386 . S
C930 C932 1.391 . S
C931 C930 1.386 . S
C931 C935 1.393 . S
C932 H921 0.950 . S
C932 C930 1.391 . S
C932 C933 1.400 . S
C933 C927 1.491 . S
C933 C932 1.400 . S
C933 C934 1.398 . S
C934 H922 0.950 . S
C934 C933 1.398 . S
C934 C935 1.391 . S
C935 H923 0.950 . S
C935 C931 1.393 . S
C935 C934 1.391 . S
H936 C944 0.950 . S
H937 C949 0.950 . S
H938 C946 0.950 . S
H939 C948 0.950 . S
H940 C950 0.950 . S
H941 C952 0.950 . S
H942 C954 0.950 . S
H943 C955 0.950 . S
C944 H936 0.950 . S
C944 C945 1.386 . S
C944 C946 1.391 . S
C945 C944 1.386 . S
C945 C949 1.393 . S
C946 H938 0.950 . S
C946 C944 1.391 . S
C946 C947 1.400 . S
C947 C946 1.400 . S
C947 C948 1.398 . S
C947 C953 1.491 . S
C948 H939 0.950 . S
C948 C947 1.398 . S
C948 C949 1.391 . S
C949 H937 0.950 . S
C949 C945 1.393 . S
C949 C948 1.391 . S
C950 H940 0.950 . S
C950 C951 1.386 . S
C950 C952 1.391 . S
C951 C950 1.386 . S
C951 C955 1.393 . S
C952 H941 0.950 . S
C952 C950 1.391 . S
C952 C953 1.400 . S
C953 C947 1.491 . S
C953 C952 1.400 . S
C953 C954 1.398 . S
C954 H942 0.950 . S
C954 C953 1.398 . S
C954 C955 1.391 . S
C955 H943 0.950 . S
C955 C951 1.393 . S
C955 C954 1.391 . S
H956 C964 0.950 . S
H957 C969 0.950 . S
H958 C966 0.950 . S
H959 C968 0.950 . S
H960 C970 0.950 . S
H961 C972 0.950 . S
H962 C974 0.950 . S
H963 C975 0.950 . S
C964 H956 0.950 . S
C964 C965 1.386 . S
C964 C966 1.391 . S
C965 C964 1.386 . S
C965 C969 1.393 . S
C966 H958 0.950 . S
C966 C964 1.391 . S
C966 C967 1.400 . S
C967 C966 1.400 . S
C967 C968 1.398 . S
C967 C973 1.491 . S
C968 H959 0.950 . S
C968 C967 1.398 . S
C968 C969 1.391 . S
C969 H957 0.950 . S
C969 C965 1.393 . S
C969 C968 1.391 . S
C970 H960 0.950 . S
C970 C971 1.386 . S
C970 C972 1.391 . S
C971 C970 1.386 . S
C971 C975 1.393 . S
C972 H961 0.950 . S
C972 C970 1.391 . S
C972 C973 1.400 . S
C973 C967 1.491 . S
C973 C972 1.400 . S
C973 C974 1.398 . S
C974 H962 0.950 . S
C974 C973 1.398 . S
C974 C975 1.391 . S
C975 H963 0.950 . S
C975 C971 1.393 . S
C975 C974 1.391 . S
H976 C984 0.950 . S
H977 C989 0.950 . S
H978 C986 0.950 . S
H979 C988 0.950 . S
H980 C990 0.950 . S
H981 C992 0.950 . S
H982 C994 0.950 . S
H983 C995 0.950 . S
C984 H976 0.950 . S
C984 C985 1.386 . S
C984 C986 1.391 . S
C985 C984 1.386 . S
C985 C989 1.393 . S
C986 H978 0.950 . S
C986 C984 1.391 . S
C986 C987 1.400 . S
C987 C986 1.400 . S
C987 C988 1.398 . S
C987 C993 1.491 . S
C988 H979 0.950 . S
C988 C987 1.398 . S
C988 C989 1.391 . S
C989 H977 0.950 . S
C989 C985 1.393 . S
C989 C988 1.391 . S
C990 H980 0.950 . S
C990 C991 1.386 . S
C990 C992 1.391 . S
C991 C990 1.386 . S
C991 C995 1.393 . S
C992 H981 0.950 . S
C992 C990 1.391 . S
C992 C993 1.400 . S
C993 C987 1.491 . S
C993 C992 1.400 . S
C993 C994 1.398 . S
C994 H982 0.950 . S
C994 C993 1.398 . S
C994 C995 1.391 . S
C995 H983 0.950 . S
C995 C991 1.393 . S
C995 C994 1.391 . S
H996 C1004 0.950 . S
H997 C1009 0.950 . S
H998 C1006 0.950 . S
H999 C1008 0.950 . S
H1000 C1010 0.950 . S
H1001 C1012 0.950 . S
H1002 C1014 0.950 . S
H1003 C1015 0.950 . S
C1004 H996 0.950 . S
C1004 C1005 1.386 . S
C1004 C1006 1.391 . S
C1005 C1004 1.386 . S
C1005 C1009 1.393 . S
C1006 H998 0.950 . S
C1006 C1004 1.391 . S
C1006 C1007 1.400 . S
C1007 C1006 1.400 . S
C1007 C1008 1.398 . S
C1007 C1013 1.491 . S
C1008 H999 0.950 . S
C1008 C1007 1.398 . S
C1008 C1009 1.391 . S
C1009 H997 0.950 . S
C1009 C1005 1.393 . S
C1009 C1008 1.391 . S
C1010 H1000 0.950 . S
C1010 C1011 1.386 . S
C1010 C1012 1.391 . S
C1011 C1010 1.386 . S
C1011 C1015 1.393 . S
C1012 H1001 0.950 . S
C1012 C1010 1.391 . S
C1012 C1013 1.400 . S
C1013 C1007 1.491 . S
C1013 C1012 1.400 . S
C1013 C1014 1.398 . S
C1014 H1002 0.950 . S
C1014 C1013 1.398 . S
C1014 C1015 1.391 . S
C1015 H1003 0.950 . S
C1015 C1011 1.393 . S
C1015 C1014 1.391 . S
H1016 C1024 0.950 . S
H1017 C1029 0.950 . S
H1018 C1026 0.950 . S
H1019 C1028 0.950 . S
H1020 C1030 0.950 . S
H1021 C1032 0.950 . S
H1022 C1034 0.950 . S
H1023 C1035 0.950 . S
C1024 H1016 0.950 . S
C1024 C1025 1.386 . S
C1024 C1026 1.391 . S
C1025 C1024 1.386 . S
C1025 C1029 1.393 . S
C1026 H1018 0.950 . S
C1026 C1024 1.391 . S
C1026 C1027 1.400 . S
C1027 C1026 1.400 . S
C1027 C1028 1.398 . S
C1027 C1033 1.491 . S
C1028 H1019 0.950 . S
C1028 C1027 1.398 . S
C1028 C1029 1.391 . S
C1029 H1017 0.950 . S
C1029 C1025 1.393 . S
C1029 C1028 1.391 . S
C1030 H1020 0.950 . S
C1030 C1031 1.386 . S
C1030 C1032 1.391 . S
C1031 C1030 1.386 . S
C1031 C1035 1.393 . S
C1032 H1021 0.950 . S
C1032 C1030 1.391 . S
C1032 C1033 1.400 . S
C1033 C1027 1.491 . S
C1033 C1032 1.400 . S
C1033 C1034 1.398 . S
C1034 H1022 0.950 . S
C1034 C1033 1.398 . S
C1034 C1035 1.391 . S
C1035 H1023 0.950 . S
C1035 C1031 1.393 . S
C1035 C1034 1.391 . S
H1036 C1044 0.950 . S
H1037 C1049 0.950 . S
H1038 C1046 0.950 . S
H1039 C1048 0.950 . S
H1040 C1050 0.950 . S
H1041 C1052 0.950 . S
H1042 C1054 0.950 . S
H1043 C1055 0.950 . S
C1044 H1036 0.950 . S
C1044 C1045 1.386 . S
C1044 C1046 1.391 . S
C1045 C1044 1.386 . S
C1045 C1049 1.393 . S
C1046 H1038 0.950 . S
C1046 C1044 1.391 . S
C1046 C1047 1.400 . S
C1047 C1046 1.400 . S
C1047 C1048 1.398 . S
C1047 C1053 1.491 . S
C1048 H1039 0.950 . S
C1048 C1047 1.398 . S
C1048 C1049 1.391 . S
C1049 H1037 0.950 . S
C1049 C1045 1.393 . S
C1049 C1048 1.391 . S
C1050 H1040 0.950 . S
C1050 C1051 1.386 . S
C1050 C1052 1.391 . S
C1051 C1050 1.386 . S
C1051 C1055 1.393 . S
C1052 H1041 0.950 . S
C1052 C1050 1.391 . S
C1052 C1053 1.400 . S
C1053 C1047 1.491 . S
C1053 C1052 1.400 . S
C1053 C1054 1.398 . S
C1054 H1042 0.950 . S
C1054 C1053 1.398 . S
C1054 C1055 1.391 . S
C1055 H1043 0.950 . S
C1055 C1051 1.393 . S
C1055 C1054 1.391 . S
H1056 C1064 0.950 . S
H1057 C1069 0.950 . S
H1058 C1066 0.950 . S
H1059 C1068 0.950 . S
H1060 C1070 0.950 . S
H1061 C1072 0.950 . S
H1062 C1074 0.950 . S
H1063 C1075 0.950 . S
C1064 H1056 0.950 . S
C1064 C1065 1.386 . S
C1064 C1066 1.391 . S
C1065 C1064 1.386 . S
C1065 C1069 1.393 . S
C1066 H1058 0.950 . S
C1066 C1064 1.391 . S
C1066 C1067 1.400 . S
C1067 C1066 1.400 . S
C1067 C1068 1.398 . S
C1067 C1073 1.491 . S
C1068 H1059 0.950 . S
C1068 C1067 1.398 . S
C1068 C1069 1.391 . S
C1069 H1057 0.950 . S
C1069 C1065 1.393 . S
C1069 C1068 1.391 . S
C1070 H1060 0.950 . S
C1070 C1071 1.386 . S
C1070 C1072 1.391 . S
C1071 C1070 1.386 . S
C1071 C1075 1.393 . S
C1072 H1061 0.950 . S
C1072 C1070 1.391 . S
C1072 C1073 1.400 . S
C1073 C1067 1.491 . S
C1073 C1072 1.400 . S
C1073 C1074 1.398 . S
C1074 H1062 0.950 . S
C1074 C1073 1.398 . S
C1074 C1075 1.391 . S
C1075 H1063 0.950 . S
C1075 C1071 1.393 . S
C1075 C1074 1.391 . S
H1076 C1084 0.950 . S
H1077 C1089 0.950 . S
H1078 C1086 0.950 . S
H1079 C1088 0.950 . S
H1080 C1090 0.950 . S
H1081 C1092 0.950 . S
H1082 C1094 0.950 . S
H1083 C1095 0.950 . S
C1084 H1076 0.950 . S
C1084 C1085 1.386 . S
C1084 C1086 1.391 . S
C1085 C1084 1.386 . S
C1085 C1089 1.393 . S
C1086 H1078 0.950 . S
C1086 C1084 1.391 . S
C1086 C1087 1.400 . S
C1087 C1086 1.400 . S
C1087 C1088 1.398 . S
C1087 C1093 1.491 . S
C1088 H1079 0.950 . S
C1088 C1087 1.398 . S
C1088 C1089 1.391 . S
C1089 H1077 0.950 . S
C1089 C1085 1.393 . S
C1089 C1088 1.391 . S
C1090 H1080 0.950 . S
C1090 C1091 1.386 . S
C1090 C1092 1.391 . S
C1091 C1090 1.386 . S
C1091 C1095 1.393 . S
C1092 H1081 0.950 . S
C1092 C1090 1.391 . S
C1092 C1093 1.400 . S
C1093 C1087 1.491 . S
C1093 C1092 1.400 . S
C1093 C1094 1.398 . S
C1094 H1082 0.950 . S
C1094 C1093 1.398 . S
C1094 C1095 1.391 . S
C1095 H1083 0.950 . S
C1095 C1091 1.393 . S
C1095 C1094 1.391 . S
H1096 C1104 0.950 . S
H1097 C1109 0.950 . S
H1098 C1106 0.950 . S
H1099 C1108 0.950 . S
H1100 C1110 0.950 . S
H1101 C1112 0.950 . S
H1102 C1114 0.950 . S
H1103 C1115 0.950 . S
C1104 H1096 0.950 . S
C1104 C1105 1.386 . S
C1104 C1106 1.391 . S
C1105 C1104 1.386 . S
C1105 C1109 1.393 . S
C1106 H1098 0.950 . S
C1106 C1104 1.391 . S
C1106 C1107 1.400 . S
C1107 C1106 1.400 . S
C1107 C1108 1.398 . S
C1107 C1113 1.491 . S
C1108 H1099 0.950 . S
C1108 C1107 1.398 . S
C1108 C1109 1.391 . S
C1109 H1097 0.950 . S
C1109 C1105 1.393 . S
C1109 C1108 1.391 . S
C1110 H1100 0.950 . S
C1110 C1111 1.386 . S
C1110 C1112 1.391 . S
C1111 C1110 1.386 . S
C1111 C1115 1.393 . S
C1112 H1101 0.950 . S
C1112 C1110 1.391 . S
C1112 C1113 1.400 . S
C1113 C1107 1.491 . S
C1113 C1112 1.400 . S
C1113 C1114 1.398 . S
C1114 H1102 0.950 . S
C1114 C1113 1.398 . S
C1114 C1115 1.391 . S
C1115 H1103 0.950 . S
C1115 C1111 1.393 . S
C1115 C1114 1.391 . S
H1116 C1124 0.950 . S
H1117 C1129 0.950 . S
H1118 C1126 0.950 . S
H1119 C1128 0.950 . S
H1120 C1130 0.950 . S
H1121 C1132 0.950 . S
H1122 C1134 0.950 . S
H1123 C1135 0.950 . S
C1124 H1116 0.950 . S
C1124 C1125 1.386 . S
C1124 C1126 1.391 . S
C1125 C1124 1.386 . S
C1125 C1129 1.393 . S
C1126 H1118 0.950 . S
C1126 C1124 1.391 . S
C1126 C1127 1.400 . S
C1127 C1126 1.400 . S
C1127 C1128 1.398 . S
C1127 C1133 1.491 . S
C1128 H1119 0.950 . S
C1128 C1127 1.398 . S
C1128 C1129 1.391 . S
C1129 H1117 0.950 . S
C1129 C1125 1.393 . S
C1129 C1128 1.391 . S
C1130 H1120 0.950 . S
C1130 C1131 1.386 . S
C1130 C1132 1.391 . S
C1131 C1130 1.386 . S
C1131 C1135 1.393 . S
C1132 H1121 0.950 . S
C1132 C1130 1.391 . S
C1132 C1133 1.400 . S
C1133 C1127 1.491 . S
C1133 C1132 1.400 . S
C1133 C1134 1.398 . S
C1134 H1122 0.950 . S
C1134 C1133 1.398 . S
C1134 C1135 1.391 . S
C1135 H1123 0.950 . S
C1135 C1131 1.393 . S
C1135 C1134 1.391 . S
C511 C406 1.337 . S
C505 C36 1.292 . S
C531 C420 1.344 . S
C525 C93 1.332 . S
C551 C435 1.320 . S
C545 C126 1.334 . S
C565 C165 1.307 . S
C571 C393 1.313 . S
C585 C222 1.299 . S
C591 C392 1.324 . S
C605 C261 1.288 . S
C611 C407 1.311 . S
C631 C421 1.336 . S
C625 C318 1.340 . S
C651 C434 1.352 . S
C645 C381 1.338 . S
C665 C132 1.285 . S
C671 C462 1.322 . S
C691 C476 1.364 . S
C685 C189 1.342 . S
C705 C30 1.303 . S
C711 C491 1.292 . S
C731 C448 1.304 . S
C725 C69 1.270 . S
C745 C324 1.303 . S
C751 C449 1.312 . S
C765 C357 1.299 . S
C771 C463 1.317 . S
C791 C477 1.317 . S
C785 C228 1.335 . S
C805 C285 1.353 . S
C811 C490 1.368 . S
C831 C415 1.734 . S
C825 C45 1.735 . S
C851 C433 1.702 . S
C845 C84 1.737 . S
C865 C117 1.730 . S
C871 C391 1.711 . S
C885 C174 1.716 . S
C891 C401 1.748 . S
C905 C213 1.725 . S
C911 C429 1.735 . S
C931 C387 1.740 . S
C925 C270 1.714 . S
C951 C405 1.703 . S
C945 C309 1.724 . S
C971 C419 1.694 . S
C965 C372 1.731 . S
C991 C471 1.733 . S
C985 C141 1.720 . S
C1011 C489 1.677 . S
C1005 C180 1.730 . S
C1025 C21 1.730 . S
C1031 C443 1.733 . S
C1051 C457 1.726 . S
C1045 C78 1.701 . S
C1071 C485 1.747 . S
C1065 C333 1.749 . S
C1085 C366 1.705 . S
C1091 C447 1.706 . S
C1111 C461 1.713 . S
C1105 C237 1.731 . S
C1131 C475 1.690 . S
C1125 C276 1.739 . S
