# Generated by pormake.
# Topology pts, (4,4)-cn, num edge types: 1
# Building blocks:
#     Node 0, Type 0, BuildingBlock: MUDLON_clean_linker_0, # of connection points: 4
#     Node 1, Type 0, BuildingBlock: MUDLON_clean_linker_0, # of connection points: 4
#     Node 2, Type 1, BuildingBlock: UXUYUI_clean_sbu_0, # of connection points: 4
#     Node 3, Type 1, BuildingBlock: UXUYUI_clean_sbu_0, # of connection points: 4
#     Edge 4, Type (0, 1), BuildingBlock: ZUJKAS_clean_linker_0, # of connection points: 2
#     Edge 5, Type (0, 1), BuildingBlock: ZUJKAS_clean_linker_0, # of connection points: 2
#     Edge 6, Type (0, 1), BuildingBlock: ZUJKAS_clean_linker_0, # of connection points: 2
#     Edge 7, Type (0, 1), BuildingBlock: ZUJKAS_clean_linker_0, # of connection points: 2
#     Edge 8, Type (0, 1), BuildingBlock: ZUJKAS_clean_linker_0, # of connection points: 2
#     Edge 9, Type (0, 1), BuildingBlock: ZUJKAS_clean_linker_0, # of connection points: 2
#     Edge 10, Type (0, 1), BuildingBlock: ZUJKAS_clean_linker_0, # of connection points: 2
#     Edge 11, Type (0, 1), BuildingBlock: ZUJKAS_clean_linker_0, # of connection points: 2
# Relax obj value: 0.011
# Max RMSD: 0.056
# Mean RMSD: 0.052
data_MOF--net-pts--node1-UXUYUI_clean_sbu_0--node2-MUDLON_clean_linker_0--edge1-ZUJKAS_clean_linker_0
_symmetry_space_group_name_H-M    P1
_symmetry_Int_Tables_number       1
_symmetry_cell_setting            triclinic
loop_
_symmetry_equiv_pos_as_xyz
'x, y, z'
_cell_length_a     48.085291
_cell_length_b     48.067787
_cell_length_c     61.640921
_cell_angle_alpha  90.016151
_cell_angle_beta   90.013195
_cell_angle_gamma 90.028439
loop_
_atom_site_label
_atom_site_type_symbol
_atom_site_fract_x
_atom_site_fract_y
_atom_site_fract_z
_atom_type_partial_charge
H0 H 0.62686 0.07113 0.02676 0.0
N1 N 0.60278 0.03068 0.00433 0.0
H2 H 0.65966 0.06634 0.05691 0.0
H3 H 0.61453 0.9823 0.02635 0.0
H4 H 0.64675 0.97739 0.0565 0.0
H5 H 0.62525 0.98225 0.98865 0.0
H6 H 0.65802 0.97818 0.95873 0.0
H7 H 0.61734 0.07018 0.97654 0.0
H8 H 0.65015 0.06626 0.94626 0.0
H9 H 0.55972 0.06495 0.00602 0.0
H10 H 0.58059 0.978 0.00137 0.0
H11 H 0.51028 0.05315 0.00539 0.0
H12 H 0.53171 0.96582 0.00231 0.0
H13 H 0.37627 0.02497 0.01917 0.0
H14 H 0.34375 0.03144 0.04901 0.0
H15 H 0.35559 0.94569 0.06799 0.0
H16 H 0.38896 0.93973 0.03836 0.0
H17 H 0.37262 0.93565 0.98826 0.0
H18 H 0.33987 0.93987 0.95809 0.0
H19 H 0.35992 0.02727 0.9526 0.0
H20 H 0.39341 0.02248 0.98235 0.0
H21 H 0.42557 0.0219 0.02698 0.0
H22 H 0.47424 0.03449 0.0259 0.0
H23 H 0.49051 0.96541 0.98277 0.0
N24 N 0.40119 0.97602 0.00726 0.0
H25 H 0.44174 0.9518 0.98509 0.0
C26 C 0.61816 0.02724 0.02423 0.0
C27 C 0.63069 0.0507 0.03353 0.0
C28 C 0.64938 0.0479 0.05077 0.0
C29 C 0.65599 0.02143 0.05899 0.0
C30 C 0.64241 0.99802 0.05031 0.0
C31 C 0.62371 1.00087 0.03309 0.0
C32 C 0.6187 0.02663 0.98481 0.0
C33 C 0.62993 1.00059 0.97923 0.0
C34 C 0.64875 0.99827 0.96204 0.0
C35 C 0.65684 0.02194 0.95021 0.0
C36 C 0.64461 0.04771 0.95524 0.0
C37 C 0.62572 0.04997 0.97237 0.0
C38 C 0.57395 0.02251 0.00406 0.0
C39 C 0.5536 0.04329 0.00513 0.0
C40 C 0.52534 0.03643 0.00495 0.0
C41 C 0.51676 0.00844 0.00395 0.0
C42 C 0.53733 0.98762 0.00278 0.0
C43 C 0.56557 0.99457 0.0026 0.0
C44 C 0.38523 0.98178 0.02659 0.0
C45 C 0.37237 0.00771 0.02999 0.0
C46 C 0.35352 0.01131 0.04699 0.0
C47 C 0.34676 0.989 0.06079 0.0
C48 C 0.3605 0.96342 0.05787 0.0
C49 C 0.37954 0.95992 0.04093 0.0
C50 C 0.38522 0.97868 0.98759 0.0
C51 C 0.37029 0.95555 0.98022 0.0
C52 C 0.35141 0.9581 0.96315 0.0
C53 C 0.3469 0.98403 0.95317 0.0
C54 C 0.36294 0.00699 0.95988 0.0
C55 C 0.38198 0.00434 0.97695 0.0
C56 C 0.42973 0.98549 0.00622 0.0
C57 C 0.43935 0.00926 0.0173 0.0
C58 C 0.46747 0.0167 0.01652 0.0
C59 C 0.4866 1.00096 0.00433 0.0
C60 C 0.4767 0.97772 0.99277 0.0
C61 C 0.44871 0.97002 0.99388 0.0
H62 H 0.98071 0.63011 0.51861 0.0
N63 N 0.02741 0.60252 0.50467 0.0
H64 H 0.97793 0.66212 0.54905 0.0
H65 H 0.06593 0.61155 0.53477 0.0
H66 H 0.06318 0.64343 0.56576 0.0
H67 H 0.06553 0.63078 0.48281 0.0
H68 H 0.05805 0.66292 0.45259 0.0
H69 H 0.97839 0.60986 0.48265 0.0
H70 H 0.97066 0.64199 0.45245 0.0
H71 H 0.97695 0.58121 0.51775 0.0
H72 H 0.05698 0.55931 0.49134 0.0
H73 H 0.96347 0.53242 0.51796 0.0
H74 H 0.04325 0.51032 0.49059 0.0
H75 H 0.93318 0.39035 0.53627 0.0
H76 H 0.93911 0.3571 0.56603 0.0
H77 H 0.02415 0.34343 0.54604 0.0
H78 H 0.01775 0.37561 0.51613 0.0
H79 H 0.01579 0.39306 0.48024 0.0
H80 H 0.01968 0.36055 0.45002 0.0
H81 H 0.93111 0.34534 0.45329 0.0
H82 H 0.92786 0.37677 0.48435 0.0
H83 H 0.93768 0.44568 0.49572 0.0
H84 H 0.95118 0.49474 0.49496 0.0
H85 H 0.03475 0.47181 0.51367 0.0
N86 N 0.96917 0.40205 0.50488 0.0
H87 H 0.02137 0.42307 0.51345 0.0
C88 C 0.02368 0.61835 0.52435 0.0
C89 C 0.99868 0.63237 0.52899 0.0
C90 C 0.99707 0.6507 0.54653 0.0
C91 C 0.02039 0.65549 0.55979 0.0
C92 C 0.04496 0.6405 0.55569 0.0
C93 C 0.04652 0.62213 0.53814 0.0
C94 C 0.02264 0.61804 0.48502 0.0
C95 C 0.0449 0.63275 0.47593 0.0
C96 C 0.04057 0.65102 0.45865 0.0
C97 C 0.01372 0.65508 0.45021 0.0
C98 C 0.99152 0.6395 0.45879 0.0
C99 C 0.99594 0.62104 0.47599 0.0
C100 C 0.01826 0.57394 0.50476 0.0
C101 C 0.99167 0.56597 0.51194 0.0
C102 C 0.98385 0.53793 0.51185 0.0
C103 C 0.00228 0.51728 0.50435 0.0
C104 C 0.02869 0.52548 0.49688 0.0
C105 C 0.03653 0.55347 0.49714 0.0
C106 C 0.97489 0.38568 0.52399 0.0
C107 C 0.95322 0.38051 0.53862 0.0
C108 C 0.95669 0.36155 0.55562 0.0
C109 C 0.98206 0.34738 0.55832 0.0
C110 C 0.00419 0.35358 0.54421 0.0
C111 C 1.00063 0.37238 0.52717 0.0
C112 C 0.9715 0.387 0.48475 0.0
C113 C 0.9972 0.38289 0.47437 0.0
C114 C 0.99933 0.36439 0.45691 0.0
C115 C 0.97577 0.34991 0.44936 0.0
C116 C 0.94983 0.35552 0.45899 0.0
C117 C 0.94782 0.37372 0.47657 0.0
C118 C 0.97827 0.43064 0.5048 0.0
C119 C 0.9589 0.45135 0.49962 0.0
C120 C 0.96664 0.47938 0.49935 0.0
C121 C 0.99405 0.48736 0.50438 0.0
C122 C 0.01354 0.46648 0.50945 0.0
C123 C 0.00581 0.43843 0.50954 0.0
Li124 Li 1.00142 0.02798 0.27111 0.0
Li125 Li 0.99889 0.97674 0.27053 0.0
Li126 Li 0.02577 0.0026 0.24173 0.0
Li127 Li 0.97468 0.00193 0.24242 0.0
C128 C 0.05464 0.00938 0.28564 0.0
N129 N 0.0997 0.02688 0.30992 0.0
C130 C 0.05962 0.99792 0.30612 0.0
C131 C 0.07283 0.02944 0.27739 0.0
C132 C 0.08243 0.00713 0.31818 0.0
C133 C 0.09543 0.03809 0.28994 0.0
C134 C 0.95317 0.99367 0.29132 0.0
C135 C 0.92162 0.95984 0.30647 0.0
N136 N 0.92409 0.97229 0.32619 0.0
C137 C 0.95524 0.00627 0.3117 0.0
C138 C 0.93607 0.97041 0.28862 0.0
C139 C 0.94041 0.99511 0.32914 0.0
C140 C 0.9865 0.0828 0.28079 0.0
N141 N 1.00154 0.06096 0.28841 0.0
C142 C 0.01548 0.08733 0.31946 0.0
C143 C 0.01565 0.06266 0.30748 0.0
C144 C 1.00034 0.11041 0.3119 0.0
C145 C 0.98562 0.10782 0.2923 0.0
H146 H 0.97514 0.08075 0.26573 0.0
H147 H 0.0269 0.04489 0.31353 0.0
C148 C 0.99965 0.91883 0.278 0.0
N149 N 0.99865 0.94398 0.28807 0.0
C150 C 0.99935 0.89431 0.29015 0.0
C151 C 0.9971 0.92198 0.32284 0.0
C152 C 0.99768 0.94596 0.31007 0.0
C153 C 0.99796 0.8957 0.31288 0.0
H154 H 1.00075 0.91779 0.26052 0.0
H155 H 0.99741 0.96618 0.31772 0.0
C156 C 0.00993 0.05651 0.22764 0.0
N157 N 0.0304 0.10111 0.20427 0.0
C158 C 1.00011 0.06184 0.2067 0.0
C159 C 0.02979 0.07418 0.23682 0.0
C160 C 0.01083 0.08439 0.1951 0.0
C161 C 0.03998 0.09654 0.22472 0.0
C162 C 0.98865 0.95514 0.22227 0.0
C163 C 1.00031 0.95563 0.20151 0.0
C164 C 0.96452 0.93966 0.22606 0.0
C165 C 0.98736 0.9409 0.18477 0.0
C166 C 0.95217 0.92526 0.20888 0.0
N167 N 0.96374 0.92619 0.18876 0.0
C168 C 0.08165 0.98996 0.23244 0.0
C169 C 0.05813 0.01265 0.20368 0.0
C170 C 0.10623 0.98923 0.22039 0.0
N171 N 0.05838 0.00191 0.22408 0.0
C172 C 0.0822 0.01223 0.191 0.0
C173 C 0.10673 1.00055 0.19939 0.0
H174 H 0.08113 0.98094 0.2485 0.0
H175 H 0.0392 0.02132 0.19715 0.0
C176 C 0.91682 0.00423 0.23481 0.0
N177 N 0.942 0.00296 0.22484 0.0
C178 C 0.8924 0.00495 0.22255 0.0
C179 C 0.92026 0.00313 0.18995 0.0
C180 C 0.94414 0.00263 0.20285 0.0
C181 C 0.89393 0.00432 0.1998 0.0
H182 H 0.91568 0.00475 0.25231 0.0
H183 H 0.96441 0.00199 0.1953 0.0
O184 O 0.03234 1.00059 0.27365 0.0
O185 O 0.96773 0.00416 0.27411 0.0
O186 O 0.99959 0.03451 0.23921 0.0
O187 O 1.00083 0.96971 0.2388 0.0
H188 H 0.04595 0.98217 0.31268 0.0
H189 H 0.06979 0.03799 0.26137 0.0
H190 H 0.08642 0.99856 0.3341 0.0
H191 H 0.10964 0.05364 0.28376 0.0
H192 H 0.90846 0.94173 0.30464 0.0
H193 H 0.96829 0.02435 0.31406 0.0
H194 H 0.93412 0.96051 0.27294 0.0
H195 H 0.94193 0.00455 0.34503 0.0
H196 H 0.0273 0.08834 0.33439 0.0
H197 H 0.9732 0.12478 0.28602 0.0
H198 H 0.99991 0.87447 0.28182 0.0
H199 H 0.99645 0.92398 0.34033 0.0
H200 H 0.98451 0.04861 0.19941 0.0
H201 H 0.03705 0.07091 0.2532 0.0
H202 H 0.00357 0.08862 0.17882 0.0
H203 H 0.05541 0.11032 0.23163 0.0
H204 H 0.01905 0.96737 0.19832 0.0
H205 H 0.95533 0.93894 0.24205 0.0
H206 H 0.99607 0.94121 0.16859 0.0
H207 H 0.93338 0.91336 0.21155 0.0
H208 H 0.12451 0.97954 0.22732 0.0
H209 H 0.08167 0.02122 0.1749 0.0
H210 H 0.87253 0.00567 0.2308 0.0
H211 H 0.92241 0.00302 0.17247 0.0
Li212 Li 0.97778 0.00289 0.76953 0.0
Li213 Li 0.02897 0.00245 0.76971 0.0
Li214 Li 1.00157 0.02833 0.74119 0.0
Li215 Li 0.0044 0.97721 0.74041 0.0
C216 C 0.99254 0.05022 0.78954 0.0
N217 N 0.96935 0.08027 0.82321 0.0
C218 C 0.0051 0.05021 0.80999 0.0
C219 C 0.96842 0.06583 0.78614 0.0
C220 C 0.99301 0.06547 0.82682 0.0
C221 C 0.95694 0.08078 0.80338 0.0
C222 C 0.01328 0.94928 0.78486 0.0
C223 C 0.04425 0.91035 0.7899 0.0
N224 N 0.03407 0.90674 0.81029 0.0
C225 C 0.00286 0.94494 0.80576 0.0
C226 C 0.03392 0.93165 0.77677 0.0
C227 C 0.01374 0.92342 0.8184 0.0
C228 C 0.92004 0.99979 0.77768 0.0
N229 N 0.94534 0.00203 0.78739 0.0
C230 C 0.92403 0.00458 0.82237 0.0
C231 C 0.94774 0.00401 0.80931 0.0
C232 C 0.89758 0.00271 0.81278 0.0
C233 C 0.89577 1.00004 0.79013 0.0
H234 H 0.91868 0.99794 0.76025 0.0
H235 H 0.96809 0.00534 0.81668 0.0
C236 C 0.0853 0.01427 0.77854 0.0
N237 N 0.06179 0.00311 0.78718 0.0
C238 C 0.10997 0.01478 0.7905 0.0
C239 C 0.08559 0.99317 0.82034 0.0
C240 C 0.06143 0.99301 0.80777 0.0
C241 C 0.11036 0.00402 0.81169 0.0
H242 H 0.08491 0.02279 0.76231 0.0
H243 H 0.04234 0.98502 0.81454 0.0
C244 C 0.95494 0.01179 0.72132 0.0
N245 N 0.92392 0.03426 0.6879 0.0
C246 C 0.95593 0.99994 0.70063 0.0
C247 C 0.93789 0.03483 0.72509 0.0
C248 C 0.94015 0.01166 0.68393 0.0
C249 C 0.92246 0.04596 0.70796 0.0
C250 C 0.05665 0.9955 0.72513 0.0
C251 C 0.06077 0.00668 0.70444 0.0
C252 C 0.07486 0.97517 0.7329 0.0
C253 C 0.08268 0.99685 0.69169 0.0
C254 C 0.09654 0.9659 0.71967 0.0
N255 N 0.09994 0.97681 0.69949 0.0
C256 C 1.00169 0.08628 0.73391 0.0
C257 C 0.99936 0.05932 0.70179 0.0
C258 C 1.00072 0.11087 0.72188 0.0
N259 N 1.00077 0.06119 0.72377 0.0
C260 C 0.99827 0.08337 0.68911 0.0
C261 C 0.99889 0.10964 0.69914 0.0
H262 H 0.00331 0.08725 0.75137 0.0
H263 H 0.99895 0.03914 0.69408 0.0
C264 C 0.99471 0.9206 0.731 0.0
N265 N 0.00509 0.94463 0.72264 0.0
C266 C 0.99532 0.89607 0.71885 0.0
C267 C 0.01657 0.9216 0.68944 0.0
C268 C 0.01551 0.94563 0.70215 0.0
C269 C 0.00655 0.89632 0.69781 0.0
H270 H 0.9861 0.92045 0.7472 0.0
H271 H 0.02272 0.96512 0.69554 0.0
O272 O 0.00392 0.03515 0.77293 0.0
O273 O 0.00288 0.97033 0.77229 0.0
O274 O 0.97047 1.00078 0.73781 0.0
O275 O 0.03519 0.00482 0.73778 0.0
H276 H 0.02388 0.03845 0.81288 0.0
H277 H 0.95858 0.06628 0.77038 0.0
H278 H 0.00241 0.06551 0.84277 0.0
H279 H 0.93816 0.09278 0.80101 0.0
H280 H 0.06028 0.8966 0.78385 0.0
H281 H 0.98666 0.95813 0.81221 0.0
H282 H 0.04164 0.93412 0.76044 0.0
H283 H 0.006 0.91997 0.83466 0.0
H284 H 0.92637 0.00625 0.83979 0.0
H285 H 0.87579 0.9987 0.78208 0.0
H286 H 0.12844 0.02382 0.78333 0.0
H287 H 0.08493 0.98456 0.83656 0.0
H288 H 0.96884 0.982 0.69745 0.0
H289 H 0.93667 0.04408 0.74104 0.0
H290 H 0.94084 0.0028 0.6678 0.0
H291 H 0.90933 0.06391 0.71062 0.0
H292 H 0.04711 0.02266 0.69824 0.0
H293 H 0.07253 0.96687 0.74907 0.0
H294 H 0.08598 0.00518 0.67559 0.0
H295 H 0.11073 0.95011 0.72548 0.0
H296 H 0.00179 0.13062 0.73029 0.0
H297 H 0.9966 0.08138 0.67166 0.0
H298 H 0.98747 0.87704 0.726 0.0
H299 H 0.02481 0.92291 0.67313 0.0
H300 H 0.34447 0.96745 0.10211 0.0
H301 H 0.30551 0.96975 0.12768 0.0
H302 H 0.25899 0.01927 0.08208 0.0
H303 H 0.29737 0.01664 0.05628 0.0
H304 H 0.25845 0.03909 0.12659 0.0
H305 H 0.23054 0.92719 0.11825 0.0
H306 H 0.26625 0.93475 0.12469 0.0
H307 H 0.25236 0.94499 0.09887 0.0
C308 C 0.32591 0.97875 0.09748 0.0
C309 C 0.32409 0.99182 0.07709 0.0
C310 C 0.30372 0.98008 0.11213 0.0
C311 C 0.27933 0.99447 0.10665 0.0
C312 C 0.27769 0.00811 0.0866 0.0
H313 H 0.11217 0.98774 0.15635 0.0
H314 H 0.15486 0.98685 0.13472 0.0
C315 C 0.29976 0.00671 0.07193 0.0
C316 C 0.25515 0.99491 0.12151 0.0
H317 H 0.20401 0.95387 0.14279 0.0
C318 C 0.24662 0.02046 0.13027 0.0
C319 C 0.23964 0.97059 0.12601 0.0
C320 C 0.24742 0.9428 0.11638 0.0
C321 C 0.22287 0.02234 0.14345 0.0
C322 C 0.20745 0.998 0.14805 0.0
C323 C 0.21602 0.97244 0.13931 0.0
C324 C 0.18177 0.99876 0.16128 0.0
C325 C 0.21402 0.05044 0.15191 0.0
C326 C 0.18285 0.00556 0.18339 0.0
C327 C 0.1585 0.00614 0.19578 0.0
C328 C 0.13263 0.99993 0.18625 0.0
C329 C 0.1317 0.993 0.16409 0.0
C330 C 0.15606 0.9923 0.15176 0.0
H331 H 0.2249 0.06772 0.14347 0.0
H332 H 0.19124 0.05329 0.14999 0.0
H333 H 0.21895 0.0518 0.16947 0.0
H334 H 0.20255 0.0103 0.19108 0.0
H335 H 0.15988 0.01174 0.21277 0.0
H336 H 0.00833 0.29729 0.55378 0.0
H337 H 0.01161 0.25958 0.58014 0.0
H338 H 0.96498 0.30816 0.62631 0.0
H339 H 0.96195 0.34639 0.60009 0.0
H340 H 0.03405 0.26037 0.62343 0.0
H341 H 0.92143 0.23372 0.62124 0.0
H342 H 0.9378 0.25481 0.60064 0.0
H343 H 0.92984 0.2695 0.62668 0.0
C344 C 0.99912 0.30022 0.56964 0.0
C345 C 0.9849 0.32495 0.57481 0.0
C346 C 1.00088 0.27854 0.58464 0.0
C347 C 0.98828 0.28098 0.60505 0.0
C348 C 0.97445 0.30573 0.61048 0.0
H349 H 0.97044 0.1577 0.7081 0.0
H350 H 0.96897 0.20044 0.68659 0.0
C351 C 0.97272 0.32751 0.59548 0.0
C352 C 0.98955 0.25739 0.62046 0.0
H353 H 0.9497 0.2077 0.64495 0.0
C354 C 0.01563 0.24889 0.62822 0.0
C355 C 0.96544 0.24255 0.62669 0.0
C356 C 0.93701 0.25037 0.61831 0.0
C357 C 0.01827 0.22585 0.64206 0.0
C358 C 0.99424 0.21057 0.64787 0.0
C359 C 0.96809 0.21942 0.64044 0.0
C360 C 0.99581 0.1849 0.66116 0.0
C361 C 0.04674 0.21826 0.65048 0.0
C362 C 0.01114 0.16188 0.65389 0.0
C363 C 0.01222 0.13752 0.66622 0.0
C364 C 0.99777 0.13558 0.68601 0.0
C365 C 0.98218 0.15863 0.69313 0.0
C366 C 0.98117 0.18301 0.68079 0.0
H367 H 0.0612 0.23628 0.64989 0.0
H368 H 0.04564 0.21055 0.66744 0.0
H369 H 0.05562 0.20152 0.64021 0.0
H370 H 0.02212 0.16267 0.63857 0.0
H371 H 0.0246 0.12028 0.66033 0.0
H372 H 0.66606 0.0533 0.09515 0.0
H373 H 0.70553 0.04971 0.12022 0.0
H374 H 0.73601 0.97854 0.08494 0.0
H375 H 0.6971 0.98226 0.05961 0.0
H376 H 0.7239 0.00215 0.14656 0.0
H377 H 0.80151 0.03547 0.085 0.0
H378 H 0.76466 0.04139 0.08177 0.0
H379 H 0.77901 0.00748 0.07686 0.0
C380 C 0.68118 0.03689 0.09274 0.0
C381 C 0.67847 0.01811 0.07535 0.0
C382 C 0.7036 0.03479 0.10712 0.0
C383 C 0.7238 0.01408 0.10423 0.0
C384 C 0.72077 0.99486 0.08728 0.0
H385 H 0.88185 0.97354 0.16367 0.0
H386 H 0.83982 0.97551 0.14132 0.0
C387 C 0.69836 0.99686 0.07296 0.0
C388 C 0.74844 0.01285 0.1186 0.0
H389 H 0.81908 0.01973 0.11865 0.0
C390 C 0.74473 0.0061 0.14054 0.0
C391 C 0.77552 0.01798 0.11062 0.0
C392 C 0.78055 0.02621 0.08732 0.0
C393 C 0.76754 0.0037 0.15467 0.0
C394 C 0.79468 0.00882 0.14668 0.0
C395 C 0.7983 0.01574 0.12473 0.0
C396 C 0.81968 0.00715 0.16072 0.0
C397 C 0.76245 0.995 0.17785 0.0
C398 C 0.82242 0.02446 0.17894 0.0
C399 C 0.8464 0.02336 0.19174 0.0
C400 C 0.86825 0.00516 0.18642 0.0
C401 C 0.8655 0.98796 0.16808 0.0
C402 C 0.84146 0.98898 0.15536 0.0
H403 H 0.742 0.9845 0.17974 0.0
H404 H 0.77901 0.98075 0.18366 0.0
H405 H 0.76244 0.01374 0.18837 0.0
H406 H 0.8062 0.03917 0.18306 0.0
H407 H 0.84808 0.0372 0.20555 0.0
H408 H 0.06061 0.69387 0.56906 0.0
H409 H 0.05805 0.73265 0.59459 0.0
H410 H 0.97554 0.70711 0.6134 0.0
H411 H 0.97821 0.6677 0.58829 0.0
H412 H 0.01803 0.77517 0.5926 0.0
H413 H 0.01466 0.72036 0.67193 0.0
H414 H 0.02618 0.70362 0.64729 0.0
H415 H 0.98972 0.70866 0.65222 0.0
C416 C 0.04217 0.69605 0.579 0.0
C417 C 0.01965 0.67759 0.57669 0.0
C418 C 0.04067 0.71837 0.59346 0.0
C419 C 0.01672 0.72261 0.60602 0.0
C420 C 0.99439 0.70396 0.6041 0.0
H421 H 0.9669 0.85558 0.6939 0.0
H422 H 0.96901 0.81334 0.67173 0.0
C423 C 0.99585 0.68162 0.5896 0.0
C424 C 0.01452 0.74761 0.61999 0.0
H425 H 0.00721 0.76911 0.6725 0.0
C426 C 0.01577 0.77387 0.61008 0.0
C427 C 0.01132 0.7458 0.64275 0.0
C428 C 0.01061 0.71813 0.65427 0.0
C429 C 0.01376 0.79841 0.6223 0.0
C430 C 0.01098 0.79664 0.64511 0.0
C431 C 0.00941 0.77038 0.65502 0.0
C432 C 0.01002 0.82186 0.65893 0.0
C433 C 0.01413 0.82601 0.61063 0.0
C434 C 0.03258 0.84039 0.65937 0.0
C435 C 0.03146 0.86448 0.67202 0.0
C436 C 0.00783 0.87043 0.68464 0.0
C437 C 0.98548 0.85152 0.6845 0.0
C438 C 0.9866 0.82743 0.67179 0.0
H439 H 0.00872 0.82368 0.5932 0.0
H440 H 0.99936 0.8409 0.61817 0.0
H441 H 0.03532 0.83505 0.61162 0.0
H442 H 0.05112 0.83615 0.64995 0.0
H443 H 0.04925 0.87831 0.67209 0.0
H444 H 0.3476 0.01447 0.91535 0.0
H445 H 0.3097 0.01996 0.88903 0.0
H446 H 0.25756 0.96653 0.92778 0.0
H447 H 0.29495 0.96119 0.95417 0.0
H448 H 0.25804 0.95324 0.8831 0.0
H449 H 0.23748 0.06555 0.89795 0.0
H450 H 0.27284 0.05641 0.89168 0.0
H451 H 0.25743 0.04441 0.91649 0.0
C452 C 0.32799 0.00406 0.91833 0.0
C453 C 0.32437 0.98728 0.93682 0.0
C454 C 0.30638 0.00722 0.90328 0.0
C455 C 0.28078 0.99381 0.90656 0.0
C456 C 0.27719 0.97699 0.92492 0.0
H457 H 0.11662 0.0164 0.85478 0.0
H458 H 0.15923 0.01441 0.87643 0.0
C459 C 0.29868 0.97383 0.93992 0.0
C460 C 0.2576 0.99688 0.89091 0.0
H461 H 0.21044 0.04347 0.87102 0.0
C462 C 0.24773 0.97299 0.88031 0.0
C463 C 0.24408 0.02264 0.88753 0.0
C464 C 0.25327 0.04874 0.89909 0.0
C465 C 0.22448 0.97408 0.86658 0.0
C466 C 0.21098 0.99985 0.86315 0.0
C467 C 0.22099 0.0238 0.87359 0.0
C468 C 0.18556 0.00201 0.84967 0.0
C469 C 0.21398 0.9475 0.85642 0.0
C470 C 0.18636 0.99607 0.8274 0.0
C471 C 0.16201 0.997 0.815 0.0
C472 C 0.13643 0.00398 0.82467 0.0
C473 C 0.13588 0.01051 0.84691 0.0
C474 C 0.16023 0.00961 0.85927 0.0
H475 H 0.22303 0.92877 0.86426 0.0
H476 H 0.19096 0.94623 0.85751 0.0
H477 H 0.21979 0.94716 0.839 0.0
H478 H 0.20578 0.99051 0.81963 0.0
H479 H 0.16313 0.9917 0.79795 0.0
H480 H 0.00973 0.34906 0.41332 0.0
H481 H 0.01554 0.3111 0.38713 0.0
H482 H 0.95366 0.26292 0.42096 0.0
H483 H 0.94835 0.30004 0.44757 0.0
H484 H 0.0298 0.25228 0.39879 0.0
H485 H 0.92946 0.26388 0.35494 0.0
H486 H 0.9451 0.29189 0.37025 0.0
H487 H 0.92725 0.26429 0.38408 0.0
C488 C 0.99741 0.33036 0.41526 0.0
C489 C 0.97843 0.32776 0.43255 0.0
C490 C 1.00067 0.30879 0.4002 0.0
C491 C 0.98478 0.28443 0.40202 0.0
C492 C 0.96574 0.2818 0.41909 0.0
H493 H 0.9982 0.11695 0.3561 0.0
H494 H 0.99673 0.16037 0.37667 0.0
C495 C 0.96264 0.30317 0.43422 0.0
C496 C 0.98874 0.26109 0.38669 0.0
H497 H 0.9549 0.22222 0.34856 0.0
C498 C 0.01358 0.24585 0.38763 0.0
C499 C 0.96758 0.25292 0.3721 0.0
C500 C 0.94088 0.26917 0.37006 0.0
C501 C 0.0174 0.22195 0.37487 0.0
C502 C 0.99576 0.21312 0.36093 0.0
C503 C 0.97135 0.22898 0.35939 0.0
C504 C 0.99769 0.18695 0.34838 0.0
C505 C 0.04441 0.20614 0.37648 0.0
C506 C 0.99844 0.18756 0.32565 0.0
C507 C 0.99957 0.16277 0.31381 0.0
C508 C 0.99964 0.13686 0.32449 0.0
C509 C 0.99874 0.13644 0.34732 0.0
C510 C 0.9978 0.16125 0.35912 0.0
H511 H 0.06108 0.21886 0.38408 0.0
H512 H 0.04121 0.18732 0.38661 0.0
H513 H 0.05148 0.19926 0.3602 0.0
H514 H 0.9983 0.20724 0.31709 0.0
H515 H 1.00064 0.16393 0.29629 0.0
H516 H 0.70057 0.05747 0.94497 0.0
H517 H 0.73976 0.05301 0.91997 0.0
H518 H 0.70452 0.97741 0.89422 0.0
H519 H 0.66488 0.98191 0.91904 0.0
H520 H 0.77627 0.00408 0.91865 0.0
H521 H 0.72432 0.02651 0.83983 0.0
H522 H 0.7099 0.0375 0.86551 0.0
H523 H 0.70773 1.0017 0.85747 0.0
C524 C 0.70083 0.04018 0.9337 0.0
C525 C 0.67952 0.02011 0.9339 0.0
C526 C 0.72334 0.03757 0.91954 0.0
C527 C 0.72488 0.01502 0.90518 0.0
C528 C 0.7035 0.99514 0.90504 0.0
H529 H 0.85097 0.9702 0.80953 0.0
H530 H 0.80907 0.97203 0.8321 0.0
C531 C 0.68101 0.99764 0.91931 0.0
C532 C 0.74967 0.01165 0.8912 0.0
H533 H 0.77177 0.01414 0.83862 0.0
C534 C 0.77534 0.00626 0.90114 0.0
C535 C 0.74823 0.01426 0.8684 0.0
C536 C 0.72115 0.02048 0.85706 0.0
C537 C 0.79973 0.00338 0.88886 0.0
C538 C 0.7985 0.00674 0.86607 0.0
C539 C 0.77269 0.01169 0.8561 0.0
C540 C 0.82384 0.00572 0.85236 0.0
C541 C 0.82649 0.99633 0.90042 0.0
C542 C 0.84585 0.02433 0.85604 0.0
C543 C 0.86981 0.02325 0.84326 0.0
C544 C 0.87208 0.00379 0.82632 0.0
C545 C 0.84977 0.98552 0.82238 0.0
C546 C 0.82587 0.98649 0.83529 0.0
H547 H 0.82249 0.98628 0.91635 0.0
H548 H 0.83963 0.98222 0.89051 0.0
H549 H 0.83835 0.01575 0.90348 0.0
H550 H 0.84443 0.03985 0.86873 0.0
H551 H 0.8864 0.03795 0.84641 0.0
H552 H 0.97214 0.69372 0.44953 0.0
H553 H 0.96662 0.73276 0.4244 0.0
H554 H 0.03907 0.70579 0.38899 0.0
H555 H 0.04455 0.66645 0.41389 0.0
H556 H 0.00962 0.77418 0.41785 0.0
H557 H 0.97922 0.72101 0.34133 0.0
H558 H 0.97526 0.70499 0.36767 0.0
H559 H 0.00893 0.70681 0.35518 0.0
C560 C 0.98652 0.69572 0.43609 0.0
C561 C 0.00876 0.67697 0.43366 0.0
C562 C 0.98343 0.71812 0.42185 0.0
C563 C 0.0023 0.722 0.40477 0.0
C564 C 0.02408 0.70293 0.40191 0.0
H565 H 0.03028 0.84935 0.30784 0.0
H566 H 0.03057 0.80731 0.33025 0.0
C567 C 0.02729 0.68062 0.41624 0.0
C568 C 1.00046 0.74713 0.39097 0.0
H569 H 0.98989 0.76906 0.33895 0.0
C570 C 0.00512 0.77314 0.40062 0.0
C571 C 0.99483 0.74558 0.3685 0.0
C572 C 0.98905 0.71815 0.3575 0.0
C573 C 0.00486 0.7977 0.38832 0.0
C574 C 0.99904 0.79623 0.36583 0.0
C575 C 0.99428 0.77016 0.35619 0.0
C576 C 0.99821 0.82147 0.35199 0.0
C577 C 0.01168 0.82486 0.39942 0.0
C578 C 0.9796 0.84319 0.35656 0.0
C579 C 0.97949 0.86728 0.34386 0.0
C580 C 0.99772 0.86993 0.32615 0.0
C581 C 0.01586 0.84785 0.32129 0.0
C582 C 0.0161 0.82385 0.3341 0.0
H583 H 0.0231 0.8215 0.41487 0.0
H584 H 0.02443 0.83845 0.38879 0.0
H585 H 0.99207 0.83595 0.4033 0.0
H586 H 0.9651 0.84151 0.36993 0.0
H587 H 0.96494 0.88373 0.34776 0.0
loop_
_geom_bond_atom_site_label_1
_geom_bond_atom_site_label_2
_geom_bond_distance
_geom_bond_site_symmetry_2
_ccdc_geom_bond_type
H0 C27 0.929 . S
N1 C26 1.433 . S
N1 C32 1.435 1_554 S
N1 C38 1.426 . S
H2 C28 0.930 . S
H3 C31 0.931 . S
H4 C30 0.929 . S
H5 C33 0.930 . S
H6 C34 0.932 . S
H7 C37 0.929 . S
H8 C36 0.931 . S
H9 C39 0.929 . S
H10 C43 0.932 1_565 S
H11 C40 0.931 . S
H12 C42 0.929 1_565 S
H13 C45 0.929 . S
H14 C46 0.930 . S
H15 C48 0.929 . S
H16 C49 0.931 . S
H17 C51 0.930 . S
H18 C52 0.932 . S
H19 C54 0.931 . S
H20 C55 0.929 . S
H21 C57 0.929 . S
H22 C58 0.931 . S
H23 C60 0.929 1_565 S
N24 C44 1.433 . S
N24 C50 1.435 1_554 S
N24 C56 1.426 . S
H25 C61 0.932 1_565 S
C26 N1 1.433 . S
C26 C27 1.363 . S
C26 C31 1.370 1_545 S
C27 H0 0.929 . S
C27 C26 1.363 . S
C27 C28 1.385 . S
C28 H2 0.930 . S
C28 C27 1.385 . S
C28 C29 1.357 . S
C29 C28 1.357 . S
C29 C30 1.406 1_545 S
C30 H4 0.929 . S
C30 C29 1.406 1_565 S
C30 C31 1.391 . S
C31 H3 0.931 . S
C31 C26 1.370 1_565 S
C31 C30 1.391 . S
C32 N1 1.435 1_556 S
C32 C33 1.358 1_545 S
C32 C37 1.371 . S
C33 H5 0.930 . S
C33 C32 1.358 1_565 S
C33 C34 1.405 . S
C34 H6 0.932 . S
C34 C33 1.405 . S
C34 C35 1.383 1_565 S
C35 C34 1.383 1_545 S
C35 C36 1.393 . S
C36 H8 0.931 . S
C36 C35 1.393 . S
C36 C37 1.382 . S
C37 H7 0.929 . S
C37 C32 1.371 . S
C37 C36 1.382 . S
C38 N1 1.426 . S
C38 C39 1.375 . S
C38 C43 1.374 1_554 S
C39 H9 0.929 . S
C39 C38 1.375 . S
C39 C40 1.376 . S
C40 H11 0.931 . S
C40 C39 1.376 . S
C40 C41 1.396 1_554 S
C41 C40 1.396 1_556 S
C41 C42 1.348 . S
C41 C59 1.472 . S
C42 H12 0.929 1_545 S
C42 C41 1.348 . S
C42 C43 1.443 . S
C43 H10 0.932 1_545 S
C43 C38 1.374 1_556 S
C43 C42 1.443 . S
C44 N24 1.433 . S
C44 C45 1.363 . S
C44 C49 1.370 1_545 S
C45 H13 0.929 . S
C45 C44 1.363 . S
C45 C46 1.385 . S
C46 H14 0.930 . S
C46 C45 1.385 . S
C46 C47 1.357 . S
C47 C46 1.357 . S
C47 C48 1.406 1_545 S
C48 H15 0.929 . S
C48 C47 1.406 1_565 S
C48 C49 1.391 . S
C49 H16 0.931 . S
C49 C44 1.370 1_565 S
C49 C48 1.391 . S
C50 N24 1.435 1_556 S
C50 C51 1.358 1_545 S
C50 C55 1.371 . S
C51 H17 0.930 . S
C51 C50 1.358 1_565 S
C51 C52 1.405 . S
C52 H18 0.932 . S
C52 C51 1.405 . S
C52 C53 1.383 1_565 S
C53 C52 1.383 1_545 S
C53 C54 1.393 . S
C54 H19 0.931 . S
C54 C53 1.393 . S
C54 C55 1.382 . S
C55 H20 0.929 . S
C55 C50 1.371 . S
C55 C54 1.382 . S
C56 N24 1.426 . S
C56 C57 1.375 . S
C56 C61 1.374 1_554 S
C57 H21 0.929 . S
C57 C56 1.375 . S
C57 C58 1.376 . S
C58 H22 0.931 . S
C58 C57 1.376 . S
C58 C59 1.396 1_554 S
C59 C41 1.472 . S
C59 C58 1.396 1_556 S
C59 C60 1.348 . S
C60 H23 0.929 1_545 S
C60 C59 1.348 . S
C60 C61 1.443 . S
C61 H25 0.932 1_545 S
C61 C56 1.374 1_556 S
C61 C60 1.443 . S
H62 C89 0.929 . S
N63 C88 1.433 . S
N63 C94 1.435 . S
N63 C100 1.423 . S
H64 C90 0.930 . S
H65 C93 0.931 . S
H66 C92 0.929 . S
H67 C95 0.930 . S
H68 C96 0.932 . S
H69 C99 0.929 . S
H70 C98 0.931 . S
H71 C101 0.929 . S
H72 C105 0.932 1_455 S
H73 C102 0.931 . S
H74 C104 0.929 1_455 S
H75 C107 0.929 . S
H76 C108 0.930 . S
H77 C110 0.929 . S
H78 C111 0.931 . S
H79 C113 0.930 . S
H80 C114 0.932 . S
H81 C116 0.931 . S
H82 C117 0.929 . S
H83 C119 0.929 . S
H84 C120 0.931 . S
H85 C122 0.929 1_455 S
N86 C106 1.433 . S
N86 C112 1.435 . S
N86 C118 1.423 . S
H87 C123 0.932 1_455 S
C88 N63 1.433 . S
C88 C89 1.363 . S
C88 C93 1.370 1_655 S
C89 H62 0.929 . S
C89 C88 1.363 . S
C89 C90 1.385 . S
C90 H64 0.930 . S
C90 C89 1.385 . S
C90 C91 1.357 . S
C91 C90 1.357 . S
C91 C92 1.406 1_655 S
C92 H66 0.929 . S
C92 C91 1.406 1_455 S
C92 C93 1.391 . S
C93 H65 0.931 . S
C93 C88 1.370 1_455 S
C93 C92 1.391 . S
C94 N63 1.435 . S
C94 C95 1.358 1_655 S
C94 C99 1.371 . S
C95 H67 0.930 . S
C95 C94 1.358 1_455 S
C95 C96 1.405 . S
C96 H68 0.932 . S
C96 C95 1.405 . S
C96 C97 1.383 1_455 S
C97 C96 1.383 1_655 S
C97 C98 1.393 . S
C98 H70 0.931 . S
C98 C97 1.393 . S
C98 C99 1.382 . S
C99 H69 0.929 . S
C99 C94 1.371 . S
C99 C98 1.382 . S
C100 N63 1.423 . S
C100 C101 1.362 . S
C100 C105 1.388 . S
C101 H71 0.929 . S
C101 C100 1.362 . S
C101 C102 1.376 . S
C102 H73 0.931 . S
C102 C101 1.376 . S
C102 C103 1.396 . S
C103 C102 1.396 . S
C103 C104 1.348 . S
C103 C121 1.472 . S
C104 H74 0.929 1_655 S
C104 C103 1.348 . S
C104 C105 1.443 . S
C105 H72 0.932 1_655 S
C105 C100 1.388 . S
C105 C104 1.443 . S
C106 N86 1.433 . S
C106 C107 1.363 . S
C106 C111 1.370 1_655 S
C107 H75 0.929 . S
C107 C106 1.363 . S
C107 C108 1.385 . S
C108 H76 0.930 . S
C108 C107 1.385 . S
C108 C109 1.357 . S
C109 C108 1.357 . S
C109 C110 1.406 1_655 S
C110 H77 0.929 . S
C110 C109 1.406 1_455 S
C110 C111 1.391 . S
C111 H78 0.931 . S
C111 C106 1.370 1_455 S
C111 C110 1.391 . S
C112 N86 1.435 . S
C112 C113 1.358 1_655 S
C112 C117 1.371 . S
C113 H79 0.930 . S
C113 C112 1.358 1_455 S
C113 C114 1.405 . S
C114 H80 0.932 . S
C114 C113 1.405 . S
C114 C115 1.383 1_455 S
C115 C114 1.383 1_655 S
C115 C116 1.393 . S
C116 H81 0.931 . S
C116 C115 1.393 . S
C116 C117 1.382 . S
C117 H82 0.929 . S
C117 C112 1.371 . S
C117 C116 1.382 . S
C118 N86 1.423 . S
C118 C119 1.362 . S
C118 C123 1.388 . S
C119 H83 0.929 . S
C119 C118 1.362 . S
C119 C120 1.376 . S
C120 H84 0.931 . S
C120 C119 1.376 . S
C120 C121 1.396 . S
C121 C103 1.472 . S
C121 C120 1.396 . S
C121 C122 1.348 . S
C122 H85 0.929 1_655 S
C122 C121 1.348 . S
C122 C123 1.443 . S
C123 H87 0.932 1_655 S
C123 C118 1.388 . S
C123 C122 1.443 . S
Li124 N141 1.990 . S
Li124 O184 1.956 1_545 S
Li124 O185 1.970 1_455 S
Li124 O186 1.961 1_455 S
Li125 N149 1.990 . S
Li125 O184 1.970 1_655 S
Li125 O185 1.956 1_565 S
Li125 O187 1.961 1_655 S
Li126 N171 1.990 . S
Li126 O184 1.961 1_545 S
Li126 O186 1.956 1_455 S
Li126 O187 1.970 1_545 S
Li127 N177 1.990 . S
Li127 O185 1.961 1_565 S
Li127 O186 1.970 1_565 S
Li127 O187 1.956 1_655 S
C128 C130 1.348 1_545 S
C128 C131 1.356 . S
C128 O184 1.325 1_545 S
N129 C132 1.314 1_545 S
N129 C133 1.279 . S
C130 C128 1.348 1_565 S
C130 C132 1.353 . S
C130 H188 0.929 . S
C131 C128 1.356 . S
C131 C133 1.358 . S
C131 H189 0.930 . S
C132 N129 1.314 1_565 S
C132 C130 1.353 . S
C132 H190 0.930 . S
C133 N129 1.279 . S
C133 C131 1.358 . S
C133 H191 0.930 . S
C134 C137 1.348 . S
C134 C138 1.356 1_545 S
C134 O185 1.325 . S
C135 N136 1.279 . S
C135 C138 1.358 . S
C135 H192 0.930 . S
N136 C135 1.279 . S
N136 C139 1.314 1_565 S
C137 C134 1.348 . S
C137 C139 1.353 . S
C137 H193 0.929 . S
C138 C134 1.356 1_565 S
C138 C135 1.358 . S
C138 H194 0.930 . S
C139 N136 1.314 1_545 S
C139 C137 1.353 . S
C139 H195 0.930 . S
C140 N141 1.314 1_655 S
C140 C145 1.353 . S
C140 H146 0.930 . S
N141 Li124 1.990 . S
N141 C140 1.314 1_455 S
N141 C143 1.279 . S
C142 C143 1.358 . S
C142 C144 1.356 . S
C142 H196 0.930 . S
C143 N141 1.279 . S
C143 C142 1.358 . S
C143 H147 0.930 . S
C144 C142 1.356 . S
C144 C145 1.348 1_455 S
C145 C140 1.353 . S
C145 C144 1.348 1_655 S
C145 H197 0.929 . S
H146 C140 0.930 . S
H147 C143 0.930 . S
C148 N149 1.314 1_455 S
C148 C150 1.353 . S
C148 H154 0.930 . S
N149 Li125 1.990 . S
N149 C148 1.314 1_655 S
N149 C152 1.279 . S
C150 C148 1.353 . S
C150 C153 1.348 . S
C150 H198 0.929 . S
C151 C152 1.358 . S
C151 C153 1.356 1_655 S
C151 H199 0.930 . S
C152 N149 1.279 . S
C152 C151 1.358 . S
C152 H155 0.930 . S
C153 C150 1.348 . S
C153 C151 1.356 1_455 S
H154 C148 0.930 . S
H155 C152 0.930 . S
C156 C158 1.348 1_455 S
C156 C159 1.356 . S
C156 O186 1.325 1_455 S
N157 C160 1.314 1_455 S
N157 C161 1.279 . S
C158 C156 1.348 1_655 S
C158 C160 1.353 . S
C158 H200 0.929 . S
C159 C156 1.356 . S
C159 C161 1.358 . S
C159 H201 0.930 . S
C160 N157 1.314 1_655 S
C160 C158 1.353 . S
C160 H202 0.930 . S
C161 N157 1.279 . S
C161 C159 1.358 . S
C161 H203 0.930 . S
C162 C163 1.348 . S
C162 C164 1.356 1_455 S
C162 O187 1.325 . S
C163 C162 1.348 . S
C163 C165 1.353 . S
C163 H204 0.929 . S
C164 C162 1.356 1_655 S
C164 C166 1.358 . S
C164 H205 0.930 . S
C165 C163 1.353 . S
C165 N167 1.314 1_455 S
C165 H206 0.930 . S
C166 C164 1.358 . S
C166 N167 1.279 . S
C166 H207 0.930 . S
N167 C165 1.314 1_655 S
N167 C166 1.279 . S
C168 C170 1.353 . S
C168 N171 1.314 1_565 S
C168 H174 0.930 . S
C169 N171 1.279 . S
C169 C172 1.358 . S
C169 H175 0.930 . S
C170 C168 1.353 . S
C170 C173 1.348 1_565 S
C170 H208 0.929 . S
N171 Li126 1.990 . S
N171 C168 1.314 1_545 S
N171 C169 1.279 . S
C172 C169 1.358 . S
C172 C173 1.356 . S
C172 H209 0.930 . S
C173 C170 1.348 1_545 S
C173 C172 1.356 . S
H174 C168 0.930 . S
H175 C169 0.930 . S
C176 N177 1.314 1_545 S
C176 C178 1.353 . S
C176 H182 0.930 . S
N177 Li127 1.990 . S
N177 C176 1.314 1_565 S
N177 C180 1.279 . S
C178 C176 1.353 . S
C178 C181 1.348 . S
C178 H210 0.929 . S
C179 C180 1.358 . S
C179 C181 1.356 1_565 S
C179 H211 0.930 . S
C180 N177 1.279 . S
C180 C179 1.358 . S
C180 H183 0.930 . S
C181 C178 1.348 . S
C181 C179 1.356 1_545 S
H182 C176 0.930 . S
H183 C180 0.930 . S
O184 Li124 1.956 1_565 S
O184 Li125 1.970 1_455 S
O184 Li126 1.961 1_565 S
O184 C128 1.325 1_565 S
O185 Li124 1.970 1_655 S
O185 Li125 1.956 1_545 S
O185 Li127 1.961 1_545 S
O185 C134 1.325 . S
O186 Li124 1.961 1_655 S
O186 Li126 1.956 1_655 S
O186 Li127 1.970 1_545 S
O186 C156 1.325 1_655 S
O187 Li125 1.961 1_455 S
O187 Li126 1.970 1_565 S
O187 Li127 1.956 1_455 S
O187 C162 1.325 . S
H188 C130 0.929 . S
H189 C131 0.930 . S
H190 C132 0.930 . S
H191 C133 0.930 . S
H192 C135 0.930 . S
H193 C137 0.929 . S
H194 C138 0.930 . S
H195 C139 0.930 . S
H196 C142 0.930 . S
H197 C145 0.929 . S
H198 C150 0.929 . S
H199 C151 0.930 . S
H200 C158 0.929 . S
H201 C159 0.930 . S
H202 C160 0.930 . S
H203 C161 0.930 . S
H204 C163 0.929 . S
H205 C164 0.930 . S
H206 C165 0.930 . S
H207 C166 0.930 . S
H208 C170 0.929 . S
H209 C172 0.930 . S
H210 C178 0.929 . S
H211 C179 0.930 . S
Li212 N229 1.990 . S
Li212 O272 1.956 1_655 S
Li212 O273 1.970 1_545 S
Li212 O274 1.961 1_545 S
Li213 N237 1.990 . S
Li213 O272 1.970 1_565 S
Li213 O273 1.956 1_455 S
Li213 O275 1.961 1_565 S
Li214 N259 1.990 . S
Li214 O272 1.961 1_655 S
Li214 O274 1.956 1_545 S
Li214 O275 1.970 1_655 S
Li215 N265 1.990 . S
Li215 O273 1.961 1_455 S
Li215 O274 1.970 1_455 S
Li215 O275 1.956 1_565 S
C216 C218 1.348 . S
C216 C219 1.356 1_455 S
C216 O272 1.325 . S
N217 C220 1.314 1_655 S
N217 C221 1.279 . S
C218 C216 1.348 . S
C218 C220 1.353 . S
C218 H276 0.929 . S
C219 C216 1.356 1_655 S
C219 C221 1.358 . S
C219 H277 0.930 . S
C220 N217 1.314 1_455 S
C220 C218 1.353 . S
C220 H278 0.930 . S
C221 N217 1.279 . S
C221 C219 1.358 . S
C221 H279 0.930 . S
C222 C225 1.348 1_455 S
C222 C226 1.356 . S
C222 O273 1.325 1_455 S
C223 N224 1.279 . S
C223 C226 1.358 . S
C223 H280 0.930 . S
N224 C223 1.279 . S
N224 C227 1.314 1_455 S
C225 C222 1.348 1_655 S
C225 C227 1.353 . S
C225 H281 0.929 . S
C226 C222 1.356 . S
C226 C223 1.358 . S
C226 H282 0.930 . S
C227 N224 1.314 1_655 S
C227 C225 1.353 . S
C227 H283 0.930 . S
C228 N229 1.314 1_565 S
C228 C233 1.353 . S
C228 H234 0.930 . S
N229 Li212 1.990 . S
N229 C228 1.314 1_545 S
N229 C231 1.279 . S
C230 C231 1.358 . S
C230 C232 1.356 . S
C230 H284 0.930 . S
C231 N229 1.279 . S
C231 C230 1.358 . S
C231 H235 0.930 . S
C232 C230 1.356 . S
C232 C233 1.348 1_545 S
C233 C228 1.353 . S
C233 C232 1.348 1_565 S
C233 H285 0.929 . S
H234 C228 0.930 . S
H235 C231 0.930 . S
C236 N237 1.314 1_545 S
C236 C238 1.353 . S
C236 H242 0.930 . S
N237 Li213 1.990 . S
N237 C236 1.314 1_565 S
N237 C240 1.279 . S
C238 C236 1.353 . S
C238 C241 1.348 . S
C238 H286 0.929 . S
C239 C240 1.358 . S
C239 C241 1.356 1_565 S
C239 H287 0.930 . S
C240 N237 1.279 . S
C240 C239 1.358 . S
C240 H243 0.930 . S
C241 C238 1.348 . S
C241 C239 1.356 1_545 S
H242 C236 0.930 . S
H243 C240 0.930 . S
C244 C246 1.348 1_545 S
C244 C247 1.356 . S
C244 O274 1.325 1_545 S
N245 C248 1.314 1_545 S
N245 C249 1.279 . S
C246 C244 1.348 1_565 S
C246 C248 1.353 . S
C246 H288 0.929 . S
C247 C244 1.356 . S
C247 C249 1.358 . S
C247 H289 0.930 . S
C248 N245 1.314 1_565 S
C248 C246 1.353 . S
C248 H290 0.930 . S
C249 N245 1.279 . S
C249 C247 1.358 . S
C249 H291 0.930 . S
C250 C251 1.348 . S
C250 C252 1.356 1_545 S
C250 O275 1.325 . S
C251 C250 1.348 . S
C251 C253 1.353 . S
C251 H292 0.929 . S
C252 C250 1.356 1_565 S
C252 C254 1.358 . S
C252 H293 0.930 . S
C253 C251 1.353 . S
C253 N255 1.314 1_545 S
C253 H294 0.930 . S
C254 C252 1.358 . S
C254 N255 1.279 . S
C254 H295 0.930 . S
N255 C253 1.314 1_565 S
N255 C254 1.279 . S
C256 C258 1.353 . S
C256 N259 1.314 1_455 S
C256 H262 0.930 . S
C257 N259 1.279 . S
C257 C260 1.358 . S
C257 H263 0.930 . S
C258 C256 1.353 . S
C258 C261 1.348 . S
C258 H296 0.929 . S
N259 Li214 1.990 . S
N259 C256 1.314 1_655 S
N259 C257 1.279 . S
C260 C257 1.358 . S
C260 C261 1.356 1_655 S
C260 H297 0.930 . S
C261 C258 1.348 . S
C261 C260 1.356 1_455 S
H262 C256 0.930 . S
H263 C257 0.930 . S
C264 N265 1.314 1_655 S
C264 C266 1.353 . S
C264 H270 0.930 . S
N265 Li215 1.990 . S
N265 C264 1.314 1_455 S
N265 C268 1.279 . S
C266 C264 1.353 . S
C266 C269 1.348 1_655 S
C266 H298 0.929 . S
C267 C268 1.358 . S
C267 C269 1.356 . S
C267 H299 0.930 . S
C268 N265 1.279 . S
C268 C267 1.358 . S
C268 H271 0.930 . S
C269 C266 1.348 1_455 S
C269 C267 1.356 . S
H270 C264 0.930 . S
H271 C268 0.930 . S
O272 Li212 1.956 1_455 S
O272 Li213 1.970 1_545 S
O272 Li214 1.961 1_455 S
O272 C216 1.325 . S
O273 Li212 1.970 1_565 S
O273 Li213 1.956 1_655 S
O273 Li215 1.961 1_655 S
O273 C222 1.325 1_655 S
O274 Li212 1.961 1_565 S
O274 Li214 1.956 1_565 S
O274 Li215 1.970 1_655 S
O274 C244 1.325 1_565 S
O275 Li213 1.961 1_545 S
O275 Li214 1.970 1_455 S
O275 Li215 1.956 1_545 S
O275 C250 1.325 . S
H276 C218 0.929 . S
H277 C219 0.930 . S
H278 C220 0.930 . S
H279 C221 0.930 . S
H280 C223 0.930 . S
H281 C225 0.929 . S
H282 C226 0.930 . S
H283 C227 0.930 . S
H284 C230 0.930 . S
H285 C233 0.929 . S
H286 C238 0.929 . S
H287 C239 0.930 . S
H288 C246 0.929 . S
H289 C247 0.930 . S
H290 C248 0.930 . S
H291 C249 0.930 . S
H292 C251 0.929 . S
H293 C252 0.930 . S
H294 C253 0.930 . S
H295 C254 0.930 . S
H296 C258 0.929 . S
H297 C260 0.930 . S
H298 C266 0.929 . S
H299 C267 0.930 . S
H300 C308 0.929 . S
H301 C310 0.930 . S
H302 C312 0.930 . S
H303 C315 0.929 . S
H304 C318 0.930 . S
H305 C320 0.960 . S
H306 C320 0.960 . S
H307 C320 0.960 . S
C308 H300 0.929 . S
C308 C309 1.382 . S
C308 C310 1.384 . S
C309 C308 1.382 . S
C309 C315 1.386 1_565 S
C310 H301 0.930 . S
C310 C308 1.384 . S
C310 C311 1.385 . S
C311 C310 1.385 . S
C311 C312 1.388 1_565 S
C311 C316 1.490 . S
C312 H302 0.930 . S
C312 C311 1.388 1_545 S
C312 C315 1.386 . S
H313 C329 0.930 . S
H314 C330 0.931 . S
C315 H303 0.929 . S
C315 C309 1.386 1_545 S
C315 C312 1.386 . S
C316 C311 1.490 . S
C316 C318 1.388 1_565 S
C316 C319 1.409 . S
H317 C323 0.930 . S
C318 H304 0.930 . S
C318 C316 1.388 1_545 S
C318 C321 1.403 . S
C319 C316 1.409 . S
C319 C320 1.524 . S
C319 C323 1.400 . S
C320 H305 0.960 . S
C320 H306 0.960 . S
C320 H307 0.960 . S
C320 C319 1.524 . S
C321 C318 1.403 . S
C321 C322 1.392 . S
C321 C325 1.495 . S
C322 C321 1.392 . S
C322 C323 1.385 1_545 S
C322 C324 1.478 . S
C323 H317 0.930 . S
C323 C319 1.400 . S
C323 C322 1.385 1_565 S
C324 C322 1.478 . S
C324 C326 1.381 1_545 S
C324 C330 1.383 . S
C325 C321 1.495 . S
C325 H331 0.959 . S
C325 H332 0.961 . S
C325 H333 0.960 . S
C326 C324 1.381 1_565 S
C326 C327 1.394 . S
C326 H334 0.930 . S
C327 C326 1.394 . S
C327 C328 1.367 1_565 S
C327 H335 0.929 . S
C328 C327 1.367 1_545 S
C328 C329 1.395 . S
C329 H313 0.930 . S
C329 C328 1.395 . S
C329 C330 1.379 . S
C330 H314 0.931 . S
C330 C324 1.383 . S
C330 C329 1.379 . S
H331 C325 0.959 . S
H332 C325 0.961 . S
H333 C325 0.960 . S
H334 C326 0.930 . S
H335 C327 0.929 . S
H336 C344 0.929 . S
H337 C346 0.930 . S
H338 C348 0.930 . S
H339 C351 0.929 . S
H340 C354 0.930 . S
H341 C356 0.960 . S
H342 C356 0.960 . S
H343 C356 0.960 . S
C344 H336 0.929 . S
C344 C345 1.378 1_455 S
C344 C346 1.384 . S
C345 C344 1.378 1_655 S
C345 C351 1.389 . S
C346 H337 0.930 . S
C346 C344 1.384 . S
C346 C347 1.382 . S
C347 C346 1.382 . S
C347 C348 1.389 1_455 S
C347 C352 1.491 . S
C348 H338 0.930 . S
C348 C347 1.389 1_655 S
C348 C351 1.386 . S
H349 C365 0.930 . S
H350 C366 0.931 . S
C351 H339 0.929 . S
C351 C345 1.389 . S
C351 C348 1.386 . S
C352 C347 1.491 . S
C352 C354 1.395 . S
C352 C355 1.403 1_455 S
H353 C359 0.930 . S
C354 H340 0.930 . S
C354 C352 1.395 . S
C354 C357 1.403 . S
C355 C352 1.403 1_655 S
C355 C356 1.524 . S
C355 C359 1.400 . S
C356 H341 0.960 . S
C356 H342 0.960 . S
C356 H343 0.960 . S
C356 C355 1.524 . S
C357 C354 1.403 . S
C357 C358 1.392 . S
C357 C361 1.495 . S
C358 C357 1.392 . S
C358 C359 1.385 1_455 S
C358 C360 1.478 . S
C359 H353 0.930 . S
C359 C355 1.400 . S
C359 C358 1.385 1_655 S
C360 C358 1.478 . S
C360 C362 1.381 . S
C360 C366 1.383 1_455 S
C361 C357 1.495 . S
C361 H367 0.959 . S
C361 H368 0.961 . S
C361 H369 0.960 . S
C362 C360 1.381 . S
C362 C363 1.394 . S
C362 H370 0.930 . S
C363 C362 1.394 . S
C363 C364 1.383 . S
C363 H371 0.929 . S
C364 C363 1.383 . S
C364 C365 1.377 1_455 S
C365 H349 0.930 . S
C365 C364 1.377 1_655 S
C365 C366 1.379 . S
C366 H350 0.931 . S
C366 C360 1.383 1_655 S
C366 C365 1.379 . S
H367 C361 0.959 . S
H368 C361 0.961 . S
H369 C361 0.960 . S
H370 C362 0.930 . S
H371 C363 0.929 . S
H372 C380 0.929 . S
H373 C382 0.930 . S
H374 C384 0.930 . S
H375 C387 0.929 . S
H376 C390 0.930 . S
H377 C392 0.960 . S
H378 C392 0.960 . S
H379 C392 0.979 . S
C380 H372 0.929 . S
C380 C381 1.392 . S
C380 C382 1.384 . S
C381 C380 1.392 . S
C381 C387 1.375 1_545 S
C382 H373 0.930 . S
C382 C380 1.384 . S
C382 C383 1.372 . S
C383 C382 1.372 . S
C383 C384 1.400 1_545 S
C383 C388 1.490 . S
C384 H374 0.930 . S
C384 C383 1.400 1_565 S
C384 C387 1.386 . S
H385 C401 0.930 . S
H386 C402 0.931 . S
C387 H375 0.929 . S
C387 C381 1.375 1_565 S
C387 C384 1.386 . S
C388 C383 1.490 . S
C388 C390 1.395 1_545 S
C388 C391 1.403 . S
H389 C395 0.930 . S
C390 H376 0.930 . S
C390 C388 1.395 1_565 S
C390 C393 1.403 . S
C391 C388 1.403 . S
C391 C392 1.524 . S
C391 C395 1.400 . S
C392 H377 0.960 . S
C392 H378 0.960 . S
C392 H379 0.979 . S
C392 C391 1.524 . S
C393 C390 1.403 . S
C393 C394 1.393 1_565 S
C393 C397 1.495 . S
C394 C393 1.393 1_545 S
C394 C395 1.384 . S
C394 C396 1.477 1_545 S
C395 H389 0.930 . S
C395 C391 1.400 . S
C395 C394 1.384 . S
C396 C394 1.477 1_565 S
C396 C398 1.362 1_565 S
C396 C402 1.402 . S
C397 C393 1.495 . S
C397 H403 0.959 . S
C397 H404 0.961 . S
C397 H405 0.960 1_565 S
C398 C396 1.362 1_545 S
C398 C399 1.394 . S
C398 H406 0.930 . S
C399 C398 1.394 . S
C399 C400 1.381 . S
C399 H407 0.929 . S
C400 C399 1.381 . S
C400 C401 1.379 1_545 S
C401 H385 0.930 . S
C401 C400 1.379 1_565 S
C401 C402 1.379 . S
C402 H386 0.931 . S
C402 C396 1.402 . S
C402 C401 1.379 . S
H403 C397 0.959 . S
H404 C397 0.961 . S
H405 C397 0.960 1_545 S
H406 C398 0.930 . S
H407 C399 0.929 . S
H408 C416 0.929 . S
H409 C418 0.930 . S
H410 C420 0.930 . S
H411 C423 0.929 . S
H412 C426 0.930 . S
H413 C428 0.960 . S
H414 C428 0.960 . S
H415 C428 0.960 . S
C416 H408 0.929 . S
C416 C417 1.382 . S
C416 C418 1.384 . S
C417 C416 1.382 . S
C417 C423 1.386 1_455 S
C418 H409 0.930 . S
C418 C416 1.384 . S
C418 C419 1.372 . S
C419 C418 1.372 . S
C419 C420 1.400 1_455 S
C419 C424 1.490 . S
C420 H410 0.930 . S
C420 C419 1.400 1_655 S
C420 C423 1.386 . S
H421 C437 0.930 . S
H422 C438 0.931 . S
C423 H411 0.929 . S
C423 C417 1.386 1_655 S
C423 C420 1.386 . S
C424 C419 1.490 . S
C424 C426 1.395 . S
C424 C427 1.403 1_455 S
H425 C431 0.930 . S
C426 H412 0.930 . S
C426 C424 1.395 . S
C426 C429 1.403 . S
C427 C424 1.403 1_655 S
C427 C428 1.524 . S
C427 C431 1.400 . S
C428 H413 0.960 . S
C428 H414 0.960 . S
C428 H415 0.960 . S
C428 C427 1.524 . S
C429 C426 1.403 . S
C429 C430 1.392 . S
C429 C433 1.495 . S
C430 C429 1.392 . S
C430 C431 1.385 1_455 S
C430 C432 1.478 . S
C431 H425 0.930 . S
C431 C427 1.400 . S
C431 C430 1.385 1_655 S
C432 C430 1.478 . S
C432 C434 1.381 . S
C432 C438 1.383 1_455 S
C433 C429 1.495 . S
C433 H439 0.959 . S
C433 H440 0.961 . S
C433 H441 0.960 . S
C434 C432 1.381 . S
C434 C435 1.394 . S
C434 H442 0.930 . S
C435 C434 1.394 . S
C435 C436 1.414 . S
C435 H443 0.929 . S
C436 C435 1.414 . S
C436 C437 1.348 1_455 S
C437 H421 0.930 . S
C437 C436 1.348 1_655 S
C437 C438 1.379 . S
C438 H422 0.931 . S
C438 C432 1.383 1_655 S
C438 C437 1.379 . S
H439 C433 0.959 . S
H440 C433 0.961 . S
H441 C433 0.960 . S
H442 C434 0.930 . S
H443 C435 0.929 . S
H444 C452 0.929 . S
H445 C454 0.930 . S
H446 C456 0.930 . S
H447 C459 0.929 . S
H448 C462 0.930 . S
H449 C464 0.960 . S
H450 C464 0.960 . S
H451 C464 0.960 . S
C452 H444 0.929 . S
C452 C453 1.374 1_565 S
C452 C454 1.384 . S
C453 C452 1.374 1_545 S
C453 C459 1.394 . S
C454 H445 0.930 . S
C454 C452 1.384 . S
C454 C455 1.373 1_565 S
C455 C454 1.373 1_545 S
C455 C456 1.398 . S
C455 C460 1.489 1_545 S
C456 H446 0.930 . S
C456 C455 1.398 . S
C456 C459 1.386 . S
H457 C473 0.930 . S
H458 C474 0.931 . S
C459 H447 0.929 . S
C459 C453 1.394 . S
C459 C456 1.386 . S
C460 C455 1.489 1_565 S
C460 C462 1.429 . S
C460 C463 1.370 1_565 S
H461 C467 0.930 . S
C462 H448 0.930 . S
C462 C460 1.429 . S
C462 C465 1.403 . S
C463 C460 1.370 1_545 S
C463 C464 1.524 . S
C463 C467 1.400 . S
C464 H449 0.960 . S
C464 H450 0.960 . S
C464 H451 0.960 . S
C464 C463 1.524 . S
C465 C462 1.403 . S
C465 C466 1.392 . S
C465 C469 1.495 . S
C466 C465 1.392 . S
C466 C467 1.385 1_565 S
C466 C468 1.478 . S
C467 H461 0.930 . S
C467 C463 1.400 . S
C467 C466 1.385 1_545 S
C468 C466 1.478 . S
C468 C470 1.381 . S
C468 C474 1.383 1_565 S
C469 C465 1.495 . S
C469 H475 0.959 . S
C469 H476 0.961 . S
C469 H477 0.960 . S
C470 C468 1.381 . S
C470 C471 1.394 . S
C470 H478 0.930 . S
C471 C470 1.394 . S
C471 C472 1.383 . S
C471 H479 0.929 . S
C472 C471 1.383 . S
C472 C473 1.377 1_565 S
C473 H457 0.930 . S
C473 C472 1.377 1_545 S
C473 C474 1.379 . S
C474 H458 0.931 . S
C474 C468 1.383 1_545 S
C474 C473 1.379 . S
H475 C469 0.959 . S
H476 C469 0.961 . S
H477 C469 0.960 . S
H478 C470 0.930 . S
H479 C471 0.929 . S
H480 C488 0.929 . S
H481 C490 0.930 . S
H482 C492 0.930 . S
H483 C495 0.929 . S
H484 C498 0.930 . S
H485 C500 0.960 . S
H486 C500 0.960 . S
H487 C500 0.960 . S
C488 H480 0.929 . S
C488 C489 1.375 . S
C488 C490 1.384 . S
C489 C488 1.375 . S
C489 C495 1.392 1_455 S
C490 H481 0.930 . S
C490 C488 1.384 . S
C490 C491 1.392 . S
C491 C490 1.392 . S
C491 C492 1.379 1_455 S
C491 C496 1.491 . S
C492 H482 0.930 . S
C492 C491 1.379 1_655 S
C492 C495 1.386 . S
H493 C509 0.930 . S
H494 C510 0.931 . S
C495 H483 0.929 . S
C495 C489 1.392 1_655 S
C495 C492 1.386 . S
C496 C491 1.491 . S
C496 C498 1.395 . S
C496 C499 1.403 1_455 S
H497 C503 0.930 . S
C498 H484 0.930 . S
C498 C496 1.395 . S
C498 C501 1.403 . S
C499 C496 1.403 1_655 S
C499 C500 1.524 . S
C499 C503 1.400 . S
C500 H485 0.960 . S
C500 H486 0.960 . S
C500 H487 0.960 . S
C500 C499 1.524 . S
C501 C498 1.403 . S
C501 C502 1.392 . S
C501 C505 1.495 . S
C502 C501 1.392 . S
C502 C503 1.385 1_455 S
C502 C504 1.478 . S
C503 H497 0.930 . S
C503 C499 1.400 . S
C503 C502 1.385 1_655 S
C504 C502 1.478 . S
C504 C506 1.381 . S
C504 C510 1.383 1_455 S
C505 C501 1.495 . S
C505 H511 0.959 . S
C505 H512 0.961 . S
C505 H513 0.960 . S
C506 C504 1.381 . S
C506 C507 1.394 . S
C506 H514 0.930 . S
C507 C506 1.394 . S
C507 C508 1.383 . S
C507 H515 0.929 . S
C508 C507 1.383 . S
C508 C509 1.377 1_455 S
C509 H493 0.930 . S
C509 C508 1.377 1_655 S
C509 C510 1.379 . S
C510 H494 0.931 . S
C510 C504 1.383 1_655 S
C510 C509 1.379 . S
H511 C505 0.959 . S
H512 C505 0.961 . S
H513 C505 0.960 . S
H514 C506 0.930 . S
H515 C507 0.929 . S
H516 C524 0.929 . S
H517 C526 0.930 . S
H518 C528 0.930 . S
H519 C531 0.929 . S
H520 C534 0.930 . S
H521 C536 0.960 . S
H522 C536 0.960 . S
H523 C536 0.960 . S
C524 H516 0.929 . S
C524 C525 1.387 . S
C524 C526 1.384 . S
C525 C524 1.387 . S
C525 C531 1.380 1_545 S
C526 H517 0.930 . S
C526 C524 1.384 . S
C526 C527 1.372 . S
C527 C526 1.372 . S
C527 C528 1.400 1_545 S
C527 C532 1.490 . S
C528 H518 0.930 . S
C528 C527 1.400 1_565 S
C528 C531 1.386 . S
H529 C545 0.930 . S
H530 C546 0.931 . S
C531 H519 0.929 . S
C531 C525 1.380 1_565 S
C531 C528 1.386 . S
C532 C527 1.490 . S
C532 C534 1.395 . S
C532 C535 1.403 1_545 S
H533 C539 0.930 . S
C534 H520 0.930 . S
C534 C532 1.395 . S
C534 C537 1.403 . S
C535 C532 1.403 1_565 S
C535 C536 1.524 . S
C535 C539 1.400 . S
C536 H521 0.960 . S
C536 H522 0.960 . S
C536 H523 0.960 . S
C536 C535 1.524 . S
C537 C534 1.403 . S
C537 C538 1.392 . S
C537 C541 1.495 . S
C538 C537 1.392 . S
C538 C539 1.385 1_545 S
C538 C540 1.478 . S
C539 H533 0.930 . S
C539 C535 1.400 . S
C539 C538 1.385 1_565 S
C540 C538 1.478 . S
C540 C542 1.381 . S
C540 C546 1.383 1_545 S
C541 C537 1.495 . S
C541 H547 0.959 . S
C541 H548 0.961 . S
C541 H549 0.960 . S
C542 C540 1.381 . S
C542 C543 1.394 . S
C542 H550 0.930 . S
C543 C542 1.394 . S
C543 C544 1.396 . S
C543 H551 0.929 . S
C544 C543 1.396 . S
C544 C545 1.365 1_545 S
C545 H529 0.930 . S
C545 C544 1.365 1_565 S
C545 C546 1.379 . S
C546 H530 0.931 . S
C546 C540 1.383 1_565 S
C546 C545 1.379 . S
H547 C541 0.959 . S
H548 C541 0.961 . S
H549 C541 0.960 . S
H550 C542 0.930 . S
H551 C543 0.929 . S
H552 C560 0.929 . S
H553 C562 0.930 . S
H554 C564 0.930 . S
H555 C567 0.929 . S
H556 C570 0.930 . S
H557 C572 0.960 . S
H558 C572 0.960 1_655 S
H559 C572 0.960 . S
C560 H552 0.929 . S
C560 C561 1.383 . S
C560 C562 1.384 . S
C561 C560 1.383 . S
C561 C567 1.384 1_655 S
C562 H553 0.930 . S
C562 C560 1.384 . S
C562 C563 1.372 . S
C563 C562 1.372 . S
C563 C564 1.400 1_655 S
C563 C568 1.490 . S
C564 H554 0.930 . S
C564 C563 1.400 1_455 S
C564 C567 1.386 . S
H565 C581 0.930 . S
H566 C582 0.931 . S
C567 H555 0.929 . S
C567 C561 1.384 1_455 S
C567 C564 1.386 . S
C568 C563 1.490 . S
C568 C570 1.395 . S
C568 C571 1.403 1_655 S
H569 C575 0.930 . S
C570 H556 0.930 . S
C570 C568 1.395 . S
C570 C573 1.403 . S
C571 C568 1.403 1_455 S
C571 C572 1.524 . S
C571 C575 1.400 . S
C572 H557 0.960 . S
C572 H558 0.960 1_455 S
C572 H559 0.960 . S
C572 C571 1.524 . S
C573 C570 1.403 . S
C573 C574 1.392 . S
C573 C577 1.495 . S
C574 C573 1.392 . S
C574 C575 1.385 1_655 S
C574 C576 1.478 . S
C575 H569 0.930 . S
C575 C571 1.400 . S
C575 C574 1.385 1_455 S
C576 C574 1.478 . S
C576 C578 1.392 . S
C576 C582 1.371 1_655 S
C577 C573 1.495 . S
C577 H583 0.959 . S
C577 H584 0.961 1_655 S
C577 H585 0.960 . S
C578 C576 1.392 . S
C578 C579 1.394 . S
C578 H586 0.930 . S
C579 C578 1.394 . S
C579 C580 1.364 1_655 S
C579 H587 0.929 . S
C580 C579 1.364 1_455 S
C580 C581 1.396 . S
C581 H565 0.930 . S
C581 C580 1.396 . S
C581 C582 1.379 . S
C582 H566 0.931 . S
C582 C576 1.371 1_455 S
C582 C581 1.379 . S
H583 C577 0.959 . S
H584 C577 0.961 1_455 S
H585 C577 0.960 . S
H586 C578 0.930 . S
H587 C579 0.929 . S
C328 C173 1.771 . S
C309 C47 1.658 1_565 S
C364 C261 1.777 . S
C345 C109 1.649 . S
C400 C181 1.771 . S
C381 C29 1.661 . S
C436 C269 1.777 . S
C417 C91 1.668 1_455 S
C472 C241 1.363 1_565 S
C453 C53 1.349 . S
C508 C144 1.363 . S
C489 C115 1.349 1_455 S
C544 C232 1.365 . S
C525 C35 1.355 . S
C561 C97 1.350 . S
C580 C153 1.369 . S
