# Generated by pormake.
# Topology ctn, (3,4)-cn, num edge types: 1
# Building blocks:
#     Node 0, Type 0, BuildingBlock: CUQRIR_clean_linker_1, # of connection points: 3
#     Node 1, Type 0, BuildingBlock: CUQRIR_clean_linker_1, # of connection points: 3
#     Node 2, Type 0, BuildingBlock: CUQRIR_clean_linker_1, # of connection points: 3
#     Node 3, Type 0, BuildingBlock: CUQRIR_clean_linker_1, # of connection points: 3
#     Node 4, Type 0, BuildingBlock: CUQRIR_clean_linker_1, # of connection points: 3
#     Node 5, Type 0, BuildingBlock: CUQRIR_clean_linker_1, # of connection points: 3
#     Node 6, Type 0, BuildingBlock: CUQRIR_clean_linker_1, # of connection points: 3
#     Node 7, Type 0, BuildingBlock: CUQRIR_clean_linker_1, # of connection points: 3
#     Node 8, Type 0, BuildingBlock: CUQRIR_clean_linker_1, # of connection points: 3
#     Node 9, Type 0, BuildingBlock: CUQRIR_clean_linker_1, # of connection points: 3
#     Node 10, Type 0, BuildingBlock: CUQRIR_clean_linker_1, # of connection points: 3
#     Node 11, Type 0, BuildingBlock: CUQRIR_clean_linker_1, # of connection points: 3
#     Node 12, Type 0, BuildingBlock: CUQRIR_clean_linker_1, # of connection points: 3
#     Node 13, Type 0, BuildingBlock: CUQRIR_clean_linker_1, # of connection points: 3
#     Node 14, Type 0, BuildingBlock: CUQRIR_clean_linker_1, # of connection points: 3
#     Node 15, Type 0, BuildingBlock: CUQRIR_clean_linker_1, # of connection points: 3
#     Node 16, Type 1, BuildingBlock: UXUYUI_clean_sbu_0, # of connection points: 4
#     Node 17, Type 1, BuildingBlock: UXUYUI_clean_sbu_0, # of connection points: 4
#     Node 18, Type 1, BuildingBlock: UXUYUI_clean_sbu_0, # of connection points: 4
#     Node 19, Type 1, BuildingBlock: UXUYUI_clean_sbu_0, # of connection points: 4
#     Node 20, Type 1, BuildingBlock: UXUYUI_clean_sbu_0, # of connection points: 4
#     Node 21, Type 1, BuildingBlock: UXUYUI_clean_sbu_0, # of connection points: 4
#     Node 22, Type 1, BuildingBlock: UXUYUI_clean_sbu_0, # of connection points: 4
#     Node 23, Type 1, BuildingBlock: UXUYUI_clean_sbu_0, # of connection points: 4
#     Node 24, Type 1, BuildingBlock: UXUYUI_clean_sbu_0, # of connection points: 4
#     Node 25, Type 1, BuildingBlock: UXUYUI_clean_sbu_0, # of connection points: 4
#     Node 26, Type 1, BuildingBlock: UXUYUI_clean_sbu_0, # of connection points: 4
#     Node 27, Type 1, BuildingBlock: UXUYUI_clean_sbu_0, # of connection points: 4
#     Edge 28, Type (0, 1), BuildingBlock: MIFKUJ_clean_linker_0, # of connection points: 2
#     Edge 29, Type (0, 1), BuildingBlock: MIFKUJ_clean_linker_0, # of connection points: 2
#     Edge 30, Type (0, 1), BuildingBlock: MIFKUJ_clean_linker_0, # of connection points: 2
#     Edge 31, Type (0, 1), BuildingBlock: MIFKUJ_clean_linker_0, # of connection points: 2
#     Edge 32, Type (0, 1), BuildingBlock: MIFKUJ_clean_linker_0, # of connection points: 2
#     Edge 33, Type (0, 1), BuildingBlock: MIFKUJ_clean_linker_0, # of connection points: 2
#     Edge 34, Type (0, 1), BuildingBlock: MIFKUJ_clean_linker_0, # of connection points: 2
#     Edge 35, Type (0, 1), BuildingBlock: MIFKUJ_clean_linker_0, # of connection points: 2
#     Edge 36, Type (0, 1), BuildingBlock: MIFKUJ_clean_linker_0, # of connection points: 2
#     Edge 37, Type (0, 1), BuildingBlock: MIFKUJ_clean_linker_0, # of connection points: 2
#     Edge 38, Type (0, 1), BuildingBlock: MIFKUJ_clean_linker_0, # of connection points: 2
#     Edge 39, Type (0, 1), BuildingBlock: MIFKUJ_clean_linker_0, # of connection points: 2
#     Edge 40, Type (0, 1), BuildingBlock: MIFKUJ_clean_linker_0, # of connection points: 2
#     Edge 41, Type (0, 1), BuildingBlock: MIFKUJ_clean_linker_0, # of connection points: 2
#     Edge 42, Type (0, 1), BuildingBlock: MIFKUJ_clean_linker_0, # of connection points: 2
#     Edge 43, Type (0, 1), BuildingBlock: MIFKUJ_clean_linker_0, # of connection points: 2
#     Edge 44, Type (0, 1), BuildingBlock: MIFKUJ_clean_linker_0, # of connection points: 2
#     Edge 45, Type (0, 1), BuildingBlock: MIFKUJ_clean_linker_0, # of connection points: 2
#     Edge 46, Type (0, 1), BuildingBlock: MIFKUJ_clean_linker_0, # of connection points: 2
#     Edge 47, Type (0, 1), BuildingBlock: MIFKUJ_clean_linker_0, # of connection points: 2
#     Edge 48, Type (0, 1), BuildingBlock: MIFKUJ_clean_linker_0, # of connection points: 2
#     Edge 49, Type (0, 1), BuildingBlock: MIFKUJ_clean_linker_0, # of connection points: 2
#     Edge 50, Type (0, 1), BuildingBlock: MIFKUJ_clean_linker_0, # of connection points: 2
#     Edge 51, Type (0, 1), BuildingBlock: MIFKUJ_clean_linker_0, # of connection points: 2
#     Edge 52, Type (0, 1), BuildingBlock: MIFKUJ_clean_linker_0, # of connection points: 2
#     Edge 53, Type (0, 1), BuildingBlock: MIFKUJ_clean_linker_0, # of connection points: 2
#     Edge 54, Type (0, 1), BuildingBlock: MIFKUJ_clean_linker_0, # of connection points: 2
#     Edge 55, Type (0, 1), BuildingBlock: MIFKUJ_clean_linker_0, # of connection points: 2
#     Edge 56, Type (0, 1), BuildingBlock: MIFKUJ_clean_linker_0, # of connection points: 2
#     Edge 57, Type (0, 1), BuildingBlock: MIFKUJ_clean_linker_0, # of connection points: 2
#     Edge 58, Type (0, 1), BuildingBlock: MIFKUJ_clean_linker_0, # of connection points: 2
#     Edge 59, Type (0, 1), BuildingBlock: MIFKUJ_clean_linker_0, # of connection points: 2
#     Edge 60, Type (0, 1), BuildingBlock: MIFKUJ_clean_linker_0, # of connection points: 2
#     Edge 61, Type (0, 1), BuildingBlock: MIFKUJ_clean_linker_0, # of connection points: 2
#     Edge 62, Type (0, 1), BuildingBlock: MIFKUJ_clean_linker_0, # of connection points: 2
#     Edge 63, Type (0, 1), BuildingBlock: MIFKUJ_clean_linker_0, # of connection points: 2
#     Edge 64, Type (0, 1), BuildingBlock: MIFKUJ_clean_linker_0, # of connection points: 2
#     Edge 65, Type (0, 1), BuildingBlock: MIFKUJ_clean_linker_0, # of connection points: 2
#     Edge 66, Type (0, 1), BuildingBlock: MIFKUJ_clean_linker_0, # of connection points: 2
#     Edge 67, Type (0, 1), BuildingBlock: MIFKUJ_clean_linker_0, # of connection points: 2
#     Edge 68, Type (0, 1), BuildingBlock: MIFKUJ_clean_linker_0, # of connection points: 2
#     Edge 69, Type (0, 1), BuildingBlock: MIFKUJ_clean_linker_0, # of connection points: 2
#     Edge 70, Type (0, 1), BuildingBlock: MIFKUJ_clean_linker_0, # of connection points: 2
#     Edge 71, Type (0, 1), BuildingBlock: MIFKUJ_clean_linker_0, # of connection points: 2
#     Edge 72, Type (0, 1), BuildingBlock: MIFKUJ_clean_linker_0, # of connection points: 2
#     Edge 73, Type (0, 1), BuildingBlock: MIFKUJ_clean_linker_0, # of connection points: 2
#     Edge 74, Type (0, 1), BuildingBlock: MIFKUJ_clean_linker_0, # of connection points: 2
#     Edge 75, Type (0, 1), BuildingBlock: MIFKUJ_clean_linker_0, # of connection points: 2
# Relax obj value: 0.077
# Max RMSD: 0.211
# Mean RMSD: 0.130
data_MOF--net-ctn--node1-UXUYUI_clean_sbu_0--node2-CUQRIR_clean_linker_1--edge1-MIFKUJ_clean_linker_0
_symmetry_space_group_name_H-M    P1
_symmetry_Int_Tables_number       1
_symmetry_cell_setting            triclinic
loop_
_symmetry_equiv_pos_as_xyz
'x, y, z'
_cell_length_a     82.830025
_cell_length_b     77.534059
_cell_length_c     79.320713
_cell_angle_alpha  96.364362
_cell_angle_beta   88.890125
_cell_angle_gamma 92.566839
loop_
_atom_site_label
_atom_site_type_symbol
_atom_site_fract_x
_atom_site_fract_y
_atom_site_fract_z
_atom_type_partial_charge
C0 C 0.04737 0.02752 0.07024 0.0
N1 N 0.05452 0.03296 0.05614 0.0
N2 N 0.03383 0.0363 0.07445 0.0
C3 C 0.05347 0.01349 0.07983 0.0
C4 C 0.03302 0.04729 0.06238 0.0
N5 N 0.04559 0.04529 0.05127 0.0
C6 C 0.01999 0.06006 0.06152 0.0
H7 H 0.04331 0.00657 0.08594 0.0
H8 H 0.06167 0.01955 0.08991 0.0
H9 H 0.06035 0.00397 0.07142 0.0
H10 H 0.01484 0.064 0.07432 0.0
H11 H 0.01017 0.05382 0.05336 0.0
H12 H 0.02468 0.07179 0.05588 0.0
C13 C 0.29034 0.72438 0.22118 0.0
N14 N 0.29671 0.71652 0.23383 0.0
N15 N 0.30085 0.73666 0.21602 0.0
C16 C 0.27387 0.71996 0.21378 0.0
C17 C 0.31391 0.73595 0.2259 0.0
N18 N 0.31152 0.72351 0.23659 0.0
C19 C 0.32889 0.7476 0.22526 0.0
H20 H 0.27283 0.72438 0.20104 0.0
H21 H 0.26465 0.72651 0.22224 0.0
H22 H 0.27115 0.70575 0.2129 0.0
H23 H 0.32644 0.75968 0.21966 0.0
H24 H 0.33818 0.74062 0.21727 0.0
H25 H 0.33383 0.75099 0.23817 0.0
C26 C 0.96947 0.48973 0.07012 0.0
N27 N 0.97831 0.47536 0.0697 0.0
N28 N 0.95732 0.48715 0.05881 0.0
C29 C 0.97262 0.50619 0.08173 0.0
C30 C 0.95895 0.47064 0.05162 0.0
N31 N 0.97156 0.46335 0.05839 0.0
C32 C 0.94831 0.46169 0.03783 0.0
H33 H 0.9761 0.5031 0.09447 0.0
H34 H 0.96194 0.51437 0.08297 0.0
H35 H 0.98284 0.51375 0.07647 0.0
H36 H 0.94193 0.47109 0.03111 0.0
H37 H 0.93908 0.45324 0.04359 0.0
H38 H 0.95555 0.4534 0.02851 0.0
C39 C 0.70341 0.77569 0.23498 0.0
N40 N 0.71627 0.78376 0.2279 0.0
N41 N 0.69713 0.78614 0.24808 0.0
C42 C 0.69704 0.7576 0.22902 0.0
C43 C 0.7066 0.80091 0.24865 0.0
N44 N 0.71814 0.79955 0.23623 0.0
C45 C 0.70454 0.81669 0.26126 0.0
H46 H 0.6957 0.75615 0.21503 0.0
H47 H 0.68532 0.75433 0.2351 0.0
H48 H 0.70589 0.74814 0.2321 0.0
H49 H 0.69769 0.81355 0.27272 0.0
H50 H 0.69774 0.82632 0.25524 0.0
H51 H 0.71649 0.82276 0.26509 0.0
C52 C 0.03993 0.96783 0.47482 0.0
N53 N 0.05269 0.97096 0.48535 0.0
N54 N 0.0389 0.98068 0.46469 0.0
C55 C 0.02789 0.95274 0.47514 0.0
C56 C 0.05147 0.99182 0.4695 0.0
N57 N 0.05978 0.98604 0.48221 0.0
C58 C 0.05634 0.00762 0.46085 0.0
H59 H 0.03246 0.94146 0.46688 0.0
H60 H 0.01598 0.9559 0.47039 0.0
H61 H 0.0263 0.94895 0.48818 0.0
H62 H 0.05117 0.01921 0.46807 0.0
H63 H 0.05177 0.00643 0.4477 0.0
H64 H 0.06969 0.00962 0.46048 0.0
C65 C 0.20056 0.72287 0.8015 0.0
N66 N 0.21376 0.71679 0.8083 0.0
N67 N 0.19837 0.71541 0.78542 0.0
C68 C 0.19059 0.73716 0.81008 0.0
C69 C 0.21083 0.70466 0.7826 0.0
N70 N 0.22032 0.7056 0.79648 0.0
C71 C 0.21294 0.69229 0.76678 0.0
H72 H 0.18139 0.73147 0.81845 0.0
H73 H 0.18432 0.744 0.80071 0.0
H74 H 0.19835 0.7467 0.81803 0.0
H75 H 0.22156 0.69833 0.75805 0.0
H76 H 0.20129 0.68936 0.76017 0.0
H77 H 0.21792 0.67998 0.76985 0.0
C78 C 0.96386 0.53586 0.46167 0.0
N79 N 0.97484 0.54943 0.46308 0.0
N80 N 0.95294 0.53733 0.47468 0.0
C81 C 0.96456 0.52058 0.44825 0.0
C82 C 0.95773 0.55234 0.48404 0.0
N83 N 0.97107 0.5596 0.47706 0.0
C84 C 0.94905 0.5603 0.49965 0.0
H85 H 0.95776 0.52339 0.43703 0.0
H86 H 0.95913 0.50865 0.45295 0.0
H87 H 0.97724 0.51827 0.44418 0.0
H88 H 0.95411 0.55541 0.51097 0.0
H89 H 0.93593 0.55674 0.49914 0.0
H90 H 0.95072 0.57465 0.50114 0.0
C91 C 0.7925 0.80658 0.81687 0.0
N92 N 0.80558 0.79656 0.81521 0.0
N93 N 0.79237 0.81724 0.80444 0.0
C94 C 0.77937 0.80528 0.83011 0.0
C95 C 0.80588 0.81334 0.79514 0.0
N96 N 0.81385 0.8007 0.80157 0.0
C97 C 0.81164 0.8223 0.78011 0.0
H98 H 0.76768 0.8093 0.82554 0.0
H99 H 0.78275 0.81399 0.84166 0.0
H100 H 0.77788 0.79182 0.83359 0.0
H101 H 0.825 0.82384 0.77983 0.0
H102 H 0.80652 0.8353 0.78031 0.0
H103 H 0.80783 0.81421 0.76833 0.0
C104 C 0.29126 0.30546 0.31569 0.0
N105 N 0.30438 0.2955 0.31351 0.0
N106 N 0.29033 0.3157 0.30299 0.0
C107 C 0.27861 0.30417 0.32943 0.0
C108 C 0.30329 0.31154 0.29294 0.0
N109 N 0.31172 0.29912 0.29917 0.0
C110 C 0.30852 0.32058 0.27778 0.0
H111 H 0.27727 0.2907 0.33291 0.0
H112 H 0.26674 0.30819 0.32535 0.0
H113 H 0.28237 0.31287 0.34086 0.0
H114 H 0.32189 0.32195 0.2771 0.0
H115 H 0.30348 0.33365 0.27831 0.0
H116 H 0.30428 0.31264 0.26607 0.0
C117 C 0.46796 0.98758 0.57027 0.0
N118 N 0.47733 0.97363 0.57 0.0
N119 N 0.45541 0.98411 0.55951 0.0
C120 C 0.47039 0.00414 0.58191 0.0
C121 C 0.45747 0.96752 0.55272 0.0
N122 N 0.47065 0.96106 0.55924 0.0
C123 C 0.44738 0.95814 0.53869 0.0
H124 H 0.47571 1.00156 0.59407 0.0
H125 H 0.4588 0.01063 0.58458 0.0
H126 H 0.47885 0.01308 0.57573 0.0
H127 H 0.44183 0.96742 0.53108 0.0
H128 H 0.43758 0.95032 0.54436 0.0
H129 H 0.45476 0.94919 0.53017 0.0
C130 C 0.19895 0.27812 0.7297 0.0
N131 N 0.21258 0.28544 0.72329 0.0
N132 N 0.19553 0.28585 0.74548 0.0
C133 C 0.18982 0.2624 0.72121 0.0
C134 C 0.20772 0.29802 0.74848 0.0
N135 N 0.21815 0.29764 0.73508 0.0
C136 C 0.20884 0.31112 0.76395 0.0
H137 H 0.18054 0.26667 0.71286 0.0
H138 H 0.1837 0.25477 0.7307 0.0
H139 H 0.19809 0.25392 0.71327 0.0
H140 H 0.21626 0.30591 0.77356 0.0
H141 H 0.19669 0.31372 0.76953 0.0
H142 H 0.21474 0.32351 0.7608 0.0
C143 C 0.78921 0.22525 0.72592 0.0
N144 N 0.79613 0.21716 0.73804 0.0
N145 N 0.79924 0.23802 0.72088 0.0
C146 C 0.77273 0.22035 0.71881 0.0
C147 C 0.81261 0.23736 0.73037 0.0
N148 N 0.81083 0.2245 0.74068 0.0
C149 C 0.82743 0.2492 0.72945 0.0
H150 H 0.77303 0.2073 0.71151 0.0
H151 H 0.7687 0.22982 0.71045 0.0
H152 H 0.76378 0.21953 0.72931 0.0
H153 H 0.82465 0.26151 0.72449 0.0
H154 H 0.83643 0.24259 0.72075 0.0
H155 H 0.83292 0.25216 0.74215 0.0
C156 C 0.54837 0.52818 0.56852 0.0
N157 N 0.55556 0.53367 0.55444 0.0
N158 N 0.53333 0.53429 0.57081 0.0
C159 C 0.55552 0.51576 0.57933 0.0
C160 C 0.53154 0.54354 0.5575 0.0
N161 N 0.54496 0.54301 0.54742 0.0
C162 C 0.5171 0.55404 0.55501 0.0
H163 H 0.54594 0.50853 0.58597 0.0
H164 H 0.56337 0.52322 0.58898 0.0
H165 H 0.56303 0.50633 0.57152 0.0
H166 H 0.51139 0.55865 0.56736 0.0
H167 H 0.50808 0.54574 0.54734 0.0
H168 H 0.52051 0.56538 0.54815 0.0
C169 C 0.53983 0.46896 0.97351 0.0
N170 N 0.55252 0.47127 0.98423 0.0
N171 N 0.53962 0.48201 0.96351 0.0
C172 C 0.52689 0.45471 0.97365 0.0
C173 C 0.55256 0.49245 0.96859 0.0
N174 N 0.56032 0.48607 0.98134 0.0
C175 C 0.55835 0.50811 0.96016 0.0
H176 H 0.53069 0.44322 0.96516 0.0
H177 H 0.51526 0.45887 0.96908 0.0
H178 H 0.52505 0.45084 0.9866 0.0
H179 H 0.55373 0.51994 0.9675 0.0
H180 H 0.55389 0.50737 0.94699 0.0
H181 H 0.57175 0.50932 0.9599 0.0
C182 C 0.7069 0.23048 0.29611 0.0
N183 N 0.71873 0.22321 0.30412 0.0
N184 N 0.70174 0.21977 0.28245 0.0
C185 C 0.69947 0.24742 0.3024 0.0
C186 C 0.71074 0.2056 0.28256 0.0
N187 N 0.72102 0.20762 0.29583 0.0
C188 C 0.71035 0.19044 0.26897 0.0
H189 H 0.68673 0.24755 0.29835 0.0
H190 H 0.70644 0.25817 0.29708 0.0
H191 H 0.69985 0.24981 0.31645 0.0
H192 H 0.70601 0.19428 0.25683 0.0
H193 H 0.70197 0.18007 0.27303 0.0
H194 H 0.72252 0.18509 0.26689 0.0
C195 C 0.46443 0.03731 0.96229 0.0
N196 N 0.47513 0.05115 0.9631 0.0
N197 N 0.45161 0.04074 0.9728 0.0
C198 C 0.46585 0.02095 0.95034 0.0
C199 C 0.45482 0.05716 0.97997 0.0
N200 N 0.469 0.06359 0.97393 0.0
C201 C 0.44471 0.06639 0.99384 0.0
H202 H 0.45382 0.01445 0.94768 0.0
H203 H 0.47344 0.01189 0.95624 0.0
H204 H 0.47172 0.02382 0.9382 0.0
H205 H 0.45244 0.07468 0.00302 0.0
H206 H 0.43739 0.05702 1.00074 0.0
H207 H 0.43639 0.07486 0.98811 0.0
Li208 Li 0.26794 0.89528 0.02013 0.0
Li209 Li 0.25467 0.87327 0.03785 0.0
Li210 Li 0.25069 0.87116 0.00741 0.0
Li211 Li 0.23786 0.89416 0.02552 0.0
C212 C 0.27795 0.85634 0.01004 0.0
N213 N 0.28979 0.82826 0.9898 0.0
C214 C 0.27614 0.83967 0.01514 0.0
C215 C 0.28588 0.85875 0.9947 0.0
C216 C 0.2822 0.82564 0.00472 0.0
C217 C 0.29174 0.84438 0.98463 0.0
C218 C 0.24915 0.90487 0.0579 0.0
C219 C 0.22932 0.90148 0.08009 0.0
N220 N 0.23586 0.91589 0.08924 0.0
C221 C 0.25567 0.91965 0.0675 0.0
C222 C 0.23586 0.8957 0.06421 0.0
C223 C 0.24878 0.92501 0.08333 0.0
C224 C 0.28473 0.92764 0.01759 0.0
N225 N 0.28651 0.91026 0.01721 0.0
C226 C 0.31475 0.91379 0.01093 0.0
C227 C 0.30116 0.90324 0.01415 0.0
C228 C 0.31334 0.93183 0.01104 0.0
C229 C 0.29804 0.93871 0.0146 0.0
H230 H 0.27292 0.93288 0.02006 0.0
H231 H 0.30227 0.88939 0.01397 0.0
C232 C 0.25042 0.84476 0.05753 0.0
N233 N 0.25796 0.86064 0.05695 0.0
C234 C 0.25342 0.83488 0.07079 0.0
C235 C 0.27158 0.85802 0.08285 0.0
C236 C 0.26833 0.8674 0.06929 0.0
C237 C 0.26421 0.84143 0.08367 0.0
H238 H 0.24228 0.83965 0.04751 0.0
H239 H 0.27427 0.88 0.06847 0.0
C240 C 0.25068 0.90242 0.9889 0.0
N241 N 0.25185 0.91589 0.95805 0.0
C242 C 0.23657 0.9077 0.98197 0.0
C243 C 0.26542 0.90417 0.98022 0.0
C244 C 0.2374 0.91442 0.96633 0.0
C245 C 0.26574 0.91096 0.96462 0.0
C246 C 0.2192 0.86326 0.01911 0.0
C247 C 0.21423 0.86909 0.00407 0.0
C248 C 0.20891 0.85216 0.02752 0.0
C249 C 0.19899 0.86375 0.9977 0.0
C250 C 0.19375 0.84712 0.02076 0.0
N251 N 0.18915 0.85297 0.00612 0.0
C252 C 0.24265 0.83793 0.99028 0.0
C253 C 0.25189 0.85822 0.97169 0.0
C254 C 0.24103 0.82485 0.9767 0.0
N255 N 0.24801 0.85426 0.98759 0.0
C256 C 0.25045 0.84556 0.95775 0.0
C257 C 0.24498 0.82856 0.96012 0.0
H258 H 0.23984 0.83498 0.00305 0.0
H259 H 0.25631 0.87111 0.96973 0.0
C260 C 0.22171 0.92526 0.02387 0.0
N261 N 0.21961 0.90893 0.02854 0.0
C262 C 0.20884 0.93647 0.02496 0.0
C263 C 0.19188 0.91398 0.03585 0.0
C264 C 0.20511 0.90325 0.03469 0.0
C265 C 0.1936 0.93082 0.03085 0.0
H266 H 0.23336 0.92949 0.01906 0.0
H267 H 0.20374 0.89036 0.03863 0.0
O268 O 0.27164 0.87015 0.01981 0.0
O269 O 0.25572 0.89952 0.04236 0.0
O270 O 0.25013 0.89614 0.00437 0.0
O271 O 0.23404 0.86833 0.02564 0.0
H272 H 0.26999 0.83757 0.02693 0.0
H273 H 0.28723 0.87154 0.99047 0.0
H274 H 0.28081 0.81265 0.00847 0.0
H275 H 0.29777 0.84604 0.97266 0.0
H276 H 0.21904 0.89452 0.08513 0.0
H277 H 0.26593 0.9269 0.06276 0.0
H278 H 0.23064 0.88425 0.05695 0.0
H279 H 0.2537 0.93642 0.09092 0.0
H280 H 0.32616 0.90776 0.00802 0.0
H281 H 0.29634 0.95253 0.01513 0.0
H282 H 0.24732 0.82225 0.07096 0.0
H283 H 0.28012 0.86352 0.09236 0.0
H284 H 0.22509 0.90668 0.98861 0.0
H285 H 0.27646 0.90015 0.98536 0.0
H286 H 0.22657 0.91851 0.9608 0.0
H287 H 0.27705 0.91228 0.95772 0.0
H288 H 0.22207 0.87757 0.99735 0.0
H289 H 0.21259 0.84754 0.0392 0.0
H290 H 0.195 0.86817 0.98607 0.0
H291 H 0.18565 0.83856 0.02716 0.0
H292 H 0.23699 0.8119 0.97922 0.0
H293 H 0.25346 0.84913 0.94522 0.0
H294 H 0.21073 0.94929 0.02087 0.0
H295 H 0.18044 0.90917 0.04072 0.0
Li296 Li 0.12867 0.51579 0.28268 0.0
Li297 Li 0.14818 0.49647 0.26889 0.0
Li298 Li 0.15063 0.52715 0.26482 0.0
Li299 Li 0.12831 0.50686 0.25033 0.0
C300 C 0.15445 0.52374 0.3024 0.0
N301 N 0.15804 0.53855 0.3355 0.0
C302 C 0.15697 0.51329 0.3153 0.0
C303 C 0.15387 0.54172 0.30631 0.0
C304 C 0.15872 0.52102 0.33196 0.0
C305 C 0.15569 0.54896 0.32313 0.0
C306 C 0.12168 0.47564 0.27215 0.0
C307 C 0.11292 0.44627 0.26218 0.0
N308 N 0.11692 0.44114 0.27736 0.0
C309 C 0.12563 0.47011 0.28767 0.0
C310 C 0.11523 0.46366 0.2593 0.0
C311 C 0.12317 0.45259 0.29004 0.0
C312 C 0.10335 0.53351 0.301 0.0
N313 N 0.11459 0.52143 0.30208 0.0
C314 C 0.10521 0.51713 0.33016 0.0
C315 C 0.11561 0.51318 0.31628 0.0
C316 C 0.09348 0.52959 0.32943 0.0
C317 C 0.09269 0.53784 0.31456 0.0
H318 H 0.10253 0.53971 0.28953 0.0
H319 H 0.12437 0.50339 0.31683 0.0
C320 C 0.17457 0.48045 0.28193 0.0
N321 N 0.16154 0.47703 0.27173 0.0
C322 C 0.18501 0.46732 0.28448 0.0
C323 C 0.16868 0.44731 0.26576 0.0
C324 C 0.1586 0.46087 0.2635 0.0
C325 C 0.18211 0.4504 0.27644 0.0
H326 H 0.17701 0.49348 0.28793 0.0
H327 H 0.14849 0.45847 0.25504 0.0
C328 C 0.12401 0.54672 0.25962 0.0
N329 N 0.1188 0.57963 0.25118 0.0
C330 C 0.11999 0.54911 0.24303 0.0
C331 C 0.12524 0.56105 0.27196 0.0
C332 C 0.11743 0.56586 0.23901 0.0
C333 C 0.12261 0.57759 0.26742 0.0
C334 C 0.16348 0.49627 0.23964 0.0
C335 C 0.17977 0.49961 0.24362 0.0
C336 C 0.15888 0.48162 0.22864 0.0
C337 C 0.19121 0.48809 0.23659 0.0
C338 C 0.1707 0.47043 0.22185 0.0
N339 N 0.18648 0.47386 0.22595 0.0
C340 C 0.17984 0.54645 0.27165 0.0
C341 C 0.16373 0.55886 0.25223 0.0
C342 C 0.19176 0.55973 0.27089 0.0
N343 N 0.16607 0.5463 0.26253 0.0
C344 C 0.17524 0.57253 0.25126 0.0
C345 C 0.1895 0.57309 0.26068 0.0
H346 H 0.18159 0.53621 0.27956 0.0
H347 H 0.15302 0.55828 0.24464 0.0
C348 C 0.09844 0.49853 0.23395 0.0
N349 N 0.11444 0.50192 0.23102 0.0
C350 C 0.0878 0.49481 0.2204 0.0
C351 C 0.11024 0.49826 0.201 0.0
C352 C 0.12046 0.5019 0.21495 0.0
C353 C 0.09363 0.49461 0.20359 0.0
H354 H 0.09394 0.49872 0.24686 0.0
H355 H 0.13322 0.50471 0.21294 0.0
O356 O 0.15249 0.51638 0.28604 0.0
O357 O 0.12404 0.4927 0.26954 0.0
O358 O 0.12655 0.53042 0.26378 0.0
O359 O 0.15206 0.50712 0.24678 0.0
H360 H 0.15735 0.49933 0.3125 0.0
H361 H 0.15205 0.55 0.29648 0.0
H362 H 0.16058 0.51309 0.34208 0.0
H363 H 0.15522 0.56286 0.32634 0.0
H364 H 0.10799 0.43683 0.25234 0.0
H365 H 0.13083 0.47917 0.29765 0.0
H366 H 0.11215 0.46774 0.24719 0.0
H367 H 0.12629 0.44809 0.30195 0.0
H368 H 0.10612 0.51019 0.3412 0.0
H369 H 0.08397 0.54761 0.31341 0.0
H370 H 0.1954 0.47051 0.29249 0.0
H371 H 0.16584 0.43452 0.25932 0.0
H372 H 0.11896 0.53817 0.23334 0.0
H373 H 0.12815 0.55942 0.2849 0.0
H374 H 0.11437 0.56791 0.22621 0.0
H375 H 0.12357 0.5888 0.27683 0.0
H376 H 0.18349 0.51085 0.25219 0.0
H377 H 0.14629 0.47877 0.22559 0.0
H378 H 0.20385 0.49043 0.23963 0.0
H379 H 0.16731 0.45898 0.2134 0.0
H380 H 0.20253 0.55966 0.2784 0.0
H381 H 0.17314 0.58239 0.243 0.0
H382 H 0.0751 0.49236 0.2231 0.0
H383 H 0.11536 0.49809 0.18833 0.0
Li384 Li 0.75458 0.62607 1.00156 0.0
Li385 Li 0.76689 0.65017 0.02051 0.0
Li386 Li 0.77318 0.64823 0.98923 0.0
Li387 Li 0.78435 0.62769 0.00756 0.0
C388 C 0.73774 0.65868 0.00752 0.0
N389 N 0.70973 0.67336 0.02062 0.0
C390 C 0.72785 0.65009 0.01867 0.0
C391 C 0.73337 0.67473 0.00299 0.0
C392 C 0.71375 0.65772 0.02517 0.0
C393 C 0.71917 0.68194 0.00975 0.0
C394 C 0.76403 0.62275 0.03992 0.0
C395 C 0.77491 0.62498 0.06809 0.0
N396 N 0.76054 0.61867 0.07397 0.0
C397 C 0.74941 0.61614 0.04621 0.0
C398 C 0.77692 0.62708 0.0509 0.0
C399 C 0.74788 0.61423 0.06348 0.0
C400 C 0.73695 0.59416 0.00338 0.0
N401 N 0.73598 0.61014 0.99801 0.0
C402 C 0.70838 0.60367 0.99014 0.0
C403 C 0.72214 0.61491 0.99117 0.0
C404 C 0.70885 0.58718 0.99599 0.0
C405 C 0.72354 0.58245 1.00244 0.0
H406 H 0.74811 0.59062 0.00868 0.0
H407 H 0.72163 0.62764 0.98689 0.0
C408 C 0.77323 0.68072 0.04347 0.0
N409 N 0.76339 0.66618 0.04068 0.0
C410 C 0.77121 0.69243 0.05806 0.0
C411 C 0.74882 0.67418 0.06655 0.0
C412 C 0.75131 0.66283 0.05188 0.0
C413 C 0.75883 0.68925 0.06985 0.0
H414 H 0.78268 0.68325 0.03435 0.0
H415 H 0.74358 0.65129 0.04953 0.0
C416 C 0.76749 0.61625 0.96941 0.0
N417 N 0.75542 0.6044 0.93781 0.0
C418 C 0.77415 0.60199 0.95987 0.0
C419 C 0.75468 0.62448 0.96289 0.0
C420 C 0.76788 0.5962 0.94391 0.0
C421 C 0.74876 0.61829 0.94689 0.0
C422 C 0.80381 0.65797 0.01115 0.0
C423 C 0.81367 0.66175 0.99741 0.0
C424 C 0.81035 0.65901 0.02735 0.0
C425 C 0.83002 0.66622 1.00009 0.0
C426 C 0.82676 0.66351 0.0295 0.0
N427 N 0.83618 0.66697 0.01594 0.0
C428 C 0.77379 0.67839 0.9716 0.0
C429 C 0.78585 0.65432 0.95615 0.0
C430 C 0.77737 0.68866 0.95843 0.0
N431 N 0.77795 0.66152 0.97024 0.0
C432 C 0.78969 0.66412 0.94268 0.0
C433 C 0.78548 0.6816 0.94366 0.0
H434 H 0.76779 0.68395 0.98302 0.0
H435 H 0.78939 0.641 0.95544 0.0
C436 C 0.79974 0.60066 0.02142 0.0
N437 N 0.80245 0.61375 0.0115 0.0
C438 C 0.81236 0.59041 0.02528 0.0
C439 C 0.83038 0.60694 0.0083 0.0
C440 C 0.81737 0.61678 0.00465 0.0
C441 C 0.82804 0.59357 0.01886 0.0
H442 H 0.78772 0.59811 0.02637 0.0
H443 H 0.81923 0.62687 0.99639 0.0
O444 O 0.75167 0.65148 1.0011 0.0
O445 O 0.76572 0.62485 0.02307 0.0
O446 O 0.77349 0.62203 0.98506 0.0
O447 O 0.78777 0.65359 0.00876 0.0
H448 H 0.7311 0.63773 0.02241 0.0
H449 H 0.74084 0.68155 0.99433 0.0
H450 H 0.70602 0.65123 0.03386 0.0
H451 H 0.71565 0.69436 0.00637 0.0
H452 H 0.78477 0.62834 0.07675 0.0
H453 H 0.73932 0.61266 0.03787 0.0
H454 H 0.78836 0.63197 0.04619 0.0
H455 H 0.73661 0.60923 0.06854 0.0
H456 H 0.69738 0.6081 0.98524 0.0
H457 H 0.72473 0.56982 0.00677 0.0
H458 H 0.77912 0.70396 0.05997 0.0
H459 H 0.73928 0.67101 0.07536 0.0
H460 H 0.78406 0.59548 0.96476 0.0
H461 H 0.74938 0.63555 0.97007 0.0
H462 H 0.77293 0.58518 0.93638 0.0
H463 H 0.73886 0.62454 0.94168 0.0
H464 H 0.80878 0.66111 0.9848 0.0
H465 H 0.80284 0.65646 0.03816 0.0
H466 H 0.83781 0.66907 0.98956 0.0
H467 H 0.83201 0.66429 0.04196 0.0
H468 H 0.7737 0.70197 0.95979 0.0
H469 H 0.79619 0.65812 0.93176 0.0
H470 H 0.80976 0.58 0.03309 0.0
H471 H 0.8422 0.61 0.00307 0.0
Li472 Li 0.86755 0.02522 0.28091 0.0
Li473 Li 0.88765 0.00699 0.29097 0.0
Li474 Li 0.88885 0.01206 0.26202 0.0
Li475 Li 0.86721 0.99229 0.2722 0.0
C476 C 0.89473 0.04624 0.27771 0.0
N477 N 0.90131 0.07919 0.26842 0.0
C478 C 0.90609 0.05743 0.28661 0.0
C479 C 0.88672 0.05184 0.26409 0.0
C480 C 0.90926 0.07402 0.28171 0.0
C481 C 0.8902 0.06853 0.25959 0.0
C482 C 0.86355 1.00319 0.31165 0.0
C483 C 0.86273 0.98428 0.33383 0.0
N484 N 0.86483 0.99836 0.34555 0.0
C485 C 0.86561 0.01749 0.32389 0.0
C486 C 0.86204 0.98645 0.31661 0.0
C487 C 0.86626 0.01477 0.34098 0.0
C488 C 0.83926 0.04373 0.27774 0.0
N489 N 0.8537 0.04448 0.2857 0.0
C490 C 0.84842 0.07273 0.29964 0.0
C491 C 0.85838 0.05855 0.29658 0.0
C492 C 0.83343 0.07239 0.29154 0.0
C493 C 0.8289 0.05757 0.28049 0.0
H494 H 0.83582 0.0324 0.26915 0.0
H495 H 0.86988 0.0588 0.30285 0.0
C496 C 0.9083 0.01785 0.31879 0.0
N497 N 0.90089 0.00373 0.31003 0.0
C498 C 0.91883 0.01587 0.33196 0.0
C499 C 0.91362 0.98484 0.32715 0.0
C500 C 0.90329 0.98742 0.31398 0.0
C501 C 0.92174 0.99916 0.33628 0.0
H502 H 0.90621 0.03067 0.3154 0.0
H503 H 0.89727 0.97639 0.3068 0.0
C504 C 0.86099 0.01015 0.24124 0.0
N505 N 0.85229 0.00655 0.20752 0.0
C506 C 0.86192 0.99409 0.23144 0.0
C507 C 0.85538 0.02432 0.23394 0.0
C508 C 0.85754 0.99254 0.2144 0.0
C509 C 0.85111 0.02225 0.21686 0.0
C510 C 0.90647 0.98456 0.26974 0.0
C511 C 0.91913 0.99686 0.27345 0.0
C512 C 0.90992 0.9673 0.26453 0.0
C513 C 0.93506 0.99166 0.27185 0.0
C514 C 0.92602 0.96261 0.26309 0.0
N515 N 0.93815 0.97478 0.26675 0.0
C516 C 0.91519 0.02759 0.2434 0.0
C517 C 0.90249 1.00236 0.22912 0.0
C518 C 0.92584 0.02906 0.2297 0.0
N519 N 0.90348 0.01462 0.24278 0.0
C520 C 0.91285 0.00338 0.21508 0.0
C521 C 0.9247 0.01693 0.21521 0.0
H522 H 0.91659 0.03668 0.25461 0.0
H523 H 0.89392 0.99149 0.22923 0.0
C524 C 0.83901 0.97363 0.25917 0.0
N525 N 0.85333 0.972 0.26681 0.0
C526 C 0.82882 0.95904 0.25469 0.0
C527 C 0.84798 0.94136 0.2666 0.0
C528 C 0.85793 0.95628 0.2706 0.0
C529 C 0.83318 0.94253 0.25841 0.0
H530 H 0.83557 0.98629 0.25636 0.0
H531 H 0.86933 0.95536 0.27681 0.0
O532 O 0.89137 0.03003 0.28252 0.0
O533 O 0.86341 0.00555 0.29484 0.0
O534 O 0.86498 0.01185 0.25804 0.0
O535 O 0.89076 0.98931 0.2712 0.0
H536 H 0.91244 0.05333 0.29718 0.0
H537 H 0.87797 0.04338 0.25705 0.0
H538 H 0.91804 0.0828 0.28849 0.0
H539 H 0.88408 0.07299 0.24906 0.0
H540 H 0.86166 0.9714 0.33787 0.0
H541 H 0.8669 0.03051 0.3202 0.0
H542 H 0.86051 0.97526 0.30725 0.0
H543 H 0.86796 0.0257 0.3506 0.0
H544 H 0.85235 0.08376 0.3084 0.0
H545 H 0.81757 0.05678 0.2738 0.0
H546 H 0.92493 0.02732 0.33837 0.0
H547 H 0.9152 0.97173 0.33013 0.0
H548 H 0.86612 0.98294 0.23689 0.0
H549 H 0.8542 0.03678 0.24139 0.0
H550 H 0.85832 0.98021 0.20666 0.0
H551 H 0.8468 0.03313 0.21104 0.0
H552 H 0.91671 0.01029 0.27752 0.0
H553 H 0.90024 0.95764 0.26162 0.0
H554 H 0.94497 1.00103 0.27468 0.0
H555 H 0.92887 0.94929 0.25906 0.0
H556 H 0.93484 0.03967 0.23045 0.0
H557 H 0.91183 0.99342 0.2044 0.0
H558 H 0.81775 0.96072 0.24816 0.0
H559 H 0.85181 0.92909 0.27009 0.0
Li560 Li 0.26833 0.14926 0.5188 0.0
Li561 Li 0.25516 0.12521 0.5007 0.0
Li562 Li 0.28433 0.12626 0.50572 0.0
Li563 Li 0.27446 0.14638 0.48681 0.0
C564 C 0.26466 0.12491 0.53942 0.0
N565 N 0.26108 0.12747 0.57432 0.0
C566 C 0.24994 0.12 0.54679 0.0
C567 C 0.27764 0.13085 0.54983 0.0
C568 C 0.24835 0.12145 0.56445 0.0
C569 C 0.27557 0.13213 0.56743 0.0
C570 C 0.2387 0.15248 0.49295 0.0
C571 C 0.22016 0.14666 0.46975 0.0
N572 N 0.20845 0.15473 0.47951 0.0
C573 C 0.2265 0.16074 0.50276 0.0
C574 C 0.23554 0.1454 0.47631 0.0
C575 C 0.21128 0.16174 0.49573 0.0
C576 C 0.27646 0.17721 0.54448 0.0
N577 N 0.26459 0.1656 0.53844 0.0
C578 C 0.24663 0.17617 0.56086 0.0
C579 C 0.24986 0.16496 0.54626 0.0
C580 C 0.25868 0.18825 0.56752 0.0
C581 C 0.27377 0.18866 0.5591 0.0
H582 H 0.28802 0.1776 0.53796 0.0
H583 H 0.24064 0.15556 0.54124 0.0
C584 C 0.23415 0.09705 0.48619 0.0
N585 N 0.23529 0.11116 0.49801 0.0
C586 C 0.22002 0.08636 0.48503 0.0
C587 C 0.20834 0.10508 0.50796 0.0
C588 C 0.22265 0.11542 0.50863 0.0
C589 C 0.20687 0.09018 0.49614 0.0
H590 H 0.24427 0.094 0.47773 0.0
H591 H 0.22379 0.12675 0.51788 0.0
C592 C 0.30588 0.15341 0.5067 0.0
N593 N 0.33925 0.15664 0.50717 0.0
C594 C 0.31473 0.15399 0.49156 0.0
C595 C 0.31403 0.15461 0.52209 0.0
C596 C 0.33159 0.15562 0.49207 0.0
C597 C 0.3309 0.15617 0.52206 0.0
C598 C 0.28198 0.10771 0.4758 0.0
C599 C 0.29345 0.11114 0.46332 0.0
C600 C 0.28021 0.09103 0.4809 0.0
C601 C 0.30306 0.09779 0.45618 0.0
C602 C 0.29008 0.07805 0.47348 0.0
N603 N 0.30121 0.08167 0.46139 0.0
C604 C 0.30042 0.10127 0.52229 0.0
C605 C 0.31597 0.11149 0.49984 0.0
C606 C 0.31284 0.09072 0.52603 0.0
N607 N 0.30222 0.11163 0.50955 0.0
C608 C 0.32871 0.10113 0.50314 0.0
C609 C 0.32731 0.09061 0.51648 0.0
H610 H 0.28931 0.10115 0.52961 0.0
H611 H 0.31706 0.11926 0.48939 0.0
C612 C 0.2856 0.17575 0.47091 0.0
N613 N 0.2785 0.1596 0.46768 0.0
C614 C 0.28924 0.18592 0.4577 0.0
C615 C 0.27771 0.16294 0.43799 0.0
C616 C 0.27453 0.15308 0.45159 0.0
C617 C 0.28526 0.17965 0.44087 0.0
H618 H 0.28869 0.18066 0.4838 0.0
H619 H 0.26886 0.14021 0.44927 0.0
O620 O 0.26637 0.12399 0.52214 0.0
O621 O 0.25354 0.15093 0.49972 0.0
O622 O 0.28935 0.15189 0.50645 0.0
O623 O 0.27265 0.12066 0.48312 0.0
H624 H 0.23984 0.11512 0.53898 0.0
H625 H 0.28915 0.1345 0.54434 0.0
H626 H 0.237 0.11778 0.57031 0.0
H627 H 0.28549 0.13684 0.57561 0.0
H628 H 0.21751 0.14115 0.45692 0.0
H629 H 0.22875 0.16627 0.51567 0.0
H630 H 0.24479 0.13875 0.46865 0.0
H631 H 0.20171 0.16807 0.50318 0.0
H632 H 0.2349 0.17518 0.56701 0.0
H633 H 0.28335 0.19788 0.56364 0.0
H634 H 0.21942 0.07525 0.47547 0.0
H635 H 0.1987 0.10854 0.51693 0.0
H636 H 0.3087 0.15282 0.4795 0.0
H637 H 0.30743 0.15437 0.53395 0.0
H638 H 0.33857 0.15595 0.48044 0.0
H639 H 0.33734 0.15705 0.53387 0.0
H640 H 0.29503 0.12401 0.45932 0.0
H641 H 0.27147 0.08823 0.49065 0.0
H642 H 0.31205 0.10026 0.44657 0.0
H643 H 0.28894 0.06511 0.47738 0.0
H644 H 0.31117 0.08291 0.53649 0.0
H645 H 0.33946 0.10121 0.49516 0.0
H646 H 0.29536 0.19847 0.46071 0.0
H647 H 0.27411 0.15752 0.4254 0.0
Li648 Li 0.38831 0.50632 0.78946 0.0
Li649 Li 0.36796 0.52305 0.77677 0.0
Li650 Li 0.36812 0.49027 0.76969 0.0
Li651 Li 0.38891 0.51024 0.75828 0.0
C652 C 0.35878 0.49805 0.80665 0.0
N653 N 0.34751 0.48527 0.83606 0.0
C654 C 0.35295 0.50933 0.82014 0.0
C655 C 0.35857 0.48022 0.80801 0.0
C656 C 0.34739 0.50264 0.83494 0.0
C657 C 0.35291 0.47402 0.82301 0.0
C658 C 0.39242 0.54529 0.78375 0.0
C659 C 0.38982 0.57508 0.77851 0.0
N660 N 0.39272 0.58028 0.79516 0.0
C661 C 0.39545 0.55092 0.80079 0.0
C662 C 0.38968 0.55745 0.77248 0.0
C663 C 0.39553 0.56867 0.80632 0.0
C664 C 0.41751 0.49956 0.8044 0.0
N665 N 0.40224 0.50454 0.8084 0.0
C666 C 0.40811 0.50666 0.83805 0.0
C667 C 0.39745 0.50826 0.82486 0.0
C668 C 0.42385 0.50115 0.83428 0.0
C669 C 0.42849 0.49764 0.81716 0.0
H670 H 0.42117 0.49702 0.79123 0.0
H671 H 0.38542 0.51258 0.82781 0.0
C672 C 0.34506 0.5466 0.76775 0.0
N673 N 0.35405 0.54253 0.7808 0.0
C674 C 0.33506 0.56078 0.76993 0.0
C675 C 0.34348 0.56624 0.79907 0.0
C676 C 0.35339 0.552 0.79629 0.0
C677 C 0.33416 0.57085 0.78577 0.0
H678 H 0.3456 0.53882 0.7556 0.0
H679 H 0.3607 0.54862 0.80648 0.0
C680 C 0.39886 0.47337 0.77041 0.0
N681 N 0.41276 0.44194 0.77254 0.0
C682 C 0.40782 0.46561 0.75673 0.0
C683 C 0.39713 0.46521 0.78524 0.0
C684 C 0.4147 0.44969 0.75803 0.0
C685 C 0.40421 0.44932 0.78606 0.0
C686 C 0.36443 0.50857 0.73726 0.0
C687 C 0.36056 0.49311 0.72709 0.0
C688 C 0.36793 0.52379 0.72972 0.0
C689 C 0.36039 0.4931 0.70948 0.0
C690 C 0.36767 0.52324 0.71206 0.0
N691 N 0.36394 0.50803 0.70239 0.0
C692 C 0.33839 0.47111 0.76605 0.0
C693 C 0.36097 0.45385 0.75927 0.0
C694 C 0.32779 0.45669 0.76221 0.0
N695 N 0.35465 0.46947 0.76455 0.0
C696 C 0.35084 0.43906 0.75552 0.0
C697 C 0.334 0.44036 0.75693 0.0
H698 H 0.33365 0.48368 0.77019 0.0
H699 H 0.37386 0.45279 0.75779 0.0
C700 C 0.41304 0.52724 0.73919 0.0
N701 N 0.40301 0.51287 0.73912 0.0
C702 C 0.4235 0.52932 0.72543 0.0
C703 C 0.41314 0.50177 0.71177 0.0
C704 C 0.40293 0.5002 0.72581 0.0
C705 C 0.42367 0.51647 0.71145 0.0
H706 H 0.41298 0.53708 0.74996 0.0
H707 H 0.39497 0.4888 0.72612 0.0
O708 O 0.36415 0.5044 0.79202 0.0
O709 O 0.39201 0.52795 0.77818 0.0
O710 O 0.39204 0.48896 0.76932 0.0
O711 O 0.36491 0.50878 0.75451 0.0
H712 H 0.35281 0.52313 0.81926 0.0
H713 H 0.36261 0.47121 0.79758 0.0
H714 H 0.34297 0.51125 0.84552 0.0
H715 H 0.35275 0.46026 0.82425 0.0
H716 H 0.3876 0.58462 0.76996 0.0
H717 H 0.39759 0.54168 0.80968 0.0
H718 H 0.38729 0.55329 0.75926 0.0
H719 H 0.39778 0.57322 0.81949 0.0
H720 H 0.40399 0.5095 0.85107 0.0
H721 H 0.44058 0.49369 0.81362 0.0
H722 H 0.32793 0.56366 0.75938 0.0
H723 H 0.34331 0.57372 0.81144 0.0
H724 H 0.40942 0.47178 0.74521 0.0
H725 H 0.39058 0.47117 0.79609 0.0
H726 H 0.4216 0.44351 0.74751 0.0
H727 H 0.40296 0.44288 0.79747 0.0
H728 H 0.35783 0.4812 0.7327 0.0
H729 H 0.37101 0.53586 0.7374 0.0
H730 H 0.35748 0.48121 0.70144 0.0
H731 H 0.37047 0.53489 0.70605 0.0
H732 H 0.31489 0.45825 0.76359 0.0
H733 H 0.35612 0.42677 0.75128 0.0
H734 H 0.43128 0.54095 0.72569 0.0
H735 H 0.41299 0.49142 0.70141 0.0
Li736 Li 0.76796 0.39327 0.52188 0.0
Li737 Li 0.75473 0.37342 0.54107 0.0
Li738 Li 0.75059 0.36875 0.50918 0.0
Li739 Li 0.73735 0.3928 0.52682 0.0
C740 C 0.78652 0.36429 0.51935 0.0
N741 N 0.81869 0.35738 0.51335 0.0
C742 C 0.79595 0.35948 0.53235 0.0
C743 C 0.79341 0.3654 0.50326 0.0
C744 C 0.8122 0.35608 0.52907 0.0
C745 C 0.8097 0.36191 0.50049 0.0
C746 C 0.75663 0.40667 0.55954 0.0
C747 C 0.74467 0.41538 0.58694 0.0
N748 N 0.75943 0.42149 0.59272 0.0
C749 C 0.77165 0.41322 0.56567 0.0
C750 C 0.743 0.40792 0.57017 0.0
C751 C 0.77283 0.42058 0.58252 0.0
C752 C 0.7851 0.42103 0.50823 0.0
N753 N 0.78669 0.40804 0.5182 0.0
C754 C 0.81486 0.41567 0.52168 0.0
C755 C 0.80113 0.40546 0.52523 0.0
C756 C 0.8136 0.429 0.51124 0.0
C757 C 0.79844 0.43181 0.50466 0.0
H758 H 0.77346 0.42297 0.50295 0.0
H759 H 0.80204 0.39545 0.53356 0.0
C760 C 0.74945 0.34613 0.56198 0.0
N761 N 0.75782 0.36147 0.56082 0.0
C762 C 0.75216 0.33633 0.57538 0.0
C763 C 0.77203 0.35826 0.58626 0.0
C764 C 0.76899 0.3676 0.57261 0.0
C765 C 0.76366 0.3423 0.58773 0.0
H766 H 0.74085 0.34132 0.55231 0.0
H767 H 0.77595 0.37945 0.57116 0.0
C768 C 0.74793 0.39435 0.48845 0.0
N769 N 0.74326 0.39513 0.45416 0.0
C770 C 0.73256 0.39693 0.48246 0.0
C771 C 0.76096 0.39243 0.47705 0.0
C772 C 0.73044 0.39722 0.46506 0.0
C773 C 0.75834 0.39279 0.45975 0.0
C774 C 0.71927 0.36286 0.53357 0.0
C775 C 0.70813 0.35403 0.52234 0.0
C776 C 0.71484 0.36712 0.55055 0.0
C777 C 0.69261 0.34985 0.52827 0.0
C778 C 0.69921 0.3627 0.55599 0.0
N779 N 0.6885 0.35424 0.54483 0.0
C780 C 0.7593 0.33903 0.48718 0.0
C781 C 0.73549 0.35169 0.47931 0.0
C782 C 0.75828 0.3266 0.473 0.0
N783 N 0.74816 0.35144 0.48992 0.0
C784 C 0.73403 0.33956 0.46493 0.0
C785 C 0.74559 0.32682 0.46152 0.0
H786 H 0.76902 0.33873 0.49601 0.0
H787 H 0.72654 0.36138 0.48195 0.0
C788 C 0.72117 0.42407 0.53594 0.0
N789 N 0.71886 0.40733 0.52895 0.0
C790 C 0.70846 0.43549 0.53695 0.0
C791 C 0.69114 0.41227 0.52363 0.0
C792 C 0.7042 0.40134 0.52279 0.0
C793 C 0.69314 0.4297 0.53069 0.0
H794 H 0.73299 0.42866 0.54049 0.0
H795 H 0.70268 0.38815 0.5169 0.0
O796 O 0.77063 0.36782 0.52238 0.0
O797 O 0.75526 0.39946 0.54308 0.0
O798 O 0.75021 0.39389 0.50542 0.0
O799 O 0.73448 0.36712 0.52796 0.0
H800 H 0.7908 0.35844 0.54484 0.0
H801 H 0.78624 0.3689 0.49303 0.0
H802 H 0.81966 0.35243 0.53903 0.0
H803 H 0.8152 0.3628 0.48812 0.0
H804 H 0.73423 0.41638 0.59533 0.0
H805 H 0.78229 0.41248 0.55754 0.0
H806 H 0.73123 0.40329 0.56551 0.0
H807 H 0.78439 0.42559 0.58748 0.0
H808 H 0.82631 0.41329 0.52718 0.0
H809 H 0.79702 0.44199 0.49656 0.0
H810 H 0.74533 0.32418 0.57603 0.0
H811 H 0.78123 0.36324 0.59525 0.0
H812 H 0.72237 0.39854 0.49112 0.0
H813 H 0.77297 0.39075 0.48151 0.0
H814 H 0.71859 0.39908 0.46023 0.0
H815 H 0.76831 0.39124 0.45077 0.0
H816 H 0.71141 0.35056 0.50917 0.0
H817 H 0.72342 0.37366 0.55945 0.0
H818 H 0.68383 0.3431 0.5197 0.0
H819 H 0.69561 0.36595 0.5691 0.0
H820 H 0.76728 0.31684 0.47116 0.0
H821 H 0.72408 0.34037 0.45644 0.0
H822 H 0.71078 0.44884 0.54222 0.0
H823 H 0.67959 0.40707 0.51879 0.0
Li824 Li 0.64806 0.99559 0.769 0.0
Li825 Li 0.62805 0.01431 0.78261 0.0
Li826 Li 0.62818 0.00479 0.75031 0.0
Li827 Li 0.65028 0.02542 0.7645 0.0
C828 C 0.62182 0.97514 0.77535 0.0
N829 N 0.61755 0.94281 0.78666 0.0
C830 C 0.62596 0.97277 0.79191 0.0
C831 C 0.61538 0.96115 0.76458 0.0
C832 C 0.62375 0.95629 0.79737 0.0
C833 C 0.61334 0.94488 0.77054 0.0
C834 C 0.65493 0.0287 0.79928 0.0
C835 C 0.65147 0.05811 0.81187 0.0
N836 N 0.66104 0.05523 0.82492 0.0
C837 C 0.66473 0.02603 0.81283 0.0
C838 C 0.64822 0.04486 0.79881 0.0
C839 C 0.66768 0.0396 0.82566 0.0
C840 C 0.67409 0.97966 0.7828 0.0
N841 N 0.66123 0.9762 0.77239 0.0
C842 C 0.66823 0.94641 0.76688 0.0
C843 C 0.65822 0.95996 0.76437 0.0
C844 C 0.68158 0.94957 0.77766 0.0
C845 C 0.68443 0.96653 0.78563 0.0
H846 H 0.67647 0.99273 0.78875 0.0
H847 H 0.64815 0.95751 0.75587 0.0
C848 C 0.59897 0.02561 0.79901 0.0
N849 N 0.61384 0.01979 0.80176 0.0
C850 C 0.58831 0.02978 0.81261 0.0
C851 C 0.60836 0.02175 0.83166 0.0
C852 C 0.61862 0.01771 0.8177 0.0
C853 C 0.59293 0.02789 0.82927 0.0
H854 H 0.59537 0.02696 0.7862 0.0
H855 H 0.63043 0.01292 0.8196 0.0
C856 C 0.66301 0.99408 0.73968 0.0
N857 N 0.68529 0.9707 0.72622 0.0
C858 C 0.67936 0.99687 0.74362 0.0
C859 C 0.658 0.9795 0.72879 0.0
C860 C 0.69043 0.98485 0.73673 0.0
C861 C 0.66946 0.96781 0.72212 0.0
C862 C 0.62065 0.04269 0.75695 0.0
C863 C 0.62135 0.04377 0.73948 0.0
C864 C 0.61384 0.056 0.76774 0.0
C865 C 0.61531 0.05824 0.73309 0.0
C866 C 0.60794 0.07026 0.76086 0.0
N867 N 0.60878 0.07107 0.74382 0.0
C868 C 0.59853 0.99464 0.73401 0.0
C869 C 0.62006 1.00002 0.71497 0.0
C870 C 0.58785 0.9908 0.7205 0.0
N871 N 0.61428 0.99922 0.73105 0.0
C872 C 0.60978 0.99638 0.70109 0.0
C873 C 0.59336 0.99174 0.70371 0.0
H874 H 0.59425 0.99401 0.74691 0.0
H875 H 0.63263 0.00375 0.71293 0.0
C876 C 0.68009 0.0442 0.76952 0.0
N877 N 0.66548 0.04483 0.76209 0.0
C878 C 0.69182 0.05764 0.76868 0.0
C879 C 0.67343 0.0722 0.75237 0.0
C880 C 0.66202 0.05849 0.75359 0.0
C881 C 0.6886 0.07193 0.75999 0.0
H882 H 0.68265 0.03318 0.77614 0.0
H883 H 0.65044 0.05886 0.74773 0.0
O884 O 0.62405 0.9911 0.76971 0.0
O885 O 0.65188 0.01544 0.7867 0.0
O886 O 0.65194 0.00545 0.74663 0.0
O887 O 0.62622 0.02847 0.76342 0.0
H888 H 0.63102 0.98348 0.80035 0.0
H889 H 0.61212 0.96282 0.75173 0.0
H890 H 0.627 0.95422 0.81011 0.0
H891 H 0.60844 0.93389 0.76233 0.0
H892 H 0.64637 0.07068 0.81163 0.0
H893 H 0.66994 0.01358 0.81347 0.0
H894 H 0.64066 0.04722 0.78846 0.0
H895 H 0.67522 0.03771 0.83622 0.0
H896 H 0.66543 0.93357 0.76052 0.0
H897 H 0.69474 0.96975 0.79375 0.0
H898 H 0.57647 0.03417 0.81005 0.0
H899 H 0.61257 0.02024 0.84423 0.0
H900 H 0.68341 0.00807 0.75208 0.0
H901 H 0.64537 0.97709 0.72573 0.0
H902 H 0.70311 0.98676 0.73977 0.0
H903 H 0.66574 0.9564 0.71377 0.0
H904 H 0.62676 0.03371 0.73098 0.0
H905 H 0.6131 0.05534 0.78129 0.0
H906 H 0.61585 0.05928 0.7196 0.0
H907 H 0.60266 0.08067 0.76907 0.0
H908 H 0.57541 0.98703 0.72323 0.0
H909 H 0.61461 0.99755 0.68847 0.0
H910 H 0.70339 0.05672 0.77457 0.0
H911 H 0.67031 0.083 0.7457 0.0
Li912 Li 0.01639 0.23977 0.8921 0.0
Li913 Li 1.00044 0.25348 0.91647 0.0
Li914 Li 0.00517 0.22169 0.91275 0.0
Li915 Li 0.9866 0.2346 0.89328 0.0
C916 C 0.03046 0.23723 0.92933 0.0
N917 N 0.04819 0.22738 0.95557 0.0
C918 C 0.02887 0.24578 0.94571 0.0
C919 C 0.04115 0.22373 0.92629 0.0
C920 C 0.03793 0.24061 0.9588 0.0
C921 C 0.04996 0.21891 0.93973 0.0
C922 C 0.99423 0.27306 0.89097 0.0
C923 C 0.97369 0.29427 0.89489 0.0
N924 N 0.98452 0.30655 0.89004 0.0
C925 C 0.00514 0.28585 0.88596 0.0
C926 C 0.97836 0.27725 0.89542 0.0
C927 C 1.0 0.30272 0.8856 0.0
C928 C 0.03162 0.25117 0.86257 0.0
N929 N 0.03428 0.24383 0.87701 0.0
C930 C 0.06247 0.24226 0.87011 0.0
C931 C 0.04934 0.23942 0.88093 0.0
C932 C 0.0602 0.25002 0.85515 0.0
C933 C 0.04445 0.25447 0.85147 0.0
H934 H 0.01952 0.25457 0.85973 0.0
H935 H 0.05117 0.23358 0.89243 0.0
C936 C 0.98834 0.27385 0.94595 0.0
N937 N 0.99868 0.27396 0.93244 0.0
C938 C 0.98726 0.28857 0.95779 0.0
C939 C 0.00742 0.30332 0.94156 0.0
C940 C 0.00828 0.28824 0.9302 0.0
C941 C 0.99684 0.30369 0.9557 0.0
H942 H 0.98107 0.26222 0.94768 0.0
H943 H 0.01666 0.28792 0.91956 0.0
C944 C 0.01118 0.21101 0.87301 0.0
N945 N 0.02744 0.20017 0.84324 0.0
C946 C 0.00469 0.21348 0.85736 0.0
C947 C 0.02591 0.20297 0.87352 0.0
C948 C 0.0131 0.20791 0.84246 0.0
C949 C 0.03395 0.1976 0.85833 0.0
C950 C 0.96943 0.22854 0.92279 0.0
C951 C 0.96596 0.21112 0.92501 0.0
C952 C 0.95716 0.24042 0.9249 0.0
C953 C 0.95016 0.20584 0.92913 0.0
C954 C 0.94151 0.23461 0.92898 0.0
N955 N 0.93836 0.21759 0.93099 0.0
C956 C 0.00805 0.2041 0.94227 0.0
C957 C 0.01255 0.18652 0.91642 0.0
C958 C 0.01193 0.19055 0.95156 0.0
N959 N 0.00873 0.20199 0.92502 0.0
C960 C 0.01639 0.17257 0.92519 0.0
C961 C 0.01634 0.1745 0.94305 0.0
H962 H 0.00488 0.21648 0.94885 0.0
H963 H 0.01274 0.18501 0.90271 0.0
C964 C 0.96635 0.24164 0.86662 0.0
N965 N 0.96733 0.23143 0.87944 0.0
C966 C 0.95308 0.23983 0.85579 0.0
C967 C 0.94192 0.21703 0.87146 0.0
C968 C 0.95552 0.21912 0.88185 0.0
C969 C 0.94059 0.22743 0.85815 0.0
H970 H 0.97599 0.25109 0.86464 0.0
H971 H 0.9567 0.21072 0.89169 0.0
O972 O 0.02154 0.24198 0.91639 0.0
O973 O 0.9991 0.25654 0.89166 0.0
O974 O 1.00338 0.21689 0.88775 0.0
O975 O 0.98483 0.23398 0.91881 0.0
H976 H 0.02068 0.25625 0.94832 0.0
H977 H 0.04233 0.21674 0.91379 0.0
H978 H 0.03678 0.24708 0.97154 0.0
H979 H 0.05814 0.20837 0.93759 0.0
H980 H 0.96145 0.29771 0.89833 0.0
H981 H 0.01749 0.28282 0.88255 0.0
H982 H 0.96977 0.26747 0.89924 0.0
H983 H 0.00833 0.31279 0.88182 0.0
H984 H 0.07424 0.23826 0.87341 0.0
H985 H 0.04204 0.2607 0.84028 0.0
H986 H 0.97917 0.28797 0.96861 0.0
H987 H 0.01492 0.3146 0.93916 0.0
H988 H 0.99336 0.21976 0.85674 0.0
H989 H 0.03123 0.2012 0.88552 0.0
H990 H 0.00825 0.2098 0.83026 0.0
H991 H 0.04542 0.19149 0.85854 0.0
H992 H 0.97531 0.20176 0.92343 0.0
H993 H 0.95969 0.25398 0.92341 0.0
H994 H 0.94727 0.19238 0.93081 0.0
H995 H 0.93188 0.24365 0.93058 0.0
H996 H 0.01184 0.19283 0.96527 0.0
H997 H 0.01932 0.16038 0.91801 0.0
H998 H 0.95257 0.24817 0.84575 0.0
H999 H 0.93272 0.2071 0.87357 0.0
Li1000 Li 0.51462 0.73951 0.38943 0.0
Li1001 Li 0.49811 0.75351 0.41434 0.0
Li1002 Li 0.50381 0.72106 0.41011 0.0
Li1003 Li 0.48557 0.73304 0.39179 0.0
C1004 C 0.53491 0.7479 0.41534 0.0
N1005 N 0.56654 0.76094 0.41672 0.0
C1006 C 0.53848 0.76482 0.42275 0.0
C1007 C 0.54747 0.73757 0.40876 0.0
C1008 C 0.55453 0.77118 0.4233 0.0
C1009 C 0.56336 0.74441 0.40954 0.0
C1010 C 0.48922 0.76252 0.37725 0.0
C1011 C 0.46937 0.7809 0.36767 0.0
N1012 N 0.47247 0.77435 0.35136 0.0
C1013 C 0.49228 0.75602 0.3604 0.0
C1014 C 0.47772 0.77509 0.38095 0.0
C1015 C 0.48366 0.76215 0.34749 0.0
C1016 C 0.5362 0.73225 0.36123 0.0
N1017 N 0.53224 0.74436 0.37422 0.0
C1018 C 0.5539 0.76353 0.3664 0.0
C1019 C 0.54053 0.75997 0.37668 0.0
C1020 C 0.55849 0.75112 0.35312 0.0
C1021 C 0.54931 0.73541 0.35044 0.0
H1022 H 0.52922 0.72011 0.35927 0.0
H1023 H 0.53689 0.76957 0.38681 0.0
C1024 C 0.49343 0.77216 0.44695 0.0
N1025 N 0.49623 0.77389 0.43026 0.0
C1026 C 0.49264 0.78686 0.45886 0.0
C1027 C 0.49777 0.80488 0.43621 0.0
C1028 C 0.49837 0.78984 0.42474 0.0
C1029 C 0.4949 0.80355 0.45357 0.0
H1030 H 0.49193 0.75932 0.45104 0.0
H1031 H 0.50075 0.79086 0.41142 0.0
C1032 C 0.50554 0.69938 0.38349 0.0
N1033 N 0.51098 0.66434 0.38217 0.0
C1034 C 0.49252 0.68722 0.38294 0.0
C1035 C 0.52133 0.69369 0.3833 0.0
C1036 C 0.49552 0.66957 0.38227 0.0
C1037 C 0.52383 0.67593 0.38266 0.0
C1038 C 0.46691 0.73098 0.41917 0.0
C1039 C 0.45886 0.7151 0.41405 0.0
C1040 C 0.45812 0.74497 0.42645 0.0
C1041 C 0.44209 0.7135 0.41616 0.0
C1042 C 0.44137 0.74284 0.42838 0.0
N1043 N 0.43377 0.72729 0.42322 0.0
C1044 C 0.5241 0.7018 0.42889 0.0
C1045 C 0.49784 0.68885 0.42522 0.0
C1046 C 0.5287 0.68837 0.43793 0.0
N1047 N 0.50893 0.70183 0.42265 0.0
C1048 C 0.50192 0.67511 0.43421 0.0
C1049 C 0.51755 0.67474 0.44078 0.0
H1050 H 0.53271 0.71225 0.42692 0.0
H1051 H 0.4858 0.68911 0.4203 0.0
C1052 C 0.46633 0.71774 0.36394 0.0
N1053 N 0.46616 0.72957 0.37795 0.0
C1054 C 0.45309 0.71547 0.35308 0.0
C1055 C 0.43972 0.73784 0.37098 0.0
C1056 C 0.45321 0.73964 0.38151 0.0
C1057 C 0.43949 0.72563 0.35646 0.0
H1058 H 0.4769 0.71023 0.36099 0.0
H1059 H 0.45346 0.74942 0.39232 0.0
O1060 O 0.51922 0.74152 0.41452 0.0
O1061 O 0.49718 0.75629 0.39007 0.0
O1062 O 0.50285 0.71676 0.38461 0.0
O1063 O 0.48331 0.73285 0.41715 0.0
H1064 H 0.52898 0.77299 0.428 0.0
H1065 H 0.54497 0.7245 0.40289 0.0
H1066 H 0.55745 0.78427 0.42895 0.0
H1067 H 0.57316 0.73661 0.40437 0.0
H1068 H 0.46037 0.79056 0.37034 0.0
H1069 H 0.50107 0.74619 0.35736 0.0
H1070 H 0.47513 0.78013 0.39395 0.0
H1071 H 0.48582 0.75717 0.33439 0.0
H1072 H 0.56049 0.77592 0.36872 0.0
H1073 H 0.55244 0.72552 0.34032 0.0
H1074 H 0.4906 0.78516 0.47211 0.0
H1075 H 0.49941 0.81744 0.43149 0.0
H1076 H 0.48022 0.69136 0.38325 0.0
H1077 H 0.53155 0.70289 0.3838 0.0
H1078 H 0.48556 0.66004 0.38192 0.0
H1079 H 0.53598 0.67136 0.3826 0.0
H1080 H 0.46543 0.70419 0.40829 0.0
H1081 H 0.46413 0.75738 0.43042 0.0
H1082 H 0.43569 0.70132 0.41214 0.0
H1083 H 0.43441 0.75357 0.43392 0.0
H1084 H 0.54094 0.68862 0.44252 0.0
H1085 H 0.49282 0.66506 0.43624 0.0
H1086 H 0.45353 0.70581 0.34214 0.0
H1087 H 0.42975 0.74627 0.37397 0.0
Li1088 Li 0.01431 0.7948 0.63085 0.0
Li1089 Li 0.99546 0.78053 0.65215 0.0
Li1090 Li 0.02571 0.7763 0.65007 0.0
Li1091 Li 0.0079 0.76413 0.62707 0.0
C1092 C 0.02156 0.8057 0.6706 0.0
N1093 N 0.03718 0.81983 0.69971 0.0
C1094 C 0.01374 0.80579 0.68638 0.0
C1095 C 0.03727 0.81291 0.6696 0.0
C1096 C 0.02186 0.81298 0.70096 0.0
C1097 C 0.04498 0.81995 0.68447 0.0
C1098 C 0.9801 0.77676 0.61688 0.0
C1099 C 0.95245 0.76641 0.61232 0.0
N1100 N 0.95546 0.76402 0.59532 0.0
C1101 C 0.98291 0.77423 0.59936 0.0
C1102 C 0.96474 0.77283 0.62342 0.0
C1103 C 0.9703 0.76776 0.58868 0.0
C1104 C 0.01496 0.81399 0.6022 0.0
N1105 N 0.01857 0.81529 0.61897 0.0
C1106 C 0.03015 0.84406 0.61751 0.0
C1107 C 0.02584 0.83008 0.62676 0.0
C1108 C 0.02707 0.84275 0.60003 0.0
C1109 C 0.0192 0.8275 0.59247 0.0
H1110 H 0.0092 0.80223 0.59621 0.0
H1111 H 0.02859 0.83094 0.6401 0.0
C1112 C 0.97452 0.76914 0.67772 0.0
N1113 N 0.97738 0.78234 0.66796 0.0
C1114 C 0.96165 0.76958 0.68943 0.0
C1115 C 0.9551 0.79751 0.68133 0.0
C1116 C 0.96801 0.79643 0.66959 0.0
C1117 C 0.95171 0.7839 0.69139 0.0
H1118 H 0.98234 0.75827 0.67654 0.0
H1119 H 0.97058 0.80684 0.66178 0.0
C1120 C 0.03938 0.78283 0.61389 0.0
N1121 N 0.05875 0.7983 0.59058 0.0
C1122 C 0.03634 0.77934 0.59655 0.0
C1123 C 0.05233 0.79411 0.61937 0.0
C1124 C 0.04627 0.78729 0.58496 0.0
C1125 C 0.06196 0.80183 0.60739 0.0
C1126 C 0.00652 0.7413 0.64918 0.0
C1127 C 0.02065 0.73204 0.6471 0.0
C1128 C 0.99148 0.73235 0.64832 0.0
C1129 C 0.01948 0.71393 0.64417 0.0
C1130 C 0.99082 0.71423 0.64537 0.0
N1131 N 0.00472 0.70547 0.64337 0.0
C1132 C 0.04186 0.77141 0.68045 0.0
C1133 C 0.05815 0.76755 0.65559 0.0
C1134 C 0.05463 0.7673 0.69036 0.0
N1135 N 0.04386 0.77166 0.66343 0.0
C1136 C 0.07118 0.76312 0.66498 0.0
C1137 C 0.06957 0.76291 0.68266 0.0
H1138 H 0.03027 0.77425 0.68635 0.0
H1139 H 0.05932 0.76729 0.64197 0.0
C1140 C 0.99031 0.73559 0.6073 0.0
N1141 N 0.00502 0.74364 0.61071 0.0
C1142 C 0.98888 0.72096 0.59533 0.0
C1143 C 0.01784 0.72236 0.59132 0.0
C1144 C 0.01869 0.73711 0.60319 0.0
C1145 C 1.00276 0.7142 0.5871 0.0
H1146 H 0.97965 0.7404 0.61395 0.0
H1147 H 0.03032 0.74332 0.60647 0.0
O1148 O 0.01386 0.79856 0.65622 0.0
O1149 O 0.99219 0.78329 0.62759 0.0
O1150 O 0.02956 0.77551 0.62547 0.0
O1151 O 0.00743 0.75905 0.65151 0.0
H1152 H 1.00158 0.80028 0.6874 0.0
H1153 H 0.04351 0.81291 0.65751 0.0
H1154 H 0.01598 0.81308 0.71326 0.0
H1155 H 0.05718 0.82547 0.68389 0.0
H1156 H 0.94052 0.7633 0.61722 0.0
H1157 H 0.99477 0.77674 0.59406 0.0
H1158 H 0.96232 0.77469 0.63693 0.0
H1159 H 0.97235 0.76559 0.57511 0.0
H1160 H 0.03622 0.85556 0.62387 0.0
H1161 H 0.01636 0.82598 0.5791 0.0
H1162 H 0.95969 0.75894 0.6971 0.0
H1163 H 0.94771 0.80877 0.68236 0.0
H1164 H 0.02624 0.77083 0.59208 0.0
H1165 H 0.05484 0.79698 0.63273 0.0
H1166 H 0.04398 0.78481 0.57151 0.0
H1167 H 0.07196 0.81066 0.61146 0.0
H1168 H 0.03238 0.73877 0.64755 0.0
H1169 H 0.98042 0.73934 0.64958 0.0
H1170 H 0.03031 0.70659 0.64247 0.0
H1171 H 0.97927 0.70714 0.64457 0.0
H1172 H 0.05274 0.76755 0.70393 0.0
H1173 H 0.08225 0.75945 0.65833 0.0
H1174 H 0.97705 0.71481 0.59275 0.0
H1175 H 0.02887 0.71754 0.58534 0.0
Li1176 Li 0.51442 0.29558 0.13074 0.0
Li1177 Li 0.49574 0.28135 0.15175 0.0
Li1178 Li 0.52541 0.27628 0.15019 0.0
Li1179 Li 0.50797 0.2648 0.12737 0.0
C1180 C 0.51433 0.30485 0.17317 0.0
N1181 N 0.51351 0.31678 0.2073 0.0
C1182 C 0.51394 0.29309 0.18534 0.0
C1183 C 0.51431 0.32267 0.17835 0.0
C1184 C 0.51352 0.29938 0.20253 0.0
C1185 C 0.51389 0.32845 0.19567 0.0
C1186 C 0.48288 0.28024 0.11381 0.0
C1187 C 0.45667 0.27233 0.10193 0.0
N1188 N 0.46324 0.2722 0.08606 0.0
C1189 C 0.48937 0.28014 0.09741 0.0
C1190 C 0.4664 0.27639 0.11613 0.0
C1191 C 0.47924 0.27599 0.08354 0.0
C1192 C 0.52608 0.31229 0.10279 0.0
N1193 N 0.51895 0.31548 0.11835 0.0
C1194 C 0.51905 0.34594 0.11526 0.0
C1195 C 0.51541 0.33193 0.12471 0.0
C1196 C 0.52646 0.34301 0.0991 0.0
C1197 C 0.53004 0.32585 0.09302 0.0
H1198 H 0.52881 0.29914 0.09794 0.0
H1199 H 0.50969 0.33419 0.13708 0.0
C1200 C 0.47693 0.27361 0.1804 0.0
N1201 N 0.47746 0.28369 0.16739 0.0
C1202 C 0.46401 0.27427 0.19202 0.0
C1203 C 0.45228 0.29582 0.17683 0.0
C1204 C 0.46549 0.29474 0.16546 0.0
C1205 C 0.45134 0.28541 0.19033 0.0
H1206 H 0.48656 0.26491 0.18173 0.0
H1207 H 0.46613 0.30261 0.15501 0.0
C1208 C 0.54487 0.2836 0.12337 0.0
N1209 N 0.57555 0.29817 0.11907 0.0
C1210 C 0.55529 0.27612 0.11083 0.0
C1211 C 0.55008 0.29853 0.1337 0.0
C1212 C 0.57074 0.28367 0.10885 0.0
C1213 C 0.56562 0.30569 0.13134 0.0
C1214 C 0.499 0.24324 0.14966 0.0
C1215 C 0.50764 0.22817 0.14971 0.0
C1216 C 0.48227 0.24187 0.14746 0.0
C1217 C 0.49939 0.21198 0.14759 0.0
C1218 C 0.47445 0.22545 0.14541 0.0
N1219 N 0.4831 0.21096 0.1455 0.0
C1220 C 0.55163 0.28422 0.17383 0.0
C1221 C 0.54975 0.25552 0.16009 0.0
C1222 C 0.56495 0.28022 0.18304 0.0
N1223 N 0.54412 0.2718 0.16285 0.0
C1224 C 0.563 0.25094 0.16903 0.0
C1225 C 0.57071 0.26331 0.18085 0.0
H1226 H 0.5473 0.29725 0.17549 0.0
H1227 H 0.544 0.24609 0.15081 0.0
C1228 C 0.49004 0.23797 0.10582 0.0
N1229 N 0.5049 0.24487 0.11052 0.0
C1230 C 0.48855 0.22359 0.09355 0.0
C1231 C 0.51765 0.22332 0.0914 0.0
C1232 C 0.51857 0.23773 0.10367 0.0
C1233 C 0.50248 0.21607 0.0861 0.0
H1234 H 0.4793 0.24349 0.11165 0.0
H1235 H 0.53024 0.24321 0.1078 0.0
O1236 O 0.51452 0.299 0.15626 0.0
O1237 O 0.49259 0.28415 0.12756 0.0
O1238 O 0.52968 0.27629 0.12539 0.0
O1239 O 0.50689 0.25923 0.15138 0.0
H1240 H 0.51403 0.27926 0.18154 0.0
H1241 H 0.51458 0.33193 0.16908 0.0
H1242 H 0.51322 0.29043 0.21207 0.0
H1243 H 0.51386 0.3422 0.19987 0.0
H1244 H 0.4439 0.26925 0.10351 0.0
H1245 H 0.50211 0.28298 0.09543 0.0
H1246 H 0.46121 0.27642 0.12877 0.0
H1247 H 0.4841 0.27574 0.07076 0.0
H1248 H 0.51585 0.35885 0.12046 0.0
H1249 H 0.53602 0.32284 0.08086 0.0
H1250 H 0.46404 0.26621 0.20232 0.0
H1251 H 0.44276 0.30448 0.17486 0.0
H1252 H 0.55146 0.26463 0.10264 0.0
H1253 H 0.54224 0.30462 0.14342 0.0
H1254 H 0.57891 0.27801 0.09919 0.0
H1255 H 0.56979 0.31723 0.13925 0.0
H1256 H 0.52057 0.2289 0.15135 0.0
H1257 H 0.4754 0.25333 0.14698 0.0
H1258 H 0.50593 0.20021 0.14758 0.0
H1259 H 0.46152 0.22422 0.14362 0.0
H1260 H 0.57049 0.2902 0.192 0.0
H1261 H 0.56725 0.23789 0.16657 0.0
H1262 H 0.47661 0.21827 0.09013 0.0
H1263 H 0.52872 0.21806 0.08597 0.0
H1264 H 0.19942 0.7136 0.83845 0.0
H1265 H 0.20692 0.72991 0.86565 0.0
H1266 H 0.2496 0.75113 0.84204 0.0
H1267 H 0.2421 0.73446 0.81485 0.0
H1268 H 0.25531 0.74553 0.87493 0.0
H1269 H 0.21581 0.7748 0.84595 0.0
H1270 H 0.1902 0.77757 0.83129 0.0
H1271 H 0.16338 0.7636 0.87498 0.0
H1272 H 0.18884 0.76084 0.88993 0.0
H1273 H 0.26519 0.82294 0.93236 0.0
H1274 H 0.26169 0.80142 0.90763 0.0
H1275 H 0.21784 0.7813 0.9299 0.0
H1276 H 0.22092 0.8032 0.95438 0.0
H1277 H 0.21328 0.78578 0.89783 0.0
H1278 H 0.25346 0.75909 0.92776 0.0
H1279 H 0.27933 0.75764 0.94229 0.0
H1280 H 0.30533 0.76722 0.89667 0.0
H1281 H 0.2796 0.76897 0.88192 0.0
C1282 C 0.21064 0.72135 0.83929 0.0
C1283 C 0.22022 0.72286 0.82472 0.0
C1284 C 0.21486 0.73077 0.85474 0.0
C1285 C 0.22863 0.74208 0.85581 0.0
C1286 C 0.23888 0.74257 0.84151 0.0
C1287 C 0.23468 0.73301 0.82604 0.0
C1288 C 0.23148 0.75439 0.87136 0.0
C1289 C 0.2462 0.75445 0.87987 0.0
C1290 C 0.21952 0.7659 0.87796 0.0
C1291 C 0.20421 0.76746 0.86899 0.0
C1292 C 0.20444 0.77224 0.85239 0.0
C1293 C 0.18996 0.77386 0.84406 0.0
C1294 C 0.17517 0.77068 0.85217 0.0
C1295 C 0.17484 0.76601 0.86869 0.0
C1296 C 0.18929 0.76449 0.87713 0.0
C1297 C 0.25475 0.81399 0.93199 0.0
C1298 C 0.24331 0.81488 0.94539 0.0
C1299 C 0.25288 0.80153 0.9179 0.0
C1300 C 0.23959 0.78957 0.91694 0.0
C1301 C 0.22823 0.79032 0.93036 0.0
C1302 C 0.23008 0.80279 0.94443 0.0
C1303 C 0.23706 0.77685 0.9016 0.0
C1304 C 0.22239 0.77678 0.89303 0.0
C1305 C 0.24911 0.76545 0.89496 0.0
C1306 C 0.26459 0.76432 0.90378 0.0
C1307 C 0.26469 0.76102 0.92086 0.0
C1308 C 0.27933 0.76012 0.92913 0.0
C1309 C 0.29396 0.76238 0.92042 0.0
C1310 C 0.29399 0.76549 0.9034 0.0
C1311 C 0.27938 0.76643 0.89508 0.0
H1312 H 0.30529 0.76168 0.92685 0.0
H1313 H 0.16398 0.77187 0.84566 0.0
H1314 H 0.97154 0.5551 0.43066 0.0
H1315 H 0.99288 0.55459 0.40877 0.0
H1316 H 0.02846 0.54908 0.44662 0.0
H1317 H 0.00694 0.54983 0.46855 0.0
H1318 H 0.04031 0.56965 0.42239 0.0
H1319 H 0.01355 0.51355 0.42321 0.0
H1320 H 0.99005 0.49285 0.42292 0.0
H1321 H 0.97675 0.50609 0.37407 0.0
H1322 H 1.00011 0.52699 0.37412 0.0
H1323 H 0.09947 0.53265 0.36366 0.0
H1324 H 0.08021 0.53832 0.38719 0.0
H1325 H 0.04211 0.5417 0.35156 0.0
H1326 H 0.06115 0.53548 0.328 0.0
H1327 H 0.03222 0.52222 0.37554 0.0
H1328 H 0.05941 0.57817 0.37461 0.0
H1329 H 0.08293 0.59886 0.3751 0.0
H1330 H 0.09561 0.58587 0.42425 0.0
H1331 H 0.07228 0.56491 0.42395 0.0
C1332 C 0.98399 0.55423 0.43428 0.0
C1333 C 0.9877 0.55253 0.45118 0.0
C1334 C 0.99615 0.55382 0.42181 0.0
C1335 C 0.01226 0.55144 0.42597 0.0
C1336 C 0.01613 0.55087 0.44309 0.0
C1337 C 0.0039 0.55137 0.45561 0.0
C1338 C 0.02468 0.54822 0.41228 0.0
C1339 C 0.03866 0.55916 0.41225 0.0
C1340 C 0.02245 0.53466 0.39891 0.0
C1341 C 0.00851 0.52194 0.39874 0.0
C1342 C 0.00557 0.51211 0.41244 0.0
C1343 C 0.99228 0.50033 0.41231 0.0
C1344 C 0.98188 0.4982 0.39851 0.0
C1345 C 0.9848 0.50777 0.38476 0.0
C1346 C 0.99808 0.51956 0.38482 0.0
C1347 C 0.08698 0.53452 0.36081 0.0
C1348 C 0.08191 0.53362 0.34388 0.0
C1349 C 0.076 0.53795 0.37431 0.0
C1350 C 0.0597 0.54064 0.37119 0.0
C1351 C 0.05462 0.53975 0.35432 0.0
C1352 C 0.06557 0.53633 0.34083 0.0
C1353 C 0.0478 0.5438 0.38545 0.0
C1354 C 0.03392 0.53275 0.38563 0.0
C1355 C 0.05018 0.55722 0.39895 0.0
C1356 C 0.06419 0.56984 0.39917 0.0
C1357 C 0.06729 0.57961 0.38546 0.0
C1358 C 0.08057 0.59141 0.38572 0.0
C1359 C 0.09078 0.59364 0.39968 0.0
C1360 C 0.0877 0.58411 0.41343 0.0
C1361 C 0.07444 0.57228 0.41323 0.0
H1362 H 0.10106 0.60279 0.39985 0.0
H1363 H 0.97158 0.48909 0.39846 0.0
H1364 H 0.81308 0.80265 0.84812 0.0
H1365 H 0.81306 0.78115 0.86857 0.0
H1366 H 0.8055 0.74004 0.8278 0.0
H1367 H 0.80537 0.7618 0.8074 0.0
H1368 H 0.7838 0.737 0.85287 0.0
H1369 H 0.84118 0.74488 0.85004 0.0
H1370 H 0.86737 0.76133 0.85055 0.0
H1371 H 0.85795 0.78271 0.90189 0.0
H1372 H 0.83159 0.76659 0.90162 0.0
H1373 H 0.78508 0.67167 0.9092 0.0
H1374 H 0.7917 0.68941 0.8862 0.0
H1375 H 0.80132 0.73395 0.92276 0.0
H1376 H 0.79538 0.71614 0.94584 0.0
H1377 H 0.8235 0.73326 0.8982 0.0
H1378 H 0.76544 0.72791 0.90022 0.0
H1379 H 0.73882 0.71231 0.89992 0.0
H1380 H 0.74925 0.68696 0.85024 0.0
H1381 H 0.77604 0.70225 0.85035 0.0
C1382 C 0.81198 0.78896 0.84354 0.0
C1383 C 0.80948 0.7838 0.82623 0.0
C1384 C 0.81191 0.77667 0.8552 0.0
C1385 C 0.80935 0.75888 0.84979 0.0
C1386 C 0.80754 0.75365 0.83232 0.0
C1387 C 0.80767 0.76601 0.82064 0.0
C1388 C 0.80715 0.74607 0.86252 0.0
C1389 C 0.79266 0.73593 0.86256 0.0
C1390 C 0.81845 0.74495 0.87551 0.0
C1391 C 0.83434 0.75461 0.87576 0.0
C1392 C 0.84464 0.75319 0.8614 0.0
C1393 C 0.85952 0.76244 0.86166 0.0
C1394 C 0.86431 0.77309 0.87623 0.0
C1395 C 0.85423 0.77447 0.8906 0.0
C1396 C 0.83932 0.76526 0.89041 0.0
C1397 C 0.78879 0.68519 0.91241 0.0
C1398 C 0.78959 0.69242 0.92949 0.0
C1399 C 0.79242 0.6954 0.89918 0.0
C1400 C 0.79682 0.71315 0.90265 0.0
C1401 C 0.79791 0.72033 0.91967 0.0
C1402 C 0.79432 0.71013 0.9329 0.0
C1403 C 0.80009 0.72431 0.88861 0.0
C1404 C 0.81474 0.73418 0.88838 0.0
C1405 C 0.78891 0.72526 0.87547 0.0
C1406 C 0.77281 0.71607 0.87538 0.0
C1407 C 0.76211 0.7189 0.88929 0.0
C1408 C 0.74698 0.71014 0.88915 0.0
C1409 C 0.74237 0.69861 0.87509 0.0
C1410 C 0.75286 0.69587 0.86113 0.0
C1411 C 0.76801 0.70458 0.86123 0.0
H1412 H 0.73065 0.69184 0.875 0.0
H1413 H 0.87584 0.78024 0.8764 0.0
H1414 H 0.01977 0.00759 0.46266 0.0
H1415 H 0.99964 0.01036 0.44088 0.0
H1416 H 0.01119 0.95993 0.41612 0.0
H1417 H 0.03148 0.95736 0.43784 0.0
H1418 H 0.00879 0.98365 0.39336 0.0
H1419 H 0.97705 0.96492 0.43983 0.0
H1420 H 0.96727 0.96629 0.46948 0.0
H1421 H 0.9492 0.01681 0.46606 0.0
H1422 H 0.95909 0.01586 0.43645 0.0
H1423 H 0.94263 0.97268 0.33747 0.0
H1424 H 0.9619 0.96896 0.35949 0.0
H1425 H 0.9475 0.01676 0.38763 0.0
H1426 H 0.92747 0.02004 0.36618 0.0
H1427 H 0.95143 0.99401 0.40876 0.0
H1428 H 0.98342 0.0135 0.36294 0.0
H1429 H 0.99358 0.01297 0.33346 0.0
H1430 H 0.01159 0.96222 0.33578 0.0
H1431 H 1.00134 0.96235 0.36521 0.0
C1432 C 0.01799 0.99718 0.4525 0.0
C1433 C 0.02708 0.98225 0.45188 0.0
C1434 C 0.00646 0.99869 0.44014 0.0
C1435 C 0.00376 0.98527 0.42692 0.0
C1436 C 0.01301 0.97043 0.42619 0.0
C1437 C 0.02451 0.96891 0.43861 0.0
C1438 C 0.99136 0.98675 0.41384 0.0
C1439 C 0.9962 0.98567 0.3967 0.0
C1440 C 0.975 0.98984 0.4182 0.0
C1441 C 0.96895 0.99039 0.43597 0.0
C1442 C 0.9711 0.97638 0.44544 0.0
C1443 C 0.96552 0.97707 0.46224 0.0
C1444 C 0.95765 0.99164 0.46967 0.0
C1445 C 0.95531 0.00554 0.4603 0.0
C1446 C 0.96089 0.00493 0.4435 0.0
C1447 C 0.94332 0.9823 0.34845 0.0
C1448 C 0.93343 0.99672 0.34991 0.0
C1449 C 0.95457 0.98026 0.36096 0.0
C1450 C 0.95644 0.99274 0.37513 0.0
C1451 C 0.9464 0.00698 0.3768 0.0
C1452 C 0.93504 0.00894 0.36437 0.0
C1453 C 0.96883 0.99097 0.38822 0.0
C1454 C 0.96401 0.99198 0.40537 0.0
C1455 C 0.98524 0.98795 0.38389 0.0
C1456 C 0.99147 0.98787 0.36622 0.0
C1457 C 0.98945 1.00218 0.35712 0.0
C1458 C 0.99524 1.00196 0.34043 0.0
C1459 C 1.00319 0.98755 0.33274 0.0
C1460 C 0.00541 0.97336 0.34174 0.0
C1461 C 0.99962 0.97351 0.35843 0.0
H1462 H 0.00766 0.9874 0.31981 0.0
H1463 H 0.95334 0.99215 0.48267 0.0
H1464 H 0.1987 0.28456 0.6929 0.0
H1465 H 0.20889 0.27044 0.66584 0.0
H1466 H 0.2532 0.26025 0.68992 0.0
H1467 H 0.24284 0.27441 0.7171 0.0
H1468 H 0.25788 0.2687 0.65608 0.0
H1469 H 0.22548 0.22892 0.68624 0.0
H1470 H 0.20134 0.2193 0.70195 0.0
H1471 H 0.17186 0.22381 0.65886 0.0
H1472 H 0.19583 0.23357 0.64292 0.0
H1473 H 0.27887 0.19803 0.59431 0.0
H1474 H 0.27309 0.21694 0.62033 0.0
H1475 H 0.22545 0.22452 0.60219 0.0
H1476 H 0.23114 0.20566 0.5762 0.0
H1477 H 0.22367 0.21732 0.63386 0.0
H1478 H 0.25632 0.25655 0.60331 0.0
H1479 H 0.28047 0.26636 0.58775 0.0
H1480 H 0.30961 0.26317 0.63139 0.0
H1481 H 0.28566 0.2531 0.64715 0.0
C1482 C 0.21073 0.2796 0.69226 0.0
C1483 C 0.21996 0.28036 0.70699 0.0
C1484 C 0.21654 0.27152 0.67687 0.0
C1485 C 0.23169 0.264 0.67593 0.0
C1486 C 0.24146 0.26591 0.69037 0.0
C1487 C 0.2356 0.27402 0.70584 0.0
C1488 C 0.23652 0.25285 0.66032 0.0
C1489 C 0.25055 0.25733 0.6513 0.0
C1490 C 0.22682 0.23815 0.65397 0.0
C1491 C 0.21242 0.23211 0.66344 0.0
C1492 C 0.21383 0.22794 0.68015 0.0
C1493 C 0.20019 0.22243 0.68908 0.0
C1494 C 0.18507 0.221 0.68143 0.0
C1495 C 0.18358 0.22496 0.66478 0.0
C1496 C 0.19719 0.23044 0.65577 0.0
C1497 C 0.26724 0.2039 0.59576 0.0
C1498 C 0.25546 0.20027 0.58315 0.0
C1499 C 0.26395 0.21473 0.61066 0.0
C1500 C 0.24886 0.2223 0.61322 0.0
C1501 C 0.23716 0.21881 0.60057 0.0
C1502 C 0.24041 0.20795 0.58572 0.0
C1503 C 0.24494 0.23327 0.62931 0.0
C1504 C 0.23107 0.22868 0.63854 0.0
C1505 C 0.25482 0.24783 0.6358 0.0
C1506 C 0.26923 0.25388 0.62635 0.0
C1507 C 0.2679 0.25779 0.60955 0.0
C1508 C 0.28155 0.26343 0.6007 0.0
C1509 C 0.29657 0.26534 0.60856 0.0
C1510 C 0.29797 0.26166 0.62531 0.0
C1511 C 0.28436 0.25599 0.63421 0.0
H1512 H 0.30712 0.26971 0.60169 0.0
H1513 H 0.17451 0.21678 0.68838 0.0
H1514 H 0.53927 0.54176 0.60412 0.0
H1515 H 0.52036 0.53838 0.62784 0.0
H1516 H 0.48323 0.51887 0.5924 0.0
H1517 H 0.50224 0.52235 0.5687 0.0
H1518 H 0.4713 0.54173 0.61684 0.0
H1519 H 0.50321 0.49158 0.61488 0.0
H1520 H 0.52842 0.47576 0.61423 0.0
H1521 H 0.54113 0.50208 0.66297 0.0
H1522 H 0.51611 0.51828 0.66379 0.0
H1523 H 0.4174 0.50845 0.67758 0.0
H1524 H 0.4359 0.5111 0.65351 0.0
H1525 H 0.47362 0.53154 0.6878 0.0
H1526 H 0.45532 0.52847 0.71197 0.0
H1527 H 0.48497 0.50767 0.66361 0.0
H1528 H 0.45325 0.55822 0.6652 0.0
H1529 H 0.42811 0.57416 0.66565 0.0
H1530 H 0.41499 0.54683 0.61747 0.0
H1531 H 0.43996 0.53054 0.61684 0.0
C1532 C 0.5271 0.53664 0.60149 0.0
C1533 C 0.52217 0.53221 0.58468 0.0
C1534 C 0.5163 0.53471 0.61499 0.0
C1535 C 0.5004 0.52817 0.61193 0.0
C1536 C 0.49542 0.52393 0.59509 0.0
C1537 C 0.50623 0.52591 0.58158 0.0
C1538 C 0.48898 0.52582 0.62631 0.0
C1539 C 0.47419 0.53407 0.62694 0.0
C1540 C 0.49286 0.51612 0.63969 0.0
C1541 C 0.50784 0.50626 0.63932 0.0
C1542 C 0.51143 0.49409 0.6254 0.0
C1543 C 0.52568 0.48504 0.62501 0.0
C1544 C 0.53638 0.48794 0.63853 0.0
C1545 C 0.53283 0.49986 0.65249 0.0
C1546 C 0.51861 0.50897 0.65293 0.0
C1547 C 0.42966 0.51339 0.68002 0.0
C1548 C 0.43485 0.51829 0.69673 0.0
C1549 C 0.44019 0.51505 0.66622 0.0
C1550 C 0.45612 0.52169 0.66881 0.0
C1551 C 0.46138 0.52643 0.68547 0.0
C1552 C 0.45085 0.52481 0.69928 0.0
C1553 C 0.46732 0.52363 0.65417 0.0
C1554 C 0.48207 0.5153 0.6535 0.0
C1555 C 0.46339 0.53322 0.64073 0.0
C1556 C 0.44839 0.54304 0.64106 0.0
C1557 C 0.44494 0.55551 0.65476 0.0
C1558 C 0.43074 0.56462 0.65504 0.0
C1559 C 0.41994 0.56147 0.64162 0.0
C1560 C 0.42335 0.54923 0.62787 0.0
C1561 C 0.43754 0.54007 0.62754 0.0
H1562 H 0.40895 0.56854 0.64186 0.0
H1563 H 0.54741 0.48092 0.6382 0.0
H1564 H 0.79594 0.22763 0.68762 0.0
H1565 H 0.79022 0.24577 0.66513 0.0
H1566 H 0.79081 0.29109 0.70204 0.0
H1567 H 0.79608 0.2727 0.72454 0.0
H1568 H 0.76609 0.29169 0.6816 0.0
H1569 H 0.82259 0.28266 0.67344 0.0
H1570 H 0.84706 0.26564 0.66925 0.0
H1571 H 0.82816 0.23963 0.6227 0.0
H1572 H 0.80345 0.25633 0.62674 0.0
H1573 H 0.7692 0.35362 0.62127 0.0
H1574 H 0.77567 0.33627 0.64401 0.0
H1575 H 0.77264 0.28973 0.6088 0.0
H1576 H 0.76652 0.30703 0.58592 0.0
H1577 H 0.79904 0.29036 0.62861 0.0
H1578 H 0.74231 0.29927 0.63727 0.0
H1579 H 0.71798 0.31652 0.64159 0.0
H1580 H 0.73777 0.34323 0.68741 0.0
H1581 H 0.76233 0.32629 0.68322 0.0
C1582 C 0.79492 0.24148 0.6908 0.0
C1583 C 0.79662 0.24888 0.70766 0.0
C1584 C 0.79173 0.25186 0.67799 0.0
C1585 C 0.79031 0.2699 0.68179 0.0
C1586 C 0.79191 0.27726 0.69874 0.0
C1587 C 0.79503 0.26683 0.71155 0.0
C1588 C 0.78685 0.28099 0.66816 0.0
C1589 C 0.77347 0.29159 0.67014 0.0
C1590 C 0.79622 0.28064 0.65299 0.0
C1591 C 0.8111 0.27064 0.65048 0.0
C1592 C 0.82359 0.27322 0.66237 0.0
C1593 C 0.83752 0.26364 0.66001 0.0
C1594 C 0.83915 0.25153 0.64574 0.0
C1595 C 0.82687 0.249 0.63377 0.0
C1596 C 0.81291 0.25853 0.63608 0.0
C1597 C 0.76998 0.3397 0.61833 0.0
C1598 C 0.76726 0.33173 0.60174 0.0
C1599 C 0.77357 0.32977 0.63139 0.0
C1600 C 0.77451 0.31165 0.62819 0.0
C1601 C 0.77194 0.30368 0.61162 0.0
C1602 C 0.76829 0.31358 0.59857 0.0
C1603 C 0.77828 0.30099 0.64205 0.0
C1604 C 0.79171 0.29049 0.6401 0.0
C1605 C 0.769 0.30148 0.65727 0.0
C1606 C 0.75423 0.31164 0.65984 0.0
C1607 C 0.74153 0.30892 0.64819 0.0
C1608 C 0.72769 0.31862 0.65063 0.0
C1609 C 0.72635 0.331 0.66474 0.0
C1610 C 0.73883 0.33366 0.67647 0.0
C1611 C 0.75271 0.324 0.67408 0.0
H1612 H 0.71562 0.3385 0.66661 0.0
H1613 H 0.84994 0.24413 0.64393 0.0
H1614 H 0.50478 0.99354 0.57083 0.0
H1615 H 0.52638 0.99455 0.59171 0.0
H1616 H 0.50193 0.95236 0.6145 0.0
H1617 H 0.4806 0.95119 0.59323 0.0
H1618 H 0.52459 1.00304 0.62382 0.0
H1619 H 0.52857 0.93086 0.63597 0.0
H1620 H 0.52559 0.90174 0.62004 0.0
H1621 H 0.53792 0.92326 0.57364 0.0
H1622 H 0.54123 0.95246 0.58932 0.0
H1623 H 0.56147 1.00002 0.70251 0.0
H1624 H 0.54313 0.99475 0.67864 0.0
H1625 H 0.58113 0.97101 0.64753 0.0
H1626 H 0.59939 0.97547 0.67164 0.0
H1627 H 0.55357 0.95326 0.64087 0.0
H1628 H 0.5707 0.01321 0.64443 0.0
H1629 H 0.57558 0.04302 0.65828 0.0
H1630 H 0.52482 0.04703 0.66916 0.0
H1631 H 0.51966 0.01714 0.65558 0.0
C1632 C 0.5043 0.98427 0.58011 0.0
C1633 C 0.49116 0.97226 0.58047 0.0
C1634 C 0.51654 0.9849 0.5921 0.0
C1635 C 0.51587 0.97355 0.60477 0.0
C1636 C 0.50295 0.9611 0.60475 0.0
C1637 C 0.49077 0.96038 0.59261 0.0
C1638 C 0.52808 0.97558 0.61859 0.0
C1639 C 0.53091 0.99211 0.62748 0.0
C1640 C 0.53661 0.96145 0.62332 0.0
C1641 C 0.53499 0.94388 0.61382 0.0
C1642 C 0.53073 0.92937 0.62238 0.0
C1643 C 0.52897 0.91285 0.61339 0.0
C1644 C 0.53151 0.91066 0.59583 0.0
C1645 C 0.5359 0.92498 0.58723 0.0
C1646 C 0.53771 0.94152 0.59617 0.0
C1647 C 0.56593 0.99342 0.69071 0.0
C1648 C 0.58202 0.98825 0.6891 0.0
C1649 C 0.55543 0.99059 0.67696 0.0
C1650 C 0.56076 0.98271 0.66113 0.0
C1651 C 0.5767 0.97718 0.65955 0.0
C1652 C 0.5872 0.97993 0.67334 0.0
C1653 C 0.54983 0.98065 0.64619 0.0
C1654 C 0.54723 0.96414 0.63714 0.0
C1655 C 0.54178 0.99488 0.641 0.0
C1656 C 0.54482 0.01288 0.64912 0.0
C1657 C 0.56059 0.02041 0.64988 0.0
C1658 C 0.56341 0.03732 0.65767 0.0
C1659 C 0.55052 0.0469 0.66463 0.0
C1660 C 0.53479 0.03959 0.66378 0.0
C1661 C 0.53191 0.02267 0.65603 0.0
H1662 H 0.55272 0.05999 0.67066 0.0
H1663 H 0.53011 0.89787 0.58889 0.0
H1664 H 0.80591 0.22298 0.77428 0.0
H1665 H 0.82662 0.22007 0.79543 0.0
H1666 H 0.86275 0.21436 0.75548 0.0
H1667 H 0.84187 0.21636 0.73442 0.0
H1668 H 0.86979 0.19467 0.77835 0.0
H1669 H 0.85575 0.25421 0.77986 0.0
H1670 H 0.83746 0.27863 0.78267 0.0
H1671 H 0.82445 0.26797 0.83327 0.0
H1672 H 0.84251 0.24331 0.83066 0.0
H1673 H 0.94061 0.22626 0.82349 0.0
H1674 H 0.91737 0.22294 0.80461 0.0
H1675 H 0.88522 0.22028 0.84772 0.0
H1676 H 0.90846 0.22361 0.86672 0.0
H1677 H 0.87516 0.2428 0.8249 0.0
H1678 H 0.89204 0.18416 0.82312 0.0
H1679 H 0.91155 0.16089 0.81933 0.0
H1680 H 0.92075 0.17148 0.76794 0.0
H1681 H 0.90146 0.195 0.7715 0.0
C1682 C 0.81821 0.22064 0.77007 0.0
C1683 C 0.82238 0.22013 0.75279 0.0
C1684 C 0.83009 0.21921 0.78214 0.0
C1685 C 0.84641 0.21747 0.77716 0.0
C1686 C 0.85033 0.21586 0.75975 0.0
C1687 C 0.83844 0.21711 0.74771 0.0
C1688 C 0.85954 0.21823 0.78996 0.0
C1689 C 0.87099 0.20528 0.78844 0.0
C1690 C 0.86112 0.23192 0.80335 0.0
C1691 C 0.85034 0.2468 0.80499 0.0
C1692 C 0.8489 0.257 0.79154 0.0
C1693 C 0.83859 0.27089 0.7931 0.0
C1694 C 0.82976 0.27482 0.80812 0.0
C1695 C 0.83127 0.26489 0.82163 0.0
C1696 C 0.84154 0.25096 0.82012 0.0
C1697 C 0.92859 0.22502 0.82898 0.0
C1698 C 0.92641 0.2252 0.84664 0.0
C1699 C 0.91532 0.22301 0.81815 0.0
C1700 C 0.89953 0.22124 0.82472 0.0
C1701 C 0.89728 0.22156 0.84235 0.0
C1702 C 0.91058 0.22337 0.85318 0.0
C1703 C 0.8854 0.21933 0.81317 0.0
C1704 C 0.87382 0.23211 0.81491 0.0
C1705 C 0.88386 0.20564 0.79983 0.0
C1706 C 0.8954 0.19144 0.79762 0.0
C1707 C 0.89831 0.18162 0.81105 0.0
C1708 C 0.90932 0.16837 0.80894 0.0
C1709 C 0.91741 0.16474 0.79342 0.0
C1710 C 0.91448 0.17432 0.77996 0.0
C1711 C 0.9035 0.1876 0.78201 0.0
H1712 H 0.92593 0.15447 0.79181 0.0
H1713 H 0.82178 0.28558 0.80931 0.0
H1714 H 0.49916 0.95502 0.54328 0.0
H1715 H 0.50689 0.92727 0.52775 0.0
H1716 H 0.46383 0.90206 0.54668 0.0
H1717 H 0.45625 0.92979 0.56215 0.0
H1718 H 0.48989 0.88047 0.54414 0.0
H1719 H 0.46281 0.9174 0.50946 0.0
H1720 H 0.45912 0.94454 0.49672 0.0
H1721 H 0.50571 0.94021 0.47231 0.0
H1722 H 0.50975 0.91313 0.48508 0.0
H1723 H 0.47402 0.81005 0.4806 0.0
H1724 H 0.47302 0.83617 0.50083 0.0
H1725 H 0.51355 0.85919 0.47516 0.0
H1726 H 0.51456 0.83312 0.45483 0.0
H1727 H 0.49127 0.88213 0.48177 0.0
H1728 H 0.51729 0.84346 0.51437 0.0
H1729 H 0.52078 0.8163 0.52712 0.0
H1730 H 0.47649 0.82369 0.5555 0.0
H1731 H 0.47261 0.85078 0.54274 0.0
C1732 C 0.49172 0.94337 0.54454 0.0
C1733 C 0.47715 0.94439 0.55383 0.0
C1734 C 0.49602 0.92759 0.53558 0.0
C1735 C 0.4858 0.91263 0.53583 0.0
C1736 C 0.4719 0.9134 0.54626 0.0
C1737 C 0.46758 0.92918 0.55511 0.0
C1738 C 0.48857 0.89672 0.52396 0.0
C1739 C 0.49012 0.88079 0.5305 0.0
C1740 C 0.48912 0.89716 0.50615 0.0
C1741 C 0.48666 0.91336 0.49837 0.0
C1742 C 0.47231 0.92231 0.50148 0.0
C1743 C 0.47015 0.93766 0.49424 0.0
C1744 C 0.4822 0.94413 0.48377 0.0
C1745 C 0.49641 0.93521 0.48046 0.0
C1746 C 0.49863 0.91985 0.48768 0.0
C1747 C 0.48284 0.82059 0.47936 0.0
C1748 C 0.49438 0.81943 0.46606 0.0
C1749 C 0.48227 0.83554 0.49097 0.0
C1750 C 0.49335 0.84964 0.48972 0.0
C1751 C 0.50486 0.84853 0.47644 0.0
C1752 C 0.50539 0.83361 0.46477 0.0
C1753 C 0.49258 0.86574 0.50189 0.0
C1754 C 0.49129 0.88175 0.4954 0.0
C1755 C 0.49227 0.86533 0.51973 0.0
C1756 C 0.49459 0.84908 0.52748 0.0
C1757 C 0.50823 0.83923 0.52324 0.0
C1758 C 0.51029 0.82385 0.53048 0.0
C1759 C 0.49885 0.81825 0.54209 0.0
C1760 C 0.48534 0.82803 0.5465 0.0
C1761 C 0.48321 0.84341 0.53928 0.0
H1762 H 0.50047 0.80634 0.54768 0.0
H1763 H 0.4805 0.95602 0.47818 0.0
H1764 H 0.19637 0.28046 0.77855 0.0
H1765 H 0.1733 0.2746 0.79716 0.0
H1766 H 0.14098 0.27595 0.75532 0.0
H1767 H 0.16402 0.28298 0.73708 0.0
H1768 H 0.1279 0.29168 0.78185 0.0
H1769 H 0.15239 0.2369 0.77061 0.0
H1770 H 0.17441 0.21637 0.76895 0.0
H1771 H 0.18098 0.22661 0.82275 0.0
H1772 H 0.15915 0.2474 0.8247 0.0
H1773 H 0.06067 0.24854 0.82025 0.0
H1774 H 0.08352 0.25484 0.80162 0.0
H1775 H 0.11447 0.26514 0.84494 0.0
H1776 H 0.09162 0.25964 0.86378 0.0
H1777 H 0.12779 0.24301 0.81753 0.0
H1778 H 0.10244 0.29814 0.82772 0.0
H1779 H 0.07959 0.31752 0.82833 0.0
H1780 H 0.07359 0.30467 0.7747 0.0
H1781 H 0.09628 0.28501 0.77381 0.0
C1782 C 0.18431 0.27969 0.77344 0.0
C1783 C 0.18196 0.28213 0.75639 0.0
C1784 C 0.17113 0.27611 0.784 0.0
C1785 C 0.15534 0.27448 0.77762 0.0
C1786 C 0.153 0.27705 0.76058 0.0
C1787 C 0.16616 0.2809 0.75011 0.0
C1788 C 0.14126 0.27032 0.78872 0.0
C1789 C 0.12783 0.28087 0.78944 0.0
C1790 C 0.14114 0.25637 0.79889 0.0
C1791 C 0.15424 0.24383 0.79778 0.0
C1792 C 0.15861 0.23487 0.78207 0.0
C1793 C 0.17105 0.22317 0.78108 0.0
C1794 C 0.17912 0.22022 0.79573 0.0
C1795 C 0.17474 0.22893 0.81141 0.0
C1796 C 0.16232 0.24066 0.81247 0.0
C1797 C 0.07225 0.25238 0.82591 0.0
C1798 C 0.07418 0.25358 0.84362 0.0
C1799 C 0.08534 0.25586 0.81519 0.0
C1800 C 0.10069 0.26049 0.8219 0.0
C1801 C 0.10275 0.2615 0.83949 0.0
C1802 C 0.08964 0.25823 0.85024 0.0
C1803 C 0.11459 0.26436 0.81059 0.0
C1804 C 0.12793 0.25377 0.80986 0.0
C1805 C 0.11453 0.27808 0.80023 0.0
C1806 C 0.10095 0.28996 0.80073 0.0
C1807 C 0.09616 0.29933 0.81608 0.0
C1808 C 0.08325 0.31039 0.81647 0.0
C1809 C 0.07511 0.31229 0.80157 0.0
C1810 C 0.07989 0.30317 0.78623 0.0
C1811 C 0.09278 0.29207 0.78578 0.0
H1812 H 0.06512 0.32086 0.8019 0.0
H1813 H 0.18874 0.21116 0.79494 0.0
H1814 H 0.56437 0.57166 0.54715 0.0
H1815 H 0.56291 0.59355 0.52708 0.0
H1816 H 0.52932 0.55968 0.49681 0.0
H1817 H 0.53079 0.53796 0.51702 0.0
H1818 H 0.55074 0.57862 0.47696 0.0
H1819 H 0.51408 0.58944 0.52498 0.0
H1820 H 0.50668 0.59447 0.55537 0.0
H1821 H 0.54009 0.6386 0.56154 0.0
H1822 H 0.54766 0.63384 0.53118 0.0
H1823 H 0.50905 0.63984 0.43525 0.0
H1824 H 0.51654 0.61669 0.4518 0.0
H1825 H 0.5445 0.65392 0.48504 0.0
H1826 H 0.53655 0.6772 0.46901 0.0
H1827 H 0.52756 0.63334 0.50315 0.0
H1828 H 0.56245 0.62454 0.45465 0.0
H1829 H 0.56966 0.62009 0.42423 0.0
H1830 H 0.54066 0.57255 0.41874 0.0
H1831 H 0.53308 0.57685 0.44911 0.0
C1832 C 0.55724 0.5687 0.53582 0.0
C1833 C 0.54786 0.55314 0.53342 0.0
C1834 C 0.55622 0.58124 0.52448 0.0
C1835 C 0.54582 0.57836 0.51054 0.0
C1836 C 0.53743 0.56221 0.50744 0.0
C1837 C 0.53834 0.54976 0.51887 0.0
C1838 C 0.54246 0.59269 0.50019 0.0
C1839 C 0.54557 0.59055 0.48264 0.0
C1840 C 0.53598 0.60839 0.50762 0.0
C1841 C 0.53156 0.61117 0.52588 0.0
C1842 C 0.51993 0.60014 0.53286 0.0
C1843 C 0.51568 0.60297 0.55005 0.0
C1844 C 0.52298 0.61678 0.56039 0.0
C1845 C 0.53448 0.62787 0.55353 0.0
C1846 C 0.53872 0.62514 0.53632 0.0
C1847 C 0.51669 0.64315 0.44616 0.0
C1848 C 0.52221 0.66045 0.45071 0.0
C1849 C 0.52114 0.62983 0.45551 0.0
C1850 C 0.53131 0.63345 0.46958 0.0
C1851 C 0.53673 0.65072 0.47421 0.0
C1852 C 0.53227 0.66403 0.46491 0.0
C1853 C 0.53587 0.61939 0.47982 0.0
C1854 C 0.53289 0.62153 0.4974 0.0
C1855 C 0.54255 0.60375 0.47239 0.0
C1856 C 0.54707 0.60111 0.45412 0.0
C1857 C 0.5575 0.61321 0.44693 0.0
C1858 C 0.56167 0.6107 0.4297 0.0
C1859 C 0.55558 0.59607 0.41955 0.0
C1860 C 0.54534 0.58389 0.42662 0.0
C1861 C 0.54112 0.58635 0.44384 0.0
H1862 H 0.55883 0.59414 0.40621 0.0
H1863 H 0.51968 0.61893 0.57371 0.0
H1864 H 0.84312 0.81536 0.80895 0.0
H1865 H 0.86791 0.81037 0.79187 0.0
H1866 H 0.84353 0.76756 0.76192 0.0
H1867 H 0.81862 0.77297 0.7788 0.0
H1868 H 0.8798 0.76419 0.77157 0.0
H1869 H 0.84318 0.79864 0.74246 0.0
H1870 H 0.8251 0.82288 0.74103 0.0
H1871 H 0.86297 0.85931 0.75954 0.0
H1872 H 0.88132 0.83526 0.76089 0.0
H1873 H 0.92938 0.75794 0.6971 0.0
H1874 H 0.90703 0.75891 0.71771 0.0
H1875 H 0.9208 0.81218 0.73498 0.0
H1876 H 0.94291 0.81138 0.71401 0.0
H1877 H 0.89005 0.80978 0.73293 0.0
H1878 H 0.9281 0.77623 0.75815 0.0
H1879 H 0.94673 0.75253 0.75959 0.0
H1880 H 0.90743 0.71483 0.75042 0.0
H1881 H 0.88858 0.73831 0.7487 0.0
C1882 C 0.84334 0.80444 0.79919 0.0
C1883 C 0.82915 0.79431 0.79535 0.0
C1884 C 0.8574 0.80171 0.78933 0.0
C1885 C 0.85755 0.78862 0.77558 0.0
C1886 C 0.84371 0.77764 0.77253 0.0
C1887 C 0.82956 0.7806 0.78224 0.0
C1888 C 0.87146 0.78772 0.76339 0.0
C1889 C 0.882 0.77402 0.76297 0.0
C1890 C 0.87455 0.80077 0.7525 0.0
C1891 C 0.86353 0.81519 0.75192 0.0
C1892 C 0.8476 0.81182 0.74631 0.0
C1893 C 0.83735 0.82552 0.74542 0.0
C1894 C 0.84286 0.84262 0.75026 0.0
C1895 C 0.8587 0.84606 0.75584 0.0
C1896 C 0.86905 0.83242 0.75659 0.0
C1897 C 0.9277 0.76984 0.70536 0.0
C1898 C 0.93799 0.78457 0.70392 0.0
C1899 C 0.91493 0.77036 0.71723 0.0
C1900 C 0.9123 0.78552 0.72823 0.0
C1901 C 0.92251 0.80029 0.72671 0.0
C1902 C 0.93515 0.79985 0.71468 0.0
C1903 C 0.89865 0.78617 0.74094 0.0
C1904 C 0.88805 0.79989 0.7415 0.0
C1905 C 0.89567 0.77318 0.75206 0.0
C1906 C 0.90696 0.75903 0.75314 0.0
C1907 C 0.92345 0.76288 0.75632 0.0
C1908 C 0.93405 0.74949 0.7572 0.0
C1909 C 0.92828 0.73219 0.75505 0.0
C1910 C 0.91188 0.72824 0.75206 0.0
C1911 C 0.90123 0.74159 0.75114 0.0
H1912 H 0.9365 0.72183 0.75574 0.0
H1913 H 0.83487 0.85319 0.74966 0.0
H1914 H 0.04813 0.97899 0.51893 0.0
H1915 H 0.04681 0.95822 0.54024 0.0
H1916 H 0.06339 0.91823 0.50249 0.0
H1917 H 0.06422 0.93899 0.48126 0.0
H1918 H 0.03711 0.90706 0.51674 0.0
H1919 H 0.08643 0.93503 0.5383 0.0
H1920 H 0.10455 0.95959 0.54912 0.0
H1921 H 0.0718 0.97231 0.59082 0.0
H1922 H 0.05336 0.94781 0.58013 0.0
H1923 H 0.04188 0.83968 0.5688 0.0
H1924 H 0.04909 0.86258 0.55087 0.0
H1925 H 0.03105 0.90092 0.58937 0.0
H1926 H 0.02406 0.87798 0.60756 0.0
H1927 H 0.05797 0.9134 0.57539 0.0
H1928 H 0.00865 0.88539 0.55367 0.0
H1929 H 0.99066 0.86058 0.54285 0.0
H1930 H 0.02349 0.84822 0.50114 0.0
H1931 H 0.04179 0.87282 0.51185 0.0
C1932 C 0.0521 0.96593 0.51548 0.0
C1933 C 0.0565 0.96057 0.4986 0.0
C1934 C 0.05126 0.95401 0.52759 0.0
C1935 C 0.05498 0.93654 0.52305 0.0
C1936 C 0.06039 0.93155 0.50637 0.0
C1937 C 0.06108 0.94343 0.49428 0.0
C1938 C 0.05172 0.9231 0.535 0.0
C1939 C 0.04194 0.90836 0.52946 0.0
C1940 C 0.05746 0.92495 0.55186 0.0
C1941 C 0.06846 0.9397 0.55832 0.0
C1942 C 0.08303 0.94314 0.5497 0.0
C1943 C 0.09337 0.95705 0.55584 0.0
C1944 C 0.08932 0.96757 0.57063 0.0
C1945 C 0.07492 0.96416 0.57935 0.0
C1946 C 0.06452 0.95025 0.57327 0.0
C1947 C 0.0394 0.85298 0.57345 0.0
C1948 C 0.03219 0.85695 0.58954 0.0
C1949 C 0.04353 0.86609 0.56317 0.0
C1950 C 0.04032 0.88351 0.56855 0.0
C1951 C 0.03361 0.8876 0.58485 0.0
C1952 C 0.02961 0.87447 0.59526 0.0
C1953 C 0.0436 0.89729 0.55698 0.0
C1954 C 0.05324 0.91212 0.56263 0.0
C1955 C 0.03771 0.89556 0.54019 0.0
C1956 C 0.02665 0.88086 0.53365 0.0
C1957 C 0.01208 0.87731 0.54225 0.0
C1958 C 1.00182 0.8633 0.53613 0.0
C1959 C 0.00595 0.85281 0.52134 0.0
C1960 C 0.02032 0.85635 0.51261 0.0
C1961 C 0.03063 0.87033 0.51869 0.0
H1962 H 0.998 0.84196 0.51663 0.0
H1963 H 0.09737 0.97833 0.57537 0.0
H1964 H 0.20206 0.72649 0.75449 0.0
H1965 H 0.18047 0.73373 0.73592 0.0
H1966 H 0.14468 0.71868 0.77237 0.0
H1967 H 0.16632 0.71145 0.79084 0.0
H1968 H 0.13665 0.70659 0.73899 0.0
H1969 H 0.15437 0.76022 0.77122 0.0
H1970 H 0.17459 0.78289 0.78194 0.0
H1971 H 0.18647 0.79305 0.73094 0.0
H1972 H 0.16648 0.77022 0.71989 0.0
H1973 H 0.0679 0.74479 0.71066 0.0
H1974 H 0.09004 0.73652 0.72738 0.0
H1975 H 0.12443 0.75983 0.69421 0.0
H1976 H 0.10228 0.76926 0.67807 0.0
H1977 H 0.13392 0.76722 0.72509 0.0
H1978 H 0.11629 0.71433 0.69246 0.0
H1979 H 0.09676 0.69119 0.68114 0.0
H1980 H 0.08548 0.67903 0.73167 0.0
H1981 H 0.1048 0.70226 0.74331 0.0
C1982 C 0.18956 0.72458 0.75834 0.0
C1983 C 0.18575 0.71848 0.77401 0.0
C1984 C 0.17726 0.72878 0.74783 0.0
C1985 C 0.16095 0.72689 0.75283 0.0
C1986 C 0.15716 0.72026 0.76826 0.0
C1987 C 0.16946 0.7162 0.77881 0.0
C1988 C 0.14785 0.73229 0.74224 0.0
C1989 C 0.13594 0.71988 0.73607 0.0
C1990 C 0.14716 0.74953 0.73809 0.0
C1991 C 0.15905 0.76339 0.74472 0.0
C1992 C 0.16138 0.76719 0.76228 0.0
C1993 C 0.17279 0.78008 0.76842 0.0
C1994 C 0.18184 0.78938 0.75713 0.0
C1995 C 0.17946 0.78583 0.73967 0.0
C1996 C 0.1681 0.77292 0.73346 0.0
C1997 C 0.08013 0.74845 0.70701 0.0
C1998 C 0.08319 0.75773 0.6929 0.0
C1999 C 0.09285 0.74343 0.71648 0.0
C2000 C 0.10899 0.74721 0.71191 0.0
C2001 C 0.11211 0.75663 0.69797 0.0
C2002 C 0.09938 0.76186 0.68861 0.0
C2003 C 0.12259 0.74152 0.72177 0.0
C2004 C 0.13461 0.75389 0.72786 0.0
C2005 C 0.12346 0.72418 0.72573 0.0
C2006 C 0.11189 0.71014 0.71876 0.0
C2007 C 0.10957 0.7068 0.70116 0.0
C2008 C 0.09855 0.69366 0.69469 0.0
C2009 C 0.08986 0.68367 0.70568 0.0
C2010 C 0.09221 0.68679 0.72317 0.0
C2011 C 0.1032 0.69993 0.72971 0.0
H2012 H 0.08133 0.67351 0.70065 0.0
H2013 H 0.19066 0.79936 0.7619 0.0
H2014 H 0.96396 0.59169 0.47095 0.0
H2015 H 0.97291 0.61885 0.48766 0.0
H2016 H 0.00504 0.59034 0.51541 0.0
H2017 H 0.9955 0.56318 0.49897 0.0
H2018 H 0.98781 0.60935 0.53666 0.0
H2019 H 0.01883 0.62085 0.48772 0.0
H2020 H 0.02421 0.62371 0.45746 0.0
H2021 H 0.99026 0.66414 0.4591 0.0
H2022 H 0.98448 0.66135 0.48933 0.0
H2023 H 0.02123 0.68559 0.58436 0.0
H2024 H 0.01888 0.65979 0.56355 0.0
H2025 H 0.97931 0.68189 0.54008 0.0
H2026 H 0.98158 0.70773 0.56089 0.0
H2027 H 1.00247 0.66637 0.51646 0.0
H2028 H 0.97051 0.65275 0.56518 0.0
H2029 H 0.96582 0.64976 0.59553 0.0
H2030 H 1.00315 0.6129 0.59399 0.0
H2031 H 0.00822 0.61587 0.56366 0.0
C2032 C 0.97336 0.59146 0.48021 0.0
C2033 C 0.97931 0.57557 0.48357 0.0
C2034 C 0.97847 0.60692 0.4898 0.0
C2035 C 0.98977 0.60675 0.5028 0.0
C2036 C 0.99633 0.59087 0.50548 0.0
C2037 C 0.99107 0.57541 0.496 0.0
C2038 C 0.99341 0.62271 0.51467 0.0
C2039 C 0.99136 0.62171 0.53218 0.0
C2040 C 0.99766 0.63901 0.50894 0.0
C2041 C 1.00113 0.64079 0.49077 0.0
C2042 C 0.01242 0.63026 0.4816 0.0
C2043 C 0.01555 0.63189 0.46446 0.0
C2044 C 0.00756 0.64408 0.45635 0.0
C2045 C 0.99643 0.6547 0.46539 0.0
C2046 C 0.99324 0.65311 0.48254 0.0
C2047 C 0.01211 0.68501 0.57469 0.0
C2048 C 1.00154 0.69866 0.5743 0.0
C2049 C 0.01075 0.67025 0.56284 0.0
C2050 C 0.99889 0.66891 0.55029 0.0
C2051 C 0.98856 0.68267 0.54964 0.0
C2052 C 0.98978 0.69735 0.56161 0.0
C2053 C 0.99686 0.65287 0.53826 0.0
C2054 C 0.99913 0.6539 0.5208 0.0
C2055 C 0.99296 0.63654 0.544 0.0
C2056 C 0.98987 0.63468 0.56221 0.0
C2057 C 0.97782 0.64412 0.57135 0.0
C2058 C 0.97507 0.64241 0.58854 0.0
C2059 C 0.98421 0.63119 0.5967 0.0
C2060 C 0.99609 0.62162 0.58766 0.0
C2061 C 0.9989 0.6233 0.57047 0.0
H2062 H 0.98207 0.62988 0.61001 0.0
H2063 H 0.01 0.64531 0.44308 0.0
H2064 H 0.71486 0.83306 0.23123 0.0
H2065 H 0.73634 0.85574 0.2315 0.0
H2066 H 0.77199 0.81728 0.23456 0.0
H2067 H 0.75023 0.79473 0.23528 0.0
H2068 H 0.77849 0.84324 0.25695 0.0
H2069 H 0.76708 0.83891 0.19834 0.0
H2070 H 0.75031 0.83741 0.17283 0.0
H2071 H 0.73463 0.8889 0.18806 0.0
H2072 H 0.75098 0.8906 0.21388 0.0
H2073 H 0.84172 0.90882 0.24861 0.0
H2074 H 0.82389 0.8831 0.24184 0.0
H2075 H 0.7823 0.91455 0.25018 0.0
H2076 H 0.79987 0.94019 0.25782 0.0
H2077 H 0.78154 0.8904 0.2194 0.0
H2078 H 0.7911 0.89204 0.2798 0.0
H2079 H 0.80836 0.89285 0.30488 0.0
H2080 H 0.82901 0.84505 0.28434 0.0
H2081 H 0.81202 0.84409 0.259 0.0
C2082 C 0.72729 0.82949 0.23186 0.0
C2083 C 0.73092 0.81225 0.23346 0.0
C2084 C 0.73961 0.84241 0.23182 0.0
C2085 C 0.75589 0.83829 0.23295 0.0
C2086 C 0.75956 0.82085 0.23372 0.0
C2087 C 0.74717 0.80794 0.23396 0.0
C2088 C 0.76884 0.85239 0.23465 0.0
C2089 C 0.77935 0.85331 0.24847 0.0
C2090 C 0.76995 0.86574 0.22377 0.0
C2091 C 0.7602 0.86484 0.20814 0.0
C2092 C 0.75997 0.84988 0.19633 0.0
C2093 C 0.75055 0.84899 0.1818 0.0
C2094 C 0.74143 0.86304 0.17883 0.0
C2095 C 0.74171 0.87803 0.19038 0.0
C2096 C 0.75106 0.87896 0.20496 0.0
C2097 C 0.82879 0.91032 0.24926 0.0
C2098 C 0.82235 0.92675 0.25386 0.0
C2099 C 0.81861 0.89558 0.24521 0.0
C2100 C 0.80177 0.89692 0.24546 0.0
C2101 C 0.79527 0.91325 0.24975 0.0
C2102 C 0.80541 0.92795 0.25405 0.0
C2103 C 0.79083 0.88126 0.24178 0.0
C2104 C 0.78076 0.88011 0.22763 0.0
C2105 C 0.79027 0.86756 0.25218 0.0
C2106 C 0.80044 0.86811 0.26742 0.0
C2107 C 0.79943 0.88179 0.28056 0.0
C2108 C 0.80914 0.88226 0.29483 0.0
C2109 C 0.81981 0.86904 0.29618 0.0
C2110 C 0.82076 0.8553 0.28327 0.0
C2111 C 0.81109 0.85478 0.26895 0.0
H2112 H 0.82732 0.86942 0.30725 0.0
H2113 H 0.73415 0.86233 0.16757 0.0
H2114 H 0.71593 0.17404 0.30089 0.0
H2115 H 0.73654 0.15278 0.30348 0.0
H2116 H 0.77391 0.19316 0.30157 0.0
H2117 H 0.75315 0.21435 0.29866 0.0
H2118 H 0.7803 0.16495 0.27966 0.0
H2119 H 0.76545 0.17554 0.33798 0.0
H2120 H 0.74674 0.17873 0.36257 0.0
H2121 H 0.73065 0.12527 0.35227 0.0
H2122 H 0.74894 0.12183 0.32733 0.0
H2123 H 0.84195 0.10721 0.29397 0.0
H2124 H 0.82414 0.13173 0.2979 0.0
H2125 H 0.7827 0.09619 0.29924 0.0
H2126 H 0.80045 0.07162 0.2957 0.0
H2127 H 0.78022 0.12393 0.32343 0.0
H2128 H 0.79263 0.11462 0.26353 0.0
H2129 H 0.8106 0.11149 0.23832 0.0
H2130 H 0.83114 0.16289 0.25182 0.0
H2131 H 0.81344 0.16623 0.27726 0.0
C2132 C 0.72855 0.17833 0.30123 0.0
C2133 C 0.73303 0.19573 0.29955 0.0
C2134 C 0.74031 0.16625 0.30279 0.0
C2135 C 0.75681 0.17135 0.30279 0.0
C2136 C 0.76127 0.1889 0.3016 0.0
C2137 C 0.74946 0.20101 0.30009 0.0
C2138 C 0.76932 0.15814 0.30299 0.0
C2139 C 0.78049 0.15622 0.28944 0.0
C2140 C 0.76938 0.14649 0.31554 0.0
C2141 C 0.7585 0.14845 0.33068 0.0
C2142 C 0.75784 0.16448 0.34086 0.0
C2143 C 0.74732 0.16634 0.35488 0.0
C2144 C 0.73753 0.15222 0.35898 0.0
C2145 C 0.73824 0.1362 0.34907 0.0
C2146 C 0.74868 0.13428 0.33499 0.0
C2147 C 0.82907 0.1046 0.2953 0.0
C2148 C 0.82265 0.0874 0.29443 0.0
C2149 C 0.81888 0.11865 0.29743 0.0
C2150 C 0.80204 0.11583 0.29871 0.0
C2151 C 0.79563 0.09871 0.29826 0.0
C2152 C 0.8058 0.08466 0.29607 0.0
C2153 C 0.79104 0.13065 0.3 0.0
C2154 C 0.78015 0.13283 0.3138 0.0
C2155 C 0.79122 0.14257 0.28769 0.0
C2156 C 0.80185 0.14059 0.2724 0.0
C2157 C 0.80108 0.1252 0.2612 0.0
C2158 C 0.81119 0.1234 0.24686 0.0
C2159 C 0.82204 0.13696 0.2435 0.0
C2160 C 0.82276 0.15238 0.25446 0.0
C2161 C 0.81268 0.15424 0.26883 0.0
H2162 H 0.82986 0.13554 0.23239 0.0
H2163 H 0.72941 0.15369 0.36985 0.0
H2164 H 0.4519 0.00944 0.98444 0.0
H2165 H 0.42836 0.99076 0.99084 0.0
H2166 H 0.39673 0.02812 0.97421 0.0
H2167 H 0.42037 0.04696 0.9684 0.0
H2168 H 0.38482 0.01753 1.00173 0.0
H2169 H 0.40514 0.98853 0.94986 0.0
H2170 H 0.42559 0.97485 0.93037 0.0
H2171 H 0.43219 0.93637 0.96432 0.0
H2172 H 0.41195 0.94998 0.98416 0.0
H2173 H 0.31425 0.96076 0.99376 0.0
H2174 H 0.33773 0.97928 0.98747 0.0
H2175 H 0.36854 0.94716 0.01264 0.0
H2176 H 0.34509 0.9289 0.0196 0.0
H2177 H 0.38056 0.95485 0.98059 0.0
H2178 H 0.35961 0.98479 0.03233 0.0
H2179 H 0.33854 0.99869 0.05083 0.0
H2180 H 0.33223 0.03563 0.01523 0.0
H2181 H 0.35311 0.02179 0.99639 0.0
C2182 C 0.43988 0.0135 0.98208 0.0
C2183 C 0.43782 0.02949 0.97589 0.0
C2184 C 0.42645 1.00285 0.98567 0.0
C2185 C 0.4107 0.00787 0.98278 0.0
C2186 C 0.40871 0.02392 0.97655 0.0
C2187 C 0.42215 0.03464 0.97318 0.0
C2188 C 0.39631 0.99659 0.98657 0.0
C2189 C 0.38383 0.00388 0.99687 0.0
C2190 C 0.39504 0.97868 0.98053 0.0
C2191 C 0.40714 0.97038 0.96857 0.0
C2192 C 0.41104 0.97723 0.95323 0.0
C2193 C 0.42258 0.96948 0.94212 0.0
C2194 C 0.43021 0.95478 0.94613 0.0
C2195 C 0.42628 0.94777 0.96125 0.0
C2196 C 0.41477 0.95549 0.97242 0.0
C2197 C 0.32595 0.95773 0.99824 0.0
C2198 C 0.32767 0.94327 0.00726 0.0
C2199 C 0.3394 0.96831 0.99451 0.0
C2200 C 0.35488 0.96463 0.99962 0.0
C2201 C 0.35671 0.95018 0.0085 0.0
C2202 C 0.34326 0.9397 0.01239 0.0
C2203 C 0.36918 0.97584 0.99569 0.0
C2204 C 0.38162 0.96851 0.98537 0.0
C2205 C 0.37032 0.99376 1.00153 0.0
C2206 C 0.35781 1.00214 0.01287 0.0
C2207 C 0.35363 0.99578 0.02838 0.0
C2208 C 0.34174 0.00367 0.03894 0.0
C2209 C 0.33402 0.018 0.03419 0.0
C2210 C 0.3382 0.02451 0.01888 0.0
C2211 C 0.35008 0.01666 0.00827 0.0
H2212 H 0.32481 0.02409 0.04239 0.0
H2213 H 0.43915 0.9488 0.9375 0.0
H2214 H 0.27263 0.31775 0.27516 0.0
H2215 H 0.25362 0.34019 0.27073 0.0
H2216 H 0.26238 0.36464 0.32147 0.0
H2217 H 0.28145 0.34218 0.3258 0.0
H2218 H 0.23023 0.36349 0.31376 0.0
H2219 H 0.28049 0.38066 0.28787 0.0
H2220 H 0.30412 0.37599 0.26878 0.0
H2221 H 0.2729 0.36772 0.22578 0.0
H2222 H 0.24905 0.37203 0.24466 0.0
H2223 H 0.1972 0.44474 0.30578 0.0
H2224 H 0.21529 0.42172 0.31014 0.0
H2225 H 0.20946 0.40014 0.25801 0.0
H2226 H 0.19198 0.42368 0.25329 0.0
H2227 H 0.23999 0.39945 0.26628 0.0
H2228 H 0.1898 0.38193 0.2916 0.0
H2229 H 0.16582 0.38521 0.31041 0.0
H2230 H 0.19635 0.39315 0.35396 0.0
H2231 H 0.22054 0.39016 0.33539 0.0
C2232 C 0.27044 0.32794 0.28532 0.0
C2233 C 0.27851 0.32836 0.30077 0.0
C2234 C 0.25961 0.34074 0.28281 0.0
C2235 C 0.25671 0.35424 0.2957 0.0
C2236 C 0.26443 0.35436 0.31134 0.0
C2237 C 0.27528 0.34157 0.31383 0.0
C2238 C 0.24592 0.36845 0.29274 0.0
C2239 C 0.23247 0.3715 0.30351 0.0
C2240 C 0.24862 0.37864 0.27912 0.0
C2241 C 0.26297 0.37651 0.2677 0.0
C2242 C 0.27866 0.37775 0.27435 0.0
C2243 C 0.29209 0.37516 0.26357 0.0
C2244 C 0.29001 0.37152 0.24608 0.0
C2245 C 0.27449 0.37052 0.23933 0.0
C2246 C 0.26101 0.37304 0.25007 0.0
C2247 C 0.19988 0.43524 0.29515 0.0
C2248 C 0.19303 0.43613 0.27917 0.0
C2249 C 0.21011 0.42191 0.29773 0.0
C2250 C 0.21358 0.40897 0.28449 0.0
C2251 C 0.20692 0.4099 0.26847 0.0
C2252 C 0.19676 0.42329 0.26584 0.0
C2253 C 0.22423 0.39455 0.28732 0.0
C2254 C 0.2377 0.39145 0.27652 0.0
C2255 C 0.2215 0.38424 0.30088 0.0
C2256 C 0.20698 0.38599 0.31209 0.0
C2257 C 0.19141 0.38451 0.30518 0.0
C2258 C 0.17778 0.38629 0.3158 0.0
C2259 C 0.17956 0.38943 0.33336 0.0
C2260 C 0.19499 0.39074 0.34035 0.0
C2261 C 0.20866 0.38899 0.32978 0.0
H2262 H 0.169 0.3908 0.34157 0.0
H2263 H 0.30042 0.36949 0.23776 0.0
H2264 H 0.08926 0.97237 0.48163 0.0
H2265 H 0.1151 0.98887 0.48699 0.0
H2266 H 0.08909 0.03484 0.50355 0.0
H2267 H 0.06343 0.01828 0.4983 0.0
H2268 H 0.11031 0.04019 0.47799 0.0
H2269 H 0.11174 0.01639 0.53133 0.0
H2270 H 0.11177 0.99391 0.55098 0.0
H2271 H 0.15343 0.972 0.52525 0.0
H2272 H 0.15359 0.99432 0.50535 0.0
H2273 H 0.17532 0.09955 0.50122 0.0
H2274 H 0.15096 0.0807 0.50122 0.0
H2275 H 0.17959 0.03575 0.48918 0.0
H2276 H 0.20416 0.05449 0.49 0.0
H2277 H 0.15751 0.02902 0.51208 0.0
H2278 H 0.15649 0.05233 0.45887 0.0
H2279 H 0.15744 0.07516 0.43952 0.0
H2280 H 0.11526 0.09721 0.46401 0.0
H2281 H 0.11419 0.07464 0.48368 0.0
C2282 C 0.08915 0.98582 0.48705 0.0
C2283 C 0.07444 0.99411 0.48957 0.0
C2284 C 0.10389 0.99528 0.49001 0.0
C2285 C 0.10408 0.01319 0.49554 0.0
C2286 C 0.0893 0.02111 0.49918 0.0
C2287 C 0.07465 0.01164 0.49631 0.0
C2288 C 0.11943 0.0241 0.49579 0.0
C2289 C 0.12054 0.03788 0.48565 0.0
C2290 C 0.13304 0.02076 0.50526 0.0
C2291 C 0.13257 0.00692 0.51675 0.0
C2292 C 0.12078 0.00665 0.52972 0.0
C2293 C 0.12081 0.99397 0.54095 0.0
C2294 C 0.13259 0.98151 0.53935 0.0
C2295 C 0.14432 0.98166 0.52647 0.0
C2296 C 0.14437 0.99433 0.51523 0.0
C2297 C 0.17653 0.08565 0.49873 0.0
C2298 C 0.19183 0.07863 0.49558 0.0
C2299 C 0.1625 0.07485 0.49854 0.0
C2300 C 0.16332 0.05674 0.49495 0.0
C2301 C 0.17857 0.04966 0.49191 0.0
C2302 C 0.19263 0.06045 0.4922 0.0
C2303 C 0.1483 0.04524 0.49444 0.0
C2304 C 0.14728 0.03131 0.50442 0.0
C2305 C 0.13478 0.04832 0.48469 0.0
C2306 C 0.13536 0.06189 0.47285 0.0
C2307 C 0.14749 0.06212 0.46022 0.0
C2308 C 0.14804 0.075 0.44918 0.0
C2309 C 0.13644 0.08765 0.45056 0.0
C2310 C 0.12425 0.08742 0.46297 0.0
C2311 C 0.12366 0.07458 0.47406 0.0
H2312 H 0.13689 0.09761 0.442 0.0
H2313 H 0.13268 0.97179 0.54813 0.0
H2314 H 0.8035 0.18399 0.72892 0.0
H2315 H 0.78692 0.15816 0.7349 0.0
H2316 H 0.75617 0.19075 0.76801 0.0
H2317 H 0.77267 0.21644 0.76175 0.0
H2318 H 0.77621 0.14144 0.76176 0.0
H2319 H 0.71771 0.1787 0.76035 0.0
H2320 H 0.70755 0.20398 0.7481 0.0
H2321 H 0.74214 0.19697 0.70717 0.0
H2322 H 0.75255 0.17172 0.71922 0.0
H2323 H 0.70896 0.08724 0.7848 0.0
H2324 H 0.72906 0.11107 0.78282 0.0
H2325 H 0.71643 0.11319 0.73061 0.0
H2326 H 0.69631 0.08943 0.73252 0.0
H2327 H 0.71881 0.14465 0.74602 0.0
H2328 H 0.75187 0.09524 0.74199 0.0
H2329 H 0.76253 0.06852 0.75087 0.0
H2330 H 0.77974 0.09702 0.79701 0.0
H2331 H 0.76898 0.12388 0.7885 0.0
C2332 C 0.79353 0.18543 0.73793 0.0
C2333 C 0.78933 0.20204 0.74501 0.0
C2334 C 0.78401 0.17074 0.74128 0.0
C2335 C 0.7701 0.17252 0.75167 0.0
C2336 C 0.76668 0.18905 0.75976 0.0
C2337 C 0.77616 0.20368 0.75636 0.0
C2338 C 0.7584 0.15749 0.7528 0.0
C2339 C 0.76364 0.14216 0.75842 0.0
C2340 C 0.74206 0.15821 0.74804 0.0
C2341 C 0.73598 0.17344 0.74077 0.0
C2342 C 0.72314 0.18258 0.74874 0.0
C2343 C 0.71737 0.19692 0.74186 0.0
C2344 C 0.72425 0.20213 0.72691 0.0
C2345 C 0.73689 0.19299 0.7188 0.0
C2346 C 0.74278 0.17871 0.72569 0.0
C2347 C 0.71056 0.09266 0.77284 0.0
C2348 C 0.70098 0.08638 0.75881 0.0
C2349 C 0.72208 0.10631 0.77172 0.0
C2350 C 0.72441 0.11388 0.75651 0.0
C2351 C 0.71485 0.10764 0.74251 0.0
C2352 C 0.70329 0.09406 0.74364 0.0
C2353 C 0.7365 0.12858 0.75524 0.0
C2354 C 0.73133 0.1439 0.74953 0.0
C2355 C 0.75296 0.12765 0.75955 0.0
C2356 C 0.75948 0.11154 0.76468 0.0
C2357 C 0.75781 0.09579 0.75409 0.0
C2358 C 0.76389 0.08062 0.75905 0.0
C2359 C 0.77177 0.08106 0.77452 0.0
C2360 C 0.77362 0.09669 0.78504 0.0
C2361 C 0.76754 0.11189 0.78015 0.0
H2362 H 0.77647 0.06931 0.77834 0.0
H2363 H 0.71975 0.21322 0.72158 0.0
H2364 H 0.42326 0.97725 0.56109 0.0
H2365 H 0.40179 0.99578 0.55372 0.0
H2366 H 0.43773 0.03505 0.54246 0.0
H2367 H 0.45919 0.0164 0.54982 0.0
H2368 H 0.41227 0.04939 0.56002 0.0
H2369 H 0.41974 0.0086 0.51088 0.0
H2370 H 0.42195 0.97944 0.49533 0.0
H2371 H 0.37322 0.96591 0.50991 0.0
H2372 H 0.37082 0.9949 0.52582 0.0
H2373 H 0.35994 0.09878 0.51611 0.0
H2374 H 0.38196 0.08097 0.5231 0.0
H2375 H 0.34744 0.04003 0.53341 0.0
H2376 H 0.32539 0.0575 0.52586 0.0
H2377 H 0.37271 0.02683 0.51589 0.0
H2378 H 0.36544 0.06722 0.56563 0.0
H2379 H 0.36334 0.09614 0.58172 0.0
H2380 H 0.41163 0.11032 0.56619 0.0
H2381 H 0.41394 0.08154 0.5498 0.0
C2382 C 0.42651 0.98983 0.55701 0.0
C2383 C 0.44282 0.9954 0.55592 0.0
C2384 C 0.41428 1.00041 0.5528 0.0
C2385 C 0.41813 0.01675 0.54731 0.0
C2386 C 0.43444 0.02251 0.54664 0.0
C2387 C 0.44668 0.0119 0.55085 0.0
C2388 C 0.40516 0.02765 0.54203 0.0
C2389 C 0.40376 0.04455 0.5502 0.0
C2390 C 0.39383 0.02124 0.52944 0.0
C2391 C 0.39515 0.00388 0.51967 0.0
C2392 C 0.40953 0.99937 0.51087 0.0
C2393 C 0.41082 0.98287 0.50198 0.0
C2394 C 0.39775 0.97082 0.50166 0.0
C2395 C 0.38335 0.97525 0.51019 0.0
C2396 C 0.38201 0.99172 0.51914 0.0
C2397 C 0.35701 0.08591 0.51967 0.0
C2398 C 0.34083 0.07964 0.52048 0.0
C2399 C 0.36964 0.0758 0.52385 0.0
C2400 C 0.36639 0.05922 0.52903 0.0
C2401 C 0.35028 0.0528 0.52954 0.0
C2402 C 0.33765 0.06289 0.52536 0.0
C2403 C 0.37974 0.04856 0.53395 0.0
C2404 C 0.38122 0.03171 0.52569 0.0
C2405 C 0.39114 0.05501 0.54646 0.0
C2406 C 0.3898 0.07229 0.55634 0.0
C2407 C 0.37557 0.07655 0.56553 0.0
C2408 C 0.37434 0.09291 0.57473 0.0
C2409 C 0.38732 0.10508 0.57494 0.0
C2410 C 0.40157 0.10089 0.56599 0.0
C2411 C 0.40285 0.08456 0.55676 0.0
H2412 H 0.38635 0.11773 0.58207 0.0
H2413 H 0.39876 0.95805 0.49477 0.0
H2414 H 0.56172 0.51544 0.52424 0.0
H2415 H 0.5866 0.50009 0.51639 0.0
H2416 H 0.6089 0.52418 0.56232 0.0
H2417 H 0.58419 0.5397 0.56983 0.0
H2418 H 0.63119 0.51986 0.53759 0.0
H2419 H 0.58916 0.48451 0.56097 0.0
H2420 H 0.5618 0.47081 0.56259 0.0
H2421 H 0.56845 0.44344 0.51301 0.0
H2422 H 0.59578 0.4572 0.511 0.0
H2423 H 0.68582 0.45606 0.55552 0.0
H2424 H 0.66369 0.47593 0.55621 0.0
H2425 H 0.64693 0.45057 0.50824 0.0
H2426 H 0.66927 0.43091 0.50717 0.0
H2427 H 0.62214 0.45578 0.53146 0.0
H2428 H 0.66605 0.48987 0.51 0.0
H2429 H 0.69351 0.50352 0.50993 0.0
H2430 H 0.68357 0.53304 0.55777 0.0
H2431 H 0.65611 0.51938 0.55825 0.0
C2432 C 0.5722 0.51791 0.53224 0.0
C2433 C 0.57113 0.52865 0.54762 0.0
C2434 C 0.58633 0.509 0.5279 0.0
C2435 C 0.59954 0.51063 0.53897 0.0
C2436 C 0.59891 0.52259 0.5536 0.0
C2437 C 0.58482 0.53149 0.55789 0.0
C2438 C 0.6133 0.49876 0.53631 0.0
C2439 C 0.62921 0.50585 0.53632 0.0
C2440 C 0.61079 0.48044 0.53451 0.0
C2441 C 0.59443 0.47203 0.53575 0.0
C2442 C 0.58474 0.47566 0.55036 0.0
C2443 C 0.56925 0.46788 0.55136 0.0
C2444 C 0.56338 0.4563 0.53789 0.0
C2445 C 0.57301 0.45244 0.52342 0.0
C2446 C 0.5885 0.46023 0.52234 0.0
C2447 C 0.6776 0.4548 0.54497 0.0
C2448 C 0.67946 0.4418 0.53126 0.0
C2449 C 0.66488 0.46619 0.54542 0.0
C2450 C 0.65369 0.46488 0.5322 0.0
C2451 C 0.65539 0.45184 0.5186 0.0
C2452 C 0.66816 0.44051 0.51807 0.0
C2453 C 0.64004 0.47687 0.53277 0.0
C2454 C 0.62414 0.46978 0.53248 0.0
C2455 C 0.64259 0.49518 0.53452 0.0
C2456 C 0.65906 0.50349 0.53422 0.0
C2457 C 0.66975 0.49918 0.52057 0.0
C2458 C 0.68532 0.50693 0.52045 0.0
C2459 C 0.69029 0.51911 0.53385 0.0
C2460 C 0.6797 0.52359 0.5474 0.0
C2461 C 0.66413 0.51586 0.54759 0.0
H2462 H 0.70235 0.52509 0.53374 0.0
H2463 H 0.55138 0.45029 0.53868 0.0
H2464 H 0.73619 0.25326 0.30864 0.0
H2465 H 0.74434 0.26903 0.33586 0.0
H2466 H 0.72584 0.22596 0.3617 0.0
H2467 H 0.7179 0.21017 0.33427 0.0
H2468 H 0.72381 0.27984 0.36006 0.0
H2469 H 0.74522 0.22744 0.40035 0.0
H2470 H 0.75928 0.19987 0.39612 0.0
H2471 H 0.78293 0.21584 0.35142 0.0
H2472 H 0.76927 0.24363 0.35555 0.0
H2473 H 0.71838 0.31047 0.4469 0.0
H2474 H 0.71658 0.29089 0.42059 0.0
H2475 H 0.76844 0.29416 0.41479 0.0
H2476 H 0.77037 0.31403 0.44093 0.0
H2477 H 0.7557 0.26044 0.40626 0.0
H2478 H 0.74693 0.31833 0.39312 0.0
H2479 H 0.73401 0.34657 0.39639 0.0
H2480 H 0.68791 0.32094 0.38468 0.0
H2481 H 0.70053 0.2925 0.38159 0.0
C2482 C 0.7343 0.24706 0.32014 0.0
C2483 C 0.72645 0.23061 0.31951 0.0
C2484 C 0.73884 0.25607 0.33567 0.0
C2485 C 0.73562 0.24876 0.35088 0.0
C2486 C 0.7286 0.23183 0.35015 0.0
C2487 C 0.72411 0.22279 0.33454 0.0
C2488 C 0.73823 0.25953 0.36741 0.0
C2489 C 0.73082 0.27556 0.37012 0.0
C2490 C 0.74745 0.25405 0.38055 0.0
C2491 C 0.75609 0.23757 0.37819 0.0
C2492 C 0.75351 0.22512 0.38969 0.0
C2493 C 0.76141 0.20945 0.3873 0.0
C2494 C 0.77199 0.20611 0.3735 0.0
C2495 C 0.77472 0.21844 0.36209 0.0
C2496 C 0.76689 0.23415 0.36444 0.0
C2497 C 0.72942 0.30711 0.44003 0.0
C2498 C 0.74452 0.31402 0.44602 0.0
C2499 C 0.72837 0.2958 0.42503 0.0
C2500 C 0.74237 0.29114 0.41565 0.0
C2501 C 0.75749 0.2975 0.42186 0.0
C2502 C 0.75856 0.30886 0.43684 0.0
C2503 C 0.74111 0.28058 0.39885 0.0
C2504 C 0.74872 0.26463 0.39614 0.0
C2505 C 0.73225 0.28619 0.38555 0.0
C2506 C 0.72465 0.30328 0.38728 0.0
C2507 C 0.73402 0.31871 0.39137 0.0
C2508 C 0.72675 0.33475 0.39317 0.0
C2509 C 0.71014 0.33555 0.39079 0.0
C2510 C 0.70077 0.3203 0.38655 0.0
C2511 C 0.70798 0.30422 0.38476 0.0
H2512 H 0.70454 0.34798 0.39219 0.0
H2513 H 0.77804 0.19394 0.37164 0.0
H2514 H 0.48207 0.07524 0.94172 0.0
H2515 H 0.50403 0.07457 0.92036 0.0
H2516 H 0.52211 0.02926 0.93944 0.0
H2517 H 0.50032 0.0302 0.96091 0.0
H2518 H 0.54683 0.05059 0.92987 0.0
H2519 H 0.49716 0.02494 0.90636 0.0
H2520 H 0.46822 0.0244 0.89953 0.0
H2521 H 0.47696 0.06697 0.86975 0.0
H2522 H 0.50593 0.06795 0.87666 0.0
H2523 H 0.58807 0.0106 0.85749 0.0
H2524 H 0.56971 0.01753 0.8815 0.0
H2525 H 0.5537 0.06149 0.85847 0.0
H2526 H 0.5722 0.05478 0.83447 0.0
H2527 H 0.52843 0.04307 0.87023 0.0
H2528 H 0.57893 0.06712 0.89242 0.0
H2529 H 0.6078 0.06701 0.89942 0.0
H2530 H 0.59758 0.0267 0.93157 0.0
H2531 H 0.56867 0.02639 0.92457 0.0
C2532 C 0.49103 0.06548 0.94158 0.0
C2533 C 0.48953 0.05269 0.95278 0.0
C2534 C 0.50347 0.06499 0.92932 0.0
C2535 C 0.51457 0.05166 0.92808 0.0
C2536 C 0.51368 0.03961 0.94008 0.0
C2537 C 0.50124 0.0401 0.95228 0.0
C2538 C 0.52625 0.04939 0.91356 0.0
C2539 C 0.54281 0.04885 0.91683 0.0
C2540 C 0.52106 0.04734 0.89651 0.0
C2541 C 0.50368 0.04665 0.89218 0.0
C2542 C 0.49289 0.03427 0.89846 0.0
C2543 C 0.47648 0.03387 0.89456 0.0
C2544 C 0.47075 0.04567 0.88424 0.0
C2545 C 0.48142 0.05786 0.87777 0.0
C2546 C 0.49783 0.05834 0.88167 0.0
C2547 C 0.58083 0.02189 0.8576 0.0
C2548 C 0.58172 0.03215 0.844 0.0
C2549 C 0.57029 0.02583 0.87136 0.0
C2550 C 0.56042 0.04017 0.87193 0.0
C2551 C 0.56118 0.05036 0.85834 0.0
C2552 C 0.57173 0.04645 0.84457 0.0
C2553 C 0.54906 0.04425 0.88651 0.0
C2554 C 0.53252 0.04504 0.88324 0.0
C2555 C 0.55428 0.04642 0.90355 0.0
C2556 C 0.57165 0.04663 0.90785 0.0
C2557 C 0.58286 0.05814 0.90089 0.0
C2558 C 0.59923 0.05817 0.90487 0.0
C2559 C 0.60453 0.04683 0.9159 0.0
C2560 C 0.59346 0.03546 0.92301 0.0
C2561 C 0.57708 0.03537 0.91906 0.0
H2562 H 0.61721 0.04687 0.91897 0.0
H2563 H 0.45804 0.04534 0.88123 0.0
H2564 H 0.30711 0.26095 0.30513 0.0
H2565 H 0.30783 0.23896 0.32521 0.0
H2566 H 0.31089 0.27977 0.36685 0.0
H2567 H 0.31079 0.30151 0.34673 0.0
H2568 H 0.32718 0.25421 0.37473 0.0
H2569 H 0.27427 0.25934 0.35276 0.0
H2570 H 0.25389 0.25899 0.33046 0.0
H2571 H 0.26238 0.20537 0.31448 0.0
H2572 H 0.28303 0.2055 0.33653 0.0
H2573 H 0.28565 0.21535 0.44145 0.0
H2574 H 0.29262 0.2329 0.41848 0.0
H2575 H 0.29945 0.18651 0.38437 0.0
H2576 H 0.29334 0.16872 0.40747 0.0
H2577 H 0.27999 0.21229 0.37129 0.0
H2578 H 0.33153 0.20787 0.39705 0.0
H2579 H 0.35038 0.2099 0.42094 0.0
H2580 H 0.34231 0.26435 0.43175 0.0
H2581 H 0.32322 0.2626 0.40807 0.0
C2582 C 0.30854 0.26511 0.31853 0.0
C2583 C 0.30883 0.28285 0.32445 0.0
C2584 C 0.30871 0.25258 0.33003 0.0
C2585 C 0.30897 0.25763 0.34767 0.0
C2586 C 0.31058 0.27543 0.3534 0.0
C2587 C 0.31053 0.28787 0.34191 0.0
C2588 C 0.30626 0.2447 0.36024 0.0
C2589 C 0.31682 0.2451 0.37396 0.0
C2590 C 0.29281 0.23264 0.35932 0.0
C2591 C 0.28032 0.23248 0.34615 0.0
C2592 C 0.27187 0.24751 0.34441 0.0
C2593 C 0.26026 0.24735 0.33183 0.0
C2594 C 0.25687 0.23218 0.32103 0.0
C2595 C 0.26505 0.21712 0.32283 0.0
C2596 C 0.27671 0.21723 0.33536 0.0
C2597 C 0.2889 0.20875 0.4292 0.0
C2598 C 0.289 0.19046 0.42654 0.0
C2599 C 0.29277 0.21888 0.41599 0.0
C2600 C 0.29666 0.21105 0.3997 0.0
C2601 C 0.29647 0.19285 0.39683 0.0
C2602 C 0.29284 0.18268 0.4101 0.0
C2603 C 0.30084 0.22194 0.38574 0.0
C2604 C 0.29048 0.22121 0.37186 0.0
C2605 C 0.31427 0.23394 0.3867 0.0
C2606 C 0.32584 0.23506 0.40087 0.0
C2607 C 0.33368 0.22025 0.4046 0.0
C2608 C 0.34442 0.22135 0.41809 0.0
C2609 C 0.34751 0.23723 0.42788 0.0
C2610 C 0.3399 0.25206 0.42417 0.0
C2611 C 0.32912 0.25102 0.4107 0.0
H2612 H 0.35584 0.23806 0.43832 0.0
H2613 H 0.24788 0.23208 0.3113 0.0
H2614 H 0.52143 0.50966 0.96146 0.0
H2615 H 0.50161 0.5132 0.93954 0.0
H2616 H 0.51235 0.46271 0.91433 0.0
H2617 H 0.53221 0.45931 0.93625 0.0
H2618 H 0.51067 0.48739 0.89191 0.0
H2619 H 0.47871 0.46748 0.93767 0.0
H2620 H 0.46884 0.46819 0.96725 0.0
H2621 H 0.45065 0.51884 0.96479 0.0
H2622 H 0.46064 0.51854 0.93526 0.0
H2623 H 0.44449 0.47485 0.83619 0.0
H2624 H 0.46402 0.47189 0.85826 0.0
H2625 H 0.44914 0.51995 0.88555 0.0
H2626 H 0.4294 0.52285 0.86356 0.0
H2627 H 0.45313 0.49701 0.90709 0.0
H2628 H 0.48491 0.51732 0.86165 0.0
H2629 H 0.49517 0.51727 0.83225 0.0
H2630 H 0.5141 0.46688 0.83421 0.0
H2631 H 0.50376 0.46653 0.86356 0.0
C2632 C 0.51955 0.49942 0.95116 0.0
C2633 C 0.52823 0.48421 0.95047 0.0
C2634 C 0.50821 0.50137 0.93872 0.0
C2635 C 0.50539 0.48815 0.92535 0.0
C2636 C 0.51429 0.47307 0.92452 0.0
C2637 C 0.52555 0.47108 0.93704 0.0
C2638 C 0.4931 0.49 0.91227 0.0
C2639 C 0.49805 0.48928 0.8952 0.0
C2640 C 0.4767 0.49291 0.91659 0.0
C2641 C 0.47057 0.49306 0.9343 0.0
C2642 C 0.47272 0.47883 0.94348 0.0
C2643 C 0.46708 0.47915 0.96023 0.0
C2644 C 0.45916 0.49357 0.96791 0.0
C2645 C 0.45681 0.50769 0.95883 0.0
C2646 C 0.46245 0.50744 0.94208 0.0
C2647 C 0.44543 0.48484 0.84684 0.0
C2648 C 0.43544 0.49916 0.84803 0.0
C2649 C 0.45663 0.48315 0.85947 0.0
C2650 C 0.45831 0.49585 0.87349 0.0
C2651 C 0.44813 0.50998 0.87488 0.0
C2652 C 0.43681 0.51162 0.8623 0.0
C2653 C 0.47067 0.49438 0.88665 0.0
C2654 C 0.46575 0.49516 0.90376 0.0
C2655 C 0.48713 0.49163 0.88237 0.0
C2656 C 0.49342 0.49183 0.86475 0.0
C2657 C 0.49116 0.50617 0.85577 0.0
C2658 C 0.497 0.50623 0.83912 0.0
C2659 C 0.50524 0.49206 0.83135 0.0
C2660 C 0.50769 0.47783 0.84024 0.0
C2661 C 0.50186 0.47771 0.85688 0.0
H2662 H 0.50976 0.49213 0.81846 0.0
H2663 H 0.4548 0.4938 0.98088 0.0
H2664 H 0.73431 0.75557 0.22415 0.0
H2665 H 0.74524 0.74136 0.19743 0.0
H2666 H 0.72813 0.78254 0.17091 0.0
H2667 H 0.71741 0.79677 0.1978 0.0
H2668 H 0.72861 0.72799 0.17139 0.0
H2669 H 0.75068 0.78556 0.1344 0.0
H2670 H 0.76321 0.81501 0.14051 0.0
H2671 H 0.78334 0.80069 0.18618 0.0
H2672 H 0.77121 0.77107 0.1802 0.0
H2673 H 0.73019 0.69991 0.08439 0.0
H2674 H 0.72598 0.71792 0.11124 0.0
H2675 H 0.77752 0.72424 0.11788 0.0
H2676 H 0.78186 0.70613 0.09096 0.0
H2677 H 0.76266 0.75452 0.12815 0.0
H2678 H 0.75648 0.69492 0.13832 0.0
H2679 H 0.74575 0.66462 0.13344 0.0
H2680 H 0.6976 0.68158 0.14407 0.0
H2681 H 0.70803 0.71202 0.14876 0.0
C2682 C 0.73319 0.76166 0.21261 0.0
C2683 C 0.72502 0.77714 0.21287 0.0
C2684 C 0.73937 0.75356 0.19737 0.0
C2685 C 0.73749 0.76081 0.18208 0.0
C2686 C 0.72993 0.77676 0.18251 0.0
C2687 C 0.72382 0.7849 0.19782 0.0
C2688 C 0.74226 0.75098 0.16564 0.0
C2689 C 0.7361 0.73383 0.162 0.0
C2690 C 0.75223 0.75844 0.1534 0.0
C2691 C 0.75991 0.77612 0.1569 0.0
C2692 C 0.75787 0.78865 0.14569 0.0
C2693 C 0.76491 0.80538 0.14913 0.0
C2694 C 0.77407 0.80971 0.16372 0.0
C2695 C 0.77624 0.79732 0.17489 0.0
C2696 C 0.76927 0.78056 0.17148 0.0
C2697 C 0.74065 0.7051 0.09154 0.0
C2698 C 0.75637 0.70136 0.08559 0.0
C2699 C 0.73822 0.71547 0.10688 0.0
C2700 C 0.75143 0.72226 0.11673 0.0
C2701 C 0.76715 0.71916 0.11052 0.0
C2702 C 0.7696 0.70881 0.09511 0.0
C2703 C 0.74871 0.73172 0.13388 0.0
C2704 C 0.75522 0.74875 0.13762 0.0
C2705 C 0.73933 0.72407 0.14642 0.0
C2706 C 0.73302 0.70576 0.14375 0.0
C2707 C 0.74359 0.6922 0.1395 0.0
C2708 C 0.73757 0.675 0.13678 0.0
C2709 C 0.721 0.67118 0.1384 0.0
C2710 C 0.71043 0.68456 0.14279 0.0
C2711 C 0.71639 0.70179 0.1455 0.0
H2712 H 0.71636 0.65786 0.13629 0.0
H2713 H 0.77948 0.82267 0.16637 0.0
H2714 H 0.04094 0.03947 0.10767 0.0
H2715 H 0.02218 0.03574 0.13146 0.0
H2716 H 0.98297 0.02471 0.0963 0.0
H2717 H 1.00182 0.02861 0.07257 0.0
H2718 H 0.97365 0.046 0.12303 0.0
H2719 H 1.00053 0.99228 0.11474 0.0
H2720 H 0.02399 0.97365 0.11154 0.0
H2721 H 0.0395 0.99333 0.16162 0.0
H2722 H 0.01626 0.0123 0.16502 0.0
H2723 H 0.91763 0.01188 0.18134 0.0
H2724 H 0.93607 0.01462 0.1572 0.0
H2725 H 0.97555 0.02806 0.19151 0.0
H2726 H 0.95727 0.02497 0.21569 0.0
H2727 H 0.9844 0.00506 0.16492 0.0
H2728 H 0.95765 0.05918 0.17278 0.0
H2729 H 0.93418 0.07782 0.17576 0.0
H2730 H 0.91825 0.05693 0.12616 0.0
H2731 H 0.94151 0.03797 0.12299 0.0
C2732 C 0.02832 0.03617 0.10512 0.0
C2733 C 0.02276 0.03425 0.08839 0.0
C2734 C 0.01761 0.03402 0.11866 0.0
C2735 C 1.00116 0.02972 0.11568 0.0
C2736 C 0.99558 0.02802 0.09893 0.0
C2737 C 0.0063 0.03024 0.08541 0.0
C2738 C 0.98978 0.02704 0.13003 0.0
C2739 C 0.97589 0.03685 0.13204 0.0
C2740 C 0.99283 0.01536 0.14202 0.0
C2741 C 0.00673 0.00384 0.14007 0.0
C2742 C 0.009 0.99273 0.12503 0.0
C2743 C 0.02226 0.9821 0.12318 0.0
C2744 C 0.03325 0.98234 0.13635 0.0
C2745 C 0.03099 0.99318 0.15142 0.0
C2746 C 0.01777 0.00387 0.15332 0.0
C2747 C 0.93027 0.01527 0.18375 0.0
C2748 C 0.93594 0.0183 0.20047 0.0
C2749 C 0.94077 0.01697 0.16994 0.0
C2750 C 0.95717 0.02174 0.17254 0.0
C2751 C 0.96294 0.02444 0.18919 0.0
C2752 C 0.95244 0.02281 0.20301 0.0
C2753 C 0.96832 0.02404 0.15792 0.0
C2754 C 0.98215 0.01416 0.15588 0.0
C2755 C 0.9652 0.03561 0.14587 0.0
C2756 C 0.95123 0.04703 0.14773 0.0
C2757 C 0.94907 0.05846 0.16257 0.0
C2758 C 0.93582 0.0691 0.16428 0.0
C2759 C 0.92471 0.06853 0.15118 0.0
C2760 C 0.92685 0.05734 0.13631 0.0
C2761 C 0.94007 0.04665 0.13455 0.0
H2762 H 0.91446 0.07678 0.15253 0.0
H2763 H 0.0435 0.97409 0.1349 0.0
H2764 H 0.2957 0.77092 0.22025 0.0
H2765 H 0.29026 0.78949 0.19795 0.0
H2766 H 0.29489 0.74549 0.16001 0.0
H2767 H 0.30071 0.72718 0.18238 0.0
H2768 H 0.30907 0.77341 0.14894 0.0
H2769 H 0.25765 0.76016 0.17421 0.0
H2770 H 0.23781 0.7584 0.1976 0.0
H2771 H 0.24157 0.81384 0.20931 0.0
H2772 H 0.26164 0.81591 0.18614 0.0
H2773 H 0.26952 0.80657 0.08136 0.0
H2774 H 0.27624 0.78938 0.10411 0.0
H2775 H 0.27466 0.83511 0.14028 0.0
H2776 H 0.26764 0.85235 0.1176 0.0
H2777 H 0.25924 0.80692 0.15244 0.0
H2778 H 0.31049 0.81977 0.12629 0.0
H2779 H 0.32998 0.82093 0.10251 0.0
H2780 H 0.32587 0.7654 0.0919 0.0
H2781 H 0.30617 0.76392 0.11548 0.0
C2782 C 0.29568 0.76539 0.2071 0.0
C2783 C 0.29858 0.74774 0.2029 0.0
C2784 C 0.29248 0.7759 0.19439 0.0
C2785 C 0.29191 0.76886 0.17725 0.0
C2786 C 0.29522 0.75126 0.17308 0.0
C2787 C 0.29851 0.7408 0.1858 0.0
C2788 C 0.28761 0.77972 0.16371 0.0
C2789 C 0.29807 0.78057 0.14964 0.0
C2790 C 0.27341 0.78936 0.16468 0.0
C2791 C 0.26128 0.78817 0.17855 0.0
C2792 C 0.25434 0.77197 0.18186 0.0
C2793 C 0.24304 0.77092 0.19506 0.0
C2794 C 0.23846 0.786 0.20496 0.0
C2795 C 0.24515 0.80217 0.20165 0.0
C2796 C 0.25648 0.80329 0.18847 0.0
C2797 C 0.27045 0.81296 0.09417 0.0
C2798 C 0.26805 0.83088 0.09762 0.0
C2799 C 0.27444 0.80313 0.10716 0.0
C2800 C 0.27614 0.81096 0.12391 0.0
C2801 C 0.27348 0.82878 0.12746 0.0
C2802 C 0.26958 0.83865 0.11445 0.0
C2803 C 0.28068 0.80057 0.1377 0.0
C2804 C 0.27025 0.7998 0.1518 0.0
C2805 C 0.29485 0.79091 0.1367 0.0
C2806 C 0.30674 0.79175 0.12255 0.0
C2807 C 0.31364 0.80781 0.1188 0.0
C2808 C 0.32475 0.80853 0.10537 0.0
C2809 C 0.32913 0.79325 0.09567 0.0
C2810 C 0.32245 0.77723 0.09941 0.0
C2811 C 0.31132 0.77644 0.11282 0.0
H2812 H 0.33773 0.79383 0.08528 0.0
H2813 H 0.22971 0.78516 0.21518 0.0
H2814 H 0.98004 0.45251 0.09282 0.0
H2815 H 1.0009 0.45256 0.11454 0.0
H2816 H 0.0274 0.49407 0.09275 0.0
H2817 H 0.00662 0.49381 0.07106 0.0
H2818 H 0.04784 0.47086 0.10362 0.0
H2819 H 1.00229 0.50306 0.12559 0.0
H2820 H 0.97346 0.50713 0.13244 0.0
H2821 H 0.97349 0.46654 0.16515 0.0
H2822 H 1.00228 0.46202 0.15824 0.0
H2823 H 0.09369 0.50974 0.17382 0.0
H2824 H 0.0752 0.50357 0.15007 0.0
H2825 H 0.04952 0.46467 0.1763 0.0
H2826 H 0.06804 0.47068 0.20007 0.0
H2827 H 0.02871 0.48446 0.16308 0.0
H2828 H 0.075 0.45346 0.14229 0.0
H2829 H 0.10382 0.44958 0.1352 0.0
H2830 H 0.10257 0.48807 0.10033 0.0
H2831 H 0.07379 0.49237 0.10739 0.0
C2832 C 0.99056 0.46129 0.0925 0.0
C2833 C 0.99178 0.47321 0.08042 0.0
C2834 C 1.00239 0.46144 0.10494 0.0
C2835 C 0.01563 0.47351 0.10546 0.0
C2836 C 0.01732 0.48467 0.09268 0.0
C2837 C 0.00546 0.48457 0.08033 0.0
C2838 C 0.02706 0.47548 0.11993 0.0
C2839 C 0.04368 0.47395 0.11661 0.0
C2840 C 0.02164 0.47925 0.13694 0.0
C2841 C 0.00439 0.48207 0.14125 0.0
C2842 C 0.99612 0.49491 0.13414 0.0
C2843 C 0.97978 0.49731 0.13804 0.0
C2844 C 0.97163 0.48707 0.14919 0.0
C2845 C 0.97981 0.47444 0.15649 0.0
C2846 C 0.99614 0.47196 0.15258 0.0
C2847 C 0.08425 0.4997 0.17448 0.0
C2848 C 0.08244 0.4907 0.18893 0.0
C2849 C 0.07364 0.49619 0.16086 0.0
C2850 C 0.06101 0.4835 0.16125 0.0
C2851 C 0.05913 0.47454 0.17566 0.0
C2852 C 0.06972 0.47805 0.1893 0.0
C2853 C 0.04957 0.47987 0.14682 0.0
C2854 C 0.03291 0.48118 0.15013 0.0
C2855 C 0.05497 0.47594 0.12981 0.0
C2856 C 0.07227 0.47334 0.12548 0.0
C2857 C 0.0809 0.4612 0.13321 0.0
C2858 C 0.09723 0.45891 0.12918 0.0
C2859 C 0.10503 0.4686 0.11736 0.0
C2860 C 0.09651 0.48058 0.1095 0.0
C2861 C 0.08019 0.48294 0.1135 0.0
H2862 H 0.11767 0.46681 0.11425 0.0
H2863 H 0.95899 0.48895 0.15221 0.0
H2864 H 0.30607 0.72437 0.27038 0.0
H2865 H 0.32634 0.72182 0.29215 0.0
H2866 H 0.36253 0.71162 0.25287 0.0
H2867 H 0.34214 0.71366 0.23127 0.0
H2868 H 0.36736 0.69243 0.27782 0.0
H2869 H 0.35797 0.75259 0.27382 0.0
H2870 H 0.34143 0.7783 0.27432 0.0
H2871 H 0.32739 0.77332 0.32602 0.0
H2872 H 0.34367 0.74739 0.32573 0.0
H2873 H 0.43974 0.7195 0.32161 0.0
H2874 H 0.41674 0.71654 0.30256 0.0
H2875 H 0.38415 0.72501 0.34541 0.0
H2876 H 0.40709 0.72772 0.36464 0.0
H2877 H 0.37621 0.74385 0.32025 0.0
H2878 H 0.38776 0.68449 0.32442 0.0
H2879 H 0.40489 0.65917 0.32331 0.0
H2880 H 0.41562 0.66317 0.27068 0.0
H2881 H 0.39874 0.68867 0.27153 0.0
C2882 C 0.31828 0.72119 0.26649 0.0
C2883 C 0.32265 0.71939 0.24922 0.0
C2884 C 0.3299 0.7199 0.27889 0.0
C2885 C 0.34611 0.71689 0.27421 0.0
C2886 C 0.35018 0.71406 0.25687 0.0
C2887 C 0.33857 0.7153 0.24453 0.0
C2888 C 0.35904 0.71767 0.2872 0.0
C2889 C 0.36935 0.70373 0.28701 0.0
C2890 C 0.36156 0.73227 0.29944 0.0
C2891 C 0.35189 0.74794 0.29969 0.0
C2892 C 0.35127 0.7569 0.28525 0.0
C2893 C 0.34195 0.77152 0.2855 0.0
C2894 C 0.33333 0.77741 0.30018 0.0
C2895 C 0.33405 0.76872 0.31465 0.0
C2896 C 0.34332 0.75406 0.31445 0.0
C2897 C 0.42769 0.72049 0.32707 0.0
C2898 C 0.42537 0.72376 0.34476 0.0
C2899 C 0.41451 0.71884 0.3161 0.0
C2900 C 0.39863 0.72035 0.32251 0.0
C2901 C 0.39625 0.72379 0.34013 0.0
C2902 C 0.40943 0.7254 0.35112 0.0
C2903 C 0.38459 0.71866 0.31079 0.0
C2904 C 0.37412 0.73246 0.31118 0.0
C2905 C 0.382 0.70398 0.29866 0.0
C2906 C 0.39209 0.68859 0.29808 0.0
C2907 C 0.39387 0.68005 0.31264 0.0
C2908 C 0.40352 0.66565 0.31205 0.0
C2909 C 0.41136 0.65959 0.29694 0.0
C2910 C 0.40955 0.66789 0.28238 0.0
C2911 C 0.39992 0.68231 0.2829 0.0
H2912 H 0.41883 0.64844 0.29652 0.0
H2913 H 0.32612 0.78874 0.30035 0.0
H2914 H 1.00116 0.45515 0.04598 0.0
H2915 H 0.00867 0.42684 0.03158 0.0
H2916 H 0.96161 0.40498 0.0438 0.0
H2917 H 0.95454 0.43301 0.05879 0.0
H2918 H 0.9825 0.38104 0.04423 0.0
H2919 H 0.97032 0.42174 0.00542 0.0
H2920 H 0.97326 0.44929 0.99262 0.0
H2921 H 0.02241 0.43855 0.97849 0.0
H2922 H 0.01983 0.41103 0.99147 0.0
H2923 H 0.97022 0.31618 0.97374 0.0
H2924 H 0.96875 0.3422 0.99399 0.0
H2925 H 0.0194 0.35412 0.98575 0.0
H2926 H 0.02125 0.32771 0.96606 0.0
H2927 H 0.99913 0.38266 0.98397 0.0
H2928 H 0.00898 0.33948 0.02121 0.0
H2929 H 0.00389 0.3117 0.03319 0.0
H2930 H 0.95624 0.32689 0.04902 0.0
H2931 H 0.96096 0.35468 0.03691 0.0
C2932 C 0.9927 0.4441 0.04601 0.0
C2933 C 0.97723 0.44621 0.05325 0.0
C2934 C 0.99688 0.428 0.03763 0.0
C2935 C 0.98554 0.41383 0.03615 0.0
C2936 C 0.97054 0.41567 0.04459 0.0
C2937 C 0.96646 0.43168 0.05309 0.0
C2938 C 0.98864 0.3976 0.02476 0.0
C2939 C 0.98606 0.38143 0.03104 0.0
C2940 C 0.99341 0.39798 0.00752 0.0
C2941 C 0.99495 0.41443 0.99958 0.0
C2942 C 0.98179 0.42531 0.99968 0.0
C2943 C 0.98339 0.44091 0.99239 0.0
C2944 C 0.99803 0.44569 0.98479 0.0
C2945 C 0.01109 0.43484 0.98442 0.0
C2946 C 0.00957 0.41924 0.99174 0.0
C2947 C 0.98116 0.3241 0.97639 0.0
C2948 C 0.99587 0.31967 0.96814 0.0
C2949 C 0.98025 0.33907 0.98794 0.0
C2950 C 0.99398 0.35008 0.99144 0.0
C2951 C 0.00864 0.34584 0.9832 0.0
C2952 C 0.00962 0.33075 0.97182 0.0
C2953 C 0.99291 0.36619 0.00344 0.0
C2954 C 0.99579 0.38231 0.99722 0.0
C2955 C 0.98811 0.36575 0.02062 0.0
C2956 C 0.98528 0.3491 0.02802 0.0
C2957 C 0.99737 0.33685 0.02713 0.0
C2958 C 0.99456 0.32111 0.03396 0.0
C2959 C 0.97973 0.31752 0.04183 0.0
C2960 C 0.96771 0.32968 0.04291 0.0
C2961 C 0.97045 0.34544 0.03608 0.0
H2962 H 0.97758 0.30532 0.04712 0.0
H2963 H 0.99924 0.45778 0.97914 0.0
H2964 H 0.69686 0.7831 0.28158 0.0
H2965 H 0.67322 0.77726 0.29955 0.0
H2966 H 0.6426 0.77436 0.25578 0.0
H2967 H 0.66625 0.78117 0.23814 0.0
H2968 H 0.62783 0.79086 0.28073 0.0
H2969 H 0.65471 0.73732 0.27426 0.0
H2970 H 0.67747 0.71799 0.275 0.0
H2971 H 0.68148 0.73183 0.32874 0.0
H2972 H 0.65888 0.75145 0.32828 0.0
H2973 H 0.56069 0.74671 0.31846 0.0
H2974 H 0.58435 0.75263 0.30055 0.0
H2975 H 0.61233 0.76888 0.34523 0.0
H2976 H 0.58866 0.76318 0.3632 0.0
H2977 H 0.62801 0.74516 0.31982 0.0
H2978 H 0.60014 0.79896 0.325 0.0
H2979 H 0.57648 0.81681 0.32308 0.0
H2980 H 0.57331 0.80005 0.26975 0.0
H2981 H 0.59682 0.78189 0.27142 0.0
C2982 C 0.68502 0.78132 0.27594 0.0
C2983 C 0.68325 0.78257 0.25858 0.0
C2984 C 0.67154 0.77781 0.28612 0.0
C2985 C 0.65607 0.77504 0.27902 0.0
C2986 C 0.65435 0.7764 0.26161 0.0
C2987 C 0.66781 0.78019 0.25151 0.0
C2988 C 0.64168 0.77093 0.28974 0.0
C2989 C 0.62785 0.78069 0.28907 0.0
C2990 C 0.64164 0.75781 0.30087 0.0
C2991 C 0.6552 0.74598 0.30121 0.0
C2992 C 0.66052 0.73634 0.28622 0.0
C2993 C 0.67338 0.72532 0.28659 0.0
C2994 C 0.68094 0.72371 0.3019 0.0
C2995 C 0.67563 0.7331 0.31688 0.0
C2996 C 0.66279 0.74417 0.31658 0.0
C2997 C 0.5719 0.75149 0.32445 0.0
C2998 C 0.57282 0.75454 0.34222 0.0
C2999 C 0.58538 0.75492 0.31421 0.0
C3000 C 0.60007 0.76124 0.32157 0.0
C3001 C 0.6011 0.76402 0.33931 0.0
C3002 C 0.58756 0.76086 0.34954 0.0
C3003 C 0.61434 0.7651 0.31075 0.0
C3004 C 0.62809 0.75529 0.31141 0.0
C3005 C 0.6142 0.77794 0.29941 0.0
C3006 C 0.60013 0.78893 0.29837 0.0
C3007 C 0.59431 0.79896 0.3129 0.0
C3008 C 0.58095 0.80916 0.31185 0.0
C3009 C 0.57337 0.80953 0.29631 0.0
C3010 C 0.57917 0.79973 0.28178 0.0
C3011 C 0.59252 0.7895 0.28277 0.0
H3012 H 0.56302 0.81743 0.29552 0.0
H3013 H 0.69089 0.71517 0.30216 0.0
H3014 H 0.03489 0.0365 0.01965 0.0
H3015 H 0.03311 0.05624 0.9976 0.0
H3016 H 0.05914 0.09632 0.02968 0.0
H3017 H 0.06122 0.07629 0.05133 0.0
H3018 H 0.01693 0.08375 1.00006 0.0
H3019 H 0.07628 0.12687 0.00763 0.0
H3020 H 0.1052 0.12345 0.01273 0.0
H3021 H 0.10078 0.06997 0.9919 0.0
H3022 H 0.0719 0.07307 0.98657 0.0
H3023 H 0.00369 0.1654 0.97336 0.0
H3024 H 0.01147 0.14195 0.9892 0.0
H3025 H 0.04668 0.12649 0.95033 0.0
H3026 H 0.0396 0.15055 0.93484 0.0
H3027 H 0.05922 0.12418 0.97979 0.0
H3028 H 0.00954 0.10385 0.95373 0.0
H3029 H 0.98096 0.10495 0.94593 0.0
H3030 H 0.9668 0.10854 0.99852 0.0
H3031 H 0.99533 0.10768 0.00666 0.0
C3032 C 0.04082 0.04929 0.02154 0.0
C3033 C 0.04848 0.05487 0.03691 0.0
C3034 C 0.03963 0.06065 0.0091 0.0
C3035 C 0.046 0.07785 0.01188 0.0
C3036 C 0.05439 0.08308 0.02698 0.0
C3037 C 0.05567 0.07165 0.03933 0.0
C3038 C 0.04239 0.09079 0.99996 0.0
C3039 C 0.02623 0.0925 0.99557 0.0
C3040 C 0.05447 0.10212 0.9938 0.0
C3041 C 0.07189 0.10018 0.99684 0.0
C3042 C 0.0815 0.11439 0.00409 0.0
C3043 C 0.09788 0.1125 0.00705 0.0
C3044 C 0.10481 0.09647 1.00271 0.0
C3045 C 0.09538 0.08233 0.99536 0.0
C3046 C 0.079 0.08414 0.9924 0.0
C3047 C 0.01324 0.15719 0.96823 0.0
C3048 C 0.02094 0.15994 0.9527 0.0
C3049 C 0.01755 0.14359 0.97724 0.0
C3050 C 0.02951 0.13219 0.97088 0.0
C3051 C 0.03737 0.13501 0.95551 0.0
C3052 C 0.03315 0.1487 0.94654 0.0
C3053 C 0.03373 0.11733 0.98024 0.0
C3054 C 0.04997 0.11532 0.98419 0.0
C3055 C 0.02177 0.1054 0.98564 0.0
C3056 C 0.00459 0.10584 0.98081 0.0
C3057 C 1.00034 0.10498 0.96364 0.0
C3058 C 0.98415 0.10555 0.95916 0.0
C3059 C 0.97208 0.10685 0.97173 0.0
C3060 C 0.97617 0.10754 0.9888 0.0
C3061 C 0.99234 0.107 0.99336 0.0
H3062 H 0.95955 0.10729 0.96823 0.0
H3063 H 0.11749 0.09503 0.00501 0.0
H3064 H 0.34196 0.3056 0.31092 0.0
H3065 H 0.36696 0.30167 0.29384 0.0
H3066 H 0.33929 0.27442 0.25288 0.0
H3067 H 0.31446 0.27861 0.26991 0.0
H3068 H 0.3842 0.27566 0.27692 0.0
H3069 H 0.35089 0.28789 0.21674 0.0
H3070 H 0.32742 0.30334 0.2083 0.0
H3071 H 0.33242 0.3399 0.25287 0.0
H3072 H 0.35578 0.32452 0.26167 0.0
H3073 H 0.4359 0.25831 0.2046 0.0
H3074 H 0.41328 0.25934 0.22485 0.0
H3075 H 0.41203 0.31476 0.22395 0.0
H3076 H 0.43477 0.31387 0.20378 0.0
H3077 H 0.3824 0.30087 0.22217 0.0
H3078 H 0.42756 0.29695 0.25789 0.0
H3079 H 0.45235 0.2847 0.26739 0.0
H3080 H 0.42613 0.23677 0.2738 0.0
H3081 H 0.40121 0.24866 0.26411 0.0
C3082 C 0.34142 0.29816 0.29854 0.0
C3083 C 0.32641 0.2922 0.29174 0.0
C3084 C 0.35564 0.29606 0.28871 0.0
C3085 C 0.355 0.28807 0.2719 0.0
C3086 C 0.34011 0.2809 0.26567 0.0
C3087 C 0.32597 0.28304 0.27546 0.0
C3088 C 0.3695 0.2884 0.26041 0.0
C3089 C 0.3838 0.28111 0.26493 0.0
C3090 C 0.36918 0.29588 0.24491 0.0
C3091 C 0.35498 0.30499 0.2399 0.0
C3092 C 0.34694 0.2992 0.22474 0.0
C3093 C 0.33364 0.30791 0.21993 0.0
C3094 C 0.32839 0.32254 0.23009 0.0
C3095 C 0.33644 0.3285 0.24507 0.0
C3096 C 0.34965 0.31973 0.25003 0.0
C3097 C 0.43097 0.27078 0.20883 0.0
C3098 C 0.4373 0.28603 0.20254 0.0
C3099 C 0.41798 0.27133 0.22044 0.0
C3100 C 0.411 0.28716 0.22615 0.0
C3101 C 0.41716 0.30238 0.21977 0.0
C3102 C 0.43015 0.30184 0.20815 0.0
C3103 C 0.39708 0.28779 0.23846 0.0
C3104 C 0.38285 0.29531 0.23411 0.0
C3105 C 0.39761 0.28082 0.25424 0.0
C3106 C 0.41255 0.27365 0.26012 0.0
C3107 C 0.4271 0.28375 0.2612 0.0
C3108 C 0.44117 0.27688 0.26664 0.0
C3109 C 0.44082 0.25995 0.27115 0.0
C3110 C 0.42638 0.24988 0.27028 0.0
C3111 C 0.41228 0.25668 0.26483 0.0
H3112 H 0.45173 0.25465 0.27536 0.0
H3113 H 0.31812 0.3293 0.22633 0.0
H3114 H 0.55782 0.43715 0.97966 0.0
H3115 H 0.55578 0.4171 1.0015 0.0
H3116 H 0.55202 0.46047 0.04016 0.0
H3117 H 0.55372 0.48058 0.01809 0.0
H3118 H 0.57173 0.42941 0.04815 0.0
H3119 H 0.51859 0.44465 0.03144 0.0
H3120 H 0.49796 0.44935 0.0106 0.0
H3121 H 0.50156 0.39676 0.9878 0.0
H3122 H 0.52222 0.39176 0.00854 0.0
H3123 H 0.53672 0.37688 0.10955 0.0
H3124 H 0.54309 0.40035 0.09197 0.0
H3125 H 0.53214 0.36552 0.04701 0.0
H3126 H 0.52487 0.34239 0.06446 0.0
H3127 H 0.51988 0.39467 0.04388 0.0
H3128 H 0.57218 0.37858 0.06047 0.0
H3129 H 0.59332 0.37324 0.08051 0.0
H3130 H 0.59263 0.42638 0.10248 0.0
H3131 H 0.57133 0.43197 0.0827 0.0
C3132 C 0.55704 0.44239 0.99287 0.0
C3133 C 0.55585 0.46034 0.99724 0.0
C3134 C 0.55581 0.43096 0.00532 0.0
C3135 C 0.55357 0.43727 0.02244 0.0
C3136 C 0.55377 0.45533 0.02703 0.0
C3137 C 0.55484 0.4668 0.01447 0.0
C3138 C 0.54921 0.42488 0.03503 0.0
C3139 C 0.5603 0.42199 0.04746 0.0
C3140 C 0.53445 0.41495 0.03388 0.0
C3141 C 0.52202 0.41788 0.02144 0.0
C3142 C 0.51503 0.43412 0.02193 0.0
C3143 C 0.50328 0.43681 0.01019 0.0
C3144 C 0.49847 0.42338 0.99786 0.0
C3145 C 0.50531 0.40717 0.99734 0.0
C3146 C 0.51699 0.40437 0.00913 0.0
C3147 C 0.53548 0.37423 0.09594 0.0
C3148 C 0.53034 0.35758 0.08851 0.0
C3149 C 0.53936 0.38766 0.08585 0.0
C3150 C 0.53839 0.38473 0.06806 0.0
C3151 C 0.5331 0.36819 0.06066 0.0
C3152 C 0.52909 0.35484 0.07071 0.0
C3153 C 0.54249 0.39884 0.05705 0.0
C3154 C 0.5313 0.4021 0.04481 0.0
C3155 C 0.55723 0.40897 0.05835 0.0
C3156 C 0.57004 0.40564 0.07023 0.0
C3157 C 0.57645 0.38909 0.06966 0.0
C3158 C 0.58847 0.38602 0.08096 0.0
C3159 C 0.59428 0.39945 0.0928 0.0
C3160 C 0.5881 0.41598 0.09333 0.0
C3161 C 0.57606 0.41911 0.08207 0.0
H3162 H 0.60359 0.39705 0.10153 0.0
H3163 H 0.48944 0.42552 0.98872 0.0
H3164 H 0.70057 0.2474 0.2648 0.0
H3165 H 0.67866 0.25416 0.24655 0.0
H3166 H 0.65333 0.20603 0.25526 0.0
H3167 H 0.67532 0.19935 0.27359 0.0
H3168 H 0.65174 0.21254 0.22197 0.0
H3169 H 0.64261 0.24335 0.27693 0.0
H3170 H 0.65015 0.26302 0.3024 0.0
H3171 H 0.65824 0.30513 0.27195 0.0
H3172 H 0.65103 0.28563 0.24623 0.0
H3173 H 0.57419 0.23325 0.19537 0.0
H3174 H 0.59693 0.22535 0.21166 0.0
H3175 H 0.62136 0.2746 0.20547 0.0
H3176 H 0.59863 0.2826 0.18911 0.0
H3177 H 0.62353 0.26733 0.23739 0.0
H3178 H 0.63279 0.23671 0.18243 0.0
H3179 H 0.62587 0.21702 0.15677 0.0
H3180 H 0.61779 0.17469 0.18696 0.0
H3181 H 0.62445 0.1942 0.21284 0.0
C3182 C 0.69032 0.23829 0.26273 0.0
C3183 C 0.68949 0.22294 0.27064 0.0
C3184 C 0.67783 0.24213 0.25234 0.0
C3185 C 0.66423 0.23072 0.24973 0.0
C3186 C 0.66368 0.21504 0.25711 0.0
C3187 C 0.67621 0.21121 0.26753 0.0
C3188 C 0.65035 0.23548 0.2398 0.0
C3189 C 0.64543 0.2244 0.22545 0.0
C3190 C 0.64233 0.25115 0.24414 0.0
C3191 C 0.64642 0.26298 0.25963 0.0
C3192 C 0.64611 0.25677 0.27564 0.0
C3193 C 0.65032 0.2679 0.29013 0.0
C3194 C 0.65471 0.2853 0.28879 0.0
C3195 C 0.65486 0.29164 0.27296 0.0
C3196 C 0.6507 0.28056 0.25843 0.0
C3197 C 0.58447 0.24235 0.19731 0.0
C3198 C 0.58459 0.25854 0.19083 0.0
C3199 C 0.59747 0.23781 0.20666 0.0
C3200 C 0.61098 0.24928 0.20963 0.0
C3201 C 0.61108 0.26553 0.20335 0.0
C3202 C 0.59805 0.27011 0.19403 0.0
C3203 C 0.6249 0.24442 0.21947 0.0
C3204 C 0.62983 0.25547 0.23386 0.0
C3205 C 0.63293 0.22873 0.21514 0.0
C3206 C 0.62897 0.21696 0.19959 0.0
C3207 C 0.62942 0.22324 0.18361 0.0
C3208 C 0.62556 0.2121 0.16902 0.0
C3209 C 0.62135 0.19463 0.17024 0.0
C3210 C 0.62103 0.18824 0.18604 0.0
C3211 C 0.62486 0.19932 0.20067 0.0
H3212 H 0.61837 0.18603 0.15893 0.0
H3213 H 0.65797 0.29389 0.30002 0.0
H3214 H 0.49758 0.06868 0.98971 0.0
H3215 H 0.50737 0.09576 0.0062 0.0
H3216 H 0.46708 0.12225 0.98903 0.0
H3217 H 0.45755 0.09524 0.97244 0.0
H3218 H 0.49408 0.14383 0.99247 0.0
H3219 H 0.46417 0.10428 0.02553 0.0
H3220 H 0.45841 0.07621 0.03678 0.0
H3221 H 0.50487 0.07994 0.06032 0.0
H3222 H 0.511 0.10794 0.04899 0.0
H3223 H 0.48104 0.21004 0.05995 0.0
H3224 H 0.47871 0.18476 0.03868 0.0
H3225 H 0.51888 0.16232 0.06081 0.0
H3226 H 0.52097 0.18734 0.08246 0.0
H3227 H 0.49472 0.1386 0.05425 0.0
H3228 H 0.52329 0.18017 0.02324 0.0
H3229 H 0.5283 0.20839 0.01206 0.0
H3230 H 0.48378 0.20122 0.98482 0.0
H3231 H 0.47838 0.17306 0.99604 0.0
C3232 C 0.49123 0.08049 0.98903 0.0
C3233 C 0.47684 0.08001 0.97994 0.0
C3234 C 0.49669 0.09588 0.99855 0.0
C3235 C 0.48778 0.11097 0.99911 0.0
C3236 C 0.47414 0.1108 0.98885 0.0
C3237 C 0.4687 0.09542 0.97938 0.0
C3238 C 0.49153 0.1263 0.01167 0.0
C3239 C 0.49416 0.14272 0.00598 0.0
C3240 C 0.49184 0.12484 0.0293 0.0
C3241 C 0.48812 0.1081 0.03626 0.0
C3242 C 0.4732 0.09905 0.033 0.0
C3243 C 0.46987 0.08317 0.0394 0.0
C3244 C 0.48129 0.07627 0.04921 0.0
C3245 C 0.49605 0.08528 0.05269 0.0
C3246 C 0.49946 0.10116 0.04629 0.0
C3247 C 0.48932 0.19969 0.06038 0.0
C3248 C 0.5012 0.20077 0.07294 0.0
C3249 C 0.4881 0.18531 0.04807 0.0
C3250 C 0.49876 0.17171 0.04797 0.0
C3251 C 0.51057 0.17269 0.06055 0.0
C3252 C 0.51182 0.18708 0.07285 0.0
C3253 C 0.49724 0.15622 0.03509 0.0
C3254 C 0.49491 0.13974 0.04073 0.0
C3255 C 0.49712 0.15767 0.01744 0.0
C3256 C 0.50037 0.17457 0.0106 0.0
C3257 C 0.51451 0.18467 0.01497 0.0
C3258 C 0.51743 0.20064 0.00861 0.0
C3259 C 0.50635 0.20661 0.99777 0.0
C3260 C 0.49234 0.19659 0.99323 0.0
C3261 C 0.48935 0.18061 0.99957 0.0
H3262 H 0.50863 0.21898 0.99286 0.0
H3263 H 0.47868 0.06397 0.05416 0.0
H3264 H 0.2218 0.32279 0.71437 0.0
H3265 H 0.24314 0.34596 0.71586 0.0
H3266 H 0.26698 0.32154 0.75434 0.0
H3267 H 0.24522 0.29891 0.75321 0.0
H3268 H 0.26499 0.35367 0.76463 0.0
H3269 H 0.28239 0.32323 0.71235 0.0
H3270 H 0.27958 0.309 0.68312 0.0
H3271 H 0.26695 0.3573 0.66623 0.0
H3272 H 0.2694 0.37178 0.69542 0.0
H3273 H 0.33665 0.408 0.76699 0.0
H3274 H 0.31826 0.3825 0.76104 0.0
H3275 H 0.28817 0.41185 0.73199 0.0
H3276 H 0.30652 0.43746 0.73794 0.0
H3277 H 0.29413 0.37714 0.71634 0.0
H3278 H 0.27609 0.40668 0.76975 0.0
H3279 H 0.27961 0.42016 0.79917 0.0
H3280 H 0.29498 0.37186 0.81381 0.0
H3281 H 0.29177 0.35816 0.7844 0.0
C3282 C 0.23187 0.32227 0.72278 0.0
C3283 C 0.23208 0.30915 0.73358 0.0
C3284 C 0.24405 0.33545 0.72366 0.0
C3285 C 0.25681 0.33553 0.73517 0.0
C3286 C 0.2573 0.32188 0.74541 0.0
C3287 C 0.245 0.30888 0.74469 0.0
C3288 C 0.26891 0.35043 0.73752 0.0
C3289 C 0.27155 0.35854 0.75404 0.0
C3290 C 0.27727 0.35717 0.72374 0.0
C3291 C 0.27594 0.34856 0.70612 0.0
C3292 C 0.2789 0.3308 0.70243 0.0
C3293 C 0.27738 0.32268 0.68586 0.0
C3294 C 0.27306 0.33223 0.67283 0.0
C3295 C 0.27028 0.34992 0.67634 0.0
C3296 C 0.27174 0.35809 0.69289 0.0
C3297 C 0.32619 0.40898 0.75921 0.0
C3298 C 0.323 0.42477 0.75299 0.0
C3299 C 0.31567 0.39442 0.75587 0.0
C3300 C 0.30183 0.39529 0.7461 0.0
C3301 C 0.2988 0.41089 0.73953 0.0
C3302 C 0.30921 0.42554 0.74306 0.0
C3303 C 0.29018 0.38011 0.74338 0.0
C3304 C 0.28761 0.37207 0.72684 0.0
C3305 C 0.28202 0.37325 0.75714 0.0
C3306 C 0.28386 0.38145 0.77484 0.0
C3307 C 0.28035 0.39897 0.77921 0.0
C3308 C 0.28227 0.40665 0.79589 0.0
C3309 C 0.28756 0.39689 0.80834 0.0
C3310 C 0.2909 0.37942 0.80414 0.0
C3311 C 0.28903 0.37169 0.78748 0.0
H3312 H 0.28902 0.40285 0.82125 0.0
H3313 H 0.27189 0.32593 0.66001 0.0
H3314 H 0.24683 0.70283 0.77634 0.0
H3315 H 0.26768 0.68137 0.77664 0.0
H3316 H 0.24556 0.66335 0.82152 0.0
H3317 H 0.22456 0.68478 0.82104 0.0
H3318 H 0.27987 0.66396 0.82177 0.0
H3319 H 0.23641 0.64197 0.78497 0.0
H3320 H 0.21729 0.64323 0.76174 0.0
H3321 H 0.25691 0.64668 0.72639 0.0
H3322 H 0.27629 0.64567 0.74947 0.0
H3323 H 0.31433 0.58045 0.81302 0.0
H3324 H 0.29631 0.60479 0.81672 0.0
H3325 H 0.31195 0.61993 0.76809 0.0
H3326 H 0.32983 0.59552 0.76425 0.0
H3327 H 0.28063 0.62096 0.77056 0.0
H3328 H 0.32427 0.64269 0.80687 0.0
H3329 H 0.34368 0.64226 0.82998 0.0
H3330 H 0.30449 0.63996 0.86602 0.0
H3331 H 0.28483 0.64013 0.84307 0.0
C3332 C 0.2466 0.69443 0.78638 0.0
C3333 C 0.23405 0.69526 0.79855 0.0
C3334 C 0.25848 0.6822 0.78656 0.0
C3335 C 0.25803 0.67055 0.79894 0.0
C3336 C 0.24612 0.67217 0.81183 0.0
C3337 C 0.23419 0.68442 0.8116 0.0
C3338 C 0.26914 0.65586 0.79754 0.0
C3339 C 0.27993 0.65442 0.81068 0.0
C3340 C 0.26942 0.64359 0.78293 0.0
C3341 C 0.2578 0.6439 0.76897 0.0
C3342 C 0.24105 0.6431 0.77226 0.0
C3343 C 0.23016 0.64375 0.75912 0.0
C3344 C 0.23588 0.64508 0.74261 0.0
C3345 C 0.2525 0.64568 0.73919 0.0
C3346 C 0.26344 0.64504 0.75229 0.0
C3347 C 0.31406 0.58908 0.8032 0.0
C3348 C 0.32353 0.586 0.78833 0.0
C3349 C 0.30375 0.60303 0.80533 0.0
C3350 C 0.30284 0.61439 0.79277 0.0
C3351 C 0.31236 0.61138 0.77796 0.0
C3352 C 0.32257 0.59737 0.77577 0.0
C3353 C 0.29161 0.62905 0.79472 0.0
C3354 C 0.28067 0.63047 0.78167 0.0
C3355 C 0.29128 0.64131 0.80939 0.0
C3356 C 0.30308 0.64125 0.82322 0.0
C3357 C 0.31979 0.64195 0.8197 0.0
C3358 C 0.33084 0.64178 0.83278 0.0
C3359 C 0.32532 0.64104 0.84945 0.0
C3360 C 0.30875 0.64051 0.85309 0.0
C3361 C 0.29764 0.64066 0.84006 0.0
H3362 H 0.3339 0.64091 0.85956 0.0
H3363 H 0.22744 0.64562 0.73245 0.0
H3364 H 0.9448 0.52429 0.50407 0.0
H3365 H 0.92105 0.50579 0.50963 0.0
H3366 H 0.9071 0.50461 0.45733 0.0
H3367 H 0.93014 0.52438 0.45225 0.0
H3368 H 0.88171 0.50709 0.47481 0.0
H3369 H 0.92531 0.46927 0.47463 0.0
H3370 H 0.95171 0.45934 0.48254 0.0
H3371 H 0.93544 0.45983 0.53431 0.0
H3372 H 0.909 0.46999 0.52675 0.0
H3373 H 0.84238 0.41793 0.49794 0.0
H3374 H 0.86605 0.43568 0.49036 0.0
H3375 H 0.84135 0.48214 0.50865 0.0
H3376 H 0.81738 0.46436 0.51531 0.0
H3377 H 0.88637 0.45564 0.50609 0.0
H3378 H 0.8539 0.5164 0.48921 0.0
H3379 H 0.82817 0.52342 0.47693 0.0
H3380 H 0.82334 0.4717 0.45135 0.0
H3381 H 0.84914 0.46445 0.46328 0.0
C3382 C 0.93653 0.52024 0.49385 0.0
C3383 C 0.93929 0.52578 0.47774 0.0
C3384 C 0.92307 0.50944 0.49695 0.0
C3385 C 0.91233 0.50345 0.48383 0.0
C3386 C 0.91515 0.50896 0.46768 0.0
C3387 C 0.92842 0.52009 0.46471 0.0
C3388 C 0.89806 0.49171 0.48702 0.0
C3389 C 0.88278 0.49582 0.48161 0.0
C3390 C 0.89935 0.4767 0.49553 0.0
C3391 C 0.91522 0.47054 0.50014 0.0
C3392 C 0.9274 0.46737 0.48772 0.0
C3393 C 0.94237 0.46168 0.49214 0.0
C3394 C 0.94526 0.45899 0.50892 0.0
C3395 C 0.93318 0.46194 0.52132 0.0
C3396 C 0.9182 0.46764 0.51697 0.0
C3397 C 0.84204 0.43194 0.50026 0.0
C3398 C 0.82806 0.4398 0.50709 0.0
C3399 C 0.85557 0.4421 0.49597 0.0
C3400 C 0.85551 0.46034 0.49866 0.0
C3401 C 0.84163 0.46815 0.50595 0.0
C3402 C 0.82796 0.458 0.50986 0.0
C3403 C 0.87 0.47111 0.49402 0.0
C3404 C 0.88531 0.46686 0.49921 0.0
C3405 C 0.86883 0.48555 0.48466 0.0
C3406 C 0.85337 0.48985 0.47728 0.0
C3407 C 0.84738 0.50655 0.48091 0.0
C3408 C 0.83277 0.51056 0.47402 0.0
C3409 C 0.8241 0.498 0.46341 0.0
C3410 C 0.83004 0.48141 0.45962 0.0
C3411 C 0.84464 0.47734 0.46645 0.0
H3412 H 0.81279 0.50113 0.45811 0.0
H3413 H 0.95686 0.45459 0.51232 0.0
H3414 H 0.78268 0.84339 0.82715 0.0
H3415 H 0.76329 0.86542 0.82262 0.0
H3416 H 0.75664 0.84196 0.77117 0.0
H3417 H 0.77599 0.8199 0.77582 0.0
H3418 H 0.76036 0.87697 0.77254 0.0
H3419 H 0.72813 0.83631 0.80169 0.0
H3420 H 0.72148 0.81825 0.82478 0.0
H3421 H 0.72071 0.86397 0.86064 0.0
H3422 H 0.72761 0.88229 0.83779 0.0
H3423 H 0.69183 0.92308 0.75451 0.0
H3424 H 0.70993 0.90009 0.75913 0.0
H3425 H 0.71495 0.92122 0.81148 0.0
H3426 H 0.69626 0.94378 0.80718 0.0
H3427 H 0.71193 0.88707 0.80948 0.0
H3428 H 0.74468 0.92774 0.781 0.0
H3429 H 0.75195 0.94614 0.75833 0.0
H3430 H 0.75234 0.90097 0.72176 0.0
H3431 H 0.74485 0.8823 0.74418 0.0
C3432 C 0.77692 0.8429 0.81496 0.0
C3433 C 0.78074 0.82998 0.80184 0.0
C3434 C 0.76587 0.85546 0.81235 0.0
C3435 C 0.75837 0.85529 0.79657 0.0
C3436 C 0.76226 0.84239 0.78343 0.0
C3437 C 0.77329 0.82981 0.78607 0.0
C3438 C 0.74662 0.86865 0.79372 0.0
C3439 C 0.74965 0.87901 0.78047 0.0
C3440 C 0.73283 0.87164 0.80431 0.0
C3441 C 0.72853 0.86066 0.81805 0.0
C3442 C 0.72666 0.8425 0.81452 0.0
C3443 C 0.72283 0.83222 0.82756 0.0
C3444 C 0.72071 0.83995 0.84418 0.0
C3445 C 0.72237 0.858 0.84777 0.0
C3446 C 0.72623 0.86834 0.83477 0.0
C3447 C 0.6966 0.92274 0.76708 0.0
C3448 C 0.69257 0.9354 0.78045 0.0
C3449 C 0.70713 0.90967 0.76965 0.0
C3450 C 0.71405 0.90902 0.7856 0.0
C3451 C 0.70986 0.92145 0.79903 0.0
C3452 C 0.69927 0.93448 0.79649 0.0
C3453 C 0.72566 0.89544 0.7883 0.0
C3454 C 0.72262 0.88503 0.80153 0.0
C3455 C 0.73949 0.89246 0.77774 0.0
C3456 C 0.74404 0.90365 0.76424 0.0
C3457 C 0.74619 0.92174 0.7681 0.0
C3458 C 0.75037 0.93222 0.7553 0.0
C3459 C 0.75256 0.92473 0.73861 0.0
C3460 C 0.75062 0.90675 0.73469 0.0
C3461 C 0.74642 0.89621 0.74744 0.0
H3462 H 0.7558 0.93287 0.72872 0.0
H3463 H 0.71775 0.83197 0.85426 0.0
H3464 H 0.56526 0.5178 0.99819 0.0
H3465 H 0.59152 0.53303 0.00362 0.0
H3466 H 0.6155 0.48592 0.98618 0.0
H3467 H 0.58906 0.47087 0.98037 0.0
H3468 H 0.61795 0.53192 0.02116 0.0
H3469 H 0.64826 0.4963 0.96175 0.0
H3470 H 0.64038 0.47993 0.93446 0.0
H3471 H 0.59657 0.50762 0.93515 0.0
H3472 H 0.60431 0.52433 0.96228 0.0
H3473 H 0.69939 0.56437 0.01901 0.0
H3474 H 0.67529 0.54512 0.01865 0.0
H3475 H 0.65998 0.56416 0.97272 0.0
H3476 H 0.68458 0.58263 0.97235 0.0
H3477 H 0.65352 0.53138 0.97007 0.0
H3478 H 0.64372 0.57784 0.01352 0.0
H3479 H 0.64928 0.59753 0.03956 0.0
H3480 H 0.64845 0.55398 0.06866 0.0
H3481 H 0.64308 0.534 0.04275 0.0
C3482 C 0.57617 0.51063 0.99602 0.0
C3483 C 0.57523 0.49324 0.98883 0.0
C3484 C 0.59117 0.51931 0.99909 0.0
C3485 C 0.60557 0.51077 0.99499 0.0
C3486 C 0.60459 0.49291 0.98918 0.0
C3487 C 0.58952 0.48424 0.98606 0.0
C3488 C 0.62132 0.521 0.99525 0.0
C3489 C 0.62581 0.53166 0.01004 0.0
C3490 C 0.63141 0.52114 0.98061 0.0
C3491 C 0.62678 0.51139 0.96414 0.0
C3492 C 0.63698 0.49893 0.95603 0.0
C3493 C 0.63253 0.4896 0.9406 0.0
C3494 C 0.61796 0.49269 0.93311 0.0
C3495 C 0.60783 0.50519 0.94099 0.0
C3496 C 0.61224 0.51459 0.9564 0.0
C3497 C 0.69108 0.56431 0.00863 0.0
C3498 C 0.69407 0.57522 0.99572 0.0
C3499 C 0.67712 0.55341 0.00859 0.0
C3500 C 0.66557 0.55331 0.99582 0.0
C3501 C 0.66861 0.56397 0.98278 0.0
C3502 C 0.68266 0.57474 0.98271 0.0
C3503 C 0.65029 0.54225 0.99606 0.0
C3504 C 0.64583 0.53147 0.98131 0.0
C3505 C 0.63998 0.54244 0.01057 0.0
C3506 C 0.64317 0.55442 0.02617 0.0
C3507 C 0.64484 0.57245 0.02546 0.0
C3508 C 0.64794 0.58367 0.04019 0.0
C3509 C 0.64927 0.57701 0.05575 0.0
C3510 C 0.64745 0.55912 0.0566 0.0
C3511 C 0.64437 0.54784 0.0419 0.0
H3512 H 0.65166 0.58571 0.06714 0.0
H3513 H 0.61453 0.48543 0.92118 0.0
H3514 H 0.26829 0.71662 0.25075 0.0
H3515 H 0.25248 0.69122 0.25846 0.0
H3516 H 0.29221 0.65873 0.24256 0.0
H3517 H 0.30772 0.68429 0.23411 0.0
H3518 H 0.26602 0.64457 0.2291 0.0
H3519 H 0.27928 0.66698 0.28542 0.0
H3520 H 0.2826 0.68892 0.31022 0.0
H3521 H 0.2315 0.69629 0.31177 0.0
H3522 H 0.22789 0.67459 0.28681 0.0
H3523 H 0.22234 0.57072 0.25723 0.0
H3524 H 0.24277 0.59438 0.25561 0.0
H3525 H 0.20535 0.63159 0.26065 0.0
H3526 H 0.18486 0.60799 0.26225 0.0
H3527 H 0.23261 0.64153 0.28136 0.0
H3528 H 0.22067 0.62064 0.22297 0.0
H3529 H 0.218 0.59827 0.19843 0.0
H3530 H 0.26811 0.58727 0.20188 0.0
H3531 H 0.27101 0.60942 0.22662 0.0
C3532 C 0.2737 0.70407 0.24922 0.0
C3533 C 0.28913 0.70232 0.24179 0.0
C3534 C 0.26472 0.68955 0.25373 0.0
C3535 C 0.27111 0.67295 0.25121 0.0
C3536 C 0.28695 0.67135 0.24462 0.0
C3537 C 0.2959 0.68594 0.23997 0.0
C3538 C 0.2607 0.65725 0.25405 0.0
C3539 C 0.25902 0.64378 0.24072 0.0
C3540 C 0.25125 0.65622 0.26905 0.0
C3541 C 0.25334 0.66922 0.28415 0.0
C3542 C 0.26876 0.67336 0.29097 0.0
C3543 C 0.27069 0.68575 0.30507 0.0
C3544 C 0.25728 0.69401 0.31255 0.0
C3545 C 0.24189 0.68988 0.30596 0.0
C3546 C 0.23989 0.67752 0.29184 0.0
C3547 C 0.21847 0.58395 0.2581 0.0
C3548 C 0.20196 0.58747 0.25982 0.0
C3549 C 0.23016 0.59745 0.2571 0.0
C3550 C 0.2256 0.61477 0.25796 0.0
C3551 C 0.20916 0.61834 0.25997 0.0
C3552 C 0.19745 0.60483 0.26075 0.0
C3553 C 0.23789 0.62913 0.25637 0.0
C3554 C 0.23985 0.6423 0.2699 0.0
C3555 C 0.24774 0.62981 0.24166 0.0
C3556 C 0.24601 0.61653 0.22676 0.0
C3557 C 0.23108 0.61334 0.21859 0.0
C3558 C 0.22953 0.60072 0.20463 0.0
C3559 C 0.24286 0.59131 0.19863 0.0
C3560 C 0.25778 0.59454 0.20656 0.0
C3561 C 0.25939 0.60713 0.22055 0.0
H3562 H 0.24164 0.58156 0.18781 0.0
H3563 H 0.2588 0.7036 0.32347 0.0
H3564 H 0.93224 0.49709 0.07908 0.0
H3565 H 0.91065 0.51606 0.07271 0.0
H3566 H 0.93336 0.52229 0.02419 0.0
H3567 H 0.95509 0.50363 0.03089 0.0
H3568 H 0.92258 0.55249 0.03801 0.0
H3569 H 0.90039 0.49434 0.02791 0.0
H3570 H 0.89309 0.46472 0.0348 0.0
H3571 H 0.86241 0.48549 0.07565 0.0
H3572 H 0.86974 0.51527 0.06917 0.0
H3573 H 0.85386 0.58262 0.99859 0.0
H3574 H 0.87627 0.5655 0.00585 0.0
H3575 H 0.85574 0.56289 0.05589 0.0
H3576 H 0.83352 0.58042 0.04898 0.0
H3577 H 0.86539 0.531 0.04122 0.0
H3578 H 0.88782 0.58945 0.05064 0.0
H3579 H 0.89517 0.61878 0.04299 0.0
H3580 H 0.92531 0.59692 1.00218 0.0
H3581 H 0.91795 0.56741 0.00944 0.0
C3582 C 0.93259 0.5027 0.06716 0.0
C3583 C 0.94517 0.49898 0.05542 0.0
C3584 C 0.92026 0.51341 0.06345 0.0
C3585 C 0.9202 0.52043 0.04783 0.0
C3586 C 0.93307 0.51704 0.03629 0.0
C3587 C 0.94544 0.50638 0.04006 0.0
C3588 C 0.90661 0.53103 0.0434 0.0
C3589 C 0.9101 0.54768 0.03851 0.0
C3590 C 0.89025 0.52494 0.04429 0.0
C3591 C 0.88574 0.50704 0.04816 0.0
C3592 C 0.89218 0.4926 0.03844 0.0
C3593 C 0.88803 0.47578 0.04226 0.0
C3594 C 0.87732 0.47322 0.05568 0.0
C3595 C 0.87072 0.48749 0.06528 0.0
C3596 C 0.87486 0.50434 0.06153 0.0
C3597 C 0.85417 0.57865 0.01124 0.0
C3598 C 0.84178 0.58301 0.02318 0.0
C3599 C 0.867 0.56876 0.01534 0.0
C3600 C 0.86776 0.56297 0.03146 0.0
C3601 C 0.85539 0.56715 0.04335 0.0
C3602 C 0.84262 0.57713 0.03932 0.0
C3603 C 0.88138 0.55245 0.03589 0.0
C3604 C 0.87788 0.5358 0.04075 0.0
C3605 C 0.89772 0.55849 0.03484 0.0
C3606 C 0.9022 0.57621 0.03048 0.0
C3607 C 0.8959 0.59088 0.03995 0.0
C3608 C 0.90009 0.60754 0.0357 0.0
C3609 C 0.91067 0.60971 0.02208 0.0
C3610 C 0.91711 0.59522 0.01271 0.0
C3611 C 0.91294 0.57852 0.0169 0.0
H3612 H 0.9139 0.62262 0.01881 0.0
H3613 H 0.87412 0.46019 0.05862 0.0
H3614 H 0.08508 0.04541 0.06082 0.0
H3615 H 0.1096 0.02938 0.05299 0.0
H3616 H 0.08035 0.98802 0.02637 0.0
H3617 H 0.05597 0.00421 0.0342 0.0
H3618 H 0.09941 0.97655 0.05031 0.0
H3619 H 0.10662 0.01164 0.00437 0.0
H3620 H 0.10888 0.03901 0.99124 0.0
H3621 H 0.15012 0.05575 0.02177 0.0
H3622 H 0.14803 0.02848 0.03517 0.0
H3623 H 0.1625 0.92214 0.02108 0.0
H3624 H 0.13941 0.94082 0.02247 0.0
H3625 H 0.16969 0.98421 0.04377 0.0
H3626 H 0.19293 0.9656 0.04207 0.0
H3627 H 0.15013 0.99506 0.0219 0.0
H3628 H 0.14285 0.96116 0.06856 0.0
H3629 H 0.1406 0.93445 0.08283 0.0
H3630 H 0.09939 0.91648 0.05275 0.0
H3631 H 0.10153 0.94299 0.03813 0.0
C3632 C 0.08409 0.03323 0.05271 0.0
C3633 C 0.06881 0.02608 0.04783 0.0
C3634 C 0.09803 0.02402 0.04833 0.0
C3635 C 0.09684 0.00744 0.0391 0.0
C3636 C 0.08159 1.00076 0.03348 0.0
C3637 C 0.06771 0.01004 0.03775 0.0
C3638 C 0.11116 0.99636 0.03686 0.0
C3639 C 0.1104 0.98046 0.04383 0.0
C3640 C 0.12571 1.00172 0.02897 0.0
C3641 C 0.12707 0.01809 0.02088 0.0
C3642 C 0.1161 0.02122 0.00838 0.0
C3643 C 0.11736 0.03671 1.00087 0.0
C3644 C 0.12959 0.04916 0.00572 0.0
C3645 C 0.14063 0.04611 0.01804 0.0
C3646 C 0.13944 0.03061 0.02557 0.0
C3647 C 0.16423 0.93564 0.02615 0.0
C3648 C 0.17956 0.94232 0.0316 0.0
C3649 C 0.151 0.94634 0.02694 0.0
C3650 C 0.15267 0.96393 0.0335 0.0
C3651 C 0.16803 0.97072 0.03866 0.0
C3652 C 0.18133 0.96005 0.03769 0.0
C3653 C 0.13835 0.97511 0.03523 0.0
C3654 C 0.13912 0.99108 0.02829 0.0
C3655 C 0.1238 0.96992 0.04333 0.0
C3656 C 0.12245 0.95398 0.05213 0.0
C3657 C 0.13338 0.95145 0.0649 0.0
C3658 C 0.13211 0.93636 0.07306 0.0
C3659 C 0.11988 0.92375 0.06867 0.0
C3660 C 0.10887 0.92624 0.05613 0.0
C3661 C 0.1101 0.9413 0.04791 0.0
H3662 H 0.11892 0.91208 0.075 0.0
H3663 H 0.13055 0.06116 0.9999 0.0
loop_
_geom_bond_atom_site_label_1
_geom_bond_atom_site_label_2
_geom_bond_distance
_geom_bond_site_symmetry_2
_ccdc_geom_bond_type
C0 N1 1.317 1_565 S
C0 N2 1.348 1_565 S
C0 C3 1.485 . S
N1 C0 1.317 1_545 S
N1 N5 1.370 . S
N2 C0 1.348 1_545 S
N2 C4 1.346 . S
C3 C0 1.485 . S
C3 H7 0.960 . S
C3 H8 0.961 . S
C3 H9 0.960 . S
C4 N2 1.346 . S
C4 N5 1.307 . S
C4 C6 1.486 1_455 S
N5 N1 1.370 . S
N5 C4 1.307 . S
C6 C4 1.486 1_655 S
C6 H10 0.960 . S
C6 H11 0.960 . S
C6 H12 0.959 . S
H7 C3 0.960 . S
H8 C3 0.961 . S
H9 C3 0.960 . S
H10 C6 0.960 . S
H11 C6 0.960 . S
H12 C6 0.959 . S
C13 N14 1.317 . S
C13 N15 1.348 . S
C13 C16 1.485 . S
N14 C13 1.317 . S
N14 N18 1.370 . S
N15 C13 1.348 . S
N15 C17 1.346 . S
C16 C13 1.485 . S
C16 H20 0.960 . S
C16 H21 0.961 . S
C16 H22 0.960 . S
C17 N15 1.346 . S
C17 N18 1.307 . S
C17 C19 1.486 . S
N18 N14 1.370 . S
N18 C17 1.307 . S
C19 C17 1.486 . S
C19 H23 0.960 . S
C19 H24 0.960 . S
C19 H25 0.959 . S
H20 C16 0.960 . S
H21 C16 0.961 . S
H22 C16 0.960 . S
H23 C19 0.960 . S
H24 C19 0.960 . S
H25 C19 0.959 . S
C26 N27 1.317 . S
C26 N28 1.348 . S
C26 C29 1.485 . S
N27 C26 1.317 . S
N27 N31 1.370 . S
N28 C26 1.348 . S
N28 C30 1.346 . S
C29 C26 1.485 . S
C29 H33 0.960 . S
C29 H34 0.961 . S
C29 H35 0.960 . S
C30 N28 1.346 . S
C30 N31 1.307 . S
C30 C32 1.486 . S
N31 N27 1.370 . S
N31 C30 1.307 . S
C32 C30 1.486 . S
C32 H36 0.960 . S
C32 H37 0.960 . S
C32 H38 0.959 . S
H33 C29 0.960 . S
H34 C29 0.961 . S
H35 C29 0.960 . S
H36 C32 0.960 . S
H37 C32 0.960 . S
H38 C32 0.959 . S
C39 N40 1.317 . S
C39 N41 1.348 . S
C39 C42 1.485 . S
N40 C39 1.317 . S
N40 N44 1.370 . S
N41 C39 1.348 . S
N41 C43 1.346 . S
C42 C39 1.485 . S
C42 H46 0.960 . S
C42 H47 0.961 . S
C42 H48 0.960 . S
C43 N41 1.346 . S
C43 N44 1.307 . S
C43 C45 1.486 . S
N44 N40 1.370 . S
N44 C43 1.307 . S
C45 C43 1.486 . S
C45 H49 0.960 . S
C45 H50 0.960 . S
C45 H51 0.959 . S
H46 C42 0.960 . S
H47 C42 0.961 . S
H48 C42 0.960 . S
H49 C45 0.960 . S
H50 C45 0.960 . S
H51 C45 0.959 . S
C52 N53 1.317 . S
C52 N54 1.348 . S
C52 C55 1.485 . S
N53 C52 1.317 . S
N53 N57 1.370 . S
N54 C52 1.348 . S
N54 C56 1.346 . S
C55 C52 1.485 . S
C55 H59 0.960 . S
C55 H60 0.961 . S
C55 H61 0.960 . S
C56 N54 1.346 . S
C56 N57 1.307 . S
C56 C58 1.486 1_565 S
N57 N53 1.370 . S
N57 C56 1.307 . S
C58 C56 1.486 1_545 S
C58 H62 0.960 . S
C58 H63 0.960 . S
C58 H64 0.959 . S
H59 C55 0.960 . S
H60 C55 0.961 . S
H61 C55 0.960 . S
H62 C58 0.960 . S
H63 C58 0.960 . S
H64 C58 0.959 . S
C65 N66 1.317 . S
C65 N67 1.348 . S
C65 C68 1.485 . S
N66 C65 1.317 . S
N66 N70 1.370 . S
N67 C65 1.348 . S
N67 C69 1.346 . S
C68 C65 1.485 . S
C68 H72 0.960 . S
C68 H73 0.961 . S
C68 H74 0.960 . S
C69 N67 1.346 . S
C69 N70 1.307 . S
C69 C71 1.486 . S
N70 N66 1.370 . S
N70 C69 1.307 . S
C71 C69 1.486 . S
C71 H75 0.960 . S
C71 H76 0.960 . S
C71 H77 0.959 . S
H72 C68 0.960 . S
H73 C68 0.961 . S
H74 C68 0.960 . S
H75 C71 0.960 . S
H76 C71 0.960 . S
H77 C71 0.959 . S
C78 N79 1.317 . S
C78 N80 1.348 . S
C78 C81 1.485 . S
N79 C78 1.317 . S
N79 N83 1.370 . S
N80 C78 1.348 . S
N80 C82 1.346 . S
C81 C78 1.485 . S
C81 H85 0.960 . S
C81 H86 0.961 . S
C81 H87 0.960 . S
C82 N80 1.346 . S
C82 N83 1.307 . S
C82 C84 1.486 . S
N83 N79 1.370 . S
N83 C82 1.307 . S
C84 C82 1.486 . S
C84 H88 0.960 . S
C84 H89 0.960 . S
C84 H90 0.959 . S
H85 C81 0.960 . S
H86 C81 0.961 . S
H87 C81 0.960 . S
H88 C84 0.960 . S
H89 C84 0.960 . S
H90 C84 0.959 . S
C91 N92 1.317 . S
C91 N93 1.348 . S
C91 C94 1.485 . S
N92 C91 1.317 . S
N92 N96 1.370 . S
N93 C91 1.348 . S
N93 C95 1.346 . S
C94 C91 1.485 . S
C94 H98 0.960 . S
C94 H99 0.961 . S
C94 H100 0.960 . S
C95 N93 1.346 . S
C95 N96 1.307 . S
C95 C97 1.486 . S
N96 N92 1.370 . S
N96 C95 1.307 . S
C97 C95 1.486 . S
C97 H101 0.960 . S
C97 H102 0.960 . S
C97 H103 0.959 . S
H98 C94 0.960 . S
H99 C94 0.961 . S
H100 C94 0.960 . S
H101 C97 0.960 . S
H102 C97 0.960 . S
H103 C97 0.959 . S
C104 N105 1.317 . S
C104 N106 1.348 . S
C104 C107 1.485 . S
N105 C104 1.317 . S
N105 N109 1.370 . S
N106 C104 1.348 . S
N106 C108 1.346 . S
C107 C104 1.485 . S
C107 H111 0.960 . S
C107 H112 0.961 . S
C107 H113 0.960 . S
C108 N106 1.346 . S
C108 N109 1.307 . S
C108 C110 1.486 . S
N109 N105 1.370 . S
N109 C108 1.307 . S
C110 C108 1.486 . S
C110 H114 0.960 . S
C110 H115 0.960 . S
C110 H116 0.959 . S
H111 C107 0.960 . S
H112 C107 0.961 . S
H113 C107 0.960 . S
H114 C110 0.960 . S
H115 C110 0.960 . S
H116 C110 0.959 . S
C117 N118 1.317 . S
C117 N119 1.348 . S
C117 C120 1.485 1_565 S
N118 C117 1.317 . S
N118 N122 1.370 . S
N119 C117 1.348 . S
N119 C121 1.346 . S
C120 C117 1.485 1_545 S
C120 H124 0.960 . S
C120 H125 0.961 . S
C120 H126 0.960 . S
C121 N119 1.346 . S
C121 N122 1.307 . S
C121 C123 1.486 . S
N122 N118 1.370 . S
N122 C121 1.307 . S
C123 C121 1.486 . S
C123 H127 0.960 . S
C123 H128 0.960 . S
C123 H129 0.959 . S
H124 C120 0.960 . S
H125 C120 0.961 . S
H126 C120 0.960 . S
H127 C123 0.960 . S
H128 C123 0.960 . S
H129 C123 0.959 . S
C130 N131 1.317 . S
C130 N132 1.348 . S
C130 C133 1.485 . S
N131 C130 1.317 . S
N131 N135 1.370 . S
N132 C130 1.348 . S
N132 C134 1.346 . S
C133 C130 1.485 . S
C133 H137 0.960 . S
C133 H138 0.961 . S
C133 H139 0.960 . S
C134 N132 1.346 . S
C134 N135 1.307 . S
C134 C136 1.486 . S
N135 N131 1.370 . S
N135 C134 1.307 . S
C136 C134 1.486 . S
C136 H140 0.960 . S
C136 H141 0.960 . S
C136 H142 0.959 . S
H137 C133 0.960 . S
H138 C133 0.961 . S
H139 C133 0.960 . S
H140 C136 0.960 . S
H141 C136 0.960 . S
H142 C136 0.959 . S
C143 N144 1.317 . S
C143 N145 1.348 . S
C143 C146 1.485 . S
N144 C143 1.317 . S
N144 N148 1.370 . S
N145 C143 1.348 . S
N145 C147 1.346 . S
C146 C143 1.485 . S
C146 H150 0.960 . S
C146 H151 0.961 . S
C146 H152 0.960 . S
C147 N145 1.346 . S
C147 N148 1.307 . S
C147 C149 1.486 . S
N148 N144 1.370 . S
N148 C147 1.307 . S
C149 C147 1.486 . S
C149 H153 0.960 . S
C149 H154 0.960 . S
C149 H155 0.959 . S
H150 C146 0.960 . S
H151 C146 0.961 . S
H152 C146 0.960 . S
H153 C149 0.960 . S
H154 C149 0.960 . S
H155 C149 0.959 . S
C156 N157 1.317 . S
C156 N158 1.348 . S
C156 C159 1.485 . S
N157 C156 1.317 . S
N157 N161 1.370 . S
N158 C156 1.348 . S
N158 C160 1.346 . S
C159 C156 1.485 . S
C159 H163 0.960 . S
C159 H164 0.961 . S
C159 H165 0.960 . S
C160 N158 1.346 . S
C160 N161 1.307 . S
C160 C162 1.486 . S
N161 N157 1.370 . S
N161 C160 1.307 . S
C162 C160 1.486 . S
C162 H166 0.960 . S
C162 H167 0.960 . S
C162 H168 0.959 . S
H163 C159 0.960 . S
H164 C159 0.961 . S
H165 C159 0.960 . S
H166 C162 0.960 . S
H167 C162 0.960 . S
H168 C162 0.959 . S
C169 N170 1.317 . S
C169 N171 1.348 . S
C169 C172 1.485 . S
N170 C169 1.317 . S
N170 N174 1.370 . S
N171 C169 1.348 . S
N171 C173 1.346 . S
C172 C169 1.485 . S
C172 H176 0.960 . S
C172 H177 0.961 . S
C172 H178 0.960 . S
C173 N171 1.346 . S
C173 N174 1.307 . S
C173 C175 1.486 . S
N174 N170 1.370 . S
N174 C173 1.307 . S
C175 C173 1.486 . S
C175 H179 0.960 . S
C175 H180 0.960 . S
C175 H181 0.959 . S
H176 C172 0.960 . S
H177 C172 0.961 . S
H178 C172 0.960 . S
H179 C175 0.960 . S
H180 C175 0.960 . S
H181 C175 0.959 . S
C182 N183 1.317 . S
C182 N184 1.348 . S
C182 C185 1.485 . S
N183 C182 1.317 . S
N183 N187 1.370 . S
N184 C182 1.348 . S
N184 C186 1.346 . S
C185 C182 1.485 . S
C185 H189 0.960 . S
C185 H190 0.961 . S
C185 H191 0.960 . S
C186 N184 1.346 . S
C186 N187 1.307 . S
C186 C188 1.486 . S
N187 N183 1.370 . S
N187 C186 1.307 . S
C188 C186 1.486 . S
C188 H192 0.960 . S
C188 H193 0.960 . S
C188 H194 0.959 . S
H189 C185 0.960 . S
H190 C185 0.961 . S
H191 C185 0.960 . S
H192 C188 0.960 . S
H193 C188 0.960 . S
H194 C188 0.959 . S
C195 N196 1.317 . S
C195 N197 1.348 . S
C195 C198 1.485 . S
N196 C195 1.317 . S
N196 N200 1.370 . S
N197 C195 1.348 . S
N197 C199 1.346 . S
C198 C195 1.485 . S
C198 H202 0.960 . S
C198 H203 0.961 . S
C198 H204 0.960 . S
C199 N197 1.346 . S
C199 N200 1.307 . S
C199 C201 1.486 1_556 S
N200 N196 1.370 . S
N200 C199 1.307 . S
C201 C199 1.486 1_554 S
C201 H205 0.960 . S
C201 H206 0.979 . S
C201 H207 0.959 . S
H202 C198 0.960 . S
H203 C198 0.961 . S
H204 C198 0.960 . S
H205 C201 0.960 . S
H206 C201 0.979 . S
H207 C201 0.959 . S
Li208 N225 1.990 . S
Li208 O268 1.956 . S
Li208 O269 1.970 . S
Li208 O270 1.961 1_554 S
Li209 N233 1.990 . S
Li209 O268 1.970 . S
Li209 O269 1.956 . S
Li209 O271 1.961 . S
Li210 N255 1.990 . S
Li210 O268 1.961 1_556 S
Li210 O270 1.956 . S
Li210 O271 1.970 1_556 S
Li211 N261 1.990 . S
Li211 O269 1.961 . S
Li211 O270 1.970 1_554 S
Li211 O271 1.956 . S
C212 C214 1.348 . S
C212 C215 1.356 1_554 S
C212 O268 1.325 . S
N213 C216 1.314 1_556 S
N213 C217 1.279 . S
C214 C212 1.348 . S
C214 C216 1.353 . S
C214 H272 0.929 . S
C215 C212 1.356 1_556 S
C215 C217 1.358 . S
C215 H273 0.930 . S
C216 N213 1.314 1_554 S
C216 C214 1.353 . S
C216 H274 0.930 . S
C217 N213 1.279 . S
C217 C215 1.358 . S
C217 H275 0.930 . S
C218 C221 1.348 . S
C218 C222 1.356 . S
C218 O269 1.325 . S
C219 N220 1.279 . S
C219 C222 1.358 . S
C219 H276 0.930 . S
N220 C219 1.279 . S
N220 C223 1.314 . S
C221 C218 1.348 . S
C221 C223 1.353 . S
C221 H277 0.929 . S
C222 C218 1.356 . S
C222 C219 1.358 . S
C222 H278 0.930 . S
C223 N220 1.314 . S
C223 C221 1.353 . S
C223 H279 0.930 . S
C224 N225 1.314 . S
C224 C229 1.352 1_554 S
C224 H230 0.932 . S
N225 Li208 1.990 . S
N225 C224 1.314 . S
N225 C227 1.279 . S
C226 C227 1.358 . S
C226 C228 1.356 . S
C226 H280 0.930 . S
C227 N225 1.279 . S
C227 C226 1.358 . S
C227 H231 0.930 . S
C228 C226 1.356 . S
C228 C229 1.346 1_554 S
C229 C224 1.352 1_556 S
C229 C228 1.346 1_556 S
C229 H281 0.932 . S
H230 C224 0.932 . S
H231 C227 0.930 . S
C232 N233 1.314 . S
C232 C234 1.353 . S
C232 H238 0.930 . S
N233 Li209 1.990 . S
N233 C232 1.314 . S
N233 C236 1.279 . S
C234 C232 1.353 . S
C234 C237 1.348 . S
C234 H282 0.929 . S
C235 C236 1.358 . S
C235 C237 1.356 . S
C235 H283 0.930 . S
C236 N233 1.279 . S
C236 C235 1.358 . S
C236 H239 0.930 . S
C237 C234 1.348 . S
C237 C235 1.356 . S
H238 C232 0.930 . S
H239 C236 0.930 . S
C240 C242 1.348 . S
C240 C243 1.356 . S
C240 O270 1.325 . S
N241 C244 1.314 . S
N241 C245 1.279 . S
C242 C240 1.348 . S
C242 C244 1.353 . S
C242 H284 0.929 . S
C243 C240 1.356 . S
C243 C245 1.358 . S
C243 H285 0.930 . S
C244 N241 1.314 . S
C244 C242 1.353 . S
C244 H286 0.930 . S
C245 N241 1.279 . S
C245 C243 1.358 . S
C245 H287 0.930 . S
C246 C247 1.304 1_554 S
C246 C248 1.356 . S
C246 O271 1.325 . S
C247 C246 1.304 1_556 S
C247 C249 1.341 1_556 S
C247 H288 0.987 . S
C248 C246 1.356 . S
C248 C250 1.358 . S
C248 H289 0.930 . S
C249 C247 1.341 1_554 S
C249 N251 1.314 . S
C249 H290 0.930 1_554 S
C250 C248 1.358 . S
C250 N251 1.279 . S
C250 H291 0.930 . S
N251 C249 1.314 . S
N251 C250 1.279 . S
C252 C254 1.353 . S
C252 N255 1.314 . S
C252 H258 0.930 . S
C253 N255 1.279 . S
C253 C256 1.358 . S
C253 H259 0.930 . S
C254 C252 1.353 . S
C254 C257 1.348 . S
C254 H292 0.929 . S
N255 Li210 1.990 . S
N255 C252 1.314 . S
N255 C253 1.279 . S
C256 C253 1.358 . S
C256 C257 1.356 . S
C256 H293 0.930 . S
C257 C254 1.348 . S
C257 C256 1.356 . S
H258 C252 0.930 . S
H259 C253 0.930 . S
C260 N261 1.314 . S
C260 C262 1.353 . S
C260 H266 0.930 . S
N261 Li211 1.990 . S
N261 C260 1.314 . S
N261 C264 1.279 . S
C262 C260 1.353 . S
C262 C265 1.348 . S
C262 H294 0.929 . S
C263 C264 1.358 . S
C263 C265 1.356 . S
C263 H295 0.930 . S
C264 N261 1.279 . S
C264 C263 1.358 . S
C264 H267 0.930 . S
C265 C262 1.348 . S
C265 C263 1.356 . S
H266 C260 0.930 . S
H267 C264 0.930 . S
O268 Li208 1.956 . S
O268 Li209 1.970 . S
O268 Li210 1.961 1_554 S
O268 C212 1.325 . S
O269 Li208 1.970 . S
O269 Li209 1.956 . S
O269 Li211 1.961 . S
O269 C218 1.325 . S
O270 Li208 1.961 1_556 S
O270 Li210 1.956 . S
O270 Li211 1.970 1_556 S
O270 C240 1.325 . S
O271 Li209 1.961 . S
O271 Li210 1.970 1_554 S
O271 Li211 1.956 . S
O271 C246 1.325 . S
H272 C214 0.929 . S
H273 C215 0.930 . S
H274 C216 0.930 . S
H275 C217 0.930 . S
H276 C219 0.930 . S
H277 C221 0.929 . S
H278 C222 0.930 . S
H279 C223 0.930 . S
H280 C226 0.930 . S
H281 C229 0.932 . S
H282 C234 0.929 . S
H283 C235 0.930 . S
H284 C242 0.929 . S
H285 C243 0.930 . S
H286 C244 0.930 . S
H287 C245 0.930 . S
H288 C247 0.987 . S
H289 C248 0.930 . S
H290 C249 0.930 1_556 S
H291 C250 0.930 . S
H292 C254 0.929 . S
H293 C256 0.930 . S
H294 C262 0.929 . S
H295 C263 0.930 . S
Li296 N313 1.990 . S
Li296 O356 1.956 . S
Li296 O357 1.970 . S
Li296 O358 1.961 . S
Li297 N321 1.990 . S
Li297 O356 1.970 . S
Li297 O357 1.956 . S
Li297 O359 1.961 . S
Li298 N343 1.990 . S
Li298 O356 1.961 . S
Li298 O358 1.956 . S
Li298 O359 1.970 . S
Li299 N349 1.990 . S
Li299 O357 1.961 . S
Li299 O358 1.970 . S
Li299 O359 1.956 . S
C300 C302 1.348 . S
C300 C303 1.356 . S
C300 O356 1.325 . S
N301 C304 1.314 . S
N301 C305 1.279 . S
C302 C300 1.348 . S
C302 C304 1.353 . S
C302 H360 0.929 . S
C303 C300 1.356 . S
C303 C305 1.358 . S
C303 H361 0.930 . S
C304 N301 1.314 . S
C304 C302 1.353 . S
C304 H362 0.930 . S
C305 N301 1.279 . S
C305 C303 1.358 . S
C305 H363 0.930 . S
C306 C309 1.348 . S
C306 C310 1.356 . S
C306 O357 1.325 . S
C307 N308 1.279 . S
C307 C310 1.358 . S
C307 H364 0.930 . S
N308 C307 1.279 . S
N308 C311 1.314 . S
C309 C306 1.348 . S
C309 C311 1.353 . S
C309 H365 0.929 . S
C310 C306 1.356 . S
C310 C307 1.358 . S
C310 H366 0.930 . S
C311 N308 1.314 . S
C311 C309 1.353 . S
C311 H367 0.930 . S
C312 N313 1.314 . S
C312 C317 1.353 . S
C312 H318 0.930 . S
N313 Li296 1.990 . S
N313 C312 1.314 . S
N313 C315 1.279 . S
C314 C315 1.358 . S
C314 C316 1.356 . S
C314 H368 0.930 . S
C315 N313 1.279 . S
C315 C314 1.358 . S
C315 H319 0.930 . S
C316 C314 1.356 . S
C316 C317 1.348 . S
C317 C312 1.353 . S
C317 C316 1.348 . S
C317 H369 0.929 . S
H318 C312 0.930 . S
H319 C315 0.930 . S
C320 N321 1.314 . S
C320 C322 1.353 . S
C320 H326 0.930 . S
N321 Li297 1.990 . S
N321 C320 1.314 . S
N321 C324 1.279 . S
C322 C320 1.353 . S
C322 C325 1.348 . S
C322 H370 0.929 . S
C323 C324 1.358 . S
C323 C325 1.356 . S
C323 H371 0.930 . S
C324 N321 1.279 . S
C324 C323 1.358 . S
C324 H327 0.930 . S
C325 C322 1.348 . S
C325 C323 1.356 . S
H326 C320 0.930 . S
H327 C324 0.930 . S
C328 C330 1.348 . S
C328 C331 1.356 . S
C328 O358 1.325 . S
N329 C332 1.314 . S
N329 C333 1.279 . S
C330 C328 1.348 . S
C330 C332 1.353 . S
C330 H372 0.929 . S
C331 C328 1.356 . S
C331 C333 1.358 . S
C331 H373 0.930 . S
C332 N329 1.314 . S
C332 C330 1.353 . S
C332 H374 0.930 . S
C333 N329 1.279 . S
C333 C331 1.358 . S
C333 H375 0.930 . S
C334 C335 1.348 . S
C334 C336 1.356 . S
C334 O359 1.325 . S
C335 C334 1.348 . S
C335 C337 1.353 . S
C335 H376 0.929 . S
C336 C334 1.356 . S
C336 C338 1.358 . S
C336 H377 0.930 . S
C337 C335 1.353 . S
C337 N339 1.314 . S
C337 H378 0.930 . S
C338 C336 1.358 . S
C338 N339 1.279 . S
C338 H379 0.930 . S
N339 C337 1.314 . S
N339 C338 1.279 . S
C340 C342 1.353 . S
C340 N343 1.314 . S
C340 H346 0.930 . S
C341 N343 1.279 . S
C341 C344 1.358 . S
C341 H347 0.930 . S
C342 C340 1.353 . S
C342 C345 1.348 . S
C342 H380 0.929 . S
N343 Li298 1.990 . S
N343 C340 1.314 . S
N343 C341 1.279 . S
C344 C341 1.358 . S
C344 C345 1.356 . S
C344 H381 0.930 . S
C345 C342 1.348 . S
C345 C344 1.356 . S
H346 C340 0.930 . S
H347 C341 0.930 . S
C348 N349 1.314 . S
C348 C350 1.353 . S
C348 H354 0.930 . S
N349 Li299 1.990 . S
N349 C348 1.314 . S
N349 C352 1.279 . S
C350 C348 1.353 . S
C350 C353 1.348 . S
C350 H382 0.929 . S
C351 C352 1.358 . S
C351 C353 1.356 . S
C351 H383 0.930 . S
C352 N349 1.279 . S
C352 C351 1.358 . S
C352 H355 0.930 . S
C353 C350 1.348 . S
C353 C351 1.356 . S
H354 C348 0.930 . S
H355 C352 0.930 . S
O356 Li296 1.956 . S
O356 Li297 1.970 . S
O356 Li298 1.961 . S
O356 C300 1.325 . S
O357 Li296 1.970 . S
O357 Li297 1.956 . S
O357 Li299 1.961 . S
O357 C306 1.325 . S
O358 Li296 1.961 . S
O358 Li298 1.956 . S
O358 Li299 1.970 . S
O358 C328 1.325 . S
O359 Li297 1.961 . S
O359 Li298 1.970 . S
O359 Li299 1.956 . S
O359 C334 1.325 . S
H360 C302 0.929 . S
H361 C303 0.930 . S
H362 C304 0.930 . S
H363 C305 0.930 . S
H364 C307 0.930 . S
H365 C309 0.929 . S
H366 C310 0.930 . S
H367 C311 0.930 . S
H368 C314 0.930 . S
H369 C317 0.929 . S
H370 C322 0.929 . S
H371 C323 0.930 . S
H372 C330 0.929 . S
H373 C331 0.930 . S
H374 C332 0.930 . S
H375 C333 0.930 . S
H376 C335 0.929 . S
H377 C336 0.930 . S
H378 C337 0.930 . S
H379 C338 0.930 . S
H380 C342 0.929 . S
H381 C344 0.930 . S
H382 C350 0.929 . S
H383 C351 0.930 . S
Li384 N401 1.990 1_554 S
Li384 O444 1.956 . S
Li384 O445 1.970 . S
Li384 O446 1.961 1_554 S
Li385 N409 1.990 . S
Li385 O444 1.970 . S
Li385 O445 1.956 . S
Li385 O447 1.961 . S
Li386 N431 1.990 . S
Li386 O444 1.961 1_556 S
Li386 O446 1.956 . S
Li386 O447 1.970 1_556 S
Li387 N437 1.990 . S
Li387 O445 1.961 . S
Li387 O446 1.970 1_554 S
Li387 O447 1.956 . S
C388 C390 1.348 . S
C388 C391 1.356 1_554 S
C388 O444 1.325 . S
N389 C392 1.314 . S
N389 C393 1.279 1_554 S
C390 C388 1.348 . S
C390 C392 1.353 . S
C390 H448 0.929 . S
C391 C388 1.356 1_556 S
C391 C393 1.358 . S
C391 H449 0.930 . S
C392 N389 1.314 . S
C392 C390 1.353 . S
C392 H450 0.930 . S
C393 N389 1.279 1_556 S
C393 C391 1.358 . S
C393 H451 0.930 . S
C394 C397 1.348 . S
C394 C398 1.356 . S
C394 O445 1.325 . S
C395 N396 1.279 . S
C395 C398 1.358 . S
C395 H452 0.930 . S
N396 C395 1.279 . S
N396 C399 1.314 . S
C397 C394 1.348 . S
C397 C399 1.353 . S
C397 H453 0.929 . S
C398 C394 1.356 . S
C398 C395 1.358 . S
C398 H454 0.930 . S
C399 N396 1.314 . S
C399 C397 1.353 . S
C399 H455 0.930 . S
C400 N401 1.314 . S
C400 C405 1.353 . S
C400 H406 0.930 . S
N401 Li384 1.990 1_556 S
N401 C400 1.314 . S
N401 C403 1.279 . S
C402 C403 1.358 . S
C402 C404 1.356 . S
C402 H456 0.930 . S
C403 N401 1.279 . S
C403 C402 1.358 . S
C403 H407 0.930 1_556 S
C404 C402 1.356 . S
C404 C405 1.348 . S
C405 C400 1.353 . S
C405 C404 1.348 . S
C405 H457 0.929 . S
H406 C400 0.930 . S
H407 C403 0.930 1_554 S
C408 N409 1.314 . S
C408 C410 1.353 . S
C408 H414 0.930 . S
N409 Li385 1.990 . S
N409 C408 1.314 . S
N409 C412 1.279 . S
C410 C408 1.353 . S
C410 C413 1.348 . S
C410 H458 0.929 . S
C411 C412 1.358 . S
C411 C413 1.356 . S
C411 H459 0.930 . S
C412 N409 1.279 . S
C412 C411 1.358 . S
C412 H415 0.930 . S
C413 C410 1.348 . S
C413 C411 1.356 . S
H414 C408 0.930 . S
H415 C412 0.930 . S
C416 C418 1.348 . S
C416 C419 1.356 . S
C416 O446 1.325 . S
N417 C420 1.314 . S
N417 C421 1.279 . S
C418 C416 1.348 . S
C418 C420 1.353 . S
C418 H460 0.929 . S
C419 C416 1.356 . S
C419 C421 1.358 . S
C419 H461 0.930 . S
C420 N417 1.314 . S
C420 C418 1.353 . S
C420 H462 0.930 . S
C421 N417 1.279 . S
C421 C419 1.358 . S
C421 H463 0.930 . S
C422 C423 1.348 . S
C422 C424 1.356 . S
C422 O447 1.325 . S
C423 C422 1.348 . S
C423 C425 1.353 . S
C423 H464 0.929 1_554 S
C424 C422 1.356 . S
C424 C426 1.358 . S
C424 H465 0.930 . S
C425 C423 1.353 . S
C425 N427 1.314 . S
C425 H466 0.930 . S
C426 C424 1.358 . S
C426 N427 1.279 . S
C426 H467 0.930 . S
N427 C425 1.314 . S
N427 C426 1.279 . S
C428 C430 1.353 . S
C428 N431 1.314 . S
C428 H434 0.930 . S
C429 N431 1.279 . S
C429 C432 1.358 . S
C429 H435 0.930 . S
C430 C428 1.353 . S
C430 C433 1.348 . S
C430 H468 0.929 . S
N431 Li386 1.990 . S
N431 C428 1.314 . S
N431 C429 1.279 . S
C432 C429 1.358 . S
C432 C433 1.356 . S
C432 H469 0.930 . S
C433 C430 1.348 . S
C433 C432 1.356 . S
H434 C428 0.930 . S
H435 C429 0.930 . S
C436 N437 1.314 . S
C436 C438 1.353 . S
C436 H442 0.930 . S
N437 Li387 1.990 . S
N437 C436 1.314 . S
N437 C440 1.279 . S
C438 C436 1.353 . S
C438 C441 1.348 . S
C438 H470 0.929 . S
C439 C440 1.358 . S
C439 C441 1.356 . S
C439 H471 0.930 . S
C440 N437 1.279 . S
C440 C439 1.358 . S
C440 H443 0.930 . S
C441 C438 1.348 . S
C441 C439 1.356 . S
H442 C436 0.930 . S
H443 C440 0.930 . S
O444 Li384 1.956 . S
O444 Li385 1.970 . S
O444 Li386 1.961 1_554 S
O444 C388 1.325 . S
O445 Li384 1.970 . S
O445 Li385 1.956 . S
O445 Li387 1.961 . S
O445 C394 1.325 . S
O446 Li384 1.961 1_556 S
O446 Li386 1.956 . S
O446 Li387 1.970 1_556 S
O446 C416 1.325 . S
O447 Li385 1.961 . S
O447 Li386 1.970 1_554 S
O447 Li387 1.956 . S
O447 C422 1.325 . S
H448 C390 0.929 . S
H449 C391 0.930 . S
H450 C392 0.930 . S
H451 C393 0.930 . S
H452 C395 0.930 . S
H453 C397 0.929 . S
H454 C398 0.930 . S
H455 C399 0.930 . S
H456 C402 0.930 . S
H457 C405 0.929 . S
H458 C410 0.929 . S
H459 C411 0.930 . S
H460 C418 0.929 . S
H461 C419 0.930 . S
H462 C420 0.930 . S
H463 C421 0.930 . S
H464 C423 0.929 1_556 S
H465 C424 0.930 . S
H466 C425 0.930 . S
H467 C426 0.930 . S
H468 C430 0.929 . S
H469 C432 0.930 . S
H470 C438 0.929 . S
H471 C439 0.930 . S
Li472 N489 1.990 . S
Li472 O532 1.956 . S
Li472 O533 1.970 . S
Li472 O534 1.961 . S
Li473 N497 1.990 . S
Li473 O532 1.970 . S
Li473 O533 1.956 . S
Li473 O535 1.961 1_545 S
Li474 N519 1.990 . S
Li474 O532 1.961 . S
Li474 O534 1.956 . S
Li474 O535 1.970 1_545 S
Li475 N525 1.990 . S
Li475 O533 1.961 1_565 S
Li475 O534 1.970 1_565 S
Li475 O535 1.956 . S
C476 C478 1.348 . S
C476 C479 1.356 . S
C476 O532 1.325 . S
N477 C480 1.314 . S
N477 C481 1.279 . S
C478 C476 1.348 . S
C478 C480 1.353 . S
C478 H536 0.929 . S
C479 C476 1.356 . S
C479 C481 1.358 . S
C479 H537 0.930 . S
C480 N477 1.314 . S
C480 C478 1.353 . S
C480 H538 0.930 . S
C481 N477 1.279 . S
C481 C479 1.358 . S
C481 H539 0.930 . S
C482 C485 1.348 . S
C482 C486 1.356 1_545 S
C482 O533 1.325 . S
C483 N484 1.279 1_565 S
C483 C486 1.358 . S
C483 H540 0.930 . S
N484 C483 1.279 1_545 S
N484 C487 1.314 . S
C485 C482 1.348 . S
C485 C487 1.353 . S
C485 H541 0.929 . S
C486 C482 1.356 1_565 S
C486 C483 1.358 . S
C486 H542 0.930 . S
C487 N484 1.314 . S
C487 C485 1.353 . S
C487 H543 0.930 . S
C488 N489 1.314 . S
C488 C493 1.353 . S
C488 H494 0.930 . S
N489 Li472 1.990 . S
N489 C488 1.314 . S
N489 C491 1.279 . S
C490 C491 1.358 . S
C490 C492 1.356 . S
C490 H544 0.930 . S
C491 N489 1.279 . S
C491 C490 1.358 . S
C491 H495 0.930 . S
C492 C490 1.356 . S
C492 C493 1.348 . S
C493 C488 1.353 . S
C493 C492 1.348 . S
C493 H545 0.929 . S
H494 C488 0.930 . S
H495 C491 0.930 . S
C496 N497 1.314 1_565 S
C496 C498 1.353 . S
C496 H502 0.930 . S
N497 Li473 1.990 . S
N497 C496 1.314 1_545 S
N497 C500 1.279 . S
C498 C496 1.353 . S
C498 C501 1.348 1_565 S
C498 H546 0.929 . S
C499 C500 1.358 . S
C499 C501 1.356 . S
C499 H547 0.930 . S
C500 N497 1.279 . S
C500 C499 1.358 . S
C500 H503 0.930 . S
C501 C498 1.348 1_545 S
C501 C499 1.356 . S
H502 C496 0.930 . S
H503 C500 0.930 . S
C504 C506 1.348 1_545 S
C504 C507 1.356 . S
C504 O534 1.325 . S
N505 C508 1.314 1_545 S
N505 C509 1.279 . S
C506 C504 1.348 1_565 S
C506 C508 1.353 . S
C506 H548 0.929 . S
C507 C504 1.356 . S
C507 C509 1.358 . S
C507 H549 0.930 . S
C508 N505 1.314 1_565 S
C508 C506 1.353 . S
C508 H550 0.930 . S
C509 N505 1.279 . S
C509 C507 1.358 . S
C509 H551 0.930 . S
C510 C511 1.348 . S
C510 C512 1.356 . S
C510 O535 1.325 . S
C511 C510 1.348 . S
C511 C513 1.353 . S
C511 H552 0.929 . S
C512 C510 1.356 . S
C512 C514 1.358 . S
C512 H553 0.930 . S
C513 C511 1.353 . S
C513 N515 1.314 . S
C513 H554 0.930 . S
C514 C512 1.358 . S
C514 N515 1.279 . S
C514 H555 0.930 . S
N515 C513 1.314 . S
N515 C514 1.279 . S
C516 C518 1.353 . S
C516 N519 1.314 . S
C516 H522 0.930 . S
C517 N519 1.279 . S
C517 C520 1.359 1_545 S
C517 H523 0.931 1_545 S
C518 C516 1.353 . S
C518 C521 1.348 . S
C518 H556 0.929 . S
N519 Li474 1.990 . S
N519 C516 1.314 . S
N519 C517 1.279 . S
C520 C517 1.359 1_565 S
C520 C521 1.354 1_565 S
C520 H557 0.931 . S
C521 C518 1.348 . S
C521 C520 1.354 1_545 S
H522 C516 0.930 . S
H523 C517 0.931 1_565 S
C524 N525 1.314 . S
C524 C526 1.353 . S
C524 H530 0.930 . S
N525 Li475 1.990 . S
N525 C524 1.314 . S
N525 C528 1.279 . S
C526 C524 1.353 . S
C526 C529 1.348 . S
C526 H558 0.929 . S
C527 C528 1.358 . S
C527 C529 1.356 . S
C527 H559 0.930 . S
C528 N525 1.279 . S
C528 C527 1.358 . S
C528 H531 0.930 . S
C529 C526 1.348 . S
C529 C527 1.356 . S
H530 C524 0.930 . S
H531 C528 0.930 . S
O532 Li472 1.956 . S
O532 Li473 1.970 . S
O532 Li474 1.961 . S
O532 C476 1.325 . S
O533 Li472 1.970 . S
O533 Li473 1.956 . S
O533 Li475 1.961 1_545 S
O533 C482 1.325 . S
O534 Li472 1.961 . S
O534 Li474 1.956 . S
O534 Li475 1.970 1_545 S
O534 C504 1.325 . S
O535 Li473 1.961 1_565 S
O535 Li474 1.970 1_565 S
O535 Li475 1.956 . S
O535 C510 1.325 . S
H536 C478 0.929 . S
H537 C479 0.930 . S
H538 C480 0.930 . S
H539 C481 0.930 . S
H540 C483 0.930 . S
H541 C485 0.929 . S
H542 C486 0.930 . S
H543 C487 0.930 . S
H544 C490 0.930 . S
H545 C493 0.929 . S
H546 C498 0.929 . S
H547 C499 0.930 . S
H548 C506 0.929 . S
H549 C507 0.930 . S
H550 C508 0.930 . S
H551 C509 0.930 . S
H552 C511 0.929 . S
H553 C512 0.930 . S
H554 C513 0.930 . S
H555 C514 0.930 . S
H556 C518 0.929 . S
H557 C520 0.931 . S
H558 C526 0.929 . S
H559 C527 0.930 . S
Li560 N577 1.990 . S
Li560 O620 1.956 . S
Li560 O621 1.970 . S
Li560 O622 1.961 . S
Li561 N585 1.990 . S
Li561 O620 1.970 . S
Li561 O621 1.956 . S
Li561 O623 1.961 . S
Li562 N607 1.990 . S
Li562 O620 1.961 . S
Li562 O622 1.956 . S
Li562 O623 1.970 . S
Li563 N613 1.990 . S
Li563 O621 1.961 . S
Li563 O622 1.970 . S
Li563 O623 1.956 . S
C564 C566 1.348 . S
C564 C567 1.356 . S
C564 O620 1.325 . S
N565 C568 1.314 . S
N565 C569 1.279 . S
C566 C564 1.348 . S
C566 C568 1.353 . S
C566 H624 0.929 . S
C567 C564 1.356 . S
C567 C569 1.358 . S
C567 H625 0.930 . S
C568 N565 1.314 . S
C568 C566 1.353 . S
C568 H626 0.930 . S
C569 N565 1.279 . S
C569 C567 1.358 . S
C569 H627 0.930 . S
C570 C573 1.348 . S
C570 C574 1.356 . S
C570 O621 1.325 . S
C571 N572 1.279 . S
C571 C574 1.358 . S
C571 H628 0.930 . S
N572 C571 1.279 . S
N572 C575 1.314 . S
C573 C570 1.348 . S
C573 C575 1.353 . S
C573 H629 0.929 . S
C574 C570 1.356 . S
C574 C571 1.358 . S
C574 H630 0.930 . S
C575 N572 1.314 . S
C575 C573 1.353 . S
C575 H631 0.930 . S
C576 N577 1.314 . S
C576 C581 1.353 . S
C576 H582 0.930 . S
N577 Li560 1.990 . S
N577 C576 1.314 . S
N577 C579 1.279 . S
C578 C579 1.358 . S
C578 C580 1.356 . S
C578 H632 0.930 . S
C579 N577 1.279 . S
C579 C578 1.358 . S
C579 H583 0.930 . S
C580 C578 1.356 . S
C580 C581 1.348 . S
C581 C576 1.353 . S
C581 C580 1.348 . S
C581 H633 0.929 . S
H582 C576 0.930 . S
H583 C579 0.930 . S
C584 N585 1.314 . S
C584 C586 1.353 . S
C584 H590 0.930 . S
N585 Li561 1.990 . S
N585 C584 1.314 . S
N585 C588 1.279 . S
C586 C584 1.353 . S
C586 C589 1.348 . S
C586 H634 0.929 . S
C587 C588 1.358 . S
C587 C589 1.356 . S
C587 H635 0.930 . S
C588 N585 1.279 . S
C588 C587 1.358 . S
C588 H591 0.930 . S
C589 C586 1.348 . S
C589 C587 1.356 . S
H590 C584 0.930 . S
H591 C588 0.930 . S
C592 C594 1.348 . S
C592 C595 1.356 . S
C592 O622 1.325 . S
N593 C596 1.314 . S
N593 C597 1.279 . S
C594 C592 1.348 . S
C594 C596 1.353 . S
C594 H636 0.929 . S
C595 C592 1.356 . S
C595 C597 1.358 . S
C595 H637 0.930 . S
C596 N593 1.314 . S
C596 C594 1.353 . S
C596 H638 0.930 . S
C597 N593 1.279 . S
C597 C595 1.358 . S
C597 H639 0.930 . S
C598 C599 1.348 . S
C598 C600 1.356 . S
C598 O623 1.325 . S
C599 C598 1.348 . S
C599 C601 1.353 . S
C599 H640 0.929 . S
C600 C598 1.356 . S
C600 C602 1.358 . S
C600 H641 0.930 . S
C601 C599 1.353 . S
C601 N603 1.314 . S
C601 H642 0.930 . S
C602 C600 1.358 . S
C602 N603 1.279 . S
C602 H643 0.930 . S
N603 C601 1.314 . S
N603 C602 1.279 . S
C604 C606 1.353 . S
C604 N607 1.314 . S
C604 H610 0.930 . S
C605 N607 1.279 . S
C605 C608 1.358 . S
C605 H611 0.930 . S
C606 C604 1.353 . S
C606 C609 1.348 . S
C606 H644 0.929 . S
N607 Li562 1.990 . S
N607 C604 1.314 . S
N607 C605 1.279 . S
C608 C605 1.358 . S
C608 C609 1.356 . S
C608 H645 0.930 . S
C609 C606 1.348 . S
C609 C608 1.356 . S
H610 C604 0.930 . S
H611 C605 0.930 . S
C612 N613 1.314 . S
C612 C614 1.353 . S
C612 H618 0.930 . S
N613 Li563 1.990 . S
N613 C612 1.314 . S
N613 C616 1.279 . S
C614 C612 1.353 . S
C614 C617 1.348 . S
C614 H646 0.929 . S
C615 C616 1.358 . S
C615 C617 1.356 . S
C615 H647 0.930 . S
C616 N613 1.279 . S
C616 C615 1.358 . S
C616 H619 0.930 . S
C617 C614 1.348 . S
C617 C615 1.356 . S
H618 C612 0.930 . S
H619 C616 0.930 . S
O620 Li560 1.956 . S
O620 Li561 1.970 . S
O620 Li562 1.961 . S
O620 C564 1.325 . S
O621 Li560 1.970 . S
O621 Li561 1.956 . S
O621 Li563 1.961 . S
O621 C570 1.325 . S
O622 Li560 1.961 . S
O622 Li562 1.956 . S
O622 Li563 1.970 . S
O622 C592 1.325 . S
O623 Li561 1.961 . S
O623 Li562 1.970 . S
O623 Li563 1.956 . S
O623 C598 1.325 . S
H624 C566 0.929 . S
H625 C567 0.930 . S
H626 C568 0.930 . S
H627 C569 0.930 . S
H628 C571 0.930 . S
H629 C573 0.929 . S
H630 C574 0.930 . S
H631 C575 0.930 . S
H632 C578 0.930 . S
H633 C581 0.929 . S
H634 C586 0.929 . S
H635 C587 0.930 . S
H636 C594 0.929 . S
H637 C595 0.930 . S
H638 C596 0.930 . S
H639 C597 0.930 . S
H640 C599 0.929 . S
H641 C600 0.930 . S
H642 C601 0.930 . S
H643 C602 0.930 . S
H644 C606 0.929 . S
H645 C608 0.930 . S
H646 C614 0.929 . S
H647 C615 0.930 . S
Li648 N665 1.990 . S
Li648 O708 1.956 . S
Li648 O709 1.970 . S
Li648 O710 1.961 . S
Li649 N673 1.990 . S
Li649 O708 1.970 . S
Li649 O709 1.956 . S
Li649 O711 1.961 . S
Li650 N695 1.990 . S
Li650 O708 1.961 . S
Li650 O710 1.956 . S
Li650 O711 1.970 . S
Li651 N701 1.990 . S
Li651 O709 1.961 . S
Li651 O710 1.970 . S
Li651 O711 1.956 . S
C652 C654 1.348 . S
C652 C655 1.356 . S
C652 O708 1.325 . S
N653 C656 1.314 . S
N653 C657 1.279 . S
C654 C652 1.348 . S
C654 C656 1.353 . S
C654 H712 0.929 . S
C655 C652 1.356 . S
C655 C657 1.358 . S
C655 H713 0.930 . S
C656 N653 1.314 . S
C656 C654 1.353 . S
C656 H714 0.930 . S
C657 N653 1.279 . S
C657 C655 1.358 . S
C657 H715 0.930 . S
C658 C661 1.348 . S
C658 C662 1.356 . S
C658 O709 1.325 . S
C659 N660 1.279 . S
C659 C662 1.358 . S
C659 H716 0.930 . S
N660 C659 1.279 . S
N660 C663 1.314 . S
C661 C658 1.348 . S
C661 C663 1.353 . S
C661 H717 0.929 . S
C662 C658 1.356 . S
C662 C659 1.358 . S
C662 H718 0.930 . S
C663 N660 1.314 . S
C663 C661 1.353 . S
C663 H719 0.930 . S
C664 N665 1.314 . S
C664 C669 1.353 . S
C664 H670 0.930 . S
N665 Li648 1.990 . S
N665 C664 1.314 . S
N665 C667 1.279 . S
C666 C667 1.358 . S
C666 C668 1.356 . S
C666 H720 0.930 . S
C667 N665 1.279 . S
C667 C666 1.358 . S
C667 H671 0.930 . S
C668 C666 1.356 . S
C668 C669 1.348 . S
C669 C664 1.353 . S
C669 C668 1.348 . S
C669 H721 0.929 . S
H670 C664 0.930 . S
H671 C667 0.930 . S
C672 N673 1.314 . S
C672 C674 1.353 . S
C672 H678 0.930 . S
N673 Li649 1.990 . S
N673 C672 1.314 . S
N673 C676 1.279 . S
C674 C672 1.353 . S
C674 C677 1.348 . S
C674 H722 0.929 . S
C675 C676 1.358 . S
C675 C677 1.356 . S
C675 H723 0.930 . S
C676 N673 1.279 . S
C676 C675 1.358 . S
C676 H679 0.930 . S
C677 C674 1.348 . S
C677 C675 1.356 . S
H678 C672 0.930 . S
H679 C676 0.930 . S
C680 C682 1.348 . S
C680 C683 1.356 . S
C680 O710 1.325 . S
N681 C684 1.314 . S
N681 C685 1.279 . S
C682 C680 1.348 . S
C682 C684 1.353 . S
C682 H724 0.929 . S
C683 C680 1.356 . S
C683 C685 1.358 . S
C683 H725 0.930 . S
C684 N681 1.314 . S
C684 C682 1.353 . S
C684 H726 0.930 . S
C685 N681 1.279 . S
C685 C683 1.358 . S
C685 H727 0.930 . S
C686 C687 1.348 . S
C686 C688 1.356 . S
C686 O711 1.325 . S
C687 C686 1.348 . S
C687 C689 1.353 . S
C687 H728 0.929 . S
C688 C686 1.356 . S
C688 C690 1.358 . S
C688 H729 0.930 . S
C689 C687 1.353 . S
C689 N691 1.314 . S
C689 H730 0.930 . S
C690 C688 1.358 . S
C690 N691 1.279 . S
C690 H731 0.930 . S
N691 C689 1.314 . S
N691 C690 1.279 . S
C692 C694 1.353 . S
C692 N695 1.314 . S
C692 H698 0.930 . S
C693 N695 1.279 . S
C693 C696 1.358 . S
C693 H699 0.930 . S
C694 C692 1.353 . S
C694 C697 1.348 . S
C694 H732 0.929 . S
N695 Li650 1.990 . S
N695 C692 1.314 . S
N695 C693 1.279 . S
C696 C693 1.358 . S
C696 C697 1.356 . S
C696 H733 0.930 . S
C697 C694 1.348 . S
C697 C696 1.356 . S
H698 C692 0.930 . S
H699 C693 0.930 . S
C700 N701 1.314 . S
C700 C702 1.353 . S
C700 H706 0.930 . S
N701 Li651 1.990 . S
N701 C700 1.314 . S
N701 C704 1.279 . S
C702 C700 1.353 . S
C702 C705 1.348 . S
C702 H734 0.929 . S
C703 C704 1.358 . S
C703 C705 1.356 . S
C703 H735 0.930 . S
C704 N701 1.279 . S
C704 C703 1.358 . S
C704 H707 0.930 . S
C705 C702 1.348 . S
C705 C703 1.356 . S
H706 C700 0.930 . S
H707 C704 0.930 . S
O708 Li648 1.956 . S
O708 Li649 1.970 . S
O708 Li650 1.961 . S
O708 C652 1.325 . S
O709 Li648 1.970 . S
O709 Li649 1.956 . S
O709 Li651 1.961 . S
O709 C658 1.325 . S
O710 Li648 1.961 . S
O710 Li650 1.956 . S
O710 Li651 1.970 . S
O710 C680 1.325 . S
O711 Li649 1.961 . S
O711 Li650 1.970 . S
O711 Li651 1.956 . S
O711 C686 1.325 . S
H712 C654 0.929 . S
H713 C655 0.930 . S
H714 C656 0.930 . S
H715 C657 0.930 . S
H716 C659 0.930 . S
H717 C661 0.929 . S
H718 C662 0.930 . S
H719 C663 0.930 . S
H720 C666 0.930 . S
H721 C669 0.929 . S
H722 C674 0.929 . S
H723 C675 0.930 . S
H724 C682 0.929 . S
H725 C683 0.930 . S
H726 C684 0.930 . S
H727 C685 0.930 . S
H728 C687 0.929 . S
H729 C688 0.930 . S
H730 C689 0.930 . S
H731 C690 0.930 . S
H732 C694 0.929 . S
H733 C696 0.930 . S
H734 C702 0.929 . S
H735 C703 0.930 . S
Li736 N753 1.990 . S
Li736 O796 1.956 . S
Li736 O797 1.970 . S
Li736 O798 1.961 . S
Li737 N761 1.990 . S
Li737 O796 1.970 . S
Li737 O797 1.956 . S
Li737 O799 1.961 . S
Li738 N783 1.990 . S
Li738 O796 1.961 . S
Li738 O798 1.956 . S
Li738 O799 1.970 . S
Li739 N789 1.990 . S
Li739 O797 1.961 . S
Li739 O798 1.970 . S
Li739 O799 1.956 . S
C740 C742 1.348 . S
C740 C743 1.356 . S
C740 O796 1.325 . S
N741 C744 1.314 . S
N741 C745 1.279 . S
C742 C740 1.348 . S
C742 C744 1.353 . S
C742 H800 0.929 . S
C743 C740 1.356 . S
C743 C745 1.358 . S
C743 H801 0.930 . S
C744 N741 1.314 . S
C744 C742 1.353 . S
C744 H802 0.930 . S
C745 N741 1.279 . S
C745 C743 1.358 . S
C745 H803 0.930 . S
C746 C749 1.348 . S
C746 C750 1.356 . S
C746 O797 1.325 . S
C747 N748 1.279 . S
C747 C750 1.358 . S
C747 H804 0.930 . S
N748 C747 1.279 . S
N748 C751 1.314 . S
C749 C746 1.348 . S
C749 C751 1.353 . S
C749 H805 0.929 . S
C750 C746 1.356 . S
C750 C747 1.358 . S
C750 H806 0.930 . S
C751 N748 1.314 . S
C751 C749 1.353 . S
C751 H807 0.930 . S
C752 N753 1.314 . S
C752 C757 1.353 . S
C752 H758 0.930 . S
N753 Li736 1.990 . S
N753 C752 1.314 . S
N753 C755 1.279 . S
C754 C755 1.358 . S
C754 C756 1.356 . S
C754 H808 0.930 . S
C755 N753 1.279 . S
C755 C754 1.358 . S
C755 H759 0.930 . S
C756 C754 1.356 . S
C756 C757 1.348 . S
C757 C752 1.353 . S
C757 C756 1.348 . S
C757 H809 0.929 . S
H758 C752 0.930 . S
H759 C755 0.930 . S
C760 N761 1.314 . S
C760 C762 1.353 . S
C760 H766 0.930 . S
N761 Li737 1.990 . S
N761 C760 1.314 . S
N761 C764 1.279 . S
C762 C760 1.353 . S
C762 C765 1.348 . S
C762 H810 0.929 . S
C763 C764 1.358 . S
C763 C765 1.356 . S
C763 H811 0.930 . S
C764 N761 1.279 . S
C764 C763 1.358 . S
C764 H767 0.930 . S
C765 C762 1.348 . S
C765 C763 1.356 . S
H766 C760 0.930 . S
H767 C764 0.930 . S
C768 C770 1.348 . S
C768 C771 1.356 . S
C768 O798 1.325 . S
N769 C772 1.314 . S
N769 C773 1.279 . S
C770 C768 1.348 . S
C770 C772 1.353 . S
C770 H812 0.929 . S
C771 C768 1.356 . S
C771 C773 1.358 . S
C771 H813 0.930 . S
C772 N769 1.314 . S
C772 C770 1.353 . S
C772 H814 0.930 . S
C773 N769 1.279 . S
C773 C771 1.358 . S
C773 H815 0.930 . S
C774 C775 1.348 . S
C774 C776 1.356 . S
C774 O799 1.325 . S
C775 C774 1.348 . S
C775 C777 1.353 . S
C775 H816 0.929 . S
C776 C774 1.356 . S
C776 C778 1.358 . S
C776 H817 0.930 . S
C777 C775 1.353 . S
C777 N779 1.314 . S
C777 H818 0.930 . S
C778 C776 1.358 . S
C778 N779 1.279 . S
C778 H819 0.930 . S
N779 C777 1.314 . S
N779 C778 1.279 . S
C780 C782 1.353 . S
C780 N783 1.314 . S
C780 H786 0.930 . S
C781 N783 1.279 . S
C781 C784 1.358 . S
C781 H787 0.930 . S
C782 C780 1.353 . S
C782 C785 1.348 . S
C782 H820 0.929 . S
N783 Li738 1.990 . S
N783 C780 1.314 . S
N783 C781 1.279 . S
C784 C781 1.358 . S
C784 C785 1.356 . S
C784 H821 0.930 . S
C785 C782 1.348 . S
C785 C784 1.356 . S
H786 C780 0.930 . S
H787 C781 0.930 . S
C788 N789 1.314 . S
C788 C790 1.353 . S
C788 H794 0.930 . S
N789 Li739 1.990 . S
N789 C788 1.314 . S
N789 C792 1.279 . S
C790 C788 1.353 . S
C790 C793 1.348 . S
C790 H822 0.929 . S
C791 C792 1.358 . S
C791 C793 1.356 . S
C791 H823 0.930 . S
C792 N789 1.279 . S
C792 C791 1.358 . S
C792 H795 0.930 . S
C793 C790 1.348 . S
C793 C791 1.356 . S
H794 C788 0.930 . S
H795 C792 0.930 . S
O796 Li736 1.956 . S
O796 Li737 1.970 . S
O796 Li738 1.961 . S
O796 C740 1.325 . S
O797 Li736 1.970 . S
O797 Li737 1.956 . S
O797 Li739 1.961 . S
O797 C746 1.325 . S
O798 Li736 1.961 . S
O798 Li738 1.956 . S
O798 Li739 1.970 . S
O798 C768 1.325 . S
O799 Li737 1.961 . S
O799 Li738 1.970 . S
O799 Li739 1.956 . S
O799 C774 1.325 . S
H800 C742 0.929 . S
H801 C743 0.930 . S
H802 C744 0.930 . S
H803 C745 0.930 . S
H804 C747 0.930 . S
H805 C749 0.929 . S
H806 C750 0.930 . S
H807 C751 0.930 . S
H808 C754 0.930 . S
H809 C757 0.929 . S
H810 C762 0.929 . S
H811 C763 0.930 . S
H812 C770 0.929 . S
H813 C771 0.930 . S
H814 C772 0.930 . S
H815 C773 0.930 . S
H816 C775 0.929 . S
H817 C776 0.930 . S
H818 C777 0.930 . S
H819 C778 0.930 . S
H820 C782 0.929 . S
H821 C784 0.930 . S
H822 C790 0.929 . S
H823 C791 0.930 . S
Li824 N841 1.990 . S
Li824 O884 1.956 . S
Li824 O885 1.970 1_565 S
Li824 O886 1.961 1_565 S
Li825 N849 1.990 . S
Li825 O884 1.970 1_545 S
Li825 O885 1.956 . S
Li825 O887 1.961 . S
Li826 N871 1.990 . S
Li826 O884 1.961 1_545 S
Li826 O886 1.956 . S
Li826 O887 1.970 . S
Li827 N877 1.990 . S
Li827 O885 1.961 . S
Li827 O886 1.970 . S
Li827 O887 1.956 . S
C828 C830 1.348 . S
C828 C831 1.356 . S
C828 O884 1.325 . S
N829 C832 1.314 . S
N829 C833 1.279 . S
C830 C828 1.348 . S
C830 C832 1.353 . S
C830 H888 0.929 . S
C831 C828 1.356 . S
C831 C833 1.358 . S
C831 H889 0.930 . S
C832 N829 1.314 . S
C832 C830 1.353 . S
C832 H890 0.930 . S
C833 N829 1.279 . S
C833 C831 1.358 . S
C833 H891 0.930 . S
C834 C837 1.348 . S
C834 C838 1.356 . S
C834 O885 1.325 . S
C835 N836 1.279 . S
C835 C838 1.358 . S
C835 H892 0.930 . S
N836 C835 1.279 . S
N836 C839 1.314 . S
C837 C834 1.348 . S
C837 C839 1.353 . S
C837 H893 0.902 1_545 S
C838 C834 1.356 . S
C838 C835 1.358 . S
C838 H894 0.930 . S
C839 N836 1.314 . S
C839 C837 1.353 . S
C839 H895 0.930 . S
C840 N841 1.314 . S
C840 C845 1.353 . S
C840 H846 0.930 . S
N841 Li824 1.990 . S
N841 C840 1.314 . S
N841 C843 1.279 . S
C842 C843 1.358 . S
C842 C844 1.356 . S
C842 H896 0.930 . S
C843 N841 1.279 . S
C843 C842 1.358 . S
C843 H847 0.930 . S
C844 C842 1.356 . S
C844 C845 1.348 . S
C845 C840 1.353 . S
C845 C844 1.348 . S
C845 H897 0.929 . S
H846 C840 0.930 . S
H847 C843 0.930 . S
C848 N849 1.314 . S
C848 C850 1.353 . S
C848 H854 0.930 . S
N849 Li825 1.990 . S
N849 C848 1.314 . S
N849 C852 1.279 . S
C850 C848 1.353 . S
C850 C853 1.348 . S
C850 H898 0.929 . S
C851 C852 1.358 . S
C851 C853 1.356 . S
C851 H899 0.930 . S
C852 N849 1.279 . S
C852 C851 1.358 . S
C852 H855 0.930 . S
C853 C850 1.348 . S
C853 C851 1.356 . S
H854 C848 0.930 . S
H855 C852 0.930 . S
C856 C858 1.348 . S
C856 C859 1.356 1_545 S
C856 O886 1.325 . S
N857 C860 1.314 . S
N857 C861 1.279 1_545 S
C858 C856 1.348 . S
C858 C860 1.353 . S
C858 H900 0.929 . S
C859 C856 1.356 1_565 S
C859 C861 1.358 . S
C859 H901 0.930 . S
C860 N857 1.314 . S
C860 C858 1.353 . S
C860 H902 0.930 . S
C861 N857 1.279 1_565 S
C861 C859 1.358 . S
C861 H903 0.930 . S
C862 C863 1.348 . S
C862 C864 1.356 . S
C862 O887 1.325 . S
C863 C862 1.348 . S
C863 C865 1.353 . S
C863 H904 0.929 . S
C864 C862 1.356 . S
C864 C866 1.358 . S
C864 H905 0.930 . S
C865 C863 1.353 . S
C865 N867 1.314 . S
C865 H906 0.930 . S
C866 C864 1.358 . S
C866 N867 1.279 . S
C866 H907 0.930 . S
N867 C865 1.314 . S
N867 C866 1.279 . S
C868 C870 1.353 . S
C868 N871 1.314 1_565 S
C868 H874 0.930 . S
C869 N871 1.279 . S
C869 C872 1.359 . S
C869 H875 0.930 . S
C870 C868 1.353 . S
C870 C873 1.348 . S
C870 H908 0.929 . S
N871 Li826 1.990 . S
N871 C868 1.314 1_545 S
N871 C869 1.279 . S
C872 C869 1.359 . S
C872 C873 1.356 1_545 S
C872 H909 0.928 . S
C873 C870 1.348 . S
C873 C872 1.356 1_565 S
H874 C868 0.930 . S
H875 C869 0.930 . S
C876 N877 1.314 . S
C876 C878 1.353 . S
C876 H882 0.930 . S
N877 Li827 1.990 . S
N877 C876 1.314 . S
N877 C880 1.279 . S
C878 C876 1.353 . S
C878 C881 1.348 . S
C878 H910 0.929 . S
C879 C880 1.358 . S
C879 C881 1.356 . S
C879 H911 0.930 . S
C880 N877 1.279 . S
C880 C879 1.358 . S
C880 H883 0.930 . S
C881 C878 1.348 . S
C881 C879 1.356 . S
H882 C876 0.930 . S
H883 C880 0.930 . S
O884 Li824 1.956 . S
O884 Li825 1.970 1_565 S
O884 Li826 1.961 1_565 S
O884 C828 1.325 . S
O885 Li824 1.970 1_545 S
O885 Li825 1.956 . S
O885 Li827 1.961 . S
O885 C834 1.325 . S
O886 Li824 1.961 1_545 S
O886 Li826 1.956 . S
O886 Li827 1.970 . S
O886 C856 1.325 . S
O887 Li825 1.961 . S
O887 Li826 1.970 . S
O887 Li827 1.956 . S
O887 C862 1.325 . S
H888 C830 0.929 . S
H889 C831 0.930 . S
H890 C832 0.930 . S
H891 C833 0.930 . S
H892 C835 0.930 . S
H893 C837 0.902 1_565 S
H894 C838 0.930 . S
H895 C839 0.930 . S
H896 C842 0.930 . S
H897 C845 0.929 . S
H898 C850 0.929 . S
H899 C851 0.930 . S
H900 C858 0.929 . S
H901 C859 0.930 . S
H902 C860 0.930 . S
H903 C861 0.930 . S
H904 C863 0.929 . S
H905 C864 0.930 . S
H906 C865 0.930 . S
H907 C866 0.930 . S
H908 C870 0.929 . S
H909 C872 0.928 . S
H910 C878 0.929 . S
H911 C879 0.930 . S
Li912 N929 1.990 . S
Li912 O972 1.956 . S
Li912 O973 1.970 . S
Li912 O974 1.961 . S
Li913 N937 1.988 1_455 S
Li913 O972 1.970 . S
Li913 O973 1.956 . S
Li913 O975 1.961 1_455 S
Li914 N959 1.990 . S
Li914 O972 1.961 . S
Li914 O974 1.956 . S
Li914 O975 1.970 1_455 S
Li915 N965 1.990 . S
Li915 O973 1.961 1_655 S
Li915 O974 1.970 1_655 S
Li915 O975 1.956 . S
C916 C918 1.348 . S
C916 C919 1.356 . S
C916 O972 1.325 . S
N917 C920 1.314 . S
N917 C921 1.279 . S
C918 C916 1.348 . S
C918 C920 1.353 . S
C918 H976 0.929 . S
C919 C916 1.356 . S
C919 C921 1.358 . S
C919 H977 0.930 . S
C920 N917 1.314 . S
C920 C918 1.353 . S
C920 H978 0.930 . S
C921 N917 1.279 . S
C921 C919 1.358 . S
C921 H979 0.930 . S
C922 C925 1.348 . S
C922 C926 1.356 1_455 S
C922 O973 1.325 . S
C923 N924 1.279 1_655 S
C923 C926 1.358 . S
C923 H980 0.930 . S
N924 C923 1.279 1_455 S
N924 C927 1.314 . S
C925 C922 1.348 . S
C925 C927 1.353 . S
C925 H981 0.929 . S
C926 C922 1.356 1_655 S
C926 C923 1.358 . S
C926 H982 0.930 . S
C927 N924 1.314 . S
C927 C925 1.353 . S
C927 H983 0.930 . S
C928 N929 1.314 . S
C928 C933 1.353 . S
C928 H934 0.930 . S
N929 Li912 1.990 . S
N929 C928 1.314 . S
N929 C931 1.279 . S
C930 C931 1.358 . S
C930 C932 1.356 . S
C930 H984 0.930 . S
C931 N929 1.279 . S
C931 C930 1.358 . S
C931 H935 0.930 . S
C932 C930 1.356 . S
C932 C933 1.348 . S
C933 C928 1.353 . S
C933 C932 1.348 . S
C933 H985 0.929 . S
H934 C928 0.930 . S
H935 C931 0.930 . S
C936 N937 1.319 . S
C936 C938 1.353 . S
C936 H942 0.930 . S
N937 Li913 1.988 1_655 S
N937 C936 1.319 . S
N937 C940 1.277 1_655 S
C938 C936 1.353 . S
C938 C941 1.348 . S
C938 H986 0.929 . S
C939 C940 1.358 . S
C939 C941 1.356 1_455 S
C939 H987 0.930 . S
C940 N937 1.277 1_455 S
C940 C939 1.358 . S
C940 H943 0.930 . S
C941 C938 1.348 . S
C941 C939 1.356 1_655 S
H942 C936 0.930 . S
H943 C940 0.930 . S
C944 C946 1.348 1_455 S
C944 C947 1.356 . S
C944 O974 1.325 . S
N945 C948 1.314 1_455 S
N945 C949 1.279 . S
C946 C944 1.348 1_655 S
C946 C948 1.353 . S
C946 H988 0.929 . S
C947 C944 1.356 . S
C947 C949 1.358 . S
C947 H989 0.930 . S
C948 N945 1.314 1_655 S
C948 C946 1.353 . S
C948 H990 0.930 . S
C949 N945 1.279 . S
C949 C947 1.358 . S
C949 H991 0.930 . S
C950 C951 1.348 . S
C950 C952 1.356 . S
C950 O975 1.325 . S
C951 C950 1.348 . S
C951 C953 1.353 . S
C951 H992 0.929 . S
C952 C950 1.356 . S
C952 C954 1.358 . S
C952 H993 0.930 . S
C953 C951 1.353 . S
C953 N955 1.314 . S
C953 H994 0.930 . S
C954 C952 1.358 . S
C954 N955 1.279 . S
C954 H995 0.930 . S
N955 C953 1.314 . S
N955 C954 1.279 . S
C956 C958 1.353 . S
C956 N959 1.314 . S
C956 H962 0.930 . S
C957 N959 1.279 . S
C957 C960 1.358 . S
C957 H963 0.930 . S
C958 C956 1.353 . S
C958 C961 1.348 . S
C958 H996 0.929 . S
N959 Li914 1.990 . S
N959 C956 1.314 . S
N959 C957 1.279 . S
C960 C957 1.358 . S
C960 C961 1.356 . S
C960 H997 0.930 . S
C961 C958 1.348 . S
C961 C960 1.356 . S
H962 C956 0.930 . S
H963 C957 0.930 . S
C964 N965 1.314 . S
C964 C966 1.353 . S
C964 H970 0.930 . S
N965 Li915 1.990 . S
N965 C964 1.314 . S
N965 C968 1.279 . S
C966 C964 1.353 . S
C966 C969 1.348 . S
C966 H998 0.929 . S
C967 C968 1.358 . S
C967 C969 1.356 . S
C967 H999 0.930 . S
C968 N965 1.279 . S
C968 C967 1.358 . S
C968 H971 0.930 . S
C969 C966 1.348 . S
C969 C967 1.356 . S
H970 C964 0.930 . S
H971 C968 0.930 . S
O972 Li912 1.956 . S
O972 Li913 1.970 . S
O972 Li914 1.961 . S
O972 C916 1.325 . S
O973 Li912 1.970 . S
O973 Li913 1.956 . S
O973 Li915 1.961 1_455 S
O973 C922 1.325 . S
O974 Li912 1.961 . S
O974 Li914 1.956 . S
O974 Li915 1.970 1_455 S
O974 C944 1.325 . S
O975 Li913 1.961 1_655 S
O975 Li914 1.970 1_655 S
O975 Li915 1.956 . S
O975 C950 1.325 . S
H976 C918 0.929 . S
H977 C919 0.930 . S
H978 C920 0.930 . S
H979 C921 0.930 . S
H980 C923 0.930 . S
H981 C925 0.929 . S
H982 C926 0.930 . S
H983 C927 0.930 . S
H984 C930 0.930 . S
H985 C933 0.929 . S
H986 C938 0.929 . S
H987 C939 0.930 . S
H988 C946 0.929 . S
H989 C947 0.930 . S
H990 C948 0.930 . S
H991 C949 0.930 . S
H992 C951 0.929 . S
H993 C952 0.930 . S
H994 C953 0.930 . S
H995 C954 0.930 . S
H996 C958 0.929 . S
H997 C960 0.930 . S
H998 C966 0.929 . S
H999 C967 0.930 . S
Li1000 N1017 1.990 . S
Li1000 O1060 1.956 . S
Li1000 O1061 1.970 . S
Li1000 O1062 1.961 . S
Li1001 N1025 1.990 . S
Li1001 O1060 1.970 . S
Li1001 O1061 1.956 . S
Li1001 O1063 1.961 . S
Li1002 N1047 1.990 . S
Li1002 O1060 1.961 . S
Li1002 O1062 1.956 . S
Li1002 O1063 1.970 . S
Li1003 N1053 1.990 . S
Li1003 O1061 1.961 . S
Li1003 O1062 1.970 . S
Li1003 O1063 1.956 . S
C1004 C1006 1.348 . S
C1004 C1007 1.356 . S
C1004 O1060 1.325 . S
N1005 C1008 1.314 . S
N1005 C1009 1.279 . S
C1006 C1004 1.348 . S
C1006 C1008 1.353 . S
C1006 H1064 0.929 . S
C1007 C1004 1.356 . S
C1007 C1009 1.358 . S
C1007 H1065 0.930 . S
C1008 N1005 1.314 . S
C1008 C1006 1.353 . S
C1008 H1066 0.930 . S
C1009 N1005 1.279 . S
C1009 C1007 1.358 . S
C1009 H1067 0.930 . S
C1010 C1013 1.348 . S
C1010 C1014 1.356 . S
C1010 O1061 1.325 . S
C1011 N1012 1.279 . S
C1011 C1014 1.358 . S
C1011 H1068 0.930 . S
N1012 C1011 1.279 . S
N1012 C1015 1.314 . S
C1013 C1010 1.348 . S
C1013 C1015 1.353 . S
C1013 H1069 0.929 . S
C1014 C1010 1.356 . S
C1014 C1011 1.358 . S
C1014 H1070 0.930 . S
C1015 N1012 1.314 . S
C1015 C1013 1.353 . S
C1015 H1071 0.930 . S
C1016 N1017 1.314 . S
C1016 C1021 1.353 . S
C1016 H1022 0.930 . S
N1017 Li1000 1.990 . S
N1017 C1016 1.314 . S
N1017 C1019 1.279 . S
C1018 C1019 1.358 . S
C1018 C1020 1.356 . S
C1018 H1072 0.930 . S
C1019 N1017 1.279 . S
C1019 C1018 1.358 . S
C1019 H1023 0.930 . S
C1020 C1018 1.356 . S
C1020 C1021 1.348 . S
C1021 C1016 1.353 . S
C1021 C1020 1.348 . S
C1021 H1073 0.929 . S
H1022 C1016 0.930 . S
H1023 C1019 0.930 . S
C1024 N1025 1.314 . S
C1024 C1026 1.353 . S
C1024 H1030 0.930 . S
N1025 Li1001 1.990 . S
N1025 C1024 1.314 . S
N1025 C1028 1.279 . S
C1026 C1024 1.353 . S
C1026 C1029 1.348 . S
C1026 H1074 0.929 . S
C1027 C1028 1.358 . S
C1027 C1029 1.356 . S
C1027 H1075 0.930 . S
C1028 N1025 1.279 . S
C1028 C1027 1.358 . S
C1028 H1031 0.930 . S
C1029 C1026 1.348 . S
C1029 C1027 1.356 . S
H1030 C1024 0.930 . S
H1031 C1028 0.930 . S
C1032 C1034 1.348 . S
C1032 C1035 1.356 . S
C1032 O1062 1.325 . S
N1033 C1036 1.314 . S
N1033 C1037 1.279 . S
C1034 C1032 1.348 . S
C1034 C1036 1.353 . S
C1034 H1076 0.929 . S
C1035 C1032 1.356 . S
C1035 C1037 1.358 . S
C1035 H1077 0.930 . S
C1036 N1033 1.314 . S
C1036 C1034 1.353 . S
C1036 H1078 0.930 . S
C1037 N1033 1.279 . S
C1037 C1035 1.358 . S
C1037 H1079 0.930 . S
C1038 C1039 1.348 . S
C1038 C1040 1.356 . S
C1038 O1063 1.325 . S
C1039 C1038 1.348 . S
C1039 C1041 1.353 . S
C1039 H1080 0.929 . S
C1040 C1038 1.356 . S
C1040 C1042 1.358 . S
C1040 H1081 0.930 . S
C1041 C1039 1.353 . S
C1041 N1043 1.314 . S
C1041 H1082 0.930 . S
C1042 C1040 1.358 . S
C1042 N1043 1.279 . S
C1042 H1083 0.930 . S
N1043 C1041 1.314 . S
N1043 C1042 1.279 . S
C1044 C1046 1.353 . S
C1044 N1047 1.314 . S
C1044 H1050 0.930 . S
C1045 N1047 1.279 . S
C1045 C1048 1.358 . S
C1045 H1051 0.930 . S
C1046 C1044 1.353 . S
C1046 C1049 1.348 . S
C1046 H1084 0.929 . S
N1047 Li1002 1.990 . S
N1047 C1044 1.314 . S
N1047 C1045 1.279 . S
C1048 C1045 1.358 . S
C1048 C1049 1.356 . S
C1048 H1085 0.930 . S
C1049 C1046 1.348 . S
C1049 C1048 1.356 . S
H1050 C1044 0.930 . S
H1051 C1045 0.930 . S
C1052 N1053 1.314 . S
C1052 C1054 1.353 . S
C1052 H1058 0.930 . S
N1053 Li1003 1.990 . S
N1053 C1052 1.314 . S
N1053 C1056 1.279 . S
C1054 C1052 1.353 . S
C1054 C1057 1.348 . S
C1054 H1086 0.929 . S
C1055 C1056 1.358 . S
C1055 C1057 1.356 . S
C1055 H1087 0.930 . S
C1056 N1053 1.279 . S
C1056 C1055 1.358 . S
C1056 H1059 0.930 . S
C1057 C1054 1.348 . S
C1057 C1055 1.356 . S
H1058 C1052 0.930 . S
H1059 C1056 0.930 . S
O1060 Li1000 1.956 . S
O1060 Li1001 1.970 . S
O1060 Li1002 1.961 . S
O1060 C1004 1.325 . S
O1061 Li1000 1.970 . S
O1061 Li1001 1.956 . S
O1061 Li1003 1.961 . S
O1061 C1010 1.325 . S
O1062 Li1000 1.961 . S
O1062 Li1002 1.956 . S
O1062 Li1003 1.970 . S
O1062 C1032 1.325 . S
O1063 Li1001 1.961 . S
O1063 Li1002 1.970 . S
O1063 Li1003 1.956 . S
O1063 C1038 1.325 . S
H1064 C1006 0.929 . S
H1065 C1007 0.930 . S
H1066 C1008 0.930 . S
H1067 C1009 0.930 . S
H1068 C1011 0.930 . S
H1069 C1013 0.929 . S
H1070 C1014 0.930 . S
H1071 C1015 0.930 . S
H1072 C1018 0.930 . S
H1073 C1021 0.929 . S
H1074 C1026 0.929 . S
H1075 C1027 0.930 . S
H1076 C1034 0.929 . S
H1077 C1035 0.930 . S
H1078 C1036 0.930 . S
H1079 C1037 0.930 . S
H1080 C1039 0.929 . S
H1081 C1040 0.930 . S
H1082 C1041 0.930 . S
H1083 C1042 0.930 . S
H1084 C1046 0.929 . S
H1085 C1048 0.930 . S
H1086 C1054 0.929 . S
H1087 C1055 0.930 . S
Li1088 N1105 1.990 . S
Li1088 O1148 1.956 . S
Li1088 O1149 1.970 . S
Li1088 O1150 1.961 . S
Li1089 N1113 1.990 1_455 S
Li1089 O1148 1.970 . S
Li1089 O1149 1.956 . S
Li1089 O1151 1.961 . S
Li1090 N1135 1.990 . S
Li1090 O1148 1.961 . S
Li1090 O1150 1.956 . S
Li1090 O1151 1.970 . S
Li1091 N1141 1.990 . S
Li1091 O1149 1.961 . S
Li1091 O1150 1.970 . S
Li1091 O1151 1.956 . S
C1092 C1094 1.348 . S
C1092 C1095 1.356 . S
C1092 O1148 1.325 . S
N1093 C1096 1.314 . S
N1093 C1097 1.279 . S
C1094 C1092 1.348 . S
C1094 C1096 1.353 . S
C1094 H1152 0.929 . S
C1095 C1092 1.356 . S
C1095 C1097 1.358 . S
C1095 H1153 0.930 . S
C1096 N1093 1.314 . S
C1096 C1094 1.353 . S
C1096 H1154 0.930 . S
C1097 N1093 1.279 . S
C1097 C1095 1.358 . S
C1097 H1155 0.930 . S
C1098 C1101 1.348 . S
C1098 C1102 1.356 . S
C1098 O1149 1.325 1_655 S
C1099 N1100 1.279 . S
C1099 C1102 1.358 . S
C1099 H1156 0.930 . S
N1100 C1099 1.279 . S
N1100 C1103 1.314 . S
C1101 C1098 1.348 . S
C1101 C1103 1.353 . S
C1101 H1157 0.929 . S
C1102 C1098 1.356 . S
C1102 C1099 1.358 . S
C1102 H1158 0.930 . S
C1103 N1100 1.314 . S
C1103 C1101 1.353 . S
C1103 H1159 0.930 . S
C1104 N1105 1.314 . S
C1104 C1109 1.353 . S
C1104 H1110 0.930 . S
N1105 Li1088 1.990 . S
N1105 C1104 1.314 . S
N1105 C1107 1.279 . S
C1106 C1107 1.358 . S
C1106 C1108 1.356 . S
C1106 H1160 0.930 . S
C1107 N1105 1.279 . S
C1107 C1106 1.358 . S
C1107 H1111 0.930 . S
C1108 C1106 1.356 . S
C1108 C1109 1.348 . S
C1109 C1104 1.353 . S
C1109 C1108 1.348 . S
C1109 H1161 0.929 . S
H1110 C1104 0.930 . S
H1111 C1107 0.930 . S
C1112 N1113 1.314 . S
C1112 C1114 1.353 . S
C1112 H1118 0.930 . S
N1113 Li1089 1.990 1_655 S
N1113 C1112 1.314 . S
N1113 C1116 1.279 . S
C1114 C1112 1.353 . S
C1114 C1117 1.348 . S
C1114 H1162 0.929 . S
C1115 C1116 1.358 . S
C1115 C1117 1.356 . S
C1115 H1163 0.930 . S
C1116 N1113 1.279 . S
C1116 C1115 1.358 . S
C1116 H1119 0.930 . S
C1117 C1114 1.348 . S
C1117 C1115 1.356 . S
H1118 C1112 0.930 . S
H1119 C1116 0.930 . S
C1120 C1122 1.348 . S
C1120 C1123 1.356 . S
C1120 O1150 1.325 . S
N1121 C1124 1.314 . S
N1121 C1125 1.279 . S
C1122 C1120 1.348 . S
C1122 C1124 1.353 . S
C1122 H1164 0.929 . S
C1123 C1120 1.356 . S
C1123 C1125 1.358 . S
C1123 H1165 0.930 . S
C1124 N1121 1.314 . S
C1124 C1122 1.353 . S
C1124 H1166 0.930 . S
C1125 N1121 1.279 . S
C1125 C1123 1.358 . S
C1125 H1167 0.930 . S
C1126 C1127 1.348 . S
C1126 C1128 1.396 . S
C1126 O1151 1.325 . S
C1127 C1126 1.348 . S
C1127 C1129 1.353 . S
C1127 H1168 0.929 . S
C1128 C1126 1.396 . S
C1128 C1130 1.355 1_455 S
C1128 H1169 0.893 1_455 S
C1129 C1127 1.353 . S
C1129 N1131 1.314 . S
C1129 H1170 0.930 . S
C1130 C1128 1.355 1_655 S
C1130 N1131 1.279 1_655 S
C1130 H1171 0.930 . S
N1131 C1129 1.314 . S
N1131 C1130 1.279 1_455 S
C1132 C1134 1.353 . S
C1132 N1135 1.314 . S
C1132 H1138 0.930 . S
C1133 N1135 1.279 . S
C1133 C1136 1.358 . S
C1133 H1139 0.930 . S
C1134 C1132 1.353 . S
C1134 C1137 1.348 . S
C1134 H1172 0.929 . S
N1135 Li1090 1.990 . S
N1135 C1132 1.314 . S
N1135 C1133 1.279 . S
C1136 C1133 1.358 . S
C1136 C1137 1.356 . S
C1136 H1173 0.930 . S
C1137 C1134 1.348 . S
C1137 C1136 1.356 . S
H1138 C1132 0.930 . S
H1139 C1133 0.930 . S
C1140 N1141 1.314 . S
C1140 C1142 1.353 . S
C1140 H1146 0.930 . S
N1141 Li1091 1.990 . S
N1141 C1140 1.314 . S
N1141 C1144 1.279 . S
C1142 C1140 1.353 . S
C1142 C1145 1.348 . S
C1142 H1174 0.954 . S
C1143 C1144 1.358 . S
C1143 C1145 1.356 . S
C1143 H1175 0.930 . S
C1144 N1141 1.279 . S
C1144 C1143 1.358 . S
C1144 H1147 0.930 . S
C1145 C1142 1.348 . S
C1145 C1143 1.356 . S
H1146 C1140 0.930 . S
H1147 C1144 0.930 . S
O1148 Li1088 1.956 . S
O1148 Li1089 1.970 . S
O1148 Li1090 1.961 . S
O1148 C1092 1.325 . S
O1149 Li1088 1.970 . S
O1149 Li1089 1.956 . S
O1149 Li1091 1.961 . S
O1149 C1098 1.325 1_455 S
O1150 Li1088 1.961 . S
O1150 Li1090 1.956 . S
O1150 Li1091 1.970 . S
O1150 C1120 1.325 . S
O1151 Li1089 1.961 . S
O1151 Li1090 1.970 . S
O1151 Li1091 1.956 . S
O1151 C1126 1.325 . S
H1152 C1094 0.929 . S
H1153 C1095 0.930 . S
H1154 C1096 0.930 . S
H1155 C1097 0.930 . S
H1156 C1099 0.930 . S
H1157 C1101 0.929 . S
H1158 C1102 0.930 . S
H1159 C1103 0.930 . S
H1160 C1106 0.930 . S
H1161 C1109 0.929 . S
H1162 C1114 0.929 . S
H1163 C1115 0.930 . S
H1164 C1122 0.929 . S
H1165 C1123 0.930 . S
H1166 C1124 0.930 . S
H1167 C1125 0.930 . S
H1168 C1127 0.929 . S
H1169 C1128 0.893 1_655 S
H1170 C1129 0.930 . S
H1171 C1130 0.930 . S
H1172 C1134 0.929 . S
H1173 C1136 0.930 . S
H1174 C1142 0.954 . S
H1175 C1143 0.930 . S
Li1176 N1193 1.990 . S
Li1176 O1236 1.956 . S
Li1176 O1237 1.970 . S
Li1176 O1238 1.961 . S
Li1177 N1201 1.990 . S
Li1177 O1236 1.970 . S
Li1177 O1237 1.956 . S
Li1177 O1239 1.961 . S
Li1178 N1223 1.990 . S
Li1178 O1236 1.961 . S
Li1178 O1238 1.956 . S
Li1178 O1239 1.970 . S
Li1179 N1229 1.990 . S
Li1179 O1237 1.961 . S
Li1179 O1238 1.970 . S
Li1179 O1239 1.956 . S
C1180 C1182 1.348 . S
C1180 C1183 1.356 . S
C1180 O1236 1.325 . S
N1181 C1184 1.314 . S
N1181 C1185 1.279 . S
C1182 C1180 1.348 . S
C1182 C1184 1.353 . S
C1182 H1240 0.929 . S
C1183 C1180 1.356 . S
C1183 C1185 1.358 . S
C1183 H1241 0.930 . S
C1184 N1181 1.314 . S
C1184 C1182 1.353 . S
C1184 H1242 0.930 . S
C1185 N1181 1.279 . S
C1185 C1183 1.358 . S
C1185 H1243 0.930 . S
C1186 C1189 1.348 . S
C1186 C1190 1.356 . S
C1186 O1237 1.325 . S
C1187 N1188 1.279 . S
C1187 C1190 1.358 . S
C1187 H1244 0.930 . S
N1188 C1187 1.279 . S
N1188 C1191 1.314 . S
C1189 C1186 1.348 . S
C1189 C1191 1.353 . S
C1189 H1245 0.929 . S
C1190 C1186 1.356 . S
C1190 C1187 1.358 . S
C1190 H1246 0.930 . S
C1191 N1188 1.314 . S
C1191 C1189 1.353 . S
C1191 H1247 0.930 . S
C1192 N1193 1.314 . S
C1192 C1197 1.353 . S
C1192 H1198 0.930 . S
N1193 Li1176 1.990 . S
N1193 C1192 1.314 . S
N1193 C1195 1.279 . S
C1194 C1195 1.358 . S
C1194 C1196 1.356 . S
C1194 H1248 0.930 . S
C1195 N1193 1.279 . S
C1195 C1194 1.358 . S
C1195 H1199 0.930 . S
C1196 C1194 1.356 . S
C1196 C1197 1.348 . S
C1197 C1192 1.353 . S
C1197 C1196 1.348 . S
C1197 H1249 0.929 . S
H1198 C1192 0.930 . S
H1199 C1195 0.930 . S
C1200 N1201 1.314 . S
C1200 C1202 1.353 . S
C1200 H1206 0.930 . S
N1201 Li1177 1.990 . S
N1201 C1200 1.314 . S
N1201 C1204 1.279 . S
C1202 C1200 1.353 . S
C1202 C1205 1.348 . S
C1202 H1250 0.929 . S
C1203 C1204 1.358 . S
C1203 C1205 1.356 . S
C1203 H1251 0.930 . S
C1204 N1201 1.279 . S
C1204 C1203 1.358 . S
C1204 H1207 0.930 . S
C1205 C1202 1.348 . S
C1205 C1203 1.356 . S
H1206 C1200 0.930 . S
H1207 C1204 0.930 . S
C1208 C1210 1.348 . S
C1208 C1211 1.356 . S
C1208 O1238 1.325 . S
N1209 C1212 1.314 . S
N1209 C1213 1.279 . S
C1210 C1208 1.348 . S
C1210 C1212 1.353 . S
C1210 H1252 0.929 . S
C1211 C1208 1.356 . S
C1211 C1213 1.358 . S
C1211 H1253 0.930 . S
C1212 N1209 1.314 . S
C1212 C1210 1.353 . S
C1212 H1254 0.930 . S
C1213 N1209 1.279 . S
C1213 C1211 1.358 . S
C1213 H1255 0.930 . S
C1214 C1215 1.348 . S
C1214 C1216 1.356 . S
C1214 O1239 1.325 . S
C1215 C1214 1.348 . S
C1215 C1217 1.353 . S
C1215 H1256 0.929 . S
C1216 C1214 1.356 . S
C1216 C1218 1.358 . S
C1216 H1257 0.930 . S
C1217 C1215 1.353 . S
C1217 N1219 1.314 . S
C1217 H1258 0.930 . S
C1218 C1216 1.358 . S
C1218 N1219 1.279 . S
C1218 H1259 0.930 . S
N1219 C1217 1.314 . S
N1219 C1218 1.279 . S
C1220 C1222 1.353 . S
C1220 N1223 1.314 . S
C1220 H1226 0.930 . S
C1221 N1223 1.279 . S
C1221 C1224 1.358 . S
C1221 H1227 0.930 . S
C1222 C1220 1.353 . S
C1222 C1225 1.348 . S
C1222 H1260 0.929 . S
N1223 Li1178 1.990 . S
N1223 C1220 1.314 . S
N1223 C1221 1.279 . S
C1224 C1221 1.358 . S
C1224 C1225 1.356 . S
C1224 H1261 0.930 . S
C1225 C1222 1.348 . S
C1225 C1224 1.356 . S
H1226 C1220 0.930 . S
H1227 C1221 0.930 . S
C1228 N1229 1.314 . S
C1228 C1230 1.353 . S
C1228 H1234 0.930 . S
N1229 Li1179 1.990 . S
N1229 C1228 1.314 . S
N1229 C1232 1.279 . S
C1230 C1228 1.353 . S
C1230 C1233 1.348 . S
C1230 H1262 0.929 . S
C1231 C1232 1.358 . S
C1231 C1233 1.356 . S
C1231 H1263 0.930 . S
C1232 N1229 1.279 . S
C1232 C1231 1.358 . S
C1232 H1235 0.930 . S
C1233 C1230 1.348 . S
C1233 C1231 1.356 . S
H1234 C1228 0.930 . S
H1235 C1232 0.930 . S
O1236 Li1176 1.956 . S
O1236 Li1177 1.970 . S
O1236 Li1178 1.961 . S
O1236 C1180 1.325 . S
O1237 Li1176 1.970 . S
O1237 Li1177 1.956 . S
O1237 Li1179 1.961 . S
O1237 C1186 1.325 . S
O1238 Li1176 1.961 . S
O1238 Li1178 1.956 . S
O1238 Li1179 1.970 . S
O1238 C1208 1.325 . S
O1239 Li1177 1.961 . S
O1239 Li1178 1.970 . S
O1239 Li1179 1.956 . S
O1239 C1214 1.325 . S
H1240 C1182 0.929 . S
H1241 C1183 0.930 . S
H1242 C1184 0.930 . S
H1243 C1185 0.930 . S
H1244 C1187 0.930 . S
H1245 C1189 0.929 . S
H1246 C1190 0.930 . S
H1247 C1191 0.930 . S
H1248 C1194 0.930 . S
H1249 C1197 0.929 . S
H1250 C1202 0.929 . S
H1251 C1203 0.930 . S
H1252 C1210 0.929 . S
H1253 C1211 0.930 . S
H1254 C1212 0.930 . S
H1255 C1213 0.930 . S
H1256 C1215 0.929 . S
H1257 C1216 0.930 . S
H1258 C1217 0.930 . S
H1259 C1218 0.930 . S
H1260 C1222 0.929 . S
H1261 C1224 0.930 . S
H1262 C1230 0.929 . S
H1263 C1231 0.930 . S
H1264 C1282 0.951 . S
H1265 C1284 0.951 . S
H1266 C1286 0.950 . S
H1267 C1287 0.950 . S
H1268 C1289 0.950 . S
H1269 C1292 0.950 . S
H1270 C1293 0.950 . S
H1271 C1295 0.950 . S
H1272 C1296 0.950 . S
H1273 C1297 0.951 . S
H1274 C1299 0.951 . S
H1275 C1301 0.950 . S
H1276 C1302 0.950 . S
H1277 C1304 0.950 . S
H1278 C1307 0.950 . S
H1279 C1308 0.950 . S
H1280 C1310 0.950 . S
H1281 C1311 0.950 . S
C1282 H1264 0.951 . S
C1282 C1283 1.366 . S
C1282 C1284 1.388 . S
C1283 C1282 1.366 . S
C1283 C1287 1.385 . S
C1284 H1265 0.951 . S
C1284 C1282 1.388 . S
C1284 C1285 1.366 . S
C1285 C1284 1.366 . S
C1285 C1286 1.414 . S
C1285 C1288 1.499 . S
C1286 H1266 0.950 . S
C1286 C1285 1.414 . S
C1286 C1287 1.374 . S
C1287 H1267 0.950 . S
C1287 C1283 1.385 . S
C1287 C1286 1.374 . S
C1288 C1285 1.499 . S
C1288 C1289 1.373 . S
C1288 C1290 1.389 . S
C1289 H1268 0.950 . S
C1289 C1288 1.373 . S
C1289 C1305 1.377 . S
C1290 C1288 1.389 . S
C1290 C1291 1.524 . S
C1290 C1304 1.377 . S
C1291 C1290 1.524 . S
C1291 C1292 1.397 . S
C1291 C1296 1.363 . S
C1292 H1269 0.950 . S
C1292 C1291 1.397 . S
C1292 C1293 1.334 . S
C1293 H1270 0.950 . S
C1293 C1292 1.334 . S
C1293 C1294 1.287 . S
C1294 C1293 1.287 . S
C1294 C1295 1.524 . S
C1294 H1313 0.913 . S
C1295 H1271 0.950 . S
C1295 C1294 1.524 . S
C1295 C1296 1.415 . S
C1296 H1272 0.950 . S
C1296 C1291 1.363 . S
C1296 C1295 1.415 . S
C1297 H1273 0.951 . S
C1297 C1298 1.366 . S
C1297 C1299 1.388 . S
C1298 C1297 1.366 . S
C1298 C1302 1.385 . S
C1299 H1274 0.951 . S
C1299 C1297 1.388 . S
C1299 C1300 1.366 . S
C1300 C1299 1.366 . S
C1300 C1301 1.414 . S
C1300 C1303 1.499 . S
C1301 H1275 0.950 . S
C1301 C1300 1.414 . S
C1301 C1302 1.374 . S
C1302 H1276 0.950 . S
C1302 C1298 1.385 . S
C1302 C1301 1.374 . S
C1303 C1300 1.499 . S
C1303 C1304 1.373 . S
C1303 C1305 1.389 . S
C1304 H1277 0.950 . S
C1304 C1290 1.377 . S
C1304 C1303 1.373 . S
C1305 C1289 1.377 . S
C1305 C1303 1.389 . S
C1305 C1306 1.524 . S
C1306 C1305 1.524 . S
C1306 C1307 1.397 . S
C1306 C1311 1.363 . S
C1307 H1278 0.950 . S
C1307 C1306 1.397 . S
C1307 C1308 1.334 . S
C1308 H1279 0.950 . S
C1308 C1307 1.334 . S
C1308 C1309 1.287 . S
C1309 C1308 1.287 . S
C1309 C1310 1.524 . S
C1309 H1312 0.999 . S
C1310 H1280 0.950 . S
C1310 C1309 1.524 . S
C1310 C1311 1.415 . S
C1311 H1281 0.950 . S
C1311 C1306 1.363 . S
C1311 C1310 1.415 . S
H1312 C1309 0.999 . S
H1313 C1294 0.913 . S
H1314 C1332 0.951 . S
H1315 C1334 0.951 . S
H1316 C1336 0.950 . S
H1317 C1337 0.951 1_455 S
H1318 C1339 0.950 . S
H1319 C1342 0.950 . S
H1320 C1343 0.953 . S
H1321 C1345 0.950 . S
H1322 C1346 0.950 . S
H1323 C1347 0.951 . S
H1324 C1349 0.951 . S
H1325 C1351 0.950 . S
H1326 C1352 0.950 . S
H1327 C1354 0.950 . S
H1328 C1357 0.950 . S
H1329 C1358 0.950 . S
H1330 C1360 0.950 . S
H1331 C1361 0.950 . S
C1332 H1314 0.951 . S
C1332 C1333 1.366 . S
C1332 C1334 1.388 . S
C1333 C1332 1.366 . S
C1333 C1337 1.385 . S
C1334 H1315 0.951 . S
C1334 C1332 1.388 . S
C1334 C1335 1.366 1_655 S
C1335 C1334 1.366 1_455 S
C1335 C1336 1.414 . S
C1335 C1338 1.499 . S
C1336 H1316 0.950 . S
C1336 C1335 1.414 . S
C1336 C1337 1.374 1_455 S
C1337 H1317 0.951 1_655 S
C1337 C1333 1.385 . S
C1337 C1336 1.374 1_655 S
C1338 C1335 1.499 . S
C1338 C1339 1.373 . S
C1338 C1340 1.389 . S
C1339 H1318 0.950 . S
C1339 C1338 1.373 . S
C1339 C1355 1.377 . S
C1340 C1338 1.389 . S
C1340 C1341 1.524 . S
C1340 C1354 1.377 . S
C1341 C1340 1.524 . S
C1341 C1342 1.397 . S
C1341 C1346 1.363 . S
C1342 H1319 0.950 . S
C1342 C1341 1.397 . S
C1342 C1343 1.334 . S
C1343 H1320 0.953 . S
C1343 C1342 1.334 . S
C1343 C1344 1.287 1_455 S
C1344 C1343 1.287 1_655 S
C1344 C1345 1.524 . S
C1344 H1363 0.913 . S
C1345 H1321 0.950 . S
C1345 C1344 1.524 . S
C1345 C1346 1.415 1_655 S
C1346 H1322 0.950 . S
C1346 C1341 1.363 . S
C1346 C1345 1.415 1_455 S
C1347 H1323 0.951 . S
C1347 C1348 1.366 . S
C1347 C1349 1.388 . S
C1348 C1347 1.366 . S
C1348 C1352 1.385 . S
C1349 H1324 0.951 . S
C1349 C1347 1.388 . S
C1349 C1350 1.366 . S
C1350 C1349 1.366 . S
C1350 C1351 1.414 . S
C1350 C1353 1.499 . S
C1351 H1325 0.950 . S
C1351 C1350 1.414 . S
C1351 C1352 1.374 . S
C1352 H1326 0.950 . S
C1352 C1348 1.385 . S
C1352 C1351 1.374 . S
C1353 C1350 1.499 . S
C1353 C1354 1.373 . S
C1353 C1355 1.389 . S
C1354 H1327 0.950 . S
C1354 C1340 1.377 . S
C1354 C1353 1.373 . S
C1355 C1339 1.377 . S
C1355 C1353 1.389 . S
C1355 C1356 1.524 . S
C1356 C1355 1.524 . S
C1356 C1357 1.397 . S
C1356 C1361 1.363 . S
C1357 H1328 0.950 . S
C1357 C1356 1.397 . S
C1357 C1358 1.334 . S
C1358 H1329 0.950 . S
C1358 C1357 1.334 . S
C1358 C1359 1.287 . S
C1359 C1358 1.287 . S
C1359 C1360 1.524 . S
C1359 H1362 0.999 . S
C1360 H1330 0.950 . S
C1360 C1359 1.524 . S
C1360 C1361 1.415 . S
C1361 H1331 0.950 . S
C1361 C1356 1.363 . S
C1361 C1360 1.415 . S
H1362 C1359 0.999 . S
H1363 C1344 0.913 . S
H1364 C1382 0.951 . S
H1365 C1384 0.951 . S
H1366 C1386 0.950 . S
H1367 C1387 0.950 . S
H1368 C1389 0.950 . S
H1369 C1392 0.950 . S
H1370 C1393 0.950 . S
H1371 C1395 0.950 . S
H1372 C1396 0.950 . S
H1373 C1397 0.951 . S
H1374 C1399 0.951 . S
H1375 C1401 0.950 . S
H1376 C1402 0.950 . S
H1377 C1404 0.950 . S
H1378 C1407 0.950 . S
H1379 C1408 0.950 . S
H1380 C1410 0.950 . S
H1381 C1411 0.950 . S
C1382 H1364 0.951 . S
C1382 C1383 1.366 . S
C1382 C1384 1.388 . S
C1383 C1382 1.366 . S
C1383 C1387 1.385 . S
C1384 H1365 0.951 . S
C1384 C1382 1.388 . S
C1384 C1385 1.366 . S
C1385 C1384 1.366 . S
C1385 C1386 1.414 . S
C1385 C1388 1.499 . S
C1386 H1366 0.950 . S
C1386 C1385 1.414 . S
C1386 C1387 1.374 . S
C1387 H1367 0.950 . S
C1387 C1383 1.385 . S
C1387 C1386 1.374 . S
C1388 C1385 1.499 . S
C1388 C1389 1.373 . S
C1388 C1390 1.389 . S
C1389 H1368 0.950 . S
C1389 C1388 1.373 . S
C1389 C1405 1.377 . S
C1390 C1388 1.389 . S
C1390 C1391 1.524 . S
C1390 C1404 1.377 . S
C1391 C1390 1.524 . S
C1391 C1392 1.397 . S
C1391 C1396 1.363 . S
C1392 H1369 0.950 . S
C1392 C1391 1.397 . S
C1392 C1393 1.334 . S
C1393 H1370 0.950 . S
C1393 C1392 1.334 . S
C1393 C1394 1.287 . S
C1394 C1393 1.287 . S
C1394 C1395 1.524 . S
C1394 H1413 0.913 . S
C1395 H1371 0.950 . S
C1395 C1394 1.524 . S
C1395 C1396 1.415 . S
C1396 H1372 0.950 . S
C1396 C1391 1.363 . S
C1396 C1395 1.415 . S
C1397 H1373 0.951 . S
C1397 C1398 1.366 . S
C1397 C1399 1.388 . S
C1398 C1397 1.366 . S
C1398 C1402 1.385 . S
C1399 H1374 0.951 . S
C1399 C1397 1.388 . S
C1399 C1400 1.366 . S
C1400 C1399 1.366 . S
C1400 C1401 1.414 . S
C1400 C1403 1.499 . S
C1401 H1375 0.950 . S
C1401 C1400 1.414 . S
C1401 C1402 1.374 . S
C1402 H1376 0.950 . S
C1402 C1398 1.385 . S
C1402 C1401 1.374 . S
C1403 C1400 1.499 . S
C1403 C1404 1.373 . S
C1403 C1405 1.389 . S
C1404 H1377 0.950 . S
C1404 C1390 1.377 . S
C1404 C1403 1.373 . S
C1405 C1389 1.377 . S
C1405 C1403 1.389 . S
C1405 C1406 1.524 . S
C1406 C1405 1.524 . S
C1406 C1407 1.397 . S
C1406 C1411 1.363 . S
C1407 H1378 0.950 . S
C1407 C1406 1.397 . S
C1407 C1408 1.334 . S
C1408 H1379 0.950 . S
C1408 C1407 1.334 . S
C1408 C1409 1.287 . S
C1409 C1408 1.287 . S
C1409 C1410 1.524 . S
C1409 H1412 0.999 . S
C1410 H1380 0.950 . S
C1410 C1409 1.524 . S
C1410 C1411 1.415 . S
C1411 H1381 0.950 . S
C1411 C1406 1.363 . S
C1411 C1410 1.415 . S
H1412 C1409 0.999 . S
H1413 C1394 0.913 . S
H1414 C1432 0.951 . S
H1415 C1434 0.951 . S
H1416 C1436 0.950 . S
H1417 C1437 0.950 . S
H1418 C1439 0.950 . S
H1419 C1442 0.950 . S
H1420 C1443 0.950 . S
H1421 C1445 0.950 . S
H1422 C1446 0.950 . S
H1423 C1447 0.951 . S
H1424 C1449 0.951 . S
H1425 C1451 0.950 . S
H1426 C1452 0.950 . S
H1427 C1454 0.950 . S
H1428 C1457 0.950 . S
H1429 C1458 0.950 . S
H1430 C1460 0.950 . S
H1431 C1461 0.950 . S
C1432 H1414 0.951 . S
C1432 C1433 1.366 1_545 S
C1432 C1434 1.388 . S
C1433 C1432 1.366 1_565 S
C1433 C1437 1.385 . S
C1434 H1415 0.951 . S
C1434 C1432 1.388 . S
C1434 C1435 1.366 1_445 S
C1435 C1434 1.366 1_665 S
C1435 C1436 1.414 . S
C1435 C1438 1.499 . S
C1436 H1416 0.950 . S
C1436 C1435 1.414 . S
C1436 C1437 1.374 1_655 S
C1437 H1417 0.950 . S
C1437 C1433 1.385 . S
C1437 C1436 1.374 1_455 S
C1438 C1435 1.499 . S
C1438 C1439 1.373 . S
C1438 C1440 1.389 1_565 S
C1439 H1418 0.950 . S
C1439 C1438 1.373 . S
C1439 C1455 1.377 . S
C1440 C1438 1.389 1_545 S
C1440 C1441 1.524 . S
C1440 C1454 1.377 . S
C1441 C1440 1.524 . S
C1441 C1442 1.397 . S
C1441 C1446 1.363 . S
C1442 H1419 0.950 . S
C1442 C1441 1.397 . S
C1442 C1443 1.334 . S
C1443 H1420 0.950 . S
C1443 C1442 1.334 . S
C1443 C1444 1.287 . S
C1444 C1443 1.287 . S
C1444 C1445 1.524 . S
C1444 H1463 0.913 . S
C1445 H1421 0.950 . S
C1445 C1444 1.524 . S
C1445 C1446 1.415 . S
C1446 H1422 0.950 . S
C1446 C1441 1.363 . S
C1446 C1445 1.415 . S
C1447 H1423 0.951 . S
C1447 C1448 1.366 1_565 S
C1447 C1449 1.388 . S
C1448 C1447 1.366 1_545 S
C1448 C1452 1.385 . S
C1449 H1424 0.951 . S
C1449 C1447 1.388 . S
C1449 C1450 1.364 1_565 S
C1450 C1449 1.364 1_545 S
C1450 C1451 1.416 . S
C1450 C1453 1.498 1_545 S
C1451 H1425 0.950 . S
C1451 C1450 1.416 . S
C1451 C1452 1.374 . S
C1452 H1426 0.950 . S
C1452 C1448 1.385 . S
C1452 C1451 1.374 . S
C1453 C1450 1.498 1_565 S
C1453 C1454 1.373 1_565 S
C1453 C1455 1.389 . S
C1454 H1427 0.950 . S
C1454 C1440 1.377 . S
C1454 C1453 1.373 1_545 S
C1455 C1439 1.377 . S
C1455 C1453 1.389 . S
C1455 C1456 1.524 . S
C1456 C1455 1.524 . S
C1456 C1457 1.397 . S
C1456 C1461 1.363 . S
C1457 H1428 0.950 . S
C1457 C1456 1.397 . S
C1457 C1458 1.334 . S
C1458 H1429 0.950 . S
C1458 C1457 1.334 . S
C1458 C1459 1.287 . S
C1459 C1458 1.287 . S
C1459 C1460 1.524 . S
C1459 H1462 0.999 . S
C1460 H1430 0.950 . S
C1460 C1459 1.524 . S
C1460 C1461 1.415 . S
C1461 H1431 0.950 . S
C1461 C1456 1.363 . S
C1461 C1460 1.415 . S
H1462 C1459 0.999 . S
H1463 C1444 0.913 . S
H1464 C1482 0.951 . S
H1465 C1484 0.951 . S
H1466 C1486 0.950 . S
H1467 C1487 0.950 . S
H1468 C1489 0.950 . S
H1469 C1492 0.950 . S
H1470 C1493 0.950 . S
H1471 C1495 0.950 . S
H1472 C1496 0.950 . S
H1473 C1497 0.951 . S
H1474 C1499 0.951 . S
H1475 C1501 0.950 . S
H1476 C1502 0.950 . S
H1477 C1504 0.950 . S
H1478 C1507 0.950 . S
H1479 C1508 0.950 . S
H1480 C1510 0.950 . S
H1481 C1511 0.950 . S
C1482 H1464 0.951 . S
C1482 C1483 1.366 . S
C1482 C1484 1.388 . S
C1483 C1482 1.366 . S
C1483 C1487 1.385 . S
C1484 H1465 0.951 . S
C1484 C1482 1.388 . S
C1484 C1485 1.366 . S
C1485 C1484 1.366 . S
C1485 C1486 1.414 . S
C1485 C1488 1.499 . S
C1486 H1466 0.950 . S
C1486 C1485 1.414 . S
C1486 C1487 1.374 . S
C1487 H1467 0.950 . S
C1487 C1483 1.385 . S
C1487 C1486 1.374 . S
C1488 C1485 1.499 . S
C1488 C1489 1.373 . S
C1488 C1490 1.389 . S
C1489 H1468 0.950 . S
C1489 C1488 1.373 . S
C1489 C1505 1.377 . S
C1490 C1488 1.389 . S
C1490 C1491 1.524 . S
C1490 C1504 1.377 . S
C1491 C1490 1.524 . S
C1491 C1492 1.397 . S
C1491 C1496 1.363 . S
C1492 H1469 0.950 . S
C1492 C1491 1.397 . S
C1492 C1493 1.334 . S
C1493 H1470 0.950 . S
C1493 C1492 1.334 . S
C1493 C1494 1.287 . S
C1494 C1493 1.287 . S
C1494 C1495 1.524 . S
C1494 H1513 0.913 . S
C1495 H1471 0.950 . S
C1495 C1494 1.524 . S
C1495 C1496 1.415 . S
C1496 H1472 0.950 . S
C1496 C1491 1.363 . S
C1496 C1495 1.415 . S
C1497 H1473 0.951 . S
C1497 C1498 1.366 . S
C1497 C1499 1.388 . S
C1498 C1497 1.366 . S
C1498 C1502 1.385 . S
C1499 H1474 0.951 . S
C1499 C1497 1.388 . S
C1499 C1500 1.366 . S
C1500 C1499 1.366 . S
C1500 C1501 1.414 . S
C1500 C1503 1.499 . S
C1501 H1475 0.950 . S
C1501 C1500 1.414 . S
C1501 C1502 1.374 . S
C1502 H1476 0.950 . S
C1502 C1498 1.385 . S
C1502 C1501 1.374 . S
C1503 C1500 1.499 . S
C1503 C1504 1.373 . S
C1503 C1505 1.389 . S
C1504 H1477 0.950 . S
C1504 C1490 1.377 . S
C1504 C1503 1.373 . S
C1505 C1489 1.377 . S
C1505 C1503 1.389 . S
C1505 C1506 1.524 . S
C1506 C1505 1.524 . S
C1506 C1507 1.397 . S
C1506 C1511 1.363 . S
C1507 H1478 0.950 . S
C1507 C1506 1.397 . S
C1507 C1508 1.334 . S
C1508 H1479 0.950 . S
C1508 C1507 1.334 . S
C1508 C1509 1.287 . S
C1509 C1508 1.287 . S
C1509 C1510 1.524 . S
C1509 H1512 0.999 . S
C1510 H1480 0.950 . S
C1510 C1509 1.524 . S
C1510 C1511 1.415 . S
C1511 H1481 0.950 . S
C1511 C1506 1.363 . S
C1511 C1510 1.415 . S
H1512 C1509 0.999 . S
H1513 C1494 0.913 . S
H1514 C1532 0.951 . S
H1515 C1534 0.951 . S
H1516 C1536 0.950 . S
H1517 C1537 0.950 . S
H1518 C1539 0.950 . S
H1519 C1542 0.950 . S
H1520 C1543 0.950 . S
H1521 C1545 0.950 . S
H1522 C1546 0.950 . S
H1523 C1547 0.951 . S
H1524 C1549 0.951 . S
H1525 C1551 0.950 . S
H1526 C1552 0.950 . S
H1527 C1554 0.950 . S
H1528 C1557 0.950 . S
H1529 C1558 0.950 . S
H1530 C1560 0.950 . S
H1531 C1561 0.950 . S
C1532 H1514 0.951 . S
C1532 C1533 1.366 . S
C1532 C1534 1.388 . S
C1533 C1532 1.366 . S
C1533 C1537 1.385 . S
C1534 H1515 0.951 . S
C1534 C1532 1.388 . S
C1534 C1535 1.366 . S
C1535 C1534 1.366 . S
C1535 C1536 1.414 . S
C1535 C1538 1.499 . S
C1536 H1516 0.950 . S
C1536 C1535 1.414 . S
C1536 C1537 1.374 . S
C1537 H1517 0.950 . S
C1537 C1533 1.385 . S
C1537 C1536 1.374 . S
C1538 C1535 1.499 . S
C1538 C1539 1.373 . S
C1538 C1540 1.389 . S
C1539 H1518 0.950 . S
C1539 C1538 1.373 . S
C1539 C1555 1.377 . S
C1540 C1538 1.389 . S
C1540 C1541 1.524 . S
C1540 C1554 1.377 . S
C1541 C1540 1.524 . S
C1541 C1542 1.397 . S
C1541 C1546 1.363 . S
C1542 H1519 0.950 . S
C1542 C1541 1.397 . S
C1542 C1543 1.334 . S
C1543 H1520 0.950 . S
C1543 C1542 1.334 . S
C1543 C1544 1.287 . S
C1544 C1543 1.287 . S
C1544 C1545 1.524 . S
C1544 H1563 0.913 . S
C1545 H1521 0.950 . S
C1545 C1544 1.524 . S
C1545 C1546 1.415 . S
C1546 H1522 0.950 . S
C1546 C1541 1.363 . S
C1546 C1545 1.415 . S
C1547 H1523 0.951 . S
C1547 C1548 1.366 . S
C1547 C1549 1.388 . S
C1548 C1547 1.366 . S
C1548 C1552 1.385 . S
C1549 H1524 0.951 . S
C1549 C1547 1.388 . S
C1549 C1550 1.366 . S
C1550 C1549 1.366 . S
C1550 C1551 1.414 . S
C1550 C1553 1.499 . S
C1551 H1525 0.950 . S
C1551 C1550 1.414 . S
C1551 C1552 1.374 . S
C1552 H1526 0.950 . S
C1552 C1548 1.385 . S
C1552 C1551 1.374 . S
C1553 C1550 1.499 . S
C1553 C1554 1.373 . S
C1553 C1555 1.389 . S
C1554 H1527 0.950 . S
C1554 C1540 1.377 . S
C1554 C1553 1.373 . S
C1555 C1539 1.377 . S
C1555 C1553 1.389 . S
C1555 C1556 1.524 . S
C1556 C1555 1.524 . S
C1556 C1557 1.397 . S
C1556 C1561 1.363 . S
C1557 H1528 0.950 . S
C1557 C1556 1.397 . S
C1557 C1558 1.334 . S
C1558 H1529 0.950 . S
C1558 C1557 1.334 . S
C1558 C1559 1.287 . S
C1559 C1558 1.287 . S
C1559 C1560 1.524 . S
C1559 H1562 0.999 . S
C1560 H1530 0.950 . S
C1560 C1559 1.524 . S
C1560 C1561 1.415 . S
C1561 H1531 0.950 . S
C1561 C1556 1.363 . S
C1561 C1560 1.415 . S
H1562 C1559 0.999 . S
H1563 C1544 0.913 . S
H1564 C1582 0.951 . S
H1565 C1584 0.951 . S
H1566 C1586 0.950 . S
H1567 C1587 0.950 . S
H1568 C1589 0.950 . S
H1569 C1592 0.950 . S
H1570 C1593 0.950 . S
H1571 C1595 0.950 . S
H1572 C1596 0.950 . S
H1573 C1597 0.951 . S
H1574 C1599 0.951 . S
H1575 C1601 0.950 . S
H1576 C1602 0.950 . S
H1577 C1604 0.950 . S
H1578 C1607 0.950 . S
H1579 C1608 0.950 . S
H1580 C1610 0.950 . S
H1581 C1611 0.950 . S
C1582 H1564 0.951 . S
C1582 C1583 1.366 . S
C1582 C1584 1.388 . S
C1583 C1582 1.366 . S
C1583 C1587 1.385 . S
C1584 H1565 0.951 . S
C1584 C1582 1.388 . S
C1584 C1585 1.366 . S
C1585 C1584 1.366 . S
C1585 C1586 1.414 . S
C1585 C1588 1.499 . S
C1586 H1566 0.950 . S
C1586 C1585 1.414 . S
C1586 C1587 1.374 . S
C1587 H1567 0.950 . S
C1587 C1583 1.385 . S
C1587 C1586 1.374 . S
C1588 C1585 1.499 . S
C1588 C1589 1.373 . S
C1588 C1590 1.389 . S
C1589 H1568 0.950 . S
C1589 C1588 1.373 . S
C1589 C1605 1.377 . S
C1590 C1588 1.389 . S
C1590 C1591 1.524 . S
C1590 C1604 1.377 . S
C1591 C1590 1.524 . S
C1591 C1592 1.397 . S
C1591 C1596 1.363 . S
C1592 H1569 0.950 . S
C1592 C1591 1.397 . S
C1592 C1593 1.334 . S
C1593 H1570 0.950 . S
C1593 C1592 1.334 . S
C1593 C1594 1.287 . S
C1594 C1593 1.287 . S
C1594 C1595 1.524 . S
C1594 H1613 0.913 . S
C1595 H1571 0.950 . S
C1595 C1594 1.524 . S
C1595 C1596 1.415 . S
C1596 H1572 0.950 . S
C1596 C1591 1.363 . S
C1596 C1595 1.415 . S
C1597 H1573 0.951 . S
C1597 C1598 1.366 . S
C1597 C1599 1.388 . S
C1598 C1597 1.366 . S
C1598 C1602 1.385 . S
C1599 H1574 0.951 . S
C1599 C1597 1.388 . S
C1599 C1600 1.366 . S
C1600 C1599 1.366 . S
C1600 C1601 1.414 . S
C1600 C1603 1.499 . S
C1601 H1575 0.950 . S
C1601 C1600 1.414 . S
C1601 C1602 1.374 . S
C1602 H1576 0.950 . S
C1602 C1598 1.385 . S
C1602 C1601 1.374 . S
C1603 C1600 1.499 . S
C1603 C1604 1.373 . S
C1603 C1605 1.389 . S
C1604 H1577 0.950 . S
C1604 C1590 1.377 . S
C1604 C1603 1.373 . S
C1605 C1589 1.377 . S
C1605 C1603 1.389 . S
C1605 C1606 1.524 . S
C1606 C1605 1.524 . S
C1606 C1607 1.397 . S
C1606 C1611 1.363 . S
C1607 H1578 0.950 . S
C1607 C1606 1.397 . S
C1607 C1608 1.334 . S
C1608 H1579 0.950 . S
C1608 C1607 1.334 . S
C1608 C1609 1.287 . S
C1609 C1608 1.287 . S
C1609 C1610 1.524 . S
C1609 H1612 0.999 . S
C1610 H1580 0.950 . S
C1610 C1609 1.524 . S
C1610 C1611 1.415 . S
C1611 H1581 0.950 . S
C1611 C1606 1.363 . S
C1611 C1610 1.415 . S
H1612 C1609 0.999 . S
H1613 C1594 0.913 . S
H1614 C1632 0.951 . S
H1615 C1634 0.951 . S
H1616 C1636 0.913 1_545 S
H1617 C1637 0.950 . S
H1618 C1639 0.950 1_545 S
H1619 C1642 0.950 . S
H1620 C1643 0.950 . S
H1621 C1645 0.950 . S
H1622 C1646 0.950 . S
H1623 C1647 0.951 . S
H1624 C1649 0.951 . S
H1625 C1651 0.950 . S
H1626 C1652 0.950 . S
H1627 C1654 0.950 . S
H1628 C1657 0.950 . S
H1629 C1658 0.950 . S
H1630 C1660 0.950 . S
H1631 C1661 0.950 . S
C1632 H1614 0.951 . S
C1632 C1633 1.366 . S
C1632 C1634 1.388 . S
C1633 C1632 1.366 . S
C1633 C1637 1.385 . S
C1634 H1615 0.951 . S
C1634 C1632 1.388 . S
C1634 C1635 1.366 . S
C1635 C1634 1.366 . S
C1635 C1636 1.414 . S
C1635 C1638 1.499 . S
C1636 H1616 0.913 1_565 S
C1636 C1635 1.414 . S
C1636 C1637 1.374 . S
C1637 H1617 0.950 . S
C1637 C1633 1.385 . S
C1637 C1636 1.374 . S
C1638 C1635 1.499 . S
C1638 C1639 1.373 . S
C1638 C1640 1.389 . S
C1639 H1618 0.950 1_565 S
C1639 C1638 1.373 . S
C1639 C1655 1.376 . S
C1640 C1638 1.389 . S
C1640 C1641 1.524 . S
C1640 C1654 1.377 . S
C1641 C1640 1.524 . S
C1641 C1642 1.397 . S
C1641 C1646 1.363 . S
C1642 H1619 0.950 . S
C1642 C1641 1.397 . S
C1642 C1643 1.334 . S
C1643 H1620 0.950 . S
C1643 C1642 1.334 . S
C1643 C1644 1.287 . S
C1644 C1643 1.287 . S
C1644 C1645 1.524 . S
C1644 H1663 0.913 . S
C1645 H1621 0.950 . S
C1645 C1644 1.524 . S
C1645 C1646 1.415 . S
C1646 H1622 0.950 . S
C1646 C1641 1.363 . S
C1646 C1645 1.415 . S
C1647 H1623 0.951 . S
C1647 C1648 1.366 1_545 S
C1647 C1649 1.388 . S
C1648 C1647 1.366 1_565 S
C1648 C1652 1.385 . S
C1649 H1624 0.951 . S
C1649 C1647 1.388 . S
C1649 C1650 1.366 1_545 S
C1650 C1649 1.366 1_565 S
C1650 C1651 1.414 . S
C1650 C1653 1.499 . S
C1651 H1625 0.950 . S
C1651 C1650 1.414 . S
C1651 C1652 1.374 . S
C1652 H1626 0.950 . S
C1652 C1648 1.385 . S
C1652 C1651 1.374 . S
C1653 C1650 1.499 . S
C1653 C1654 1.373 . S
C1653 C1655 1.387 . S
C1654 H1627 0.950 . S
C1654 C1640 1.377 . S
C1654 C1653 1.373 . S
C1655 C1639 1.376 . S
C1655 C1653 1.387 . S
C1655 C1656 1.527 1_565 S
C1656 C1655 1.527 1_545 S
C1656 C1657 1.397 . S
C1656 C1661 1.363 . S
C1657 H1628 0.950 . S
C1657 C1656 1.397 . S
C1657 C1658 1.334 . S
C1658 H1629 0.950 . S
C1658 C1657 1.334 . S
C1658 C1659 1.287 . S
C1659 C1658 1.287 . S
C1659 C1660 1.524 . S
C1659 H1662 0.999 . S
C1660 H1630 0.950 . S
C1660 C1659 1.524 . S
C1660 C1661 1.415 . S
C1661 H1631 0.950 . S
C1661 C1656 1.363 . S
C1661 C1660 1.415 . S
H1662 C1659 0.999 . S
H1663 C1644 0.913 . S
H1664 C1682 0.951 . S
H1665 C1684 0.951 . S
H1666 C1686 0.950 . S
H1667 C1687 0.950 . S
H1668 C1689 0.950 . S
H1669 C1692 0.950 . S
H1670 C1693 0.950 . S
H1671 C1695 0.950 . S
H1672 C1696 0.950 . S
H1673 C1697 0.951 . S
H1674 C1699 0.951 . S
H1675 C1701 0.950 . S
H1676 C1702 0.950 . S
H1677 C1704 0.950 . S
H1678 C1707 0.950 . S
H1679 C1708 0.950 . S
H1680 C1710 0.950 . S
H1681 C1711 0.950 . S
C1682 H1664 0.951 . S
C1682 C1683 1.366 . S
C1682 C1684 1.388 . S
C1683 C1682 1.366 . S
C1683 C1687 1.385 . S
C1684 H1665 0.951 . S
C1684 C1682 1.388 . S
C1684 C1685 1.366 . S
C1685 C1684 1.366 . S
C1685 C1686 1.414 . S
C1685 C1688 1.499 . S
C1686 H1666 0.950 . S
C1686 C1685 1.414 . S
C1686 C1687 1.374 . S
C1687 H1667 0.950 . S
C1687 C1683 1.385 . S
C1687 C1686 1.374 . S
C1688 C1685 1.499 . S
C1688 C1689 1.373 . S
C1688 C1690 1.389 . S
C1689 H1668 0.950 . S
C1689 C1688 1.373 . S
C1689 C1705 1.377 . S
C1690 C1688 1.389 . S
C1690 C1691 1.524 . S
C1690 C1704 1.377 . S
C1691 C1690 1.524 . S
C1691 C1692 1.397 . S
C1691 C1696 1.363 . S
C1692 H1669 0.950 . S
C1692 C1691 1.397 . S
C1692 C1693 1.334 . S
C1693 H1670 0.950 . S
C1693 C1692 1.334 . S
C1693 C1694 1.287 . S
C1694 C1693 1.287 . S
C1694 C1695 1.524 . S
C1694 H1713 0.913 . S
C1695 H1671 0.950 . S
C1695 C1694 1.524 . S
C1695 C1696 1.415 . S
C1696 H1672 0.950 . S
C1696 C1691 1.363 . S
C1696 C1695 1.415 . S
C1697 H1673 0.951 . S
C1697 C1698 1.366 . S
C1697 C1699 1.388 . S
C1698 C1697 1.366 . S
C1698 C1702 1.385 . S
C1699 H1674 0.951 . S
C1699 C1697 1.388 . S
C1699 C1700 1.366 . S
C1700 C1699 1.366 . S
C1700 C1701 1.414 . S
C1700 C1703 1.499 . S
C1701 H1675 0.950 . S
C1701 C1700 1.414 . S
C1701 C1702 1.374 . S
C1702 H1676 0.950 . S
C1702 C1698 1.385 . S
C1702 C1701 1.374 . S
C1703 C1700 1.499 . S
C1703 C1704 1.373 . S
C1703 C1705 1.389 . S
C1704 H1677 0.950 . S
C1704 C1690 1.377 . S
C1704 C1703 1.373 . S
C1705 C1689 1.377 . S
C1705 C1703 1.389 . S
C1705 C1706 1.524 . S
C1706 C1705 1.524 . S
C1706 C1707 1.397 . S
C1706 C1711 1.363 . S
C1707 H1678 0.950 . S
C1707 C1706 1.397 . S
C1707 C1708 1.334 . S
C1708 H1679 0.950 . S
C1708 C1707 1.334 . S
C1708 C1709 1.287 . S
C1709 C1708 1.287 . S
C1709 C1710 1.524 . S
C1709 H1712 0.999 . S
C1710 H1680 0.950 . S
C1710 C1709 1.524 . S
C1710 C1711 1.415 . S
C1711 H1681 0.950 . S
C1711 C1706 1.363 . S
C1711 C1710 1.415 . S
H1712 C1709 0.999 . S
H1713 C1694 0.913 . S
H1714 C1732 0.951 . S
H1715 C1734 0.951 . S
H1716 C1736 0.950 . S
H1717 C1737 0.950 . S
H1718 C1739 0.950 . S
H1719 C1742 0.950 . S
H1720 C1743 0.950 . S
H1721 C1745 0.950 . S
H1722 C1746 0.950 . S
H1723 C1747 0.951 . S
H1724 C1749 0.951 . S
H1725 C1751 0.950 . S
H1726 C1752 0.950 . S
H1727 C1754 0.950 . S
H1728 C1757 0.950 . S
H1729 C1758 0.950 . S
H1730 C1760 0.950 . S
H1731 C1761 0.950 . S
C1732 H1714 0.951 . S
C1732 C1733 1.366 . S
C1732 C1734 1.388 . S
C1733 C1732 1.366 . S
C1733 C1737 1.385 . S
C1734 H1715 0.951 . S
C1734 C1732 1.388 . S
C1734 C1735 1.366 . S
C1735 C1734 1.366 . S
C1735 C1736 1.414 . S
C1735 C1738 1.499 . S
C1736 H1716 0.950 . S
C1736 C1735 1.414 . S
C1736 C1737 1.374 . S
C1737 H1717 0.950 . S
C1737 C1733 1.385 . S
C1737 C1736 1.374 . S
C1738 C1735 1.499 . S
C1738 C1739 1.373 . S
C1738 C1740 1.389 . S
C1739 H1718 0.950 . S
C1739 C1738 1.373 . S
C1739 C1755 1.377 . S
C1740 C1738 1.389 . S
C1740 C1741 1.524 . S
C1740 C1754 1.377 . S
C1741 C1740 1.524 . S
C1741 C1742 1.397 . S
C1741 C1746 1.363 . S
C1742 H1719 0.950 . S
C1742 C1741 1.397 . S
C1742 C1743 1.334 . S
C1743 H1720 0.950 . S
C1743 C1742 1.334 . S
C1743 C1744 1.287 . S
C1744 C1743 1.287 . S
C1744 C1745 1.524 . S
C1744 H1763 0.913 . S
C1745 H1721 0.950 . S
C1745 C1744 1.524 . S
C1745 C1746 1.415 . S
C1746 H1722 0.950 . S
C1746 C1741 1.363 . S
C1746 C1745 1.415 . S
C1747 H1723 0.951 . S
C1747 C1748 1.366 . S
C1747 C1749 1.388 . S
C1748 C1747 1.366 . S
C1748 C1752 1.385 . S
C1749 H1724 0.951 . S
C1749 C1747 1.388 . S
C1749 C1750 1.366 . S
C1750 C1749 1.366 . S
C1750 C1751 1.414 . S
C1750 C1753 1.499 . S
C1751 H1725 0.950 . S
C1751 C1750 1.414 . S
C1751 C1752 1.374 . S
C1752 H1726 0.950 . S
C1752 C1748 1.385 . S
C1752 C1751 1.374 . S
C1753 C1750 1.499 . S
C1753 C1754 1.373 . S
C1753 C1755 1.389 . S
C1754 H1727 0.950 . S
C1754 C1740 1.377 . S
C1754 C1753 1.373 . S
C1755 C1739 1.377 . S
C1755 C1753 1.389 . S
C1755 C1756 1.524 . S
C1756 C1755 1.524 . S
C1756 C1757 1.397 . S
C1756 C1761 1.363 . S
C1757 H1728 0.950 . S
C1757 C1756 1.397 . S
C1757 C1758 1.334 . S
C1758 H1729 0.950 . S
C1758 C1757 1.334 . S
C1758 C1759 1.287 . S
C1759 C1758 1.287 . S
C1759 C1760 1.524 . S
C1759 H1762 0.999 . S
C1760 H1730 0.950 . S
C1760 C1759 1.524 . S
C1760 C1761 1.415 . S
C1761 H1731 0.950 . S
C1761 C1756 1.363 . S
C1761 C1760 1.415 . S
H1762 C1759 0.999 . S
H1763 C1744 0.913 . S
H1764 C1782 0.951 . S
H1765 C1784 0.951 . S
H1766 C1786 0.950 . S
H1767 C1787 0.950 . S
H1768 C1789 0.950 . S
H1769 C1792 0.950 . S
H1770 C1793 0.950 . S
H1771 C1795 0.950 . S
H1772 C1796 0.950 . S
H1773 C1797 0.951 . S
H1774 C1799 0.951 . S
H1775 C1801 0.950 . S
H1776 C1802 0.950 . S
H1777 C1804 0.950 . S
H1778 C1807 0.950 . S
H1779 C1808 0.950 . S
H1780 C1810 0.950 . S
H1781 C1811 0.950 . S
C1782 H1764 0.951 . S
C1782 C1783 1.366 . S
C1782 C1784 1.388 . S
C1783 C1782 1.366 . S
C1783 C1787 1.385 . S
C1784 H1765 0.951 . S
C1784 C1782 1.388 . S
C1784 C1785 1.366 . S
C1785 C1784 1.366 . S
C1785 C1786 1.414 . S
C1785 C1788 1.499 . S
C1786 H1766 0.950 . S
C1786 C1785 1.414 . S
C1786 C1787 1.374 . S
C1787 H1767 0.950 . S
C1787 C1783 1.385 . S
C1787 C1786 1.374 . S
C1788 C1785 1.499 . S
C1788 C1789 1.373 . S
C1788 C1790 1.389 . S
C1789 H1768 0.950 . S
C1789 C1788 1.373 . S
C1789 C1805 1.377 . S
C1790 C1788 1.389 . S
C1790 C1791 1.524 . S
C1790 C1804 1.377 . S
C1791 C1790 1.524 . S
C1791 C1792 1.397 . S
C1791 C1796 1.363 . S
C1792 H1769 0.950 . S
C1792 C1791 1.397 . S
C1792 C1793 1.334 . S
C1793 H1770 0.950 . S
C1793 C1792 1.334 . S
C1793 C1794 1.287 . S
C1794 C1793 1.287 . S
C1794 C1795 1.524 . S
C1794 H1813 0.913 . S
C1795 H1771 0.950 . S
C1795 C1794 1.524 . S
C1795 C1796 1.415 . S
C1796 H1772 0.950 . S
C1796 C1791 1.363 . S
C1796 C1795 1.415 . S
C1797 H1773 0.951 . S
C1797 C1798 1.366 . S
C1797 C1799 1.388 . S
C1798 C1797 1.366 . S
C1798 C1802 1.385 . S
C1799 H1774 0.951 . S
C1799 C1797 1.388 . S
C1799 C1800 1.366 . S
C1800 C1799 1.366 . S
C1800 C1801 1.414 . S
C1800 C1803 1.499 . S
C1801 H1775 0.950 . S
C1801 C1800 1.414 . S
C1801 C1802 1.374 . S
C1802 H1776 0.950 . S
C1802 C1798 1.385 . S
C1802 C1801 1.374 . S
C1803 C1800 1.499 . S
C1803 C1804 1.373 . S
C1803 C1805 1.389 . S
C1804 H1777 0.950 . S
C1804 C1790 1.377 . S
C1804 C1803 1.373 . S
C1805 C1789 1.377 . S
C1805 C1803 1.389 . S
C1805 C1806 1.524 . S
C1806 C1805 1.524 . S
C1806 C1807 1.397 . S
C1806 C1811 1.363 . S
C1807 H1778 0.950 . S
C1807 C1806 1.397 . S
C1807 C1808 1.334 . S
C1808 H1779 0.950 . S
C1808 C1807 1.334 . S
C1808 C1809 1.287 . S
C1809 C1808 1.287 . S
C1809 C1810 1.524 . S
C1809 H1812 0.999 . S
C1810 H1780 0.950 . S
C1810 C1809 1.524 . S
C1810 C1811 1.415 . S
C1811 H1781 0.950 . S
C1811 C1806 1.363 . S
C1811 C1810 1.415 . S
H1812 C1809 0.999 . S
H1813 C1794 0.913 . S
H1814 C1832 0.951 . S
H1815 C1834 0.951 . S
H1816 C1836 0.950 . S
H1817 C1837 0.950 . S
H1818 C1839 0.950 . S
H1819 C1842 0.950 . S
H1820 C1843 0.950 . S
H1821 C1845 0.950 . S
H1822 C1846 0.950 . S
H1823 C1847 0.951 . S
H1824 C1849 0.951 . S
H1825 C1851 0.950 . S
H1826 C1852 0.950 . S
H1827 C1854 0.950 . S
H1828 C1857 0.950 . S
H1829 C1858 0.950 . S
H1830 C1860 0.950 . S
H1831 C1861 0.950 . S
C1832 H1814 0.951 . S
C1832 C1833 1.366 . S
C1832 C1834 1.388 . S
C1833 C1832 1.366 . S
C1833 C1837 1.385 . S
C1834 H1815 0.951 . S
C1834 C1832 1.388 . S
C1834 C1835 1.366 . S
C1835 C1834 1.366 . S
C1835 C1836 1.414 . S
C1835 C1838 1.499 . S
C1836 H1816 0.950 . S
C1836 C1835 1.414 . S
C1836 C1837 1.374 . S
C1837 H1817 0.950 . S
C1837 C1833 1.385 . S
C1837 C1836 1.374 . S
C1838 C1835 1.499 . S
C1838 C1839 1.373 . S
C1838 C1840 1.389 . S
C1839 H1818 0.950 . S
C1839 C1838 1.373 . S
C1839 C1855 1.377 . S
C1840 C1838 1.389 . S
C1840 C1841 1.524 . S
C1840 C1854 1.377 . S
C1841 C1840 1.524 . S
C1841 C1842 1.397 . S
C1841 C1846 1.363 . S
C1842 H1819 0.950 . S
C1842 C1841 1.397 . S
C1842 C1843 1.334 . S
C1843 H1820 0.950 . S
C1843 C1842 1.334 . S
C1843 C1844 1.287 . S
C1844 C1843 1.287 . S
C1844 C1845 1.524 . S
C1844 H1863 0.913 . S
C1845 H1821 0.950 . S
C1845 C1844 1.524 . S
C1845 C1846 1.415 . S
C1846 H1822 0.950 . S
C1846 C1841 1.363 . S
C1846 C1845 1.415 . S
C1847 H1823 0.951 . S
C1847 C1848 1.366 . S
C1847 C1849 1.388 . S
C1848 C1847 1.366 . S
C1848 C1852 1.385 . S
C1849 H1824 0.951 . S
C1849 C1847 1.388 . S
C1849 C1850 1.366 . S
C1850 C1849 1.366 . S
C1850 C1851 1.414 . S
C1850 C1853 1.499 . S
C1851 H1825 0.950 . S
C1851 C1850 1.414 . S
C1851 C1852 1.374 . S
C1852 H1826 0.950 . S
C1852 C1848 1.385 . S
C1852 C1851 1.374 . S
C1853 C1850 1.499 . S
C1853 C1854 1.373 . S
C1853 C1855 1.389 . S
C1854 H1827 0.950 . S
C1854 C1840 1.377 . S
C1854 C1853 1.373 . S
C1855 C1839 1.377 . S
C1855 C1853 1.389 . S
C1855 C1856 1.524 . S
C1856 C1855 1.524 . S
C1856 C1857 1.397 . S
C1856 C1861 1.363 . S
C1857 H1828 0.950 . S
C1857 C1856 1.397 . S
C1857 C1858 1.334 . S
C1858 H1829 0.950 . S
C1858 C1857 1.334 . S
C1858 C1859 1.287 . S
C1859 C1858 1.287 . S
C1859 C1860 1.524 . S
C1859 H1862 0.999 . S
C1860 H1830 0.950 . S
C1860 C1859 1.524 . S
C1860 C1861 1.415 . S
C1861 H1831 0.950 . S
C1861 C1856 1.363 . S
C1861 C1860 1.415 . S
H1862 C1859 0.999 . S
H1863 C1844 0.913 . S
H1864 C1882 0.951 . S
H1865 C1884 0.951 . S
H1866 C1886 0.950 . S
H1867 C1887 0.950 . S
H1868 C1889 0.950 . S
H1869 C1892 0.950 . S
H1870 C1893 0.950 . S
H1871 C1895 0.950 . S
H1872 C1896 0.950 . S
H1873 C1897 0.951 . S
H1874 C1899 0.951 . S
H1875 C1901 0.950 . S
H1876 C1902 0.950 . S
H1877 C1904 0.950 . S
H1878 C1907 0.950 . S
H1879 C1908 0.950 . S
H1880 C1910 0.950 . S
H1881 C1911 0.950 . S
C1882 H1864 0.951 . S
C1882 C1883 1.366 . S
C1882 C1884 1.388 . S
C1883 C1882 1.366 . S
C1883 C1887 1.385 . S
C1884 H1865 0.951 . S
C1884 C1882 1.388 . S
C1884 C1885 1.366 . S
C1885 C1884 1.366 . S
C1885 C1886 1.414 . S
C1885 C1888 1.499 . S
C1886 H1866 0.950 . S
C1886 C1885 1.414 . S
C1886 C1887 1.374 . S
C1887 H1867 0.950 . S
C1887 C1883 1.385 . S
C1887 C1886 1.374 . S
C1888 C1885 1.499 . S
C1888 C1889 1.373 . S
C1888 C1890 1.389 . S
C1889 H1868 0.950 . S
C1889 C1888 1.373 . S
C1889 C1905 1.377 . S
C1890 C1888 1.389 . S
C1890 C1891 1.524 . S
C1890 C1904 1.377 . S
C1891 C1890 1.524 . S
C1891 C1892 1.397 . S
C1891 C1896 1.363 . S
C1892 H1869 0.950 . S
C1892 C1891 1.397 . S
C1892 C1893 1.334 . S
C1893 H1870 0.950 . S
C1893 C1892 1.334 . S
C1893 C1894 1.287 . S
C1894 C1893 1.287 . S
C1894 C1895 1.524 . S
C1894 H1913 0.913 . S
C1895 H1871 0.950 . S
C1895 C1894 1.524 . S
C1895 C1896 1.415 . S
C1896 H1872 0.950 . S
C1896 C1891 1.363 . S
C1896 C1895 1.415 . S
C1897 H1873 0.951 . S
C1897 C1898 1.366 . S
C1897 C1899 1.388 . S
C1898 C1897 1.366 . S
C1898 C1902 1.385 . S
C1899 H1874 0.951 . S
C1899 C1897 1.388 . S
C1899 C1900 1.366 . S
C1900 C1899 1.366 . S
C1900 C1901 1.414 . S
C1900 C1903 1.499 . S
C1901 H1875 0.950 . S
C1901 C1900 1.414 . S
C1901 C1902 1.374 . S
C1902 H1876 0.950 . S
C1902 C1898 1.385 . S
C1902 C1901 1.374 . S
C1903 C1900 1.499 . S
C1903 C1904 1.373 . S
C1903 C1905 1.389 . S
C1904 H1877 0.950 . S
C1904 C1890 1.377 . S
C1904 C1903 1.373 . S
C1905 C1889 1.377 . S
C1905 C1903 1.389 . S
C1905 C1906 1.524 . S
C1906 C1905 1.524 . S
C1906 C1907 1.397 . S
C1906 C1911 1.363 . S
C1907 H1878 0.950 . S
C1907 C1906 1.397 . S
C1907 C1908 1.334 . S
C1908 H1879 0.950 . S
C1908 C1907 1.334 . S
C1908 C1909 1.287 . S
C1909 C1908 1.287 . S
C1909 C1910 1.524 . S
C1909 H1912 0.999 . S
C1910 H1880 0.950 . S
C1910 C1909 1.524 . S
C1910 C1911 1.415 . S
C1911 H1881 0.950 . S
C1911 C1906 1.363 . S
C1911 C1910 1.415 . S
H1912 C1909 0.999 . S
H1913 C1894 0.913 . S
H1914 C1932 0.951 . S
H1915 C1934 0.951 . S
H1916 C1936 0.950 . S
H1917 C1937 0.950 . S
H1918 C1939 0.950 . S
H1919 C1942 0.950 . S
H1920 C1943 0.950 . S
H1921 C1945 0.950 . S
H1922 C1946 0.937 1_655 S
H1923 C1947 0.951 . S
H1924 C1949 0.951 . S
H1925 C1951 0.950 . S
H1926 C1952 0.950 . S
H1927 C1954 0.950 . S
H1928 C1957 0.950 . S
H1929 C1958 0.950 . S
H1930 C1960 0.950 . S
H1931 C1961 0.950 . S
C1932 H1914 0.951 . S
C1932 C1933 1.366 . S
C1932 C1934 1.388 . S
C1933 C1932 1.366 . S
C1933 C1937 1.385 . S
C1934 H1915 0.951 . S
C1934 C1932 1.388 . S
C1934 C1935 1.366 . S
C1935 C1934 1.366 . S
C1935 C1936 1.414 . S
C1935 C1938 1.499 . S
C1936 H1916 0.950 . S
C1936 C1935 1.414 . S
C1936 C1937 1.374 . S
C1937 H1917 0.950 . S
C1937 C1933 1.385 . S
C1937 C1936 1.374 . S
C1938 C1935 1.499 . S
C1938 C1939 1.373 . S
C1938 C1940 1.389 . S
C1939 H1918 0.950 . S
C1939 C1938 1.373 . S
C1939 C1955 1.377 . S
C1940 C1938 1.389 . S
C1940 C1941 1.524 . S
C1940 C1954 1.377 . S
C1941 C1940 1.524 . S
C1941 C1942 1.397 . S
C1941 C1946 1.404 . S
C1942 H1919 0.950 . S
C1942 C1941 1.397 . S
C1942 C1943 1.334 . S
C1943 H1920 0.950 . S
C1943 C1942 1.334 . S
C1943 C1944 1.283 . S
C1944 C1943 1.283 . S
C1944 C1945 1.526 1_455 S
C1944 H1963 0.915 1_455 S
C1945 H1921 0.950 . S
C1945 C1944 1.526 1_655 S
C1945 C1946 1.389 1_655 S
C1946 H1922 0.937 1_455 S
C1946 C1941 1.404 . S
C1946 C1945 1.389 1_455 S
C1947 H1923 0.951 . S
C1947 C1948 1.366 . S
C1947 C1949 1.388 . S
C1948 C1947 1.366 . S
C1948 C1952 1.385 . S
C1949 H1924 0.951 . S
C1949 C1947 1.388 . S
C1949 C1950 1.366 . S
C1950 C1949 1.366 . S
C1950 C1951 1.414 . S
C1950 C1953 1.499 . S
C1951 H1925 0.950 . S
C1951 C1950 1.414 . S
C1951 C1952 1.374 . S
C1952 H1926 0.950 . S
C1952 C1948 1.385 . S
C1952 C1951 1.374 . S
C1953 C1950 1.499 . S
C1953 C1954 1.373 . S
C1953 C1955 1.389 . S
C1954 H1927 0.950 . S
C1954 C1940 1.377 . S
C1954 C1953 1.373 . S
C1955 C1939 1.377 . S
C1955 C1953 1.389 . S
C1955 C1956 1.524 . S
C1956 C1955 1.524 . S
C1956 C1957 1.397 . S
C1956 C1961 1.363 . S
C1957 H1928 0.950 . S
C1957 C1956 1.397 . S
C1957 C1958 1.334 . S
C1958 H1929 0.950 . S
C1958 C1957 1.334 . S
C1958 C1959 1.287 . S
C1959 C1958 1.287 . S
C1959 C1960 1.524 . S
C1959 H1962 0.999 . S
C1960 H1930 0.950 . S
C1960 C1959 1.524 . S
C1960 C1961 1.415 . S
C1961 H1931 0.950 . S
C1961 C1956 1.363 . S
C1961 C1960 1.415 . S
H1962 C1959 0.999 . S
H1963 C1944 0.915 1_655 S
H1964 C1982 0.951 . S
H1965 C1984 0.951 . S
H1966 C1986 0.950 . S
H1967 C1987 0.950 . S
H1968 C1989 0.950 . S
H1969 C1992 0.950 . S
H1970 C1993 0.950 . S
H1971 C1995 0.950 . S
H1972 C1996 0.950 . S
H1973 C1997 0.951 . S
H1974 C1999 0.951 . S
H1975 C2001 0.950 . S
H1976 C2002 0.950 . S
H1977 C2004 0.950 . S
H1978 C2007 0.950 . S
H1979 C2008 0.950 . S
H1980 C2010 0.950 . S
H1981 C2011 0.950 . S
C1982 H1964 0.951 . S
C1982 C1983 1.366 . S
C1982 C1984 1.388 . S
C1983 C1982 1.366 . S
C1983 C1987 1.385 . S
C1984 H1965 0.951 . S
C1984 C1982 1.388 . S
C1984 C1985 1.366 . S
C1985 C1984 1.366 . S
C1985 C1986 1.414 . S
C1985 C1988 1.499 . S
C1986 H1966 0.950 . S
C1986 C1985 1.414 . S
C1986 C1987 1.374 . S
C1987 H1967 0.950 . S
C1987 C1983 1.385 . S
C1987 C1986 1.374 . S
C1988 C1985 1.499 . S
C1988 C1989 1.373 . S
C1988 C1990 1.389 . S
C1989 H1968 0.950 . S
C1989 C1988 1.373 . S
C1989 C2005 1.377 . S
C1990 C1988 1.389 . S
C1990 C1991 1.524 . S
C1990 C2004 1.377 . S
C1991 C1990 1.524 . S
C1991 C1992 1.397 . S
C1991 C1996 1.363 . S
C1992 H1969 0.950 . S
C1992 C1991 1.397 . S
C1992 C1993 1.334 . S
C1993 H1970 0.950 . S
C1993 C1992 1.334 . S
C1993 C1994 1.287 . S
C1994 C1993 1.287 . S
C1994 C1995 1.524 . S
C1994 H2013 0.913 . S
C1995 H1971 0.950 . S
C1995 C1994 1.524 . S
C1995 C1996 1.415 . S
C1996 H1972 0.950 . S
C1996 C1991 1.363 . S
C1996 C1995 1.415 . S
C1997 H1973 0.951 . S
C1997 C1998 1.366 . S
C1997 C1999 1.388 . S
C1998 C1997 1.366 . S
C1998 C2002 1.385 . S
C1999 H1974 0.951 . S
C1999 C1997 1.388 . S
C1999 C2000 1.366 . S
C2000 C1999 1.366 . S
C2000 C2001 1.414 . S
C2000 C2003 1.499 . S
C2001 H1975 0.950 . S
C2001 C2000 1.414 . S
C2001 C2002 1.374 . S
C2002 H1976 0.950 . S
C2002 C1998 1.385 . S
C2002 C2001 1.374 . S
C2003 C2000 1.499 . S
C2003 C2004 1.373 . S
C2003 C2005 1.389 . S
C2004 H1977 0.950 . S
C2004 C1990 1.377 . S
C2004 C2003 1.373 . S
C2005 C1989 1.377 . S
C2005 C2003 1.389 . S
C2005 C2006 1.524 . S
C2006 C2005 1.524 . S
C2006 C2007 1.397 . S
C2006 C2011 1.363 . S
C2007 H1978 0.950 . S
C2007 C2006 1.397 . S
C2007 C2008 1.334 . S
C2008 H1979 0.950 . S
C2008 C2007 1.334 . S
C2008 C2009 1.287 . S
C2009 C2008 1.287 . S
C2009 C2010 1.524 . S
C2009 H2012 0.999 . S
C2010 H1980 0.950 . S
C2010 C2009 1.524 . S
C2010 C2011 1.415 . S
C2011 H1981 0.950 . S
C2011 C2006 1.363 . S
C2011 C2010 1.415 . S
H2012 C2009 0.999 . S
H2013 C1994 0.913 . S
H2014 C2032 0.951 . S
H2015 C2034 0.951 . S
H2016 C2036 0.950 . S
H2017 C2037 0.950 . S
H2018 C2039 0.950 . S
H2019 C2042 0.950 . S
H2020 C2043 0.950 . S
H2021 C2045 0.950 . S
H2022 C2046 0.950 . S
H2023 C2047 0.961 . S
H2024 C2049 0.951 . S
H2025 C2051 0.950 . S
H2026 C2052 0.950 . S
H2027 C2054 0.950 1_455 S
H2028 C2057 0.950 . S
H2029 C2058 0.950 . S
H2030 C2060 0.950 . S
H2031 C2061 0.950 . S
C2032 H2014 0.951 . S
C2032 C2033 1.366 . S
C2032 C2034 1.388 . S
C2033 C2032 1.366 . S
C2033 C2037 1.385 . S
C2034 H2015 0.951 . S
C2034 C2032 1.388 . S
C2034 C2035 1.366 . S
C2035 C2034 1.366 . S
C2035 C2036 1.414 . S
C2035 C2038 1.499 . S
C2036 H2016 0.950 . S
C2036 C2035 1.414 . S
C2036 C2037 1.374 . S
C2037 H2017 0.950 . S
C2037 C2033 1.385 . S
C2037 C2036 1.374 . S
C2038 C2035 1.499 . S
C2038 C2039 1.373 . S
C2038 C2040 1.389 . S
C2039 H2018 0.950 . S
C2039 C2038 1.373 . S
C2039 C2055 1.377 . S
C2040 C2038 1.389 . S
C2040 C2041 1.524 1_655 S
C2040 C2054 1.377 . S
C2041 C2040 1.524 1_455 S
C2041 C2042 1.397 . S
C2041 C2046 1.363 . S
C2042 H2019 0.950 . S
C2042 C2041 1.397 . S
C2042 C2043 1.334 . S
C2043 H2020 0.950 . S
C2043 C2042 1.334 . S
C2043 C2044 1.287 . S
C2044 C2043 1.287 . S
C2044 C2045 1.524 . S
C2044 H2063 0.913 . S
C2045 H2021 0.950 . S
C2045 C2044 1.524 . S
C2045 C2046 1.415 . S
C2046 H2022 0.950 . S
C2046 C2041 1.363 . S
C2046 C2045 1.415 . S
C2047 H2023 0.961 . S
C2047 C2048 1.370 . S
C2047 C2049 1.376 1_455 S
C2048 C2047 1.370 . S
C2048 C2052 1.385 . S
C2049 H2024 0.951 . S
C2049 C2047 1.376 1_655 S
C2049 C2050 1.366 . S
C2050 C2049 1.366 . S
C2050 C2051 1.414 . S
C2050 C2053 1.499 . S
C2051 H2025 0.950 . S
C2051 C2050 1.414 . S
C2051 C2052 1.374 1_655 S
C2052 H2026 0.950 . S
C2052 C2048 1.385 . S
C2052 C2051 1.374 1_455 S
C2053 C2050 1.499 . S
C2053 C2054 1.373 . S
C2053 C2055 1.389 . S
C2054 H2027 0.950 1_655 S
C2054 C2040 1.377 . S
C2054 C2053 1.373 . S
C2055 C2039 1.377 . S
C2055 C2053 1.389 . S
C2055 C2056 1.524 . S
C2056 C2055 1.524 . S
C2056 C2057 1.397 . S
C2056 C2061 1.363 . S
C2057 H2028 0.950 . S
C2057 C2056 1.397 . S
C2057 C2058 1.334 . S
C2058 H2029 0.950 . S
C2058 C2057 1.334 . S
C2058 C2059 1.287 . S
C2059 C2058 1.287 . S
C2059 C2060 1.524 . S
C2059 H2062 0.999 . S
C2060 H2030 0.950 . S
C2060 C2059 1.524 . S
C2060 C2061 1.415 . S
C2061 H2031 0.950 . S
C2061 C2056 1.363 . S
C2061 C2060 1.415 . S
H2062 C2059 0.999 . S
H2063 C2044 0.913 . S
H2064 C2082 0.951 . S
H2065 C2084 0.951 . S
H2066 C2086 0.950 . S
H2067 C2087 0.950 . S
H2068 C2089 0.950 . S
H2069 C2092 0.950 . S
H2070 C2093 0.950 . S
H2071 C2095 0.950 . S
H2072 C2096 0.950 . S
H2073 C2097 0.951 . S
H2074 C2099 0.951 . S
H2075 C2101 0.950 . S
H2076 C2102 0.950 . S
H2077 C2104 0.950 . S
H2078 C2107 0.950 . S
H2079 C2108 0.950 . S
H2080 C2110 0.950 . S
H2081 C2111 0.950 . S
C2082 H2064 0.951 . S
C2082 C2083 1.366 . S
C2082 C2084 1.388 . S
C2083 C2082 1.366 . S
C2083 C2087 1.385 . S
C2084 H2065 0.951 . S
C2084 C2082 1.388 . S
C2084 C2085 1.366 . S
C2085 C2084 1.366 . S
C2085 C2086 1.414 . S
C2085 C2088 1.499 . S
C2086 H2066 0.950 . S
C2086 C2085 1.414 . S
C2086 C2087 1.374 . S
C2087 H2067 0.950 . S
C2087 C2083 1.385 . S
C2087 C2086 1.374 . S
C2088 C2085 1.499 . S
C2088 C2089 1.373 . S
C2088 C2090 1.389 . S
C2089 H2068 0.950 . S
C2089 C2088 1.373 . S
C2089 C2105 1.377 . S
C2090 C2088 1.389 . S
C2090 C2091 1.524 . S
C2090 C2104 1.377 . S
C2091 C2090 1.524 . S
C2091 C2092 1.397 . S
C2091 C2096 1.363 . S
C2092 H2069 0.950 . S
C2092 C2091 1.397 . S
C2092 C2093 1.334 . S
C2093 H2070 0.950 . S
C2093 C2092 1.334 . S
C2093 C2094 1.287 . S
C2094 C2093 1.287 . S
C2094 C2095 1.524 . S
C2094 H2113 0.913 . S
C2095 H2071 0.950 . S
C2095 C2094 1.524 . S
C2095 C2096 1.415 . S
C2096 H2072 0.950 . S
C2096 C2091 1.363 . S
C2096 C2095 1.415 . S
C2097 H2073 0.951 . S
C2097 C2098 1.366 . S
C2097 C2099 1.388 . S
C2098 C2097 1.366 . S
C2098 C2102 1.385 . S
C2099 H2074 0.951 . S
C2099 C2097 1.388 . S
C2099 C2100 1.366 . S
C2100 C2099 1.366 . S
C2100 C2101 1.414 . S
C2100 C2103 1.499 . S
C2101 H2075 0.950 . S
C2101 C2100 1.414 . S
C2101 C2102 1.374 . S
C2102 H2076 0.950 . S
C2102 C2098 1.385 . S
C2102 C2101 1.374 . S
C2103 C2100 1.499 . S
C2103 C2104 1.373 . S
C2103 C2105 1.389 . S
C2104 H2077 0.950 . S
C2104 C2090 1.377 . S
C2104 C2103 1.373 . S
C2105 C2089 1.377 . S
C2105 C2103 1.389 . S
C2105 C2106 1.524 . S
C2106 C2105 1.524 . S
C2106 C2107 1.397 . S
C2106 C2111 1.363 . S
C2107 H2078 0.950 . S
C2107 C2106 1.397 . S
C2107 C2108 1.334 . S
C2108 H2079 0.950 . S
C2108 C2107 1.334 . S
C2108 C2109 1.287 . S
C2109 C2108 1.287 . S
C2109 C2110 1.524 . S
C2109 H2112 0.999 . S
C2110 H2080 0.950 . S
C2110 C2109 1.524 . S
C2110 C2111 1.415 . S
C2111 H2081 0.950 . S
C2111 C2106 1.363 . S
C2111 C2110 1.415 . S
H2112 C2109 0.999 . S
H2113 C2094 0.913 . S
H2114 C2132 0.951 . S
H2115 C2134 0.951 . S
H2116 C2136 0.950 . S
H2117 C2137 0.950 . S
H2118 C2139 0.950 . S
H2119 C2142 0.950 . S
H2120 C2143 0.950 . S
H2121 C2145 0.950 . S
H2122 C2146 0.950 . S
H2123 C2147 0.951 . S
H2124 C2149 0.951 . S
H2125 C2151 0.950 . S
H2126 C2152 0.950 . S
H2127 C2154 0.950 . S
H2128 C2157 0.950 . S
H2129 C2158 0.950 . S
H2130 C2160 0.950 . S
H2131 C2161 0.950 . S
C2132 H2114 0.951 . S
C2132 C2133 1.366 . S
C2132 C2134 1.388 . S
C2133 C2132 1.366 . S
C2133 C2137 1.385 . S
C2134 H2115 0.951 . S
C2134 C2132 1.388 . S
C2134 C2135 1.366 . S
C2135 C2134 1.366 . S
C2135 C2136 1.414 . S
C2135 C2138 1.499 . S
C2136 H2116 0.950 . S
C2136 C2135 1.414 . S
C2136 C2137 1.374 . S
C2137 H2117 0.950 . S
C2137 C2133 1.385 . S
C2137 C2136 1.374 . S
C2138 C2135 1.499 . S
C2138 C2139 1.373 . S
C2138 C2140 1.389 . S
C2139 H2118 0.950 . S
C2139 C2138 1.373 . S
C2139 C2155 1.377 . S
C2140 C2138 1.389 . S
C2140 C2141 1.524 . S
C2140 C2154 1.377 . S
C2141 C2140 1.524 . S
C2141 C2142 1.397 . S
C2141 C2146 1.363 . S
C2142 H2119 0.950 . S
C2142 C2141 1.397 . S
C2142 C2143 1.334 . S
C2143 H2120 0.950 . S
C2143 C2142 1.334 . S
C2143 C2144 1.287 . S
C2144 C2143 1.287 . S
C2144 C2145 1.524 . S
C2144 H2163 0.913 . S
C2145 H2121 0.950 . S
C2145 C2144 1.524 . S
C2145 C2146 1.415 . S
C2146 H2122 0.950 . S
C2146 C2141 1.363 . S
C2146 C2145 1.415 . S
C2147 H2123 0.951 . S
C2147 C2148 1.366 . S
C2147 C2149 1.388 . S
C2148 C2147 1.366 . S
C2148 C2152 1.385 . S
C2149 H2124 0.951 . S
C2149 C2147 1.388 . S
C2149 C2150 1.366 . S
C2150 C2149 1.366 . S
C2150 C2151 1.414 . S
C2150 C2153 1.499 . S
C2151 H2125 0.950 . S
C2151 C2150 1.414 . S
C2151 C2152 1.374 . S
C2152 H2126 0.950 . S
C2152 C2148 1.385 . S
C2152 C2151 1.374 . S
C2153 C2150 1.499 . S
C2153 C2154 1.373 . S
C2153 C2155 1.389 . S
C2154 H2127 0.950 . S
C2154 C2140 1.377 . S
C2154 C2153 1.373 . S
C2155 C2139 1.377 . S
C2155 C2153 1.389 . S
C2155 C2156 1.524 . S
C2156 C2155 1.524 . S
C2156 C2157 1.397 . S
C2156 C2161 1.363 . S
C2157 H2128 0.950 . S
C2157 C2156 1.397 . S
C2157 C2158 1.334 . S
C2158 H2129 0.950 . S
C2158 C2157 1.334 . S
C2158 C2159 1.287 . S
C2159 C2158 1.287 . S
C2159 C2160 1.524 . S
C2159 H2162 0.999 . S
C2160 H2130 0.950 . S
C2160 C2159 1.524 . S
C2160 C2161 1.415 . S
C2161 H2131 0.950 . S
C2161 C2156 1.363 . S
C2161 C2160 1.415 . S
H2162 C2159 0.999 . S
H2163 C2144 0.913 . S
H2164 C2182 0.951 . S
H2165 C2184 0.951 . S
H2166 C2186 0.950 . S
H2167 C2187 0.950 . S
H2168 C2189 0.927 1_545 S
H2169 C2192 0.950 . S
H2170 C2193 0.950 . S
H2171 C2195 0.950 . S
H2172 C2196 0.950 . S
H2173 C2197 0.951 . S
H2174 C2199 0.951 . S
H2175 C2201 0.950 . S
H2176 C2202 0.950 . S
H2177 C2204 0.950 . S
H2178 C2207 0.950 . S
H2179 C2208 0.925 1_565 S
H2180 C2210 0.950 . S
H2181 C2211 0.894 1_556 S
C2182 H2164 0.951 . S
C2182 C2183 1.366 . S
C2182 C2184 1.388 1_545 S
C2183 C2182 1.366 . S
C2183 C2187 1.385 . S
C2184 H2165 0.951 . S
C2184 C2182 1.388 1_565 S
C2184 C2185 1.366 1_565 S
C2185 C2184 1.366 1_545 S
C2185 C2186 1.414 . S
C2185 C2188 1.499 1_545 S
C2186 H2166 0.950 . S
C2186 C2185 1.414 . S
C2186 C2187 1.374 . S
C2187 H2167 0.950 . S
C2187 C2183 1.385 . S
C2187 C2186 1.374 . S
C2188 C2185 1.499 1_565 S
C2188 C2189 1.384 . S
C2188 C2190 1.389 . S
C2189 H2168 0.927 1_565 S
C2189 C2188 1.384 . S
C2189 C2205 1.389 . S
C2190 C2188 1.389 . S
C2190 C2191 1.524 . S
C2190 C2204 1.377 . S
C2191 C2190 1.524 . S
C2191 C2192 1.397 . S
C2191 C2196 1.363 . S
C2192 H2169 0.950 . S
C2192 C2191 1.397 . S
C2192 C2193 1.334 . S
C2193 H2170 0.950 . S
C2193 C2192 1.334 . S
C2193 C2194 1.287 . S
C2194 C2193 1.287 . S
C2194 C2195 1.524 . S
C2194 H2213 0.913 . S
C2195 H2171 0.950 . S
C2195 C2194 1.524 . S
C2195 C2196 1.415 . S
C2196 H2172 0.950 . S
C2196 C2191 1.363 . S
C2196 C2195 1.415 . S
C2197 H2173 0.951 . S
C2197 C2198 1.350 1_556 S
C2197 C2199 1.388 . S
C2198 C2197 1.350 1_554 S
C2198 C2202 1.396 . S
C2199 H2174 0.951 . S
C2199 C2197 1.388 . S
C2199 C2200 1.366 . S
C2200 C2199 1.366 . S
C2200 C2201 1.414 1_556 S
C2200 C2203 1.499 . S
C2201 H2175 0.950 . S
C2201 C2200 1.414 1_554 S
C2201 C2202 1.374 . S
C2202 H2176 0.950 . S
C2202 C2198 1.396 . S
C2202 C2201 1.374 . S
C2203 C2200 1.499 . S
C2203 C2204 1.373 . S
C2203 C2205 1.389 . S
C2204 H2177 0.950 . S
C2204 C2190 1.377 . S
C2204 C2203 1.373 . S
C2205 C2189 1.389 . S
C2205 C2203 1.389 . S
C2205 C2206 1.524 1_566 S
C2206 C2205 1.524 1_544 S
C2206 C2207 1.396 1_545 S
C2206 C2211 1.394 . S
C2207 H2178 0.950 . S
C2207 C2206 1.396 1_565 S
C2207 C2208 1.334 1_565 S
C2208 H2179 0.925 1_545 S
C2208 C2207 1.334 1_545 S
C2208 C2209 1.287 . S
C2209 C2208 1.287 . S
C2209 C2210 1.524 . S
C2209 H2212 0.999 . S
C2210 H2180 0.950 . S
C2210 C2209 1.524 . S
C2210 C2211 1.443 . S
C2211 H2181 0.894 1_554 S
C2211 C2206 1.394 . S
C2211 C2210 1.443 . S
H2212 C2209 0.999 . S
H2213 C2194 0.913 . S
H2214 C2232 0.951 . S
H2215 C2234 0.951 . S
H2216 C2236 0.950 . S
H2217 C2237 0.950 . S
H2218 C2239 0.950 . S
H2219 C2242 0.950 . S
H2220 C2243 0.950 . S
H2221 C2245 0.950 . S
H2222 C2246 0.950 . S
H2223 C2247 0.951 . S
H2224 C2249 0.951 . S
H2225 C2251 0.950 . S
H2226 C2252 0.950 . S
H2227 C2254 0.950 . S
H2228 C2257 0.950 . S
H2229 C2258 0.950 . S
H2230 C2260 0.950 . S
H2231 C2261 0.950 . S
C2232 H2214 0.951 . S
C2232 C2233 1.366 . S
C2232 C2234 1.388 . S
C2233 C2232 1.366 . S
C2233 C2237 1.385 . S
C2234 H2215 0.951 . S
C2234 C2232 1.388 . S
C2234 C2235 1.366 . S
C2235 C2234 1.366 . S
C2235 C2236 1.414 . S
C2235 C2238 1.499 . S
C2236 H2216 0.950 . S
C2236 C2235 1.414 . S
C2236 C2237 1.374 . S
C2237 H2217 0.950 . S
C2237 C2233 1.385 . S
C2237 C2236 1.374 . S
C2238 C2235 1.499 . S
C2238 C2239 1.373 . S
C2238 C2240 1.389 . S
C2239 H2218 0.950 . S
C2239 C2238 1.373 . S
C2239 C2255 1.377 . S
C2240 C2238 1.389 . S
C2240 C2241 1.524 . S
C2240 C2254 1.377 . S
C2241 C2240 1.524 . S
C2241 C2242 1.397 . S
C2241 C2246 1.363 . S
C2242 H2219 0.950 . S
C2242 C2241 1.397 . S
C2242 C2243 1.334 . S
C2243 H2220 0.950 . S
C2243 C2242 1.334 . S
C2243 C2244 1.287 . S
C2244 C2243 1.287 . S
C2244 C2245 1.524 . S
C2244 H2263 0.913 . S
C2245 H2221 0.950 . S
C2245 C2244 1.524 . S
C2245 C2246 1.415 . S
C2246 H2222 0.950 . S
C2246 C2241 1.363 . S
C2246 C2245 1.415 . S
C2247 H2223 0.951 . S
C2247 C2248 1.366 . S
C2247 C2249 1.388 . S
C2248 C2247 1.366 . S
C2248 C2252 1.385 . S
C2249 H2224 0.951 . S
C2249 C2247 1.388 . S
C2249 C2250 1.366 . S
C2250 C2249 1.366 . S
C2250 C2251 1.414 . S
C2250 C2253 1.499 . S
C2251 H2225 0.950 . S
C2251 C2250 1.414 . S
C2251 C2252 1.374 . S
C2252 H2226 0.950 . S
C2252 C2248 1.385 . S
C2252 C2251 1.374 . S
C2253 C2250 1.499 . S
C2253 C2254 1.373 . S
C2253 C2255 1.389 . S
C2254 H2227 0.950 . S
C2254 C2240 1.377 . S
C2254 C2253 1.373 . S
C2255 C2239 1.377 . S
C2255 C2253 1.389 . S
C2255 C2256 1.524 . S
C2256 C2255 1.524 . S
C2256 C2257 1.397 . S
C2256 C2261 1.363 . S
C2257 H2228 0.950 . S
C2257 C2256 1.397 . S
C2257 C2258 1.334 . S
C2258 H2229 0.950 . S
C2258 C2257 1.334 . S
C2258 C2259 1.287 . S
C2259 C2258 1.287 . S
C2259 C2260 1.524 . S
C2259 H2262 0.999 . S
C2260 H2230 0.950 . S
C2260 C2259 1.524 . S
C2260 C2261 1.415 . S
C2261 H2231 0.950 . S
C2261 C2256 1.363 . S
C2261 C2260 1.415 . S
H2262 C2259 0.999 . S
H2263 C2244 0.913 . S
H2264 C2282 0.951 . S
H2265 C2284 0.951 1_565 S
H2266 C2286 0.950 . S
H2267 C2287 0.950 . S
H2268 C2289 0.950 . S
H2269 C2292 0.950 . S
H2270 C2293 0.950 . S
H2271 C2295 0.950 . S
H2272 C2296 0.950 . S
H2273 C2297 0.951 . S
H2274 C2299 0.951 . S
H2275 C2301 0.950 . S
H2276 C2302 0.950 . S
H2277 C2304 0.950 . S
H2278 C2307 0.950 . S
H2279 C2308 0.950 . S
H2280 C2310 0.950 . S
H2281 C2311 0.950 . S
C2282 H2264 0.951 . S
C2282 C2283 1.366 1_565 S
C2282 C2284 1.388 1_565 S
C2283 C2282 1.366 1_545 S
C2283 C2287 1.385 . S
C2284 H2265 0.951 1_545 S
C2284 C2282 1.388 1_545 S
C2284 C2285 1.366 . S
C2285 C2284 1.366 . S
C2285 C2286 1.414 . S
C2285 C2288 1.499 . S
C2286 H2266 0.950 . S
C2286 C2285 1.414 . S
C2286 C2287 1.374 . S
C2287 H2267 0.950 . S
C2287 C2283 1.385 . S
C2287 C2286 1.374 . S
C2288 C2285 1.499 . S
C2288 C2289 1.373 . S
C2288 C2290 1.389 . S
C2289 H2268 0.950 . S
C2289 C2288 1.373 . S
C2289 C2305 1.377 . S
C2290 C2288 1.389 . S
C2290 C2291 1.524 . S
C2290 C2304 1.377 . S
C2291 C2290 1.524 . S
C2291 C2292 1.397 . S
C2291 C2296 1.363 1_545 S
C2292 H2269 0.950 . S
C2292 C2291 1.397 . S
C2292 C2293 1.334 1_545 S
C2293 H2270 0.950 . S
C2293 C2292 1.334 1_565 S
C2293 C2294 1.287 . S
C2294 C2293 1.287 . S
C2294 C2295 1.524 . S
C2294 H2313 0.913 . S
C2295 H2271 0.950 . S
C2295 C2294 1.524 . S
C2295 C2296 1.415 . S
C2296 H2272 0.950 . S
C2296 C2291 1.363 1_565 S
C2296 C2295 1.415 . S
C2297 H2273 0.951 . S
C2297 C2298 1.366 . S
C2297 C2299 1.388 . S
C2298 C2297 1.366 . S
C2298 C2302 1.385 . S
C2299 H2274 0.951 . S
C2299 C2297 1.388 . S
C2299 C2300 1.366 . S
C2300 C2299 1.366 . S
C2300 C2301 1.414 . S
C2300 C2303 1.499 . S
C2301 H2275 0.950 . S
C2301 C2300 1.414 . S
C2301 C2302 1.374 . S
C2302 H2276 0.950 . S
C2302 C2298 1.385 . S
C2302 C2301 1.374 . S
C2303 C2300 1.499 . S
C2303 C2304 1.373 . S
C2303 C2305 1.389 . S
C2304 H2277 0.950 . S
C2304 C2290 1.377 . S
C2304 C2303 1.373 . S
C2305 C2289 1.377 . S
C2305 C2303 1.389 . S
C2305 C2306 1.524 . S
C2306 C2305 1.524 . S
C2306 C2307 1.397 . S
C2306 C2311 1.363 . S
C2307 H2278 0.950 . S
C2307 C2306 1.397 . S
C2307 C2308 1.334 . S
C2308 H2279 0.950 . S
C2308 C2307 1.334 . S
C2308 C2309 1.287 . S
C2309 C2308 1.287 . S
C2309 C2310 1.524 . S
C2309 H2312 0.999 . S
C2310 H2280 0.950 . S
C2310 C2309 1.524 . S
C2310 C2311 1.415 . S
C2311 H2281 0.950 . S
C2311 C2306 1.363 . S
C2311 C2310 1.415 . S
H2312 C2309 0.999 . S
H2313 C2294 0.913 . S
H2314 C2332 0.951 . S
H2315 C2334 0.951 . S
H2316 C2336 0.950 . S
H2317 C2337 0.950 . S
H2318 C2339 0.950 . S
H2319 C2342 0.950 . S
H2320 C2343 0.950 . S
H2321 C2345 0.950 . S
H2322 C2346 0.950 . S
H2323 C2347 0.951 . S
H2324 C2349 0.951 . S
H2325 C2351 0.950 . S
H2326 C2352 0.950 . S
H2327 C2354 0.950 . S
H2328 C2357 0.950 . S
H2329 C2358 0.950 . S
H2330 C2360 0.950 . S
H2331 C2361 0.950 . S
C2332 H2314 0.951 . S
C2332 C2333 1.366 . S
C2332 C2334 1.388 . S
C2333 C2332 1.366 . S
C2333 C2337 1.385 . S
C2334 H2315 0.951 . S
C2334 C2332 1.388 . S
C2334 C2335 1.366 . S
C2335 C2334 1.366 . S
C2335 C2336 1.414 . S
C2335 C2338 1.499 . S
C2336 H2316 0.950 . S
C2336 C2335 1.414 . S
C2336 C2337 1.374 . S
C2337 H2317 0.950 . S
C2337 C2333 1.385 . S
C2337 C2336 1.374 . S
C2338 C2335 1.499 . S
C2338 C2339 1.373 . S
C2338 C2340 1.389 . S
C2339 H2318 0.950 . S
C2339 C2338 1.373 . S
C2339 C2355 1.377 . S
C2340 C2338 1.389 . S
C2340 C2341 1.524 . S
C2340 C2354 1.377 . S
C2341 C2340 1.524 . S
C2341 C2342 1.397 . S
C2341 C2346 1.363 . S
C2342 H2319 0.950 . S
C2342 C2341 1.397 . S
C2342 C2343 1.334 . S
C2343 H2320 0.950 . S
C2343 C2342 1.334 . S
C2343 C2344 1.287 . S
C2344 C2343 1.287 . S
C2344 C2345 1.524 . S
C2344 H2363 0.913 . S
C2345 H2321 0.950 . S
C2345 C2344 1.524 . S
C2345 C2346 1.415 . S
C2346 H2322 0.950 . S
C2346 C2341 1.363 . S
C2346 C2345 1.415 . S
C2347 H2323 0.951 . S
C2347 C2348 1.366 . S
C2347 C2349 1.388 . S
C2348 C2347 1.366 . S
C2348 C2352 1.385 . S
C2349 H2324 0.951 . S
C2349 C2347 1.388 . S
C2349 C2350 1.366 . S
C2350 C2349 1.366 . S
C2350 C2351 1.414 . S
C2350 C2353 1.499 . S
C2351 H2325 0.950 . S
C2351 C2350 1.414 . S
C2351 C2352 1.374 . S
C2352 H2326 0.950 . S
C2352 C2348 1.385 . S
C2352 C2351 1.374 . S
C2353 C2350 1.499 . S
C2353 C2354 1.373 . S
C2353 C2355 1.389 . S
C2354 H2327 0.950 . S
C2354 C2340 1.377 . S
C2354 C2353 1.373 . S
C2355 C2339 1.377 . S
C2355 C2353 1.389 . S
C2355 C2356 1.524 . S
C2356 C2355 1.524 . S
C2356 C2357 1.397 . S
C2356 C2361 1.363 . S
C2357 H2328 0.950 . S
C2357 C2356 1.397 . S
C2357 C2358 1.334 . S
C2358 H2329 0.950 . S
C2358 C2357 1.334 . S
C2358 C2359 1.287 . S
C2359 C2358 1.287 . S
C2359 C2360 1.524 . S
C2359 H2362 0.999 . S
C2360 H2330 0.950 . S
C2360 C2359 1.524 . S
C2360 C2361 1.415 . S
C2361 H2331 0.950 . S
C2361 C2356 1.363 . S
C2361 C2360 1.415 . S
H2362 C2359 0.999 . S
H2363 C2344 0.913 . S
H2364 C2382 0.951 . S
H2365 C2384 0.968 . S
H2366 C2386 0.950 . S
H2367 C2387 0.950 . S
H2368 C2389 0.950 . S
H2369 C2392 0.950 . S
H2370 C2393 0.950 . S
H2371 C2395 0.950 . S
H2372 C2396 0.950 . S
H2373 C2397 0.951 . S
H2374 C2399 0.951 . S
H2375 C2401 0.950 . S
H2376 C2402 0.950 . S
H2377 C2404 0.950 . S
H2378 C2407 0.950 . S
H2379 C2408 0.950 . S
H2380 C2410 0.950 . S
H2381 C2411 0.950 . S
C2382 H2364 0.951 . S
C2382 C2383 1.366 . S
C2382 C2384 1.418 . S
C2383 C2382 1.366 . S
C2383 C2387 1.385 1_565 S
C2384 H2365 0.968 . S
C2384 C2382 1.418 . S
C2384 C2385 1.320 1_565 S
C2385 C2384 1.320 1_545 S
C2385 C2386 1.414 . S
C2385 C2388 1.499 . S
C2386 H2366 0.950 . S
C2386 C2385 1.414 . S
C2386 C2387 1.374 . S
C2387 H2367 0.950 . S
C2387 C2383 1.385 1_545 S
C2387 C2386 1.374 . S
C2388 C2385 1.499 . S
C2388 C2389 1.373 . S
C2388 C2390 1.389 . S
C2389 H2368 0.950 . S
C2389 C2388 1.373 . S
C2389 C2405 1.377 . S
C2390 C2388 1.389 . S
C2390 C2391 1.524 . S
C2390 C2404 1.377 . S
C2391 C2390 1.524 . S
C2391 C2392 1.397 . S
C2391 C2396 1.363 . S
C2392 H2369 0.950 . S
C2392 C2391 1.397 . S
C2392 C2393 1.334 . S
C2393 H2370 0.950 . S
C2393 C2392 1.334 . S
C2393 C2394 1.287 . S
C2394 C2393 1.287 . S
C2394 C2395 1.524 1_545 S
C2394 H2413 0.913 1_545 S
C2395 H2371 0.950 . S
C2395 C2394 1.524 1_565 S
C2395 C2396 1.415 1_565 S
C2396 H2372 0.950 . S
C2396 C2391 1.363 . S
C2396 C2395 1.415 1_545 S
C2397 H2373 0.951 . S
C2397 C2398 1.366 . S
C2397 C2399 1.388 . S
C2398 C2397 1.366 . S
C2398 C2402 1.385 . S
C2399 H2374 0.951 . S
C2399 C2397 1.388 . S
C2399 C2400 1.366 . S
C2400 C2399 1.366 . S
C2400 C2401 1.414 . S
C2400 C2403 1.499 . S
C2401 H2375 0.950 . S
C2401 C2400 1.414 . S
C2401 C2402 1.374 . S
C2402 H2376 0.950 . S
C2402 C2398 1.385 . S
C2402 C2401 1.374 . S
C2403 C2400 1.499 . S
C2403 C2404 1.373 . S
C2403 C2405 1.389 . S
C2404 H2377 0.950 . S
C2404 C2390 1.377 . S
C2404 C2403 1.373 . S
C2405 C2389 1.377 . S
C2405 C2403 1.389 . S
C2405 C2406 1.524 . S
C2406 C2405 1.524 . S
C2406 C2407 1.397 . S
C2406 C2411 1.363 . S
C2407 H2378 0.950 . S
C2407 C2406 1.397 . S
C2407 C2408 1.334 . S
C2408 H2379 0.950 . S
C2408 C2407 1.334 . S
C2408 C2409 1.287 . S
C2409 C2408 1.287 . S
C2409 C2410 1.524 . S
C2409 H2412 0.999 . S
C2410 H2380 0.950 . S
C2410 C2409 1.524 . S
C2410 C2411 1.415 . S
C2411 H2381 0.950 . S
C2411 C2406 1.363 . S
C2411 C2410 1.415 . S
H2412 C2409 0.999 . S
H2413 C2394 0.913 1_565 S
H2414 C2432 0.951 . S
H2415 C2434 0.951 . S
H2416 C2436 0.950 . S
H2417 C2437 0.950 . S
H2418 C2439 0.950 . S
H2419 C2442 0.950 . S
H2420 C2443 0.950 . S
H2421 C2445 0.950 . S
H2422 C2446 0.950 . S
H2423 C2447 0.951 . S
H2424 C2449 0.951 . S
H2425 C2451 0.950 . S
H2426 C2452 0.950 . S
H2427 C2454 0.950 . S
H2428 C2457 0.950 . S
H2429 C2458 0.950 . S
H2430 C2460 0.950 . S
H2431 C2461 0.950 . S
C2432 H2414 0.951 . S
C2432 C2433 1.366 . S
C2432 C2434 1.388 . S
C2433 C2432 1.366 . S
C2433 C2437 1.385 . S
C2434 H2415 0.951 . S
C2434 C2432 1.388 . S
C2434 C2435 1.366 . S
C2435 C2434 1.366 . S
C2435 C2436 1.414 . S
C2435 C2438 1.499 . S
C2436 H2416 0.950 . S
C2436 C2435 1.414 . S
C2436 C2437 1.374 . S
C2437 H2417 0.950 . S
C2437 C2433 1.385 . S
C2437 C2436 1.374 . S
C2438 C2435 1.499 . S
C2438 C2439 1.373 . S
C2438 C2440 1.389 . S
C2439 H2418 0.950 . S
C2439 C2438 1.373 . S
C2439 C2455 1.377 . S
C2440 C2438 1.389 . S
C2440 C2441 1.524 . S
C2440 C2454 1.377 . S
C2441 C2440 1.524 . S
C2441 C2442 1.397 . S
C2441 C2446 1.363 . S
C2442 H2419 0.950 . S
C2442 C2441 1.397 . S
C2442 C2443 1.334 . S
C2443 H2420 0.950 . S
C2443 C2442 1.334 . S
C2443 C2444 1.287 . S
C2444 C2443 1.287 . S
C2444 C2445 1.524 . S
C2444 H2463 0.913 . S
C2445 H2421 0.950 . S
C2445 C2444 1.524 . S
C2445 C2446 1.415 . S
C2446 H2422 0.950 . S
C2446 C2441 1.363 . S
C2446 C2445 1.415 . S
C2447 H2423 0.951 . S
C2447 C2448 1.366 . S
C2447 C2449 1.388 . S
C2448 C2447 1.366 . S
C2448 C2452 1.385 . S
C2449 H2424 0.951 . S
C2449 C2447 1.388 . S
C2449 C2450 1.366 . S
C2450 C2449 1.366 . S
C2450 C2451 1.414 . S
C2450 C2453 1.499 . S
C2451 H2425 0.950 . S
C2451 C2450 1.414 . S
C2451 C2452 1.374 . S
C2452 H2426 0.950 . S
C2452 C2448 1.385 . S
C2452 C2451 1.374 . S
C2453 C2450 1.499 . S
C2453 C2454 1.373 . S
C2453 C2455 1.389 . S
C2454 H2427 0.950 . S
C2454 C2440 1.377 . S
C2454 C2453 1.373 . S
C2455 C2439 1.377 . S
C2455 C2453 1.389 . S
C2455 C2456 1.524 . S
C2456 C2455 1.524 . S
C2456 C2457 1.397 . S
C2456 C2461 1.363 . S
C2457 H2428 0.950 . S
C2457 C2456 1.397 . S
C2457 C2458 1.334 . S
C2458 H2429 0.950 . S
C2458 C2457 1.334 . S
C2458 C2459 1.287 . S
C2459 C2458 1.287 . S
C2459 C2460 1.524 . S
C2459 H2462 0.999 . S
C2460 H2430 0.950 . S
C2460 C2459 1.524 . S
C2460 C2461 1.415 . S
C2461 H2431 0.950 . S
C2461 C2456 1.363 . S
C2461 C2460 1.415 . S
H2462 C2459 0.999 . S
H2463 C2444 0.913 . S
H2464 C2482 0.951 . S
H2465 C2484 0.951 . S
H2466 C2486 0.950 . S
H2467 C2487 0.950 . S
H2468 C2489 0.950 . S
H2469 C2492 0.950 . S
H2470 C2493 0.950 . S
H2471 C2495 0.950 . S
H2472 C2496 0.950 . S
H2473 C2497 0.951 . S
H2474 C2499 0.951 . S
H2475 C2501 0.950 . S
H2476 C2502 0.950 . S
H2477 C2504 0.950 . S
H2478 C2507 0.950 . S
H2479 C2508 0.950 . S
H2480 C2510 0.950 . S
H2481 C2511 0.950 . S
C2482 H2464 0.951 . S
C2482 C2483 1.366 . S
C2482 C2484 1.388 . S
C2483 C2482 1.366 . S
C2483 C2487 1.385 . S
C2484 H2465 0.951 . S
C2484 C2482 1.388 . S
C2484 C2485 1.366 . S
C2485 C2484 1.366 . S
C2485 C2486 1.414 . S
C2485 C2488 1.499 . S
C2486 H2466 0.950 . S
C2486 C2485 1.414 . S
C2486 C2487 1.374 . S
C2487 H2467 0.950 . S
C2487 C2483 1.385 . S
C2487 C2486 1.374 . S
C2488 C2485 1.499 . S
C2488 C2489 1.373 . S
C2488 C2490 1.389 . S
C2489 H2468 0.950 . S
C2489 C2488 1.373 . S
C2489 C2505 1.377 . S
C2490 C2488 1.389 . S
C2490 C2491 1.524 . S
C2490 C2504 1.377 . S
C2491 C2490 1.524 . S
C2491 C2492 1.397 . S
C2491 C2496 1.363 . S
C2492 H2469 0.950 . S
C2492 C2491 1.397 . S
C2492 C2493 1.334 . S
C2493 H2470 0.950 . S
C2493 C2492 1.334 . S
C2493 C2494 1.287 . S
C2494 C2493 1.287 . S
C2494 C2495 1.524 . S
C2494 H2513 0.913 . S
C2495 H2471 0.950 . S
C2495 C2494 1.524 . S
C2495 C2496 1.415 . S
C2496 H2472 0.950 . S
C2496 C2491 1.363 . S
C2496 C2495 1.415 . S
C2497 H2473 0.951 . S
C2497 C2498 1.366 . S
C2497 C2499 1.388 . S
C2498 C2497 1.366 . S
C2498 C2502 1.385 . S
C2499 H2474 0.951 . S
C2499 C2497 1.388 . S
C2499 C2500 1.366 . S
C2500 C2499 1.366 . S
C2500 C2501 1.414 . S
C2500 C2503 1.499 . S
C2501 H2475 0.950 . S
C2501 C2500 1.414 . S
C2501 C2502 1.374 . S
C2502 H2476 0.950 . S
C2502 C2498 1.385 . S
C2502 C2501 1.374 . S
C2503 C2500 1.499 . S
C2503 C2504 1.373 . S
C2503 C2505 1.389 . S
C2504 H2477 0.950 . S
C2504 C2490 1.377 . S
C2504 C2503 1.373 . S
C2505 C2489 1.377 . S
C2505 C2503 1.389 . S
C2505 C2506 1.524 . S
C2506 C2505 1.524 . S
C2506 C2507 1.397 . S
C2506 C2511 1.363 . S
C2507 H2478 0.950 . S
C2507 C2506 1.397 . S
C2507 C2508 1.334 . S
C2508 H2479 0.950 . S
C2508 C2507 1.334 . S
C2508 C2509 1.287 . S
C2509 C2508 1.287 . S
C2509 C2510 1.524 . S
C2509 H2512 0.999 . S
C2510 H2480 0.950 . S
C2510 C2509 1.524 . S
C2510 C2511 1.415 . S
C2511 H2481 0.950 . S
C2511 C2506 1.363 . S
C2511 C2510 1.415 . S
H2512 C2509 0.999 . S
H2513 C2494 0.913 . S
H2514 C2532 0.951 . S
H2515 C2534 0.951 . S
H2516 C2536 0.950 . S
H2517 C2537 0.950 . S
H2518 C2539 0.950 . S
H2519 C2542 0.950 . S
H2520 C2543 0.950 . S
H2521 C2545 0.950 . S
H2522 C2546 0.950 . S
H2523 C2547 0.951 . S
H2524 C2549 0.951 . S
H2525 C2551 0.950 . S
H2526 C2552 0.950 . S
H2527 C2554 0.950 . S
H2528 C2557 0.950 . S
H2529 C2558 0.950 . S
H2530 C2560 0.950 . S
H2531 C2561 0.950 . S
C2532 H2514 0.951 . S
C2532 C2533 1.366 . S
C2532 C2534 1.388 . S
C2533 C2532 1.366 . S
C2533 C2537 1.385 . S
C2534 H2515 0.951 . S
C2534 C2532 1.388 . S
C2534 C2535 1.366 . S
C2535 C2534 1.366 . S
C2535 C2536 1.414 . S
C2535 C2538 1.499 . S
C2536 H2516 0.950 . S
C2536 C2535 1.414 . S
C2536 C2537 1.374 . S
C2537 H2517 0.950 . S
C2537 C2533 1.385 . S
C2537 C2536 1.374 . S
C2538 C2535 1.499 . S
C2538 C2539 1.373 . S
C2538 C2540 1.389 . S
C2539 H2518 0.950 . S
C2539 C2538 1.373 . S
C2539 C2555 1.377 . S
C2540 C2538 1.389 . S
C2540 C2541 1.524 . S
C2540 C2554 1.377 . S
C2541 C2540 1.524 . S
C2541 C2542 1.397 . S
C2541 C2546 1.363 . S
C2542 H2519 0.950 . S
C2542 C2541 1.397 . S
C2542 C2543 1.334 . S
C2543 H2520 0.950 . S
C2543 C2542 1.334 . S
C2543 C2544 1.287 . S
C2544 C2543 1.287 . S
C2544 C2545 1.524 . S
C2544 H2563 0.913 . S
C2545 H2521 0.950 . S
C2545 C2544 1.524 . S
C2545 C2546 1.415 . S
C2546 H2522 0.950 . S
C2546 C2541 1.363 . S
C2546 C2545 1.415 . S
C2547 H2523 0.951 . S
C2547 C2548 1.366 . S
C2547 C2549 1.388 . S
C2548 C2547 1.366 . S
C2548 C2552 1.385 . S
C2549 H2524 0.951 . S
C2549 C2547 1.388 . S
C2549 C2550 1.366 . S
C2550 C2549 1.366 . S
C2550 C2551 1.414 . S
C2550 C2553 1.499 . S
C2551 H2525 0.950 . S
C2551 C2550 1.414 . S
C2551 C2552 1.374 . S
C2552 H2526 0.950 . S
C2552 C2548 1.385 . S
C2552 C2551 1.374 . S
C2553 C2550 1.499 . S
C2553 C2554 1.373 . S
C2553 C2555 1.389 . S
C2554 H2527 0.950 . S
C2554 C2540 1.377 . S
C2554 C2553 1.373 . S
C2555 C2539 1.377 . S
C2555 C2553 1.389 . S
C2555 C2556 1.524 . S
C2556 C2555 1.524 . S
C2556 C2557 1.397 . S
C2556 C2561 1.363 1_545 S
C2557 H2528 0.950 . S
C2557 C2556 1.397 . S
C2557 C2558 1.334 . S
C2558 H2529 0.950 . S
C2558 C2557 1.334 . S
C2558 C2559 1.287 1_545 S
C2559 C2558 1.287 1_565 S
C2559 C2560 1.524 . S
C2559 H2562 0.999 . S
C2560 H2530 0.950 . S
C2560 C2559 1.524 . S
C2560 C2561 1.415 . S
C2561 H2531 0.950 . S
C2561 C2556 1.363 1_565 S
C2561 C2560 1.415 . S
H2562 C2559 0.999 . S
H2563 C2544 0.913 . S
H2564 C2582 0.951 . S
H2565 C2584 0.951 . S
H2566 C2586 0.950 . S
H2567 C2587 0.950 . S
H2568 C2589 0.950 . S
H2569 C2592 0.950 . S
H2570 C2593 0.950 . S
H2571 C2595 0.950 . S
H2572 C2596 0.950 . S
H2573 C2597 0.951 . S
H2574 C2599 0.951 . S
H2575 C2601 0.950 . S
H2576 C2602 0.950 . S
H2577 C2604 0.950 . S
H2578 C2607 0.950 . S
H2579 C2608 0.950 . S
H2580 C2610 0.950 . S
H2581 C2611 0.950 . S
C2582 H2564 0.951 . S
C2582 C2583 1.366 . S
C2582 C2584 1.388 . S
C2583 C2582 1.366 . S
C2583 C2587 1.385 . S
C2584 H2565 0.951 . S
C2584 C2582 1.388 . S
C2584 C2585 1.366 . S
C2585 C2584 1.366 . S
C2585 C2586 1.414 . S
C2585 C2588 1.499 . S
C2586 H2566 0.950 . S
C2586 C2585 1.414 . S
C2586 C2587 1.374 . S
C2587 H2567 0.950 . S
C2587 C2583 1.385 . S
C2587 C2586 1.374 . S
C2588 C2585 1.499 . S
C2588 C2589 1.373 . S
C2588 C2590 1.389 . S
C2589 H2568 0.950 . S
C2589 C2588 1.373 . S
C2589 C2605 1.377 . S
C2590 C2588 1.389 . S
C2590 C2591 1.524 . S
C2590 C2604 1.377 . S
C2591 C2590 1.524 . S
C2591 C2592 1.397 . S
C2591 C2596 1.363 . S
C2592 H2569 0.950 . S
C2592 C2591 1.397 . S
C2592 C2593 1.334 . S
C2593 H2570 0.950 . S
C2593 C2592 1.334 . S
C2593 C2594 1.287 . S
C2594 C2593 1.287 . S
C2594 C2595 1.524 . S
C2594 H2613 0.913 . S
C2595 H2571 0.950 . S
C2595 C2594 1.524 . S
C2595 C2596 1.415 . S
C2596 H2572 0.950 . S
C2596 C2591 1.363 . S
C2596 C2595 1.415 . S
C2597 H2573 0.951 . S
C2597 C2598 1.366 . S
C2597 C2599 1.388 . S
C2598 C2597 1.366 . S
C2598 C2602 1.385 . S
C2599 H2574 0.951 . S
C2599 C2597 1.388 . S
C2599 C2600 1.366 . S
C2600 C2599 1.366 . S
C2600 C2601 1.414 . S
C2600 C2603 1.499 . S
C2601 H2575 0.950 . S
C2601 C2600 1.414 . S
C2601 C2602 1.374 . S
C2602 H2576 0.950 . S
C2602 C2598 1.385 . S
C2602 C2601 1.374 . S
C2603 C2600 1.499 . S
C2603 C2604 1.373 . S
C2603 C2605 1.389 . S
C2604 H2577 0.950 . S
C2604 C2590 1.377 . S
C2604 C2603 1.373 . S
C2605 C2589 1.377 . S
C2605 C2603 1.389 . S
C2605 C2606 1.524 . S
C2606 C2605 1.524 . S
C2606 C2607 1.397 . S
C2606 C2611 1.363 . S
C2607 H2578 0.950 . S
C2607 C2606 1.397 . S
C2607 C2608 1.334 . S
C2608 H2579 0.950 . S
C2608 C2607 1.334 . S
C2608 C2609 1.287 . S
C2609 C2608 1.287 . S
C2609 C2610 1.524 . S
C2609 H2612 0.999 . S
C2610 H2580 0.950 . S
C2610 C2609 1.524 . S
C2610 C2611 1.415 . S
C2611 H2581 0.950 . S
C2611 C2606 1.363 . S
C2611 C2610 1.415 . S
H2612 C2609 0.999 . S
H2613 C2594 0.913 . S
H2614 C2632 0.951 . S
H2615 C2634 0.951 . S
H2616 C2636 0.950 . S
H2617 C2637 0.950 . S
H2618 C2639 0.950 . S
H2619 C2642 0.950 . S
H2620 C2643 0.950 . S
H2621 C2645 0.950 . S
H2622 C2646 0.950 . S
H2623 C2647 0.951 . S
H2624 C2649 0.951 . S
H2625 C2651 0.950 . S
H2626 C2652 0.950 . S
H2627 C2654 0.950 . S
H2628 C2657 0.950 . S
H2629 C2658 0.950 . S
H2630 C2660 0.950 . S
H2631 C2661 0.950 . S
C2632 H2614 0.951 . S
C2632 C2633 1.366 . S
C2632 C2634 1.388 . S
C2633 C2632 1.366 . S
C2633 C2637 1.385 . S
C2634 H2615 0.951 . S
C2634 C2632 1.388 . S
C2634 C2635 1.366 . S
C2635 C2634 1.366 . S
C2635 C2636 1.414 . S
C2635 C2638 1.499 . S
C2636 H2616 0.950 . S
C2636 C2635 1.414 . S
C2636 C2637 1.374 . S
C2637 H2617 0.950 . S
C2637 C2633 1.385 . S
C2637 C2636 1.374 . S
C2638 C2635 1.499 . S
C2638 C2639 1.373 . S
C2638 C2640 1.389 . S
C2639 H2618 0.950 . S
C2639 C2638 1.373 . S
C2639 C2655 1.377 . S
C2640 C2638 1.389 . S
C2640 C2641 1.524 . S
C2640 C2654 1.377 . S
C2641 C2640 1.524 . S
C2641 C2642 1.397 . S
C2641 C2646 1.363 . S
C2642 H2619 0.950 . S
C2642 C2641 1.397 . S
C2642 C2643 1.334 . S
C2643 H2620 0.950 . S
C2643 C2642 1.334 . S
C2643 C2644 1.287 . S
C2644 C2643 1.287 . S
C2644 C2645 1.524 . S
C2644 H2663 0.913 . S
C2645 H2621 0.950 . S
C2645 C2644 1.524 . S
C2645 C2646 1.415 . S
C2646 H2622 0.950 . S
C2646 C2641 1.363 . S
C2646 C2645 1.415 . S
C2647 H2623 0.951 . S
C2647 C2648 1.366 . S
C2647 C2649 1.388 . S
C2648 C2647 1.366 . S
C2648 C2652 1.385 . S
C2649 H2624 0.951 . S
C2649 C2647 1.388 . S
C2649 C2650 1.366 . S
C2650 C2649 1.366 . S
C2650 C2651 1.414 . S
C2650 C2653 1.499 . S
C2651 H2625 0.950 . S
C2651 C2650 1.414 . S
C2651 C2652 1.374 . S
C2652 H2626 0.950 . S
C2652 C2648 1.385 . S
C2652 C2651 1.374 . S
C2653 C2650 1.499 . S
C2653 C2654 1.373 . S
C2653 C2655 1.389 . S
C2654 H2627 0.950 . S
C2654 C2640 1.377 . S
C2654 C2653 1.373 . S
C2655 C2639 1.377 . S
C2655 C2653 1.389 . S
C2655 C2656 1.524 . S
C2656 C2655 1.524 . S
C2656 C2657 1.397 . S
C2656 C2661 1.363 . S
C2657 H2628 0.950 . S
C2657 C2656 1.397 . S
C2657 C2658 1.334 . S
C2658 H2629 0.950 . S
C2658 C2657 1.334 . S
C2658 C2659 1.287 . S
C2659 C2658 1.287 . S
C2659 C2660 1.524 . S
C2659 H2662 0.999 . S
C2660 H2630 0.950 . S
C2660 C2659 1.524 . S
C2660 C2661 1.415 . S
C2661 H2631 0.950 . S
C2661 C2656 1.363 . S
C2661 C2660 1.415 . S
H2662 C2659 0.999 . S
H2663 C2644 0.913 . S
H2664 C2682 0.951 . S
H2665 C2684 0.951 . S
H2666 C2686 0.950 . S
H2667 C2687 0.950 . S
H2668 C2689 0.950 . S
H2669 C2692 0.950 . S
H2670 C2693 0.950 . S
H2671 C2695 0.950 . S
H2672 C2696 0.950 . S
H2673 C2697 0.951 . S
H2674 C2699 0.951 . S
H2675 C2701 0.950 . S
H2676 C2702 0.950 . S
H2677 C2704 0.950 . S
H2678 C2707 0.950 . S
H2679 C2708 0.950 . S
H2680 C2710 0.950 . S
H2681 C2711 0.950 . S
C2682 H2664 0.951 . S
C2682 C2683 1.366 . S
C2682 C2684 1.388 . S
C2683 C2682 1.366 . S
C2683 C2687 1.385 . S
C2684 H2665 0.951 . S
C2684 C2682 1.388 . S
C2684 C2685 1.366 . S
C2685 C2684 1.366 . S
C2685 C2686 1.414 . S
C2685 C2688 1.499 . S
C2686 H2666 0.950 . S
C2686 C2685 1.414 . S
C2686 C2687 1.374 . S
C2687 H2667 0.950 . S
C2687 C2683 1.385 . S
C2687 C2686 1.374 . S
C2688 C2685 1.499 . S
C2688 C2689 1.373 . S
C2688 C2690 1.389 . S
C2689 H2668 0.950 . S
C2689 C2688 1.373 . S
C2689 C2705 1.377 . S
C2690 C2688 1.389 . S
C2690 C2691 1.524 . S
C2690 C2704 1.377 . S
C2691 C2690 1.524 . S
C2691 C2692 1.397 . S
C2691 C2696 1.363 . S
C2692 H2669 0.950 . S
C2692 C2691 1.397 . S
C2692 C2693 1.334 . S
C2693 H2670 0.950 . S
C2693 C2692 1.334 . S
C2693 C2694 1.287 . S
C2694 C2693 1.287 . S
C2694 C2695 1.524 . S
C2694 H2713 0.913 . S
C2695 H2671 0.950 . S
C2695 C2694 1.524 . S
C2695 C2696 1.415 . S
C2696 H2672 0.950 . S
C2696 C2691 1.363 . S
C2696 C2695 1.415 . S
C2697 H2673 0.951 . S
C2697 C2698 1.366 . S
C2697 C2699 1.388 . S
C2698 C2697 1.366 . S
C2698 C2702 1.385 . S
C2699 H2674 0.951 . S
C2699 C2697 1.388 . S
C2699 C2700 1.366 . S
C2700 C2699 1.366 . S
C2700 C2701 1.414 . S
C2700 C2703 1.499 . S
C2701 H2675 0.950 . S
C2701 C2700 1.414 . S
C2701 C2702 1.374 . S
C2702 H2676 0.950 . S
C2702 C2698 1.385 . S
C2702 C2701 1.374 . S
C2703 C2700 1.499 . S
C2703 C2704 1.373 . S
C2703 C2705 1.389 . S
C2704 H2677 0.950 . S
C2704 C2690 1.377 . S
C2704 C2703 1.373 . S
C2705 C2689 1.377 . S
C2705 C2703 1.389 . S
C2705 C2706 1.524 . S
C2706 C2705 1.524 . S
C2706 C2707 1.397 . S
C2706 C2711 1.363 . S
C2707 H2678 0.950 . S
C2707 C2706 1.397 . S
C2707 C2708 1.334 . S
C2708 H2679 0.950 . S
C2708 C2707 1.334 . S
C2708 C2709 1.287 . S
C2709 C2708 1.287 . S
C2709 C2710 1.524 . S
C2709 H2712 0.999 . S
C2710 H2680 0.950 . S
C2710 C2709 1.524 . S
C2710 C2711 1.415 . S
C2711 H2681 0.950 . S
C2711 C2706 1.363 . S
C2711 C2710 1.415 . S
H2712 C2709 0.999 . S
H2713 C2694 0.913 . S
H2714 C2732 0.941 1_455 S
H2715 C2734 0.951 . S
H2716 C2736 0.950 . S
H2717 C2737 0.950 . S
H2718 C2739 0.950 . S
H2719 C2742 0.950 . S
H2720 C2743 0.950 . S
H2721 C2745 0.950 . S
H2722 C2746 0.950 . S
H2723 C2747 0.951 . S
H2724 C2749 0.951 . S
H2725 C2751 0.950 . S
H2726 C2752 0.950 . S
H2727 C2754 0.950 . S
H2728 C2757 0.950 . S
H2729 C2758 0.950 . S
H2730 C2760 0.950 . S
H2731 C2761 0.950 . S
C2732 H2714 0.941 1_655 S
C2732 C2733 1.369 1_565 S
C2732 C2734 1.394 . S
C2733 C2732 1.369 1_545 S
C2733 C2737 1.385 . S
C2734 H2715 0.951 . S
C2734 C2732 1.394 . S
C2734 C2735 1.366 1_565 S
C2735 C2734 1.366 1_545 S
C2735 C2736 1.414 . S
C2735 C2738 1.499 . S
C2736 H2716 0.950 . S
C2736 C2735 1.414 . S
C2736 C2737 1.374 . S
C2737 H2717 0.950 . S
C2737 C2733 1.385 . S
C2737 C2736 1.374 . S
C2738 C2735 1.499 . S
C2738 C2739 1.373 . S
C2738 C2740 1.389 1_545 S
C2739 H2718 0.950 . S
C2739 C2738 1.373 . S
C2739 C2755 1.377 . S
C2740 C2738 1.389 1_565 S
C2740 C2741 1.524 . S
C2740 C2754 1.377 . S
C2741 C2740 1.524 . S
C2741 C2742 1.397 . S
C2741 C2746 1.363 . S
C2742 H2719 0.950 . S
C2742 C2741 1.397 . S
C2742 C2743 1.334 . S
C2743 H2720 0.950 . S
C2743 C2742 1.334 . S
C2743 C2744 1.287 . S
C2744 C2743 1.287 . S
C2744 C2745 1.524 . S
C2744 H2763 0.913 . S
C2745 H2721 0.950 . S
C2745 C2744 1.524 . S
C2745 C2746 1.415 . S
C2746 H2722 0.950 . S
C2746 C2741 1.363 . S
C2746 C2745 1.415 . S
C2747 H2723 0.951 . S
C2747 C2748 1.366 . S
C2747 C2749 1.388 . S
C2748 C2747 1.366 . S
C2748 C2752 1.385 1_545 S
C2749 H2724 0.951 . S
C2749 C2747 1.388 . S
C2749 C2750 1.366 . S
C2750 C2749 1.366 . S
C2750 C2751 1.414 1_545 S
C2750 C2753 1.499 . S
C2751 H2725 0.950 . S
C2751 C2750 1.414 1_565 S
C2751 C2752 1.374 . S
C2752 H2726 0.950 . S
C2752 C2748 1.385 1_565 S
C2752 C2751 1.374 . S
C2753 C2750 1.499 . S
C2753 C2754 1.373 1_545 S
C2753 C2755 1.389 . S
C2754 H2727 0.950 . S
C2754 C2740 1.377 . S
C2754 C2753 1.373 1_565 S
C2755 C2739 1.377 . S
C2755 C2753 1.389 . S
C2755 C2756 1.524 . S
C2756 C2755 1.524 . S
C2756 C2757 1.397 . S
C2756 C2761 1.363 . S
C2757 H2728 0.950 . S
C2757 C2756 1.397 . S
C2757 C2758 1.334 . S
C2758 H2729 0.950 . S
C2758 C2757 1.334 . S
C2758 C2759 1.287 . S
C2759 C2758 1.287 . S
C2759 C2760 1.524 . S
C2759 H2762 0.999 . S
C2760 H2730 0.950 . S
C2760 C2759 1.524 . S
C2760 C2761 1.415 . S
C2761 H2731 0.950 . S
C2761 C2756 1.363 . S
C2761 C2760 1.415 . S
H2762 C2759 0.999 . S
H2763 C2744 0.913 . S
H2764 C2782 0.951 . S
H2765 C2784 0.951 . S
H2766 C2786 0.950 . S
H2767 C2787 0.950 . S
H2768 C2789 0.950 . S
H2769 C2792 0.950 . S
H2770 C2793 0.950 . S
H2771 C2795 0.950 . S
H2772 C2796 0.950 . S
H2773 C2797 0.951 . S
H2774 C2799 0.951 . S
H2775 C2801 0.950 . S
H2776 C2802 0.950 . S
H2777 C2804 0.950 . S
H2778 C2807 0.950 . S
H2779 C2808 0.950 . S
H2780 C2810 0.950 . S
H2781 C2811 0.950 . S
C2782 H2764 0.951 . S
C2782 C2783 1.366 . S
C2782 C2784 1.388 . S
C2783 C2782 1.366 . S
C2783 C2787 1.385 . S
C2784 H2765 0.951 . S
C2784 C2782 1.388 . S
C2784 C2785 1.366 . S
C2785 C2784 1.366 . S
C2785 C2786 1.414 . S
C2785 C2788 1.499 . S
C2786 H2766 0.950 . S
C2786 C2785 1.414 . S
C2786 C2787 1.374 . S
C2787 H2767 0.950 . S
C2787 C2783 1.385 . S
C2787 C2786 1.374 . S
C2788 C2785 1.499 . S
C2788 C2789 1.373 . S
C2788 C2790 1.389 . S
C2789 H2768 0.950 . S
C2789 C2788 1.373 . S
C2789 C2805 1.377 . S
C2790 C2788 1.389 . S
C2790 C2791 1.524 . S
C2790 C2804 1.377 . S
C2791 C2790 1.524 . S
C2791 C2792 1.397 . S
C2791 C2796 1.363 . S
C2792 H2769 0.950 . S
C2792 C2791 1.397 . S
C2792 C2793 1.334 . S
C2793 H2770 0.950 . S
C2793 C2792 1.334 . S
C2793 C2794 1.287 . S
C2794 C2793 1.287 . S
C2794 C2795 1.524 . S
C2794 H2813 0.913 . S
C2795 H2771 0.950 . S
C2795 C2794 1.524 . S
C2795 C2796 1.415 . S
C2796 H2772 0.950 . S
C2796 C2791 1.363 . S
C2796 C2795 1.415 . S
C2797 H2773 0.951 . S
C2797 C2798 1.366 . S
C2797 C2799 1.388 . S
C2798 C2797 1.366 . S
C2798 C2802 1.385 . S
C2799 H2774 0.951 . S
C2799 C2797 1.388 . S
C2799 C2800 1.366 . S
C2800 C2799 1.366 . S
C2800 C2801 1.414 . S
C2800 C2803 1.499 . S
C2801 H2775 0.950 . S
C2801 C2800 1.414 . S
C2801 C2802 1.374 . S
C2802 H2776 0.950 . S
C2802 C2798 1.385 . S
C2802 C2801 1.374 . S
C2803 C2800 1.499 . S
C2803 C2804 1.373 . S
C2803 C2805 1.389 . S
C2804 H2777 0.950 . S
C2804 C2790 1.377 . S
C2804 C2803 1.373 . S
C2805 C2789 1.377 . S
C2805 C2803 1.389 . S
C2805 C2806 1.524 . S
C2806 C2805 1.524 . S
C2806 C2807 1.397 . S
C2806 C2811 1.363 . S
C2807 H2778 0.950 . S
C2807 C2806 1.397 . S
C2807 C2808 1.334 . S
C2808 H2779 0.950 . S
C2808 C2807 1.334 . S
C2808 C2809 1.287 . S
C2809 C2808 1.287 . S
C2809 C2810 1.524 . S
C2809 H2812 0.999 . S
C2810 H2780 0.950 . S
C2810 C2809 1.524 . S
C2810 C2811 1.415 . S
C2811 H2781 0.950 . S
C2811 C2806 1.363 . S
C2811 C2810 1.415 . S
H2812 C2809 0.999 . S
H2813 C2794 0.913 . S
H2814 C2832 0.951 . S
H2815 C2834 0.945 1_655 S
H2816 C2836 0.950 . S
H2817 C2837 0.950 . S
H2818 C2839 0.950 . S
H2819 C2842 0.950 . S
H2820 C2843 0.950 . S
H2821 C2845 0.950 . S
H2822 C2846 0.939 1_455 S
H2823 C2847 0.951 . S
H2824 C2849 0.951 . S
H2825 C2851 0.950 . S
H2826 C2852 0.950 . S
H2827 C2854 0.950 . S
H2828 C2857 0.950 . S
H2829 C2858 0.950 . S
H2830 C2860 0.950 . S
H2831 C2861 0.950 . S
C2832 H2814 0.951 . S
C2832 C2833 1.366 . S
C2832 C2834 1.388 1_655 S
C2833 C2832 1.366 . S
C2833 C2837 1.385 1_655 S
C2834 H2815 0.945 1_455 S
C2834 C2832 1.388 1_455 S
C2834 C2835 1.366 . S
C2835 C2834 1.366 . S
C2835 C2836 1.414 . S
C2835 C2838 1.499 . S
C2836 H2816 0.950 . S
C2836 C2835 1.414 . S
C2836 C2837 1.374 . S
C2837 H2817 0.950 . S
C2837 C2833 1.385 1_455 S
C2837 C2836 1.374 . S
C2838 C2835 1.499 . S
C2838 C2839 1.373 . S
C2838 C2840 1.389 . S
C2839 H2818 0.950 . S
C2839 C2838 1.373 . S
C2839 C2855 1.377 . S
C2840 C2838 1.389 . S
C2840 C2841 1.524 . S
C2840 C2854 1.377 . S
C2841 C2840 1.524 . S
C2841 C2842 1.397 . S
C2841 C2846 1.340 1_455 S
C2842 H2819 0.950 . S
C2842 C2841 1.397 . S
C2842 C2843 1.334 1_455 S
C2843 H2820 0.950 . S
C2843 C2842 1.334 1_655 S
C2843 C2844 1.287 . S
C2844 C2843 1.287 . S
C2844 C2845 1.524 . S
C2844 H2863 0.913 . S
C2845 H2821 0.950 . S
C2845 C2844 1.524 . S
C2845 C2846 1.450 . S
C2846 H2822 0.939 1_655 S
C2846 C2841 1.340 1_655 S
C2846 C2845 1.450 . S
C2847 H2823 0.951 . S
C2847 C2848 1.366 . S
C2847 C2849 1.388 . S
C2848 C2847 1.366 . S
C2848 C2852 1.385 . S
C2849 H2824 0.951 . S
C2849 C2847 1.388 . S
C2849 C2850 1.366 . S
C2850 C2849 1.366 . S
C2850 C2851 1.414 . S
C2850 C2853 1.499 . S
C2851 H2825 0.950 . S
C2851 C2850 1.414 . S
C2851 C2852 1.374 . S
C2852 H2826 0.950 . S
C2852 C2848 1.385 . S
C2852 C2851 1.374 . S
C2853 C2850 1.499 . S
C2853 C2854 1.373 . S
C2853 C2855 1.389 . S
C2854 H2827 0.950 . S
C2854 C2840 1.377 . S
C2854 C2853 1.373 . S
C2855 C2839 1.377 . S
C2855 C2853 1.389 . S
C2855 C2856 1.524 . S
C2856 C2855 1.524 . S
C2856 C2857 1.397 . S
C2856 C2861 1.363 . S
C2857 H2828 0.950 . S
C2857 C2856 1.397 . S
C2857 C2858 1.334 . S
C2858 H2829 0.950 . S
C2858 C2857 1.334 . S
C2858 C2859 1.287 . S
C2859 C2858 1.287 . S
C2859 C2860 1.524 . S
C2859 H2862 0.999 . S
C2860 H2830 0.950 . S
C2860 C2859 1.524 . S
C2860 C2861 1.415 . S
C2861 H2831 0.950 . S
C2861 C2856 1.363 . S
C2861 C2860 1.415 . S
H2862 C2859 0.999 . S
H2863 C2844 0.913 . S
H2864 C2882 0.951 . S
H2865 C2884 0.951 . S
H2866 C2886 0.950 . S
H2867 C2887 0.950 . S
H2868 C2889 0.950 . S
H2869 C2892 0.950 . S
H2870 C2893 0.950 . S
H2871 C2895 0.950 . S
H2872 C2896 0.950 . S
H2873 C2897 0.951 . S
H2874 C2899 0.951 . S
H2875 C2901 0.950 . S
H2876 C2902 0.950 . S
H2877 C2904 0.950 . S
H2878 C2907 0.950 . S
H2879 C2908 0.950 . S
H2880 C2910 0.950 . S
H2881 C2911 0.950 . S
C2882 H2864 0.951 . S
C2882 C2883 1.366 . S
C2882 C2884 1.388 . S
C2883 C2882 1.366 . S
C2883 C2887 1.385 . S
C2884 H2865 0.951 . S
C2884 C2882 1.388 . S
C2884 C2885 1.366 . S
C2885 C2884 1.366 . S
C2885 C2886 1.414 . S
C2885 C2888 1.499 . S
C2886 H2866 0.950 . S
C2886 C2885 1.414 . S
C2886 C2887 1.374 . S
C2887 H2867 0.950 . S
C2887 C2883 1.385 . S
C2887 C2886 1.374 . S
C2888 C2885 1.499 . S
C2888 C2889 1.373 . S
C2888 C2890 1.389 . S
C2889 H2868 0.950 . S
C2889 C2888 1.373 . S
C2889 C2905 1.377 . S
C2890 C2888 1.389 . S
C2890 C2891 1.524 . S
C2890 C2904 1.377 . S
C2891 C2890 1.524 . S
C2891 C2892 1.397 . S
C2891 C2896 1.363 . S
C2892 H2869 0.950 . S
C2892 C2891 1.397 . S
C2892 C2893 1.334 . S
C2893 H2870 0.950 . S
C2893 C2892 1.334 . S
C2893 C2894 1.287 . S
C2894 C2893 1.287 . S
C2894 C2895 1.524 . S
C2894 H2913 0.913 . S
C2895 H2871 0.950 . S
C2895 C2894 1.524 . S
C2895 C2896 1.415 . S
C2896 H2872 0.950 . S
C2896 C2891 1.363 . S
C2896 C2895 1.415 . S
C2897 H2873 0.951 . S
C2897 C2898 1.366 . S
C2897 C2899 1.388 . S
C2898 C2897 1.366 . S
C2898 C2902 1.385 . S
C2899 H2874 0.951 . S
C2899 C2897 1.388 . S
C2899 C2900 1.366 . S
C2900 C2899 1.366 . S
C2900 C2901 1.414 . S
C2900 C2903 1.499 . S
C2901 H2875 0.950 . S
C2901 C2900 1.414 . S
C2901 C2902 1.374 . S
C2902 H2876 0.950 . S
C2902 C2898 1.385 . S
C2902 C2901 1.374 . S
C2903 C2900 1.499 . S
C2903 C2904 1.373 . S
C2903 C2905 1.389 . S
C2904 H2877 0.950 . S
C2904 C2890 1.377 . S
C2904 C2903 1.373 . S
C2905 C2889 1.377 . S
C2905 C2903 1.389 . S
C2905 C2906 1.524 . S
C2906 C2905 1.524 . S
C2906 C2907 1.397 . S
C2906 C2911 1.363 . S
C2907 H2878 0.950 . S
C2907 C2906 1.397 . S
C2907 C2908 1.334 . S
C2908 H2879 0.950 . S
C2908 C2907 1.334 . S
C2908 C2909 1.287 . S
C2909 C2908 1.287 . S
C2909 C2910 1.524 . S
C2909 H2912 0.999 . S
C2910 H2880 0.950 . S
C2910 C2909 1.524 . S
C2910 C2911 1.415 . S
C2911 H2881 0.950 . S
C2911 C2906 1.363 . S
C2911 C2910 1.415 . S
H2912 C2909 0.999 . S
H2913 C2894 0.913 . S
H2914 C2932 0.951 1_455 S
H2915 C2934 0.921 1_455 S
H2916 C2936 0.950 . S
H2917 C2937 0.950 . S
H2918 C2939 0.950 . S
H2919 C2942 0.950 . S
H2920 C2943 0.950 . S
H2921 C2945 0.950 . S
H2922 C2946 0.950 . S
H2923 C2947 0.951 . S
H2924 C2949 0.951 . S
H2925 C2951 0.950 . S
H2926 C2952 0.950 . S
H2927 C2954 0.950 1_455 S
H2928 C2957 0.950 . S
H2929 C2958 0.950 . S
H2930 C2960 0.950 . S
H2931 C2961 0.950 . S
C2932 H2914 0.951 1_655 S
C2932 C2933 1.366 . S
C2932 C2934 1.392 . S
C2933 C2932 1.366 . S
C2933 C2937 1.385 . S
C2934 H2915 0.921 1_655 S
C2934 C2932 1.392 . S
C2934 C2935 1.391 . S
C2935 C2934 1.391 . S
C2935 C2936 1.414 . S
C2935 C2938 1.499 . S
C2936 H2916 0.950 . S
C2936 C2935 1.414 . S
C2936 C2937 1.374 . S
C2937 H2917 0.950 . S
C2937 C2933 1.385 . S
C2937 C2936 1.374 . S
C2938 C2935 1.499 . S
C2938 C2939 1.373 . S
C2938 C2940 1.389 1_554 S
C2939 H2918 0.950 . S
C2939 C2938 1.373 . S
C2939 C2955 1.377 . S
C2940 C2938 1.389 1_556 S
C2940 C2941 1.524 1_655 S
C2940 C2954 1.377 . S
C2941 C2940 1.524 1_455 S
C2941 C2942 1.397 1_455 S
C2941 C2946 1.363 . S
C2942 H2919 0.950 . S
C2942 C2941 1.397 1_655 S
C2942 C2943 1.334 . S
C2943 H2920 0.950 . S
C2943 C2942 1.334 . S
C2943 C2944 1.287 1_655 S
C2944 C2943 1.287 1_455 S
C2944 C2945 1.524 . S
C2944 H2963 0.913 . S
C2945 H2921 0.950 . S
C2945 C2944 1.524 . S
C2945 C2946 1.415 . S
C2946 H2922 0.950 . S
C2946 C2941 1.363 . S
C2946 C2945 1.415 . S
C2947 H2923 0.951 . S
C2947 C2948 1.366 . S
C2947 C2949 1.388 . S
C2948 C2947 1.366 . S
C2948 C2952 1.385 1_655 S
C2949 H2924 0.951 . S
C2949 C2947 1.388 . S
C2949 C2950 1.366 . S
C2950 C2949 1.366 . S
C2950 C2951 1.414 1_655 S
C2950 C2953 1.499 . S
C2951 H2925 0.950 . S
C2951 C2950 1.414 1_455 S
C2951 C2952 1.374 . S
C2952 H2926 0.950 . S
C2952 C2948 1.385 1_455 S
C2952 C2951 1.374 . S
C2953 C2950 1.499 . S
C2953 C2954 1.373 . S
C2953 C2955 1.389 1_556 S
C2954 H2927 0.950 1_655 S
C2954 C2940 1.377 . S
C2954 C2953 1.373 . S
C2955 C2939 1.377 . S
C2955 C2953 1.389 1_554 S
C2955 C2956 1.524 . S
C2956 C2955 1.524 . S
C2956 C2957 1.397 . S
C2956 C2961 1.363 . S
C2957 H2928 0.950 . S
C2957 C2956 1.397 . S
C2957 C2958 1.334 . S
C2958 H2929 0.950 . S
C2958 C2957 1.334 . S
C2958 C2959 1.287 . S
C2959 C2958 1.287 . S
C2959 C2960 1.524 . S
C2959 H2962 0.999 . S
C2960 H2930 0.950 . S
C2960 C2959 1.524 . S
C2960 C2961 1.415 . S
C2961 H2931 0.950 . S
C2961 C2956 1.363 . S
C2961 C2960 1.415 . S
H2962 C2959 0.999 . S
H2963 C2944 0.913 . S
H2964 C2982 0.951 . S
H2965 C2984 0.951 . S
H2966 C2986 0.950 . S
H2967 C2987 0.950 . S
H2968 C2989 0.950 . S
H2969 C2992 0.950 . S
H2970 C2993 0.950 . S
H2971 C2995 0.950 . S
H2972 C2996 0.950 . S
H2973 C2997 0.951 . S
H2974 C2999 0.951 . S
H2975 C3001 0.950 . S
H2976 C3002 0.950 . S
H2977 C3004 0.950 . S
H2978 C3007 0.950 . S
H2979 C3008 0.950 . S
H2980 C3010 0.950 . S
H2981 C3011 0.950 . S
C2982 H2964 0.951 . S
C2982 C2983 1.366 . S
C2982 C2984 1.388 . S
C2983 C2982 1.366 . S
C2983 C2987 1.385 . S
C2984 H2965 0.951 . S
C2984 C2982 1.388 . S
C2984 C2985 1.366 . S
C2985 C2984 1.366 . S
C2985 C2986 1.414 . S
C2985 C2988 1.499 . S
C2986 H2966 0.950 . S
C2986 C2985 1.414 . S
C2986 C2987 1.374 . S
C2987 H2967 0.950 . S
C2987 C2983 1.385 . S
C2987 C2986 1.374 . S
C2988 C2985 1.499 . S
C2988 C2989 1.373 . S
C2988 C2990 1.389 . S
C2989 H2968 0.950 . S
C2989 C2988 1.373 . S
C2989 C3005 1.377 . S
C2990 C2988 1.389 . S
C2990 C2991 1.524 . S
C2990 C3004 1.377 . S
C2991 C2990 1.524 . S
C2991 C2992 1.397 . S
C2991 C2996 1.363 . S
C2992 H2969 0.950 . S
C2992 C2991 1.397 . S
C2992 C2993 1.334 . S
C2993 H2970 0.950 . S
C2993 C2992 1.334 . S
C2993 C2994 1.287 . S
C2994 C2993 1.287 . S
C2994 C2995 1.524 . S
C2994 H3013 0.913 . S
C2995 H2971 0.950 . S
C2995 C2994 1.524 . S
C2995 C2996 1.415 . S
C2996 H2972 0.950 . S
C2996 C2991 1.363 . S
C2996 C2995 1.415 . S
C2997 H2973 0.951 . S
C2997 C2998 1.366 . S
C2997 C2999 1.388 . S
C2998 C2997 1.366 . S
C2998 C3002 1.385 . S
C2999 H2974 0.951 . S
C2999 C2997 1.388 . S
C2999 C3000 1.366 . S
C3000 C2999 1.366 . S
C3000 C3001 1.414 . S
C3000 C3003 1.499 . S
C3001 H2975 0.950 . S
C3001 C3000 1.414 . S
C3001 C3002 1.374 . S
C3002 H2976 0.950 . S
C3002 C2998 1.385 . S
C3002 C3001 1.374 . S
C3003 C3000 1.499 . S
C3003 C3004 1.373 . S
C3003 C3005 1.389 . S
C3004 H2977 0.950 . S
C3004 C2990 1.377 . S
C3004 C3003 1.373 . S
C3005 C2989 1.377 . S
C3005 C3003 1.389 . S
C3005 C3006 1.524 . S
C3006 C3005 1.524 . S
C3006 C3007 1.397 . S
C3006 C3011 1.363 . S
C3007 H2978 0.950 . S
C3007 C3006 1.397 . S
C3007 C3008 1.334 . S
C3008 H2979 0.950 . S
C3008 C3007 1.334 . S
C3008 C3009 1.287 . S
C3009 C3008 1.287 . S
C3009 C3010 1.524 . S
C3009 H3012 0.999 . S
C3010 H2980 0.950 . S
C3010 C3009 1.524 . S
C3010 C3011 1.415 . S
C3011 H2981 0.950 . S
C3011 C3006 1.363 . S
C3011 C3010 1.415 . S
H3012 C3009 0.999 . S
H3013 C2994 0.913 . S
H3014 C3032 0.951 . S
H3015 C3034 0.951 . S
H3016 C3036 0.950 1_655 S
H3017 C3037 0.950 1_655 S
H3018 C3039 0.950 . S
H3019 C3042 0.950 . S
H3020 C3043 0.950 . S
H3021 C3045 0.950 . S
H3022 C3046 0.954 1_556 S
H3023 C3047 0.951 . S
H3024 C3049 0.951 . S
H3025 C3051 0.950 . S
H3026 C3052 0.950 . S
H3027 C3054 0.950 . S
H3028 C3057 0.950 . S
H3029 C3058 0.950 . S
H3030 C3060 0.950 . S
H3031 C3061 0.950 . S
C3032 H3014 0.951 . S
C3032 C3033 1.366 . S
C3032 C3034 1.388 . S
C3033 C3032 1.366 . S
C3033 C3037 1.385 . S
C3034 H3015 0.951 . S
C3034 C3032 1.388 . S
C3034 C3035 1.366 . S
C3035 C3034 1.366 . S
C3035 C3036 1.414 . S
C3035 C3038 1.499 . S
C3036 H3016 0.950 1_455 S
C3036 C3035 1.414 . S
C3036 C3037 1.374 . S
C3037 H3017 0.950 1_455 S
C3037 C3033 1.385 . S
C3037 C3036 1.374 . S
C3038 C3035 1.499 . S
C3038 C3039 1.373 1_454 S
C3038 C3040 1.401 . S
C3039 H3018 0.950 . S
C3039 C3038 1.373 1_656 S
C3039 C3055 1.377 . S
C3040 C3038 1.401 . S
C3040 C3041 1.546 . S
C3040 C3054 1.346 1_554 S
C3041 C3040 1.546 . S
C3041 C3042 1.397 . S
C3041 C3046 1.361 . S
C3042 H3019 0.950 . S
C3042 C3041 1.397 . S
C3042 C3043 1.334 . S
C3043 H3020 0.950 . S
C3043 C3042 1.334 . S
C3043 C3044 1.287 . S
C3044 C3043 1.287 . S
C3044 C3045 1.524 . S
C3044 H3063 0.913 . S
C3045 H3021 0.950 . S
C3045 C3044 1.524 . S
C3045 C3046 1.413 . S
C3046 H3022 0.954 1_554 S
C3046 C3041 1.361 . S
C3046 C3045 1.413 . S
C3047 H3023 0.951 . S
C3047 C3048 1.366 1_655 S
C3047 C3049 1.388 . S
C3048 C3047 1.366 1_455 S
C3048 C3052 1.385 . S
C3049 H3024 0.951 . S
C3049 C3047 1.388 . S
C3049 C3050 1.366 1_655 S
C3050 C3049 1.366 1_455 S
C3050 C3051 1.414 . S
C3050 C3053 1.499 . S
C3051 H3025 0.950 . S
C3051 C3050 1.414 . S
C3051 C3052 1.374 . S
C3052 H3026 0.950 . S
C3052 C3048 1.385 . S
C3052 C3051 1.374 . S
C3053 C3050 1.499 . S
C3053 C3054 1.373 . S
C3053 C3055 1.389 1_455 S
C3054 H3027 0.950 . S
C3054 C3040 1.346 1_556 S
C3054 C3053 1.373 . S
C3055 C3039 1.377 . S
C3055 C3053 1.389 1_655 S
C3055 C3056 1.524 . S
C3056 C3055 1.524 . S
C3056 C3057 1.397 . S
C3056 C3061 1.363 . S
C3057 H3028 0.950 . S
C3057 C3056 1.397 . S
C3057 C3058 1.334 . S
C3058 H3029 0.950 . S
C3058 C3057 1.334 . S
C3058 C3059 1.287 . S
C3059 C3058 1.287 . S
C3059 C3060 1.524 . S
C3059 H3062 0.999 . S
C3060 H3030 0.950 . S
C3060 C3059 1.524 . S
C3060 C3061 1.415 . S
C3061 H3031 0.950 . S
C3061 C3056 1.363 . S
C3061 C3060 1.415 . S
H3062 C3059 0.999 . S
H3063 C3044 0.913 . S
H3064 C3082 0.951 . S
H3065 C3084 0.951 . S
H3066 C3086 0.950 . S
H3067 C3087 0.950 . S
H3068 C3089 0.950 . S
H3069 C3092 0.950 . S
H3070 C3093 0.950 . S
H3071 C3095 0.950 . S
H3072 C3096 0.950 . S
H3073 C3097 0.951 . S
H3074 C3099 0.951 . S
H3075 C3101 0.950 . S
H3076 C3102 0.950 . S
H3077 C3104 0.950 . S
H3078 C3107 0.950 . S
H3079 C3108 0.950 . S
H3080 C3110 0.950 . S
H3081 C3111 0.950 . S
C3082 H3064 0.951 . S
C3082 C3083 1.366 . S
C3082 C3084 1.388 . S
C3083 C3082 1.366 . S
C3083 C3087 1.385 . S
C3084 H3065 0.951 . S
C3084 C3082 1.388 . S
C3084 C3085 1.366 . S
C3085 C3084 1.366 . S
C3085 C3086 1.414 . S
C3085 C3088 1.499 . S
C3086 H3066 0.950 . S
C3086 C3085 1.414 . S
C3086 C3087 1.374 . S
C3087 H3067 0.950 . S
C3087 C3083 1.385 . S
C3087 C3086 1.374 . S
C3088 C3085 1.499 . S
C3088 C3089 1.373 . S
C3088 C3090 1.389 . S
C3089 H3068 0.950 . S
C3089 C3088 1.373 . S
C3089 C3105 1.377 . S
C3090 C3088 1.389 . S
C3090 C3091 1.524 . S
C3090 C3104 1.377 . S
C3091 C3090 1.524 . S
C3091 C3092 1.397 . S
C3091 C3096 1.363 . S
C3092 H3069 0.950 . S
C3092 C3091 1.397 . S
C3092 C3093 1.334 . S
C3093 H3070 0.950 . S
C3093 C3092 1.334 . S
C3093 C3094 1.287 . S
C3094 C3093 1.287 . S
C3094 C3095 1.524 . S
C3094 H3113 0.913 . S
C3095 H3071 0.950 . S
C3095 C3094 1.524 . S
C3095 C3096 1.415 . S
C3096 H3072 0.950 . S
C3096 C3091 1.363 . S
C3096 C3095 1.415 . S
C3097 H3073 0.951 . S
C3097 C3098 1.366 . S
C3097 C3099 1.388 . S
C3098 C3097 1.366 . S
C3098 C3102 1.385 . S
C3099 H3074 0.951 . S
C3099 C3097 1.388 . S
C3099 C3100 1.366 . S
C3100 C3099 1.366 . S
C3100 C3101 1.414 . S
C3100 C3103 1.499 . S
C3101 H3075 0.950 . S
C3101 C3100 1.414 . S
C3101 C3102 1.374 . S
C3102 H3076 0.950 . S
C3102 C3098 1.385 . S
C3102 C3101 1.374 . S
C3103 C3100 1.499 . S
C3103 C3104 1.373 . S
C3103 C3105 1.389 . S
C3104 H3077 0.950 . S
C3104 C3090 1.377 . S
C3104 C3103 1.373 . S
C3105 C3089 1.377 . S
C3105 C3103 1.389 . S
C3105 C3106 1.524 . S
C3106 C3105 1.524 . S
C3106 C3107 1.397 . S
C3106 C3111 1.363 . S
C3107 H3078 0.950 . S
C3107 C3106 1.397 . S
C3107 C3108 1.334 . S
C3108 H3079 0.950 . S
C3108 C3107 1.334 . S
C3108 C3109 1.287 . S
C3109 C3108 1.287 . S
C3109 C3110 1.524 . S
C3109 H3112 0.999 . S
C3110 H3080 0.950 . S
C3110 C3109 1.524 . S
C3110 C3111 1.415 . S
C3111 H3081 0.950 . S
C3111 C3106 1.363 . S
C3111 C3110 1.415 . S
H3112 C3109 0.999 . S
H3113 C3094 0.913 . S
H3114 C3132 0.951 . S
H3115 C3134 0.951 . S
H3116 C3136 0.950 . S
H3117 C3137 0.950 . S
H3118 C3139 0.950 . S
H3119 C3142 0.950 . S
H3120 C3143 0.950 . S
H3121 C3145 0.950 . S
H3122 C3146 0.950 . S
H3123 C3147 0.951 . S
H3124 C3149 0.951 . S
H3125 C3151 0.950 . S
H3126 C3152 0.950 . S
H3127 C3154 0.950 . S
H3128 C3157 0.950 . S
H3129 C3158 0.950 . S
H3130 C3160 0.950 . S
H3131 C3161 0.950 . S
C3132 H3114 0.951 . S
C3132 C3133 1.366 . S
C3132 C3134 1.388 . S
C3133 C3132 1.366 . S
C3133 C3137 1.385 1_556 S
C3134 H3115 0.951 . S
C3134 C3132 1.388 . S
C3134 C3135 1.366 1_556 S
C3135 C3134 1.366 1_554 S
C3135 C3136 1.414 . S
C3135 C3138 1.499 . S
C3136 H3116 0.950 . S
C3136 C3135 1.414 . S
C3136 C3137 1.374 . S
C3137 H3117 0.950 . S
C3137 C3133 1.385 1_554 S
C3137 C3136 1.374 . S
C3138 C3135 1.499 . S
C3138 C3139 1.373 . S
C3138 C3140 1.389 . S
C3139 H3118 0.950 . S
C3139 C3138 1.373 . S
C3139 C3155 1.377 . S
C3140 C3138 1.389 . S
C3140 C3141 1.524 . S
C3140 C3154 1.377 . S
C3141 C3140 1.524 . S
C3141 C3142 1.397 . S
C3141 C3146 1.363 . S
C3142 H3119 0.950 . S
C3142 C3141 1.397 . S
C3142 C3143 1.334 . S
C3143 H3120 0.950 . S
C3143 C3142 1.334 . S
C3143 C3144 1.287 . S
C3144 C3143 1.287 . S
C3144 C3145 1.524 . S
C3144 H3163 0.913 . S
C3145 H3121 0.950 . S
C3145 C3144 1.524 . S
C3145 C3146 1.415 . S
C3146 H3122 0.950 . S
C3146 C3141 1.363 . S
C3146 C3145 1.415 . S
C3147 H3123 0.951 . S
C3147 C3148 1.366 . S
C3147 C3149 1.388 . S
C3148 C3147 1.366 . S
C3148 C3152 1.385 . S
C3149 H3124 0.951 . S
C3149 C3147 1.388 . S
C3149 C3150 1.366 . S
C3150 C3149 1.366 . S
C3150 C3151 1.414 . S
C3150 C3153 1.499 . S
C3151 H3125 0.950 . S
C3151 C3150 1.414 . S
C3151 C3152 1.374 . S
C3152 H3126 0.950 . S
C3152 C3148 1.385 . S
C3152 C3151 1.374 . S
C3153 C3150 1.499 . S
C3153 C3154 1.373 . S
C3153 C3155 1.389 . S
C3154 H3127 0.950 . S
C3154 C3140 1.377 . S
C3154 C3153 1.373 . S
C3155 C3139 1.377 . S
C3155 C3153 1.389 . S
C3155 C3156 1.524 . S
C3156 C3155 1.524 . S
C3156 C3157 1.397 . S
C3156 C3161 1.363 . S
C3157 H3128 0.950 . S
C3157 C3156 1.397 . S
C3157 C3158 1.334 . S
C3158 H3129 0.950 . S
C3158 C3157 1.334 . S
C3158 C3159 1.287 . S
C3159 C3158 1.287 . S
C3159 C3160 1.524 . S
C3159 H3162 0.999 . S
C3160 H3130 0.950 . S
C3160 C3159 1.524 . S
C3160 C3161 1.415 . S
C3161 H3131 0.950 . S
C3161 C3156 1.363 . S
C3161 C3160 1.415 . S
H3162 C3159 0.999 . S
H3163 C3144 0.913 . S
H3164 C3182 0.951 . S
H3165 C3184 0.951 . S
H3166 C3186 0.950 . S
H3167 C3187 0.950 . S
H3168 C3189 0.950 . S
H3169 C3192 0.950 . S
H3170 C3193 0.950 . S
H3171 C3195 0.950 . S
H3172 C3196 0.950 . S
H3173 C3197 0.951 . S
H3174 C3199 0.951 . S
H3175 C3201 0.950 . S
H3176 C3202 0.950 . S
H3177 C3204 0.950 . S
H3178 C3207 0.950 . S
H3179 C3208 0.950 . S
H3180 C3210 0.950 . S
H3181 C3211 0.950 . S
C3182 H3164 0.951 . S
C3182 C3183 1.366 . S
C3182 C3184 1.388 . S
C3183 C3182 1.366 . S
C3183 C3187 1.385 . S
C3184 H3165 0.951 . S
C3184 C3182 1.388 . S
C3184 C3185 1.366 . S
C3185 C3184 1.366 . S
C3185 C3186 1.414 . S
C3185 C3188 1.499 . S
C3186 H3166 0.950 . S
C3186 C3185 1.414 . S
C3186 C3187 1.374 . S
C3187 H3167 0.950 . S
C3187 C3183 1.385 . S
C3187 C3186 1.374 . S
C3188 C3185 1.499 . S
C3188 C3189 1.373 . S
C3188 C3190 1.389 . S
C3189 H3168 0.950 . S
C3189 C3188 1.373 . S
C3189 C3205 1.377 . S
C3190 C3188 1.389 . S
C3190 C3191 1.524 . S
C3190 C3204 1.377 . S
C3191 C3190 1.524 . S
C3191 C3192 1.397 . S
C3191 C3196 1.363 . S
C3192 H3169 0.950 . S
C3192 C3191 1.397 . S
C3192 C3193 1.334 . S
C3193 H3170 0.950 . S
C3193 C3192 1.334 . S
C3193 C3194 1.287 . S
C3194 C3193 1.287 . S
C3194 C3195 1.524 . S
C3194 H3213 0.913 . S
C3195 H3171 0.950 . S
C3195 C3194 1.524 . S
C3195 C3196 1.415 . S
C3196 H3172 0.950 . S
C3196 C3191 1.363 . S
C3196 C3195 1.415 . S
C3197 H3173 0.951 . S
C3197 C3198 1.366 . S
C3197 C3199 1.388 . S
C3198 C3197 1.366 . S
C3198 C3202 1.385 . S
C3199 H3174 0.951 . S
C3199 C3197 1.388 . S
C3199 C3200 1.366 . S
C3200 C3199 1.366 . S
C3200 C3201 1.414 . S
C3200 C3203 1.499 . S
C3201 H3175 0.950 . S
C3201 C3200 1.414 . S
C3201 C3202 1.374 . S
C3202 H3176 0.950 . S
C3202 C3198 1.385 . S
C3202 C3201 1.374 . S
C3203 C3200 1.499 . S
C3203 C3204 1.373 . S
C3203 C3205 1.389 . S
C3204 H3177 0.950 . S
C3204 C3190 1.377 . S
C3204 C3203 1.373 . S
C3205 C3189 1.377 . S
C3205 C3203 1.389 . S
C3205 C3206 1.524 . S
C3206 C3205 1.524 . S
C3206 C3207 1.397 . S
C3206 C3211 1.363 . S
C3207 H3178 0.950 . S
C3207 C3206 1.397 . S
C3207 C3208 1.334 . S
C3208 H3179 0.950 . S
C3208 C3207 1.334 . S
C3208 C3209 1.287 . S
C3209 C3208 1.287 . S
C3209 C3210 1.524 . S
C3209 H3212 0.999 . S
C3210 H3180 0.950 . S
C3210 C3209 1.524 . S
C3210 C3211 1.415 . S
C3211 H3181 0.950 . S
C3211 C3206 1.363 . S
C3211 C3210 1.415 . S
H3212 C3209 0.999 . S
H3213 C3194 0.913 . S
H3214 C3232 0.951 . S
H3215 C3234 0.951 . S
H3216 C3236 0.950 . S
H3217 C3237 0.950 . S
H3218 C3239 0.950 . S
H3219 C3242 0.950 . S
H3220 C3243 0.950 . S
H3221 C3245 0.950 . S
H3222 C3246 0.950 . S
H3223 C3247 0.951 . S
H3224 C3249 0.951 . S
H3225 C3251 0.950 . S
H3226 C3252 0.950 . S
H3227 C3254 0.950 . S
H3228 C3257 0.950 . S
H3229 C3258 0.950 . S
H3230 C3260 0.950 . S
H3231 C3261 0.950 1_556 S
C3232 H3214 0.951 . S
C3232 C3233 1.366 1_554 S
C3232 C3234 1.388 . S
C3233 C3232 1.366 1_556 S
C3233 C3237 1.385 . S
C3234 H3215 0.951 . S
C3234 C3232 1.388 . S
C3234 C3235 1.366 . S
C3235 C3234 1.366 . S
C3235 C3236 1.414 1_554 S
C3235 C3238 1.499 . S
C3236 H3216 0.950 . S
C3236 C3235 1.414 1_556 S
C3236 C3237 1.374 . S
C3237 H3217 0.950 . S
C3237 C3233 1.385 . S
C3237 C3236 1.374 . S
C3238 C3235 1.499 . S
C3238 C3239 1.373 . S
C3238 C3240 1.389 . S
C3239 H3218 0.950 . S
C3239 C3238 1.373 . S
C3239 C3255 1.377 . S
C3240 C3238 1.389 . S
C3240 C3241 1.524 . S
C3240 C3254 1.377 . S
C3241 C3240 1.524 . S
C3241 C3242 1.397 . S
C3241 C3246 1.363 . S
C3242 H3219 0.950 . S
C3242 C3241 1.397 . S
C3242 C3243 1.334 . S
C3243 H3220 0.950 . S
C3243 C3242 1.334 . S
C3243 C3244 1.287 . S
C3244 C3243 1.287 . S
C3244 C3245 1.524 . S
C3244 H3263 0.913 . S
C3245 H3221 0.950 . S
C3245 C3244 1.524 . S
C3245 C3246 1.415 . S
C3246 H3222 0.950 . S
C3246 C3241 1.363 . S
C3246 C3245 1.415 . S
C3247 H3223 0.951 . S
C3247 C3248 1.366 . S
C3247 C3249 1.388 . S
C3248 C3247 1.366 . S
C3248 C3252 1.385 . S
C3249 H3224 0.951 . S
C3249 C3247 1.388 . S
C3249 C3250 1.366 . S
C3250 C3249 1.366 . S
C3250 C3251 1.414 . S
C3250 C3253 1.499 . S
C3251 H3225 0.950 . S
C3251 C3250 1.414 . S
C3251 C3252 1.374 . S
C3252 H3226 0.950 . S
C3252 C3248 1.385 . S
C3252 C3251 1.374 . S
C3253 C3250 1.499 . S
C3253 C3254 1.373 . S
C3253 C3255 1.389 . S
C3254 H3227 0.950 . S
C3254 C3240 1.377 . S
C3254 C3253 1.373 . S
C3255 C3239 1.377 . S
C3255 C3253 1.389 . S
C3255 C3256 1.524 . S
C3256 C3255 1.524 . S
C3256 C3257 1.397 . S
C3256 C3261 1.363 . S
C3257 H3228 0.950 . S
C3257 C3256 1.397 . S
C3257 C3258 1.334 . S
C3258 H3229 0.950 . S
C3258 C3257 1.334 . S
C3258 C3259 1.287 . S
C3259 C3258 1.287 . S
C3259 C3260 1.524 1_554 S
C3259 H3262 0.999 . S
C3260 H3230 0.950 . S
C3260 C3259 1.524 1_556 S
C3260 C3261 1.415 1_556 S
C3261 H3231 0.950 1_554 S
C3261 C3256 1.363 . S
C3261 C3260 1.415 1_554 S
H3262 C3259 0.999 . S
H3263 C3244 0.913 . S
H3264 C3282 0.951 . S
H3265 C3284 0.951 . S
H3266 C3286 0.950 . S
H3267 C3287 0.950 . S
H3268 C3289 0.950 . S
H3269 C3292 0.950 . S
H3270 C3293 0.950 . S
H3271 C3295 0.950 . S
H3272 C3296 0.950 . S
H3273 C3297 0.951 . S
H3274 C3299 0.951 . S
H3275 C3301 0.950 . S
H3276 C3302 0.950 . S
H3277 C3304 0.950 . S
H3278 C3307 0.950 . S
H3279 C3308 0.950 . S
H3280 C3310 0.950 . S
H3281 C3311 0.950 . S
C3282 H3264 0.951 . S
C3282 C3283 1.366 . S
C3282 C3284 1.388 . S
C3283 C3282 1.366 . S
C3283 C3287 1.385 . S
C3284 H3265 0.951 . S
C3284 C3282 1.388 . S
C3284 C3285 1.366 . S
C3285 C3284 1.366 . S
C3285 C3286 1.414 . S
C3285 C3288 1.499 . S
C3286 H3266 0.950 . S
C3286 C3285 1.414 . S
C3286 C3287 1.374 . S
C3287 H3267 0.950 . S
C3287 C3283 1.385 . S
C3287 C3286 1.374 . S
C3288 C3285 1.499 . S
C3288 C3289 1.373 . S
C3288 C3290 1.389 . S
C3289 H3268 0.950 . S
C3289 C3288 1.373 . S
C3289 C3305 1.377 . S
C3290 C3288 1.389 . S
C3290 C3291 1.524 . S
C3290 C3304 1.377 . S
C3291 C3290 1.524 . S
C3291 C3292 1.397 . S
C3291 C3296 1.363 . S
C3292 H3269 0.950 . S
C3292 C3291 1.397 . S
C3292 C3293 1.334 . S
C3293 H3270 0.950 . S
C3293 C3292 1.334 . S
C3293 C3294 1.287 . S
C3294 C3293 1.287 . S
C3294 C3295 1.524 . S
C3294 H3313 0.913 . S
C3295 H3271 0.950 . S
C3295 C3294 1.524 . S
C3295 C3296 1.415 . S
C3296 H3272 0.950 . S
C3296 C3291 1.363 . S
C3296 C3295 1.415 . S
C3297 H3273 0.951 . S
C3297 C3298 1.366 . S
C3297 C3299 1.388 . S
C3298 C3297 1.366 . S
C3298 C3302 1.385 . S
C3299 H3274 0.951 . S
C3299 C3297 1.388 . S
C3299 C3300 1.366 . S
C3300 C3299 1.366 . S
C3300 C3301 1.414 . S
C3300 C3303 1.499 . S
C3301 H3275 0.950 . S
C3301 C3300 1.414 . S
C3301 C3302 1.374 . S
C3302 H3276 0.950 . S
C3302 C3298 1.385 . S
C3302 C3301 1.374 . S
C3303 C3300 1.499 . S
C3303 C3304 1.373 . S
C3303 C3305 1.389 . S
C3304 H3277 0.950 . S
C3304 C3290 1.377 . S
C3304 C3303 1.373 . S
C3305 C3289 1.377 . S
C3305 C3303 1.389 . S
C3305 C3306 1.524 . S
C3306 C3305 1.524 . S
C3306 C3307 1.397 . S
C3306 C3311 1.363 . S
C3307 H3278 0.950 . S
C3307 C3306 1.397 . S
C3307 C3308 1.334 . S
C3308 H3279 0.950 . S
C3308 C3307 1.334 . S
C3308 C3309 1.287 . S
C3309 C3308 1.287 . S
C3309 C3310 1.524 . S
C3309 H3312 0.999 . S
C3310 H3280 0.950 . S
C3310 C3309 1.524 . S
C3310 C3311 1.415 . S
C3311 H3281 0.950 . S
C3311 C3306 1.363 . S
C3311 C3310 1.415 . S
H3312 C3309 0.999 . S
H3313 C3294 0.913 . S
H3314 C3332 0.951 . S
H3315 C3334 0.951 . S
H3316 C3336 0.950 . S
H3317 C3337 0.950 . S
H3318 C3339 0.950 . S
H3319 C3342 0.950 . S
H3320 C3343 0.950 . S
H3321 C3345 0.950 . S
H3322 C3346 0.950 . S
H3323 C3347 0.951 . S
H3324 C3349 0.951 . S
H3325 C3351 0.950 . S
H3326 C3352 0.950 . S
H3327 C3354 0.950 . S
H3328 C3357 0.950 . S
H3329 C3358 0.950 . S
H3330 C3360 0.950 . S
H3331 C3361 0.950 . S
C3332 H3314 0.951 . S
C3332 C3333 1.366 . S
C3332 C3334 1.388 . S
C3333 C3332 1.366 . S
C3333 C3337 1.385 . S
C3334 H3315 0.951 . S
C3334 C3332 1.388 . S
C3334 C3335 1.366 . S
C3335 C3334 1.366 . S
C3335 C3336 1.414 . S
C3335 C3338 1.499 . S
C3336 H3316 0.950 . S
C3336 C3335 1.414 . S
C3336 C3337 1.374 . S
C3337 H3317 0.950 . S
C3337 C3333 1.385 . S
C3337 C3336 1.374 . S
C3338 C3335 1.499 . S
C3338 C3339 1.373 . S
C3338 C3340 1.389 . S
C3339 H3318 0.950 . S
C3339 C3338 1.373 . S
C3339 C3355 1.377 . S
C3340 C3338 1.389 . S
C3340 C3341 1.524 . S
C3340 C3354 1.377 . S
C3341 C3340 1.524 . S
C3341 C3342 1.397 . S
C3341 C3346 1.363 . S
C3342 H3319 0.950 . S
C3342 C3341 1.397 . S
C3342 C3343 1.334 . S
C3343 H3320 0.950 . S
C3343 C3342 1.334 . S
C3343 C3344 1.287 . S
C3344 C3343 1.287 . S
C3344 C3345 1.524 . S
C3344 H3363 0.913 . S
C3345 H3321 0.950 . S
C3345 C3344 1.524 . S
C3345 C3346 1.415 . S
C3346 H3322 0.950 . S
C3346 C3341 1.363 . S
C3346 C3345 1.415 . S
C3347 H3323 0.951 . S
C3347 C3348 1.366 . S
C3347 C3349 1.388 . S
C3348 C3347 1.366 . S
C3348 C3352 1.385 . S
C3349 H3324 0.951 . S
C3349 C3347 1.388 . S
C3349 C3350 1.366 . S
C3350 C3349 1.366 . S
C3350 C3351 1.414 . S
C3350 C3353 1.499 . S
C3351 H3325 0.950 . S
C3351 C3350 1.414 . S
C3351 C3352 1.374 . S
C3352 H3326 0.950 . S
C3352 C3348 1.385 . S
C3352 C3351 1.374 . S
C3353 C3350 1.499 . S
C3353 C3354 1.373 . S
C3353 C3355 1.389 . S
C3354 H3327 0.950 . S
C3354 C3340 1.377 . S
C3354 C3353 1.373 . S
C3355 C3339 1.377 . S
C3355 C3353 1.389 . S
C3355 C3356 1.524 . S
C3356 C3355 1.524 . S
C3356 C3357 1.397 . S
C3356 C3361 1.363 . S
C3357 H3328 0.950 . S
C3357 C3356 1.397 . S
C3357 C3358 1.334 . S
C3358 H3329 0.950 . S
C3358 C3357 1.334 . S
C3358 C3359 1.287 . S
C3359 C3358 1.287 . S
C3359 C3360 1.524 . S
C3359 H3362 0.999 . S
C3360 H3330 0.950 . S
C3360 C3359 1.524 . S
C3360 C3361 1.415 . S
C3361 H3331 0.950 . S
C3361 C3356 1.363 . S
C3361 C3360 1.415 . S
H3362 C3359 0.999 . S
H3363 C3344 0.913 . S
H3364 C3382 0.951 . S
H3365 C3384 0.951 . S
H3366 C3386 0.950 . S
H3367 C3387 0.950 . S
H3368 C3389 0.950 . S
H3369 C3392 0.950 . S
H3370 C3393 0.950 . S
H3371 C3395 0.950 . S
H3372 C3396 0.950 . S
H3373 C3397 0.951 . S
H3374 C3399 0.951 . S
H3375 C3401 0.950 . S
H3376 C3402 0.950 . S
H3377 C3404 0.950 . S
H3378 C3407 0.950 . S
H3379 C3408 0.950 . S
H3380 C3410 0.950 . S
H3381 C3411 0.950 . S
C3382 H3364 0.951 . S
C3382 C3383 1.366 . S
C3382 C3384 1.388 . S
C3383 C3382 1.366 . S
C3383 C3387 1.385 . S
C3384 H3365 0.951 . S
C3384 C3382 1.388 . S
C3384 C3385 1.366 . S
C3385 C3384 1.366 . S
C3385 C3386 1.414 . S
C3385 C3388 1.499 . S
C3386 H3366 0.950 . S
C3386 C3385 1.414 . S
C3386 C3387 1.374 . S
C3387 H3367 0.950 . S
C3387 C3383 1.385 . S
C3387 C3386 1.374 . S
C3388 C3385 1.499 . S
C3388 C3389 1.373 . S
C3388 C3390 1.389 . S
C3389 H3368 0.950 . S
C3389 C3388 1.373 . S
C3389 C3405 1.377 . S
C3390 C3388 1.389 . S
C3390 C3391 1.524 . S
C3390 C3404 1.377 . S
C3391 C3390 1.524 . S
C3391 C3392 1.397 . S
C3391 C3396 1.363 . S
C3392 H3369 0.950 . S
C3392 C3391 1.397 . S
C3392 C3393 1.334 . S
C3393 H3370 0.950 . S
C3393 C3392 1.334 . S
C3393 C3394 1.287 . S
C3394 C3393 1.287 . S
C3394 C3395 1.524 . S
C3394 H3413 0.913 . S
C3395 H3371 0.950 . S
C3395 C3394 1.524 . S
C3395 C3396 1.415 . S
C3396 H3372 0.950 . S
C3396 C3391 1.363 . S
C3396 C3395 1.415 . S
C3397 H3373 0.951 . S
C3397 C3398 1.366 . S
C3397 C3399 1.388 . S
C3398 C3397 1.366 . S
C3398 C3402 1.385 . S
C3399 H3374 0.951 . S
C3399 C3397 1.388 . S
C3399 C3400 1.366 . S
C3400 C3399 1.366 . S
C3400 C3401 1.414 . S
C3400 C3403 1.499 . S
C3401 H3375 0.950 . S
C3401 C3400 1.414 . S
C3401 C3402 1.374 . S
C3402 H3376 0.950 . S
C3402 C3398 1.385 . S
C3402 C3401 1.374 . S
C3403 C3400 1.499 . S
C3403 C3404 1.373 . S
C3403 C3405 1.389 . S
C3404 H3377 0.950 . S
C3404 C3390 1.377 . S
C3404 C3403 1.373 . S
C3405 C3389 1.377 . S
C3405 C3403 1.389 . S
C3405 C3406 1.524 . S
C3406 C3405 1.524 . S
C3406 C3407 1.397 . S
C3406 C3411 1.363 . S
C3407 H3378 0.950 . S
C3407 C3406 1.397 . S
C3407 C3408 1.334 . S
C3408 H3379 0.950 . S
C3408 C3407 1.334 . S
C3408 C3409 1.287 . S
C3409 C3408 1.287 . S
C3409 C3410 1.524 . S
C3409 H3412 0.999 . S
C3410 H3380 0.950 . S
C3410 C3409 1.524 . S
C3410 C3411 1.415 . S
C3411 H3381 0.950 . S
C3411 C3406 1.363 . S
C3411 C3410 1.415 . S
H3412 C3409 0.999 . S
H3413 C3394 0.913 . S
H3414 C3432 0.951 . S
H3415 C3434 0.951 . S
H3416 C3436 0.950 . S
H3417 C3437 0.950 . S
H3418 C3439 0.950 . S
H3419 C3442 0.950 . S
H3420 C3443 0.950 . S
H3421 C3445 0.950 . S
H3422 C3446 0.950 . S
H3423 C3447 0.951 . S
H3424 C3449 0.951 . S
H3425 C3451 0.950 . S
H3426 C3452 0.950 . S
H3427 C3454 0.950 . S
H3428 C3457 0.950 . S
H3429 C3458 0.950 . S
H3430 C3460 0.950 . S
H3431 C3461 0.950 . S
C3432 H3414 0.951 . S
C3432 C3433 1.366 . S
C3432 C3434 1.388 . S
C3433 C3432 1.366 . S
C3433 C3437 1.385 . S
C3434 H3415 0.951 . S
C3434 C3432 1.388 . S
C3434 C3435 1.366 . S
C3435 C3434 1.366 . S
C3435 C3436 1.414 . S
C3435 C3438 1.499 . S
C3436 H3416 0.950 . S
C3436 C3435 1.414 . S
C3436 C3437 1.374 . S
C3437 H3417 0.950 . S
C3437 C3433 1.385 . S
C3437 C3436 1.374 . S
C3438 C3435 1.499 . S
C3438 C3439 1.373 . S
C3438 C3440 1.389 . S
C3439 H3418 0.950 . S
C3439 C3438 1.373 . S
C3439 C3455 1.377 . S
C3440 C3438 1.389 . S
C3440 C3441 1.524 . S
C3440 C3454 1.377 . S
C3441 C3440 1.524 . S
C3441 C3442 1.397 . S
C3441 C3446 1.363 . S
C3442 H3419 0.950 . S
C3442 C3441 1.397 . S
C3442 C3443 1.334 . S
C3443 H3420 0.950 . S
C3443 C3442 1.334 . S
C3443 C3444 1.287 . S
C3444 C3443 1.287 . S
C3444 C3445 1.524 . S
C3444 H3463 0.913 . S
C3445 H3421 0.950 . S
C3445 C3444 1.524 . S
C3445 C3446 1.415 . S
C3446 H3422 0.950 . S
C3446 C3441 1.363 . S
C3446 C3445 1.415 . S
C3447 H3423 0.951 . S
C3447 C3448 1.366 . S
C3447 C3449 1.388 . S
C3448 C3447 1.366 . S
C3448 C3452 1.385 . S
C3449 H3424 0.951 . S
C3449 C3447 1.388 . S
C3449 C3450 1.366 . S
C3450 C3449 1.366 . S
C3450 C3451 1.414 . S
C3450 C3453 1.499 . S
C3451 H3425 0.950 . S
C3451 C3450 1.414 . S
C3451 C3452 1.374 . S
C3452 H3426 0.950 . S
C3452 C3448 1.385 . S
C3452 C3451 1.374 . S
C3453 C3450 1.499 . S
C3453 C3454 1.373 . S
C3453 C3455 1.389 . S
C3454 H3427 0.950 . S
C3454 C3440 1.377 . S
C3454 C3453 1.373 . S
C3455 C3439 1.377 . S
C3455 C3453 1.389 . S
C3455 C3456 1.524 . S
C3456 C3455 1.524 . S
C3456 C3457 1.397 . S
C3456 C3461 1.363 . S
C3457 H3428 0.950 . S
C3457 C3456 1.397 . S
C3457 C3458 1.334 . S
C3458 H3429 0.950 . S
C3458 C3457 1.334 . S
C3458 C3459 1.287 . S
C3459 C3458 1.287 . S
C3459 C3460 1.524 . S
C3459 H3462 0.999 . S
C3460 H3430 0.950 . S
C3460 C3459 1.524 . S
C3460 C3461 1.415 . S
C3461 H3431 0.950 . S
C3461 C3456 1.363 . S
C3461 C3460 1.415 . S
H3462 C3459 0.999 . S
H3463 C3444 0.913 . S
H3464 C3482 0.951 . S
H3465 C3484 0.951 . S
H3466 C3486 0.950 . S
H3467 C3487 0.950 . S
H3468 C3489 0.950 1_554 S
H3469 C3492 0.950 . S
H3470 C3493 0.950 . S
H3471 C3495 0.950 . S
H3472 C3496 0.950 . S
H3473 C3497 0.951 1_554 S
H3474 C3499 0.951 1_554 S
H3475 C3501 0.950 . S
H3476 C3502 0.950 . S
H3477 C3504 0.950 . S
H3478 C3507 0.950 . S
H3479 C3508 0.950 . S
H3480 C3510 0.950 . S
H3481 C3511 0.950 . S
C3482 H3464 0.951 . S
C3482 C3483 1.366 . S
C3482 C3484 1.388 . S
C3483 C3482 1.366 . S
C3483 C3487 1.385 . S
C3484 H3465 0.951 . S
C3484 C3482 1.388 . S
C3484 C3485 1.366 . S
C3485 C3484 1.366 . S
C3485 C3486 1.414 . S
C3485 C3488 1.499 . S
C3486 H3466 0.950 . S
C3486 C3485 1.414 . S
C3486 C3487 1.374 . S
C3487 H3467 0.950 . S
C3487 C3483 1.385 . S
C3487 C3486 1.374 . S
C3488 C3485 1.499 . S
C3488 C3489 1.373 . S
C3488 C3490 1.389 . S
C3489 H3468 0.950 1_556 S
C3489 C3488 1.373 . S
C3489 C3505 1.377 . S
C3490 C3488 1.389 . S
C3490 C3491 1.524 . S
C3490 C3504 1.377 . S
C3491 C3490 1.524 . S
C3491 C3492 1.397 . S
C3491 C3496 1.363 . S
C3492 H3469 0.950 . S
C3492 C3491 1.397 . S
C3492 C3493 1.334 . S
C3493 H3470 0.950 . S
C3493 C3492 1.334 . S
C3493 C3494 1.287 . S
C3494 C3493 1.287 . S
C3494 C3495 1.524 . S
C3494 H3513 0.913 . S
C3495 H3471 0.950 . S
C3495 C3494 1.524 . S
C3495 C3496 1.415 . S
C3496 H3472 0.950 . S
C3496 C3491 1.363 . S
C3496 C3495 1.415 . S
C3497 H3473 0.951 1_556 S
C3497 C3498 1.366 . S
C3497 C3499 1.388 . S
C3498 C3497 1.366 . S
C3498 C3502 1.385 . S
C3499 H3474 0.951 1_556 S
C3499 C3497 1.388 . S
C3499 C3500 1.366 . S
C3500 C3499 1.366 . S
C3500 C3501 1.414 . S
C3500 C3503 1.499 . S
C3501 H3475 0.950 . S
C3501 C3500 1.414 . S
C3501 C3502 1.374 . S
C3502 H3476 0.950 . S
C3502 C3498 1.385 . S
C3502 C3501 1.374 . S
C3503 C3500 1.499 . S
C3503 C3504 1.373 . S
C3503 C3505 1.389 . S
C3504 H3477 0.950 . S
C3504 C3490 1.377 . S
C3504 C3503 1.373 . S
C3505 C3489 1.377 . S
C3505 C3503 1.389 . S
C3505 C3506 1.524 1_556 S
C3506 C3505 1.524 1_554 S
C3506 C3507 1.397 . S
C3506 C3511 1.363 . S
C3507 H3478 0.950 . S
C3507 C3506 1.397 . S
C3507 C3508 1.334 . S
C3508 H3479 0.950 . S
C3508 C3507 1.334 . S
C3508 C3509 1.287 . S
C3509 C3508 1.287 . S
C3509 C3510 1.524 . S
C3509 H3512 0.999 . S
C3510 H3480 0.950 . S
C3510 C3509 1.524 . S
C3510 C3511 1.415 . S
C3511 H3481 0.950 . S
C3511 C3506 1.363 . S
C3511 C3510 1.415 . S
H3512 C3509 0.999 . S
H3513 C3494 0.913 . S
H3514 C3532 0.951 . S
H3515 C3534 0.951 . S
H3516 C3536 0.950 . S
H3517 C3537 0.950 . S
H3518 C3539 0.950 . S
H3519 C3542 0.950 . S
H3520 C3543 0.950 . S
H3521 C3545 0.950 . S
H3522 C3546 0.950 . S
H3523 C3547 0.951 . S
H3524 C3549 0.951 . S
H3525 C3551 0.950 . S
H3526 C3552 0.950 . S
H3527 C3554 0.950 . S
H3528 C3557 0.950 . S
H3529 C3558 0.950 . S
H3530 C3560 0.950 . S
H3531 C3561 0.950 . S
C3532 H3514 0.951 . S
C3532 C3533 1.366 . S
C3532 C3534 1.388 . S
C3533 C3532 1.366 . S
C3533 C3537 1.385 . S
C3534 H3515 0.951 . S
C3534 C3532 1.388 . S
C3534 C3535 1.366 . S
C3535 C3534 1.366 . S
C3535 C3536 1.414 . S
C3535 C3538 1.499 . S
C3536 H3516 0.950 . S
C3536 C3535 1.414 . S
C3536 C3537 1.374 . S
C3537 H3517 0.950 . S
C3537 C3533 1.385 . S
C3537 C3536 1.374 . S
C3538 C3535 1.499 . S
C3538 C3539 1.373 . S
C3538 C3540 1.389 . S
C3539 H3518 0.950 . S
C3539 C3538 1.373 . S
C3539 C3555 1.377 . S
C3540 C3538 1.389 . S
C3540 C3541 1.524 . S
C3540 C3554 1.377 . S
C3541 C3540 1.524 . S
C3541 C3542 1.397 . S
C3541 C3546 1.363 . S
C3542 H3519 0.950 . S
C3542 C3541 1.397 . S
C3542 C3543 1.334 . S
C3543 H3520 0.950 . S
C3543 C3542 1.334 . S
C3543 C3544 1.287 . S
C3544 C3543 1.287 . S
C3544 C3545 1.524 . S
C3544 H3563 0.913 . S
C3545 H3521 0.950 . S
C3545 C3544 1.524 . S
C3545 C3546 1.415 . S
C3546 H3522 0.950 . S
C3546 C3541 1.363 . S
C3546 C3545 1.415 . S
C3547 H3523 0.951 . S
C3547 C3548 1.366 . S
C3547 C3549 1.388 . S
C3548 C3547 1.366 . S
C3548 C3552 1.385 . S
C3549 H3524 0.951 . S
C3549 C3547 1.388 . S
C3549 C3550 1.366 . S
C3550 C3549 1.366 . S
C3550 C3551 1.414 . S
C3550 C3553 1.499 . S
C3551 H3525 0.950 . S
C3551 C3550 1.414 . S
C3551 C3552 1.374 . S
C3552 H3526 0.950 . S
C3552 C3548 1.385 . S
C3552 C3551 1.374 . S
C3553 C3550 1.499 . S
C3553 C3554 1.373 . S
C3553 C3555 1.389 . S
C3554 H3527 0.950 . S
C3554 C3540 1.377 . S
C3554 C3553 1.373 . S
C3555 C3539 1.377 . S
C3555 C3553 1.389 . S
C3555 C3556 1.524 . S
C3556 C3555 1.524 . S
C3556 C3557 1.397 . S
C3556 C3561 1.363 . S
C3557 H3528 0.950 . S
C3557 C3556 1.397 . S
C3557 C3558 1.334 . S
C3558 H3529 0.950 . S
C3558 C3557 1.334 . S
C3558 C3559 1.287 . S
C3559 C3558 1.287 . S
C3559 C3560 1.524 . S
C3559 H3562 0.999 . S
C3560 H3530 0.950 . S
C3560 C3559 1.524 . S
C3560 C3561 1.415 . S
C3561 H3531 0.950 . S
C3561 C3556 1.363 . S
C3561 C3560 1.415 . S
H3562 C3559 0.999 . S
H3563 C3544 0.913 . S
H3564 C3582 0.951 . S
H3565 C3584 0.951 . S
H3566 C3586 0.950 . S
H3567 C3587 0.950 . S
H3568 C3589 0.950 . S
H3569 C3592 0.950 . S
H3570 C3593 0.990 . S
H3571 C3595 0.950 . S
H3572 C3596 0.950 . S
H3573 C3597 0.951 1_556 S
H3574 C3599 0.951 . S
H3575 C3601 0.950 . S
H3576 C3602 0.950 . S
H3577 C3604 0.950 . S
H3578 C3607 0.950 . S
H3579 C3608 0.950 . S
H3580 C3610 0.950 . S
H3581 C3611 0.950 . S
C3582 H3564 0.951 . S
C3582 C3583 1.366 . S
C3582 C3584 1.388 . S
C3583 C3582 1.366 . S
C3583 C3587 1.385 . S
C3584 H3565 0.951 . S
C3584 C3582 1.388 . S
C3584 C3585 1.366 . S
C3585 C3584 1.366 . S
C3585 C3586 1.414 . S
C3585 C3588 1.499 . S
C3586 H3566 0.950 . S
C3586 C3585 1.414 . S
C3586 C3587 1.374 . S
C3587 H3567 0.950 . S
C3587 C3583 1.385 . S
C3587 C3586 1.374 . S
C3588 C3585 1.499 . S
C3588 C3589 1.373 . S
C3588 C3590 1.389 . S
C3589 H3568 0.950 . S
C3589 C3588 1.373 . S
C3589 C3605 1.377 . S
C3590 C3588 1.389 . S
C3590 C3591 1.524 . S
C3590 C3604 1.377 . S
C3591 C3590 1.524 . S
C3591 C3592 1.397 . S
C3591 C3596 1.363 . S
C3592 H3569 0.950 . S
C3592 C3591 1.397 . S
C3592 C3593 1.334 . S
C3593 H3570 0.990 . S
C3593 C3592 1.334 . S
C3593 C3594 1.287 . S
C3594 C3593 1.287 . S
C3594 C3595 1.524 . S
C3594 H3613 0.913 . S
C3595 H3571 0.950 . S
C3595 C3594 1.524 . S
C3595 C3596 1.415 . S
C3596 H3572 0.950 . S
C3596 C3591 1.363 . S
C3596 C3595 1.415 . S
C3597 H3573 0.951 1_554 S
C3597 C3598 1.366 . S
C3597 C3599 1.388 . S
C3598 C3597 1.366 . S
C3598 C3602 1.385 . S
C3599 H3574 0.951 . S
C3599 C3597 1.388 . S
C3599 C3600 1.366 . S
C3600 C3599 1.366 . S
C3600 C3601 1.414 . S
C3600 C3603 1.499 . S
C3601 H3575 0.950 . S
C3601 C3600 1.414 . S
C3601 C3602 1.374 . S
C3602 H3576 0.950 . S
C3602 C3598 1.385 . S
C3602 C3601 1.374 . S
C3603 C3600 1.499 . S
C3603 C3604 1.373 . S
C3603 C3605 1.389 . S
C3604 H3577 0.950 . S
C3604 C3590 1.377 . S
C3604 C3603 1.373 . S
C3605 C3589 1.377 . S
C3605 C3603 1.389 . S
C3605 C3606 1.524 . S
C3606 C3605 1.524 . S
C3606 C3607 1.397 . S
C3606 C3611 1.363 . S
C3607 H3578 0.950 . S
C3607 C3606 1.397 . S
C3607 C3608 1.334 . S
C3608 H3579 0.950 . S
C3608 C3607 1.334 . S
C3608 C3609 1.287 . S
C3609 C3608 1.287 . S
C3609 C3610 1.524 . S
C3609 H3612 0.999 . S
C3610 H3580 0.950 . S
C3610 C3609 1.524 . S
C3610 C3611 1.415 . S
C3611 H3581 0.950 . S
C3611 C3606 1.363 . S
C3611 C3610 1.415 . S
H3612 C3609 0.999 . S
H3613 C3594 0.913 . S
H3614 C3632 0.951 . S
H3615 C3634 0.951 1_545 S
H3616 C3636 0.950 . S
H3617 C3637 0.950 . S
H3618 C3639 0.950 . S
H3619 C3642 0.950 . S
H3620 C3643 0.950 1_556 S
H3621 C3645 0.950 . S
H3622 C3646 0.950 . S
H3623 C3647 0.951 . S
H3624 C3649 0.951 . S
H3625 C3651 0.950 . S
H3626 C3652 0.950 . S
H3627 C3654 0.950 . S
H3628 C3657 0.950 . S
H3629 C3658 0.950 . S
H3630 C3660 0.950 . S
H3631 C3661 0.950 . S
C3632 H3614 0.951 . S
C3632 C3633 1.366 1_545 S
C3632 C3634 1.388 1_545 S
C3633 C3632 1.366 1_565 S
C3633 C3637 1.385 . S
C3634 H3615 0.951 1_565 S
C3634 C3632 1.388 1_565 S
C3634 C3635 1.366 . S
C3635 C3634 1.366 . S
C3635 C3636 1.414 . S
C3635 C3638 1.499 . S
C3636 H3616 0.950 . S
C3636 C3635 1.414 . S
C3636 C3637 1.374 . S
C3637 H3617 0.950 . S
C3637 C3633 1.385 . S
C3637 C3636 1.374 . S
C3638 C3635 1.499 . S
C3638 C3639 1.373 . S
C3638 C3640 1.389 . S
C3639 H3618 0.950 . S
C3639 C3638 1.373 . S
C3639 C3655 1.377 . S
C3640 C3638 1.389 . S
C3640 C3641 1.524 . S
C3640 C3654 1.377 . S
C3641 C3640 1.524 . S
C3641 C3642 1.397 . S
C3641 C3646 1.363 1_565 S
C3642 H3619 0.950 . S
C3642 C3641 1.397 . S
C3642 C3643 1.334 1_565 S
C3643 H3620 0.950 1_554 S
C3643 C3642 1.334 1_545 S
C3643 C3644 1.287 . S
C3644 C3643 1.287 . S
C3644 C3645 1.524 . S
C3644 H3663 0.913 . S
C3645 H3621 0.950 . S
C3645 C3644 1.524 . S
C3645 C3646 1.415 . S
C3646 H3622 0.950 . S
C3646 C3641 1.363 1_545 S
C3646 C3645 1.415 . S
C3647 H3623 0.951 . S
C3647 C3648 1.366 . S
C3647 C3649 1.388 . S
C3648 C3647 1.366 . S
C3648 C3652 1.385 . S
C3649 H3624 0.951 . S
C3649 C3647 1.388 . S
C3649 C3650 1.366 . S
C3650 C3649 1.366 . S
C3650 C3651 1.414 . S
C3650 C3653 1.499 . S
C3651 H3625 0.950 . S
C3651 C3650 1.414 . S
C3651 C3652 1.374 . S
C3652 H3626 0.950 . S
C3652 C3648 1.385 . S
C3652 C3651 1.374 . S
C3653 C3650 1.499 . S
C3653 C3654 1.373 . S
C3653 C3655 1.389 . S
C3654 H3627 0.950 . S
C3654 C3640 1.377 . S
C3654 C3653 1.373 . S
C3655 C3639 1.377 . S
C3655 C3653 1.389 . S
C3655 C3656 1.524 . S
C3656 C3655 1.524 . S
C3656 C3657 1.397 . S
C3656 C3661 1.363 . S
C3657 H3628 0.950 . S
C3657 C3656 1.397 . S
C3657 C3658 1.334 . S
C3658 H3629 0.950 . S
C3658 C3657 1.334 . S
C3658 C3659 1.287 . S
C3659 C3658 1.287 . S
C3659 C3660 1.524 . S
C3659 H3662 0.999 . S
C3660 H3630 0.950 . S
C3660 C3659 1.524 . S
C3660 C3661 1.415 . S
C3661 H3631 0.950 . S
C3661 C3656 1.363 . S
C3661 C3660 1.415 . S
H3662 C3659 0.999 . S
H3663 C3644 0.913 . S
C1298 C257 1.184 . S
C1283 N66 1.168 . S
C1348 C316 1.599 . S
C1333 N79 1.586 . S
C1383 N92 1.909 . S
C1398 C433 1.937 . S
C1448 C501 1.290 . S
C1433 N54 1.293 . S
C1498 C580 1.561 . S
C1483 N131 1.556 . S
C1548 C705 1.059 . S
C1533 N158 1.056 . S
C1583 N145 1.559 . S
C1598 C765 1.561 . S
C1648 C873 1.907 . S
C1633 N118 1.886 . S
C1683 N148 2.140 . S
C1698 C969 2.139 . S
C1748 C1029 1.639 . S
C1733 N122 1.622 . S
C1783 N132 1.152 . S
C1798 C932 1.151 . S
C1848 C1049 1.492 . S
C1833 N161 1.462 . S
C1883 N96 2.023 . S
C1898 C1117 2.059 . S
C1933 N53 1.836 . S
C1948 C1108 1.860 . S
C1983 N67 0.872 . S
C1998 C1137 0.873 . S
C2033 N83 1.265 . S
C2048 C1145 1.278 . S
C2083 N44 1.433 . S
C2098 C529 1.452 . S
C2133 N187 1.529 . S
C2148 C492 1.538 . S
C2198 C228 1.052 . S
C2183 N197 1.051 . S
C2248 C325 1.183 . S
C2233 N106 1.183 . S
C2283 N57 1.948 1_545 S
C2298 C589 1.968 . S
C2348 C881 1.398 . S
C2333 N144 1.381 . S
C2398 C609 1.325 . S
C2383 N119 1.330 . S
C2448 C793 1.934 . S
C2433 N157 1.896 . S
C2498 C785 1.184 . S
C2483 N183 1.167 . S
C2533 N196 1.586 . S
C2548 C853 1.599 . S
C2583 N105 1.910 . S
C2598 C617 1.937 . S
C2648 C668 1.290 . S
C2633 N171 1.293 . S
C2683 N40 1.556 . S
C2698 C413 1.561 . S
C2748 C521 1.059 . S
C2733 N2 1.055 1_655 S
C2798 C237 1.560 . S
C2783 N15 1.559 . S
C2848 C353 1.907 . S
C2833 N27 1.886 . S
C2883 N18 2.140 . S
C2898 C1057 2.139 . S
C2933 N31 1.622 . S
C2948 C941 1.638 . S
C2983 N41 1.152 . S
C2998 C1020 1.151 . S
C3033 N5 1.462 . S
C3048 C961 1.492 . S
C3098 C1205 2.059 . S
C3083 N109 2.022 . S
C3148 C1196 1.860 . S
C3133 N170 1.836 . S
C3198 C1225 0.873 . S
C3183 N184 0.872 . S
C3233 N200 1.266 . S
C3248 C1233 1.278 . S
C3283 N135 1.432 . S
C3298 C697 1.451 . S
C3348 C677 1.538 . S
C3333 N70 1.530 . S
C3398 C756 1.048 . S
C3383 N80 1.051 . S
C3448 C844 1.183 . S
C3433 N93 1.183 . S
C3483 N174 1.948 . S
C3498 C404 1.969 . S
C3548 C345 1.398 . S
C3533 N14 1.380 . S
C3583 N28 1.330 . S
C3598 C441 1.325 . S
C3648 C265 1.934 . S
C3633 N1 1.895 1_565 S
