# Generated by pormake.
# Topology pyr, (3,6)-cn, num edge types: 1
# Building blocks:
#     Node 0, Type 0, BuildingBlock: KAKCAD_clean_linker_0, # of connection points: 3
#     Node 1, Type 0, BuildingBlock: KAKCAD_clean_linker_0, # of connection points: 3
#     Node 2, Type 0, BuildingBlock: KAKCAD_clean_linker_0, # of connection points: 3
#     Node 3, Type 0, BuildingBlock: KAKCAD_clean_linker_0, # of connection points: 3
#     Node 4, Type 0, BuildingBlock: KAKCAD_clean_linker_0, # of connection points: 3
#     Node 5, Type 0, BuildingBlock: KAKCAD_clean_linker_0, # of connection points: 3
#     Node 6, Type 0, BuildingBlock: KAKCAD_clean_linker_0, # of connection points: 3
#     Node 7, Type 0, BuildingBlock: KAKCAD_clean_linker_0, # of connection points: 3
#     Node 8, Type 1, BuildingBlock: BETFAJ_clean_sbu_0, # of connection points: 6
#     Node 9, Type 1, BuildingBlock: BETFAJ_clean_sbu_0, # of connection points: 6
#     Node 10, Type 1, BuildingBlock: BETFAJ_clean_sbu_0, # of connection points: 6
#     Node 11, Type 1, BuildingBlock: BETFAJ_clean_sbu_0, # of connection points: 6
#     Edge 12, Type (0, 1), BuildingBlock: KIFKEQ_clean_linker_1, # of connection points: 2
#     Edge 13, Type (0, 1), BuildingBlock: KIFKEQ_clean_linker_1, # of connection points: 2
#     Edge 14, Type (0, 1), BuildingBlock: KIFKEQ_clean_linker_1, # of connection points: 2
#     Edge 15, Type (0, 1), BuildingBlock: KIFKEQ_clean_linker_1, # of connection points: 2
#     Edge 16, Type (0, 1), BuildingBlock: KIFKEQ_clean_linker_1, # of connection points: 2
#     Edge 17, Type (0, 1), BuildingBlock: KIFKEQ_clean_linker_1, # of connection points: 2
#     Edge 18, Type (0, 1), BuildingBlock: KIFKEQ_clean_linker_1, # of connection points: 2
#     Edge 19, Type (0, 1), BuildingBlock: KIFKEQ_clean_linker_1, # of connection points: 2
#     Edge 20, Type (0, 1), BuildingBlock: KIFKEQ_clean_linker_1, # of connection points: 2
#     Edge 21, Type (0, 1), BuildingBlock: KIFKEQ_clean_linker_1, # of connection points: 2
#     Edge 22, Type (0, 1), BuildingBlock: KIFKEQ_clean_linker_1, # of connection points: 2
#     Edge 23, Type (0, 1), BuildingBlock: KIFKEQ_clean_linker_1, # of connection points: 2
#     Edge 24, Type (0, 1), BuildingBlock: KIFKEQ_clean_linker_1, # of connection points: 2
#     Edge 25, Type (0, 1), BuildingBlock: KIFKEQ_clean_linker_1, # of connection points: 2
#     Edge 26, Type (0, 1), BuildingBlock: KIFKEQ_clean_linker_1, # of connection points: 2
#     Edge 27, Type (0, 1), BuildingBlock: KIFKEQ_clean_linker_1, # of connection points: 2
#     Edge 28, Type (0, 1), BuildingBlock: KIFKEQ_clean_linker_1, # of connection points: 2
#     Edge 29, Type (0, 1), BuildingBlock: KIFKEQ_clean_linker_1, # of connection points: 2
#     Edge 30, Type (0, 1), BuildingBlock: KIFKEQ_clean_linker_1, # of connection points: 2
#     Edge 31, Type (0, 1), BuildingBlock: KIFKEQ_clean_linker_1, # of connection points: 2
#     Edge 32, Type (0, 1), BuildingBlock: KIFKEQ_clean_linker_1, # of connection points: 2
#     Edge 33, Type (0, 1), BuildingBlock: KIFKEQ_clean_linker_1, # of connection points: 2
#     Edge 34, Type (0, 1), BuildingBlock: KIFKEQ_clean_linker_1, # of connection points: 2
#     Edge 35, Type (0, 1), BuildingBlock: KIFKEQ_clean_linker_1, # of connection points: 2
# Relax obj value: 0.091
# Max RMSD: 0.119
# Mean RMSD: 0.057
data_MOF--net-pyr--node1-BETFAJ_clean_sbu_0--node2-KAKCAD_clean_linker_0--edge1-KIFKEQ_clean_linker_1
_symmetry_space_group_name_H-M    P1
_symmetry_Int_Tables_number       1
_symmetry_cell_setting            triclinic
loop_
_symmetry_equiv_pos_as_xyz
'x, y, z'
_cell_length_a     47.031643
_cell_length_b     49.770685
_cell_length_c     45.401151
_cell_angle_alpha  91.432607
_cell_angle_beta   88.775179
_cell_angle_gamma 100.18607
loop_
_atom_site_label
_atom_site_type_symbol
_atom_site_fract_x
_atom_site_fract_y
_atom_site_fract_z
_atom_type_partial_charge
C0 C 0.24464 0.25625 0.27972 0.0
C1 C 0.25151 0.24299 0.3048 0.0
C2 C 0.26642 0.27004 0.26168 0.0
C3 C 0.29565 0.27092 0.26826 0.0
C4 C 0.30263 0.25812 0.2937 0.0
C5 C 0.28068 0.24442 0.31201 0.0
C6 C 0.31822 0.28354 0.24709 0.0
C7 C 0.31542 0.30797 0.23373 0.0
C8 C 0.33159 0.31677 0.20836 0.0
C9 C 0.3518 0.30136 0.197 0.0
C10 C 0.35604 0.2776 0.21123 0.0
C11 C 0.33937 0.26898 0.23643 0.0
C12 C 0.37441 0.25932 0.19758 0.0
C13 C 0.36894 0.24911 0.16877 0.0
C14 C 0.39505 0.24947 0.21428 0.0
C15 C 0.40943 0.22918 0.20258 0.0
C16 C 0.40283 0.21807 0.17433 0.0
C17 C 0.32303 0.33915 0.19162 0.0
C18 C 0.31408 0.33435 0.16236 0.0
C19 C 0.31783 0.36292 0.20655 0.0
C20 C 0.30132 0.38 0.19361 0.0
C21 C 0.2897 0.37361 0.16552 0.0
C22 C 0.29752 0.35145 0.1494 0.0
C23 C 0.38284 0.22846 0.15734 0.0
H24 H 0.22233 0.25563 0.27381 0.0
H25 H 0.2603 0.27925 0.24195 0.0
H26 H 0.32499 0.25845 0.29921 0.0
H27 H 0.28647 0.23422 0.33121 0.0
H28 H 0.29875 0.31899 0.24171 0.0
H29 H 0.34105 0.24961 0.24605 0.0
H30 H 0.36357 0.30738 0.17675 0.0
H31 H 0.35283 0.25612 0.15564 0.0
H32 H 0.39945 0.25697 0.23662 0.0
H33 H 0.42472 0.22132 0.21604 0.0
H34 H 0.31756 0.31604 0.15044 0.0
H35 H 0.32472 0.36717 0.22907 0.0
H36 H 0.37749 0.22011 0.13548 0.0
H37 H 0.28884 0.34593 0.12774 0.0
H38 H 0.29615 0.39727 0.20632 0.0
C39 C 0.33695 0.88012 0.7 0.0
C40 C 0.36473 0.88425 0.71192 0.0
C41 C 0.33338 0.883 0.66989 0.0
C42 C 0.35752 0.89013 0.65107 0.0
C43 C 0.38534 0.89279 0.66273 0.0
C44 C 0.38891 0.88988 0.69289 0.0
C45 C 0.35362 0.89608 0.61973 0.0
C46 C 0.33269 0.91136 0.61205 0.0
C47 C 0.32818 0.9166 0.58249 0.0
C48 C 0.34535 0.90703 0.56034 0.0
C49 C 0.36629 0.89144 0.56755 0.0
C50 C 0.37032 0.8862 0.5974 0.0
C51 C 0.38181 0.87797 0.54423 0.0
C52 C 0.36712 0.86566 0.51933 0.0
C53 C 0.41027 0.87418 0.54861 0.0
C54 C 0.4224 0.85581 0.53082 0.0
C55 C 0.40653 0.84113 0.50781 0.0
C56 C 0.30392 0.93019 0.5749 0.0
C57 C 0.27644 0.92102 0.58733 0.0
C58 C 0.30781 0.95203 0.55536 0.0
C59 C 0.28452 0.96467 0.54862 0.0
C60 C 0.25701 0.95529 0.56095 0.0
C61 C 0.25322 0.9334 0.58036 0.0
C62 C 0.37951 0.84766 0.50112 0.0
H63 H 0.31794 0.87535 0.7141 0.0
H64 H 0.31167 0.88016 0.66141 0.0
H65 H 0.40433 0.89836 0.64878 0.0
H66 H 0.41059 0.89346 0.70149 0.0
H67 H 0.31977 0.91926 0.62916 0.0
H68 H 0.38549 0.87327 0.60329 0.0
H69 H 0.34163 0.91088 0.53748 0.0
H70 H 0.34521 0.86823 0.5151 0.0
H71 H 0.42253 0.88402 0.56705 0.0
H72 H 0.44325 0.85154 0.5369 0.0
H73 H 0.27284 0.90404 0.60224 0.0
H74 H 0.32886 0.95945 0.5456 0.0
H75 H 0.36699 0.83745 0.48305 0.0
H76 H 0.23227 0.92596 0.59037 0.0
H77 H 0.28788 0.98148 0.5335 0.0
C78 C 0.75074 0.43048 0.8942 0.0
C79 C 0.77048 0.41495 0.90503 0.0
C80 C 0.72505 0.41785 0.88043 0.0
C81 C 0.71813 0.3892 0.87694 0.0
C82 C 0.73811 0.37375 0.88739 0.0
C83 C 0.7637 0.38635 0.90119 0.0
C84 C 0.69016 0.37533 0.86302 0.0
C85 C 0.67822 0.38687 0.83907 0.0
C86 C 0.65205 0.374 0.82588 0.0
C87 C 0.63831 0.34833 0.83699 0.0
C88 C 0.64985 0.33597 0.86089 0.0
C89 C 0.6754 0.35025 0.87383 0.0
C90 C 0.63569 0.30832 0.87283 0.0
C91 C 0.60554 0.29908 0.87231 0.0
C92 C 0.65244 0.29094 0.88576 0.0
C93 C 0.63969 0.2661 0.89849 0.0
C94 C 0.60953 0.25688 0.89833 0.0
C95 C 0.63948 0.38756 0.80056 0.0
C96 C 0.64353 0.41629 0.79868 0.0
C97 C 0.62361 0.37225 0.77781 0.0
C98 C 0.61247 0.3851 0.75426 0.0
C99 C 0.61681 0.41387 0.75227 0.0
C100 C 0.63267 0.4291 0.77507 0.0
C101 C 0.59277 0.27387 0.88461 0.0
H102 H 0.75479 0.45249 0.89692 0.0
H103 H 0.71027 0.4306 0.87311 0.0
H104 H 0.73417 0.35174 0.88467 0.0
H105 H 0.77841 0.37354 0.90852 0.0
H106 H 0.68988 0.40571 0.83017 0.0
H107 H 0.6837 0.3421 0.89309 0.0
H108 H 0.61857 0.33797 0.82705 0.0
H109 H 0.59153 0.31151 0.86286 0.0
H110 H 0.67574 0.29641 0.88616 0.0
H111 H 0.65384 0.25443 0.90895 0.0
H112 H 0.65502 0.42921 0.81567 0.0
H113 H 0.62002 0.35017 0.77782 0.0
H114 H 0.56959 0.26779 0.88316 0.0
H115 H 0.63718 0.45117 0.77468 0.0
H116 H 0.60016 0.37226 0.73773 0.0
C117 C 0.87914 0.6386 0.25708 0.0
C118 C 0.90908 0.63836 0.25552 0.0
C119 C 0.86668 0.65107 0.28113 0.0
C120 C 0.88375 0.66412 0.3043 0.0
C121 C 0.91374 0.66426 0.30251 0.0
C122 C 0.92614 0.65143 0.27869 0.0
C123 C 0.87031 0.67713 0.33033 0.0
C124 C 0.84416 0.66381 0.34345 0.0
C125 C 0.83162 0.6753 0.36824 0.0
C126 C 0.84538 0.70091 0.37938 0.0
C127 C 0.87117 0.71513 0.36663 0.0
C128 C 0.88361 0.70276 0.3423 0.0
C129 C 0.88467 0.74287 0.37901 0.0
C130 C 0.8672 0.76138 0.38979 0.0
C131 C 0.91487 0.75091 0.38108 0.0
C132 C 0.92706 0.77627 0.39408 0.0
C133 C 0.90947 0.79442 0.40552 0.0
C134 C 0.8043 0.66073 0.38292 0.0
C135 C 0.78083 0.64711 0.36638 0.0
C136 C 0.80114 0.66104 0.41387 0.0
C137 C 0.77538 0.64855 0.42779 0.0
C138 C 0.75171 0.63528 0.41131 0.0
C139 C 0.75492 0.6347 0.38033 0.0
C140 C 0.87934 0.78658 0.40286 0.0
H141 H 0.86515 0.62864 0.23992 0.0
H142 H 0.84358 0.65064 0.28144 0.0
H143 H 0.92767 0.67387 0.31989 0.0
H144 H 0.94926 0.65195 0.27832 0.0
H145 H 0.83404 0.64396 0.33495 0.0
H146 H 0.90324 0.71346 0.33205 0.0
H147 H 0.83583 0.70989 0.39827 0.0
H148 H 0.84393 0.75651 0.38803 0.0
H149 H 0.92917 0.73731 0.37336 0.0
H150 H 0.95033 0.78132 0.39583 0.0
H151 H 0.78224 0.64651 0.34254 0.0
H152 H 0.81871 0.67094 0.42752 0.0
H153 H 0.86497 0.80008 0.41067 0.0
H154 H 0.73744 0.62448 0.36677 0.0
H155 H 0.77389 0.64981 0.45159 0.0
C156 C 0.75435 0.78698 0.72752 0.0
C157 C 0.76332 0.81462 0.72109 0.0
C158 C 0.73508 0.77942 0.75099 0.0
C159 C 0.72515 0.79945 0.76899 0.0
C160 C 0.73306 0.82703 0.76132 0.0
C161 C 0.75171 0.83448 0.73749 0.0
C162 C 0.70983 0.79218 0.79756 0.0
C163 C 0.71772 0.77166 0.81471 0.0
C164 C 0.70743 0.76762 0.84378 0.0
C165 C 0.68872 0.78422 0.85587 0.0
C166 C 0.68039 0.80469 0.83898 0.0
C167 C 0.69045 0.80809 0.80974 0.0
C168 C 0.66397 0.82464 0.85265 0.0
C169 C 0.63762 0.81607 0.86755 0.0
C170 C 0.67503 0.85267 0.851 0.0
C171 C 0.66009 0.87184 0.864 0.0
C172 C 0.63342 0.86349 0.87861 0.0
C173 C 0.71993 0.7487 0.86222 0.0
C174 C 0.72136 0.72219 0.85175 0.0
C175 C 0.73432 0.75841 0.88816 0.0
C176 C 0.75149 0.74259 0.90225 0.0
C177 C 0.75437 0.71662 0.89082 0.0
C178 C 0.73823 0.70623 0.86602 0.0
C179 C 0.62234 0.83531 0.88017 0.0
H180 H 0.76296 0.77133 0.715 0.0
H181 H 0.72894 0.75794 0.75573 0.0
H182 H 0.72648 0.84319 0.77477 0.0
H183 H 0.75863 0.85598 0.73317 0.0
H184 H 0.73379 0.76013 0.80638 0.0
H185 H 0.68388 0.82392 0.79687 0.0
H186 H 0.68173 0.78202 0.87873 0.0
H187 H 0.62866 0.79453 0.86901 0.0
H188 H 0.69559 0.85976 0.84004 0.0
H189 H 0.66977 0.89322 0.86295 0.0
H190 H 0.71031 0.71424 0.83183 0.0
H191 H 0.73389 0.77895 0.89643 0.0
H192 H 0.60171 0.82805 0.89085 0.0
H193 H 0.73935 0.68608 0.85703 0.0
H194 H 0.7638 0.75145 0.92107 0.0
C195 C 0.63923 0.09284 0.4035 0.0
C196 C 0.63536 0.10893 0.37939 0.0
C197 C 0.65262 0.10492 0.42897 0.0
C198 C 0.66247 0.13328 0.43072 0.0
C199 C 0.65795 0.14934 0.40681 0.0
C200 C 0.64451 0.13732 0.38152 0.0
C201 C 0.67918 0.1461 0.45636 0.0
C202 C 0.7008 0.13371 0.46834 0.0
C203 C 0.71935 0.14747 0.48983 0.0
C204 C 0.71572 0.17358 0.49982 0.0
C205 C 0.69446 0.18627 0.48788 0.0
C206 C 0.67587 0.17222 0.46668 0.0
C207 C 0.69379 0.21527 0.495 0.0
C208 C 0.69482 0.22513 0.5243 0.0
C209 C 0.693 0.23349 0.47207 0.0
C210 C 0.69261 0.26094 0.47826 0.0
C211 C 0.69294 0.27079 0.50753 0.0
C212 C 0.7445 0.13597 0.49932 0.0
C213 C 0.74166 0.10824 0.50612 0.0
C214 C 0.77191 0.15261 0.50033 0.0
C215 C 0.79604 0.14176 0.50783 0.0
C216 C 0.7933 0.11401 0.51447 0.0
C217 C 0.76586 0.09735 0.51367 0.0
C218 C 0.69418 0.25268 0.53054 0.0
H219 H 0.63219 0.07091 0.40253 0.0
H220 H 0.65555 0.09204 0.44714 0.0
H221 H 0.66586 0.17114 0.40708 0.0
H222 H 0.64241 0.15022 0.36311 0.0
H223 H 0.70454 0.11418 0.45951 0.0
H224 H 0.6593 0.18204 0.45759 0.0
H225 H 0.7304 0.1846 0.51587 0.0
H226 H 0.69557 0.21144 0.54234 0.0
H227 H 0.69272 0.22651 0.44927 0.0
H228 H 0.69114 0.27429 0.46008 0.0
H229 H 0.72073 0.09502 0.50563 0.0
H230 H 0.77489 0.17392 0.49451 0.0
H231 H 0.6944 0.25978 0.5533 0.0
H232 H 0.76309 0.07594 0.51898 0.0
H233 H 0.81697 0.15498 0.50767 0.0
C234 C 0.25759 0.64943 0.18733 0.0
C235 C 0.25441 0.6501 0.15651 0.0
C236 C 0.28321 0.66234 0.201 0.0
C237 C 0.3066 0.67643 0.18438 0.0
C238 C 0.30355 0.67672 0.15355 0.0
C239 C 0.27799 0.66384 0.1399 0.0
C240 C 0.3337 0.69133 0.19899 0.0
C241 C 0.34548 0.68048 0.22352 0.0
C242 C 0.37071 0.69445 0.23761 0.0
C243 C 0.38428 0.71997 0.22601 0.0
C244 C 0.37328 0.73115 0.20106 0.0
C245 C 0.34786 0.71663 0.18824 0.0
C246 C 0.38794 0.75781 0.18773 0.0
C247 C 0.39922 0.78091 0.20522 0.0
C248 C 0.38965 0.76066 0.15686 0.0
C249 C 0.40169 0.7856 0.14396 0.0
C250 C 0.41259 0.80888 0.16132 0.0
C251 C 0.38276 0.68197 0.26399 0.0
C252 C 0.3644 0.66484 0.2835 0.0
C253 C 0.41267 0.68641 0.26982 0.0
C254 C 0.42366 0.67403 0.29378 0.0
C255 C 0.40527 0.65643 0.31273 0.0
C256 C 0.37542 0.6522 0.30714 0.0
C257 C 0.41118 0.80604 0.19225 0.0
H258 H 0.23999 0.63944 0.20111 0.0
H259 H 0.28437 0.66183 0.22477 0.0
H260 H 0.32111 0.68677 0.13975 0.0
H261 H 0.27691 0.66444 0.11614 0.0
H262 H 0.33528 0.66058 0.23107 0.0
H263 H 0.3386 0.7255 0.16998 0.0
H264 H 0.40352 0.73116 0.23623 0.0
H265 H 0.39824 0.77977 0.22902 0.0
H266 H 0.38161 0.74345 0.14245 0.0
H267 H 0.40193 0.78668 0.12017 0.0
H268 H 0.34123 0.66122 0.28079 0.0
H269 H 0.42788 0.699 0.25547 0.0
H270 H 0.41955 0.82323 0.20655 0.0
H271 H 0.36035 0.6393 0.32137 0.0
H272 H 0.44678 0.67775 0.29701 0.0
C273 C 0.15104 0.27245 0.66942 0.0
C274 C 0.12102 0.26363 0.66665 0.0
C275 C 0.16236 0.29833 0.68144 0.0
C276 C 0.14419 0.31665 0.69107 0.0
C277 C 0.11412 0.30776 0.68877 0.0
C278 C 0.10275 0.28174 0.67674 0.0
C279 C 0.15687 0.34497 0.70254 0.0
C280 C 0.18265 0.3592 0.68979 0.0
C281 C 0.19602 0.38518 0.70039 0.0
C282 C 0.18267 0.39726 0.72425 0.0
C283 C 0.15649 0.38396 0.73732 0.0
C284 C 0.14379 0.35783 0.7261 0.0
C285 C 0.14267 0.39736 0.76281 0.0
C286 C 0.15944 0.41084 0.78597 0.0
C287 C 0.11267 0.39724 0.76408 0.0
C288 C 0.09998 0.41052 0.78738 0.0
C289 C 0.11676 0.42402 0.81053 0.0
C290 C 0.22387 0.39939 0.68626 0.0
C291 C 0.24491 0.38432 0.67582 0.0
C292 C 0.22952 0.42787 0.68228 0.0
C293 C 0.25498 0.44068 0.66784 0.0
C294 C 0.2756 0.42543 0.65677 0.0
C295 C 0.2702 0.39707 0.66129 0.0
C296 C 0.1467 0.42374 0.8095 0.0
H297 H 0.16607 0.25956 0.66173 0.0
H298 H 0.18558 0.30395 0.6832 0.0
H299 H 0.09929 0.32111 0.69571 0.0
H300 H 0.07952 0.27583 0.67551 0.0
H301 H 0.19211 0.35019 0.67087 0.0
H302 H 0.12416 0.34715 0.73639 0.0
H303 H 0.19267 0.41715 0.73271 0.0
H304 H 0.18254 0.41126 0.78606 0.0
H305 H 0.09898 0.38728 0.74669 0.0
H306 H 0.07687 0.41002 0.78736 0.0
H307 H 0.24195 0.36251 0.67897 0.0
H308 H 0.2139 0.44028 0.68963 0.0
H309 H 0.16048 0.434 0.82666 0.0
H310 H 0.28571 0.3846 0.65377 0.0
H311 H 0.25811 0.4625 0.66465 0.0
Sm312 Sm 0.02518 0.0419 0.507 0.0
Sm313 Sm 0.01934 1.014 0.56487 0.0
C314 C 0.02424 0.06639 0.45635 0.0
C315 C 0.04634 0.08636 0.4414 0.0
C316 C 0.03885 0.10939 0.42853 0.0
C317 C 0.0602 0.12898 0.4156 0.0
C318 C 0.08937 0.12578 0.41535 0.0
C319 C 0.09664 0.10255 0.42818 0.0
C320 C 0.07543 0.08319 0.44122 0.0
C321 C 0.07674 0.03122 0.52726 0.0
C322 C 0.04521 0.07824 0.56593 0.0
C323 C 0.01596 0.97966 0.60879 0.0
C324 C 0.99109 0.95869 0.6165 0.0
C325 C 0.99325 0.93837 0.63672 0.0
C326 C 0.96878 0.91907 0.64404 0.0
C327 C 0.94199 0.92011 0.63128 0.0
C328 C 0.94028 0.94009 0.61044 0.0
C329 C 0.96459 0.95915 0.6031 0.0
C330 C 0.97439 0.04047 0.55337 0.0
C331 C 0.99458 0.9769 0.50643 0.0
O332 O 1.01294 0.0751 0.48063 0.0
O333 O 0.03033 0.04185 0.4585 0.0
O334 O 0.05278 1.01551 0.52874 0.0
O335 O 0.07459 0.05295 0.51308 0.0
O336 O 0.03099 0.07797 0.54102 0.0
O337 O 0.04915 0.0549 0.57726 0.0
O338 O 0.0286 0.9756 0.5836 0.0
O339 O 1.01157 1.00473 0.61224 0.0
O340 O 0.98607 1.02637 0.53496 0.0
O341 O 0.98531 0.03989 0.5792 0.0
O342 O 0.99607 0.9783 0.53549 0.0
O343 O 1.00454 0.99847 0.49036 0.0
H344 H 0.01657 0.11235 0.42875 0.0
H345 H 0.0539 0.14678 0.40618 0.0
H346 H 0.11874 0.0991 0.42789 0.0
H347 H 0.08191 0.06573 0.45124 0.0
H348 H 1.01364 0.93766 0.64707 0.0
H349 H 0.97058 0.9039 0.66026 0.0
H350 H 0.92001 0.94112 0.59999 0.0
H351 H 0.9626 0.97457 0.5872 0.0
Sm352 Sm 0.53605 0.03752 0.04394 0.0
Sm353 Sm 0.48356 1.02828 1.01594 0.0
C354 C 0.58307 0.05534 0.07475 0.0
C355 C 0.58755 0.05627 0.10658 0.0
C356 C 0.61303 0.0709 0.11847 0.0
C357 C 0.61656 0.07247 0.149 0.0
C358 C 0.59461 0.05943 0.168 0.0
C359 C 0.56923 0.04453 0.1558 0.0
C360 C 0.56571 0.04304 0.12536 0.0
C361 C 0.50323 0.98791 0.06134 0.0
C362 C 0.48282 0.06485 0.07313 0.0
C363 C 0.43648 1.00741 0.98638 0.0
C364 C 0.4296 0.98769 0.96174 0.0
C365 C 0.407 0.96538 0.9649 0.0
C366 C 0.40004 0.94659 0.94165 0.0
C367 C 0.41543 0.94992 0.91468 0.0
C368 C 0.4384 0.9721 0.91183 0.0
C369 C 0.44553 0.99066 0.93516 0.0
C370 C 0.51646 0.07835 1.00006 0.0
C371 C 0.53648 1.00307 0.98611 0.0
O372 O 0.56612 0.07139 0.06556 0.0
O373 O 0.57732 1.03091 0.06284 0.0
O374 O 0.49367 1.01008 0.05925 0.0
O375 O 0.53024 0.99165 0.05377 0.0
O376 O 0.51102 0.06639 0.0708 0.0
O377 O 0.46562 0.04789 0.05612 0.0
O378 O 0.44336 0.99746 1.01101 0.0
O379 O 0.45265 1.0308 0.98033 0.0
O380 O 0.52588 0.056 1.00105 0.0
O381 O 0.48955 0.07476 1.00841 0.0
O382 O 0.50872 0.99785 0.99253 0.0
O383 O 0.55287 1.02347 0.99971 0.0
H384 H 0.62998 0.08136 0.1042 0.0
H385 H 0.63618 0.08444 0.15774 0.0
H386 H 0.55209 0.03399 0.16978 0.0
H387 H 0.54583 0.0317 0.11643 0.0
H388 H 0.39466 0.96256 0.98536 0.0
H389 H 0.38251 0.92956 0.94477 0.0
H390 H 0.45042 0.97565 0.89128 0.0
H391 H 0.46328 1.00753 0.93218 0.0
Sm392 Sm 0.51184 0.51211 0.51339 0.0
Sm393 Sm 0.51033 0.55827 0.55116 0.0
C394 C 0.52854 0.47171 0.48246 0.0
C395 C 0.55238 0.4568 0.48581 0.0
C396 C 0.57514 0.46705 0.50477 0.0
C397 C 0.59729 0.45233 0.50897 0.0
C398 C 0.59713 0.42731 0.49399 0.0
C399 C 0.57455 0.41736 0.47459 0.0
C400 C 0.55225 0.432 0.47062 0.0
C401 C 0.45882 0.50807 0.54236 0.0
C402 C 0.53651 0.51101 0.58156 0.0
C403 C 0.49481 0.60091 0.57837 0.0
C404 C 0.48427 0.62449 0.56605 0.0
C405 C 0.45632 0.62139 0.55448 0.0
C406 C 0.44749 0.64281 0.54004 0.0
C407 C 0.46634 0.66781 0.53684 0.0
C408 C 0.49411 0.67112 0.54872 0.0
C409 C 0.50295 0.64969 0.5633 0.0
C410 C 0.56327 0.56158 0.52227 0.0
C411 C 0.48475 0.55958 0.48292 0.0
O412 O 0.53621 0.49738 0.47588 0.0
O413 O 0.50837 0.46779 0.50289 0.0
O414 O 0.48321 0.51595 0.55398 0.0
O415 O 0.46202 0.50223 0.51457 0.0
O416 O 0.53927 0.50311 0.55369 0.0
O417 O 0.52233 0.53112 0.58769 0.0
O418 O 0.47763 0.57728 0.57586 0.0
O419 O 0.52182 0.59932 0.57261 0.0
O420 O 0.5388 0.5543 0.51063 0.0
O421 O 0.56023 0.56712 0.55015 0.0
O422 O 0.48715 0.57082 0.50968 0.0
O423 O 0.4939 0.53636 0.47758 0.0
H424 H 0.57574 0.48638 0.5164 0.0
H425 H 0.61454 0.4605 0.52386 0.0
H426 H 0.57375 0.39792 0.46307 0.0
H427 H 0.53478 0.42384 0.45596 0.0
H428 H 0.44136 0.60223 0.55601 0.0
H429 H 0.42599 0.63967 0.53099 0.0
H430 H 0.50889 0.69037 0.54702 0.0
H431 H 0.52459 0.65268 0.57199 0.0
Sm432 Sm 0.01762 0.50241 0.04413 0.0
Sm433 Sm 1.00674 0.5618 1.01942 0.0
C434 C 0.03936 0.45727 0.04858 0.0
C435 C 0.0618 0.4485 0.06606 0.0
C436 C 0.08027 0.46759 0.08326 0.0
C437 C 0.10462 0.4604 0.09589 0.0
C438 C 0.1108 0.4339 0.0917 0.0
C439 C 0.09131 0.41448 0.07566 0.0
C440 C 0.06711 0.42179 0.06281 0.0
C441 C 0.99451 0.5333 0.08805 0.0
C442 C 0.06665 0.55906 0.05637 0.0
C443 C 0.98577 0.60752 1.01702 0.0
C444 C 0.96455 0.6195 1.00089 0.0
C445 C 0.94918 0.63725 1.01621 0.0
C446 C 0.92633 0.64645 1.00293 0.0
C447 C 0.91853 0.63814 0.97399 0.0
C448 C 0.93456 0.62101 0.95826 0.0
C449 C 0.95731 0.61153 0.97174 0.0
C450 C 0.03001 0.53101 0.97554 0.0
C451 C 0.95782 0.50514 1.00684 0.0
O452 O 0.04911 0.47658 1.03001 0.0
O453 O 0.01555 0.46096 0.06248 0.0
O454 O 1.00128 0.53926 0.06162 0.0
O455 O 0.99975 0.50881 0.09198 0.0
O456 O 0.0601 0.53193 0.05611 0.0
O457 O 0.04931 0.57461 0.04536 0.0
O458 O 0.97467 0.58704 0.03363 0.0
O459 O 1.0097 0.60404 1.00315 0.0
O460 O 0.02333 0.52506 1.00199 0.0
O461 O 0.02454 0.55543 0.97149 0.0
O462 O 0.9644 0.53229 1.00704 0.0
O463 O 0.97506 0.48954 1.01802 0.0
H464 H 0.0765 0.48837 0.08588 0.0
H465 H 0.1192 0.47597 0.10784 0.0
H466 H 0.09505 0.39373 0.07253 0.0
H467 H 0.05308 0.40683 0.04952 0.0
H468 H 0.95435 0.64341 0.03882 0.0
H469 H 0.91455 0.65989 1.01541 0.0
H470 H 0.92885 0.61421 0.93597 0.0
H471 H 0.96869 0.59748 0.95973 0.0
H472 H 0.24313 0.24404 0.36463 0.0
H473 H 0.20716 0.20528 0.28434 0.0
H474 H 0.20286 0.21833 0.39291 0.0
H475 H 0.16757 0.17908 0.31235 0.0
H476 H 0.08626 0.15327 0.36433 0.0
H477 H 0.12492 0.18379 0.33937 0.0
H478 H 0.18348 0.17331 0.40857 0.0
H479 H 0.14435 0.14428 0.43447 0.0
C480 C 0.22673 0.22982 0.35314 0.0
C481 C 0.22806 0.22674 0.32236 0.0
C482 C 0.2037 0.2151 0.36926 0.0
C483 C 0.18179 0.19682 0.35487 0.0
C484 C 0.18358 0.19348 0.32409 0.0
C485 C 0.20636 0.20835 0.30804 0.0
C486 C 0.10719 0.15796 0.37456 0.0
C487 C 0.11225 0.14608 0.40126 0.0
C488 C 0.12951 0.17515 0.36003 0.0
C489 C 0.15746 0.18068 0.37173 0.0
C490 C 0.16223 0.16962 0.39897 0.0
C491 C 0.13986 0.15263 0.41362 0.0
H492 H 0.40322 0.86238 0.74447 0.0
H493 H 0.33513 0.9102 0.75226 0.0
H494 H 0.41329 0.87052 0.79688 0.0
H495 H 0.34544 0.91885 0.80397 0.0
H496 H 0.36047 0.92727 0.89829 0.0
H497 H 0.34567 0.90311 0.85249 0.0
H498 H 0.43526 0.90878 0.82571 0.0
H499 H 0.45008 0.93107 0.87246 0.0
C500 C 0.39024 0.87438 0.75747 0.0
C501 C 0.36847 0.88573 0.74427 0.0
C502 C 0.39601 0.8791 0.78743 0.0
C503 C 0.3803 0.89548 0.80468 0.0
C504 C 0.35765 0.90571 0.79164 0.0
C505 C 0.35176 0.90082 0.76186 0.0
C506 C 0.37707 0.92258 0.88311 0.0
C507 C 0.40651 0.93162 0.88888 0.0
C508 C 0.36854 0.90902 0.85661 0.0
C509 C 0.38922 0.90451 0.83508 0.0
C510 C 0.41868 0.91181 0.84173 0.0
C511 C 0.42721 0.92505 0.8684 0.0
H512 H 0.60675 0.39572 0.69409 0.0
H513 H 0.59952 0.46455 0.75181 0.0
H514 H 0.58738 0.41808 0.654 0.0
H515 H 0.58234 0.48768 0.71132 0.0
H516 H 0.5272 0.516 0.64137 0.0
H517 H 0.54546 0.49252 0.68124 0.0
H518 H 0.59315 0.4507 0.61804 0.0
H519 H 0.57362 0.47347 0.57804 0.0
C520 C 0.60111 0.4156 0.69849 0.0
C521 C 0.60498 0.42794 0.72686 0.0
C522 C 0.5903 0.42881 0.67504 0.0
C523 C 0.58301 0.45508 0.67874 0.0
C524 C 0.58702 0.46742 0.70708 0.0
C525 C 0.59755 0.45413 0.73055 0.0
C526 C 0.54164 0.50185 0.63587 0.0
C527 C 0.54884 0.49689 0.60617 0.0
C528 C 0.55242 0.48834 0.659 0.0
C529 C 0.57122 0.46944 0.65354 0.0
C530 C 0.5785 0.46459 0.62369 0.0
C531 C 0.56742 0.47793 0.6005 0.0
H532 H 0.95069 0.60581 0.25743 0.0
H533 H 0.89763 0.63842 0.19596 0.0
H534 H 0.9715 0.58201 0.21691 0.0
H535 H 0.91848 0.61448 0.15531 0.0
H536 H 0.98578 0.58725 0.08715 0.0
H537 H 0.96505 0.61309 0.12643 0.0
H538 H 0.95621 0.54324 0.1824 0.0
H539 H 0.97595 0.51743 0.14306 0.0
C540 C 0.94355 0.60811 0.23526 0.0
C541 C 0.92232 0.62415 0.23024 0.0
C542 C 0.95537 0.59421 0.21193 0.0
C543 C 0.94673 0.59611 0.1826 0.0
C544 C 0.92589 0.61256 0.17745 0.0
C545 C 0.91371 0.62614 0.2009 0.0
C546 C 0.97882 0.57724 0.10754 0.0
C547 C 0.98207 0.54998 0.11148 0.0
C548 C 0.96708 0.59213 0.13026 0.0
C549 C 0.95885 0.58038 0.15784 0.0
C550 C 0.96247 0.55322 0.16174 0.0
C551 C 0.97373 0.53831 0.13899 0.0
H552 H 0.37354 0.16759 0.1614 0.0
H553 H 0.45943 0.21529 0.16276 0.0
H554 H 0.39269 0.12834 0.14163 0.0
H555 H 0.47881 0.17662 0.14114 0.0
H556 H 0.50911 0.09735 0.11796 0.0
H557 H 0.48985 0.13279 0.14611 0.0
H558 H 0.4104 0.11345 0.09758 0.0
H559 H 0.429 0.07743 0.07092 0.0
C560 C 0.39658 0.16959 0.15721 0.0
C561 C 0.41506 0.19434 0.16326 0.0
C562 C 0.4076 0.14721 0.1457 0.0
C563 C 0.43733 0.14927 0.1393 0.0
C564 C 0.45588 0.17404 0.14607 0.0
C565 C 0.44485 0.1963 0.1582 0.0
C566 C 0.48736 0.10047 0.11374 0.0
C567 C 0.47056 0.08454 0.09229 0.0
C568 C 0.47639 0.12096 0.12967 0.0
C569 C 0.44853 0.1262 0.12416 0.0
C570 C 0.43166 0.10979 0.10303 0.0
C571 C 0.44242 0.08911 0.08753 0.0
H572 H 0.25371 1.00959 0.56191 0.0
H573 H 0.20407 0.92949 0.54393 0.0
H574 H 0.21065 1.02986 0.55459 0.0
H575 H 0.16138 0.94956 0.53599 0.0
H576 H 0.08393 0.98733 0.55834 0.0
H577 H 0.12864 0.97059 0.56628 0.0
H578 H 0.17615 0.03849 0.51808 0.0
H579 H 0.13122 0.05575 0.511 0.0
C580 C 0.23368 0.99643 0.55594 0.0
C581 C 0.23201 0.96801 0.55376 0.0
C582 C 0.20908 1.00798 0.55176 0.0
C583 C 0.18252 0.99126 0.54517 0.0
C584 C 0.18131 0.96294 0.54184 0.0
C585 C 0.20575 0.95143 0.54621 0.0
C586 C 0.10396 0.99879 0.54967 0.0
C587 C 0.10419 1.02265 0.53386 0.0
C588 C 0.12954 0.98911 0.554 0.0
C589 C 0.15586 1.00296 0.54234 0.0
C590 C 0.15622 1.02742 0.52739 0.0
C591 C 0.13055 0.03725 0.52326 0.0
H592 H 0.79706 0.39675 0.95253 0.0
H593 H 0.80653 0.46375 0.89251 0.0
H594 H 0.84123 0.41801 0.977 0.0
H595 H 0.85085 0.48497 0.91684 0.0
H596 H 0.91562 0.52963 0.98306 0.0
H597 H 0.87103 0.50831 0.95944 0.0
H598 H 0.89221 0.42874 0.97366 0.0
H599 H 0.93655 0.45012 0.99801 0.0
C600 C 0.80865 0.4159 0.94426 0.0
C601 C 0.79786 0.42833 0.9203 0.0
C602 C 0.83421 0.42818 0.95839 0.0
C603 C 0.85008 0.4534 0.94913 0.0
C604 C 0.83925 0.46585 0.92518 0.0
C605 C 0.81364 0.45358 0.91108 0.0
C606 C 0.91084 0.50756 0.9813 0.0
C607 C 0.93001 0.49175 0.99269 0.0
C608 C 0.88516 0.49524 0.96743 0.0
C609 C 0.87761 0.4666 0.96431 0.0
C610 C 0.89676 0.45078 0.97583 0.0
C611 C 0.92245 0.46312 0.98977 0.0
H612 H 0.69545 0.63414 0.39402 0.0
H613 H 0.74443 0.60715 0.46332 0.0
H614 H 0.6506 0.61516 0.4198 0.0
H615 H 0.69972 0.58809 0.48898 0.0
H616 H 0.6162 0.584 0.54393 0.0
H617 H 0.66087 0.60059 0.51683 0.0
H618 H 0.61817 0.57505 0.43492 0.0
H619 H 0.57315 0.55899 0.46228 0.0
C620 C 0.69676 0.62388 0.41456 0.0
C621 C 0.72389 0.62248 0.4265 0.0
C622 C 0.67087 0.61291 0.42944 0.0
C623 C 0.67117 0.60009 0.45678 0.0
C624 C 0.69832 0.59825 0.46839 0.0
C625 C 0.72415 0.60924 0.45356 0.0
C626 C 0.61633 0.58179 0.52014 0.0
C627 C 0.59095 0.57018 0.50536 0.0
C628 C 0.64212 0.59121 0.50449 0.0
C629 C 0.6435 0.5893 0.47345 0.0
C630 C 0.61809 0.57733 0.45869 0.0
C631 C 0.59223 0.56789 0.47441 0.0
H632 H 0.28195 0.3911 0.1098 0.0
H633 H 0.24387 0.38587 0.19734 0.0
H634 H 0.24005 0.40827 0.09187 0.0
H635 H 0.202 0.4024 0.17951 0.0
H636 H 0.13791 0.45019 0.14381 0.0
H637 H 0.18343 0.43988 0.16091 0.0
H638 H 0.19044 0.39057 0.08225 0.0
H639 H 0.14595 0.40223 0.06435 0.0
C640 C 0.26475 0.39384 0.12522 0.0
C641 C 0.2663 0.38726 0.15498 0.0
C642 C 0.24067 0.40351 0.11496 0.0
C643 C 0.21751 0.40657 0.1342 0.0
C644 C 0.21957 0.40076 0.16413 0.0
C645 C 0.24366 0.39129 0.17439 0.0
C646 C 0.14934 0.43744 0.12998 0.0
C647 C 0.13812 0.42695 0.10275 0.0
C648 C 0.17533 0.43129 0.13993 0.0
C649 C 0.19066 0.41437 0.12298 0.0
C650 C 0.17948 0.40399 0.09571 0.0
C651 C 0.15362 0.41028 0.08568 0.0
H652 H 0.55401 0.24131 0.9221 0.0
H653 H 0.63348 0.21031 0.90758 0.0
H654 H 0.53247 0.19889 0.9446 0.0
H655 H 0.61293 0.16907 0.93286 0.0
H656 H 0.56313 0.08582 0.96095 0.0
H657 H 0.58472 0.12749 0.93569 0.0
H658 H 0.52628 0.17155 0.98351 0.0
H659 H 0.5038 0.12953 1.00686 0.0
C660 C 0.56716 0.22565 0.92361 0.0
C661 C 0.5959 0.23008 0.91264 0.0
C662 C 0.55479 0.20109 0.93733 0.0
C663 C 0.57069 0.17987 0.94134 0.0
C664 C 0.5994 0.18427 0.93028 0.0
C665 C 0.61159 0.20861 0.91604 0.0
C666 C 0.55497 0.10447 0.96601 0.0
C667 C 0.53157 0.10414 0.98591 0.0
C668 C 0.56751 0.12868 0.95158 0.0
C669 C 0.55749 0.15363 0.95697 0.0
C670 C 0.53447 0.15313 0.97763 0.0
C671 C 0.52162 0.12886 0.99149 0.0
H672 H 0.95901 0.83073 0.39053 0.0
H673 H 0.88903 0.81926 0.45459 0.0
H674 H 0.97927 0.87413 0.41468 0.0
H675 H 0.90881 0.8629 0.47819 0.0
H676 H 0.96788 0.92913 0.53197 0.0
H677 H 0.94802 0.88564 0.50797 0.0
H678 H 0.97156 0.92062 0.42294 0.0
H679 H 0.99174 0.96407 0.44698 0.0
C680 C 0.94792 0.83734 0.40979 0.0
C681 C 0.92222 0.82121 0.4204 0.0
C682 C 0.95942 0.86251 0.42352 0.0
C683 C 0.94578 0.87235 0.44852 0.0
C684 C 0.92021 0.8561 0.45923 0.0
C685 C 0.90862 0.83107 0.4454 0.0
C686 C 0.96881 0.92766 0.50814 0.0
C687 C 0.98151 0.95038 0.49155 0.0
C688 C 0.95722 0.90261 0.49429 0.0
C689 C 0.95807 0.8993 0.46335 0.0
C690 C 0.97075 0.92207 0.44677 0.0
C691 C 0.98218 0.94718 0.46062 0.0
H692 H 0.37189 0.79305 0.49111 0.0
H693 H 0.46175 0.83135 0.49639 0.0
H694 H 0.38605 0.74881 0.48628 0.0
H695 H 0.47566 0.78666 0.49441 0.0
H696 H 0.49542 0.70238 0.49586 0.0
H697 H 0.48044 0.74269 0.47558 0.0
H698 H 0.4005 0.72528 0.52606 0.0
H699 H 0.41518 0.68512 0.54546 0.0
C700 C 0.39475 0.79231 0.4904 0.0
C701 C 0.41562 0.81593 0.49531 0.0
C702 C 0.40284 0.7667 0.48811 0.0
C703 C 0.43184 0.76405 0.49136 0.0
C704 C 0.45303 0.78782 0.49226 0.0
C705 C 0.44499 0.81354 0.49385 0.0
C706 C 0.47453 0.70715 0.50225 0.0
C707 C 0.45653 0.69079 0.52238 0.0
C708 C 0.46592 0.73016 0.49062 0.0
C709 C 0.43924 0.7373 0.4991 0.0
C710 C 0.42088 0.72018 0.51837 0.0
C711 C 0.42937 0.69718 0.52975 0.0
H712 H 0.81655 0.80077 0.72112 0.0
H713 H 0.76476 0.84908 0.67517 0.0
H714 H 0.85969 0.82356 0.69525 0.0
H715 H 0.80763 0.87113 0.6481 0.0
H716 H 0.89069 0.93421 0.64711 0.0
H717 H 0.84671 0.90475 0.66312 0.0
H718 H 0.88873 0.83445 0.65212 0.0
H719 H 0.93336 0.86449 0.63681 0.0
C720 C 0.81431 0.81557 0.70461 0.0
C721 C 0.7875 0.82341 0.70024 0.0
C722 C 0.83902 0.82865 0.68974 0.0
C723 C 0.83727 0.84961 0.67001 0.0
C724 C 0.8099 0.85565 0.6638 0.0
C725 C 0.7853 0.84288 0.67902 0.0
C726 C 0.89044 0.91242 0.64783 0.0
C727 C 0.91536 0.90159 0.64066 0.0
C728 C 0.86513 0.89544 0.65679 0.0
C729 C 0.86396 0.8671 0.65855 0.0
C730 C 0.88892 0.85619 0.65118 0.0
C731 C 0.91445 0.87333 0.64246 0.0
H732 H 0.59654 0.12619 0.34366 0.0
H733 H 0.64872 0.06353 0.35116 0.0
H734 H 0.58424 0.11038 0.29363 0.0
H735 H 0.63547 0.04695 0.30141 0.0
H736 H 0.64273 0.05736 0.20008 0.0
H737 H 0.64885 0.0652 0.25291 0.0
H738 H 0.55935 0.07417 0.26227 0.0
H739 H 0.55359 0.06756 0.20925 0.0
C740 C 0.60496 0.10872 0.33477 0.0
C741 C 0.62388 0.09632 0.35119 0.0
C742 C 0.59769 0.09947 0.3062 0.0
C743 C 0.60911 0.07756 0.29344 0.0
C744 C 0.62669 0.06415 0.31049 0.0
C745 C 0.63399 0.07343 0.3391 0.0
C746 C 0.62439 0.06106 0.21341 0.0
C747 C 0.59776 0.06207 0.20043 0.0
C748 C 0.62776 0.06515 0.24376 0.0
C749 C 0.60457 0.07032 0.2618 0.0
C750 C 0.5777 0.07049 0.24893 0.0
C751 C 0.57434 0.06645 0.21858 0.0
H752 H 0.38862 0.60342 0.33128 0.0
H753 H 0.44863 0.6772 0.35181 0.0
H754 H 0.40703 0.58062 0.37199 0.0
H755 H 0.46716 0.65432 0.39256 0.0
H756 H 0.47281 0.61204 0.48233 0.0
H757 H 0.45407 0.63529 0.44204 0.0
H758 H 0.44984 0.56274 0.38715 0.0
H759 H 0.46872 0.53957 0.42732 0.0
C760 C 0.40568 0.61491 0.34451 0.0
C761 C 0.41697 0.64235 0.33794 0.0
C762 C 0.41648 0.60168 0.36785 0.0
C763 C 0.43875 0.61543 0.3859 0.0
C764 C 0.44991 0.64295 0.3795 0.0
C765 C 0.4394 0.65607 0.35583 0.0
C766 C 0.46784 0.60094 0.46172 0.0
C767 C 0.47238 0.57373 0.45838 0.0
C768 C 0.45721 0.61442 0.4384 0.0
C769 C 0.4503 0.60108 0.41099 0.0
C770 C 0.45455 0.57377 0.40783 0.0
C771 C 0.46556 0.56043 0.43097 0.0
H772 H 0.12739 0.42473 0.87027 0.0
H773 H 0.0754 0.45676 0.80728 0.0
H774 H 0.10619 0.44929 0.91014 0.0
H775 H 0.05425 0.48126 0.84706 0.0
H776 H 0.04899 0.54656 0.92042 0.0
H777 H 0.06901 0.5204 0.88148 0.0
H778 H 0.05932 0.45091 0.93805 0.0
H779 H 0.03829 0.47705 0.97679 0.0
C780 C 0.11148 0.43702 0.86484 0.0
C781 C 0.10326 0.43865 0.8353 0.0
C782 C 0.0991 0.45097 0.88783 0.0
C783 C 0.07845 0.46745 0.88204 0.0
C784 C 0.07022 0.46903 0.85252 0.0
C785 C 0.08223 0.45474 0.82963 0.0
C786 C 0.05108 0.52569 0.92468 0.0
C787 C 0.04247 0.5142 0.95222 0.0
C788 C 0.06251 0.51058 0.90218 0.0
C789 C 0.06602 0.48342 0.9064 0.0
C790 C 0.05742 0.47186 0.93399 0.0
C791 C 0.04552 0.48693 0.95641 0.0
H792 H 0.63002 0.91464 0.85888 0.0
H793 H 0.60088 0.85947 0.92987 0.0
H794 H 0.60632 0.94929 0.88298 0.0
H795 H 0.57603 0.89377 0.95293 0.0
H796 H 0.51106 0.95248 0.96672 0.0
H797 H 0.53361 0.91891 0.93913 0.0
H798 H 0.61348 0.97672 0.93385 0.0
H799 H 0.59112 1.01038 0.96198 0.0
C800 C 0.61868 0.90983 0.8796 0.0
C801 C 0.61759 0.88416 0.89244 0.0
C802 C 0.60497 0.92968 0.89326 0.0
C803 C 0.58938 0.92413 0.91973 0.0
C804 C 0.5877 0.89841 0.93232 0.0
C805 C 0.60182 0.87872 0.91897 0.0
C806 C 0.53335 0.9582 0.95944 0.0
C807 C 0.54938 0.98406 0.96664 0.0
C808 C 0.54625 0.9389 0.9438 0.0
C809 C 0.57527 0.94522 0.93458 0.0
C810 C 0.59102 0.97142 0.94067 0.0
C811 C 0.57825 0.99062 0.95679 0.0
H812 H 0.8073 0.06561 0.49479 0.0
H813 H 0.83799 0.13662 0.5496 0.0
H814 H 0.85105 0.04762 0.5047 0.0
H815 H 0.8822 0.1192 0.55851 0.0
H816 H 0.94302 0.06548 0.59284 0.0
H817 H 0.89851 0.08256 0.58411 0.0
H818 H 0.90266 0.05818 0.49227 0.0
H819 H 0.94691 0.04053 0.50124 0.0
C820 C 0.82331 0.07728 0.50909 0.0
C821 C 0.81925 0.10252 0.52142 0.0
C822 C 0.84851 0.06716 0.51445 0.0
C823 C 0.8701 0.08208 0.53225 0.0
C824 C 0.86584 0.10714 0.54489 0.0
C825 C 0.84066 0.11723 0.53956 0.0
C826 C 0.9344 0.06382 0.5708 0.0
C827 C 0.94822 0.05164 0.54772 0.0
C828 C 0.90902 0.0737 0.56577 0.0
C829 C 0.89707 0.07164 0.53753 0.0
C830 C 0.91113 0.05966 0.51437 0.0
C831 C 0.93651 0.04974 0.51943 0.0
H832 H 0.21761 0.60215 0.17069 0.0
H833 H 0.22782 0.66757 0.10858 0.0
H834 H 0.17289 0.58093 0.14705 0.0
H835 H 0.18379 0.64579 0.08421 0.0
H836 H 0.08812 0.61412 0.06413 0.0
H837 H 0.1325 0.63578 0.0882 0.0
H838 H 0.15329 0.55641 0.10433 0.0
H839 H 0.10874 0.5348 0.08079 0.0
C840 C 0.21041 0.61213 0.15204 0.0
C841 C 0.22673 0.63675 0.14176 0.0
C842 C 0.18476 0.59969 0.13814 0.0
C843 C 0.17437 0.61142 0.11346 0.0
C844 C 0.19065 0.6361 0.10326 0.0
C845 C 0.21631 0.6485 0.11711 0.0
C846 C 0.10213 0.60121 0.07273 0.0
C847 C 0.09449 0.57255 0.07037 0.0
C848 C 0.12783 0.61371 0.0865 0.0
C849 C 0.14685 0.59803 0.09847 0.0
C850 C 0.13923 0.56936 0.09595 0.0
C851 C 0.11357 0.55688 0.08216 0.0
H852 H 0.30139 0.4059 0.60769 0.0
H853 H 0.31076 0.47528 0.66788 0.0
H854 H 0.34492 0.42669 0.58108 0.0
H855 H 0.35412 0.49649 0.64068 0.0
H856 H 0.4486 0.51155 0.60225 0.0
H857 H 0.40455 0.49266 0.62994 0.0
H858 H 0.36299 0.46353 0.54848 0.0
H859 H 0.40694 0.48214 0.52105 0.0
C860 C 0.31274 0.42559 0.61538 0.0
C861 C 0.30234 0.43873 0.64017 0.0
C862 C 0.33767 0.43773 0.59981 0.0
C863 C 0.35326 0.46345 0.6085 0.0
C864 C 0.34296 0.47661 0.63335 0.0
C865 C 0.31783 0.46453 0.64883 0.0
C866 C 0.42998 0.50125 0.59027 0.0
C867 C 0.43146 0.49828 0.55938 0.0
C868 C 0.40461 0.49047 0.60615 0.0
C869 C 0.38003 0.47625 0.59162 0.0
C870 C 0.38148 0.47384 0.56064 0.0
C871 C 0.40672 0.48472 0.54481 0.0
H872 H 0.78946 0.68651 0.86075 0.0
H873 H 0.76874 0.71305 0.94877 0.0
H874 H 0.82708 0.66465 0.88025 0.0
H875 H 0.80775 0.69282 0.96802 0.0
H876 H 0.86489 0.63566 0.9985 0.0
H877 H 0.82348 0.65157 0.9781 0.0
H878 H 0.874 0.67693 0.89971 0.0
H879 H 0.91504 0.66005 0.91989 0.0
C880 C 0.79267 0.68747 0.88432 0.0
C881 C 0.77594 0.70158 0.90317 0.0
C882 C 0.81466 0.6753 0.89545 0.0
C883 C 0.82072 0.67714 0.92569 0.0
C884 C 0.80357 0.69071 0.94464 0.0
C885 C 0.78138 0.70266 0.93354 0.0
C886 C 0.86704 0.6446 0.97687 0.0
C887 C 0.89317 0.64681 0.96082 0.0
C888 C 0.84337 0.65382 0.96521 0.0
C889 C 0.84537 0.66576 0.93733 0.0
C890 C 0.87146 0.6675 0.92106 0.0
C891 C 0.89505 0.65796 0.93262 0.0
H892 H 0.44544 0.81721 0.11015 0.0
H893 H 0.40884 0.86191 0.17958 0.0
H894 H 0.46488 0.85979 0.08611 0.0
H895 H 0.42925 0.90488 0.15585 0.0
H896 H 0.44928 0.9768 0.08953 0.0
H897 H 0.42685 0.93434 0.11375 0.0
H898 H 0.50179 0.89869 0.09062 0.0
H899 H 0.52364 0.94048 0.06641 0.0
C900 C 0.44139 0.83608 0.12039 0.0
C901 C 0.42532 0.83569 0.14702 0.0
C902 C 0.45293 0.86076 0.10664 0.0
C903 C 0.44893 0.8862 0.11887 0.0
C904 C 0.43273 0.88589 0.14544 0.0
C905 C 0.42126 0.86111 0.15933 0.0
C906 C 0.46085 0.95982 0.08956 0.0
C907 C 0.48833 0.96223 0.07588 0.0
C908 C 0.44807 0.93544 0.10365 0.0
C909 C 0.46228 0.91266 0.10423 0.0
C910 C 0.48973 0.91531 0.09041 0.0
C911 C 0.50245 0.93954 0.07657 0.0
H912 H 0.07287 0.24866 0.63184 0.0
H913 H 0.1419 0.21513 0.67008 0.0
H914 H 0.05431 0.20438 0.60915 0.0
H915 H 0.12429 0.17131 0.64606 0.0
H916 H 0.07164 0.08779 0.61992 0.0
H917 H 0.08877 0.13157 0.64482 0.0
H918 H 0.06199 0.17365 0.57105 0.0
H919 H 0.04417 0.12998 0.54673 0.0
C920 C 0.08415 0.23192 0.63558 0.0
C921 C 0.1091 0.23595 0.65297 0.0
C922 C 0.07366 0.2064 0.62208 0.0
C923 C 0.08773 0.18385 0.62536 0.0
C924 C 0.1125 0.18781 0.64303 0.0
C925 C 0.12293 0.2133 0.65659 0.0
C926 C 0.06938 0.10638 0.609 0.0
C927 C 0.05638 0.10509 0.58121 0.0
C928 C 0.07941 0.13167 0.62327 0.0
C929 C 0.07688 0.1566 0.61021 0.0
C930 C 0.06397 0.15518 0.58232 0.0
C931 C 0.05387 0.12993 0.56814 0.0
H932 H 0.72037 0.31689 0.48049 0.0
H933 H 0.65637 0.28877 0.54768 0.0
H934 H 0.70502 0.36129 0.48151 0.0
H935 H 0.64103 0.33296 0.54867 0.0
H936 H 0.61773 0.41541 0.54696 0.0
H937 H 0.65012 0.38318 0.55597 0.0
H938 H 0.65893 0.36969 0.46206 0.0
H939 H 0.62718 0.40217 0.45316 0.0
C940 C 0.70351 0.32045 0.49597 0.0
C941 C 0.68914 0.29928 0.51358 0.0
C942 C 0.69476 0.34581 0.49656 0.0
C943 C 0.6715 0.35039 0.51477 0.0
C944 C 0.65913 0.33011 0.53452 0.0
C945 C 0.6679 0.30475 0.53394 0.0
C946 C 0.62724 0.40605 0.52829 0.0
C947 C 0.61973 0.41093 0.49937 0.0
C948 C 0.64564 0.38756 0.53345 0.0
C949 C 0.65695 0.37386 0.50975 0.0
C950 C 0.65084 0.38015 0.48079 0.0
C951 C 0.63236 0.39845 0.47567 0.0
loop_
_geom_bond_atom_site_label_1
_geom_bond_atom_site_label_2
_geom_bond_distance
_geom_bond_site_symmetry_2
_ccdc_geom_bond_type
C0 C1 1.386 . S
C0 C2 1.397 . S
C0 H24 0.931 . S
C1 C0 1.386 . S
C1 C5 1.397 . S
C2 C0 1.397 . S
C2 C3 1.384 . S
C2 H25 0.930 . S
C3 C2 1.384 . S
C3 C4 1.377 . S
C3 C6 1.481 . S
C4 C3 1.377 . S
C4 C5 1.389 . S
C4 H26 0.929 . S
C5 C1 1.397 . S
C5 C4 1.389 . S
C5 H27 0.931 . S
C6 C3 1.481 . S
C6 C7 1.387 . S
C6 C11 1.390 . S
C7 C6 1.387 . S
C7 C8 1.401 . S
C7 H28 0.930 . S
C8 C7 1.401 . S
C8 C9 1.376 . S
C8 C17 1.511 . S
C9 C8 1.376 . S
C9 C10 1.392 . S
C9 H30 0.931 . S
C10 C9 1.392 . S
C10 C11 1.361 . S
C10 C12 1.500 . S
C11 C6 1.390 . S
C11 C10 1.361 . S
C11 H29 0.931 . S
C12 C10 1.500 . S
C12 C13 1.371 . S
C12 C14 1.365 . S
C13 C12 1.371 . S
C13 C23 1.386 . S
C13 H31 0.931 . S
C14 C12 1.365 . S
C14 C15 1.409 . S
C14 H32 0.929 . S
C15 C14 1.409 . S
C15 C16 1.380 . S
C15 H33 0.930 . S
C16 C15 1.380 . S
C16 C23 1.357 . S
C17 C8 1.511 . S
C17 C18 1.341 . S
C17 C19 1.371 . S
C18 C17 1.341 . S
C18 C22 1.394 . S
C18 H34 0.930 . S
C19 C17 1.371 . S
C19 C20 1.392 . S
C19 H35 0.931 . S
C20 C19 1.392 . S
C20 C21 1.331 . S
C20 H38 0.932 . S
C21 C20 1.331 . S
C21 C22 1.336 . S
C22 C18 1.394 . S
C22 C21 1.336 . S
C22 H37 0.929 . S
C23 C13 1.386 . S
C23 C16 1.357 . S
C23 H36 0.928 . S
H24 C0 0.931 . S
H25 C2 0.930 . S
H26 C4 0.929 . S
H27 C5 0.931 . S
H28 C7 0.930 . S
H29 C11 0.931 . S
H30 C9 0.931 . S
H31 C13 0.931 . S
H32 C14 0.929 . S
H33 C15 0.930 . S
H34 C18 0.930 . S
H35 C19 0.931 . S
H36 C23 0.928 . S
H37 C22 0.929 . S
H38 C20 0.932 . S
C39 C40 1.386 . S
C39 C41 1.397 . S
C39 H63 0.931 . S
C40 C39 1.386 . S
C40 C44 1.397 . S
C41 C39 1.397 . S
C41 C42 1.384 . S
C41 H64 0.930 . S
C42 C41 1.384 . S
C42 C43 1.377 . S
C42 C45 1.481 . S
C43 C42 1.377 . S
C43 C44 1.389 . S
C43 H65 0.929 . S
C44 C40 1.397 . S
C44 C43 1.389 . S
C44 H66 0.931 . S
C45 C42 1.481 . S
C45 C46 1.387 . S
C45 C50 1.390 . S
C46 C45 1.387 . S
C46 C47 1.401 . S
C46 H67 0.930 . S
C47 C46 1.401 . S
C47 C48 1.376 . S
C47 C56 1.511 . S
C48 C47 1.376 . S
C48 C49 1.392 . S
C48 H69 0.931 . S
C49 C48 1.392 . S
C49 C50 1.361 . S
C49 C51 1.500 . S
C50 C45 1.390 . S
C50 C49 1.361 . S
C50 H68 0.931 . S
C51 C49 1.500 . S
C51 C52 1.371 . S
C51 C53 1.365 . S
C52 C51 1.371 . S
C52 C62 1.386 . S
C52 H70 0.931 . S
C53 C51 1.365 . S
C53 C54 1.409 . S
C53 H71 0.929 . S
C54 C53 1.409 . S
C54 C55 1.380 . S
C54 H72 0.930 . S
C55 C54 1.380 . S
C55 C62 1.357 . S
C56 C47 1.511 . S
C56 C57 1.341 . S
C56 C58 1.371 . S
C57 C56 1.341 . S
C57 C61 1.394 . S
C57 H73 0.930 . S
C58 C56 1.371 . S
C58 C59 1.392 . S
C58 H74 0.931 . S
C59 C58 1.392 . S
C59 C60 1.331 . S
C59 H77 0.932 . S
C60 C59 1.331 . S
C60 C61 1.336 . S
C61 C57 1.394 . S
C61 C60 1.336 . S
C61 H76 0.929 . S
C62 C52 1.386 . S
C62 C55 1.357 . S
C62 H75 0.928 . S
H63 C39 0.931 . S
H64 C41 0.930 . S
H65 C43 0.929 . S
H66 C44 0.931 . S
H67 C46 0.930 . S
H68 C50 0.931 . S
H69 C48 0.931 . S
H70 C52 0.931 . S
H71 C53 0.929 . S
H72 C54 0.930 . S
H73 C57 0.930 . S
H74 C58 0.931 . S
H75 C62 0.928 . S
H76 C61 0.929 . S
H77 C59 0.932 . S
C78 C79 1.386 . S
C78 C80 1.397 . S
C78 H102 0.931 . S
C79 C78 1.386 . S
C79 C83 1.397 . S
C80 C78 1.397 . S
C80 C81 1.384 . S
C80 H103 0.930 . S
C81 C80 1.384 . S
C81 C82 1.377 . S
C81 C84 1.481 . S
C82 C81 1.377 . S
C82 C83 1.389 . S
C82 H104 0.929 . S
C83 C79 1.397 . S
C83 C82 1.389 . S
C83 H105 0.931 . S
C84 C81 1.481 . S
C84 C85 1.387 . S
C84 C89 1.390 . S
C85 C84 1.387 . S
C85 C86 1.401 . S
C85 H106 0.930 . S
C86 C85 1.401 . S
C86 C87 1.376 . S
C86 C95 1.511 . S
C87 C86 1.376 . S
C87 C88 1.392 . S
C87 H108 0.931 . S
C88 C87 1.392 . S
C88 C89 1.361 . S
C88 C90 1.500 . S
C89 C84 1.390 . S
C89 C88 1.361 . S
C89 H107 0.931 . S
C90 C88 1.500 . S
C90 C91 1.371 . S
C90 C92 1.365 . S
C91 C90 1.371 . S
C91 C101 1.386 . S
C91 H109 0.931 . S
C92 C90 1.365 . S
C92 C93 1.409 . S
C92 H110 0.929 . S
C93 C92 1.409 . S
C93 C94 1.380 . S
C93 H111 0.930 . S
C94 C93 1.380 . S
C94 C101 1.357 . S
C95 C86 1.511 . S
C95 C96 1.341 . S
C95 C97 1.371 . S
C96 C95 1.341 . S
C96 C100 1.394 . S
C96 H112 0.930 . S
C97 C95 1.371 . S
C97 C98 1.392 . S
C97 H113 0.931 . S
C98 C97 1.392 . S
C98 C99 1.331 . S
C98 H116 0.932 . S
C99 C98 1.331 . S
C99 C100 1.336 . S
C100 C96 1.394 . S
C100 C99 1.336 . S
C100 H115 0.929 . S
C101 C91 1.386 . S
C101 C94 1.357 . S
C101 H114 0.928 . S
H102 C78 0.931 . S
H103 C80 0.930 . S
H104 C82 0.929 . S
H105 C83 0.931 . S
H106 C85 0.930 . S
H107 C89 0.931 . S
H108 C87 0.931 . S
H109 C91 0.931 . S
H110 C92 0.929 . S
H111 C93 0.930 . S
H112 C96 0.930 . S
H113 C97 0.931 . S
H114 C101 0.928 . S
H115 C100 0.929 . S
H116 C98 0.932 . S
C117 C118 1.386 . S
C117 C119 1.397 . S
C117 H141 0.931 . S
C118 C117 1.386 . S
C118 C122 1.397 . S
C119 C117 1.397 . S
C119 C120 1.384 . S
C119 H142 0.930 . S
C120 C119 1.384 . S
C120 C121 1.377 . S
C120 C123 1.481 . S
C121 C120 1.377 . S
C121 C122 1.389 . S
C121 H143 0.929 . S
C122 C118 1.397 . S
C122 C121 1.389 . S
C122 H144 0.931 . S
C123 C120 1.481 . S
C123 C124 1.387 . S
C123 C128 1.390 . S
C124 C123 1.387 . S
C124 C125 1.401 . S
C124 H145 0.930 . S
C125 C124 1.401 . S
C125 C126 1.376 . S
C125 C134 1.511 . S
C126 C125 1.376 . S
C126 C127 1.392 . S
C126 H147 0.931 . S
C127 C126 1.392 . S
C127 C128 1.361 . S
C127 C129 1.500 . S
C128 C123 1.390 . S
C128 C127 1.361 . S
C128 H146 0.931 . S
C129 C127 1.500 . S
C129 C130 1.371 . S
C129 C131 1.365 . S
C130 C129 1.371 . S
C130 C140 1.386 . S
C130 H148 0.931 . S
C131 C129 1.365 . S
C131 C132 1.409 . S
C131 H149 0.929 . S
C132 C131 1.409 . S
C132 C133 1.380 . S
C132 H150 0.930 . S
C133 C132 1.380 . S
C133 C140 1.357 . S
C134 C125 1.511 . S
C134 C135 1.341 . S
C134 C136 1.371 . S
C135 C134 1.341 . S
C135 C139 1.394 . S
C135 H151 0.930 . S
C136 C134 1.371 . S
C136 C137 1.392 . S
C136 H152 0.931 . S
C137 C136 1.392 . S
C137 C138 1.331 . S
C137 H155 0.932 . S
C138 C137 1.331 . S
C138 C139 1.336 . S
C139 C135 1.394 . S
C139 C138 1.336 . S
C139 H154 0.929 . S
C140 C130 1.386 . S
C140 C133 1.357 . S
C140 H153 0.928 . S
H141 C117 0.931 . S
H142 C119 0.930 . S
H143 C121 0.929 . S
H144 C122 0.931 . S
H145 C124 0.930 . S
H146 C128 0.931 . S
H147 C126 0.931 . S
H148 C130 0.931 . S
H149 C131 0.929 . S
H150 C132 0.930 . S
H151 C135 0.930 . S
H152 C136 0.931 . S
H153 C140 0.928 . S
H154 C139 0.929 . S
H155 C137 0.932 . S
C156 C157 1.386 . S
C156 C158 1.397 . S
C156 H180 0.931 . S
C157 C156 1.386 . S
C157 C161 1.397 . S
C158 C156 1.397 . S
C158 C159 1.384 . S
C158 H181 0.930 . S
C159 C158 1.384 . S
C159 C160 1.377 . S
C159 C162 1.481 . S
C160 C159 1.377 . S
C160 C161 1.389 . S
C160 H182 0.929 . S
C161 C157 1.397 . S
C161 C160 1.389 . S
C161 H183 0.931 . S
C162 C159 1.481 . S
C162 C163 1.387 . S
C162 C167 1.390 . S
C163 C162 1.387 . S
C163 C164 1.401 . S
C163 H184 0.930 . S
C164 C163 1.401 . S
C164 C165 1.376 . S
C164 C173 1.511 . S
C165 C164 1.376 . S
C165 C166 1.392 . S
C165 H186 0.931 . S
C166 C165 1.392 . S
C166 C167 1.361 . S
C166 C168 1.500 . S
C167 C162 1.390 . S
C167 C166 1.361 . S
C167 H185 0.931 . S
C168 C166 1.500 . S
C168 C169 1.371 . S
C168 C170 1.365 . S
C169 C168 1.371 . S
C169 C179 1.386 . S
C169 H187 0.931 . S
C170 C168 1.365 . S
C170 C171 1.409 . S
C170 H188 0.929 . S
C171 C170 1.409 . S
C171 C172 1.380 . S
C171 H189 0.930 . S
C172 C171 1.380 . S
C172 C179 1.357 . S
C173 C164 1.511 . S
C173 C174 1.341 . S
C173 C175 1.371 . S
C174 C173 1.341 . S
C174 C178 1.394 . S
C174 H190 0.930 . S
C175 C173 1.371 . S
C175 C176 1.392 . S
C175 H191 0.931 . S
C176 C175 1.392 . S
C176 C177 1.331 . S
C176 H194 0.932 . S
C177 C176 1.331 . S
C177 C178 1.336 . S
C178 C174 1.394 . S
C178 C177 1.336 . S
C178 H193 0.929 . S
C179 C169 1.386 . S
C179 C172 1.357 . S
C179 H192 0.928 . S
H180 C156 0.931 . S
H181 C158 0.930 . S
H182 C160 0.929 . S
H183 C161 0.931 . S
H184 C163 0.930 . S
H185 C167 0.931 . S
H186 C165 0.931 . S
H187 C169 0.931 . S
H188 C170 0.929 . S
H189 C171 0.930 . S
H190 C174 0.930 . S
H191 C175 0.931 . S
H192 C179 0.928 . S
H193 C178 0.929 . S
H194 C176 0.932 . S
C195 C196 1.386 . S
C195 C197 1.397 . S
C195 H219 0.931 . S
C196 C195 1.386 . S
C196 C200 1.397 . S
C197 C195 1.397 . S
C197 C198 1.384 . S
C197 H220 0.930 . S
C198 C197 1.384 . S
C198 C199 1.377 . S
C198 C201 1.481 . S
C199 C198 1.377 . S
C199 C200 1.389 . S
C199 H221 0.929 . S
C200 C196 1.397 . S
C200 C199 1.389 . S
C200 H222 0.931 . S
C201 C198 1.481 . S
C201 C202 1.387 . S
C201 C206 1.390 . S
C202 C201 1.387 . S
C202 C203 1.401 . S
C202 H223 0.930 . S
C203 C202 1.401 . S
C203 C204 1.376 . S
C203 C212 1.511 . S
C204 C203 1.376 . S
C204 C205 1.392 . S
C204 H225 0.931 . S
C205 C204 1.392 . S
C205 C206 1.361 . S
C205 C207 1.500 . S
C206 C201 1.390 . S
C206 C205 1.361 . S
C206 H224 0.931 . S
C207 C205 1.500 . S
C207 C208 1.371 . S
C207 C209 1.365 . S
C208 C207 1.371 . S
C208 C218 1.386 . S
C208 H226 0.931 . S
C209 C207 1.365 . S
C209 C210 1.409 . S
C209 H227 0.929 . S
C210 C209 1.409 . S
C210 C211 1.380 . S
C210 H228 0.930 . S
C211 C210 1.380 . S
C211 C218 1.357 . S
C212 C203 1.511 . S
C212 C213 1.341 . S
C212 C214 1.371 . S
C213 C212 1.341 . S
C213 C217 1.394 . S
C213 H229 0.930 . S
C214 C212 1.371 . S
C214 C215 1.392 . S
C214 H230 0.931 . S
C215 C214 1.392 . S
C215 C216 1.331 . S
C215 H233 0.932 . S
C216 C215 1.331 . S
C216 C217 1.336 . S
C217 C213 1.394 . S
C217 C216 1.336 . S
C217 H232 0.929 . S
C218 C208 1.386 . S
C218 C211 1.357 . S
C218 H231 0.928 . S
H219 C195 0.931 . S
H220 C197 0.930 . S
H221 C199 0.929 . S
H222 C200 0.931 . S
H223 C202 0.930 . S
H224 C206 0.931 . S
H225 C204 0.931 . S
H226 C208 0.931 . S
H227 C209 0.929 . S
H228 C210 0.930 . S
H229 C213 0.930 . S
H230 C214 0.931 . S
H231 C218 0.928 . S
H232 C217 0.929 . S
H233 C215 0.932 . S
C234 C235 1.386 . S
C234 C236 1.397 . S
C234 H258 0.931 . S
C235 C234 1.386 . S
C235 C239 1.397 . S
C236 C234 1.397 . S
C236 C237 1.384 . S
C236 H259 0.930 . S
C237 C236 1.384 . S
C237 C238 1.377 . S
C237 C240 1.481 . S
C238 C237 1.377 . S
C238 C239 1.389 . S
C238 H260 0.929 . S
C239 C235 1.397 . S
C239 C238 1.389 . S
C239 H261 0.931 . S
C240 C237 1.481 . S
C240 C241 1.387 . S
C240 C245 1.390 . S
C241 C240 1.387 . S
C241 C242 1.401 . S
C241 H262 0.930 . S
C242 C241 1.401 . S
C242 C243 1.376 . S
C242 C251 1.511 . S
C243 C242 1.376 . S
C243 C244 1.392 . S
C243 H264 0.931 . S
C244 C243 1.392 . S
C244 C245 1.361 . S
C244 C246 1.500 . S
C245 C240 1.390 . S
C245 C244 1.361 . S
C245 H263 0.931 . S
C246 C244 1.500 . S
C246 C247 1.371 . S
C246 C248 1.365 . S
C247 C246 1.371 . S
C247 C257 1.386 . S
C247 H265 0.931 . S
C248 C246 1.365 . S
C248 C249 1.409 . S
C248 H266 0.929 . S
C249 C248 1.409 . S
C249 C250 1.380 . S
C249 H267 0.930 . S
C250 C249 1.380 . S
C250 C257 1.357 . S
C251 C242 1.511 . S
C251 C252 1.341 . S
C251 C253 1.371 . S
C252 C251 1.341 . S
C252 C256 1.394 . S
C252 H268 0.930 . S
C253 C251 1.371 . S
C253 C254 1.392 . S
C253 H269 0.931 . S
C254 C253 1.392 . S
C254 C255 1.331 . S
C254 H272 0.932 . S
C255 C254 1.331 . S
C255 C256 1.336 . S
C256 C252 1.394 . S
C256 C255 1.336 . S
C256 H271 0.929 . S
C257 C247 1.386 . S
C257 C250 1.357 . S
C257 H270 0.928 . S
H258 C234 0.931 . S
H259 C236 0.930 . S
H260 C238 0.929 . S
H261 C239 0.931 . S
H262 C241 0.930 . S
H263 C245 0.931 . S
H264 C243 0.931 . S
H265 C247 0.931 . S
H266 C248 0.929 . S
H267 C249 0.930 . S
H268 C252 0.930 . S
H269 C253 0.931 . S
H270 C257 0.928 . S
H271 C256 0.929 . S
H272 C254 0.932 . S
C273 C274 1.386 . S
C273 C275 1.397 . S
C273 H297 0.931 . S
C274 C273 1.386 . S
C274 C278 1.397 . S
C275 C273 1.397 . S
C275 C276 1.384 . S
C275 H298 0.930 . S
C276 C275 1.384 . S
C276 C277 1.377 . S
C276 C279 1.481 . S
C277 C276 1.377 . S
C277 C278 1.389 . S
C277 H299 0.929 . S
C278 C274 1.397 . S
C278 C277 1.389 . S
C278 H300 0.931 . S
C279 C276 1.481 . S
C279 C280 1.387 . S
C279 C284 1.390 . S
C280 C279 1.387 . S
C280 C281 1.401 . S
C280 H301 0.930 . S
C281 C280 1.401 . S
C281 C282 1.376 . S
C281 C290 1.511 . S
C282 C281 1.376 . S
C282 C283 1.392 . S
C282 H303 0.931 . S
C283 C282 1.392 . S
C283 C284 1.361 . S
C283 C285 1.500 . S
C284 C279 1.390 . S
C284 C283 1.361 . S
C284 H302 0.931 . S
C285 C283 1.500 . S
C285 C286 1.371 . S
C285 C287 1.365 . S
C286 C285 1.371 . S
C286 C296 1.386 . S
C286 H304 0.931 . S
C287 C285 1.365 . S
C287 C288 1.409 . S
C287 H305 0.929 . S
C288 C287 1.409 . S
C288 C289 1.380 . S
C288 H306 0.930 . S
C289 C288 1.380 . S
C289 C296 1.357 . S
C290 C281 1.511 . S
C290 C291 1.341 . S
C290 C292 1.371 . S
C291 C290 1.341 . S
C291 C295 1.394 . S
C291 H307 0.930 . S
C292 C290 1.371 . S
C292 C293 1.392 . S
C292 H308 0.931 . S
C293 C292 1.392 . S
C293 C294 1.331 . S
C293 H311 0.932 . S
C294 C293 1.331 . S
C294 C295 1.336 . S
C295 C291 1.394 . S
C295 C294 1.336 . S
C295 H310 0.929 . S
C296 C286 1.386 . S
C296 C289 1.357 . S
C296 H309 0.928 . S
H297 C273 0.931 . S
H298 C275 0.930 . S
H299 C277 0.929 . S
H300 C278 0.931 . S
H301 C280 0.930 . S
H302 C284 0.931 . S
H303 C282 0.931 . S
H304 C286 0.931 . S
H305 C287 0.929 . S
H306 C288 0.930 . S
H307 C291 0.930 . S
H308 C292 0.931 . S
H309 C296 0.928 . S
H310 C295 0.929 . S
H311 C293 0.932 . S
Sm312 C314 2.846 . S
Sm312 O332 2.543 . S
Sm312 O333 2.450 . S
Sm312 O334 2.681 1_545 S
Sm312 O335 2.464 1_545 S
Sm312 O336 2.396 . S
Sm312 O340 2.386 1_455 S
Sm312 O343 2.408 1_445 S
Sm313 C323 2.846 . S
Sm313 O334 2.386 1_655 S
Sm313 O337 2.408 1_665 S
Sm313 O338 2.543 . S
Sm313 O339 2.450 . S
Sm313 O340 2.681 1_565 S
Sm313 O341 2.464 1_565 S
Sm313 O342 2.396 . S
C314 Sm312 2.846 . S
C314 C315 1.506 . S
C314 O332 1.261 . S
C314 O333 1.242 . S
C315 C314 1.506 . S
C315 C316 1.358 . S
C315 C320 1.382 . S
C316 C315 1.358 . S
C316 C317 1.385 . S
C316 H344 0.930 . S
C317 C316 1.385 . S
C317 C318 1.395 . S
C317 H345 0.929 . S
C318 C317 1.395 . S
C318 C319 1.335 . S
C319 C318 1.335 . S
C319 C320 1.398 . S
C319 H346 0.930 . S
C320 C315 1.382 . S
C320 C319 1.398 . S
C320 H347 0.929 . S
C321 O334 1.271 . S
C321 O335 1.251 . S
C322 O336 1.252 . S
C322 O337 1.272 . S
C323 Sm313 2.846 . S
C323 C324 1.506 . S
C323 O338 1.261 . S
C323 O339 1.242 . S
C324 C323 1.506 . S
C324 C325 1.358 . S
C324 C329 1.382 . S
C325 C324 1.358 . S
C325 C326 1.385 . S
C325 H348 0.930 . S
C326 C325 1.385 . S
C326 C327 1.395 . S
C326 H349 0.929 . S
C327 C326 1.395 . S
C327 C328 1.335 . S
C328 C327 1.335 . S
C328 C329 1.398 . S
C328 H350 0.930 . S
C329 C324 1.382 . S
C329 C328 1.398 . S
C329 H351 0.929 . S
C330 O340 1.271 . S
C330 O341 1.251 . S
C331 O342 1.252 . S
C331 O343 1.272 . S
O332 Sm312 2.543 . S
O332 C314 1.261 . S
O333 Sm312 2.450 . S
O333 C314 1.242 . S
O334 Sm312 2.681 1_565 S
O334 Sm313 2.386 1_455 S
O334 C321 1.271 . S
O335 Sm312 2.464 1_565 S
O335 C321 1.251 . S
O336 Sm312 2.396 . S
O336 C322 1.252 . S
O337 Sm313 2.408 1_445 S
O337 C322 1.272 . S
O338 Sm313 2.543 . S
O338 C323 1.261 . S
O339 Sm313 2.450 . S
O339 C323 1.242 . S
O340 Sm312 2.386 1_655 S
O340 Sm313 2.681 1_545 S
O340 C330 1.271 . S
O341 Sm313 2.464 1_545 S
O341 C330 1.251 . S
O342 Sm313 2.396 . S
O342 C331 1.252 . S
O343 Sm312 2.408 1_665 S
O343 C331 1.272 . S
H344 C316 0.930 . S
H345 C317 0.929 . S
H346 C319 0.930 . S
H347 C320 0.929 . S
H348 C325 0.930 . S
H349 C326 0.929 . S
H350 C328 0.930 . S
H351 C329 0.929 . S
Sm352 C354 2.842 1_565 S
Sm352 O372 2.536 1_565 S
Sm352 O373 2.449 1_565 S
Sm352 O374 2.684 . S
Sm352 O375 2.470 . S
Sm352 O376 2.391 1_565 S
Sm352 O380 2.380 1_564 S
Sm352 O383 2.413 1_554 S
Sm353 C363 2.846 1_545 S
Sm353 O374 2.386 1_546 S
Sm353 O377 2.408 1_556 S
Sm353 O378 2.543 1_545 S
Sm353 O379 2.450 1_545 S
Sm353 O380 2.681 . S
Sm353 O381 2.464 . S
Sm353 O382 2.396 1_545 S
C354 Sm352 2.842 1_545 S
C354 C355 1.506 . S
C354 O372 1.261 . S
C354 O373 1.242 . S
C355 C354 1.506 . S
C355 C356 1.358 . S
C355 C360 1.382 . S
C356 C355 1.358 . S
C356 C357 1.385 . S
C356 H384 0.930 . S
C357 C356 1.385 . S
C357 C358 1.395 . S
C357 H385 0.929 . S
C358 C357 1.395 . S
C358 C359 1.335 . S
C359 C358 1.335 . S
C359 C360 1.398 . S
C359 H386 0.930 . S
C360 C355 1.382 . S
C360 C359 1.398 . S
C360 H387 0.929 . S
C361 O374 1.271 . S
C361 O375 1.251 . S
C362 O376 1.252 . S
C362 O377 1.272 . S
C363 Sm353 2.846 1_565 S
C363 C364 1.506 . S
C363 O378 1.261 . S
C363 O379 1.242 . S
C364 C363 1.506 . S
C364 C365 1.358 . S
C364 C369 1.382 . S
C365 C364 1.358 . S
C365 C366 1.385 . S
C365 H388 0.930 . S
C366 C365 1.385 . S
C366 C367 1.395 . S
C366 H389 0.929 . S
C367 C366 1.395 . S
C367 C368 1.335 . S
C368 C367 1.335 . S
C368 C369 1.398 . S
C368 H390 0.930 . S
C369 C364 1.382 . S
C369 C368 1.398 . S
C369 H391 0.929 . S
C370 O380 1.271 . S
C370 O381 1.251 . S
C371 O382 1.252 . S
C371 O383 1.272 . S
O372 Sm352 2.536 1_545 S
O372 C354 1.261 . S
O373 Sm352 2.449 1_545 S
O373 C354 1.242 . S
O374 Sm352 2.684 . S
O374 Sm353 2.386 1_564 S
O374 C361 1.271 . S
O375 Sm352 2.470 . S
O375 C361 1.251 . S
O376 Sm352 2.391 1_545 S
O376 C362 1.252 . S
O377 Sm353 2.408 1_554 S
O377 C362 1.272 . S
O378 Sm353 2.543 1_565 S
O378 C363 1.261 . S
O379 Sm353 2.450 1_565 S
O379 C363 1.242 . S
O380 Sm352 2.380 1_546 S
O380 Sm353 2.681 . S
O380 C370 1.271 . S
O381 Sm353 2.464 . S
O381 C370 1.251 . S
O382 Sm353 2.396 1_565 S
O382 C371 1.252 . S
O383 Sm352 2.413 1_556 S
O383 C371 1.272 . S
H384 C356 0.930 . S
H385 C357 0.929 . S
H386 C359 0.930 . S
H387 C360 0.929 . S
H388 C365 0.930 . S
H389 C366 0.929 . S
H390 C368 0.930 . S
H391 C369 0.929 . S
Sm392 C394 2.846 . S
Sm392 O412 2.543 . S
Sm392 O413 2.450 . S
Sm392 O414 2.681 . S
Sm392 O415 2.464 . S
Sm392 O416 2.396 . S
Sm392 O420 2.386 . S
Sm392 O423 2.408 . S
Sm393 C403 2.846 . S
Sm393 O414 2.386 . S
Sm393 O417 2.408 . S
Sm393 O418 2.543 . S
Sm393 O419 2.450 . S
Sm393 O420 2.681 . S
Sm393 O421 2.464 . S
Sm393 O422 2.396 . S
C394 Sm392 2.846 . S
C394 C395 1.506 . S
C394 O412 1.261 . S
C394 O413 1.242 . S
C395 C394 1.506 . S
C395 C396 1.358 . S
C395 C400 1.382 . S
C396 C395 1.358 . S
C396 C397 1.385 . S
C396 H424 0.930 . S
C397 C396 1.385 . S
C397 C398 1.395 . S
C397 H425 0.929 . S
C398 C397 1.395 . S
C398 C399 1.335 . S
C399 C398 1.335 . S
C399 C400 1.398 . S
C399 H426 0.930 . S
C400 C395 1.382 . S
C400 C399 1.398 . S
C400 H427 0.929 . S
C401 O414 1.271 . S
C401 O415 1.251 . S
C402 O416 1.252 . S
C402 O417 1.272 . S
C403 Sm393 2.846 . S
C403 C404 1.506 . S
C403 O418 1.261 . S
C403 O419 1.242 . S
C404 C403 1.506 . S
C404 C405 1.358 . S
C404 C409 1.382 . S
C405 C404 1.358 . S
C405 C406 1.385 . S
C405 H428 0.930 . S
C406 C405 1.385 . S
C406 C407 1.395 . S
C406 H429 0.929 . S
C407 C406 1.395 . S
C407 C408 1.335 . S
C408 C407 1.335 . S
C408 C409 1.398 . S
C408 H430 0.930 . S
C409 C404 1.382 . S
C409 C408 1.398 . S
C409 H431 0.929 . S
C410 O420 1.271 . S
C410 O421 1.251 . S
C411 O422 1.252 . S
C411 O423 1.272 . S
O412 Sm392 2.543 . S
O412 C394 1.261 . S
O413 Sm392 2.450 . S
O413 C394 1.242 . S
O414 Sm392 2.681 . S
O414 Sm393 2.386 . S
O414 C401 1.271 . S
O415 Sm392 2.464 . S
O415 C401 1.251 . S
O416 Sm392 2.396 . S
O416 C402 1.252 . S
O417 Sm393 2.408 . S
O417 C402 1.272 . S
O418 Sm393 2.543 . S
O418 C403 1.261 . S
O419 Sm393 2.450 . S
O419 C403 1.242 . S
O420 Sm392 2.386 . S
O420 Sm393 2.681 . S
O420 C410 1.271 . S
O421 Sm393 2.464 . S
O421 C410 1.251 . S
O422 Sm393 2.396 . S
O422 C411 1.252 . S
O423 Sm392 2.408 . S
O423 C411 1.272 . S
H424 C396 0.930 . S
H425 C397 0.929 . S
H426 C399 0.930 . S
H427 C400 0.929 . S
H428 C405 0.930 . S
H429 C406 0.929 . S
H430 C408 0.930 . S
H431 C409 0.929 . S
Sm432 C434 2.846 . S
Sm432 O452 2.543 . S
Sm432 O453 2.450 . S
Sm432 O454 2.681 1_455 S
Sm432 O455 2.464 1_455 S
Sm432 O456 2.396 . S
Sm432 O460 2.386 1_554 S
Sm432 O463 2.408 1_454 S
Sm433 C443 2.846 . S
Sm433 O454 2.386 1_556 S
Sm433 O457 2.408 1_656 S
Sm433 O458 2.543 . S
Sm433 O459 2.450 . S
Sm433 O460 2.681 1_655 S
Sm433 O461 2.464 1_655 S
Sm433 O462 2.396 . S
C434 Sm432 2.846 . S
C434 C435 1.506 . S
C434 O452 1.261 . S
C434 O453 1.242 . S
C435 C434 1.506 . S
C435 C436 1.358 . S
C435 C440 1.382 . S
C436 C435 1.358 . S
C436 C437 1.385 . S
C436 H464 0.930 . S
C437 C436 1.385 . S
C437 C438 1.395 . S
C437 H465 0.929 . S
C438 C437 1.395 . S
C438 C439 1.335 . S
C439 C438 1.335 . S
C439 C440 1.398 . S
C439 H466 0.930 . S
C440 C435 1.382 . S
C440 C439 1.398 . S
C440 H467 0.929 . S
C441 O454 1.271 . S
C441 O455 1.251 . S
C442 O456 1.252 . S
C442 O457 1.272 . S
C443 Sm433 2.846 . S
C443 C444 1.506 . S
C443 O458 1.261 . S
C443 O459 1.242 . S
C444 C443 1.506 . S
C444 C445 1.358 . S
C444 C449 1.382 . S
C445 C444 1.358 . S
C445 C446 1.385 . S
C445 H468 0.930 . S
C446 C445 1.385 . S
C446 C447 1.395 . S
C446 H469 0.929 . S
C447 C446 1.395 . S
C447 C448 1.335 . S
C448 C447 1.335 . S
C448 C449 1.398 . S
C448 H470 0.930 . S
C449 C444 1.382 . S
C449 C448 1.398 . S
C449 H471 0.929 . S
C450 O460 1.271 . S
C450 O461 1.251 . S
C451 O462 1.252 . S
C451 O463 1.272 . S
O452 Sm432 2.543 . S
O452 C434 1.261 . S
O453 Sm432 2.450 . S
O453 C434 1.242 . S
O454 Sm432 2.681 1_655 S
O454 Sm433 2.386 1_554 S
O454 C441 1.271 . S
O455 Sm432 2.464 1_655 S
O455 C441 1.251 . S
O456 Sm432 2.396 . S
O456 C442 1.252 . S
O457 Sm433 2.408 1_454 S
O457 C442 1.272 . S
O458 Sm433 2.543 . S
O458 C443 1.261 . S
O459 Sm433 2.450 . S
O459 C443 1.242 . S
O460 Sm432 2.386 1_556 S
O460 Sm433 2.681 1_455 S
O460 C450 1.271 . S
O461 Sm433 2.464 1_455 S
O461 C450 1.251 . S
O462 Sm433 2.396 . S
O462 C451 1.252 . S
O463 Sm432 2.408 1_656 S
O463 C451 1.272 . S
H464 C436 0.930 . S
H465 C437 0.929 . S
H466 C439 0.930 . S
H467 C440 0.929 . S
H468 C445 0.930 . S
H469 C446 0.929 . S
H470 C448 0.930 . S
H471 C449 0.929 . S
H472 C480 0.950 . S
H473 C485 0.950 . S
H474 C482 0.950 . S
H475 C484 0.950 . S
H476 C486 0.950 . S
H477 C488 0.950 . S
H478 C490 0.950 . S
H479 C491 0.950 . S
C480 H472 0.950 . S
C480 C481 1.386 . S
C480 C482 1.391 . S
C481 C480 1.386 . S
C481 C485 1.393 . S
C482 H474 0.950 . S
C482 C480 1.391 . S
C482 C483 1.400 . S
C483 C482 1.400 . S
C483 C484 1.398 . S
C483 C489 1.491 . S
C484 H475 0.950 . S
C484 C483 1.398 . S
C484 C485 1.391 . S
C485 H473 0.950 . S
C485 C481 1.393 . S
C485 C484 1.391 . S
C486 H476 0.950 . S
C486 C487 1.386 . S
C486 C488 1.391 . S
C487 C486 1.386 . S
C487 C491 1.393 . S
C488 H477 0.950 . S
C488 C486 1.391 . S
C488 C489 1.400 . S
C489 C483 1.491 . S
C489 C488 1.400 . S
C489 C490 1.398 . S
C490 H478 0.950 . S
C490 C489 1.398 . S
C490 C491 1.391 . S
C491 H479 0.950 . S
C491 C487 1.393 . S
C491 C490 1.391 . S
H492 C500 0.950 . S
H493 C505 0.950 . S
H494 C502 0.950 . S
H495 C504 0.950 . S
H496 C506 0.950 . S
H497 C508 0.950 . S
H498 C510 0.950 . S
H499 C511 0.950 . S
C500 H492 0.950 . S
C500 C501 1.386 . S
C500 C502 1.391 . S
C501 C500 1.386 . S
C501 C505 1.393 . S
C502 H494 0.950 . S
C502 C500 1.391 . S
C502 C503 1.400 . S
C503 C502 1.400 . S
C503 C504 1.398 . S
C503 C509 1.491 . S
C504 H495 0.950 . S
C504 C503 1.398 . S
C504 C505 1.391 . S
C505 H493 0.950 . S
C505 C501 1.393 . S
C505 C504 1.391 . S
C506 H496 0.950 . S
C506 C507 1.386 . S
C506 C508 1.391 . S
C507 C506 1.386 . S
C507 C511 1.393 . S
C508 H497 0.950 . S
C508 C506 1.391 . S
C508 C509 1.400 . S
C509 C503 1.491 . S
C509 C508 1.400 . S
C509 C510 1.398 . S
C510 H498 0.950 . S
C510 C509 1.398 . S
C510 C511 1.391 . S
C511 H499 0.950 . S
C511 C507 1.393 . S
C511 C510 1.391 . S
H512 C520 0.950 . S
H513 C525 0.950 . S
H514 C522 0.950 . S
H515 C524 0.950 . S
H516 C526 0.950 . S
H517 C528 0.950 . S
H518 C530 0.950 . S
H519 C531 0.950 . S
C520 H512 0.950 . S
C520 C521 1.386 . S
C520 C522 1.391 . S
C521 C520 1.386 . S
C521 C525 1.393 . S
C522 H514 0.950 . S
C522 C520 1.391 . S
C522 C523 1.400 . S
C523 C522 1.400 . S
C523 C524 1.398 . S
C523 C529 1.491 . S
C524 H515 0.950 . S
C524 C523 1.398 . S
C524 C525 1.391 . S
C525 H513 0.950 . S
C525 C521 1.393 . S
C525 C524 1.391 . S
C526 H516 0.950 . S
C526 C527 1.386 . S
C526 C528 1.391 . S
C527 C526 1.386 . S
C527 C531 1.393 . S
C528 H517 0.950 . S
C528 C526 1.391 . S
C528 C529 1.400 . S
C529 C523 1.491 . S
C529 C528 1.400 . S
C529 C530 1.398 . S
C530 H518 0.950 . S
C530 C529 1.398 . S
C530 C531 1.391 . S
C531 H519 0.950 . S
C531 C527 1.393 . S
C531 C530 1.391 . S
H532 C540 0.950 . S
H533 C545 0.950 . S
H534 C542 0.950 . S
H535 C544 0.950 . S
H536 C546 0.950 . S
H537 C548 0.950 . S
H538 C550 0.950 . S
H539 C551 0.950 . S
C540 H532 0.950 . S
C540 C541 1.386 . S
C540 C542 1.391 . S
C541 C540 1.386 . S
C541 C545 1.393 . S
C542 H534 0.950 . S
C542 C540 1.391 . S
C542 C543 1.400 . S
C543 C542 1.400 . S
C543 C544 1.398 . S
C543 C549 1.491 . S
C544 H535 0.950 . S
C544 C543 1.398 . S
C544 C545 1.391 . S
C545 H533 0.950 . S
C545 C541 1.393 . S
C545 C544 1.391 . S
C546 H536 0.950 . S
C546 C547 1.386 . S
C546 C548 1.391 . S
C547 C546 1.386 . S
C547 C551 1.393 . S
C548 H537 0.950 . S
C548 C546 1.391 . S
C548 C549 1.400 . S
C549 C543 1.491 . S
C549 C548 1.400 . S
C549 C550 1.398 . S
C550 H538 0.950 . S
C550 C549 1.398 . S
C550 C551 1.391 . S
C551 H539 0.950 . S
C551 C547 1.393 . S
C551 C550 1.391 . S
H552 C560 0.950 . S
H553 C565 0.950 . S
H554 C562 0.950 . S
H555 C564 0.950 . S
H556 C566 0.950 . S
H557 C568 0.950 . S
H558 C570 0.950 . S
H559 C571 0.950 . S
C560 H552 0.950 . S
C560 C561 1.386 . S
C560 C562 1.391 . S
C561 C560 1.386 . S
C561 C565 1.393 . S
C562 H554 0.950 . S
C562 C560 1.391 . S
C562 C563 1.400 . S
C563 C562 1.400 . S
C563 C564 1.398 . S
C563 C569 1.491 . S
C564 H555 0.950 . S
C564 C563 1.398 . S
C564 C565 1.391 . S
C565 H553 0.950 . S
C565 C561 1.393 . S
C565 C564 1.391 . S
C566 H556 0.950 . S
C566 C567 1.386 . S
C566 C568 1.391 . S
C567 C566 1.386 . S
C567 C571 1.393 . S
C568 H557 0.950 . S
C568 C566 1.391 . S
C568 C569 1.400 . S
C569 C563 1.491 . S
C569 C568 1.400 . S
C569 C570 1.398 . S
C570 H558 0.950 . S
C570 C569 1.398 . S
C570 C571 1.391 . S
C571 H559 0.950 . S
C571 C567 1.393 . S
C571 C570 1.391 . S
H572 C580 0.950 . S
H573 C585 0.950 . S
H574 C582 0.950 . S
H575 C584 0.950 . S
H576 C586 0.950 . S
H577 C588 0.950 . S
H578 C590 0.950 . S
H579 C591 0.950 . S
C580 H572 0.950 . S
C580 C581 1.386 . S
C580 C582 1.391 . S
C581 C580 1.386 . S
C581 C585 1.393 . S
C582 H574 0.950 . S
C582 C580 1.391 . S
C582 C583 1.400 . S
C583 C582 1.400 . S
C583 C584 1.398 . S
C583 C589 1.491 . S
C584 H575 0.950 . S
C584 C583 1.398 . S
C584 C585 1.391 . S
C585 H573 0.950 . S
C585 C581 1.393 . S
C585 C584 1.391 . S
C586 H576 0.950 . S
C586 C587 1.386 . S
C586 C588 1.391 . S
C587 C586 1.386 . S
C587 C591 1.393 . S
C588 H577 0.950 . S
C588 C586 1.391 . S
C588 C589 1.400 . S
C589 C583 1.491 . S
C589 C588 1.400 . S
C589 C590 1.398 . S
C590 H578 0.950 . S
C590 C589 1.398 . S
C590 C591 1.391 . S
C591 H579 0.950 . S
C591 C587 1.393 . S
C591 C590 1.391 . S
H592 C600 0.950 . S
H593 C605 0.950 . S
H594 C602 0.950 . S
H595 C604 0.950 . S
H596 C606 0.950 . S
H597 C608 0.950 . S
H598 C610 0.950 . S
H599 C611 0.950 . S
C600 H592 0.950 . S
C600 C601 1.386 . S
C600 C602 1.391 . S
C601 C600 1.386 . S
C601 C605 1.393 . S
C602 H594 0.950 . S
C602 C600 1.391 . S
C602 C603 1.400 . S
C603 C602 1.400 . S
C603 C604 1.398 . S
C603 C609 1.491 . S
C604 H595 0.950 . S
C604 C603 1.398 . S
C604 C605 1.391 . S
C605 H593 0.950 . S
C605 C601 1.393 . S
C605 C604 1.391 . S
C606 H596 0.950 . S
C606 C607 1.386 . S
C606 C608 1.391 . S
C607 C606 1.386 . S
C607 C611 1.393 . S
C608 H597 0.950 . S
C608 C606 1.391 . S
C608 C609 1.400 . S
C609 C603 1.491 . S
C609 C608 1.400 . S
C609 C610 1.398 . S
C610 H598 0.950 . S
C610 C609 1.398 . S
C610 C611 1.391 . S
C611 H599 0.950 . S
C611 C607 1.393 . S
C611 C610 1.391 . S
H612 C620 0.950 . S
H613 C625 0.950 . S
H614 C622 0.950 . S
H615 C624 0.950 . S
H616 C626 0.950 . S
H617 C628 0.950 . S
H618 C630 0.950 . S
H619 C631 0.950 . S
C620 H612 0.950 . S
C620 C621 1.386 . S
C620 C622 1.391 . S
C621 C620 1.386 . S
C621 C625 1.393 . S
C622 H614 0.950 . S
C622 C620 1.391 . S
C622 C623 1.400 . S
C623 C622 1.400 . S
C623 C624 1.398 . S
C623 C629 1.491 . S
C624 H615 0.950 . S
C624 C623 1.398 . S
C624 C625 1.391 . S
C625 H613 0.950 . S
C625 C621 1.393 . S
C625 C624 1.391 . S
C626 H616 0.950 . S
C626 C627 1.386 . S
C626 C628 1.391 . S
C627 C626 1.386 . S
C627 C631 1.393 . S
C628 H617 0.950 . S
C628 C626 1.391 . S
C628 C629 1.400 . S
C629 C623 1.491 . S
C629 C628 1.400 . S
C629 C630 1.398 . S
C630 H618 0.950 . S
C630 C629 1.398 . S
C630 C631 1.391 . S
C631 H619 0.950 . S
C631 C627 1.393 . S
C631 C630 1.391 . S
H632 C640 0.950 . S
H633 C645 0.950 . S
H634 C642 0.950 . S
H635 C644 0.950 . S
H636 C646 0.950 . S
H637 C648 0.950 . S
H638 C650 0.950 . S
H639 C651 0.950 . S
C640 H632 0.950 . S
C640 C641 1.386 . S
C640 C642 1.391 . S
C641 C640 1.386 . S
C641 C645 1.393 . S
C642 H634 0.950 . S
C642 C640 1.391 . S
C642 C643 1.400 . S
C643 C642 1.400 . S
C643 C644 1.398 . S
C643 C649 1.491 . S
C644 H635 0.950 . S
C644 C643 1.398 . S
C644 C645 1.391 . S
C645 H633 0.950 . S
C645 C641 1.393 . S
C645 C644 1.391 . S
C646 H636 0.950 . S
C646 C647 1.386 . S
C646 C648 1.391 . S
C647 C646 1.386 . S
C647 C651 1.393 . S
C648 H637 0.950 . S
C648 C646 1.391 . S
C648 C649 1.400 . S
C649 C643 1.491 . S
C649 C648 1.400 . S
C649 C650 1.398 . S
C650 H638 0.950 . S
C650 C649 1.398 . S
C650 C651 1.391 . S
C651 H639 0.950 . S
C651 C647 1.393 . S
C651 C650 1.391 . S
H652 C660 0.950 . S
H653 C665 0.950 . S
H654 C662 0.950 . S
H655 C664 0.950 . S
H656 C666 0.950 . S
H657 C668 0.950 . S
H658 C670 0.950 . S
H659 C671 0.950 . S
C660 H652 0.950 . S
C660 C661 1.386 . S
C660 C662 1.391 . S
C661 C660 1.386 . S
C661 C665 1.393 . S
C662 H654 0.950 . S
C662 C660 1.391 . S
C662 C663 1.400 . S
C663 C662 1.400 . S
C663 C664 1.398 . S
C663 C669 1.491 . S
C664 H655 0.950 . S
C664 C663 1.398 . S
C664 C665 1.391 . S
C665 H653 0.950 . S
C665 C661 1.393 . S
C665 C664 1.391 . S
C666 H656 0.950 . S
C666 C667 1.386 . S
C666 C668 1.391 . S
C667 C666 1.386 . S
C667 C671 1.393 . S
C668 H657 0.950 . S
C668 C666 1.391 . S
C668 C669 1.400 . S
C669 C663 1.491 . S
C669 C668 1.400 . S
C669 C670 1.398 . S
C670 H658 0.950 . S
C670 C669 1.398 . S
C670 C671 1.391 . S
C671 H659 0.950 . S
C671 C667 1.393 . S
C671 C670 1.391 . S
H672 C680 0.950 . S
H673 C685 0.950 . S
H674 C682 0.950 . S
H675 C684 0.950 . S
H676 C686 0.950 . S
H677 C688 0.950 . S
H678 C690 0.950 . S
H679 C691 0.950 . S
C680 H672 0.950 . S
C680 C681 1.386 . S
C680 C682 1.391 . S
C681 C680 1.386 . S
C681 C685 1.393 . S
C682 H674 0.950 . S
C682 C680 1.391 . S
C682 C683 1.400 . S
C683 C682 1.400 . S
C683 C684 1.398 . S
C683 C689 1.491 . S
C684 H675 0.950 . S
C684 C683 1.398 . S
C684 C685 1.391 . S
C685 H673 0.950 . S
C685 C681 1.393 . S
C685 C684 1.391 . S
C686 H676 0.950 . S
C686 C687 1.386 . S
C686 C688 1.391 . S
C687 C686 1.386 . S
C687 C691 1.393 . S
C688 H677 0.950 . S
C688 C686 1.391 . S
C688 C689 1.400 . S
C689 C683 1.491 . S
C689 C688 1.400 . S
C689 C690 1.398 . S
C690 H678 0.950 . S
C690 C689 1.398 . S
C690 C691 1.391 . S
C691 H679 0.950 . S
C691 C687 1.393 . S
C691 C690 1.391 . S
H692 C700 0.950 . S
H693 C705 0.950 . S
H694 C702 0.950 . S
H695 C704 0.950 . S
H696 C706 0.950 . S
H697 C708 0.950 . S
H698 C710 0.950 . S
H699 C711 0.950 . S
C700 H692 0.950 . S
C700 C701 1.386 . S
C700 C702 1.391 . S
C701 C700 1.386 . S
C701 C705 1.393 . S
C702 H694 0.950 . S
C702 C700 1.391 . S
C702 C703 1.400 . S
C703 C702 1.400 . S
C703 C704 1.398 . S
C703 C709 1.491 . S
C704 H695 0.950 . S
C704 C703 1.398 . S
C704 C705 1.391 . S
C705 H693 0.950 . S
C705 C701 1.393 . S
C705 C704 1.391 . S
C706 H696 0.950 . S
C706 C707 1.386 . S
C706 C708 1.391 . S
C707 C706 1.386 . S
C707 C711 1.393 . S
C708 H697 0.950 . S
C708 C706 1.391 . S
C708 C709 1.400 . S
C709 C703 1.491 . S
C709 C708 1.400 . S
C709 C710 1.398 . S
C710 H698 0.950 . S
C710 C709 1.398 . S
C710 C711 1.391 . S
C711 H699 0.950 . S
C711 C707 1.393 . S
C711 C710 1.391 . S
H712 C720 0.950 . S
H713 C725 0.950 . S
H714 C722 0.950 . S
H715 C724 0.950 . S
H716 C726 0.950 . S
H717 C728 0.950 . S
H718 C730 0.950 . S
H719 C731 0.950 . S
C720 H712 0.950 . S
C720 C721 1.386 . S
C720 C722 1.391 . S
C721 C720 1.386 . S
C721 C725 1.393 . S
C722 H714 0.950 . S
C722 C720 1.391 . S
C722 C723 1.400 . S
C723 C722 1.400 . S
C723 C724 1.398 . S
C723 C729 1.491 . S
C724 H715 0.950 . S
C724 C723 1.398 . S
C724 C725 1.391 . S
C725 H713 0.950 . S
C725 C721 1.393 . S
C725 C724 1.391 . S
C726 H716 0.950 . S
C726 C727 1.386 . S
C726 C728 1.391 . S
C727 C726 1.386 . S
C727 C731 1.393 . S
C728 H717 0.950 . S
C728 C726 1.391 . S
C728 C729 1.400 . S
C729 C723 1.491 . S
C729 C728 1.400 . S
C729 C730 1.398 . S
C730 H718 0.950 . S
C730 C729 1.398 . S
C730 C731 1.391 . S
C731 H719 0.950 . S
C731 C727 1.393 . S
C731 C730 1.391 . S
H732 C740 0.950 . S
H733 C745 0.950 . S
H734 C742 0.950 . S
H735 C744 0.950 . S
H736 C746 0.950 . S
H737 C748 0.950 . S
H738 C750 0.950 . S
H739 C751 0.950 . S
C740 H732 0.950 . S
C740 C741 1.386 . S
C740 C742 1.391 . S
C741 C740 1.386 . S
C741 C745 1.393 . S
C742 H734 0.950 . S
C742 C740 1.391 . S
C742 C743 1.400 . S
C743 C742 1.400 . S
C743 C744 1.398 . S
C743 C749 1.491 . S
C744 H735 0.950 . S
C744 C743 1.398 . S
C744 C745 1.391 . S
C745 H733 0.950 . S
C745 C741 1.393 . S
C745 C744 1.391 . S
C746 H736 0.950 . S
C746 C747 1.386 . S
C746 C748 1.391 . S
C747 C746 1.386 . S
C747 C751 1.393 . S
C748 H737 0.950 . S
C748 C746 1.391 . S
C748 C749 1.400 . S
C749 C743 1.491 . S
C749 C748 1.400 . S
C749 C750 1.398 . S
C750 H738 0.950 . S
C750 C749 1.398 . S
C750 C751 1.391 . S
C751 H739 0.950 . S
C751 C747 1.393 . S
C751 C750 1.391 . S
H752 C760 0.950 . S
H753 C765 0.950 . S
H754 C762 0.950 . S
H755 C764 0.950 . S
H756 C766 0.950 . S
H757 C768 0.950 . S
H758 C770 0.950 . S
H759 C771 0.950 . S
C760 H752 0.950 . S
C760 C761 1.386 . S
C760 C762 1.391 . S
C761 C760 1.386 . S
C761 C765 1.393 . S
C762 H754 0.950 . S
C762 C760 1.391 . S
C762 C763 1.400 . S
C763 C762 1.400 . S
C763 C764 1.398 . S
C763 C769 1.491 . S
C764 H755 0.950 . S
C764 C763 1.398 . S
C764 C765 1.391 . S
C765 H753 0.950 . S
C765 C761 1.393 . S
C765 C764 1.391 . S
C766 H756 0.950 . S
C766 C767 1.386 . S
C766 C768 1.391 . S
C767 C766 1.386 . S
C767 C771 1.393 . S
C768 H757 0.950 . S
C768 C766 1.391 . S
C768 C769 1.400 . S
C769 C763 1.491 . S
C769 C768 1.400 . S
C769 C770 1.398 . S
C770 H758 0.950 . S
C770 C769 1.398 . S
C770 C771 1.391 . S
C771 H759 0.950 . S
C771 C767 1.393 . S
C771 C770 1.391 . S
H772 C780 0.950 . S
H773 C785 0.950 . S
H774 C782 0.950 . S
H775 C784 0.950 . S
H776 C786 0.950 . S
H777 C788 0.950 . S
H778 C790 0.950 . S
H779 C791 0.950 . S
C780 H772 0.950 . S
C780 C781 1.386 . S
C780 C782 1.391 . S
C781 C780 1.386 . S
C781 C785 1.393 . S
C782 H774 0.950 . S
C782 C780 1.391 . S
C782 C783 1.400 . S
C783 C782 1.400 . S
C783 C784 1.398 . S
C783 C789 1.491 . S
C784 H775 0.950 . S
C784 C783 1.398 . S
C784 C785 1.391 . S
C785 H773 0.950 . S
C785 C781 1.393 . S
C785 C784 1.391 . S
C786 H776 0.950 . S
C786 C787 1.386 . S
C786 C788 1.391 . S
C787 C786 1.386 . S
C787 C791 1.393 . S
C788 H777 0.950 . S
C788 C786 1.391 . S
C788 C789 1.400 . S
C789 C783 1.491 . S
C789 C788 1.400 . S
C789 C790 1.398 . S
C790 H778 0.950 . S
C790 C789 1.398 . S
C790 C791 1.391 . S
C791 H779 0.950 . S
C791 C787 1.393 . S
C791 C790 1.391 . S
H792 C800 0.950 . S
H793 C805 0.950 . S
H794 C802 0.950 . S
H795 C804 0.950 . S
H796 C806 0.950 . S
H797 C808 0.950 . S
H798 C810 0.950 . S
H799 C811 0.950 . S
C800 H792 0.950 . S
C800 C801 1.386 . S
C800 C802 1.391 . S
C801 C800 1.386 . S
C801 C805 1.393 . S
C802 H794 0.950 . S
C802 C800 1.391 . S
C802 C803 1.400 . S
C803 C802 1.400 . S
C803 C804 1.398 . S
C803 C809 1.491 . S
C804 H795 0.950 . S
C804 C803 1.398 . S
C804 C805 1.391 . S
C805 H793 0.950 . S
C805 C801 1.393 . S
C805 C804 1.391 . S
C806 H796 0.950 . S
C806 C807 1.386 . S
C806 C808 1.391 . S
C807 C806 1.386 . S
C807 C811 1.393 . S
C808 H797 0.950 . S
C808 C806 1.391 . S
C808 C809 1.400 . S
C809 C803 1.491 . S
C809 C808 1.400 . S
C809 C810 1.398 . S
C810 H798 0.950 . S
C810 C809 1.398 . S
C810 C811 1.391 . S
C811 H799 0.950 . S
C811 C807 1.393 . S
C811 C810 1.391 . S
H812 C820 0.950 . S
H813 C825 0.950 . S
H814 C822 0.950 . S
H815 C824 0.950 . S
H816 C826 0.950 . S
H817 C828 0.950 . S
H818 C830 0.950 . S
H819 C831 0.950 . S
C820 H812 0.950 . S
C820 C821 1.386 . S
C820 C822 1.391 . S
C821 C820 1.386 . S
C821 C825 1.393 . S
C822 H814 0.950 . S
C822 C820 1.391 . S
C822 C823 1.400 . S
C823 C822 1.400 . S
C823 C824 1.398 . S
C823 C829 1.491 . S
C824 H815 0.950 . S
C824 C823 1.398 . S
C824 C825 1.391 . S
C825 H813 0.950 . S
C825 C821 1.393 . S
C825 C824 1.391 . S
C826 H816 0.950 . S
C826 C827 1.386 . S
C826 C828 1.391 . S
C827 C826 1.386 . S
C827 C831 1.393 . S
C828 H817 0.950 . S
C828 C826 1.391 . S
C828 C829 1.400 . S
C829 C823 1.491 . S
C829 C828 1.400 . S
C829 C830 1.398 . S
C830 H818 0.950 . S
C830 C829 1.398 . S
C830 C831 1.391 . S
C831 H819 0.950 . S
C831 C827 1.393 . S
C831 C830 1.391 . S
H832 C840 0.950 . S
H833 C845 0.950 . S
H834 C842 0.950 . S
H835 C844 0.950 . S
H836 C846 0.950 . S
H837 C848 0.950 . S
H838 C850 0.950 . S
H839 C851 0.950 . S
C840 H832 0.950 . S
C840 C841 1.386 . S
C840 C842 1.391 . S
C841 C840 1.386 . S
C841 C845 1.393 . S
C842 H834 0.950 . S
C842 C840 1.391 . S
C842 C843 1.400 . S
C843 C842 1.400 . S
C843 C844 1.398 . S
C843 C849 1.491 . S
C844 H835 0.950 . S
C844 C843 1.398 . S
C844 C845 1.391 . S
C845 H833 0.950 . S
C845 C841 1.393 . S
C845 C844 1.391 . S
C846 H836 0.950 . S
C846 C847 1.386 . S
C846 C848 1.391 . S
C847 C846 1.386 . S
C847 C851 1.393 . S
C848 H837 0.950 . S
C848 C846 1.391 . S
C848 C849 1.400 . S
C849 C843 1.491 . S
C849 C848 1.400 . S
C849 C850 1.398 . S
C850 H838 0.950 . S
C850 C849 1.398 . S
C850 C851 1.391 . S
C851 H839 0.950 . S
C851 C847 1.393 . S
C851 C850 1.391 . S
H852 C860 0.950 . S
H853 C865 0.950 . S
H854 C862 0.950 . S
H855 C864 0.950 . S
H856 C866 0.950 . S
H857 C868 0.950 . S
H858 C870 0.950 . S
H859 C871 0.950 . S
C860 H852 0.950 . S
C860 C861 1.386 . S
C860 C862 1.391 . S
C861 C860 1.386 . S
C861 C865 1.393 . S
C862 H854 0.950 . S
C862 C860 1.391 . S
C862 C863 1.400 . S
C863 C862 1.400 . S
C863 C864 1.398 . S
C863 C869 1.491 . S
C864 H855 0.950 . S
C864 C863 1.398 . S
C864 C865 1.391 . S
C865 H853 0.950 . S
C865 C861 1.393 . S
C865 C864 1.391 . S
C866 H856 0.950 . S
C866 C867 1.386 . S
C866 C868 1.391 . S
C867 C866 1.386 . S
C867 C871 1.393 . S
C868 H857 0.950 . S
C868 C866 1.391 . S
C868 C869 1.400 . S
C869 C863 1.491 . S
C869 C868 1.400 . S
C869 C870 1.398 . S
C870 H858 0.950 . S
C870 C869 1.398 . S
C870 C871 1.391 . S
C871 H859 0.950 . S
C871 C867 1.393 . S
C871 C870 1.391 . S
H872 C880 0.950 . S
H873 C885 0.950 . S
H874 C882 0.950 . S
H875 C884 0.950 . S
H876 C886 0.950 . S
H877 C888 0.950 . S
H878 C890 0.950 . S
H879 C891 0.950 . S
C880 H872 0.950 . S
C880 C881 1.386 . S
C880 C882 1.391 . S
C881 C880 1.386 . S
C881 C885 1.393 . S
C882 H874 0.950 . S
C882 C880 1.391 . S
C882 C883 1.400 . S
C883 C882 1.400 . S
C883 C884 1.398 . S
C883 C889 1.491 . S
C884 H875 0.950 . S
C884 C883 1.398 . S
C884 C885 1.391 . S
C885 H873 0.950 . S
C885 C881 1.393 . S
C885 C884 1.391 . S
C886 H876 0.950 . S
C886 C887 1.386 . S
C886 C888 1.391 . S
C887 C886 1.386 . S
C887 C891 1.393 . S
C888 H877 0.950 . S
C888 C886 1.391 . S
C888 C889 1.400 . S
C889 C883 1.491 . S
C889 C888 1.400 . S
C889 C890 1.398 . S
C890 H878 0.950 . S
C890 C889 1.398 . S
C890 C891 1.391 . S
C891 H879 0.950 . S
C891 C887 1.393 . S
C891 C890 1.391 . S
H892 C900 0.950 . S
H893 C905 0.950 . S
H894 C902 0.950 . S
H895 C904 0.950 . S
H896 C906 0.950 . S
H897 C908 0.950 . S
H898 C910 0.950 . S
H899 C911 0.950 . S
C900 H892 0.950 . S
C900 C901 1.386 . S
C900 C902 1.391 . S
C901 C900 1.386 . S
C901 C905 1.393 . S
C902 H894 0.950 . S
C902 C900 1.391 . S
C902 C903 1.400 . S
C903 C902 1.400 . S
C903 C904 1.398 . S
C903 C909 1.491 . S
C904 H895 0.950 . S
C904 C903 1.398 . S
C904 C905 1.391 . S
C905 H893 0.950 . S
C905 C901 1.393 . S
C905 C904 1.391 . S
C906 H896 0.950 . S
C906 C907 1.386 . S
C906 C908 1.391 . S
C907 C906 1.386 . S
C907 C911 1.393 . S
C908 H897 0.950 . S
C908 C906 1.391 . S
C908 C909 1.400 . S
C909 C903 1.491 . S
C909 C908 1.400 . S
C909 C910 1.398 . S
C910 H898 0.950 . S
C910 C909 1.398 . S
C910 C911 1.391 . S
C911 H899 0.950 . S
C911 C907 1.393 . S
C911 C910 1.391 . S
H912 C920 0.950 . S
H913 C925 0.950 . S
H914 C922 0.950 . S
H915 C924 0.950 . S
H916 C926 0.950 . S
H917 C928 0.950 . S
H918 C930 0.950 . S
H919 C931 0.950 . S
C920 H912 0.950 . S
C920 C921 1.386 . S
C920 C922 1.391 . S
C921 C920 1.386 . S
C921 C925 1.393 . S
C922 H914 0.950 . S
C922 C920 1.391 . S
C922 C923 1.400 . S
C923 C922 1.400 . S
C923 C924 1.398 . S
C923 C929 1.491 . S
C924 H915 0.950 . S
C924 C923 1.398 . S
C924 C925 1.391 . S
C925 H913 0.950 . S
C925 C921 1.393 . S
C925 C924 1.391 . S
C926 H916 0.950 . S
C926 C927 1.386 . S
C926 C928 1.391 . S
C927 C926 1.386 . S
C927 C931 1.393 . S
C928 H917 0.950 . S
C928 C926 1.391 . S
C928 C929 1.400 . S
C929 C923 1.491 . S
C929 C928 1.400 . S
C929 C930 1.398 . S
C930 H918 0.950 . S
C930 C929 1.398 . S
C930 C931 1.391 . S
C931 H919 0.950 . S
C931 C927 1.393 . S
C931 C930 1.391 . S
H932 C940 0.950 . S
H933 C945 0.950 . S
H934 C942 0.950 . S
H935 C944 0.950 . S
H936 C946 0.950 . S
H937 C948 0.950 . S
H938 C950 0.950 . S
H939 C951 0.950 . S
C940 H932 0.950 . S
C940 C941 1.386 . S
C940 C942 1.391 . S
C941 C940 1.386 . S
C941 C945 1.393 . S
C942 H934 0.950 . S
C942 C940 1.391 . S
C942 C943 1.400 . S
C943 C942 1.400 . S
C943 C944 1.398 . S
C943 C949 1.491 . S
C944 H935 0.950 . S
C944 C943 1.398 . S
C944 C945 1.391 . S
C945 H933 0.950 . S
C945 C941 1.393 . S
C945 C944 1.391 . S
C946 H936 0.950 . S
C946 C947 1.386 . S
C946 C948 1.391 . S
C947 C946 1.386 . S
C947 C951 1.393 . S
C948 H937 0.950 . S
C948 C946 1.391 . S
C948 C949 1.400 . S
C949 C943 1.491 . S
C949 C948 1.400 . S
C949 C950 1.398 . S
C950 H938 0.950 . S
C950 C949 1.398 . S
C950 C951 1.391 . S
C951 H939 0.950 . S
C951 C947 1.393 . S
C951 C950 1.391 . S
C481 C1 1.236 . S
C487 C318 1.279 . S
C501 C40 0.975 . S
C507 C367 0.970 . S
C527 C402 2.477 . S
C521 C99 2.516 . S
C541 C118 2.380 . S
C547 C441 2.324 . S
C567 C362 2.501 . S
C561 C16 2.380 . S
C587 C321 0.855 . S
C581 C60 0.881 . S
C607 C451 1.915 . S
C601 C79 1.954 . S
C627 C410 1.572 . S
C621 C138 1.608 . S
C641 C21 1.668 . S
C647 C438 1.744 . S
C667 C370 2.339 . S
C661 C94 2.420 . S
C681 C133 2.326 . S
C687 C331 2.317 . S
C701 C55 0.841 . S
C707 C407 0.832 . S
C727 C327 1.295 . S
C721 C157 1.263 . S
C741 C196 0.970 . S
C747 C358 0.964 . S
C761 C255 2.514 . S
C767 C411 2.473 . S
C781 C289 2.377 . S
C787 C450 2.322 . S
C801 C172 2.377 . S
C807 C371 2.498 . S
C827 C330 0.871 . S
C821 C216 0.888 . S
C847 C442 1.915 . S
C841 C235 1.955 . S
C867 C401 1.571 . S
C861 C294 1.608 . S
C881 C177 1.683 . S
C887 C447 1.745 . S
C907 C361 2.328 . S
C901 C250 2.420 . S
C927 C322 2.321 . S
C921 C274 2.329 . S
C941 C211 0.810 . S
C947 C398 0.825 . S
