# Generated by pormake.
# Topology apo, (3,6)-cn, num edge types: 1
# Building blocks:
#     Node 0, Type 0, BuildingBlock: BETDIP_clean_linker_0, # of connection points: 3
#     Node 1, Type 0, BuildingBlock: BETDIP_clean_linker_0, # of connection points: 3
#     Node 2, Type 0, BuildingBlock: BETDIP_clean_linker_0, # of connection points: 3
#     Node 3, Type 0, BuildingBlock: BETDIP_clean_linker_0, # of connection points: 3
#     Node 4, Type 0, BuildingBlock: BETDIP_clean_linker_0, # of connection points: 3
#     Node 5, Type 0, BuildingBlock: BETDIP_clean_linker_0, # of connection points: 3
#     Node 6, Type 0, BuildingBlock: BETDIP_clean_linker_0, # of connection points: 3
#     Node 7, Type 0, BuildingBlock: BETDIP_clean_linker_0, # of connection points: 3
#     Node 8, Type 1, BuildingBlock: KUMBUR_clean_sbu_1, # of connection points: 6
#     Node 9, Type 1, BuildingBlock: KUMBUR_clean_sbu_1, # of connection points: 6
#     Node 10, Type 1, BuildingBlock: KUMBUR_clean_sbu_1, # of connection points: 6
#     Node 11, Type 1, BuildingBlock: KUMBUR_clean_sbu_1, # of connection points: 6
#     Edge 12, Type (0, 1), BuildingBlock: KIFKEQ_clean_linker_1, # of connection points: 2
#     Edge 13, Type (0, 1), BuildingBlock: KIFKEQ_clean_linker_1, # of connection points: 2
#     Edge 14, Type (0, 1), BuildingBlock: KIFKEQ_clean_linker_1, # of connection points: 2
#     Edge 15, Type (0, 1), BuildingBlock: KIFKEQ_clean_linker_1, # of connection points: 2
#     Edge 16, Type (0, 1), BuildingBlock: KIFKEQ_clean_linker_1, # of connection points: 2
#     Edge 17, Type (0, 1), BuildingBlock: KIFKEQ_clean_linker_1, # of connection points: 2
#     Edge 18, Type (0, 1), BuildingBlock: KIFKEQ_clean_linker_1, # of connection points: 2
#     Edge 19, Type (0, 1), BuildingBlock: KIFKEQ_clean_linker_1, # of connection points: 2
#     Edge 20, Type (0, 1), BuildingBlock: KIFKEQ_clean_linker_1, # of connection points: 2
#     Edge 21, Type (0, 1), BuildingBlock: KIFKEQ_clean_linker_1, # of connection points: 2
#     Edge 22, Type (0, 1), BuildingBlock: KIFKEQ_clean_linker_1, # of connection points: 2
#     Edge 23, Type (0, 1), BuildingBlock: KIFKEQ_clean_linker_1, # of connection points: 2
#     Edge 24, Type (0, 1), BuildingBlock: KIFKEQ_clean_linker_1, # of connection points: 2
#     Edge 25, Type (0, 1), BuildingBlock: KIFKEQ_clean_linker_1, # of connection points: 2
#     Edge 26, Type (0, 1), BuildingBlock: KIFKEQ_clean_linker_1, # of connection points: 2
#     Edge 27, Type (0, 1), BuildingBlock: KIFKEQ_clean_linker_1, # of connection points: 2
#     Edge 28, Type (0, 1), BuildingBlock: KIFKEQ_clean_linker_1, # of connection points: 2
#     Edge 29, Type (0, 1), BuildingBlock: KIFKEQ_clean_linker_1, # of connection points: 2
#     Edge 30, Type (0, 1), BuildingBlock: KIFKEQ_clean_linker_1, # of connection points: 2
#     Edge 31, Type (0, 1), BuildingBlock: KIFKEQ_clean_linker_1, # of connection points: 2
#     Edge 32, Type (0, 1), BuildingBlock: KIFKEQ_clean_linker_1, # of connection points: 2
#     Edge 33, Type (0, 1), BuildingBlock: KIFKEQ_clean_linker_1, # of connection points: 2
#     Edge 34, Type (0, 1), BuildingBlock: KIFKEQ_clean_linker_1, # of connection points: 2
#     Edge 35, Type (0, 1), BuildingBlock: KIFKEQ_clean_linker_1, # of connection points: 2
# Relax obj value: 0.037
# Max RMSD: 0.198
# Mean RMSD: 0.155
data_MOF--net-apo--node1-KUMBUR_clean_sbu_1--node2-BETDIP_clean_linker_0--edge1-KIFKEQ_clean_linker_1
_symmetry_space_group_name_H-M    P1
_symmetry_Int_Tables_number       1
_symmetry_cell_setting            triclinic
loop_
_symmetry_equiv_pos_as_xyz
'x, y, z'
_cell_length_a     27.886636
_cell_length_b     42.498467
_cell_length_c     52.030049
_cell_angle_alpha  89.952994
_cell_angle_beta   90.185967
_cell_angle_gamma 90.652359
loop_
_atom_site_label
_atom_site_type_symbol
_atom_site_fract_x
_atom_site_fract_y
_atom_site_fract_z
_atom_type_partial_charge
H0 H 0.28591 0.35623 0.45057 0.0
H1 H 0.30204 0.39205 0.37374 0.0
H2 H 0.3773 0.43676 0.43597 0.0
H3 H 0.22377 0.37332 0.37192 0.0
C4 C 0.22869 0.35019 0.3804 0.0
C5 C 0.30204 0.37305 0.43745 0.0
C6 C 0.33261 0.39709 0.44683 0.0
C7 C 0.2903 0.3713 0.41122 0.0
C8 C 0.3104 0.39338 0.39404 0.0
C9 C 0.34116 0.41739 0.40297 0.0
C10 C 0.35236 0.41882 0.42926 0.0
N11 N 0.25843 0.34708 0.40252 0.0
H12 H 0.21928 0.16559 0.9494 0.0
H13 H 0.21416 0.1239 0.87439 0.0
H14 H 0.13971 0.07929 0.93716 0.0
H15 H 0.30476 0.14367 0.88358 0.0
C16 C 0.28998 0.16713 0.8853 0.0
C17 C 0.20693 0.14674 0.93693 0.0
C18 C 0.17798 0.12221 0.94677 0.0
C19 C 0.22095 0.14695 0.91109 0.0
C20 C 0.20452 0.12303 0.89454 0.0
C21 C 0.1739 0.09898 0.90363 0.0
C22 C 0.16141 0.09859 0.92983 0.0
N23 N 0.25026 0.17202 0.90181 0.0
H24 H 0.76496 0.17038 0.5864 0.0
H25 H 0.782 0.12376 0.65867 0.0
H26 H 0.83868 0.08188 0.59007 0.0
H27 H 0.70972 0.14509 0.66633 0.0
C28 C 0.71285 0.16837 0.65783 0.0
C29 C 0.77793 0.15039 0.59721 0.0
C30 C 0.80375 0.12649 0.58484 0.0
C31 C 0.7681 0.1488 0.62351 0.0
C32 C 0.78661 0.12383 0.63805 0.0
C33 C 0.81227 0.09944 0.62631 0.0
C34 C 0.82041 0.10095 0.59957 0.0
N35 N 0.73975 0.17271 0.63487 0.0
H36 H 0.73742 0.34694 0.08446 0.0
H37 H 0.72587 0.39118 0.15817 0.0
H38 H 0.66403 0.43503 0.09143 0.0
H39 H 0.80237 0.37083 0.16163 0.0
C40 C 0.79569 0.34716 0.15446 0.0
C41 C 0.7245 0.36613 0.09617 0.0
C42 C 0.69846 0.39069 0.08482 0.0
C43 C 0.73621 0.3669 0.12234 0.0
C44 C 0.71939 0.39164 0.13766 0.0
C45 C 0.6932 0.41645 0.12682 0.0
C46 C 0.68339 0.41587 0.10024 0.0
N47 N 0.765 0.3426 0.13285 0.0
H48 H 0.73101 0.65881 0.57928 0.0
H49 H 0.71802 0.62422 0.65666 0.0
H50 H 0.64007 0.57864 0.59567 0.0
H51 H 0.79991 0.64255 0.65548 0.0
C52 C 0.79246 0.66583 0.64789 0.0
C53 C 0.71541 0.64221 0.59277 0.0
C54 C 0.68442 0.61809 0.58399 0.0
C55 C 0.72837 0.64427 0.61881 0.0
C56 C 0.70916 0.62238 0.63643 0.0
C57 C 0.67692 0.59882 0.62818 0.0
C58 C 0.66477 0.59693 0.60202 0.0
N59 N 0.75999 0.6689 0.62692 0.0
H60 H 0.79803 0.84804 0.08096 0.0
H61 H 0.80808 0.88634 0.15741 0.0
H62 H 0.87666 0.93422 0.0947 0.0
H63 H 0.79844 0.8363 0.16894 0.0
C64 C 0.77262 0.82675 0.15528 0.0
C65 C 0.811 0.86611 0.09401 0.0
C66 C 0.83871 0.89147 0.0846 0.0
C67 C 0.80105 0.86336 0.12037 0.0
C68 C 0.81752 0.88708 0.13727 0.0
C69 C 0.84476 0.91272 0.12816 0.0
C70 C 0.85544 0.91457 0.10185 0.0
N71 N 0.7735 0.83705 0.12923 0.0
H72 H 0.23042 0.84233 0.44369 0.0
H73 H 0.2156 0.88946 0.37123 0.0
H74 H 0.16036 0.9319 0.43994 0.0
H75 H 0.28487 0.86591 0.36275 0.0
C76 C 0.28147 0.84291 0.3717 0.0
C77 C 0.21785 0.86224 0.43261 0.0
C78 C 0.19325 0.88668 0.44484 0.0
C79 C 0.22807 0.86379 0.40634 0.0
C80 C 0.21101 0.88929 0.39185 0.0
C81 C 0.18665 0.91418 0.40367 0.0
C82 C 0.17848 0.9128 0.43036 0.0
N83 N 0.25536 0.83936 0.39499 0.0
H84 H 0.2819 0.67509 0.94557 0.0
H85 H 0.29869 0.63019 0.87225 0.0
H86 H 0.35042 0.58503 0.94083 0.0
H87 H 0.2989 0.68253 0.85902 0.0
C88 C 0.26924 0.69137 0.87031 0.0
C89 C 0.29464 0.6555 0.93425 0.0
C90 C 0.31722 0.6301 0.94639 0.0
C91 C 0.28828 0.65595 0.90758 0.0
C92 C 0.30452 0.63049 0.89283 0.0
C93 C 0.32676 0.60469 0.90469 0.0
C94 C 0.33258 0.60454 0.93155 0.0
N95 N 0.26384 0.68173 0.89631 0.0
Tb96 Tb 0.06181 0.12799 0.24005 0.0
C97 C 0.86777 0.08718 0.28024 0.0
N98 N 0.88963 0.11459 0.27284 0.0
C99 C 0.82448 0.12473 0.2438 0.0
C100 C 0.82462 0.07679 0.26867 0.0
C101 C 0.86725 0.13406 0.25583 0.0
C102 C 0.80339 0.09579 0.24998 0.0
C103 C 0.86896 0.04003 0.3067 0.0
C104 C 0.88937 0.06909 0.2992 0.0
C105 C 0.82609 0.02959 0.29513 0.0
C106 C 0.80398 0.04792 0.27618 0.0
Tb107 Tb 0.95861 0.127 0.29493 0.0
N108 N 0.93167 0.0794 0.30939 0.0
C109 C 0.8927 0.02213 0.3253 0.0
C110 C 0.95462 0.06227 0.32779 0.0
C111 C 0.93565 0.03335 0.33593 0.0
H112 H 0.88076 0.15727 0.25202 0.0
H113 H 0.95402 0.01984 0.35052 0.0
H114 H 0.14512 0.09082 0.27568 0.0
H115 H 0.07157 0.23612 0.18593 0.0
H116 H 0.98682 0.0713 0.33669 0.0
H117 H 0.87818 0.99966 0.33158 0.0
H118 H 0.03596 0.18534 0.19942 0.0
H119 H 0.80735 0.14016 0.23008 0.0
H120 H 0.80987 1.0073 0.30061 0.0
H121 H 0.77091 0.03954 0.26744 0.0
H122 H 0.22245 0.10383 0.29548 0.0
H123 H 0.77019 0.08869 0.24066 0.0
H124 H 0.15027 0.2532 0.20347 0.0
N125 N 0.13573 0.13601 0.25868 0.0
C126 C 0.15859 0.16324 0.2519 0.0
C127 C 0.20438 0.1211 0.28373 0.0
C128 C 0.20401 0.17131 0.2621 0.0
C129 C 0.15941 0.11414 0.27304 0.0
C130 C 0.22641 0.15006 0.27864 0.0
N131 N 0.0928 0.17434 0.22501 0.0
C132 C 0.06969 0.19288 0.20761 0.0
C133 C 0.15851 0.2116 0.22707 0.0
C134 C 0.13653 0.18295 0.23437 0.0
C135 C 0.13461 0.23098 0.20956 0.0
C136 C 0.0901 0.22148 0.1997 0.0
H137 H 0.26136 0.15531 0.28683 0.0
H138 H 0.26068 0.20664 0.26286 0.0
H139 H 0.2206 0.24208 0.23237 0.0
O140 O 0.07916 0.12677 0.20032 0.0
O141 O 0.06172 0.16786 0.26689 0.0
O142 O 0.02668 0.1508 0.30501 0.0
O143 O 0.09303 0.08691 0.22551 0.0
O144 O 0.99266 0.14911 0.23032 0.0
O145 O 0.96199 0.1677 0.26869 0.0
O146 O 0.94032 0.12757 0.33457 0.0
O147 O 0.96453 0.08618 0.2688 0.0
O148 O 0.98934 0.11118 0.23265 0.0
O149 O 0.91197 0.16212 0.30776 0.0
O150 O 0.02911 0.11075 0.30665 0.0
O151 O 0.06067 0.08996 0.26919 0.0
C152 C 0.05434 0.17032 0.29177 0.0
C153 C 0.1155 0.08041 0.18058 0.0
C154 C 0.13209 0.07413 0.13465 0.0
C155 C 0.15001 0.04396 0.13975 0.0
C156 C 0.13374 0.0502 0.18504 0.0
C157 C 0.15097 0.03221 0.16476 0.0
C158 C 0.11522 0.09247 0.15527 0.0
C159 C 0.96981 0.17054 0.24378 0.0
C160 C 0.09548 0.09839 0.20233 0.0
C161 C 0.22594 0.19996 0.25509 0.0
C162 C 0.20321 0.22009 0.23764 0.0
C163 C 0.97122 0.08634 0.24385 0.0
C164 C 0.88545 0.16675 0.35215 0.0
C165 C 0.85522 0.16756 0.39621 0.0
C166 C 0.82855 0.19442 0.39023 0.0
C167 C 0.85871 0.19382 0.34675 0.0
C168 C 0.88409 0.15386 0.37717 0.0
C169 C 0.83062 0.20756 0.3657 0.0
C170 C 0.0557 0.09022 0.29447 0.0
C171 C 0.91278 0.15166 0.33127 0.0
H172 H 0.16375 0.02951 0.12436 0.0
H173 H 0.13446 0.04031 0.20423 0.0
H174 H 0.16495 0.00897 0.16842 0.0
H175 H 0.10093 0.11564 0.15152 0.0
H176 H 0.80621 0.2053 0.40463 0.0
H177 H 0.8591 0.20428 0.32775 0.0
H178 H 0.90427 0.1329 0.38166 0.0
H179 H 0.81003 0.22833 0.3613 0.0
Tb180 Tb 0.4425 0.3879 0.7466 0.0
C181 C 0.6407 0.43564 0.76888 0.0
N182 N 0.62599 0.40504 0.76813 0.0
C183 C 0.69272 0.39213 0.74133 0.0
C184 C 0.68141 0.44589 0.7551 0.0
C185 C 0.65177 0.38311 0.75506 0.0
C186 C 0.70747 0.42368 0.74123 0.0
C187 C 0.62736 0.48887 0.78368 0.0
C188 C 0.61364 0.45683 0.78284 0.0
C189 C 0.66724 0.49937 0.76949 0.0
C190 C 0.69426 0.47793 0.75529 0.0
Tb191 Tb 0.55998 0.3929 0.79207 0.0
N192 N 0.57494 0.44588 0.7962 0.0
C193 C 0.60145 0.50922 0.79937 0.0
C194 C 0.55329 0.46502 0.81366 0.0
C195 C 0.56494 0.49707 0.81487 0.0
H196 H 0.64066 0.35869 0.75524 0.0
H197 H 0.54661 0.51221 0.82827 0.0
H198 H 0.37101 0.44796 0.75845 0.0
H199 H 0.41087 0.26206 0.74532 0.0
H200 H 0.52842 0.45563 0.82751 0.0
H201 H 0.61081 0.53399 0.80057 0.0
H202 H 0.45722 0.31072 0.73766 0.0
H203 H 0.71284 0.37477 0.7308 0.0
H204 H 0.67799 0.52395 0.76973 0.0
H205 H 0.72511 0.48636 0.74459 0.0
H206 H 0.28908 0.45565 0.77514 0.0
H207 H 0.73896 0.43063 0.73038 0.0
H208 H 0.32849 0.26471 0.76265 0.0
N209 N 0.36642 0.39807 0.75994 0.0
C210 C 0.33807 0.37245 0.76444 0.0
C211 C 0.30256 0.43211 0.77239 0.0
C212 C 0.29089 0.37564 0.7736 0.0
C213 C 0.34916 0.42771 0.7633 0.0
C214 C 0.27338 0.40596 0.77772 0.0
N215 N 0.40278 0.34088 0.75164 0.0
C216 C 0.42176 0.31236 0.74556 0.0
C217 C 0.3286 0.31562 0.76432 0.0
C218 C 0.35655 0.34286 0.75978 0.0
C219 C 0.34874 0.28624 0.75936 0.0
C220 C 0.39532 0.28464 0.74967 0.0
H221 H 0.2373 0.40945 0.78475 0.0
H222 H 0.22656 0.35051 0.78544 0.0
H223 H 0.25965 0.29796 0.7774 0.0
O224 O 0.45698 0.37955 0.70748 0.0
O225 O 0.4372 0.36239 0.78305 0.0
O226 O 0.5124 0.35295 0.80129 0.0
O227 O 0.39247 0.40274 0.71896 0.0
O228 O 0.50564 0.36013 0.73561 0.0
O229 O 0.55124 0.34847 0.77189 0.0
O230 O 0.5817 0.39944 0.83123 0.0
O231 O 0.5591 0.40798 0.75135 0.0
O232 O 0.48626 0.43064 0.74616 0.0
O233 O 0.61799 0.36704 0.80577 0.0
O234 O 0.49156 0.41063 0.80725 0.0
O235 O 0.45319 0.42931 0.77102 0.0
C236 C 0.46589 0.34762 0.79894 0.0
C237 C 0.42552 0.41754 0.6792 0.0
C238 C 0.42113 0.43164 0.63364 0.0
C239 C 0.43583 0.4625 0.64012 0.0
C240 C 0.43994 0.4484 0.68513 0.0
C241 C 0.4454 0.47066 0.66564 0.0
C242 C 0.41641 0.40919 0.6535 0.0
C243 C 0.53776 0.34319 0.74802 0.0
C244 C 0.4187 0.39409 0.69971 0.0
C245 C 0.26286 0.34856 0.7783 0.0
C246 C 0.28168 0.31862 0.77369 0.0
C247 C 0.53242 0.4304 0.7418 0.0
C248 C 0.6515 0.37095 0.8485 0.0
C249 C 0.68023 0.3717 0.89294 0.0
C250 C 0.72173 0.35592 0.88515 0.0
C251 C 0.69327 0.355 0.8413 0.0
C252 C 0.64485 0.37905 0.87452 0.0
C253 C 0.72802 0.34753 0.85953 0.0
C254 C 0.4593 0.4287 0.79614 0.0
C255 C 0.61639 0.37957 0.82841 0.0
H256 H 0.43899 0.48063 0.62558 0.0
H257 H 0.4463 0.45536 0.70484 0.0
H258 H 0.45641 0.49448 0.67036 0.0
H259 H 0.40573 0.3852 0.64907 0.0
H260 H 0.74919 0.34979 0.899 0.0
H261 H 0.69945 0.34855 0.82145 0.0
H262 H 0.61288 0.39139 0.88035 0.0
H263 H 0.76007 0.33531 0.85375 0.0
Tb264 Tb 0.05551 0.89375 0.73394 0.0
C265 C 0.85251 0.85837 0.76555 0.0
N266 N 0.87515 0.88659 0.76867 0.0
C267 C 0.80617 0.91281 0.75152 0.0
C268 C 0.80671 0.8561 0.75412 0.0
C269 C 0.85118 0.91378 0.76346 0.0
C270 C 0.78424 0.88379 0.74631 0.0
C271 C 0.84989 0.80259 0.7753 0.0
C272 C 0.87364 0.83199 0.7759 0.0
C273 C 0.8055 0.79979 0.76262 0.0
C274 C 0.78399 0.82651 0.75197 0.0
Tb275 Tb 0.95041 0.88465 0.78665 0.0
N276 N 0.91688 0.83555 0.78759 0.0
C277 C 0.87097 0.77718 0.78806 0.0
C278 C 0.93633 0.81144 0.80137 0.0
C279 C 0.91399 0.78178 0.80153 0.0
H280 H 0.86625 0.93637 0.76877 0.0
H281 H 0.92998 0.76249 0.81195 0.0
H282 H 0.15007 0.8699 0.7661 0.0
H283 H 0.02301 1.0031 0.68344 0.0
H284 H 0.96951 0.81505 0.81181 0.0
H285 H 0.85383 0.75418 0.78812 0.0
H286 H 0.01373 0.94627 0.6916 0.0
H287 H 0.78803 0.93445 0.74678 0.0
H288 H 0.78693 0.77729 0.76158 0.0
H289 H 0.74903 0.82423 0.74297 0.0
H290 H 0.22329 0.89368 0.78541 0.0
H291 H 0.74904 0.88311 0.73743 0.0
H292 H 0.08539 0.03375 0.70674 0.0
N293 N 0.12386 0.91353 0.75224 0.0
C294 C 0.13305 0.94461 0.74851 0.0
C295 C 0.19795 0.90832 0.77527 0.0
C296 C 0.17399 0.95926 0.75923 0.0
C297 C 0.15649 0.89494 0.76443 0.0
C298 C 0.2064 0.94072 0.773 0.0
N299 N 0.06435 0.94559 0.72224 0.0
C300 C 0.03842 0.95977 0.70325 0.0
C301 C 0.11011 0.99357 0.72849 0.0
C302 C 0.10149 0.9614 0.73347 0.0
C303 C 0.08007 0.00902 0.71111 0.0
C304 C 0.04471 0.99184 0.698 0.0
H305 H 0.23839 0.95105 0.78151 0.0
H306 H 0.21242 1.00353 0.76379 0.0
H307 H 0.15648 0.03363 0.73679 0.0
O308 O 0.08786 0.89812 0.6971 0.0
O309 O 0.06273 0.91192 0.77357 0.0
O310 O 0.98826 0.9297 0.78356 0.0
O311 O 0.09495 0.85557 0.72008 0.0
O312 O 0.98318 0.90867 0.72269 0.0
O313 O 0.94872 0.92576 0.76053 0.0
O314 O 0.96944 0.88463 0.82584 0.0
O315 O 0.96648 0.84627 0.7598 0.0
O316 O 0.98887 0.86975 0.7219 0.0
O317 O 0.89767 0.89501 0.81413 0.0
O318 O 0.02065 0.86477 0.79711 0.0
O319 O 0.0593 0.8523 0.7588 0.0
C320 C 0.03504 0.93256 0.78476 0.0
C321 C 0.13623 0.85568 0.67912 0.0
C322 C 0.16608 0.85308 0.63512 0.0
C323 C 0.19806 0.82949 0.64268 0.0
C324 C 0.16803 0.83174 0.68616 0.0
C325 C 0.19875 0.81879 0.66802 0.0
C326 C 0.13503 0.86613 0.65343 0.0
C327 C 0.95276 0.92649 0.73523 0.0
C328 C 0.10592 0.87019 0.69893 0.0
C329 C 0.1815 0.99168 0.75545 0.0
C330 C 0.14954 0.00883 0.74014 0.0
C331 C 0.96615 0.84733 0.73458 0.0
C332 C 0.9254 0.91825 0.85255 0.0
C333 C 0.91386 0.93443 0.89721 0.0
C334 C 0.92125 0.96595 0.8896 0.0
C335 C 0.93254 0.94973 0.84541 0.0
C336 C 0.91629 0.91068 0.87837 0.0
C337 C 0.93066 0.97344 0.86392 0.0
C338 C 0.05272 0.84892 0.78377 0.0
C339 C 0.9271 0.89292 0.8334 0.0
H340 H 0.22212 0.81907 0.62885 0.0
H341 H 0.16969 0.82336 0.70582 0.0
H342 H 0.22334 0.80048 0.67365 0.0
H343 H 0.11056 0.88453 0.64775 0.0
H344 H 0.919 0.98493 0.9034 0.0
H345 H 0.93923 0.95591 0.82555 0.0
H346 H 0.91155 0.88619 0.88375 0.0
H347 H 0.93615 0.99775 0.85831 0.0
Tb348 Tb 0.45584 0.62224 0.23509 0.0
C349 C 0.66152 0.6575 0.26373 0.0
N350 N 0.63865 0.62963 0.26806 0.0
C351 C 0.70645 0.60206 0.25128 0.0
C352 C 0.70686 0.65886 0.25185 0.0
C353 C 0.66197 0.60202 0.26365 0.0
C354 C 0.72856 0.63063 0.24484 0.0
C355 C 0.66537 0.71368 0.2715 0.0
C356 C 0.64119 0.68449 0.2733 0.0
C357 C 0.70936 0.7155 0.25847 0.0
C358 C 0.72996 0.68814 0.24853 0.0
Tb359 Tb 0.56411 0.63289 0.28643 0.0
N360 N 0.59845 0.6818 0.28548 0.0
C361 C 0.64506 0.7399 0.28337 0.0
C362 C 0.5798 0.70678 0.29843 0.0
C363 C 0.60243 0.73632 0.29723 0.0
H364 H 0.64668 0.57985 0.26985 0.0
H365 H 0.58701 0.75627 0.30696 0.0
H366 H 0.36254 0.64554 0.2682 0.0
H367 H 0.4885 0.51205 0.18604 0.0
H368 H 0.54698 0.70396 0.30921 0.0
H369 H 0.66248 0.76278 0.28242 0.0
H370 H 0.49629 0.5692 0.19292 0.0
H371 H 0.72402 0.58007 0.24715 0.0
H372 H 0.72837 0.73775 0.25663 0.0
H373 H 0.76459 0.68973 0.2392 0.0
H374 H 0.29163 0.62121 0.28924 0.0
H375 H 0.76336 0.63061 0.23564 0.0
H376 H 0.42908 0.48111 0.21106 0.0
N377 N 0.38933 0.60197 0.25474 0.0
C378 C 0.38105 0.57066 0.25181 0.0
C379 C 0.31676 0.60669 0.27895 0.0
C380 C 0.34148 0.55569 0.26353 0.0
C381 C 0.35689 0.62039 0.26711 0.0
C382 C 0.30939 0.57411 0.27749 0.0
N383 N 0.44784 0.56999 0.22441 0.0
C384 C 0.47287 0.55569 0.20523 0.0
C385 C 0.40441 0.52151 0.23241 0.0
C386 C 0.41214 0.55394 0.23658 0.0
C387 C 0.43375 0.50604 0.21482 0.0
C388 C 0.46743 0.52338 0.20074 0.0
H389 H 0.27845 0.56354 0.28677 0.0
H390 H 0.30516 0.51097 0.26971 0.0
H391 H 0.36028 0.48098 0.24237 0.0
O392 O 0.42084 0.61652 0.19898 0.0
O393 O 0.4518 0.60564 0.2752 0.0
O394 O 0.52653 0.58763 0.28444 0.0
O395 O 0.41493 0.65978 0.22109 0.0
O396 O 0.52769 0.6074 0.22316 0.0
O397 O 0.56428 0.59139 0.26089 0.0
O398 O 0.54588 0.63347 0.32564 0.0
O399 O 0.54523 0.67026 0.25913 0.0
O400 O 0.52129 0.64639 0.22164 0.0
O401 O 0.61771 0.62372 0.31392 0.0
O402 O 0.49478 0.65345 0.29728 0.0
O403 O 0.45232 0.66411 0.25952 0.0
C404 C 0.4798 0.58475 0.28588 0.0
C405 C 0.37046 0.65801 0.18101 0.0
C406 C 0.33885 0.65975 0.13722 0.0
C407 C 0.30551 0.68234 0.14502 0.0
C408 C 0.33728 0.68093 0.1883 0.0
C409 C 0.30497 0.69294 0.17038 0.0
C410 C 0.37139 0.64762 0.15533 0.0
C411 C 0.55929 0.5903 0.23566 0.0
C412 C 0.40249 0.64438 0.20054 0.0
C413 C 0.33498 0.52306 0.26058 0.0
C414 C 0.36647 0.50597 0.24508 0.0
C415 C 0.54596 0.66825 0.234 0.0
C416 C 0.59043 0.5996 0.35195 0.0
C417 C 0.60216 0.58217 0.39632 0.0
C418 C 0.59439 0.55089 0.38819 0.0
C419 C 0.5828 0.56833 0.3443 0.0
C420 C 0.59991 0.60645 0.37789 0.0
C421 C 0.58464 0.54413 0.3624 0.0
C422 C 0.46123 0.66853 0.28424 0.0
C423 C 0.58842 0.62538 0.33318 0.0
H424 H 0.28034 0.69214 0.13137 0.0
H425 H 0.33579 0.68921 0.20797 0.0
H426 H 0.27933 0.71047 0.17619 0.0
H427 H 0.39695 0.62998 0.14951 0.0
H428 H 0.59657 0.53153 0.40166 0.0
H429 H 0.57568 0.56267 0.32436 0.0
H430 H 0.60503 0.63076 0.38369 0.0
H431 H 0.57882 0.52 0.35639 0.0
H432 H 0.23099 0.94226 0.36231 0.0
H433 H 0.10354 0.94774 0.40921 0.0
H434 H 0.20122 0.98479 0.33535 0.0
H435 H 0.07524 0.99129 0.38284 0.0
H436 H 0.07241 0.09068 0.34619 0.0
H437 H 0.10498 0.04855 0.37262 0.0
H438 H 0.12691 0.99237 0.30472 0.0
H439 H 0.09286 0.03419 0.27814 0.0
C440 C 0.19659 0.95236 0.36688 0.0
C441 C 0.1696 0.94129 0.38796 0.0
C442 C 0.17974 0.97683 0.35146 0.0
C443 C 0.136 0.99124 0.35703 0.0
C444 C 0.10935 0.98072 0.37829 0.0
C445 C 0.12577 0.95588 0.39348 0.0
C446 C 0.084 0.06932 0.33684 0.0
C447 C 0.0793 0.06559 0.31008 0.0
C448 C 0.10259 0.04524 0.35201 0.0
C449 C 0.11802 0.01717 0.34072 0.0
C450 C 0.11528 0.01385 0.31388 0.0
C451 C 0.09582 0.03777 0.29869 0.0
H452 H 0.38039 0.60811 0.86108 0.0
H453 H 0.31339 0.54155 0.91274 0.0
H454 H 0.41038 0.56498 0.83516 0.0
H455 H 0.34183 0.49814 0.88632 0.0
H456 H 0.44358 0.42808 0.848 0.0
H457 H 0.41102 0.47015 0.87436 0.0
H458 H 0.38714 0.52574 0.80595 0.0
H459 H 0.4226 0.48469 0.78003 0.0
C460 C 0.37161 0.58418 0.86669 0.0
C461 C 0.34451 0.57819 0.88889 0.0
C462 C 0.38857 0.55938 0.85176 0.0
C463 C 0.37834 0.52791 0.85846 0.0
C464 C 0.35107 0.52198 0.88072 0.0
C465 C 0.3346 0.54684 0.89583 0.0
C466 C 0.43118 0.44928 0.83865 0.0
C467 C 0.4354 0.45293 0.81191 0.0
C468 C 0.41217 0.47336 0.85373 0.0
C469 C 0.3965 0.50154 0.84238 0.0
C470 C 0.39956 0.50469 0.8155 0.0
C471 C 0.41911 0.48083 0.80051 0.0
H472 H 0.58291 0.58157 0.63316 0.0
H473 H 0.72354 0.56401 0.6646 0.0
H474 H 0.5486 0.54137 0.6615 0.0
H475 H 0.6891 0.52371 0.69308 0.0
H476 H 0.61229 0.42727 0.7117 0.0
H477 H 0.64877 0.46951 0.68612 0.0
H478 H 0.53623 0.53219 0.70944 0.0
H479 H 0.50085 0.49031 0.73574 0.0
C480 C 0.60642 0.56917 0.64622 0.0
C481 C 0.6559 0.57584 0.64664 0.0
C482 C 0.58675 0.54632 0.66253 0.0
C483 C 0.61622 0.52938 0.67943 0.0
C484 C 0.66565 0.53627 0.68009 0.0
C485 C 0.68525 0.55946 0.66398 0.0
C486 C 0.59585 0.45022 0.71165 0.0
C487 C 0.55409 0.45562 0.7259 0.0
C488 C 0.61664 0.47435 0.697 0.0
C489 C 0.59539 0.50415 0.69585 0.0
C490 C 0.55325 0.50941 0.70987 0.0
C491 C 0.53297 0.48544 0.72485 0.0
H492 H 0.84154 0.97635 0.12114 0.0
H493 H 0.88618 0.90575 0.17562 0.0
H494 H 0.87113 0.01756 0.14976 0.0
H495 H 0.91667 0.947 0.2042 0.0
H496 H 0.92689 0.03132 0.25928 0.0
H497 H 0.89407 0.98956 0.23207 0.0
H498 H 0.94552 0.0389 0.16474 0.0
H499 H 0.97613 0.08113 0.19175 0.0
C500 C 0.85805 0.96964 0.13917 0.0
C501 C 0.8618 0.93779 0.14604 0.0
C502 C 0.87512 0.99326 0.15559 0.0
C503 C 0.89671 0.98566 0.17924 0.0
C504 C 0.8998 0.95377 0.18629 0.0
C505 C 0.88243 0.93011 0.16989 0.0
C506 C 0.93065 0.03344 0.23868 0.0
C507 C 0.95324 0.05995 0.22773 0.0
C508 C 0.9123 0.00929 0.22305 0.0
C509 C 0.91667 0.01096 0.19613 0.0
C510 C 0.94041 0.03713 0.18532 0.0
C511 C 0.95832 0.06131 0.20088 0.0
H512 H 0.76948 0.07148 0.66831 0.0
H513 H 0.89567 0.066 0.6204 0.0
H514 H 0.80059 0.02957 0.69544 0.0
H515 H 0.925 0.02278 0.64688 0.0
H516 H 0.91672 0.9828 0.75163 0.0
H517 H 0.87956 0.02369 0.7252 0.0
H518 H 0.89253 0.96468 0.65822 0.0
H519 H 0.92774 0.92334 0.68467 0.0
C520 C 0.8039 0.06156 0.66353 0.0
C521 C 0.83015 0.07255 0.64212 0.0
C522 C 0.82146 0.03738 0.67905 0.0
C523 C 0.8651 0.02303 0.67323 0.0
C524 C 0.89099 0.03335 0.65163 0.0
C525 C 0.87395 0.05799 0.63638 0.0
C526 C 0.91064 0.97829 0.73139 0.0
C527 C 0.92551 0.94996 0.72018 0.0
C528 C 0.88964 1.00173 0.71627 0.0
C529 C 0.88382 0.99741 0.68965 0.0
C530 C 0.89724 0.96873 0.67863 0.0
C531 C 0.91725 0.9451 0.69379 0.0
H532 H 0.60913 0.44934 0.12271 0.0
H533 H 0.7387 0.44372 0.16841 0.0
H534 H 0.58211 0.49284 0.1493 0.0
H535 H 0.70989 0.48611 0.19576 0.0
H536 H 0.5959 0.53442 0.25264 0.0
H537 H 0.63214 0.49306 0.22655 0.0
H538 H 0.61705 0.55091 0.15889 0.0
H539 H 0.58267 0.59272 0.18499 0.0
C540 C 0.63209 0.4574 0.13823 0.0
C541 C 0.67629 0.44289 0.14324 0.0
C542 C 0.61637 0.4822 0.15355 0.0
C543 C 0.64402 0.49272 0.17449 0.0
C544 C 0.68783 0.47819 0.1798 0.0
C545 C 0.70406 0.45377 0.16419 0.0
C546 C 0.60141 0.53859 0.23232 0.0
C547 C 0.58615 0.56669 0.2208 0.0
C548 C 0.62191 0.5149 0.21741 0.0
C549 C 0.62677 0.51878 0.19073 0.0
C550 C 0.6131 0.54727 0.17939 0.0
C551 C 0.59354 0.57114 0.19433 0.0
H552 H 0.34664 0.48088 0.41036 0.0
H553 H 0.38005 0.40864 0.35512 0.0
H554 H 0.3802 0.52074 0.3817 0.0
H555 H 0.41265 0.44876 0.32605 0.0
H556 H 0.51622 0.52677 0.29592 0.0
H557 H 0.48216 0.48578 0.3237 0.0
H558 H 0.36203 0.54567 0.34033 0.0
H559 H 0.39698 0.58685 0.31335 0.0
C560 C 0.36124 0.47351 0.39209 0.0
C561 C 0.36087 0.44157 0.38506 0.0
C562 C 0.38001 0.4964 0.37555 0.0
C563 C 0.39902 0.48794 0.35157 0.0
C564 C 0.39862 0.456 0.34448 0.0
C565 C 0.37956 0.43307 0.36101 0.0
C566 C 0.48261 0.53111 0.30561 0.0
C567 C 0.45901 0.55986 0.30237 0.0
C568 C 0.46289 0.50757 0.3213 0.0
C569 C 0.41934 0.51244 0.3342 0.0
C570 C 0.39582 0.54126 0.33086 0.0
C571 C 0.41553 0.56473 0.31518 0.0
H572 H 0.22085 0.06724 0.86542 0.0
H573 H 0.08219 0.07563 0.90135 0.0
H574 H 0.1878 0.02773 0.83595 0.0
H575 H 0.04954 0.03565 0.87237 0.0
H576 H 0.99571 0.98858 0.79827 0.0
H577 H 0.02959 0.02896 0.82658 0.0
H578 H 0.15651 0.97298 0.83699 0.0
H579 H 0.12194 0.93231 0.80923 0.0
C580 C 0.18332 0.0607 0.86701 0.0
C581 C 0.1542 0.07459 0.88579 0.0
C582 C 0.1645 0.03786 0.85027 0.0
C583 C 0.11601 0.02854 0.85178 0.0
C584 C 0.08689 0.04252 0.8705 0.0
C585 C 0.10576 0.06518 0.88731 0.0
C586 C 0.03073 0.98485 0.80673 0.0
C587 C 0.05631 0.95734 0.80139 0.0
C588 C 0.05016 1.00797 0.82294 0.0
C589 C 0.09581 1.00423 0.83406 0.0
C590 C 0.12157 0.97682 0.82848 0.0
C591 C 0.10187 0.95355 0.81248 0.0
H592 H 0.09305 0.10417 0.96938 0.0
H593 H 0.23669 0.13621 0.98778 0.0
H594 H 0.07681 0.09654 0.01502 0.0
H595 H 0.22008 0.12903 0.0334 0.0
H596 H 0.16474 0.13084 0.11594 0.0
H597 H 0.17153 0.14681 0.07074 0.0
H598 H 0.10523 0.05896 0.0475 0.0
H599 H 0.09813 0.04333 0.0924 0.0
C600 C 0.12116 0.10967 0.98312 0.0
C601 C 0.16639 0.1205 0.97477 0.0
C602 C 0.11177 0.1054 1.00931 0.0
C603 C 0.14722 0.112 0.02788 0.0
C604 C 0.19177 0.12405 0.01965 0.0
C605 C 0.20127 0.12818 0.99343 0.0
C606 C 0.15089 0.11527 0.10113 0.0
C607 C 0.13119 0.08576 0.10767 0.0
C608 C 0.15513 0.12426 0.07527 0.0
C609 C 0.13912 0.1041 0.05548 0.0
C610 C 0.11756 0.0752 0.0622 0.0
C611 C 0.11381 0.06611 0.08793 0.0
H612 H 0.34613 0.35017 0.48286 0.0
H613 H 0.34312 0.45142 0.47472 0.0
H614 H 0.36724 0.35634 0.52834 0.0
H615 H 0.36623 0.45725 0.51956 0.0
H616 H 0.46602 0.45278 0.58989 0.0
H617 H 0.44321 0.44303 0.54536 0.0
H618 H 0.32916 0.38099 0.57043 0.0
H619 H 0.35036 0.3917 0.61522 0.0
C620 C 0.34965 0.37368 0.49068 0.0
C621 C 0.34352 0.40028 0.47487 0.0
C622 C 0.36195 0.37716 0.5167 0.0
C623 C 0.369 0.40726 0.52733 0.0
C624 C 0.36195 0.43376 0.51173 0.0
C625 C 0.34896 0.43034 0.48595 0.0
C626 C 0.43574 0.43729 0.58607 0.0
C627 C 0.40973 0.42339 0.60635 0.0
C628 C 0.42291 0.43158 0.5605 0.0
C629 C 0.38424 0.41143 0.55448 0.0
C630 C 0.3593 0.39649 0.57456 0.0
C631 C 0.37168 0.40257 0.60023 0.0
H632 H 0.66564 0.34178 0.05514 0.0
H633 H 0.70932 0.43945 0.05095 0.0
H634 H 0.65437 0.34089 1.0085 0.0
H635 H 0.6974 0.43868 1.00443 0.0
H636 H 0.74294 0.40506 0.92243 0.0
H637 H 0.74121 0.41224 0.96893 0.0
H638 H 0.60464 0.36346 0.97221 0.0
H639 H 0.60654 0.35633 0.92537 0.0
C640 C 0.67251 0.36309 0.04426 0.0
C641 C 0.68862 0.39063 0.0567 0.0
C642 C 0.66554 0.36269 0.01761 0.0
C643 C 0.67501 0.38973 1.00279 0.0
C644 C 0.69005 0.41744 0.01531 0.0
C645 C 0.69659 0.41793 0.04197 0.0
C646 C 0.71218 0.39638 0.93307 0.0
C647 C 0.67493 0.3801 0.9204 0.0
C648 C 0.71106 0.40059 0.95966 0.0
C649 C 0.6729 0.38828 0.97426 0.0
C650 C 0.63469 0.37297 0.96147 0.0
C651 C 0.63552 0.36913 0.93471 0.0
H652 H 0.88459 0.10978 0.55795 0.0
H653 H 0.74225 0.14682 0.54733 0.0
H654 H 0.89862 0.11389 0.51176 0.0
H655 H 0.75724 0.15282 0.50177 0.0
H656 H 0.77657 0.14104 0.418 0.0
H657 H 0.76544 0.12614 0.46288 0.0
H658 H 0.91322 0.15155 0.47875 0.0
H659 H 0.92446 0.16491 0.43335 0.0
C660 C 0.8562 0.11869 0.54581 0.0
C661 C 0.81234 0.12812 0.55652 0.0
C662 C 0.86448 0.12141 0.51931 0.0
C663 C 0.82914 0.13369 0.50284 0.0
C664 C 0.78515 0.14275 0.5136 0.0
C665 C 0.77679 0.13981 0.53995 0.0
C666 C 0.80683 0.14273 0.43107 0.0
C667 C 0.85132 0.15405 0.42236 0.0
C668 C 0.80042 0.13457 0.45686 0.0
C669 C 0.83812 0.1382 0.47473 0.0
C670 C 0.88339 0.14819 0.46563 0.0
C671 C 0.88995 0.15591 0.43965 0.0
H672 H 0.926 0.90382 0.06314 0.0
H673 H 0.77789 0.88563 0.04339 0.0
H674 H 0.94484 0.91212 0.01794 0.0
H675 H 0.7962 0.89484 0.99809 0.0
H676 H 0.85198 0.88918 0.91606 0.0
H677 H 0.83552 0.87606 0.96076 0.0
H678 H 0.93339 0.94978 0.98525 0.0
H679 H 0.95207 0.96153 0.94068 0.0
C680 C 0.89742 0.9017 0.04907 0.0
C681 C 0.85042 0.89426 0.05681 0.0
C682 C 0.90813 0.90662 0.02314 0.0
C683 C 0.872 0.90456 1.00425 0.0
C684 C 0.82512 0.89632 1.01198 0.0
C685 C 0.81452 0.89108 0.03796 0.0
C686 C 0.87061 0.90228 0.93096 0.0
C687 C 0.90348 0.92643 0.92462 0.0
C688 C 0.86062 0.89502 0.95667 0.0
C689 C 0.88304 0.91181 0.97677 0.0
C690 C 0.91589 0.93596 0.97039 0.0
C691 C 0.9261 0.94306 0.94472 0.0
H692 H 0.66789 0.66399 0.54763 0.0
H693 H 0.67652 0.56313 0.5569 0.0
H694 H 0.64777 0.65667 0.50217 0.0
H695 H 0.65542 0.55598 0.5119 0.0
H696 H 0.56341 0.5543 0.43918 0.0
H697 H 0.58365 0.56406 0.48406 0.0
H698 H 0.68459 0.63643 0.4611 0.0
H699 H 0.66528 0.62624 0.41603 0.0
C700 C 0.6658 0.64031 0.54001 0.0
C701 C 0.67333 0.61416 0.55609 0.0
C702 C 0.65416 0.63614 0.51398 0.0
C703 C 0.64949 0.60573 0.50353 0.0
C704 C 0.65774 0.57968 0.51949 0.0
C705 C 0.66972 0.58383 0.54535 0.0
C706 C 0.59027 0.57211 0.4436 0.0
C707 C 0.61295 0.58927 0.42385 0.0
C708 C 0.60175 0.57776 0.46936 0.0
C709 C 0.63592 0.6009 0.47612 0.0
C710 C 0.6578 0.61864 0.45651 0.0
C711 C 0.6466 0.61281 0.43067 0.0
H712 H 0.29262 0.58513 0.98169 0.0
H713 H 0.35989 0.67664 0.97441 0.0
H714 H 0.30168 0.58805 0.0286 0.0
H715 H 0.36954 0.67938 0.02112 0.0
H716 H 0.41506 0.66055 0.10449 0.0
H717 H 0.41399 0.64989 0.05814 0.0
H718 H 0.26347 0.62572 0.06247 0.0
H719 H 0.26443 0.63682 0.10863 0.0
C720 C 0.30985 0.60564 0.99014 0.0
C721 C 0.3253 0.63075 0.97455 0.0
C722 C 0.31489 0.60735 0.01689 0.0
C723 C 0.3364 0.63391 0.02842 0.0
C724 C 0.35324 0.65853 1.01271 0.0
C725 C 0.34739 0.65707 0.98606 0.0
C726 C 0.38203 0.65246 0.09554 0.0
C727 C 0.33978 0.64959 0.11001 0.0
C728 C 0.38135 0.64654 0.06908 0.0
C729 C 0.33862 0.63705 0.05677 0.0
C730 C 0.29694 0.63278 0.07151 0.0
C731 C 0.29742 0.63927 0.09784 0.0
H732 H 0.21394 0.93114 0.48121 0.0
H733 H 0.15192 0.83838 0.47157 0.0
H734 H 0.20311 0.92689 0.52786 0.0
H735 H 0.14055 0.83429 0.51811 0.0
H736 H 0.09095 0.85106 0.60147 0.0
H737 H 0.09312 0.86209 0.55511 0.0
H738 H 0.24229 0.88929 0.5616 0.0
H739 H 0.24025 0.87767 0.60769 0.0
C740 C 0.19742 0.91006 0.48907 0.0
C741 C 0.18393 0.88503 0.47287 0.0
C742 C 0.19141 0.90758 0.5157 0.0
C743 C 0.17092 0.88029 0.52653 0.0
C744 C 0.15603 0.85569 0.51023 0.0
C745 C 0.16286 0.85793 0.48368 0.0
C746 C 0.12387 0.85988 0.59296 0.0
C747 C 0.16545 0.86353 0.60799 0.0
C748 C 0.12521 0.86599 0.56651 0.0
C749 C 0.1679 0.87649 0.55482 0.0
C750 C 0.20885 0.88145 0.57015 0.0
C751 C 0.20776 0.87473 0.59644 0.0
H752 H 0.23283 0.28731 0.39364 0.0
H753 H 0.16515 0.35208 0.34131 0.0
H754 H 0.19076 0.24331 0.37275 0.0
H755 H 0.12227 0.30851 0.3209 0.0
H756 H 0.09516 0.22327 0.27128 0.0
H757 H 0.13855 0.26507 0.29332 0.0
H758 H 0.11184 0.21918 0.36611 0.0
H759 H 0.07024 0.17623 0.34371 0.0
C760 C 0.20867 0.29216 0.37783 0.0
C761 C 0.20232 0.3231 0.36901 0.0
C762 C 0.18438 0.26698 0.36593 0.0
C763 C 0.15332 0.27229 0.345 0.0
C764 C 0.14657 0.30341 0.3366 0.0
C765 C 0.17087 0.32844 0.34841 0.0
C766 C 0.09919 0.2217 0.29192 0.0
C767 C 0.07971 0.19612 0.30564 0.0
C768 C 0.12352 0.24601 0.30466 0.0
C769 C 0.12855 0.24567 0.33156 0.0
C770 C 0.10907 0.22007 0.34536 0.0
C771 C 0.08483 0.19559 0.33254 0.0
H772 H 0.38568 0.17235 0.87732 0.0
H773 H 0.25327 0.22212 0.8671 0.0
H774 H 0.43007 0.21648 0.85891 0.0
H775 H 0.29632 0.26518 0.84632 0.0
H776 H 0.38452 0.35058 0.827 0.0
H777 H 0.34349 0.30796 0.84939 0.0
H778 H 0.45292 0.24355 0.8239 0.0
H779 H 0.4957 0.28723 0.8037 0.0
C780 C 0.36611 0.19276 0.8708 0.0
C781 C 0.31627 0.19406 0.87382 0.0
C782 C 0.39144 0.21806 0.85991 0.0
C783 C 0.36728 0.24491 0.85087 0.0
C784 C 0.31692 0.24567 0.8536 0.0
C785 C 0.29189 0.2208 0.86533 0.0
C786 C 0.40011 0.32733 0.8268 0.0
C787 C 0.44363 0.32218 0.81417 0.0
C788 C 0.37619 0.30261 0.83925 0.0
C789 C 0.39425 0.27175 0.83857 0.0
C790 C 0.43806 0.26684 0.82567 0.0
C791 C 0.46276 0.29186 0.81395 0.0
H792 H 0.66017 0.16523 0.70111 0.0
H793 H 0.7052 0.23003 0.64173 0.0
H794 H 0.61615 0.20719 0.72217 0.0
H795 H 0.66143 0.27229 0.66299 0.0
H796 H 0.53643 0.33072 0.69621 0.0
H797 H 0.57801 0.2887 0.67358 0.0
H798 H 0.63553 0.25559 0.74573 0.0
H799 H 0.59377 0.29705 0.76834 0.0
C800 C 0.66065 0.18851 0.69259 0.0
C801 C 0.68618 0.19439 0.66987 0.0
C802 C 0.63563 0.21257 0.7047 0.0
C803 C 0.63546 0.24311 0.69432 0.0
C804 C 0.66055 0.24894 0.67134 0.0
C805 C 0.68583 0.2248 0.65925 0.0
C806 C 0.55772 0.31436 0.70726 0.0
C807 C 0.56164 0.31727 0.73412 0.0
C808 C 0.58184 0.29045 0.69425 0.0
C809 C 0.61002 0.26879 0.70786 0.0
C810 C 0.61366 0.27164 0.7347 0.0
C811 C 0.58985 0.29557 0.74765 0.0
H812 H 0.78785 0.28373 0.14408 0.0
H813 H 0.86231 0.35133 0.19202 0.0
H814 H 0.83039 0.24099 0.16541 0.0
H815 H 0.90587 0.30888 0.21285 0.0
H816 H 0.93466 0.2246 0.26426 0.0
H817 H 0.89221 0.2665 0.24225 0.0
H818 H 0.90835 0.21755 0.17008 0.0
H819 H 0.94908 0.17492 0.19233 0.0
C820 C 0.81358 0.28945 0.15904 0.0
C821 C 0.82179 0.32082 0.16647 0.0
C822 C 0.83818 0.26499 0.17118 0.0
C823 C 0.87151 0.27145 0.19093 0.0
C824 C 0.8799 0.30295 0.19806 0.0
C825 C 0.85521 0.32731 0.18602 0.0
C826 C 0.92918 0.22276 0.24369 0.0
C827 C 0.94573 0.19656 0.23002 0.0
C828 C 0.90512 0.24692 0.23101 0.0
C829 C 0.89705 0.24554 0.20433 0.0
C830 C 0.91355 0.21927 0.19066 0.0
C831 C 0.93746 0.19501 0.20338 0.0
H832 H 0.87146 0.66407 0.67788 0.0
H833 H 0.77472 0.72906 0.64158 0.0
H834 H 0.91618 0.70785 0.69669 0.0
H835 H 0.81784 0.77317 0.66152 0.0
H836 H 0.92855 0.84799 0.68579 0.0
H837 H 0.88855 0.80455 0.66308 0.0
H838 H 0.91045 0.74463 0.72922 0.0
H839 H 0.9534 0.78702 0.75062 0.0
C840 C 0.8597 0.68783 0.67403 0.0
C841 C 0.8197 0.69315 0.65831 0.0
C842 C 0.88506 0.71301 0.685 0.0
C843 C 0.87048 0.74426 0.68098 0.0
C844 C 0.83063 0.74956 0.66486 0.0
C845 C 0.80567 0.72426 0.65352 0.0
C846 C 0.92521 0.82534 0.69523 0.0
C847 C 0.94333 0.82105 0.7202 0.0
C848 C 0.90177 0.80052 0.68237 0.0
C849 C 0.89593 0.77089 0.69424 0.0
C850 C 0.91469 0.76677 0.71914 0.0
C851 C 0.93859 0.79135 0.73174 0.0
H852 H 0.75632 0.81102 0.20462 0.0
H853 H 0.70937 0.78946 0.12742 0.0
H854 H 0.69812 0.7733 0.22168 0.0
H855 H 0.65109 0.75118 0.14457 0.0
H856 H 0.59702 0.66016 0.18979 0.0
H857 H 0.65012 0.69882 0.16882 0.0
H858 H 0.6093 0.76861 0.22468 0.0
H859 H 0.55628 0.73021 0.24528 0.0
C860 C 0.73352 0.79812 0.19131 0.0
C861 C 0.73724 0.80325 0.16475 0.0
C862 C 0.70008 0.7766 0.20107 0.0
C863 C 0.66989 0.75933 0.18448 0.0
C864 C 0.67403 0.76406 0.1578 0.0
C865 C 0.7072 0.78604 0.14801 0.0
C866 C 0.5989 0.68396 0.19722 0.0
C867 C 0.5733 0.69216 0.21937 0.0
C868 C 0.62925 0.70604 0.18527 0.0
C869 C 0.63436 0.73663 0.19532 0.0
C870 C 0.60684 0.74508 0.21676 0.0
C871 C 0.57652 0.72313 0.22857 0.0
H872 H 0.29076 0.78219 0.38967 0.0
H873 H 0.32959 0.84381 0.32689 0.0
H874 H 0.33331 0.73902 0.36894 0.0
H875 H 0.37221 0.80088 0.30628 0.0
H876 H 0.39665 0.70936 0.26349 0.0
H877 H 0.35213 0.75022 0.2853 0.0
H878 H 0.41752 0.72413 0.35745 0.0
H879 H 0.46204 0.68282 0.33571 0.0
C880 C 0.30838 0.7865 0.37147 0.0
C881 C 0.30684 0.8163 0.35979 0.0
C882 C 0.33292 0.76185 0.35968 0.0
C883 C 0.35592 0.76654 0.33593 0.0
C884 C 0.3543 0.79641 0.32438 0.0
C885 C 0.33013 0.82101 0.33622 0.0
C886 C 0.40158 0.71216 0.28402 0.0
C887 C 0.43324 0.69284 0.29779 0.0
C888 C 0.37616 0.73573 0.29649 0.0
C889 C 0.38154 0.74051 0.32306 0.0
C890 C 0.41241 0.72085 0.33698 0.0
C891 C 0.43812 0.69732 0.32447 0.0
H892 H 0.28186 0.72194 0.82524 0.0
H893 H 0.18473 0.71441 0.8894 0.0
H894 H 0.22989 0.76069 0.80523 0.0
H895 H 0.13146 0.75221 0.86898 0.0
H896 H 0.06877 0.84309 0.83563 0.0
H897 H 0.12146 0.80591 0.85729 0.0
H898 H 0.15568 0.76411 0.78397 0.0
H899 H 0.10477 0.8018 0.76243 0.0
C900 C 0.2492 0.72853 0.83498 0.0
C901 C 0.23738 0.71522 0.85882 0.0
C902 C 0.21915 0.75056 0.82345 0.0
C903 C 0.1761 0.75949 0.83534 0.0
C904 C 0.16452 0.74626 0.85938 0.0
C905 C 0.19494 0.72444 0.87105 0.0
C906 C 0.08752 0.82589 0.82419 0.0
C907 C 0.08276 0.82557 0.79729 0.0
C908 C 0.1176 0.80447 0.83661 0.0
C909 C 0.14326 0.78206 0.82241 0.0
C910 C 0.13754 0.78144 0.79554 0.0
C911 C 0.10796 0.80299 0.78316 0.0
loop_
_geom_bond_atom_site_label_1
_geom_bond_atom_site_label_2
_geom_bond_distance
_geom_bond_site_symmetry_2
_ccdc_geom_bond_type
H0 C5 0.930 . S
H1 C8 0.930 . S
H2 C10 0.930 . S
H3 C4 1.016 . S
C4 H3 1.016 . S
C4 N11 1.286 . S
C5 H0 0.930 . S
C5 C6 1.397 . S
C5 C7 1.361 . S
C6 C5 1.397 . S
C6 C10 1.390 . S
C7 C5 1.361 . S
C7 C8 1.393 . S
C7 N11 1.413 . S
C8 H1 0.930 . S
C8 C7 1.393 . S
C8 C9 1.399 . S
C9 C8 1.399 . S
C9 C10 1.381 . S
C10 H2 0.930 . S
C10 C6 1.390 . S
C10 C9 1.381 . S
N11 C4 1.286 . S
N11 C7 1.413 . S
H12 C17 0.930 . S
H13 C20 0.930 . S
H14 C22 0.930 . S
H15 C16 1.016 . S
C16 H15 1.016 . S
C16 N23 1.286 . S
C17 H12 0.930 . S
C17 C18 1.397 . S
C17 C19 1.361 . S
C18 C17 1.397 . S
C18 C22 1.390 . S
C19 C17 1.361 . S
C19 C20 1.393 . S
C19 N23 1.413 . S
C20 H13 0.930 . S
C20 C19 1.393 . S
C20 C21 1.399 . S
C21 C20 1.399 . S
C21 C22 1.381 . S
C22 H14 0.930 . S
C22 C18 1.390 . S
C22 C21 1.381 . S
N23 C16 1.286 . S
N23 C19 1.413 . S
H24 C29 0.930 . S
H25 C32 0.930 . S
H26 C34 0.930 . S
H27 C28 1.016 . S
C28 H27 1.016 . S
C28 N35 1.286 . S
C29 H24 0.930 . S
C29 C30 1.397 . S
C29 C31 1.361 . S
C30 C29 1.397 . S
C30 C34 1.390 . S
C31 C29 1.361 . S
C31 C32 1.393 . S
C31 N35 1.413 . S
C32 H25 0.930 . S
C32 C31 1.393 . S
C32 C33 1.399 . S
C33 C32 1.399 . S
C33 C34 1.381 . S
C34 H26 0.930 . S
C34 C30 1.390 . S
C34 C33 1.381 . S
N35 C28 1.286 . S
N35 C31 1.413 . S
H36 C41 0.930 . S
H37 C44 0.930 . S
H38 C46 0.930 . S
H39 C40 1.016 . S
C40 H39 1.016 . S
C40 N47 1.286 . S
C41 H36 0.930 . S
C41 C42 1.397 . S
C41 C43 1.361 . S
C42 C41 1.397 . S
C42 C46 1.390 . S
C43 C41 1.361 . S
C43 C44 1.393 . S
C43 N47 1.413 . S
C44 H37 0.930 . S
C44 C43 1.393 . S
C44 C45 1.399 . S
C45 C44 1.399 . S
C45 C46 1.381 . S
C46 H38 0.930 . S
C46 C42 1.390 . S
C46 C45 1.381 . S
N47 C40 1.286 . S
N47 C43 1.413 . S
H48 C53 0.930 . S
H49 C56 0.930 . S
H50 C58 0.930 . S
H51 C52 1.016 . S
C52 H51 1.016 . S
C52 N59 1.286 . S
C53 H48 0.930 . S
C53 C54 1.397 . S
C53 C55 1.361 . S
C54 C53 1.397 . S
C54 C58 1.390 . S
C55 C53 1.361 . S
C55 C56 1.393 . S
C55 N59 1.413 . S
C56 H49 0.930 . S
C56 C55 1.393 . S
C56 C57 1.399 . S
C57 C56 1.399 . S
C57 C58 1.381 . S
C58 H50 0.930 . S
C58 C54 1.390 . S
C58 C57 1.381 . S
N59 C52 1.286 . S
N59 C55 1.413 . S
H60 C65 0.930 . S
H61 C68 0.930 . S
H62 C70 0.930 . S
H63 C64 1.016 . S
C64 H63 1.016 . S
C64 N71 1.286 . S
C65 H60 0.930 . S
C65 C66 1.397 . S
C65 C67 1.361 . S
C66 C65 1.397 . S
C66 C70 1.390 . S
C67 C65 1.361 . S
C67 C68 1.393 . S
C67 N71 1.413 . S
C68 H61 0.930 . S
C68 C67 1.393 . S
C68 C69 1.399 . S
C69 C68 1.399 . S
C69 C70 1.381 . S
C70 H62 0.930 . S
C70 C66 1.390 . S
C70 C69 1.381 . S
N71 C64 1.286 . S
N71 C67 1.413 . S
H72 C77 0.930 . S
H73 C80 0.930 . S
H74 C82 0.930 . S
H75 C76 1.016 . S
C76 H75 1.016 . S
C76 N83 1.286 . S
C77 H72 0.930 . S
C77 C78 1.397 . S
C77 C79 1.361 . S
C78 C77 1.397 . S
C78 C82 1.390 . S
C79 C77 1.361 . S
C79 C80 1.393 . S
C79 N83 1.413 . S
C80 H73 0.930 . S
C80 C79 1.393 . S
C80 C81 1.399 . S
C81 C80 1.399 . S
C81 C82 1.381 . S
C82 H74 0.930 . S
C82 C78 1.390 . S
C82 C81 1.381 . S
N83 C76 1.286 . S
N83 C79 1.413 . S
H84 C89 0.930 . S
H85 C92 0.930 . S
H86 C94 0.930 . S
H87 C88 1.016 . S
C88 H87 1.016 . S
C88 N95 1.286 . S
C89 H84 0.930 . S
C89 C90 1.397 . S
C89 C91 1.361 . S
C90 C89 1.397 . S
C90 C94 1.390 . S
C91 C89 1.361 . S
C91 C92 1.393 . S
C91 N95 1.413 . S
C92 H85 0.930 . S
C92 C91 1.393 . S
C92 C93 1.399 . S
C93 C92 1.399 . S
C93 C94 1.381 . S
C94 H86 0.930 . S
C94 C90 1.390 . S
C94 C93 1.381 . S
N95 C88 1.286 . S
N95 C91 1.413 . S
Tb96 N125 2.617 . S
Tb96 N131 2.572 . S
Tb96 O140 2.465 . S
Tb96 O141 2.387 . S
Tb96 O143 2.428 . S
Tb96 O144 2.298 1_455 S
Tb96 O148 2.355 . S
Tb96 O151 2.393 . S
Tb96 C160 2.802 . S
C97 N98 1.379 . S
C97 C100 1.416 . S
C97 C104 1.424 . S
N98 C97 1.379 . S
N98 C101 1.334 . S
N98 Tb107 2.617 . S
C99 C101 1.390 . S
C99 C102 1.339 . S
C99 H119 0.930 . S
C100 C97 1.416 . S
C100 C102 1.416 . S
C100 C106 1.448 . S
C101 N98 1.334 . S
C101 C99 1.390 . S
C101 H112 0.930 . S
C102 C99 1.339 . S
C102 C100 1.416 . S
C102 H123 0.930 . S
C103 C104 1.413 . S
C103 C105 1.427 . S
C103 C109 1.416 1_545 S
C104 C97 1.424 . S
C104 C103 1.413 . S
C104 N108 1.361 . S
C105 C103 1.427 . S
C105 C106 1.328 . S
C105 H120 0.929 . S
C106 C100 1.448 . S
C106 C105 1.328 . S
C106 H121 0.930 . S
Tb107 N98 2.617 . S
Tb107 N108 2.572 . S
Tb107 O142 2.349 1_655 S
Tb107 O145 2.393 . S
Tb107 O146 2.465 . S
Tb107 O147 2.387 . S
Tb107 O149 2.428 . S
Tb107 O150 2.308 1_655 S
Tb107 C171 2.802 . S
N108 C104 1.361 . S
N108 Tb107 2.572 . S
N108 C110 1.340 . S
C109 C103 1.416 1_565 S
C109 C111 1.332 . S
C109 H117 0.931 . S
C110 N108 1.340 . S
C110 C111 1.407 1_545 S
C110 H116 0.930 . S
C111 C109 1.332 . S
C111 C110 1.407 1_565 S
C111 H113 0.929 . S
H112 C101 0.930 . S
H113 C111 0.929 . S
H114 C129 0.930 . S
H115 C136 0.929 . S
H116 C110 0.930 . S
H117 C109 0.931 . S
H118 C132 0.930 . S
H119 C99 0.930 . S
H120 C105 0.929 . S
H121 C106 0.930 . S
H122 C127 0.930 . S
H123 C102 0.930 . S
H124 C135 0.931 . S
N125 Tb96 2.617 . S
N125 C126 1.379 . S
N125 C129 1.334 . S
C126 N125 1.379 . S
C126 C128 1.416 . S
C126 C134 1.424 . S
C127 H122 0.930 . S
C127 C129 1.390 . S
C127 C130 1.339 . S
C128 C126 1.416 . S
C128 C130 1.416 . S
C128 C161 1.448 . S
C129 H114 0.930 . S
C129 N125 1.334 . S
C129 C127 1.390 . S
C130 C127 1.339 . S
C130 C128 1.416 . S
C130 H137 0.930 . S
N131 Tb96 2.572 . S
N131 C132 1.340 . S
N131 C134 1.361 . S
C132 H118 0.930 . S
C132 N131 1.340 . S
C132 C136 1.407 . S
C133 C134 1.413 . S
C133 C135 1.416 . S
C133 C162 1.427 . S
C134 C126 1.424 . S
C134 N131 1.361 . S
C134 C133 1.413 . S
C135 H124 0.931 . S
C135 C133 1.416 . S
C135 C136 1.332 . S
C136 H115 0.929 . S
C136 C132 1.407 . S
C136 C135 1.332 . S
H137 C130 0.930 . S
H138 C161 0.930 . S
H139 C162 0.929 . S
O140 Tb96 2.465 . S
O140 C160 1.264 . S
O141 Tb96 2.387 . S
O141 C152 1.264 . S
O142 Tb107 2.349 1_455 S
O142 C152 1.243 . S
O143 Tb96 2.428 . S
O143 C160 1.256 . S
O144 Tb96 2.298 1_655 S
O144 C159 1.278 . S
O145 Tb107 2.393 . S
O145 C159 1.248 . S
O146 Tb107 2.465 . S
O146 C171 1.264 . S
O147 Tb107 2.387 . S
O147 C163 1.264 . S
O148 Tb96 2.355 . S
O148 C163 1.235 1_455 S
O149 Tb107 2.428 . S
O149 C171 1.256 . S
O150 Tb107 2.308 1_455 S
O150 C170 1.266 . S
O151 Tb96 2.393 . S
O151 C170 1.248 . S
C152 O141 1.264 . S
C152 O142 1.243 . S
C153 C156 1.399 . S
C153 C158 1.383 . S
C153 C160 1.496 . S
C154 C155 1.399 . S
C154 C158 1.389 . S
C155 C154 1.399 . S
C155 C157 1.380 . S
C155 H172 0.929 . S
C156 C153 1.399 . S
C156 C157 1.392 . S
C156 H173 0.929 . S
C157 C155 1.380 . S
C157 C156 1.392 . S
C157 H174 0.929 . S
C158 C153 1.383 . S
C158 C154 1.389 . S
C158 H175 0.931 . S
C159 O144 1.278 . S
C159 O145 1.248 . S
C160 Tb96 2.802 . S
C160 O140 1.264 . S
C160 O143 1.256 . S
C160 C153 1.496 . S
C161 C128 1.448 . S
C161 H138 0.930 . S
C161 C162 1.328 . S
C162 C133 1.427 . S
C162 H139 0.929 . S
C162 C161 1.328 . S
C163 O147 1.264 . S
C163 O148 1.235 1_655 S
C164 C167 1.399 . S
C164 C168 1.383 . S
C164 C171 1.496 . S
C165 C166 1.399 . S
C165 C168 1.389 . S
C166 C165 1.399 . S
C166 C169 1.380 . S
C166 H176 0.929 . S
C167 C164 1.399 . S
C167 C169 1.392 . S
C167 H177 0.929 . S
C168 C164 1.383 . S
C168 C165 1.389 . S
C168 H178 0.931 . S
C169 C166 1.380 . S
C169 C167 1.392 . S
C169 H179 0.929 . S
C170 O150 1.266 . S
C170 O151 1.248 . S
C171 Tb107 2.802 . S
C171 O146 1.264 . S
C171 O149 1.256 . S
C171 C164 1.496 . S
H172 C155 0.929 . S
H173 C156 0.929 . S
H174 C157 0.929 . S
H175 C158 0.931 . S
H176 C166 0.929 . S
H177 C167 0.929 . S
H178 C168 0.931 . S
H179 C169 0.929 . S
Tb180 N209 2.617 . S
Tb180 N215 2.572 . S
Tb180 O224 2.465 . S
Tb180 O225 2.387 . S
Tb180 O227 2.428 . S
Tb180 O228 2.308 . S
Tb180 O232 2.349 . S
Tb180 O235 2.393 . S
Tb180 C244 2.802 . S
C181 N182 1.379 . S
C181 C184 1.416 . S
C181 C188 1.424 . S
N182 C181 1.379 . S
N182 C185 1.334 . S
N182 Tb191 2.617 . S
C183 C185 1.390 . S
C183 C186 1.339 . S
C183 H203 0.930 . S
C184 C181 1.416 . S
C184 C186 1.416 . S
C184 C190 1.448 . S
C185 N182 1.334 . S
C185 C183 1.390 . S
C185 H196 0.930 . S
C186 C183 1.339 . S
C186 C184 1.416 . S
C186 H207 0.930 . S
C187 C188 1.413 . S
C187 C189 1.427 . S
C187 C193 1.416 . S
C188 C181 1.424 . S
C188 C187 1.413 . S
C188 N192 1.361 . S
C189 C187 1.427 . S
C189 C190 1.328 . S
C189 H204 0.929 . S
C190 C184 1.448 . S
C190 C189 1.328 . S
C190 H205 0.930 . S
Tb191 N182 2.617 . S
Tb191 N192 2.572 . S
Tb191 O226 2.349 . S
Tb191 O229 2.393 . S
Tb191 O230 2.465 . S
Tb191 O231 2.387 . S
Tb191 O233 2.428 . S
Tb191 O234 2.308 . S
Tb191 C255 2.802 . S
N192 C188 1.361 . S
N192 Tb191 2.572 . S
N192 C194 1.340 . S
C193 C187 1.416 . S
C193 C195 1.332 . S
C193 H201 0.931 . S
C194 N192 1.340 . S
C194 C195 1.407 . S
C194 H200 0.930 . S
C195 C193 1.332 . S
C195 C194 1.407 . S
C195 H197 0.929 . S
H196 C185 0.930 . S
H197 C195 0.929 . S
H198 C213 0.930 . S
H199 C220 0.929 . S
H200 C194 0.930 . S
H201 C193 0.931 . S
H202 C216 0.930 . S
H203 C183 0.930 . S
H204 C189 0.929 . S
H205 C190 0.930 . S
H206 C211 0.930 . S
H207 C186 0.930 . S
H208 C219 0.931 . S
N209 Tb180 2.617 . S
N209 C210 1.379 . S
N209 C213 1.334 . S
C210 N209 1.379 . S
C210 C212 1.416 . S
C210 C218 1.424 . S
C211 H206 0.930 . S
C211 C213 1.390 . S
C211 C214 1.339 . S
C212 C210 1.416 . S
C212 C214 1.416 . S
C212 C245 1.448 . S
C213 H198 0.930 . S
C213 N209 1.334 . S
C213 C211 1.390 . S
C214 C211 1.339 . S
C214 C212 1.416 . S
C214 H221 0.930 . S
N215 Tb180 2.572 . S
N215 C216 1.340 . S
N215 C218 1.361 . S
C216 H202 0.930 . S
C216 N215 1.340 . S
C216 C220 1.407 . S
C217 C218 1.413 . S
C217 C219 1.416 . S
C217 C246 1.427 . S
C218 C210 1.424 . S
C218 N215 1.361 . S
C218 C217 1.413 . S
C219 H208 0.931 . S
C219 C217 1.416 . S
C219 C220 1.332 . S
C220 H199 0.929 . S
C220 C216 1.407 . S
C220 C219 1.332 . S
H221 C214 0.930 . S
H222 C245 0.930 . S
H223 C246 0.929 . S
O224 Tb180 2.465 . S
O224 C244 1.264 . S
O225 Tb180 2.387 . S
O225 C236 1.264 . S
O226 Tb191 2.349 . S
O226 C236 1.243 . S
O227 Tb180 2.428 . S
O227 C244 1.256 . S
O228 Tb180 2.308 . S
O228 C243 1.266 . S
O229 Tb191 2.393 . S
O229 C243 1.248 . S
O230 Tb191 2.465 . S
O230 C255 1.264 . S
O231 Tb191 2.387 . S
O231 C247 1.264 . S
O232 Tb180 2.349 . S
O232 C247 1.243 . S
O233 Tb191 2.428 . S
O233 C255 1.256 . S
O234 Tb191 2.308 . S
O234 C254 1.266 . S
O235 Tb180 2.393 . S
O235 C254 1.248 . S
C236 O225 1.264 . S
C236 O226 1.243 . S
C237 C240 1.399 . S
C237 C242 1.383 . S
C237 C244 1.496 . S
C238 C239 1.399 . S
C238 C242 1.389 . S
C239 C238 1.399 . S
C239 C241 1.380 . S
C239 H256 0.929 . S
C240 C237 1.399 . S
C240 C241 1.392 . S
C240 H257 0.929 . S
C241 C239 1.380 . S
C241 C240 1.392 . S
C241 H258 0.929 . S
C242 C237 1.383 . S
C242 C238 1.389 . S
C242 H259 0.931 . S
C243 O228 1.266 . S
C243 O229 1.248 . S
C244 Tb180 2.802 . S
C244 O224 1.264 . S
C244 O227 1.256 . S
C244 C237 1.496 . S
C245 C212 1.448 . S
C245 H222 0.930 . S
C245 C246 1.328 . S
C246 C217 1.427 . S
C246 H223 0.929 . S
C246 C245 1.328 . S
C247 O231 1.264 . S
C247 O232 1.243 . S
C248 C251 1.399 . S
C248 C252 1.383 . S
C248 C255 1.496 . S
C249 C250 1.399 . S
C249 C252 1.389 . S
C250 C249 1.399 . S
C250 C253 1.380 . S
C250 H260 0.929 . S
C251 C248 1.399 . S
C251 C253 1.392 . S
C251 H261 0.929 . S
C252 C248 1.383 . S
C252 C249 1.389 . S
C252 H262 0.931 . S
C253 C250 1.380 . S
C253 C251 1.392 . S
C253 H263 0.929 . S
C254 O234 1.266 . S
C254 O235 1.248 . S
C255 Tb191 2.802 . S
C255 O230 1.264 . S
C255 O233 1.256 . S
C255 C248 1.496 . S
H256 C239 0.929 . S
H257 C240 0.929 . S
H258 C241 0.929 . S
H259 C242 0.931 . S
H260 C250 0.929 . S
H261 C251 0.929 . S
H262 C252 0.931 . S
H263 C253 0.929 . S
Tb264 N293 2.617 . S
Tb264 N299 2.572 . S
Tb264 O308 2.465 . S
Tb264 O309 2.387 . S
Tb264 O311 2.428 . S
Tb264 O312 2.308 . S
Tb264 O316 2.349 . S
Tb264 O319 2.393 . S
Tb264 C328 2.802 . S
C265 N266 1.379 . S
C265 C268 1.416 . S
C265 C272 1.424 . S
N266 C265 1.379 . S
N266 C269 1.334 . S
N266 Tb275 2.617 . S
C267 C269 1.390 . S
C267 C270 1.339 . S
C267 H287 0.930 . S
C268 C265 1.416 . S
C268 C270 1.416 . S
C268 C274 1.448 . S
C269 N266 1.334 . S
C269 C267 1.390 . S
C269 H280 0.930 . S
C270 C267 1.339 . S
C270 C268 1.416 . S
C270 H291 0.930 . S
C271 C272 1.413 . S
C271 C273 1.427 . S
C271 C277 1.416 . S
C272 C265 1.424 . S
C272 C271 1.413 . S
C272 N276 1.361 . S
C273 C271 1.427 . S
C273 C274 1.328 . S
C273 H288 0.929 . S
C274 C268 1.448 . S
C274 C273 1.328 . S
C274 H289 0.930 . S
Tb275 N266 2.617 . S
Tb275 N276 2.572 . S
Tb275 O310 2.349 1_655 S
Tb275 O313 2.393 . S
Tb275 O314 2.465 . S
Tb275 O315 2.387 . S
Tb275 O317 2.428 . S
Tb275 O318 2.308 1_655 S
Tb275 C339 2.802 . S
N276 C272 1.361 . S
N276 Tb275 2.572 . S
N276 C278 1.340 . S
C277 C271 1.416 . S
C277 C279 1.332 . S
C277 H285 0.931 . S
C278 N276 1.340 . S
C278 C279 1.407 . S
C278 H284 0.930 . S
C279 C277 1.332 . S
C279 C278 1.407 . S
C279 H281 0.929 . S
H280 C269 0.930 . S
H281 C279 0.929 . S
H282 C297 0.930 . S
H283 C304 0.929 . S
H284 C278 0.930 . S
H285 C277 0.931 . S
H286 C300 0.930 . S
H287 C267 0.930 . S
H288 C273 0.929 . S
H289 C274 0.930 . S
H290 C295 0.930 . S
H291 C270 0.930 . S
H292 C303 0.931 . S
N293 Tb264 2.617 . S
N293 C294 1.379 . S
N293 C297 1.334 . S
C294 N293 1.379 . S
C294 C296 1.416 . S
C294 C302 1.424 . S
C295 H290 0.930 . S
C295 C297 1.390 . S
C295 C298 1.339 . S
C296 C294 1.416 . S
C296 C298 1.416 . S
C296 C329 1.448 . S
C297 H282 0.930 . S
C297 N293 1.334 . S
C297 C295 1.390 . S
C298 C295 1.339 . S
C298 C296 1.416 . S
C298 H305 0.930 . S
N299 Tb264 2.572 . S
N299 C300 1.340 . S
N299 C302 1.361 . S
C300 H286 0.930 . S
C300 N299 1.340 . S
C300 C304 1.407 1_565 S
C301 C302 1.413 . S
C301 C303 1.416 1_565 S
C301 C330 1.427 . S
C302 C294 1.424 . S
C302 N299 1.361 . S
C302 C301 1.413 . S
C303 H292 0.931 . S
C303 C301 1.416 1_545 S
C303 C304 1.332 . S
C304 H283 0.929 . S
C304 C300 1.407 1_545 S
C304 C303 1.332 . S
H305 C298 0.930 . S
H306 C329 0.930 . S
H307 C330 0.929 . S
O308 Tb264 2.465 . S
O308 C328 1.264 . S
O309 Tb264 2.387 . S
O309 C320 1.264 . S
O310 Tb275 2.349 1_455 S
O310 C320 1.243 . S
O311 Tb264 2.428 . S
O311 C328 1.256 . S
O312 Tb264 2.308 . S
O312 C327 1.266 1_455 S
O313 Tb275 2.393 . S
O313 C327 1.248 . S
O314 Tb275 2.465 . S
O314 C339 1.264 . S
O315 Tb275 2.387 . S
O315 C331 1.264 . S
O316 Tb264 2.349 . S
O316 C331 1.243 1_455 S
O317 Tb275 2.428 . S
O317 C339 1.256 . S
O318 Tb275 2.308 1_455 S
O318 C338 1.266 . S
O319 Tb264 2.393 . S
O319 C338 1.248 . S
C320 O309 1.264 . S
C320 O310 1.243 . S
C321 C324 1.399 . S
C321 C326 1.383 . S
C321 C328 1.496 . S
C322 C323 1.399 . S
C322 C326 1.389 . S
C323 C322 1.399 . S
C323 C325 1.380 . S
C323 H340 0.929 . S
C324 C321 1.399 . S
C324 C325 1.392 . S
C324 H341 0.929 . S
C325 C323 1.380 . S
C325 C324 1.392 . S
C325 H342 0.929 . S
C326 C321 1.383 . S
C326 C322 1.389 . S
C326 H343 0.931 . S
C327 O312 1.266 1_655 S
C327 O313 1.248 . S
C328 Tb264 2.802 . S
C328 O308 1.264 . S
C328 O311 1.256 . S
C328 C321 1.496 . S
C329 C296 1.448 . S
C329 H306 0.930 . S
C329 C330 1.328 . S
C330 C301 1.427 . S
C330 H307 0.929 . S
C330 C329 1.328 . S
C331 O315 1.264 . S
C331 O316 1.243 1_655 S
C332 C335 1.399 . S
C332 C336 1.383 . S
C332 C339 1.496 . S
C333 C334 1.399 . S
C333 C336 1.389 . S
C334 C333 1.399 . S
C334 C337 1.380 . S
C334 H344 0.929 . S
C335 C332 1.399 . S
C335 C337 1.392 . S
C335 H345 0.929 . S
C336 C332 1.383 . S
C336 C333 1.389 . S
C336 H346 0.931 . S
C337 C334 1.380 . S
C337 C335 1.392 . S
C337 H347 0.929 . S
C338 O318 1.266 . S
C338 O319 1.248 . S
C339 Tb275 2.802 . S
C339 O314 1.264 . S
C339 O317 1.256 . S
C339 C332 1.496 . S
H340 C323 0.929 . S
H341 C324 0.929 . S
H342 C325 0.929 . S
H343 C326 0.931 . S
H344 C334 0.929 . S
H345 C335 0.929 . S
H346 C336 0.931 . S
H347 C337 0.929 . S
Tb348 N377 2.617 . S
Tb348 N383 2.572 . S
Tb348 O392 2.465 . S
Tb348 O393 2.387 . S
Tb348 O395 2.428 . S
Tb348 O396 2.308 . S
Tb348 O400 2.349 . S
Tb348 O403 2.393 . S
Tb348 C412 2.802 . S
C349 N350 1.379 . S
C349 C352 1.416 . S
C349 C356 1.424 . S
N350 C349 1.379 . S
N350 C353 1.334 . S
N350 Tb359 2.617 . S
C351 C353 1.390 . S
C351 C354 1.339 . S
C351 H371 0.930 . S
C352 C349 1.416 . S
C352 C354 1.416 . S
C352 C358 1.448 . S
C353 N350 1.334 . S
C353 C351 1.390 . S
C353 H364 0.930 . S
C354 C351 1.339 . S
C354 C352 1.416 . S
C354 H375 0.930 . S
C355 C356 1.413 . S
C355 C357 1.427 . S
C355 C361 1.416 . S
C356 C349 1.424 . S
C356 C355 1.413 . S
C356 N360 1.361 . S
C357 C355 1.427 . S
C357 C358 1.328 . S
C357 H372 0.929 . S
C358 C352 1.448 . S
C358 C357 1.328 . S
C358 H373 0.930 . S
Tb359 N350 2.617 . S
Tb359 N360 2.572 . S
Tb359 O394 2.349 . S
Tb359 O397 2.393 . S
Tb359 O398 2.465 . S
Tb359 O399 2.387 . S
Tb359 O401 2.428 . S
Tb359 O402 2.308 . S
Tb359 C423 2.802 . S
N360 C356 1.361 . S
N360 Tb359 2.572 . S
N360 C362 1.340 . S
C361 C355 1.416 . S
C361 C363 1.332 . S
C361 H369 0.931 . S
C362 N360 1.340 . S
C362 C363 1.407 . S
C362 H368 0.930 . S
C363 C361 1.332 . S
C363 C362 1.407 . S
C363 H365 0.929 . S
H364 C353 0.930 . S
H365 C363 0.929 . S
H366 C381 0.930 . S
H367 C388 0.929 . S
H368 C362 0.930 . S
H369 C361 0.931 . S
H370 C384 0.930 . S
H371 C351 0.930 . S
H372 C357 0.929 . S
H373 C358 0.930 . S
H374 C379 0.930 . S
H375 C354 0.930 . S
H376 C387 0.931 . S
N377 Tb348 2.617 . S
N377 C378 1.379 . S
N377 C381 1.334 . S
C378 N377 1.379 . S
C378 C380 1.416 . S
C378 C386 1.424 . S
C379 H374 0.930 . S
C379 C381 1.390 . S
C379 C382 1.339 . S
C380 C378 1.416 . S
C380 C382 1.416 . S
C380 C413 1.448 . S
C381 H366 0.930 . S
C381 N377 1.334 . S
C381 C379 1.390 . S
C382 C379 1.339 . S
C382 C380 1.416 . S
C382 H389 0.930 . S
N383 Tb348 2.572 . S
N383 C384 1.340 . S
N383 C386 1.361 . S
C384 H370 0.930 . S
C384 N383 1.340 . S
C384 C388 1.407 . S
C385 C386 1.413 . S
C385 C387 1.416 . S
C385 C414 1.427 . S
C386 C378 1.424 . S
C386 N383 1.361 . S
C386 C385 1.413 . S
C387 H376 0.931 . S
C387 C385 1.416 . S
C387 C388 1.332 . S
C388 H367 0.929 . S
C388 C384 1.407 . S
C388 C387 1.332 . S
H389 C382 0.930 . S
H390 C413 0.930 . S
H391 C414 0.929 . S
O392 Tb348 2.465 . S
O392 C412 1.264 . S
O393 Tb348 2.387 . S
O393 C404 1.264 . S
O394 Tb359 2.349 . S
O394 C404 1.243 . S
O395 Tb348 2.428 . S
O395 C412 1.256 . S
O396 Tb348 2.308 . S
O396 C411 1.266 . S
O397 Tb359 2.393 . S
O397 C411 1.248 . S
O398 Tb359 2.465 . S
O398 C423 1.264 . S
O399 Tb359 2.387 . S
O399 C415 1.264 . S
O400 Tb348 2.349 . S
O400 C415 1.243 . S
O401 Tb359 2.428 . S
O401 C423 1.256 . S
O402 Tb359 2.308 . S
O402 C422 1.266 . S
O403 Tb348 2.393 . S
O403 C422 1.248 . S
C404 O393 1.264 . S
C404 O394 1.243 . S
C405 C408 1.399 . S
C405 C410 1.383 . S
C405 C412 1.496 . S
C406 C407 1.399 . S
C406 C410 1.389 . S
C407 C406 1.399 . S
C407 C409 1.380 . S
C407 H424 0.929 . S
C408 C405 1.399 . S
C408 C409 1.392 . S
C408 H425 0.929 . S
C409 C407 1.380 . S
C409 C408 1.392 . S
C409 H426 0.929 . S
C410 C405 1.383 . S
C410 C406 1.389 . S
C410 H427 0.931 . S
C411 O396 1.266 . S
C411 O397 1.248 . S
C412 Tb348 2.802 . S
C412 O392 1.264 . S
C412 O395 1.256 . S
C412 C405 1.496 . S
C413 C380 1.448 . S
C413 H390 0.930 . S
C413 C414 1.328 . S
C414 C385 1.427 . S
C414 H391 0.929 . S
C414 C413 1.328 . S
C415 O399 1.264 . S
C415 O400 1.243 . S
C416 C419 1.399 . S
C416 C420 1.383 . S
C416 C423 1.496 . S
C417 C418 1.399 . S
C417 C420 1.389 . S
C418 C417 1.399 . S
C418 C421 1.380 . S
C418 H428 0.929 . S
C419 C416 1.399 . S
C419 C421 1.392 . S
C419 H429 0.929 . S
C420 C416 1.383 . S
C420 C417 1.389 . S
C420 H430 0.931 . S
C421 C418 1.380 . S
C421 C419 1.392 . S
C421 H431 0.929 . S
C422 O402 1.266 . S
C422 O403 1.248 . S
C423 Tb359 2.802 . S
C423 O398 1.264 . S
C423 O401 1.256 . S
C423 C416 1.496 . S
H424 C407 0.929 . S
H425 C408 0.929 . S
H426 C409 0.929 . S
H427 C410 0.931 . S
H428 C418 0.929 . S
H429 C419 0.929 . S
H430 C420 0.931 . S
H431 C421 0.929 . S
H432 C440 0.950 . S
H433 C445 0.950 . S
H434 C442 0.950 . S
H435 C444 0.950 . S
H436 C446 0.950 . S
H437 C448 0.950 . S
H438 C450 0.950 . S
H439 C451 0.950 . S
C440 H432 0.950 . S
C440 C441 1.386 . S
C440 C442 1.391 . S
C441 C440 1.386 . S
C441 C445 1.393 . S
C442 H434 0.950 . S
C442 C440 1.391 . S
C442 C443 1.400 . S
C443 C442 1.400 . S
C443 C444 1.398 . S
C443 C449 1.491 . S
C444 H435 0.950 . S
C444 C443 1.398 . S
C444 C445 1.391 . S
C445 H433 0.950 . S
C445 C441 1.393 . S
C445 C444 1.391 . S
C446 H436 0.950 . S
C446 C447 1.386 . S
C446 C448 1.391 . S
C447 C446 1.386 . S
C447 C451 1.393 . S
C448 H437 0.950 . S
C448 C446 1.391 . S
C448 C449 1.400 1_545 S
C449 C443 1.491 . S
C449 C448 1.400 1_565 S
C449 C450 1.398 . S
C450 H438 0.950 . S
C450 C449 1.398 . S
C450 C451 1.391 1_565 S
C451 H439 0.950 . S
C451 C447 1.393 . S
C451 C450 1.391 1_545 S
H452 C460 0.950 . S
H453 C465 0.950 . S
H454 C462 0.950 . S
H455 C464 0.950 . S
H456 C466 0.950 . S
H457 C468 0.950 . S
H458 C470 0.950 . S
H459 C471 0.950 . S
C460 H452 0.950 . S
C460 C461 1.386 . S
C460 C462 1.391 . S
C461 C460 1.386 . S
C461 C465 1.393 . S
C462 H454 0.950 . S
C462 C460 1.391 . S
C462 C463 1.400 . S
C463 C462 1.400 . S
C463 C464 1.398 . S
C463 C469 1.491 . S
C464 H455 0.950 . S
C464 C463 1.398 . S
C464 C465 1.391 . S
C465 H453 0.950 . S
C465 C461 1.393 . S
C465 C464 1.391 . S
C466 H456 0.950 . S
C466 C467 1.386 . S
C466 C468 1.391 . S
C467 C466 1.386 . S
C467 C471 1.393 . S
C468 H457 0.950 . S
C468 C466 1.391 . S
C468 C469 1.400 . S
C469 C463 1.491 . S
C469 C468 1.400 . S
C469 C470 1.398 . S
C470 H458 0.950 . S
C470 C469 1.398 . S
C470 C471 1.391 . S
C471 H459 0.950 . S
C471 C467 1.393 . S
C471 C470 1.391 . S
H472 C480 0.950 . S
H473 C485 0.950 . S
H474 C482 0.950 . S
H475 C484 0.950 . S
H476 C486 0.950 . S
H477 C488 0.950 . S
H478 C490 0.950 . S
H479 C491 0.950 . S
C480 H472 0.950 . S
C480 C481 1.386 . S
C480 C482 1.391 . S
C481 C480 1.386 . S
C481 C485 1.393 . S
C482 H474 0.950 . S
C482 C480 1.391 . S
C482 C483 1.400 . S
C483 C482 1.400 . S
C483 C484 1.398 . S
C483 C489 1.491 . S
C484 H475 0.950 . S
C484 C483 1.398 . S
C484 C485 1.391 . S
C485 H473 0.950 . S
C485 C481 1.393 . S
C485 C484 1.391 . S
C486 H476 0.950 . S
C486 C487 1.386 . S
C486 C488 1.391 . S
C487 C486 1.386 . S
C487 C491 1.393 . S
C488 H477 0.950 . S
C488 C486 1.391 . S
C488 C489 1.400 . S
C489 C483 1.491 . S
C489 C488 1.400 . S
C489 C490 1.398 . S
C490 H478 0.950 . S
C490 C489 1.398 . S
C490 C491 1.391 . S
C491 H479 0.950 . S
C491 C487 1.393 . S
C491 C490 1.391 . S
H492 C500 0.950 . S
H493 C505 0.950 . S
H494 C502 0.950 . S
H495 C504 0.950 . S
H496 C506 0.950 1_565 S
H497 C508 0.950 . S
H498 C510 0.950 . S
H499 C511 0.950 . S
C500 H492 0.950 . S
C500 C501 1.386 . S
C500 C502 1.391 . S
C501 C500 1.386 . S
C501 C505 1.393 . S
C502 H494 0.950 . S
C502 C500 1.391 . S
C502 C503 1.400 . S
C503 C502 1.400 . S
C503 C504 1.398 . S
C503 C509 1.491 . S
C504 H495 0.950 . S
C504 C503 1.398 . S
C504 C505 1.391 . S
C505 H493 0.950 . S
C505 C501 1.393 . S
C505 C504 1.391 . S
C506 H496 0.950 1_545 S
C506 C507 1.386 . S
C506 C508 1.391 1_545 S
C507 C506 1.386 . S
C507 C511 1.393 . S
C508 H497 0.950 . S
C508 C506 1.391 1_565 S
C508 C509 1.400 . S
C509 C503 1.491 . S
C509 C508 1.400 . S
C509 C510 1.398 1_565 S
C510 H498 0.950 . S
C510 C509 1.398 1_545 S
C510 C511 1.391 . S
C511 H499 0.950 . S
C511 C507 1.393 . S
C511 C510 1.391 . S
H512 C520 0.950 . S
H513 C525 0.950 . S
H514 C522 0.950 . S
H515 C524 0.950 . S
H516 C526 0.950 . S
H517 C528 0.950 . S
H518 C530 0.950 . S
H519 C531 0.950 . S
C520 H512 0.950 . S
C520 C521 1.386 . S
C520 C522 1.391 . S
C521 C520 1.386 . S
C521 C525 1.393 . S
C522 H514 0.950 . S
C522 C520 1.391 . S
C522 C523 1.400 . S
C523 C522 1.400 . S
C523 C524 1.398 . S
C523 C529 1.491 . S
C524 H515 0.950 . S
C524 C523 1.398 . S
C524 C525 1.391 . S
C525 H513 0.950 . S
C525 C521 1.393 . S
C525 C524 1.391 . S
C526 H516 0.950 . S
C526 C527 1.386 . S
C526 C528 1.391 1_565 S
C527 C526 1.386 . S
C527 C531 1.393 . S
C528 H517 0.950 . S
C528 C526 1.391 1_545 S
C528 C529 1.400 . S
C529 C523 1.491 . S
C529 C528 1.400 . S
C529 C530 1.398 1_545 S
C530 H518 0.950 . S
C530 C529 1.398 1_565 S
C530 C531 1.391 . S
C531 H519 0.950 . S
C531 C527 1.393 . S
C531 C530 1.391 . S
H532 C540 0.950 . S
H533 C545 0.950 . S
H534 C542 0.950 . S
H535 C544 0.950 . S
H536 C546 0.950 . S
H537 C548 0.950 . S
H538 C550 0.950 . S
H539 C551 0.950 . S
C540 H532 0.950 . S
C540 C541 1.386 . S
C540 C542 1.391 . S
C541 C540 1.386 . S
C541 C545 1.393 . S
C542 H534 0.950 . S
C542 C540 1.391 . S
C542 C543 1.400 . S
C543 C542 1.400 . S
C543 C544 1.398 . S
C543 C549 1.491 . S
C544 H535 0.950 . S
C544 C543 1.398 . S
C544 C545 1.391 . S
C545 H533 0.950 . S
C545 C541 1.393 . S
C545 C544 1.391 . S
C546 H536 0.950 . S
C546 C547 1.386 . S
C546 C548 1.391 . S
C547 C546 1.386 . S
C547 C551 1.393 . S
C548 H537 0.950 . S
C548 C546 1.391 . S
C548 C549 1.400 . S
C549 C543 1.491 . S
C549 C548 1.400 . S
C549 C550 1.398 . S
C550 H538 0.950 . S
C550 C549 1.398 . S
C550 C551 1.391 . S
C551 H539 0.950 . S
C551 C547 1.393 . S
C551 C550 1.391 . S
H552 C560 0.950 . S
H553 C565 0.950 . S
H554 C562 0.950 . S
H555 C564 0.950 . S
H556 C566 0.950 . S
H557 C568 0.950 . S
H558 C570 0.950 . S
H559 C571 0.950 . S
C560 H552 0.950 . S
C560 C561 1.386 . S
C560 C562 1.391 . S
C561 C560 1.386 . S
C561 C565 1.393 . S
C562 H554 0.950 . S
C562 C560 1.391 . S
C562 C563 1.400 . S
C563 C562 1.400 . S
C563 C564 1.398 . S
C563 C569 1.491 . S
C564 H555 0.950 . S
C564 C563 1.398 . S
C564 C565 1.391 . S
C565 H553 0.950 . S
C565 C561 1.393 . S
C565 C564 1.391 . S
C566 H556 0.950 . S
C566 C567 1.386 . S
C566 C568 1.391 . S
C567 C566 1.386 . S
C567 C571 1.393 . S
C568 H557 0.950 . S
C568 C566 1.391 . S
C568 C569 1.400 . S
C569 C563 1.491 . S
C569 C568 1.400 . S
C569 C570 1.398 . S
C570 H558 0.950 . S
C570 C569 1.398 . S
C570 C571 1.391 . S
C571 H559 0.950 . S
C571 C567 1.393 . S
C571 C570 1.391 . S
H572 C580 0.950 . S
H573 C585 0.950 . S
H574 C582 0.950 . S
H575 C584 0.950 . S
H576 C586 0.950 . S
H577 C588 0.950 . S
H578 C590 0.947 1_545 S
H579 C591 0.950 . S
C580 H572 0.950 . S
C580 C581 1.386 . S
C580 C582 1.391 . S
C581 C580 1.386 . S
C581 C585 1.393 . S
C582 H574 0.950 . S
C582 C580 1.391 . S
C582 C583 1.400 . S
C583 C582 1.400 . S
C583 C584 1.398 . S
C583 C589 1.491 . S
C584 H575 0.950 . S
C584 C583 1.398 . S
C584 C585 1.391 . S
C585 H573 0.950 . S
C585 C581 1.393 . S
C585 C584 1.391 . S
C586 H576 0.950 . S
C586 C587 1.386 . S
C586 C588 1.391 1_565 S
C587 C586 1.386 . S
C587 C591 1.393 . S
C588 H577 0.950 . S
C588 C586 1.391 1_545 S
C588 C589 1.400 . S
C589 C583 1.491 . S
C589 C588 1.400 . S
C589 C590 1.398 1_545 S
C590 H578 0.947 1_565 S
C590 C589 1.398 1_565 S
C590 C591 1.391 . S
C591 H579 0.950 . S
C591 C587 1.393 . S
C591 C590 1.391 . S
H592 C600 0.950 . S
H593 C605 0.950 . S
H594 C602 0.950 . S
H595 C604 0.950 . S
H596 C606 0.950 . S
H597 C608 0.950 . S
H598 C610 0.950 . S
H599 C611 0.950 . S
C600 H592 0.950 . S
C600 C601 1.386 . S
C600 C602 1.391 . S
C601 C600 1.386 . S
C601 C605 1.393 . S
C602 H594 0.950 . S
C602 C600 1.391 . S
C602 C603 1.400 1_556 S
C603 C602 1.400 1_554 S
C603 C604 1.398 . S
C603 C609 1.491 . S
C604 H595 0.950 . S
C604 C603 1.398 . S
C604 C605 1.391 1_554 S
C605 H593 0.950 . S
C605 C601 1.393 . S
C605 C604 1.391 1_556 S
C606 H596 0.950 . S
C606 C607 1.386 . S
C606 C608 1.391 . S
C607 C606 1.386 . S
C607 C611 1.393 . S
C608 H597 0.950 . S
C608 C606 1.391 . S
C608 C609 1.400 . S
C609 C603 1.491 . S
C609 C608 1.400 . S
C609 C610 1.398 . S
C610 H598 0.950 . S
C610 C609 1.398 . S
C610 C611 1.391 . S
C611 H599 0.950 . S
C611 C607 1.393 . S
C611 C610 1.391 . S
H612 C620 0.950 . S
H613 C625 0.950 . S
H614 C622 0.950 . S
H615 C624 0.950 . S
H616 C626 0.950 . S
H617 C628 0.950 . S
H618 C630 0.950 . S
H619 C631 0.950 . S
C620 H612 0.950 . S
C620 C621 1.386 . S
C620 C622 1.391 . S
C621 C620 1.386 . S
C621 C625 1.393 . S
C622 H614 0.950 . S
C622 C620 1.391 . S
C622 C623 1.400 . S
C623 C622 1.400 . S
C623 C624 1.398 . S
C623 C629 1.491 . S
C624 H615 0.950 . S
C624 C623 1.398 . S
C624 C625 1.391 . S
C625 H613 0.950 . S
C625 C621 1.393 . S
C625 C624 1.391 . S
C626 H616 0.950 . S
C626 C627 1.386 . S
C626 C628 1.391 . S
C627 C626 1.386 . S
C627 C631 1.393 . S
C628 H617 0.950 . S
C628 C626 1.391 . S
C628 C629 1.400 . S
C629 C623 1.491 . S
C629 C628 1.400 . S
C629 C630 1.398 . S
C630 H618 0.950 . S
C630 C629 1.398 . S
C630 C631 1.391 . S
C631 H619 0.950 . S
C631 C627 1.393 . S
C631 C630 1.391 . S
H632 C640 0.950 . S
H633 C645 0.950 . S
H634 C642 0.950 1_556 S
H635 C644 0.950 . S
H636 C646 0.950 . S
H637 C648 0.950 . S
H638 C650 0.950 . S
H639 C651 0.950 . S
C640 H632 0.950 . S
C640 C641 1.386 . S
C640 C642 1.391 . S
C641 C640 1.386 . S
C641 C645 1.393 . S
C642 H634 0.950 1_554 S
C642 C640 1.391 . S
C642 C643 1.400 1_554 S
C643 C642 1.400 1_556 S
C643 C644 1.398 1_556 S
C643 C649 1.491 . S
C644 H635 0.950 . S
C644 C643 1.398 1_554 S
C644 C645 1.391 . S
C645 H633 0.950 . S
C645 C641 1.393 . S
C645 C644 1.391 . S
C646 H636 0.950 . S
C646 C647 1.386 . S
C646 C648 1.391 . S
C647 C646 1.386 . S
C647 C651 1.393 . S
C648 H637 0.950 . S
C648 C646 1.391 . S
C648 C649 1.400 . S
C649 C643 1.491 . S
C649 C648 1.400 . S
C649 C650 1.398 . S
C650 H638 0.950 . S
C650 C649 1.398 . S
C650 C651 1.391 . S
C651 H639 0.950 . S
C651 C647 1.393 . S
C651 C650 1.391 . S
H652 C660 0.950 . S
H653 C665 0.950 . S
H654 C662 0.950 . S
H655 C664 0.950 . S
H656 C666 0.950 . S
H657 C668 0.950 . S
H658 C670 0.950 . S
H659 C671 0.950 . S
C660 H652 0.950 . S
C660 C661 1.386 . S
C660 C662 1.391 . S
C661 C660 1.386 . S
C661 C665 1.393 . S
C662 H654 0.950 . S
C662 C660 1.391 . S
C662 C663 1.400 . S
C663 C662 1.400 . S
C663 C664 1.398 . S
C663 C669 1.491 . S
C664 H655 0.950 . S
C664 C663 1.398 . S
C664 C665 1.391 . S
C665 H653 0.950 . S
C665 C661 1.393 . S
C665 C664 1.391 . S
C666 H656 0.950 . S
C666 C667 1.386 . S
C666 C668 1.391 . S
C667 C666 1.386 . S
C667 C671 1.393 . S
C668 H657 0.950 . S
C668 C666 1.391 . S
C668 C669 1.400 . S
C669 C663 1.491 . S
C669 C668 1.400 . S
C669 C670 1.398 . S
C670 H658 0.950 . S
C670 C669 1.398 . S
C670 C671 1.391 . S
C671 H659 0.950 . S
C671 C667 1.393 . S
C671 C670 1.391 . S
H672 C680 0.950 . S
H673 C685 0.950 . S
H674 C682 0.950 . S
H675 C684 0.950 . S
H676 C686 0.950 . S
H677 C688 0.950 . S
H678 C690 0.950 . S
H679 C691 0.950 . S
C680 H672 0.950 . S
C680 C681 1.386 . S
C680 C682 1.391 . S
C681 C680 1.386 . S
C681 C685 1.393 . S
C682 H674 0.950 . S
C682 C680 1.391 . S
C682 C683 1.400 1_554 S
C683 C682 1.400 1_556 S
C683 C684 1.398 . S
C683 C689 1.491 . S
C684 H675 0.950 . S
C684 C683 1.398 . S
C684 C685 1.391 1_556 S
C685 H673 0.950 . S
C685 C681 1.393 . S
C685 C684 1.391 1_554 S
C686 H676 0.950 . S
C686 C687 1.386 . S
C686 C688 1.391 . S
C687 C686 1.386 . S
C687 C691 1.393 . S
C688 H677 0.950 . S
C688 C686 1.391 . S
C688 C689 1.400 . S
C689 C683 1.491 . S
C689 C688 1.400 . S
C689 C690 1.398 . S
C690 H678 0.950 . S
C690 C689 1.398 . S
C690 C691 1.391 . S
C691 H679 0.950 . S
C691 C687 1.393 . S
C691 C690 1.391 . S
H692 C700 0.950 . S
H693 C705 0.950 . S
H694 C702 0.950 . S
H695 C704 0.950 . S
H696 C706 0.950 . S
H697 C708 0.950 . S
H698 C710 0.950 . S
H699 C711 0.950 . S
C700 H692 0.950 . S
C700 C701 1.386 . S
C700 C702 1.391 . S
C701 C700 1.386 . S
C701 C705 1.393 . S
C702 H694 0.950 . S
C702 C700 1.391 . S
C702 C703 1.400 . S
C703 C702 1.400 . S
C703 C704 1.398 . S
C703 C709 1.491 . S
C704 H695 0.950 . S
C704 C703 1.398 . S
C704 C705 1.391 . S
C705 H693 0.950 . S
C705 C701 1.393 . S
C705 C704 1.391 . S
C706 H696 0.950 . S
C706 C707 1.386 . S
C706 C708 1.391 . S
C707 C706 1.386 . S
C707 C711 1.393 . S
C708 H697 0.950 . S
C708 C706 1.391 . S
C708 C709 1.400 . S
C709 C703 1.491 . S
C709 C708 1.400 . S
C709 C710 1.398 . S
C710 H698 0.950 . S
C710 C709 1.398 . S
C710 C711 1.391 . S
C711 H699 0.950 . S
C711 C707 1.393 . S
C711 C710 1.391 . S
H712 C720 0.950 . S
H713 C725 0.950 . S
H714 C722 0.950 1_554 S
H715 C724 0.950 . S
H716 C726 0.950 . S
H717 C728 0.950 . S
H718 C730 0.950 . S
H719 C731 0.950 . S
C720 H712 0.950 . S
C720 C721 1.386 . S
C720 C722 1.391 . S
C721 C720 1.386 . S
C721 C725 1.393 . S
C722 H714 0.950 1_556 S
C722 C720 1.391 . S
C722 C723 1.400 1_556 S
C723 C722 1.400 1_554 S
C723 C724 1.398 1_554 S
C723 C729 1.491 . S
C724 H715 0.950 . S
C724 C723 1.398 1_556 S
C724 C725 1.391 . S
C725 H713 0.950 . S
C725 C721 1.393 . S
C725 C724 1.391 . S
C726 H716 0.950 . S
C726 C727 1.386 . S
C726 C728 1.391 . S
C727 C726 1.386 . S
C727 C731 1.393 . S
C728 H717 0.950 . S
C728 C726 1.391 . S
C728 C729 1.400 . S
C729 C723 1.491 . S
C729 C728 1.400 . S
C729 C730 1.398 . S
C730 H718 0.950 . S
C730 C729 1.398 . S
C730 C731 1.391 . S
C731 H719 0.950 . S
C731 C727 1.393 . S
C731 C730 1.391 . S
H732 C740 0.950 . S
H733 C745 0.950 . S
H734 C742 0.950 . S
H735 C744 0.950 . S
H736 C746 0.950 . S
H737 C748 0.950 . S
H738 C750 0.950 . S
H739 C751 0.950 . S
C740 H732 0.950 . S
C740 C741 1.386 . S
C740 C742 1.391 . S
C741 C740 1.386 . S
C741 C745 1.393 . S
C742 H734 0.950 . S
C742 C740 1.391 . S
C742 C743 1.400 . S
C743 C742 1.400 . S
C743 C744 1.398 . S
C743 C749 1.491 . S
C744 H735 0.950 . S
C744 C743 1.398 . S
C744 C745 1.391 . S
C745 H733 0.950 . S
C745 C741 1.393 . S
C745 C744 1.391 . S
C746 H736 0.950 . S
C746 C747 1.386 . S
C746 C748 1.391 . S
C747 C746 1.386 . S
C747 C751 1.393 . S
C748 H737 0.950 . S
C748 C746 1.391 . S
C748 C749 1.400 . S
C749 C743 1.491 . S
C749 C748 1.400 . S
C749 C750 1.398 . S
C750 H738 0.950 . S
C750 C749 1.398 . S
C750 C751 1.391 . S
C751 H739 0.950 . S
C751 C747 1.393 . S
C751 C750 1.391 . S
H752 C760 0.950 . S
H753 C765 0.950 . S
H754 C762 0.950 . S
H755 C764 0.950 . S
H756 C766 0.950 . S
H757 C768 0.950 . S
H758 C770 0.950 . S
H759 C771 0.950 . S
C760 H752 0.950 . S
C760 C761 1.386 . S
C760 C762 1.391 . S
C761 C760 1.386 . S
C761 C765 1.393 . S
C762 H754 0.950 . S
C762 C760 1.391 . S
C762 C763 1.400 . S
C763 C762 1.400 . S
C763 C764 1.398 . S
C763 C769 1.491 . S
C764 H755 0.950 . S
C764 C763 1.398 . S
C764 C765 1.391 . S
C765 H753 0.950 . S
C765 C761 1.393 . S
C765 C764 1.391 . S
C766 H756 0.950 . S
C766 C767 1.386 . S
C766 C768 1.391 . S
C767 C766 1.386 . S
C767 C771 1.393 . S
C768 H757 0.950 . S
C768 C766 1.391 . S
C768 C769 1.400 . S
C769 C763 1.491 . S
C769 C768 1.400 . S
C769 C770 1.398 . S
C770 H758 0.950 . S
C770 C769 1.398 . S
C770 C771 1.391 . S
C771 H759 0.950 . S
C771 C767 1.393 . S
C771 C770 1.391 . S
H772 C780 0.950 . S
H773 C785 0.950 . S
H774 C782 0.950 . S
H775 C784 0.950 . S
H776 C786 0.950 . S
H777 C788 0.950 . S
H778 C790 0.950 . S
H779 C791 0.950 . S
C780 H772 0.950 . S
C780 C781 1.386 . S
C780 C782 1.391 . S
C781 C780 1.386 . S
C781 C785 1.393 . S
C782 H774 0.950 . S
C782 C780 1.391 . S
C782 C783 1.400 . S
C783 C782 1.400 . S
C783 C784 1.398 . S
C783 C789 1.491 . S
C784 H775 0.950 . S
C784 C783 1.398 . S
C784 C785 1.391 . S
C785 H773 0.950 . S
C785 C781 1.393 . S
C785 C784 1.391 . S
C786 H776 0.950 . S
C786 C787 1.386 . S
C786 C788 1.391 . S
C787 C786 1.386 . S
C787 C791 1.393 . S
C788 H777 0.950 . S
C788 C786 1.391 . S
C788 C789 1.400 . S
C789 C783 1.491 . S
C789 C788 1.400 . S
C789 C790 1.398 . S
C790 H778 0.950 . S
C790 C789 1.398 . S
C790 C791 1.391 . S
C791 H779 0.950 . S
C791 C787 1.393 . S
C791 C790 1.391 . S
H792 C800 0.950 . S
H793 C805 0.950 . S
H794 C802 0.950 . S
H795 C804 0.950 . S
H796 C806 0.950 . S
H797 C808 0.950 . S
H798 C810 0.950 . S
H799 C811 0.950 . S
C800 H792 0.950 . S
C800 C801 1.386 . S
C800 C802 1.391 . S
C801 C800 1.386 . S
C801 C805 1.393 . S
C802 H794 0.950 . S
C802 C800 1.391 . S
C802 C803 1.400 . S
C803 C802 1.400 . S
C803 C804 1.398 . S
C803 C809 1.491 . S
C804 H795 0.950 . S
C804 C803 1.398 . S
C804 C805 1.391 . S
C805 H793 0.950 . S
C805 C801 1.393 . S
C805 C804 1.391 . S
C806 H796 0.950 . S
C806 C807 1.386 . S
C806 C808 1.391 . S
C807 C806 1.386 . S
C807 C811 1.393 . S
C808 H797 0.950 . S
C808 C806 1.391 . S
C808 C809 1.400 . S
C809 C803 1.491 . S
C809 C808 1.400 . S
C809 C810 1.398 . S
C810 H798 0.950 . S
C810 C809 1.398 . S
C810 C811 1.391 . S
C811 H799 0.950 . S
C811 C807 1.393 . S
C811 C810 1.391 . S
H812 C820 0.950 . S
H813 C825 0.950 . S
H814 C822 0.950 . S
H815 C824 0.950 . S
H816 C826 0.950 . S
H817 C828 0.950 . S
H818 C830 0.950 . S
H819 C831 0.950 . S
C820 H812 0.950 . S
C820 C821 1.386 . S
C820 C822 1.391 . S
C821 C820 1.386 . S
C821 C825 1.393 . S
C822 H814 0.950 . S
C822 C820 1.391 . S
C822 C823 1.400 . S
C823 C822 1.400 . S
C823 C824 1.398 . S
C823 C829 1.491 . S
C824 H815 0.950 . S
C824 C823 1.398 . S
C824 C825 1.391 . S
C825 H813 0.950 . S
C825 C821 1.393 . S
C825 C824 1.391 . S
C826 H816 0.950 . S
C826 C827 1.386 . S
C826 C828 1.391 . S
C827 C826 1.386 . S
C827 C831 1.393 . S
C828 H817 0.950 . S
C828 C826 1.391 . S
C828 C829 1.400 . S
C829 C823 1.491 . S
C829 C828 1.400 . S
C829 C830 1.398 . S
C830 H818 0.950 . S
C830 C829 1.398 . S
C830 C831 1.391 . S
C831 H819 0.950 . S
C831 C827 1.393 . S
C831 C830 1.391 . S
H832 C840 0.950 . S
H833 C845 0.950 . S
H834 C842 0.950 . S
H835 C844 0.950 . S
H836 C846 0.950 . S
H837 C848 0.950 . S
H838 C850 0.950 . S
H839 C851 0.950 . S
C840 H832 0.950 . S
C840 C841 1.386 . S
C840 C842 1.391 . S
C841 C840 1.386 . S
C841 C845 1.393 . S
C842 H834 0.950 . S
C842 C840 1.391 . S
C842 C843 1.400 . S
C843 C842 1.400 . S
C843 C844 1.398 . S
C843 C849 1.491 . S
C844 H835 0.950 . S
C844 C843 1.398 . S
C844 C845 1.391 . S
C845 H833 0.950 . S
C845 C841 1.393 . S
C845 C844 1.391 . S
C846 H836 0.950 . S
C846 C847 1.386 . S
C846 C848 1.391 . S
C847 C846 1.386 . S
C847 C851 1.393 . S
C848 H837 0.950 . S
C848 C846 1.391 . S
C848 C849 1.400 . S
C849 C843 1.491 . S
C849 C848 1.400 . S
C849 C850 1.398 . S
C850 H838 0.950 . S
C850 C849 1.398 . S
C850 C851 1.391 . S
C851 H839 0.950 . S
C851 C847 1.393 . S
C851 C850 1.391 . S
H852 C860 0.950 . S
H853 C865 0.950 . S
H854 C862 0.950 . S
H855 C864 0.950 . S
H856 C866 0.950 . S
H857 C868 0.950 . S
H858 C870 0.950 . S
H859 C871 0.950 . S
C860 H852 0.950 . S
C860 C861 1.386 . S
C860 C862 1.391 . S
C861 C860 1.386 . S
C861 C865 1.393 . S
C862 H854 0.950 . S
C862 C860 1.391 . S
C862 C863 1.400 . S
C863 C862 1.400 . S
C863 C864 1.398 . S
C863 C869 1.491 . S
C864 H855 0.950 . S
C864 C863 1.398 . S
C864 C865 1.391 . S
C865 H853 0.950 . S
C865 C861 1.393 . S
C865 C864 1.391 . S
C866 H856 0.950 . S
C866 C867 1.386 . S
C866 C868 1.391 . S
C867 C866 1.386 . S
C867 C871 1.393 . S
C868 H857 0.950 . S
C868 C866 1.391 . S
C868 C869 1.400 . S
C869 C863 1.491 . S
C869 C868 1.400 . S
C869 C870 1.398 . S
C870 H858 0.950 . S
C870 C869 1.398 . S
C870 C871 1.391 . S
C871 H859 0.950 . S
C871 C867 1.393 . S
C871 C870 1.391 . S
H872 C880 0.950 . S
H873 C885 0.950 . S
H874 C882 0.950 . S
H875 C884 0.950 . S
H876 C886 0.950 . S
H877 C888 0.950 . S
H878 C890 0.950 . S
H879 C891 0.950 . S
C880 H872 0.950 . S
C880 C881 1.386 . S
C880 C882 1.391 . S
C881 C880 1.386 . S
C881 C885 1.393 . S
C882 H874 0.950 . S
C882 C880 1.391 . S
C882 C883 1.400 . S
C883 C882 1.400 . S
C883 C884 1.398 . S
C883 C889 1.491 . S
C884 H875 0.950 . S
C884 C883 1.398 . S
C884 C885 1.391 . S
C885 H873 0.950 . S
C885 C881 1.393 . S
C885 C884 1.391 . S
C886 H876 0.950 . S
C886 C887 1.386 . S
C886 C888 1.391 . S
C887 C886 1.386 . S
C887 C891 1.393 . S
C888 H877 0.950 . S
C888 C886 1.391 . S
C888 C889 1.400 . S
C889 C883 1.491 . S
C889 C888 1.400 . S
C889 C890 1.398 . S
C890 H878 0.950 . S
C890 C889 1.398 . S
C890 C891 1.391 . S
C891 H879 0.950 . S
C891 C887 1.393 . S
C891 C890 1.391 . S
H892 C900 0.950 . S
H893 C905 0.950 . S
H894 C902 0.950 . S
H895 C904 0.950 . S
H896 C906 0.950 . S
H897 C908 0.950 . S
H898 C910 0.950 . S
H899 C911 0.950 . S
C900 H892 0.950 . S
C900 C901 1.386 . S
C900 C902 1.391 . S
C901 C900 1.386 . S
C901 C905 1.393 . S
C902 H894 0.950 . S
C902 C900 1.391 . S
C902 C903 1.400 . S
C903 C902 1.400 . S
C903 C904 1.398 . S
C903 C909 1.491 . S
C904 H895 0.950 . S
C904 C903 1.398 . S
C904 C905 1.391 . S
C905 H893 0.950 . S
C905 C901 1.393 . S
C905 C904 1.391 . S
C906 H896 0.950 . S
C906 C907 1.386 . S
C906 C908 1.391 . S
C907 C906 1.386 . S
C907 C911 1.393 . S
C908 H897 0.950 . S
C908 C906 1.391 . S
C908 C909 1.400 . S
C909 C903 1.491 . S
C909 C908 1.400 . S
C909 C910 1.398 . S
C910 H898 0.950 . S
C910 C909 1.398 . S
C910 C911 1.391 . S
C911 H899 0.950 . S
C911 C907 1.393 . S
C911 C910 1.391 . S
C441 C81 1.683 . S
C447 C170 1.667 . S
C467 C254 1.663 . S
C461 C93 1.681 . S
C487 C247 1.678 . S
C481 C57 1.677 . S
C501 C69 1.682 . S
C507 C163 1.678 . S
C527 C327 1.659 . S
C521 C33 1.678 . S
C547 C411 1.672 . S
C541 C45 1.680 . S
C561 C9 1.669 . S
C567 C404 1.673 . S
C581 C21 1.673 . S
C587 C320 1.679 . S
C607 C154 1.475 . S
C601 C18 1.614 . S
C627 C238 1.442 . S
C621 C6 1.605 . S
C647 C249 1.383 . S
C641 C42 1.612 . S
C667 C165 1.383 . S
C661 C30 1.615 . S
C687 C333 1.445 . S
C681 C66 1.620 . S
C701 C54 1.617 . S
C707 C417 1.474 . S
C727 C406 1.381 . S
C721 C90 1.621 . S
C741 C78 1.621 . S
C747 C322 1.382 . S
C767 C152 1.536 . S
C761 C4 1.523 . S
C787 C236 1.540 . S
C781 C16 1.519 . S
C801 C28 1.516 . S
C807 C243 1.510 . S
C827 C159 1.500 . S
C821 C40 1.525 . S
C847 C331 1.536 . S
C841 C52 1.520 . S
C861 C64 1.520 . S
C867 C415 1.536 . S
C881 C76 1.506 . S
C887 C422 1.515 . S
C901 C88 1.514 . S
C907 C338 1.511 . S
