# Generated by pormake.
# Topology zzz, (3,6)-cn, num edge types: 1
# Building blocks:
#     Node 0, Type 0, BuildingBlock: KAKCAD_clean_linker_0, # of connection points: 3
#     Node 1, Type 0, BuildingBlock: KAKCAD_clean_linker_0, # of connection points: 3
#     Node 2, Type 0, BuildingBlock: KAKCAD_clean_linker_0, # of connection points: 3
#     Node 3, Type 0, BuildingBlock: KAKCAD_clean_linker_0, # of connection points: 3
#     Node 4, Type 0, BuildingBlock: KAKCAD_clean_linker_0, # of connection points: 3
#     Node 5, Type 0, BuildingBlock: KAKCAD_clean_linker_0, # of connection points: 3
#     Node 6, Type 0, BuildingBlock: KAKCAD_clean_linker_0, # of connection points: 3
#     Node 7, Type 0, BuildingBlock: KAKCAD_clean_linker_0, # of connection points: 3
#     Node 8, Type 1, BuildingBlock: KUMBOL_clean_sbu_1, # of connection points: 6
#     Node 9, Type 1, BuildingBlock: KUMBOL_clean_sbu_1, # of connection points: 6
#     Node 10, Type 1, BuildingBlock: KUMBOL_clean_sbu_1, # of connection points: 6
#     Node 11, Type 1, BuildingBlock: KUMBOL_clean_sbu_1, # of connection points: 6
#     Edge 12, Type (0, 1), BuildingBlock: MIFKUJ_clean_linker_0, # of connection points: 2
#     Edge 13, Type (0, 1), BuildingBlock: MIFKUJ_clean_linker_0, # of connection points: 2
#     Edge 14, Type (0, 1), BuildingBlock: MIFKUJ_clean_linker_0, # of connection points: 2
#     Edge 15, Type (0, 1), BuildingBlock: MIFKUJ_clean_linker_0, # of connection points: 2
#     Edge 16, Type (0, 1), BuildingBlock: MIFKUJ_clean_linker_0, # of connection points: 2
#     Edge 17, Type (0, 1), BuildingBlock: MIFKUJ_clean_linker_0, # of connection points: 2
#     Edge 18, Type (0, 1), BuildingBlock: MIFKUJ_clean_linker_0, # of connection points: 2
#     Edge 19, Type (0, 1), BuildingBlock: MIFKUJ_clean_linker_0, # of connection points: 2
#     Edge 20, Type (0, 1), BuildingBlock: MIFKUJ_clean_linker_0, # of connection points: 2
#     Edge 21, Type (0, 1), BuildingBlock: MIFKUJ_clean_linker_0, # of connection points: 2
#     Edge 22, Type (0, 1), BuildingBlock: MIFKUJ_clean_linker_0, # of connection points: 2
#     Edge 23, Type (0, 1), BuildingBlock: MIFKUJ_clean_linker_0, # of connection points: 2
#     Edge 24, Type (0, 1), BuildingBlock: MIFKUJ_clean_linker_0, # of connection points: 2
#     Edge 25, Type (0, 1), BuildingBlock: MIFKUJ_clean_linker_0, # of connection points: 2
#     Edge 26, Type (0, 1), BuildingBlock: MIFKUJ_clean_linker_0, # of connection points: 2
#     Edge 27, Type (0, 1), BuildingBlock: MIFKUJ_clean_linker_0, # of connection points: 2
#     Edge 28, Type (0, 1), BuildingBlock: MIFKUJ_clean_linker_0, # of connection points: 2
#     Edge 29, Type (0, 1), BuildingBlock: MIFKUJ_clean_linker_0, # of connection points: 2
#     Edge 30, Type (0, 1), BuildingBlock: MIFKUJ_clean_linker_0, # of connection points: 2
#     Edge 31, Type (0, 1), BuildingBlock: MIFKUJ_clean_linker_0, # of connection points: 2
#     Edge 32, Type (0, 1), BuildingBlock: MIFKUJ_clean_linker_0, # of connection points: 2
#     Edge 33, Type (0, 1), BuildingBlock: MIFKUJ_clean_linker_0, # of connection points: 2
#     Edge 34, Type (0, 1), BuildingBlock: MIFKUJ_clean_linker_0, # of connection points: 2
#     Edge 35, Type (0, 1), BuildingBlock: MIFKUJ_clean_linker_0, # of connection points: 2
# Relax obj value: 0.285
# Max RMSD: 0.210
# Mean RMSD: 0.179
data_MOF--net-zzz--node1-KUMBOL_clean_sbu_1--node2-KAKCAD_clean_linker_0--edge1-MIFKUJ_clean_linker_0
_symmetry_space_group_name_H-M    P1
_symmetry_Int_Tables_number       1
_symmetry_cell_setting            triclinic
loop_
_symmetry_equiv_pos_as_xyz
'x, y, z'
_cell_length_a     70.807815
_cell_length_b     70.886031
_cell_length_c     26.15813
_cell_angle_alpha  89.928677
_cell_angle_beta   89.876378
_cell_angle_gamma 90.454907
loop_
_atom_site_label
_atom_site_type_symbol
_atom_site_fract_x
_atom_site_fract_y
_atom_site_fract_z
_atom_type_partial_charge
C0 C 0.78991 0.57402 0.98297 0.0
C1 C 0.80682 0.56414 0.97522 0.0
C2 C 0.77824 0.5697 0.0247 0.0
C3 C 0.78329 0.55547 0.05947 0.0
C4 C 0.80026 0.54576 0.05194 0.0
C5 C 0.81185 0.55 0.01031 0.0
C6 C 0.77075 0.55023 0.10276 0.0
C7 C 0.75132 0.54784 0.09524 0.0
C8 C 0.73948 0.54169 0.13511 0.0
C9 C 0.74734 0.53783 0.18372 0.0
C10 C 0.7669 0.54075 0.19204 0.0
C11 C 0.77834 0.54685 0.15127 0.0
C12 C 0.77628 0.5379 0.24234 0.0
C13 C 0.78601 0.55311 0.26478 0.0
C14 C 0.77918 0.51969 0.26192 0.0
C15 C 0.79242 0.51668 0.30112 0.0
C16 C 0.80305 0.53183 0.32153 0.0
C17 C 0.71903 0.53979 0.12342 0.0
C18 C 0.70867 0.55609 0.11229 0.0
C19 C 0.7112 0.52212 0.11093 0.0
C20 C 0.69383 0.52087 0.08511 0.0
C21 C 0.68403 0.53731 0.07089 0.0
C22 C 0.69137 0.55488 0.08662 0.0
C23 C 0.79916 0.55015 0.30377 0.0
H24 H 0.78571 0.58507 0.95685 0.0
H25 H 0.7653 0.57752 0.02985 0.0
H26 H 0.80435 0.53448 0.0775 0.0
H27 H 0.8245 0.54175 1.00486 0.0
H28 H 0.74537 0.55034 0.05768 0.0
H29 H 0.79335 0.54896 0.15743 0.0
H30 H 0.73833 0.53311 0.2148 0.0
H31 H 0.78428 0.56726 0.24984 0.0
H32 H 0.77212 0.50767 0.24475 0.0
H33 H 0.79477 0.5024 0.31419 0.0
H34 H 0.71455 0.5699 0.12072 0.0
H35 H 0.71913 0.50937 0.11791 0.0
H36 H 0.80711 0.5622 0.31761 0.0
H37 H 0.6841 0.56781 0.07732 0.0
H38 H 0.6887 0.50711 0.07346 0.0
C39 C 0.94244 0.79701 0.97542 0.0
C40 C 0.95314 0.81358 0.96821 0.0
C41 C 0.94619 0.78502 0.01668 0.0
C42 C 0.96077 0.78935 0.05133 0.0
C43 C 0.97105 0.8062 0.04481 0.0
C44 C 0.96728 0.81816 1.00384 0.0
C45 C 0.96621 0.77586 0.09218 0.0
C46 C 0.96732 0.75653 0.08171 0.0
C47 C 0.97409 0.74367 0.11827 0.0
C48 C 0.98015 0.75062 0.16638 0.0
C49 C 0.97884 0.77011 0.17747 0.0
C50 C 0.97172 0.78242 0.14039 0.0
C51 C 0.98549 0.77873 0.22599 0.0
C52 C 0.97278 0.78149 0.26658 0.0
C53 C 1.00267 0.78877 0.22608 0.0
C54 C 1.00657 0.80213 0.26414 0.0
C55 C 0.99334 0.80587 0.30303 0.0
C56 C 0.9753 0.72336 0.10316 0.0
C57 C 0.96031 0.71501 0.07585 0.0
C58 C 0.99208 0.71311 0.10869 0.0
C59 C 0.9942 0.6955 0.08454 0.0
C60 C 0.9796 0.68774 0.05417 0.0
C61 C 0.96245 0.69761 0.0515 0.0
C62 C 0.97672 0.79482 0.30496 0.0
H63 H 0.9314 0.79316 0.94873 0.0
H64 H 0.93786 0.77224 0.02104 0.0
H65 H 0.98263 0.8098 0.07008 0.0
H66 H 0.97612 0.83056 0.99876 0.0
H67 H 0.96368 0.75154 0.04381 0.0
H68 H 0.97077 0.79735 0.14904 0.0
H69 H 0.98578 0.74105 0.19473 0.0
H70 H 0.9592 0.77434 0.26659 0.0
H71 H 0.01251 0.78724 0.19461 0.0
H72 H 0.01962 0.81017 0.26179 0.0
H73 H 0.94711 0.72243 0.07116 0.0
H74 H 1.00392 0.71913 0.1293 0.0
H75 H 0.96615 0.79739 0.33406 0.0
H76 H 0.95087 0.69246 0.02834 0.0
H77 H 1.00749 0.68823 0.08867 0.0
C78 C 0.75375 0.96963 0.9973 0.0
C79 C 0.73829 0.98157 0.98941 0.0
C80 C 0.76426 0.97086 0.04241 0.0
C81 C 0.75943 0.98399 0.08053 0.0
C82 C 0.74393 0.99582 0.07261 0.0
C83 C 0.73346 0.99459 0.02772 0.0
C84 C 0.77086 0.98588 0.12772 0.0
C85 C 0.79056 0.98582 0.12479 0.0
C86 C 0.80173 0.98884 0.16824 0.0
C87 C 0.79287 0.99193 0.21607 0.0
C88 C 0.7729 0.9917 0.21958 0.0
C89 C 0.76216 0.98869 0.17528 0.0
C90 C 0.76238 0.9947 0.26815 0.0
C91 C 0.75744 0.9792 0.29901 0.0
C92 C 0.7534 0.01201 0.27685 0.0
C93 C 0.73925 0.01362 0.31422 0.0
C94 C 0.7335 0.99786 0.34344 0.0
C95 C 0.8225 0.98942 0.16007 0.0
C96 C 0.83154 0.97316 0.14195 0.0
C97 C 0.83188 1.00687 0.15547 0.0
C98 C 0.84927 1.00819 0.12969 0.0
C99 C 0.85763 0.9921 0.10777 0.0
C100 C 0.8489 0.97445 0.11633 0.0
C101 C 0.7432 0.98076 0.33627 0.0
H102 H 0.75774 0.95941 0.96858 0.0
H103 H 0.77607 0.96145 0.04765 0.0
H104 H 0.73998 1.00623 0.1009 0.0
H105 H 0.72134 1.00368 0.02346 0.0
H106 H 0.79737 0.98409 0.0879 0.0
H107 H 0.74687 0.9885 0.178 0.0
H108 H 0.80134 0.99446 0.24985 0.0
H109 H 0.76379 0.96557 0.29224 0.0
H110 H 0.75656 0.02403 0.25257 0.0
H111 H 0.73202 0.02695 0.31797 0.0
H112 H 0.82441 0.9596 0.14391 0.0
H113 H 0.82505 0.01967 0.16806 0.0
H114 H 0.73937 0.96837 0.35834 0.0
H115 H 0.85469 0.96174 0.0998 0.0
H116 H 0.85569 0.02199 0.12469 0.0
C117 C 0.52424 0.73543 0.30056 0.0
C118 C 0.53827 0.72195 0.31082 0.0
C119 C 0.52704 0.74924 0.26238 0.0
C120 C 0.54396 0.74984 0.23408 0.0
C121 C 0.55844 0.73726 0.24736 0.0
C122 C 0.55561 0.72349 0.28492 0.0
C123 C 0.54576 0.76106 0.18583 0.0
C124 C 0.54169 0.78058 0.18257 0.0
C125 C 0.54436 0.79028 0.13573 0.0
C126 C 0.5505 0.78033 0.0926 0.0
C127 C 0.55378 0.76092 0.0947 0.0
C128 C 0.55155 0.75149 0.14142 0.0
C129 C 0.55833 0.75031 0.04737 0.0
C130 C 0.54874 0.75432 1.0017 0.0
C131 C 0.57141 0.73548 0.04793 0.0
C132 C 0.57424 0.72444 1.00434 0.0
C133 C 0.56409 0.72806 0.9593 0.0
C134 C 0.54062 0.8107 0.12851 0.0
C135 C 0.52217 0.81681 0.11871 0.0
C136 C 0.55579 0.82285 0.11663 0.0
C137 C 0.55269 0.84017 0.09233 0.0
C138 C 0.53432 0.84575 0.07885 0.0
C139 C 0.51904 0.83416 0.09426 0.0
C140 C 0.55161 0.74337 0.95821 0.0
H141 H 0.51072 0.73462 0.31993 0.0
H142 H 0.51557 0.75863 0.25287 0.0
H143 H 0.57173 0.73749 0.22675 0.0
H144 H 0.56683 0.71359 0.29255 0.0
H145 H 0.53694 0.78816 0.21608 0.0
H146 H 0.55369 0.73637 0.14293 0.0
H147 H 0.55246 0.78781 0.05674 0.0
H148 H 0.53833 0.76542 1.0001 0.0
H149 H 0.57924 0.73222 0.08231 0.0
H150 H 0.58406 0.71282 1.00618 0.0
H151 H 0.51026 0.80754 0.12637 0.0
H152 H 0.57018 0.81826 0.12255 0.0
H153 H 0.54326 0.74631 0.92451 0.0
H154 H 0.50467 0.83809 0.08535 0.0
H155 H 0.56486 0.84851 0.08081 0.0
C156 C 0.24793 0.4532 0.25865 0.0
C157 C 0.23172 0.44195 0.25159 0.0
C158 C 0.25906 0.45861 0.21711 0.0
C159 C 0.25438 0.45282 0.16733 0.0
C160 C 0.23868 0.44082 0.16038 0.0
C161 C 0.22744 0.43545 0.20212 0.0
C162 C 0.26527 0.46035 0.12303 0.0
C163 C 0.28488 0.4627 0.12656 0.0
C164 C 0.29524 0.47208 0.08829 0.0
C165 C 0.2857 0.47872 0.04437 0.0
C166 C 0.26596 0.47585 0.0395 0.0
C167 C 0.25599 0.46678 0.07912 0.0
C168 C 0.25494 0.48265 0.9948 0.0
C169 C 0.2412 0.4966 1.00195 0.0
C170 C 0.25537 0.47291 0.94808 0.0
C171 C 0.24178 0.47648 0.91019 0.0
C172 C 0.22751 0.48995 0.91812 0.0
C173 C 0.31565 0.47575 0.09857 0.0
C174 C 0.32239 0.49426 0.10532 0.0
C175 C 0.32725 0.4607 0.1135 0.0
C176 C 0.3445 0.46404 0.13807 0.0
C177 C 0.3507 0.48256 0.14852 0.0
C178 C 0.33972 0.49764 0.13001 0.0
C179 C 0.22776 0.50029 0.96406 0.0
H180 H 0.25142 0.45886 0.29592 0.0
H181 H 0.2708 0.46816 0.22388 0.0
H182 H 0.23486 0.43591 0.12258 0.0
H183 H 0.21507 0.42671 0.19549 0.0
H184 H 0.29212 0.45778 0.16049 0.0
H185 H 0.24077 0.46525 0.07625 0.0
H186 H 0.29345 0.48617 0.01475 0.0
H187 H 0.24032 0.50404 0.03802 0.0
H188 H 0.26558 0.46183 0.94198 0.0
H189 H 0.24216 0.46835 0.87518 0.0
H190 H 0.31367 0.50614 0.09487 0.0
H191 H 0.32234 0.44628 0.10928 0.0
H192 H 0.21693 0.51059 0.97205 0.0
H193 H 0.34414 0.5121 0.13636 0.0
H194 H 0.35233 0.45201 0.15186 0.0
C195 C 0.05765 0.24309 0.28774 0.0
C196 C 0.07009 0.22774 0.28754 0.0
C197 C 0.05414 0.25318 0.24308 0.0
C198 C 0.06304 0.24828 0.19694 0.0
C199 C 0.07586 0.23322 0.19683 0.0
C200 C 0.07932 0.22301 0.2417 0.0
C201 C 0.05825 0.25856 0.14913 0.0
C202 C 0.05548 0.27807 0.15035 0.0
C203 C 0.04895 0.28787 0.10743 0.0
C204 C 0.04539 0.27789 0.0616 0.0
C205 C 0.04904 0.25827 0.0589 0.0
C206 C 0.05528 0.24885 0.10314 0.0
C207 C 0.04628 0.24695 0.0112 0.0
C208 C 0.02912 0.24708 0.98425 0.0
C209 C 0.06025 0.23409 0.99601 0.0
C210 C 0.05688 0.22108 0.9568 0.0
C211 C 0.03939 0.22047 0.93135 0.0
C212 C 0.04569 0.30844 0.1138 0.0
C213 C 0.0273 0.31525 0.12091 0.0
C214 C 0.06103 0.32023 0.1265 0.0
C215 C 0.05811 0.33791 0.14889 0.0
C216 C 0.03973 0.34427 0.15958 0.0
C217 C 0.02434 0.33297 0.14349 0.0
C218 C 0.02568 0.23394 0.94493 0.0
H219 H 0.04988 0.24679 0.32195 0.0
H220 H 0.04387 0.26441 0.24443 0.0
H221 H 0.0831 0.22923 0.16201 0.0
H222 H 0.08898 0.21125 0.24038 0.0
H223 H 0.05809 0.28576 0.1855 0.0
H224 H 0.05715 0.23369 0.10219 0.0
H225 H 0.04031 0.28536 0.02825 0.0
H226 H 0.01803 0.25673 0.99516 0.0
H227 H 0.07366 0.23364 0.01583 0.0
H228 H 0.06775 0.21091 0.94817 0.0
H229 H 0.01523 0.3063 0.1125 0.0
H230 H 0.07535 0.31515 0.1225 0.0
H231 H 0.01213 0.23411 0.92585 0.0
H232 H 0.00998 0.33748 0.15029 0.0
H233 H 0.07034 0.34598 0.16105 0.0
C234 C 0.27901 0.07293 0.23605 0.0
C235 C 0.29352 0.08635 0.22909 0.0
C236 C 0.26626 0.06905 0.19695 0.0
C237 C 0.26771 0.07846 0.14983 0.0
C238 C 0.28103 0.09313 0.14439 0.0
C239 C 0.29376 0.09712 0.18382 0.0
C240 C 0.25715 0.07102 0.10518 0.0
C241 C 0.23858 0.06457 0.11106 0.0
C242 C 0.22972 0.0538 0.07304 0.0
C243 C 0.23952 0.0499 0.02707 0.0
C244 C 0.25807 0.05711 0.01966 0.0
C245 C 0.26659 0.06762 0.05904 0.0
C246 C 0.26982 0.05297 0.9736 0.0
C247 C 0.27448 0.03435 0.96036 0.0
C248 C 0.2795 0.06786 0.94912 0.0
C249 C 0.29437 0.06431 0.91526 0.0
C250 C 0.30004 0.04575 0.90477 0.0
C251 C 0.21085 0.04585 0.08603 0.0
C252 C 0.20964 0.03236 0.12528 0.0
C253 C 0.19437 0.05523 0.07113 0.0
C254 C 0.17725 0.05198 0.09715 0.0
C255 C 0.17631 0.03949 0.1392 0.0
C256 C 0.19266 0.02924 0.15155 0.0
C257 C 0.28943 0.03076 0.92616 0.0
H258 H 0.27843 0.06411 0.26984 0.0
H259 H 0.25631 0.05753 0.20232 0.0
H260 H 0.28223 0.10084 0.10874 0.0
H261 H 0.30451 0.10784 0.1776 0.0
H262 H 0.23118 0.06723 0.14667 0.0
H263 H 0.2812 0.0721 0.05496 0.0
H264 H 0.23295 0.04124 0.99791 0.0
H265 H 0.26748 0.02258 0.97911 0.0
H266 H 0.27623 0.08236 0.95847 0.0
H267 H 0.3019 0.0762 0.89867 0.0
H268 H 0.22226 0.02531 0.13846 0.0
H269 H 0.19502 0.06601 0.04179 0.0
H270 H 0.2934 0.01629 0.91897 0.0
H271 H 0.19283 0.01971 0.1839 0.0
H272 H 0.16495 0.05988 0.08557 0.0
C273 C 0.47537 0.29256 0.91109 0.0
C274 C 0.4942 0.29824 0.90191 0.0
C275 C 0.47109 0.2782 0.94606 0.0
C276 C 0.48541 0.26929 0.97415 0.0
C277 C 0.50428 0.27373 0.96222 0.0
C278 C 0.50863 0.28793 0.92633 0.0
C279 C 0.48047 0.25914 0.02262 0.0
C280 C 0.48863 0.24184 0.03746 0.0
C281 C 0.48458 0.23417 0.0862 0.0
C282 C 0.47353 0.24444 0.12084 0.0
C283 C 0.46541 0.26173 0.10703 0.0
C284 C 0.46827 0.26829 0.05685 0.0
C285 C 0.45559 0.27382 0.14581 0.0
C286 C 0.44768 0.26615 0.19103 0.0
C287 C 0.45547 0.2936 0.13992 0.0
C288 C 0.44854 0.3052 0.17823 0.0
C289 C 0.44244 0.29761 0.22492 0.0
C290 C 0.49133 0.21542 0.10319 0.0
C291 C 0.4789 0.19991 0.10098 0.0
C292 C 0.50774 0.21399 0.13298 0.0
C293 C 0.51118 0.19768 0.16198 0.0
C294 C 0.4981 0.18259 0.16242 0.0
C295 C 0.48225 0.18368 0.13014 0.0
C296 C 0.44161 0.27795 0.23069 0.0
H297 H 0.46366 0.29996 0.894 0.0
H298 H 0.45637 0.27504 0.95403 0.0
H299 H 0.51567 0.26719 0.98321 0.0
H300 H 0.52335 0.29129 0.91939 0.0
H301 H 0.49783 0.23439 0.01138 0.0
H302 H 0.46163 0.28119 0.04456 0.0
H303 H 0.47176 0.2389 0.15914 0.0
H304 H 0.44675 0.25107 0.19694 0.0
H305 H 0.46178 0.30056 0.10727 0.0
H306 H 0.44947 0.32031 0.17276 0.0
H307 H 0.46593 0.20083 0.07923 0.0
H308 H 0.51724 0.22597 0.13645 0.0
H309 H 0.4369 0.27175 0.26644 0.0
H310 H 0.472 0.17227 0.12902 0.0
H311 H 0.52343 0.19743 0.18668 0.0
C312 C 0.05715 0.03634 0.72315 0.0
C313 C 0.04566 0.03351 0.81009 0.0
C314 C 0.04551 0.02755 0.75867 0.0
C315 C 0.05693 0.04903 0.82443 0.0
C316 C 0.0692 0.05129 0.7378 0.0
C317 C 0.06866 0.05792 0.78834 0.0
N318 N 0.0572 0.02975 0.67447 0.0
C319 C 0.07013 0.03623 0.63966 0.0
C320 C 0.08174 0.05882 0.70147 0.0
C321 C 0.0824 0.05106 0.65239 0.0
Gd322 Gd 0.99196 0.02222 0.57338 0.0
Gd323 Gd 0.03617 1.00497 0.65594 0.0
N324 N 0.03515 0.0123 0.74376 0.0
C325 C 0.03507 0.02323 0.84593 0.0
C326 C 0.02612 1.00136 0.77935 0.0
C327 C 0.02551 1.0069 0.83061 0.0
H328 H 0.01968 0.98811 0.76864 0.0
H329 H 0.01797 0.99838 0.85842 0.0
H330 H 1.00845 0.02163 0.45415 0.0
H331 H 0.07066 0.03018 0.60179 0.0
H332 H 1.00496 1.00229 0.37592 0.0
H333 H 0.03483 0.02732 0.88582 0.0
H334 H 0.0571 0.05392 0.86365 0.0
H335 H 0.95456 0.01065 0.64867 0.0
H336 H 0.09122 0.07033 0.71122 0.0
H337 H 0.0923 0.05652 0.62436 0.0
H338 H 0.95789 0.9559 0.42131 0.0
H339 H 0.07761 0.06957 0.80023 0.0
H340 H 0.92787 0.96185 0.58495 0.0
H341 H 0.93069 0.9855 0.65399 0.0
N342 N 0.96681 1.00036 0.57989 0.0
C343 C 0.9645 0.98852 0.53949 0.0
C344 C 0.95423 0.99996 0.61946 0.0
C345 C 0.93873 0.97268 0.58282 0.0
C346 C 0.9403 0.98593 0.62201 0.0
C347 C 0.9506 0.97416 0.54017 0.0
H348 H 0.93818 0.9509 0.49786 0.0
N349 N 0.98852 1.00548 0.49674 0.0
C350 C 0.97545 0.99137 0.49623 0.0
C351 C 0.98396 0.98379 0.40922 0.0
C352 C 0.97303 0.9799 0.45274 0.0
C353 C 0.99866 0.00988 0.45389 0.0
C354 C 0.99666 0.999 0.40961 0.0
O355 O 0.03152 0.03634 0.64115 0.0
O356 O 0.99956 0.03835 0.64463 0.0
O357 O 0.99147 0.04878 0.53221 0.0
O358 O 0.96525 0.0358 0.55682 0.0
O359 O 1.00723 0.99521 0.68555 0.0
O360 O 0.98729 0.0189 0.65897 0.0
O361 O 1.00799 0.99575 0.55299 0.0
O362 O 0.01469 0.98307 0.63063 0.0
O363 O 0.05466 0.98665 0.69943 0.0
O364 O 0.05829 0.98929 0.61786 0.0
O365 O 0.02063 0.03212 0.54363 0.0
O366 O 0.04124 1.00904 0.57132 0.0
C367 C 0.01624 0.04578 0.65281 0.0
C368 C 0.99173 1.00528 0.69111 0.0
C369 C 0.96897 0.06875 0.56925 0.0
C370 C 0.97639 0.10189 0.58514 0.0
C371 C 0.95631 0.08458 0.64427 0.0
C372 C 0.95802 0.06837 0.61427 0.0
C373 C 0.96566 0.10123 0.63023 0.0
C374 C 0.97778 0.08568 0.55457 0.0
C375 C 0.97356 0.05124 0.54135 0.0
C376 C 0.9598 0.96505 0.45409 0.0
C377 C 0.94862 0.96216 0.49775 0.0
H378 H 0.98253 0.9753 0.37501 0.0
C379 C 0.00978 0.98097 0.58265 0.0
C380 C 0.03644 0.02248 0.53913 0.0
C381 C 0.06473 0.95989 0.65384 0.0
C382 C 0.05018 0.92864 0.65829 0.0
C383 C 0.08304 0.93226 0.63242 0.0
C384 C 0.08176 0.95179 0.63821 0.0
C385 C 0.06737 0.9207 0.64244 0.0
C386 C 0.04895 0.94835 0.66306 0.0
C387 C 0.06335 0.98043 0.65901 0.0
H388 H 0.94807 0.0841 0.67917 0.0
H389 H 0.95126 0.05546 0.62721 0.0
H390 H 0.96452 0.11355 0.65446 0.0
H391 H 0.98659 0.08598 0.52059 0.0
H392 H 0.09623 0.92604 0.62045 0.0
H393 H 0.09403 0.96057 0.63041 0.0
H394 H 0.06887 0.90557 0.63896 0.0
H395 H 0.03572 0.95476 0.67418 0.0
C396 C 0.52756 0.95607 0.59563 0.0
C397 C 0.50456 0.93684 0.64126 0.0
C398 C 0.50999 0.95405 0.61828 0.0
C399 C 0.51768 0.92215 0.64467 0.0
C400 C 0.54025 0.94083 0.59558 0.0
C401 C 0.53553 0.92416 0.62195 0.0
N402 N 0.53137 0.97214 0.56903 0.0
C403 C 0.54646 0.97282 0.53641 0.0
C404 C 0.5568 0.94239 0.56655 0.0
C405 C 0.55971 0.95829 0.53591 0.0
Gd406 Gd 0.52657 0.03606 0.6759 0.0
Gd407 Gd 0.50889 0.99645 0.57706 0.0
N408 N 0.49765 0.96848 0.61426 0.0
C409 C 0.48587 0.93467 0.65807 0.0
C410 C 0.47915 0.96614 0.62786 0.0
C411 C 0.473 0.94924 0.65027 0.0
H412 H 0.46925 0.97742 0.62186 0.0
H413 H 0.4584 0.94752 0.66183 0.0
H414 H 0.57425 0.03498 0.67882 0.0
H415 H 0.54828 0.98447 0.5102 0.0
H416 H 0.60099 0.05237 0.63985 0.0
H417 H 0.48111 0.92162 0.67564 0.0
H418 H 0.51391 0.90893 0.66301 0.0
H419 H 0.49083 0.06608 0.68267 0.0
H420 H 0.56684 0.93095 0.56526 0.0
H421 H 0.57193 0.9592 0.51109 0.0
H422 H 0.57218 0.10681 0.56482 0.0
H423 H 0.54523 0.91242 0.62296 0.0
H424 H 0.50691 0.1169 0.60527 0.0
H425 H 0.48305 0.09824 0.65246 0.0
N426 N 0.51839 0.06659 0.65039 0.0
C427 C 0.53198 0.07695 0.62668 0.0
C428 C 0.50122 0.07422 0.66165 0.0
C429 C 0.51029 0.1028 0.61744 0.0
C430 C 0.4968 0.09233 0.64455 0.0
C431 C 0.52824 0.09527 0.6087 0.0
H432 H 0.54015 0.11974 0.5703 0.0
N433 N 0.55337 0.05283 0.64672 0.0
C434 C 0.55003 0.0697 0.62403 0.0
C435 C 0.58335 0.07379 0.60682 0.0
C436 C 0.56489 0.08058 0.60302 0.0
C437 C 0.57149 0.04723 0.65549 0.0
C438 C 0.5867 0.05725 0.6343 0.0
O439 O 0.5065 0.99169 0.66298 0.0
O440 O 0.53357 1.0056 0.69105 0.0
O441 O 0.53998 0.05156 0.73758 0.0
O442 O 0.51489 0.03498 0.75262 0.0
O443 O 0.48437 0.01115 0.6165 0.0
O444 O 0.49552 0.02908 0.68522 0.0
O445 O 0.50872 0.04297 0.60613 0.0
O446 O 0.52063 0.02383 0.54494 0.0
O447 O 0.48707 1.00502 0.52447 0.0
O448 O 0.50234 0.97925 0.51047 0.0
O449 O 0.54855 0.01538 0.64577 0.0
O450 O 0.53789 0.00962 0.56453 0.0
C451 C 0.52035 0.9927 0.69624 0.0
C452 C 0.48173 0.02125 0.65844 0.0
C453 C 0.53772 0.03593 0.81685 0.0
C454 C 0.5631 0.01746 0.85448 0.0
C455 C 0.53648 0.02764 0.90651 0.0
C456 C 0.52857 0.03654 0.86426 0.0
C457 C 0.55344 0.01791 0.90165 0.0
C458 C 0.55498 0.02646 0.81205 0.0
C459 C 0.52876 0.0446 0.77231 0.0
C460 C 0.561 0.09832 0.58166 0.0
C461 C 0.54272 0.10569 0.58475 0.0
H462 H 0.59516 0.0817 0.59112 0.0
C463 C 0.51452 0.04044 0.55909 0.0
C464 C 0.55185 0.01165 0.59725 0.0
C465 C 0.4698 0.98015 0.48841 0.0
C466 C 0.43702 0.9831 0.46182 0.0
C467 C 0.44815 0.95361 0.49771 0.0
C468 C 0.46625 0.96138 0.50319 0.0
C469 C 0.43351 0.96445 0.47751 0.0
C470 C 0.45521 0.99077 0.46723 0.0
C471 C 0.48803 0.98962 0.49764 0.0
H472 H 0.52946 0.02832 0.94319 0.0
H473 H 0.51525 0.04382 0.8685 0.0
H474 H 0.55898 0.01081 0.93501 0.0
H475 H 0.56214 0.02639 0.77542 0.0
H476 H 0.44542 0.93921 0.50954 0.0
H477 H 0.4773 0.95284 0.51969 0.0
H478 H 0.41956 0.95824 0.47367 0.0
H479 H 0.4579 1.00533 0.45642 0.0
C480 C 0.47016 0.48913 0.73003 0.0
C481 C 0.48129 0.49154 0.81728 0.0
C482 C 0.48137 0.49802 0.76626 0.0
C483 C 0.47041 0.4756 0.8306 0.0
C484 C 0.45864 0.47359 0.74362 0.0
C485 C 0.45916 0.46662 0.79383 0.0
N486 N 0.47007 0.49607 0.68167 0.0
C487 C 0.45767 0.48927 0.64612 0.0
C488 C 0.44663 0.46583 0.70659 0.0
C489 C 0.44596 0.47386 0.6578 0.0
Gd490 Gd 0.53495 0.50634 0.58529 0.0
Gd491 Gd 0.48969 0.52215 0.66532 0.0
N492 N 0.49133 0.51371 0.75241 0.0
C493 C 0.49156 0.50171 0.85381 0.0
C494 C 0.50011 0.52446 0.78875 0.0
C495 C 0.50076 0.5184 0.83961 0.0
H496 H 0.50645 0.53789 0.77907 0.0
H497 H 0.50811 0.52677 0.86798 0.0
H498 H 0.52362 0.51157 0.46307 0.0
H499 H 0.45707 0.49557 0.60854 0.0
H500 H 0.53193 0.5327 0.39054 0.0
H501 H 0.49187 0.4972 0.89339 0.0
H502 H 0.47017 0.47042 0.86957 0.0
H503 H 0.57248 0.50899 0.66624 0.0
H504 H 0.43755 0.45389 0.71556 0.0
H505 H 0.43644 0.46821 0.62924 0.0
H506 H 0.5801 0.5736 0.45908 0.0
H507 H 0.45055 0.45458 0.80494 0.0
H508 H 0.60564 0.55709 0.62246 0.0
H509 H 0.59923 0.53064 0.68196 0.0
N510 N 0.5626 0.52414 0.60118 0.0
C511 C 0.56679 0.53764 0.56591 0.0
C512 C 0.57468 0.52086 0.64086 0.0
C513 C 0.59362 0.54787 0.6159 0.0
C514 C 0.59006 0.53294 0.64954 0.0
C515 C 0.58229 0.55001 0.57253 0.0
H516 H 0.59819 0.57326 0.53933 0.0
N517 N 0.5425 0.5251 0.51453 0.0
C518 C 0.55659 0.53793 0.52079 0.0
C519 C 0.55234 0.54872 0.43397 0.0
C520 C 0.56164 0.55042 0.481 0.0
C521 C 0.53417 0.52253 0.46803 0.0
C522 C 0.53884 0.53443 0.42711 0.0
O523 O 0.49645 0.49122 0.64896 0.0
O524 O 0.52821 0.49075 0.65792 0.0
O525 O 0.5327 0.47745 0.56033 0.0
O526 O 0.5594 0.49216 0.55283 0.0
O527 O 0.51784 0.53407 0.6938 0.0
O528 O 0.53858 0.51062 0.67073 0.0
O529 O 0.51884 0.53252 0.56195 0.0
O530 O 0.50967 0.54524 0.63812 0.0
O531 O 0.47108 0.53951 0.71137 0.0
O532 O 0.46575 0.53609 0.63073 0.0
O533 O 0.50673 0.49857 0.54833 0.0
O534 O 0.48453 0.51932 0.58073 0.0
C535 C 0.51174 0.48271 0.66505 0.0
C536 C 0.53388 0.525 0.69969 0.0
C537 C 0.55063 0.47034 0.48766 0.0
C538 C 0.538 0.44937 0.42204 0.0
C539 C 0.56288 0.47188 0.40094 0.0
C540 C 0.56295 0.4784 0.45139 0.0
C541 C 0.55047 0.45745 0.3862 0.0
C542 C 0.53841 0.4557 0.4727 0.0
C543 C 0.54959 0.47721 0.54075 0.0
C544 C 0.57623 0.56363 0.48882 0.0
C545 C 0.58651 0.56345 0.53457 0.0
H546 H 0.55587 0.55799 0.40234 0.0
C547 C 0.51532 0.5473 0.59056 0.0
C548 C 0.49022 0.50711 0.5462 0.0
C549 C 0.45846 0.56533 0.66618 0.0
C550 C 0.47075 0.59752 0.66996 0.0
C551 C 0.43886 0.59142 0.63942 0.0
C552 C 0.4413 0.57209 0.64722 0.0
C553 C 0.45346 0.6041 0.65078 0.0
C554 C 0.47319 0.57803 0.67689 0.0
C555 C 0.46117 0.54496 0.67227 0.0
H556 H 0.57236 0.47816 0.37308 0.0
H557 H 0.57249 0.48978 0.46177 0.0
H558 H 0.55043 0.45279 0.34678 0.0
H559 H 0.5291 0.4492 0.50073 0.0
H560 H 0.42557 0.59659 0.62487 0.0
H561 H 0.42986 0.56242 0.63819 0.0
H562 H 0.45106 0.61905 0.64563 0.0
H563 H 0.48658 0.57269 0.69046 0.0
C564 C 0.03849 0.46959 0.72086 0.0
C565 C 0.04221 0.48414 0.80411 0.0
C566 C 0.03383 0.48379 0.75521 0.0
C567 C 0.05608 0.47087 0.81664 0.0
C568 C 0.05208 0.45596 0.73375 0.0
C569 C 0.06105 0.45685 0.7815 0.0
N570 N 0.02989 0.46925 0.67443 0.0
C571 C 0.03357 0.45531 0.63997 0.0
C572 C 0.0563 0.44187 0.69809 0.0
C573 C 0.04693 0.44149 0.65112 0.0
Gd574 Gd 0.02717 0.53574 0.57588 0.0
Gd575 Gd 1.00767 0.49286 0.65934 0.0
N576 N 0.02045 0.49662 0.74192 0.0
C577 C 0.0359 0.49738 0.83973 0.0
C578 C 0.01332 0.50855 0.77798 0.0
C579 C 0.02126 0.5095 0.82676 0.0
H580 H 1.00092 0.51676 0.77053 0.0
H581 H 0.01571 0.51921 0.8548 0.0
H582 H 0.01469 0.51418 0.46536 0.0
H583 H 0.02626 0.45496 0.60379 0.0
H584 H 0.9973 0.52177 0.38724 0.0
H585 H 0.04161 0.49778 0.87808 0.0
H586 H 0.06283 0.47112 0.85378 0.0
H587 H 0.02564 0.57462 0.6486 0.0
H588 H 0.0667 0.43118 0.70653 0.0
H589 H 0.05 0.43057 0.62352 0.0
H590 H 0.97777 0.58574 0.41166 0.0
H591 H 0.07165 0.44662 0.7919 0.0
H592 H 0.99267 0.61585 0.57043 0.0
H593 H 0.01112 0.60613 0.64611 0.0
N594 N 0.01414 0.56599 0.57738 0.0
C595 C 1.00421 0.57108 0.53523 0.0
C596 C 0.01686 0.57838 0.61663 0.0
C597 C 0.99859 0.60182 0.572 0.0
C598 C 0.00895 0.59637 0.61483 0.0
C599 C 0.99627 0.58921 0.53127 0.0
H600 H 0.98058 0.60824 0.48265 0.0
N601 N 0.00961 0.54063 0.50096 0.0
C602 C 1.0021 0.55815 0.49564 0.0
C603 C 0.99054 0.54992 0.41164 0.0
C604 C 0.99231 0.56322 0.45086 0.0
C605 C 1.00816 0.52774 0.46244 0.0
C606 C 0.99844 0.53209 0.41757 0.0
O607 O 0.03933 0.49507 0.64247 0.0
O608 O 0.04258 0.52677 0.64686 0.0
O609 O 0.05226 0.53228 0.52924 0.0
O610 O 0.04616 0.55944 0.56276 0.0
O611 O 0.99806 0.52266 0.68036 0.0
O612 O 0.02468 0.53965 0.66095 0.0
O613 O 0.99509 0.53313 0.57696 0.0
O614 O 0.98869 0.50175 0.59432 0.0
O615 O 0.98554 0.48569 0.71341 0.0
O616 O 0.99253 0.46607 0.65367 0.0
O617 O 0.03202 0.50627 0.54273 0.0
O618 O 0.00896 0.48629 0.57571 0.0
C619 C 0.0499 0.50998 0.65143 0.0
C620 C 0.00883 0.53774 0.68651 0.0
C621 C 0.07808 0.54972 0.56215 0.0
C622 C 0.10995 0.53685 0.56472 0.0
C623 C 0.10083 0.5613 0.6245 0.0
C624 C 0.08281 0.56184 0.60281 0.0
C625 C 0.11433 0.54878 0.60587 0.0
C626 C 0.09179 0.53739 0.54323 0.0
C627 C 0.05879 0.54903 0.54065 0.0
C628 C 0.98482 0.58142 0.44635 0.0
C629 C 0.98657 0.5943 0.48664 0.0
H630 H 0.98331 0.55331 0.37643 0.0
C631 C 0.98376 0.51832 0.57647 0.0
C632 C 0.02194 0.49048 0.54151 0.0
C633 C 0.9602 0.47117 0.66951 0.0
C634 C 0.93022 0.48774 0.66017 0.0
C635 C 0.93474 0.45724 0.61977 0.0
C636 C 0.95301 0.4563 0.63976 0.0
C637 C 0.92336 0.47285 0.62986 0.0
C638 C 0.94875 0.4869 0.67891 0.0
C639 C 0.98001 0.47106 0.68729 0.0
H640 H 0.1043 0.57054 0.65609 0.0
H641 H 0.07255 0.57151 0.61849 0.0
H642 H 0.12824 0.54866 0.62298 0.0
H643 H 0.08821 0.52794 0.51211 0.0
H644 H 0.92932 0.44577 0.59666 0.0
H645 H 0.96162 0.44412 0.63137 0.0
H646 H 0.90909 0.47301 0.6151 0.0
H647 H 0.95429 0.49871 0.70063 0.0
H648 H 0.16242 1.00867 0.19254 0.0
H649 H 0.13698 1.00775 0.25496 0.0
H650 H 0.12452 0.06607 0.22348 0.0
H651 H 0.15105 0.06759 0.16394 0.0
H652 H 0.12212 0.06188 0.31933 0.0
H653 H 0.0955 0.02687 0.18233 0.0
H654 H 0.09348 1.00273 0.11474 0.0
H655 H 0.09787 0.9589 0.22746 0.0
H656 H 0.10019 0.98278 0.2957 0.0
H657 H 0.03692 0.05253 0.47177 0.0
H658 H 0.05795 0.05719 0.39781 0.0
H659 H 0.08505 1.00429 0.43057 0.0
H660 H 0.06431 0.99954 0.50385 0.0
H661 H 0.07675 1.00831 0.32807 0.0
H662 H 0.10534 0.04572 0.46403 0.0
H663 H 0.1045 0.07091 0.52898 0.0
H664 H 0.0929 0.11185 0.41232 0.0
H665 H 0.09338 0.08684 0.34673 0.0
C666 C 0.15443 0.02141 0.19889 0.0
C667 C 0.15906 0.03823 0.17279 0.0
C668 C 0.13956 0.02077 0.23431 0.0
C669 C 0.12844 0.03676 0.24378 0.0
C670 C 0.13275 0.05348 0.21706 0.0
C671 C 0.14785 0.05423 0.18222 0.0
C672 C 0.11287 0.03613 0.28281 0.0
C673 C 0.11202 0.05031 0.32046 0.0
C674 C 0.09954 0.02108 0.28503 0.0
C675 C 0.09817 1.00664 0.2441 0.0
C676 C 0.09617 0.01209 0.19268 0.0
C677 C 0.09495 0.99845 0.15425 0.0
C678 C 0.09558 0.9793 0.16679 0.0
C679 C 0.0974 0.97374 0.2178 0.0
C680 C 0.09864 0.98733 0.25638 0.0
C681 C 0.04735 0.0419 0.46313 0.0
C682 C 0.04894 0.02571 0.49403 0.0
C683 C 0.05939 0.04459 0.42091 0.0
C684 C 0.07317 0.03111 0.40866 0.0
C685 C 0.07455 0.01488 0.4391 0.0
C686 C 0.0627 0.01226 0.48133 0.0
C687 C 0.08641 0.03374 0.3647 0.0
C688 C 0.08678 0.01995 0.32626 0.0
C689 C 0.099 0.04931 0.36125 0.0
C690 C 0.09926 0.06439 0.40052 0.0
C691 C 0.10253 0.06008 0.45225 0.0
C692 C 0.10212 0.07432 0.48918 0.0
C693 C 0.09865 0.09296 0.47476 0.0
C694 C 0.0956 0.0974 0.4234 0.0
C695 C 0.09595 0.0832 0.38633 0.0
H696 H 0.09838 0.10398 0.50335 0.0
H697 H 0.09463 0.96876 0.13698 0.0
H698 H 0.53 0.16273 0.18894 0.0
H699 H 0.53292 0.13819 0.2548 0.0
H700 H 0.4734 0.14235 0.28733 0.0
H701 H 0.4704 0.16681 0.22204 0.0
H702 H 0.4952 0.14411 0.37412 0.0
H703 H 0.48974 0.10456 0.22584 0.0
H704 H 0.49842 0.09311 0.14005 0.0
H705 H 0.55387 0.07934 0.19396 0.0
H706 H 0.5456 0.09097 0.27995 0.0
H707 H 0.48654 0.06643 0.54727 0.0
H708 H 0.48389 0.09061 0.48113 0.0
H709 H 0.53846 0.07487 0.42158 0.0
H710 H 0.54028 0.04967 0.4854 0.0
H711 H 0.51883 0.07932 0.3464 0.0
H712 H 0.52812 0.1316 0.47693 0.0
H713 H 0.52167 0.15015 0.55489 0.0
H714 H 0.46206 0.1418 0.53387 0.0
H715 H 0.4682 0.12399 0.45451 0.0
C716 C 0.51752 0.15833 0.20991 0.0
C717 C 0.49994 0.16672 0.19987 0.0
C718 C 0.51918 0.1442 0.24736 0.0
C719 C 0.50335 0.1383 0.27596 0.0
C720 C 0.48581 0.14658 0.26574 0.0
C721 C 0.48409 0.1605 0.22802 0.0
C722 C 0.50514 0.12427 0.31838 0.0
C723 C 0.50019 0.12985 0.36797 0.0
C724 C 0.51213 0.10584 0.31085 0.0
C725 C 0.51711 0.09882 0.2592 0.0
C726 C 0.50384 0.09925 0.21929 0.0
C727 C 0.50867 0.09269 0.17065 0.0
C728 C 0.5267 0.08555 0.16152 0.0
C729 C 0.53992 0.0849 0.20107 0.0
C730 C 0.53516 0.09146 0.24977 0.0
C731 C 0.49801 0.06827 0.52018 0.0
C732 C 0.51354 0.05607 0.52122 0.0
C733 C 0.49665 0.08238 0.48264 0.0
C734 C 0.51112 0.08513 0.44621 0.0
C735 C 0.52695 0.0732 0.44858 0.0
C736 C 0.52803 0.05873 0.48515 0.0
C737 C 0.50919 0.09917 0.40319 0.0
C738 C 0.51399 0.09358 0.35307 0.0
C739 C 0.50231 0.11776 0.41022 0.0
C740 C 0.49863 0.126 0.46097 0.0
C741 C 0.51367 0.13348 0.48953 0.0
C742 C 0.51006 0.14416 0.53334 0.0
C743 C 0.49147 0.14704 0.54951 0.0
C744 C 0.47645 0.13945 0.52153 0.0
C745 C 0.47998 0.12921 0.47693 0.0
H746 H 0.48872 0.15518 0.58367 0.0
H747 H 0.53041 0.08047 0.12384 0.0
H748 H 0.3555 0.50991 0.222 0.0
H749 H 0.38151 0.51372 0.28221 0.0
H750 H 0.40985 0.46627 0.21457 0.0
H751 H 0.38401 0.46255 0.15332 0.0
H752 H 0.4096 0.46364 0.31825 0.0
H753 H 0.42631 0.51111 0.1955 0.0
H754 H 0.42117 0.53874 0.14004 0.0
H755 H 0.40895 0.57269 0.27167 0.0
H756 H 0.41375 0.54519 0.32791 0.0
H757 H 0.49339 0.48062 0.46918 0.0
H758 H 0.47214 0.47582 0.39605 0.0
H759 H 0.43775 0.52201 0.44756 0.0
H760 H 0.4586 0.52679 0.52022 0.0
H761 H 0.44366 0.52418 0.34577 0.0
H762 H 0.42421 0.47763 0.46746 0.0
H763 H 0.42771 0.45055 0.52568 0.0
H764 H 0.44328 0.41531 0.39926 0.0
H765 H 0.44039 0.44238 0.34033 0.0
C766 C 0.36743 0.50052 0.21891 0.0
C767 C 0.36753 0.48594 0.18232 0.0
C768 C 0.38231 0.50266 0.25375 0.0
C769 C 0.39778 0.49035 0.25299 0.0
C770 C 0.39808 0.47593 0.2162 0.0
C771 C 0.38322 0.47381 0.18116 0.0
C772 C 0.41326 0.49221 0.29164 0.0
C773 C 0.41732 0.47677 0.32352 0.0
C774 C 0.42309 0.50945 0.2996 0.0
C775 C 0.42024 0.52604 0.26589 0.0
C776 C 0.42238 0.52443 0.2126 0.0
C777 C 0.41956 0.54008 0.18103 0.0
C778 C 0.4147 0.55745 0.20231 0.0
C779 C 0.4127 0.55922 0.25523 0.0
C780 C 0.41549 0.54361 0.28698 0.0
C781 C 0.48129 0.48973 0.46492 0.0
C782 C 0.47773 0.50402 0.50099 0.0
C783 C 0.46913 0.48696 0.42308 0.0
C784 C 0.45324 0.49853 0.41621 0.0
C785 C 0.44989 0.51293 0.45175 0.0
C786 C 0.46185 0.51557 0.49362 0.0
C787 C 0.43985 0.49568 0.37267 0.0
C788 C 0.43615 0.51095 0.33996 0.0
C789 C 0.43025 0.47835 0.36427 0.0
C790 C 0.43234 0.46211 0.39957 0.0
C791 C 0.42865 0.46419 0.45213 0.0
C792 C 0.43049 0.44884 0.48525 0.0
C793 C 0.43575 0.43126 0.46618 0.0
C794 C 0.43923 0.42897 0.41395 0.0
C795 C 0.43755 0.44433 0.38068 0.0
H796 H 0.43701 0.4194 0.49193 0.0
H797 H 0.41251 0.56955 0.1778 0.0
H798 H 0.05978 0.37784 0.15775 0.0
H799 H 0.05711 0.40454 0.21647 0.0
H800 H 0.01062 0.3768 0.29313 0.0
H801 H 0.0133 0.35001 0.23507 0.0
H802 H 1.00376 0.41388 0.28326 0.0
H803 H 0.05581 0.37607 0.34151 0.0
H804 H 0.08635 0.35984 0.3334 0.0
H805 H 0.11386 0.41255 0.29884 0.0
H806 H 0.08341 0.42906 0.306 0.0
H807 H 1.00188 0.45807 0.52298 0.0
H808 H 1.00557 0.43577 0.45328 0.0
H809 H 0.05136 0.46925 0.39169 0.0
H810 H 0.04799 0.49172 0.46253 0.0
H811 H 0.05944 0.43186 0.38784 0.0
H812 H 1.00783 0.4702 0.33709 0.0
H813 H 0.97751 0.4865 0.34884 0.0
H814 H 0.94923 0.43324 0.36998 0.0
H815 H 0.97946 0.41662 0.35932 0.0
C816 C 0.04895 0.37739 0.18703 0.0
C817 C 0.03682 0.3616 0.19154 0.0
C818 C 0.04744 0.39272 0.22067 0.0
C819 C 0.03383 0.39265 0.25992 0.0
C820 C 0.02124 0.37727 0.26327 0.0
C821 C 0.02274 0.36194 0.22969 0.0
C822 C 0.03305 0.40822 0.29854 0.0
C823 C 0.01591 0.41769 0.30633 0.0
C824 C 0.049 0.41366 0.32796 0.0
C825 C 0.0673 0.40376 0.32368 0.0
C826 C 0.06835 0.38417 0.33174 0.0
C827 C 0.08564 0.37493 0.32739 0.0
C828 C 0.10202 0.38515 0.31545 0.0
C829 C 0.10115 0.40465 0.30797 0.0
C830 C 0.08388 0.41395 0.31218 0.0
C831 C 0.0128 0.46081 0.49482 0.0
C832 C 0.02458 0.47687 0.49854 0.0
C833 C 0.01482 0.448 0.45463 0.0
C834 C 0.02853 0.45091 0.41652 0.0
C835 C 0.04059 0.46672 0.42042 0.0
C836 C 0.03861 0.4796 0.46091 0.0
C837 C 0.03011 0.43732 0.37299 0.0
C838 C 0.04736 0.42821 0.36431 0.0
C839 C 0.01428 0.43225 0.34267 0.0
C840 C 0.99596 0.44216 0.34773 0.0
C841 C 0.99516 0.46196 0.34449 0.0
C842 C 0.97799 0.47126 0.35097 0.0
C843 C 0.96146 0.46091 0.36023 0.0
C844 C 0.96206 0.44123 0.36282 0.0
C845 C 0.97921 0.43186 0.35652 0.0
H846 H 0.94818 0.46814 0.36532 0.0
H847 H 0.1154 0.37797 0.31212 0.0
H848 H 0.88794 0.96815 0.09538 0.0
H849 H 0.91214 0.96912 0.02841 0.0
H850 H 0.88871 0.02086 0.97051 0.0
H851 H 0.86418 0.01966 0.03601 0.0
H852 H 0.89392 0.99687 0.89485 0.0
H853 H 0.93183 0.01923 0.03471 0.0
H854 H 0.9461 0.01814 0.12055 0.0
H855 H 0.97411 0.96655 0.08208 0.0
H856 H 0.9598 0.9672 0.99618 0.0
H857 H 0.96579 0.02964 0.72978 0.0
H858 H 0.94434 0.0251 0.80169 0.0
H859 H 0.96751 0.96997 0.82879 0.0
H860 H 0.98869 0.97406 0.75475 0.0
H861 H 0.9632 0.99282 0.91993 0.0
H862 H 0.92151 0.96747 0.78878 0.0
H863 H 0.9056 0.96649 0.70498 0.0
H864 H 0.88532 0.02279 0.72817 0.0
H865 H 0.90078 0.02384 0.81275 0.0
C866 C 0.88798 0.97981 0.06861 0.0
C867 C 0.87399 0.99383 0.07143 0.0
C868 C 0.90197 0.98043 0.03047 0.0
C869 C 0.90239 0.99511 0.99426 0.0
C870 C 0.88877 1.00937 0.99786 0.0
C871 C 0.87481 1.00877 0.0359 0.0
C872 C 0.91617 0.99512 0.9507 0.0
C873 C 0.90907 0.99623 0.9007 0.0
C874 C 0.93598 0.99359 0.9576 0.0
C875 C 0.94457 0.99315 1.00922 0.0
C876 C 0.94089 1.00756 0.04471 0.0
C877 C 0.94902 1.00704 0.09334 0.0
C878 C 0.96096 0.99225 0.10682 0.0
C879 C 0.96484 0.97798 0.07162 0.0
C880 C 0.95673 0.97842 0.02294 0.0
C881 C 0.9663 0.01642 0.75055 0.0
C882 C 0.97908 1.00223 0.73625 0.0
C883 C 0.95396 0.01387 0.79183 0.0
C884 C 0.95413 0.99714 0.82053 0.0
C885 C 0.96707 0.983 0.80715 0.0
C886 C 0.97927 0.98541 0.76502 0.0
C887 C 0.94085 0.99485 0.86462 0.0
C888 C 0.94803 0.99335 0.91449 0.0
C889 C 0.92108 0.99595 0.85792 0.0
C890 C 0.91245 0.9958 0.80654 0.0
C891 C 0.91378 0.97966 0.77572 0.0
C892 C 0.90468 0.97903 0.72841 0.0
C893 C 0.89453 0.99461 0.71113 0.0
C894 C 0.89324 0.01076 0.7415 0.0
C895 C 0.90204 0.01133 0.78929 0.0
H896 H 0.88763 0.99414 0.67427 0.0
H897 H 0.96724 0.99188 0.14449 0.0
H898 H 0.50918 0.84936 0.99959 0.0
H899 H 0.50629 0.87534 0.93891 0.0
H900 H 0.55053 0.90578 0.01712 0.0
H901 H 0.55306 0.88008 0.0793 0.0
H902 H 0.52325 0.92951 0.98876 0.0
H903 H 0.55907 0.8814 0.90556 0.0
H904 H 0.56579 0.84937 0.87411 0.0
H905 H 0.51648 0.85108 0.779 0.0
H906 H 0.5093 0.88303 0.81047 0.0
H907 H 0.54836 0.98814 0.7673 0.0
H908 H 0.54993 0.96489 0.83681 0.0
H909 H 0.49533 0.94309 0.79314 0.0
H910 H 0.49319 0.96723 0.72669 0.0
H911 H 0.52865 0.9154 0.8036 0.0
H912 H 0.49205 0.9624 0.88904 0.0
H913 H 0.48386 0.99356 0.9239 0.0
H914 H 0.53428 0.99362 0.01477 0.0
H915 H 0.54298 0.96257 0.97962 0.0
C916 C 0.51806 0.86171 1.00472 0.0
C917 C 0.5314 0.86249 0.0446 0.0
C918 C 0.51656 0.87651 0.9694 0.0
C919 C 0.52844 0.89245 0.97261 0.0
C920 C 0.54128 0.89361 0.01342 0.0
C921 C 0.54279 0.87881 0.04885 0.0
C922 C 0.52769 0.90768 0.93292 0.0
C923 C 0.52474 0.92642 0.94836 0.0
C924 C 0.52923 0.90373 0.87991 0.0
C925 C 0.53354 0.88454 0.8608 0.0
C926 C 0.54957 0.87489 0.87826 0.0
C927 C 0.55348 0.85676 0.86037 0.0
C928 C 0.54154 0.84818 0.82469 0.0
C929 C 0.5257 0.85774 0.80671 0.0
C930 C 0.52171 0.87586 0.82453 0.0
C931 C 0.53667 0.9785 0.77277 0.0
C932 C 0.52096 0.97917 0.74001 0.0
C933 C 0.53756 0.9652 0.8125 0.0
C934 C 0.52284 0.95206 0.81978 0.0
C935 C 0.50698 0.95291 0.78785 0.0
C936 C 0.50589 0.96657 0.74925 0.0
C937 C 0.52418 0.93709 0.85961 0.0
C938 C 0.52729 0.91843 0.84408 0.0
C939 C 0.52281 0.94111 0.91243 0.0
C940 C 0.51828 0.96027 0.9312 0.0
C941 C 0.50158 0.9692 0.91571 0.0
C942 C 0.49678 0.98679 0.93577 0.0
C943 C 0.50849 0.9955 0.97174 0.0
C944 C 0.52518 0.98679 0.98712 0.0
C945 C 0.53007 0.96922 0.96704 0.0
H946 H 0.50463 1.00902 0.98766 0.0
H947 H 0.54459 0.83414 0.81088 0.0
H948 H 0.67578 0.56035 0.98999 0.0
H949 H 0.64883 0.55882 0.93235 0.0
H950 H 0.62708 0.51046 0.01417 0.0
H951 H 0.65426 0.51184 0.07218 0.0
H952 H 0.62382 0.50502 0.91365 0.0
H953 H 0.60652 0.55528 0.02749 0.0
H954 H 0.61194 0.58496 0.07459 0.0
H955 H 0.62036 0.61456 0.933 0.0
H956 H 0.61501 0.58502 0.88499 0.0
H957 H 0.53745 0.50297 0.78344 0.0
H958 H 0.56021 0.50641 0.85307 0.0
H959 H 0.58176 0.55752 0.78349 0.0
H960 H 0.55771 0.55483 0.71613 0.0
H961 H 0.5844 0.56134 0.88105 0.0
H962 H 0.60262 0.51112 0.76705 0.0
H963 H 0.59646 0.48172 0.71933 0.0
H964 H 0.58678 0.45205 0.86034 0.0
H965 H 0.59271 0.48134 0.90886 0.0
C966 C 0.66515 0.54953 0.99641 0.0
C967 C 0.66715 0.53637 0.03642 0.0
C968 C 0.64969 0.54866 0.96318 0.0
C969 C 0.63561 0.53474 0.96922 0.0
C970 C 0.63766 0.5214 1.00867 0.0
C971 C 0.65323 0.52219 0.04187 0.0
C972 C 0.619 0.53404 0.93381 0.0
C973 C 0.61505 0.51727 0.90718 0.0
C974 C 0.6077 0.55008 0.92413 0.0
C975 C 0.61045 0.56794 0.95271 0.0
C976 C 0.60955 0.56812 1.00642 0.0
C977 C 0.61258 0.58491 0.03324 0.0
C978 C 0.61647 0.60163 1.00676 0.0
C979 C 0.61727 0.6016 0.95339 0.0
C980 C 0.61418 0.58486 0.92635 0.0
C981 C 0.54672 0.51521 0.78398 0.0
C982 C 0.54576 0.52875 0.74493 0.0
C983 C 0.55995 0.51705 0.82335 0.0
C984 C 0.57328 0.5319 0.82299 0.0
C985 C 0.57179 0.54586 0.78482 0.0
C986 C 0.55804 0.54437 0.74635 0.0
C987 C 0.58923 0.53233 0.86068 0.0
C988 C 0.59312 0.54906 0.88762 0.0
C989 C 0.60055 0.51626 0.87045 0.0
C990 C 0.59803 0.49843 0.84153 0.0
C991 C 0.59922 0.49831 0.78785 0.0
C992 C 0.59574 0.48168 0.76067 0.0
C993 C 0.59122 0.46503 0.78679 0.0
C994 C 0.5903 0.46495 0.84017 0.0
C995 C 0.59377 0.48156 0.86754 0.0
H996 H 0.58843 0.45219 0.76568 0.0
H997 H 0.61887 0.61461 0.0276 0.0
H998 H 0.01229 0.67527 1.00775 0.0
H999 H 0.01616 0.64861 0.9502 0.0
H1000 H 0.95711 0.63453 0.96685 0.0
H1001 H 0.95343 0.66021 0.02779 0.0
H1002 H 0.97463 0.6036 0.95891 0.0
H1003 H 0.97634 0.65994 0.85964 0.0
H1004 H 0.98681 0.69182 0.83379 0.0
H1005 H 0.04286 0.67129 0.80714 0.0
H1006 H 0.03279 0.63933 0.83351 0.0
H1007 H 0.97435 0.5467 0.729 0.0
H1008 H 0.96786 0.57101 0.79363 0.0
H1009 H 0.02733 0.58439 0.80105 0.0
H1010 H 0.03379 0.56042 0.73678 0.0
H1011 H 1.00724 0.61587 0.7941 0.0
H1012 H 1.00345 0.55861 0.89745 0.0
H1013 H 0.99046 0.52717 0.919 0.0
H1014 H 0.9348 0.55041 0.93038 0.0
H1015 H 0.94744 0.58198 0.90882 0.0
C1016 C 1.00016 0.6663 1.00038 0.0
C1017 C 0.98245 0.67027 0.02243 0.0
C1018 C 1.00234 0.65114 0.96647 0.0
C1019 C 0.98681 0.63975 0.95254 0.0
C1020 C 0.96932 0.64314 0.97618 0.0
C1021 C 0.96719 0.65809 0.01078 0.0
C1022 C 0.98871 0.62465 0.91266 0.0
C1023 C 0.98158 0.60642 0.92268 0.0
C1024 C 0.99773 0.62808 0.86499 0.0
C1025 C 1.00385 0.64728 0.84904 0.0
C1026 C 0.99093 0.66225 0.84861 0.0
C1027 C 0.99679 0.68033 0.83382 0.0
C1028 C 0.0155 0.68359 0.81896 0.0
C1029 C 0.02838 0.66876 0.81874 0.0
C1030 C 0.0226 0.65065 0.83357 0.0
C1031 C 0.98601 0.55478 0.74471 0.0
C1032 C 1.00455 0.55176 0.72726 0.0
C1033 C 0.98231 0.56865 0.78176 0.0
C1034 C 0.99712 0.5796 0.80252 0.0
C1035 C 0.01563 0.5763 0.78557 0.0
C1036 C 0.01929 0.56256 0.74867 0.0
C1037 C 0.99359 0.59482 0.84094 0.0
C1038 C 1.00031 0.61312 0.83042 0.0
C1039 C 0.98387 0.59152 0.88754 0.0
C1040 C 0.97637 0.57261 0.90121 0.0
C1041 C 0.98843 0.55699 0.90437 0.0
C1042 C 0.98114 0.53915 0.9166 0.0
C1043 C 0.96182 0.53678 0.92587 0.0
C1044 C 0.94976 0.55226 0.92318 0.0
C1045 C 0.95698 0.57013 0.9111 0.0
H1046 H 0.9562 0.52296 0.93525 0.0
H1047 H 0.02001 0.6976 0.80751 0.0
H1048 H 0.06956 0.18925 0.29181 0.0
H1049 H 0.06175 0.1701 0.36648 0.0
H1050 H 0.06487 0.21948 0.4622 0.0
H1051 H 0.07301 0.23876 0.38764 0.0
H1052 H 0.07138 0.16218 0.47335 0.0
H1053 H 0.02157 0.22208 0.51405 0.0
H1054 H 0.00946 0.25099 0.47314 0.0
H1055 H 0.01274 0.22445 0.32591 0.0
H1056 H 0.02457 0.19534 0.36612 0.0
H1057 H 1.00081 0.12255 0.64386 0.0
H1058 H 0.02213 0.148 0.61424 0.0
H1059 H 0.99749 0.14465 0.46407 0.0
H1060 H 0.97627 0.11945 0.4931 0.0
H1061 H 1.00517 0.18248 0.5017 0.0
H1062 H 0.0346 0.11988 0.47943 0.0
H1063 H 0.0451 0.0897 0.51663 0.0
H1064 H 0.08075 0.1197 0.62192 0.0
H1065 H 0.07048 0.15002 0.58511 0.0
C1066 C 0.06951 0.19592 0.32903 0.0
C1067 C 0.0714 0.2156 0.33367 0.0
C1068 C 0.0651 0.18491 0.37182 0.0
C1069 C 0.06243 0.19345 0.41961 0.0
C1070 C 0.06676 0.21267 0.42551 0.0
C1071 C 0.07121 0.22368 0.38278 0.0
C1072 C 0.05065 0.18358 0.45814 0.0
C1073 C 0.05707 0.16683 0.48063 0.0
C1074 C 0.0319 0.18956 0.46727 0.0
C1075 C 0.02412 0.20669 0.44299 0.0
C1076 C 0.0196 0.22243 0.473 0.0
C1077 C 0.01279 0.23883 0.44994 0.0
C1078 C 0.01039 0.23958 0.39695 0.0
C1079 C 0.01464 0.22387 0.36693 0.0
C1080 C 0.02138 0.20743 0.38982 0.0
C1081 C 0.99974 0.12758 0.60489 0.0
C1082 C 0.98708 0.11902 0.57049 0.0
C1083 C 0.01193 0.14194 0.58814 0.0
C1084 C 0.01143 0.14793 0.53709 0.0
C1085 C 0.99802 0.14017 0.50366 0.0
C1086 C 0.98601 0.12576 0.52015 0.0
C1087 C 0.0258 0.16102 0.5164 0.0
C1088 C 0.01977 0.17831 0.4967 0.0
C1089 C 0.04477 0.15542 0.50965 0.0
C1090 C 0.05166 0.13719 0.52991 0.0
C1091 C 0.04467 0.12001 0.51053 0.0
C1092 C 0.05058 0.10289 0.53151 0.0
C1093 C 0.06352 0.10279 0.57177 0.0
C1094 C 0.0707 0.1198 0.59081 0.0
C1095 C 0.06488 0.13695 0.56982 0.0
H1096 H 0.06807 0.08953 0.58801 0.0
H1097 H 1.0052 0.25231 0.37915 0.0
H1098 H 0.29405 0.08139 0.33363 0.0
H1099 H 0.32061 0.06897 0.38199 0.0
H1100 H 0.35734 0.07874 0.25272 0.0
H1101 H 0.3308 0.08994 0.20315 0.0
H1102 H 0.35552 0.04276 0.27525 0.0
H1103 H 0.36505 0.09948 0.37114 0.0
H1104 H 0.35617 0.12632 0.42572 0.0
H1105 H 0.33876 0.0881 0.54459 0.0
H1106 H 0.34727 0.061 0.49043 0.0
H1107 H 0.43867 1.00475 0.37628 0.0
H1108 H 0.4149 0.02659 0.34466 0.0
H1109 H 0.37753 0.01042 0.46793 0.0
H1110 H 0.40156 0.98864 0.50044 0.0
H1111 H 0.37972 0.04985 0.45199 0.0
H1112 H 0.36867 0.99353 0.35492 0.0
H1113 H 0.37741 0.96652 0.30074 0.0
H1114 H 0.39724 1.00444 0.18392 0.0
H1115 H 0.38887 0.03169 0.23775 0.0
C1116 C 0.30788 0.08133 0.31588 0.0
C1117 C 0.3101 0.08608 0.26389 0.0
C1118 C 0.32313 0.07442 0.34385 0.0
C1119 C 0.34089 0.07261 0.3206 0.0
C1120 C 0.34368 0.07981 0.27116 0.0
C1121 C 0.32842 0.08643 0.24294 0.0
C1122 C 0.35526 0.06003 0.34312 0.0
C1123 C 0.36109 0.04461 0.31354 0.0
C1124 C 0.36186 0.06191 0.3939 0.0
C1125 C 0.35664 0.07819 0.42648 0.0
C1126 C 0.35915 0.09678 0.40872 0.0
C1127 C 0.35422 0.11205 0.43964 0.0
C1128 C 0.34686 0.10892 0.48854 0.0
C1129 C 0.34445 0.09051 0.50667 0.0
C1130 C 0.34934 0.07519 0.4759 0.0
C1131 C 0.42538 1.00583 0.3966 0.0
C1132 C 0.42188 0.995 0.44066 0.0
C1133 C 0.41183 0.01828 0.37851 0.0
C1134 C 0.39449 0.02005 0.40396 0.0
C1135 C 0.39088 1.00923 0.44792 0.0
C1136 C 0.40446 0.99667 0.46601 0.0
C1137 C 0.38011 0.033 0.38356 0.0
C1138 C 0.37418 0.04825 0.41359 0.0
C1139 C 0.3733 0.03102 0.33314 0.0
C1140 C 0.3783 0.01465 0.30058 0.0
C1141 C 0.37503 0.99611 0.31786 0.0
C1142 C 0.3799 0.98075 0.28717 0.0
C1143 C 0.38792 0.98376 0.23897 0.0
C1144 C 0.39105 1.00213 0.2213 0.0
C1145 C 0.38623 0.01754 0.25185 0.0
H1146 H 0.39167 0.97185 0.21527 0.0
H1147 H 0.34306 0.12076 0.51242 0.0
H1148 H 0.42215 0.33012 0.23134 0.0
H1149 H 0.43159 0.35716 0.28348 0.0
H1150 H 0.4697 0.32185 0.36819 0.0
H1151 H 0.46039 0.2948 0.31611 0.0
H1152 H 0.45647 0.35536 0.42378 0.0
H1153 H 0.48891 0.33674 0.26641 0.0
H1154 H 0.49042 0.32763 0.17545 0.0
H1155 H 0.46077 0.37798 0.13388 0.0
H1156 H 0.45923 0.38741 0.2247 0.0
H1157 H 0.54508 0.4179 0.36558 0.0
H1158 H 0.52322 0.39202 0.34624 0.0
H1159 H 0.47873 0.42089 0.42666 0.0
H1160 H 0.50055 0.44674 0.44632 0.0
H1161 H 0.4925 0.39139 0.29249 0.0
H1162 H 0.44733 0.38586 0.4768 0.0
H1163 H 0.44979 0.39407 0.56815 0.0
H1164 H 0.51007 0.38879 0.56065 0.0
H1165 H 0.50797 0.38036 0.46934 0.0
C1166 C 0.43175 0.32792 0.26296 0.0
C1167 C 0.44087 0.31052 0.26904 0.0
C1168 C 0.43714 0.34337 0.29267 0.0
C1169 C 0.45165 0.34152 0.32872 0.0
C1170 C 0.45851 0.32352 0.34041 0.0
C1171 C 0.45312 0.30804 0.31067 0.0
C1172 C 0.46283 0.35829 0.34371 0.0
C1173 C 0.46421 0.36345 0.39528 0.0
C1174 C 0.47328 0.36843 0.3065 0.0
C1175 C 0.47378 0.36266 0.25215 0.0
C1176 C 0.48263 0.3458 0.23783 0.0
C1177 C 0.48361 0.34065 0.18633 0.0
C1178 C 0.47568 0.35221 0.14891 0.0
C1179 C 0.46688 0.36902 0.16291 0.0
C1180 C 0.46601 0.37431 0.21434 0.0
C1181 C 0.53059 0.41879 0.37865 0.0
C1182 C 0.52451 0.43428 0.40746 0.0
C1183 C 0.51814 0.40398 0.36787 0.0
C1184 C 0.49938 0.40444 0.38549 0.0
C1185 C 0.49318 0.42009 0.41339 0.0
C1186 C 0.50566 0.43485 0.42446 0.0
C1187 C 0.4863 0.38872 0.37289 0.0
C1188 C 0.48456 0.38367 0.32137 0.0
C1189 C 0.47597 0.37851 0.41055 0.0
C1190 C 0.47749 0.38288 0.46589 0.0
C1191 C 0.46111 0.38642 0.49464 0.0
C1192 C 0.46244 0.39111 0.5464 0.0
C1193 C 0.48009 0.39215 0.57 0.0
C1194 C 0.49643 0.38818 0.54213 0.0
C1195 C 0.49517 0.38348 0.49032 0.0
H1196 H 0.48107 0.39599 0.60989 0.0
H1197 H 0.47635 0.34814 0.10909 0.0
H1198 H 0.19345 0.44531 0.24751 0.0
H1199 H 0.17291 0.45287 0.31908 0.0
H1200 H 0.2184 0.44261 0.42433 0.0
H1201 H 0.2391 0.4345 0.35272 0.0
H1202 H 0.17117 0.43832 0.45515 0.0
H1203 H 0.22543 0.48104 0.40695 0.0
H1204 H 0.24615 0.49349 0.33853 0.0
H1205 H 0.19756 0.51143 0.25394 0.0
H1206 H 0.17659 0.49892 0.32178 0.0
H1207 H 0.13445 0.51352 0.61538 0.0
H1208 H 0.15714 0.49152 0.57698 0.0
H1209 H 0.13975 0.5094 0.42652 0.0
H1210 H 0.11771 0.53153 0.46436 0.0
H1211 H 0.17718 0.50774 0.43309 0.0
H1212 H 0.12303 0.46917 0.4823 0.0
H1213 H 0.10073 0.45629 0.54618 0.0
H1214 H 0.14649 0.42965 0.62502 0.0
H1215 H 0.16912 0.44268 0.56199 0.0
C1216 C 0.19886 0.44357 0.2859 0.0
C1217 C 0.21805 0.43977 0.29437 0.0
C1218 C 0.18703 0.44786 0.3269 0.0
C1219 C 0.19424 0.44846 0.37676 0.0
C1220 C 0.2126 0.44212 0.38606 0.0
C1221 C 0.22446 0.43776 0.34501 0.0
C1222 C 0.18496 0.46092 0.41412 0.0
C1223 C 0.17272 0.4535 0.45136 0.0
C1224 C 0.18693 0.48065 0.40859 0.0
C1225 C 0.19951 0.48904 0.36922 0.0
C1226 C 0.21921 0.48767 0.37375 0.0
C1227 C 0.23098 0.49471 0.33509 0.0
C1228 C 0.22318 0.50321 0.29187 0.0
C1229 C 0.20359 0.50483 0.28742 0.0
C1230 C 0.19176 0.49782 0.326 0.0
C1231 C 0.13569 0.51282 0.57416 0.0
C1232 C 0.12426 0.52409 0.54276 0.0
C1233 C 0.14851 0.50021 0.55233 0.0
C1234 C 0.15 0.49877 0.4989 0.0
C1235 C 0.13882 0.51029 0.46781 0.0
C1236 C 0.12613 0.52282 0.48946 0.0
C1237 C 0.16298 0.48532 0.4741 0.0
C1238 C 0.17597 0.4926 0.43856 0.0
C1239 C 0.16152 0.46554 0.48136 0.0
C1240 C 0.14781 0.45713 0.51794 0.0
C1241 C 0.12836 0.46067 0.51345 0.0
C1242 C 0.11565 0.45334 0.5495 0.0
C1243 C 0.1222 0.44225 0.58981 0.0
C1244 C 0.14145 0.43832 0.59391 0.0
C1245 C 0.15422 0.44567 0.55806 0.0
H1246 H 0.11236 0.43663 0.61776 0.0
H1247 H 0.23231 0.50856 0.26186 0.0
H1248 H 0.94863 0.8014 0.86965 0.0
H1249 H 0.95395 0.81998 0.79214 0.0
H1250 H 0.95967 0.87037 0.88331 0.0
H1251 H 0.95352 0.85205 0.96057 0.0
H1252 H 0.94709 0.879 0.78819 0.0
H1253 H 0.99738 0.84125 0.86529 0.0
H1254 H 0.01117 0.81119 0.89399 0.0
H1255 H 1.00574 0.78872 0.74227 0.0
H1256 H 0.99167 0.81861 0.71292 0.0
H1257 H 0.02614 0.93346 0.73853 0.0
H1258 H 1.00046 0.91302 0.76585 0.0
H1259 H 0.01145 0.87557 0.63945 0.0
H1260 H 0.03766 0.89595 0.6122 0.0
H1261 H 0.00911 0.85674 0.72458 0.0
H1262 H 0.96966 0.90228 0.64655 0.0
H1263 H 0.95961 0.93464 0.62588 0.0
H1264 H 0.94694 0.94461 0.78409 0.0
H1265 H 0.95721 0.91254 0.80591 0.0
C1266 C 0.95018 0.81655 0.87302 0.0
C1267 C 0.95116 0.82521 0.92132 0.0
C1268 C 0.9533 0.82715 0.82864 0.0
C1269 C 0.95771 0.84646 0.83211 0.0
C1270 C 0.95645 0.85546 0.87971 0.0
C1271 C 0.95316 0.84493 0.92396 0.0
C1272 C 0.96729 0.85647 0.78943 0.0
C1273 C 0.96053 0.8741 0.77358 0.0
C1274 C 0.98467 0.84988 0.76967 0.0
C1275 C 0.99327 0.83201 0.78711 0.0
C1276 C 0.99904 0.82985 0.83817 0.0
C1277 C 1.0069 0.81286 0.85454 0.0
C1278 C 0.00927 0.79803 0.82 0.0
C1279 C 1.00384 0.8002 0.769 0.0
C1280 C 0.99591 0.81714 0.75248 0.0
C1281 C 0.02287 0.92114 0.71566 0.0
C1282 C 0.03387 0.91648 0.67278 0.0
C1283 C 1.00805 0.90948 0.73122 0.0
C1284 C 1.00366 0.89299 0.70393 0.0
C1285 C 0.01447 0.88833 0.66077 0.0
C1286 C 0.0295 0.89994 0.64541 0.0
C1287 C 0.98933 0.87969 0.72475 0.0
C1288 C 0.99524 0.86139 0.73674 0.0
C1289 C 0.97135 0.88586 0.74135 0.0
C1290 C 0.96418 0.9049 0.72788 0.0
C1291 C 0.96471 0.91136 0.67696 0.0
C1292 C 0.959 0.9297 0.66503 0.0
C1293 C 0.95262 0.94168 0.70365 0.0
C1294 C 0.95183 0.93533 0.75417 0.0
C1295 C 0.95754 0.91704 0.76633 0.0
H1296 H 0.94831 0.95589 0.69455 0.0
H1297 H 0.01537 0.78489 0.83273 0.0
H1298 H 0.72355 0.01012 0.93254 0.0
H1299 H 0.69657 1.00772 0.87561 0.0
H1300 H 0.69949 0.94698 0.88192 0.0
H1301 H 0.72591 0.94932 0.9417 0.0
H1302 H 0.68123 0.99359 0.79184 0.0
H1303 H 0.65641 0.93067 0.90756 0.0
H1304 H 0.66411 0.91312 0.98641 0.0
H1305 H 0.68419 0.96428 0.05623 0.0
H1306 H 0.67638 0.98209 0.97803 0.0
H1307 H 0.57876 0.9985 0.772 0.0
H1308 H 0.61001 0.98433 0.7666 0.0
H1309 H 0.62179 1.00246 0.92068 0.0
H1310 H 0.59088 0.01667 0.92657 0.0
H1311 H 0.63192 0.96631 0.90549 0.0
H1312 H 0.63492 0.02653 0.81497 0.0
H1313 H 0.62744 0.0484 0.74467 0.0
H1314 H 0.6517 0.01013 0.63634 0.0
H1315 H 0.65854 0.98756 0.7058 0.0
C1316 C 0.71869 0.99624 0.92102 0.0
C1317 C 0.7263 0.97993 0.94323 0.0
C1318 C 0.70344 0.99487 0.88772 0.0
C1319 C 0.69565 0.97716 0.87573 0.0
C1320 C 0.70507 0.96079 0.89155 0.0
C1321 C 0.7202 0.96216 0.92567 0.0
C1322 C 0.67577 0.97636 0.85822 0.0
C1323 C 0.67039 0.98722 0.81576 0.0
C1324 C 0.6616 0.96811 0.88956 0.0
C1325 C 0.66606 0.95759 0.93689 0.0
C1326 C 0.66243 0.93813 0.93983 0.0
C1327 C 0.66681 0.92816 0.98437 0.0
C1328 C 0.6747 0.93757 0.02623 0.0
C1329 C 0.67812 0.957 0.02377 0.0
C1330 C 0.6737 0.96703 0.9794 0.0
C1331 C 0.58785 0.99934 0.80502 0.0
C1332 C 0.58195 1.0084 0.85032 0.0
C1333 C 0.60575 0.99122 0.8017 0.0
C1334 C 0.6181 0.99219 0.84339 0.0
C1335 C 0.61231 1.00125 0.88834 0.0
C1336 C 0.59452 1.0093 0.89173 0.0
C1337 C 0.63742 0.98452 0.84113 0.0
C1338 C 0.64264 0.97188 0.87972 0.0
C1339 C 0.65136 0.99171 0.80723 0.0
C1340 C 0.64684 1.00514 0.76549 0.0
C1341 C 0.63831 0.02257 0.77607 0.0
C1342 C 0.63419 0.0351 0.73636 0.0
C1343 C 0.63894 0.03055 0.68603 0.0
C1344 C 0.64786 0.0135 0.67532 0.0
C1345 C 0.65175 1.00079 0.71478 0.0
H1346 H 0.63582 0.04029 0.65534 0.0
H1347 H 0.67811 0.92982 0.06062 0.0
H1348 H 0.56369 0.68963 0.96268 0.0
H1349 H 0.55718 0.66816 0.89232 0.0
H1350 H 0.55848 0.71486 0.78635 0.0
H1351 H 0.56508 0.73652 0.857 0.0
H1352 H 0.52591 0.6972 0.78268 0.0
H1353 H 0.58939 0.67763 0.77391 0.0
H1354 H 0.62053 0.66676 0.80322 0.0
H1355 H 0.59528 0.61571 0.86082 0.0
H1356 H 0.56397 0.62644 0.83321 0.0
H1357 H 0.48269 0.62953 0.61972 0.0
H1358 H 0.50671 0.65227 0.64793 0.0
H1359 H 0.51668 0.61858 0.78262 0.0
H1360 H 0.49307 0.59581 0.75447 0.0
H1361 H 0.54889 0.63252 0.74881 0.0
H1362 H 0.48586 0.65705 0.78202 0.0
H1363 H 0.45407 0.66743 0.75638 0.0
H1364 H 0.47868 0.70877 0.65566 0.0
H1365 H 0.51063 0.69846 0.68035 0.0
C1366 C 0.56335 0.69527 0.9242 0.0
C1367 C 0.56466 0.7148 0.91548 0.0
C1368 C 0.55965 0.68294 0.88384 0.0
C1369 C 0.55735 0.68989 0.83396 0.0
C1370 C 0.56018 0.7092 0.82455 0.0
C1371 C 0.56385 0.72156 0.86496 0.0
C1372 C 0.54866 0.67762 0.79447 0.0
C1373 C 0.53129 0.68327 0.77395 0.0
C1374 C 0.55543 0.6593 0.7839 0.0
C1375 C 0.57426 0.65292 0.80163 0.0
C1376 C 0.59043 0.66418 0.79336 0.0
C1377 C 0.60814 0.65803 0.80968 0.0
C1378 C 0.60989 0.64058 0.83403 0.0
C1379 C 0.59393 0.62925 0.84214 0.0
C1380 C 0.57619 0.63536 0.82612 0.0
C1381 C 0.49002 0.62701 0.65535 0.0
C1382 C 0.4859 0.61093 0.68503 0.0
C1383 C 0.50381 0.63994 0.67124 0.0
C1384 C 0.51334 0.63722 0.71767 0.0
C1385 C 0.50962 0.6209 0.74645 0.0
C1386 C 0.49607 0.6079 0.73034 0.0
C1387 C 0.52597 0.65194 0.73917 0.0
C1388 C 0.54394 0.64669 0.75637 0.0
C1389 C 0.51974 0.67061 0.74717 0.0
C1390 C 0.50058 0.67685 0.73252 0.0
C1391 C 0.48447 0.66827 0.75417 0.0
C1392 C 0.46644 0.67415 0.73985 0.0
C1393 C 0.46436 0.68871 0.70429 0.0
C1394 C 0.48031 0.69746 0.6831 0.0
C1395 C 0.49838 0.69161 0.69724 0.0
H1396 H 0.45039 0.69324 0.69325 0.0
H1397 H 0.62362 0.63581 0.84649 0.0
H1398 H 0.84534 0.56501 0.97027 0.0
H1399 H 0.86481 0.56388 0.89405 0.0
H1400 H 0.81537 0.57113 0.79989 0.0
H1401 H 0.79555 0.57093 0.87653 0.0
H1402 H 0.8327 0.54262 0.76821 0.0
H1403 H 0.85436 0.60427 0.80007 0.0
H1404 H 0.86579 0.63183 0.84869 0.0
H1405 H 0.91604 0.60191 0.88955 0.0
H1406 H 0.90482 0.57405 0.84201 0.0
H1407 H 0.9044 0.50689 0.60161 0.0
H1408 H 0.88266 0.53161 0.62998 0.0
H1409 H 0.90685 0.52911 0.7811 0.0
H1410 H 0.92807 0.50445 0.75353 0.0
H1411 H 0.89873 0.5657 0.75206 0.0
H1412 H 0.86854 0.5021 0.74933 0.0
H1413 H 0.85724 0.47399 0.70256 0.0
H1414 H 0.82305 0.50906 0.60661 0.0
H1415 H 0.83443 0.53739 0.65235 0.0
C1416 C 0.83859 0.56657 0.93341 0.0
C1417 C 0.81885 0.56765 0.92951 0.0
C1418 C 0.84983 0.56632 0.88964 0.0
C1419 C 0.84165 0.56762 0.84087 0.0
C1420 C 0.82204 0.57016 0.83702 0.0
C1421 C 0.81072 0.57014 0.88094 0.0
C1422 C 0.8532 0.56304 0.79507 0.0
C1423 C 0.8469 0.54823 0.76355 0.0
C1424 C 0.87177 0.57027 0.78847 0.0
C1425 C 0.8787 0.58703 0.81725 0.0
C1426 C 0.8678 0.60351 0.81962 0.0
C1427 C 0.87426 0.6192 0.84701 0.0
C1428 C 0.89163 0.61862 0.87216 0.0
C1429 C 0.9026 0.60235 0.86996 0.0
C1430 C 0.89621 0.58661 0.84265 0.0
C1431 C 0.9051 0.51174 0.64067 0.0
C1432 C 0.91792 0.50367 0.67522 0.0
C1433 C 0.89282 0.52596 0.65671 0.0
C1434 C 0.8932 0.53221 0.70763 0.0
C1435 C 0.9065 0.52469 0.74145 0.0
C1436 C 0.91863 0.51053 0.72557 0.0
C1437 C 0.87848 0.54467 0.72877 0.0
C1438 C 0.88418 0.56092 0.75532 0.0
C1439 C 0.85937 0.53884 0.73089 0.0
C1440 C 0.85247 0.52182 0.70379 0.0
C1441 C 0.8587 0.50379 0.71804 0.0
C1442 C 0.8523 0.48784 0.69172 0.0
C1443 C 0.83949 0.48974 0.65151 0.0
C1444 C 0.83303 0.50761 0.63761 0.0
C1445 C 0.83946 0.52362 0.66368 0.0
H1446 H 0.83451 0.47736 0.63129 0.0
H1447 H 0.8966 0.63079 0.89335 0.0
H1448 H 0.06328 0.20489 0.8597 0.0
H1449 H 0.05782 0.17709 0.80662 0.0
H1450 H 1.0006 0.17323 0.86277 0.0
H1451 H 1.00623 0.20057 0.91759 0.0
H1452 H 0.01495 0.14046 0.86804 0.0
H1453 H 0.01211 0.18544 0.73514 0.0
H1454 H 0.02057 0.2116 0.67712 0.0
H1455 H 0.07035 0.18215 0.62977 0.0
H1456 H 0.06234 0.15587 0.68802 0.0
H1457 H 0.98879 0.06514 0.70396 0.0
H1458 H 0.9913 0.09604 0.74466 0.0
H1459 H 0.04952 0.10042 0.6967 0.0
H1460 H 0.04653 0.07013 0.65268 0.0
H1461 H 0.03411 0.13288 0.68702 0.0
H1462 H 0.03443 0.0877 0.82564 0.0
H1463 H 0.02164 0.0612 0.8767 0.0
H1464 H 0.97094 0.09219 0.90533 0.0
H1465 H 0.98333 0.11888 0.8544 0.0
C1466 C 0.04949 0.1982 0.86073 0.0
C1467 C 0.03527 0.20503 0.89353 0.0
C1468 C 0.0463 0.18236 0.82971 0.0
C1469 C 0.02874 0.17294 0.83018 0.0
C1470 C 0.0143 0.18013 0.86151 0.0
C1471 C 0.0175 0.19596 0.89263 0.0
C1472 C 0.02594 0.1548 0.80147 0.0
C1473 C 0.01876 0.13902 0.82806 0.0
C1474 C 0.03123 0.15254 0.74946 0.0
C1475 C 0.03676 0.16879 0.71665 0.0
C1476 C 0.02503 0.18466 0.71303 0.0
C1477 C 0.02969 0.19947 0.67986 0.0
C1478 C 0.04601 0.19855 0.64986 0.0
C1479 C 0.05773 0.18284 0.6531 0.0
C1480 C 0.05314 0.16799 0.68622 0.0
C1481 C 1.00212 0.07271 0.70186 0.0
C1482 C 0.01769 0.06485 0.67634 0.0
C1483 C 1.00361 0.09034 0.72576 0.0
C1484 C 0.02082 0.10041 0.72562 0.0
C1485 C 0.03616 0.09288 0.69841 0.0
C1486 C 0.03455 0.07539 0.67379 0.0
C1487 C 0.02277 0.11885 0.75319 0.0
C1488 C 0.03001 0.13456 0.72666 0.0
C1489 C 0.01706 0.1212 0.80475 0.0
C1490 C 0.00976 0.10523 0.83591 0.0
C1491 C 0.02052 0.08883 0.84265 0.0
C1492 C 0.01335 0.07378 0.87154 0.0
C1493 C 0.99548 0.07497 0.89399 0.0
C1494 C 0.98477 0.09127 0.88786 0.0
C1495 C 0.99187 0.10639 0.85911 0.0
H1496 H 0.98996 0.06327 0.91624 0.0
H1497 H 0.04953 0.20998 0.624 0.0
H1498 H 0.30666 0.01944 0.82895 0.0
H1499 H 0.33599 0.01445 0.78076 0.0
H1500 H 0.36312 0.05889 0.86674 0.0
H1501 H 0.3339 0.06416 0.91379 0.0
H1502 H 0.37301 0.06277 0.77322 0.0
H1503 H 0.37056 1.00944 0.88749 0.0
H1504 H 0.35669 0.98085 0.92672 0.0
H1505 H 0.35508 0.95382 0.77996 0.0
H1506 H 0.36873 0.98236 0.73975 0.0
H1507 H 0.46992 0.04261 0.73969 0.0
H1508 H 0.43809 0.04575 0.77405 0.0
H1509 H 0.41673 1.00815 0.65809 0.0
H1510 H 0.44865 1.00506 0.62266 0.0
H1511 H 0.40267 0.99988 0.75754 0.0
H1512 H 0.40809 0.0532 0.64574 0.0
H1513 H 0.42364 0.08155 0.61004 0.0
H1514 H 0.42091 0.10855 0.75668 0.0
H1515 H 0.40559 0.08024 0.79348 0.0
C1516 C 0.3189 0.0281 0.83761 0.0
C1517 C 0.31781 0.0423 0.87506 0.0
C1518 C 0.33574 0.0252 0.8101 0.0
C1519 C 0.352 0.03617 0.82015 0.0
C1520 C 0.35087 0.05028 0.8577 0.0
C1521 C 0.33406 0.05332 0.88465 0.0
C1522 C 0.37022 0.03323 0.79179 0.0
C1523 C 0.3795 0.049 0.77033 0.0
C1524 C 0.37868 0.01525 0.78647 0.0
C1525 C 0.37045 0.99811 0.81054 0.0
C1526 C 0.36711 0.99745 0.86353 0.0
C1527 C 0.35931 0.98125 0.88595 0.0
C1528 C 0.35495 0.96555 0.85582 0.0
C1529 C 0.35843 0.96601 0.80323 0.0
C1530 C 0.3662 0.98218 0.78061 0.0
C1531 C 0.45853 0.03501 0.7211 0.0
C1532 C 0.46204 0.02352 0.67824 0.0
C1533 C 0.44025 0.03686 0.74092 0.0
C1534 C 0.42493 0.02725 0.71866 0.0
C1535 C 0.42831 0.01568 0.67606 0.0
C1536 C 0.44661 0.01396 0.65577 0.0
C1537 C 0.40548 0.02944 0.74017 0.0
C1538 C 0.39601 0.01357 0.76018 0.0
C1539 C 0.39691 0.04734 0.74466 0.0
C1540 C 0.40581 0.06453 0.72245 0.0
C1541 C 0.41091 0.06514 0.67046 0.0
C1542 C 0.41967 0.0812 0.65001 0.0
C1543 C 0.4233 0.09683 0.6811 0.0
C1544 C 0.4181 0.09643 0.73266 0.0
C1545 C 0.40936 0.08039 0.75332 0.0
H1546 H 0.43011 0.10924 0.66522 0.0
H1547 H 0.34892 0.95302 0.87325 0.0
H1548 H 0.47379 0.31351 0.82151 0.0
H1549 H 0.47809 0.34395 0.78077 0.0
H1550 H 0.52954 0.35283 0.86576 0.0
H1551 H 0.52417 0.32337 0.91123 0.0
H1552 H 0.51382 0.38331 0.86679 0.0
H1553 H 0.52594 0.34261 0.72626 0.0
H1554 H 0.52103 0.31714 0.66342 0.0
H1555 H 0.47047 0.34389 0.61064 0.0
H1556 H 0.47483 0.36927 0.674 0.0
H1557 H 0.53894 0.46496 0.72074 0.0
H1558 H 0.53809 0.43317 0.75676 0.0
H1559 H 0.48184 0.42496 0.69726 0.0
H1560 H 0.48319 0.45636 0.65832 0.0
H1561 H 0.50225 0.39434 0.68247 0.0
H1562 H 0.49285 0.43581 0.8311 0.0
H1563 H 0.50321 0.46181 0.88762 0.0
H1564 H 0.55511 0.43313 0.91765 0.0
H1565 H 0.54516 0.40696 0.86148 0.0
C1566 C 0.48595 0.32191 0.83233 0.0
C1567 C 0.49846 0.31569 0.87067 0.0
C1568 C 0.48863 0.33934 0.80785 0.0
C1569 C 0.50433 0.35088 0.81921 0.0
C1570 C 0.51724 0.34441 0.856 0.0
C1571 C 0.51429 0.32721 0.88159 0.0
C1572 C 0.50672 0.37004 0.79503 0.0
C1573 C 0.51149 0.38553 0.82627 0.0
C1574 C 0.50366 0.37337 0.74213 0.0
C1575 C 0.50066 0.35778 0.70512 0.0
C1576 C 0.51367 0.34295 0.70164 0.0
C1577 C 0.51099 0.32853 0.6659 0.0
C1578 C 0.49543 0.32887 0.63314 0.0
C1579 C 0.48249 0.34361 0.63611 0.0
C1580 C 0.48506 0.35801 0.67194 0.0
C1581 C 0.52638 0.45639 0.71524 0.0
C1582 C 0.51092 0.46342 0.68754 0.0
C1583 C 0.52584 0.43822 0.73634 0.0
C1584 C 0.5097 0.4267 0.73108 0.0
C1585 C 0.49439 0.43358 0.70257 0.0
C1586 C 0.49504 0.45167 0.68085 0.0
C1587 C 0.50883 0.4074 0.75439 0.0
C1588 C 0.50441 0.39194 0.72296 0.0
C1589 C 0.51275 0.40402 0.8067 0.0
C1590 C 0.51829 0.41947 0.84195 0.0
C1591 C 0.50646 0.43505 0.84979 0.0
C1592 C 0.51226 0.44981 0.88168 0.0
C1593 C 0.52979 0.44914 0.90599 0.0
C1594 C 0.54153 0.43363 0.89881 0.0
C1595 C 0.5358 0.4188 0.86712 0.0
H1596 H 0.53425 0.46064 0.93046 0.0
H1597 H 0.49342 0.31772 0.60539 0.0
H1598 H 0.20804 0.46258 0.86486 0.0
H1599 H 0.17998 0.46633 0.81159 0.0
H1600 H 0.18266 0.52657 0.8337 0.0
H1601 H 0.21064 0.52288 0.88724 0.0
H1602 H 0.14864 0.51523 0.85108 0.0
H1603 H 0.19157 0.50492 0.7126 0.0
H1604 H 0.2164 0.48865 0.66368 0.0
H1605 H 0.1816 0.43889 0.65532 0.0
H1606 H 0.15649 0.45492 0.70389 0.0
H1607 H 0.07263 0.53768 0.69062 0.0
H1608 H 0.10427 0.53486 0.72574 0.0
H1609 H 0.10299 0.47494 0.69697 0.0
H1610 H 0.07196 0.47814 0.65678 0.0
H1611 H 0.13674 0.48626 0.68161 0.0
H1612 H 0.09415 0.49755 0.82464 0.0
H1613 H 0.07011 0.51504 0.87337 0.0
H1614 H 0.10527 0.56457 0.87151 0.0
H1615 H 0.12967 0.54736 0.8233 0.0
C1616 C 0.20293 0.47668 0.85751 0.0
C1617 C 0.21167 0.49242 0.8807 0.0
C1618 C 0.18681 0.47882 0.82686 0.0
C1619 C 0.17909 0.49677 0.81809 0.0
C1620 C 0.18817 0.51254 0.83987 0.0
C1621 C 0.20421 0.51041 0.87069 0.0
C1622 C 0.16079 0.49902 0.78991 0.0
C1623 C 0.14622 0.50913 0.81362 0.0
C1624 C 0.15723 0.49074 0.74148 0.0
C1625 C 0.17225 0.48105 0.71233 0.0
C1626 C 0.18926 0.49047 0.70054 0.0
C1627 C 0.20334 0.48133 0.67267 0.0
C1628 C 0.20057 0.46275 0.65637 0.0
C1629 C 0.18369 0.4533 0.66781 0.0
C1630 C 0.1695 0.46243 0.69535 0.0
C1631 C 0.07911 0.5239 0.6912 0.0
C1632 C 0.06945 0.50803 0.67192 0.0
C1633 C 0.0972 0.52224 0.71214 0.0
C1634 C 0.10594 0.50455 0.71625 0.0
C1635 C 0.09658 0.48875 0.69529 0.0
C1636 C 0.07865 0.49052 0.67294 0.0
C1637 C 0.12462 0.50254 0.74281 0.0
C1638 C 0.13921 0.49242 0.71897 0.0
C1639 C 0.12831 0.51094 0.79107 0.0
C1640 C 0.11364 0.52122 0.82007 0.0
C1641 C 0.09671 0.51219 0.83446 0.0
C1642 C 0.08303 0.52204 0.86197 0.0
C1643 C 0.08607 0.54091 0.87514 0.0
C1644 C 0.1029 0.54996 0.8612 0.0
C1645 C 0.1167 0.54015 0.834 0.0
H1646 H 0.07541 0.5485 0.89634 0.0
H1647 H 0.21149 0.45568 0.63487 0.0
H1648 H 0.98695 0.80814 0.40712 0.0
H1649 H 0.99062 0.83586 0.4625 0.0
H1650 H 0.00865 0.86894 0.33245 0.0
H1651 H 1.00551 0.84133 0.2777 0.0
H1652 H 0.02969 0.87795 0.40777 0.0
H1653 H 0.96205 0.87 0.38977 0.0
H1654 H 0.93157 0.85311 0.39714 0.0
H1655 H 0.93918 0.84809 0.5594 0.0
H1656 H 0.96983 0.86475 0.55289 0.0
H1657 H 0.01557 0.97142 0.48328 0.0
H1658 H 0.01271 0.94048 0.44369 0.0
H1659 H 0.9984 0.91599 0.58984 0.0
H1660 H 1.00088 0.94729 0.62979 0.0
H1661 H 0.9774 0.90048 0.51775 0.0
H1662 H 0.04347 0.91301 0.53476 0.0
H1663 H 0.0729 0.93146 0.52518 0.0
H1664 H 0.06776 0.92899 0.36191 0.0
H1665 H 0.03809 0.91081 0.3704 0.0
C1666 C 0.99173 0.82134 0.39044 0.0
C1667 C 0.99604 0.82242 0.33792 0.0
C1668 C 0.99375 0.83724 0.42213 0.0
C1669 C 0.99972 0.85473 0.40184 0.0
C1670 C 1.00413 0.85571 0.34946 0.0
C1671 C 1.00236 0.83982 0.31805 0.0
C1672 C 1.00143 0.87211 0.43436 0.0
C1673 C 0.01815 0.88291 0.4314 0.0
C1674 C 0.98671 0.87845 0.46685 0.0
C1675 C 0.96834 0.86839 0.47073 0.0
C1676 C 0.95729 0.86515 0.42695 0.0
C1677 C 0.93998 0.85564 0.43098 0.0
C1678 C 0.93348 0.84947 0.47868 0.0
C1679 C 0.94426 0.85284 0.52247 0.0
C1680 C 0.9616 0.86231 0.51863 0.0
C1681 C 0.01174 0.95949 0.50711 0.0
C1682 C 1.0085 0.96184 0.55973 0.0
C1683 C 0.0103 0.9417 0.48444 0.0
C1684 C 1.00594 0.92566 0.51393 0.0
C1685 C 1.00223 0.92802 0.56642 0.0
C1686 C 1.0037 0.94591 0.58925 0.0
C1687 C 1.00537 0.90657 0.48956 0.0
C1688 C 0.98898 0.89541 0.4944 0.0
C1689 C 0.02035 0.89995 0.45844 0.0
C1690 C 0.03848 0.91054 0.45329 0.0
C1691 C 0.04857 0.9164 0.49682 0.0
C1692 C 0.0653 0.92685 0.49159 0.0
C1693 C 0.0722 0.93138 0.44302 0.0
C1694 C 0.0624 0.92545 0.39954 0.0
C1695 C 0.04563 0.91506 0.40454 0.0
H1696 H 0.08514 0.93948 0.43907 0.0
H1697 H 0.92007 0.84212 0.48173 0.0
H1698 H 0.70531 0.97144 0.35725 0.0
H1699 H 0.67639 0.97414 0.40769 0.0
H1700 H 0.69398 0.02939 0.45841 0.0
H1701 H 0.72294 0.02682 0.40767 0.0
H1702 H 0.66704 0.97794 0.50443 0.0
H1703 H 0.65559 0.05756 0.47267 0.0
H1704 H 0.66366 0.08242 0.40999 0.0
H1705 H 0.66752 0.04081 0.29133 0.0
H1706 H 0.65924 0.01576 0.35314 0.0
H1707 H 0.58467 1.00339 0.6496 0.0
H1708 H 0.6168 1.00174 0.61506 0.0
H1709 H 0.59563 0.01493 0.46477 0.0
H1710 H 0.56387 0.01756 0.49952 0.0
H1711 H 0.62576 0.03297 0.47394 0.0
H1712 H 0.60939 0.96792 0.51206 0.0
H1713 H 0.59991 0.94142 0.56794 0.0
H1714 H 0.64871 0.95086 0.66178 0.0
H1715 H 0.65863 0.97725 0.60612 0.0
C1716 C 0.70324 0.98407 0.37975 0.0
C1717 C 0.71656 0.99894 0.378 0.0
C1718 C 0.68659 0.98562 0.40861 0.0
C1719 C 0.68272 1.00208 0.43656 0.0
C1720 C 0.69633 0.01667 0.43648 0.0
C1721 C 0.71295 0.01518 0.40735 0.0
C1722 C 0.66416 1.00419 0.4638 0.0
C1723 C 0.65805 0.99002 0.49788 0.0
C1724 C 0.6522 0.01982 0.45527 0.0
C1725 C 0.65703 0.03478 0.41768 0.0
C1726 C 0.65812 0.05374 0.43317 0.0
C1727 C 0.66273 0.06785 0.3978 0.0
C1728 C 0.66617 0.06319 0.34675 0.0
C1729 C 0.66493 0.0444 0.33092 0.0
C1730 C 0.66029 0.03024 0.36611 0.0
C1731 C 0.58693 1.00616 0.60932 0.0
C1732 C 0.57162 0.01063 0.57742 0.0
C1733 C 0.60536 1.00506 0.58939 0.0
C1734 C 0.6089 1.00805 0.5369 0.0
C1735 C 0.59354 0.0126 0.50533 0.0
C1736 C 0.57524 0.01395 0.52526 0.0
C1737 C 0.62837 1.00655 0.51413 0.0
C1738 C 0.63475 0.02092 0.48097 0.0
C1739 C 0.64035 0.99088 0.52267 0.0
C1740 C 0.63456 0.97478 0.5555 0.0
C1741 C 0.61804 0.96441 0.54478 0.0
C1742 C 0.6126 0.94938 0.57634 0.0
C1743 C 0.62359 0.94456 0.61862 0.0
C1744 C 0.64016 0.95464 0.62914 0.0
C1745 C 0.64573 0.9696 0.59752 0.0
H1746 H 0.61932 0.93296 0.64307 0.0
H1747 H 0.66975 0.07413 0.31945 0.0
H1748 H 0.54475 0.68496 0.28995 0.0
H1749 H 0.53913 0.65745 0.34455 0.0
H1750 H 0.51797 0.69356 0.46371 0.0
H1751 H 0.52335 0.72134 0.40851 0.0
H1752 H 0.54619 0.66352 0.49438 0.0
H1753 H 0.48672 0.67135 0.40767 0.0
H1754 H 0.46662 0.67597 0.33187 0.0
H1755 H 0.48708 0.62434 0.26726 0.0
H1756 H 0.50752 0.61956 0.34236 0.0
H1757 H 0.51742 0.58184 0.63878 0.0
H1758 H 0.51987 0.61303 0.59887 0.0
H1759 H 0.51884 0.58713 0.44972 0.0
H1760 H 0.51499 0.55636 0.48933 0.0
H1761 H 0.49929 0.61507 0.44159 0.0
H1762 H 0.55998 0.607 0.52162 0.0
H1763 H 0.58222 0.60214 0.59273 0.0
H1764 H 0.5635 0.65335 0.66333 0.0
H1765 H 0.54047 0.65804 0.5941 0.0
C1766 C 0.53898 0.6871 0.32787 0.0
C1767 C 0.53458 0.70538 0.34494 0.0
C1768 C 0.53573 0.67134 0.359 0.0
C1769 C 0.52816 0.67341 0.40829 0.0
C1770 C 0.52388 0.69163 0.42587 0.0
C1771 C 0.52684 0.70747 0.39423 0.0
C1772 C 0.52447 0.65634 0.4404 0.0
C1773 C 0.53573 0.65301 0.48354 0.0
C1774 C 0.51119 0.64243 0.42542 0.0
C1775 C 0.49876 0.64518 0.38048 0.0
C1776 C 0.48704 0.66106 0.37712 0.0
C1777 C 0.47557 0.66369 0.33432 0.0
C1778 C 0.4756 0.65047 0.29473 0.0
C1779 C 0.48708 0.63457 0.29794 0.0
C1780 C 0.49859 0.63189 0.34064 0.0
C1781 C 0.51754 0.58285 0.59746 0.0
C1782 C 0.51642 0.56647 0.56725 0.0
C1783 C 0.51907 0.60075 0.57456 0.0
C1784 C 0.51974 0.60272 0.52095 0.0
C1785 C 0.51838 0.58629 0.49105 0.0
C1786 C 0.51652 0.56852 0.51383 0.0
C1787 C 0.52147 0.62167 0.49532 0.0
C1788 C 0.50975 0.62547 0.45316 0.0
C1789 C 0.53466 0.6358 0.51073 0.0
C1790 C 0.5483 0.63275 0.55291 0.0
C1791 C 0.56039 0.61708 0.5527 0.0
C1792 C 0.5731 0.61432 0.59282 0.0
C1793 C 0.57413 0.62732 0.63284 0.0
C1794 C 0.56248 0.64313 0.63277 0.0
C1795 C 0.54955 0.64582 0.59319 0.0
H1796 H 0.58404 0.62522 0.66373 0.0
H1797 H 0.46671 0.65253 0.26162 0.0
H1798 H 0.82839 0.50247 0.32282 0.0
H1799 H 0.85695 0.49947 0.37441 0.0
H1800 H 0.84371 0.55125 0.45234 0.0
H1801 H 0.81484 0.55411 0.40201 0.0
H1802 H 0.87931 0.5518 0.41493 0.0
H1803 H 0.84174 0.50973 0.51445 0.0
H1804 H 0.82055 0.48271 0.5317 0.0
H1805 H 0.86276 0.44461 0.4765 0.0
H1806 H 0.88405 0.47144 0.45768 0.0
H1807 H 0.96078 0.54929 0.57327 0.0
H1808 H 0.92885 0.55132 0.53855 0.0
H1809 H 0.93231 0.49343 0.48818 0.0
H1810 H 0.96348 0.49099 0.52706 0.0
H1811 H 0.90006 0.49654 0.51573 0.0
H1812 H 0.93337 0.53879 0.39691 0.0
H1813 H 0.95225 0.56611 0.36722 0.0
H1814 H 0.9181 0.60332 0.45713 0.0
H1815 H 0.89852 0.57629 0.48564 0.0
C1816 C 0.8312 0.51298 0.35186 0.0
C1817 C 0.8192 0.52863 0.35769 0.0
C1818 C 0.84766 0.51127 0.38132 0.0
C1819 C 0.85259 0.52514 0.41738 0.0
C1820 C 0.84033 0.5404 0.42462 0.0
C1821 C 0.82382 0.54206 0.39549 0.0
C1822 C 0.87121 0.52458 0.44435 0.0
C1823 C 0.88371 0.53985 0.43789 0.0
C1824 C 0.87725 0.50883 0.47317 0.0
C1825 C 0.86442 0.49265 0.48408 0.0
C1826 C 0.84643 0.49562 0.50537 0.0
C1827 C 0.8344 0.48032 0.51549 0.0
C1828 C 0.84029 0.46196 0.50511 0.0
C1829 C 0.85821 0.45885 0.48448 0.0
C1830 C 0.87026 0.4741 0.47402 0.0
C1831 C 0.95471 0.53704 0.55461 0.0
C1832 C 0.96472 0.52001 0.55281 0.0
C1833 C 0.93644 0.53825 0.53401 0.0
C1834 C 0.928 0.52271 0.50897 0.0
C1835 C 0.93819 0.50573 0.50705 0.0
C1836 C 0.95616 0.50434 0.52916 0.0
C1837 C 0.90847 0.52381 0.48621 0.0
C1838 C 0.89572 0.50862 0.49334 0.0
C1839 C 0.90216 0.53961 0.45772 0.0
C1840 C 0.91471 0.55556 0.44389 0.0
C1841 C 0.93005 0.55278 0.41074 0.0
C1842 C 0.94078 0.56822 0.39387 0.0
C1843 C 0.93652 0.58641 0.41071 0.0
C1844 C 0.92143 0.58922 0.44424 0.0
C1845 C 0.91042 0.57389 0.46043 0.0
H1846 H 0.94483 0.59834 0.39754 0.0
H1847 H 0.83098 0.45014 0.51316 0.0
loop_
_geom_bond_atom_site_label_1
_geom_bond_atom_site_label_2
_geom_bond_distance
_geom_bond_site_symmetry_2
_ccdc_geom_bond_type
C0 C1 1.386 . S
C0 C2 1.397 . S
C0 H24 0.931 1_554 S
C1 C0 1.386 . S
C1 C5 1.397 . S
C2 C0 1.397 . S
C2 C3 1.384 . S
C2 H25 0.930 . S
C3 C2 1.384 . S
C3 C4 1.377 . S
C3 C6 1.481 . S
C4 C3 1.377 . S
C4 C5 1.389 . S
C4 H26 0.929 . S
C5 C1 1.397 . S
C5 C4 1.389 . S
C5 H27 0.931 . S
C6 C3 1.481 . S
C6 C7 1.387 . S
C6 C11 1.390 . S
C7 C6 1.387 . S
C7 C8 1.401 . S
C7 H28 0.930 . S
C8 C7 1.401 . S
C8 C9 1.376 . S
C8 C17 1.511 . S
C9 C8 1.376 . S
C9 C10 1.392 . S
C9 H30 0.931 . S
C10 C9 1.392 . S
C10 C11 1.361 . S
C10 C12 1.500 . S
C11 C6 1.390 . S
C11 C10 1.361 . S
C11 H29 0.931 . S
C12 C10 1.500 . S
C12 C13 1.371 . S
C12 C14 1.365 . S
C13 C12 1.371 . S
C13 C23 1.386 . S
C13 H31 0.931 . S
C14 C12 1.365 . S
C14 C15 1.409 . S
C14 H32 0.929 . S
C15 C14 1.409 . S
C15 C16 1.380 . S
C15 H33 0.930 . S
C16 C15 1.380 . S
C16 C23 1.357 . S
C17 C8 1.511 . S
C17 C18 1.341 . S
C17 C19 1.371 . S
C18 C17 1.341 . S
C18 C22 1.394 . S
C18 H34 0.930 . S
C19 C17 1.371 . S
C19 C20 1.392 . S
C19 H35 0.931 . S
C20 C19 1.392 . S
C20 C21 1.331 . S
C20 H38 0.932 . S
C21 C20 1.331 . S
C21 C22 1.336 . S
C22 C18 1.394 . S
C22 C21 1.336 . S
C22 H37 0.929 . S
C23 C13 1.386 . S
C23 C16 1.357 . S
C23 H36 0.928 . S
H24 C0 0.931 1_556 S
H25 C2 0.930 . S
H26 C4 0.929 . S
H27 C5 0.931 . S
H28 C7 0.930 . S
H29 C11 0.931 . S
H30 C9 0.931 . S
H31 C13 0.931 . S
H32 C14 0.929 . S
H33 C15 0.930 . S
H34 C18 0.930 . S
H35 C19 0.931 . S
H36 C23 0.928 . S
H37 C22 0.929 . S
H38 C20 0.932 . S
C39 C40 1.386 . S
C39 C41 1.397 . S
C39 H63 0.931 1_554 S
C40 C39 1.386 . S
C40 C44 1.397 . S
C41 C39 1.397 . S
C41 C42 1.384 . S
C41 H64 0.930 . S
C42 C41 1.384 . S
C42 C43 1.377 . S
C42 C45 1.481 . S
C43 C42 1.377 . S
C43 C44 1.389 . S
C43 H65 0.929 . S
C44 C40 1.397 . S
C44 C43 1.389 . S
C44 H66 0.931 . S
C45 C42 1.481 . S
C45 C46 1.387 . S
C45 C50 1.390 . S
C46 C45 1.387 . S
C46 C47 1.401 . S
C46 H67 0.930 . S
C47 C46 1.401 . S
C47 C48 1.376 . S
C47 C56 1.511 . S
C48 C47 1.376 . S
C48 C49 1.392 . S
C48 H69 0.931 . S
C49 C48 1.392 . S
C49 C50 1.361 . S
C49 C51 1.500 . S
C50 C45 1.390 . S
C50 C49 1.361 . S
C50 H68 0.931 . S
C51 C49 1.500 . S
C51 C52 1.371 . S
C51 C53 1.365 . S
C52 C51 1.371 . S
C52 C62 1.386 . S
C52 H70 0.931 . S
C53 C51 1.365 . S
C53 C54 1.409 . S
C53 H71 0.929 . S
C54 C53 1.409 . S
C54 C55 1.380 . S
C54 H72 0.930 . S
C55 C54 1.380 . S
C55 C62 1.357 . S
C56 C47 1.511 . S
C56 C57 1.341 . S
C56 C58 1.371 . S
C57 C56 1.341 . S
C57 C61 1.394 . S
C57 H73 0.930 . S
C58 C56 1.371 . S
C58 C59 1.392 . S
C58 H74 0.931 . S
C59 C58 1.392 . S
C59 C60 1.331 . S
C59 H77 0.932 . S
C60 C59 1.331 . S
C60 C61 1.336 . S
C61 C57 1.394 . S
C61 C60 1.336 . S
C61 H76 0.929 . S
C62 C52 1.386 . S
C62 C55 1.357 . S
C62 H75 0.928 . S
H63 C39 0.931 1_556 S
H64 C41 0.930 . S
H65 C43 0.929 . S
H66 C44 0.931 . S
H67 C46 0.930 . S
H68 C50 0.931 . S
H69 C48 0.931 . S
H70 C52 0.931 . S
H71 C53 0.929 . S
H72 C54 0.930 . S
H73 C57 0.930 . S
H74 C58 0.931 . S
H75 C62 0.928 . S
H76 C61 0.929 . S
H77 C59 0.932 . S
C78 C79 1.386 . S
C78 C80 1.397 . S
C78 H102 0.931 1_554 S
C79 C78 1.386 . S
C79 C83 1.397 . S
C80 C78 1.397 . S
C80 C81 1.384 . S
C80 H103 0.930 . S
C81 C80 1.384 . S
C81 C82 1.377 . S
C81 C84 1.481 . S
C82 C81 1.377 . S
C82 C83 1.389 . S
C82 H104 0.929 . S
C83 C79 1.397 . S
C83 C82 1.389 . S
C83 H105 0.931 . S
C84 C81 1.481 . S
C84 C85 1.387 . S
C84 C89 1.390 . S
C85 C84 1.387 . S
C85 C86 1.401 . S
C85 H106 0.930 . S
C86 C85 1.401 . S
C86 C87 1.376 . S
C86 C95 1.511 . S
C87 C86 1.376 . S
C87 C88 1.392 . S
C87 H108 0.931 . S
C88 C87 1.392 . S
C88 C89 1.361 . S
C88 C90 1.500 . S
C89 C84 1.390 . S
C89 C88 1.361 . S
C89 H107 0.931 . S
C90 C88 1.500 . S
C90 C91 1.371 . S
C90 C92 1.365 . S
C91 C90 1.371 . S
C91 C101 1.386 . S
C91 H109 0.931 . S
C92 C90 1.365 . S
C92 C93 1.409 . S
C92 H110 0.929 . S
C93 C92 1.409 . S
C93 C94 1.380 . S
C93 H111 0.930 . S
C94 C93 1.380 . S
C94 C101 1.357 . S
C95 C86 1.511 . S
C95 C96 1.341 . S
C95 C97 1.371 . S
C96 C95 1.341 . S
C96 C100 1.394 . S
C96 H112 0.930 . S
C97 C95 1.371 . S
C97 C98 1.392 . S
C97 H113 0.931 . S
C98 C97 1.392 . S
C98 C99 1.331 . S
C98 H116 0.932 . S
C99 C98 1.331 . S
C99 C100 1.336 . S
C100 C96 1.394 . S
C100 C99 1.336 . S
C100 H115 0.929 . S
C101 C91 1.386 . S
C101 C94 1.357 . S
C101 H114 0.928 . S
H102 C78 0.931 1_556 S
H103 C80 0.930 . S
H104 C82 0.929 . S
H105 C83 0.931 . S
H106 C85 0.930 . S
H107 C89 0.931 . S
H108 C87 0.931 . S
H109 C91 0.931 . S
H110 C92 0.929 . S
H111 C93 0.930 . S
H112 C96 0.930 . S
H113 C97 0.931 . S
H114 C101 0.928 . S
H115 C100 0.929 . S
H116 C98 0.932 . S
C117 C118 1.386 . S
C117 C119 1.397 . S
C117 H141 0.931 . S
C118 C117 1.386 . S
C118 C122 1.397 . S
C119 C117 1.397 . S
C119 C120 1.384 . S
C119 H142 0.930 . S
C120 C119 1.384 . S
C120 C121 1.377 . S
C120 C123 1.481 . S
C121 C120 1.377 . S
C121 C122 1.389 . S
C121 H143 0.929 . S
C122 C118 1.397 . S
C122 C121 1.389 . S
C122 H144 0.931 . S
C123 C120 1.481 . S
C123 C124 1.387 . S
C123 C128 1.390 . S
C124 C123 1.387 . S
C124 C125 1.401 . S
C124 H145 0.930 . S
C125 C124 1.401 . S
C125 C126 1.376 . S
C125 C134 1.511 . S
C126 C125 1.376 . S
C126 C127 1.392 . S
C126 H147 0.931 . S
C127 C126 1.392 . S
C127 C128 1.361 . S
C127 C129 1.500 . S
C128 C123 1.390 . S
C128 C127 1.361 . S
C128 H146 0.931 . S
C129 C127 1.500 . S
C129 C130 1.371 . S
C129 C131 1.365 . S
C130 C129 1.371 . S
C130 C140 1.386 . S
C130 H148 0.931 . S
C131 C129 1.365 . S
C131 C132 1.409 . S
C131 H149 0.929 . S
C132 C131 1.409 . S
C132 C133 1.380 . S
C132 H150 0.930 . S
C133 C132 1.380 . S
C133 C140 1.357 . S
C134 C125 1.511 . S
C134 C135 1.341 . S
C134 C136 1.371 . S
C135 C134 1.341 . S
C135 C139 1.394 . S
C135 H151 0.930 . S
C136 C134 1.371 . S
C136 C137 1.392 . S
C136 H152 0.931 . S
C137 C136 1.392 . S
C137 C138 1.331 . S
C137 H155 0.932 . S
C138 C137 1.331 . S
C138 C139 1.336 . S
C139 C135 1.394 . S
C139 C138 1.336 . S
C139 H154 0.929 . S
C140 C130 1.386 . S
C140 C133 1.357 . S
C140 H153 0.928 1_554 S
H141 C117 0.931 . S
H142 C119 0.930 . S
H143 C121 0.929 . S
H144 C122 0.931 . S
H145 C124 0.930 . S
H146 C128 0.931 . S
H147 C126 0.931 . S
H148 C130 0.931 . S
H149 C131 0.929 . S
H150 C132 0.930 . S
H151 C135 0.930 . S
H152 C136 0.931 . S
H153 C140 0.928 1_556 S
H154 C139 0.929 . S
H155 C137 0.932 . S
C156 C157 1.386 . S
C156 C158 1.397 . S
C156 H180 0.931 . S
C157 C156 1.386 . S
C157 C161 1.397 . S
C158 C156 1.397 . S
C158 C159 1.384 . S
C158 H181 0.930 . S
C159 C158 1.384 . S
C159 C160 1.377 . S
C159 C162 1.481 . S
C160 C159 1.377 . S
C160 C161 1.389 . S
C160 H182 0.929 . S
C161 C157 1.397 . S
C161 C160 1.389 . S
C161 H183 0.931 . S
C162 C159 1.481 . S
C162 C163 1.387 . S
C162 C167 1.390 . S
C163 C162 1.387 . S
C163 C164 1.401 . S
C163 H184 0.930 . S
C164 C163 1.401 . S
C164 C165 1.376 1_554 S
C164 C173 1.511 . S
C165 C164 1.376 1_556 S
C165 C166 1.392 . S
C165 H186 0.931 . S
C166 C165 1.392 . S
C166 C167 1.361 1_556 S
C166 C168 1.500 . S
C167 C162 1.390 . S
C167 C166 1.361 1_554 S
C167 H185 0.931 . S
C168 C166 1.500 . S
C168 C169 1.371 . S
C168 C170 1.365 . S
C169 C168 1.371 . S
C169 C179 1.386 . S
C169 H187 0.931 . S
C170 C168 1.365 . S
C170 C171 1.409 . S
C170 H188 0.929 . S
C171 C170 1.409 . S
C171 C172 1.380 . S
C171 H189 0.930 . S
C172 C171 1.380 . S
C172 C179 1.357 . S
C173 C164 1.511 . S
C173 C174 1.341 . S
C173 C175 1.371 . S
C174 C173 1.341 . S
C174 C178 1.394 . S
C174 H190 0.930 . S
C175 C173 1.371 . S
C175 C176 1.392 . S
C175 H191 0.931 1_554 S
C176 C175 1.392 . S
C176 C177 1.331 . S
C176 H194 0.932 . S
C177 C176 1.331 . S
C177 C178 1.336 . S
C178 C174 1.394 . S
C178 C177 1.336 . S
C178 H193 0.929 . S
C179 C169 1.386 . S
C179 C172 1.357 . S
C179 H192 0.928 . S
H180 C156 0.931 . S
H181 C158 0.930 . S
H182 C160 0.929 . S
H183 C161 0.931 . S
H184 C163 0.930 . S
H185 C167 0.931 . S
H186 C165 0.931 . S
H187 C169 0.931 . S
H188 C170 0.929 . S
H189 C171 0.930 . S
H190 C174 0.930 . S
H191 C175 0.931 1_556 S
H192 C179 0.928 . S
H193 C178 0.929 . S
H194 C176 0.932 . S
C195 C196 1.386 . S
C195 C197 1.397 . S
C195 H219 0.931 . S
C196 C195 1.386 . S
C196 C200 1.397 . S
C197 C195 1.397 . S
C197 C198 1.384 . S
C197 H220 0.930 . S
C198 C197 1.384 . S
C198 C199 1.377 . S
C198 C201 1.481 . S
C199 C198 1.377 . S
C199 C200 1.389 . S
C199 H221 0.929 . S
C200 C196 1.397 . S
C200 C199 1.389 . S
C200 H222 0.931 . S
C201 C198 1.481 . S
C201 C202 1.387 . S
C201 C206 1.390 . S
C202 C201 1.387 . S
C202 C203 1.401 . S
C202 H223 0.930 . S
C203 C202 1.401 . S
C203 C204 1.376 1_554 S
C203 C212 1.511 . S
C204 C203 1.376 1_556 S
C204 C205 1.392 . S
C204 H225 0.931 . S
C205 C204 1.392 . S
C205 C206 1.361 1_556 S
C205 C207 1.500 . S
C206 C201 1.390 . S
C206 C205 1.361 1_554 S
C206 H224 0.931 . S
C207 C205 1.500 . S
C207 C208 1.371 . S
C207 C209 1.365 . S
C208 C207 1.371 . S
C208 C218 1.386 . S
C208 H226 0.931 . S
C209 C207 1.365 . S
C209 C210 1.409 . S
C209 H227 0.929 . S
C210 C209 1.409 . S
C210 C211 1.380 . S
C210 H228 0.930 . S
C211 C210 1.380 . S
C211 C218 1.357 . S
C212 C203 1.511 . S
C212 C213 1.341 . S
C212 C214 1.371 . S
C213 C212 1.341 . S
C213 C217 1.394 . S
C213 H229 0.930 . S
C214 C212 1.371 . S
C214 C215 1.392 . S
C214 H230 0.931 1_554 S
C215 C214 1.392 . S
C215 C216 1.331 . S
C215 H233 0.932 . S
C216 C215 1.331 . S
C216 C217 1.336 . S
C217 C213 1.394 . S
C217 C216 1.336 . S
C217 H232 0.929 . S
C218 C208 1.386 . S
C218 C211 1.357 . S
C218 H231 0.928 . S
H219 C195 0.931 . S
H220 C197 0.930 . S
H221 C199 0.929 . S
H222 C200 0.931 . S
H223 C202 0.930 . S
H224 C206 0.931 . S
H225 C204 0.931 . S
H226 C208 0.931 . S
H227 C209 0.929 . S
H228 C210 0.930 . S
H229 C213 0.930 . S
H230 C214 0.931 1_556 S
H231 C218 0.928 . S
H232 C217 0.929 . S
H233 C215 0.932 . S
C234 C235 1.386 . S
C234 C236 1.397 . S
C234 H258 0.931 . S
C235 C234 1.386 . S
C235 C239 1.397 . S
C236 C234 1.397 . S
C236 C237 1.384 . S
C236 H259 0.930 . S
C237 C236 1.384 . S
C237 C238 1.377 . S
C237 C240 1.481 . S
C238 C237 1.377 . S
C238 C239 1.389 . S
C238 H260 0.929 . S
C239 C235 1.397 . S
C239 C238 1.389 . S
C239 H261 0.931 . S
C240 C237 1.481 . S
C240 C241 1.387 . S
C240 C245 1.390 . S
C241 C240 1.387 . S
C241 C242 1.401 . S
C241 H262 0.930 . S
C242 C241 1.401 . S
C242 C243 1.376 1_554 S
C242 C251 1.511 . S
C243 C242 1.376 1_556 S
C243 C244 1.392 . S
C243 H264 0.931 . S
C244 C243 1.392 . S
C244 C245 1.361 1_556 S
C244 C246 1.500 . S
C245 C240 1.390 . S
C245 C244 1.361 1_554 S
C245 H263 0.931 . S
C246 C244 1.500 . S
C246 C247 1.371 . S
C246 C248 1.365 . S
C247 C246 1.371 . S
C247 C257 1.386 . S
C247 H265 0.931 . S
C248 C246 1.365 . S
C248 C249 1.409 . S
C248 H266 0.929 . S
C249 C248 1.409 . S
C249 C250 1.380 . S
C249 H267 0.930 . S
C250 C249 1.380 . S
C250 C257 1.357 . S
C251 C242 1.511 . S
C251 C252 1.341 . S
C251 C253 1.371 . S
C252 C251 1.341 . S
C252 C256 1.394 . S
C252 H268 0.930 . S
C253 C251 1.371 . S
C253 C254 1.392 . S
C253 H269 0.931 1_554 S
C254 C253 1.392 . S
C254 C255 1.331 . S
C254 H272 0.932 . S
C255 C254 1.331 . S
C255 C256 1.336 . S
C256 C252 1.394 . S
C256 C255 1.336 . S
C256 H271 0.929 . S
C257 C247 1.386 . S
C257 C250 1.357 . S
C257 H270 0.928 . S
H258 C234 0.931 . S
H259 C236 0.930 . S
H260 C238 0.929 . S
H261 C239 0.931 . S
H262 C241 0.930 . S
H263 C245 0.931 . S
H264 C243 0.931 . S
H265 C247 0.931 . S
H266 C248 0.929 . S
H267 C249 0.930 . S
H268 C252 0.930 . S
H269 C253 0.931 1_556 S
H270 C257 0.928 . S
H271 C256 0.929 . S
H272 C254 0.932 . S
C273 C274 1.386 . S
C273 C275 1.397 . S
C273 H297 0.931 . S
C274 C273 1.386 . S
C274 C278 1.397 . S
C275 C273 1.397 . S
C275 C276 1.384 . S
C275 H298 0.930 . S
C276 C275 1.384 . S
C276 C277 1.377 . S
C276 C279 1.481 . S
C277 C276 1.377 . S
C277 C278 1.389 . S
C277 H299 0.929 . S
C278 C274 1.397 . S
C278 C277 1.389 . S
C278 H300 0.931 . S
C279 C276 1.481 . S
C279 C280 1.387 . S
C279 C284 1.390 1_556 S
C280 C279 1.387 . S
C280 C281 1.401 1_556 S
C280 H301 0.930 . S
C281 C280 1.401 1_554 S
C281 C282 1.376 . S
C281 C290 1.511 . S
C282 C281 1.376 . S
C282 C283 1.392 . S
C282 H303 0.931 . S
C283 C282 1.392 . S
C283 C284 1.361 . S
C283 C285 1.500 . S
C284 C279 1.390 1_554 S
C284 C283 1.361 . S
C284 H302 0.931 . S
C285 C283 1.500 . S
C285 C286 1.371 . S
C285 C287 1.365 . S
C286 C285 1.371 . S
C286 C296 1.386 . S
C286 H304 0.931 . S
C287 C285 1.365 . S
C287 C288 1.409 . S
C287 H305 0.929 . S
C288 C287 1.409 . S
C288 C289 1.380 . S
C288 H306 0.930 . S
C289 C288 1.380 . S
C289 C296 1.357 . S
C290 C281 1.511 . S
C290 C291 1.341 . S
C290 C292 1.371 . S
C291 C290 1.341 . S
C291 C295 1.394 . S
C291 H307 0.930 1_554 S
C292 C290 1.371 . S
C292 C293 1.392 . S
C292 H308 0.931 . S
C293 C292 1.392 . S
C293 C294 1.331 . S
C293 H311 0.932 . S
C294 C293 1.331 . S
C294 C295 1.336 . S
C295 C291 1.394 . S
C295 C294 1.336 . S
C295 H310 0.929 . S
C296 C286 1.386 . S
C296 C289 1.357 . S
C296 H309 0.928 . S
H297 C273 0.931 . S
H298 C275 0.930 . S
H299 C277 0.929 . S
H300 C278 0.931 . S
H301 C280 0.930 . S
H302 C284 0.931 . S
H303 C282 0.931 . S
H304 C286 0.931 . S
H305 C287 0.929 . S
H306 C288 0.930 . S
H307 C291 0.930 1_556 S
H308 C292 0.931 . S
H309 C296 0.928 . S
H310 C295 0.929 . S
H311 C293 0.932 . S
C312 C314 1.422 . S
C312 C316 1.415 . S
C312 N318 1.369 1_545 S
C313 C314 1.421 . S
C313 C315 1.417 . S
C313 C325 1.422 . S
C314 C312 1.422 . S
C314 C313 1.421 . S
C314 N324 1.359 . S
C315 C313 1.417 . S
C315 C317 1.329 . S
C315 H334 0.930 . S
C316 C312 1.415 . S
C316 C317 1.437 . S
C316 C320 1.413 . S
C317 C315 1.329 . S
C317 C316 1.437 . S
C317 H339 0.929 . S
N318 C312 1.369 1_565 S
N318 C319 1.338 . S
N318 Gd323 2.622 . S
C319 N318 1.338 . S
C319 C321 1.378 1_565 S
C319 H331 0.929 . S
C320 C316 1.413 . S
C320 C321 1.348 . S
C320 H336 0.931 . S
C321 C319 1.378 1_545 S
C321 C320 1.348 . S
C321 H337 0.930 . S
Gd322 N342 2.622 . S
Gd322 N349 2.570 . S
Gd322 O356 2.353 1_655 S
Gd322 O357 2.447 1_655 S
Gd322 O358 2.427 . S
Gd322 O360 2.388 . S
Gd322 O361 2.386 1_545 S
Gd322 O365 2.307 1_655 S
Gd322 C375 2.805 . S
Gd323 N318 2.622 . S
Gd323 N324 2.570 1_565 S
Gd323 O355 2.386 1_565 S
Gd323 O359 2.300 1_465 S
Gd323 O362 2.353 . S
Gd323 O363 2.468 . S
Gd323 O364 2.427 . S
Gd323 O366 2.388 . S
Gd323 C387 2.805 . S
N324 C314 1.359 . S
N324 Gd323 2.570 1_545 S
N324 C326 1.343 . S
C325 C313 1.422 . S
C325 C327 1.321 . S
C325 H333 0.931 . S
C326 N324 1.343 . S
C326 C327 1.390 . S
C326 H328 0.888 1_445 S
C327 C325 1.321 . S
C327 C326 1.390 . S
C327 H329 0.930 . S
H328 C326 0.888 1_665 S
H329 C327 0.930 . S
H330 C353 0.969 . S
H331 C319 0.929 . S
H332 C354 0.922 1_455 S
H333 C325 0.931 . S
H334 C315 0.930 . S
H335 C344 0.929 . S
H336 C320 0.931 . S
H337 C321 0.930 . S
H338 C376 0.930 . S
H339 C317 0.929 . S
H340 C345 0.936 . S
H341 C346 0.930 . S
N342 Gd322 2.622 . S
N342 C343 1.369 . S
N342 C344 1.338 . S
C343 N342 1.369 . S
C343 C347 1.415 1_545 S
C343 C350 1.422 . S
C344 H335 0.929 . S
C344 N342 1.338 . S
C344 C346 1.378 . S
C345 H340 0.936 . S
C345 C346 1.341 1_565 S
C345 C347 1.414 . S
C346 H341 0.930 . S
C346 C344 1.378 . S
C346 C345 1.341 1_545 S
C347 C343 1.415 1_565 S
C347 C345 1.414 . S
C347 C377 1.437 . S
H348 C377 0.929 . S
N349 Gd322 2.570 . S
N349 C350 1.359 . S
N349 C353 1.310 1_655 S
C350 C343 1.422 . S
C350 N349 1.359 . S
C350 C352 1.421 1_545 S
C351 C352 1.422 . S
C351 C354 1.353 . S
C351 H378 0.931 . S
C352 C350 1.421 1_565 S
C352 C351 1.422 . S
C352 C376 1.417 . S
C353 H330 0.969 . S
C353 N349 1.310 1_455 S
C353 C354 1.367 1_445 S
C354 H332 0.922 1_655 S
C354 C351 1.353 . S
C354 C353 1.367 1_665 S
O355 Gd323 2.386 1_545 S
O355 C367 1.265 . S
O356 Gd322 2.353 1_455 S
O356 C367 1.242 . S
O357 Gd322 2.447 1_455 S
O357 C375 1.212 1_455 S
O358 Gd322 2.427 . S
O358 C375 1.252 . S
O359 Gd323 2.300 1_645 S
O359 C368 1.267 . S
O360 Gd322 2.388 . S
O360 C368 1.252 . S
O361 Gd322 2.386 1_565 S
O361 C379 1.265 . S
O362 Gd323 2.353 . S
O362 C379 1.242 1_455 S
O363 Gd323 2.468 . S
O363 C387 1.263 . S
O364 Gd323 2.427 . S
O364 C387 1.252 . S
O365 Gd322 2.307 1_455 S
O365 C380 1.261 . S
O366 Gd323 2.388 . S
O366 C380 1.252 1_565 S
C367 O355 1.265 . S
C367 O356 1.242 . S
C368 O359 1.267 . S
C368 O360 1.252 . S
C369 C372 1.394 . S
C369 C374 1.394 . S
C369 C375 1.500 . S
C370 C373 1.383 . S
C370 C374 1.399 . S
C371 C372 1.396 . S
C371 C373 1.365 . S
C371 H388 0.929 . S
C372 C369 1.394 . S
C372 C371 1.396 . S
C372 H389 0.930 . S
C373 C370 1.383 . S
C373 C371 1.365 . S
C373 H390 0.931 . S
C374 C369 1.394 . S
C374 C370 1.399 . S
C374 H391 0.903 1_655 S
C375 Gd322 2.805 . S
C375 O357 1.212 1_655 S
C375 O358 1.252 . S
C375 C369 1.500 . S
C376 H338 0.930 . S
C376 C352 1.417 . S
C376 C377 1.329 . S
C377 C347 1.437 . S
C377 H348 0.929 . S
C377 C376 1.329 . S
H378 C351 0.931 . S
C379 O361 1.265 . S
C379 O362 1.242 1_655 S
C380 O365 1.261 . S
C380 O366 1.252 1_545 S
C381 C384 1.394 . S
C381 C386 1.370 . S
C381 C387 1.500 . S
C382 C385 1.383 . S
C382 C386 1.395 . S
C383 C384 1.396 . S
C383 C385 1.365 . S
C383 H392 0.929 . S
C384 C381 1.394 . S
C384 C383 1.396 . S
C384 H393 0.930 . S
C385 C382 1.383 . S
C385 C383 1.365 . S
C385 H394 0.931 . S
C386 C381 1.370 . S
C386 C382 1.395 . S
C386 H395 0.986 . S
C387 Gd323 2.805 . S
C387 O363 1.263 . S
C387 O364 1.252 . S
C387 C381 1.500 . S
H388 C371 0.929 . S
H389 C372 0.930 . S
H390 C373 0.931 . S
H391 C374 0.903 1_455 S
H392 C383 0.929 . S
H393 C384 0.930 . S
H394 C385 0.931 . S
H395 C386 0.986 . S
C396 C398 1.422 . S
C396 C400 1.415 . S
C396 N402 1.369 . S
C397 C398 1.421 . S
C397 C399 1.417 . S
C397 C409 1.422 . S
C398 C396 1.422 . S
C398 C397 1.421 . S
C398 N408 1.359 . S
C399 C397 1.417 . S
C399 C401 1.329 . S
C399 H418 0.930 . S
C400 C396 1.415 . S
C400 C401 1.437 . S
C400 C404 1.413 . S
C401 C399 1.329 . S
C401 C400 1.437 . S
C401 H423 0.929 . S
N402 C396 1.369 . S
N402 C403 1.338 . S
N402 Gd407 2.622 . S
C403 N402 1.338 . S
C403 C405 1.378 . S
C403 H415 0.929 . S
C404 C400 1.413 . S
C404 C405 1.348 . S
C404 H420 0.931 . S
C405 C403 1.378 . S
C405 C404 1.348 . S
C405 H421 0.930 . S
Gd406 N426 2.622 . S
Gd406 N433 2.570 . S
Gd406 O440 2.353 1_545 S
Gd406 O441 2.468 . S
Gd406 O442 2.427 . S
Gd406 O444 2.388 . S
Gd406 O445 2.386 . S
Gd406 O449 2.307 . S
Gd406 C459 2.805 . S
Gd407 N402 2.622 . S
Gd407 N408 2.570 . S
Gd407 O439 2.386 . S
Gd407 O443 2.307 1_565 S
Gd407 O446 2.353 1_565 S
Gd407 O447 2.468 . S
Gd407 O448 2.427 . S
Gd407 O450 2.388 . S
Gd407 C471 2.805 . S
N408 C398 1.359 . S
N408 Gd407 2.570 . S
N408 C410 1.343 . S
C409 C397 1.422 . S
C409 C411 1.321 . S
C409 H417 0.931 . S
C410 N408 1.343 . S
C410 C411 1.390 . S
C410 H412 0.931 . S
C411 C409 1.321 . S
C411 C410 1.390 . S
C411 H413 0.930 . S
H412 C410 0.931 . S
H413 C411 0.930 . S
H414 C437 0.931 . S
H415 C403 0.929 . S
H416 C438 0.930 . S
H417 C409 0.931 . S
H418 C399 0.930 . S
H419 C428 0.929 . S
H420 C404 0.931 . S
H421 C405 0.930 . S
H422 C460 0.930 . S
H423 C401 0.929 . S
H424 C429 0.931 . S
H425 C430 0.930 . S
N426 Gd406 2.622 . S
N426 C427 1.369 . S
N426 C428 1.338 . S
C427 N426 1.369 . S
C427 C431 1.415 . S
C427 C434 1.422 . S
C428 H419 0.929 . S
C428 N426 1.338 . S
C428 C430 1.378 . S
C429 H424 0.931 . S
C429 C430 1.348 . S
C429 C431 1.413 . S
C430 H425 0.930 . S
C430 C428 1.378 . S
C430 C429 1.348 . S
C431 C427 1.415 . S
C431 C429 1.413 . S
C431 C461 1.437 . S
H432 C461 0.929 . S
N433 Gd406 2.570 . S
N433 C434 1.359 . S
N433 C437 1.343 . S
C434 C427 1.422 . S
C434 N433 1.359 . S
C434 C436 1.421 . S
C435 C436 1.422 . S
C435 C438 1.321 . S
C435 H462 0.931 . S
C436 C434 1.421 . S
C436 C435 1.422 . S
C436 C460 1.417 . S
C437 H414 0.931 . S
C437 N433 1.343 . S
C437 C438 1.390 . S
C438 H416 0.930 . S
C438 C435 1.321 . S
C438 C437 1.390 . S
O439 Gd407 2.386 . S
O439 C451 1.265 . S
O440 Gd406 2.353 1_565 S
O440 C451 1.242 . S
O441 Gd406 2.468 . S
O441 C459 1.263 . S
O442 Gd406 2.427 . S
O442 C459 1.252 . S
O443 Gd407 2.307 1_545 S
O443 C452 1.261 . S
O444 Gd406 2.388 . S
O444 C452 1.252 . S
O445 Gd406 2.386 . S
O445 C463 1.265 . S
O446 Gd407 2.353 1_545 S
O446 C463 1.242 . S
O447 Gd407 2.468 . S
O447 C471 1.263 . S
O448 Gd407 2.427 . S
O448 C471 1.252 . S
O449 Gd406 2.307 . S
O449 C464 1.261 1_545 S
O450 Gd407 2.388 . S
O450 C464 1.252 . S
C451 O439 1.265 . S
C451 O440 1.242 . S
C452 O443 1.261 . S
C452 O444 1.252 . S
C453 C456 1.394 . S
C453 C458 1.370 . S
C453 C459 1.500 . S
C454 C457 1.383 . S
C454 C458 1.395 . S
C455 C456 1.396 . S
C455 C457 1.365 . S
C455 H472 0.929 . S
C456 C453 1.394 . S
C456 C455 1.396 . S
C456 H473 0.930 . S
C457 C454 1.383 . S
C457 C455 1.365 . S
C457 H474 0.931 . S
C458 C453 1.370 . S
C458 C454 1.395 . S
C458 H475 0.930 . S
C459 Gd406 2.805 . S
C459 O441 1.263 . S
C459 O442 1.252 . S
C459 C453 1.500 . S
C460 H422 0.930 . S
C460 C436 1.417 . S
C460 C461 1.329 . S
C461 C431 1.437 . S
C461 H432 0.929 . S
C461 C460 1.329 . S
H462 C435 0.931 . S
C463 O445 1.265 . S
C463 O446 1.242 . S
C464 O449 1.261 1_565 S
C464 O450 1.252 . S
C465 C468 1.394 . S
C465 C470 1.370 1_565 S
C465 C471 1.500 . S
C466 C469 1.383 1_545 S
C466 C470 1.395 . S
C467 C468 1.396 . S
C467 C469 1.365 . S
C467 H476 0.929 . S
C468 C465 1.394 . S
C468 C467 1.396 . S
C468 H477 0.930 . S
C469 C466 1.383 1_565 S
C469 C467 1.365 . S
C469 H478 0.931 . S
C470 C465 1.370 1_545 S
C470 C466 1.395 . S
C470 H479 0.930 . S
C471 Gd407 2.805 . S
C471 O447 1.263 . S
C471 O448 1.252 . S
C471 C465 1.500 . S
H472 C455 0.929 . S
H473 C456 0.930 . S
H474 C457 0.931 . S
H475 C458 0.930 . S
H476 C467 0.929 . S
H477 C468 0.930 . S
H478 C469 0.931 . S
H479 C470 0.930 . S
C480 C482 1.422 . S
C480 C484 1.415 . S
C480 N486 1.369 . S
C481 C482 1.421 . S
C481 C483 1.417 . S
C481 C493 1.422 . S
C482 C480 1.422 . S
C482 C481 1.421 . S
C482 N492 1.359 . S
C483 C481 1.417 . S
C483 C485 1.329 . S
C483 H502 0.930 . S
C484 C480 1.415 . S
C484 C485 1.437 . S
C484 C488 1.413 . S
C485 C483 1.329 . S
C485 C484 1.437 . S
C485 H507 0.929 . S
N486 C480 1.369 . S
N486 C487 1.338 . S
N486 Gd491 2.622 . S
C487 N486 1.338 . S
C487 C489 1.378 . S
C487 H499 0.929 . S
C488 C484 1.413 . S
C488 C489 1.348 . S
C488 H504 0.931 . S
C489 C487 1.378 . S
C489 C488 1.348 . S
C489 H505 0.930 . S
Gd490 N510 2.622 . S
Gd490 N517 2.570 . S
Gd490 O524 2.353 . S
Gd490 O525 2.468 . S
Gd490 O526 2.427 . S
Gd490 O528 2.388 . S
Gd490 O529 2.386 . S
Gd490 O533 2.307 . S
Gd490 C543 2.805 . S
Gd491 N486 2.622 . S
Gd491 N492 2.570 . S
Gd491 O523 2.386 . S
Gd491 O527 2.307 . S
Gd491 O530 2.353 . S
Gd491 O531 2.468 . S
Gd491 O532 2.427 . S
Gd491 O534 2.388 . S
Gd491 C555 2.805 . S
N492 C482 1.359 . S
N492 Gd491 2.570 . S
N492 C494 1.343 . S
C493 C481 1.422 . S
C493 C495 1.321 . S
C493 H501 0.931 . S
C494 N492 1.343 . S
C494 C495 1.390 . S
C494 H496 0.931 . S
C495 C493 1.321 . S
C495 C494 1.390 . S
C495 H497 0.930 . S
H496 C494 0.931 . S
H497 C495 0.930 . S
H498 C521 0.931 . S
H499 C487 0.929 . S
H500 C522 0.930 . S
H501 C493 0.931 . S
H502 C483 0.930 . S
H503 C512 0.929 . S
H504 C488 0.931 . S
H505 C489 0.930 . S
H506 C544 0.930 . S
H507 C485 0.929 . S
H508 C513 0.931 . S
H509 C514 0.930 . S
N510 Gd490 2.622 . S
N510 C511 1.369 . S
N510 C512 1.338 . S
C511 N510 1.369 . S
C511 C515 1.415 . S
C511 C518 1.422 . S
C512 H503 0.929 . S
C512 N510 1.338 . S
C512 C514 1.378 . S
C513 H508 0.931 . S
C513 C514 1.348 . S
C513 C515 1.413 . S
C514 H509 0.930 . S
C514 C512 1.378 . S
C514 C513 1.348 . S
C515 C511 1.415 . S
C515 C513 1.413 . S
C515 C545 1.437 . S
H516 C545 0.929 . S
N517 Gd490 2.570 . S
N517 C518 1.359 . S
N517 C521 1.343 . S
C518 C511 1.422 . S
C518 N517 1.359 . S
C518 C520 1.421 . S
C519 C520 1.422 . S
C519 C522 1.321 . S
C519 H546 0.931 . S
C520 C518 1.421 . S
C520 C519 1.422 . S
C520 C544 1.417 . S
C521 H498 0.931 . S
C521 N517 1.343 . S
C521 C522 1.390 . S
C522 H500 0.930 . S
C522 C519 1.321 . S
C522 C521 1.390 . S
O523 Gd491 2.386 . S
O523 C535 1.265 . S
O524 Gd490 2.353 . S
O524 C535 1.242 . S
O525 Gd490 2.468 . S
O525 C543 1.263 . S
O526 Gd490 2.427 . S
O526 C543 1.252 . S
O527 Gd491 2.307 . S
O527 C536 1.261 . S
O528 Gd490 2.388 . S
O528 C536 1.252 . S
O529 Gd490 2.386 . S
O529 C547 1.265 . S
O530 Gd491 2.353 . S
O530 C547 1.242 . S
O531 Gd491 2.468 . S
O531 C555 1.263 . S
O532 Gd491 2.427 . S
O532 C555 1.252 . S
O533 Gd490 2.307 . S
O533 C548 1.261 . S
O534 Gd491 2.388 . S
O534 C548 1.252 . S
C535 O523 1.265 . S
C535 O524 1.242 . S
C536 O527 1.261 . S
C536 O528 1.252 . S
C537 C540 1.394 . S
C537 C542 1.370 . S
C537 C543 1.500 . S
C538 C541 1.383 . S
C538 C542 1.395 . S
C539 C540 1.396 . S
C539 C541 1.365 . S
C539 H556 0.929 . S
C540 C537 1.394 . S
C540 C539 1.396 . S
C540 H557 0.930 . S
C541 C538 1.383 . S
C541 C539 1.365 . S
C541 H558 0.931 . S
C542 C537 1.370 . S
C542 C538 1.395 . S
C542 H559 0.930 . S
C543 Gd490 2.805 . S
C543 O525 1.263 . S
C543 O526 1.252 . S
C543 C537 1.500 . S
C544 H506 0.930 . S
C544 C520 1.417 . S
C544 C545 1.329 . S
C545 C515 1.437 . S
C545 H516 0.929 . S
C545 C544 1.329 . S
H546 C519 0.931 . S
C547 O529 1.265 . S
C547 O530 1.242 . S
C548 O533 1.261 . S
C548 O534 1.252 . S
C549 C552 1.394 . S
C549 C554 1.370 . S
C549 C555 1.500 . S
C550 C553 1.383 . S
C550 C554 1.395 . S
C551 C552 1.396 . S
C551 C553 1.365 . S
C551 H560 0.929 . S
C552 C549 1.394 . S
C552 C551 1.396 . S
C552 H561 0.930 . S
C553 C550 1.383 . S
C553 C551 1.365 . S
C553 H562 0.931 . S
C554 C549 1.370 . S
C554 C550 1.395 . S
C554 H563 0.930 . S
C555 Gd491 2.805 . S
C555 O531 1.263 . S
C555 O532 1.252 . S
C555 C549 1.500 . S
H556 C539 0.929 . S
H557 C540 0.930 . S
H558 C541 0.931 . S
H559 C542 0.930 . S
H560 C551 0.929 . S
H561 C552 0.930 . S
H562 C553 0.931 . S
H563 C554 0.930 . S
C564 C566 1.422 . S
C564 C568 1.415 . S
C564 N570 1.369 1_455 S
C565 C566 1.421 . S
C565 C567 1.417 . S
C565 C577 1.422 . S
C566 C564 1.422 . S
C566 C565 1.421 . S
C566 N576 1.359 . S
C567 C565 1.417 . S
C567 C569 1.329 . S
C567 H586 0.930 . S
C568 C564 1.415 . S
C568 C569 1.437 . S
C568 C572 1.413 . S
C569 C567 1.329 . S
C569 C568 1.437 . S
C569 H591 0.929 . S
N570 C564 1.369 1_655 S
N570 C571 1.338 . S
N570 Gd575 2.622 . S
C571 N570 1.338 . S
C571 C573 1.378 1_655 S
C571 H583 0.929 . S
C572 C568 1.413 . S
C572 C573 1.348 . S
C572 H588 0.931 . S
C573 C571 1.378 1_455 S
C573 C572 1.348 . S
C573 H589 0.929 . S
Gd574 N594 2.622 . S
Gd574 N601 2.570 . S
Gd574 O608 2.353 . S
Gd574 O609 2.468 . S
Gd574 O610 2.427 . S
Gd574 O612 2.388 . S
Gd574 O613 2.386 1_455 S
Gd574 O617 2.307 . S
Gd574 C627 2.805 . S
Gd575 N570 2.622 . S
Gd575 N576 2.570 1_655 S
Gd575 O607 2.386 1_655 S
Gd575 O611 2.293 1_655 S
Gd575 O614 2.353 . S
Gd575 O615 2.468 . S
Gd575 O616 2.427 . S
Gd575 O618 2.388 . S
Gd575 C639 2.805 . S
N576 C566 1.359 . S
N576 Gd575 2.570 1_455 S
N576 C578 1.343 . S
C577 C565 1.422 . S
C577 C579 1.321 . S
C577 H585 0.931 . S
C578 N576 1.343 . S
C578 C579 1.390 . S
C578 H580 0.918 1_455 S
C579 C577 1.321 . S
C579 C578 1.390 . S
C579 H581 0.930 . S
H580 C578 0.918 1_655 S
H581 C579 0.930 . S
H582 C605 0.931 . S
H583 C571 0.929 . S
H584 C606 0.931 . S
H585 C577 0.931 . S
H586 C567 0.930 . S
H587 C596 0.929 . S
H588 C572 0.931 . S
H589 C573 0.929 . S
H590 C628 0.930 . S
H591 C569 0.929 . S
H592 C597 0.931 1_655 S
H593 C598 0.930 . S
N594 Gd574 2.622 . S
N594 C595 1.369 . S
N594 C596 1.338 . S
C595 N594 1.369 . S
C595 C599 1.413 1_455 S
C595 C602 1.422 . S
C596 H587 0.929 . S
C596 N594 1.338 . S
C596 C598 1.378 . S
C597 H592 0.931 1_455 S
C597 C598 1.348 . S
C597 C599 1.412 1_455 S
C598 H593 0.930 . S
C598 C596 1.378 . S
C598 C597 1.348 . S
C599 C595 1.413 1_655 S
C599 C597 1.412 1_655 S
C599 C629 1.440 . S
H600 C629 0.929 . S
N601 Gd574 2.570 . S
N601 C602 1.359 . S
N601 C605 1.343 . S
C602 C595 1.422 . S
C602 N601 1.359 . S
C602 C604 1.421 1_455 S
C603 C604 1.422 . S
C603 C606 1.325 . S
C603 H630 0.931 . S
C604 C602 1.421 1_655 S
C604 C603 1.422 . S
C604 C628 1.417 . S
C605 H582 0.931 . S
C605 N601 1.343 . S
C605 C606 1.385 1_455 S
C606 H584 0.931 . S
C606 C603 1.325 . S
C606 C605 1.385 1_655 S
O607 Gd575 2.386 1_455 S
O607 C619 1.265 . S
O608 Gd574 2.353 . S
O608 C619 1.242 . S
O609 Gd574 2.468 . S
O609 C627 1.263 . S
O610 Gd574 2.427 . S
O610 C627 1.252 . S
O611 Gd575 2.293 1_455 S
O611 C620 1.273 . S
O612 Gd574 2.388 . S
O612 C620 1.252 . S
O613 Gd574 2.386 1_655 S
O613 C631 1.265 . S
O614 Gd575 2.353 . S
O614 C631 1.242 . S
O615 Gd575 2.468 . S
O615 C639 1.263 . S
O616 Gd575 2.427 . S
O616 C639 1.252 . S
O617 Gd574 2.307 . S
O617 C632 1.261 . S
O618 Gd575 2.388 . S
O618 C632 1.252 1_655 S
C619 O607 1.265 . S
C619 O608 1.242 . S
C620 O611 1.273 . S
C620 O612 1.252 . S
C621 C624 1.394 . S
C621 C626 1.370 . S
C621 C627 1.500 . S
C622 C625 1.383 . S
C622 C626 1.395 . S
C623 C624 1.396 . S
C623 C625 1.365 . S
C623 H640 0.929 . S
C624 C621 1.394 . S
C624 C623 1.396 . S
C624 H641 0.930 . S
C625 C622 1.383 . S
C625 C623 1.365 . S
C625 H642 0.931 . S
C626 C621 1.370 . S
C626 C622 1.395 . S
C626 H643 0.930 . S
C627 Gd574 2.805 . S
C627 O609 1.263 . S
C627 O610 1.252 . S
C627 C621 1.500 . S
C628 H590 0.930 . S
C628 C604 1.417 . S
C628 C629 1.329 . S
C629 C599 1.440 . S
C629 H600 0.929 . S
C629 C628 1.329 . S
H630 C603 0.931 . S
C631 O613 1.265 . S
C631 O614 1.242 . S
C632 O617 1.261 . S
C632 O618 1.252 1_455 S
C633 C636 1.394 . S
C633 C638 1.370 . S
C633 C639 1.500 . S
C634 C637 1.383 . S
C634 C638 1.395 . S
C635 C636 1.396 . S
C635 C637 1.365 . S
C635 H644 0.929 . S
C636 C633 1.394 . S
C636 C635 1.396 . S
C636 H645 0.930 . S
C637 C634 1.383 . S
C637 C635 1.365 . S
C637 H646 0.931 . S
C638 C633 1.370 . S
C638 C634 1.395 . S
C638 H647 0.930 . S
C639 Gd575 2.805 . S
C639 O615 1.263 . S
C639 O616 1.252 . S
C639 C633 1.500 . S
H640 C623 0.929 . S
H641 C624 0.930 . S
H642 C625 0.931 . S
H643 C626 0.930 . S
H644 C635 0.929 . S
H645 C636 0.930 . S
H646 C637 0.931 . S
H647 C638 0.930 . S
H648 C666 0.951 . S
H649 C668 0.951 . S
H650 C670 0.950 . S
H651 C671 0.950 . S
H652 C673 0.950 . S
H653 C676 0.950 . S
H654 C677 0.950 . S
H655 C679 0.950 . S
H656 C680 0.950 . S
H657 C681 0.951 . S
H658 C683 0.951 . S
H659 C685 0.950 1_565 S
H660 C686 0.896 1_565 S
H661 C688 0.950 . S
H662 C691 0.950 . S
H663 C692 0.950 . S
H664 C694 0.950 . S
H665 C695 0.950 . S
C666 H648 0.951 . S
C666 C667 1.366 . S
C666 C668 1.388 . S
C667 C666 1.366 . S
C667 C671 1.385 . S
C668 H649 0.951 . S
C668 C666 1.388 . S
C668 C669 1.366 . S
C669 C668 1.366 . S
C669 C670 1.414 . S
C669 C672 1.499 . S
C670 H650 0.950 . S
C670 C669 1.414 . S
C670 C671 1.374 . S
C671 H651 0.950 . S
C671 C667 1.385 . S
C671 C670 1.374 . S
C672 C669 1.499 . S
C672 C673 1.373 . S
C672 C674 1.389 . S
C673 H652 0.950 . S
C673 C672 1.373 . S
C673 C689 1.377 . S
C674 C672 1.389 . S
C674 C675 1.524 . S
C674 C688 1.377 . S
C675 C674 1.524 . S
C675 C676 1.397 . S
C675 C680 1.363 1_545 S
C676 H653 0.950 . S
C676 C675 1.397 . S
C676 C677 1.334 . S
C677 H654 0.950 . S
C677 C676 1.334 . S
C677 C678 1.287 1_545 S
C678 C677 1.287 1_565 S
C678 C679 1.524 . S
C678 H697 0.913 . S
C679 H655 0.950 . S
C679 C678 1.524 . S
C679 C680 1.415 . S
C680 H656 0.950 . S
C680 C675 1.363 1_565 S
C680 C679 1.415 . S
C681 H657 0.951 . S
C681 C682 1.366 . S
C681 C683 1.388 . S
C682 C681 1.366 . S
C682 C686 1.428 . S
C683 H658 0.951 . S
C683 C681 1.388 . S
C683 C684 1.366 . S
C684 C683 1.366 . S
C684 C685 1.414 . S
C684 C687 1.499 . S
C685 H659 0.950 1_545 S
C685 C684 1.414 . S
C685 C686 1.385 . S
C686 H660 0.896 1_545 S
C686 C682 1.428 . S
C686 C685 1.385 . S
C687 C684 1.499 . S
C687 C688 1.373 . S
C687 C689 1.389 . S
C688 H661 0.950 . S
C688 C674 1.377 . S
C688 C687 1.373 . S
C689 C673 1.377 . S
C689 C687 1.389 . S
C689 C690 1.524 . S
C690 C689 1.524 . S
C690 C691 1.397 . S
C690 C695 1.363 . S
C691 H662 0.950 . S
C691 C690 1.397 . S
C691 C692 1.334 . S
C692 H663 0.950 . S
C692 C691 1.334 . S
C692 C693 1.287 . S
C693 C692 1.287 . S
C693 C694 1.524 . S
C693 H696 0.999 . S
C694 H664 0.950 . S
C694 C693 1.524 . S
C694 C695 1.415 . S
C695 H665 0.950 . S
C695 C690 1.363 . S
C695 C694 1.415 . S
H696 C693 0.999 . S
H697 C678 0.913 . S
H698 C716 0.951 . S
H699 C718 0.951 . S
H700 C720 0.950 . S
H701 C721 0.950 . S
H702 C723 0.950 . S
H703 C726 0.950 . S
H704 C727 0.950 . S
H705 C729 0.950 . S
H706 C730 0.950 . S
H707 C731 0.951 . S
H708 C733 0.951 . S
H709 C735 0.950 . S
H710 C736 0.950 . S
H711 C738 0.950 . S
H712 C741 0.950 . S
H713 C742 0.950 . S
H714 C744 0.950 . S
H715 C745 0.950 . S
C716 H698 0.951 . S
C716 C717 1.366 . S
C716 C718 1.388 . S
C717 C716 1.366 . S
C717 C721 1.385 . S
C718 H699 0.951 . S
C718 C716 1.388 . S
C718 C719 1.366 . S
C719 C718 1.366 . S
C719 C720 1.414 . S
C719 C722 1.499 . S
C720 H700 0.950 . S
C720 C719 1.414 . S
C720 C721 1.374 . S
C721 H701 0.950 . S
C721 C717 1.385 . S
C721 C720 1.374 . S
C722 C719 1.499 . S
C722 C723 1.373 . S
C722 C724 1.389 . S
C723 H702 0.950 . S
C723 C722 1.373 . S
C723 C739 1.377 . S
C724 C722 1.389 . S
C724 C725 1.524 . S
C724 C738 1.377 . S
C725 C724 1.524 . S
C725 C726 1.397 . S
C725 C730 1.363 . S
C726 H703 0.950 . S
C726 C725 1.397 . S
C726 C727 1.334 . S
C727 H704 0.950 . S
C727 C726 1.334 . S
C727 C728 1.287 . S
C728 C727 1.287 . S
C728 C729 1.524 . S
C728 H747 0.913 . S
C729 H705 0.950 . S
C729 C728 1.524 . S
C729 C730 1.415 . S
C730 H706 0.950 . S
C730 C725 1.363 . S
C730 C729 1.415 . S
C731 H707 0.951 . S
C731 C732 1.366 . S
C731 C733 1.388 . S
C732 C731 1.366 . S
C732 C736 1.385 . S
C733 H708 0.951 . S
C733 C731 1.388 . S
C733 C734 1.366 . S
C734 C733 1.366 . S
C734 C735 1.414 . S
C734 C737 1.499 . S
C735 H709 0.950 . S
C735 C734 1.414 . S
C735 C736 1.374 . S
C736 H710 0.950 . S
C736 C732 1.385 . S
C736 C735 1.374 . S
C737 C734 1.499 . S
C737 C738 1.373 . S
C737 C739 1.389 . S
C738 H711 0.950 . S
C738 C724 1.377 . S
C738 C737 1.373 . S
C739 C723 1.377 . S
C739 C737 1.389 . S
C739 C740 1.524 . S
C740 C739 1.524 . S
C740 C741 1.397 . S
C740 C745 1.363 . S
C741 H712 0.950 . S
C741 C740 1.397 . S
C741 C742 1.334 . S
C742 H713 0.950 . S
C742 C741 1.334 . S
C742 C743 1.287 . S
C743 C742 1.287 . S
C743 C744 1.524 . S
C743 H746 0.999 . S
C744 H714 0.950 . S
C744 C743 1.524 . S
C744 C745 1.415 . S
C745 H715 0.950 . S
C745 C740 1.363 . S
C745 C744 1.415 . S
H746 C743 0.999 . S
H747 C728 0.913 . S
H748 C766 0.951 . S
H749 C768 0.951 . S
H750 C770 0.950 . S
H751 C771 0.950 . S
H752 C773 0.950 . S
H753 C776 0.950 . S
H754 C777 0.950 . S
H755 C779 0.950 . S
H756 C780 0.950 . S
H757 C781 0.951 . S
H758 C783 0.951 . S
H759 C785 0.950 . S
H760 C786 0.950 . S
H761 C788 0.950 . S
H762 C791 0.950 . S
H763 C792 0.950 . S
H764 C794 0.950 . S
H765 C795 0.950 . S
C766 H748 0.951 . S
C766 C767 1.366 . S
C766 C768 1.388 . S
C767 C766 1.366 . S
C767 C771 1.385 . S
C768 H749 0.951 . S
C768 C766 1.388 . S
C768 C769 1.366 . S
C769 C768 1.366 . S
C769 C770 1.414 . S
C769 C772 1.499 . S
C770 H750 0.950 . S
C770 C769 1.414 . S
C770 C771 1.374 . S
C771 H751 0.950 . S
C771 C767 1.385 . S
C771 C770 1.374 . S
C772 C769 1.499 . S
C772 C773 1.373 . S
C772 C774 1.389 . S
C773 H752 0.950 . S
C773 C772 1.373 . S
C773 C789 1.377 . S
C774 C772 1.389 . S
C774 C775 1.524 . S
C774 C788 1.377 . S
C775 C774 1.524 . S
C775 C776 1.397 . S
C775 C780 1.363 . S
C776 H753 0.950 . S
C776 C775 1.397 . S
C776 C777 1.334 . S
C777 H754 0.950 . S
C777 C776 1.334 . S
C777 C778 1.287 . S
C778 C777 1.287 . S
C778 C779 1.524 . S
C778 H797 0.913 . S
C779 H755 0.950 . S
C779 C778 1.524 . S
C779 C780 1.415 . S
C780 H756 0.950 . S
C780 C775 1.363 . S
C780 C779 1.415 . S
C781 H757 0.951 . S
C781 C782 1.366 . S
C781 C783 1.388 . S
C782 C781 1.366 . S
C782 C786 1.385 . S
C783 H758 0.951 . S
C783 C781 1.388 . S
C783 C784 1.366 . S
C784 C783 1.366 . S
C784 C785 1.414 . S
C784 C787 1.499 . S
C785 H759 0.950 . S
C785 C784 1.414 . S
C785 C786 1.374 . S
C786 H760 0.950 . S
C786 C782 1.385 . S
C786 C785 1.374 . S
C787 C784 1.499 . S
C787 C788 1.373 . S
C787 C789 1.389 . S
C788 H761 0.950 . S
C788 C774 1.377 . S
C788 C787 1.373 . S
C789 C773 1.377 . S
C789 C787 1.389 . S
C789 C790 1.524 . S
C790 C789 1.524 . S
C790 C791 1.397 . S
C790 C795 1.363 . S
C791 H762 0.950 . S
C791 C790 1.397 . S
C791 C792 1.334 . S
C792 H763 0.950 . S
C792 C791 1.334 . S
C792 C793 1.287 . S
C793 C792 1.287 . S
C793 C794 1.524 . S
C793 H796 0.999 . S
C794 H764 0.950 . S
C794 C793 1.524 . S
C794 C795 1.415 . S
C795 H765 0.950 . S
C795 C790 1.363 . S
C795 C794 1.415 . S
H796 C793 0.999 . S
H797 C778 0.913 . S
H798 C816 0.951 . S
H799 C818 0.951 . S
H800 C820 0.950 . S
H801 C821 0.950 . S
H802 C823 0.950 . S
H803 C826 0.950 . S
H804 C827 0.950 . S
H805 C829 0.950 . S
H806 C830 0.950 . S
H807 C831 0.951 1_655 S
H808 C833 0.951 . S
H809 C835 0.950 . S
H810 C836 0.950 . S
H811 C838 0.950 . S
H812 C841 0.950 . S
H813 C842 0.950 . S
H814 C844 0.950 . S
H815 C845 0.950 . S
C816 H798 0.951 . S
C816 C817 1.366 . S
C816 C818 1.388 . S
C817 C816 1.366 . S
C817 C821 1.385 . S
C818 H799 0.951 . S
C818 C816 1.388 . S
C818 C819 1.366 . S
C819 C818 1.366 . S
C819 C820 1.414 . S
C819 C822 1.499 . S
C820 H800 0.950 . S
C820 C819 1.414 . S
C820 C821 1.374 . S
C821 H801 0.950 . S
C821 C817 1.385 . S
C821 C820 1.374 . S
C822 C819 1.499 . S
C822 C823 1.373 . S
C822 C824 1.389 . S
C823 H802 0.950 . S
C823 C822 1.373 . S
C823 C839 1.377 . S
C824 C822 1.389 . S
C824 C825 1.524 . S
C824 C838 1.377 . S
C825 C824 1.524 . S
C825 C826 1.397 . S
C825 C830 1.363 . S
C826 H803 0.950 . S
C826 C825 1.397 . S
C826 C827 1.334 . S
C827 H804 0.950 . S
C827 C826 1.334 . S
C827 C828 1.287 . S
C828 C827 1.287 . S
C828 C829 1.524 . S
C828 H847 0.913 . S
C829 H805 0.950 . S
C829 C828 1.524 . S
C829 C830 1.415 . S
C830 H806 0.950 . S
C830 C825 1.363 . S
C830 C829 1.415 . S
C831 H807 0.951 1_455 S
C831 C832 1.366 . S
C831 C833 1.388 . S
C832 C831 1.366 . S
C832 C836 1.385 . S
C833 H808 0.951 . S
C833 C831 1.388 . S
C833 C834 1.366 . S
C834 C833 1.366 . S
C834 C835 1.414 . S
C834 C837 1.499 . S
C835 H809 0.950 . S
C835 C834 1.414 . S
C835 C836 1.374 . S
C836 H810 0.950 . S
C836 C832 1.385 . S
C836 C835 1.374 . S
C837 C834 1.499 . S
C837 C838 1.373 . S
C837 C839 1.389 . S
C838 H811 0.950 . S
C838 C824 1.377 . S
C838 C837 1.373 . S
C839 C823 1.377 . S
C839 C837 1.389 . S
C839 C840 1.524 1_455 S
C840 C839 1.524 1_655 S
C840 C841 1.397 . S
C840 C845 1.363 . S
C841 H812 0.950 . S
C841 C840 1.397 . S
C841 C842 1.334 . S
C842 H813 0.950 . S
C842 C841 1.334 . S
C842 C843 1.287 . S
C843 C842 1.287 . S
C843 C844 1.524 . S
C843 H846 0.999 . S
C844 H814 0.950 . S
C844 C843 1.524 . S
C844 C845 1.415 . S
C845 H815 0.950 . S
C845 C840 1.363 . S
C845 C844 1.415 . S
H846 C843 0.999 . S
H847 C828 0.913 . S
H848 C866 0.951 . S
H849 C868 0.951 . S
H850 C870 0.950 . S
H851 C871 0.950 . S
H852 C873 0.950 . S
H853 C876 0.950 1_556 S
H854 C877 0.950 . S
H855 C879 0.950 . S
H856 C880 0.950 1_556 S
H857 C881 0.951 1_545 S
H858 C883 0.951 . S
H859 C885 0.950 . S
H860 C886 0.950 . S
H861 C888 0.950 . S
H862 C891 0.950 . S
H863 C892 0.950 . S
H864 C894 0.950 . S
H865 C895 0.950 . S
C866 H848 0.951 . S
C866 C867 1.366 . S
C866 C868 1.388 . S
C867 C866 1.366 . S
C867 C871 1.385 . S
C868 H849 0.951 . S
C868 C866 1.388 . S
C868 C869 1.366 1_554 S
C869 C868 1.366 1_556 S
C869 C870 1.414 . S
C869 C872 1.499 . S
C870 H850 0.950 . S
C870 C869 1.414 . S
C870 C871 1.374 1_556 S
C871 H851 0.950 . S
C871 C867 1.385 . S
C871 C870 1.374 1_554 S
C872 C869 1.499 . S
C872 C873 1.373 . S
C872 C874 1.389 . S
C873 H852 0.950 . S
C873 C872 1.373 . S
C873 C889 1.377 . S
C874 C872 1.389 . S
C874 C875 1.550 . S
C874 C888 1.377 . S
C875 C874 1.550 . S
C875 C876 1.366 1_566 S
C875 C880 1.367 1_556 S
C876 H853 0.950 1_554 S
C876 C875 1.366 1_544 S
C876 C877 1.334 . S
C877 H854 0.950 . S
C877 C876 1.334 . S
C877 C878 1.287 . S
C878 C877 1.287 . S
C878 C879 1.524 . S
C878 H897 0.913 . S
C879 H855 0.950 . S
C879 C878 1.524 . S
C879 C880 1.415 1_545 S
C880 H856 0.950 1_554 S
C880 C875 1.367 1_554 S
C880 C879 1.415 1_565 S
C881 H857 0.951 1_565 S
C881 C882 1.366 . S
C881 C883 1.388 . S
C882 C881 1.366 . S
C882 C886 1.385 . S
C883 H858 0.951 . S
C883 C881 1.388 . S
C883 C884 1.366 . S
C884 C883 1.366 . S
C884 C885 1.414 . S
C884 C887 1.499 . S
C885 H859 0.950 . S
C885 C884 1.414 . S
C885 C886 1.374 . S
C886 H860 0.950 . S
C886 C882 1.385 . S
C886 C885 1.374 . S
C887 C884 1.499 . S
C887 C888 1.373 . S
C887 C889 1.389 . S
C888 H861 0.950 . S
C888 C874 1.377 . S
C888 C887 1.373 . S
C889 C873 1.377 . S
C889 C887 1.389 . S
C889 C890 1.524 . S
C890 C889 1.524 . S
C890 C891 1.397 . S
C890 C895 1.363 . S
C891 H862 0.950 . S
C891 C890 1.397 . S
C891 C892 1.334 . S
C892 H863 0.950 . S
C892 C891 1.334 . S
C892 C893 1.287 . S
C893 C892 1.287 . S
C893 C894 1.524 . S
C893 H896 0.999 . S
C894 H864 0.950 . S
C894 C893 1.524 . S
C894 C895 1.415 . S
C895 H865 0.950 . S
C895 C890 1.363 . S
C895 C894 1.415 . S
H896 C893 0.999 . S
H897 C878 0.913 . S
H898 C916 0.951 . S
H899 C918 0.951 1_556 S
H900 C920 0.950 . S
H901 C921 0.950 . S
H902 C923 0.950 . S
H903 C926 0.950 . S
H904 C927 0.950 . S
H905 C929 0.950 . S
H906 C930 0.950 . S
H907 C931 0.951 . S
H908 C933 0.951 . S
H909 C935 0.950 . S
H910 C936 0.950 . S
H911 C938 0.950 . S
H912 C941 0.950 . S
H913 C942 0.950 . S
H914 C944 0.950 . S
H915 C945 0.950 . S
C916 H898 0.951 . S
C916 C917 1.366 . S
C916 C918 1.388 . S
C917 C916 1.366 . S
C917 C921 1.385 . S
C918 H899 0.951 1_554 S
C918 C916 1.388 . S
C918 C919 1.366 1_554 S
C919 C918 1.366 1_556 S
C919 C920 1.414 1_556 S
C919 C922 1.499 . S
C920 H900 0.950 . S
C920 C919 1.414 1_554 S
C920 C921 1.374 . S
C921 H901 0.950 . S
C921 C917 1.385 . S
C921 C920 1.374 . S
C922 C919 1.499 . S
C922 C923 1.373 . S
C922 C924 1.389 . S
C923 H902 0.950 . S
C923 C922 1.373 . S
C923 C939 1.377 . S
C924 C922 1.389 . S
C924 C925 1.524 . S
C924 C938 1.377 . S
C925 C924 1.524 . S
C925 C926 1.397 . S
C925 C930 1.363 . S
C926 H903 0.950 . S
C926 C925 1.397 . S
C926 C927 1.334 . S
C927 H904 0.950 . S
C927 C926 1.334 . S
C927 C928 1.287 . S
C928 C927 1.287 . S
C928 C929 1.524 . S
C928 H947 0.913 . S
C929 H905 0.950 . S
C929 C928 1.524 . S
C929 C930 1.415 . S
C930 H906 0.950 . S
C930 C925 1.363 . S
C930 C929 1.415 . S
C931 H907 0.951 . S
C931 C932 1.366 . S
C931 C933 1.388 . S
C932 C931 1.366 . S
C932 C936 1.385 . S
C933 H908 0.951 . S
C933 C931 1.388 . S
C933 C934 1.366 . S
C934 C933 1.366 . S
C934 C935 1.414 . S
C934 C937 1.499 . S
C935 H909 0.950 . S
C935 C934 1.414 . S
C935 C936 1.374 . S
C936 H910 0.950 . S
C936 C932 1.385 . S
C936 C935 1.374 . S
C937 C934 1.499 . S
C937 C938 1.373 . S
C937 C939 1.389 . S
C938 H911 0.950 . S
C938 C924 1.377 . S
C938 C937 1.373 . S
C939 C923 1.377 . S
C939 C937 1.389 . S
C939 C940 1.524 . S
C940 C939 1.524 . S
C940 C941 1.397 . S
C940 C945 1.363 . S
C941 H912 0.950 . S
C941 C940 1.397 . S
C941 C942 1.334 . S
C942 H913 0.950 . S
C942 C941 1.334 . S
C942 C943 1.287 . S
C943 C942 1.287 . S
C943 C944 1.524 . S
C943 H946 0.999 1_565 S
C944 H914 0.950 . S
C944 C943 1.524 . S
C944 C945 1.415 . S
C945 H915 0.950 . S
C945 C940 1.363 . S
C945 C944 1.415 . S
H946 C943 0.999 1_545 S
H947 C928 0.913 . S
H948 C966 0.951 . S
H949 C968 0.951 . S
H950 C970 0.950 . S
H951 C971 0.950 . S
H952 C973 0.950 . S
H953 C976 0.950 . S
H954 C977 0.950 . S
H955 C979 0.950 . S
H956 C980 0.950 . S
H957 C981 0.951 . S
H958 C983 0.951 . S
H959 C985 0.950 . S
H960 C986 0.950 . S
H961 C988 0.950 . S
H962 C991 0.950 . S
H963 C992 0.950 . S
H964 C994 0.950 . S
H965 C995 0.950 . S
C966 H948 0.951 . S
C966 C967 1.366 . S
C966 C968 1.388 1_554 S
C967 C966 1.366 . S
C967 C971 1.385 . S
C968 H949 0.951 . S
C968 C966 1.388 1_556 S
C968 C969 1.366 . S
C969 C968 1.366 . S
C969 C970 1.414 1_556 S
C969 C972 1.499 . S
C970 H950 0.950 . S
C970 C969 1.414 1_554 S
C970 C971 1.374 . S
C971 H951 0.950 . S
C971 C967 1.385 . S
C971 C970 1.374 . S
C972 C969 1.499 . S
C972 C973 1.373 . S
C972 C974 1.389 . S
C973 H952 0.950 . S
C973 C972 1.373 . S
C973 C989 1.377 . S
C974 C972 1.389 . S
C974 C975 1.524 . S
C974 C988 1.377 . S
C975 C974 1.524 . S
C975 C976 1.397 . S
C975 C980 1.363 . S
C976 H953 0.950 . S
C976 C975 1.397 . S
C976 C977 1.334 . S
C977 H954 0.950 . S
C977 C976 1.334 . S
C977 C978 1.287 . S
C978 C977 1.287 . S
C978 C979 1.524 . S
C978 H997 0.913 . S
C979 H955 0.950 . S
C979 C978 1.524 . S
C979 C980 1.415 . S
C980 H956 0.950 . S
C980 C975 1.363 . S
C980 C979 1.415 . S
C981 H957 0.951 . S
C981 C982 1.366 . S
C981 C983 1.388 . S
C982 C981 1.366 . S
C982 C986 1.385 . S
C983 H958 0.951 . S
C983 C981 1.388 . S
C983 C984 1.366 . S
C984 C983 1.366 . S
C984 C985 1.414 . S
C984 C987 1.499 . S
C985 H959 0.950 . S
C985 C984 1.414 . S
C985 C986 1.374 . S
C986 H960 0.950 . S
C986 C982 1.385 . S
C986 C985 1.374 . S
C987 C984 1.499 . S
C987 C988 1.373 . S
C987 C989 1.389 . S
C988 H961 0.950 . S
C988 C974 1.377 . S
C988 C987 1.373 . S
C989 C973 1.377 . S
C989 C987 1.389 . S
C989 C990 1.524 . S
C990 C989 1.524 . S
C990 C991 1.397 . S
C990 C995 1.363 . S
C991 H962 0.950 . S
C991 C990 1.397 . S
C991 C992 1.334 . S
C992 H963 0.950 . S
C992 C991 1.334 . S
C992 C993 1.287 . S
C993 C992 1.287 . S
C993 C994 1.524 . S
C993 H996 0.999 . S
C994 H964 0.950 . S
C994 C993 1.524 . S
C994 C995 1.415 . S
C995 H965 0.950 . S
C995 C990 1.363 . S
C995 C994 1.415 . S
H996 C993 0.999 . S
H997 C978 0.913 . S
H998 C1016 0.951 . S
H999 C1018 0.951 1_455 S
H1000 C1020 0.950 1_556 S
H1001 C1021 0.950 . S
H1002 C1023 0.950 . S
H1003 C1026 0.950 . S
H1004 C1027 0.950 . S
H1005 C1029 0.950 . S
H1006 C1030 0.950 . S
H1007 C1031 0.951 . S
H1008 C1033 0.951 . S
H1009 C1035 0.950 . S
H1010 C1036 0.950 . S
H1011 C1038 0.950 1_455 S
H1012 C1041 0.950 . S
H1013 C1042 0.950 . S
H1014 C1044 0.950 . S
H1015 C1045 0.950 . S
C1016 H998 0.951 . S
C1016 C1017 1.366 . S
C1016 C1018 1.388 . S
C1017 C1016 1.366 . S
C1017 C1021 1.385 . S
C1018 H999 0.951 1_655 S
C1018 C1016 1.388 . S
C1018 C1019 1.366 1_554 S
C1019 C1018 1.366 1_556 S
C1019 C1020 1.414 1_556 S
C1019 C1022 1.499 . S
C1020 H1000 0.950 1_554 S
C1020 C1019 1.414 1_554 S
C1020 C1021 1.374 . S
C1021 H1001 0.950 . S
C1021 C1017 1.385 . S
C1021 C1020 1.374 . S
C1022 C1019 1.499 . S
C1022 C1023 1.373 . S
C1022 C1024 1.389 . S
C1023 H1002 0.950 . S
C1023 C1022 1.373 . S
C1023 C1039 1.377 . S
C1024 C1022 1.389 . S
C1024 C1025 1.506 1_655 S
C1024 C1038 1.377 . S
C1025 C1024 1.506 1_455 S
C1025 C1026 1.370 1_455 S
C1025 C1030 1.407 . S
C1026 H1003 0.950 . S
C1026 C1025 1.370 1_655 S
C1026 C1027 1.334 . S
C1027 H1004 0.950 . S
C1027 C1026 1.334 . S
C1027 C1028 1.287 1_655 S
C1028 C1027 1.287 1_455 S
C1028 C1029 1.524 . S
C1028 H1047 0.913 . S
C1029 H1005 0.950 . S
C1029 C1028 1.524 . S
C1029 C1030 1.415 . S
C1030 H1006 0.950 . S
C1030 C1025 1.407 . S
C1030 C1029 1.415 . S
C1031 H1007 0.951 . S
C1031 C1032 1.366 . S
C1031 C1033 1.388 . S
C1032 C1031 1.366 . S
C1032 C1036 1.385 1_655 S
C1033 H1008 0.951 . S
C1033 C1031 1.388 . S
C1033 C1034 1.366 . S
C1034 C1033 1.366 . S
C1034 C1035 1.414 1_655 S
C1034 C1037 1.499 . S
C1035 H1009 0.950 . S
C1035 C1034 1.414 1_455 S
C1035 C1036 1.374 . S
C1036 H1010 0.950 . S
C1036 C1032 1.385 1_455 S
C1036 C1035 1.374 . S
C1037 C1034 1.499 . S
C1037 C1038 1.373 . S
C1037 C1039 1.389 . S
C1038 H1011 0.950 1_655 S
C1038 C1024 1.377 . S
C1038 C1037 1.373 . S
C1039 C1023 1.377 . S
C1039 C1037 1.389 . S
C1039 C1040 1.524 . S
C1040 C1039 1.524 . S
C1040 C1041 1.397 . S
C1040 C1045 1.363 . S
C1041 H1012 0.950 . S
C1041 C1040 1.397 . S
C1041 C1042 1.334 . S
C1042 H1013 0.950 . S
C1042 C1041 1.334 . S
C1042 C1043 1.287 . S
C1043 C1042 1.287 . S
C1043 C1044 1.524 . S
C1043 H1046 0.999 . S
C1044 H1014 0.950 . S
C1044 C1043 1.524 . S
C1044 C1045 1.415 . S
C1045 H1015 0.950 . S
C1045 C1040 1.363 . S
C1045 C1044 1.415 . S
H1046 C1043 0.999 . S
H1047 C1028 0.913 . S
H1048 C1066 0.951 . S
H1049 C1068 0.951 . S
H1050 C1070 0.950 . S
H1051 C1071 0.950 . S
H1052 C1073 0.950 . S
H1053 C1076 0.950 . S
H1054 C1077 0.950 . S
H1055 C1079 0.950 . S
H1056 C1080 0.928 1_455 S
H1057 C1081 0.951 . S
H1058 C1083 0.951 . S
H1059 C1085 0.950 . S
H1060 C1086 0.950 . S
H1061 C1088 0.950 . S
H1062 C1091 0.950 . S
H1063 C1092 0.950 . S
H1064 C1094 0.950 . S
H1065 C1095 0.950 . S
C1066 H1048 0.951 . S
C1066 C1067 1.366 . S
C1066 C1068 1.388 . S
C1067 C1066 1.366 . S
C1067 C1071 1.385 . S
C1068 H1049 0.951 . S
C1068 C1066 1.388 . S
C1068 C1069 1.366 . S
C1069 C1068 1.366 . S
C1069 C1070 1.414 . S
C1069 C1072 1.499 . S
C1070 H1050 0.950 . S
C1070 C1069 1.414 . S
C1070 C1071 1.374 . S
C1071 H1051 0.950 . S
C1071 C1067 1.385 . S
C1071 C1070 1.374 . S
C1072 C1069 1.499 . S
C1072 C1073 1.373 . S
C1072 C1074 1.389 . S
C1073 H1052 0.950 . S
C1073 C1072 1.373 . S
C1073 C1089 1.377 . S
C1074 C1072 1.389 . S
C1074 C1075 1.524 . S
C1074 C1088 1.377 . S
C1075 C1074 1.524 . S
C1075 C1076 1.397 1_455 S
C1075 C1080 1.351 1_455 S
C1076 H1053 0.950 . S
C1076 C1075 1.397 1_655 S
C1076 C1077 1.334 . S
C1077 H1054 0.950 . S
C1077 C1076 1.334 . S
C1077 C1078 1.287 . S
C1078 C1077 1.287 . S
C1078 C1079 1.524 . S
C1078 H1097 0.913 . S
C1079 H1055 0.950 . S
C1079 C1078 1.524 . S
C1079 C1080 1.452 . S
C1080 H1056 0.928 1_655 S
C1080 C1075 1.351 1_655 S
C1080 C1079 1.452 . S
C1081 H1057 0.951 . S
C1081 C1082 1.366 . S
C1081 C1083 1.388 . S
C1082 C1081 1.366 . S
C1082 C1086 1.385 . S
C1083 H1058 0.951 . S
C1083 C1081 1.388 . S
C1083 C1084 1.366 . S
C1084 C1083 1.366 . S
C1084 C1085 1.414 . S
C1084 C1087 1.499 . S
C1085 H1059 0.950 . S
C1085 C1084 1.414 . S
C1085 C1086 1.374 . S
C1086 H1060 0.950 . S
C1086 C1082 1.385 . S
C1086 C1085 1.374 . S
C1087 C1084 1.499 . S
C1087 C1088 1.373 . S
C1087 C1089 1.389 . S
C1088 H1061 0.950 . S
C1088 C1074 1.377 . S
C1088 C1087 1.373 . S
C1089 C1073 1.377 . S
C1089 C1087 1.389 . S
C1089 C1090 1.524 . S
C1090 C1089 1.524 . S
C1090 C1091 1.397 . S
C1090 C1095 1.363 . S
C1091 H1062 0.950 . S
C1091 C1090 1.397 . S
C1091 C1092 1.334 . S
C1092 H1063 0.950 . S
C1092 C1091 1.334 . S
C1092 C1093 1.287 . S
C1093 C1092 1.287 . S
C1093 C1094 1.524 . S
C1093 H1096 0.999 . S
C1094 H1064 0.950 . S
C1094 C1093 1.524 . S
C1094 C1095 1.415 . S
C1095 H1065 0.950 . S
C1095 C1090 1.363 . S
C1095 C1094 1.415 . S
H1096 C1093 0.999 . S
H1097 C1078 0.913 . S
H1098 C1116 0.951 . S
H1099 C1118 0.951 . S
H1100 C1120 0.950 . S
H1101 C1121 0.950 . S
H1102 C1123 0.950 . S
H1103 C1126 0.950 . S
H1104 C1127 0.950 . S
H1105 C1129 0.950 . S
H1106 C1130 0.950 . S
H1107 C1131 0.951 . S
H1108 C1133 0.951 . S
H1109 C1135 0.950 . S
H1110 C1136 0.950 . S
H1111 C1138 0.950 . S
H1112 C1141 0.950 . S
H1113 C1142 0.950 . S
H1114 C1144 0.950 . S
H1115 C1145 0.950 1_545 S
C1116 H1098 0.951 . S
C1116 C1117 1.366 . S
C1116 C1118 1.388 . S
C1117 C1116 1.366 . S
C1117 C1121 1.385 . S
C1118 H1099 0.951 . S
C1118 C1116 1.388 . S
C1118 C1119 1.366 . S
C1119 C1118 1.366 . S
C1119 C1120 1.414 . S
C1119 C1122 1.499 . S
C1120 H1100 0.950 . S
C1120 C1119 1.414 . S
C1120 C1121 1.374 . S
C1121 H1101 0.950 . S
C1121 C1117 1.385 . S
C1121 C1120 1.374 . S
C1122 C1119 1.499 . S
C1122 C1123 1.373 . S
C1122 C1124 1.389 . S
C1123 H1102 0.950 . S
C1123 C1122 1.373 . S
C1123 C1139 1.377 . S
C1124 C1122 1.389 . S
C1124 C1125 1.524 . S
C1124 C1138 1.377 . S
C1125 C1124 1.524 . S
C1125 C1126 1.397 . S
C1125 C1130 1.363 . S
C1126 H1103 0.950 . S
C1126 C1125 1.397 . S
C1126 C1127 1.334 . S
C1127 H1104 0.950 . S
C1127 C1126 1.334 . S
C1127 C1128 1.287 . S
C1128 C1127 1.287 . S
C1128 C1129 1.524 . S
C1128 H1147 0.913 . S
C1129 H1105 0.950 . S
C1129 C1128 1.524 . S
C1129 C1130 1.415 . S
C1130 H1106 0.950 . S
C1130 C1125 1.363 . S
C1130 C1129 1.415 . S
C1131 H1107 0.951 . S
C1131 C1132 1.366 . S
C1131 C1133 1.388 . S
C1132 C1131 1.366 . S
C1132 C1136 1.385 . S
C1133 H1108 0.951 . S
C1133 C1131 1.388 . S
C1133 C1134 1.366 . S
C1134 C1133 1.366 . S
C1134 C1135 1.414 . S
C1134 C1137 1.499 . S
C1135 H1109 0.950 . S
C1135 C1134 1.414 . S
C1135 C1136 1.374 . S
C1136 H1110 0.950 . S
C1136 C1132 1.385 . S
C1136 C1135 1.374 . S
C1137 C1134 1.499 . S
C1137 C1138 1.373 . S
C1137 C1139 1.389 . S
C1138 H1111 0.950 . S
C1138 C1124 1.377 . S
C1138 C1137 1.373 . S
C1139 C1123 1.377 . S
C1139 C1137 1.389 . S
C1139 C1140 1.524 1_545 S
C1140 C1139 1.524 1_565 S
C1140 C1141 1.397 . S
C1140 C1145 1.363 . S
C1141 H1112 0.950 . S
C1141 C1140 1.397 . S
C1141 C1142 1.334 . S
C1142 H1113 0.950 . S
C1142 C1141 1.334 . S
C1142 C1143 1.287 . S
C1143 C1142 1.287 . S
C1143 C1144 1.524 . S
C1143 H1146 0.999 . S
C1144 H1114 0.950 . S
C1144 C1143 1.524 . S
C1144 C1145 1.415 . S
C1145 H1115 0.950 1_565 S
C1145 C1140 1.363 . S
C1145 C1144 1.415 . S
H1146 C1143 0.999 . S
H1147 C1128 0.913 . S
H1148 C1166 0.951 . S
H1149 C1168 0.951 . S
H1150 C1170 0.950 . S
H1151 C1171 0.950 . S
H1152 C1173 0.950 . S
H1153 C1176 0.950 . S
H1154 C1177 0.950 . S
H1155 C1179 0.950 . S
H1156 C1180 0.950 . S
H1157 C1181 0.951 . S
H1158 C1183 0.951 . S
H1159 C1185 0.950 . S
H1160 C1186 0.950 . S
H1161 C1188 0.950 . S
H1162 C1191 0.950 . S
H1163 C1192 0.950 . S
H1164 C1194 0.950 . S
H1165 C1195 0.950 . S
C1166 H1148 0.951 . S
C1166 C1167 1.366 . S
C1166 C1168 1.388 . S
C1167 C1166 1.366 . S
C1167 C1171 1.385 . S
C1168 H1149 0.951 . S
C1168 C1166 1.388 . S
C1168 C1169 1.366 . S
C1169 C1168 1.366 . S
C1169 C1170 1.414 . S
C1169 C1172 1.499 . S
C1170 H1150 0.950 . S
C1170 C1169 1.414 . S
C1170 C1171 1.374 . S
C1171 H1151 0.950 . S
C1171 C1167 1.385 . S
C1171 C1170 1.374 . S
C1172 C1169 1.499 . S
C1172 C1173 1.373 . S
C1172 C1174 1.389 . S
C1173 H1152 0.950 . S
C1173 C1172 1.373 . S
C1173 C1189 1.377 . S
C1174 C1172 1.389 . S
C1174 C1175 1.524 . S
C1174 C1188 1.377 . S
C1175 C1174 1.524 . S
C1175 C1176 1.397 . S
C1175 C1180 1.363 . S
C1176 H1153 0.950 . S
C1176 C1175 1.397 . S
C1176 C1177 1.334 . S
C1177 H1154 0.950 . S
C1177 C1176 1.334 . S
C1177 C1178 1.287 . S
C1178 C1177 1.287 . S
C1178 C1179 1.524 . S
C1178 H1197 0.913 . S
C1179 H1155 0.950 . S
C1179 C1178 1.524 . S
C1179 C1180 1.415 . S
C1180 H1156 0.950 . S
C1180 C1175 1.363 . S
C1180 C1179 1.415 . S
C1181 H1157 0.951 . S
C1181 C1182 1.366 . S
C1181 C1183 1.388 . S
C1182 C1181 1.366 . S
C1182 C1186 1.385 . S
C1183 H1158 0.951 . S
C1183 C1181 1.388 . S
C1183 C1184 1.366 . S
C1184 C1183 1.366 . S
C1184 C1185 1.414 . S
C1184 C1187 1.499 . S
C1185 H1159 0.950 . S
C1185 C1184 1.414 . S
C1185 C1186 1.374 . S
C1186 H1160 0.950 . S
C1186 C1182 1.385 . S
C1186 C1185 1.374 . S
C1187 C1184 1.499 . S
C1187 C1188 1.373 . S
C1187 C1189 1.389 . S
C1188 H1161 0.950 . S
C1188 C1174 1.377 . S
C1188 C1187 1.373 . S
C1189 C1173 1.377 . S
C1189 C1187 1.389 . S
C1189 C1190 1.524 . S
C1190 C1189 1.524 . S
C1190 C1191 1.397 . S
C1190 C1195 1.363 . S
C1191 H1162 0.950 . S
C1191 C1190 1.397 . S
C1191 C1192 1.334 . S
C1192 H1163 0.950 . S
C1192 C1191 1.334 . S
C1192 C1193 1.287 . S
C1193 C1192 1.287 . S
C1193 C1194 1.524 . S
C1193 H1196 0.999 . S
C1194 H1164 0.950 . S
C1194 C1193 1.524 . S
C1194 C1195 1.415 . S
C1195 H1165 0.950 . S
C1195 C1190 1.363 . S
C1195 C1194 1.415 . S
H1196 C1193 0.999 . S
H1197 C1178 0.913 . S
H1198 C1216 0.951 . S
H1199 C1218 0.951 . S
H1200 C1220 0.950 . S
H1201 C1221 0.950 . S
H1202 C1223 0.950 . S
H1203 C1226 0.950 . S
H1204 C1227 0.950 . S
H1205 C1229 0.950 . S
H1206 C1230 0.950 . S
H1207 C1231 0.951 . S
H1208 C1233 0.951 . S
H1209 C1235 0.950 . S
H1210 C1236 0.950 . S
H1211 C1238 0.950 . S
H1212 C1241 0.950 . S
H1213 C1242 0.950 . S
H1214 C1244 0.950 . S
H1215 C1245 0.950 . S
C1216 H1198 0.951 . S
C1216 C1217 1.366 . S
C1216 C1218 1.388 . S
C1217 C1216 1.366 . S
C1217 C1221 1.385 . S
C1218 H1199 0.951 . S
C1218 C1216 1.388 . S
C1218 C1219 1.366 . S
C1219 C1218 1.366 . S
C1219 C1220 1.414 . S
C1219 C1222 1.499 . S
C1220 H1200 0.950 . S
C1220 C1219 1.414 . S
C1220 C1221 1.374 . S
C1221 H1201 0.950 . S
C1221 C1217 1.385 . S
C1221 C1220 1.374 . S
C1222 C1219 1.499 . S
C1222 C1223 1.373 . S
C1222 C1224 1.389 . S
C1223 H1202 0.950 . S
C1223 C1222 1.373 . S
C1223 C1239 1.377 . S
C1224 C1222 1.389 . S
C1224 C1225 1.524 . S
C1224 C1238 1.377 . S
C1225 C1224 1.524 . S
C1225 C1226 1.397 . S
C1225 C1230 1.363 . S
C1226 H1203 0.950 . S
C1226 C1225 1.397 . S
C1226 C1227 1.334 . S
C1227 H1204 0.950 . S
C1227 C1226 1.334 . S
C1227 C1228 1.287 . S
C1228 C1227 1.287 . S
C1228 C1229 1.524 . S
C1228 H1247 0.913 . S
C1229 H1205 0.950 . S
C1229 C1228 1.524 . S
C1229 C1230 1.415 . S
C1230 H1206 0.950 . S
C1230 C1225 1.363 . S
C1230 C1229 1.415 . S
C1231 H1207 0.951 . S
C1231 C1232 1.366 . S
C1231 C1233 1.388 . S
C1232 C1231 1.366 . S
C1232 C1236 1.385 . S
C1233 H1208 0.951 . S
C1233 C1231 1.388 . S
C1233 C1234 1.366 . S
C1234 C1233 1.366 . S
C1234 C1235 1.414 . S
C1234 C1237 1.499 . S
C1235 H1209 0.950 . S
C1235 C1234 1.414 . S
C1235 C1236 1.374 . S
C1236 H1210 0.950 . S
C1236 C1232 1.385 . S
C1236 C1235 1.374 . S
C1237 C1234 1.499 . S
C1237 C1238 1.373 . S
C1237 C1239 1.389 . S
C1238 H1211 0.950 . S
C1238 C1224 1.377 . S
C1238 C1237 1.373 . S
C1239 C1223 1.377 . S
C1239 C1237 1.389 . S
C1239 C1240 1.524 . S
C1240 C1239 1.524 . S
C1240 C1241 1.397 . S
C1240 C1245 1.363 . S
C1241 H1212 0.950 . S
C1241 C1240 1.397 . S
C1241 C1242 1.334 . S
C1242 H1213 0.950 . S
C1242 C1241 1.334 . S
C1242 C1243 1.287 . S
C1243 C1242 1.287 . S
C1243 C1244 1.524 . S
C1243 H1246 0.999 . S
C1244 H1214 0.950 . S
C1244 C1243 1.524 . S
C1244 C1245 1.415 . S
C1245 H1215 0.950 . S
C1245 C1240 1.363 . S
C1245 C1244 1.415 . S
H1246 C1243 0.999 . S
H1247 C1228 0.913 . S
H1248 C1266 0.951 . S
H1249 C1268 0.951 . S
H1250 C1270 0.950 . S
H1251 C1271 0.950 . S
H1252 C1273 0.950 . S
H1253 C1276 0.950 . S
H1254 C1277 0.950 . S
H1255 C1279 0.950 . S
H1256 C1280 0.950 . S
H1257 C1281 0.951 . S
H1258 C1283 0.951 . S
H1259 C1285 0.948 1_655 S
H1260 C1286 0.950 . S
H1261 C1288 0.975 . S
H1262 C1291 0.950 . S
H1263 C1292 0.950 . S
H1264 C1294 0.950 . S
H1265 C1295 0.950 . S
C1266 H1248 0.951 . S
C1266 C1267 1.366 1_556 S
C1266 C1268 1.388 . S
C1267 C1266 1.366 1_554 S
C1267 C1271 1.385 . S
C1268 H1249 0.951 . S
C1268 C1266 1.388 . S
C1268 C1269 1.366 . S
C1269 C1268 1.366 . S
C1269 C1270 1.414 1_556 S
C1269 C1272 1.499 . S
C1270 H1250 0.950 . S
C1270 C1269 1.414 1_554 S
C1270 C1271 1.374 . S
C1271 H1251 0.950 . S
C1271 C1267 1.385 . S
C1271 C1270 1.374 . S
C1272 C1269 1.499 . S
C1272 C1273 1.373 . S
C1272 C1274 1.389 . S
C1273 H1252 0.950 . S
C1273 C1272 1.373 . S
C1273 C1289 1.377 . S
C1274 C1272 1.389 . S
C1274 C1275 1.524 1_655 S
C1274 C1288 1.370 1_655 S
C1275 C1274 1.524 1_455 S
C1275 C1276 1.397 . S
C1275 C1280 1.363 . S
C1276 H1253 0.950 . S
C1276 C1275 1.397 . S
C1276 C1277 1.334 . S
C1277 H1254 0.950 . S
C1277 C1276 1.334 . S
C1277 C1278 1.287 . S
C1278 C1277 1.287 . S
C1278 C1279 1.524 . S
C1278 H1297 0.913 . S
C1279 H1255 0.950 . S
C1279 C1278 1.524 . S
C1279 C1280 1.415 . S
C1280 H1256 0.950 . S
C1280 C1275 1.363 . S
C1280 C1279 1.415 . S
C1281 H1257 0.951 . S
C1281 C1282 1.366 . S
C1281 C1283 1.388 1_455 S
C1282 C1281 1.366 . S
C1282 C1286 1.385 . S
C1283 H1258 0.951 . S
C1283 C1281 1.388 1_655 S
C1283 C1284 1.366 . S
C1284 C1283 1.366 . S
C1284 C1285 1.403 1_655 S
C1284 C1287 1.499 . S
C1285 H1259 0.948 1_455 S
C1285 C1284 1.403 1_455 S
C1285 C1286 1.390 . S
C1286 H1260 0.950 . S
C1286 C1282 1.385 . S
C1286 C1285 1.390 . S
C1287 C1284 1.499 . S
C1287 C1288 1.356 1_655 S
C1287 C1289 1.389 . S
C1288 H1261 0.975 . S
C1288 C1274 1.370 1_455 S
C1288 C1287 1.356 1_455 S
C1289 C1273 1.377 . S
C1289 C1287 1.389 . S
C1289 C1290 1.524 . S
C1290 C1289 1.524 . S
C1290 C1291 1.397 . S
C1290 C1295 1.363 . S
C1291 H1262 0.950 . S
C1291 C1290 1.397 . S
C1291 C1292 1.334 . S
C1292 H1263 0.950 . S
C1292 C1291 1.334 . S
C1292 C1293 1.287 . S
C1293 C1292 1.287 . S
C1293 C1294 1.524 . S
C1293 H1296 0.999 . S
C1294 H1264 0.950 . S
C1294 C1293 1.524 . S
C1294 C1295 1.415 . S
C1295 H1265 0.950 . S
C1295 C1290 1.363 . S
C1295 C1294 1.415 . S
H1296 C1293 0.999 . S
H1297 C1278 0.913 . S
H1298 C1316 0.951 . S
H1299 C1318 0.951 1_554 S
H1300 C1320 0.950 . S
H1301 C1321 0.950 . S
H1302 C1323 0.950 . S
H1303 C1326 0.950 . S
H1304 C1327 0.950 . S
H1305 C1329 0.950 1_545 S
H1306 C1330 0.950 1_545 S
H1307 C1331 0.951 . S
H1308 C1333 0.951 . S
H1309 C1335 0.950 . S
H1310 C1336 0.950 . S
H1311 C1338 0.950 . S
H1312 C1341 0.950 . S
H1313 C1342 0.950 . S
H1314 C1344 0.950 . S
H1315 C1345 0.950 . S
C1316 H1298 0.951 . S
C1316 C1317 1.366 . S
C1316 C1318 1.388 1_554 S
C1317 C1316 1.366 . S
C1317 C1321 1.385 1_554 S
C1318 H1299 0.951 1_556 S
C1318 C1316 1.388 1_556 S
C1318 C1319 1.366 . S
C1319 C1318 1.366 . S
C1319 C1320 1.414 . S
C1319 C1322 1.499 . S
C1320 H1300 0.950 . S
C1320 C1319 1.414 . S
C1320 C1321 1.374 . S
C1321 H1301 0.950 . S
C1321 C1317 1.385 1_556 S
C1321 C1320 1.374 . S
C1322 C1319 1.499 . S
C1322 C1323 1.373 . S
C1322 C1324 1.389 . S
C1323 H1302 0.950 . S
C1323 C1322 1.373 . S
C1323 C1339 1.377 . S
C1324 C1322 1.389 . S
C1324 C1325 1.524 1_556 S
C1324 C1338 1.377 . S
C1325 C1324 1.524 1_554 S
C1325 C1326 1.397 . S
C1325 C1330 1.363 . S
C1326 H1303 0.950 . S
C1326 C1325 1.397 . S
C1326 C1327 1.334 . S
C1327 H1304 0.950 . S
C1327 C1326 1.334 . S
C1327 C1328 1.287 . S
C1328 C1327 1.287 . S
C1328 C1329 1.524 . S
C1328 H1347 0.913 . S
C1329 H1305 0.950 1_565 S
C1329 C1328 1.524 . S
C1329 C1330 1.415 . S
C1330 H1306 0.950 1_565 S
C1330 C1325 1.363 . S
C1330 C1329 1.415 . S
C1331 H1307 0.951 . S
C1331 C1332 1.366 1_565 S
C1331 C1333 1.388 . S
C1332 C1331 1.366 1_545 S
C1332 C1336 1.385 . S
C1333 H1308 0.951 . S
C1333 C1331 1.388 . S
C1333 C1334 1.366 . S
C1334 C1333 1.366 . S
C1334 C1335 1.414 1_565 S
C1334 C1337 1.499 . S
C1335 H1309 0.950 . S
C1335 C1334 1.414 1_545 S
C1335 C1336 1.374 . S
C1336 H1310 0.950 . S
C1336 C1332 1.385 . S
C1336 C1335 1.374 . S
C1337 C1334 1.499 . S
C1337 C1338 1.373 . S
C1337 C1339 1.389 . S
C1338 H1311 0.950 . S
C1338 C1324 1.377 . S
C1338 C1337 1.373 . S
C1339 C1323 1.377 . S
C1339 C1337 1.389 . S
C1339 C1340 1.524 . S
C1340 C1339 1.524 . S
C1340 C1341 1.397 1_565 S
C1340 C1345 1.363 . S
C1341 H1312 0.950 . S
C1341 C1340 1.397 1_545 S
C1341 C1342 1.334 . S
C1342 H1313 0.950 . S
C1342 C1341 1.334 . S
C1342 C1343 1.287 1_545 S
C1343 C1342 1.287 1_565 S
C1343 C1344 1.524 . S
C1343 H1346 0.999 . S
C1344 H1314 0.950 . S
C1344 C1343 1.524 . S
C1344 C1345 1.415 . S
C1345 H1315 0.950 . S
C1345 C1340 1.363 . S
C1345 C1344 1.415 . S
H1346 C1343 0.999 . S
H1347 C1328 0.913 . S
H1348 C1366 0.951 . S
H1349 C1368 0.951 . S
H1350 C1370 0.950 . S
H1351 C1371 0.950 . S
H1352 C1373 0.950 . S
H1353 C1376 0.950 . S
H1354 C1377 0.950 . S
H1355 C1379 0.950 . S
H1356 C1380 0.950 . S
H1357 C1381 0.951 . S
H1358 C1383 0.951 . S
H1359 C1385 0.950 . S
H1360 C1386 0.950 . S
H1361 C1388 0.950 . S
H1362 C1391 0.950 . S
H1363 C1392 0.950 . S
H1364 C1394 0.950 . S
H1365 C1395 0.950 . S
C1366 H1348 0.951 . S
C1366 C1367 1.366 . S
C1366 C1368 1.388 . S
C1367 C1366 1.366 . S
C1367 C1371 1.385 1_554 S
C1368 H1349 0.951 . S
C1368 C1366 1.388 . S
C1368 C1369 1.366 1_554 S
C1369 C1368 1.366 1_556 S
C1369 C1370 1.414 . S
C1369 C1372 1.499 . S
C1370 H1350 0.950 . S
C1370 C1369 1.414 . S
C1370 C1371 1.374 . S
C1371 H1351 0.950 . S
C1371 C1367 1.385 1_556 S
C1371 C1370 1.374 . S
C1372 C1369 1.499 . S
C1372 C1373 1.373 . S
C1372 C1374 1.389 . S
C1373 H1352 0.950 . S
C1373 C1372 1.373 . S
C1373 C1389 1.377 . S
C1374 C1372 1.389 . S
C1374 C1375 1.524 . S
C1374 C1388 1.377 . S
C1375 C1374 1.524 . S
C1375 C1376 1.397 . S
C1375 C1380 1.363 . S
C1376 H1353 0.950 . S
C1376 C1375 1.397 . S
C1376 C1377 1.334 . S
C1377 H1354 0.950 . S
C1377 C1376 1.334 . S
C1377 C1378 1.287 . S
C1378 C1377 1.287 . S
C1378 C1379 1.524 . S
C1378 H1397 0.913 . S
C1379 H1355 0.950 . S
C1379 C1378 1.524 . S
C1379 C1380 1.415 . S
C1380 H1356 0.950 . S
C1380 C1375 1.363 . S
C1380 C1379 1.415 . S
C1381 H1357 0.951 . S
C1381 C1382 1.366 . S
C1381 C1383 1.388 . S
C1382 C1381 1.366 . S
C1382 C1386 1.385 . S
C1383 H1358 0.951 . S
C1383 C1381 1.388 . S
C1383 C1384 1.366 . S
C1384 C1383 1.366 . S
C1384 C1385 1.414 . S
C1384 C1387 1.499 . S
C1385 H1359 0.950 . S
C1385 C1384 1.414 . S
C1385 C1386 1.374 . S
C1386 H1360 0.950 . S
C1386 C1382 1.385 . S
C1386 C1385 1.374 . S
C1387 C1384 1.499 . S
C1387 C1388 1.373 . S
C1387 C1389 1.389 . S
C1388 H1361 0.950 . S
C1388 C1374 1.377 . S
C1388 C1387 1.373 . S
C1389 C1373 1.377 . S
C1389 C1387 1.389 . S
C1389 C1390 1.524 . S
C1390 C1389 1.524 . S
C1390 C1391 1.397 . S
C1390 C1395 1.363 . S
C1391 H1362 0.950 . S
C1391 C1390 1.397 . S
C1391 C1392 1.334 . S
C1392 H1363 0.950 . S
C1392 C1391 1.334 . S
C1392 C1393 1.287 . S
C1393 C1392 1.287 . S
C1393 C1394 1.524 . S
C1393 H1396 0.999 . S
C1394 H1364 0.950 . S
C1394 C1393 1.524 . S
C1394 C1395 1.415 . S
C1395 H1365 0.950 . S
C1395 C1390 1.363 . S
C1395 C1394 1.415 . S
H1396 C1393 0.999 . S
H1397 C1378 0.913 . S
H1398 C1416 0.951 . S
H1399 C1418 0.951 . S
H1400 C1420 0.950 . S
H1401 C1421 0.950 . S
H1402 C1423 0.950 . S
H1403 C1426 0.950 . S
H1404 C1427 0.950 . S
H1405 C1429 0.950 . S
H1406 C1430 0.949 1_554 S
H1407 C1431 0.951 . S
H1408 C1433 0.951 . S
H1409 C1435 0.950 . S
H1410 C1436 0.950 . S
H1411 C1438 0.950 . S
H1412 C1441 0.950 . S
H1413 C1442 0.950 . S
H1414 C1444 0.950 . S
H1415 C1445 0.950 . S
C1416 H1398 0.951 . S
C1416 C1417 1.366 . S
C1416 C1418 1.388 . S
C1417 C1416 1.366 . S
C1417 C1421 1.385 1_554 S
C1418 H1399 0.951 . S
C1418 C1416 1.388 . S
C1418 C1419 1.366 1_554 S
C1419 C1418 1.366 1_556 S
C1419 C1420 1.414 . S
C1419 C1422 1.499 . S
C1420 H1400 0.950 . S
C1420 C1419 1.414 . S
C1420 C1421 1.374 . S
C1421 H1401 0.950 . S
C1421 C1417 1.385 1_556 S
C1421 C1420 1.374 . S
C1422 C1419 1.499 . S
C1422 C1423 1.373 . S
C1422 C1424 1.389 . S
C1423 H1402 0.950 . S
C1423 C1422 1.373 . S
C1423 C1439 1.377 . S
C1424 C1422 1.389 . S
C1424 C1425 1.524 . S
C1424 C1438 1.377 . S
C1425 C1424 1.524 . S
C1425 C1426 1.397 . S
C1425 C1430 1.363 . S
C1426 H1403 0.950 . S
C1426 C1425 1.397 . S
C1426 C1427 1.334 . S
C1427 H1404 0.950 . S
C1427 C1426 1.334 . S
C1427 C1428 1.287 1_556 S
C1428 C1427 1.287 1_554 S
C1428 C1429 1.524 . S
C1428 H1447 0.913 . S
C1429 H1405 0.950 . S
C1429 C1428 1.524 . S
C1429 C1430 1.415 1_554 S
C1430 H1406 0.949 1_556 S
C1430 C1425 1.363 . S
C1430 C1429 1.415 1_556 S
C1431 H1407 0.951 . S
C1431 C1432 1.366 . S
C1431 C1433 1.388 . S
C1432 C1431 1.366 . S
C1432 C1436 1.385 . S
C1433 H1408 0.951 . S
C1433 C1431 1.388 . S
C1433 C1434 1.366 . S
C1434 C1433 1.366 . S
C1434 C1435 1.414 . S
C1434 C1437 1.499 . S
C1435 H1409 0.950 . S
C1435 C1434 1.414 . S
C1435 C1436 1.374 . S
C1436 H1410 0.950 . S
C1436 C1432 1.385 . S
C1436 C1435 1.374 . S
C1437 C1434 1.499 . S
C1437 C1438 1.373 . S
C1437 C1439 1.389 . S
C1438 H1411 0.950 . S
C1438 C1424 1.377 . S
C1438 C1437 1.373 . S
C1439 C1423 1.377 . S
C1439 C1437 1.389 . S
C1439 C1440 1.524 . S
C1440 C1439 1.524 . S
C1440 C1441 1.397 . S
C1440 C1445 1.363 . S
C1441 H1412 0.950 . S
C1441 C1440 1.397 . S
C1441 C1442 1.334 . S
C1442 H1413 0.950 . S
C1442 C1441 1.334 . S
C1442 C1443 1.287 . S
C1443 C1442 1.287 . S
C1443 C1444 1.524 . S
C1443 H1446 0.999 . S
C1444 H1414 0.950 . S
C1444 C1443 1.524 . S
C1444 C1445 1.415 . S
C1445 H1415 0.950 . S
C1445 C1440 1.363 . S
C1445 C1444 1.415 . S
H1446 C1443 0.999 . S
H1447 C1428 0.913 . S
H1448 C1466 0.951 . S
H1449 C1468 0.951 . S
H1450 C1470 0.950 . S
H1451 C1471 0.950 . S
H1452 C1473 0.950 . S
H1453 C1476 0.950 . S
H1454 C1477 0.950 . S
H1455 C1479 0.950 . S
H1456 C1480 0.950 . S
H1457 C1481 0.951 1_655 S
H1458 C1483 0.951 . S
H1459 C1485 0.950 . S
H1460 C1486 0.950 . S
H1461 C1488 0.950 . S
H1462 C1491 0.950 . S
H1463 C1492 0.950 . S
H1464 C1494 0.950 . S
H1465 C1495 0.950 . S
C1466 H1448 0.951 . S
C1466 C1467 1.366 . S
C1466 C1468 1.388 . S
C1467 C1466 1.366 . S
C1467 C1471 1.385 . S
C1468 H1449 0.951 . S
C1468 C1466 1.388 . S
C1468 C1469 1.366 . S
C1469 C1468 1.366 . S
C1469 C1470 1.414 . S
C1469 C1472 1.499 . S
C1470 H1450 0.950 . S
C1470 C1469 1.414 . S
C1470 C1471 1.374 . S
C1471 H1451 0.950 . S
C1471 C1467 1.385 . S
C1471 C1470 1.374 . S
C1472 C1469 1.499 . S
C1472 C1473 1.373 . S
C1472 C1474 1.389 . S
C1473 H1452 0.950 . S
C1473 C1472 1.373 . S
C1473 C1489 1.377 . S
C1474 C1472 1.389 . S
C1474 C1475 1.524 . S
C1474 C1488 1.377 . S
C1475 C1474 1.524 . S
C1475 C1476 1.397 . S
C1475 C1480 1.363 . S
C1476 H1453 0.950 . S
C1476 C1475 1.397 . S
C1476 C1477 1.334 . S
C1477 H1454 0.950 . S
C1477 C1476 1.334 . S
C1477 C1478 1.287 . S
C1478 C1477 1.287 . S
C1478 C1479 1.524 . S
C1478 H1497 0.913 . S
C1479 H1455 0.950 . S
C1479 C1478 1.524 . S
C1479 C1480 1.415 . S
C1480 H1456 0.950 . S
C1480 C1475 1.363 . S
C1480 C1479 1.415 . S
C1481 H1457 0.951 1_455 S
C1481 C1482 1.366 . S
C1481 C1483 1.388 . S
C1482 C1481 1.366 . S
C1482 C1486 1.385 . S
C1483 H1458 0.951 . S
C1483 C1481 1.388 . S
C1483 C1484 1.366 . S
C1484 C1483 1.366 . S
C1484 C1485 1.414 . S
C1484 C1487 1.499 . S
C1485 H1459 0.950 . S
C1485 C1484 1.414 . S
C1485 C1486 1.374 . S
C1486 H1460 0.950 . S
C1486 C1482 1.385 . S
C1486 C1485 1.374 . S
C1487 C1484 1.499 . S
C1487 C1488 1.373 . S
C1487 C1489 1.389 . S
C1488 H1461 0.950 . S
C1488 C1474 1.377 . S
C1488 C1487 1.373 . S
C1489 C1473 1.377 . S
C1489 C1487 1.389 . S
C1489 C1490 1.524 . S
C1490 C1489 1.524 . S
C1490 C1491 1.397 . S
C1490 C1495 1.363 . S
C1491 H1462 0.950 . S
C1491 C1490 1.397 . S
C1491 C1492 1.334 . S
C1492 H1463 0.950 . S
C1492 C1491 1.334 . S
C1492 C1493 1.287 . S
C1493 C1492 1.287 . S
C1493 C1494 1.524 . S
C1493 H1496 0.999 . S
C1494 H1464 0.950 . S
C1494 C1493 1.524 . S
C1494 C1495 1.415 . S
C1495 H1465 0.950 . S
C1495 C1490 1.363 . S
C1495 C1494 1.415 . S
H1496 C1493 0.999 . S
H1497 C1478 0.913 . S
H1498 C1516 0.951 . S
H1499 C1518 0.951 . S
H1500 C1520 0.950 . S
H1501 C1521 0.950 . S
H1502 C1523 0.950 . S
H1503 C1526 0.950 1_545 S
H1504 C1527 0.950 . S
H1505 C1529 0.950 . S
H1506 C1530 0.950 . S
H1507 C1531 0.951 . S
H1508 C1533 0.951 . S
H1509 C1535 0.950 . S
H1510 C1536 0.950 . S
H1511 C1538 0.950 . S
H1512 C1541 0.950 . S
H1513 C1542 0.950 . S
H1514 C1544 0.950 . S
H1515 C1545 0.950 . S
C1516 H1498 0.951 . S
C1516 C1517 1.366 . S
C1516 C1518 1.388 . S
C1517 C1516 1.366 . S
C1517 C1521 1.385 . S
C1518 H1499 0.951 . S
C1518 C1516 1.388 . S
C1518 C1519 1.366 . S
C1519 C1518 1.366 . S
C1519 C1520 1.414 . S
C1519 C1522 1.499 . S
C1520 H1500 0.950 . S
C1520 C1519 1.414 . S
C1520 C1521 1.374 . S
C1521 H1501 0.950 . S
C1521 C1517 1.385 . S
C1521 C1520 1.374 . S
C1522 C1519 1.499 . S
C1522 C1523 1.373 . S
C1522 C1524 1.389 . S
C1523 H1502 0.950 . S
C1523 C1522 1.373 . S
C1523 C1539 1.377 . S
C1524 C1522 1.389 . S
C1524 C1525 1.534 . S
C1524 C1538 1.377 . S
C1525 C1524 1.534 . S
C1525 C1526 1.395 1_545 S
C1525 C1530 1.355 1_545 S
C1526 H1503 0.950 1_565 S
C1526 C1525 1.395 1_565 S
C1526 C1527 1.334 . S
C1527 H1504 0.950 . S
C1527 C1526 1.334 . S
C1527 C1528 1.287 . S
C1528 C1527 1.287 . S
C1528 C1529 1.524 . S
C1528 H1547 0.913 . S
C1529 H1505 0.950 . S
C1529 C1528 1.524 . S
C1529 C1530 1.415 . S
C1530 H1506 0.950 . S
C1530 C1525 1.355 1_565 S
C1530 C1529 1.415 . S
C1531 H1507 0.951 . S
C1531 C1532 1.366 . S
C1531 C1533 1.388 . S
C1532 C1531 1.366 . S
C1532 C1536 1.385 . S
C1533 H1508 0.951 . S
C1533 C1531 1.388 . S
C1533 C1534 1.366 . S
C1534 C1533 1.366 . S
C1534 C1535 1.414 . S
C1534 C1537 1.499 . S
C1535 H1509 0.950 . S
C1535 C1534 1.414 . S
C1535 C1536 1.374 . S
C1536 H1510 0.950 . S
C1536 C1532 1.385 . S
C1536 C1535 1.374 . S
C1537 C1534 1.499 . S
C1537 C1538 1.373 . S
C1537 C1539 1.389 . S
C1538 H1511 0.950 . S
C1538 C1524 1.377 . S
C1538 C1537 1.373 . S
C1539 C1523 1.377 . S
C1539 C1537 1.389 . S
C1539 C1540 1.524 . S
C1540 C1539 1.524 . S
C1540 C1541 1.397 . S
C1540 C1545 1.363 . S
C1541 H1512 0.950 . S
C1541 C1540 1.397 . S
C1541 C1542 1.334 . S
C1542 H1513 0.950 . S
C1542 C1541 1.334 . S
C1542 C1543 1.287 . S
C1543 C1542 1.287 . S
C1543 C1544 1.524 . S
C1543 H1546 0.999 . S
C1544 H1514 0.950 . S
C1544 C1543 1.524 . S
C1544 C1545 1.415 . S
C1545 H1515 0.950 . S
C1545 C1540 1.363 . S
C1545 C1544 1.415 . S
H1546 C1543 0.999 . S
H1547 C1528 0.913 . S
H1548 C1566 0.951 . S
H1549 C1568 0.951 . S
H1550 C1570 0.950 . S
H1551 C1571 0.950 . S
H1552 C1573 0.950 . S
H1553 C1576 0.950 . S
H1554 C1577 0.950 . S
H1555 C1579 0.950 . S
H1556 C1580 0.950 . S
H1557 C1581 0.951 . S
H1558 C1583 0.951 . S
H1559 C1585 0.950 . S
H1560 C1586 0.950 . S
H1561 C1588 0.950 . S
H1562 C1591 0.950 . S
H1563 C1592 0.950 . S
H1564 C1594 0.950 . S
H1565 C1595 0.950 . S
C1566 H1548 0.951 . S
C1566 C1567 1.366 . S
C1566 C1568 1.388 . S
C1567 C1566 1.366 . S
C1567 C1571 1.385 . S
C1568 H1549 0.951 . S
C1568 C1566 1.388 . S
C1568 C1569 1.366 . S
C1569 C1568 1.366 . S
C1569 C1570 1.414 . S
C1569 C1572 1.499 . S
C1570 H1550 0.950 . S
C1570 C1569 1.414 . S
C1570 C1571 1.374 . S
C1571 H1551 0.950 . S
C1571 C1567 1.385 . S
C1571 C1570 1.374 . S
C1572 C1569 1.499 . S
C1572 C1573 1.373 . S
C1572 C1574 1.389 . S
C1573 H1552 0.950 . S
C1573 C1572 1.373 . S
C1573 C1589 1.377 . S
C1574 C1572 1.389 . S
C1574 C1575 1.524 . S
C1574 C1588 1.377 . S
C1575 C1574 1.524 . S
C1575 C1576 1.397 . S
C1575 C1580 1.363 . S
C1576 H1553 0.950 . S
C1576 C1575 1.397 . S
C1576 C1577 1.334 . S
C1577 H1554 0.950 . S
C1577 C1576 1.334 . S
C1577 C1578 1.287 . S
C1578 C1577 1.287 . S
C1578 C1579 1.524 . S
C1578 H1597 0.913 . S
C1579 H1555 0.950 . S
C1579 C1578 1.524 . S
C1579 C1580 1.415 . S
C1580 H1556 0.950 . S
C1580 C1575 1.363 . S
C1580 C1579 1.415 . S
C1581 H1557 0.951 . S
C1581 C1582 1.366 . S
C1581 C1583 1.388 . S
C1582 C1581 1.366 . S
C1582 C1586 1.385 . S
C1583 H1558 0.951 . S
C1583 C1581 1.388 . S
C1583 C1584 1.366 . S
C1584 C1583 1.366 . S
C1584 C1585 1.414 . S
C1584 C1587 1.499 . S
C1585 H1559 0.950 . S
C1585 C1584 1.414 . S
C1585 C1586 1.374 . S
C1586 H1560 0.950 . S
C1586 C1582 1.385 . S
C1586 C1585 1.374 . S
C1587 C1584 1.499 . S
C1587 C1588 1.373 . S
C1587 C1589 1.389 . S
C1588 H1561 0.950 . S
C1588 C1574 1.377 . S
C1588 C1587 1.373 . S
C1589 C1573 1.377 . S
C1589 C1587 1.389 . S
C1589 C1590 1.524 . S
C1590 C1589 1.524 . S
C1590 C1591 1.397 . S
C1590 C1595 1.363 . S
C1591 H1562 0.950 . S
C1591 C1590 1.397 . S
C1591 C1592 1.334 . S
C1592 H1563 0.950 . S
C1592 C1591 1.334 . S
C1592 C1593 1.287 . S
C1593 C1592 1.287 . S
C1593 C1594 1.524 . S
C1593 H1596 0.999 . S
C1594 H1564 0.950 . S
C1594 C1593 1.524 . S
C1594 C1595 1.415 . S
C1595 H1565 0.950 . S
C1595 C1590 1.363 . S
C1595 C1594 1.415 . S
H1596 C1593 0.999 . S
H1597 C1578 0.913 . S
H1598 C1616 0.951 . S
H1599 C1618 0.951 . S
H1600 C1620 0.950 . S
H1601 C1621 0.950 . S
H1602 C1623 0.950 . S
H1603 C1626 0.950 . S
H1604 C1627 0.950 . S
H1605 C1629 0.950 . S
H1606 C1630 0.950 . S
H1607 C1631 0.951 . S
H1608 C1633 0.951 . S
H1609 C1635 0.950 . S
H1610 C1636 0.950 . S
H1611 C1638 0.950 . S
H1612 C1641 0.950 . S
H1613 C1642 0.950 . S
H1614 C1644 0.950 . S
H1615 C1645 0.950 . S
C1616 H1598 0.951 . S
C1616 C1617 1.366 . S
C1616 C1618 1.388 . S
C1617 C1616 1.366 . S
C1617 C1621 1.385 . S
C1618 H1599 0.951 . S
C1618 C1616 1.388 . S
C1618 C1619 1.366 . S
C1619 C1618 1.366 . S
C1619 C1620 1.414 . S
C1619 C1622 1.499 . S
C1620 H1600 0.950 . S
C1620 C1619 1.414 . S
C1620 C1621 1.374 . S
C1621 H1601 0.950 . S
C1621 C1617 1.385 . S
C1621 C1620 1.374 . S
C1622 C1619 1.499 . S
C1622 C1623 1.373 . S
C1622 C1624 1.389 . S
C1623 H1602 0.950 . S
C1623 C1622 1.373 . S
C1623 C1639 1.377 . S
C1624 C1622 1.389 . S
C1624 C1625 1.524 . S
C1624 C1638 1.377 . S
C1625 C1624 1.524 . S
C1625 C1626 1.397 . S
C1625 C1630 1.363 . S
C1626 H1603 0.950 . S
C1626 C1625 1.397 . S
C1626 C1627 1.334 . S
C1627 H1604 0.950 . S
C1627 C1626 1.334 . S
C1627 C1628 1.287 . S
C1628 C1627 1.287 . S
C1628 C1629 1.524 . S
C1628 H1647 0.913 . S
C1629 H1605 0.950 . S
C1629 C1628 1.524 . S
C1629 C1630 1.415 . S
C1630 H1606 0.950 . S
C1630 C1625 1.363 . S
C1630 C1629 1.415 . S
C1631 H1607 0.951 . S
C1631 C1632 1.366 . S
C1631 C1633 1.388 . S
C1632 C1631 1.366 . S
C1632 C1636 1.385 . S
C1633 H1608 0.951 . S
C1633 C1631 1.388 . S
C1633 C1634 1.366 . S
C1634 C1633 1.366 . S
C1634 C1635 1.414 . S
C1634 C1637 1.499 . S
C1635 H1609 0.950 . S
C1635 C1634 1.414 . S
C1635 C1636 1.374 . S
C1636 H1610 0.950 . S
C1636 C1632 1.385 . S
C1636 C1635 1.374 . S
C1637 C1634 1.499 . S
C1637 C1638 1.373 . S
C1637 C1639 1.389 . S
C1638 H1611 0.950 . S
C1638 C1624 1.377 . S
C1638 C1637 1.373 . S
C1639 C1623 1.377 . S
C1639 C1637 1.389 . S
C1639 C1640 1.524 . S
C1640 C1639 1.524 . S
C1640 C1641 1.397 . S
C1640 C1645 1.363 . S
C1641 H1612 0.950 . S
C1641 C1640 1.397 . S
C1641 C1642 1.334 . S
C1642 H1613 0.950 . S
C1642 C1641 1.334 . S
C1642 C1643 1.287 . S
C1643 C1642 1.287 . S
C1643 C1644 1.524 . S
C1643 H1646 0.999 . S
C1644 H1614 0.950 . S
C1644 C1643 1.524 . S
C1644 C1645 1.415 . S
C1645 H1615 0.950 . S
C1645 C1640 1.363 . S
C1645 C1644 1.415 . S
H1646 C1643 0.999 . S
H1647 C1628 0.913 . S
H1648 C1666 0.951 . S
H1649 C1668 0.951 . S
H1650 C1670 0.950 . S
H1651 C1671 0.950 . S
H1652 C1673 0.950 1_455 S
H1653 C1676 0.950 . S
H1654 C1677 0.950 . S
H1655 C1679 0.950 . S
H1656 C1680 0.950 . S
H1657 C1681 0.951 1_455 S
H1658 C1683 0.951 . S
H1659 C1685 0.950 . S
H1660 C1686 0.950 . S
H1661 C1688 0.950 . S
H1662 C1691 0.950 . S
H1663 C1692 0.950 . S
H1664 C1694 0.950 . S
H1665 C1695 0.950 . S
C1666 H1648 0.951 . S
C1666 C1667 1.366 . S
C1666 C1668 1.388 . S
C1667 C1666 1.366 . S
C1667 C1671 1.385 . S
C1668 H1649 0.951 . S
C1668 C1666 1.388 . S
C1668 C1669 1.366 . S
C1669 C1668 1.366 . S
C1669 C1670 1.414 . S
C1669 C1672 1.499 . S
C1670 H1650 0.950 . S
C1670 C1669 1.414 . S
C1670 C1671 1.374 . S
C1671 H1651 0.950 . S
C1671 C1667 1.385 . S
C1671 C1670 1.374 . S
C1672 C1669 1.499 . S
C1672 C1673 1.373 . S
C1672 C1674 1.389 . S
C1673 H1652 0.950 1_655 S
C1673 C1672 1.373 . S
C1673 C1689 1.377 . S
C1674 C1672 1.389 . S
C1674 C1675 1.524 . S
C1674 C1688 1.377 . S
C1675 C1674 1.524 . S
C1675 C1676 1.397 . S
C1675 C1680 1.363 . S
C1676 H1653 0.950 . S
C1676 C1675 1.397 . S
C1676 C1677 1.334 . S
C1677 H1654 0.950 . S
C1677 C1676 1.334 . S
C1677 C1678 1.287 . S
C1678 C1677 1.287 . S
C1678 C1679 1.524 . S
C1678 H1697 0.913 . S
C1679 H1655 0.950 . S
C1679 C1678 1.524 . S
C1679 C1680 1.415 . S
C1680 H1656 0.950 . S
C1680 C1675 1.363 . S
C1680 C1679 1.415 . S
C1681 H1657 0.951 1_655 S
C1681 C1682 1.366 . S
C1681 C1683 1.388 . S
C1682 C1681 1.366 . S
C1682 C1686 1.385 . S
C1683 H1658 0.951 . S
C1683 C1681 1.388 . S
C1683 C1684 1.366 . S
C1684 C1683 1.366 . S
C1684 C1685 1.414 . S
C1684 C1687 1.499 . S
C1685 H1659 0.950 . S
C1685 C1684 1.414 . S
C1685 C1686 1.374 . S
C1686 H1660 0.950 . S
C1686 C1682 1.385 . S
C1686 C1685 1.374 . S
C1687 C1684 1.499 . S
C1687 C1688 1.373 . S
C1687 C1689 1.389 . S
C1688 H1661 0.950 . S
C1688 C1674 1.377 . S
C1688 C1687 1.373 . S
C1689 C1673 1.377 . S
C1689 C1687 1.389 . S
C1689 C1690 1.524 1_655 S
C1690 C1689 1.524 1_455 S
C1690 C1691 1.397 . S
C1690 C1695 1.363 . S
C1691 H1662 0.950 . S
C1691 C1690 1.397 . S
C1691 C1692 1.334 . S
C1692 H1663 0.950 . S
C1692 C1691 1.334 . S
C1692 C1693 1.287 . S
C1693 C1692 1.287 . S
C1693 C1694 1.524 . S
C1693 H1696 0.999 . S
C1694 H1664 0.950 . S
C1694 C1693 1.524 . S
C1694 C1695 1.415 . S
C1695 H1665 0.950 . S
C1695 C1690 1.363 . S
C1695 C1694 1.415 . S
H1696 C1693 0.999 . S
H1697 C1678 0.913 . S
H1698 C1716 0.951 . S
H1699 C1718 0.951 . S
H1700 C1720 0.950 . S
H1701 C1721 0.950 . S
H1702 C1723 0.950 . S
H1703 C1726 0.957 . S
H1704 C1727 0.950 . S
H1705 C1729 0.950 . S
H1706 C1730 0.950 . S
H1707 C1731 0.951 1_545 S
H1708 C1733 0.931 1_545 S
H1709 C1735 0.950 . S
H1710 C1736 0.950 . S
H1711 C1738 0.950 . S
H1712 C1741 0.950 . S
H1713 C1742 0.950 . S
H1714 C1744 0.950 . S
H1715 C1745 0.950 . S
C1716 H1698 0.951 . S
C1716 C1717 1.366 . S
C1716 C1718 1.388 . S
C1717 C1716 1.366 . S
C1717 C1721 1.385 . S
C1718 H1699 0.951 . S
C1718 C1716 1.388 . S
C1718 C1719 1.366 . S
C1719 C1718 1.366 . S
C1719 C1720 1.414 . S
C1719 C1722 1.499 . S
C1720 H1700 0.950 . S
C1720 C1719 1.414 . S
C1720 C1721 1.374 . S
C1721 H1701 0.950 . S
C1721 C1717 1.385 . S
C1721 C1720 1.374 . S
C1722 C1719 1.499 . S
C1722 C1723 1.373 . S
C1722 C1724 1.389 . S
C1723 H1702 0.950 . S
C1723 C1722 1.373 . S
C1723 C1739 1.377 . S
C1724 C1722 1.389 . S
C1724 C1725 1.524 . S
C1724 C1738 1.377 . S
C1725 C1724 1.524 . S
C1725 C1726 1.385 1_565 S
C1725 C1730 1.363 . S
C1726 H1703 0.957 . S
C1726 C1725 1.385 1_545 S
C1726 C1727 1.340 . S
C1727 H1704 0.950 . S
C1727 C1726 1.340 . S
C1727 C1728 1.278 1_545 S
C1728 C1727 1.278 1_565 S
C1728 C1729 1.542 . S
C1728 H1747 0.906 1_565 S
C1729 H1705 0.950 . S
C1729 C1728 1.542 . S
C1729 C1730 1.415 . S
C1730 H1706 0.950 . S
C1730 C1725 1.363 . S
C1730 C1729 1.415 . S
C1731 H1707 0.951 1_565 S
C1731 C1732 1.366 . S
C1731 C1733 1.388 . S
C1732 C1731 1.366 . S
C1732 C1736 1.385 . S
C1733 H1708 0.931 1_565 S
C1733 C1731 1.388 . S
C1733 C1734 1.366 . S
C1734 C1733 1.366 . S
C1734 C1735 1.414 . S
C1734 C1737 1.499 . S
C1735 H1709 0.950 . S
C1735 C1734 1.414 . S
C1735 C1736 1.374 . S
C1736 H1710 0.950 . S
C1736 C1732 1.385 . S
C1736 C1735 1.374 . S
C1737 C1734 1.499 . S
C1737 C1738 1.373 . S
C1737 C1739 1.389 . S
C1738 H1711 0.950 . S
C1738 C1724 1.377 . S
C1738 C1737 1.373 . S
C1739 C1723 1.377 . S
C1739 C1737 1.389 . S
C1739 C1740 1.524 . S
C1740 C1739 1.524 . S
C1740 C1741 1.397 . S
C1740 C1745 1.363 . S
C1741 H1712 0.950 . S
C1741 C1740 1.397 . S
C1741 C1742 1.334 . S
C1742 H1713 0.950 . S
C1742 C1741 1.334 . S
C1742 C1743 1.287 . S
C1743 C1742 1.287 . S
C1743 C1744 1.524 . S
C1743 H1746 0.999 . S
C1744 H1714 0.950 . S
C1744 C1743 1.524 . S
C1744 C1745 1.415 . S
C1745 H1715 0.950 . S
C1745 C1740 1.363 . S
C1745 C1744 1.415 . S
H1746 C1743 0.999 . S
H1747 C1728 0.906 1_545 S
H1748 C1766 0.951 . S
H1749 C1768 0.951 . S
H1750 C1770 0.950 . S
H1751 C1771 0.950 . S
H1752 C1773 0.950 . S
H1753 C1776 0.950 . S
H1754 C1777 0.950 . S
H1755 C1779 0.950 . S
H1756 C1780 0.950 . S
H1757 C1781 0.951 . S
H1758 C1783 0.951 . S
H1759 C1785 0.950 . S
H1760 C1786 0.950 . S
H1761 C1788 0.950 . S
H1762 C1791 0.950 . S
H1763 C1792 0.950 . S
H1764 C1794 0.950 . S
H1765 C1795 0.950 . S
C1766 H1748 0.951 . S
C1766 C1767 1.366 . S
C1766 C1768 1.388 . S
C1767 C1766 1.366 . S
C1767 C1771 1.385 . S
C1768 H1749 0.951 . S
C1768 C1766 1.388 . S
C1768 C1769 1.366 . S
C1769 C1768 1.366 . S
C1769 C1770 1.414 . S
C1769 C1772 1.499 . S
C1770 H1750 0.950 . S
C1770 C1769 1.414 . S
C1770 C1771 1.374 . S
C1771 H1751 0.950 . S
C1771 C1767 1.385 . S
C1771 C1770 1.374 . S
C1772 C1769 1.499 . S
C1772 C1773 1.373 . S
C1772 C1774 1.389 . S
C1773 H1752 0.950 . S
C1773 C1772 1.373 . S
C1773 C1789 1.377 . S
C1774 C1772 1.389 . S
C1774 C1775 1.524 . S
C1774 C1788 1.377 . S
C1775 C1774 1.524 . S
C1775 C1776 1.397 . S
C1775 C1780 1.363 . S
C1776 H1753 0.950 . S
C1776 C1775 1.397 . S
C1776 C1777 1.334 . S
C1777 H1754 0.950 . S
C1777 C1776 1.334 . S
C1777 C1778 1.287 . S
C1778 C1777 1.287 . S
C1778 C1779 1.524 . S
C1778 H1797 0.913 . S
C1779 H1755 0.950 . S
C1779 C1778 1.524 . S
C1779 C1780 1.415 . S
C1780 H1756 0.950 . S
C1780 C1775 1.363 . S
C1780 C1779 1.415 . S
C1781 H1757 0.951 . S
C1781 C1782 1.366 . S
C1781 C1783 1.388 . S
C1782 C1781 1.366 . S
C1782 C1786 1.385 . S
C1783 H1758 0.951 . S
C1783 C1781 1.388 . S
C1783 C1784 1.366 . S
C1784 C1783 1.366 . S
C1784 C1785 1.414 . S
C1784 C1787 1.499 . S
C1785 H1759 0.950 . S
C1785 C1784 1.414 . S
C1785 C1786 1.374 . S
C1786 H1760 0.950 . S
C1786 C1782 1.385 . S
C1786 C1785 1.374 . S
C1787 C1784 1.499 . S
C1787 C1788 1.373 . S
C1787 C1789 1.389 . S
C1788 H1761 0.950 . S
C1788 C1774 1.377 . S
C1788 C1787 1.373 . S
C1789 C1773 1.377 . S
C1789 C1787 1.389 . S
C1789 C1790 1.524 . S
C1790 C1789 1.524 . S
C1790 C1791 1.397 . S
C1790 C1795 1.363 . S
C1791 H1762 0.950 . S
C1791 C1790 1.397 . S
C1791 C1792 1.334 . S
C1792 H1763 0.950 . S
C1792 C1791 1.334 . S
C1792 C1793 1.287 . S
C1793 C1792 1.287 . S
C1793 C1794 1.524 . S
C1793 H1796 0.999 . S
C1794 H1764 0.950 . S
C1794 C1793 1.524 . S
C1794 C1795 1.415 . S
C1795 H1765 0.950 . S
C1795 C1790 1.363 . S
C1795 C1794 1.415 . S
H1796 C1793 0.999 . S
H1797 C1778 0.913 . S
H1798 C1816 0.951 . S
H1799 C1818 0.951 . S
H1800 C1820 0.950 . S
H1801 C1821 0.950 . S
H1802 C1823 0.950 . S
H1803 C1826 0.950 . S
H1804 C1827 0.950 . S
H1805 C1829 0.950 . S
H1806 C1830 0.950 . S
H1807 C1831 0.951 . S
H1808 C1833 0.951 . S
H1809 C1835 0.950 . S
H1810 C1836 0.950 . S
H1811 C1838 0.950 . S
H1812 C1841 0.950 . S
H1813 C1842 0.950 . S
H1814 C1844 0.950 . S
H1815 C1845 0.950 . S
C1816 H1798 0.951 . S
C1816 C1817 1.366 . S
C1816 C1818 1.388 . S
C1817 C1816 1.366 . S
C1817 C1821 1.385 . S
C1818 H1799 0.951 . S
C1818 C1816 1.388 . S
C1818 C1819 1.366 . S
C1819 C1818 1.366 . S
C1819 C1820 1.414 . S
C1819 C1822 1.499 . S
C1820 H1800 0.950 . S
C1820 C1819 1.414 . S
C1820 C1821 1.374 . S
C1821 H1801 0.950 . S
C1821 C1817 1.385 . S
C1821 C1820 1.374 . S
C1822 C1819 1.499 . S
C1822 C1823 1.373 . S
C1822 C1824 1.389 . S
C1823 H1802 0.950 . S
C1823 C1822 1.373 . S
C1823 C1839 1.377 . S
C1824 C1822 1.389 . S
C1824 C1825 1.524 . S
C1824 C1838 1.377 . S
C1825 C1824 1.524 . S
C1825 C1826 1.397 . S
C1825 C1830 1.363 . S
C1826 H1803 0.950 . S
C1826 C1825 1.397 . S
C1826 C1827 1.334 . S
C1827 H1804 0.950 . S
C1827 C1826 1.334 . S
C1827 C1828 1.287 . S
C1828 C1827 1.287 . S
C1828 C1829 1.524 . S
C1828 H1847 0.913 . S
C1829 H1805 0.950 . S
C1829 C1828 1.524 . S
C1829 C1830 1.415 . S
C1830 H1806 0.950 . S
C1830 C1825 1.363 . S
C1830 C1829 1.415 . S
C1831 H1807 0.951 . S
C1831 C1832 1.366 . S
C1831 C1833 1.388 . S
C1832 C1831 1.366 . S
C1832 C1836 1.385 . S
C1833 H1808 0.951 . S
C1833 C1831 1.388 . S
C1833 C1834 1.366 . S
C1834 C1833 1.366 . S
C1834 C1835 1.414 . S
C1834 C1837 1.499 . S
C1835 H1809 0.950 . S
C1835 C1834 1.414 . S
C1835 C1836 1.374 . S
C1836 H1810 0.950 . S
C1836 C1832 1.385 . S
C1836 C1835 1.374 . S
C1837 C1834 1.499 . S
C1837 C1838 1.373 . S
C1837 C1839 1.389 . S
C1838 H1811 0.950 . S
C1838 C1824 1.377 . S
C1838 C1837 1.373 . S
C1839 C1823 1.377 . S
C1839 C1837 1.389 . S
C1839 C1840 1.524 . S
C1840 C1839 1.524 . S
C1840 C1841 1.397 . S
C1840 C1845 1.363 . S
C1841 H1812 0.950 . S
C1841 C1840 1.397 . S
C1841 C1842 1.334 . S
C1842 H1813 0.950 . S
C1842 C1841 1.334 . S
C1842 C1843 1.287 . S
C1843 C1842 1.287 . S
C1843 C1844 1.524 . S
C1843 H1846 0.999 . S
C1844 H1814 0.950 . S
C1844 C1843 1.524 . S
C1844 C1845 1.415 . S
C1845 H1815 0.950 . S
C1845 C1840 1.363 . S
C1845 C1844 1.415 . S
H1846 C1843 0.999 . S
H1847 C1828 0.913 . S
C667 C255 2.086 . S
C682 C380 2.194 . S
C732 C463 2.221 . S
C717 C294 2.095 . S
C782 C548 2.183 . S
C767 C177 2.075 . S
C832 C632 2.169 . S
C817 C216 2.062 . S
C882 C368 2.194 1_565 S
C867 C99 2.094 . S
C917 C138 2.088 . S
C932 C451 2.222 . S
C967 C21 2.083 . S
C982 C536 2.184 . S
C1017 C60 2.069 . S
C1032 C620 2.168 1_655 S
C1082 C370 0.431 1_455 S
C1067 C196 0.314 . S
C1132 C466 0.527 . S
C1117 C235 0.296 . S
C1182 C538 0.428 . S
C1167 C289 0.323 . S
C1217 C157 0.306 . S
C1232 C622 0.425 . S
C1267 C40 0.298 . S
C1282 C382 0.430 . S
C1332 C454 0.524 . S
C1317 C79 0.282 . S
C1382 C550 0.430 . S
C1367 C133 0.310 . S
C1417 C1 0.288 . S
C1432 C634 0.428 . S
C1467 C211 2.416 . S
C1482 C367 2.656 . S
C1517 C250 2.397 . S
C1532 C452 2.658 . S
C1582 C535 2.685 . S
C1567 C274 2.448 . S
C1632 C619 2.681 . S
C1617 C172 2.439 . S
C1667 C55 2.414 . S
C1682 C379 2.656 . S
C1732 C464 2.659 . S
C1717 C94 2.396 . S
C1782 C547 2.686 . S
C1767 C118 2.445 . S
C1817 C16 2.438 . S
C1832 C631 2.681 . S
