# Generated by pormake.
# Topology anh, (6,3)-cn, num edge types: 1
# Building blocks:
#     Node 0, Type 0, BuildingBlock: INOVEN_clean_sbu_0, # of connection points: 6
#     Node 1, Type 0, BuildingBlock: INOVEN_clean_sbu_0, # of connection points: 6
#     Node 2, Type 0, BuildingBlock: INOVEN_clean_sbu_0, # of connection points: 6
#     Node 3, Type 1, BuildingBlock: BETDAH_clean_linker_0, # of connection points: 3
#     Node 4, Type 1, BuildingBlock: BETDAH_clean_linker_0, # of connection points: 3
#     Node 5, Type 1, BuildingBlock: BETDAH_clean_linker_0, # of connection points: 3
#     Node 6, Type 1, BuildingBlock: BETDAH_clean_linker_0, # of connection points: 3
#     Node 7, Type 1, BuildingBlock: BETDAH_clean_linker_0, # of connection points: 3
#     Node 8, Type 1, BuildingBlock: BETDAH_clean_linker_0, # of connection points: 3
#     Edge 9, Type (0, 1), BuildingBlock: UVAHIK_clean_linker_0, # of connection points: 2
#     Edge 10, Type (0, 1), BuildingBlock: UVAHIK_clean_linker_0, # of connection points: 2
#     Edge 11, Type (0, 1), BuildingBlock: UVAHIK_clean_linker_0, # of connection points: 2
#     Edge 12, Type (0, 1), BuildingBlock: UVAHIK_clean_linker_0, # of connection points: 2
#     Edge 13, Type (0, 1), BuildingBlock: UVAHIK_clean_linker_0, # of connection points: 2
#     Edge 14, Type (0, 1), BuildingBlock: UVAHIK_clean_linker_0, # of connection points: 2
#     Edge 15, Type (0, 1), BuildingBlock: UVAHIK_clean_linker_0, # of connection points: 2
#     Edge 16, Type (0, 1), BuildingBlock: UVAHIK_clean_linker_0, # of connection points: 2
#     Edge 17, Type (0, 1), BuildingBlock: UVAHIK_clean_linker_0, # of connection points: 2
#     Edge 18, Type (0, 1), BuildingBlock: UVAHIK_clean_linker_0, # of connection points: 2
#     Edge 19, Type (0, 1), BuildingBlock: UVAHIK_clean_linker_0, # of connection points: 2
#     Edge 20, Type (0, 1), BuildingBlock: UVAHIK_clean_linker_0, # of connection points: 2
#     Edge 21, Type (0, 1), BuildingBlock: UVAHIK_clean_linker_0, # of connection points: 2
#     Edge 22, Type (0, 1), BuildingBlock: UVAHIK_clean_linker_0, # of connection points: 2
#     Edge 23, Type (0, 1), BuildingBlock: UVAHIK_clean_linker_0, # of connection points: 2
#     Edge 24, Type (0, 1), BuildingBlock: UVAHIK_clean_linker_0, # of connection points: 2
#     Edge 25, Type (0, 1), BuildingBlock: UVAHIK_clean_linker_0, # of connection points: 2
#     Edge 26, Type (0, 1), BuildingBlock: UVAHIK_clean_linker_0, # of connection points: 2
# Relax obj value: 0.115
# Max RMSD: 0.169
# Mean RMSD: 0.104
data_MOF--net-anh--node1-INOVEN_clean_sbu_0--node2-BETDAH_clean_linker_0--edge1-UVAHIK_clean_linker_0
_symmetry_space_group_name_H-M    P1
_symmetry_Int_Tables_number       1
_symmetry_cell_setting            triclinic
loop_
_symmetry_equiv_pos_as_xyz
'x, y, z'
_cell_length_a     39.480738
_cell_length_b     47.388053
_cell_length_c     63.659672
_cell_angle_alpha  95.012466
_cell_angle_beta   90.392556
_cell_angle_gamma 127.73549
loop_
_atom_site_label
_atom_site_type_symbol
_atom_site_fract_x
_atom_site_fract_y
_atom_site_fract_z
_atom_type_partial_charge
Gd0 Gd 0.11696 0.53717 0.14989 0.0
Gd1 Gd 0.07671 0.5676 0.17366 0.0
C2 C 0.17262 0.62357 0.16303 0.0
C3 C 0.1529 0.52069 0.12309 0.0
C4 C 0.18932 0.51988 0.12303 0.0
C5 C 0.21314 0.52706 0.14191 0.0
C6 C 0.19714 0.50778 0.10426 0.0
C7 C 0.24922 0.50616 0.12355 0.0
C8 C 0.22687 0.501 0.10448 0.0
C9 C 0.24298 0.52029 0.14217 0.0
C10 C 0.12372 0.53992 0.19239 0.0
C11 C 1.01958 0.48178 0.16011 0.0
C12 C 1.03886 0.58265 0.20004 0.0
C13 C 0.99426 0.56513 0.20472 0.0
C14 C 0.961 0.53258 0.19308 0.0
C15 C 0.98459 0.58121 0.22049 0.0
C16 C 0.90822 0.5331 0.21218 0.0
C17 C 0.9418 0.56534 0.22419 0.0
C18 C 0.91837 0.51666 0.19679 0.0
C19 C 0.07274 0.5655 0.13089 0.0
O20 O 0.16589 0.59771 0.14916 0.0
O21 O 0.14497 0.61664 0.1772 0.0
O22 O 0.12174 0.4977 0.13418 0.0
O23 O 0.1617 0.55229 0.12554 0.0
O24 O 0.12192 0.51625 0.17952 0.0
O25 O 0.12687 0.56288 0.18225 0.0
O26 O 1.02638 0.50765 0.17384 0.0
O27 O 1.04739 0.48872 0.14597 0.0
O28 O 1.04889 0.59446 0.18151 0.0
O29 O 1.05415 0.5659 0.20474 0.0
O30 O 0.0773 0.59071 0.14364 0.0
O31 O 0.06733 0.54193 0.14129 0.0
H32 H 0.20731 0.5364 0.15657 0.0
H33 H 0.17873 0.50191 0.08959 0.0
H34 H 0.23039 0.48967 0.08992 0.0
H35 H 0.26005 0.52491 0.15704 0.0
H36 H 0.96798 0.51994 0.18075 0.0
H37 H 1.01007 0.60633 0.22965 0.0
H38 H 0.93497 0.57853 0.23619 0.0
H39 H 0.89333 0.49225 0.18695 0.0
Gd40 Gd 0.65586 0.05706 0.48589 0.0
Gd41 Gd 0.59837 0.07598 0.47398 0.0
C42 C 0.55386 0.99401 0.4736 0.0
C43 C 0.6906 0.0315 0.50253 0.0
C44 C 0.67785 0.99696 0.50829 0.0
C45 C 0.64249 0.96412 0.49768 0.0
C46 C 0.70229 0.99695 0.52433 0.0
C47 C 0.65769 0.93163 0.51843 0.0
C48 C 0.69232 0.96465 0.52938 0.0
C49 C 0.6325 0.93172 0.5027 0.0
C50 C 0.65334 0.06605 0.44481 0.0
C51 C 0.70192 0.13971 0.48452 0.0
C52 C 0.56482 0.10349 0.45892 0.0
C53 C 0.5713 0.13725 0.4649 0.0
C54 C 0.59157 0.15694 0.48471 0.0
C55 C 0.5573 0.15002 0.45092 0.0
C56 C 0.58273 0.20159 0.47678 0.0
C57 C 0.56301 0.18194 0.45677 0.0
C58 C 0.59705 0.18868 0.49063 0.0
C59 C 0.60237 0.06881 0.51533 0.0
O60 O 0.58834 0.00474 0.48543 0.0
O61 O 0.55312 0.01695 0.46365 0.0
O62 O 0.68919 0.03414 0.48231 0.0
O63 O 0.67634 0.04619 0.51374 0.0
O64 O 0.68772 0.07595 0.45556 0.0
O65 O 0.62145 0.05012 0.45584 0.0
O66 O 0.66477 0.12946 0.47604 0.0
O67 O 0.70596 0.11671 0.49203 0.0
O68 O 0.54697 0.08032 0.47277 0.0
O69 O 0.5974 0.10676 0.45098 0.0
O70 O 0.56812 0.05958 0.50491 0.0
O71 O 0.63353 0.08376 0.50388 0.0
H72 H 0.62312 0.96357 0.48526 0.0
H73 H 0.7295 0.02204 0.53279 0.0
H74 H 0.71188 0.96557 0.54185 0.0
H75 H 0.60582 0.90686 0.49383 0.0
H76 H 0.60278 0.14755 0.4957 0.0
H77 H 0.54189 0.13528 0.4355 0.0
H78 H 0.55223 0.19133 0.44555 0.0
H79 H 0.61179 0.20269 0.50626 0.0
Gd80 Gd 0.63189 0.58762 0.84408 0.0
Gd81 Gd 0.56929 0.50701 0.84378 0.0
C82 C 0.52899 0.5479 0.84674 0.0
C83 C 0.6734 0.65318 0.83574 0.0
C84 C 0.66451 0.67724 0.82925 0.0
C85 C 0.62827 0.67396 0.83539 0.0
C86 C 0.69303 0.70407 0.81669 0.0
C87 C 0.64989 0.72488 0.8168 0.0
C88 C 0.68584 0.72768 0.81052 0.0
C89 C 0.62106 0.69764 0.82926 0.0
C90 C 0.62089 0.56346 0.88211 0.0
C91 C 0.67344 0.54726 0.84319 0.0
C92 C 0.53098 0.44143 0.85105 0.0
C93 C 0.53769 0.41445 0.84532 0.0
C94 C 0.54841 0.41011 0.82493 0.0
C95 C 0.53438 0.39333 0.86053 0.0
C96 C 0.55123 0.36313 0.83489 0.0
C97 C 0.54126 0.36796 0.8554 0.0
C98 C 0.55482 0.38453 0.81973 0.0
C99 C 0.57989 0.53022 0.80545 0.0
O100 O 0.56601 0.57516 0.84023 0.0
O101 O 0.52458 0.51973 0.85253 0.0
O102 O 0.66437 0.64372 0.85485 0.0
O103 O 0.6628 0.62674 0.82158 0.0
O104 O 0.6579 0.59051 0.87672 0.0
O105 O 0.59198 0.55199 0.86772 0.0
O106 O 0.63409 0.5176 0.84506 0.0
O107 O 0.68081 0.57801 0.84096 0.0
O108 O 0.51831 0.45025 0.83558 0.0
O109 O 0.56047 0.46911 0.86433 0.0
O110 O 0.54351 0.50288 0.81107 0.0
O111 O 0.60931 0.54242 0.81978 0.0
H112 H 0.60572 0.65326 0.84501 0.0
H113 H 0.72117 0.70698 0.8118 0.0
H114 H 0.70897 0.74862 0.80118 0.0
H115 H 0.59283 0.69453 0.83416 0.0
H116 H 0.55189 0.42651 0.813 0.0
H117 H 0.52646 0.39647 0.87639 0.0
H118 H 0.53811 0.35172 0.86735 0.0
H119 H 0.56308 0.38173 0.8039 0.0
H120 H 0.54239 0.98494 0.22435 0.0
H121 H 0.64214 0.09241 0.21047 0.0
H122 H 0.55212 0.01089 0.16057 0.0
C123 C 0.55844 0.00433 0.21302 0.0
C124 C 0.54294 0.99358 0.19168 0.0
C125 C 0.59425 0.03982 0.21994 0.0
C126 C 0.61458 0.06498 0.2052 0.0
C127 C 0.59949 0.05439 0.18367 0.0
C128 C 0.5639 0.01877 0.1771 0.0
N129 N 0.61883 0.07861 0.16811 0.0
C130 C 0.65559 0.11416 0.17175 0.0
H131 H 0.61893 0.50677 0.58532 0.0
H132 H 0.60457 0.58776 0.57557 0.0
H133 H 0.59824 0.52203 0.52223 0.0
C134 C 0.61491 0.52133 0.57467 0.0
C135 C 0.60917 0.51117 0.55277 0.0
C136 C 0.61287 0.54869 0.58302 0.0
C137 C 0.60619 0.56671 0.56917 0.0
C138 C 0.60127 0.55723 0.54717 0.0
C139 C 0.60236 0.52934 0.53919 0.0
N140 N 0.59443 0.57457 0.53253 0.0
C141 C 0.59763 0.60528 0.53769 0.0
H142 H 1.03621 0.56087 0.91006 0.0
H143 H 0.13988 0.55698 0.89672 0.0
H144 H 1.05512 0.54047 0.84565 0.0
C145 C 1.05385 0.55732 0.89859 0.0
C146 C 1.04043 0.5499 0.87698 0.0
C147 C 0.08931 0.55968 0.90584 0.0
C148 C 0.11259 0.55523 0.89114 0.0
C149 C 0.1008 0.54889 0.86933 0.0
C150 C 0.06468 0.54618 0.86241 0.0
N151 N 0.12394 0.54467 0.85389 0.0
C152 C 0.16081 0.54727 0.85774 0.0
H153 H 0.17995 0.62784 0.41156 0.0
H154 H 0.08383 0.52144 0.42813 0.0
H155 H 0.17104 0.60789 0.47659 0.0
C156 C 0.164 0.60961 0.4235 0.0
C157 C 0.17926 0.62247 0.44478 0.0
C158 C 0.12964 0.5733 0.4173 0.0
C159 C 0.11038 0.54946 0.43279 0.0
C160 C 0.12538 0.56203 0.45426 0.0
C161 C 0.15981 0.59837 0.46005 0.0
N162 N 0.10693 0.53915 0.47053 0.0
C163 C 0.07132 0.50307 0.46756 0.0
H164 H 0.60297 0.10231 0.73681 0.0
H165 H 0.63259 0.03112 0.74755 0.0
H166 H 0.62557 0.09003 0.80043 0.0
C167 C 0.60985 0.08985 0.74777 0.0
C168 C 0.6131 0.09925 0.76964 0.0
C169 C 0.61677 0.06536 0.73975 0.0
C170 C 0.62716 0.04997 0.75377 0.0
C171 C 0.63022 0.05892 0.77576 0.0
C172 C 0.62351 0.08364 0.78348 0.0
N173 N 0.64001 0.04382 0.79066 0.0
C174 C 0.6395 0.01437 0.78593 0.0
H175 H 0.57511 0.40979 0.08149 0.0
H176 H 0.45336 0.32266 0.04866 0.0
H177 H 0.48066 0.31892 0.11316 0.0
C178 C 0.54421 0.38348 0.081 0.0
C179 C 0.53175 0.36571 0.09925 0.0
C180 C 0.51653 0.36814 0.06246 0.0
C181 C 0.47592 0.3346 0.06249 0.0
C182 C 0.4632 0.31683 0.0807 0.0
C183 C 0.4914 0.3321 0.09889 0.0
N184 N 0.41955 0.28779 0.0821 0.0
C185 C 0.39224 0.29637 0.08614 0.0
C186 C 0.29961 0.4964 0.10744 0.0
C187 C 0.27478 0.49286 0.12422 0.0
C188 C 0.31712 0.47819 0.10614 0.0
C189 C 0.29473 0.39649 0.12279 0.0
H190 H 0.40151 0.43122 0.098 0.0
C191 C 0.35623 0.31249 0.10994 0.0
C192 C 0.37368 0.31427 0.09058 0.0
C193 C 0.34509 0.33488 0.11563 0.0
C194 C 0.37145 0.4211 0.10482 0.0
H195 H 0.25122 0.46924 0.15352 0.0
H196 H 0.28287 0.43836 0.15156 0.0
H197 H 0.38452 0.47228 0.1066 0.0
H198 H 0.39334 0.34 0.06189 0.0
H199 H 0.37317 0.37873 0.07155 0.0
H200 H 0.28149 0.34522 0.12078 0.0
C201 C 0.288 0.45461 0.13917 0.0
C202 C 0.36179 0.44463 0.10978 0.0
C203 C 0.27037 0.47273 0.14044 0.0
C204 C 0.37918 0.33795 0.07676 0.0
C205 C 0.36824 0.36039 0.08244 0.0
C206 C 0.30448 0.37301 0.1179 0.0
C207 C 0.3103 0.45614 0.12165 0.0
C208 C 0.32298 0.43244 0.11851 0.0
C209 C 0.3518 0.35956 0.10209 0.0
C210 C 0.34257 0.38491 0.10851 0.0
H211 H 0.30409 0.51213 0.09486 0.0
H212 H 0.33401 0.47988 0.09239 0.0
H213 H 0.26423 0.38606 0.12918 0.0
H214 H 0.35269 0.29481 0.12096 0.0
H215 H 0.33277 0.33385 0.13093 0.0
C216 C 0.73565 0.2029 0.47779 0.0
C217 C 0.74012 0.17781 0.48462 0.0
C218 C 0.77172 0.23821 0.47623 0.0
C219 C 0.8881 0.29279 0.47014 0.0
H220 H 0.88674 0.3729 0.48628 0.0
C221 C 1.03978 0.44109 0.4735 0.0
C222 C 1.03459 0.46578 0.467 0.0
C223 C 1.00391 0.40561 0.47497 0.0
C224 C 0.88746 0.3508 0.48142 0.0
H225 H 0.78616 0.17055 0.49562 0.0
H226 H 0.84918 0.23236 0.49308 0.0
H227 H 0.82447 0.31218 0.49131 0.0
H228 H 0.98881 0.47348 0.45658 0.0
H229 H 0.92577 0.4112 0.45881 0.0
H230 H 0.95109 0.33143 0.46022 0.0
C231 C 0.81769 0.2245 0.48868 0.0
C232 C 0.85177 0.31597 0.48437 0.0
C233 C 0.78153 0.18914 0.49031 0.0
C234 C 0.99332 0.45462 0.46157 0.0
C235 C 0.95736 0.41913 0.46303 0.0
C236 C 0.92379 0.32763 0.46718 0.0
C237 C 0.81323 0.24936 0.48141 0.0
C238 C 0.85163 0.28653 0.47875 0.0
C239 C 0.96219 0.39428 0.47002 0.0
C240 C 0.92392 0.35708 0.47277 0.0
H241 H 0.70426 0.19518 0.47327 0.0
H242 H 0.7671 0.25651 0.47038 0.0
H243 H 0.88878 0.27067 0.4653 0.0
H244 H 0.07151 0.44944 0.47795 0.0
H245 H 1.00882 0.38738 0.48064 0.0
C246 C 0.65136 0.76215 0.7905 0.0
C247 C 0.64338 0.75099 0.81084 0.0
C248 C 0.64766 0.78826 0.78528 0.0
C249 C 0.60189 0.83468 0.8024 0.0
H250 H 0.69133 0.90976 0.77115 0.0
C251 C 0.59946 0.94887 0.7801 0.0
C252 C 0.63867 0.98345 0.78379 0.0
C253 C 0.59808 0.91873 0.78065 0.0
C254 C 0.66614 0.88903 0.77992 0.0
H255 H 0.62492 0.75838 0.84161 0.0
H256 H 0.61859 0.80397 0.83256 0.0
H257 H 0.69186 0.86023 0.77804 0.0
H258 H 0.70719 0.01437 0.79056 0.0
H259 H 0.70508 0.96184 0.79166 0.0
H260 H 0.57707 0.86416 0.80496 0.0
C261 C 0.62708 0.79215 0.82051 0.0
C262 C 0.66616 0.86041 0.78367 0.0
C263 C 0.63072 0.76601 0.82571 0.0
C264 C 0.67667 0.98775 0.78745 0.0
C265 C 0.67538 0.95768 0.78801 0.0
C266 C 0.60186 0.8633 0.79864 0.0
C267 C 0.63592 0.80386 0.80029 0.0
C268 C 0.63433 0.8331 0.79518 0.0
C269 C 0.63597 0.9228 0.78499 0.0
C270 C 0.63427 0.89105 0.78757 0.0
H271 H 0.66049 0.75068 0.77857 0.0
H272 H 0.65399 0.79621 0.76946 0.0
H273 H 0.5766 0.81389 0.8111 0.0
H274 H 0.56977 0.94516 0.77735 0.0
H275 H 0.56729 0.89227 0.77799 0.0
C276 C 0.85129 0.54115 0.21457 0.0
C277 C 0.86278 0.51829 0.21391 0.0
C278 C 0.80833 0.52692 0.21106 0.0
C279 C 0.69615 0.4414 0.20101 0.0
H280 H 0.6935 0.48764 0.15442 0.0
C281 C 0.57048 0.36519 0.13028 0.0
C282 C 0.56004 0.38338 0.11901 0.0
C283 C 0.60028 0.38308 0.14787 0.0
C284 C 0.69309 0.47471 0.16773 0.0
H285 H 0.83802 0.46269 0.21177 0.0
H286 H 0.76336 0.43787 0.20499 0.0
H287 H 0.75911 0.51746 0.17663 0.0
H288 H 0.56943 0.43333 0.11815 0.0
H289 H 0.62085 0.46446 0.1491 0.0
H290 H 0.63034 0.39774 0.19125 0.0
C291 C 0.78726 0.46674 0.20829 0.0
C292 C 0.73091 0.49194 0.18056 0.0
C293 C 0.83016 0.48096 0.21189 0.0
C294 C 0.57779 0.41902 0.12634 0.0
C295 C 0.60714 0.43677 0.14406 0.0
C296 C 0.65811 0.42414 0.18816 0.0
C297 C 0.77616 0.48961 0.20672 0.0
C298 C 0.73341 0.47491 0.19683 0.0
C299 C 0.61978 0.41938 0.15464 0.0
C300 C 0.6567 0.44004 0.17086 0.0
H301 H 0.87564 0.57005 0.21614 0.0
H302 H 0.80064 0.5452 0.21033 0.0
H303 H 0.69695 0.42783 0.21362 0.0
H304 H 0.55708 0.33765 0.12492 0.0
H305 H 0.60963 0.36897 0.15545 0.0
C306 C 0.51519 0.931 0.48253 0.0
C307 C 0.51546 0.95572 0.47165 0.0
C308 C 0.47859 0.89506 0.4811 0.0
C309 C 0.36122 0.83597 0.46747 0.0
H310 H 0.37267 0.76008 0.46125 0.0
C311 C 0.21811 0.68781 0.44148 0.0
C312 C 0.21602 0.66097 0.45075 0.0
C313 C 0.25395 0.72385 0.44582 0.0
C314 C 0.36893 0.78095 0.4633 0.0
H315 H 0.47747 0.96188 0.45059 0.0
H316 H 0.41391 0.89919 0.44792 0.0
H317 H 0.43686 0.82269 0.46493 0.0
H318 H 0.24959 0.65105 0.47223 0.0
H319 H 0.31213 0.7142 0.48007 0.0
H320 H 0.29328 0.79422 0.4656 0.0
C321 C 0.44178 0.90769 0.45781 0.0
C322 C 0.40574 0.81685 0.46538 0.0
C323 C 0.47837 0.94362 0.45923 0.0
C324 C 0.25014 0.67112 0.46493 0.0
C325 C 0.28614 0.70724 0.46924 0.0
C326 C 0.32443 0.80008 0.46538 0.0
C327 C 0.44138 0.88299 0.46879 0.0
C328 C 0.40232 0.8448 0.4673 0.0
C329 C 0.28865 0.73398 0.45955 0.0
C330 C 0.32782 0.77213 0.46307 0.0
H331 H 0.54312 0.93941 0.49232 0.0
H332 H 0.47925 0.87685 0.48993 0.0
H333 H 0.35745 0.85682 0.46933 0.0
H334 H 0.19212 0.68089 0.43066 0.0
H335 H 0.25497 0.74368 0.43794 0.0
C336 C 0.53762 0.31245 0.81027 0.0
C337 C 0.55747 0.33565 0.82916 0.0
C338 C 0.54375 0.2868 0.80463 0.0
C339 C 0.58086 0.23879 0.82638 0.0
H340 H 0.58856 0.21805 0.76708 0.0
C341 C 0.63122 0.15113 0.79533 0.0
C342 C 0.60583 0.12544 0.77783 0.0
C343 C 0.62532 0.17655 0.80241 0.0
C344 C 0.58617 0.22339 0.78368 0.0
H345 H 0.59948 0.35039 0.85694 0.0
H346 H 0.61113 0.30614 0.84689 0.0
H347 H 0.57928 0.26338 0.77779 0.0
H348 H 0.55313 0.10564 0.75464 0.0
H349 H 0.54372 0.1505 0.76667 0.0
H350 H 0.58871 0.19909 0.83215 0.0
C351 C 0.59 0.30715 0.83662 0.0
C352 C 0.58068 0.24928 0.78985 0.0
C353 C 0.58347 0.33259 0.84237 0.0
C354 C 0.57397 0.12549 0.76783 0.0
C355 C 0.56842 0.15111 0.77476 0.0
C356 C 0.58684 0.21312 0.82021 0.0
C357 C 0.57031 0.28398 0.81763 0.0
C358 C 0.5775 0.2571 0.81125 0.0
C359 C 0.59423 0.17705 0.79201 0.0
C360 C 0.58913 0.20494 0.79877 0.0
H361 H 0.51688 0.31384 0.79994 0.0
H362 H 0.52724 0.26892 0.79014 0.0
H363 H 0.578 0.24372 0.84296 0.0
H364 H 0.65641 0.15221 0.80326 0.0
H365 H 0.64587 0.19643 0.81566 0.0
C366 C 0.60662 0.8658 0.52321 0.0
C367 C 0.64894 0.89747 0.52295 0.0
C368 C 0.59875 0.8337 0.5271 0.0
C369 C 0.65072 0.79794 0.5496 0.0
H370 H 0.56238 0.71009 0.51432 0.0
C371 C 0.64188 0.6712 0.54282 0.0
C372 C 0.60128 0.63759 0.54047 0.0
C373 C 0.6457 0.70259 0.54308 0.0
C374 C 0.58671 0.73423 0.52457 0.0
H375 H 0.7161 0.91989 0.52626 0.0
H376 H 0.7024 0.86415 0.5331 0.0
H377 H 0.57248 0.76536 0.5101 0.0
H378 H 0.5328 0.60969 0.53698 0.0
H379 H 0.53917 0.66458 0.53774 0.0
H380 H 0.66534 0.76692 0.56387 0.0
C381 C 0.67527 0.86422 0.53068 0.0
C382 C 0.59252 0.76596 0.52213 0.0
C383 C 0.68313 0.89624 0.52676 0.0
C384 C 0.56443 0.63555 0.53891 0.0
C385 C 0.56816 0.66691 0.53916 0.0
C386 C 0.64488 0.76621 0.55206 0.0
C387 C 0.63301 0.83253 0.53086 0.0
C388 C 0.62496 0.7983 0.53442 0.0
C389 C 0.60888 0.70081 0.54091 0.0
C390 C 0.61315 0.73404 0.5394 0.0
H391 H 0.57954 0.86588 0.5206 0.0
H392 H 0.56582 0.80985 0.52736 0.0
H393 H 0.67552 0.82226 0.55958 0.0
H394 H 0.67069 0.67316 0.54383 0.0
H395 H 0.67754 0.72814 0.54418 0.0
C396 C 0.75295 0.57779 0.84732 0.0
C397 C 0.71037 0.54598 0.84389 0.0
C398 C 0.78761 0.57667 0.84889 0.0
C399 C 0.81326 0.51395 0.85783 0.0
H400 H 0.92547 0.59231 0.84197 0.0
C401 C 0.96535 0.52909 0.8827 0.0
C402 C 1.00078 0.54569 0.87019 0.0
C403 C 0.92962 0.52758 0.87775 0.0
C404 C 0.89432 0.56985 0.84624 0.0
H405 H 0.67131 0.48792 0.83888 0.0
H406 H 0.73143 0.4859 0.84078 0.0
H407 H 0.86469 0.59245 0.836 0.0
H408 H 1.0249 0.57251 0.84196 0.0
H409 H 0.96181 0.56868 0.8328 0.0
H410 H 0.8424 0.49063 0.86729 0.0
C411 C 0.73828 0.51188 0.84296 0.0
C412 C 0.85931 0.57023 0.84312 0.0
C413 C 0.70357 0.51301 0.84169 0.0
C414 C 0.99838 0.55947 0.852 0.0
C415 C 0.96227 0.5577 0.84691 0.0
C416 C 0.8481 0.51336 0.8607 0.0
C417 C 0.78099 0.5437 0.8468 0.0
C418 C 0.81819 0.54251 0.84913 0.0
C419 C 0.92743 0.54209 0.85987 0.0
C420 C 0.88948 0.54157 0.85528 0.0
H421 H 0.75955 0.60371 0.84929 0.0
H422 H 0.8196 0.60184 0.85226 0.0
H423 H 0.78259 0.49218 0.86294 0.0
H424 H 0.96525 0.51739 0.89659 0.0
H425 H 0.90413 0.51573 0.8884 0.0
C426 C 0.24233 0.67087 0.14806 0.0
C427 C 0.21165 0.66124 0.16288 0.0
C428 C 0.27836 0.70689 0.1479 0.0
C429 C 0.31668 0.79915 0.16589 0.0
H430 H 0.43101 0.82618 0.16283 0.0
C431 C 0.46799 0.93994 0.19654 0.0
C432 C 0.5044 0.95614 0.18487 0.0
C433 C 0.43212 0.90435 0.19076 0.0
C434 C 0.39922 0.81902 0.16336 0.0
H435 H 0.19521 0.68196 0.18931 0.0
H436 H 0.25761 0.74404 0.1891 0.0
H437 H 0.36849 0.76258 0.15829 0.0
H438 H 0.53176 0.94787 0.15788 0.0
H439 H 0.46874 0.88525 0.14775 0.0
H440 H 0.34725 0.85538 0.17153 0.0
C441 C 0.25367 0.72405 0.17737 0.0
C442 C 0.36343 0.78262 0.16076 0.0
C443 C 0.21797 0.68828 0.17758 0.0
C444 C 0.504 0.93608 0.1671 0.0
C445 C 0.46814 0.90023 0.1614 0.0
C446 C 0.35232 0.83539 0.16854 0.0
C447 C 0.28415 0.7339 0.16246 0.0
C448 C 0.32185 0.7723 0.16256 0.0
C449 C 0.43185 0.884 0.17322 0.0
C450 C 0.39404 0.84573 0.16784 0.0
H451 H 0.23839 0.65069 0.13651 0.0
H452 H 0.30127 0.71368 0.13619 0.0
H453 H 0.285 0.79211 0.16687 0.0
H454 H 0.46724 0.95484 0.2102 0.0
H455 H 0.40488 0.89251 0.20033 0.0
C456 C 0.55539 0.23774 0.47772 0.0
C457 C 0.58776 0.23503 0.48336 0.0
C458 C 0.5595 0.26866 0.48448 0.0
C459 C 0.61303 0.34483 0.52622 0.0
H460 H 0.58407 0.38745 0.48778 0.0
C461 C 0.63986 0.47772 0.55152 0.0
C462 C 0.60871 0.48075 0.54415 0.0
C463 C 0.6389 0.44873 0.54361 0.0
C464 C 0.59177 0.37566 0.49882 0.0
H465 H 0.6505 0.26348 0.5001 0.0
H466 H 0.65714 0.31703 0.51222 0.0
H467 H 0.57904 0.33492 0.47486 0.0
H468 H 0.55174 0.45548 0.52294 0.0
H469 H 0.54946 0.40461 0.50942 0.0
H470 H 0.62483 0.38488 0.55032 0.0
C471 C 0.62844 0.29502 0.5027 0.0
C472 C 0.589 0.3456 0.49137 0.0
C473 C 0.62452 0.26425 0.49578 0.0
C474 C 0.57657 0.45417 0.52869 0.0
C475 C 0.57537 0.42504 0.52091 0.0
C476 C 0.61544 0.37468 0.53373 0.0
C477 C 0.5959 0.29751 0.49719 0.0
C478 C 0.59954 0.32983 0.50499 0.0
C479 C 0.6065 0.42188 0.52826 0.0
C480 C 0.60476 0.39048 0.52015 0.0
H481 H 0.52632 0.21563 0.46848 0.0
H482 H 0.53365 0.26963 0.48019 0.0
H483 H 0.62082 0.33297 0.53717 0.0
H484 H 0.66528 0.498 0.56327 0.0
H485 H 0.66384 0.44758 0.54939 0.0
C486 C 0.49583 0.57937 0.84326 0.0
C487 C 0.49213 0.54926 0.84824 0.0
C488 C 0.46114 0.5805 0.84494 0.0
C489 C 0.35563 0.53647 0.86931 0.0
H490 H 0.33597 0.58185 0.8284 0.0
C491 C 0.2211 0.55323 0.87656 0.0
C492 C 0.19893 0.54888 0.85771 0.0
C493 C 0.25765 0.55446 0.87602 0.0
C494 C 0.34064 0.56879 0.83992 0.0
H495 H 0.44826 0.49649 0.85875 0.0
H496 H 0.38803 0.49815 0.86128 0.0
H497 H 0.39687 0.58104 0.82597 0.0
H498 H 0.19716 0.54223 0.8236 0.0
H499 H 0.26016 0.54387 0.82252 0.0
H500 H 0.29865 0.52332 0.88288 0.0
C501 C 0.41796 0.52135 0.85647 0.0
C502 C 0.37614 0.56875 0.83868 0.0
C503 C 0.45262 0.52027 0.85485 0.0
C504 C 0.21384 0.54578 0.83838 0.0
C505 C 0.25024 0.547 0.83779 0.0
C506 C 0.3201 0.53648 0.87054 0.0
C507 C 0.42157 0.55149 0.85159 0.0
C508 C 0.38416 0.5524 0.85327 0.0
C509 C 0.27289 0.5514 0.85659 0.0
C510 C 0.31179 0.55243 0.85578 0.0
H511 H 0.52563 0.60225 0.83814 0.0
H512 H 0.46564 0.60442 0.84127 0.0
H513 H 0.3608 0.52403 0.88107 0.0
H514 H 0.21024 0.55572 0.8917 0.0
H515 H 0.27427 0.55826 0.89085 0.0
C516 C 0.97383 0.41591 0.14747 0.0
C517 C 0.9802 0.44438 0.16069 0.0
C518 C 0.93799 0.38041 0.14889 0.0
C519 C 0.85602 0.32298 0.18542 0.0
H520 H 0.7981 0.25502 0.13488 0.0
C521 C 0.69701 0.17818 0.18569 0.0
C522 C 0.6935 0.15103 0.1726 0.0
C523 C 0.7322 0.21425 0.18492 0.0
C524 C 0.8142 0.27357 0.14917 0.0
H525 H 0.95326 0.4578 0.18554 0.0
H526 H 0.89042 0.39598 0.18775 0.0
H527 H 0.85795 0.31746 0.13173 0.0
H528 H 0.72335 0.13934 0.14877 0.0
H529 H 0.78515 0.20223 0.14751 0.0
H530 H 0.81202 0.27895 0.20284 0.0
C531 C 0.91355 0.40104 0.17652 0.0
C532 C 0.84854 0.3094 0.14737 0.0
C533 C 0.94946 0.43655 0.17513 0.0
C534 C 0.7257 0.16006 0.15903 0.0
C535 C 0.76078 0.19602 0.1582 0.0
C536 C 0.82155 0.28711 0.18723 0.0
C537 C 0.90753 0.37248 0.16354 0.0
C538 C 0.87009 0.33454 0.16547 0.0
C539 C 0.76419 0.22361 0.17092 0.0
C540 C 0.80042 0.26192 0.16913 0.0
H541 H 0.99695 0.42092 0.13625 0.0
H542 H 0.93471 0.3591 0.13883 0.0
H543 H 0.87224 0.34148 0.19972 0.0
H544 H 0.67215 0.17158 0.19615 0.0
H545 H 0.73369 0.23483 0.1948 0.0
C546 C 0.0782 0.53946 0.09645 0.0
C547 C 0.0785 0.56628 0.10798 0.0
C548 C 0.08455 0.54033 0.07487 0.0
C549 C 0.12555 0.60087 0.03247 0.0
H550 H 1.05775 0.51121 -0.00464 0.0
C551 C 0.1023 0.59221 0.94178 0.0
C552 C 0.10017 0.56538 0.92897 0.0
C553 C 0.10588 0.59431 0.9638 0.0
C554 C 0.07747 0.53644 0.00553 0.0
H555 H 0.08559 0.61501 0.10603 0.0
H556 H 0.09555 0.61613 0.06817 0.0
H557 H 1.05016 0.51054 0.03327 0.0
H558 H 0.10198 0.52065 0.92917 0.0
H559 H 0.10837 0.52431 0.96781 0.0
H560 H 0.1519 0.62676 0.00452 0.0
C561 C 0.09129 0.59476 0.07585 0.0
C562 C 0.0731 0.53609 0.02731 0.0
C563 C 0.08521 0.59399 0.09751 0.0
C564 C 0.10377 0.54171 0.93866 0.0
C565 C 0.10697 0.54359 0.96075 0.0
C566 C 0.12971 0.60123 0.01065 0.0
C567 C 0.09104 0.56792 0.06423 0.0
C568 C 0.09683 0.56832 0.04108 0.0
C569 C 0.10711 0.56943 0.97357 0.0
C570 C 0.10546 0.56903 -0.00309 0.0
H571 H 0.07338 0.51787 0.10415 0.0
H572 H 0.08484 0.51953 0.06659 0.0
H573 H 0.14496 0.62616 0.04259 0.0
H574 H 0.09981 0.61093 0.93471 0.0
H575 H 0.10563 0.61438 0.97317 0.0
C576 C 0.61199 0.05545 0.41113 0.0
C577 C 0.65123 0.0696 0.42213 0.0
C578 C 0.61003 0.05755 0.38942 0.0
C579 C 0.66803 0.06637 0.34223 0.0
H580 H 0.59299 0.08229 0.31594 0.0
C581 C 0.61699 0.08034 0.254 0.0
C582 C 0.60955 0.04997 0.24269 0.0
C583 C 0.62669 0.08731 0.27594 0.0
C584 C 0.61452 0.07826 0.32306 0.0
H585 H 0.71937 0.0981 0.41931 0.0
H586 H 0.71608 0.10202 0.38149 0.0
H587 H 0.60049 0.08645 0.35445 0.0
H588 H 0.60847 0.00413 0.24523 0.0
H589 H 0.62521 0.01612 0.28335 0.0
H590 H 0.68198 0.05806 0.31091 0.0
C591 C 0.68668 0.08878 0.3895 0.0
C592 C 0.61841 0.08021 0.34511 0.0
C593 C 0.68861 0.08667 0.41118 0.0
C594 C 0.61371 0.02758 0.25358 0.0
C595 C 0.62364 0.03463 0.2754 0.0
C596 C 0.66406 0.06433 0.32023 0.0
C597 C 0.6473 0.07385 0.37829 0.0
C598 C 0.64485 0.07388 0.35495 0.0
C599 C 0.62958 0.06423 0.28691 0.0
C600 C 0.63682 0.06976 0.31036 0.0
H601 H 0.5827 0.04223 0.41923 0.0
H602 H 0.57911 0.04547 0.38124 0.0
H603 H 0.68836 0.061 0.34924 0.0
H604 H 0.61378 0.09794 0.246 0.0
H605 H 0.6315 0.11052 0.28435 0.0
C606 C 0.62714 0.55748 0.77565 0.0
C607 C 0.58671 0.54022 0.78374 0.0
C608 C 0.63209 0.56352 0.75435 0.0
C609 C 0.56628 0.53069 0.70294 0.0
H610 H 0.67332 0.60947 0.68282 0.0
C611 C 0.58216 0.55582 0.61546 0.0
C612 C 0.61481 0.55643 0.60626 0.0
C613 C 0.58084 0.55855 0.63743 0.0
C614 C 0.64326 0.58739 0.68828 0.0
H615 H 0.52046 0.51784 0.77651 0.0
H616 H 0.5293 0.53003 0.7398 0.0
H617 H 0.66654 0.60603 0.72084 0.0
H618 H 0.67283 0.5622 0.61274 0.0
H619 H 0.67102 0.56777 0.65129 0.0
H620 H 0.5429 0.51255 0.67037 0.0
C621 C 0.55694 0.53747 0.74942 0.0
C622 C 0.63938 0.58521 0.71005 0.0
C623 C 0.55185 0.53074 0.77053 0.0
C624 C 0.64725 0.56155 0.61947 0.0
C625 C 0.64634 0.56491 0.64147 0.0
C626 C 0.56994 0.53327 0.68128 0.0
C627 C 0.59683 0.55304 0.74082 0.0
C628 C 0.60088 0.55664 0.7177 0.0
C629 C 0.61255 0.56256 0.65063 0.0
C630 C 0.60851 0.56145 0.67372 0.0
H631 H 0.65453 0.565 0.78556 0.0
H632 H 0.66321 0.57522 0.74838 0.0
H633 H 0.5365 0.50772 0.70801 0.0
H634 H 0.5566 0.55163 0.60563 0.0
H635 H 0.55455 0.55681 0.64413 0.0
C636 C 0.56737 0.04805 0.54889 0.0
C637 C 0.60478 0.06517 0.53797 0.0
C638 C 0.56906 0.04517 0.57043 0.0
C639 C 0.63196 0.0468 0.61396 0.0
H640 H 0.57327 0.0733 0.64886 0.0
C641 C 0.64906 0.06503 0.70608 0.0
C642 C 0.61336 0.05674 0.71658 0.0
C643 C 0.6478 0.06274 0.68395 0.0
C644 C 0.58919 0.06513 0.63937 0.0
H645 H 0.67329 0.09239 0.54089 0.0
H646 H 0.67621 0.08697 0.57872 0.0
H647 H 0.57207 0.07615 0.61101 0.0
H648 H 0.54758 0.03724 0.71249 0.0
H649 H 0.54454 0.03172 0.67398 0.0
H650 H 0.64875 0.03546 0.64242 0.0
C651 C 0.64556 0.07568 0.57052 0.0
C652 C 0.58867 0.06697 0.61765 0.0
C653 C 0.64391 0.07884 0.54892 0.0
C654 C 0.5756 0.04403 0.70468 0.0
C655 C 0.5741 0.04126 0.68265 0.0
C656 C 0.63219 0.04464 0.63578 0.0
C657 C 0.60819 0.05919 0.58153 0.0
C658 C 0.60984 0.05769 0.60468 0.0
C659 C 0.61064 0.0518 0.672 0.0
C660 C 0.61055 0.05359 0.64874 0.0
H661 H 0.53671 0.03707 0.54082 0.0
H662 H 0.53965 0.03194 0.57843 0.0
H663 H 0.64836 0.0393 0.6043 0.0
H664 H 0.67863 0.07516 0.715 0.0
H665 H 0.6766 0.07123 0.67632 0.0
C666 C 0.64762 0.55439 0.91467 0.0
C667 C 0.61334 0.54662 0.9017 0.0
C668 C 0.63965 0.53688 0.93273 0.0
C669 C 0.55909 0.4895 0.97112 0.0
H670 H 0.61036 0.44265 0.97981 0.0
C671 C 0.49873 0.38857 0.03206 0.0
C672 C 0.52896 0.38842 0.04374 0.0
C673 C 0.51078 0.40888 0.01508 0.0
C674 C 0.59627 0.45603 0.97783 0.0
H675 H 0.54407 0.51497 0.89742 0.0
H676 H 0.53024 0.48491 0.92905 0.0
H677 H 0.62954 0.47792 0.95011 0.0
H678 H 0.59554 0.40913 0.04637 0.0
H679 H 0.61691 0.44555 0.01723 0.0
H680 H 0.52618 0.46818 -0.00115 0.0
C681 C 0.56319 0.50443 0.92533 0.0
C682 C 0.60725 0.47618 0.9608 0.0
C683 C 0.57111 0.52153 0.9072 0.0
C684 C 0.5715 0.4089 0.03787 0.0
C685 C 0.58366 0.42947 0.02098 0.0
C686 C 0.54846 0.46971 0.98826 0.0
C687 C 0.59732 0.51178 0.93822 0.0
C688 C 0.58829 0.49268 0.95712 0.0
C689 C 0.55349 0.42989 0.00944 0.0
C690 C 0.5664 0.45226 0.99167 0.0
H691 H 0.68046 0.57353 0.91068 0.0
H692 H 0.66653 0.5431 0.94247 0.0
H693 H 0.54445 0.50237 0.96881 0.0
H694 H 0.46584 0.37359 0.0363 0.0
H695 H 0.48647 0.40802 0.00635 0.0
C696 C 0.11175 0.50991 0.22495 0.0
C697 C 0.12061 0.5392 0.21543 0.0
C698 C 0.10684 0.50851 0.24668 0.0
C699 C 0.08021 0.54392 0.29178 0.0
H700 H 0.14106 0.52205 0.32625 0.0
C701 C 0.11236 0.58195 0.38167 0.0
C702 C 0.11552 0.56084 0.39447 0.0
C703 C 0.10557 0.5736 0.35975 0.0
C704 C 0.12305 0.52745 0.31684 0.0
H705 H 0.13261 0.59047 0.22113 0.0
H706 H 0.12348 0.58785 0.25899 0.0
H707 H 0.14492 0.51905 0.28798 0.0
H708 H 0.11149 0.51313 0.39439 0.0
H709 H 0.09849 0.49789 0.35598 0.0
H710 H 0.05846 0.55251 0.32053 0.0
C711 C 0.11979 0.56575 0.24967 0.0
C712 C 0.12547 0.52589 0.29491 0.0
C713 C 0.12514 0.56731 0.22803 0.0
C714 C 0.10914 0.52988 0.38494 0.0
C715 C 0.10222 0.52143 0.36292 0.0
C716 C 0.07747 0.54518 0.31367 0.0
C717 C 0.11038 0.53626 0.25921 0.0
C718 C 0.10485 0.53488 0.28222 0.0
C719 C 0.10146 0.54374 0.35002 0.0
C720 C 0.09967 0.53777 0.32655 0.0
H721 H 0.1081 0.48787 0.21558 0.0
H722 H 0.09951 0.48542 0.2536 0.0
H723 H 0.06332 0.55033 0.28234 0.0
H724 H 0.11656 0.60572 0.38859 0.0
H725 H 0.10558 0.59163 0.3504 0.0
loop_
_geom_bond_atom_site_label_1
_geom_bond_atom_site_label_2
_geom_bond_distance
_geom_bond_site_symmetry_2
_ccdc_geom_bond_type
Gd0 C3 2.818 . S
Gd0 O20 2.377 . S
Gd0 O22 2.448 . S
Gd0 O23 2.506 . S
Gd0 O24 2.435 . S
Gd0 O25 2.717 . S
Gd0 O27 2.395 1_455 S
Gd0 O31 2.327 . S
Gd1 C12 2.818 1_455 S
Gd1 O21 2.395 . S
Gd1 O25 2.327 . S
Gd1 O26 2.377 1_455 S
Gd1 O28 2.448 1_455 S
Gd1 O29 2.506 1_455 S
Gd1 O30 2.435 . S
Gd1 O31 2.717 . S
C2 O20 1.240 . S
C2 O21 1.240 . S
C3 Gd0 2.818 . S
C3 C4 1.510 . S
C3 O22 1.249 . S
C3 O23 1.252 . S
C4 C3 1.510 . S
C4 C5 1.404 . S
C4 C6 1.352 . S
C5 C4 1.404 . S
C5 C9 1.389 . S
C5 H32 0.930 . S
C6 C4 1.352 . S
C6 C8 1.374 . S
C6 H33 0.931 . S
C7 C8 1.359 . S
C7 C9 1.364 . S
C8 C6 1.374 . S
C8 C7 1.359 . S
C8 H34 0.931 . S
C9 C5 1.389 . S
C9 C7 1.364 . S
C9 H35 0.931 . S
C10 O24 1.256 . S
C10 O25 1.257 . S
C11 O26 1.240 . S
C11 O27 1.240 . S
C12 Gd1 2.818 1_655 S
C12 C13 1.510 . S
C12 O28 1.249 . S
C12 O29 1.252 . S
C13 C12 1.510 . S
C13 C14 1.404 . S
C13 C15 1.352 . S
C14 C13 1.404 . S
C14 C18 1.389 . S
C14 H36 0.930 . S
C15 C13 1.352 . S
C15 C17 1.374 . S
C15 H37 0.931 . S
C16 C17 1.359 . S
C16 C18 1.364 . S
C17 C15 1.374 . S
C17 C16 1.359 . S
C17 H38 0.931 . S
C18 C14 1.389 . S
C18 C16 1.364 . S
C18 H39 0.931 . S
C19 O30 1.256 . S
C19 O31 1.257 . S
O20 Gd0 2.377 . S
O20 C2 1.240 . S
O21 Gd1 2.395 . S
O21 C2 1.240 . S
O22 Gd0 2.448 . S
O22 C3 1.249 . S
O23 Gd0 2.506 . S
O23 C3 1.252 . S
O24 Gd0 2.435 . S
O24 C10 1.256 . S
O25 Gd0 2.717 . S
O25 Gd1 2.327 . S
O25 C10 1.257 . S
O26 Gd1 2.377 1_655 S
O26 C11 1.240 . S
O27 Gd0 2.395 1_655 S
O27 C11 1.240 . S
O28 Gd1 2.448 1_655 S
O28 C12 1.249 . S
O29 Gd1 2.506 1_655 S
O29 C12 1.252 . S
O30 Gd1 2.435 . S
O30 C19 1.256 . S
O31 Gd0 2.327 . S
O31 Gd1 2.717 . S
O31 C19 1.257 . S
H32 C5 0.930 . S
H33 C6 0.931 . S
H34 C8 0.931 . S
H35 C9 0.931 . S
H36 C14 0.930 . S
H37 C15 0.931 . S
H38 C17 0.931 . S
H39 C18 0.931 . S
Gd40 C43 2.818 1_545 S
Gd40 O60 2.377 1_545 S
Gd40 O62 2.448 1_545 S
Gd40 O63 2.506 1_545 S
Gd40 O64 2.435 . S
Gd40 O65 2.717 . S
Gd40 O67 2.395 . S
Gd40 O71 2.327 . S
Gd41 C52 2.818 . S
Gd41 O61 2.395 1_545 S
Gd41 O65 2.327 . S
Gd41 O66 2.377 . S
Gd41 O68 2.448 . S
Gd41 O69 2.506 . S
Gd41 O70 2.435 . S
Gd41 O71 2.717 . S
C42 O60 1.240 . S
C42 O61 1.240 . S
C43 Gd40 2.818 1_565 S
C43 C44 1.510 . S
C43 O62 1.249 . S
C43 O63 1.252 . S
C44 C43 1.510 . S
C44 C45 1.404 . S
C44 C46 1.352 . S
C45 C44 1.404 . S
C45 C49 1.389 . S
C45 H72 0.930 . S
C46 C44 1.352 . S
C46 C48 1.374 . S
C46 H73 0.931 . S
C47 C48 1.359 . S
C47 C49 1.364 . S
C48 C46 1.374 . S
C48 C47 1.359 . S
C48 H74 0.931 . S
C49 C45 1.389 . S
C49 C47 1.364 . S
C49 H75 0.931 . S
C50 O64 1.256 . S
C50 O65 1.257 . S
C51 O66 1.240 . S
C51 O67 1.240 . S
C52 Gd41 2.818 . S
C52 C53 1.510 . S
C52 O68 1.249 . S
C52 O69 1.252 . S
C53 C52 1.510 . S
C53 C54 1.404 . S
C53 C55 1.352 . S
C54 C53 1.404 . S
C54 C58 1.389 . S
C54 H76 0.930 . S
C55 C53 1.352 . S
C55 C57 1.374 . S
C55 H77 0.931 . S
C56 C57 1.359 . S
C56 C58 1.364 . S
C57 C55 1.374 . S
C57 C56 1.359 . S
C57 H78 0.931 . S
C58 C54 1.389 . S
C58 C56 1.364 . S
C58 H79 0.931 . S
C59 O70 1.256 . S
C59 O71 1.257 . S
O60 Gd40 2.377 1_565 S
O60 C42 1.240 . S
O61 Gd41 2.395 1_565 S
O61 C42 1.240 . S
O62 Gd40 2.448 1_565 S
O62 C43 1.249 . S
O63 Gd40 2.506 1_565 S
O63 C43 1.252 . S
O64 Gd40 2.435 . S
O64 C50 1.256 . S
O65 Gd40 2.717 . S
O65 Gd41 2.327 . S
O65 C50 1.257 . S
O66 Gd41 2.377 . S
O66 C51 1.240 . S
O67 Gd40 2.395 . S
O67 C51 1.240 . S
O68 Gd41 2.448 . S
O68 C52 1.249 . S
O69 Gd41 2.506 . S
O69 C52 1.252 . S
O70 Gd41 2.435 . S
O70 C59 1.256 . S
O71 Gd40 2.327 . S
O71 Gd41 2.717 . S
O71 C59 1.257 . S
H72 C45 0.930 . S
H73 C46 0.931 . S
H74 C48 0.931 . S
H75 C49 0.931 . S
H76 C54 0.930 . S
H77 C55 0.931 . S
H78 C57 0.931 . S
H79 C58 0.931 . S
Gd80 C83 2.818 . S
Gd80 O100 2.377 . S
Gd80 O102 2.448 . S
Gd80 O103 2.506 . S
Gd80 O104 2.435 . S
Gd80 O105 2.717 . S
Gd80 O107 2.395 . S
Gd80 O111 2.327 . S
Gd81 C92 2.818 . S
Gd81 O101 2.395 . S
Gd81 O105 2.327 . S
Gd81 O106 2.377 . S
Gd81 O108 2.448 . S
Gd81 O109 2.506 . S
Gd81 O110 2.435 . S
Gd81 O111 2.717 . S
C82 O100 1.240 . S
C82 O101 1.240 . S
C83 Gd80 2.818 . S
C83 C84 1.510 . S
C83 O102 1.249 . S
C83 O103 1.252 . S
C84 C83 1.510 . S
C84 C85 1.404 . S
C84 C86 1.352 . S
C85 C84 1.404 . S
C85 C89 1.389 . S
C85 H112 0.930 . S
C86 C84 1.352 . S
C86 C88 1.374 . S
C86 H113 0.931 . S
C87 C88 1.359 . S
C87 C89 1.364 . S
C88 C86 1.374 . S
C88 C87 1.359 . S
C88 H114 0.931 . S
C89 C85 1.389 . S
C89 C87 1.364 . S
C89 H115 0.931 . S
C90 O104 1.256 . S
C90 O105 1.257 . S
C91 O106 1.240 . S
C91 O107 1.240 . S
C92 Gd81 2.818 . S
C92 C93 1.510 . S
C92 O108 1.249 . S
C92 O109 1.252 . S
C93 C92 1.510 . S
C93 C94 1.404 . S
C93 C95 1.352 . S
C94 C93 1.404 . S
C94 C98 1.389 . S
C94 H116 0.930 . S
C95 C93 1.352 . S
C95 C97 1.374 . S
C95 H117 0.931 . S
C96 C97 1.359 . S
C96 C98 1.364 . S
C97 C95 1.374 . S
C97 C96 1.359 . S
C97 H118 0.931 . S
C98 C94 1.389 . S
C98 C96 1.364 . S
C98 H119 0.931 . S
C99 O110 1.256 . S
C99 O111 1.257 . S
O100 Gd80 2.377 . S
O100 C82 1.240 . S
O101 Gd81 2.395 . S
O101 C82 1.240 . S
O102 Gd80 2.448 . S
O102 C83 1.249 . S
O103 Gd80 2.506 . S
O103 C83 1.252 . S
O104 Gd80 2.435 . S
O104 C90 1.256 . S
O105 Gd80 2.717 . S
O105 Gd81 2.327 . S
O105 C90 1.257 . S
O106 Gd81 2.377 . S
O106 C91 1.240 . S
O107 Gd80 2.395 . S
O107 C91 1.240 . S
O108 Gd81 2.448 . S
O108 C92 1.249 . S
O109 Gd81 2.506 . S
O109 C92 1.252 . S
O110 Gd81 2.435 . S
O110 C99 1.256 . S
O111 Gd80 2.327 . S
O111 Gd81 2.717 . S
O111 C99 1.257 . S
H112 C85 0.930 . S
H113 C86 0.931 . S
H114 C88 0.931 . S
H115 C89 0.931 . S
H116 C94 0.930 . S
H117 C95 0.931 . S
H118 C97 0.931 . S
H119 C98 0.931 . S
H120 C123 0.922 1_565 S
H121 C126 0.929 . S
H122 C128 0.930 . S
C123 H120 0.922 1_545 S
C123 C124 1.398 . S
C123 C125 1.396 . S
C124 C123 1.398 . S
C124 C128 1.407 . S
C125 C123 1.396 . S
C125 C126 1.394 . S
C126 H121 0.929 . S
C126 C125 1.394 . S
C126 C127 1.382 . S
C127 C126 1.382 . S
C127 C128 1.392 . S
C127 N129 1.420 . S
C128 H122 0.930 . S
C128 C124 1.407 . S
C128 C127 1.392 . S
N129 C127 1.420 . S
N129 C130 1.244 . S
C130 N129 1.244 . S
H131 C134 0.929 . S
H132 C137 0.929 . S
H133 C139 0.930 . S
C134 H131 0.929 . S
C134 C135 1.398 . S
C134 C136 1.396 . S
C135 C134 1.398 . S
C135 C139 1.407 . S
C136 C134 1.396 . S
C136 C137 1.394 . S
C137 H132 0.929 . S
C137 C136 1.394 . S
C137 C138 1.382 . S
C138 C137 1.382 . S
C138 C139 1.392 . S
C138 N140 1.420 . S
C139 H133 0.930 . S
C139 C135 1.407 . S
C139 C138 1.392 . S
N140 C138 1.420 . S
N140 C141 1.244 . S
C141 N140 1.244 . S
H142 C145 0.929 . S
H143 C148 0.929 . S
H144 C150 0.930 . S
C145 H142 0.929 . S
C145 C146 1.398 . S
C145 C147 1.396 . S
C146 C145 1.398 . S
C146 C150 1.407 . S
C147 C145 1.396 . S
C147 C148 1.394 . S
C148 H143 0.929 . S
C148 C147 1.394 . S
C148 C149 1.382 . S
C149 C148 1.382 . S
C149 C150 1.392 . S
C149 N151 1.420 . S
C150 H144 0.930 . S
C150 C146 1.407 . S
C150 C149 1.392 . S
N151 C149 1.420 . S
N151 C152 1.244 . S
C152 N151 1.244 . S
H153 C156 0.929 . S
H154 C159 0.929 . S
H155 C161 0.930 . S
C156 H153 0.929 . S
C156 C157 1.398 . S
C156 C158 1.396 . S
C157 C156 1.398 . S
C157 C161 1.407 . S
C158 C156 1.396 . S
C158 C159 1.394 1_455 S
C159 H154 0.929 . S
C159 C158 1.394 1_655 S
C159 C160 1.382 . S
C160 C159 1.382 . S
C160 C161 1.392 1_655 S
C160 N162 1.420 . S
C161 H155 0.930 . S
C161 C157 1.407 . S
C161 C160 1.392 1_455 S
N162 C160 1.420 . S
N162 C163 1.244 . S
C163 N162 1.244 . S
H164 C167 0.929 . S
H165 C170 0.933 1_565 S
H166 C172 0.930 . S
C167 H164 0.929 . S
C167 C168 1.398 . S
C167 C169 1.396 . S
C168 C167 1.398 . S
C168 C172 1.407 . S
C169 C167 1.396 . S
C169 C170 1.394 . S
C170 H165 0.933 1_545 S
C170 C169 1.394 . S
C170 C171 1.382 . S
C171 C170 1.382 . S
C171 C172 1.392 . S
C171 N173 1.420 . S
C172 H166 0.930 . S
C172 C168 1.407 . S
C172 C171 1.392 . S
N173 C171 1.420 . S
N173 C174 1.244 1_545 S
C174 N173 1.244 1_565 S
H175 C178 0.929 . S
H176 C181 0.929 . S
H177 C183 0.930 . S
C178 H175 0.929 . S
C178 C179 1.398 . S
C178 C180 1.396 . S
C179 C178 1.398 . S
C179 C183 1.407 . S
C180 C178 1.396 . S
C180 C181 1.394 . S
C181 H176 0.929 . S
C181 C180 1.394 . S
C181 C182 1.382 . S
C182 C181 1.382 . S
C182 C183 1.392 . S
C182 N184 1.420 . S
C183 H177 0.930 . S
C183 C179 1.407 . S
C183 C182 1.392 . S
N184 C182 1.420 . S
N184 C185 1.244 . S
C185 N184 1.244 . S
C186 C187 1.349 . S
C186 C188 1.327 . S
C186 H211 0.950 . S
C187 C186 1.349 . S
C187 C203 1.349 . S
C188 C186 1.327 . S
C188 C207 1.429 . S
C188 H212 0.950 . S
C189 C206 1.574 . S
C189 C208 1.368 . S
C189 H213 0.949 . S
H190 C194 0.949 . S
C191 C192 1.349 . S
C191 C193 1.327 . S
C191 H214 0.950 . S
C192 C191 1.349 . S
C192 C204 1.349 . S
C193 C191 1.327 . S
C193 C209 1.429 . S
C193 H215 0.950 . S
C194 H190 0.949 . S
C194 C202 1.574 . S
C194 C210 1.368 . S
H195 C203 0.950 . S
H196 C201 0.950 . S
H197 C202 0.949 . S
H198 C204 0.950 . S
H199 C205 0.950 . S
H200 C206 0.949 . S
C201 H196 0.950 . S
C201 C203 1.327 . S
C201 C207 1.429 . S
C202 C194 1.574 . S
C202 H197 0.949 . S
C202 C208 1.368 . S
C203 C187 1.349 . S
C203 H195 0.950 . S
C203 C201 1.327 . S
C204 C192 1.349 . S
C204 H198 0.950 . S
C204 C205 1.327 . S
C205 H199 0.950 . S
C205 C204 1.327 . S
C205 C209 1.429 . S
C206 C189 1.574 . S
C206 H200 0.949 . S
C206 C210 1.368 . S
C207 C188 1.429 . S
C207 C201 1.429 . S
C207 C208 1.523 . S
C208 C189 1.368 . S
C208 C202 1.368 . S
C208 C207 1.523 . S
C209 C193 1.429 . S
C209 C205 1.429 . S
C209 C210 1.523 . S
C210 C194 1.368 . S
C210 C206 1.368 . S
C210 C209 1.523 . S
H211 C186 0.950 . S
H212 C188 0.950 . S
H213 C189 0.949 . S
H214 C191 0.950 . S
H215 C193 0.950 . S
C216 C217 1.349 . S
C216 C218 1.327 . S
C216 H241 0.950 . S
C217 C216 1.349 . S
C217 C233 1.349 . S
C218 C216 1.327 . S
C218 C237 1.429 . S
C218 H242 0.950 . S
C219 C236 1.574 . S
C219 C238 1.368 . S
C219 H243 0.949 . S
H220 C224 0.949 . S
C221 C222 1.349 . S
C221 C223 1.327 . S
C221 H244 0.950 . S
C222 C221 1.349 . S
C222 C234 1.349 . S
C223 C221 1.327 . S
C223 C239 1.429 . S
C223 H245 0.950 . S
C224 H220 0.949 . S
C224 C232 1.574 . S
C224 C240 1.368 . S
H225 C233 0.950 . S
H226 C231 0.950 . S
H227 C232 0.949 . S
H228 C234 0.950 . S
H229 C235 0.950 . S
H230 C236 0.949 . S
C231 H226 0.950 . S
C231 C233 1.327 . S
C231 C237 1.429 . S
C232 C224 1.574 . S
C232 H227 0.949 . S
C232 C238 1.368 . S
C233 C217 1.349 . S
C233 H225 0.950 . S
C233 C231 1.327 . S
C234 C222 1.349 . S
C234 H228 0.950 . S
C234 C235 1.327 . S
C235 H229 0.950 . S
C235 C234 1.327 . S
C235 C239 1.429 . S
C236 C219 1.574 . S
C236 H230 0.949 . S
C236 C240 1.368 . S
C237 C218 1.429 . S
C237 C231 1.429 . S
C237 C238 1.523 . S
C238 C219 1.368 . S
C238 C232 1.368 . S
C238 C237 1.523 . S
C239 C223 1.429 . S
C239 C235 1.429 . S
C239 C240 1.523 . S
C240 C224 1.368 . S
C240 C236 1.368 . S
C240 C239 1.523 . S
H241 C216 0.950 . S
H242 C218 0.950 . S
H243 C219 0.949 . S
H244 C221 0.950 . S
H245 C223 0.950 . S
C246 C247 1.349 . S
C246 C248 1.327 . S
C246 H271 0.950 . S
C247 C246 1.349 . S
C247 C263 1.349 . S
C248 C246 1.327 . S
C248 C267 1.429 . S
C248 H272 0.950 . S
C249 C266 1.574 . S
C249 C268 1.368 . S
C249 H273 0.949 . S
H250 C254 0.949 . S
C251 C252 1.349 . S
C251 C253 1.327 . S
C251 H274 0.950 . S
C252 C251 1.349 . S
C252 C264 1.349 . S
C253 C251 1.327 . S
C253 C269 1.429 . S
C253 H275 0.950 . S
C254 H250 0.949 . S
C254 C262 1.574 . S
C254 C270 1.368 . S
H255 C263 0.950 . S
H256 C261 0.950 . S
H257 C262 0.949 . S
H258 C264 0.950 . S
H259 C265 0.950 . S
H260 C266 0.949 . S
C261 H256 0.950 . S
C261 C263 1.327 . S
C261 C267 1.429 . S
C262 C254 1.574 . S
C262 H257 0.949 . S
C262 C268 1.368 . S
C263 C247 1.349 . S
C263 H255 0.950 . S
C263 C261 1.327 . S
C264 C252 1.349 . S
C264 H258 0.950 . S
C264 C265 1.327 . S
C265 H259 0.950 . S
C265 C264 1.327 . S
C265 C269 1.429 . S
C266 C249 1.574 . S
C266 H260 0.949 . S
C266 C270 1.368 . S
C267 C248 1.429 . S
C267 C261 1.429 . S
C267 C268 1.523 . S
C268 C249 1.368 . S
C268 C262 1.368 . S
C268 C267 1.523 . S
C269 C253 1.429 . S
C269 C265 1.429 . S
C269 C270 1.523 . S
C270 C254 1.368 . S
C270 C266 1.368 . S
C270 C269 1.523 . S
H271 C246 0.950 . S
H272 C248 0.950 . S
H273 C249 0.949 . S
H274 C251 0.950 . S
H275 C253 0.950 . S
C276 C277 1.349 . S
C276 C278 1.327 . S
C276 H301 0.950 . S
C277 C276 1.349 . S
C277 C293 1.349 . S
C278 C276 1.327 . S
C278 C297 1.429 . S
C278 H302 0.950 . S
C279 C296 1.574 . S
C279 C298 1.368 . S
C279 H303 0.949 . S
H280 C284 0.949 . S
C281 C282 1.349 . S
C281 C283 1.327 . S
C281 H304 0.950 . S
C282 C281 1.349 . S
C282 C294 1.349 . S
C283 C281 1.327 . S
C283 C299 1.429 . S
C283 H305 0.950 . S
C284 H280 0.949 . S
C284 C292 1.574 . S
C284 C300 1.368 . S
H285 C293 0.950 . S
H286 C291 0.950 . S
H287 C292 0.949 . S
H288 C294 0.950 . S
H289 C295 0.950 . S
H290 C296 0.949 . S
C291 H286 0.950 . S
C291 C293 1.327 . S
C291 C297 1.429 . S
C292 C284 1.574 . S
C292 H287 0.949 . S
C292 C298 1.368 . S
C293 C277 1.349 . S
C293 H285 0.950 . S
C293 C291 1.327 . S
C294 C282 1.349 . S
C294 H288 0.950 . S
C294 C295 1.327 . S
C295 H289 0.950 . S
C295 C294 1.327 . S
C295 C299 1.429 . S
C296 C279 1.574 . S
C296 H290 0.949 . S
C296 C300 1.368 . S
C297 C278 1.429 . S
C297 C291 1.429 . S
C297 C298 1.523 . S
C298 C279 1.368 . S
C298 C292 1.368 . S
C298 C297 1.523 . S
C299 C283 1.429 . S
C299 C295 1.429 . S
C299 C300 1.523 . S
C300 C284 1.368 . S
C300 C296 1.368 . S
C300 C299 1.523 . S
H301 C276 0.950 . S
H302 C278 0.950 . S
H303 C279 0.949 . S
H304 C281 0.950 . S
H305 C283 0.950 . S
C306 C307 1.349 . S
C306 C308 1.327 . S
C306 H331 0.950 . S
C307 C306 1.349 . S
C307 C323 1.349 . S
C308 C306 1.327 . S
C308 C327 1.429 . S
C308 H332 0.950 . S
C309 C326 1.574 . S
C309 C328 1.368 . S
C309 H333 0.949 . S
H310 C314 0.949 . S
C311 C312 1.349 . S
C311 C313 1.327 . S
C311 H334 0.950 . S
C312 C311 1.349 . S
C312 C324 1.349 . S
C313 C311 1.327 . S
C313 C329 1.429 . S
C313 H335 0.950 . S
C314 H310 0.949 . S
C314 C322 1.574 . S
C314 C330 1.368 . S
H315 C323 0.950 . S
H316 C321 0.950 . S
H317 C322 0.949 . S
H318 C324 0.950 . S
H319 C325 0.950 . S
H320 C326 0.949 . S
C321 H316 0.950 . S
C321 C323 1.327 . S
C321 C327 1.429 . S
C322 C314 1.574 . S
C322 H317 0.949 . S
C322 C328 1.368 . S
C323 C307 1.349 . S
C323 H315 0.950 . S
C323 C321 1.327 . S
C324 C312 1.349 . S
C324 H318 0.950 . S
C324 C325 1.327 . S
C325 H319 0.950 . S
C325 C324 1.327 . S
C325 C329 1.429 . S
C326 C309 1.574 . S
C326 H320 0.949 . S
C326 C330 1.368 . S
C327 C308 1.429 . S
C327 C321 1.429 . S
C327 C328 1.523 . S
C328 C309 1.368 . S
C328 C322 1.368 . S
C328 C327 1.523 . S
C329 C313 1.429 . S
C329 C325 1.429 . S
C329 C330 1.523 . S
C330 C314 1.368 . S
C330 C326 1.368 . S
C330 C329 1.523 . S
H331 C306 0.950 . S
H332 C308 0.950 . S
H333 C309 0.949 . S
H334 C311 0.950 . S
H335 C313 0.950 . S
C336 C337 1.349 . S
C336 C338 1.327 . S
C336 H361 0.950 . S
C337 C336 1.349 . S
C337 C353 1.349 . S
C338 C336 1.327 . S
C338 C357 1.429 . S
C338 H362 0.950 . S
C339 C356 1.574 . S
C339 C358 1.368 . S
C339 H363 0.949 . S
H340 C344 0.949 . S
C341 C342 1.349 . S
C341 C343 1.327 . S
C341 H364 0.950 . S
C342 C341 1.349 . S
C342 C354 1.349 . S
C343 C341 1.327 . S
C343 C359 1.429 . S
C343 H365 0.950 . S
C344 H340 0.949 . S
C344 C352 1.574 . S
C344 C360 1.368 . S
H345 C353 0.950 . S
H346 C351 0.950 . S
H347 C352 0.949 . S
H348 C354 0.950 . S
H349 C355 0.950 . S
H350 C356 0.949 . S
C351 H346 0.950 . S
C351 C353 1.327 . S
C351 C357 1.429 . S
C352 C344 1.574 . S
C352 H347 0.949 . S
C352 C358 1.368 . S
C353 C337 1.349 . S
C353 H345 0.950 . S
C353 C351 1.327 . S
C354 C342 1.349 . S
C354 H348 0.950 . S
C354 C355 1.327 . S
C355 H349 0.950 . S
C355 C354 1.327 . S
C355 C359 1.429 . S
C356 C339 1.574 . S
C356 H350 0.949 . S
C356 C360 1.368 . S
C357 C338 1.429 . S
C357 C351 1.429 . S
C357 C358 1.523 . S
C358 C339 1.368 . S
C358 C352 1.368 . S
C358 C357 1.523 . S
C359 C343 1.429 . S
C359 C355 1.429 . S
C359 C360 1.523 . S
C360 C344 1.368 . S
C360 C356 1.368 . S
C360 C359 1.523 . S
H361 C336 0.950 . S
H362 C338 0.950 . S
H363 C339 0.949 . S
H364 C341 0.950 . S
H365 C343 0.950 . S
C366 C367 1.349 . S
C366 C368 1.327 . S
C366 H391 0.950 . S
C367 C366 1.349 . S
C367 C383 1.349 . S
C368 C366 1.327 . S
C368 C387 1.429 . S
C368 H392 0.950 . S
C369 C386 1.574 . S
C369 C388 1.368 . S
C369 H393 0.949 . S
H370 C374 0.949 . S
C371 C372 1.349 . S
C371 C373 1.327 . S
C371 H394 0.950 . S
C372 C371 1.349 . S
C372 C384 1.349 . S
C373 C371 1.327 . S
C373 C389 1.429 . S
C373 H395 0.950 . S
C374 H370 0.949 . S
C374 C382 1.574 . S
C374 C390 1.368 . S
H375 C383 0.950 . S
H376 C381 0.950 . S
H377 C382 0.949 . S
H378 C384 0.950 . S
H379 C385 0.950 . S
H380 C386 0.949 . S
C381 H376 0.950 . S
C381 C383 1.327 . S
C381 C387 1.429 . S
C382 C374 1.574 . S
C382 H377 0.949 . S
C382 C388 1.368 . S
C383 C367 1.349 . S
C383 H375 0.950 . S
C383 C381 1.327 . S
C384 C372 1.349 . S
C384 H378 0.950 . S
C384 C385 1.327 . S
C385 H379 0.950 . S
C385 C384 1.327 . S
C385 C389 1.429 . S
C386 C369 1.574 . S
C386 H380 0.949 . S
C386 C390 1.368 . S
C387 C368 1.429 . S
C387 C381 1.429 . S
C387 C388 1.523 . S
C388 C369 1.368 . S
C388 C382 1.368 . S
C388 C387 1.523 . S
C389 C373 1.429 . S
C389 C385 1.429 . S
C389 C390 1.523 . S
C390 C374 1.368 . S
C390 C386 1.368 . S
C390 C389 1.523 . S
H391 C366 0.950 . S
H392 C368 0.950 . S
H393 C369 0.949 . S
H394 C371 0.950 . S
H395 C373 0.950 . S
C396 C397 1.349 . S
C396 C398 1.327 . S
C396 H421 0.950 . S
C397 C396 1.349 . S
C397 C413 1.349 . S
C398 C396 1.327 . S
C398 C417 1.429 . S
C398 H422 0.950 . S
C399 C416 1.574 . S
C399 C418 1.368 . S
C399 H423 0.949 . S
H400 C404 0.949 . S
C401 C402 1.349 . S
C401 C403 1.327 . S
C401 H424 0.950 . S
C402 C401 1.349 . S
C402 C414 1.349 . S
C403 C401 1.327 . S
C403 C419 1.429 . S
C403 H425 0.950 . S
C404 H400 0.949 . S
C404 C412 1.574 . S
C404 C420 1.368 . S
H405 C413 0.950 . S
H406 C411 0.950 . S
H407 C412 0.949 . S
H408 C414 0.950 . S
H409 C415 0.950 . S
H410 C416 0.949 . S
C411 H406 0.950 . S
C411 C413 1.327 . S
C411 C417 1.429 . S
C412 C404 1.574 . S
C412 H407 0.949 . S
C412 C418 1.368 . S
C413 C397 1.349 . S
C413 H405 0.950 . S
C413 C411 1.327 . S
C414 C402 1.349 . S
C414 H408 0.950 . S
C414 C415 1.327 . S
C415 H409 0.950 . S
C415 C414 1.327 . S
C415 C419 1.429 . S
C416 C399 1.574 . S
C416 H410 0.949 . S
C416 C420 1.368 . S
C417 C398 1.429 . S
C417 C411 1.429 . S
C417 C418 1.523 . S
C418 C399 1.368 . S
C418 C412 1.368 . S
C418 C417 1.523 . S
C419 C403 1.429 . S
C419 C415 1.429 . S
C419 C420 1.523 . S
C420 C404 1.368 . S
C420 C416 1.368 . S
C420 C419 1.523 . S
H421 C396 0.950 . S
H422 C398 0.950 . S
H423 C399 0.949 . S
H424 C401 0.950 . S
H425 C403 0.950 . S
C426 C427 1.349 . S
C426 C428 1.327 . S
C426 H451 0.950 . S
C427 C426 1.349 . S
C427 C443 1.349 . S
C428 C426 1.327 . S
C428 C447 1.429 . S
C428 H452 0.950 . S
C429 C446 1.574 . S
C429 C448 1.368 . S
C429 H453 0.949 . S
H430 C434 0.949 . S
C431 C432 1.349 . S
C431 C433 1.327 . S
C431 H454 0.950 . S
C432 C431 1.349 . S
C432 C444 1.349 . S
C433 C431 1.327 . S
C433 C449 1.429 . S
C433 H455 0.950 . S
C434 H430 0.949 . S
C434 C442 1.574 . S
C434 C450 1.368 . S
H435 C443 0.950 . S
H436 C441 0.950 . S
H437 C442 0.949 . S
H438 C444 0.950 . S
H439 C445 0.950 . S
H440 C446 0.949 . S
C441 H436 0.950 . S
C441 C443 1.327 . S
C441 C447 1.429 . S
C442 C434 1.574 . S
C442 H437 0.949 . S
C442 C448 1.368 . S
C443 C427 1.349 . S
C443 H435 0.950 . S
C443 C441 1.327 . S
C444 C432 1.349 . S
C444 H438 0.950 . S
C444 C445 1.327 . S
C445 H439 0.950 . S
C445 C444 1.327 . S
C445 C449 1.429 . S
C446 C429 1.574 . S
C446 H440 0.949 . S
C446 C450 1.368 . S
C447 C428 1.429 . S
C447 C441 1.429 . S
C447 C448 1.523 . S
C448 C429 1.368 . S
C448 C442 1.368 . S
C448 C447 1.523 . S
C449 C433 1.429 . S
C449 C445 1.429 . S
C449 C450 1.523 . S
C450 C434 1.368 . S
C450 C446 1.368 . S
C450 C449 1.523 . S
H451 C426 0.950 . S
H452 C428 0.950 . S
H453 C429 0.949 . S
H454 C431 0.950 . S
H455 C433 0.950 . S
C456 C457 1.349 . S
C456 C458 1.327 . S
C456 H481 0.950 . S
C457 C456 1.349 . S
C457 C473 1.349 . S
C458 C456 1.327 . S
C458 C477 1.429 . S
C458 H482 0.950 . S
C459 C476 1.574 . S
C459 C478 1.368 . S
C459 H483 0.949 . S
H460 C464 0.949 . S
C461 C462 1.349 . S
C461 C463 1.327 . S
C461 H484 0.950 . S
C462 C461 1.349 . S
C462 C474 1.349 . S
C463 C461 1.327 . S
C463 C479 1.429 . S
C463 H485 0.950 . S
C464 H460 0.949 . S
C464 C472 1.574 . S
C464 C480 1.368 . S
H465 C473 0.950 . S
H466 C471 0.950 . S
H467 C472 0.949 . S
H468 C474 0.950 . S
H469 C475 0.950 . S
H470 C476 0.949 . S
C471 H466 0.950 . S
C471 C473 1.327 . S
C471 C477 1.429 . S
C472 C464 1.574 . S
C472 H467 0.949 . S
C472 C478 1.368 . S
C473 C457 1.349 . S
C473 H465 0.950 . S
C473 C471 1.327 . S
C474 C462 1.349 . S
C474 H468 0.950 . S
C474 C475 1.327 . S
C475 H469 0.950 . S
C475 C474 1.327 . S
C475 C479 1.429 . S
C476 C459 1.574 . S
C476 H470 0.949 . S
C476 C480 1.368 . S
C477 C458 1.429 . S
C477 C471 1.429 . S
C477 C478 1.523 . S
C478 C459 1.368 . S
C478 C472 1.368 . S
C478 C477 1.523 . S
C479 C463 1.429 . S
C479 C475 1.429 . S
C479 C480 1.523 . S
C480 C464 1.368 . S
C480 C476 1.368 . S
C480 C479 1.523 . S
H481 C456 0.950 . S
H482 C458 0.950 . S
H483 C459 0.949 . S
H484 C461 0.950 . S
H485 C463 0.950 . S
C486 C487 1.349 . S
C486 C488 1.327 . S
C486 H511 0.950 . S
C487 C486 1.349 . S
C487 C503 1.349 . S
C488 C486 1.327 . S
C488 C507 1.429 . S
C488 H512 0.950 . S
C489 C506 1.574 . S
C489 C508 1.368 . S
C489 H513 0.949 . S
H490 C494 0.949 . S
C491 C492 1.349 . S
C491 C493 1.327 . S
C491 H514 0.950 . S
C492 C491 1.349 . S
C492 C504 1.349 . S
C493 C491 1.327 . S
C493 C509 1.429 . S
C493 H515 0.950 . S
C494 H490 0.949 . S
C494 C502 1.574 . S
C494 C510 1.368 . S
H495 C503 0.950 . S
H496 C501 0.950 . S
H497 C502 0.949 . S
H498 C504 0.950 . S
H499 C505 0.950 . S
H500 C506 0.949 . S
C501 H496 0.950 . S
C501 C503 1.327 . S
C501 C507 1.429 . S
C502 C494 1.574 . S
C502 H497 0.949 . S
C502 C508 1.368 . S
C503 C487 1.349 . S
C503 H495 0.950 . S
C503 C501 1.327 . S
C504 C492 1.349 . S
C504 H498 0.950 . S
C504 C505 1.327 . S
C505 H499 0.950 . S
C505 C504 1.327 . S
C505 C509 1.429 . S
C506 C489 1.574 . S
C506 H500 0.949 . S
C506 C510 1.368 . S
C507 C488 1.429 . S
C507 C501 1.429 . S
C507 C508 1.523 . S
C508 C489 1.368 . S
C508 C502 1.368 . S
C508 C507 1.523 . S
C509 C493 1.429 . S
C509 C505 1.429 . S
C509 C510 1.523 . S
C510 C494 1.368 . S
C510 C506 1.368 . S
C510 C509 1.523 . S
H511 C486 0.950 . S
H512 C488 0.950 . S
H513 C489 0.949 . S
H514 C491 0.950 . S
H515 C493 0.950 . S
C516 C517 1.349 . S
C516 C518 1.327 . S
C516 H541 0.950 . S
C517 C516 1.349 . S
C517 C533 1.349 . S
C518 C516 1.327 . S
C518 C537 1.429 . S
C518 H542 0.950 . S
C519 C536 1.574 . S
C519 C538 1.368 . S
C519 H543 0.949 . S
H520 C524 0.949 . S
C521 C522 1.349 . S
C521 C523 1.327 . S
C521 H544 0.950 . S
C522 C521 1.349 . S
C522 C534 1.349 . S
C523 C521 1.327 . S
C523 C539 1.429 . S
C523 H545 0.950 . S
C524 H520 0.949 . S
C524 C532 1.574 . S
C524 C540 1.368 . S
H525 C533 0.950 . S
H526 C531 0.950 . S
H527 C532 0.949 . S
H528 C534 0.950 . S
H529 C535 0.950 . S
H530 C536 0.949 . S
C531 H526 0.950 . S
C531 C533 1.327 . S
C531 C537 1.429 . S
C532 C524 1.574 . S
C532 H527 0.949 . S
C532 C538 1.368 . S
C533 C517 1.349 . S
C533 H525 0.950 . S
C533 C531 1.327 . S
C534 C522 1.349 . S
C534 H528 0.950 . S
C534 C535 1.327 . S
C535 H529 0.950 . S
C535 C534 1.327 . S
C535 C539 1.429 . S
C536 C519 1.574 . S
C536 H530 0.949 . S
C536 C540 1.368 . S
C537 C518 1.429 . S
C537 C531 1.429 . S
C537 C538 1.523 . S
C538 C519 1.368 . S
C538 C532 1.368 . S
C538 C537 1.523 . S
C539 C523 1.429 . S
C539 C535 1.429 . S
C539 C540 1.523 . S
C540 C524 1.368 . S
C540 C536 1.368 . S
C540 C539 1.523 . S
H541 C516 0.950 . S
H542 C518 0.950 . S
H543 C519 0.949 . S
H544 C521 0.950 . S
H545 C523 0.950 . S
C546 C547 1.349 . S
C546 C548 1.327 . S
C546 H571 0.950 1_455 S
C547 C546 1.349 . S
C547 C563 1.349 . S
C548 C546 1.327 . S
C548 C567 1.429 . S
C548 H572 0.950 1_455 S
C549 C566 1.574 . S
C549 C568 1.368 . S
C549 H573 0.949 . S
H550 C554 0.949 1_556 S
C551 C552 1.349 . S
C551 C553 1.327 . S
C551 H574 0.950 . S
C552 C551 1.349 . S
C552 C564 1.349 . S
C553 C551 1.327 . S
C553 C569 1.429 . S
C553 H575 0.950 . S
C554 H550 0.949 1_554 S
C554 C562 1.574 . S
C554 C570 1.368 1_554 S
H555 C563 0.950 . S
H556 C561 0.950 . S
H557 C562 0.949 1_655 S
H558 C564 0.950 . S
H559 C565 0.950 . S
H560 C566 0.949 . S
C561 H556 0.950 . S
C561 C563 1.327 . S
C561 C567 1.429 . S
C562 C554 1.574 . S
C562 H557 0.949 1_455 S
C562 C568 1.368 . S
C563 C547 1.349 . S
C563 H555 0.950 . S
C563 C561 1.327 . S
C564 C552 1.349 . S
C564 H558 0.950 . S
C564 C565 1.327 . S
C565 H559 0.950 . S
C565 C564 1.327 . S
C565 C569 1.429 . S
C566 C549 1.574 . S
C566 H560 0.949 . S
C566 C570 1.368 1_554 S
C567 C548 1.429 . S
C567 C561 1.429 . S
C567 C568 1.523 . S
C568 C549 1.368 . S
C568 C562 1.368 . S
C568 C567 1.523 . S
C569 C553 1.429 . S
C569 C565 1.429 . S
C569 C570 1.523 . S
C570 C554 1.368 1_556 S
C570 C566 1.368 1_556 S
C570 C569 1.523 . S
H571 C546 0.950 1_655 S
H572 C548 0.950 1_655 S
H573 C549 0.949 . S
H574 C551 0.950 . S
H575 C553 0.950 . S
C576 C577 1.349 . S
C576 C578 1.327 . S
C576 H601 0.950 1_545 S
C577 C576 1.349 . S
C577 C593 1.349 . S
C578 C576 1.327 . S
C578 C597 1.429 . S
C578 H602 0.950 1_545 S
C579 C596 1.574 . S
C579 C598 1.368 . S
C579 H603 0.949 . S
H580 C584 0.949 1_565 S
C581 C582 1.349 . S
C581 C583 1.327 . S
C581 H604 0.950 . S
C582 C581 1.349 . S
C582 C594 1.349 . S
C583 C581 1.327 . S
C583 C599 1.429 . S
C583 H605 0.950 . S
C584 H580 0.949 1_545 S
C584 C592 1.574 . S
C584 C600 1.368 . S
H585 C593 0.950 . S
H586 C591 0.950 . S
H587 C592 0.949 1_565 S
H588 C594 0.963 . S
H589 C595 0.950 1_565 S
H590 C596 0.949 . S
C591 H586 0.950 . S
C591 C593 1.327 . S
C591 C597 1.429 . S
C592 C584 1.574 . S
C592 H587 0.949 1_545 S
C592 C598 1.368 . S
C593 C577 1.349 . S
C593 H585 0.950 . S
C593 C591 1.327 . S
C594 C582 1.349 . S
C594 H588 0.963 . S
C594 C595 1.327 . S
C595 H589 0.950 1_545 S
C595 C594 1.327 . S
C595 C599 1.429 . S
C596 C579 1.574 . S
C596 H590 0.949 . S
C596 C600 1.368 . S
C597 C578 1.429 . S
C597 C591 1.429 . S
C597 C598 1.523 . S
C598 C579 1.368 . S
C598 C592 1.368 . S
C598 C597 1.523 . S
C599 C583 1.429 . S
C599 C595 1.429 . S
C599 C600 1.523 . S
C600 C584 1.368 . S
C600 C596 1.368 . S
C600 C599 1.523 . S
H601 C576 0.950 1_565 S
H602 C578 0.950 1_565 S
H603 C579 0.949 . S
H604 C581 0.950 . S
H605 C583 0.950 . S
C606 C607 1.349 . S
C606 C608 1.327 . S
C606 H631 0.950 . S
C607 C606 1.349 . S
C607 C623 1.349 . S
C608 C606 1.327 . S
C608 C627 1.429 . S
C608 H632 0.950 . S
C609 C626 1.574 . S
C609 C628 1.368 . S
C609 H633 0.949 . S
H610 C614 0.949 . S
C611 C612 1.349 . S
C611 C613 1.327 . S
C611 H634 0.950 . S
C612 C611 1.349 . S
C612 C624 1.349 . S
C613 C611 1.327 . S
C613 C629 1.429 . S
C613 H635 0.950 . S
C614 H610 0.949 . S
C614 C622 1.574 . S
C614 C630 1.368 . S
H615 C623 0.950 . S
H616 C621 0.950 . S
H617 C622 0.949 . S
H618 C624 0.950 . S
H619 C625 0.950 . S
H620 C626 0.949 . S
C621 H616 0.950 . S
C621 C623 1.327 . S
C621 C627 1.429 . S
C622 C614 1.574 . S
C622 H617 0.949 . S
C622 C628 1.368 . S
C623 C607 1.349 . S
C623 H615 0.950 . S
C623 C621 1.327 . S
C624 C612 1.349 . S
C624 H618 0.950 . S
C624 C625 1.327 . S
C625 H619 0.950 . S
C625 C624 1.327 . S
C625 C629 1.429 . S
C626 C609 1.574 . S
C626 H620 0.949 . S
C626 C630 1.368 . S
C627 C608 1.429 . S
C627 C621 1.429 . S
C627 C628 1.523 . S
C628 C609 1.368 . S
C628 C622 1.368 . S
C628 C627 1.523 . S
C629 C613 1.429 . S
C629 C625 1.429 . S
C629 C630 1.523 . S
C630 C614 1.368 . S
C630 C626 1.368 . S
C630 C629 1.523 . S
H631 C606 0.950 . S
H632 C608 0.950 . S
H633 C609 0.949 . S
H634 C611 0.950 . S
H635 C613 0.950 . S
C636 C637 1.349 . S
C636 C638 1.327 . S
C636 H661 0.950 . S
C637 C636 1.349 . S
C637 C653 1.349 . S
C638 C636 1.327 . S
C638 C657 1.429 . S
C638 H662 0.950 . S
C639 C656 1.574 . S
C639 C658 1.368 . S
C639 H663 0.949 1_545 S
H640 C644 0.949 . S
C641 C642 1.349 . S
C641 C643 1.327 . S
C641 H664 0.950 1_545 S
C642 C641 1.349 . S
C642 C654 1.349 . S
C643 C641 1.327 . S
C643 C659 1.429 . S
C643 H665 0.950 1_545 S
C644 H640 0.949 . S
C644 C652 1.574 . S
C644 C660 1.368 . S
H645 C653 0.950 1_565 S
H646 C651 0.950 1_565 S
H647 C652 0.949 . S
H648 C654 0.950 . S
H649 C655 0.950 . S
H650 C656 0.949 1_565 S
C651 H646 0.950 1_545 S
C651 C653 1.327 . S
C651 C657 1.429 . S
C652 C644 1.574 . S
C652 H647 0.949 . S
C652 C658 1.368 . S
C653 C637 1.349 . S
C653 H645 0.950 1_545 S
C653 C651 1.327 . S
C654 C642 1.349 . S
C654 H648 0.950 . S
C654 C655 1.327 . S
C655 H649 0.950 . S
C655 C654 1.327 . S
C655 C659 1.429 . S
C656 C639 1.574 . S
C656 H650 0.949 1_545 S
C656 C660 1.368 . S
C657 C638 1.429 . S
C657 C651 1.429 . S
C657 C658 1.523 . S
C658 C639 1.368 . S
C658 C652 1.368 . S
C658 C657 1.523 . S
C659 C643 1.429 . S
C659 C655 1.429 . S
C659 C660 1.523 . S
C660 C644 1.368 . S
C660 C656 1.368 . S
C660 C659 1.523 . S
H661 C636 0.950 . S
H662 C638 0.950 . S
H663 C639 0.949 1_565 S
H664 C641 0.950 1_565 S
H665 C643 0.950 1_565 S
C666 C667 1.349 . S
C666 C668 1.327 . S
C666 H691 0.950 . S
C667 C666 1.349 . S
C667 C683 1.349 . S
C668 C666 1.327 . S
C668 C687 1.429 . S
C668 H692 0.950 . S
C669 C686 1.574 . S
C669 C688 1.368 . S
C669 H693 0.949 . S
H670 C674 0.949 . S
C671 C672 1.349 . S
C671 C673 1.327 . S
C671 H694 0.950 . S
C672 C671 1.349 . S
C672 C684 1.349 . S
C673 C671 1.327 . S
C673 C689 1.429 . S
C673 H695 0.950 . S
C674 H670 0.949 . S
C674 C682 1.574 . S
C674 C690 1.368 1_556 S
H675 C683 0.950 . S
H676 C681 0.950 . S
H677 C682 0.949 . S
H678 C684 0.950 . S
H679 C685 0.950 . S
H680 C686 0.949 1_554 S
C681 H676 0.950 . S
C681 C683 1.327 . S
C681 C687 1.429 . S
C682 C674 1.574 . S
C682 H677 0.949 . S
C682 C688 1.368 . S
C683 C667 1.349 . S
C683 H675 0.950 . S
C683 C681 1.327 . S
C684 C672 1.349 . S
C684 H678 0.950 . S
C684 C685 1.327 . S
C685 H679 0.950 . S
C685 C684 1.327 . S
C685 C689 1.429 . S
C686 C669 1.574 . S
C686 H680 0.949 1_556 S
C686 C690 1.368 1_556 S
C687 C668 1.429 . S
C687 C681 1.429 . S
C687 C688 1.523 . S
C688 C669 1.368 . S
C688 C682 1.368 . S
C688 C687 1.523 . S
C689 C673 1.429 . S
C689 C685 1.429 . S
C689 C690 1.523 . S
C690 C674 1.368 1_554 S
C690 C686 1.368 1_554 S
C690 C689 1.523 . S
H691 C666 0.950 . S
H692 C668 0.950 . S
H693 C669 0.949 . S
H694 C671 0.950 . S
H695 C673 0.950 . S
C696 C697 1.349 . S
C696 C698 1.327 . S
C696 H721 0.950 . S
C697 C696 1.349 . S
C697 C713 1.349 . S
C698 C696 1.327 . S
C698 C717 1.429 . S
C698 H722 0.950 . S
C699 C716 1.574 . S
C699 C718 1.368 . S
C699 H723 0.949 . S
H700 C704 0.949 . S
C701 C702 1.349 . S
C701 C703 1.327 . S
C701 H724 0.950 . S
C702 C701 1.349 . S
C702 C714 1.349 . S
C703 C701 1.327 . S
C703 C719 1.429 . S
C703 H725 0.950 . S
C704 H700 0.949 . S
C704 C712 1.574 . S
C704 C720 1.368 . S
H705 C713 0.950 . S
H706 C711 0.950 . S
H707 C712 0.949 . S
H708 C714 0.950 . S
H709 C715 0.950 . S
H710 C716 0.949 . S
C711 H706 0.950 . S
C711 C713 1.327 . S
C711 C717 1.429 . S
C712 C704 1.574 . S
C712 H707 0.949 . S
C712 C718 1.368 . S
C713 C697 1.349 . S
C713 H705 0.950 . S
C713 C711 1.327 . S
C714 C702 1.349 . S
C714 H708 0.950 . S
C714 C715 1.327 . S
C715 H709 0.950 . S
C715 C714 1.327 . S
C715 C719 1.429 . S
C716 C699 1.574 . S
C716 H710 0.949 . S
C716 C720 1.368 . S
C717 C698 1.429 . S
C717 C711 1.429 . S
C717 C718 1.523 . S
C718 C699 1.368 . S
C718 C712 1.368 . S
C718 C717 1.523 . S
C719 C703 1.429 . S
C719 C715 1.429 . S
C719 C720 1.523 . S
C720 C704 1.368 . S
C720 C716 1.368 . S
C720 C719 1.523 . S
H721 C696 0.950 . S
H722 C698 0.950 . S
H723 C699 0.949 . S
H724 C701 0.950 . S
H725 C703 0.950 . S
C187 C7 0.626 . S
C192 C185 0.623 . S
C217 C51 1.918 . S
C222 C163 1.870 . S
C247 C87 1.223 . S
C252 C174 1.217 . S
C277 C16 0.231 . S
C282 C179 0.184 . S
C312 C157 1.826 . S
C307 C42 1.859 . S
C342 C168 1.135 . S
C337 C96 1.145 . S
C367 C47 1.260 . S
C372 C141 1.254 . S
C397 C91 3.007 . S
C402 C146 2.961 1_655 S
C427 C2 1.878 . S
C432 C124 1.852 1_565 S
C462 C135 1.120 . S
C457 C56 1.127 . S
C492 C152 2.948 . S
C487 C82 2.992 . S
C517 C11 1.917 . S
C522 C130 1.877 . S
C552 C147 1.710 . S
C547 C19 1.677 . S
C577 C50 1.425 . S
C582 C125 1.478 . S
C607 C99 1.517 . S
C612 C136 1.545 . S
C642 C169 1.525 . S
C637 C59 1.514 . S
C672 C180 1.308 . S
C667 C90 1.281 . S
C697 C10 1.403 . S
C702 C158 1.442 . S
