# Generated by pormake.
# Topology apo, (3,6)-cn, num edge types: 1
# Building blocks:
#     Node 0, Type 0, BuildingBlock: ESEHIV_clean_linker_0, # of connection points: 3
#     Node 1, Type 0, BuildingBlock: ESEHIV_clean_linker_0, # of connection points: 3
#     Node 2, Type 0, BuildingBlock: ESEHIV_clean_linker_0, # of connection points: 3
#     Node 3, Type 0, BuildingBlock: ESEHIV_clean_linker_0, # of connection points: 3
#     Node 4, Type 0, BuildingBlock: ESEHIV_clean_linker_0, # of connection points: 3
#     Node 5, Type 0, BuildingBlock: ESEHIV_clean_linker_0, # of connection points: 3
#     Node 6, Type 0, BuildingBlock: ESEHIV_clean_linker_0, # of connection points: 3
#     Node 7, Type 0, BuildingBlock: ESEHIV_clean_linker_0, # of connection points: 3
#     Node 8, Type 1, BuildingBlock: KUMBUR_clean_sbu_1, # of connection points: 6
#     Node 9, Type 1, BuildingBlock: KUMBUR_clean_sbu_1, # of connection points: 6
#     Node 10, Type 1, BuildingBlock: KUMBUR_clean_sbu_1, # of connection points: 6
#     Node 11, Type 1, BuildingBlock: KUMBUR_clean_sbu_1, # of connection points: 6
#     Edge 12, Type (0, 1), BuildingBlock: OJICUG_clean_linker_0, # of connection points: 2
#     Edge 13, Type (0, 1), BuildingBlock: OJICUG_clean_linker_0, # of connection points: 2
#     Edge 14, Type (0, 1), BuildingBlock: OJICUG_clean_linker_0, # of connection points: 2
#     Edge 15, Type (0, 1), BuildingBlock: OJICUG_clean_linker_0, # of connection points: 2
#     Edge 16, Type (0, 1), BuildingBlock: OJICUG_clean_linker_0, # of connection points: 2
#     Edge 17, Type (0, 1), BuildingBlock: OJICUG_clean_linker_0, # of connection points: 2
#     Edge 18, Type (0, 1), BuildingBlock: OJICUG_clean_linker_0, # of connection points: 2
#     Edge 19, Type (0, 1), BuildingBlock: OJICUG_clean_linker_0, # of connection points: 2
#     Edge 20, Type (0, 1), BuildingBlock: OJICUG_clean_linker_0, # of connection points: 2
#     Edge 21, Type (0, 1), BuildingBlock: OJICUG_clean_linker_0, # of connection points: 2
#     Edge 22, Type (0, 1), BuildingBlock: OJICUG_clean_linker_0, # of connection points: 2
#     Edge 23, Type (0, 1), BuildingBlock: OJICUG_clean_linker_0, # of connection points: 2
#     Edge 24, Type (0, 1), BuildingBlock: OJICUG_clean_linker_0, # of connection points: 2
#     Edge 25, Type (0, 1), BuildingBlock: OJICUG_clean_linker_0, # of connection points: 2
#     Edge 26, Type (0, 1), BuildingBlock: OJICUG_clean_linker_0, # of connection points: 2
#     Edge 27, Type (0, 1), BuildingBlock: OJICUG_clean_linker_0, # of connection points: 2
#     Edge 28, Type (0, 1), BuildingBlock: OJICUG_clean_linker_0, # of connection points: 2
#     Edge 29, Type (0, 1), BuildingBlock: OJICUG_clean_linker_0, # of connection points: 2
#     Edge 30, Type (0, 1), BuildingBlock: OJICUG_clean_linker_0, # of connection points: 2
#     Edge 31, Type (0, 1), BuildingBlock: OJICUG_clean_linker_0, # of connection points: 2
#     Edge 32, Type (0, 1), BuildingBlock: OJICUG_clean_linker_0, # of connection points: 2
#     Edge 33, Type (0, 1), BuildingBlock: OJICUG_clean_linker_0, # of connection points: 2
#     Edge 34, Type (0, 1), BuildingBlock: OJICUG_clean_linker_0, # of connection points: 2
#     Edge 35, Type (0, 1), BuildingBlock: OJICUG_clean_linker_0, # of connection points: 2
# Relax obj value: 0.006
# Max RMSD: 0.142
# Mean RMSD: 0.105
data_MOF--net-apo--node1-KUMBUR_clean_sbu_1--node2-ESEHIV_clean_linker_0--edge1-OJICUG_clean_linker_0
_symmetry_space_group_name_H-M    P1
_symmetry_Int_Tables_number       1
_symmetry_cell_setting            triclinic
loop_
_symmetry_equiv_pos_as_xyz
'x, y, z'
_cell_length_a     16.426261
_cell_length_b     28.152631
_cell_length_c     38.051636
_cell_angle_alpha  89.858895
_cell_angle_beta   90.221279
_cell_angle_gamma 90.98989
loop_
_atom_site_label
_atom_site_type_symbol
_atom_site_fract_x
_atom_site_fract_y
_atom_site_fract_z
_atom_type_partial_charge
H0 H 0.33853 0.43016 0.44016 0.0
H1 H 0.25517 0.37516 0.34076 0.0
H2 H 0.2055 0.29665 0.43509 0.0
C3 C 0.30726 0.40261 0.42525 0.0
C4 C 0.27293 0.3628 0.4427 0.0
C5 C 0.30019 0.40763 0.38855 0.0
C6 C 0.26001 0.37192 0.3691 0.0
C7 C 0.22782 0.33141 0.38577 0.0
C8 C 0.23401 0.32713 0.42242 0.0
H9 H 0.17326 0.05728 0.93989 0.0
H10 H 0.22485 0.1406 0.84701 0.0
H11 H 0.30174 0.19114 0.94821 0.0
C12 C 0.19655 0.08934 0.92744 0.0
C13 C 0.23389 0.12454 0.94854 0.0
C14 C 0.19405 0.09389 0.89056 0.0
C15 C 0.22737 0.13542 0.87521 0.0
C16 C 0.26695 0.17004 0.89577 0.0
C17 C 0.27047 0.16449 0.93239 0.0
H18 H 0.91724 0.09391 0.61412 0.0
H19 H 0.79208 0.13907 0.70701 0.0
H20 H 0.76527 0.21636 0.61009 0.0
C21 C 0.87714 0.11823 0.62731 0.0
C22 C 0.84436 0.15635 0.60841 0.0
C23 C 0.85756 0.11136 0.663 0.0
C24 C 0.8066 0.14391 0.67951 0.0
C25 C 0.77275 0.18198 0.6609 0.0
C26 C 0.79178 0.18776 0.62515 0.0
H27 H 0.65508 0.4385 0.11422 0.0
H28 H 0.71905 0.36289 0.208 0.0
H29 H 0.78834 0.30857 0.10703 0.0
C30 C 0.68325 0.40832 0.12678 0.0
C31 C 0.71913 0.37307 0.10607 0.0
C32 C 0.68471 0.40521 0.16363 0.0
C33 C 0.72096 0.36613 0.17963 0.0
C34 C 0.75945 0.33132 0.15965 0.0
C35 C 0.75738 0.33467 0.12275 0.0
H36 H 0.67341 0.5614 0.60509 0.0
H37 H 0.80611 0.6952 0.60762 0.0
H38 H 0.74631 0.6225 0.70387 0.0
C39 C 0.70183 0.59041 0.61955 0.0
C40 C 0.70424 0.5882 0.65644 0.0
C41 C 0.73975 0.62848 0.60136 0.0
C42 C 0.77729 0.66536 0.62101 0.0
C43 C 0.77969 0.66336 0.65797 0.0
C44 C 0.74401 0.62439 0.6754 0.0
H45 H 0.8052 0.94257 0.10038 0.0
H46 H 0.76358 0.86555 0.19682 0.0
H47 H 0.69298 0.80321 0.09828 0.0
C48 C 0.78464 0.91087 0.11417 0.0
C49 C 0.75098 0.87268 0.09484 0.0
C50 C 0.78986 0.90884 0.15108 0.0
C51 C 0.76036 0.86797 0.16841 0.0
C52 C 0.72492 0.83013 0.14966 0.0
C53 C 0.72191 0.83203 0.11278 0.0
H54 H 0.0672 0.90055 0.42481 0.0
H55 H 0.21682 0.77743 0.43093 0.0
H56 H 0.19723 0.85409 0.33347 0.0
C57 C 0.10733 0.87581 0.41206 0.0
C58 C 0.12963 0.88262 0.3767 0.0
C59 C 0.13875 0.8379 0.43152 0.0
C60 C 0.19131 0.80597 0.41545 0.0
C61 C 0.21196 0.81111 0.37992 0.0
C62 C 0.18046 0.84943 0.36075 0.0
H63 H 0.37301 0.57597 0.93904 0.0
H64 H 0.26065 0.62128 0.84282 0.0
H65 H 0.28327 0.71738 0.93014 0.0
C66 C 0.34366 0.60293 0.92335 0.0
C67 C 0.32944 0.64751 0.93833 0.0
C68 C 0.32157 0.59364 0.8882 0.0
C69 C 0.27998 0.6288 0.86932 0.0
C70 C 0.26434 0.6736 0.88392 0.0
C71 C 0.29165 0.68285 0.91837 0.0
Tb72 Tb 0.08867 0.12465 0.23758 0.0
C73 C 0.7165 0.11378 0.28674 0.0
N74 N 0.77401 0.14893 0.28852 0.0
C75 C 0.67428 0.20615 0.27159 0.0
C76 C 0.63579 0.12322 0.27644 0.0
C77 C 0.75297 0.1951 0.28279 0.0
C78 C 0.61561 0.16997 0.26797 0.0
C79 C 0.6782 0.03198 0.29941 0.0
C80 C 0.73726 0.06885 0.29787 0.0
C81 C 0.59846 0.04062 0.28785 0.0
C82 C 0.57733 0.08615 0.2763 0.0
Tb83 Tb 0.90047 0.12627 0.30702 0.0
N84 N 0.81491 0.06183 0.30868 0.0
C85 C 0.70085 0.98793 0.31323 0.0
C86 C 0.83613 0.01998 0.32422 0.0
C87 C 0.77997 0.9821 0.32606 0.0
H88 H 0.79622 0.22374 0.28744 0.0
H89 H 0.79751 0.94859 0.33758 0.0
H90 H 0.22429 0.06523 0.28297 0.0
H91 H 0.08554 0.30668 0.18995 0.0
H92 H 0.89669 0.01583 0.33479 0.0
H93 H 0.65737 0.95863 0.31483 0.0
H94 H 0.03946 0.22348 0.19215 0.0
H95 H 0.65851 0.24269 0.26644 0.0
H96 H 0.55231 0.01267 0.28848 0.0
H97 H 0.5151 0.09265 0.26831 0.0
H98 H 0.35682 0.08188 0.31207 0.0
H99 H 0.55429 0.17874 0.25995 0.0
H100 H 0.20845 0.33248 0.22297 0.0
N101 N 0.20855 0.13673 0.26662 0.0
C102 C 0.24164 0.18121 0.26452 0.0
C103 C 0.32461 0.11022 0.29907 0.0
C104 C 0.3163 0.1925 0.28107 0.0
C105 C 0.24956 0.10091 0.28272 0.0
C106 C 0.35785 0.15628 0.29849 0.0
N107 N 0.12752 0.20286 0.23036 0.0
C108 C 0.08947 0.23446 0.20876 0.0
C109 C 0.22977 0.2626 0.24463 0.0
C110 C 0.19873 0.21565 0.24651 0.0
C111 C 0.1868 0.296 0.22501 0.0
C112 C 0.11711 0.28165 0.20653 0.0
H113 H 0.41577 0.16341 0.31133 0.0
H114 H 0.40372 0.24893 0.29256 0.0
H115 H 0.32779 0.31039 0.26079 0.0
O116 O 0.1411 0.13576 0.18737 0.0
O117 O 0.10032 0.14956 0.29238 0.0
O118 O 0.98173 0.18808 0.30224 0.0
O119 O 0.15269 0.06818 0.21482 0.0
O120 O 0.97461 0.15635 0.21901 0.0
O121 O 0.92009 0.1854 0.27027 0.0
O122 O 0.93825 0.11603 0.35932 0.0
O123 O 0.8984 0.0683 0.26789 0.0
O124 O 0.97149 0.09546 0.21938 0.0
O125 O 0.82904 0.15381 0.34779 0.0
O126 O 0.01011 0.08611 0.31882 0.0
O127 O 0.06995 0.05881 0.26769 0.0
C128 C 0.06097 0.18544 0.30564 0.0
C129 C 0.21853 0.0745 0.15763 0.0
C130 C 0.26019 0.07643 0.09594 0.0
C131 C 0.31753 0.04126 0.10329 0.0
C132 C 0.27544 0.03889 0.16415 0.0
C133 C 0.3247 0.02252 0.13712 0.0
C134 C 0.21062 0.09301 0.12332 0.0
C135 C 0.92272 0.18329 0.2358 0.0
C136 C 0.17031 0.09323 0.18702 0.0
C137 C 0.34668 0.23941 0.2798 0.0
C138 C 0.30332 0.27442 0.26177 0.0
C139 C 0.92036 0.06531 0.23458 0.0
C140 C 0.90052 0.17485 0.39953 0.0
C141 C 0.9101 0.19526 0.46183 0.0
C142 C 0.9447 0.23958 0.45243 0.0
C143 C 0.93413 0.21937 0.39069 0.0
C144 C 0.88853 0.16297 0.43501 0.0
C145 C 0.95651 0.25145 0.41709 0.0
C146 C 0.04618 0.05297 0.30055 0.0
C147 C 0.87854 0.13996 0.3723 0.0
H148 H 0.35592 0.02765 0.08267 0.0
H149 H 0.28281 0.02425 0.1903 0.0
H150 H 0.36875 0.99524 0.14243 0.0
H151 H 0.16665 0.12041 0.11799 0.0
H152 H 0.96118 0.26544 0.47236 0.0
H153 H 0.94274 0.2293 0.36347 0.0
H154 H 0.86306 0.12834 0.4417 0.0
H155 H 0.98261 0.28575 0.41013 0.0
Tb156 Tb 0.40325 0.3669 0.73848 0.0
C157 C 0.7805 0.37371 0.7811 0.0
N158 N 0.72331 0.3391 0.78653 0.0
C159 C 0.81908 0.27978 0.77004 0.0
C160 C 0.85947 0.36276 0.76966 0.0
C161 C 0.74197 0.29242 0.78199 0.0
C162 C 0.87803 0.31511 0.76369 0.0
C163 C 0.81837 0.45722 0.78425 0.0
C164 C 0.76028 0.42022 0.7881 0.0
C165 C 0.89695 0.44669 0.77243 0.0
C166 C 0.91739 0.39957 0.76505 0.0
Tb167 Tb 0.59911 0.36411 0.80519 0.0
N168 N 0.68331 0.42899 0.79903 0.0
C169 C 0.79565 0.50356 0.79255 0.0
C170 C 0.66163 0.47383 0.80836 0.0
C171 C 0.71708 0.51183 0.80485 0.0
H172 H 0.69756 0.26483 0.78794 0.0
H173 H 0.69924 0.54745 0.81169 0.0
H174 H 0.24338 0.41618 0.77449 0.0
H175 H 0.43759 0.18992 0.68413 0.0
H176 H 0.60125 0.48048 0.81789 0.0
H177 H 0.83842 0.53307 0.78988 0.0
H178 H 0.46567 0.27545 0.68843 0.0
H179 H 0.83322 0.24278 0.76606 0.0
H180 H 0.94246 0.47465 0.76911 0.0
H181 H 0.97836 0.39191 0.75617 0.0
H182 H 0.1108 0.39045 0.79926 0.0
H183 H 0.93793 0.3052 0.75474 0.0
H184 H 0.32249 0.15377 0.71693 0.0
N185 N 0.27828 0.34659 0.76065 0.0
C186 C 0.25667 0.29986 0.75944 0.0
C187 C 0.15143 0.36455 0.7883 0.0
C188 C 0.18176 0.28341 0.77322 0.0
C189 C 0.22667 0.37906 0.77449 0.0
C190 C 0.12902 0.31645 0.78787 0.0
N191 N 0.37937 0.28688 0.72925 0.0
C192 C 0.42048 0.25987 0.70557 0.0
C193 C 0.2877 0.22037 0.74036 0.0
C194 C 0.30972 0.26883 0.74376 0.0
C195 C 0.33723 0.19116 0.72028 0.0
C196 C 0.40251 0.21136 0.70192 0.0
H197 H 0.07078 0.3053 0.79865 0.0
H198 H 0.10503 0.22129 0.78254 0.0
H199 H 0.19751 0.16603 0.7534 0.0
O200 O 0.40741 0.37076 0.68332 0.0
O201 O 0.38568 0.34152 0.79292 0.0
O202 O 0.50768 0.30692 0.80368 0.0
O203 O 0.30887 0.40151 0.71112 0.0
O204 O 0.52175 0.34013 0.72136 0.0
O205 O 0.56615 0.30475 0.77159 0.0
O206 O 0.58036 0.37981 0.85874 0.0
O207 O 0.61105 0.40751 0.75678 0.0
O208 O 0.48158 0.43043 0.73934 0.0
O209 O 0.66864 0.32869 0.8433 0.0
O210 O 0.50086 0.41153 0.82009 0.0
O211 O 0.40511 0.42717 0.77534 0.0
C212 C 0.43077 0.31256 0.81143 0.0
C213 C 0.28054 0.36715 0.65523 0.0
C214 C 0.24648 0.34683 0.5944 0.0
C215 C 0.18414 0.31632 0.60664 0.0
C216 C 0.21713 0.33698 0.66681 0.0
C217 C 0.16929 0.31178 0.64261 0.0
C218 C 0.29429 0.37243 0.6189 0.0
C219 C 0.56918 0.31009 0.73753 0.0
C220 C 0.33687 0.39034 0.68046 0.0
C221 C 0.16189 0.23475 0.77176 0.0
C222 C 0.21481 0.20325 0.75537 0.0
C223 C 0.5615 0.43433 0.73812 0.0
C224 C 0.69829 0.37344 0.89422 0.0
C225 C 0.74154 0.39013 0.95458 0.0
C226 C 0.81174 0.41326 0.94151 0.0
C227 C 0.7695 0.39607 0.88197 0.0
C228 C 0.68475 0.37024 0.93065 0.0
C229 C 0.82554 0.41605 0.90545 0.0
C230 C 0.43815 0.43452 0.80692 0.0
C231 C 0.63875 0.35245 0.86931 0.0
H232 H 0.14627 0.2964 0.58832 0.0
H233 H 0.20492 0.33246 0.6945 0.0
H234 H 0.12082 0.2884 0.65177 0.0
H235 H 0.34356 0.39537 0.60976 0.0
H236 H 0.85695 0.42835 0.95924 0.0
H237 H 0.78254 0.39785 0.85433 0.0
H238 H 0.63008 0.35256 0.9403 0.0
H239 H 0.88028 0.43338 0.89566 0.0
Tb240 Tb 0.09778 0.87663 0.73163 0.0
C241 C 0.74866 0.83435 0.78259 0.0
N242 N 0.79051 0.87647 0.78241 0.0
C243 C 0.67652 0.91468 0.75563 0.0
C244 C 0.66989 0.83045 0.76798 0.0
C245 C 0.75482 0.91676 0.77017 0.0
C246 C 0.63427 0.87127 0.75412 0.0
C247 C 0.7467 0.74994 0.79554 0.0
C248 C 0.78673 0.79463 0.7962 0.0
C249 C 0.66811 0.74584 0.78101 0.0
C250 C 0.62978 0.78599 0.7673 0.0
Tb251 Tb 0.91792 0.87514 0.80636 0.0
N252 N 0.86382 0.79969 0.80916 0.0
C253 C 0.78702 0.71068 0.80936 0.0
C254 C 0.90194 0.76181 0.82399 0.0
C255 C 0.86463 0.71676 0.82392 0.0
H256 H 0.78571 0.95079 0.77192 0.0
H257 H 0.89556 0.68678 0.83537 0.0
H258 H 0.22476 0.78701 0.74238 0.0
H259 H 0.16944 0.05854 0.69757 0.0
H260 H 0.96024 0.76595 0.8366 0.0
H261 H 0.75844 0.6757 0.80929 0.0
H262 H 0.08344 0.98556 0.70079 0.0
H263 H 0.64874 0.9466 0.74561 0.0
H264 H 0.63651 0.71176 0.7802 0.0
H265 H 0.56926 0.78224 0.7561 0.0
H266 H 0.36493 0.77572 0.76447 0.0
H267 H 0.57427 0.86972 0.74227 0.0
H268 H 0.31065 0.05791 0.72067 0.0
N269 N 0.23024 0.862 0.74681 0.0
C270 C 0.28072 0.9005 0.7492 0.0
C271 C 0.34155 0.81115 0.76105 0.0
C272 C 0.36288 0.89617 0.75939 0.0
C273 C 0.26128 0.81751 0.74977 0.0
C274 C 0.39202 0.85081 0.76686 0.0
N275 N 0.17278 0.94559 0.72763 0.0
C276 C 0.14414 0.98549 0.71161 0.0
C277 C 0.30358 0.98399 0.73652 0.0
C278 C 0.25164 0.94368 0.7382 0.0
C279 C 0.27284 0.02608 0.72242 0.0
C280 C 0.19307 0.02661 0.70945 0.0
H281 H 0.45432 0.84583 0.77528 0.0
H282 H 0.47691 0.93435 0.76824 0.0
H283 H 0.425 0.01134 0.74793 0.0
O284 O 0.05524 0.88785 0.6802 0.0
O285 O 0.10008 0.93504 0.77022 0.0
O286 O 0.04133 0.90048 0.81871 0.0
O287 O 0.16456 0.84925 0.68929 0.0
O288 O 0.97873 0.90899 0.72429 0.0
O289 O 0.93119 0.94104 0.77571 0.0
O290 O 0.88944 0.85871 0.85877 0.0
O291 O 0.89901 0.84437 0.75367 0.0
O292 O 0.02179 0.81245 0.7386 0.0
O293 O 0.86379 0.92779 0.83755 0.0
O294 O 0.03111 0.83876 0.82019 0.0
O295 O 0.09798 0.81614 0.76881 0.0
C296 C 0.08163 0.93561 0.80384 0.0
C297 C 0.08584 0.8285 0.63957 0.0
C298 C 0.06876 0.80709 0.57804 0.0
C299 C 0.02591 0.7657 0.58816 0.0
C300 C 0.04571 0.7862 0.64938 0.0
C301 C 0.01504 0.75519 0.62376 0.0
C302 C 0.09811 0.83854 0.60392 0.0
C303 C 0.94862 0.94456 0.74196 0.0
C304 C 0.11262 0.86342 0.66592 0.0
C305 C 0.41387 0.93679 0.76006 0.0
C306 C 0.38438 0.98061 0.74842 0.0
C307 C 0.94171 0.811 0.73876 0.0
C308 C 0.78324 0.8997 0.88584 0.0
C309 C 0.71938 0.89307 0.94368 0.0
C310 C 0.64339 0.90142 0.92795 0.0
C311 C 0.70674 0.90735 0.87055 0.0
C312 C 0.78902 0.89198 0.92232 0.0
C313 C 0.6372 0.90811 0.89159 0.0
C314 C 0.08425 0.81279 0.80304 0.0
C315 C 0.85852 0.89994 0.86491 0.0
H316 H 0.00284 0.74096 0.5686 0.0
H317 H 0.03836 0.77726 0.67674 0.0
H318 H 0.98334 0.72282 0.63148 0.0
H319 H 0.12988 0.87103 0.59628 0.0
H320 H 0.58875 0.90239 0.94377 0.0
H321 H 0.70072 0.91299 0.84254 0.0
H322 H 0.84815 0.88621 0.93423 0.0
H323 H 0.5783 0.91418 0.87971 0.0
Tb324 Tb 0.4024 0.63344 0.23987 0.0
C325 C 0.73388 0.70788 0.27825 0.0
N326 N 0.71746 0.66054 0.27967 0.0
C327 C 0.84077 0.64475 0.24863 0.0
C328 C 0.80325 0.72581 0.26067 0.0
C329 C 0.77048 0.62874 0.26598 0.0
C330 C 0.85685 0.69353 0.24565 0.0
C331 C 0.69603 0.78764 0.29414 0.0
C332 C 0.68036 0.7382 0.29444 0.0
C333 C 0.76323 0.80601 0.27544 0.0
C334 C 0.81681 0.77514 0.25877 0.0
Tb335 Tb 0.6008 0.63765 0.30758 0.0
N336 N 0.61572 0.719 0.3121 0.0
C337 C 0.64567 0.81688 0.31379 0.0
C338 C 0.57314 0.74696 0.33464 0.0
C339 C 0.58541 0.79628 0.33491 0.0
H340 H 0.75799 0.59104 0.26812 0.0
H341 H 0.54949 0.81825 0.35201 0.0
H342 H 0.33798 0.74377 0.24347 0.0
H343 H 0.23225 0.46874 0.22969 0.0
H344 H 0.53109 0.7317 0.35334 0.0
H345 H 0.65562 0.85503 0.31433 0.0
H346 H 0.3531 0.52202 0.22313 0.0
H347 H 0.88238 0.61952 0.23751 0.0
H348 H 0.7755 0.84394 0.2745 0.0
H349 H 0.86918 0.78972 0.24498 0.0
H350 H 0.21276 0.78493 0.26153 0.0
H351 H 0.91111 0.70583 0.23205 0.0
H352 H 0.10429 0.50015 0.25401 0.0
N353 N 0.28844 0.67481 0.25329 0.0
C354 C 0.22094 0.64862 0.26111 0.0
C355 C 0.21438 0.74652 0.26174 0.0
C356 C 0.14751 0.67026 0.27052 0.0
C357 C 0.28524 0.72318 0.25176 0.0
C358 C 0.14552 0.71993 0.2717 0.0
N359 N 0.29467 0.58177 0.24504 0.0
C360 C 0.29746 0.53569 0.23393 0.0
C361 C 0.15332 0.57157 0.26037 0.0
C362 C 0.2239 0.60018 0.25642 0.0
C363 C 0.15717 0.52341 0.25142 0.0
C364 C 0.22925 0.50558 0.23758 0.0
H365 H 0.0904 0.73804 0.27895 0.0
H366 H 0.02099 0.65759 0.28435 0.0
H367 H 0.02593 0.57103 0.27519 0.0
O368 O 0.45795 0.62535 0.19043 0.0
O369 O 0.39799 0.57872 0.28114 0.0
O370 O 0.50287 0.58821 0.32325 0.0
O371 O 0.33362 0.64721 0.19453 0.0
O372 O 0.48759 0.57562 0.23506 0.0
O373 O 0.60097 0.57507 0.27345 0.0
O374 O 0.65012 0.65342 0.35801 0.0
O375 O 0.60715 0.65385 0.25062 0.0
O376 O 0.4885 0.69271 0.24292 0.0
O377 O 0.67949 0.58806 0.33105 0.0
O378 O 0.48232 0.65954 0.32796 0.0
O379 O 0.43544 0.68898 0.2767 0.0
C380 C 0.43556 0.56767 0.31084 0.0
C381 C 0.40698 0.6751 0.14574 0.0
C382 C 0.40365 0.69528 0.0832 0.0
C383 C 0.41964 0.74315 0.09215 0.0
C384 C 0.42231 0.72285 0.15405 0.0
C385 C 0.4296 0.7566 0.12728 0.0
C386 C 0.39896 0.66137 0.11048 0.0
C387 C 0.55608 0.55781 0.24721 0.0
C388 C 0.39388 0.63947 0.17342 0.0
C389 C 0.07793 0.64173 0.27679 0.0
C390 C 0.08075 0.59242 0.2716 0.0
C391 C 0.56503 0.68692 0.23479 0.0
C392 C 0.74217 0.5997 0.38872 0.0
C393 C 0.77933 0.60121 0.45129 0.0
C394 C 0.84665 0.57287 0.44362 0.0
C395 C 0.80938 0.57102 0.38208 0.0
C396 C 0.7269 0.6146 0.42354 0.0
C397 C 0.86127 0.55787 0.40936 0.0
C398 C 0.42641 0.68228 0.31034 0.0
C399 C 0.68952 0.61394 0.35897 0.0
H400 H 0.42226 0.77059 0.07221 0.0
H401 H 0.42708 0.73405 0.18118 0.0
H402 H 0.44112 0.79351 0.13381 0.0
H403 H 0.38806 0.62418 0.10453 0.0
H404 H 0.88743 0.56157 0.46435 0.0
H405 H 0.82238 0.55917 0.35565 0.0
H406 H 0.67489 0.63653 0.42899 0.0
H407 H 0.91308 0.53584 0.40392 0.0
C408 C 0.10305 0.97003 0.37426 0.0
C409 C 0.10517 0.92593 0.35706 0.0
H410 H 0.08327 0.04463 0.36978 0.0
C411 C 0.08849 0.92425 0.32071 0.0
H412 H 0.11746 0.97305 0.40196 0.0
C413 C 0.07136 0.96574 0.30201 0.0
C414 C 0.06896 0.00949 0.31944 0.0
H415 H 0.08823 0.89085 0.30666 0.0
H416 H 0.05818 0.96347 0.27414 0.0
C417 C 0.08443 0.01122 0.35572 0.0
C418 C 0.42053 0.52747 0.87853 0.0
C419 C 0.34643 0.54912 0.87003 0.0
H420 H 0.50634 0.47412 0.86615 0.0
C421 C 0.30046 0.53043 0.84173 0.0
H422 H 0.45867 0.54081 0.89968 0.0
C423 C 0.33052 0.49386 0.82102 0.0
C424 C 0.40528 0.47305 0.82906 0.0
H425 H 0.24161 0.54452 0.8349 0.0
H426 H 0.29511 0.48238 0.79856 0.0
C427 C 0.4488 0.48948 0.85871 0.0
C428 C 0.58269 0.54426 0.68014 0.0
C429 C 0.66724 0.54749 0.67553 0.0
H430 H 0.48288 0.50644 0.7039 0.0
C431 C 0.7168 0.51285 0.69063 0.0
H432 H 0.54349 0.57079 0.66874 0.0
C433 C 0.68234 0.47554 0.71021 0.0
C434 C 0.5978 0.47289 0.71603 0.0
H435 H 0.78224 0.51465 0.68722 0.0
H436 H 0.72213 0.44875 0.72063 0.0
C437 C 0.54827 0.50745 0.70033 0.0
C438 C 0.78753 0.96153 0.2043 0.0
C439 C 0.82255 0.94987 0.17183 0.0
H440 H 0.79124 0.006 0.2493 0.0
C441 C 0.88916 0.97738 0.1598 0.0
H442 H 0.735 0.94206 0.21421 0.0
C443 C 0.92017 0.01524 0.1799 0.0
C444 C 0.88578 0.02623 0.21268 0.0
H445 H 0.91845 0.96917 0.13515 0.0
H446 H 0.97212 0.03528 0.17 0.0
C447 C 0.81929 0.99879 0.22449 0.0
C448 C 0.9062 0.07243 0.71884 0.0
C449 C 0.88565 0.06903 0.6829 0.0
H450 H 0.94065 0.03551 0.76587 0.0
C451 C 0.88627 0.02419 0.66679 0.0
H452 H 0.90788 0.10649 0.73198 0.0
C453 C 0.90606 0.98379 0.68616 0.0
C454 C 0.92477 0.98721 0.72215 0.0
H455 H 0.8694 0.02002 0.63942 0.0
H456 H 0.90565 0.94971 0.67299 0.0
C457 C 0.92477 0.03185 0.73834 0.0
C458 C 0.57539 0.46309 0.17732 0.0
C459 C 0.65053 0.44319 0.18579 0.0
H460 H 0.48619 0.51403 0.19012 0.0
C461 C 0.69298 0.45963 0.21572 0.0
H462 H 0.5408 0.45071 0.15474 0.0
C463 C 0.6614 0.49579 0.23646 0.0
C464 C 0.58677 0.51637 0.22763 0.0
H465 H 0.75156 0.4452 0.22274 0.0
H466 H 0.69631 0.50811 0.25895 0.0
C467 C 0.54382 0.49916 0.19798 0.0
C468 C 0.28629 0.47446 0.34548 0.0
C469 C 0.33386 0.45024 0.37025 0.0
H470 H 0.27974 0.53154 0.3087 0.0
C471 C 0.41405 0.46623 0.37657 0.0
H472 H 0.22374 0.46351 0.34055 0.0
C473 C 0.4468 0.50474 0.35764 0.0
C474 C 0.39978 0.52829 0.33217 0.0
H475 H 0.45218 0.44811 0.39543 0.0
H476 H 0.50951 0.51538 0.36251 0.0
C477 C 0.31866 0.51324 0.32695 0.0
C478 C 0.19683 0.04577 0.83478 0.0
C479 C 0.16237 0.0541 0.86798 0.0
H480 H 0.19709 0.00334 0.78869 0.0
C481 C 0.0998 0.02303 0.87963 0.0
H482 H 0.24642 0.06771 0.82488 0.0
C483 C 0.07405 0.98437 0.859 0.0
C484 C 0.10892 0.97635 0.82589 0.0
H485 H 0.07025 0.02852 0.90462 0.0
H486 H 0.02616 0.96109 0.86888 0.0
C487 C 0.16949 0.00802 0.81394 0.0
C488 C 0.16946 0.10384 1.00652 0.0
C489 C 0.23896 0.11747 0.98722 0.0
H490 H 0.12153 0.0811 0.05635 0.0
C491 C 0.31426 0.12121 1.00471 0.0
H492 H 0.11058 0.1009 0.99371 0.0
C493 C 0.32061 0.10938 0.04035 0.0
C494 C 0.25157 0.09438 0.05939 0.0
H495 H 0.36887 0.13135 0.99048 0.0
H496 H 0.37988 0.11102 0.05292 0.0
C497 C 0.17558 0.09283 0.04235 0.0
C498 C 0.2666 0.40006 0.50307 0.0
C499 C 0.27398 0.35924 0.48198 0.0
H500 H 0.25308 0.4281 0.55513 0.0
C501 C 0.27792 0.31468 0.49879 0.0
H502 H 0.26211 0.43496 0.49131 0.0
C503 C 0.27063 0.31084 0.5353 0.0
C504 C 0.26103 0.35149 0.55606 0.0
H505 H 0.28577 0.2825 0.48376 0.0
H506 H 0.27196 0.27595 0.54735 0.0
C507 C 0.26093 0.39622 0.5397 0.0
C508 C 0.73992 0.42164 0.05137 0.0
C509 C 0.72036 0.37772 0.06713 0.0
H510 H 0.76092 0.46002 1.00354 0.0
C511 C 0.70374 0.3383 0.04545 0.0
H512 H 0.75374 0.45259 0.06731 0.0
C513 C 0.70783 0.34259 1.00881 0.0
C514 C 0.72951 0.38627 0.99317 0.0
H515 H 0.68783 0.3041 0.05684 0.0
H516 H 0.69646 0.31142 0.99277 0.0
C517 C 0.74462 0.42582 1.01485 0.0
C518 C 0.80582 0.15127 0.54507 0.0
C519 C 0.86357 0.16339 0.57089 0.0
H520 H 0.77523 0.1518 0.49032 0.0
C521 C 0.93759 0.18484 0.56088 0.0
H522 H 0.7481 0.13495 0.55241 0.0
C523 C 0.95314 0.19481 0.52545 0.0
C524 C 0.89509 0.18315 0.4994 0.0
H525 H 0.98261 0.19471 0.58054 0.0
H526 H 0.01062 0.21165 0.51844 0.0
C527 C 0.82158 0.16079 0.50962 0.0
C528 C 0.70158 0.9161 0.04154 0.0
C529 C 0.74158 0.87691 0.05611 0.0
H530 H 0.66239 0.95148 0.9946 0.0
C531 C 0.77327 0.84252 0.03349 0.0
H532 H 0.67623 0.94298 0.05842 0.0
C533 C 0.76658 0.84781 0.99693 0.0
C534 C 0.72631 0.88699 0.9824 0.0
H535 H 0.80453 0.81206 0.0441 0.0
H536 H 0.79226 0.82112 0.98 0.0
C537 C 0.69332 0.92084 1.0051 0.0
C538 C 0.8198 0.63924 0.54553 0.0
C539 C 0.74568 0.62757 0.56211 0.0
H540 H 0.88802 0.64054 0.49763 0.0
C541 C 0.67982 0.61177 0.54106 0.0
H542 H 0.87205 0.65116 0.56078 0.0
C543 C 0.68902 0.60589 0.50463 0.0
C544 C 0.76456 0.61509 0.48853 0.0
H545 H 0.6216 0.60297 0.55287 0.0
H546 H 0.63824 0.59193 0.48938 0.0
C547 C 0.82917 0.63288 0.5093 0.0
C548 C 0.31575 0.63214 1.00267 0.0
C549 C 0.35294 0.65743 0.97516 0.0
H550 H 0.29968 0.62525 0.05804 0.0
C551 C 0.40907 0.694 0.98302 0.0
H552 H 0.27149 0.60415 0.9971 0.0
C553 C 0.42739 0.70538 1.01797 0.0
C554 C 0.38842 0.68114 0.04584 0.0
H555 H 0.43863 0.71383 0.96208 0.0
H556 H 0.47197 0.73331 0.02302 0.0
C557 C 0.33255 0.64417 0.03761 0.0
C558 C 0.183 0.8322 0.494 0.0
C559 C 0.1197 0.83237 0.46914 0.0
H560 H 0.21587 0.82454 0.54822 0.0
C561 C 0.03901 0.82542 0.48026 0.0
H562 H 0.24565 0.8376 0.48588 0.0
C563 C 0.0221 0.81711 0.51577 0.0
C564 C 0.08557 0.81675 0.5406 0.0
H565 H 0.98946 0.82528 0.46138 0.0
H566 H 0.9596 0.81112 0.52386 0.0
C567 C 0.166 0.8249 0.5295 0.0
C568 C 0.11993 0.30536 0.3431 0.0
C569 C 0.18599 0.29396 0.36487 0.0
H570 H 0.02799 0.27951 0.3075 0.0
C571 C 0.21182 0.2467 0.36656 0.0
H572 H 0.09894 0.34157 0.34144 0.0
C573 C 0.17216 0.21139 0.34675 0.0
C574 C 0.1051 0.2227 0.32553 0.0
H575 H 0.26307 0.23722 0.38298 0.0
H576 H 0.19301 0.17516 0.34846 0.0
C577 C 0.07933 0.26994 0.32385 0.0
C578 C 0.39334 0.20535 0.87016 0.0
C579 C 0.31053 0.20962 0.87809 0.0
H580 H 0.49637 0.23443 0.84285 0.0
C581 C 0.26839 0.24936 0.86596 0.0
H582 H 0.42662 0.17466 0.87908 0.0
C583 C 0.30838 0.284 0.84559 0.0
C584 C 0.39046 0.27872 0.8361 0.0
H585 H 0.20427 0.25311 0.87169 0.0
H586 H 0.27452 0.3144 0.83671 0.0
C587 C 0.43298 0.23953 0.84935 0.0
C588 C 0.71805 0.26396 0.67114 0.0
C589 C 0.71718 0.21505 0.67907 0.0
H590 H 0.67049 0.33257 0.68345 0.0
C591 C 0.66436 0.19797 0.70547 0.0
H592 H 0.75853 0.27853 0.65133 0.0
C593 C 0.61672 0.2291 0.72452 0.0
C594 C 0.61858 0.27771 0.71678 0.0
H595 H 0.6597 0.16046 0.71161 0.0
H596 H 0.57765 0.21511 0.74511 0.0
C597 C 0.66825 0.29497 0.6896 0.0
C598 C 0.84641 0.30313 0.20938 0.0
C599 C 0.8041 0.29297 0.17795 0.0
H600 H 0.91565 0.27609 0.25244 0.0
C601 C 0.80361 0.24616 0.16505 0.0
H602 H 0.85067 0.33898 0.21954 0.0
C603 C 0.84317 0.21026 0.18364 0.0
C604 C 0.88218 0.22056 0.21564 0.0
H605 H 0.77136 0.23706 0.14106 0.0
H606 H 0.84169 0.17433 0.17349 0.0
C607 C 0.88402 0.26722 0.22822 0.0
C608 C 0.79079 0.74764 0.67878 0.0
C609 C 0.82098 0.7013 0.67865 0.0
H610 H 0.80441 0.8186 0.6988 0.0
C611 C 0.88953 0.69089 0.69927 0.0
H612 H 0.73738 0.75626 0.66341 0.0
C613 C 0.92859 0.72654 0.71899 0.0
C614 C 0.89873 0.77298 0.71897 0.0
H615 H 0.91347 0.65527 0.69973 0.0
H616 H 0.98211 0.71785 0.73427 0.0
C617 C 0.82873 0.78307 0.69915 0.0
C618 C 0.71045 0.74505 0.16955 0.0
C619 C 0.68258 0.79192 0.1695 0.0
H620 H 0.69537 0.67463 0.19097 0.0
C621 C 0.61599 0.80362 0.19055 0.0
H622 H 0.76241 0.73552 0.15379 0.0
C623 C 0.57777 0.76921 0.21139 0.0
C624 C 0.6059 0.72243 0.21198 0.0
H625 H 0.59389 0.83965 0.19104 0.0
H626 H 0.52695 0.77951 0.2276 0.0
C627 C 0.6726 0.71051 0.1909 0.0
C628 C 0.2666 0.72882 0.37142 0.0
C629 C 0.26865 0.77764 0.36306 0.0
H630 H 0.31666 0.66009 0.3614 0.0
C631 C 0.32524 0.79444 0.33815 0.0
H632 H 0.22314 0.71456 0.39017 0.0
C633 C 0.37627 0.76315 0.32115 0.0
C634 C 0.37377 0.71463 0.32943 0.0
H635 H 0.33047 0.83184 0.33171 0.0
H636 H 0.41808 0.77694 0.30151 0.0
C637 C 0.3196 0.6976 0.35497 0.0
C638 C 0.21895 0.70943 0.82611 0.0
C639 C 0.21912 0.71012 0.86318 0.0
H640 H 0.16888 0.73671 0.77872 0.0
C641 C 0.1729 0.74502 0.88008 0.0
H642 H 0.25455 0.68447 0.81142 0.0
C643 C 0.13007 0.7786 0.8606 0.0
C644 C 0.12955 0.77714 0.82368 0.0
H645 H 0.16842 0.74638 0.9084 0.0
H646 H 0.09659 0.80538 0.87459 0.0
C647 C 0.17219 0.74112 0.80685 0.0
loop_
_geom_bond_atom_site_label_1
_geom_bond_atom_site_label_2
_geom_bond_distance
_geom_bond_site_symmetry_2
_ccdc_geom_bond_type
H0 C3 0.931 . S
H1 C6 0.928 . S
H2 C8 0.930 . S
C3 H0 0.931 . S
C3 C4 1.413 . S
C3 C5 1.360 . S
C4 C3 1.413 . S
C4 C8 1.429 . S
C5 C3 1.360 . S
C5 C6 1.372 . S
C6 H1 0.928 . S
C6 C5 1.372 . S
C6 C7 1.404 . S
C7 C6 1.404 . S
C7 C8 1.391 . S
C8 H2 0.930 . S
C8 C4 1.429 . S
C8 C7 1.391 . S
H9 C12 0.931 . S
H10 C15 0.928 . S
H11 C17 0.930 . S
C12 H9 0.931 . S
C12 C13 1.413 . S
C12 C14 1.360 . S
C13 C12 1.413 . S
C13 C17 1.429 . S
C14 C12 1.360 . S
C14 C15 1.372 . S
C15 H10 0.928 . S
C15 C14 1.372 . S
C15 C16 1.404 . S
C16 C15 1.404 . S
C16 C17 1.391 . S
C17 H11 0.930 . S
C17 C13 1.429 . S
C17 C16 1.391 . S
H18 C21 0.931 . S
H19 C24 0.928 . S
H20 C26 0.930 . S
C21 H18 0.931 . S
C21 C22 1.413 . S
C21 C23 1.360 . S
C22 C21 1.413 . S
C22 C26 1.429 . S
C23 C21 1.360 . S
C23 C24 1.372 . S
C24 H19 0.928 . S
C24 C23 1.372 . S
C24 C25 1.404 . S
C25 C24 1.404 . S
C25 C26 1.391 . S
C26 H20 0.930 . S
C26 C22 1.429 . S
C26 C25 1.391 . S
H27 C30 0.931 . S
H28 C33 0.928 . S
H29 C35 0.930 . S
C30 H27 0.931 . S
C30 C31 1.413 . S
C30 C32 1.360 . S
C31 C30 1.413 . S
C31 C35 1.429 . S
C32 C30 1.360 . S
C32 C33 1.372 . S
C33 H28 0.928 . S
C33 C32 1.372 . S
C33 C34 1.404 . S
C34 C33 1.404 . S
C34 C35 1.391 . S
C35 H29 0.930 . S
C35 C31 1.429 . S
C35 C34 1.391 . S
H36 C39 0.931 . S
H37 C42 0.928 . S
H38 C44 0.930 . S
C39 H36 0.931 . S
C39 C40 1.413 . S
C39 C41 1.360 . S
C40 C39 1.413 . S
C40 C44 1.429 . S
C41 C39 1.360 . S
C41 C42 1.372 . S
C42 H37 0.928 . S
C42 C41 1.372 . S
C42 C43 1.404 . S
C43 C42 1.404 . S
C43 C44 1.391 . S
C44 H38 0.930 . S
C44 C40 1.429 . S
C44 C43 1.391 . S
H45 C48 0.931 . S
H46 C51 0.928 . S
H47 C53 0.930 . S
C48 H45 0.931 . S
C48 C49 1.413 . S
C48 C50 1.360 . S
C49 C48 1.413 . S
C49 C53 1.429 . S
C50 C48 1.360 . S
C50 C51 1.372 . S
C51 H46 0.928 . S
C51 C50 1.372 . S
C51 C52 1.404 . S
C52 C51 1.404 . S
C52 C53 1.391 . S
C53 H47 0.930 . S
C53 C49 1.429 . S
C53 C52 1.391 . S
H54 C57 0.931 . S
H55 C60 0.928 . S
H56 C62 0.930 . S
C57 H54 0.931 . S
C57 C58 1.413 . S
C57 C59 1.360 . S
C58 C57 1.413 . S
C58 C62 1.429 . S
C59 C57 1.360 . S
C59 C60 1.372 . S
C60 H55 0.928 . S
C60 C59 1.372 . S
C60 C61 1.404 . S
C61 C60 1.404 . S
C61 C62 1.391 . S
C62 H56 0.930 . S
C62 C58 1.429 . S
C62 C61 1.391 . S
H63 C66 0.931 . S
H64 C69 0.928 . S
H65 C71 0.930 . S
C66 H63 0.931 . S
C66 C67 1.413 . S
C66 C68 1.360 . S
C67 C66 1.413 . S
C67 C71 1.429 . S
C68 C66 1.360 . S
C68 C69 1.372 . S
C69 H64 0.928 . S
C69 C68 1.372 . S
C69 C70 1.404 . S
C70 C69 1.404 . S
C70 C71 1.391 . S
C71 H65 0.930 . S
C71 C67 1.429 . S
C71 C70 1.391 . S
Tb72 N101 2.617 . S
Tb72 N107 2.572 . S
Tb72 O116 2.465 . S
Tb72 O117 2.387 . S
Tb72 O119 2.428 . S
Tb72 O120 2.308 1_455 S
Tb72 O124 2.349 1_455 S
Tb72 O127 2.393 . S
Tb72 C136 2.802 . S
C73 N74 1.379 . S
C73 C76 1.416 . S
C73 C80 1.424 . S
N74 C73 1.379 . S
N74 C77 1.334 . S
N74 Tb83 2.617 . S
C75 C77 1.390 . S
C75 C78 1.339 . S
C75 H95 0.930 . S
C76 C73 1.416 . S
C76 C78 1.416 . S
C76 C82 1.448 . S
C77 N74 1.334 . S
C77 C75 1.390 . S
C77 H88 0.930 . S
C78 C75 1.339 . S
C78 C76 1.416 . S
C78 H99 0.930 . S
C79 C80 1.413 . S
C79 C81 1.427 . S
C79 C85 1.416 1_545 S
C80 C73 1.424 . S
C80 C79 1.413 . S
C80 N84 1.361 . S
C81 C79 1.427 . S
C81 C82 1.328 . S
C81 H96 0.929 1_545 S
C82 C76 1.448 . S
C82 C81 1.328 . S
C82 H97 0.930 . S
Tb83 N74 2.617 . S
Tb83 N84 2.572 . S
Tb83 O118 2.349 1_655 S
Tb83 O121 2.393 . S
Tb83 O122 2.465 . S
Tb83 O123 2.387 . S
Tb83 O125 2.428 . S
Tb83 O126 2.308 1_655 S
Tb83 C147 2.802 . S
N84 C80 1.361 . S
N84 Tb83 2.572 . S
N84 C86 1.340 . S
C85 C79 1.416 1_565 S
C85 C87 1.332 . S
C85 H93 0.931 . S
C86 N84 1.340 . S
C86 C87 1.407 1_545 S
C86 H92 0.930 . S
C87 C85 1.332 . S
C87 C86 1.407 1_565 S
C87 H89 0.929 . S
H88 C77 0.930 . S
H89 C87 0.929 . S
H90 C105 0.930 . S
H91 C112 0.929 . S
H92 C86 0.930 . S
H93 C85 0.931 . S
H94 C108 0.930 . S
H95 C75 0.930 . S
H96 C81 0.929 1_565 S
H97 C82 0.930 . S
H98 C103 0.930 . S
H99 C78 0.930 . S
H100 C111 0.931 . S
N101 Tb72 2.617 . S
N101 C102 1.379 . S
N101 C105 1.334 . S
C102 N101 1.379 . S
C102 C104 1.416 . S
C102 C110 1.424 . S
C103 H98 0.930 . S
C103 C105 1.390 . S
C103 C106 1.339 . S
C104 C102 1.416 . S
C104 C106 1.416 . S
C104 C137 1.448 . S
C105 H90 0.930 . S
C105 N101 1.334 . S
C105 C103 1.390 . S
C106 C103 1.339 . S
C106 C104 1.416 . S
C106 H113 0.930 . S
N107 Tb72 2.572 . S
N107 C108 1.340 . S
N107 C110 1.361 . S
C108 H94 0.930 . S
C108 N107 1.340 . S
C108 C112 1.407 . S
C109 C110 1.413 . S
C109 C111 1.416 . S
C109 C138 1.427 . S
C110 C102 1.424 . S
C110 N107 1.361 . S
C110 C109 1.413 . S
C111 H100 0.931 . S
C111 C109 1.416 . S
C111 C112 1.332 . S
C112 H91 0.929 . S
C112 C108 1.407 . S
C112 C111 1.332 . S
H113 C106 0.930 . S
H114 C137 0.930 . S
H115 C138 0.929 . S
O116 Tb72 2.465 . S
O116 C136 1.264 . S
O117 Tb72 2.387 . S
O117 C128 1.264 . S
O118 Tb83 2.349 1_455 S
O118 C128 1.243 . S
O119 Tb72 2.428 . S
O119 C136 1.256 . S
O120 Tb72 2.308 1_655 S
O120 C135 1.266 . S
O121 Tb83 2.393 . S
O121 C135 1.248 . S
O122 Tb83 2.465 . S
O122 C147 1.264 . S
O123 Tb83 2.387 . S
O123 C139 1.264 . S
O124 Tb72 2.349 1_655 S
O124 C139 1.243 . S
O125 Tb83 2.428 . S
O125 C147 1.256 . S
O126 Tb83 2.308 1_455 S
O126 C146 1.266 . S
O127 Tb72 2.393 . S
O127 C146 1.248 . S
C128 O117 1.264 . S
C128 O118 1.243 . S
C129 C132 1.399 . S
C129 C134 1.383 . S
C129 C136 1.496 . S
C130 C131 1.399 . S
C130 C134 1.389 . S
C131 C130 1.399 . S
C131 C133 1.380 . S
C131 H148 0.929 . S
C132 C129 1.399 . S
C132 C133 1.392 . S
C132 H149 0.929 . S
C133 C131 1.380 . S
C133 C132 1.392 . S
C133 H150 0.929 . S
C134 C129 1.383 . S
C134 C130 1.389 . S
C134 H151 0.931 . S
C135 O120 1.266 . S
C135 O121 1.248 . S
C136 Tb72 2.802 . S
C136 O116 1.264 . S
C136 O119 1.256 . S
C136 C129 1.496 . S
C137 C104 1.448 . S
C137 H114 0.930 . S
C137 C138 1.328 . S
C138 C109 1.427 . S
C138 H115 0.929 . S
C138 C137 1.328 . S
C139 O123 1.264 . S
C139 O124 1.243 . S
C140 C143 1.399 . S
C140 C144 1.383 . S
C140 C147 1.496 . S
C141 C142 1.399 . S
C141 C144 1.389 . S
C142 C141 1.399 . S
C142 C145 1.380 . S
C142 H152 0.929 . S
C143 C140 1.399 . S
C143 C145 1.392 . S
C143 H153 0.929 . S
C144 C140 1.383 . S
C144 C141 1.389 . S
C144 H154 0.931 . S
C145 C142 1.380 . S
C145 C143 1.392 . S
C145 H155 0.929 . S
C146 O126 1.266 . S
C146 O127 1.248 . S
C147 Tb83 2.802 . S
C147 O122 1.264 . S
C147 O125 1.256 . S
C147 C140 1.496 . S
H148 C131 0.929 . S
H149 C132 0.929 . S
H150 C133 0.929 . S
H151 C134 0.931 . S
H152 C142 0.929 . S
H153 C143 0.929 . S
H154 C144 0.931 . S
H155 C145 0.929 . S
Tb156 N185 2.617 . S
Tb156 N191 2.572 . S
Tb156 O200 2.465 . S
Tb156 O201 2.387 . S
Tb156 O203 2.428 . S
Tb156 O204 2.308 . S
Tb156 O208 2.349 . S
Tb156 O211 2.393 . S
Tb156 C220 2.802 . S
C157 N158 1.379 . S
C157 C160 1.416 . S
C157 C164 1.424 . S
N158 C157 1.379 . S
N158 C161 1.334 . S
N158 Tb167 2.617 . S
C159 C161 1.390 . S
C159 C162 1.339 . S
C159 H179 0.930 . S
C160 C157 1.416 . S
C160 C162 1.416 . S
C160 C166 1.448 . S
C161 N158 1.334 . S
C161 C159 1.390 . S
C161 H172 0.930 . S
C162 C159 1.339 . S
C162 C160 1.416 . S
C162 H183 0.930 . S
C163 C164 1.413 . S
C163 C165 1.427 . S
C163 C169 1.416 . S
C164 C157 1.424 . S
C164 C163 1.413 . S
C164 N168 1.361 . S
C165 C163 1.427 . S
C165 C166 1.328 . S
C165 H180 0.929 . S
C166 C160 1.448 . S
C166 C165 1.328 . S
C166 H181 0.930 . S
Tb167 N158 2.617 . S
Tb167 N168 2.572 . S
Tb167 O202 2.349 . S
Tb167 O205 2.393 . S
Tb167 O206 2.465 . S
Tb167 O207 2.387 . S
Tb167 O209 2.428 . S
Tb167 O210 2.308 . S
Tb167 C231 2.802 . S
N168 C164 1.361 . S
N168 Tb167 2.572 . S
N168 C170 1.340 . S
C169 C163 1.416 . S
C169 C171 1.332 . S
C169 H177 0.931 . S
C170 N168 1.340 . S
C170 C171 1.407 . S
C170 H176 0.930 . S
C171 C169 1.332 . S
C171 C170 1.407 . S
C171 H173 0.929 . S
H172 C161 0.930 . S
H173 C171 0.929 . S
H174 C189 0.930 . S
H175 C196 0.929 . S
H176 C170 0.930 . S
H177 C169 0.931 . S
H178 C192 0.930 . S
H179 C159 0.930 . S
H180 C165 0.929 . S
H181 C166 0.930 . S
H182 C187 0.930 . S
H183 C162 0.930 . S
H184 C195 0.931 . S
N185 Tb156 2.617 . S
N185 C186 1.379 . S
N185 C189 1.334 . S
C186 N185 1.379 . S
C186 C188 1.416 . S
C186 C194 1.424 . S
C187 H182 0.930 . S
C187 C189 1.390 . S
C187 C190 1.339 . S
C188 C186 1.416 . S
C188 C190 1.416 . S
C188 C221 1.448 . S
C189 H174 0.930 . S
C189 N185 1.334 . S
C189 C187 1.390 . S
C190 C187 1.339 . S
C190 C188 1.416 . S
C190 H197 0.930 . S
N191 Tb156 2.572 . S
N191 C192 1.340 . S
N191 C194 1.361 . S
C192 H178 0.930 . S
C192 N191 1.340 . S
C192 C196 1.407 . S
C193 C194 1.413 . S
C193 C195 1.416 . S
C193 C222 1.427 . S
C194 C186 1.424 . S
C194 N191 1.361 . S
C194 C193 1.413 . S
C195 H184 0.931 . S
C195 C193 1.416 . S
C195 C196 1.332 . S
C196 H175 0.929 . S
C196 C192 1.407 . S
C196 C195 1.332 . S
H197 C190 0.930 . S
H198 C221 0.930 . S
H199 C222 0.929 . S
O200 Tb156 2.465 . S
O200 C220 1.264 . S
O201 Tb156 2.387 . S
O201 C212 1.264 . S
O202 Tb167 2.349 . S
O202 C212 1.243 . S
O203 Tb156 2.428 . S
O203 C220 1.256 . S
O204 Tb156 2.308 . S
O204 C219 1.266 . S
O205 Tb167 2.393 . S
O205 C219 1.248 . S
O206 Tb167 2.465 . S
O206 C231 1.264 . S
O207 Tb167 2.387 . S
O207 C223 1.264 . S
O208 Tb156 2.349 . S
O208 C223 1.243 . S
O209 Tb167 2.428 . S
O209 C231 1.256 . S
O210 Tb167 2.308 . S
O210 C230 1.266 . S
O211 Tb156 2.393 . S
O211 C230 1.248 . S
C212 O201 1.264 . S
C212 O202 1.243 . S
C213 C216 1.399 . S
C213 C218 1.383 . S
C213 C220 1.496 . S
C214 C215 1.399 . S
C214 C218 1.389 . S
C215 C214 1.399 . S
C215 C217 1.380 . S
C215 H232 0.929 . S
C216 C213 1.399 . S
C216 C217 1.392 . S
C216 H233 0.929 . S
C217 C215 1.380 . S
C217 C216 1.392 . S
C217 H234 0.929 . S
C218 C213 1.383 . S
C218 C214 1.389 . S
C218 H235 0.931 . S
C219 O204 1.266 . S
C219 O205 1.248 . S
C220 Tb156 2.802 . S
C220 O200 1.264 . S
C220 O203 1.256 . S
C220 C213 1.496 . S
C221 C188 1.448 . S
C221 H198 0.930 . S
C221 C222 1.328 . S
C222 C193 1.427 . S
C222 H199 0.929 . S
C222 C221 1.328 . S
C223 O207 1.264 . S
C223 O208 1.243 . S
C224 C227 1.399 . S
C224 C228 1.383 . S
C224 C231 1.496 . S
C225 C226 1.399 . S
C225 C228 1.389 . S
C226 C225 1.399 . S
C226 C229 1.380 . S
C226 H236 0.929 . S
C227 C224 1.399 . S
C227 C229 1.392 . S
C227 H237 0.929 . S
C228 C224 1.383 . S
C228 C225 1.389 . S
C228 H238 0.931 . S
C229 C226 1.380 . S
C229 C227 1.392 . S
C229 H239 0.929 . S
C230 O210 1.266 . S
C230 O211 1.248 . S
C231 Tb167 2.802 . S
C231 O206 1.264 . S
C231 O209 1.256 . S
C231 C224 1.496 . S
H232 C215 0.929 . S
H233 C216 0.929 . S
H234 C217 0.929 . S
H235 C218 0.931 . S
H236 C226 0.929 . S
H237 C227 0.929 . S
H238 C228 0.931 . S
H239 C229 0.929 . S
Tb240 N269 2.617 . S
Tb240 N275 2.572 . S
Tb240 O284 2.465 . S
Tb240 O285 2.387 . S
Tb240 O287 2.428 . S
Tb240 O288 2.308 . S
Tb240 O292 2.349 . S
Tb240 O295 2.393 . S
Tb240 C304 2.802 . S
C241 N242 1.379 . S
C241 C244 1.416 . S
C241 C248 1.424 . S
N242 C241 1.379 . S
N242 C245 1.334 . S
N242 Tb251 2.617 . S
C243 C245 1.390 . S
C243 C246 1.339 . S
C243 H263 0.930 . S
C244 C241 1.416 . S
C244 C246 1.416 . S
C244 C250 1.448 . S
C245 N242 1.334 . S
C245 C243 1.390 . S
C245 H256 0.930 . S
C246 C243 1.339 . S
C246 C244 1.416 . S
C246 H267 0.930 . S
C247 C248 1.413 . S
C247 C249 1.427 . S
C247 C253 1.416 . S
C248 C241 1.424 . S
C248 C247 1.413 . S
C248 N252 1.361 . S
C249 C247 1.427 . S
C249 C250 1.328 . S
C249 H264 0.929 . S
C250 C244 1.448 . S
C250 C249 1.328 . S
C250 H265 0.930 . S
Tb251 N242 2.617 . S
Tb251 N252 2.572 . S
Tb251 O286 2.349 1_655 S
Tb251 O289 2.393 . S
Tb251 O290 2.465 . S
Tb251 O291 2.387 . S
Tb251 O293 2.428 . S
Tb251 O294 2.308 1_655 S
Tb251 C315 2.802 . S
N252 C248 1.361 . S
N252 Tb251 2.572 . S
N252 C254 1.340 . S
C253 C247 1.416 . S
C253 C255 1.332 . S
C253 H261 0.931 . S
C254 N252 1.340 . S
C254 C255 1.407 . S
C254 H260 0.930 . S
C255 C253 1.332 . S
C255 C254 1.407 . S
C255 H257 0.929 . S
H256 C245 0.930 . S
H257 C255 0.929 . S
H258 C273 0.930 . S
H259 C280 0.929 . S
H260 C254 0.930 . S
H261 C253 0.931 . S
H262 C276 0.930 . S
H263 C243 0.930 . S
H264 C249 0.929 . S
H265 C250 0.930 . S
H266 C271 0.930 . S
H267 C246 0.930 . S
H268 C279 0.931 . S
N269 Tb240 2.617 . S
N269 C270 1.379 . S
N269 C273 1.334 . S
C270 N269 1.379 . S
C270 C272 1.416 . S
C270 C278 1.424 . S
C271 H266 0.930 . S
C271 C273 1.390 . S
C271 C274 1.339 . S
C272 C270 1.416 . S
C272 C274 1.416 . S
C272 C305 1.448 . S
C273 H258 0.930 . S
C273 N269 1.334 . S
C273 C271 1.390 . S
C274 C271 1.339 . S
C274 C272 1.416 . S
C274 H281 0.930 . S
N275 Tb240 2.572 . S
N275 C276 1.340 . S
N275 C278 1.361 . S
C276 H262 0.930 . S
C276 N275 1.340 . S
C276 C280 1.407 1_565 S
C277 C278 1.413 . S
C277 C279 1.416 1_565 S
C277 C306 1.427 . S
C278 C270 1.424 . S
C278 N275 1.361 . S
C278 C277 1.413 . S
C279 H268 0.931 . S
C279 C277 1.416 1_545 S
C279 C280 1.332 . S
C280 H259 0.929 . S
C280 C276 1.407 1_545 S
C280 C279 1.332 . S
H281 C274 0.930 . S
H282 C305 0.930 . S
H283 C306 0.929 1_545 S
O284 Tb240 2.465 . S
O284 C304 1.264 . S
O285 Tb240 2.387 . S
O285 C296 1.264 . S
O286 Tb251 2.349 1_455 S
O286 C296 1.243 . S
O287 Tb240 2.428 . S
O287 C304 1.256 . S
O288 Tb240 2.308 . S
O288 C303 1.266 1_455 S
O289 Tb251 2.393 . S
O289 C303 1.248 . S
O290 Tb251 2.465 . S
O290 C315 1.264 . S
O291 Tb251 2.387 . S
O291 C307 1.264 . S
O292 Tb240 2.349 . S
O292 C307 1.243 1_455 S
O293 Tb251 2.428 . S
O293 C315 1.256 . S
O294 Tb251 2.308 1_455 S
O294 C314 1.266 . S
O295 Tb240 2.393 . S
O295 C314 1.248 . S
C296 O285 1.264 . S
C296 O286 1.243 . S
C297 C300 1.399 . S
C297 C302 1.383 . S
C297 C304 1.496 . S
C298 C299 1.399 . S
C298 C302 1.389 . S
C299 C298 1.399 . S
C299 C301 1.380 . S
C299 H316 0.929 . S
C300 C297 1.399 . S
C300 C301 1.392 . S
C300 H317 0.929 . S
C301 C299 1.380 . S
C301 C300 1.392 . S
C301 H318 0.929 . S
C302 C297 1.383 . S
C302 C298 1.389 . S
C302 H319 0.931 . S
C303 O288 1.266 1_655 S
C303 O289 1.248 . S
C304 Tb240 2.802 . S
C304 O284 1.264 . S
C304 O287 1.256 . S
C304 C297 1.496 . S
C305 C272 1.448 . S
C305 H282 0.930 . S
C305 C306 1.328 . S
C306 C277 1.427 . S
C306 H283 0.929 1_565 S
C306 C305 1.328 . S
C307 O291 1.264 . S
C307 O292 1.243 1_655 S
C308 C311 1.399 . S
C308 C312 1.383 . S
C308 C315 1.496 . S
C309 C310 1.399 . S
C309 C312 1.389 . S
C310 C309 1.399 . S
C310 C313 1.380 . S
C310 H320 0.929 . S
C311 C308 1.399 . S
C311 C313 1.392 . S
C311 H321 0.929 . S
C312 C308 1.383 . S
C312 C309 1.389 . S
C312 H322 0.931 . S
C313 C310 1.380 . S
C313 C311 1.392 . S
C313 H323 0.929 . S
C314 O294 1.266 . S
C314 O295 1.248 . S
C315 Tb251 2.802 . S
C315 O290 1.264 . S
C315 O293 1.256 . S
C315 C308 1.496 . S
H316 C299 0.929 . S
H317 C300 0.929 . S
H318 C301 0.929 . S
H319 C302 0.931 . S
H320 C310 0.929 . S
H321 C311 0.929 . S
H322 C312 0.931 . S
H323 C313 0.929 . S
Tb324 N353 2.617 . S
Tb324 N359 2.572 . S
Tb324 O368 2.465 . S
Tb324 O369 2.387 . S
Tb324 O371 2.428 . S
Tb324 O372 2.308 . S
Tb324 O376 2.349 . S
Tb324 O379 2.393 . S
Tb324 C388 2.802 . S
C325 N326 1.379 . S
C325 C328 1.416 . S
C325 C332 1.424 . S
N326 C325 1.379 . S
N326 C329 1.334 . S
N326 Tb335 2.617 . S
C327 C329 1.390 . S
C327 C330 1.339 . S
C327 H347 0.930 . S
C328 C325 1.416 . S
C328 C330 1.416 . S
C328 C334 1.448 . S
C329 N326 1.334 . S
C329 C327 1.390 . S
C329 H340 0.930 . S
C330 C327 1.339 . S
C330 C328 1.416 . S
C330 H351 0.930 . S
C331 C332 1.413 . S
C331 C333 1.427 . S
C331 C337 1.416 . S
C332 C325 1.424 . S
C332 C331 1.413 . S
C332 N336 1.361 . S
C333 C331 1.427 . S
C333 C334 1.328 . S
C333 H348 0.929 . S
C334 C328 1.448 . S
C334 C333 1.328 . S
C334 H349 0.930 . S
Tb335 N326 2.617 . S
Tb335 N336 2.572 . S
Tb335 O370 2.349 . S
Tb335 O373 2.393 . S
Tb335 O374 2.465 . S
Tb335 O375 2.387 . S
Tb335 O377 2.428 . S
Tb335 O378 2.308 . S
Tb335 C399 2.802 . S
N336 C332 1.361 . S
N336 Tb335 2.572 . S
N336 C338 1.340 . S
C337 C331 1.416 . S
C337 C339 1.332 . S
C337 H345 0.931 . S
C338 N336 1.340 . S
C338 C339 1.407 . S
C338 H344 0.930 . S
C339 C337 1.332 . S
C339 C338 1.407 . S
C339 H341 0.929 . S
H340 C329 0.930 . S
H341 C339 0.929 . S
H342 C357 0.930 . S
H343 C364 0.929 . S
H344 C338 0.930 . S
H345 C337 0.931 . S
H346 C360 0.930 . S
H347 C327 0.930 . S
H348 C333 0.929 . S
H349 C334 0.930 . S
H350 C355 0.930 . S
H351 C330 0.930 . S
H352 C363 0.931 . S
N353 Tb324 2.617 . S
N353 C354 1.379 . S
N353 C357 1.334 . S
C354 N353 1.379 . S
C354 C356 1.416 . S
C354 C362 1.424 . S
C355 H350 0.930 . S
C355 C357 1.390 . S
C355 C358 1.339 . S
C356 C354 1.416 . S
C356 C358 1.416 . S
C356 C389 1.448 . S
C357 H342 0.930 . S
C357 N353 1.334 . S
C357 C355 1.390 . S
C358 C355 1.339 . S
C358 C356 1.416 . S
C358 H365 0.930 . S
N359 Tb324 2.572 . S
N359 C360 1.340 . S
N359 C362 1.361 . S
C360 H346 0.930 . S
C360 N359 1.340 . S
C360 C364 1.407 . S
C361 C362 1.413 . S
C361 C363 1.416 . S
C361 C390 1.427 . S
C362 C354 1.424 . S
C362 N359 1.361 . S
C362 C361 1.413 . S
C363 H352 0.931 . S
C363 C361 1.416 . S
C363 C364 1.332 . S
C364 H343 0.929 . S
C364 C360 1.407 . S
C364 C363 1.332 . S
H365 C358 0.930 . S
H366 C389 0.930 . S
H367 C390 0.929 . S
O368 Tb324 2.465 . S
O368 C388 1.264 . S
O369 Tb324 2.387 . S
O369 C380 1.264 . S
O370 Tb335 2.349 . S
O370 C380 1.243 . S
O371 Tb324 2.428 . S
O371 C388 1.256 . S
O372 Tb324 2.308 . S
O372 C387 1.266 . S
O373 Tb335 2.393 . S
O373 C387 1.248 . S
O374 Tb335 2.465 . S
O374 C399 1.264 . S
O375 Tb335 2.387 . S
O375 C391 1.264 . S
O376 Tb324 2.349 . S
O376 C391 1.243 . S
O377 Tb335 2.428 . S
O377 C399 1.256 . S
O378 Tb335 2.308 . S
O378 C398 1.266 . S
O379 Tb324 2.393 . S
O379 C398 1.248 . S
C380 O369 1.264 . S
C380 O370 1.243 . S
C381 C384 1.399 . S
C381 C386 1.383 . S
C381 C388 1.496 . S
C382 C383 1.399 . S
C382 C386 1.389 . S
C383 C382 1.399 . S
C383 C385 1.380 . S
C383 H400 0.929 . S
C384 C381 1.399 . S
C384 C385 1.392 . S
C384 H401 0.929 . S
C385 C383 1.380 . S
C385 C384 1.392 . S
C385 H402 0.929 . S
C386 C381 1.383 . S
C386 C382 1.389 . S
C386 H403 0.931 . S
C387 O372 1.266 . S
C387 O373 1.248 . S
C388 Tb324 2.802 . S
C388 O368 1.264 . S
C388 O371 1.256 . S
C388 C381 1.496 . S
C389 C356 1.448 . S
C389 H366 0.930 . S
C389 C390 1.328 . S
C390 C361 1.427 . S
C390 H367 0.929 . S
C390 C389 1.328 . S
C391 O375 1.264 . S
C391 O376 1.243 . S
C392 C395 1.399 . S
C392 C396 1.383 . S
C392 C399 1.496 . S
C393 C394 1.399 . S
C393 C396 1.389 . S
C394 C393 1.399 . S
C394 C397 1.380 . S
C394 H404 0.929 . S
C395 C392 1.399 . S
C395 C397 1.392 . S
C395 H405 0.929 . S
C396 C392 1.383 . S
C396 C393 1.389 . S
C396 H406 0.931 . S
C397 C394 1.380 . S
C397 C395 1.392 . S
C397 H407 0.929 . S
C398 O378 1.266 . S
C398 O379 1.248 . S
C399 Tb335 2.802 . S
C399 O374 1.264 . S
C399 O377 1.256 . S
C399 C392 1.496 . S
H400 C383 0.929 . S
H401 C384 0.929 . S
H402 C385 0.929 . S
H403 C386 0.931 . S
H404 C394 0.929 . S
H405 C395 0.929 . S
H406 C396 0.931 . S
H407 C397 0.929 . S
C408 C409 1.387 1_545 S
C408 H412 0.950 . S
C408 C417 1.390 . S
C409 C408 1.387 1_565 S
C409 C411 1.387 . S
H410 C417 0.950 . S
C411 C409 1.387 . S
C411 C413 1.390 . S
C411 H415 0.950 . S
H412 C408 0.950 . S
C413 C411 1.390 . S
C413 C414 1.387 1_565 S
C413 H416 0.950 . S
C414 C413 1.387 1_545 S
C414 C417 1.387 . S
H415 C411 0.950 . S
H416 C413 0.950 . S
C417 C408 1.390 . S
C417 H410 0.950 . S
C417 C414 1.387 . S
C418 C419 1.387 . S
C418 H422 0.950 . S
C418 C427 1.390 . S
C419 C418 1.387 . S
C419 C421 1.387 . S
H420 C427 0.950 . S
C421 C419 1.387 . S
C421 C423 1.390 . S
C421 H425 0.950 . S
H422 C418 0.950 . S
C423 C421 1.390 . S
C423 C424 1.387 . S
C423 H426 0.950 . S
C424 C423 1.387 . S
C424 C427 1.387 . S
H425 C421 0.950 . S
H426 C423 0.950 . S
C427 C418 1.390 . S
C427 H420 0.950 . S
C427 C424 1.387 . S
C428 C429 1.387 . S
C428 H432 0.950 . S
C428 C437 1.390 . S
C429 C428 1.387 . S
C429 C431 1.387 . S
H430 C437 0.950 . S
C431 C429 1.387 . S
C431 C433 1.390 . S
C431 H435 0.950 . S
H432 C428 0.950 . S
C433 C431 1.390 . S
C433 C434 1.387 . S
C433 H436 0.950 . S
C434 C433 1.387 . S
C434 C437 1.387 . S
H435 C431 0.950 . S
H436 C433 0.950 . S
C437 C428 1.390 . S
C437 H430 0.950 . S
C437 C434 1.387 . S
C438 C439 1.387 1_545 S
C438 H442 0.950 . S
C438 C447 1.390 . S
C439 C438 1.387 1_565 S
C439 C441 1.387 . S
H440 C447 0.950 . S
C441 C439 1.387 . S
C441 C443 1.390 . S
C441 H445 0.950 . S
H442 C438 0.950 . S
C443 C441 1.390 . S
C443 C444 1.387 1_565 S
C443 H446 0.950 . S
C444 C443 1.387 1_545 S
C444 C447 1.387 . S
H445 C441 0.950 . S
H446 C443 0.950 . S
C447 C438 1.390 . S
C447 H440 0.950 . S
C447 C444 1.387 . S
C448 C449 1.387 . S
C448 H452 0.950 . S
C448 C457 1.390 . S
C449 C448 1.387 . S
C449 C451 1.387 1_545 S
H450 C457 0.950 . S
C451 C449 1.387 1_565 S
C451 C453 1.390 . S
C451 H455 0.950 . S
H452 C448 0.950 . S
C453 C451 1.390 . S
C453 C454 1.387 . S
C453 H456 0.950 . S
C454 C453 1.387 . S
C454 C457 1.387 1_565 S
H455 C451 0.950 . S
H456 C453 0.950 . S
C457 C448 1.390 . S
C457 H450 0.950 . S
C457 C454 1.387 1_545 S
C458 C459 1.387 . S
C458 H462 0.950 . S
C458 C467 1.390 . S
C459 C458 1.387 . S
C459 C461 1.387 . S
H460 C467 0.950 . S
C461 C459 1.387 . S
C461 C463 1.390 . S
C461 H465 0.950 . S
H462 C458 0.950 . S
C463 C461 1.390 . S
C463 C464 1.387 . S
C463 H466 0.950 . S
C464 C463 1.387 . S
C464 C467 1.387 . S
H465 C461 0.950 . S
H466 C463 0.950 . S
C467 C458 1.390 . S
C467 H460 0.950 . S
C467 C464 1.387 . S
C468 C469 1.387 . S
C468 H472 0.950 . S
C468 C477 1.390 . S
C469 C468 1.387 . S
C469 C471 1.387 . S
H470 C477 0.950 . S
C471 C469 1.387 . S
C471 C473 1.390 . S
C471 H475 0.950 . S
H472 C468 0.950 . S
C473 C471 1.390 . S
C473 C474 1.387 . S
C473 H476 0.950 . S
C474 C473 1.387 . S
C474 C477 1.387 . S
H475 C471 0.950 . S
H476 C473 0.950 . S
C477 C468 1.390 . S
C477 H470 0.950 . S
C477 C474 1.387 . S
C478 C479 1.387 . S
C478 H482 0.950 . S
C478 C487 1.390 1_545 S
C479 C478 1.387 . S
C479 C481 1.387 . S
H480 C487 0.950 . S
C481 C479 1.387 . S
C481 C483 1.390 1_545 S
C481 H485 0.950 . S
H482 C478 0.950 . S
C483 C481 1.390 1_565 S
C483 C484 1.387 . S
C483 H486 0.950 . S
C484 C483 1.387 . S
C484 C487 1.387 . S
H485 C481 0.950 . S
H486 C483 0.950 . S
C487 C478 1.390 1_565 S
C487 H480 0.950 . S
C487 C484 1.387 . S
C488 C489 1.387 . S
C488 H492 0.950 . S
C488 C497 1.390 1_556 S
C489 C488 1.387 . S
C489 C491 1.387 . S
H490 C497 0.950 . S
C491 C489 1.387 . S
C491 C493 1.390 1_556 S
C491 H495 0.950 . S
H492 C488 0.950 . S
C493 C491 1.390 1_554 S
C493 C494 1.387 . S
C493 H496 0.950 . S
C494 C493 1.387 . S
C494 C497 1.387 . S
H495 C491 0.950 . S
H496 C493 0.950 . S
C497 C488 1.390 1_554 S
C497 H490 0.950 . S
C497 C494 1.387 . S
C498 C499 1.387 . S
C498 H502 0.950 . S
C498 C507 1.390 . S
C499 C498 1.387 . S
C499 C501 1.387 . S
H500 C507 0.950 . S
C501 C499 1.387 . S
C501 C503 1.390 . S
C501 H505 0.950 . S
H502 C498 0.950 . S
C503 C501 1.390 . S
C503 C504 1.387 . S
C503 H506 0.950 . S
C504 C503 1.387 . S
C504 C507 1.387 . S
H505 C501 0.950 . S
H506 C503 0.950 . S
C507 C498 1.390 . S
C507 H500 0.950 . S
C507 C504 1.387 . S
C508 C509 1.387 . S
C508 H512 0.950 . S
C508 C517 1.390 1_554 S
C509 C508 1.387 . S
C509 C511 1.387 . S
H510 C517 0.950 . S
C511 C509 1.387 . S
C511 C513 1.390 1_554 S
C511 H515 0.950 . S
H512 C508 0.950 . S
C513 C511 1.390 1_556 S
C513 C514 1.387 . S
C513 H516 0.950 . S
C514 C513 1.387 . S
C514 C517 1.387 . S
H515 C511 0.950 . S
H516 C513 0.950 . S
C517 C508 1.390 1_556 S
C517 H510 0.950 . S
C517 C514 1.387 . S
C518 C519 1.387 . S
C518 H522 0.950 . S
C518 C527 1.390 . S
C519 C518 1.387 . S
C519 C521 1.387 . S
H520 C527 0.950 . S
C521 C519 1.387 . S
C521 C523 1.390 . S
C521 H525 0.950 . S
H522 C518 0.950 . S
C523 C521 1.390 . S
C523 C524 1.387 . S
C523 H526 0.950 . S
C524 C523 1.387 . S
C524 C527 1.387 . S
H525 C521 0.950 . S
H526 C523 0.950 . S
C527 C518 1.390 . S
C527 H520 0.950 . S
C527 C524 1.387 . S
C528 C529 1.387 . S
C528 H532 0.950 . S
C528 C537 1.390 1_554 S
C529 C528 1.387 . S
C529 C531 1.387 . S
H530 C537 0.950 . S
C531 C529 1.387 . S
C531 C533 1.390 1_554 S
C531 H535 0.950 . S
H532 C528 0.950 . S
C533 C531 1.390 1_556 S
C533 C534 1.387 . S
C533 H536 0.950 . S
C534 C533 1.387 . S
C534 C537 1.387 . S
H535 C531 0.950 . S
H536 C533 0.950 . S
C537 C528 1.390 1_556 S
C537 H530 0.950 . S
C537 C534 1.387 . S
C538 C539 1.387 . S
C538 H542 0.950 . S
C538 C547 1.390 . S
C539 C538 1.387 . S
C539 C541 1.387 . S
H540 C547 0.950 . S
C541 C539 1.387 . S
C541 C543 1.390 . S
C541 H545 0.950 . S
H542 C538 0.950 . S
C543 C541 1.390 . S
C543 C544 1.387 . S
C543 H546 0.950 . S
C544 C543 1.387 . S
C544 C547 1.387 . S
H545 C541 0.950 . S
H546 C543 0.950 . S
C547 C538 1.390 . S
C547 H540 0.950 . S
C547 C544 1.387 . S
C548 C549 1.387 . S
C548 H552 0.950 . S
C548 C557 1.390 1_556 S
C549 C548 1.387 . S
C549 C551 1.387 . S
H550 C557 0.950 . S
C551 C549 1.387 . S
C551 C553 1.402 . S
C551 H555 0.950 . S
H552 C548 0.950 . S
C553 C551 1.402 . S
C553 C554 1.380 1_556 S
C553 H556 0.946 1_556 S
C554 C553 1.380 1_554 S
C554 C557 1.387 . S
H555 C551 0.950 . S
H556 C553 0.946 1_554 S
C557 C548 1.390 1_554 S
C557 H550 0.950 . S
C557 C554 1.387 . S
C558 C559 1.387 . S
C558 H562 0.950 . S
C558 C567 1.390 . S
C559 C558 1.387 . S
C559 C561 1.387 . S
H560 C567 0.950 . S
C561 C559 1.387 . S
C561 C563 1.390 . S
C561 H565 0.950 . S
H562 C558 0.950 . S
C563 C561 1.390 . S
C563 C564 1.387 . S
C563 H566 0.950 . S
C564 C563 1.387 . S
C564 C567 1.387 . S
H565 C561 0.950 . S
H566 C563 0.950 . S
C567 C558 1.390 . S
C567 H560 0.950 . S
C567 C564 1.387 . S
C568 C569 1.387 . S
C568 H572 0.950 . S
C568 C577 1.390 . S
C569 C568 1.387 . S
C569 C571 1.387 . S
H570 C577 0.950 . S
C571 C569 1.387 . S
C571 C573 1.390 . S
C571 H575 0.950 . S
H572 C568 0.950 . S
C573 C571 1.390 . S
C573 C574 1.387 . S
C573 H576 0.950 . S
C574 C573 1.387 . S
C574 C577 1.387 . S
H575 C571 0.950 . S
H576 C573 0.950 . S
C577 C568 1.390 . S
C577 H570 0.950 . S
C577 C574 1.387 . S
C578 C579 1.387 . S
C578 H582 0.950 . S
C578 C587 1.390 . S
C579 C578 1.387 . S
C579 C581 1.387 . S
H580 C587 0.950 . S
C581 C579 1.387 . S
C581 C583 1.390 . S
C581 H585 0.950 . S
H582 C578 0.950 . S
C583 C581 1.390 . S
C583 C584 1.387 . S
C583 H586 0.950 . S
C584 C583 1.387 . S
C584 C587 1.387 . S
H585 C581 0.950 . S
H586 C583 0.950 . S
C587 C578 1.390 . S
C587 H580 0.950 . S
C587 C584 1.387 . S
C588 C589 1.387 . S
C588 H592 0.950 . S
C588 C597 1.390 . S
C589 C588 1.387 . S
C589 C591 1.387 . S
H590 C597 0.950 . S
C591 C589 1.387 . S
C591 C593 1.390 . S
C591 H595 0.950 . S
H592 C588 0.950 . S
C593 C591 1.390 . S
C593 C594 1.387 . S
C593 H596 0.950 . S
C594 C593 1.387 . S
C594 C597 1.387 . S
H595 C591 0.950 . S
H596 C593 0.950 . S
C597 C588 1.390 . S
C597 H590 0.950 . S
C597 C594 1.387 . S
C598 C599 1.387 . S
C598 H602 0.950 . S
C598 C607 1.390 . S
C599 C598 1.387 . S
C599 C601 1.387 . S
H600 C607 0.950 . S
C601 C599 1.387 . S
C601 C603 1.390 . S
C601 H605 0.950 . S
H602 C598 0.950 . S
C603 C601 1.390 . S
C603 C604 1.387 . S
C603 H606 0.950 . S
C604 C603 1.387 . S
C604 C607 1.387 . S
H605 C601 0.950 . S
H606 C603 0.950 . S
C607 C598 1.390 . S
C607 H600 0.950 . S
C607 C604 1.387 . S
C608 C609 1.387 . S
C608 H612 0.950 . S
C608 C617 1.390 . S
C609 C608 1.387 . S
C609 C611 1.387 . S
H610 C617 0.950 . S
C611 C609 1.387 . S
C611 C613 1.390 . S
C611 H615 0.950 . S
H612 C608 0.950 . S
C613 C611 1.390 . S
C613 C614 1.387 . S
C613 H616 0.950 1_655 S
C614 C613 1.387 . S
C614 C617 1.387 . S
H615 C611 0.950 . S
H616 C613 0.950 1_455 S
C617 C608 1.390 . S
C617 H610 0.950 . S
C617 C614 1.387 . S
C618 C619 1.387 . S
C618 H622 0.950 . S
C618 C627 1.390 . S
C619 C618 1.387 . S
C619 C621 1.387 . S
H620 C627 0.950 . S
C621 C619 1.387 . S
C621 C623 1.390 . S
C621 H625 0.950 . S
H622 C618 0.950 . S
C623 C621 1.390 . S
C623 C624 1.387 . S
C623 H626 0.950 . S
C624 C623 1.387 . S
C624 C627 1.387 . S
H625 C621 0.950 . S
H626 C623 0.950 . S
C627 C618 1.390 . S
C627 H620 0.950 . S
C627 C624 1.387 . S
C628 C629 1.387 . S
C628 H632 0.950 . S
C628 C637 1.390 . S
C629 C628 1.387 . S
C629 C631 1.387 . S
H630 C637 0.950 . S
C631 C629 1.387 . S
C631 C633 1.390 . S
C631 H635 0.950 . S
H632 C628 0.950 . S
C633 C631 1.390 . S
C633 C634 1.387 . S
C633 H636 0.950 . S
C634 C633 1.387 . S
C634 C637 1.387 . S
H635 C631 0.950 . S
H636 C633 0.950 . S
C637 C628 1.390 . S
C637 H630 0.950 . S
C637 C634 1.387 . S
C638 C639 1.387 . S
C638 H642 0.950 . S
C638 C647 1.390 . S
C639 C638 1.387 . S
C639 C641 1.387 . S
H640 C647 0.950 . S
C641 C639 1.387 . S
C641 C643 1.390 . S
C641 H645 0.950 . S
H642 C638 0.950 . S
C643 C641 1.390 . S
C643 C644 1.387 . S
C643 H646 0.950 . S
C644 C643 1.387 . S
C644 C647 1.387 . S
H645 C641 0.950 . S
H646 C643 0.950 . S
C647 C638 1.390 . S
C647 H640 0.950 . S
C647 C644 1.387 . S
C409 C58 1.478 . S
C414 C146 1.456 . S
C424 C230 1.458 . S
C419 C68 1.478 . S
C434 C223 1.468 . S
C429 C40 1.469 . S
C439 C50 1.469 . S
C444 C139 1.469 . S
C454 C303 1.457 . S
C449 C23 1.481 . S
C464 C387 1.456 . S
C459 C32 1.480 . S
C469 C5 1.471 . S
C474 C380 1.470 . S
C479 C14 1.470 . S
C484 C296 1.468 . S
C494 C130 1.322 . S
C489 C13 1.502 . S
C504 C214 1.321 . S
C499 C4 1.502 . S
C514 C225 1.405 . S
C509 C31 1.521 . S
C524 C141 1.404 . S
C519 C22 1.521 . S
C534 C309 1.327 . S
C529 C49 1.502 . S
C539 C41 1.504 . S
C544 C393 1.322 . S
C554 C382 1.409 . S
C549 C67 1.521 . S
C559 C59 1.523 . S
C564 C298 1.409 . S
C574 C128 1.519 . S
C569 C7 1.516 . S
C584 C212 1.518 . S
C579 C16 1.515 . S
C589 C25 1.513 . S
C594 C219 1.500 . S
C604 C135 1.497 . S
C599 C34 1.512 . S
C614 C307 1.520 . S
C609 C43 1.518 . S
C619 C52 1.515 . S
C624 C391 1.520 . S
C629 C61 1.515 . S
C634 C398 1.499 . S
C639 C70 1.513 . S
C644 C314 1.500 . S
