# Generated by pormake.
# Topology ptr, (4,4)-cn, num edge types: 1
# Building blocks:
#     Node 0, Type 0, BuildingBlock: UXUYUI_clean_sbu_0, # of connection points: 4
#     Node 1, Type 0, BuildingBlock: UXUYUI_clean_sbu_0, # of connection points: 4
#     Node 2, Type 0, BuildingBlock: UXUYUI_clean_sbu_0, # of connection points: 4
#     Node 3, Type 0, BuildingBlock: UXUYUI_clean_sbu_0, # of connection points: 4
#     Node 4, Type 0, BuildingBlock: UXUYUI_clean_sbu_0, # of connection points: 4
#     Node 5, Type 0, BuildingBlock: UXUYUI_clean_sbu_0, # of connection points: 4
#     Node 6, Type 0, BuildingBlock: UXUYUI_clean_sbu_0, # of connection points: 4
#     Node 7, Type 0, BuildingBlock: UXUYUI_clean_sbu_0, # of connection points: 4
#     Node 8, Type 0, BuildingBlock: UXUYUI_clean_sbu_0, # of connection points: 4
#     Node 9, Type 0, BuildingBlock: UXUYUI_clean_sbu_0, # of connection points: 4
#     Node 10, Type 0, BuildingBlock: UXUYUI_clean_sbu_0, # of connection points: 4
#     Node 11, Type 0, BuildingBlock: UXUYUI_clean_sbu_0, # of connection points: 4
#     Node 12, Type 0, BuildingBlock: UXUYUI_clean_sbu_0, # of connection points: 4
#     Node 13, Type 0, BuildingBlock: UXUYUI_clean_sbu_0, # of connection points: 4
#     Node 14, Type 0, BuildingBlock: UXUYUI_clean_sbu_0, # of connection points: 4
#     Node 15, Type 0, BuildingBlock: UXUYUI_clean_sbu_0, # of connection points: 4
#     Node 16, Type 0, BuildingBlock: UXUYUI_clean_sbu_0, # of connection points: 4
#     Node 17, Type 0, BuildingBlock: UXUYUI_clean_sbu_0, # of connection points: 4
#     Node 18, Type 1, BuildingBlock: NAHDIM_clean_linker_0, # of connection points: 4
#     Node 19, Type 1, BuildingBlock: NAHDIM_clean_linker_0, # of connection points: 4
#     Node 20, Type 1, BuildingBlock: NAHDIM_clean_linker_0, # of connection points: 4
#     Node 21, Type 1, BuildingBlock: NAHDIM_clean_linker_0, # of connection points: 4
#     Node 22, Type 1, BuildingBlock: NAHDIM_clean_linker_0, # of connection points: 4
#     Node 23, Type 1, BuildingBlock: NAHDIM_clean_linker_0, # of connection points: 4
#     Node 24, Type 1, BuildingBlock: NAHDIM_clean_linker_0, # of connection points: 4
#     Node 25, Type 1, BuildingBlock: NAHDIM_clean_linker_0, # of connection points: 4
#     Node 26, Type 1, BuildingBlock: NAHDIM_clean_linker_0, # of connection points: 4
#     Node 27, Type 1, BuildingBlock: NAHDIM_clean_linker_0, # of connection points: 4
#     Node 28, Type 1, BuildingBlock: NAHDIM_clean_linker_0, # of connection points: 4
#     Node 29, Type 1, BuildingBlock: NAHDIM_clean_linker_0, # of connection points: 4
#     Node 30, Type 1, BuildingBlock: NAHDIM_clean_linker_0, # of connection points: 4
#     Node 31, Type 1, BuildingBlock: NAHDIM_clean_linker_0, # of connection points: 4
#     Node 32, Type 1, BuildingBlock: NAHDIM_clean_linker_0, # of connection points: 4
#     Node 33, Type 1, BuildingBlock: NAHDIM_clean_linker_0, # of connection points: 4
#     Node 34, Type 1, BuildingBlock: NAHDIM_clean_linker_0, # of connection points: 4
#     Node 35, Type 1, BuildingBlock: NAHDIM_clean_linker_0, # of connection points: 4
#     Edge 36, Type (0, 1), BuildingBlock: UVAHIK_clean_linker_0, # of connection points: 2
#     Edge 37, Type (0, 1), BuildingBlock: UVAHIK_clean_linker_0, # of connection points: 2
#     Edge 38, Type (0, 1), BuildingBlock: UVAHIK_clean_linker_0, # of connection points: 2
#     Edge 39, Type (0, 1), BuildingBlock: UVAHIK_clean_linker_0, # of connection points: 2
#     Edge 40, Type (0, 1), BuildingBlock: UVAHIK_clean_linker_0, # of connection points: 2
#     Edge 41, Type (0, 1), BuildingBlock: UVAHIK_clean_linker_0, # of connection points: 2
#     Edge 42, Type (0, 1), BuildingBlock: UVAHIK_clean_linker_0, # of connection points: 2
#     Edge 43, Type (0, 1), BuildingBlock: UVAHIK_clean_linker_0, # of connection points: 2
#     Edge 44, Type (0, 1), BuildingBlock: UVAHIK_clean_linker_0, # of connection points: 2
#     Edge 45, Type (0, 1), BuildingBlock: UVAHIK_clean_linker_0, # of connection points: 2
#     Edge 46, Type (0, 1), BuildingBlock: UVAHIK_clean_linker_0, # of connection points: 2
#     Edge 47, Type (0, 1), BuildingBlock: UVAHIK_clean_linker_0, # of connection points: 2
#     Edge 48, Type (0, 1), BuildingBlock: UVAHIK_clean_linker_0, # of connection points: 2
#     Edge 49, Type (0, 1), BuildingBlock: UVAHIK_clean_linker_0, # of connection points: 2
#     Edge 50, Type (0, 1), BuildingBlock: UVAHIK_clean_linker_0, # of connection points: 2
#     Edge 51, Type (0, 1), BuildingBlock: UVAHIK_clean_linker_0, # of connection points: 2
#     Edge 52, Type (0, 1), BuildingBlock: UVAHIK_clean_linker_0, # of connection points: 2
#     Edge 53, Type (0, 1), BuildingBlock: UVAHIK_clean_linker_0, # of connection points: 2
#     Edge 54, Type (0, 1), BuildingBlock: UVAHIK_clean_linker_0, # of connection points: 2
#     Edge 55, Type (0, 1), BuildingBlock: UVAHIK_clean_linker_0, # of connection points: 2
#     Edge 56, Type (0, 1), BuildingBlock: UVAHIK_clean_linker_0, # of connection points: 2
#     Edge 57, Type (0, 1), BuildingBlock: UVAHIK_clean_linker_0, # of connection points: 2
#     Edge 58, Type (0, 1), BuildingBlock: UVAHIK_clean_linker_0, # of connection points: 2
#     Edge 59, Type (0, 1), BuildingBlock: UVAHIK_clean_linker_0, # of connection points: 2
#     Edge 60, Type (0, 1), BuildingBlock: UVAHIK_clean_linker_0, # of connection points: 2
#     Edge 61, Type (0, 1), BuildingBlock: UVAHIK_clean_linker_0, # of connection points: 2
#     Edge 62, Type (0, 1), BuildingBlock: UVAHIK_clean_linker_0, # of connection points: 2
#     Edge 63, Type (0, 1), BuildingBlock: UVAHIK_clean_linker_0, # of connection points: 2
#     Edge 64, Type (0, 1), BuildingBlock: UVAHIK_clean_linker_0, # of connection points: 2
#     Edge 65, Type (0, 1), BuildingBlock: UVAHIK_clean_linker_0, # of connection points: 2
#     Edge 66, Type (0, 1), BuildingBlock: UVAHIK_clean_linker_0, # of connection points: 2
#     Edge 67, Type (0, 1), BuildingBlock: UVAHIK_clean_linker_0, # of connection points: 2
#     Edge 68, Type (0, 1), BuildingBlock: UVAHIK_clean_linker_0, # of connection points: 2
#     Edge 69, Type (0, 1), BuildingBlock: UVAHIK_clean_linker_0, # of connection points: 2
#     Edge 70, Type (0, 1), BuildingBlock: UVAHIK_clean_linker_0, # of connection points: 2
#     Edge 71, Type (0, 1), BuildingBlock: UVAHIK_clean_linker_0, # of connection points: 2
#     Edge 72, Type (0, 1), BuildingBlock: UVAHIK_clean_linker_0, # of connection points: 2
#     Edge 73, Type (0, 1), BuildingBlock: UVAHIK_clean_linker_0, # of connection points: 2
#     Edge 74, Type (0, 1), BuildingBlock: UVAHIK_clean_linker_0, # of connection points: 2
#     Edge 75, Type (0, 1), BuildingBlock: UVAHIK_clean_linker_0, # of connection points: 2
#     Edge 76, Type (0, 1), BuildingBlock: UVAHIK_clean_linker_0, # of connection points: 2
#     Edge 77, Type (0, 1), BuildingBlock: UVAHIK_clean_linker_0, # of connection points: 2
#     Edge 78, Type (0, 1), BuildingBlock: UVAHIK_clean_linker_0, # of connection points: 2
#     Edge 79, Type (0, 1), BuildingBlock: UVAHIK_clean_linker_0, # of connection points: 2
#     Edge 80, Type (0, 1), BuildingBlock: UVAHIK_clean_linker_0, # of connection points: 2
#     Edge 81, Type (0, 1), BuildingBlock: UVAHIK_clean_linker_0, # of connection points: 2
#     Edge 82, Type (0, 1), BuildingBlock: UVAHIK_clean_linker_0, # of connection points: 2
#     Edge 83, Type (0, 1), BuildingBlock: UVAHIK_clean_linker_0, # of connection points: 2
#     Edge 84, Type (0, 1), BuildingBlock: UVAHIK_clean_linker_0, # of connection points: 2
#     Edge 85, Type (0, 1), BuildingBlock: UVAHIK_clean_linker_0, # of connection points: 2
#     Edge 86, Type (0, 1), BuildingBlock: UVAHIK_clean_linker_0, # of connection points: 2
#     Edge 87, Type (0, 1), BuildingBlock: UVAHIK_clean_linker_0, # of connection points: 2
#     Edge 88, Type (0, 1), BuildingBlock: UVAHIK_clean_linker_0, # of connection points: 2
#     Edge 89, Type (0, 1), BuildingBlock: UVAHIK_clean_linker_0, # of connection points: 2
#     Edge 90, Type (0, 1), BuildingBlock: UVAHIK_clean_linker_0, # of connection points: 2
#     Edge 91, Type (0, 1), BuildingBlock: UVAHIK_clean_linker_0, # of connection points: 2
#     Edge 92, Type (0, 1), BuildingBlock: UVAHIK_clean_linker_0, # of connection points: 2
#     Edge 93, Type (0, 1), BuildingBlock: UVAHIK_clean_linker_0, # of connection points: 2
#     Edge 94, Type (0, 1), BuildingBlock: UVAHIK_clean_linker_0, # of connection points: 2
#     Edge 95, Type (0, 1), BuildingBlock: UVAHIK_clean_linker_0, # of connection points: 2
#     Edge 96, Type (0, 1), BuildingBlock: UVAHIK_clean_linker_0, # of connection points: 2
#     Edge 97, Type (0, 1), BuildingBlock: UVAHIK_clean_linker_0, # of connection points: 2
#     Edge 98, Type (0, 1), BuildingBlock: UVAHIK_clean_linker_0, # of connection points: 2
#     Edge 99, Type (0, 1), BuildingBlock: UVAHIK_clean_linker_0, # of connection points: 2
#     Edge 100, Type (0, 1), BuildingBlock: UVAHIK_clean_linker_0, # of connection points: 2
#     Edge 101, Type (0, 1), BuildingBlock: UVAHIK_clean_linker_0, # of connection points: 2
#     Edge 102, Type (0, 1), BuildingBlock: UVAHIK_clean_linker_0, # of connection points: 2
#     Edge 103, Type (0, 1), BuildingBlock: UVAHIK_clean_linker_0, # of connection points: 2
#     Edge 104, Type (0, 1), BuildingBlock: UVAHIK_clean_linker_0, # of connection points: 2
#     Edge 105, Type (0, 1), BuildingBlock: UVAHIK_clean_linker_0, # of connection points: 2
#     Edge 106, Type (0, 1), BuildingBlock: UVAHIK_clean_linker_0, # of connection points: 2
#     Edge 107, Type (0, 1), BuildingBlock: UVAHIK_clean_linker_0, # of connection points: 2
# Relax obj value: 0.120
# Max RMSD: 0.337
# Mean RMSD: 0.137
data_MOF--net-ptr--node1-UXUYUI_clean_sbu_0--node2-NAHDIM_clean_linker_0--edge1-UVAHIK_clean_linker_0
_symmetry_space_group_name_H-M    P1
_symmetry_Int_Tables_number       1
_symmetry_cell_setting            triclinic
loop_
_symmetry_equiv_pos_as_xyz
'x, y, z'
_cell_length_a     130.57442
_cell_length_b     130.3177
_cell_length_c     107.11729
_cell_angle_alpha  90.733744
_cell_angle_beta   90.19412
_cell_angle_gamma 120.43929
loop_
_atom_site_label
_atom_site_type_symbol
_atom_site_fract_x
_atom_site_fract_y
_atom_site_fract_z
_atom_type_partial_charge
Li0 Li 0.99658 0.33428 0.99981 0.0
Li1 Li 0.01584 0.34428 0.01032 0.0
Li2 Li 0.00053 0.34951 0.01586 0.0
Li3 Li 0.01074 0.35545 0.99628 0.0
C4 C 0.99883 0.32346 0.02154 0.0
N5 N 0.99731 0.30252 0.029 0.0
C6 C 0.00165 0.31691 0.01324 0.0
C7 C 0.99524 0.31935 0.03364 0.0
C8 C 0.00083 0.30635 0.01719 0.0
C9 C 0.99452 0.30874 0.03723 0.0
C10 C 0.02097 0.34075 0.98568 0.0
C11 C 0.04146 0.34891 0.97991 0.0
N12 N 0.03841 0.33885 0.97315 0.0
C13 C 0.01804 0.33046 0.97871 0.0
C14 C 0.03277 0.35003 0.98633 0.0
C15 C 0.02698 0.32968 0.97242 0.0
C16 C 0.98531 0.32033 0.97897 0.0
N17 N 0.98497 0.32006 0.99163 0.0
C18 C 0.96939 0.29969 0.99107 0.0
C19 C 0.97704 0.31012 0.99777 0.0
C20 C 0.96983 0.29957 0.97795 0.0
C21 C 0.97778 0.31016 0.97192 0.0
H22 H 0.9916 0.32843 0.97437 0.0
H23 H 0.97682 0.3102 0.00786 0.0
C24 C 0.03112 0.34584 0.02949 0.0
N25 N 0.02754 0.34148 0.01769 0.0
C26 C 0.03792 0.34244 0.03652 0.0
C27 C 0.03766 0.33053 0.01893 0.0
C28 C 0.03078 0.33406 0.0123 0.0
C29 C 0.04105 0.33445 0.03135 0.0
H30 H 0.02818 0.3515 0.03366 0.0
H31 H 0.02755 0.33034 0.0031 0.0
C32 C 0.98134 0.34302 0.99987 0.0
N33 N 0.95707 0.33359 0.00119 0.0
C34 C 0.97554 0.34638 0.99129 0.0
C35 C 0.9748 0.33485 0.00911 0.0
C36 C 0.96326 0.34152 0.99211 0.0
C37 C 0.96254 0.33019 0.00962 0.0
C38 C 0.02611 0.37186 0.01215 0.0
C39 C 0.0227 0.38044 0.01222 0.0
C40 C 0.03809 0.37537 0.01084 0.0
C41 C 0.03131 0.39239 0.01065 0.0
C42 C 0.04644 0.38741 0.00932 0.0
N43 N 0.0429 0.3956 0.00923 0.0
C44 C 0.99561 0.35268 0.04086 0.0
C45 C 0.99077 0.36264 0.02564 0.0
C46 C 0.99307 0.35837 0.05048 0.0
N47 N 0.99462 0.35508 0.02876 0.0
C48 C 0.98816 0.36854 0.03494 0.0
C49 C 0.9896 0.36667 0.04755 0.0
H50 H 0.99891 0.34677 0.04303 0.0
H51 H 0.99022 0.3645 0.01593 0.0
C52 C 0.02388 0.37086 0.97557 0.0
N53 N 0.01533 0.36775 0.98434 0.0
C54 C 0.0257 0.37939 0.96666 0.0
C55 C 0.01003 0.3814 0.97612 0.0
C56 C 0.00854 0.37292 0.9848 0.0
C57 C 0.01862 0.38469 0.96678 0.0
H58 H 0.02911 0.3666 0.97526 0.0
H59 H 0.00177 0.37025 0.99183 0.0
O60 O 0.99977 0.33394 0.01798 0.0
O61 O 0.01234 0.34156 0.99205 0.0
O62 O 0.99335 0.34769 0.9991 0.0
O63 O 0.01779 0.3601 0.0135 0.0
H64 H 0.00446 0.31997 0.00385 0.0
H65 H 0.99306 0.32434 0.04018 0.0
H66 H 0.003 0.30121 0.01086 0.0
H67 H 0.99176 0.30546 0.04657 0.0
H68 H 0.05063 0.35604 0.98034 0.0
H69 H 0.00897 0.32313 0.97822 0.0
H70 H 0.0352 0.35799 0.99177 0.0
H71 H 0.02485 0.32177 0.96699 0.0
H72 H 0.96344 0.29174 0.99613 0.0
H73 H 0.97823 0.31062 0.96184 0.0
H74 H 0.04015 0.34556 0.04611 0.0
H75 H 0.03997 0.32447 0.01449 0.0
H76 H 0.98047 0.35267 0.98405 0.0
H77 H 0.97911 0.33212 0.01583 0.0
H78 H 0.95866 0.34405 0.98554 0.0
H79 H 0.95737 0.32386 0.01672 0.0
H80 H 0.01348 0.37788 0.01333 0.0
H81 H 0.04091 0.36887 0.01106 0.0
H82 H 0.02877 0.39911 0.01055 0.0
H83 H 0.05573 0.39025 0.00824 0.0
H84 H 0.99444 0.35678 0.06007 0.0
H85 H 0.98541 0.37478 0.03228 0.0
H86 H 0.03249 0.3817 0.9597 0.0
H87 H 0.00418 0.38503 0.97647 0.0
Li88 Li 0.66632 0.6533 0.00677 0.0
Li89 Li 0.65703 0.6624 0.01859 0.0
Li90 Li 0.65069 0.64077 0.02167 0.0
Li91 Li 0.64497 0.64733 0.00288 0.0
C92 C 0.67678 0.6572 0.03018 0.0
N93 N 0.69798 0.66097 0.04019 0.0
C94 C 0.6864 0.66877 0.0318 0.0
C95 C 0.67787 0.64757 0.03397 0.0
C96 C 0.69707 0.67049 0.03678 0.0
C97 C 0.68867 0.64965 0.03893 0.0
C98 C 0.66134 0.67367 0.99644 0.0
C99 C 0.65451 0.68768 0.99469 0.0
N100 N 0.66496 0.69557 0.98931 0.0
C101 C 0.67196 0.68186 0.99077 0.0
C102 C 0.6525 0.67655 0.9983 0.0
C103 C 0.67364 0.6929 0.98728 0.0
C104 C 0.68285 0.64937 0.99266 0.0
N105 N 0.68112 0.65724 0.99945 0.0
C106 C 0.70099 0.67279 0.99565 0.0
C107 C 0.6899 0.66875 0.00098 0.0
C108 C 0.70316 0.66487 0.98871 0.0
C109 C 0.6939 0.65298 0.9873 0.0
H110 H 0.67567 0.64035 0.99123 0.0
H111 H 0.6882 0.6749 0.00616 0.0
C112 C 0.65284 0.67742 0.03474 0.0
N113 N 0.66054 0.67692 0.0266 0.0
C114 C 0.65567 0.68822 0.04056 0.0
C115 C 0.6743 0.69768 0.02954 0.0
C116 C 0.67112 0.68673 0.02398 0.0
C117 C 0.66653 0.69854 0.03796 0.0
H118 H 0.64452 0.66944 0.03673 0.0
H119 H 0.67713 0.68605 0.01757 0.0
C120 C 0.65176 0.62646 0.00203 0.0
N121 N 0.65052 0.60479 0.99868 0.0
C122 C 0.64276 0.61754 0.99457 0.0
C123 C 0.66019 0.62438 0.00767 0.0
C124 C 0.64227 0.60664 0.99302 0.0
C125 C 0.65941 0.61337 0.00589 0.0
C126 C 0.62884 0.64422 0.02074 0.0
C127 C 0.6209 0.63215 0.02273 0.0
C128 C 0.62447 0.65194 0.01909 0.0
C129 C 0.6087 0.62795 0.02275 0.0
C130 C 0.61222 0.6474 0.01917 0.0
N131 N 0.60465 0.6356 0.02097 0.0
C132 C 0.64814 0.63188 0.04587 0.0
C133 C 0.63864 0.61682 0.03027 0.0
C134 C 0.64404 0.62335 0.05521 0.0
N135 N 0.6454 0.62849 0.03369 0.0
C136 C 0.63445 0.608 0.03928 0.0
C137 C 0.63708 0.61123 0.05194 0.0
H138 H 0.65342 0.64124 0.04833 0.0
H139 H 0.6362 0.61434 0.0206 0.0
C140 C 0.63356 0.64963 0.98126 0.0
N141 N 0.63267 0.64229 0.99063 0.0
C142 C 0.62458 0.64581 0.97222 0.0
C143 C 0.61402 0.62687 0.9825 0.0
C144 C 0.62317 0.63108 0.99136 0.0
C145 C 0.61464 0.63426 0.97274 0.0
H146 H 0.6413 0.65841 0.98069 0.0
H147 H 0.6228 0.62531 0.99872 0.0
O148 O 0.66626 0.65535 0.02528 0.0
O149 O 0.65962 0.6629 0.0002 0.0
O150 O 0.65221 0.63711 0.00384 0.0
O151 O 0.64082 0.64848 0.02065 0.0
H152 H 0.68567 0.67636 0.02918 0.0
H153 H 0.67043 0.63858 0.03322 0.0
H154 H 0.70461 0.6794 0.03795 0.0
H155 H 0.68964 0.64226 0.04183 0.0
H156 H 0.64776 0.69004 0.99616 0.0
H157 H 0.67882 0.67973 0.98903 0.0
H158 H 0.64419 0.67026 0.00251 0.0
H159 H 0.68183 0.69935 0.98294 0.0
H160 H 0.70768 0.68211 0.99674 0.0
H161 H 0.69512 0.6465 0.98213 0.0
H162 H 0.64941 0.68851 0.04695 0.0
H163 H 0.68285 0.70534 0.02744 0.0
H164 H 0.63623 0.61901 0.99001 0.0
H165 H 0.66734 0.63125 0.01322 0.0
H166 H 0.63533 0.59965 0.98732 0.0
H167 H 0.66588 0.61166 0.01021 0.0
H168 H 0.62408 0.62604 0.02408 0.0
H169 H 0.63045 0.66136 0.01784 0.0
H170 H 0.60246 0.6186 0.02417 0.0
H171 H 0.60872 0.65328 0.01785 0.0
H172 H 0.6463 0.6262 0.06487 0.0
H173 H 0.6289 0.59877 0.03639 0.0
H174 H 0.62542 0.65185 0.96492 0.0
H175 H 0.60667 0.61782 0.98314 0.0
Li176 Li 0.34985 0.99628 0.9959 0.0
Li177 Li 0.35513 0.00634 0.01657 0.0
Li178 Li 0.33372 0.99174 0.01075 0.0
Li179 Li 0.34383 0.01129 0.00183 0.0
C180 C 0.34856 0.97928 0.01357 0.0
N181 N 0.35127 0.95963 0.0154 0.0
C182 C 0.35826 0.98012 0.02009 0.0
C183 C 0.34016 0.96839 0.00814 0.0
C184 C 0.3595 0.97011 0.02087 0.0
C185 C 0.3417 0.95857 0.00913 0.0
C186 C 0.37147 0.02271 0.99933 0.0
C187 C 0.38673 0.04281 0.00463 0.0
N188 N 0.39483 0.04106 0.99846 0.0
C189 C 0.37993 0.02116 0.99293 0.0
C190 C 0.37489 0.03366 0.00513 0.0
C191 C 0.39169 0.03052 0.99264 0.0
C192 C 0.35446 0.99274 0.97096 0.0
N193 N 0.35645 0.99122 0.98308 0.0
C194 C 0.371 0.98621 0.97707 0.0
C195 C 0.36438 0.98783 0.98624 0.0
C196 C 0.36959 0.98829 0.96452 0.0
C197 C 0.36093 0.99125 0.96146 0.0
H198 H 0.34829 0.9957 0.96874 0.0
H199 H 0.36614 0.9871 0.99593 0.0
C200 C 0.36367 0.01071 0.04152 0.0
N201 N 0.36687 0.01111 0.02939 0.0
C202 C 0.37156 0.01208 0.05112 0.0
C203 C 0.38599 0.01462 0.03556 0.0
C204 C 0.37783 0.01318 0.02629 0.0
C205 C 0.38278 0.01373 0.04816 0.0
H206 H 0.35478 0.00875 0.04372 0.0
H207 H 0.38002 0.01299 0.01662 0.0
C208 C 0.32475 0.98646 0.9869 0.0
N209 N 0.30505 0.96771 0.97535 0.0
C210 C 0.31457 0.98717 0.98467 0.0
C211 C 0.32497 0.9763 0.983 0.0
C212 C 0.30468 0.97757 0.9789 0.0
C213 C 0.31492 0.9669 0.97724 0.0
C214 C 0.34005 0.01662 0.02524 0.0
C215 C 0.32907 0.01586 0.02683 0.0
C216 C 0.35042 0.02687 0.02926 0.0
C217 C 0.32867 0.02551 0.0321 0.0
C218 C 0.34966 0.03633 0.03451 0.0
N219 N 0.33889 0.03547 0.03578 0.0
C220 C 0.31685 0.97051 0.02335 0.0
C221 C 0.30983 0.9828 0.01561 0.0
C222 C 0.30575 0.96281 0.02849 0.0
N223 N 0.31864 0.98025 0.01702 0.0
C224 C 0.2987 0.97549 0.02076 0.0
C225 C 0.2965 0.96532 0.02737 0.0
H226 H 0.32406 0.96882 0.02464 0.0
H227 H 0.31157 0.99071 0.01073 0.0
C228 C 0.34918 0.03343 0.99058 0.0
N229 N 0.34073 0.02313 0.99575 0.0
C230 C 0.34614 0.04149 0.98581 0.0
C231 C 0.32577 0.02805 0.99155 0.0
C232 C 0.32923 0.02036 0.99633 0.0
C233 C 0.33426 0.03882 0.98617 0.0
H234 H 0.35823 0.03534 0.99 0.0
H235 H 0.32269 0.01207 0.00039 0.0
O236 O 0.34726 0.98904 0.01269 0.0
O237 O 0.35992 0.01359 0.99974 0.0
O238 O 0.3345 0.99573 0.99265 0.0
O239 O 0.34065 0.00732 0.01993 0.0
H240 H 0.36479 0.98841 0.02448 0.0
H241 H 0.33242 0.96745 0.00338 0.0
H242 H 0.367 0.97066 0.02583 0.0
H243 H 0.33526 0.9501 0.00495 0.0
H244 H 0.38949 0.05132 0.00911 0.0
H245 H 0.37746 0.01281 0.98826 0.0
H246 H 0.36845 0.03514 0.00986 0.0
H247 H 0.39832 0.02941 0.98778 0.0
H248 H 0.37752 0.98386 0.97983 0.0
H249 H 0.35967 0.9931 0.95193 0.0
H250 H 0.36866 0.01116 0.06071 0.0
H251 H 0.39456 0.01593 0.03286 0.0
H252 H 0.31426 0.99501 0.9874 0.0
H253 H 0.33284 0.97568 0.98434 0.0
H254 H 0.29672 0.97798 0.97722 0.0
H255 H 0.31497 0.95896 0.97425 0.0
H256 H 0.32093 0.00794 0.02397 0.0
H257 H 0.35896 0.02752 0.02841 0.0
H258 H 0.32023 0.02507 0.03327 0.0
H259 H 0.35762 0.04434 0.03759 0.0
H260 H 0.3045 0.95504 0.03338 0.0
H261 H 0.29202 0.97803 0.01987 0.0
H262 H 0.35303 0.04971 0.98188 0.0
H263 H 0.31647 0.02541 0.99182 0.0
Li264 Li 0.00878 0.67203 0.01986 0.0
Li265 Li 0.99512 0.6509 0.02548 0.0
Li266 Li 0.0039 0.65566 0.00505 0.0
Li267 Li 0.98829 0.65964 0.01024 0.0
C268 C 0.02099 0.6566 0.01891 0.0
N269 N 0.03807 0.651 0.01245 0.0
C270 C 0.01943 0.64547 0.02182 0.0
C271 C 0.03126 0.66491 0.0128 0.0
C272 C 0.02816 0.64281 0.01846 0.0
C273 C 0.03978 0.6619 0.00959 0.0
C274 C 0.98928 0.66325 0.03999 0.0
C275 C 0.97395 0.65431 0.05544 0.0
N276 N 0.98234 0.65945 0.06463 0.0
C277 C 0.99776 0.66848 0.04957 0.0
C278 C 0.97728 0.65614 0.04292 0.0
C279 C 0.99407 0.66644 0.06198 0.0
C280 C 0.01494 0.695 0.02566 0.0
N281 N 0.0193 0.68751 0.02613 0.0
C282 C 0.03668 0.7022 0.03706 0.0
C283 C 0.02998 0.69085 0.03158 0.0
C284 C 0.03222 0.71001 0.03702 0.0
C285 C 0.02127 0.70634 0.03106 0.0
H286 H 0.00637 0.69202 0.0213 0.0
H287 H 0.03313 0.68462 0.03194 0.0
C288 C 0.98062 0.62957 0.03861 0.0
N289 N 0.99108 0.64008 0.03881 0.0
C290 C 0.97826 0.62112 0.04773 0.0
C291 C 0.9974 0.63455 0.05719 0.0
C292 C 0.99936 0.64277 0.04793 0.0
C293 C 0.98681 0.62345 0.05705 0.0
H294 H 0.97424 0.6276 0.0312 0.0
H295 H 0.00766 0.65116 0.04775 0.0
C296 C 0.00981 0.67666 0.99204 0.0
N297 N 0.02228 0.68931 0.97145 0.0
C298 C 0.00409 0.67454 0.98044 0.0
C299 C 0.02185 0.68528 0.99319 0.0
C300 C 0.01056 0.68101 0.97013 0.0
C301 C 0.028 0.69157 0.98266 0.0
C302 C 0.97666 0.63697 0.00344 0.0
C303 C 0.9762 0.63284 0.99122 0.0
C304 C 0.9661 0.63405 0.00955 0.0
C305 C 0.96517 0.62585 0.98533 0.0
C306 C 0.95525 0.62706 0.00333 0.0
N307 N 0.95502 0.62313 0.99145 0.0
C308 C 0.00585 0.63757 0.99405 0.0
C309 C 0.01602 0.65513 0.98225 0.0
C310 C 0.00824 0.6312 0.98516 0.0
N311 N 0.00953 0.64925 0.99238 0.0
C312 C 0.01846 0.64904 0.97299 0.0
C313 C 0.01435 0.63682 0.97426 0.0
H314 H 0.00078 0.63312 0.00223 0.0
H315 H 0.01911 0.66444 0.98114 0.0
C316 C 0.97239 0.6682 0.01045 0.0
N317 N 0.97585 0.66162 0.00367 0.0
C318 C 0.96497 0.67181 0.0051 0.0
C319 C 0.96432 0.66124 0.98613 0.0
C320 C 0.97188 0.658 0.99178 0.0
C321 C 0.96107 0.66858 0.99265 0.0
H322 H 0.97591 0.6712 0.01979 0.0
H323 H 0.97499 0.65306 0.98645 0.0
O324 O 0.01241 0.65926 0.02184 0.0
O325 O 0.99275 0.66488 0.02781 0.0
O326 O 0.0036 0.67053 0.00227 0.0
O327 O 0.98737 0.64385 0.00938 0.0
H328 H 0.01149 0.63891 0.02648 0.0
H329 H 0.03259 0.67355 0.01047 0.0
H330 H 0.02705 0.63421 0.02058 0.0
H331 H 0.04775 0.66822 0.00479 0.0
H332 H 0.9647 0.64879 0.05785 0.0
H333 H 0.00709 0.67395 0.04746 0.0
H334 H 0.97062 0.65205 0.03559 0.0
H335 H 0.00053 0.67039 0.0695 0.0
H336 H 0.04505 0.70468 0.04163 0.0
H337 H 0.0176 0.71214 0.03066 0.0
H338 H 0.96991 0.61277 0.04735 0.0
H339 H 0.00432 0.6367 0.06408 0.0
H340 H 0.99478 0.66793 0.97938 0.0
H341 H 0.0264 0.68711 0.0021 0.0
H342 H 0.00626 0.67943 0.96109 0.0
H343 H 0.03733 0.69824 0.9834 0.0
H344 H 0.98425 0.6351 0.98627 0.0
H345 H 0.96628 0.63729 0.01894 0.0
H346 H 0.96469 0.62262 0.97586 0.0
H347 H 0.94702 0.62479 0.00793 0.0
H348 H 0.00517 0.6219 0.98677 0.0
H349 H 0.02318 0.65378 0.96475 0.0
H350 H 0.96287 0.6776 0.01045 0.0
H351 H 0.96141 0.65837 0.97659 0.0
Li352 Li 0.33978 0.34915 0.01205 0.0
Li353 Li 0.36061 0.3558 0.01452 0.0
Li354 Li 0.3531 0.36018 0.99557 0.0
Li355 Li 0.34863 0.33999 0.99906 0.0
C356 C 0.34882 0.37208 0.01878 0.0
N357 N 0.33947 0.38433 0.03082 0.0
C358 C 0.35382 0.37811 0.03006 0.0
C359 C 0.33907 0.37227 0.01364 0.0
C360 C 0.34896 0.38426 0.036 0.0
C361 C 0.33447 0.37852 0.01986 0.0
C362 C 0.34489 0.33696 0.02988 0.0
C363 C 0.33772 0.32254 0.0463 0.0
N364 N 0.34035 0.3314 0.05481 0.0
C365 C 0.34755 0.34592 0.03878 0.0
C366 C 0.33995 0.32518 0.03365 0.0
C367 C 0.34518 0.34293 0.05134 0.0
C368 C 0.31567 0.33472 0.01518 0.0
N369 N 0.3252 0.34435 0.02053 0.0
C370 C 0.31332 0.34409 0.03763 0.0
C371 C 0.32425 0.34906 0.03159 0.0
C372 C 0.30341 0.33401 0.03239 0.0
C373 C 0.30465 0.32936 0.02099 0.0
H374 H 0.31671 0.33099 0.00653 0.0
H375 H 0.332 0.35645 0.03593 0.0
C376 C 0.38056 0.37368 0.02745 0.0
N377 N 0.37371 0.36169 0.02582 0.0
C378 C 0.38999 0.37845 0.03603 0.0
C379 C 0.38542 0.35847 0.0407 0.0
C380 C 0.37599 0.35408 0.03214 0.0
C381 C 0.39247 0.3708 0.04282 0.0
H382 H 0.37861 0.37951 0.02217 0.0
H383 H 0.3704 0.34458 0.03067 0.0
C384 C 0.33357 0.34667 0.98277 0.0
N385 N 0.3261 0.35013 0.95988 0.0
C386 C 0.33792 0.34449 0.97177 0.0
C387 C 0.32534 0.3505 0.98215 0.0
C388 C 0.33406 0.34633 0.96028 0.0
C389 C 0.32169 0.35222 0.97048 0.0
C390 C 0.37319 0.35131 0.99656 0.0
C391 C 0.38356 0.35814 0.98979 0.0
C392 C 0.37179 0.34153 0.00321 0.0
C393 C 0.39237 0.35505 0.98979 0.0
C394 C 0.38079 0.33874 0.00298 0.0
N395 N 0.39081 0.3455 0.99633 0.0
C396 C 0.35426 0.38009 0.98302 0.0
C397 C 0.36384 0.37093 0.97312 0.0
C398 C 0.358 0.3886 0.97368 0.0
N399 N 0.35728 0.37153 0.98262 0.0
C400 C 0.3678 0.37926 0.9636 0.0
C401 C 0.36498 0.38833 0.96386 0.0
H402 H 0.34907 0.38044 0.99063 0.0
H403 H 0.36613 0.36402 0.97303 0.0
C404 C 0.33543 0.31561 0.99679 0.0
N405 N 0.34484 0.32521 0.99166 0.0
C406 C 0.33113 0.3043 0.99158 0.0
C407 C 0.34637 0.31295 0.9759 0.0
C408 C 0.35042 0.32413 0.98147 0.0
C409 C 0.33652 0.30286 0.9809 0.0
H410 H 0.33104 0.31682 0.00474 0.0
H411 H 0.35781 0.33197 0.97751 0.0
O412 O 0.35345 0.36599 0.01283 0.0
O413 O 0.34707 0.33966 0.01751 0.0
O414 O 0.33745 0.34518 0.9941 0.0
O415 O 0.36453 0.35429 0.99664 0.0
H416 H 0.36132 0.37802 0.03423 0.0
H417 H 0.33498 0.36749 0.00504 0.0
H418 H 0.35272 0.38895 0.04474 0.0
H419 H 0.3269 0.37869 0.01601 0.0
H420 H 0.33389 0.31346 0.04935 0.0
H421 H 0.35138 0.35508 0.03604 0.0
H422 H 0.33788 0.31814 0.02688 0.0
H423 H 0.34718 0.34978 0.05832 0.0
H424 H 0.31272 0.34782 0.0465 0.0
H425 H 0.29718 0.32161 0.01665 0.0
H426 H 0.39531 0.38802 0.03732 0.0
H427 H 0.38698 0.35228 0.04584 0.0
H428 H 0.34434 0.34158 0.97211 0.0
H429 H 0.32179 0.3521 0.99058 0.0
H430 H 0.33742 0.34476 0.95169 0.0
H431 H 0.31534 0.35521 0.96984 0.0
H432 H 0.3848 0.36576 0.98461 0.0
H433 H 0.36384 0.33614 0.00852 0.0
H434 H 0.40044 0.36026 0.98459 0.0
H435 H 0.37982 0.33119 0.0081 0.0
H436 H 0.35546 0.39532 0.97417 0.0
H437 H 0.37326 0.37876 0.95631 0.0
H438 H 0.32338 0.29682 0.99559 0.0
H439 H 0.35081 0.31221 0.9677 0.0
Li440 Li 0.66043 0.98913 0.01551 0.0
Li441 Li 0.65652 0.00502 0.0203 0.0
Li442 Li 0.65179 0.99521 0.99967 0.0
Li443 Li 0.67265 0.00886 0.00572 0.0
C444 C 0.63842 0.9781 0.02242 0.0
N445 N 0.6261 0.95748 0.03591 0.0
C446 C 0.63661 0.97872 0.03519 0.0
C447 C 0.6339 0.967 0.01649 0.0
C448 C 0.63037 0.96819 0.04185 0.0
C449 C 0.62772 0.95668 0.02348 0.0
C450 C 0.6798 0.01361 0.03106 0.0
C451 C 0.6923 0.03447 0.03614 0.0
N452 N 0.69726 0.03164 0.0457 0.0
C453 C 0.68506 0.01089 0.04088 0.0
C454 C 0.68347 0.02547 0.02863 0.0
C455 C 0.69385 0.02014 0.0482 0.0
C456 C 0.66414 0.96939 0.01624 0.0
N457 N 0.66186 0.97683 0.02311 0.0
C458 C 0.66472 0.96918 0.04211 0.0
C459 C 0.66193 0.97676 0.03579 0.0
C460 C 0.66763 0.96173 0.03532 0.0
C461 C 0.66703 0.96168 0.0222 0.0
H462 H 0.66426 0.96982 0.00617 0.0
H463 H 0.66028 0.98293 0.04099 0.0
C464 C 0.6392 0.0087 0.03079 0.0
N465 N 0.65045 0.01101 0.0329 0.0
C466 C 0.63332 0.01155 0.03981 0.0
C467 C 0.65059 0.01887 0.05326 0.0
C468 C 0.6562 0.01599 0.0439 0.0
C469 C 0.63897 0.01657 0.05129 0.0
H470 H 0.63458 0.00418 0.02227 0.0
H471 H 0.66495 0.01738 0.04565 0.0
C472 C 0.66409 0.98838 0.98605 0.0
N473 N 0.66067 0.97992 0.96171 0.0
C474 C 0.6712 0.99578 0.97654 0.0
C475 C 0.65532 0.97665 0.98321 0.0
C476 C 0.66932 0.99134 0.96429 0.0
C477 C 0.6537 0.97255 0.97084 0.0
C478 C 0.65563 0.02019 0.00292 0.0
C479 C 0.6436 0.01577 0.00029 0.0
C480 C 0.66319 0.03243 0.00486 0.0
C481 C 0.6393 0.02363 0.99985 0.0
C482 C 0.65855 0.04 0.00433 0.0
N483 N 0.6468 0.03548 0.00187 0.0
C484 C 0.62939 0.98244 0.98729 0.0
C485 C 0.64509 0.9971 0.97528 0.0
C486 C 0.6212 0.98039 0.97776 0.0
N487 N 0.64104 0.99077 0.98593 0.0
C488 C 0.63725 0.99524 0.96547 0.0
C489 C 0.62507 0.98698 0.96673 0.0
H490 H 0.62637 0.97775 0.99598 0.0
H491 H 0.65436 0.00386 0.97458 0.0
C492 C 0.69691 0.01767 0.00273 0.0
N493 N 0.68799 0.01973 0.99978 0.0
C494 C 0.70817 0.02465 0.99765 0.0
C495 C 0.70088 0.03588 0.98677 0.0
C496 C 0.68974 0.02865 0.99205 0.0
C497 C 0.71025 0.03383 0.98943 0.0
H498 H 0.69517 0.01039 0.00877 0.0
H499 H 0.68242 0.02995 0.98975 0.0
O500 O 0.64468 0.9883 0.01577 0.0
O501 O 0.67128 0.00466 0.02374 0.0
O502 O 0.66569 0.99261 0.99808 0.0
O503 O 0.66003 0.01264 0.00338 0.0
H504 H 0.64009 0.98723 0.03995 0.0
H505 H 0.63522 0.96637 0.00661 0.0
H506 H 0.62895 0.96853 0.05176 0.0
H507 H 0.62423 0.94803 0.01902 0.0
H508 H 0.69521 0.0437 0.03437 0.0
H509 H 0.68237 0.00174 0.04283 0.0
H510 H 0.67952 0.02769 0.02104 0.0
H511 H 0.69797 0.01818 0.05586 0.0
H512 H 0.66492 0.96942 0.05222 0.0
H513 H 0.66936 0.95622 0.01658 0.0
H514 H 0.62426 0.00936 0.03803 0.0
H515 H 0.65523 0.02269 0.06202 0.0
H516 H 0.67804 0.00487 0.97858 0.0
H517 H 0.64977 0.9708 0.99046 0.0
H518 H 0.67471 0.99698 0.95683 0.0
H519 H 0.6469 0.96351 0.96849 0.0
H520 H 0.63758 0.00635 0.99881 0.0
H521 H 0.67256 0.03608 0.00669 0.0
H522 H 0.62999 0.0203 0.99792 0.0
H523 H 0.6643 0.04948 0.00585 0.0
H524 H 0.61189 0.97408 0.97926 0.0
H525 H 0.64069 0.00041 0.9571 0.0
H526 H 0.71504 0.02261 0.99981 0.0
H527 H 0.70211 0.04292 0.98059 0.0
Li528 Li 0.65734 0.67052 0.33382 0.0
Li529 Li 0.67598 0.68012 0.34556 0.0
Li530 Li 0.66058 0.686 0.34951 0.0
Li531 Li 0.67279 0.69225 0.33073 0.0
C532 C 0.65021 0.66044 0.35719 0.0
N533 N 0.63118 0.64028 0.367 0.0
C534 C 0.65171 0.65124 0.36166 0.0
C535 C 0.63907 0.65946 0.35798 0.0
C536 C 0.64198 0.6411 0.3665 0.0
C537 C 0.62955 0.64919 0.3629 0.0
C538 C 0.68229 0.67522 0.32343 0.0
C539 C 0.70267 0.68163 0.31848 0.0
N540 N 0.69962 0.6701 0.31647 0.0
C541 C 0.67934 0.66345 0.32111 0.0
C542 C 0.69402 0.6844 0.32193 0.0
C543 C 0.68823 0.66103 0.31768 0.0
C544 C 0.63847 0.65492 0.31706 0.0
N545 N 0.64627 0.65576 0.32602 0.0
C546 C 0.63972 0.63509 0.3236 0.0
C547 C 0.64698 0.64612 0.32936 0.0
C548 C 0.63149 0.63385 0.31434 0.0
C549 C 0.63086 0.64397 0.31118 0.0
H550 H 0.63826 0.66277 0.31435 0.0
H551 H 0.65348 0.6471 0.33626 0.0
C552 C 0.69721 0.68483 0.35872 0.0
N553 N 0.68706 0.67651 0.35286 0.0
C554 C 0.70501 0.68161 0.36389 0.0
C555 C 0.6916 0.6613 0.35714 0.0
C556 C 0.68418 0.66495 0.35198 0.0
C557 C 0.70224 0.66967 0.36317 0.0
H558 H 0.69925 0.69395 0.35943 0.0
H559 H 0.67605 0.65852 0.34727 0.0
C560 C 0.64548 0.68585 0.33041 0.0
N561 N 0.62597 0.68865 0.32751 0.0
C562 C 0.64693 0.69668 0.3264 0.0
C563 C 0.63404 0.67637 0.33265 0.0
C564 C 0.63699 0.69795 0.32507 0.0
C565 C 0.62431 0.67798 0.33121 0.0
C566 C 0.687 0.70795 0.34903 0.0
C567 C 0.68481 0.71649 0.35435 0.0
C568 C 0.69827 0.71147 0.34434 0.0
C569 C 0.69382 0.72844 0.35459 0.0
C570 C 0.70705 0.7235 0.34475 0.0
N571 N 0.70466 0.73167 0.34981 0.0
C572 C 0.65061 0.68602 0.37313 0.0
C573 C 0.65205 0.70055 0.35903 0.0
C574 C 0.64589 0.69015 0.38227 0.0
N575 N 0.65349 0.69119 0.36174 0.0
C576 C 0.64756 0.70508 0.36795 0.0
C577 C 0.64444 0.69988 0.37974 0.0
H578 H 0.65216 0.67882 0.3752 0.0
H579 H 0.65478 0.70478 0.35009 0.0
C580 C 0.684 0.703 0.30795 0.0
N581 N 0.67982 0.70473 0.31892 0.0
C582 C 0.68869 0.71194 0.29904 0.0
C583 C 0.6845 0.72419 0.31278 0.0
C584 C 0.68004 0.71509 0.32147 0.0
C585 C 0.68884 0.72265 0.30137 0.0
H586 H 0.68349 0.69459 0.30602 0.0
H587 H 0.6765 0.71618 0.33016 0.0
O588 O 0.65961 0.67038 0.35223 0.0
O589 O 0.67374 0.67775 0.32703 0.0
O590 O 0.65515 0.68446 0.33173 0.0
O591 O 0.67823 0.6962 0.3486 0.0
H592 H 0.66029 0.65189 0.36139 0.0
H593 H 0.63782 0.66663 0.35503 0.0
H594 H 0.64301 0.63389 0.36989 0.0
H595 H 0.62088 0.64833 0.36352 0.0
H596 H 0.71179 0.68866 0.31736 0.0
H597 H 0.67031 0.65623 0.32201 0.0
H598 H 0.69643 0.69357 0.3233 0.0
H599 H 0.68607 0.65195 0.31597 0.0
H600 H 0.64086 0.62771 0.32615 0.0
H601 H 0.6246 0.64349 0.30421 0.0
H602 H 0.71315 0.68842 0.36831 0.0
H603 H 0.6889 0.65197 0.35654 0.0
H604 H 0.65565 0.70406 0.3244 0.0
H605 H 0.63263 0.66778 0.33528 0.0
H606 H 0.63802 0.70632 0.32209 0.0
H607 H 0.61543 0.67071 0.33296 0.0
H608 H 0.67625 0.71396 0.35824 0.0
H609 H 0.70025 0.70499 0.34049 0.0
H610 H 0.6922 0.73514 0.35861 0.0
H611 H 0.71578 0.72633 0.34108 0.0
H612 H 0.64376 0.68603 0.39134 0.0
H613 H 0.64659 0.71263 0.36567 0.0
H614 H 0.69182 0.71037 0.29028 0.0
H615 H 0.68452 0.73234 0.31494 0.0
Li616 Li 0.30572 0.98148 0.34099 0.0
Li617 Li 0.31169 0.97526 0.36063 0.0
Li618 Li 0.32002 0.99669 0.35561 0.0
Li619 Li 0.32533 0.98455 0.34368 0.0
C620 C 0.29351 0.98414 0.36328 0.0
N621 N 0.27342 0.98341 0.37253 0.0
C622 C 0.28402 0.97344 0.3675 0.0
C623 C 0.29284 0.99451 0.36394 0.0
C624 C 0.27392 0.97324 0.37209 0.0
C625 C 0.28259 0.99395 0.3686 0.0
C626 C 0.31347 0.96204 0.33754 0.0
C627 C 0.32238 0.94976 0.33824 0.0
N628 N 0.3215 0.94859 0.32558 0.0
C629 C 0.31258 0.96067 0.32455 0.0
C630 C 0.31835 0.95651 0.34447 0.0
C631 C 0.31672 0.95385 0.31868 0.0
C632 C 0.29627 0.97898 0.31699 0.0
N633 N 0.29315 0.97697 0.32919 0.0
C634 C 0.27257 0.96747 0.32362 0.0
C635 C 0.28158 0.97135 0.33265 0.0
C636 C 0.27551 0.96928 0.31092 0.0
C637 C 0.28756 0.97522 0.30766 0.0
H638 H 0.30555 0.98336 0.3145 0.0
H639 H 0.2793 0.96962 0.34236 0.0
C640 C 0.31178 0.96622 0.38454 0.0
N641 N 0.30616 0.9637 0.37325 0.0
C642 C 0.30764 0.9576 0.39379 0.0
C643 C 0.29198 0.94406 0.37963 0.0
C644 C 0.29652 0.95287 0.37061 0.0
C645 C 0.29756 0.94639 0.39139 0.0
H646 H 0.31945 0.97493 0.38634 0.0
H647 H 0.29231 0.95112 0.36149 0.0
C648 C 0.31978 0.0045 0.33126 0.0
N649 N 0.31734 0.02196 0.31965 0.0
C650 C 0.32842 0.01221 0.32296 0.0
C651 C 0.30987 0.00562 0.33359 0.0
C652 C 0.32704 0.021 0.31721 0.0
C653 C 0.3088 0.01451 0.32764 0.0
C654 C 0.34013 0.9969 0.36407 0.0
C655 C 0.34644 0.00588 0.35545 0.0
C656 C 0.34575 0.99663 0.37508 0.0
C657 C 0.35827 0.01445 0.35802 0.0
C658 C 0.3576 0.00537 0.37731 0.0
N659 N 0.36356 0.01402 0.3688 0.0
C660 C 0.32255 0.01184 0.37563 0.0
C661 C 0.33266 0.02211 0.35747 0.0
C662 C 0.32696 0.02258 0.38228 0.0
N663 N 0.32546 0.01181 0.36347 0.0
C664 C 0.33725 0.03304 0.36374 0.0
C665 C 0.33452 0.03338 0.37637 0.0
H666 H 0.31697 0.00349 0.38023 0.0
H667 H 0.33511 0.02188 0.34791 0.0
C668 C 0.33879 0.98685 0.32239 0.0
N669 N 0.33783 0.98441 0.33476 0.0
C670 C 0.34784 0.98689 0.31544 0.0
C671 C 0.35478 0.98202 0.33417 0.0
C672 C 0.34551 0.98193 0.34072 0.0
C673 C 0.35602 0.98454 0.32137 0.0
H674 H 0.33249 0.98874 0.31792 0.0
H675 H 0.34444 0.97989 0.35055 0.0
O676 O 0.30354 0.98452 0.35891 0.0
O677 O 0.30982 0.96898 0.34343 0.0
O678 O 0.3211 0.99591 0.33698 0.0
O679 O 0.32851 0.98842 0.36183 0.0
H680 H 0.28438 0.96534 0.36711 0.0
H681 H 0.30017 0.00293 0.36095 0.0
H682 H 0.26648 0.965 0.3753 0.0
H683 H 0.28195 0.0019 0.36912 0.0
H684 H 0.32625 0.94549 0.34347 0.0
H685 H 0.30886 0.96494 0.31906 0.0
H686 H 0.31916 0.95756 0.35453 0.0
H687 H 0.31616 0.95277 0.30862 0.0
H688 H 0.26338 0.96278 0.32653 0.0
H689 H 0.29024 0.9769 0.29799 0.0
H690 H 0.31214 0.95973 0.40278 0.0
H691 H 0.28426 0.93547 0.37739 0.0
H692 H 0.33615 0.01144 0.32105 0.0
H693 H 0.30303 0.99961 0.3398 0.0
H694 H 0.33368 0.02706 0.3108 0.0
H695 H 0.30116 0.01546 0.32936 0.0
H696 H 0.34229 0.00624 0.34686 0.0
H697 H 0.34101 0.98974 0.38185 0.0
H698 H 0.36325 0.02144 0.35143 0.0
H699 H 0.36206 0.00526 0.3858 0.0
H700 H 0.32477 0.02238 0.39205 0.0
H701 H 0.34295 0.04114 0.35876 0.0
H702 H 0.34855 0.98893 0.30561 0.0
H703 H 0.36083 0.98002 0.33903 0.0
Li704 Li 0.02311 0.32475 0.3326 0.0
Li705 Li 0.02992 0.33784 0.35098 0.0
Li706 Li 0.0081 0.32385 0.34646 0.0
Li707 Li 0.01941 0.3419 0.33415 0.0
C708 C 0.02209 0.31036 0.35053 0.0
N709 N 0.02503 0.29079 0.35018 0.0
C710 C 0.03229 0.31115 0.35578 0.0
C711 C 0.01331 0.29956 0.34529 0.0
C712 C 0.03363 0.30117 0.35547 0.0
C713 C 0.01498 0.28978 0.34514 0.0
C714 C 0.04597 0.3518 0.33243 0.0
C715 C 0.0594 0.37306 0.33298 0.0
N716 N 0.0686 0.37132 0.33037 0.0
C717 C 0.05554 0.35025 0.32955 0.0
C718 C 0.0479 0.36332 0.33399 0.0
C719 C 0.06692 0.36022 0.32864 0.0
C720 C 0.02138 0.3113 0.31077 0.0
N721 N 0.02774 0.3164 0.32142 0.0
C722 C 0.04266 0.31199 0.31519 0.0
C723 C 0.03808 0.31664 0.32386 0.0
C724 C 0.0365 0.30701 0.30392 0.0
C725 C 0.02559 0.30643 0.30186 0.0
H726 H 0.01328 0.31138 0.30898 0.0
H727 H 0.04297 0.32079 0.33239 0.0
C728 C 0.04042 0.34912 0.37435 0.0
N729 N 0.04209 0.34463 0.36351 0.0
C730 C 0.04934 0.35392 0.38354 0.0
C731 C 0.0613 0.34892 0.37047 0.0
C732 C 0.05224 0.3444 0.36147 0.0
C733 C 0.0599 0.35378 0.38166 0.0
H734 H 0.03212 0.34884 0.37596 0.0
H735 H 0.05321 0.34047 0.35295 0.0
C736 C 0.99713 0.31901 0.32391 0.0
N737 N 0.97365 0.30622 0.31611 0.0
C738 C 0.99105 0.32492 0.32086 0.0
C739 C 0.99132 0.30661 0.32279 0.0
C740 C 0.97917 0.31829 0.31698 0.0
C741 C 0.97944 0.3003 0.31889 0.0
C742 C 0.01605 0.35023 0.35766 0.0
C743 C 0.00534 0.34888 0.36197 0.0
C744 C 0.02645 0.36131 0.35885 0.0
C745 C 0.00518 0.3587 0.36712 0.0
C746 C 0.02593 0.37091 0.36407 0.0
N747 N 0.01539 0.36943 0.36804 0.0
C748 C 0.99106 0.30487 0.36122 0.0
C749 C 0.98435 0.3168 0.35184 0.0
C750 C 0.98011 0.29803 0.36702 0.0
N751 N 0.99296 0.31405 0.35381 0.0
C752 C 0.97329 0.31022 0.35744 0.0
C753 C 0.97107 0.30074 0.36524 0.0
H754 H 0.99812 0.30298 0.36282 0.0
H755 H 0.98613 0.32425 0.34607 0.0
C756 C 0.02486 0.3574 0.31407 0.0
N757 N 0.01863 0.35388 0.32485 0.0
C758 C 0.0248 0.36625 0.3069 0.0
C759 C 0.01168 0.36748 0.32192 0.0
C760 C 0.01196 0.35859 0.32875 0.0
C761 C 0.0182 0.37149 0.31085 0.0
H762 H 0.02994 0.35336 0.31107 0.0
H763 H 0.00679 0.35541 0.33713 0.0
O764 O 0.02069 0.32008 0.35059 0.0
O765 O 0.03475 0.34211 0.33333 0.0
O766 O 0.00873 0.32534 0.32781 0.0
O767 O 0.01632 0.34071 0.35247 0.0
H768 H 0.03911 0.31938 0.36003 0.0
H769 H 0.00529 0.29873 0.34137 0.0
H770 H 0.04151 0.30169 0.35943 0.0
H771 H 0.00827 0.28139 0.34105 0.0
H772 H 0.061 0.38201 0.33421 0.0
H773 H 0.05425 0.34146 0.3281 0.0
H774 H 0.04061 0.36477 0.3358 0.0
H775 H 0.0744 0.35912 0.32652 0.0
H776 H 0.05105 0.3125 0.31717 0.0
H777 H 0.02064 0.30275 0.29323 0.0
H778 H 0.04787 0.35741 0.39214 0.0
H779 H 0.06931 0.34864 0.3687 0.0
H780 H 0.9954 0.3345 0.32158 0.0
H781 H 0.99593 0.3019 0.32487 0.0
H782 H 0.97434 0.32275 0.31469 0.0
H783 H 0.97482 0.2907 0.31805 0.0
H784 H 0.99722 0.34036 0.36131 0.0
H785 H 0.03488 0.36245 0.356 0.0
H786 H 0.99694 0.35778 0.37041 0.0
H787 H 0.03393 0.37953 0.36502 0.0
H788 H 0.97884 0.2909 0.37309 0.0
H789 H 0.96655 0.31255 0.35568 0.0
H790 H 0.0298 0.36889 0.29833 0.0
H791 H 0.00653 0.3713 0.32539 0.0
Li792 Li 0.67388 0.98779 0.35044 0.0
Li793 Li 0.65988 0.96697 0.35462 0.0
Li794 Li 0.67241 0.97216 0.33607 0.0
Li795 Li 0.65619 0.97598 0.33706 0.0
C796 C 0.68956 0.97954 0.35491 0.0
N797 N 0.71375 0.98842 0.35652 0.0
C798 C 0.69405 0.97423 0.36276 0.0
C799 C 0.69737 0.98938 0.34789 0.0
C800 C 0.70631 0.97885 0.36344 0.0
C801 C 0.70957 0.99373 0.34883 0.0
C802 C 0.6514 0.97924 0.3659 0.0
C803 C 0.63347 0.97225 0.37777 0.0
N804 N 0.6401 0.97631 0.38845 0.0
C805 C 0.65804 0.98342 0.37697 0.0
C806 C 0.63902 0.97367 0.36627 0.0
C807 C 0.65216 0.98182 0.38828 0.0
C808 C 0.68247 0.01201 0.3517 0.0
N809 N 0.68353 0.00331 0.35732 0.0
C810 C 0.69711 0.01722 0.37246 0.0
C811 C 0.69066 0.00564 0.3675 0.0
C812 C 0.69614 0.02641 0.36688 0.0
C813 C 0.68874 0.02368 0.35632 0.0
H814 H 0.67656 0.00982 0.34374 0.0
H815 H 0.69123 0.99851 0.37187 0.0
C816 C 0.64299 0.94549 0.36645 0.0
N817 N 0.65342 0.95593 0.36794 0.0
C818 C 0.63858 0.93729 0.37608 0.0
C819 C 0.65576 0.95066 0.38863 0.0
C820 C 0.65983 0.95862 0.37875 0.0
C821 C 0.64501 0.93978 0.38734 0.0
H822 H 0.63814 0.94341 0.35775 0.0
H823 H 0.66819 0.96692 0.37963 0.0
C824 C 0.6733 0.98925 0.31937 0.0
N825 N 0.67422 0.99361 0.29411 0.0
C826 C 0.6683 0.97979 0.31075 0.0
C827 C 0.67881 0.00094 0.31515 0.0
C828 C 0.66884 0.98217 0.29802 0.0
C829 C 0.67917 0.00296 0.30234 0.0
C830 C 0.64478 0.95268 0.33145 0.0
C831 C 0.64466 0.94664 0.32052 0.0
C832 C 0.63409 0.95108 0.33613 0.0
C833 C 0.63385 0.9391 0.31446 0.0
C834 C 0.62346 0.94346 0.3298 0.0
N835 N 0.62356 0.93768 0.31918 0.0
C836 C 0.67714 0.95567 0.32429 0.0
C837 C 0.69078 0.97576 0.31933 0.0
C838 C 0.68262 0.95169 0.31596 0.0
N839 N 0.68114 0.9675 0.32563 0.0
C840 C 0.69665 0.97218 0.31105 0.0
C841 C 0.69245 0.96 0.30915 0.0
H842 H 0.66952 0.94933 0.32952 0.0
H843 H 0.69375 0.98511 0.32052 0.0
C844 C 0.6422 0.98599 0.33252 0.0
N845 N 0.64485 0.97796 0.32762 0.0
C846 C 0.63452 0.98868 0.32618 0.0
C847 C 0.63231 0.97467 0.30989 0.0
C848 C 0.64019 0.9724 0.31645 0.0
C849 C 0.62947 0.98297 0.31473 0.0
H850 H 0.64618 0.99044 0.34131 0.0
H851 H 0.64264 0.96629 0.31252 0.0
O852 O 0.67757 0.97508 0.35417 0.0
O853 O 0.65698 0.98058 0.35476 0.0
O854 O 0.67288 0.98714 0.33189 0.0
O855 O 0.65529 0.96015 0.3375 0.0
H856 H 0.68811 0.96661 0.36826 0.0
H857 H 0.69408 0.99364 0.34179 0.0
H858 H 0.70991 0.97483 0.36948 0.0
H859 H 0.71572 0.00134 0.34345 0.0
H860 H 0.6239 0.96793 0.37821 0.0
H861 H 0.66762 0.98771 0.37685 0.0
H862 H 0.63376 0.97052 0.35778 0.0
H863 H 0.65718 0.98494 0.39693 0.0
H864 H 0.70276 0.01894 0.38057 0.0
H865 H 0.68754 0.03042 0.35186 0.0
H866 H 0.63019 0.9291 0.3747 0.0
H867 H 0.6611 0.9529 0.39707 0.0
H868 H 0.66403 0.97069 0.31384 0.0
H869 H 0.68277 0.00838 0.3217 0.0
H870 H 0.66499 0.97492 0.29125 0.0
H871 H 0.6834 0.01197 0.29894 0.0
H872 H 0.65283 0.94781 0.31669 0.0
H873 H 0.63402 0.95577 0.34449 0.0
H874 H 0.63364 0.93439 0.30598 0.0
H875 H 0.61514 0.94219 0.3333 0.0
H876 H 0.6792 0.94223 0.31481 0.0
H877 H 0.70414 0.97885 0.30587 0.0
H878 H 0.63249 0.9951 0.33023 0.0
H879 H 0.62869 0.9702 0.301 0.0
Li880 Li 0.0322 0.69566 0.35276 0.0
Li881 Li 0.01123 0.68771 0.34922 0.0
Li882 Li 0.02183 0.68023 0.33636 0.0
Li883 Li 0.02484 0.70004 0.33356 0.0
C884 C 0.01662 0.67558 0.36688 0.0
N885 N 0.01113 0.66873 0.3914 0.0
C886 C 0.01856 0.68401 0.37618 0.0
C887 C 0.01193 0.66367 0.37006 0.0
C888 C 0.01571 0.68038 0.38852 0.0
C889 C 0.0092 0.66038 0.38251 0.0
C890 C 0.0186 0.71018 0.35694 0.0
C891 C 0.00332 0.71539 0.35777 0.0
N892 N 0.00756 0.72072 0.36912 0.0
C893 C 0.02281 0.71573 0.36861 0.0
C894 C 0.00879 0.71002 0.35147 0.0
C895 C 0.0171 0.721 0.37461 0.0
C896 C 0.05116 0.71355 0.36723 0.0
N897 N 0.04488 0.70167 0.36466 0.0
C898 C 0.05668 0.6982 0.37919 0.0
C899 C 0.04747 0.694 0.3704 0.0
C900 C 0.06321 0.71041 0.38219 0.0
C901 C 0.06036 0.71814 0.3761 0.0
H902 H 0.04899 0.71946 0.36241 0.0
H903 H 0.04232 0.68458 0.36821 0.0
C904 C 0.98674 0.67286 0.35085 0.0
N905 N 0.99614 0.68195 0.35702 0.0
C906 C 0.97544 0.66737 0.35606 0.0
C907 C 0.98361 0.68079 0.37385 0.0
C908 C 0.9948 0.68592 0.36837 0.0
C909 C 0.97378 0.67132 0.36772 0.0
H910 H 0.98807 0.66973 0.34195 0.0
H911 H 0.0024 0.69292 0.37331 0.0
C912 C 0.04676 0.69383 0.33514 0.0
N913 N 0.06628 0.69089 0.33539 0.0
C914 C 0.05725 0.7021 0.32934 0.0
C915 C 0.04619 0.68407 0.34109 0.0
C916 C 0.06702 0.70045 0.32956 0.0
C917 C 0.05615 0.68274 0.34111 0.0
C918 C 0.00614 0.68607 0.31981 0.0
C919 C 0.01106 0.68469 0.30879 0.0
C920 C 0.99747 0.68932 0.31922 0.0
C921 C 0.00733 0.68676 0.29735 0.0
C922 C 0.99397 0.6913 0.30759 0.0
N923 N 0.99894 0.69001 0.29699 0.0
C924 C 0.01144 0.65581 0.33259 0.0
C925 C 0.02677 0.66707 0.31825 0.0
C926 C 0.00923 0.6452 0.32685 0.0
N927 N 0.02008 0.66643 0.32823 0.0
C928 C 0.02483 0.65667 0.31218 0.0
C929 C 0.01591 0.64554 0.31645 0.0
H930 H 0.00613 0.65561 0.3404 0.0
H931 H 0.03352 0.67566 0.31492 0.0
C932 C 0.02474 0.71944 0.32106 0.0
N933 N 0.0287 0.71159 0.32089 0.0
C934 C 0.02791 0.72776 0.31158 0.0
C935 C 0.03915 0.71978 0.30195 0.0
C936 C 0.03576 0.71161 0.31158 0.0
C937 C 0.03525 0.72803 0.30186 0.0
H938 H 0.01915 0.71929 0.32852 0.0
H939 H 0.03876 0.70525 0.31165 0.0
O940 O 0.01932 0.67893 0.35472 0.0
O941 O 0.02405 0.70493 0.35095 0.0
O942 O 0.03716 0.69539 0.33505 0.0
O943 O 0.0099 0.68437 0.33111 0.0
H944 H 0.0222 0.69326 0.37389 0.0
H945 H 0.01043 0.65703 0.36299 0.0
H946 H 0.01715 0.68682 0.39579 0.0
H947 H 0.00556 0.65119 0.3851 0.0
H948 H 0.99568 0.71526 0.35367 0.0
H949 H 0.03036 0.7159 0.37303 0.0
H950 H 0.0053 0.70562 0.34256 0.0
H951 H 0.02025 0.7253 0.38365 0.0
H952 H 0.05853 0.69195 0.38378 0.0
H953 H 0.06526 0.72762 0.3781 0.0
H954 H 0.96806 0.66013 0.35102 0.0
H955 H 0.98272 0.68398 0.38294 0.0
H956 H 0.05785 0.70973 0.32474 0.0
H957 H 0.03816 0.6776 0.34568 0.0
H958 H 0.07521 0.70679 0.32511 0.0
H959 H 0.05584 0.67523 0.34568 0.0
H960 H 0.01781 0.68222 0.3091 0.0
H961 H 0.99347 0.69029 0.32764 0.0
H962 H 0.01113 0.68582 0.28875 0.0
H963 H 0.98729 0.69386 0.30699 0.0
H964 H 0.00212 0.63684 0.33031 0.0
H965 H 0.03023 0.65732 0.30424 0.0
H966 H 0.02456 0.73385 0.31182 0.0
H967 H 0.04494 0.71973 0.29476 0.0
Li968 Li 0.31262 0.33848 0.35501 0.0
Li969 Li 0.31724 0.32283 0.35082 0.0
Li970 Li 0.32728 0.34156 0.33868 0.0
Li971 Li 0.30633 0.32641 0.33489 0.0
C972 C 0.33618 0.34853 0.36438 0.0
N973 N 0.35249 0.36715 0.37936 0.0
C974 C 0.33987 0.34625 0.37575 0.0
C975 C 0.34093 0.36028 0.36056 0.0
C976 C 0.34808 0.35578 0.38322 0.0
C977 C 0.34913 0.36957 0.36827 0.0
C978 C 0.29565 0.31109 0.35928 0.0
C979 C 0.28593 0.28976 0.36102 0.0
N980 N 0.28495 0.29085 0.37354 0.0
C981 C 0.29446 0.312 0.37214 0.0
C982 C 0.29128 0.29989 0.35364 0.0
C983 C 0.28905 0.30166 0.3792 0.0
C984 C 0.30041 0.34962 0.36434 0.0
N985 N 0.30792 0.3457 0.36755 0.0
C986 C 0.30772 0.35106 0.38893 0.0
C987 C 0.31157 0.34628 0.37957 0.0
C988 C 0.3 0.35523 0.38591 0.0
C989 C 0.29639 0.35452 0.3734 0.0
H990 H 0.29745 0.34882 0.35475 0.0
H991 H 0.31727 0.34282 0.38194 0.0
C992 C 0.32282 0.30448 0.35175 0.0
N993 N 0.32015 0.31155 0.35878 0.0
C994 C 0.32637 0.2972 0.35747 0.0
C995 C 0.32416 0.30445 0.37758 0.0
C996 C 0.32062 0.31156 0.37146 0.0
C997 C 0.32729 0.29729 0.37056 0.0
H998 H 0.32262 0.30481 0.34169 0.0
H999 H 0.31856 0.31736 0.37682 0.0
C1000 C 0.31546 0.35448 0.33281 0.0
N1001 N 0.31956 0.37584 0.32328 0.0
C1002 C 0.31292 0.3552 0.32027 0.0
C1003 C 0.31993 0.3646 0.34054 0.0
C1004 C 0.3151 0.36608 0.31562 0.0
C1005 C 0.32199 0.37532 0.33554 0.0
C1006 C 0.31924 0.31947 0.32137 0.0
C1007 C 0.32605 0.32605 0.31127 0.0
C1008 C 0.311 0.30734 0.31974 0.0
C1009 C 0.32439 0.32041 0.29964 0.0
C1010 C 0.30959 0.30203 0.30796 0.0
N1011 N 0.31625 0.30862 0.29824 0.0
C1012 C 0.35074 0.34957 0.33363 0.0
C1013 C 0.34411 0.3613 0.3236 0.0
C1014 C 0.3619 0.35612 0.32822 0.0
N1015 N 0.34211 0.3522 0.3312 0.0
C1016 C 0.35517 0.36812 0.31801 0.0
C1017 C 0.36423 0.36551 0.32023 0.0
H1018 H 0.34885 0.34221 0.33962 0.0
H1019 H 0.33716 0.36323 0.32173 0.0
C1020 C 0.28269 0.31226 0.32573 0.0
N1021 N 0.29415 0.31957 0.32233 0.0
C1022 C 0.2736 0.30756 0.31672 0.0
C1023 C 0.28829 0.31792 0.30089 0.0
C1024 C 0.29706 0.32246 0.31019 0.0
C1025 C 0.27634 0.31044 0.3041 0.0
H1026 H 0.28059 0.31022 0.33547 0.0
H1027 H 0.30621 0.32839 0.30772 0.0
O1028 O 0.32815 0.33928 0.35696 0.0
O1029 O 0.30113 0.32113 0.35225 0.0
O1030 O 0.3133 0.34385 0.33753 0.0
O1031 O 0.32071 0.32485 0.33282 0.0
H1032 H 0.33639 0.33722 0.37882 0.0
H1033 H 0.33843 0.36222 0.35168 0.0
H1034 H 0.35095 0.35414 0.39208 0.0
H1035 H 0.35286 0.3787 0.36542 0.0
H1036 H 0.28256 0.28104 0.35679 0.0
H1037 H 0.29777 0.3206 0.37664 0.0
H1038 H 0.29204 0.29904 0.34368 0.0
H1039 H 0.28814 0.30223 0.38918 0.0
H1040 H 0.31078 0.35149 0.39844 0.0
H1041 H 0.2903 0.35746 0.37068 0.0
H1042 H 0.32888 0.29196 0.35169 0.0
H1043 H 0.32465 0.30471 0.38768 0.0
H1044 H 0.30937 0.34747 0.31417 0.0
H1045 H 0.32173 0.36421 0.35032 0.0
H1046 H 0.31323 0.36677 0.30592 0.0
H1047 H 0.32548 0.38323 0.34141 0.0
H1048 H 0.33248 0.33543 0.31235 0.0
H1049 H 0.3057 0.30211 0.32746 0.0
H1050 H 0.32955 0.3254 0.29173 0.0
H1051 H 0.30319 0.29268 0.30654 0.0
H1052 H 0.36852 0.35365 0.33006 0.0
H1053 H 0.35661 0.37536 0.31203 0.0
H1054 H 0.2645 0.30196 0.31967 0.0
H1055 H 0.29088 0.32025 0.29128 0.0
Li1056 Li 0.32631 0.0061 0.66595 0.0
Li1057 Li 0.34448 0.01753 0.67845 0.0
Li1058 Li 0.32736 0.02131 0.68047 0.0
Li1059 Li 0.34008 0.02786 0.66208 0.0
C1060 C 0.32145 0.99559 0.6889 0.0
N1061 N 0.30801 0.97275 0.69779 0.0
C1062 C 0.32636 0.98828 0.68985 0.0
C1063 C 0.30978 0.99137 0.69272 0.0
C1064 C 0.3194 0.97673 0.69429 0.0
C1065 C 0.30311 0.97978 0.69713 0.0
C1066 C 0.35296 0.01434 0.65599 0.0
C1067 C 0.37425 0.02414 0.65397 0.0
N1068 N 0.37307 0.01423 0.64821 0.0
C1069 C 0.35195 0.00428 0.64996 0.0
C1070 C 0.36419 0.02437 0.65794 0.0
C1071 C 0.36222 0.00439 0.64612 0.0
C1072 C 0.30622 0.98791 0.65232 0.0
N1073 N 0.31645 0.99075 0.65852 0.0
C1074 C 0.31356 0.97142 0.65416 0.0
C1075 C 0.32023 0.9828 0.65944 0.0
C1076 C 0.30286 0.96814 0.64783 0.0
C1077 C 0.29922 0.97658 0.64695 0.0
H1078 H 0.30351 0.99442 0.65143 0.0
H1079 H 0.32852 0.98536 0.66418 0.0
C1080 C 0.36114 0.02394 0.6979 0.0
N1081 N 0.35646 0.01667 0.6877 0.0
C1082 C 0.36985 0.0236 0.70517 0.0
C1083 C 0.36867 0.0082 0.69138 0.0
C1084 C 0.35992 0.00877 0.68444 0.0
C1085 C 0.37379 0.01569 0.70191 0.0
H1086 H 0.35804 0.02997 0.70041 0.0
H1087 H 0.35587 0.00288 0.67648 0.0
C1088 C 0.31169 0.01822 0.66146 0.0
N1089 N 0.29016 0.0174 0.65963 0.0
C1090 C 0.31055 0.02627 0.65392 0.0
C1091 C 0.30184 0.00968 0.66795 0.0
C1092 C 0.2996 0.02574 0.65315 0.0
C1093 C 0.29105 0.00942 0.66694 0.0
C1094 C 0.35223 0.04489 0.68046 0.0
C1095 C 0.34767 0.05252 0.68148 0.0
C1096 C 0.36453 0.04965 0.68038 0.0
C1097 C 0.35548 0.06481 0.68206 0.0
C1098 C 0.37205 0.06199 0.68099 0.0
N1099 N 0.36741 0.06926 0.68179 0.0
C1100 C 0.31867 0.02188 0.70409 0.0
C1101 C 0.31467 0.03257 0.68899 0.0
C1102 C 0.31349 0.02529 0.7134 0.0
N1103 N 0.31917 0.02556 0.69218 0.0
C1104 C 0.30933 0.03613 0.69799 0.0
C1105 C 0.3088 0.03256 0.7104 0.0
H1106 H 0.32247 0.01644 0.7064 0.0
H1107 H 0.31548 0.03567 0.67954 0.0
C1108 C 0.35366 0.04015 0.64066 0.0
N1109 N 0.34647 0.04004 0.64987 0.0
C1110 C 0.35802 0.04905 0.63171 0.0
C1111 C 0.34724 0.0574 0.6417 0.0
C1112 C 0.3432 0.04841 0.6505 0.0
C1113 C 0.35475 0.05779 0.63213 0.0
H1114 H 0.35588 0.03323 0.64008 0.0
H1115 H 0.33729 0.04801 0.65776 0.0
O1116 O 0.32812 0.00691 0.68452 0.0
O1117 O 0.34302 0.01431 0.66006 0.0
O1118 O 0.32239 0.01874 0.66251 0.0
O1119 O 0.3447 0.03282 0.67989 0.0
H1120 H 0.33541 0.99143 0.68706 0.0
H1121 H 0.30593 0.99701 0.69241 0.0
H1122 H 0.32306 0.97094 0.69495 0.0
H1123 H 0.29405 0.97639 0.70007 0.0
H1124 H 0.383 0.03184 0.65546 0.0
H1125 H 0.34333 0.99648 0.64823 0.0
H1126 H 0.36511 0.03226 0.66242 0.0
H1127 H 0.36156 0.99665 0.64149 0.0
H1128 H 0.31689 0.96534 0.65485 0.0
H1129 H 0.29101 0.97445 0.64224 0.0
H1130 H 0.37336 0.02938 0.71333 0.0
H1131 H 0.37149 0.00205 0.68841 0.0
H1132 H 0.31802 0.03285 0.64869 0.0
H1133 H 0.30253 0.0033 0.67368 0.0
H1134 H 0.29861 0.03194 0.64738 0.0
H1135 H 0.28337 0.00287 0.67196 0.0
H1136 H 0.33819 0.049 0.68169 0.0
H1137 H 0.36825 0.04391 0.67997 0.0
H1138 H 0.35206 0.07082 0.68272 0.0
H1139 H 0.38158 0.0658 0.68089 0.0
H1140 H 0.31319 0.0223 0.72285 0.0
H1141 H 0.306 0.0419 0.69533 0.0
H1142 H 0.36363 0.04893 0.62436 0.0
H1143 H 0.34454 0.06399 0.64238 0.0
Li1144 Li 0.99614 0.31419 0.67211 0.0
Li1145 Li 0.98364 0.32058 0.68317 0.0
Li1146 Li 0.98124 0.30093 0.68691 0.0
Li1147 Li 0.9741 0.3046 0.66744 0.0
C1148 C 0.00388 0.31576 0.69688 0.0
N1149 N 0.02077 0.31345 0.71011 0.0
C1150 C 0.00866 0.32224 0.70798 0.0
C1151 C 0.00769 0.30812 0.69249 0.0
C1152 C 0.01719 0.32095 0.71454 0.0
C1153 C 0.01624 0.30706 0.69933 0.0
C1154 C 0.98806 0.33127 0.65985 0.0
C1155 C 0.97915 0.34251 0.6528 0.0
N1156 N 0.99004 0.35147 0.64941 0.0
C1157 C 0.99914 0.34053 0.65615 0.0
C1158 C 0.97796 0.3322 0.65804 0.0
C1159 C 0.99996 0.35069 0.65094 0.0
C1160 C 0.01331 0.31376 0.65622 0.0
N1161 N 0.01143 0.3201 0.66514 0.0
C1162 C 0.03153 0.33602 0.66386 0.0
C1163 C 0.02026 0.33098 0.66908 0.0
C1164 C 0.03385 0.32968 0.65463 0.0
C1165 C 0.02453 0.31832 0.65094 0.0
H1166 H 0.00608 0.3052 0.65313 0.0
H1167 H 0.01844 0.33587 0.67611 0.0
C1168 C 0.97617 0.33152 0.70072 0.0
N1169 N 0.9838 0.33378 0.69115 0.0
C1170 C 0.97643 0.34089 0.70746 0.0
C1171 C 0.99236 0.35474 0.69432 0.0
C1172 C 0.99189 0.3451 0.68795 0.0
C1173 C 0.98463 0.35267 0.70428 0.0
H1174 H 0.97003 0.32243 0.70328 0.0
H1175 H 0.99822 0.34669 0.6807 0.0
C1176 C 0.98048 0.28514 0.66958 0.0
N1177 N 0.97336 0.26124 0.67009 0.0
C1178 C 0.96873 0.27669 0.6723 0.0
C1179 C 0.98864 0.28143 0.66717 0.0
C1180 C 0.96529 0.26466 0.67251 0.0
C1181 C 0.98486 0.26931 0.66745 0.0
C1182 C 0.95703 0.3018 0.68449 0.0
C1183 C 0.94841 0.29019 0.68761 0.0
C1184 C 0.95355 0.30999 0.68146 0.0
C1185 C 0.93644 0.28692 0.68737 0.0
C1186 C 0.94149 0.30638 0.68133 0.0
N1187 N 0.93325 0.29501 0.68424 0.0
C1188 C 0.96938 0.28884 0.70822 0.0
C1189 C 0.98204 0.28222 0.70044 0.0
C1190 C 0.96501 0.28006 0.71726 0.0
N1191 N 0.97746 0.28954 0.6998 0.0
C1192 C 0.97796 0.27332 0.7094 0.0
C1193 C 0.96912 0.27199 0.71777 0.0
H1194 H 0.96612 0.29497 0.70774 0.0
H1195 H 0.98863 0.28306 0.69383 0.0
C1196 C 0.9654 0.30467 0.6434 0.0
N1197 N 0.96252 0.29844 0.65418 0.0
C1198 C 0.95717 0.3011 0.63359 0.0
C1199 C 0.94336 0.28435 0.64583 0.0
C1200 C 0.95179 0.28835 0.65547 0.0
C1201 C 0.94597 0.29085 0.63479 0.0
H1202 H 0.97409 0.31247 0.64242 0.0
H1203 H 0.94968 0.2834 0.66397 0.0
O1204 O 0.99555 0.31697 0.69035 0.0
O1205 O 0.9871 0.32126 0.66501 0.0
O1206 O 0.98402 0.29698 0.66949 0.0
O1207 O 0.96882 0.30517 0.68471 0.0
H1208 H 0.0058 0.32821 0.71147 0.0
H1209 H 0.00409 0.30304 0.68393 0.0
H1210 H 0.02097 0.32591 0.72315 0.0
H1211 H 0.01926 0.30117 0.69605 0.0
H1212 H 0.9714 0.34335 0.65138 0.0
H1213 H 0.00703 0.33991 0.65733 0.0
H1214 H 0.96928 0.325 0.66051 0.0
H1215 H 0.0085 0.35796 0.64812 0.0
H1216 H 0.03826 0.34489 0.66686 0.0
H1217 H 0.02584 0.31296 0.64405 0.0
H1218 H 0.97036 0.33896 0.71513 0.0
H1219 H 0.99899 0.36371 0.69179 0.0
H1220 H 0.96242 0.27944 0.67454 0.0
H1221 H 0.99782 0.28783 0.66523 0.0
H1222 H 0.95624 0.25804 0.67468 0.0
H1223 H 0.99108 0.26631 0.66562 0.0
H1224 H 0.95092 0.28372 0.69004 0.0
H1225 H 0.96009 0.31908 0.67937 0.0
H1226 H 0.92968 0.27794 0.68965 0.0
H1227 H 0.93868 0.31263 0.67896 0.0
H1228 H 0.95838 0.27951 0.72371 0.0
H1229 H 0.98138 0.26728 0.70947 0.0
H1230 H 0.95956 0.30623 0.62513 0.0
H1231 H 0.93479 0.27639 0.64709 0.0
Li1232 Li 0.67966 0.67454 0.66784 0.0
Li1233 Li 0.67099 0.6564 0.6802 0.0
Li1234 Li 0.69234 0.67277 0.68311 0.0
Li1235 Li 0.68644 0.65966 0.66475 0.0
C1236 C 0.67342 0.68058 0.6894 0.0
N1237 N 0.66498 0.69568 0.69522 0.0
C1238 C 0.66149 0.67594 0.69248 0.0
C1239 C 0.68109 0.69291 0.68951 0.0
C1240 C 0.65738 0.68371 0.69533 0.0
C1241 C 0.67665 0.70039 0.69241 0.0
C1242 C 0.66082 0.64838 0.65594 0.0
C1243 C 0.65014 0.6279 0.6488 0.0
N1244 N 0.64136 0.62953 0.64419 0.0
C1245 C 0.65178 0.6499 0.65094 0.0
C1246 C 0.66006 0.63732 0.6547 0.0
C1247 C 0.64199 0.64025 0.64511 0.0
C1248 C 0.68343 0.69403 0.6527 0.0
N1249 N 0.67547 0.6848 0.65968 0.0
C1250 C 0.66025 0.68918 0.65478 0.0
C1251 C 0.66408 0.68229 0.66082 0.0
C1252 C 0.66821 0.69873 0.64742 0.0
C1253 C 0.67998 0.7012 0.64649 0.0
H1254 H 0.6924 0.69573 0.65179 0.0
H1255 H 0.65791 0.67484 0.66635 0.0
C1256 C 0.65739 0.63977 0.69888 0.0
N1257 N 0.65678 0.64516 0.68835 0.0
C1258 C 0.64704 0.63208 0.7053 0.0
C1259 C 0.63569 0.63579 0.69002 0.0
C1260 C 0.64623 0.64334 0.68388 0.0
C1261 C 0.63599 0.63006 0.70093 0.0
H1262 H 0.66592 0.64155 0.70238 0.0
H1263 H 0.64602 0.64811 0.67582 0.0
C1264 C 0.7076 0.68637 0.66564 0.0
N1265 N 0.73114 0.70434 0.66686 0.0
C1266 C 0.71657 0.68414 0.66196 0.0
C1267 C 0.71061 0.69779 0.66973 0.0
C1268 C 0.72841 0.69333 0.6627 0.0
C1269 C 0.72256 0.70674 0.67034 0.0
C1270 C 0.686 0.64502 0.68428 0.0
C1271 C 0.6964 0.64574 0.6888 0.0
C1272 C 0.676 0.63385 0.68183 0.0
C1273 C 0.69674 0.63529 0.69042 0.0
C1274 C 0.67668 0.62361 0.68359 0.0
N1275 N 0.68696 0.62454 0.68779 0.0
C1276 C 0.70395 0.68725 0.70458 0.0
C1277 C 0.71475 0.6799 0.69372 0.0
C1278 C 0.71308 0.69287 0.71348 0.0
N1279 N 0.70495 0.68092 0.69496 0.0
C1280 C 0.72404 0.6853 0.70241 0.0
C1281 C 0.72328 0.69187 0.71251 0.0
H1282 H 0.69602 0.68783 0.70545 0.0
H1283 H 0.71528 0.67475 0.68603 0.0
C1284 C 0.68707 0.64977 0.64117 0.0
N1285 N 0.6919 0.6525 0.65287 0.0
C1286 C 0.69146 0.64518 0.63216 0.0
C1287 C 0.70591 0.64659 0.6473 0.0
C1288 C 0.70113 0.65097 0.65606 0.0
C1289 C 0.70109 0.64367 0.63516 0.0
H1290 H 0.67997 0.65138 0.63875 0.0
H1291 H 0.70506 0.65356 0.66528 0.0
O1292 O 0.67756 0.6731 0.68639 0.0
O1293 O 0.67048 0.65776 0.66171 0.0
O1294 O 0.69595 0.67743 0.66517 0.0
O1295 O 0.68551 0.65519 0.68267 0.0
H1296 H 0.65545 0.66644 0.69262 0.0
H1297 H 0.69037 0.69667 0.68739 0.0
H1298 H 0.64815 0.68023 0.69765 0.0
H1299 H 0.68248 0.70995 0.69244 0.0
H1300 H 0.64945 0.61929 0.64781 0.0
H1301 H 0.65228 0.65842 0.65159 0.0
H1302 H 0.66716 0.63607 0.65804 0.0
H1303 H 0.63489 0.6413 0.6413 0.0
H1304 H 0.65114 0.68705 0.65589 0.0
H1305 H 0.68637 0.7084 0.6408 0.0
H1306 H 0.6477 0.62782 0.71363 0.0
H1307 H 0.62745 0.63478 0.68647 0.0
H1308 H 0.71443 0.67542 0.65863 0.0
H1309 H 0.70381 0.69975 0.67237 0.0
H1310 H 0.73544 0.6917 0.65997 0.0
H1311 H 0.725 0.7156 0.67356 0.0
H1312 H 0.70417 0.65426 0.69097 0.0
H1313 H 0.66774 0.63306 0.67878 0.0
H1314 H 0.70478 0.63574 0.6938 0.0
H1315 H 0.66901 0.61493 0.68168 0.0
H1316 H 0.71214 0.69794 0.72101 0.0
H1317 H 0.7316 0.68408 0.70136 0.0
H1318 H 0.68762 0.6432 0.62284 0.0
H1319 H 0.71335 0.64557 0.64995 0.0
Li1320 Li 0.34391 0.32823 0.68288 0.0
Li1321 Li 0.32769 0.30812 0.68598 0.0
Li1322 Li 0.33989 0.31256 0.66731 0.0
Li1323 Li 0.32598 0.3195 0.66949 0.0
C1324 C 0.35665 0.31656 0.68567 0.0
N1325 N 0.38006 0.32208 0.68654 0.0
C1326 C 0.35988 0.30962 0.69262 0.0
C1327 C 0.36533 0.32632 0.67916 0.0
C1328 C 0.37176 0.31256 0.69294 0.0
C1329 C 0.37711 0.32896 0.67971 0.0
C1330 C 0.32174 0.32163 0.69858 0.0
C1331 C 0.30392 0.31616 0.71012 0.0
N1332 N 0.31007 0.31795 0.72099 0.0
C1333 C 0.32791 0.32351 0.70985 0.0
C1334 C 0.30967 0.318 0.69869 0.0
C1335 C 0.32184 0.32156 0.72109 0.0
C1336 C 0.35629 0.35265 0.68498 0.0
N1337 N 0.35521 0.34284 0.69051 0.0
C1338 C 0.36873 0.35477 0.7068 0.0
C1339 C 0.36128 0.34365 0.70116 0.0
C1340 C 0.36991 0.36507 0.70135 0.0
C1341 C 0.36368 0.36391 0.69021 0.0
H1342 H 0.35113 0.35167 0.67667 0.0
H1343 H 0.36015 0.33565 0.70541 0.0
C1344 C 0.30839 0.28801 0.69788 0.0
N1345 N 0.32004 0.29661 0.69871 0.0
C1346 C 0.3033 0.27936 0.70705 0.0
C1347 C 0.32225 0.28863 0.71785 0.0
C1348 C 0.32696 0.2971 0.70848 0.0
C1349 C 0.31028 0.27951 0.71715 0.0
H1350 H 0.30306 0.28773 0.69005 0.0
H1351 H 0.33622 0.30402 0.70891 0.0
C1352 C 0.34383 0.33158 0.652 0.0
N1353 N 0.34567 0.33718 0.627 0.0
C1354 C 0.33722 0.32274 0.64304 0.0
C1355 C 0.35143 0.34326 0.64824 0.0
C1356 C 0.33825 0.32574 0.63045 0.0
C1357 C 0.35222 0.34592 0.63556 0.0
C1358 C 0.31168 0.29666 0.66238 0.0
C1359 C 0.31069 0.29077 0.65105 0.0
C1360 C 0.30169 0.29649 0.66731 0.0
C1361 C 0.29972 0.28481 0.64483 0.0
C1362 C 0.29088 0.29043 0.66081 0.0
N1363 N 0.29012 0.28477 0.64979 0.0
C1364 C 0.34155 0.29461 0.65439 0.0
C1365 C 0.35707 0.31414 0.64994 0.0
C1366 C 0.34605 0.28977 0.64583 0.0
N1367 N 0.34699 0.3066 0.65613 0.0
C1368 C 0.36195 0.30968 0.6414 0.0
C1369 C 0.35633 0.29735 0.63915 0.0
H1370 H 0.33363 0.28883 0.65956 0.0
H1371 H 0.36122 0.32364 0.6515 0.0
C1372 C 0.31643 0.33396 0.66654 0.0
N1373 N 0.31641 0.32452 0.66096 0.0
C1374 C 0.31067 0.33926 0.66091 0.0
C1375 C 0.30476 0.32495 0.6439 0.0
C1376 C 0.3108 0.32001 0.64979 0.0
C1377 C 0.30478 0.33478 0.64942 0.0
H1378 H 0.32115 0.33752 0.6753 0.0
H1379 H 0.31118 0.31276 0.64529 0.0
O1380 O 0.34504 0.31376 0.6853 0.0
O1381 O 0.32748 0.32325 0.68749 0.0
O1382 O 0.34297 0.32884 0.66438 0.0
O1383 O 0.32236 0.30257 0.66859 0.0
H1384 H 0.35327 0.30203 0.6977 0.0
H1385 H 0.36302 0.3318 0.67372 0.0
H1386 H 0.37439 0.30726 0.69829 0.0
H1387 H 0.38391 0.33648 0.67471 0.0
H1388 H 0.29457 0.31332 0.71035 0.0
H1389 H 0.33725 0.32628 0.70992 0.0
H1390 H 0.30481 0.31666 0.69005 0.0
H1391 H 0.32648 0.32289 0.72988 0.0
H1392 H 0.3734 0.3553 0.71538 0.0
H1393 H 0.36414 0.37158 0.68585 0.0
H1394 H 0.29399 0.27261 0.70621 0.0
H1395 H 0.32801 0.28904 0.72537 0.0
H1396 H 0.33138 0.31365 0.64576 0.0
H1397 H 0.35669 0.35021 0.65504 0.0
H1398 H 0.33317 0.31898 0.62343 0.0
H1399 H 0.35806 0.35493 0.63252 0.0
H1400 H 0.31832 0.29084 0.64705 0.0
H1401 H 0.30234 0.30115 0.67595 0.0
H1402 H 0.29884 0.28024 0.63604 0.0
H1403 H 0.2831 0.29029 0.66449 0.0
H1404 H 0.34154 0.2802 0.64446 0.0
H1405 H 0.36984 0.31582 0.63635 0.0
H1406 H 0.31084 0.34681 0.66548 0.0
H1407 H 0.30042 0.32134 0.63496 0.0
Li1408 Li 0.68219 0.0215 0.67167 0.0
Li1409 Li 0.7022 0.02483 0.67304 0.0
Li1410 Li 0.6961 0.03108 0.65447 0.0
Li1411 Li 0.6882 0.00986 0.65827 0.0
C1412 C 0.69554 0.04629 0.67394 0.0
N1413 N 0.69155 0.06494 0.6781 0.0
C1414 C 0.70094 0.05407 0.68411 0.0
C1415 C 0.68812 0.04801 0.66588 0.0
C1416 C 0.69881 0.06344 0.68606 0.0
C1417 C 0.68622 0.05749 0.66814 0.0
C1418 C 0.68555 0.00819 0.6894 0.0
C1419 C 0.67865 0.99507 0.70697 0.0
N1420 N 0.68229 0.00463 0.71479 0.0
C1421 C 0.68922 0.0179 0.69761 0.0
C1422 C 0.68022 0.99669 0.69411 0.0
C1423 C 0.6875 0.01591 0.71041 0.0
C1424 C 0.65828 0.01013 0.6776 0.0
N1425 N 0.66891 0.01991 0.68057 0.0
C1426 C 0.65993 0.02561 0.69653 0.0
C1427 C 0.66993 0.02759 0.68987 0.0
C1428 C 0.64883 0.01555 0.6937 0.0
C1429 C 0.64807 0.00777 0.68407 0.0
H1430 H 0.65777 0.00411 0.67026 0.0
H1431 H 0.67852 0.03511 0.69232 0.0
C1432 C 0.72266 0.04128 0.68594 0.0
N1433 N 0.71512 0.02939 0.68434 0.0
C1434 C 0.73165 0.04551 0.695 0.0
C1435 C 0.72525 0.02516 0.70027 0.0
C1436 C 0.71632 0.02131 0.69115 0.0
C1437 C 0.73292 0.03741 0.70243 0.0
H1438 H 0.7215 0.04748 0.68036 0.0
H1439 H 0.71012 0.0119 0.68978 0.0
C1440 C 0.67167 0.01655 0.64454 0.0
N1441 N 0.65563 0.01349 0.6259 0.0
C1442 C 0.67097 0.01028 0.63357 0.0
C1443 C 0.66409 0.0211 0.6461 0.0
C1444 C 0.66284 0.00888 0.62423 0.0
C1445 C 0.65608 0.01951 0.63655 0.0
C1446 C 0.71215 0.01746 0.65474 0.0
C1447 C 0.72213 0.02231 0.6471 0.0
C1448 C 0.70947 0.00758 0.66199 0.0
C1449 C 0.72926 0.01716 0.64682 0.0
C1450 C 0.71683 0.00269 0.66145 0.0
N1451 N 0.72649 0.00754 0.65394 0.0
C1452 C 0.70952 0.05435 0.64515 0.0
C1453 C 0.69738 0.03984 0.62994 0.0
C1454 C 0.71363 0.0633 0.63627 0.0
N1455 N 0.70141 0.04291 0.6419 0.0
C1456 C 0.70126 0.04849 0.62075 0.0
C1457 C 0.70946 0.06043 0.62388 0.0
H1458 H 0.71285 0.05652 0.65465 0.0
H1459 H 0.6912 0.03066 0.62749 0.0
C1460 C 0.67085 0.98626 0.65476 0.0
N1461 N 0.68173 0.99457 0.65061 0.0
C1462 C 0.66488 0.9749 0.64932 0.0
C1463 C 0.6815 0.98077 0.63552 0.0
C1464 C 0.68711 0.9921 0.64114 0.0
C1465 C 0.67019 0.97205 0.63954 0.0
H1466 H 0.66677 0.98855 0.66223 0.0
H1467 H 0.69565 0.99894 0.63783 0.0
O1468 O 0.69743 0.03699 0.67204 0.0
O1469 O 0.68708 0.00987 0.67682 0.0
O1470 O 0.67944 0.01785 0.65387 0.0
O1471 O 0.70513 0.02247 0.65512 0.0
H1472 H 0.70665 0.05281 0.69049 0.0
H1473 H 0.68395 0.04213 0.65793 0.0
H1474 H 0.7029 0.0695 0.69392 0.0
H1475 H 0.68052 0.05894 0.66196 0.0
H1476 H 0.67453 0.9862 0.71075 0.0
H1477 H 0.69337 0.02687 0.69415 0.0
H1478 H 0.67732 0.98909 0.68786 0.0
H1479 H 0.6903 0.02333 0.71686 0.0
H1480 H 0.66093 0.03172 0.70402 0.0
H1481 H 0.63967 0.99996 0.68153 0.0
H1482 H 0.73746 0.05502 0.69627 0.0
H1483 H 0.72587 0.01863 0.70588 0.0
H1484 H 0.67672 0.00665 0.63222 0.0
H1485 H 0.66432 0.02575 0.65463 0.0
H1486 H 0.66226 0.00412 0.61566 0.0
H1487 H 0.65019 0.02302 0.63762 0.0
H1488 H 0.72432 0.02997 0.64145 0.0
H1489 H 0.70178 0.00367 0.66793 0.0
H1490 H 0.73701 0.02082 0.64094 0.0
H1491 H 0.71485 0.99504 0.667 0.0
H1492 H 0.72012 0.07234 0.63905 0.0
H1493 H 0.69777 0.04587 0.61133 0.0
H1494 H 0.65622 0.9684 0.65276 0.0
H1495 H 0.68582 0.97894 0.62791 0.0
Li1496 Li 0.97304 0.67276 0.6877 0.0
Li1497 Li 0.97568 0.6557 0.68383 0.0
Li1498 Li 0.98821 0.6749 0.67257 0.0
Li1499 Li 0.96715 0.66151 0.66704 0.0
C1500 C 0.99438 0.67925 0.70015 0.0
N1501 N 0.0083 0.69466 0.71913 0.0
C1502 C 0.99503 0.67483 0.71177 0.0
C1503 C 0.00099 0.69149 0.69813 0.0
C1504 C 0.00206 0.68277 0.72126 0.0
C1505 C 0.00794 0.69914 0.70785 0.0
C1506 C 0.95275 0.64564 0.68977 0.0
C1507 C 0.93959 0.62436 0.6893 0.0
N1508 N 0.93722 0.62476 0.70159 0.0
C1509 C 0.95009 0.64587 0.70236 0.0
C1510 C 0.94739 0.63482 0.68315 0.0
C1511 C 0.94225 0.63521 0.70818 0.0
C1512 C 0.96414 0.68738 0.69605 0.0
N1513 N 0.96877 0.68065 0.69988 0.0
C1514 C 0.9665 0.68447 0.72127 0.0
C1515 C 0.96992 0.67905 0.71221 0.0
C1516 C 0.96172 0.69153 0.71763 0.0
C1517 C 0.96059 0.69298 0.70481 0.0
H1518 H 0.96306 0.68829 0.68619 0.0
H1519 H 0.97331 0.6734 0.71502 0.0
C1520 C 0.97922 0.63605 0.68495 0.0
N1521 N 0.97603 0.64286 0.69171 0.0
C1522 C 0.98025 0.62704 0.69066 0.0
C1523 C 0.97476 0.63225 0.71024 0.0
C1524 C 0.97377 0.64112 0.70412 0.0
C1525 C 0.97812 0.62513 0.70351 0.0
H1526 H 0.98125 0.63779 0.67517 0.0
H1527 H 0.97141 0.64677 0.70933 0.0
C1528 C 0.9795 0.68985 0.66518 0.0
N1529 N 0.98755 0.71184 0.65459 0.0
C1530 C 0.97723 0.69064 0.65257 0.0
C1531 C 0.98566 0.70024 0.67245 0.0
C1532 C 0.98143 0.70184 0.64737 0.0
C1533 C 0.98971 0.71128 0.66692 0.0
C1534 C 0.97926 0.65233 0.65502 0.0
C1535 C 0.98707 0.6581 0.64524 0.0
C1536 C 0.97022 0.64047 0.65345 0.0
C1537 C 0.98559 0.65195 0.63397 0.0
C1538 C 0.96903 0.63463 0.64205 0.0
N1539 N 0.97666 0.64045 0.63262 0.0
C1540 C 0.01305 0.68562 0.67237 0.0
C1541 C 0.00523 0.69092 0.65526 0.0
C1542 C 0.02452 0.69219 0.66765 0.0
N1543 N 0.0037 0.6851 0.66616 0.0
C1544 C 0.01654 0.6976 0.6502 0.0
C1545 C 0.02637 0.6982 0.65633 0.0
H1546 H 0.01156 0.68068 0.68087 0.0
H1547 H 0.99766 0.69006 0.65026 0.0
C1548 C 0.94406 0.65032 0.65652 0.0
N1549 N 0.95579 0.65598 0.65368 0.0
C1550 C 0.93546 0.64609 0.64702 0.0
C1551 C 0.95117 0.65374 0.63185 0.0
C1552 C 0.95946 0.65788 0.64164 0.0
C1553 C 0.93897 0.64772 0.63447 0.0
H1554 H 0.94138 0.64914 0.66618 0.0
H1555 H 0.96883 0.66264 0.6396 0.0
O1556 O 0.98747 0.6716 0.69078 0.0
O1557 O 0.96049 0.65598 0.68393 0.0
O1558 O 0.97546 0.67895 0.6704 0.0
O1559 O 0.98055 0.65824 0.6661 0.0
H1560 H 0.99009 0.66538 0.71347 0.0
H1561 H 0.00088 0.69504 0.68911 0.0
H1562 H 0.00256 0.67947 0.73033 0.0
H1563 H 0.01307 0.70864 0.70641 0.0
H1564 H 0.93541 0.61592 0.68429 0.0
H1565 H 0.95409 0.65417 0.7076 0.0
H1566 H 0.94917 0.63451 0.67336 0.0
H1567 H 0.94017 0.63525 0.71795 0.0
H1568 H 0.96761 0.68316 0.73104 0.0
H1569 H 0.95677 0.69816 0.70156 0.0
H1570 H 0.98307 0.6219 0.68517 0.0
H1571 H 0.97297 0.63103 0.72014 0.0
H1572 H 0.97236 0.6827 0.64683 0.0
H1573 H 0.98718 0.69981 0.6823 0.0
H1574 H 0.97982 0.70257 0.6376 0.0
H1575 H 0.99453 0.71939 0.67243 0.0
H1576 H 0.99418 0.66723 0.64631 0.0
H1577 H 0.96421 0.63581 0.66097 0.0
H1578 H 0.99154 0.65632 0.62631 0.0
H1579 H 0.96204 0.62547 0.6407 0.0
H1580 H 0.03179 0.69222 0.67258 0.0
H1581 H 0.01755 0.70212 0.64148 0.0
H1582 H 0.92617 0.64171 0.6495 0.0
H1583 H 0.95432 0.65512 0.62233 0.0
C1584 C 0.17725 0.26563 0.0667 0.0
C1585 C 0.18376 0.27479 0.07719 0.0
C1586 C 0.17553 0.27159 0.09802 0.0
C1587 C 0.17915 0.28335 0.10154 0.0
C1588 C 0.17293 0.28579 0.11064 0.0
C1589 C 0.16282 0.27625 0.11621 0.0
C1590 C 0.15947 0.26435 0.11302 0.0
C1591 C 0.16605 0.26219 0.10411 0.0
C1592 C 0.17695 0.29856 0.11402 0.0
C1593 C 0.14867 0.25394 0.11862 0.0
C1594 C 0.09074 0.29175 0.08886 0.0
C1595 C 0.09662 0.28588 0.09503 0.0
C1596 C 0.11559 0.29088 0.10479 0.0
C1597 C 0.11177 0.27932 0.109 0.0
C1598 C 0.11946 0.27684 0.11578 0.0
C1599 C 0.13114 0.28614 0.1186 0.0
C1600 C 0.13497 0.29781 0.11452 0.0
C1601 C 0.12715 0.3 0.1076 0.0
C1602 C 0.11513 0.26426 0.11984 0.0
C1603 C 0.14735 0.30794 0.11742 0.0
C1604 C 0.11154 0.28115 0.19934 0.0
C1605 C 0.10862 0.27069 0.19255 0.0
C1606 C 0.11731 0.26968 0.18588 0.0
C1607 C 0.12912 0.27941 0.18578 0.0
C1608 C 0.13213 0.28987 0.19276 0.0
C1609 C 0.1233 0.29054 0.19954 0.0
C1610 C 0.11383 0.25827 0.17879 0.0
C1611 C 0.14462 0.3004 0.19287 0.0
C1612 C 0.19954 0.2569 0.19289 0.0
C1613 C 0.19662 0.26603 0.19831 0.0
C1614 C 0.17724 0.26427 0.19503 0.0
C1615 C 0.1656 0.25566 0.19176 0.0
C1616 C 0.15794 0.25884 0.18604 0.0
C1617 C 0.162 0.27097 0.18378 0.0
C1618 C 0.17358 0.27979 0.18765 0.0
C1619 C 0.1811 0.27635 0.19326 0.0
C1620 C 0.14559 0.24921 0.18217 0.0
C1621 C 0.17805 0.29283 0.18571 0.0
C1622 C 0.15513 0.27871 0.1244 0.0
C1623 C 0.14727 0.2815 0.11859 0.0
C1624 C 0.13945 0.28359 0.12554 0.0
C1625 C 0.13939 0.28283 0.13869 0.0
C1626 C 0.13163 0.28487 0.14597 0.0
C1627 C 0.13132 0.28368 0.15887 0.0
C1628 C 0.13878 0.28043 0.165 0.0
C1629 C 0.1382 0.27874 0.17805 0.0
C1630 C 0.14596 0.27582 0.1839 0.0
C1631 C 0.15425 0.27438 0.17702 0.0
C1632 C 0.15478 0.27578 0.16391 0.0
C1633 C 0.16284 0.27417 0.15666 0.0
C1634 C 0.1631 0.27529 0.14374 0.0
C1635 C 0.15525 0.27797 0.13756 0.0
C1636 C 0.14724 0.27991 0.14471 0.0
C1637 C 0.14698 0.27877 0.15789 0.0
C1638 C 0.08653 0.27763 0.19259 0.0
C1639 C 0.09109 0.27562 0.205 0.0
O1640 O 0.18084 0.26907 0.08856 0.0
O1641 O 0.18444 0.26059 0.19989 0.0
O1642 O 0.10337 0.28263 0.20573 0.0
O1643 O 0.10848 0.2936 0.098 0.0
H1644 H 0.18055 0.28124 0.07665 0.0
H1645 H 0.1675 0.26149 0.06788 0.0
H1646 H 0.17949 0.25847 0.06684 0.0
H1647 H 0.17964 0.27001 0.05747 0.0
H1648 H 0.18675 0.29062 0.09706 0.0
H1649 H 0.16344 0.25315 0.1014 0.0
H1650 H 0.17066 0.30097 0.10989 0.0
H1651 H 0.18599 0.3048 0.11049 0.0
H1652 H 0.17694 0.29972 0.12431 0.0
H1653 H 0.14679 0.24528 0.11448 0.0
H1654 H 0.14076 0.25488 0.11722 0.0
H1655 H 0.15005 0.25379 0.12883 0.0
H1656 H 0.095 0.27748 0.09035 0.0
H1657 H 0.08825 0.28759 0.07923 0.0
H1658 H 0.09806 0.30062 0.08552 0.0
H1659 H 0.07808 0.29013 0.10184 0.0
H1660 H 0.10283 0.27215 0.10695 0.0
H1661 H 0.13002 0.30889 0.10435 0.0
H1662 H 0.12132 0.26132 0.11657 0.0
H1663 H 0.10608 0.25788 0.11619 0.0
H1664 H 0.11499 0.26392 0.13019 0.0
H1665 H 0.14864 0.31667 0.11449 0.0
H1666 H 0.15391 0.30636 0.11252 0.0
H1667 H 0.14923 0.30837 0.12759 0.0
H1668 H 0.08839 0.26608 0.20575 0.0
H1669 H 0.0996 0.26326 0.19235 0.0
H1670 H 0.1255 0.29855 0.20485 0.0
H1671 H 0.11411 0.25986 0.16861 0.0
H1672 H 0.10475 0.25103 0.18113 0.0
H1673 H 0.12023 0.25525 0.18083 0.0
H1674 H 0.1454 0.30811 0.19826 0.0
H1675 H 0.14755 0.3032 0.18315 0.0
H1676 H 0.15076 0.29782 0.19706 0.0
H1677 H 0.19974 0.27324 0.19132 0.0
H1678 H 0.20928 0.26102 0.19162 0.0
H1679 H 0.1951 0.25365 0.18363 0.0
H1680 H 0.19639 0.24913 0.19911 0.0
H1681 H 0.16265 0.24638 0.19338 0.0
H1682 H 0.18994 0.28311 0.19628 0.0
H1683 H 0.14433 0.24963 0.17197 0.0
H1684 H 0.13892 0.25068 0.187 0.0
H1685 H 0.14386 0.24017 0.18439 0.0
H1686 H 0.18698 0.29864 0.18998 0.0
H1687 H 0.17173 0.29525 0.1898 0.0
H1688 H 0.17854 0.2946 0.17556 0.0
H1689 H 0.14714 0.28193 0.10849 0.0
H1690 H 0.12563 0.28732 0.14175 0.0
H1691 H 0.1251 0.28527 0.16397 0.0
H1692 H 0.14543 0.27449 0.19391 0.0
H1693 H 0.16901 0.27195 0.16089 0.0
H1694 H 0.16947 0.27393 0.13863 0.0
H1695 H 0.07669 0.2721 0.19202 0.0
H1696 H 0.09022 0.27507 0.18461 0.0
H1697 H 0.08921 0.28715 0.19169 0.0
C1698 C 0.74605 0.91952 0.0763 0.0
C1699 C 0.73531 0.91269 0.08472 0.0
C1700 C 0.73605 0.90706 0.10597 0.0
C1701 C 0.72422 0.89821 0.10783 0.0
C1702 C 0.72134 0.88925 0.11658 0.0
C1703 C 0.73056 0.88897 0.12332 0.0
C1704 C 0.74252 0.89805 0.12155 0.0
C1705 C 0.74506 0.90717 0.11312 0.0
C1706 C 0.70847 0.87992 0.11836 0.0
C1707 C 0.7527 0.89792 0.12814 0.0
C1708 C 0.72509 0.82355 0.08379 0.0
C1709 C 0.71941 0.81516 0.09481 0.0
C1710 C 0.71478 0.82726 0.10901 0.0
C1711 C 0.72655 0.83537 0.11276 0.0
C1712 C 0.72919 0.84523 0.12044 0.0
C1713 C 0.71988 0.84699 0.12449 0.0
C1714 C 0.70802 0.83871 0.121 0.0
C1715 C 0.70563 0.82893 0.11332 0.0
C1716 C 0.74194 0.8539 0.12406 0.0
C1717 C 0.69789 0.84032 0.1252 0.0
C1718 C 0.72351 0.8308 0.20466 0.0
C1719 C 0.73428 0.83844 0.1987 0.0
C1720 C 0.73587 0.84854 0.19243 0.0
C1721 C 0.72646 0.85095 0.19195 0.0
C1722 C 0.71574 0.84346 0.1982 0.0
C1723 C 0.71446 0.83354 0.20457 0.0
C1724 C 0.74755 0.85652 0.18614 0.0
C1725 C 0.70554 0.84579 0.1979 0.0
C1726 C 0.75148 0.94609 0.19809 0.0
C1727 C 0.74269 0.93378 0.20313 0.0
C1728 C 0.74429 0.91596 0.20082 0.0
C1729 C 0.75252 0.91255 0.19768 0.0
C1730 C 0.74881 0.9012 0.19261 0.0
C1731 C 0.73653 0.89304 0.19087 0.0
C1732 C 0.72812 0.89615 0.19483 0.0
C1733 C 0.73208 0.9076 0.19978 0.0
C1734 C 0.75801 0.8981 0.18868 0.0
C1735 C 0.71496 0.8875 0.19344 0.0
C1736 C 0.72778 0.8786 0.13124 0.0
C1737 C 0.72487 0.86791 0.12512 0.0
C1738 C 0.72266 0.85786 0.13178 0.0
C1739 C 0.72348 0.85843 0.14495 0.0
C1740 C 0.72144 0.84852 0.15191 0.0
C1741 C 0.72264 0.84928 0.16486 0.0
C1742 C 0.72597 0.86001 0.17132 0.0
C1743 C 0.72766 0.861 0.18444 0.0
C1744 C 0.73092 0.87179 0.19058 0.0
C1745 C 0.73257 0.88168 0.18395 0.0
C1746 C 0.73093 0.88085 0.17083 0.0
C1747 C 0.73248 0.89062 0.16387 0.0
C1748 C 0.73118 0.88983 0.15093 0.0
C1749 C 0.72849 0.87932 0.14443 0.0
C1750 C 0.72651 0.86924 0.15129 0.0
C1751 C 0.72774 0.87001 0.1645 0.0
C1752 C 0.7259 0.80901 0.19655 0.0
C1753 C 0.72783 0.81491 0.20951 0.0
O1754 O 0.73901 0.91536 0.09708 0.0
O1755 O 0.74845 0.9274 0.20464 0.0
O1756 O 0.72141 0.82071 0.2105 0.0
O1757 O 0.71182 0.81786 0.10115 0.0
H1758 H 0.73172 0.90302 0.08273 0.0
H1759 H 0.75277 0.91693 0.07834 0.0
H1760 H 0.75019 0.92927 0.07791 0.0
H1761 H 0.74334 0.9174 0.06632 0.0
H1762 H 0.71725 0.8983 0.10238 0.0
H1763 H 0.75417 0.91412 0.1116 0.0
H1764 H 0.70658 0.87156 0.11347 0.0
H1765 H 0.70238 0.88274 0.11451 0.0
H1766 H 0.70654 0.87794 0.12842 0.0
H1767 H 0.76141 0.90425 0.12399 0.0
H1768 H 0.75153 0.88887 0.1278 0.0
H1769 H 0.75295 0.90049 0.1381 0.0
H1770 H 0.72651 0.81603 0.10128 0.0
H1771 H 0.71813 0.82297 0.07733 0.0
H1772 H 0.73096 0.82118 0.07857 0.0
H1773 H 0.73057 0.83291 0.08714 0.0
H1774 H 0.73376 0.8342 0.10965 0.0
H1775 H 0.69657 0.82261 0.11044 0.0
H1776 H 0.74461 0.86284 0.12039 0.0
H1777 H 0.74814 0.85112 0.12043 0.0
H1778 H 0.74285 0.85476 0.13439 0.0
H1779 H 0.68911 0.83281 0.12213 0.0
H1780 H 0.69901 0.8487 0.12138 0.0
H1781 H 0.69802 0.84112 0.13555 0.0
H1782 H 0.73744 0.8214 0.21104 0.0
H1783 H 0.74146 0.83658 0.1988 0.0
H1784 H 0.70623 0.82767 0.20927 0.0
H1785 H 0.74622 0.85561 0.17586 0.0
H1786 H 0.75445 0.85429 0.18866 0.0
H1787 H 0.75085 0.86597 0.18873 0.0
H1788 H 0.69764 0.8389 0.2029 0.0
H1789 H 0.70296 0.84606 0.18807 0.0
H1790 H 0.70836 0.85461 0.20228 0.0
H1791 H 0.73554 0.92946 0.19589 0.0
H1792 H 0.74709 0.95146 0.19705 0.0
H1793 H 0.75463 0.94512 0.18878 0.0
H1794 H 0.75932 0.95093 0.2044 0.0
H1795 H 0.76191 0.919 0.19875 0.0
H1796 H 0.72564 0.91001 0.2027 0.0
H1797 H 0.75733 0.89638 0.17844 0.0
H1798 H 0.75631 0.88981 0.19331 0.0
H1799 H 0.7672 0.9053 0.19103 0.0
H1800 H 0.70957 0.89087 0.19797 0.0
H1801 H 0.71268 0.87884 0.19759 0.0
H1802 H 0.71254 0.88586 0.18337 0.0
H1803 H 0.72446 0.86744 0.11499 0.0
H1804 H 0.71898 0.84007 0.14742 0.0
H1805 H 0.721 0.84136 0.16971 0.0
H1806 H 0.73234 0.87254 0.20061 0.0
H1807 H 0.73477 0.89903 0.16833 0.0
H1808 H 0.73246 0.89763 0.14607 0.0
H1809 H 0.73092 0.80424 0.1958 0.0
H1810 H 0.7291 0.8158 0.18915 0.0
H1811 H 0.71631 0.80257 0.19485 0.0
C1812 C 0.17466 0.89558 0.08084 0.0
C1813 C 0.18367 0.90517 0.08991 0.0
C1814 C 0.17474 0.89454 0.10924 0.0
C1815 C 0.16595 0.89765 0.11056 0.0
C1816 C 0.15623 0.8912 0.11841 0.0
C1817 C 0.15518 0.88132 0.1249 0.0
C1818 C 0.16422 0.8784 0.12387 0.0
C1819 C 0.17401 0.88523 0.11622 0.0
C1820 C 0.14692 0.89476 0.11952 0.0
C1821 C 0.16333 0.86781 0.13044 0.0
C1822 C 0.08552 0.83626 0.07237 0.0
C1823 C 0.09021 0.83112 0.0821 0.0
C1824 C 0.09554 0.83836 0.1035 0.0
C1825 C 0.10384 0.83481 0.10592 0.0
C1826 C 0.11254 0.84052 0.11529 0.0
C1827 C 0.11308 0.85014 0.12218 0.0
C1828 C 0.10442 0.85344 0.12002 0.0
C1829 C 0.09558 0.84728 0.11087 0.0
C1830 C 0.1214 0.83653 0.11754 0.0
C1831 C 0.10481 0.86381 0.12691 0.0
C1832 C 0.08828 0.83284 0.20153 0.0
C1833 C 0.09616 0.82908 0.19779 0.0
C1834 C 0.10699 0.83702 0.19214 0.0
C1835 C 0.10988 0.84891 0.19007 0.0
C1836 C 0.10209 0.85279 0.19422 0.0
C1837 C 0.09147 0.84472 0.20007 0.0
C1838 C 0.11528 0.8327 0.18827 0.0
C1839 C 0.10492 0.86541 0.19233 0.0
C1840 C 0.18818 0.92866 0.20443 0.0
C1841 C 0.1834 0.92063 0.21584 0.0
C1842 C 0.17063 0.9007 0.20635 0.0
C1843 C 0.16975 0.88975 0.20373 0.0
C1844 C 0.16009 0.8808 0.19687 0.0
C1845 C 0.15111 0.88291 0.1925 0.0
C1846 C 0.1518 0.89389 0.19529 0.0
C1847 C 0.16153 0.90266 0.20222 0.0
C1848 C 0.15959 0.86918 0.19409 0.0
C1849 C 0.14235 0.89642 0.19076 0.0
C1850 C 0.14415 0.87344 0.13182 0.0
C1851 C 0.13413 0.86553 0.1248 0.0
C1852 C 0.12343 0.8576 0.13051 0.0
C1853 C 0.12275 0.85729 0.14368 0.0
C1854 C 0.1123 0.84911 0.14977 0.0
C1855 C 0.11165 0.84907 0.16274 0.0
C1856 C 0.12147 0.85713 0.17013 0.0
C1857 C 0.12088 0.85721 0.18333 0.0
C1858 C 0.13074 0.86554 0.19035 0.0
C1859 C 0.14122 0.87387 0.18455 0.0
C1860 C 0.14205 0.8738 0.17139 0.0
C1861 C 0.15251 0.88198 0.16527 0.0
C1862 C 0.15323 0.88189 0.15232 0.0
C1863 C 0.14351 0.87364 0.14499 0.0
C1864 C 0.1328 0.86542 0.15094 0.0
C1865 C 0.13212 0.86542 0.16417 0.0
C1866 C 0.05822 0.81214 0.19881 0.0
C1867 C 0.07005 0.81355 0.20312 0.0
O1868 O 0.18389 0.90009 0.10115 0.0
O1869 O 0.18044 0.90908 0.21271 0.0
O1870 O 0.07763 0.82532 0.20671 0.0
O1871 O 0.0876 0.83355 0.09392 0.0
H1872 H 0.18116 0.91205 0.09158 0.0
H1873 H 0.16556 0.89139 0.0847 0.0
H1874 H 0.17695 0.88854 0.0792 0.0
H1875 H 0.17455 0.89955 0.07176 0.0
H1876 H 0.16656 0.90503 0.10544 0.0
H1877 H 0.1809 0.88297 0.11522 0.0
H1878 H 0.13879 0.8882 0.11432 0.0
H1879 H 0.14998 0.90372 0.11566 0.0
H1880 H 0.14447 0.89473 0.12944 0.0
H1881 H 0.1706 0.86615 0.12782 0.0
H1882 H 0.15468 0.85969 0.12817 0.0
H1883 H 0.16372 0.86931 0.14069 0.0
H1884 H 0.10003 0.83569 0.08085 0.0
H1885 H 0.08759 0.8345 0.0628 0.0
H1886 H 0.08982 0.84604 0.07381 0.0
H1887 H 0.07575 0.83228 0.07319 0.0
H1888 H 0.10357 0.82765 0.1004 0.0
H1889 H 0.08903 0.84985 0.10897 0.0
H1890 H 0.12286 0.83618 0.12771 0.0
H1891 H 0.13004 0.84304 0.11341 0.0
H1892 H 0.11845 0.82764 0.11325 0.0
H1893 H 0.0982 0.86599 0.12319 0.0
H1894 H 0.1138 0.87183 0.12629 0.0
H1895 H 0.10295 0.86167 0.13694 0.0
H1896 H 0.07368 0.81105 0.19499 0.0
H1897 H 0.09392 0.81999 0.19937 0.0
H1898 H 0.0854 0.84757 0.20321 0.0
H1899 H 0.11559 0.83237 0.17793 0.0
H1900 H 0.11242 0.82368 0.19184 0.0
H1901 H 0.12443 0.83898 0.19174 0.0
H1902 H 0.09742 0.8667 0.19498 0.0
H1903 H 0.10714 0.8679 0.18241 0.0
H1904 H 0.1128 0.87156 0.1981 0.0
H1905 H 0.17541 0.92067 0.21935 0.0
H1906 H 0.1908 0.93795 0.20706 0.0
H1907 H 0.18129 0.92559 0.19697 0.0
H1908 H 0.19602 0.92857 0.20058 0.0
H1909 H 0.17676 0.88827 0.20698 0.0
H1910 H 0.16196 0.91102 0.20421 0.0
H1911 H 0.15992 0.86802 0.18384 0.0
H1912 H 0.15107 0.86165 0.1974 0.0
H1913 H 0.16705 0.86874 0.19856 0.0
H1914 H 0.1441 0.90535 0.19383 0.0
H1915 H 0.13356 0.88958 0.19431 0.0
H1916 H 0.14185 0.89589 0.18041 0.0
H1917 H 0.13463 0.86561 0.11468 0.0
H1918 H 0.10449 0.84267 0.14456 0.0
H1919 H 0.10333 0.84263 0.1669 0.0
H1920 H 0.13018 0.86567 0.20045 0.0
H1921 H 0.16028 0.88855 0.17043 0.0
H1922 H 0.16149 0.8884 0.14812 0.0
H1923 H 0.05409 0.81457 0.20648 0.0
H1924 H 0.052 0.8028 0.19573 0.0
H1925 H 0.05972 0.81805 0.1908 0.0
C1926 C 0.28596 0.11352 0.93804 0.0
C1927 C 0.28493 0.10405 0.92861 0.0
C1928 C 0.28637 0.11467 0.90927 0.0
C1929 C 0.27453 0.1121 0.90873 0.0
C1930 C 0.27111 0.11814 0.90048 0.0
C1931 C 0.27971 0.12706 0.89278 0.0
C1932 C 0.29159 0.12953 0.89317 0.0
C1933 C 0.2947 0.12314 0.90127 0.0
C1934 C 0.25832 0.11511 0.90015 0.0
C1935 C 0.30108 0.13913 0.88527 0.0
C1936 C 0.25452 0.18914 0.91348 0.0
C1937 C 0.26612 0.18994 0.91776 0.0
C1938 C 0.2723 0.18002 0.90234 0.0
C1939 C 0.28189 0.18203 0.89494 0.0
C1940 C 0.28237 0.17258 0.88917 0.0
C1941 C 0.27272 0.16082 0.89046 0.0
C1942 C 0.26293 0.1587 0.89791 0.0
C1943 C 0.26287 0.16832 0.9039 0.0
C1944 C 0.29317 0.1752 0.88166 0.0
C1945 C 0.25246 0.1463 0.89945 0.0
C1946 C 0.25963 0.16819 0.81054 0.0
C1947 C 0.27111 0.17185 0.81496 0.0
C1948 C 0.2735 0.16393 0.82133 0.0
C1949 C 0.26412 0.15219 0.82354 0.0
C1950 C 0.25262 0.14838 0.81866 0.0
C1951 C 0.25059 0.15641 0.81203 0.0
C1952 C 0.286 0.16819 0.82587 0.0
C1953 C 0.24242 0.13592 0.8207 0.0
C1954 C 0.25999 0.07059 0.81676 0.0
C1955 C 0.26372 0.07858 0.80529 0.0
C1956 C 0.27135 0.09883 0.81394 0.0
C1957 C 0.28161 0.10989 0.81597 0.0
C1958 C 0.2811 0.11933 0.82178 0.0
C1959 C 0.27003 0.1176 0.82574 0.0
C1960 C 0.25957 0.10649 0.82361 0.0
C1961 C 0.26032 0.09721 0.81771 0.0
C1962 C 0.29241 0.13109 0.82386 0.0
C1963 C 0.24762 0.10437 0.82774 0.0
C1964 C 0.27642 0.13424 0.88485 0.0
C1965 C 0.27572 0.14355 0.89062 0.0
C1966 C 0.27281 0.1508 0.88381 0.0
C1967 C 0.27057 0.1488 0.87082 0.0
C1968 C 0.26739 0.15579 0.86372 0.0
C1969 C 0.2658 0.15417 0.85085 0.0
C1970 C 0.26728 0.14546 0.84459 0.0
C1971 C 0.26621 0.1441 0.83143 0.0
C1972 C 0.26727 0.13504 0.82557 0.0
C1973 C 0.2694 0.12727 0.8325 0.0
C1974 C 0.27082 0.1287 0.84562 0.0
C1975 C 0.27317 0.12117 0.85285 0.0
C1976 C 0.27486 0.12286 0.86572 0.0
C1977 C 0.27429 0.13216 0.87185 0.0
C1978 C 0.27154 0.1396 0.86479 0.0
C1979 C 0.26986 0.13791 0.85166 0.0
C1980 C 0.24904 0.18708 0.81339 0.0
C1981 C 0.26024 0.1871 0.80925 0.0
O1982 O 0.29017 0.10935 0.91743 0.0
O1983 O 0.27259 0.09004 0.80849 0.0
O1984 O 0.25707 0.17583 0.80475 0.0
O1985 O 0.27243 0.18965 0.90753 0.0
H1986 H 0.27541 0.09733 0.92696 0.0
H1987 H 0.28127 0.11801 0.93447 0.0
H1988 H 0.29544 0.12034 0.93974 0.0
H1989 H 0.28185 0.10936 0.94704 0.0
H1990 H 0.26791 0.10543 0.9147 0.0
H1991 H 0.30378 0.12501 0.9017 0.0
H1992 H 0.25767 0.12256 0.90443 0.0
H1993 H 0.25242 0.10687 0.90534 0.0
H1994 H 0.25506 0.11395 0.89035 0.0
H1995 H 0.31007 0.14067 0.88749 0.0
H1996 H 0.30113 0.14761 0.88666 0.0
H1997 H 0.29911 0.13655 0.87525 0.0
H1998 H 0.26394 0.18232 0.92397 0.0
H1999 H 0.24958 0.18962 0.92169 0.0
H2000 H 0.24877 0.18058 0.90846 0.0
H2001 H 0.25632 0.1965 0.90707 0.0
H2002 H 0.28912 0.1911 0.89381 0.0
H2003 H 0.25534 0.16665 0.90954 0.0
H2004 H 0.29089 0.17425 0.87156 0.0
H2005 H 0.29612 0.16879 0.88385 0.0
H2006 H 0.30069 0.18438 0.88345 0.0
H2007 H 0.24496 0.1463 0.90432 0.0
H2008 H 0.25528 0.14098 0.90497 0.0
H2009 H 0.24928 0.14181 0.8902 0.0
H2010 H 0.26616 0.18949 0.81762 0.0
H2011 H 0.2782 0.18089 0.81339 0.0
H2012 H 0.2418 0.15365 0.80836 0.0
H2013 H 0.28653 0.16978 0.83611 0.0
H2014 H 0.29258 0.17662 0.82139 0.0
H2015 H 0.28848 0.16133 0.82397 0.0
H2016 H 0.23381 0.13472 0.81735 0.0
H2017 H 0.24169 0.13377 0.83077 0.0
H2018 H 0.24411 0.12946 0.81562 0.0
H2019 H 0.25585 0.07873 0.8015 0.0
H2020 H 0.25309 0.06134 0.81408 0.0
H2021 H 0.25621 0.07386 0.82397 0.0
H2022 H 0.26773 0.07048 0.82094 0.0
H2023 H 0.29007 0.11108 0.81303 0.0
H2024 H 0.25226 0.08874 0.81624 0.0
H2025 H 0.29404 0.13301 0.83404 0.0
H2026 H 0.2915 0.13836 0.81973 0.0
H2027 H 0.30025 0.13118 0.81972 0.0
H2028 H 0.2403 0.09523 0.82538 0.0
H2029 H 0.24572 0.11086 0.82324 0.0
H2030 H 0.24777 0.10581 0.838 0.0
H2031 H 0.27756 0.14523 0.90056 0.0
H2032 H 0.2662 0.16267 0.86801 0.0
H2033 H 0.26346 0.15988 0.84588 0.0
H2034 H 0.26639 0.13399 0.81549 0.0
H2035 H 0.27383 0.11393 0.84864 0.0
H2036 H 0.27671 0.11684 0.8708 0.0
H2037 H 0.24272 0.18473 0.80542 0.0
H2038 H 0.25134 0.19599 0.81718 0.0
H2039 H 0.24459 0.18044 0.82083 0.0
C2040 C 0.8324 0.08516 0.94302 0.0
C2041 C 0.82642 0.09002 0.93457 0.0
C2042 C 0.83303 0.09518 0.91331 0.0
C2043 C 0.83082 0.10447 0.9112 0.0
C2044 C 0.83754 0.11333 0.90254 0.0
C2045 C 0.84683 0.11299 0.89609 0.0
C2046 C 0.84883 0.1034 0.898 0.0
C2047 C 0.84169 0.09445 0.90641 0.0
C2048 C 0.83491 0.12321 0.90056 0.0
C2049 C 0.8588 0.10281 0.89156 0.0
C2050 C 0.91367 0.2084 0.91528 0.0
C2051 C 0.90731 0.19764 0.90703 0.0
C2052 C 0.89404 0.17651 0.90764 0.0
C2053 C 0.89734 0.16786 0.90673 0.0
C2054 C 0.89008 0.15704 0.90033 0.0
C2055 C 0.87922 0.15484 0.89495 0.0
C2056 C 0.87567 0.16341 0.89628 0.0
C2057 C 0.88315 0.17417 0.9026 0.0
C2058 C 0.89406 0.14805 0.89914 0.0
C2059 C 0.864 0.16122 0.89095 0.0
C2060 C 0.89789 0.1705 0.81354 0.0
C2061 C 0.89978 0.16122 0.81707 0.0
C2062 C 0.89126 0.15162 0.82398 0.0
C2063 C 0.88063 0.15125 0.82742 0.0
C2064 C 0.87866 0.16052 0.82382 0.0
C2065 C 0.88735 0.17005 0.81695 0.0
C2066 C 0.89364 0.14188 0.82771 0.0
C2067 C 0.86742 0.1604 0.82731 0.0
C2068 C 0.80313 0.06206 0.81976 0.0
C2069 C 0.80749 0.07356 0.8125 0.0
C2070 C 0.82807 0.08948 0.81618 0.0
C2071 C 0.83904 0.09079 0.81943 0.0
C2072 C 0.84786 0.10119 0.82544 0.0
C2073 C 0.84565 0.11054 0.82813 0.0
C2074 C 0.83479 0.10952 0.8243 0.0
C2075 C 0.82613 0.09903 0.81828 0.0
C2076 C 0.85945 0.10209 0.82916 0.0
C2077 C 0.83229 0.11947 0.82675 0.0
C2078 C 0.85508 0.12318 0.88826 0.0
C2079 C 0.86341 0.13367 0.89444 0.0
C2080 C 0.87154 0.14364 0.88782 0.0
C2081 C 0.87174 0.14307 0.87465 0.0
C2082 C 0.88016 0.15277 0.86774 0.0
C2083 C 0.88022 0.15218 0.85476 0.0
C2084 C 0.87177 0.14192 0.84819 0.0
C2085 C 0.87169 0.14128 0.83499 0.0
C2086 C 0.86309 0.13097 0.82875 0.0
C2087 C 0.85452 0.1212 0.83534 0.0
C2088 C 0.85451 0.12164 0.84855 0.0
C2089 C 0.84603 0.11197 0.85548 0.0
C2090 C 0.84615 0.11246 0.86848 0.0
C2091 C 0.85476 0.12262 0.87505 0.0
C2092 C 0.86325 0.13256 0.86824 0.0
C2093 C 0.86318 0.13203 0.85498 0.0
C2094 C 0.92232 0.19158 0.79324 0.0
C2095 C 0.91653 0.1816 0.80216 0.0
O2096 O 0.82716 0.08705 0.92226 0.0
O2097 O 0.81967 0.07897 0.81094 0.0
O2098 O 0.90593 0.17997 0.80687 0.0
O2099 O 0.90142 0.18705 0.91345 0.0
H2100 H 0.83143 0.09988 0.93598 0.0
H2101 H 0.84191 0.0892 0.94053 0.0
H2102 H 0.82808 0.07534 0.94193 0.0
H2103 H 0.8319 0.08742 0.95296 0.0
H2104 H 0.82391 0.10483 0.91642 0.0
H2105 H 0.84323 0.08716 0.9081 0.0
H2106 H 0.84177 0.13139 0.90549 0.0
H2107 H 0.82607 0.12094 0.90423 0.0
H2108 H 0.83523 0.12524 0.89048 0.0
H2109 H 0.86008 0.09561 0.89525 0.0
H2110 H 0.86725 0.11142 0.8927 0.0
H2111 H 0.8568 0.10115 0.88142 0.0
H2112 H 0.91256 0.19717 0.89908 0.0
H2113 H 0.91423 0.20517 0.92483 0.0
H2114 H 0.90483 0.21775 0.91186 0.0
H2115 H 0.92336 0.21216 0.91321 0.0
H2116 H 0.90573 0.16974 0.91081 0.0
H2117 H 0.88046 0.18074 0.90365 0.0
H2118 H 0.89449 0.14602 0.88912 0.0
H2119 H 0.88747 0.13962 0.9036 0.0
H2120 H 0.9029 0.15125 0.90356 0.0
H2121 H 0.86217 0.16842 0.89354 0.0
H2122 H 0.85661 0.15262 0.89432 0.0
H2123 H 0.86411 0.16058 0.88062 0.0
H2124 H 0.92253 0.18148 0.80953 0.0
H2125 H 0.90789 0.16143 0.8145 0.0
H2126 H 0.88595 0.17722 0.81419 0.0
H2127 H 0.89334 0.1411 0.83803 0.0
H2128 H 0.90241 0.14353 0.82446 0.0
H2129 H 0.8866 0.13322 0.82374 0.0
H2130 H 0.86703 0.16805 0.82341 0.0
H2131 H 0.8668 0.16066 0.83763 0.0
H2132 H 0.85957 0.152 0.82387 0.0
H2133 H 0.80513 0.0792 0.81827 0.0
H2134 H 0.79333 0.05743 0.82085 0.0
H2135 H 0.8073 0.0642 0.82921 0.0
H2136 H 0.80551 0.05597 0.81494 0.0
H2137 H 0.84055 0.08347 0.81752 0.0
H2138 H 0.81791 0.09836 0.81518 0.0
H2139 H 0.86048 0.10288 0.83948 0.0
H2140 H 0.86699 0.11024 0.82519 0.0
H2141 H 0.85999 0.09424 0.82594 0.0
H2142 H 0.82349 0.1174 0.82301 0.0
H2143 H 0.83928 0.12778 0.82243 0.0
H2144 H 0.83258 0.12121 0.83696 0.0
H2145 H 0.86344 0.13415 0.90457 0.0
H2146 H 0.88686 0.16091 0.87229 0.0
H2147 H 0.88695 0.15991 0.84995 0.0
H2148 H 0.86307 0.13054 0.81862 0.0
H2149 H 0.8392 0.1039 0.85094 0.0
H2150 H 0.83939 0.10477 0.87332 0.0
H2151 H 0.93095 0.19824 0.79791 0.0
H2152 H 0.91805 0.19717 0.79458 0.0
H2153 H 0.9216 0.18308 0.77625 0.0
C2154 C 0.82602 0.71556 0.93852 0.0
C2155 C 0.81752 0.71672 0.92947 0.0
C2156 C 0.82658 0.71542 0.90992 0.0
C2157 C 0.83574 0.72737 0.90943 0.0
C2158 C 0.84543 0.73082 0.90148 0.0
C2159 C 0.84607 0.72213 0.89403 0.0
C2160 C 0.8367 0.71014 0.89425 0.0
C2161 C 0.82697 0.70699 0.90205 0.0
C2162 C 0.85513 0.74374 0.90127 0.0
C2163 C 0.83714 0.70061 0.88653 0.0
C2164 C 0.93089 0.74809 0.92376 0.0
C2165 C 0.91972 0.73611 0.92638 0.0
C2166 C 0.9056 0.7304 0.90878 0.0
C2167 C 0.89904 0.72116 0.90021 0.0
C2168 C 0.88969 0.72069 0.89326 0.0
C2169 C 0.88718 0.73002 0.89457 0.0
C2170 C 0.89393 0.73954 0.90309 0.0
C2171 C 0.90298 0.73956 0.91022 0.0
C2172 C 0.88248 0.71018 0.88459 0.0
C2173 C 0.89157 0.74968 0.9047 0.0
C2174 C 0.91439 0.74884 0.81831 0.0
C2175 C 0.90592 0.73678 0.81999 0.0
C2176 C 0.89474 0.73343 0.82498 0.0
C2177 C 0.89205 0.74232 0.82843 0.0
C2178 C 0.90034 0.75442 0.8261 0.0
C2179 C 0.91138 0.7575 0.82092 0.0
C2180 C 0.88595 0.72041 0.82692 0.0
C2181 C 0.89772 0.76411 0.82954 0.0
C2182 C 0.80838 0.73299 0.82069 0.0
C2183 C 0.81453 0.73436 0.80814 0.0
C2184 C 0.8301 0.72986 0.8141 0.0
C2185 C 0.83285 0.72081 0.81429 0.0
C2186 C 0.8428 0.72222 0.82088 0.0
C2187 C 0.85029 0.73307 0.82731 0.0
C2188 C 0.8478 0.74244 0.82684 0.0
C2189 C 0.83769 0.74073 0.82031 0.0
C2190 C 0.84518 0.71204 0.82118 0.0
C2191 C 0.85575 0.75421 0.8334 0.0
C2192 C 0.85695 0.72546 0.88677 0.0
C2193 C 0.86668 0.72629 0.8932 0.0
C2194 C 0.87738 0.72971 0.88717 0.0
C2195 C 0.87849 0.73246 0.87434 0.0
C2196 C 0.88925 0.73632 0.86808 0.0
C2197 C 0.89013 0.73859 0.85536 0.0
C2198 C 0.8803 0.73712 0.84841 0.0
C2199 C 0.88102 0.73905 0.83539 0.0
C2200 C 0.87115 0.73773 0.8288 0.0
C2201 C 0.86048 0.73446 0.83488 0.0
C2202 C 0.85955 0.73237 0.84787 0.0
C2203 C 0.84894 0.729 0.85427 0.0
C2204 C 0.8481 0.7269 0.86704 0.0
C2205 C 0.85778 0.72786 0.87386 0.0
C2206 C 0.86858 0.73133 0.86762 0.0
C2207 C 0.86948 0.73363 0.85463 0.0
C2208 C 0.94431 0.75639 0.8221 0.0
C2209 C 0.93204 0.74697 0.81714 0.0
O2210 O 0.81737 0.71161 0.91797 0.0
O2211 O 0.82005 0.72764 0.8079 0.0
O2212 O 0.92555 0.75241 0.81434 0.0
O2213 O 0.91444 0.73018 0.91527 0.0
H2214 H 0.82046 0.72628 0.92833 0.0
H2215 H 0.83522 0.72033 0.93492 0.0
H2216 H 0.82325 0.70604 0.9397 0.0
H2217 H 0.82612 0.71953 0.94779 0.0
H2218 H 0.83545 0.73406 0.91524 0.0
H2219 H 0.81981 0.69781 0.90242 0.0
H2220 H 0.86322 0.74477 0.90588 0.0
H2221 H 0.85253 0.74962 0.90619 0.0
H2222 H 0.85743 0.74674 0.89149 0.0
H2223 H 0.82938 0.69161 0.88818 0.0
H2224 H 0.8454 0.70049 0.88875 0.0
H2225 H 0.83735 0.7026 0.87646 0.0
H2226 H 0.91343 0.73777 0.93181 0.0
H2227 H 0.93526 0.7527 0.93268 0.0
H2228 H 0.92856 0.75392 0.91851 0.0
H2229 H 0.9373 0.74682 0.91811 0.0
H2230 H 0.90114 0.71415 0.89915 0.0
H2231 H 0.90804 0.74683 0.91675 0.0
H2232 H 0.88467 0.71303 0.87477 0.0
H2233 H 0.87283 0.70671 0.88581 0.0
H2234 H 0.88429 0.70284 0.88618 0.0
H2235 H 0.89878 0.75728 0.91006 0.0
H2236 H 0.88314 0.74649 0.9098 0.0
H2237 H 0.89057 0.75288 0.89547 0.0
H2238 H 0.92778 0.74051 0.82482 0.0
H2239 H 0.90805 0.73 0.8175 0.0
H2240 H 0.91791 0.76676 0.81936 0.0
H2241 H 0.88511 0.71856 0.83706 0.0
H2242 H 0.88871 0.71455 0.82224 0.0
H2243 H 0.87704 0.71812 0.8233 0.0
H2244 H 0.90512 0.7731 0.82716 0.0
H2245 H 0.89604 0.76392 0.83971 0.0
H2246 H 0.88955 0.76252 0.82458 0.0
H2247 H 0.82122 0.74389 0.80669 0.0
H2248 H 0.80383 0.73824 0.82084 0.0
H2249 H 0.81498 0.7363 0.82847 0.0
H2250 H 0.80174 0.72349 0.82233 0.0
H2251 H 0.827 0.71249 0.80941 0.0
H2252 H 0.8358 0.7479 0.82019 0.0
H2253 H 0.84557 0.70962 0.831 0.0
H2254 H 0.85395 0.71484 0.81695 0.0
H2255 H 0.83828 0.70403 0.81604 0.0
H2256 H 0.85324 0.76097 0.83121 0.0
H2257 H 0.86514 0.75771 0.83071 0.0
H2258 H 0.85521 0.75291 0.84365 0.0
H2259 H 0.8659 0.72422 0.90306 0.0
H2260 H 0.8971 0.73758 0.87292 0.0
H2261 H 0.89863 0.74147 0.85105 0.0
H2262 H 0.87176 0.73921 0.81882 0.0
H2263 H 0.84114 0.72796 0.84948 0.0
H2264 H 0.83973 0.72438 0.87148 0.0
H2265 H 0.9497 0.75224 0.82437 0.0
H2266 H 0.94333 0.76059 0.83076 0.0
H2267 H 0.9491 0.76347 0.81513 0.0
C2268 C 0.84671 0.60885 0.40244 0.0
C2269 C 0.85422 0.61664 0.41348 0.0
C2270 C 0.84468 0.61054 0.43355 0.0
C2271 C 0.84754 0.62153 0.43899 0.0
C2272 C 0.84013 0.62228 0.44796 0.0
C2273 C 0.82962 0.61182 0.45147 0.0
C2274 C 0.82703 0.60065 0.44641 0.0
C2275 C 0.83473 0.60015 0.43763 0.0
C2276 C 0.84332 0.63429 0.45338 0.0
C2277 C 0.81588 0.58932 0.44988 0.0
C2278 C 0.77936 0.62346 0.40912 0.0
C2279 C 0.77045 0.62263 0.41896 0.0
C2280 C 0.78248 0.62514 0.43768 0.0
C2281 C 0.78001 0.61333 0.43842 0.0
C2282 C 0.78686 0.61044 0.44611 0.0
C2283 C 0.79649 0.61954 0.45306 0.0
C2284 C 0.79886 0.63139 0.45253 0.0
C2285 C 0.79167 0.63398 0.44499 0.0
C2286 C 0.78396 0.59766 0.44662 0.0
C2287 C 0.80918 0.64136 0.45964 0.0
C2288 C 0.77476 0.61245 0.53355 0.0
C2289 C 0.77142 0.60186 0.52681 0.0
C2290 C 0.77987 0.60041 0.52015 0.0
C2291 C 0.79183 0.60983 0.52001 0.0
C2292 C 0.79524 0.6204 0.52696 0.0
C2293 C 0.78667 0.6215 0.53374 0.0
C2294 C 0.77598 0.58888 0.51312 0.0
C2295 C 0.80791 0.63062 0.52703 0.0
C2296 C 0.86056 0.58385 0.52701 0.0
C2297 C 0.858 0.59375 0.5305 0.0
C2298 C 0.83895 0.59286 0.52855 0.0
C2299 C 0.82707 0.58465 0.52575 0.0
C2300 C 0.81962 0.58829 0.52041 0.0
C2301 C 0.82414 0.60052 0.51815 0.0
C2302 C 0.83596 0.60897 0.52174 0.0
C2303 C 0.84328 0.60504 0.52682 0.0
C2304 C 0.80703 0.57904 0.51684 0.0
C2305 C 0.84092 0.62212 0.51996 0.0
C2306 C 0.8208 0.61273 0.4594 0.0
C2307 C 0.81313 0.61572 0.45352 0.0
C2308 C 0.80452 0.61674 0.4602 0.0
C2309 C 0.80353 0.61483 0.47321 0.0
C2310 C 0.79501 0.61585 0.48024 0.0
C2311 C 0.79417 0.61403 0.49305 0.0
C2312 C 0.80164 0.61086 0.4993 0.0
C2313 C 0.8007 0.60877 0.51229 0.0
C2314 C 0.80822 0.60556 0.51817 0.0
C2315 C 0.81671 0.60436 0.51143 0.0
C2316 C 0.81784 0.60648 0.49844 0.0
C2317 C 0.8263 0.60536 0.49135 0.0
C2318 C 0.82739 0.60755 0.4786 0.0
C2319 C 0.8199 0.61068 0.47239 0.0
C2320 C 0.81125 0.61177 0.47932 0.0
C2321 C 0.81026 0.60973 0.49237 0.0
C2322 C 0.75072 0.61072 0.52634 0.0
C2323 C 0.75458 0.60808 0.53886 0.0
O2324 O 0.85121 0.60981 0.42414 0.0
O2325 O 0.84597 0.58872 0.53279 0.0
O2326 O 0.76687 0.61437 0.53994 0.0
O2327 O 0.7764 0.6284 0.42992 0.0
H2328 H 0.85206 0.62386 0.41453 0.0
H2329 H 0.83716 0.60549 0.40425 0.0
H2330 H 0.84793 0.60108 0.40104 0.0
H2331 H 0.84918 0.61412 0.39375 0.0
H2332 H 0.85548 0.62953 0.43608 0.0
H2333 H 0.83272 0.5917 0.43346 0.0
H2334 H 0.83702 0.63692 0.44973 0.0
H2335 H 0.85249 0.6413 0.45096 0.0
H2336 H 0.84251 0.63384 0.4637 0.0
H2337 H 0.81507 0.58138 0.44496 0.0
H2338 H 0.80797 0.59003 0.44757 0.0
H2339 H 0.81583 0.58799 0.4601 0.0
H2340 H 0.764 0.61312 0.42083 0.0
H2341 H 0.77469 0.61893 0.40028 0.0
H2342 H 0.78423 0.61907 0.41244 0.0
H2343 H 0.78591 0.63293 0.40718 0.0
H2344 H 0.77279 0.60633 0.43301 0.0
H2345 H 0.79347 0.64304 0.44442 0.0
H2346 H 0.79104 0.5968 0.44189 0.0
H2347 H 0.77532 0.59144 0.44199 0.0
H2348 H 0.78366 0.59497 0.45647 0.0
H2349 H 0.81023 0.65019 0.45767 0.0
H2350 H 0.81754 0.64157 0.45717 0.0
H2351 H 0.80787 0.63978 0.46981 0.0
H2352 H 0.75122 0.59837 0.53948 0.0
H2353 H 0.76228 0.59468 0.52666 0.0
H2354 H 0.78918 0.6296 0.53903 0.0
H2355 H 0.77645 0.59047 0.50293 0.0
H2356 H 0.76675 0.58192 0.51539 0.0
H2357 H 0.78204 0.58548 0.51531 0.0
H2358 H 0.80901 0.63847 0.5324 0.0
H2359 H 0.81089 0.63333 0.51731 0.0
H2360 H 0.8138 0.62772 0.53123 0.0
H2361 H 0.86054 0.59965 0.52225 0.0
H2362 H 0.87017 0.58767 0.52511 0.0
H2363 H 0.85544 0.57907 0.51845 0.0
H2364 H 0.85794 0.57732 0.53465 0.0
H2365 H 0.82377 0.57529 0.52732 0.0
H2366 H 0.85238 0.61148 0.5294 0.0
H2367 H 0.80545 0.5797 0.50677 0.0
H2368 H 0.80073 0.58071 0.52218 0.0
H2369 H 0.80504 0.56984 0.51871 0.0
H2370 H 0.84963 0.6276 0.52479 0.0
H2371 H 0.83461 0.62478 0.52351 0.0
H2372 H 0.84213 0.6241 0.50985 0.0
H2373 H 0.81383 0.61721 0.44353 0.0
H2374 H 0.78894 0.61813 0.47592 0.0
H2375 H 0.78752 0.61506 0.49799 0.0
H2376 H 0.8074 0.6039 0.52812 0.0
H2377 H 0.83222 0.60283 0.49558 0.0
H2378 H 0.83412 0.60665 0.47365 0.0
H2379 H 0.75405 0.6204 0.52557 0.0
H2380 H 0.74087 0.60576 0.52546 0.0
H2381 H 0.75427 0.60791 0.51845 0.0
C2382 C 0.4055 0.25226 0.40539 0.0
C2383 C 0.39482 0.24542 0.41389 0.0
C2384 C 0.39605 0.23867 0.43451 0.0
C2385 C 0.38437 0.22927 0.43594 0.0
C2386 C 0.3818 0.22002 0.4442 0.0
C2387 C 0.39118 0.22003 0.45091 0.0
C2388 C 0.40298 0.2296 0.44953 0.0
C2389 C 0.40519 0.23897 0.44158 0.0
C2390 C 0.36909 0.21013 0.44556 0.0
C2391 C 0.41334 0.22984 0.45614 0.0
C2392 C 0.37825 0.13157 0.42507 0.0
C2393 C 0.38401 0.14401 0.43003 0.0
C2394 C 0.37854 0.15806 0.43855 0.0
C2395 C 0.39005 0.16649 0.44276 0.0
C2396 C 0.39217 0.17675 0.44939 0.0
C2397 C 0.38258 0.17856 0.45199 0.0
C2398 C 0.371 0.17013 0.44773 0.0
C2399 C 0.36915 0.16001 0.44101 0.0
C2400 C 0.40466 0.18566 0.45366 0.0
C2401 C 0.36058 0.17178 0.45037 0.0
C2402 C 0.38597 0.16269 0.53236 0.0
C2403 C 0.39676 0.17101 0.52687 0.0
C2404 C 0.39775 0.18082 0.52049 0.0
C2405 C 0.38776 0.18228 0.51948 0.0
C2406 C 0.37698 0.17407 0.52522 0.0
C2407 C 0.37627 0.16442 0.53165 0.0
C2408 C 0.40945 0.18953 0.51466 0.0
C2409 C 0.36616 0.17537 0.52433 0.0
C2410 C 0.40701 0.27486 0.52662 0.0
C2411 C 0.39883 0.26281 0.53256 0.0
C2412 C 0.40159 0.24573 0.52953 0.0
C2413 C 0.41041 0.24323 0.52611 0.0
C2414 C 0.40748 0.23225 0.52056 0.0
C2415 C 0.3954 0.22353 0.51858 0.0
C2416 C 0.3864 0.22574 0.52271 0.0
C2417 C 0.38959 0.23683 0.52818 0.0
C2418 C 0.41729 0.2301 0.51648 0.0
C2419 C 0.37344 0.21648 0.52105 0.0
C2420 C 0.38876 0.20969 0.45872 0.0
C2421 C 0.38653 0.19922 0.45256 0.0
C2422 C 0.38467 0.18927 0.4592 0.0
C2423 C 0.38516 0.18975 0.4724 0.0
C2424 C 0.38344 0.17994 0.47937 0.0
C2425 C 0.38439 0.18064 0.49233 0.0
C2426 C 0.38705 0.19117 0.49883 0.0
C2427 C 0.38846 0.19211 0.51197 0.0
C2428 C 0.39099 0.20267 0.51816 0.0
C2429 C 0.39221 0.2124 0.51154 0.0
C2430 C 0.39089 0.21165 0.49839 0.0
C2431 C 0.39206 0.22127 0.49144 0.0
C2432 C 0.3911 0.22057 0.47847 0.0
C2433 C 0.38912 0.21029 0.47193 0.0
C2434 C 0.38752 0.20034 0.47877 0.0
C2435 C 0.38842 0.20103 0.49201 0.0
C2436 C 0.39193 0.14267 0.5259 0.0
C2437 C 0.3921 0.14839 0.53856 0.0
O2438 O 0.39874 0.24741 0.42621 0.0
O2439 O 0.40499 0.25681 0.53402 0.0
O2440 O 0.38445 0.15285 0.53831 0.0
O2441 O 0.3761 0.14797 0.43218 0.0
H2442 H 0.39081 0.2358 0.41135 0.0
H2443 H 0.41192 0.24914 0.4068 0.0
H2444 H 0.41009 0.26196 0.40754 0.0
H2445 H 0.40261 0.2507 0.39544 0.0
H2446 H 0.37727 0.22921 0.43059 0.0
H2447 H 0.41417 0.24633 0.44041 0.0
H2448 H 0.3678 0.20206 0.4405 0.0
H2449 H 0.36271 0.21255 0.44166 0.0
H2450 H 0.36699 0.20784 0.45554 0.0
H2451 H 0.422 0.23663 0.45225 0.0
H2452 H 0.41265 0.221 0.45545 0.0
H2453 H 0.41327 0.23199 0.46618 0.0
H2454 H 0.3921 0.15056 0.42493 0.0
H2455 H 0.38201 0.13235 0.41546 0.0
H2456 H 0.36915 0.12923 0.42158 0.0
H2457 H 0.38086 0.1223 0.43938 0.0
H2458 H 0.39742 0.16513 0.4409 0.0
H2459 H 0.36031 0.15348 0.43772 0.0
H2460 H 0.40716 0.19468 0.45039 0.0
H2461 H 0.41127 0.18337 0.45016 0.0
H2462 H 0.4051 0.18604 0.46401 0.0
H2463 H 0.35204 0.16414 0.44691 0.0
H2464 H 0.36197 0.18 0.44583 0.0
H2465 H 0.35993 0.17292 0.46058 0.0
H2466 H 0.40128 0.15571 0.54079 0.0
H2467 H 0.40442 0.16992 0.52742 0.0
H2468 H 0.36802 0.15801 0.53597 0.0
H2469 H 0.40845 0.18891 0.50434 0.0
H2470 H 0.41668 0.18781 0.51728 0.0
H2471 H 0.4121 0.19877 0.51755 0.0
H2472 H 0.35837 0.1681 0.5291 0.0
H2473 H 0.3638 0.17541 0.51436 0.0
H2474 H 0.36818 0.18402 0.52858 0.0
H2475 H 0.39123 0.25795 0.52591 0.0
H2476 H 0.40231 0.27992 0.52556 0.0
H2477 H 0.4097 0.27346 0.51722 0.0
H2478 H 0.41517 0.28023 0.53238 0.0
H2479 H 0.41964 0.25008 0.52742 0.0
H2480 H 0.3827 0.23851 0.53136 0.0
H2481 H 0.4168 0.22867 0.5062 0.0
H2482 H 0.41614 0.2219 0.52084 0.0
H2483 H 0.42625 0.23765 0.51901 0.0
H2484 H 0.36751 0.2193 0.52539 0.0
H2485 H 0.37163 0.20798 0.52523 0.0
H2486 H 0.37123 0.21475 0.51094 0.0
H2487 H 0.38638 0.19885 0.44243 0.0
H2488 H 0.38146 0.17163 0.47487 0.0
H2489 H 0.38307 0.17283 0.49718 0.0
H2490 H 0.39218 0.20338 0.52822 0.0
H2491 H 0.39378 0.22949 0.49594 0.0
H2492 H 0.39208 0.22824 0.47362 0.0
H2493 H 0.39792 0.13894 0.52617 0.0
H2494 H 0.39503 0.14937 0.51842 0.0
H2495 H 0.38278 0.13541 0.52348 0.0
C2496 C 0.84617 0.23417 0.40741 0.0
C2497 C 0.85429 0.2383 0.41901 0.0
C2498 C 0.84231 0.22247 0.43392 0.0
C2499 C 0.83376 0.22581 0.43611 0.0
C2500 C 0.82387 0.21888 0.44359 0.0
C2501 C 0.8225 0.20844 0.44906 0.0
C2502 C 0.83119 0.20517 0.44709 0.0
C2503 C 0.84099 0.21226 0.43956 0.0
C2504 C 0.81477 0.22262 0.44556 0.0
C2505 C 0.83002 0.19413 0.45283 0.0
C2506 C 0.73522 0.145 0.42787 0.0
C2507 C 0.74539 0.14361 0.4227 0.0
C2508 C 0.76231 0.15429 0.43739 0.0
C2509 C 0.76981 0.15267 0.4454 0.0
C2510 C 0.77956 0.16238 0.4513 0.0
C2511 C 0.78159 0.174 0.44948 0.0
C2512 C 0.77411 0.17575 0.44128 0.0
C2513 C 0.76461 0.16588 0.43518 0.0
C2514 C 0.78758 0.16014 0.45959 0.0
C2515 C 0.77602 0.18802 0.43912 0.0
C2516 C 0.7564 0.16704 0.52726 0.0
C2517 C 0.76422 0.16306 0.52402 0.0
C2518 C 0.77514 0.17075 0.51841 0.0
C2519 C 0.77816 0.18259 0.5158 0.0
C2520 C 0.7705 0.18674 0.51957 0.0
C2521 C 0.75977 0.17893 0.52543 0.0
C2522 C 0.78332 0.16615 0.51504 0.0
C2523 C 0.77347 0.19932 0.51707 0.0
C2524 C 0.86355 0.25613 0.52424 0.0
C2525 C 0.85734 0.25083 0.5366 0.0
C2526 C 0.84106 0.23107 0.52961 0.0
C2527 C 0.83775 0.21909 0.5286 0.0
C2528 C 0.8275 0.21089 0.52195 0.0
C2529 C 0.82028 0.2148 0.51632 0.0
C2530 C 0.82337 0.22685 0.5176 0.0
C2531 C 0.83379 0.23491 0.52416 0.0
C2532 C 0.82448 0.1981 0.52078 0.0
C2533 C 0.81573 0.23123 0.51189 0.0
C2534 C 0.81177 0.20075 0.45647 0.0
C2535 C 0.80189 0.19161 0.45017 0.0
C2536 C 0.79136 0.18422 0.45646 0.0
C2537 C 0.79053 0.18612 0.46935 0.0
C2538 C 0.77987 0.17927 0.47582 0.0
C2539 C 0.77929 0.1808 0.48861 0.0
C2540 C 0.78936 0.18919 0.49546 0.0
C2541 C 0.78901 0.1904 0.50857 0.0
C2542 C 0.79915 0.19893 0.51506 0.0
C2543 C 0.80972 0.20631 0.5088 0.0
C2544 C 0.81026 0.20517 0.4957 0.0
C2545 C 0.82077 0.21239 0.48911 0.0
C2546 C 0.82126 0.21108 0.47624 0.0
C2547 C 0.8113 0.20238 0.46949 0.0
C2548 C 0.80062 0.19505 0.47594 0.0
C2549 C 0.80006 0.19651 0.48903 0.0
C2550 C 0.72577 0.14563 0.52571 0.0
C2551 C 0.73818 0.14778 0.52867 0.0
O2552 O 0.85184 0.22866 0.4264 0.0
O2553 O 0.85134 0.23851 0.53585 0.0
O2554 O 0.74553 0.15964 0.53208 0.0
O2555 O 0.75291 0.14438 0.43228 0.0
H2556 H 0.8529 0.2448 0.42448 0.0
H2557 H 0.83671 0.23004 0.4101 0.0
H2558 H 0.84726 0.2275 0.40191 0.0
H2559 H 0.84831 0.24187 0.40139 0.0
H2560 H 0.83464 0.23372 0.43196 0.0
H2561 H 0.84764 0.20977 0.43789 0.0
H2562 H 0.80599 0.21555 0.44193 0.0
H2563 H 0.81719 0.23108 0.44084 0.0
H2564 H 0.81381 0.22375 0.4557 0.0
H2565 H 0.8377 0.19297 0.45068 0.0
H2566 H 0.82177 0.18617 0.44932 0.0
H2567 H 0.82928 0.19456 0.46313 0.0
H2568 H 0.75042 0.15071 0.4158 0.0
H2569 H 0.72905 0.14408 0.42019 0.0
H2570 H 0.73871 0.15391 0.43232 0.0
H2571 H 0.73017 0.13818 0.43499 0.0
H2572 H 0.76801 0.14371 0.44698 0.0
H2573 H 0.75894 0.16729 0.42894 0.0
H2574 H 0.7858 0.16114 0.46951 0.0
H2575 H 0.79706 0.16671 0.4578 0.0
H2576 H 0.78614 0.15103 0.45816 0.0
H2577 H 0.7688 0.18778 0.43338 0.0
H2578 H 0.78458 0.19349 0.43428 0.0
H2579 H 0.77659 0.1925 0.4482 0.0
H2580 H 0.74138 0.14566 0.51991 0.0
H2581 H 0.7618 0.15395 0.52585 0.0
H2582 H 0.75373 0.18194 0.52817 0.0
H2583 H 0.7832 0.16491 0.50476 0.0
H2584 H 0.78063 0.1575 0.51947 0.0
H2585 H 0.7926 0.17269 0.51793 0.0
H2586 H 0.76629 0.20099 0.52004 0.0
H2587 H 0.77506 0.20116 0.50695 0.0
H2588 H 0.78178 0.20568 0.52215 0.0
H2589 H 0.85099 0.25391 0.53876 0.0
H2590 H 0.86844 0.26601 0.52485 0.0
H2591 H 0.85694 0.25331 0.51651 0.0
H2592 H 0.86991 0.2531 0.52196 0.0
H2593 H 0.84338 0.21621 0.53288 0.0
H2594 H 0.83615 0.24414 0.52493 0.0
H2595 H 0.82366 0.19544 0.51077 0.0
H2596 H 0.81576 0.19222 0.52517 0.0
H2597 H 0.83127 0.1966 0.5253 0.0
H2598 H 0.81879 0.24062 0.51458 0.0
H2599 H 0.80637 0.22554 0.51482 0.0
H2600 H 0.81591 0.23057 0.50156 0.0
H2601 H 0.80245 0.19016 0.44026 0.0
H2602 H 0.77186 0.1726 0.47107 0.0
H2603 H 0.77085 0.17523 0.49308 0.0
H2604 H 0.79886 0.19975 0.52513 0.0
H2605 H 0.82876 0.21912 0.49383 0.0
H2606 H 0.82958 0.21687 0.47167 0.0
H2607 H 0.71972 0.13618 0.52286 0.0
H2608 H 0.72625 0.15137 0.5179 0.0
H2609 H 0.72202 0.14777 0.53397 0.0
C2610 C 0.02798 0.48395 0.27362 0.0
C2611 C 0.02013 0.47485 0.26358 0.0
C2612 C 0.01922 0.48191 0.24285 0.0
C2613 C 0.00693 0.47497 0.2406 0.0
C2614 C 0.00137 0.47841 0.23171 0.0
C2615 C 0.00826 0.48896 0.22494 0.0
C2616 C 0.02072 0.49563 0.22677 0.0
C2617 C 0.02606 0.49192 0.23562 0.0
C2618 C 0.9881 0.47094 0.22975 0.0
C2619 C 0.02834 0.50689 0.21965 0.0
C2620 C 0.96065 0.53107 0.24376 0.0
C2621 C 0.97317 0.53488 0.24854 0.0
C2622 C 0.98327 0.52888 0.23323 0.0
C2623 C 0.99346 0.53344 0.22597 0.0
C2624 C 0.99681 0.5259 0.22017 0.0
C2625 C 0.9895 0.51342 0.22132 0.0
C2626 C 0.97907 0.50871 0.22856 0.0
C2627 C 0.9761 0.5165 0.23454 0.0
C2628 C 0.0082 0.53132 0.21285 0.0
C2629 C 0.97103 0.49546 0.2299 0.0
C2630 C 0.97473 0.51623 0.14233 0.0
C2631 C 0.98657 0.52243 0.14648 0.0
C2632 C 0.99158 0.51645 0.15244 0.0
C2633 C 0.98448 0.50406 0.15446 0.0
C2634 C 0.97272 0.4977 0.14967 0.0
C2635 C 0.96804 0.50388 0.14348 0.0
C2636 C 0.00431 0.52346 0.15695 0.0
C2637 C 0.96495 0.48448 0.15154 0.0
C2638 C 0.02763 0.44917 0.15087 0.0
C2639 C 0.01614 0.44901 0.14759 0.0
C2640 C 0.01343 0.46628 0.14819 0.0
C2641 C 0.02002 0.4787 0.14868 0.0
C2642 C 0.01512 0.48531 0.15352 0.0
C2643 C 0.00326 0.4793 0.15774 0.0
C2644 C 0.99631 0.46675 0.15655 0.0
C2645 C 0.00147 0.46035 0.15178 0.0
C2646 C 0.02274 0.49869 0.15452 0.0
C2647 C 0.98353 0.46011 0.16062 0.0
C2648 C 0.00234 0.49347 0.21666 0.0
C2649 C 0.99827 0.50052 0.22213 0.0
C2650 C 0.99283 0.50535 0.21498 0.0
C2651 C 0.99126 0.50302 0.20198 0.0
C2652 C 0.98555 0.50749 0.19456 0.0
C2653 C 0.98463 0.5057 0.18169 0.0
C2654 C 0.98936 0.49935 0.17573 0.0
C2655 C 0.98902 0.49803 0.16258 0.0
C2656 C 0.99347 0.49135 0.15698 0.0
C2657 C 0.99843 0.48605 0.1642 0.0
C2658 C 0.99914 0.48755 0.17735 0.0
C2659 C 0.00434 0.4826 0.18488 0.0
C2660 C 0.00527 0.48438 0.19777 0.0
C2661 C 0.00109 0.49125 0.20362 0.0
C2662 C 0.9956 0.49612 0.19625 0.0
C2663 C 0.99463 0.49428 0.18311 0.0
C2664 C 0.95722 0.52741 0.14843 0.0
C2665 C 0.9695 0.53161 0.14296 0.0
O2666 O 0.02473 0.47924 0.25193 0.0
O2667 O 0.01895 0.46038 0.14424 0.0
O2668 O 0.96955 0.522 0.1373 0.0
O2669 O 0.98065 0.53676 0.23859 0.0
H2670 H 0.01113 0.47368 0.26465 0.0
H2671 H 0.02798 0.49239 0.27233 0.0
H2672 H 0.03729 0.48588 0.27302 0.0
H2673 H 0.02452 0.48056 0.28307 0.0
H2674 H 0.00168 0.46689 0.24578 0.0
H2675 H 0.03556 0.49708 0.23729 0.0
H2676 H 0.98387 0.47604 0.23292 0.0
H2677 H 0.98415 0.46247 0.23494 0.0
H2678 H 0.98601 0.46886 0.21965 0.0
H2679 H 0.03791 0.51105 0.22213 0.0
H2680 H 0.02544 0.51341 0.22161 0.0
H2681 H 0.02722 0.5049 0.20946 0.0
H2682 H 0.97269 0.52777 0.2546 0.0
H2683 H 0.95471 0.52974 0.25174 0.0
H2684 H 0.95688 0.52256 0.2384 0.0
H2685 H 0.96082 0.53791 0.23753 0.0
H2686 H 0.9989 0.543 0.225 0.0
H2687 H 0.96811 0.51283 0.24003 0.0
H2688 H 0.00606 0.52971 0.20273 0.0
H2689 H 0.01348 0.52711 0.21535 0.0
H2690 H 0.01375 0.54108 0.21453 0.0
H2691 H 0.96263 0.49317 0.23471 0.0
H2692 H 0.97571 0.49185 0.23536 0.0
H2693 H 0.96885 0.49099 0.22057 0.0
H2694 H 0.97603 0.53529 0.15086 0.0
H2695 H 0.99185 0.53195 0.14515 0.0
H2696 H 0.95896 0.49918 0.14002 0.0
H2697 H 0.00451 0.52463 0.16725 0.0
H2698 H 0.00919 0.53241 0.15272 0.0
H2699 H 0.00903 0.51858 0.15473 0.0
H2700 H 0.95593 0.48089 0.14743 0.0
H2701 H 0.96411 0.48255 0.16167 0.0
H2702 H 0.96914 0.47975 0.14719 0.0
H2703 H 0.01064 0.44623 0.15617 0.0
H2704 H 0.02565 0.44019 0.15376 0.0
H2705 H 0.03224 0.45552 0.15875 0.0
H2706 H 0.03368 0.45199 0.14274 0.0
H2707 H 0.02917 0.48319 0.14567 0.0
H2708 H 0.99617 0.45075 0.15093 0.0
H2709 H 0.02359 0.50157 0.16446 0.0
H2710 H 0.01843 0.50286 0.14938 0.0
H2711 H 0.03178 0.50203 0.15072 0.0
H2712 H 0.979 0.4505 0.15804 0.0
H2713 H 0.97859 0.46407 0.15633 0.0
H2714 H 0.98315 0.46097 0.17091 0.0
H2715 H 0.99952 0.50243 0.2321 0.0
H2716 H 0.98182 0.51252 0.1986 0.0
H2717 H 0.98022 0.50945 0.17646 0.0
H2718 H 0.99322 0.4904 0.14689 0.0
H2719 H 0.00785 0.47735 0.18088 0.0
H2720 H 0.00941 0.48042 0.20308 0.0
H2721 H 0.95027 0.52359 0.14098 0.0
H2722 H 0.957 0.53495 0.15311 0.0
H2723 H 0.95516 0.52045 0.15546 0.0
C2724 C 0.4886 0.42752 0.27739 0.0
C2725 C 0.48119 0.42944 0.26761 0.0
C2726 C 0.48902 0.43347 0.24668 0.0
C2727 C 0.48619 0.44197 0.2428 0.0
C2728 C 0.49309 0.45041 0.23385 0.0
C2729 C 0.50312 0.45041 0.22886 0.0
C2730 C 0.50571 0.44153 0.23245 0.0
C2731 C 0.49845 0.43301 0.24116 0.0
C2732 C 0.48988 0.45953 0.23002 0.0
C2733 C 0.51643 0.44134 0.22752 0.0
C2734 C 0.57242 0.53611 0.26357 0.0
C2735 C 0.56554 0.52378 0.25838 0.0
C2736 C 0.55106 0.51246 0.24186 0.0
C2737 C 0.5529 0.50272 0.24193 0.0
C2738 C 0.54568 0.49245 0.23471 0.0
C2739 C 0.53626 0.4918 0.2275 0.0
C2740 C 0.53434 0.50156 0.22747 0.0
C2741 C 0.54191 0.51184 0.23451 0.0
C2742 C 0.54808 0.48227 0.23485 0.0
C2743 C 0.5242 0.50107 0.22015 0.0
C2744 C 0.56059 0.50501 0.14894 0.0
C2745 C 0.56193 0.49565 0.15341 0.0
C2746 C 0.55255 0.48592 0.15938 0.0
C2747 C 0.54157 0.48548 0.16083 0.0
C2748 C 0.54005 0.49466 0.15595 0.0
C2749 C 0.5496 0.50432 0.15009 0.0
C2750 C 0.55444 0.47624 0.16444 0.0
C2751 C 0.52842 0.49441 0.15725 0.0
C2752 C 0.4668 0.39256 0.15493 0.0
C2753 C 0.47084 0.40464 0.14903 0.0
C2754 C 0.49086 0.42182 0.15156 0.0
C2755 C 0.50224 0.42451 0.15518 0.0
C2756 C 0.51038 0.43568 0.1604 0.0
C2757 C 0.50706 0.44442 0.16179 0.0
C2758 C 0.49582 0.44202 0.15738 0.0
C2759 C 0.48782 0.43072 0.15229 0.0
C2760 C 0.52237 0.43801 0.16481 0.0
C2761 C 0.49216 0.45127 0.15837 0.0
C2762 C 0.51155 0.46037 0.22092 0.0
C2763 C 0.51944 0.47113 0.22694 0.0
C2764 C 0.52817 0.48073 0.22034 0.0
C2765 C 0.52919 0.47961 0.20733 0.0
C2766 C 0.53817 0.48893 0.20047 0.0
C2767 C 0.53908 0.48775 0.18767 0.0
C2768 C 0.53107 0.47718 0.18122 0.0
C2769 C 0.53199 0.47586 0.16821 0.0
C2770 C 0.52396 0.4652 0.16209 0.0
C2771 C 0.51501 0.4557 0.16867 0.0
C2772 C 0.51392 0.45686 0.18169 0.0
C2773 C 0.50503 0.44747 0.1886 0.0
C2774 C 0.50414 0.44864 0.20142 0.0
C2775 C 0.51216 0.45919 0.20785 0.0
C2776 C 0.52109 0.46883 0.20105 0.0
C2777 C 0.52199 0.46764 0.18796 0.0
C2778 C 0.5881 0.52207 0.15471 0.0
C2779 C 0.58131 0.5178 0.14223 0.0
O2780 O 0.48299 0.42586 0.25598 0.0
O2781 O 0.48305 0.41056 0.14753 0.0
O2782 O 0.5696 0.51491 0.14366 0.0
O2783 O 0.55786 0.52254 0.24875 0.0
H2784 H 0.48434 0.43915 0.26777 0.0
H2785 H 0.49818 0.43298 0.27511 0.0
H2786 H 0.48615 0.41802 0.27759 0.0
H2787 H 0.48724 0.43029 0.2868 0.0
H2788 H 0.47866 0.44206 0.24689 0.0
H2789 H 0.50045 0.4263 0.24418 0.0
H2790 H 0.49636 0.46831 0.23424 0.0
H2791 H 0.48084 0.45716 0.23312 0.0
H2792 H 0.49033 0.46049 0.21972 0.0
H2793 H 0.51774 0.43446 0.23205 0.0
H2794 H 0.52456 0.45017 0.22904 0.0
H2795 H 0.51538 0.43949 0.21731 0.0
H2796 H 0.56126 0.51663 0.26544 0.0
H2797 H 0.59005 0.5414 0.25924 0.0
H2798 H 0.56926 0.53544 0.27345 0.0
H2799 H 0.56791 0.541 0.26016 0.0
H2800 H 0.56 0.50309 0.24753 0.0
H2801 H 0.54057 0.5194 0.23451 0.0
H2802 H 0.5483 0.47926 0.22516 0.0
H2803 H 0.54078 0.47464 0.23978 0.0
H2804 H 0.5566 0.48474 0.23963 0.0
H2805 H 0.52319 0.5089 0.22213 0.0
H2806 H 0.51575 0.49285 0.22236 0.0
H2807 H 0.52576 0.50078 0.21001 0.0
H2808 H 0.58158 0.50985 0.13879 0.0
H2809 H 0.5703 0.4959 0.15248 0.0
H2810 H 0.5486 0.51152 0.14655 0.0
H2811 H 0.55313 0.47568 0.1747 0.0
H2812 H 0.56346 0.47781 0.16246 0.0
H2813 H 0.54776 0.46752 0.16027 0.0
H2814 H 0.52839 0.50178 0.15219 0.0
H2815 H 0.52673 0.49515 0.16728 0.0
H2816 H 0.52101 0.4858 0.15362 0.0
H2817 H 0.46829 0.40955 0.15574 0.0
H2818 H 0.45699 0.38757 0.15605 0.0
H2819 H 0.47099 0.39391 0.16431 0.0
H2820 H 0.4694 0.38715 0.14912 0.0
H2821 H 0.50458 0.41765 0.15434 0.0
H2822 H 0.47919 0.42886 0.14898 0.0
H2823 H 0.52343 0.44009 0.17499 0.0
H2824 H 0.52949 0.44588 0.16 0.0
H2825 H 0.52361 0.43029 0.16302 0.0
H2826 H 0.48358 0.44842 0.15351 0.0
H2827 H 0.49912 0.45977 0.15434 0.0
H2828 H 0.49128 0.45303 0.16836 0.0
H2829 H 0.51888 0.47199 0.23698 0.0
H2830 H 0.54461 0.49725 0.20494 0.0
H2831 H 0.54619 0.49524 0.1829 0.0
H2832 H 0.52479 0.46422 0.15214 0.0
H2833 H 0.49866 0.43909 0.18418 0.0
H2834 H 0.49712 0.44114 0.20626 0.0
H2835 H 0.59756 0.52474 0.15341 0.0
H2836 H 0.58428 0.51486 0.16165 0.0
H2837 H 0.58765 0.52978 0.15858 0.0
C2838 C 0.4527 0.96973 0.27205 0.0
C2839 C 0.45325 0.98 0.26475 0.0
C2840 C 0.46194 0.98295 0.24419 0.0
C2841 C 0.46871 0.99539 0.24366 0.0
C2842 C 0.47859 0.00097 0.23583 0.0
C2843 C 0.48181 0.99393 0.22853 0.0
C2844 C 0.47477 0.98135 0.22883 0.0
C2845 C 0.46475 0.97603 0.2365 0.0
C2846 C 0.48571 0.01439 0.23552 0.0
C2847 C 0.47802 0.97351 0.22139 0.0
C2848 C 0.54989 0.02636 0.27974 0.0
C2849 C 0.54876 0.01797 0.269 0.0
C2850 C 0.5432 0.02029 0.24807 0.0
C2851 C 0.53678 0.00832 0.24419 0.0
C2852 C 0.52789 0.0045 0.23496 0.0
C2853 C 0.5253 0.01284 0.22964 0.0
C2854 C 0.53221 0.02503 0.23309 0.0
C2855 C 0.54125 0.02863 0.24213 0.0
C2856 C 0.52095 0.99149 0.23126 0.0
C2857 C 0.52965 0.03416 0.22771 0.0
C2858 C 0.54806 0.02376 0.14943 0.0
C2859 C 0.54155 0.01189 0.15323 0.0
C2860 C 0.53065 0.0076 0.15931 0.0
C2861 C 0.52628 0.0154 0.16173 0.0
C2862 C 0.53267 0.02726 0.15752 0.0
C2863 C 0.54343 0.03124 0.15125 0.0
C2864 C 0.52385 0.99477 0.16323 0.0
C2865 C 0.52824 0.03578 0.15984 0.0
C2866 C 0.43057 0.97989 0.15447 0.0
C2867 C 0.44126 0.99066 0.14874 0.0
C2868 C 0.46054 0.9918 0.14999 0.0
C2869 C 0.46495 0.98407 0.15107 0.0
C2870 C 0.47602 0.98783 0.15674 0.0
C2871 C 0.4829 0.9997 0.16122 0.0
C2872 C 0.47882 0.00779 0.15943 0.0
C2873 C 0.46767 0.00375 0.1538 0.0
C2874 C 0.48017 0.97903 0.15836 0.0
C2875 C 0.48612 0.02059 0.16378 0.0
C2876 C 0.49298 0.99966 0.22129 0.0
C2877 C 0.50362 0.00368 0.22788 0.0
C2878 C 0.51449 0.00859 0.22175 0.0
C2879 C 0.5148 0.00935 0.20859 0.0
C2880 C 0.52551 0.0138 0.20206 0.0
C2881 C 0.52569 0.0145 0.1891 0.0
C2882 C 0.51516 0.01072 0.18216 0.0
C2883 C 0.51522 0.01123 0.16896 0.0
C2884 C 0.50462 0.00762 0.16239 0.0
C2885 C 0.49387 0.00339 0.16866 0.0
C2886 C 0.4936 0.0026 0.18182 0.0
C2887 C 0.48289 0.99817 0.18838 0.0
C2888 C 0.48268 0.99729 0.20131 0.0
C2889 C 0.49315 0.00078 0.20818 0.0
C2890 C 0.50408 0.0055 0.20179 0.0
C2891 C 0.50429 0.00629 0.18858 0.0
C2892 C 0.57645 0.03824 0.15601 0.0
C2893 C 0.56812 0.02709 0.14829 0.0
O2894 O 0.45268 0.97742 0.25208 0.0
O2895 O 0.44946 0.98744 0.14514 0.0
O2896 O 0.55872 0.02814 0.14377 0.0
O2897 O 0.55098 0.02394 0.25782 0.0
H2898 H 0.46185 0.98815 0.26725 0.0
H2899 H 0.46026 0.96854 0.26943 0.0
H2900 H 0.44427 0.96129 0.26995 0.0
H2901 H 0.4533 0.97165 0.28225 0.0
H2902 H 0.46626 0.00071 0.24939 0.0
H2903 H 0.45935 0.96642 0.23692 0.0
H2904 H 0.4944 0.0176 0.24029 0.0
H2905 H 0.48108 0.01851 0.24025 0.0
H2906 H 0.48752 0.01744 0.22572 0.0
H2907 H 0.47233 0.96395 0.22367 0.0
H2908 H 0.48745 0.97622 0.22319 0.0
H2909 H 0.47703 0.97456 0.21128 0.0
H2910 H 0.53941 0.0104 0.26924 0.0
H2911 H 0.54839 0.02182 0.28883 0.0
H2912 H 0.5431 0.02903 0.27857 0.0
H2913 H 0.5588 0.03455 0.2799 0.0
H2914 H 0.53859 0.00193 0.24855 0.0
H2915 H 0.54638 0.03788 0.24511 0.0
H2916 H 0.51984 0.99045 0.22095 0.0
H2917 H 0.51196 0.98736 0.23539 0.0
H2918 H 0.52534 0.9866 0.23456 0.0
H2919 H 0.53559 0.04322 0.23169 0.0
H2920 H 0.52029 0.03159 0.22955 0.0
H2921 H 0.53079 0.03447 0.21744 0.0
H2922 H 0.56487 0.01931 0.15453 0.0
H2923 H 0.54492 0.00596 0.15134 0.0
H2924 H 0.54846 0.04033 0.14807 0.0
H2925 H 0.52388 0.99436 0.17357 0.0
H2926 H 0.52774 0.98954 0.15942 0.0
H2927 H 0.51444 0.99054 0.16005 0.0
H2928 H 0.53456 0.04489 0.15656 0.0
H2929 H 0.52672 0.03626 0.16998 0.0
H2930 H 0.51959 0.03247 0.15494 0.0
H2931 H 0.44502 0.99778 0.15609 0.0
H2932 H 0.42389 0.98224 0.15755 0.0
H2933 H 0.4335 0.97694 0.16275 0.0
H2934 H 0.42635 0.97237 0.14761 0.0
H2935 H 0.45947 0.97492 0.14785 0.0
H2936 H 0.46455 0.00994 0.1524 0.0
H2937 H 0.48107 0.9778 0.16847 0.0
H2938 H 0.48907 0.98254 0.15415 0.0
H2939 H 0.47395 0.97022 0.15401 0.0
H2940 H 0.48217 0.02599 0.16079 0.0
H2941 H 0.49527 0.02464 0.16007 0.0
H2942 H 0.48682 0.02097 0.17413 0.0
H2943 H 0.50343 0.00291 0.23797 0.0
H2944 H 0.53386 0.01677 0.20692 0.0
H2945 H 0.5342 0.01803 0.18458 0.0
H2946 H 0.50472 0.00806 0.15228 0.0
H2947 H 0.47453 0.99528 0.1836 0.0
H2948 H 0.47419 0.99381 0.20586 0.0
H2949 H 0.58401 0.03755 0.15981 0.0
H2950 H 0.57156 0.0392 0.16398 0.0
H2951 H 0.57997 0.04632 0.15021 0.0
C2952 C 0.53051 0.98402 0.74186 0.0
C2953 C 0.53989 0.99196 0.75162 0.0
C2954 C 0.53185 0.98931 0.77237 0.0
C2955 C 0.53703 0.00104 0.77689 0.0
C2956 C 0.53109 0.00424 0.7856 0.0
C2957 C 0.5197 0.9955 0.78974 0.0
C2958 C 0.51476 0.98352 0.78566 0.0
C2959 C 0.52103 0.98054 0.77714 0.0
C2960 C 0.53676 0.01704 0.78998 0.0
C2961 C 0.50262 0.97399 0.7898 0.0
C2962 C 0.48851 0.03312 0.74007 0.0
C2963 C 0.48016 0.02449 0.74983 0.0
C2964 C 0.48701 0.02401 0.77088 0.0
C2965 C 0.48049 0.01166 0.77262 0.0
C2966 C 0.48418 0.00631 0.78146 0.0
C2967 C 0.49456 0.01348 0.78869 0.0
C2968 C 0.50073 0.026 0.78746 0.0
C2969 C 0.49675 0.03112 0.77865 0.0
C2970 C 0.47721 0.99297 0.7828 0.0
C2971 C 0.51181 0.03392 0.79505 0.0
C2972 C 0.47193 0.01471 0.86584 0.0
C2973 C 0.46685 0.00281 0.86178 0.0
C2974 C 0.47395 0.99859 0.85668 0.0
C2975 C 0.48635 0.00643 0.85568 0.0
C2976 C 0.49154 0.01823 0.86041 0.0
C2977 C 0.48425 0.02218 0.86553 0.0
C2978 C 0.4682 0.98587 0.85203 0.0
C2979 C 0.50474 0.02677 0.85964 0.0
C2980 C 0.54396 0.97109 0.85991 0.0
C2981 C 0.54477 0.98017 0.86967 0.0
C2982 C 0.52695 0.98164 0.86872 0.0
C2983 C 0.51506 0.97386 0.86551 0.0
C2984 C 0.50826 0.97803 0.85963 0.0
C2985 C 0.5135 0.9903 0.85714 0.0
C2986 C 0.5253 0.99832 0.86115 0.0
C2987 C 0.5319 0.9939 0.86693 0.0
C2988 C 0.49564 0.96928 0.85565 0.0
C2989 C 0.53102 0.01151 0.85898 0.0
C2990 C 0.51242 0.99918 0.79704 0.0
C2991 C 0.50675 0.00409 0.79042 0.0
C2992 C 0.49972 0.00783 0.79645 0.0
C2993 C 0.49804 0.00643 0.80947 0.0
C2994 C 0.49079 0.00983 0.81579 0.0
C2995 C 0.48933 0.00856 0.82864 0.0
C2996 C 0.49507 0.00384 0.83568 0.0
C2997 C 0.49373 0.00263 0.84877 0.0
C2998 C 0.4997 0.99807 0.85551 0.0
C2999 C 0.50701 0.99465 0.84948 0.0
C3000 C 0.50836 0.99567 0.83637 0.0
C3001 C 0.5156 0.99224 0.83 0.0
C3002 C 0.51696 0.99339 0.81712 0.0
C3003 C 0.51112 0.99798 0.81012 0.0
C3004 C 0.50382 0.00154 0.81634 0.0
C3005 C 0.50238 0.00031 0.82947 0.0
C3006 C 0.45377 0.02697 0.86175 0.0
C3007 C 0.45383 0.01599 0.86651 0.0
O3008 O 0.53696 0.98638 0.76307 0.0
O3009 O 0.53344 0.97709 0.87348 0.0
O3010 O 0.46532 0.01932 0.87016 0.0
O3011 O 0.4843 0.02931 0.76166 0.0
H3012 H 0.53981 0.00047 0.75209 0.0
H3013 H 0.52171 0.98266 0.74459 0.0
H3014 H 0.52982 0.97518 0.74111 0.0
H3015 H 0.53279 0.9883 0.73259 0.0
H3016 H 0.54559 0.00773 0.77339 0.0
H3017 H 0.51721 0.97147 0.77365 0.0
H3018 H 0.53213 0.02122 0.78551 0.0
H3019 H 0.54632 0.02226 0.78757 0.0
H3020 H 0.53587 0.01752 0.80025 0.0
H3021 H 0.49996 0.96513 0.7856 0.0
H3022 H 0.49591 0.97643 0.78716 0.0
H3023 H 0.50252 0.97329 0.80012 0.0
H3024 H 0.48038 0.01612 0.74842 0.0
H3025 H 0.49751 0.03431 0.74127 0.0
H3026 H 0.48927 0.04197 0.74108 0.0
H3027 H 0.48523 0.02952 0.7305 0.0
H3028 H 0.47262 0.00618 0.76697 0.0
H3029 H 0.50158 0.04067 0.77737 0.0
H3030 H 0.47554 0.99063 0.79282 0.0
H3031 H 0.48249 0.98912 0.77908 0.0
H3032 H 0.46858 0.98882 0.77769 0.0
H3033 H 0.51554 0.0435 0.79303 0.0
H3034 H 0.51868 0.03151 0.79304 0.0
H3035 H 0.50981 0.03254 0.80515 0.0
H3036 H 0.45073 0.00944 0.8586 0.0
H3037 H 0.45737 0.99681 0.86257 0.0
H3038 H 0.48809 0.03127 0.86893 0.0
H3039 H 0.46902 0.98573 0.84172 0.0
H3040 H 0.45863 0.98062 0.85442 0.0
H3041 H 0.47284 0.9815 0.85607 0.0
H3042 H 0.50744 0.03557 0.86402 0.0
H3043 H 0.50746 0.02811 0.84971 0.0
H3044 H 0.50962 0.02295 0.86435 0.0
H3045 H 0.54921 0.98895 0.86502 0.0
H3046 H 0.553 0.97325 0.85703 0.0
H3047 H 0.53907 0.97133 0.85152 0.0
H3048 H 0.53916 0.96192 0.86363 0.0
H3049 H 0.51126 0.96444 0.86717 0.0
H3050 H 0.54093 2e-05 0.87 0.0
H3051 H 0.49487 0.96922 0.84532 0.0
H3052 H 0.48956 0.97208 0.85958 0.0
H3053 H 0.49271 0.96009 0.85872 0.0
H3054 H 0.53993 0.01666 0.86349 0.0
H3055 H 0.52527 0.01483 0.86264 0.0
H3056 H 0.53199 0.01319 0.84879 0.0
H3057 H 0.50792 0.00513 0.7804 0.0
H3058 H 0.48617 0.01352 0.81086 0.0
H3059 H 0.48366 0.01137 0.83299 0.0
H3060 H 0.49874 0.9973 0.86556 0.0
H3061 H 0.52031 0.98863 0.83489 0.0
H3062 H 0.52266 0.99065 0.81272 0.0
H3063 H 0.4447 0.02457 0.85858 0.0
H3064 H 0.45986 0.0307 0.85372 0.0
H3065 H 0.45677 0.03394 0.86922 0.0
C3066 C 0.02491 0.55076 0.74861 0.0
C3067 C 0.01361 0.54679 0.7561 0.0
C3068 C 0.01227 0.53945 0.77706 0.0
C3069 C 8e-05 0.53126 0.77794 0.0
C3070 C 0.99587 0.5218 0.7863 0.0
C3071 C 0.00406 0.5204 0.79374 0.0
C3072 C 0.01638 0.52877 0.79292 0.0
C3073 C 0.02028 0.53838 0.78479 0.0
C3074 C 0.98268 0.51318 0.78703 0.0
C3075 C 0.02549 0.52744 0.80033 0.0
C3076 C 0.99657 0.43448 0.7713 0.0
C3077 C 0.99854 0.44423 0.78013 0.0
C3078 C 0.9918 0.4583 0.78421 0.0
C3079 C 0.0018 0.46613 0.79151 0.0
C3080 C 0.00261 0.47622 0.79728 0.0
C3081 C 0.99304 0.47835 0.79612 0.0
C3082 C 0.98296 0.47053 0.78878 0.0
C3083 C 0.98254 0.46065 0.78281 0.0
C3084 C 0.01373 0.48457 0.80465 0.0
C3085 C 0.97262 0.47254 0.78735 0.0
C3086 C 0.98624 0.45972 0.87532 0.0
C3087 C 0.99727 0.46643 0.86954 0.0
C3088 C 0.00018 0.47705 0.86349 0.0
C3089 C 0.99179 0.48089 0.86306 0.0
C3090 C 0.98088 0.47439 0.86937 0.0
C3091 C 0.97833 0.46395 0.87558 0.0
C3092 C 0.01212 0.484 0.85732 0.0
C3093 C 0.97178 0.47827 0.86921 0.0
C3094 C 0.03378 0.57607 0.86493 0.0
C3095 C 0.02304 0.56784 0.87283 0.0
C3096 C 0.01843 0.54723 0.87201 0.0
C3097 C 0.02488 0.54158 0.86953 0.0
C3098 C 0.0194 0.53018 0.86402 0.0
C3099 C 0.00706 0.52418 0.86129 0.0
C3100 C 0.00035 0.52959 0.86447 0.0
C3101 C 0.00613 0.54112 0.86975 0.0
C3102 C 0.02683 0.52465 0.86088 0.0
C3103 C 0.98712 0.52326 0.86211 0.0
C3104 C 0.99982 0.50978 0.80171 0.0
C3105 C 0.99707 0.49903 0.79581 0.0
C3106 C 0.99371 0.48878 0.80268 0.0
C3107 C 0.9927 0.48911 0.81579 0.0
C3108 C 0.98885 0.47883 0.82292 0.0
C3109 C 0.98892 0.47944 0.83588 0.0
C3110 C 0.99301 0.49038 0.84222 0.0
C3111 C 0.99415 0.49127 0.85539 0.0
C3112 C 0.9983 0.5023 0.86137 0.0
C3113 C 0.00141 0.51254 0.85454 0.0
C3114 C 0.00023 0.51179 0.84137 0.0
C3115 C 0.00321 0.52188 0.83419 0.0
C3116 C 0.00261 0.52115 0.82121 0.0
C3117 C 0.99941 0.51041 0.81489 0.0
C3118 C 0.99596 0.50004 0.82194 0.0
C3119 C 0.99624 0.50071 0.83519 0.0
C3120 C 0.97273 0.42921 0.87332 0.0
C3121 C 0.98483 0.44034 0.87585 0.0
O3122 O 0.01651 0.54837 0.76872 0.0
O3123 O 0.02429 0.55845 0.87684 0.0
O3124 O 0.98303 0.4492 0.88078 0.0
O3125 O 0.99084 0.4485 0.77839 0.0
H3126 H 0.00747 0.53718 0.75381 0.0
H3127 H 0.02901 0.54542 0.75126 0.0
H3128 H 0.03145 0.56032 0.7505 0.0
H3129 H 0.02282 0.5494 0.73844 0.0
H3130 H 0.9939 0.53231 0.77207 0.0
H3131 H 0.02967 0.54483 0.78405 0.0
H3132 H 0.98058 0.50453 0.78274 0.0
H3133 H 0.97743 0.51646 0.78208 0.0
H3134 H 0.97986 0.51157 0.79693 0.0
H3135 H 0.03466 0.53339 0.79695 0.0
H3136 H 0.02356 0.51811 0.79983 0.0
H3137 H 0.02517 0.52971 0.81028 0.0
H3138 H 0.99947 0.44256 0.79015 0.0
H3139 H 0.01225 0.44194 0.76097 0.0
H3140 H 0.98755 0.43109 0.76686 0.0
H3141 H 0.99362 0.42645 0.77731 0.0
H3142 H 0.00908 0.4645 0.7927 0.0
H3143 H 0.97488 0.45461 0.77715 0.0
H3144 H 0.01184 0.4833 0.81478 0.0
H3145 H 0.01671 0.49399 0.80253 0.0
H3146 H 0.02113 0.48294 0.80265 0.0
H3147 H 0.96502 0.46509 0.78224 0.0
H3148 H 0.9755 0.48088 0.78217 0.0
H3149 H 0.96959 0.47365 0.79668 0.0
H3150 H 0.98946 0.44306 0.86672 0.0
H3151 H 0.00359 0.46338 0.86977 0.0
H3152 H 0.96993 0.45879 0.88029 0.0
H3153 H 0.01095 0.48275 0.84705 0.0
H3154 H 0.01836 0.48106 0.86038 0.0
H3155 H 0.01619 0.49366 0.85945 0.0
H3156 H 0.96354 0.47198 0.87419 0.0
H3157 H 0.96943 0.479 0.85942 0.0
H3158 H 0.9756 0.48721 0.87369 0.0
H3159 H 0.01497 0.56458 0.86682 0.0
H3160 H 0.03293 0.58361 0.86145 0.0
H3161 H 0.03432 0.57105 0.85675 0.0
H3162 H 0.04213 0.57966 0.8705 0.0
H3163 H 0.03433 0.54632 0.87156 0.0
H3164 H 0.00105 0.54532 0.87219 0.0
H3165 H 0.0258 0.52213 0.85082 0.0
H3166 H 0.02369 0.5164 0.8663 0.0
H3167 H 0.03641 0.53075 0.86301 0.0
H3168 H 0.98299 0.52813 0.86627 0.0
H3169 H 0.98282 0.51417 0.86602 0.0
H3170 H 0.98534 0.52229 0.8519 0.0
H3171 H 0.99803 0.49876 0.78577 0.0
H3172 H 0.98587 0.47023 0.81853 0.0
H3173 H 0.98599 0.47125 0.84087 0.0
H3174 H 0.99946 0.503 0.87144 0.0
H3175 H 0.00612 0.53049 0.83852 0.0
H3176 H 0.00501 0.52921 0.81618 0.0
H3177 H 0.96767 0.42597 0.88212 0.0
H3178 H 0.97385 0.42202 0.86908 0.0
H3179 H 0.96751 0.43132 0.8667 0.0
C3180 C 0.51366 0.56428 0.74904 0.0
C3181 C 0.52206 0.5685 0.76043 0.0
C3182 C 0.51012 0.55287 0.77553 0.0
C3183 C 0.50186 0.55653 0.77802 0.0
C3184 C 0.49196 0.5497 0.78553 0.0
C3185 C 0.49029 0.53903 0.7907 0.0
C3186 C 0.49868 0.53544 0.78843 0.0
C3187 C 0.50852 0.54245 0.78091 0.0
C3188 C 0.4832 0.55381 0.78785 0.0
C3189 C 0.49717 0.52413 0.79384 0.0
C3190 C 0.40281 0.48082 0.76343 0.0
C3191 C 0.41349 0.4792 0.76117 0.0
C3192 C 0.42846 0.4881 0.77795 0.0
C3193 C 0.43518 0.48523 0.78577 0.0
C3194 C 0.44537 0.49412 0.79194 0.0
C3195 C 0.44856 0.50619 0.79072 0.0
C3196 C 0.44176 0.50917 0.78283 0.0
C3197 C 0.43184 0.50009 0.77639 0.0
C3198 C 0.45263 0.49055 0.79983 0.0
C3199 C 0.44483 0.52192 0.78137 0.0
C3200 C 0.42451 0.49771 0.86931 0.0
C3201 C 0.43191 0.49338 0.86552 0.0
C3202 C 0.44283 0.5009 0.85982 0.0
C3203 C 0.44628 0.51293 0.85767 0.0
C3204 C 0.43902 0.51741 0.86195 0.0
C3205 C 0.42829 0.50975 0.86791 0.0
C3206 C 0.45058 0.49593 0.85591 0.0
C3207 C 0.44241 0.53018 0.85992 0.0
C3208 C 0.53047 0.58841 0.86352 0.0
C3209 C 0.52447 0.58374 0.87613 0.0
C3210 C 0.50882 0.56327 0.87046 0.0
C3211 C 0.50604 0.55141 0.87033 0.0
C3212 C 0.49589 0.54253 0.86405 0.0
C3213 C 0.48825 0.54561 0.85791 0.0
C3214 C 0.49077 0.55753 0.85834 0.0
C3215 C 0.50109 0.56627 0.86452 0.0
C3216 C 0.49346 0.52991 0.86375 0.0
C3217 C 0.48266 0.56107 0.8521 0.0
C3218 C 0.47952 0.53145 0.79811 0.0
C3219 C 0.4694 0.52278 0.79172 0.0
C3220 C 0.4588 0.51561 0.79798 0.0
C3221 C 0.45819 0.51715 0.811 0.0
C3222 C 0.44752 0.51044 0.81751 0.0
C3223 C 0.44713 0.51165 0.83039 0.0
C3224 C 0.45737 0.51964 0.83726 0.0
C3225 C 0.45715 0.52065 0.85042 0.0
C3226 C 0.46737 0.52908 0.85689 0.0
C3227 C 0.47788 0.5365 0.85057 0.0
C3228 C 0.47839 0.53533 0.83747 0.0
C3229 C 0.48893 0.5424 0.83087 0.0
C3230 C 0.48932 0.5412 0.81798 0.0
C3231 C 0.47921 0.53283 0.8112 0.0
C3232 C 0.46849 0.52562 0.81766 0.0
C3233 C 0.46808 0.52687 0.83081 0.0
C3234 C 0.39402 0.47853 0.86658 0.0
C3235 C 0.40561 0.47906 0.87022 0.0
O3236 O 0.51963 0.55896 0.76795 0.0
O3237 O 0.51906 0.57144 0.87633 0.0
O3238 O 0.41371 0.49052 0.87437 0.0
O3239 O 0.41861 0.47902 0.77244 0.0
H3240 H 0.52096 0.5752 0.76588 0.0
H3241 H 0.50429 0.56032 0.75199 0.0
H3242 H 0.51452 0.55746 0.74357 0.0
H3243 H 0.51575 0.57191 0.74293 0.0
H3244 H 0.50298 0.56462 0.77408 0.0
H3245 H 0.51495 0.53971 0.77901 0.0
H3246 H 0.47432 0.54705 0.78412 0.0
H3247 H 0.4859 0.56247 0.78343 0.0
H3248 H 0.48229 0.55472 0.79805 0.0
H3249 H 0.50461 0.52268 0.7914 0.0
H3250 H 0.48873 0.5164 0.79033 0.0
H3251 H 0.49659 0.52443 0.80416 0.0
H3252 H 0.42005 0.48669 0.75539 0.0
H3253 H 0.39856 0.48071 0.75439 0.0
H3254 H 0.40571 0.48948 0.76822 0.0
H3255 H 0.39614 0.47362 0.76937 0.0
H3256 H 0.43248 0.47594 0.78689 0.0
H3257 H 0.42662 0.50237 0.77044 0.0
H3258 H 0.45074 0.49104 0.80984 0.0
H3259 H 0.46228 0.49669 0.79841 0.0
H3260 H 0.45049 0.48131 0.79765 0.0
H3261 H 0.43788 0.52263 0.77609 0.0
H3262 H 0.45334 0.5269 0.7763 0.0
H3263 H 0.44607 0.52629 0.79067 0.0
H3264 H 0.40887 0.47674 0.86165 0.0
H3265 H 0.42917 0.48414 0.86704 0.0
H3266 H 0.42258 0.51302 0.87108 0.0
H3267 H 0.45013 0.49476 0.8456 0.0
H3268 H 0.44771 0.48716 0.86016 0.0
H3269 H 0.45999 0.5022 0.85857 0.0
H3270 H 0.43536 0.53202 0.86295 0.0
H3271 H 0.44424 0.53237 0.84989 0.0
H3272 H 0.45067 0.53618 0.86526 0.0
H3273 H 0.51775 0.58645 0.87773 0.0
H3274 H 0.53493 0.59828 0.86341 0.0
H3275 H 0.52378 0.5848 0.85583 0.0
H3276 H 0.53716 0.58571 0.86174 0.0
H3277 H 0.51201 0.54917 0.87499 0.0
H3278 H 0.50302 0.57537 0.86458 0.0
H3279 H 0.49278 0.52679 0.85392 0.0
H3280 H 0.48482 0.52397 0.86825 0.0
H3281 H 0.5005 0.52905 0.86864 0.0
H3282 H 0.48512 0.57037 0.85448 0.0
H3283 H 0.47332 0.555 0.85489 0.0
H3284 H 0.4831 0.56025 0.84182 0.0
H3285 H 0.46979 0.52159 0.78172 0.0
H3286 H 0.43936 0.50413 0.81274 0.0
H3287 H 0.43868 0.50619 0.83488 0.0
H3288 H 0.46711 0.52992 0.86695 0.0
H3289 H 0.49702 0.54893 0.8356 0.0
H3290 H 0.49767 0.54688 0.8134 0.0
H3291 H 0.39026 0.48083 0.87473 0.0
H3292 H 0.38739 0.46948 0.86306 0.0
H3293 H 0.39571 0.48498 0.85906 0.0
C3294 C 0.61177 0.76579 0.60372 0.0
C3295 C 0.61663 0.76254 0.59226 0.0
C3296 C 0.62103 0.779 0.57809 0.0
C3297 C 0.60915 0.77533 0.57501 0.0
C3298 C 0.60639 0.78239 0.56754 0.0
C3299 C 0.61565 0.79333 0.56307 0.0
C3300 C 0.6276 0.79696 0.56595 0.0
C3301 C 0.63012 0.7897 0.5734 0.0
C3302 C 0.59355 0.77824 0.56457 0.0
C3303 C 0.63768 0.80857 0.56131 0.0
C3304 C 0.59765 0.84362 0.61324 0.0
C3305 C 0.60625 0.84876 0.60234 0.0
C3306 C 0.60188 0.83892 0.58201 0.0
C3307 C 0.61343 0.84229 0.57825 0.0
C3308 C 0.61538 0.83545 0.5694 0.0
C3309 C 0.60558 0.82495 0.56435 0.0
C3310 C 0.59389 0.82179 0.5678 0.0
C3311 C 0.5922 0.82899 0.57643 0.0
C3312 C 0.62794 0.83925 0.56574 0.0
C3313 C 0.58322 0.81057 0.56278 0.0
C3314 C 0.59011 0.83442 0.48482 0.0
C3315 C 0.60208 0.83965 0.48846 0.0
C3316 C 0.60631 0.83286 0.49421 0.0
C3317 C 0.5983 0.8207 0.49668 0.0
C3318 C 0.5863 0.81536 0.49267 0.0
C3319 C 0.58243 0.82227 0.48658 0.0
C3320 C 0.61929 0.83872 0.49777 0.0
C3321 C 0.5775 0.80241 0.49503 0.0
C3322 C 0.60929 0.74748 0.48907 0.0
C3323 C 0.60712 0.75165 0.47653 0.0
C3324 C 0.6116 0.77192 0.48232 0.0
C3325 C 0.62065 0.78386 0.48255 0.0
C3326 C 0.61942 0.79251 0.48922 0.0
C3327 C 0.60874 0.78913 0.49562 0.0
C3328 C 0.59936 0.77713 0.49507 0.0
C3329 C 0.60093 0.76862 0.48854 0.0
C3330 C 0.62959 0.8052 0.48961 0.0
C3331 C 0.58773 0.77327 0.50152 0.0
C3332 C 0.61277 0.8012 0.55583 0.0
C3333 C 0.61076 0.80927 0.56251 0.0
C3334 C 0.60764 0.81674 0.55643 0.0
C3335 C 0.60643 0.81614 0.54327 0.0
C3336 C 0.60319 0.82342 0.53685 0.0
C3337 C 0.60174 0.82254 0.52392 0.0
C3338 C 0.60376 0.81455 0.51688 0.0
C3339 C 0.60234 0.8136 0.50372 0.0
C3340 C 0.60424 0.80542 0.49707 0.0
C3341 C 0.60748 0.79806 0.50319 0.0
C3342 C 0.60909 0.79898 0.51631 0.0
C3343 C 0.61251 0.79182 0.52274 0.0
C3344 C 0.61374 0.79255 0.53568 0.0
C3345 C 0.61171 0.80052 0.54267 0.0
C3346 C 0.60847 0.80799 0.53638 0.0
C3347 C 0.60716 0.80721 0.52317 0.0
C3348 C 0.57742 0.85285 0.48438 0.0
C3349 C 0.58879 0.85233 0.48292 0.0
O3350 O 0.62413 0.77266 0.58563 0.0
O3351 O 0.61363 0.76399 0.47604 0.0
O3352 O 0.58571 0.84081 0.47953 0.0
O3353 O 0.59987 0.84492 0.5912 0.0
H3354 H 0.60911 0.75618 0.58615 0.0
H3355 H 0.60642 0.7698 0.60085 0.0
H3356 H 0.61917 0.77229 0.60986 0.0
H3357 H 0.60595 0.75769 0.60914 0.0
H3358 H 0.60196 0.76704 0.57844 0.0
H3359 H 0.63924 0.79246 0.57576 0.0
H3360 H 0.59121 0.78469 0.56854 0.0
H3361 H 0.58738 0.7693 0.56836 0.0
H3362 H 0.59221 0.77793 0.5543 0.0
H3363 H 0.64651 0.81002 0.56416 0.0
H3364 H 0.63677 0.81607 0.565 0.0
H3365 H 0.63726 0.80873 0.55096 0.0
H3366 H 0.6124 0.84521 0.6032 0.0
H3367 H 0.60258 0.84666 0.62228 0.0
H3368 H 0.59299 0.83374 0.6128 0.0
H3369 H 0.59089 0.84639 0.61288 0.0
H3370 H 0.62091 0.85021 0.58234 0.0
H3371 H 0.58331 0.82656 0.57933 0.0
H3372 H 0.62856 0.8387 0.55543 0.0
H3373 H 0.63053 0.83313 0.56991 0.0
H3374 H 0.63438 0.84847 0.56898 0.0
H3375 H 0.5748 0.80901 0.56699 0.0
H3376 H 0.58425 0.80277 0.56464 0.0
H3377 H 0.58257 0.81115 0.55252 0.0
H3378 H 0.59341 0.85478 0.49218 0.0
H3379 H 0.60812 0.84899 0.48672 0.0
H3380 H 0.57325 0.81831 0.48354 0.0
H3381 H 0.62029 0.84006 0.50805 0.0
H3382 H 0.62466 0.84752 0.49333 0.0
H3383 H 0.62291 0.83294 0.49503 0.0
H3384 H 0.56826 0.79997 0.49254 0.0
H3385 H 0.5778 0.80038 0.50502 0.0
H3386 H 0.57989 0.79675 0.48939 0.0
H3387 H 0.5975 0.74847 0.47535 0.0
H3388 H 0.60414 0.73761 0.48949 0.0
H3389 H 0.60639 0.75104 0.4969 0.0
H3390 H 0.61888 0.7506 0.49038 0.0
H3391 H 0.62882 0.78634 0.47768 0.0
H3392 H 0.59377 0.75946 0.48837 0.0
H3393 H 0.63212 0.80826 0.49946 0.0
H3394 H 0.62677 0.81107 0.48524 0.0
H3395 H 0.63753 0.80627 0.48465 0.0
H3396 H 0.58084 0.764 0.49894 0.0
H3397 H 0.58436 0.77931 0.49912 0.0
H3398 H 0.58913 0.77382 0.51178 0.0
H3399 H 0.61154 0.80968 0.57262 0.0
H3400 H 0.60162 0.8298 0.54176 0.0
H3401 H 0.59903 0.82823 0.51953 0.0
H3402 H 0.60298 0.80463 0.48701 0.0
H3403 H 0.61421 0.78553 0.51785 0.0
H3404 H 0.6163 0.78676 0.54013 0.0
H3405 H 0.57235 0.85048 0.47542 0.0
H3406 H 0.57956 0.86192 0.48741 0.0
H3407 H 0.57172 0.84645 0.49158 0.0
C3408 C 0.14138 0.73714 0.59187 0.0
C3409 C 0.14015 0.74765 0.59648 0.0
C3410 C 0.14976 0.76346 0.5809 0.0
C3411 C 0.14765 0.77038 0.57262 0.0
C3412 C 0.15699 0.77989 0.56639 0.0
C3413 C 0.16874 0.78225 0.56816 0.0
C3414 C 0.17097 0.77527 0.57653 0.0
C3415 C 0.16148 0.76604 0.58295 0.0
C3416 C 0.15425 0.78737 0.55789 0.0
C3417 C 0.18338 0.77751 0.57867 0.0
C3418 C 0.24098 0.86795 0.60361 0.0
C3419 C 0.23363 0.85542 0.59904 0.0
C3420 C 0.218 0.84367 0.58363 0.0
C3421 C 0.21989 0.83396 0.58346 0.0
C3422 C 0.21268 0.82378 0.57613 0.0
C3423 C 0.20324 0.82317 0.569 0.0
C3424 C 0.20122 0.83287 0.56925 0.0
C3425 C 0.20873 0.84305 0.57647 0.0
C3426 C 0.21513 0.81364 0.57601 0.0
C3427 C 0.19112 0.83245 0.56193 0.0
C3428 C 0.22781 0.839 0.48973 0.0
C3429 C 0.23115 0.8317 0.49598 0.0
C3430 C 0.22267 0.8215 0.5022 0.0
C3431 C 0.21068 0.81867 0.50235 0.0
C3432 C 0.20727 0.82588 0.49588 0.0
C3433 C 0.21588 0.83589 0.48955 0.0
C3434 C 0.22654 0.81383 0.50878 0.0
C3435 C 0.19457 0.82314 0.49581 0.0
C3436 C 0.13668 0.72537 0.49293 0.0
C3437 C 0.14095 0.7379 0.48813 0.0
C3438 C 0.16106 0.75482 0.4911 0.0
C3439 C 0.17243 0.75728 0.49451 0.0
C3440 C 0.18064 0.76822 0.50015 0.0
C3441 C 0.17741 0.77695 0.50219 0.0
C3442 C 0.16618 0.7748 0.49801 0.0
C3443 C 0.15811 0.76374 0.49251 0.0
C3444 C 0.19259 0.77029 0.50434 0.0
C3445 C 0.16259 0.78406 0.4997 0.0
C3446 C 0.17866 0.79197 0.56119 0.0
C3447 C 0.18611 0.80267 0.56755 0.0
C3448 C 0.19539 0.8123 0.56146 0.0
C3449 C 0.19717 0.81139 0.54857 0.0
C3450 C 0.20621 0.821 0.54207 0.0
C3451 C 0.2077 0.82009 0.52933 0.0
C3452 C 0.20036 0.80944 0.52263 0.0
C3453 C 0.20175 0.80844 0.50965 0.0
C3454 C 0.19427 0.79773 0.50327 0.0
C3455 C 0.18537 0.78793 0.50953 0.0
C3456 C 0.18389 0.78874 0.52251 0.0
C3457 C 0.17511 0.779 0.52911 0.0
C3458 C 0.17348 0.77998 0.5418 0.0
C3459 C 0.18053 0.79076 0.54838 0.0
C3460 C 0.18969 0.80057 0.54201 0.0
C3461 C 0.19135 0.79957 0.52905 0.0
C3462 C 0.25199 0.86144 0.49763 0.0
C3463 C 0.24799 0.85527 0.48479 0.0
O3464 O 0.14021 0.75434 0.5865 0.0
O3465 O 0.15316 0.74375 0.48665 0.0
O3466 O 0.23569 0.84912 0.48383 0.0
O3467 O 0.22489 0.85375 0.5905 0.0
H3468 H 0.14765 0.7533 0.603 0.0
H3469 H 0.14999 0.74035 0.58714 0.0
H3470 H 0.13416 0.73145 0.58512 0.0
H3471 H 0.14102 0.73164 0.59989 0.0
H3472 H 0.13859 0.76835 0.57114 0.0
H3473 H 0.1633 0.76081 0.58937 0.0
H3474 H 0.16067 0.79699 0.55954 0.0
H3475 H 0.14511 0.78573 0.55924 0.0
H3476 H 0.15507 0.78522 0.54802 0.0
H3477 H 0.18341 0.77026 0.58398 0.0
H3478 H 0.18864 0.78597 0.58403 0.0
H3479 H 0.18788 0.77845 0.56962 0.0
H3480 H 0.23025 0.84855 0.60644 0.0
H3481 H 0.25798 0.87318 0.59692 0.0
H3482 H 0.239 0.86764 0.61386 0.0
H3483 H 0.23602 0.87264 0.60104 0.0
H3484 H 0.22701 0.83428 0.58897 0.0
H3485 H 0.20733 0.85057 0.57666 0.0
H3486 H 0.20762 0.80574 0.58037 0.0
H3487 H 0.22344 0.8159 0.58115 0.0
H3488 H 0.21584 0.81112 0.56624 0.0
H3489 H 0.19023 0.84036 0.56382 0.0
H3490 H 0.18263 0.82431 0.56427 0.0
H3491 H 0.1926 0.83199 0.55179 0.0
H3492 H 0.25133 0.84901 0.48343 0.0
H3493 H 0.24031 0.83388 0.49608 0.0
H3494 H 0.21338 0.84153 0.48464 0.0
H3495 H 0.22573 0.81456 0.51902 0.0
H3496 H 0.23587 0.81647 0.50668 0.0
H3497 H 0.22066 0.80434 0.50601 0.0
H3498 H 0.1935 0.83001 0.49092 0.0
H3499 H 0.1914 0.82246 0.50553 0.0
H3500 H 0.18881 0.8144 0.49109 0.0
H3501 H 0.13852 0.74242 0.49545 0.0
H3502 H 0.12688 0.72047 0.49407 0.0
H3503 H 0.14086 0.72597 0.50216 0.0
H3504 H 0.13911 0.72028 0.4864 0.0
H3505 H 0.17469 0.75041 0.49317 0.0
H3506 H 0.14949 0.76207 0.48939 0.0
H3507 H 0.19353 0.77172 0.51462 0.0
H3508 H 0.19976 0.77846 0.5 0.0
H3509 H 0.19383 0.76269 0.50187 0.0
H3510 H 0.15408 0.78151 0.49483 0.0
H3511 H 0.16963 0.79275 0.49612 0.0
H3512 H 0.16158 0.7853 0.5098 0.0
H3513 H 0.18468 0.80352 0.57739 0.0
H3514 H 0.21216 0.82939 0.54674 0.0
H3515 H 0.2147 0.82785 0.5248 0.0
H3516 H 0.19528 0.79707 0.4933 0.0
H3517 H 0.16935 0.7705 0.52454 0.0
H3518 H 0.16658 0.77219 0.54636 0.0
H3519 H 0.24863 0.86767 0.49914 0.0
H3520 H 0.26184 0.8665 0.49837 0.0
H3521 H 0.24855 0.85478 0.50516 0.0
C3522 C 0.15811 0.3812 0.60861 0.0
C3523 C 0.15027 0.38289 0.59911 0.0
C3524 C 0.15979 0.38101 0.58018 0.0
C3525 C 0.16934 0.39279 0.57977 0.0
C3526 C 0.17927 0.39573 0.57235 0.0
C3527 C 0.17976 0.38668 0.56537 0.0
C3528 C 0.17003 0.37486 0.56557 0.0
C3529 C 0.16007 0.37225 0.57279 0.0
C3530 C 0.18937 0.40847 0.57218 0.0
C3531 C 0.17031 0.36491 0.5585 0.0
C3532 C 0.24222 0.39895 0.61888 0.0
C3533 C 0.24083 0.39105 0.60755 0.0
C3534 C 0.23696 0.39661 0.58727 0.0
C3535 C 0.2286 0.38534 0.58245 0.0
C3536 C 0.22044 0.38412 0.57315 0.0
C3537 C 0.22065 0.39439 0.56866 0.0
C3538 C 0.22945 0.4058 0.5731 0.0
C3539 C 0.23763 0.40676 0.58224 0.0
C3540 C 0.21138 0.37184 0.5684 0.0
C3541 C 0.22991 0.41694 0.56856 0.0
C3542 C 0.24856 0.40646 0.49043 0.0
C3543 C 0.23988 0.3946 0.49277 0.0
C3544 C 0.229 0.39184 0.49815 0.0
C3545 C 0.22682 0.40115 0.5013 0.0
C3546 C 0.23538 0.41305 0.49851 0.0
C3547 C 0.2461 0.41552 0.49297 0.0
C3548 C 0.21989 0.37902 0.5006 0.0
C3549 C 0.2333 0.42317 0.50162 0.0
C3550 C 0.14558 0.39587 0.48959 0.0
C3551 C 0.15148 0.39638 0.47707 0.0
C3552 C 0.1664 0.39127 0.48392 0.0
C3553 C 0.16841 0.38177 0.48507 0.0
C3554 C 0.17799 0.38291 0.49217 0.0
C3555 C 0.18587 0.39393 0.49811 0.0
C3556 C 0.18415 0.40373 0.49662 0.0
C3557 C 0.17439 0.4023 0.4896 0.0
C3558 C 0.17956 0.37228 0.49353 0.0
C3559 C 0.19255 0.41568 0.50262 0.0
C3560 C 0.19079 0.38944 0.55866 0.0
C3561 C 0.20029 0.39057 0.56578 0.0
C3562 C 0.21099 0.39312 0.56026 0.0
C3563 C 0.21226 0.39446 0.54719 0.0
C3564 C 0.22283 0.39685 0.54129 0.0
C3565 C 0.22402 0.39824 0.52842 0.0
C3566 C 0.21464 0.39717 0.52093 0.0
C3567 C 0.21573 0.39848 0.50782 0.0
C3568 C 0.20625 0.39741 0.50067 0.0
C3569 C 0.19562 0.39505 0.50626 0.0
C3570 C 0.19435 0.39369 0.51934 0.0
C3571 C 0.18378 0.39132 0.52526 0.0
C3572 C 0.18263 0.39004 0.53814 0.0
C3573 C 0.19193 0.39092 0.54559 0.0
C3574 C 0.2027 0.39337 0.53983 0.0
C3575 C 0.2039 0.39474 0.52669 0.0
C3576 C 0.27804 0.41326 0.49331 0.0
C3577 C 0.26581 0.40395 0.48819 0.0
O3578 O 0.15029 0.3777 0.58771 0.0
O3579 O 0.15661 0.38932 0.47735 0.0
O3580 O 0.25933 0.40947 0.48566 0.0
O3581 O 0.24431 0.39792 0.59692 0.0
H3582 H 0.15369 0.39255 0.59792 0.0
H3583 H 0.16744 0.38558 0.60537 0.0
H3584 H 0.15484 0.37157 0.60985 0.0
H3585 H 0.15813 0.38526 0.61779 0.0
H3586 H 0.16914 0.39972 0.58522 0.0
H3587 H 0.15262 0.36321 0.57311 0.0
H3588 H 0.19707 0.40924 0.57744 0.0
H3589 H 0.18689 0.4147 0.57649 0.0
H3590 H 0.19224 0.41124 0.56244 0.0
H3591 H 0.16251 0.35606 0.56056 0.0
H3592 H 0.17854 0.36481 0.56088 0.0
H3593 H 0.17039 0.36641 0.54832 0.0
H3594 H 0.23122 0.38413 0.60701 0.0
H3595 H 0.23966 0.39364 0.62754 0.0
H3596 H 0.23633 0.40273 0.61773 0.0
H3597 H 0.25152 0.40643 0.61989 0.0
H3598 H 0.22838 0.3775 0.58604 0.0
H3599 H 0.24425 0.41542 0.58592 0.0
H3600 H 0.21104 0.37166 0.55803 0.0
H3601 H 0.20245 0.36955 0.57178 0.0
H3602 H 0.21334 0.36494 0.5716 0.0
H3603 H 0.23716 0.42512 0.57314 0.0
H3604 H 0.22131 0.41646 0.57042 0.0
H3605 H 0.23126 0.41764 0.55832 0.0
H3606 H 0.2615 0.39722 0.49563 0.0
H3607 H 0.24156 0.3875 0.49033 0.0
H3608 H 0.25279 0.42462 0.49092 0.0
H3609 H 0.21876 0.37764 0.51082 0.0
H3610 H 0.22248 0.37276 0.49661 0.0
H3611 H 0.21115 0.37683 0.49657 0.0
H3612 H 0.24103 0.43197 0.49926 0.0
H3613 H 0.23146 0.42316 0.51173 0.0
H3614 H 0.22538 0.42193 0.4964 0.0
H3615 H 0.15839 0.40574 0.47512 0.0
H3616 H 0.14133 0.4014 0.48933 0.0
H3617 H 0.15227 0.39936 0.49728 0.0
H3618 H 0.13872 0.38655 0.49171 0.0
H3619 H 0.16226 0.37334 0.48058 0.0
H3620 H 0.17308 0.4098 0.48868 0.0
H3621 H 0.17954 0.37025 0.50358 0.0
H3622 H 0.18829 0.37436 0.48972 0.0
H3623 H 0.17247 0.36423 0.48861 0.0
H3624 H 0.19066 0.4227 0.49964 0.0
H3625 H 0.20186 0.41847 0.50024 0.0
H3626 H 0.19177 0.41495 0.51293 0.0
H3627 H 0.19937 0.38949 0.57582 0.0
H3628 H 0.23031 0.3977 0.54658 0.0
H3629 H 0.23239 0.40014 0.52441 0.0
H3630 H 0.20715 0.39843 0.49063 0.0
H3631 H 0.17627 0.39044 0.52001 0.0
H3632 H 0.17433 0.3883 0.5422 0.0
H3633 H 0.2834 0.40906 0.49549 0.0
H3634 H 0.27701 0.41734 0.50204 0.0
H3635 H 0.28288 0.42043 0.48644 0.0
C3636 C 0.98324 0.36922 0.06896 0.0
C3637 C 0.9886 0.37413 0.05752 0.0
C3638 C 0.98334 0.37653 0.0787 0.0
C3639 C 0.98969 0.40732 0.08608 0.0
H3640 H 0.99817 0.40116 0.11871 0.0
C3641 C 0.01298 0.44332 0.12456 0.0
C3642 C 0.0097 0.44018 0.13703 0.0
C3643 C 0.008 0.43475 0.11499 0.0
C3644 C 0.99559 0.4029 0.10971 0.0
H3645 H 0.99815 0.39056 0.04728 0.0
H3646 H 0.99847 0.40328 0.06421 0.0
H3647 H 0.99366 0.38692 0.10168 0.0
H3648 H 0.99867 0.42566 0.14925 0.0
H3649 H 0.98994 0.41063 0.1325 0.0
H3650 H 0.99215 0.4236 0.09407 0.0
C3651 C 0.99393 0.39376 0.06563 0.0
C3652 C 0.99298 0.39472 0.09994 0.0
C3653 C 0.99376 0.38645 0.0559 0.0
C3654 C 0.00123 0.42833 0.1397 0.0
C3655 C 0.9963 0.41974 0.13014 0.0
C3656 C 0.99239 0.41556 0.09584 0.0
C3657 C 0.98889 0.38893 0.07723 0.0
C3658 C 0.99023 0.39693 0.08793 0.0
C3659 C 0.99977 0.42283 0.1177 0.0
C3660 C 0.99559 0.41354 0.1077 0.0
H3661 H 0.97908 0.35973 0.07043 0.0
H3662 H 0.97921 0.37249 0.08744 0.0
H3663 H 0.98738 0.40921 0.07702 0.0
H3664 H 0.01968 0.45233 0.12225 0.0
H3665 H 0.011 0.43737 0.10552 0.0
C3666 C 0.63244 0.59139 0.06007 0.0
C3667 C 0.63223 0.602 0.06167 0.0
C3668 C 0.6274 0.58246 0.06897 0.0
C3669 C 0.61684 0.57679 0.1017 0.0
H3670 H 0.59906 0.54396 0.08999 0.0
C3671 C 0.58635 0.53787 0.13369 0.0
C3672 C 0.58714 0.52752 0.13269 0.0
C3673 C 0.59207 0.54702 0.12513 0.0
C3674 C 0.60409 0.55308 0.0934 0.0
H3675 H 0.62659 0.61158 0.07382 0.0
H3676 H 0.61762 0.59595 0.08927 0.0
H3677 H 0.60876 0.55988 0.07495 0.0
H3678 H 0.59469 0.51874 0.12205 0.0
H3679 H 0.60461 0.5347 0.107 0.0
H3680 H 0.61196 0.56994 0.12015 0.0
C3681 C 0.62189 0.5946 0.08128 0.0
C3682 C 0.60968 0.56221 0.0848 0.0
C3683 C 0.62701 0.60356 0.07242 0.0
C3684 C 0.59381 0.52654 0.12296 0.0
C3685 C 0.59946 0.53566 0.11434 0.0
C3686 C 0.61117 0.56766 0.1103 0.0
C3687 C 0.62195 0.5839 0.07962 0.0
C3688 C 0.61614 0.57418 0.08883 0.0
C3689 C 0.59868 0.54601 0.11536 0.0
C3690 C 0.60473 0.55571 0.10624 0.0
H3691 H 0.63654 0.59001 0.05194 0.0
H3692 H 0.62782 0.57444 0.0675 0.0
H3693 H 0.62189 0.58589 0.10516 0.0
H3694 H 0.58132 0.53887 0.14114 0.0
H3695 H 0.59123 0.55484 0.12607 0.0
C3696 C 0.39199 0.01891 0.06971 0.0
C3697 C 0.39055 0.01326 0.05802 0.0
C3698 C 0.3986 0.0176 0.07923 0.0
C3699 C 0.40769 0.99666 0.08956 0.0
H3700 H 0.43016 0.02261 0.11103 0.0
C3701 C 0.43578 0.98944 0.1258 0.0
C3702 C 0.43728 0.99486 0.13761 0.0
C3703 C 0.43105 0.99257 0.11584 0.0
C3704 C 0.42382 0.01525 0.10518 0.0
H3705 H 0.39499 0.0019 0.04716 0.0
H3706 H 0.40659 0.99977 0.06366 0.0
H3707 H 0.42003 0.02659 0.09415 0.0
H3708 H 0.4348 0.00762 0.14831 0.0
H3709 H 0.42632 0.01297 0.13096 0.0
H3710 H 0.4112 0.98527 0.10063 0.0
C3711 C 0.40258 0.00516 0.06549 0.0
C3712 C 0.41805 0.01754 0.09552 0.0
C3713 C 0.39605 0.0065 0.05599 0.0
C3714 C 0.43395 0.00348 0.13924 0.0
C3715 C 0.42913 0.00656 0.12929 0.0
C3716 C 0.41339 0.99437 0.09923 0.0
C3717 C 0.40379 0.01054 0.07727 0.0
C3718 C 0.40996 0.00827 0.08758 0.0
C3719 C 0.42748 0.00103 0.1175 0.0
C3720 C 0.42157 0.00363 0.10714 0.0
H3721 H 0.38792 0.02422 0.07153 0.0
H3722 H 0.39934 0.02181 0.08824 0.0
H3723 H 0.40132 0.98929 0.08375 0.0
H3724 H 0.43809 0.98262 0.1243 0.0
H3725 H 0.43006 0.98824 0.10685 0.0
C3726 C 0.37407 0.9842 0.94277 0.0
C3727 C 0.37798 0.98869 0.95494 0.0
C3728 C 0.38225 0.98565 0.93354 0.0
C3729 C 0.41328 0.00589 0.92556 0.0
H3730 H 0.40888 0.9815 0.90145 0.0
C3731 C 0.44921 0.01498 0.88962 0.0
C3732 C 0.4454 0.01079 0.87735 0.0
C3733 C 0.44109 0.01109 0.89938 0.0
C3734 C 0.41018 0.98844 0.90805 0.0
H3735 H 0.39353 0.99806 0.967 0.0
H3736 H 0.4077 0.00044 0.951 0.0
H3737 H 0.39425 0.97674 0.9179 0.0
H3738 H 0.43013 0.9994 0.86566 0.0
H3739 H 0.41586 0.99279 0.88265 0.0
H3740 H 0.42896 0.01769 0.91565 0.0
C3741 C 0.39833 0.99585 0.94857 0.0
C3742 C 0.40181 0.9857 0.91747 0.0
C3743 C 0.39019 0.99435 0.95777 0.0
C3744 C 0.43332 0.00259 0.87507 0.0
C3745 C 0.42517 0.99878 0.88482 0.0
C3746 C 0.42157 0.00865 0.91613 0.0
C3747 C 0.39448 0.99171 0.9363 0.0
C3748 C 0.40331 0.9944 0.92634 0.0
C3749 C 0.42893 0.00313 0.89707 0.0
C3750 C 0.42016 0.99997 0.90726 0.0
H3751 H 0.36471 0.97972 0.94033 0.0
H3752 H 0.37903 0.98242 0.92415 0.0
H3753 H 0.41456 0.01285 0.93211 0.0
H3754 H 0.45842 0.02145 0.89166 0.0
H3755 H 0.44434 0.01449 0.90872 0.0
C3756 C 0.01782 0.4026 0.95978 0.0
C3757 C 0.01956 0.39304 0.95689 0.0
C3758 C 0.01697 0.40941 0.95032 0.0
C3759 C 0.00917 0.40696 0.9168 0.0
H3760 H 0.01726 0.43975 0.92191 0.0
C3761 C 0.99843 0.43226 0.88004 0.0
C3762 C 0.99205 0.43748 0.88473 0.0
C3763 C 0.00401 0.42824 0.88816 0.0
C3764 C 0.01499 0.4306 0.92036 0.0
H3765 H 0.02251 0.38364 0.94175 0.0
H3766 H 0.02155 0.39586 0.92529 0.0
H3767 H 0.02374 0.4304 0.9372 0.0
H3768 H 0.98647 0.4425 0.90167 0.0
H3769 H 0.99646 0.43574 0.91582 0.0
H3770 H 0.0004 0.40719 0.89997 0.0
C3771 C 0.02047 0.39786 0.93487 0.0
C3772 C 0.01864 0.42521 0.92913 0.0
C3773 C 0.0212 0.39095 0.94434 0.0
C3774 C 0.99153 0.43877 0.89774 0.0
C3775 C 0.99725 0.4349 0.90584 0.0
C3776 C 0.00566 0.4124 0.90797 0.0
C3777 C 0.01799 0.40696 0.93771 0.0
C3778 C 0.01553 0.41322 0.92762 0.0
C3779 C 0.00337 0.42942 0.90114 0.0
C3780 C 0.0083 0.42418 0.9098 0.0
H3781 H 0.01676 0.40462 0.96936 0.0
H3782 H 0.01497 0.41626 0.95293 0.0
H3783 H 0.00642 0.39766 0.91538 0.0
H3784 H 0.99881 0.43099 0.87008 0.0
H3785 H 0.00867 0.42405 0.88429 0.0
C3786 C 0.59315 0.62238 0.9662 0.0
C3787 C 0.60513 0.62982 0.96301 0.0
C3788 C 0.58427 0.61779 0.95698 0.0
C3789 C 0.57745 0.62243 0.92496 0.0
H3790 H 0.55418 0.58867 0.92541 0.0
C3791 C 0.53613 0.59993 0.89227 0.0
C3792 C 0.53366 0.58915 0.88652 0.0
C3793 C 0.54481 0.60518 0.90165 0.0
C3794 C 0.56064 0.5981 0.92515 0.0
H3795 H 0.61712 0.6383 0.94758 0.0
H3796 H 0.60158 0.63044 0.93155 0.0
H3797 H 0.56939 0.59748 0.94182 0.0
H3798 H 0.53885 0.57575 0.88563 0.0
H3799 H 0.55385 0.58479 0.9022 0.0
H3800 H 0.56872 0.62302 0.90823 0.0
C3801 C 0.59908 0.62823 0.94121 0.0
C3802 C 0.56927 0.60316 0.9346 0.0
C3803 C 0.60798 0.63276 0.95041 0.0
C3804 C 0.5403 0.58388 0.89013 0.0
C3805 C 0.54889 0.58905 0.89959 0.0
C3806 C 0.56874 0.61739 0.91558 0.0
C3807 C 0.58716 0.62061 0.94439 0.0
C3808 C 0.5778 0.61536 0.93456 0.0
C3809 C 0.55121 0.59973 0.90547 0.0
C3810 C 0.5603 0.60516 0.91555 0.0
H3811 H 0.59061 0.62012 0.97583 0.0
H3812 H 0.57513 0.61206 0.95971 0.0
H3813 H 0.58388 0.63187 0.92474 0.0
H3814 H 0.53131 0.6043 0.88948 0.0
H3815 H 0.54642 0.61341 0.90603 0.0
C3816 C 0.00698 0.61801 0.96151 0.0
C3817 C 0.01594 0.62985 0.9641 0.0
C3818 C 0.0083 0.61143 0.95193 0.0
C3819 C 0.02294 0.61441 0.92226 0.0
H3820 H 0.01595 0.58217 0.92812 0.0
C3821 C 0.01613 0.581 0.88254 0.0
C3822 C 0.02214 0.57468 0.88388 0.0
C3823 C 0.01578 0.58792 0.89242 0.0
C3824 C 0.01798 0.59118 0.92637 0.0
H3825 H 0.03338 0.64396 0.95856 0.0
H3826 H 0.03549 0.63252 0.94154 0.0
H3827 H 0.01481 0.59403 0.94537 0.0
H3828 H 0.03293 0.57105 0.89649 0.0
H3829 H 0.03203 0.58288 0.91387 0.0
H3830 H 0.02593 0.61149 0.90322 0.0
C3831 C 0.02747 0.62839 0.94704 0.0
C3832 C 0.01726 0.59792 0.9362 0.0
C3833 C 0.02623 0.63494 0.95676 0.0
C3834 C 0.02795 0.57556 0.89527 0.0
C3835 C 0.02747 0.58235 0.9052 0.0
C3836 C 0.02349 0.6076 0.91238 0.0
C3837 C 0.01852 0.61657 0.94457 0.0
C3838 C 0.01971 0.60959 0.93424 0.0
C3839 C 0.02142 0.58863 0.90385 0.0
C3840 C 0.02099 0.59591 0.91435 0.0
H3841 H 0.99879 0.61385 0.96672 0.0
H3842 H 0.00119 0.60239 0.95009 0.0
H3843 H 0.02478 0.62335 0.92049 0.0
H3844 H 0.01177 0.58065 0.87379 0.0
H3845 H 0.01102 0.59264 0.89115 0.0
C3846 C 0.37008 0.39469 0.94156 0.0
C3847 C 0.36955 0.39763 0.95413 0.0
C3848 C 0.37459 0.40349 0.93249 0.0
C3849 C 0.39327 0.43617 0.92873 0.0
H3850 H 0.37786 0.42947 0.89623 0.0
C3851 C 0.40249 0.47267 0.89287 0.0
C3852 C 0.4033 0.47008 0.88026 0.0
C3853 C 0.39917 0.4639 0.90189 0.0
C3854 C 0.38236 0.43144 0.90521 0.0
H3855 H 0.3735 0.41221 0.96699 0.0
H3856 H 0.38102 0.42747 0.95113 0.0
H3857 H 0.37032 0.41401 0.9119 0.0
H3858 H 0.40111 0.45629 0.86718 0.0
H3859 H 0.39537 0.44097 0.88294 0.0
H3860 H 0.40518 0.45369 0.92206 0.0
C3861 C 0.3781 0.41838 0.94831 0.0
C3862 C 0.37804 0.42257 0.9142 0.0
C3863 C 0.37362 0.40959 0.95738 0.0
C3864 C 0.40073 0.45856 0.87686 0.0
C3865 C 0.39735 0.44978 0.88586 0.0
C3866 C 0.39755 0.44506 0.91976 0.0
C3867 C 0.37867 0.41545 0.93575 0.0
C3868 C 0.38342 0.42483 0.92609 0.0
C3869 C 0.39641 0.45232 0.89846 0.0
C3870 C 0.39212 0.4428 0.9079 0.0
H3871 H 0.36692 0.38556 0.9387 0.0
H3872 H 0.375 0.40093 0.92293 0.0
H3873 H 0.39776 0.43817 0.93772 0.0
H3874 H 0.40416 0.4814 0.89572 0.0
H3875 H 0.39837 0.46609 0.9115 0.0
C3876 C 0.618 0.99588 0.95058 0.0
C3877 C 0.61639 0.98579 0.95693 0.0
C3878 C 0.60975 0.99492 0.94164 0.0
C3879 C 0.58502 0.97308 0.92126 0.0
H3880 H 0.57831 0.99877 0.91867 0.0
C3881 C 0.54852 0.97076 0.88844 0.0
C3882 C 0.55219 0.98071 0.88083 0.0
C3883 C 0.55576 0.9711 0.89828 0.0
C3884 C 0.58014 0.99155 0.91926 0.0
H3885 H 0.60477 0.96672 0.9587 0.0
H3886 H 0.59014 0.96511 0.94342 0.0
H3887 H 0.592 0.99973 0.93479 0.0
H3888 H 0.56611 0.99893 0.87779 0.0
H3889 H 0.57866 0.99959 0.8951 0.0
H3890 H 0.573 0.96488 0.90578 0.0
C3891 C 0.59793 0.97375 0.94521 0.0
C3892 C 0.58802 0.99211 0.92845 0.0
C3893 C 0.60626 0.9747 0.95409 0.0
C3894 C 0.56306 0.99112 0.88349 0.0
C3895 C 0.57022 0.99151 0.89342 0.0
C3896 C 0.57703 0.97247 0.91215 0.0
C3897 C 0.59955 0.98387 0.9389 0.0
C3898 C 0.5907 0.98296 0.92947 0.0
C3899 C 0.56671 0.98147 0.90082 0.0
C3900 C 0.57462 0.98177 0.91096 0.0
H3901 H 0.62557 0.00461 0.95264 0.0
H3902 H 0.61141 0.00288 0.93684 0.0
H3903 H 0.58697 0.96595 0.92165 0.0
H3904 H 0.54013 0.96266 0.88666 0.0
H3905 H 0.55278 0.96328 0.90393 0.0
C3906 C 0.62559 0.02392 0.05876 0.0
C3907 C 0.63244 0.01865 0.06137 0.0
C3908 C 0.61882 0.02516 0.0681 0.0
C3909 C 0.60389 0.0119 0.09738 0.0
H3910 H 0.60373 0.04132 0.10248 0.0
C3911 C 0.5806 0.01905 0.13941 0.0
C3912 C 0.57483 0.02556 0.13762 0.0
C3913 C 0.5875 0.0182 0.12998 0.0
C3914 C 0.60351 0.03298 0.10106 0.0
H3915 H 0.6376 0.01057 0.07578 0.0
H3916 H 0.62575 0.01272 0.0921 0.0
H3917 H 0.61619 0.04008 0.08631 0.0
H3918 H 0.57209 0.03659 0.12464 0.0
H3919 H 0.58377 0.03476 0.10797 0.0
H3920 H 0.59108 0.00468 0.11192 0.0
C3921 C 0.62563 0.0159 0.08284 0.0
C3922 C 0.6107 0.03229 0.09183 0.0
C3923 C 0.6325 0.01478 0.07354 0.0
C3924 C 0.57622 0.03131 0.12621 0.0
C3925 C 0.58305 0.03038 0.11672 0.0
C3926 C 0.59661 0.01253 0.10652 0.0
C3927 C 0.61865 0.02102 0.08019 0.0
C3928 C 0.61101 0.02177 0.08994 0.0
C3929 C 0.58883 0.02386 0.1185 0.0
C3930 C 0.59637 0.0231 0.10854 0.0
H3931 H 0.62542 0.02703 0.04947 0.0
H3932 H 0.61348 0.02909 0.06579 0.0
H3933 H 0.6038 0.00361 0.09599 0.0
H3934 H 0.5799 0.01477 0.14822 0.0
H3935 H 0.59201 0.01332 0.13181 0.0
C3936 C 0.9797 0.60217 0.06226 0.0
C3937 C 0.98499 0.61415 0.06614 0.0
C3938 C 0.97837 0.59345 0.07061 0.0
C3939 C 0.9779 0.58736 0.10433 0.0
H3940 H 0.98322 0.56218 0.09256 0.0
C3941 C 0.97888 0.55334 0.13759 0.0
C3942 C 0.97252 0.54135 0.13364 0.0
C3943 C 0.98091 0.56239 0.12936 0.0
C3944 C 0.98162 0.5691 0.09596 0.0
H3945 H 0.99286 0.62631 0.08196 0.0
H3946 H 0.99081 0.61113 0.09646 0.0
H3947 H 0.98574 0.57771 0.0783 0.0
H3948 H 0.96301 0.52943 0.11808 0.0
H3949 H 0.96666 0.54527 0.10364 0.0
H3950 H 0.97386 0.57876 0.12202 0.0
C3951 C 0.98755 0.60845 0.08698 0.0
C3952 C 0.98303 0.57799 0.08779 0.0
C3953 C 0.98884 0.61718 0.07862 0.0
C3954 C 0.96819 0.5386 0.12129 0.0
C3955 C 0.97027 0.54767 0.11304 0.0
C3956 C 0.97656 0.5785 0.11252 0.0
C3957 C 0.98235 0.59648 0.08305 0.0
C3958 C 0.98111 0.58719 0.09185 0.0
C3959 C 0.97657 0.55966 0.11701 0.0
C3960 C 0.97834 0.56924 0.1084 0.0
H3961 H 0.97678 0.59952 0.05268 0.0
H3962 H 0.97417 0.5843 0.06731 0.0
H3963 H 0.97619 0.5942 0.10773 0.0
H3964 H 0.98216 0.55569 0.14711 0.0
H3965 H 0.98586 0.57155 0.13267 0.0
C3966 C 0.41006 0.37138 0.05305 0.0
C3967 C 0.40211 0.37562 0.05236 0.0
C3968 C 0.41883 0.37559 0.06238 0.0
C3969 C 0.4342 0.39974 0.08644 0.0
H3970 H 0.44041 0.37674 0.10209 0.0
C3971 C 0.45625 0.40662 0.13512 0.0
C3972 C 0.4647 0.40306 0.13656 0.0
C3973 C 0.44989 0.40434 0.12391 0.0
C3974 C 0.43889 0.3833 0.09771 0.0
H3975 H 0.39707 0.38757 0.06087 0.0
H3976 H 0.41214 0.3947 0.07734 0.0
H3977 H 0.42681 0.37063 0.08431 0.0
H3978 H 0.4734 0.3947 0.12731 0.0
H3979 H 0.46211 0.39053 0.10775 0.0
H3980 H 0.44599 0.41228 0.10024 0.0
C3981 C 0.41186 0.38837 0.0705 0.0
C3982 C 0.43111 0.37982 0.08748 0.0
C3983 C 0.40318 0.38426 0.06109 0.0
C3984 C 0.46688 0.39746 0.12646 0.0
C3985 C 0.46042 0.39506 0.11531 0.0
C3986 C 0.44188 0.40319 0.09677 0.0
C3987 C 0.41975 0.38403 0.07133 0.0
C3988 C 0.42858 0.38796 0.08177 0.0
C3989 C 0.45176 0.39835 0.11398 0.0
C3990 C 0.44423 0.39497 0.10256 0.0
H3991 H 0.40952 0.36483 0.04634 0.0
H3992 H 0.42489 0.37221 0.06258 0.0
H3993 H 0.43265 0.40632 0.08215 0.0
H3994 H 0.4544 0.41095 0.14275 0.0
H3995 H 0.4432 0.40689 0.12318 0.0
C3996 C 0.62995 0.69751 0.39636 0.0
C3997 C 0.64016 0.70491 0.3895 0.0
C3998 C 0.62593 0.70234 0.40552 0.0
C3999 C 0.6294 0.73124 0.41654 0.0
H4000 H 0.61527 0.71374 0.44675 0.0
C4001 C 0.62211 0.75245 0.4608 0.0
C4002 C 0.61068 0.74629 0.46596 0.0
C4003 C 0.62531 0.74723 0.45127 0.0
C4004 C 0.61912 0.71868 0.43831 0.0
H4005 H 0.65438 0.72308 0.38703 0.0
H4006 H 0.64768 0.73149 0.40326 0.0
H4007 H 0.62173 0.70497 0.43057 0.0
H4008 H 0.59392 0.72962 0.46564 0.0
H4009 H 0.59962 0.72039 0.44909 0.0
H4010 H 0.62713 0.7451 0.42456 0.0
C4011 C 0.64247 0.72201 0.40134 0.0
C4012 C 0.62278 0.71365 0.429 0.0
C4013 C 0.64637 0.7172 0.39206 0.0
C4014 C 0.60269 0.73464 0.46166 0.0
C4015 C 0.60597 0.72935 0.45227 0.0
C4016 C 0.62591 0.73633 0.42593 0.0
C4017 C 0.63216 0.71467 0.40816 0.0
C4018 C 0.628 0.71988 0.41799 0.0
C4019 C 0.61728 0.73563 0.44694 0.0
C4020 C 0.62077 0.73011 0.43691 0.0
H4021 H 0.62496 0.68801 0.39449 0.0
H4022 H 0.61786 0.69642 0.41041 0.0
H4023 H 0.63311 0.73621 0.4081 0.0
H4024 H 0.6286 0.7613 0.46412 0.0
H4025 H 0.63416 0.75218 0.44744 0.0
C4026 C 0.28059 0.93098 0.40369 0.0
C4027 C 0.29279 0.93716 0.40111 0.0
C4028 C 0.27601 0.92217 0.41272 0.0
C4029 C 0.28495 0.91054 0.43967 0.0
H4030 H 0.2536 0.88294 0.43428 0.0
C4031 C 0.2648 0.86851 0.47048 0.0
C4032 C 0.25321 0.86452 0.47467 0.0
C4033 C 0.26991 0.87736 0.46149 0.0
C4034 C 0.26234 0.89063 0.43592 0.0
H4035 H 0.30976 0.93896 0.40585 0.0
H4036 H 0.30174 0.92331 0.42138 0.0
H4037 H 0.26206 0.89828 0.41851 0.0
H4038 H 0.2381 0.86715 0.47312 0.0
H4039 H 0.24689 0.88231 0.45715 0.0
H4040 H 0.28525 0.90262 0.457 0.0
C4041 C 0.29573 0.92545 0.41669 0.0
C4042 C 0.26719 0.89947 0.42692 0.0
C4043 C 0.30033 0.93439 0.40776 0.0
C4044 C 0.24692 0.86976 0.46985 0.0
C4045 C 0.25195 0.87846 0.46073 0.0
C4046 C 0.28016 0.9016 0.44859 0.0
C4047 C 0.28349 0.9192 0.41928 0.0
C4048 C 0.27851 0.90962 0.42873 0.0
C4049 C 0.26348 0.88234 0.45647 0.0
C4050 C 0.26877 0.89162 0.44684 0.0
H4051 H 0.27461 0.93307 0.39881 0.0
H4052 H 0.2666 0.91778 0.41465 0.0
H4053 H 0.29361 0.91829 0.4415 0.0
H4054 H 0.26992 0.86479 0.47421 0.0
H4055 H 0.27883 0.88022 0.45836 0.0
C4056 C 0.07425 0.35155 0.39525 0.0
C4057 C 0.0693 0.3584 0.39144 0.0
C4058 C 0.08302 0.35579 0.40457 0.0
C4059 C 0.10651 0.38298 0.41931 0.0
H4060 H 0.10309 0.36269 0.44705 0.0
C4061 C 0.13935 0.40005 0.46121 0.0
C4062 C 0.14222 0.39208 0.4667 0.0
C4063 C 0.13039 0.3961 0.4521 0.0
C4064 C 0.10431 0.36842 0.43928 0.0
H4065 H 0.06971 0.3751 0.39424 0.0
H4066 H 0.08526 0.38265 0.41045 0.0
H4067 H 0.08772 0.35549 0.43088 0.0
H4068 H 0.1376 0.37358 0.46722 0.0
H4069 H 0.12244 0.36681 0.45095 0.0
H4070 H 0.12325 0.39578 0.42742 0.0
C4071 C 0.08227 0.37396 0.40625 0.0
C4072 C 0.09545 0.3643 0.43006 0.0
C4073 C 0.07335 0.36962 0.39706 0.0
C4074 C 0.1358 0.38002 0.46299 0.0
C4075 C 0.12697 0.3761 0.45377 0.0
C4076 C 0.11547 0.38705 0.42843 0.0
C4077 C 0.08714 0.36705 0.41014 0.0
C4078 C 0.09647 0.37153 0.41999 0.0
C4079 C 0.12409 0.38407 0.44823 0.0
C4080 C 0.1145 0.37981 0.43854 0.0
H4081 H 0.07122 0.34282 0.39112 0.0
H4082 H 0.08668 0.35033 0.40735 0.0
H4083 H 0.10755 0.38868 0.41156 0.0
H4084 H 0.14396 0.40934 0.46411 0.0
H4085 H 0.12827 0.40247 0.44827 0.0
C4086 C 0.03506 0.29234 0.28753 0.0
C4087 C 0.04186 0.3032 0.29403 0.0
C4088 C 0.04016 0.289 0.27799 0.0
C4089 C 0.06407 0.30159 0.25517 0.0
H4090 H 0.06077 0.2703 0.2542 0.0
C4091 C 0.09093 0.29024 0.2209 0.0
C4092 C 0.08551 0.27866 0.21574 0.0
C4093 C 0.08544 0.293 0.23047 0.0
C4094 C 0.06163 0.27902 0.2542 0.0
H4095 H 0.05922 0.31915 0.29558 0.0
H4096 H 0.06806 0.31337 0.27889 0.0
H4097 H 0.05122 0.27539 0.27075 0.0
H4098 H 0.06983 0.2611 0.21612 0.0
H4099 H 0.06006 0.26597 0.2326 0.0
H4100 H 0.07423 0.30521 0.23854 0.0
C4101 C 0.05884 0.30741 0.2812 0.0
C4102 C 0.05619 0.28193 0.26372 0.0
C4103 C 0.05381 0.31066 0.29081 0.0
C4104 C 0.07433 0.27001 0.22014 0.0
C4105 C 0.06877 0.27281 0.22962 0.0
C4106 C 0.06939 0.29864 0.24558 0.0
C4107 C 0.05207 0.29657 0.27467 0.0
C4108 C 0.05745 0.29328 0.26435 0.0
C4109 C 0.07426 0.28434 0.23494 0.0
C4110 C 0.06834 0.28735 0.24502 0.0
H4111 H 0.02584 0.28641 0.28985 0.0
H4112 H 0.03473 0.28062 0.27306 0.0
H4113 H 0.06504 0.31035 0.25534 0.0
H4114 H 0.09943 0.29718 0.21754 0.0
H4115 H 0.09002 0.30194 0.23442 0.0
C4116 C 0.70388 0.73573 0.28566 0.0
C4117 C 0.69309 0.732 0.2918 0.0
C4118 C 0.70785 0.74461 0.27668 0.0
C4119 C 0.69734 0.75849 0.25454 0.0
H4120 H 0.72943 0.78552 0.2565 0.0
C4121 C 0.71219 0.7995 0.22378 0.0
C4122 C 0.72393 0.8055 0.21943 0.0
C4123 C 0.70861 0.79051 0.23255 0.0
C4124 C 0.7205 0.77795 0.25567 0.0
H4125 H 0.6779 0.73443 0.29323 0.0
H4126 H 0.68478 0.74985 0.27745 0.0
H4127 H 0.72292 0.76967 0.27169 0.0
H4128 H 0.7409 0.80634 0.22036 0.0
H4129 H 0.73459 0.79041 0.23542 0.0
H4130 H 0.69491 0.76653 0.23842 0.0
C4131 C 0.69018 0.74596 0.27962 0.0
C4132 C 0.71677 0.7689 0.26442 0.0
C4133 C 0.6863 0.73722 0.28871 0.0
C4134 C 0.73189 0.80206 0.22379 0.0
C4135 C 0.72827 0.79296 0.23246 0.0
C4136 C 0.70109 0.76745 0.24571 0.0
C4137 C 0.70101 0.74977 0.27355 0.0
C4138 C 0.70513 0.75914 0.264 0.0
C4139 C 0.71658 0.78708 0.23698 0.0
C4140 C 0.71269 0.77737 0.24622 0.0
H4141 H 0.7093 0.73188 0.28791 0.0
H4142 H 0.7162 0.74735 0.27207 0.0
H4143 H 0.68835 0.75097 0.25392 0.0
H4144 H 0.70576 0.80175 0.2204 0.0
H4145 H 0.69958 0.7863 0.23591 0.0
C4146 C 0.2671 0.95898 0.29033 0.0
C4147 C 0.26608 0.96465 0.30111 0.0
C4148 C 0.25815 0.95439 0.28119 0.0
C4149 C 0.22639 0.94445 0.27628 0.0
H4150 H 0.23476 0.94744 0.24128 0.0
C4151 C 0.19184 0.93168 0.23638 0.0
C4152 C 0.19275 0.92537 0.22611 0.0
C4153 C 0.20071 0.93648 0.24562 0.0
C4154 C 0.23228 0.94643 0.25102 0.0
H4155 H 0.25496 0.97009 0.31067 0.0
H4156 H 0.23936 0.96217 0.29465 0.0
H4157 H 0.25042 0.95602 0.25717 0.0
H4158 H 0.20376 0.91936 0.21734 0.0
H4159 H 0.21924 0.9277 0.23352 0.0
H4160 H 0.20824 0.93491 0.27008 0.0
C4161 C 0.24699 0.96109 0.29336 0.0
C4162 C 0.24125 0.95135 0.26013 0.0
C4163 C 0.25593 0.96565 0.30253 0.0
C4164 C 0.20278 0.92408 0.22522 0.0
C4165 C 0.21167 0.92893 0.23442 0.0
C4166 C 0.21742 0.93958 0.26716 0.0
C4167 C 0.24798 0.95538 0.28259 0.0
C4168 C 0.23842 0.95037 0.27288 0.0
C4169 C 0.21074 0.9352 0.24472 0.0
C4170 C 0.22026 0.94047 0.25442 0.0
H4171 H 0.27471 0.95787 0.28906 0.0
H4172 H 0.25911 0.94986 0.27312 0.0
H4173 H 0.22389 0.94338 0.28602 0.0
H4174 H 0.1843 0.93297 0.2372 0.0
H4175 H 0.19982 0.94141 0.25334 0.0
C4176 C 0.6908 0.94727 0.29073 0.0
C4177 C 0.69794 0.95599 0.29966 0.0
C4178 C 0.69595 0.94397 0.28126 0.0
C4179 C 0.72454 0.95494 0.26482 0.0
H4180 H 0.70847 0.9229 0.25076 0.0
C4181 C 0.74498 0.94002 0.22597 0.0
C4182 C 0.73759 0.93483 0.21542 0.0
C4183 C 0.74041 0.94178 0.23704 0.0
C4184 C 0.71304 0.93188 0.25461 0.0
H4185 H 0.71601 0.96783 0.30602 0.0
H4186 H 0.72505 0.96181 0.28977 0.0
H4187 H 0.70019 0.92746 0.26896 0.0
H4188 H 0.71955 0.92693 0.20836 0.0
H4189 H 0.71149 0.92978 0.22782 0.0
H4190 H 0.73745 0.95927 0.25052 0.0
C4191 C 0.71548 0.95774 0.2898 0.0
C4192 C 0.70827 0.93453 0.26499 0.0
C4193 C 0.71032 0.96116 0.29915 0.0
C4194 C 0.72545 0.93099 0.21633 0.0
C4195 C 0.72083 0.93257 0.22746 0.0
C4196 C 0.72938 0.95224 0.25457 0.0
C4197 C 0.70837 0.94922 0.28061 0.0
C4198 C 0.71387 0.94615 0.27013 0.0
C4199 C 0.72831 0.93817 0.23785 0.0
C4200 C 0.72359 0.94074 0.24927 0.0
H4201 H 0.68122 0.94326 0.29081 0.0
H4202 H 0.69018 0.93757 0.27425 0.0
H4203 H 0.729 0.96404 0.26833 0.0
H4204 H 0.75435 0.94294 0.22556 0.0
H4205 H 0.74633 0.94601 0.24497 0.0
C4206 C 0.03965 0.73375 0.27935 0.0
C4207 C 0.03892 0.73693 0.29177 0.0
C4208 C 0.04335 0.74216 0.26991 0.0
C4209 C 0.0596 0.77471 0.26475 0.0
H4210 H 0.04427 0.76541 0.23217 0.0
C4211 C 0.06681 0.80843 0.22613 0.0
C4212 C 0.06804 0.8053 0.21384 0.0
C4213 C 0.06383 0.80028 0.23577 0.0
C4214 C 0.04873 0.76811 0.24118 0.0
H4215 H 0.04157 0.75151 0.30397 0.0
H4216 H 0.0477 0.76609 0.28746 0.0
H4217 H 0.03768 0.75081 0.24871 0.0
H4218 H 0.0669 0.79116 0.20199 0.0
H4219 H 0.06174 0.77694 0.21883 0.0
H4220 H 0.07054 0.79207 0.2572 0.0
C4221 C 0.04557 0.75713 0.28504 0.0
C4222 C 0.04496 0.75974 0.25066 0.0
C4223 C 0.0419 0.74872 0.29449 0.0
C4224 C 0.06619 0.79386 0.21141 0.0
C4225 C 0.06313 0.7857 0.22102 0.0
C4226 C 0.06333 0.7831 0.25527 0.0
C4227 C 0.04638 0.75396 0.27263 0.0
C4228 C 0.05036 0.76292 0.26257 0.0
C4229 C 0.06181 0.78878 0.23329 0.0
C4230 C 0.05795 0.77988 0.24337 0.0
H4231 H 0.03729 0.72472 0.27689 0.0
H4232 H 0.04398 0.73944 0.26049 0.0
H4233 H 0.06408 0.77742 0.27374 0.0
H4234 H 0.06792 0.81709 0.22823 0.0
H4235 H 0.06272 0.80286 0.24509 0.0
C4236 C 0.25708 0.29416 0.29474 0.0
C4237 C 0.26683 0.30584 0.29432 0.0
C4238 C 0.24833 0.28982 0.28535 0.0
C4239 C 0.23648 0.29959 0.25928 0.0
H4240 H 0.22446 0.26739 0.24676 0.0
C4241 C 0.21286 0.2826 0.21144 0.0
C4242 C 0.20306 0.27097 0.21065 0.0
C4243 C 0.21951 0.28686 0.2225 0.0
C4244 C 0.2276 0.27635 0.25027 0.0
H4245 H 0.27479 0.32221 0.28384 0.0
H4246 H 0.25983 0.31453 0.26732 0.0
H4247 H 0.23824 0.27475 0.26446 0.0
H4248 H 0.19236 0.25476 0.22087 0.0
H4249 H 0.20402 0.26219 0.24024 0.0
H4250 H 0.22607 0.30125 0.2448 0.0
C4251 C 0.25882 0.30875 0.27498 0.0
C4252 C 0.23549 0.28057 0.26044 0.0
C4253 C 0.26752 0.31311 0.28438 0.0
C4254 C 0.19988 0.26377 0.22124 0.0
C4255 C 0.20658 0.26799 0.23228 0.0
C4256 C 0.22865 0.29539 0.24906 0.0
C4257 C 0.24914 0.29703 0.2753 0.0
C4258 C 0.24015 0.29229 0.26499 0.0
C4259 C 0.21655 0.27954 0.23298 0.0
C4260 C 0.22421 0.28376 0.24436 0.0
H4261 H 0.2563 0.28829 0.3022 0.0
H4262 H 0.24093 0.28079 0.28599 0.0
H4263 H 0.23969 0.30858 0.26268 0.0
H4264 H 0.21556 0.28831 0.2034 0.0
H4265 H 0.22721 0.29575 0.2227 0.0
C4266 C 0.29474 0.37026 0.39369 0.0
C4267 C 0.29555 0.36006 0.39578 0.0
C4268 C 0.2906 0.3748 0.40303 0.0
C4269 C 0.27318 0.36651 0.4321 0.0
H4270 H 0.29009 0.40053 0.43878 0.0
C4271 C 0.26679 0.38718 0.47725 0.0
C4272 C 0.26714 0.3981 0.47649 0.0
C4273 C 0.26923 0.38228 0.4668 0.0
C4274 C 0.28514 0.39103 0.43692 0.0
H4275 H 0.2924 0.3465 0.40925 0.0
H4276 H 0.28534 0.35451 0.42558 0.0
H4277 H 0.29637 0.39253 0.42169 0.0
H4278 H 0.27037 0.4125 0.46422 0.0
H4279 H 0.27441 0.40385 0.44585 0.0
H4280 H 0.26201 0.36499 0.44739 0.0
C4281 C 0.28784 0.35896 0.41669 0.0
C4282 C 0.28876 0.38644 0.42712 0.0
C4283 C 0.29203 0.35445 0.40739 0.0
C4284 C 0.26988 0.40399 0.46502 0.0
C4285 C 0.27231 0.39909 0.45455 0.0
C4286 C 0.26955 0.3711 0.44188 0.0
C4287 C 0.2871 0.36921 0.41464 0.0
C4288 C 0.2829 0.37412 0.42468 0.0
C4289 C 0.27216 0.38824 0.45535 0.0
C4290 C 0.27555 0.38341 0.44449 0.0
H4291 H 0.29747 0.37483 0.38488 0.0
H4292 H 0.29005 0.38265 0.40112 0.0
H4293 H 0.26836 0.35699 0.43032 0.0
H4294 H 0.26491 0.38257 0.48603 0.0
H4295 H 0.26922 0.37402 0.46781 0.0
C4296 C 0.63509 0.91873 0.39485 0.0
C4297 C 0.64058 0.93099 0.39758 0.0
C4298 C 0.63062 0.91041 0.40439 0.0
C4299 C 0.62064 0.90704 0.43716 0.0
H4300 H 0.62198 0.87801 0.43498 0.0
C4301 C 0.60442 0.87307 0.47688 0.0
C4302 C 0.59667 0.86117 0.47325 0.0
C4303 C 0.61079 0.88169 0.46797 0.0
C4304 C 0.62151 0.88606 0.43567 0.0
H4305 H 0.64577 0.9441 0.41257 0.0
H4306 H 0.6383 0.92962 0.42925 0.0
H4307 H 0.63143 0.89306 0.41895 0.0
H4308 H 0.58943 0.84897 0.45739 0.0
H4309 H 0.60077 0.864 0.44181 0.0
H4310 H 0.61077 0.90004 0.45392 0.0
C4311 C 0.63725 0.92641 0.41969 0.0
C4312 C 0.62688 0.89467 0.42648 0.0
C4313 C 0.64168 0.93473 0.41013 0.0
C4314 C 0.59552 0.85802 0.4605 0.0
C4315 C 0.602 0.86662 0.45159 0.0
C4316 C 0.61537 0.89849 0.4464 0.0
C4317 C 0.63158 0.91414 0.41693 0.0
C4318 C 0.62641 0.90522 0.42704 0.0
C4319 C 0.60956 0.87858 0.45522 0.0
C4320 C 0.61567 0.88787 0.4457 0.0
H4321 H 0.63426 0.91552 0.38531 0.0
H4322 H 0.6262 0.90105 0.40188 0.0
H4323 H 0.6199 0.91494 0.43779 0.0
H4324 H 0.60532 0.87576 0.48662 0.0
H4325 H 0.61659 0.89083 0.47103 0.0
C4326 C 0.08113 0.71121 0.39176 0.0
C4327 C 0.07277 0.71496 0.3918 0.0
C4328 C 0.08976 0.71497 0.4012 0.0
C4329 C 0.10396 0.73706 0.42736 0.0
H4330 H 0.11105 0.71353 0.43989 0.0
C4331 C 0.12624 0.74072 0.47535 0.0
C4332 C 0.13486 0.73731 0.47588 0.0
C4333 C 0.11985 0.73921 0.46432 0.0
C4334 C 0.10929 0.72025 0.43639 0.0
H4335 H 0.06692 0.72566 0.40166 0.0
H4336 H 0.08177 0.732 0.41834 0.0
H4337 H 0.09758 0.70852 0.42214 0.0
H4338 H 0.14379 0.72997 0.46521 0.0
H4339 H 0.1325 0.72719 0.44592 0.0
H4340 H 0.11539 0.74862 0.442 0.0
C4341 C 0.08188 0.72639 0.41087 0.0
C4342 C 0.10158 0.7174 0.42618 0.0
C4343 C 0.07334 0.72273 0.40134 0.0
C4344 C 0.13717 0.73264 0.46506 0.0
C4345 C 0.13069 0.73101 0.45406 0.0
C4346 C 0.11158 0.73987 0.43767 0.0
C4347 C 0.09013 0.72246 0.411 0.0
C4348 C 0.09876 0.72574 0.42156 0.0
C4349 C 0.12185 0.73413 0.45363 0.0
C4350 C 0.11427 0.73146 0.44232 0.0
H4351 H 0.081 0.70535 0.38441 0.0
H4352 H 0.09612 0.71197 0.40082 0.0
H4353 H 0.10215 0.74378 0.42394 0.0
H4354 H 0.12426 0.74431 0.48356 0.0
H4355 H 0.11302 0.7416 0.46429 0.0
C4356 C 0.29314 0.03678 0.71809 0.0
C4357 C 0.30374 0.03676 0.72024 0.0
C4358 C 0.28853 0.04096 0.72729 0.0
C4359 C 0.29042 0.04777 0.76126 0.0
H4360 H 0.27654 0.06669 0.75153 0.0
C4361 C 0.27929 0.07428 0.79681 0.0
C4362 C 0.2683 0.07367 0.79528 0.0
C4363 C 0.28342 0.06956 0.78767 0.0
C4364 C 0.28028 0.06132 0.75438 0.0
H4365 H 0.31793 0.04125 0.73365 0.0
H4366 H 0.31001 0.04869 0.74964 0.0
H4367 H 0.2841 0.05884 0.73555 0.0
H4368 H 0.25293 0.06748 0.78308 0.0
H4369 H 0.26019 0.05929 0.76705 0.0
H4370 H 0.28675 0.05044 0.78012 0.0
C4371 C 0.30509 0.04523 0.74096 0.0
C4372 C 0.28459 0.05679 0.74523 0.0
C4373 C 0.30964 0.04098 0.73179 0.0
C4374 C 0.26149 0.06818 0.78445 0.0
C4375 C 0.26566 0.06353 0.77527 0.0
C4376 C 0.28618 0.05236 0.77042 0.0
C4377 C 0.29448 0.04529 0.73883 0.0
C4378 C 0.28973 0.04997 0.74856 0.0
C4379 C 0.27666 0.06416 0.7768 0.0
C4380 C 0.28108 0.0592 0.76707 0.0
H4381 H 0.28834 0.03346 0.70932 0.0
H4382 H 0.28025 0.0407 0.72541 0.0
H4383 H 0.29413 0.04238 0.76416 0.0
H4384 H 0.28469 0.07842 0.8051 0.0
H4385 H 0.29198 0.07027 0.78906 0.0
C4386 C 0.95142 0.25535 0.72808 0.0
C4387 C 0.9638 0.26195 0.72659 0.0
C4388 C 0.94627 0.24569 0.73609 0.0
C4389 C 0.95229 0.22414 0.75192 0.0
H4390 H 0.92407 0.2172 0.77042 0.0
C4391 C 0.93096 0.18031 0.78835 0.0
C4392 C 0.91497 0.1747 0.79137 0.0
C4393 C 0.93836 0.19399 0.77986 0.0
C4394 C 0.9319 0.21898 0.76525 0.0
H4395 H 0.98051 0.26372 0.73252 0.0
H4396 H 0.97154 0.24695 0.74673 0.0
H4397 H 0.93399 0.23513 0.75798 0.0
H4398 H 0.89617 0.17432 0.78255 0.0
H4399 H 0.90916 0.1959 0.76841 0.0
H4400 H 0.95018 0.20799 0.75924 0.0
C4401 C 0.96578 0.2491 0.7415 0.0
C4402 C 0.93758 0.22925 0.75809 0.0
C4403 C 0.97093 0.25873 0.73339 0.0
C4404 C 0.9057 0.17858 0.78148 0.0
C4405 C 0.91393 0.19233 0.77324 0.0
C4406 C 0.94666 0.21393 0.75918 0.0
C4407 C 0.95337 0.24241 0.74291 0.0
C4408 C 0.94776 0.23189 0.75119 0.0
C4409 C 0.92999 0.20006 0.77285 0.0
C4410 C 0.93633 0.21119 0.76578 0.0
H4411 H 0.94567 0.25748 0.7228 0.0
H4412 H 0.93668 0.24062 0.73671 0.0
H4413 H 0.95998 0.22575 0.74659 0.0
H4414 H 0.93596 0.1772 0.79353 0.0
H4415 H 0.94793 0.19863 0.77912 0.0
C4416 C 0.74488 0.70218 0.71877 0.0
C4417 C 0.73291 0.69729 0.72215 0.0
C4418 C 0.75387 0.70668 0.72788 0.0
C4419 C 0.761 0.71828 0.76013 0.0
H4420 H 0.78456 0.70855 0.75852 0.0
C4421 C 0.80275 0.73842 0.79219 0.0
C4422 C 0.80541 0.73028 0.79766 0.0
C4423 C 0.79399 0.73468 0.78289 0.0
C4424 C 0.77803 0.71131 0.7591 0.0
H4425 H 0.72108 0.69343 0.73784 0.0
H4426 H 0.73681 0.70152 0.75367 0.0
H4427 H 0.76909 0.70167 0.74239 0.0
H4428 H 0.80054 0.71171 0.79806 0.0
H4429 H 0.78543 0.70524 0.78161 0.0
H4430 H 0.76992 0.72788 0.77688 0.0
C4431 C 0.7392 0.70189 0.74395 0.0
C4432 C 0.76924 0.70747 0.74982 0.0
C4433 C 0.7302 0.69729 0.73485 0.0
C4434 C 0.79894 0.71826 0.79379 0.0
C4435 C 0.79028 0.71455 0.78439 0.0
C4436 C 0.76987 0.72224 0.76934 0.0
C4437 C 0.75111 0.70651 0.74057 0.0
C4438 C 0.76061 0.71087 0.75027 0.0
C4439 C 0.78771 0.72272 0.77885 0.0
C4440 C 0.77843 0.71874 0.76895 0.0
H4441 H 0.74734 0.70256 0.70907 0.0
H4442 H 0.76299 0.71035 0.72499 0.0
H4443 H 0.7545 0.72109 0.76067 0.0
H4444 H 0.80743 0.74768 0.79518 0.0
H4445 H 0.7922 0.74117 0.77877 0.0
C4446 C 0.71875 0.64579 0.62381 0.0
C4447 C 0.70641 0.63958 0.62555 0.0
C4448 C 0.72381 0.64213 0.6146 0.0
C4449 C 0.7162 0.6233 0.58573 0.0
H4450 H 0.74734 0.62723 0.59151 0.0
C4451 C 0.73742 0.60355 0.55305 0.0
C4452 C 0.74917 0.61149 0.54947 0.0
C4453 C 0.73206 0.60674 0.5624 0.0
C4454 C 0.73866 0.62614 0.58976 0.0
H4455 H 0.68969 0.62456 0.6192 0.0
H4456 H 0.69853 0.61786 0.60338 0.0
H4457 H 0.73814 0.63291 0.60787 0.0
H4458 H 0.76433 0.62924 0.55259 0.0
H4459 H 0.75508 0.63463 0.56921 0.0
H4460 H 0.71668 0.61623 0.56769 0.0
C4461 C 0.70431 0.62578 0.60886 0.0
C4462 C 0.73339 0.62944 0.5991 0.0
C4463 C 0.69923 0.62956 0.61797 0.0
C4464 C 0.75539 0.62278 0.55535 0.0
C4465 C 0.75009 0.62589 0.56484 0.0
C4466 C 0.7214 0.61983 0.57646 0.0
C4467 C 0.71668 0.63204 0.60701 0.0
C4468 C 0.72213 0.62817 0.59718 0.0
C4469 C 0.73837 0.61791 0.56843 0.0
C4470 C 0.73272 0.6213 0.57836 0.0
H4471 H 0.72447 0.65366 0.62941 0.0
H4472 H 0.73332 0.64736 0.6133 0.0
H4473 H 0.70762 0.62237 0.58378 0.0
H4474 H 0.73236 0.59489 0.54852 0.0
H4475 H 0.72301 0.60043 0.56501 0.0
C4476 C 0.35084 0.06984 0.61687 0.0
C4477 C 0.35886 0.06706 0.62247 0.0
C4478 C 0.35464 0.0785 0.6077 0.0
C4479 C 0.38102 0.10498 0.5961 0.0
H4480 H 0.36217 0.09856 0.56587 0.0
C4481 C 0.39692 0.13765 0.55498 0.0
C4482 C 0.38835 0.13917 0.54866 0.0
C4483 C 0.39352 0.12879 0.5639 0.0
C4484 C 0.36746 0.10058 0.57433 0.0
H4485 H 0.37718 0.07126 0.62297 0.0
H4486 H 0.38387 0.0865 0.60694 0.0
H4487 H 0.35587 0.08328 0.58165 0.0
H4488 H 0.36945 0.13226 0.54637 0.0
H4489 H 0.36352 0.11711 0.56223 0.0
H4490 H 0.39249 0.12236 0.58894 0.0
C4491 C 0.37463 0.08194 0.60966 0.0
C4492 C 0.36386 0.09179 0.58334 0.0
C4493 C 0.37079 0.07317 0.61875 0.0
C4494 C 0.37628 0.13148 0.55128 0.0
C4495 C 0.37289 0.12269 0.56026 0.0
C4496 C 0.38457 0.11382 0.58713 0.0
C4497 C 0.36658 0.08466 0.60402 0.0
C4498 C 0.37058 0.09391 0.59434 0.0
C4499 C 0.38146 0.12121 0.56667 0.0
C4500 C 0.37781 0.11175 0.57615 0.0
H4501 H 0.34157 0.0652 0.61947 0.0
H4502 H 0.34826 0.08049 0.60359 0.0
H4503 H 0.3863 0.1069 0.60456 0.0
H4504 H 0.40626 0.14326 0.55292 0.0
H4505 H 0.40035 0.12775 0.56845 0.0
C4506 C 0.93436 0.29513 0.6192 0.0
C4507 C 0.93701 0.28698 0.62462 0.0
C4508 C 0.92569 0.29142 0.60981 0.0
C4509 C 0.90018 0.26405 0.59574 0.0
H4510 H 0.90406 0.28521 0.5687 0.0
C4511 C 0.87179 0.24848 0.55058 0.0
C4512 C 0.86648 0.2551 0.54708 0.0
C4513 C 0.88028 0.25256 0.56017 0.0
C4514 C 0.90284 0.27926 0.57625 0.0
H4515 H 0.93293 0.26868 0.62433 0.0
H4516 H 0.91811 0.26225 0.60765 0.0
H4517 H 0.91927 0.29189 0.58505 0.0
H4518 H 0.86645 0.27152 0.55036 0.0
H4519 H 0.88154 0.27879 0.56705 0.0
H4520 H 0.88392 0.2513 0.58663 0.0
C4521 C 0.9224 0.27142 0.61088 0.0
C4522 C 0.91152 0.28308 0.58566 0.0
C4523 C 0.93095 0.2751 0.62039 0.0
C4524 C 0.87023 0.26614 0.55305 0.0
C4525 C 0.87888 0.27031 0.56252 0.0
C4526 C 0.89161 0.26018 0.58623 0.0
C4527 C 0.91959 0.27951 0.60551 0.0
C4528 C 0.91031 0.27551 0.59553 0.0
C4529 C 0.88389 0.26349 0.56624 0.0
C4530 C 0.89287 0.26774 0.57641 0.0
H4531 H 0.93883 0.30432 0.62241 0.0
H4532 H 0.92363 0.29787 0.60609 0.0
H4533 H 0.89878 0.25806 0.60331 0.0
H4534 H 0.86938 0.24011 0.54593 0.0
H4535 H 0.88417 0.24724 0.56274 0.0
C4536 C 0.37316 0.29655 0.62888 0.0
C4537 C 0.36095 0.29246 0.62958 0.0
C4538 C 0.37753 0.29228 0.61951 0.0
C4539 C 0.36805 0.26814 0.59539 0.0
H4540 H 0.39749 0.29092 0.57967 0.0
C4541 C 0.38247 0.261 0.54661 0.0
C4542 C 0.39447 0.26446 0.54507 0.0
C4543 C 0.37859 0.26336 0.55785 0.0
C4544 C 0.38934 0.28442 0.58407 0.0
H4545 H 0.34375 0.28073 0.62103 0.0
H4546 H 0.35135 0.27348 0.60452 0.0
H4547 H 0.39036 0.29715 0.59753 0.0
H4548 H 0.41173 0.27272 0.5542 0.0
H4549 H 0.40497 0.27701 0.57382 0.0
H4550 H 0.36688 0.25555 0.58155 0.0
C4551 C 0.35756 0.27974 0.61137 0.0
C4552 C 0.38525 0.28797 0.59434 0.0
C4553 C 0.35319 0.28392 0.62081 0.0
C4554 C 0.40245 0.27004 0.55512 0.0
C4555 C 0.3986 0.27251 0.56631 0.0
C4556 C 0.37209 0.26463 0.58502 0.0
C4557 C 0.3698 0.28392 0.61054 0.0
C4558 C 0.37449 0.27991 0.60007 0.0
C4559 C 0.38665 0.26932 0.56773 0.0
C4560 C 0.38272 0.27276 0.5792 0.0
H4561 H 0.37933 0.30304 0.63561 0.0
H4562 H 0.38698 0.29554 0.6193 0.0
H4563 H 0.35985 0.26163 0.5997 0.0
H4564 H 0.37614 0.2567 0.53902 0.0
H4565 H 0.36935 0.26088 0.55865 0.0
C4566 C 0.71622 0.06762 0.60214 0.0
C4567 C 0.71364 0.06981 0.61428 0.0
C4568 C 0.71993 0.07636 0.59305 0.0
C4569 C 0.73256 0.10875 0.58884 0.0
H4570 H 0.71913 0.09905 0.55549 0.0
C4571 C 0.73594 0.14202 0.55147 0.0
C4572 C 0.73757 0.13969 0.53901 0.0
C4573 C 0.7341 0.13384 0.56078 0.0
C4574 C 0.7231 0.1019 0.5647 0.0
H4575 H 0.71289 0.08289 0.62635 0.0
H4576 H 0.71932 0.09812 0.61047 0.0
H4577 H 0.71379 0.0841 0.57145 0.0
H4578 H 0.73867 0.12708 0.52655 0.0
H4579 H 0.73566 0.11288 0.54281 0.0
H4580 H 0.74177 0.12658 0.58208 0.0
C4581 C 0.71866 0.08972 0.60804 0.0
C4582 C 0.72003 0.09332 0.57386 0.0
C4583 C 0.71496 0.08098 0.61714 0.0
C4584 C 0.73753 0.12913 0.53609 0.0
C4585 C 0.7357 0.12097 0.54538 0.0
C4586 C 0.73563 0.11734 0.57967 0.0
C4587 C 0.72113 0.08749 0.59586 0.0
C4588 C 0.72468 0.09664 0.58606 0.0
C4589 C 0.73378 0.12314 0.55781 0.0
C4590 C 0.7309 0.11402 0.5675 0.0
H4591 H 0.71549 0.05919 0.59969 0.0
H4592 H 0.72195 0.07442 0.58382 0.0
H4593 H 0.73643 0.11158 0.5981 0.0
H4594 H 0.73576 0.15001 0.55394 0.0
H4595 H 0.73251 0.13572 0.57022 0.0
C4596 C 0.91942 0.63207 0.62513 0.0
C4597 C 0.92998 0.64312 0.62416 0.0
C4598 C 0.91116 0.62758 0.61529 0.0
C4599 C 0.90899 0.62958 0.58136 0.0
H4600 H 0.87509 0.61388 0.58715 0.0
C4601 C 0.87541 0.61194 0.54047 0.0
C4602 C 0.86528 0.60065 0.54184 0.0
C4603 C 0.88281 0.61792 0.5507 0.0
C4604 C 0.88453 0.61814 0.58538 0.0
H4605 H 0.93989 0.6583 0.6122 0.0
H4606 H 0.92555 0.65038 0.59499 0.0
H4607 H 0.88899 0.62277 0.60471 0.0
H4608 H 0.85487 0.58679 0.55501 0.0
H4609 H 0.86788 0.59712 0.5729 0.0
H4610 H 0.9046 0.62475 0.56211 0.0
C4611 C 0.92374 0.64514 0.60332 0.0
C4612 C 0.89248 0.62325 0.59544 0.0
C4613 C 0.93198 0.64965 0.61318 0.0
C4614 C 0.86257 0.59554 0.55372 0.0
C4615 C 0.87 0.60149 0.56396 0.0
C4616 C 0.90105 0.62443 0.57132 0.0
C4617 C 0.91328 0.63402 0.60423 0.0
C4618 C 0.9048 0.62897 0.59354 0.0
C4619 C 0.88031 0.61268 0.56254 0.0
C4620 C 0.88872 0.6186 0.5732 0.0
H4621 H 0.91766 0.62671 0.63336 0.0
H4622 H 0.90325 0.61892 0.61621 0.0
H4623 H 0.91843 0.63376 0.57961 0.0
H4624 H 0.87772 0.61607 0.5314 0.0
H4625 H 0.89057 0.6266 0.54931 0.0
C4626 C 0.95188 0.69098 0.73792 0.0
C4627 C 0.95777 0.69716 0.72714 0.0
C4628 C 0.94827 0.6963 0.74694 0.0
C4629 C 0.95433 0.72572 0.75848 0.0
H4630 H 0.92452 0.70704 0.77571 0.0
C4631 C 0.93726 0.74682 0.79437 0.0
C4632 C 0.93322 0.74076 0.80568 0.0
C4633 C 0.93939 0.74142 0.78414 0.0
C4634 C 0.9329 0.71235 0.77102 0.0
H4635 H 0.96448 0.71382 0.7174 0.0
H4636 H 0.95795 0.72301 0.733 0.0
H4637 H 0.92994 0.69783 0.75901 0.0
H4638 H 0.92806 0.72424 0.81508 0.0
H4639 H 0.9317 0.71475 0.79719 0.0
H4640 H 0.95729 0.74023 0.77053 0.0
C4641 C 0.95624 0.71408 0.73456 0.0
C4642 C 0.93603 0.70707 0.76147 0.0
C4643 C 0.95987 0.70877 0.72554 0.0
C4644 C 0.93108 0.72908 0.80645 0.0
C4645 C 0.93313 0.72365 0.7962 0.0
C4646 C 0.95117 0.73101 0.76799 0.0
C4647 C 0.95043 0.70793 0.74539 0.0
C4648 C 0.94684 0.71367 0.75516 0.0
C4649 C 0.93747 0.72982 0.78499 0.0
C4650 C 0.94047 0.72435 0.77443 0.0
H4651 H 0.94997 0.68197 0.73937 0.0
H4652 H 0.94394 0.69134 0.75522 0.0
H4653 H 0.96281 0.73102 0.75397 0.0
H4654 H 0.939 0.75585 0.79355 0.0
H4655 H 0.94261 0.74636 0.77559 0.0
C4656 C 0.29736 0.25812 0.72313 0.0
C4657 C 0.30521 0.27004 0.72669 0.0
C4658 C 0.2928 0.24916 0.73202 0.0
C4659 C 0.28784 0.24425 0.76599 0.0
H4660 H 0.28444 0.21359 0.75779 0.0
C4661 C 0.27527 0.20798 0.80284 0.0
C4662 C 0.26652 0.19635 0.79932 0.0
C4663 C 0.28038 0.21692 0.79395 0.0
C4664 C 0.28526 0.22208 0.76018 0.0
H4665 H 0.31429 0.28187 0.74246 0.0
H4666 H 0.30657 0.26621 0.75792 0.0
H4667 H 0.29257 0.22935 0.7424 0.0
H4668 H 0.25606 0.18501 0.78377 0.0
H4669 H 0.26512 0.2006 0.76819 0.0
H4670 H 0.28059 0.23697 0.78379 0.0
C4671 C 0.30382 0.2638 0.74826 0.0
C4672 C 0.28989 0.23111 0.75136 0.0
C4673 C 0.30836 0.27277 0.73937 0.0
C4674 C 0.26298 0.19383 0.78671 0.0
C4675 C 0.26816 0.20275 0.7778 0.0
C4676 C 0.28327 0.23524 0.77483 0.0
C4677 C 0.296 0.25187 0.74469 0.0
C4678 C 0.2912 0.2423 0.75413 0.0
C4679 C 0.27683 0.21442 0.78135 0.0
C4680 C 0.2819 0.22405 0.77201 0.0
H4681 H 0.29486 0.25566 0.71343 0.0
H4682 H 0.28668 0.2401 0.72895 0.0
H4683 H 0.28854 0.25268 0.76838 0.0
H4684 H 0.27802 0.21021 0.81252 0.0
H4685 H 0.2871 0.2258 0.79696 0.0
C4686 C 0.74888 0.03666 0.71487 0.0
C4687 C 0.7418 0.04177 0.71277 0.0
C4688 C 0.75705 0.04066 0.72481 0.0
C4689 C 0.7728 0.06586 0.74765 0.0
H4690 H 0.77633 0.04266 0.76661 0.0
C4691 C 0.7935 0.07511 0.79724 0.0
C4692 C 0.80134 0.07099 0.79988 0.0
C4693 C 0.78727 0.07218 0.78588 0.0
C4694 C 0.77555 0.04926 0.76131 0.0
H4695 H 0.73759 0.05492 0.71955 0.0
H4696 H 0.7516 0.06173 0.73699 0.0
H4697 H 0.76341 0.03621 0.7482 0.0
H4698 H 0.80908 0.06089 0.79257 0.0
H4699 H 0.79803 0.05559 0.77277 0.0
H4700 H 0.78467 0.07883 0.76108 0.0
C4701 C 0.75114 0.05488 0.73079 0.0
C4702 C 0.76816 0.04558 0.75073 0.0
C4703 C 0.74306 0.05095 0.7208 0.0
C4704 C 0.80302 0.06409 0.79082 0.0
C4705 C 0.79668 0.06104 0.77952 0.0
C4706 C 0.78009 0.06951 0.75831 0.0
C4707 C 0.75824 0.04979 0.73294 0.0
C4708 C 0.76661 0.05381 0.74382 0.0
C4709 C 0.78867 0.06497 0.77698 0.0
C4710 C 0.78146 0.06124 0.7653 0.0
H4711 H 0.74817 0.02964 0.70875 0.0
H4712 H 0.76249 0.03665 0.72606 0.0
H4713 H 0.77203 0.0725 0.74243 0.0
H4714 H 0.79204 0.08045 0.80404 0.0
H4715 H 0.78109 0.07526 0.78422 0.0
C4716 C 0.05566 0.3366 0.04812 0.0
C4717 C 0.04697 0.32951 0.03912 0.0
C4718 C 0.06066 0.33168 0.05586 0.0
C4719 C 0.05459 0.3026 0.06787 0.0
H4720 H 0.08795 0.31996 0.07726 0.0
C4721 C 0.07479 0.27449 0.09647 0.0
C4722 C 0.08897 0.28466 0.10482 0.0
C4723 C 0.06926 0.28183 0.08676 0.0
C4724 C 0.07859 0.31506 0.07483 0.0
H4725 H 0.03677 0.31162 0.03125 0.0
H4726 H 0.04577 0.30321 0.04433 0.0
H4727 H 0.08005 0.32912 0.06343 0.0
H4728 H 0.10154 0.306 0.11447 0.0
H4729 H 0.09119 0.31652 0.09898 0.0
H4730 H 0.05313 0.28854 0.07918 0.0
C4731 C 0.0486 0.31253 0.04558 0.0
C4732 C 0.07406 0.3203 0.0669 0.0
C4733 C 0.04356 0.31742 0.03792 0.0
C4734 C 0.09391 0.30053 0.10853 0.0
C4735 C 0.08777 0.30704 0.0984 0.0
C4736 C 0.05914 0.29735 0.07571 0.0
C4737 C 0.0571 0.31955 0.05476 0.0
C4738 C 0.062 0.31411 0.06328 0.0
C4739 C 0.07595 0.29786 0.08742 0.0
C4740 C 0.07118 0.3035 0.07923 0.0
H4741 H 0.05857 0.34596 0.04923 0.0
H4742 H 0.06713 0.33733 0.06288 0.0
H4743 H 0.04521 0.29767 0.06553 0.0
H4744 H 0.07159 0.26508 0.09529 0.0
H4745 H 0.062 0.27654 0.08034 0.0
C4746 C 0.66795 0.71075 0.05693 0.0
C4747 C 0.66996 0.71012 0.04413 0.0
C4748 C 0.67197 0.72177 0.06289 0.0
C4749 C 0.68256 0.75355 0.05689 0.0
H4750 H 0.69858 0.75879 0.0889 0.0
C4751 C 0.7176 0.7952 0.09032 0.0
C4752 C 0.71249 0.80243 0.09002 0.0
C4753 C 0.71151 0.78364 0.08532 0.0
C4754 C 0.69417 0.75748 0.07994 0.0
H4755 H 0.67729 0.72052 0.02745 0.0
H4756 H 0.68448 0.73971 0.03787 0.0
H4757 H 0.68941 0.73918 0.07885 0.0
H4758 H 0.69713 0.80336 0.08394 0.0
H4759 H 0.68637 0.78308 0.07539 0.0
H4760 H 0.68769 0.77195 0.05777 0.0
C4761 C 0.67974 0.73171 0.04331 0.0
C4762 C 0.68878 0.7462 0.07426 0.0
C4763 C 0.67574 0.72072 0.03736 0.0
C4764 C 0.7012 0.79791 0.08448 0.0
C4765 C 0.6951 0.78634 0.07949 0.0
C4766 C 0.68795 0.76483 0.06258 0.0
C4767 C 0.67804 0.73238 0.05617 0.0
C4768 C 0.68303 0.74414 0.0626 0.0
C4769 C 0.7002 0.77909 0.07982 0.0
C4770 C 0.69393 0.76695 0.0741 0.0
H4771 H 0.66359 0.70276 0.06243 0.0
H4772 H 0.67039 0.72197 0.07279 0.0
H4773 H 0.67809 0.75222 0.04797 0.0
H4774 H 0.72639 0.79855 0.09431 0.0
H4775 H 0.71579 0.77837 0.08551 0.0
C4776 C 0.27428 0.95621 0.02798 0.0
C4777 C 0.2848 0.95774 0.03343 0.0
C4778 C 0.26344 0.94989 0.03409 0.0
C4779 C 0.25092 0.93894 0.0656 0.0
H4780 H 0.22137 0.92191 0.04677 0.0
C4781 C 0.20444 0.90816 0.08714 0.0
C4782 C 0.19587 0.91127 0.08406 0.0
C4783 C 0.21542 0.91355 0.08117 0.0
C4784 C 0.22958 0.92666 0.05212 0.0
H4785 H 0.29195 0.95344 0.04956 0.0
H4786 H 0.273 0.94181 0.05979 0.0
H4787 H 0.2402 0.93111 0.03576 0.0
H4788 H 0.19198 0.92214 0.07205 0.0
H4789 H 0.21109 0.9313 0.06135 0.0
H4790 H 0.24013 0.93405 0.08198 0.0
C4791 C 0.27318 0.94586 0.05098 0.0
C4792 C 0.24038 0.93201 0.04583 0.0
C4793 C 0.28407 0.95238 0.04497 0.0
C4794 C 0.19847 0.91969 0.07472 0.0
C4795 C 0.20934 0.92488 0.06857 0.0
C4796 C 0.24011 0.93336 0.07189 0.0
C4797 C 0.26273 0.94469 0.04573 0.0
C4798 C 0.25122 0.93837 0.05247 0.0
C4799 C 0.2179 0.92187 0.07177 0.0
C4800 C 0.22936 0.92732 0.06518 0.0
H4801 H 0.27439 0.95998 0.019 0.0
H4802 H 0.25567 0.94935 0.02978 0.0
H4803 H 0.25902 0.94392 0.07107 0.0
H4804 H 0.20267 0.90152 0.0941 0.0
H4805 H 0.22188 0.91103 0.0837 0.0
C4806 C 0.32134 0.04802 0.98605 0.0
C4807 C 0.33059 0.04695 0.9807 0.0
C4808 C 0.31728 0.05494 0.98046 0.0
C4809 C 0.31748 0.06872 0.95015 0.0
H4810 H 0.30443 0.08422 0.9703 0.0
C4811 C 0.30253 0.10072 0.93087 0.0
C4812 C 0.29084 0.09761 0.93399 0.0
C4813 C 0.30792 0.09495 0.9364 0.0
C4814 C 0.30804 0.07991 0.96458 0.0
H4815 H 0.343 0.05268 0.96534 0.0
H4816 H 0.33639 0.06527 0.95602 0.0
H4817 H 0.31345 0.07407 0.9805 0.0
H4818 H 0.27587 0.08634 0.94565 0.0
H4819 H 0.28544 0.07646 0.95553 0.0
H4820 H 0.31228 0.07493 0.93424 0.0
C4821 C 0.332 0.06043 0.96434 0.0
C4822 C 0.31314 0.07402 0.97039 0.0
C4823 C 0.33594 0.05335 0.96983 0.0
C4824 C 0.28481 0.08879 0.94295 0.0
C4825 C 0.29029 0.08321 0.94864 0.0
C4826 C 0.31256 0.07481 0.94435 0.0
C4827 C 0.32249 0.06119 0.96948 0.0
C4828 C 0.31777 0.06817 0.96327 0.0
C4829 C 0.30188 0.08622 0.9454 0.0
C4830 C 0.30765 0.0803 0.95151 0.0
H4831 H 0.31713 0.04343 0.99455 0.0
H4832 H 0.30984 0.05513 0.98465 0.0
H4833 H 0.32075 0.06417 0.94432 0.0
H4834 H 0.30754 0.10765 0.92422 0.0
H4835 H 0.31691 0.09749 0.93384 0.0
C4836 C 0.96675 0.28593 0.95976 0.0
C4837 C 0.96225 0.28848 0.97054 0.0
C4838 C 0.95959 0.27581 0.95246 0.0
C4839 C 0.93293 0.24615 0.95264 0.0
H4840 H 0.93233 0.25083 0.91706 0.0
C4841 C 0.89427 0.20291 0.92 0.0
C4842 C 0.90023 0.20261 0.90431 0.0
C4843 C 0.9042 0.21539 0.92981 0.0
C4844 C 0.93254 0.24925 0.92691 0.0
H4845 H 0.9467 0.28215 0.98219 0.0
H4846 H 0.93424 0.2643 0.9695 0.0
H4847 H 0.94507 0.26764 0.93062 0.0
H4848 H 0.91457 0.21602 0.8871 0.0
H4849 H 0.92921 0.23579 0.90357 0.0
H4850 H 0.92055 0.22773 0.94893 0.0
C4851 C 0.94334 0.27021 0.96676 0.0
C4852 C 0.93981 0.25895 0.9347 0.0
C4853 C 0.95049 0.28043 0.97402 0.0
C4854 C 0.91191 0.21622 0.89662 0.0
C4855 C 0.92128 0.22825 0.90716 0.0
C4856 C 0.92574 0.2364 0.94481 0.0
C4857 C 0.94779 0.2679 0.95581 0.0
C4858 C 0.94007 0.25751 0.94764 0.0
C4859 C 0.91767 0.22764 0.92356 0.0
C4860 C 0.92545 0.23786 0.93186 0.0
H4861 H 0.97586 0.29175 0.95696 0.0
H4862 H 0.9633 0.27414 0.94418 0.0
H4863 H 0.93306 0.24478 0.96258 0.0
H4864 H 0.88665 0.19517 0.92381 0.0
H4865 H 0.90192 0.21555 0.93947 0.0
C4866 C 0.7254 0.67807 0.98857 0.0
C4867 C 0.71492 0.66912 0.98276 0.0
C4868 C 0.73635 0.68256 0.98271 0.0
C4869 C 0.74959 0.68422 0.9515 0.0
H4870 H 0.77844 0.69579 0.97124 0.0
C4871 C 0.79631 0.69917 0.93122 0.0
C4872 C 0.80517 0.71075 0.93494 0.0
C4873 C 0.78514 0.69372 0.9368 0.0
C4874 C 0.77043 0.69261 0.96564 0.0
H4875 H 0.70789 0.65777 0.96622 0.0
H4876 H 0.72702 0.66508 0.95638 0.0
H4877 H 0.75927 0.68639 0.9816 0.0
H4878 H 0.80936 0.72543 0.94767 0.0
H4879 H 0.78992 0.71572 0.95768 0.0
H4880 H 0.7609 0.69017 0.93552 0.0
C4881 C 0.72675 0.66891 0.96531 0.0
C4882 C 0.75944 0.68729 0.97155 0.0
C4883 C 0.71575 0.66456 0.97108 0.0
C4884 C 0.80266 0.71659 0.94453 0.0
C4885 C 0.7916 0.71103 0.95027 0.0
C4886 C 0.76058 0.68933 0.94558 0.0
C4887 C 0.73719 0.67809 0.97097 0.0
C4888 C 0.74886 0.68316 0.96459 0.0
C4889 C 0.78275 0.69957 0.94644 0.0
C4890 C 0.77108 0.6937 0.95262 0.0
H4891 H 0.72519 0.68167 0.99766 0.0
H4892 H 0.74413 0.68973 0.98732 0.0
H4893 H 0.7417 0.68137 0.94582 0.0
H4894 H 0.79799 0.6943 0.92405 0.0
H4895 H 0.77846 0.68482 0.93379 0.0
C4896 C 0.95726 0.67724 0.97364 0.0
C4897 C 0.95464 0.67372 0.98614 0.0
C4898 C 0.95188 0.68276 0.96765 0.0
C4899 C 0.93875 0.70119 0.9738 0.0
H4900 H 0.92791 0.69322 0.9394 0.0
C4901 C 0.91936 0.72573 0.94641 0.0
C4902 C 0.92288 0.72834 0.93392 0.0
C4903 C 0.92209 0.71833 0.95323 0.0
C4904 C 0.93099 0.69562 0.94897 0.0
H4905 H 0.94407 0.67307 0.00203 0.0
H4906 H 0.93483 0.68298 0.99156 0.0
H4907 H 0.93442 0.68127 0.95049 0.0
H4908 H 0.9322 0.72545 0.91885 0.0
H4909 H 0.93721 0.71277 0.93077 0.0
H4910 H 0.93568 0.71577 0.97218 0.0
C4911 C 0.94109 0.68143 0.98646 0.0
C4912 C 0.93467 0.68874 0.95533 0.0
C4913 C 0.9464 0.67578 0.99245 0.0
C4914 C 0.92932 0.72353 0.92844 0.0
C4915 C 0.93209 0.71619 0.93525 0.0
C4916 C 0.93514 0.70813 0.96741 0.0
C4917 C 0.94383 0.68502 0.97402 0.0
C4918 C 0.93878 0.69157 0.96774 0.0
C4919 C 0.92844 0.71342 0.9477 0.0
C4920 C 0.93142 0.70555 0.95484 0.0
H4921 H 0.96377 0.6761 0.96855 0.0
H4922 H 0.95434 0.68563 0.95812 0.0
H4923 H 0.94199 0.70364 0.98333 0.0
H4924 H 0.9144 0.72934 0.95087 0.0
H4925 H 0.91908 0.71631 0.96277 0.0
C4926 C 0.32701 0.28063 0.98174 0.0
C4927 C 0.33134 0.291 0.97465 0.0
C4928 C 0.32095 0.2694 0.97596 0.0
C4929 C 0.31498 0.25378 0.94533 0.0
H4930 H 0.28557 0.23049 0.96075 0.0
C4931 C 0.27947 0.21232 0.91859 0.0
C4932 C 0.27381 0.20146 0.92491 0.0
C4933 C 0.28692 0.22295 0.92502 0.0
C4934 C 0.29383 0.23683 0.95641 0.0
H4935 H 0.33295 0.2977 0.9559 0.0
H4936 H 0.32241 0.27812 0.94582 0.0
H4937 H 0.29833 0.24955 0.9713 0.0
H4938 H 0.27128 0.19325 0.94296 0.0
H4939 H 0.28441 0.21187 0.95425 0.0
H4940 H 0.3104 0.24111 0.93037 0.0
C4941 C 0.32381 0.27867 0.95583 0.0
C4942 C 0.30116 0.24775 0.96246 0.0
C4943 C 0.32987 0.2899 0.96161 0.0
C4944 C 0.27557 0.20149 0.93786 0.0
C4945 C 0.28304 0.21214 0.94431 0.0
C4946 C 0.30766 0.24287 0.93928 0.0
C4947 C 0.31909 0.26829 0.96296 0.0
C4948 C 0.31175 0.2564 0.95692 0.0
C4949 C 0.28887 0.22298 0.93794 0.0
C4950 C 0.29693 0.23432 0.94468 0.0
H4951 H 0.32817 0.2812 0.99179 0.0
H4952 H 0.31761 0.26158 0.98169 0.0
H4953 H 0.32317 0.26018 0.94091 0.0
H4954 H 0.27819 0.21256 0.90862 0.0
H4955 H 0.29109 0.23117 0.91988 0.0
C4956 C 0.73256 0.04421 0.98996 0.0
C4957 C 0.72199 0.04087 0.98333 0.0
C4958 C 0.74354 0.05025 0.98406 0.0
C4959 C 0.7571 0.05584 0.9528 0.0
H4960 H 0.78485 0.08017 0.97071 0.0
C4961 C 0.80511 0.07301 0.93604 0.0
C4962 C 0.8136 0.08506 0.93823 0.0
C4963 C 0.79359 0.0682 0.94065 0.0
C4964 C 0.77718 0.07351 0.96549 0.0
H4965 H 0.71474 0.04138 0.96524 0.0
H4966 H 0.73393 0.05221 0.95503 0.0
H4967 H 0.76552 0.07112 0.98057 0.0
H4968 H 0.81661 0.10158 0.94665 0.0
H4969 H 0.79645 0.09328 0.95444 0.0
H4970 H 0.76877 0.05837 0.93764 0.0
C4971 C 0.7337 0.04999 0.96477 0.0
C4972 C 0.7661 0.06819 0.97122 0.0
C4973 C 0.7227 0.04392 0.97068 0.0
C4974 C 0.81024 0.09227 0.94481 0.0
C4975 C 0.79872 0.08748 0.94936 0.0
C4976 C 0.76819 0.06119 0.94704 0.0
C4977 C 0.74425 0.05315 0.97136 0.0
C4978 C 0.75594 0.05921 0.965 0.0
C4979 C 0.79031 0.07533 0.94755 0.0
C4980 C 0.77839 0.07002 0.95336 0.0
H4981 H 0.73236 0.04212 0.99975 0.0
H4982 H 0.75147 0.05241 0.98939 0.0
H4983 H 0.74948 0.04887 0.94777 0.0
H4984 H 0.8075 0.06725 0.93108 0.0
H4985 H 0.78739 0.05878 0.9392 0.0
C4986 C 0.66918 0.94336 0.0377 0.0
C4987 C 0.67222 0.95485 0.04184 0.0
C4988 C 0.67423 0.93732 0.04337 0.0
C4989 C 0.69097 0.93748 0.07163 0.0
H4990 H 0.70266 0.92197 0.04956 0.0
C4991 C 0.72702 0.92659 0.0862 0.0
C4992 C 0.72593 0.91588 0.08174 0.0
C4993 C 0.71901 0.93005 0.0823 0.0
C4994 C 0.69929 0.92609 0.05589 0.0
H4995 H 0.68297 0.96898 0.05521 0.0
H4996 H 0.69173 0.95849 0.06503 0.0
H4997 H 0.69113 0.93021 0.04095 0.0
H4998 H 0.71563 0.90043 0.06976 0.0
H4999 H 0.70155 0.90642 0.06302 0.0
H5000 H 0.69942 0.9336 0.08652 0.0
C5001 C 0.68527 0.95403 0.05758 0.0
C5002 C 0.69266 0.9308 0.05095 0.0
C5003 C 0.68024 0.96005 0.05193 0.0
C5004 C 0.71659 0.90866 0.07344 0.0
C5005 C 0.7086 0.91213 0.06951 0.0
C5006 C 0.69763 0.93278 0.07656 0.0
C5007 C 0.68244 0.94264 0.05329 0.0
C5008 C 0.68856 0.9367 0.05873 0.0
C5009 C 0.70982 0.92295 0.07375 0.0
C5010 C 0.702 0.92717 0.06872 0.0
H5011 H 0.66293 0.93905 0.03004 0.0
H5012 H 0.67174 0.92849 0.03994 0.0
H5013 H 0.68778 0.9418 0.07791 0.0
H5014 H 0.73427 0.93242 0.09243 0.0
H5015 H 0.7203 0.93852 0.0856 0.0
C5016 C 0.05097 0.72934 0.04195 0.0
C5017 C 0.03867 0.72181 0.04341 0.0
C5018 C 0.05681 0.74074 0.04743 0.0
C5019 C 0.05064 0.76377 0.05934 0.0
H5020 H 0.08242 0.77813 0.07348 0.0
C5021 C 0.07293 0.80993 0.0833 0.0
C5022 C 0.08474 0.81786 0.07996 0.0
C5023 C 0.06752 0.79785 0.08011 0.0
C5024 C 0.07356 0.77425 0.0695 0.0
H5025 H 0.02299 0.72005 0.05234 0.0
H5026 H 0.03316 0.73981 0.06199 0.0
H5027 H 0.07262 0.75764 0.06547 0.0
H5028 H 0.10017 0.81938 0.07074 0.0
H5029 H 0.09074 0.79827 0.06512 0.0
H5030 H 0.05158 0.78035 0.06325 0.0
C5031 C 0.03826 0.73708 0.05633 0.0
C5032 C 0.06796 0.76253 0.06489 0.0
C5033 C 0.03243 0.72575 0.05082 0.0
C5034 C 0.0911 0.81343 0.07357 0.0
C5035 C 0.08571 0.80134 0.07039 0.0
C5036 C 0.05621 0.77544 0.06397 0.0
C5037 C 0.05048 0.7448 0.05455 0.0
C5038 C 0.05644 0.75716 0.05972 0.0
C5039 C 0.0738 0.79345 0.07344 0.0
C5040 C 0.06775 0.78084 0.06907 0.0
H5041 H 0.05599 0.72656 0.03624 0.0
H5042 H 0.06621 0.7465 0.04578 0.0
H5043 H 0.04186 0.76001 0.0552 0.0
H5044 H 0.06779 0.81314 0.08813 0.0
H5045 H 0.05837 0.79197 0.08271 0.0
C5046 C 0.28671 0.33466 0.04312 0.0
C5047 C 0.29189 0.3281 0.0389 0.0
C5048 C 0.27554 0.32891 0.04872 0.0
C5049 C 0.24865 0.29887 0.05128 0.0
H5050 H 0.24018 0.31438 0.077 0.0
C5051 C 0.20325 0.27499 0.0756 0.0
C5052 C 0.19706 0.28122 0.07535 0.0
C5053 C 0.2153 0.28072 0.07262 0.0
C5054 C 0.24244 0.30996 0.06982 0.0
H5055 H 0.28979 0.31054 0.03772 0.0
H5056 H 0.27055 0.30053 0.04787 0.0
H5057 H 0.26044 0.32431 0.06908 0.0
H5058 H 0.19876 0.29843 0.0724 0.0
H5059 H 0.21987 0.30849 0.06739 0.0
H5060 H 0.23067 0.28448 0.05215 0.0
C5061 C 0.27483 0.31004 0.04648 0.0
C5062 C 0.25402 0.31566 0.06522 0.0
C5063 C 0.28589 0.31576 0.04072 0.0
C5064 C 0.2033 0.29341 0.07264 0.0
C5065 C 0.21538 0.29918 0.06982 0.0
C5066 C 0.23714 0.29311 0.05601 0.0
C5067 C 0.26941 0.31649 0.05039 0.0
C5068 C 0.25725 0.31024 0.05578 0.0
C5069 C 0.22143 0.29283 0.06952 0.0
C5070 C 0.23389 0.29865 0.06522 0.0
H5071 H 0.29115 0.34418 0.04176 0.0
H5072 H 0.27161 0.33417 0.05142 0.0
H5073 H 0.25068 0.29449 0.04385 0.0
H5074 H 0.19868 0.26562 0.07778 0.0
H5075 H 0.21979 0.27566 0.07258 0.0
C5076 C 0.71655 0.67112 0.37993 0.0
C5077 C 0.71023 0.66587 0.36876 0.0
C5078 C 0.72369 0.6672 0.38537 0.0
C5079 C 0.73776 0.6489 0.37861 0.0
H5080 H 0.73926 0.64799 0.41472 0.0
C5081 C 0.7543 0.62165 0.40514 0.0
C5082 C 0.76346 0.6281 0.41393 0.0
C5083 C 0.74819 0.62672 0.39974 0.0
C5084 C 0.73896 0.64828 0.40463 0.0
H5085 H 0.70685 0.65256 0.35441 0.0
H5086 H 0.71863 0.64529 0.36422 0.0
H5087 H 0.72789 0.65598 0.40498 0.0
H5088 H 0.7735 0.64511 0.42377 0.0
H5089 H 0.76242 0.65375 0.41467 0.0
H5090 H 0.74841 0.64068 0.37837 0.0
C5091 C 0.71834 0.65265 0.36867 0.0
C5092 C 0.73252 0.65292 0.39902 0.0
C5093 C 0.71137 0.65669 0.36313 0.0
C5094 C 0.76635 0.63977 0.41722 0.0
C5095 C 0.76005 0.64475 0.41201 0.0
C5096 C 0.74399 0.64405 0.38422 0.0
C5097 C 0.72459 0.65782 0.37989 0.0
C5098 C 0.73179 0.65326 0.38592 0.0
C5099 C 0.751 0.6383 0.40314 0.0
C5100 C 0.74461 0.64367 0.39727 0.0
H5101 H 0.71582 0.67812 0.38464 0.0
H5102 H 0.7285 0.67156 0.3939 0.0
H5103 H 0.73767 0.64925 0.36852 0.0
H5104 H 0.75199 0.61271 0.40233 0.0
H5105 H 0.74122 0.62157 0.39294 0.0
C5106 C 0.35179 0.0537 0.38151 0.0
C5107 C 0.33988 0.04488 0.38343 0.0
C5108 C 0.35696 0.0644 0.38833 0.0
C5109 C 0.34978 0.0837 0.40758 0.0
H5110 H 0.38225 0.09702 0.41935 0.0
C5111 C 0.37041 0.12788 0.44498 0.0
C5112 C 0.38595 0.13888 0.44057 0.0
C5113 C 0.36381 0.11408 0.43619 0.0
C5114 C 0.37324 0.09352 0.416 0.0
H5115 H 0.32405 0.0405 0.39395 0.0
H5116 H 0.33318 0.05906 0.40609 0.0
H5117 H 0.37286 0.07845 0.40736 0.0
H5118 H 0.40533 0.14089 0.43158 0.0
H5119 H 0.39379 0.1181 0.41878 0.0
H5120 H 0.35018 0.09876 0.41634 0.0
C5121 C 0.33847 0.05776 0.39917 0.0
C5122 C 0.36784 0.08285 0.40912 0.0
C5123 C 0.33327 0.04706 0.39231 0.0
C5124 C 0.39605 0.13451 0.43314 0.0
C5125 C 0.38864 0.1205 0.42474 0.0
C5126 C 0.35518 0.09435 0.41453 0.0
C5127 C 0.3504 0.06654 0.39731 0.0
C5128 C 0.35606 0.07783 0.40477 0.0
C5129 C 0.37273 0.1107 0.42593 0.0
C5130 C 0.36697 0.09938 0.41874 0.0
H5131 H 0.3572 0.05228 0.37487 0.0
H5132 H 0.36613 0.07102 0.38653 0.0
H5133 H 0.34075 0.08017 0.40424 0.0
H5134 H 0.36503 0.1304 0.45041 0.0
H5135 H 0.35443 0.10779 0.43713 0.0
C5136 C 0.95398 0.29986 0.37682 0.0
C5137 C 0.95949 0.29393 0.37166 0.0
C5138 C 0.94303 0.29351 0.38272 0.0
C5139 C 0.91649 0.26359 0.38432 0.0
H5140 H 0.91021 0.27638 0.41432 0.0
C5141 C 0.87227 0.23779 0.41084 0.0
C5142 C 0.86713 0.24444 0.41499 0.0
C5143 C 0.88387 0.24351 0.40631 0.0
C5144 C 0.91179 0.27273 0.40589 0.0
H5145 H 0.95781 0.27664 0.36872 0.0
H5146 H 0.93874 0.26555 0.37921 0.0
H5147 H 0.92987 0.28691 0.40503 0.0
H5148 H 0.87001 0.26224 0.41734 0.0
H5149 H 0.89024 0.27225 0.4094 0.0
H5150 H 0.89838 0.24948 0.3851 0.0
C5151 C 0.94286 0.27512 0.37856 0.0
C5152 C 0.92306 0.27877 0.40057 0.0
C5153 C 0.95384 0.28149 0.37266 0.0
C5154 C 0.87382 0.25691 0.41445 0.0
C5155 C 0.88542 0.26263 0.40993 0.0
C5156 C 0.90522 0.25755 0.38965 0.0
C5157 C 0.93731 0.28106 0.38363 0.0
C5158 C 0.92551 0.27433 0.38965 0.0
C5159 C 0.89056 0.256 0.40574 0.0
C5160 C 0.90271 0.26211 0.40044 0.0
H5161 H 0.95816 0.30945 0.37636 0.0
H5162 H 0.93895 0.29835 0.3864 0.0
H5163 H 0.91803 0.26001 0.37582 0.0
H5164 H 0.86725 0.22815 0.41097 0.0
H5165 H 0.88759 0.23815 0.40324 0.0
C5166 C 0.02879 0.39005 0.29815 0.0
C5167 C 0.01827 0.3812 0.30363 0.0
C5168 C 0.029 0.39952 0.29194 0.0
C5169 C 0.00952 0.40971 0.27816 0.0
H5170 H 0.03677 0.4411 0.28463 0.0
C5171 C 0.00932 0.4534 0.27041 0.0
C5172 C 0.01959 0.46311 0.26554 0.0
C5173 C 0.00914 0.44289 0.27331 0.0
C5174 C 0.02918 0.43238 0.28257 0.0
H5175 H 0.99962 0.37515 0.3064 0.0
H5176 H 9e-05 0.39185 0.29596 0.0
H5177 H 0.03651 0.4237 0.29297 0.0
H5178 H 0.03764 0.46937 0.25967 0.0
H5179 H 0.03736 0.45098 0.26477 0.0
H5180 H 0.00206 0.41852 0.26807 0.0
C5181 C 0.00815 0.3914 0.29631 0.0
C5182 C 0.02903 0.42239 0.28733 0.0
C5183 C 0.00792 0.38191 0.30247 0.0
C5184 C 0.0296 0.46201 0.26339 0.0
C5185 C 0.02945 0.45152 0.26636 0.0
C5186 C 0.00964 0.41973 0.27345 0.0
C5187 C 0.01873 0.40041 0.29109 0.0
C5188 C 0.01915 0.41093 0.2853 0.0
C5189 C 0.01927 0.44191 0.27152 0.0
C5190 C 0.01943 0.43118 0.27571 0.0
H5191 H 0.03695 0.38985 0.29894 0.0
H5192 H 0.03727 0.4062 0.28787 0.0
H5193 H 0.00186 0.40101 0.27623 0.0
H5194 H 0.00151 0.45404 0.27224 0.0
H5195 H 0.00121 0.43569 0.27739 0.0
C5196 C 0.62112 0.62166 0.29501 0.0
C5197 C 0.62402 0.62218 0.30775 0.0
C5198 C 0.61482 0.61072 0.28866 0.0
C5199 C 0.5973 0.57781 0.29376 0.0
H5200 H 0.60608 0.57644 0.2595 0.0
C5201 C 0.5835 0.52775 0.27004 0.0
C5202 C 0.57678 0.52631 0.2543 0.0
C5203 C 0.5894 0.54219 0.27737 0.0
C5204 C 0.60345 0.57671 0.26902 0.0
H5205 H 0.622 0.6114 0.32388 0.0
H5206 H 0.61181 0.59253 0.31271 0.0
H5207 H 0.615 0.59553 0.27052 0.0
H5208 H 0.57793 0.5382 0.2345 0.0
H5209 H 0.58834 0.56108 0.24725 0.0
H5210 H 0.58619 0.55884 0.29232 0.0
C5211 C 0.61411 0.60052 0.30762 0.0
C5212 C 0.60851 0.58767 0.27535 0.0
C5213 C 0.62019 0.61143 0.31402 0.0
C5214 C 0.58104 0.53929 0.24406 0.0
C5215 C 0.58704 0.55335 0.25224 0.0
C5216 C 0.59244 0.56683 0.28749 0.0
C5217 C 0.61143 0.6 0.29481 0.0
C5218 C 0.60556 0.58838 0.28785 0.0
C5219 C 0.59071 0.5546 0.26869 0.0
C5220 C 0.59553 0.56621 0.27511 0.0
H5221 H 0.62398 0.62971 0.28979 0.0
H5222 H 0.61272 0.61072 0.27887 0.0
H5223 H 0.59455 0.57796 0.30325 0.0
H5224 H 0.5817 0.52005 0.27542 0.0
H5225 H 0.59216 0.5434 0.28706 0.0
C5226 C 0.37748 0.9908 0.31919 0.0
C5227 C 0.36586 0.98479 0.31428 0.0
C5228 C 0.38677 0.99099 0.31256 0.0
C5229 C 0.3929 0.97418 0.28927 0.0
H5230 H 0.42331 0.00332 0.28651 0.0
C5231 C 0.43181 0.97508 0.26296 0.0
C5232 C 0.44314 0.98185 0.26849 0.0
C5233 C 0.42228 0.97612 0.2673 0.0
C5234 C 0.41492 0.99508 0.28729 0.0
H5235 H 0.35481 0.97424 0.29862 0.0
H5236 H 0.37107 0.97448 0.28706 0.0
H5237 H 0.40683 0.00379 0.29662 0.0
H5238 H 0.4533 0.99477 0.28306 0.0
H5239 H 0.43667 0.99643 0.29082 0.0
H5240 H 0.40101 0.96536 0.28036 0.0
C5241 C 0.37298 0.97907 0.29602 0.0
C5242 C 0.40548 0.99537 0.29305 0.0
C5243 C 0.36371 0.979 0.30259 0.0
C5244 C 0.44472 0.98964 0.27846 0.0
C5245 C 0.43519 0.99061 0.28286 0.0
C5246 C 0.40236 0.97386 0.28362 0.0
C5247 C 0.3846 0.98507 0.30095 0.0
C5248 C 0.39441 0.9849 0.2942 0.0
C5249 C 0.42382 0.98379 0.27741 0.0
C5250 C 0.41353 0.98429 0.28267 0.0
H5251 H 0.37941 0.99542 0.32813 0.0
H5252 H 0.39562 0.99559 0.31664 0.0
H5253 H 0.3845 0.96595 0.29015 0.0
H5254 H 0.43027 0.96885 0.2554 0.0
H5255 H 0.41368 0.97083 0.26279 0.0
C5256 C 0.61032 0.97659 0.30334 0.0
C5257 C 0.62136 0.98576 0.30784 0.0
C5258 C 0.60244 0.97928 0.29738 0.0
C5259 C 0.60058 0.00271 0.28068 0.0
H5260 H 0.56866 0.98808 0.29375 0.0
C5261 C 0.56958 0.02129 0.27115 0.0
C5262 C 0.55725 0.01341 0.2708 0.0
C5263 C 0.57733 0.01719 0.27402 0.0
C5264 C 0.57744 0.99208 0.28976 0.0
H5265 H 0.63301 0.00488 0.30928 0.0
H5266 H 0.61929 0.00958 0.29872 0.0
H5267 H 0.58234 0.98212 0.30162 0.0
H5268 H 0.54339 0.99495 0.27237 0.0
H5269 H 0.55689 0.98768 0.27692 0.0
H5270 H 0.59572 0.01263 0.26876 0.0
C5271 C 0.61672 0.00033 0.29985 0.0
C5272 C 0.58529 0.98868 0.29433 0.0
C5273 C 0.62451 0.99765 0.30598 0.0
C5274 C 0.55285 0.00125 0.27274 0.0
C5275 C 0.5606 0.99711 0.27544 0.0
C5276 C 0.59268 0.00601 0.27597 0.0
C5277 C 0.60555 0.99118 0.29563 0.0
C5278 C 0.59699 0.99409 0.28998 0.0
C5279 C 0.57292 0.00507 0.27643 0.0
C5280 C 0.58106 0.00088 0.28061 0.0
H5281 H 0.60767 0.96735 0.30471 0.0
H5282 H 0.5939 0.97206 0.29416 0.0
H5283 H 0.60953 0.00692 0.27708 0.0
H5284 H 0.57321 0.0307 0.26956 0.0
H5285 H 0.58673 0.02362 0.2748 0.0
C5286 C 0.01277 0.63366 0.29674 0.0
C5287 C 0.01322 0.63434 0.30985 0.0
C5288 C 0.0094 0.6229 0.29052 0.0
C5289 C 0.99239 0.59054 0.29528 0.0
H5290 H 0.0071 0.58936 0.26433 0.0
C5291 C 0.97921 0.54629 0.26917 0.0
C5292 C 0.97817 0.54632 0.25612 0.0
C5293 C 0.98403 0.55694 0.2761 0.0
C5294 C 0.00284 0.58956 0.27291 0.0
H5295 H 0.01098 0.6244 0.3267 0.0
H5296 H 0.00513 0.60562 0.31584 0.0
H5297 H 0.01494 0.6082 0.27577 0.0
H5298 H 0.98104 0.55743 0.24011 0.0
H5299 H 0.98932 0.57599 0.25218 0.0
H5300 H 0.98021 0.57192 0.29235 0.0
C5301 C 0.00717 0.61335 0.31038 0.0
C5302 C 0.00734 0.60035 0.27947 0.0
C5303 C 0.01053 0.62411 0.31659 0.0
C5304 C 0.98185 0.55718 0.25015 0.0
C5305 C 0.98666 0.5678 0.25706 0.0
C5306 C 0.98789 0.57974 0.28872 0.0
C5307 C 0.00641 0.61258 0.29727 0.0
C5308 C 0.00209 0.60099 0.29066 0.0
C5309 C 0.98787 0.56782 0.27011 0.0
C5310 C 0.99299 0.57916 0.2774 0.0
H5311 H 0.01463 0.64134 0.29127 0.0
H5312 H 0.00875 0.62258 0.28042 0.0
H5313 H 0.98804 0.59075 0.30378 0.0
H5314 H 0.97639 0.53805 0.27401 0.0
H5315 H 0.9849 0.55666 0.28613 0.0
C5316 C 0.37669 0.37573 0.30153 0.0
C5317 C 0.37595 0.37232 0.31406 0.0
C5318 C 0.38769 0.38175 0.29561 0.0
C5319 C 0.41808 0.38682 0.29753 0.0
H5320 H 0.42623 0.41404 0.2768 0.0
C5321 C 0.46167 0.41004 0.26982 0.0
C5322 C 0.46816 0.42252 0.27088 0.0
C5323 C 0.44996 0.40362 0.27396 0.0
C5324 C 0.42407 0.40646 0.28256 0.0
H5325 H 0.38624 0.37291 0.33027 0.0
H5326 H 0.40538 0.38331 0.31992 0.0
H5327 H 0.40676 0.40357 0.28663 0.0
H5328 H 0.46746 0.43807 0.27693 0.0
H5329 H 0.44699 0.42689 0.28412 0.0
H5330 H 0.43545 0.38983 0.29369 0.0
C5331 C 0.39744 0.38116 0.31463 0.0
C5332 C 0.4129 0.40041 0.28811 0.0
C5333 C 0.38647 0.3752 0.32056 0.0
C5334 C 0.46263 0.42847 0.2759 0.0
C5335 C 0.4509 0.42207 0.27997 0.0
C5336 C 0.42921 0.39282 0.29193 0.0
C5337 C 0.39817 0.38444 0.30207 0.0
C5338 C 0.40984 0.3906 0.29576 0.0
C5339 C 0.44449 0.40957 0.27922 0.0
C5340 C 0.43238 0.40277 0.28448 0.0
H5341 H 0.36876 0.3735 0.29619 0.0
H5342 H 0.38796 0.38405 0.28589 0.0
H5343 H 0.41592 0.37921 0.30325 0.0
H5344 H 0.46576 0.40524 0.26604 0.0
H5345 H 0.4452 0.394 0.27315 0.0
C5346 C 0.32913 0.27908 0.37252 0.0
C5347 C 0.33224 0.29056 0.37675 0.0
C5348 C 0.33452 0.27317 0.3777 0.0
C5349 C 0.35269 0.27353 0.40473 0.0
H5350 H 0.36267 0.25742 0.38136 0.0
C5351 C 0.38769 0.26019 0.41664 0.0
C5352 C 0.38583 0.24931 0.41174 0.0
C5353 C 0.38005 0.26433 0.41341 0.0
C5354 C 0.35979 0.26172 0.38805 0.0
H5355 H 0.34336 0.30478 0.38985 0.0
H5356 H 0.3528 0.29451 0.39883 0.0
H5357 H 0.35125 0.26617 0.37384 0.0
H5358 H 0.3745 0.23422 0.39972 0.0
H5359 H 0.36106 0.24136 0.39419 0.0
H5360 H 0.36151 0.26927 0.4189 0.0
C5361 C 0.34605 0.28997 0.39166 0.0
C5362 C 0.35322 0.26673 0.38374 0.0
C5363 C 0.34063 0.29586 0.3865 0.0
C5364 C 0.37607 0.24258 0.40372 0.0
C5365 C 0.36844 0.24672 0.40048 0.0
C5366 C 0.35931 0.26854 0.40905 0.0
C5367 C 0.34319 0.27862 0.3872 0.0
C5368 C 0.34965 0.27277 0.392 0.0
C5369 C 0.37045 0.25774 0.40512 0.0
C5370 C 0.36298 0.26262 0.40074 0.0
H5371 H 0.32257 0.27468 0.36514 0.0
H5372 H 0.33194 0.26434 0.3742 0.0
H5373 H 0.34995 0.27799 0.41137 0.0
H5374 H 0.39526 0.26564 0.42268 0.0
H5375 H 0.38193 0.27293 0.41702 0.0
C5376 C 0.70293 0.04057 0.38525 0.0
C5377 C 0.70242 0.03869 0.37226 0.0
C5378 C 0.70824 0.05211 0.39029 0.0
C5379 C 0.71605 0.08261 0.38227 0.0
H5380 H 0.7353 0.09116 0.41245 0.0
C5381 C 0.74061 0.13053 0.40327 0.0
C5382 C 0.74046 0.13156 0.41633 0.0
C5383 C 0.73632 0.11937 0.3975 0.0
C5384 C 0.72985 0.08888 0.40409 0.0
H5385 H 0.70744 0.04747 0.3544 0.0
H5386 H 0.7167 0.06761 0.36321 0.0
H5387 H 0.72748 0.07139 0.40313 0.0
H5388 H 0.73535 0.12172 0.43355 0.0
H5389 H 0.72773 0.10227 0.42351 0.0
H5390 H 0.71833 0.10007 0.3833 0.0
C5391 C 0.71282 0.06015 0.36948 0.0
C5392 C 0.72538 0.07755 0.39874 0.0
C5393 C 0.70753 0.04862 0.36444 0.0
C5394 C 0.73569 0.12119 0.42348 0.0
C5395 C 0.7314 0.11007 0.41773 0.0
C5396 C 0.72052 0.09395 0.38763 0.0
C5397 C 0.71315 0.06203 0.38246 0.0
C5398 C 0.71834 0.07425 0.38783 0.0
C5399 C 0.73176 0.10903 0.40468 0.0
C5400 C 0.72738 0.09717 0.39867 0.0
H5401 H 0.69892 0.03313 0.39153 0.0
H5402 H 0.7082 0.05324 0.40033 0.0
H5403 H 0.71053 0.08029 0.37395 0.0
H5404 H 0.74418 0.13836 0.39753 0.0
H5405 H 0.73677 0.11888 0.38743 0.0
C5406 C 0.95738 0.67227 0.37878 0.0
C5407 C 0.9619 0.66546 0.37354 0.0
C5408 C 0.94609 0.66672 0.38408 0.0
C5409 C 0.91771 0.63774 0.38442 0.0
H5410 H 0.91129 0.65204 0.41306 0.0
C5411 C 0.8724 0.61488 0.40923 0.0
C5412 C 0.86734 0.62209 0.41091 0.0
C5413 C 0.88428 0.61989 0.40574 0.0
C5414 C 0.91297 0.64796 0.40504 0.0
H5415 H 0.95833 0.64752 0.37008 0.0
H5416 H 0.93877 0.6378 0.37961 0.0
H5417 H 0.93141 0.66124 0.40489 0.0
H5418 H 0.87089 0.64024 0.41078 0.0
H5419 H 0.89168 0.64901 0.40488 0.0
H5420 H 0.89925 0.62441 0.38469 0.0
C5421 C 0.94376 0.64743 0.37932 0.0
C5422 C 0.92448 0.65326 0.40031 0.0
C5423 C 0.95499 0.65299 0.37388 0.0
C5424 C 0.87454 0.63446 0.40953 0.0
C5425 C 0.88644 0.63948 0.4062 0.0
C5426 C 0.90625 0.63238 0.38924 0.0
C5427 C 0.93912 0.65421 0.38442 0.0
C5428 C 0.92698 0.64829 0.38984 0.0
C5429 C 0.89138 0.63223 0.40406 0.0
C5430 C 0.90373 0.6375 0.39952 0.0
H5431 H 0.96247 0.6819 0.37853 0.0
H5432 H 0.94275 0.67225 0.38769 0.0
H5433 H 0.91922 0.63375 0.37622 0.0
H5434 H 0.86708 0.60534 0.41034 0.0
H5435 H 0.8879 0.61412 0.40428 0.0
C5436 C 0.39295 0.02595 0.7142 0.0
C5437 C 0.3833 0.01538 0.7093 0.0
C5438 C 0.40218 0.02574 0.7206 0.0
C5439 C 0.41727 0.00877 0.72213 0.0
H5440 H 0.43192 0.02754 0.7522 0.0
C5441 C 0.45856 0.01081 0.74389 0.0
C5442 C 0.46765 0.0221 0.74792 0.0
C5443 C 0.44725 0.00885 0.74105 0.0
C5444 C 0.428 0.02232 0.74375 0.0
H5445 H 0.37559 0.99622 0.7078 0.0
H5446 H 0.39188 0.99594 0.7187 0.0
H5447 H 0.41398 0.02634 0.74366 0.0
H5448 H 0.47194 0.04006 0.75264 0.0
H5449 H 0.45235 0.03681 0.74727 0.0
H5450 H 0.43147 0.00513 0.72182 0.0
C5451 C 0.39228 0.00438 0.7175 0.0
C5452 C 0.4177 0.02161 0.7389 0.0
C5453 C 0.38299 0.00456 0.7112 0.0
C5454 C 0.4651 0.03129 0.74948 0.0
C5455 C 0.45383 0.02937 0.74651 0.0
C5456 C 0.42762 0.00958 0.72689 0.0
C5457 C 0.40202 0.01498 0.72215 0.0
C5458 C 0.41233 0.01495 0.72795 0.0
C5459 C 0.44482 0.01818 0.74204 0.0
C5460 C 0.43322 0.01649 0.73768 0.0
H5461 H 0.39358 0.03446 0.71276 0.0
H5462 H 0.40965 0.03407 0.72394 0.0
H5463 H 0.41341 0.00369 0.71358 0.0
H5464 H 0.46027 0.00354 0.74271 0.0
H5465 H 0.44047 5e-05 0.73789 0.0
C5466 C 0.98642 0.36269 0.72489 0.0
C5467 C 0.98569 0.36278 0.71181 0.0
C5468 C 0.98845 0.37261 0.732 0.0
C5469 C 0.98643 0.39959 0.73218 0.0
H5470 H 0.01317 0.41188 0.75521 0.0
C5471 C 0.00357 0.45 0.75737 0.0
C5472 C 0.00918 0.4506 0.77353 0.0
C5473 C 0.9993 0.43638 0.74887 0.0
C5474 C 0.00551 0.40849 0.74907 0.0
H5475 H 0.98602 0.37306 0.69593 0.0
H5476 H 0.98941 0.39042 0.70843 0.0
H5477 H 0.0074 0.39374 0.74334 0.0
H5478 H 0.0199 0.44278 0.7876 0.0
H5479 H 0.01333 0.42181 0.77273 0.0
H5480 H 0.98436 0.41416 0.73807 0.0
C5481 C 0.98847 0.38268 0.71313 0.0
C5482 C 0.00226 0.3981 0.74219 0.0
C5483 C 0.98661 0.37281 0.706 0.0
C5484 C 0.01582 0.44161 0.77849 0.0
C5485 C 0.01117 0.42827 0.76935 0.0
C5486 C 0.98957 0.40991 0.73922 0.0
C5487 C 0.98962 0.38274 0.72618 0.0
C5488 C 0.99273 0.39358 0.73366 0.0
C5489 C 0.0027 0.42553 0.75501 0.0
C5490 C 0.99918 0.41449 0.74771 0.0
H5491 H 0.98583 0.35511 0.7296 0.0
H5492 H 0.98924 0.37243 0.74206 0.0
H5493 H 0.97899 0.39622 0.7257 0.0
H5494 H 0.00087 0.45615 0.75427 0.0
H5495 H 0.99481 0.43484 0.73995 0.0
C5496 C 0.62481 0.62285 0.72102 0.0
C5497 C 0.62488 0.62245 0.7079 0.0
C5498 C 0.61421 0.61628 0.72753 0.0
C5499 C 0.58302 0.59135 0.72394 0.0
H5500 H 0.57748 0.60692 0.75203 0.0
C5501 C 0.53992 0.56757 0.75254 0.0
C5502 C 0.53478 0.5744 0.75604 0.0
C5503 C 0.55136 0.57303 0.7476 0.0
C5504 C 0.57886 0.60246 0.74417 0.0
H5505 H 0.61387 0.61443 0.69136 0.0
H5506 H 0.59538 0.60327 0.70266 0.0
H5507 H 0.59648 0.617 0.74142 0.0
H5508 H 0.53745 0.5922 0.75673 0.0
H5509 H 0.55734 0.60173 0.74796 0.0
H5510 H 0.56522 0.57703 0.72635 0.0
C5511 C 0.60354 0.60855 0.70796 0.0
C5512 C 0.58982 0.60818 0.73818 0.0
C5513 C 0.61413 0.61508 0.70146 0.0
C5514 C 0.54129 0.58677 0.75438 0.0
C5515 C 0.5527 0.59222 0.74939 0.0
C5516 C 0.57204 0.58566 0.72989 0.0
C5517 C 0.60341 0.60916 0.72107 0.0
C5518 C 0.592 0.60275 0.72791 0.0
C5519 C 0.55786 0.58541 0.74588 0.0
C5520 C 0.56978 0.59119 0.74 0.0
H5521 H 0.63289 0.62851 0.72629 0.0
H5522 H 0.61447 0.61684 0.73763 0.0
H5523 H 0.58444 0.58684 0.71616 0.0
H5524 H 0.53502 0.55799 0.75349 0.0
H5525 H 0.55508 0.56753 0.74509 0.0
C5526 C 0.67121 0.71836 0.64022 0.0
C5527 C 0.66413 0.70589 0.6406 0.0
C5528 C 0.66713 0.72505 0.6341 0.0
C5529 C 0.64512 0.72257 0.61056 0.0
H5530 H 0.64851 0.75071 0.62728 0.0
C5531 C 0.61776 0.74405 0.59621 0.0
C5532 C 0.62337 0.75652 0.59643 0.0
C5533 C 0.62362 0.73837 0.60078 0.0
C5534 C 0.64765 0.74298 0.62239 0.0
H5535 H 0.64739 0.69065 0.63453 0.0
H5536 H 0.64021 0.7023 0.62403 0.0
H5537 H 0.65727 0.73994 0.63667 0.0
H5538 H 0.6394 0.77284 0.60189 0.0
H5539 H 0.64975 0.76294 0.60971 0.0
H5540 H 0.63537 0.72552 0.59636 0.0
C5541 C 0.64894 0.70692 0.62839 0.0
C5542 C 0.65267 0.73681 0.62777 0.0
C5543 C 0.65299 0.70025 0.63454 0.0
C5544 C 0.63494 0.76321 0.60142 0.0
C5545 C 0.64081 0.75754 0.606 0.0
C5546 C 0.64011 0.72875 0.60517 0.0
C5547 C 0.65592 0.7194 0.62816 0.0
C5548 C 0.65132 0.72644 0.62201 0.0
C5549 C 0.63519 0.74505 0.60578 0.0
C5550 C 0.64118 0.73894 0.6111 0.0
H5551 H 0.6798 0.72296 0.64486 0.0
H5552 H 0.67275 0.73464 0.63399 0.0
H5553 H 0.6441 0.71473 0.60578 0.0
H5554 H 0.60876 0.73866 0.59266 0.0
H5555 H 0.61894 0.72874 0.6007 0.0
C5556 C 0.28997 0.95451 0.63042 0.0
C5557 C 0.29571 0.95608 0.64201 0.0
C5558 C 0.28358 0.94322 0.62478 0.0
C5559 C 0.26987 0.91093 0.63137 0.0
H5560 H 0.2724 0.90826 0.59557 0.0
C5561 C 0.25286 0.85998 0.60817 0.0
C5562 C 0.24434 0.85787 0.59347 0.0
C5563 C 0.25945 0.87467 0.61504 0.0
C5564 C 0.27146 0.90886 0.60554 0.0
H5565 H 0.29891 0.94688 0.65692 0.0
H5566 H 0.28818 0.92734 0.6469 0.0
H5567 H 0.28226 0.92784 0.60564 0.0
H5568 H 0.24302 0.86891 0.574 0.0
H5569 H 0.2546 0.89222 0.58585 0.0
H5570 H 0.25932 0.89191 0.63125 0.0
C5571 C 0.28844 0.93479 0.64222 0.0
C5572 C 0.27711 0.9201 0.61133 0.0
C5573 C 0.29476 0.94605 0.6479 0.0
C5574 C 0.24724 0.8704 0.58308 0.0
C5575 C 0.25402 0.88476 0.59077 0.0
C5576 C 0.26433 0.8997 0.62558 0.0
C5577 C 0.28282 0.93323 0.63056 0.0
C5578 C 0.27644 0.92128 0.62434 0.0
C5579 C 0.25961 0.88669 0.60662 0.0
C5580 C 0.26513 0.89857 0.61263 0.0
H5581 H 0.29061 0.96203 0.62554 0.0
H5582 H 0.27923 0.94234 0.61588 0.0
H5583 H 0.26895 0.9115 0.64136 0.0
H5584 H 0.2518 0.85252 0.61352 0.0
H5585 H 0.26337 0.87626 0.62428 0.0
C5586 C 0.05617 0.34277 0.65562 0.0
C5587 C 0.04581 0.33497 0.64878 0.0
C5588 C 0.06733 0.34797 0.65005 0.0
C5589 C 0.0818 0.35355 0.61879 0.0
H5590 H 0.10953 0.36093 0.63889 0.0
C5591 C 0.12846 0.3663 0.59964 0.0
C5592 C 0.13772 0.3774 0.60406 0.0
C5593 C 0.11712 0.36126 0.60477 0.0
C5594 C 0.10184 0.35893 0.6332 0.0
H5595 H 0.03927 0.32662 0.63054 0.0
H5596 H 0.05866 0.33495 0.62117 0.0
H5597 H 0.09002 0.35143 0.6485 0.0
H5598 H 0.14236 0.39172 0.61748 0.0
H5599 H 0.12258 0.38263 0.62675 0.0
H5600 H 0.09376 0.36063 0.60338 0.0
C5601 C 0.05817 0.3374 0.63075 0.0
C5602 C 0.09065 0.35357 0.6387 0.0
C5603 C 0.04699 0.3324 0.63624 0.0
C5604 C 0.13538 0.38322 0.61383 0.0
C5605 C 0.12412 0.37803 0.61915 0.0
C5606 C 0.09297 0.35866 0.61325 0.0
C5607 C 0.06851 0.34534 0.63754 0.0
C5608 C 0.08045 0.35087 0.6316 0.0
C5609 C 0.11491 0.36703 0.61465 0.0
C5610 C 0.10307 0.36146 0.62043 0.0
H5611 H 0.05574 0.34485 0.66535 0.0
H5612 H 0.075 0.35418 0.65558 0.0
H5613 H 0.07427 0.35188 0.61302 0.0
H5614 H 0.12995 0.36145 0.59228 0.0
H5615 H 0.11013 0.3527 0.60124 0.0
C5616 C 0.3049 0.35297 0.64203 0.0
C5617 C 0.2989 0.34055 0.64319 0.0
C5618 C 0.29926 0.35852 0.63662 0.0
C5619 C 0.27275 0.35259 0.61761 0.0
H5620 H 0.27892 0.38243 0.63269 0.0
C5621 C 0.24258 0.37282 0.61098 0.0
C5622 C 0.24818 0.38516 0.60924 0.0
C5623 C 0.24928 0.36746 0.61361 0.0
C5624 C 0.27722 0.37418 0.62827 0.0
H5625 H 0.28234 0.32415 0.63951 0.0
H5626 H 0.27229 0.33383 0.63041 0.0
H5627 H 0.28952 0.37286 0.64035 0.0
H5628 H 0.26518 0.40152 0.60844 0.0
H5629 H 0.27692 0.39218 0.61324 0.0
H5630 H 0.26008 0.35379 0.60586 0.0
C5631 C 0.28147 0.33931 0.63338 0.0
C5632 C 0.28332 0.36869 0.63263 0.0
C5633 C 0.28719 0.33375 0.63865 0.0
C5634 C 0.26065 0.392 0.60982 0.0
C5635 C 0.26734 0.38667 0.61259 0.0
C5636 C 0.26654 0.35803 0.61335 0.0
C5637 C 0.2874 0.35179 0.6324 0.0
C5638 C 0.28115 0.35779 0.6274 0.0
C5639 C 0.26171 0.37437 0.61468 0.0
C5640 C 0.26869 0.36886 0.61867 0.0
H5641 H 0.31401 0.35841 0.64528 0.0
H5642 H 0.30422 0.36811 0.63576 0.0
H5643 H 0.27098 0.34432 0.6132 0.0
H5644 H 0.23299 0.36733 0.61059 0.0
H5645 H 0.2447 0.35798 0.61527 0.0
C5646 C 0.65178 0.95473 0.63032 0.0
C5647 C 0.66386 0.96004 0.63357 0.0
C5648 C 0.64565 0.94322 0.62519 0.0
C5649 C 0.64997 0.9196 0.61052 0.0
H5650 H 0.61785 0.89881 0.62197 0.0
C5651 C 0.62536 0.86822 0.60638 0.0
C5652 C 0.61323 0.86222 0.60316 0.0
C5653 C 0.6316 0.88054 0.60837 0.0
C5654 C 0.62675 0.90455 0.61853 0.0
H5655 H 0.67904 0.95754 0.63387 0.0
H5656 H 0.6683 0.93733 0.62519 0.0
H5657 H 0.62864 0.91954 0.62888 0.0
H5658 H 0.5982 0.86443 0.59911 0.0
H5659 H 0.60909 0.88601 0.60273 0.0
H5660 H 0.64813 0.90438 0.60051 0.0
C5661 C 0.66359 0.94213 0.62634 0.0
C5662 C 0.63295 0.91646 0.62248 0.0
C5663 C 0.66975 0.9537 0.63136 0.0
C5664 C 0.60754 0.86884 0.60162 0.0
C5665 C 0.61375 0.88115 0.60374 0.0
C5666 C 0.64379 0.90764 0.60666 0.0
C5667 C 0.65142 0.93669 0.62329 0.0
C5668 C 0.64468 0.92413 0.6186 0.0
C5669 C 0.6258 0.88711 0.60732 0.0
C5670 C 0.63214 0.89997 0.6107 0.0
H5671 H 0.64706 0.95949 0.63173 0.0
H5672 H 0.63636 0.93945 0.62271 0.0
H5673 H 0.6589 0.92528 0.60716 0.0
H5674 H 0.62995 0.86334 0.60767 0.0
H5675 H 0.64085 0.88487 0.61123 0.0
C5676 C 0.0486 0.71115 0.65809 0.0
C5677 C 0.03835 0.70451 0.65064 0.0
C5678 C 0.05988 0.71666 0.65273 0.0
C5679 C 0.07519 0.72705 0.62262 0.0
H5680 H 0.10012 0.72379 0.63846 0.0
C5681 C 0.11771 0.73736 0.59669 0.0
C5682 C 0.12855 0.74314 0.60332 0.0
C5683 C 0.10698 0.73327 0.60289 0.0
C5684 C 0.09331 0.72494 0.63401 0.0
H5685 H 0.03194 0.69839 0.63173 0.0
H5686 H 0.05155 0.70808 0.62241 0.0
H5687 H 0.08089 0.7158 0.64857 0.0
H5688 H 0.13664 0.74901 0.62167 0.0
H5689 H 0.11786 0.742 0.63254 0.0
H5690 H 0.08754 0.73614 0.60805 0.0
C5691 C 0.05087 0.70917 0.63236 0.0
C5692 C 0.0823 0.72035 0.6398 0.0
C5693 C 0.03963 0.70363 0.63771 0.0
C5694 C 0.12842 0.74462 0.61632 0.0
C5695 C 0.11767 0.74055 0.62254 0.0
C5696 C 0.0862 0.73166 0.61686 0.0
C5697 C 0.06113 0.7157 0.63981 0.0
C5698 C 0.07307 0.72123 0.63409 0.0
C5699 C 0.10682 0.73486 0.61588 0.0
C5700 C 0.09534 0.73052 0.62239 0.0
H5701 H 0.04792 0.71213 0.66805 0.0
H5702 H 0.06761 0.72176 0.65869 0.0
H5703 H 0.06832 0.72805 0.61809 0.0
H5704 H 0.11755 0.73603 0.58667 0.0
H5705 H 0.09879 0.72872 0.5975 0.0
C5706 C 0.98604 0.61885 0.72139 0.0
C5707 C 0.97992 0.61611 0.7099 0.0
C5708 C 0.98842 0.61066 0.72704 0.0
C5709 C 0.9912 0.58444 0.71934 0.0
H5710 H 0.99123 0.58145 0.75532 0.0
C5711 C 0.99948 0.54964 0.74247 0.0
C5712 C 0.00782 0.55385 0.75233 0.0
C5713 C 0.99501 0.5566 0.73791 0.0
C5714 C 0.99131 0.58224 0.74526 0.0
H5715 H 0.97109 0.60246 0.69555 0.0
H5716 H 0.97507 0.58808 0.70547 0.0
H5717 H 0.98514 0.59463 0.74617 0.0
H5718 H 0.01813 0.56873 0.76504 0.0
H5719 H 0.01017 0.58085 0.75717 0.0
H5720 H 0.99736 0.57204 0.71843 0.0
C5721 C 0.97829 0.59667 0.71 0.0
C5722 C 0.98785 0.58981 0.74001 0.0
C5723 C 0.97597 0.60489 0.70432 0.0
C5724 C 0.01151 0.56514 0.75762 0.0
C5725 C 0.00696 0.57207 0.75311 0.0
C5726 C 0.99457 0.57682 0.72458 0.0
C5727 C 0.98468 0.59951 0.72135 0.0
C5728 C 0.98783 0.59107 0.72698 0.0
C5729 C 0.9988 0.56795 0.74308 0.0
C5730 C 0.99473 0.57569 0.73759 0.0
H5731 H 0.98933 0.62749 0.72584 0.0
H5732 H 0.99352 0.61323 0.73567 0.0
H5733 H 0.99154 0.58536 0.70929 0.0
H5734 H 0.99663 0.54105 0.73811 0.0
H5735 H 0.98867 0.55315 0.73022 0.0
C5736 C 0.37575 0.37826 0.72041 0.0
C5737 C 0.37691 0.37691 0.70755 0.0
C5738 C 0.38116 0.38958 0.72598 0.0
C5739 C 0.39188 0.42077 0.71796 0.0
H5740 H 0.40462 0.42713 0.75174 0.0
C5741 C 0.41274 0.46735 0.74184 0.0
C5742 C 0.40963 0.46754 0.75435 0.0
C5743 C 0.40958 0.45655 0.7358 0.0
C5744 C 0.40102 0.42546 0.74232 0.0
H5745 H 0.38522 0.38631 0.6906 0.0
H5746 H 0.39479 0.40609 0.70035 0.0
H5747 H 0.39824 0.4078 0.74191 0.0
H5748 H 0.4005 0.45661 0.77022 0.0
H5749 H 0.39488 0.43777 0.75966 0.0
H5750 H 0.39455 0.43839 0.71844 0.0
C5751 C 0.38947 0.39841 0.70607 0.0
C5752 C 0.39737 0.41439 0.73669 0.0
C5753 C 0.38403 0.38709 0.7005 0.0
C5754 C 0.40308 0.45672 0.7606 0.0
C5755 C 0.39996 0.44595 0.75459 0.0
C5756 C 0.39556 0.43184 0.72359 0.0
C5757 C 0.38788 0.39981 0.71883 0.0
C5758 C 0.39262 0.41186 0.7245 0.0
C5759 C 0.40326 0.44575 0.74216 0.0
C5760 C 0.40001 0.43425 0.73589 0.0
H5761 H 0.3702 0.3706 0.72606 0.0
H5762 H 0.37963 0.39034 0.7358 0.0
H5763 H 0.3881 0.41905 0.70863 0.0
H5764 H 0.41775 0.47556 0.73679 0.0
H5765 H 0.41229 0.45667 0.72623 0.0
C5766 C 0.63015 0.0015 0.70487 0.0
C5767 C 0.63813 0.01308 0.70085 0.0
C5768 C 0.62 0.99912 0.71148 0.0
C5769 C 0.60662 0.0138 0.72964 0.0
H5770 H 0.57711 0.98469 0.72175 0.0
C5771 C 0.5605 0.00586 0.74353 0.0
C5772 C 0.55207 0.99451 0.74774 0.0
C5773 C 0.57143 0.00805 0.73901 0.0
C5774 C 0.58531 0.99278 0.72418 0.0
H5775 H 0.64173 0.03123 0.70057 0.0
H5776 H 0.62391 0.02707 0.71193 0.0
H5777 H 0.5953 0.98868 0.71138 0.0
H5778 H 0.54853 0.97659 0.7507 0.0
H5779 H 0.56768 0.9804 0.74272 0.0
H5780 H 0.59649 0.018 0.74222 0.0
C5781 C 0.6256 0.01986 0.71021 0.0
C5782 C 0.59575 0.99507 0.71825 0.0
C5783 C 0.6358 0.02225 0.70366 0.0
C5784 C 0.55489 0.98543 0.74753 0.0
C5785 C 0.56579 0.98759 0.74291 0.0
C5786 C 0.59615 0.01153 0.73552 0.0
C5787 C 0.61755 0.00826 0.71417 0.0
C5788 C 0.60653 0.00565 0.72084 0.0
C5789 C 0.57413 0.9989 0.73848 0.0
C5790 C 0.58537 0.00103 0.73279 0.0
H5791 H 0.63182 0.99429 0.70301 0.0
H5792 H 0.61411 0.99013 0.71458 0.0
H5793 H 0.61479 0.02193 0.73203 0.0
H5794 H 0.55854 0.013 0.74351 0.0
H5795 H 0.57762 0.01681 0.73553 0.0
loop_
_geom_bond_atom_site_label_1
_geom_bond_atom_site_label_2
_geom_bond_distance
_geom_bond_site_symmetry_2
_ccdc_geom_bond_type
Li0 N17 1.990 1_554 S
Li0 O60 1.972 . S
Li0 O61 1.970 1_654 S
Li0 O62 1.961 . S
Li1 N25 1.990 . S
Li1 O60 1.936 1_455 S
Li1 O61 1.956 1_554 S
Li1 O63 1.961 . S
Li2 N47 1.990 . S
Li2 O60 1.986 . S
Li2 O62 1.957 . S
Li2 O63 1.970 1_655 S
Li3 N53 1.990 . S
Li3 O61 1.961 . S
Li3 O62 1.970 1_456 S
Li3 O63 1.956 1_556 S
C4 C6 1.264 1_655 S
C4 C7 1.356 . S
C4 O60 1.326 . S
N5 C8 1.314 . S
N5 C9 1.279 . S
C6 C4 1.264 1_455 S
C6 C8 1.350 1_455 S
C6 H64 1.022 . S
C7 C4 1.356 . S
C7 C9 1.358 . S
C7 H65 0.930 . S
C8 N5 1.314 . S
C8 C6 1.350 1_655 S
C8 H66 0.881 1_655 S
C9 N5 1.279 . S
C9 C7 1.358 . S
C9 H67 0.930 . S
C10 C13 1.348 . S
C10 C14 1.356 . S
C10 O61 1.325 . S
C11 N12 1.279 . S
C11 C14 1.358 . S
C11 H68 0.930 . S
N12 C11 1.279 . S
N12 C15 1.314 . S
C13 C10 1.348 . S
C13 C15 1.353 . S
C13 H69 0.984 . S
C14 C10 1.356 . S
C14 C11 1.358 . S
C14 H70 0.930 . S
C15 N12 1.314 . S
C15 C13 1.353 . S
C15 H71 0.930 . S
C16 N17 1.314 . S
C16 C21 1.353 . S
C16 H22 0.930 . S
N17 Li0 1.990 1_556 S
N17 C16 1.314 . S
N17 C19 1.279 1_556 S
C18 C19 1.358 1_556 S
C18 C20 1.356 . S
C18 H72 0.930 1_556 S
C19 N17 1.279 1_554 S
C19 C18 1.358 1_554 S
C19 H23 0.930 . S
C20 C18 1.356 . S
C20 C21 1.348 . S
C21 C16 1.353 . S
C21 C20 1.348 . S
C21 H73 0.929 . S
H22 C16 0.930 . S
H23 C19 0.930 . S
C24 N25 1.314 . S
C24 C26 1.353 . S
C24 H30 0.930 . S
N25 Li1 1.990 . S
N25 C24 1.314 . S
N25 C28 1.279 . S
C26 C24 1.353 . S
C26 C29 1.348 . S
C26 H74 0.929 . S
C27 C28 1.358 . S
C27 C29 1.356 . S
C27 H75 0.930 . S
C28 N25 1.279 . S
C28 C27 1.358 . S
C28 H31 0.930 . S
C29 C26 1.348 . S
C29 C27 1.356 . S
H30 C24 0.930 . S
H31 C28 0.930 . S
C32 C34 1.348 . S
C32 C35 1.355 . S
C32 O62 1.325 1_556 S
N33 C36 1.314 . S
N33 C37 1.279 . S
C34 C32 1.348 . S
C34 C36 1.353 . S
C34 H76 0.929 . S
C35 C32 1.355 . S
C35 C37 1.357 . S
C35 H77 0.932 1_556 S
C36 N33 1.314 . S
C36 C34 1.353 . S
C36 H78 0.930 . S
C37 N33 1.279 . S
C37 C35 1.357 . S
C37 H79 0.930 . S
C38 C39 1.348 . S
C38 C40 1.356 . S
C38 O63 1.325 . S
C39 C38 1.348 . S
C39 C41 1.353 . S
C39 H80 0.929 . S
C40 C38 1.356 . S
C40 C42 1.358 . S
C40 H81 0.930 . S
C41 C39 1.353 . S
C41 N43 1.314 . S
C41 H82 0.930 . S
C42 C40 1.358 . S
C42 N43 1.279 . S
C42 H83 0.930 . S
N43 C41 1.314 . S
N43 C42 1.279 . S
C44 C46 1.353 . S
C44 N47 1.314 . S
C44 H50 0.954 . S
C45 N47 1.279 . S
C45 C48 1.358 . S
C45 H51 0.930 . S
C46 C44 1.353 . S
C46 C49 1.348 . S
C46 H84 0.929 . S
N47 Li2 1.990 . S
N47 C44 1.314 . S
N47 C45 1.279 . S
C48 C45 1.358 . S
C48 C49 1.356 . S
C48 H85 0.930 . S
C49 C46 1.348 . S
C49 C48 1.356 . S
H50 C44 0.954 . S
H51 C45 0.930 . S
C52 N53 1.314 . S
C52 C54 1.353 . S
C52 H58 0.930 . S
N53 Li3 1.990 . S
N53 C52 1.314 . S
N53 C56 1.279 . S
C54 C52 1.353 . S
C54 C57 1.348 . S
C54 H86 0.929 . S
C55 C56 1.358 . S
C55 C57 1.356 . S
C55 H87 0.930 . S
C56 N53 1.279 . S
C56 C55 1.358 . S
C56 H59 0.930 . S
C57 C54 1.348 . S
C57 C55 1.356 . S
H58 C52 0.930 . S
H59 C56 0.930 . S
O60 Li0 1.972 . S
O60 Li1 1.936 1_655 S
O60 Li2 1.986 . S
O60 C4 1.326 . S
O61 Li0 1.970 1_456 S
O61 Li1 1.956 1_556 S
O61 Li3 1.961 . S
O61 C10 1.325 . S
O62 Li0 1.961 . S
O62 Li2 1.957 . S
O62 Li3 1.970 1_654 S
O62 C32 1.325 1_554 S
O63 Li1 1.961 . S
O63 Li2 1.970 1_455 S
O63 Li3 1.956 1_554 S
O63 C38 1.325 . S
H64 C6 1.022 . S
H65 C7 0.930 . S
H66 C8 0.881 1_455 S
H67 C9 0.930 . S
H68 C11 0.930 . S
H69 C13 0.984 . S
H70 C14 0.930 . S
H71 C15 0.930 . S
H72 C18 0.930 1_554 S
H73 C21 0.929 . S
H74 C26 0.929 . S
H75 C27 0.930 . S
H76 C34 0.929 . S
H77 C35 0.932 1_554 S
H78 C36 0.930 . S
H79 C37 0.930 . S
H80 C39 0.929 . S
H81 C40 0.930 . S
H82 C41 0.930 . S
H83 C42 0.930 . S
H84 C46 0.929 . S
H85 C48 0.930 . S
H86 C54 0.929 . S
H87 C55 0.930 . S
Li88 N105 1.990 . S
Li88 O148 1.956 . S
Li88 O149 1.970 . S
Li88 O150 1.961 . S
Li89 N113 1.990 . S
Li89 O148 1.970 . S
Li89 O149 1.956 . S
Li89 O151 1.961 . S
Li90 N135 1.990 . S
Li90 O148 1.961 . S
Li90 O150 1.956 . S
Li90 O151 1.970 . S
Li91 N141 1.990 1_554 S
Li91 O149 1.961 . S
Li91 O150 1.970 . S
Li91 O151 1.956 . S
C92 C94 1.348 . S
C92 C95 1.356 . S
C92 O148 1.325 . S
N93 C96 1.314 . S
N93 C97 1.279 . S
C94 C92 1.348 . S
C94 C96 1.353 . S
C94 H152 0.929 . S
C95 C92 1.356 . S
C95 C97 1.358 . S
C95 H153 0.930 . S
C96 N93 1.314 . S
C96 C94 1.353 . S
C96 H154 0.930 . S
C97 N93 1.279 . S
C97 C95 1.358 . S
C97 H155 0.930 . S
C98 C101 1.348 . S
C98 C102 1.356 . S
C98 O149 1.325 1_556 S
C99 N100 1.279 . S
C99 C102 1.358 . S
C99 H156 0.930 . S
N100 C99 1.279 . S
N100 C103 1.314 . S
C101 C98 1.348 . S
C101 C103 1.353 . S
C101 H157 0.929 . S
C102 C98 1.356 . S
C102 C99 1.358 . S
C102 H158 0.930 . S
C103 N100 1.314 . S
C103 C101 1.353 . S
C103 H159 0.930 . S
C104 N105 1.314 1_556 S
C104 C109 1.353 . S
C104 H110 0.930 . S
N105 Li88 1.990 . S
N105 C104 1.314 1_554 S
N105 C107 1.279 . S
C106 C107 1.390 . S
C106 C108 1.291 1_554 S
C106 H160 0.967 . S
C107 N105 1.279 . S
C107 C106 1.390 . S
C107 H111 0.930 . S
C108 C106 1.291 1_556 S
C108 C109 1.348 . S
C109 C104 1.353 . S
C109 C108 1.348 . S
C109 H161 0.929 . S
H110 C104 0.930 . S
H111 C107 0.930 . S
C112 N113 1.314 . S
C112 C114 1.353 . S
C112 H118 0.930 . S
N113 Li89 1.990 . S
N113 C112 1.314 . S
N113 C116 1.279 . S
C114 C112 1.353 . S
C114 C117 1.348 . S
C114 H162 0.929 . S
C115 C116 1.358 . S
C115 C117 1.356 . S
C115 H163 0.930 . S
C116 N113 1.279 . S
C116 C115 1.358 . S
C116 H119 0.930 . S
C117 C114 1.348 . S
C117 C115 1.356 . S
H118 C112 0.930 . S
H119 C116 0.930 . S
C120 C122 1.348 1_554 S
C120 C123 1.356 . S
C120 O150 1.325 . S
N121 C124 1.314 . S
N121 C125 1.279 . S
C122 C120 1.348 1_556 S
C122 C124 1.353 . S
C122 H164 0.929 . S
C123 C120 1.356 . S
C123 C125 1.358 1_554 S
C123 H165 0.930 . S
C124 N121 1.314 . S
C124 C122 1.353 . S
C124 H166 0.930 . S
C125 N121 1.279 . S
C125 C123 1.358 1_556 S
C125 H167 0.943 . S
C126 C127 1.348 . S
C126 C128 1.356 . S
C126 O151 1.325 . S
C127 C126 1.348 . S
C127 C129 1.353 . S
C127 H168 0.929 . S
C128 C126 1.356 . S
C128 C130 1.358 . S
C128 H169 0.930 . S
C129 C127 1.353 . S
C129 N131 1.314 . S
C129 H170 0.930 . S
C130 C128 1.358 . S
C130 N131 1.279 . S
C130 H171 0.930 . S
N131 C129 1.314 . S
N131 C130 1.279 . S
C132 C134 1.353 . S
C132 N135 1.314 . S
C132 H138 0.930 . S
C133 N135 1.279 . S
C133 C136 1.358 . S
C133 H139 0.930 . S
C134 C132 1.353 . S
C134 C137 1.348 . S
C134 H172 0.929 . S
N135 Li90 1.990 . S
N135 C132 1.314 . S
N135 C133 1.279 . S
C136 C133 1.358 . S
C136 C137 1.356 . S
C136 H173 0.930 . S
C137 C134 1.348 . S
C137 C136 1.356 . S
H138 C132 0.930 . S
H139 C133 0.930 . S
C140 N141 1.314 . S
C140 C142 1.353 . S
C140 H146 0.930 . S
N141 Li91 1.990 1_556 S
N141 C140 1.314 . S
N141 C144 1.279 . S
C142 C140 1.353 . S
C142 C145 1.348 . S
C142 H174 0.929 . S
C143 C144 1.358 . S
C143 C145 1.356 . S
C143 H175 0.930 . S
C144 N141 1.279 . S
C144 C143 1.358 . S
C144 H147 0.930 1_556 S
C145 C142 1.348 . S
C145 C143 1.356 . S
H146 C140 0.930 . S
H147 C144 0.930 1_554 S
O148 Li88 1.956 . S
O148 Li89 1.970 . S
O148 Li90 1.961 . S
O148 C92 1.325 . S
O149 Li88 1.970 . S
O149 Li89 1.956 . S
O149 Li91 1.961 . S
O149 C98 1.325 1_554 S
O150 Li88 1.961 . S
O150 Li90 1.956 . S
O150 Li91 1.970 . S
O150 C120 1.325 . S
O151 Li89 1.961 . S
O151 Li90 1.970 . S
O151 Li91 1.956 . S
O151 C126 1.325 . S
H152 C94 0.929 . S
H153 C95 0.930 . S
H154 C96 0.930 . S
H155 C97 0.930 . S
H156 C99 0.930 . S
H157 C101 0.929 . S
H158 C102 0.930 . S
H159 C103 0.930 . S
H160 C106 0.967 . S
H161 C109 0.929 . S
H162 C114 0.929 . S
H163 C115 0.930 . S
H164 C122 0.929 . S
H165 C123 0.930 . S
H166 C124 0.930 . S
H167 C125 0.943 . S
H168 C127 0.929 . S
H169 C128 0.930 . S
H170 C129 0.930 . S
H171 C130 0.930 . S
H172 C134 0.929 . S
H173 C136 0.930 . S
H174 C142 0.929 . S
H175 C143 0.930 . S
Li176 N193 1.990 . S
Li176 O236 1.956 1_556 S
Li176 O237 1.970 1_566 S
Li176 O238 1.961 . S
Li177 N201 1.990 . S
Li177 O236 1.970 1_545 S
Li177 O237 1.956 . S
Li177 O239 1.961 . S
Li178 N223 1.990 . S
Li178 O236 1.961 . S
Li178 O238 1.956 1_554 S
Li178 O239 1.970 1_565 S
Li179 N229 1.990 1_554 S
Li179 O237 1.961 . S
Li179 O238 1.970 1_544 S
Li179 O239 1.956 . S
C180 C182 1.348 . S
C180 C183 1.356 . S
C180 O236 1.325 . S
N181 C184 1.314 . S
N181 C185 1.279 . S
C182 C180 1.348 . S
C182 C184 1.353 . S
C182 H240 0.929 . S
C183 C180 1.356 . S
C183 C185 1.358 . S
C183 H241 0.930 . S
C184 N181 1.314 . S
C184 C182 1.353 . S
C184 H242 0.930 . S
C185 N181 1.279 . S
C185 C183 1.358 . S
C185 H243 0.930 . S
C186 C189 1.348 . S
C186 C190 1.356 1_556 S
C186 O237 1.325 1_556 S
C187 N188 1.279 . S
C187 C190 1.358 1_556 S
C187 H244 0.930 1_556 S
N188 C187 1.279 . S
N188 C191 1.314 . S
C189 C186 1.348 . S
C189 C191 1.353 . S
C189 H245 0.929 . S
C190 C186 1.356 1_554 S
C190 C187 1.358 1_554 S
C190 H246 0.930 . S
C191 N188 1.314 . S
C191 C189 1.353 . S
C191 H247 0.930 . S
C192 N193 1.314 . S
C192 C197 1.353 . S
C192 H198 0.930 . S
N193 Li176 1.990 . S
N193 C192 1.314 . S
N193 C195 1.279 . S
C194 C195 1.358 . S
C194 C196 1.356 . S
C194 H248 0.930 . S
C195 N193 1.279 . S
C195 C194 1.358 . S
C195 H199 0.930 . S
C196 C194 1.356 . S
C196 C197 1.348 . S
C197 C192 1.353 . S
C197 C196 1.348 . S
C197 H249 0.929 . S
H198 C192 0.930 . S
H199 C195 0.930 . S
C200 N201 1.314 . S
C200 C202 1.353 . S
C200 H206 0.930 . S
N201 Li177 1.990 . S
N201 C200 1.314 . S
N201 C204 1.279 . S
C202 C200 1.353 . S
C202 C205 1.348 . S
C202 H250 0.929 . S
C203 C204 1.358 . S
C203 C205 1.356 . S
C203 H251 0.930 . S
C204 N201 1.279 . S
C204 C203 1.358 . S
C204 H207 0.930 . S
C205 C202 1.348 . S
C205 C203 1.356 . S
H206 C200 0.930 . S
H207 C204 0.930 . S
C208 C210 1.348 . S
C208 C211 1.356 . S
C208 O238 1.325 . S
N209 C212 1.314 . S
N209 C213 1.279 . S
C210 C208 1.348 . S
C210 C212 1.353 . S
C210 H252 0.929 1_565 S
C211 C208 1.356 . S
C211 C213 1.358 . S
C211 H253 0.930 . S
C212 N209 1.314 . S
C212 C210 1.353 . S
C212 H254 0.930 . S
C213 N209 1.279 . S
C213 C211 1.358 . S
C213 H255 0.930 . S
C214 C215 1.348 . S
C214 C216 1.356 . S
C214 O239 1.325 . S
C215 C214 1.348 . S
C215 C217 1.353 . S
C215 H256 0.929 1_545 S
C216 C214 1.356 . S
C216 C218 1.358 . S
C216 H257 0.930 . S
C217 C215 1.353 . S
C217 N219 1.314 . S
C217 H258 0.930 . S
C218 C216 1.358 . S
C218 N219 1.279 . S
C218 H259 0.930 . S
N219 C217 1.314 . S
N219 C218 1.279 . S
C220 C222 1.353 . S
C220 N223 1.314 . S
C220 H226 0.930 . S
C221 N223 1.279 . S
C221 C224 1.358 . S
C221 H227 0.930 . S
C222 C220 1.353 . S
C222 C225 1.348 . S
C222 H260 0.929 . S
N223 Li178 1.990 . S
N223 C220 1.314 . S
N223 C221 1.279 . S
C224 C221 1.358 . S
C224 C225 1.356 . S
C224 H261 0.930 . S
C225 C222 1.348 . S
C225 C224 1.356 . S
H226 C220 0.930 . S
H227 C221 0.930 . S
C228 N229 1.314 . S
C228 C230 1.353 . S
C228 H234 0.930 . S
N229 Li179 1.990 1_556 S
N229 C228 1.314 . S
N229 C232 1.279 1_556 S
C230 C228 1.353 . S
C230 C233 1.348 . S
C230 H262 0.929 . S
C231 C232 1.358 1_556 S
C231 C233 1.356 . S
C231 H263 0.930 1_556 S
C232 N229 1.279 1_554 S
C232 C231 1.358 1_554 S
C232 H235 0.930 . S
C233 C230 1.348 . S
C233 C231 1.356 . S
H234 C228 0.930 . S
H235 C232 0.930 . S
O236 Li176 1.956 1_554 S
O236 Li177 1.970 1_565 S
O236 Li178 1.961 . S
O236 C180 1.325 . S
O237 Li176 1.970 1_544 S
O237 Li177 1.956 . S
O237 Li179 1.961 . S
O237 C186 1.325 1_554 S
O238 Li176 1.961 . S
O238 Li178 1.956 1_556 S
O238 Li179 1.970 1_566 S
O238 C208 1.325 . S
O239 Li177 1.961 . S
O239 Li178 1.970 1_545 S
O239 Li179 1.956 . S
O239 C214 1.325 . S
H240 C182 0.929 . S
H241 C183 0.930 . S
H242 C184 0.930 . S
H243 C185 0.930 . S
H244 C187 0.930 1_554 S
H245 C189 0.929 . S
H246 C190 0.930 . S
H247 C191 0.930 . S
H248 C194 0.930 . S
H249 C197 0.929 . S
H250 C202 0.929 . S
H251 C203 0.930 . S
H252 C210 0.929 1_545 S
H253 C211 0.930 . S
H254 C212 0.930 . S
H255 C213 0.930 . S
H256 C215 0.929 1_565 S
H257 C216 0.930 . S
H258 C217 0.930 . S
H259 C218 0.930 . S
H260 C222 0.929 . S
H261 C224 0.930 . S
H262 C230 0.929 . S
H263 C231 0.930 1_554 S
Li264 N281 1.990 . S
Li264 O324 1.956 . S
Li264 O325 1.970 1_455 S
Li264 O326 1.961 1_554 S
Li265 N289 1.990 . S
Li265 O324 1.970 1_655 S
Li265 O325 1.956 . S
Li265 O327 1.961 . S
Li266 N311 2.056 . S
Li266 O324 1.881 1_556 S
Li266 O326 1.961 . S
Li266 O327 1.942 1_456 S
Li267 N317 1.994 . S
Li267 O325 1.961 . S
Li267 O326 1.970 1_654 S
Li267 O327 1.956 . S
C268 C270 1.348 . S
C268 C271 1.356 . S
C268 O324 1.325 . S
N269 C272 1.314 . S
N269 C273 1.279 . S
C270 C268 1.348 . S
C270 C272 1.353 . S
C270 H328 0.929 . S
C271 C268 1.356 . S
C271 C273 1.358 . S
C271 H329 0.930 . S
C272 N269 1.314 . S
C272 C270 1.353 . S
C272 H330 0.930 . S
C273 N269 1.279 . S
C273 C271 1.358 . S
C273 H331 0.930 . S
C274 C277 1.348 . S
C274 C278 1.356 . S
C274 O325 1.325 . S
C275 N276 1.279 . S
C275 C278 1.358 . S
C275 H332 0.930 . S
N276 C275 1.279 . S
N276 C279 1.314 . S
C277 C274 1.348 . S
C277 C279 1.353 . S
C277 H333 0.929 1_655 S
C278 C274 1.356 . S
C278 C275 1.358 . S
C278 H334 0.930 . S
C279 N276 1.314 . S
C279 C277 1.353 . S
C279 H335 0.971 . S
C280 N281 1.314 . S
C280 C285 1.353 . S
C280 H286 0.930 . S
N281 Li264 1.990 . S
N281 C280 1.314 . S
N281 C283 1.279 . S
C282 C283 1.358 . S
C282 C284 1.356 . S
C282 H336 0.930 . S
C283 N281 1.279 . S
C283 C282 1.358 . S
C283 H287 0.930 . S
C284 C282 1.356 . S
C284 C285 1.348 . S
C285 C280 1.353 . S
C285 C284 1.348 . S
C285 H337 0.929 . S
H286 C280 0.930 . S
H287 C283 0.930 . S
C288 N289 1.314 . S
C288 C290 1.353 . S
C288 H294 0.930 . S
N289 Li265 1.990 . S
N289 C288 1.314 . S
N289 C292 1.279 . S
C290 C288 1.353 . S
C290 C293 1.348 . S
C290 H338 0.929 . S
C291 C292 1.358 . S
C291 C293 1.356 . S
C291 H339 0.930 . S
C292 N289 1.279 . S
C292 C291 1.358 . S
C292 H295 0.930 . S
C293 C290 1.348 . S
C293 C291 1.356 . S
H294 C288 0.930 . S
H295 C292 0.930 . S
C296 C298 1.348 . S
C296 C299 1.356 . S
C296 O326 1.325 . S
N297 C300 1.314 . S
N297 C301 1.279 . S
C298 C296 1.348 . S
C298 C300 1.353 . S
C298 H340 0.929 1_455 S
C299 C296 1.356 . S
C299 C301 1.358 . S
C299 H341 0.930 . S
C300 N297 1.314 . S
C300 C298 1.353 . S
C300 H342 0.930 . S
C301 N297 1.279 . S
C301 C299 1.358 . S
C301 H343 0.930 . S
C302 C303 1.348 1_554 S
C302 C304 1.356 . S
C302 O327 1.325 . S
C303 C302 1.348 1_556 S
C303 C305 1.353 . S
C303 H344 0.929 . S
C304 C302 1.356 . S
C304 C306 1.358 . S
C304 H345 0.930 . S
C305 C303 1.353 . S
C305 N307 1.314 . S
C305 H346 0.930 . S
C306 C304 1.358 . S
C306 N307 1.279 1_554 S
C306 H347 0.930 . S
N307 C305 1.314 . S
N307 C306 1.279 1_556 S
C308 C310 1.353 . S
C308 N311 1.314 . S
C308 H314 0.930 . S
C309 N311 1.279 . S
C309 C312 1.358 . S
C309 H315 0.930 . S
C310 C308 1.353 . S
C310 C313 1.348 . S
C310 H348 0.929 . S
N311 Li266 2.056 . S
N311 C308 1.314 . S
N311 C309 1.279 . S
C312 C309 1.358 . S
C312 C313 1.356 . S
C312 H349 0.930 . S
C313 C310 1.348 . S
C313 C312 1.356 . S
H314 C308 0.930 . S
H315 C309 0.930 . S
C316 N317 1.317 . S
C316 C318 1.353 1_554 S
C316 H322 0.930 . S
N317 Li267 1.994 . S
N317 C316 1.317 . S
N317 C320 1.273 1_554 S
C318 C316 1.353 1_556 S
C318 C321 1.348 . S
C318 H350 0.929 1_556 S
C319 C320 1.358 . S
C319 C321 1.356 . S
C319 H351 0.930 . S
C320 N317 1.273 1_556 S
C320 C319 1.358 . S
C320 H323 0.930 . S
C321 C318 1.348 . S
C321 C319 1.356 . S
H322 C316 0.930 . S
H323 C320 0.930 . S
O324 Li264 1.956 . S
O324 Li265 1.970 1_455 S
O324 Li266 1.881 1_554 S
O324 C268 1.325 . S
O325 Li264 1.970 1_655 S
O325 Li265 1.956 . S
O325 Li267 1.961 . S
O325 C274 1.325 . S
O326 Li264 1.961 1_556 S
O326 Li266 1.961 . S
O326 Li267 1.970 1_456 S
O326 C296 1.325 . S
O327 Li265 1.961 . S
O327 Li266 1.942 1_654 S
O327 Li267 1.956 . S
O327 C302 1.325 . S
H328 C270 0.929 . S
H329 C271 0.930 . S
H330 C272 0.930 . S
H331 C273 0.930 . S
H332 C275 0.930 . S
H333 C277 0.929 1_455 S
H334 C278 0.930 . S
H335 C279 0.971 . S
H336 C282 0.930 . S
H337 C285 0.929 . S
H338 C290 0.929 . S
H339 C291 0.930 . S
H340 C298 0.929 1_655 S
H341 C299 0.930 . S
H342 C300 0.930 . S
H343 C301 0.930 . S
H344 C303 0.929 . S
H345 C304 0.930 . S
H346 C305 0.930 . S
H347 C306 0.930 . S
H348 C310 0.929 . S
H349 C312 0.930 . S
H350 C318 0.929 1_554 S
H351 C319 0.930 . S
Li352 N369 1.990 . S
Li352 O412 1.956 . S
Li352 O413 1.970 . S
Li352 O414 1.961 1_554 S
Li353 N377 1.990 . S
Li353 O412 1.970 . S
Li353 O413 1.956 . S
Li353 O415 1.961 1_554 S
Li354 N399 1.990 . S
Li354 O412 1.961 1_556 S
Li354 O414 1.956 . S
Li354 O415 1.970 . S
Li355 N405 1.990 . S
Li355 O413 1.961 1_556 S
Li355 O414 1.970 . S
Li355 O415 1.956 . S
C356 C358 1.348 . S
C356 C359 1.356 . S
C356 O412 1.325 . S
N357 C360 1.314 . S
N357 C361 1.279 . S
C358 C356 1.348 . S
C358 C360 1.353 . S
C358 H416 0.929 . S
C359 C356 1.356 . S
C359 C361 1.358 . S
C359 H417 0.930 . S
C360 N357 1.314 . S
C360 C358 1.353 . S
C360 H418 0.930 . S
C361 N357 1.279 . S
C361 C359 1.358 . S
C361 H419 0.930 . S
C362 C365 1.348 . S
C362 C366 1.356 . S
C362 O413 1.325 . S
C363 N364 1.279 . S
C363 C366 1.358 . S
C363 H420 0.930 . S
N364 C363 1.279 . S
N364 C367 1.314 . S
C365 C362 1.348 . S
C365 C367 1.353 . S
C365 H421 0.929 . S
C366 C362 1.356 . S
C366 C363 1.358 . S
C366 H422 0.930 . S
C367 N364 1.314 . S
C367 C365 1.353 . S
C367 H423 0.930 . S
C368 N369 1.314 . S
C368 C373 1.353 . S
C368 H374 0.930 . S
N369 Li352 1.990 . S
N369 C368 1.314 . S
N369 C371 1.279 . S
C370 C371 1.358 . S
C370 C372 1.356 . S
C370 H424 0.930 . S
C371 N369 1.279 . S
C371 C370 1.358 . S
C371 H375 0.930 . S
C372 C370 1.356 . S
C372 C373 1.348 . S
C373 C368 1.353 . S
C373 C372 1.348 . S
C373 H425 0.929 . S
H374 C368 0.930 . S
H375 C371 0.930 . S
C376 N377 1.314 . S
C376 C378 1.353 . S
C376 H382 0.930 . S
N377 Li353 1.990 . S
N377 C376 1.314 . S
N377 C380 1.279 . S
C378 C376 1.353 . S
C378 C381 1.348 . S
C378 H426 0.929 . S
C379 C380 1.358 . S
C379 C381 1.356 . S
C379 H427 0.930 . S
C380 N377 1.279 . S
C380 C379 1.358 . S
C380 H383 0.930 . S
C381 C378 1.348 . S
C381 C379 1.356 . S
H382 C376 0.930 . S
H383 C380 0.930 . S
C384 C386 1.348 . S
C384 C387 1.356 . S
C384 O414 1.325 . S
N385 C388 1.314 . S
N385 C389 1.279 . S
C386 C384 1.348 . S
C386 C388 1.353 . S
C386 H428 0.929 . S
C387 C384 1.356 . S
C387 C389 1.358 . S
C387 H429 0.930 . S
C388 N385 1.314 . S
C388 C386 1.353 . S
C388 H430 0.930 . S
C389 N385 1.279 . S
C389 C387 1.358 . S
C389 H431 0.930 . S
C390 C391 1.348 . S
C390 C392 1.356 . S
C390 O415 1.325 . S
C391 C390 1.348 . S
C391 C393 1.353 . S
C391 H432 0.929 . S
C392 C390 1.356 . S
C392 C394 1.358 . S
C392 H433 0.930 1_556 S
C393 C391 1.353 . S
C393 N395 1.314 . S
C393 H434 0.930 . S
C394 C392 1.358 . S
C394 N395 1.279 . S
C394 H435 0.930 . S
N395 C393 1.314 . S
N395 C394 1.279 . S
C396 C398 1.353 . S
C396 N399 1.314 . S
C396 H402 0.930 . S
C397 N399 1.279 . S
C397 C400 1.358 . S
C397 H403 0.930 . S
C398 C396 1.353 . S
C398 C401 1.348 . S
C398 H436 0.929 . S
N399 Li354 1.990 . S
N399 C396 1.314 . S
N399 C397 1.279 . S
C400 C397 1.358 . S
C400 C401 1.356 . S
C400 H437 0.930 . S
C401 C398 1.348 . S
C401 C400 1.356 . S
H402 C396 0.930 . S
H403 C397 0.930 . S
C404 N405 1.314 . S
C404 C406 1.353 . S
C404 H410 0.930 . S
N405 Li355 1.990 . S
N405 C404 1.314 . S
N405 C408 1.279 . S
C406 C404 1.353 . S
C406 C409 1.348 . S
C406 H438 0.929 . S
C407 C408 1.358 . S
C407 C409 1.356 . S
C407 H439 0.930 . S
C408 N405 1.279 . S
C408 C407 1.358 . S
C408 H411 0.930 . S
C409 C406 1.348 . S
C409 C407 1.356 . S
H410 C404 0.930 . S
H411 C408 0.930 . S
O412 Li352 1.956 . S
O412 Li353 1.970 . S
O412 Li354 1.961 1_554 S
O412 C356 1.325 . S
O413 Li352 1.970 . S
O413 Li353 1.956 . S
O413 Li355 1.961 1_554 S
O413 C362 1.325 . S
O414 Li352 1.961 1_556 S
O414 Li354 1.956 . S
O414 Li355 1.970 . S
O414 C384 1.325 . S
O415 Li353 1.961 1_556 S
O415 Li354 1.970 . S
O415 Li355 1.956 . S
O415 C390 1.325 . S
H416 C358 0.929 . S
H417 C359 0.930 . S
H418 C360 0.930 . S
H419 C361 0.930 . S
H420 C363 0.930 . S
H421 C365 0.929 . S
H422 C366 0.930 . S
H423 C367 0.930 . S
H424 C370 0.930 . S
H425 C373 0.929 . S
H426 C378 0.929 . S
H427 C379 0.930 . S
H428 C386 0.929 . S
H429 C387 0.930 . S
H430 C388 0.930 . S
H431 C389 0.930 . S
H432 C391 0.929 . S
H433 C392 0.930 1_554 S
H434 C393 0.930 . S
H435 C394 0.930 . S
H436 C398 0.929 . S
H437 C400 0.930 . S
H438 C406 0.929 . S
H439 C407 0.930 . S
Li440 N457 1.990 . S
Li440 O500 1.956 . S
Li440 O501 1.970 1_565 S
Li440 O502 1.961 1_554 S
Li441 N465 1.990 . S
Li441 O500 1.970 1_545 S
Li441 O501 1.956 . S
Li441 O503 1.961 . S
Li442 N487 2.046 . S
Li442 O500 1.893 1_556 S
Li442 O502 1.959 . S
Li442 O503 1.947 1_566 S
Li443 N493 2.011 . S
Li443 O501 1.961 . S
Li443 O502 1.970 1_544 S
Li443 O503 1.956 . S
C444 C446 1.348 . S
C444 C447 1.356 . S
C444 O500 1.325 . S
N445 C448 1.314 . S
N445 C449 1.279 . S
C446 C444 1.348 . S
C446 C448 1.353 . S
C446 H504 0.929 . S
C447 C444 1.356 . S
C447 C449 1.358 . S
C447 H505 0.930 . S
C448 N445 1.314 . S
C448 C446 1.353 . S
C448 H506 0.930 . S
C449 N445 1.279 . S
C449 C447 1.358 . S
C449 H507 0.930 . S
C450 C453 1.348 . S
C450 C454 1.356 . S
C450 O501 1.325 . S
C451 N452 1.279 . S
C451 C454 1.358 . S
C451 H508 0.930 . S
N452 C451 1.279 . S
N452 C455 1.314 . S
C453 C450 1.348 . S
C453 C455 1.353 . S
C453 H509 0.929 1_545 S
C454 C450 1.356 . S
C454 C451 1.358 . S
C454 H510 0.930 . S
C455 N452 1.314 . S
C455 C453 1.353 . S
C455 H511 0.930 . S
C456 N457 1.314 . S
C456 C461 1.353 . S
C456 H462 0.930 . S
N457 Li440 1.990 . S
N457 C456 1.314 . S
N457 C459 1.279 . S
C458 C459 1.358 . S
C458 C460 1.356 . S
C458 H512 0.930 . S
C459 N457 1.279 . S
C459 C458 1.358 . S
C459 H463 0.930 . S
C460 C458 1.356 . S
C460 C461 1.348 . S
C461 C456 1.353 . S
C461 C460 1.348 . S
C461 H513 0.929 . S
H462 C456 0.930 . S
H463 C459 0.930 . S
C464 N465 1.314 . S
C464 C466 1.353 . S
C464 H470 0.930 . S
N465 Li441 1.990 . S
N465 C464 1.314 . S
N465 C468 1.279 . S
C466 C464 1.353 . S
C466 C469 1.348 . S
C466 H514 0.929 . S
C467 C468 1.358 . S
C467 C469 1.356 . S
C467 H515 0.930 . S
C468 N465 1.279 . S
C468 C467 1.358 . S
C468 H471 0.930 . S
C469 C466 1.348 . S
C469 C467 1.356 . S
H470 C464 0.930 . S
H471 C468 0.930 . S
C472 C474 1.348 . S
C472 C475 1.356 . S
C472 O502 1.325 . S
N473 C476 1.314 . S
N473 C477 1.279 . S
C474 C472 1.348 . S
C474 C476 1.353 . S
C474 H516 0.929 1_565 S
C475 C472 1.356 . S
C475 C477 1.358 . S
C475 H517 0.930 . S
C476 N473 1.314 . S
C476 C474 1.353 . S
C476 H518 0.930 . S
C477 N473 1.279 . S
C477 C475 1.358 . S
C477 H519 0.930 . S
C478 C479 1.348 1_554 S
C478 C480 1.356 . S
C478 O503 1.325 . S
C479 C478 1.348 1_556 S
C479 C481 1.353 . S
C479 H520 0.929 . S
C480 C478 1.356 . S
C480 C482 1.358 . S
C480 H521 0.930 . S
C481 C479 1.353 . S
C481 N483 1.314 . S
C481 H522 0.930 . S
C482 C480 1.358 . S
C482 N483 1.279 1_554 S
C482 H523 0.930 . S
N483 C481 1.314 . S
N483 C482 1.279 1_556 S
C484 C486 1.353 . S
C484 N487 1.314 . S
C484 H490 0.930 . S
C485 N487 1.279 . S
C485 C488 1.358 . S
C485 H491 0.930 . S
C486 C484 1.353 . S
C486 C489 1.348 . S
C486 H524 0.929 . S
N487 Li442 2.046 . S
N487 C484 1.314 . S
N487 C485 1.279 . S
C488 C485 1.358 . S
C488 C489 1.356 . S
C488 H525 0.930 . S
C489 C486 1.348 . S
C489 C488 1.356 . S
H490 C484 0.930 . S
H491 C485 0.930 . S
C492 N493 1.329 . S
C492 C494 1.342 1_554 S
C492 H498 0.930 . S
N493 Li443 2.011 . S
N493 C492 1.329 . S
N493 C496 1.241 1_554 S
C494 C492 1.342 1_556 S
C494 C497 1.372 . S
C494 H526 0.918 1_556 S
C495 C496 1.358 . S
C495 C497 1.356 . S
C495 H527 0.930 . S
C496 N493 1.241 1_556 S
C496 C495 1.358 . S
C496 H499 0.930 . S
C497 C494 1.372 . S
C497 C495 1.356 . S
H498 C492 0.930 . S
H499 C496 0.930 . S
O500 Li440 1.956 . S
O500 Li441 1.970 1_565 S
O500 Li442 1.893 1_554 S
O500 C444 1.325 . S
O501 Li440 1.970 1_545 S
O501 Li441 1.956 . S
O501 Li443 1.961 . S
O501 C450 1.325 . S
O502 Li440 1.961 1_556 S
O502 Li442 1.959 . S
O502 Li443 1.970 1_566 S
O502 C472 1.325 . S
O503 Li441 1.961 . S
O503 Li442 1.947 1_544 S
O503 Li443 1.956 . S
O503 C478 1.325 . S
H504 C446 0.929 . S
H505 C447 0.930 . S
H506 C448 0.930 . S
H507 C449 0.930 . S
H508 C451 0.930 . S
H509 C453 0.929 1_565 S
H510 C454 0.930 . S
H511 C455 0.930 . S
H512 C458 0.930 . S
H513 C461 0.929 . S
H514 C466 0.929 . S
H515 C467 0.930 . S
H516 C474 0.929 1_545 S
H517 C475 0.930 . S
H518 C476 0.930 . S
H519 C477 0.930 . S
H520 C479 0.929 . S
H521 C480 0.930 . S
H522 C481 0.930 . S
H523 C482 0.930 . S
H524 C486 0.929 . S
H525 C488 0.930 . S
H526 C494 0.918 1_554 S
H527 C495 0.930 . S
Li528 N545 1.990 . S
Li528 O588 1.956 . S
Li528 O589 1.970 . S
Li528 O590 1.961 . S
Li529 N553 1.990 . S
Li529 O588 1.970 . S
Li529 O589 1.956 . S
Li529 O591 1.961 . S
Li530 N575 1.990 . S
Li530 O588 1.961 . S
Li530 O590 1.956 . S
Li530 O591 1.970 . S
Li531 N581 1.990 . S
Li531 O589 1.961 . S
Li531 O590 1.970 . S
Li531 O591 1.956 . S
C532 C534 1.348 . S
C532 C535 1.356 . S
C532 O588 1.325 . S
N533 C536 1.314 . S
N533 C537 1.279 . S
C534 C532 1.348 . S
C534 C536 1.353 . S
C534 H592 0.929 . S
C535 C532 1.356 . S
C535 C537 1.358 . S
C535 H593 0.930 . S
C536 N533 1.314 . S
C536 C534 1.353 . S
C536 H594 0.930 . S
C537 N533 1.279 . S
C537 C535 1.358 . S
C537 H595 0.930 . S
C538 C541 1.348 . S
C538 C542 1.356 . S
C538 O589 1.325 . S
C539 N540 1.279 . S
C539 C542 1.358 . S
C539 H596 0.930 . S
N540 C539 1.279 . S
N540 C543 1.314 . S
C541 C538 1.348 . S
C541 C543 1.353 . S
C541 H597 0.929 . S
C542 C538 1.356 . S
C542 C539 1.358 . S
C542 H598 0.930 . S
C543 N540 1.314 . S
C543 C541 1.353 . S
C543 H599 0.930 . S
C544 N545 1.314 . S
C544 C549 1.353 . S
C544 H550 0.930 . S
N545 Li528 1.990 . S
N545 C544 1.314 . S
N545 C547 1.279 . S
C546 C547 1.358 . S
C546 C548 1.356 . S
C546 H600 0.930 . S
C547 N545 1.279 . S
C547 C546 1.358 . S
C547 H551 0.930 . S
C548 C546 1.356 . S
C548 C549 1.348 . S
C549 C544 1.353 . S
C549 C548 1.348 . S
C549 H601 0.929 . S
H550 C544 0.930 . S
H551 C547 0.930 . S
C552 N553 1.314 . S
C552 C554 1.353 . S
C552 H558 0.930 . S
N553 Li529 1.990 . S
N553 C552 1.314 . S
N553 C556 1.279 . S
C554 C552 1.353 . S
C554 C557 1.348 . S
C554 H602 0.929 . S
C555 C556 1.358 . S
C555 C557 1.356 . S
C555 H603 0.930 . S
C556 N553 1.279 . S
C556 C555 1.358 . S
C556 H559 0.930 . S
C557 C554 1.348 . S
C557 C555 1.356 . S
H558 C552 0.930 . S
H559 C556 0.930 . S
C560 C562 1.348 . S
C560 C563 1.356 . S
C560 O590 1.325 . S
N561 C564 1.314 . S
N561 C565 1.279 . S
C562 C560 1.348 . S
C562 C564 1.353 . S
C562 H604 0.929 . S
C563 C560 1.356 . S
C563 C565 1.358 . S
C563 H605 0.930 . S
C564 N561 1.314 . S
C564 C562 1.353 . S
C564 H606 0.930 . S
C565 N561 1.279 . S
C565 C563 1.358 . S
C565 H607 0.930 . S
C566 C567 1.348 . S
C566 C568 1.356 . S
C566 O591 1.325 . S
C567 C566 1.348 . S
C567 C569 1.353 . S
C567 H608 0.929 . S
C568 C566 1.356 . S
C568 C570 1.358 . S
C568 H609 0.930 . S
C569 C567 1.353 . S
C569 N571 1.314 . S
C569 H610 0.930 . S
C570 C568 1.358 . S
C570 N571 1.279 . S
C570 H611 0.930 . S
N571 C569 1.314 . S
N571 C570 1.279 . S
C572 C574 1.353 . S
C572 N575 1.314 . S
C572 H578 0.930 . S
C573 N575 1.279 . S
C573 C576 1.358 . S
C573 H579 0.930 . S
C574 C572 1.353 . S
C574 C577 1.348 . S
C574 H612 0.929 . S
N575 Li530 1.990 . S
N575 C572 1.314 . S
N575 C573 1.279 . S
C576 C573 1.358 . S
C576 C577 1.356 . S
C576 H613 0.930 . S
C577 C574 1.348 . S
C577 C576 1.356 . S
H578 C572 0.930 . S
H579 C573 0.930 . S
C580 N581 1.314 . S
C580 C582 1.353 . S
C580 H586 0.930 . S
N581 Li531 1.990 . S
N581 C580 1.314 . S
N581 C584 1.279 . S
C582 C580 1.353 . S
C582 C585 1.348 . S
C582 H614 0.929 . S
C583 C584 1.358 . S
C583 C585 1.356 . S
C583 H615 0.930 . S
C584 N581 1.279 . S
C584 C583 1.358 . S
C584 H587 0.930 . S
C585 C582 1.348 . S
C585 C583 1.356 . S
H586 C580 0.930 . S
H587 C584 0.930 . S
O588 Li528 1.956 . S
O588 Li529 1.970 . S
O588 Li530 1.961 . S
O588 C532 1.325 . S
O589 Li528 1.970 . S
O589 Li529 1.956 . S
O589 Li531 1.961 . S
O589 C538 1.325 . S
O590 Li528 1.961 . S
O590 Li530 1.956 . S
O590 Li531 1.970 . S
O590 C560 1.325 . S
O591 Li529 1.961 . S
O591 Li530 1.970 . S
O591 Li531 1.956 . S
O591 C566 1.325 . S
H592 C534 0.929 . S
H593 C535 0.930 . S
H594 C536 0.930 . S
H595 C537 0.930 . S
H596 C539 0.930 . S
H597 C541 0.929 . S
H598 C542 0.930 . S
H599 C543 0.930 . S
H600 C546 0.930 . S
H601 C549 0.929 . S
H602 C554 0.929 . S
H603 C555 0.930 . S
H604 C562 0.929 . S
H605 C563 0.930 . S
H606 C564 0.930 . S
H607 C565 0.930 . S
H608 C567 0.929 . S
H609 C568 0.930 . S
H610 C569 0.930 . S
H611 C570 0.930 . S
H612 C574 0.929 . S
H613 C576 0.930 . S
H614 C582 0.929 . S
H615 C583 0.930 . S
Li616 N633 1.990 . S
Li616 O676 1.956 . S
Li616 O677 1.970 . S
Li616 O678 1.961 . S
Li617 N641 1.990 . S
Li617 O676 1.970 . S
Li617 O677 1.956 . S
Li617 O679 1.961 . S
Li618 N663 1.990 1_565 S
Li618 O676 1.961 . S
Li618 O678 1.956 . S
Li618 O679 1.970 . S
Li619 N669 1.990 . S
Li619 O677 1.961 . S
Li619 O678 1.970 . S
Li619 O679 1.956 . S
C620 C622 1.348 . S
C620 C623 1.356 . S
C620 O676 1.325 . S
N621 C624 1.314 . S
N621 C625 1.279 . S
C622 C620 1.348 . S
C622 C624 1.353 . S
C622 H680 0.929 . S
C623 C620 1.356 . S
C623 C625 1.358 . S
C623 H681 0.930 . S
C624 N621 1.314 . S
C624 C622 1.353 . S
C624 H682 0.930 . S
C625 N621 1.279 . S
C625 C623 1.358 . S
C625 H683 0.930 . S
C626 C629 1.348 . S
C626 C630 1.356 . S
C626 O677 1.325 . S
C627 N628 1.279 . S
C627 C630 1.358 . S
C627 H684 0.930 . S
N628 C627 1.279 . S
N628 C631 1.314 . S
C629 C626 1.348 . S
C629 C631 1.353 . S
C629 H685 0.929 . S
C630 C626 1.356 . S
C630 C627 1.358 . S
C630 H686 0.930 . S
C631 N628 1.314 . S
C631 C629 1.353 . S
C631 H687 0.930 . S
C632 N633 1.314 . S
C632 C637 1.353 . S
C632 H638 0.930 . S
N633 Li616 1.990 . S
N633 C632 1.314 . S
N633 C635 1.279 . S
C634 C635 1.358 . S
C634 C636 1.356 . S
C634 H688 0.930 . S
C635 N633 1.279 . S
C635 C634 1.358 . S
C635 H639 0.930 . S
C636 C634 1.356 . S
C636 C637 1.348 . S
C637 C632 1.353 . S
C637 C636 1.348 . S
C637 H689 0.929 . S
H638 C632 0.930 . S
H639 C635 0.930 . S
C640 N641 1.314 . S
C640 C642 1.353 . S
C640 H646 0.930 . S
N641 Li617 1.990 . S
N641 C640 1.314 . S
N641 C644 1.279 . S
C642 C640 1.353 . S
C642 C645 1.348 . S
C642 H690 0.929 . S
C643 C644 1.358 . S
C643 C645 1.356 . S
C643 H691 0.930 . S
C644 N641 1.279 . S
C644 C643 1.358 . S
C644 H647 0.930 . S
C645 C642 1.348 . S
C645 C643 1.356 . S
H646 C640 0.930 . S
H647 C644 0.930 . S
C648 C650 1.349 . S
C648 C651 1.437 . S
C648 O678 1.261 1_545 S
N649 C652 1.314 . S
N649 C653 1.279 . S
C650 C648 1.349 . S
C650 C652 1.353 . S
C650 H692 0.929 . S
C651 C648 1.437 . S
C651 C653 1.358 . S
C651 H693 0.930 . S
C652 N649 1.314 . S
C652 C650 1.353 . S
C652 H694 0.930 . S
C653 N649 1.279 . S
C653 C651 1.358 . S
C653 H695 0.930 . S
C654 C655 1.324 1_565 S
C654 C656 1.356 . S
C654 O679 1.325 . S
C655 C654 1.324 1_545 S
C655 C657 1.347 . S
C655 H696 0.960 . S
C656 C654 1.356 . S
C656 C658 1.358 . S
C656 H697 0.930 . S
C657 C655 1.347 . S
C657 N659 1.314 1_545 S
C657 H698 0.930 . S
C658 C656 1.358 . S
C658 N659 1.279 . S
C658 H699 0.930 . S
N659 C657 1.314 1_565 S
N659 C658 1.279 . S
C660 C662 1.353 . S
C660 N663 1.314 . S
C660 H666 0.930 . S
C661 N663 1.279 . S
C661 C664 1.358 . S
C661 H667 0.930 . S
C662 C660 1.353 . S
C662 C665 1.348 . S
C662 H700 0.929 . S
N663 Li618 1.990 1_545 S
N663 C660 1.314 . S
N663 C661 1.279 . S
C664 C661 1.358 . S
C664 C665 1.356 . S
C664 H701 0.930 . S
C665 C662 1.348 . S
C665 C664 1.356 . S
H666 C660 0.930 . S
H667 C661 0.930 . S
C668 N669 1.314 . S
C668 C670 1.353 . S
C668 H674 0.930 . S
N669 Li619 1.990 . S
N669 C668 1.314 . S
N669 C672 1.279 . S
C670 C668 1.353 . S
C670 C673 1.348 . S
C670 H702 0.929 . S
C671 C672 1.358 . S
C671 C673 1.356 . S
C671 H703 0.930 . S
C672 N669 1.279 . S
C672 C671 1.358 . S
C672 H675 0.930 . S
C673 C670 1.348 . S
C673 C671 1.356 . S
H674 C668 0.930 . S
H675 C672 0.930 . S
O676 Li616 1.956 . S
O676 Li617 1.970 . S
O676 Li618 1.961 . S
O676 C620 1.325 . S
O677 Li616 1.970 . S
O677 Li617 1.956 . S
O677 Li619 1.961 . S
O677 C626 1.325 . S
O678 Li616 1.961 . S
O678 Li618 1.956 . S
O678 Li619 1.970 . S
O678 C648 1.261 1_565 S
O679 Li617 1.961 . S
O679 Li618 1.970 . S
O679 Li619 1.956 . S
O679 C654 1.325 . S
H680 C622 0.929 . S
H681 C623 0.930 . S
H682 C624 0.930 . S
H683 C625 0.930 . S
H684 C627 0.930 . S
H685 C629 0.929 . S
H686 C630 0.930 . S
H687 C631 0.930 . S
H688 C634 0.930 . S
H689 C637 0.929 . S
H690 C642 0.929 . S
H691 C643 0.930 . S
H692 C650 0.929 . S
H693 C651 0.930 . S
H694 C652 0.930 . S
H695 C653 0.930 . S
H696 C655 0.960 . S
H697 C656 0.930 . S
H698 C657 0.930 . S
H699 C658 0.930 . S
H700 C662 0.929 . S
H701 C664 0.930 . S
H702 C670 0.929 . S
H703 C671 0.930 . S
Li704 N721 1.990 . S
Li704 O764 1.956 . S
Li704 O765 1.970 . S
Li704 O766 1.961 . S
Li705 N729 1.990 . S
Li705 O764 1.970 . S
Li705 O765 1.956 . S
Li705 O767 1.961 . S
Li706 N751 1.990 1_455 S
Li706 O764 1.961 . S
Li706 O766 1.956 . S
Li706 O767 1.970 . S
Li707 N757 1.990 . S
Li707 O765 1.961 . S
Li707 O766 1.970 . S
Li707 O767 1.956 . S
C708 C710 1.348 . S
C708 C711 1.356 . S
C708 O764 1.325 . S
N709 C712 1.314 . S
N709 C713 1.279 . S
C710 C708 1.348 . S
C710 C712 1.353 . S
C710 H768 0.929 . S
C711 C708 1.356 . S
C711 C713 1.358 . S
C711 H769 0.930 . S
C712 N709 1.314 . S
C712 C710 1.353 . S
C712 H770 0.930 . S
C713 N709 1.279 . S
C713 C711 1.358 . S
C713 H771 0.930 . S
C714 C717 1.348 . S
C714 C718 1.356 . S
C714 O765 1.325 . S
C715 N716 1.279 . S
C715 C718 1.358 . S
C715 H772 0.930 . S
N716 C715 1.279 . S
N716 C719 1.314 . S
C717 C714 1.348 . S
C717 C719 1.353 . S
C717 H773 0.929 . S
C718 C714 1.356 . S
C718 C715 1.358 . S
C718 H774 0.930 . S
C719 N716 1.314 . S
C719 C717 1.353 . S
C719 H775 0.930 . S
C720 N721 1.314 . S
C720 C725 1.353 . S
C720 H726 0.930 . S
N721 Li704 1.990 . S
N721 C720 1.314 . S
N721 C723 1.279 . S
C722 C723 1.358 . S
C722 C724 1.356 . S
C722 H776 0.930 . S
C723 N721 1.279 . S
C723 C722 1.358 . S
C723 H727 0.930 . S
C724 C722 1.356 . S
C724 C725 1.348 . S
C725 C720 1.353 . S
C725 C724 1.348 . S
C725 H777 0.929 . S
H726 C720 0.930 . S
H727 C723 0.930 . S
C728 N729 1.314 . S
C728 C730 1.353 . S
C728 H734 0.930 . S
N729 Li705 1.990 . S
N729 C728 1.314 . S
N729 C732 1.279 . S
C730 C728 1.353 . S
C730 C733 1.348 . S
C730 H778 0.929 . S
C731 C732 1.358 . S
C731 C733 1.356 . S
C731 H779 0.930 . S
C732 N729 1.279 . S
C732 C731 1.358 . S
C732 H735 0.930 . S
C733 C730 1.348 . S
C733 C731 1.356 . S
H734 C728 0.930 . S
H735 C732 0.930 . S
C736 C738 1.348 1_455 S
C736 C739 1.356 1_455 S
C736 O766 1.325 . S
N737 C740 1.314 . S
N737 C741 1.279 . S
C738 C736 1.348 1_655 S
C738 C740 1.353 . S
C738 H780 0.936 1_655 S
C739 C736 1.356 1_655 S
C739 C741 1.358 . S
C739 H781 0.930 1_655 S
C740 N737 1.314 . S
C740 C738 1.353 . S
C740 H782 0.930 . S
C741 N737 1.279 . S
C741 C739 1.358 . S
C741 H783 0.930 . S
C742 C743 1.348 . S
C742 C744 1.356 . S
C742 O767 1.325 . S
C743 C742 1.348 . S
C743 C745 1.353 . S
C743 H784 0.929 1_455 S
C744 C742 1.356 . S
C744 C746 1.358 . S
C744 H785 0.930 . S
C745 C743 1.353 . S
C745 N747 1.314 . S
C745 H786 0.930 1_455 S
C746 C744 1.358 . S
C746 N747 1.279 . S
C746 H787 0.930 . S
N747 C745 1.314 . S
N747 C746 1.279 . S
C748 C750 1.353 . S
C748 N751 1.314 . S
C748 H754 0.953 . S
C749 N751 1.279 . S
C749 C752 1.358 . S
C749 H755 0.930 . S
C750 C748 1.353 . S
C750 C753 1.348 . S
C750 H788 0.929 . S
N751 Li706 1.990 1_655 S
N751 C748 1.314 . S
N751 C749 1.279 . S
C752 C749 1.358 . S
C752 C753 1.356 . S
C752 H789 0.930 . S
C753 C750 1.348 . S
C753 C752 1.356 . S
H754 C748 0.953 . S
H755 C749 0.930 . S
C756 N757 1.314 . S
C756 C758 1.353 . S
C756 H762 0.930 . S
N757 Li707 1.990 . S
N757 C756 1.314 . S
N757 C760 1.279 . S
C758 C756 1.353 . S
C758 C761 1.348 . S
C758 H790 0.929 . S
C759 C760 1.358 . S
C759 C761 1.356 . S
C759 H791 0.930 . S
C760 N757 1.279 . S
C760 C759 1.358 . S
C760 H763 0.930 . S
C761 C758 1.348 . S
C761 C759 1.356 . S
H762 C756 0.930 . S
H763 C760 0.930 . S
O764 Li704 1.956 . S
O764 Li705 1.970 . S
O764 Li706 1.961 . S
O764 C708 1.325 . S
O765 Li704 1.970 . S
O765 Li705 1.956 . S
O765 Li707 1.961 . S
O765 C714 1.325 . S
O766 Li704 1.961 . S
O766 Li706 1.956 . S
O766 Li707 1.970 . S
O766 C736 1.325 . S
O767 Li705 1.961 . S
O767 Li706 1.970 . S
O767 Li707 1.956 . S
O767 C742 1.325 . S
H768 C710 0.929 . S
H769 C711 0.930 . S
H770 C712 0.930 . S
H771 C713 0.930 . S
H772 C715 0.930 . S
H773 C717 0.929 . S
H774 C718 0.930 . S
H775 C719 0.930 . S
H776 C722 0.930 . S
H777 C725 0.929 . S
H778 C730 0.929 . S
H779 C731 0.930 . S
H780 C738 0.936 1_455 S
H781 C739 0.930 1_455 S
H782 C740 0.930 . S
H783 C741 0.930 . S
H784 C743 0.929 1_655 S
H785 C744 0.930 . S
H786 C745 0.930 1_655 S
H787 C746 0.930 . S
H788 C750 0.929 . S
H789 C752 0.930 . S
H790 C758 0.929 . S
H791 C759 0.930 . S
Li792 N809 1.990 1_565 S
Li792 O852 1.956 . S
Li792 O853 1.970 . S
Li792 O854 1.961 . S
Li793 N817 1.990 . S
Li793 O852 1.970 . S
Li793 O853 1.956 . S
Li793 O855 1.961 . S
Li794 N839 1.990 . S
Li794 O852 1.961 . S
Li794 O854 1.956 . S
Li794 O855 1.970 . S
Li795 N845 1.990 . S
Li795 O853 1.961 . S
Li795 O854 1.970 . S
Li795 O855 1.956 . S
C796 C798 1.348 . S
C796 C799 1.356 . S
C796 O852 1.325 . S
N797 C800 1.314 . S
N797 C801 1.279 . S
C798 C796 1.348 . S
C798 C800 1.353 . S
C798 H856 0.929 . S
C799 C796 1.356 . S
C799 C801 1.358 . S
C799 H857 0.930 . S
C800 N797 1.314 . S
C800 C798 1.353 . S
C800 H858 0.930 . S
C801 N797 1.279 . S
C801 C799 1.358 . S
C801 H859 0.930 . S
C802 C805 1.348 . S
C802 C806 1.356 . S
C802 O853 1.325 . S
C803 N804 1.279 . S
C803 C806 1.358 . S
C803 H860 0.930 . S
N804 C803 1.279 . S
N804 C807 1.314 . S
C805 C802 1.348 . S
C805 C807 1.353 . S
C805 H861 0.929 . S
C806 C802 1.356 . S
C806 C803 1.358 . S
C806 H862 0.930 . S
C807 N804 1.314 . S
C807 C805 1.353 . S
C807 H863 0.930 1_565 S
C808 N809 1.314 . S
C808 C813 1.353 . S
C808 H814 0.930 . S
N809 Li792 1.990 1_545 S
N809 C808 1.314 . S
N809 C811 1.279 . S
C810 C811 1.358 . S
C810 C812 1.356 . S
C810 H864 0.930 . S
C811 N809 1.279 . S
C811 C810 1.358 . S
C811 H815 0.930 . S
C812 C810 1.356 . S
C812 C813 1.348 . S
C813 C808 1.353 . S
C813 C812 1.348 . S
C813 H865 0.929 . S
H814 C808 0.930 . S
H815 C811 0.930 . S
C816 N817 1.314 . S
C816 C818 1.353 . S
C816 H822 0.930 . S
N817 Li793 1.990 . S
N817 C816 1.314 . S
N817 C820 1.279 . S
C818 C816 1.353 . S
C818 C821 1.348 . S
C818 H866 0.929 . S
C819 C820 1.358 . S
C819 C821 1.356 . S
C819 H867 0.930 . S
C820 N817 1.279 . S
C820 C819 1.358 . S
C820 H823 0.930 . S
C821 C818 1.348 . S
C821 C819 1.356 . S
H822 C816 0.930 . S
H823 C820 0.930 . S
C824 C826 1.326 . S
C824 C827 1.345 1_565 S
C824 O854 1.377 . S
N825 C828 1.314 . S
N825 C829 1.279 . S
C826 C824 1.326 . S
C826 C828 1.336 1_565 S
C826 H868 0.935 . S
C827 C824 1.345 1_545 S
C827 C829 1.358 . S
C827 H869 0.930 . S
C828 N825 1.314 . S
C828 C826 1.336 1_545 S
C828 H870 0.930 . S
C829 N825 1.279 . S
C829 C827 1.358 . S
C829 H871 0.930 . S
C830 C831 1.348 . S
C830 C832 1.356 . S
C830 O855 1.325 . S
C831 C830 1.348 . S
C831 C833 1.353 . S
C831 H872 0.929 . S
C832 C830 1.356 . S
C832 C834 1.358 . S
C832 H873 0.930 . S
C833 C831 1.353 . S
C833 N835 1.314 . S
C833 H874 0.930 . S
C834 C832 1.358 . S
C834 N835 1.279 . S
C834 H875 0.930 . S
N835 C833 1.314 . S
N835 C834 1.279 . S
C836 C838 1.353 . S
C836 N839 1.314 . S
C836 H842 0.930 . S
C837 N839 1.279 . S
C837 C840 1.358 . S
C837 H843 0.930 . S
C838 C836 1.353 . S
C838 C841 1.348 . S
C838 H876 0.929 . S
N839 Li794 1.990 . S
N839 C836 1.314 . S
N839 C837 1.279 . S
C840 C837 1.358 . S
C840 C841 1.356 . S
C840 H877 0.930 . S
C841 C838 1.348 . S
C841 C840 1.356 . S
H842 C836 0.930 . S
H843 C837 0.930 . S
C844 N845 1.314 . S
C844 C846 1.353 . S
C844 H850 0.930 . S
N845 Li795 1.990 . S
N845 C844 1.314 . S
N845 C848 1.279 . S
C846 C844 1.353 . S
C846 C849 1.348 . S
C846 H878 0.929 . S
C847 C848 1.358 . S
C847 C849 1.356 . S
C847 H879 0.930 . S
C848 N845 1.279 . S
C848 C847 1.358 . S
C848 H851 0.930 . S
C849 C846 1.348 . S
C849 C847 1.356 . S
H850 C844 0.930 . S
H851 C848 0.930 . S
O852 Li792 1.956 . S
O852 Li793 1.970 . S
O852 Li794 1.961 . S
O852 C796 1.325 . S
O853 Li792 1.970 . S
O853 Li793 1.956 . S
O853 Li795 1.961 . S
O853 C802 1.325 . S
O854 Li792 1.961 . S
O854 Li794 1.956 . S
O854 Li795 1.970 . S
O854 C824 1.377 . S
O855 Li793 1.961 . S
O855 Li794 1.970 . S
O855 Li795 1.956 . S
O855 C830 1.325 . S
H856 C798 0.929 . S
H857 C799 0.930 . S
H858 C800 0.930 . S
H859 C801 0.930 . S
H860 C803 0.930 . S
H861 C805 0.929 . S
H862 C806 0.930 . S
H863 C807 0.930 1_545 S
H864 C810 0.930 . S
H865 C813 0.929 . S
H866 C818 0.929 . S
H867 C819 0.930 . S
H868 C826 0.935 . S
H869 C827 0.930 . S
H870 C828 0.930 . S
H871 C829 0.930 . S
H872 C831 0.929 . S
H873 C832 0.930 . S
H874 C833 0.930 . S
H875 C834 0.930 . S
H876 C838 0.929 . S
H877 C840 0.930 . S
H878 C846 0.929 . S
H879 C847 0.930 . S
Li880 N897 1.990 . S
Li880 O940 1.956 . S
Li880 O941 1.970 . S
Li880 O942 1.961 . S
Li881 N905 1.990 1_455 S
Li881 O940 1.970 . S
Li881 O941 1.956 . S
Li881 O943 1.961 . S
Li882 N927 1.990 . S
Li882 O940 1.961 . S
Li882 O942 1.956 . S
Li882 O943 1.970 . S
Li883 N933 1.990 . S
Li883 O941 1.961 . S
Li883 O942 1.970 . S
Li883 O943 1.956 . S
C884 C886 1.348 . S
C884 C887 1.356 . S
C884 O940 1.325 . S
N885 C888 1.314 . S
N885 C889 1.279 . S
C886 C884 1.348 . S
C886 C888 1.353 . S
C886 H944 0.926 . S
C887 C884 1.356 . S
C887 C889 1.358 . S
C887 H945 0.930 . S
C888 N885 1.314 . S
C888 C886 1.353 . S
C888 H946 0.930 1_455 S
C889 N885 1.279 . S
C889 C887 1.358 . S
C889 H947 0.930 . S
C890 C893 1.348 . S
C890 C894 1.356 . S
C890 O941 1.325 . S
C891 N892 1.279 . S
C891 C894 1.358 . S
C891 H948 0.930 . S
N892 C891 1.279 . S
N892 C895 1.314 . S
C893 C890 1.348 . S
C893 C895 1.353 . S
C893 H949 0.929 . S
C894 C890 1.356 . S
C894 C891 1.358 . S
C894 H950 0.930 . S
C895 N892 1.314 . S
C895 C893 1.353 . S
C895 H951 0.930 . S
C896 N897 1.314 . S
C896 C901 1.353 . S
C896 H902 0.930 . S
N897 Li880 1.990 . S
N897 C896 1.314 . S
N897 C899 1.279 . S
C898 C899 1.358 . S
C898 C900 1.356 . S
C898 H952 0.930 . S
C899 N897 1.279 . S
C899 C898 1.358 . S
C899 H903 0.930 . S
C900 C898 1.356 . S
C900 C901 1.348 . S
C901 C896 1.353 . S
C901 C900 1.348 . S
C901 H953 0.929 . S
H902 C896 0.930 . S
H903 C899 0.930 . S
C904 N905 1.314 . S
C904 C906 1.353 . S
C904 H910 0.930 . S
N905 Li881 1.990 1_655 S
N905 C904 1.314 . S
N905 C908 1.279 . S
C906 C904 1.353 . S
C906 C909 1.348 . S
C906 H954 0.929 . S
C907 C908 1.358 . S
C907 C909 1.356 . S
C907 H955 0.930 . S
C908 N905 1.279 . S
C908 C907 1.358 . S
C908 H911 0.930 . S
C909 C906 1.348 . S
C909 C907 1.356 . S
H910 C904 0.930 . S
H911 C908 0.930 . S
C912 C914 1.348 . S
C912 C915 1.356 . S
C912 O942 1.325 . S
N913 C916 1.314 . S
N913 C917 1.279 . S
C914 C912 1.348 . S
C914 C916 1.353 . S
C914 H956 0.929 . S
C915 C912 1.356 . S
C915 C917 1.358 . S
C915 H957 0.930 . S
C916 N913 1.314 . S
C916 C914 1.353 . S
C916 H958 0.930 . S
C917 N913 1.279 . S
C917 C915 1.358 . S
C917 H959 0.930 . S
C918 C919 1.365 1_455 S
C918 C920 1.359 1_455 S
C918 O943 1.323 . S
C919 C918 1.365 1_655 S
C919 C921 1.392 . S
C919 H960 0.875 1_655 S
C920 C918 1.359 1_655 S
C920 C922 1.358 . S
C920 H961 0.930 . S
C921 C919 1.392 . S
C921 N923 1.314 . S
C921 H962 0.930 . S
C922 C920 1.358 . S
C922 N923 1.279 . S
C922 H963 0.930 . S
N923 C921 1.314 . S
N923 C922 1.279 . S
C924 C926 1.353 . S
C924 N927 1.314 . S
C924 H930 0.930 . S
C925 N927 1.279 . S
C925 C928 1.358 . S
C925 H931 0.930 . S
C926 C924 1.353 . S
C926 C929 1.348 . S
C926 H964 0.929 . S
N927 Li882 1.990 . S
N927 C924 1.314 . S
N927 C925 1.279 . S
C928 C925 1.358 . S
C928 C929 1.356 . S
C928 H965 0.930 . S
C929 C926 1.348 . S
C929 C928 1.356 . S
H930 C924 0.930 . S
H931 C925 0.930 . S
C932 N933 1.314 . S
C932 C934 1.353 . S
C932 H938 0.930 . S
N933 Li883 1.990 . S
N933 C932 1.314 . S
N933 C936 1.279 . S
C934 C932 1.353 . S
C934 C937 1.348 . S
C934 H966 0.929 . S
C935 C936 1.358 . S
C935 C937 1.356 . S
C935 H967 0.930 . S
C936 N933 1.279 . S
C936 C935 1.358 . S
C936 H939 0.930 . S
C937 C934 1.348 . S
C937 C935 1.356 . S
H938 C932 0.930 . S
H939 C936 0.930 . S
O940 Li880 1.956 . S
O940 Li881 1.970 . S
O940 Li882 1.961 . S
O940 C884 1.325 . S
O941 Li880 1.970 . S
O941 Li881 1.956 . S
O941 Li883 1.961 . S
O941 C890 1.325 . S
O942 Li880 1.961 . S
O942 Li882 1.956 . S
O942 Li883 1.970 . S
O942 C912 1.325 . S
O943 Li881 1.961 . S
O943 Li882 1.970 . S
O943 Li883 1.956 . S
O943 C918 1.323 . S
H944 C886 0.926 . S
H945 C887 0.930 . S
H946 C888 0.930 1_655 S
H947 C889 0.930 . S
H948 C891 0.930 . S
H949 C893 0.929 . S
H950 C894 0.930 . S
H951 C895 0.930 . S
H952 C898 0.930 . S
H953 C901 0.929 . S
H954 C906 0.929 . S
H955 C907 0.930 . S
H956 C914 0.929 . S
H957 C915 0.930 . S
H958 C916 0.930 . S
H959 C917 0.930 . S
H960 C919 0.875 1_455 S
H961 C920 0.930 . S
H962 C921 0.930 . S
H963 C922 0.930 . S
H964 C926 0.929 . S
H965 C928 0.930 . S
H966 C934 0.929 . S
H967 C935 0.930 . S
Li968 N985 1.990 . S
Li968 O1028 1.956 . S
Li968 O1029 1.970 . S
Li968 O1030 1.961 . S
Li969 N993 1.990 . S
Li969 O1028 1.970 . S
Li969 O1029 1.956 . S
Li969 O1031 1.961 . S
Li970 N1015 1.990 . S
Li970 O1028 1.961 . S
Li970 O1030 1.956 . S
Li970 O1031 1.970 . S
Li971 N1021 1.990 . S
Li971 O1029 1.961 . S
Li971 O1030 1.970 . S
Li971 O1031 1.956 . S
C972 C974 1.348 . S
C972 C975 1.356 . S
C972 O1028 1.325 . S
N973 C976 1.314 . S
N973 C977 1.279 . S
C974 C972 1.348 . S
C974 C976 1.353 . S
C974 H1032 0.929 . S
C975 C972 1.356 . S
C975 C977 1.358 . S
C975 H1033 0.930 . S
C976 N973 1.314 . S
C976 C974 1.353 . S
C976 H1034 0.930 . S
C977 N973 1.279 . S
C977 C975 1.358 . S
C977 H1035 0.930 . S
C978 C981 1.348 . S
C978 C982 1.356 . S
C978 O1029 1.325 . S
C979 N980 1.279 . S
C979 C982 1.358 . S
C979 H1036 0.930 . S
N980 C979 1.279 . S
N980 C983 1.314 . S
C981 C978 1.348 . S
C981 C983 1.353 . S
C981 H1037 0.929 . S
C982 C978 1.356 . S
C982 C979 1.358 . S
C982 H1038 0.930 . S
C983 N980 1.314 . S
C983 C981 1.353 . S
C983 H1039 0.930 . S
C984 N985 1.314 . S
C984 C989 1.353 . S
C984 H990 0.930 . S
N985 Li968 1.990 . S
N985 C984 1.314 . S
N985 C987 1.279 . S
C986 C987 1.358 . S
C986 C988 1.356 . S
C986 H1040 0.930 . S
C987 N985 1.279 . S
C987 C986 1.358 . S
C987 H991 0.930 . S
C988 C986 1.356 . S
C988 C989 1.348 . S
C989 C984 1.353 . S
C989 C988 1.348 . S
C989 H1041 0.929 . S
H990 C984 0.930 . S
H991 C987 0.930 . S
C992 N993 1.314 . S
C992 C994 1.353 . S
C992 H998 0.930 . S
N993 Li969 1.990 . S
N993 C992 1.314 . S
N993 C996 1.279 . S
C994 C992 1.353 . S
C994 C997 1.348 . S
C994 H1042 0.929 . S
C995 C996 1.358 . S
C995 C997 1.356 . S
C995 H1043 0.930 . S
C996 N993 1.279 . S
C996 C995 1.358 . S
C996 H999 0.930 . S
C997 C994 1.348 . S
C997 C995 1.356 . S
H998 C992 0.930 . S
H999 C996 0.930 . S
C1000 C1002 1.348 . S
C1000 C1003 1.356 . S
C1000 O1030 1.325 . S
N1001 C1004 1.314 . S
N1001 C1005 1.279 . S
C1002 C1000 1.348 . S
C1002 C1004 1.353 . S
C1002 H1044 0.929 . S
C1003 C1000 1.356 . S
C1003 C1005 1.358 . S
C1003 H1045 0.930 . S
C1004 N1001 1.314 . S
C1004 C1002 1.353 . S
C1004 H1046 0.930 . S
C1005 N1001 1.279 . S
C1005 C1003 1.358 . S
C1005 H1047 0.930 . S
C1006 C1007 1.348 . S
C1006 C1008 1.356 . S
C1006 O1031 1.325 . S
C1007 C1006 1.348 . S
C1007 C1009 1.353 . S
C1007 H1048 0.929 . S
C1008 C1006 1.356 . S
C1008 C1010 1.358 . S
C1008 H1049 0.930 . S
C1009 C1007 1.353 . S
C1009 N1011 1.314 . S
C1009 H1050 0.930 . S
C1010 C1008 1.358 . S
C1010 N1011 1.279 . S
C1010 H1051 0.930 . S
N1011 C1009 1.314 . S
N1011 C1010 1.279 . S
C1012 C1014 1.353 . S
C1012 N1015 1.314 . S
C1012 H1018 0.930 . S
C1013 N1015 1.279 . S
C1013 C1016 1.358 . S
C1013 H1019 0.930 . S
C1014 C1012 1.353 . S
C1014 C1017 1.348 . S
C1014 H1052 0.929 . S
N1015 Li970 1.990 . S
N1015 C1012 1.314 . S
N1015 C1013 1.279 . S
C1016 C1013 1.358 . S
C1016 C1017 1.356 . S
C1016 H1053 0.930 . S
C1017 C1014 1.348 . S
C1017 C1016 1.356 . S
H1018 C1012 0.930 . S
H1019 C1013 0.930 . S
C1020 N1021 1.314 . S
C1020 C1022 1.353 . S
C1020 H1026 0.930 . S
N1021 Li971 1.990 . S
N1021 C1020 1.314 . S
N1021 C1024 1.279 . S
C1022 C1020 1.353 . S
C1022 C1025 1.348 . S
C1022 H1054 0.929 . S
C1023 C1024 1.358 . S
C1023 C1025 1.356 . S
C1023 H1055 0.930 . S
C1024 N1021 1.279 . S
C1024 C1023 1.358 . S
C1024 H1027 0.930 . S
C1025 C1022 1.348 . S
C1025 C1023 1.356 . S
H1026 C1020 0.930 . S
H1027 C1024 0.930 . S
O1028 Li968 1.956 . S
O1028 Li969 1.970 . S
O1028 Li970 1.961 . S
O1028 C972 1.325 . S
O1029 Li968 1.970 . S
O1029 Li969 1.956 . S
O1029 Li971 1.961 . S
O1029 C978 1.325 . S
O1030 Li968 1.961 . S
O1030 Li970 1.956 . S
O1030 Li971 1.970 . S
O1030 C1000 1.325 . S
O1031 Li969 1.961 . S
O1031 Li970 1.970 . S
O1031 Li971 1.956 . S
O1031 C1006 1.325 . S
H1032 C974 0.929 . S
H1033 C975 0.930 . S
H1034 C976 0.930 . S
H1035 C977 0.930 . S
H1036 C979 0.930 . S
H1037 C981 0.929 . S
H1038 C982 0.930 . S
H1039 C983 0.930 . S
H1040 C986 0.930 . S
H1041 C989 0.929 . S
H1042 C994 0.929 . S
H1043 C995 0.930 . S
H1044 C1002 0.929 . S
H1045 C1003 0.930 . S
H1046 C1004 0.930 . S
H1047 C1005 0.930 . S
H1048 C1007 0.929 . S
H1049 C1008 0.930 . S
H1050 C1009 0.930 . S
H1051 C1010 0.930 . S
H1052 C1014 0.929 . S
H1053 C1016 0.930 . S
H1054 C1022 0.929 . S
H1055 C1023 0.930 . S
Li1056 N1073 1.990 1_545 S
Li1056 O1116 1.956 . S
Li1056 O1117 1.970 . S
Li1056 O1118 1.961 . S
Li1057 N1081 1.990 . S
Li1057 O1116 1.970 . S
Li1057 O1117 1.956 . S
Li1057 O1119 1.961 . S
Li1058 N1103 1.990 . S
Li1058 O1116 1.961 . S
Li1058 O1118 1.956 . S
Li1058 O1119 1.970 . S
Li1059 N1109 1.990 . S
Li1059 O1117 1.961 . S
Li1059 O1118 1.970 . S
Li1059 O1119 1.956 . S
C1060 C1062 1.348 1_545 S
C1060 C1063 1.356 1_545 S
C1060 O1116 1.325 . S
N1061 C1064 1.314 . S
N1061 C1065 1.279 . S
C1062 C1060 1.348 1_565 S
C1062 C1064 1.353 . S
C1062 H1120 0.929 . S
C1063 C1060 1.356 1_565 S
C1063 C1065 1.358 . S
C1063 H1121 0.972 . S
C1064 N1061 1.314 . S
C1064 C1062 1.353 . S
C1064 H1122 0.930 . S
C1065 N1061 1.279 . S
C1065 C1063 1.358 . S
C1065 H1123 0.930 . S
C1066 C1069 1.348 . S
C1066 C1070 1.356 . S
C1066 O1117 1.325 . S
C1067 N1068 1.279 . S
C1067 C1070 1.358 . S
C1067 H1124 0.930 . S
N1068 C1067 1.279 . S
N1068 C1071 1.303 1_545 S
C1069 C1066 1.348 . S
C1069 C1071 1.325 1_545 S
C1069 H1125 0.929 1_545 S
C1070 C1066 1.356 . S
C1070 C1067 1.358 . S
C1070 H1126 0.930 . S
C1071 N1068 1.303 1_565 S
C1071 C1069 1.325 1_565 S
C1071 H1127 0.976 . S
C1072 N1073 1.314 . S
C1072 C1077 1.353 . S
C1072 H1078 0.930 . S
N1073 Li1056 1.990 1_565 S
N1073 C1072 1.314 . S
N1073 C1075 1.279 . S
C1074 C1075 1.358 . S
C1074 C1076 1.356 . S
C1074 H1128 0.930 . S
C1075 N1073 1.279 . S
C1075 C1074 1.358 . S
C1075 H1079 0.930 . S
C1076 C1074 1.356 . S
C1076 C1077 1.348 . S
C1077 C1072 1.353 . S
C1077 C1076 1.348 . S
C1077 H1129 0.929 . S
H1078 C1072 0.930 . S
H1079 C1075 0.930 . S
C1080 N1081 1.314 . S
C1080 C1082 1.353 . S
C1080 H1086 0.930 . S
N1081 Li1057 1.990 . S
N1081 C1080 1.314 . S
N1081 C1084 1.279 . S
C1082 C1080 1.353 . S
C1082 C1085 1.348 . S
C1082 H1130 0.929 . S
C1083 C1084 1.358 . S
C1083 C1085 1.356 . S
C1083 H1131 0.930 . S
C1084 N1081 1.279 . S
C1084 C1083 1.358 . S
C1084 H1087 0.930 . S
C1085 C1082 1.348 . S
C1085 C1083 1.356 . S
H1086 C1080 0.930 . S
H1087 C1084 0.930 . S
C1088 C1090 1.348 . S
C1088 C1091 1.356 . S
C1088 O1118 1.325 . S
N1089 C1092 1.314 . S
N1089 C1093 1.279 . S
C1090 C1088 1.348 . S
C1090 C1092 1.353 . S
C1090 H1132 0.929 . S
C1091 C1088 1.356 . S
C1091 C1093 1.358 . S
C1091 H1133 0.930 . S
C1092 N1089 1.314 . S
C1092 C1090 1.353 . S
C1092 H1134 0.930 . S
C1093 N1089 1.279 . S
C1093 C1091 1.358 . S
C1093 H1135 0.930 . S
C1094 C1095 1.348 . S
C1094 C1096 1.356 . S
C1094 O1119 1.325 . S
C1095 C1094 1.348 . S
C1095 C1097 1.353 . S
C1095 H1136 0.929 . S
C1096 C1094 1.356 . S
C1096 C1098 1.358 . S
C1096 H1137 0.930 . S
C1097 C1095 1.353 . S
C1097 N1099 1.314 . S
C1097 H1138 0.930 . S
C1098 C1096 1.358 . S
C1098 N1099 1.279 . S
C1098 H1139 0.930 . S
N1099 C1097 1.314 . S
N1099 C1098 1.279 . S
C1100 C1102 1.353 . S
C1100 N1103 1.314 . S
C1100 H1106 0.930 . S
C1101 N1103 1.279 . S
C1101 C1104 1.358 . S
C1101 H1107 0.930 . S
C1102 C1100 1.353 . S
C1102 C1105 1.348 . S
C1102 H1140 0.929 . S
N1103 Li1058 1.990 . S
N1103 C1100 1.314 . S
N1103 C1101 1.279 . S
C1104 C1101 1.358 . S
C1104 C1105 1.356 . S
C1104 H1141 0.930 . S
C1105 C1102 1.348 . S
C1105 C1104 1.356 . S
H1106 C1100 0.930 . S
H1107 C1101 0.930 . S
C1108 N1109 1.314 . S
C1108 C1110 1.353 . S
C1108 H1114 0.930 . S
N1109 Li1059 1.990 . S
N1109 C1108 1.314 . S
N1109 C1112 1.279 . S
C1110 C1108 1.353 . S
C1110 C1113 1.348 . S
C1110 H1142 0.929 . S
C1111 C1112 1.358 . S
C1111 C1113 1.356 . S
C1111 H1143 0.930 . S
C1112 N1109 1.279 . S
C1112 C1111 1.358 . S
C1112 H1115 0.930 . S
C1113 C1110 1.348 . S
C1113 C1111 1.356 . S
H1114 C1108 0.930 . S
H1115 C1112 0.930 . S
O1116 Li1056 1.956 . S
O1116 Li1057 1.970 . S
O1116 Li1058 1.961 . S
O1116 C1060 1.325 . S
O1117 Li1056 1.970 . S
O1117 Li1057 1.956 . S
O1117 Li1059 1.961 . S
O1117 C1066 1.325 . S
O1118 Li1056 1.961 . S
O1118 Li1058 1.956 . S
O1118 Li1059 1.970 . S
O1118 C1088 1.325 . S
O1119 Li1057 1.961 . S
O1119 Li1058 1.970 . S
O1119 Li1059 1.956 . S
O1119 C1094 1.325 . S
H1120 C1062 0.929 . S
H1121 C1063 0.972 . S
H1122 C1064 0.930 . S
H1123 C1065 0.930 . S
H1124 C1067 0.930 . S
H1125 C1069 0.929 1_565 S
H1126 C1070 0.930 . S
H1127 C1071 0.976 . S
H1128 C1074 0.930 . S
H1129 C1077 0.929 . S
H1130 C1082 0.929 . S
H1131 C1083 0.930 . S
H1132 C1090 0.929 . S
H1133 C1091 0.930 . S
H1134 C1092 0.930 . S
H1135 C1093 0.930 . S
H1136 C1095 0.929 . S
H1137 C1096 0.930 . S
H1138 C1097 0.930 . S
H1139 C1098 0.930 . S
H1140 C1102 0.929 . S
H1141 C1104 0.930 . S
H1142 C1110 0.929 . S
H1143 C1111 0.930 . S
Li1144 N1161 1.990 1_655 S
Li1144 O1204 1.956 . S
Li1144 O1205 1.970 . S
Li1144 O1206 1.961 . S
Li1145 N1169 1.990 . S
Li1145 O1204 1.970 . S
Li1145 O1205 1.956 . S
Li1145 O1207 1.961 . S
Li1146 N1191 1.990 . S
Li1146 O1204 1.961 . S
Li1146 O1206 1.956 . S
Li1146 O1207 1.970 . S
Li1147 N1197 1.990 . S
Li1147 O1205 1.961 . S
Li1147 O1206 1.970 . S
Li1147 O1207 1.956 . S
C1148 C1150 1.348 . S
C1148 C1151 1.356 . S
C1148 O1204 1.325 1_455 S
N1149 C1152 1.314 . S
N1149 C1153 1.279 . S
C1150 C1148 1.348 . S
C1150 C1152 1.353 . S
C1150 H1208 0.929 . S
C1151 C1148 1.356 . S
C1151 C1153 1.358 . S
C1151 H1209 0.930 . S
C1152 N1149 1.314 . S
C1152 C1150 1.353 . S
C1152 H1210 0.930 . S
C1153 N1149 1.279 . S
C1153 C1151 1.358 . S
C1153 H1211 0.930 . S
C1154 C1157 1.348 1_655 S
C1154 C1158 1.356 . S
C1154 O1205 1.325 . S
C1155 N1156 1.279 . S
C1155 C1158 1.358 . S
C1155 H1212 0.930 . S
N1156 C1155 1.279 . S
N1156 C1159 1.314 1_655 S
C1157 C1154 1.348 1_455 S
C1157 C1159 1.353 . S
C1157 H1213 0.929 . S
C1158 C1154 1.356 . S
C1158 C1155 1.358 . S
C1158 H1214 0.930 . S
C1159 N1156 1.314 1_455 S
C1159 C1157 1.353 . S
C1159 H1215 0.930 . S
C1160 N1161 1.314 . S
C1160 C1165 1.353 . S
C1160 H1166 0.930 . S
N1161 Li1144 1.990 1_455 S
N1161 C1160 1.314 . S
N1161 C1163 1.279 . S
C1162 C1163 1.358 . S
C1162 C1164 1.356 . S
C1162 H1216 0.930 . S
C1163 N1161 1.279 . S
C1163 C1162 1.358 . S
C1163 H1167 0.930 . S
C1164 C1162 1.356 . S
C1164 C1165 1.348 . S
C1165 C1160 1.353 . S
C1165 C1164 1.348 . S
C1165 H1217 0.929 . S
H1166 C1160 0.930 . S
H1167 C1163 0.930 . S
C1168 N1169 1.314 . S
C1168 C1170 1.353 . S
C1168 H1174 0.930 . S
N1169 Li1145 1.990 . S
N1169 C1168 1.314 . S
N1169 C1172 1.279 . S
C1170 C1168 1.353 . S
C1170 C1173 1.348 . S
C1170 H1218 0.929 . S
C1171 C1172 1.358 . S
C1171 C1173 1.356 . S
C1171 H1219 0.930 . S
C1172 N1169 1.279 . S
C1172 C1171 1.358 . S
C1172 H1175 0.930 . S
C1173 C1170 1.348 . S
C1173 C1171 1.356 . S
H1174 C1168 0.930 . S
H1175 C1172 0.930 . S
C1176 C1178 1.348 . S
C1176 C1179 1.356 . S
C1176 O1206 1.325 . S
N1177 C1180 1.314 . S
N1177 C1181 1.279 . S
C1178 C1176 1.348 . S
C1178 C1180 1.353 . S
C1178 H1220 0.929 . S
C1179 C1176 1.356 . S
C1179 C1181 1.358 . S
C1179 H1221 0.930 . S
C1180 N1177 1.314 . S
C1180 C1178 1.353 . S
C1180 H1222 0.930 . S
C1181 N1177 1.279 . S
C1181 C1179 1.358 . S
C1181 H1223 0.930 . S
C1182 C1183 1.348 . S
C1182 C1184 1.356 . S
C1182 O1207 1.325 . S
C1183 C1182 1.348 . S
C1183 C1185 1.353 . S
C1183 H1224 0.929 . S
C1184 C1182 1.356 . S
C1184 C1186 1.358 . S
C1184 H1225 0.930 . S
C1185 C1183 1.353 . S
C1185 N1187 1.314 . S
C1185 H1226 0.930 . S
C1186 C1184 1.358 . S
C1186 N1187 1.279 . S
C1186 H1227 0.930 . S
N1187 C1185 1.314 . S
N1187 C1186 1.279 . S
C1188 C1190 1.353 . S
C1188 N1191 1.314 . S
C1188 H1194 0.930 . S
C1189 N1191 1.279 . S
C1189 C1192 1.358 . S
C1189 H1195 0.930 . S
C1190 C1188 1.353 . S
C1190 C1193 1.348 . S
C1190 H1228 0.929 . S
N1191 Li1146 1.990 . S
N1191 C1188 1.314 . S
N1191 C1189 1.279 . S
C1192 C1189 1.358 . S
C1192 C1193 1.356 . S
C1192 H1229 0.930 . S
C1193 C1190 1.348 . S
C1193 C1192 1.356 . S
H1194 C1188 0.930 . S
H1195 C1189 0.930 . S
C1196 N1197 1.314 . S
C1196 C1198 1.353 . S
C1196 H1202 0.930 . S
N1197 Li1147 1.990 . S
N1197 C1196 1.314 . S
N1197 C1200 1.279 . S
C1198 C1196 1.353 . S
C1198 C1201 1.348 . S
C1198 H1230 0.929 . S
C1199 C1200 1.358 . S
C1199 C1201 1.356 . S
C1199 H1231 0.930 . S
C1200 N1197 1.279 . S
C1200 C1199 1.358 . S
C1200 H1203 0.930 . S
C1201 C1198 1.348 . S
C1201 C1199 1.356 . S
H1202 C1196 0.930 . S
H1203 C1200 0.930 . S
O1204 Li1144 1.956 . S
O1204 Li1145 1.970 . S
O1204 Li1146 1.961 . S
O1204 C1148 1.325 1_655 S
O1205 Li1144 1.970 . S
O1205 Li1145 1.956 . S
O1205 Li1147 1.961 . S
O1205 C1154 1.325 . S
O1206 Li1144 1.961 . S
O1206 Li1146 1.956 . S
O1206 Li1147 1.970 . S
O1206 C1176 1.325 . S
O1207 Li1145 1.961 . S
O1207 Li1146 1.970 . S
O1207 Li1147 1.956 . S
O1207 C1182 1.325 . S
H1208 C1150 0.929 . S
H1209 C1151 0.930 . S
H1210 C1152 0.930 . S
H1211 C1153 0.930 . S
H1212 C1155 0.930 . S
H1213 C1157 0.929 . S
H1214 C1158 0.930 . S
H1215 C1159 0.930 . S
H1216 C1162 0.930 . S
H1217 C1165 0.929 . S
H1218 C1170 0.929 . S
H1219 C1171 0.930 . S
H1220 C1178 0.929 . S
H1221 C1179 0.930 . S
H1222 C1180 0.930 . S
H1223 C1181 0.930 . S
H1224 C1183 0.929 . S
H1225 C1184 0.930 . S
H1226 C1185 0.930 . S
H1227 C1186 0.930 . S
H1228 C1190 0.929 . S
H1229 C1192 0.930 . S
H1230 C1198 0.929 . S
H1231 C1199 0.930 . S
Li1232 N1249 1.990 . S
Li1232 O1292 1.956 . S
Li1232 O1293 1.970 . S
Li1232 O1294 1.961 . S
Li1233 N1257 1.990 . S
Li1233 O1292 1.970 . S
Li1233 O1293 1.956 . S
Li1233 O1295 1.961 . S
Li1234 N1279 1.990 . S
Li1234 O1292 1.961 . S
Li1234 O1294 1.956 . S
Li1234 O1295 1.970 . S
Li1235 N1285 1.990 . S
Li1235 O1293 1.961 . S
Li1235 O1294 1.970 . S
Li1235 O1295 1.956 . S
C1236 C1238 1.348 . S
C1236 C1239 1.356 . S
C1236 O1292 1.325 . S
N1237 C1240 1.314 . S
N1237 C1241 1.279 . S
C1238 C1236 1.348 . S
C1238 C1240 1.353 . S
C1238 H1296 0.929 . S
C1239 C1236 1.356 . S
C1239 C1241 1.358 . S
C1239 H1297 0.930 . S
C1240 N1237 1.314 . S
C1240 C1238 1.353 . S
C1240 H1298 0.930 . S
C1241 N1237 1.279 . S
C1241 C1239 1.358 . S
C1241 H1299 0.930 . S
C1242 C1245 1.348 . S
C1242 C1246 1.356 . S
C1242 O1293 1.325 . S
C1243 N1244 1.279 . S
C1243 C1246 1.358 . S
C1243 H1300 0.930 . S
N1244 C1243 1.279 . S
N1244 C1247 1.314 . S
C1245 C1242 1.348 . S
C1245 C1247 1.353 . S
C1245 H1301 0.929 . S
C1246 C1242 1.356 . S
C1246 C1243 1.358 . S
C1246 H1302 0.930 . S
C1247 N1244 1.314 . S
C1247 C1245 1.353 . S
C1247 H1303 0.930 . S
C1248 N1249 1.314 . S
C1248 C1253 1.353 . S
C1248 H1254 0.930 . S
N1249 Li1232 1.990 . S
N1249 C1248 1.314 . S
N1249 C1251 1.279 . S
C1250 C1251 1.358 . S
C1250 C1252 1.356 . S
C1250 H1304 0.930 . S
C1251 N1249 1.279 . S
C1251 C1250 1.358 . S
C1251 H1255 0.930 . S
C1252 C1250 1.356 . S
C1252 C1253 1.348 . S
C1253 C1248 1.353 . S
C1253 C1252 1.348 . S
C1253 H1305 0.929 . S
H1254 C1248 0.930 . S
H1255 C1251 0.930 . S
C1256 N1257 1.314 . S
C1256 C1258 1.353 . S
C1256 H1262 0.930 . S
N1257 Li1233 1.990 . S
N1257 C1256 1.314 . S
N1257 C1260 1.279 . S
C1258 C1256 1.353 . S
C1258 C1261 1.348 . S
C1258 H1306 0.929 . S
C1259 C1260 1.358 . S
C1259 C1261 1.356 . S
C1259 H1307 0.930 . S
C1260 N1257 1.279 . S
C1260 C1259 1.358 . S
C1260 H1263 0.930 . S
C1261 C1258 1.348 . S
C1261 C1259 1.356 . S
H1262 C1256 0.930 . S
H1263 C1260 0.930 . S
C1264 C1266 1.348 . S
C1264 C1267 1.356 . S
C1264 O1294 1.325 . S
N1265 C1268 1.314 . S
N1265 C1269 1.279 . S
C1266 C1264 1.348 . S
C1266 C1268 1.353 . S
C1266 H1308 0.929 . S
C1267 C1264 1.356 . S
C1267 C1269 1.358 . S
C1267 H1309 0.930 . S
C1268 N1265 1.314 . S
C1268 C1266 1.353 . S
C1268 H1310 0.930 . S
C1269 N1265 1.279 . S
C1269 C1267 1.358 . S
C1269 H1311 0.930 . S
C1270 C1271 1.348 . S
C1270 C1272 1.356 . S
C1270 O1295 1.325 . S
C1271 C1270 1.348 . S
C1271 C1273 1.353 . S
C1271 H1312 0.929 . S
C1272 C1270 1.356 . S
C1272 C1274 1.358 . S
C1272 H1313 0.930 . S
C1273 C1271 1.353 . S
C1273 N1275 1.314 . S
C1273 H1314 0.930 . S
C1274 C1272 1.358 . S
C1274 N1275 1.279 . S
C1274 H1315 0.930 . S
N1275 C1273 1.314 . S
N1275 C1274 1.279 . S
C1276 C1278 1.353 . S
C1276 N1279 1.314 . S
C1276 H1282 0.930 . S
C1277 N1279 1.279 . S
C1277 C1280 1.358 . S
C1277 H1283 0.930 . S
C1278 C1276 1.353 . S
C1278 C1281 1.348 . S
C1278 H1316 0.929 . S
N1279 Li1234 1.990 . S
N1279 C1276 1.314 . S
N1279 C1277 1.279 . S
C1280 C1277 1.358 . S
C1280 C1281 1.356 . S
C1280 H1317 0.930 . S
C1281 C1278 1.348 . S
C1281 C1280 1.356 . S
H1282 C1276 0.930 . S
H1283 C1277 0.930 . S
C1284 N1285 1.314 . S
C1284 C1286 1.353 . S
C1284 H1290 0.930 . S
N1285 Li1235 1.990 . S
N1285 C1284 1.314 . S
N1285 C1288 1.279 . S
C1286 C1284 1.353 . S
C1286 C1289 1.348 . S
C1286 H1318 0.929 . S
C1287 C1288 1.358 . S
C1287 C1289 1.356 . S
C1287 H1319 0.930 . S
C1288 N1285 1.279 . S
C1288 C1287 1.358 . S
C1288 H1291 0.930 . S
C1289 C1286 1.348 . S
C1289 C1287 1.356 . S
H1290 C1284 0.930 . S
H1291 C1288 0.930 . S
O1292 Li1232 1.956 . S
O1292 Li1233 1.970 . S
O1292 Li1234 1.961 . S
O1292 C1236 1.325 . S
O1293 Li1232 1.970 . S
O1293 Li1233 1.956 . S
O1293 Li1235 1.961 . S
O1293 C1242 1.325 . S
O1294 Li1232 1.961 . S
O1294 Li1234 1.956 . S
O1294 Li1235 1.970 . S
O1294 C1264 1.325 . S
O1295 Li1233 1.961 . S
O1295 Li1234 1.970 . S
O1295 Li1235 1.956 . S
O1295 C1270 1.325 . S
H1296 C1238 0.929 . S
H1297 C1239 0.930 . S
H1298 C1240 0.930 . S
H1299 C1241 0.930 . S
H1300 C1243 0.930 . S
H1301 C1245 0.929 . S
H1302 C1246 0.930 . S
H1303 C1247 0.930 . S
H1304 C1250 0.930 . S
H1305 C1253 0.929 . S
H1306 C1258 0.929 . S
H1307 C1259 0.930 . S
H1308 C1266 0.929 . S
H1309 C1267 0.930 . S
H1310 C1268 0.930 . S
H1311 C1269 0.930 . S
H1312 C1271 0.929 . S
H1313 C1272 0.930 . S
H1314 C1273 0.930 . S
H1315 C1274 0.930 . S
H1316 C1278 0.929 . S
H1317 C1280 0.930 . S
H1318 C1286 0.929 . S
H1319 C1287 0.930 . S
Li1320 N1337 1.990 . S
Li1320 O1380 1.956 . S
Li1320 O1381 1.970 . S
Li1320 O1382 1.961 . S
Li1321 N1345 1.990 . S
Li1321 O1380 1.970 . S
Li1321 O1381 1.956 . S
Li1321 O1383 1.961 . S
Li1322 N1367 1.990 . S
Li1322 O1380 1.961 . S
Li1322 O1382 1.956 . S
Li1322 O1383 1.970 . S
Li1323 N1373 1.990 . S
Li1323 O1381 1.961 . S
Li1323 O1382 1.970 . S
Li1323 O1383 1.956 . S
C1324 C1326 1.348 . S
C1324 C1327 1.356 . S
C1324 O1380 1.325 . S
N1325 C1328 1.314 . S
N1325 C1329 1.279 . S
C1326 C1324 1.348 . S
C1326 C1328 1.353 . S
C1326 H1384 0.929 . S
C1327 C1324 1.356 . S
C1327 C1329 1.358 . S
C1327 H1385 0.930 . S
C1328 N1325 1.314 . S
C1328 C1326 1.353 . S
C1328 H1386 0.930 . S
C1329 N1325 1.279 . S
C1329 C1327 1.358 . S
C1329 H1387 0.930 . S
C1330 C1333 1.348 . S
C1330 C1334 1.356 . S
C1330 O1381 1.325 . S
C1331 N1332 1.279 . S
C1331 C1334 1.358 . S
C1331 H1388 0.930 . S
N1332 C1331 1.279 . S
N1332 C1335 1.314 . S
C1333 C1330 1.348 . S
C1333 C1335 1.353 . S
C1333 H1389 0.929 . S
C1334 C1330 1.356 . S
C1334 C1331 1.358 . S
C1334 H1390 0.930 . S
C1335 N1332 1.314 . S
C1335 C1333 1.353 . S
C1335 H1391 0.930 . S
C1336 N1337 1.314 . S
C1336 C1341 1.353 . S
C1336 H1342 0.930 . S
N1337 Li1320 1.990 . S
N1337 C1336 1.314 . S
N1337 C1339 1.279 . S
C1338 C1339 1.358 . S
C1338 C1340 1.356 . S
C1338 H1392 0.930 . S
C1339 N1337 1.279 . S
C1339 C1338 1.358 . S
C1339 H1343 0.930 . S
C1340 C1338 1.356 . S
C1340 C1341 1.348 . S
C1341 C1336 1.353 . S
C1341 C1340 1.348 . S
C1341 H1393 0.929 . S
H1342 C1336 0.930 . S
H1343 C1339 0.930 . S
C1344 N1345 1.314 . S
C1344 C1346 1.353 . S
C1344 H1350 0.930 . S
N1345 Li1321 1.990 . S
N1345 C1344 1.314 . S
N1345 C1348 1.279 . S
C1346 C1344 1.353 . S
C1346 C1349 1.348 . S
C1346 H1394 0.929 . S
C1347 C1348 1.358 . S
C1347 C1349 1.356 . S
C1347 H1395 0.930 . S
C1348 N1345 1.279 . S
C1348 C1347 1.358 . S
C1348 H1351 0.930 . S
C1349 C1346 1.348 . S
C1349 C1347 1.356 . S
H1350 C1344 0.930 . S
H1351 C1348 0.930 . S
C1352 C1354 1.348 . S
C1352 C1355 1.356 . S
C1352 O1382 1.325 . S
N1353 C1356 1.314 . S
N1353 C1357 1.279 . S
C1354 C1352 1.348 . S
C1354 C1356 1.353 . S
C1354 H1396 0.929 . S
C1355 C1352 1.356 . S
C1355 C1357 1.358 . S
C1355 H1397 0.930 . S
C1356 N1353 1.314 . S
C1356 C1354 1.353 . S
C1356 H1398 0.930 . S
C1357 N1353 1.279 . S
C1357 C1355 1.358 . S
C1357 H1399 0.930 . S
C1358 C1359 1.348 . S
C1358 C1360 1.356 . S
C1358 O1383 1.325 . S
C1359 C1358 1.348 . S
C1359 C1361 1.353 . S
C1359 H1400 0.929 . S
C1360 C1358 1.356 . S
C1360 C1362 1.358 . S
C1360 H1401 0.930 . S
C1361 C1359 1.353 . S
C1361 N1363 1.314 . S
C1361 H1402 0.930 . S
C1362 C1360 1.358 . S
C1362 N1363 1.279 . S
C1362 H1403 0.930 . S
N1363 C1361 1.314 . S
N1363 C1362 1.279 . S
C1364 C1366 1.353 . S
C1364 N1367 1.314 . S
C1364 H1370 0.930 . S
C1365 N1367 1.279 . S
C1365 C1368 1.358 . S
C1365 H1371 0.930 . S
C1366 C1364 1.353 . S
C1366 C1369 1.348 . S
C1366 H1404 0.929 . S
N1367 Li1322 1.990 . S
N1367 C1364 1.314 . S
N1367 C1365 1.279 . S
C1368 C1365 1.358 . S
C1368 C1369 1.356 . S
C1368 H1405 0.930 . S
C1369 C1366 1.348 . S
C1369 C1368 1.356 . S
H1370 C1364 0.930 . S
H1371 C1365 0.930 . S
C1372 N1373 1.314 . S
C1372 C1374 1.353 . S
C1372 H1378 0.930 . S
N1373 Li1323 1.990 . S
N1373 C1372 1.314 . S
N1373 C1376 1.279 . S
C1374 C1372 1.353 . S
C1374 C1377 1.348 . S
C1374 H1406 0.929 . S
C1375 C1376 1.358 . S
C1375 C1377 1.356 . S
C1375 H1407 0.930 . S
C1376 N1373 1.279 . S
C1376 C1375 1.358 . S
C1376 H1379 0.930 . S
C1377 C1374 1.348 . S
C1377 C1375 1.356 . S
H1378 C1372 0.930 . S
H1379 C1376 0.930 . S
O1380 Li1320 1.956 . S
O1380 Li1321 1.970 . S
O1380 Li1322 1.961 . S
O1380 C1324 1.325 . S
O1381 Li1320 1.970 . S
O1381 Li1321 1.956 . S
O1381 Li1323 1.961 . S
O1381 C1330 1.325 . S
O1382 Li1320 1.961 . S
O1382 Li1322 1.956 . S
O1382 Li1323 1.970 . S
O1382 C1352 1.325 . S
O1383 Li1321 1.961 . S
O1383 Li1322 1.970 . S
O1383 Li1323 1.956 . S
O1383 C1358 1.325 . S
H1384 C1326 0.929 . S
H1385 C1327 0.930 . S
H1386 C1328 0.930 . S
H1387 C1329 0.930 . S
H1388 C1331 0.930 . S
H1389 C1333 0.929 . S
H1390 C1334 0.930 . S
H1391 C1335 0.930 . S
H1392 C1338 0.930 . S
H1393 C1341 0.929 . S
H1394 C1346 0.929 . S
H1395 C1347 0.930 . S
H1396 C1354 0.929 . S
H1397 C1355 0.930 . S
H1398 C1356 0.930 . S
H1399 C1357 0.930 . S
H1400 C1359 0.929 . S
H1401 C1360 0.930 . S
H1402 C1361 0.930 . S
H1403 C1362 0.930 . S
H1404 C1366 0.929 . S
H1405 C1368 0.930 . S
H1406 C1374 0.929 . S
H1407 C1375 0.930 . S
Li1408 N1425 1.990 . S
Li1408 O1468 1.956 . S
Li1408 O1469 1.970 . S
Li1408 O1470 1.961 . S
Li1409 N1433 1.990 . S
Li1409 O1468 1.970 . S
Li1409 O1469 1.956 . S
Li1409 O1471 1.961 . S
Li1410 N1455 1.990 . S
Li1410 O1468 1.961 . S
Li1410 O1470 1.956 . S
Li1410 O1471 1.970 . S
Li1411 N1461 1.990 1_545 S
Li1411 O1469 1.961 . S
Li1411 O1470 1.970 . S
Li1411 O1471 1.956 . S
C1412 C1414 1.348 . S
C1412 C1415 1.356 . S
C1412 O1468 1.325 . S
N1413 C1416 1.314 . S
N1413 C1417 1.279 . S
C1414 C1412 1.348 . S
C1414 C1416 1.353 . S
C1414 H1472 0.929 . S
C1415 C1412 1.356 . S
C1415 C1417 1.358 . S
C1415 H1473 0.930 . S
C1416 N1413 1.314 . S
C1416 C1414 1.353 . S
C1416 H1474 0.930 . S
C1417 N1413 1.279 . S
C1417 C1415 1.358 . S
C1417 H1475 0.930 . S
C1418 C1421 1.369 . S
C1418 C1422 1.372 . S
C1418 O1469 1.314 1_565 S
C1419 N1420 1.279 . S
C1419 C1422 1.358 . S
C1419 H1476 0.930 . S
N1420 C1419 1.279 . S
N1420 C1423 1.314 . S
C1421 C1418 1.369 . S
C1421 C1423 1.412 . S
C1421 H1477 0.848 1_565 S
C1422 C1418 1.372 . S
C1422 C1419 1.358 . S
C1422 H1478 0.930 . S
C1423 N1420 1.314 . S
C1423 C1421 1.412 . S
C1423 H1479 0.930 . S
C1424 N1425 1.314 . S
C1424 C1429 1.353 . S
C1424 H1430 0.930 . S
N1425 Li1408 1.990 . S
N1425 C1424 1.314 . S
N1425 C1427 1.279 . S
C1426 C1427 1.358 . S
C1426 C1428 1.356 . S
C1426 H1480 0.930 . S
C1427 N1425 1.279 . S
C1427 C1426 1.358 . S
C1427 H1431 0.930 . S
C1428 C1426 1.356 . S
C1428 C1429 1.348 . S
C1429 C1424 1.353 . S
C1429 C1428 1.348 . S
C1429 H1481 0.978 . S
H1430 C1424 0.930 . S
H1431 C1427 0.930 . S
C1432 N1433 1.314 . S
C1432 C1434 1.353 . S
C1432 H1438 0.930 . S
N1433 Li1409 1.990 . S
N1433 C1432 1.314 . S
N1433 C1436 1.279 . S
C1434 C1432 1.353 . S
C1434 C1437 1.348 . S
C1434 H1482 0.929 . S
C1435 C1436 1.358 . S
C1435 C1437 1.356 . S
C1435 H1483 0.930 . S
C1436 N1433 1.279 . S
C1436 C1435 1.358 . S
C1436 H1439 0.930 . S
C1437 C1434 1.348 . S
C1437 C1435 1.356 . S
H1438 C1432 0.930 . S
H1439 C1436 0.930 . S
C1440 C1442 1.348 . S
C1440 C1443 1.356 . S
C1440 O1470 1.325 . S
N1441 C1444 1.314 . S
N1441 C1445 1.279 . S
C1442 C1440 1.348 . S
C1442 C1444 1.353 . S
C1442 H1484 0.888 1_545 S
C1443 C1440 1.356 . S
C1443 C1445 1.358 . S
C1443 H1485 0.930 . S
C1444 N1441 1.314 . S
C1444 C1442 1.353 . S
C1444 H1486 0.930 1_545 S
C1445 N1441 1.279 . S
C1445 C1443 1.358 . S
C1445 H1487 0.930 . S
C1446 C1447 1.348 . S
C1446 C1448 1.356 . S
C1446 O1471 1.325 . S
C1447 C1446 1.348 . S
C1447 C1449 1.353 . S
C1447 H1488 0.929 . S
C1448 C1446 1.356 . S
C1448 C1450 1.358 . S
C1448 H1489 0.930 . S
C1449 C1447 1.353 . S
C1449 N1451 1.314 . S
C1449 H1490 0.930 . S
C1450 C1448 1.358 . S
C1450 N1451 1.279 . S
C1450 H1491 0.930 . S
N1451 C1449 1.314 . S
N1451 C1450 1.279 . S
C1452 C1454 1.353 . S
C1452 N1455 1.314 . S
C1452 H1458 0.930 . S
C1453 N1455 1.279 . S
C1453 C1456 1.358 . S
C1453 H1459 0.930 . S
C1454 C1452 1.353 . S
C1454 C1457 1.348 . S
C1454 H1492 0.929 . S
N1455 Li1410 1.990 . S
N1455 C1452 1.314 . S
N1455 C1453 1.279 . S
C1456 C1453 1.358 . S
C1456 C1457 1.356 . S
C1456 H1493 0.930 . S
C1457 C1454 1.348 . S
C1457 C1456 1.356 . S
H1458 C1452 0.930 . S
H1459 C1453 0.930 . S
C1460 N1461 1.314 . S
C1460 C1462 1.353 . S
C1460 H1466 0.930 . S
N1461 Li1411 1.990 1_565 S
N1461 C1460 1.314 . S
N1461 C1464 1.279 . S
C1462 C1460 1.353 . S
C1462 C1465 1.348 . S
C1462 H1494 0.929 . S
C1463 C1464 1.358 . S
C1463 C1465 1.356 . S
C1463 H1495 0.930 . S
C1464 N1461 1.279 . S
C1464 C1463 1.358 . S
C1464 H1467 0.930 . S
C1465 C1462 1.348 . S
C1465 C1463 1.356 . S
H1466 C1460 0.930 . S
H1467 C1464 0.930 . S
O1468 Li1408 1.956 . S
O1468 Li1409 1.970 . S
O1468 Li1410 1.961 . S
O1468 C1412 1.325 . S
O1469 Li1408 1.970 . S
O1469 Li1409 1.956 . S
O1469 Li1411 1.961 . S
O1469 C1418 1.314 1_545 S
O1470 Li1408 1.961 . S
O1470 Li1410 1.956 . S
O1470 Li1411 1.970 . S
O1470 C1440 1.325 . S
O1471 Li1409 1.961 . S
O1471 Li1410 1.970 . S
O1471 Li1411 1.956 . S
O1471 C1446 1.325 . S
H1472 C1414 0.929 . S
H1473 C1415 0.930 . S
H1474 C1416 0.930 . S
H1475 C1417 0.930 . S
H1476 C1419 0.930 . S
H1477 C1421 0.848 1_545 S
H1478 C1422 0.930 . S
H1479 C1423 0.930 . S
H1480 C1426 0.930 . S
H1481 C1429 0.978 . S
H1482 C1434 0.929 . S
H1483 C1435 0.930 . S
H1484 C1442 0.888 1_565 S
H1485 C1443 0.930 . S
H1486 C1444 0.930 1_565 S
H1487 C1445 0.930 . S
H1488 C1447 0.929 . S
H1489 C1448 0.930 . S
H1490 C1449 0.930 . S
H1491 C1450 0.930 . S
H1492 C1454 0.929 . S
H1493 C1456 0.930 . S
H1494 C1462 0.929 . S
H1495 C1463 0.930 . S
Li1496 N1513 1.990 . S
Li1496 O1556 1.956 . S
Li1496 O1557 1.970 . S
Li1496 O1558 1.961 . S
Li1497 N1521 1.990 . S
Li1497 O1556 1.970 . S
Li1497 O1557 1.956 . S
Li1497 O1559 1.961 . S
Li1498 N1543 1.990 1_655 S
Li1498 O1556 1.961 . S
Li1498 O1558 1.956 . S
Li1498 O1559 1.970 . S
Li1499 N1549 1.990 . S
Li1499 O1557 1.961 . S
Li1499 O1558 1.970 . S
Li1499 O1559 1.956 . S
C1500 C1502 1.383 . S
C1500 C1503 1.356 1_655 S
C1500 O1556 1.325 . S
N1501 C1504 1.314 . S
N1501 C1505 1.279 . S
C1502 C1500 1.383 . S
C1502 C1504 1.305 1_655 S
C1502 H1560 0.950 . S
C1503 C1500 1.356 1_455 S
C1503 C1505 1.358 . S
C1503 H1561 0.930 . S
C1504 N1501 1.314 . S
C1504 C1502 1.305 1_455 S
C1504 H1562 0.930 . S
C1505 N1501 1.279 . S
C1505 C1503 1.358 . S
C1505 H1563 0.930 . S
C1506 C1509 1.348 . S
C1506 C1510 1.356 . S
C1506 O1557 1.325 . S
C1507 N1508 1.279 . S
C1507 C1510 1.358 . S
C1507 H1564 0.930 . S
N1508 C1507 1.279 . S
N1508 C1511 1.314 . S
C1509 C1506 1.348 . S
C1509 C1511 1.353 . S
C1509 H1565 0.929 . S
C1510 C1506 1.356 . S
C1510 C1507 1.358 . S
C1510 H1566 0.930 . S
C1511 N1508 1.314 . S
C1511 C1509 1.353 . S
C1511 H1567 0.930 . S
C1512 N1513 1.314 . S
C1512 C1517 1.353 . S
C1512 H1518 0.930 . S
N1513 Li1496 1.990 . S
N1513 C1512 1.314 . S
N1513 C1515 1.279 . S
C1514 C1515 1.358 . S
C1514 C1516 1.356 . S
C1514 H1568 0.930 . S
C1515 N1513 1.279 . S
C1515 C1514 1.358 . S
C1515 H1519 0.930 . S
C1516 C1514 1.356 . S
C1516 C1517 1.348 . S
C1517 C1512 1.353 . S
C1517 C1516 1.348 . S
C1517 H1569 0.929 . S
H1518 C1512 0.930 . S
H1519 C1515 0.930 . S
C1520 N1521 1.314 . S
C1520 C1522 1.353 . S
C1520 H1526 0.930 . S
N1521 Li1497 1.990 . S
N1521 C1520 1.314 . S
N1521 C1524 1.279 . S
C1522 C1520 1.353 . S
C1522 C1525 1.348 . S
C1522 H1570 0.929 . S
C1523 C1524 1.358 . S
C1523 C1525 1.356 . S
C1523 H1571 0.930 . S
C1524 N1521 1.279 . S
C1524 C1523 1.358 . S
C1524 H1527 0.930 . S
C1525 C1522 1.348 . S
C1525 C1523 1.356 . S
H1526 C1520 0.930 . S
H1527 C1524 0.930 . S
C1528 C1530 1.348 . S
C1528 C1531 1.356 . S
C1528 O1558 1.325 . S
N1529 C1532 1.314 . S
N1529 C1533 1.279 . S
C1530 C1528 1.348 . S
C1530 C1532 1.353 . S
C1530 H1572 0.929 . S
C1531 C1528 1.356 . S
C1531 C1533 1.358 . S
C1531 H1573 0.930 . S
C1532 N1529 1.314 . S
C1532 C1530 1.353 . S
C1532 H1574 0.930 . S
C1533 N1529 1.279 . S
C1533 C1531 1.358 . S
C1533 H1575 0.930 . S
C1534 C1535 1.348 . S
C1534 C1536 1.356 . S
C1534 O1559 1.325 . S
C1535 C1534 1.348 . S
C1535 C1537 1.353 . S
C1535 H1576 0.929 . S
C1536 C1534 1.356 . S
C1536 C1538 1.358 . S
C1536 H1577 0.930 . S
C1537 C1535 1.353 . S
C1537 N1539 1.314 . S
C1537 H1578 0.930 1_655 S
C1538 C1536 1.358 . S
C1538 N1539 1.279 . S
C1538 H1579 0.930 . S
N1539 C1537 1.314 . S
N1539 C1538 1.279 . S
C1540 C1542 1.353 . S
C1540 N1543 1.314 . S
C1540 H1546 0.930 . S
C1541 N1543 1.279 . S
C1541 C1544 1.358 . S
C1541 H1547 0.930 . S
C1542 C1540 1.353 . S
C1542 C1545 1.348 . S
C1542 H1580 0.929 . S
N1543 Li1498 1.990 1_455 S
N1543 C1540 1.314 . S
N1543 C1541 1.279 . S
C1544 C1541 1.358 . S
C1544 C1545 1.356 . S
C1544 H1581 0.930 . S
C1545 C1542 1.348 . S
C1545 C1544 1.356 . S
H1546 C1540 0.930 . S
H1547 C1541 0.930 . S
C1548 N1549 1.314 . S
C1548 C1550 1.353 . S
C1548 H1554 0.930 . S
N1549 Li1499 1.990 . S
N1549 C1548 1.314 . S
N1549 C1552 1.279 . S
C1550 C1548 1.353 . S
C1550 C1553 1.348 . S
C1550 H1582 0.929 . S
C1551 C1552 1.358 . S
C1551 C1553 1.356 . S
C1551 H1583 0.930 . S
C1552 N1549 1.279 . S
C1552 C1551 1.358 . S
C1552 H1555 0.930 . S
C1553 C1550 1.348 . S
C1553 C1551 1.356 . S
H1554 C1548 0.930 . S
H1555 C1552 0.930 . S
O1556 Li1496 1.956 . S
O1556 Li1497 1.970 . S
O1556 Li1498 1.961 . S
O1556 C1500 1.325 . S
O1557 Li1496 1.970 . S
O1557 Li1497 1.956 . S
O1557 Li1499 1.961 . S
O1557 C1506 1.325 . S
O1558 Li1496 1.961 . S
O1558 Li1498 1.956 . S
O1558 Li1499 1.970 . S
O1558 C1528 1.325 . S
O1559 Li1497 1.961 . S
O1559 Li1498 1.970 . S
O1559 Li1499 1.956 . S
O1559 C1534 1.325 . S
H1560 C1502 0.950 . S
H1561 C1503 0.930 . S
H1562 C1504 0.930 . S
H1563 C1505 0.930 . S
H1564 C1507 0.930 . S
H1565 C1509 0.929 . S
H1566 C1510 0.930 . S
H1567 C1511 0.930 . S
H1568 C1514 0.930 . S
H1569 C1517 0.929 . S
H1570 C1522 0.929 . S
H1571 C1523 0.930 . S
H1572 C1530 0.929 . S
H1573 C1531 0.930 . S
H1574 C1532 0.930 . S
H1575 C1533 0.930 . S
H1576 C1535 0.929 . S
H1577 C1536 0.930 . S
H1578 C1537 0.930 1_455 S
H1579 C1538 0.930 . S
H1580 C1542 0.929 . S
H1581 C1544 0.930 . S
H1582 C1550 0.929 . S
H1583 C1551 0.930 . S
C1584 C1585 1.560 . S
C1584 H1645 0.959 . S
C1584 H1646 0.959 . S
C1584 H1647 0.960 . S
C1585 C1584 1.560 . S
C1585 O1640 1.426 . S
C1585 H1644 0.980 . S
C1586 C1587 1.407 . S
C1586 C1591 1.418 . S
C1586 O1640 1.334 . S
C1587 C1586 1.407 . S
C1587 C1588 1.360 . S
C1587 H1648 0.929 . S
C1588 C1587 1.360 . S
C1588 C1589 1.401 . S
C1588 C1592 1.527 . S
C1589 C1588 1.401 . S
C1589 C1590 1.405 . S
C1589 C1622 1.587 . S
C1590 C1589 1.405 . S
C1590 C1591 1.332 . S
C1590 C1593 1.496 . S
C1591 C1586 1.418 . S
C1591 C1590 1.332 . S
C1591 H1649 0.929 . S
C1592 C1588 1.527 . S
C1592 H1650 0.959 . S
C1592 H1651 0.961 . S
C1592 H1652 0.961 . S
C1593 C1590 1.496 . S
C1593 H1653 0.960 . S
C1593 H1654 0.960 . S
C1593 H1655 0.961 . S
C1594 C1595 1.517 . S
C1594 H1657 0.961 . S
C1594 H1658 0.960 . S
C1594 H1659 0.959 . S
C1595 C1594 1.517 . S
C1595 O1643 1.468 . S
C1595 H1656 0.980 . S
C1596 C1597 1.349 . S
C1596 C1601 1.367 . S
C1596 O1643 1.408 . S
C1597 C1596 1.349 . S
C1597 C1598 1.407 . S
C1597 H1660 0.930 . S
C1598 C1597 1.407 . S
C1598 C1599 1.449 . S
C1598 C1602 1.535 . S
C1599 C1598 1.449 . S
C1599 C1600 1.384 . S
C1599 C1624 1.553 . S
C1600 C1599 1.384 . S
C1600 C1601 1.364 . S
C1600 C1603 1.450 . S
C1601 C1596 1.367 . S
C1601 C1600 1.364 . S
C1601 H1661 0.931 . S
C1602 C1598 1.535 . S
C1602 H1662 0.959 . S
C1602 H1663 0.961 . S
C1602 H1664 0.959 . S
C1603 C1600 1.450 . S
C1603 H1665 0.960 . S
C1603 H1666 0.960 . S
C1603 H1667 0.960 . S
C1604 C1605 1.309 . S
C1604 C1609 1.304 . S
C1604 O1642 1.435 . S
C1605 C1604 1.309 . S
C1605 C1606 1.476 . S
C1605 H1669 0.930 . S
C1606 C1605 1.476 . S
C1606 C1607 1.400 . S
C1606 C1610 1.567 . S
C1607 C1606 1.400 . S
C1607 C1608 1.373 . S
C1607 C1629 1.432 . S
C1608 C1607 1.373 . S
C1608 C1609 1.339 . S
C1608 C1611 1.530 . S
C1609 C1604 1.304 . S
C1609 C1608 1.339 . S
C1609 H1670 0.930 . S
C1610 C1606 1.567 . S
C1610 H1671 0.961 . S
C1610 H1672 0.960 . S
C1610 H1673 0.958 . S
C1611 C1608 1.530 . S
C1611 H1674 0.961 . S
C1611 H1675 0.960 . S
C1611 H1676 0.960 . S
C1612 C1613 1.530 . S
C1612 H1678 0.961 . S
C1612 H1679 0.961 . S
C1612 H1680 0.959 . S
C1613 C1612 1.530 . S
C1613 O1641 1.412 . S
C1613 H1677 0.980 . S
C1614 C1615 1.288 . S
C1614 C1619 1.377 . S
C1614 O1641 1.393 . S
C1615 C1614 1.288 . S
C1615 C1616 1.369 . S
C1615 H1681 0.932 . S
C1616 C1615 1.369 . S
C1616 C1617 1.398 . S
C1616 C1620 1.527 . S
C1617 C1616 1.398 . S
C1617 C1618 1.380 . S
C1617 C1631 1.497 . S
C1618 C1617 1.380 . S
C1618 C1619 1.383 . S
C1618 C1621 1.603 . S
C1619 C1614 1.377 . S
C1619 C1618 1.383 . S
C1619 H1682 0.929 . S
C1620 C1616 1.527 . S
C1620 H1683 0.961 . S
C1620 H1684 0.959 . S
C1620 H1685 0.959 . S
C1621 C1618 1.603 . S
C1621 H1686 0.960 . S
C1621 H1687 0.962 . S
C1621 H1688 0.961 . S
C1622 C1589 1.587 . S
C1622 C1623 1.360 . S
C1622 C1635 1.412 . S
C1623 C1622 1.360 . S
C1623 C1624 1.365 . S
C1623 H1689 0.929 . S
C1624 C1599 1.553 . S
C1624 C1623 1.365 . S
C1624 C1625 1.404 . S
C1625 C1624 1.404 . S
C1625 C1626 1.395 . S
C1625 C1636 1.451 . S
C1626 C1625 1.395 . S
C1626 C1627 1.322 . S
C1626 H1690 0.930 . S
C1627 C1626 1.322 . S
C1627 C1628 1.459 . S
C1627 H1691 0.929 . S
C1628 C1627 1.459 . S
C1628 C1629 1.445 . S
C1628 C1637 1.395 . S
C1629 C1607 1.432 . S
C1629 C1628 1.445 . S
C1629 C1630 1.370 . S
C1630 C1629 1.370 . S
C1630 C1631 1.438 . S
C1630 H1692 0.930 . S
C1631 C1617 1.497 . S
C1631 C1630 1.438 . S
C1631 C1632 1.360 . S
C1632 C1631 1.360 . S
C1632 C1633 1.401 . S
C1632 C1637 1.446 . S
C1633 C1632 1.401 . S
C1633 C1634 1.347 . S
C1633 H1693 0.929 . S
C1634 C1633 1.347 . S
C1634 C1635 1.455 . S
C1634 H1694 0.930 . S
C1635 C1622 1.412 . S
C1635 C1634 1.455 . S
C1635 C1636 1.331 . S
C1636 C1625 1.451 . S
C1636 C1635 1.331 . S
C1636 C1637 1.497 . S
C1637 C1628 1.395 . S
C1637 C1632 1.446 . S
C1637 C1636 1.497 . S
C1638 C1639 1.582 . S
C1638 H1695 0.962 . S
C1638 H1696 0.959 . S
C1638 H1697 0.958 . S
C1639 C1638 1.582 . S
C1639 O1642 1.458 . S
C1639 H1668 0.980 . S
O1640 C1585 1.426 . S
O1640 C1586 1.334 . S
O1641 C1613 1.412 . S
O1641 C1614 1.393 . S
O1642 C1604 1.435 . S
O1642 C1639 1.458 . S
O1643 C1595 1.468 . S
O1643 C1596 1.408 . S
H1644 C1585 0.980 . S
H1645 C1584 0.959 . S
H1646 C1584 0.959 . S
H1647 C1584 0.960 . S
H1648 C1587 0.929 . S
H1649 C1591 0.929 . S
H1650 C1592 0.959 . S
H1651 C1592 0.961 . S
H1652 C1592 0.961 . S
H1653 C1593 0.960 . S
H1654 C1593 0.960 . S
H1655 C1593 0.961 . S
H1656 C1595 0.980 . S
H1657 C1594 0.961 . S
H1658 C1594 0.960 . S
H1659 C1594 0.959 . S
H1660 C1597 0.930 . S
H1661 C1601 0.931 . S
H1662 C1602 0.959 . S
H1663 C1602 0.961 . S
H1664 C1602 0.959 . S
H1665 C1603 0.960 . S
H1666 C1603 0.960 . S
H1667 C1603 0.960 . S
H1668 C1639 0.980 . S
H1669 C1605 0.930 . S
H1670 C1609 0.930 . S
H1671 C1610 0.961 . S
H1672 C1610 0.960 . S
H1673 C1610 0.958 . S
H1674 C1611 0.961 . S
H1675 C1611 0.960 . S
H1676 C1611 0.960 . S
H1677 C1613 0.980 . S
H1678 C1612 0.961 . S
H1679 C1612 0.961 . S
H1680 C1612 0.959 . S
H1681 C1615 0.932 . S
H1682 C1619 0.929 . S
H1683 C1620 0.961 . S
H1684 C1620 0.959 . S
H1685 C1620 0.959 . S
H1686 C1621 0.960 . S
H1687 C1621 0.962 . S
H1688 C1621 0.961 . S
H1689 C1623 0.929 . S
H1690 C1626 0.930 . S
H1691 C1627 0.929 . S
H1692 C1630 0.930 . S
H1693 C1633 0.929 . S
H1694 C1634 0.930 . S
H1695 C1638 0.962 . S
H1696 C1638 0.959 . S
H1697 C1638 0.958 . S
C1698 C1699 1.560 . S
C1698 H1759 0.959 . S
C1698 H1760 0.959 . S
C1698 H1761 0.960 . S
C1699 C1698 1.560 . S
C1699 O1754 1.426 . S
C1699 H1758 0.980 . S
C1700 C1701 1.407 . S
C1700 C1705 1.418 . S
C1700 O1754 1.334 . S
C1701 C1700 1.407 . S
C1701 C1702 1.360 . S
C1701 H1762 0.929 . S
C1702 C1701 1.360 . S
C1702 C1703 1.401 . S
C1702 C1706 1.527 . S
C1703 C1702 1.401 . S
C1703 C1704 1.405 . S
C1703 C1736 1.587 . S
C1704 C1703 1.405 . S
C1704 C1705 1.332 . S
C1704 C1707 1.496 . S
C1705 C1700 1.418 . S
C1705 C1704 1.332 . S
C1705 H1763 0.929 . S
C1706 C1702 1.527 . S
C1706 H1764 0.959 . S
C1706 H1765 0.961 . S
C1706 H1766 0.961 . S
C1707 C1704 1.496 . S
C1707 H1767 0.960 . S
C1707 H1768 0.960 . S
C1707 H1769 0.961 . S
C1708 C1709 1.517 . S
C1708 H1771 0.961 . S
C1708 H1772 0.960 . S
C1708 H1773 0.959 . S
C1709 C1708 1.517 . S
C1709 O1757 1.468 . S
C1709 H1770 0.980 . S
C1710 C1711 1.349 . S
C1710 C1715 1.367 . S
C1710 O1757 1.408 . S
C1711 C1710 1.349 . S
C1711 C1712 1.407 . S
C1711 H1774 0.930 . S
C1712 C1711 1.407 . S
C1712 C1713 1.449 . S
C1712 C1716 1.535 . S
C1713 C1712 1.449 . S
C1713 C1714 1.384 . S
C1713 C1738 1.553 . S
C1714 C1713 1.384 . S
C1714 C1715 1.364 . S
C1714 C1717 1.450 . S
C1715 C1710 1.367 . S
C1715 C1714 1.364 . S
C1715 H1775 0.931 . S
C1716 C1712 1.535 . S
C1716 H1776 0.959 . S
C1716 H1777 0.961 . S
C1716 H1778 0.959 . S
C1717 C1714 1.450 . S
C1717 H1779 0.960 . S
C1717 H1780 0.960 . S
C1717 H1781 0.960 . S
C1718 C1719 1.309 . S
C1718 C1723 1.304 . S
C1718 O1756 1.435 . S
C1719 C1718 1.309 . S
C1719 C1720 1.476 . S
C1719 H1783 0.930 . S
C1720 C1719 1.476 . S
C1720 C1721 1.400 . S
C1720 C1724 1.567 . S
C1721 C1720 1.400 . S
C1721 C1722 1.373 . S
C1721 C1743 1.432 . S
C1722 C1721 1.373 . S
C1722 C1723 1.339 . S
C1722 C1725 1.530 . S
C1723 C1718 1.304 . S
C1723 C1722 1.339 . S
C1723 H1784 0.930 . S
C1724 C1720 1.567 . S
C1724 H1785 0.961 . S
C1724 H1786 0.960 . S
C1724 H1787 0.958 . S
C1725 C1722 1.530 . S
C1725 H1788 0.961 . S
C1725 H1789 0.960 . S
C1725 H1790 0.960 . S
C1726 C1727 1.530 . S
C1726 H1792 0.961 . S
C1726 H1793 0.961 . S
C1726 H1794 0.959 . S
C1727 C1726 1.530 . S
C1727 O1755 1.412 . S
C1727 H1791 0.980 . S
C1728 C1729 1.288 . S
C1728 C1733 1.377 . S
C1728 O1755 1.393 . S
C1729 C1728 1.288 . S
C1729 C1730 1.369 . S
C1729 H1795 0.932 . S
C1730 C1729 1.369 . S
C1730 C1731 1.398 . S
C1730 C1734 1.527 . S
C1731 C1730 1.398 . S
C1731 C1732 1.380 . S
C1731 C1745 1.497 . S
C1732 C1731 1.380 . S
C1732 C1733 1.383 . S
C1732 C1735 1.603 . S
C1733 C1728 1.377 . S
C1733 C1732 1.383 . S
C1733 H1796 0.929 . S
C1734 C1730 1.527 . S
C1734 H1797 0.961 . S
C1734 H1798 0.959 . S
C1734 H1799 0.959 . S
C1735 C1732 1.603 . S
C1735 H1800 0.960 . S
C1735 H1801 0.962 . S
C1735 H1802 0.961 . S
C1736 C1703 1.587 . S
C1736 C1737 1.360 . S
C1736 C1749 1.412 . S
C1737 C1736 1.360 . S
C1737 C1738 1.365 . S
C1737 H1803 0.929 . S
C1738 C1713 1.553 . S
C1738 C1737 1.365 . S
C1738 C1739 1.404 . S
C1739 C1738 1.404 . S
C1739 C1740 1.395 . S
C1739 C1750 1.451 . S
C1740 C1739 1.395 . S
C1740 C1741 1.322 . S
C1740 H1804 0.930 . S
C1741 C1740 1.322 . S
C1741 C1742 1.459 . S
C1741 H1805 0.929 . S
C1742 C1741 1.459 . S
C1742 C1743 1.445 . S
C1742 C1751 1.395 . S
C1743 C1721 1.432 . S
C1743 C1742 1.445 . S
C1743 C1744 1.370 . S
C1744 C1743 1.370 . S
C1744 C1745 1.438 . S
C1744 H1806 0.930 . S
C1745 C1731 1.497 . S
C1745 C1744 1.438 . S
C1745 C1746 1.360 . S
C1746 C1745 1.360 . S
C1746 C1747 1.401 . S
C1746 C1751 1.446 . S
C1747 C1746 1.401 . S
C1747 C1748 1.347 . S
C1747 H1807 0.929 . S
C1748 C1747 1.347 . S
C1748 C1749 1.455 . S
C1748 H1808 0.930 . S
C1749 C1736 1.412 . S
C1749 C1748 1.455 . S
C1749 C1750 1.331 . S
C1750 C1739 1.451 . S
C1750 C1749 1.331 . S
C1750 C1751 1.497 . S
C1751 C1742 1.395 . S
C1751 C1746 1.446 . S
C1751 C1750 1.497 . S
C1752 C1753 1.582 . S
C1752 H1809 0.962 . S
C1752 H1810 0.959 . S
C1752 H1811 0.958 . S
C1753 C1752 1.582 . S
C1753 O1756 1.458 . S
C1753 H1782 0.980 . S
O1754 C1699 1.426 . S
O1754 C1700 1.334 . S
O1755 C1727 1.412 . S
O1755 C1728 1.393 . S
O1756 C1718 1.435 . S
O1756 C1753 1.458 . S
O1757 C1709 1.468 . S
O1757 C1710 1.408 . S
H1758 C1699 0.980 . S
H1759 C1698 0.959 . S
H1760 C1698 0.959 . S
H1761 C1698 0.960 . S
H1762 C1701 0.929 . S
H1763 C1705 0.929 . S
H1764 C1706 0.959 . S
H1765 C1706 0.961 . S
H1766 C1706 0.961 . S
H1767 C1707 0.960 . S
H1768 C1707 0.960 . S
H1769 C1707 0.961 . S
H1770 C1709 0.980 . S
H1771 C1708 0.961 . S
H1772 C1708 0.960 . S
H1773 C1708 0.959 . S
H1774 C1711 0.930 . S
H1775 C1715 0.931 . S
H1776 C1716 0.959 . S
H1777 C1716 0.961 . S
H1778 C1716 0.959 . S
H1779 C1717 0.960 . S
H1780 C1717 0.960 . S
H1781 C1717 0.960 . S
H1782 C1753 0.980 . S
H1783 C1719 0.930 . S
H1784 C1723 0.930 . S
H1785 C1724 0.961 . S
H1786 C1724 0.960 . S
H1787 C1724 0.958 . S
H1788 C1725 0.961 . S
H1789 C1725 0.960 . S
H1790 C1725 0.960 . S
H1791 C1727 0.980 . S
H1792 C1726 0.961 . S
H1793 C1726 0.961 . S
H1794 C1726 0.959 . S
H1795 C1729 0.932 . S
H1796 C1733 0.929 . S
H1797 C1734 0.961 . S
H1798 C1734 0.959 . S
H1799 C1734 0.959 . S
H1800 C1735 0.960 . S
H1801 C1735 0.962 . S
H1802 C1735 0.961 . S
H1803 C1737 0.929 . S
H1804 C1740 0.930 . S
H1805 C1741 0.929 . S
H1806 C1744 0.930 . S
H1807 C1747 0.929 . S
H1808 C1748 0.930 . S
H1809 C1752 0.962 . S
H1810 C1752 0.959 . S
H1811 C1752 0.958 . S
C1812 C1813 1.560 . S
C1812 H1873 0.959 . S
C1812 H1874 0.959 . S
C1812 H1875 0.960 . S
C1813 C1812 1.560 . S
C1813 O1868 1.426 . S
C1813 H1872 0.980 . S
C1814 C1815 1.407 . S
C1814 C1819 1.418 . S
C1814 O1868 1.334 . S
C1815 C1814 1.407 . S
C1815 C1816 1.360 . S
C1815 H1876 0.929 . S
C1816 C1815 1.360 . S
C1816 C1817 1.401 . S
C1816 C1820 1.527 . S
C1817 C1816 1.401 . S
C1817 C1818 1.405 . S
C1817 C1850 1.587 . S
C1818 C1817 1.405 . S
C1818 C1819 1.332 . S
C1818 C1821 1.496 . S
C1819 C1814 1.418 . S
C1819 C1818 1.332 . S
C1819 H1877 0.929 . S
C1820 C1816 1.527 . S
C1820 H1878 0.959 . S
C1820 H1879 0.961 . S
C1820 H1880 0.961 . S
C1821 C1818 1.496 . S
C1821 H1881 0.960 . S
C1821 H1882 0.960 . S
C1821 H1883 0.961 . S
C1822 C1823 1.517 . S
C1822 H1885 0.961 . S
C1822 H1886 0.960 . S
C1822 H1887 0.959 . S
C1823 C1822 1.517 . S
C1823 O1871 1.468 . S
C1823 H1884 0.980 . S
C1824 C1825 1.349 . S
C1824 C1829 1.367 . S
C1824 O1871 1.408 . S
C1825 C1824 1.349 . S
C1825 C1826 1.407 . S
C1825 H1888 0.930 . S
C1826 C1825 1.407 . S
C1826 C1827 1.449 . S
C1826 C1830 1.535 . S
C1827 C1826 1.449 . S
C1827 C1828 1.384 . S
C1827 C1852 1.553 . S
C1828 C1827 1.384 . S
C1828 C1829 1.364 . S
C1828 C1831 1.450 . S
C1829 C1824 1.367 . S
C1829 C1828 1.364 . S
C1829 H1889 0.931 . S
C1830 C1826 1.535 . S
C1830 H1890 0.959 . S
C1830 H1891 0.961 . S
C1830 H1892 0.959 . S
C1831 C1828 1.450 . S
C1831 H1893 0.960 . S
C1831 H1894 0.960 . S
C1831 H1895 0.960 . S
C1832 C1833 1.309 . S
C1832 C1837 1.304 . S
C1832 O1870 1.435 . S
C1833 C1832 1.309 . S
C1833 C1834 1.476 . S
C1833 H1897 0.930 . S
C1834 C1833 1.476 . S
C1834 C1835 1.400 . S
C1834 C1838 1.567 . S
C1835 C1834 1.400 . S
C1835 C1836 1.373 . S
C1835 C1857 1.432 . S
C1836 C1835 1.373 . S
C1836 C1837 1.339 . S
C1836 C1839 1.530 . S
C1837 C1832 1.304 . S
C1837 C1836 1.339 . S
C1837 H1898 0.930 . S
C1838 C1834 1.567 . S
C1838 H1899 0.961 . S
C1838 H1900 0.960 . S
C1838 H1901 0.958 . S
C1839 C1836 1.530 . S
C1839 H1902 0.961 . S
C1839 H1903 0.960 . S
C1839 H1904 0.960 . S
C1840 C1841 1.530 . S
C1840 H1906 0.961 . S
C1840 H1907 0.961 . S
C1840 H1908 0.959 . S
C1841 C1840 1.530 . S
C1841 O1869 1.412 . S
C1841 H1905 0.980 . S
C1842 C1843 1.288 . S
C1842 C1847 1.377 . S
C1842 O1869 1.393 . S
C1843 C1842 1.288 . S
C1843 C1844 1.369 . S
C1843 H1909 0.932 . S
C1844 C1843 1.369 . S
C1844 C1845 1.398 . S
C1844 C1848 1.527 . S
C1845 C1844 1.398 . S
C1845 C1846 1.380 . S
C1845 C1859 1.497 . S
C1846 C1845 1.380 . S
C1846 C1847 1.383 . S
C1846 C1849 1.603 . S
C1847 C1842 1.377 . S
C1847 C1846 1.383 . S
C1847 H1910 0.929 . S
C1848 C1844 1.527 . S
C1848 H1911 0.961 . S
C1848 H1912 0.959 . S
C1848 H1913 0.959 . S
C1849 C1846 1.603 . S
C1849 H1914 0.960 . S
C1849 H1915 0.962 . S
C1849 H1916 0.961 . S
C1850 C1817 1.587 . S
C1850 C1851 1.360 . S
C1850 C1863 1.412 . S
C1851 C1850 1.360 . S
C1851 C1852 1.365 . S
C1851 H1917 0.929 . S
C1852 C1827 1.553 . S
C1852 C1851 1.365 . S
C1852 C1853 1.404 . S
C1853 C1852 1.404 . S
C1853 C1854 1.395 . S
C1853 C1864 1.451 . S
C1854 C1853 1.395 . S
C1854 C1855 1.322 . S
C1854 H1918 0.930 . S
C1855 C1854 1.322 . S
C1855 C1856 1.459 . S
C1855 H1919 0.929 . S
C1856 C1855 1.459 . S
C1856 C1857 1.445 . S
C1856 C1865 1.395 . S
C1857 C1835 1.432 . S
C1857 C1856 1.445 . S
C1857 C1858 1.370 . S
C1858 C1857 1.370 . S
C1858 C1859 1.438 . S
C1858 H1920 0.930 . S
C1859 C1845 1.497 . S
C1859 C1858 1.438 . S
C1859 C1860 1.360 . S
C1860 C1859 1.360 . S
C1860 C1861 1.401 . S
C1860 C1865 1.446 . S
C1861 C1860 1.401 . S
C1861 C1862 1.347 . S
C1861 H1921 0.929 . S
C1862 C1861 1.347 . S
C1862 C1863 1.455 . S
C1862 H1922 0.930 . S
C1863 C1850 1.412 . S
C1863 C1862 1.455 . S
C1863 C1864 1.331 . S
C1864 C1853 1.451 . S
C1864 C1863 1.331 . S
C1864 C1865 1.497 . S
C1865 C1856 1.395 . S
C1865 C1860 1.446 . S
C1865 C1864 1.497 . S
C1866 C1867 1.582 . S
C1866 H1923 0.962 . S
C1866 H1924 0.959 . S
C1866 H1925 0.958 . S
C1867 C1866 1.582 . S
C1867 O1870 1.458 . S
C1867 H1896 0.980 . S
O1868 C1813 1.426 . S
O1868 C1814 1.334 . S
O1869 C1841 1.412 . S
O1869 C1842 1.393 . S
O1870 C1832 1.435 . S
O1870 C1867 1.458 . S
O1871 C1823 1.468 . S
O1871 C1824 1.408 . S
H1872 C1813 0.980 . S
H1873 C1812 0.959 . S
H1874 C1812 0.959 . S
H1875 C1812 0.960 . S
H1876 C1815 0.929 . S
H1877 C1819 0.929 . S
H1878 C1820 0.959 . S
H1879 C1820 0.961 . S
H1880 C1820 0.961 . S
H1881 C1821 0.960 . S
H1882 C1821 0.960 . S
H1883 C1821 0.961 . S
H1884 C1823 0.980 . S
H1885 C1822 0.961 . S
H1886 C1822 0.960 . S
H1887 C1822 0.959 . S
H1888 C1825 0.930 . S
H1889 C1829 0.931 . S
H1890 C1830 0.959 . S
H1891 C1830 0.961 . S
H1892 C1830 0.959 . S
H1893 C1831 0.960 . S
H1894 C1831 0.960 . S
H1895 C1831 0.960 . S
H1896 C1867 0.980 . S
H1897 C1833 0.930 . S
H1898 C1837 0.930 . S
H1899 C1838 0.961 . S
H1900 C1838 0.960 . S
H1901 C1838 0.958 . S
H1902 C1839 0.961 . S
H1903 C1839 0.960 . S
H1904 C1839 0.960 . S
H1905 C1841 0.980 . S
H1906 C1840 0.961 . S
H1907 C1840 0.961 . S
H1908 C1840 0.959 . S
H1909 C1843 0.932 . S
H1910 C1847 0.929 . S
H1911 C1848 0.961 . S
H1912 C1848 0.959 . S
H1913 C1848 0.959 . S
H1914 C1849 0.960 . S
H1915 C1849 0.962 . S
H1916 C1849 0.961 . S
H1917 C1851 0.929 . S
H1918 C1854 0.930 . S
H1919 C1855 0.929 . S
H1920 C1858 0.930 . S
H1921 C1861 0.929 . S
H1922 C1862 0.930 . S
H1923 C1866 0.962 . S
H1924 C1866 0.959 . S
H1925 C1866 0.958 . S
C1926 C1927 1.560 . S
C1926 H1987 0.959 . S
C1926 H1988 0.959 . S
C1926 H1989 0.960 . S
C1927 C1926 1.560 . S
C1927 O1982 1.426 . S
C1927 H1986 0.980 . S
C1928 C1929 1.407 . S
C1928 C1933 1.418 . S
C1928 O1982 1.334 . S
C1929 C1928 1.407 . S
C1929 C1930 1.360 . S
C1929 H1990 0.929 . S
C1930 C1929 1.360 . S
C1930 C1931 1.401 . S
C1930 C1934 1.527 . S
C1931 C1930 1.401 . S
C1931 C1932 1.405 . S
C1931 C1964 1.587 . S
C1932 C1931 1.405 . S
C1932 C1933 1.332 . S
C1932 C1935 1.496 . S
C1933 C1928 1.418 . S
C1933 C1932 1.332 . S
C1933 H1991 0.929 . S
C1934 C1930 1.527 . S
C1934 H1992 0.959 . S
C1934 H1993 0.961 . S
C1934 H1994 0.961 . S
C1935 C1932 1.496 . S
C1935 H1995 0.960 . S
C1935 H1996 0.960 . S
C1935 H1997 0.961 . S
C1936 C1937 1.517 . S
C1936 H1999 0.961 . S
C1936 H2000 0.960 . S
C1936 H2001 0.959 . S
C1937 C1936 1.517 . S
C1937 O1985 1.468 . S
C1937 H1998 0.980 . S
C1938 C1939 1.349 . S
C1938 C1943 1.367 . S
C1938 O1985 1.408 . S
C1939 C1938 1.349 . S
C1939 C1940 1.407 . S
C1939 H2002 0.930 . S
C1940 C1939 1.407 . S
C1940 C1941 1.449 . S
C1940 C1944 1.535 . S
C1941 C1940 1.449 . S
C1941 C1942 1.384 . S
C1941 C1966 1.553 . S
C1942 C1941 1.384 . S
C1942 C1943 1.364 . S
C1942 C1945 1.450 . S
C1943 C1938 1.367 . S
C1943 C1942 1.364 . S
C1943 H2003 0.931 . S
C1944 C1940 1.535 . S
C1944 H2004 0.959 . S
C1944 H2005 0.961 . S
C1944 H2006 0.959 . S
C1945 C1942 1.450 . S
C1945 H2007 0.960 . S
C1945 H2008 0.960 . S
C1945 H2009 0.960 . S
C1946 C1947 1.309 . S
C1946 C1951 1.304 . S
C1946 O1984 1.435 . S
C1947 C1946 1.309 . S
C1947 C1948 1.476 . S
C1947 H2011 0.930 . S
C1948 C1947 1.476 . S
C1948 C1949 1.400 . S
C1948 C1952 1.567 . S
C1949 C1948 1.400 . S
C1949 C1950 1.373 . S
C1949 C1971 1.432 . S
C1950 C1949 1.373 . S
C1950 C1951 1.339 . S
C1950 C1953 1.530 . S
C1951 C1946 1.304 . S
C1951 C1950 1.339 . S
C1951 H2012 0.930 . S
C1952 C1948 1.567 . S
C1952 H2013 0.961 . S
C1952 H2014 0.960 . S
C1952 H2015 0.958 . S
C1953 C1950 1.530 . S
C1953 H2016 0.961 . S
C1953 H2017 0.960 . S
C1953 H2018 0.960 . S
C1954 C1955 1.530 . S
C1954 H2020 0.961 . S
C1954 H2021 0.961 . S
C1954 H2022 0.959 . S
C1955 C1954 1.530 . S
C1955 O1983 1.412 . S
C1955 H2019 0.980 . S
C1956 C1957 1.288 . S
C1956 C1961 1.377 . S
C1956 O1983 1.393 . S
C1957 C1956 1.288 . S
C1957 C1958 1.369 . S
C1957 H2023 0.932 . S
C1958 C1957 1.369 . S
C1958 C1959 1.398 . S
C1958 C1962 1.527 . S
C1959 C1958 1.398 . S
C1959 C1960 1.380 . S
C1959 C1973 1.497 . S
C1960 C1959 1.380 . S
C1960 C1961 1.383 . S
C1960 C1963 1.603 . S
C1961 C1956 1.377 . S
C1961 C1960 1.383 . S
C1961 H2024 0.929 . S
C1962 C1958 1.527 . S
C1962 H2025 0.961 . S
C1962 H2026 0.959 . S
C1962 H2027 0.959 . S
C1963 C1960 1.603 . S
C1963 H2028 0.960 . S
C1963 H2029 0.962 . S
C1963 H2030 0.961 . S
C1964 C1931 1.587 . S
C1964 C1965 1.360 . S
C1964 C1977 1.412 . S
C1965 C1964 1.360 . S
C1965 C1966 1.365 . S
C1965 H2031 0.929 . S
C1966 C1941 1.553 . S
C1966 C1965 1.365 . S
C1966 C1967 1.404 . S
C1967 C1966 1.404 . S
C1967 C1968 1.395 . S
C1967 C1978 1.451 . S
C1968 C1967 1.395 . S
C1968 C1969 1.322 . S
C1968 H2032 0.930 . S
C1969 C1968 1.322 . S
C1969 C1970 1.459 . S
C1969 H2033 0.929 . S
C1970 C1969 1.459 . S
C1970 C1971 1.445 . S
C1970 C1979 1.395 . S
C1971 C1949 1.432 . S
C1971 C1970 1.445 . S
C1971 C1972 1.370 . S
C1972 C1971 1.370 . S
C1972 C1973 1.438 . S
C1972 H2034 0.930 . S
C1973 C1959 1.497 . S
C1973 C1972 1.438 . S
C1973 C1974 1.360 . S
C1974 C1973 1.360 . S
C1974 C1975 1.401 . S
C1974 C1979 1.446 . S
C1975 C1974 1.401 . S
C1975 C1976 1.347 . S
C1975 H2035 0.929 . S
C1976 C1975 1.347 . S
C1976 C1977 1.455 . S
C1976 H2036 0.930 . S
C1977 C1964 1.412 . S
C1977 C1976 1.455 . S
C1977 C1978 1.331 . S
C1978 C1967 1.451 . S
C1978 C1977 1.331 . S
C1978 C1979 1.497 . S
C1979 C1970 1.395 . S
C1979 C1974 1.446 . S
C1979 C1978 1.497 . S
C1980 C1981 1.582 . S
C1980 H2037 0.962 . S
C1980 H2038 0.959 . S
C1980 H2039 0.958 . S
C1981 C1980 1.582 . S
C1981 O1984 1.458 . S
C1981 H2010 0.980 . S
O1982 C1927 1.426 . S
O1982 C1928 1.334 . S
O1983 C1955 1.412 . S
O1983 C1956 1.393 . S
O1984 C1946 1.435 . S
O1984 C1981 1.458 . S
O1985 C1937 1.468 . S
O1985 C1938 1.408 . S
H1986 C1927 0.980 . S
H1987 C1926 0.959 . S
H1988 C1926 0.959 . S
H1989 C1926 0.960 . S
H1990 C1929 0.929 . S
H1991 C1933 0.929 . S
H1992 C1934 0.959 . S
H1993 C1934 0.961 . S
H1994 C1934 0.961 . S
H1995 C1935 0.960 . S
H1996 C1935 0.960 . S
H1997 C1935 0.961 . S
H1998 C1937 0.980 . S
H1999 C1936 0.961 . S
H2000 C1936 0.960 . S
H2001 C1936 0.959 . S
H2002 C1939 0.930 . S
H2003 C1943 0.931 . S
H2004 C1944 0.959 . S
H2005 C1944 0.961 . S
H2006 C1944 0.959 . S
H2007 C1945 0.960 . S
H2008 C1945 0.960 . S
H2009 C1945 0.960 . S
H2010 C1981 0.980 . S
H2011 C1947 0.930 . S
H2012 C1951 0.930 . S
H2013 C1952 0.961 . S
H2014 C1952 0.960 . S
H2015 C1952 0.958 . S
H2016 C1953 0.961 . S
H2017 C1953 0.960 . S
H2018 C1953 0.960 . S
H2019 C1955 0.980 . S
H2020 C1954 0.961 . S
H2021 C1954 0.961 . S
H2022 C1954 0.959 . S
H2023 C1957 0.932 . S
H2024 C1961 0.929 . S
H2025 C1962 0.961 . S
H2026 C1962 0.959 . S
H2027 C1962 0.959 . S
H2028 C1963 0.960 . S
H2029 C1963 0.962 . S
H2030 C1963 0.961 . S
H2031 C1965 0.929 . S
H2032 C1968 0.930 . S
H2033 C1969 0.929 . S
H2034 C1972 0.930 . S
H2035 C1975 0.929 . S
H2036 C1976 0.930 . S
H2037 C1980 0.962 . S
H2038 C1980 0.959 . S
H2039 C1980 0.958 . S
C2040 C2041 1.560 . S
C2040 H2101 0.959 . S
C2040 H2102 0.959 . S
C2040 H2103 0.960 . S
C2041 C2040 1.560 . S
C2041 O2096 1.426 . S
C2041 H2100 0.980 . S
C2042 C2043 1.407 . S
C2042 C2047 1.418 . S
C2042 O2096 1.334 . S
C2043 C2042 1.407 . S
C2043 C2044 1.360 . S
C2043 H2104 0.929 . S
C2044 C2043 1.360 . S
C2044 C2045 1.401 . S
C2044 C2048 1.527 . S
C2045 C2044 1.401 . S
C2045 C2046 1.405 . S
C2045 C2078 1.587 . S
C2046 C2045 1.405 . S
C2046 C2047 1.332 . S
C2046 C2049 1.496 . S
C2047 C2042 1.418 . S
C2047 C2046 1.332 . S
C2047 H2105 0.929 . S
C2048 C2044 1.527 . S
C2048 H2106 0.959 . S
C2048 H2107 0.961 . S
C2048 H2108 0.961 . S
C2049 C2046 1.496 . S
C2049 H2109 0.960 . S
C2049 H2110 0.960 . S
C2049 H2111 0.961 . S
C2050 C2051 1.517 . S
C2050 H2113 0.961 . S
C2050 H2114 0.960 . S
C2050 H2115 0.959 . S
C2051 C2050 1.517 . S
C2051 O2099 1.468 . S
C2051 H2112 0.980 . S
C2052 C2053 1.349 . S
C2052 C2057 1.367 . S
C2052 O2099 1.408 . S
C2053 C2052 1.349 . S
C2053 C2054 1.407 . S
C2053 H2116 0.930 . S
C2054 C2053 1.407 . S
C2054 C2055 1.449 . S
C2054 C2058 1.535 . S
C2055 C2054 1.449 . S
C2055 C2056 1.384 . S
C2055 C2080 1.553 . S
C2056 C2055 1.384 . S
C2056 C2057 1.364 . S
C2056 C2059 1.450 . S
C2057 C2052 1.367 . S
C2057 C2056 1.364 . S
C2057 H2117 0.931 . S
C2058 C2054 1.535 . S
C2058 H2118 0.959 . S
C2058 H2119 0.961 . S
C2058 H2120 0.959 . S
C2059 C2056 1.450 . S
C2059 H2121 0.960 . S
C2059 H2122 0.960 . S
C2059 H2123 0.960 . S
C2060 C2061 1.309 . S
C2060 C2065 1.304 . S
C2060 O2098 1.435 . S
C2061 C2060 1.309 . S
C2061 C2062 1.476 . S
C2061 H2125 0.930 . S
C2062 C2061 1.476 . S
C2062 C2063 1.400 . S
C2062 C2066 1.567 . S
C2063 C2062 1.400 . S
C2063 C2064 1.373 . S
C2063 C2085 1.432 . S
C2064 C2063 1.373 . S
C2064 C2065 1.339 . S
C2064 C2067 1.530 . S
C2065 C2060 1.304 . S
C2065 C2064 1.339 . S
C2065 H2126 0.930 . S
C2066 C2062 1.567 . S
C2066 H2127 0.961 . S
C2066 H2128 0.960 . S
C2066 H2129 0.958 . S
C2067 C2064 1.530 . S
C2067 H2130 0.961 . S
C2067 H2131 0.960 . S
C2067 H2132 0.960 . S
C2068 C2069 1.530 . S
C2068 H2134 0.961 . S
C2068 H2135 0.961 . S
C2068 H2136 0.959 . S
C2069 C2068 1.530 . S
C2069 O2097 1.412 . S
C2069 H2133 0.980 . S
C2070 C2071 1.288 . S
C2070 C2075 1.377 . S
C2070 O2097 1.393 . S
C2071 C2070 1.288 . S
C2071 C2072 1.369 . S
C2071 H2137 0.932 . S
C2072 C2071 1.369 . S
C2072 C2073 1.398 . S
C2072 C2076 1.527 . S
C2073 C2072 1.398 . S
C2073 C2074 1.380 . S
C2073 C2087 1.497 . S
C2074 C2073 1.380 . S
C2074 C2075 1.383 . S
C2074 C2077 1.603 . S
C2075 C2070 1.377 . S
C2075 C2074 1.383 . S
C2075 H2138 0.929 . S
C2076 C2072 1.527 . S
C2076 H2139 0.961 . S
C2076 H2140 0.959 . S
C2076 H2141 0.959 . S
C2077 C2074 1.603 . S
C2077 H2142 0.960 . S
C2077 H2143 0.962 . S
C2077 H2144 0.961 . S
C2078 C2045 1.587 . S
C2078 C2079 1.360 . S
C2078 C2091 1.412 . S
C2079 C2078 1.360 . S
C2079 C2080 1.365 . S
C2079 H2145 0.929 . S
C2080 C2055 1.553 . S
C2080 C2079 1.365 . S
C2080 C2081 1.404 . S
C2081 C2080 1.404 . S
C2081 C2082 1.395 . S
C2081 C2092 1.451 . S
C2082 C2081 1.395 . S
C2082 C2083 1.322 . S
C2082 H2146 0.930 . S
C2083 C2082 1.322 . S
C2083 C2084 1.459 . S
C2083 H2147 0.929 . S
C2084 C2083 1.459 . S
C2084 C2085 1.445 . S
C2084 C2093 1.395 . S
C2085 C2063 1.432 . S
C2085 C2084 1.445 . S
C2085 C2086 1.370 . S
C2086 C2085 1.370 . S
C2086 C2087 1.438 . S
C2086 H2148 0.930 . S
C2087 C2073 1.497 . S
C2087 C2086 1.438 . S
C2087 C2088 1.360 . S
C2088 C2087 1.360 . S
C2088 C2089 1.401 . S
C2088 C2093 1.446 . S
C2089 C2088 1.401 . S
C2089 C2090 1.347 . S
C2089 H2149 0.929 . S
C2090 C2089 1.347 . S
C2090 C2091 1.455 . S
C2090 H2150 0.930 . S
C2091 C2078 1.412 . S
C2091 C2090 1.455 . S
C2091 C2092 1.331 . S
C2092 C2081 1.451 . S
C2092 C2091 1.331 . S
C2092 C2093 1.497 . S
C2093 C2084 1.395 . S
C2093 C2088 1.446 . S
C2093 C2092 1.497 . S
C2094 C2095 1.582 . S
C2094 H2151 0.962 . S
C2094 H2152 0.959 . S
C2094 H2153 0.958 . S
C2095 C2094 1.582 . S
C2095 O2098 1.458 . S
C2095 H2124 0.980 . S
O2096 C2041 1.426 . S
O2096 C2042 1.334 . S
O2097 C2069 1.412 . S
O2097 C2070 1.393 . S
O2098 C2060 1.435 . S
O2098 C2095 1.458 . S
O2099 C2051 1.468 . S
O2099 C2052 1.408 . S
H2100 C2041 0.980 . S
H2101 C2040 0.959 . S
H2102 C2040 0.959 . S
H2103 C2040 0.960 . S
H2104 C2043 0.929 . S
H2105 C2047 0.929 . S
H2106 C2048 0.959 . S
H2107 C2048 0.961 . S
H2108 C2048 0.961 . S
H2109 C2049 0.960 . S
H2110 C2049 0.960 . S
H2111 C2049 0.961 . S
H2112 C2051 0.980 . S
H2113 C2050 0.961 . S
H2114 C2050 0.960 . S
H2115 C2050 0.959 . S
H2116 C2053 0.930 . S
H2117 C2057 0.931 . S
H2118 C2058 0.959 . S
H2119 C2058 0.961 . S
H2120 C2058 0.959 . S
H2121 C2059 0.960 . S
H2122 C2059 0.960 . S
H2123 C2059 0.960 . S
H2124 C2095 0.980 . S
H2125 C2061 0.930 . S
H2126 C2065 0.930 . S
H2127 C2066 0.961 . S
H2128 C2066 0.960 . S
H2129 C2066 0.958 . S
H2130 C2067 0.961 . S
H2131 C2067 0.960 . S
H2132 C2067 0.960 . S
H2133 C2069 0.980 . S
H2134 C2068 0.961 . S
H2135 C2068 0.961 . S
H2136 C2068 0.959 . S
H2137 C2071 0.932 . S
H2138 C2075 0.929 . S
H2139 C2076 0.961 . S
H2140 C2076 0.959 . S
H2141 C2076 0.959 . S
H2142 C2077 0.960 . S
H2143 C2077 0.962 . S
H2144 C2077 0.961 . S
H2145 C2079 0.929 . S
H2146 C2082 0.930 . S
H2147 C2083 0.929 . S
H2148 C2086 0.930 . S
H2149 C2089 0.929 . S
H2150 C2090 0.930 . S
H2151 C2094 0.962 . S
H2152 C2094 0.959 . S
H2153 C2094 0.958 . S
C2154 C2155 1.560 . S
C2154 H2215 0.959 . S
C2154 H2216 0.959 . S
C2154 H2217 0.960 . S
C2155 C2154 1.560 . S
C2155 O2210 1.426 . S
C2155 H2214 0.980 . S
C2156 C2157 1.407 . S
C2156 C2161 1.418 . S
C2156 O2210 1.334 . S
C2157 C2156 1.407 . S
C2157 C2158 1.360 . S
C2157 H2218 0.929 . S
C2158 C2157 1.360 . S
C2158 C2159 1.401 . S
C2158 C2162 1.527 . S
C2159 C2158 1.401 . S
C2159 C2160 1.405 . S
C2159 C2192 1.587 . S
C2160 C2159 1.405 . S
C2160 C2161 1.332 . S
C2160 C2163 1.496 . S
C2161 C2156 1.418 . S
C2161 C2160 1.332 . S
C2161 H2219 0.929 . S
C2162 C2158 1.527 . S
C2162 H2220 0.959 . S
C2162 H2221 0.961 . S
C2162 H2222 0.961 . S
C2163 C2160 1.496 . S
C2163 H2223 0.960 . S
C2163 H2224 0.960 . S
C2163 H2225 0.961 . S
C2164 C2165 1.517 . S
C2164 H2227 0.961 . S
C2164 H2228 0.960 . S
C2164 H2229 0.959 . S
C2165 C2164 1.517 . S
C2165 O2213 1.468 . S
C2165 H2226 0.980 . S
C2166 C2167 1.349 . S
C2166 C2171 1.367 . S
C2166 O2213 1.408 . S
C2167 C2166 1.349 . S
C2167 C2168 1.407 . S
C2167 H2230 0.930 . S
C2168 C2167 1.407 . S
C2168 C2169 1.449 . S
C2168 C2172 1.535 . S
C2169 C2168 1.449 . S
C2169 C2170 1.384 . S
C2169 C2194 1.553 . S
C2170 C2169 1.384 . S
C2170 C2171 1.364 . S
C2170 C2173 1.450 . S
C2171 C2166 1.367 . S
C2171 C2170 1.364 . S
C2171 H2231 0.931 . S
C2172 C2168 1.535 . S
C2172 H2232 0.959 . S
C2172 H2233 0.961 . S
C2172 H2234 0.959 . S
C2173 C2170 1.450 . S
C2173 H2235 0.960 . S
C2173 H2236 0.960 . S
C2173 H2237 0.960 . S
C2174 C2175 1.309 . S
C2174 C2179 1.304 . S
C2174 O2212 1.435 . S
C2175 C2174 1.309 . S
C2175 C2176 1.476 . S
C2175 H2239 0.930 . S
C2176 C2175 1.476 . S
C2176 C2177 1.400 . S
C2176 C2180 1.567 . S
C2177 C2176 1.400 . S
C2177 C2178 1.373 . S
C2177 C2199 1.432 . S
C2178 C2177 1.373 . S
C2178 C2179 1.339 . S
C2178 C2181 1.530 . S
C2179 C2174 1.304 . S
C2179 C2178 1.339 . S
C2179 H2240 0.930 . S
C2180 C2176 1.567 . S
C2180 H2241 0.961 . S
C2180 H2242 0.960 . S
C2180 H2243 0.958 . S
C2181 C2178 1.530 . S
C2181 H2244 0.961 . S
C2181 H2245 0.960 . S
C2181 H2246 0.960 . S
C2182 C2183 1.530 . S
C2182 H2248 0.961 . S
C2182 H2249 0.961 . S
C2182 H2250 0.959 . S
C2183 C2182 1.530 . S
C2183 O2211 1.412 . S
C2183 H2247 0.980 . S
C2184 C2185 1.288 . S
C2184 C2189 1.377 . S
C2184 O2211 1.393 . S
C2185 C2184 1.288 . S
C2185 C2186 1.369 . S
C2185 H2251 0.932 . S
C2186 C2185 1.369 . S
C2186 C2187 1.398 . S
C2186 C2190 1.527 . S
C2187 C2186 1.398 . S
C2187 C2188 1.380 . S
C2187 C2201 1.497 . S
C2188 C2187 1.380 . S
C2188 C2189 1.383 . S
C2188 C2191 1.603 . S
C2189 C2184 1.377 . S
C2189 C2188 1.383 . S
C2189 H2252 0.929 . S
C2190 C2186 1.527 . S
C2190 H2253 0.961 . S
C2190 H2254 0.959 . S
C2190 H2255 0.959 . S
C2191 C2188 1.603 . S
C2191 H2256 0.960 . S
C2191 H2257 0.962 . S
C2191 H2258 0.961 . S
C2192 C2159 1.587 . S
C2192 C2193 1.360 . S
C2192 C2205 1.412 . S
C2193 C2192 1.360 . S
C2193 C2194 1.365 . S
C2193 H2259 0.929 . S
C2194 C2169 1.553 . S
C2194 C2193 1.365 . S
C2194 C2195 1.404 . S
C2195 C2194 1.404 . S
C2195 C2196 1.395 . S
C2195 C2206 1.451 . S
C2196 C2195 1.395 . S
C2196 C2197 1.322 . S
C2196 H2260 0.930 . S
C2197 C2196 1.322 . S
C2197 C2198 1.459 . S
C2197 H2261 0.929 . S
C2198 C2197 1.459 . S
C2198 C2199 1.445 . S
C2198 C2207 1.395 . S
C2199 C2177 1.432 . S
C2199 C2198 1.445 . S
C2199 C2200 1.370 . S
C2200 C2199 1.370 . S
C2200 C2201 1.438 . S
C2200 H2262 0.930 . S
C2201 C2187 1.497 . S
C2201 C2200 1.438 . S
C2201 C2202 1.360 . S
C2202 C2201 1.360 . S
C2202 C2203 1.401 . S
C2202 C2207 1.446 . S
C2203 C2202 1.401 . S
C2203 C2204 1.347 . S
C2203 H2263 0.929 . S
C2204 C2203 1.347 . S
C2204 C2205 1.455 . S
C2204 H2264 0.930 . S
C2205 C2192 1.412 . S
C2205 C2204 1.455 . S
C2205 C2206 1.331 . S
C2206 C2195 1.451 . S
C2206 C2205 1.331 . S
C2206 C2207 1.497 . S
C2207 C2198 1.395 . S
C2207 C2202 1.446 . S
C2207 C2206 1.497 . S
C2208 C2209 1.582 . S
C2208 H2265 0.962 . S
C2208 H2266 0.959 . S
C2208 H2267 0.958 . S
C2209 C2208 1.582 . S
C2209 O2212 1.458 . S
C2209 H2238 0.980 . S
O2210 C2155 1.426 . S
O2210 C2156 1.334 . S
O2211 C2183 1.412 . S
O2211 C2184 1.393 . S
O2212 C2174 1.435 . S
O2212 C2209 1.458 . S
O2213 C2165 1.468 . S
O2213 C2166 1.408 . S
H2214 C2155 0.980 . S
H2215 C2154 0.959 . S
H2216 C2154 0.959 . S
H2217 C2154 0.960 . S
H2218 C2157 0.929 . S
H2219 C2161 0.929 . S
H2220 C2162 0.959 . S
H2221 C2162 0.961 . S
H2222 C2162 0.961 . S
H2223 C2163 0.960 . S
H2224 C2163 0.960 . S
H2225 C2163 0.961 . S
H2226 C2165 0.980 . S
H2227 C2164 0.961 . S
H2228 C2164 0.960 . S
H2229 C2164 0.959 . S
H2230 C2167 0.930 . S
H2231 C2171 0.931 . S
H2232 C2172 0.959 . S
H2233 C2172 0.961 . S
H2234 C2172 0.959 . S
H2235 C2173 0.960 . S
H2236 C2173 0.960 . S
H2237 C2173 0.960 . S
H2238 C2209 0.980 . S
H2239 C2175 0.930 . S
H2240 C2179 0.930 . S
H2241 C2180 0.961 . S
H2242 C2180 0.960 . S
H2243 C2180 0.958 . S
H2244 C2181 0.961 . S
H2245 C2181 0.960 . S
H2246 C2181 0.960 . S
H2247 C2183 0.980 . S
H2248 C2182 0.961 . S
H2249 C2182 0.961 . S
H2250 C2182 0.959 . S
H2251 C2185 0.932 . S
H2252 C2189 0.929 . S
H2253 C2190 0.961 . S
H2254 C2190 0.959 . S
H2255 C2190 0.959 . S
H2256 C2191 0.960 . S
H2257 C2191 0.962 . S
H2258 C2191 0.961 . S
H2259 C2193 0.929 . S
H2260 C2196 0.930 . S
H2261 C2197 0.929 . S
H2262 C2200 0.930 . S
H2263 C2203 0.929 . S
H2264 C2204 0.930 . S
H2265 C2208 0.962 . S
H2266 C2208 0.959 . S
H2267 C2208 0.958 . S
C2268 C2269 1.560 . S
C2268 H2329 0.959 . S
C2268 H2330 0.959 . S
C2268 H2331 0.960 . S
C2269 C2268 1.560 . S
C2269 O2324 1.426 . S
C2269 H2328 0.980 . S
C2270 C2271 1.407 . S
C2270 C2275 1.418 . S
C2270 O2324 1.334 . S
C2271 C2270 1.407 . S
C2271 C2272 1.360 . S
C2271 H2332 0.929 . S
C2272 C2271 1.360 . S
C2272 C2273 1.401 . S
C2272 C2276 1.527 . S
C2273 C2272 1.401 . S
C2273 C2274 1.405 . S
C2273 C2306 1.587 . S
C2274 C2273 1.405 . S
C2274 C2275 1.332 . S
C2274 C2277 1.496 . S
C2275 C2270 1.418 . S
C2275 C2274 1.332 . S
C2275 H2333 0.929 . S
C2276 C2272 1.527 . S
C2276 H2334 0.959 . S
C2276 H2335 0.961 . S
C2276 H2336 0.961 . S
C2277 C2274 1.496 . S
C2277 H2337 0.960 . S
C2277 H2338 0.960 . S
C2277 H2339 0.961 . S
C2278 C2279 1.517 . S
C2278 H2341 0.961 . S
C2278 H2342 0.960 . S
C2278 H2343 0.959 . S
C2279 C2278 1.517 . S
C2279 O2327 1.468 . S
C2279 H2340 0.980 . S
C2280 C2281 1.349 . S
C2280 C2285 1.367 . S
C2280 O2327 1.408 . S
C2281 C2280 1.349 . S
C2281 C2282 1.407 . S
C2281 H2344 0.930 . S
C2282 C2281 1.407 . S
C2282 C2283 1.449 . S
C2282 C2286 1.535 . S
C2283 C2282 1.449 . S
C2283 C2284 1.384 . S
C2283 C2308 1.553 . S
C2284 C2283 1.384 . S
C2284 C2285 1.364 . S
C2284 C2287 1.450 . S
C2285 C2280 1.367 . S
C2285 C2284 1.364 . S
C2285 H2345 0.931 . S
C2286 C2282 1.535 . S
C2286 H2346 0.959 . S
C2286 H2347 0.961 . S
C2286 H2348 0.959 . S
C2287 C2284 1.450 . S
C2287 H2349 0.960 . S
C2287 H2350 0.960 . S
C2287 H2351 0.960 . S
C2288 C2289 1.309 . S
C2288 C2293 1.304 . S
C2288 O2326 1.435 . S
C2289 C2288 1.309 . S
C2289 C2290 1.476 . S
C2289 H2353 0.930 . S
C2290 C2289 1.476 . S
C2290 C2291 1.400 . S
C2290 C2294 1.567 . S
C2291 C2290 1.400 . S
C2291 C2292 1.373 . S
C2291 C2313 1.432 . S
C2292 C2291 1.373 . S
C2292 C2293 1.339 . S
C2292 C2295 1.530 . S
C2293 C2288 1.304 . S
C2293 C2292 1.339 . S
C2293 H2354 0.930 . S
C2294 C2290 1.567 . S
C2294 H2355 0.961 . S
C2294 H2356 0.960 . S
C2294 H2357 0.958 . S
C2295 C2292 1.530 . S
C2295 H2358 0.961 . S
C2295 H2359 0.960 . S
C2295 H2360 0.960 . S
C2296 C2297 1.530 . S
C2296 H2362 0.961 . S
C2296 H2363 0.961 . S
C2296 H2364 0.959 . S
C2297 C2296 1.530 . S
C2297 O2325 1.412 . S
C2297 H2361 0.980 . S
C2298 C2299 1.288 . S
C2298 C2303 1.377 . S
C2298 O2325 1.393 . S
C2299 C2298 1.288 . S
C2299 C2300 1.369 . S
C2299 H2365 0.932 . S
C2300 C2299 1.369 . S
C2300 C2301 1.398 . S
C2300 C2304 1.527 . S
C2301 C2300 1.398 . S
C2301 C2302 1.380 . S
C2301 C2315 1.497 . S
C2302 C2301 1.380 . S
C2302 C2303 1.383 . S
C2302 C2305 1.603 . S
C2303 C2298 1.377 . S
C2303 C2302 1.383 . S
C2303 H2366 0.929 . S
C2304 C2300 1.527 . S
C2304 H2367 0.961 . S
C2304 H2368 0.959 . S
C2304 H2369 0.959 . S
C2305 C2302 1.603 . S
C2305 H2370 0.960 . S
C2305 H2371 0.962 . S
C2305 H2372 0.961 . S
C2306 C2273 1.587 . S
C2306 C2307 1.360 . S
C2306 C2319 1.412 . S
C2307 C2306 1.360 . S
C2307 C2308 1.365 . S
C2307 H2373 0.929 . S
C2308 C2283 1.553 . S
C2308 C2307 1.365 . S
C2308 C2309 1.404 . S
C2309 C2308 1.404 . S
C2309 C2310 1.395 . S
C2309 C2320 1.451 . S
C2310 C2309 1.395 . S
C2310 C2311 1.322 . S
C2310 H2374 0.930 . S
C2311 C2310 1.322 . S
C2311 C2312 1.459 . S
C2311 H2375 0.929 . S
C2312 C2311 1.459 . S
C2312 C2313 1.445 . S
C2312 C2321 1.395 . S
C2313 C2291 1.432 . S
C2313 C2312 1.445 . S
C2313 C2314 1.370 . S
C2314 C2313 1.370 . S
C2314 C2315 1.438 . S
C2314 H2376 0.930 . S
C2315 C2301 1.497 . S
C2315 C2314 1.438 . S
C2315 C2316 1.360 . S
C2316 C2315 1.360 . S
C2316 C2317 1.401 . S
C2316 C2321 1.446 . S
C2317 C2316 1.401 . S
C2317 C2318 1.347 . S
C2317 H2377 0.929 . S
C2318 C2317 1.347 . S
C2318 C2319 1.455 . S
C2318 H2378 0.930 . S
C2319 C2306 1.412 . S
C2319 C2318 1.455 . S
C2319 C2320 1.331 . S
C2320 C2309 1.451 . S
C2320 C2319 1.331 . S
C2320 C2321 1.497 . S
C2321 C2312 1.395 . S
C2321 C2316 1.446 . S
C2321 C2320 1.497 . S
C2322 C2323 1.582 . S
C2322 H2379 0.962 . S
C2322 H2380 0.959 . S
C2322 H2381 0.958 . S
C2323 C2322 1.582 . S
C2323 O2326 1.458 . S
C2323 H2352 0.980 . S
O2324 C2269 1.426 . S
O2324 C2270 1.334 . S
O2325 C2297 1.412 . S
O2325 C2298 1.393 . S
O2326 C2288 1.435 . S
O2326 C2323 1.458 . S
O2327 C2279 1.468 . S
O2327 C2280 1.408 . S
H2328 C2269 0.980 . S
H2329 C2268 0.959 . S
H2330 C2268 0.959 . S
H2331 C2268 0.960 . S
H2332 C2271 0.929 . S
H2333 C2275 0.929 . S
H2334 C2276 0.959 . S
H2335 C2276 0.961 . S
H2336 C2276 0.961 . S
H2337 C2277 0.960 . S
H2338 C2277 0.960 . S
H2339 C2277 0.961 . S
H2340 C2279 0.980 . S
H2341 C2278 0.961 . S
H2342 C2278 0.960 . S
H2343 C2278 0.959 . S
H2344 C2281 0.930 . S
H2345 C2285 0.931 . S
H2346 C2286 0.959 . S
H2347 C2286 0.961 . S
H2348 C2286 0.959 . S
H2349 C2287 0.960 . S
H2350 C2287 0.960 . S
H2351 C2287 0.960 . S
H2352 C2323 0.980 . S
H2353 C2289 0.930 . S
H2354 C2293 0.930 . S
H2355 C2294 0.961 . S
H2356 C2294 0.960 . S
H2357 C2294 0.958 . S
H2358 C2295 0.961 . S
H2359 C2295 0.960 . S
H2360 C2295 0.960 . S
H2361 C2297 0.980 . S
H2362 C2296 0.961 . S
H2363 C2296 0.961 . S
H2364 C2296 0.959 . S
H2365 C2299 0.932 . S
H2366 C2303 0.929 . S
H2367 C2304 0.961 . S
H2368 C2304 0.959 . S
H2369 C2304 0.959 . S
H2370 C2305 0.960 . S
H2371 C2305 0.962 . S
H2372 C2305 0.961 . S
H2373 C2307 0.929 . S
H2374 C2310 0.930 . S
H2375 C2311 0.929 . S
H2376 C2314 0.930 . S
H2377 C2317 0.929 . S
H2378 C2318 0.930 . S
H2379 C2322 0.962 . S
H2380 C2322 0.959 . S
H2381 C2322 0.958 . S
C2382 C2383 1.560 . S
C2382 H2443 0.959 . S
C2382 H2444 0.959 . S
C2382 H2445 0.960 . S
C2383 C2382 1.560 . S
C2383 O2438 1.426 . S
C2383 H2442 0.980 . S
C2384 C2385 1.407 . S
C2384 C2389 1.418 . S
C2384 O2438 1.334 . S
C2385 C2384 1.407 . S
C2385 C2386 1.360 . S
C2385 H2446 0.929 . S
C2386 C2385 1.360 . S
C2386 C2387 1.401 . S
C2386 C2390 1.527 . S
C2387 C2386 1.401 . S
C2387 C2388 1.405 . S
C2387 C2420 1.587 . S
C2388 C2387 1.405 . S
C2388 C2389 1.332 . S
C2388 C2391 1.496 . S
C2389 C2384 1.418 . S
C2389 C2388 1.332 . S
C2389 H2447 0.929 . S
C2390 C2386 1.527 . S
C2390 H2448 0.959 . S
C2390 H2449 0.961 . S
C2390 H2450 0.961 . S
C2391 C2388 1.496 . S
C2391 H2451 0.960 . S
C2391 H2452 0.960 . S
C2391 H2453 0.961 . S
C2392 C2393 1.517 . S
C2392 H2455 0.961 . S
C2392 H2456 0.960 . S
C2392 H2457 0.959 . S
C2393 C2392 1.517 . S
C2393 O2441 1.468 . S
C2393 H2454 0.980 . S
C2394 C2395 1.349 . S
C2394 C2399 1.367 . S
C2394 O2441 1.408 . S
C2395 C2394 1.349 . S
C2395 C2396 1.407 . S
C2395 H2458 0.930 . S
C2396 C2395 1.407 . S
C2396 C2397 1.449 . S
C2396 C2400 1.535 . S
C2397 C2396 1.449 . S
C2397 C2398 1.384 . S
C2397 C2422 1.553 . S
C2398 C2397 1.384 . S
C2398 C2399 1.364 . S
C2398 C2401 1.450 . S
C2399 C2394 1.367 . S
C2399 C2398 1.364 . S
C2399 H2459 0.931 . S
C2400 C2396 1.535 . S
C2400 H2460 0.959 . S
C2400 H2461 0.961 . S
C2400 H2462 0.959 . S
C2401 C2398 1.450 . S
C2401 H2463 0.960 . S
C2401 H2464 0.960 . S
C2401 H2465 0.960 . S
C2402 C2403 1.309 . S
C2402 C2407 1.304 . S
C2402 O2440 1.435 . S
C2403 C2402 1.309 . S
C2403 C2404 1.476 . S
C2403 H2467 0.930 . S
C2404 C2403 1.476 . S
C2404 C2405 1.400 . S
C2404 C2408 1.567 . S
C2405 C2404 1.400 . S
C2405 C2406 1.373 . S
C2405 C2427 1.432 . S
C2406 C2405 1.373 . S
C2406 C2407 1.339 . S
C2406 C2409 1.530 . S
C2407 C2402 1.304 . S
C2407 C2406 1.339 . S
C2407 H2468 0.930 . S
C2408 C2404 1.567 . S
C2408 H2469 0.961 . S
C2408 H2470 0.960 . S
C2408 H2471 0.958 . S
C2409 C2406 1.530 . S
C2409 H2472 0.961 . S
C2409 H2473 0.960 . S
C2409 H2474 0.960 . S
C2410 C2411 1.530 . S
C2410 H2476 0.961 . S
C2410 H2477 0.961 . S
C2410 H2478 0.959 . S
C2411 C2410 1.530 . S
C2411 O2439 1.412 . S
C2411 H2475 0.980 . S
C2412 C2413 1.288 . S
C2412 C2417 1.377 . S
C2412 O2439 1.393 . S
C2413 C2412 1.288 . S
C2413 C2414 1.369 . S
C2413 H2479 0.932 . S
C2414 C2413 1.369 . S
C2414 C2415 1.398 . S
C2414 C2418 1.527 . S
C2415 C2414 1.398 . S
C2415 C2416 1.380 . S
C2415 C2429 1.497 . S
C2416 C2415 1.380 . S
C2416 C2417 1.383 . S
C2416 C2419 1.603 . S
C2417 C2412 1.377 . S
C2417 C2416 1.383 . S
C2417 H2480 0.929 . S
C2418 C2414 1.527 . S
C2418 H2481 0.961 . S
C2418 H2482 0.959 . S
C2418 H2483 0.959 . S
C2419 C2416 1.603 . S
C2419 H2484 0.960 . S
C2419 H2485 0.962 . S
C2419 H2486 0.961 . S
C2420 C2387 1.587 . S
C2420 C2421 1.360 . S
C2420 C2433 1.412 . S
C2421 C2420 1.360 . S
C2421 C2422 1.365 . S
C2421 H2487 0.929 . S
C2422 C2397 1.553 . S
C2422 C2421 1.365 . S
C2422 C2423 1.404 . S
C2423 C2422 1.404 . S
C2423 C2424 1.395 . S
C2423 C2434 1.451 . S
C2424 C2423 1.395 . S
C2424 C2425 1.322 . S
C2424 H2488 0.930 . S
C2425 C2424 1.322 . S
C2425 C2426 1.459 . S
C2425 H2489 0.929 . S
C2426 C2425 1.459 . S
C2426 C2427 1.445 . S
C2426 C2435 1.395 . S
C2427 C2405 1.432 . S
C2427 C2426 1.445 . S
C2427 C2428 1.370 . S
C2428 C2427 1.370 . S
C2428 C2429 1.438 . S
C2428 H2490 0.930 . S
C2429 C2415 1.497 . S
C2429 C2428 1.438 . S
C2429 C2430 1.360 . S
C2430 C2429 1.360 . S
C2430 C2431 1.401 . S
C2430 C2435 1.446 . S
C2431 C2430 1.401 . S
C2431 C2432 1.347 . S
C2431 H2491 0.929 . S
C2432 C2431 1.347 . S
C2432 C2433 1.455 . S
C2432 H2492 0.930 . S
C2433 C2420 1.412 . S
C2433 C2432 1.455 . S
C2433 C2434 1.331 . S
C2434 C2423 1.451 . S
C2434 C2433 1.331 . S
C2434 C2435 1.497 . S
C2435 C2426 1.395 . S
C2435 C2430 1.446 . S
C2435 C2434 1.497 . S
C2436 C2437 1.582 . S
C2436 H2493 0.962 . S
C2436 H2494 0.959 . S
C2436 H2495 0.958 . S
C2437 C2436 1.582 . S
C2437 O2440 1.458 . S
C2437 H2466 0.980 . S
O2438 C2383 1.426 . S
O2438 C2384 1.334 . S
O2439 C2411 1.412 . S
O2439 C2412 1.393 . S
O2440 C2402 1.435 . S
O2440 C2437 1.458 . S
O2441 C2393 1.468 . S
O2441 C2394 1.408 . S
H2442 C2383 0.980 . S
H2443 C2382 0.959 . S
H2444 C2382 0.959 . S
H2445 C2382 0.960 . S
H2446 C2385 0.929 . S
H2447 C2389 0.929 . S
H2448 C2390 0.959 . S
H2449 C2390 0.961 . S
H2450 C2390 0.961 . S
H2451 C2391 0.960 . S
H2452 C2391 0.960 . S
H2453 C2391 0.961 . S
H2454 C2393 0.980 . S
H2455 C2392 0.961 . S
H2456 C2392 0.960 . S
H2457 C2392 0.959 . S
H2458 C2395 0.930 . S
H2459 C2399 0.931 . S
H2460 C2400 0.959 . S
H2461 C2400 0.961 . S
H2462 C2400 0.959 . S
H2463 C2401 0.960 . S
H2464 C2401 0.960 . S
H2465 C2401 0.960 . S
H2466 C2437 0.980 . S
H2467 C2403 0.930 . S
H2468 C2407 0.930 . S
H2469 C2408 0.961 . S
H2470 C2408 0.960 . S
H2471 C2408 0.958 . S
H2472 C2409 0.961 . S
H2473 C2409 0.960 . S
H2474 C2409 0.960 . S
H2475 C2411 0.980 . S
H2476 C2410 0.961 . S
H2477 C2410 0.961 . S
H2478 C2410 0.959 . S
H2479 C2413 0.932 . S
H2480 C2417 0.929 . S
H2481 C2418 0.961 . S
H2482 C2418 0.959 . S
H2483 C2418 0.959 . S
H2484 C2419 0.960 . S
H2485 C2419 0.962 . S
H2486 C2419 0.961 . S
H2487 C2421 0.929 . S
H2488 C2424 0.930 . S
H2489 C2425 0.929 . S
H2490 C2428 0.930 . S
H2491 C2431 0.929 . S
H2492 C2432 0.930 . S
H2493 C2436 0.962 . S
H2494 C2436 0.959 . S
H2495 C2436 0.958 . S
C2496 C2497 1.560 . S
C2496 H2557 0.959 . S
C2496 H2558 0.959 . S
C2496 H2559 0.960 . S
C2497 C2496 1.560 . S
C2497 O2552 1.426 . S
C2497 H2556 0.980 . S
C2498 C2499 1.407 . S
C2498 C2503 1.418 . S
C2498 O2552 1.334 . S
C2499 C2498 1.407 . S
C2499 C2500 1.360 . S
C2499 H2560 0.929 . S
C2500 C2499 1.360 . S
C2500 C2501 1.401 . S
C2500 C2504 1.527 . S
C2501 C2500 1.401 . S
C2501 C2502 1.405 . S
C2501 C2534 1.587 . S
C2502 C2501 1.405 . S
C2502 C2503 1.332 . S
C2502 C2505 1.496 . S
C2503 C2498 1.418 . S
C2503 C2502 1.332 . S
C2503 H2561 0.929 . S
C2504 C2500 1.527 . S
C2504 H2562 0.959 . S
C2504 H2563 0.961 . S
C2504 H2564 0.961 . S
C2505 C2502 1.496 . S
C2505 H2565 0.960 . S
C2505 H2566 0.960 . S
C2505 H2567 0.961 . S
C2506 C2507 1.517 . S
C2506 H2569 0.961 . S
C2506 H2570 0.960 . S
C2506 H2571 0.959 . S
C2507 C2506 1.517 . S
C2507 O2555 1.468 . S
C2507 H2568 0.980 . S
C2508 C2509 1.349 . S
C2508 C2513 1.367 . S
C2508 O2555 1.408 . S
C2509 C2508 1.349 . S
C2509 C2510 1.407 . S
C2509 H2572 0.930 . S
C2510 C2509 1.407 . S
C2510 C2511 1.449 . S
C2510 C2514 1.535 . S
C2511 C2510 1.449 . S
C2511 C2512 1.384 . S
C2511 C2536 1.553 . S
C2512 C2511 1.384 . S
C2512 C2513 1.364 . S
C2512 C2515 1.450 . S
C2513 C2508 1.367 . S
C2513 C2512 1.364 . S
C2513 H2573 0.931 . S
C2514 C2510 1.535 . S
C2514 H2574 0.959 . S
C2514 H2575 0.961 . S
C2514 H2576 0.959 . S
C2515 C2512 1.450 . S
C2515 H2577 0.960 . S
C2515 H2578 0.960 . S
C2515 H2579 0.960 . S
C2516 C2517 1.309 . S
C2516 C2521 1.304 . S
C2516 O2554 1.435 . S
C2517 C2516 1.309 . S
C2517 C2518 1.476 . S
C2517 H2581 0.930 . S
C2518 C2517 1.476 . S
C2518 C2519 1.400 . S
C2518 C2522 1.567 . S
C2519 C2518 1.400 . S
C2519 C2520 1.373 . S
C2519 C2541 1.432 . S
C2520 C2519 1.373 . S
C2520 C2521 1.339 . S
C2520 C2523 1.530 . S
C2521 C2516 1.304 . S
C2521 C2520 1.339 . S
C2521 H2582 0.930 . S
C2522 C2518 1.567 . S
C2522 H2583 0.961 . S
C2522 H2584 0.960 . S
C2522 H2585 0.958 . S
C2523 C2520 1.530 . S
C2523 H2586 0.961 . S
C2523 H2587 0.960 . S
C2523 H2588 0.960 . S
C2524 C2525 1.530 . S
C2524 H2590 0.961 . S
C2524 H2591 0.961 . S
C2524 H2592 0.959 . S
C2525 C2524 1.530 . S
C2525 O2553 1.412 . S
C2525 H2589 0.980 . S
C2526 C2527 1.288 . S
C2526 C2531 1.377 . S
C2526 O2553 1.393 . S
C2527 C2526 1.288 . S
C2527 C2528 1.369 . S
C2527 H2593 0.932 . S
C2528 C2527 1.369 . S
C2528 C2529 1.398 . S
C2528 C2532 1.527 . S
C2529 C2528 1.398 . S
C2529 C2530 1.380 . S
C2529 C2543 1.497 . S
C2530 C2529 1.380 . S
C2530 C2531 1.383 . S
C2530 C2533 1.603 . S
C2531 C2526 1.377 . S
C2531 C2530 1.383 . S
C2531 H2594 0.929 . S
C2532 C2528 1.527 . S
C2532 H2595 0.961 . S
C2532 H2596 0.959 . S
C2532 H2597 0.959 . S
C2533 C2530 1.603 . S
C2533 H2598 0.960 . S
C2533 H2599 0.962 . S
C2533 H2600 0.961 . S
C2534 C2501 1.587 . S
C2534 C2535 1.360 . S
C2534 C2547 1.412 . S
C2535 C2534 1.360 . S
C2535 C2536 1.365 . S
C2535 H2601 0.929 . S
C2536 C2511 1.553 . S
C2536 C2535 1.365 . S
C2536 C2537 1.404 . S
C2537 C2536 1.404 . S
C2537 C2538 1.395 . S
C2537 C2548 1.451 . S
C2538 C2537 1.395 . S
C2538 C2539 1.322 . S
C2538 H2602 0.930 . S
C2539 C2538 1.322 . S
C2539 C2540 1.459 . S
C2539 H2603 0.929 . S
C2540 C2539 1.459 . S
C2540 C2541 1.445 . S
C2540 C2549 1.395 . S
C2541 C2519 1.432 . S
C2541 C2540 1.445 . S
C2541 C2542 1.370 . S
C2542 C2541 1.370 . S
C2542 C2543 1.438 . S
C2542 H2604 0.930 . S
C2543 C2529 1.497 . S
C2543 C2542 1.438 . S
C2543 C2544 1.360 . S
C2544 C2543 1.360 . S
C2544 C2545 1.401 . S
C2544 C2549 1.446 . S
C2545 C2544 1.401 . S
C2545 C2546 1.347 . S
C2545 H2605 0.929 . S
C2546 C2545 1.347 . S
C2546 C2547 1.455 . S
C2546 H2606 0.930 . S
C2547 C2534 1.412 . S
C2547 C2546 1.455 . S
C2547 C2548 1.331 . S
C2548 C2537 1.451 . S
C2548 C2547 1.331 . S
C2548 C2549 1.497 . S
C2549 C2540 1.395 . S
C2549 C2544 1.446 . S
C2549 C2548 1.497 . S
C2550 C2551 1.582 . S
C2550 H2607 0.962 . S
C2550 H2608 0.959 . S
C2550 H2609 0.958 . S
C2551 C2550 1.582 . S
C2551 O2554 1.458 . S
C2551 H2580 0.980 . S
O2552 C2497 1.426 . S
O2552 C2498 1.334 . S
O2553 C2525 1.412 . S
O2553 C2526 1.393 . S
O2554 C2516 1.435 . S
O2554 C2551 1.458 . S
O2555 C2507 1.468 . S
O2555 C2508 1.408 . S
H2556 C2497 0.980 . S
H2557 C2496 0.959 . S
H2558 C2496 0.959 . S
H2559 C2496 0.960 . S
H2560 C2499 0.929 . S
H2561 C2503 0.929 . S
H2562 C2504 0.959 . S
H2563 C2504 0.961 . S
H2564 C2504 0.961 . S
H2565 C2505 0.960 . S
H2566 C2505 0.960 . S
H2567 C2505 0.961 . S
H2568 C2507 0.980 . S
H2569 C2506 0.961 . S
H2570 C2506 0.960 . S
H2571 C2506 0.959 . S
H2572 C2509 0.930 . S
H2573 C2513 0.931 . S
H2574 C2514 0.959 . S
H2575 C2514 0.961 . S
H2576 C2514 0.959 . S
H2577 C2515 0.960 . S
H2578 C2515 0.960 . S
H2579 C2515 0.960 . S
H2580 C2551 0.980 . S
H2581 C2517 0.930 . S
H2582 C2521 0.930 . S
H2583 C2522 0.961 . S
H2584 C2522 0.960 . S
H2585 C2522 0.958 . S
H2586 C2523 0.961 . S
H2587 C2523 0.960 . S
H2588 C2523 0.960 . S
H2589 C2525 0.980 . S
H2590 C2524 0.961 . S
H2591 C2524 0.961 . S
H2592 C2524 0.959 . S
H2593 C2527 0.932 . S
H2594 C2531 0.929 . S
H2595 C2532 0.961 . S
H2596 C2532 0.959 . S
H2597 C2532 0.959 . S
H2598 C2533 0.960 . S
H2599 C2533 0.962 . S
H2600 C2533 0.961 . S
H2601 C2535 0.929 . S
H2602 C2538 0.930 . S
H2603 C2539 0.929 . S
H2604 C2542 0.930 . S
H2605 C2545 0.929 . S
H2606 C2546 0.930 . S
H2607 C2550 0.962 . S
H2608 C2550 0.959 . S
H2609 C2550 0.958 . S
C2610 C2611 1.560 . S
C2610 H2671 0.959 . S
C2610 H2672 0.959 . S
C2610 H2673 0.960 . S
C2611 C2610 1.560 . S
C2611 O2666 1.426 . S
C2611 H2670 0.980 . S
C2612 C2613 1.407 1_455 S
C2612 C2617 1.418 . S
C2612 O2666 1.334 . S
C2613 C2612 1.407 1_655 S
C2613 C2614 1.360 . S
C2613 H2674 0.929 . S
C2614 C2613 1.360 . S
C2614 C2615 1.401 1_655 S
C2614 C2618 1.527 . S
C2615 C2614 1.401 1_455 S
C2615 C2616 1.405 . S
C2615 C2648 1.587 1_455 S
C2616 C2615 1.405 . S
C2616 C2617 1.332 . S
C2616 C2619 1.496 . S
C2617 C2612 1.418 . S
C2617 C2616 1.332 . S
C2617 H2675 0.929 . S
C2618 C2614 1.527 . S
C2618 H2676 0.959 . S
C2618 H2677 0.961 . S
C2618 H2678 0.961 . S
C2619 C2616 1.496 . S
C2619 H2679 0.960 . S
C2619 H2680 0.960 . S
C2619 H2681 0.961 . S
C2620 C2621 1.517 . S
C2620 H2683 0.963 . S
C2620 H2684 0.960 . S
C2620 H2685 0.959 . S
C2621 C2620 1.517 . S
C2621 O2669 1.468 . S
C2621 H2682 0.980 1_655 S
C2622 C2623 1.349 . S
C2622 C2627 1.367 . S
C2622 O2669 1.408 . S
C2623 C2622 1.349 . S
C2623 C2624 1.356 1_655 S
C2623 H2686 0.930 1_655 S
C2624 C2623 1.356 1_455 S
C2624 C2625 1.405 1_455 S
C2624 C2628 1.626 . S
C2625 C2624 1.405 1_655 S
C2625 C2626 1.384 . S
C2625 C2650 1.553 . S
C2626 C2625 1.384 . S
C2626 C2627 1.364 . S
C2626 C2629 1.450 . S
C2627 C2622 1.367 . S
C2627 C2626 1.364 . S
C2627 H2687 0.931 . S
C2628 C2624 1.626 . S
C2628 H2688 0.959 . S
C2628 H2689 0.961 . S
C2628 H2690 0.959 . S
C2629 C2626 1.450 . S
C2629 H2691 0.960 . S
C2629 H2692 0.960 . S
C2629 H2693 0.960 . S
C2630 C2631 1.309 . S
C2630 C2635 1.304 . S
C2630 O2668 1.435 . S
C2631 C2630 1.309 . S
C2631 C2632 1.477 1_655 S
C2631 H2695 0.930 1_655 S
C2632 C2631 1.477 1_455 S
C2632 C2633 1.401 1_455 S
C2632 C2636 1.565 . S
C2633 C2632 1.401 1_655 S
C2633 C2634 1.373 . S
C2633 C2655 1.432 . S
C2634 C2633 1.373 . S
C2634 C2635 1.339 . S
C2634 C2637 1.530 . S
C2635 C2630 1.304 . S
C2635 C2634 1.339 . S
C2635 H2696 0.930 . S
C2636 C2632 1.565 . S
C2636 H2697 0.961 . S
C2636 H2698 0.960 . S
C2636 H2699 0.958 . S
C2637 C2634 1.530 . S
C2637 H2700 0.961 . S
C2637 H2701 0.960 . S
C2637 H2702 0.960 . S
C2638 C2639 1.510 1_455 S
C2638 H2704 0.961 . S
C2638 H2705 0.961 . S
C2638 H2706 0.959 . S
C2639 C2638 1.510 1_655 S
C2639 O2667 1.408 1_655 S
C2639 H2703 0.986 . S
C2640 C2641 1.288 . S
C2640 C2645 1.377 1_455 S
C2640 O2667 1.393 . S
C2641 C2640 1.288 . S
C2641 C2642 1.369 . S
C2641 H2707 0.932 . S
C2642 C2641 1.369 . S
C2642 C2643 1.398 1_455 S
C2642 C2646 1.527 . S
C2643 C2642 1.398 1_655 S
C2643 C2644 1.380 . S
C2643 C2657 1.497 . S
C2644 C2643 1.380 . S
C2644 C2645 1.383 . S
C2644 C2647 1.603 . S
C2645 C2640 1.377 1_655 S
C2645 C2644 1.383 . S
C2645 H2708 0.929 . S
C2646 C2642 1.527 . S
C2646 H2709 0.961 . S
C2646 H2710 0.959 . S
C2646 H2711 0.959 . S
C2647 C2644 1.603 . S
C2647 H2712 0.960 . S
C2647 H2713 0.962 . S
C2647 H2714 0.961 . S
C2648 C2615 1.587 1_655 S
C2648 C2649 1.360 . S
C2648 C2661 1.412 . S
C2649 C2648 1.360 . S
C2649 C2650 1.365 . S
C2649 H2715 0.929 . S
C2650 C2625 1.553 . S
C2650 C2649 1.365 . S
C2650 C2651 1.404 . S
C2651 C2650 1.404 . S
C2651 C2652 1.395 . S
C2651 C2662 1.451 . S
C2652 C2651 1.395 . S
C2652 C2653 1.322 . S
C2652 H2716 0.930 . S
C2653 C2652 1.322 . S
C2653 C2654 1.459 . S
C2653 H2717 0.929 . S
C2654 C2653 1.459 . S
C2654 C2655 1.445 . S
C2654 C2663 1.395 . S
C2655 C2633 1.432 . S
C2655 C2654 1.445 . S
C2655 C2656 1.370 . S
C2656 C2655 1.370 . S
C2656 C2657 1.438 . S
C2656 H2718 0.930 . S
C2657 C2643 1.497 . S
C2657 C2656 1.438 . S
C2657 C2658 1.360 . S
C2658 C2657 1.360 . S
C2658 C2659 1.401 . S
C2658 C2663 1.446 . S
C2659 C2658 1.401 . S
C2659 C2660 1.347 . S
C2659 H2719 0.929 . S
C2660 C2659 1.347 . S
C2660 C2661 1.455 . S
C2660 H2720 0.992 . S
C2661 C2648 1.412 . S
C2661 C2660 1.455 . S
C2661 C2662 1.331 . S
C2662 C2651 1.451 . S
C2662 C2661 1.331 . S
C2662 C2663 1.497 . S
C2663 C2654 1.395 . S
C2663 C2658 1.446 . S
C2663 C2662 1.497 . S
C2664 C2665 1.582 . S
C2664 H2721 0.962 . S
C2664 H2722 0.959 . S
C2664 H2723 0.958 . S
C2665 C2664 1.582 . S
C2665 O2668 1.458 . S
C2665 H2694 0.980 . S
O2666 C2611 1.426 . S
O2666 C2612 1.334 . S
O2667 C2639 1.408 1_455 S
O2667 C2640 1.393 . S
O2668 C2630 1.435 . S
O2668 C2665 1.458 . S
O2669 C2621 1.468 . S
O2669 C2622 1.408 . S
H2670 C2611 0.980 . S
H2671 C2610 0.959 . S
H2672 C2610 0.959 . S
H2673 C2610 0.960 . S
H2674 C2613 0.929 . S
H2675 C2617 0.929 . S
H2676 C2618 0.959 . S
H2677 C2618 0.961 . S
H2678 C2618 0.961 . S
H2679 C2619 0.960 . S
H2680 C2619 0.960 . S
H2681 C2619 0.961 . S
H2682 C2621 0.980 1_455 S
H2683 C2620 0.963 . S
H2684 C2620 0.960 . S
H2685 C2620 0.959 . S
H2686 C2623 0.930 1_455 S
H2687 C2627 0.931 . S
H2688 C2628 0.959 . S
H2689 C2628 0.961 . S
H2690 C2628 0.959 . S
H2691 C2629 0.960 . S
H2692 C2629 0.960 . S
H2693 C2629 0.960 . S
H2694 C2665 0.980 . S
H2695 C2631 0.930 1_455 S
H2696 C2635 0.930 . S
H2697 C2636 0.961 . S
H2698 C2636 0.960 . S
H2699 C2636 0.958 . S
H2700 C2637 0.961 . S
H2701 C2637 0.960 . S
H2702 C2637 0.960 . S
H2703 C2639 0.986 . S
H2704 C2638 0.961 . S
H2705 C2638 0.961 . S
H2706 C2638 0.959 . S
H2707 C2641 0.932 . S
H2708 C2645 0.929 . S
H2709 C2646 0.961 . S
H2710 C2646 0.959 . S
H2711 C2646 0.959 . S
H2712 C2647 0.960 . S
H2713 C2647 0.962 . S
H2714 C2647 0.961 . S
H2715 C2649 0.929 . S
H2716 C2652 0.930 . S
H2717 C2653 0.929 . S
H2718 C2656 0.930 . S
H2719 C2659 0.929 . S
H2720 C2660 0.992 . S
H2721 C2664 0.962 . S
H2722 C2664 0.959 . S
H2723 C2664 0.958 . S
C2724 C2725 1.560 . S
C2724 H2785 0.959 . S
C2724 H2786 0.959 . S
C2724 H2787 0.960 . S
C2725 C2724 1.560 . S
C2725 O2780 1.426 . S
C2725 H2784 0.980 . S
C2726 C2727 1.407 . S
C2726 C2731 1.418 . S
C2726 O2780 1.334 . S
C2727 C2726 1.407 . S
C2727 C2728 1.360 . S
C2727 H2788 0.929 . S
C2728 C2727 1.360 . S
C2728 C2729 1.401 . S
C2728 C2732 1.527 . S
C2729 C2728 1.401 . S
C2729 C2730 1.405 . S
C2729 C2762 1.587 . S
C2730 C2729 1.405 . S
C2730 C2731 1.332 . S
C2730 C2733 1.496 . S
C2731 C2726 1.418 . S
C2731 C2730 1.332 . S
C2731 H2789 0.929 . S
C2732 C2728 1.527 . S
C2732 H2790 0.959 . S
C2732 H2791 0.961 . S
C2732 H2792 0.961 . S
C2733 C2730 1.496 . S
C2733 H2793 0.960 . S
C2733 H2794 0.960 . S
C2733 H2795 0.961 . S
C2734 C2735 1.517 . S
C2734 H2797 0.961 . S
C2734 H2798 0.960 . S
C2734 H2799 0.959 . S
C2735 C2734 1.517 . S
C2735 O2783 1.468 . S
C2735 H2796 0.980 . S
C2736 C2737 1.349 . S
C2736 C2741 1.367 . S
C2736 O2783 1.408 . S
C2737 C2736 1.349 . S
C2737 C2738 1.407 . S
C2737 H2800 0.930 . S
C2738 C2737 1.407 . S
C2738 C2739 1.449 . S
C2738 C2742 1.535 . S
C2739 C2738 1.449 . S
C2739 C2740 1.384 . S
C2739 C2764 1.553 . S
C2740 C2739 1.384 . S
C2740 C2741 1.364 . S
C2740 C2743 1.450 . S
C2741 C2736 1.367 . S
C2741 C2740 1.364 . S
C2741 H2801 0.931 . S
C2742 C2738 1.535 . S
C2742 H2802 0.959 . S
C2742 H2803 0.961 . S
C2742 H2804 0.959 . S
C2743 C2740 1.450 . S
C2743 H2805 0.960 . S
C2743 H2806 0.960 . S
C2743 H2807 0.960 . S
C2744 C2745 1.309 . S
C2744 C2749 1.304 . S
C2744 O2782 1.435 . S
C2745 C2744 1.309 . S
C2745 C2746 1.476 . S
C2745 H2809 0.930 . S
C2746 C2745 1.476 . S
C2746 C2747 1.400 . S
C2746 C2750 1.567 . S
C2747 C2746 1.400 . S
C2747 C2748 1.373 . S
C2747 C2769 1.432 . S
C2748 C2747 1.373 . S
C2748 C2749 1.339 . S
C2748 C2751 1.530 . S
C2749 C2744 1.304 . S
C2749 C2748 1.339 . S
C2749 H2810 0.930 . S
C2750 C2746 1.567 . S
C2750 H2811 0.961 . S
C2750 H2812 0.960 . S
C2750 H2813 0.958 . S
C2751 C2748 1.530 . S
C2751 H2814 0.961 . S
C2751 H2815 0.960 . S
C2751 H2816 0.960 . S
C2752 C2753 1.530 . S
C2752 H2818 0.961 . S
C2752 H2819 0.961 . S
C2752 H2820 0.959 . S
C2753 C2752 1.530 . S
C2753 O2781 1.412 . S
C2753 H2817 0.980 . S
C2754 C2755 1.288 . S
C2754 C2759 1.377 . S
C2754 O2781 1.393 . S
C2755 C2754 1.288 . S
C2755 C2756 1.369 . S
C2755 H2821 0.932 . S
C2756 C2755 1.369 . S
C2756 C2757 1.398 . S
C2756 C2760 1.527 . S
C2757 C2756 1.398 . S
C2757 C2758 1.380 . S
C2757 C2771 1.497 . S
C2758 C2757 1.380 . S
C2758 C2759 1.383 . S
C2758 C2761 1.603 . S
C2759 C2754 1.377 . S
C2759 C2758 1.383 . S
C2759 H2822 0.929 . S
C2760 C2756 1.527 . S
C2760 H2823 0.961 . S
C2760 H2824 0.959 . S
C2760 H2825 0.959 . S
C2761 C2758 1.603 . S
C2761 H2826 0.960 . S
C2761 H2827 0.962 . S
C2761 H2828 0.961 . S
C2762 C2729 1.587 . S
C2762 C2763 1.360 . S
C2762 C2775 1.412 . S
C2763 C2762 1.360 . S
C2763 C2764 1.365 . S
C2763 H2829 0.929 . S
C2764 C2739 1.553 . S
C2764 C2763 1.365 . S
C2764 C2765 1.404 . S
C2765 C2764 1.404 . S
C2765 C2766 1.395 . S
C2765 C2776 1.451 . S
C2766 C2765 1.395 . S
C2766 C2767 1.322 . S
C2766 H2830 0.930 . S
C2767 C2766 1.322 . S
C2767 C2768 1.459 . S
C2767 H2831 0.929 . S
C2768 C2767 1.459 . S
C2768 C2769 1.445 . S
C2768 C2777 1.395 . S
C2769 C2747 1.432 . S
C2769 C2768 1.445 . S
C2769 C2770 1.370 . S
C2770 C2769 1.370 . S
C2770 C2771 1.438 . S
C2770 H2832 0.930 . S
C2771 C2757 1.497 . S
C2771 C2770 1.438 . S
C2771 C2772 1.360 . S
C2772 C2771 1.360 . S
C2772 C2773 1.401 . S
C2772 C2777 1.446 . S
C2773 C2772 1.401 . S
C2773 C2774 1.347 . S
C2773 H2833 0.929 . S
C2774 C2773 1.347 . S
C2774 C2775 1.455 . S
C2774 H2834 0.930 . S
C2775 C2762 1.412 . S
C2775 C2774 1.455 . S
C2775 C2776 1.331 . S
C2776 C2765 1.451 . S
C2776 C2775 1.331 . S
C2776 C2777 1.497 . S
C2777 C2768 1.395 . S
C2777 C2772 1.446 . S
C2777 C2776 1.497 . S
C2778 C2779 1.582 . S
C2778 H2835 0.962 . S
C2778 H2836 0.959 . S
C2778 H2837 0.958 . S
C2779 C2778 1.582 . S
C2779 O2782 1.458 . S
C2779 H2808 0.980 . S
O2780 C2725 1.426 . S
O2780 C2726 1.334 . S
O2781 C2753 1.412 . S
O2781 C2754 1.393 . S
O2782 C2744 1.435 . S
O2782 C2779 1.458 . S
O2783 C2735 1.468 . S
O2783 C2736 1.408 . S
H2784 C2725 0.980 . S
H2785 C2724 0.959 . S
H2786 C2724 0.959 . S
H2787 C2724 0.960 . S
H2788 C2727 0.929 . S
H2789 C2731 0.929 . S
H2790 C2732 0.959 . S
H2791 C2732 0.961 . S
H2792 C2732 0.961 . S
H2793 C2733 0.960 . S
H2794 C2733 0.960 . S
H2795 C2733 0.961 . S
H2796 C2735 0.980 . S
H2797 C2734 0.961 . S
H2798 C2734 0.960 . S
H2799 C2734 0.959 . S
H2800 C2737 0.930 . S
H2801 C2741 0.931 . S
H2802 C2742 0.959 . S
H2803 C2742 0.961 . S
H2804 C2742 0.959 . S
H2805 C2743 0.960 . S
H2806 C2743 0.960 . S
H2807 C2743 0.960 . S
H2808 C2779 0.980 . S
H2809 C2745 0.930 . S
H2810 C2749 0.930 . S
H2811 C2750 0.961 . S
H2812 C2750 0.960 . S
H2813 C2750 0.958 . S
H2814 C2751 0.961 . S
H2815 C2751 0.960 . S
H2816 C2751 0.960 . S
H2817 C2753 0.980 . S
H2818 C2752 0.961 . S
H2819 C2752 0.961 . S
H2820 C2752 0.959 . S
H2821 C2755 0.932 . S
H2822 C2759 0.929 . S
H2823 C2760 0.961 . S
H2824 C2760 0.959 . S
H2825 C2760 0.959 . S
H2826 C2761 0.960 . S
H2827 C2761 0.962 . S
H2828 C2761 0.961 . S
H2829 C2763 0.929 . S
H2830 C2766 0.930 . S
H2831 C2767 0.929 . S
H2832 C2770 0.930 . S
H2833 C2773 0.929 . S
H2834 C2774 0.930 . S
H2835 C2778 0.962 . S
H2836 C2778 0.959 . S
H2837 C2778 0.958 . S
C2838 C2839 1.560 . S
C2838 H2899 0.959 . S
C2838 H2900 0.959 . S
C2838 H2901 0.960 . S
C2839 C2838 1.560 . S
C2839 O2894 1.426 . S
C2839 H2898 0.980 . S
C2840 C2841 1.407 1_565 S
C2840 C2845 1.418 . S
C2840 O2894 1.334 . S
C2841 C2840 1.407 1_545 S
C2841 C2842 1.360 . S
C2841 H2902 0.929 . S
C2842 C2841 1.360 . S
C2842 C2843 1.401 1_545 S
C2842 C2846 1.527 . S
C2843 C2842 1.401 1_565 S
C2843 C2844 1.405 . S
C2843 C2876 1.587 1_565 S
C2844 C2843 1.405 . S
C2844 C2845 1.332 . S
C2844 C2847 1.496 . S
C2845 C2840 1.418 . S
C2845 C2844 1.332 . S
C2845 H2903 0.929 . S
C2846 C2842 1.527 . S
C2846 H2904 0.959 . S
C2846 H2905 0.961 . S
C2846 H2906 0.961 . S
C2847 C2844 1.496 . S
C2847 H2907 0.960 . S
C2847 H2908 0.960 . S
C2847 H2909 0.961 . S
C2848 C2849 1.517 . S
C2848 H2911 0.961 1_545 S
C2848 H2912 0.960 . S
C2848 H2913 0.959 . S
C2849 C2848 1.517 . S
C2849 O2897 1.468 . S
C2849 H2910 0.980 1_545 S
C2850 C2851 1.376 . S
C2850 C2855 1.367 . S
C2850 O2897 1.408 . S
C2851 C2850 1.376 . S
C2851 C2852 1.423 1_545 S
C2851 H2914 0.887 1_545 S
C2852 C2851 1.423 1_565 S
C2852 C2853 1.449 1_565 S
C2852 C2856 1.535 . S
C2853 C2852 1.449 1_545 S
C2853 C2854 1.384 . S
C2853 C2878 1.553 . S
C2854 C2853 1.384 . S
C2854 C2855 1.364 . S
C2854 C2857 1.450 . S
C2855 C2850 1.367 . S
C2855 C2854 1.364 . S
C2855 H2915 0.931 . S
C2856 C2852 1.535 . S
C2856 H2916 0.959 . S
C2856 H2917 0.961 . S
C2856 H2918 0.959 . S
C2857 C2854 1.450 . S
C2857 H2919 0.960 . S
C2857 H2920 0.960 . S
C2857 H2921 0.960 . S
C2858 C2859 1.309 . S
C2858 C2863 1.304 . S
C2858 O2896 1.435 . S
C2859 C2858 1.309 . S
C2859 C2860 1.490 1_545 S
C2859 H2923 0.930 1_545 S
C2860 C2859 1.490 1_565 S
C2860 C2861 1.355 1_565 S
C2860 C2864 1.598 . S
C2861 C2860 1.355 1_545 S
C2861 C2862 1.373 . S
C2861 C2883 1.432 . S
C2862 C2861 1.373 . S
C2862 C2863 1.339 . S
C2862 C2865 1.530 . S
C2863 C2858 1.304 . S
C2863 C2862 1.339 . S
C2863 H2924 0.930 . S
C2864 C2860 1.598 . S
C2864 H2925 0.961 . S
C2864 H2926 0.960 . S
C2864 H2927 0.958 . S
C2865 C2862 1.530 . S
C2865 H2928 0.961 . S
C2865 H2929 0.960 . S
C2865 H2930 0.960 . S
C2866 C2867 1.530 1_565 S
C2866 H2932 0.961 . S
C2866 H2933 0.961 . S
C2866 H2934 0.959 . S
C2867 C2866 1.530 1_545 S
C2867 O2895 1.412 1_545 S
C2867 H2931 0.980 . S
C2868 C2869 1.288 . S
C2868 C2873 1.377 1_565 S
C2868 O2895 1.393 . S
C2869 C2868 1.288 . S
C2869 C2870 1.369 . S
C2869 H2935 0.932 . S
C2870 C2869 1.369 . S
C2870 C2871 1.398 1_565 S
C2870 C2874 1.527 . S
C2871 C2870 1.398 1_545 S
C2871 C2872 1.380 . S
C2871 C2885 1.497 . S
C2872 C2871 1.380 . S
C2872 C2873 1.383 . S
C2872 C2875 1.603 . S
C2873 C2868 1.377 1_545 S
C2873 C2872 1.383 . S
C2873 H2936 0.929 . S
C2874 C2870 1.527 . S
C2874 H2937 0.961 . S
C2874 H2938 0.959 . S
C2874 H2939 0.959 . S
C2875 C2872 1.603 . S
C2875 H2940 0.960 . S
C2875 H2941 0.962 . S
C2875 H2942 0.961 . S
C2876 C2843 1.587 1_545 S
C2876 C2877 1.360 . S
C2876 C2889 1.412 . S
C2877 C2876 1.360 . S
C2877 C2878 1.365 . S
C2877 H2943 0.929 . S
C2878 C2853 1.553 . S
C2878 C2877 1.365 . S
C2878 C2879 1.404 . S
C2879 C2878 1.404 . S
C2879 C2880 1.395 . S
C2879 C2890 1.451 . S
C2880 C2879 1.395 . S
C2880 C2881 1.322 . S
C2880 H2944 0.930 . S
C2881 C2880 1.322 . S
C2881 C2882 1.459 . S
C2881 H2945 0.929 . S
C2882 C2881 1.459 . S
C2882 C2883 1.445 . S
C2882 C2891 1.395 . S
C2883 C2861 1.432 . S
C2883 C2882 1.445 . S
C2883 C2884 1.370 . S
C2884 C2883 1.370 . S
C2884 C2885 1.438 . S
C2884 H2946 0.930 . S
C2885 C2871 1.497 . S
C2885 C2884 1.438 . S
C2885 C2886 1.360 . S
C2886 C2885 1.360 . S
C2886 C2887 1.401 . S
C2886 C2891 1.446 . S
C2887 C2886 1.401 . S
C2887 C2888 1.347 . S
C2887 H2947 0.929 . S
C2888 C2887 1.347 . S
C2888 C2889 1.455 . S
C2888 H2948 0.930 . S
C2889 C2876 1.412 . S
C2889 C2888 1.455 . S
C2889 C2890 1.331 . S
C2890 C2879 1.451 . S
C2890 C2889 1.331 . S
C2890 C2891 1.497 . S
C2891 C2882 1.395 . S
C2891 C2886 1.446 . S
C2891 C2890 1.497 . S
C2892 C2893 1.582 . S
C2892 H2949 0.962 . S
C2892 H2950 0.959 . S
C2892 H2951 0.958 . S
C2893 C2892 1.582 . S
C2893 O2896 1.458 . S
C2893 H2922 0.980 . S
O2894 C2839 1.426 . S
O2894 C2840 1.334 . S
O2895 C2867 1.412 1_565 S
O2895 C2868 1.393 . S
O2896 C2858 1.435 . S
O2896 C2893 1.458 . S
O2897 C2849 1.468 . S
O2897 C2850 1.408 . S
H2898 C2839 0.980 . S
H2899 C2838 0.959 . S
H2900 C2838 0.959 . S
H2901 C2838 0.960 . S
H2902 C2841 0.929 . S
H2903 C2845 0.929 . S
H2904 C2846 0.959 . S
H2905 C2846 0.961 . S
H2906 C2846 0.961 . S
H2907 C2847 0.960 . S
H2908 C2847 0.960 . S
H2909 C2847 0.961 . S
H2910 C2849 0.980 1_565 S
H2911 C2848 0.961 1_565 S
H2912 C2848 0.960 . S
H2913 C2848 0.959 . S
H2914 C2851 0.887 1_565 S
H2915 C2855 0.931 . S
H2916 C2856 0.959 . S
H2917 C2856 0.961 . S
H2918 C2856 0.959 . S
H2919 C2857 0.960 . S
H2920 C2857 0.960 . S
H2921 C2857 0.960 . S
H2922 C2893 0.980 . S
H2923 C2859 0.930 1_565 S
H2924 C2863 0.930 . S
H2925 C2864 0.961 . S
H2926 C2864 0.960 . S
H2927 C2864 0.958 . S
H2928 C2865 0.961 . S
H2929 C2865 0.960 . S
H2930 C2865 0.960 . S
H2931 C2867 0.980 . S
H2932 C2866 0.961 . S
H2933 C2866 0.961 . S
H2934 C2866 0.959 . S
H2935 C2869 0.932 . S
H2936 C2873 0.929 . S
H2937 C2874 0.961 . S
H2938 C2874 0.959 . S
H2939 C2874 0.959 . S
H2940 C2875 0.960 . S
H2941 C2875 0.962 . S
H2942 C2875 0.961 . S
H2943 C2877 0.929 . S
H2944 C2880 0.930 . S
H2945 C2881 0.929 . S
H2946 C2884 0.930 . S
H2947 C2887 0.929 . S
H2948 C2888 0.930 . S
H2949 C2892 0.962 . S
H2950 C2892 0.959 . S
H2951 C2892 0.958 . S
C2952 C2953 1.560 . S
C2952 H3013 0.959 . S
C2952 H3014 0.959 . S
C2952 H3015 0.960 . S
C2953 C2952 1.560 . S
C2953 O3008 1.426 . S
C2953 H3012 0.980 1_565 S
C2954 C2955 1.407 1_565 S
C2954 C2959 1.418 . S
C2954 O3008 1.334 . S
C2955 C2954 1.407 1_545 S
C2955 C2956 1.360 . S
C2955 H3016 0.929 . S
C2956 C2955 1.360 . S
C2956 C2957 1.401 . S
C2956 C2960 1.527 . S
C2957 C2956 1.401 . S
C2957 C2958 1.405 1_545 S
C2957 C2990 1.587 . S
C2958 C2957 1.405 1_565 S
C2958 C2959 1.332 . S
C2958 C2961 1.496 . S
C2959 C2954 1.418 . S
C2959 C2958 1.332 . S
C2959 H3017 0.929 . S
C2960 C2956 1.527 . S
C2960 H3018 0.959 . S
C2960 H3019 0.961 . S
C2960 H3020 0.961 . S
C2961 C2958 1.496 . S
C2961 H3021 0.960 . S
C2961 H3022 0.960 . S
C2961 H3023 0.961 . S
C2962 C2963 1.517 . S
C2962 H3025 0.961 . S
C2962 H3026 0.960 . S
C2962 H3027 0.959 . S
C2963 C2962 1.517 . S
C2963 O3011 1.468 . S
C2963 H3024 0.980 . S
C2964 C2965 1.349 . S
C2964 C2969 1.367 . S
C2964 O3011 1.408 . S
C2965 C2964 1.349 . S
C2965 C2966 1.407 . S
C2965 H3028 0.935 . S
C2966 C2965 1.407 . S
C2966 C2967 1.449 . S
C2966 C2970 1.535 1_545 S
C2967 C2966 1.449 . S
C2967 C2968 1.384 . S
C2967 C2992 1.553 . S
C2968 C2967 1.384 . S
C2968 C2969 1.364 . S
C2968 C2971 1.450 . S
C2969 C2964 1.367 . S
C2969 C2968 1.364 . S
C2969 H3029 0.931 . S
C2970 C2966 1.535 1_565 S
C2970 H3030 0.959 . S
C2970 H3031 0.961 . S
C2970 H3032 0.959 . S
C2971 C2968 1.450 . S
C2971 H3033 0.960 . S
C2971 H3034 0.960 . S
C2971 H3035 0.960 . S
C2972 C2973 1.309 1_545 S
C2972 C2977 1.304 . S
C2972 O3010 1.435 . S
C2973 C2972 1.309 1_565 S
C2973 C2974 1.476 . S
C2973 H3037 0.930 . S
C2974 C2973 1.476 . S
C2974 C2975 1.400 1_565 S
C2974 C2978 1.567 . S
C2975 C2974 1.400 1_545 S
C2975 C2976 1.373 . S
C2975 C2997 1.432 . S
C2976 C2975 1.373 . S
C2976 C2977 1.339 . S
C2976 C2979 1.530 . S
C2977 C2972 1.304 . S
C2977 C2976 1.339 . S
C2977 H3038 0.930 . S
C2978 C2974 1.567 . S
C2978 H3039 0.961 . S
C2978 H3040 0.960 . S
C2978 H3041 0.958 . S
C2979 C2976 1.530 . S
C2979 H3042 0.961 . S
C2979 H3043 0.960 . S
C2979 H3044 0.960 . S
C2980 C2981 1.530 . S
C2980 H3046 0.961 . S
C2980 H3047 0.961 . S
C2980 H3048 0.959 . S
C2981 C2980 1.530 . S
C2981 O3009 1.412 . S
C2981 H3045 1.009 . S
C2982 C2983 1.288 . S
C2982 C2987 1.377 1_565 S
C2982 O3009 1.393 . S
C2983 C2982 1.288 . S
C2983 C2984 1.369 . S
C2983 H3049 0.932 . S
C2984 C2983 1.369 . S
C2984 C2985 1.398 . S
C2984 C2988 1.527 . S
C2985 C2984 1.398 . S
C2985 C2986 1.380 1_565 S
C2985 C2999 1.497 1_565 S
C2986 C2985 1.380 1_545 S
C2986 C2987 1.383 . S
C2986 C2989 1.603 . S
C2987 C2982 1.377 1_545 S
C2987 C2986 1.383 . S
C2987 H3050 0.929 . S
C2988 C2984 1.527 . S
C2988 H3051 0.961 . S
C2988 H3052 0.959 . S
C2988 H3053 0.959 . S
C2989 C2986 1.603 . S
C2989 H3054 0.960 . S
C2989 H3055 0.962 . S
C2989 H3056 0.961 . S
C2990 C2957 1.587 . S
C2990 C2991 1.360 . S
C2990 C3003 1.412 . S
C2991 C2990 1.360 . S
C2991 C2992 1.365 . S
C2991 H3057 0.929 . S
C2992 C2967 1.553 . S
C2992 C2991 1.365 . S
C2992 C2993 1.404 . S
C2993 C2992 1.404 . S
C2993 C2994 1.395 . S
C2993 C3004 1.451 . S
C2994 C2993 1.395 . S
C2994 C2995 1.322 . S
C2994 H3058 0.930 . S
C2995 C2994 1.322 . S
C2995 C2996 1.459 . S
C2995 H3059 0.929 . S
C2996 C2995 1.459 . S
C2996 C2997 1.445 . S
C2996 C3005 1.395 . S
C2997 C2975 1.432 . S
C2997 C2996 1.445 . S
C2997 C2998 1.370 . S
C2998 C2997 1.370 . S
C2998 C2999 1.438 . S
C2998 H3060 0.930 . S
C2999 C2985 1.497 1_545 S
C2999 C2998 1.438 . S
C2999 C3000 1.360 . S
C3000 C2999 1.360 . S
C3000 C3001 1.401 . S
C3000 C3005 1.446 . S
C3001 C3000 1.401 . S
C3001 C3002 1.347 . S
C3001 H3061 0.959 . S
C3002 C3001 1.347 . S
C3002 C3003 1.455 . S
C3002 H3062 0.930 . S
C3003 C2990 1.412 . S
C3003 C3002 1.455 . S
C3003 C3004 1.331 . S
C3004 C2993 1.451 . S
C3004 C3003 1.331 . S
C3004 C3005 1.497 . S
C3005 C2996 1.395 . S
C3005 C3000 1.446 . S
C3005 C3004 1.497 . S
C3006 C3007 1.632 . S
C3006 H3063 0.962 . S
C3006 H3064 0.959 . S
C3006 H3065 0.958 . S
C3007 C3006 1.632 . S
C3007 O3010 1.478 . S
C3007 H3036 0.981 1_545 S
O3008 C2953 1.426 . S
O3008 C2954 1.334 . S
O3009 C2981 1.412 . S
O3009 C2982 1.393 . S
O3010 C2972 1.435 . S
O3010 C3007 1.478 . S
O3011 C2963 1.468 . S
O3011 C2964 1.408 . S
H3012 C2953 0.980 1_545 S
H3013 C2952 0.959 . S
H3014 C2952 0.959 . S
H3015 C2952 0.960 . S
H3016 C2955 0.929 . S
H3017 C2959 0.929 . S
H3018 C2960 0.959 . S
H3019 C2960 0.961 . S
H3020 C2960 0.961 . S
H3021 C2961 0.960 . S
H3022 C2961 0.960 . S
H3023 C2961 0.961 . S
H3024 C2963 0.980 . S
H3025 C2962 0.961 . S
H3026 C2962 0.960 . S
H3027 C2962 0.959 . S
H3028 C2965 0.935 . S
H3029 C2969 0.931 . S
H3030 C2970 0.959 . S
H3031 C2970 0.961 . S
H3032 C2970 0.959 . S
H3033 C2971 0.960 . S
H3034 C2971 0.960 . S
H3035 C2971 0.960 . S
H3036 C3007 0.981 1_565 S
H3037 C2973 0.930 . S
H3038 C2977 0.930 . S
H3039 C2978 0.961 . S
H3040 C2978 0.960 . S
H3041 C2978 0.958 . S
H3042 C2979 0.961 . S
H3043 C2979 0.960 . S
H3044 C2979 0.960 . S
H3045 C2981 1.009 . S
H3046 C2980 0.961 . S
H3047 C2980 0.961 . S
H3048 C2980 0.959 . S
H3049 C2983 0.932 . S
H3050 C2987 0.929 . S
H3051 C2988 0.961 . S
H3052 C2988 0.959 . S
H3053 C2988 0.959 . S
H3054 C2989 0.960 . S
H3055 C2989 0.962 . S
H3056 C2989 0.961 . S
H3057 C2991 0.929 . S
H3058 C2994 0.930 . S
H3059 C2995 0.929 . S
H3060 C2998 0.930 . S
H3061 C3001 0.959 . S
H3062 C3002 0.930 . S
H3063 C3006 0.962 . S
H3064 C3006 0.959 . S
H3065 C3006 0.958 . S
C3066 C3067 1.560 . S
C3066 H3127 0.959 . S
C3066 H3128 0.959 . S
C3066 H3129 0.960 . S
C3067 C3066 1.560 . S
C3067 O3122 1.426 . S
C3067 H3126 0.980 1_455 S
C3068 C3069 1.407 1_455 S
C3068 C3073 1.418 . S
C3068 O3122 1.334 . S
C3069 C3068 1.407 1_655 S
C3069 C3070 1.360 . S
C3069 H3130 0.929 . S
C3070 C3069 1.360 . S
C3070 C3071 1.401 . S
C3070 C3074 1.527 . S
C3071 C3070 1.401 . S
C3071 C3072 1.405 1_655 S
C3071 C3104 1.587 . S
C3072 C3071 1.405 1_455 S
C3072 C3073 1.332 . S
C3072 C3075 1.496 . S
C3073 C3068 1.418 . S
C3073 C3072 1.332 . S
C3073 H3131 0.929 . S
C3074 C3070 1.527 . S
C3074 H3132 0.959 . S
C3074 H3133 0.961 . S
C3074 H3134 0.961 . S
C3075 C3072 1.496 . S
C3075 H3135 0.960 . S
C3075 H3136 0.960 . S
C3075 H3137 0.961 . S
C3076 C3077 1.517 . S
C3076 H3139 0.961 . S
C3076 H3140 0.960 . S
C3076 H3141 0.959 . S
C3077 C3076 1.517 . S
C3077 O3125 1.468 . S
C3077 H3138 0.980 . S
C3078 C3079 1.349 . S
C3078 C3083 1.367 . S
C3078 O3125 1.408 . S
C3079 C3078 1.349 . S
C3079 C3080 1.407 . S
C3079 H3142 0.940 1_655 S
C3080 C3079 1.407 . S
C3080 C3081 1.449 . S
C3080 C3084 1.535 1_655 S
C3081 C3080 1.449 . S
C3081 C3082 1.384 . S
C3081 C3106 1.553 . S
C3082 C3081 1.384 . S
C3082 C3083 1.364 . S
C3082 C3085 1.450 . S
C3083 C3078 1.367 . S
C3083 C3082 1.364 . S
C3083 H3143 0.931 . S
C3084 C3080 1.535 1_455 S
C3084 H3144 0.959 . S
C3084 H3145 0.961 . S
C3084 H3146 0.959 . S
C3085 C3082 1.450 . S
C3085 H3147 0.960 . S
C3085 H3148 0.960 . S
C3085 H3149 0.960 . S
C3086 C3087 1.309 1_655 S
C3086 C3091 1.304 . S
C3086 O3124 1.435 . S
C3087 C3086 1.309 1_455 S
C3087 C3088 1.476 . S
C3087 H3151 0.930 . S
C3088 C3087 1.476 . S
C3088 C3089 1.400 1_455 S
C3088 C3092 1.567 . S
C3089 C3088 1.400 1_655 S
C3089 C3090 1.373 . S
C3089 C3111 1.432 . S
C3090 C3089 1.373 . S
C3090 C3091 1.339 . S
C3090 C3093 1.530 . S
C3091 C3086 1.304 . S
C3091 C3090 1.339 . S
C3091 H3152 0.930 . S
C3092 C3088 1.567 . S
C3092 H3153 0.961 . S
C3092 H3154 0.960 . S
C3092 H3155 0.958 . S
C3093 C3090 1.530 . S
C3093 H3156 0.961 . S
C3093 H3157 0.960 . S
C3093 H3158 0.960 . S
C3094 C3095 1.530 . S
C3094 H3160 0.961 . S
C3094 H3161 0.961 . S
C3094 H3162 0.959 . S
C3095 C3094 1.530 . S
C3095 O3123 1.412 . S
C3095 H3159 0.983 . S
C3096 C3097 1.288 . S
C3096 C3101 1.377 1_455 S
C3096 O3123 1.393 . S
C3097 C3096 1.288 . S
C3097 C3098 1.369 . S
C3097 H3163 0.932 . S
C3098 C3097 1.369 . S
C3098 C3099 1.398 . S
C3098 C3102 1.527 . S
C3099 C3098 1.398 . S
C3099 C3100 1.380 1_455 S
C3099 C3113 1.497 1_455 S
C3100 C3099 1.380 1_655 S
C3100 C3101 1.383 . S
C3100 C3103 1.603 . S
C3101 C3096 1.377 1_655 S
C3101 C3100 1.383 . S
C3101 H3164 0.929 . S
C3102 C3098 1.527 . S
C3102 H3165 0.961 . S
C3102 H3166 0.959 . S
C3102 H3167 0.959 . S
C3103 C3100 1.603 . S
C3103 H3168 0.960 . S
C3103 H3169 0.962 . S
C3103 H3170 0.961 . S
C3104 C3071 1.587 . S
C3104 C3105 1.360 . S
C3104 C3117 1.412 . S
C3105 C3104 1.360 . S
C3105 C3106 1.365 . S
C3105 H3171 0.929 . S
C3106 C3081 1.553 . S
C3106 C3105 1.365 . S
C3106 C3107 1.404 . S
C3107 C3106 1.404 . S
C3107 C3108 1.395 . S
C3107 C3118 1.451 . S
C3108 C3107 1.395 . S
C3108 C3109 1.322 . S
C3108 H3172 0.930 . S
C3109 C3108 1.322 . S
C3109 C3110 1.459 . S
C3109 H3173 0.929 . S
C3110 C3109 1.459 . S
C3110 C3111 1.445 . S
C3110 C3119 1.395 . S
C3111 C3089 1.432 . S
C3111 C3110 1.445 . S
C3111 C3112 1.370 . S
C3112 C3111 1.370 . S
C3112 C3113 1.438 . S
C3112 H3174 0.930 . S
C3113 C3099 1.497 1_655 S
C3113 C3112 1.438 . S
C3113 C3114 1.360 . S
C3114 C3113 1.360 . S
C3114 C3115 1.401 . S
C3114 C3119 1.446 . S
C3115 C3114 1.401 . S
C3115 C3116 1.347 . S
C3115 H3175 0.909 . S
C3116 C3115 1.347 . S
C3116 C3117 1.455 . S
C3116 H3176 0.930 . S
C3117 C3104 1.412 . S
C3117 C3116 1.455 . S
C3117 C3118 1.331 . S
C3118 C3107 1.451 . S
C3118 C3117 1.331 . S
C3118 C3119 1.497 . S
C3119 C3110 1.395 . S
C3119 C3114 1.446 . S
C3119 C3118 1.497 . S
C3120 C3121 1.582 1_655 S
C3120 H3177 0.958 1_655 S
C3120 H3178 0.959 . S
C3120 H3179 0.958 . S
C3121 C3120 1.582 1_455 S
C3121 O3124 1.384 1_455 S
C3121 H3150 1.011 . S
O3122 C3067 1.426 . S
O3122 C3068 1.334 . S
O3123 C3095 1.412 . S
O3123 C3096 1.393 . S
O3124 C3086 1.435 . S
O3124 C3121 1.384 1_655 S
O3125 C3077 1.468 . S
O3125 C3078 1.408 . S
H3126 C3067 0.980 1_655 S
H3127 C3066 0.959 . S
H3128 C3066 0.959 . S
H3129 C3066 0.960 . S
H3130 C3069 0.929 . S
H3131 C3073 0.929 . S
H3132 C3074 0.959 . S
H3133 C3074 0.961 . S
H3134 C3074 0.961 . S
H3135 C3075 0.960 . S
H3136 C3075 0.960 . S
H3137 C3075 0.961 . S
H3138 C3077 0.980 . S
H3139 C3076 0.961 . S
H3140 C3076 0.960 . S
H3141 C3076 0.959 . S
H3142 C3079 0.940 1_455 S
H3143 C3083 0.931 . S
H3144 C3084 0.959 . S
H3145 C3084 0.961 . S
H3146 C3084 0.959 . S
H3147 C3085 0.960 . S
H3148 C3085 0.960 . S
H3149 C3085 0.960 . S
H3150 C3121 1.011 . S
H3151 C3087 0.930 . S
H3152 C3091 0.930 . S
H3153 C3092 0.961 . S
H3154 C3092 0.960 . S
H3155 C3092 0.958 . S
H3156 C3093 0.961 . S
H3157 C3093 0.960 . S
H3158 C3093 0.960 . S
H3159 C3095 0.983 . S
H3160 C3094 0.961 . S
H3161 C3094 0.961 . S
H3162 C3094 0.959 . S
H3163 C3097 0.932 . S
H3164 C3101 0.929 . S
H3165 C3102 0.961 . S
H3166 C3102 0.959 . S
H3167 C3102 0.959 . S
H3168 C3103 0.960 . S
H3169 C3103 0.962 . S
H3170 C3103 0.961 . S
H3171 C3105 0.929 . S
H3172 C3108 0.930 . S
H3173 C3109 0.929 . S
H3174 C3112 0.930 . S
H3175 C3115 0.909 . S
H3176 C3116 0.930 . S
H3177 C3120 0.958 1_455 S
H3178 C3120 0.959 . S
H3179 C3120 0.958 . S
C3180 C3181 1.560 . S
C3180 H3241 0.959 . S
C3180 H3242 0.959 . S
C3180 H3243 0.960 . S
C3181 C3180 1.560 . S
C3181 O3236 1.426 . S
C3181 H3240 0.980 . S
C3182 C3183 1.407 . S
C3182 C3187 1.418 . S
C3182 O3236 1.334 . S
C3183 C3182 1.407 . S
C3183 C3184 1.360 . S
C3183 H3244 0.929 . S
C3184 C3183 1.360 . S
C3184 C3185 1.401 . S
C3184 C3188 1.527 . S
C3185 C3184 1.401 . S
C3185 C3186 1.405 . S
C3185 C3218 1.587 . S
C3186 C3185 1.405 . S
C3186 C3187 1.332 . S
C3186 C3189 1.496 . S
C3187 C3182 1.418 . S
C3187 C3186 1.332 . S
C3187 H3245 0.929 . S
C3188 C3184 1.527 . S
C3188 H3246 0.959 . S
C3188 H3247 0.961 . S
C3188 H3248 0.961 . S
C3189 C3186 1.496 . S
C3189 H3249 0.960 . S
C3189 H3250 0.960 . S
C3189 H3251 0.961 . S
C3190 C3191 1.517 . S
C3190 H3253 0.961 . S
C3190 H3254 0.960 . S
C3190 H3255 0.959 . S
C3191 C3190 1.517 . S
C3191 O3239 1.468 . S
C3191 H3252 0.980 . S
C3192 C3193 1.349 . S
C3192 C3197 1.367 . S
C3192 O3239 1.408 . S
C3193 C3192 1.349 . S
C3193 C3194 1.407 . S
C3193 H3256 0.930 . S
C3194 C3193 1.407 . S
C3194 C3195 1.449 . S
C3194 C3198 1.535 . S
C3195 C3194 1.449 . S
C3195 C3196 1.384 . S
C3195 C3220 1.553 . S
C3196 C3195 1.384 . S
C3196 C3197 1.364 . S
C3196 C3199 1.450 . S
C3197 C3192 1.367 . S
C3197 C3196 1.364 . S
C3197 H3257 0.931 . S
C3198 C3194 1.535 . S
C3198 H3258 0.959 . S
C3198 H3259 0.961 . S
C3198 H3260 0.959 . S
C3199 C3196 1.450 . S
C3199 H3261 0.960 . S
C3199 H3262 0.960 . S
C3199 H3263 0.960 . S
C3200 C3201 1.309 . S
C3200 C3205 1.304 . S
C3200 O3238 1.435 . S
C3201 C3200 1.309 . S
C3201 C3202 1.476 . S
C3201 H3265 0.930 . S
C3202 C3201 1.476 . S
C3202 C3203 1.400 . S
C3202 C3206 1.567 . S
C3203 C3202 1.400 . S
C3203 C3204 1.373 . S
C3203 C3225 1.432 . S
C3204 C3203 1.373 . S
C3204 C3205 1.339 . S
C3204 C3207 1.530 . S
C3205 C3200 1.304 . S
C3205 C3204 1.339 . S
C3205 H3266 0.930 . S
C3206 C3202 1.567 . S
C3206 H3267 0.961 . S
C3206 H3268 0.960 . S
C3206 H3269 0.958 . S
C3207 C3204 1.530 . S
C3207 H3270 0.961 . S
C3207 H3271 0.960 . S
C3207 H3272 0.960 . S
C3208 C3209 1.530 . S
C3208 H3274 0.961 . S
C3208 H3275 0.961 . S
C3208 H3276 0.959 . S
C3209 C3208 1.530 . S
C3209 O3237 1.412 . S
C3209 H3273 0.980 . S
C3210 C3211 1.288 . S
C3210 C3215 1.377 . S
C3210 O3237 1.393 . S
C3211 C3210 1.288 . S
C3211 C3212 1.369 . S
C3211 H3277 0.932 . S
C3212 C3211 1.369 . S
C3212 C3213 1.398 . S
C3212 C3216 1.527 . S
C3213 C3212 1.398 . S
C3213 C3214 1.380 . S
C3213 C3227 1.497 . S
C3214 C3213 1.380 . S
C3214 C3215 1.383 . S
C3214 C3217 1.603 . S
C3215 C3210 1.377 . S
C3215 C3214 1.383 . S
C3215 H3278 0.929 . S
C3216 C3212 1.527 . S
C3216 H3279 0.961 . S
C3216 H3280 0.959 . S
C3216 H3281 0.959 . S
C3217 C3214 1.603 . S
C3217 H3282 0.960 . S
C3217 H3283 0.962 . S
C3217 H3284 0.961 . S
C3218 C3185 1.587 . S
C3218 C3219 1.360 . S
C3218 C3231 1.412 . S
C3219 C3218 1.360 . S
C3219 C3220 1.365 . S
C3219 H3285 0.929 . S
C3220 C3195 1.553 . S
C3220 C3219 1.365 . S
C3220 C3221 1.404 . S
C3221 C3220 1.404 . S
C3221 C3222 1.395 . S
C3221 C3232 1.451 . S
C3222 C3221 1.395 . S
C3222 C3223 1.322 . S
C3222 H3286 0.930 . S
C3223 C3222 1.322 . S
C3223 C3224 1.459 . S
C3223 H3287 0.929 . S
C3224 C3223 1.459 . S
C3224 C3225 1.445 . S
C3224 C3233 1.395 . S
C3225 C3203 1.432 . S
C3225 C3224 1.445 . S
C3225 C3226 1.370 . S
C3226 C3225 1.370 . S
C3226 C3227 1.438 . S
C3226 H3288 0.930 . S
C3227 C3213 1.497 . S
C3227 C3226 1.438 . S
C3227 C3228 1.360 . S
C3228 C3227 1.360 . S
C3228 C3229 1.401 . S
C3228 C3233 1.446 . S
C3229 C3228 1.401 . S
C3229 C3230 1.347 . S
C3229 H3289 0.929 . S
C3230 C3229 1.347 . S
C3230 C3231 1.455 . S
C3230 H3290 0.930 . S
C3231 C3218 1.412 . S
C3231 C3230 1.455 . S
C3231 C3232 1.331 . S
C3232 C3221 1.451 . S
C3232 C3231 1.331 . S
C3232 C3233 1.497 . S
C3233 C3224 1.395 . S
C3233 C3228 1.446 . S
C3233 C3232 1.497 . S
C3234 C3235 1.582 . S
C3234 H3291 0.962 . S
C3234 H3292 0.959 . S
C3234 H3293 0.958 . S
C3235 C3234 1.582 . S
C3235 O3238 1.458 . S
C3235 H3264 0.980 . S
O3236 C3181 1.426 . S
O3236 C3182 1.334 . S
O3237 C3209 1.412 . S
O3237 C3210 1.393 . S
O3238 C3200 1.435 . S
O3238 C3235 1.458 . S
O3239 C3191 1.468 . S
O3239 C3192 1.408 . S
H3240 C3181 0.980 . S
H3241 C3180 0.959 . S
H3242 C3180 0.959 . S
H3243 C3180 0.960 . S
H3244 C3183 0.929 . S
H3245 C3187 0.929 . S
H3246 C3188 0.959 . S
H3247 C3188 0.961 . S
H3248 C3188 0.961 . S
H3249 C3189 0.960 . S
H3250 C3189 0.960 . S
H3251 C3189 0.961 . S
H3252 C3191 0.980 . S
H3253 C3190 0.961 . S
H3254 C3190 0.960 . S
H3255 C3190 0.959 . S
H3256 C3193 0.930 . S
H3257 C3197 0.931 . S
H3258 C3198 0.959 . S
H3259 C3198 0.961 . S
H3260 C3198 0.959 . S
H3261 C3199 0.960 . S
H3262 C3199 0.960 . S
H3263 C3199 0.960 . S
H3264 C3235 0.980 . S
H3265 C3201 0.930 . S
H3266 C3205 0.930 . S
H3267 C3206 0.961 . S
H3268 C3206 0.960 . S
H3269 C3206 0.958 . S
H3270 C3207 0.961 . S
H3271 C3207 0.960 . S
H3272 C3207 0.960 . S
H3273 C3209 0.980 . S
H3274 C3208 0.961 . S
H3275 C3208 0.961 . S
H3276 C3208 0.959 . S
H3277 C3211 0.932 . S
H3278 C3215 0.929 . S
H3279 C3216 0.961 . S
H3280 C3216 0.959 . S
H3281 C3216 0.959 . S
H3282 C3217 0.960 . S
H3283 C3217 0.962 . S
H3284 C3217 0.961 . S
H3285 C3219 0.929 . S
H3286 C3222 0.930 . S
H3287 C3223 0.929 . S
H3288 C3226 0.930 . S
H3289 C3229 0.929 . S
H3290 C3230 0.930 . S
H3291 C3234 0.962 . S
H3292 C3234 0.959 . S
H3293 C3234 0.958 . S
C3294 C3295 1.560 . S
C3294 H3355 0.959 . S
C3294 H3356 0.959 . S
C3294 H3357 0.960 . S
C3295 C3294 1.560 . S
C3295 O3350 1.426 . S
C3295 H3354 0.980 . S
C3296 C3297 1.407 . S
C3296 C3301 1.418 . S
C3296 O3350 1.334 . S
C3297 C3296 1.407 . S
C3297 C3298 1.360 . S
C3297 H3358 0.929 . S
C3298 C3297 1.360 . S
C3298 C3299 1.401 . S
C3298 C3302 1.527 . S
C3299 C3298 1.401 . S
C3299 C3300 1.405 . S
C3299 C3332 1.587 . S
C3300 C3299 1.405 . S
C3300 C3301 1.332 . S
C3300 C3303 1.496 . S
C3301 C3296 1.418 . S
C3301 C3300 1.332 . S
C3301 H3359 0.929 . S
C3302 C3298 1.527 . S
C3302 H3360 0.959 . S
C3302 H3361 0.961 . S
C3302 H3362 0.961 . S
C3303 C3300 1.496 . S
C3303 H3363 0.960 . S
C3303 H3364 0.960 . S
C3303 H3365 0.961 . S
C3304 C3305 1.517 . S
C3304 H3367 0.961 . S
C3304 H3368 0.960 . S
C3304 H3369 0.959 . S
C3305 C3304 1.517 . S
C3305 O3353 1.468 . S
C3305 H3366 0.980 . S
C3306 C3307 1.349 . S
C3306 C3311 1.367 . S
C3306 O3353 1.408 . S
C3307 C3306 1.349 . S
C3307 C3308 1.407 . S
C3307 H3370 0.930 . S
C3308 C3307 1.407 . S
C3308 C3309 1.449 . S
C3308 C3312 1.535 . S
C3309 C3308 1.449 . S
C3309 C3310 1.384 . S
C3309 C3334 1.553 . S
C3310 C3309 1.384 . S
C3310 C3311 1.364 . S
C3310 C3313 1.450 . S
C3311 C3306 1.367 . S
C3311 C3310 1.364 . S
C3311 H3371 0.931 . S
C3312 C3308 1.535 . S
C3312 H3372 0.959 . S
C3312 H3373 0.961 . S
C3312 H3374 0.959 . S
C3313 C3310 1.450 . S
C3313 H3375 0.960 . S
C3313 H3376 0.960 . S
C3313 H3377 0.960 . S
C3314 C3315 1.309 . S
C3314 C3319 1.304 . S
C3314 O3352 1.435 . S
C3315 C3314 1.309 . S
C3315 C3316 1.476 . S
C3315 H3379 0.930 . S
C3316 C3315 1.476 . S
C3316 C3317 1.400 . S
C3316 C3320 1.567 . S
C3317 C3316 1.400 . S
C3317 C3318 1.373 . S
C3317 C3339 1.432 . S
C3318 C3317 1.373 . S
C3318 C3319 1.339 . S
C3318 C3321 1.530 . S
C3319 C3314 1.304 . S
C3319 C3318 1.339 . S
C3319 H3380 0.930 . S
C3320 C3316 1.567 . S
C3320 H3381 0.961 . S
C3320 H3382 0.960 . S
C3320 H3383 0.958 . S
C3321 C3318 1.530 . S
C3321 H3384 0.961 . S
C3321 H3385 0.960 . S
C3321 H3386 0.960 . S
C3322 C3323 1.530 . S
C3322 H3388 0.961 . S
C3322 H3389 0.961 . S
C3322 H3390 0.959 . S
C3323 C3322 1.530 . S
C3323 O3351 1.412 . S
C3323 H3387 0.980 . S
C3324 C3325 1.288 . S
C3324 C3329 1.377 . S
C3324 O3351 1.393 . S
C3325 C3324 1.288 . S
C3325 C3326 1.369 . S
C3325 H3391 0.932 . S
C3326 C3325 1.369 . S
C3326 C3327 1.398 . S
C3326 C3330 1.527 . S
C3327 C3326 1.398 . S
C3327 C3328 1.380 . S
C3327 C3341 1.497 . S
C3328 C3327 1.380 . S
C3328 C3329 1.383 . S
C3328 C3331 1.603 . S
C3329 C3324 1.377 . S
C3329 C3328 1.383 . S
C3329 H3392 0.929 . S
C3330 C3326 1.527 . S
C3330 H3393 0.961 . S
C3330 H3394 0.959 . S
C3330 H3395 0.959 . S
C3331 C3328 1.603 . S
C3331 H3396 0.960 . S
C3331 H3397 0.962 . S
C3331 H3398 0.961 . S
C3332 C3299 1.587 . S
C3332 C3333 1.360 . S
C3332 C3345 1.412 . S
C3333 C3332 1.360 . S
C3333 C3334 1.365 . S
C3333 H3399 0.929 . S
C3334 C3309 1.553 . S
C3334 C3333 1.365 . S
C3334 C3335 1.404 . S
C3335 C3334 1.404 . S
C3335 C3336 1.395 . S
C3335 C3346 1.451 . S
C3336 C3335 1.395 . S
C3336 C3337 1.322 . S
C3336 H3400 0.930 . S
C3337 C3336 1.322 . S
C3337 C3338 1.459 . S
C3337 H3401 0.929 . S
C3338 C3337 1.459 . S
C3338 C3339 1.445 . S
C3338 C3347 1.395 . S
C3339 C3317 1.432 . S
C3339 C3338 1.445 . S
C3339 C3340 1.370 . S
C3340 C3339 1.370 . S
C3340 C3341 1.438 . S
C3340 H3402 0.930 . S
C3341 C3327 1.497 . S
C3341 C3340 1.438 . S
C3341 C3342 1.360 . S
C3342 C3341 1.360 . S
C3342 C3343 1.401 . S
C3342 C3347 1.446 . S
C3343 C3342 1.401 . S
C3343 C3344 1.347 . S
C3343 H3403 0.929 . S
C3344 C3343 1.347 . S
C3344 C3345 1.455 . S
C3344 H3404 0.930 . S
C3345 C3332 1.412 . S
C3345 C3344 1.455 . S
C3345 C3346 1.331 . S
C3346 C3335 1.451 . S
C3346 C3345 1.331 . S
C3346 C3347 1.497 . S
C3347 C3338 1.395 . S
C3347 C3342 1.446 . S
C3347 C3346 1.497 . S
C3348 C3349 1.582 . S
C3348 H3405 0.962 . S
C3348 H3406 0.959 . S
C3348 H3407 0.958 . S
C3349 C3348 1.582 . S
C3349 O3352 1.458 . S
C3349 H3378 0.980 . S
O3350 C3295 1.426 . S
O3350 C3296 1.334 . S
O3351 C3323 1.412 . S
O3351 C3324 1.393 . S
O3352 C3314 1.435 . S
O3352 C3349 1.458 . S
O3353 C3305 1.468 . S
O3353 C3306 1.408 . S
H3354 C3295 0.980 . S
H3355 C3294 0.959 . S
H3356 C3294 0.959 . S
H3357 C3294 0.960 . S
H3358 C3297 0.929 . S
H3359 C3301 0.929 . S
H3360 C3302 0.959 . S
H3361 C3302 0.961 . S
H3362 C3302 0.961 . S
H3363 C3303 0.960 . S
H3364 C3303 0.960 . S
H3365 C3303 0.961 . S
H3366 C3305 0.980 . S
H3367 C3304 0.961 . S
H3368 C3304 0.960 . S
H3369 C3304 0.959 . S
H3370 C3307 0.930 . S
H3371 C3311 0.931 . S
H3372 C3312 0.959 . S
H3373 C3312 0.961 . S
H3374 C3312 0.959 . S
H3375 C3313 0.960 . S
H3376 C3313 0.960 . S
H3377 C3313 0.960 . S
H3378 C3349 0.980 . S
H3379 C3315 0.930 . S
H3380 C3319 0.930 . S
H3381 C3320 0.961 . S
H3382 C3320 0.960 . S
H3383 C3320 0.958 . S
H3384 C3321 0.961 . S
H3385 C3321 0.960 . S
H3386 C3321 0.960 . S
H3387 C3323 0.980 . S
H3388 C3322 0.961 . S
H3389 C3322 0.961 . S
H3390 C3322 0.959 . S
H3391 C3325 0.932 . S
H3392 C3329 0.929 . S
H3393 C3330 0.961 . S
H3394 C3330 0.959 . S
H3395 C3330 0.959 . S
H3396 C3331 0.960 . S
H3397 C3331 0.962 . S
H3398 C3331 0.961 . S
H3399 C3333 0.929 . S
H3400 C3336 0.930 . S
H3401 C3337 0.929 . S
H3402 C3340 0.930 . S
H3403 C3343 0.929 . S
H3404 C3344 0.930 . S
H3405 C3348 0.962 . S
H3406 C3348 0.959 . S
H3407 C3348 0.958 . S
C3408 C3409 1.560 . S
C3408 H3469 0.959 . S
C3408 H3470 0.959 . S
C3408 H3471 0.960 . S
C3409 C3408 1.560 . S
C3409 O3464 1.426 . S
C3409 H3468 0.980 . S
C3410 C3411 1.407 . S
C3410 C3415 1.418 . S
C3410 O3464 1.334 . S
C3411 C3410 1.407 . S
C3411 C3412 1.360 . S
C3411 H3472 0.929 . S
C3412 C3411 1.360 . S
C3412 C3413 1.401 . S
C3412 C3416 1.527 . S
C3413 C3412 1.401 . S
C3413 C3414 1.405 . S
C3413 C3446 1.587 . S
C3414 C3413 1.405 . S
C3414 C3415 1.332 . S
C3414 C3417 1.496 . S
C3415 C3410 1.418 . S
C3415 C3414 1.332 . S
C3415 H3473 0.929 . S
C3416 C3412 1.527 . S
C3416 H3474 0.959 . S
C3416 H3475 0.961 . S
C3416 H3476 0.961 . S
C3417 C3414 1.496 . S
C3417 H3477 0.960 . S
C3417 H3478 0.960 . S
C3417 H3479 0.961 . S
C3418 C3419 1.517 . S
C3418 H3481 0.961 . S
C3418 H3482 0.960 . S
C3418 H3483 0.959 . S
C3419 C3418 1.517 . S
C3419 O3467 1.468 . S
C3419 H3480 0.980 . S
C3420 C3421 1.349 . S
C3420 C3425 1.367 . S
C3420 O3467 1.408 . S
C3421 C3420 1.349 . S
C3421 C3422 1.407 . S
C3421 H3484 0.930 . S
C3422 C3421 1.407 . S
C3422 C3423 1.449 . S
C3422 C3426 1.535 . S
C3423 C3422 1.449 . S
C3423 C3424 1.384 . S
C3423 C3448 1.553 . S
C3424 C3423 1.384 . S
C3424 C3425 1.364 . S
C3424 C3427 1.450 . S
C3425 C3420 1.367 . S
C3425 C3424 1.364 . S
C3425 H3485 0.931 . S
C3426 C3422 1.535 . S
C3426 H3486 0.959 . S
C3426 H3487 0.961 . S
C3426 H3488 0.959 . S
C3427 C3424 1.450 . S
C3427 H3489 0.960 . S
C3427 H3490 0.960 . S
C3427 H3491 0.960 . S
C3428 C3429 1.309 . S
C3428 C3433 1.304 . S
C3428 O3466 1.435 . S
C3429 C3428 1.309 . S
C3429 C3430 1.476 . S
C3429 H3493 0.930 . S
C3430 C3429 1.476 . S
C3430 C3431 1.400 . S
C3430 C3434 1.567 . S
C3431 C3430 1.400 . S
C3431 C3432 1.373 . S
C3431 C3453 1.432 . S
C3432 C3431 1.373 . S
C3432 C3433 1.339 . S
C3432 C3435 1.530 . S
C3433 C3428 1.304 . S
C3433 C3432 1.339 . S
C3433 H3494 0.930 . S
C3434 C3430 1.567 . S
C3434 H3495 0.961 . S
C3434 H3496 0.960 . S
C3434 H3497 0.958 . S
C3435 C3432 1.530 . S
C3435 H3498 0.961 . S
C3435 H3499 0.960 . S
C3435 H3500 0.960 . S
C3436 C3437 1.530 . S
C3436 H3502 0.961 . S
C3436 H3503 0.961 . S
C3436 H3504 0.959 . S
C3437 C3436 1.530 . S
C3437 O3465 1.412 . S
C3437 H3501 0.980 . S
C3438 C3439 1.288 . S
C3438 C3443 1.377 . S
C3438 O3465 1.393 . S
C3439 C3438 1.288 . S
C3439 C3440 1.369 . S
C3439 H3505 0.932 . S
C3440 C3439 1.369 . S
C3440 C3441 1.398 . S
C3440 C3444 1.527 . S
C3441 C3440 1.398 . S
C3441 C3442 1.380 . S
C3441 C3455 1.497 . S
C3442 C3441 1.380 . S
C3442 C3443 1.383 . S
C3442 C3445 1.603 . S
C3443 C3438 1.377 . S
C3443 C3442 1.383 . S
C3443 H3506 0.929 . S
C3444 C3440 1.527 . S
C3444 H3507 0.961 . S
C3444 H3508 0.959 . S
C3444 H3509 0.959 . S
C3445 C3442 1.603 . S
C3445 H3510 0.960 . S
C3445 H3511 0.962 . S
C3445 H3512 0.961 . S
C3446 C3413 1.587 . S
C3446 C3447 1.360 . S
C3446 C3459 1.412 . S
C3447 C3446 1.360 . S
C3447 C3448 1.365 . S
C3447 H3513 0.929 . S
C3448 C3423 1.553 . S
C3448 C3447 1.365 . S
C3448 C3449 1.404 . S
C3449 C3448 1.404 . S
C3449 C3450 1.395 . S
C3449 C3460 1.451 . S
C3450 C3449 1.395 . S
C3450 C3451 1.322 . S
C3450 H3514 0.930 . S
C3451 C3450 1.322 . S
C3451 C3452 1.459 . S
C3451 H3515 0.929 . S
C3452 C3451 1.459 . S
C3452 C3453 1.445 . S
C3452 C3461 1.395 . S
C3453 C3431 1.432 . S
C3453 C3452 1.445 . S
C3453 C3454 1.370 . S
C3454 C3453 1.370 . S
C3454 C3455 1.438 . S
C3454 H3516 0.930 . S
C3455 C3441 1.497 . S
C3455 C3454 1.438 . S
C3455 C3456 1.360 . S
C3456 C3455 1.360 . S
C3456 C3457 1.401 . S
C3456 C3461 1.446 . S
C3457 C3456 1.401 . S
C3457 C3458 1.347 . S
C3457 H3517 0.929 . S
C3458 C3457 1.347 . S
C3458 C3459 1.455 . S
C3458 H3518 0.930 . S
C3459 C3446 1.412 . S
C3459 C3458 1.455 . S
C3459 C3460 1.331 . S
C3460 C3449 1.451 . S
C3460 C3459 1.331 . S
C3460 C3461 1.497 . S
C3461 C3452 1.395 . S
C3461 C3456 1.446 . S
C3461 C3460 1.497 . S
C3462 C3463 1.582 . S
C3462 H3519 0.962 . S
C3462 H3520 0.959 . S
C3462 H3521 0.958 . S
C3463 C3462 1.582 . S
C3463 O3466 1.458 . S
C3463 H3492 0.980 . S
O3464 C3409 1.426 . S
O3464 C3410 1.334 . S
O3465 C3437 1.412 . S
O3465 C3438 1.393 . S
O3466 C3428 1.435 . S
O3466 C3463 1.458 . S
O3467 C3419 1.468 . S
O3467 C3420 1.408 . S
H3468 C3409 0.980 . S
H3469 C3408 0.959 . S
H3470 C3408 0.959 . S
H3471 C3408 0.960 . S
H3472 C3411 0.929 . S
H3473 C3415 0.929 . S
H3474 C3416 0.959 . S
H3475 C3416 0.961 . S
H3476 C3416 0.961 . S
H3477 C3417 0.960 . S
H3478 C3417 0.960 . S
H3479 C3417 0.961 . S
H3480 C3419 0.980 . S
H3481 C3418 0.961 . S
H3482 C3418 0.960 . S
H3483 C3418 0.959 . S
H3484 C3421 0.930 . S
H3485 C3425 0.931 . S
H3486 C3426 0.959 . S
H3487 C3426 0.961 . S
H3488 C3426 0.959 . S
H3489 C3427 0.960 . S
H3490 C3427 0.960 . S
H3491 C3427 0.960 . S
H3492 C3463 0.980 . S
H3493 C3429 0.930 . S
H3494 C3433 0.930 . S
H3495 C3434 0.961 . S
H3496 C3434 0.960 . S
H3497 C3434 0.958 . S
H3498 C3435 0.961 . S
H3499 C3435 0.960 . S
H3500 C3435 0.960 . S
H3501 C3437 0.980 . S
H3502 C3436 0.961 . S
H3503 C3436 0.961 . S
H3504 C3436 0.959 . S
H3505 C3439 0.932 . S
H3506 C3443 0.929 . S
H3507 C3444 0.961 . S
H3508 C3444 0.959 . S
H3509 C3444 0.959 . S
H3510 C3445 0.960 . S
H3511 C3445 0.962 . S
H3512 C3445 0.961 . S
H3513 C3447 0.929 . S
H3514 C3450 0.930 . S
H3515 C3451 0.929 . S
H3516 C3454 0.930 . S
H3517 C3457 0.929 . S
H3518 C3458 0.930 . S
H3519 C3462 0.962 . S
H3520 C3462 0.959 . S
H3521 C3462 0.958 . S
C3522 C3523 1.560 . S
C3522 H3583 0.959 . S
C3522 H3584 0.959 . S
C3522 H3585 0.960 . S
C3523 C3522 1.560 . S
C3523 O3578 1.426 . S
C3523 H3582 0.980 . S
C3524 C3525 1.407 . S
C3524 C3529 1.418 . S
C3524 O3578 1.334 . S
C3525 C3524 1.407 . S
C3525 C3526 1.360 . S
C3525 H3586 0.929 . S
C3526 C3525 1.360 . S
C3526 C3527 1.401 . S
C3526 C3530 1.527 . S
C3527 C3526 1.401 . S
C3527 C3528 1.405 . S
C3527 C3560 1.587 . S
C3528 C3527 1.405 . S
C3528 C3529 1.332 . S
C3528 C3531 1.496 . S
C3529 C3524 1.418 . S
C3529 C3528 1.332 . S
C3529 H3587 0.929 . S
C3530 C3526 1.527 . S
C3530 H3588 0.959 . S
C3530 H3589 0.961 . S
C3530 H3590 0.961 . S
C3531 C3528 1.496 . S
C3531 H3591 0.960 . S
C3531 H3592 0.960 . S
C3531 H3593 0.961 . S
C3532 C3533 1.517 . S
C3532 H3595 0.961 . S
C3532 H3596 0.960 . S
C3532 H3597 0.959 . S
C3533 C3532 1.517 . S
C3533 O3581 1.468 . S
C3533 H3594 0.980 . S
C3534 C3535 1.349 . S
C3534 C3539 1.367 . S
C3534 O3581 1.408 . S
C3535 C3534 1.349 . S
C3535 C3536 1.407 . S
C3535 H3598 0.930 . S
C3536 C3535 1.407 . S
C3536 C3537 1.449 . S
C3536 C3540 1.535 . S
C3537 C3536 1.449 . S
C3537 C3538 1.384 . S
C3537 C3562 1.553 . S
C3538 C3537 1.384 . S
C3538 C3539 1.364 . S
C3538 C3541 1.450 . S
C3539 C3534 1.367 . S
C3539 C3538 1.364 . S
C3539 H3599 0.931 . S
C3540 C3536 1.535 . S
C3540 H3600 0.959 . S
C3540 H3601 0.961 . S
C3540 H3602 0.959 . S
C3541 C3538 1.450 . S
C3541 H3603 0.960 . S
C3541 H3604 0.960 . S
C3541 H3605 0.960 . S
C3542 C3543 1.309 . S
C3542 C3547 1.304 . S
C3542 O3580 1.435 . S
C3543 C3542 1.309 . S
C3543 C3544 1.476 . S
C3543 H3607 0.930 . S
C3544 C3543 1.476 . S
C3544 C3545 1.400 . S
C3544 C3548 1.567 . S
C3545 C3544 1.400 . S
C3545 C3546 1.373 . S
C3545 C3567 1.432 . S
C3546 C3545 1.373 . S
C3546 C3547 1.339 . S
C3546 C3549 1.530 . S
C3547 C3542 1.304 . S
C3547 C3546 1.339 . S
C3547 H3608 0.930 . S
C3548 C3544 1.567 . S
C3548 H3609 0.961 . S
C3548 H3610 0.960 . S
C3548 H3611 0.958 . S
C3549 C3546 1.530 . S
C3549 H3612 0.961 . S
C3549 H3613 0.960 . S
C3549 H3614 0.960 . S
C3550 C3551 1.530 . S
C3550 H3616 0.961 . S
C3550 H3617 0.961 . S
C3550 H3618 0.959 . S
C3551 C3550 1.530 . S
C3551 O3579 1.412 . S
C3551 H3615 0.980 . S
C3552 C3553 1.288 . S
C3552 C3557 1.377 . S
C3552 O3579 1.393 . S
C3553 C3552 1.288 . S
C3553 C3554 1.369 . S
C3553 H3619 0.932 . S
C3554 C3553 1.369 . S
C3554 C3555 1.398 . S
C3554 C3558 1.527 . S
C3555 C3554 1.398 . S
C3555 C3556 1.380 . S
C3555 C3569 1.497 . S
C3556 C3555 1.380 . S
C3556 C3557 1.383 . S
C3556 C3559 1.603 . S
C3557 C3552 1.377 . S
C3557 C3556 1.383 . S
C3557 H3620 0.929 . S
C3558 C3554 1.527 . S
C3558 H3621 0.961 . S
C3558 H3622 0.959 . S
C3558 H3623 0.959 . S
C3559 C3556 1.603 . S
C3559 H3624 0.960 . S
C3559 H3625 0.962 . S
C3559 H3626 0.961 . S
C3560 C3527 1.587 . S
C3560 C3561 1.360 . S
C3560 C3573 1.412 . S
C3561 C3560 1.360 . S
C3561 C3562 1.365 . S
C3561 H3627 0.929 . S
C3562 C3537 1.553 . S
C3562 C3561 1.365 . S
C3562 C3563 1.404 . S
C3563 C3562 1.404 . S
C3563 C3564 1.395 . S
C3563 C3574 1.451 . S
C3564 C3563 1.395 . S
C3564 C3565 1.322 . S
C3564 H3628 0.930 . S
C3565 C3564 1.322 . S
C3565 C3566 1.459 . S
C3565 H3629 0.929 . S
C3566 C3565 1.459 . S
C3566 C3567 1.445 . S
C3566 C3575 1.395 . S
C3567 C3545 1.432 . S
C3567 C3566 1.445 . S
C3567 C3568 1.370 . S
C3568 C3567 1.370 . S
C3568 C3569 1.438 . S
C3568 H3630 0.930 . S
C3569 C3555 1.497 . S
C3569 C3568 1.438 . S
C3569 C3570 1.360 . S
C3570 C3569 1.360 . S
C3570 C3571 1.401 . S
C3570 C3575 1.446 . S
C3571 C3570 1.401 . S
C3571 C3572 1.347 . S
C3571 H3631 0.929 . S
C3572 C3571 1.347 . S
C3572 C3573 1.455 . S
C3572 H3632 0.930 . S
C3573 C3560 1.412 . S
C3573 C3572 1.455 . S
C3573 C3574 1.331 . S
C3574 C3563 1.451 . S
C3574 C3573 1.331 . S
C3574 C3575 1.497 . S
C3575 C3566 1.395 . S
C3575 C3570 1.446 . S
C3575 C3574 1.497 . S
C3576 C3577 1.582 . S
C3576 H3633 0.962 . S
C3576 H3634 0.959 . S
C3576 H3635 0.958 . S
C3577 C3576 1.582 . S
C3577 O3580 1.458 . S
C3577 H3606 0.980 . S
O3578 C3523 1.426 . S
O3578 C3524 1.334 . S
O3579 C3551 1.412 . S
O3579 C3552 1.393 . S
O3580 C3542 1.435 . S
O3580 C3577 1.458 . S
O3581 C3533 1.468 . S
O3581 C3534 1.408 . S
H3582 C3523 0.980 . S
H3583 C3522 0.959 . S
H3584 C3522 0.959 . S
H3585 C3522 0.960 . S
H3586 C3525 0.929 . S
H3587 C3529 0.929 . S
H3588 C3530 0.959 . S
H3589 C3530 0.961 . S
H3590 C3530 0.961 . S
H3591 C3531 0.960 . S
H3592 C3531 0.960 . S
H3593 C3531 0.961 . S
H3594 C3533 0.980 . S
H3595 C3532 0.961 . S
H3596 C3532 0.960 . S
H3597 C3532 0.959 . S
H3598 C3535 0.930 . S
H3599 C3539 0.931 . S
H3600 C3540 0.959 . S
H3601 C3540 0.961 . S
H3602 C3540 0.959 . S
H3603 C3541 0.960 . S
H3604 C3541 0.960 . S
H3605 C3541 0.960 . S
H3606 C3577 0.980 . S
H3607 C3543 0.930 . S
H3608 C3547 0.930 . S
H3609 C3548 0.961 . S
H3610 C3548 0.960 . S
H3611 C3548 0.958 . S
H3612 C3549 0.961 . S
H3613 C3549 0.960 . S
H3614 C3549 0.960 . S
H3615 C3551 0.980 . S
H3616 C3550 0.961 . S
H3617 C3550 0.961 . S
H3618 C3550 0.959 . S
H3619 C3553 0.932 . S
H3620 C3557 0.929 . S
H3621 C3558 0.961 . S
H3622 C3558 0.959 . S
H3623 C3558 0.959 . S
H3624 C3559 0.960 . S
H3625 C3559 0.962 . S
H3626 C3559 0.961 . S
H3627 C3561 0.929 . S
H3628 C3564 0.930 . S
H3629 C3565 0.929 . S
H3630 C3568 0.930 . S
H3631 C3571 0.929 . S
H3632 C3572 0.930 . S
H3633 C3576 0.962 . S
H3634 C3576 0.959 . S
H3635 C3576 0.958 . S
C3636 C3637 1.349 . S
C3636 C3638 1.327 . S
C3636 H3661 0.950 . S
C3637 C3636 1.349 . S
C3637 C3653 1.349 . S
C3638 C3636 1.327 . S
C3638 C3657 1.429 . S
C3638 H3662 0.950 . S
C3639 C3656 1.574 . S
C3639 C3658 1.368 . S
C3639 H3663 0.949 . S
H3640 C3644 0.949 . S
C3641 C3642 1.349 . S
C3641 C3643 1.327 . S
C3641 H3664 0.950 . S
C3642 C3641 1.349 . S
C3642 C3654 1.349 . S
C3643 C3641 1.327 . S
C3643 C3659 1.429 . S
C3643 H3665 0.950 . S
C3644 H3640 0.949 . S
C3644 C3652 1.574 . S
C3644 C3660 1.368 . S
H3645 C3653 0.950 . S
H3646 C3651 0.950 . S
H3647 C3652 0.949 . S
H3648 C3654 0.950 . S
H3649 C3655 0.950 . S
H3650 C3656 0.949 . S
C3651 H3646 0.950 . S
C3651 C3653 1.327 . S
C3651 C3657 1.429 . S
C3652 C3644 1.574 . S
C3652 H3647 0.949 . S
C3652 C3658 1.368 . S
C3653 C3637 1.349 . S
C3653 H3645 0.950 . S
C3653 C3651 1.327 . S
C3654 C3642 1.349 . S
C3654 H3648 0.950 . S
C3654 C3655 1.327 . S
C3655 H3649 0.950 . S
C3655 C3654 1.327 . S
C3655 C3659 1.429 . S
C3656 C3639 1.574 . S
C3656 H3650 0.949 . S
C3656 C3660 1.368 . S
C3657 C3638 1.429 . S
C3657 C3651 1.429 . S
C3657 C3658 1.523 . S
C3658 C3639 1.368 . S
C3658 C3652 1.368 . S
C3658 C3657 1.523 . S
C3659 C3643 1.429 . S
C3659 C3655 1.429 . S
C3659 C3660 1.523 . S
C3660 C3644 1.368 . S
C3660 C3656 1.368 . S
C3660 C3659 1.523 . S
H3661 C3636 0.950 . S
H3662 C3638 0.950 . S
H3663 C3639 0.949 . S
H3664 C3641 0.950 . S
H3665 C3643 0.950 . S
C3666 C3667 1.349 . S
C3666 C3668 1.327 . S
C3666 H3691 0.950 . S
C3667 C3666 1.349 . S
C3667 C3683 1.349 . S
C3668 C3666 1.327 . S
C3668 C3687 1.429 . S
C3668 H3692 0.950 . S
C3669 C3686 1.574 . S
C3669 C3688 1.368 . S
C3669 H3693 0.949 . S
H3670 C3674 0.949 . S
C3671 C3672 1.349 . S
C3671 C3673 1.327 . S
C3671 H3694 0.950 . S
C3672 C3671 1.349 . S
C3672 C3684 1.349 . S
C3673 C3671 1.327 . S
C3673 C3689 1.429 . S
C3673 H3695 0.950 . S
C3674 H3670 0.949 . S
C3674 C3682 1.574 . S
C3674 C3690 1.368 . S
H3675 C3683 0.950 . S
H3676 C3681 0.950 . S
H3677 C3682 0.949 . S
H3678 C3684 0.950 . S
H3679 C3685 0.950 . S
H3680 C3686 0.949 . S
C3681 H3676 0.950 . S
C3681 C3683 1.327 . S
C3681 C3687 1.429 . S
C3682 C3674 1.574 . S
C3682 H3677 0.949 . S
C3682 C3688 1.368 . S
C3683 C3667 1.349 . S
C3683 H3675 0.950 . S
C3683 C3681 1.327 . S
C3684 C3672 1.349 . S
C3684 H3678 0.950 . S
C3684 C3685 1.327 . S
C3685 H3679 0.950 . S
C3685 C3684 1.327 . S
C3685 C3689 1.429 . S
C3686 C3669 1.574 . S
C3686 H3680 0.949 . S
C3686 C3690 1.368 . S
C3687 C3668 1.429 . S
C3687 C3681 1.429 . S
C3687 C3688 1.523 . S
C3688 C3669 1.368 . S
C3688 C3682 1.368 . S
C3688 C3687 1.523 . S
C3689 C3673 1.429 . S
C3689 C3685 1.429 . S
C3689 C3690 1.523 . S
C3690 C3674 1.368 . S
C3690 C3686 1.368 . S
C3690 C3689 1.523 . S
H3691 C3666 0.950 . S
H3692 C3668 0.950 . S
H3693 C3669 0.949 . S
H3694 C3671 0.950 . S
H3695 C3673 0.950 . S
C3696 C3697 1.349 . S
C3696 C3698 1.327 . S
C3696 H3721 0.950 . S
C3697 C3696 1.349 . S
C3697 C3713 1.349 . S
C3698 C3696 1.327 . S
C3698 C3717 1.429 . S
C3698 H3722 0.950 . S
C3699 C3716 1.574 . S
C3699 C3718 1.368 . S
C3699 H3723 0.924 1_545 S
H3700 C3704 0.949 . S
C3701 C3702 1.349 1_565 S
C3701 C3703 1.334 . S
C3701 H3724 0.950 . S
C3702 C3701 1.349 1_545 S
C3702 C3714 1.349 . S
C3703 C3701 1.334 . S
C3703 C3719 1.415 1_565 S
C3703 H3725 0.957 . S
C3704 H3700 0.949 . S
C3704 C3712 1.574 . S
C3704 C3720 1.368 . S
H3705 C3713 0.950 . S
H3706 C3711 0.950 . S
H3707 C3712 0.949 . S
H3708 C3714 0.950 . S
H3709 C3715 0.950 . S
H3710 C3716 0.949 1_565 S
C3711 H3706 0.950 . S
C3711 C3713 1.327 . S
C3711 C3717 1.429 . S
C3712 C3704 1.574 . S
C3712 H3707 0.949 . S
C3712 C3718 1.368 . S
C3713 C3697 1.349 . S
C3713 H3705 0.950 . S
C3713 C3711 1.327 . S
C3714 C3702 1.349 . S
C3714 H3708 0.950 . S
C3714 C3715 1.327 . S
C3715 H3709 0.950 . S
C3715 C3714 1.327 . S
C3715 C3719 1.429 . S
C3716 C3699 1.574 . S
C3716 H3710 0.949 1_545 S
C3716 C3720 1.368 . S
C3717 C3698 1.429 . S
C3717 C3711 1.429 . S
C3717 C3718 1.523 . S
C3718 C3699 1.368 . S
C3718 C3712 1.368 . S
C3718 C3717 1.523 . S
C3719 C3703 1.415 1_545 S
C3719 C3715 1.429 . S
C3719 C3720 1.523 . S
C3720 C3704 1.368 . S
C3720 C3716 1.368 . S
C3720 C3719 1.523 . S
H3721 C3696 0.950 . S
H3722 C3698 0.950 . S
H3723 C3699 0.924 1_565 S
H3724 C3701 0.950 . S
H3725 C3703 0.957 . S
C3726 C3727 1.349 . S
C3726 C3728 1.327 . S
C3726 H3751 0.950 . S
C3727 C3726 1.349 . S
C3727 C3743 1.349 . S
C3728 C3726 1.327 . S
C3728 C3747 1.429 . S
C3728 H3752 0.950 . S
C3729 C3746 1.574 . S
C3729 C3748 1.368 . S
C3729 H3753 0.949 . S
H3730 C3734 0.949 . S
C3731 C3732 1.324 1_545 S
C3731 C3733 1.374 1_545 S
C3731 H3754 0.962 . S
C3732 C3731 1.324 1_565 S
C3732 C3744 1.349 . S
C3733 C3731 1.374 1_565 S
C3733 C3749 1.446 . S
C3733 H3755 0.913 1_565 S
C3734 H3730 0.949 . S
C3734 C3742 1.574 . S
C3734 C3750 1.368 . S
H3735 C3743 0.950 . S
H3736 C3741 0.950 . S
H3737 C3742 0.949 . S
H3738 C3744 0.950 . S
H3739 C3745 0.950 . S
H3740 C3746 0.949 1_545 S
C3741 H3736 0.950 . S
C3741 C3743 1.327 . S
C3741 C3747 1.429 . S
C3742 C3734 1.574 . S
C3742 H3737 0.949 . S
C3742 C3748 1.368 . S
C3743 C3727 1.349 . S
C3743 H3735 0.950 . S
C3743 C3741 1.327 . S
C3744 C3732 1.349 . S
C3744 H3738 0.950 . S
C3744 C3745 1.327 . S
C3745 H3739 0.950 . S
C3745 C3744 1.327 . S
C3745 C3749 1.429 . S
C3746 C3729 1.574 . S
C3746 H3740 0.949 1_565 S
C3746 C3750 1.368 . S
C3747 C3728 1.429 . S
C3747 C3741 1.429 . S
C3747 C3748 1.523 . S
C3748 C3729 1.368 . S
C3748 C3742 1.368 . S
C3748 C3747 1.523 . S
C3749 C3733 1.446 . S
C3749 C3745 1.429 . S
C3749 C3750 1.523 . S
C3750 C3734 1.368 . S
C3750 C3746 1.368 . S
C3750 C3749 1.523 . S
H3751 C3726 0.950 . S
H3752 C3728 0.950 . S
H3753 C3729 0.949 . S
H3754 C3731 0.962 . S
H3755 C3733 0.913 1_545 S
C3756 C3757 1.349 . S
C3756 C3758 1.327 . S
C3756 H3781 0.950 . S
C3757 C3756 1.349 . S
C3757 C3773 1.349 . S
C3758 C3756 1.327 . S
C3758 C3777 1.429 . S
C3758 H3782 0.950 . S
C3759 C3776 1.574 . S
C3759 C3778 1.368 . S
C3759 H3783 0.949 . S
H3760 C3764 0.949 . S
C3761 C3762 1.349 . S
C3761 C3763 1.327 . S
C3761 H3784 0.950 1_455 S
C3762 C3761 1.349 . S
C3762 C3774 1.349 . S
C3763 C3761 1.327 . S
C3763 C3779 1.429 . S
C3763 H3785 0.950 1_455 S
C3764 H3760 0.949 . S
C3764 C3772 1.574 . S
C3764 C3780 1.368 . S
H3765 C3773 0.950 . S
H3766 C3771 0.950 . S
H3767 C3772 0.949 . S
H3768 C3774 0.950 . S
H3769 C3775 0.950 . S
H3770 C3776 0.949 . S
C3771 H3766 0.950 . S
C3771 C3773 1.327 . S
C3771 C3777 1.429 . S
C3772 C3764 1.574 . S
C3772 H3767 0.949 . S
C3772 C3778 1.368 . S
C3773 C3757 1.349 . S
C3773 H3765 0.950 . S
C3773 C3771 1.327 . S
C3774 C3762 1.349 . S
C3774 H3768 0.950 . S
C3774 C3775 1.327 . S
C3775 H3769 0.950 . S
C3775 C3774 1.327 . S
C3775 C3779 1.429 . S
C3776 C3759 1.574 . S
C3776 H3770 0.949 . S
C3776 C3780 1.368 . S
C3777 C3758 1.429 . S
C3777 C3771 1.429 . S
C3777 C3778 1.523 . S
C3778 C3759 1.368 . S
C3778 C3772 1.368 . S
C3778 C3777 1.523 . S
C3779 C3763 1.429 . S
C3779 C3775 1.429 . S
C3779 C3780 1.523 . S
C3780 C3764 1.368 . S
C3780 C3776 1.368 . S
C3780 C3779 1.523 . S
H3781 C3756 0.950 . S
H3782 C3758 0.950 . S
H3783 C3759 0.949 . S
H3784 C3761 0.950 1_655 S
H3785 C3763 0.950 1_655 S
C3786 C3787 1.349 . S
C3786 C3788 1.327 . S
C3786 H3811 0.950 . S
C3787 C3786 1.349 . S
C3787 C3803 1.349 . S
C3788 C3786 1.327 . S
C3788 C3807 1.429 . S
C3788 H3812 0.950 . S
C3789 C3806 1.574 . S
C3789 C3808 1.368 . S
C3789 H3813 0.949 . S
H3790 C3794 0.949 . S
C3791 C3792 1.349 . S
C3791 C3793 1.327 . S
C3791 H3814 0.950 . S
C3792 C3791 1.349 . S
C3792 C3804 1.349 . S
C3793 C3791 1.327 . S
C3793 C3809 1.429 . S
C3793 H3815 0.950 . S
C3794 H3790 0.949 . S
C3794 C3802 1.574 . S
C3794 C3810 1.368 . S
H3795 C3803 0.950 . S
H3796 C3801 0.950 . S
H3797 C3802 0.949 . S
H3798 C3804 0.950 . S
H3799 C3805 0.950 . S
H3800 C3806 0.949 . S
C3801 H3796 0.950 . S
C3801 C3803 1.327 . S
C3801 C3807 1.429 . S
C3802 C3794 1.574 . S
C3802 H3797 0.949 . S
C3802 C3808 1.368 . S
C3803 C3787 1.349 . S
C3803 H3795 0.950 . S
C3803 C3801 1.327 . S
C3804 C3792 1.349 . S
C3804 H3798 0.950 . S
C3804 C3805 1.327 . S
C3805 H3799 0.950 . S
C3805 C3804 1.327 . S
C3805 C3809 1.429 . S
C3806 C3789 1.574 . S
C3806 H3800 0.949 . S
C3806 C3810 1.368 . S
C3807 C3788 1.429 . S
C3807 C3801 1.429 . S
C3807 C3808 1.523 . S
C3808 C3789 1.368 . S
C3808 C3802 1.368 . S
C3808 C3807 1.523 . S
C3809 C3793 1.429 . S
C3809 C3805 1.429 . S
C3809 C3810 1.523 . S
C3810 C3794 1.368 . S
C3810 C3806 1.368 . S
C3810 C3809 1.523 . S
H3811 C3786 0.950 . S
H3812 C3788 0.950 . S
H3813 C3789 0.949 . S
H3814 C3791 0.950 . S
H3815 C3793 0.950 . S
C3816 C3817 1.349 . S
C3816 C3818 1.327 . S
C3816 H3841 0.950 . S
C3817 C3816 1.349 . S
C3817 C3833 1.349 . S
C3818 C3816 1.327 . S
C3818 C3837 1.429 . S
C3818 H3842 0.950 . S
C3819 C3836 1.574 . S
C3819 C3838 1.368 . S
C3819 H3843 0.949 . S
H3820 C3824 0.949 1_655 S
C3821 C3822 1.349 . S
C3821 C3823 1.327 . S
C3821 H3844 0.950 . S
C3822 C3821 1.349 . S
C3822 C3834 1.349 1_455 S
C3823 C3821 1.327 . S
C3823 C3839 1.429 . S
C3823 H3845 0.950 . S
C3824 H3820 0.949 1_455 S
C3824 C3832 1.574 . S
C3824 C3840 1.368 . S
H3825 C3833 0.950 . S
H3826 C3831 0.950 . S
H3827 C3832 0.964 . S
H3828 C3834 0.950 . S
H3829 C3835 0.950 . S
H3830 C3836 0.949 . S
C3831 H3826 0.950 . S
C3831 C3833 1.327 . S
C3831 C3837 1.429 . S
C3832 C3824 1.574 . S
C3832 H3827 0.964 . S
C3832 C3838 1.368 . S
C3833 C3817 1.349 . S
C3833 H3825 0.950 . S
C3833 C3831 1.327 . S
C3834 C3822 1.349 1_655 S
C3834 H3828 0.950 . S
C3834 C3835 1.327 . S
C3835 H3829 0.950 . S
C3835 C3834 1.327 . S
C3835 C3839 1.429 1_655 S
C3836 C3819 1.574 . S
C3836 H3830 0.949 . S
C3836 C3840 1.368 . S
C3837 C3818 1.429 . S
C3837 C3831 1.429 . S
C3837 C3838 1.523 . S
C3838 C3819 1.368 . S
C3838 C3832 1.368 . S
C3838 C3837 1.523 . S
C3839 C3823 1.429 . S
C3839 C3835 1.429 1_455 S
C3839 C3840 1.523 . S
C3840 C3824 1.368 . S
C3840 C3836 1.368 . S
C3840 C3839 1.523 . S
H3841 C3816 0.950 . S
H3842 C3818 0.950 . S
H3843 C3819 0.949 . S
H3844 C3821 0.950 . S
H3845 C3823 0.950 . S
C3846 C3847 1.349 . S
C3846 C3848 1.327 . S
C3846 H3871 0.950 . S
C3847 C3846 1.349 . S
C3847 C3863 1.349 . S
C3848 C3846 1.327 . S
C3848 C3867 1.429 . S
C3848 H3872 0.950 . S
C3849 C3866 1.574 . S
C3849 C3868 1.368 . S
C3849 H3873 0.949 . S
H3850 C3854 0.949 . S
C3851 C3852 1.349 . S
C3851 C3853 1.327 . S
C3851 H3874 0.950 . S
C3852 C3851 1.349 . S
C3852 C3864 1.349 . S
C3853 C3851 1.327 . S
C3853 C3869 1.429 . S
C3853 H3875 0.950 . S
C3854 H3850 0.949 . S
C3854 C3862 1.574 . S
C3854 C3870 1.368 . S
H3855 C3863 0.950 . S
H3856 C3861 0.950 . S
H3857 C3862 0.949 . S
H3858 C3864 0.950 . S
H3859 C3865 0.950 . S
H3860 C3866 0.949 . S
C3861 H3856 0.950 . S
C3861 C3863 1.327 . S
C3861 C3867 1.429 . S
C3862 C3854 1.574 . S
C3862 H3857 0.949 . S
C3862 C3868 1.368 . S
C3863 C3847 1.349 . S
C3863 H3855 0.950 . S
C3863 C3861 1.327 . S
C3864 C3852 1.349 . S
C3864 H3858 0.950 . S
C3864 C3865 1.327 . S
C3865 H3859 0.950 . S
C3865 C3864 1.327 . S
C3865 C3869 1.429 . S
C3866 C3849 1.574 . S
C3866 H3860 0.949 . S
C3866 C3870 1.368 . S
C3867 C3848 1.429 . S
C3867 C3861 1.429 . S
C3867 C3868 1.523 . S
C3868 C3849 1.368 . S
C3868 C3862 1.368 . S
C3868 C3867 1.523 . S
C3869 C3853 1.429 . S
C3869 C3865 1.429 . S
C3869 C3870 1.523 . S
C3870 C3854 1.368 . S
C3870 C3866 1.368 . S
C3870 C3869 1.523 . S
H3871 C3846 0.950 . S
H3872 C3848 0.950 . S
H3873 C3849 0.949 . S
H3874 C3851 0.950 . S
H3875 C3853 0.950 . S
C3876 C3877 1.349 . S
C3876 C3878 1.327 . S
C3876 H3901 0.950 . S
C3877 C3876 1.349 . S
C3877 C3893 1.349 . S
C3878 C3876 1.327 . S
C3878 C3897 1.429 . S
C3878 H3902 0.950 1_565 S
C3879 C3896 1.574 . S
C3879 C3898 1.368 . S
C3879 H3903 0.949 . S
H3880 C3884 0.949 . S
C3881 C3882 1.349 . S
C3881 C3883 1.327 . S
C3881 H3904 0.950 . S
C3882 C3881 1.349 . S
C3882 C3894 1.349 1_565 S
C3883 C3881 1.327 . S
C3883 C3899 1.429 . S
C3883 H3905 0.950 . S
C3884 H3880 0.949 . S
C3884 C3892 1.574 1_545 S
C3884 C3900 1.368 1_545 S
H3885 C3893 0.950 . S
H3886 C3891 0.950 . S
H3887 C3892 0.949 1_545 S
H3888 C3894 0.950 . S
H3889 C3895 0.950 . S
H3890 C3896 0.949 . S
C3891 H3886 0.950 . S
C3891 C3893 1.327 . S
C3891 C3897 1.429 . S
C3892 C3884 1.574 1_565 S
C3892 H3887 0.949 1_565 S
C3892 C3898 1.368 . S
C3893 C3877 1.349 . S
C3893 H3885 0.950 . S
C3893 C3891 1.327 . S
C3894 C3882 1.349 1_545 S
C3894 H3888 0.950 . S
C3894 C3895 1.327 . S
C3895 H3889 0.950 . S
C3895 C3894 1.327 . S
C3895 C3899 1.429 1_545 S
C3896 C3879 1.574 . S
C3896 H3890 0.949 . S
C3896 C3900 1.368 . S
C3897 C3878 1.429 . S
C3897 C3891 1.429 . S
C3897 C3898 1.523 . S
C3898 C3879 1.368 . S
C3898 C3892 1.368 . S
C3898 C3897 1.523 . S
C3899 C3883 1.429 . S
C3899 C3895 1.429 1_565 S
C3899 C3900 1.523 . S
C3900 C3884 1.368 1_565 S
C3900 C3896 1.368 . S
C3900 C3899 1.523 . S
H3901 C3876 0.950 . S
H3902 C3878 0.950 1_545 S
H3903 C3879 0.949 . S
H3904 C3881 0.950 . S
H3905 C3883 0.950 . S
C3906 C3907 1.349 . S
C3906 C3908 1.327 . S
C3906 H3931 0.950 . S
C3907 C3906 1.349 . S
C3907 C3923 1.349 . S
C3908 C3906 1.327 . S
C3908 C3927 1.429 . S
C3908 H3932 0.950 . S
C3909 C3926 1.574 . S
C3909 C3928 1.368 . S
C3909 H3933 0.966 . S
H3910 C3914 0.949 . S
C3911 C3912 1.349 1_565 S
C3911 C3913 1.327 . S
C3911 H3934 0.950 . S
C3912 C3911 1.349 1_545 S
C3912 C3924 1.349 . S
C3913 C3911 1.327 . S
C3913 C3929 1.429 1_565 S
C3913 H3935 0.950 . S
C3914 H3910 0.949 . S
C3914 C3922 1.574 . S
C3914 C3930 1.368 . S
H3915 C3923 0.950 . S
H3916 C3921 0.950 . S
H3917 C3922 0.949 . S
H3918 C3924 0.950 . S
H3919 C3925 0.950 . S
H3920 C3926 0.949 1_565 S
C3921 H3916 0.950 . S
C3921 C3923 1.327 . S
C3921 C3927 1.429 . S
C3922 C3914 1.574 . S
C3922 H3917 0.949 . S
C3922 C3928 1.368 . S
C3923 C3907 1.349 . S
C3923 H3915 0.950 . S
C3923 C3921 1.327 . S
C3924 C3912 1.349 . S
C3924 H3918 0.950 . S
C3924 C3925 1.327 . S
C3925 H3919 0.950 . S
C3925 C3924 1.327 . S
C3925 C3929 1.429 . S
C3926 C3909 1.574 . S
C3926 H3920 0.949 1_545 S
C3926 C3930 1.368 . S
C3927 C3908 1.429 . S
C3927 C3921 1.429 . S
C3927 C3928 1.523 . S
C3928 C3909 1.368 . S
C3928 C3922 1.368 . S
C3928 C3927 1.523 . S
C3929 C3913 1.429 1_545 S
C3929 C3925 1.429 . S
C3929 C3930 1.523 . S
C3930 C3914 1.368 . S
C3930 C3926 1.368 . S
C3930 C3929 1.523 . S
H3931 C3906 0.950 . S
H3932 C3908 0.950 . S
H3933 C3909 0.966 . S
H3934 C3911 0.950 . S
H3935 C3913 0.950 . S
C3936 C3937 1.349 . S
C3936 C3938 1.327 . S
C3936 H3961 0.950 . S
C3937 C3936 1.349 . S
C3937 C3953 1.349 . S
C3938 C3936 1.327 . S
C3938 C3957 1.429 . S
C3938 H3962 0.950 . S
C3939 C3956 1.574 . S
C3939 C3958 1.368 . S
C3939 H3963 0.949 . S
H3940 C3944 1.011 . S
C3941 C3942 1.349 . S
C3941 C3943 1.327 . S
C3941 H3964 0.950 . S
C3942 C3941 1.349 . S
C3942 C3954 1.349 1_655 S
C3943 C3941 1.327 . S
C3943 C3959 1.429 . S
C3943 H3965 0.950 . S
C3944 H3940 1.011 . S
C3944 C3952 1.574 . S
C3944 C3960 1.368 . S
H3945 C3953 0.950 . S
H3946 C3951 0.950 . S
H3947 C3952 0.949 . S
H3948 C3954 0.950 . S
H3949 C3955 0.928 1_455 S
H3950 C3956 0.949 . S
C3951 H3946 0.950 . S
C3951 C3953 1.327 . S
C3951 C3957 1.429 . S
C3952 C3944 1.574 . S
C3952 H3947 0.949 . S
C3952 C3958 1.368 . S
C3953 C3937 1.349 . S
C3953 H3945 0.950 . S
C3953 C3951 1.327 . S
C3954 C3942 1.349 1_455 S
C3954 H3948 0.950 . S
C3954 C3955 1.291 1_455 S
C3955 H3949 0.928 1_655 S
C3955 C3954 1.291 1_655 S
C3955 C3959 1.490 . S
C3956 C3939 1.574 . S
C3956 H3950 0.949 . S
C3956 C3960 1.368 . S
C3957 C3938 1.429 . S
C3957 C3951 1.429 . S
C3957 C3958 1.523 . S
C3958 C3939 1.368 . S
C3958 C3952 1.368 . S
C3958 C3957 1.523 . S
C3959 C3943 1.429 . S
C3959 C3955 1.490 . S
C3959 C3960 1.523 . S
C3960 C3944 1.368 . S
C3960 C3956 1.368 . S
C3960 C3959 1.523 . S
H3961 C3936 0.950 . S
H3962 C3938 0.950 . S
H3963 C3939 0.949 . S
H3964 C3941 0.950 . S
H3965 C3943 0.950 . S
C3966 C3967 1.349 . S
C3966 C3968 1.327 . S
C3966 H3991 0.950 . S
C3967 C3966 1.349 . S
C3967 C3983 1.349 . S
C3968 C3966 1.327 . S
C3968 C3987 1.429 . S
C3968 H3992 0.950 . S
C3969 C3986 1.574 . S
C3969 C3988 1.368 . S
C3969 H3993 0.949 . S
H3970 C3974 0.949 . S
C3971 C3972 1.349 . S
C3971 C3973 1.327 . S
C3971 H3994 0.950 . S
C3972 C3971 1.349 . S
C3972 C3984 1.349 . S
C3973 C3971 1.327 . S
C3973 C3989 1.429 . S
C3973 H3995 0.950 . S
C3974 H3970 0.949 . S
C3974 C3982 1.574 . S
C3974 C3990 1.368 . S
H3975 C3983 0.950 . S
H3976 C3981 0.950 . S
H3977 C3982 0.949 . S
H3978 C3984 0.950 . S
H3979 C3985 0.950 . S
H3980 C3986 0.949 . S
C3981 H3976 0.950 . S
C3981 C3983 1.327 . S
C3981 C3987 1.429 . S
C3982 C3974 1.574 . S
C3982 H3977 0.949 . S
C3982 C3988 1.368 . S
C3983 C3967 1.349 . S
C3983 H3975 0.950 . S
C3983 C3981 1.327 . S
C3984 C3972 1.349 . S
C3984 H3978 0.950 . S
C3984 C3985 1.327 . S
C3985 H3979 0.950 . S
C3985 C3984 1.327 . S
C3985 C3989 1.429 . S
C3986 C3969 1.574 . S
C3986 H3980 0.949 . S
C3986 C3990 1.368 . S
C3987 C3968 1.429 . S
C3987 C3981 1.429 . S
C3987 C3988 1.523 . S
C3988 C3969 1.368 . S
C3988 C3982 1.368 . S
C3988 C3987 1.523 . S
C3989 C3973 1.429 . S
C3989 C3985 1.429 . S
C3989 C3990 1.523 . S
C3990 C3974 1.368 . S
C3990 C3986 1.368 . S
C3990 C3989 1.523 . S
H3991 C3966 0.950 . S
H3992 C3968 0.950 . S
H3993 C3969 0.949 . S
H3994 C3971 0.950 . S
H3995 C3973 0.950 . S
C3996 C3997 1.349 . S
C3996 C3998 1.327 . S
C3996 H4021 0.950 . S
C3997 C3996 1.349 . S
C3997 C4013 1.349 . S
C3998 C3996 1.327 . S
C3998 C4017 1.429 . S
C3998 H4022 0.950 . S
C3999 C4016 1.574 . S
C3999 C4018 1.368 . S
C3999 H4023 0.949 . S
H4000 C4004 0.949 . S
C4001 C4002 1.349 . S
C4001 C4003 1.327 . S
C4001 H4024 0.950 . S
C4002 C4001 1.349 . S
C4002 C4014 1.349 . S
C4003 C4001 1.327 . S
C4003 C4019 1.429 . S
C4003 H4025 0.950 . S
C4004 H4000 0.949 . S
C4004 C4012 1.574 . S
C4004 C4020 1.368 . S
H4005 C4013 0.950 . S
H4006 C4011 0.950 . S
H4007 C4012 0.949 . S
H4008 C4014 0.950 . S
H4009 C4015 0.950 . S
H4010 C4016 0.949 . S
C4011 H4006 0.950 . S
C4011 C4013 1.327 . S
C4011 C4017 1.429 . S
C4012 C4004 1.574 . S
C4012 H4007 0.949 . S
C4012 C4018 1.368 . S
C4013 C3997 1.349 . S
C4013 H4005 0.950 . S
C4013 C4011 1.327 . S
C4014 C4002 1.349 . S
C4014 H4008 0.950 . S
C4014 C4015 1.327 . S
C4015 H4009 0.950 . S
C4015 C4014 1.327 . S
C4015 C4019 1.429 . S
C4016 C3999 1.574 . S
C4016 H4010 0.949 . S
C4016 C4020 1.368 . S
C4017 C3998 1.429 . S
C4017 C4011 1.429 . S
C4017 C4018 1.523 . S
C4018 C3999 1.368 . S
C4018 C4012 1.368 . S
C4018 C4017 1.523 . S
C4019 C4003 1.429 . S
C4019 C4015 1.429 . S
C4019 C4020 1.523 . S
C4020 C4004 1.368 . S
C4020 C4016 1.368 . S
C4020 C4019 1.523 . S
H4021 C3996 0.950 . S
H4022 C3998 0.950 . S
H4023 C3999 0.949 . S
H4024 C4001 0.950 . S
H4025 C4003 0.950 . S
C4026 C4027 1.349 . S
C4026 C4028 1.327 . S
C4026 H4051 0.950 . S
C4027 C4026 1.349 . S
C4027 C4043 1.349 . S
C4028 C4026 1.327 . S
C4028 C4047 1.429 . S
C4028 H4052 0.950 . S
C4029 C4046 1.574 . S
C4029 C4048 1.368 . S
C4029 H4053 0.949 . S
H4030 C4034 0.949 . S
C4031 C4032 1.349 . S
C4031 C4033 1.327 . S
C4031 H4054 0.950 . S
C4032 C4031 1.349 . S
C4032 C4044 1.349 . S
C4033 C4031 1.327 . S
C4033 C4049 1.429 . S
C4033 H4055 0.950 . S
C4034 H4030 0.949 . S
C4034 C4042 1.574 . S
C4034 C4050 1.368 . S
H4035 C4043 0.950 . S
H4036 C4041 0.950 . S
H4037 C4042 0.949 . S
H4038 C4044 0.950 . S
H4039 C4045 0.950 . S
H4040 C4046 0.949 . S
C4041 H4036 0.950 . S
C4041 C4043 1.327 . S
C4041 C4047 1.429 . S
C4042 C4034 1.574 . S
C4042 H4037 0.949 . S
C4042 C4048 1.368 . S
C4043 C4027 1.349 . S
C4043 H4035 0.950 . S
C4043 C4041 1.327 . S
C4044 C4032 1.349 . S
C4044 H4038 0.950 . S
C4044 C4045 1.327 . S
C4045 H4039 0.950 . S
C4045 C4044 1.327 . S
C4045 C4049 1.429 . S
C4046 C4029 1.574 . S
C4046 H4040 0.949 . S
C4046 C4050 1.368 . S
C4047 C4028 1.429 . S
C4047 C4041 1.429 . S
C4047 C4048 1.523 . S
C4048 C4029 1.368 . S
C4048 C4042 1.368 . S
C4048 C4047 1.523 . S
C4049 C4033 1.429 . S
C4049 C4045 1.429 . S
C4049 C4050 1.523 . S
C4050 C4034 1.368 . S
C4050 C4046 1.368 . S
C4050 C4049 1.523 . S
H4051 C4026 0.950 . S
H4052 C4028 0.950 . S
H4053 C4029 0.949 . S
H4054 C4031 0.950 . S
H4055 C4033 0.950 . S
C4056 C4057 1.349 . S
C4056 C4058 1.327 . S
C4056 H4081 0.950 . S
C4057 C4056 1.349 . S
C4057 C4073 1.349 . S
C4058 C4056 1.327 . S
C4058 C4077 1.429 . S
C4058 H4082 0.950 . S
C4059 C4076 1.574 . S
C4059 C4078 1.368 . S
C4059 H4083 0.949 . S
H4060 C4064 0.949 . S
C4061 C4062 1.349 . S
C4061 C4063 1.327 . S
C4061 H4084 0.950 . S
C4062 C4061 1.349 . S
C4062 C4074 1.349 . S
C4063 C4061 1.327 . S
C4063 C4079 1.429 . S
C4063 H4085 0.950 . S
C4064 H4060 0.949 . S
C4064 C4072 1.574 . S
C4064 C4080 1.368 . S
H4065 C4073 0.950 . S
H4066 C4071 0.950 . S
H4067 C4072 0.949 . S
H4068 C4074 0.950 . S
H4069 C4075 0.950 . S
H4070 C4076 0.949 . S
C4071 H4066 0.950 . S
C4071 C4073 1.327 . S
C4071 C4077 1.429 . S
C4072 C4064 1.574 . S
C4072 H4067 0.949 . S
C4072 C4078 1.368 . S
C4073 C4057 1.349 . S
C4073 H4065 0.950 . S
C4073 C4071 1.327 . S
C4074 C4062 1.349 . S
C4074 H4068 0.950 . S
C4074 C4075 1.327 . S
C4075 H4069 0.950 . S
C4075 C4074 1.327 . S
C4075 C4079 1.429 . S
C4076 C4059 1.574 . S
C4076 H4070 0.949 . S
C4076 C4080 1.368 . S
C4077 C4058 1.429 . S
C4077 C4071 1.429 . S
C4077 C4078 1.523 . S
C4078 C4059 1.368 . S
C4078 C4072 1.368 . S
C4078 C4077 1.523 . S
C4079 C4063 1.429 . S
C4079 C4075 1.429 . S
C4079 C4080 1.523 . S
C4080 C4064 1.368 . S
C4080 C4076 1.368 . S
C4080 C4079 1.523 . S
H4081 C4056 0.950 . S
H4082 C4058 0.950 . S
H4083 C4059 0.949 . S
H4084 C4061 0.950 . S
H4085 C4063 0.950 . S
C4086 C4087 1.349 . S
C4086 C4088 1.327 . S
C4086 H4111 0.950 . S
C4087 C4086 1.349 . S
C4087 C4103 1.349 . S
C4088 C4086 1.327 . S
C4088 C4107 1.429 . S
C4088 H4112 0.950 . S
C4089 C4106 1.574 . S
C4089 C4108 1.368 . S
C4089 H4113 0.949 . S
H4090 C4094 0.949 . S
C4091 C4092 1.349 . S
C4091 C4093 1.327 . S
C4091 H4114 0.950 . S
C4092 C4091 1.349 . S
C4092 C4104 1.349 . S
C4093 C4091 1.327 . S
C4093 C4109 1.429 . S
C4093 H4115 0.950 . S
C4094 H4090 0.949 . S
C4094 C4102 1.574 . S
C4094 C4110 1.368 . S
H4095 C4103 0.950 . S
H4096 C4101 0.950 . S
H4097 C4102 0.949 . S
H4098 C4104 0.950 . S
H4099 C4105 0.950 . S
H4100 C4106 0.949 . S
C4101 H4096 0.950 . S
C4101 C4103 1.327 . S
C4101 C4107 1.429 . S
C4102 C4094 1.574 . S
C4102 H4097 0.949 . S
C4102 C4108 1.368 . S
C4103 C4087 1.349 . S
C4103 H4095 0.950 . S
C4103 C4101 1.327 . S
C4104 C4092 1.349 . S
C4104 H4098 0.950 . S
C4104 C4105 1.327 . S
C4105 H4099 0.950 . S
C4105 C4104 1.327 . S
C4105 C4109 1.429 . S
C4106 C4089 1.574 . S
C4106 H4100 0.949 . S
C4106 C4110 1.368 . S
C4107 C4088 1.429 . S
C4107 C4101 1.429 . S
C4107 C4108 1.523 . S
C4108 C4089 1.368 . S
C4108 C4102 1.368 . S
C4108 C4107 1.523 . S
C4109 C4093 1.429 . S
C4109 C4105 1.429 . S
C4109 C4110 1.523 . S
C4110 C4094 1.368 . S
C4110 C4106 1.368 . S
C4110 C4109 1.523 . S
H4111 C4086 0.950 . S
H4112 C4088 0.950 . S
H4113 C4089 0.949 . S
H4114 C4091 0.950 . S
H4115 C4093 0.950 . S
C4116 C4117 1.349 . S
C4116 C4118 1.327 . S
C4116 H4141 0.950 . S
C4117 C4116 1.349 . S
C4117 C4133 1.349 . S
C4118 C4116 1.327 . S
C4118 C4137 1.429 . S
C4118 H4142 0.950 . S
C4119 C4136 1.574 . S
C4119 C4138 1.368 . S
C4119 H4143 0.949 . S
H4120 C4124 0.949 . S
C4121 C4122 1.349 . S
C4121 C4123 1.327 . S
C4121 H4144 0.950 . S
C4122 C4121 1.349 . S
C4122 C4134 1.349 . S
C4123 C4121 1.327 . S
C4123 C4139 1.429 . S
C4123 H4145 0.950 . S
C4124 H4120 0.949 . S
C4124 C4132 1.574 . S
C4124 C4140 1.368 . S
H4125 C4133 0.950 . S
H4126 C4131 0.950 . S
H4127 C4132 0.949 . S
H4128 C4134 0.950 . S
H4129 C4135 0.950 . S
H4130 C4136 0.949 . S
C4131 H4126 0.950 . S
C4131 C4133 1.327 . S
C4131 C4137 1.429 . S
C4132 C4124 1.574 . S
C4132 H4127 0.949 . S
C4132 C4138 1.368 . S
C4133 C4117 1.349 . S
C4133 H4125 0.950 . S
C4133 C4131 1.327 . S
C4134 C4122 1.349 . S
C4134 H4128 0.950 . S
C4134 C4135 1.327 . S
C4135 H4129 0.950 . S
C4135 C4134 1.327 . S
C4135 C4139 1.429 . S
C4136 C4119 1.574 . S
C4136 H4130 0.949 . S
C4136 C4140 1.368 . S
C4137 C4118 1.429 . S
C4137 C4131 1.429 . S
C4137 C4138 1.523 . S
C4138 C4119 1.368 . S
C4138 C4132 1.368 . S
C4138 C4137 1.523 . S
C4139 C4123 1.429 . S
C4139 C4135 1.429 . S
C4139 C4140 1.523 . S
C4140 C4124 1.368 . S
C4140 C4136 1.368 . S
C4140 C4139 1.523 . S
H4141 C4116 0.950 . S
H4142 C4118 0.950 . S
H4143 C4119 0.949 . S
H4144 C4121 0.950 . S
H4145 C4123 0.950 . S
C4146 C4147 1.349 . S
C4146 C4148 1.327 . S
C4146 H4171 0.950 . S
C4147 C4146 1.349 . S
C4147 C4163 1.349 . S
C4148 C4146 1.327 . S
C4148 C4167 1.429 . S
C4148 H4172 0.950 . S
C4149 C4166 1.574 . S
C4149 C4168 1.368 . S
C4149 H4173 0.949 . S
H4150 C4154 0.949 . S
C4151 C4152 1.349 . S
C4151 C4153 1.327 . S
C4151 H4174 0.950 . S
C4152 C4151 1.349 . S
C4152 C4164 1.349 . S
C4153 C4151 1.327 . S
C4153 C4169 1.429 . S
C4153 H4175 0.950 . S
C4154 H4150 0.949 . S
C4154 C4162 1.574 . S
C4154 C4170 1.368 . S
H4155 C4163 0.950 . S
H4156 C4161 0.950 . S
H4157 C4162 0.949 . S
H4158 C4164 0.950 . S
H4159 C4165 0.950 . S
H4160 C4166 0.949 . S
C4161 H4156 0.950 . S
C4161 C4163 1.327 . S
C4161 C4167 1.429 . S
C4162 C4154 1.574 . S
C4162 H4157 0.949 . S
C4162 C4168 1.368 . S
C4163 C4147 1.349 . S
C4163 H4155 0.950 . S
C4163 C4161 1.327 . S
C4164 C4152 1.349 . S
C4164 H4158 0.950 . S
C4164 C4165 1.327 . S
C4165 H4159 0.950 . S
C4165 C4164 1.327 . S
C4165 C4169 1.429 . S
C4166 C4149 1.574 . S
C4166 H4160 0.949 . S
C4166 C4170 1.368 . S
C4167 C4148 1.429 . S
C4167 C4161 1.429 . S
C4167 C4168 1.523 . S
C4168 C4149 1.368 . S
C4168 C4162 1.368 . S
C4168 C4167 1.523 . S
C4169 C4153 1.429 . S
C4169 C4165 1.429 . S
C4169 C4170 1.523 . S
C4170 C4154 1.368 . S
C4170 C4166 1.368 . S
C4170 C4169 1.523 . S
H4171 C4146 0.950 . S
H4172 C4148 0.950 . S
H4173 C4149 0.949 . S
H4174 C4151 0.950 . S
H4175 C4153 0.950 . S
C4176 C4177 1.349 . S
C4176 C4178 1.327 . S
C4176 H4201 0.950 . S
C4177 C4176 1.349 . S
C4177 C4193 1.349 . S
C4178 C4176 1.327 . S
C4178 C4197 1.429 . S
C4178 H4202 0.950 . S
C4179 C4196 1.574 . S
C4179 C4198 1.368 . S
C4179 H4203 0.949 . S
H4180 C4184 0.949 . S
C4181 C4182 1.349 . S
C4181 C4183 1.327 . S
C4181 H4204 0.950 . S
C4182 C4181 1.349 . S
C4182 C4194 1.349 . S
C4183 C4181 1.327 . S
C4183 C4199 1.429 . S
C4183 H4205 0.950 . S
C4184 H4180 0.949 . S
C4184 C4192 1.574 . S
C4184 C4200 1.368 . S
H4185 C4193 0.950 . S
H4186 C4191 0.950 . S
H4187 C4192 0.949 . S
H4188 C4194 0.950 . S
H4189 C4195 0.950 . S
H4190 C4196 0.949 . S
C4191 H4186 0.950 . S
C4191 C4193 1.327 . S
C4191 C4197 1.429 . S
C4192 C4184 1.574 . S
C4192 H4187 0.949 . S
C4192 C4198 1.368 . S
C4193 C4177 1.349 . S
C4193 H4185 0.950 . S
C4193 C4191 1.327 . S
C4194 C4182 1.349 . S
C4194 H4188 0.950 . S
C4194 C4195 1.327 . S
C4195 H4189 0.950 . S
C4195 C4194 1.327 . S
C4195 C4199 1.429 . S
C4196 C4179 1.574 . S
C4196 H4190 0.949 . S
C4196 C4200 1.368 . S
C4197 C4178 1.429 . S
C4197 C4191 1.429 . S
C4197 C4198 1.523 . S
C4198 C4179 1.368 . S
C4198 C4192 1.368 . S
C4198 C4197 1.523 . S
C4199 C4183 1.429 . S
C4199 C4195 1.429 . S
C4199 C4200 1.523 . S
C4200 C4184 1.368 . S
C4200 C4196 1.368 . S
C4200 C4199 1.523 . S
H4201 C4176 0.950 . S
H4202 C4178 0.950 . S
H4203 C4179 0.949 . S
H4204 C4181 0.950 . S
H4205 C4183 0.950 . S
C4206 C4207 1.349 . S
C4206 C4208 1.327 . S
C4206 H4231 0.950 . S
C4207 C4206 1.349 . S
C4207 C4223 1.349 . S
C4208 C4206 1.327 . S
C4208 C4227 1.429 . S
C4208 H4232 0.950 . S
C4209 C4226 1.574 . S
C4209 C4228 1.368 . S
C4209 H4233 0.949 . S
H4210 C4214 0.949 . S
C4211 C4212 1.349 . S
C4211 C4213 1.327 . S
C4211 H4234 0.950 . S
C4212 C4211 1.349 . S
C4212 C4224 1.349 . S
C4213 C4211 1.327 . S
C4213 C4229 1.429 . S
C4213 H4235 0.950 . S
C4214 H4210 0.949 . S
C4214 C4222 1.574 . S
C4214 C4230 1.368 . S
H4215 C4223 0.950 . S
H4216 C4221 0.950 . S
H4217 C4222 0.949 . S
H4218 C4224 0.950 . S
H4219 C4225 0.950 . S
H4220 C4226 0.949 . S
C4221 H4216 0.950 . S
C4221 C4223 1.327 . S
C4221 C4227 1.429 . S
C4222 C4214 1.574 . S
C4222 H4217 0.949 . S
C4222 C4228 1.368 . S
C4223 C4207 1.349 . S
C4223 H4215 0.950 . S
C4223 C4221 1.327 . S
C4224 C4212 1.349 . S
C4224 H4218 0.950 . S
C4224 C4225 1.327 . S
C4225 H4219 0.950 . S
C4225 C4224 1.327 . S
C4225 C4229 1.429 . S
C4226 C4209 1.574 . S
C4226 H4220 0.949 . S
C4226 C4230 1.368 . S
C4227 C4208 1.429 . S
C4227 C4221 1.429 . S
C4227 C4228 1.523 . S
C4228 C4209 1.368 . S
C4228 C4222 1.368 . S
C4228 C4227 1.523 . S
C4229 C4213 1.429 . S
C4229 C4225 1.429 . S
C4229 C4230 1.523 . S
C4230 C4214 1.368 . S
C4230 C4226 1.368 . S
C4230 C4229 1.523 . S
H4231 C4206 0.950 . S
H4232 C4208 0.950 . S
H4233 C4209 0.949 . S
H4234 C4211 0.950 . S
H4235 C4213 0.950 . S
C4236 C4237 1.349 . S
C4236 C4238 1.327 . S
C4236 H4261 0.950 . S
C4237 C4236 1.349 . S
C4237 C4253 1.349 . S
C4238 C4236 1.327 . S
C4238 C4257 1.429 . S
C4238 H4262 0.950 . S
C4239 C4256 1.574 . S
C4239 C4258 1.368 . S
C4239 H4263 0.949 . S
H4240 C4244 0.949 . S
C4241 C4242 1.349 . S
C4241 C4243 1.327 . S
C4241 H4264 0.950 . S
C4242 C4241 1.349 . S
C4242 C4254 1.349 . S
C4243 C4241 1.327 . S
C4243 C4259 1.429 . S
C4243 H4265 0.950 . S
C4244 H4240 0.949 . S
C4244 C4252 1.574 . S
C4244 C4260 1.368 . S
H4245 C4253 0.950 . S
H4246 C4251 0.950 . S
H4247 C4252 0.949 . S
H4248 C4254 0.950 . S
H4249 C4255 0.950 . S
H4250 C4256 0.949 . S
C4251 H4246 0.950 . S
C4251 C4253 1.327 . S
C4251 C4257 1.429 . S
C4252 C4244 1.574 . S
C4252 H4247 0.949 . S
C4252 C4258 1.368 . S
C4253 C4237 1.349 . S
C4253 H4245 0.950 . S
C4253 C4251 1.327 . S
C4254 C4242 1.349 . S
C4254 H4248 0.950 . S
C4254 C4255 1.327 . S
C4255 H4249 0.950 . S
C4255 C4254 1.327 . S
C4255 C4259 1.429 . S
C4256 C4239 1.574 . S
C4256 H4250 0.949 . S
C4256 C4260 1.368 . S
C4257 C4238 1.429 . S
C4257 C4251 1.429 . S
C4257 C4258 1.523 . S
C4258 C4239 1.368 . S
C4258 C4252 1.368 . S
C4258 C4257 1.523 . S
C4259 C4243 1.429 . S
C4259 C4255 1.429 . S
C4259 C4260 1.523 . S
C4260 C4244 1.368 . S
C4260 C4256 1.368 . S
C4260 C4259 1.523 . S
H4261 C4236 0.950 . S
H4262 C4238 0.950 . S
H4263 C4239 0.949 . S
H4264 C4241 0.950 . S
H4265 C4243 0.950 . S
C4266 C4267 1.349 . S
C4266 C4268 1.327 . S
C4266 H4291 0.950 . S
C4267 C4266 1.349 . S
C4267 C4283 1.349 . S
C4268 C4266 1.327 . S
C4268 C4287 1.429 . S
C4268 H4292 0.950 . S
C4269 C4286 1.574 . S
C4269 C4288 1.368 . S
C4269 H4293 0.949 . S
H4270 C4274 0.949 . S
C4271 C4272 1.349 . S
C4271 C4273 1.327 . S
C4271 H4294 0.950 . S
C4272 C4271 1.349 . S
C4272 C4284 1.349 . S
C4273 C4271 1.327 . S
C4273 C4289 1.429 . S
C4273 H4295 0.950 . S
C4274 H4270 0.949 . S
C4274 C4282 1.574 . S
C4274 C4290 1.368 . S
H4275 C4283 0.950 . S
H4276 C4281 0.950 . S
H4277 C4282 0.949 . S
H4278 C4284 0.950 . S
H4279 C4285 0.950 . S
H4280 C4286 0.949 . S
C4281 H4276 0.950 . S
C4281 C4283 1.327 . S
C4281 C4287 1.429 . S
C4282 C4274 1.574 . S
C4282 H4277 0.949 . S
C4282 C4288 1.368 . S
C4283 C4267 1.349 . S
C4283 H4275 0.950 . S
C4283 C4281 1.327 . S
C4284 C4272 1.349 . S
C4284 H4278 0.950 . S
C4284 C4285 1.327 . S
C4285 H4279 0.950 . S
C4285 C4284 1.327 . S
C4285 C4289 1.429 . S
C4286 C4269 1.574 . S
C4286 H4280 0.949 . S
C4286 C4290 1.368 . S
C4287 C4268 1.429 . S
C4287 C4281 1.429 . S
C4287 C4288 1.523 . S
C4288 C4269 1.368 . S
C4288 C4282 1.368 . S
C4288 C4287 1.523 . S
C4289 C4273 1.429 . S
C4289 C4285 1.429 . S
C4289 C4290 1.523 . S
C4290 C4274 1.368 . S
C4290 C4286 1.368 . S
C4290 C4289 1.523 . S
H4291 C4266 0.950 . S
H4292 C4268 0.950 . S
H4293 C4269 0.949 . S
H4294 C4271 0.950 . S
H4295 C4273 0.950 . S
C4296 C4297 1.349 . S
C4296 C4298 1.327 . S
C4296 H4321 0.950 . S
C4297 C4296 1.349 . S
C4297 C4313 1.349 . S
C4298 C4296 1.327 . S
C4298 C4317 1.429 . S
C4298 H4322 0.950 . S
C4299 C4316 1.574 . S
C4299 C4318 1.368 . S
C4299 H4323 0.949 . S
H4300 C4304 0.949 . S
C4301 C4302 1.349 . S
C4301 C4303 1.327 . S
C4301 H4324 0.950 . S
C4302 C4301 1.349 . S
C4302 C4314 1.349 . S
C4303 C4301 1.327 . S
C4303 C4319 1.429 . S
C4303 H4325 0.950 . S
C4304 H4300 0.949 . S
C4304 C4312 1.574 . S
C4304 C4320 1.368 . S
H4305 C4313 0.950 . S
H4306 C4311 0.950 . S
H4307 C4312 0.949 . S
H4308 C4314 0.950 . S
H4309 C4315 0.950 . S
H4310 C4316 0.949 . S
C4311 H4306 0.950 . S
C4311 C4313 1.327 . S
C4311 C4317 1.429 . S
C4312 C4304 1.574 . S
C4312 H4307 0.949 . S
C4312 C4318 1.368 . S
C4313 C4297 1.349 . S
C4313 H4305 0.950 . S
C4313 C4311 1.327 . S
C4314 C4302 1.349 . S
C4314 H4308 0.950 . S
C4314 C4315 1.327 . S
C4315 H4309 0.950 . S
C4315 C4314 1.327 . S
C4315 C4319 1.429 . S
C4316 C4299 1.574 . S
C4316 H4310 0.949 . S
C4316 C4320 1.368 . S
C4317 C4298 1.429 . S
C4317 C4311 1.429 . S
C4317 C4318 1.523 . S
C4318 C4299 1.368 . S
C4318 C4312 1.368 . S
C4318 C4317 1.523 . S
C4319 C4303 1.429 . S
C4319 C4315 1.429 . S
C4319 C4320 1.523 . S
C4320 C4304 1.368 . S
C4320 C4316 1.368 . S
C4320 C4319 1.523 . S
H4321 C4296 0.950 . S
H4322 C4298 0.950 . S
H4323 C4299 0.949 . S
H4324 C4301 0.950 . S
H4325 C4303 0.950 . S
C4326 C4327 1.349 . S
C4326 C4328 1.327 . S
C4326 H4351 0.950 . S
C4327 C4326 1.349 . S
C4327 C4343 1.349 . S
C4328 C4326 1.327 . S
C4328 C4347 1.429 . S
C4328 H4352 0.950 . S
C4329 C4346 1.574 . S
C4329 C4348 1.368 . S
C4329 H4353 0.949 . S
H4330 C4334 0.949 . S
C4331 C4332 1.349 . S
C4331 C4333 1.327 . S
C4331 H4354 0.950 . S
C4332 C4331 1.349 . S
C4332 C4344 1.349 . S
C4333 C4331 1.327 . S
C4333 C4349 1.429 . S
C4333 H4355 0.950 . S
C4334 H4330 0.949 . S
C4334 C4342 1.574 . S
C4334 C4350 1.368 . S
H4335 C4343 0.950 . S
H4336 C4341 0.950 . S
H4337 C4342 0.949 . S
H4338 C4344 0.950 . S
H4339 C4345 0.950 . S
H4340 C4346 0.949 . S
C4341 H4336 0.950 . S
C4341 C4343 1.327 . S
C4341 C4347 1.429 . S
C4342 C4334 1.574 . S
C4342 H4337 0.949 . S
C4342 C4348 1.368 . S
C4343 C4327 1.349 . S
C4343 H4335 0.950 . S
C4343 C4341 1.327 . S
C4344 C4332 1.349 . S
C4344 H4338 0.950 . S
C4344 C4345 1.327 . S
C4345 H4339 0.950 . S
C4345 C4344 1.327 . S
C4345 C4349 1.429 . S
C4346 C4329 1.574 . S
C4346 H4340 0.949 . S
C4346 C4350 1.368 . S
C4347 C4328 1.429 . S
C4347 C4341 1.429 . S
C4347 C4348 1.523 . S
C4348 C4329 1.368 . S
C4348 C4342 1.368 . S
C4348 C4347 1.523 . S
C4349 C4333 1.429 . S
C4349 C4345 1.429 . S
C4349 C4350 1.523 . S
C4350 C4334 1.368 . S
C4350 C4346 1.368 . S
C4350 C4349 1.523 . S
H4351 C4326 0.950 . S
H4352 C4328 0.950 . S
H4353 C4329 0.949 . S
H4354 C4331 0.950 . S
H4355 C4333 0.950 . S
C4356 C4357 1.349 . S
C4356 C4358 1.327 . S
C4356 H4381 0.950 . S
C4357 C4356 1.349 . S
C4357 C4373 1.349 . S
C4358 C4356 1.327 . S
C4358 C4377 1.429 . S
C4358 H4382 0.950 . S
C4359 C4376 1.574 . S
C4359 C4378 1.368 . S
C4359 H4383 0.949 . S
H4360 C4364 0.949 . S
C4361 C4362 1.349 . S
C4361 C4363 1.327 . S
C4361 H4384 0.950 . S
C4362 C4361 1.349 . S
C4362 C4374 1.349 . S
C4363 C4361 1.327 . S
C4363 C4379 1.429 . S
C4363 H4385 0.950 . S
C4364 H4360 0.949 . S
C4364 C4372 1.574 . S
C4364 C4380 1.368 . S
H4365 C4373 0.950 . S
H4366 C4371 0.950 . S
H4367 C4372 0.949 . S
H4368 C4374 0.950 . S
H4369 C4375 0.950 . S
H4370 C4376 0.949 . S
C4371 H4366 0.950 . S
C4371 C4373 1.327 . S
C4371 C4377 1.429 . S
C4372 C4364 1.574 . S
C4372 H4367 0.949 . S
C4372 C4378 1.368 . S
C4373 C4357 1.349 . S
C4373 H4365 0.950 . S
C4373 C4371 1.327 . S
C4374 C4362 1.349 . S
C4374 H4368 0.950 . S
C4374 C4375 1.327 . S
C4375 H4369 0.950 . S
C4375 C4374 1.327 . S
C4375 C4379 1.429 . S
C4376 C4359 1.574 . S
C4376 H4370 0.949 . S
C4376 C4380 1.368 . S
C4377 C4358 1.429 . S
C4377 C4371 1.429 . S
C4377 C4378 1.523 . S
C4378 C4359 1.368 . S
C4378 C4372 1.368 . S
C4378 C4377 1.523 . S
C4379 C4363 1.429 . S
C4379 C4375 1.429 . S
C4379 C4380 1.523 . S
C4380 C4364 1.368 . S
C4380 C4376 1.368 . S
C4380 C4379 1.523 . S
H4381 C4356 0.950 . S
H4382 C4358 0.950 . S
H4383 C4359 0.949 . S
H4384 C4361 0.950 . S
H4385 C4363 0.950 . S
C4386 C4387 1.349 . S
C4386 C4388 1.327 . S
C4386 H4411 0.950 . S
C4387 C4386 1.349 . S
C4387 C4403 1.349 . S
C4388 C4386 1.327 . S
C4388 C4407 1.429 . S
C4388 H4412 0.950 . S
C4389 C4406 1.574 . S
C4389 C4408 1.368 . S
C4389 H4413 0.949 . S
H4390 C4394 0.949 . S
C4391 C4392 1.349 . S
C4391 C4393 1.327 . S
C4391 H4414 0.950 . S
C4392 C4391 1.349 . S
C4392 C4404 1.349 . S
C4393 C4391 1.327 . S
C4393 C4409 1.429 . S
C4393 H4415 0.950 . S
C4394 H4390 0.949 . S
C4394 C4402 1.574 . S
C4394 C4410 1.368 . S
H4395 C4403 0.950 . S
H4396 C4401 0.950 . S
H4397 C4402 0.949 . S
H4398 C4404 0.950 . S
H4399 C4405 0.950 . S
H4400 C4406 0.949 . S
C4401 H4396 0.950 . S
C4401 C4403 1.327 . S
C4401 C4407 1.429 . S
C4402 C4394 1.574 . S
C4402 H4397 0.949 . S
C4402 C4408 1.368 . S
C4403 C4387 1.349 . S
C4403 H4395 0.950 . S
C4403 C4401 1.327 . S
C4404 C4392 1.349 . S
C4404 H4398 0.950 . S
C4404 C4405 1.327 . S
C4405 H4399 0.950 . S
C4405 C4404 1.327 . S
C4405 C4409 1.429 . S
C4406 C4389 1.574 . S
C4406 H4400 0.949 . S
C4406 C4410 1.368 . S
C4407 C4388 1.429 . S
C4407 C4401 1.429 . S
C4407 C4408 1.523 . S
C4408 C4389 1.368 . S
C4408 C4402 1.368 . S
C4408 C4407 1.523 . S
C4409 C4393 1.429 . S
C4409 C4405 1.429 . S
C4409 C4410 1.523 . S
C4410 C4394 1.368 . S
C4410 C4406 1.368 . S
C4410 C4409 1.523 . S
H4411 C4386 0.950 . S
H4412 C4388 0.950 . S
H4413 C4389 0.949 . S
H4414 C4391 0.950 . S
H4415 C4393 0.950 . S
C4416 C4417 1.349 . S
C4416 C4418 1.327 . S
C4416 H4441 0.950 . S
C4417 C4416 1.349 . S
C4417 C4433 1.349 . S
C4418 C4416 1.327 . S
C4418 C4437 1.429 . S
C4418 H4442 0.950 . S
C4419 C4436 1.574 . S
C4419 C4438 1.368 . S
C4419 H4443 0.949 . S
H4420 C4424 0.949 . S
C4421 C4422 1.349 . S
C4421 C4423 1.327 . S
C4421 H4444 0.950 . S
C4422 C4421 1.349 . S
C4422 C4434 1.349 . S
C4423 C4421 1.327 . S
C4423 C4439 1.429 . S
C4423 H4445 0.950 . S
C4424 H4420 0.949 . S
C4424 C4432 1.574 . S
C4424 C4440 1.368 . S
H4425 C4433 0.950 . S
H4426 C4431 0.950 . S
H4427 C4432 0.949 . S
H4428 C4434 0.950 . S
H4429 C4435 0.950 . S
H4430 C4436 0.949 . S
C4431 H4426 0.950 . S
C4431 C4433 1.327 . S
C4431 C4437 1.429 . S
C4432 C4424 1.574 . S
C4432 H4427 0.949 . S
C4432 C4438 1.368 . S
C4433 C4417 1.349 . S
C4433 H4425 0.950 . S
C4433 C4431 1.327 . S
C4434 C4422 1.349 . S
C4434 H4428 0.950 . S
C4434 C4435 1.327 . S
C4435 H4429 0.950 . S
C4435 C4434 1.327 . S
C4435 C4439 1.429 . S
C4436 C4419 1.574 . S
C4436 H4430 0.949 . S
C4436 C4440 1.368 . S
C4437 C4418 1.429 . S
C4437 C4431 1.429 . S
C4437 C4438 1.523 . S
C4438 C4419 1.368 . S
C4438 C4432 1.368 . S
C4438 C4437 1.523 . S
C4439 C4423 1.429 . S
C4439 C4435 1.429 . S
C4439 C4440 1.523 . S
C4440 C4424 1.368 . S
C4440 C4436 1.368 . S
C4440 C4439 1.523 . S
H4441 C4416 0.950 . S
H4442 C4418 0.950 . S
H4443 C4419 0.949 . S
H4444 C4421 0.950 . S
H4445 C4423 0.950 . S
C4446 C4447 1.349 . S
C4446 C4448 1.327 . S
C4446 H4471 0.950 . S
C4447 C4446 1.349 . S
C4447 C4463 1.349 . S
C4448 C4446 1.327 . S
C4448 C4467 1.429 . S
C4448 H4472 0.950 . S
C4449 C4466 1.574 . S
C4449 C4468 1.368 . S
C4449 H4473 0.949 . S
H4450 C4454 0.949 . S
C4451 C4452 1.349 . S
C4451 C4453 1.327 . S
C4451 H4474 0.950 . S
C4452 C4451 1.349 . S
C4452 C4464 1.349 . S
C4453 C4451 1.327 . S
C4453 C4469 1.429 . S
C4453 H4475 0.950 . S
C4454 H4450 0.949 . S
C4454 C4462 1.574 . S
C4454 C4470 1.368 . S
H4455 C4463 0.950 . S
H4456 C4461 0.950 . S
H4457 C4462 0.949 . S
H4458 C4464 0.950 . S
H4459 C4465 0.950 . S
H4460 C4466 0.949 . S
C4461 H4456 0.950 . S
C4461 C4463 1.327 . S
C4461 C4467 1.429 . S
C4462 C4454 1.574 . S
C4462 H4457 0.949 . S
C4462 C4468 1.368 . S
C4463 C4447 1.349 . S
C4463 H4455 0.950 . S
C4463 C4461 1.327 . S
C4464 C4452 1.349 . S
C4464 H4458 0.950 . S
C4464 C4465 1.327 . S
C4465 H4459 0.950 . S
C4465 C4464 1.327 . S
C4465 C4469 1.429 . S
C4466 C4449 1.574 . S
C4466 H4460 0.949 . S
C4466 C4470 1.368 . S
C4467 C4448 1.429 . S
C4467 C4461 1.429 . S
C4467 C4468 1.523 . S
C4468 C4449 1.368 . S
C4468 C4462 1.368 . S
C4468 C4467 1.523 . S
C4469 C4453 1.429 . S
C4469 C4465 1.429 . S
C4469 C4470 1.523 . S
C4470 C4454 1.368 . S
C4470 C4466 1.368 . S
C4470 C4469 1.523 . S
H4471 C4446 0.950 . S
H4472 C4448 0.950 . S
H4473 C4449 0.949 . S
H4474 C4451 0.950 . S
H4475 C4453 0.950 . S
C4476 C4477 1.349 . S
C4476 C4478 1.327 . S
C4476 H4501 0.950 . S
C4477 C4476 1.349 . S
C4477 C4493 1.349 . S
C4478 C4476 1.327 . S
C4478 C4497 1.429 . S
C4478 H4502 0.950 . S
C4479 C4496 1.574 . S
C4479 C4498 1.368 . S
C4479 H4503 0.949 . S
H4480 C4484 0.949 . S
C4481 C4482 1.349 . S
C4481 C4483 1.327 . S
C4481 H4504 0.950 . S
C4482 C4481 1.349 . S
C4482 C4494 1.349 . S
C4483 C4481 1.327 . S
C4483 C4499 1.429 . S
C4483 H4505 0.950 . S
C4484 H4480 0.949 . S
C4484 C4492 1.574 . S
C4484 C4500 1.368 . S
H4485 C4493 0.950 . S
H4486 C4491 0.950 . S
H4487 C4492 0.949 . S
H4488 C4494 0.950 . S
H4489 C4495 0.950 . S
H4490 C4496 0.949 . S
C4491 H4486 0.950 . S
C4491 C4493 1.327 . S
C4491 C4497 1.429 . S
C4492 C4484 1.574 . S
C4492 H4487 0.949 . S
C4492 C4498 1.368 . S
C4493 C4477 1.349 . S
C4493 H4485 0.950 . S
C4493 C4491 1.327 . S
C4494 C4482 1.349 . S
C4494 H4488 0.950 . S
C4494 C4495 1.327 . S
C4495 H4489 0.950 . S
C4495 C4494 1.327 . S
C4495 C4499 1.429 . S
C4496 C4479 1.574 . S
C4496 H4490 0.949 . S
C4496 C4500 1.368 . S
C4497 C4478 1.429 . S
C4497 C4491 1.429 . S
C4497 C4498 1.523 . S
C4498 C4479 1.368 . S
C4498 C4492 1.368 . S
C4498 C4497 1.523 . S
C4499 C4483 1.429 . S
C4499 C4495 1.429 . S
C4499 C4500 1.523 . S
C4500 C4484 1.368 . S
C4500 C4496 1.368 . S
C4500 C4499 1.523 . S
H4501 C4476 0.950 . S
H4502 C4478 0.950 . S
H4503 C4479 0.949 . S
H4504 C4481 0.950 . S
H4505 C4483 0.950 . S
C4506 C4507 1.349 . S
C4506 C4508 1.327 . S
C4506 H4531 0.950 . S
C4507 C4506 1.349 . S
C4507 C4523 1.349 . S
C4508 C4506 1.327 . S
C4508 C4527 1.429 . S
C4508 H4532 0.950 . S
C4509 C4526 1.574 . S
C4509 C4528 1.368 . S
C4509 H4533 0.949 . S
H4510 C4514 0.949 . S
C4511 C4512 1.349 . S
C4511 C4513 1.327 . S
C4511 H4534 0.950 . S
C4512 C4511 1.349 . S
C4512 C4524 1.349 . S
C4513 C4511 1.327 . S
C4513 C4529 1.429 . S
C4513 H4535 0.950 . S
C4514 H4510 0.949 . S
C4514 C4522 1.574 . S
C4514 C4530 1.368 . S
H4515 C4523 0.950 . S
H4516 C4521 0.950 . S
H4517 C4522 0.949 . S
H4518 C4524 0.950 . S
H4519 C4525 0.950 . S
H4520 C4526 0.949 . S
C4521 H4516 0.950 . S
C4521 C4523 1.327 . S
C4521 C4527 1.429 . S
C4522 C4514 1.574 . S
C4522 H4517 0.949 . S
C4522 C4528 1.368 . S
C4523 C4507 1.349 . S
C4523 H4515 0.950 . S
C4523 C4521 1.327 . S
C4524 C4512 1.349 . S
C4524 H4518 0.950 . S
C4524 C4525 1.327 . S
C4525 H4519 0.950 . S
C4525 C4524 1.327 . S
C4525 C4529 1.429 . S
C4526 C4509 1.574 . S
C4526 H4520 0.949 . S
C4526 C4530 1.368 . S
C4527 C4508 1.429 . S
C4527 C4521 1.429 . S
C4527 C4528 1.523 . S
C4528 C4509 1.368 . S
C4528 C4522 1.368 . S
C4528 C4527 1.523 . S
C4529 C4513 1.429 . S
C4529 C4525 1.429 . S
C4529 C4530 1.523 . S
C4530 C4514 1.368 . S
C4530 C4526 1.368 . S
C4530 C4529 1.523 . S
H4531 C4506 0.950 . S
H4532 C4508 0.950 . S
H4533 C4509 0.949 . S
H4534 C4511 0.950 . S
H4535 C4513 0.950 . S
C4536 C4537 1.349 . S
C4536 C4538 1.327 . S
C4536 H4561 0.950 . S
C4537 C4536 1.349 . S
C4537 C4553 1.349 . S
C4538 C4536 1.327 . S
C4538 C4557 1.429 . S
C4538 H4562 0.950 . S
C4539 C4556 1.574 . S
C4539 C4558 1.368 . S
C4539 H4563 0.949 . S
H4540 C4544 0.949 . S
C4541 C4542 1.349 . S
C4541 C4543 1.327 . S
C4541 H4564 0.950 . S
C4542 C4541 1.349 . S
C4542 C4554 1.349 . S
C4543 C4541 1.327 . S
C4543 C4559 1.429 . S
C4543 H4565 0.950 . S
C4544 H4540 0.949 . S
C4544 C4552 1.574 . S
C4544 C4560 1.368 . S
H4545 C4553 0.950 . S
H4546 C4551 0.950 . S
H4547 C4552 0.949 . S
H4548 C4554 0.950 . S
H4549 C4555 0.950 . S
H4550 C4556 0.949 . S
C4551 H4546 0.950 . S
C4551 C4553 1.327 . S
C4551 C4557 1.429 . S
C4552 C4544 1.574 . S
C4552 H4547 0.949 . S
C4552 C4558 1.368 . S
C4553 C4537 1.349 . S
C4553 H4545 0.950 . S
C4553 C4551 1.327 . S
C4554 C4542 1.349 . S
C4554 H4548 0.950 . S
C4554 C4555 1.327 . S
C4555 H4549 0.950 . S
C4555 C4554 1.327 . S
C4555 C4559 1.429 . S
C4556 C4539 1.574 . S
C4556 H4550 0.949 . S
C4556 C4560 1.368 . S
C4557 C4538 1.429 . S
C4557 C4551 1.429 . S
C4557 C4558 1.523 . S
C4558 C4539 1.368 . S
C4558 C4552 1.368 . S
C4558 C4557 1.523 . S
C4559 C4543 1.429 . S
C4559 C4555 1.429 . S
C4559 C4560 1.523 . S
C4560 C4544 1.368 . S
C4560 C4556 1.368 . S
C4560 C4559 1.523 . S
H4561 C4536 0.950 . S
H4562 C4538 0.950 . S
H4563 C4539 0.949 . S
H4564 C4541 0.950 . S
H4565 C4543 0.950 . S
C4566 C4567 1.349 . S
C4566 C4568 1.327 . S
C4566 H4591 0.950 . S
C4567 C4566 1.349 . S
C4567 C4583 1.349 . S
C4568 C4566 1.327 . S
C4568 C4587 1.429 . S
C4568 H4592 0.950 . S
C4569 C4586 1.574 . S
C4569 C4588 1.368 . S
C4569 H4593 0.949 . S
H4570 C4574 0.949 . S
C4571 C4572 1.349 . S
C4571 C4573 1.327 . S
C4571 H4594 0.950 . S
C4572 C4571 1.349 . S
C4572 C4584 1.349 . S
C4573 C4571 1.327 . S
C4573 C4589 1.429 . S
C4573 H4595 0.950 . S
C4574 H4570 0.949 . S
C4574 C4582 1.574 . S
C4574 C4590 1.368 . S
H4575 C4583 0.950 . S
H4576 C4581 0.950 . S
H4577 C4582 0.949 . S
H4578 C4584 0.950 . S
H4579 C4585 0.950 . S
H4580 C4586 0.949 . S
C4581 H4576 0.950 . S
C4581 C4583 1.327 . S
C4581 C4587 1.429 . S
C4582 C4574 1.574 . S
C4582 H4577 0.949 . S
C4582 C4588 1.368 . S
C4583 C4567 1.349 . S
C4583 H4575 0.950 . S
C4583 C4581 1.327 . S
C4584 C4572 1.349 . S
C4584 H4578 0.950 . S
C4584 C4585 1.327 . S
C4585 H4579 0.950 . S
C4585 C4584 1.327 . S
C4585 C4589 1.429 . S
C4586 C4569 1.574 . S
C4586 H4580 0.949 . S
C4586 C4590 1.368 . S
C4587 C4568 1.429 . S
C4587 C4581 1.429 . S
C4587 C4588 1.523 . S
C4588 C4569 1.368 . S
C4588 C4582 1.368 . S
C4588 C4587 1.523 . S
C4589 C4573 1.429 . S
C4589 C4585 1.429 . S
C4589 C4590 1.523 . S
C4590 C4574 1.368 . S
C4590 C4586 1.368 . S
C4590 C4589 1.523 . S
H4591 C4566 0.950 . S
H4592 C4568 0.950 . S
H4593 C4569 0.949 . S
H4594 C4571 0.950 . S
H4595 C4573 0.950 . S
C4596 C4597 1.349 . S
C4596 C4598 1.327 . S
C4596 H4621 0.950 . S
C4597 C4596 1.349 . S
C4597 C4613 1.349 . S
C4598 C4596 1.327 . S
C4598 C4617 1.429 . S
C4598 H4622 0.950 . S
C4599 C4616 1.574 . S
C4599 C4618 1.368 . S
C4599 H4623 0.949 . S
H4600 C4604 0.949 . S
C4601 C4602 1.349 . S
C4601 C4603 1.327 . S
C4601 H4624 0.950 . S
C4602 C4601 1.349 . S
C4602 C4614 1.349 . S
C4603 C4601 1.327 . S
C4603 C4619 1.429 . S
C4603 H4625 0.950 . S
C4604 H4600 0.949 . S
C4604 C4612 1.574 . S
C4604 C4620 1.368 . S
H4605 C4613 0.950 . S
H4606 C4611 0.950 . S
H4607 C4612 0.949 . S
H4608 C4614 0.950 . S
H4609 C4615 0.950 . S
H4610 C4616 0.949 . S
C4611 H4606 0.950 . S
C4611 C4613 1.327 . S
C4611 C4617 1.429 . S
C4612 C4604 1.574 . S
C4612 H4607 0.949 . S
C4612 C4618 1.368 . S
C4613 C4597 1.349 . S
C4613 H4605 0.950 . S
C4613 C4611 1.327 . S
C4614 C4602 1.349 . S
C4614 H4608 0.950 . S
C4614 C4615 1.327 . S
C4615 H4609 0.950 . S
C4615 C4614 1.327 . S
C4615 C4619 1.429 . S
C4616 C4599 1.574 . S
C4616 H4610 0.949 . S
C4616 C4620 1.368 . S
C4617 C4598 1.429 . S
C4617 C4611 1.429 . S
C4617 C4618 1.523 . S
C4618 C4599 1.368 . S
C4618 C4612 1.368 . S
C4618 C4617 1.523 . S
C4619 C4603 1.429 . S
C4619 C4615 1.429 . S
C4619 C4620 1.523 . S
C4620 C4604 1.368 . S
C4620 C4616 1.368 . S
C4620 C4619 1.523 . S
H4621 C4596 0.950 . S
H4622 C4598 0.950 . S
H4623 C4599 0.949 . S
H4624 C4601 0.950 . S
H4625 C4603 0.950 . S
C4626 C4627 1.349 . S
C4626 C4628 1.327 . S
C4626 H4651 0.950 . S
C4627 C4626 1.349 . S
C4627 C4643 1.349 . S
C4628 C4626 1.327 . S
C4628 C4647 1.429 . S
C4628 H4652 0.950 . S
C4629 C4646 1.574 . S
C4629 C4648 1.368 . S
C4629 H4653 0.949 . S
H4630 C4634 0.949 . S
C4631 C4632 1.349 . S
C4631 C4633 1.327 . S
C4631 H4654 0.950 . S
C4632 C4631 1.349 . S
C4632 C4644 1.349 . S
C4633 C4631 1.327 . S
C4633 C4649 1.429 . S
C4633 H4655 0.950 . S
C4634 H4630 0.949 . S
C4634 C4642 1.574 . S
C4634 C4650 1.368 . S
H4635 C4643 0.950 . S
H4636 C4641 0.950 . S
H4637 C4642 0.949 . S
H4638 C4644 0.950 . S
H4639 C4645 0.950 . S
H4640 C4646 0.949 . S
C4641 H4636 0.950 . S
C4641 C4643 1.327 . S
C4641 C4647 1.429 . S
C4642 C4634 1.574 . S
C4642 H4637 0.949 . S
C4642 C4648 1.368 . S
C4643 C4627 1.349 . S
C4643 H4635 0.950 . S
C4643 C4641 1.327 . S
C4644 C4632 1.349 . S
C4644 H4638 0.950 . S
C4644 C4645 1.327 . S
C4645 H4639 0.950 . S
C4645 C4644 1.327 . S
C4645 C4649 1.429 . S
C4646 C4629 1.574 . S
C4646 H4640 0.949 . S
C4646 C4650 1.368 . S
C4647 C4628 1.429 . S
C4647 C4641 1.429 . S
C4647 C4648 1.523 . S
C4648 C4629 1.368 . S
C4648 C4642 1.368 . S
C4648 C4647 1.523 . S
C4649 C4633 1.429 . S
C4649 C4645 1.429 . S
C4649 C4650 1.523 . S
C4650 C4634 1.368 . S
C4650 C4646 1.368 . S
C4650 C4649 1.523 . S
H4651 C4626 0.950 . S
H4652 C4628 0.950 . S
H4653 C4629 0.949 . S
H4654 C4631 0.950 . S
H4655 C4633 0.950 . S
C4656 C4657 1.349 . S
C4656 C4658 1.327 . S
C4656 H4681 0.950 . S
C4657 C4656 1.349 . S
C4657 C4673 1.349 . S
C4658 C4656 1.327 . S
C4658 C4677 1.429 . S
C4658 H4682 0.950 . S
C4659 C4676 1.574 . S
C4659 C4678 1.368 . S
C4659 H4683 0.949 . S
H4660 C4664 0.949 . S
C4661 C4662 1.349 . S
C4661 C4663 1.327 . S
C4661 H4684 0.950 . S
C4662 C4661 1.349 . S
C4662 C4674 1.349 . S
C4663 C4661 1.327 . S
C4663 C4679 1.429 . S
C4663 H4685 0.950 . S
C4664 H4660 0.949 . S
C4664 C4672 1.574 . S
C4664 C4680 1.368 . S
H4665 C4673 0.950 . S
H4666 C4671 0.950 . S
H4667 C4672 0.949 . S
H4668 C4674 0.950 . S
H4669 C4675 0.950 . S
H4670 C4676 0.949 . S
C4671 H4666 0.950 . S
C4671 C4673 1.327 . S
C4671 C4677 1.429 . S
C4672 C4664 1.574 . S
C4672 H4667 0.949 . S
C4672 C4678 1.368 . S
C4673 C4657 1.349 . S
C4673 H4665 0.950 . S
C4673 C4671 1.327 . S
C4674 C4662 1.349 . S
C4674 H4668 0.950 . S
C4674 C4675 1.327 . S
C4675 H4669 0.950 . S
C4675 C4674 1.327 . S
C4675 C4679 1.429 . S
C4676 C4659 1.574 . S
C4676 H4670 0.949 . S
C4676 C4680 1.368 . S
C4677 C4658 1.429 . S
C4677 C4671 1.429 . S
C4677 C4678 1.523 . S
C4678 C4659 1.368 . S
C4678 C4672 1.368 . S
C4678 C4677 1.523 . S
C4679 C4663 1.429 . S
C4679 C4675 1.429 . S
C4679 C4680 1.523 . S
C4680 C4664 1.368 . S
C4680 C4676 1.368 . S
C4680 C4679 1.523 . S
H4681 C4656 0.950 . S
H4682 C4658 0.950 . S
H4683 C4659 0.949 . S
H4684 C4661 0.950 . S
H4685 C4663 0.950 . S
C4686 C4687 1.349 . S
C4686 C4688 1.327 . S
C4686 H4711 0.950 . S
C4687 C4686 1.349 . S
C4687 C4703 1.349 . S
C4688 C4686 1.327 . S
C4688 C4707 1.429 . S
C4688 H4712 0.950 . S
C4689 C4706 1.574 . S
C4689 C4708 1.368 . S
C4689 H4713 0.949 . S
H4690 C4694 0.949 . S
C4691 C4692 1.349 . S
C4691 C4693 1.327 . S
C4691 H4714 0.950 . S
C4692 C4691 1.349 . S
C4692 C4704 1.349 . S
C4693 C4691 1.327 . S
C4693 C4709 1.429 . S
C4693 H4715 0.950 . S
C4694 H4690 0.949 . S
C4694 C4702 1.574 . S
C4694 C4710 1.368 . S
H4695 C4703 0.950 . S
H4696 C4701 0.950 . S
H4697 C4702 0.949 . S
H4698 C4704 0.950 . S
H4699 C4705 0.950 . S
H4700 C4706 0.949 . S
C4701 H4696 0.950 . S
C4701 C4703 1.327 . S
C4701 C4707 1.429 . S
C4702 C4694 1.574 . S
C4702 H4697 0.949 . S
C4702 C4708 1.368 . S
C4703 C4687 1.349 . S
C4703 H4695 0.950 . S
C4703 C4701 1.327 . S
C4704 C4692 1.349 . S
C4704 H4698 0.950 . S
C4704 C4705 1.327 . S
C4705 H4699 0.950 . S
C4705 C4704 1.327 . S
C4705 C4709 1.429 . S
C4706 C4689 1.574 . S
C4706 H4700 0.949 . S
C4706 C4710 1.368 . S
C4707 C4688 1.429 . S
C4707 C4701 1.429 . S
C4707 C4708 1.523 . S
C4708 C4689 1.368 . S
C4708 C4702 1.368 . S
C4708 C4707 1.523 . S
C4709 C4693 1.429 . S
C4709 C4705 1.429 . S
C4709 C4710 1.523 . S
C4710 C4694 1.368 . S
C4710 C4706 1.368 . S
C4710 C4709 1.523 . S
H4711 C4686 0.950 . S
H4712 C4688 0.950 . S
H4713 C4689 0.949 . S
H4714 C4691 0.950 . S
H4715 C4693 0.950 . S
C4716 C4717 1.349 . S
C4716 C4718 1.327 . S
C4716 H4741 0.950 . S
C4717 C4716 1.349 . S
C4717 C4733 1.349 . S
C4718 C4716 1.327 . S
C4718 C4737 1.429 . S
C4718 H4742 0.950 . S
C4719 C4736 1.574 . S
C4719 C4738 1.368 . S
C4719 H4743 0.949 . S
H4720 C4724 0.949 . S
C4721 C4722 1.349 . S
C4721 C4723 1.327 . S
C4721 H4744 0.950 . S
C4722 C4721 1.349 . S
C4722 C4734 1.349 . S
C4723 C4721 1.327 . S
C4723 C4739 1.429 . S
C4723 H4745 0.950 . S
C4724 H4720 0.949 . S
C4724 C4732 1.574 . S
C4724 C4740 1.368 . S
H4725 C4733 0.950 . S
H4726 C4731 0.950 . S
H4727 C4732 0.949 . S
H4728 C4734 0.950 . S
H4729 C4735 0.950 . S
H4730 C4736 0.949 . S
C4731 H4726 0.950 . S
C4731 C4733 1.327 . S
C4731 C4737 1.429 . S
C4732 C4724 1.574 . S
C4732 H4727 0.949 . S
C4732 C4738 1.368 . S
C4733 C4717 1.349 . S
C4733 H4725 0.950 . S
C4733 C4731 1.327 . S
C4734 C4722 1.349 . S
C4734 H4728 0.950 . S
C4734 C4735 1.327 . S
C4735 H4729 0.950 . S
C4735 C4734 1.327 . S
C4735 C4739 1.429 . S
C4736 C4719 1.574 . S
C4736 H4730 0.949 . S
C4736 C4740 1.368 . S
C4737 C4718 1.429 . S
C4737 C4731 1.429 . S
C4737 C4738 1.523 . S
C4738 C4719 1.368 . S
C4738 C4732 1.368 . S
C4738 C4737 1.523 . S
C4739 C4723 1.429 . S
C4739 C4735 1.429 . S
C4739 C4740 1.523 . S
C4740 C4724 1.368 . S
C4740 C4736 1.368 . S
C4740 C4739 1.523 . S
H4741 C4716 0.950 . S
H4742 C4718 0.950 . S
H4743 C4719 0.949 . S
H4744 C4721 0.950 . S
H4745 C4723 0.950 . S
C4746 C4747 1.349 . S
C4746 C4748 1.327 . S
C4746 H4771 0.950 . S
C4747 C4746 1.349 . S
C4747 C4763 1.349 . S
C4748 C4746 1.327 . S
C4748 C4767 1.429 . S
C4748 H4772 0.950 . S
C4749 C4766 1.574 . S
C4749 C4768 1.368 . S
C4749 H4773 0.949 . S
H4750 C4754 0.949 . S
C4751 C4752 1.349 . S
C4751 C4753 1.327 . S
C4751 H4774 0.950 . S
C4752 C4751 1.349 . S
C4752 C4764 1.349 . S
C4753 C4751 1.327 . S
C4753 C4769 1.429 . S
C4753 H4775 0.950 . S
C4754 H4750 0.949 . S
C4754 C4762 1.574 . S
C4754 C4770 1.368 . S
H4755 C4763 0.950 . S
H4756 C4761 0.950 . S
H4757 C4762 0.949 . S
H4758 C4764 0.950 . S
H4759 C4765 0.950 . S
H4760 C4766 0.949 . S
C4761 H4756 0.950 . S
C4761 C4763 1.327 . S
C4761 C4767 1.429 . S
C4762 C4754 1.574 . S
C4762 H4757 0.949 . S
C4762 C4768 1.368 . S
C4763 C4747 1.349 . S
C4763 H4755 0.950 . S
C4763 C4761 1.327 . S
C4764 C4752 1.349 . S
C4764 H4758 0.950 . S
C4764 C4765 1.327 . S
C4765 H4759 0.950 . S
C4765 C4764 1.327 . S
C4765 C4769 1.429 . S
C4766 C4749 1.574 . S
C4766 H4760 0.949 . S
C4766 C4770 1.368 . S
C4767 C4748 1.429 . S
C4767 C4761 1.429 . S
C4767 C4768 1.523 . S
C4768 C4749 1.368 . S
C4768 C4762 1.368 . S
C4768 C4767 1.523 . S
C4769 C4753 1.429 . S
C4769 C4765 1.429 . S
C4769 C4770 1.523 . S
C4770 C4754 1.368 . S
C4770 C4766 1.368 . S
C4770 C4769 1.523 . S
H4771 C4746 0.950 . S
H4772 C4748 0.950 . S
H4773 C4749 0.949 . S
H4774 C4751 0.950 . S
H4775 C4753 0.950 . S
C4776 C4777 1.349 . S
C4776 C4778 1.327 . S
C4776 H4801 0.950 . S
C4777 C4776 1.349 . S
C4777 C4793 1.349 . S
C4778 C4776 1.327 . S
C4778 C4797 1.429 . S
C4778 H4802 0.950 . S
C4779 C4796 1.574 . S
C4779 C4798 1.368 . S
C4779 H4803 0.949 . S
H4780 C4784 0.949 . S
C4781 C4782 1.349 . S
C4781 C4783 1.327 . S
C4781 H4804 0.950 . S
C4782 C4781 1.349 . S
C4782 C4794 1.349 . S
C4783 C4781 1.327 . S
C4783 C4799 1.429 . S
C4783 H4805 0.950 . S
C4784 H4780 0.949 . S
C4784 C4792 1.574 . S
C4784 C4800 1.368 . S
H4785 C4793 0.950 . S
H4786 C4791 0.950 . S
H4787 C4792 0.949 . S
H4788 C4794 0.950 . S
H4789 C4795 0.950 . S
H4790 C4796 0.949 . S
C4791 H4786 0.950 . S
C4791 C4793 1.327 . S
C4791 C4797 1.429 . S
C4792 C4784 1.574 . S
C4792 H4787 0.949 . S
C4792 C4798 1.368 . S
C4793 C4777 1.349 . S
C4793 H4785 0.950 . S
C4793 C4791 1.327 . S
C4794 C4782 1.349 . S
C4794 H4788 0.950 . S
C4794 C4795 1.327 . S
C4795 H4789 0.950 . S
C4795 C4794 1.327 . S
C4795 C4799 1.429 . S
C4796 C4779 1.574 . S
C4796 H4790 0.949 . S
C4796 C4800 1.368 . S
C4797 C4778 1.429 . S
C4797 C4791 1.429 . S
C4797 C4798 1.523 . S
C4798 C4779 1.368 . S
C4798 C4792 1.368 . S
C4798 C4797 1.523 . S
C4799 C4783 1.429 . S
C4799 C4795 1.429 . S
C4799 C4800 1.523 . S
C4800 C4784 1.368 . S
C4800 C4796 1.368 . S
C4800 C4799 1.523 . S
H4801 C4776 0.950 . S
H4802 C4778 0.950 . S
H4803 C4779 0.949 . S
H4804 C4781 0.950 . S
H4805 C4783 0.950 . S
C4806 C4807 1.349 . S
C4806 C4808 1.327 . S
C4806 H4831 0.950 . S
C4807 C4806 1.349 . S
C4807 C4823 1.349 . S
C4808 C4806 1.327 . S
C4808 C4827 1.429 . S
C4808 H4832 0.950 . S
C4809 C4826 1.574 . S
C4809 C4828 1.368 . S
C4809 H4833 0.949 . S
H4810 C4814 0.949 . S
C4811 C4812 1.349 . S
C4811 C4813 1.327 . S
C4811 H4834 0.950 . S
C4812 C4811 1.349 . S
C4812 C4824 1.349 . S
C4813 C4811 1.327 . S
C4813 C4829 1.429 . S
C4813 H4835 0.950 . S
C4814 H4810 0.949 . S
C4814 C4822 1.574 . S
C4814 C4830 1.368 . S
H4815 C4823 0.950 . S
H4816 C4821 0.950 . S
H4817 C4822 0.949 . S
H4818 C4824 0.950 . S
H4819 C4825 0.950 . S
H4820 C4826 0.949 . S
C4821 H4816 0.950 . S
C4821 C4823 1.327 . S
C4821 C4827 1.429 . S
C4822 C4814 1.574 . S
C4822 H4817 0.949 . S
C4822 C4828 1.368 . S
C4823 C4807 1.349 . S
C4823 H4815 0.950 . S
C4823 C4821 1.327 . S
C4824 C4812 1.349 . S
C4824 H4818 0.950 . S
C4824 C4825 1.327 . S
C4825 H4819 0.950 . S
C4825 C4824 1.327 . S
C4825 C4829 1.429 . S
C4826 C4809 1.574 . S
C4826 H4820 0.949 . S
C4826 C4830 1.368 . S
C4827 C4808 1.429 . S
C4827 C4821 1.429 . S
C4827 C4828 1.523 . S
C4828 C4809 1.368 . S
C4828 C4822 1.368 . S
C4828 C4827 1.523 . S
C4829 C4813 1.429 . S
C4829 C4825 1.429 . S
C4829 C4830 1.523 . S
C4830 C4814 1.368 . S
C4830 C4826 1.368 . S
C4830 C4829 1.523 . S
H4831 C4806 0.950 . S
H4832 C4808 0.950 . S
H4833 C4809 0.949 . S
H4834 C4811 0.950 . S
H4835 C4813 0.950 . S
C4836 C4837 1.349 . S
C4836 C4838 1.327 . S
C4836 H4861 0.950 . S
C4837 C4836 1.349 . S
C4837 C4853 1.349 . S
C4838 C4836 1.327 . S
C4838 C4857 1.429 . S
C4838 H4862 0.950 . S
C4839 C4856 1.574 . S
C4839 C4858 1.368 . S
C4839 H4863 0.949 . S
H4840 C4844 0.949 . S
C4841 C4842 1.349 . S
C4841 C4843 1.327 . S
C4841 H4864 0.950 . S
C4842 C4841 1.349 . S
C4842 C4854 1.349 . S
C4843 C4841 1.327 . S
C4843 C4859 1.429 . S
C4843 H4865 0.950 . S
C4844 H4840 0.949 . S
C4844 C4852 1.574 . S
C4844 C4860 1.368 . S
H4845 C4853 0.950 . S
H4846 C4851 0.950 . S
H4847 C4852 0.949 . S
H4848 C4854 0.950 . S
H4849 C4855 0.950 . S
H4850 C4856 0.949 . S
C4851 H4846 0.950 . S
C4851 C4853 1.327 . S
C4851 C4857 1.429 . S
C4852 C4844 1.574 . S
C4852 H4847 0.949 . S
C4852 C4858 1.368 . S
C4853 C4837 1.349 . S
C4853 H4845 0.950 . S
C4853 C4851 1.327 . S
C4854 C4842 1.349 . S
C4854 H4848 0.950 . S
C4854 C4855 1.327 . S
C4855 H4849 0.950 . S
C4855 C4854 1.327 . S
C4855 C4859 1.429 . S
C4856 C4839 1.574 . S
C4856 H4850 0.949 . S
C4856 C4860 1.368 . S
C4857 C4838 1.429 . S
C4857 C4851 1.429 . S
C4857 C4858 1.523 . S
C4858 C4839 1.368 . S
C4858 C4852 1.368 . S
C4858 C4857 1.523 . S
C4859 C4843 1.429 . S
C4859 C4855 1.429 . S
C4859 C4860 1.523 . S
C4860 C4844 1.368 . S
C4860 C4856 1.368 . S
C4860 C4859 1.523 . S
H4861 C4836 0.950 . S
H4862 C4838 0.950 . S
H4863 C4839 0.949 . S
H4864 C4841 0.950 . S
H4865 C4843 0.950 . S
C4866 C4867 1.349 . S
C4866 C4868 1.327 . S
C4866 H4891 0.950 . S
C4867 C4866 1.349 . S
C4867 C4883 1.349 . S
C4868 C4866 1.327 . S
C4868 C4887 1.429 . S
C4868 H4892 0.950 . S
C4869 C4886 1.574 . S
C4869 C4888 1.368 . S
C4869 H4893 0.949 . S
H4870 C4874 0.949 . S
C4871 C4872 1.349 . S
C4871 C4873 1.327 . S
C4871 H4894 0.950 . S
C4872 C4871 1.349 . S
C4872 C4884 1.349 . S
C4873 C4871 1.327 . S
C4873 C4889 1.429 . S
C4873 H4895 0.950 . S
C4874 H4870 0.949 . S
C4874 C4882 1.574 . S
C4874 C4890 1.368 . S
H4875 C4883 0.950 . S
H4876 C4881 0.950 . S
H4877 C4882 0.949 . S
H4878 C4884 0.950 . S
H4879 C4885 0.950 . S
H4880 C4886 0.949 . S
C4881 H4876 0.950 . S
C4881 C4883 1.327 . S
C4881 C4887 1.429 . S
C4882 C4874 1.574 . S
C4882 H4877 0.949 . S
C4882 C4888 1.368 . S
C4883 C4867 1.349 . S
C4883 H4875 0.950 . S
C4883 C4881 1.327 . S
C4884 C4872 1.349 . S
C4884 H4878 0.950 . S
C4884 C4885 1.327 . S
C4885 H4879 0.950 . S
C4885 C4884 1.327 . S
C4885 C4889 1.429 . S
C4886 C4869 1.574 . S
C4886 H4880 0.949 . S
C4886 C4890 1.368 . S
C4887 C4868 1.429 . S
C4887 C4881 1.429 . S
C4887 C4888 1.523 . S
C4888 C4869 1.368 . S
C4888 C4882 1.368 . S
C4888 C4887 1.523 . S
C4889 C4873 1.429 . S
C4889 C4885 1.429 . S
C4889 C4890 1.523 . S
C4890 C4874 1.368 . S
C4890 C4886 1.368 . S
C4890 C4889 1.523 . S
H4891 C4866 0.950 . S
H4892 C4868 0.950 . S
H4893 C4869 0.949 . S
H4894 C4871 0.950 . S
H4895 C4873 0.950 . S
C4896 C4897 1.349 . S
C4896 C4898 1.327 . S
C4896 H4921 0.950 . S
C4897 C4896 1.349 . S
C4897 C4913 1.349 . S
C4898 C4896 1.327 . S
C4898 C4917 1.429 . S
C4898 H4922 0.950 . S
C4899 C4916 1.574 . S
C4899 C4918 1.368 . S
C4899 H4923 0.949 . S
H4900 C4904 0.949 . S
C4901 C4902 1.349 . S
C4901 C4903 1.327 . S
C4901 H4924 0.950 . S
C4902 C4901 1.349 . S
C4902 C4914 1.349 . S
C4903 C4901 1.327 . S
C4903 C4919 1.429 . S
C4903 H4925 0.950 . S
C4904 H4900 0.949 . S
C4904 C4912 1.574 . S
C4904 C4920 1.368 . S
H4905 C4913 0.950 . S
H4906 C4911 0.950 . S
H4907 C4912 0.949 . S
H4908 C4914 0.950 . S
H4909 C4915 0.950 . S
H4910 C4916 0.949 . S
C4911 H4906 0.950 . S
C4911 C4913 1.327 . S
C4911 C4917 1.429 . S
C4912 C4904 1.574 . S
C4912 H4907 0.949 . S
C4912 C4918 1.368 . S
C4913 C4897 1.349 . S
C4913 H4905 0.950 . S
C4913 C4911 1.327 . S
C4914 C4902 1.349 . S
C4914 H4908 0.950 . S
C4914 C4915 1.327 . S
C4915 H4909 0.950 . S
C4915 C4914 1.327 . S
C4915 C4919 1.429 . S
C4916 C4899 1.574 . S
C4916 H4910 0.949 . S
C4916 C4920 1.368 . S
C4917 C4898 1.429 . S
C4917 C4911 1.429 . S
C4917 C4918 1.523 . S
C4918 C4899 1.368 . S
C4918 C4912 1.368 . S
C4918 C4917 1.523 . S
C4919 C4903 1.429 . S
C4919 C4915 1.429 . S
C4919 C4920 1.523 . S
C4920 C4904 1.368 . S
C4920 C4916 1.368 . S
C4920 C4919 1.523 . S
H4921 C4896 0.950 . S
H4922 C4898 0.950 . S
H4923 C4899 0.949 . S
H4924 C4901 0.950 . S
H4925 C4903 0.950 . S
C4926 C4927 1.349 . S
C4926 C4928 1.327 . S
C4926 H4951 0.950 . S
C4927 C4926 1.349 . S
C4927 C4943 1.349 . S
C4928 C4926 1.327 . S
C4928 C4947 1.429 . S
C4928 H4952 0.950 . S
C4929 C4946 1.574 . S
C4929 C4948 1.368 . S
C4929 H4953 0.949 . S
H4930 C4934 0.949 . S
C4931 C4932 1.349 . S
C4931 C4933 1.327 . S
C4931 H4954 0.950 . S
C4932 C4931 1.349 . S
C4932 C4944 1.349 . S
C4933 C4931 1.327 . S
C4933 C4949 1.429 . S
C4933 H4955 0.950 . S
C4934 H4930 0.949 . S
C4934 C4942 1.574 . S
C4934 C4950 1.368 . S
H4935 C4943 0.950 . S
H4936 C4941 0.950 . S
H4937 C4942 0.949 . S
H4938 C4944 0.950 . S
H4939 C4945 0.950 . S
H4940 C4946 0.949 . S
C4941 H4936 0.950 . S
C4941 C4943 1.327 . S
C4941 C4947 1.429 . S
C4942 C4934 1.574 . S
C4942 H4937 0.949 . S
C4942 C4948 1.368 . S
C4943 C4927 1.349 . S
C4943 H4935 0.950 . S
C4943 C4941 1.327 . S
C4944 C4932 1.349 . S
C4944 H4938 0.950 . S
C4944 C4945 1.327 . S
C4945 H4939 0.950 . S
C4945 C4944 1.327 . S
C4945 C4949 1.429 . S
C4946 C4929 1.574 . S
C4946 H4940 0.949 . S
C4946 C4950 1.368 . S
C4947 C4928 1.429 . S
C4947 C4941 1.429 . S
C4947 C4948 1.523 . S
C4948 C4929 1.368 . S
C4948 C4942 1.368 . S
C4948 C4947 1.523 . S
C4949 C4933 1.429 . S
C4949 C4945 1.429 . S
C4949 C4950 1.523 . S
C4950 C4934 1.368 . S
C4950 C4946 1.368 . S
C4950 C4949 1.523 . S
H4951 C4926 0.950 . S
H4952 C4928 0.950 . S
H4953 C4929 0.949 . S
H4954 C4931 0.950 . S
H4955 C4933 0.950 . S
C4956 C4957 1.349 . S
C4956 C4958 1.327 . S
C4956 H4981 0.950 . S
C4957 C4956 1.349 . S
C4957 C4973 1.349 . S
C4958 C4956 1.327 . S
C4958 C4977 1.429 . S
C4958 H4982 0.950 . S
C4959 C4976 1.574 . S
C4959 C4978 1.368 . S
C4959 H4983 0.949 . S
H4960 C4964 0.949 . S
C4961 C4962 1.349 . S
C4961 C4963 1.327 . S
C4961 H4984 0.950 . S
C4962 C4961 1.349 . S
C4962 C4974 1.349 . S
C4963 C4961 1.327 . S
C4963 C4979 1.429 . S
C4963 H4985 0.950 . S
C4964 H4960 0.949 . S
C4964 C4972 1.574 . S
C4964 C4980 1.368 . S
H4965 C4973 0.950 . S
H4966 C4971 0.950 . S
H4967 C4972 0.949 . S
H4968 C4974 0.950 . S
H4969 C4975 0.950 . S
H4970 C4976 0.949 . S
C4971 H4966 0.950 . S
C4971 C4973 1.327 . S
C4971 C4977 1.429 . S
C4972 C4964 1.574 . S
C4972 H4967 0.949 . S
C4972 C4978 1.368 . S
C4973 C4957 1.349 . S
C4973 H4965 0.950 . S
C4973 C4971 1.327 . S
C4974 C4962 1.349 . S
C4974 H4968 0.950 . S
C4974 C4975 1.327 . S
C4975 H4969 0.950 . S
C4975 C4974 1.327 . S
C4975 C4979 1.429 . S
C4976 C4959 1.574 . S
C4976 H4970 0.949 . S
C4976 C4980 1.368 . S
C4977 C4958 1.429 . S
C4977 C4971 1.429 . S
C4977 C4978 1.523 . S
C4978 C4959 1.368 . S
C4978 C4972 1.368 . S
C4978 C4977 1.523 . S
C4979 C4963 1.429 . S
C4979 C4975 1.429 . S
C4979 C4980 1.523 . S
C4980 C4964 1.368 . S
C4980 C4976 1.368 . S
C4980 C4979 1.523 . S
H4981 C4956 0.950 . S
H4982 C4958 0.950 . S
H4983 C4959 0.949 . S
H4984 C4961 0.950 . S
H4985 C4963 0.950 . S
C4986 C4987 1.349 . S
C4986 C4988 1.327 . S
C4986 H5011 0.950 . S
C4987 C4986 1.349 . S
C4987 C5003 1.349 . S
C4988 C4986 1.327 . S
C4988 C5007 1.429 . S
C4988 H5012 0.950 . S
C4989 C5006 1.574 . S
C4989 C5008 1.368 . S
C4989 H5013 0.949 . S
H4990 C4994 0.949 . S
C4991 C4992 1.349 . S
C4991 C4993 1.327 . S
C4991 H5014 0.950 . S
C4992 C4991 1.349 . S
C4992 C5004 1.349 . S
C4993 C4991 1.327 . S
C4993 C5009 1.429 . S
C4993 H5015 0.950 . S
C4994 H4990 0.949 . S
C4994 C5002 1.574 . S
C4994 C5010 1.368 . S
H4995 C5003 0.950 . S
H4996 C5001 0.950 . S
H4997 C5002 0.949 . S
H4998 C5004 0.950 . S
H4999 C5005 0.950 . S
H5000 C5006 0.949 . S
C5001 H4996 0.950 . S
C5001 C5003 1.327 . S
C5001 C5007 1.429 . S
C5002 C4994 1.574 . S
C5002 H4997 0.949 . S
C5002 C5008 1.368 . S
C5003 C4987 1.349 . S
C5003 H4995 0.950 . S
C5003 C5001 1.327 . S
C5004 C4992 1.349 . S
C5004 H4998 0.950 . S
C5004 C5005 1.327 . S
C5005 H4999 0.950 . S
C5005 C5004 1.327 . S
C5005 C5009 1.429 . S
C5006 C4989 1.574 . S
C5006 H5000 0.949 . S
C5006 C5010 1.368 . S
C5007 C4988 1.429 . S
C5007 C5001 1.429 . S
C5007 C5008 1.523 . S
C5008 C4989 1.368 . S
C5008 C5002 1.368 . S
C5008 C5007 1.523 . S
C5009 C4993 1.429 . S
C5009 C5005 1.429 . S
C5009 C5010 1.523 . S
C5010 C4994 1.368 . S
C5010 C5006 1.368 . S
C5010 C5009 1.523 . S
H5011 C4986 0.950 . S
H5012 C4988 0.950 . S
H5013 C4989 0.949 . S
H5014 C4991 0.950 . S
H5015 C4993 0.950 . S
C5016 C5017 1.349 . S
C5016 C5018 1.327 . S
C5016 H5041 0.950 . S
C5017 C5016 1.349 . S
C5017 C5033 1.349 . S
C5018 C5016 1.327 . S
C5018 C5037 1.429 . S
C5018 H5042 0.950 . S
C5019 C5036 1.574 . S
C5019 C5038 1.368 . S
C5019 H5043 0.949 . S
H5020 C5024 0.949 . S
C5021 C5022 1.349 . S
C5021 C5023 1.327 . S
C5021 H5044 0.950 . S
C5022 C5021 1.349 . S
C5022 C5034 1.349 . S
C5023 C5021 1.327 . S
C5023 C5039 1.429 . S
C5023 H5045 0.950 . S
C5024 H5020 0.949 . S
C5024 C5032 1.574 . S
C5024 C5040 1.368 . S
H5025 C5033 0.950 . S
H5026 C5031 0.950 . S
H5027 C5032 0.949 . S
H5028 C5034 0.950 . S
H5029 C5035 0.950 . S
H5030 C5036 0.949 . S
C5031 H5026 0.950 . S
C5031 C5033 1.327 . S
C5031 C5037 1.429 . S
C5032 C5024 1.574 . S
C5032 H5027 0.949 . S
C5032 C5038 1.368 . S
C5033 C5017 1.349 . S
C5033 H5025 0.950 . S
C5033 C5031 1.327 . S
C5034 C5022 1.349 . S
C5034 H5028 0.950 . S
C5034 C5035 1.327 . S
C5035 H5029 0.950 . S
C5035 C5034 1.327 . S
C5035 C5039 1.429 . S
C5036 C5019 1.574 . S
C5036 H5030 0.949 . S
C5036 C5040 1.368 . S
C5037 C5018 1.429 . S
C5037 C5031 1.429 . S
C5037 C5038 1.523 . S
C5038 C5019 1.368 . S
C5038 C5032 1.368 . S
C5038 C5037 1.523 . S
C5039 C5023 1.429 . S
C5039 C5035 1.429 . S
C5039 C5040 1.523 . S
C5040 C5024 1.368 . S
C5040 C5036 1.368 . S
C5040 C5039 1.523 . S
H5041 C5016 0.950 . S
H5042 C5018 0.950 . S
H5043 C5019 0.949 . S
H5044 C5021 0.950 . S
H5045 C5023 0.950 . S
C5046 C5047 1.349 . S
C5046 C5048 1.327 . S
C5046 H5071 0.950 . S
C5047 C5046 1.349 . S
C5047 C5063 1.349 . S
C5048 C5046 1.327 . S
C5048 C5067 1.429 . S
C5048 H5072 0.950 . S
C5049 C5066 1.574 . S
C5049 C5068 1.368 . S
C5049 H5073 0.949 . S
H5050 C5054 0.949 . S
C5051 C5052 1.349 . S
C5051 C5053 1.327 . S
C5051 H5074 0.950 . S
C5052 C5051 1.349 . S
C5052 C5064 1.349 . S
C5053 C5051 1.327 . S
C5053 C5069 1.429 . S
C5053 H5075 0.950 . S
C5054 H5050 0.949 . S
C5054 C5062 1.574 . S
C5054 C5070 1.368 . S
H5055 C5063 0.950 . S
H5056 C5061 0.950 . S
H5057 C5062 0.949 . S
H5058 C5064 0.950 . S
H5059 C5065 0.950 . S
H5060 C5066 0.949 . S
C5061 H5056 0.950 . S
C5061 C5063 1.327 . S
C5061 C5067 1.429 . S
C5062 C5054 1.574 . S
C5062 H5057 0.949 . S
C5062 C5068 1.368 . S
C5063 C5047 1.349 . S
C5063 H5055 0.950 . S
C5063 C5061 1.327 . S
C5064 C5052 1.349 . S
C5064 H5058 0.950 . S
C5064 C5065 1.327 . S
C5065 H5059 0.950 . S
C5065 C5064 1.327 . S
C5065 C5069 1.429 . S
C5066 C5049 1.574 . S
C5066 H5060 0.949 . S
C5066 C5070 1.368 . S
C5067 C5048 1.429 . S
C5067 C5061 1.429 . S
C5067 C5068 1.523 . S
C5068 C5049 1.368 . S
C5068 C5062 1.368 . S
C5068 C5067 1.523 . S
C5069 C5053 1.429 . S
C5069 C5065 1.429 . S
C5069 C5070 1.523 . S
C5070 C5054 1.368 . S
C5070 C5066 1.368 . S
C5070 C5069 1.523 . S
H5071 C5046 0.950 . S
H5072 C5048 0.950 . S
H5073 C5049 0.949 . S
H5074 C5051 0.950 . S
H5075 C5053 0.950 . S
C5076 C5077 1.349 . S
C5076 C5078 1.327 . S
C5076 H5101 0.950 . S
C5077 C5076 1.349 . S
C5077 C5093 1.349 . S
C5078 C5076 1.327 . S
C5078 C5097 1.429 . S
C5078 H5102 0.950 . S
C5079 C5096 1.574 . S
C5079 C5098 1.368 . S
C5079 H5103 0.949 . S
H5080 C5084 0.949 . S
C5081 C5082 1.349 . S
C5081 C5083 1.327 . S
C5081 H5104 0.950 . S
C5082 C5081 1.349 . S
C5082 C5094 1.349 . S
C5083 C5081 1.327 . S
C5083 C5099 1.429 . S
C5083 H5105 0.950 . S
C5084 H5080 0.949 . S
C5084 C5092 1.574 . S
C5084 C5100 1.368 . S
H5085 C5093 0.950 . S
H5086 C5091 0.950 . S
H5087 C5092 0.949 . S
H5088 C5094 0.950 . S
H5089 C5095 0.950 . S
H5090 C5096 0.949 . S
C5091 H5086 0.950 . S
C5091 C5093 1.327 . S
C5091 C5097 1.429 . S
C5092 C5084 1.574 . S
C5092 H5087 0.949 . S
C5092 C5098 1.368 . S
C5093 C5077 1.349 . S
C5093 H5085 0.950 . S
C5093 C5091 1.327 . S
C5094 C5082 1.349 . S
C5094 H5088 0.950 . S
C5094 C5095 1.327 . S
C5095 H5089 0.950 . S
C5095 C5094 1.327 . S
C5095 C5099 1.429 . S
C5096 C5079 1.574 . S
C5096 H5090 0.949 . S
C5096 C5100 1.368 . S
C5097 C5078 1.429 . S
C5097 C5091 1.429 . S
C5097 C5098 1.523 . S
C5098 C5079 1.368 . S
C5098 C5092 1.368 . S
C5098 C5097 1.523 . S
C5099 C5083 1.429 . S
C5099 C5095 1.429 . S
C5099 C5100 1.523 . S
C5100 C5084 1.368 . S
C5100 C5096 1.368 . S
C5100 C5099 1.523 . S
H5101 C5076 0.950 . S
H5102 C5078 0.950 . S
H5103 C5079 0.949 . S
H5104 C5081 0.950 . S
H5105 C5083 0.950 . S
C5106 C5107 1.349 . S
C5106 C5108 1.327 . S
C5106 H5131 0.950 . S
C5107 C5106 1.349 . S
C5107 C5123 1.349 . S
C5108 C5106 1.327 . S
C5108 C5127 1.429 . S
C5108 H5132 0.950 . S
C5109 C5126 1.574 . S
C5109 C5128 1.368 . S
C5109 H5133 0.949 . S
H5110 C5114 0.949 . S
C5111 C5112 1.349 . S
C5111 C5113 1.327 . S
C5111 H5134 0.950 . S
C5112 C5111 1.349 . S
C5112 C5124 1.349 . S
C5113 C5111 1.327 . S
C5113 C5129 1.429 . S
C5113 H5135 0.950 . S
C5114 H5110 0.949 . S
C5114 C5122 1.574 . S
C5114 C5130 1.368 . S
H5115 C5123 0.950 . S
H5116 C5121 0.950 . S
H5117 C5122 0.949 . S
H5118 C5124 0.950 . S
H5119 C5125 0.950 . S
H5120 C5126 0.949 . S
C5121 H5116 0.950 . S
C5121 C5123 1.327 . S
C5121 C5127 1.429 . S
C5122 C5114 1.574 . S
C5122 H5117 0.949 . S
C5122 C5128 1.368 . S
C5123 C5107 1.349 . S
C5123 H5115 0.950 . S
C5123 C5121 1.327 . S
C5124 C5112 1.349 . S
C5124 H5118 0.950 . S
C5124 C5125 1.327 . S
C5125 H5119 0.950 . S
C5125 C5124 1.327 . S
C5125 C5129 1.429 . S
C5126 C5109 1.574 . S
C5126 H5120 0.949 . S
C5126 C5130 1.368 . S
C5127 C5108 1.429 . S
C5127 C5121 1.429 . S
C5127 C5128 1.523 . S
C5128 C5109 1.368 . S
C5128 C5122 1.368 . S
C5128 C5127 1.523 . S
C5129 C5113 1.429 . S
C5129 C5125 1.429 . S
C5129 C5130 1.523 . S
C5130 C5114 1.368 . S
C5130 C5126 1.368 . S
C5130 C5129 1.523 . S
H5131 C5106 0.950 . S
H5132 C5108 0.950 . S
H5133 C5109 0.949 . S
H5134 C5111 0.950 . S
H5135 C5113 0.950 . S
C5136 C5137 1.349 . S
C5136 C5138 1.327 . S
C5136 H5161 0.950 . S
C5137 C5136 1.349 . S
C5137 C5153 1.349 . S
C5138 C5136 1.327 . S
C5138 C5157 1.429 . S
C5138 H5162 0.950 . S
C5139 C5156 1.574 . S
C5139 C5158 1.368 . S
C5139 H5163 0.949 . S
H5140 C5144 0.949 . S
C5141 C5142 1.349 . S
C5141 C5143 1.327 . S
C5141 H5164 0.950 . S
C5142 C5141 1.349 . S
C5142 C5154 1.349 . S
C5143 C5141 1.327 . S
C5143 C5159 1.429 . S
C5143 H5165 0.950 . S
C5144 H5140 0.949 . S
C5144 C5152 1.574 . S
C5144 C5160 1.368 . S
H5145 C5153 0.950 . S
H5146 C5151 0.950 . S
H5147 C5152 0.949 . S
H5148 C5154 0.950 . S
H5149 C5155 0.950 . S
H5150 C5156 0.949 . S
C5151 H5146 0.950 . S
C5151 C5153 1.327 . S
C5151 C5157 1.429 . S
C5152 C5144 1.574 . S
C5152 H5147 0.949 . S
C5152 C5158 1.368 . S
C5153 C5137 1.349 . S
C5153 H5145 0.950 . S
C5153 C5151 1.327 . S
C5154 C5142 1.349 . S
C5154 H5148 0.950 . S
C5154 C5155 1.327 . S
C5155 H5149 0.950 . S
C5155 C5154 1.327 . S
C5155 C5159 1.429 . S
C5156 C5139 1.574 . S
C5156 H5150 0.949 . S
C5156 C5160 1.368 . S
C5157 C5138 1.429 . S
C5157 C5151 1.429 . S
C5157 C5158 1.523 . S
C5158 C5139 1.368 . S
C5158 C5152 1.368 . S
C5158 C5157 1.523 . S
C5159 C5143 1.429 . S
C5159 C5155 1.429 . S
C5159 C5160 1.523 . S
C5160 C5144 1.368 . S
C5160 C5156 1.368 . S
C5160 C5159 1.523 . S
H5161 C5136 0.950 . S
H5162 C5138 0.950 . S
H5163 C5139 0.949 . S
H5164 C5141 0.950 . S
H5165 C5143 0.950 . S
C5166 C5167 1.349 . S
C5166 C5168 1.327 . S
C5166 H5191 0.950 . S
C5167 C5166 1.349 . S
C5167 C5183 1.349 . S
C5168 C5166 1.327 . S
C5168 C5187 1.429 . S
C5168 H5192 0.950 . S
C5169 C5186 1.598 . S
C5169 C5188 1.368 . S
C5169 H5193 0.949 1_455 S
H5170 C5174 0.949 . S
C5171 C5172 1.349 1_655 S
C5171 C5173 1.327 . S
C5171 H5194 0.950 . S
C5172 C5171 1.349 1_455 S
C5172 C5184 1.349 . S
C5173 C5171 1.327 . S
C5173 C5189 1.429 1_655 S
C5173 H5195 0.950 . S
C5174 H5170 0.949 . S
C5174 C5182 1.574 . S
C5174 C5190 1.368 . S
H5175 C5183 0.980 . S
H5176 C5181 0.950 1_655 S
H5177 C5182 0.949 . S
H5178 C5184 0.950 . S
H5179 C5185 0.950 . S
H5180 C5186 0.903 1_655 S
C5181 H5176 0.950 1_455 S
C5181 C5183 1.327 . S
C5181 C5187 1.429 . S
C5182 C5174 1.574 . S
C5182 H5177 0.949 . S
C5182 C5188 1.368 . S
C5183 C5167 1.349 . S
C5183 H5175 0.980 . S
C5183 C5181 1.327 . S
C5184 C5172 1.349 . S
C5184 H5178 0.950 . S
C5184 C5185 1.327 . S
C5185 H5179 0.950 . S
C5185 C5184 1.327 . S
C5185 C5189 1.429 . S
C5186 C5169 1.598 . S
C5186 H5180 0.903 1_455 S
C5186 C5190 1.396 . S
C5187 C5168 1.429 . S
C5187 C5181 1.429 . S
C5187 C5188 1.523 . S
C5188 C5169 1.368 . S
C5188 C5182 1.368 . S
C5188 C5187 1.523 . S
C5189 C5173 1.429 1_455 S
C5189 C5185 1.429 . S
C5189 C5190 1.523 . S
C5190 C5174 1.368 . S
C5190 C5186 1.396 . S
C5190 C5189 1.523 . S
H5191 C5166 0.950 . S
H5192 C5168 0.950 . S
H5193 C5169 0.949 1_655 S
H5194 C5171 0.950 . S
H5195 C5173 0.950 . S
C5196 C5197 1.349 . S
C5196 C5198 1.327 . S
C5196 H5221 0.950 . S
C5197 C5196 1.349 . S
C5197 C5213 1.349 . S
C5198 C5196 1.327 . S
C5198 C5217 1.429 . S
C5198 H5222 0.950 . S
C5199 C5216 1.574 . S
C5199 C5218 1.368 . S
C5199 H5223 0.949 . S
H5200 C5204 0.949 . S
C5201 C5202 1.349 . S
C5201 C5203 1.327 . S
C5201 H5224 0.950 . S
C5202 C5201 1.349 . S
C5202 C5214 1.349 . S
C5203 C5201 1.327 . S
C5203 C5219 1.429 . S
C5203 H5225 0.950 . S
C5204 H5200 0.949 . S
C5204 C5212 1.574 . S
C5204 C5220 1.368 . S
H5205 C5213 0.950 . S
H5206 C5211 0.950 . S
H5207 C5212 0.949 . S
H5208 C5214 0.950 . S
H5209 C5215 0.950 . S
H5210 C5216 0.949 . S
C5211 H5206 0.950 . S
C5211 C5213 1.327 . S
C5211 C5217 1.429 . S
C5212 C5204 1.574 . S
C5212 H5207 0.949 . S
C5212 C5218 1.368 . S
C5213 C5197 1.349 . S
C5213 H5205 0.950 . S
C5213 C5211 1.327 . S
C5214 C5202 1.349 . S
C5214 H5208 0.950 . S
C5214 C5215 1.327 . S
C5215 H5209 0.950 . S
C5215 C5214 1.327 . S
C5215 C5219 1.429 . S
C5216 C5199 1.574 . S
C5216 H5210 0.949 . S
C5216 C5220 1.368 . S
C5217 C5198 1.429 . S
C5217 C5211 1.429 . S
C5217 C5218 1.523 . S
C5218 C5199 1.368 . S
C5218 C5212 1.368 . S
C5218 C5217 1.523 . S
C5219 C5203 1.429 . S
C5219 C5215 1.429 . S
C5219 C5220 1.523 . S
C5220 C5204 1.368 . S
C5220 C5216 1.368 . S
C5220 C5219 1.523 . S
H5221 C5196 0.950 . S
H5222 C5198 0.950 . S
H5223 C5199 0.949 . S
H5224 C5201 0.950 . S
H5225 C5203 0.950 . S
C5226 C5227 1.349 . S
C5226 C5228 1.327 . S
C5226 H5251 0.950 1_565 S
C5227 C5226 1.349 . S
C5227 C5243 1.349 . S
C5228 C5226 1.327 . S
C5228 C5247 1.429 . S
C5228 H5252 0.950 1_565 S
C5229 C5246 1.574 . S
C5229 C5248 1.368 . S
C5229 H5253 0.949 . S
H5230 C5234 0.949 . S
C5231 C5232 1.349 . S
C5231 C5233 1.327 . S
C5231 H5254 0.950 . S
C5232 C5231 1.349 . S
C5232 C5244 1.349 1_565 S
C5233 C5231 1.327 . S
C5233 C5249 1.429 . S
C5233 H5255 0.950 . S
C5234 H5230 0.949 . S
C5234 C5242 1.541 . S
C5234 C5250 1.368 1_545 S
H5235 C5243 0.950 . S
H5236 C5241 0.950 . S
H5237 C5242 1.055 . S
H5238 C5244 0.950 . S
H5239 C5245 0.950 . S
H5240 C5246 0.949 . S
C5241 H5236 0.950 . S
C5241 C5243 1.327 . S
C5241 C5247 1.429 . S
C5242 C5234 1.541 . S
C5242 H5237 1.055 . S
C5242 C5248 1.291 1_545 S
C5243 C5227 1.349 . S
C5243 H5235 0.950 . S
C5243 C5241 1.327 . S
C5244 C5232 1.349 1_545 S
C5244 H5238 0.950 . S
C5244 C5245 1.327 . S
C5245 H5239 0.950 . S
C5245 C5244 1.327 . S
C5245 C5249 1.429 1_545 S
C5246 C5229 1.574 . S
C5246 H5240 0.949 . S
C5246 C5250 1.368 . S
C5247 C5228 1.429 . S
C5247 C5241 1.429 . S
C5247 C5248 1.523 . S
C5248 C5229 1.368 . S
C5248 C5242 1.291 1_565 S
C5248 C5247 1.523 . S
C5249 C5233 1.429 . S
C5249 C5245 1.429 1_565 S
C5249 C5250 1.523 . S
C5250 C5234 1.368 1_565 S
C5250 C5246 1.368 . S
C5250 C5249 1.523 . S
H5251 C5226 0.950 1_545 S
H5252 C5228 0.950 1_545 S
H5253 C5229 0.949 . S
H5254 C5231 0.950 . S
H5255 C5233 0.950 . S
C5256 C5257 1.349 . S
C5256 C5258 1.327 . S
C5256 H5281 0.950 . S
C5257 C5256 1.349 . S
C5257 C5273 1.349 . S
C5258 C5256 1.327 . S
C5258 C5277 1.429 . S
C5258 H5282 0.950 . S
C5259 C5276 1.547 1_565 S
C5259 C5278 1.368 . S
C5259 H5283 0.949 1_565 S
H5260 C5264 0.949 . S
C5261 C5262 1.349 1_545 S
C5261 C5263 1.327 . S
C5261 H5284 0.950 . S
C5262 C5261 1.349 1_565 S
C5262 C5274 1.349 . S
C5263 C5261 1.327 . S
C5263 C5279 1.429 1_545 S
C5263 H5285 0.950 . S
C5264 H5260 0.949 . S
C5264 C5272 1.574 . S
C5264 C5280 1.368 . S
H5265 C5273 0.950 . S
H5266 C5271 0.909 1_545 S
H5267 C5272 0.949 . S
H5268 C5274 0.950 . S
H5269 C5275 0.950 . S
H5270 C5276 0.981 . S
C5271 H5266 0.909 1_565 S
C5271 C5273 1.327 . S
C5271 C5277 1.429 . S
C5272 C5264 1.574 . S
C5272 H5267 0.949 . S
C5272 C5278 1.368 . S
C5273 C5257 1.349 . S
C5273 H5265 0.950 . S
C5273 C5271 1.327 . S
C5274 C5262 1.349 . S
C5274 H5268 0.950 . S
C5274 C5275 1.327 . S
C5275 H5269 0.950 . S
C5275 C5274 1.327 . S
C5275 C5279 1.429 . S
C5276 C5259 1.547 1_545 S
C5276 H5270 0.981 . S
C5276 C5280 1.362 1_545 S
C5277 C5258 1.429 . S
C5277 C5271 1.429 . S
C5277 C5278 1.523 . S
C5278 C5259 1.368 . S
C5278 C5272 1.368 . S
C5278 C5277 1.523 . S
C5279 C5263 1.429 1_565 S
C5279 C5275 1.429 . S
C5279 C5280 1.523 . S
C5280 C5264 1.368 . S
C5280 C5276 1.362 1_565 S
C5280 C5279 1.523 . S
H5281 C5256 0.950 . S
H5282 C5258 0.950 . S
H5283 C5259 0.949 1_545 S
H5284 C5261 0.950 . S
H5285 C5263 0.950 . S
C5286 C5287 1.349 . S
C5286 C5288 1.327 . S
C5286 H5311 0.950 . S
C5287 C5286 1.349 . S
C5287 C5303 1.349 . S
C5288 C5286 1.327 . S
C5288 C5307 1.429 . S
C5288 H5312 0.950 . S
C5289 C5306 1.574 . S
C5289 C5308 1.368 . S
C5289 H5313 0.949 . S
H5290 C5294 0.949 . S
C5291 C5292 1.341 1_655 S
C5291 C5293 1.323 . S
C5291 H5314 0.950 . S
C5292 C5291 1.341 1_455 S
C5292 C5304 1.341 . S
C5293 C5291 1.323 . S
C5293 C5309 1.431 1_655 S
C5293 H5315 0.952 . S
C5294 H5290 0.949 . S
C5294 C5302 1.574 . S
C5294 C5310 1.368 . S
H5295 C5303 0.950 . S
H5296 C5301 0.950 . S
H5297 C5302 0.949 . S
H5298 C5304 0.950 . S
H5299 C5305 0.950 . S
H5300 C5306 0.946 . S
C5301 H5296 0.950 . S
C5301 C5303 1.327 . S
C5301 C5307 1.429 . S
C5302 C5294 1.574 . S
C5302 H5297 0.949 . S
C5302 C5308 1.368 . S
C5303 C5287 1.349 . S
C5303 H5295 0.950 . S
C5303 C5301 1.327 . S
C5304 C5292 1.341 . S
C5304 H5298 0.950 . S
C5304 C5305 1.327 . S
C5305 H5299 0.950 . S
C5305 C5304 1.327 . S
C5305 C5309 1.429 . S
C5306 C5289 1.574 . S
C5306 H5300 0.946 . S
C5306 C5310 1.368 . S
C5307 C5288 1.429 . S
C5307 C5301 1.429 . S
C5307 C5308 1.523 . S
C5308 C5289 1.368 . S
C5308 C5302 1.368 . S
C5308 C5307 1.523 . S
C5309 C5293 1.431 1_455 S
C5309 C5305 1.429 . S
C5309 C5310 1.523 . S
C5310 C5294 1.368 . S
C5310 C5306 1.368 . S
C5310 C5309 1.523 . S
H5311 C5286 0.950 . S
H5312 C5288 0.950 . S
H5313 C5289 0.949 . S
H5314 C5291 0.950 . S
H5315 C5293 0.952 . S
C5316 C5317 1.349 . S
C5316 C5318 1.327 . S
C5316 H5341 0.950 . S
C5317 C5316 1.349 . S
C5317 C5333 1.349 . S
C5318 C5316 1.327 . S
C5318 C5337 1.429 . S
C5318 H5342 0.950 . S
C5319 C5336 1.574 . S
C5319 C5338 1.368 . S
C5319 H5343 0.949 . S
H5320 C5324 0.949 . S
C5321 C5322 1.349 . S
C5321 C5323 1.327 . S
C5321 H5344 0.950 . S
C5322 C5321 1.349 . S
C5322 C5334 1.349 . S
C5323 C5321 1.327 . S
C5323 C5339 1.429 . S
C5323 H5345 0.950 . S
C5324 H5320 0.949 . S
C5324 C5332 1.574 . S
C5324 C5340 1.368 . S
H5325 C5333 0.950 . S
H5326 C5331 0.950 . S
H5327 C5332 0.949 . S
H5328 C5334 0.950 . S
H5329 C5335 0.950 . S
H5330 C5336 0.949 . S
C5331 H5326 0.950 . S
C5331 C5333 1.327 . S
C5331 C5337 1.429 . S
C5332 C5324 1.574 . S
C5332 H5327 0.949 . S
C5332 C5338 1.368 . S
C5333 C5317 1.349 . S
C5333 H5325 0.950 . S
C5333 C5331 1.327 . S
C5334 C5322 1.349 . S
C5334 H5328 0.950 . S
C5334 C5335 1.327 . S
C5335 H5329 0.950 . S
C5335 C5334 1.327 . S
C5335 C5339 1.429 . S
C5336 C5319 1.574 . S
C5336 H5330 0.949 . S
C5336 C5340 1.368 . S
C5337 C5318 1.429 . S
C5337 C5331 1.429 . S
C5337 C5338 1.523 . S
C5338 C5319 1.368 . S
C5338 C5332 1.368 . S
C5338 C5337 1.523 . S
C5339 C5323 1.429 . S
C5339 C5335 1.429 . S
C5339 C5340 1.523 . S
C5340 C5324 1.368 . S
C5340 C5336 1.368 . S
C5340 C5339 1.523 . S
H5341 C5316 0.950 . S
H5342 C5318 0.950 . S
H5343 C5319 0.949 . S
H5344 C5321 0.950 . S
H5345 C5323 0.950 . S
C5346 C5347 1.349 . S
C5346 C5348 1.327 . S
C5346 H5371 0.950 . S
C5347 C5346 1.349 . S
C5347 C5363 1.349 . S
C5348 C5346 1.327 . S
C5348 C5367 1.429 . S
C5348 H5372 0.950 . S
C5349 C5366 1.574 . S
C5349 C5368 1.368 . S
C5349 H5373 0.949 . S
H5350 C5354 0.949 . S
C5351 C5352 1.349 . S
C5351 C5353 1.327 . S
C5351 H5374 0.950 . S
C5352 C5351 1.349 . S
C5352 C5364 1.349 . S
C5353 C5351 1.327 . S
C5353 C5369 1.429 . S
C5353 H5375 0.950 . S
C5354 H5350 0.949 . S
C5354 C5362 1.574 . S
C5354 C5370 1.368 . S
H5355 C5363 0.950 . S
H5356 C5361 0.950 . S
H5357 C5362 0.949 . S
H5358 C5364 0.950 . S
H5359 C5365 0.950 . S
H5360 C5366 0.949 . S
C5361 H5356 0.950 . S
C5361 C5363 1.327 . S
C5361 C5367 1.429 . S
C5362 C5354 1.574 . S
C5362 H5357 0.949 . S
C5362 C5368 1.368 . S
C5363 C5347 1.349 . S
C5363 H5355 0.950 . S
C5363 C5361 1.327 . S
C5364 C5352 1.349 . S
C5364 H5358 0.950 . S
C5364 C5365 1.327 . S
C5365 H5359 0.950 . S
C5365 C5364 1.327 . S
C5365 C5369 1.429 . S
C5366 C5349 1.574 . S
C5366 H5360 0.949 . S
C5366 C5370 1.368 . S
C5367 C5348 1.429 . S
C5367 C5361 1.429 . S
C5367 C5368 1.523 . S
C5368 C5349 1.368 . S
C5368 C5362 1.368 . S
C5368 C5367 1.523 . S
C5369 C5353 1.429 . S
C5369 C5365 1.429 . S
C5369 C5370 1.523 . S
C5370 C5354 1.368 . S
C5370 C5366 1.368 . S
C5370 C5369 1.523 . S
H5371 C5346 0.950 . S
H5372 C5348 0.950 . S
H5373 C5349 0.949 . S
H5374 C5351 0.950 . S
H5375 C5353 0.950 . S
C5376 C5377 1.349 . S
C5376 C5378 1.327 . S
C5376 H5401 0.950 . S
C5377 C5376 1.349 . S
C5377 C5393 1.349 . S
C5378 C5376 1.327 . S
C5378 C5397 1.429 . S
C5378 H5402 0.950 . S
C5379 C5396 1.574 . S
C5379 C5398 1.368 . S
C5379 H5403 0.949 . S
H5380 C5384 0.949 . S
C5381 C5382 1.349 . S
C5381 C5383 1.327 . S
C5381 H5404 0.950 . S
C5382 C5381 1.349 . S
C5382 C5394 1.349 . S
C5383 C5381 1.327 . S
C5383 C5399 1.429 . S
C5383 H5405 0.950 . S
C5384 H5380 0.949 . S
C5384 C5392 1.574 . S
C5384 C5400 1.368 . S
H5385 C5393 0.950 . S
H5386 C5391 0.950 . S
H5387 C5392 0.949 . S
H5388 C5394 0.950 . S
H5389 C5395 0.950 . S
H5390 C5396 0.949 . S
C5391 H5386 0.950 . S
C5391 C5393 1.327 . S
C5391 C5397 1.429 . S
C5392 C5384 1.574 . S
C5392 H5387 0.949 . S
C5392 C5398 1.368 . S
C5393 C5377 1.349 . S
C5393 H5385 0.950 . S
C5393 C5391 1.327 . S
C5394 C5382 1.349 . S
C5394 H5388 0.950 . S
C5394 C5395 1.327 . S
C5395 H5389 0.950 . S
C5395 C5394 1.327 . S
C5395 C5399 1.429 . S
C5396 C5379 1.574 . S
C5396 H5390 0.949 . S
C5396 C5400 1.368 . S
C5397 C5378 1.429 . S
C5397 C5391 1.429 . S
C5397 C5398 1.523 . S
C5398 C5379 1.368 . S
C5398 C5392 1.368 . S
C5398 C5397 1.523 . S
C5399 C5383 1.429 . S
C5399 C5395 1.429 . S
C5399 C5400 1.523 . S
C5400 C5384 1.368 . S
C5400 C5396 1.368 . S
C5400 C5399 1.523 . S
H5401 C5376 0.950 . S
H5402 C5378 0.950 . S
H5403 C5379 0.949 . S
H5404 C5381 0.950 . S
H5405 C5383 0.950 . S
C5406 C5407 1.349 . S
C5406 C5408 1.327 . S
C5406 H5431 0.950 . S
C5407 C5406 1.349 . S
C5407 C5423 1.349 . S
C5408 C5406 1.327 . S
C5408 C5427 1.429 . S
C5408 H5432 0.950 . S
C5409 C5426 1.574 . S
C5409 C5428 1.368 . S
C5409 H5433 0.949 . S
H5410 C5414 0.949 . S
C5411 C5412 1.349 . S
C5411 C5413 1.327 . S
C5411 H5434 0.950 . S
C5412 C5411 1.349 . S
C5412 C5424 1.349 . S
C5413 C5411 1.327 . S
C5413 C5429 1.429 . S
C5413 H5435 0.950 . S
C5414 H5410 0.949 . S
C5414 C5422 1.574 . S
C5414 C5430 1.368 . S
H5415 C5423 0.950 . S
H5416 C5421 0.950 . S
H5417 C5422 0.949 . S
H5418 C5424 0.950 . S
H5419 C5425 0.950 . S
H5420 C5426 0.949 . S
C5421 H5416 0.950 . S
C5421 C5423 1.327 . S
C5421 C5427 1.429 . S
C5422 C5414 1.574 . S
C5422 H5417 0.949 . S
C5422 C5428 1.368 . S
C5423 C5407 1.349 . S
C5423 H5415 0.950 . S
C5423 C5421 1.327 . S
C5424 C5412 1.349 . S
C5424 H5418 0.950 . S
C5424 C5425 1.327 . S
C5425 H5419 0.950 . S
C5425 C5424 1.327 . S
C5425 C5429 1.429 . S
C5426 C5409 1.574 . S
C5426 H5420 0.949 . S
C5426 C5430 1.368 . S
C5427 C5408 1.429 . S
C5427 C5421 1.429 . S
C5427 C5428 1.523 . S
C5428 C5409 1.368 . S
C5428 C5422 1.368 . S
C5428 C5427 1.523 . S
C5429 C5413 1.429 . S
C5429 C5425 1.429 . S
C5429 C5430 1.523 . S
C5430 C5414 1.368 . S
C5430 C5426 1.368 . S
C5430 C5429 1.523 . S
H5431 C5406 0.950 . S
H5432 C5408 0.950 . S
H5433 C5409 0.949 . S
H5434 C5411 0.950 . S
H5435 C5413 0.950 . S
C5436 C5437 1.349 . S
C5436 C5438 1.327 . S
C5436 H5461 0.950 . S
C5437 C5436 1.349 . S
C5437 C5453 1.349 . S
C5438 C5436 1.327 . S
C5438 C5457 1.429 . S
C5438 H5462 0.950 . S
C5439 C5456 1.597 . S
C5439 C5458 1.368 . S
C5439 H5463 0.949 1_545 S
H5440 C5444 0.949 . S
C5441 C5442 1.349 1_565 S
C5441 C5443 1.327 . S
C5441 H5464 0.950 . S
C5442 C5441 1.349 1_545 S
C5442 C5454 1.349 . S
C5443 C5441 1.327 . S
C5443 C5459 1.429 1_565 S
C5443 H5465 0.950 . S
C5444 H5440 0.949 . S
C5444 C5452 1.574 . S
C5444 C5460 1.368 . S
H5445 C5453 0.977 . S
H5446 C5451 0.950 1_565 S
H5447 C5452 0.949 . S
H5448 C5454 0.950 . S
H5449 C5455 0.950 . S
H5450 C5456 0.904 1_565 S
C5451 H5446 0.950 1_545 S
C5451 C5453 1.327 . S
C5451 C5457 1.429 . S
C5452 C5444 1.574 . S
C5452 H5447 0.949 . S
C5452 C5458 1.368 . S
C5453 C5437 1.349 . S
C5453 H5445 0.977 . S
C5453 C5451 1.327 . S
C5454 C5442 1.349 . S
C5454 H5448 0.950 . S
C5454 C5455 1.327 . S
C5455 H5449 0.950 . S
C5455 C5454 1.327 . S
C5455 C5459 1.429 . S
C5456 C5439 1.597 . S
C5456 H5450 0.904 1_545 S
C5456 C5460 1.396 . S
C5457 C5438 1.429 . S
C5457 C5451 1.429 . S
C5457 C5458 1.523 . S
C5458 C5439 1.368 . S
C5458 C5452 1.368 . S
C5458 C5457 1.523 . S
C5459 C5443 1.429 1_545 S
C5459 C5455 1.429 . S
C5459 C5460 1.523 . S
C5460 C5444 1.368 . S
C5460 C5456 1.396 . S
C5460 C5459 1.523 . S
H5461 C5436 0.950 . S
H5462 C5438 0.950 . S
H5463 C5439 0.949 1_565 S
H5464 C5441 0.950 . S
H5465 C5443 0.950 . S
C5466 C5467 1.349 . S
C5466 C5468 1.327 . S
C5466 H5491 0.950 . S
C5467 C5466 1.349 . S
C5467 C5483 1.349 . S
C5468 C5466 1.327 . S
C5468 C5487 1.429 . S
C5468 H5492 0.950 . S
C5469 C5486 1.574 . S
C5469 C5488 1.368 . S
C5469 H5493 0.949 . S
H5470 C5474 0.949 . S
C5471 C5472 1.349 . S
C5471 C5473 1.327 . S
C5471 H5494 0.950 . S
C5472 C5471 1.349 . S
C5472 C5484 1.349 . S
C5473 C5471 1.327 . S
C5473 C5489 1.429 . S
C5473 H5495 0.950 . S
C5474 H5470 0.949 . S
C5474 C5482 1.574 . S
C5474 C5490 1.368 . S
H5475 C5483 0.950 . S
H5476 C5481 0.950 . S
H5477 C5482 0.949 . S
H5478 C5484 0.950 1_455 S
H5479 C5485 0.955 . S
H5480 C5486 0.949 . S
C5481 H5476 0.950 . S
C5481 C5483 1.327 . S
C5481 C5487 1.429 . S
C5482 C5474 1.574 . S
C5482 H5477 0.949 . S
C5482 C5488 1.368 . S
C5483 C5467 1.349 . S
C5483 H5475 0.950 . S
C5483 C5481 1.327 . S
C5484 C5472 1.349 . S
C5484 H5478 0.950 1_655 S
C5484 C5485 1.327 . S
C5485 H5479 0.955 . S
C5485 C5484 1.327 . S
C5485 C5489 1.429 . S
C5486 C5469 1.574 . S
C5486 H5480 0.949 . S
C5486 C5490 1.368 . S
C5487 C5468 1.429 . S
C5487 C5481 1.429 . S
C5487 C5488 1.523 . S
C5488 C5469 1.368 . S
C5488 C5482 1.368 . S
C5488 C5487 1.523 . S
C5489 C5473 1.429 . S
C5489 C5485 1.429 . S
C5489 C5490 1.523 . S
C5490 C5474 1.368 . S
C5490 C5486 1.368 . S
C5490 C5489 1.523 . S
H5491 C5466 0.950 . S
H5492 C5468 0.950 . S
H5493 C5469 0.949 . S
H5494 C5471 0.950 . S
H5495 C5473 0.950 . S
C5496 C5497 1.349 . S
C5496 C5498 1.327 . S
C5496 H5521 0.950 . S
C5497 C5496 1.349 . S
C5497 C5513 1.349 . S
C5498 C5496 1.327 . S
C5498 C5517 1.429 . S
C5498 H5522 0.950 . S
C5499 C5516 1.574 . S
C5499 C5518 1.368 . S
C5499 H5523 0.949 . S
H5500 C5504 0.949 . S
C5501 C5502 1.349 . S
C5501 C5503 1.327 . S
C5501 H5524 0.950 . S
C5502 C5501 1.349 . S
C5502 C5514 1.349 . S
C5503 C5501 1.327 . S
C5503 C5519 1.429 . S
C5503 H5525 0.950 . S
C5504 H5500 0.949 . S
C5504 C5512 1.574 . S
C5504 C5520 1.368 . S
H5505 C5513 0.950 . S
H5506 C5511 0.950 . S
H5507 C5512 0.949 . S
H5508 C5514 0.950 . S
H5509 C5515 0.950 . S
H5510 C5516 0.949 . S
C5511 H5506 0.950 . S
C5511 C5513 1.327 . S
C5511 C5517 1.429 . S
C5512 C5504 1.574 . S
C5512 H5507 0.949 . S
C5512 C5518 1.368 . S
C5513 C5497 1.349 . S
C5513 H5505 0.950 . S
C5513 C5511 1.327 . S
C5514 C5502 1.349 . S
C5514 H5508 0.950 . S
C5514 C5515 1.327 . S
C5515 H5509 0.950 . S
C5515 C5514 1.327 . S
C5515 C5519 1.429 . S
C5516 C5499 1.574 . S
C5516 H5510 0.949 . S
C5516 C5520 1.368 . S
C5517 C5498 1.429 . S
C5517 C5511 1.429 . S
C5517 C5518 1.523 . S
C5518 C5499 1.368 . S
C5518 C5512 1.368 . S
C5518 C5517 1.523 . S
C5519 C5503 1.429 . S
C5519 C5515 1.429 . S
C5519 C5520 1.523 . S
C5520 C5504 1.368 . S
C5520 C5516 1.368 . S
C5520 C5519 1.523 . S
H5521 C5496 0.950 . S
H5522 C5498 0.950 . S
H5523 C5499 0.949 . S
H5524 C5501 0.950 . S
H5525 C5503 0.950 . S
C5526 C5527 1.349 . S
C5526 C5528 1.327 . S
C5526 H5551 0.950 . S
C5527 C5526 1.349 . S
C5527 C5543 1.349 . S
C5528 C5526 1.327 . S
C5528 C5547 1.429 . S
C5528 H5552 0.950 . S
C5529 C5546 1.574 . S
C5529 C5548 1.368 . S
C5529 H5553 0.949 . S
H5530 C5534 0.949 . S
C5531 C5532 1.349 . S
C5531 C5533 1.327 . S
C5531 H5554 0.950 . S
C5532 C5531 1.349 . S
C5532 C5544 1.349 . S
C5533 C5531 1.327 . S
C5533 C5549 1.429 . S
C5533 H5555 0.950 . S
C5534 H5530 0.949 . S
C5534 C5542 1.574 . S
C5534 C5550 1.368 . S
H5535 C5543 0.950 . S
H5536 C5541 0.950 . S
H5537 C5542 0.949 . S
H5538 C5544 0.950 . S
H5539 C5545 0.950 . S
H5540 C5546 0.949 . S
C5541 H5536 0.950 . S
C5541 C5543 1.327 . S
C5541 C5547 1.429 . S
C5542 C5534 1.574 . S
C5542 H5537 0.949 . S
C5542 C5548 1.368 . S
C5543 C5527 1.349 . S
C5543 H5535 0.950 . S
C5543 C5541 1.327 . S
C5544 C5532 1.349 . S
C5544 H5538 0.950 . S
C5544 C5545 1.327 . S
C5545 H5539 0.950 . S
C5545 C5544 1.327 . S
C5545 C5549 1.429 . S
C5546 C5529 1.574 . S
C5546 H5540 0.949 . S
C5546 C5550 1.368 . S
C5547 C5528 1.429 . S
C5547 C5541 1.429 . S
C5547 C5548 1.523 . S
C5548 C5529 1.368 . S
C5548 C5542 1.368 . S
C5548 C5547 1.523 . S
C5549 C5533 1.429 . S
C5549 C5545 1.429 . S
C5549 C5550 1.523 . S
C5550 C5534 1.368 . S
C5550 C5546 1.368 . S
C5550 C5549 1.523 . S
H5551 C5526 0.950 . S
H5552 C5528 0.950 . S
H5553 C5529 0.949 . S
H5554 C5531 0.950 . S
H5555 C5533 0.950 . S
C5556 C5557 1.349 . S
C5556 C5558 1.327 . S
C5556 H5581 0.950 . S
C5557 C5556 1.349 . S
C5557 C5573 1.349 . S
C5558 C5556 1.327 . S
C5558 C5577 1.429 . S
C5558 H5582 0.950 . S
C5559 C5576 1.574 . S
C5559 C5578 1.368 . S
C5559 H5583 0.949 . S
H5560 C5564 0.949 . S
C5561 C5562 1.349 . S
C5561 C5563 1.327 . S
C5561 H5584 0.950 . S
C5562 C5561 1.349 . S
C5562 C5574 1.349 . S
C5563 C5561 1.327 . S
C5563 C5579 1.429 . S
C5563 H5585 0.950 . S
C5564 H5560 0.949 . S
C5564 C5572 1.574 . S
C5564 C5580 1.368 . S
H5565 C5573 0.950 . S
H5566 C5571 0.950 . S
H5567 C5572 0.949 . S
H5568 C5574 0.950 . S
H5569 C5575 0.950 . S
H5570 C5576 0.949 . S
C5571 H5566 0.950 . S
C5571 C5573 1.327 . S
C5571 C5577 1.429 . S
C5572 C5564 1.574 . S
C5572 H5567 0.949 . S
C5572 C5578 1.368 . S
C5573 C5557 1.349 . S
C5573 H5565 0.950 . S
C5573 C5571 1.327 . S
C5574 C5562 1.349 . S
C5574 H5568 0.950 . S
C5574 C5575 1.327 . S
C5575 H5569 0.950 . S
C5575 C5574 1.327 . S
C5575 C5579 1.429 . S
C5576 C5559 1.574 . S
C5576 H5570 0.949 . S
C5576 C5580 1.368 . S
C5577 C5558 1.429 . S
C5577 C5571 1.429 . S
C5577 C5578 1.523 . S
C5578 C5559 1.368 . S
C5578 C5572 1.368 . S
C5578 C5577 1.523 . S
C5579 C5563 1.429 . S
C5579 C5575 1.429 . S
C5579 C5580 1.523 . S
C5580 C5564 1.368 . S
C5580 C5576 1.368 . S
C5580 C5579 1.523 . S
H5581 C5556 0.950 . S
H5582 C5558 0.950 . S
H5583 C5559 0.949 . S
H5584 C5561 0.950 . S
H5585 C5563 0.950 . S
C5586 C5587 1.349 . S
C5586 C5588 1.327 . S
C5586 H5611 0.950 . S
C5587 C5586 1.349 . S
C5587 C5603 1.349 . S
C5588 C5586 1.327 . S
C5588 C5607 1.429 . S
C5588 H5612 0.950 . S
C5589 C5606 1.574 . S
C5589 C5608 1.368 . S
C5589 H5613 0.949 . S
H5590 C5594 0.949 . S
C5591 C5592 1.349 . S
C5591 C5593 1.327 . S
C5591 H5614 0.950 . S
C5592 C5591 1.349 . S
C5592 C5604 1.349 . S
C5593 C5591 1.327 . S
C5593 C5609 1.429 . S
C5593 H5615 0.950 . S
C5594 H5590 0.949 . S
C5594 C5602 1.574 . S
C5594 C5610 1.368 . S
H5595 C5603 0.950 . S
H5596 C5601 0.950 . S
H5597 C5602 0.949 . S
H5598 C5604 0.950 . S
H5599 C5605 0.950 . S
H5600 C5606 0.949 . S
C5601 H5596 0.950 . S
C5601 C5603 1.327 . S
C5601 C5607 1.429 . S
C5602 C5594 1.574 . S
C5602 H5597 0.949 . S
C5602 C5608 1.368 . S
C5603 C5587 1.349 . S
C5603 H5595 0.950 . S
C5603 C5601 1.327 . S
C5604 C5592 1.349 . S
C5604 H5598 0.950 . S
C5604 C5605 1.327 . S
C5605 H5599 0.950 . S
C5605 C5604 1.327 . S
C5605 C5609 1.429 . S
C5606 C5589 1.574 . S
C5606 H5600 0.949 . S
C5606 C5610 1.368 . S
C5607 C5588 1.429 . S
C5607 C5601 1.429 . S
C5607 C5608 1.523 . S
C5608 C5589 1.368 . S
C5608 C5602 1.368 . S
C5608 C5607 1.523 . S
C5609 C5593 1.429 . S
C5609 C5605 1.429 . S
C5609 C5610 1.523 . S
C5610 C5594 1.368 . S
C5610 C5606 1.368 . S
C5610 C5609 1.523 . S
H5611 C5586 0.950 . S
H5612 C5588 0.950 . S
H5613 C5589 0.949 . S
H5614 C5591 0.950 . S
H5615 C5593 0.950 . S
C5616 C5617 1.349 . S
C5616 C5618 1.327 . S
C5616 H5641 0.950 . S
C5617 C5616 1.349 . S
C5617 C5633 1.349 . S
C5618 C5616 1.327 . S
C5618 C5637 1.429 . S
C5618 H5642 0.950 . S
C5619 C5636 1.574 . S
C5619 C5638 1.368 . S
C5619 H5643 0.949 . S
H5620 C5624 0.949 . S
C5621 C5622 1.349 . S
C5621 C5623 1.327 . S
C5621 H5644 0.950 . S
C5622 C5621 1.349 . S
C5622 C5634 1.349 . S
C5623 C5621 1.327 . S
C5623 C5639 1.429 . S
C5623 H5645 0.950 . S
C5624 H5620 0.949 . S
C5624 C5632 1.574 . S
C5624 C5640 1.368 . S
H5625 C5633 0.950 . S
H5626 C5631 0.950 . S
H5627 C5632 0.949 . S
H5628 C5634 0.950 . S
H5629 C5635 0.950 . S
H5630 C5636 0.949 . S
C5631 H5626 0.950 . S
C5631 C5633 1.327 . S
C5631 C5637 1.429 . S
C5632 C5624 1.574 . S
C5632 H5627 0.949 . S
C5632 C5638 1.368 . S
C5633 C5617 1.349 . S
C5633 H5625 0.950 . S
C5633 C5631 1.327 . S
C5634 C5622 1.349 . S
C5634 H5628 0.950 . S
C5634 C5635 1.327 . S
C5635 H5629 0.950 . S
C5635 C5634 1.327 . S
C5635 C5639 1.429 . S
C5636 C5619 1.574 . S
C5636 H5630 0.949 . S
C5636 C5640 1.368 . S
C5637 C5618 1.429 . S
C5637 C5631 1.429 . S
C5637 C5638 1.523 . S
C5638 C5619 1.368 . S
C5638 C5632 1.368 . S
C5638 C5637 1.523 . S
C5639 C5623 1.429 . S
C5639 C5635 1.429 . S
C5639 C5640 1.523 . S
C5640 C5624 1.368 . S
C5640 C5636 1.368 . S
C5640 C5639 1.523 . S
H5641 C5616 0.950 . S
H5642 C5618 0.950 . S
H5643 C5619 0.949 . S
H5644 C5621 0.950 . S
H5645 C5623 0.950 . S
C5646 C5647 1.349 . S
C5646 C5648 1.327 . S
C5646 H5671 0.950 . S
C5647 C5646 1.349 . S
C5647 C5663 1.349 . S
C5648 C5646 1.327 . S
C5648 C5667 1.429 . S
C5648 H5672 0.950 . S
C5649 C5666 1.574 . S
C5649 C5668 1.368 . S
C5649 H5673 0.949 . S
H5650 C5654 0.949 . S
C5651 C5652 1.349 . S
C5651 C5653 1.327 . S
C5651 H5674 0.950 . S
C5652 C5651 1.349 . S
C5652 C5664 1.349 . S
C5653 C5651 1.327 . S
C5653 C5669 1.429 . S
C5653 H5675 0.950 . S
C5654 H5650 0.949 . S
C5654 C5662 1.574 . S
C5654 C5670 1.368 . S
H5655 C5663 0.950 . S
H5656 C5661 0.950 . S
H5657 C5662 0.949 . S
H5658 C5664 0.950 . S
H5659 C5665 0.950 . S
H5660 C5666 0.949 . S
C5661 H5656 0.950 . S
C5661 C5663 1.327 . S
C5661 C5667 1.429 . S
C5662 C5654 1.574 . S
C5662 H5657 0.949 . S
C5662 C5668 1.368 . S
C5663 C5647 1.349 . S
C5663 H5655 0.950 . S
C5663 C5661 1.327 . S
C5664 C5652 1.349 . S
C5664 H5658 0.950 . S
C5664 C5665 1.327 . S
C5665 H5659 0.950 . S
C5665 C5664 1.327 . S
C5665 C5669 1.429 . S
C5666 C5649 1.574 . S
C5666 H5660 0.949 . S
C5666 C5670 1.368 . S
C5667 C5648 1.429 . S
C5667 C5661 1.429 . S
C5667 C5668 1.523 . S
C5668 C5649 1.368 . S
C5668 C5662 1.368 . S
C5668 C5667 1.523 . S
C5669 C5653 1.429 . S
C5669 C5665 1.429 . S
C5669 C5670 1.523 . S
C5670 C5654 1.368 . S
C5670 C5666 1.368 . S
C5670 C5669 1.523 . S
H5671 C5646 0.950 . S
H5672 C5648 0.950 . S
H5673 C5649 0.949 . S
H5674 C5651 0.950 . S
H5675 C5653 0.950 . S
C5676 C5677 1.349 . S
C5676 C5678 1.327 . S
C5676 H5701 0.950 . S
C5677 C5676 1.349 . S
C5677 C5693 1.349 . S
C5678 C5676 1.327 . S
C5678 C5697 1.429 . S
C5678 H5702 0.950 . S
C5679 C5696 1.574 . S
C5679 C5698 1.368 . S
C5679 H5703 0.949 . S
H5680 C5684 0.949 . S
C5681 C5682 1.349 . S
C5681 C5683 1.327 . S
C5681 H5704 0.950 . S
C5682 C5681 1.349 . S
C5682 C5694 1.349 . S
C5683 C5681 1.327 . S
C5683 C5699 1.429 . S
C5683 H5705 0.950 . S
C5684 H5680 0.949 . S
C5684 C5692 1.574 . S
C5684 C5700 1.368 . S
H5685 C5693 0.950 . S
H5686 C5691 0.950 . S
H5687 C5692 0.949 . S
H5688 C5694 0.950 . S
H5689 C5695 0.950 . S
H5690 C5696 0.949 . S
C5691 H5686 0.950 . S
C5691 C5693 1.327 . S
C5691 C5697 1.429 . S
C5692 C5684 1.574 . S
C5692 H5687 0.949 . S
C5692 C5698 1.368 . S
C5693 C5677 1.349 . S
C5693 H5685 0.950 . S
C5693 C5691 1.327 . S
C5694 C5682 1.349 . S
C5694 H5688 0.950 . S
C5694 C5695 1.327 . S
C5695 H5689 0.950 . S
C5695 C5694 1.327 . S
C5695 C5699 1.429 . S
C5696 C5679 1.574 . S
C5696 H5690 0.949 . S
C5696 C5700 1.368 . S
C5697 C5678 1.429 . S
C5697 C5691 1.429 . S
C5697 C5698 1.523 . S
C5698 C5679 1.368 . S
C5698 C5692 1.368 . S
C5698 C5697 1.523 . S
C5699 C5683 1.429 . S
C5699 C5695 1.429 . S
C5699 C5700 1.523 . S
C5700 C5684 1.368 . S
C5700 C5696 1.368 . S
C5700 C5699 1.523 . S
H5701 C5676 0.950 . S
H5702 C5678 0.950 . S
H5703 C5679 0.949 . S
H5704 C5681 0.950 . S
H5705 C5683 0.950 . S
C5706 C5707 1.349 . S
C5706 C5708 1.327 . S
C5706 H5731 0.950 . S
C5707 C5706 1.349 . S
C5707 C5723 1.349 . S
C5708 C5706 1.327 . S
C5708 C5727 1.429 . S
C5708 H5732 0.950 . S
C5709 C5726 1.627 . S
C5709 C5728 1.368 . S
C5709 H5733 0.949 1_655 S
H5710 C5714 0.949 . S
C5711 C5712 1.349 1_455 S
C5711 C5713 1.327 . S
C5711 H5734 0.950 . S
C5712 C5711 1.349 1_655 S
C5712 C5724 1.349 . S
C5713 C5711 1.327 . S
C5713 C5729 1.429 1_455 S
C5713 H5735 0.950 . S
C5714 H5710 0.949 . S
C5714 C5722 1.574 . S
C5714 C5730 1.368 . S
H5715 C5723 0.950 . S
H5716 C5721 0.950 . S
H5717 C5722 0.949 . S
H5718 C5724 0.950 . S
H5719 C5725 0.950 . S
H5720 C5726 0.861 1_455 S
C5721 H5716 0.950 . S
C5721 C5723 1.327 . S
C5721 C5727 1.429 . S
C5722 C5714 1.574 . S
C5722 H5717 0.949 . S
C5722 C5728 1.368 . S
C5723 C5707 1.349 . S
C5723 H5715 0.950 . S
C5723 C5721 1.327 . S
C5724 C5712 1.349 . S
C5724 H5718 0.950 . S
C5724 C5725 1.327 . S
C5725 H5719 0.950 . S
C5725 C5724 1.327 . S
C5725 C5729 1.429 . S
C5726 C5709 1.627 . S
C5726 H5720 0.861 1_655 S
C5726 C5730 1.419 . S
C5727 C5708 1.429 . S
C5727 C5721 1.429 . S
C5727 C5728 1.523 . S
C5728 C5709 1.368 . S
C5728 C5722 1.368 . S
C5728 C5727 1.523 . S
C5729 C5713 1.429 1_655 S
C5729 C5725 1.429 . S
C5729 C5730 1.523 . S
C5730 C5714 1.368 . S
C5730 C5726 1.419 . S
C5730 C5729 1.523 . S
H5731 C5706 0.950 . S
H5732 C5708 0.950 . S
H5733 C5709 0.949 1_455 S
H5734 C5711 0.950 . S
H5735 C5713 0.950 . S
C5736 C5737 1.349 . S
C5736 C5738 1.327 . S
C5736 H5761 0.950 . S
C5737 C5736 1.349 . S
C5737 C5753 1.349 . S
C5738 C5736 1.327 . S
C5738 C5757 1.429 . S
C5738 H5762 0.950 . S
C5739 C5756 1.574 . S
C5739 C5758 1.368 . S
C5739 H5763 0.949 . S
H5740 C5744 0.949 . S
C5741 C5742 1.349 . S
C5741 C5743 1.327 . S
C5741 H5764 0.950 . S
C5742 C5741 1.349 . S
C5742 C5754 1.349 . S
C5743 C5741 1.327 . S
C5743 C5759 1.429 . S
C5743 H5765 0.950 . S
C5744 H5740 0.949 . S
C5744 C5752 1.574 . S
C5744 C5760 1.368 . S
H5745 C5753 0.950 . S
H5746 C5751 0.950 . S
H5747 C5752 0.949 . S
H5748 C5754 0.950 . S
H5749 C5755 0.950 . S
H5750 C5756 0.949 . S
C5751 H5746 0.950 . S
C5751 C5753 1.327 . S
C5751 C5757 1.429 . S
C5752 C5744 1.574 . S
C5752 H5747 0.949 . S
C5752 C5758 1.368 . S
C5753 C5737 1.349 . S
C5753 H5745 0.950 . S
C5753 C5751 1.327 . S
C5754 C5742 1.349 . S
C5754 H5748 0.950 . S
C5754 C5755 1.327 . S
C5755 H5749 0.950 . S
C5755 C5754 1.327 . S
C5755 C5759 1.429 . S
C5756 C5739 1.574 . S
C5756 H5750 0.949 . S
C5756 C5760 1.368 . S
C5757 C5738 1.429 . S
C5757 C5751 1.429 . S
C5757 C5758 1.523 . S
C5758 C5739 1.368 . S
C5758 C5752 1.368 . S
C5758 C5757 1.523 . S
C5759 C5743 1.429 . S
C5759 C5755 1.429 . S
C5759 C5760 1.523 . S
C5760 C5744 1.368 . S
C5760 C5756 1.368 . S
C5760 C5759 1.523 . S
H5761 C5736 0.950 . S
H5762 C5738 0.950 . S
H5763 C5739 0.949 . S
H5764 C5741 0.950 . S
H5765 C5743 0.950 . S
C5766 C5767 1.349 . S
C5766 C5768 1.327 . S
C5766 H5791 0.950 1_545 S
C5767 C5766 1.349 . S
C5767 C5783 1.349 . S
C5768 C5766 1.327 . S
C5768 C5787 1.429 . S
C5768 H5792 0.950 1_545 S
C5769 C5786 1.574 . S
C5769 C5788 1.368 . S
C5769 H5793 0.949 . S
H5770 C5774 0.949 . S
C5771 C5772 1.349 . S
C5771 C5773 1.327 . S
C5771 H5794 0.950 . S
C5772 C5771 1.349 . S
C5772 C5784 1.349 1_545 S
C5773 C5771 1.327 . S
C5773 C5789 1.429 . S
C5773 H5795 0.950 . S
C5774 H5770 0.949 . S
C5774 C5782 1.574 . S
C5774 C5790 1.368 1_565 S
H5775 C5783 0.950 . S
H5776 C5781 0.950 . S
H5777 C5782 0.949 . S
H5778 C5784 0.950 . S
H5779 C5785 0.950 . S
H5780 C5786 0.949 . S
C5781 H5776 0.950 . S
C5781 C5783 1.327 . S
C5781 C5787 1.429 . S
C5782 C5774 1.574 . S
C5782 H5777 0.949 . S
C5782 C5788 1.368 1_565 S
C5783 C5767 1.349 . S
C5783 H5775 0.950 . S
C5783 C5781 1.327 . S
C5784 C5772 1.349 1_565 S
C5784 H5778 0.950 . S
C5784 C5785 1.327 . S
C5785 H5779 0.950 . S
C5785 C5784 1.327 . S
C5785 C5789 1.429 1_565 S
C5786 C5769 1.574 . S
C5786 H5780 0.949 . S
C5786 C5790 1.368 . S
C5787 C5768 1.429 . S
C5787 C5781 1.429 . S
C5787 C5788 1.523 . S
C5788 C5769 1.368 . S
C5788 C5782 1.368 1_545 S
C5788 C5787 1.523 . S
C5789 C5773 1.429 . S
C5789 C5785 1.429 1_545 S
C5789 C5790 1.523 . S
C5790 C5774 1.368 1_545 S
C5790 C5786 1.368 . S
C5790 C5789 1.523 . S
H5791 C5766 0.950 1_565 S
H5792 C5768 0.950 1_565 S
H5793 C5769 0.949 . S
H5794 C5771 0.950 . S
H5795 C5773 0.950 . S
C3637 C49 1.323 . S
C3642 C2639 1.131 . S
C3667 C137 1.651 . S
C3672 C2779 1.090 . S
C3702 C2867 1.203 . S
C3697 C205 1.402 . S
C3727 C196 1.445 . S
C3732 C3007 1.112 1_565 S
C3757 C57 1.436 . S
C3762 C3121 1.192 . S
C3787 C145 1.655 . S
C3792 C3209 1.254 . S
C3817 C313 1.349 . S
C3822 C3095 1.076 . S
C3852 C3235 1.279 . S
C3847 C401 1.577 . S
C3882 C2981 1.159 . S
C3877 C489 1.427 . S
C3907 C469 1.474 . S
C3912 C2893 1.053 . S
C3942 C2665 1.056 . S
C3937 C293 1.460 . S
C3967 C381 1.581 . S
C3972 C2753 1.382 . S
C3997 C577 1.731 . S
C4002 C3323 1.302 . S
C4027 C645 1.743 . S
C4032 C3463 1.142 . S
C4062 C3551 1.238 . S
C4057 C733 1.650 . S
C4087 C724 1.669 . S
C4092 C1639 1.109 . S
C4117 C585 1.781 . S
C4122 C1753 1.187 . S
C4147 C636 1.754 . S
C4152 C1841 1.327 . S
C4177 C841 1.440 . S
C4182 C1727 1.269 . S
C4207 C937 1.680 . S
C4212 C1867 1.403 . S
C4242 C1613 1.465 . S
C4237 C1025 1.664 . S
C4272 C3577 1.499 . S
C4267 C988 1.796 . S
C4302 C3349 1.324 . S
C4297 C821 1.604 . S
C4332 C3437 1.490 . S
C4327 C900 1.666 . S
C4357 C1105 1.530 . S
C4362 C1955 1.138 . S
C4387 C1193 1.762 . S
C4392 C2095 1.161 . S
C4417 C1281 1.742 . S
C4422 C2183 1.323 . S
C4447 C1289 1.865 . S
C4452 C2323 1.267 . S
C4482 C2437 1.105 . S
C4477 C1113 1.692 . S
C4512 C2525 1.316 . S
C4507 C1201 1.747 . S
C4542 C2411 1.460 . S
C4537 C1369 1.653 . S
C4572 C2551 1.385 . S
C4567 C1457 1.654 . S
C4597 C1553 1.555 . S
C4602 C2297 1.372 . S
C4632 C2209 1.316 . S
C4627 C1516 1.587 . S
C4657 C1349 1.710 . S
C4662 C1981 1.406 . S
C4692 C2069 1.494 . S
C4687 C1437 1.671 . S
C4722 C1595 0.996 . S
C4717 C29 1.842 . S
C4747 C117 1.549 . S
C4752 C1709 0.833 . S
C4782 C1813 1.260 . S
C4777 C225 1.777 . S
C4812 C1927 1.148 . S
C4807 C233 1.614 . S
C4842 C2051 0.986 . S
C4837 C20 1.813 . S
C4872 C2155 1.130 . S
C4867 C108 1.587 . S
C4897 C321 1.962 . S
C4902 C2165 1.525 . S
C4927 C409 1.667 . S
C4932 C1937 1.294 . S
C4957 C497 1.909 . S
C4962 C2041 1.705 . S
C4987 C460 1.738 . S
C4992 C1699 1.555 . S
C5022 C1823 1.522 . S
C5017 C284 1.931 . S
C5047 C372 1.702 . S
C5052 C1585 1.503 . S
C5082 C2279 0.890 . S
C5077 C557 1.646 . S
C5107 C665 1.735 . S
C5112 C2393 0.977 . S
C5137 C753 1.705 . S
C5142 C2497 1.249 . S
C5172 C2611 0.787 . S
C5167 C761 0.860 . S
C5197 C548 1.546 . S
C5202 C2735 0.837 . S
C5227 C673 1.019 . S
C5232 C2839 0.865 . S
C5257 C849 1.140 . S
C5262 C2849 0.780 1_565 S
C5287 C929 1.016 . S
C5292 C2621 0.754 1_455 S
C5322 C2725 1.441 . S
C5317 C1017 1.645 . S
C5347 C997 1.563 . S
C5352 C2383 1.389 . S
C5377 C812 1.831 . S
C5382 C2507 1.421 . S
C5412 C2269 1.642 . S
C5407 C909 1.869 . S
C5442 C2963 0.752 . S
C5437 C1085 1.122 . S
C5467 C1173 0.981 . S
C5472 C3077 0.749 . S
C5497 C1261 1.524 . S
C5502 C3181 1.092 . S
C5532 C3295 1.038 . S
C5527 C1252 1.434 . S
C5562 C3419 0.987 . S
C5557 C1076 1.734 . S
C5587 C1164 1.758 . S
C5592 C3523 1.282 . S
C5617 C1377 1.772 . S
C5622 C3533 1.356 . S
C5647 C1465 1.843 . S
C5652 C3305 1.419 . S
C5682 C3409 1.607 . S
C5677 C1545 1.815 . S
C5712 C3067 0.802 1_655 S
C5707 C1525 0.870 . S
C5742 C3191 1.268 . S
C5737 C1340 1.664 . S
C5767 C1428 1.046 . S
C5772 C2953 0.889 1_545 S
