# Generated by pormake.
# Topology zzz, (3,6)-cn, num edge types: 1
# Building blocks:
#     Node 0, Type 0, BuildingBlock: QEWDON_clean_linker_0, # of connection points: 3
#     Node 1, Type 0, BuildingBlock: QEWDON_clean_linker_0, # of connection points: 3
#     Node 2, Type 0, BuildingBlock: QEWDON_clean_linker_0, # of connection points: 3
#     Node 3, Type 0, BuildingBlock: QEWDON_clean_linker_0, # of connection points: 3
#     Node 4, Type 0, BuildingBlock: QEWDON_clean_linker_0, # of connection points: 3
#     Node 5, Type 0, BuildingBlock: QEWDON_clean_linker_0, # of connection points: 3
#     Node 6, Type 0, BuildingBlock: QEWDON_clean_linker_0, # of connection points: 3
#     Node 7, Type 0, BuildingBlock: QEWDON_clean_linker_0, # of connection points: 3
#     Node 8, Type 1, BuildingBlock: FUNLAD_clean_sbu_0, # of connection points: 6
#     Node 9, Type 1, BuildingBlock: FUNLAD_clean_sbu_0, # of connection points: 6
#     Node 10, Type 1, BuildingBlock: FUNLAD_clean_sbu_0, # of connection points: 6
#     Node 11, Type 1, BuildingBlock: FUNLAD_clean_sbu_0, # of connection points: 6
#     Edge 12, Type (0, 1), BuildingBlock: XIVTED_clean_linker_0, # of connection points: 2
#     Edge 13, Type (0, 1), BuildingBlock: XIVTED_clean_linker_0, # of connection points: 2
#     Edge 14, Type (0, 1), BuildingBlock: XIVTED_clean_linker_0, # of connection points: 2
#     Edge 15, Type (0, 1), BuildingBlock: XIVTED_clean_linker_0, # of connection points: 2
#     Edge 16, Type (0, 1), BuildingBlock: XIVTED_clean_linker_0, # of connection points: 2
#     Edge 17, Type (0, 1), BuildingBlock: XIVTED_clean_linker_0, # of connection points: 2
#     Edge 18, Type (0, 1), BuildingBlock: XIVTED_clean_linker_0, # of connection points: 2
#     Edge 19, Type (0, 1), BuildingBlock: XIVTED_clean_linker_0, # of connection points: 2
#     Edge 20, Type (0, 1), BuildingBlock: XIVTED_clean_linker_0, # of connection points: 2
#     Edge 21, Type (0, 1), BuildingBlock: XIVTED_clean_linker_0, # of connection points: 2
#     Edge 22, Type (0, 1), BuildingBlock: XIVTED_clean_linker_0, # of connection points: 2
#     Edge 23, Type (0, 1), BuildingBlock: XIVTED_clean_linker_0, # of connection points: 2
#     Edge 24, Type (0, 1), BuildingBlock: XIVTED_clean_linker_0, # of connection points: 2
#     Edge 25, Type (0, 1), BuildingBlock: XIVTED_clean_linker_0, # of connection points: 2
#     Edge 26, Type (0, 1), BuildingBlock: XIVTED_clean_linker_0, # of connection points: 2
#     Edge 27, Type (0, 1), BuildingBlock: XIVTED_clean_linker_0, # of connection points: 2
#     Edge 28, Type (0, 1), BuildingBlock: XIVTED_clean_linker_0, # of connection points: 2
#     Edge 29, Type (0, 1), BuildingBlock: XIVTED_clean_linker_0, # of connection points: 2
#     Edge 30, Type (0, 1), BuildingBlock: XIVTED_clean_linker_0, # of connection points: 2
#     Edge 31, Type (0, 1), BuildingBlock: XIVTED_clean_linker_0, # of connection points: 2
#     Edge 32, Type (0, 1), BuildingBlock: XIVTED_clean_linker_0, # of connection points: 2
#     Edge 33, Type (0, 1), BuildingBlock: XIVTED_clean_linker_0, # of connection points: 2
#     Edge 34, Type (0, 1), BuildingBlock: XIVTED_clean_linker_0, # of connection points: 2
#     Edge 35, Type (0, 1), BuildingBlock: XIVTED_clean_linker_0, # of connection points: 2
# Relax obj value: 0.080
# Max RMSD: 0.171
# Mean RMSD: 0.065
data_MOF--net-zzz--node1-FUNLAD_clean_sbu_0--node2-QEWDON_clean_linker_0--edge1-XIVTED_clean_linker_0
_symmetry_space_group_name_H-M    P1
_symmetry_Int_Tables_number       1
_symmetry_cell_setting            triclinic
loop_
_symmetry_equiv_pos_as_xyz
'x, y, z'
_cell_length_a     54.548569
_cell_length_b     60.560029
_cell_length_c     17.530168
_cell_angle_alpha  85.047578
_cell_angle_beta   84.70654
_cell_angle_gamma 88.493149
loop_
_atom_site_label
_atom_site_type_symbol
_atom_site_fract_x
_atom_site_fract_y
_atom_site_fract_z
_atom_type_partial_charge
H0 H 0.81473 0.51979 0.15098 0.0
C1 C 0.82028 0.51773 0.209 0.0
C2 C 0.84225 0.50611 0.2224 0.0
C3 C 0.8065 0.52803 0.26855 0.0
H4 H 0.86774 0.49628 0.30594 0.0
C5 C 0.85011 0.50425 0.29635 0.0
C6 C 0.83728 0.51502 0.35573 0.0
C7 C 0.81542 0.52685 0.34198 0.0
C8 C 0.78415 0.54155 0.25139 0.0
H9 H 0.80569 0.53529 0.38806 0.0
C10 C 0.76803 0.53467 0.19994 0.0
C11 C 0.74808 0.54825 0.1783 0.0
C12 C 0.77953 0.56205 0.28264 0.0
H13 H 0.79174 0.56809 0.32117 0.0
C14 C 0.75951 0.5754 0.26237 0.0
H15 H 0.77126 0.5189 0.17551 0.0
C16 C 0.74396 0.56866 0.21021 0.0
H17 H 0.72858 0.57935 0.19529 0.0
H18 H 0.7562 0.59118 0.2865 0.0
H19 H 0.99689 0.79692 -0.00093 0.0
C20 C 0.99509 0.80268 0.0562 0.0
C21 C 1.00899 0.82075 0.07178 0.0
C22 C 0.97768 0.79298 0.11294 0.0
H23 H 0.01559 0.84291 0.15717 0.0
C24 C 1.00593 0.82832 0.14536 0.0
C25 C 0.98854 0.81913 0.20188 0.0
C26 C 0.97427 0.80155 0.1856 0.0
C27 C 0.96162 0.77513 0.09459 0.0
H28 H 0.96047 0.79473 0.22908 0.0
C29 C 0.97158 0.75633 0.0598 0.0
C30 C 0.95616 0.73911 0.04566 0.0
C31 C 0.93604 0.7768 0.11285 0.0
H32 H 0.92788 0.79121 0.13858 0.0
C33 C 0.92068 0.76002 0.09737 0.0
H34 H 0.99132 0.75475 0.04657 0.0
C35 C 0.93062 0.74126 0.06437 0.0
H36 H 0.91829 0.72842 0.0532 0.0
H37 H 0.901 0.76152 0.11136 0.0
H38 H 0.74635 0.99597 0.03165 0.0
C39 C 0.73647 0.99905 0.08634 0.0
C40 C 0.71285 0.00899 0.08778 0.0
C41 C 0.74667 0.99203 0.15573 0.0
H42 H 0.68099 0.01883 0.15932 0.0
C43 C 0.69966 0.01212 0.15841 0.0
C44 C 0.70891 1.0045 0.2277 0.0
C45 C 0.73248 0.99457 0.22638 0.0
C46 C 0.77118 0.98044 0.15505 0.0
H47 H 0.7396 0.98872 0.28034 0.0
C48 C 0.79175 0.98823 0.10573 0.0
C49 C 0.81501 0.97757 0.10977 0.0
C50 C 0.77412 0.96141 0.20564 0.0
H51 H 0.75866 0.95466 0.24279 0.0
C52 C 0.79697 0.9507 0.2087 0.0
H53 H 0.78991 1.00292 0.0666 0.0
C54 C 0.8173 0.95879 0.1617 0.0
H55 H 0.83489 0.95022 0.16549 0.0
H56 H 0.79895 0.9361 0.248 0.0
H57 H 0.53408 0.70437 0.02742 0.0
C58 C 0.53238 0.69564 0.08424 0.0
C59 C 0.5198 0.6755 0.09594 0.0
C60 C 0.54419 0.7037 0.1442 0.0
H61 H 0.50998 0.64771 0.17677 0.0
C62 C 0.51855 0.66381 0.1686 0.0
C63 C 0.5306 0.67119 0.22847 0.0
C64 C 0.54339 0.69118 0.21621 0.0
C65 C 0.55932 0.72399 0.12923 0.0
H66 H 0.5529 0.6968 0.26239 0.0
C67 C 0.55085 0.74304 0.08638 0.0
C68 C 0.56594 0.76171 0.06923 0.0
C69 C 0.58293 0.72402 0.15539 0.0
H70 H 0.59015 0.70955 0.18728 0.0
C71 C 0.59782 0.74249 0.13893 0.0
H72 H 0.5327 0.74329 0.06587 0.0
C73 C 0.58947 0.76118 0.09599 0.0
H74 H 0.60135 0.77536 0.08441 0.0
H75 H 0.61598 0.74229 0.15919 0.0
H76 H 0.22967 0.52315 0.27792 0.0
C77 C 0.22431 0.5165 0.22657 0.0
C78 C 0.20109 0.50708 0.22831 0.0
C79 C 0.2402 0.51804 0.15828 0.0
H80 H 0.17532 0.49268 0.16247 0.0
C81 C 0.19378 0.49902 0.16185 0.0
C82 C 0.20875 0.50116 0.09258 0.0
C83 C 0.23202 0.51072 0.09067 0.0
C84 C 0.26466 0.52838 0.15769 0.0
H85 H 0.24352 0.51255 0.03681 0.0
C86 C 0.27896 0.52393 0.22046 0.0
C87 C 0.30126 0.53485 0.22322 0.0
C88 C 0.27336 0.54351 0.09647 0.0
H89 H 0.26269 0.54751 0.04785 0.0
C90 C 0.29563 0.55421 0.09854 0.0
H91 H 0.27256 0.51221 0.26788 0.0
C92 C 0.30944 0.55005 0.16165 0.0
H93 H 0.32665 0.55855 0.16195 0.0
H94 H 0.30211 0.56593 0.05133 0.0
H95 H 0.02037 0.21956 0.41262 0.0
C96 C 0.03249 0.21218 0.36885 0.0
C97 C 0.03941 0.18979 0.38025 0.0
C98 C 0.03985 0.22454 0.29895 0.0
H99 H 0.0579 0.16208 0.33045 0.0
C100 C 0.05394 0.17976 0.32265 0.0
C101 C 0.0603 0.19129 0.25137 0.0
C102 C 0.05359 0.2138 0.24003 0.0
C103 C 0.03096 0.24786 0.28469 0.0
H104 H 0.05834 0.22261 0.1844 0.0
C105 C 0.02996 0.26269 0.34286 0.0
C106 C 0.02037 0.28439 0.32996 0.0
C107 C 0.02247 0.25519 0.21323 0.0
H108 H 0.02241 0.24414 0.16788 0.0
C109 C 0.01331 0.27673 0.19994 0.0
H110 H 0.03635 0.2573 0.39831 0.0
C111 C 0.0122 0.29123 0.25774 0.0
H112 H 1.00507 0.30791 0.24572 0.0
H113 H 1.00683 0.28217 0.14472 0.0
H114 H 0.30288 0.99657 0.41489 0.0
C115 C 0.31283 1.00303 0.36164 0.0
C116 C 0.33692 0.01058 0.36274 0.0
C117 C 0.30218 1.00292 0.2912 0.0
H118 H 0.3694 0.02268 0.29505 0.0
C119 C 0.35038 0.01795 0.29393 0.0
C120 C 0.3407 0.01718 0.22334 0.0
C121 C 0.31647 0.01001 0.22214 0.0
C122 C 0.27715 0.99364 0.28831 0.0
H123 H 0.30903 0.00965 0.16708 0.0
C124 C 0.25749 0.9971 0.34518 0.0
C125 C 0.23411 0.98791 0.34076 0.0
C126 C 0.27296 0.98075 0.22782 0.0
H127 H 0.28764 0.97705 0.18463 0.0
C128 C 0.24988 0.97213 0.22238 0.0
H129 H 0.26039 0.00676 0.39265 0.0
C130 C 0.23061 0.97575 0.27781 0.0
H131 H 0.21282 0.96901 0.27101 0.0
H132 H 0.24692 0.96247 0.17498 0.0
H133 H 0.54752 0.31136 0.39444 0.0
C134 C 0.53842 0.32061 0.34905 0.0
C135 C 0.53023 0.34242 0.35867 0.0
C136 C 0.53581 0.31122 0.27945 0.0
H137 H 0.51418 0.37203 0.30632 0.0
C138 C 0.51939 0.35485 0.29931 0.0
C139 C 0.51721 0.34614 0.22903 0.0
C140 C 0.52513 0.32419 0.21974 0.0
C141 C 0.54603 0.28866 0.26632 0.0
H142 H 0.52338 0.31742 0.16531 0.0
C143 C 0.54354 0.27092 0.3243 0.0
C144 C 0.55373 0.24977 0.31094 0.0
C145 C 0.55886 0.28491 0.1951 0.0
H146 H 0.56164 0.29822 0.14998 0.0
C147 C 0.56868 0.26402 0.18141 0.0
H148 H 0.53382 0.27357 0.37958 0.0
C149 C 0.56612 0.24658 0.23856 0.0
H150 H 0.57369 0.23047 0.2257 0.0
H151 H 0.5784 0.26134 0.1262 0.0
C152 C 0.03652 0.96394 0.79944 0.0
N153 N 1.00856 0.9801 0.59086 0.0
C154 C 0.02589 0.9645 0.57142 0.0
C155 C 0.0206 0.94782 0.52645 0.0
C156 C 0.99717 0.94689 0.50005 0.0
C157 C 0.9797 0.96358 0.51853 0.0
C158 C 0.98583 0.98016 0.56446 0.0
Zn159 Zn 0.01769 0.99853 0.67681 0.0
C160 C 0.97749 1.00183 0.79932 0.0
N161 N 0.04188 0.02917 0.8653 0.0
C162 C 0.06449 0.02901 0.89254 0.0
C163 C 0.02445 0.04464 0.88499 0.0
C164 C 0.02953 0.06115 0.93103 0.0
C165 C 0.05282 0.06198 0.95851 0.0
C166 C 0.07037 0.04536 0.93975 0.0
Zn167 Zn 0.03292 0.01086 0.77875 0.0
O168 O 0.02654 0.96825 0.73719 0.0
C169 C 0.07307 0.00703 0.65619 0.0
O170 O 0.04228 0.97985 0.83691 0.0
H171 H 1.00687 0.04513 0.8611 0.0
H172 H 0.04351 0.96397 0.59495 0.0
H173 H 0.07828 0.01683 0.87518 0.0
O174 O 0.05469 1.00069 0.62468 0.0
O175 O 0.06976 0.01319 0.72398 0.0
H176 H 0.97211 0.99241 0.58172 0.0
O177 O 0.02365 0.04129 0.71851 0.0
O178 O 1.0089 0.02926 0.61775 0.0
O179 O 0.99574 0.00787 0.8323 0.0
O180 O 0.98104 0.99668 0.73035 0.0
C181 C 0.01425 0.04532 0.65506 0.0
H182 H 0.03449 0.93506 0.51619 0.0
H183 H 0.96141 0.96354 0.49926 0.0
H184 H 0.01556 0.07384 0.94143 0.0
H185 H 0.08855 0.04526 0.95987 0.0
C186 C 0.48612 1.00493 0.63782 0.0
N187 N 0.52509 0.06078 0.68043 0.0
C188 C 0.52605 0.0661 0.60318 0.0
C189 C 0.52851 0.08805 0.57298 0.0
C190 C 0.52957 0.10489 0.62254 0.0
C191 C 0.52747 0.09921 0.70224 0.0
C192 C 0.52544 0.07684 0.73019 0.0
Zn193 Zn 0.52478 0.02743 0.71568 0.0
C194 C 0.48867 0.01495 0.8452 0.0
N195 N 0.52486 0.95703 0.77094 0.0
C196 C 0.52666 0.94164 0.71837 0.0
C197 C 0.52411 0.95078 0.8476 0.0
C198 C 0.52535 0.92839 0.87401 0.0
C199 C 0.5277 0.91215 0.82118 0.0
C200 C 0.52825 0.91901 0.74234 0.0
Zn201 Zn 0.52467 0.99047 0.73726 0.0
O202 O 0.49564 0.02334 0.6471 0.0
C203 C 0.56076 1.00311 0.60741 0.0
O204 O 0.49547 0.98704 0.66707 0.0
H205 H 0.523 0.96322 0.88853 0.0
H206 H 0.52544 0.05321 0.56444 0.0
H207 H 0.52722 0.94692 0.65772 0.0
O208 O 0.55186 0.02188 0.62394 0.0
O209 O 0.55207 0.98567 0.64476 0.0
H210 H 0.52467 0.07227 0.79139 0.0
O211 O 0.55384 0.99458 0.80655 0.0
O212 O 0.55397 0.03085 0.78505 0.0
O213 O 0.49727 0.99604 0.8287 0.0
O214 O 0.49775 0.03233 0.8084 0.0
C215 C 0.56337 0.01307 0.81485 0.0
H216 H 0.52981 0.09183 0.5112 0.0
H217 H 0.52828 0.11181 0.74214 0.0
H218 H 0.52526 0.9239 0.93519 0.0
H219 H 0.52991 0.90702 0.69968 0.0
C220 C 0.53189 0.47239 0.65217 0.0
N221 N 0.46549 0.50821 0.68647 0.0
C222 C 0.46543 0.50306 0.61238 0.0
C223 C 0.44365 0.50363 0.57679 0.0
C224 C 0.42161 0.51016 0.61667 0.0
C225 C 0.42196 0.51557 0.69292 0.0
C226 C 0.44426 0.51425 0.7273 0.0
Zn227 Zn 0.49974 0.50872 0.72681 0.0
C228 C 0.50799 0.47788 0.85492 0.0
N229 N 0.57439 0.5097 0.77877 0.0
C230 C 0.59572 0.51177 0.73197 0.0
C231 C 0.57451 0.50916 0.85654 0.0
C232 C 0.59647 0.51044 0.89023 0.0
C233 C 0.6187 0.51279 0.84376 0.0
C234 C 0.61825 0.51355 0.76352 0.0
Zn235 Zn 0.54012 0.50884 0.73915 0.0
O236 O 0.51056 0.48078 0.66667 0.0
C237 C 0.53159 0.53926 0.60958 0.0
O238 O 0.55051 0.48178 0.67269 0.0
H239 H 0.55742 0.50817 0.89298 0.0
H240 H 0.48245 0.49912 0.57943 0.0
H241 H 0.59523 0.51237 0.67029 0.0
O242 O 0.51052 0.53117 0.63058 0.0
O243 O 0.54994 0.53243 0.6454 0.0
H244 H 0.4447 0.51857 0.78575 0.0
O245 O 0.52937 0.53591 0.80428 0.0
O246 O 0.48986 0.53652 0.78911 0.0
O247 O 0.52932 0.485 0.83144 0.0
O248 O 0.48937 0.48622 0.82345 0.0
C249 C 0.50821 0.54503 0.8145 0.0
H250 H 0.44423 0.49985 0.51735 0.0
H251 H 0.40526 0.52085 0.72519 0.0
H252 H 0.59596 0.51028 0.9522 0.0
H253 H 0.63508 0.51547 0.72584 0.0
C254 C 0.0528 0.51485 0.59993 0.0
N255 N 0.02259 0.45505 0.69785 0.0
C256 C 0.01717 0.45274 0.62474 0.0
C257 C 0.01598 0.43184 0.59828 0.0
C258 C 0.02071 0.4129 0.64685 0.0
C259 C 0.02694 0.41558 0.72149 0.0
C260 C 0.0276 0.43699 0.74626 0.0
Zn261 Zn 0.02253 0.48717 0.7277 0.0
C262 C 0.06506 0.4985 0.80451 0.0
N263 N 0.02148 0.55603 0.76464 0.0
C264 C 0.01504 0.57339 0.71538 0.0
C265 C 0.02534 0.55903 0.83861 0.0
C266 C 0.02175 0.57982 0.86662 0.0
C267 C 0.01396 0.59785 0.8184 0.0
C268 C 1.01124 0.5946 0.74118 0.0
Zn269 Zn 0.02238 0.52384 0.73549 0.0
O270 O 0.04519 0.49576 0.62593 0.0
C271 C 0.97993 0.51256 0.65798 0.0
O272 O 0.04539 0.53174 0.63442 0.0
H273 H 0.03032 0.54506 0.87712 0.0
H274 H 0.01367 0.46721 0.58645 0.0
H275 H 0.01194 0.57065 0.6569 0.0
O276 O 0.99009 0.49369 0.67155 0.0
O277 O 0.99008 0.52973 0.6765 0.0
H278 H 0.03198 0.43917 0.80404 0.0
O279 O 0.99939 0.51526 0.83635 0.0
O280 O 0.99977 0.47922 0.82977 0.0
O281 O 0.05466 0.51737 0.79276 0.0
O282 O 0.05503 0.48133 0.78516 0.0
C283 C 0.99195 0.49619 0.86317 0.0
H284 H 0.01157 0.43051 0.53985 0.0
H285 H 0.03077 0.40132 0.76053 0.0
H286 H 0.02446 0.58163 0.92618 0.0
H287 H 1.00511 0.60803 0.70216 0.0
H288 H 0.20088 0.95667 0.40093 0.0
H289 H 0.11526 0.02931 0.6781 0.0
H290 H 0.21903 0.02493 0.41753 0.0
H291 H 0.08796 0.981 0.54139 0.0
H292 H 0.15647 0.02521 0.60865 0.0
H293 H 0.16288 0.96207 0.48192 0.0
C294 C 0.19694 0.97284 0.4217 0.0
C295 C 0.21299 0.99054 0.40033 0.0
C296 C 0.14135 0.01561 0.59415 0.0
C297 C 0.16942 0.99664 0.49525 0.0
C298 C 0.11791 0.01788 0.6337 0.0
C299 C 0.09809 1.00555 0.61531 0.0
C300 C 0.14501 1.00044 0.53767 0.0
C301 C 0.10257 0.99098 0.55727 0.0
C302 C 0.17522 0.97585 0.46819 0.0
C303 C 0.20718 0.01085 0.43195 0.0
N304 N 0.1255 0.9887 0.52125 0.0
N305 N 0.18574 0.01342 0.47751 0.0
H306 H 0.58917 0.21896 0.34766 0.0
H307 H 0.50233 0.14274 0.65031 0.0
H308 H 0.51351 0.23719 0.41144 0.0
H309 H 0.56712 0.11924 0.51955 0.0
H310 H 0.50896 0.18011 0.58472 0.0
H311 H 0.58426 0.1852 0.43332 0.0
C312 C 0.5715 0.2159 0.37988 0.0
C313 C 0.55157 0.23077 0.37099 0.0
C314 C 0.52178 0.16677 0.57101 0.0
C315 C 0.54591 0.19205 0.47028 0.0
C316 C 0.51808 0.14555 0.60857 0.0
C317 C 0.53413 0.12795 0.58974 0.0
C318 C 0.54191 0.17034 0.51552 0.0
C319 C 0.55421 0.13234 0.53511 0.0
C320 C 0.56874 0.19662 0.429 0.0
C321 C 0.52935 0.22619 0.41626 0.0
N322 N 0.55751 0.15305 0.50002 0.0
N323 N 0.52703 0.2071 0.46351 0.0
H324 H 0.31368 0.49468 0.29486 0.0
H325 H 0.39119 0.54655 0.60052 0.0
H326 H 0.32207 0.56498 0.30439 0.0
H327 H 0.40156 0.47953 0.53681 0.0
H328 H 0.35866 0.55228 0.51239 0.0
H329 H 0.33923 0.48776 0.40265 0.0
C330 C 0.32073 0.50865 0.32013 0.0
C331 C 0.31593 0.53043 0.29032 0.0
C332 C 0.36784 0.53623 0.51857 0.0
C333 C 0.34502 0.52266 0.41369 0.0
C334 C 0.38618 0.5329 0.56932 0.0
C335 C 0.39905 0.51258 0.57553 0.0
C336 C 0.36223 0.51902 0.47452 0.0
C337 C 0.39212 0.49549 0.53317 0.0
C338 C 0.33535 0.5047 0.38139 0.0
C339 C 0.32563 0.54793 0.32495 0.0
N340 N 0.37426 0.49912 0.48419 0.0
N341 N 0.33973 0.54368 0.38477 0.0
H342 H 0.98132 0.31107 0.37236 0.0
H343 H 0.05424 0.37816 0.6516 0.0
H344 H 0.05521 0.29338 0.42668 0.0
H345 H 0.98326 0.39744 0.57541 0.0
H346 H 0.05295 0.34388 0.58635 0.0
H347 H 0.97977 0.33958 0.46268 0.0
C348 C 0.99723 0.31317 0.40359 0.0
C349 C 0.01857 0.30006 0.39107 0.0
C350 C 0.03755 0.35551 0.58473 0.0
C351 C 0.01695 0.3328 0.49507 0.0
C352 C 0.03823 0.37497 0.62231 0.0
C353 C 0.01895 0.39072 0.61805 0.0
C354 C 0.01738 0.35181 0.54323 0.0
C355 C 0.99867 0.38588 0.57909 0.0
C356 C 0.99631 0.32942 0.45542 0.0
C357 C 0.03841 0.30317 0.43451 0.0
N358 N 0.9985 0.36698 0.54288 0.0
N359 N 0.03724 0.31941 0.48399 0.0
H360 H 0.85832 0.98895 0.15947 0.0
H361 H 0.93356 0.99185 0.74531 0.0
H362 H 0.82289 0.984 0.95207 0.0
H363 H 0.96435 0.00919 0.94977 0.0
H364 H 0.89293 0.98912 0.81794 0.0
H365 H 0.89711 0.9971 0.08212 0.0
C366 C 0.8587 0.98988 0.09737 0.0
C367 C 0.8374 0.9858 0.06206 0.0
C368 C 0.90856 0.99364 0.8467 0.0
C369 C 0.88197 0.9947 0.97269 0.0
C370 C 0.9318 0.99514 0.80535 0.0
C371 C 0.95252 1.00064 0.84148 0.0
C372 C 0.90599 0.99751 0.925 0.0
C373 C 0.94902 1.00481 0.91939 0.0
C374 C 0.88086 0.99449 0.05315 0.0
C375 C 0.83889 0.98719 0.98141 0.0
N376 N 0.92633 1.00303 0.95843 0.0
N377 N 0.86088 0.99126 0.93938 0.0
H378 H 0.52185 0.78435 0.08909 0.0
H379 H 0.56035 0.88141 0.76248 0.0
H380 H 0.59081 0.78516 0.94732 0.0
H381 H 0.5021 0.88874 0.9429 0.0
H382 H 0.56745 0.84327 0.81522 0.0
H383 H 0.51016 0.81978 0.02175 0.0
C384 C 0.53436 0.79184 0.0431 0.0
C385 C 0.55741 0.78192 0.02415 0.0
C386 C 0.553 0.85318 0.84297 0.0
C387 C 0.54423 0.82237 0.94709 0.0
C388 C 0.54882 0.87491 0.81256 0.0
C389 C 0.5307 0.88836 0.84858 0.0
C390 C 0.53884 0.84471 0.90961 0.0
C391 C 0.51649 0.87907 0.9139 0.0
C392 C 0.52777 0.8121 0.00507 0.0
C393 C 0.573 0.7924 0.96442 0.0
N394 N 0.52089 0.85786 0.94241 0.0
N395 N 0.56617 0.81205 0.9282 0.0
H396 H 0.72763 0.50759 0.17341 0.0
H397 H 0.65339 0.54484 0.80812 0.0
H398 H 0.73135 0.57302 0.05479 0.0
H399 H 0.63594 0.48723 0.96398 0.0
H400 H 0.68774 0.55223 0.8829 0.0
H401 H 0.69936 0.49695 0.08278 0.0
C402 C 0.72266 0.51965 0.12788 0.0
C403 C 0.73168 0.54127 0.122 0.0
C404 C 0.67655 0.53784 0.90017 0.0
C405 C 0.69939 0.52923 0.01809 0.0
C406 C 0.65712 0.53352 0.85715 0.0
C407 C 0.64176 0.51549 0.88032 0.0
C408 C 0.68073 0.52391 0.96629 0.0
C409 C 0.64722 0.50144 0.94474 0.0
C410 C 0.70646 0.51361 0.07637 0.0
C411 C 0.72451 0.55628 0.06212 0.0
N412 N 0.66617 0.506 0.98568 0.0
N413 N 0.70876 0.55 0.01257 0.0
H414 H 0.94497 0.69656 0.09741 0.0
H415 H 0.02378 0.6404 0.75494 0.0
H416 H 0.9906 0.73466 0.92239 0.0
H417 H 0.98779 0.60416 0.95523 0.0
H418 H 1.01112 0.67526 0.81076 0.0
H419 H 0.95992 0.66264 0.04218 0.0
C420 C 0.95815 0.69776 0.04713 0.0
C421 C 0.96641 0.71847 0.01409 0.0
C422 C 1.00616 0.65964 0.84251 0.0
C423 C 0.98375 0.67955 0.95024 0.0
C424 C 0.01325 0.63977 0.81054 0.0
C425 C 1.00699 0.61931 0.85068 0.0
C426 C 0.99246 0.65901 0.91464 0.0
C427 C 0.99342 0.61949 0.9227 0.0
C428 C 0.96679 0.67837 0.01575 0.0
C429 C 0.98383 0.719 0.94973 0.0
N430 N 0.98658 0.63895 0.95206 0.0
N431 N 0.9918 0.69982 0.91945 0.0
H432 H 0.99362 0.17312 0.3935 0.0
H433 H 0.99265 0.06205 0.52544 0.0
H434 H 0.06068 0.17152 0.50577 0.0
H435 H 0.02918 0.08196 0.71623 0.0
H436 H 0.99199 0.10085 0.4723 0.0
H437 H 0.98081 0.13894 0.47078 0.0
C438 C 1.00513 0.166 0.43683 0.0
C439 C 0.0281 0.17507 0.44417 0.0
C440 C 0.99954 0.09676 0.52684 0.0
C441 C 0.01424 0.13576 0.5296 0.0
C442 C 1.00015 0.07459 0.55669 0.0
C443 C 1.01118 0.06871 0.6249 0.0
C444 C 1.01026 0.11301 0.56525 0.0
C445 C 0.02063 0.08565 0.66314 0.0
C446 C 0.99809 0.14631 0.47957 0.0
C447 C 0.04273 0.16507 0.49939 0.0
N448 N 0.02036 0.10694 0.63205 0.0
N449 N 0.03563 0.14578 0.53974 0.0
H450 H 0.35334 0.97269 0.43789 0.0
H451 H 0.46043 0.0408 0.5806 0.0
H452 H 0.35317 0.04379 0.43797 0.0
H453 H 0.45757 0.96942 0.6161 0.0
H454 H 0.41986 0.04158 0.53405 0.0
H455 H 0.38872 0.97034 0.51541 0.0
C456 C 0.36006 0.98772 0.45742 0.0
C457 C 0.35033 0.00846 0.4323 0.0
C458 C 0.428 0.0257 0.55205 0.0
C459 C 0.39128 1.00604 0.51738 0.0
C460 C 0.45137 0.02521 0.57801 0.0
C461 C 0.46258 1.00498 0.6019 0.0
C462 C 0.41562 1.00581 0.54909 0.0
C463 C 0.44972 0.98538 0.59767 0.0
C464 C 0.3805 0.98642 0.50045 0.0
C465 C 0.36007 0.0275 0.45699 0.0
N466 N 0.42693 0.98627 0.57145 0.0
N467 N 0.38026 0.02586 0.49706 0.0
H468 H 0.57283 0.36067 0.38951 0.0
H469 H 0.49466 0.44458 0.64 0.0
H470 H 0.49695 0.3519 0.47593 0.0
H471 H 0.57342 0.4503 0.59153 0.0
H472 H 0.49683 0.40873 0.58886 0.0
H473 H 0.57568 0.39046 0.47479 0.0
C474 C 0.55712 0.36441 0.42906 0.0
C475 C 0.53468 0.35383 0.42668 0.0
C476 C 0.51375 0.41766 0.58946 0.0
C477 C 0.53743 0.38822 0.52144 0.0
C478 C 0.51251 0.43835 0.61812 0.0
C479 C 0.53388 0.4507 0.61904 0.0
C480 C 0.53649 0.40913 0.56005 0.0
C481 C 0.55647 0.44143 0.59113 0.0
C482 C 0.55864 0.38157 0.4769 0.0
C483 C 0.51461 0.35958 0.47699 0.0
N484 N 0.55716 0.42125 0.5618 0.0
N485 N 0.51636 0.3766 0.52153 0.0
H486 H 0.17405 0.473 0.29964 0.0
H487 H 0.08428 0.54935 0.55632 0.0
H488 H 0.18588 0.54289 0.30634 0.0
H489 H 0.06815 0.48303 0.50546 0.0
H490 H 0.12266 0.54764 0.47192 0.0
H491 H 0.13744 0.47594 0.38934 0.0
C492 C 0.16913 0.48889 0.32141 0.0
C493 C 0.18283 0.50774 0.29562 0.0
C494 C 0.11055 0.53359 0.47887 0.0
C495 C 0.14067 0.51144 0.39657 0.0
C496 C 0.08854 0.53464 0.52625 0.0
C497 C 0.07307 0.51627 0.53812 0.0
C498 C 0.11703 0.51399 0.44381 0.0
C499 C 0.0796 0.49754 0.49842 0.0
C500 C 0.14811 0.49065 0.3719 0.0
C501 C 0.1758 0.52796 0.32544 0.0
N502 N 0.10115 0.49683 0.45366 0.0
N503 N 0.15497 0.52936 0.37393 0.0
H504 H 0.05346 0.8407 0.07669 0.0
H505 H 0.02596 0.92783 0.72723 0.0
H506 H 0.9959 0.83396 0.92758 0.0
H507 H 0.05544 0.94608 0.93299 0.0
H508 H 0.02727 0.88912 0.7768 0.0
H509 H 0.06686 0.87437 -0.00193 0.0
C510 C 0.04413 0.84588 0.02599 0.0
C511 C 0.02301 0.83488 0.01007 0.0
C512 C 0.03376 0.90156 0.81061 0.0
C513 C 0.03848 0.87307 0.91988 0.0
C514 C 0.03297 0.92374 0.78266 0.0
C515 C 0.04013 0.94037 0.82689 0.0
C516 C 0.04192 0.89581 0.88313 0.0
C517 C 0.04941 0.93386 0.89755 0.0
C518 C 0.05173 0.86514 0.98161 0.0
C519 C 0.01208 0.84197 0.94261 0.0
N520 N 0.04981 0.91203 0.92397 0.0
N521 N 0.01967 0.86088 0.90074 0.0
H522 H 0.69158 0.04741 0.03038 0.0
H523 H 0.59178 0.97757 0.86135 0.0
H524 H 0.70102 0.9781 -0.0052 0.0
H525 H 0.58951 0.04914 0.84475 0.0
H526 H 0.63256 0.978 0.90698 0.0
H527 H 0.6564 0.04949 0.95265 0.0
C528 C 0.68684 0.03287 0.00333 0.0
C529 C 0.69916 0.01256 0.01874 0.0
C530 C 0.62322 0.99364 0.8932 0.0
C531 C 0.65838 0.01452 0.93301 0.0
C532 C 0.59975 0.99341 0.86797 0.0
C533 C 0.58704 0.01337 0.8498 0.0
C534 C 0.63411 0.01395 0.90125 0.0
C535 C 0.59853 0.03336 0.85869 0.0
C536 C 0.66656 0.03397 0.95992 0.0
C537 C 0.69211 0.99409 0.98368 0.0
N538 N 0.62136 0.03314 0.88423 0.0
N539 N 0.67183 0.99539 0.9438 0.0
H540 H 0.54641 0.66957 0.95982 0.0
H541 H 0.46674 0.5668 0.87585 0.0
H542 H 0.47655 0.65409 0.08656 0.0
H543 H 0.54527 0.57326 0.8237 0.0
H544 H 0.46524 0.60365 0.92634 0.0
H545 H 0.54013 0.64045 0.87611 0.0
C546 C 0.5293 0.66061 0.96826 0.0
C547 C 0.51216 0.66397 0.03098 0.0
C548 C 0.4827 0.59693 0.90325 0.0
C549 C 0.50524 0.63015 0.93711 0.0
C550 C 0.48358 0.57594 0.87498 0.0
C551 C 0.50621 0.5668 0.84693 0.0
C552 C 0.50451 0.60892 0.90157 0.0
C553 C 0.52747 0.57942 0.84613 0.0
C554 C 0.52589 0.64375 0.92118 0.0
C555 C 0.49039 0.65171 0.03947 0.0
N556 N 0.52607 0.59976 0.87295 0.0
N557 N 0.48775 0.63498 -0.00595 0.0
H558 H 0.86851 0.46709 0.20729 0.0
H559 H 0.97103 0.53008 0.93924 0.0
H560 H 0.8573 0.53224 0.09425 0.0
H561 H 0.96525 0.45959 0.92389 0.0
H562 H 0.93223 0.52984 0.01898 0.0
H563 H 0.90562 0.46221 0.1187 0.0
C564 C 0.87348 0.48006 0.16244 0.0
C565 C 0.85991 0.50012 0.15799 0.0
C566 C 0.9395 0.5144 -0.00163 0.0
C567 C 0.90235 0.49494 0.05942 0.0
C568 C 0.96181 0.51443 0.9535 0.0
C569 C 0.97131 0.49483 0.92401 0.0
C570 C 0.92666 0.49461 0.01522 0.0
C571 C 0.95852 0.47507 0.94527 0.0
C572 C 0.89461 0.4773 0.11244 0.0
C573 C 0.8671 0.51647 0.09934 0.0
N574 N 0.93668 0.47543 -0.01022 0.0
N575 N 0.88812 0.5137 0.05336 0.0
H576 H 0.10011 0.16282 0.23534 0.0
H577 H 0.0221 0.08312 0.06254 0.0
H578 H 0.03657 0.18798 0.1243 0.0
H579 H 0.09663 0.08444 0.95461 0.0
H580 H 0.02907 0.11796 0.11595 0.0
H581 H 0.10266 0.1314 0.1544 0.0
C582 C 0.08741 0.16223 0.19157 0.0
C583 C 0.06811 0.17798 0.1862 0.0
C584 C 0.04386 0.11053 0.08056 0.0
C585 C 0.07035 0.14195 0.09694 0.0
C586 C 0.03996 0.09066 0.04991 0.0
C587 C 0.05858 0.081 0.00203 0.0
C588 C 0.06676 0.12063 0.06556 0.0
C589 C 0.0817 0.09124 -0.00903 0.0
C590 C 0.08879 0.14429 0.14604 0.0
C591 C 0.05182 0.17631 0.12975 0.0
N592 N 0.08521 0.11058 0.0227 0.0
N593 N 0.05282 0.1582 0.08896 0.0
H594 H 0.37019 0.05265 0.17705 0.0
H595 H 0.45936 0.98104 0.90807 0.0
H596 H 0.35122 0.98863 0.11244 0.0
H597 H 0.4666 0.05193 0.90544 0.0
H598 H 0.42075 0.9835 0.98892 0.0
H599 H 0.4056 0.05336 0.07987 0.0
C600 C 0.37313 0.03903 0.14085 0.0
C601 C 0.35774 0.02058 0.15248 0.0
C602 C 0.43074 0.99854 0.97065 0.0
C603 C 0.3986 0.02092 0.04335 0.0
C604 C 0.45297 0.99714 0.92507 0.0
C605 C 0.46639 0.01632 0.90013 0.0
C606 C 0.42185 0.01922 -0.00737 0.0
C607 C 0.45695 0.03671 0.92357 0.0
C608 C 0.39341 0.03937 0.08585 0.0
C609 C 0.36248 1.00326 0.10474 0.0
N610 N 0.43532 0.03762 0.9689 0.0
N611 N 0.38272 1.00368 0.05318 0.0
H612 H 0.54121 0.35169 0.08567 0.0
H613 H 0.46678 0.46055 0.94182 0.0
H614 H 0.47836 0.37598 0.22392 0.0
H615 H 0.54485 0.44917 0.89119 0.0
H616 H 0.46514 0.42567 0.02623 0.0
H617 H 0.53594 0.38265 0.98924 0.0
C618 C 0.52585 0.36316 0.09468 0.0
C619 C 0.51032 0.36137 0.16313 0.0
C620 C 0.48253 0.43096 -0.00368 0.0
C621 C 0.50449 0.39707 0.05379 0.0
C622 C 0.48351 0.45082 0.94862 0.0
C623 C 0.50602 0.45793 0.91011 0.0
C624 C 0.50408 0.41796 0.00342 0.0
C625 C 0.52712 0.44458 0.92035 0.0
C626 C 0.52304 0.38098 0.04013 0.0
C627 C 0.49088 0.37694 0.17216 0.0
N628 N 0.52558 0.42526 0.96544 0.0
N629 N 0.48863 0.39432 0.11841 0.0
H630 H 0.18891 0.46252 0.06 0.0
H631 H 0.09548 0.53267 0.81637 0.0
H632 H 0.20086 0.53022 0.97007 0.0
H633 H 0.091 0.46152 0.85821 0.0
H634 H 0.13605 0.53099 0.86347 0.0
H635 H 0.15655 0.46001 0.97341 0.0
C636 C 0.18538 0.47655 0.01955 0.0
C637 C 0.19741 0.49665 0.02226 0.0
C638 C 0.12635 0.51569 0.86195 0.0
C639 C 0.15985 0.49423 0.92555 0.0
C640 C 0.10299 0.51664 0.83578 0.0
C641 C 0.08961 0.49722 0.83442 0.0
C642 C 0.13644 0.49518 0.88825 0.0
C643 C 0.10056 0.47692 0.85904 0.0
C644 C 0.16673 0.47521 0.97081 0.0
C645 C 0.19205 0.51442 0.9695 0.0
N646 N 0.12325 0.47646 0.88589 0.0
N647 N 0.17325 0.51297 0.92454 0.0
H648 H 0.02091 0.82432 0.30659 0.0
H649 H 0.95372 0.9237 0.50991 0.0
H650 H 0.94686 0.84139 0.25341 0.0
H651 H 0.02722 0.92588 0.39451 0.0
H652 H 0.94744 0.88857 0.45353 0.0
H653 H 0.01961 0.85489 0.38945 0.0
C654 C 1.00398 0.83392 0.31526 0.0
C655 C 0.98402 0.83051 0.27311 0.0
C656 C 0.96486 0.8969 0.44108 0.0
C657 C 0.98263 0.86566 0.36577 0.0
C658 C 0.96841 0.91702 0.47228 0.0
C659 C 0.99123 0.92764 0.45811 0.0
C660 C 0.98445 0.88728 0.39727 0.0
C661 C 1.00961 0.91805 0.40926 0.0
C662 C 1.00336 0.85149 0.36151 0.0
C663 C 0.96256 0.84354 0.28542 0.0
N664 N 1.00595 0.89831 0.3817 0.0
N665 N 0.96254 0.86095 0.32977 0.0
H666 H 0.6849 0.04022 0.28522 0.0
H667 H 0.58995 0.96687 0.57156 0.0
H668 H 0.69333 0.96942 0.32781 0.0
H669 H 0.58248 0.0375 0.51765 0.0
H670 H 0.62883 0.96712 0.48879 0.0
H671 H 0.64946 0.03955 0.38117 0.0
C672 C 0.6796 0.0246 0.31645 0.0
C673 C 0.69207 1.00487 0.29897 0.0
C674 C 0.61861 0.98253 0.49508 0.0
C675 C 0.65093 1.00377 0.40716 0.0
C676 C 0.59631 0.98237 0.54177 0.0
C677 C 0.58282 1.00217 0.55144 0.0
C678 C 0.62749 1.00265 0.45797 0.0
C679 C 0.59214 0.0218 0.512 0.0
C680 C 0.6592 0.02415 0.37062 0.0
C681 C 0.68434 0.98501 0.34038 0.0
N682 N 0.61382 0.02152 0.46733 0.0
N683 N 0.66404 0.98491 0.39195 0.0
H684 H 0.57151 0.65571 0.298 0.0
H685 H 0.49567 0.55587 0.5222 0.0
H686 H 0.49238 0.65151 0.317 0.0
H687 H 0.57099 0.56674 0.56448 0.0
H688 H 0.49593 0.59006 0.4394 0.0
H689 H 0.57317 0.62365 0.39389 0.0
C690 C 0.55448 0.64845 0.32407 0.0
C691 C 0.53176 0.65615 0.29944 0.0
C692 C 0.51246 0.58505 0.46659 0.0
C693 C 0.53357 0.61926 0.4066 0.0
C694 C 0.51242 0.56534 0.51353 0.0
C695 C 0.53334 0.55838 0.55071 0.0
C696 C 0.53363 0.59803 0.45581 0.0
C697 C 0.55448 0.57144 0.53677 0.0
C698 C 0.55546 0.63003 0.37801 0.0
C699 C 0.51027 0.64597 0.33405 0.0
N700 N 0.55409 0.59071 0.49036 0.0
N701 N 0.51173 0.62792 0.38497 0.0
H702 H 0.85331 0.55197 0.41274 0.0
H703 H 0.95108 0.47819 0.63548 0.0
H704 H 0.85103 0.48089 0.45471 0.0
H705 H 0.95342 0.54968 0.60806 0.0
H706 H 0.91142 0.47975 0.58294 0.0
H707 H 0.88568 0.55255 0.50095 0.0
C708 C 0.85894 0.5366 0.44308 0.0
C709 C 0.84959 0.51634 0.42672 0.0
C710 C 0.92045 0.49516 0.58857 0.0
C711 C 0.88701 0.51675 0.52511 0.0
C712 C 0.94328 0.49429 0.61817 0.0
C713 C 0.95581 0.51385 0.6253 0.0
C714 C 0.90998 0.51574 0.56484 0.0
C715 C 0.94451 0.53418 0.60287 0.0
C716 C 0.87764 0.53689 0.4925 0.0
C717 C 0.8578 0.49682 0.46605 0.0
N718 N 0.9223 0.5346 0.57288 0.0
N719 N 0.87629 0.49748 0.51248 0.0
loop_
_geom_bond_atom_site_label_1
_geom_bond_atom_site_label_2
_geom_bond_distance
_geom_bond_site_symmetry_2
_ccdc_geom_bond_type
H0 C1 0.949 . S
C1 H0 0.949 . S
C1 C2 1.395 . S
C1 C3 1.391 . S
C2 C1 1.395 . S
C2 C5 1.390 . S
C3 C1 1.391 . S
C3 C7 1.387 . S
C3 C8 1.491 . S
H4 C5 0.950 . S
C5 C2 1.390 . S
C5 H4 0.950 . S
C5 C6 1.378 . S
C6 C5 1.378 . S
C6 C7 1.409 . S
C7 C3 1.387 . S
C7 C6 1.409 . S
C7 H9 0.951 . S
C8 C3 1.491 . S
C8 C10 1.382 . S
C8 C12 1.404 . S
H9 C7 0.951 . S
C10 C8 1.382 . S
C10 C11 1.390 . S
C10 H15 0.949 . S
C11 C10 1.390 . S
C11 C16 1.399 . S
C12 C8 1.404 . S
C12 H13 0.950 . S
C12 C14 1.375 . S
H13 C12 0.950 . S
C14 C12 1.375 . S
C14 C16 1.382 . S
C14 H18 0.950 . S
H15 C10 0.949 . S
C16 C11 1.399 . S
C16 C14 1.382 . S
C16 H17 0.952 . S
H17 C16 0.952 . S
H18 C14 0.950 . S
H19 C20 0.949 . S
C20 H19 0.949 . S
C20 C21 1.395 . S
C20 C22 1.391 1_556 S
C21 C20 1.395 . S
C21 C24 1.390 1_556 S
C22 C20 1.391 1_554 S
C22 C26 1.387 . S
C22 C27 1.491 . S
H23 C24 0.950 . S
C24 C21 1.390 1_554 S
C24 H23 0.950 . S
C24 C25 1.378 . S
C25 C24 1.378 . S
C25 C26 1.409 . S
C26 C22 1.387 . S
C26 C25 1.409 . S
C26 H28 0.951 . S
C27 C22 1.491 . S
C27 C29 1.382 1_554 S
C27 C31 1.404 . S
H28 C26 0.951 . S
C29 C27 1.382 1_556 S
C29 C30 1.390 . S
C29 H34 0.968 . S
C30 C29 1.390 . S
C30 C35 1.399 1_556 S
C31 C27 1.404 . S
C31 H32 0.950 . S
C31 C33 1.375 . S
H32 C31 0.950 . S
C33 C31 1.375 . S
C33 C35 1.382 . S
C33 H37 0.950 . S
H34 C29 0.968 . S
C35 C30 1.399 1_554 S
C35 C33 1.382 . S
C35 H36 0.952 . S
H36 C35 0.952 . S
H37 C33 0.950 . S
H38 C39 0.949 1_556 S
C39 H38 0.949 1_554 S
C39 C40 1.395 . S
C39 C41 1.391 . S
C40 C39 1.395 . S
C40 C43 1.390 . S
C41 C39 1.391 . S
C41 C45 1.387 . S
C41 C46 1.491 . S
H42 C43 0.950 . S
C43 C40 1.390 . S
C43 H42 0.950 . S
C43 C44 1.378 . S
C44 C43 1.378 . S
C44 C45 1.409 . S
C45 C41 1.387 . S
C45 C44 1.409 . S
C45 H47 0.951 . S
C46 C41 1.491 . S
C46 C48 1.382 . S
C46 C50 1.404 . S
H47 C45 0.951 . S
C48 C46 1.382 . S
C48 C49 1.390 . S
C48 H53 0.949 1_565 S
C49 C48 1.390 . S
C49 C54 1.399 . S
C50 C46 1.404 . S
C50 H51 0.950 . S
C50 C52 1.375 . S
H51 C50 0.950 . S
C52 C50 1.375 . S
C52 C54 1.382 . S
C52 H56 0.950 . S
H53 C48 0.949 1_545 S
C54 C49 1.399 . S
C54 C52 1.382 . S
C54 H55 0.952 . S
H55 C54 0.952 . S
H56 C52 0.950 . S
H57 C58 0.949 . S
C58 H57 0.949 . S
C58 C59 1.395 . S
C58 C60 1.391 . S
C59 C58 1.395 . S
C59 C62 1.390 . S
C60 C58 1.391 . S
C60 C64 1.387 . S
C60 C65 1.491 . S
H61 C62 0.950 . S
C62 C59 1.390 . S
C62 H61 0.950 . S
C62 C63 1.378 . S
C63 C62 1.378 . S
C63 C64 1.409 . S
C64 C60 1.387 . S
C64 C63 1.409 . S
C64 H66 0.951 . S
C65 C60 1.491 . S
C65 C67 1.382 . S
C65 C69 1.404 . S
H66 C64 0.951 . S
C67 C65 1.382 . S
C67 C68 1.390 . S
C67 H72 0.949 . S
C68 C67 1.390 . S
C68 C73 1.399 . S
C69 C65 1.404 . S
C69 H70 0.950 . S
C69 C71 1.375 . S
H70 C69 0.950 . S
C71 C69 1.375 . S
C71 C73 1.382 . S
C71 H75 0.950 . S
H72 C67 0.949 . S
C73 C68 1.399 . S
C73 C71 1.382 . S
C73 H74 0.952 . S
H74 C73 0.952 . S
H75 C71 0.950 . S
H76 C77 0.949 . S
C77 H76 0.949 . S
C77 C78 1.395 . S
C77 C79 1.391 . S
C78 C77 1.395 . S
C78 C81 1.390 . S
C79 C77 1.391 . S
C79 C83 1.387 . S
C79 C84 1.491 . S
H80 C81 0.950 . S
C81 C78 1.390 . S
C81 H80 0.950 . S
C81 C82 1.378 . S
C82 C81 1.378 . S
C82 C83 1.409 . S
C83 C79 1.387 . S
C83 C82 1.409 . S
C83 H85 0.951 . S
C84 C79 1.491 . S
C84 C86 1.382 . S
C84 C88 1.404 . S
H85 C83 0.951 . S
C86 C84 1.382 . S
C86 C87 1.390 . S
C86 H91 0.949 . S
C87 C86 1.390 . S
C87 C92 1.399 . S
C88 C84 1.404 . S
C88 H89 0.950 . S
C88 C90 1.375 . S
H89 C88 0.950 . S
C90 C88 1.375 . S
C90 C92 1.382 . S
C90 H94 0.950 . S
H91 C86 0.949 . S
C92 C87 1.399 . S
C92 C90 1.382 . S
C92 H93 0.952 . S
H93 C92 0.952 . S
H94 C90 0.950 . S
H95 C96 0.949 . S
C96 H95 0.949 . S
C96 C97 1.395 . S
C96 C98 1.391 . S
C97 C96 1.395 . S
C97 C100 1.390 . S
C98 C96 1.391 . S
C98 C102 1.387 . S
C98 C103 1.491 . S
H99 C100 0.950 . S
C100 C97 1.390 . S
C100 H99 0.950 . S
C100 C101 1.378 . S
C101 C100 1.378 . S
C101 C102 1.409 . S
C102 C98 1.387 . S
C102 C101 1.409 . S
C102 H104 0.951 . S
C103 C98 1.491 . S
C103 C105 1.382 . S
C103 C107 1.404 . S
H104 C102 0.951 . S
C105 C103 1.382 . S
C105 C106 1.390 . S
C105 H110 0.949 . S
C106 C105 1.390 . S
C106 C111 1.399 . S
C107 C103 1.404 . S
C107 H108 0.928 1_455 S
C107 C109 1.375 . S
H108 C107 0.928 1_655 S
C109 C107 1.375 . S
C109 C111 1.382 . S
C109 H113 0.950 1_455 S
H110 C105 0.949 . S
C111 C106 1.399 . S
C111 C109 1.382 . S
C111 H112 0.952 . S
H112 C111 0.952 . S
H113 C109 0.950 1_655 S
H114 C115 0.949 . S
C115 H114 0.949 . S
C115 C116 1.395 . S
C115 C117 1.391 . S
C116 C115 1.395 . S
C116 C119 1.390 . S
C117 C115 1.391 . S
C117 C121 1.387 . S
C117 C122 1.492 1_545 S
H118 C119 0.950 . S
C119 C116 1.390 . S
C119 H118 0.950 . S
C119 C120 1.378 . S
C120 C119 1.378 . S
C120 C121 1.409 . S
C121 C117 1.387 . S
C121 C120 1.409 . S
C121 H123 0.951 . S
C122 C117 1.492 1_565 S
C122 C124 1.384 1_565 S
C122 C126 1.401 . S
H123 C121 0.951 . S
C124 C122 1.384 1_545 S
C124 C125 1.390 . S
C124 H129 0.949 . S
C125 C124 1.390 . S
C125 C130 1.399 1_545 S
C126 C122 1.401 . S
C126 H127 0.950 . S
C126 C128 1.375 . S
H127 C126 0.950 . S
C128 C126 1.375 . S
C128 C130 1.382 . S
C128 H132 0.950 . S
H129 C124 0.949 . S
C130 C125 1.399 1_565 S
C130 C128 1.382 . S
C130 H131 0.952 . S
H131 C130 0.952 . S
H132 C128 0.950 . S
H133 C134 0.949 . S
C134 H133 0.949 . S
C134 C135 1.395 . S
C134 C136 1.391 . S
C135 C134 1.395 . S
C135 C138 1.390 . S
C136 C134 1.391 . S
C136 C140 1.387 . S
C136 C141 1.491 . S
H137 C138 0.950 . S
C138 C135 1.390 . S
C138 H137 0.950 . S
C138 C139 1.378 . S
C139 C138 1.378 . S
C139 C140 1.409 . S
C140 C136 1.387 . S
C140 C139 1.409 . S
C140 H142 0.951 . S
C141 C136 1.491 . S
C141 C143 1.382 . S
C141 C145 1.404 . S
H142 C140 0.951 . S
C143 C141 1.382 . S
C143 C144 1.390 . S
C143 H148 0.949 . S
C144 C143 1.390 . S
C144 C149 1.399 . S
C145 C141 1.404 . S
C145 H146 0.950 . S
C145 C147 1.375 . S
H146 C145 0.950 . S
C147 C145 1.375 . S
C147 C149 1.382 . S
C147 H151 0.950 . S
H148 C143 0.949 . S
C149 C144 1.399 . S
C149 C147 1.382 . S
C149 H150 0.952 . S
H150 C149 0.952 . S
H151 C147 0.950 . S
C152 O168 1.251 . S
C152 O170 1.254 . S
N153 C154 1.333 . S
N153 C158 1.307 1_455 S
N153 Zn159 2.020 . S
C154 N153 1.333 . S
C154 C155 1.379 . S
C154 H172 0.952 . S
C155 C154 1.379 . S
C155 C156 1.390 1_455 S
C155 H182 0.949 . S
C156 C155 1.390 1_655 S
C156 C157 1.357 . S
C157 C156 1.357 . S
C157 C158 1.370 . S
C157 H183 0.950 . S
C158 N153 1.307 1_655 S
C158 C157 1.370 . S
C158 H176 0.948 . S
Zn159 N153 2.020 . S
Zn159 O168 2.039 . S
Zn159 O174 2.034 . S
Zn159 O178 2.025 1_565 S
Zn159 O180 2.024 1_455 S
C160 O179 1.246 . S
C160 O180 1.249 1_545 S
N161 C162 1.307 . S
N161 C163 1.333 . S
N161 Zn167 2.020 . S
C162 N161 1.307 . S
C162 C166 1.370 1_556 S
C162 H173 0.948 . S
C163 N161 1.333 . S
C163 C164 1.379 . S
C163 H171 0.952 . S
C164 C163 1.379 . S
C164 C165 1.390 1_556 S
C164 H184 0.949 . S
C165 C164 1.390 1_554 S
C165 C166 1.357 . S
C166 C162 1.370 1_554 S
C166 C165 1.357 . S
C166 H185 0.950 . S
Zn167 N161 2.020 . S
Zn167 O170 2.025 1_545 S
Zn167 O175 2.024 . S
Zn167 O177 2.039 . S
Zn167 O179 2.034 1_455 S
O168 C152 1.251 . S
O168 Zn159 2.039 . S
C169 O174 1.239 1_545 S
C169 O175 1.256 . S
O170 C152 1.254 . S
O170 Zn167 2.025 1_565 S
H171 C163 0.952 . S
H172 C154 0.952 . S
H173 C162 0.948 . S
O174 Zn159 2.034 . S
O174 C169 1.239 1_565 S
O175 Zn167 2.024 . S
O175 C169 1.256 . S
H176 C158 0.948 . S
O177 Zn167 2.039 . S
O177 C181 1.251 . S
O178 Zn159 2.025 1_545 S
O178 C181 1.254 . S
O179 C160 1.246 . S
O179 Zn167 2.034 1_655 S
O180 Zn159 2.024 1_655 S
O180 C160 1.249 1_565 S
C181 O177 1.251 . S
C181 O178 1.254 . S
H182 C155 0.949 . S
H183 C157 0.950 . S
H184 C164 0.949 . S
H185 C166 0.950 . S
C186 O202 1.260 . S
C186 O204 1.246 1_545 S
N187 C188 1.333 . S
N187 C192 1.307 . S
N187 Zn193 2.020 . S
C188 N187 1.333 . S
C188 C189 1.379 . S
C188 H206 0.952 . S
C189 C188 1.379 . S
C189 C190 1.390 . S
C189 H216 0.949 . S
C190 C189 1.390 . S
C190 C191 1.357 . S
C191 C190 1.357 . S
C191 C192 1.370 . S
C191 H217 0.950 . S
C192 N187 1.307 . S
C192 C191 1.370 . S
C192 H210 0.948 . S
Zn193 N187 2.020 . S
Zn193 O202 2.039 . S
Zn193 O208 2.034 . S
Zn193 O212 2.025 . S
Zn193 O214 2.024 . S
C194 O213 1.246 1_545 S
C194 O214 1.249 . S
N195 C196 1.307 . S
N195 C197 1.333 . S
N195 Zn201 2.020 . S
C196 N195 1.307 . S
C196 C200 1.370 . S
C196 H207 0.948 . S
C197 N195 1.333 . S
C197 C198 1.379 . S
C197 H205 0.952 . S
C198 C197 1.379 . S
C198 C199 1.390 . S
C198 H218 0.949 . S
C199 C198 1.390 . S
C199 C200 1.357 . S
C200 C196 1.370 . S
C200 C199 1.357 . S
C200 H219 0.950 . S
Zn201 N195 2.020 . S
Zn201 O204 2.025 . S
Zn201 O209 2.024 . S
Zn201 O211 2.039 . S
Zn201 O213 2.034 . S
O202 C186 1.260 . S
O202 Zn193 2.039 . S
C203 O208 1.246 1_565 S
C203 O209 1.249 . S
O204 C186 1.246 1_565 S
O204 Zn201 2.025 . S
H205 C197 0.952 . S
H206 C188 0.952 . S
H207 C196 0.948 . S
O208 Zn193 2.034 . S
O208 C203 1.246 1_545 S
O209 Zn201 2.024 . S
O209 C203 1.249 . S
H210 C192 0.948 . S
O211 Zn201 2.039 . S
O211 C215 1.251 1_565 S
O212 Zn193 2.025 . S
O212 C215 1.254 . S
O213 C194 1.246 1_565 S
O213 Zn201 2.034 . S
O214 Zn193 2.024 . S
O214 C194 1.249 . S
C215 O211 1.251 1_545 S
C215 O212 1.254 . S
H216 C189 0.949 . S
H217 C191 0.950 . S
H218 C198 0.949 . S
H219 C200 0.950 . S
C220 O236 1.251 . S
C220 O238 1.254 . S
N221 C222 1.333 . S
N221 C226 1.307 . S
N221 Zn227 2.020 . S
C222 N221 1.333 . S
C222 C223 1.379 . S
C222 H240 0.952 . S
C223 C222 1.379 . S
C223 C224 1.390 . S
C223 H250 0.949 . S
C224 C223 1.390 . S
C224 C225 1.357 . S
C225 C224 1.357 . S
C225 C226 1.370 . S
C225 H251 0.950 . S
C226 N221 1.307 . S
C226 C225 1.370 . S
C226 H244 0.948 . S
Zn227 N221 2.020 . S
Zn227 O236 2.039 . S
Zn227 O242 2.034 . S
Zn227 O246 2.025 . S
Zn227 O248 2.024 . S
C228 O247 1.246 . S
C228 O248 1.249 . S
N229 C230 1.307 . S
N229 C231 1.333 . S
N229 Zn235 2.020 . S
C230 N229 1.307 . S
C230 C234 1.370 . S
C230 H241 0.948 . S
C231 N229 1.333 . S
C231 C232 1.379 . S
C231 H239 0.952 . S
C232 C231 1.379 . S
C232 C233 1.390 . S
C232 H252 0.949 . S
C233 C232 1.390 . S
C233 C234 1.357 . S
C234 C230 1.370 . S
C234 C233 1.357 . S
C234 H253 0.950 . S
Zn235 N229 2.020 . S
Zn235 O238 2.025 . S
Zn235 O243 2.024 . S
Zn235 O245 2.039 . S
Zn235 O247 2.034 . S
O236 C220 1.251 . S
O236 Zn227 2.039 . S
C237 O242 1.246 . S
C237 O243 1.249 . S
O238 C220 1.254 . S
O238 Zn235 2.025 . S
H239 C231 0.952 . S
H240 C222 0.952 . S
H241 C230 0.948 . S
O242 Zn227 2.034 . S
O242 C237 1.246 . S
O243 Zn235 2.024 . S
O243 C237 1.249 . S
H244 C226 0.948 . S
O245 Zn235 2.039 . S
O245 C249 1.251 . S
O246 Zn227 2.025 . S
O246 C249 1.254 . S
O247 C228 1.246 . S
O247 Zn235 2.034 . S
O248 Zn227 2.024 . S
O248 C228 1.249 . S
C249 O245 1.251 . S
C249 O246 1.254 . S
H250 C223 0.949 . S
H251 C225 0.950 . S
H252 C232 0.949 . S
H253 C234 0.950 . S
C254 O270 1.251 . S
C254 O272 1.254 . S
N255 C256 1.333 . S
N255 C260 1.307 . S
N255 Zn261 2.020 . S
C256 N255 1.333 . S
C256 C257 1.379 . S
C256 H274 0.952 . S
C257 C256 1.379 . S
C257 C258 1.390 . S
C257 H284 0.949 . S
C258 C257 1.390 . S
C258 C259 1.357 . S
C259 C258 1.357 . S
C259 C260 1.370 . S
C259 H285 0.949 1_455 S
C260 N255 1.307 . S
C260 C259 1.370 . S
C260 H278 0.948 1_455 S
Zn261 N255 2.020 . S
Zn261 O270 2.039 . S
Zn261 O276 2.034 1_455 S
Zn261 O280 2.025 1_455 S
Zn261 O282 2.024 . S
C262 O281 1.246 . S
C262 O282 1.249 . S
N263 C264 1.307 . S
N263 C265 1.333 . S
N263 Zn269 2.020 . S
C264 N263 1.307 . S
C264 C268 1.370 . S
C264 H275 0.948 . S
C265 N263 1.333 . S
C265 C266 1.380 . S
C265 H273 0.952 1_455 S
C266 C265 1.380 . S
C266 C267 1.390 . S
C266 H286 0.948 1_455 S
C267 C266 1.390 . S
C267 C268 1.357 . S
C268 C264 1.370 . S
C268 C267 1.357 . S
C268 H287 0.950 . S
Zn269 N263 2.020 . S
Zn269 O272 2.025 . S
Zn269 O277 2.024 1_455 S
Zn269 O279 2.039 1_455 S
Zn269 O281 2.034 . S
O270 C254 1.251 . S
O270 Zn261 2.039 . S
C271 O276 1.246 . S
C271 O277 1.249 . S
O272 C254 1.254 . S
O272 Zn269 2.025 . S
H273 C265 0.952 1_655 S
H274 C256 0.952 . S
H275 C264 0.948 . S
O276 Zn261 2.034 1_655 S
O276 C271 1.246 . S
O277 Zn269 2.024 1_655 S
O277 C271 1.249 . S
H278 C260 0.948 1_655 S
O279 Zn269 2.039 1_655 S
O279 C283 1.251 . S
O280 Zn261 2.025 1_655 S
O280 C283 1.254 . S
O281 C262 1.246 . S
O281 Zn269 2.034 . S
O282 Zn261 2.024 . S
O282 C262 1.249 . S
C283 O279 1.251 . S
C283 O280 1.254 . S
H284 C257 0.949 . S
H285 C259 0.949 1_655 S
H286 C266 0.948 1_655 S
H287 C268 0.950 . S
H288 C294 0.930 . S
H289 C298 0.930 . S
H290 C303 0.929 . S
H291 C301 0.929 . S
H292 C296 0.929 . S
H293 C302 0.929 . S
C294 H288 0.930 . S
C294 C295 1.367 1_565 S
C294 C302 1.378 . S
C295 C294 1.367 1_545 S
C295 C303 1.433 . S
C296 H292 0.929 . S
C296 C298 1.378 . S
C296 C300 1.350 . S
C297 C300 1.463 . S
C297 C302 1.350 1_545 S
C297 N305 1.427 . S
C298 H289 0.930 . S
C298 C296 1.378 . S
C298 C299 1.367 . S
C299 C298 1.367 . S
C299 C301 1.433 1_545 S
C300 C296 1.350 . S
C300 C297 1.463 . S
C300 N304 1.427 1_545 S
C301 H291 0.929 . S
C301 C299 1.433 1_565 S
C301 N304 1.384 . S
C302 H293 0.929 . S
C302 C294 1.378 . S
C302 C297 1.350 1_565 S
C303 H290 0.929 . S
C303 C295 1.433 . S
C303 N305 1.384 . S
N304 C300 1.427 1_565 S
N304 C301 1.384 . S
N305 C297 1.427 . S
N305 C303 1.384 . S
H306 C312 0.930 . S
H307 C316 0.930 . S
H308 C321 0.929 . S
H309 C319 0.929 . S
H310 C314 0.929 . S
H311 C320 0.929 . S
C312 H306 0.930 . S
C312 C313 1.367 . S
C312 C320 1.378 . S
C313 C312 1.367 . S
C313 C321 1.433 . S
C314 H310 0.929 . S
C314 C316 1.378 . S
C314 C318 1.350 . S
C315 C318 1.463 . S
C315 C320 1.350 . S
C315 N323 1.427 . S
C316 H307 0.930 . S
C316 C314 1.378 . S
C316 C317 1.367 . S
C317 C316 1.367 . S
C317 C319 1.433 . S
C318 C314 1.350 . S
C318 C315 1.463 . S
C318 N322 1.427 . S
C319 H309 0.929 . S
C319 C317 1.433 . S
C319 N322 1.384 . S
C320 H311 0.929 . S
C320 C312 1.378 . S
C320 C315 1.350 . S
C321 H308 0.929 . S
C321 C313 1.433 . S
C321 N323 1.384 . S
N322 C318 1.427 . S
N322 C319 1.384 . S
N323 C315 1.427 . S
N323 C321 1.384 . S
H324 C330 0.930 . S
H325 C334 0.930 . S
H326 C339 0.929 . S
H327 C337 0.929 . S
H328 C332 0.929 . S
H329 C338 0.929 . S
C330 H324 0.930 . S
C330 C331 1.367 . S
C330 C338 1.378 . S
C331 C330 1.367 . S
C331 C339 1.433 . S
C332 H328 0.929 . S
C332 C334 1.378 . S
C332 C336 1.350 . S
C333 C336 1.463 . S
C333 C338 1.350 . S
C333 N341 1.427 . S
C334 H325 0.930 . S
C334 C332 1.378 . S
C334 C335 1.367 . S
C335 C334 1.367 . S
C335 C337 1.433 . S
C336 C332 1.350 . S
C336 C333 1.463 . S
C336 N340 1.427 . S
C337 H327 0.929 . S
C337 C335 1.433 . S
C337 N340 1.384 . S
C338 H329 0.929 . S
C338 C330 1.378 . S
C338 C333 1.350 . S
C339 H326 0.929 . S
C339 C331 1.433 . S
C339 N341 1.384 . S
N340 C336 1.427 . S
N340 C337 1.384 . S
N341 C333 1.427 . S
N341 C339 1.384 . S
H342 C348 0.930 . S
H343 C352 0.930 . S
H344 C357 0.929 . S
H345 C355 0.929 1_655 S
H346 C350 0.929 . S
H347 C356 0.929 . S
C348 H342 0.930 . S
C348 C349 1.367 . S
C348 C356 1.378 . S
C349 C348 1.367 . S
C349 C357 1.433 . S
C350 H346 0.929 . S
C350 C352 1.378 . S
C350 C354 1.350 . S
C351 C354 1.463 . S
C351 C356 1.350 . S
C351 N359 1.427 . S
C352 H343 0.930 . S
C352 C350 1.378 . S
C352 C353 1.367 . S
C353 C352 1.367 . S
C353 C355 1.433 . S
C354 C350 1.350 . S
C354 C351 1.463 . S
C354 N358 1.427 . S
C355 H345 0.929 1_455 S
C355 C353 1.433 . S
C355 N358 1.384 . S
C356 H347 0.929 . S
C356 C348 1.378 . S
C356 C351 1.350 . S
C357 H344 0.929 . S
C357 C349 1.433 . S
C357 N359 1.384 . S
N358 C354 1.427 . S
N358 C355 1.384 . S
N359 C351 1.427 . S
N359 C357 1.384 . S
H360 C366 0.930 . S
H361 C370 0.930 . S
H362 C375 0.929 1_554 S
H363 C373 0.929 . S
H364 C368 0.929 . S
H365 C374 0.929 . S
C366 H360 0.930 . S
C366 C367 1.367 1_545 S
C366 C374 1.378 . S
C367 C366 1.367 1_565 S
C367 C375 1.433 . S
C368 H364 0.929 . S
C368 C370 1.378 . S
C368 C372 1.350 . S
C369 C372 1.463 . S
C369 C374 1.350 1_565 S
C369 N377 1.427 . S
C370 H361 0.930 . S
C370 C368 1.378 . S
C370 C371 1.352 1_565 S
C371 C370 1.352 1_545 S
C371 C373 1.447 . S
C372 C368 1.350 . S
C372 C369 1.463 . S
C372 N376 1.427 1_565 S
C373 H363 0.929 . S
C373 C371 1.447 . S
C373 N376 1.384 . S
C374 H365 0.929 . S
C374 C366 1.378 . S
C374 C369 1.350 1_545 S
C375 H362 0.929 1_556 S
C375 C367 1.433 . S
C375 N377 1.384 . S
N376 C372 1.427 1_545 S
N376 C373 1.384 . S
N377 C369 1.427 . S
N377 C375 1.384 . S
H378 C384 0.930 . S
H379 C388 0.930 . S
H380 C393 0.929 . S
H381 C391 0.929 . S
H382 C386 0.929 . S
H383 C392 0.929 . S
C384 H378 0.930 . S
C384 C385 1.366 1_556 S
C384 C392 1.378 . S
C385 C384 1.366 1_554 S
C385 C393 1.433 . S
C386 H382 0.929 . S
C386 C388 1.378 . S
C386 C390 1.350 . S
C387 C390 1.463 . S
C387 C392 1.350 . S
C387 N395 1.427 . S
C388 H379 0.930 . S
C388 C386 1.378 . S
C388 C389 1.367 . S
C389 C388 1.367 . S
C389 C391 1.433 . S
C390 C386 1.350 . S
C390 C387 1.463 . S
C390 N394 1.427 . S
C391 H381 0.929 . S
C391 C389 1.433 . S
C391 N394 1.384 . S
C392 H383 0.929 . S
C392 C384 1.378 . S
C392 C387 1.350 . S
C393 H380 0.929 . S
C393 C385 1.433 . S
C393 N395 1.384 1_554 S
N394 C390 1.427 . S
N394 C391 1.384 . S
N395 C387 1.427 . S
N395 C393 1.384 1_556 S
H396 C402 0.930 . S
H397 C406 0.930 . S
H398 C411 0.929 . S
H399 C409 0.929 . S
H400 C404 0.929 . S
H401 C410 0.929 . S
C402 H396 0.930 . S
C402 C403 1.367 . S
C402 C410 1.378 1_554 S
C403 C402 1.367 . S
C403 C411 1.433 . S
C404 H400 0.929 . S
C404 C406 1.378 . S
C404 C408 1.350 . S
C405 C408 1.463 . S
C405 C410 1.350 . S
C405 N413 1.427 1_556 S
C406 H397 0.930 . S
C406 C404 1.378 . S
C406 C407 1.367 . S
C407 C406 1.367 . S
C407 C409 1.433 . S
C408 C404 1.350 . S
C408 C405 1.463 . S
C408 N412 1.427 . S
C409 H399 0.929 . S
C409 C407 1.433 . S
C409 N412 1.384 . S
C410 H401 0.929 . S
C410 C402 1.378 1_556 S
C410 C405 1.350 . S
C411 H398 0.929 . S
C411 C403 1.433 . S
C411 N413 1.384 . S
N412 C408 1.427 . S
N412 C409 1.384 . S
N413 C405 1.427 1_554 S
N413 C411 1.384 . S
H414 C420 0.930 1_554 S
H415 C424 0.930 . S
H416 C429 0.929 . S
H417 C427 0.929 . S
H418 C422 0.929 . S
H419 C428 0.929 . S
C420 H414 0.930 1_556 S
C420 C421 1.367 . S
C420 C428 1.378 . S
C421 C420 1.367 . S
C421 C429 1.433 1_655 S
C422 H418 0.929 . S
C422 C424 1.378 . S
C422 C426 1.365 . S
C423 C426 1.459 1_655 S
C423 C428 1.350 . S
C423 N431 1.427 1_655 S
C424 H415 0.930 . S
C424 C422 1.378 . S
C424 C425 1.367 . S
C425 C424 1.367 . S
C425 C427 1.433 1_455 S
C426 C422 1.365 . S
C426 C423 1.459 1_455 S
C426 N430 1.415 1_455 S
C427 H417 0.929 . S
C427 C425 1.433 1_655 S
C427 N430 1.384 . S
C428 H419 0.929 . S
C428 C420 1.378 . S
C428 C423 1.350 . S
C429 H416 0.929 . S
C429 C421 1.433 1_455 S
C429 N431 1.384 . S
N430 C426 1.415 1_655 S
N430 C427 1.384 . S
N431 C423 1.427 1_455 S
N431 C429 1.384 . S
H432 C438 0.919 1_655 S
H433 C442 0.930 . S
H434 C447 0.929 . S
H435 C445 0.929 . S
H436 C440 0.929 . S
H437 C446 0.929 1_655 S
C438 H432 0.919 1_455 S
C438 C439 1.367 . S
C438 C446 1.378 . S
C439 C438 1.367 . S
C439 C447 1.433 . S
C440 H436 0.929 . S
C440 C442 1.378 . S
C440 C444 1.350 . S
C441 C444 1.463 . S
C441 C446 1.350 . S
C441 N449 1.427 . S
C442 H433 0.930 . S
C442 C440 1.378 . S
C442 C443 1.367 . S
C443 C442 1.367 . S
C443 C445 1.433 1_455 S
C444 C440 1.350 . S
C444 C441 1.463 . S
C444 N448 1.427 1_455 S
C445 H435 0.929 . S
C445 C443 1.433 1_655 S
C445 N448 1.384 . S
C446 H437 0.929 1_455 S
C446 C438 1.378 . S
C446 C441 1.350 . S
C447 H434 0.929 . S
C447 C439 1.433 . S
C447 N449 1.384 . S
N448 C444 1.427 1_655 S
N448 C445 1.384 . S
N449 C441 1.427 . S
N449 C447 1.384 . S
H450 C456 0.930 . S
H451 C460 0.930 . S
H452 C465 0.929 . S
H453 C463 0.929 . S
H454 C458 0.929 . S
H455 C464 0.929 . S
C456 H450 0.930 . S
C456 C457 1.367 . S
C456 C464 1.378 . S
C457 C456 1.367 . S
C457 C465 1.433 . S
C458 H454 0.929 . S
C458 C460 1.378 . S
C458 C462 1.350 . S
C459 C462 1.463 . S
C459 C464 1.350 . S
C459 N467 1.427 . S
C460 H451 0.930 . S
C460 C458 1.378 . S
C460 C461 1.375 . S
C461 C460 1.375 . S
C461 C463 1.427 1_545 S
C462 C458 1.350 . S
C462 C459 1.463 . S
C462 N466 1.430 . S
C463 H453 0.929 . S
C463 C461 1.427 1_565 S
C463 N466 1.383 1_565 S
C464 H455 0.929 . S
C464 C456 1.378 . S
C464 C459 1.350 . S
C465 H452 0.929 . S
C465 C457 1.433 . S
C465 N467 1.384 . S
N466 C462 1.430 . S
N466 C463 1.383 1_545 S
N467 C459 1.427 . S
N467 C465 1.384 . S
H468 C474 0.930 . S
H469 C478 0.930 . S
H470 C483 0.929 . S
H471 C481 0.929 . S
H472 C476 0.929 . S
H473 C482 0.929 . S
C474 H468 0.930 . S
C474 C475 1.367 . S
C474 C482 1.378 . S
C475 C474 1.367 . S
C475 C483 1.433 . S
C476 H472 0.929 . S
C476 C478 1.378 . S
C476 C480 1.350 . S
C477 C480 1.463 . S
C477 C482 1.350 . S
C477 N485 1.427 . S
C478 H469 0.930 . S
C478 C476 1.378 . S
C478 C479 1.367 . S
C479 C478 1.367 . S
C479 C481 1.433 . S
C480 C476 1.350 . S
C480 C477 1.463 . S
C480 N484 1.427 . S
C481 H471 0.929 . S
C481 C479 1.433 . S
C481 N484 1.384 . S
C482 H473 0.929 . S
C482 C474 1.378 . S
C482 C477 1.350 . S
C483 H470 0.929 . S
C483 C475 1.433 . S
C483 N485 1.384 . S
N484 C480 1.427 . S
N484 C481 1.384 . S
N485 C477 1.427 . S
N485 C483 1.384 . S
H486 C492 0.930 . S
H487 C496 0.930 . S
H488 C501 0.929 . S
H489 C499 0.929 . S
H490 C494 0.929 . S
H491 C500 0.929 . S
C492 H486 0.930 . S
C492 C493 1.367 . S
C492 C500 1.378 . S
C493 C492 1.367 . S
C493 C501 1.433 . S
C494 H490 0.929 . S
C494 C496 1.378 . S
C494 C498 1.350 . S
C495 C498 1.463 . S
C495 C500 1.350 . S
C495 N503 1.427 . S
C496 H487 0.930 . S
C496 C494 1.378 . S
C496 C497 1.367 . S
C497 C496 1.367 . S
C497 C499 1.433 . S
C498 C494 1.350 . S
C498 C495 1.463 . S
C498 N502 1.427 . S
C499 H489 0.929 . S
C499 C497 1.433 . S
C499 N502 1.384 . S
C500 H491 0.929 . S
C500 C492 1.378 . S
C500 C495 1.350 . S
C501 H488 0.929 . S
C501 C493 1.433 . S
C501 N503 1.384 . S
N502 C498 1.427 . S
N502 C499 1.384 . S
N503 C495 1.427 . S
N503 C501 1.384 . S
H504 C510 0.930 1_554 S
H505 C514 0.930 . S
H506 C519 0.929 . S
H507 C517 0.929 . S
H508 C512 0.929 . S
H509 C518 0.929 . S
C510 H504 0.930 1_556 S
C510 C511 1.367 1_455 S
C510 C518 1.378 . S
C511 C510 1.367 1_655 S
C511 C519 1.433 . S
C512 H508 0.929 . S
C512 C514 1.378 . S
C512 C516 1.350 1_655 S
C513 C516 1.463 1_655 S
C513 C518 1.350 1_655 S
C513 N521 1.427 . S
C514 H505 0.930 . S
C514 C512 1.378 . S
C514 C515 1.367 1_655 S
C515 C514 1.367 1_455 S
C515 C517 1.433 . S
C516 C512 1.350 1_455 S
C516 C513 1.463 1_455 S
C516 N520 1.427 . S
C517 H507 0.929 . S
C517 C515 1.433 . S
C517 N520 1.384 . S
C518 H509 0.929 . S
C518 C510 1.378 . S
C518 C513 1.350 1_455 S
C519 H506 0.929 . S
C519 C511 1.433 . S
C519 N521 1.384 . S
N520 C516 1.427 . S
N520 C517 1.384 . S
N521 C513 1.427 . S
N521 C519 1.384 . S
H522 C528 0.930 . S
H523 C532 0.930 . S
H524 C537 0.929 . S
H525 C535 0.929 . S
H526 C530 0.929 . S
H527 C536 0.929 . S
C528 H522 0.930 . S
C528 C529 1.367 1_546 S
C528 C536 1.378 . S
C529 C528 1.367 1_564 S
C529 C537 1.433 . S
C530 H526 0.929 . S
C530 C532 1.378 . S
C530 C534 1.350 . S
C531 C534 1.463 . S
C531 C536 1.350 1_565 S
C531 N539 1.427 . S
C532 H523 0.930 . S
C532 C530 1.378 . S
C532 C533 1.367 1_565 S
C533 C532 1.367 1_545 S
C533 C535 1.433 . S
C534 C530 1.350 . S
C534 C531 1.463 . S
C534 N538 1.427 1_565 S
C535 H525 0.929 . S
C535 C533 1.433 . S
C535 N538 1.384 . S
C536 H527 0.929 . S
C536 C528 1.378 . S
C536 C531 1.350 1_545 S
C537 H524 0.929 . S
C537 C529 1.433 . S
C537 N539 1.384 1_554 S
N538 C534 1.427 1_545 S
N538 C535 1.384 . S
N539 C531 1.427 . S
N539 C537 1.384 1_556 S
H540 C546 0.930 . S
H541 C550 0.930 . S
H542 C555 0.929 . S
H543 C553 0.929 . S
H544 C548 0.929 . S
H545 C554 0.929 . S
C546 H540 0.930 . S
C546 C547 1.367 1_556 S
C546 C554 1.378 . S
C547 C546 1.367 1_554 S
C547 C555 1.433 . S
C548 H544 0.929 . S
C548 C550 1.378 . S
C548 C552 1.350 . S
C549 C552 1.463 . S
C549 C554 1.350 . S
C549 N557 1.427 1_556 S
C550 H541 0.930 . S
C550 C548 1.378 . S
C550 C551 1.367 . S
C551 C550 1.367 . S
C551 C553 1.433 . S
C552 C548 1.350 . S
C552 C549 1.463 . S
C552 N556 1.427 . S
C553 H543 0.929 . S
C553 C551 1.433 . S
C553 N556 1.384 . S
C554 H545 0.929 . S
C554 C546 1.378 . S
C554 C549 1.350 . S
C555 H542 0.929 . S
C555 C547 1.433 . S
C555 N557 1.384 . S
N556 C552 1.427 . S
N556 C553 1.384 . S
N557 C549 1.427 1_554 S
N557 C555 1.384 . S
H558 C564 0.930 1_556 S
H559 C568 0.930 . S
H560 C573 0.929 . S
H561 C571 0.929 . S
H562 C566 0.929 1_554 S
H563 C572 0.929 . S
C564 H558 0.930 1_554 S
C564 C565 1.367 . S
C564 C572 1.378 1_554 S
C565 C564 1.367 . S
C565 C573 1.433 . S
C566 H562 0.929 1_556 S
C566 C568 1.378 . S
C566 C570 1.350 . S
C567 C570 1.463 . S
C567 C572 1.350 . S
C567 N575 1.427 1_556 S
C568 H559 0.930 . S
C568 C566 1.378 . S
C568 C569 1.367 . S
C569 C568 1.367 . S
C569 C571 1.433 . S
C570 C566 1.350 . S
C570 C567 1.463 . S
C570 N574 1.427 . S
C571 H561 0.929 . S
C571 C569 1.433 . S
C571 N574 1.384 . S
C572 H563 0.929 . S
C572 C564 1.378 1_556 S
C572 C567 1.350 . S
C573 H560 0.929 . S
C573 C565 1.433 . S
C573 N575 1.384 . S
N574 C570 1.427 . S
N574 C571 1.384 . S
N575 C567 1.427 1_554 S
N575 C573 1.384 . S
H576 C582 0.930 . S
H577 C586 0.930 1_655 S
H578 C591 0.932 . S
H579 C589 0.929 . S
H580 C584 0.929 1_655 S
H581 C590 0.929 . S
C582 H576 0.930 . S
C582 C583 1.367 . S
C582 C590 1.378 . S
C583 C582 1.367 . S
C583 C591 1.433 . S
C584 H580 0.929 1_455 S
C584 C586 1.378 . S
C584 C588 1.350 . S
C585 C588 1.463 . S
C585 C590 1.350 . S
C585 N593 1.427 . S
C586 H577 0.930 1_455 S
C586 C584 1.378 . S
C586 C587 1.367 . S
C587 C586 1.367 . S
C587 C589 1.433 . S
C588 C584 1.350 . S
C588 C585 1.463 . S
C588 N592 1.427 . S
C589 H579 0.929 . S
C589 C587 1.433 . S
C589 N592 1.384 . S
C590 H581 0.929 . S
C590 C582 1.378 . S
C590 C585 1.350 . S
C591 H578 0.932 . S
C591 C583 1.433 . S
C591 N593 1.384 . S
N592 C588 1.427 . S
N592 C589 1.384 . S
N593 C585 1.427 . S
N593 C591 1.384 . S
H594 C600 0.930 . S
H595 C604 0.930 . S
H596 C609 0.929 . S
H597 C607 0.929 . S
H598 C602 0.929 1_554 S
H599 C608 0.929 . S
C600 H594 0.930 . S
C600 C601 1.367 . S
C600 C608 1.378 . S
C601 C600 1.367 . S
C601 C609 1.433 1_545 S
C602 H598 0.929 1_556 S
C602 C604 1.378 . S
C602 C606 1.350 1_566 S
C603 C606 1.463 . S
C603 C608 1.350 . S
C603 N611 1.427 1_545 S
C604 H595 0.930 . S
C604 C602 1.378 . S
C604 C605 1.367 1_565 S
C605 C604 1.367 1_545 S
C605 C607 1.433 . S
C606 C602 1.350 1_544 S
C606 C603 1.463 . S
C606 N610 1.427 . S
C607 H597 0.929 . S
C607 C605 1.433 . S
C607 N610 1.384 1_556 S
C608 H599 0.929 . S
C608 C600 1.378 . S
C608 C603 1.350 . S
C609 H596 0.929 . S
C609 C601 1.433 1_565 S
C609 N611 1.384 . S
N610 C606 1.427 . S
N610 C607 1.384 1_554 S
N611 C603 1.427 1_565 S
N611 C609 1.384 . S
H612 C618 0.930 . S
H613 C622 0.930 . S
H614 C627 0.929 . S
H615 C625 0.929 . S
H616 C620 0.929 . S
H617 C626 0.929 . S
C618 H612 0.930 . S
C618 C619 1.367 . S
C618 C626 1.378 . S
C619 C618 1.367 . S
C619 C627 1.433 . S
C620 H616 0.929 . S
C620 C622 1.378 . S
C620 C624 1.350 1_556 S
C621 C624 1.463 . S
C621 C626 1.350 . S
C621 N629 1.427 . S
C622 H613 0.930 . S
C622 C620 1.378 . S
C622 C623 1.367 . S
C623 C622 1.367 . S
C623 C625 1.433 . S
C624 C620 1.350 1_554 S
C624 C621 1.463 . S
C624 N628 1.427 . S
C625 H615 0.929 . S
C625 C623 1.433 . S
C625 N628 1.384 1_556 S
C626 H617 0.929 . S
C626 C618 1.378 . S
C626 C621 1.350 . S
C627 H614 0.929 . S
C627 C619 1.433 . S
C627 N629 1.384 . S
N628 C624 1.427 . S
N628 C625 1.384 1_554 S
N629 C621 1.427 . S
N629 C627 1.384 . S
H630 C636 0.930 . S
H631 C640 0.930 . S
H632 C645 0.929 . S
H633 C643 0.929 . S
H634 C638 0.929 . S
H635 C644 0.929 . S
C636 H630 0.930 . S
C636 C637 1.367 . S
C636 C644 1.378 . S
C637 C636 1.367 . S
C637 C645 1.433 . S
C638 H634 0.929 . S
C638 C640 1.378 . S
C638 C642 1.351 . S
C639 C642 1.461 1_554 S
C639 C644 1.350 . S
C639 N647 1.427 . S
C640 H631 0.930 . S
C640 C638 1.378 . S
C640 C641 1.367 . S
C641 C640 1.367 . S
C641 C643 1.433 . S
C642 C638 1.351 . S
C642 C639 1.461 1_556 S
C642 N646 1.428 . S
C643 H633 0.929 . S
C643 C641 1.433 . S
C643 N646 1.384 . S
C644 H635 0.929 . S
C644 C636 1.378 . S
C644 C639 1.350 . S
C645 H632 0.929 . S
C645 C637 1.433 . S
C645 N647 1.384 . S
N646 C642 1.428 . S
N646 C643 1.384 . S
N647 C639 1.427 . S
N647 C645 1.384 . S
H648 C654 0.930 . S
H649 C658 0.930 . S
H650 C663 0.929 . S
H651 C661 0.929 . S
H652 C656 0.929 . S
H653 C662 0.929 . S
C654 H648 0.930 . S
C654 C655 1.367 1_455 S
C654 C662 1.378 . S
C655 C654 1.367 1_655 S
C655 C663 1.433 . S
C656 H652 0.929 . S
C656 C658 1.378 . S
C656 C660 1.350 . S
C657 C660 1.463 . S
C657 C662 1.350 1_655 S
C657 N665 1.427 . S
C658 H649 0.930 . S
C658 C656 1.378 . S
C658 C659 1.367 . S
C659 C658 1.367 . S
C659 C661 1.433 1_655 S
C660 C656 1.350 . S
C660 C657 1.463 . S
C660 N664 1.427 1_655 S
C661 H651 0.929 . S
C661 C659 1.433 1_455 S
C661 N664 1.384 . S
C662 H653 0.929 . S
C662 C654 1.378 . S
C662 C657 1.350 1_455 S
C663 H650 0.929 . S
C663 C655 1.433 . S
C663 N665 1.384 . S
N664 C660 1.427 1_455 S
N664 C661 1.384 . S
N665 C657 1.427 . S
N665 C663 1.384 . S
H666 C672 0.930 . S
H667 C676 0.930 . S
H668 C681 0.929 . S
H669 C679 0.929 . S
H670 C674 0.929 . S
H671 C680 0.929 . S
C672 H666 0.930 . S
C672 C673 1.367 1_545 S
C672 C680 1.378 . S
C673 C672 1.367 1_565 S
C673 C681 1.433 . S
C674 H670 0.929 . S
C674 C676 1.378 . S
C674 C678 1.350 . S
C675 C678 1.463 . S
C675 C680 1.350 1_565 S
C675 N683 1.427 . S
C676 H667 0.930 . S
C676 C674 1.378 . S
C676 C677 1.367 . S
C677 C676 1.367 . S
C677 C679 1.433 1_565 S
C678 C674 1.350 . S
C678 C675 1.463 . S
C678 N682 1.427 1_565 S
C679 H669 0.929 . S
C679 C677 1.433 1_545 S
C679 N682 1.384 . S
C680 H671 0.929 . S
C680 C672 1.378 . S
C680 C675 1.350 1_545 S
C681 H668 0.929 . S
C681 C673 1.433 . S
C681 N683 1.384 . S
N682 C678 1.427 1_545 S
N682 C679 1.384 . S
N683 C675 1.427 . S
N683 C681 1.384 . S
H684 C690 0.930 . S
H685 C694 0.930 . S
H686 C699 0.929 . S
H687 C697 0.929 . S
H688 C692 0.929 . S
H689 C698 0.929 . S
C690 H684 0.930 . S
C690 C691 1.367 . S
C690 C698 1.378 . S
C691 C690 1.367 . S
C691 C699 1.433 . S
C692 H688 0.929 . S
C692 C694 1.378 . S
C692 C696 1.350 . S
C693 C696 1.463 . S
C693 C698 1.350 . S
C693 N701 1.427 . S
C694 H685 0.930 . S
C694 C692 1.378 . S
C694 C695 1.367 . S
C695 C694 1.367 . S
C695 C697 1.433 . S
C696 C692 1.350 . S
C696 C693 1.463 . S
C696 N700 1.427 . S
C697 H687 0.929 . S
C697 C695 1.433 . S
C697 N700 1.384 . S
C698 H689 0.929 . S
C698 C690 1.378 . S
C698 C693 1.350 . S
C699 H686 0.929 . S
C699 C691 1.433 . S
C699 N701 1.384 . S
N700 C696 1.427 . S
N700 C697 1.384 . S
N701 C693 1.427 . S
N701 C699 1.384 . S
H702 C708 0.930 . S
H703 C712 0.930 . S
H704 C717 0.929 . S
H705 C715 0.929 . S
H706 C710 0.929 . S
H707 C716 0.929 . S
C708 H702 0.930 . S
C708 C709 1.367 . S
C708 C716 1.378 . S
C709 C708 1.367 . S
C709 C717 1.433 . S
C710 H706 0.929 . S
C710 C712 1.378 . S
C710 C714 1.350 . S
C711 C714 1.463 . S
C711 C716 1.350 . S
C711 N719 1.427 . S
C712 H703 0.930 . S
C712 C710 1.378 . S
C712 C713 1.367 . S
C713 C712 1.367 . S
C713 C715 1.433 . S
C714 C710 1.350 . S
C714 C711 1.463 . S
C714 N718 1.427 . S
C715 H705 0.929 . S
C715 C713 1.433 . S
C715 N718 1.384 . S
C716 H707 0.929 . S
C716 C708 1.378 . S
C716 C711 1.350 . S
C717 H704 0.929 . S
C717 C709 1.433 . S
C717 N719 1.384 . S
N718 C714 1.427 . S
N718 C715 1.384 . S
N719 C711 1.427 . S
N719 C717 1.384 . S
C295 C125 1.783 . S
C299 C169 1.908 . S
C317 C190 1.556 . S
C313 C144 1.448 . S
C335 C224 1.386 . S
C331 C87 1.346 . S
C353 C258 1.537 . S
C349 C106 1.409 . S
C371 C160 1.907 . S
C367 C49 1.824 1_556 S
C385 C68 1.483 . S
C389 C199 1.554 . S
C403 C11 1.372 . S
C407 C233 1.382 . S
C421 C30 1.459 . S
C425 C267 1.537 . S
C443 C181 0.617 . S
C439 C97 0.663 . S
C461 C186 1.121 . S
C457 C116 1.077 . S
C479 C220 1.022 . S
C475 C135 1.007 . S
C493 C78 0.532 . S
C497 C254 0.492 . S
C511 C21 0.641 . S
C515 C152 0.608 . S
C533 C215 1.121 . S
C529 C40 1.089 . S
C551 C249 1.028 . S
C547 C59 1.007 . S
C565 C2 0.526 . S
C569 C283 0.485 . S
C583 C101 1.301 . S
C587 C165 1.324 . S
C601 C120 1.724 . S
C605 C194 1.757 . S
C623 C228 1.564 . S
C619 C139 1.537 . S
C641 C262 1.657 . S
C637 C82 1.620 . S
C655 C25 1.302 . S
C659 C156 1.328 . S
C677 C203 1.758 . S
C673 C44 1.729 . S
C695 C237 1.563 . S
C691 C63 1.537 . S
C709 C6 1.624 . S
C713 C271 1.657 . S
