# Generated by pormake.
# Topology llk, (3,12)-cn, num edge types: 1
# Building blocks:
#     Node 0, Type 0, BuildingBlock: QEWDON_clean_linker_0, # of connection points: 3
#     Node 1, Type 0, BuildingBlock: QEWDON_clean_linker_0, # of connection points: 3
#     Node 2, Type 0, BuildingBlock: QEWDON_clean_linker_0, # of connection points: 3
#     Node 3, Type 0, BuildingBlock: QEWDON_clean_linker_0, # of connection points: 3
#     Node 4, Type 0, BuildingBlock: QEWDON_clean_linker_0, # of connection points: 3
#     Node 5, Type 0, BuildingBlock: QEWDON_clean_linker_0, # of connection points: 3
#     Node 6, Type 0, BuildingBlock: QEWDON_clean_linker_0, # of connection points: 3
#     Node 7, Type 0, BuildingBlock: QEWDON_clean_linker_0, # of connection points: 3
#     Node 8, Type 0, BuildingBlock: QEWDON_clean_linker_0, # of connection points: 3
#     Node 9, Type 0, BuildingBlock: QEWDON_clean_linker_0, # of connection points: 3
#     Node 10, Type 0, BuildingBlock: QEWDON_clean_linker_0, # of connection points: 3
#     Node 11, Type 0, BuildingBlock: QEWDON_clean_linker_0, # of connection points: 3
#     Node 12, Type 0, BuildingBlock: QEWDON_clean_linker_0, # of connection points: 3
#     Node 13, Type 0, BuildingBlock: QEWDON_clean_linker_0, # of connection points: 3
#     Node 14, Type 0, BuildingBlock: QEWDON_clean_linker_0, # of connection points: 3
#     Node 15, Type 0, BuildingBlock: QEWDON_clean_linker_0, # of connection points: 3
#     Node 16, Type 0, BuildingBlock: QEWDON_clean_linker_0, # of connection points: 3
#     Node 17, Type 0, BuildingBlock: QEWDON_clean_linker_0, # of connection points: 3
#     Node 18, Type 0, BuildingBlock: QEWDON_clean_linker_0, # of connection points: 3
#     Node 19, Type 0, BuildingBlock: QEWDON_clean_linker_0, # of connection points: 3
#     Node 20, Type 0, BuildingBlock: QEWDON_clean_linker_0, # of connection points: 3
#     Node 21, Type 0, BuildingBlock: QEWDON_clean_linker_0, # of connection points: 3
#     Node 22, Type 0, BuildingBlock: QEWDON_clean_linker_0, # of connection points: 3
#     Node 23, Type 0, BuildingBlock: QEWDON_clean_linker_0, # of connection points: 3
#     Node 24, Type 1, BuildingBlock: EZIPEK_clean_sbu_0, # of connection points: 12
#     Node 25, Type 1, BuildingBlock: EZIPEK_clean_sbu_0, # of connection points: 12
#     Node 26, Type 1, BuildingBlock: EZIPEK_clean_sbu_0, # of connection points: 12
#     Node 27, Type 1, BuildingBlock: EZIPEK_clean_sbu_0, # of connection points: 12
#     Node 28, Type 1, BuildingBlock: EZIPEK_clean_sbu_0, # of connection points: 12
#     Node 29, Type 1, BuildingBlock: EZIPEK_clean_sbu_0, # of connection points: 12
#     Edge 30, Type (0, 1), BuildingBlock: UVAHIK_clean_linker_0, # of connection points: 2
#     Edge 31, Type (0, 1), BuildingBlock: UVAHIK_clean_linker_0, # of connection points: 2
#     Edge 32, Type (0, 1), BuildingBlock: UVAHIK_clean_linker_0, # of connection points: 2
#     Edge 33, Type (0, 1), BuildingBlock: UVAHIK_clean_linker_0, # of connection points: 2
#     Edge 34, Type (0, 1), BuildingBlock: UVAHIK_clean_linker_0, # of connection points: 2
#     Edge 35, Type (0, 1), BuildingBlock: UVAHIK_clean_linker_0, # of connection points: 2
#     Edge 36, Type (0, 1), BuildingBlock: UVAHIK_clean_linker_0, # of connection points: 2
#     Edge 37, Type (0, 1), BuildingBlock: UVAHIK_clean_linker_0, # of connection points: 2
#     Edge 38, Type (0, 1), BuildingBlock: UVAHIK_clean_linker_0, # of connection points: 2
#     Edge 39, Type (0, 1), BuildingBlock: UVAHIK_clean_linker_0, # of connection points: 2
#     Edge 40, Type (0, 1), BuildingBlock: UVAHIK_clean_linker_0, # of connection points: 2
#     Edge 41, Type (0, 1), BuildingBlock: UVAHIK_clean_linker_0, # of connection points: 2
#     Edge 42, Type (0, 1), BuildingBlock: UVAHIK_clean_linker_0, # of connection points: 2
#     Edge 43, Type (0, 1), BuildingBlock: UVAHIK_clean_linker_0, # of connection points: 2
#     Edge 44, Type (0, 1), BuildingBlock: UVAHIK_clean_linker_0, # of connection points: 2
#     Edge 45, Type (0, 1), BuildingBlock: UVAHIK_clean_linker_0, # of connection points: 2
#     Edge 46, Type (0, 1), BuildingBlock: UVAHIK_clean_linker_0, # of connection points: 2
#     Edge 47, Type (0, 1), BuildingBlock: UVAHIK_clean_linker_0, # of connection points: 2
#     Edge 48, Type (0, 1), BuildingBlock: UVAHIK_clean_linker_0, # of connection points: 2
#     Edge 49, Type (0, 1), BuildingBlock: UVAHIK_clean_linker_0, # of connection points: 2
#     Edge 50, Type (0, 1), BuildingBlock: UVAHIK_clean_linker_0, # of connection points: 2
#     Edge 51, Type (0, 1), BuildingBlock: UVAHIK_clean_linker_0, # of connection points: 2
#     Edge 52, Type (0, 1), BuildingBlock: UVAHIK_clean_linker_0, # of connection points: 2
#     Edge 53, Type (0, 1), BuildingBlock: UVAHIK_clean_linker_0, # of connection points: 2
#     Edge 54, Type (0, 1), BuildingBlock: UVAHIK_clean_linker_0, # of connection points: 2
#     Edge 55, Type (0, 1), BuildingBlock: UVAHIK_clean_linker_0, # of connection points: 2
#     Edge 56, Type (0, 1), BuildingBlock: UVAHIK_clean_linker_0, # of connection points: 2
#     Edge 57, Type (0, 1), BuildingBlock: UVAHIK_clean_linker_0, # of connection points: 2
#     Edge 58, Type (0, 1), BuildingBlock: UVAHIK_clean_linker_0, # of connection points: 2
#     Edge 59, Type (0, 1), BuildingBlock: UVAHIK_clean_linker_0, # of connection points: 2
#     Edge 60, Type (0, 1), BuildingBlock: UVAHIK_clean_linker_0, # of connection points: 2
#     Edge 61, Type (0, 1), BuildingBlock: UVAHIK_clean_linker_0, # of connection points: 2
#     Edge 62, Type (0, 1), BuildingBlock: UVAHIK_clean_linker_0, # of connection points: 2
#     Edge 63, Type (0, 1), BuildingBlock: UVAHIK_clean_linker_0, # of connection points: 2
#     Edge 64, Type (0, 1), BuildingBlock: UVAHIK_clean_linker_0, # of connection points: 2
#     Edge 65, Type (0, 1), BuildingBlock: UVAHIK_clean_linker_0, # of connection points: 2
#     Edge 66, Type (0, 1), BuildingBlock: UVAHIK_clean_linker_0, # of connection points: 2
#     Edge 67, Type (0, 1), BuildingBlock: UVAHIK_clean_linker_0, # of connection points: 2
#     Edge 68, Type (0, 1), BuildingBlock: UVAHIK_clean_linker_0, # of connection points: 2
#     Edge 69, Type (0, 1), BuildingBlock: UVAHIK_clean_linker_0, # of connection points: 2
#     Edge 70, Type (0, 1), BuildingBlock: UVAHIK_clean_linker_0, # of connection points: 2
#     Edge 71, Type (0, 1), BuildingBlock: UVAHIK_clean_linker_0, # of connection points: 2
#     Edge 72, Type (0, 1), BuildingBlock: UVAHIK_clean_linker_0, # of connection points: 2
#     Edge 73, Type (0, 1), BuildingBlock: UVAHIK_clean_linker_0, # of connection points: 2
#     Edge 74, Type (0, 1), BuildingBlock: UVAHIK_clean_linker_0, # of connection points: 2
#     Edge 75, Type (0, 1), BuildingBlock: UVAHIK_clean_linker_0, # of connection points: 2
#     Edge 76, Type (0, 1), BuildingBlock: UVAHIK_clean_linker_0, # of connection points: 2
#     Edge 77, Type (0, 1), BuildingBlock: UVAHIK_clean_linker_0, # of connection points: 2
#     Edge 78, Type (0, 1), BuildingBlock: UVAHIK_clean_linker_0, # of connection points: 2
#     Edge 79, Type (0, 1), BuildingBlock: UVAHIK_clean_linker_0, # of connection points: 2
#     Edge 80, Type (0, 1), BuildingBlock: UVAHIK_clean_linker_0, # of connection points: 2
#     Edge 81, Type (0, 1), BuildingBlock: UVAHIK_clean_linker_0, # of connection points: 2
#     Edge 82, Type (0, 1), BuildingBlock: UVAHIK_clean_linker_0, # of connection points: 2
#     Edge 83, Type (0, 1), BuildingBlock: UVAHIK_clean_linker_0, # of connection points: 2
#     Edge 84, Type (0, 1), BuildingBlock: UVAHIK_clean_linker_0, # of connection points: 2
#     Edge 85, Type (0, 1), BuildingBlock: UVAHIK_clean_linker_0, # of connection points: 2
#     Edge 86, Type (0, 1), BuildingBlock: UVAHIK_clean_linker_0, # of connection points: 2
#     Edge 87, Type (0, 1), BuildingBlock: UVAHIK_clean_linker_0, # of connection points: 2
#     Edge 88, Type (0, 1), BuildingBlock: UVAHIK_clean_linker_0, # of connection points: 2
#     Edge 89, Type (0, 1), BuildingBlock: UVAHIK_clean_linker_0, # of connection points: 2
#     Edge 90, Type (0, 1), BuildingBlock: UVAHIK_clean_linker_0, # of connection points: 2
#     Edge 91, Type (0, 1), BuildingBlock: UVAHIK_clean_linker_0, # of connection points: 2
#     Edge 92, Type (0, 1), BuildingBlock: UVAHIK_clean_linker_0, # of connection points: 2
#     Edge 93, Type (0, 1), BuildingBlock: UVAHIK_clean_linker_0, # of connection points: 2
#     Edge 94, Type (0, 1), BuildingBlock: UVAHIK_clean_linker_0, # of connection points: 2
#     Edge 95, Type (0, 1), BuildingBlock: UVAHIK_clean_linker_0, # of connection points: 2
#     Edge 96, Type (0, 1), BuildingBlock: UVAHIK_clean_linker_0, # of connection points: 2
#     Edge 97, Type (0, 1), BuildingBlock: UVAHIK_clean_linker_0, # of connection points: 2
#     Edge 98, Type (0, 1), BuildingBlock: UVAHIK_clean_linker_0, # of connection points: 2
#     Edge 99, Type (0, 1), BuildingBlock: UVAHIK_clean_linker_0, # of connection points: 2
#     Edge 100, Type (0, 1), BuildingBlock: UVAHIK_clean_linker_0, # of connection points: 2
#     Edge 101, Type (0, 1), BuildingBlock: UVAHIK_clean_linker_0, # of connection points: 2
# Relax obj value: 0.085
# Max RMSD: 0.248
# Mean RMSD: 0.189
data_MOF--net-llk--node1-EZIPEK_clean_sbu_0--node2-QEWDON_clean_linker_0--edge1-UVAHIK_clean_linker_0
_symmetry_space_group_name_H-M    P1
_symmetry_Int_Tables_number       1
_symmetry_cell_setting            triclinic
loop_
_symmetry_equiv_pos_as_xyz
'x, y, z'
_cell_length_a     62.056306
_cell_length_b     61.4697
_cell_length_c     60.887928
_cell_angle_alpha  89.969356
_cell_angle_beta   89.993119
_cell_angle_gamma 90.003958
loop_
_atom_site_label
_atom_site_type_symbol
_atom_site_fract_x
_atom_site_fract_y
_atom_site_fract_z
_atom_type_partial_charge
H0 H 0.00331 0.2871 0.27007 0.0
C1 C 0.00675 0.27213 0.27879 0.0
C2 C 0.0147 0.27338 0.30027 0.0
C3 C 1.00301 0.25183 0.26873 0.0
H4 H 0.02413 0.25526 0.32885 0.0
C5 C 0.01831 0.25421 0.3121 0.0
C6 C 0.01366 0.23381 0.30293 0.0
C7 C 0.00658 0.23269 0.28102 0.0
C8 C 0.99471 0.25084 0.24574 0.0
H9 H 0.00343 0.21694 0.27377 0.0
C10 C 1.00072 0.26681 0.23029 0.0
C11 C 0.99183 0.26706 0.20906 0.0
C12 C 0.98014 0.23451 0.23922 0.0
H13 H 0.9747 0.2222 0.25066 0.0
C14 C 0.97185 0.23422 0.2179 0.0
H15 H 0.01241 0.27913 0.2347 0.0
C16 C 0.97753 0.25042 0.20291 0.0
H17 H 0.97027 0.25026 0.18674 0.0
H18 H 0.96058 0.22164 0.21312 0.0
H19 H 0.75087 0.01828 0.2914 0.0
C20 C 0.74362 0.01317 0.27606 0.0
C21 C 0.72167 0.00761 0.27566 0.0
C22 C 0.75591 0.01338 0.25659 0.0
H23 H 0.69516 0.99755 0.25515 0.0
C24 C 0.71211 0.00182 0.25562 0.0
C25 C 0.7239 0.00227 0.23601 0.0
C26 C 0.74579 0.00797 0.23658 0.0
C27 C 0.77896 0.02025 0.25708 0.0
H28 H 0.7549 0.00805 0.22139 0.0
C29 C 0.79247 0.0145 0.27481 0.0
C30 C 0.81407 0.02155 0.27558 0.0
C31 C 0.78749 0.03307 0.24002 0.0
H32 H 0.77751 0.03823 0.22639 0.0
C33 C 0.80891 0.0399 0.24058 0.0
H34 H 0.7863 0.00426 0.28786 0.0
C35 C 0.82211 0.03426 0.25821 0.0
H36 H 0.83853 0.04025 0.25843 0.0
H37 H 0.81523 0.04988 0.22742 0.0
H38 H 0.0036 0.74068 0.29286 0.0
C39 C 0.00593 0.73155 0.27787 0.0
C40 C 0.01191 0.70958 0.27943 0.0
C41 C 1.00292 0.74153 0.25717 0.0
H42 H 0.01779 0.6801 0.26139 0.0
C43 C 0.01378 0.69723 0.26022 0.0
C44 C 0.01013 0.70645 0.23955 0.0
C45 C 0.00541 0.72872 0.23807 0.0
C46 C 0.99689 0.76508 0.25545 0.0
H47 H 0.00337 0.73587 0.22196 0.0
C48 C 0.00326 0.78019 0.27167 0.0
C49 C 0.99736 0.8023 0.27026 0.0
C50 C 0.98446 0.77266 0.23764 0.0
H51 H 0.97843 0.76167 0.22521 0.0
C52 C 0.97927 0.79463 0.2357 0.0
H53 H 0.01262 0.77475 0.28558 0.0
C54 C 0.98572 0.80937 0.25176 0.0
H55 H 0.98146 0.82633 0.24968 0.0
H56 H 0.96996 0.80023 0.22176 0.0
H57 H 0.28516 0.98491 0.29172 0.0
C58 C 0.29251 0.98979 0.27634 0.0
C59 C 0.3145 0.99518 0.27597 0.0
C60 C 0.2803 0.98947 0.25683 0.0
H61 H 0.34117 0.00481 0.25546 0.0
C62 C 0.32419 1.00067 0.25591 0.0
C63 C 0.31249 1.0001 0.23625 0.0
C64 C 0.29054 0.99459 0.23679 0.0
C65 C 0.25718 0.98282 0.25729 0.0
H66 H 0.2815 0.99444 0.22157 0.0
C67 C 0.24366 0.9888 0.27493 0.0
C68 C 0.22199 0.98196 0.27568 0.0
C69 C 0.24858 0.96998 0.24029 0.0
H70 H 0.25855 0.96463 0.22673 0.0
C71 C 0.22709 0.96338 0.24082 0.0
H72 H 0.24988 0.99905 0.28794 0.0
C73 C 0.21388 0.96925 0.25836 0.0
H74 H 0.19741 0.96343 0.25857 0.0
H75 H 0.22072 0.95339 0.2277 0.0
H76 H 1.00321 0.71605 0.74302 0.0
C77 C 0.00617 0.73141 0.73485 0.0
C78 C 0.01354 0.73136 0.71302 0.0
C79 C 1.00223 0.75109 0.74601 0.0
H80 H 0.02149 0.75155 0.68517 0.0
C81 C 0.01682 0.75132 0.70232 0.0
C82 C 0.01293 0.77107 0.71307 0.0
C83 C 0.0058 0.77088 0.73493 0.0
C84 C 0.99374 0.75095 0.76893 0.0
H85 H 1.00319 0.78622 0.74326 0.0
C86 C 1.0001 0.7347 0.78392 0.0
C87 C 0.99136 0.73386 0.80522 0.0
C88 C 0.97874 0.76672 0.77583 0.0
H89 H 0.97304 0.77918 0.76469 0.0
C90 C 0.97043 0.76628 0.79712 0.0
H91 H 0.01202 0.72273 0.77913 0.0
C92 C 0.9766 0.74995 0.81173 0.0
H93 H 0.96942 0.74962 0.82794 0.0
H94 H 0.95883 0.77844 0.80219 0.0
H95 H 0.28462 0.0187 0.72217 0.0
C96 C 0.29194 0.01384 0.73757 0.0
C97 C 0.31395 0.00852 0.73799 0.0
C98 C 0.27968 0.0141 0.75705 0.0
H99 H 0.34059 0.99893 0.75856 0.0
C100 C 0.3236 0.00304 0.75807 0.0
C101 C 0.31184 0.00355 0.7777 0.0
C102 C 0.28989 0.009 0.77711 0.0
C103 C 0.25653 0.02063 0.75652 0.0
H104 H 0.2808 0.00911 0.79231 0.0
C105 C 0.2431 0.01459 0.73883 0.0
C106 C 0.2214 0.02132 0.73801 0.0
C107 C 0.24781 0.03342 0.7735 0.0
H108 H 0.25771 0.03881 0.78709 0.0
C109 C 0.22629 0.03991 0.77289 0.0
H110 H 0.24942 0.00437 0.72585 0.0
C111 C 0.21317 0.03398 0.7553 0.0
H112 H 0.19667 0.03972 0.75503 0.0
H113 H 0.21982 0.04986 0.78599 0.0
H114 H 0.00523 0.26352 0.7208 0.0
C115 C 0.00712 0.27244 0.736 0.0
C116 C 0.01355 0.2943 0.73507 0.0
C117 C 1.00279 0.26226 0.75631 0.0
H118 H 0.01944 0.32327 0.75395 0.0
C119 C 0.01502 0.30623 0.7546 0.0
C120 C 0.01025 0.29672 0.77494 0.0
C121 C 0.0047 0.27459 0.77577 0.0
C122 C 0.99542 0.23913 0.75702 0.0
H123 H 1.00145 0.26719 0.79157 0.0
C124 C 1.00257 0.22402 0.74119 0.0
C125 C 0.9945 0.20263 0.74078 0.0
C126 C 0.98049 0.23215 0.77297 0.0
H127 H 0.9741 0.24328 0.78509 0.0
C128 C 0.97303 0.21073 0.77311 0.0
H129 H 0.01447 0.2288 0.72911 0.0
C130 C 0.97986 0.19607 0.75709 0.0
H131 H 0.97319 0.17979 0.7571 0.0
H132 H 0.96148 0.20561 0.7854 0.0
H133 H 0.73444 0.01784 0.7401 0.0
C134 C 0.74931 0.0131 0.73212 0.0
C135 C 0.74932 0.00957 0.70935 0.0
C136 C 0.76845 0.01149 0.74442 0.0
H137 H 0.76889 0.00234 0.68114 0.0
C138 C 0.76881 0.00469 0.69877 0.0
C139 C 0.78819 0.00313 0.71057 0.0
C140 C 0.7878 0.00628 0.73346 0.0
C141 C 0.76827 0.01606 0.7685 0.0
H142 H 0.80258 0.00449 0.74274 0.0
C143 C 0.75035 0.01039 0.78158 0.0
C144 C 0.7496 0.01581 0.80404 0.0
C145 C 0.78571 0.02688 0.77845 0.0
H146 H 0.79955 0.03196 0.76891 0.0
C147 C 0.78526 0.03188 0.80078 0.0
H148 H 0.737 0.00157 0.77436 0.0
C149 C 0.76735 0.0265 0.8135 0.0
H150 H 0.7672 0.03119 0.83064 0.0
H151 H 0.79872 0.04034 0.8082 0.0
H152 H 0.28672 0.28692 0.02055 0.0
C153 C 0.29405 0.27154 0.01613 0.0
C154 C 0.3162 0.2709 0.0114 0.0
C155 C 0.28163 0.25235 0.01643 0.0
H156 H 0.34299 0.25021 0.00297 0.0
C157 C 0.32591 0.25084 0.00662 0.0
C158 C 0.31406 0.23145 0.00722 0.0
C159 C 0.29192 0.23228 0.01203 0.0
C160 C 0.25827 0.25321 0.02249 0.0
H161 H 0.28278 0.21727 0.01216 0.0
C162 C 0.24515 0.27106 0.01638 0.0
C163 C 0.22332 0.27211 0.02282 0.0
C164 C 0.24907 0.23641 0.0351 0.0
H165 H 0.25865 0.22276 0.04065 0.0
C166 C 0.22747 0.23726 0.04131 0.0
H167 H 0.25177 0.28398 0.00635 0.0
C168 C 0.21468 0.25493 0.0353 0.0
H169 H 0.19811 0.25534 0.04085 0.0
H170 H 0.22066 0.22428 0.05113 0.0
H171 H 0.28529 0.71621 0.99313 0.0
C172 C 0.29317 0.73134 0.99744 0.0
C173 C 0.31563 0.73154 0.00023 0.0
C174 C 0.28104 0.75064 -0.00094 0.0
H175 H 0.34339 0.75152 0.00649 0.0
C176 C 0.32604 0.75133 0.00462 0.0
C177 C 0.31447 0.77089 0.00626 0.0
C178 C 0.29192 0.77035 0.00367 0.0
C179 C 0.25728 0.75032 0.99477 0.0
H180 H 0.28286 0.7853 0.00542 0.0
C181 C 0.24437 0.73222 0.00068 0.0
C182 C 0.22216 0.73168 0.99562 0.0
C183 C 0.24745 0.7679 0.98386 0.0
H184 H 0.25678 0.7818 0.97849 0.0
C185 C 0.22549 0.76756 0.97909 0.0
H186 H 0.25148 0.71868 0.00944 0.0
C187 C 0.21294 0.74964 0.98482 0.0
H188 H 0.19606 0.74966 0.9803 0.0
H189 H 0.2182 0.78115 0.97054 0.0
H190 H 0.73331 0.2694 0.02073 0.0
C191 C 0.74833 0.27723 0.01631 0.0
C192 C 0.74863 0.29988 0.01328 0.0
C193 C 0.76737 0.26487 0.01476 0.0
H194 H 0.76857 0.32777 0.00679 0.0
C195 C 0.7683 0.31026 0.00881 0.0
C196 C 0.78761 0.29846 0.00725 0.0
C197 C 0.78694 0.27571 0.01002 0.0
C198 C 0.76692 0.24092 0.01928 0.0
H199 H 0.80169 0.26646 0.00829 0.0
C200 C 0.74888 0.22797 0.01361 0.0
C201 C 0.7482 0.2056 0.01892 0.0
C202 C 0.78432 0.23097 0.03019 0.0
H203 H 0.79818 0.24034 0.03539 0.0
C204 C 0.78385 0.20885 0.0352 0.0
H205 H 0.73547 0.23516 0.00485 0.0
C206 C 0.76597 0.19627 0.02971 0.0
H207 H 0.76589 0.17927 0.0344 0.0
H208 H 0.7973 0.20148 0.04374 0.0
H209 H 0.73317 0.73267 0.99391 0.0
C210 C 0.74842 0.72533 0.99838 0.0
C211 C 0.74902 0.70305 0.00342 0.0
C212 C 0.76741 0.73787 0.99789 0.0
H213 H 0.76952 0.67602 0.01194 0.0
C214 C 0.76892 0.69323 0.00812 0.0
C215 C 0.78815 0.70518 0.00729 0.0
C216 C 0.7873 0.72751 0.00229 0.0
C217 C 0.76642 0.76143 0.99171 0.0
H218 H 0.80215 0.73675 0.00206 0.0
C219 C 0.74853 0.77451 0.99753 0.0
C220 C 0.74719 0.79644 0.99079 0.0
C221 C 0.78306 0.77084 0.9792 0.0
H222 H 0.79677 0.76132 0.97388 0.0
C223 C 0.78197 0.79259 0.97278 0.0
H224 H 0.73573 0.76777 0.00753 0.0
C225 C 0.76421 0.80529 0.97843 0.0
H226 H 0.7636 0.82195 0.97268 0.0
H227 H 0.79484 0.79956 0.96304 0.0
H228 H 0.49757 0.78581 0.76909 0.0
C229 C 0.50176 0.77127 0.77816 0.0
C230 C 0.50446 0.77278 0.801 0.0
C231 C 0.50351 0.75104 0.76731 0.0
H232 H 0.51113 0.75502 0.83068 0.0
C233 C 0.50866 0.75387 0.8131 0.0
C234 C 0.50959 0.73347 0.80291 0.0
C235 C 0.50769 0.73226 0.77998 0.0
C236 C 0.50026 0.74936 0.743 0.0
H237 H 0.50901 0.71654 0.77213 0.0
C238 C 0.50561 0.7668 0.72892 0.0
C239 C 0.50219 0.7654 0.70607 0.0
C240 C 0.49143 0.73037 0.73368 0.0
H241 H 0.48626 0.71686 0.74379 0.0
C242 C 0.48873 0.72858 0.71103 0.0
H243 H 0.5122 0.78162 0.73572 0.0
C244 C 0.49414 0.74585 0.6973 0.0
H245 H 0.4919 0.74387 0.67978 0.0
H246 H 0.48217 0.71377 0.7041 0.0
H247 H 0.25126 0.51825 0.792 0.0
C248 C 0.24389 0.5132 0.7767 0.0
C249 C 0.22188 0.50785 0.77641 0.0
C250 C 0.25608 0.51328 0.75718 0.0
H251 H 0.19518 0.49804 0.75605 0.0
C252 C 0.21216 0.50215 0.75643 0.0
C253 C 0.22386 0.50246 0.73676 0.0
C254 C 0.24582 0.50795 0.73721 0.0
C255 C 0.2792 0.51993 0.75754 0.0
H256 H 0.25485 0.50792 0.72199 0.0
C257 C 0.29275 0.51411 0.77521 0.0
C258 C 0.3144 0.52099 0.77587 0.0
C259 C 0.28775 0.53266 0.74041 0.0
H260 H 0.27775 0.53789 0.72682 0.0
C261 C 0.30922 0.53932 0.74086 0.0
H262 H 0.28655 0.50394 0.78831 0.0
C263 C 0.32246 0.53361 0.75844 0.0
H264 H 0.33892 0.53948 0.75858 0.0
H265 H 0.31556 0.54923 0.72765 0.0
H266 H 0.49701 0.23842 0.79203 0.0
C267 C 0.49993 0.22997 0.77671 0.0
C268 C 0.50339 0.20742 0.77714 0.0
C269 C 0.49919 0.24136 0.75659 0.0
H270 H 0.50935 0.17894 0.75753 0.0
C271 C 0.50617 0.19628 0.75729 0.0
C272 C 0.50474 0.20708 0.7371 0.0
C273 C 0.50179 0.22969 0.73683 0.0
C274 C 0.49467 0.26519 0.75622 0.0
H275 H 0.50106 0.23806 0.72119 0.0
C276 C 0.50239 0.27877 0.77309 0.0
C277 C 0.49702 0.301 0.77369 0.0
C278 C 0.482 0.27442 0.73945 0.0
H279 H 0.47531 0.26449 0.72645 0.0
C280 C 0.47721 0.29659 0.73957 0.0
H281 H 0.51263 0.27209 0.78582 0.0
C282 C 0.48454 0.30982 0.75661 0.0
H283 H 0.47991 0.3268 0.75671 0.0
H284 H 0.46735 0.30347 0.72665 0.0
H285 H 0.78564 0.48468 0.79195 0.0
C286 C 0.79283 0.48962 0.77652 0.0
C287 C 0.81477 0.49522 0.77596 0.0
C288 C 0.78047 0.48916 0.7571 0.0
H289 H 0.84116 0.50512 0.75521 0.0
C290 C 0.82423 0.5008 0.7558 0.0
C291 C 0.81238 0.50009 0.73625 0.0
C292 C 0.7905 0.49435 0.73698 0.0
C293 C 0.75742 0.48231 0.75777 0.0
H294 H 0.78133 0.49408 0.72183 0.0
C295 C 0.74397 0.48829 0.77546 0.0
C296 C 0.72236 0.4813 0.77639 0.0
C297 C 0.74882 0.4693 0.7409 0.0
H298 H 0.75874 0.46396 0.72731 0.0
C299 C 0.72738 0.46253 0.74162 0.0
H300 H 0.7502 0.49867 0.78836 0.0
C301 C 0.71423 0.46841 0.75921 0.0
H302 H 0.6978 0.46248 0.75957 0.0
H303 H 0.721 0.45241 0.72861 0.0
H304 H 0.50422 0.21562 0.24329 0.0
C305 C 0.50672 0.23078 0.23461 0.0
C306 C 0.51378 0.23012 0.21272 0.0
C307 C 0.50257 0.25078 0.24515 0.0
H308 H 0.52113 0.24928 0.18411 0.0
C309 C 0.51617 0.24968 0.20117 0.0
C310 C 0.51164 0.26976 0.21105 0.0
C311 C 0.50534 0.27024 0.2332 0.0
C312 C 0.49456 0.25119 0.26826 0.0
H313 H 0.50218 0.28578 0.24091 0.0
C314 C 0.50109 0.23514 0.2834 0.0
C315 C 0.49244 0.23442 0.30472 0.0
C316 C 0.47969 0.26708 0.27519 0.0
H317 H 0.4738 0.2794 0.264 0.0
C318 C 0.47165 0.26691 0.2966 0.0
H319 H 0.51297 0.22312 0.27867 0.0
C320 C 0.47786 0.25065 0.31128 0.0
H321 H 0.47078 0.25042 0.32754 0.0
H322 H 0.46015 0.27915 0.30169 0.0
H323 H 0.7847 0.51872 0.22245 0.0
C324 C 0.79206 0.51383 0.23781 0.0
C325 C 0.81401 0.50824 0.23812 0.0
C326 C 0.77993 0.51433 0.25738 0.0
H327 H 0.84067 0.49847 0.25856 0.0
C328 C 0.82372 0.50275 0.25817 0.0
C329 C 0.81209 0.5035 0.27786 0.0
C330 C 0.7902 0.5092 0.27739 0.0
C331 C 0.75687 0.52116 0.25698 0.0
H332 H 0.78121 0.50949 0.29265 0.0
C333 C 0.74327 0.51523 0.2394 0.0
C334 C 0.72167 0.52227 0.23865 0.0
C335 C 0.74841 0.53413 0.27395 0.0
H336 H 0.75845 0.53944 0.28747 0.0
C337 C 0.72697 0.54091 0.27344 0.0
H338 H 0.74937 0.50487 0.22642 0.0
C339 C 0.71368 0.53511 0.25594 0.0
H340 H 0.69727 0.54108 0.25572 0.0
H341 H 0.7207 0.551 0.28654 0.0
H342 H 0.50451 0.76625 0.22151 0.0
C343 C 0.50717 0.77427 0.23711 0.0
C344 C 0.51524 0.79562 0.23741 0.0
C345 C 0.5018 0.76344 0.25675 0.0
H346 H 0.52357 0.82275 0.25823 0.0
C347 C 0.51828 0.80595 0.25773 0.0
C348 C 0.5132 0.79539 0.27748 0.0
C349 C 0.50494 0.77415 0.2769 0.0
C350 C 0.49165 0.74155 0.25596 0.0
H351 H 0.50098 0.76599 0.29215 0.0
C352 C 0.49872 0.72595 0.24067 0.0
C353 C 0.48765 0.70611 0.23794 0.0
C354 C 0.47397 0.73663 0.26949 0.0
H355 H 0.46795 0.74837 0.28125 0.0
C356 C 0.46328 0.71678 0.2674 0.0
H357 H 0.51286 0.7294 0.23085 0.0
C358 C 0.46984 0.70174 0.25159 0.0
H359 H 0.46054 0.68696 0.24977 0.0
H360 H 0.44948 0.71328 0.27768 0.0
H361 H 0.23426 0.51787 0.2406 0.0
C362 C 0.24915 0.51331 0.23255 0.0
C363 C 0.24907 0.50973 0.20979 0.0
C364 C 0.26838 0.512 0.24474 0.0
H365 H 0.26858 0.50274 0.18147 0.0
C366 C 0.26857 0.50512 0.19909 0.0
C367 C 0.28804 0.50387 0.21078 0.0
C368 C 0.28773 0.50704 0.23366 0.0
C369 C 0.2683 0.51667 0.2688 0.0
H370 H 0.30259 0.50546 0.24286 0.0
C371 C 0.2505 0.51089 0.28202 0.0
C372 C 0.24983 0.51641 0.30446 0.0
C373 C 0.2857 0.52768 0.27861 0.0
H374 H 0.29945 0.53285 0.26898 0.0
C375 C 0.28534 0.53276 0.30093 0.0
H376 H 0.23718 0.50194 0.27492 0.0
C377 C 0.26754 0.52728 0.31377 0.0
H378 H 0.26744 0.53205 0.33089 0.0
H379 H 0.29877 0.54136 0.30823 0.0
H380 H 0.78594 0.78668 0.52041 0.0
C381 C 0.79322 0.77127 0.51602 0.0
C382 C 0.81534 0.77058 0.51113 0.0
C383 C 0.78079 0.75209 0.51653 0.0
H384 H 0.84205 0.74982 0.50261 0.0
C385 C 0.82499 0.75049 0.50639 0.0
C386 C 0.81315 0.73111 0.5072 0.0
C387 C 0.79104 0.73199 0.51218 0.0
C388 C 0.75748 0.75301 0.52279 0.0
H389 H 0.78189 0.71698 0.51248 0.0
C390 C 0.74432 0.77083 0.5167 0.0
C391 C 0.72254 0.77194 0.52335 0.0
C392 C 0.74838 0.73629 0.53559 0.0
H393 H 0.758 0.72266 0.54112 0.0
C394 C 0.72684 0.73719 0.54199 0.0
H395 H 0.75087 0.7837 0.50654 0.0
C396 C 0.71402 0.75484 0.536 0.0
H397 H 0.6975 0.7553 0.54172 0.0
H398 H 0.72011 0.72428 0.55195 0.0
H399 H 0.78595 0.21613 0.4931 0.0
C400 C 0.79382 0.23127 0.49739 0.0
C401 C 0.81625 0.23144 0.50039 0.0
C402 C 0.78171 0.2506 0.49879 0.0
H403 H 0.844 0.25142 0.50673 0.0
C404 C 0.82667 0.25125 0.50473 0.0
C405 C 0.81512 0.27084 0.50614 0.0
C406 C 0.79258 0.27032 0.50337 0.0
C407 C 0.75798 0.25029 0.4943 0.0
H408 H 0.78353 0.28529 0.50496 0.0
C409 C 0.74502 0.23222 0.50014 0.0
C410 C 0.72286 0.23166 0.49487 0.0
C411 C 0.74825 0.26785 0.48324 0.0
H412 H 0.75764 0.28172 0.47791 0.0
C413 C 0.72633 0.2675 0.47827 0.0
H414 H 0.75204 0.2187 0.50902 0.0
C415 C 0.71374 0.24959 0.48393 0.0
H416 H 0.6969 0.2496 0.47927 0.0
H417 H 0.71913 0.28106 0.46962 0.0
H418 H 0.23362 0.76921 0.5204 0.0
C419 C 0.24863 0.77711 0.51605 0.0
C420 C 0.24882 0.79974 0.51297 0.0
C421 C 0.26774 0.76484 0.51464 0.0
H422 H 0.26862 0.82774 0.5066 0.0
C423 C 0.26844 0.81023 0.50864 0.0
C424 C 0.28784 0.79854 0.50724 0.0
C425 C 0.28729 0.77579 0.51002 0.0
C426 C 0.26734 0.74088 0.51911 0.0
H427 H 0.3021 0.76662 0.5084 0.0
C428 C 0.24929 0.72793 0.51347 0.0
C429 C 0.24856 0.70559 0.51883 0.0
C430 C 0.28476 0.73091 0.52999 0.0
H431 H 0.29863 0.74026 0.53517 0.0
C432 C 0.28427 0.70879 0.535 0.0
H433 H 0.23588 0.73512 0.5047 0.0
C434 C 0.26634 0.69623 0.52958 0.0
H435 H 0.26624 0.67924 0.53429 0.0
H436 H 0.29772 0.7014 0.54351 0.0
H437 H 0.23278 0.23317 0.49314 0.0
C438 C 0.24781 0.22533 0.49747 0.0
C439 C 0.24807 0.2027 0.50054 0.0
C440 C 0.26688 0.23766 0.4989 0.0
H441 H 0.26797 0.17476 0.50686 0.0
C442 C 0.26774 0.19226 0.50484 0.0
C443 C 0.2871 0.20402 0.50624 0.0
C444 C 0.28646 0.22678 0.50349 0.0
C445 C 0.26638 0.26164 0.4945 0.0
H446 H 0.30124 0.236 0.50512 0.0
C447 C 0.24827 0.27448 0.50018 0.0
C448 C 0.24744 0.29684 0.49491 0.0
C449 C 0.28376 0.27172 0.48367 0.0
H450 H 0.29767 0.26245 0.47846 0.0
C451 C 0.28317 0.29386 0.47874 0.0
H452 H 0.23488 0.26721 0.50893 0.0
C453 C 0.26519 0.30632 0.4842 0.0
H454 H 0.26502 0.32333 0.47956 0.0
H455 H 0.2966 0.30134 0.47026 0.0
C456 C 0.01844 0.94664 0.55829 0.0
C457 C 0.0179 0.94992 0.45173 0.0
C458 C 0.01793 0.0518 0.56175 0.0
C459 C 0.01851 0.05508 0.45509 0.0
C460 C 0.96549 0.05328 0.50724 0.0
C461 C 0.966 0.9479 0.50555 0.0
C462 C 0.07003 0.05383 0.50684 0.0
C463 C 0.07052 0.94827 0.50661 0.0
C464 C 0.0703 0.00189 0.45335 0.0
C465 C 0.96578 0.0021 0.45337 0.0
C466 C 0.07037 1.00004 0.55995 0.0
C467 C 0.96594 0.99857 0.55997 0.0
Eu468 Eu 0.01828 0.95957 0.50533 0.0
O469 O 0.99894 0.98195 0.48657 0.0
O470 O 0.03727 0.98099 0.52548 0.0
Eu471 Eu 0.97723 1.00063 0.50667 0.0
Eu472 Eu 0.05887 1.00098 0.50666 0.0
O473 O 0.99909 0.98085 0.52546 0.0
O474 O 0.03741 0.98209 0.48648 0.0
Eu475 Eu 0.01811 0.99959 0.54808 0.0
Eu476 Eu 0.01803 0.00211 0.46527 0.0
O477 O 0.9987 0.01959 0.52685 0.0
O478 O 0.99884 0.02073 0.48787 0.0
O479 O 0.03699 0.0208 0.48797 0.0
O480 O 0.03723 0.01977 0.52679 0.0
Eu481 Eu 0.01785 0.04211 0.50807 0.0
O482 O 0.01808 0.9405 0.53725 0.0
O483 O 0.01872 0.94237 0.47229 0.0
O484 O 0.01761 0.0593 0.54114 0.0
O485 O 0.01812 0.06113 0.47616 0.0
O486 O 0.95899 0.03257 0.50741 0.0
O487 O 0.95933 0.96855 0.50569 0.0
O488 O 0.07661 0.03316 0.50602 0.0
O489 O 0.07694 0.96899 0.50726 0.0
O490 O 0.04976 0.00243 0.44682 0.0
O491 O 0.98632 0.00263 0.44683 0.0
O492 O 0.04985 0.9992 0.56648 0.0
O493 O 0.98643 0.99899 0.56662 0.0
O494 O 0.04957 0.06045 0.50814 0.0
O495 O 0.98595 0.06003 0.50741 0.0
O496 O 0.0501 0.94148 0.50547 0.0
O497 O 0.98652 0.94134 0.5054 0.0
O498 O 0.01731 0.97083 0.44589 0.0
O499 O 0.01857 0.03461 0.44781 0.0
O500 O 0.01864 0.96713 0.56551 0.0
O501 O 0.01821 0.03086 0.5675 0.0
O502 O 0.95929 0.99888 0.5391 0.0
O503 O 0.95915 0.00138 0.47424 0.0
O504 O 0.07698 1.00104 0.53908 0.0
O505 O 0.07693 0.00111 0.47422 0.0
C506 C 0.51925 0.94763 0.05896 0.0
C507 C 0.51964 0.05288 0.06071 0.0
C508 C 0.5164 0.94949 0.95237 0.0
C509 C 0.51824 0.05491 0.95437 0.0
C510 C 0.57055 1.00083 0.95321 0.0
C511 C 0.57071 0.99967 0.05961 0.0
C512 C 0.46585 0.00155 0.95351 0.0
C513 C 0.46603 0.00151 0.05988 0.0
C514 C 0.46653 0.05455 0.00692 0.0
C515 C 0.57138 0.0534 0.00672 0.0
C516 C 0.46523 0.94891 0.00723 0.0
C517 C 0.5701 0.94768 0.00584 0.0
Eu518 Eu 0.51834 1.00051 0.04811 0.0
O519 O 0.53775 0.02 0.02638 0.0
O520 O 0.49889 0.98159 0.0259 0.0
Eu521 Eu 0.559 1.00066 0.00646 0.0
Eu522 Eu 0.47754 0.00159 0.00667 0.0
O523 O 0.53709 0.98132 0.0256 0.0
O524 O 0.4994 0.02049 0.02642 0.0
Eu525 Eu 0.51776 0.95979 0.00595 0.0
Eu526 Eu 0.51887 0.04243 0.00728 0.0
O527 O 0.53712 0.9818 0.98669 0.0
O528 O 0.53768 0.02067 0.98725 0.0
O529 O 0.49943 0.02103 0.98747 0.0
O530 O 0.49899 0.98235 0.98683 0.0
Eu531 Eu 0.51825 0.00187 0.96499 0.0
O532 O 0.51952 0.96822 0.06591 0.0
O533 O 0.51843 0.03216 0.06713 0.0
O534 O 0.51766 0.97024 0.94605 0.0
O535 O 0.51787 0.03433 0.94735 0.0
O536 O 0.57696 1.00022 0.97413 0.0
O537 O 0.57717 0.99964 0.03869 0.0
O538 O 0.4594 0.00116 0.97442 0.0
O539 O 0.45953 0.00234 0.039 0.0
O540 O 0.48711 0.06095 0.00786 0.0
O541 O 0.55096 0.0603 0.00712 0.0
O542 O 0.48565 0.94201 0.00722 0.0
O543 O 0.54953 0.94118 0.00527 0.0
O544 O 0.48633 0.00214 0.94672 0.0
O545 O 0.55007 0.00175 0.94645 0.0
O546 O 0.48651 1.00031 0.06656 0.0
O547 O 0.55023 1.00027 0.06638 0.0
O548 O 0.52022 0.05988 0.03996 0.0
O549 O 0.51886 0.06124 0.97532 0.0
O550 O 0.51826 0.94112 0.03807 0.0
O551 O 0.51601 0.94241 0.97312 0.0
O552 O 0.57668 0.96837 0.00642 0.0
O553 O 0.57756 0.03256 0.00642 0.0
O554 O 0.45895 0.96971 0.00677 0.0
O555 O 0.45983 0.03391 0.00609 0.0
C556 C 0.01784 0.44616 0.05871 0.0
C557 C 0.01907 0.45033 0.95262 0.0
C558 C 0.01804 0.55181 0.06271 0.0
C559 C 0.01789 0.55595 0.95651 0.0
C560 C 0.96559 0.55367 0.00917 0.0
C561 C 0.96627 0.44798 0.00502 0.0
C562 C 0.07034 0.55424 0.00947 0.0
C563 C 0.07092 0.44853 0.00643 0.0
C564 C 0.07091 0.50352 0.95488 0.0
C565 C 0.96629 0.50199 0.95406 0.0
C566 C 0.07002 0.50096 0.06131 0.0
C567 C 0.96548 0.49981 0.06033 0.0
Eu568 Eu 0.01852 0.46007 0.00611 0.0
O569 O 0.99941 0.4825 0.98725 0.0
O570 O 0.0375 0.48109 0.02672 0.0
Eu571 Eu 0.97745 0.50087 0.00727 0.0
Eu572 Eu 0.05906 0.50131 0.00793 0.0
O573 O 0.99897 0.48091 0.02634 0.0
O574 O 0.03765 0.4827 0.98747 0.0
Eu575 Eu 0.01791 0.49942 0.04929 0.0
Eu576 Eu 0.01851 0.50273 0.966 0.0
O577 O 0.99889 0.5195 0.02772 0.0
O578 O 0.99907 0.52113 0.98863 0.0
O579 O 0.03741 0.52126 0.98899 0.0
O580 O 0.03702 0.51963 0.02796 0.0
Eu581 Eu 0.01801 0.54221 0.00921 0.0
O582 O 0.01836 0.44062 0.03755 0.0
O583 O 0.01903 0.44301 0.97325 0.0
O584 O 0.01834 0.55916 0.0421 0.0
O585 O 0.01803 0.56156 0.97767 0.0
O586 O 0.95923 0.53292 0.00794 0.0
O587 O 0.9596 0.46865 0.0054 0.0
O588 O 0.07701 0.53357 0.00852 0.0
O589 O 0.07739 0.46925 0.00751 0.0
O590 O 0.05047 0.50413 0.94802 0.0
O591 O 0.98682 0.50224 0.94746 0.0
O592 O 0.04955 0.49954 0.06795 0.0
O593 O 0.98591 0.49967 0.06724 0.0
O594 O 0.04976 0.56063 0.00999 0.0
O595 O 0.98607 0.56037 0.01005 0.0
O596 O 0.05041 0.44195 0.00566 0.0
O597 O 0.98683 0.44148 0.00542 0.0
O598 O 0.0189 0.47123 0.94658 0.0
O599 O 0.01789 0.53557 0.94885 0.0
O600 O 0.01752 0.46652 0.06642 0.0
O601 O 0.01764 0.53091 0.06874 0.0
O602 O 0.95909 0.49987 0.0394 0.0
O603 O 0.9596 0.50181 0.97488 0.0
O604 O 0.07665 0.50179 0.04047 0.0
O605 O 0.07732 0.50217 0.97576 0.0
C606 C 0.51863 0.44874 0.05994 0.0
C607 C 0.5178 0.55392 0.06077 0.0
C608 C 0.51963 0.44954 0.95339 0.0
C609 C 0.51842 0.55478 0.95432 0.0
C610 C 0.57093 0.50234 0.95408 0.0
C611 C 0.57045 0.50178 0.06065 0.0
C612 C 0.46637 0.50166 0.95351 0.0
C613 C 0.466 0.50053 0.0602 0.0
C614 C 0.46555 0.55396 0.0063 0.0
C615 C 0.57008 0.55493 0.00699 0.0
C616 C 0.46644 0.44865 0.00683 0.0
C617 C 0.57091 0.44934 0.00807 0.0
Eu618 Eu 0.51825 0.50145 0.04858 0.0
O619 O 0.53735 0.52119 0.02686 0.0
O620 O 0.49934 0.48214 0.0263 0.0
Eu621 Eu 0.55917 0.50205 0.00733 0.0
Eu622 Eu 0.47753 0.50139 0.00691 0.0
O623 O 0.53753 0.4824 0.02646 0.0
O624 O 0.49882 0.52085 0.02677 0.0
Eu625 Eu 0.51864 0.46055 0.00673 0.0
Eu626 Eu 0.51793 0.54297 0.00751 0.0
O627 O 0.53782 0.48266 0.98751 0.0
O628 O 0.53736 0.52137 0.98798 0.0
O629 O 0.49918 0.52104 0.98771 0.0
O630 O 0.49938 0.48235 0.98726 0.0
Eu631 Eu 0.51861 0.50208 0.96562 0.0
O632 O 0.51859 0.46935 0.06682 0.0
O633 O 0.51904 0.53323 0.06725 0.0
O634 O 0.51954 0.4703 0.94701 0.0
O635 O 0.5189 0.53418 0.94744 0.0
O636 O 0.57745 0.50184 0.97499 0.0
O637 O 0.57714 0.50249 0.03981 0.0
O638 O 0.45966 0.50159 0.97436 0.0
O639 O 0.45948 0.50018 0.03929 0.0
O640 O 0.48598 0.56078 0.00623 0.0
O641 O 0.54957 0.56149 0.00777 0.0
O642 O 0.48698 0.44216 0.00707 0.0
O643 O 0.5505 0.44252 0.00714 0.0
O644 O 0.48694 0.5018 0.94703 0.0
O645 O 0.55043 0.50266 0.94741 0.0
O646 O 0.48645 0.50139 0.06695 0.0
O647 O 0.5499 0.50112 0.06712 0.0
O648 O 0.51662 0.56087 0.04003 0.0
O649 O 0.51788 0.5613 0.97522 0.0
O650 O 0.51856 0.44227 0.03901 0.0
O651 O 0.51913 0.44261 0.97419 0.0
O652 O 0.57731 0.47008 0.00838 0.0
O653 O 0.57674 0.53428 0.0066 0.0
O654 O 0.4597 0.46926 0.00643 0.0
O655 O 0.45913 0.53324 0.00699 0.0
C656 C 0.01851 0.44787 0.55902 0.0
C657 C 0.01839 0.45013 0.45263 0.0
C658 C 0.0194 0.55327 0.56129 0.0
C659 C 0.01862 0.55563 0.45503 0.0
C660 C 0.96627 0.5548 0.50736 0.0
C661 C 0.96556 0.44921 0.50687 0.0
C662 C 0.07114 0.55415 0.50727 0.0
C663 C 0.07035 0.44843 0.50681 0.0
C664 C 0.07099 0.50162 0.45398 0.0
C665 C 0.96627 0.50202 0.45353 0.0
C666 C 0.07047 0.50019 0.56039 0.0
C667 C 0.96572 0.50173 0.55992 0.0
Eu668 Eu 0.01802 0.46047 0.50617 0.0
O669 O 0.9992 0.48287 0.48691 0.0
O670 O 0.03715 0.48189 0.52617 0.0
Eu671 Eu 0.9776 0.50192 0.50677 0.0
Eu672 Eu 0.05907 0.50136 0.50716 0.0
O673 O 0.99895 0.48207 0.52612 0.0
O674 O 0.03742 0.48258 0.48714 0.0
Eu675 Eu 0.01814 0.50088 0.54863 0.0
Eu676 Eu 0.01861 0.50256 0.46533 0.0
O677 O 0.99924 0.5208 0.52682 0.0
O678 O 0.9995 0.52154 0.48776 0.0
O679 O 0.03773 0.52133 0.48793 0.0
O680 O 0.03754 0.52051 0.52701 0.0
Eu681 Eu 0.01865 0.54291 0.50785 0.0
O682 O 0.01785 0.44159 0.53806 0.0
O683 O 0.01779 0.4431 0.47338 0.0
O684 O 0.01999 0.56028 0.54055 0.0
O685 O 0.01797 0.56183 0.47601 0.0
O686 O 0.95969 0.53413 0.50622 0.0
O687 O 0.95917 0.46997 0.50669 0.0
O688 O 0.07742 0.53334 0.50717 0.0
O689 O 0.0769 0.46913 0.5073 0.0
O690 O 0.05056 0.50249 0.44708 0.0
O691 O 0.98679 0.50282 0.44685 0.0
O692 O 0.04995 0.50055 0.56707 0.0
O693 O 0.98616 0.50067 0.56677 0.0
O694 O 0.05068 0.56097 0.50753 0.0
O695 O 0.98682 0.56128 0.50858 0.0
O696 O 0.0498 0.44191 0.50612 0.0
O697 O 0.98603 0.44244 0.50675 0.0
O698 O 0.01888 0.47092 0.44632 0.0
O699 O 0.01928 0.53512 0.44781 0.0
O700 O 0.01887 0.46839 0.56619 0.0
O701 O 0.01818 0.53254 0.56771 0.0
O702 O 0.95936 0.50248 0.53899 0.0
O703 O 0.95972 0.50151 0.4744 0.0
O704 O 0.07704 0.50041 0.53951 0.0
O705 O 0.07726 0.50099 0.47494 0.0
C706 C 0.51771 0.94797 0.55942 0.0
C707 C 0.51861 0.94998 0.45322 0.0
C708 C 0.51823 0.05356 0.56113 0.0
C709 C 0.518 0.05565 0.45507 0.0
C710 C 0.46597 0.05465 0.50876 0.0
C711 C 0.46588 0.94892 0.50556 0.0
C712 C 0.57067 0.05454 0.50804 0.0
C713 C 0.57049 0.94878 0.50678 0.0
C714 C 0.57052 0.00297 0.45408 0.0
C715 C 0.46584 0.00219 0.45407 0.0
C716 C 0.57039 0.00228 0.56055 0.0
C717 C 0.46583 0.00113 0.56037 0.0
Eu718 Eu 0.51816 0.96073 0.50654 0.0
O719 O 0.4991 0.98293 0.48737 0.0
O720 O 0.53747 0.98199 0.52658 0.0
Eu721 Eu 0.47738 0.00178 0.50723 0.0
Eu722 Eu 0.55905 0.00168 0.50725 0.0
O723 O 0.49893 0.98208 0.52653 0.0
O724 O 0.53731 0.98288 0.48733 0.0
Eu725 Eu 0.51819 1.00091 0.54894 0.0
Eu726 Eu 0.51818 0.0026 0.46555 0.0
O727 O 0.49917 0.02062 0.52707 0.0
O728 O 0.49897 0.02153 0.48795 0.0
O729 O 0.53743 0.0214 0.48801 0.0
O730 O 0.53729 0.02056 0.52708 0.0
Eu731 Eu 0.51828 0.04281 0.50793 0.0
O732 O 0.5173 0.94194 0.53839 0.0
O733 O 0.51864 0.9431 0.474 0.0
O734 O 0.51869 0.06046 0.54038 0.0
O735 O 0.51845 0.06158 0.47612 0.0
O736 O 0.45939 0.03395 0.50871 0.0
O737 O 0.45932 0.96964 0.50573 0.0
O738 O 0.57723 0.03383 0.50736 0.0
O739 O 0.57712 0.96947 0.50723 0.0
O740 O 0.55004 0.00353 0.44734 0.0
O741 O 0.48633 0.00196 0.44732 0.0
O742 O 0.54995 0.00138 0.56735 0.0
O743 O 0.48631 0.0012 0.56715 0.0
O744 O 0.55012 0.06105 0.50843 0.0
O745 O 0.48649 0.06124 0.50822 0.0
O746 O 0.54992 0.94234 0.50647 0.0
O747 O 0.48639 0.94232 0.50599 0.0
O748 O 0.51837 0.97075 0.44672 0.0
O749 O 0.51763 0.03515 0.44774 0.0
O750 O 0.51848 0.96842 0.56679 0.0
O751 O 0.51773 0.03282 0.56768 0.0
O752 O 0.4593 1.00091 0.53949 0.0
O753 O 0.4593 0.00264 0.47495 0.0
O754 O 0.57691 0.0025 0.53965 0.0
O755 O 0.57707 0.00195 0.47493 0.0
C756 C 0.22783 0.16945 0.48843 0.0
C757 C 0.22787 0.18977 0.499 0.0
C758 C 0.20926 0.15666 0.48806 0.0
C759 C 0.15787 0.14835 0.51754 0.0
H760 H 0.14524 0.11149 0.4675 0.0
C761 C 0.0826 0.09231 0.5122 0.0
C762 C 0.08692 0.0708 0.50566 0.0
C763 C 0.0986 0.10829 0.51076 0.0
C764 C 0.14861 0.12166 0.48161 0.0
H765 H 0.20819 0.21283 0.517 0.0
H766 H 0.17551 0.19076 0.51579 0.0
H767 H 0.17493 0.13736 0.46544 0.0
H768 H 0.11137 0.04931 0.49225 0.0
H769 H 0.13911 0.07719 0.48964 0.0
H770 H 0.1314 0.13255 0.53362 0.0
C771 C 0.19001 0.18452 0.50816 0.0
C772 C 0.16566 0.13644 0.48048 0.0
C773 C 0.20867 0.19729 0.50864 0.0
C774 C 0.10751 0.06566 0.49756 0.0
C775 C 0.12337 0.08167 0.49587 0.0
C776 C 0.14067 0.13368 0.51858 0.0
C777 C 0.19015 0.16394 0.49807 0.0
C778 C 0.17078 0.14968 0.49858 0.0
C779 C 0.11909 0.10313 0.50244 0.0
C780 C 0.13615 0.11992 0.50077 0.0
H781 H 0.24223 0.16331 0.48052 0.0
H782 H 0.21008 0.14081 0.48037 0.0
H783 H 0.16149 0.15808 0.53189 0.0
H784 H 0.06692 0.0968 0.51856 0.0
H785 H 0.09487 0.12474 0.51587 0.0
C786 C 0.84917 0.21116 0.48804 0.0
C787 C 0.82906 0.21107 0.49866 0.0
C788 C 0.86201 0.19254 0.48771 0.0
C789 C 0.8707 0.14085 0.51745 0.0
H790 H 0.9081 0.12874 0.4679 0.0
C791 C 0.92723 0.06559 0.51233 0.0
C792 C 0.9486 0.07025 0.5062 0.0
C793 C 0.91127 0.08159 0.51086 0.0
C794 C 0.89778 0.13198 0.48187 0.0
H795 H 0.80637 0.19102 0.51667 0.0
H796 H 0.82852 0.15821 0.5155 0.0
H797 H 0.88194 0.15822 0.46546 0.0
H798 H 0.96989 0.09534 0.49356 0.0
H799 H 0.94199 0.12311 0.49085 0.0
H800 H 0.8866 0.1144 0.53374 0.0
C801 C 0.83457 0.17289 0.50784 0.0
C802 C 0.88283 0.14889 0.48053 0.0
C803 C 0.82175 0.19162 0.50829 0.0
C804 C 0.95363 0.09123 0.49855 0.0
C805 C 0.93763 0.10709 0.49681 0.0
C806 C 0.88552 0.12374 0.51869 0.0
C807 C 0.85499 0.17321 0.49778 0.0
C808 C 0.86939 0.15385 0.49846 0.0
C809 C 0.9163 0.10243 0.50292 0.0
C810 C 0.89947 0.11943 0.50107 0.0
H811 H 0.85514 0.22574 0.48011 0.0
H812 H 0.87772 0.19354 0.48004 0.0
H813 H 0.86083 0.14434 0.53169 0.0
H814 H 0.92284 0.0496 0.51834 0.0
H815 H 0.89492 0.07757 0.51561 0.0
C816 C 0.82138 0.81034 0.50309 0.0
C817 C 0.82877 0.79059 0.51199 0.0
C818 C 0.83455 0.82884 0.50334 0.0
C819 C 0.88369 0.85148 0.52992 0.0
H820 H 0.88672 0.88761 0.47778 0.0
C821 C 0.95432 0.90964 0.51306 0.0
C822 C 0.9492 0.93082 0.50609 0.0
C823 C 0.93836 0.89369 0.51435 0.0
C824 C 0.88586 0.87779 0.49253 0.0
H825 H 0.85543 0.77505 0.52889 0.0
H826 H 0.87853 0.80685 0.52863 0.0
H827 H 0.86072 0.8578 0.4794 0.0
H828 H 0.92334 0.95175 0.49466 0.0
H829 H 0.89551 0.92367 0.49667 0.0
H830 H 0.90929 0.87106 0.54272 0.0
C831 C 0.86252 0.80826 0.52168 0.0
C832 C 0.87092 0.86077 0.49352 0.0
C833 C 0.84938 0.78988 0.52153 0.0
C834 C 0.92781 0.93561 0.50016 0.0
C835 C 0.91189 0.91954 0.5012 0.0
C836 C 0.89872 0.86833 0.52883 0.0
C837 C 0.85535 0.82796 0.51252 0.0
C838 C 0.86989 0.8472 0.51211 0.0
C839 C 0.91699 0.89848 0.50848 0.0
C840 C 0.90016 0.88146 0.51002 0.0
H841 H 0.8056 0.81139 0.49557 0.0
H842 H 0.82843 0.84381 0.49635 0.0
H843 H 0.88301 0.84169 0.54469 0.0
H844 H 0.9706 0.90543 0.51786 0.0
H845 H 0.94278 0.87751 0.5198 0.0
C846 C 0.20941 0.8051 0.5049 0.0
C847 C 0.2286 0.81262 0.51455 0.0
C848 C 0.19076 0.81787 0.50535 0.0
C849 C 0.16639 0.86599 0.53296 0.0
H850 H 0.13228 0.86988 0.47973 0.0
C851 C 0.10807 0.93665 0.51586 0.0
C852 C 0.08751 0.93141 0.50774 0.0
C853 C 0.124 0.92072 0.51753 0.0
C854 C 0.14151 0.86876 0.49478 0.0
H855 H 0.24293 0.83906 0.53307 0.0
H856 H 0.2108 0.86157 0.53319 0.0
H857 H 0.16235 0.84435 0.48153 0.0
H858 H 0.06767 0.90535 0.49472 0.0
H859 H 0.09574 0.87755 0.49739 0.0
H860 H 0.14594 0.89095 0.54589 0.0
C861 C 0.20998 0.84572 0.52549 0.0
C862 C 0.15869 0.85408 0.49587 0.0
C863 C 0.22854 0.83293 0.52514 0.0
C864 C 0.08332 0.9099 0.50112 0.0
C865 C 0.09938 0.89401 0.50254 0.0
C866 C 0.14936 0.88078 0.53178 0.0
C867 C 0.19089 0.83845 0.51544 0.0
C868 C 0.17154 0.85274 0.51488 0.0
C869 C 0.11983 0.89925 0.5109 0.0
C870 C 0.13694 0.88252 0.51259 0.0
H871 H 0.20894 0.78956 0.49652 0.0
H872 H 0.17626 0.81165 0.4977 0.0
H873 H 0.17562 0.86506 0.54802 0.0
H874 H 0.11183 0.95302 0.52122 0.0
H875 H 0.13971 0.92526 0.5238 0.0
C876 C 0.50323 0.19156 0.20385 0.0
C877 C 0.51756 0.20912 0.20125 0.0
C878 C 0.50525 0.17296 0.19078 0.0
C879 C 0.52144 0.15854 0.13617 0.0
H880 H 0.52282 0.09855 0.15579 0.0
C881 C 0.53166 0.08916 0.07423 0.0
C882 C 0.52061 0.06961 0.07802 0.0
C883 C 0.53248 0.10518 0.09042 0.0
C884 C 0.52212 0.11519 0.15001 0.0
H885 H 0.54624 0.22013 0.18411 0.0
H886 H 0.54922 0.188 0.16084 0.0
H887 H 0.52216 0.12796 0.18286 0.0
H888 H 0.50176 0.05137 0.10166 0.0
H889 H 0.50229 0.07975 0.12964 0.0
H890 H 0.52039 0.14621 0.10349 0.0
C891 C 0.53642 0.18874 0.17291 0.0
C892 C 0.52189 0.13198 0.16553 0.0
C893 C 0.53461 0.20715 0.18615 0.0
C894 C 0.51049 0.06629 0.09837 0.0
C895 C 0.51093 0.08252 0.11445 0.0
C896 C 0.52126 0.14185 0.1207 0.0
C897 C 0.52146 0.17174 0.17476 0.0
C898 C 0.52173 0.15377 0.15869 0.0
C899 C 0.52185 0.10224 0.11064 0.0
C900 C 0.52179 0.11993 0.12736 0.0
H901 H 0.48982 0.1926 0.21518 0.0
H902 H 0.49348 0.16003 0.1924 0.0
H903 H 0.52093 0.17525 0.13052 0.0
H904 H 0.53992 0.092 0.05881 0.0
H905 H 0.54156 0.11984 0.08705 0.0
C906 C 0.84807 0.51812 0.21852 0.0
C907 C 0.82726 0.50914 0.21782 0.0
C908 C 0.86113 0.51815 0.19991 0.0
C909 C 0.86892 0.4902 0.14698 0.0
H910 H 0.90847 0.53801 0.13673 0.0
C911 C 0.92703 0.49508 0.07221 0.0
C912 C 0.94846 0.50059 0.07733 0.0
C913 C 0.91089 0.4965 0.08816 0.0
C914 C 0.89756 0.52451 0.13944 0.0
H915 H 0.8036 0.49367 0.19681 0.0
H916 H 0.82633 0.49417 0.16396 0.0
H917 H 0.88196 0.54068 0.16612 0.0
H918 H 0.96968 0.51192 0.10326 0.0
H919 H 0.94149 0.5145 0.13098 0.0
H920 H 0.88464 0.47413 0.12014 0.0
C921 C 0.83265 0.50083 0.17911 0.0
C922 C 0.8824 0.526 0.15629 0.0
C923 C 0.81955 0.50074 0.19784 0.0
C924 C 0.95339 0.50745 0.09877 0.0
C925 C 0.93721 0.50912 0.11461 0.0
C926 C 0.884 0.4888 0.12996 0.0
C927 C 0.85367 0.5094 0.18 0.0
C928 C 0.86819 0.50868 0.16059 0.0
C929 C 0.9158 0.50374 0.10945 0.0
C930 C 0.89874 0.50578 0.12634 0.0
H931 H 0.85436 0.52508 0.23355 0.0
H932 H 0.8773 0.52462 0.20132 0.0
H933 H 0.85838 0.47647 0.14996 0.0
H934 H 0.9227 0.48966 0.05587 0.0
H935 H 0.89449 0.49233 0.08375 0.0
C936 C 0.53587 0.82306 0.21511 0.0
C937 C 0.51894 0.8079 0.21665 0.0
C938 C 0.53771 0.83661 0.19681 0.0
C939 C 0.52336 0.84421 0.13935 0.0
H940 H 0.52187 0.90566 0.15361 0.0
C941 C 0.51055 0.91034 0.07291 0.0
C942 C 0.52052 0.93061 0.07598 0.0
C943 C 0.51136 0.89452 0.08942 0.0
C944 C 0.52275 0.88862 0.14923 0.0
H945 H 0.49123 0.79454 0.19949 0.0
H946 H 0.49504 0.81771 0.16719 0.0
H947 H 0.52283 0.8789 0.18299 0.0
H948 H 0.53988 0.94998 0.09821 0.0
H949 H 0.54217 0.92221 0.1265 0.0
H950 H 0.52385 0.85381 0.10558 0.0
C951 C 0.50673 0.81911 0.18033 0.0
C952 C 0.52319 0.8733 0.16612 0.0
C953 C 0.50465 0.80578 0.19882 0.0
C954 C 0.53174 0.93461 0.09557 0.0
C955 C 0.53294 0.91868 0.11184 0.0
C956 C 0.52335 0.85957 0.12237 0.0
C957 C 0.52292 0.83501 0.17946 0.0
C958 C 0.5234 0.851 0.16134 0.0
C959 C 0.52252 0.89851 0.10916 0.0
C960 C 0.52294 0.882 0.12709 0.0
H961 H 0.54747 0.8248 0.22828 0.0
H962 H 0.55048 0.84862 0.19635 0.0
H963 H 0.52358 0.82705 0.13531 0.0
H964 H 0.50168 0.90689 0.05799 0.0
H965 H 0.50284 0.87937 0.08684 0.0
C966 C 0.22837 0.52109 0.1763 0.0
C967 C 0.22869 0.51104 0.19703 0.0
C968 C 0.2096 0.52127 0.16371 0.0
C969 C 0.15812 0.49203 0.15664 0.0
H970 H 0.14496 0.54106 0.11884 0.0
C971 C 0.08259 0.49614 0.10025 0.0
C972 C 0.08688 0.50236 0.07845 0.0
C973 C 0.09857 0.49788 0.11637 0.0
C974 C 0.14847 0.52724 0.12929 0.0
H975 H 0.20934 0.49373 0.22101 0.0
H976 H 0.17632 0.49458 0.19923 0.0
H977 H 0.17492 0.54353 0.14459 0.0
H978 H 0.11129 0.5155 0.05656 0.0
H979 H 0.13898 0.5186 0.08465 0.0
H980 H 0.13156 0.4758 0.14119 0.0
C981 C 0.19074 0.50197 0.19256 0.0
C982 C 0.16567 0.52861 0.144 0.0
C983 C 0.20959 0.5017 0.20514 0.0
C984 C 0.10744 0.51043 0.07315 0.0
C985 C 0.12327 0.5124 0.08927 0.0
C986 C 0.14078 0.49074 0.14204 0.0
C987 C 0.19058 0.51157 0.17158 0.0
C988 C 0.171 0.51086 0.15753 0.0
C989 C 0.11901 0.50617 0.11103 0.0
C990 C 0.13608 0.50818 0.12792 0.0
H991 H 0.2427 0.52874 0.16971 0.0
H992 H 0.21018 0.52858 0.14753 0.0
H993 H 0.1619 0.47796 0.16663 0.0
H994 H 0.06693 0.48983 0.10487 0.0
H995 H 0.09487 0.49303 0.13305 0.0
C996 C 0.49117 0.79488 0.83266 0.0
C997 C 0.5024 0.79387 0.81266 0.0
C998 C 0.49101 0.81394 0.84502 0.0
C999 C 0.5227 0.86376 0.85395 0.0
H1000 H 0.47407 0.87873 0.89101 0.0
C1001 C 0.52147 0.93782 0.91326 0.0
C1002 C 0.51475 0.93299 0.93479 0.0
C1003 C 0.5193 0.92242 0.89653 0.0
C1004 C 0.48777 0.8747 0.88076 0.0
H1005 H 0.52142 0.81239 0.78937 0.0
H1006 H 0.52071 0.84607 0.8108 0.0
H1007 H 0.47033 0.8499 0.86379 0.0
H1008 H 0.50041 0.90822 0.95559 0.0
H1009 H 0.49645 0.88146 0.9263 0.0
H1010 H 0.54007 0.8887 0.87105 0.0
C1011 C 0.5124 0.8319 0.81712 0.0
C1012 C 0.48567 0.85818 0.8652 0.0
C1013 C 0.51262 0.81271 0.80474 0.0
C1014 C 0.50585 0.91243 0.93922 0.0
C1015 C 0.5034 0.89717 0.92243 0.0
C1016 C 0.52471 0.88048 0.86937 0.0
C1017 C 0.5019 0.8326 0.83761 0.0
C1018 C 0.50328 0.85211 0.85199 0.0
C1019 C 0.51006 0.90204 0.90093 0.0
C1020 C 0.50742 0.88574 0.88326 0.0
H1021 H 0.48283 0.78074 0.83903 0.0
H1022 H 0.48298 0.81373 0.86081 0.0
H1023 H 0.53667 0.85937 0.84425 0.0
H1024 H 0.52848 0.95349 0.90933 0.0
H1025 H 0.52451 0.92657 0.88007 0.0
C1026 C 0.21618 0.50111 0.8168 0.0
C1027 C 0.20859 0.50924 0.79666 0.0
C1028 C 0.20309 0.50176 0.83553 0.0
C1029 C 0.15385 0.52816 0.85794 0.0
H1030 H 0.15089 0.477 0.89511 0.0
C1031 C 0.08302 0.51185 0.91654 0.0
C1032 C 0.08793 0.50467 0.93788 0.0
C1033 C 0.09911 0.5133 0.90059 0.0
C1034 C 0.15175 0.49149 0.88502 0.0
H1035 H 0.18169 0.52523 0.78059 0.0
H1036 H 0.15876 0.52574 0.81284 0.0
H1037 H 0.17697 0.4783 0.86509 0.0
H1038 H 0.11365 0.49313 0.95909 0.0
H1039 H 0.1417 0.4955 0.93107 0.0
H1040 H 0.12818 0.54105 0.87748 0.0
C1041 C 0.17484 0.51906 0.81437 0.0
C1042 C 0.16672 0.49229 0.86788 0.0
C1043 C 0.18789 0.51847 0.79576 0.0
C1044 C 0.10931 0.4988 0.94284 0.0
C1045 C 0.12537 0.50004 0.92679 0.0
C1046 C 0.1388 0.52729 0.87494 0.0
C1047 C 0.1822 0.51061 0.83447 0.0
C1048 C 0.16771 0.5105 0.85391 0.0
C1049 C 0.12044 0.50741 0.90555 0.0
C1050 C 0.13738 0.50883 0.88845 0.0
H1051 H 0.23204 0.49386 0.81799 0.0
H1052 H 0.20932 0.49531 0.85081 0.0
H1053 H 0.15449 0.54263 0.84781 0.0
H1054 H 0.06676 0.51657 0.91215 0.0
H1055 H 0.09481 0.51879 0.88426 0.0
C1056 C 0.51489 0.20238 0.81653 0.0
C1057 C 0.50347 0.19497 0.79803 0.0
C1058 C 0.51689 0.18912 0.83516 0.0
C1059 C 0.51909 0.13195 0.84907 0.0
H1060 H 0.50438 0.14786 0.90882 0.0
C1061 C 0.51076 0.0673 0.91603 0.0
C1062 C 0.51767 0.07215 0.93743 0.0
C1063 C 0.51001 0.08349 0.9 0.0
C1064 C 0.50891 0.14328 0.89228 0.0
H1065 H 0.48371 0.16872 0.78526 0.0
H1066 H 0.48766 0.14555 0.81741 0.0
H1067 H 0.50107 0.17486 0.87938 0.0
H1068 H 0.52932 0.09786 0.95878 0.0
H1069 H 0.5285 0.12607 0.93058 0.0
H1070 H 0.5272 0.1006 0.86163 0.0
C1071 C 0.49531 0.1614 0.8174 0.0
C1072 C 0.50695 0.15872 0.87548 0.0
C1073 C 0.49313 0.17464 0.799 0.0
C1074 C 0.52382 0.0936 0.94245 0.0
C1075 C 0.52326 0.1098 0.92632 0.0
C1076 C 0.5213 0.11666 0.8658 0.0
C1077 C 0.50762 0.16827 0.8354 0.0
C1078 C 0.51156 0.15297 0.85368 0.0
C1079 C 0.5164 0.10491 0.90488 0.0
C1080 C 0.51575 0.12193 0.88754 0.0
H1081 H 0.52302 0.21797 0.81624 0.0
H1082 H 0.52642 0.19474 0.84893 0.0
H1083 H 0.5231 0.12728 0.8324 0.0
H1084 H 0.50562 0.05102 0.91166 0.0
H1085 H 0.50414 0.07922 0.88382 0.0
C1086 C 0.82073 0.50247 0.81622 0.0
C1087 C 0.82826 0.49427 0.79609 0.0
C1088 C 0.83401 0.50227 0.83481 0.0
C1089 C 0.88404 0.47706 0.85693 0.0
H1090 H 0.88608 0.52839 0.89387 0.0
C1091 C 0.95465 0.49471 0.91538 0.0
C1092 C 0.94949 0.50135 0.93683 0.0
C1093 C 0.93865 0.49327 0.89933 0.0
C1094 C 0.8855 0.51386 0.88382 0.0
H1095 H 0.85528 0.47859 0.77994 0.0
H1096 H 0.87854 0.47889 0.81192 0.0
H1097 H 0.85983 0.52639 0.86404 0.0
H1098 H 0.9235 0.51208 0.95812 0.0
H1099 H 0.89561 0.50977 0.92991 0.0
H1100 H 0.91014 0.46485 0.87632 0.0
C1101 C 0.86236 0.48528 0.81356 0.0
C1102 C 0.87043 0.51266 0.86679 0.0
C1103 C 0.84911 0.4854 0.79509 0.0
C1104 C 0.92801 0.50683 0.94177 0.0
C1105 C 0.91205 0.50562 0.92562 0.0
C1106 C 0.8992 0.47835 0.87379 0.0
C1107 C 0.85506 0.49381 0.83363 0.0
C1108 C 0.86974 0.49437 0.85293 0.0
C1109 C 0.91719 0.49864 0.9043 0.0
C1110 C 0.90028 0.49688 0.88722 0.0
H1111 H 0.80475 0.50945 0.8175 0.0
H1112 H 0.82781 0.50875 0.85009 0.0
H1113 H 0.88364 0.46252 0.8469 0.0
H1114 H 0.97099 0.49028 0.91103 0.0
H1115 H 0.94309 0.48808 0.88294 0.0
C1116 C 0.72935 0.66883 0.99347 0.0
C1117 C 0.72904 0.68971 0.00284 0.0
C1118 C 0.71078 0.65606 0.9931 0.0
C1119 C 0.65796 0.64914 0.02012 0.0
H1120 H 0.64717 0.6116 0.97012 0.0
C1121 C 0.5825 0.59351 0.01221 0.0
C1122 C 0.58698 0.57191 0.00612 0.0
C1123 C 0.59863 0.60941 0.01127 0.0
C1124 C 0.65002 0.62196 0.98422 0.0
H1125 H 0.70886 0.71363 0.01902 0.0
H1126 H 0.67618 0.69147 0.0179 0.0
H1127 H 0.6773 0.63699 0.96911 0.0
H1128 H 0.61189 0.55015 0.99403 0.0
H1129 H 0.63982 0.57785 0.9923 0.0
H1130 H 0.63055 0.63396 0.03515 0.0
C1131 C 0.69094 0.68486 0.01114 0.0
C1132 C 0.66731 0.63646 0.98369 0.0
C1133 C 0.70959 0.69765 0.01158 0.0
C1134 C 0.60787 0.56659 -0.00105 0.0
C1135 C 0.62386 0.58249 0.99778 0.0
C1136 C 0.64052 0.63471 0.02056 0.0
C1137 C 0.69133 0.66389 0.00193 0.0
C1138 C 0.67177 0.64991 0.0018 0.0
C1139 C 0.61942 0.60405 0.00392 0.0
C1140 C 0.63666 0.6207 0.00278 0.0
H1141 H 0.74395 0.66233 0.98627 0.0
H1142 H 0.71178 0.63987 0.98616 0.0
H1143 H 0.66104 0.6591 0.03443 0.0
H1144 H 0.5666 0.59813 0.01786 0.0
H1145 H 0.59478 0.62593 0.01602 0.0
C1146 C 0.32131 0.6917 0.00789 0.0
C1147 C 0.32847 0.7112 0.99827 0.0
C1148 C 0.3342 0.67302 0.00728 0.0
C1149 C 0.38237 0.64928 0.97958 0.0
H1150 H 0.3867 0.61482 0.03278 0.0
C1151 C 0.45348 0.59174 0.99709 0.0
C1152 C 0.44858 0.57084 0.00504 0.0
C1153 C 0.43742 0.60755 0.99533 0.0
C1154 C 0.38546 0.62415 0.01773 0.0
H1155 H 0.35433 0.72604 0.97953 0.0
H1156 H 0.37703 0.69392 0.97916 0.0
H1157 H 0.3608 0.64464 0.03092 0.0
H1158 H 0.42298 0.55026 0.01764 0.0
H1159 H 0.39497 0.5781 0.01485 0.0
H1160 H 0.40762 0.62921 0.96675 0.0
C1161 C 0.36139 0.69284 0.98696 0.0
C1162 C 0.37057 0.64119 0.01661 0.0
C1163 C 0.34848 0.71141 0.98746 0.0
C1164 C 0.42728 0.56618 0.01139 0.0
C1165 C 0.41126 0.58212 0.0099 0.0
C1166 C 0.3974 0.63241 0.98081 0.0
C1167 C 0.35454 0.67346 0.99706 0.0
C1168 C 0.36905 0.65417 0.99762 0.0
C1169 C 0.41616 0.60291 0.00172 0.0
C1170 C 0.39928 0.61987 -1e-05 0.0
H1171 H 0.306 0.69102 0.01641 0.0
H1172 H 0.32828 0.65829 0.01495 0.0
H1173 H 0.38133 0.65859 0.96452 0.0
H1174 H 0.46969 0.59584 0.99193 0.0
H1175 H 0.44169 0.62352 0.98918 0.0
C1176 C 0.35014 0.29021 0.0221 0.0
C1177 C 0.32959 0.29092 0.01243 0.0
C1178 C 0.36326 0.30862 0.02241 0.0
C1179 C 0.37175 0.3612 0.99442 0.0
H1180 H 0.40975 0.37152 0.04391 0.0
C1181 C 0.4283 0.43619 0.00138 0.0
C1182 C 0.44968 0.43152 0.00748 0.0
C1183 C 0.41244 0.42007 0.00238 0.0
C1184 C 0.39929 0.36878 0.02994 0.0
H1185 H 0.3065 0.31174 0.99593 0.0
H1186 H 0.32927 0.3442 0.99697 0.0
H1187 H 0.38355 0.34205 0.04564 0.0
H1188 H 0.47109 0.40626 0.01953 0.0
H1189 H 0.44336 0.37824 0.02139 0.0
H1190 H 0.38756 0.38811 0.97884 0.0
C1191 C 0.33537 0.32921 0.00395 0.0
C1192 C 0.3843 0.35187 0.03089 0.0
C1193 C 0.32223 0.31069 0.00355 0.0
C1194 C 0.45482 0.4104 0.01461 0.0
C1195 C 0.43892 0.39438 0.01585 0.0
C1196 C 0.38663 0.37827 0.99357 0.0
C1197 C 0.35611 0.32833 0.01326 0.0
C1198 C 0.37062 0.34759 0.01298 0.0
C1199 C 0.41757 0.39906 0.00978 0.0
C1200 C 0.4008 0.38195 0.01117 0.0
H1201 H 0.35618 0.27536 0.02945 0.0
H1202 H 0.37922 0.30721 0.02946 0.0
H1203 H 0.36165 0.35823 0.98024 0.0
H1204 H 0.42381 0.45228 0.99574 0.0
H1205 H 0.39608 0.42412 0.99769 0.0
C1206 C 0.70917 0.30554 0.00565 0.0
C1207 C 0.72851 0.31291 0.01508 0.0
C1208 C 0.69063 0.31848 0.00627 0.0
C1209 C 0.66698 0.367 0.03393 0.0
H1210 H 0.63221 0.37074 0.98114 0.0
C1211 C 0.60856 0.43778 0.01708 0.0
C1212 C 0.5879 0.43248 0.00926 0.0
C1213 C 0.62452 0.42184 0.01868 0.0
C1214 C 0.64163 0.36967 0.99608 0.0
H1215 H 0.74324 0.33925 0.03344 0.0
H1216 H 0.71132 0.36205 0.03382 0.0
H1217 H 0.66213 0.34503 0.98272 0.0
H1218 H 0.56789 0.4063 0.99677 0.0
H1219 H 0.59596 0.37851 -0.00067 0.0
H1220 H 0.64687 0.3922 0.04694 0.0
C1221 C 0.71028 0.34619 0.02616 0.0
C1222 C 0.65873 0.35488 0.99704 0.0
C1223 C 0.72873 0.33323 0.02565 0.0
C1224 C 0.58362 0.41091 0.00292 0.0
C1225 C 0.59969 0.39502 0.00428 0.0
C1226 C 0.65004 0.38191 0.03287 0.0
C1227 C 0.69103 0.33909 0.01631 0.0
C1228 C 0.67181 0.35357 0.01588 0.0
C1229 C 0.62025 0.40032 0.0123 0.0
C1230 C 0.63737 0.38358 0.01384 0.0
H1231 H 0.70848 0.29 0.9973 0.0
H1232 H 0.67601 0.31237 -0.00122 0.0
H1233 H 0.67639 0.36611 0.04888 0.0
H1234 H 0.61239 0.4542 0.02221 0.0
H1235 H 0.6403 0.42643 0.0247 0.0
C1236 C 1.00232 0.69318 0.70324 0.0
C1237 C 0.0168 0.71066 0.70081 0.0
C1238 C 0.00419 0.67466 0.69003 0.0
C1239 C 0.02074 0.65973 0.63554 0.0
H1240 H 0.02186 0.6 0.65601 0.0
C1241 C 0.03156 0.58954 0.57467 0.0
C1242 C 0.02041 0.57006 0.57855 0.0
C1243 C 0.03226 0.60573 0.59069 0.0
C1244 C 0.02123 0.61656 0.64999 0.0
H1245 H 0.04543 0.72165 0.68356 0.0
H1246 H 0.04811 0.68969 0.66 0.0
H1247 H 0.02094 0.62978 0.68265 0.0
H1248 H 1.00131 0.5521 0.6022 0.0
H1249 H 1.00164 0.5808 0.62988 0.0
H1250 H 0.02003 0.64694 0.60303 0.0
C1251 C 0.03533 0.69044 0.67211 0.0
C1252 C 0.02085 0.63356 0.66527 0.0
C1253 C 0.03368 0.70876 0.68551 0.0
C1254 C 0.01012 0.56696 0.59884 0.0
C1255 C 0.01044 0.58338 0.61474 0.0
C1256 C 0.02071 0.64281 0.6203 0.0
C1257 C 0.02037 0.67343 0.67398 0.0
C1258 C 0.02078 0.65526 0.65812 0.0
C1259 C 0.0214 0.60306 0.61081 0.0
C1260 C 0.02115 0.62098 0.62727 0.0
H1261 H 0.98898 0.69414 0.71466 0.0
H1262 H 0.9924 0.66176 0.69166 0.0
H1263 H 0.02031 0.67636 0.62966 0.0
H1264 H 0.03996 0.5922 0.5593 0.0
H1265 H 0.04139 0.62034 0.58724 0.0
C1266 C 0.34805 0.01876 0.71863 0.0
C1267 C 0.32731 0.00961 0.71778 0.0
C1268 C 0.36123 0.01892 0.70011 0.0
C1269 C 0.36953 0.99104 0.64721 0.0
H1270 H 0.40885 0.03909 0.63714 0.0
C1271 C 0.42748 0.99623 0.57245 0.0
C1272 C 0.44889 0.00191 0.57746 0.0
C1273 C 0.41139 0.99759 0.58847 0.0
C1274 C 0.39801 0.02552 0.63981 0.0
H1275 H 0.30392 0.994 0.69657 0.0
H1276 H 0.32686 0.99473 0.66389 0.0
H1277 H 0.38224 0.04155 0.66647 0.0
H1278 H 0.47013 0.01355 0.60324 0.0
H1279 H 0.44202 0.01602 0.63108 0.0
H1280 H 0.3854 0.97509 0.6204 0.0
C1281 C 0.33303 0.00142 0.67909 0.0
C1282 C 0.38279 0.0269 0.65662 0.0
C1283 C 0.31981 0.00119 0.69773 0.0
C1284 C 0.45385 0.00893 0.59884 0.0
C1285 C 0.43772 0.01053 0.61475 0.0
C1286 C 0.38466 0.98975 0.63023 0.0
C1287 C 0.35398 0.01013 0.68013 0.0
C1288 C 0.36865 0.0095 0.66083 0.0
C1289 C 0.41633 0.00494 0.60971 0.0
C1290 C 0.39931 0.00682 0.62666 0.0
H1291 H 0.35419 0.02574 0.73371 0.0
H1292 H 0.37735 0.02551 0.70164 0.0
H1293 H 0.35906 0.97724 0.65013 0.0
H1294 H 0.42312 0.99069 0.55616 0.0
H1295 H 0.39501 0.99327 0.58413 0.0
C1296 C 0.00344 0.30271 0.69596 0.0
C1297 C 0.01758 0.30545 0.71381 0.0
C1298 C 0.00533 0.31591 0.67732 0.0
C1299 C 0.02005 0.37067 0.66412 0.0
H1300 H 0.02257 0.35303 0.60307 0.0
C1301 C 0.02971 0.43412 0.59581 0.0
C1302 C 0.01915 0.43057 0.57577 0.0
C1303 C 0.03052 0.41775 0.61166 0.0
C1304 C 0.02153 0.35824 0.62002 0.0
H1305 H 0.0459 0.32277 0.72527 0.0
H1306 H 0.04869 0.34619 0.69306 0.0
H1307 H 0.02243 0.32536 0.632 0.0
H1308 H 1.001 0.40722 0.55656 0.0
H1309 H 1.00151 0.37892 0.58462 0.0
H1310 H 0.01816 0.40334 0.65258 0.0
C1311 C 0.03612 0.33396 0.6936 0.0
C1312 C 0.0216 0.34238 0.63652 0.0
C1313 C 0.03444 0.32063 0.71203 0.0
C1314 C 0.00938 0.41033 0.57185 0.0
C1315 C 0.00981 0.39407 0.5879 0.0
C1316 C 0.01957 0.38646 0.64771 0.0
C1317 C 0.02122 0.33213 0.67639 0.0
C1318 C 0.02108 0.34853 0.65868 0.0
C1319 C 0.02036 0.39758 0.60805 0.0
C1320 C 0.02051 0.38052 0.62542 0.0
H1321 H 0.9902 0.29127 0.69687 0.0
H1322 H 0.99362 0.31429 0.66422 0.0
H1323 H 0.01924 0.37575 0.68114 0.0
H1324 H 0.03767 0.44946 0.59913 0.0
H1325 H 0.03928 0.42092 0.6267 0.0
C1326 C 0.72897 0.02118 0.67572 0.0
C1327 C 0.72903 0.01116 0.69647 0.0
C1328 C 0.71029 0.02156 0.66299 0.0
C1329 C 0.65854 0.99285 0.65568 0.0
H1330 H 0.64612 0.04183 0.61756 0.0
C1331 C 0.58307 0.99761 0.59943 0.0
C1332 C 0.58734 0.00368 0.57758 0.0
C1333 C 0.59914 0.99926 0.61546 0.0
C1334 C 0.64943 0.02802 0.62809 0.0
H1335 H 0.70931 0.99415 0.72035 0.0
H1336 H 0.67645 0.99536 0.69835 0.0
H1337 H 0.67602 0.04407 0.64342 0.0
H1338 H 0.61177 0.01641 0.5555 0.0
H1339 H 0.63964 0.01935 0.58346 0.0
H1340 H 0.63184 0.97687 0.64024 0.0
C1341 C 0.69101 0.00256 0.69175 0.0
C1342 C 0.66659 0.02926 0.64286 0.0
C1343 C 0.70977 0.00209 0.70447 0.0
C1344 C 0.60795 0.01148 0.57213 0.0
C1345 C 0.62388 0.01336 0.58818 0.0
C1346 C 0.64124 0.9917 0.64103 0.0
C1347 C 0.69112 0.01209 0.67074 0.0
C1348 C 0.67163 0.01153 0.65654 0.0
C1349 C 0.61965 0.00728 0.60999 0.0
C1350 C 0.63679 0.00912 0.62681 0.0
H1351 H 0.74344 0.02864 0.66921 0.0
H1352 H 0.71108 0.02881 0.6468 0.0
H1353 H 0.66211 0.97879 0.66577 0.0
H1354 H 0.56738 0.99148 0.60415 0.0
H1355 H 0.59545 0.99452 0.63218 0.0
C1356 C 0.03699 0.29872 0.32291 0.0
C1357 C 0.01796 0.29462 0.31118 0.0
C1358 C 0.03897 0.31745 0.33568 0.0
C1359 C 0.01377 0.37103 0.34812 0.0
H1360 H 0.03837 0.3607 0.40573 0.0
C1361 C 0.02337 0.43907 0.41326 0.0
C1362 C 0.0188 0.43338 0.43516 0.0
C1363 C 0.02429 0.42313 0.39693 0.0
C1364 C 0.03133 0.36384 0.38977 0.0
H1365 H 0.9864 0.30719 0.30282 0.0
H1366 H 0.98962 0.33977 0.32547 0.0
H1367 H 0.03845 0.33172 0.37869 0.0
H1368 H 0.01112 0.40645 0.4569 0.0
H1369 H 0.01235 0.37883 0.42843 0.0
H1370 H 0.00583 0.40293 0.35967 0.0
C1371 C 1.00321 0.32875 0.32454 0.0
C1372 C 0.03168 0.34731 0.3741 0.0
C1373 C 1.00132 0.31008 0.31159 0.0
C1374 C 0.0149 0.41144 0.44027 0.0
C1375 C 0.01572 0.39554 0.42395 0.0
C1376 C 0.01334 0.38758 0.36386 0.0
C1377 C 0.02185 0.33237 0.33718 0.0
C1378 C 0.02275 0.35062 0.35315 0.0
C1379 C 0.02059 0.40116 0.40212 0.0
C1380 C 0.02189 0.38406 0.38496 0.0
H1381 H 0.05015 0.28714 0.32261 0.0
H1382 H 0.05374 0.31999 0.3448 0.0
H1383 H 0.00694 0.37418 0.33206 0.0
H1384 H 0.02657 0.4558 0.40873 0.0
H1385 H 0.02829 0.42796 0.38032 0.0
C1386 C 0.68748 0.01787 0.29483 0.0
C1387 C 0.70827 0.00885 0.29583 0.0
C1388 C 0.67434 0.01834 0.31338 0.0
C1389 C 0.66625 0.99157 0.3669 0.0
H1390 H 0.6273 0.04003 0.3763 0.0
C1391 C 0.60885 0.9981 0.44189 0.0
C1392 C 0.58745 0.00387 0.43696 0.0
C1393 C 0.62486 0.99926 0.42578 0.0
C1394 C 0.63803 0.02635 0.37381 0.0
H1395 H 0.73176 0.99371 0.31728 0.0
H1396 H 0.70888 0.99495 0.34999 0.0
H1397 H 0.65366 0.04177 0.34668 0.0
H1398 H 0.56614 0.01546 0.4112 0.0
H1399 H 0.59409 0.01754 0.38319 0.0
H1400 H 0.6505 0.97622 0.39415 0.0
C1401 C 0.70265 0.00132 0.33467 0.0
C1402 C 0.65311 0.02731 0.35684 0.0
C1403 C 0.71583 1.0008 0.31601 0.0
C1404 C 0.58242 0.01082 0.41557 0.0
C1405 C 0.59846 0.01218 0.39955 0.0
C1406 C 0.65125 0.99069 0.38401 0.0
C1407 C 0.68169 0.00997 0.33351 0.0
C1408 C 0.66712 0.00976 0.3529 0.0
C1409 C 0.61983 0.00645 0.40449 0.0
C1410 C 0.63674 0.00792 0.38737 0.0
H1411 H 0.68129 0.02457 0.27963 0.0
H1412 H 0.65821 0.02486 0.31177 0.0
H1413 H 0.67663 0.97767 0.36418 0.0
H1414 H 0.61327 0.9926 0.45819 0.0
H1415 H 0.64122 0.99483 0.43005 0.0
C1416 C 0.03256 0.68394 0.30332 0.0
C1417 C 0.01549 0.6988 0.30094 0.0
C1418 C 0.03389 0.67068 0.32182 0.0
C1419 C 0.01883 0.66174 0.3783 0.0
H1420 H 0.01529 0.6009 0.36176 0.0
C1421 C 0.00874 0.59312 0.44267 0.0
C1422 C 0.01866 0.57303 0.43835 0.0
C1423 C 0.00852 0.60949 0.42674 0.0
C1424 C 0.0167 0.61775 0.36676 0.0
H1425 H 0.98743 0.71264 0.31693 0.0
H1426 H 0.99019 0.68966 0.3498 0.0
H1427 H 0.01587 0.62876 0.33343 0.0
H1428 H 0.03674 0.55452 0.41433 0.0
H1429 H 0.03723 0.58328 0.38692 0.0
H1430 H 0.02044 0.6508 0.41163 0.0
C1431 C 1.00231 0.68823 0.33706 0.0
C1432 C 0.01686 0.63369 0.35049 0.0
C1433 C 1.00079 0.70139 0.31833 0.0
C1434 C 0.02869 0.56974 0.41798 0.0
C1435 C 0.02885 0.58623 0.40223 0.0
C1436 C 0.01908 0.64573 0.39466 0.0
C1437 C 0.01842 0.67226 0.33851 0.0
C1438 C 0.018 0.65577 0.35611 0.0
C1439 C 0.01856 0.60626 0.40628 0.0
C1440 C 0.0181 0.62349 0.38907 0.0
H1441 H 0.04442 0.68193 0.29042 0.0
H1442 H 0.04661 0.65864 0.32277 0.0
H1443 H 0.01976 0.67873 0.38294 0.0
H1444 H 1.00073 0.59603 0.45821 0.0
H1445 H 1.00014 0.62451 0.43037 0.0
C1446 C 0.34857 0.985 0.29541 0.0
C1447 C 0.32781 0.9941 0.29622 0.0
C1448 C 0.36169 0.9848 0.31398 0.0
C1449 C 0.36975 0.01248 0.36704 0.0
H1450 H 0.40901 0.96438 0.37707 0.0
C1451 C 0.42749 0.00704 0.44195 0.0
C1452 C 0.44891 0.00138 0.43697 0.0
C1453 C 0.41144 0.00571 0.4259 0.0
C1454 C 0.39819 0.97796 0.37441 0.0
H1455 H 0.30432 0.00963 0.31739 0.0
H1456 H 0.32715 0.00884 0.35015 0.0
H1457 H 0.38253 0.96204 0.34762 0.0
H1458 H 0.47021 0.98982 0.41119 0.0
H1459 H 0.44216 0.98742 0.3833 0.0
H1460 H 0.38552 0.02832 0.39397 0.0
C1461 C 0.33338 0.00221 0.33495 0.0
C1462 C 0.38304 0.97666 0.35753 0.0
C1463 C 0.32023 0.00247 0.31626 0.0
C1464 C 0.45391 0.99441 0.41558 0.0
C1465 C 0.43782 0.99285 0.39964 0.0
C1466 C 0.38482 0.01369 0.38408 0.0
C1467 C 0.35435 0.99352 0.33396 0.0
C1468 C 0.36893 0.99407 0.35333 0.0
C1469 C 0.41643 0.99843 0.40465 0.0
C1470 C 0.39945 0.99661 0.38764 0.0
H1471 H 0.35477 0.97806 0.28033 0.0
H1472 H 0.37781 0.97824 0.31249 0.0
H1473 H 0.3593 0.02629 0.36413 0.0
H1474 H 0.4231 0.01254 0.45824 0.0
H1475 H 0.39505 0.01003 0.43021 0.0
C1476 C 0.0078 0.2149 0.33879 0.0
C1477 C 0.01503 0.21403 0.31692 0.0
C1478 C 0.00963 0.19686 0.35249 0.0
C1479 C 0.01345 0.13781 0.35348 0.0
H1480 H 0.036 0.1474 0.41211 0.0
C1481 C 0.02454 0.06793 0.41645 0.0
C1482 C 0.01906 0.07257 0.43838 0.0
C1483 C 0.02535 0.08453 0.40076 0.0
C1484 C 0.02946 0.14447 0.39589 0.0
H1485 H 0.02928 0.1932 0.29211 0.0
H1486 H 0.03208 0.16128 0.31617 0.0
H1487 H 0.03502 0.17738 0.38597 0.0
H1488 H 0.00975 0.09829 0.46088 0.0
H1489 H 0.01075 0.12705 0.43351 0.0
H1490 H 0.0073 0.10503 0.36359 0.0
C1491 C 0.02517 0.17615 0.3226 0.0
C1492 C 0.029 0.16162 0.3809 0.0
C1493 C 0.02352 0.19437 0.30886 0.0
C1494 C 0.01425 0.09415 0.44421 0.0
C1495 C 0.01493 0.11069 0.42851 0.0
C1496 C 0.01375 0.12063 0.36857 0.0
C1497 C 0.0185 0.17737 0.34464 0.0
C1498 C 0.02068 0.15856 0.35968 0.0
C1499 C 0.02061 0.10611 0.40662 0.0
C1500 C 0.02145 0.12387 0.39007 0.0
H1501 H 1.00058 0.22955 0.34537 0.0
H1502 H 0.00391 0.1981 0.36925 0.0
H1503 H 0.00682 0.13508 0.33726 0.0
H1504 H 0.02849 0.05152 0.4114 0.0
H1505 H 0.03001 0.08048 0.38412 0.0
C1506 C 0.82017 0.01743 0.31625 0.0
C1507 C 0.82813 0.01622 0.29466 0.0
C1508 C 0.83382 0.01387 0.3342 0.0
C1509 C 0.88703 0.99062 0.34968 0.0
H1510 H 0.88281 0.03036 0.39893 0.0
C1511 C 0.95483 0.99994 0.41373 0.0
C1512 C 0.94902 0.00225 0.43594 0.0
C1513 C 0.93915 1.00015 0.39726 0.0
C1514 C 0.88402 0.01894 0.38545 0.0
H1515 H 0.85652 0.00946 0.27503 0.0
H1516 H 0.88036 0.0037 0.30623 0.0
H1517 H 0.85699 0.03299 0.36887 0.0
H1518 H 0.92196 0.00647 0.45816 0.0
H1519 H 0.89463 0.00681 0.42936 0.0
H1520 H 0.91432 0.97684 0.3661 0.0
C1521 C 0.86354 0.00724 0.30936 0.0
C1522 C 0.86919 0.02042 0.36821 0.0
C1523 C 0.84992 0.0108 0.29144 0.0
C1524 C 0.92707 0.00468 0.44125 0.0
C1525 C 0.91139 0.00499 0.42473 0.0
C1526 C 0.90188 0.98918 0.36688 0.0
C1527 C 0.85574 0.00897 0.33097 0.0
C1528 C 0.87065 0.00644 0.34998 0.0
C1529 C 0.91725 0.00274 0.40254 0.0
C1530 C 0.90071 0.00348 0.38485 0.0
H1531 H 0.80352 0.02173 0.31933 0.0
H1532 H 0.82721 0.01507 0.35061 0.0
H1533 H 0.8884 0.97933 0.3361 0.0
H1534 H 0.97153 0.99797 0.40895 0.0
H1535 H 0.94425 0.99866 0.38031 0.0
C1536 C 0.98783 0.83444 0.2939 0.0
C1537 C 1.00244 0.81776 0.28845 0.0
C1538 C 0.99207 0.84859 0.31128 0.0
C1539 C 0.01571 0.85245 0.36417 0.0
H1540 H 0.01849 0.91466 0.35406 0.0
C1541 C 0.02799 0.91385 0.43546 0.0
C1542 C 0.01741 0.93396 0.43365 0.0
C1543 C 0.02821 0.89935 0.41773 0.0
C1544 C 0.01744 0.89737 0.35728 0.0
H1545 H 0.03328 0.80332 0.29715 0.0
H1546 H 0.03997 0.82747 0.32832 0.0
H1547 H 0.01497 0.88997 0.32297 0.0
H1548 H 0.99806 0.95435 0.41232 0.0
H1549 H 0.99751 0.92884 0.38197 0.0
H1550 H 0.01687 0.85969 0.39849 0.0
C1551 C 0.02538 0.82952 0.31877 0.0
C1552 C 0.01566 0.88327 0.33942 0.0
C1553 C 0.02141 0.81563 0.30102 0.0
C1554 C 0.00664 0.93909 0.41406 0.0
C1555 C 0.0065 0.92448 0.39656 0.0
C1556 C 0.01704 0.86657 0.38213 0.0
C1557 C 0.01074 0.84611 0.32395 0.0
C1558 C 0.01456 0.86075 0.34274 0.0
C1559 C 0.01753 0.90453 0.39798 0.0
C1560 C 0.0176 0.88927 0.37894 0.0
H1561 H 0.9728 0.83636 0.2851 0.0
H1562 H 0.98046 0.86118 0.31518 0.0
H1563 H 0.01471 0.83508 0.36704 0.0
H1564 H 0.03655 0.90957 0.45035 0.0
H1565 H 0.03709 0.88428 0.4194 0.0
C1566 C 0.1862 0.99311 0.29143 0.0
C1567 C 0.20793 0.98749 0.2947 0.0
C1568 C 0.17257 0.99682 0.3093 0.0
C1569 C 0.16669 0.98361 0.36812 0.0
H1570 H 0.12201 0.02767 0.36606 0.0
C1571 C 0.109 0.99941 0.44118 0.0
C1572 C 0.08707 0.00206 0.43592 0.0
C1573 C 0.12467 0.99918 0.42466 0.0
C1574 C 0.13432 0.01519 0.36683 0.0
H1575 H 0.23244 0.98179 0.31943 0.0
H1576 H 0.20874 0.9887 0.35065 0.0
H1577 H 0.14791 0.02496 0.33605 0.0
H1578 H 0.06459 0.00686 0.40899 0.0
H1579 H 0.09186 0.00629 0.38033 0.0
H1580 H 0.15296 0.97372 0.39881 0.0
C1581 C 0.20218 0.98995 0.33422 0.0
C1582 C 0.14916 0.01364 0.34962 0.0
C1583 C 0.21584 0.98624 0.31631 0.0
C1584 C 0.08128 0.00473 0.41374 0.0
C1585 C 0.09695 0.00458 0.39726 0.0
C1586 C 0.15187 0.9852 0.38536 0.0
C1587 C 0.18031 0.99503 0.33094 0.0
C1588 C 0.16539 0.99766 0.34992 0.0
C1589 C 0.11883 0.0017 0.40249 0.0
C1590 C 0.13535 1.00084 0.38479 0.0
H1591 H 0.17965 0.99448 0.275 0.0
H1592 H 0.15579 1.0005 0.30614 0.0
H1593 H 0.17876 0.97091 0.36876 0.0
H1594 H 0.11412 0.99736 0.45806 0.0
H1595 H 0.14141 0.99715 0.42926 0.0
C1596 C 0.99816 0.8069 0.70065 0.0
C1597 C 0.0151 0.79175 0.70078 0.0
C1598 C 0.99901 0.82507 0.68687 0.0
C1599 C 0.03537 0.85971 0.65438 0.0
H1600 H 0.98523 0.86893 0.61746 0.0
C1601 C 0.02564 0.93386 0.59662 0.0
C1602 C 0.01856 0.92933 0.57516 0.0
C1603 C 0.02556 0.91764 0.61268 0.0
C1604 C 0.99935 0.8665 0.62763 0.0
H1605 H 0.04663 0.7842 0.68754 0.0
H1606 H 0.04822 0.81609 0.6636 0.0
H1607 H 0.98467 0.84025 0.64525 0.0
H1608 H 0.00579 0.90423 0.55376 0.0
H1609 H 0.00549 0.87594 0.58195 0.0
H1610 H 0.05009 0.88589 0.63661 0.0
C1611 C 0.03428 0.81388 0.67406 0.0
C1612 C 0.99895 0.85027 0.64367 0.0
C1613 C 0.03332 0.7956 0.68765 0.0
C1614 C 0.01142 0.90822 0.57011 0.0
C1615 C 0.0111 0.89207 0.58626 0.0
C1616 C 0.03567 0.87613 0.6385 0.0
C1617 C 0.01692 0.82853 0.67318 0.0
C1618 C 0.01701 0.84661 0.65709 0.0
C1619 C 0.01817 0.89663 0.6077 0.0
C1620 C 0.01773 0.87955 0.62485 0.0
H1621 H 0.98387 0.80422 0.7105 0.0
H1622 H 0.9855 0.83623 0.68664 0.0
H1623 H 0.04948 0.85727 0.66457 0.0
H1624 H 0.03136 0.94992 0.60103 0.0
H1625 H 0.03097 0.92162 0.62911 0.0
C1626 C 0.18574 0.00996 0.72214 0.0
C1627 C 0.20745 0.01571 0.71894 0.0
C1628 C 0.1722 0.00613 0.70421 0.0
C1629 C 0.16646 0.01915 0.64534 0.0
H1630 H 0.12213 0.97473 0.64734 0.0
C1631 C 0.10905 0.00279 0.57215 0.0
C1632 C 0.08714 0.99997 0.57738 0.0
C1633 C 0.1247 0.00316 0.5887 0.0
C1634 C 0.13433 0.98731 0.64659 0.0
H1635 H 0.23201 0.02154 0.69429 0.0
H1636 H 0.20848 0.01443 0.66299 0.0
H1637 H 0.14789 0.97772 0.67744 0.0
H1638 H 0.06466 0.99505 0.6043 0.0
H1639 H 0.09186 0.99585 0.63299 0.0
H1640 H 0.15275 0.02886 0.61458 0.0
C1641 C 0.20186 0.01317 0.6794 0.0
C1642 C 0.1491 0.98903 0.66384 0.0
C1643 C 0.21542 0.01699 0.69736 0.0
C1644 C 0.08133 0.99728 0.59957 0.0
C1645 C 0.09698 0.99758 0.61607 0.0
C1646 C 0.15171 0.0174 0.62805 0.0
C1647 C 0.18002 0.00793 0.6826 0.0
C1648 C 0.16519 0.00514 0.66357 0.0
C1649 C 0.11884 1.00062 0.61086 0.0
C1650 C 0.13531 0.00163 0.6286 0.0
H1651 H 0.17913 0.00857 0.73854 0.0
H1652 H 0.15543 0.00234 0.70732 0.0
H1653 H 0.17843 0.03195 0.64471 0.0
H1654 H 0.11418 0.00486 0.55527 0.0
H1655 H 0.14143 0.00531 0.58412 0.0
C1656 C 1.00098 0.19508 0.70084 0.0
C1657 C 1.00037 0.18758 0.72266 0.0
C1658 C 0.00487 0.18067 0.68354 0.0
C1659 C 1.0003 0.1226 0.66978 0.0
H1660 H 0.03472 0.13829 0.61901 0.0
C1661 C 0.01942 0.06078 0.60185 0.0
C1662 C 0.01777 0.06787 0.57993 0.0
C1663 C 0.01865 0.07563 0.61915 0.0
C1664 C 0.0249 0.13377 0.63299 0.0
H1665 H 0.00429 0.15924 0.74348 0.0
H1666 H 0.01117 0.13408 0.71329 0.0
H1667 H 0.03157 0.16368 0.64971 0.0
H1668 H 0.01438 0.09636 0.55913 0.0
H1669 H 0.01281 0.12228 0.58945 0.0
H1670 H 0.99346 0.09282 0.65308 0.0
C1671 C 0.00824 0.15105 0.70953 0.0
C1672 C 0.02312 0.14829 0.65058 0.0
C1673 C 0.00433 0.16545 0.72683 0.0
C1674 C 0.0157 0.09029 0.57577 0.0
C1675 C 0.01491 0.10518 0.59315 0.0
C1676 C 1.00208 0.10812 0.65223 0.0
C1677 C 0.00824 0.15844 0.68766 0.0
C1678 C 0.01078 0.14286 0.66918 0.0
C1679 C 0.01617 0.09797 0.61504 0.0
C1680 C 0.0144 0.11351 0.63363 0.0
H1681 H 0.99769 0.21197 0.69703 0.0
H1682 H 0.00449 0.18685 0.66689 0.0
H1683 H 0.9903 0.11809 0.68364 0.0
H1684 H 0.02125 0.04369 0.60579 0.0
H1685 H 0.02006 0.06957 0.63579 0.0
C1686 C 0.80943 0.98521 0.68037 0.0
C1687 C 0.80882 0.99919 0.69864 0.0
C1688 C 0.82799 0.98351 0.66751 0.0
C1689 C 0.87794 0.01408 0.65418 0.0
H1690 H 0.89178 0.96147 0.62202 0.0
C1691 C 0.95337 0.00529 0.59852 0.0
C1692 C 0.94913 0.9976 0.57721 0.0
C1693 C 0.93739 0.0046 0.61472 0.0
C1694 C 0.88806 0.97627 0.63089 0.0
H1695 H 0.8278 0.02154 0.71827 0.0
H1696 H 0.8605 0.01776 0.69651 0.0
H1697 H 0.86262 0.96102 0.64888 0.0
H1698 H 0.92494 0.98276 0.5563 0.0
H1699 H 0.89719 0.98123 0.58473 0.0
H1700 H 0.9037 0.02913 0.63629 0.0
C1701 C 0.84636 0.00863 0.69167 0.0
C1702 C 0.87129 0.97608 0.64623 0.0
C1703 C 0.82767 0.01054 0.70439 0.0
C1704 C 0.92868 0.98894 0.57252 0.0
C1705 C 0.91284 0.98791 0.58882 0.0
C1706 C 0.89492 0.01415 0.63909 0.0
C1707 C 0.84662 0.99549 0.67273 0.0
C1708 C 0.86573 0.99509 0.65783 0.0
C1709 C 0.917 0.99584 0.61003 0.0
C1710 C 0.89992 0.99534 0.62705 0.0
H1711 H 0.79538 0.97586 0.67568 0.0
H1712 H 0.82738 0.97336 0.65299 0.0
H1713 H 0.87397 0.02915 0.66243 0.0
H1714 H 0.96894 0.01214 0.60263 0.0
H1715 H 0.94102 0.01076 0.63097 0.0
C1716 C 0.33792 0.02152 0.21277 0.0
C1717 C 0.32395 0.00372 0.2152 0.0
C1718 C 0.35141 0.0231 0.19447 0.0
C1719 C 0.36265 0.9996 0.13912 0.0
H1720 H 0.42085 0.01859 0.15214 0.0
C1721 C 0.42782 0.00823 0.07163 0.0
C1722 C 0.44905 0.00222 0.07703 0.0
C1723 C 0.41186 0.00926 0.08781 0.0
C1724 C 0.40474 0.01305 0.14822 0.0
H1725 H 0.31246 0.97405 0.20004 0.0
H1726 H 0.33628 0.97651 0.16824 0.0
H1727 H 0.39374 0.01916 0.18086 0.0
H1728 H 0.46999 0.99227 0.10375 0.0
H1729 H 0.44211 0.99357 0.13181 0.0
H1730 H 0.37398 0.99261 0.10668 0.0
C1731 C 0.33661 0.9895 0.18023 0.0
C1732 C 0.38904 0.01373 0.16464 0.0
C1733 C 0.32294 0.98806 0.19845 0.0
C1734 C 0.45387 0.99712 0.099 0.0
C1735 C 0.43787 0.99799 0.11514 0.0
C1736 C 0.37842 0.99879 0.1227 0.0
C1737 C 0.35144 0.00675 0.1783 0.0
C1738 C 0.36779 0.00695 0.16035 0.0
C1739 C 0.41667 0.00418 0.10979 0.0
C1740 C 0.39971 0.0054 0.12708 0.0
H1741 H 0.33884 0.03393 0.22537 0.0
H1742 H 0.36218 0.03691 0.19328 0.0
H1743 H 0.34643 0.99444 0.13514 0.0
H1744 H 0.42352 0.01246 0.05493 0.0
H1745 H 0.39582 0.01441 0.08311 0.0
C1746 C 0.99712 0.30682 0.20157 0.0
C1747 C 0.99666 0.28528 0.19379 0.0
C1748 C 1.00078 0.32414 0.1872 0.0
C1749 C 0.99673 0.33879 0.1287 0.0
H1750 H 0.03202 0.3881 0.14563 0.0
C1751 C 0.01853 0.40634 0.06743 0.0
C1752 C 0.01718 0.428 0.07477 0.0
C1753 C 0.01705 0.38907 0.08221 0.0
C1754 C 0.02195 0.37454 0.14077 0.0
H1755 H 1.00024 0.26503 0.16489 0.0
H1756 H 0.0067 0.29529 0.13975 0.0
H1757 H 0.02795 0.3574 0.17079 0.0
H1758 H 0.01362 0.44837 0.10366 0.0
H1759 H 0.01089 0.41809 0.12948 0.0
H1760 H 0.99065 0.35589 0.09877 0.0
C1761 C 0.0039 0.29879 0.15695 0.0
C1762 C 0.01963 0.35695 0.15516 0.0
C1763 C 1.00022 0.28145 0.17133 0.0
C1764 C 0.01473 0.43193 0.0974 0.0
C1765 C 0.01326 0.41457 0.11222 0.0
C1766 C 0.99907 0.35634 0.11434 0.0
C1767 C 0.00405 0.32035 0.16469 0.0
C1768 C 0.00698 0.33887 0.14928 0.0
C1769 C 0.01418 0.39295 0.10474 0.0
C1770 C 0.01171 0.37441 0.12019 0.0
H1771 H 0.99408 0.31036 0.21872 0.0
H1772 H 1.00046 0.34055 0.19365 0.0
H1773 H 0.98654 0.32532 0.12384 0.0
H1774 H 0.0206 0.40258 0.05018 0.0
H1775 H 0.01822 0.37262 0.07595 0.0
C1776 C 0.71347 0.0139 0.19807 0.0
C1777 C 0.71256 0.99836 0.21495 0.0
C1778 C 0.69989 0.01217 0.17981 0.0
C1779 C 0.64781 0.98722 0.16423 0.0
H1780 H 0.66273 0.00847 0.10626 0.0
C1781 C 0.58288 0.00366 0.09871 0.0
C1782 C 0.58771 0.99878 0.0767 0.0
C1783 C 0.5989 0.0027 0.11482 0.0
C1784 C 0.65834 0.00224 0.12228 0.0
H1785 H 0.69796 0.96807 0.22534 0.0
H1786 H 0.6748 0.96457 0.19317 0.0
H1787 H 0.69026 0.00692 0.13475 0.0
H1788 H 0.61322 0.98883 0.05447 0.0
H1789 H 0.64098 0.98672 0.08261 0.0
H1790 H 0.61606 0.98204 0.1517 0.0
C1791 C 0.68541 0.97851 0.19429 0.0
C1792 C 0.67409 0.00159 0.13872 0.0
C1793 C 0.6988 0.98039 0.21263 0.0
C1794 C 0.60894 0.99289 0.07122 0.0
C1795 C 0.62492 0.99176 0.08737 0.0
C1796 C 0.63213 0.98772 0.14779 0.0
C1797 C 0.68527 0.99473 0.17797 0.0
C1798 C 0.66898 0.99424 0.15997 0.0
C1799 C 0.62012 0.99665 0.10939 0.0
C1800 C 0.6371 0.99545 0.12665 0.0
H1801 H 0.72378 0.02804 0.19959 0.0
H1802 H 0.70013 0.02508 0.16772 0.0
H1803 H 0.64312 0.98177 0.18046 0.0
H1804 H 0.56676 0.00843 0.10352 0.0
H1805 H 0.59467 0.00698 0.13152 0.0
C1806 C 1.0011 0.67153 0.22068 0.0
C1807 C 0.01056 0.6923 0.21979 0.0
C1808 C 1.00265 0.65735 0.20294 0.0
C1809 C 0.01066 0.65385 0.14387 0.0
H1810 H 0.02903 0.59493 0.15702 0.0
C1811 C 0.02477 0.58978 0.0759 0.0
C1812 C 0.01815 0.56835 0.08034 0.0
C1813 C 0.02479 0.60547 0.09247 0.0
C1814 C 0.02362 0.61122 0.15307 0.0
H1815 H 0.02833 0.71478 0.19915 0.0
H1816 H 0.03063 0.68993 0.16771 0.0
H1817 H 0.02693 0.62169 0.1864 0.0
H1818 H 0.00609 0.54665 0.10562 0.0
H1819 H 0.00563 0.5741 0.13439 0.0
H1820 H 0.00675 0.64326 0.11064 0.0
C1821 C 0.0222 0.68471 0.18237 0.0
C1822 C 0.02252 0.62656 0.16989 0.0
C1823 C 0.02083 0.69892 0.2003 0.0
C1824 C 0.0115 0.56296 0.1017 0.0
C1825 C 0.01133 0.5787 0.11823 0.0
C1826 C 0.01155 0.63841 0.12703 0.0
C1827 C 0.01346 0.66365 0.18374 0.0
C1828 C 0.01582 0.64794 0.16551 0.0
C1829 C 0.01803 0.60014 0.11384 0.0
C1830 C 0.01784 0.61684 0.13148 0.0
H1831 H 0.99256 0.66615 0.23522 0.0
H1832 H 0.99536 0.64138 0.20424 0.0
H1833 H 0.00529 0.6702 0.14012 0.0
H1834 H 0.03019 0.59444 0.05964 0.0
H1835 H 0.03037 0.62172 0.08858 0.0
C1836 C 0.32229 0.01555 0.81551 0.0
C1837 C 0.32326 0.99989 0.79876 0.0
C1838 C 0.33598 0.0141 0.83371 0.0
C1839 C 0.38846 0.98992 0.84909 0.0
H1840 H 0.37361 0.01088 0.90716 0.0
C1841 C 0.45353 0.00629 0.91452 0.0
C1842 C 0.4488 1.001 0.93645 0.0
C1843 C 0.43746 0.00555 0.89844 0.0
C1844 C 0.37799 0.00475 0.8911 0.0
H1845 H 0.33811 0.96967 0.78856 0.0
H1846 H 0.3615 0.96668 0.82062 0.0
H1847 H 0.34595 0.0091 0.8788 0.0
H1848 H 0.42337 0.99061 0.95861 0.0
H1849 H 0.39554 0.9889 0.93055 0.0
H1850 H 0.42032 0.98506 0.86145 0.0
C1851 C 0.35073 0.98049 0.81944 0.0
C1852 C 0.36216 0.00396 0.87475 0.0
C1853 C 0.33721 0.98207 0.80117 0.0
C1854 C 0.42759 0.99497 0.94192 0.0
C1855 C 0.41156 0.99408 0.92581 0.0
C1856 C 0.40422 0.99057 0.86544 0.0
C1857 C 0.3508 0.99685 0.83561 0.0
C1858 C 0.36722 0.99666 0.85348 0.0
C1859 C 0.41628 0.99932 0.90385 0.0
C1860 C 0.39926 0.99817 0.88662 0.0
H1861 H 0.31182 0.02957 0.81393 0.0
H1862 H 0.33568 0.02709 0.8457 0.0
H1863 H 0.39311 0.98453 0.83283 0.0
H1864 H 0.46963 0.01119 0.90974 0.0
H1865 H 0.44162 0.01009 0.88179 0.0
C1866 C 0.01983 0.30339 0.81463 0.0
C1867 C 0.01027 0.31051 0.79496 0.0
C1868 C 0.02117 0.31739 0.83274 0.0
C1869 C 0.02312 0.37547 0.84547 0.0
H1870 H 0.00616 0.35915 0.90449 0.0
C1871 C 0.01293 0.43931 0.91352 0.0
C1872 C 0.01915 0.43378 0.93499 0.0
C1873 C 0.01258 0.42356 0.89701 0.0
C1874 C 0.01128 0.36388 0.88817 0.0
H1875 H 0.99335 0.33729 0.77937 0.0
H1876 H 0.99605 0.36166 0.81068 0.0
H1877 H 0.00422 0.33232 0.87492 0.0
H1878 H 0.03023 0.4074 0.95586 0.0
H1879 H 0.0301 0.38009 0.92693 0.0
H1880 H 0.03042 0.40686 0.85849 0.0
C1881 C 1.00285 0.34547 0.812 0.0
C1882 C 0.01012 0.34851 0.87127 0.0
C1883 C 1.00135 0.33152 0.79408 0.0
C1884 C 0.02518 0.41218 0.93953 0.0
C1885 C 0.02501 0.39647 0.92296 0.0
C1886 C 0.02448 0.39074 0.86234 0.0
C1887 C 0.01309 0.33872 0.83137 0.0
C1888 C 0.01569 0.3543 0.84971 0.0
C1889 C 0.01866 0.40196 0.9015 0.0
C1890 C 0.01826 0.38526 0.88384 0.0
H1891 H 0.02687 0.28731 0.81578 0.0
H1892 H 0.02914 0.31181 0.84754 0.0
H1893 H 0.02787 0.38024 0.82903 0.0
H1894 H 0.00796 0.45573 0.90951 0.0
H1895 H 0.00721 0.42829 0.88077 0.0
C1896 C 0.70934 0.01447 0.80885 0.0
C1897 C 0.7301 0.01106 0.81747 0.0
C1898 C 0.69106 0.01135 0.82193 0.0
C1899 C 0.67241 0.98574 0.87389 0.0
H1900 H 0.62719 0.0292 0.87095 0.0
C1901 C 0.60923 0.99623 0.94224 0.0
C1902 C 0.58773 1.0004 0.93623 0.0
C1903 C 0.62556 0.99598 0.92647 0.0
C1904 C 0.63952 0.01675 0.87175 0.0
H1905 H 0.74781 1.00094 0.84643 0.0
H1906 H 0.71604 0.99598 0.86934 0.0
H1907 H 0.65762 0.03129 0.84567 0.0
H1908 H 0.56663 0.00747 0.90869 0.0
H1909 H 0.59525 0.00706 0.88114 0.0
H1910 H 0.65452 0.97149 0.9003 0.0
C1911 C 0.71383 1.00087 0.8524 0.0
C1912 C 0.65697 0.01792 0.85724 0.0
C1913 C 0.73209 0.00397 0.83933 0.0
C1914 C 0.58298 0.00421 0.91395 0.0
C1915 C 0.5994 0.00408 0.89816 0.0
C1916 C 0.65501 0.98461 0.88842 0.0
C1917 C 0.69309 0.00473 0.84395 0.0
C1918 C 0.67378 0.00259 0.85833 0.0
C1919 C 0.62087 0.99996 0.90426 0.0
C1920 C 0.63851 1.00027 0.88773 0.0
H1921 H 0.70721 0.02013 0.79214 0.0
H1922 H 0.67533 0.01423 0.8148 0.0
H1923 H 0.68484 0.97341 0.8749 0.0
H1924 H 0.61357 0.99317 0.95919 0.0
H1925 H 0.64197 0.99305 0.93177 0.0
C1926 C 0.99784 0.69423 0.81252 0.0
C1927 C 0.99693 0.71574 0.82032 0.0
C1928 C 1.0018 0.67698 0.82692 0.0
C1929 C 0.99732 0.66261 0.88542 0.0
H1930 H 0.03312 0.61341 0.86931 0.0
C1931 C 0.01861 0.59571 0.94753 0.0
C1932 C 0.01739 0.574 0.94033 0.0
C1933 C 0.01734 0.61286 0.93258 0.0
C1934 C 0.02291 0.62695 0.87394 0.0
H1935 H 1.00029 0.73609 0.84918 0.0
H1936 H 0.00729 0.70599 0.87433 0.0
H1937 H 0.02911 0.64389 0.84384 0.0
H1938 H 0.01433 0.55339 0.91154 0.0
H1939 H 0.01192 0.58346 0.88545 0.0
H1940 H 0.99099 0.64571 0.91542 0.0
C1941 C 0.00454 0.70243 0.85714 0.0
C1942 C 0.02063 0.64441 0.85937 0.0
C1943 C 1.00056 0.71967 0.84274 0.0
C1944 C 0.01531 0.56989 0.9177 0.0
C1945 C 0.01404 0.58711 0.90272 0.0
C1946 C 0.9996 0.6452 0.89995 0.0
C1947 C 0.00494 0.68086 0.84944 0.0
C1948 C 0.00781 0.66244 0.86497 0.0
C1949 C 0.0148 0.60879 0.91004 0.0
C1950 C 0.01244 0.62719 0.89441 0.0
H1951 H 0.99483 0.69064 0.79538 0.0
H1952 H 1.00173 0.66056 0.8205 0.0
H1953 H 0.98697 0.67603 0.89006 0.0
H1954 H 0.02042 0.5996 0.96478 0.0
H1955 H 0.01838 0.62937 0.93872 0.0
C1956 C 0.21745 0.31258 0.01916 0.0
C1957 C 0.20952 0.29122 0.01724 0.0
C1958 C 0.20382 0.33048 0.01585 0.0
C1959 C 0.15059 0.34644 0.99233 0.0
H1960 H 0.15438 0.39414 0.0338 0.0
C1961 C 0.08224 0.40936 0.00289 0.0
C1962 C 0.08784 0.43133 0.00611 0.0
C1963 C 0.09804 0.39313 0.00277 0.0
C1964 C 0.15327 0.38111 0.02189 0.0
H1965 H 0.18125 0.27204 0.00928 0.0
H1966 H 0.15751 0.30307 0.00393 0.0
H1967 H 0.18041 0.36447 0.03567 0.0
H1968 H 0.11472 0.45328 0.01162 0.0
H1969 H 0.14223 0.42492 0.01135 0.0
H1970 H 0.12321 0.3629 0.97881 0.0
C1971 C 0.17426 0.3061 0.00787 0.0
C1972 C 0.16824 0.36408 0.02293 0.0
C1973 C 0.18784 0.28825 0.01119 0.0
C1974 C 0.10973 0.43658 0.00912 0.0
C1975 C 0.12554 0.42029 0.00909 0.0
C1976 C 0.1356 0.36343 0.99133 0.0
C1977 C 0.18195 0.32747 0.01045 0.0
C1978 C 0.16696 0.34638 0.00833 0.0
C1979 C 0.11989 0.39834 0.00592 0.0
C1980 C 0.13658 0.38086 0.00625 0.0
H1981 H 0.23401 0.31548 0.02392 0.0
H1982 H 0.21039 0.3467 0.01769 0.0
H1983 H 0.14932 0.33332 0.98055 0.0
H1984 H 0.06561 0.40461 0.0005 0.0
H1985 H 0.09305 0.37638 0.00058 0.0
C1986 C 0.18717 0.715 0.00811 0.0
C1987 C 0.20853 0.71231 0.00084 0.0
C1988 C 0.17362 0.69704 0.01101 0.0
C1989 C 0.16675 0.63982 0.99311 0.0
H1990 H 0.12315 0.63905 0.03872 0.0
C1991 C 0.10899 0.56656 0.00614 0.0
C1992 C 0.08715 0.57156 0.00991 0.0
C1993 C 0.12469 0.58294 0.00625 0.0
C1994 C 0.13513 0.63908 0.02578 0.0
H1995 H 0.23251 0.68836 0.99158 0.0
H1996 H 0.20901 0.65694 0.99716 0.0
H1997 H 0.14927 0.66865 0.03748 0.0
H1998 H 0.06491 0.59792 0.01699 0.0
H1999 H 0.09223 0.62634 0.01712 0.0
H2000 H 0.15252 0.61025 0.98141 0.0
C2001 C 0.20262 0.67304 0.00024 0.0
C2002 C 0.15013 0.65608 0.02505 0.0
C2003 C 0.21621 0.69106 0.99731 0.0
C2004 C 0.08151 0.59337 0.01398 0.0
C2005 C 0.09723 0.6097 0.01422 0.0
C2006 C 0.1518 0.62276 0.99391 0.0
C2007 C 0.18103 0.67581 0.00682 0.0
C2008 C 0.166 0.65686 0.00854 0.0
C2009 C 0.11902 0.60473 0.01029 0.0
C2010 C 0.13563 0.6223 0.01009 0.0
H2011 H 0.18078 0.73108 0.0113 0.0
H2012 H 0.15709 0.69993 0.01589 0.0
H2013 H 0.17849 0.63998 0.97995 0.0
H2014 H 0.114 0.54998 0.00295 0.0
H2015 H 0.14134 0.5785 0.00336 0.0
C2016 C 0.33995 0.20773 0.98661 0.0
C2017 C 0.32556 0.21044 0.00421 0.0
C2018 C 0.35345 0.18955 0.9856 0.0
C2019 C 0.36402 0.13483 0.01026 0.0
H2020 H 0.42228 0.14673 0.99064 0.0
C2021 C 0.4282 0.06674 0.00122 0.0
C2022 C 0.44968 0.07179 0.0066 0.0
C2023 C 0.41242 0.08301 0.00052 0.0
C2024 C 0.40616 0.1431 0.99639 0.0
H2025 H 0.31346 0.19588 0.03414 0.0
H2026 H 0.33728 0.16426 0.03267 0.0
H2027 H 0.39559 0.17555 0.98998 0.0
H2028 H 0.47121 0.09804 0.01588 0.0
H2029 H 0.44371 0.12622 0.01515 0.0
H2030 H 0.37493 0.10256 0.0175 0.0
C2031 C 0.33793 0.17596 0.01939 0.0
C2032 C 0.39068 0.15961 0.99565 0.0
C2033 C 0.32424 0.19408 0.02026 0.0
C2034 C 0.45491 0.09352 0.01148 0.0
C2035 C 0.4391 0.10976 0.01094 0.0
C2036 C 0.37958 0.11832 0.01112 0.0
C2037 C 0.35313 0.17372 0.00233 0.0
C2038 C 0.36937 0.15575 0.00258 0.0
C2039 C 0.41765 0.10478 0.00531 0.0
C2040 C 0.40091 0.12225 0.00426 0.0
H2041 H 0.34116 0.22001 0.97391 0.0
H2042 H 0.36446 0.18815 0.97188 0.0
H2043 H 0.34777 0.13114 0.01556 0.0
H2044 H 0.42354 0.05023 0.99722 0.0
H2045 H 0.39619 0.07855 0.99581 0.0
C2046 C 0.82712 0.3045 0.01533 0.0
C2047 C 0.80838 0.31032 0.00371 0.0
C2048 C 0.84583 0.31723 0.01388 0.0
C2049 C 0.871 0.36297 0.98184 0.0
H2050 H 0.90384 0.37145 0.03533 0.0
C2051 C 0.9289 0.43557 0.99539 0.0
C2052 C 0.94941 0.43085 0.004 0.0
C2053 C 0.91298 0.41947 0.99433 0.0
C2054 C 0.89494 0.36908 0.02021 0.0
H2055 H 0.79526 0.33348 0.98038 0.0
H2056 H 0.8272 0.35605 0.97865 0.0
H2057 H 0.87402 0.34561 0.03496 0.0
H2058 H 0.96915 0.40549 0.01846 0.0
H2059 H 0.94111 0.3775 0.01705 0.0
H2060 H 0.89147 0.38723 0.96747 0.0
C2061 C 0.82775 0.34152 0.98868 0.0
C2062 C 0.87788 0.35415 0.01992 0.0
C2063 C 0.80919 0.32868 0.98993 0.0
C2064 C 0.95357 0.40965 0.01164 0.0
C2065 C 0.93749 0.39364 0.01095 0.0
C2066 C 0.88783 0.37813 0.98226 0.0
C2067 C 0.84628 0.33622 0.0009 0.0
C2068 C 0.86549 0.351 0.00078 0.0
C2069 C 0.91705 0.39836 0.00219 0.0
C2070 C 0.89987 0.38148 0.00149 0.0
H2071 H 0.82713 0.29054 0.02619 0.0
H2072 H 0.85985 0.31229 0.02321 0.0
H2073 H 0.86228 0.36072 0.96661 0.0
H2074 H 0.92518 0.45168 0.98926 0.0
H2075 H 0.89733 0.42363 0.98766 0.0
C2076 C 0.70695 0.80159 0.99391 0.0
C2077 C 0.72792 0.81006 0.99595 0.0
C2078 C 0.6889 0.81497 0.99697 0.0
C2079 C 0.67183 0.86834 0.02028 0.0
H2080 H 0.62485 0.86361 0.97858 0.0
C2081 C 0.60892 0.93645 0.00916 0.0
C2082 C 0.58719 0.93065 0.00597 0.0
C2083 C 0.6251 0.92063 0.00933 0.0
C2084 C 0.63768 0.86496 0.99055 0.0
H2085 H 0.74625 0.83908 0.00376 0.0
H2086 H 0.71495 0.8624 0.00871 0.0
H2087 H 0.65474 0.83786 0.97689 0.0
H2088 H 0.56562 0.90339 0.00046 0.0
H2089 H 0.59394 0.87578 0.00077 0.0
H2090 H 0.65497 0.89566 0.03369 0.0
C2091 C 0.71236 0.8454 0.00487 0.0
C2092 C 0.65484 0.85017 0.98961 0.0
C2093 C 0.73036 0.83206 0.00179 0.0
C2094 C 0.58213 0.90852 0.00295 0.0
C2095 C 0.5984 0.89267 0.00302 0.0
C2096 C 0.65473 0.88314 0.02118 0.0
C2097 C 0.69137 0.83713 0.00225 0.0
C2098 C 0.6723 0.85184 0.00427 0.0
C2099 C 0.62009 0.89853 0.00626 0.0
C2100 C 0.63757 0.88185 0.00615 0.0
H2101 H 0.70447 0.78476 0.98928 0.0
H2102 H 0.673 0.80797 0.99507 0.0
H2103 H 0.68476 0.86988 0.03212 0.0
H2104 H 0.61354 0.95327 0.01156 0.0
H2105 H 0.64164 0.92579 0.01154 0.0
C2106 C 0.82544 0.69527 0.99465 0.0
C2107 C 0.80901 0.69365 0.01044 0.0
C2108 C 0.84363 0.68177 0.99581 0.0
C2109 C 0.86054 0.62888 0.0199 0.0
H2110 H 0.91707 0.64587 -0.00103 0.0
C2111 C 0.92699 0.56519 0.0044 0.0
C2112 C 0.94843 0.57059 0.00958 0.0
C2113 C 0.91076 0.58097 0.00493 0.0
C2114 C 0.90145 0.64088 0.00509 0.0
H2115 H 0.79939 0.67772 0.0406 0.0
H2116 H 0.83131 0.65474 0.0431 0.0
H2117 H 0.88819 0.67275 0.00044 0.0
H2118 H 0.96947 0.59706 0.0194 0.0
H2119 H 0.94108 0.62445 0.02076 0.0
H2120 H 0.87382 0.59723 0.0251 0.0
C2121 C 0.82993 0.66584 0.02936 0.0
C2122 C 0.88478 0.65627 0.00568 0.0
C2123 C 0.81169 0.67914 0.02806 0.0
C2124 C 0.95318 0.59228 0.01521 0.0
C2125 C 0.93688 0.60806 0.01589 0.0
C2126 C 0.8772 0.61357 0.01943 0.0
C2127 C 0.84587 0.66648 0.01292 0.0
C2128 C 0.86403 0.65046 0.01301 0.0
C2129 C 0.91541 0.60261 0.01083 0.0
C2130 C 0.89786 0.61927 0.01185 0.0
H2131 H 0.8237 0.70616 0.98077 0.0
H2132 H 0.85542 0.68267 0.98273 0.0
H2133 H 0.84477 0.6236 0.02532 0.0
H2134 H 0.92269 0.54875 -0.00025 0.0
H2135 H 0.89455 0.57619 0.00047 0.0
C2136 C 0.34456 0.79245 0.02349 0.0
C2137 C 0.32638 0.79176 0.0097 0.0
C2138 C 0.35752 0.81101 0.02457 0.0
C2139 C 0.37087 0.86101 0.99273 0.0
H2140 H 0.40382 0.87477 0.04501 0.0
C2141 C 0.42723 0.93648 0.00015 0.0
C2142 C 0.44809 0.93206 0.00806 0.0
C2143 C 0.41113 0.92051 0.0009 0.0
C2144 C 0.39476 0.87108 0.03027 0.0
H2145 H 0.30703 0.81075 0.98708 0.0
H2146 H 0.32904 0.84352 0.98973 0.0
H2147 H 0.377 0.84584 0.04625 0.0
H2148 H 0.46823 0.90745 0.02324 0.0
H2149 H 0.44002 0.87978 0.02491 0.0
H2150 H 0.38854 0.88666 0.97696 0.0
C2151 C 0.33372 0.82938 -0.0008 0.0
C2152 C 0.37942 0.8544 0.03091 0.0
C2153 C 0.32085 0.81066 0.99793 0.0
C2154 C 0.45239 0.91137 0.0169 0.0
C2155 C 0.43619 0.89556 0.01801 0.0
C2156 C 0.386 0.87793 0.9922 0.0
C2157 C 0.35254 0.82968 0.01216 0.0
C2158 C 0.3675 0.84882 0.01204 0.0
C2159 C 0.4154 0.89992 0.00996 0.0
C2160 C 0.39837 0.8829 0.01087 0.0
H2161 H 0.34914 0.77838 0.03315 0.0
H2162 H 0.37191 0.81035 0.03459 0.0
H2163 H 0.36236 0.85708 0.97773 0.0
H2164 H 0.4234 0.95222 0.99315 0.0
H2165 H 0.39523 0.92435 0.99465 0.0
C2166 C 0.7079 0.19988 0.0176 0.0
C2167 C 0.72887 0.19195 0.01397 0.0
C2168 C 0.68994 0.18628 0.01493 0.0
C2169 C 0.67261 0.13326 0.99064 0.0
H2170 H 0.62753 0.13619 0.03463 0.0
C2171 C 0.61024 0.0644 0.00247 0.0
C2172 C 0.58867 0.07023 0.0065 0.0
C2173 C 0.62651 0.08017 0.00217 0.0
C2174 C 0.63984 0.13532 0.02205 0.0
H2175 H 0.7472 0.16371 0.00363 0.0
H2176 H 0.71614 0.14 -0.00053 0.0
H2177 H 0.65715 0.16226 0.03567 0.0
H2178 H 0.56746 0.09745 0.01348 0.0
H2179 H 0.59587 0.1249 0.01299 0.0
H2180 H 0.6555 0.10604 0.9773 0.0
C2181 C 0.71343 0.15675 0.00423 0.0
C2182 C 0.65683 0.15032 0.0226 0.0
C2183 C 0.73133 0.17032 0.00687 0.0
C2184 C 0.58385 0.0923 0.01028 0.0
C2185 C 0.60017 0.10806 0.01013 0.0
C2186 C 0.65569 0.11821 0.99015 0.0
C2187 C 0.69249 0.16442 0.00851 0.0
C2188 C 0.6736 0.14937 0.00704 0.0
C2189 C 0.62171 0.10221 0.00603 0.0
C2190 C 0.63919 0.11889 0.00598 0.0
H2191 H 0.70539 0.21641 0.0232 0.0
H2192 H 0.67406 0.19287 0.01808 0.0
H2193 H 0.68496 0.13224 0.97812 0.0
H2194 H 0.61465 0.04762 -0.00055 0.0
H2195 H 0.64295 0.07503 -0.00076 0.0
C2196 C 0.49923 0.71216 0.83625 0.0
C2197 C 0.51104 0.71348 0.81659 0.0
C2198 C 0.50022 0.69362 0.84933 0.0
C2199 C 0.53304 0.64479 0.8607 0.0
H2200 H 0.4815 0.6273 0.89219 0.0
C2201 C 0.52658 0.56782 0.91623 0.0
C2202 C 0.51817 0.57187 0.93728 0.0
C2203 C 0.52606 0.58399 0.90008 0.0
C2204 C 0.49601 0.63204 0.88351 0.0
H2205 H 0.5331 0.69614 0.79522 0.0
H2206 H 0.5343 0.66327 0.81785 0.0
H2207 H 0.4796 0.65698 0.86576 0.0
H2208 H 0.50252 0.59594 0.9579 0.0
H2209 H 0.50131 0.624 0.92956 0.0
H2210 H 0.54928 0.61948 0.87849 0.0
C2211 C 0.52457 0.67687 0.82329 0.0
C2212 C 0.49498 0.64909 0.86844 0.0
C2213 C 0.52371 0.6956 0.8102 0.0
C2214 C 0.50923 0.59237 0.94187 0.0
C2215 C 0.5084 0.60837 0.92563 0.0
C2216 C 0.53399 0.6275 0.87562 0.0
C2217 C 0.51278 0.67567 0.843 0.0
C2218 C 0.51359 0.65604 0.85725 0.0
C2219 C 0.51677 0.60431 0.9046 0.0
C2220 C 0.51557 0.62132 0.88749 0.0
H2221 H 0.48899 0.72544 0.84151 0.0
H2222 H 0.49124 0.69349 0.86458 0.0
H2223 H 0.5477 0.64982 0.85251 0.0
H2224 H 0.53369 0.55221 0.91226 0.0
H2225 H 0.53257 0.58049 0.88395 0.0
C2226 C 0.32065 0.51687 0.81653 0.0
C2227 C 0.32852 0.51561 0.7949 0.0
C2228 C 0.33435 0.51329 0.83442 0.0
C2229 C 0.38762 0.49001 0.84974 0.0
H2230 H 0.3835 0.52975 0.899 0.0
C2231 C 0.45547 0.49933 0.91383 0.0
C2232 C 0.44963 0.50164 0.93604 0.0
C2233 C 0.43981 0.49951 0.89734 0.0
C2234 C 0.38468 0.51832 0.88552 0.0
H2235 H 0.3568 0.5087 0.77518 0.0
H2236 H 0.38075 0.50294 0.80629 0.0
H2237 H 0.35762 0.53238 0.869 0.0
H2238 H 0.42252 0.50583 0.95821 0.0
H2239 H 0.39525 0.50612 0.92939 0.0
H2240 H 0.41494 0.47623 0.86611 0.0
C2241 C 0.36396 0.50652 0.80948 0.0
C2242 C 0.36982 0.5198 0.86832 0.0
C2243 C 0.35027 0.51009 0.79161 0.0
C2244 C 0.42767 0.50403 0.94131 0.0
C2245 C 0.41201 0.50432 0.92477 0.0
C2246 C 0.40251 0.48857 0.86691 0.0
C2247 C 0.35625 0.50832 0.83113 0.0
C2248 C 0.37123 0.50582 0.85009 0.0
C2249 C 0.4179 0.50208 0.90259 0.0
C2250 C 0.40137 0.50286 0.8849 0.0
H2251 H 0.30402 0.52124 0.81967 0.0
H2252 H 0.32781 0.51454 0.85086 0.0
H2253 H 0.38896 0.47871 0.83616 0.0
H2254 H 0.47218 0.49742 0.90908 0.0
H2255 H 0.44492 0.49803 0.8804 0.0
C2256 C 0.50205 0.30632 0.81419 0.0
C2257 C 0.5034 0.31466 0.79273 0.0
C2258 C 0.50653 0.31953 0.83226 0.0
C2259 C 0.53185 0.37165 0.84875 0.0
H2260 H 0.49169 0.36813 0.89745 0.0
C2261 C 0.52329 0.43907 0.9138 0.0
C2262 C 0.52024 0.43287 0.93583 0.0
C2263 C 0.52339 0.42353 0.89712 0.0
C2264 C 0.50324 0.36909 0.88415 0.0
H2265 H 0.51133 0.34322 0.77341 0.0
H2266 H 0.51862 0.36645 0.80499 0.0
H2267 H 0.48821 0.34299 0.86678 0.0
H2268 H 0.51529 0.40528 0.95756 0.0
H2269 H 0.51548 0.37816 0.92834 0.0
H2270 H 0.54655 0.39814 0.86599 0.0
C2271 C 0.51432 0.34961 0.80783 0.0
C2272 C 0.50127 0.35467 0.86657 0.0
C2273 C 0.50989 0.33637 0.78974 0.0
C2274 C 0.51761 0.41068 0.94079 0.0
C2275 C 0.51763 0.39512 0.92405 0.0
C2276 C 0.53378 0.38613 0.86633 0.0
C2277 C 0.51239 0.34141 0.82931 0.0
C2278 C 0.51541 0.35592 0.84856 0.0
C2279 C 0.5204 0.40141 0.90203 0.0
C2280 C 0.51935 0.38514 0.8841 0.0
H2281 H 0.49689 0.28974 0.81711 0.0
H2282 H 0.50517 0.31263 0.84858 0.0
H2283 H 0.5432 0.37282 0.83529 0.0
H2284 H 0.52546 0.45599 0.90932 0.0
H2285 H 0.52531 0.42891 0.88029 0.0
C2286 C 0.71639 0.48587 0.81702 0.0
C2287 C 0.70837 0.48689 0.79544 0.0
C2288 C 0.70282 0.4897 0.83497 0.0
C2289 C 0.64986 0.51348 0.85038 0.0
H2290 H 0.65384 0.47403 0.89994 0.0
C2291 C 0.58203 0.50489 0.91449 0.0
C2292 C 0.58777 0.50245 0.93672 0.0
C2293 C 0.59774 0.50465 0.89806 0.0
C2294 C 0.6527 0.48539 0.88638 0.0
H2295 H 0.67997 0.4936 0.77583 0.0
H2296 H 0.65625 0.49985 0.80704 0.0
H2297 H 0.67957 0.47098 0.86985 0.0
H2298 H 0.61477 0.49806 0.95897 0.0
H2299 H 0.64215 0.4977 0.93023 0.0
H2300 H 0.62274 0.52762 0.86676 0.0
C2301 C 0.67306 0.49625 0.81015 0.0
C2302 C 0.66748 0.48366 0.86912 0.0
C2303 C 0.68661 0.49241 0.79223 0.0
C2304 C 0.6097 0.49994 0.94206 0.0
C2305 C 0.62542 0.49962 0.92557 0.0
C2306 C 0.63507 0.51518 0.86761 0.0
C2307 C 0.68092 0.49471 0.83175 0.0
C2308 C 0.66609 0.49752 0.85078 0.0
C2309 C 0.61961 0.50192 0.90337 0.0
C2310 C 0.63615 0.50099 0.8857 0.0
H2311 H 0.73303 0.48151 0.82009 0.0
H2312 H 0.70947 0.48863 0.85137 0.0
H2313 H 0.64855 0.52468 0.83671 0.0
H2314 H 0.56535 0.50689 0.90967 0.0
H2315 H 0.59267 0.50618 0.8811 0.0
C2316 C 0.52177 0.3092 0.20595 0.0
C2317 C 0.5126 0.28994 0.19767 0.0
C2318 C 0.52353 0.32767 0.19258 0.0
C2319 C 0.52747 0.34277 0.13473 0.0
H2320 H 0.50677 0.39973 0.15209 0.0
C2321 C 0.51364 0.40999 0.07135 0.0
C2322 C 0.51885 0.43153 0.07693 0.0
C2323 C 0.51409 0.39362 0.0872 0.0
C2324 C 0.51295 0.38401 0.14712 0.0
H2325 H 0.49692 0.27544 0.16936 0.0
H2326 H 0.50047 0.30734 0.14607 0.0
H2327 H 0.5056 0.36958 0.17836 0.0
H2328 H 0.52863 0.45275 0.10362 0.0
H2329 H 0.52975 0.42402 0.13125 0.0
H2330 H 0.53492 0.35692 0.10362 0.0
C2331 C 0.5066 0.30806 0.16271 0.0
C2332 C 0.51224 0.36679 0.16215 0.0
C2333 C 0.50464 0.28978 0.17605 0.0
C2334 C 0.52441 0.43634 0.09879 0.0
C2335 C 0.52499 0.41989 0.11465 0.0
C2336 C 0.52836 0.35994 0.11982 0.0
C2337 C 0.51631 0.32707 0.17071 0.0
C2338 C 0.51905 0.34592 0.15588 0.0
C2339 C 0.51994 0.39832 0.109 0.0
C2340 C 0.52065 0.38065 0.12564 0.0
H2341 H 0.52809 0.3098 0.22251 0.0
H2342 H 0.53107 0.34219 0.19909 0.0
H2343 H 0.53318 0.32689 0.12963 0.0
H2344 H 0.50902 0.40573 0.05474 0.0
H2345 H 0.50961 0.37728 0.08238 0.0
C2346 C 0.68579 0.51142 0.22291 0.0
C2347 C 0.70758 0.51683 0.21964 0.0
C2348 C 0.67217 0.50772 0.20503 0.0
C2349 C 0.66656 0.5205 0.14609 0.0
H2350 H 0.62163 0.47672 0.14835 0.0
C2351 C 0.60911 0.50425 0.07294 0.0
C2352 C 0.58715 0.50179 0.07814 0.0
C2353 C 0.62472 0.5046 0.08952 0.0
C2354 C 0.63401 0.48912 0.14753 0.0
H2355 H 0.73219 0.52217 0.19492 0.0
H2356 H 0.7085 0.51526 0.16371 0.0
H2357 H 0.64741 0.47953 0.17844 0.0
H2358 H 0.56453 0.49752 0.10505 0.0
H2359 H 0.59167 0.49828 0.1338 0.0
H2360 H 0.65302 0.53021 0.11526 0.0
C2361 C 0.70189 0.51417 0.18013 0.0
C2362 C 0.64879 0.49074 0.16478 0.0
C2363 C 0.71553 0.51788 0.19804 0.0
C2364 C 0.58125 0.49947 0.10034 0.0
C2365 C 0.59685 0.49974 0.11688 0.0
C2366 C 0.65181 0.51885 0.12881 0.0
C2367 C 0.67998 0.50929 0.1834 0.0
C2368 C 0.6651 0.50662 0.1644 0.0
C2369 C 0.61876 0.50239 0.11169 0.0
C2370 C 0.6352 0.50331 0.12945 0.0
H2371 H 0.6792 0.5102 0.23933 0.0
H2372 H 0.65535 0.50419 0.20817 0.0
H2373 H 0.67872 0.53313 0.14539 0.0
H2374 H 0.61431 0.50604 0.05605 0.0
H2375 H 0.64149 0.50646 0.08497 0.0
C2376 C 0.50255 0.69819 0.20026 0.0
C2377 C 0.49401 0.69056 0.22025 0.0
C2378 C 0.50765 0.68378 0.18332 0.0
C2379 C 0.51376 0.62438 0.17064 0.0
H2380 H 0.50599 0.64493 0.11101 0.0
C2381 C 0.53023 0.56796 0.097 0.0
C2382 C 0.51742 0.57048 0.0782 0.0
C2383 C 0.52937 0.58327 0.11391 0.0
C2384 C 0.50795 0.63873 0.12753 0.0
H2385 H 0.4848 0.66137 0.23805 0.0
H2386 H 0.49195 0.6366 0.20808 0.0
H2387 H 0.49998 0.66955 0.14129 0.0
H2388 H 0.49355 0.59068 0.06223 0.0
H2389 H 0.49092 0.6167 0.0922 0.0
H2390 H 0.51999 0.5931 0.15695 0.0
C2391 C 0.49547 0.65367 0.20565 0.0
C2392 C 0.50494 0.65309 0.14502 0.0
C2393 C 0.49092 0.66803 0.22282 0.0
C2394 C 0.50376 0.58855 0.07651 0.0
C2395 C 0.50241 0.60355 0.09369 0.0
C2396 C 0.51621 0.60987 0.15317 0.0
C2397 C 0.50379 0.66134 0.18557 0.0
C2398 C 0.50774 0.64614 0.16687 0.0
C2399 C 0.51518 0.60113 0.11269 0.0
C2400 C 0.51327 0.6168 0.13133 0.0
H2401 H 0.50489 0.7154 0.19734 0.0
H2402 H 0.5145 0.69039 0.1684 0.0
H2403 H 0.51654 0.61841 0.18712 0.0
H2404 H 0.54108 0.55423 0.09853 0.0
H2405 H 0.53989 0.58105 0.1279 0.0
C2406 C 0.32737 0.51188 0.20441 0.0
C2407 C 0.30866 0.50024 0.19875 0.0
C2408 C 0.34604 0.51021 0.19162 0.0
C2409 C 0.37135 0.47782 0.14632 0.0
H2410 H 0.40306 0.53125 0.13609 0.0
C2411 C 0.42876 0.49075 0.0727 0.0
C2412 C 0.4491 0.49972 0.07735 0.0
C2413 C 0.41288 0.48973 0.08894 0.0
C2414 C 0.39448 0.51616 0.13897 0.0
H2415 H 0.29547 0.47668 0.17586 0.0
H2416 H 0.32745 0.47459 0.15309 0.0
H2417 H 0.37331 0.53101 0.16222 0.0
H2418 H 0.46862 0.51484 0.10267 0.0
H2419 H 0.44061 0.51345 0.13091 0.0
H2420 H 0.39207 0.46333 0.12224 0.0
C2421 C 0.32795 0.48478 0.16758 0.0
C2422 C 0.37748 0.51595 0.15405 0.0
C2423 C 0.30941 0.48624 0.18049 0.0
C2424 C 0.45315 0.50776 0.09858 0.0
C2425 C 0.43711 0.50706 0.11472 0.0
C2426 C 0.38813 0.47814 0.13101 0.0
C2427 C 0.34643 0.49702 0.17273 0.0
C2428 C 0.36553 0.49682 0.15781 0.0
C2429 C 0.41686 0.49796 0.11007 0.0
C2430 C 0.39974 0.49735 0.12706 0.0
H2431 H 0.32739 0.52291 0.21826 0.0
H2432 H 0.36006 0.51955 0.1964 0.0
H2433 H 0.36289 0.46266 0.14907 0.0
H2434 H 0.42517 0.4843 0.05655 0.0
H2435 H 0.39733 0.48279 0.08488 0.0
C2436 C 0.8227 0.48806 0.69841 0.0
C2437 C 0.82363 0.50378 0.7151 0.0
C2438 C 0.83626 0.48958 0.68011 0.0
C2439 C 0.8884 0.51419 0.66431 0.0
H2440 H 0.8735 0.49259 0.60649 0.0
C2441 C 0.95339 0.49739 0.59897 0.0
C2442 C 0.94864 0.50238 0.57697 0.0
C2443 C 0.93733 0.49828 0.61504 0.0
C2444 C 0.87789 0.49891 0.62247 0.0
H2445 H 0.83824 0.5342 0.72507 0.0
H2446 H 0.86138 0.53731 0.69283 0.0
H2447 H 0.84593 0.49442 0.63494 0.0
H2448 H 0.92315 0.51238 0.5547 0.0
H2449 H 0.89533 0.51435 0.58277 0.0
H2450 H 0.92019 0.51917 0.65178 0.0
C2451 C 0.85075 0.5234 0.69414 0.0
C2452 C 0.86211 0.49972 0.63888 0.0
C2453 C 0.83738 0.52174 0.71252 0.0
C2454 C 0.9274 0.50826 0.57144 0.0
C2455 C 0.91138 0.5093 0.58755 0.0
C2456 C 0.90411 0.51351 0.6479 0.0
C2457 C 0.85089 0.50698 0.67804 0.0
C2458 C 0.86721 0.50723 0.66007 0.0
C2459 C 0.91613 0.50437 0.60958 0.0
C2460 C 0.89914 0.50566 0.62682 0.0
H2461 H 0.81239 0.47393 0.70013 0.0
H2462 H 0.83601 0.47653 0.66818 0.0
H2463 H 0.89307 0.51975 0.6805 0.0
H2464 H 0.96951 0.49263 0.60382 0.0
H2465 H 0.94152 0.49397 0.63175 0.0
C2466 C 0.49251 0.78845 0.67343 0.0
C2467 C 0.50615 0.78449 0.69147 0.0
C2468 C 0.49587 0.80634 0.65977 0.0
C2469 C 0.51565 0.86118 0.65804 0.0
H2470 H 0.52079 0.85181 0.59529 0.0
C2471 C 0.52717 0.9324 0.59631 0.0
C2472 C 0.51714 0.93022 0.57575 0.0
C2473 C 0.52748 0.91492 0.61108 0.0
C2474 C 0.51907 0.8548 0.61273 0.0
H2475 H 0.53419 0.79654 0.70908 0.0
H2476 H 0.53935 0.82844 0.68562 0.0
H2477 H 0.5182 0.8207 0.6199 0.0
H2478 H 0.4987 0.90852 0.55491 0.0
H2479 H 0.49838 0.87856 0.58082 0.0
H2480 H 0.51542 0.89527 0.65091 0.0
C2481 C 0.5262 0.81737 0.68213 0.0
C2482 C 0.51779 0.83694 0.62679 0.0
C2483 C 0.52312 0.79917 0.6956 0.0
C2484 C 0.50689 0.91055 0.5705 0.0
C2485 C 0.50686 0.89329 0.58534 0.0
C2486 C 0.51654 0.87913 0.64391 0.0
C2487 C 0.51267 0.82099 0.66405 0.0
C2488 C 0.51581 0.83997 0.64952 0.0
C2489 C 0.51746 0.89506 0.60568 0.0
C2490 C 0.51793 0.87616 0.62102 0.0
H2491 H 0.47892 0.77794 0.66999 0.0
H2492 H 0.48506 0.80898 0.64605 0.0
H2493 H 0.514 0.86386 0.67554 0.0
H2494 H 0.5353 0.94737 0.60072 0.0
H2495 H 0.53595 0.91685 0.62649 0.0
C2496 C 0.21335 0.51413 0.69886 0.0
C2497 C 0.21239 0.49863 0.71577 0.0
C2498 C 0.19969 0.51248 0.68065 0.0
C2499 C 0.14741 0.48783 0.6652 0.0
H2500 H 0.16241 0.50886 0.60717 0.0
C2501 C 0.08254 0.50417 0.59954 0.0
C2502 C 0.08741 0.49928 0.57755 0.0
C2503 C 0.09853 0.50323 0.61568 0.0
C2504 C 0.15799 0.50268 0.6232 0.0
H2505 H 0.19757 0.46848 0.72627 0.0
H2506 H 0.17428 0.46511 0.69418 0.0
H2507 H 0.18993 0.50725 0.63564 0.0
H2508 H 0.11296 0.48925 0.55538 0.0
H2509 H 0.14065 0.48716 0.58357 0.0
H2510 H 0.11564 0.48273 0.65268 0.0
C2511 C 0.185 0.47897 0.69524 0.0
C2512 C 0.17374 0.50201 0.63963 0.0
C2513 C 0.19846 0.48077 0.71353 0.0
C2514 C 0.10865 0.49335 0.57211 0.0
C2515 C 0.1246 0.49222 0.5883 0.0
C2516 C 0.13172 0.48834 0.64875 0.0
C2517 C 0.18493 0.49516 0.67888 0.0
C2518 C 0.16862 0.49473 0.66091 0.0
C2519 C 0.11976 0.49716 0.6103 0.0
C2520 C 0.13673 0.49598 0.62759 0.0
H2521 H 0.22379 0.52819 0.70031 0.0
H2522 H 0.19999 0.52537 0.66853 0.0
H2523 H 0.14271 0.48244 0.68144 0.0
H2524 H 0.06641 0.50897 0.6043 0.0
H2525 H 0.09427 0.50754 0.63237 0.0
C2526 C 0.49346 0.17459 0.7155 0.0
C2527 C 0.50507 0.19418 0.71654 0.0
C2528 C 0.49445 0.16152 0.6969 0.0
C2529 C 0.52847 0.14966 0.64895 0.0
H2530 H 0.47856 0.11576 0.63155 0.0
C2531 C 0.52607 0.09138 0.57385 0.0
C2532 C 0.51779 0.07052 0.57824 0.0
C2533 C 0.52479 0.10778 0.58964 0.0
C2534 C 0.49263 0.12509 0.6363 0.0
H2535 H 0.52627 0.21582 0.69856 0.0
H2536 H 0.52761 0.19306 0.66555 0.0
H2537 H 0.47489 0.1434 0.65997 0.0
H2538 H 0.50183 0.05043 0.60261 0.0
H2539 H 0.49934 0.07926 0.63011 0.0
H2540 H 0.54608 0.13129 0.62497 0.0
C2541 C 0.51807 0.18768 0.67942 0.0
C2542 C 0.49057 0.14089 0.65258 0.0
C2543 C 0.51715 0.2008 0.6982 0.0
C2544 C 0.50842 0.06631 0.5988 0.0
C2545 C 0.50685 0.08282 0.61446 0.0
C2546 C 0.53046 0.134 0.63243 0.0
C2547 C 0.50685 0.16778 0.67867 0.0
C2548 C 0.50857 0.15299 0.65948 0.0
C2549 C 0.51491 0.10372 0.60995 0.0
C2550 C 0.51265 0.12127 0.62634 0.0
H2551 H 0.4837 0.16922 0.72922 0.0
H2552 H 0.48586 0.14618 0.69709 0.0
H2553 H 0.5427 0.15853 0.65402 0.0
H2554 H 0.53351 0.09505 0.55818 0.0
H2555 H 0.53107 0.12378 0.5858 0.0
C2556 C 0.82275 0.51566 0.31555 0.0
C2557 C 0.82361 0.49992 0.29888 0.0
C2558 C 0.83651 0.51426 0.33371 0.0
C2559 C 0.88893 0.48998 0.34907 0.0
H2560 H 0.8742 0.51124 0.40707 0.0
C2561 C 0.95406 0.50651 0.41445 0.0
C2562 C 0.94928 0.50137 0.43641 0.0
C2563 C 0.93801 0.5057 0.39835 0.0
C2564 C 0.87855 0.50502 0.39103 0.0
H2565 H 0.83831 0.46959 0.28879 0.0
H2566 H 0.86182 0.46668 0.32076 0.0
H2567 H 0.8465 0.50939 0.37877 0.0
H2568 H 0.9238 0.49109 0.45857 0.0
H2569 H 0.89603 0.48925 0.43048 0.0
H2570 H 0.9208 0.48511 0.36141 0.0
C2571 C 0.85109 0.48052 0.31955 0.0
C2572 C 0.86269 0.5042 0.37471 0.0
C2573 C 0.83751 0.48206 0.30133 0.0
C2574 C 0.92806 0.49537 0.44186 0.0
C2575 C 0.91206 0.4944 0.42574 0.0
C2576 C 0.90472 0.49068 0.3654 0.0
C2577 C 0.85127 0.49696 0.33563 0.0
C2578 C 0.86771 0.49679 0.35347 0.0
C2579 C 0.91682 0.49953 0.40377 0.0
C2580 C 0.8998 0.49837 0.38655 0.0
H2581 H 0.81233 0.52971 0.31394 0.0
H2582 H 0.83629 0.52731 0.34563 0.0
H2583 H 0.89353 0.48451 0.33283 0.0
H2584 H 0.97018 0.51136 0.40967 0.0
H2585 H 0.9422 0.51014 0.38168 0.0
C2586 C 0.49767 0.80822 0.31313 0.0
C2587 C 0.51511 0.80739 0.29846 0.0
C2588 C 0.49842 0.82183 0.33148 0.0
C2589 C 0.53481 0.853 0.36745 0.0
H2590 H 0.4856 0.89123 0.37488 0.0
C2591 C 0.52524 0.91169 0.44104 0.0
C2592 C 0.51872 0.93303 0.436 0.0
C2593 C 0.52505 0.89553 0.42494 0.0
C2594 C 0.49946 0.88069 0.37295 0.0
H2595 H 0.54741 0.81918 0.292 0.0
H2596 H 0.54879 0.84289 0.32417 0.0
H2597 H 0.48497 0.8634 0.34627 0.0
H2598 H 0.50686 0.95412 0.41009 0.0
H2599 H 0.50643 0.92579 0.38199 0.0
H2600 H 0.54939 0.8705 0.394 0.0
C2601 C 0.53453 0.83307 0.32147 0.0
C2602 C 0.49901 0.86462 0.35677 0.0
C2603 C 0.5337 0.81963 0.30302 0.0
C2604 C 0.51206 0.93787 0.41449 0.0
C2605 C 0.51165 0.92163 0.39844 0.0
C2606 C 0.53517 0.86894 0.3838 0.0
C2607 C 0.51671 0.83469 0.3356 0.0
C2608 C 0.51675 0.85074 0.35373 0.0
C2609 C 0.51813 0.90031 0.40353 0.0
C2610 C 0.51758 0.88307 0.38656 0.0
H2611 H 0.48309 0.79906 0.30991 0.0
H2612 H 0.48454 0.82263 0.34225 0.0
H2613 H 0.54867 0.84245 0.3655 0.0
H2614 H 0.53058 0.90743 0.45742 0.0
H2615 H 0.53 0.8792 0.42933 0.0
C2616 C 0.23253 0.50467 0.33989 0.0
C2617 C 0.23041 0.51163 0.318 0.0
C2618 C 0.21434 0.50159 0.35307 0.0
C2619 C 0.1575 0.51862 0.35807 0.0
H2620 H 0.15521 0.47243 0.4014 0.0
C2621 C 0.08356 0.50504 0.41479 0.0
C2622 C 0.08825 0.50124 0.43708 0.0
C2623 C 0.10001 0.50492 0.39905 0.0
C2624 C 0.15566 0.48549 0.38946 0.0
H2625 H 0.20738 0.52046 0.29272 0.0
H2626 H 0.17562 0.51461 0.31557 0.0
H2627 H 0.18547 0.47424 0.37592 0.0
H2628 H 0.11402 0.49408 0.46014 0.0
H2629 H 0.14251 0.49397 0.43279 0.0
H2630 H 0.12775 0.52994 0.37179 0.0
C2631 C 0.1914 0.51181 0.32264 0.0
C2632 C 0.17302 0.48655 0.37486 0.0
C2633 C 0.2096 0.51491 0.30945 0.0
C2634 C 0.10974 0.49712 0.44317 0.0
C2635 C 0.12611 0.49688 0.42744 0.0
C2636 C 0.14009 0.51751 0.37264 0.0
C2637 C 0.19355 0.50535 0.34469 0.0
C2638 C 0.17432 0.5033 0.35919 0.0
C2639 C 0.12147 0.50083 0.40521 0.0
C2640 C 0.13914 0.50112 0.38871 0.0
H2641 H 0.24829 0.50174 0.34693 0.0
H2642 H 0.21665 0.49682 0.37003 0.0
H2643 H 0.1581 0.53192 0.34642 0.0
H2644 H 0.06722 0.50828 0.40948 0.0
H2645 H 0.0959 0.50786 0.38202 0.0
C2646 C 0.49825 0.19465 0.31164 0.0
C2647 C 0.49773 0.2161 0.31967 0.0
C2648 C 0.50197 0.1772 0.32583 0.0
C2649 C 0.49755 0.16226 0.38416 0.0
H2650 H 0.53259 0.11273 0.36736 0.0
C2651 C 0.51921 0.09528 0.44576 0.0
C2652 C 0.51754 0.07354 0.43872 0.0
C2653 C 0.51787 0.11235 0.43077 0.0
C2654 C 0.5226 0.12636 0.37217 0.0
H2655 H 0.50147 0.23609 0.34872 0.0
H2656 H 0.50809 0.20561 0.37353 0.0
H2657 H 0.52881 0.14349 0.34218 0.0
H2658 H 0.51363 0.0528 0.41014 0.0
H2659 H 0.51112 0.08281 0.38391 0.0
H2660 H 0.49126 0.1452 0.41407 0.0
C2661 C 0.50523 0.20227 0.35631 0.0
C2662 C 0.52044 0.14398 0.35778 0.0
C2663 C 0.50147 0.21974 0.34212 0.0
C2664 C 0.51496 0.06932 0.41617 0.0
C2665 C 0.51362 0.0865 0.40111 0.0
C2666 C 0.49971 0.14471 0.39852 0.0
C2667 C 0.50527 0.18079 0.34837 0.0
C2668 C 0.50793 0.16215 0.36366 0.0
C2669 C 0.51479 0.1082 0.40833 0.0
C2670 C 0.51232 0.12659 0.39273 0.0
H2671 H 0.49511 0.19128 0.29448 0.0
H2672 H 0.5016 0.16084 0.31924 0.0
H2673 H 0.48742 0.17578 0.38901 0.0
H2674 H 0.52143 0.09925 0.46294 0.0
H2675 H 0.51925 0.12887 0.4368 0.0
C2676 C 0.71666 0.8124 0.51948 0.0
C2677 C 0.70871 0.79103 0.51778 0.0
C2678 C 0.70301 0.83029 0.5162 0.0
C2679 C 0.64953 0.84613 0.49318 0.0
H2680 H 0.65391 0.8942 0.53414 0.0
C2681 C 0.58154 0.90949 0.50375 0.0
C2682 C 0.58729 0.93146 0.50662 0.0
C2683 C 0.59725 0.89316 0.50369 0.0
C2684 C 0.65263 0.88106 0.52237 0.0
H2685 H 0.68033 0.77183 0.51027 0.0
H2686 H 0.65656 0.80284 0.50498 0.0
H2687 H 0.67988 0.86448 0.53599 0.0
H2688 H 0.61435 0.95331 0.51161 0.0
H2689 H 0.64168 0.9248 0.51148 0.0
H2690 H 0.62204 0.86254 0.47982 0.0
C2691 C 0.67335 0.80588 0.50871 0.0
C2692 C 0.66757 0.864 0.5234 0.0
C2693 C 0.68696 0.78804 0.512 0.0
C2694 C 0.60924 0.93661 0.50938 0.0
C2695 C 0.62495 0.92023 0.50942 0.0
C2696 C 0.63457 0.86315 0.49219 0.0
C2697 C 0.68109 0.82726 0.51106 0.0
C2698 C 0.66608 0.84617 0.50898 0.0
C2699 C 0.61915 0.89829 0.50658 0.0
C2700 C 0.63577 0.88072 0.50693 0.0
H2701 H 0.73328 0.81532 0.52403 0.0
H2702 H 0.70962 0.84651 0.51786 0.0
H2703 H 0.64809 0.83291 0.48153 0.0
H2704 H 0.56486 0.90481 0.50154 0.0
H2705 H 0.59215 0.87642 0.50174 0.0
C2706 C 0.7169 0.19105 0.49657 0.0
C2707 C 0.70919 0.2123 0.50001 0.0
C2708 C 0.7033 0.17303 0.49942 0.0
C2709 C 0.65066 0.1561 0.52388 0.0
H2710 H 0.65328 0.11023 0.48029 0.0
C2711 C 0.58197 0.09364 0.51235 0.0
C2712 C 0.58754 0.07179 0.50841 0.0
C2713 C 0.59774 0.10991 0.51265 0.0
C2714 C 0.6525 0.12275 0.49277 0.0
H2715 H 0.68135 0.23108 0.51019 0.0
H2716 H 0.65764 0.19993 0.51465 0.0
H2717 H 0.6793 0.13994 0.47899 0.0
H2718 H 0.61434 0.05008 0.5017 0.0
H2719 H 0.6418 0.0785 0.50219 0.0
H2720 H 0.62356 0.13912 0.53736 0.0
C2721 C 0.67421 0.19704 0.50991 0.0
C2722 C 0.66748 0.1398 0.49206 0.0
C2723 C 0.68778 0.215 0.50709 0.0
C2724 C 0.60938 0.06668 0.50479 0.0
C2725 C 0.62515 0.08301 0.50495 0.0
C2726 C 0.63564 0.13912 0.52452 0.0
C2727 C 0.68166 0.17581 0.50583 0.0
C2728 C 0.66663 0.15686 0.50747 0.0
C2729 C 0.61954 0.10483 0.5089 0.0
C2730 C 0.63621 0.12234 0.50884 0.0
H2731 H 0.73325 0.18834 0.49098 0.0
H2732 H 0.70972 0.15693 0.49642 0.0
H2733 H 0.64972 0.16868 0.53629 0.0
H2734 H 0.56537 0.09827 0.51526 0.0
H2735 H 0.59279 0.12657 0.51548 0.0
C2736 C 0.8389 0.70726 0.48658 0.0
C2737 C 0.82463 0.71009 0.50426 0.0
C2738 C 0.85245 0.68911 0.48563 0.0
C2739 C 0.86341 0.63465 0.5107 0.0
H2740 H 0.92151 0.64665 0.49064 0.0
C2741 C 0.92785 0.56678 0.50179 0.0
C2742 C 0.94934 0.57196 0.50703 0.0
C2743 C 0.91199 0.58298 0.50107 0.0
C2744 C 0.90544 0.643 0.49651 0.0
H2745 H 0.81278 0.69574 0.53439 0.0
H2746 H 0.83668 0.66418 0.53303 0.0
H2747 H 0.89469 0.67534 0.48989 0.0
H2748 H 0.97079 0.59838 0.51601 0.0
H2749 H 0.94316 0.62643 0.51523 0.0
H2750 H 0.87451 0.60249 0.51814 0.0
C2751 C 0.83721 0.67576 0.51964 0.0
C2752 C 0.88988 0.65943 0.49573 0.0
C2753 C 0.82347 0.69385 0.52045 0.0
C2754 C 0.95449 0.59375 0.51174 0.0
C2755 C 0.9386 0.60991 0.51116 0.0
C2756 C 0.87905 0.61822 0.5116 0.0
C2757 C 0.8523 0.67343 0.5025 0.0
C2758 C 0.86862 0.65553 0.50281 0.0
C2759 C 0.91715 0.6048 0.50568 0.0
C2760 C 0.90032 0.62219 0.50458 0.0
H2761 H 0.83999 0.71944 0.47376 0.0
H2762 H 0.86338 0.68763 0.47185 0.0
H2763 H 0.84721 0.63094 0.51613 0.0
H2764 H 0.92324 0.55023 0.49793 0.0
H2765 H 0.89576 0.57841 0.49648 0.0
C2766 C 0.32724 0.80489 0.5156 0.0
C2767 C 0.30855 0.81053 0.50381 0.0
C2768 C 0.34586 0.81777 0.51427 0.0
C2769 C 0.37092 0.86364 0.48233 0.0
H2770 H 0.40324 0.87251 0.53607 0.0
C2771 C 0.42849 0.93652 0.49596 0.0
C2772 C 0.44896 0.93185 0.50469 0.0
C2773 C 0.41258 0.92041 0.49492 0.0
C2774 C 0.39449 0.87004 0.52089 0.0
H2775 H 0.29543 0.83352 0.4803 0.0
H2776 H 0.32721 0.85634 0.47877 0.0
H2777 H 0.37361 0.84646 0.53553 0.0
H2778 H 0.46862 0.90659 0.51945 0.0
H2779 H 0.44059 0.87859 0.51808 0.0
H2780 H 0.39134 0.888 0.46806 0.0
C2781 C 0.32779 0.84184 0.48885 0.0
C2782 C 0.37754 0.85498 0.52049 0.0
C2783 C 0.30932 0.82886 0.48998 0.0
C2784 C 0.45307 0.91071 0.51253 0.0
C2785 C 0.437 0.8947 0.51186 0.0
C2786 C 0.38763 0.87893 0.48285 0.0
C2787 C 0.34625 0.83673 0.50124 0.0
C2788 C 0.36534 0.85168 0.50125 0.0
C2789 C 0.41662 0.89935 0.50294 0.0
C2790 C 0.39949 0.88242 0.50217 0.0
H2791 H 0.32727 0.79096 0.5265 0.0
H2792 H 0.35984 0.81298 0.52373 0.0
H2793 H 0.36234 0.86128 0.46703 0.0
H2794 H 0.42481 0.95259 0.48968 0.0
H2795 H 0.39697 0.92452 0.48813 0.0
C2796 C 0.23019 0.33192 0.50698 0.0
C2797 C 0.22798 0.31029 0.49978 0.0
C2798 C 0.21214 0.34527 0.50965 0.0
C2799 C 0.15555 0.35126 0.49121 0.0
H2800 H 0.15366 0.39505 0.53696 0.0
C2801 C 0.08246 0.40937 0.50325 0.0
C2802 C 0.08742 0.43138 0.50718 0.0
C2803 C 0.09868 0.39348 0.50351 0.0
C2804 C 0.154 0.38301 0.52399 0.0
H2805 H 0.20478 0.28564 0.49033 0.0
H2806 H 0.17319 0.3088 0.49549 0.0
H2807 H 0.1833 0.36907 0.53605 0.0
H2808 H 0.11351 0.45374 0.51467 0.0
H2809 H 0.14157 0.42616 0.51505 0.0
H2810 H 0.12625 0.36535 0.47913 0.0
C2811 C 0.18899 0.31555 0.49872 0.0
C2812 C 0.17102 0.36809 0.52345 0.0
C2813 C 0.2071 0.30216 0.49603 0.0
C2814 C 0.10899 0.43702 0.51151 0.0
C2815 C 0.12513 0.42114 0.51192 0.0
C2816 C 0.13846 0.36615 0.49181 0.0
C2817 C 0.19129 0.33739 0.50529 0.0
C2818 C 0.17223 0.3522 0.50686 0.0
C2819 C 0.12022 0.39917 0.5079 0.0
C2820 C 0.13763 0.38242 0.50803 0.0
H2821 H 0.24598 0.33868 0.5103 0.0
H2822 H 0.21464 0.36202 0.51453 0.0
H2823 H 0.15604 0.33947 0.47801 0.0
H2824 H 0.06606 0.40438 0.49984 0.0
H2825 H 0.0943 0.37669 0.50051 0.0
C2826 C 0.3087 0.17379 0.5235 0.0
C2827 C 0.30786 0.19213 0.50967 0.0
C2828 C 0.32725 0.16095 0.52471 0.0
C2829 C 0.37731 0.14822 0.49337 0.0
H2830 H 0.39106 0.11539 0.54593 0.0
C2831 C 0.45311 0.09287 0.50176 0.0
C2832 C 0.44903 0.07172 0.5096 0.0
C2833 C 0.43699 0.10883 0.50236 0.0
C2834 C 0.38738 0.12442 0.53112 0.0
H2835 H 0.32654 0.21183 0.48707 0.0
H2836 H 0.35926 0.19006 0.48997 0.0
H2837 H 0.36185 0.14187 0.54675 0.0
H2838 H 0.42488 0.05094 0.52457 0.0
H2839 H 0.39696 0.07891 0.52599 0.0
H2840 H 0.40324 0.13087 0.47797 0.0
C2841 C 0.34527 0.18516 0.49937 0.0
C2842 C 0.37054 0.13956 0.53151 0.0
C2843 C 0.32656 0.1979 0.49796 0.0
C2844 C 0.42855 0.06701 0.51828 0.0
C2845 C 0.41259 0.08307 0.51924 0.0
C2846 C 0.39439 0.1333 0.4931 0.0
C2847 C 0.34575 0.16621 0.51241 0.0
C2848 C 0.36496 0.15144 0.51253 0.0
C2849 C 0.41658 0.10413 0.51121 0.0
C2850 C 0.39937 0.12098 0.51187 0.0
H2851 H 0.2948 0.16903 0.53312 0.0
H2852 H 0.32674 0.14645 0.53478 0.0
H2853 H 0.37341 0.15669 0.4783 0.0
H2854 H 0.46867 0.09702 0.49489 0.0
H2855 H 0.44055 0.12494 0.49613 0.0
C2856 C 0.84518 0.29248 0.52334 0.0
C2857 C 0.82704 0.29173 0.50949 0.0
C2858 C 0.85814 0.31105 0.52434 0.0
C2859 C 0.87155 0.36092 0.49227 0.0
H2860 H 0.90445 0.3749 0.54454 0.0
C2861 C 0.92764 0.43661 0.49968 0.0
C2862 C 0.94852 0.43225 0.50756 0.0
C2863 C 0.91161 0.42057 0.50041 0.0
C2864 C 0.8954 0.37114 0.5298 0.0
H2865 H 0.80777 0.3106 0.48669 0.0
H2866 H 0.82977 0.34337 0.48923 0.0
H2867 H 0.87766 0.34594 0.54586 0.0
H2868 H 0.96879 0.40769 0.52266 0.0
H2869 H 0.94068 0.3799 0.5243 0.0
H2870 H 0.88919 0.38655 0.47645 0.0
C2871 C 0.83442 0.32928 0.49879 0.0
C2872 C 0.88007 0.35445 0.53049 0.0
C2873 C 0.82156 0.31056 0.49759 0.0
C2874 C 0.95293 0.41156 0.51634 0.0
C2875 C 0.93679 0.39568 0.51743 0.0
C2876 C 0.88665 0.37786 0.49171 0.0
C2877 C 0.85321 0.32964 0.51181 0.0
C2878 C 0.86817 0.34879 0.51163 0.0
C2879 C 0.91598 0.39998 0.50942 0.0
C2880 C 0.89899 0.38291 0.51037 0.0
H2881 H 0.84971 0.27848 0.5331 0.0
H2882 H 0.8725 0.31043 0.53441 0.0
H2883 H 0.86305 0.35693 0.47729 0.0
H2884 H 0.92374 0.45235 0.49274 0.0
H2885 H 0.89569 0.42436 0.49419 0.0
C2886 C 0.23146 0.67035 0.50697 0.0
C2887 C 0.22915 0.69202 0.51401 0.0
C2888 C 0.21346 0.6569 0.50438 0.0
C2889 C 0.15683 0.65091 0.52279 0.0
H2890 H 0.15512 0.60669 0.47744 0.0
C2891 C 0.08359 0.59308 0.51074 0.0
C2892 C 0.08839 0.57101 0.50696 0.0
C2893 C 0.09992 0.60884 0.51051 0.0
C2894 C 0.15541 0.61885 0.49031 0.0
H2895 H 0.20584 0.71666 0.52324 0.0
H2896 H 0.17435 0.69333 0.51821 0.0
H2897 H 0.18476 0.63269 0.47823 0.0
H2898 H 0.11434 0.54838 0.49982 0.0
H2899 H 0.14264 0.57576 0.49947 0.0
H2900 H 0.12747 0.63695 0.53487 0.0
C2901 C 0.19018 0.68662 0.51505 0.0
C2902 C 0.17244 0.63378 0.49078 0.0
C2903 C 0.20824 0.7001 0.51767 0.0
C2904 C 0.10995 0.56517 0.50284 0.0
C2905 C 0.12622 0.58093 0.50246 0.0
C2906 C 0.13974 0.63602 0.52226 0.0
C2907 C 0.19257 0.66474 0.50866 0.0
C2908 C 0.17357 0.64984 0.5072 0.0
C2909 C 0.12145 0.60296 0.50631 0.0
C2910 C 0.13896 0.61961 0.50618 0.0
H2911 H 0.24727 0.66363 0.50371 0.0
H2912 H 0.21603 0.64013 0.49964 0.0
H2913 H 0.15726 0.66282 0.53588 0.0
H2914 H 0.06721 0.59823 0.51401 0.0
H2915 H 0.09565 0.62568 0.51337 0.0
loop_
_geom_bond_atom_site_label_1
_geom_bond_atom_site_label_2
_geom_bond_distance
_geom_bond_site_symmetry_2
_ccdc_geom_bond_type
H0 C1 0.949 . S
C1 H0 0.949 . S
C1 C2 1.395 . S
C1 C3 1.391 . S
C2 C1 1.395 . S
C2 C5 1.390 . S
C3 C1 1.391 . S
C3 C7 1.387 . S
C3 C8 1.491 . S
H4 C5 0.950 . S
C5 C2 1.390 . S
C5 H4 0.950 . S
C5 C6 1.378 . S
C6 C5 1.378 . S
C6 C7 1.409 . S
C7 C3 1.387 . S
C7 C6 1.409 . S
C7 H9 0.951 . S
C8 C3 1.491 . S
C8 C10 1.382 . S
C8 C12 1.404 1_455 S
H9 C7 0.951 . S
C10 C8 1.382 . S
C10 C11 1.390 . S
C10 H15 0.949 . S
C11 C10 1.390 . S
C11 C16 1.399 1_455 S
C12 C8 1.404 1_655 S
C12 H13 0.950 . S
C12 C14 1.375 . S
H13 C12 0.950 . S
C14 C12 1.375 . S
C14 C16 1.382 . S
C14 H18 0.950 . S
H15 C10 0.949 . S
C16 C11 1.399 1_655 S
C16 C14 1.382 . S
C16 H17 0.952 . S
H17 C16 0.952 . S
H18 C14 0.950 . S
H19 C20 0.949 . S
C20 H19 0.949 . S
C20 C21 1.395 . S
C20 C22 1.391 . S
C21 C20 1.395 . S
C21 C24 1.390 1_545 S
C22 C20 1.391 . S
C22 C26 1.387 . S
C22 C27 1.491 . S
H23 C24 0.950 . S
C24 C21 1.390 1_565 S
C24 H23 0.950 . S
C24 C25 1.377 1_565 S
C25 C24 1.377 1_545 S
C25 C26 1.413 . S
C26 C22 1.387 . S
C26 C25 1.413 . S
C26 H28 0.951 . S
C27 C22 1.491 . S
C27 C29 1.382 . S
C27 C31 1.404 . S
H28 C26 0.951 . S
C29 C27 1.382 . S
C29 C30 1.390 . S
C29 H34 0.949 1_545 S
C30 C29 1.390 . S
C30 C35 1.399 . S
C31 C27 1.404 . S
C31 H32 0.950 . S
C31 C33 1.375 . S
H32 C31 0.950 . S
C33 C31 1.375 . S
C33 C35 1.382 . S
C33 H37 0.950 . S
H34 C29 0.949 1_565 S
C35 C30 1.399 . S
C35 C33 1.382 . S
C35 H36 0.952 . S
H36 C35 0.952 . S
H37 C33 0.950 . S
H38 C39 0.949 . S
C39 H38 0.949 . S
C39 C40 1.395 . S
C39 C41 1.391 . S
C40 C39 1.395 . S
C40 C43 1.390 . S
C41 C39 1.391 . S
C41 C45 1.387 . S
C41 C46 1.491 . S
H42 C43 0.950 . S
C43 C40 1.390 . S
C43 H42 0.950 . S
C43 C44 1.378 . S
C44 C43 1.378 . S
C44 C45 1.409 . S
C45 C41 1.387 . S
C45 C44 1.409 . S
C45 H47 0.951 . S
C46 C41 1.491 . S
C46 C48 1.382 . S
C46 C50 1.404 1_455 S
H47 C45 0.951 . S
C48 C46 1.382 . S
C48 C49 1.390 . S
C48 H53 0.949 . S
C49 C48 1.390 . S
C49 C54 1.399 1_455 S
C50 C46 1.404 1_655 S
C50 H51 0.950 . S
C50 C52 1.375 . S
H51 C50 0.950 . S
C52 C50 1.375 . S
C52 C54 1.382 . S
C52 H56 0.950 . S
H53 C48 0.949 . S
C54 C49 1.399 1_655 S
C54 C52 1.382 . S
C54 H55 0.952 . S
H55 C54 0.952 . S
H56 C52 0.950 . S
H57 C58 0.949 . S
C58 H57 0.949 . S
C58 C59 1.395 1_565 S
C58 C60 1.391 . S
C59 C58 1.395 1_545 S
C59 C62 1.390 . S
C60 C58 1.391 . S
C60 C64 1.387 . S
C60 C65 1.491 . S
H61 C62 0.950 . S
C62 C59 1.390 . S
C62 H61 0.950 . S
C62 C63 1.377 1_545 S
C63 C62 1.377 1_565 S
C63 C64 1.410 . S
C64 C60 1.387 . S
C64 C63 1.410 . S
C64 H66 0.951 . S
C65 C60 1.491 . S
C65 C67 1.402 . S
C65 C69 1.404 . S
H66 C64 0.951 . S
C67 C65 1.402 . S
C67 C68 1.400 . S
C67 H72 0.920 1_565 S
C68 C67 1.400 . S
C68 C73 1.399 . S
C69 C65 1.404 . S
C69 H70 0.950 . S
C69 C71 1.375 . S
H70 C69 0.950 . S
C71 C69 1.375 . S
C71 C73 1.382 . S
C71 H75 0.950 . S
H72 C67 0.920 1_545 S
C73 C68 1.399 . S
C73 C71 1.382 . S
C73 H74 0.952 . S
H74 C73 0.952 . S
H75 C71 0.950 . S
H76 C77 0.949 . S
C77 H76 0.949 . S
C77 C78 1.395 . S
C77 C79 1.391 . S
C78 C77 1.395 . S
C78 C81 1.390 . S
C79 C77 1.391 . S
C79 C83 1.387 . S
C79 C84 1.491 . S
H80 C81 0.950 . S
C81 C78 1.390 . S
C81 H80 0.950 . S
C81 C82 1.378 . S
C82 C81 1.378 . S
C82 C83 1.409 . S
C83 C79 1.387 . S
C83 C82 1.409 . S
C83 H85 0.951 . S
C84 C79 1.491 . S
C84 C86 1.382 . S
C84 C88 1.404 1_455 S
H85 C83 0.951 . S
C86 C84 1.382 . S
C86 C87 1.390 . S
C86 H91 0.949 . S
C87 C86 1.390 . S
C87 C92 1.399 1_455 S
C88 C84 1.404 1_655 S
C88 H89 0.950 . S
C88 C90 1.375 . S
H89 C88 0.950 . S
C90 C88 1.375 . S
C90 C92 1.382 . S
C90 H94 0.950 . S
H91 C86 0.949 . S
C92 C87 1.399 1_655 S
C92 C90 1.382 . S
C92 H93 0.952 . S
H93 C92 0.952 . S
H94 C90 0.950 . S
H95 C96 0.949 . S
C96 H95 0.949 . S
C96 C97 1.395 . S
C96 C98 1.391 . S
C97 C96 1.395 . S
C97 C100 1.391 . S
C98 C96 1.391 . S
C98 C102 1.387 . S
C98 C103 1.491 . S
H99 C100 0.948 1_565 S
C100 C97 1.391 . S
C100 H99 0.948 1_545 S
C100 C101 1.379 . S
C101 C100 1.379 . S
C101 C102 1.409 . S
C102 C98 1.387 . S
C102 C101 1.409 . S
C102 H104 0.951 . S
C103 C98 1.491 . S
C103 C105 1.382 . S
C103 C107 1.404 . S
H104 C102 0.951 . S
C105 C103 1.382 . S
C105 C106 1.390 . S
C105 H110 0.949 1_545 S
C106 C105 1.390 . S
C106 C111 1.399 . S
C107 C103 1.404 . S
C107 H108 0.950 . S
C107 C109 1.375 . S
H108 C107 0.950 . S
C109 C107 1.375 . S
C109 C111 1.382 . S
C109 H113 0.950 . S
H110 C105 0.949 1_565 S
C111 C106 1.399 . S
C111 C109 1.382 . S
C111 H112 0.952 . S
H112 C111 0.952 . S
H113 C109 0.950 . S
H114 C115 0.949 . S
C115 H114 0.949 . S
C115 C116 1.395 . S
C115 C117 1.391 . S
C116 C115 1.395 . S
C116 C119 1.390 . S
C117 C115 1.391 . S
C117 C121 1.387 . S
C117 C122 1.491 . S
H118 C119 0.950 . S
C119 C116 1.390 . S
C119 H118 0.950 . S
C119 C120 1.378 . S
C120 C119 1.378 . S
C120 C121 1.409 . S
C121 C117 1.387 . S
C121 C120 1.409 . S
C121 H123 0.951 . S
C122 C117 1.491 . S
C122 C124 1.382 . S
C122 C126 1.404 1_455 S
H123 C121 0.951 . S
C124 C122 1.382 . S
C124 C125 1.390 . S
C124 H129 0.949 . S
C125 C124 1.390 . S
C125 C130 1.399 1_455 S
C126 C122 1.404 1_655 S
C126 H127 0.950 . S
C126 C128 1.375 . S
H127 C126 0.950 . S
C128 C126 1.375 . S
C128 C130 1.382 . S
C128 H132 0.950 . S
H129 C124 0.949 . S
C130 C125 1.399 1_655 S
C130 C128 1.382 . S
C130 H131 0.952 . S
H131 C130 0.952 . S
H132 C128 0.950 . S
H133 C134 0.949 . S
C134 H133 0.949 . S
C134 C135 1.395 . S
C134 C136 1.391 . S
C135 C134 1.395 . S
C135 C138 1.391 . S
C136 C134 1.391 . S
C136 C140 1.387 . S
C136 C141 1.491 . S
H137 C138 0.948 1_565 S
C138 C135 1.391 . S
C138 H137 0.948 1_545 S
C138 C139 1.379 . S
C139 C138 1.379 . S
C139 C140 1.409 . S
C140 C136 1.387 . S
C140 C139 1.409 . S
C140 H142 0.951 . S
C141 C136 1.491 . S
C141 C143 1.382 . S
C141 C145 1.404 . S
H142 C140 0.951 . S
C143 C141 1.382 . S
C143 C144 1.390 . S
C143 H148 0.949 1_545 S
C144 C143 1.390 . S
C144 C149 1.399 . S
C145 C141 1.404 . S
C145 H146 0.950 . S
C145 C147 1.375 . S
H146 C145 0.950 . S
C147 C145 1.375 . S
C147 C149 1.382 . S
C147 H151 0.950 . S
H148 C143 0.949 1_565 S
C149 C144 1.399 . S
C149 C147 1.382 . S
C149 H150 0.952 . S
H150 C149 0.952 . S
H151 C147 0.950 . S
H152 C153 0.949 . S
C153 H152 0.949 . S
C153 C154 1.395 . S
C153 C155 1.391 . S
C154 C153 1.395 . S
C154 C157 1.390 . S
C155 C153 1.391 . S
C155 C159 1.387 . S
C155 C160 1.491 . S
H156 C157 0.950 . S
C157 C154 1.390 . S
C157 H156 0.950 . S
C157 C158 1.378 . S
C158 C157 1.378 . S
C158 C159 1.409 . S
C159 C155 1.387 . S
C159 C158 1.409 . S
C159 H161 0.951 . S
C160 C155 1.491 . S
C160 C162 1.382 . S
C160 C164 1.404 . S
H161 C159 0.951 . S
C162 C160 1.382 . S
C162 C163 1.390 . S
C162 H167 0.920 1_554 S
C163 C162 1.390 . S
C163 C168 1.399 . S
C164 C160 1.404 . S
C164 H165 0.950 . S
C164 C166 1.375 . S
H165 C164 0.950 . S
C166 C164 1.375 . S
C166 C168 1.382 . S
C166 H170 0.950 . S
H167 C162 0.920 1_556 S
C168 C163 1.399 . S
C168 C166 1.382 . S
C168 H169 0.952 . S
H169 C168 0.952 . S
H170 C166 0.950 . S
H171 C172 0.949 . S
C172 H171 0.949 . S
C172 C173 1.395 . S
C172 C174 1.391 . S
C173 C172 1.395 . S
C173 C176 1.390 . S
C174 C172 1.391 . S
C174 C178 1.387 . S
C174 C179 1.491 1_554 S
H175 C176 0.950 . S
C176 C173 1.390 . S
C176 H175 0.950 . S
C176 C177 1.378 . S
C177 C176 1.378 . S
C177 C178 1.409 . S
C178 C174 1.387 . S
C178 C177 1.409 . S
C178 H180 0.951 . S
C179 C174 1.491 1_556 S
C179 C181 1.382 1_556 S
C179 C183 1.404 . S
H180 C178 0.951 . S
C181 C179 1.382 1_554 S
C181 C182 1.398 . S
C181 H186 0.949 . S
C182 C181 1.398 . S
C182 C187 1.376 1_554 S
C183 C179 1.404 . S
C183 H184 0.950 . S
C183 C185 1.375 . S
H184 C183 0.950 . S
C185 C183 1.375 . S
C185 C187 1.382 . S
C185 H189 0.950 . S
H186 C181 0.949 . S
C187 C182 1.376 1_556 S
C187 C185 1.382 . S
C187 H188 0.952 . S
H188 C187 0.952 . S
H189 C185 0.950 . S
H190 C191 0.949 . S
C191 H190 0.949 . S
C191 C192 1.395 . S
C191 C193 1.391 . S
C192 C191 1.395 . S
C192 C195 1.390 . S
C193 C191 1.391 . S
C193 C197 1.387 . S
C193 C198 1.491 . S
H194 C195 0.950 . S
C195 C192 1.390 . S
C195 H194 0.950 . S
C195 C196 1.378 . S
C196 C195 1.378 . S
C196 C197 1.409 . S
C197 C193 1.387 . S
C197 C196 1.409 . S
C197 H199 0.951 . S
C198 C193 1.491 . S
C198 C200 1.382 . S
C198 C202 1.404 . S
H199 C197 0.951 . S
C200 C198 1.382 . S
C200 C201 1.390 . S
C200 H205 0.944 1_554 S
C201 C200 1.390 . S
C201 C206 1.399 . S
C202 C198 1.404 . S
C202 H203 0.950 . S
C202 C204 1.375 . S
H203 C202 0.950 . S
C204 C202 1.375 . S
C204 C206 1.382 . S
C204 H208 0.950 . S
H205 C200 0.944 1_556 S
C206 C201 1.399 . S
C206 C204 1.382 . S
C206 H207 0.952 . S
H207 C206 0.952 . S
H208 C204 0.950 . S
H209 C210 0.949 . S
C210 H209 0.949 . S
C210 C211 1.395 . S
C210 C212 1.397 . S
C211 C210 1.395 . S
C211 C214 1.390 . S
C212 C210 1.397 . S
C212 C216 1.391 . S
C212 C217 1.483 1_554 S
H213 C214 0.950 . S
C214 C211 1.390 . S
C214 H213 0.950 . S
C214 C215 1.378 . S
C215 C214 1.378 . S
C215 C216 1.409 . S
C216 C212 1.391 . S
C216 C215 1.409 . S
C216 H218 0.951 . S
C217 C212 1.483 1_556 S
C217 C219 1.382 1_556 S
C217 C221 1.404 . S
H218 C216 0.951 . S
C219 C217 1.382 1_554 S
C219 C220 1.390 . S
C219 H224 0.949 . S
C220 C219 1.390 . S
C220 C225 1.399 1_554 S
C221 C217 1.404 . S
C221 H222 0.950 . S
C221 C223 1.375 . S
H222 C221 0.950 . S
C223 C221 1.375 . S
C223 C225 1.382 . S
C223 H227 0.950 . S
H224 C219 0.949 . S
C225 C220 1.399 1_556 S
C225 C223 1.382 . S
C225 H226 0.952 . S
H226 C225 0.952 . S
H227 C223 0.950 . S
H228 C229 0.949 . S
C229 H228 0.949 . S
C229 C230 1.395 . S
C229 C231 1.391 . S
C230 C229 1.395 . S
C230 C233 1.390 . S
C231 C229 1.391 . S
C231 C235 1.387 . S
C231 C236 1.491 . S
H232 C233 0.950 . S
C233 C230 1.390 . S
C233 H232 0.950 . S
C233 C234 1.378 . S
C234 C233 1.378 . S
C234 C235 1.409 . S
C235 C231 1.387 . S
C235 C234 1.409 . S
C235 H237 0.951 . S
C236 C231 1.491 . S
C236 C238 1.382 . S
C236 C240 1.404 . S
H237 C235 0.951 . S
C238 C236 1.382 . S
C238 C239 1.390 . S
C238 H243 0.949 . S
C239 C238 1.390 . S
C239 C244 1.399 . S
C240 C236 1.404 . S
C240 H241 0.950 . S
C240 C242 1.375 . S
H241 C240 0.950 . S
C242 C240 1.375 . S
C242 C244 1.382 . S
C242 H246 0.950 . S
H243 C238 0.949 . S
C244 C239 1.399 . S
C244 C242 1.382 . S
C244 H245 0.952 . S
H245 C244 0.952 . S
H246 C242 0.950 . S
H247 C248 0.949 . S
C248 H247 0.949 . S
C248 C249 1.395 . S
C248 C250 1.391 . S
C249 C248 1.395 . S
C249 C252 1.390 . S
C250 C248 1.391 . S
C250 C254 1.387 . S
C250 C255 1.491 . S
H251 C252 0.950 . S
C252 C249 1.390 . S
C252 H251 0.950 . S
C252 C253 1.378 . S
C253 C252 1.378 . S
C253 C254 1.409 . S
C254 C250 1.387 . S
C254 C253 1.409 . S
C254 H256 0.951 . S
C255 C250 1.491 . S
C255 C257 1.382 . S
C255 C259 1.404 . S
H256 C254 0.951 . S
C257 C255 1.382 . S
C257 C258 1.390 . S
C257 H262 0.949 . S
C258 C257 1.390 . S
C258 C263 1.399 . S
C259 C255 1.404 . S
C259 H260 0.950 . S
C259 C261 1.375 . S
H260 C259 0.950 . S
C261 C259 1.375 . S
C261 C263 1.382 . S
C261 H265 0.950 . S
H262 C257 0.949 . S
C263 C258 1.399 . S
C263 C261 1.382 . S
C263 H264 0.952 . S
H264 C263 0.952 . S
H265 C261 0.950 . S
H266 C267 0.949 . S
C267 H266 0.949 . S
C267 C268 1.395 . S
C267 C269 1.391 . S
C268 C267 1.395 . S
C268 C271 1.390 . S
C269 C267 1.391 . S
C269 C273 1.387 . S
C269 C274 1.491 . S
H270 C271 0.950 . S
C271 C268 1.390 . S
C271 H270 0.950 . S
C271 C272 1.378 . S
C272 C271 1.378 . S
C272 C273 1.409 . S
C273 C269 1.387 . S
C273 C272 1.409 . S
C273 H275 0.951 . S
C274 C269 1.491 . S
C274 C276 1.382 . S
C274 C278 1.404 . S
H275 C273 0.951 . S
C276 C274 1.382 . S
C276 C277 1.390 . S
C276 H281 0.949 . S
C277 C276 1.390 . S
C277 C282 1.399 . S
C278 C274 1.404 . S
C278 H279 0.950 . S
C278 C280 1.375 . S
H279 C278 0.950 . S
C280 C278 1.375 . S
C280 C282 1.382 . S
C280 H284 0.950 . S
H281 C276 0.949 . S
C282 C277 1.399 . S
C282 C280 1.382 . S
C282 H283 0.952 . S
H283 C282 0.952 . S
H284 C280 0.950 . S
H285 C286 0.949 . S
C286 H285 0.949 . S
C286 C287 1.395 . S
C286 C288 1.391 . S
C287 C286 1.395 . S
C287 C290 1.390 . S
C288 C286 1.391 . S
C288 C292 1.387 . S
C288 C293 1.491 . S
H289 C290 0.950 . S
C290 C287 1.390 . S
C290 H289 0.950 . S
C290 C291 1.378 . S
C291 C290 1.378 . S
C291 C292 1.409 . S
C292 C288 1.387 . S
C292 C291 1.409 . S
C292 H294 0.951 . S
C293 C288 1.491 . S
C293 C295 1.382 . S
C293 C297 1.404 . S
H294 C292 0.951 . S
C295 C293 1.382 . S
C295 C296 1.390 . S
C295 H300 0.949 . S
C296 C295 1.390 . S
C296 C301 1.399 . S
C297 C293 1.404 . S
C297 H298 0.950 . S
C297 C299 1.375 . S
H298 C297 0.950 . S
C299 C297 1.375 . S
C299 C301 1.382 . S
C299 H303 0.950 . S
H300 C295 0.949 . S
C301 C296 1.399 . S
C301 C299 1.382 . S
C301 H302 0.952 . S
H302 C301 0.952 . S
H303 C299 0.950 . S
H304 C305 0.949 . S
C305 H304 0.949 . S
C305 C306 1.395 . S
C305 C307 1.391 . S
C306 C305 1.395 . S
C306 C309 1.390 . S
C307 C305 1.391 . S
C307 C311 1.387 . S
C307 C312 1.491 . S
H308 C309 0.950 . S
C309 C306 1.390 . S
C309 H308 0.950 . S
C309 C310 1.378 . S
C310 C309 1.378 . S
C310 C311 1.409 . S
C311 C307 1.387 . S
C311 C310 1.409 . S
C311 H313 0.951 . S
C312 C307 1.491 . S
C312 C314 1.382 . S
C312 C316 1.404 . S
H313 C311 0.951 . S
C314 C312 1.382 . S
C314 C315 1.390 . S
C314 H319 0.949 . S
C315 C314 1.390 . S
C315 C320 1.399 . S
C316 C312 1.404 . S
C316 H317 0.950 . S
C316 C318 1.375 . S
H317 C316 0.950 . S
C318 C316 1.375 . S
C318 C320 1.382 . S
C318 H322 0.950 . S
H319 C314 0.949 . S
C320 C315 1.399 . S
C320 C318 1.382 . S
C320 H321 0.952 . S
H321 C320 0.952 . S
H322 C318 0.950 . S
H323 C324 0.949 . S
C324 H323 0.949 . S
C324 C325 1.395 . S
C324 C326 1.391 . S
C325 C324 1.395 . S
C325 C328 1.390 . S
C326 C324 1.391 . S
C326 C330 1.387 . S
C326 C331 1.491 . S
H327 C328 0.950 . S
C328 C325 1.390 . S
C328 H327 0.950 . S
C328 C329 1.378 . S
C329 C328 1.378 . S
C329 C330 1.409 . S
C330 C326 1.387 . S
C330 C329 1.409 . S
C330 H332 0.951 . S
C331 C326 1.491 . S
C331 C333 1.382 . S
C331 C335 1.404 . S
H332 C330 0.951 . S
C333 C331 1.382 . S
C333 C334 1.390 . S
C333 H338 0.949 . S
C334 C333 1.390 . S
C334 C339 1.399 . S
C335 C331 1.404 . S
C335 H336 0.950 . S
C335 C337 1.375 . S
H336 C335 0.950 . S
C337 C335 1.375 . S
C337 C339 1.382 . S
C337 H341 0.950 . S
H338 C333 0.949 . S
C339 C334 1.399 . S
C339 C337 1.382 . S
C339 H340 0.952 . S
H340 C339 0.952 . S
H341 C337 0.950 . S
H342 C343 0.949 . S
C343 H342 0.949 . S
C343 C344 1.395 . S
C343 C345 1.391 . S
C344 C343 1.395 . S
C344 C347 1.390 . S
C345 C343 1.391 . S
C345 C349 1.387 . S
C345 C350 1.491 . S
H346 C347 0.950 . S
C347 C344 1.390 . S
C347 H346 0.950 . S
C347 C348 1.378 . S
C348 C347 1.378 . S
C348 C349 1.409 . S
C349 C345 1.387 . S
C349 C348 1.409 . S
C349 H351 0.951 . S
C350 C345 1.491 . S
C350 C352 1.382 . S
C350 C354 1.404 . S
H351 C349 0.951 . S
C352 C350 1.382 . S
C352 C353 1.390 . S
C352 H357 0.949 . S
C353 C352 1.390 . S
C353 C358 1.399 . S
C354 C350 1.404 . S
C354 H355 0.950 . S
C354 C356 1.375 . S
H355 C354 0.950 . S
C356 C354 1.375 . S
C356 C358 1.382 . S
C356 H360 0.950 . S
H357 C352 0.949 . S
C358 C353 1.399 . S
C358 C356 1.382 . S
C358 H359 0.952 . S
H359 C358 0.952 . S
H360 C356 0.950 . S
H361 C362 0.949 . S
C362 H361 0.949 . S
C362 C363 1.395 . S
C362 C364 1.391 . S
C363 C362 1.395 . S
C363 C366 1.390 . S
C364 C362 1.391 . S
C364 C368 1.387 . S
C364 C369 1.491 . S
H365 C366 0.950 . S
C366 C363 1.390 . S
C366 H365 0.950 . S
C366 C367 1.378 . S
C367 C366 1.378 . S
C367 C368 1.409 . S
C368 C364 1.387 . S
C368 C367 1.409 . S
C368 H370 0.951 . S
C369 C364 1.491 . S
C369 C371 1.382 . S
C369 C373 1.404 . S
H370 C368 0.951 . S
C371 C369 1.382 . S
C371 C372 1.390 . S
C371 H376 0.949 . S
C372 C371 1.390 . S
C372 C377 1.399 . S
C373 C369 1.404 . S
C373 H374 0.950 . S
C373 C375 1.375 . S
H374 C373 0.950 . S
C375 C373 1.375 . S
C375 C377 1.382 . S
C375 H379 0.950 . S
H376 C371 0.949 . S
C377 C372 1.399 . S
C377 C375 1.382 . S
C377 H378 0.952 . S
H378 C377 0.952 . S
H379 C375 0.950 . S
H380 C381 0.949 . S
C381 H380 0.949 . S
C381 C382 1.395 . S
C381 C383 1.391 . S
C382 C381 1.395 . S
C382 C385 1.390 . S
C383 C381 1.391 . S
C383 C387 1.387 . S
C383 C388 1.491 . S
H384 C385 0.950 . S
C385 C382 1.390 . S
C385 H384 0.950 . S
C385 C386 1.378 . S
C386 C385 1.378 . S
C386 C387 1.409 . S
C387 C383 1.387 . S
C387 C386 1.409 . S
C387 H389 0.951 . S
C388 C383 1.491 . S
C388 C390 1.382 . S
C388 C392 1.404 . S
H389 C387 0.951 . S
C390 C388 1.382 . S
C390 C391 1.390 . S
C390 H395 0.949 . S
C391 C390 1.390 . S
C391 C396 1.399 . S
C392 C388 1.404 . S
C392 H393 0.950 . S
C392 C394 1.375 . S
H393 C392 0.950 . S
C394 C392 1.375 . S
C394 C396 1.382 . S
C394 H398 0.950 . S
H395 C390 0.949 . S
C396 C391 1.399 . S
C396 C394 1.382 . S
C396 H397 0.952 . S
H397 C396 0.952 . S
H398 C394 0.950 . S
H399 C400 0.949 . S
C400 H399 0.949 . S
C400 C401 1.395 . S
C400 C402 1.391 . S
C401 C400 1.395 . S
C401 C404 1.390 . S
C402 C400 1.391 . S
C402 C406 1.387 . S
C402 C407 1.491 . S
H403 C404 0.950 . S
C404 C401 1.390 . S
C404 H403 0.950 . S
C404 C405 1.378 . S
C405 C404 1.378 . S
C405 C406 1.409 . S
C406 C402 1.387 . S
C406 C405 1.409 . S
C406 H408 0.951 . S
C407 C402 1.491 . S
C407 C409 1.382 . S
C407 C411 1.404 . S
H408 C406 0.951 . S
C409 C407 1.382 . S
C409 C410 1.390 . S
C409 H414 0.949 . S
C410 C409 1.390 . S
C410 C415 1.399 . S
C411 C407 1.404 . S
C411 H412 0.950 . S
C411 C413 1.375 . S
H412 C411 0.950 . S
C413 C411 1.375 . S
C413 C415 1.382 . S
C413 H417 0.950 . S
H414 C409 0.949 . S
C415 C410 1.399 . S
C415 C413 1.382 . S
C415 H416 0.952 . S
H416 C415 0.952 . S
H417 C413 0.950 . S
H418 C419 0.949 . S
C419 H418 0.949 . S
C419 C420 1.395 . S
C419 C421 1.391 . S
C420 C419 1.395 . S
C420 C423 1.390 . S
C421 C419 1.391 . S
C421 C425 1.387 . S
C421 C426 1.491 . S
H422 C423 0.950 . S
C423 C420 1.390 . S
C423 H422 0.950 . S
C423 C424 1.378 . S
C424 C423 1.378 . S
C424 C425 1.409 . S
C425 C421 1.387 . S
C425 C424 1.409 . S
C425 H427 0.951 . S
C426 C421 1.491 . S
C426 C428 1.382 . S
C426 C430 1.404 . S
H427 C425 0.951 . S
C428 C426 1.382 . S
C428 C429 1.390 . S
C428 H433 0.949 . S
C429 C428 1.390 . S
C429 C434 1.399 . S
C430 C426 1.404 . S
C430 H431 0.950 . S
C430 C432 1.375 . S
H431 C430 0.950 . S
C432 C430 1.375 . S
C432 C434 1.382 . S
C432 H436 0.950 . S
H433 C428 0.949 . S
C434 C429 1.399 . S
C434 C432 1.382 . S
C434 H435 0.952 . S
H435 C434 0.952 . S
H436 C432 0.950 . S
H437 C438 0.949 . S
C438 H437 0.949 . S
C438 C439 1.395 . S
C438 C440 1.391 . S
C439 C438 1.395 . S
C439 C442 1.390 . S
C440 C438 1.391 . S
C440 C444 1.387 . S
C440 C445 1.491 . S
H441 C442 0.950 . S
C442 C439 1.390 . S
C442 H441 0.950 . S
C442 C443 1.378 . S
C443 C442 1.378 . S
C443 C444 1.409 . S
C444 C440 1.387 . S
C444 C443 1.409 . S
C444 H446 0.951 . S
C445 C440 1.491 . S
C445 C447 1.382 . S
C445 C449 1.404 . S
H446 C444 0.951 . S
C447 C445 1.382 . S
C447 C448 1.390 . S
C447 H452 0.949 . S
C448 C447 1.390 . S
C448 C453 1.399 . S
C449 C445 1.404 . S
C449 H450 0.950 . S
C449 C451 1.375 . S
H450 C449 0.950 . S
C451 C449 1.375 . S
C451 C453 1.382 . S
C451 H455 0.950 . S
H452 C447 0.949 . S
C453 C448 1.399 . S
C453 C451 1.382 . S
C453 H454 0.952 . S
H454 C453 0.952 . S
H455 C451 0.950 . S
C456 O482 1.283 . S
C456 O500 1.283 . S
C457 O483 1.283 . S
C457 O498 1.283 . S
C458 O484 1.283 . S
C458 O501 1.283 . S
C459 O485 1.283 . S
C459 O499 1.283 . S
C460 O486 1.283 . S
C460 O495 1.283 . S
C461 O487 1.283 . S
C461 O497 1.283 . S
C462 O488 1.283 . S
C462 O494 1.283 . S
C463 O489 1.283 . S
C463 O496 1.283 . S
C464 O490 1.283 . S
C464 O505 1.283 . S
C465 O491 1.283 . S
C465 O503 1.283 . S
C466 O492 1.283 . S
C466 O504 1.283 . S
C467 O493 1.283 . S
C467 O502 1.283 . S
Eu468 O469 2.360 1_455 S
Eu468 O470 2.370 . S
Eu468 O473 2.361 1_455 S
Eu468 O474 2.370 . S
Eu468 O482 2.363 . S
Eu468 O483 2.363 . S
Eu468 O496 2.363 . S
Eu468 O497 2.363 1_455 S
O469 Eu468 2.360 1_655 S
O469 Eu471 2.358 1_565 S
O469 Eu476 2.339 1_665 S
O470 Eu468 2.370 . S
O470 Eu472 2.346 1_565 S
O470 Eu475 2.344 1_565 S
Eu471 O469 2.358 1_545 S
Eu471 O473 2.357 1_545 S
Eu471 O477 2.405 . S
Eu471 O478 2.406 . S
Eu471 O486 2.404 . S
Eu471 O487 2.322 1_545 S
Eu471 O502 2.363 . S
Eu471 O503 2.363 . S
Eu472 O470 2.346 1_545 S
Eu472 O474 2.346 1_545 S
Eu472 O479 2.394 . S
Eu472 O480 2.395 . S
Eu472 O488 2.404 . S
Eu472 O489 2.322 1_545 S
Eu472 O504 2.363 . S
Eu472 O505 2.363 . S
O473 Eu468 2.361 1_655 S
O473 Eu471 2.357 1_565 S
O473 Eu475 2.334 1_665 S
O474 Eu468 2.370 . S
O474 Eu472 2.346 1_565 S
O474 Eu476 2.349 1_565 S
Eu475 O470 2.344 1_545 S
Eu475 O473 2.334 1_445 S
Eu475 O477 2.388 1_455 S
Eu475 O480 2.397 . S
Eu475 O492 2.363 . S
Eu475 O493 2.363 1_455 S
Eu475 O500 2.318 1_545 S
Eu475 O501 2.408 . S
Eu476 O469 2.339 1_445 S
Eu476 O474 2.349 1_545 S
Eu476 O478 2.382 1_455 S
Eu476 O479 2.392 . S
Eu476 O490 2.363 . S
Eu476 O491 2.363 1_455 S
Eu476 O498 2.327 1_545 S
Eu476 O499 2.399 . S
O477 Eu471 2.405 . S
O477 Eu475 2.388 1_655 S
O477 Eu481 2.361 1_655 S
O478 Eu471 2.406 . S
O478 Eu476 2.382 1_655 S
O478 Eu481 2.360 1_655 S
O479 Eu472 2.394 . S
O479 Eu476 2.392 . S
O479 Eu481 2.370 . S
O480 Eu472 2.395 . S
O480 Eu475 2.397 . S
O480 Eu481 2.370 . S
Eu481 O477 2.361 1_455 S
Eu481 O478 2.360 1_455 S
Eu481 O479 2.370 . S
Eu481 O480 2.370 . S
Eu481 O484 2.363 . S
Eu481 O485 2.363 . S
Eu481 O494 2.363 . S
Eu481 O495 2.363 1_455 S
O482 C456 1.283 . S
O482 Eu468 2.363 . S
O483 C457 1.283 . S
O483 Eu468 2.363 . S
O484 C458 1.283 . S
O484 Eu481 2.363 . S
O485 C459 1.283 . S
O485 Eu481 2.363 . S
O486 C460 1.283 . S
O486 Eu471 2.404 . S
O487 C461 1.283 . S
O487 Eu471 2.322 1_565 S
O488 C462 1.283 . S
O488 Eu472 2.404 . S
O489 C463 1.283 . S
O489 Eu472 2.322 1_565 S
O490 C464 1.283 . S
O490 Eu476 2.363 . S
O491 C465 1.283 . S
O491 Eu476 2.363 1_655 S
O492 C466 1.283 . S
O492 Eu475 2.363 . S
O493 C467 1.283 . S
O493 Eu475 2.363 1_655 S
O494 C462 1.283 . S
O494 Eu481 2.363 . S
O495 C460 1.283 . S
O495 Eu481 2.363 1_655 S
O496 C463 1.283 . S
O496 Eu468 2.363 . S
O497 C461 1.283 . S
O497 Eu468 2.363 1_655 S
O498 C457 1.283 . S
O498 Eu476 2.327 1_565 S
O499 C459 1.283 . S
O499 Eu476 2.399 . S
O500 C456 1.283 . S
O500 Eu475 2.318 1_565 S
O501 C458 1.283 . S
O501 Eu475 2.408 . S
O502 C467 1.283 . S
O502 Eu471 2.363 . S
O503 C465 1.283 . S
O503 Eu471 2.363 . S
O504 C466 1.283 . S
O504 Eu472 2.363 . S
O505 C464 1.283 . S
O505 Eu472 2.363 . S
C506 O532 1.283 . S
C506 O550 1.283 . S
C507 O533 1.283 . S
C507 O548 1.283 . S
C508 O534 1.283 . S
C508 O551 1.283 . S
C509 O535 1.283 . S
C509 O549 1.283 . S
C510 O536 1.283 . S
C510 O545 1.283 . S
C511 O537 1.283 . S
C511 O547 1.283 . S
C512 O538 1.283 . S
C512 O544 1.283 . S
C513 O539 1.283 . S
C513 O546 1.283 . S
C514 O540 1.283 . S
C514 O555 1.283 . S
C515 O541 1.283 . S
C515 O553 1.283 . S
C516 O542 1.283 . S
C516 O554 1.283 . S
C517 O543 1.283 . S
C517 O552 1.283 . S
Eu518 O519 2.387 . S
Eu518 O520 2.354 1_545 S
Eu518 O523 2.354 1_545 S
Eu518 O524 2.387 . S
Eu518 O532 2.335 1_545 S
Eu518 O533 2.390 . S
Eu518 O546 2.363 . S
Eu518 O547 2.363 . S
O519 Eu518 2.387 . S
O519 Eu521 2.394 . S
O519 Eu526 2.370 . S
O520 Eu518 2.354 1_565 S
O520 Eu522 2.346 1_565 S
O520 Eu525 2.370 . S
Eu521 O519 2.394 . S
Eu521 O523 2.346 1_545 S
Eu521 O527 2.346 1_544 S
Eu521 O528 2.395 1_554 S
Eu521 O536 2.364 1_554 S
Eu521 O537 2.363 . S
Eu521 O552 2.322 1_545 S
Eu521 O553 2.404 . S
Eu522 O520 2.346 1_545 S
Eu522 O524 2.394 . S
Eu522 O529 2.395 1_554 S
Eu522 O530 2.346 1_544 S
Eu522 O538 2.364 1_554 S
Eu522 O539 2.363 . S
Eu522 O554 2.322 1_545 S
Eu522 O555 2.404 . S
O523 Eu518 2.354 1_565 S
O523 Eu521 2.346 1_565 S
O523 Eu525 2.370 . S
O524 Eu518 2.387 . S
O524 Eu522 2.394 . S
O524 Eu526 2.370 . S
Eu525 O520 2.370 . S
Eu525 O523 2.370 . S
Eu525 O527 2.370 1_554 S
Eu525 O530 2.370 1_554 S
Eu525 O542 2.363 . S
Eu525 O543 2.363 . S
Eu525 O550 2.363 . S
Eu525 O551 2.363 1_554 S
Eu526 O519 2.370 . S
Eu526 O524 2.370 . S
Eu526 O528 2.370 1_554 S
Eu526 O529 2.370 1_554 S
Eu526 O540 2.363 . S
Eu526 O541 2.363 . S
Eu526 O548 2.363 . S
Eu526 O549 2.363 1_554 S
O527 Eu521 2.346 1_566 S
O527 Eu525 2.370 1_556 S
O527 Eu531 2.370 1_565 S
O528 Eu521 2.395 1_556 S
O528 Eu526 2.370 1_556 S
O528 Eu531 2.370 . S
O529 Eu522 2.395 1_556 S
O529 Eu526 2.370 1_556 S
O529 Eu531 2.370 . S
O530 Eu522 2.346 1_566 S
O530 Eu525 2.370 1_556 S
O530 Eu531 2.370 1_565 S
Eu531 O527 2.370 1_545 S
Eu531 O528 2.370 . S
Eu531 O529 2.370 . S
Eu531 O530 2.370 1_545 S
Eu531 O534 2.363 1_545 S
Eu531 O535 2.363 . S
Eu531 O544 2.363 . S
Eu531 O545 2.363 . S
O532 C506 1.283 . S
O532 Eu518 2.335 1_565 S
O533 C507 1.283 . S
O533 Eu518 2.390 . S
O534 C508 1.283 . S
O534 Eu531 2.363 1_565 S
O535 C509 1.283 . S
O535 Eu531 2.363 . S
O536 C510 1.283 . S
O536 Eu521 2.364 1_556 S
O537 C511 1.283 . S
O537 Eu521 2.363 . S
O538 C512 1.283 . S
O538 Eu522 2.364 1_556 S
O539 C513 1.283 . S
O539 Eu522 2.363 . S
O540 C514 1.283 . S
O540 Eu526 2.363 . S
O541 C515 1.283 . S
O541 Eu526 2.363 . S
O542 C516 1.283 . S
O542 Eu525 2.363 . S
O543 C517 1.283 . S
O543 Eu525 2.363 . S
O544 C512 1.283 . S
O544 Eu531 2.363 . S
O545 C510 1.283 . S
O545 Eu531 2.363 . S
O546 C513 1.283 . S
O546 Eu518 2.363 . S
O547 C511 1.283 . S
O547 Eu518 2.363 . S
O548 C507 1.283 . S
O548 Eu526 2.363 . S
O549 C509 1.283 . S
O549 Eu526 2.363 1_556 S
O550 C506 1.283 . S
O550 Eu525 2.363 . S
O551 C508 1.283 . S
O551 Eu525 2.363 1_556 S
O552 C517 1.283 . S
O552 Eu521 2.322 1_565 S
O553 C515 1.283 . S
O553 Eu521 2.404 . S
O554 C516 1.283 . S
O554 Eu522 2.322 1_565 S
O555 C514 1.283 . S
O555 Eu522 2.404 . S
C556 O582 1.283 . S
C556 O600 1.283 . S
C557 O583 1.283 . S
C557 O598 1.283 . S
C558 O584 1.283 . S
C558 O601 1.283 . S
C559 O585 1.283 . S
C559 O599 1.283 . S
C560 O586 1.283 . S
C560 O595 1.283 . S
C561 O587 1.283 . S
C561 O597 1.283 . S
C562 O588 1.283 . S
C562 O594 1.283 . S
C563 O589 1.283 . S
C563 O596 1.283 . S
C564 O590 1.283 . S
C564 O605 1.283 . S
C565 O591 1.283 . S
C565 O603 1.283 . S
C566 O592 1.283 . S
C566 O604 1.283 . S
C567 O593 1.283 . S
C567 O602 1.283 . S
Eu568 O569 2.370 1_454 S
Eu568 O570 2.370 . S
Eu568 O573 2.370 1_455 S
Eu568 O574 2.370 1_554 S
Eu568 O582 2.363 . S
Eu568 O583 2.363 1_554 S
Eu568 O596 2.363 . S
Eu568 O597 2.363 1_455 S
O569 Eu568 2.370 1_656 S
O569 Eu571 2.370 1_556 S
O569 Eu576 2.370 1_655 S
O570 Eu568 2.370 . S
O570 Eu572 2.370 . S
O570 Eu575 2.370 . S
Eu571 O569 2.370 1_554 S
Eu571 O573 2.370 . S
Eu571 O577 2.370 . S
Eu571 O578 2.370 1_554 S
Eu571 O586 2.363 . S
Eu571 O587 2.363 . S
Eu571 O602 2.363 . S
Eu571 O603 2.363 1_554 S
Eu572 O570 2.370 . S
Eu572 O574 2.370 1_554 S
Eu572 O579 2.370 1_554 S
Eu572 O580 2.370 . S
Eu572 O588 2.363 . S
Eu572 O589 2.363 . S
Eu572 O604 2.363 . S
Eu572 O605 2.363 1_554 S
O573 Eu568 2.370 1_655 S
O573 Eu571 2.370 . S
O573 Eu575 2.370 1_655 S
O574 Eu568 2.370 1_556 S
O574 Eu572 2.370 1_556 S
O574 Eu576 2.370 . S
Eu575 O570 2.370 . S
Eu575 O573 2.370 1_455 S
Eu575 O577 2.370 1_455 S
Eu575 O580 2.370 . S
Eu575 O592 2.363 . S
Eu575 O593 2.363 1_455 S
Eu575 O600 2.363 . S
Eu575 O601 2.363 . S
Eu576 O569 2.370 1_455 S
Eu576 O574 2.370 . S
Eu576 O578 2.370 1_455 S
Eu576 O579 2.370 . S
Eu576 O590 2.363 . S
Eu576 O591 2.363 1_455 S
Eu576 O598 2.363 . S
Eu576 O599 2.363 . S
O577 Eu571 2.370 . S
O577 Eu575 2.370 1_655 S
O577 Eu581 2.370 1_655 S
O578 Eu571 2.370 1_556 S
O578 Eu576 2.370 1_655 S
O578 Eu581 2.370 1_656 S
O579 Eu572 2.370 1_556 S
O579 Eu576 2.370 . S
O579 Eu581 2.370 1_556 S
O580 Eu572 2.370 . S
O580 Eu575 2.370 . S
O580 Eu581 2.370 . S
Eu581 O577 2.370 1_455 S
Eu581 O578 2.370 1_454 S
Eu581 O579 2.370 1_554 S
Eu581 O580 2.370 . S
Eu581 O584 2.363 . S
Eu581 O585 2.363 1_554 S
Eu581 O594 2.363 . S
Eu581 O595 2.363 1_455 S
O582 C556 1.283 . S
O582 Eu568 2.363 . S
O583 C557 1.283 . S
O583 Eu568 2.363 1_556 S
O584 C558 1.283 . S
O584 Eu581 2.363 . S
O585 C559 1.283 . S
O585 Eu581 2.363 1_556 S
O586 C560 1.283 . S
O586 Eu571 2.363 . S
O587 C561 1.283 . S
O587 Eu571 2.363 . S
O588 C562 1.283 . S
O588 Eu572 2.363 . S
O589 C563 1.283 . S
O589 Eu572 2.363 . S
O590 C564 1.283 . S
O590 Eu576 2.363 . S
O591 C565 1.283 . S
O591 Eu576 2.363 1_655 S
O592 C566 1.283 . S
O592 Eu575 2.363 . S
O593 C567 1.283 . S
O593 Eu575 2.363 1_655 S
O594 C562 1.283 . S
O594 Eu581 2.363 . S
O595 C560 1.283 . S
O595 Eu581 2.363 1_655 S
O596 C563 1.283 . S
O596 Eu568 2.363 . S
O597 C561 1.283 . S
O597 Eu568 2.363 1_655 S
O598 C557 1.283 . S
O598 Eu576 2.363 . S
O599 C559 1.283 . S
O599 Eu576 2.363 . S
O600 C556 1.283 . S
O600 Eu575 2.363 . S
O601 C558 1.283 . S
O601 Eu575 2.363 . S
O602 C567 1.283 . S
O602 Eu571 2.363 . S
O603 C565 1.283 . S
O603 Eu571 2.363 1_556 S
O604 C566 1.283 . S
O604 Eu572 2.363 . S
O605 C564 1.283 . S
O605 Eu572 2.363 1_556 S
C606 O632 1.283 . S
C606 O650 1.283 . S
C607 O633 1.283 . S
C607 O648 1.283 . S
C608 O634 1.283 . S
C608 O651 1.283 . S
C609 O635 1.283 . S
C609 O649 1.283 . S
C610 O636 1.283 . S
C610 O645 1.283 . S
C611 O637 1.283 . S
C611 O647 1.283 . S
C612 O638 1.283 . S
C612 O644 1.283 . S
C613 O639 1.283 . S
C613 O646 1.283 . S
C614 O640 1.283 . S
C614 O655 1.283 . S
C615 O641 1.283 . S
C615 O653 1.283 . S
C616 O642 1.283 . S
C616 O654 1.283 . S
C617 O643 1.283 . S
C617 O652 1.283 . S
Eu618 O619 2.370 . S
Eu618 O620 2.370 . S
Eu618 O623 2.370 . S
Eu618 O624 2.370 . S
Eu618 O632 2.363 . S
Eu618 O633 2.363 . S
Eu618 O646 2.363 . S
Eu618 O647 2.363 . S
O619 Eu618 2.370 . S
O619 Eu621 2.370 . S
O619 Eu626 2.370 . S
O620 Eu618 2.370 . S
O620 Eu622 2.370 . S
O620 Eu625 2.370 . S
Eu621 O619 2.370 . S
Eu621 O623 2.370 . S
Eu621 O627 2.370 1_554 S
Eu621 O628 2.370 1_554 S
Eu621 O636 2.363 1_554 S
Eu621 O637 2.363 . S
Eu621 O652 2.363 . S
Eu621 O653 2.363 . S
Eu622 O620 2.370 . S
Eu622 O624 2.370 . S
Eu622 O629 2.370 1_554 S
Eu622 O630 2.370 1_554 S
Eu622 O638 2.363 1_554 S
Eu622 O639 2.363 . S
Eu622 O654 2.363 . S
Eu622 O655 2.363 . S
O623 Eu618 2.370 . S
O623 Eu621 2.370 . S
O623 Eu625 2.370 . S
O624 Eu618 2.370 . S
O624 Eu622 2.370 . S
O624 Eu626 2.370 . S
Eu625 O620 2.370 . S
Eu625 O623 2.370 . S
Eu625 O627 2.370 1_554 S
Eu625 O630 2.370 1_554 S
Eu625 O642 2.363 . S
Eu625 O643 2.363 . S
Eu625 O650 2.363 . S
Eu625 O651 2.363 1_554 S
Eu626 O619 2.370 . S
Eu626 O624 2.370 . S
Eu626 O628 2.370 1_554 S
Eu626 O629 2.370 1_554 S
Eu626 O640 2.363 . S
Eu626 O641 2.363 . S
Eu626 O648 2.363 . S
Eu626 O649 2.363 1_554 S
O627 Eu621 2.370 1_556 S
O627 Eu625 2.370 1_556 S
O627 Eu631 2.370 . S
O628 Eu621 2.370 1_556 S
O628 Eu626 2.370 1_556 S
O628 Eu631 2.370 . S
O629 Eu622 2.370 1_556 S
O629 Eu626 2.370 1_556 S
O629 Eu631 2.370 . S
O630 Eu622 2.370 1_556 S
O630 Eu625 2.370 1_556 S
O630 Eu631 2.370 . S
Eu631 O627 2.370 . S
Eu631 O628 2.370 . S
Eu631 O629 2.370 . S
Eu631 O630 2.370 . S
Eu631 O634 2.363 . S
Eu631 O635 2.363 . S
Eu631 O644 2.363 . S
Eu631 O645 2.363 . S
O632 C606 1.283 . S
O632 Eu618 2.363 . S
O633 C607 1.283 . S
O633 Eu618 2.363 . S
O634 C608 1.283 . S
O634 Eu631 2.363 . S
O635 C609 1.283 . S
O635 Eu631 2.363 . S
O636 C610 1.283 . S
O636 Eu621 2.363 1_556 S
O637 C611 1.283 . S
O637 Eu621 2.363 . S
O638 C612 1.283 . S
O638 Eu622 2.363 1_556 S
O639 C613 1.283 . S
O639 Eu622 2.363 . S
O640 C614 1.283 . S
O640 Eu626 2.363 . S
O641 C615 1.283 . S
O641 Eu626 2.363 . S
O642 C616 1.283 . S
O642 Eu625 2.363 . S
O643 C617 1.283 . S
O643 Eu625 2.363 . S
O644 C612 1.283 . S
O644 Eu631 2.363 . S
O645 C610 1.283 . S
O645 Eu631 2.363 . S
O646 C613 1.283 . S
O646 Eu618 2.363 . S
O647 C611 1.283 . S
O647 Eu618 2.363 . S
O648 C607 1.283 . S
O648 Eu626 2.363 . S
O649 C609 1.283 . S
O649 Eu626 2.363 1_556 S
O650 C606 1.283 . S
O650 Eu625 2.363 . S
O651 C608 1.283 . S
O651 Eu625 2.363 1_556 S
O652 C617 1.283 . S
O652 Eu621 2.363 . S
O653 C615 1.283 . S
O653 Eu621 2.363 . S
O654 C616 1.283 . S
O654 Eu622 2.363 . S
O655 C614 1.283 . S
O655 Eu622 2.363 . S
C656 O682 1.283 . S
C656 O700 1.283 . S
C657 O683 1.283 . S
C657 O698 1.283 . S
C658 O684 1.283 . S
C658 O701 1.283 . S
C659 O685 1.283 . S
C659 O699 1.283 . S
C660 O686 1.283 . S
C660 O695 1.283 . S
C661 O687 1.283 . S
C661 O697 1.283 . S
C662 O688 1.283 . S
C662 O694 1.283 . S
C663 O689 1.283 . S
C663 O696 1.283 . S
C664 O690 1.283 . S
C664 O705 1.283 . S
C665 O691 1.283 . S
C665 O703 1.283 . S
C666 O692 1.283 . S
C666 O704 1.283 . S
C667 O693 1.283 . S
C667 O702 1.283 . S
Eu668 O669 2.370 1_455 S
Eu668 O670 2.370 . S
Eu668 O673 2.370 1_455 S
Eu668 O674 2.370 . S
Eu668 O682 2.363 . S
Eu668 O683 2.363 . S
Eu668 O696 2.363 . S
Eu668 O697 2.363 1_455 S
O669 Eu668 2.370 1_655 S
O669 Eu671 2.370 . S
O669 Eu676 2.370 1_655 S
O670 Eu668 2.370 . S
O670 Eu672 2.370 . S
O670 Eu675 2.370 . S
Eu671 O669 2.370 . S
Eu671 O673 2.370 . S
Eu671 O677 2.370 . S
Eu671 O678 2.370 . S
Eu671 O686 2.363 . S
Eu671 O687 2.363 . S
Eu671 O702 2.363 . S
Eu671 O703 2.363 . S
Eu672 O670 2.370 . S
Eu672 O674 2.370 . S
Eu672 O679 2.370 . S
Eu672 O680 2.370 . S
Eu672 O688 2.363 . S
Eu672 O689 2.363 . S
Eu672 O704 2.363 . S
Eu672 O705 2.363 . S
O673 Eu668 2.370 1_655 S
O673 Eu671 2.370 . S
O673 Eu675 2.370 1_655 S
O674 Eu668 2.370 . S
O674 Eu672 2.370 . S
O674 Eu676 2.370 . S
Eu675 O670 2.370 . S
Eu675 O673 2.370 1_455 S
Eu675 O677 2.370 1_455 S
Eu675 O680 2.370 . S
Eu675 O692 2.363 . S
Eu675 O693 2.363 1_455 S
Eu675 O700 2.363 . S
Eu675 O701 2.363 . S
Eu676 O669 2.370 1_455 S
Eu676 O674 2.370 . S
Eu676 O678 2.370 1_455 S
Eu676 O679 2.370 . S
Eu676 O690 2.363 . S
Eu676 O691 2.363 1_455 S
Eu676 O698 2.363 . S
Eu676 O699 2.363 . S
O677 Eu671 2.370 . S
O677 Eu675 2.370 1_655 S
O677 Eu681 2.370 1_655 S
O678 Eu671 2.370 . S
O678 Eu676 2.370 1_655 S
O678 Eu681 2.370 1_655 S
O679 Eu672 2.370 . S
O679 Eu676 2.370 . S
O679 Eu681 2.370 . S
O680 Eu672 2.370 . S
O680 Eu675 2.370 . S
O680 Eu681 2.370 . S
Eu681 O677 2.370 1_455 S
Eu681 O678 2.370 1_455 S
Eu681 O679 2.370 . S
Eu681 O680 2.370 . S
Eu681 O684 2.363 . S
Eu681 O685 2.363 . S
Eu681 O694 2.363 . S
Eu681 O695 2.363 1_455 S
O682 C656 1.283 . S
O682 Eu668 2.363 . S
O683 C657 1.283 . S
O683 Eu668 2.363 . S
O684 C658 1.283 . S
O684 Eu681 2.363 . S
O685 C659 1.283 . S
O685 Eu681 2.363 . S
O686 C660 1.283 . S
O686 Eu671 2.363 . S
O687 C661 1.283 . S
O687 Eu671 2.363 . S
O688 C662 1.283 . S
O688 Eu672 2.363 . S
O689 C663 1.283 . S
O689 Eu672 2.363 . S
O690 C664 1.283 . S
O690 Eu676 2.363 . S
O691 C665 1.283 . S
O691 Eu676 2.363 1_655 S
O692 C666 1.283 . S
O692 Eu675 2.363 . S
O693 C667 1.283 . S
O693 Eu675 2.363 1_655 S
O694 C662 1.283 . S
O694 Eu681 2.363 . S
O695 C660 1.283 . S
O695 Eu681 2.363 1_655 S
O696 C663 1.283 . S
O696 Eu668 2.363 . S
O697 C661 1.283 . S
O697 Eu668 2.363 1_655 S
O698 C657 1.283 . S
O698 Eu676 2.363 . S
O699 C659 1.283 . S
O699 Eu676 2.363 . S
O700 C656 1.283 . S
O700 Eu675 2.363 . S
O701 C658 1.283 . S
O701 Eu675 2.363 . S
O702 C667 1.283 . S
O702 Eu671 2.363 . S
O703 C665 1.283 . S
O703 Eu671 2.363 . S
O704 C666 1.283 . S
O704 Eu672 2.363 . S
O705 C664 1.283 . S
O705 Eu672 2.363 . S
C706 O732 1.283 . S
C706 O750 1.283 . S
C707 O733 1.283 . S
C707 O748 1.283 . S
C708 O734 1.283 . S
C708 O751 1.283 . S
C709 O735 1.283 . S
C709 O749 1.283 . S
C710 O736 1.283 . S
C710 O745 1.283 . S
C711 O737 1.283 . S
C711 O747 1.283 . S
C712 O738 1.283 . S
C712 O744 1.283 . S
C713 O739 1.283 . S
C713 O746 1.283 . S
C714 O740 1.283 . S
C714 O755 1.283 . S
C715 O741 1.283 . S
C715 O753 1.283 . S
C716 O742 1.283 . S
C716 O754 1.283 . S
C717 O743 1.283 . S
C717 O752 1.283 . S
Eu718 O719 2.370 . S
Eu718 O720 2.370 . S
Eu718 O723 2.370 . S
Eu718 O724 2.370 . S
Eu718 O732 2.363 . S
Eu718 O733 2.363 . S
Eu718 O746 2.363 . S
Eu718 O747 2.363 . S
O719 Eu718 2.370 . S
O719 Eu721 2.344 1_565 S
O719 Eu726 2.347 1_565 S
O720 Eu718 2.370 . S
O720 Eu722 2.344 1_565 S
O720 Eu725 2.342 1_565 S
Eu721 O719 2.344 1_545 S
Eu721 O723 2.344 1_545 S
Eu721 O727 2.397 . S
Eu721 O728 2.396 . S
Eu721 O736 2.407 . S
Eu721 O737 2.319 1_545 S
Eu721 O752 2.363 . S
Eu721 O753 2.363 . S
Eu722 O720 2.344 1_545 S
Eu722 O724 2.344 1_545 S
Eu722 O729 2.396 . S
Eu722 O730 2.397 . S
Eu722 O738 2.407 . S
Eu722 O739 2.319 1_545 S
Eu722 O754 2.363 . S
Eu722 O755 2.363 . S
O723 Eu718 2.370 . S
O723 Eu721 2.344 1_565 S
O723 Eu725 2.342 1_565 S
O724 Eu718 2.370 . S
O724 Eu722 2.344 1_565 S
O724 Eu726 2.347 1_565 S
Eu725 O720 2.342 1_545 S
Eu725 O723 2.342 1_545 S
Eu725 O727 2.399 . S
Eu725 O730 2.399 . S
Eu725 O742 2.363 . S
Eu725 O743 2.363 . S
Eu725 O750 2.314 1_545 S
Eu725 O751 2.412 . S
Eu726 O719 2.347 1_545 S
Eu726 O724 2.347 1_545 S
Eu726 O728 2.394 . S
Eu726 O729 2.394 . S
Eu726 O740 2.363 . S
Eu726 O741 2.363 . S
Eu726 O748 2.323 1_545 S
Eu726 O749 2.402 . S
O727 Eu721 2.397 . S
O727 Eu725 2.399 . S
O727 Eu731 2.370 . S
O728 Eu721 2.396 . S
O728 Eu726 2.394 . S
O728 Eu731 2.370 . S
O729 Eu722 2.396 . S
O729 Eu726 2.394 . S
O729 Eu731 2.370 . S
O730 Eu722 2.397 . S
O730 Eu725 2.399 . S
O730 Eu731 2.370 . S
Eu731 O727 2.370 . S
Eu731 O728 2.370 . S
Eu731 O729 2.370 . S
Eu731 O730 2.370 . S
Eu731 O734 2.363 . S
Eu731 O735 2.363 . S
Eu731 O744 2.363 . S
Eu731 O745 2.363 . S
O732 C706 1.283 . S
O732 Eu718 2.363 . S
O733 C707 1.283 . S
O733 Eu718 2.363 . S
O734 C708 1.283 . S
O734 Eu731 2.363 . S
O735 C709 1.283 . S
O735 Eu731 2.363 . S
O736 C710 1.283 . S
O736 Eu721 2.407 . S
O737 C711 1.283 . S
O737 Eu721 2.319 1_565 S
O738 C712 1.283 . S
O738 Eu722 2.407 . S
O739 C713 1.283 . S
O739 Eu722 2.319 1_565 S
O740 C714 1.283 . S
O740 Eu726 2.363 . S
O741 C715 1.283 . S
O741 Eu726 2.363 . S
O742 C716 1.283 . S
O742 Eu725 2.363 . S
O743 C717 1.283 . S
O743 Eu725 2.363 . S
O744 C712 1.283 . S
O744 Eu731 2.363 . S
O745 C710 1.283 . S
O745 Eu731 2.363 . S
O746 C713 1.283 . S
O746 Eu718 2.363 . S
O747 C711 1.283 . S
O747 Eu718 2.363 . S
O748 C707 1.283 . S
O748 Eu726 2.323 1_565 S
O749 C709 1.283 . S
O749 Eu726 2.402 . S
O750 C706 1.283 . S
O750 Eu725 2.314 1_565 S
O751 C708 1.283 . S
O751 Eu725 2.412 . S
O752 C717 1.283 . S
O752 Eu721 2.363 . S
O753 C715 1.283 . S
O753 Eu721 2.363 . S
O754 C716 1.283 . S
O754 Eu722 2.363 . S
O755 C714 1.283 . S
O755 Eu722 2.363 . S
C756 C757 1.349 . S
C756 C758 1.327 . S
C756 H781 0.950 . S
C757 C756 1.349 . S
C757 C773 1.349 . S
C758 C756 1.327 . S
C758 C777 1.429 . S
C758 H782 0.950 . S
C759 C776 1.574 . S
C759 C778 1.368 . S
C759 H783 0.949 . S
H760 C764 0.949 . S
C761 C762 1.349 . S
C761 C763 1.327 . S
C761 H784 0.950 . S
C762 C761 1.349 . S
C762 C774 1.349 . S
C763 C761 1.327 . S
C763 C779 1.429 . S
C763 H785 0.950 . S
C764 H760 0.949 . S
C764 C772 1.574 . S
C764 C780 1.368 . S
H765 C773 0.950 . S
H766 C771 0.950 . S
H767 C772 0.949 . S
H768 C774 0.950 . S
H769 C775 0.950 . S
H770 C776 0.949 . S
C771 H766 0.950 . S
C771 C773 1.327 . S
C771 C777 1.429 . S
C772 C764 1.574 . S
C772 H767 0.949 . S
C772 C778 1.368 . S
C773 C757 1.349 . S
C773 H765 0.950 . S
C773 C771 1.327 . S
C774 C762 1.349 . S
C774 H768 0.950 . S
C774 C775 1.327 . S
C775 H769 0.950 . S
C775 C774 1.327 . S
C775 C779 1.429 . S
C776 C759 1.574 . S
C776 H770 0.949 . S
C776 C780 1.368 . S
C777 C758 1.429 . S
C777 C771 1.429 . S
C777 C778 1.523 . S
C778 C759 1.368 . S
C778 C772 1.368 . S
C778 C777 1.523 . S
C779 C763 1.429 . S
C779 C775 1.429 . S
C779 C780 1.523 . S
C780 C764 1.368 . S
C780 C776 1.368 . S
C780 C779 1.523 . S
H781 C756 0.950 . S
H782 C758 0.950 . S
H783 C759 0.949 . S
H784 C761 0.950 . S
H785 C763 0.950 . S
C786 C787 1.349 . S
C786 C788 1.327 . S
C786 H811 0.950 . S
C787 C786 1.349 . S
C787 C803 1.349 . S
C788 C786 1.327 . S
C788 C807 1.429 . S
C788 H812 0.950 . S
C789 C806 1.574 . S
C789 C808 1.368 . S
C789 H813 0.949 . S
H790 C794 0.949 . S
C791 C792 1.349 . S
C791 C793 1.327 . S
C791 H814 0.950 . S
C792 C791 1.349 . S
C792 C804 1.349 . S
C793 C791 1.327 . S
C793 C809 1.429 . S
C793 H815 0.950 . S
C794 H790 0.949 . S
C794 C802 1.574 . S
C794 C810 1.368 . S
H795 C803 0.950 . S
H796 C801 0.950 . S
H797 C802 0.949 . S
H798 C804 0.950 . S
H799 C805 0.950 . S
H800 C806 0.949 . S
C801 H796 0.950 . S
C801 C803 1.327 . S
C801 C807 1.429 . S
C802 C794 1.574 . S
C802 H797 0.949 . S
C802 C808 1.368 . S
C803 C787 1.349 . S
C803 H795 0.950 . S
C803 C801 1.327 . S
C804 C792 1.349 . S
C804 H798 0.950 . S
C804 C805 1.327 . S
C805 H799 0.950 . S
C805 C804 1.327 . S
C805 C809 1.429 . S
C806 C789 1.574 . S
C806 H800 0.949 . S
C806 C810 1.368 . S
C807 C788 1.429 . S
C807 C801 1.429 . S
C807 C808 1.523 . S
C808 C789 1.368 . S
C808 C802 1.368 . S
C808 C807 1.523 . S
C809 C793 1.429 . S
C809 C805 1.429 . S
C809 C810 1.523 . S
C810 C794 1.368 . S
C810 C806 1.368 . S
C810 C809 1.523 . S
H811 C786 0.950 . S
H812 C788 0.950 . S
H813 C789 0.949 . S
H814 C791 0.950 . S
H815 C793 0.950 . S
C816 C817 1.349 . S
C816 C818 1.327 . S
C816 H841 0.950 . S
C817 C816 1.349 . S
C817 C833 1.349 . S
C818 C816 1.327 . S
C818 C837 1.429 . S
C818 H842 0.950 . S
C819 C836 1.574 . S
C819 C838 1.368 . S
C819 H843 0.949 . S
H820 C824 0.949 . S
C821 C822 1.349 . S
C821 C823 1.327 . S
C821 H844 0.950 . S
C822 C821 1.349 . S
C822 C834 1.349 . S
C823 C821 1.327 . S
C823 C839 1.429 . S
C823 H845 0.950 . S
C824 H820 0.949 . S
C824 C832 1.574 . S
C824 C840 1.368 . S
H825 C833 0.950 . S
H826 C831 0.950 . S
H827 C832 0.949 . S
H828 C834 0.950 . S
H829 C835 0.950 . S
H830 C836 0.949 . S
C831 H826 0.950 . S
C831 C833 1.327 . S
C831 C837 1.429 . S
C832 C824 1.574 . S
C832 H827 0.949 . S
C832 C838 1.368 . S
C833 C817 1.349 . S
C833 H825 0.950 . S
C833 C831 1.327 . S
C834 C822 1.349 . S
C834 H828 0.950 . S
C834 C835 1.327 . S
C835 H829 0.950 . S
C835 C834 1.327 . S
C835 C839 1.429 . S
C836 C819 1.574 . S
C836 H830 0.949 . S
C836 C840 1.368 . S
C837 C818 1.429 . S
C837 C831 1.429 . S
C837 C838 1.523 . S
C838 C819 1.368 . S
C838 C832 1.368 . S
C838 C837 1.523 . S
C839 C823 1.429 . S
C839 C835 1.429 . S
C839 C840 1.523 . S
C840 C824 1.368 . S
C840 C836 1.368 . S
C840 C839 1.523 . S
H841 C816 0.950 . S
H842 C818 0.950 . S
H843 C819 0.949 . S
H844 C821 0.950 . S
H845 C823 0.950 . S
C846 C847 1.349 . S
C846 C848 1.327 . S
C846 H871 0.950 . S
C847 C846 1.349 . S
C847 C863 1.349 . S
C848 C846 1.327 . S
C848 C867 1.429 . S
C848 H872 0.950 . S
C849 C866 1.574 . S
C849 C868 1.368 . S
C849 H873 0.949 . S
H850 C854 0.949 . S
C851 C852 1.349 . S
C851 C853 1.327 . S
C851 H874 0.950 . S
C852 C851 1.349 . S
C852 C864 1.349 . S
C853 C851 1.327 . S
C853 C869 1.429 . S
C853 H875 0.950 . S
C854 H850 0.949 . S
C854 C862 1.574 . S
C854 C870 1.368 . S
H855 C863 0.950 . S
H856 C861 0.950 . S
H857 C862 0.949 . S
H858 C864 0.950 . S
H859 C865 0.950 . S
H860 C866 0.949 . S
C861 H856 0.950 . S
C861 C863 1.327 . S
C861 C867 1.429 . S
C862 C854 1.574 . S
C862 H857 0.949 . S
C862 C868 1.368 . S
C863 C847 1.349 . S
C863 H855 0.950 . S
C863 C861 1.327 . S
C864 C852 1.349 . S
C864 H858 0.950 . S
C864 C865 1.327 . S
C865 H859 0.950 . S
C865 C864 1.327 . S
C865 C869 1.429 . S
C866 C849 1.574 . S
C866 H860 0.949 . S
C866 C870 1.368 . S
C867 C848 1.429 . S
C867 C861 1.429 . S
C867 C868 1.523 . S
C868 C849 1.368 . S
C868 C862 1.368 . S
C868 C867 1.523 . S
C869 C853 1.429 . S
C869 C865 1.429 . S
C869 C870 1.523 . S
C870 C854 1.368 . S
C870 C866 1.368 . S
C870 C869 1.523 . S
H871 C846 0.950 . S
H872 C848 0.950 . S
H873 C849 0.949 . S
H874 C851 0.950 . S
H875 C853 0.950 . S
C876 C877 1.349 . S
C876 C878 1.327 . S
C876 H901 0.950 . S
C877 C876 1.349 . S
C877 C893 1.349 . S
C878 C876 1.327 . S
C878 C897 1.429 . S
C878 H902 0.950 . S
C879 C896 1.574 . S
C879 C898 1.368 . S
C879 H903 0.949 . S
H880 C884 0.949 . S
C881 C882 1.349 . S
C881 C883 1.327 . S
C881 H904 0.950 . S
C882 C881 1.349 . S
C882 C894 1.349 . S
C883 C881 1.327 . S
C883 C899 1.429 . S
C883 H905 0.950 . S
C884 H880 0.949 . S
C884 C892 1.574 . S
C884 C900 1.368 . S
H885 C893 0.950 . S
H886 C891 0.950 . S
H887 C892 0.949 . S
H888 C894 0.950 . S
H889 C895 0.950 . S
H890 C896 0.949 . S
C891 H886 0.950 . S
C891 C893 1.327 . S
C891 C897 1.429 . S
C892 C884 1.574 . S
C892 H887 0.949 . S
C892 C898 1.368 . S
C893 C877 1.349 . S
C893 H885 0.950 . S
C893 C891 1.327 . S
C894 C882 1.349 . S
C894 H888 0.950 . S
C894 C895 1.327 . S
C895 H889 0.950 . S
C895 C894 1.327 . S
C895 C899 1.429 . S
C896 C879 1.574 . S
C896 H890 0.949 . S
C896 C900 1.368 . S
C897 C878 1.429 . S
C897 C891 1.429 . S
C897 C898 1.523 . S
C898 C879 1.368 . S
C898 C892 1.368 . S
C898 C897 1.523 . S
C899 C883 1.429 . S
C899 C895 1.429 . S
C899 C900 1.523 . S
C900 C884 1.368 . S
C900 C896 1.368 . S
C900 C899 1.523 . S
H901 C876 0.950 . S
H902 C878 0.950 . S
H903 C879 0.949 . S
H904 C881 0.950 . S
H905 C883 0.950 . S
C906 C907 1.349 . S
C906 C908 1.327 . S
C906 H931 0.950 . S
C907 C906 1.349 . S
C907 C923 1.349 . S
C908 C906 1.327 . S
C908 C927 1.429 . S
C908 H932 0.950 . S
C909 C926 1.574 . S
C909 C928 1.368 . S
C909 H933 0.949 . S
H910 C914 0.949 . S
C911 C912 1.349 . S
C911 C913 1.327 . S
C911 H934 0.950 . S
C912 C911 1.349 . S
C912 C924 1.349 . S
C913 C911 1.327 . S
C913 C929 1.429 . S
C913 H935 0.950 . S
C914 H910 0.949 . S
C914 C922 1.574 . S
C914 C930 1.368 . S
H915 C923 0.950 . S
H916 C921 0.950 . S
H917 C922 0.949 . S
H918 C924 0.950 . S
H919 C925 0.950 . S
H920 C926 0.949 . S
C921 H916 0.950 . S
C921 C923 1.327 . S
C921 C927 1.429 . S
C922 C914 1.574 . S
C922 H917 0.949 . S
C922 C928 1.368 . S
C923 C907 1.349 . S
C923 H915 0.950 . S
C923 C921 1.327 . S
C924 C912 1.349 . S
C924 H918 0.950 . S
C924 C925 1.327 . S
C925 H919 0.950 . S
C925 C924 1.327 . S
C925 C929 1.429 . S
C926 C909 1.574 . S
C926 H920 0.949 . S
C926 C930 1.368 . S
C927 C908 1.429 . S
C927 C921 1.429 . S
C927 C928 1.523 . S
C928 C909 1.368 . S
C928 C922 1.368 . S
C928 C927 1.523 . S
C929 C913 1.429 . S
C929 C925 1.429 . S
C929 C930 1.523 . S
C930 C914 1.368 . S
C930 C926 1.368 . S
C930 C929 1.523 . S
H931 C906 0.950 . S
H932 C908 0.950 . S
H933 C909 0.949 . S
H934 C911 0.950 . S
H935 C913 0.950 . S
C936 C937 1.349 . S
C936 C938 1.327 . S
C936 H961 0.950 . S
C937 C936 1.349 . S
C937 C953 1.349 . S
C938 C936 1.327 . S
C938 C957 1.429 . S
C938 H962 0.950 . S
C939 C956 1.574 . S
C939 C958 1.368 . S
C939 H963 0.949 . S
H940 C944 0.949 . S
C941 C942 1.349 . S
C941 C943 1.327 . S
C941 H964 0.950 . S
C942 C941 1.349 . S
C942 C954 1.349 . S
C943 C941 1.327 . S
C943 C959 1.429 . S
C943 H965 0.950 . S
C944 H940 0.949 . S
C944 C952 1.574 . S
C944 C960 1.368 . S
H945 C953 0.950 . S
H946 C951 0.950 . S
H947 C952 0.949 . S
H948 C954 0.950 . S
H949 C955 0.950 . S
H950 C956 0.949 . S
C951 H946 0.950 . S
C951 C953 1.327 . S
C951 C957 1.429 . S
C952 C944 1.574 . S
C952 H947 0.949 . S
C952 C958 1.368 . S
C953 C937 1.349 . S
C953 H945 0.950 . S
C953 C951 1.327 . S
C954 C942 1.349 . S
C954 H948 0.950 . S
C954 C955 1.327 . S
C955 H949 0.950 . S
C955 C954 1.327 . S
C955 C959 1.429 . S
C956 C939 1.574 . S
C956 H950 0.949 . S
C956 C960 1.368 . S
C957 C938 1.429 . S
C957 C951 1.429 . S
C957 C958 1.523 . S
C958 C939 1.368 . S
C958 C952 1.368 . S
C958 C957 1.523 . S
C959 C943 1.429 . S
C959 C955 1.429 . S
C959 C960 1.523 . S
C960 C944 1.368 . S
C960 C956 1.368 . S
C960 C959 1.523 . S
H961 C936 0.950 . S
H962 C938 0.950 . S
H963 C939 0.949 . S
H964 C941 0.950 . S
H965 C943 0.950 . S
C966 C967 1.349 . S
C966 C968 1.327 . S
C966 H991 0.950 . S
C967 C966 1.349 . S
C967 C983 1.349 . S
C968 C966 1.327 . S
C968 C987 1.429 . S
C968 H992 0.950 . S
C969 C986 1.574 . S
C969 C988 1.368 . S
C969 H993 0.949 . S
H970 C974 0.949 . S
C971 C972 1.349 . S
C971 C973 1.327 . S
C971 H994 0.950 . S
C972 C971 1.349 . S
C972 C984 1.349 . S
C973 C971 1.327 . S
C973 C989 1.429 . S
C973 H995 0.950 . S
C974 H970 0.949 . S
C974 C982 1.574 . S
C974 C990 1.368 . S
H975 C983 0.950 . S
H976 C981 0.950 . S
H977 C982 0.949 . S
H978 C984 0.950 . S
H979 C985 0.950 . S
H980 C986 0.949 . S
C981 H976 0.950 . S
C981 C983 1.327 . S
C981 C987 1.429 . S
C982 C974 1.574 . S
C982 H977 0.949 . S
C982 C988 1.368 . S
C983 C967 1.349 . S
C983 H975 0.950 . S
C983 C981 1.327 . S
C984 C972 1.349 . S
C984 H978 0.950 . S
C984 C985 1.327 . S
C985 H979 0.950 . S
C985 C984 1.327 . S
C985 C989 1.429 . S
C986 C969 1.574 . S
C986 H980 0.949 . S
C986 C990 1.368 . S
C987 C968 1.429 . S
C987 C981 1.429 . S
C987 C988 1.523 . S
C988 C969 1.368 . S
C988 C982 1.368 . S
C988 C987 1.523 . S
C989 C973 1.429 . S
C989 C985 1.429 . S
C989 C990 1.523 . S
C990 C974 1.368 . S
C990 C986 1.368 . S
C990 C989 1.523 . S
H991 C966 0.950 . S
H992 C968 0.950 . S
H993 C969 0.949 . S
H994 C971 0.950 . S
H995 C973 0.950 . S
C996 C997 1.349 . S
C996 C998 1.327 . S
C996 H1021 0.950 . S
C997 C996 1.349 . S
C997 C1013 1.349 . S
C998 C996 1.327 . S
C998 C1017 1.429 . S
C998 H1022 0.950 . S
C999 C1016 1.574 . S
C999 C1018 1.368 . S
C999 H1023 0.949 . S
H1000 C1004 0.949 . S
C1001 C1002 1.349 . S
C1001 C1003 1.327 . S
C1001 H1024 0.950 . S
C1002 C1001 1.349 . S
C1002 C1014 1.349 . S
C1003 C1001 1.327 . S
C1003 C1019 1.429 . S
C1003 H1025 0.950 . S
C1004 H1000 0.949 . S
C1004 C1012 1.574 . S
C1004 C1020 1.368 . S
H1005 C1013 0.950 . S
H1006 C1011 0.950 . S
H1007 C1012 0.949 . S
H1008 C1014 0.950 . S
H1009 C1015 0.950 . S
H1010 C1016 0.949 . S
C1011 H1006 0.950 . S
C1011 C1013 1.327 . S
C1011 C1017 1.429 . S
C1012 C1004 1.574 . S
C1012 H1007 0.949 . S
C1012 C1018 1.368 . S
C1013 C997 1.349 . S
C1013 H1005 0.950 . S
C1013 C1011 1.327 . S
C1014 C1002 1.349 . S
C1014 H1008 0.950 . S
C1014 C1015 1.327 . S
C1015 H1009 0.950 . S
C1015 C1014 1.327 . S
C1015 C1019 1.429 . S
C1016 C999 1.574 . S
C1016 H1010 0.949 . S
C1016 C1020 1.368 . S
C1017 C998 1.429 . S
C1017 C1011 1.429 . S
C1017 C1018 1.523 . S
C1018 C999 1.368 . S
C1018 C1012 1.368 . S
C1018 C1017 1.523 . S
C1019 C1003 1.429 . S
C1019 C1015 1.429 . S
C1019 C1020 1.523 . S
C1020 C1004 1.368 . S
C1020 C1016 1.368 . S
C1020 C1019 1.523 . S
H1021 C996 0.950 . S
H1022 C998 0.950 . S
H1023 C999 0.949 . S
H1024 C1001 0.950 . S
H1025 C1003 0.950 . S
C1026 C1027 1.349 . S
C1026 C1028 1.327 . S
C1026 H1051 0.950 . S
C1027 C1026 1.349 . S
C1027 C1043 1.349 . S
C1028 C1026 1.327 . S
C1028 C1047 1.429 . S
C1028 H1052 0.950 . S
C1029 C1046 1.574 . S
C1029 C1048 1.368 . S
C1029 H1053 0.949 . S
H1030 C1034 0.949 . S
C1031 C1032 1.349 . S
C1031 C1033 1.327 . S
C1031 H1054 0.950 . S
C1032 C1031 1.349 . S
C1032 C1044 1.349 . S
C1033 C1031 1.327 . S
C1033 C1049 1.429 . S
C1033 H1055 0.950 . S
C1034 H1030 0.949 . S
C1034 C1042 1.574 . S
C1034 C1050 1.368 . S
H1035 C1043 0.950 . S
H1036 C1041 0.950 . S
H1037 C1042 0.949 . S
H1038 C1044 0.950 . S
H1039 C1045 0.950 . S
H1040 C1046 0.949 . S
C1041 H1036 0.950 . S
C1041 C1043 1.327 . S
C1041 C1047 1.429 . S
C1042 C1034 1.574 . S
C1042 H1037 0.949 . S
C1042 C1048 1.368 . S
C1043 C1027 1.349 . S
C1043 H1035 0.950 . S
C1043 C1041 1.327 . S
C1044 C1032 1.349 . S
C1044 H1038 0.950 . S
C1044 C1045 1.327 . S
C1045 H1039 0.950 . S
C1045 C1044 1.327 . S
C1045 C1049 1.429 . S
C1046 C1029 1.574 . S
C1046 H1040 0.949 . S
C1046 C1050 1.368 . S
C1047 C1028 1.429 . S
C1047 C1041 1.429 . S
C1047 C1048 1.523 . S
C1048 C1029 1.368 . S
C1048 C1042 1.368 . S
C1048 C1047 1.523 . S
C1049 C1033 1.429 . S
C1049 C1045 1.429 . S
C1049 C1050 1.523 . S
C1050 C1034 1.368 . S
C1050 C1046 1.368 . S
C1050 C1049 1.523 . S
H1051 C1026 0.950 . S
H1052 C1028 0.950 . S
H1053 C1029 0.949 . S
H1054 C1031 0.950 . S
H1055 C1033 0.950 . S
C1056 C1057 1.349 . S
C1056 C1058 1.327 . S
C1056 H1081 0.950 . S
C1057 C1056 1.349 . S
C1057 C1073 1.349 . S
C1058 C1056 1.327 . S
C1058 C1077 1.429 . S
C1058 H1082 0.950 . S
C1059 C1076 1.574 . S
C1059 C1078 1.368 . S
C1059 H1083 0.949 . S
H1060 C1064 0.949 . S
C1061 C1062 1.349 . S
C1061 C1063 1.327 . S
C1061 H1084 0.950 . S
C1062 C1061 1.349 . S
C1062 C1074 1.349 . S
C1063 C1061 1.327 . S
C1063 C1079 1.429 . S
C1063 H1085 0.950 . S
C1064 H1060 0.949 . S
C1064 C1072 1.574 . S
C1064 C1080 1.368 . S
H1065 C1073 0.950 . S
H1066 C1071 0.950 . S
H1067 C1072 0.949 . S
H1068 C1074 0.950 . S
H1069 C1075 0.950 . S
H1070 C1076 0.949 . S
C1071 H1066 0.950 . S
C1071 C1073 1.327 . S
C1071 C1077 1.429 . S
C1072 C1064 1.574 . S
C1072 H1067 0.949 . S
C1072 C1078 1.368 . S
C1073 C1057 1.349 . S
C1073 H1065 0.950 . S
C1073 C1071 1.327 . S
C1074 C1062 1.349 . S
C1074 H1068 0.950 . S
C1074 C1075 1.327 . S
C1075 H1069 0.950 . S
C1075 C1074 1.327 . S
C1075 C1079 1.429 . S
C1076 C1059 1.574 . S
C1076 H1070 0.949 . S
C1076 C1080 1.368 . S
C1077 C1058 1.429 . S
C1077 C1071 1.429 . S
C1077 C1078 1.523 . S
C1078 C1059 1.368 . S
C1078 C1072 1.368 . S
C1078 C1077 1.523 . S
C1079 C1063 1.429 . S
C1079 C1075 1.429 . S
C1079 C1080 1.523 . S
C1080 C1064 1.368 . S
C1080 C1076 1.368 . S
C1080 C1079 1.523 . S
H1081 C1056 0.950 . S
H1082 C1058 0.950 . S
H1083 C1059 0.949 . S
H1084 C1061 0.950 . S
H1085 C1063 0.950 . S
C1086 C1087 1.349 . S
C1086 C1088 1.327 . S
C1086 H1111 0.950 . S
C1087 C1086 1.349 . S
C1087 C1103 1.349 . S
C1088 C1086 1.327 . S
C1088 C1107 1.429 . S
C1088 H1112 0.950 . S
C1089 C1106 1.574 . S
C1089 C1108 1.368 . S
C1089 H1113 0.949 . S
H1090 C1094 0.949 . S
C1091 C1092 1.349 . S
C1091 C1093 1.327 . S
C1091 H1114 0.950 . S
C1092 C1091 1.349 . S
C1092 C1104 1.349 . S
C1093 C1091 1.327 . S
C1093 C1109 1.429 . S
C1093 H1115 0.950 . S
C1094 H1090 0.949 . S
C1094 C1102 1.574 . S
C1094 C1110 1.368 . S
H1095 C1103 0.950 . S
H1096 C1101 0.950 . S
H1097 C1102 0.949 . S
H1098 C1104 0.950 . S
H1099 C1105 0.950 . S
H1100 C1106 0.949 . S
C1101 H1096 0.950 . S
C1101 C1103 1.327 . S
C1101 C1107 1.429 . S
C1102 C1094 1.574 . S
C1102 H1097 0.949 . S
C1102 C1108 1.368 . S
C1103 C1087 1.349 . S
C1103 H1095 0.950 . S
C1103 C1101 1.327 . S
C1104 C1092 1.349 . S
C1104 H1098 0.950 . S
C1104 C1105 1.327 . S
C1105 H1099 0.950 . S
C1105 C1104 1.327 . S
C1105 C1109 1.429 . S
C1106 C1089 1.574 . S
C1106 H1100 0.949 . S
C1106 C1110 1.368 . S
C1107 C1088 1.429 . S
C1107 C1101 1.429 . S
C1107 C1108 1.523 . S
C1108 C1089 1.368 . S
C1108 C1102 1.368 . S
C1108 C1107 1.523 . S
C1109 C1093 1.429 . S
C1109 C1105 1.429 . S
C1109 C1110 1.523 . S
C1110 C1094 1.368 . S
C1110 C1106 1.368 . S
C1110 C1109 1.523 . S
H1111 C1086 0.950 . S
H1112 C1088 0.950 . S
H1113 C1089 0.949 . S
H1114 C1091 0.950 . S
H1115 C1093 0.950 . S
C1116 C1117 1.349 1_556 S
C1116 C1118 1.327 . S
C1116 H1141 0.950 . S
C1117 C1116 1.349 1_554 S
C1117 C1133 1.349 . S
C1118 C1116 1.327 . S
C1118 C1137 1.429 1_556 S
C1118 H1142 0.950 . S
C1119 C1136 1.574 . S
C1119 C1138 1.368 . S
C1119 H1143 0.949 . S
H1120 C1124 0.949 . S
C1121 C1122 1.349 . S
C1121 C1123 1.327 . S
C1121 H1144 0.950 . S
C1122 C1121 1.349 . S
C1122 C1134 1.349 1_554 S
C1123 C1121 1.327 . S
C1123 C1139 1.429 . S
C1123 H1145 0.950 . S
C1124 H1120 0.949 . S
C1124 C1132 1.574 . S
C1124 C1140 1.368 1_556 S
H1125 C1133 0.950 . S
H1126 C1131 0.950 . S
H1127 C1132 0.949 . S
H1128 C1134 0.950 . S
H1129 C1135 0.950 . S
H1130 C1136 0.949 . S
C1131 H1126 0.950 . S
C1131 C1133 1.327 . S
C1131 C1137 1.429 . S
C1132 C1124 1.574 . S
C1132 H1127 0.949 . S
C1132 C1138 1.368 1_556 S
C1133 C1117 1.349 . S
C1133 H1125 0.950 . S
C1133 C1131 1.327 . S
C1134 C1122 1.349 1_556 S
C1134 H1128 0.950 . S
C1134 C1135 1.327 . S
C1135 H1129 0.950 . S
C1135 C1134 1.327 . S
C1135 C1139 1.429 1_556 S
C1136 C1119 1.574 . S
C1136 H1130 0.949 . S
C1136 C1140 1.368 . S
C1137 C1118 1.429 1_554 S
C1137 C1131 1.429 . S
C1137 C1138 1.523 . S
C1138 C1119 1.368 . S
C1138 C1132 1.368 1_554 S
C1138 C1137 1.523 . S
C1139 C1123 1.429 . S
C1139 C1135 1.429 1_554 S
C1139 C1140 1.523 . S
C1140 C1124 1.368 1_554 S
C1140 C1136 1.368 . S
C1140 C1139 1.523 . S
H1141 C1116 0.950 . S
H1142 C1118 0.950 . S
H1143 C1119 0.949 . S
H1144 C1121 0.950 . S
H1145 C1123 0.950 . S
C1146 C1147 1.349 . S
C1146 C1148 1.327 . S
C1146 H1171 0.950 . S
C1147 C1146 1.349 . S
C1147 C1163 1.349 1_554 S
C1148 C1146 1.327 . S
C1148 C1167 1.429 . S
C1148 H1172 0.950 . S
C1149 C1166 1.574 . S
C1149 C1168 1.368 1_556 S
C1149 H1173 0.949 . S
H1150 C1154 0.949 . S
C1151 C1152 1.349 1_556 S
C1151 C1153 1.327 . S
C1151 H1174 0.950 . S
C1152 C1151 1.349 1_554 S
C1152 C1164 1.349 . S
C1153 C1151 1.327 . S
C1153 C1169 1.429 1_556 S
C1153 H1175 0.950 . S
C1154 H1150 0.949 . S
C1154 C1162 1.574 . S
C1154 C1170 1.368 . S
H1155 C1163 0.950 . S
H1156 C1161 0.950 . S
H1157 C1162 0.949 . S
H1158 C1164 0.950 . S
H1159 C1165 0.950 . S
H1160 C1166 0.949 . S
C1161 H1156 0.950 . S
C1161 C1163 1.327 . S
C1161 C1167 1.429 1_556 S
C1162 C1154 1.574 . S
C1162 H1157 0.949 . S
C1162 C1168 1.368 . S
C1163 C1147 1.349 1_556 S
C1163 H1155 0.950 . S
C1163 C1161 1.327 . S
C1164 C1152 1.349 . S
C1164 H1158 0.950 . S
C1164 C1165 1.327 . S
C1165 H1159 0.950 . S
C1165 C1164 1.327 . S
C1165 C1169 1.429 . S
C1166 C1149 1.574 . S
C1166 H1160 0.949 . S
C1166 C1170 1.368 1_556 S
C1167 C1148 1.429 . S
C1167 C1161 1.429 1_554 S
C1167 C1168 1.523 . S
C1168 C1149 1.368 1_554 S
C1168 C1162 1.368 . S
C1168 C1167 1.523 . S
C1169 C1153 1.429 1_554 S
C1169 C1165 1.429 . S
C1169 C1170 1.523 . S
C1170 C1154 1.368 . S
C1170 C1166 1.368 1_554 S
C1170 C1169 1.523 . S
H1171 C1146 0.950 . S
H1172 C1148 0.950 . S
H1173 C1149 0.949 . S
H1174 C1151 0.950 . S
H1175 C1153 0.950 . S
C1176 C1177 1.349 . S
C1176 C1178 1.327 . S
C1176 H1201 0.950 . S
C1177 C1176 1.349 . S
C1177 C1193 1.349 1_554 S
C1178 C1176 1.327 . S
C1178 C1197 1.429 . S
C1178 H1202 0.950 . S
C1179 C1196 1.574 . S
C1179 C1198 1.368 1_556 S
C1179 H1203 0.949 . S
H1180 C1184 0.949 . S
C1181 C1182 1.349 1_556 S
C1181 C1183 1.327 . S
C1181 H1204 0.950 . S
C1182 C1181 1.349 1_554 S
C1182 C1194 1.349 . S
C1183 C1181 1.327 . S
C1183 C1199 1.429 1_556 S
C1183 H1205 0.950 . S
C1184 H1180 0.949 . S
C1184 C1192 1.574 . S
C1184 C1200 1.368 . S
H1185 C1193 0.950 . S
H1186 C1191 0.950 . S
H1187 C1192 0.949 . S
H1188 C1194 0.950 . S
H1189 C1195 0.950 . S
H1190 C1196 0.949 . S
C1191 H1186 0.950 . S
C1191 C1193 1.327 . S
C1191 C1197 1.429 1_556 S
C1192 C1184 1.574 . S
C1192 H1187 0.949 . S
C1192 C1198 1.368 . S
C1193 C1177 1.349 1_556 S
C1193 H1185 0.950 . S
C1193 C1191 1.327 . S
C1194 C1182 1.349 . S
C1194 H1188 0.950 . S
C1194 C1195 1.327 . S
C1195 H1189 0.950 . S
C1195 C1194 1.327 . S
C1195 C1199 1.429 . S
C1196 C1179 1.574 . S
C1196 H1190 0.949 . S
C1196 C1200 1.368 1_556 S
C1197 C1178 1.429 . S
C1197 C1191 1.429 1_554 S
C1197 C1198 1.523 . S
C1198 C1179 1.368 1_554 S
C1198 C1192 1.368 . S
C1198 C1197 1.523 . S
C1199 C1183 1.429 1_554 S
C1199 C1195 1.429 . S
C1199 C1200 1.523 . S
C1200 C1184 1.368 . S
C1200 C1196 1.368 1_554 S
C1200 C1199 1.523 . S
H1201 C1176 0.950 . S
H1202 C1178 0.950 . S
H1203 C1179 0.949 . S
H1204 C1181 0.950 . S
H1205 C1183 0.950 . S
C1206 C1207 1.349 1_556 S
C1206 C1208 1.327 . S
C1206 H1231 0.950 . S
C1207 C1206 1.349 1_554 S
C1207 C1223 1.349 . S
C1208 C1206 1.327 . S
C1208 C1227 1.429 1_556 S
C1208 H1232 0.950 . S
C1209 C1226 1.574 . S
C1209 C1228 1.368 . S
C1209 H1233 0.949 . S
H1210 C1214 0.949 . S
C1211 C1212 1.349 . S
C1211 C1213 1.327 . S
C1211 H1234 0.950 . S
C1212 C1211 1.349 . S
C1212 C1224 1.349 1_554 S
C1213 C1211 1.327 . S
C1213 C1229 1.429 . S
C1213 H1235 0.950 . S
C1214 H1210 0.949 . S
C1214 C1222 1.574 . S
C1214 C1230 1.368 1_556 S
H1215 C1223 0.950 . S
H1216 C1221 0.950 . S
H1217 C1222 0.949 . S
H1218 C1224 0.950 . S
H1219 C1225 0.950 . S
H1220 C1226 0.949 . S
C1221 H1216 0.950 . S
C1221 C1223 1.327 . S
C1221 C1227 1.429 . S
C1222 C1214 1.574 . S
C1222 H1217 0.949 . S
C1222 C1228 1.368 1_556 S
C1223 C1207 1.349 . S
C1223 H1215 0.950 . S
C1223 C1221 1.327 . S
C1224 C1212 1.349 1_556 S
C1224 H1218 0.950 . S
C1224 C1225 1.327 . S
C1225 H1219 0.950 . S
C1225 C1224 1.327 . S
C1225 C1229 1.429 1_556 S
C1226 C1209 1.574 . S
C1226 H1220 0.949 . S
C1226 C1230 1.368 . S
C1227 C1208 1.429 1_554 S
C1227 C1221 1.429 . S
C1227 C1228 1.523 . S
C1228 C1209 1.368 . S
C1228 C1222 1.368 1_554 S
C1228 C1227 1.523 . S
C1229 C1213 1.429 . S
C1229 C1225 1.429 1_554 S
C1229 C1230 1.523 . S
C1230 C1214 1.368 1_554 S
C1230 C1226 1.368 . S
C1230 C1229 1.523 . S
H1231 C1206 0.950 . S
H1232 C1208 0.950 . S
H1233 C1209 0.949 . S
H1234 C1211 0.950 . S
H1235 C1213 0.950 . S
C1236 C1237 1.349 . S
C1236 C1238 1.327 . S
C1236 H1261 0.950 1_455 S
C1237 C1236 1.349 . S
C1237 C1253 1.349 . S
C1238 C1236 1.327 . S
C1238 C1257 1.429 . S
C1238 H1262 0.950 1_455 S
C1239 C1256 1.574 . S
C1239 C1258 1.368 . S
C1239 H1263 0.949 . S
H1240 C1244 0.949 1_655 S
C1241 C1242 1.349 . S
C1241 C1243 1.327 . S
C1241 H1264 0.950 . S
C1242 C1241 1.349 . S
C1242 C1254 1.349 . S
C1243 C1241 1.327 . S
C1243 C1259 1.429 . S
C1243 H1265 0.950 . S
C1244 H1240 0.949 1_455 S
C1244 C1252 1.574 . S
C1244 C1260 1.368 . S
H1245 C1253 0.950 . S
H1246 C1251 0.950 . S
H1247 C1252 0.949 1_655 S
H1248 C1254 0.950 1_655 S
H1249 C1255 0.950 1_655 S
H1250 C1256 0.949 . S
C1251 H1246 0.950 . S
C1251 C1253 1.327 . S
C1251 C1257 1.429 . S
C1252 C1244 1.574 . S
C1252 H1247 0.949 1_455 S
C1252 C1258 1.368 . S
C1253 C1237 1.349 . S
C1253 H1245 0.950 . S
C1253 C1251 1.327 . S
C1254 C1242 1.349 . S
C1254 H1248 0.950 1_455 S
C1254 C1255 1.327 . S
C1255 H1249 0.950 1_455 S
C1255 C1254 1.327 . S
C1255 C1259 1.429 . S
C1256 C1239 1.574 . S
C1256 H1250 0.949 . S
C1256 C1260 1.368 . S
C1257 C1238 1.429 . S
C1257 C1251 1.429 . S
C1257 C1258 1.523 . S
C1258 C1239 1.368 . S
C1258 C1252 1.368 . S
C1258 C1257 1.523 . S
C1259 C1243 1.429 . S
C1259 C1255 1.429 . S
C1259 C1260 1.523 . S
C1260 C1244 1.368 . S
C1260 C1256 1.368 . S
C1260 C1259 1.523 . S
H1261 C1236 0.950 1_655 S
H1262 C1238 0.950 1_655 S
H1263 C1239 0.949 . S
H1264 C1241 0.950 . S
H1265 C1243 0.950 . S
C1266 C1267 1.349 . S
C1266 C1268 1.327 . S
C1266 H1291 0.950 . S
C1267 C1266 1.349 . S
C1267 C1283 1.349 1_545 S
C1268 C1266 1.327 . S
C1268 C1287 1.429 . S
C1268 H1292 0.950 . S
C1269 C1286 1.574 . S
C1269 C1288 1.368 1_565 S
C1269 H1293 0.949 . S
H1270 C1274 0.949 . S
C1271 C1272 1.349 1_565 S
C1271 C1273 1.327 . S
C1271 H1294 0.950 . S
C1272 C1271 1.349 1_545 S
C1272 C1284 1.349 . S
C1273 C1271 1.327 . S
C1273 C1289 1.429 1_565 S
C1273 H1295 0.950 . S
C1274 H1270 0.949 . S
C1274 C1282 1.574 . S
C1274 C1290 1.368 . S
H1275 C1283 0.950 . S
H1276 C1281 0.950 . S
H1277 C1282 0.949 . S
H1278 C1284 0.950 . S
H1279 C1285 0.950 . S
H1280 C1286 0.949 . S
C1281 H1276 0.950 . S
C1281 C1283 1.327 . S
C1281 C1287 1.429 1_565 S
C1282 C1274 1.574 . S
C1282 H1277 0.949 . S
C1282 C1288 1.368 . S
C1283 C1267 1.349 1_565 S
C1283 H1275 0.950 . S
C1283 C1281 1.327 . S
C1284 C1272 1.349 . S
C1284 H1278 0.950 . S
C1284 C1285 1.327 . S
C1285 H1279 0.950 . S
C1285 C1284 1.327 . S
C1285 C1289 1.429 . S
C1286 C1269 1.574 . S
C1286 H1280 0.949 . S
C1286 C1290 1.368 1_565 S
C1287 C1268 1.429 . S
C1287 C1281 1.429 1_545 S
C1287 C1288 1.523 . S
C1288 C1269 1.368 1_545 S
C1288 C1282 1.368 . S
C1288 C1287 1.523 . S
C1289 C1273 1.429 1_545 S
C1289 C1285 1.429 . S
C1289 C1290 1.523 . S
C1290 C1274 1.368 . S
C1290 C1286 1.368 1_545 S
C1290 C1289 1.523 . S
H1291 C1266 0.950 . S
H1292 C1268 0.950 . S
H1293 C1269 0.949 . S
H1294 C1271 0.950 . S
H1295 C1273 0.950 . S
C1296 C1297 1.349 . S
C1296 C1298 1.327 . S
C1296 H1321 0.950 . S
C1297 C1296 1.349 . S
C1297 C1313 1.349 . S
C1298 C1296 1.327 . S
C1298 C1317 1.429 . S
C1298 H1322 0.973 . S
C1299 C1316 1.574 . S
C1299 C1318 1.368 . S
C1299 H1323 0.949 . S
H1300 C1304 0.968 . S
C1301 C1302 1.349 . S
C1301 C1303 1.327 . S
C1301 H1324 0.950 . S
C1302 C1301 1.349 . S
C1302 C1314 1.349 . S
C1303 C1301 1.327 . S
C1303 C1319 1.429 . S
C1303 H1325 0.950 . S
C1304 H1300 0.968 . S
C1304 C1312 1.574 . S
C1304 C1320 1.368 . S
H1305 C1313 0.950 . S
H1306 C1311 0.950 . S
H1307 C1312 0.968 . S
H1308 C1314 0.950 . S
H1309 C1315 0.972 . S
H1310 C1316 0.949 . S
C1311 H1306 0.950 . S
C1311 C1313 1.327 . S
C1311 C1317 1.429 . S
C1312 C1304 1.574 . S
C1312 H1307 0.968 . S
C1312 C1318 1.368 . S
C1313 C1297 1.349 . S
C1313 H1305 0.950 . S
C1313 C1311 1.327 . S
C1314 C1302 1.349 . S
C1314 H1308 0.950 . S
C1314 C1315 1.327 . S
C1315 H1309 0.972 . S
C1315 C1314 1.327 . S
C1315 C1319 1.429 . S
C1316 C1299 1.574 . S
C1316 H1310 0.949 . S
C1316 C1320 1.368 . S
C1317 C1298 1.429 . S
C1317 C1311 1.429 . S
C1317 C1318 1.523 . S
C1318 C1299 1.368 . S
C1318 C1312 1.368 . S
C1318 C1317 1.523 . S
C1319 C1303 1.429 . S
C1319 C1315 1.429 . S
C1319 C1320 1.523 . S
C1320 C1304 1.368 . S
C1320 C1316 1.368 . S
C1320 C1319 1.523 . S
H1321 C1296 0.950 . S
H1322 C1298 0.973 . S
H1323 C1299 0.949 . S
H1324 C1301 0.950 . S
H1325 C1303 0.950 . S
C1326 C1327 1.349 . S
C1326 C1328 1.327 . S
C1326 H1351 0.950 . S
C1327 C1326 1.349 . S
C1327 C1343 1.349 1_545 S
C1328 C1326 1.327 . S
C1328 C1347 1.429 . S
C1328 H1352 0.950 . S
C1329 C1346 1.574 . S
C1329 C1348 1.368 1_565 S
C1329 H1353 0.949 . S
H1330 C1334 0.949 . S
C1331 C1332 1.349 1_565 S
C1331 C1333 1.327 . S
C1331 H1354 0.950 . S
C1332 C1331 1.349 1_545 S
C1332 C1344 1.349 . S
C1333 C1331 1.327 . S
C1333 C1349 1.429 1_565 S
C1333 H1355 0.950 . S
C1334 H1330 0.949 . S
C1334 C1342 1.574 . S
C1334 C1350 1.368 . S
H1335 C1343 0.950 . S
H1336 C1341 0.950 . S
H1337 C1342 0.949 . S
H1338 C1344 0.950 . S
H1339 C1345 0.950 . S
H1340 C1346 0.949 . S
C1341 H1336 0.950 . S
C1341 C1343 1.327 . S
C1341 C1347 1.429 1_565 S
C1342 C1334 1.574 . S
C1342 H1337 0.949 . S
C1342 C1348 1.368 . S
C1343 C1327 1.349 1_565 S
C1343 H1335 0.950 . S
C1343 C1341 1.327 . S
C1344 C1332 1.349 . S
C1344 H1338 0.950 . S
C1344 C1345 1.327 . S
C1345 H1339 0.950 . S
C1345 C1344 1.327 . S
C1345 C1349 1.429 . S
C1346 C1329 1.574 . S
C1346 H1340 0.949 . S
C1346 C1350 1.368 1_565 S
C1347 C1328 1.429 . S
C1347 C1341 1.429 1_545 S
C1347 C1348 1.523 . S
C1348 C1329 1.368 1_545 S
C1348 C1342 1.368 . S
C1348 C1347 1.523 . S
C1349 C1333 1.429 1_545 S
C1349 C1345 1.429 . S
C1349 C1350 1.523 . S
C1350 C1334 1.368 . S
C1350 C1346 1.368 1_545 S
C1350 C1349 1.523 . S
H1351 C1326 0.950 . S
H1352 C1328 0.950 . S
H1353 C1329 0.949 . S
H1354 C1331 0.950 . S
H1355 C1333 0.950 . S
C1356 C1357 1.349 . S
C1356 C1358 1.327 . S
C1356 H1381 0.950 . S
C1357 C1356 1.349 . S
C1357 C1373 1.349 . S
C1358 C1356 1.327 . S
C1358 C1377 1.429 . S
C1358 H1382 0.950 . S
C1359 C1376 1.574 . S
C1359 C1378 1.368 . S
C1359 H1383 0.949 1_455 S
H1360 C1364 0.949 . S
C1361 C1362 1.349 . S
C1361 C1363 1.327 . S
C1361 H1384 0.950 1_455 S
C1362 C1361 1.349 . S
C1362 C1374 1.349 . S
C1363 C1361 1.327 . S
C1363 C1379 1.429 . S
C1363 H1385 0.950 1_455 S
C1364 H1360 0.949 . S
C1364 C1372 1.574 . S
C1364 C1380 1.368 . S
H1365 C1373 0.950 1_655 S
H1366 C1371 0.950 1_655 S
H1367 C1372 0.949 . S
H1368 C1374 0.950 . S
H1369 C1375 0.950 . S
H1370 C1376 0.949 1_655 S
C1371 H1366 0.950 1_455 S
C1371 C1373 1.327 . S
C1371 C1377 1.429 . S
C1372 C1364 1.574 . S
C1372 H1367 0.949 . S
C1372 C1378 1.368 . S
C1373 C1357 1.349 . S
C1373 H1365 0.950 1_455 S
C1373 C1371 1.327 . S
C1374 C1362 1.349 . S
C1374 H1368 0.950 . S
C1374 C1375 1.327 . S
C1375 H1369 0.950 . S
C1375 C1374 1.327 . S
C1375 C1379 1.429 . S
C1376 C1359 1.574 . S
C1376 H1370 0.949 1_455 S
C1376 C1380 1.368 . S
C1377 C1358 1.429 . S
C1377 C1371 1.429 . S
C1377 C1378 1.523 . S
C1378 C1359 1.368 . S
C1378 C1372 1.368 . S
C1378 C1377 1.523 . S
C1379 C1363 1.429 . S
C1379 C1375 1.429 . S
C1379 C1380 1.523 . S
C1380 C1364 1.368 . S
C1380 C1376 1.368 . S
C1380 C1379 1.523 . S
H1381 C1356 0.950 . S
H1382 C1358 0.950 . S
H1383 C1359 0.949 1_655 S
H1384 C1361 0.950 1_655 S
H1385 C1363 0.950 1_655 S
C1386 C1387 1.347 . S
C1386 C1388 1.327 . S
C1386 H1411 0.950 . S
C1387 C1386 1.347 . S
C1387 C1403 1.351 1_545 S
C1388 C1386 1.327 . S
C1388 C1407 1.434 . S
C1388 H1412 0.950 . S
C1389 C1406 1.574 . S
C1389 C1408 1.359 1_565 S
C1389 H1413 0.949 . S
H1390 C1394 0.949 . S
C1391 C1392 1.322 1_565 S
C1391 C1393 1.327 . S
C1391 H1414 0.950 . S
C1392 C1391 1.322 1_545 S
C1392 C1404 1.376 . S
C1393 C1391 1.327 . S
C1393 C1409 1.410 1_565 S
C1393 H1415 0.950 . S
C1394 H1390 0.949 . S
C1394 C1402 1.574 . S
C1394 C1410 1.385 . S
H1395 C1403 0.950 . S
H1396 C1401 0.950 . S
H1397 C1402 0.949 . S
H1398 C1404 0.950 . S
H1399 C1405 0.950 . S
H1400 C1406 0.949 . S
C1401 H1396 0.950 . S
C1401 C1403 1.327 . S
C1401 C1407 1.423 1_565 S
C1402 C1394 1.574 . S
C1402 H1397 0.949 . S
C1402 C1408 1.378 . S
C1403 C1387 1.351 1_565 S
C1403 H1395 0.950 . S
C1403 C1401 1.327 . S
C1404 C1392 1.376 . S
C1404 H1398 0.950 . S
C1404 C1405 1.327 . S
C1405 H1399 0.950 . S
C1405 C1404 1.327 . S
C1405 C1409 1.448 . S
C1406 C1389 1.574 . S
C1406 H1400 0.949 . S
C1406 C1410 1.351 1_565 S
C1407 C1388 1.434 . S
C1407 C1401 1.423 1_545 S
C1407 C1408 1.523 . S
C1408 C1389 1.359 1_545 S
C1408 C1402 1.378 . S
C1408 C1407 1.523 . S
C1409 C1393 1.410 1_545 S
C1409 C1405 1.448 . S
C1409 C1410 1.523 . S
C1410 C1394 1.385 . S
C1410 C1406 1.351 1_545 S
C1410 C1409 1.523 . S
H1411 C1386 0.950 . S
H1412 C1388 0.950 . S
H1413 C1389 0.949 . S
H1414 C1391 0.950 . S
H1415 C1393 0.950 . S
C1416 C1417 1.349 . S
C1416 C1418 1.327 . S
C1416 H1441 0.950 . S
C1417 C1416 1.349 . S
C1417 C1433 1.349 . S
C1418 C1416 1.327 . S
C1418 C1437 1.429 . S
C1418 H1442 0.950 . S
C1419 C1436 1.574 . S
C1419 C1438 1.368 . S
C1419 H1443 0.949 . S
H1420 C1424 0.949 . S
C1421 C1422 1.349 . S
C1421 C1423 1.327 . S
C1421 H1444 0.950 . S
C1422 C1421 1.349 . S
C1422 C1434 1.349 . S
C1423 C1421 1.327 . S
C1423 C1439 1.429 . S
C1423 H1445 0.950 . S
C1424 H1420 0.949 . S
C1424 C1432 1.574 . S
C1424 C1440 1.368 . S
H1425 C1433 0.950 . S
H1426 C1431 0.950 . S
H1427 C1432 0.949 . S
H1428 C1434 0.950 . S
H1429 C1435 0.950 . S
H1430 C1436 0.949 . S
C1431 H1426 0.950 . S
C1431 C1433 1.327 . S
C1431 C1437 1.429 . S
C1432 C1424 1.574 . S
C1432 H1427 0.949 . S
C1432 C1438 1.368 . S
C1433 C1417 1.349 . S
C1433 H1425 0.950 . S
C1433 C1431 1.327 . S
C1434 C1422 1.349 . S
C1434 H1428 0.950 . S
C1434 C1435 1.327 . S
C1435 H1429 0.950 . S
C1435 C1434 1.327 . S
C1435 C1439 1.429 . S
C1436 C1419 1.574 . S
C1436 H1430 0.949 . S
C1436 C1440 1.368 . S
C1437 C1418 1.429 . S
C1437 C1431 1.429 . S
C1437 C1438 1.523 . S
C1438 C1419 1.368 . S
C1438 C1432 1.368 . S
C1438 C1437 1.523 . S
C1439 C1423 1.429 . S
C1439 C1435 1.429 . S
C1439 C1440 1.523 . S
C1440 C1424 1.368 . S
C1440 C1436 1.368 . S
C1440 C1439 1.523 . S
H1441 C1416 0.950 . S
H1442 C1418 0.950 . S
H1443 C1419 0.949 . S
H1444 C1421 0.950 . S
H1445 C1423 0.950 . S
C1446 C1447 1.351 1_565 S
C1446 C1448 1.327 . S
C1446 H1471 0.950 . S
C1447 C1446 1.351 1_545 S
C1447 C1463 1.347 . S
C1448 C1446 1.327 . S
C1448 C1467 1.424 1_565 S
C1448 H1472 0.950 . S
C1449 C1466 1.574 . S
C1449 C1468 1.378 . S
C1449 H1473 0.949 . S
H1450 C1454 0.949 . S
C1451 C1452 1.377 . S
C1451 C1453 1.327 . S
C1451 H1474 0.950 . S
C1452 C1451 1.377 . S
C1452 C1464 1.321 1_545 S
C1453 C1451 1.327 . S
C1453 C1469 1.449 . S
C1453 H1475 0.950 . S
C1454 H1450 0.949 . S
C1454 C1462 1.574 . S
C1454 C1470 1.351 1_565 S
H1455 C1463 0.950 . S
H1456 C1461 0.950 . S
H1457 C1462 0.949 . S
H1458 C1464 0.950 . S
H1459 C1465 0.950 . S
H1460 C1466 0.949 . S
C1461 H1456 0.950 . S
C1461 C1463 1.327 . S
C1461 C1467 1.434 . S
C1462 C1454 1.574 . S
C1462 H1457 0.949 . S
C1462 C1468 1.358 1_565 S
C1463 C1447 1.347 . S
C1463 H1455 0.950 . S
C1463 C1461 1.327 . S
C1464 C1452 1.321 1_565 S
C1464 H1458 0.950 . S
C1464 C1465 1.327 . S
C1465 H1459 0.950 . S
C1465 C1464 1.327 . S
C1465 C1469 1.409 1_565 S
C1466 C1449 1.574 . S
C1466 H1460 0.949 . S
C1466 C1470 1.386 . S
C1467 C1448 1.424 1_545 S
C1467 C1461 1.434 . S
C1467 C1468 1.523 . S
C1468 C1449 1.378 . S
C1468 C1462 1.358 1_545 S
C1468 C1467 1.523 . S
C1469 C1453 1.449 . S
C1469 C1465 1.409 1_545 S
C1469 C1470 1.523 . S
C1470 C1454 1.351 1_545 S
C1470 C1466 1.386 . S
C1470 C1469 1.523 . S
H1471 C1446 0.950 . S
H1472 C1448 0.950 . S
H1473 C1449 0.949 . S
H1474 C1451 0.950 . S
H1475 C1453 0.950 . S
C1476 C1477 1.349 . S
C1476 C1478 1.327 . S
C1476 H1501 0.950 . S
C1477 C1476 1.349 . S
C1477 C1493 1.349 . S
C1478 C1476 1.327 . S
C1478 C1497 1.429 . S
C1478 H1502 0.950 . S
C1479 C1496 1.574 . S
C1479 C1498 1.368 . S
C1479 H1503 0.949 . S
H1480 C1484 0.949 . S
C1481 C1482 1.349 . S
C1481 C1483 1.327 . S
C1481 H1504 0.950 . S
C1482 C1481 1.349 . S
C1482 C1494 1.349 . S
C1483 C1481 1.327 . S
C1483 C1499 1.429 . S
C1483 H1505 0.950 . S
C1484 H1480 0.949 . S
C1484 C1492 1.574 . S
C1484 C1500 1.368 . S
H1485 C1493 0.950 . S
H1486 C1491 0.950 . S
H1487 C1492 0.949 . S
H1488 C1494 0.950 . S
H1489 C1495 0.950 . S
H1490 C1496 0.949 . S
C1491 H1486 0.950 . S
C1491 C1493 1.327 . S
C1491 C1497 1.429 . S
C1492 C1484 1.574 . S
C1492 H1487 0.949 . S
C1492 C1498 1.368 . S
C1493 C1477 1.349 . S
C1493 H1485 0.950 . S
C1493 C1491 1.327 . S
C1494 C1482 1.349 . S
C1494 H1488 0.950 . S
C1494 C1495 1.327 . S
C1495 H1489 0.950 . S
C1495 C1494 1.327 . S
C1495 C1499 1.429 . S
C1496 C1479 1.574 . S
C1496 H1490 0.949 . S
C1496 C1500 1.368 . S
C1497 C1478 1.429 . S
C1497 C1491 1.429 . S
C1497 C1498 1.523 . S
C1498 C1479 1.368 . S
C1498 C1492 1.368 . S
C1498 C1497 1.523 . S
C1499 C1483 1.429 . S
C1499 C1495 1.429 . S
C1499 C1500 1.523 . S
C1500 C1484 1.368 . S
C1500 C1496 1.368 . S
C1500 C1499 1.523 . S
H1501 C1476 0.950 . S
H1502 C1478 0.950 . S
H1503 C1479 0.949 . S
H1504 C1481 0.950 . S
H1505 C1483 0.950 . S
C1506 C1507 1.350 . S
C1506 C1508 1.327 . S
C1506 H1531 0.950 . S
C1507 C1506 1.350 . S
C1507 C1523 1.348 1_545 S
C1508 C1506 1.327 . S
C1508 C1527 1.437 . S
C1508 H1532 0.950 . S
C1509 C1526 1.574 . S
C1509 C1528 1.355 1_565 S
C1509 H1533 0.949 . S
H1510 C1514 0.949 . S
C1511 C1512 1.319 1_565 S
C1511 C1513 1.327 . S
C1511 H1534 0.950 . S
C1512 C1511 1.319 1_545 S
C1512 C1524 1.379 . S
C1513 C1511 1.327 . S
C1513 C1529 1.407 1_565 S
C1513 H1535 0.950 . S
C1514 H1510 0.949 . S
C1514 C1522 1.574 . S
C1514 C1530 1.388 . S
H1515 C1523 0.950 . S
H1516 C1521 0.950 . S
H1517 C1522 0.949 . S
H1518 C1524 0.950 . S
H1519 C1525 0.950 . S
H1520 C1526 0.949 . S
C1521 H1516 0.950 . S
C1521 C1523 1.327 . S
C1521 C1527 1.420 1_565 S
C1522 C1514 1.574 . S
C1522 H1517 0.949 . S
C1522 C1528 1.381 . S
C1523 C1507 1.348 1_565 S
C1523 H1515 0.950 . S
C1523 C1521 1.327 . S
C1524 C1512 1.379 . S
C1524 H1518 0.950 . S
C1524 C1525 1.327 . S
C1525 H1519 0.950 . S
C1525 C1524 1.327 . S
C1525 C1529 1.451 . S
C1526 C1509 1.574 . S
C1526 H1520 0.949 . S
C1526 C1530 1.348 1_565 S
C1527 C1508 1.437 . S
C1527 C1521 1.420 1_545 S
C1527 C1528 1.523 . S
C1528 C1509 1.355 1_545 S
C1528 C1522 1.381 . S
C1528 C1527 1.523 . S
C1529 C1513 1.407 1_545 S
C1529 C1525 1.451 . S
C1529 C1530 1.523 . S
C1530 C1514 1.388 . S
C1530 C1526 1.348 1_545 S
C1530 C1529 1.523 . S
H1531 C1506 0.950 . S
H1532 C1508 0.950 . S
H1533 C1509 0.949 . S
H1534 C1511 0.950 . S
H1535 C1513 0.950 . S
C1536 C1537 1.387 . S
C1536 C1538 1.328 . S
C1536 H1561 0.912 1_455 S
C1537 C1536 1.387 . S
C1537 C1553 1.349 . S
C1538 C1536 1.328 . S
C1538 C1557 1.429 . S
C1538 H1562 0.950 1_455 S
C1539 C1556 1.574 . S
C1539 C1558 1.368 . S
C1539 H1563 0.949 . S
H1540 C1544 0.949 1_655 S
C1541 C1542 1.349 . S
C1541 C1543 1.327 . S
C1541 H1564 0.950 . S
C1542 C1541 1.349 . S
C1542 C1554 1.349 . S
C1543 C1541 1.327 . S
C1543 C1559 1.429 . S
C1543 H1565 0.950 . S
C1544 H1540 0.949 1_455 S
C1544 C1552 1.574 . S
C1544 C1560 1.368 . S
H1545 C1553 0.950 . S
H1546 C1551 0.950 . S
H1547 C1552 0.949 1_655 S
H1548 C1554 0.950 1_655 S
H1549 C1555 0.950 1_655 S
H1550 C1556 0.949 . S
C1551 H1546 0.950 . S
C1551 C1553 1.327 . S
C1551 C1557 1.429 . S
C1552 C1544 1.574 . S
C1552 H1547 0.949 1_455 S
C1552 C1558 1.368 . S
C1553 C1537 1.349 . S
C1553 H1545 0.950 . S
C1553 C1551 1.327 . S
C1554 C1542 1.349 . S
C1554 H1548 0.950 1_455 S
C1554 C1555 1.327 . S
C1555 H1549 0.950 1_455 S
C1555 C1554 1.327 . S
C1555 C1559 1.429 . S
C1556 C1539 1.574 . S
C1556 H1550 0.949 . S
C1556 C1560 1.368 . S
C1557 C1538 1.429 . S
C1557 C1551 1.429 . S
C1557 C1558 1.523 . S
C1558 C1539 1.368 . S
C1558 C1552 1.368 . S
C1558 C1557 1.523 . S
C1559 C1543 1.429 . S
C1559 C1555 1.429 . S
C1559 C1560 1.523 . S
C1560 C1544 1.368 . S
C1560 C1556 1.368 . S
C1560 C1559 1.523 . S
H1561 C1536 0.912 1_655 S
H1562 C1538 0.950 1_655 S
H1563 C1539 0.949 . S
H1564 C1541 0.950 . S
H1565 C1543 0.950 . S
C1566 C1567 1.350 . S
C1566 C1568 1.327 . S
C1566 H1591 0.950 . S
C1567 C1566 1.350 . S
C1567 C1583 1.348 1_545 S
C1568 C1566 1.327 . S
C1568 C1587 1.436 . S
C1568 H1592 0.950 . S
C1569 C1586 1.574 . S
C1569 C1588 1.356 1_565 S
C1569 H1593 0.949 . S
H1570 C1574 0.949 . S
C1571 C1572 1.319 1_565 S
C1571 C1573 1.327 . S
C1571 H1594 0.950 . S
C1572 C1571 1.319 1_545 S
C1572 C1584 1.379 . S
C1573 C1571 1.327 . S
C1573 C1589 1.407 1_565 S
C1573 H1595 0.950 . S
C1574 H1570 0.949 . S
C1574 C1582 1.574 . S
C1574 C1590 1.388 . S
H1575 C1583 0.950 . S
H1576 C1581 0.950 . S
H1577 C1582 0.949 . S
H1578 C1584 0.950 . S
H1579 C1585 0.950 . S
H1580 C1586 0.949 . S
C1581 H1576 0.950 . S
C1581 C1583 1.327 . S
C1581 C1587 1.421 1_565 S
C1582 C1574 1.574 . S
C1582 H1577 0.949 . S
C1582 C1588 1.381 . S
C1583 C1567 1.348 1_565 S
C1583 H1575 0.950 . S
C1583 C1581 1.327 . S
C1584 C1572 1.379 . S
C1584 H1578 0.950 . S
C1584 C1585 1.327 . S
C1585 H1579 0.950 . S
C1585 C1584 1.327 . S
C1585 C1589 1.451 . S
C1586 C1569 1.574 . S
C1586 H1580 0.949 . S
C1586 C1590 1.348 1_565 S
C1587 C1568 1.436 . S
C1587 C1581 1.421 1_545 S
C1587 C1588 1.523 . S
C1588 C1569 1.356 1_545 S
C1588 C1582 1.381 . S
C1588 C1587 1.523 . S
C1589 C1573 1.407 1_545 S
C1589 C1585 1.451 . S
C1589 C1590 1.523 . S
C1590 C1574 1.388 . S
C1590 C1586 1.348 1_545 S
C1590 C1589 1.523 . S
H1591 C1566 0.950 . S
H1592 C1568 0.950 . S
H1593 C1569 0.949 . S
H1594 C1571 0.950 . S
H1595 C1573 0.950 . S
C1596 C1597 1.349 . S
C1596 C1598 1.327 . S
C1596 H1621 0.950 1_455 S
C1597 C1596 1.349 . S
C1597 C1613 1.349 . S
C1598 C1596 1.327 . S
C1598 C1617 1.429 . S
C1598 H1622 0.950 1_455 S
C1599 C1616 1.574 . S
C1599 C1618 1.368 . S
C1599 H1623 0.949 . S
H1600 C1604 0.949 1_655 S
C1601 C1602 1.349 . S
C1601 C1603 1.327 . S
C1601 H1624 0.950 . S
C1602 C1601 1.349 . S
C1602 C1614 1.349 . S
C1603 C1601 1.327 . S
C1603 C1619 1.429 . S
C1603 H1625 0.950 . S
C1604 H1600 0.949 1_455 S
C1604 C1612 1.574 . S
C1604 C1620 1.368 . S
H1605 C1613 0.950 . S
H1606 C1611 0.950 . S
H1607 C1612 0.949 1_655 S
H1608 C1614 0.950 1_655 S
H1609 C1615 0.950 1_655 S
H1610 C1616 0.949 . S
C1611 H1606 0.950 . S
C1611 C1613 1.327 . S
C1611 C1617 1.429 . S
C1612 C1604 1.574 . S
C1612 H1607 0.949 1_455 S
C1612 C1618 1.368 . S
C1613 C1597 1.349 . S
C1613 H1605 0.950 . S
C1613 C1611 1.327 . S
C1614 C1602 1.349 . S
C1614 H1608 0.950 1_455 S
C1614 C1615 1.327 . S
C1615 H1609 0.950 1_455 S
C1615 C1614 1.327 . S
C1615 C1619 1.429 . S
C1616 C1599 1.574 . S
C1616 H1610 0.949 . S
C1616 C1620 1.368 . S
C1617 C1598 1.429 . S
C1617 C1611 1.429 . S
C1617 C1618 1.523 . S
C1618 C1599 1.368 . S
C1618 C1612 1.368 . S
C1618 C1617 1.523 . S
C1619 C1603 1.429 . S
C1619 C1615 1.429 . S
C1619 C1620 1.523 . S
C1620 C1604 1.368 . S
C1620 C1616 1.368 . S
C1620 C1619 1.523 . S
H1621 C1596 0.950 1_655 S
H1622 C1598 0.950 1_655 S
H1623 C1599 0.949 . S
H1624 C1601 0.950 . S
H1625 C1603 0.950 . S
C1626 C1627 1.349 1_565 S
C1626 C1628 1.327 . S
C1626 H1651 0.950 . S
C1627 C1626 1.349 1_545 S
C1627 C1643 1.349 . S
C1628 C1626 1.327 . S
C1628 C1647 1.429 1_565 S
C1628 H1652 0.950 . S
C1629 C1646 1.574 . S
C1629 C1648 1.368 . S
C1629 H1653 0.949 . S
H1630 C1634 0.949 . S
C1631 C1632 1.387 . S
C1631 C1633 1.327 . S
C1631 H1654 0.950 . S
C1632 C1631 1.387 . S
C1632 C1644 1.312 1_545 S
C1633 C1631 1.327 . S
C1633 C1649 1.429 . S
C1633 H1655 0.950 . S
C1634 H1630 0.949 . S
C1634 C1642 1.574 . S
C1634 C1650 1.368 1_565 S
H1635 C1643 0.950 . S
H1636 C1641 0.950 . S
H1637 C1642 0.949 . S
H1638 C1644 0.950 . S
H1639 C1645 0.950 . S
H1640 C1646 0.949 . S
C1641 H1636 0.950 . S
C1641 C1643 1.327 . S
C1641 C1647 1.429 . S
C1642 C1634 1.574 . S
C1642 H1637 0.949 . S
C1642 C1648 1.368 1_565 S
C1643 C1627 1.349 . S
C1643 H1635 0.950 . S
C1643 C1641 1.327 . S
C1644 C1632 1.312 1_565 S
C1644 H1638 0.950 . S
C1644 C1645 1.327 . S
C1645 H1639 0.950 . S
C1645 C1644 1.327 . S
C1645 C1649 1.429 1_565 S
C1646 C1629 1.574 . S
C1646 H1640 0.949 . S
C1646 C1650 1.368 . S
C1647 C1628 1.429 1_545 S
C1647 C1641 1.429 . S
C1647 C1648 1.523 . S
C1648 C1629 1.368 . S
C1648 C1642 1.368 1_545 S
C1648 C1647 1.523 . S
C1649 C1633 1.429 . S
C1649 C1645 1.429 1_545 S
C1649 C1650 1.523 . S
C1650 C1634 1.368 1_545 S
C1650 C1646 1.368 . S
C1650 C1649 1.523 . S
H1651 C1626 0.950 . S
H1652 C1628 0.950 . S
H1653 C1629 0.949 . S
H1654 C1631 0.950 . S
H1655 C1633 0.950 . S
C1656 C1657 1.349 . S
C1656 C1658 1.327 . S
C1656 H1681 0.950 . S
C1657 C1656 1.349 . S
C1657 C1673 1.349 . S
C1658 C1656 1.327 . S
C1658 C1677 1.429 . S
C1658 H1682 0.950 . S
C1659 C1676 1.574 . S
C1659 C1678 1.368 . S
C1659 H1683 0.925 1_455 S
H1660 C1664 0.949 . S
C1661 C1662 1.349 . S
C1661 C1663 1.327 . S
C1661 H1684 0.950 . S
C1662 C1661 1.349 . S
C1662 C1674 1.349 . S
C1663 C1661 1.327 . S
C1663 C1679 1.429 . S
C1663 H1685 0.963 . S
C1664 H1660 0.949 . S
C1664 C1672 1.574 . S
C1664 C1680 1.368 . S
H1665 C1673 0.950 1_655 S
H1666 C1671 0.950 1_655 S
H1667 C1672 0.949 . S
H1668 C1674 0.950 . S
H1669 C1675 0.950 . S
H1670 C1676 0.948 1_655 S
C1671 H1666 0.950 1_455 S
C1671 C1673 1.327 . S
C1671 C1677 1.429 . S
C1672 C1664 1.574 . S
C1672 H1667 0.949 . S
C1672 C1678 1.368 . S
C1673 C1657 1.349 . S
C1673 H1665 0.950 1_455 S
C1673 C1671 1.327 . S
C1674 C1662 1.349 . S
C1674 H1668 0.950 . S
C1674 C1675 1.327 . S
C1675 H1669 0.950 . S
C1675 C1674 1.327 . S
C1675 C1679 1.429 . S
C1676 C1659 1.574 . S
C1676 H1670 0.948 1_455 S
C1676 C1680 1.368 . S
C1677 C1658 1.429 . S
C1677 C1671 1.429 . S
C1677 C1678 1.523 . S
C1678 C1659 1.368 . S
C1678 C1672 1.368 . S
C1678 C1677 1.523 . S
C1679 C1663 1.429 . S
C1679 C1675 1.429 . S
C1679 C1680 1.523 . S
C1680 C1664 1.368 . S
C1680 C1676 1.368 . S
C1680 C1679 1.523 . S
H1681 C1656 0.950 . S
H1682 C1658 0.950 . S
H1683 C1659 0.925 1_655 S
H1684 C1661 0.950 . S
H1685 C1663 0.963 . S
C1686 C1687 1.349 1_565 S
C1686 C1688 1.327 . S
C1686 H1711 0.950 . S
C1687 C1686 1.349 1_545 S
C1687 C1703 1.349 . S
C1688 C1686 1.327 . S
C1688 C1707 1.429 1_565 S
C1688 H1712 0.950 . S
C1689 C1706 1.574 . S
C1689 C1708 1.368 . S
C1689 H1713 0.949 . S
H1690 C1694 0.949 . S
C1691 C1692 1.349 . S
C1691 C1693 1.327 . S
C1691 H1714 0.950 . S
C1692 C1691 1.349 . S
C1692 C1704 1.349 1_545 S
C1693 C1691 1.327 . S
C1693 C1709 1.429 . S
C1693 H1715 0.950 . S
C1694 H1690 0.949 . S
C1694 C1702 1.574 . S
C1694 C1710 1.368 1_565 S
H1695 C1703 0.950 . S
H1696 C1701 0.950 . S
H1697 C1702 0.949 . S
H1698 C1704 0.950 . S
H1699 C1705 0.950 . S
H1700 C1706 0.949 . S
C1701 H1696 0.950 . S
C1701 C1703 1.327 . S
C1701 C1707 1.429 . S
C1702 C1694 1.574 . S
C1702 H1697 0.949 . S
C1702 C1708 1.368 1_565 S
C1703 C1687 1.349 . S
C1703 H1695 0.950 . S
C1703 C1701 1.327 . S
C1704 C1692 1.349 1_565 S
C1704 H1698 0.950 . S
C1704 C1705 1.327 . S
C1705 H1699 0.950 . S
C1705 C1704 1.327 . S
C1705 C1709 1.429 1_565 S
C1706 C1689 1.574 . S
C1706 H1700 0.949 . S
C1706 C1710 1.368 . S
C1707 C1688 1.429 1_545 S
C1707 C1701 1.429 . S
C1707 C1708 1.523 . S
C1708 C1689 1.368 . S
C1708 C1702 1.368 1_545 S
C1708 C1707 1.523 . S
C1709 C1693 1.429 . S
C1709 C1705 1.429 1_545 S
C1709 C1710 1.523 . S
C1710 C1694 1.368 1_545 S
C1710 C1706 1.368 . S
C1710 C1709 1.523 . S
H1711 C1686 0.950 . S
H1712 C1688 0.950 . S
H1713 C1689 0.949 . S
H1714 C1691 0.950 . S
H1715 C1693 0.950 . S
C1716 C1717 1.346 . S
C1716 C1718 1.327 . S
C1716 H1741 0.950 . S
C1717 C1716 1.346 . S
C1717 C1733 1.352 1_545 S
C1718 C1716 1.327 . S
C1718 C1737 1.430 . S
C1718 H1742 0.950 . S
C1719 C1736 1.574 . S
C1719 C1738 1.364 1_565 S
C1719 H1743 0.949 . S
H1720 C1724 0.949 . S
C1721 C1722 1.333 1_565 S
C1721 C1723 1.327 . S
C1721 H1744 0.950 . S
C1722 C1721 1.333 1_545 S
C1722 C1734 1.365 . S
C1723 C1721 1.327 . S
C1723 C1739 1.418 1_565 S
C1723 H1745 0.950 . S
C1724 H1720 0.949 . S
C1724 C1732 1.574 . S
C1724 C1740 1.377 . S
H1725 C1733 0.950 . S
H1726 C1731 0.950 . S
H1727 C1732 0.949 . S
H1728 C1734 0.950 . S
H1729 C1735 0.950 . S
H1730 C1736 0.949 . S
C1731 H1726 0.950 . S
C1731 C1733 1.327 . S
C1731 C1737 1.427 1_565 S
C1732 C1724 1.574 . S
C1732 H1727 0.949 . S
C1732 C1738 1.373 . S
C1733 C1717 1.352 1_565 S
C1733 H1725 0.950 . S
C1733 C1731 1.327 . S
C1734 C1722 1.365 . S
C1734 H1728 0.950 . S
C1734 C1735 1.327 . S
C1735 H1729 0.950 . S
C1735 C1734 1.327 . S
C1735 C1739 1.439 . S
C1736 C1719 1.574 . S
C1736 H1730 0.949 . S
C1736 C1740 1.359 1_565 S
C1737 C1718 1.430 . S
C1737 C1731 1.427 1_545 S
C1737 C1738 1.523 . S
C1738 C1719 1.364 1_545 S
C1738 C1732 1.373 . S
C1738 C1737 1.523 . S
C1739 C1723 1.418 1_545 S
C1739 C1735 1.439 . S
C1739 C1740 1.523 . S
C1740 C1724 1.377 . S
C1740 C1736 1.359 1_545 S
C1740 C1739 1.523 . S
H1741 C1716 0.950 . S
H1742 C1718 0.950 . S
H1743 C1719 0.949 . S
H1744 C1721 0.950 . S
H1745 C1723 0.950 . S
C1746 C1747 1.349 . S
C1746 C1748 1.327 . S
C1746 H1771 0.950 . S
C1747 C1746 1.349 . S
C1747 C1763 1.349 . S
C1748 C1746 1.327 . S
C1748 C1767 1.429 . S
C1748 H1772 0.950 . S
C1749 C1766 1.574 . S
C1749 C1768 1.368 . S
C1749 H1773 0.949 . S
H1750 C1754 0.949 . S
C1751 C1752 1.349 . S
C1751 C1753 1.327 . S
C1751 H1774 0.950 . S
C1752 C1751 1.349 . S
C1752 C1764 1.349 . S
C1753 C1751 1.327 . S
C1753 C1769 1.429 . S
C1753 H1775 0.950 . S
C1754 H1750 0.949 . S
C1754 C1762 1.574 . S
C1754 C1770 1.368 . S
H1755 C1763 0.950 . S
H1756 C1761 0.950 . S
H1757 C1762 0.949 . S
H1758 C1764 0.950 . S
H1759 C1765 0.950 . S
H1760 C1766 0.949 . S
C1761 H1756 0.950 . S
C1761 C1763 1.327 . S
C1761 C1767 1.429 . S
C1762 C1754 1.574 . S
C1762 H1757 0.949 . S
C1762 C1768 1.368 . S
C1763 C1747 1.349 . S
C1763 H1755 0.950 . S
C1763 C1761 1.327 . S
C1764 C1752 1.349 . S
C1764 H1758 0.950 . S
C1764 C1765 1.327 . S
C1765 H1759 0.950 . S
C1765 C1764 1.327 . S
C1765 C1769 1.429 . S
C1766 C1749 1.574 . S
C1766 H1760 0.949 . S
C1766 C1770 1.368 . S
C1767 C1748 1.429 . S
C1767 C1761 1.429 . S
C1767 C1768 1.523 . S
C1768 C1749 1.368 . S
C1768 C1762 1.368 . S
C1768 C1767 1.523 . S
C1769 C1753 1.429 . S
C1769 C1765 1.429 . S
C1769 C1770 1.523 . S
C1770 C1754 1.368 . S
C1770 C1766 1.368 . S
C1770 C1769 1.523 . S
H1771 C1746 0.950 . S
H1772 C1748 0.950 . S
H1773 C1749 0.949 . S
H1774 C1751 0.950 . S
H1775 C1753 0.950 . S
C1776 C1777 1.346 . S
C1776 C1778 1.327 . S
C1776 H1801 0.950 . S
C1777 C1776 1.346 . S
C1777 C1793 1.352 1_545 S
C1778 C1776 1.327 . S
C1778 C1797 1.430 . S
C1778 H1802 0.950 . S
C1779 C1796 1.574 . S
C1779 C1798 1.364 1_565 S
C1779 H1803 0.949 . S
H1780 C1784 0.949 . S
C1781 C1782 1.333 1_565 S
C1781 C1783 1.327 . S
C1781 H1804 0.950 . S
C1782 C1781 1.333 1_545 S
C1782 C1794 1.365 . S
C1783 C1781 1.327 . S
C1783 C1799 1.418 1_565 S
C1783 H1805 0.950 . S
C1784 H1780 0.949 . S
C1784 C1792 1.574 . S
C1784 C1800 1.377 . S
H1785 C1793 0.950 . S
H1786 C1791 0.950 . S
H1787 C1792 0.949 . S
H1788 C1794 0.950 . S
H1789 C1795 0.950 . S
H1790 C1796 0.949 . S
C1791 H1786 0.950 . S
C1791 C1793 1.327 . S
C1791 C1797 1.427 1_565 S
C1792 C1784 1.574 . S
C1792 H1787 0.949 . S
C1792 C1798 1.373 . S
C1793 C1777 1.352 1_565 S
C1793 H1785 0.950 . S
C1793 C1791 1.327 . S
C1794 C1782 1.365 . S
C1794 H1788 0.950 . S
C1794 C1795 1.327 . S
C1795 H1789 0.950 . S
C1795 C1794 1.327 . S
C1795 C1799 1.439 . S
C1796 C1779 1.574 . S
C1796 H1790 0.949 . S
C1796 C1800 1.359 1_565 S
C1797 C1778 1.430 . S
C1797 C1791 1.427 1_545 S
C1797 C1798 1.523 . S
C1798 C1779 1.364 1_545 S
C1798 C1792 1.373 . S
C1798 C1797 1.523 . S
C1799 C1783 1.418 1_545 S
C1799 C1795 1.439 . S
C1799 C1800 1.523 . S
C1800 C1784 1.377 . S
C1800 C1796 1.359 1_545 S
C1800 C1799 1.523 . S
H1801 C1776 0.950 . S
H1802 C1778 0.950 . S
H1803 C1779 0.949 . S
H1804 C1781 0.950 . S
H1805 C1783 0.950 . S
C1806 C1807 1.349 . S
C1806 C1808 1.327 . S
C1806 H1831 0.950 1_455 S
C1807 C1806 1.349 . S
C1807 C1823 1.349 . S
C1808 C1806 1.327 . S
C1808 C1827 1.429 . S
C1808 H1832 0.950 1_455 S
C1809 C1826 1.574 . S
C1809 C1828 1.368 . S
C1809 H1833 0.949 . S
H1810 C1814 0.939 1_655 S
C1811 C1812 1.349 . S
C1811 C1813 1.327 . S
C1811 H1834 0.950 . S
C1812 C1811 1.349 . S
C1812 C1824 1.348 1_455 S
C1813 C1811 1.327 . S
C1813 C1829 1.429 . S
C1813 H1835 0.950 . S
C1814 H1810 0.939 1_455 S
C1814 C1822 1.574 . S
C1814 C1830 1.380 . S
H1815 C1823 0.950 . S
H1816 C1821 0.950 . S
H1817 C1822 0.949 1_655 S
H1818 C1824 0.951 . S
H1819 C1825 0.951 1_655 S
H1820 C1826 0.949 . S
C1821 H1816 0.950 . S
C1821 C1823 1.327 . S
C1821 C1827 1.429 . S
C1822 C1814 1.574 . S
C1822 H1817 0.949 1_455 S
C1822 C1828 1.368 . S
C1823 C1807 1.349 . S
C1823 H1815 0.950 . S
C1823 C1821 1.327 . S
C1824 C1812 1.348 1_655 S
C1824 H1818 0.951 . S
C1824 C1825 1.327 1_655 S
C1825 H1819 0.951 1_455 S
C1825 C1824 1.327 1_455 S
C1825 C1829 1.427 . S
C1826 C1809 1.574 . S
C1826 H1820 0.949 . S
C1826 C1830 1.368 . S
C1827 C1808 1.429 . S
C1827 C1821 1.429 . S
C1827 C1828 1.523 . S
C1828 C1809 1.368 . S
C1828 C1822 1.368 . S
C1828 C1827 1.523 . S
C1829 C1813 1.429 . S
C1829 C1825 1.427 . S
C1829 C1830 1.523 . S
C1830 C1814 1.380 . S
C1830 C1826 1.368 . S
C1830 C1829 1.523 . S
H1831 C1806 0.950 1_655 S
H1832 C1808 0.950 1_655 S
H1833 C1809 0.949 . S
H1834 C1811 0.950 . S
H1835 C1813 0.950 . S
C1836 C1837 1.349 . S
C1836 C1838 1.327 . S
C1836 H1861 0.950 . S
C1837 C1836 1.349 . S
C1837 C1853 1.349 1_545 S
C1838 C1836 1.327 . S
C1838 C1857 1.429 . S
C1838 H1862 0.950 . S
C1839 C1856 1.574 . S
C1839 C1858 1.368 1_565 S
C1839 H1863 0.949 . S
H1840 C1844 0.949 . S
C1841 C1842 1.349 1_565 S
C1841 C1843 1.327 . S
C1841 H1864 0.950 . S
C1842 C1841 1.349 1_545 S
C1842 C1854 1.349 . S
C1843 C1841 1.327 . S
C1843 C1859 1.429 1_565 S
C1843 H1865 0.950 . S
C1844 H1840 0.949 . S
C1844 C1852 1.574 . S
C1844 C1860 1.368 . S
H1845 C1853 0.950 . S
H1846 C1851 0.950 . S
H1847 C1852 0.949 . S
H1848 C1854 0.950 . S
H1849 C1855 0.950 . S
H1850 C1856 0.949 . S
C1851 H1846 0.950 . S
C1851 C1853 1.327 . S
C1851 C1857 1.429 1_565 S
C1852 C1844 1.574 . S
C1852 H1847 0.949 . S
C1852 C1858 1.368 . S
C1853 C1837 1.349 1_565 S
C1853 H1845 0.950 . S
C1853 C1851 1.327 . S
C1854 C1842 1.349 . S
C1854 H1848 0.950 . S
C1854 C1855 1.327 . S
C1855 H1849 0.950 . S
C1855 C1854 1.327 . S
C1855 C1859 1.429 . S
C1856 C1839 1.574 . S
C1856 H1850 0.949 . S
C1856 C1860 1.368 1_565 S
C1857 C1838 1.429 . S
C1857 C1851 1.429 1_545 S
C1857 C1858 1.523 . S
C1858 C1839 1.368 1_545 S
C1858 C1852 1.368 . S
C1858 C1857 1.523 . S
C1859 C1843 1.429 1_545 S
C1859 C1855 1.429 . S
C1859 C1860 1.523 . S
C1860 C1844 1.368 . S
C1860 C1856 1.368 1_545 S
C1860 C1859 1.523 . S
H1861 C1836 0.950 . S
H1862 C1838 0.950 . S
H1863 C1839 0.949 . S
H1864 C1841 0.950 . S
H1865 C1843 0.950 . S
C1866 C1867 1.349 . S
C1866 C1868 1.327 . S
C1866 H1891 0.950 . S
C1867 C1866 1.349 . S
C1867 C1883 1.349 . S
C1868 C1866 1.327 . S
C1868 C1887 1.429 . S
C1868 H1892 0.950 . S
C1869 C1886 1.574 . S
C1869 C1888 1.368 . S
C1869 H1893 0.960 . S
H1870 C1874 0.949 . S
C1871 C1872 1.349 . S
C1871 C1873 1.327 . S
C1871 H1894 0.950 1_455 S
C1872 C1871 1.349 . S
C1872 C1884 1.349 . S
C1873 C1871 1.327 . S
C1873 C1889 1.429 . S
C1873 H1895 0.950 1_455 S
C1874 H1870 0.949 . S
C1874 C1882 1.574 . S
C1874 C1890 1.368 . S
H1875 C1883 0.950 . S
H1876 C1881 0.950 . S
H1877 C1882 0.949 . S
H1878 C1884 0.950 . S
H1879 C1885 0.950 . S
H1880 C1886 0.944 1_655 S
C1881 H1876 0.950 . S
C1881 C1883 1.327 . S
C1881 C1887 1.429 . S
C1882 C1874 1.574 . S
C1882 H1877 0.949 . S
C1882 C1888 1.368 . S
C1883 C1867 1.349 . S
C1883 H1875 0.950 . S
C1883 C1881 1.327 . S
C1884 C1872 1.349 . S
C1884 H1878 0.950 . S
C1884 C1885 1.327 . S
C1885 H1879 0.950 . S
C1885 C1884 1.327 . S
C1885 C1889 1.429 . S
C1886 C1869 1.574 . S
C1886 H1880 0.944 1_455 S
C1886 C1890 1.368 . S
C1887 C1868 1.429 . S
C1887 C1881 1.429 . S
C1887 C1888 1.523 . S
C1888 C1869 1.368 . S
C1888 C1882 1.368 . S
C1888 C1887 1.523 . S
C1889 C1873 1.429 . S
C1889 C1885 1.429 . S
C1889 C1890 1.523 . S
C1890 C1874 1.368 . S
C1890 C1886 1.368 . S
C1890 C1889 1.523 . S
H1891 C1866 0.950 . S
H1892 C1868 0.950 . S
H1893 C1869 0.960 . S
H1894 C1871 0.950 1_655 S
H1895 C1873 0.950 1_655 S
C1896 C1897 1.349 . S
C1896 C1898 1.327 . S
C1896 H1921 0.950 . S
C1897 C1896 1.349 . S
C1897 C1913 1.349 1_545 S
C1898 C1896 1.327 . S
C1898 C1917 1.429 . S
C1898 H1922 0.950 . S
C1899 C1916 1.574 . S
C1899 C1918 1.368 1_565 S
C1899 H1923 0.949 . S
H1900 C1904 0.949 . S
C1901 C1902 1.349 1_565 S
C1901 C1903 1.327 . S
C1901 H1924 0.950 . S
C1902 C1901 1.349 1_545 S
C1902 C1914 1.349 . S
C1903 C1901 1.327 . S
C1903 C1919 1.429 1_565 S
C1903 H1925 0.950 . S
C1904 H1900 0.949 . S
C1904 C1912 1.574 . S
C1904 C1920 1.368 . S
H1905 C1913 0.950 . S
H1906 C1911 0.950 . S
H1907 C1912 0.949 . S
H1908 C1914 0.950 . S
H1909 C1915 0.950 . S
H1910 C1916 0.949 . S
C1911 H1906 0.950 . S
C1911 C1913 1.327 . S
C1911 C1917 1.429 1_565 S
C1912 C1904 1.574 . S
C1912 H1907 0.949 . S
C1912 C1918 1.368 . S
C1913 C1897 1.349 1_565 S
C1913 H1905 0.950 . S
C1913 C1911 1.327 . S
C1914 C1902 1.349 . S
C1914 H1908 0.950 . S
C1914 C1915 1.327 . S
C1915 H1909 0.950 . S
C1915 C1914 1.327 . S
C1915 C1919 1.429 . S
C1916 C1899 1.574 . S
C1916 H1910 0.949 . S
C1916 C1920 1.368 1_565 S
C1917 C1898 1.429 . S
C1917 C1911 1.429 1_545 S
C1917 C1918 1.523 . S
C1918 C1899 1.368 1_545 S
C1918 C1912 1.368 . S
C1918 C1917 1.523 . S
C1919 C1903 1.429 1_545 S
C1919 C1915 1.429 . S
C1919 C1920 1.523 . S
C1920 C1904 1.368 . S
C1920 C1916 1.368 1_545 S
C1920 C1919 1.523 . S
H1921 C1896 0.950 . S
H1922 C1898 0.950 . S
H1923 C1899 0.949 . S
H1924 C1901 0.950 . S
H1925 C1903 0.950 . S
C1926 C1927 1.349 . S
C1926 C1928 1.327 . S
C1926 H1951 0.950 . S
C1927 C1926 1.349 . S
C1927 C1943 1.349 . S
C1928 C1926 1.327 . S
C1928 C1947 1.429 . S
C1928 H1952 0.950 . S
C1929 C1946 1.574 . S
C1929 C1948 1.368 . S
C1929 H1953 0.949 1_455 S
H1930 C1934 0.949 . S
C1931 C1932 1.349 . S
C1931 C1933 1.327 . S
C1931 H1954 0.950 1_455 S
C1932 C1931 1.349 . S
C1932 C1944 1.349 . S
C1933 C1931 1.327 . S
C1933 C1949 1.429 . S
C1933 H1955 0.950 1_455 S
C1934 H1930 0.949 . S
C1934 C1942 1.574 . S
C1934 C1950 1.368 . S
H1935 C1943 0.969 . S
H1936 C1941 0.947 1_655 S
H1937 C1942 0.949 . S
H1938 C1944 0.950 . S
H1939 C1945 0.950 . S
H1940 C1946 0.949 1_655 S
C1941 H1936 0.947 1_455 S
C1941 C1943 1.327 . S
C1941 C1947 1.429 . S
C1942 C1934 1.574 . S
C1942 H1937 0.949 . S
C1942 C1948 1.368 . S
C1943 C1927 1.349 . S
C1943 H1935 0.969 . S
C1943 C1941 1.327 . S
C1944 C1932 1.349 . S
C1944 H1938 0.950 . S
C1944 C1945 1.327 . S
C1945 H1939 0.950 . S
C1945 C1944 1.327 . S
C1945 C1949 1.429 . S
C1946 C1929 1.574 . S
C1946 H1940 0.949 1_455 S
C1946 C1950 1.368 . S
C1947 C1928 1.429 . S
C1947 C1941 1.429 . S
C1947 C1948 1.523 . S
C1948 C1929 1.368 . S
C1948 C1942 1.368 . S
C1948 C1947 1.523 . S
C1949 C1933 1.429 . S
C1949 C1945 1.429 . S
C1949 C1950 1.523 . S
C1950 C1934 1.368 . S
C1950 C1946 1.368 . S
C1950 C1949 1.523 . S
H1951 C1926 0.950 . S
H1952 C1928 0.950 . S
H1953 C1929 0.949 1_655 S
H1954 C1931 0.950 1_655 S
H1955 C1933 0.950 1_655 S
C1956 C1957 1.349 . S
C1956 C1958 1.327 . S
C1956 H1981 0.950 . S
C1957 C1956 1.349 . S
C1957 C1973 1.349 1_554 S
C1958 C1956 1.327 . S
C1958 C1977 1.429 . S
C1958 H1982 0.950 . S
C1959 C1976 1.574 . S
C1959 C1978 1.368 1_556 S
C1959 H1983 0.949 . S
H1960 C1964 0.949 . S
C1961 C1962 1.349 1_556 S
C1961 C1963 1.327 . S
C1961 H1984 0.950 . S
C1962 C1961 1.349 1_554 S
C1962 C1974 1.349 . S
C1963 C1961 1.327 . S
C1963 C1979 1.429 1_556 S
C1963 H1985 0.950 . S
C1964 H1960 0.949 . S
C1964 C1972 1.574 . S
C1964 C1980 1.368 . S
H1965 C1973 0.950 . S
H1966 C1971 0.950 . S
H1967 C1972 0.949 . S
H1968 C1974 0.950 . S
H1969 C1975 0.950 . S
H1970 C1976 0.949 . S
C1971 H1966 0.950 . S
C1971 C1973 1.327 . S
C1971 C1977 1.429 1_556 S
C1972 C1964 1.574 . S
C1972 H1967 0.949 . S
C1972 C1978 1.368 . S
C1973 C1957 1.349 1_556 S
C1973 H1965 0.950 . S
C1973 C1971 1.327 . S
C1974 C1962 1.349 . S
C1974 H1968 0.950 . S
C1974 C1975 1.327 . S
C1975 H1969 0.950 . S
C1975 C1974 1.327 . S
C1975 C1979 1.429 . S
C1976 C1959 1.574 . S
C1976 H1970 0.949 . S
C1976 C1980 1.368 1_556 S
C1977 C1958 1.429 . S
C1977 C1971 1.429 1_554 S
C1977 C1978 1.523 . S
C1978 C1959 1.368 1_554 S
C1978 C1972 1.368 . S
C1978 C1977 1.523 . S
C1979 C1963 1.429 1_554 S
C1979 C1975 1.429 . S
C1979 C1980 1.523 . S
C1980 C1964 1.368 . S
C1980 C1976 1.368 1_554 S
C1980 C1979 1.523 . S
H1981 C1956 0.950 . S
H1982 C1958 0.950 . S
H1983 C1959 0.949 . S
H1984 C1961 0.950 . S
H1985 C1963 0.950 . S
C1986 C1987 1.349 . S
C1986 C1988 1.327 . S
C1986 H2011 0.950 . S
C1987 C1986 1.349 . S
C1987 C2003 1.349 1_554 S
C1988 C1986 1.327 . S
C1988 C2007 1.429 . S
C1988 H2012 0.950 . S
C1989 C2006 1.574 . S
C1989 C2008 1.368 1_556 S
C1989 H2013 0.949 . S
H1990 C1994 0.949 . S
C1991 C1992 1.349 1_556 S
C1991 C1993 1.327 . S
C1991 H2014 0.950 . S
C1992 C1991 1.349 1_554 S
C1992 C2004 1.349 . S
C1993 C1991 1.327 . S
C1993 C2009 1.429 1_556 S
C1993 H2015 0.950 . S
C1994 H1990 0.949 . S
C1994 C2002 1.574 . S
C1994 C2010 1.368 . S
H1995 C2003 0.950 . S
H1996 C2001 0.950 . S
H1997 C2002 0.949 . S
H1998 C2004 0.950 . S
H1999 C2005 0.950 . S
H2000 C2006 0.949 . S
C2001 H1996 0.950 . S
C2001 C2003 1.327 . S
C2001 C2007 1.429 1_556 S
C2002 C1994 1.574 . S
C2002 H1997 0.949 . S
C2002 C2008 1.368 . S
C2003 C1987 1.349 1_556 S
C2003 H1995 0.950 . S
C2003 C2001 1.327 . S
C2004 C1992 1.349 . S
C2004 H1998 0.950 . S
C2004 C2005 1.327 . S
C2005 H1999 0.950 . S
C2005 C2004 1.327 . S
C2005 C2009 1.429 . S
C2006 C1989 1.574 . S
C2006 H2000 0.949 . S
C2006 C2010 1.368 1_556 S
C2007 C1988 1.429 . S
C2007 C2001 1.429 1_554 S
C2007 C2008 1.523 . S
C2008 C1989 1.368 1_554 S
C2008 C2002 1.368 . S
C2008 C2007 1.523 . S
C2009 C1993 1.429 1_554 S
C2009 C2005 1.429 . S
C2009 C2010 1.523 . S
C2010 C1994 1.368 . S
C2010 C2006 1.368 1_554 S
C2010 C2009 1.523 . S
H2011 C1986 0.950 . S
H2012 C1988 0.950 . S
H2013 C1989 0.949 . S
H2014 C1991 0.950 . S
H2015 C1993 0.950 . S
C2016 C2017 1.349 1_556 S
C2016 C2018 1.327 . S
C2016 H2041 0.950 . S
C2017 C2016 1.349 1_554 S
C2017 C2033 1.349 . S
C2018 C2016 1.327 . S
C2018 C2037 1.429 1_556 S
C2018 H2042 0.950 . S
C2019 C2036 1.574 . S
C2019 C2038 1.368 . S
C2019 H2043 0.949 . S
H2020 C2024 0.949 . S
C2021 C2022 1.349 . S
C2021 C2023 1.327 . S
C2021 H2044 0.950 . S
C2022 C2021 1.349 . S
C2022 C2034 1.349 1_554 S
C2023 C2021 1.327 . S
C2023 C2039 1.429 . S
C2023 H2045 0.950 . S
C2024 H2020 0.949 . S
C2024 C2032 1.574 . S
C2024 C2040 1.368 1_556 S
H2025 C2033 0.950 . S
H2026 C2031 0.950 . S
H2027 C2032 0.949 . S
H2028 C2034 0.950 . S
H2029 C2035 0.950 . S
H2030 C2036 0.949 . S
C2031 H2026 0.950 . S
C2031 C2033 1.327 . S
C2031 C2037 1.429 . S
C2032 C2024 1.574 . S
C2032 H2027 0.949 . S
C2032 C2038 1.368 1_556 S
C2033 C2017 1.349 . S
C2033 H2025 0.950 . S
C2033 C2031 1.327 . S
C2034 C2022 1.349 1_556 S
C2034 H2028 0.950 . S
C2034 C2035 1.327 . S
C2035 H2029 0.950 . S
C2035 C2034 1.327 . S
C2035 C2039 1.429 1_556 S
C2036 C2019 1.574 . S
C2036 H2030 0.949 . S
C2036 C2040 1.368 . S
C2037 C2018 1.429 1_554 S
C2037 C2031 1.429 . S
C2037 C2038 1.523 . S
C2038 C2019 1.368 . S
C2038 C2032 1.368 1_554 S
C2038 C2037 1.523 . S
C2039 C2023 1.429 . S
C2039 C2035 1.429 1_554 S
C2039 C2040 1.523 . S
C2040 C2024 1.368 1_554 S
C2040 C2036 1.368 . S
C2040 C2039 1.523 . S
H2041 C2016 0.950 . S
H2042 C2018 0.950 . S
H2043 C2019 0.949 . S
H2044 C2021 0.950 . S
H2045 C2023 0.950 . S
C2046 C2047 1.349 . S
C2046 C2048 1.327 . S
C2046 H2071 0.950 . S
C2047 C2046 1.349 . S
C2047 C2063 1.349 1_554 S
C2048 C2046 1.327 . S
C2048 C2067 1.429 . S
C2048 H2072 0.950 . S
C2049 C2066 1.574 . S
C2049 C2068 1.368 1_556 S
C2049 H2073 0.949 . S
H2050 C2054 0.949 . S
C2051 C2052 1.349 1_556 S
C2051 C2053 1.327 . S
C2051 H2074 0.950 . S
C2052 C2051 1.349 1_554 S
C2052 C2064 1.349 . S
C2053 C2051 1.327 . S
C2053 C2069 1.429 1_556 S
C2053 H2075 0.950 . S
C2054 H2050 0.949 . S
C2054 C2062 1.574 . S
C2054 C2070 1.368 . S
H2055 C2063 0.950 . S
H2056 C2061 0.950 . S
H2057 C2062 0.949 . S
H2058 C2064 0.950 . S
H2059 C2065 0.950 . S
H2060 C2066 0.949 . S
C2061 H2056 0.950 . S
C2061 C2063 1.327 . S
C2061 C2067 1.429 1_556 S
C2062 C2054 1.574 . S
C2062 H2057 0.949 . S
C2062 C2068 1.368 . S
C2063 C2047 1.349 1_556 S
C2063 H2055 0.950 . S
C2063 C2061 1.327 . S
C2064 C2052 1.349 . S
C2064 H2058 0.950 . S
C2064 C2065 1.327 . S
C2065 H2059 0.950 . S
C2065 C2064 1.327 . S
C2065 C2069 1.429 . S
C2066 C2049 1.574 . S
C2066 H2060 0.949 . S
C2066 C2070 1.368 1_556 S
C2067 C2048 1.429 . S
C2067 C2061 1.429 1_554 S
C2067 C2068 1.523 . S
C2068 C2049 1.368 1_554 S
C2068 C2062 1.368 . S
C2068 C2067 1.523 . S
C2069 C2053 1.429 1_554 S
C2069 C2065 1.429 . S
C2069 C2070 1.523 . S
C2070 C2054 1.368 . S
C2070 C2066 1.368 1_554 S
C2070 C2069 1.523 . S
H2071 C2046 0.950 . S
H2072 C2048 0.950 . S
H2073 C2049 0.949 . S
H2074 C2051 0.950 . S
H2075 C2053 0.950 . S
C2076 C2077 1.349 1_556 S
C2076 C2078 1.327 . S
C2076 H2101 0.950 . S
C2077 C2076 1.349 1_554 S
C2077 C2093 1.349 . S
C2078 C2076 1.327 . S
C2078 C2097 1.429 1_556 S
C2078 H2102 0.950 . S
C2079 C2096 1.574 . S
C2079 C2098 1.368 . S
C2079 H2103 0.949 . S
H2080 C2084 0.949 . S
C2081 C2082 1.349 . S
C2081 C2083 1.327 . S
C2081 H2104 0.950 . S
C2082 C2081 1.349 . S
C2082 C2094 1.349 1_554 S
C2083 C2081 1.327 . S
C2083 C2099 1.429 . S
C2083 H2105 0.950 . S
C2084 H2080 0.949 . S
C2084 C2092 1.574 . S
C2084 C2100 1.368 1_556 S
H2085 C2093 0.950 . S
H2086 C2091 0.950 . S
H2087 C2092 0.949 . S
H2088 C2094 0.950 . S
H2089 C2095 0.950 . S
H2090 C2096 0.949 . S
C2091 H2086 0.950 . S
C2091 C2093 1.327 . S
C2091 C2097 1.429 . S
C2092 C2084 1.574 . S
C2092 H2087 0.949 . S
C2092 C2098 1.368 1_556 S
C2093 C2077 1.349 . S
C2093 H2085 0.950 . S
C2093 C2091 1.327 . S
C2094 C2082 1.349 1_556 S
C2094 H2088 0.950 . S
C2094 C2095 1.327 . S
C2095 H2089 0.950 . S
C2095 C2094 1.327 . S
C2095 C2099 1.429 1_556 S
C2096 C2079 1.574 . S
C2096 H2090 0.949 . S
C2096 C2100 1.368 . S
C2097 C2078 1.429 1_554 S
C2097 C2091 1.429 . S
C2097 C2098 1.523 . S
C2098 C2079 1.368 . S
C2098 C2092 1.368 1_554 S
C2098 C2097 1.523 . S
C2099 C2083 1.429 . S
C2099 C2095 1.429 1_554 S
C2099 C2100 1.523 . S
C2100 C2084 1.368 1_554 S
C2100 C2096 1.368 . S
C2100 C2099 1.523 . S
H2101 C2076 0.950 . S
H2102 C2078 0.950 . S
H2103 C2079 0.949 . S
H2104 C2081 0.950 . S
H2105 C2083 0.950 . S
C2106 C2107 1.349 1_556 S
C2106 C2108 1.327 . S
C2106 H2131 0.950 . S
C2107 C2106 1.349 1_554 S
C2107 C2123 1.349 . S
C2108 C2106 1.327 . S
C2108 C2127 1.429 1_556 S
C2108 H2132 0.950 . S
C2109 C2126 1.574 . S
C2109 C2128 1.368 . S
C2109 H2133 0.949 . S
H2110 C2114 0.949 . S
C2111 C2112 1.349 . S
C2111 C2113 1.327 . S
C2111 H2134 0.950 . S
C2112 C2111 1.349 . S
C2112 C2124 1.349 1_554 S
C2113 C2111 1.327 . S
C2113 C2129 1.429 . S
C2113 H2135 0.950 . S
C2114 H2110 0.949 . S
C2114 C2122 1.574 . S
C2114 C2130 1.368 1_556 S
H2115 C2123 0.950 . S
H2116 C2121 0.950 . S
H2117 C2122 0.949 . S
H2118 C2124 0.950 . S
H2119 C2125 0.950 . S
H2120 C2126 0.949 . S
C2121 H2116 0.950 . S
C2121 C2123 1.327 . S
C2121 C2127 1.429 . S
C2122 C2114 1.574 . S
C2122 H2117 0.949 . S
C2122 C2128 1.368 1_556 S
C2123 C2107 1.349 . S
C2123 H2115 0.950 . S
C2123 C2121 1.327 . S
C2124 C2112 1.349 1_556 S
C2124 H2118 0.950 . S
C2124 C2125 1.327 . S
C2125 H2119 0.950 . S
C2125 C2124 1.327 . S
C2125 C2129 1.429 1_556 S
C2126 C2109 1.574 . S
C2126 H2120 0.949 . S
C2126 C2130 1.368 . S
C2127 C2108 1.429 1_554 S
C2127 C2121 1.429 . S
C2127 C2128 1.523 . S
C2128 C2109 1.368 . S
C2128 C2122 1.368 1_554 S
C2128 C2127 1.523 . S
C2129 C2113 1.429 . S
C2129 C2125 1.429 1_554 S
C2129 C2130 1.523 . S
C2130 C2114 1.368 1_554 S
C2130 C2126 1.368 . S
C2130 C2129 1.523 . S
H2131 C2106 0.950 . S
H2132 C2108 0.950 . S
H2133 C2109 0.949 . S
H2134 C2111 0.950 . S
H2135 C2113 0.950 . S
C2136 C2137 1.349 . S
C2136 C2138 1.327 . S
C2136 H2161 0.950 . S
C2137 C2136 1.349 . S
C2137 C2153 1.349 1_554 S
C2138 C2136 1.327 . S
C2138 C2157 1.429 . S
C2138 H2162 0.950 . S
C2139 C2156 1.574 . S
C2139 C2158 1.368 1_556 S
C2139 H2163 0.949 . S
H2140 C2144 0.949 . S
C2141 C2142 1.349 1_556 S
C2141 C2143 1.327 . S
C2141 H2164 0.950 . S
C2142 C2141 1.349 1_554 S
C2142 C2154 1.349 . S
C2143 C2141 1.327 . S
C2143 C2159 1.429 1_556 S
C2143 H2165 0.950 . S
C2144 H2140 0.949 . S
C2144 C2152 1.574 . S
C2144 C2160 1.368 . S
H2145 C2153 0.950 . S
H2146 C2151 0.950 . S
H2147 C2152 0.949 . S
H2148 C2154 0.950 . S
H2149 C2155 0.950 . S
H2150 C2156 0.949 . S
C2151 H2146 0.950 . S
C2151 C2153 1.327 . S
C2151 C2157 1.429 1_556 S
C2152 C2144 1.574 . S
C2152 H2147 0.949 . S
C2152 C2158 1.368 . S
C2153 C2137 1.349 1_556 S
C2153 H2145 0.950 . S
C2153 C2151 1.327 . S
C2154 C2142 1.349 . S
C2154 H2148 0.950 . S
C2154 C2155 1.327 . S
C2155 H2149 0.950 . S
C2155 C2154 1.327 . S
C2155 C2159 1.429 . S
C2156 C2139 1.574 . S
C2156 H2150 0.949 . S
C2156 C2160 1.368 1_556 S
C2157 C2138 1.429 . S
C2157 C2151 1.429 1_554 S
C2157 C2158 1.523 . S
C2158 C2139 1.368 1_554 S
C2158 C2152 1.368 . S
C2158 C2157 1.523 . S
C2159 C2143 1.429 1_554 S
C2159 C2155 1.429 . S
C2159 C2160 1.523 . S
C2160 C2144 1.368 . S
C2160 C2156 1.368 1_554 S
C2160 C2159 1.523 . S
H2161 C2136 0.950 . S
H2162 C2138 0.950 . S
H2163 C2139 0.949 . S
H2164 C2141 0.950 . S
H2165 C2143 0.950 . S
C2166 C2167 1.349 . S
C2166 C2168 1.327 . S
C2166 H2191 0.950 . S
C2167 C2166 1.349 . S
C2167 C2183 1.349 1_554 S
C2168 C2166 1.327 . S
C2168 C2187 1.429 . S
C2168 H2192 0.950 . S
C2169 C2186 1.574 . S
C2169 C2188 1.368 1_556 S
C2169 H2193 0.949 . S
H2170 C2174 0.949 . S
C2171 C2172 1.349 1_556 S
C2171 C2173 1.327 . S
C2171 H2194 0.950 . S
C2172 C2171 1.349 1_554 S
C2172 C2184 1.349 . S
C2173 C2171 1.327 . S
C2173 C2189 1.429 1_556 S
C2173 H2195 0.950 . S
C2174 H2170 0.949 . S
C2174 C2182 1.574 . S
C2174 C2190 1.368 . S
H2175 C2183 0.950 . S
H2176 C2181 0.950 . S
H2177 C2182 0.949 . S
H2178 C2184 0.950 . S
H2179 C2185 0.950 . S
H2180 C2186 0.949 . S
C2181 H2176 0.950 . S
C2181 C2183 1.327 . S
C2181 C2187 1.429 1_556 S
C2182 C2174 1.574 . S
C2182 H2177 0.949 . S
C2182 C2188 1.368 . S
C2183 C2167 1.349 1_556 S
C2183 H2175 0.950 . S
C2183 C2181 1.327 . S
C2184 C2172 1.349 . S
C2184 H2178 0.950 . S
C2184 C2185 1.327 . S
C2185 H2179 0.950 . S
C2185 C2184 1.327 . S
C2185 C2189 1.429 . S
C2186 C2169 1.574 . S
C2186 H2180 0.949 . S
C2186 C2190 1.368 1_556 S
C2187 C2168 1.429 . S
C2187 C2181 1.429 1_554 S
C2187 C2188 1.523 . S
C2188 C2169 1.368 1_554 S
C2188 C2182 1.368 . S
C2188 C2187 1.523 . S
C2189 C2173 1.429 1_554 S
C2189 C2185 1.429 . S
C2189 C2190 1.523 . S
C2190 C2174 1.368 . S
C2190 C2186 1.368 1_554 S
C2190 C2189 1.523 . S
H2191 C2166 0.950 . S
H2192 C2168 0.950 . S
H2193 C2169 0.949 . S
H2194 C2171 0.950 . S
H2195 C2173 0.950 . S
C2196 C2197 1.349 . S
C2196 C2198 1.327 . S
C2196 H2221 0.950 . S
C2197 C2196 1.349 . S
C2197 C2213 1.349 . S
C2198 C2196 1.327 . S
C2198 C2217 1.429 . S
C2198 H2222 0.950 . S
C2199 C2216 1.574 . S
C2199 C2218 1.368 . S
C2199 H2223 0.949 . S
H2200 C2204 0.949 . S
C2201 C2202 1.349 . S
C2201 C2203 1.327 . S
C2201 H2224 0.950 . S
C2202 C2201 1.349 . S
C2202 C2214 1.349 . S
C2203 C2201 1.327 . S
C2203 C2219 1.429 . S
C2203 H2225 0.950 . S
C2204 H2200 0.949 . S
C2204 C2212 1.574 . S
C2204 C2220 1.368 . S
H2205 C2213 0.950 . S
H2206 C2211 0.950 . S
H2207 C2212 0.949 . S
H2208 C2214 0.950 . S
H2209 C2215 0.950 . S
H2210 C2216 0.949 . S
C2211 H2206 0.950 . S
C2211 C2213 1.327 . S
C2211 C2217 1.429 . S
C2212 C2204 1.574 . S
C2212 H2207 0.949 . S
C2212 C2218 1.368 . S
C2213 C2197 1.349 . S
C2213 H2205 0.950 . S
C2213 C2211 1.327 . S
C2214 C2202 1.349 . S
C2214 H2208 0.950 . S
C2214 C2215 1.327 . S
C2215 H2209 0.950 . S
C2215 C2214 1.327 . S
C2215 C2219 1.429 . S
C2216 C2199 1.574 . S
C2216 H2210 0.949 . S
C2216 C2220 1.368 . S
C2217 C2198 1.429 . S
C2217 C2211 1.429 . S
C2217 C2218 1.523 . S
C2218 C2199 1.368 . S
C2218 C2212 1.368 . S
C2218 C2217 1.523 . S
C2219 C2203 1.429 . S
C2219 C2215 1.429 . S
C2219 C2220 1.523 . S
C2220 C2204 1.368 . S
C2220 C2216 1.368 . S
C2220 C2219 1.523 . S
H2221 C2196 0.950 . S
H2222 C2198 0.950 . S
H2223 C2199 0.949 . S
H2224 C2201 0.950 . S
H2225 C2203 0.950 . S
C2226 C2227 1.349 . S
C2226 C2228 1.327 . S
C2226 H2251 0.950 . S
C2227 C2226 1.349 . S
C2227 C2243 1.349 . S
C2228 C2226 1.327 . S
C2228 C2247 1.429 . S
C2228 H2252 0.950 . S
C2229 C2246 1.574 . S
C2229 C2248 1.368 . S
C2229 H2253 0.949 . S
H2230 C2234 0.949 . S
C2231 C2232 1.349 . S
C2231 C2233 1.327 . S
C2231 H2254 0.950 . S
C2232 C2231 1.349 . S
C2232 C2244 1.349 . S
C2233 C2231 1.327 . S
C2233 C2249 1.429 . S
C2233 H2255 0.950 . S
C2234 H2230 0.949 . S
C2234 C2242 1.574 . S
C2234 C2250 1.368 . S
H2235 C2243 0.950 . S
H2236 C2241 0.950 . S
H2237 C2242 0.949 . S
H2238 C2244 0.950 . S
H2239 C2245 0.950 . S
H2240 C2246 0.949 . S
C2241 H2236 0.950 . S
C2241 C2243 1.327 . S
C2241 C2247 1.429 . S
C2242 C2234 1.574 . S
C2242 H2237 0.949 . S
C2242 C2248 1.368 . S
C2243 C2227 1.349 . S
C2243 H2235 0.950 . S
C2243 C2241 1.327 . S
C2244 C2232 1.349 . S
C2244 H2238 0.950 . S
C2244 C2245 1.327 . S
C2245 H2239 0.950 . S
C2245 C2244 1.327 . S
C2245 C2249 1.429 . S
C2246 C2229 1.574 . S
C2246 H2240 0.949 . S
C2246 C2250 1.368 . S
C2247 C2228 1.429 . S
C2247 C2241 1.429 . S
C2247 C2248 1.523 . S
C2248 C2229 1.368 . S
C2248 C2242 1.368 . S
C2248 C2247 1.523 . S
C2249 C2233 1.429 . S
C2249 C2245 1.429 . S
C2249 C2250 1.523 . S
C2250 C2234 1.368 . S
C2250 C2246 1.368 . S
C2250 C2249 1.523 . S
H2251 C2226 0.950 . S
H2252 C2228 0.950 . S
H2253 C2229 0.949 . S
H2254 C2231 0.950 . S
H2255 C2233 0.950 . S
C2256 C2257 1.349 . S
C2256 C2258 1.327 . S
C2256 H2281 0.950 . S
C2257 C2256 1.349 . S
C2257 C2273 1.349 . S
C2258 C2256 1.327 . S
C2258 C2277 1.429 . S
C2258 H2282 0.950 . S
C2259 C2276 1.574 . S
C2259 C2278 1.368 . S
C2259 H2283 0.949 . S
H2260 C2264 0.949 . S
C2261 C2262 1.349 . S
C2261 C2263 1.327 . S
C2261 H2284 0.950 . S
C2262 C2261 1.349 . S
C2262 C2274 1.349 . S
C2263 C2261 1.327 . S
C2263 C2279 1.429 . S
C2263 H2285 0.950 . S
C2264 H2260 0.949 . S
C2264 C2272 1.574 . S
C2264 C2280 1.368 . S
H2265 C2273 0.950 . S
H2266 C2271 0.950 . S
H2267 C2272 0.949 . S
H2268 C2274 0.950 . S
H2269 C2275 0.950 . S
H2270 C2276 0.949 . S
C2271 H2266 0.950 . S
C2271 C2273 1.327 . S
C2271 C2277 1.429 . S
C2272 C2264 1.574 . S
C2272 H2267 0.949 . S
C2272 C2278 1.368 . S
C2273 C2257 1.349 . S
C2273 H2265 0.950 . S
C2273 C2271 1.327 . S
C2274 C2262 1.349 . S
C2274 H2268 0.950 . S
C2274 C2275 1.327 . S
C2275 H2269 0.950 . S
C2275 C2274 1.327 . S
C2275 C2279 1.429 . S
C2276 C2259 1.574 . S
C2276 H2270 0.949 . S
C2276 C2280 1.368 . S
C2277 C2258 1.429 . S
C2277 C2271 1.429 . S
C2277 C2278 1.523 . S
C2278 C2259 1.368 . S
C2278 C2272 1.368 . S
C2278 C2277 1.523 . S
C2279 C2263 1.429 . S
C2279 C2275 1.429 . S
C2279 C2280 1.523 . S
C2280 C2264 1.368 . S
C2280 C2276 1.368 . S
C2280 C2279 1.523 . S
H2281 C2256 0.950 . S
H2282 C2258 0.950 . S
H2283 C2259 0.949 . S
H2284 C2261 0.950 . S
H2285 C2263 0.950 . S
C2286 C2287 1.349 . S
C2286 C2288 1.327 . S
C2286 H2311 0.950 . S
C2287 C2286 1.349 . S
C2287 C2303 1.349 . S
C2288 C2286 1.327 . S
C2288 C2307 1.429 . S
C2288 H2312 0.950 . S
C2289 C2306 1.574 . S
C2289 C2308 1.368 . S
C2289 H2313 0.949 . S
H2290 C2294 0.949 . S
C2291 C2292 1.349 . S
C2291 C2293 1.327 . S
C2291 H2314 0.950 . S
C2292 C2291 1.349 . S
C2292 C2304 1.349 . S
C2293 C2291 1.327 . S
C2293 C2309 1.429 . S
C2293 H2315 0.950 . S
C2294 H2290 0.949 . S
C2294 C2302 1.574 . S
C2294 C2310 1.368 . S
H2295 C2303 0.950 . S
H2296 C2301 0.950 . S
H2297 C2302 0.949 . S
H2298 C2304 0.950 . S
H2299 C2305 0.950 . S
H2300 C2306 0.949 . S
C2301 H2296 0.950 . S
C2301 C2303 1.327 . S
C2301 C2307 1.429 . S
C2302 C2294 1.574 . S
C2302 H2297 0.949 . S
C2302 C2308 1.368 . S
C2303 C2287 1.349 . S
C2303 H2295 0.950 . S
C2303 C2301 1.327 . S
C2304 C2292 1.349 . S
C2304 H2298 0.950 . S
C2304 C2305 1.327 . S
C2305 H2299 0.950 . S
C2305 C2304 1.327 . S
C2305 C2309 1.429 . S
C2306 C2289 1.574 . S
C2306 H2300 0.949 . S
C2306 C2310 1.368 . S
C2307 C2288 1.429 . S
C2307 C2301 1.429 . S
C2307 C2308 1.523 . S
C2308 C2289 1.368 . S
C2308 C2302 1.368 . S
C2308 C2307 1.523 . S
C2309 C2293 1.429 . S
C2309 C2305 1.429 . S
C2309 C2310 1.523 . S
C2310 C2294 1.368 . S
C2310 C2306 1.368 . S
C2310 C2309 1.523 . S
H2311 C2286 0.950 . S
H2312 C2288 0.950 . S
H2313 C2289 0.949 . S
H2314 C2291 0.950 . S
H2315 C2293 0.950 . S
C2316 C2317 1.349 . S
C2316 C2318 1.327 . S
C2316 H2341 0.950 . S
C2317 C2316 1.349 . S
C2317 C2333 1.349 . S
C2318 C2316 1.327 . S
C2318 C2337 1.429 . S
C2318 H2342 0.950 . S
C2319 C2336 1.574 . S
C2319 C2338 1.368 . S
C2319 H2343 0.949 . S
H2320 C2324 0.949 . S
C2321 C2322 1.349 . S
C2321 C2323 1.327 . S
C2321 H2344 0.950 . S
C2322 C2321 1.349 . S
C2322 C2334 1.349 . S
C2323 C2321 1.327 . S
C2323 C2339 1.429 . S
C2323 H2345 0.950 . S
C2324 H2320 0.949 . S
C2324 C2332 1.574 . S
C2324 C2340 1.368 . S
H2325 C2333 0.950 . S
H2326 C2331 0.950 . S
H2327 C2332 0.949 . S
H2328 C2334 0.950 . S
H2329 C2335 0.950 . S
H2330 C2336 0.949 . S
C2331 H2326 0.950 . S
C2331 C2333 1.327 . S
C2331 C2337 1.429 . S
C2332 C2324 1.574 . S
C2332 H2327 0.949 . S
C2332 C2338 1.368 . S
C2333 C2317 1.349 . S
C2333 H2325 0.950 . S
C2333 C2331 1.327 . S
C2334 C2322 1.349 . S
C2334 H2328 0.950 . S
C2334 C2335 1.327 . S
C2335 H2329 0.950 . S
C2335 C2334 1.327 . S
C2335 C2339 1.429 . S
C2336 C2319 1.574 . S
C2336 H2330 0.949 . S
C2336 C2340 1.368 . S
C2337 C2318 1.429 . S
C2337 C2331 1.429 . S
C2337 C2338 1.523 . S
C2338 C2319 1.368 . S
C2338 C2332 1.368 . S
C2338 C2337 1.523 . S
C2339 C2323 1.429 . S
C2339 C2335 1.429 . S
C2339 C2340 1.523 . S
C2340 C2324 1.368 . S
C2340 C2336 1.368 . S
C2340 C2339 1.523 . S
H2341 C2316 0.950 . S
H2342 C2318 0.950 . S
H2343 C2319 0.949 . S
H2344 C2321 0.950 . S
H2345 C2323 0.950 . S
C2346 C2347 1.349 . S
C2346 C2348 1.327 . S
C2346 H2371 0.950 . S
C2347 C2346 1.349 . S
C2347 C2363 1.349 . S
C2348 C2346 1.327 . S
C2348 C2367 1.429 . S
C2348 H2372 0.950 . S
C2349 C2366 1.574 . S
C2349 C2368 1.368 . S
C2349 H2373 0.949 . S
H2350 C2354 0.949 . S
C2351 C2352 1.349 . S
C2351 C2353 1.327 . S
C2351 H2374 0.950 . S
C2352 C2351 1.349 . S
C2352 C2364 1.349 . S
C2353 C2351 1.327 . S
C2353 C2369 1.429 . S
C2353 H2375 0.950 . S
C2354 H2350 0.949 . S
C2354 C2362 1.574 . S
C2354 C2370 1.368 . S
H2355 C2363 0.950 . S
H2356 C2361 0.950 . S
H2357 C2362 0.949 . S
H2358 C2364 0.950 . S
H2359 C2365 0.950 . S
H2360 C2366 0.949 . S
C2361 H2356 0.950 . S
C2361 C2363 1.327 . S
C2361 C2367 1.429 . S
C2362 C2354 1.574 . S
C2362 H2357 0.949 . S
C2362 C2368 1.368 . S
C2363 C2347 1.349 . S
C2363 H2355 0.950 . S
C2363 C2361 1.327 . S
C2364 C2352 1.349 . S
C2364 H2358 0.950 . S
C2364 C2365 1.327 . S
C2365 H2359 0.950 . S
C2365 C2364 1.327 . S
C2365 C2369 1.429 . S
C2366 C2349 1.574 . S
C2366 H2360 0.949 . S
C2366 C2370 1.368 . S
C2367 C2348 1.429 . S
C2367 C2361 1.429 . S
C2367 C2368 1.523 . S
C2368 C2349 1.368 . S
C2368 C2362 1.368 . S
C2368 C2367 1.523 . S
C2369 C2353 1.429 . S
C2369 C2365 1.429 . S
C2369 C2370 1.523 . S
C2370 C2354 1.368 . S
C2370 C2366 1.368 . S
C2370 C2369 1.523 . S
H2371 C2346 0.950 . S
H2372 C2348 0.950 . S
H2373 C2349 0.949 . S
H2374 C2351 0.950 . S
H2375 C2353 0.950 . S
C2376 C2377 1.349 . S
C2376 C2378 1.327 . S
C2376 H2401 0.950 . S
C2377 C2376 1.349 . S
C2377 C2393 1.349 . S
C2378 C2376 1.327 . S
C2378 C2397 1.429 . S
C2378 H2402 0.950 . S
C2379 C2396 1.574 . S
C2379 C2398 1.368 . S
C2379 H2403 0.949 . S
H2380 C2384 0.949 . S
C2381 C2382 1.349 . S
C2381 C2383 1.327 . S
C2381 H2404 0.950 . S
C2382 C2381 1.349 . S
C2382 C2394 1.349 . S
C2383 C2381 1.327 . S
C2383 C2399 1.429 . S
C2383 H2405 0.950 . S
C2384 H2380 0.949 . S
C2384 C2392 1.574 . S
C2384 C2400 1.368 . S
H2385 C2393 0.950 . S
H2386 C2391 0.950 . S
H2387 C2392 0.949 . S
H2388 C2394 0.950 . S
H2389 C2395 0.950 . S
H2390 C2396 0.949 . S
C2391 H2386 0.950 . S
C2391 C2393 1.327 . S
C2391 C2397 1.429 . S
C2392 C2384 1.574 . S
C2392 H2387 0.949 . S
C2392 C2398 1.368 . S
C2393 C2377 1.349 . S
C2393 H2385 0.950 . S
C2393 C2391 1.327 . S
C2394 C2382 1.349 . S
C2394 H2388 0.950 . S
C2394 C2395 1.327 . S
C2395 H2389 0.950 . S
C2395 C2394 1.327 . S
C2395 C2399 1.429 . S
C2396 C2379 1.574 . S
C2396 H2390 0.949 . S
C2396 C2400 1.368 . S
C2397 C2378 1.429 . S
C2397 C2391 1.429 . S
C2397 C2398 1.523 . S
C2398 C2379 1.368 . S
C2398 C2392 1.368 . S
C2398 C2397 1.523 . S
C2399 C2383 1.429 . S
C2399 C2395 1.429 . S
C2399 C2400 1.523 . S
C2400 C2384 1.368 . S
C2400 C2396 1.368 . S
C2400 C2399 1.523 . S
H2401 C2376 0.950 . S
H2402 C2378 0.950 . S
H2403 C2379 0.949 . S
H2404 C2381 0.950 . S
H2405 C2383 0.950 . S
C2406 C2407 1.349 . S
C2406 C2408 1.327 . S
C2406 H2431 0.950 . S
C2407 C2406 1.349 . S
C2407 C2423 1.349 . S
C2408 C2406 1.327 . S
C2408 C2427 1.429 . S
C2408 H2432 0.950 . S
C2409 C2426 1.574 . S
C2409 C2428 1.368 . S
C2409 H2433 0.949 . S
H2410 C2414 0.949 . S
C2411 C2412 1.349 . S
C2411 C2413 1.327 . S
C2411 H2434 0.950 . S
C2412 C2411 1.349 . S
C2412 C2424 1.349 . S
C2413 C2411 1.327 . S
C2413 C2429 1.429 . S
C2413 H2435 0.950 . S
C2414 H2410 0.949 . S
C2414 C2422 1.574 . S
C2414 C2430 1.368 . S
H2415 C2423 0.950 . S
H2416 C2421 0.950 . S
H2417 C2422 0.949 . S
H2418 C2424 0.950 . S
H2419 C2425 0.950 . S
H2420 C2426 0.949 . S
C2421 H2416 0.950 . S
C2421 C2423 1.327 . S
C2421 C2427 1.429 . S
C2422 C2414 1.574 . S
C2422 H2417 0.949 . S
C2422 C2428 1.368 . S
C2423 C2407 1.349 . S
C2423 H2415 0.950 . S
C2423 C2421 1.327 . S
C2424 C2412 1.349 . S
C2424 H2418 0.950 . S
C2424 C2425 1.327 . S
C2425 H2419 0.950 . S
C2425 C2424 1.327 . S
C2425 C2429 1.429 . S
C2426 C2409 1.574 . S
C2426 H2420 0.949 . S
C2426 C2430 1.368 . S
C2427 C2408 1.429 . S
C2427 C2421 1.429 . S
C2427 C2428 1.523 . S
C2428 C2409 1.368 . S
C2428 C2422 1.368 . S
C2428 C2427 1.523 . S
C2429 C2413 1.429 . S
C2429 C2425 1.429 . S
C2429 C2430 1.523 . S
C2430 C2414 1.368 . S
C2430 C2426 1.368 . S
C2430 C2429 1.523 . S
H2431 C2406 0.950 . S
H2432 C2408 0.950 . S
H2433 C2409 0.949 . S
H2434 C2411 0.950 . S
H2435 C2413 0.950 . S
C2436 C2437 1.349 . S
C2436 C2438 1.327 . S
C2436 H2461 0.950 . S
C2437 C2436 1.349 . S
C2437 C2453 1.349 . S
C2438 C2436 1.327 . S
C2438 C2457 1.429 . S
C2438 H2462 0.950 . S
C2439 C2456 1.574 . S
C2439 C2458 1.368 . S
C2439 H2463 0.949 . S
H2440 C2444 0.949 . S
C2441 C2442 1.349 . S
C2441 C2443 1.327 . S
C2441 H2464 0.950 . S
C2442 C2441 1.349 . S
C2442 C2454 1.349 . S
C2443 C2441 1.327 . S
C2443 C2459 1.429 . S
C2443 H2465 0.950 . S
C2444 H2440 0.949 . S
C2444 C2452 1.574 . S
C2444 C2460 1.368 . S
H2445 C2453 0.950 . S
H2446 C2451 0.950 . S
H2447 C2452 0.949 . S
H2448 C2454 0.950 . S
H2449 C2455 0.950 . S
H2450 C2456 0.949 . S
C2451 H2446 0.950 . S
C2451 C2453 1.327 . S
C2451 C2457 1.429 . S
C2452 C2444 1.574 . S
C2452 H2447 0.949 . S
C2452 C2458 1.368 . S
C2453 C2437 1.349 . S
C2453 H2445 0.950 . S
C2453 C2451 1.327 . S
C2454 C2442 1.349 . S
C2454 H2448 0.950 . S
C2454 C2455 1.327 . S
C2455 H2449 0.950 . S
C2455 C2454 1.327 . S
C2455 C2459 1.429 . S
C2456 C2439 1.574 . S
C2456 H2450 0.949 . S
C2456 C2460 1.368 . S
C2457 C2438 1.429 . S
C2457 C2451 1.429 . S
C2457 C2458 1.523 . S
C2458 C2439 1.368 . S
C2458 C2452 1.368 . S
C2458 C2457 1.523 . S
C2459 C2443 1.429 . S
C2459 C2455 1.429 . S
C2459 C2460 1.523 . S
C2460 C2444 1.368 . S
C2460 C2456 1.368 . S
C2460 C2459 1.523 . S
H2461 C2436 0.950 . S
H2462 C2438 0.950 . S
H2463 C2439 0.949 . S
H2464 C2441 0.950 . S
H2465 C2443 0.950 . S
C2466 C2467 1.349 . S
C2466 C2468 1.327 . S
C2466 H2491 0.950 . S
C2467 C2466 1.349 . S
C2467 C2483 1.349 . S
C2468 C2466 1.327 . S
C2468 C2487 1.429 . S
C2468 H2492 0.950 . S
C2469 C2486 1.574 . S
C2469 C2488 1.368 . S
C2469 H2493 0.949 . S
H2470 C2474 0.949 . S
C2471 C2472 1.349 . S
C2471 C2473 1.327 . S
C2471 H2494 0.950 . S
C2472 C2471 1.349 . S
C2472 C2484 1.349 . S
C2473 C2471 1.327 . S
C2473 C2489 1.429 . S
C2473 H2495 0.950 . S
C2474 H2470 0.949 . S
C2474 C2482 1.574 . S
C2474 C2490 1.368 . S
H2475 C2483 0.950 . S
H2476 C2481 0.950 . S
H2477 C2482 0.949 . S
H2478 C2484 0.950 . S
H2479 C2485 0.950 . S
H2480 C2486 0.949 . S
C2481 H2476 0.950 . S
C2481 C2483 1.327 . S
C2481 C2487 1.429 . S
C2482 C2474 1.574 . S
C2482 H2477 0.949 . S
C2482 C2488 1.368 . S
C2483 C2467 1.349 . S
C2483 H2475 0.950 . S
C2483 C2481 1.327 . S
C2484 C2472 1.349 . S
C2484 H2478 0.950 . S
C2484 C2485 1.327 . S
C2485 H2479 0.950 . S
C2485 C2484 1.327 . S
C2485 C2489 1.429 . S
C2486 C2469 1.574 . S
C2486 H2480 0.949 . S
C2486 C2490 1.368 . S
C2487 C2468 1.429 . S
C2487 C2481 1.429 . S
C2487 C2488 1.523 . S
C2488 C2469 1.368 . S
C2488 C2482 1.368 . S
C2488 C2487 1.523 . S
C2489 C2473 1.429 . S
C2489 C2485 1.429 . S
C2489 C2490 1.523 . S
C2490 C2474 1.368 . S
C2490 C2486 1.368 . S
C2490 C2489 1.523 . S
H2491 C2466 0.950 . S
H2492 C2468 0.950 . S
H2493 C2469 0.949 . S
H2494 C2471 0.950 . S
H2495 C2473 0.950 . S
C2496 C2497 1.349 . S
C2496 C2498 1.327 . S
C2496 H2521 0.950 . S
C2497 C2496 1.349 . S
C2497 C2513 1.349 . S
C2498 C2496 1.327 . S
C2498 C2517 1.429 . S
C2498 H2522 0.950 . S
C2499 C2516 1.574 . S
C2499 C2518 1.368 . S
C2499 H2523 0.949 . S
H2500 C2504 0.949 . S
C2501 C2502 1.349 . S
C2501 C2503 1.327 . S
C2501 H2524 0.950 . S
C2502 C2501 1.349 . S
C2502 C2514 1.349 . S
C2503 C2501 1.327 . S
C2503 C2519 1.429 . S
C2503 H2525 0.950 . S
C2504 H2500 0.949 . S
C2504 C2512 1.574 . S
C2504 C2520 1.368 . S
H2505 C2513 0.950 . S
H2506 C2511 0.950 . S
H2507 C2512 0.949 . S
H2508 C2514 0.950 . S
H2509 C2515 0.950 . S
H2510 C2516 0.949 . S
C2511 H2506 0.950 . S
C2511 C2513 1.327 . S
C2511 C2517 1.429 . S
C2512 C2504 1.574 . S
C2512 H2507 0.949 . S
C2512 C2518 1.368 . S
C2513 C2497 1.349 . S
C2513 H2505 0.950 . S
C2513 C2511 1.327 . S
C2514 C2502 1.349 . S
C2514 H2508 0.950 . S
C2514 C2515 1.327 . S
C2515 H2509 0.950 . S
C2515 C2514 1.327 . S
C2515 C2519 1.429 . S
C2516 C2499 1.574 . S
C2516 H2510 0.949 . S
C2516 C2520 1.368 . S
C2517 C2498 1.429 . S
C2517 C2511 1.429 . S
C2517 C2518 1.523 . S
C2518 C2499 1.368 . S
C2518 C2512 1.368 . S
C2518 C2517 1.523 . S
C2519 C2503 1.429 . S
C2519 C2515 1.429 . S
C2519 C2520 1.523 . S
C2520 C2504 1.368 . S
C2520 C2516 1.368 . S
C2520 C2519 1.523 . S
H2521 C2496 0.950 . S
H2522 C2498 0.950 . S
H2523 C2499 0.949 . S
H2524 C2501 0.950 . S
H2525 C2503 0.950 . S
C2526 C2527 1.349 . S
C2526 C2528 1.327 . S
C2526 H2551 0.950 . S
C2527 C2526 1.349 . S
C2527 C2543 1.349 . S
C2528 C2526 1.327 . S
C2528 C2547 1.429 . S
C2528 H2552 0.950 . S
C2529 C2546 1.574 . S
C2529 C2548 1.368 . S
C2529 H2553 0.949 . S
H2530 C2534 0.949 . S
C2531 C2532 1.349 . S
C2531 C2533 1.327 . S
C2531 H2554 0.950 . S
C2532 C2531 1.349 . S
C2532 C2544 1.349 . S
C2533 C2531 1.327 . S
C2533 C2549 1.429 . S
C2533 H2555 0.950 . S
C2534 H2530 0.949 . S
C2534 C2542 1.574 . S
C2534 C2550 1.368 . S
H2535 C2543 0.950 . S
H2536 C2541 0.950 . S
H2537 C2542 0.949 . S
H2538 C2544 0.950 . S
H2539 C2545 0.950 . S
H2540 C2546 0.949 . S
C2541 H2536 0.950 . S
C2541 C2543 1.327 . S
C2541 C2547 1.429 . S
C2542 C2534 1.574 . S
C2542 H2537 0.949 . S
C2542 C2548 1.368 . S
C2543 C2527 1.349 . S
C2543 H2535 0.950 . S
C2543 C2541 1.327 . S
C2544 C2532 1.349 . S
C2544 H2538 0.950 . S
C2544 C2545 1.327 . S
C2545 H2539 0.950 . S
C2545 C2544 1.327 . S
C2545 C2549 1.429 . S
C2546 C2529 1.574 . S
C2546 H2540 0.949 . S
C2546 C2550 1.368 . S
C2547 C2528 1.429 . S
C2547 C2541 1.429 . S
C2547 C2548 1.523 . S
C2548 C2529 1.368 . S
C2548 C2542 1.368 . S
C2548 C2547 1.523 . S
C2549 C2533 1.429 . S
C2549 C2545 1.429 . S
C2549 C2550 1.523 . S
C2550 C2534 1.368 . S
C2550 C2546 1.368 . S
C2550 C2549 1.523 . S
H2551 C2526 0.950 . S
H2552 C2528 0.950 . S
H2553 C2529 0.949 . S
H2554 C2531 0.950 . S
H2555 C2533 0.950 . S
C2556 C2557 1.349 . S
C2556 C2558 1.327 . S
C2556 H2581 0.950 . S
C2557 C2556 1.349 . S
C2557 C2573 1.349 . S
C2558 C2556 1.327 . S
C2558 C2577 1.429 . S
C2558 H2582 0.950 . S
C2559 C2576 1.574 . S
C2559 C2578 1.368 . S
C2559 H2583 0.949 . S
H2560 C2564 0.949 . S
C2561 C2562 1.349 . S
C2561 C2563 1.327 . S
C2561 H2584 0.950 . S
C2562 C2561 1.349 . S
C2562 C2574 1.349 . S
C2563 C2561 1.327 . S
C2563 C2579 1.429 . S
C2563 H2585 0.950 . S
C2564 H2560 0.949 . S
C2564 C2572 1.574 . S
C2564 C2580 1.368 . S
H2565 C2573 0.950 . S
H2566 C2571 0.950 . S
H2567 C2572 0.949 . S
H2568 C2574 0.950 . S
H2569 C2575 0.950 . S
H2570 C2576 0.949 . S
C2571 H2566 0.950 . S
C2571 C2573 1.327 . S
C2571 C2577 1.429 . S
C2572 C2564 1.574 . S
C2572 H2567 0.949 . S
C2572 C2578 1.368 . S
C2573 C2557 1.349 . S
C2573 H2565 0.950 . S
C2573 C2571 1.327 . S
C2574 C2562 1.349 . S
C2574 H2568 0.950 . S
C2574 C2575 1.327 . S
C2575 H2569 0.950 . S
C2575 C2574 1.327 . S
C2575 C2579 1.429 . S
C2576 C2559 1.574 . S
C2576 H2570 0.949 . S
C2576 C2580 1.368 . S
C2577 C2558 1.429 . S
C2577 C2571 1.429 . S
C2577 C2578 1.523 . S
C2578 C2559 1.368 . S
C2578 C2572 1.368 . S
C2578 C2577 1.523 . S
C2579 C2563 1.429 . S
C2579 C2575 1.429 . S
C2579 C2580 1.523 . S
C2580 C2564 1.368 . S
C2580 C2576 1.368 . S
C2580 C2579 1.523 . S
H2581 C2556 0.950 . S
H2582 C2558 0.950 . S
H2583 C2559 0.949 . S
H2584 C2561 0.950 . S
H2585 C2563 0.950 . S
C2586 C2587 1.349 . S
C2586 C2588 1.327 . S
C2586 H2611 0.950 . S
C2587 C2586 1.349 . S
C2587 C2603 1.349 . S
C2588 C2586 1.327 . S
C2588 C2607 1.429 . S
C2588 H2612 0.950 . S
C2589 C2606 1.574 . S
C2589 C2608 1.368 . S
C2589 H2613 0.949 . S
H2590 C2594 0.949 . S
C2591 C2592 1.349 . S
C2591 C2593 1.327 . S
C2591 H2614 0.950 . S
C2592 C2591 1.349 . S
C2592 C2604 1.349 . S
C2593 C2591 1.327 . S
C2593 C2609 1.429 . S
C2593 H2615 0.950 . S
C2594 H2590 0.949 . S
C2594 C2602 1.574 . S
C2594 C2610 1.368 . S
H2595 C2603 0.950 . S
H2596 C2601 0.950 . S
H2597 C2602 0.949 . S
H2598 C2604 0.950 . S
H2599 C2605 0.950 . S
H2600 C2606 0.949 . S
C2601 H2596 0.950 . S
C2601 C2603 1.327 . S
C2601 C2607 1.429 . S
C2602 C2594 1.574 . S
C2602 H2597 0.949 . S
C2602 C2608 1.368 . S
C2603 C2587 1.349 . S
C2603 H2595 0.950 . S
C2603 C2601 1.327 . S
C2604 C2592 1.349 . S
C2604 H2598 0.950 . S
C2604 C2605 1.327 . S
C2605 H2599 0.950 . S
C2605 C2604 1.327 . S
C2605 C2609 1.429 . S
C2606 C2589 1.574 . S
C2606 H2600 0.949 . S
C2606 C2610 1.368 . S
C2607 C2588 1.429 . S
C2607 C2601 1.429 . S
C2607 C2608 1.523 . S
C2608 C2589 1.368 . S
C2608 C2602 1.368 . S
C2608 C2607 1.523 . S
C2609 C2593 1.429 . S
C2609 C2605 1.429 . S
C2609 C2610 1.523 . S
C2610 C2594 1.368 . S
C2610 C2606 1.368 . S
C2610 C2609 1.523 . S
H2611 C2586 0.950 . S
H2612 C2588 0.950 . S
H2613 C2589 0.949 . S
H2614 C2591 0.950 . S
H2615 C2593 0.950 . S
C2616 C2617 1.349 . S
C2616 C2618 1.327 . S
C2616 H2641 0.950 . S
C2617 C2616 1.349 . S
C2617 C2633 1.349 . S
C2618 C2616 1.327 . S
C2618 C2637 1.429 . S
C2618 H2642 0.950 . S
C2619 C2636 1.574 . S
C2619 C2638 1.368 . S
C2619 H2643 0.949 . S
H2620 C2624 0.949 . S
C2621 C2622 1.349 . S
C2621 C2623 1.327 . S
C2621 H2644 0.950 . S
C2622 C2621 1.349 . S
C2622 C2634 1.349 . S
C2623 C2621 1.327 . S
C2623 C2639 1.429 . S
C2623 H2645 0.950 . S
C2624 H2620 0.949 . S
C2624 C2632 1.574 . S
C2624 C2640 1.368 . S
H2625 C2633 0.950 . S
H2626 C2631 0.950 . S
H2627 C2632 0.949 . S
H2628 C2634 0.950 . S
H2629 C2635 0.950 . S
H2630 C2636 0.949 . S
C2631 H2626 0.950 . S
C2631 C2633 1.327 . S
C2631 C2637 1.429 . S
C2632 C2624 1.574 . S
C2632 H2627 0.949 . S
C2632 C2638 1.368 . S
C2633 C2617 1.349 . S
C2633 H2625 0.950 . S
C2633 C2631 1.327 . S
C2634 C2622 1.349 . S
C2634 H2628 0.950 . S
C2634 C2635 1.327 . S
C2635 H2629 0.950 . S
C2635 C2634 1.327 . S
C2635 C2639 1.429 . S
C2636 C2619 1.574 . S
C2636 H2630 0.949 . S
C2636 C2640 1.368 . S
C2637 C2618 1.429 . S
C2637 C2631 1.429 . S
C2637 C2638 1.523 . S
C2638 C2619 1.368 . S
C2638 C2632 1.368 . S
C2638 C2637 1.523 . S
C2639 C2623 1.429 . S
C2639 C2635 1.429 . S
C2639 C2640 1.523 . S
C2640 C2624 1.368 . S
C2640 C2636 1.368 . S
C2640 C2639 1.523 . S
H2641 C2616 0.950 . S
H2642 C2618 0.950 . S
H2643 C2619 0.949 . S
H2644 C2621 0.950 . S
H2645 C2623 0.950 . S
C2646 C2647 1.349 . S
C2646 C2648 1.327 . S
C2646 H2671 0.950 . S
C2647 C2646 1.349 . S
C2647 C2663 1.349 . S
C2648 C2646 1.327 . S
C2648 C2667 1.429 . S
C2648 H2672 0.950 . S
C2649 C2666 1.574 . S
C2649 C2668 1.368 . S
C2649 H2673 0.949 . S
H2650 C2654 0.949 . S
C2651 C2652 1.349 . S
C2651 C2653 1.327 . S
C2651 H2674 0.950 . S
C2652 C2651 1.349 . S
C2652 C2664 1.349 . S
C2653 C2651 1.327 . S
C2653 C2669 1.429 . S
C2653 H2675 0.950 . S
C2654 H2650 0.949 . S
C2654 C2662 1.574 . S
C2654 C2670 1.368 . S
H2655 C2663 0.950 . S
H2656 C2661 0.950 . S
H2657 C2662 0.949 . S
H2658 C2664 0.950 . S
H2659 C2665 0.950 . S
H2660 C2666 0.949 . S
C2661 H2656 0.950 . S
C2661 C2663 1.327 . S
C2661 C2667 1.429 . S
C2662 C2654 1.574 . S
C2662 H2657 0.949 . S
C2662 C2668 1.368 . S
C2663 C2647 1.349 . S
C2663 H2655 0.950 . S
C2663 C2661 1.327 . S
C2664 C2652 1.349 . S
C2664 H2658 0.950 . S
C2664 C2665 1.327 . S
C2665 H2659 0.950 . S
C2665 C2664 1.327 . S
C2665 C2669 1.429 . S
C2666 C2649 1.574 . S
C2666 H2660 0.949 . S
C2666 C2670 1.368 . S
C2667 C2648 1.429 . S
C2667 C2661 1.429 . S
C2667 C2668 1.523 . S
C2668 C2649 1.368 . S
C2668 C2662 1.368 . S
C2668 C2667 1.523 . S
C2669 C2653 1.429 . S
C2669 C2665 1.429 . S
C2669 C2670 1.523 . S
C2670 C2654 1.368 . S
C2670 C2666 1.368 . S
C2670 C2669 1.523 . S
H2671 C2646 0.950 . S
H2672 C2648 0.950 . S
H2673 C2649 0.949 . S
H2674 C2651 0.950 . S
H2675 C2653 0.950 . S
C2676 C2677 1.349 . S
C2676 C2678 1.327 . S
C2676 H2701 0.950 . S
C2677 C2676 1.349 . S
C2677 C2693 1.349 . S
C2678 C2676 1.327 . S
C2678 C2697 1.429 . S
C2678 H2702 0.950 . S
C2679 C2696 1.574 . S
C2679 C2698 1.368 . S
C2679 H2703 0.949 . S
H2680 C2684 0.949 . S
C2681 C2682 1.349 . S
C2681 C2683 1.327 . S
C2681 H2704 0.950 . S
C2682 C2681 1.349 . S
C2682 C2694 1.349 . S
C2683 C2681 1.327 . S
C2683 C2699 1.429 . S
C2683 H2705 0.950 . S
C2684 H2680 0.949 . S
C2684 C2692 1.574 . S
C2684 C2700 1.368 . S
H2685 C2693 0.950 . S
H2686 C2691 0.950 . S
H2687 C2692 0.949 . S
H2688 C2694 0.950 . S
H2689 C2695 0.950 . S
H2690 C2696 0.949 . S
C2691 H2686 0.950 . S
C2691 C2693 1.327 . S
C2691 C2697 1.429 . S
C2692 C2684 1.574 . S
C2692 H2687 0.949 . S
C2692 C2698 1.368 . S
C2693 C2677 1.349 . S
C2693 H2685 0.950 . S
C2693 C2691 1.327 . S
C2694 C2682 1.349 . S
C2694 H2688 0.950 . S
C2694 C2695 1.327 . S
C2695 H2689 0.950 . S
C2695 C2694 1.327 . S
C2695 C2699 1.429 . S
C2696 C2679 1.574 . S
C2696 H2690 0.949 . S
C2696 C2700 1.368 . S
C2697 C2678 1.429 . S
C2697 C2691 1.429 . S
C2697 C2698 1.523 . S
C2698 C2679 1.368 . S
C2698 C2692 1.368 . S
C2698 C2697 1.523 . S
C2699 C2683 1.429 . S
C2699 C2695 1.429 . S
C2699 C2700 1.523 . S
C2700 C2684 1.368 . S
C2700 C2696 1.368 . S
C2700 C2699 1.523 . S
H2701 C2676 0.950 . S
H2702 C2678 0.950 . S
H2703 C2679 0.949 . S
H2704 C2681 0.950 . S
H2705 C2683 0.950 . S
C2706 C2707 1.349 . S
C2706 C2708 1.327 . S
C2706 H2731 0.950 . S
C2707 C2706 1.349 . S
C2707 C2723 1.349 . S
C2708 C2706 1.327 . S
C2708 C2727 1.429 . S
C2708 H2732 0.950 . S
C2709 C2726 1.574 . S
C2709 C2728 1.368 . S
C2709 H2733 0.949 . S
H2710 C2714 0.949 . S
C2711 C2712 1.349 . S
C2711 C2713 1.327 . S
C2711 H2734 0.950 . S
C2712 C2711 1.349 . S
C2712 C2724 1.349 . S
C2713 C2711 1.327 . S
C2713 C2729 1.429 . S
C2713 H2735 0.950 . S
C2714 H2710 0.949 . S
C2714 C2722 1.574 . S
C2714 C2730 1.368 . S
H2715 C2723 0.950 . S
H2716 C2721 0.950 . S
H2717 C2722 0.949 . S
H2718 C2724 0.950 . S
H2719 C2725 0.950 . S
H2720 C2726 0.949 . S
C2721 H2716 0.950 . S
C2721 C2723 1.327 . S
C2721 C2727 1.429 . S
C2722 C2714 1.574 . S
C2722 H2717 0.949 . S
C2722 C2728 1.368 . S
C2723 C2707 1.349 . S
C2723 H2715 0.950 . S
C2723 C2721 1.327 . S
C2724 C2712 1.349 . S
C2724 H2718 0.950 . S
C2724 C2725 1.327 . S
C2725 H2719 0.950 . S
C2725 C2724 1.327 . S
C2725 C2729 1.429 . S
C2726 C2709 1.574 . S
C2726 H2720 0.949 . S
C2726 C2730 1.368 . S
C2727 C2708 1.429 . S
C2727 C2721 1.429 . S
C2727 C2728 1.523 . S
C2728 C2709 1.368 . S
C2728 C2722 1.368 . S
C2728 C2727 1.523 . S
C2729 C2713 1.429 . S
C2729 C2725 1.429 . S
C2729 C2730 1.523 . S
C2730 C2714 1.368 . S
C2730 C2726 1.368 . S
C2730 C2729 1.523 . S
H2731 C2706 0.950 . S
H2732 C2708 0.950 . S
H2733 C2709 0.949 . S
H2734 C2711 0.950 . S
H2735 C2713 0.950 . S
C2736 C2737 1.349 . S
C2736 C2738 1.327 . S
C2736 H2761 0.950 . S
C2737 C2736 1.349 . S
C2737 C2753 1.349 . S
C2738 C2736 1.327 . S
C2738 C2757 1.429 . S
C2738 H2762 0.950 . S
C2739 C2756 1.574 . S
C2739 C2758 1.368 . S
C2739 H2763 0.949 . S
H2740 C2744 0.949 . S
C2741 C2742 1.349 . S
C2741 C2743 1.327 . S
C2741 H2764 0.950 . S
C2742 C2741 1.349 . S
C2742 C2754 1.349 . S
C2743 C2741 1.327 . S
C2743 C2759 1.429 . S
C2743 H2765 0.950 . S
C2744 H2740 0.949 . S
C2744 C2752 1.574 . S
C2744 C2760 1.368 . S
H2745 C2753 0.950 . S
H2746 C2751 0.950 . S
H2747 C2752 0.949 . S
H2748 C2754 0.950 . S
H2749 C2755 0.950 . S
H2750 C2756 0.949 . S
C2751 H2746 0.950 . S
C2751 C2753 1.327 . S
C2751 C2757 1.429 . S
C2752 C2744 1.574 . S
C2752 H2747 0.949 . S
C2752 C2758 1.368 . S
C2753 C2737 1.349 . S
C2753 H2745 0.950 . S
C2753 C2751 1.327 . S
C2754 C2742 1.349 . S
C2754 H2748 0.950 . S
C2754 C2755 1.327 . S
C2755 H2749 0.950 . S
C2755 C2754 1.327 . S
C2755 C2759 1.429 . S
C2756 C2739 1.574 . S
C2756 H2750 0.949 . S
C2756 C2760 1.368 . S
C2757 C2738 1.429 . S
C2757 C2751 1.429 . S
C2757 C2758 1.523 . S
C2758 C2739 1.368 . S
C2758 C2752 1.368 . S
C2758 C2757 1.523 . S
C2759 C2743 1.429 . S
C2759 C2755 1.429 . S
C2759 C2760 1.523 . S
C2760 C2744 1.368 . S
C2760 C2756 1.368 . S
C2760 C2759 1.523 . S
H2761 C2736 0.950 . S
H2762 C2738 0.950 . S
H2763 C2739 0.949 . S
H2764 C2741 0.950 . S
H2765 C2743 0.950 . S
C2766 C2767 1.349 . S
C2766 C2768 1.327 . S
C2766 H2791 0.950 . S
C2767 C2766 1.349 . S
C2767 C2783 1.349 . S
C2768 C2766 1.327 . S
C2768 C2787 1.429 . S
C2768 H2792 0.950 . S
C2769 C2786 1.574 . S
C2769 C2788 1.368 . S
C2769 H2793 0.949 . S
H2770 C2774 0.949 . S
C2771 C2772 1.349 . S
C2771 C2773 1.327 . S
C2771 H2794 0.950 . S
C2772 C2771 1.349 . S
C2772 C2784 1.349 . S
C2773 C2771 1.327 . S
C2773 C2789 1.429 . S
C2773 H2795 0.950 . S
C2774 H2770 0.949 . S
C2774 C2782 1.574 . S
C2774 C2790 1.368 . S
H2775 C2783 0.950 . S
H2776 C2781 0.950 . S
H2777 C2782 0.949 . S
H2778 C2784 0.950 . S
H2779 C2785 0.950 . S
H2780 C2786 0.949 . S
C2781 H2776 0.950 . S
C2781 C2783 1.327 . S
C2781 C2787 1.429 . S
C2782 C2774 1.574 . S
C2782 H2777 0.949 . S
C2782 C2788 1.368 . S
C2783 C2767 1.349 . S
C2783 H2775 0.950 . S
C2783 C2781 1.327 . S
C2784 C2772 1.349 . S
C2784 H2778 0.950 . S
C2784 C2785 1.327 . S
C2785 H2779 0.950 . S
C2785 C2784 1.327 . S
C2785 C2789 1.429 . S
C2786 C2769 1.574 . S
C2786 H2780 0.949 . S
C2786 C2790 1.368 . S
C2787 C2768 1.429 . S
C2787 C2781 1.429 . S
C2787 C2788 1.523 . S
C2788 C2769 1.368 . S
C2788 C2782 1.368 . S
C2788 C2787 1.523 . S
C2789 C2773 1.429 . S
C2789 C2785 1.429 . S
C2789 C2790 1.523 . S
C2790 C2774 1.368 . S
C2790 C2786 1.368 . S
C2790 C2789 1.523 . S
H2791 C2766 0.950 . S
H2792 C2768 0.950 . S
H2793 C2769 0.949 . S
H2794 C2771 0.950 . S
H2795 C2773 0.950 . S
C2796 C2797 1.349 . S
C2796 C2798 1.327 . S
C2796 H2821 0.950 . S
C2797 C2796 1.349 . S
C2797 C2813 1.349 . S
C2798 C2796 1.327 . S
C2798 C2817 1.429 . S
C2798 H2822 0.950 . S
C2799 C2816 1.574 . S
C2799 C2818 1.368 . S
C2799 H2823 0.949 . S
H2800 C2804 0.949 . S
C2801 C2802 1.349 . S
C2801 C2803 1.327 . S
C2801 H2824 0.950 . S
C2802 C2801 1.349 . S
C2802 C2814 1.349 . S
C2803 C2801 1.327 . S
C2803 C2819 1.429 . S
C2803 H2825 0.950 . S
C2804 H2800 0.949 . S
C2804 C2812 1.574 . S
C2804 C2820 1.368 . S
H2805 C2813 0.950 . S
H2806 C2811 0.950 . S
H2807 C2812 0.949 . S
H2808 C2814 0.950 . S
H2809 C2815 0.950 . S
H2810 C2816 0.949 . S
C2811 H2806 0.950 . S
C2811 C2813 1.327 . S
C2811 C2817 1.429 . S
C2812 C2804 1.574 . S
C2812 H2807 0.949 . S
C2812 C2818 1.368 . S
C2813 C2797 1.349 . S
C2813 H2805 0.950 . S
C2813 C2811 1.327 . S
C2814 C2802 1.349 . S
C2814 H2808 0.950 . S
C2814 C2815 1.327 . S
C2815 H2809 0.950 . S
C2815 C2814 1.327 . S
C2815 C2819 1.429 . S
C2816 C2799 1.574 . S
C2816 H2810 0.949 . S
C2816 C2820 1.368 . S
C2817 C2798 1.429 . S
C2817 C2811 1.429 . S
C2817 C2818 1.523 . S
C2818 C2799 1.368 . S
C2818 C2812 1.368 . S
C2818 C2817 1.523 . S
C2819 C2803 1.429 . S
C2819 C2815 1.429 . S
C2819 C2820 1.523 . S
C2820 C2804 1.368 . S
C2820 C2816 1.368 . S
C2820 C2819 1.523 . S
H2821 C2796 0.950 . S
H2822 C2798 0.950 . S
H2823 C2799 0.949 . S
H2824 C2801 0.950 . S
H2825 C2803 0.950 . S
C2826 C2827 1.349 . S
C2826 C2828 1.327 . S
C2826 H2851 0.950 . S
C2827 C2826 1.349 . S
C2827 C2843 1.349 . S
C2828 C2826 1.327 . S
C2828 C2847 1.429 . S
C2828 H2852 0.950 . S
C2829 C2846 1.574 . S
C2829 C2848 1.368 . S
C2829 H2853 0.949 . S
H2830 C2834 0.949 . S
C2831 C2832 1.349 . S
C2831 C2833 1.327 . S
C2831 H2854 0.950 . S
C2832 C2831 1.349 . S
C2832 C2844 1.349 . S
C2833 C2831 1.327 . S
C2833 C2849 1.429 . S
C2833 H2855 0.950 . S
C2834 H2830 0.949 . S
C2834 C2842 1.574 . S
C2834 C2850 1.368 . S
H2835 C2843 0.950 . S
H2836 C2841 0.950 . S
H2837 C2842 0.949 . S
H2838 C2844 0.950 . S
H2839 C2845 0.950 . S
H2840 C2846 0.949 . S
C2841 H2836 0.950 . S
C2841 C2843 1.327 . S
C2841 C2847 1.429 . S
C2842 C2834 1.574 . S
C2842 H2837 0.949 . S
C2842 C2848 1.368 . S
C2843 C2827 1.349 . S
C2843 H2835 0.950 . S
C2843 C2841 1.327 . S
C2844 C2832 1.349 . S
C2844 H2838 0.950 . S
C2844 C2845 1.327 . S
C2845 H2839 0.950 . S
C2845 C2844 1.327 . S
C2845 C2849 1.429 . S
C2846 C2829 1.574 . S
C2846 H2840 0.949 . S
C2846 C2850 1.368 . S
C2847 C2828 1.429 . S
C2847 C2841 1.429 . S
C2847 C2848 1.523 . S
C2848 C2829 1.368 . S
C2848 C2842 1.368 . S
C2848 C2847 1.523 . S
C2849 C2833 1.429 . S
C2849 C2845 1.429 . S
C2849 C2850 1.523 . S
C2850 C2834 1.368 . S
C2850 C2846 1.368 . S
C2850 C2849 1.523 . S
H2851 C2826 0.950 . S
H2852 C2828 0.950 . S
H2853 C2829 0.949 . S
H2854 C2831 0.950 . S
H2855 C2833 0.950 . S
C2856 C2857 1.349 . S
C2856 C2858 1.327 . S
C2856 H2881 0.950 . S
C2857 C2856 1.349 . S
C2857 C2873 1.349 . S
C2858 C2856 1.327 . S
C2858 C2877 1.429 . S
C2858 H2882 0.950 . S
C2859 C2876 1.574 . S
C2859 C2878 1.368 . S
C2859 H2883 0.949 . S
H2860 C2864 0.949 . S
C2861 C2862 1.349 . S
C2861 C2863 1.327 . S
C2861 H2884 0.950 . S
C2862 C2861 1.349 . S
C2862 C2874 1.349 . S
C2863 C2861 1.327 . S
C2863 C2879 1.429 . S
C2863 H2885 0.950 . S
C2864 H2860 0.949 . S
C2864 C2872 1.574 . S
C2864 C2880 1.368 . S
H2865 C2873 0.950 . S
H2866 C2871 0.950 . S
H2867 C2872 0.949 . S
H2868 C2874 0.950 . S
H2869 C2875 0.950 . S
H2870 C2876 0.949 . S
C2871 H2866 0.950 . S
C2871 C2873 1.327 . S
C2871 C2877 1.429 . S
C2872 C2864 1.574 . S
C2872 H2867 0.949 . S
C2872 C2878 1.368 . S
C2873 C2857 1.349 . S
C2873 H2865 0.950 . S
C2873 C2871 1.327 . S
C2874 C2862 1.349 . S
C2874 H2868 0.950 . S
C2874 C2875 1.327 . S
C2875 H2869 0.950 . S
C2875 C2874 1.327 . S
C2875 C2879 1.429 . S
C2876 C2859 1.574 . S
C2876 H2870 0.949 . S
C2876 C2880 1.368 . S
C2877 C2858 1.429 . S
C2877 C2871 1.429 . S
C2877 C2878 1.523 . S
C2878 C2859 1.368 . S
C2878 C2872 1.368 . S
C2878 C2877 1.523 . S
C2879 C2863 1.429 . S
C2879 C2875 1.429 . S
C2879 C2880 1.523 . S
C2880 C2864 1.368 . S
C2880 C2876 1.368 . S
C2880 C2879 1.523 . S
H2881 C2856 0.950 . S
H2882 C2858 0.950 . S
H2883 C2859 0.949 . S
H2884 C2861 0.950 . S
H2885 C2863 0.950 . S
C2886 C2887 1.349 . S
C2886 C2888 1.327 . S
C2886 H2911 0.950 . S
C2887 C2886 1.349 . S
C2887 C2903 1.349 . S
C2888 C2886 1.327 . S
C2888 C2907 1.429 . S
C2888 H2912 0.950 . S
C2889 C2906 1.574 . S
C2889 C2908 1.368 . S
C2889 H2913 0.949 . S
H2890 C2894 0.949 . S
C2891 C2892 1.349 . S
C2891 C2893 1.327 . S
C2891 H2914 0.950 . S
C2892 C2891 1.349 . S
C2892 C2904 1.349 . S
C2893 C2891 1.327 . S
C2893 C2909 1.429 . S
C2893 H2915 0.950 . S
C2894 H2890 0.949 . S
C2894 C2902 1.574 . S
C2894 C2910 1.368 . S
H2895 C2903 0.950 . S
H2896 C2901 0.950 . S
H2897 C2902 0.949 . S
H2898 C2904 0.950 . S
H2899 C2905 0.950 . S
H2900 C2906 0.949 . S
C2901 H2896 0.950 . S
C2901 C2903 1.327 . S
C2901 C2907 1.429 . S
C2902 C2894 1.574 . S
C2902 H2897 0.949 . S
C2902 C2908 1.368 . S
C2903 C2887 1.349 . S
C2903 H2895 0.950 . S
C2903 C2901 1.327 . S
C2904 C2892 1.349 . S
C2904 H2898 0.950 . S
C2904 C2905 1.327 . S
C2905 H2899 0.950 . S
C2905 C2904 1.327 . S
C2905 C2909 1.429 . S
C2906 C2889 1.574 . S
C2906 H2900 0.949 . S
C2906 C2910 1.368 . S
C2907 C2888 1.429 . S
C2907 C2901 1.429 . S
C2907 C2908 1.523 . S
C2908 C2889 1.368 . S
C2908 C2902 1.368 . S
C2908 C2907 1.523 . S
C2909 C2893 1.429 . S
C2909 C2905 1.429 . S
C2909 C2910 1.523 . S
C2910 C2894 1.368 . S
C2910 C2906 1.368 . S
C2910 C2909 1.523 . S
H2911 C2886 0.950 . S
H2912 C2888 0.950 . S
H2913 C2889 0.949 . S
H2914 C2891 0.950 . S
H2915 C2893 0.950 . S
C762 C462 1.602 . S
C757 C439 1.599 . S
C787 C401 1.758 . S
C792 C460 1.762 . S
C822 C461 1.762 . S
C817 C382 1.758 . S
C847 C420 1.599 . S
C852 C463 1.602 . S
C882 C507 1.534 . S
C877 C306 1.535 . S
C912 C567 1.650 . S
C907 C325 1.650 . S
C937 C344 1.517 . S
C942 C506 1.520 . S
C972 C566 1.824 . S
C967 C363 1.823 . S
C997 C230 1.693 . S
C1002 C508 1.695 . S
C1032 C564 1.646 . S
C1027 C249 1.642 . S
C1057 C268 1.696 . S
C1062 C509 1.697 . S
C1087 C287 1.464 . S
C1092 C565 1.467 . S
C1122 C615 1.602 . S
C1117 C211 1.599 . S
C1147 C173 1.758 . S
C1152 C614 1.762 . S
C1177 C154 1.759 . S
C1182 C616 1.762 . S
C1212 C617 1.601 . S
C1207 C192 1.599 . S
C1237 C78 1.535 . S
C1242 C658 1.534 . S
C1267 C97 1.651 . S
C1272 C717 1.652 . S
C1297 C116 1.517 . S
C1302 C656 1.520 . S
C1327 C135 1.823 . S
C1332 C716 1.825 . S
C1362 C657 1.695 . S
C1357 C2 1.693 . S
C1392 C714 1.646 . S
C1387 C21 1.641 . S
C1417 C40 1.697 . S
C1422 C659 1.697 . S
C1452 C715 1.467 . S
C1447 C59 1.464 . S
C1482 C459 1.725 . S
C1477 C6 1.702 . S
C1507 C30 1.297 . S
C1512 C465 1.336 . S
C1537 C49 1.146 . S
C1542 C457 1.175 . S
C1567 C68 1.089 1_545 S
C1572 C464 1.116 . S
C1597 C82 1.677 . S
C1602 C456 1.700 . S
C1632 C466 1.200 . S
C1627 C106 1.169 . S
C1657 C125 1.126 . S
C1662 C458 1.155 . S
C1692 C467 1.994 . S
C1687 C139 1.974 . S
C1722 C513 1.637 . S
C1717 C63 1.607 1_545 S
C1747 C11 1.172 . S
C1752 C556 1.204 . S
C1782 C511 1.596 . S
C1777 C25 1.567 . S
C1812 C558 1.758 . S
C1807 C44 1.735 . S
C1837 C101 1.768 . S
C1842 C512 1.793 . S
C1872 C557 1.552 . S
C1867 C120 1.524 . S
C1902 C510 1.204 . S
C1897 C144 1.173 . S
C1932 C559 1.041 . S
C1927 C87 1.018 . S
C1962 C563 1.354 . S
C1957 C163 1.316 . S
C1987 C182 1.321 . S
C1992 C562 1.352 . S
C2022 C514 1.881 . S
C2017 C158 1.855 . S
C2052 C561 1.810 . S
C2047 C196 1.783 . S
C2077 C220 1.165 . S
C2082 C517 1.195 . S
C2107 C215 1.780 . S
C2112 C560 1.807 . S
C2142 C516 1.882 . S
C2137 C177 1.855 . S
C2172 C515 1.195 . S
C2167 C201 1.164 . S
C2202 C609 1.725 . S
C2197 C234 1.702 . S
C2232 C612 1.336 . S
C2227 C258 1.297 . S
C2257 C277 1.145 . S
C2262 C608 1.175 . S
C2292 C610 1.116 . S
C2287 C296 1.089 . S
C2322 C606 1.701 . S
C2317 C310 1.677 . S
C2347 C334 1.169 . S
C2352 C611 1.200 . S
C2377 C353 1.126 . S
C2382 C607 1.155 . S
C2412 C613 1.994 . S
C2407 C367 1.974 . S
C2442 C667 1.637 . S
C2437 C291 1.607 . S
C2467 C239 1.172 . S
C2472 C706 1.205 . S
C2502 C666 1.596 . S
C2497 C253 1.566 . S
C2532 C708 1.758 . S
C2527 C272 1.735 . S
C2562 C665 1.793 . S
C2557 C329 1.768 . S
C2587 C348 1.524 . S
C2592 C707 1.552 . S
C2622 C664 1.204 . S
C2617 C372 1.173 . S
C2652 C709 1.041 . S
C2647 C315 1.018 . S
C2682 C713 1.354 . S
C2677 C391 1.316 . S
C2707 C410 1.312 . S
C2712 C712 1.352 . S
C2742 C660 1.882 . S
C2737 C386 1.855 . S
C2767 C424 1.783 . S
C2772 C711 1.810 . S
C2802 C663 1.195 . S
C2797 C448 1.165 . S
C2832 C710 1.807 . S
C2827 C443 1.781 . S
C2862 C661 1.881 . S
C2857 C405 1.855 . S
C2887 C429 1.164 . S
C2892 C662 1.195 . S
