# Generated by pormake.
# Topology pyr, (3,6)-cn, num edge types: 1
# Building blocks:
#     Node 0, Type 0, BuildingBlock: BETDIP_clean_linker_0, # of connection points: 3
#     Node 1, Type 0, BuildingBlock: BETDIP_clean_linker_0, # of connection points: 3
#     Node 2, Type 0, BuildingBlock: BETDIP_clean_linker_0, # of connection points: 3
#     Node 3, Type 0, BuildingBlock: BETDIP_clean_linker_0, # of connection points: 3
#     Node 4, Type 0, BuildingBlock: BETDIP_clean_linker_0, # of connection points: 3
#     Node 5, Type 0, BuildingBlock: BETDIP_clean_linker_0, # of connection points: 3
#     Node 6, Type 0, BuildingBlock: BETDIP_clean_linker_0, # of connection points: 3
#     Node 7, Type 0, BuildingBlock: BETDIP_clean_linker_0, # of connection points: 3
#     Node 8, Type 1, BuildingBlock: CIFDUS_clean_sbu_1, # of connection points: 6
#     Node 9, Type 1, BuildingBlock: CIFDUS_clean_sbu_1, # of connection points: 6
#     Node 10, Type 1, BuildingBlock: CIFDUS_clean_sbu_1, # of connection points: 6
#     Node 11, Type 1, BuildingBlock: CIFDUS_clean_sbu_1, # of connection points: 6
#     Edge 12, Type (0, 1), BuildingBlock: AJUNOK_clean_linker_0, # of connection points: 2
#     Edge 13, Type (0, 1), BuildingBlock: AJUNOK_clean_linker_0, # of connection points: 2
#     Edge 14, Type (0, 1), BuildingBlock: AJUNOK_clean_linker_0, # of connection points: 2
#     Edge 15, Type (0, 1), BuildingBlock: AJUNOK_clean_linker_0, # of connection points: 2
#     Edge 16, Type (0, 1), BuildingBlock: AJUNOK_clean_linker_0, # of connection points: 2
#     Edge 17, Type (0, 1), BuildingBlock: AJUNOK_clean_linker_0, # of connection points: 2
#     Edge 18, Type (0, 1), BuildingBlock: AJUNOK_clean_linker_0, # of connection points: 2
#     Edge 19, Type (0, 1), BuildingBlock: AJUNOK_clean_linker_0, # of connection points: 2
#     Edge 20, Type (0, 1), BuildingBlock: AJUNOK_clean_linker_0, # of connection points: 2
#     Edge 21, Type (0, 1), BuildingBlock: AJUNOK_clean_linker_0, # of connection points: 2
#     Edge 22, Type (0, 1), BuildingBlock: AJUNOK_clean_linker_0, # of connection points: 2
#     Edge 23, Type (0, 1), BuildingBlock: AJUNOK_clean_linker_0, # of connection points: 2
#     Edge 24, Type (0, 1), BuildingBlock: AJUNOK_clean_linker_0, # of connection points: 2
#     Edge 25, Type (0, 1), BuildingBlock: AJUNOK_clean_linker_0, # of connection points: 2
#     Edge 26, Type (0, 1), BuildingBlock: AJUNOK_clean_linker_0, # of connection points: 2
#     Edge 27, Type (0, 1), BuildingBlock: AJUNOK_clean_linker_0, # of connection points: 2
#     Edge 28, Type (0, 1), BuildingBlock: AJUNOK_clean_linker_0, # of connection points: 2
#     Edge 29, Type (0, 1), BuildingBlock: AJUNOK_clean_linker_0, # of connection points: 2
#     Edge 30, Type (0, 1), BuildingBlock: AJUNOK_clean_linker_0, # of connection points: 2
#     Edge 31, Type (0, 1), BuildingBlock: AJUNOK_clean_linker_0, # of connection points: 2
#     Edge 32, Type (0, 1), BuildingBlock: AJUNOK_clean_linker_0, # of connection points: 2
#     Edge 33, Type (0, 1), BuildingBlock: AJUNOK_clean_linker_0, # of connection points: 2
#     Edge 34, Type (0, 1), BuildingBlock: AJUNOK_clean_linker_0, # of connection points: 2
#     Edge 35, Type (0, 1), BuildingBlock: AJUNOK_clean_linker_0, # of connection points: 2
# Relax obj value: 0.086
# Max RMSD: 0.170
# Mean RMSD: 0.134
data_MOF--net-pry--node1-CIFDUS_clean_sbu_1--node2-BETDIP_clean_linker_0--edge1-AJUNOK_clean_linker_0
_symmetry_space_group_name_H-M    P1
_symmetry_Int_Tables_number       1
_symmetry_cell_setting            triclinic
loop_
_symmetry_equiv_pos_as_xyz
'x, y, z'
_cell_length_a     26.790873
_cell_length_b     25.430562
_cell_length_c     26.656985
_cell_angle_alpha  96.360539
_cell_angle_beta   86.344322
_cell_angle_gamma 100.31322
loop_
_atom_site_label
_atom_site_type_symbol
_atom_site_fract_x
_atom_site_fract_y
_atom_site_fract_z
_atom_type_partial_charge
H0 H 0.10486 0.16556 0.22361 0.0
H1 H 0.20354 0.15255 0.09247 0.0
H2 H 0.21849 0.06522 0.21976 0.0
H3 H 0.17494 0.22293 0.0687 0.0
C4 C 0.14261 0.23174 0.09263 0.0
C5 C 0.13697 0.15002 0.20452 0.0
C6 C 0.15846 0.11216 0.22687 0.0
C7 C 0.15414 0.16654 0.15708 0.0
C8 C 0.19411 0.14401 0.13093 0.0
C9 C 0.22036 0.10912 0.15346 0.0
C10 C 0.20117 0.09314 0.20182 0.0
N11 N 0.12899 0.20477 0.13726 0.0
H12 H 0.35662 0.94123 0.714 0.0
H13 H 0.36058 0.83012 0.58102 0.0
H14 H 0.47881 0.84986 0.68576 0.0
H15 H 0.32356 0.89967 0.54867 0.0
C16 C 0.29517 0.90279 0.57933 0.0
C17 C 0.37685 0.91409 0.69006 0.0
C18 C 0.42172 0.90054 0.70618 0.0
C19 C 0.35599 0.89096 0.64387 0.0
C20 C 0.37865 0.8513 0.61444 0.0
C21 C 0.42252 0.83587 0.62998 0.0
C22 C 0.44483 0.8621 0.6745 0.0
N23 N 0.30978 0.90493 0.63008 0.0
H24 H 0.71148 0.47382 0.87601 0.0
H25 H 0.5963 0.33236 0.85955 0.0
H26 H 0.71218 0.34222 0.96417 0.0
H27 H 0.58202 0.356 0.7892 0.0
C28 C 0.60332 0.39494 0.782 0.0
C29 C 0.69478 0.43454 0.88707 0.0
C30 C 0.71487 0.41354 0.92666 0.0
C31 C 0.65419 0.40413 0.86007 0.0
C32 C 0.63049 0.35441 0.87611 0.0
C33 C 0.6501 0.33304 0.91519 0.0
C34 C 0.69408 0.36134 0.93773 0.0
N35 N 0.63914 0.42413 0.8166 0.0
H36 H 0.83781 0.53198 0.41473 0.0
H37 H 0.97475 0.64573 0.4099 0.0
H38 H 0.84838 0.68227 0.50745 0.0
H39 H 0.89729 0.63585 0.32885 0.0
C40 C 0.90437 0.59504 0.31927 0.0
C41 C 0.86081 0.56849 0.43141 0.0
C42 C 0.83835 0.60364 0.46634 0.0
C43 C 0.90824 0.58541 0.40891 0.0
C44 C 0.93806 0.63313 0.42848 0.0
C45 C 0.91738 0.66875 0.4649 0.0
C46 C 0.86715 0.65328 0.48411 0.0
N47 N 0.91672 0.56577 0.35797 0.0
H48 H 0.80835 0.87609 0.95321 0.0
H49 H 0.91871 0.85487 0.83324 0.0
H50 H 0.82647 0.97802 0.83189 0.0
H51 H 0.96117 0.84277 0.9233 0.0
C52 C 0.92942 0.8105 0.9289 0.0
C53 C 0.82795 0.88961 0.91894 0.0
C54 C 0.81305 0.93196 0.8965 0.0
C55 C 0.86732 0.86328 0.8975 0.0
C56 C 0.89082 0.87777 0.85097 0.0
C57 C 0.87637 0.919 0.82604 0.0
C58 C 0.83739 0.94576 0.84964 0.0
N59 N 0.87917 0.8191 0.92106 0.0
H60 H 0.66677 0.09065 0.33868 0.0
H61 H 0.65559 0.20265 0.47022 0.0
H62 H 0.56834 0.2072 0.34062 0.0
H63 H 0.75114 0.19844 0.45483 0.0
C64 C 0.7452 0.15505 0.45498 0.0
C65 C 0.64972 0.12313 0.35836 0.0
C66 C 0.61484 0.14557 0.33389 0.0
C67 C 0.66585 0.14489 0.40664 0.0
C68 C 0.6446 0.18789 0.43216 0.0
C69 C 0.60843 0.21053 0.40927 0.0
C70 C 0.59447 0.18913 0.35978 0.0
N71 N 0.70388 0.12309 0.42853 0.0
H72 H 0.3112 0.6079 0.188 0.0
H73 H 0.41905 0.75212 0.22442 0.0
H74 H 0.34518 0.7289 0.08425 0.0
H75 H 0.44216 0.71261 0.2832 0.0
C76 C 0.41599 0.67613 0.28992 0.0
C77 C 0.3329 0.64539 0.1771 0.0
C78 C 0.32305 0.6651 0.13197 0.0
C79 C 0.36904 0.67528 0.21 0.0
C80 C 0.39382 0.72648 0.19846 0.0
C81 C 0.38476 0.74613 0.1535 0.0
C82 C 0.3511 0.71427 0.11973 0.0
N83 N 0.37806 0.65333 0.25483 0.0
H84 H 0.06589 0.34256 0.63945 0.0
H85 H 0.18564 0.47846 0.64071 0.0
H86 H 0.184 0.35236 0.52147 0.0
H87 H 0.1488 0.51023 0.70836 0.0
C88 C 0.13316 0.47389 0.7258 0.0
C89 C 0.09799 0.36515 0.61998 0.0
C90 C 0.11812 0.34358 0.57337 0.0
C91 C 0.12219 0.41353 0.64481 0.0
C92 C 0.1662 0.4411 0.62239 0.0
C93 C 0.19115 0.41661 0.58123 0.0
C94 C 0.16537 0.37012 0.55447 0.0
N95 N 0.10759 0.42827 0.69594 0.0
O96 O 0.94688 0.05163 0.51425 0.0
Mn97 Mn 0.00971 0.01138 0.52122 0.0
O98 O 0.89577 1.00056 0.45892 0.0
Mn99 Mn 0.947 0.96475 0.43592 0.0
O100 O 0.07415 0.97529 0.5302 0.0
O101 O 0.04284 0.08043 0.55887 0.0
Mn102 Mn 0.06775 0.06618 0.61441 0.0
O103 O 0.97407 0.98292 0.59124 0.0
O104 O 0.11719 0.02581 0.59392 0.0
O105 O 0.04663 0.03929 0.45139 0.0
O106 O 0.9949 0.99723 0.3918 0.0
O107 O 0.08324 0.13905 0.61533 0.0
O108 O 0.01545 0.03462 0.65493 0.0
C109 C 0.95483 0.89337 0.46007 0.0
C110 C 0.90483 0.04066 0.49114 0.0
C111 C 0.11286 0.9876 0.5586 0.0
C112 C 0.06119 0.13012 0.5726 0.0
C113 C 0.98033 0.99703 0.63926 0.0
C114 C 0.03552 0.02856 0.40413 0.0
O115 O 0.9762 0.93916 0.48389 0.0
O116 O 0.92753 0.89473 0.42188 0.0
O117 O 0.49208 1.00146 0.94417 0.0
Mn118 Mn 0.51754 0.02535 0.01965 0.0
O119 O 0.52484 0.92749 0.92168 0.0
Mn120 Mn 0.54113 0.91503 0.98442 0.0
O121 O 0.54402 0.04845 0.09675 0.0
O122 O 0.52847 0.10452 1.00159 0.0
Mn123 Mn 0.50287 0.1244 0.06339 0.0
O124 O 0.43774 0.02409 0.04188 0.0
O125 O 0.55436 0.13694 0.10552 0.0
O126 O 0.59646 0.0224 0.99318 0.0
O127 O 0.60814 0.93722 0.99615 0.0
O128 O 0.49202 0.17705 0.03049 0.0
O129 O 0.44363 0.09594 0.09555 0.0
C130 C 0.48061 0.9035 0.03997 0.0
C131 C 0.50019 0.96241 0.91107 0.0
C132 C 0.56153 0.09439 0.12161 0.0
C133 C 0.52119 0.15402 0.99772 0.0
C134 C 0.41679 0.05477 0.07545 0.0
C135 C 0.62585 0.98602 0.99023 0.0
O136 O 0.51107 0.94869 0.03642 0.0
O137 O 0.49342 0.86391 1.01008 0.0
O138 O 0.58945 0.55249 0.50762 0.0
Mn139 Mn 0.51356 0.52148 0.52152 0.0
O140 O 0.60505 0.51621 0.42834 0.0
Mn141 Mn 0.53923 0.48416 0.41257 0.0
O142 O 0.43798 0.48966 0.53495 0.0
O143 O 0.52785 0.51784 0.59602 0.0
Mn144 Mn 0.48802 0.56073 0.62669 0.0
O145 O 0.49434 0.6011 0.53307 0.0
O146 O 0.42177 0.52881 0.61258 0.0
O147 O 0.53154 0.44152 0.50879 0.0
O148 O 0.519 0.41487 0.42748 0.0
O149 O 0.51649 0.541 0.67875 0.0
O150 O 0.51048 0.62963 0.61237 0.0
C151 C 0.48658 0.53414 0.40412 0.0
C152 C 0.61965 0.54437 0.4693 0.0
C153 C 0.40758 0.49833 0.5728 0.0
C154 C 0.53824 0.51356 0.6426 0.0
C155 C 0.5 0.63936 0.56948 0.0
C156 C 0.5267 0.4043 0.47123 0.0
O157 O 0.49991 0.52439 0.44776 0.0
O158 O 0.50657 0.50933 0.36501 0.0
O159 O 0.94116 0.49204 0.02622 0.0
Mn160 Mn 0.02103 0.51979 0.0283 0.0
O161 O 0.93813 0.44254 0.95463 0.0
Mn162 Mn 0.9763 0.50138 0.92938 0.0
O163 O 0.10019 0.55178 0.03284 0.0
O164 O 0.00959 0.53839 0.10431 0.0
Mn165 Mn 0.064 0.51995 0.12858 0.0
O166 O 0.03474 0.44121 0.03738 0.0
O167 O 0.1137 0.57543 0.11517 0.0
O168 O 1.00496 0.59596 0.01361 0.0
O169 O 0.95819 0.5691 0.94515 0.0
O170 O 0.01684 0.51184 0.17888 0.0
O171 O 0.07995 0.45361 0.10616 0.0
C172 C 0.04847 0.49384 0.90467 0.0
C173 C 0.91542 0.45819 0.99438 0.0
C174 C 0.12809 0.57657 0.069 0.0
C175 C 0.98696 0.52047 0.14542 0.0
C176 C 0.06115 0.42381 0.06864 0.0
C177 C 0.97614 0.60556 0.97942 0.0
O178 O 0.03664 0.50393 0.95253 0.0
O179 O 0.01322 0.48955 0.87254 0.0
C180 C 0.14999 0.09575 0.32131 0.0
C181 C 0.13039 0.08827 0.27242 0.0
C182 C 0.11984 0.07757 0.36427 0.0
C183 C 0.06877 0.05118 0.36011 0.0
H184 H 0.1885 0.11668 0.32656 0.0
H185 H 0.13669 0.08412 0.40079 0.0
S186 S 1.00021 0.02196 0.23943 0.0
N187 N 0.05752 0.05208 0.22261 0.0
N188 N 1.00102 0.01969 0.30088 0.0
C189 C 0.04945 0.04381 0.3108 0.0
C190 C 0.08006 0.06174 0.26784 0.0
C191 C 0.46139 0.88494 0.78486 0.0
C192 C 0.44115 0.9204 0.75833 0.0
C193 C 0.47976 0.89994 0.83309 0.0
C194 C 0.47854 0.95132 0.85923 0.0
H195 H 0.46235 0.84409 0.7689 0.0
H196 H 0.49459 0.86958 0.85019 0.0
S197 S 0.42764 0.06018 0.80861 0.0
N198 N 0.42057 0.01059 0.76258 0.0
N199 N 0.45345 0.03778 0.85493 0.0
C200 C 0.45731 0.9874 0.83415 0.0
C201 C 0.43902 0.97223 0.7837 0.0
C202 C 0.62485 0.46161 0.71796 0.0
C203 C 0.59149 0.41832 0.73686 0.0
C204 C 0.61076 0.48799 0.67899 0.0
C205 C 0.56309 0.47176 0.65781 0.0
H206 H 0.66087 0.47702 0.73504 0.0
H207 H 0.63508 0.52451 0.66898 0.0
S208 S 0.46313 0.3596 0.69268 0.0
N209 N 0.50992 0.35885 0.7299 0.0
N210 N 0.48372 0.40856 0.65669 0.0
C211 C 0.53123 0.42605 0.67373 0.0
C212 C 0.54526 0.39945 0.71354 0.0
C213 C 0.92568 0.61009 0.22929 0.0
C214 C 0.90774 0.57429 0.26559 0.0
C215 C 0.94105 0.59086 0.1804 0.0
C216 C 0.93956 0.53551 0.16742 0.0
H217 H 0.93276 0.65302 0.24013 0.0
H218 H 0.96195 0.61953 0.15615 0.0
S219 S 0.87859 0.426 0.2431 0.0
N220 N 0.87651 0.48154 0.28113 0.0
N221 N 0.90498 0.44563 0.18902 0.0
C222 C 0.91205 0.49985 0.19999 0.0
C223 C 0.89743 0.51917 0.24993 0.0
C224 C 0.28166 0.04044 0.13494 0.0
C225 C 0.2674 0.08996 0.12657 0.0
C226 C 0.32772 0.02481 0.11398 0.0
C227 C 0.36082 0.05663 0.08159 0.0
H228 H 0.25797 0.01395 0.15929 0.0
H229 H 0.3387 0.98909 0.12543 0.0
S230 S 0.34358 0.18889 0.04554 0.0
N231 N 0.29409 0.1712 0.0838 0.0
N232 N 0.37505 0.13838 0.04022 0.0
C233 C 0.34546 0.10401 0.07011 0.0
C234 C 0.30056 0.12152 0.09346 0.0
C235 C 0.19998 0.89421 0.58592 0.0
C236 C 0.24756 0.92064 0.56844 0.0
C237 C 0.15489 0.9126 0.57748 0.0
C238 C 0.15607 0.95827 0.55173 0.0
H239 H 0.19772 0.85982 0.6071 0.0
H240 H 0.11929 0.89302 0.59388 0.0
S241 S 0.27141 0.043 0.50096 0.0
N242 N 0.29319 0.99461 0.52465 0.0
N243 N 0.20905 0.03026 0.51046 0.0
C244 C 0.20346 0.98443 0.53364 0.0
C245 C 0.24906 0.96528 0.5415 0.0
C246 C 0.8023 0.46674 0.92228 0.0
C247 C 0.76177 0.44168 0.9519 0.0
C248 C 0.85141 0.47754 0.93957 0.0
C249 C 0.8623 0.46279 0.98671 0.0
H250 H 0.79738 0.47338 0.88362 0.0
H251 H 0.88179 0.49305 0.91354 0.0
S252 S 0.76753 0.41392 0.08533 0.0
N253 N 0.73359 0.41701 0.03641 0.0
N254 N 0.82747 0.43402 0.06731 0.0
C255 C 0.82159 0.44506 0.01958 0.0
C256 C 0.7709 0.43527 1.00246 0.0
C257 C 0.75594 0.5843 0.42541 0.0
C258 C 0.7822 0.59482 0.47044 0.0
C259 C 0.7034 0.57025 0.42598 0.0
C260 C 0.6744 0.56674 0.47165 0.0
H261 H 0.77639 0.58573 0.38901 0.0
H262 H 0.68555 0.56098 0.38995 0.0
S263 S 0.72433 0.59749 0.60039 0.0
N264 N 0.77555 0.60585 0.56213 0.0
N265 N 0.67546 0.57993 0.5636 0.0
C266 C 0.69972 0.58065 0.5173 0.0
C267 C 0.75394 0.5947 0.5166 0.0
C268 C 0.07416 0.28977 0.11042 0.0
C269 C 0.11618 0.27609 0.08051 0.0
C270 C 0.05266 0.33481 0.10251 0.0
C271 C 0.07154 0.36778 0.06389 0.0
H272 H 0.05898 0.26697 0.14161 0.0
H273 H 0.02282 0.34582 0.12882 0.0
S274 S 0.1796 0.34906 0.97399 0.0
N275 N 0.17453 0.29873 1.00932 0.0
N276 N 0.13405 0.38295 0.99501 0.0
C277 C 0.11191 0.35327 0.03238 0.0
C278 C 0.13411 0.3076 0.0405 0.0
C279 C 0.60009 0.23858 0.90317 0.0
C280 C 0.62261 0.28328 0.93544 0.0
C281 C 0.56954 0.19382 0.92282 0.0
C282 C 0.56155 0.19253 0.97517 0.0
H283 H 0.60489 0.2389 0.86255 0.0
H284 H 0.55036 0.16157 0.89718 0.0
S285 S 0.61332 0.29756 0.07579 0.0
N286 N 0.63394 0.32262 0.02238 0.0
N287 N 0.58126 0.2373 0.05888 0.0
C288 C 0.58644 0.23539 1.00758 0.0
C289 C 0.61566 0.28119 0.98788 0.0
C290 C 0.95975 0.75025 0.42549 0.0
C291 C 0.94142 0.72654 0.46986 0.0
C292 C 0.97179 0.80566 0.42534 0.0
C293 C 0.96437 0.84018 0.46896 0.0
H294 H 0.96078 0.72645 0.38927 0.0
H295 H 0.9818 0.82165 0.38926 0.0
S296 S 0.92819 0.79958 0.59715 0.0
N297 N 0.92573 0.74213 0.56083 0.0
N298 N 0.94559 0.84775 0.55946 0.0
C299 C 0.95111 0.81779 0.51471 0.0
C300 C 0.93984 0.76059 0.51526 0.0
C301 C 0.48254 0.7851 0.57411 0.0
C302 C 0.43857 0.78517 0.60622 0.0
C303 C 0.50034 0.73666 0.55703 0.0
C304 C 0.47437 0.68686 0.57113 0.0
H305 H 0.50435 0.82281 0.56387 0.0
H306 H 0.53608 0.73857 0.53531 0.0
S307 S 0.3585 0.66612 0.65584 0.0
N308 N 0.37034 0.73152 0.65175 0.0
N309 N 0.40271 0.6414 0.61945 0.0
C310 C 0.42947 0.68679 0.60177 0.0
C311 C 0.41189 0.73564 0.6194 0.0
C312 C 0.87446 0.9473 0.73644 0.0
C313 C 0.90207 0.93411 0.77566 0.0
C314 C 0.89851 0.96348 0.69009 0.0
C315 C 0.95132 0.96687 0.68066 0.0
H316 H 0.83387 0.9459 0.74181 0.0
H317 H 0.876 0.9758 0.66263 0.0
S318 S 0.04169 0.93697 0.76933 0.0
N319 N 0.9862 0.92685 0.80052 0.0
N320 N 0.03002 0.95412 0.71392 0.0
C321 C 0.97887 0.95211 0.71871 0.0
C322 C 0.95481 0.9366 0.76583 0.0
C323 C 0.61236 0.1675 0.24513 0.0
C324 C 0.60426 0.12836 0.27928 0.0
C325 C 0.60191 0.15447 0.19403 0.0
C326 C 0.58148 0.1016 0.17396 0.0
H327 H 0.62681 0.20904 0.25809 0.0
H328 H 0.60847 0.18723 0.17033 0.0
S329 S 0.55625 0.98288 0.24699 0.0
N330 N 0.5779 0.03327 0.28909 0.0
N331 N 0.55627 0.009 0.19287 0.0
C332 C 0.57489 0.06135 0.20729 0.0
C333 C 0.58661 0.07467 0.25981 0.0
C334 C 0.47564 0.65955 0.3519 0.0
C335 C 0.4278 0.64556 0.33053 0.0
C336 C 0.49192 0.62639 0.38386 0.0
C337 C 0.46086 0.57828 0.39554 0.0
H338 H 0.50213 0.69427 0.34098 0.0
H339 H 0.53094 0.63561 0.39516 0.0
S340 S 0.32951 0.52812 0.35606 0.0
N341 N 0.34692 0.58433 0.32914 0.0
N342 N 0.37856 0.52125 0.38779 0.0
C343 C 0.41151 0.5664 0.37804 0.0
C344 C 0.39469 0.60021 0.34575 0.0
C345 C 0.1387 0.52782 0.80917 0.0
C346 C 0.13106 0.47698 0.78137 0.0
C347 C 0.12373 0.53349 0.86049 0.0
C348 C 0.09904 0.48863 0.8841 0.0
H349 H 0.15126 0.56374 0.79019 0.0
H350 H 0.1225 0.57363 0.87853 0.0
S351 S 0.09105 0.34623 0.83393 0.0
N352 N 0.11348 0.38017 0.78555 0.0
N353 N 0.08467 0.39174 0.88206 0.0
C354 C 0.10252 0.43753 0.86003 0.0
C355 C 0.11723 0.43136 0.80777 0.0
C356 C 0.73132 0.96959 0.89214 0.0
C357 C 0.77027 0.95932 0.92111 0.0
C358 C 0.68683 0.9864 0.91509 0.0
C359 C 0.67914 0.99423 0.96811 0.0
H360 H 0.73342 0.96092 0.85144 0.0
H361 H 0.65622 0.98856 0.89113 0.0
S362 S 0.77201 0.98142 0.06139 0.0
N363 N 0.80037 0.96594 1.00626 0.0
N364 N 0.71647 0.99506 0.04855 0.0
C365 C 0.71924 0.98801 0.99725 0.0
C366 C 0.76467 0.9713 0.97409 0.0
C367 C 0.77655 0.08211 0.49406 0.0
C368 C 0.78711 0.13013 0.47087 0.0
C369 C 0.81592 0.05631 0.50597 0.0
C370 C 0.86733 0.0774 0.49506 0.0
H371 H 0.73756 0.06363 0.50192 0.0
H372 H 0.80595 0.01784 0.52122 0.0
S373 S 0.91467 0.20014 0.43124 0.0
N374 N 0.85247 0.19728 0.43655 0.0
N375 N 0.92616 0.14794 0.45758 0.0
C376 C 0.87833 0.1259 0.47271 0.0
C377 C 0.83827 0.15245 0.46098 0.0
C378 C 0.24646 0.67302 0.08635 0.0
C379 C 0.27865 0.63982 0.10141 0.0
C380 C 0.19923 0.65139 0.06651 0.0
C381 C 0.18244 0.59582 0.06077 0.0
H382 H 0.25561 0.71629 0.09401 0.0
H383 H 0.1735 0.67843 0.06098 0.0
S384 S 0.25471 0.49074 0.08546 0.0
N385 N 0.29281 0.54792 0.10195 0.0
N386 N 0.20331 0.50751 0.06511 0.0
C387 C 0.21609 0.56197 0.07039 0.0
C388 C 0.26422 0.58388 0.091 0.0
C389 C 0.27483 0.4464 0.61999 0.0
C390 C 0.24717 0.43333 0.57568 0.0
C391 C 0.32658 0.4662 0.61814 0.0
C392 C 0.35381 0.47216 0.57187 0.0
H393 H 0.2563 0.44192 0.65698 0.0
H394 H 0.3453 0.47709 0.65361 0.0
S395 S 0.30216 0.43203 0.44476 0.0
N396 N 0.2521 0.42138 0.48398 0.0
N397 N 0.3512 0.45546 0.48028 0.0
C398 C 0.32795 0.45476 0.527 0.0
C399 C 0.27429 0.43591 0.52895 0.0
C400 C 0.905 0.71149 0.94074 0.0
C401 C 0.93936 0.76005 0.94844 0.0
C402 C 0.91642 0.66285 0.95381 0.0
C403 C 0.96245 0.66008 0.976 0.0
H404 H 0.86982 0.71048 0.92248 0.0
H405 H 0.88925 0.62648 0.9449 0.0
S406 S 0.06308 0.77712 1.00928 0.0
N407 N 0.01997 0.80316 0.98323 0.0
N408 N 0.04093 0.71204 1.00834 0.0
C409 C 0.99591 0.70893 0.98655 0.0
C410 C 0.98456 0.75858 0.97252 0.0
C411 C 0.38101 0.83306 0.11987 0.0
C412 C 0.4097 0.80013 0.14074 0.0
C413 C 0.4048 0.87594 0.09336 0.0
C414 C 0.45782 0.88793 0.08843 0.0
H415 H 0.33999 0.82245 0.11983 0.0
H416 H 0.38179 0.89542 0.07176 0.0
S417 S 0.55005 0.82108 0.14379 0.0
N418 N 0.49395 0.78701 0.15985 0.0
N419 N 0.53828 0.87021 0.11323 0.0
C420 C 0.48661 0.86092 0.11593 0.0
C421 C 0.46265 0.81591 0.14109 0.0
C422 C 0.12921 0.25255 0.53134 0.0
C423 C 0.09621 0.28801 0.5513 0.0
C424 C 0.11274 0.19704 0.52575 0.0
C425 C 0.06362 0.17483 0.54223 0.0
H426 H 0.1695 0.26625 0.52542 0.0
H427 H 0.14109 0.17145 0.51683 0.0
S428 S 0.95761 0.24826 0.57882 0.0
N429 N 0.00747 0.29599 0.57156 0.0
N430 N 0.97854 0.19077 0.56593 0.0
C431 C 0.02814 0.20905 0.55371 0.0
C432 C 0.04417 0.26596 0.55769 0.0
C433 C 0.53406 0.25932 0.43019 0.0
C434 C 0.58565 0.25706 0.43574 0.0
C435 C 0.51324 0.30539 0.44772 0.0
C436 C 0.54256 0.35124 0.47263 0.0
H437 H 0.50986 0.22599 0.41009 0.0
H438 H 0.47461 0.3065 0.43862 0.0
S439 S 0.67826 0.36583 0.50094 0.0
N440 N 0.66484 0.30493 0.471 0.0
N441 N 0.62494 0.39038 0.50494 0.0
C442 C 0.59299 0.3483 0.48198 0.0
C443 C 0.61467 0.30162 0.46338 0.0
loop_
_geom_bond_atom_site_label_1
_geom_bond_atom_site_label_2
_geom_bond_distance
_geom_bond_site_symmetry_2
_ccdc_geom_bond_type
H0 C5 0.930 . S
H1 C8 0.930 . S
H2 C10 0.930 . S
H3 C4 1.016 . S
C4 H3 1.016 . S
C4 N11 1.286 . S
C5 H0 0.930 . S
C5 C6 1.397 . S
C5 C7 1.361 . S
C6 C5 1.397 . S
C6 C10 1.390 . S
C7 C5 1.361 . S
C7 C8 1.393 . S
C7 N11 1.413 . S
C8 H1 0.930 . S
C8 C7 1.393 . S
C8 C9 1.399 . S
C9 C8 1.399 . S
C9 C10 1.381 . S
C10 H2 0.930 . S
C10 C6 1.390 . S
C10 C9 1.381 . S
N11 C4 1.286 . S
N11 C7 1.413 . S
H12 C17 0.930 . S
H13 C20 0.930 . S
H14 C22 0.930 . S
H15 C16 1.016 . S
C16 H15 1.016 . S
C16 N23 1.286 . S
C17 H12 0.930 . S
C17 C18 1.397 . S
C17 C19 1.361 . S
C18 C17 1.397 . S
C18 C22 1.390 . S
C19 C17 1.361 . S
C19 C20 1.393 . S
C19 N23 1.413 . S
C20 H13 0.930 . S
C20 C19 1.393 . S
C20 C21 1.399 . S
C21 C20 1.399 . S
C21 C22 1.381 . S
C22 H14 0.930 . S
C22 C18 1.390 . S
C22 C21 1.381 . S
N23 C16 1.286 . S
N23 C19 1.413 . S
H24 C29 0.930 . S
H25 C32 0.930 . S
H26 C34 0.930 . S
H27 C28 1.016 . S
C28 H27 1.016 . S
C28 N35 1.286 . S
C29 H24 0.930 . S
C29 C30 1.397 . S
C29 C31 1.361 . S
C30 C29 1.397 . S
C30 C34 1.390 . S
C31 C29 1.361 . S
C31 C32 1.393 . S
C31 N35 1.413 . S
C32 H25 0.930 . S
C32 C31 1.393 . S
C32 C33 1.399 . S
C33 C32 1.399 . S
C33 C34 1.381 . S
C34 H26 0.930 . S
C34 C30 1.390 . S
C34 C33 1.381 . S
N35 C28 1.286 . S
N35 C31 1.413 . S
H36 C41 0.930 . S
H37 C44 0.930 . S
H38 C46 0.930 . S
H39 C40 1.016 . S
C40 H39 1.016 . S
C40 N47 1.286 . S
C41 H36 0.930 . S
C41 C42 1.397 . S
C41 C43 1.361 . S
C42 C41 1.397 . S
C42 C46 1.390 . S
C43 C41 1.361 . S
C43 C44 1.393 . S
C43 N47 1.413 . S
C44 H37 0.930 . S
C44 C43 1.393 . S
C44 C45 1.399 . S
C45 C44 1.399 . S
C45 C46 1.381 . S
C46 H38 0.930 . S
C46 C42 1.390 . S
C46 C45 1.381 . S
N47 C40 1.286 . S
N47 C43 1.413 . S
H48 C53 0.930 . S
H49 C56 0.930 . S
H50 C58 0.930 . S
H51 C52 1.016 . S
C52 H51 1.016 . S
C52 N59 1.286 . S
C53 H48 0.930 . S
C53 C54 1.397 . S
C53 C55 1.361 . S
C54 C53 1.397 . S
C54 C58 1.390 . S
C55 C53 1.361 . S
C55 C56 1.393 . S
C55 N59 1.413 . S
C56 H49 0.930 . S
C56 C55 1.393 . S
C56 C57 1.399 . S
C57 C56 1.399 . S
C57 C58 1.381 . S
C58 H50 0.930 . S
C58 C54 1.390 . S
C58 C57 1.381 . S
N59 C52 1.286 . S
N59 C55 1.413 . S
H60 C65 0.930 . S
H61 C68 0.930 . S
H62 C70 0.930 . S
H63 C64 1.016 . S
C64 H63 1.016 . S
C64 N71 1.286 . S
C65 H60 0.930 . S
C65 C66 1.397 . S
C65 C67 1.361 . S
C66 C65 1.397 . S
C66 C70 1.390 . S
C67 C65 1.361 . S
C67 C68 1.393 . S
C67 N71 1.413 . S
C68 H61 0.930 . S
C68 C67 1.393 . S
C68 C69 1.399 . S
C69 C68 1.399 . S
C69 C70 1.381 . S
C70 H62 0.930 . S
C70 C66 1.390 . S
C70 C69 1.381 . S
N71 C64 1.286 . S
N71 C67 1.413 . S
H72 C77 0.930 . S
H73 C80 0.930 . S
H74 C82 0.930 . S
H75 C76 1.016 . S
C76 H75 1.016 . S
C76 N83 1.286 . S
C77 H72 0.930 . S
C77 C78 1.397 . S
C77 C79 1.361 . S
C78 C77 1.397 . S
C78 C82 1.390 . S
C79 C77 1.361 . S
C79 C80 1.393 . S
C79 N83 1.413 . S
C80 H73 0.930 . S
C80 C79 1.393 . S
C80 C81 1.399 . S
C81 C80 1.399 . S
C81 C82 1.381 . S
C82 H74 0.930 . S
C82 C78 1.390 . S
C82 C81 1.381 . S
N83 C76 1.286 . S
N83 C79 1.413 . S
H84 C89 0.930 . S
H85 C92 0.930 . S
H86 C94 0.930 . S
H87 C88 1.016 . S
C88 H87 1.016 . S
C88 N95 1.286 . S
C89 H84 0.930 . S
C89 C90 1.397 . S
C89 C91 1.361 . S
C90 C89 1.397 . S
C90 C94 1.390 . S
C91 C89 1.361 . S
C91 C92 1.393 . S
C91 N95 1.413 . S
C92 H85 0.930 . S
C92 C91 1.393 . S
C92 C93 1.399 . S
C93 C92 1.399 . S
C93 C94 1.381 . S
C94 H86 0.930 . S
C94 C90 1.390 . S
C94 C93 1.381 . S
N95 C88 1.286 . S
N95 C91 1.413 . S
O96 Mn97 2.163 1_655 S
O96 C110 1.244 . S
Mn97 O96 2.163 1_455 S
Mn97 O100 2.160 1_545 S
Mn97 O101 2.221 . S
Mn97 O103 2.163 1_445 S
Mn97 O105 2.160 . S
Mn97 O115 2.221 1_445 S
O98 Mn99 2.087 . S
O98 C110 1.256 1_565 S
Mn99 O98 2.087 . S
Mn99 O106 2.089 1_565 S
Mn99 O115 2.290 . S
Mn99 O116 2.251 . S
O100 Mn97 2.160 1_565 S
O100 C111 1.239 . S
O101 Mn97 2.221 . S
O101 Mn102 2.290 . S
O101 C112 1.278 . S
Mn102 O101 2.290 . S
Mn102 O104 2.089 1_545 S
Mn102 O107 2.251 . S
Mn102 O108 2.087 . S
O103 Mn97 2.163 1_665 S
O103 C113 1.244 . S
O104 Mn102 2.089 1_565 S
O104 C111 1.256 . S
O105 Mn97 2.160 . S
O105 C114 1.239 . S
O106 Mn99 2.089 1_545 S
O106 C114 1.256 1_655 S
O107 Mn102 2.251 . S
O107 C112 1.241 . S
O108 Mn102 2.087 . S
O108 C113 1.256 1_445 S
C109 O115 1.278 . S
C109 O116 1.241 . S
C110 O96 1.244 . S
C110 O98 1.256 1_545 S
C111 O100 1.239 . S
C111 O104 1.256 . S
C112 O101 1.278 . S
C112 O107 1.241 . S
C113 O103 1.244 . S
C113 O108 1.256 1_665 S
C114 O105 1.239 . S
C114 O106 1.256 1_455 S
O115 Mn97 2.221 1_665 S
O115 Mn99 2.290 . S
O115 C109 1.278 . S
O116 Mn99 2.251 . S
O116 C109 1.241 . S
O117 Mn118 2.163 1_556 S
O117 C131 1.244 1_545 S
Mn118 O117 2.163 1_554 S
Mn118 O121 2.160 . S
Mn118 O122 2.221 . S
Mn118 O124 2.163 . S
Mn118 O126 2.160 1_554 S
Mn118 O136 2.221 1_545 S
O119 Mn120 2.087 . S
O119 C131 1.256 . S
Mn120 O119 2.087 . S
Mn120 O127 2.089 . S
Mn120 O136 2.290 1_556 S
Mn120 O137 2.251 1_556 S
O121 Mn118 2.160 . S
O121 C132 1.239 . S
O122 Mn118 2.221 . S
O122 Mn123 2.290 . S
O122 C133 1.278 1_554 S
Mn123 O122 2.290 . S
Mn123 O125 2.089 . S
Mn123 O128 2.251 1_554 S
Mn123 O129 2.087 . S
O124 Mn118 2.163 . S
O124 C134 1.244 . S
O125 Mn123 2.089 . S
O125 C132 1.256 . S
O126 Mn118 2.160 1_556 S
O126 C135 1.239 1_545 S
O127 Mn120 2.089 . S
O127 C135 1.256 . S
O128 Mn123 2.251 1_556 S
O128 C133 1.241 . S
O129 Mn123 2.087 . S
O129 C134 1.256 . S
C130 O136 1.278 . S
C130 O137 1.241 . S
C131 O117 1.244 1_565 S
C131 O119 1.256 . S
C132 O121 1.239 . S
C132 O125 1.256 . S
C133 O122 1.278 1_556 S
C133 O128 1.241 . S
C134 O124 1.244 . S
C134 O129 1.256 . S
C135 O126 1.239 1_565 S
C135 O127 1.256 . S
O136 Mn118 2.221 1_565 S
O136 Mn120 2.290 1_554 S
O136 C130 1.278 . S
O137 Mn120 2.251 1_554 S
O137 C130 1.241 . S
O138 Mn139 2.163 . S
O138 C152 1.244 . S
Mn139 O138 2.163 . S
Mn139 O142 2.160 . S
Mn139 O143 2.221 . S
Mn139 O145 2.163 . S
Mn139 O147 2.160 . S
Mn139 O157 2.221 . S
O140 Mn141 2.087 . S
O140 C152 1.256 . S
Mn141 O140 2.087 . S
Mn141 O148 2.089 . S
Mn141 O157 2.290 . S
Mn141 O158 2.251 . S
O142 Mn139 2.160 . S
O142 C153 1.239 . S
O143 Mn139 2.221 . S
O143 Mn144 2.290 . S
O143 C154 1.278 . S
Mn144 O143 2.290 . S
Mn144 O146 2.089 . S
Mn144 O149 2.251 . S
Mn144 O150 2.087 . S
O145 Mn139 2.163 . S
O145 C155 1.244 . S
O146 Mn144 2.089 . S
O146 C153 1.256 . S
O147 Mn139 2.160 . S
O147 C156 1.239 . S
O148 Mn141 2.089 . S
O148 C156 1.256 . S
O149 Mn144 2.251 . S
O149 C154 1.241 . S
O150 Mn144 2.087 . S
O150 C155 1.256 . S
C151 O157 1.278 . S
C151 O158 1.241 . S
C152 O138 1.244 . S
C152 O140 1.256 . S
C153 O142 1.239 . S
C153 O146 1.256 . S
C154 O143 1.278 . S
C154 O149 1.241 . S
C155 O145 1.244 . S
C155 O150 1.256 . S
C156 O147 1.239 . S
C156 O148 1.256 . S
O157 Mn139 2.221 . S
O157 Mn141 2.290 . S
O157 C151 1.278 . S
O158 Mn141 2.251 . S
O158 C151 1.241 . S
O159 Mn160 2.163 1_655 S
O159 C173 1.244 1_554 S
Mn160 O159 2.163 1_455 S
Mn160 O163 2.160 . S
Mn160 O164 2.221 . S
Mn160 O166 2.163 . S
Mn160 O168 2.160 1_554 S
Mn160 O178 2.221 1_554 S
O161 Mn162 2.087 . S
O161 C173 1.256 . S
Mn162 O161 2.087 . S
Mn162 O169 2.089 . S
Mn162 O178 2.290 1_655 S
Mn162 O179 2.251 1_655 S
O163 Mn160 2.160 . S
O163 C174 1.239 . S
O164 Mn160 2.221 . S
O164 Mn165 2.290 . S
O164 C175 1.278 1_455 S
Mn165 O164 2.290 . S
Mn165 O167 2.089 . S
Mn165 O170 2.251 1_455 S
Mn165 O171 2.087 . S
O166 Mn160 2.163 . S
O166 C176 1.244 . S
O167 Mn165 2.089 . S
O167 C174 1.256 . S
O168 Mn160 2.160 1_556 S
O168 C177 1.239 1_455 S
O169 Mn162 2.089 . S
O169 C177 1.256 . S
O170 Mn165 2.251 1_655 S
O170 C175 1.241 . S
O171 Mn165 2.087 . S
O171 C176 1.256 . S
C172 O178 1.278 . S
C172 O179 1.241 . S
C173 O159 1.244 1_556 S
C173 O161 1.256 . S
C174 O163 1.239 . S
C174 O167 1.256 . S
C175 O164 1.278 1_655 S
C175 O170 1.241 . S
C176 O166 1.244 . S
C176 O171 1.256 . S
C177 O168 1.239 1_655 S
C177 O169 1.256 . S
O178 Mn160 2.221 1_556 S
O178 Mn162 2.290 1_455 S
O178 C172 1.278 . S
O179 Mn162 2.251 1_455 S
O179 C172 1.241 . S
C180 C181 1.369 . S
C180 C182 1.419 . S
C180 H184 0.930 . S
C181 C180 1.369 . S
C181 C190 1.429 . S
C182 C180 1.419 . S
C182 C183 1.363 . S
C182 H185 0.929 . S
C183 C182 1.363 . S
C183 C189 1.428 . S
H184 C180 0.930 . S
H185 C182 0.929 . S
S186 N187 1.613 1_665 S
S186 N188 1.609 1_565 S
N187 S186 1.613 1_445 S
N187 C190 1.350 . S
N188 S186 1.609 1_545 S
N188 C189 1.360 1_655 S
C189 C183 1.428 . S
C189 N188 1.360 1_455 S
C189 C190 1.434 . S
C190 C181 1.429 . S
C190 N187 1.350 . S
C190 C189 1.434 . S
C191 C192 1.369 . S
C191 C193 1.419 . S
C191 H195 0.930 . S
C192 C191 1.369 . S
C192 C201 1.429 . S
C193 C191 1.419 . S
C193 C194 1.363 . S
C193 H196 0.929 . S
C194 C193 1.363 . S
C194 C200 1.428 . S
H195 C191 0.930 . S
H196 C193 0.929 . S
S197 N198 1.613 . S
S197 N199 1.610 . S
N198 S197 1.613 . S
N198 C201 1.350 1_545 S
N199 S197 1.610 . S
N199 C200 1.351 1_545 S
C200 C194 1.428 . S
C200 N199 1.351 1_565 S
C200 C201 1.434 . S
C201 C192 1.429 . S
C201 N198 1.350 1_565 S
C201 C200 1.434 . S
C202 C203 1.369 . S
C202 C204 1.419 . S
C202 H206 0.930 . S
C203 C202 1.369 . S
C203 C212 1.429 . S
C204 C202 1.419 . S
C204 C205 1.363 . S
C204 H207 0.929 . S
C205 C204 1.363 . S
C205 C211 1.428 . S
H206 C202 0.930 . S
H207 C204 0.929 . S
S208 N209 1.613 . S
S208 N210 1.610 . S
N209 S208 1.613 . S
N209 C212 1.350 . S
N210 S208 1.610 . S
N210 C211 1.351 . S
C211 C205 1.428 . S
C211 N210 1.351 . S
C211 C212 1.434 . S
C212 C203 1.429 . S
C212 N209 1.350 . S
C212 C211 1.434 . S
C213 C214 1.369 . S
C213 C215 1.419 . S
C213 H217 0.930 . S
C214 C213 1.369 . S
C214 C223 1.429 . S
C215 C213 1.419 . S
C215 C216 1.363 . S
C215 H218 0.929 . S
C216 C215 1.363 . S
C216 C222 1.428 . S
H217 C213 0.930 . S
H218 C215 0.929 . S
S219 N220 1.613 . S
S219 N221 1.610 . S
N220 S219 1.613 . S
N220 C223 1.350 . S
N221 S219 1.610 . S
N221 C222 1.351 . S
C222 C216 1.428 . S
C222 N221 1.351 . S
C222 C223 1.434 . S
C223 C214 1.429 . S
C223 N220 1.350 . S
C223 C222 1.434 . S
C224 C225 1.369 . S
C224 C226 1.419 . S
C224 H228 0.930 . S
C225 C224 1.369 . S
C225 C234 1.429 . S
C226 C224 1.419 . S
C226 C227 1.363 . S
C226 H229 0.929 1_545 S
C227 C226 1.363 . S
C227 C233 1.428 . S
H228 C224 0.930 . S
H229 C226 0.929 1_565 S
S230 N231 1.613 . S
S230 N232 1.610 . S
N231 S230 1.613 . S
N231 C234 1.350 . S
N232 S230 1.610 . S
N232 C233 1.351 . S
C233 C227 1.428 . S
C233 N232 1.351 . S
C233 C234 1.434 . S
C234 C225 1.429 . S
C234 N231 1.350 . S
C234 C233 1.434 . S
C235 C236 1.369 . S
C235 C237 1.419 . S
C235 H239 0.930 . S
C236 C235 1.369 . S
C236 C245 1.429 . S
C237 C235 1.419 . S
C237 C238 1.363 . S
C237 H240 0.929 . S
C238 C237 1.363 . S
C238 C244 1.428 . S
H239 C235 0.930 . S
H240 C237 0.929 . S
S241 N242 1.613 . S
S241 N243 1.610 . S
N242 S241 1.613 . S
N242 C245 1.350 1_545 S
N243 S241 1.610 . S
N243 C244 1.351 1_545 S
C244 C238 1.428 . S
C244 N243 1.351 1_565 S
C244 C245 1.434 . S
C245 C236 1.429 . S
C245 N242 1.350 1_565 S
C245 C244 1.434 . S
C246 C247 1.369 . S
C246 C248 1.419 . S
C246 H250 0.930 . S
C247 C246 1.369 . S
C247 C256 1.429 . S
C248 C246 1.419 . S
C248 C249 1.363 . S
C248 H251 0.929 . S
C249 C248 1.363 . S
C249 C255 1.428 1_556 S
H250 C246 0.930 . S
H251 C248 0.929 . S
S252 N253 1.613 . S
S252 N254 1.610 . S
N253 S252 1.613 . S
N253 C256 1.350 1_554 S
N254 S252 1.610 . S
N254 C255 1.351 . S
C255 C249 1.428 1_554 S
C255 N254 1.351 . S
C255 C256 1.434 1_554 S
C256 C247 1.429 . S
C256 N253 1.350 1_556 S
C256 C255 1.434 1_556 S
C257 C258 1.369 . S
C257 C259 1.419 . S
C257 H261 0.930 . S
C258 C257 1.369 . S
C258 C267 1.429 . S
C259 C257 1.419 . S
C259 C260 1.363 . S
C259 H262 0.929 . S
C260 C259 1.363 . S
C260 C266 1.428 . S
H261 C257 0.930 . S
H262 C259 0.929 . S
S263 N264 1.613 . S
S263 N265 1.610 . S
N264 S263 1.613 . S
N264 C267 1.350 . S
N265 S263 1.610 . S
N265 C266 1.351 . S
C266 C260 1.428 . S
C266 N265 1.351 . S
C266 C267 1.434 . S
C267 C258 1.429 . S
C267 N264 1.350 . S
C267 C266 1.434 . S
C268 C269 1.369 . S
C268 C270 1.419 . S
C268 H272 0.930 . S
C269 C268 1.369 . S
C269 C278 1.429 . S
C270 C268 1.419 . S
C270 C271 1.363 . S
C270 H273 0.929 . S
C271 C270 1.363 . S
C271 C277 1.428 . S
H272 C268 0.930 . S
H273 C270 0.929 . S
S274 N275 1.613 1_556 S
S274 N276 1.610 . S
N275 S274 1.613 1_554 S
N275 C278 1.350 . S
N276 S274 1.610 . S
N276 C277 1.351 1_556 S
C277 C271 1.428 . S
C277 N276 1.351 1_554 S
C277 C278 1.434 . S
C278 C269 1.429 . S
C278 N275 1.350 . S
C278 C277 1.434 . S
C279 C280 1.369 . S
C279 C281 1.419 . S
C279 H283 0.930 . S
C280 C279 1.369 . S
C280 C289 1.429 . S
C281 C279 1.419 . S
C281 C282 1.363 . S
C281 H284 0.929 . S
C282 C281 1.363 . S
C282 C288 1.428 . S
H283 C279 0.930 . S
H284 C281 0.929 . S
S285 N286 1.613 . S
S285 N287 1.610 . S
N286 S285 1.613 . S
N286 C289 1.350 1_554 S
N287 S285 1.610 . S
N287 C288 1.351 1_554 S
C288 C282 1.428 . S
C288 N287 1.351 1_556 S
C288 C289 1.434 . S
C289 C280 1.429 . S
C289 N286 1.350 1_556 S
C289 C288 1.434 . S
C290 C291 1.369 . S
C290 C292 1.419 . S
C290 H294 0.930 . S
C291 C290 1.369 . S
C291 C300 1.429 . S
C292 C290 1.419 . S
C292 C293 1.363 . S
C292 H295 0.929 . S
C293 C292 1.363 . S
C293 C299 1.428 . S
H294 C290 0.930 . S
H295 C292 0.929 . S
S296 N297 1.613 . S
S296 N298 1.610 . S
N297 S296 1.613 . S
N297 C300 1.350 . S
N298 S296 1.610 . S
N298 C299 1.351 . S
C299 C293 1.428 . S
C299 N298 1.351 . S
C299 C300 1.434 . S
C300 C291 1.429 . S
C300 N297 1.350 . S
C300 C299 1.434 . S
C301 C302 1.369 . S
C301 C303 1.419 . S
C301 H305 0.930 . S
C302 C301 1.369 . S
C302 C311 1.429 . S
C303 C301 1.419 . S
C303 C304 1.363 . S
C303 H306 0.929 . S
C304 C303 1.363 . S
C304 C310 1.428 . S
H305 C301 0.930 . S
H306 C303 0.929 . S
S307 N308 1.613 . S
S307 N309 1.610 . S
N308 S307 1.613 . S
N308 C311 1.350 . S
N309 S307 1.610 . S
N309 C310 1.351 . S
C310 C304 1.428 . S
C310 N309 1.351 . S
C310 C311 1.434 . S
C311 C302 1.429 . S
C311 N308 1.350 . S
C311 C310 1.434 . S
C312 C313 1.369 . S
C312 C314 1.419 . S
C312 H316 0.930 . S
C313 C312 1.369 . S
C313 C322 1.429 . S
C314 C312 1.419 . S
C314 C315 1.363 . S
C314 H317 0.929 . S
C315 C314 1.363 . S
C315 C321 1.428 . S
H316 C312 0.930 . S
H317 C314 0.929 . S
S318 N319 1.613 . S
S318 N320 1.610 . S
N319 S318 1.613 . S
N319 C322 1.350 1_455 S
N320 S318 1.610 . S
N320 C321 1.351 1_455 S
C321 C315 1.428 . S
C321 N320 1.351 1_655 S
C321 C322 1.434 . S
C322 C313 1.429 . S
C322 N319 1.350 1_655 S
C322 C321 1.434 . S
C323 C324 1.369 . S
C323 C325 1.419 . S
C323 H327 0.930 . S
C324 C323 1.369 . S
C324 C333 1.429 . S
C325 C323 1.419 . S
C325 C326 1.363 . S
C325 H328 0.929 . S
C326 C325 1.363 . S
C326 C332 1.428 . S
H327 C323 0.930 . S
H328 C325 0.929 . S
S329 N330 1.613 1_565 S
S329 N331 1.610 . S
N330 S329 1.613 1_545 S
N330 C333 1.350 . S
N331 S329 1.610 . S
N331 C332 1.351 1_565 S
C332 C326 1.428 . S
C332 N331 1.351 1_545 S
C332 C333 1.434 . S
C333 C324 1.429 . S
C333 N330 1.350 . S
C333 C332 1.434 . S
C334 C335 1.369 . S
C334 C336 1.419 . S
C334 H338 0.930 . S
C335 C334 1.369 . S
C335 C344 1.429 . S
C336 C334 1.419 . S
C336 C337 1.363 . S
C336 H339 0.929 . S
C337 C336 1.363 . S
C337 C343 1.428 . S
H338 C334 0.930 . S
H339 C336 0.929 . S
S340 N341 1.613 . S
S340 N342 1.610 . S
N341 S340 1.613 . S
N341 C344 1.350 . S
N342 S340 1.610 . S
N342 C343 1.351 . S
C343 C337 1.428 . S
C343 N342 1.351 . S
C343 C344 1.434 . S
C344 C335 1.429 . S
C344 N341 1.350 . S
C344 C343 1.434 . S
C345 C346 1.369 . S
C345 C347 1.419 . S
C345 H349 0.930 . S
C346 C345 1.369 . S
C346 C355 1.429 . S
C347 C345 1.419 . S
C347 C348 1.363 . S
C347 H350 0.929 . S
C348 C347 1.363 . S
C348 C354 1.428 . S
H349 C345 0.930 . S
H350 C347 0.929 . S
S351 N352 1.613 . S
S351 N353 1.610 . S
N352 S351 1.613 . S
N352 C355 1.350 . S
N353 S351 1.610 . S
N353 C354 1.351 . S
C354 C348 1.428 . S
C354 N353 1.351 . S
C354 C355 1.434 . S
C355 C346 1.429 . S
C355 N352 1.350 . S
C355 C354 1.434 . S
C356 C357 1.369 . S
C356 C358 1.419 . S
C356 H360 0.930 . S
C357 C356 1.369 . S
C357 C366 1.429 . S
C358 C356 1.419 . S
C358 C359 1.363 . S
C358 H361 0.929 . S
C359 C358 1.363 . S
C359 C365 1.428 . S
H360 C356 0.930 . S
H361 C358 0.929 . S
S362 N363 1.613 . S
S362 N364 1.610 . S
N363 S362 1.613 . S
N363 C366 1.350 1_554 S
N364 S362 1.610 . S
N364 C365 1.351 1_554 S
C365 C359 1.428 . S
C365 N364 1.351 1_556 S
C365 C366 1.434 . S
C366 C357 1.429 . S
C366 N363 1.350 1_556 S
C366 C365 1.434 . S
C367 C368 1.369 . S
C367 C369 1.419 . S
C367 H371 0.930 . S
C368 C367 1.369 . S
C368 C377 1.429 . S
C369 C367 1.419 . S
C369 C370 1.363 . S
C369 H372 0.929 . S
C370 C369 1.363 . S
C370 C376 1.428 . S
H371 C367 0.930 . S
H372 C369 0.929 . S
S373 N374 1.613 . S
S373 N375 1.610 . S
N374 S373 1.613 . S
N374 C377 1.350 . S
N375 S373 1.610 . S
N375 C376 1.351 . S
C376 C370 1.428 . S
C376 N375 1.351 . S
C376 C377 1.434 . S
C377 C368 1.429 . S
C377 N374 1.350 . S
C377 C376 1.434 . S
C378 C379 1.369 . S
C378 C380 1.419 . S
C378 H382 0.930 . S
C379 C378 1.369 . S
C379 C388 1.429 . S
C380 C378 1.419 . S
C380 C381 1.363 . S
C380 H383 0.929 . S
C381 C380 1.363 . S
C381 C387 1.428 . S
H382 C378 0.930 . S
H383 C380 0.929 . S
S384 N385 1.613 . S
S384 N386 1.610 . S
N385 S384 1.613 . S
N385 C388 1.350 . S
N386 S384 1.610 . S
N386 C387 1.351 . S
C387 C381 1.428 . S
C387 N386 1.351 . S
C387 C388 1.434 . S
C388 C379 1.429 . S
C388 N385 1.350 . S
C388 C387 1.434 . S
C389 C390 1.369 . S
C389 C391 1.419 . S
C389 H393 0.930 . S
C390 C389 1.369 . S
C390 C399 1.429 . S
C391 C389 1.419 . S
C391 C392 1.363 . S
C391 H394 0.929 . S
C392 C391 1.363 . S
C392 C398 1.428 . S
H393 C389 0.930 . S
H394 C391 0.929 . S
S395 N396 1.613 . S
S395 N397 1.610 . S
N396 S395 1.613 . S
N396 C399 1.350 . S
N397 S395 1.610 . S
N397 C398 1.351 . S
C398 C392 1.428 . S
C398 N397 1.351 . S
C398 C399 1.434 . S
C399 C390 1.429 . S
C399 N396 1.350 . S
C399 C398 1.434 . S
C400 C401 1.369 . S
C400 C402 1.419 . S
C400 H404 0.930 . S
C401 C400 1.369 . S
C401 C410 1.429 . S
C402 C400 1.419 . S
C402 C403 1.363 . S
C402 H405 0.929 . S
C403 C402 1.363 . S
C403 C409 1.422 1_655 S
H404 C400 0.930 . S
H405 C402 0.929 . S
S406 N407 1.613 1_554 S
S406 N408 1.610 . S
N407 S406 1.613 1_556 S
N407 C410 1.350 1_455 S
N408 S406 1.610 . S
N408 C409 1.368 1_554 S
C409 C403 1.422 1_455 S
C409 N408 1.368 1_556 S
C409 C410 1.424 1_455 S
C410 C401 1.429 . S
C410 N407 1.350 1_655 S
C410 C409 1.424 1_655 S
C411 C412 1.369 . S
C411 C413 1.419 . S
C411 H415 0.930 . S
C412 C411 1.369 . S
C412 C421 1.429 . S
C413 C411 1.419 . S
C413 C414 1.363 . S
C413 H416 0.929 . S
C414 C413 1.363 . S
C414 C420 1.428 . S
H415 C411 0.930 . S
H416 C413 0.929 . S
S417 N418 1.613 . S
S417 N419 1.610 . S
N418 S417 1.613 . S
N418 C421 1.350 . S
N419 S417 1.610 . S
N419 C420 1.351 . S
C420 C414 1.428 . S
C420 N419 1.351 . S
C420 C421 1.434 . S
C421 C412 1.429 . S
C421 N418 1.350 . S
C421 C420 1.434 . S
C422 C423 1.369 . S
C422 C424 1.419 . S
C422 H426 0.930 . S
C423 C422 1.369 . S
C423 C432 1.429 . S
C424 C422 1.419 . S
C424 C425 1.363 . S
C424 H427 0.929 . S
C425 C424 1.363 . S
C425 C431 1.428 . S
H426 C422 0.930 . S
H427 C424 0.929 . S
S428 N429 1.613 1_655 S
S428 N430 1.610 . S
N429 S428 1.613 1_455 S
N429 C432 1.350 . S
N430 S428 1.610 . S
N430 C431 1.351 1_655 S
C431 C425 1.428 . S
C431 N430 1.351 1_455 S
C431 C432 1.434 . S
C432 C423 1.429 . S
C432 N429 1.350 . S
C432 C431 1.434 . S
C433 C434 1.369 . S
C433 C435 1.419 . S
C433 H437 0.930 . S
C434 C433 1.369 . S
C434 C443 1.429 . S
C435 C433 1.419 . S
C435 C436 1.363 . S
C435 H438 0.929 . S
C436 C435 1.363 . S
C436 C442 1.428 . S
H437 C433 0.930 . S
H438 C435 0.929 . S
S439 N440 1.613 . S
S439 N441 1.610 . S
N440 S439 1.613 . S
N440 C443 1.350 . S
N441 S439 1.610 . S
N441 C442 1.351 . S
C442 C436 1.428 . S
C442 N441 1.351 . S
C442 C443 1.434 . S
C443 C434 1.429 . S
C443 N440 1.350 . S
C443 C442 1.434 . S
C181 C6 1.714 . S
C183 C114 1.657 . S
C192 C18 1.710 . S
C194 C131 1.665 . S
C205 C154 1.262 . S
C203 C28 1.513 . S
C214 C40 1.382 . S
C216 C175 1.071 . S
C227 C134 1.860 . S
C225 C9 1.914 . S
C238 C111 1.574 . S
C236 C16 1.624 . S
C249 C173 1.384 . S
C247 C30 1.445 . S
C260 C152 1.228 . S
C258 C42 1.250 . S
C269 C4 1.629 . S
C271 C176 1.591 . S
C282 C133 1.337 . S
C280 C33 1.654 . S
C291 C45 1.470 . S
C293 C109 1.314 . S
C302 C21 1.681 . S
C304 C155 1.670 . S
C315 C113 1.689 . S
C313 C57 1.797 . S
C324 C66 1.582 . S
C326 C132 1.544 . S
C335 C76 1.575 . S
C337 C151 1.327 . S
C346 C88 1.269 . S
C348 C172 0.995 . S
C357 C54 1.835 . S
C359 C135 1.797 . S
C370 C110 1.681 . S
C368 C64 1.711 . S
C381 C174 1.224 . S
C379 C78 1.288 . S
C392 C153 1.328 . S
C390 C93 1.351 . S
C401 C52 1.469 . S
C403 C177 1.433 . S
C414 C130 1.309 . S
C412 C81 1.568 . S
C425 C112 1.202 . S
C423 C90 1.334 . S
C434 C69 1.666 . S
C436 C156 1.637 . S
