# Generated by pormake.
# Topology pto, (3,4)-cn, num edge types: 1
# Building blocks:
#     Node 0, Type 0, BuildingBlock: WUSLED_clean_sbu_0, # of connection points: 3
#     Node 1, Type 0, BuildingBlock: WUSLED_clean_sbu_0, # of connection points: 3
#     Node 2, Type 0, BuildingBlock: WUSLED_clean_sbu_0, # of connection points: 3
#     Node 3, Type 0, BuildingBlock: WUSLED_clean_sbu_0, # of connection points: 3
#     Node 4, Type 0, BuildingBlock: WUSLED_clean_sbu_0, # of connection points: 3
#     Node 5, Type 0, BuildingBlock: WUSLED_clean_sbu_0, # of connection points: 3
#     Node 6, Type 0, BuildingBlock: WUSLED_clean_sbu_0, # of connection points: 3
#     Node 7, Type 0, BuildingBlock: WUSLED_clean_sbu_0, # of connection points: 3
#     Node 8, Type 1, BuildingBlock: GIZVER_clean_linker_0, # of connection points: 4
#     Node 9, Type 1, BuildingBlock: GIZVER_clean_linker_0, # of connection points: 4
#     Node 10, Type 1, BuildingBlock: GIZVER_clean_linker_0, # of connection points: 4
#     Node 11, Type 1, BuildingBlock: GIZVER_clean_linker_0, # of connection points: 4
#     Node 12, Type 1, BuildingBlock: GIZVER_clean_linker_0, # of connection points: 4
#     Node 13, Type 1, BuildingBlock: GIZVER_clean_linker_0, # of connection points: 4
#     Edge 14, Type (0, 1), None
#     Edge 15, Type (0, 1), None
#     Edge 16, Type (0, 1), None
#     Edge 17, Type (0, 1), None
#     Edge 18, Type (0, 1), None
#     Edge 19, Type (0, 1), None
#     Edge 20, Type (0, 1), None
#     Edge 21, Type (0, 1), None
#     Edge 22, Type (0, 1), None
#     Edge 23, Type (0, 1), None
#     Edge 24, Type (0, 1), None
#     Edge 25, Type (0, 1), None
#     Edge 26, Type (0, 1), None
#     Edge 27, Type (0, 1), None
#     Edge 28, Type (0, 1), None
#     Edge 29, Type (0, 1), None
#     Edge 30, Type (0, 1), None
#     Edge 31, Type (0, 1), None
#     Edge 32, Type (0, 1), None
#     Edge 33, Type (0, 1), None
#     Edge 34, Type (0, 1), None
#     Edge 35, Type (0, 1), None
#     Edge 36, Type (0, 1), None
#     Edge 37, Type (0, 1), None
# Relax obj value: 0.003
# Max RMSD: 0.032
# Mean RMSD: 0.021
data_MOF--net-pto--node1-WUSLED_clean_sbu_0--node2-GIZVER_clean_linker_0--edge1-none
_symmetry_space_group_name_H-M    P1
_symmetry_Int_Tables_number       1
_symmetry_cell_setting            triclinic
loop_
_symmetry_equiv_pos_as_xyz
'x, y, z'
_cell_length_a     35.666761
_cell_length_b     30.894035
_cell_length_c     24.439213
_cell_angle_alpha  89.595135
_cell_angle_beta   90.036188
_cell_angle_gamma 90.194592
loop_
_atom_site_label
_atom_site_type_symbol
_atom_site_fract_x
_atom_site_fract_y
_atom_site_fract_z
_atom_type_partial_charge
C0 C 0.26914 0.21126 0.27727 0.0
C1 C 0.30515 0.19438 0.28601 0.0
C2 C 0.28077 0.14811 0.35869 0.0
C3 C 0.31093 0.16282 0.32647 0.0
C4 C 0.2444 0.16287 0.34685 0.0
C5 C 0.23866 0.19427 0.30644 0.0
U6 U 0.30463 0.2977 0.17725 0.0
O7 O 0.29546 0.36771 0.17593 0.0
O8 O 0.27418 0.32822 0.10823 0.0
C9 C 0.27438 0.36634 0.13186 0.0
C10 C 0.26338 0.24931 0.24221 0.0
C11 C 0.23807 0.38902 0.13596 0.0
C12 C 0.19152 0.42564 0.19159 0.0
C13 C 0.22164 0.39705 0.18722 0.0
C14 C 0.19113 0.43509 0.09313 0.0
C15 C 0.17682 0.44593 0.14476 0.0
C16 C 0.2217 0.40697 0.0888 0.0
C17 C 0.40523 0.29942 0.12723 0.0
C18 C 0.4241 0.35397 0.06088 0.0
C19 C 0.46507 0.29334 0.08036 0.0
C20 C 0.43922 0.27769 0.11891 0.0
C21 C 0.45704 0.33082 0.04984 0.0
C22 C 0.39838 0.33843 0.09936 0.0
C23 C 0.37552 0.27932 0.16047 0.0
O24 O 0.28074 0.28458 0.25839 0.0
O25 O 0.26585 0.24285 0.18926 0.0
O26 O 0.34792 0.26222 0.1321 0.0
O27 O 0.36383 0.30222 0.2022 0.0
H28 H 0.32898 0.20725 0.26365 0.0
H29 H 0.33928 0.15233 0.33521 0.0
H30 H 0.22073 0.15193 0.3711 0.0
H31 H 0.21069 0.20689 0.29996 0.0
H32 H 0.18114 0.43392 0.23182 0.0
H33 H 0.23344 0.3833 0.22428 0.0
H34 H 0.18061 0.45096 0.05657 0.0
H35 H 0.23386 0.4012 0.0489 0.0
H36 H 0.4171 0.38252 0.03699 0.0
H37 H 0.48991 0.27456 0.07155 0.0
H38 H 0.44484 0.24745 0.14003 0.0
H39 H 0.37221 0.35553 0.10515 0.0
C40 C 0.25962 0.84336 0.62623 0.0
C41 C 0.29227 0.86847 0.63153 0.0
C42 C 0.27918 0.90386 0.54448 0.0
C43 C 0.3019 0.89869 0.59106 0.0
C44 C 0.24551 0.88019 0.54082 0.0
C45 C 0.23582 0.85014 0.58144 0.0
U46 U 0.29482 0.76533 0.7338 0.0
O47 O 0.28778 0.69523 0.74355 0.0
O48 O 0.26682 0.73861 0.80733 0.0
C49 C 0.26828 0.69877 0.7889 0.0
C50 C 0.25226 0.80727 0.66408 0.0
C51 C 0.23317 0.67354 0.79032 0.0
C52 C 0.18079 0.64046 0.74223 0.0
C53 C 0.20976 0.67112 0.74419 0.0
C54 C 0.19625 0.61707 0.8343 0.0
C55 C 0.17477 0.61181 0.78642 0.0
C56 C 0.22529 0.64754 0.83609 0.0
C57 C 0.39694 0.77397 0.77917 0.0
C58 C 0.42781 0.71738 0.83169 0.0
C59 C 0.45028 0.79132 0.83703 0.0
C60 C 0.42287 0.80412 0.79934 0.0
C61 C 0.45216 0.74807 0.85515 0.0
C62 C 0.40025 0.73026 0.79438 0.0
C63 C 0.36511 0.7891 0.74586 0.0
O64 O 0.26985 0.7713 0.65188 0.0
O65 O 0.25389 0.81673 0.71641 0.0
O66 O 0.33737 0.80622 0.77364 0.0
O67 O 0.35366 0.76276 0.70724 0.0
H68 H 0.31114 0.86333 0.66572 0.0
H69 H 0.32825 0.91599 0.59458 0.0
H70 H 0.22747 0.88367 0.50539 0.0
H71 H 0.21057 0.83092 0.57671 0.0
H72 H 0.16504 0.63708 0.70459 0.0
H73 H 0.21529 0.6911 0.70847 0.0
H74 H 0.19202 0.59583 0.86922 0.0
H75 H 0.24291 0.64912 0.87217 0.0
H76 H 0.42873 0.68377 0.84456 0.0
H77 H 0.46821 0.81586 0.85478 0.0
H78 H 0.42077 0.83799 0.78796 0.0
H79 H 0.38057 0.70638 0.77925 0.0
C80 C 0.73829 0.68487 0.11897 0.0
C81 C 0.72747 0.6525 0.08236 0.0
C82 C 0.67463 0.69639 0.05265 0.0
C83 C 0.69578 0.65813 0.04949 0.0
C84 C 0.68352 0.72682 0.0932 0.0
C85 C 0.71529 0.72117 0.12606 0.0
U86 U 0.81595 0.73605 0.20379 0.0
O87 O 0.78228 0.77021 0.26498 0.0
O88 O 0.80264 0.80507 0.1922 0.0
C89 C 0.78667 0.80792 0.24056 0.0
C90 C 0.77596 0.68352 0.14308 0.0
C91 C 0.80024 0.84254 0.27671 0.0
C92 C 0.79181 0.88314 0.36046 0.0
C93 C 0.77743 0.856 0.32005 0.0
C94 C 0.8512 0.8865 0.31248 0.0
C95 C 0.82914 0.89761 0.35781 0.0
C96 C 0.83696 0.85887 0.27238 0.0
C97 C 0.90909 0.67897 0.2123 0.0
C98 C 0.96936 0.64234 0.2116 0.0
C99 C 0.91477 0.60814 0.17126 0.0
C100 C 0.89305 0.64395 0.18462 0.0
C101 C 0.95303 0.60662 0.18527 0.0
C102 C 0.94743 0.67828 0.22523 0.0
C103 C 0.88564 0.71605 0.22722 0.0
O104 O 0.77766 0.68019 0.19667 0.0
O105 O 0.79933 0.71246 0.12288 0.0
O106 O 0.85726 0.70679 0.25964 0.0
O107 O 0.87627 0.74139 0.18608 0.0
H108 H 0.74493 0.62428 0.07646 0.0
H109 H 0.68954 0.63426 0.01849 0.0
H110 H 0.66805 0.75684 0.09602 0.0
H111 H 0.72337 0.74653 0.15416 0.0
H112 H 0.77432 0.89126 0.39512 0.0
H113 H 0.74907 0.8437 0.32415 0.0
H114 H 0.88022 0.89679 0.30995 0.0
H115 H 0.85526 0.84869 0.23957 0.0
H116 H 0.99874 0.64196 0.22286 0.0
H117 H 0.90157 0.58142 0.15009 0.0
H118 H 0.86358 0.64419 0.17373 0.0
H119 H 0.96027 0.70529 0.24629 0.0
C120 C 0.82911 0.18112 0.6351 0.0
C121 C 0.86175 0.19375 0.60713 0.0
C122 C 0.85735 0.12985 0.55025 0.0
C123 C 0.87562 0.1684 0.56471 0.0
C124 C 0.82627 0.11566 0.58076 0.0
C125 C 0.81211 0.14133 0.62294 0.0
U126 U 0.82888 0.28878 0.70728 0.0
O127 O 0.78416 0.33796 0.71008 0.0
O128 O 0.80676 0.31017 0.78624 0.0
C129 C 0.78116 0.33508 0.76356 0.0
C130 C 0.8102 0.21194 0.67114 0.0
C131 C 0.7429 0.33094 0.7859 0.0
C132 C 0.69755 0.29113 0.84092 0.0
C133 C 0.73008 0.29183 0.80896 0.0
C134 C 0.68802 0.36736 0.82201 0.0
C135 C 0.67733 0.32942 0.85004 0.0
C136 C 0.72069 0.36812 0.79037 0.0
C137 C 0.91596 0.3609 0.69816 0.0
C138 C 0.9174 0.43921 0.70573 0.0
C139 C 0.97301 0.39771 0.72738 0.0
C140 C 0.9536 0.3595 0.71496 0.0
C141 C 0.95509 0.43808 0.7231 0.0
C142 C 0.898 0.4011 0.69386 0.0
C143 C 0.89579 0.32031 0.68583 0.0
O144 O 0.82562 0.218 0.71938 0.0
O145 O 0.8006 0.24823 0.64662 0.0
O146 O 0.86731 0.32341 0.65178 0.0
O147 O 0.88874 0.29521 0.72824 0.0
H148 H 0.87512 0.22449 0.61587 0.0
H149 H 0.89935 0.18007 0.54112 0.0
H150 H 0.8115 0.08634 0.56953 0.0
H151 H 0.78676 0.13129 0.64395 0.0
H152 H 0.68997 0.26153 0.8623 0.0
H153 H 0.74653 0.26257 0.80552 0.0
H154 H 0.67329 0.39745 0.82889 0.0
H155 H 0.73002 0.39855 0.77265 0.0
H156 H 0.90286 0.46967 0.70055 0.0
H157 H 1.00188 0.3956 0.74087 0.0
H158 H 0.96795 0.32876 0.71871 0.0
H159 H 0.86896 0.40318 0.68113 0.0
C160 C 0.88894 0.65113 0.79541 0.0
C161 C 0.9163 0.65826 0.75502 0.0
C162 C 0.94772 0.59139 0.78138 0.0
C163 C 0.94551 0.62864 0.74809 0.0
C164 C 0.92191 0.58635 0.82456 0.0
C165 C 0.89268 0.6159 0.83135 0.0
U166 U 0.83065 0.74457 0.74064 0.0
O167 O 0.77192 0.74514 0.71306 0.0
O168 O 0.78985 0.78792 0.77948 0.0
C169 C 0.76153 0.77243 0.75115 0.0
C170 C 0.85422 0.67672 0.79579 0.0
C171 C 0.7286 0.7597 0.78383 0.0
C172 C 0.69509 0.70644 0.8387 0.0
C173 C 0.72359 0.71679 0.80159 0.0
C174 C 0.67504 0.78129 0.83854 0.0
C175 C 0.67149 0.73893 0.85939 0.0
C176 C 0.70339 0.79155 0.80107 0.0
C177 C 0.87296 0.82027 0.63389 0.0
C178 C 0.83511 0.86503 0.57359 0.0
C179 C 0.90281 0.87237 0.57316 0.0
C180 C 0.9054 0.8406 0.61396 0.0
C181 C 0.8677 0.88402 0.55152 0.0
C182 C 0.83771 0.8335 0.61465 0.0
C183 C 0.87633 0.78387 0.67244 0.0
O184 O 0.85688 0.71641 0.81453 0.0
O185 O 0.83449 0.67414 0.75051 0.0
O186 O 0.85684 0.74919 0.6596 0.0
O187 O 0.8741 0.79386 0.72449 0.0
H188 H 0.91378 0.68532 0.72682 0.0
H189 H 0.96464 0.63328 0.71414 0.0
H190 H 0.92309 0.5582 0.85118 0.0
H191 H 0.87187 0.60995 0.86282 0.0
H192 H 0.6929 0.67346 0.85374 0.0
H193 H 0.7427 0.69166 0.7887 0.0
H194 H 0.65773 0.80717 0.85412 0.0
H195 H 0.70683 0.82484 0.78769 0.0
H196 H 0.80771 0.87362 0.55783 0.0
H197 H 0.92839 0.88609 0.5565 0.0
H198 H 0.9328 0.83083 0.62859 0.0
H199 H 0.81233 0.8184 0.63006 0.0
C200 C 0.74265 0.3438 0.112 0.0
C201 C 0.72149 0.38095 0.10061 0.0
C202 C 0.6773 0.33806 0.04776 0.0
C203 C 0.6889 0.37811 0.06891 0.0
C204 C 0.69659 0.30038 0.06367 0.0
C205 C 0.72897 0.30319 0.09576 0.0
U206 U 0.82689 0.30142 0.19356 0.0
O207 O 0.82192 0.23081 0.1825 0.0
O208 O 0.79727 0.26176 0.25448 0.0
C209 C 0.80633 0.22521 0.23077 0.0
C210 C 0.78068 0.34855 0.13483 0.0
C211 C 0.82481 0.19398 0.2673 0.0
C212 C 0.82473 0.12449 0.31441 0.0
C213 C 0.81018 0.15208 0.274 0.0
C214 C 0.86949 0.18003 0.34009 0.0
C215 C 0.85372 0.13888 0.34872 0.0
C216 C 0.85534 0.20727 0.29936 0.0
C217 C 0.91571 0.36983 0.20299 0.0
C218 C 0.9744 0.41024 0.20282 0.0
C219 C 0.91778 0.44305 0.16687 0.0
C220 C 0.89774 0.4052 0.1784 0.0
C221 C 0.9562 0.44624 0.17966 0.0
C222 C 0.9542 0.37231 0.21458 0.0
C223 C 0.89449 0.3303 0.21627 0.0
O224 O 0.80635 0.32329 0.11347 0.0
O225 O 0.78314 0.35165 0.18831 0.0
O226 O 0.88707 0.3053 0.17436 0.0
O227 O 0.86553 0.33552 0.24884 0.0
H228 H 0.73151 0.41254 0.11306 0.0
H229 H 0.67492 0.40771 0.0566 0.0
H230 H 0.68833 0.26919 0.04753 0.0
H231 H 0.74467 0.27402 0.10465 0.0
H232 H 0.81202 0.09297 0.32091 0.0
H233 H 0.78658 0.1414 0.24956 0.0
H234 H 0.89179 0.19169 0.36632 0.0
H235 H 0.86708 0.23948 0.29457 0.0
H236 H 1.0039 0.41185 0.21317 0.0
H237 H 0.90313 0.47001 0.14813 0.0
H238 H 0.86814 0.40363 0.16853 0.0
H239 H 0.96853 0.34508 0.23324 0.0
C240 C 0.25904 0.21222 0.63909 0.0
C241 C 0.29505 0.19424 0.63566 0.0
C242 C 0.27469 0.14915 0.56003 0.0
C243 C 0.30281 0.16274 0.59646 0.0
C244 C 0.23809 0.1652 0.56622 0.0
C245 C 0.23036 0.19657 0.60544 0.0
U246 U 0.29441 0.2992 0.73511 0.0
O247 O 0.26689 0.32837 0.80703 0.0
O248 O 0.28389 0.36893 0.73707 0.0
C249 C 0.26595 0.36695 0.78397 0.0
C250 C 0.25203 0.24996 0.67361 0.0
C251 C 0.23011 0.39063 0.78577 0.0
C252 C 0.17869 0.42597 0.73768 0.0
C253 C 0.20756 0.39534 0.73889 0.0
C254 C 0.19215 0.4443 0.83185 0.0
C255 C 0.17193 0.45229 0.78335 0.0
C256 C 0.22108 0.41389 0.83293 0.0
C257 C 0.39699 0.30189 0.77657 0.0
C258 C 0.41792 0.3547 0.84292 0.0
C259 C 0.45917 0.29619 0.81679 0.0
C260 C 0.43179 0.28101 0.78046 0.0
C261 C 0.45186 0.33228 0.84957 0.0
C262 C 0.39068 0.33965 0.80662 0.0
C263 C 0.36615 0.28195 0.74574 0.0
O264 O 0.25609 0.24367 0.72653 0.0
O265 O 0.26759 0.28609 0.65603 0.0
O266 O 0.35247 0.30535 0.70535 0.0
O267 O 0.33997 0.26396 0.77626 0.0
H268 H 0.31753 0.20612 0.66141 0.0
H269 H 0.33133 0.15133 0.59214 0.0
H270 H 0.21592 0.15514 0.53873 0.0
H271 H 0.20241 0.21007 0.60772 0.0
H272 H 0.16383 0.43148 0.69961 0.0
H273 H 0.21386 0.37749 0.70204 0.0
H274 H 0.18733 0.46378 0.86785 0.0
H275 H 0.23796 0.41058 0.8696 0.0
H276 H 0.41153 0.38221 0.86851 0.0
H277 H 0.48484 0.27798 0.82216 0.0
H278 H 0.43701 0.25172 0.75761 0.0
H279 H 0.36393 0.35609 0.80422 0.0
C280 C 0.21662 0.67439 0.21546 0.0
C281 C 0.23216 0.6417 0.18331 0.0
C282 C 0.17341 0.6014 0.1866 0.0
C283 C 0.21081 0.60571 0.16894 0.0
C284 C 0.15759 0.63462 0.21811 0.0
C285 C 0.17916 0.67089 0.23259 0.0
U286 U 0.30823 0.73322 0.20032 0.0
O287 O 0.32069 0.80227 0.18599 0.0
O288 O 0.34454 0.76857 0.25723 0.0
C289 C 0.34007 0.8057 0.23154 0.0
C290 C 0.23966 0.7123 0.22938 0.0
C291 C 0.33043 0.84198 0.26717 0.0
C292 C 0.28724 0.87636 0.32978 0.0
C293 C 0.29434 0.84579 0.28921 0.0
C294 C 0.35175 0.90097 0.32448 0.0
C295 C 0.31623 0.90324 0.34925 0.0
C296 C 0.35876 0.87051 0.2838 0.0
C297 C 0.38322 0.6827 0.11163 0.0
C298 C 0.43883 0.72457 0.08846 0.0
C299 C 0.42409 0.65917 0.03852 0.0
C300 C 0.39262 0.65246 0.07155 0.0
C301 C 0.44648 0.69637 0.045 0.0
C302 C 0.40727 0.71786 0.12145 0.0
C303 C 0.34617 0.68051 0.13761 0.0
O304 O 0.2692 0.70393 0.25988 0.0
O305 O 0.24732 0.73792 0.1877 0.0
O306 O 0.32199 0.70888 0.1186 0.0
O307 O 0.34601 0.67745 0.19127 0.0
H308 H 0.26088 0.64413 0.16911 0.0
H309 H 0.2236 0.58128 0.14349 0.0
H310 H 0.12886 0.63221 0.23215 0.0
H311 H 0.16667 0.6961 0.25712 0.0
H312 H 0.25949 0.87764 0.34768 0.0
H313 H 0.27215 0.8239 0.27679 0.0
H314 H 0.3748 0.92074 0.33894 0.0
H315 H 0.38683 0.8678 0.26726 0.0
H316 H 0.45525 0.75379 0.0939 0.0
H317 H 0.42937 0.63702 0.00524 0.0
H318 H 0.37434 0.62515 0.0635 0.0
H319 H 0.4003 0.7416 0.15222 0.0
H320 H 1.02445 0.46027 0.13075 0.0
H321 H 1.02183 0.59963 0.13648 0.0
H322 H 0.93211 0.52509 0.20744 0.0
H323 H 0.05997 0.50626 0.06384 0.0
H324 H 0.06237 0.56339 0.07182 0.0
H325 H 0.10546 0.45993 0.10702 0.0
H326 H 0.19766 0.51924 0.19104 0.0
H327 H 0.10171 0.59573 0.14625 0.0
C328 C 1.01123 0.48985 0.14434 0.0
C329 C 0.97628 0.4879 0.17088 0.0
C330 C 1.02797 0.53013 0.1319 0.0
C331 C 1.00979 0.56853 0.14758 0.0
C332 C 0.97483 0.56684 0.17402 0.0
C333 C 0.95883 0.52647 0.18633 0.0
C334 C 0.06195 0.53226 0.095 0.0
C335 C 0.0984 0.52781 0.12612 0.0
C336 C 0.11762 0.488 0.12672 0.0
C337 C 0.15331 0.48493 0.15053 0.0
C338 C 0.16966 0.52162 0.17393 0.0
C339 C 0.15179 0.56196 0.17168 0.0
C340 C 0.11554 0.56461 0.14921 0.0
H341 H 0.10555 0.60406 0.73803 0.0
H342 H 0.10333 0.4647 0.73369 0.0
H343 H 0.1945 0.531 0.81202 0.0
H344 H 0.06529 0.56832 0.67451 0.0
H345 H 0.07121 0.51215 0.66228 0.0
H346 H 1.02143 0.59335 0.74828 0.0
H347 H 0.92736 0.50827 0.7739 0.0
H348 H 1.02731 0.46053 0.69733 0.0
C349 C 0.1173 0.57319 0.75037 0.0
C350 C 0.15152 0.57217 0.77892 0.0
C351 C 0.09941 0.5345 0.73452 0.0
C352 C 0.11601 0.49447 0.74803 0.0
C353 C 0.15007 0.49298 0.77706 0.0
C354 C 0.16704 0.53195 0.793 0.0
C355 C 0.06661 0.53619 0.69529 0.0
C356 C 1.02931 0.52724 0.72263 0.0
C357 C 1.00904 0.56131 0.74647 0.0
C358 C 0.97212 0.55467 0.76506 0.0
C359 C 0.95603 0.51331 0.76062 0.0
C360 C 0.97531 0.47919 0.73564 0.0
C361 C 1.0124 0.48616 0.71801 0.0
H362 H 0.32253 0.07471 0.37516 0.0
H363 H 0.31685 0.07533 0.5514 0.0
H364 H 0.25792 0.17145 0.45756 0.0
H365 H 0.37007 0.03625 0.43346 0.0
H366 H 0.36334 0.0314 0.50566 0.0
H367 H 0.34178 0.98496 0.37225 0.0
H368 H 0.2824 0.87633 0.44138 0.0
H369 H 0.31079 0.98473 0.54247 0.0
C370 C 0.31145 0.08812 0.41268 0.0
C371 C 0.28798 0.12444 0.41044 0.0
C372 C 0.32147 0.06975 0.46346 0.0
C373 C 0.30826 0.08848 0.51212 0.0
C374 C 0.28485 0.1249 0.51013 0.0
C375 C 0.27445 0.14206 0.45919 0.0
C376 C 0.34832 0.03222 0.46575 0.0
C377 C 0.32788 0.98988 0.45794 0.0
C378 C 0.32782 0.96952 0.40663 0.0
C379 C 0.31116 0.92856 0.40016 0.0
C380 C 0.29352 0.90887 0.44522 0.0
C381 C 0.29323 0.92874 0.49661 0.0
C382 C 0.31029 0.96945 0.50268 0.0
H383 H 0.52382 0.77273 0.88327 0.0
H384 H 0.51858 0.72778 0.05039 0.0
H385 H 0.42701 0.70325 0.94102 0.0
H386 H 0.563 0.8055 0.95471 0.0
H387 H 0.56135 0.78618 0.0234 0.0
H388 H 0.60037 0.76717 0.88434 0.0
H389 H 0.69467 0.69732 0.94873 0.0
H390 H 0.60345 0.73008 0.05463 0.0
C391 C 0.50974 0.7543 0.91512 0.0
C392 C 0.47392 0.73687 0.90517 0.0
C393 C 0.5264 0.75049 -0.03277 0.0
C394 C 0.50688 0.72884 0.00946 0.0
C395 C 0.47122 0.71104 -0.00024 0.0
C396 C 0.45554 0.71438 0.94736 0.0
C397 C 0.5618 0.77544 -0.01997 0.0
C398 C 0.59685 0.74934 -0.03013 0.0
C399 C 0.61374 0.74986 0.91774 0.0
C400 C 0.64903 0.73073 0.90967 0.0
C401 C 0.66647 0.70969 0.95376 0.0
C402 C 0.65046 0.70942 0.00607 0.0
C403 C 0.61536 0.72887 0.01388 0.0
H404 H 0.88778 0.06005 0.35501 0.0
H405 H 0.89169 0.05222 0.53143 0.0
H406 H 0.84308 0.16315 0.45197 0.0
H407 H 0.92921 1.00823 0.39911 0.0
H408 H 0.93646 1.00982 0.47142 0.0
H409 H 0.87103 0.97177 0.36137 0.0
H410 H 0.8292 0.8666 0.45997 0.0
H411 H 0.90363 0.96057 0.53061 0.0
C412 C 0.88153 0.07357 0.39478 0.0
C413 C 0.86405 0.11401 0.3981 0.0
C414 C 0.89221 0.05137 0.4428 0.0
C415 C 0.88376 0.06919 0.49423 0.0
C416 C 0.86612 0.10957 0.49745 0.0
C417 C 0.85669 0.13186 0.4494 0.0
C418 C 0.91445 1.01013 0.43913 0.0
C419 C 0.88933 0.97114 0.44567 0.0
C420 C 0.86893 0.95548 0.40068 0.0
C421 C 0.84673 0.9181 0.40597 0.0
C422 C 0.8448 0.8967 0.45666 0.0
C423 C 0.86555 0.91141 0.50162 0.0
C424 C 0.88736 0.94909 0.49611 0.0
H425 H 0.52289 0.36706 0.85757 0.0
H426 H 0.5274 0.36603 0.03443 0.0
H427 H 0.43039 0.31689 0.95102 0.0
H428 H 0.56639 0.415 0.90603 0.0
H429 H 0.56613 0.41777 -0.02129 0.0
H430 H 0.60612 0.36303 0.85813 0.0
H431 H 0.69716 0.30942 0.95093 0.0
H432 H 0.60627 0.37108 0.03423 0.0
C433 C 0.51066 0.35866 0.89684 0.0
C434 C 0.4746 0.34037 0.89891 0.0
C435 C 0.52998 0.36833 0.94575 0.0
C436 C 0.51321 0.35805 -0.00343 0.0
C437 C 0.47718 0.33966 -0.00172 0.0
C438 C 0.45834 0.3309 0.94953 0.0
C439 C 0.56572 0.39476 0.94388 0.0
C440 C 0.60057 0.36706 0.94617 0.0
C441 C 0.61826 0.35424 0.89731 0.0
C442 C 0.65303 0.33299 0.89898 0.0
C443 C 0.66927 0.32334 0.94974 0.0
C444 C 0.65305 0.33747 -0.00146 0.0
C445 C 0.61834 0.35879 -0.00325 0.0
loop_
_geom_bond_atom_site_label_1
_geom_bond_atom_site_label_2
_geom_bond_distance
_geom_bond_site_symmetry_2
_ccdc_geom_bond_type
C0 C1 1.264 . S
C0 C5 1.479 . S
C0 C10 1.465 . S
C1 C0 1.264 . S
C1 C3 1.339 . S
C1 H28 0.931 . S
C2 C3 1.395 . S
C2 C4 1.320 . S
C3 C1 1.339 . S
C3 C2 1.395 . S
C3 H29 0.929 . S
C4 C2 1.320 . S
C4 C5 1.405 . S
C4 H30 0.930 . S
C5 C0 1.479 . S
C5 C4 1.405 . S
C5 H31 0.931 . S
U6 O7 2.454 . S
U6 O8 2.458 . S
U6 C9 2.984 . S
U6 C10 2.847 . S
U6 C23 2.882 . S
U6 O24 2.441 . S
U6 O25 2.420 . S
U6 O26 2.455 . S
U6 O27 2.449 . S
O7 U6 2.454 . S
O7 C9 1.353 . S
O8 U6 2.458 . S
O8 C9 1.286 . S
C9 U6 2.984 . S
C9 O7 1.353 . S
C9 O8 1.286 . S
C9 C11 1.363 . S
C10 C0 1.465 . S
C10 U6 2.847 . S
C10 O24 1.249 . S
C10 O25 1.202 . S
C11 C9 1.363 . S
C11 C13 1.408 . S
C11 C16 1.342 . S
C12 C13 1.310 . S
C12 C15 1.461 . S
C12 H32 0.932 . S
C13 C11 1.408 . S
C13 C12 1.310 . S
C13 H33 0.930 . S
C14 C15 1.474 . S
C14 C16 1.285 . S
C14 H34 0.929 . S
C15 C12 1.461 . S
C15 C14 1.474 . S
C16 C11 1.342 . S
C16 C14 1.285 . S
C16 H35 0.930 . S
C17 C20 1.424 . S
C17 C22 1.245 . S
C17 C23 1.428 . S
C18 C21 1.260 . S
C18 C22 1.477 . S
C18 H36 0.932 . S
C19 C20 1.384 . S
C19 C21 1.479 . S
C19 H37 0.929 . S
C20 C17 1.424 . S
C20 C19 1.384 . S
C20 H38 0.928 . S
C21 C18 1.260 . S
C21 C19 1.479 . S
C22 C17 1.245 . S
C22 C18 1.477 . S
C22 H39 0.932 . S
C23 U6 2.882 . S
C23 C17 1.428 . S
C23 O26 1.301 . S
C23 O27 1.282 . S
O24 U6 2.441 . S
O24 C10 1.249 . S
O25 U6 2.420 . S
O25 C10 1.202 . S
O26 U6 2.455 . S
O26 C23 1.301 . S
O27 U6 2.449 . S
O27 C23 1.282 . S
H28 C1 0.931 . S
H29 C3 0.929 . S
H30 C4 0.930 . S
H31 C5 0.931 . S
H32 C12 0.932 . S
H33 C13 0.930 . S
H34 C14 0.929 . S
H35 C16 0.930 . S
H36 C18 0.932 . S
H37 C19 0.929 . S
H38 C20 0.928 . S
H39 C22 0.932 . S
C40 C41 1.264 . S
C40 C45 1.479 . S
C40 C50 1.465 . S
C41 C40 1.264 . S
C41 C43 1.339 . S
C41 H68 0.931 . S
C42 C43 1.395 . S
C42 C44 1.320 . S
C43 C41 1.339 . S
C43 C42 1.395 . S
C43 H69 0.929 . S
C44 C42 1.320 . S
C44 C45 1.405 . S
C44 H70 0.930 . S
C45 C40 1.479 . S
C45 C44 1.405 . S
C45 H71 0.931 . S
U46 O47 2.454 . S
U46 O48 2.458 . S
U46 C49 2.984 . S
U46 C50 2.847 . S
U46 C63 2.882 . S
U46 O64 2.441 . S
U46 O65 2.420 . S
U46 O66 2.455 . S
U46 O67 2.449 . S
O47 U46 2.454 . S
O47 C49 1.353 . S
O48 U46 2.458 . S
O48 C49 1.286 . S
C49 U46 2.984 . S
C49 O47 1.353 . S
C49 O48 1.286 . S
C49 C51 1.363 . S
C50 C40 1.465 . S
C50 U46 2.847 . S
C50 O64 1.249 . S
C50 O65 1.202 . S
C51 C49 1.363 . S
C51 C53 1.408 . S
C51 C56 1.342 . S
C52 C53 1.310 . S
C52 C55 1.461 . S
C52 H72 0.932 . S
C53 C51 1.408 . S
C53 C52 1.310 . S
C53 H73 0.930 . S
C54 C55 1.474 . S
C54 C56 1.285 . S
C54 H74 0.929 . S
C55 C52 1.461 . S
C55 C54 1.474 . S
C56 C51 1.342 . S
C56 C54 1.285 . S
C56 H75 0.930 . S
C57 C60 1.424 . S
C57 C62 1.245 . S
C57 C63 1.428 . S
C58 C61 1.260 . S
C58 C62 1.477 . S
C58 H76 0.932 . S
C59 C60 1.384 . S
C59 C61 1.479 . S
C59 H77 0.929 . S
C60 C57 1.424 . S
C60 C59 1.384 . S
C60 H78 0.928 . S
C61 C58 1.260 . S
C61 C59 1.479 . S
C62 C57 1.245 . S
C62 C58 1.477 . S
C62 H79 0.932 . S
C63 U46 2.882 . S
C63 C57 1.428 . S
C63 O66 1.301 . S
C63 O67 1.282 . S
O64 U46 2.441 . S
O64 C50 1.249 . S
O65 U46 2.420 . S
O65 C50 1.202 . S
O66 U46 2.455 . S
O66 C63 1.301 . S
O67 U46 2.449 . S
O67 C63 1.282 . S
H68 C41 0.931 . S
H69 C43 0.929 . S
H70 C44 0.930 . S
H71 C45 0.931 . S
H72 C52 0.932 . S
H73 C53 0.930 . S
H74 C54 0.929 . S
H75 C56 0.930 . S
H76 C58 0.932 . S
H77 C59 0.929 . S
H78 C60 0.928 . S
H79 C62 0.932 . S
C80 C81 1.264 . S
C80 C85 1.479 . S
C80 C90 1.465 . S
C81 C80 1.264 . S
C81 C83 1.339 . S
C81 H108 0.931 . S
C82 C83 1.395 . S
C82 C84 1.320 . S
C83 C81 1.339 . S
C83 C82 1.395 . S
C83 H109 0.929 . S
C84 C82 1.320 . S
C84 C85 1.405 . S
C84 H110 0.930 . S
C85 C80 1.479 . S
C85 C84 1.405 . S
C85 H111 0.931 . S
U86 O87 2.454 . S
U86 O88 2.458 . S
U86 C89 2.984 . S
U86 C90 2.847 . S
U86 C103 2.882 . S
U86 O104 2.441 . S
U86 O105 2.420 . S
U86 O106 2.455 . S
U86 O107 2.449 . S
O87 U86 2.454 . S
O87 C89 1.353 . S
O88 U86 2.458 . S
O88 C89 1.286 . S
C89 U86 2.984 . S
C89 O87 1.353 . S
C89 O88 1.286 . S
C89 C91 1.363 . S
C90 C80 1.465 . S
C90 U86 2.847 . S
C90 O104 1.249 . S
C90 O105 1.202 . S
C91 C89 1.363 . S
C91 C93 1.408 . S
C91 C96 1.342 . S
C92 C93 1.310 . S
C92 C95 1.461 . S
C92 H112 0.932 . S
C93 C91 1.408 . S
C93 C92 1.310 . S
C93 H113 0.930 . S
C94 C95 1.474 . S
C94 C96 1.285 . S
C94 H114 0.929 . S
C95 C92 1.461 . S
C95 C94 1.474 . S
C96 C91 1.342 . S
C96 C94 1.285 . S
C96 H115 0.930 . S
C97 C100 1.424 . S
C97 C102 1.245 . S
C97 C103 1.428 . S
C98 C101 1.260 . S
C98 C102 1.477 . S
C98 H116 0.932 . S
C99 C100 1.384 . S
C99 C101 1.479 . S
C99 H117 0.929 . S
C100 C97 1.424 . S
C100 C99 1.384 . S
C100 H118 0.928 . S
C101 C98 1.260 . S
C101 C99 1.479 . S
C102 C97 1.245 . S
C102 C98 1.477 . S
C102 H119 0.932 . S
C103 U86 2.882 . S
C103 C97 1.428 . S
C103 O106 1.301 . S
C103 O107 1.282 . S
O104 U86 2.441 . S
O104 C90 1.249 . S
O105 U86 2.420 . S
O105 C90 1.202 . S
O106 U86 2.455 . S
O106 C103 1.301 . S
O107 U86 2.449 . S
O107 C103 1.282 . S
H108 C81 0.931 . S
H109 C83 0.929 . S
H110 C84 0.930 . S
H111 C85 0.931 . S
H112 C92 0.932 . S
H113 C93 0.930 . S
H114 C94 0.929 . S
H115 C96 0.930 . S
H116 C98 0.932 . S
H117 C99 0.929 . S
H118 C100 0.928 . S
H119 C102 0.932 . S
C120 C121 1.264 . S
C120 C125 1.479 . S
C120 C130 1.465 . S
C121 C120 1.264 . S
C121 C123 1.339 . S
C121 H148 0.931 . S
C122 C123 1.395 . S
C122 C124 1.320 . S
C123 C121 1.339 . S
C123 C122 1.395 . S
C123 H149 0.929 . S
C124 C122 1.320 . S
C124 C125 1.405 . S
C124 H150 0.930 . S
C125 C120 1.479 . S
C125 C124 1.405 . S
C125 H151 0.931 . S
U126 O127 2.454 . S
U126 O128 2.458 . S
U126 C129 2.984 . S
U126 C130 2.847 . S
U126 C143 2.882 . S
U126 O144 2.441 . S
U126 O145 2.420 . S
U126 O146 2.455 . S
U126 O147 2.449 . S
O127 U126 2.454 . S
O127 C129 1.353 . S
O128 U126 2.458 . S
O128 C129 1.286 . S
C129 U126 2.984 . S
C129 O127 1.353 . S
C129 O128 1.286 . S
C129 C131 1.363 . S
C130 C120 1.465 . S
C130 U126 2.847 . S
C130 O144 1.249 . S
C130 O145 1.202 . S
C131 C129 1.363 . S
C131 C133 1.408 . S
C131 C136 1.342 . S
C132 C133 1.310 . S
C132 C135 1.461 . S
C132 H152 0.932 . S
C133 C131 1.408 . S
C133 C132 1.310 . S
C133 H153 0.930 . S
C134 C135 1.474 . S
C134 C136 1.285 . S
C134 H154 0.929 . S
C135 C132 1.461 . S
C135 C134 1.474 . S
C136 C131 1.342 . S
C136 C134 1.285 . S
C136 H155 0.930 . S
C137 C140 1.424 . S
C137 C142 1.245 . S
C137 C143 1.428 . S
C138 C141 1.260 . S
C138 C142 1.477 . S
C138 H156 0.932 . S
C139 C140 1.384 . S
C139 C141 1.479 . S
C139 H157 0.929 . S
C140 C137 1.424 . S
C140 C139 1.384 . S
C140 H158 0.928 . S
C141 C138 1.260 . S
C141 C139 1.479 . S
C142 C137 1.245 . S
C142 C138 1.477 . S
C142 H159 0.932 . S
C143 U126 2.882 . S
C143 C137 1.428 . S
C143 O146 1.301 . S
C143 O147 1.282 . S
O144 U126 2.441 . S
O144 C130 1.249 . S
O145 U126 2.420 . S
O145 C130 1.202 . S
O146 U126 2.455 . S
O146 C143 1.301 . S
O147 U126 2.449 . S
O147 C143 1.282 . S
H148 C121 0.931 . S
H149 C123 0.929 . S
H150 C124 0.930 . S
H151 C125 0.931 . S
H152 C132 0.932 . S
H153 C133 0.930 . S
H154 C134 0.929 . S
H155 C136 0.930 . S
H156 C138 0.932 . S
H157 C139 0.929 . S
H158 C140 0.928 . S
H159 C142 0.932 . S
C160 C161 1.264 . S
C160 C165 1.479 . S
C160 C170 1.465 . S
C161 C160 1.264 . S
C161 C163 1.339 . S
C161 H188 0.931 . S
C162 C163 1.395 . S
C162 C164 1.320 . S
C163 C161 1.339 . S
C163 C162 1.395 . S
C163 H189 0.929 . S
C164 C162 1.320 . S
C164 C165 1.405 . S
C164 H190 0.930 . S
C165 C160 1.479 . S
C165 C164 1.405 . S
C165 H191 0.931 . S
U166 O167 2.454 . S
U166 O168 2.458 . S
U166 C169 2.984 . S
U166 C170 2.847 . S
U166 C183 2.882 . S
U166 O184 2.441 . S
U166 O185 2.420 . S
U166 O186 2.455 . S
U166 O187 2.449 . S
O167 U166 2.454 . S
O167 C169 1.353 . S
O168 U166 2.458 . S
O168 C169 1.286 . S
C169 U166 2.984 . S
C169 O167 1.353 . S
C169 O168 1.286 . S
C169 C171 1.363 . S
C170 C160 1.465 . S
C170 U166 2.847 . S
C170 O184 1.249 . S
C170 O185 1.202 . S
C171 C169 1.363 . S
C171 C173 1.408 . S
C171 C176 1.342 . S
C172 C173 1.310 . S
C172 C175 1.461 . S
C172 H192 0.932 . S
C173 C171 1.408 . S
C173 C172 1.310 . S
C173 H193 0.930 . S
C174 C175 1.474 . S
C174 C176 1.285 . S
C174 H194 0.929 . S
C175 C172 1.461 . S
C175 C174 1.474 . S
C176 C171 1.342 . S
C176 C174 1.285 . S
C176 H195 0.930 . S
C177 C180 1.424 . S
C177 C182 1.245 . S
C177 C183 1.428 . S
C178 C181 1.260 . S
C178 C182 1.477 . S
C178 H196 0.932 . S
C179 C180 1.384 . S
C179 C181 1.479 . S
C179 H197 0.929 . S
C180 C177 1.424 . S
C180 C179 1.384 . S
C180 H198 0.928 . S
C181 C178 1.260 . S
C181 C179 1.479 . S
C182 C177 1.245 . S
C182 C178 1.477 . S
C182 H199 0.932 . S
C183 U166 2.882 . S
C183 C177 1.428 . S
C183 O186 1.301 . S
C183 O187 1.282 . S
O184 U166 2.441 . S
O184 C170 1.249 . S
O185 U166 2.420 . S
O185 C170 1.202 . S
O186 U166 2.455 . S
O186 C183 1.301 . S
O187 U166 2.449 . S
O187 C183 1.282 . S
H188 C161 0.931 . S
H189 C163 0.929 . S
H190 C164 0.930 . S
H191 C165 0.931 . S
H192 C172 0.932 . S
H193 C173 0.930 . S
H194 C174 0.929 . S
H195 C176 0.930 . S
H196 C178 0.932 . S
H197 C179 0.929 . S
H198 C180 0.928 . S
H199 C182 0.932 . S
C200 C201 1.264 . S
C200 C205 1.479 . S
C200 C210 1.465 . S
C201 C200 1.264 . S
C201 C203 1.339 . S
C201 H228 0.931 . S
C202 C203 1.395 . S
C202 C204 1.320 . S
C203 C201 1.339 . S
C203 C202 1.395 . S
C203 H229 0.929 . S
C204 C202 1.320 . S
C204 C205 1.405 . S
C204 H230 0.930 . S
C205 C200 1.479 . S
C205 C204 1.405 . S
C205 H231 0.931 . S
U206 O207 2.454 . S
U206 O208 2.458 . S
U206 C209 2.984 . S
U206 C210 2.847 . S
U206 C223 2.882 . S
U206 O224 2.441 . S
U206 O225 2.420 . S
U206 O226 2.455 . S
U206 O227 2.449 . S
O207 U206 2.454 . S
O207 C209 1.353 . S
O208 U206 2.458 . S
O208 C209 1.286 . S
C209 U206 2.984 . S
C209 O207 1.353 . S
C209 O208 1.286 . S
C209 C211 1.363 . S
C210 C200 1.465 . S
C210 U206 2.847 . S
C210 O224 1.249 . S
C210 O225 1.202 . S
C211 C209 1.363 . S
C211 C213 1.408 . S
C211 C216 1.342 . S
C212 C213 1.310 . S
C212 C215 1.461 . S
C212 H232 0.932 . S
C213 C211 1.408 . S
C213 C212 1.310 . S
C213 H233 0.930 . S
C214 C215 1.474 . S
C214 C216 1.285 . S
C214 H234 0.929 . S
C215 C212 1.461 . S
C215 C214 1.474 . S
C216 C211 1.342 . S
C216 C214 1.285 . S
C216 H235 0.930 . S
C217 C220 1.424 . S
C217 C222 1.245 . S
C217 C223 1.428 . S
C218 C221 1.260 . S
C218 C222 1.477 . S
C218 H236 0.932 . S
C219 C220 1.384 . S
C219 C221 1.479 . S
C219 H237 0.929 . S
C220 C217 1.424 . S
C220 C219 1.384 . S
C220 H238 0.928 . S
C221 C218 1.260 . S
C221 C219 1.479 . S
C222 C217 1.245 . S
C222 C218 1.477 . S
C222 H239 0.932 . S
C223 U206 2.882 . S
C223 C217 1.428 . S
C223 O226 1.301 . S
C223 O227 1.282 . S
O224 U206 2.441 . S
O224 C210 1.249 . S
O225 U206 2.420 . S
O225 C210 1.202 . S
O226 U206 2.455 . S
O226 C223 1.301 . S
O227 U206 2.449 . S
O227 C223 1.282 . S
H228 C201 0.931 . S
H229 C203 0.929 . S
H230 C204 0.930 . S
H231 C205 0.931 . S
H232 C212 0.932 . S
H233 C213 0.930 . S
H234 C214 0.929 . S
H235 C216 0.930 . S
H236 C218 0.932 . S
H237 C219 0.929 . S
H238 C220 0.928 . S
H239 C222 0.932 . S
C240 C241 1.264 . S
C240 C245 1.479 . S
C240 C250 1.465 . S
C241 C240 1.264 . S
C241 C243 1.339 . S
C241 H268 0.931 . S
C242 C243 1.395 . S
C242 C244 1.320 . S
C243 C241 1.339 . S
C243 C242 1.395 . S
C243 H269 0.929 . S
C244 C242 1.320 . S
C244 C245 1.405 . S
C244 H270 0.930 . S
C245 C240 1.479 . S
C245 C244 1.405 . S
C245 H271 0.931 . S
U246 O247 2.454 . S
U246 O248 2.458 . S
U246 C249 2.984 . S
U246 C250 2.847 . S
U246 C263 2.882 . S
U246 O264 2.441 . S
U246 O265 2.420 . S
U246 O266 2.455 . S
U246 O267 2.449 . S
O247 U246 2.454 . S
O247 C249 1.353 . S
O248 U246 2.458 . S
O248 C249 1.286 . S
C249 U246 2.984 . S
C249 O247 1.353 . S
C249 O248 1.286 . S
C249 C251 1.363 . S
C250 C240 1.465 . S
C250 U246 2.847 . S
C250 O264 1.249 . S
C250 O265 1.202 . S
C251 C249 1.363 . S
C251 C253 1.408 . S
C251 C256 1.342 . S
C252 C253 1.310 . S
C252 C255 1.461 . S
C252 H272 0.932 . S
C253 C251 1.408 . S
C253 C252 1.310 . S
C253 H273 0.930 . S
C254 C255 1.474 . S
C254 C256 1.285 . S
C254 H274 0.929 . S
C255 C252 1.461 . S
C255 C254 1.474 . S
C256 C251 1.342 . S
C256 C254 1.285 . S
C256 H275 0.930 . S
C257 C260 1.424 . S
C257 C262 1.245 . S
C257 C263 1.428 . S
C258 C261 1.260 . S
C258 C262 1.477 . S
C258 H276 0.932 . S
C259 C260 1.384 . S
C259 C261 1.479 . S
C259 H277 0.929 . S
C260 C257 1.424 . S
C260 C259 1.384 . S
C260 H278 0.928 . S
C261 C258 1.260 . S
C261 C259 1.479 . S
C262 C257 1.245 . S
C262 C258 1.477 . S
C262 H279 0.932 . S
C263 U246 2.882 . S
C263 C257 1.428 . S
C263 O266 1.301 . S
C263 O267 1.282 . S
O264 U246 2.441 . S
O264 C250 1.249 . S
O265 U246 2.420 . S
O265 C250 1.202 . S
O266 U246 2.455 . S
O266 C263 1.301 . S
O267 U246 2.449 . S
O267 C263 1.282 . S
H268 C241 0.931 . S
H269 C243 0.929 . S
H270 C244 0.930 . S
H271 C245 0.931 . S
H272 C252 0.932 . S
H273 C253 0.930 . S
H274 C254 0.929 . S
H275 C256 0.930 . S
H276 C258 0.932 . S
H277 C259 0.929 . S
H278 C260 0.928 . S
H279 C262 0.932 . S
C280 C281 1.264 . S
C280 C285 1.479 . S
C280 C290 1.465 . S
C281 C280 1.264 . S
C281 C283 1.339 . S
C281 H308 0.931 . S
C282 C283 1.395 . S
C282 C284 1.320 . S
C283 C281 1.339 . S
C283 C282 1.395 . S
C283 H309 0.929 . S
C284 C282 1.320 . S
C284 C285 1.405 . S
C284 H310 0.930 . S
C285 C280 1.479 . S
C285 C284 1.405 . S
C285 H311 0.931 . S
U286 O287 2.454 . S
U286 O288 2.458 . S
U286 C289 2.984 . S
U286 C290 2.847 . S
U286 C303 2.882 . S
U286 O304 2.441 . S
U286 O305 2.420 . S
U286 O306 2.455 . S
U286 O307 2.449 . S
O287 U286 2.454 . S
O287 C289 1.353 . S
O288 U286 2.458 . S
O288 C289 1.286 . S
C289 U286 2.984 . S
C289 O287 1.353 . S
C289 O288 1.286 . S
C289 C291 1.363 . S
C290 C280 1.465 . S
C290 U286 2.847 . S
C290 O304 1.249 . S
C290 O305 1.202 . S
C291 C289 1.363 . S
C291 C293 1.408 . S
C291 C296 1.342 . S
C292 C293 1.310 . S
C292 C295 1.461 . S
C292 H312 0.932 . S
C293 C291 1.408 . S
C293 C292 1.310 . S
C293 H313 0.930 . S
C294 C295 1.474 . S
C294 C296 1.285 . S
C294 H314 0.929 . S
C295 C292 1.461 . S
C295 C294 1.474 . S
C296 C291 1.342 . S
C296 C294 1.285 . S
C296 H315 0.930 . S
C297 C300 1.424 . S
C297 C302 1.245 . S
C297 C303 1.428 . S
C298 C301 1.260 . S
C298 C302 1.477 . S
C298 H316 0.932 . S
C299 C300 1.384 . S
C299 C301 1.479 . S
C299 H317 0.929 . S
C300 C297 1.424 . S
C300 C299 1.384 . S
C300 H318 0.928 . S
C301 C298 1.260 . S
C301 C299 1.479 . S
C302 C297 1.245 . S
C302 C298 1.477 . S
C302 H319 0.932 . S
C303 U286 2.882 . S
C303 C297 1.428 . S
C303 O306 1.301 . S
C303 O307 1.282 . S
O304 U286 2.441 . S
O304 C290 1.249 . S
O305 U286 2.420 . S
O305 C290 1.202 . S
O306 U286 2.455 . S
O306 C303 1.301 . S
O307 U286 2.449 . S
O307 C303 1.282 . S
H308 C281 0.931 . S
H309 C283 0.929 . S
H310 C284 0.930 . S
H311 C285 0.931 . S
H312 C292 0.932 . S
H313 C293 0.930 . S
H314 C294 0.929 . S
H315 C296 0.930 . S
H316 C298 0.932 . S
H317 C299 0.929 . S
H318 C300 0.928 . S
H319 C302 0.932 . S
H320 C328 0.930 . S
H321 C331 0.930 . S
H322 C333 0.930 . S
H323 C334 0.970 . S
H324 C334 0.970 . S
H325 C336 0.930 . S
H326 C338 0.930 . S
H327 C340 0.930 . S
C328 H320 0.930 . S
C328 C329 1.382 . S
C328 C330 1.426 . S
C329 C328 1.382 . S
C329 C333 1.389 . S
C330 C328 1.426 . S
C330 C331 1.375 . S
C330 C334 1.532 1_655 S
C331 H321 0.930 . S
C331 C330 1.375 . S
C331 C332 1.416 . S
C332 C331 1.416 . S
C332 C333 1.371 . S
C333 H322 0.930 . S
C333 C329 1.389 . S
C333 C332 1.371 . S
C334 H323 0.970 . S
C334 H324 0.970 . S
C334 C330 1.532 1_455 S
C334 C335 1.499 . S
C335 C334 1.499 . S
C335 C336 1.370 . S
C335 C340 1.415 . S
C336 H325 0.930 . S
C336 C335 1.370 . S
C336 C337 1.407 . S
C337 C336 1.407 . S
C337 C338 1.365 . S
C338 H326 0.930 . S
C338 C337 1.365 . S
C338 C339 1.393 . S
C339 C338 1.393 . S
C339 C340 1.387 . S
C340 H327 0.930 . S
C340 C335 1.415 . S
C340 C339 1.387 . S
H341 C349 0.930 . S
H342 C352 0.930 . S
H343 C354 0.930 . S
H344 C355 0.970 . S
H345 C355 0.970 . S
H346 C357 0.930 . S
H347 C359 0.930 . S
H348 C361 0.930 . S
C349 H341 0.930 . S
C349 C350 1.382 . S
C349 C351 1.426 . S
C350 C349 1.382 . S
C350 C354 1.389 . S
C351 C349 1.426 . S
C351 C352 1.375 . S
C351 C355 1.532 . S
C352 H342 0.930 . S
C352 C351 1.375 . S
C352 C353 1.416 . S
C353 C352 1.416 . S
C353 C354 1.371 . S
C354 H343 0.930 . S
C354 C350 1.389 . S
C354 C353 1.371 . S
C355 H344 0.970 . S
C355 H345 0.970 . S
C355 C351 1.532 . S
C355 C356 1.499 1_455 S
C356 C355 1.499 1_655 S
C356 C357 1.370 . S
C356 C361 1.415 . S
C357 H346 0.930 . S
C357 C356 1.370 . S
C357 C358 1.407 . S
C358 C357 1.407 . S
C358 C359 1.365 . S
C359 H347 0.930 . S
C359 C358 1.365 . S
C359 C360 1.393 . S
C360 C359 1.393 . S
C360 C361 1.387 . S
C361 H348 0.930 . S
C361 C356 1.415 . S
C361 C360 1.387 . S
H362 C370 0.930 . S
H363 C373 0.930 . S
H364 C375 0.930 . S
H365 C376 0.970 . S
H366 C376 0.970 . S
H367 C378 0.930 . S
H368 C380 0.930 . S
H369 C382 0.930 . S
C370 H362 0.930 . S
C370 C371 1.382 . S
C370 C372 1.426 . S
C371 C370 1.382 . S
C371 C375 1.389 . S
C372 C370 1.426 . S
C372 C373 1.375 . S
C372 C376 1.532 . S
C373 H363 0.930 . S
C373 C372 1.375 . S
C373 C374 1.416 . S
C374 C373 1.416 . S
C374 C375 1.371 . S
C375 H364 0.930 . S
C375 C371 1.389 . S
C375 C374 1.371 . S
C376 H365 0.970 . S
C376 H366 0.970 . S
C376 C372 1.532 . S
C376 C377 1.499 1_545 S
C377 C376 1.499 1_565 S
C377 C378 1.370 . S
C377 C382 1.415 . S
C378 H367 0.930 . S
C378 C377 1.370 . S
C378 C379 1.407 . S
C379 C378 1.407 . S
C379 C380 1.365 . S
C380 H368 0.930 . S
C380 C379 1.365 . S
C380 C381 1.393 . S
C381 C380 1.393 . S
C381 C382 1.387 . S
C382 H369 0.930 . S
C382 C377 1.415 . S
C382 C381 1.387 . S
H383 C391 0.930 . S
H384 C394 0.930 . S
H385 C396 0.930 . S
H386 C397 0.970 1_556 S
H387 C397 0.970 . S
H388 C399 0.930 . S
H389 C401 0.930 . S
H390 C403 0.930 . S
C391 H383 0.930 . S
C391 C392 1.382 . S
C391 C393 1.426 1_556 S
C392 C391 1.382 . S
C392 C396 1.389 1_556 S
C393 C391 1.426 1_554 S
C393 C394 1.375 . S
C393 C397 1.532 . S
C394 H384 0.930 . S
C394 C393 1.375 . S
C394 C395 1.416 . S
C395 C394 1.416 . S
C395 C396 1.371 . S
C396 H385 0.930 . S
C396 C392 1.389 1_554 S
C396 C395 1.371 . S
C397 H386 0.970 1_554 S
C397 H387 0.970 . S
C397 C393 1.532 . S
C397 C398 1.499 . S
C398 C397 1.499 . S
C398 C399 1.370 1_554 S
C398 C403 1.415 . S
C399 H388 0.930 . S
C399 C398 1.370 1_556 S
C399 C400 1.407 . S
C400 C399 1.407 . S
C400 C401 1.365 1_556 S
C401 H389 0.930 . S
C401 C400 1.365 1_554 S
C401 C402 1.393 . S
C402 C401 1.393 . S
C402 C403 1.387 . S
C403 H390 0.930 . S
C403 C398 1.415 . S
C403 C402 1.387 . S
H404 C412 0.930 . S
H405 C415 0.930 . S
H406 C417 0.930 . S
H407 C418 0.970 . S
H408 C418 0.970 . S
H409 C420 0.930 . S
H410 C422 0.930 . S
H411 C424 0.930 . S
C412 H404 0.930 . S
C412 C413 1.382 . S
C412 C414 1.426 . S
C413 C412 1.382 . S
C413 C417 1.389 . S
C414 C412 1.426 . S
C414 C415 1.375 . S
C414 C418 1.532 . S
C415 H405 0.930 . S
C415 C414 1.375 . S
C415 C416 1.416 . S
C416 C415 1.416 . S
C416 C417 1.371 . S
C417 H406 0.930 . S
C417 C413 1.389 . S
C417 C416 1.371 . S
C418 H407 0.970 . S
C418 H408 0.970 . S
C418 C414 1.532 . S
C418 C419 1.499 1_545 S
C419 C418 1.499 1_565 S
C419 C420 1.370 . S
C419 C424 1.415 . S
C420 H409 0.930 . S
C420 C419 1.370 . S
C420 C421 1.407 . S
C421 C420 1.407 . S
C421 C422 1.365 . S
C422 H410 0.930 . S
C422 C421 1.365 . S
C422 C423 1.393 . S
C423 C422 1.393 . S
C423 C424 1.387 . S
C424 H411 0.930 . S
C424 C419 1.415 . S
C424 C423 1.387 . S
H425 C433 0.930 . S
H426 C436 0.930 . S
H427 C438 0.930 . S
H428 C439 0.970 . S
H429 C439 0.970 1_554 S
H430 C441 0.930 . S
H431 C443 0.930 . S
H432 C445 0.930 . S
C433 H425 0.930 . S
C433 C434 1.382 . S
C433 C435 1.426 . S
C434 C433 1.382 . S
C434 C438 1.389 . S
C435 C433 1.426 . S
C435 C436 1.375 1_556 S
C435 C439 1.532 . S
C436 H426 0.930 . S
C436 C435 1.375 1_554 S
C436 C437 1.416 . S
C437 C436 1.416 . S
C437 C438 1.371 1_554 S
C438 H427 0.930 . S
C438 C434 1.389 . S
C438 C437 1.371 1_556 S
C439 H428 0.970 . S
C439 H429 0.970 1_556 S
C439 C435 1.532 . S
C439 C440 1.499 1_556 S
C440 C439 1.499 1_554 S
C440 C441 1.372 1_554 S
C440 C445 1.413 . S
C441 H430 0.930 . S
C441 C440 1.372 1_556 S
C441 C442 1.407 . S
C442 C441 1.407 . S
C442 C443 1.365 1_556 S
C443 H431 0.930 . S
C443 C442 1.365 1_554 S
C443 C444 1.393 . S
C444 C443 1.393 . S
C444 C445 1.387 . S
C445 H432 0.930 . S
C445 C440 1.413 . S
C445 C444 1.387 . S
C337 C15 1.842 . S
C350 C55 1.519 . S
C332 C101 1.857 . S
C360 C141 1.668 . S
C371 C2 1.378 . S
C392 C61 1.573 . S
C95 C421 1.514 . S
C442 C135 1.755 . S
C381 C42 1.374 . S
C82 C402 1.639 . S
C416 C122 1.562 . S
C437 C21 1.720 . S
C162 C358 1.701 . S
C329 C221 2.198 . S
C255 C353 1.610 . S
C282 C339 1.917 . S
C423 C181 1.670 . S
C444 C202 1.949 . S
C374 C242 1.384 . S
C301 C395 1.559 . S
C413 C215 1.637 . S
C434 C261 1.931 . S
C379 C295 1.360 . S
C175 C400 1.698 . S
