# Generated by pormake.
# Topology pyr, (3,6)-cn, num edge types: 1
# Building blocks:
#     Node 0, Type 0, BuildingBlock: MIDCAF_clean_linker_0, # of connection points: 3
#     Node 1, Type 0, BuildingBlock: MIDCAF_clean_linker_0, # of connection points: 3
#     Node 2, Type 0, BuildingBlock: MIDCAF_clean_linker_0, # of connection points: 3
#     Node 3, Type 0, BuildingBlock: MIDCAF_clean_linker_0, # of connection points: 3
#     Node 4, Type 0, BuildingBlock: MIDCAF_clean_linker_0, # of connection points: 3
#     Node 5, Type 0, BuildingBlock: MIDCAF_clean_linker_0, # of connection points: 3
#     Node 6, Type 0, BuildingBlock: MIDCAF_clean_linker_0, # of connection points: 3
#     Node 7, Type 0, BuildingBlock: MIDCAF_clean_linker_0, # of connection points: 3
#     Node 8, Type 1, BuildingBlock: INOVEN_clean_sbu_0, # of connection points: 6
#     Node 9, Type 1, BuildingBlock: INOVEN_clean_sbu_0, # of connection points: 6
#     Node 10, Type 1, BuildingBlock: INOVEN_clean_sbu_0, # of connection points: 6
#     Node 11, Type 1, BuildingBlock: INOVEN_clean_sbu_0, # of connection points: 6
#     Edge 12, Type (0, 1), None
#     Edge 13, Type (0, 1), None
#     Edge 14, Type (0, 1), None
#     Edge 15, Type (0, 1), None
#     Edge 16, Type (0, 1), None
#     Edge 17, Type (0, 1), None
#     Edge 18, Type (0, 1), None
#     Edge 19, Type (0, 1), None
#     Edge 20, Type (0, 1), None
#     Edge 21, Type (0, 1), None
#     Edge 22, Type (0, 1), None
#     Edge 23, Type (0, 1), None
#     Edge 24, Type (0, 1), None
#     Edge 25, Type (0, 1), None
#     Edge 26, Type (0, 1), None
#     Edge 27, Type (0, 1), None
#     Edge 28, Type (0, 1), None
#     Edge 29, Type (0, 1), None
#     Edge 30, Type (0, 1), None
#     Edge 31, Type (0, 1), None
#     Edge 32, Type (0, 1), None
#     Edge 33, Type (0, 1), None
#     Edge 34, Type (0, 1), None
#     Edge 35, Type (0, 1), None
# Relax obj value: 0.223
# Max RMSD: 0.167
# Mean RMSD: 0.078
data_MOF--net-pyr--node1-INOVEN_clean_sbu_0--node2-MIDCAF_clean_linker_0--edge1-none
_symmetry_space_group_name_H-M    P1
_symmetry_Int_Tables_number       1
_symmetry_cell_setting            triclinic
loop_
_symmetry_equiv_pos_as_xyz
'x, y, z'
_cell_length_a     25.755788
_cell_length_b     26.480536
_cell_length_c     23.200336
_cell_angle_alpha  89.951837
_cell_angle_beta   87.565773
_cell_angle_gamma 104.05096
loop_
_atom_site_label
_atom_site_type_symbol
_atom_site_fract_x
_atom_site_fract_y
_atom_site_fract_z
_atom_type_partial_charge
C0 C 0.35246 0.33523 0.50954 0.0
C1 C 0.36153 0.28576 0.51972 0.0
C2 C 0.41269 0.27816 0.50491 0.0
C3 C 0.4476 0.31318 0.46739 0.0
H4 H 0.5501 0.29784 0.31161 0.0
H5 H 0.57115 0.22163 0.26424 0.0
H6 H 0.43998 0.21314 0.15205 0.0
H7 H 0.42022 0.28951 0.19718 0.0
H8 H 0.36695 0.38415 0.19139 0.0
H9 H 0.28277 0.40098 0.16178 0.0
H10 H 0.26342 0.47237 0.32583 0.0
H11 H 0.34738 0.45624 0.35557 0.0
H12 H 0.37613 0.4054 0.45996 0.0
H13 H 0.31466 0.34394 0.52213 0.0
H14 H 0.42269 0.24192 0.51556 0.0
H15 H 0.48267 0.30217 0.44926 0.0
N16 N 0.4697 0.34158 0.34962 0.0
N17 N 0.43287 0.36748 0.26702 0.0
N18 N 0.41336 0.39858 0.35763 0.0
C19 C 0.46501 0.34025 0.29148 0.0
C20 C 0.40752 0.39753 0.29982 0.0
C21 C 0.4438 0.37057 0.38328 0.0
C22 C 0.4836 0.29983 0.25803 0.0
C23 C 0.52652 0.28018 0.27604 0.0
C24 C 0.53844 0.23657 0.24926 0.0
C25 C 0.50643 0.21103 0.2055 0.0
C26 C 0.46467 0.23159 0.18649 0.0
C27 C 0.45381 0.27581 0.2119 0.0
C28 C 0.36376 0.41801 0.27629 0.0
C29 C 0.34552 0.40456 0.22071 0.0
C30 C 0.29716 0.41404 0.20373 0.0
C31 C 0.266 0.43687 0.24208 0.0
C32 C 0.28601 0.45357 0.29595 0.0
C33 C 0.33443 0.44458 0.31273 0.0
C34 C 0.43148 0.35606 0.44508 0.0
C35 C 0.38807 0.37081 0.47334 0.0
C36 C 0.05678 0.96551 0.74629 0.0
C37 C 0.05701 0.95981 0.68616 0.0
C38 C 0.06069 0.91194 0.66248 0.0
C39 C 0.0684 0.87193 0.69754 0.0
H40 H 0.2133 0.82038 0.70384 0.0
H41 H 0.29744 0.79812 0.67513 0.0
H42 H 0.26238 0.67179 0.7993 0.0
H43 H 0.17891 0.69492 0.82961 0.0
H44 H 0.17603 0.77145 0.95361 0.0
H45 H 0.22895 0.82299 1.02565 0.0
H46 H 0.12489 0.92882 1.02728 0.0
H47 H 0.0738 0.87892 0.95171 0.0
H48 H 0.06733 0.93158 0.82768 0.0
H49 H 0.05371 1.00198 0.76555 0.0
H50 H 0.06 0.90611 0.61625 0.0
H51 H 0.07357 0.83649 0.67737 0.0
N52 N 0.12232 0.81116 0.76508 0.0
N53 N 0.14187 0.78119 0.85443 0.0
N54 N 0.08863 0.84122 0.85049 0.0
C55 C 0.14687 0.78097 0.79612 0.0
C56 C 0.11305 0.81114 0.88225 0.0
C57 C 0.09215 0.8406 0.79185 0.0
C58 C 0.18949 0.75927 0.76893 0.0
C59 C 0.2227 0.78691 0.72387 0.0
C60 C 0.27108 0.77463 0.70782 0.0
C61 C 0.28627 0.73368 0.73547 0.0
C62 C 0.25132 0.70357 0.77745 0.0
C63 C 0.20359 0.71665 0.79456 0.0
C64 C 0.12328 0.82344 0.9437 0.0
C65 C 0.16312 0.80476 0.97048 0.0
C66 C 0.19355 0.83435 1.01248 0.0
C67 C 0.18339 0.88212 1.02935 0.0
C68 C 0.13566 0.89377 1.01248 0.0
C69 C 0.10595 0.86483 0.96945 0.0
C70 C 0.07253 0.87872 0.75729 0.0
C71 C 0.06446 0.92513 0.78171 0.0
C72 C 0.62486 0.21835 1.00802 0.0
C73 C 0.56861 0.20439 1.00874 0.0
C74 C 0.54229 0.23922 0.98355 0.0
C75 C 0.57111 0.28697 0.9593 0.0
H76 H 0.61591 0.39097 0.78481 0.0
H77 H 0.5829 0.43598 0.70713 0.0
H78 H 0.63034 0.58088 0.79772 0.0
H79 H 0.66581 0.5362 0.87427 0.0
H80 H 0.78487 0.53354 0.94953 0.0
H81 H 0.86652 0.57439 0.99831 0.0
H82 H 0.8681 0.42626 1.07518 0.0
H83 H 0.78645 0.38552 1.027 0.0
H84 H 0.69702 0.27734 0.98735 0.0
H85 H 0.64631 0.19248 1.0268 0.0
H86 H 0.49895 0.22986 0.98325 0.0
H87 H 0.54913 0.31289 0.94136 0.0
N88 N 0.63831 0.38185 0.899 0.0
N89 N 0.70902 0.45581 0.91152 0.0
N90 N 0.70262 0.38023 0.96744 0.0
C91 C 0.66409 0.43182 0.88356 0.0
C92 C 0.72884 0.43016 0.95334 0.0
C93 C 0.65722 0.35579 0.94112 0.0
C94 C 0.64357 0.45973 0.83617 0.0
C95 C 0.61962 0.43248 0.78815 0.0
C96 C 0.60093 0.45844 0.74331 0.0
C97 C 0.6039 0.51224 0.74583 0.0
C98 C 0.62732 0.53949 0.79413 0.0
C99 C 0.64773 0.51382 0.83808 0.0
C100 C 0.77867 0.45595 0.98375 0.0
C101 C 0.80244 0.50958 0.97689 0.0
C102 C 0.84935 0.53314 1.00521 0.0
C103 C 0.87429 0.50376 1.04091 0.0
C104 C 0.8503 0.4503 1.04817 0.0
C105 C 0.80321 0.42685 1.0203 0.0
C106 C 0.62723 0.30226 0.961 0.0
C107 C 0.65379 0.26705 0.98536 0.0
C108 C 0.72031 0.68662 0.57724 0.0
C109 C 0.67628 0.65203 0.55361 0.0
C110 C 0.68137 0.63675 0.49584 0.0
C111 C 0.72924 0.65612 0.4625 0.0
H112 H 0.84777 0.61733 0.34088 0.0
H113 H 0.88296 0.56792 0.26719 0.0
H114 H 1.01303 0.70122 0.22608 0.0
H115 H 0.97771 0.75153 0.30075 0.0
H116 H 0.99571 0.85639 0.41153 0.0
H117 H 0.03416 0.94284 0.45225 0.0
H118 H 0.88019 0.94312 0.53264 0.0
H119 H 0.84238 0.85845 0.49316 0.0
H120 H 0.79976 0.73437 0.56336 0.0
H121 H 0.71804 0.6993 0.62146 0.0
H122 H 0.64816 0.61026 0.47623 0.0
H123 H 0.73164 0.64431 0.41798 0.0
N124 N 0.84178 0.69383 0.40612 0.0
N125 N 0.91256 0.76879 0.38881 0.0
N126 N 0.84677 0.76793 0.46241 0.0
C127 C 0.88756 0.71833 0.3752 0.0
C128 C 0.89171 0.79402 0.43243 0.0
C129 C 0.82144 0.71833 0.45009 0.0
C130 C 0.90966 0.68897 0.32776 0.0
C131 C 0.88381 0.63672 0.31636 0.0
C132 C 0.90408 0.60804 0.27366 0.0
C133 C 0.95104 0.63023 0.24034 0.0
C134 C 0.97675 0.68267 0.25074 0.0
C135 C 0.95644 0.71157 0.29382 0.0
C136 C 0.91597 0.84942 0.44955 0.0
C137 C 0.96997 0.87531 0.43716 0.0
C138 C 0.99198 0.92504 0.46045 0.0
C139 C 0.96049 0.95 0.49655 0.0
C140 C 0.90611 0.9251 0.50612 0.0
C141 C 0.88435 0.87604 0.48317 0.0
C142 C 0.77245 0.69233 0.48578 0.0
C143 C 0.76733 0.70683 0.54374 0.0
C144 C 0.52 0.92312 0.9682 0.0
C145 C 0.55195 0.9486 1.01204 0.0
C146 C 0.59365 0.92801 1.03111 0.0
C147 C 0.60455 0.8838 1.00568 0.0
H148 H 0.6919 0.77585 1.02582 0.0
H149 H 0.77613 0.75901 1.05529 0.0
H150 H 0.79514 0.68742 0.89128 0.0
H151 H 0.71114 0.70355 0.86169 0.0
H152 H 0.68253 0.75468 0.75742 0.0
H153 H 0.74383 0.81617 0.69512 0.0
H154 H 0.63551 0.9179 0.7017 0.0
H155 H 0.5757 0.85761 0.76815 0.0
H156 H 0.50844 0.86193 0.90577 0.0
H157 H 0.48734 0.9381 0.95317 0.0
H158 H 0.61829 0.94642 1.0656 0.0
H159 H 0.63811 0.87009 1.02043 0.0
N160 N 0.62573 0.79233 0.95034 0.0
N161 N 0.64527 0.76135 0.85968 0.0
N162 N 0.58883 0.81823 0.8678 0.0
C163 C 0.65112 0.76236 0.91749 0.0
C164 C 0.61477 0.78933 0.83408 0.0
C165 C 0.59353 0.81952 0.92593 0.0
C166 C 0.69492 0.74189 0.94095 0.0
C167 C 0.71327 0.7554 0.99649 0.0
C168 C 0.76165 0.74591 1.01338 0.0
C169 C 0.79273 0.72302 0.97501 0.0
C170 C 0.77262 0.70627 0.92119 0.0
C171 C 0.72417 0.71526 0.90449 0.0
C172 C 0.62705 0.80388 0.77229 0.0
C173 C 0.67052 0.78922 0.74403 0.0
C174 C 0.706 0.82481 0.70772 0.0
C175 C 0.69679 0.87422 0.69749 0.0
C176 C 0.64561 0.88172 0.71237 0.0
C177 C 0.61082 0.8467 0.74998 0.0
C178 C 0.57485 0.85985 0.95946 0.0
C179 C 0.53195 0.87953 0.9414 0.0
C180 C 0.92285 0.2665 0.20409 0.0
C181 C 0.87504 0.27808 0.18737 0.0
C182 C 0.86482 0.3258 0.20434 0.0
C183 C 0.89532 0.35541 0.2463 0.0
H184 H 0.87987 0.46532 0.38716 0.0
H185 H 0.79642 0.48844 0.41759 0.0
H186 H 0.76156 0.36218 0.54184 0.0
H187 H 0.84568 0.33992 0.513 0.0
H188 H 0.98558 0.32375 0.5391 0.0
H189 H 0.99906 0.25407 0.6002 0.0
H190 H 1.00445 0.15793 0.45095 0.0
H191 H 0.99094 0.22839 0.38884 0.0
H192 H 0.98483 0.28138 0.26472 0.0
H193 H 0.93366 0.2315 0.1892 0.0
H194 H 0.82937 0.33712 0.19128 0.0
H195 H 0.88236 0.38866 0.26324 0.0
N196 N 0.91686 0.37905 0.36227 0.0
N197 N 0.93651 0.34905 0.45156 0.0
N198 N 0.97002 0.31893 0.36607 0.0
C199 C 0.91196 0.37927 0.42059 0.0
C200 C 0.96659 0.31956 0.42471 0.0
C201 C 0.94559 0.34906 0.33438 0.0
C202 C 0.86938 0.40099 0.44786 0.0
C203 C 0.85524 0.4436 0.42225 0.0
C204 C 0.80753 0.45668 0.43943 0.0
C205 C 0.77264 0.42659 0.48147 0.0
C206 C 0.78788 0.38566 0.5091 0.0
C207 C 0.83625 0.37338 0.49298 0.0
C208 C 0.98619 0.28139 0.45922 0.0
C209 C 0.99054 0.28823 0.51893 0.0
C210 C 0.9982 0.24819 0.55399 0.0
C211 C 1.00159 0.20023 0.53033 0.0
C212 C 1.00161 0.19446 0.47021 0.0
C213 C 0.99399 0.23487 0.43479 0.0
C214 C 0.93525 0.33677 0.27295 0.0
C215 C 0.9526 0.29545 0.24709 0.0
C216 C 0.20927 0.62668 0.21184 0.0
C217 C 0.18434 0.65607 0.17613 0.0
C218 C 0.20832 0.70953 0.16889 0.0
C219 C 0.25541 0.73297 0.19678 0.0
H220 H 0.36166 0.88233 0.22939 0.0
H221 H 0.41238 0.96721 0.19005 0.0
H222 H 0.55967 0.93013 0.2344 0.0
H223 H 0.50946 0.84704 0.27615 0.0
H224 H 0.44262 0.76885 0.43236 0.0
H225 H 0.4756 0.72386 0.51006 0.0
H226 H 0.42813 0.57893 0.41953 0.0
H227 H 0.39269 0.62359 0.34295 0.0
H228 H 0.27372 0.62627 0.26754 0.0
H229 H 0.1921 0.58542 0.21873 0.0
H230 H 0.19053 0.73357 0.14188 0.0
H231 H 0.27217 0.7743 0.19009 0.0
N232 N 0.35601 0.77956 0.24964 0.0
N233 N 0.42028 0.77795 0.31815 0.0
N234 N 0.34954 0.704 0.30562 0.0
C235 C 0.4014 0.804 0.27598 0.0
C236 C 0.39447 0.72798 0.33359 0.0
C237 C 0.32976 0.72964 0.26376 0.0
C238 C 0.43141 0.85754 0.25612 0.0
C239 C 0.40487 0.89268 0.23157 0.0
C240 C 0.43381 0.9414 0.20898 0.0
C241 C 0.49005 0.95546 0.20853 0.0
C242 C 0.51634 0.92069 0.23389 0.0
C243 C 0.48751 0.87291 0.25806 0.0
C244 C 0.41495 0.70008 0.38101 0.0
C245 C 0.4389 0.72734 0.42903 0.0
C246 C 0.45756 0.70139 0.4739 0.0
C247 C 0.45458 0.64758 0.4714 0.0
C248 C 0.43116 0.62032 0.4231 0.0
C249 C 0.41076 0.64599 0.37913 0.0
C250 C 0.27994 0.70386 0.23333 0.0
C251 C 0.25617 0.65023 0.24018 0.0
C252 C 0.15225 0.23464 0.71073 0.0
C253 C 0.09785 0.20982 0.72025 0.0
C254 C 0.06638 0.23481 0.75634 0.0
C255 C 0.08844 0.2845 0.77967 0.0
H256 H 0.08072 0.40827 0.91604 0.0
H257 H 0.04545 0.45857 0.99075 0.0
H258 H 0.17588 0.59166 0.95011 0.0
H259 H 0.21103 0.54226 0.87637 0.0
H260 H 0.32677 0.51562 0.79887 0.0
H261 H 0.41028 0.54967 0.74068 0.0
H262 H 0.34075 0.46008 0.59565 0.0
H263 H 0.25899 0.42504 0.6537 0.0
H264 H 0.21605 0.30122 0.72377 0.0
H265 H 0.17815 0.21661 0.68421 0.0
H266 H 0.02418 0.21706 0.7645 0.0
H267 H 0.06273 0.30346 0.80529 0.0
N268 N 0.14597 0.39094 0.82812 0.0
N269 N 0.2168 0.46586 0.81086 0.0
N270 N 0.21174 0.39178 0.75452 0.0
C271 C 0.17101 0.44138 0.84177 0.0
C272 C 0.23711 0.44136 0.76686 0.0
C273 C 0.16678 0.36571 0.78449 0.0
C274 C 0.14895 0.47073 0.88925 0.0
C275 C 0.10208 0.44818 0.92308 0.0
C276 C 0.0818 0.47708 0.96619 0.0
C277 C 0.10762 0.52946 0.97673 0.0
C278 C 0.15468 0.55159 0.94353 0.0
C279 C 0.17492 0.52292 0.9008 0.0
C280 C 0.28613 0.46733 0.73119 0.0
C281 C 0.32926 0.50369 0.75441 0.0
C282 C 0.37714 0.52306 0.7211 0.0
C283 C 0.38234 0.50762 0.6634 0.0
C284 C 0.33839 0.47289 0.63981 0.0
C285 C 0.29136 0.45269 0.67328 0.0
C286 C 0.14247 0.31034 0.76734 0.0
C287 C 0.17407 0.28368 0.73373 0.0
Gd288 Gd 0.07911 0.08644 0.57418 0.0
Gd289 Gd 0.97908 1.07364 0.64232 0.0
C290 C 0.07421 0.1614 0.68728 0.0
C291 C 0.17073 0.11924 0.51937 0.0
C292 C 0.2197 0.16072 0.52434 0.0
C293 C 0.26691 0.15467 0.49651 0.0
C294 C 0.22045 0.20546 0.55696 0.0
C295 C 0.31492 0.24007 0.5294 0.0
C296 C 0.26779 0.24469 0.55987 0.0
C297 C 0.31391 0.19386 0.49873 0.0
C298 C 0.05913 1.00387 0.64645 0.0
C299 C 0.98407 0.99848 0.52943 0.0
C300 C 0.88732 1.04112 0.69693 0.0
C301 C 0.8384 0.99953 0.69221 0.0
C302 C 0.79121 1.00554 0.72011 0.0
C303 C 0.83769 0.95471 0.65974 0.0
C304 C 0.7433 0.91997 0.68759 0.0
C305 C 0.79041 0.91537 0.65705 0.0
C306 C 0.74428 0.96624 0.71811 0.0
C307 C 0.99936 0.15617 0.57007 0.0
O308 O 0.09879 0.15317 0.6381 0.0
O309 O 0.02752 0.13048 0.70368 0.0
O310 O 0.16179 0.0837 0.55995 0.0
O311 O 0.12739 0.13307 0.50533 0.0
O312 O 0.07848 1.00411 0.5941 0.0
O313 O 0.05228 1.04826 0.65986 0.0
O314 O 0.95955 1.00669 0.57867 0.0
O315 O 0.03065 1.02952 0.5129 0.0
O316 O 0.89631 1.07629 0.65595 0.0
O317 O 0.93064 1.02749 0.71141 0.0
O318 O 0.98012 0.15606 0.62244 0.0
O319 O 1.00588 0.11166 0.55662 0.0
H320 H 0.26709 0.12015 0.4715 0.0
H321 H 0.18425 0.21061 0.57896 0.0
H322 H 0.2669 0.2793 0.58431 0.0
H323 H 0.34851 0.18886 0.47336 0.0
H324 H 0.791 1.04012 0.745 0.0
H325 H 0.87388 0.94958 0.6377 0.0
H326 H 0.79133 0.88071 0.63271 0.0
H327 H 0.7097 0.97123 0.74353 0.0
Gd328 Gd 0.58633 0.08933 0.12377 0.0
Gd329 Gd 0.47214 1.07051 1.09349 0.0
C330 C 0.51517 0.16301 0.17893 0.0
C331 C 0.68815 0.11743 0.13843 0.0
C332 C 0.73635 0.15909 0.14659 0.0
C333 C 0.77631 0.14747 0.17934 0.0
C334 C 0.74419 0.20887 0.12175 0.0
C335 C 0.83063 0.23607 0.16622 0.0
C336 C 0.79114 0.2471 0.13134 0.0
C337 C 0.82277 0.1854 0.18923 0.0
C338 C 0.52257 1.00339 0.17808 0.0
C339 C 0.54324 0.99666 1.03856 0.0
C340 C 0.37035 1.04256 1.07861 0.0
C341 C 0.32214 1.00096 1.07032 0.0
C342 C 0.28233 1.0126 1.03736 0.0
C343 C 0.31413 0.9512 1.09529 0.0
C344 C 0.22781 0.92408 1.05054 0.0
C345 C 0.26716 0.91302 1.08561 0.0
C346 C 0.23585 0.97473 1.02739 0.0
C347 C 0.53611 0.15655 1.03937 0.0
O348 O 0.56414 0.15945 0.16392 0.0
O349 O 0.47266 0.12741 0.16437 0.0
O350 O 0.65244 0.10624 0.18137 0.0
O351 O 0.66732 0.11356 1.08772 0.0
O352 O 0.57216 1.00864 0.1619 0.0
O353 O 0.50947 1.04588 0.16929 0.0
O354 O 0.49428 1.00031 1.05347 0.0
O355 O 0.58578 1.03224 1.05309 0.0
O356 O 0.40613 1.05378 1.03574 0.0
O357 O 0.39109 1.04635 0.12937 0.0
O358 O 0.48657 0.1514 1.0557 0.0
O359 O 0.54896 0.1139 1.04789 0.0
H360 H 0.77107 0.10909 0.19848 0.0
H361 H 0.71385 0.21847 1.09594 0.0
H362 H 0.79582 0.28555 0.11274 0.0
H363 H 0.85113 0.17539 0.21761 0.0
H364 H 0.2877 1.05096 1.01813 0.0
H365 H 0.34434 0.94158 0.12127 0.0
H366 H 0.26234 0.87459 1.1043 0.0
H367 H 0.20761 0.98475 0.99887 0.0
Gd368 Gd 0.53033 0.53576 0.57118 0.0
Gd369 Gd 0.52832 0.62416 0.64598 0.0
C370 C 0.58079 0.53881 0.69936 0.0
C371 C 0.56327 0.46627 0.51164 0.0
C372 C 0.61634 0.45483 0.50686 0.0
C373 C 0.62185 0.40589 0.48874 0.0
C374 C 0.66218 0.49347 0.51984 0.0
C375 C 0.71881 0.43554 0.4931 0.0
C376 C 0.7131 0.4842 0.51213 0.0
C377 C 0.67283 0.39615 0.48233 0.0
C378 C 0.43348 0.52532 0.62805 0.0
C379 C 0.47771 0.62103 0.51786 0.0
C380 C 0.49557 0.6938 0.70545 0.0
C381 C 0.44252 0.70529 0.7102 0.0
C382 C 0.43706 0.75429 0.72818 0.0
C383 C 0.39666 0.66664 0.69734 0.0
C384 C 0.34009 0.72467 0.72387 0.0
C385 C 0.34576 0.67596 0.705 0.0
C386 C 0.3861 0.76408 0.73455 0.0
C387 C 0.62517 0.63434 0.58901 0.0
O388 O 0.58037 0.5213 0.64586 0.0
O389 O 0.55915 0.57788 0.71249 0.0
O390 O 0.53751 0.45599 0.56163 0.0
O391 O 0.56124 0.51147 0.49058 0.0
O392 O 0.44004 0.50896 0.57616 0.0
O393 O 0.47879 0.54342 0.64864 0.0
O394 O 0.47819 0.63857 0.57136 0.0
O395 O 0.49935 0.58196 0.50472 0.0
O396 O 0.52132 0.70399 0.65544 0.0
O397 O 0.49757 0.64861 0.72658 0.0
O398 O 0.61869 0.6506 0.64096 0.0
O399 O 0.57979 0.61657 0.56849 0.0
H400 H 0.5869 0.37554 0.47892 0.0
H401 H 0.65857 0.53107 0.53523 0.0
H402 H 0.748 0.51497 0.52093 0.0
H403 H 0.67651 0.35839 0.4673 0.0
H404 H 0.47203 0.78464 0.73791 0.0
H405 H 0.40023 0.62899 0.68206 0.0
H406 H 0.31084 0.64518 0.69628 0.0
H407 H 0.38245 0.80187 0.74946 0.0
Gd408 Gd 0.02731 0.5334 0.14156 0.0
Gd409 Gd 0.03141 0.62637 1.0753 0.0
C410 C 0.13247 0.6316 0.149 0.0
C411 C 0.05434 0.45553 0.18822 0.0
C412 C 0.10776 0.44805 0.20037 0.0
C413 C 0.11659 0.42806 0.25403 0.0
C414 C 0.15119 0.46416 0.16015 0.0
C415 C 0.21155 0.44078 0.22742 0.0
C416 C 0.2025 0.46016 0.17341 0.0
C417 C 0.16805 0.42461 0.26754 0.0
C418 C 0.97327 0.5975 0.19715 0.0
C419 C 0.92618 0.52821 1.068 0.0
C420 C 1.00443 0.7042 1.02848 0.0
C421 C 0.951 0.71173 1.01642 0.0
C422 C 0.94211 0.73167 0.96277 0.0
C423 C 0.90765 0.69572 1.05674 0.0
C424 C 0.84719 0.71908 0.98956 0.0
C425 C 0.85633 0.69976 1.04358 0.0
C426 C 0.89063 0.73517 0.94935 0.0
C427 C 0.0854 0.56219 1.01992 0.0
O428 O 0.11279 0.5807 0.15341 0.0
O429 O 0.10563 0.66085 0.12296 0.0
O430 O 0.03898 0.49129 0.21849 0.0
O431 O 0.04359 0.45718 0.1338 0.0
O432 O 0.95688 0.54709 0.19568 0.0
O433 O 1.01802 0.61161 0.16943 0.0
O434 O 0.94588 0.57912 1.06357 0.0
O435 O 0.95303 0.49895 1.094 0.0
O436 O 0.01965 0.66833 0.99828 0.0
O437 O 1.0153 0.70267 1.08287 0.0
O438 O 0.10191 0.61259 1.02145 0.0
O439 O 0.04053 0.54814 1.04744 0.0
H440 H 0.08379 0.41575 0.28576 0.0
H441 H 0.14571 0.48057 0.1187 0.0
H442 H 0.2353 0.47322 0.14189 0.0
H443 H 0.17378 0.40893 0.30929 0.0
H444 H 0.97485 0.74391 0.93096 0.0
H445 H 0.91318 0.67935 1.09819 0.0
H446 H 0.82357 0.68676 1.07517 0.0
H447 H 0.88484 0.7508 0.9076 0.0
loop_
_geom_bond_atom_site_label_1
_geom_bond_atom_site_label_2
_geom_bond_distance
_geom_bond_site_symmetry_2
_ccdc_geom_bond_type
C0 C1 1.384 . S
C0 H13 0.947 . S
C0 C35 1.382 . S
C1 C0 1.384 . S
C1 C2 1.378 . S
C2 C1 1.378 . S
C2 C3 1.378 . S
C2 H14 0.952 . S
C3 C2 1.378 . S
C3 H15 0.950 . S
C3 C34 1.383 . S
H4 C23 0.947 . S
H5 C24 0.946 . S
H6 C26 0.953 . S
H7 C27 0.945 . S
H8 C29 0.952 . S
H9 C30 0.949 . S
H10 C32 0.950 . S
H11 C33 0.948 . S
H12 C35 0.951 . S
H13 C0 0.947 . S
H14 C2 0.952 . S
H15 C3 0.950 . S
N16 C19 1.382 . S
N16 C21 1.363 . S
N17 C19 1.371 . S
N17 C20 1.372 . S
N18 C20 1.361 . S
N18 C21 1.377 . S
C19 N16 1.382 . S
C19 N17 1.371 . S
C19 C22 1.480 . S
C20 N17 1.372 . S
C20 N18 1.361 . S
C20 C28 1.457 . S
C21 N16 1.363 . S
C21 N18 1.377 . S
C21 C34 1.479 . S
C22 C19 1.480 . S
C22 C23 1.383 . S
C22 C27 1.385 . S
C23 H4 0.947 . S
C23 C22 1.383 . S
C23 C24 1.388 . S
C24 H5 0.946 . S
C24 C23 1.388 . S
C24 C25 1.384 . S
C25 C24 1.384 . S
C25 C26 1.377 . S
C26 H6 0.953 . S
C26 C25 1.377 . S
C26 C27 1.369 . S
C27 H7 0.945 . S
C27 C22 1.385 . S
C27 C26 1.369 . S
C28 C20 1.457 . S
C28 C29 1.372 . S
C28 C33 1.364 . S
C29 H8 0.952 . S
C29 C28 1.372 . S
C29 C30 1.389 . S
C30 H9 0.949 . S
C30 C29 1.389 . S
C30 C31 1.387 . S
C31 C30 1.387 . S
C31 C32 1.372 . S
C32 H10 0.950 . S
C32 C31 1.372 . S
C32 C33 1.379 . S
C33 H11 0.948 . S
C33 C28 1.364 . S
C33 C32 1.379 . S
C34 C3 1.383 . S
C34 C21 1.479 . S
C34 C35 1.398 . S
C35 C0 1.382 . S
C35 H12 0.951 . S
C35 C34 1.398 . S
C36 C37 1.384 . S
C36 H49 0.947 . S
C36 C71 1.382 . S
C37 C36 1.384 . S
C37 C38 1.378 . S
C38 C37 1.378 . S
C38 C39 1.378 . S
C38 H50 0.952 . S
C39 C38 1.378 . S
C39 H51 0.950 . S
C39 C70 1.383 . S
H40 C59 0.947 . S
H41 C60 0.946 . S
H42 C62 0.953 . S
H43 C63 0.945 . S
H44 C65 0.952 . S
H45 C66 0.949 . S
H46 C68 0.950 . S
H47 C69 0.948 . S
H48 C71 0.951 . S
H49 C36 0.947 . S
H50 C38 0.952 . S
H51 C39 0.950 . S
N52 C55 1.382 . S
N52 C57 1.363 . S
N53 C55 1.371 . S
N53 C56 1.372 . S
N54 C56 1.361 . S
N54 C57 1.377 . S
C55 N52 1.382 . S
C55 N53 1.371 . S
C55 C58 1.480 . S
C56 N53 1.372 . S
C56 N54 1.361 . S
C56 C64 1.457 . S
C57 N52 1.363 . S
C57 N54 1.377 . S
C57 C70 1.479 . S
C58 C55 1.480 . S
C58 C59 1.383 . S
C58 C63 1.385 . S
C59 H40 0.947 . S
C59 C58 1.383 . S
C59 C60 1.388 . S
C60 H41 0.946 . S
C60 C59 1.388 . S
C60 C61 1.384 . S
C61 C60 1.384 . S
C61 C62 1.377 . S
C62 H42 0.953 . S
C62 C61 1.377 . S
C62 C63 1.369 . S
C63 H43 0.945 . S
C63 C58 1.385 . S
C63 C62 1.369 . S
C64 C56 1.457 . S
C64 C65 1.372 . S
C64 C69 1.364 . S
C65 H44 0.952 . S
C65 C64 1.372 . S
C65 C66 1.389 . S
C66 H45 0.949 . S
C66 C65 1.389 . S
C66 C67 1.387 . S
C67 C66 1.387 . S
C67 C68 1.372 . S
C68 H46 0.950 . S
C68 C67 1.372 . S
C68 C69 1.379 . S
C69 H47 0.948 . S
C69 C64 1.364 . S
C69 C68 1.379 . S
C70 C39 1.383 . S
C70 C57 1.479 . S
C70 C71 1.398 . S
C71 C36 1.382 . S
C71 H48 0.951 . S
C71 C70 1.398 . S
C72 C73 1.384 . S
C72 H85 0.947 . S
C72 C107 1.382 . S
C73 C72 1.384 . S
C73 C74 1.378 . S
C74 C73 1.378 . S
C74 C75 1.378 . S
C74 H86 0.952 . S
C75 C74 1.378 . S
C75 H87 0.950 . S
C75 C106 1.383 . S
H76 C95 0.947 . S
H77 C96 0.946 . S
H78 C98 0.953 . S
H79 C99 0.945 . S
H80 C101 0.952 . S
H81 C102 0.949 . S
H82 C104 0.950 . S
H83 C105 0.948 . S
H84 C107 0.951 . S
H85 C72 0.947 . S
H86 C74 0.952 . S
H87 C75 0.950 . S
N88 C91 1.382 . S
N88 C93 1.363 . S
N89 C91 1.371 . S
N89 C92 1.372 . S
N90 C92 1.361 . S
N90 C93 1.377 . S
C91 N88 1.382 . S
C91 N89 1.371 . S
C91 C94 1.480 . S
C92 N89 1.372 . S
C92 N90 1.361 . S
C92 C100 1.457 . S
C93 N88 1.363 . S
C93 N90 1.377 . S
C93 C106 1.479 . S
C94 C91 1.480 . S
C94 C95 1.383 . S
C94 C99 1.385 . S
C95 H76 0.947 . S
C95 C94 1.383 . S
C95 C96 1.388 . S
C96 H77 0.946 . S
C96 C95 1.388 . S
C96 C97 1.384 . S
C97 C96 1.384 . S
C97 C98 1.377 . S
C98 H78 0.953 . S
C98 C97 1.377 . S
C98 C99 1.369 . S
C99 H79 0.945 . S
C99 C94 1.385 . S
C99 C98 1.369 . S
C100 C92 1.457 . S
C100 C101 1.372 . S
C100 C105 1.364 . S
C101 H80 0.952 . S
C101 C100 1.372 . S
C101 C102 1.389 . S
C102 H81 0.949 . S
C102 C101 1.389 . S
C102 C103 1.387 . S
C103 C102 1.387 . S
C103 C104 1.372 . S
C104 H82 0.950 . S
C104 C103 1.372 . S
C104 C105 1.379 . S
C105 H83 0.948 . S
C105 C100 1.364 . S
C105 C104 1.379 . S
C106 C75 1.383 . S
C106 C93 1.479 . S
C106 C107 1.398 . S
C107 C72 1.382 . S
C107 H84 0.951 . S
C107 C106 1.398 . S
C108 C109 1.384 . S
C108 H121 0.947 . S
C108 C143 1.382 . S
C109 C108 1.384 . S
C109 C110 1.378 . S
C110 C109 1.378 . S
C110 C111 1.378 . S
C110 H122 0.952 . S
C111 C110 1.378 . S
C111 H123 0.950 . S
C111 C142 1.383 . S
H112 C131 0.947 . S
H113 C132 0.946 . S
H114 C134 0.953 . S
H115 C135 0.945 . S
H116 C137 0.952 . S
H117 C138 0.949 . S
H118 C140 0.950 . S
H119 C141 0.948 . S
H120 C143 0.951 . S
H121 C108 0.947 . S
H122 C110 0.952 . S
H123 C111 0.950 . S
N124 C127 1.382 . S
N124 C129 1.363 . S
N125 C127 1.371 . S
N125 C128 1.372 . S
N126 C128 1.361 . S
N126 C129 1.377 . S
C127 N124 1.382 . S
C127 N125 1.371 . S
C127 C130 1.480 . S
C128 N125 1.372 . S
C128 N126 1.361 . S
C128 C136 1.457 . S
C129 N124 1.363 . S
C129 N126 1.377 . S
C129 C142 1.479 . S
C130 C127 1.480 . S
C130 C131 1.383 . S
C130 C135 1.385 . S
C131 H112 0.947 . S
C131 C130 1.383 . S
C131 C132 1.388 . S
C132 H113 0.946 . S
C132 C131 1.388 . S
C132 C133 1.384 . S
C133 C132 1.384 . S
C133 C134 1.377 . S
C134 H114 0.953 . S
C134 C133 1.377 . S
C134 C135 1.369 . S
C135 H115 0.945 . S
C135 C130 1.385 . S
C135 C134 1.369 . S
C136 C128 1.457 . S
C136 C137 1.372 . S
C136 C141 1.364 . S
C137 H116 0.952 . S
C137 C136 1.372 . S
C137 C138 1.389 . S
C138 H117 0.949 . S
C138 C137 1.389 . S
C138 C139 1.387 . S
C139 C138 1.387 . S
C139 C140 1.372 . S
C140 H118 0.950 . S
C140 C139 1.372 . S
C140 C141 1.379 . S
C141 H119 0.948 . S
C141 C136 1.364 . S
C141 C140 1.379 . S
C142 C111 1.383 . S
C142 C129 1.479 . S
C142 C143 1.398 . S
C143 C108 1.382 . S
C143 H120 0.951 . S
C143 C142 1.398 . S
C144 C145 1.384 . S
C144 H157 0.947 . S
C144 C179 1.382 . S
C145 C144 1.384 . S
C145 C146 1.378 . S
C146 C145 1.378 . S
C146 C147 1.378 . S
C146 H158 0.952 . S
C147 C146 1.378 . S
C147 H159 0.950 . S
C147 C178 1.383 . S
H148 C167 0.947 . S
H149 C168 0.946 . S
H150 C170 0.953 . S
H151 C171 0.945 . S
H152 C173 0.952 . S
H153 C174 0.949 . S
H154 C176 0.950 . S
H155 C177 0.948 . S
H156 C179 0.951 . S
H157 C144 0.947 . S
H158 C146 0.952 . S
H159 C147 0.950 . S
N160 C163 1.382 . S
N160 C165 1.363 . S
N161 C163 1.371 . S
N161 C164 1.372 . S
N162 C164 1.361 . S
N162 C165 1.377 . S
C163 N160 1.382 . S
C163 N161 1.371 . S
C163 C166 1.480 . S
C164 N161 1.372 . S
C164 N162 1.361 . S
C164 C172 1.457 . S
C165 N160 1.363 . S
C165 N162 1.377 . S
C165 C178 1.479 . S
C166 C163 1.480 . S
C166 C167 1.383 . S
C166 C171 1.385 . S
C167 H148 0.947 . S
C167 C166 1.383 . S
C167 C168 1.388 . S
C168 H149 0.946 . S
C168 C167 1.388 . S
C168 C169 1.384 . S
C169 C168 1.384 . S
C169 C170 1.377 . S
C170 H150 0.953 . S
C170 C169 1.377 . S
C170 C171 1.369 . S
C171 H151 0.945 . S
C171 C166 1.385 . S
C171 C170 1.369 . S
C172 C164 1.457 . S
C172 C173 1.372 . S
C172 C177 1.364 . S
C173 H152 0.952 . S
C173 C172 1.372 . S
C173 C174 1.389 . S
C174 H153 0.949 . S
C174 C173 1.389 . S
C174 C175 1.387 . S
C175 C174 1.387 . S
C175 C176 1.372 . S
C176 H154 0.950 . S
C176 C175 1.372 . S
C176 C177 1.379 . S
C177 H155 0.948 . S
C177 C172 1.364 . S
C177 C176 1.379 . S
C178 C147 1.383 . S
C178 C165 1.479 . S
C178 C179 1.398 . S
C179 C144 1.382 . S
C179 H156 0.951 . S
C179 C178 1.398 . S
C180 C181 1.384 . S
C180 H193 0.947 . S
C180 C215 1.382 . S
C181 C180 1.384 . S
C181 C182 1.378 . S
C182 C181 1.378 . S
C182 C183 1.378 . S
C182 H194 0.952 . S
C183 C182 1.378 . S
C183 H195 0.950 . S
C183 C214 1.383 . S
H184 C203 0.947 . S
H185 C204 0.946 . S
H186 C206 0.953 . S
H187 C207 0.945 . S
H188 C209 0.952 . S
H189 C210 0.949 . S
H190 C212 0.950 . S
H191 C213 0.948 . S
H192 C215 0.951 . S
H193 C180 0.947 . S
H194 C182 0.952 . S
H195 C183 0.950 . S
N196 C199 1.382 . S
N196 C201 1.363 . S
N197 C199 1.371 . S
N197 C200 1.372 . S
N198 C200 1.361 . S
N198 C201 1.377 . S
C199 N196 1.382 . S
C199 N197 1.371 . S
C199 C202 1.480 . S
C200 N197 1.372 . S
C200 N198 1.361 . S
C200 C208 1.457 . S
C201 N196 1.363 . S
C201 N198 1.377 . S
C201 C214 1.479 . S
C202 C199 1.480 . S
C202 C203 1.383 . S
C202 C207 1.385 . S
C203 H184 0.947 . S
C203 C202 1.383 . S
C203 C204 1.388 . S
C204 H185 0.946 . S
C204 C203 1.388 . S
C204 C205 1.384 . S
C205 C204 1.384 . S
C205 C206 1.377 . S
C206 H186 0.953 . S
C206 C205 1.377 . S
C206 C207 1.369 . S
C207 H187 0.945 . S
C207 C202 1.385 . S
C207 C206 1.369 . S
C208 C200 1.457 . S
C208 C209 1.372 . S
C208 C213 1.364 . S
C209 H188 0.952 . S
C209 C208 1.372 . S
C209 C210 1.389 . S
C210 H189 0.949 . S
C210 C209 1.389 . S
C210 C211 1.387 . S
C211 C210 1.387 . S
C211 C212 1.372 . S
C212 H190 0.950 . S
C212 C211 1.372 . S
C212 C213 1.379 . S
C213 H191 0.948 . S
C213 C208 1.364 . S
C213 C212 1.379 . S
C214 C183 1.383 . S
C214 C201 1.479 . S
C214 C215 1.398 . S
C215 C180 1.382 . S
C215 H192 0.951 . S
C215 C214 1.398 . S
C216 C217 1.384 . S
C216 H229 0.947 . S
C216 C251 1.382 . S
C217 C216 1.384 . S
C217 C218 1.378 . S
C218 C217 1.378 . S
C218 C219 1.378 . S
C218 H230 0.952 . S
C219 C218 1.378 . S
C219 H231 0.950 . S
C219 C250 1.383 . S
H220 C239 0.947 . S
H221 C240 0.946 . S
H222 C242 0.953 . S
H223 C243 0.945 . S
H224 C245 0.952 . S
H225 C246 0.949 . S
H226 C248 0.950 . S
H227 C249 0.948 . S
H228 C251 0.951 . S
H229 C216 0.947 . S
H230 C218 0.952 . S
H231 C219 0.950 . S
N232 C235 1.382 . S
N232 C237 1.363 . S
N233 C235 1.371 . S
N233 C236 1.372 . S
N234 C236 1.361 . S
N234 C237 1.377 . S
C235 N232 1.382 . S
C235 N233 1.371 . S
C235 C238 1.480 . S
C236 N233 1.372 . S
C236 N234 1.361 . S
C236 C244 1.457 . S
C237 N232 1.363 . S
C237 N234 1.377 . S
C237 C250 1.479 . S
C238 C235 1.480 . S
C238 C239 1.383 . S
C238 C243 1.385 . S
C239 H220 0.947 . S
C239 C238 1.383 . S
C239 C240 1.388 . S
C240 H221 0.946 . S
C240 C239 1.388 . S
C240 C241 1.384 . S
C241 C240 1.384 . S
C241 C242 1.377 . S
C242 H222 0.953 . S
C242 C241 1.377 . S
C242 C243 1.369 . S
C243 H223 0.945 . S
C243 C238 1.385 . S
C243 C242 1.369 . S
C244 C236 1.457 . S
C244 C245 1.372 . S
C244 C249 1.364 . S
C245 H224 0.952 . S
C245 C244 1.372 . S
C245 C246 1.389 . S
C246 H225 0.949 . S
C246 C245 1.389 . S
C246 C247 1.387 . S
C247 C246 1.387 . S
C247 C248 1.372 . S
C248 H226 0.950 . S
C248 C247 1.372 . S
C248 C249 1.379 . S
C249 H227 0.948 . S
C249 C244 1.364 . S
C249 C248 1.379 . S
C250 C219 1.383 . S
C250 C237 1.479 . S
C250 C251 1.398 . S
C251 C216 1.382 . S
C251 H228 0.951 . S
C251 C250 1.398 . S
C252 C253 1.384 . S
C252 H265 0.947 . S
C252 C287 1.382 . S
C253 C252 1.384 . S
C253 C254 1.378 . S
C254 C253 1.378 . S
C254 C255 1.378 . S
C254 H266 0.952 . S
C255 C254 1.378 . S
C255 H267 0.950 . S
C255 C286 1.383 . S
H256 C275 0.947 . S
H257 C276 0.946 . S
H258 C278 0.953 . S
H259 C279 0.945 . S
H260 C281 0.952 . S
H261 C282 0.949 . S
H262 C284 0.950 . S
H263 C285 0.948 . S
H264 C287 0.951 . S
H265 C252 0.947 . S
H266 C254 0.952 . S
H267 C255 0.950 . S
N268 C271 1.382 . S
N268 C273 1.363 . S
N269 C271 1.371 . S
N269 C272 1.372 . S
N270 C272 1.361 . S
N270 C273 1.377 . S
C271 N268 1.382 . S
C271 N269 1.371 . S
C271 C274 1.480 . S
C272 N269 1.372 . S
C272 N270 1.361 . S
C272 C280 1.457 . S
C273 N268 1.363 . S
C273 N270 1.377 . S
C273 C286 1.479 . S
C274 C271 1.480 . S
C274 C275 1.383 . S
C274 C279 1.385 . S
C275 H256 0.947 . S
C275 C274 1.383 . S
C275 C276 1.388 . S
C276 H257 0.946 . S
C276 C275 1.388 . S
C276 C277 1.384 . S
C277 C276 1.384 . S
C277 C278 1.377 . S
C278 H258 0.953 . S
C278 C277 1.377 . S
C278 C279 1.369 . S
C279 H259 0.945 . S
C279 C274 1.385 . S
C279 C278 1.369 . S
C280 C272 1.457 . S
C280 C281 1.372 . S
C280 C285 1.364 . S
C281 H260 0.952 . S
C281 C280 1.372 . S
C281 C282 1.389 . S
C282 H261 0.949 . S
C282 C281 1.389 . S
C282 C283 1.387 . S
C283 C282 1.387 . S
C283 C284 1.372 . S
C284 H262 0.950 . S
C284 C283 1.372 . S
C284 C285 1.379 . S
C285 H263 0.948 . S
C285 C280 1.364 . S
C285 C284 1.379 . S
C286 C255 1.383 . S
C286 C273 1.479 . S
C286 C287 1.398 . S
C287 C252 1.382 . S
C287 H264 0.951 . S
C287 C286 1.398 . S
Gd288 C291 2.818 . S
Gd288 O308 2.377 . S
Gd288 O310 2.448 . S
Gd288 O311 2.506 . S
Gd288 O312 2.435 1_545 S
Gd288 O313 2.717 1_545 S
Gd288 O315 2.395 1_445 S
Gd288 O319 2.327 1_455 S
Gd289 C300 2.818 . S
Gd289 O309 2.395 1_665 S
Gd289 O313 2.327 1_655 S
Gd289 O314 2.377 . S
Gd289 O316 2.448 . S
Gd289 O317 2.506 . S
Gd289 O318 2.435 1_565 S
Gd289 O319 2.717 1_565 S
C290 O308 1.240 . S
C290 O309 1.240 . S
C291 Gd288 2.818 . S
C291 C292 1.510 . S
C291 O310 1.249 . S
C291 O311 1.252 . S
C292 C291 1.510 . S
C292 C293 1.404 . S
C292 C294 1.352 . S
C293 C292 1.404 . S
C293 C297 1.389 . S
C293 H320 0.930 . S
C294 C292 1.352 . S
C294 C296 1.374 . S
C294 H321 0.931 . S
C295 C296 1.359 . S
C295 C297 1.364 . S
C296 C294 1.374 . S
C296 C295 1.359 . S
C296 H322 0.931 . S
C297 C293 1.389 . S
C297 C295 1.364 . S
C297 H323 0.931 . S
C298 O312 1.256 . S
C298 O313 1.257 . S
C299 O314 1.240 . S
C299 O315 1.240 . S
C300 Gd289 2.818 . S
C300 C301 1.510 . S
C300 O316 1.249 . S
C300 O317 1.252 . S
C301 C300 1.510 . S
C301 C302 1.404 . S
C301 C303 1.352 . S
C302 C301 1.404 . S
C302 C306 1.389 . S
C302 H324 0.930 . S
C303 C301 1.352 . S
C303 C305 1.374 . S
C303 H325 0.931 . S
C304 C305 1.359 . S
C304 C306 1.364 . S
C305 C303 1.374 . S
C305 C304 1.359 . S
C305 H326 0.931 . S
C306 C302 1.389 . S
C306 C304 1.364 . S
C306 H327 0.931 . S
C307 O318 1.256 . S
C307 O319 1.257 . S
O308 Gd288 2.377 . S
O308 C290 1.240 . S
O309 Gd289 2.395 1_445 S
O309 C290 1.240 . S
O310 Gd288 2.448 . S
O310 C291 1.249 . S
O311 Gd288 2.506 . S
O311 C291 1.252 . S
O312 Gd288 2.435 1_565 S
O312 C298 1.256 . S
O313 Gd288 2.717 1_565 S
O313 Gd289 2.327 1_455 S
O313 C298 1.257 . S
O314 Gd289 2.377 . S
O314 C299 1.240 . S
O315 Gd288 2.395 1_665 S
O315 C299 1.240 . S
O316 Gd289 2.448 . S
O316 C300 1.249 . S
O317 Gd289 2.506 . S
O317 C300 1.252 . S
O318 Gd289 2.435 1_545 S
O318 C307 1.256 . S
O319 Gd288 2.327 1_655 S
O319 Gd289 2.717 1_545 S
O319 C307 1.257 . S
H320 C293 0.930 . S
H321 C294 0.931 . S
H322 C296 0.931 . S
H323 C297 0.931 . S
H324 C302 0.930 . S
H325 C303 0.931 . S
H326 C305 0.931 . S
H327 C306 0.931 . S
Gd328 C331 2.818 1_565 S
Gd328 O348 2.377 1_565 S
Gd328 O350 2.448 1_565 S
Gd328 O351 2.506 1_565 S
Gd328 O352 2.435 . S
Gd328 O353 2.717 . S
Gd328 O355 2.395 1_554 S
Gd328 O359 2.327 1_564 S
Gd329 C340 2.818 1_545 S
Gd329 O349 2.395 1_556 S
Gd329 O353 2.327 1_546 S
Gd329 O354 2.377 1_545 S
Gd329 O356 2.448 1_545 S
Gd329 O357 2.506 1_545 S
Gd329 O358 2.435 . S
Gd329 O359 2.717 . S
C330 O348 1.240 . S
C330 O349 1.240 . S
C331 Gd328 2.818 1_545 S
C331 C332 1.510 . S
C331 O350 1.249 . S
C331 O351 1.252 . S
C332 C331 1.510 . S
C332 C333 1.404 . S
C332 C334 1.352 . S
C333 C332 1.404 . S
C333 C337 1.389 . S
C333 H360 0.930 . S
C334 C332 1.352 . S
C334 C336 1.374 . S
C334 H361 0.931 . S
C335 C336 1.359 . S
C335 C337 1.364 . S
C336 C334 1.374 . S
C336 C335 1.359 . S
C336 H362 0.931 . S
C337 C333 1.389 . S
C337 C335 1.364 . S
C337 H363 0.931 . S
C338 O352 1.256 . S
C338 O353 1.257 . S
C339 O354 1.240 . S
C339 O355 1.240 . S
C340 Gd329 2.818 1_565 S
C340 C341 1.510 . S
C340 O356 1.249 . S
C340 O357 1.252 . S
C341 C340 1.510 . S
C341 C342 1.404 . S
C341 C343 1.352 . S
C342 C341 1.404 . S
C342 C346 1.389 . S
C342 H364 0.930 . S
C343 C341 1.352 . S
C343 C345 1.374 . S
C343 H365 0.931 . S
C344 C345 1.359 . S
C344 C346 1.364 . S
C345 C343 1.374 . S
C345 C344 1.359 . S
C345 H366 0.931 . S
C346 C342 1.389 . S
C346 C344 1.364 . S
C346 H367 0.931 . S
C347 O358 1.256 . S
C347 O359 1.257 . S
O348 Gd328 2.377 1_545 S
O348 C330 1.240 . S
O349 Gd329 2.395 1_554 S
O349 C330 1.240 . S
O350 Gd328 2.448 1_545 S
O350 C331 1.249 . S
O351 Gd328 2.506 1_545 S
O351 C331 1.252 . S
O352 Gd328 2.435 . S
O352 C338 1.256 . S
O353 Gd328 2.717 . S
O353 Gd329 2.327 1_564 S
O353 C338 1.257 . S
O354 Gd329 2.377 1_565 S
O354 C339 1.240 . S
O355 Gd328 2.395 1_556 S
O355 C339 1.240 . S
O356 Gd329 2.448 1_565 S
O356 C340 1.249 . S
O357 Gd329 2.506 1_565 S
O357 C340 1.252 . S
O358 Gd329 2.435 . S
O358 C347 1.256 . S
O359 Gd328 2.327 1_546 S
O359 Gd329 2.717 . S
O359 C347 1.257 . S
H360 C333 0.930 . S
H361 C334 0.931 . S
H362 C336 0.931 . S
H363 C337 0.931 . S
H364 C342 0.930 . S
H365 C343 0.931 . S
H366 C345 0.931 . S
H367 C346 0.931 . S
Gd368 C371 2.818 . S
Gd368 O388 2.377 . S
Gd368 O390 2.448 . S
Gd368 O391 2.506 . S
Gd368 O392 2.435 . S
Gd368 O393 2.717 . S
Gd368 O395 2.395 . S
Gd368 O399 2.327 . S
Gd369 C380 2.818 . S
Gd369 O389 2.395 . S
Gd369 O393 2.327 . S
Gd369 O394 2.377 . S
Gd369 O396 2.448 . S
Gd369 O397 2.506 . S
Gd369 O398 2.435 . S
Gd369 O399 2.717 . S
C370 O388 1.240 . S
C370 O389 1.240 . S
C371 Gd368 2.818 . S
C371 C372 1.510 . S
C371 O390 1.249 . S
C371 O391 1.252 . S
C372 C371 1.510 . S
C372 C373 1.404 . S
C372 C374 1.352 . S
C373 C372 1.404 . S
C373 C377 1.389 . S
C373 H400 0.930 . S
C374 C372 1.352 . S
C374 C376 1.374 . S
C374 H401 0.931 . S
C375 C376 1.359 . S
C375 C377 1.364 . S
C376 C374 1.374 . S
C376 C375 1.359 . S
C376 H402 0.931 . S
C377 C373 1.389 . S
C377 C375 1.364 . S
C377 H403 0.931 . S
C378 O392 1.256 . S
C378 O393 1.257 . S
C379 O394 1.240 . S
C379 O395 1.240 . S
C380 Gd369 2.818 . S
C380 C381 1.510 . S
C380 O396 1.249 . S
C380 O397 1.252 . S
C381 C380 1.510 . S
C381 C382 1.404 . S
C381 C383 1.352 . S
C382 C381 1.404 . S
C382 C386 1.389 . S
C382 H404 0.930 . S
C383 C381 1.352 . S
C383 C385 1.374 . S
C383 H405 0.931 . S
C384 C385 1.359 . S
C384 C386 1.364 . S
C385 C383 1.374 . S
C385 C384 1.359 . S
C385 H406 0.931 . S
C386 C382 1.389 . S
C386 C384 1.364 . S
C386 H407 0.931 . S
C387 O398 1.256 . S
C387 O399 1.257 . S
O388 Gd368 2.377 . S
O388 C370 1.240 . S
O389 Gd369 2.395 . S
O389 C370 1.240 . S
O390 Gd368 2.448 . S
O390 C371 1.249 . S
O391 Gd368 2.506 . S
O391 C371 1.252 . S
O392 Gd368 2.435 . S
O392 C378 1.256 . S
O393 Gd368 2.717 . S
O393 Gd369 2.327 . S
O393 C378 1.257 . S
O394 Gd369 2.377 . S
O394 C379 1.240 . S
O395 Gd368 2.395 . S
O395 C379 1.240 . S
O396 Gd369 2.448 . S
O396 C380 1.249 . S
O397 Gd369 2.506 . S
O397 C380 1.252 . S
O398 Gd369 2.435 . S
O398 C387 1.256 . S
O399 Gd368 2.327 . S
O399 Gd369 2.717 . S
O399 C387 1.257 . S
H400 C373 0.930 . S
H401 C374 0.931 . S
H402 C376 0.931 . S
H403 C377 0.931 . S
H404 C382 0.930 . S
H405 C383 0.931 . S
H406 C385 0.931 . S
H407 C386 0.931 . S
Gd408 C411 2.818 . S
Gd408 O428 2.377 . S
Gd408 O430 2.448 . S
Gd408 O431 2.506 . S
Gd408 O432 2.435 1_455 S
Gd408 O433 2.717 1_455 S
Gd408 O435 2.397 1_455 S
Gd408 O439 2.327 1_554 S
Gd409 C420 2.818 1_455 S
Gd409 O429 2.395 1_556 S
Gd409 O433 2.327 1_456 S
Gd409 O434 2.377 1_455 S
Gd409 O436 2.448 1_455 S
Gd409 O437 2.506 1_455 S
Gd409 O438 2.435 . S
Gd409 O439 2.717 . S
C410 O428 1.240 . S
C410 O429 1.240 . S
C411 Gd408 2.818 . S
C411 C412 1.510 . S
C411 O430 1.249 . S
C411 O431 1.252 . S
C412 C411 1.510 . S
C412 C413 1.404 . S
C412 C414 1.352 . S
C413 C412 1.404 . S
C413 C417 1.389 . S
C413 H440 0.930 . S
C414 C412 1.352 . S
C414 C416 1.374 . S
C414 H441 0.931 . S
C415 C416 1.359 . S
C415 C417 1.364 . S
C416 C414 1.374 . S
C416 C415 1.359 . S
C416 H442 0.931 . S
C417 C413 1.389 . S
C417 C415 1.364 . S
C417 H443 0.931 . S
C418 O432 1.256 . S
C418 O433 1.257 . S
C419 O434 1.240 . S
C419 O435 1.237 1_556 S
C420 Gd409 2.818 1_655 S
C420 C421 1.510 . S
C420 O436 1.249 . S
C420 O437 1.252 . S
C421 C420 1.510 . S
C421 C422 1.404 . S
C421 C423 1.352 . S
C422 C421 1.404 . S
C422 C426 1.389 . S
C422 H444 0.930 . S
C423 C421 1.352 . S
C423 C425 1.374 . S
C423 H445 0.931 . S
C424 C425 1.359 . S
C424 C426 1.364 . S
C425 C423 1.374 . S
C425 C424 1.359 . S
C425 H446 0.931 . S
C426 C422 1.389 . S
C426 C424 1.364 . S
C426 H447 0.931 . S
C427 O438 1.256 . S
C427 O439 1.257 . S
O428 Gd408 2.377 . S
O428 C410 1.240 . S
O429 Gd409 2.395 1_554 S
O429 C410 1.240 . S
O430 Gd408 2.448 . S
O430 C411 1.249 . S
O431 Gd408 2.506 . S
O431 C411 1.252 . S
O432 Gd408 2.435 1_655 S
O432 C418 1.256 . S
O433 Gd408 2.717 1_655 S
O433 Gd409 2.327 1_654 S
O433 C418 1.257 . S
O434 Gd409 2.377 1_655 S
O434 C419 1.240 . S
O435 Gd408 2.397 1_655 S
O435 C419 1.237 1_554 S
O436 Gd409 2.448 1_655 S
O436 C420 1.249 . S
O437 Gd409 2.506 1_655 S
O437 C420 1.252 . S
O438 Gd409 2.435 . S
O438 C427 1.256 . S
O439 Gd408 2.327 1_556 S
O439 Gd409 2.717 . S
O439 C427 1.257 . S
H440 C413 0.930 . S
H441 C414 0.931 . S
H442 C416 0.931 . S
H443 C417 0.931 . S
H444 C422 0.930 . S
H445 C423 0.931 . S
H446 C425 0.931 . S
H447 C426 0.931 . S
C1 C295 2.204 . S
C67 C344 1.937 . S
C370 C97 3.568 . S
C133 C418 3.546 . S
C330 C25 4.573 . S
C298 C37 1.902 . S
C419 C103 2.543 . S
C387 C109 2.241 . S
C31 C415 3.012 . S
C347 C73 3.294 . S
C139 C299 3.317 . S
C61 C384 2.686 . S
C304 C175 2.028 . S
C181 C335 1.819 . S
C247 C379 3.621 . S
C277 C427 3.497 . S
C145 C339 4.387 . S
C307 C211 1.890 . S
C410 C217 2.477 . S
C378 C283 2.233 . S
C169 C424 2.829 . S
C338 C241 3.316 . S
C290 C253 3.292 . S
C205 C375 2.770 . S
