# Generated by pormake.
# Topology eea, (3,6)-cn, num edge types: 1
# Building blocks:
#     Node 0, Type 0, BuildingBlock: VETTIZ_charged_linker_0, # of connection points: 3
#     Node 1, Type 0, BuildingBlock: VETTIZ_charged_linker_0, # of connection points: 3
#     Node 2, Type 0, BuildingBlock: VETTIZ_charged_linker_0, # of connection points: 3
#     Node 3, Type 0, BuildingBlock: VETTIZ_charged_linker_0, # of connection points: 3
#     Node 4, Type 0, BuildingBlock: VETTIZ_charged_linker_0, # of connection points: 3
#     Node 5, Type 0, BuildingBlock: VETTIZ_charged_linker_0, # of connection points: 3
#     Node 6, Type 0, BuildingBlock: VETTIZ_charged_linker_0, # of connection points: 3
#     Node 7, Type 0, BuildingBlock: VETTIZ_charged_linker_0, # of connection points: 3
#     Node 8, Type 0, BuildingBlock: VETTIZ_charged_linker_0, # of connection points: 3
#     Node 9, Type 0, BuildingBlock: VETTIZ_charged_linker_0, # of connection points: 3
#     Node 10, Type 0, BuildingBlock: VETTIZ_charged_linker_0, # of connection points: 3
#     Node 11, Type 0, BuildingBlock: VETTIZ_charged_linker_0, # of connection points: 3
#     Node 12, Type 0, BuildingBlock: VETTIZ_charged_linker_0, # of connection points: 3
#     Node 13, Type 0, BuildingBlock: VETTIZ_charged_linker_0, # of connection points: 3
#     Node 14, Type 0, BuildingBlock: VETTIZ_charged_linker_0, # of connection points: 3
#     Node 15, Type 0, BuildingBlock: VETTIZ_charged_linker_0, # of connection points: 3
#     Node 16, Type 0, BuildingBlock: VETTIZ_charged_linker_0, # of connection points: 3
#     Node 17, Type 0, BuildingBlock: VETTIZ_charged_linker_0, # of connection points: 3
#     Node 18, Type 1, BuildingBlock: NUHQIS_clean_sbu_0, # of connection points: 6
#     Node 19, Type 1, BuildingBlock: NUHQIS_clean_sbu_0, # of connection points: 6
#     Node 20, Type 1, BuildingBlock: NUHQIS_clean_sbu_0, # of connection points: 6
#     Node 21, Type 1, BuildingBlock: NUHQIS_clean_sbu_0, # of connection points: 6
#     Node 22, Type 1, BuildingBlock: NUHQIS_clean_sbu_0, # of connection points: 6
#     Node 23, Type 1, BuildingBlock: NUHQIS_clean_sbu_0, # of connection points: 6
#     Node 24, Type 1, BuildingBlock: NUHQIS_clean_sbu_0, # of connection points: 6
#     Node 25, Type 1, BuildingBlock: NUHQIS_clean_sbu_0, # of connection points: 6
#     Node 26, Type 1, BuildingBlock: NUHQIS_clean_sbu_0, # of connection points: 6
#     Edge 27, Type (0, 1), BuildingBlock: EZIPEK_clean_linker_0, # of connection points: 2
#     Edge 28, Type (0, 1), BuildingBlock: EZIPEK_clean_linker_0, # of connection points: 2
#     Edge 29, Type (0, 1), BuildingBlock: EZIPEK_clean_linker_0, # of connection points: 2
#     Edge 30, Type (0, 1), BuildingBlock: EZIPEK_clean_linker_0, # of connection points: 2
#     Edge 31, Type (0, 1), BuildingBlock: EZIPEK_clean_linker_0, # of connection points: 2
#     Edge 32, Type (0, 1), BuildingBlock: EZIPEK_clean_linker_0, # of connection points: 2
#     Edge 33, Type (0, 1), BuildingBlock: EZIPEK_clean_linker_0, # of connection points: 2
#     Edge 34, Type (0, 1), BuildingBlock: EZIPEK_clean_linker_0, # of connection points: 2
#     Edge 35, Type (0, 1), BuildingBlock: EZIPEK_clean_linker_0, # of connection points: 2
#     Edge 36, Type (0, 1), BuildingBlock: EZIPEK_clean_linker_0, # of connection points: 2
#     Edge 37, Type (0, 1), BuildingBlock: EZIPEK_clean_linker_0, # of connection points: 2
#     Edge 38, Type (0, 1), BuildingBlock: EZIPEK_clean_linker_0, # of connection points: 2
#     Edge 39, Type (0, 1), BuildingBlock: EZIPEK_clean_linker_0, # of connection points: 2
#     Edge 40, Type (0, 1), BuildingBlock: EZIPEK_clean_linker_0, # of connection points: 2
#     Edge 41, Type (0, 1), BuildingBlock: EZIPEK_clean_linker_0, # of connection points: 2
#     Edge 42, Type (0, 1), BuildingBlock: EZIPEK_clean_linker_0, # of connection points: 2
#     Edge 43, Type (0, 1), BuildingBlock: EZIPEK_clean_linker_0, # of connection points: 2
#     Edge 44, Type (0, 1), BuildingBlock: EZIPEK_clean_linker_0, # of connection points: 2
#     Edge 45, Type (0, 1), BuildingBlock: EZIPEK_clean_linker_0, # of connection points: 2
#     Edge 46, Type (0, 1), BuildingBlock: EZIPEK_clean_linker_0, # of connection points: 2
#     Edge 47, Type (0, 1), BuildingBlock: EZIPEK_clean_linker_0, # of connection points: 2
#     Edge 48, Type (0, 1), BuildingBlock: EZIPEK_clean_linker_0, # of connection points: 2
#     Edge 49, Type (0, 1), BuildingBlock: EZIPEK_clean_linker_0, # of connection points: 2
#     Edge 50, Type (0, 1), BuildingBlock: EZIPEK_clean_linker_0, # of connection points: 2
#     Edge 51, Type (0, 1), BuildingBlock: EZIPEK_clean_linker_0, # of connection points: 2
#     Edge 52, Type (0, 1), BuildingBlock: EZIPEK_clean_linker_0, # of connection points: 2
#     Edge 53, Type (0, 1), BuildingBlock: EZIPEK_clean_linker_0, # of connection points: 2
#     Edge 54, Type (0, 1), BuildingBlock: EZIPEK_clean_linker_0, # of connection points: 2
#     Edge 55, Type (0, 1), BuildingBlock: EZIPEK_clean_linker_0, # of connection points: 2
#     Edge 56, Type (0, 1), BuildingBlock: EZIPEK_clean_linker_0, # of connection points: 2
#     Edge 57, Type (0, 1), BuildingBlock: EZIPEK_clean_linker_0, # of connection points: 2
#     Edge 58, Type (0, 1), BuildingBlock: EZIPEK_clean_linker_0, # of connection points: 2
#     Edge 59, Type (0, 1), BuildingBlock: EZIPEK_clean_linker_0, # of connection points: 2
#     Edge 60, Type (0, 1), BuildingBlock: EZIPEK_clean_linker_0, # of connection points: 2
#     Edge 61, Type (0, 1), BuildingBlock: EZIPEK_clean_linker_0, # of connection points: 2
#     Edge 62, Type (0, 1), BuildingBlock: EZIPEK_clean_linker_0, # of connection points: 2
#     Edge 63, Type (0, 1), BuildingBlock: EZIPEK_clean_linker_0, # of connection points: 2
#     Edge 64, Type (0, 1), BuildingBlock: EZIPEK_clean_linker_0, # of connection points: 2
#     Edge 65, Type (0, 1), BuildingBlock: EZIPEK_clean_linker_0, # of connection points: 2
#     Edge 66, Type (0, 1), BuildingBlock: EZIPEK_clean_linker_0, # of connection points: 2
#     Edge 67, Type (0, 1), BuildingBlock: EZIPEK_clean_linker_0, # of connection points: 2
#     Edge 68, Type (0, 1), BuildingBlock: EZIPEK_clean_linker_0, # of connection points: 2
#     Edge 69, Type (0, 1), BuildingBlock: EZIPEK_clean_linker_0, # of connection points: 2
#     Edge 70, Type (0, 1), BuildingBlock: EZIPEK_clean_linker_0, # of connection points: 2
#     Edge 71, Type (0, 1), BuildingBlock: EZIPEK_clean_linker_0, # of connection points: 2
#     Edge 72, Type (0, 1), BuildingBlock: EZIPEK_clean_linker_0, # of connection points: 2
#     Edge 73, Type (0, 1), BuildingBlock: EZIPEK_clean_linker_0, # of connection points: 2
#     Edge 74, Type (0, 1), BuildingBlock: EZIPEK_clean_linker_0, # of connection points: 2
#     Edge 75, Type (0, 1), BuildingBlock: EZIPEK_clean_linker_0, # of connection points: 2
#     Edge 76, Type (0, 1), BuildingBlock: EZIPEK_clean_linker_0, # of connection points: 2
#     Edge 77, Type (0, 1), BuildingBlock: EZIPEK_clean_linker_0, # of connection points: 2
#     Edge 78, Type (0, 1), BuildingBlock: EZIPEK_clean_linker_0, # of connection points: 2
#     Edge 79, Type (0, 1), BuildingBlock: EZIPEK_clean_linker_0, # of connection points: 2
#     Edge 80, Type (0, 1), BuildingBlock: EZIPEK_clean_linker_0, # of connection points: 2
# Relax obj value: 0.035
# Max RMSD: 0.132
# Mean RMSD: 0.087
data_MOF--net-eea--node1-NUHQIS_clean_sbu_0--node2-VETTIZ_charged_linker_0--edge1-EZIPEK_clean_linker_0
_symmetry_space_group_name_H-M    P1
_symmetry_Int_Tables_number       1
_symmetry_cell_setting            triclinic
loop_
_symmetry_equiv_pos_as_xyz
'x, y, z'
_cell_length_a     47.981157
_cell_length_b     48.184624
_cell_length_c     73.425951
_cell_angle_alpha  93.297677
_cell_angle_beta   92.955041
_cell_angle_gamma 119.91569
loop_
_atom_site_label
_atom_site_type_symbol
_atom_site_fract_x
_atom_site_fract_y
_atom_site_fract_z
_atom_type_partial_charge
C0 C 0.237 0.19979 0.38447 0.0
C1 C 0.23772 0.2278 0.39231 0.0
C2 C 0.23542 0.22966 0.41153 0.0
C3 C 0.24366 0.18474 0.41464 0.0
C4 C 0.24072 0.17918 0.39585 0.0
C5 C 0.24125 0.14896 0.3899 0.0
H6 H 0.26376 0.02833 0.41441 0.0
C7 C 0.24894 0.16035 0.4227 0.0
C8 C 0.24721 0.13893 0.40833 0.0
H9 H 0.23564 0.04227 0.36012 0.0
H10 H 0.23598 0.08927 0.37255 0.0
H11 H 0.31715 0.10187 0.42592 0.0
H12 H 0.21695 0.04258 0.43456 0.0
H13 H 0.23691 0.06625 0.45528 0.0
H14 H 0.24841 0.03834 0.446 0.0
H15 H 0.30398 0.07242 0.44218 0.0
H16 H 0.31293 0.11303 0.4483 0.0
C17 C 0.2697 0.1581 0.37798 0.0
C18 C 0.20777 0.12409 0.38 0.0
C19 C 0.28415 0.17541 0.49062 0.0
C20 C 0.29417 0.15877 0.50174 0.0
C21 C 0.29317 0.13069 0.49437 0.0
C22 C 0.28278 0.11956 0.47585 0.0
C23 C 0.27361 0.13694 0.46464 0.0
C24 C 0.27408 0.16417 0.47214 0.0
C25 C 0.26353 0.1796 0.45826 0.0
C26 C 0.25755 0.15763 0.44102 0.0
C27 C 0.26346 0.13276 0.44485 0.0
C28 C 0.29197 0.21413 0.45715 0.0
C29 C 0.23207 0.17809 0.46386 0.0
C30 C 0.25976 0.04184 0.40454 0.0
C31 C 0.25392 0.03252 0.38545 0.0
C32 C 0.24399 0.04994 0.37445 0.0
C33 C 0.24331 0.07712 0.38177 0.0
C34 C 0.25166 0.08697 0.40052 0.0
C35 C 0.25922 0.06909 0.41158 0.0
C36 C 0.26609 0.08208 0.43141 0.0
C37 C 0.26078 0.11042 0.43044 0.0
C38 C 0.25253 0.11335 0.4123 0.0
C39 C 0.30176 0.09278 0.43745 0.0
C40 C 0.24104 0.05604 0.44254 0.0
H41 H 0.23832 0.21274 0.43706 0.0
H42 H 0.23288 0.19304 0.36992 0.0
H43 H 0.18839 0.12824 0.38476 0.0
H44 H 0.20022 0.09916 0.38293 0.0
H45 H 0.20752 0.12543 0.36495 0.0
H46 H 0.29202 0.17949 0.38469 0.0
H47 H 0.26434 0.16413 0.36435 0.0
H48 H 0.27568 0.13891 0.37586 0.0
H49 H 0.28468 0.19702 0.49617 0.0
H50 H 0.30083 0.11768 0.50292 0.0
H51 H 0.28266 0.0981 0.47093 0.0
H52 H 0.31482 0.21385 0.45579 0.0
H53 H 0.29545 0.22987 0.46973 0.0
H54 H 0.28882 0.22562 0.4453 0.0
H55 H 0.21995 0.15988 0.47371 0.0
H56 H 0.21372 0.17058 0.45202 0.0
H57 H 0.23704 0.20163 0.47048 0.0
H58 H 0.23023 0.24676 0.41837 0.0
C59 C 0.23913 0.20899 0.42262 0.0
C60 C 0.9826 0.18747 0.39129 0.0
C61 C 0.00795 0.21819 0.39766 0.0
C62 C 0.00764 0.23224 0.41495 0.0
C63 C 0.95665 0.18474 0.41926 0.0
C64 C 0.95726 0.17135 0.4022 0.0
C65 C 0.92819 0.13878 0.3971 0.0
H66 H 0.78366 0.01893 0.41644 0.0
C67 C 0.92656 0.16147 0.42693 0.0
C68 C 0.90987 0.13464 0.41386 0.0
H69 H 0.8349 0.02334 0.36906 0.0
H70 H 0.8788 0.07573 0.38104 0.0
H71 H 0.84215 0.04126 0.44427 0.0
H72 H 0.80227 0.09492 0.42083 0.0
H73 H 0.81113 0.10694 0.44449 0.0
H74 H 0.78278 0.06549 0.4367 0.0
H75 H 0.80886 0.04255 0.45342 0.0
H76 H 0.85021 0.07197 0.46132 0.0
C77 C 0.93969 0.11395 0.39483 0.0
C78 C 0.90969 0.14077 0.37972 0.0
C79 C 0.90002 0.18496 0.49055 0.0
C80 C 0.87379 0.16683 0.50075 0.0
C81 C 0.84873 0.13654 0.49313 0.0
C82 C 0.84954 0.12425 0.47558 0.0
C83 C 0.87575 0.1424 0.46548 0.0
C84 C 0.90057 0.17215 0.47295 0.0
C85 C 0.92654 0.18756 0.46004 0.0
C86 C 0.91324 0.16198 0.44377 0.0
C87 C 0.88336 0.13576 0.44709 0.0
C88 C 0.95844 0.19227 0.46937 0.0
C89 C 0.92829 0.2191 0.45502 0.0
C90 C 0.80431 0.0315 0.40867 0.0
C91 C 0.806 0.01746 0.39178 0.0
C92 C 0.83327 0.03402 0.38206 0.0
C93 C 0.85868 0.06432 0.38909 0.0
C94 C 0.85693 0.07805 0.40611 0.0
C95 C 0.83021 0.06155 0.41567 0.0
C96 C 0.83349 0.07898 0.43402 0.0
C97 C 0.86629 0.10903 0.4337 0.0
C98 C 0.87966 0.10842 0.41727 0.0
C99 C 0.83349 0.0577 0.44912 0.0
C100 C 0.80595 0.08694 0.43421 0.0
H101 H 0.98308 0.2274 0.43891 0.0
H102 H 0.98244 0.17634 0.378 0.0
H103 H 0.91055 0.16431 0.3802 0.0
H104 H 0.88372 0.12262 0.37831 0.0
H105 H 0.92049 0.13832 0.36713 0.0
H106 H 0.96212 0.12153 0.40387 0.0
H107 H 0.94495 0.1111 0.38051 0.0
H108 H 0.9221 0.0901 0.39895 0.0
H109 H 0.91948 0.20841 0.49616 0.0
H110 H 0.82835 0.12241 0.50081 0.0
H111 H 0.8296 0.10108 0.47058 0.0
H112 H 0.95392 0.17081 0.47648 0.0
H113 H 0.96976 0.21348 0.47976 0.0
H114 H 0.97612 0.1951 0.45956 0.0
H115 H 0.90371 0.21608 0.45338 0.0
H116 H 0.9383 0.22647 0.4418 0.0
H117 H 0.94283 0.23906 0.4659 0.0
H118 H 0.0272 0.25602 0.41999 0.0
C119 C 0.9821 0.21561 0.42584 0.0
C120 C 0.99044 0.79932 0.39726 0.0
C121 C 0.01501 0.79344 0.40334 0.0
C122 C 0.01283 0.77926 0.41986 0.0
C123 C 0.9621 0.77764 0.42415 0.0
C124 C 0.96428 0.7911 0.40774 0.0
C125 C 0.93578 0.79503 0.40281 0.0
H126 H 0.79186 0.77765 0.42196 0.0
C127 C 0.93175 0.77222 0.43165 0.0
C128 C 0.91629 0.7823 0.41905 0.0
H129 H 0.84335 0.81436 0.37449 0.0
H130 H 0.88668 0.80683 0.3866 0.0
H131 H 0.80723 0.71888 0.42484 0.0
H132 H 0.85218 0.81538 0.45088 0.0
H133 H 0.85615 0.79218 0.46726 0.0
H134 H 0.81634 0.78326 0.45856 0.0
H135 H 0.78876 0.73189 0.44134 0.0
H136 H 0.81553 0.71757 0.44829 0.0
C137 C 0.9179 0.77365 0.3847 0.0
C138 C 0.94819 0.83138 0.4019 0.0
C139 C 0.90032 0.72521 0.49311 0.0
C140 C 0.87392 0.7187 0.50327 0.0
C141 C 0.85057 0.72592 0.49642 0.0
C142 C 0.85302 0.73897 0.47963 0.0
C143 C 0.87919 0.74504 0.46946 0.0
C144 C 0.90258 0.7386 0.4763 0.0
C145 C 0.929 0.74745 0.46362 0.0
C146 C 0.91742 0.75997 0.44807 0.0
C147 C 0.88803 0.75818 0.45157 0.0
C148 C 0.92944 0.71656 0.45714 0.0
C149 C 0.9611 0.77414 0.47394 0.0
C150 C 0.81252 0.78388 0.41426 0.0
C151 C 0.81443 0.79641 0.39726 0.0
C152 C 0.8416 0.80458 0.38758 0.0
C153 C 0.86664 0.80016 0.39466 0.0
C154 C 0.86453 0.78746 0.41165 0.0
C155 C 0.83786 0.77968 0.42119 0.0
C156 C 0.84009 0.76691 0.43913 0.0
C157 C 0.87223 0.76785 0.43863 0.0
C158 C 0.88634 0.77987 0.4225 0.0
C159 C 0.81138 0.73205 0.43857 0.0
C160 C 0.84102 0.79035 0.45486 0.0
H161 H 0.98627 0.76082 0.44284 0.0
H162 H 0.9915 0.80993 0.38451 0.0
H163 H 0.9685 0.84615 0.4126 0.0
H164 H 0.92977 0.83804 0.40465 0.0
H165 H 0.95712 0.83909 0.38839 0.0
H166 H 0.9201 0.75171 0.38362 0.0
H167 H 0.928 0.78684 0.37258 0.0
H168 H 0.89161 0.76435 0.38375 0.0
H169 H 0.91857 0.71982 0.49809 0.0
H170 H 0.8301 0.72103 0.50404 0.0
H171 H 0.83425 0.74363 0.47516 0.0
H172 H 0.90443 0.69569 0.45456 0.0
H173 H 0.94265 0.71064 0.46765 0.0
H174 H 0.9402 0.71825 0.44403 0.0
H175 H 0.95722 0.79204 0.48196 0.0
H176 H 0.9795 0.78809 0.46468 0.0
H177 H 0.97123 0.76389 0.48366 0.0
H178 H 0.0315 0.77431 0.42461 0.0
C179 C 0.98658 0.77145 0.43035 0.0
C180 C 0.18238 0.2022 0.62235 0.0
C181 C 0.21097 0.20686 0.61548 0.0
C182 C 0.21922 0.21992 0.59859 0.0
C183 C 0.17043 0.22355 0.5957 0.0
C184 C 0.16256 0.21062 0.61229 0.0
C185 C 0.1312 0.20689 0.61768 0.0
H186 H 0.00371 0.22877 0.60238 0.0
C187 C 0.14447 0.22962 0.58882 0.0
C188 C 0.12146 0.21982 0.60168 0.0
H189 H 0.02474 0.18527 0.6469 0.0
H190 H 0.07269 0.19284 0.63373 0.0
H191 H 0.07898 0.28642 0.59834 0.0
H192 H 0.02119 0.19061 0.57081 0.0
H193 H 0.04306 0.21693 0.55466 0.0
H194 H 0.01349 0.22243 0.56607 0.0
H195 H 0.04337 0.27458 0.58327 0.0
H196 H 0.08191 0.28768 0.57451 0.0
C197 C 0.13847 0.22834 0.63586 0.0
C198 C 0.10724 0.17054 0.6187 0.0
C199 C 0.15179 0.2787 0.52838 0.0
C200 C 0.13146 0.28667 0.51831 0.0
C201 C 0.10255 0.28122 0.52538 0.0
C202 C 0.09411 0.26823 0.54227 0.0
C203 C 0.11466 0.26033 0.55221 0.0
C204 C 0.14289 0.26547 0.54514 0.0
C205 C 0.16152 0.25505 0.5573 0.0
C206 C 0.13996 0.24281 0.57283 0.0
C207 C 0.11252 0.24609 0.5699 0.0
C208 C 0.19465 0.28503 0.5639 0.0
C209 C 0.16366 0.22774 0.54644 0.0
C210 C 0.01887 0.22105 0.60921 0.0
C211 C 0.01077 0.20671 0.62581 0.0
C212 C 0.03069 0.19652 0.63421 0.0
C213 C 0.05852 0.20094 0.6265 0.0
C214 C 0.06659 0.21549 0.61004 0.0
C215 C 0.04673 0.22489 0.60147 0.0
C216 C 0.05864 0.23842 0.58355 0.0
C217 C 0.08934 0.23638 0.58311 0.0
C218 C 0.09379 0.2231 0.59879 0.0
C219 C 0.06601 0.27361 0.5848 0.0
C220 C 0.03281 0.21622 0.56786 0.0
H221 H 0.20665 0.23818 0.57587 0.0
H222 H 0.17555 0.19205 0.63529 0.0
H223 H 0.11267 0.15533 0.60924 0.0
H224 H 0.08201 0.1635 0.61427 0.0
H225 H 0.10841 0.16352 0.63274 0.0
H226 H 0.16171 0.25136 0.63594 0.0
H227 H 0.14046 0.21611 0.64781 0.0
H228 H 0.12032 0.2356 0.638 0.0
H229 H 0.17408 0.28255 0.52323 0.0
H230 H 0.08655 0.28715 0.51781 0.0
H231 H 0.07188 0.2648 0.54695 0.0
H232 H 0.19209 0.30653 0.5668 0.0
H233 H 0.21195 0.29054 0.55332 0.0
H234 H 0.20551 0.28252 0.57687 0.0
H235 H 0.14104 0.21203 0.53741 0.0
H236 H 0.16633 0.21138 0.55536 0.0
H237 H 0.18395 0.23764 0.5376 0.0
H238 H 0.24122 0.22355 0.59311 0.0
C239 C 0.19911 0.22832 0.58865 0.0
C240 C 0.7644 0.80379 0.63572 0.0
C241 C 0.76322 0.77609 0.62768 0.0
C242 C 0.75162 0.76577 0.60911 0.0
C243 C 0.74293 0.8109 0.60682 0.0
C244 C 0.75482 0.82112 0.62498 0.0
C245 C 0.75804 0.85301 0.63087 0.0
H246 H 0.74997 0.98307 0.60885 0.0
C247 C 0.73607 0.83496 0.59944 0.0
C248 C 0.74546 0.85994 0.61337 0.0
H249 H 0.78571 0.96786 0.66026 0.0
H250 H 0.77074 0.91391 0.64845 0.0
H251 H 0.77837 0.95086 0.5826 0.0
H252 H 0.68506 0.9114 0.60338 0.0
H253 H 0.67864 0.89473 0.58062 0.0
H254 H 0.69634 0.93766 0.58541 0.0
H255 H 0.74897 0.96142 0.57506 0.0
H256 H 0.74911 0.9268 0.56448 0.0
C257 C 0.79437 0.87759 0.63628 0.0
C258 C 0.73583 0.84814 0.64642 0.0
C259 C 0.67888 0.81344 0.53565 0.0
C260 C 0.66603 0.82959 0.52576 0.0
C261 C 0.67579 0.86152 0.53283 0.0
C262 C 0.69311 0.87468 0.55002 0.0
C263 C 0.70218 0.85647 0.56034 0.0
C264 C 0.69571 0.82669 0.55296 0.0
C265 C 0.70848 0.81125 0.56561 0.0
C266 C 0.72219 0.83609 0.58215 0.0
C267 C 0.71878 0.86271 0.57886 0.0
C268 C 0.73521 0.80793 0.55643 0.0
C269 C 0.67966 0.77895 0.57003 0.0
C270 C 0.75424 0.96781 0.61747 0.0
C271 C 0.7691 0.97928 0.63537 0.0
C272 C 0.77431 0.95914 0.64641 0.0
C273 C 0.76575 0.928 0.63948 0.0
C274 C 0.75189 0.91703 0.62133 0.0
C275 C 0.74571 0.93654 0.61076 0.0
C276 C 0.73021 0.92039 0.59192 0.0
C277 C 0.72946 0.88859 0.59271 0.0
C278 C 0.74232 0.88693 0.60993 0.0
C279 C 0.75254 0.94087 0.57765 0.0
C280 C 0.69584 0.91589 0.59003 0.0
H281 H 0.73276 0.77406 0.58456 0.0
H282 H 0.77371 0.81238 0.64991 0.0
H283 H 0.71266 0.82494 0.64359 0.0
H284 H 0.72881 0.86672 0.6478 0.0
H285 H 0.74747 0.84765 0.65978 0.0
H286 H 0.81016 0.87095 0.62884 0.0
H287 H 0.80078 0.87883 0.65117 0.0
H288 H 0.80155 0.90201 0.63254 0.0
H289 H 0.67699 0.79124 0.5304 0.0
H290 H 0.67051 0.877 0.52507 0.0
H291 H 0.69885 0.89865 0.55456 0.0
H292 H 0.74721 0.82672 0.54687 0.0
H293 H 0.72512 0.78414 0.54843 0.0
H294 H 0.75501 0.81153 0.56646 0.0
H295 H 0.65889 0.78205 0.57321 0.0
H296 H 0.68515 0.76939 0.58212 0.0
H297 H 0.67145 0.76043 0.55817 0.0
H298 H 0.75077 0.74449 0.60272 0.0
C299 C 0.74129 0.78296 0.59864 0.0
C300 C 0.0199 0.81065 0.62466 0.0
C301 C 0.99465 0.77963 0.61871 0.0
C302 C 0.99458 0.76526 0.60142 0.0
C303 C 0.04508 0.8129 0.59643 0.0
C304 C 0.04487 0.82663 0.61347 0.0
C305 C 0.07404 0.85927 0.61828 0.0
H306 H 0.22237 0.97211 0.60074 0.0
C307 C 0.07505 0.83595 0.58851 0.0
C308 C 0.09211 0.86297 0.6014 0.0
H309 H 0.16815 0.9721 0.64594 0.0
H310 H 0.12263 0.92432 0.63233 0.0
H311 H 0.1971 0.89449 0.59458 0.0
H312 H 0.16615 0.95628 0.57225 0.0
H313 H 0.15611 0.92545 0.55483 0.0
H314 H 0.19797 0.95213 0.56314 0.0
H315 H 0.22029 0.92581 0.58038 0.0
H316 H 0.19037 0.88617 0.57052 0.0
C317 C 0.09262 0.85753 0.63568 0.0
C318 C 0.06275 0.8843 0.62047 0.0
C319 C 0.09976 0.8107 0.52485 0.0
C320 C 0.12594 0.82793 0.51447 0.0
C321 C 0.15193 0.85776 0.52196 0.0
C322 C 0.15196 0.8705 0.5396 0.0
C323 C 0.12572 0.85317 0.5499 0.0
C324 C 0.1001 0.82382 0.54251 0.0
C325 C 0.0743 0.80906 0.55556 0.0
C326 C 0.08824 0.83484 0.5717 0.0
C327 C 0.11856 0.86043 0.56832 0.0
C328 C 0.07196 0.77729 0.56067 0.0
C329 C 0.0425 0.80488 0.5464 0.0
C330 C 0.20203 0.96071 0.60874 0.0
C331 C 0.20223 0.97331 0.62675 0.0
C332 C 0.17171 0.96069 0.63392 0.0
C333 C 0.14438 0.93304 0.62562 0.0
C334 C 0.14646 0.91813 0.60929 0.0
C335 C 0.17432 0.93286 0.60057 0.0
C336 C 0.17037 0.9157 0.58196 0.0
C337 C 0.13626 0.88712 0.5817 0.0
C338 C 0.12266 0.88864 0.59788 0.0
C339 C 0.19591 0.90502 0.58166 0.0
C340 C 0.17296 0.93845 0.5672 0.0
H341 H 0.01825 0.7698 0.57712 0.0
H342 H 0.02033 0.82211 0.6379 0.0
H343 H 0.03851 0.87537 0.61312 0.0
H344 H 0.07878 0.90683 0.61439 0.0
H345 H 0.06118 0.89013 0.63511 0.0
H346 H 0.09449 0.8354 0.63442 0.0
H347 H 0.07993 0.85685 0.64803 0.0
H348 H 0.11764 0.87768 0.63819 0.0
H349 H 0.07953 0.78766 0.51929 0.0
H350 H 0.17222 0.87122 0.51408 0.0
H351 H 0.17247 0.89335 0.54455 0.0
H352 H 0.09618 0.77941 0.56161 0.0
H353 H 0.05611 0.75705 0.5502 0.0
H354 H 0.06316 0.77087 0.57426 0.0
H355 H 0.04725 0.82659 0.53951 0.0
H356 H 0.02491 0.80194 0.5563 0.0
H357 H 0.03096 0.78388 0.53588 0.0
H358 H 0.97504 0.74132 0.59662 0.0
C359 C 0.01961 0.78182 0.59019 0.0
C360 C 0.90499 0.53097 0.71657 0.0
C361 C 0.90617 0.55912 0.72372 0.0
C362 C 0.91954 0.57202 0.74179 0.0
C363 C 0.92912 0.5278 0.7457 0.0
C364 C 0.91651 0.51572 0.72779 0.0
C365 C 0.91533 0.48455 0.72265 0.0
H366 H 0.93913 0.36429 0.74646 0.0
C367 C 0.93745 0.50525 0.75385 0.0
C368 C 0.92956 0.48 0.74038 0.0
H369 H 0.89437 0.37123 0.69569 0.0
H370 H 0.90544 0.42419 0.70658 0.0
H371 H 0.99867 0.44083 0.7534 0.0
H372 H 0.90292 0.38856 0.771 0.0
H373 H 0.92822 0.41545 0.78961 0.0
H374 H 0.93564 0.38436 0.78059 0.0
H375 H 0.98799 0.41164 0.76976 0.0
H376 H 1.00074 0.45308 0.77672 0.0
C377 C 0.93729 0.48978 0.70692 0.0
C378 C 0.87942 0.45804 0.71784 0.0
C379 C 0.97958 0.52479 0.82092 0.0
C380 C 0.98832 0.50748 0.83231 0.0
C381 C 0.98759 0.47951 0.82498 0.0
C382 C 0.97767 0.4685 0.8064 0.0
C383 C 0.96823 0.48562 0.79516 0.0
C384 C 0.96962 0.51346 0.80243 0.0
C385 C 0.95873 0.52854 0.78849 0.0
C386 C 0.95021 0.505 0.77168 0.0
C387 C 0.95567 0.47984 0.77568 0.0
C388 C 0.98763 0.56218 0.78601 0.0
C389 C 0.92867 0.52891 0.79498 0.0
C390 C 0.93222 0.37762 0.7377 0.0
C391 C 0.91596 0.36392 0.72023 0.0
C392 C 0.90691 0.38153 0.70918 0.0
C393 C 0.91321 0.41215 0.7156 0.0
C394 C 0.92813 0.42504 0.7334 0.0
C395 C 0.93749 0.40794 0.74414 0.0
C396 C 0.95073 0.42449 0.76317 0.0
C397 C 0.94793 0.45439 0.76198 0.0
C398 C 0.93489 0.45455 0.74447 0.0
C399 C 0.98636 0.43287 0.7661 0.0
C400 C 0.92854 0.40218 0.77694 0.0
H401 H 0.94077 0.56725 0.76657 0.0
H402 H 0.89443 0.52059 0.70274 0.0
H403 H 0.8628 0.46414 0.72477 0.0
H404 H 0.87389 0.43463 0.72263 0.0
H405 H 0.8725 0.45473 0.70287 0.0
H406 H 0.95971 0.51373 0.70929 0.0
H407 H 0.92475 0.48881 0.69355 0.0
H408 H 0.9457 0.47225 0.70582 0.0
H409 H 0.98013 0.54645 0.82638 0.0
H410 H 0.99445 0.46609 0.8337 0.0
H411 H 0.97741 0.44693 0.80156 0.0
H412 H 0.01083 0.56218 0.78747 0.0
H413 H 0.9893 0.5807 0.79645 0.0
H414 H 0.98656 0.56979 0.77221 0.0
H415 H 0.91299 0.50665 0.80151 0.0
H416 H 0.91291 0.52936 0.78366 0.0
H417 H 0.93583 0.54975 0.80522 0.0
H418 H 0.92038 0.59374 0.74741 0.0
C419 C 0.93118 0.55655 0.75283 0.0
C420 C 0.63884 0.52235 0.72059 0.0
C421 C 0.66583 0.5516 0.72775 0.0
C422 C 0.66721 0.56356 0.74596 0.0
C423 C 0.61511 0.51696 0.7496 0.0
C424 C 0.6141 0.50536 0.73174 0.0
C425 C 0.58476 0.47298 0.72645 0.0
H426 H 0.44639 0.34695 0.74864 0.0
C427 C 0.58565 0.49299 0.75749 0.0
C428 C 0.56803 0.46709 0.74396 0.0
H429 H 0.49123 0.35741 0.69808 0.0
H430 H 0.53418 0.4106 0.70975 0.0
H431 H 0.51038 0.37464 0.77465 0.0
H432 H 0.45892 0.41982 0.75411 0.0
H433 H 0.4723 0.4353 0.77708 0.0
H434 H 0.44488 0.39274 0.77164 0.0
H435 H 0.47378 0.36863 0.78347 0.0
H436 H 0.51279 0.40149 0.79269 0.0
C437 C 0.59612 0.4485 0.72201 0.0
C438 C 0.56465 0.47631 0.71041 0.0
C439 C 0.56168 0.51431 0.82222 0.0
C440 C 0.53598 0.49588 0.83268 0.0
C441 C 0.51127 0.46524 0.82527 0.0
C442 C 0.51178 0.45304 0.80762 0.0
C443 C 0.53735 0.47164 0.79719 0.0
C444 C 0.56193 0.50163 0.80452 0.0
C445 C 0.58737 0.51746 0.79138 0.0
C446 C 0.57353 0.49234 0.77487 0.0
C447 C 0.5442 0.46561 0.77844 0.0
C448 C 0.61957 0.52189 0.80012 0.0
C449 C 0.58895 0.54919 0.78698 0.0
C450 C 0.46546 0.36097 0.74015 0.0
C451 C 0.46573 0.34834 0.72248 0.0
C452 C 0.4908 0.36693 0.71172 0.0
C453 C 0.51568 0.39768 0.71857 0.0
C454 C 0.51558 0.40988 0.73643 0.0
C455 C 0.49068 0.39164 0.74686 0.0
C456 C 0.49494 0.40826 0.76562 0.0
C457 C 0.52663 0.43937 0.76479 0.0
C458 C 0.53849 0.44017 0.74765 0.0
C459 C 0.49792 0.38726 0.77997 0.0
C460 C 0.46627 0.41427 0.76741 0.0
H461 H 0.64428 0.55674 0.77065 0.0
H462 H 0.63736 0.51263 0.70666 0.0
H463 H 0.5649 0.4995 0.71245 0.0
H464 H 0.53888 0.45758 0.70928 0.0
H465 H 0.57461 0.47577 0.69716 0.0
H466 H 0.61944 0.4556 0.72997 0.0
H467 H 0.59972 0.44682 0.70725 0.0
H468 H 0.57929 0.4242 0.72587 0.0
H469 H 0.58095 0.53796 0.82769 0.0
H470 H 0.49135 0.45081 0.83317 0.0
H471 H 0.49213 0.42959 0.80278 0.0
H472 H 0.61518 0.50159 0.80831 0.0
H473 H 0.63278 0.54447 0.80942 0.0
H474 H 0.63554 0.52184 0.78983 0.0
H475 H 0.5642 0.54553 0.78458 0.0
H476 H 0.60066 0.55827 0.7744 0.0
H477 H 0.60195 0.5682 0.79853 0.0
H478 H 0.68793 0.58614 0.75168 0.0
C479 C 0.64192 0.54646 0.75691 0.0
C480 C 0.65161 0.12827 0.72947 0.0
C481 C 0.67722 0.12438 0.73609 0.0
C482 C 0.67625 0.11243 0.75327 0.0
C483 C 0.62453 0.10902 0.75706 0.0
C484 C 0.62573 0.12054 0.7401 0.0
C485 C 0.59689 0.12371 0.73489 0.0
H486 H 0.45586 0.11219 0.75487 0.0
C487 C 0.59426 0.1039 0.76459 0.0
C488 C 0.57819 0.11263 0.75155 0.0
H489 H 0.50407 0.14094 0.70555 0.0
H490 H 0.54698 0.13309 0.71786 0.0
H491 H 0.46763 0.05236 0.75859 0.0
H492 H 0.5194 0.15007 0.7832 0.0
H493 H 0.51896 0.12572 0.80021 0.0
H494 H 0.48129 0.1206 0.79025 0.0
H495 H 0.45243 0.0668 0.77637 0.0
H496 H 0.47887 0.05119 0.78154 0.0
C497 C 0.57842 0.10058 0.71741 0.0
C498 C 0.60891 0.15969 0.73275 0.0
C499 C 0.56337 0.05934 0.82672 0.0
C500 C 0.53679 0.05278 0.83675 0.0
C501 C 0.51353 0.06 0.82974 0.0
C502 C 0.51615 0.07295 0.81291 0.0
C503 C 0.54238 0.07887 0.80282 0.0
C504 C 0.56575 0.07254 0.80983 0.0
C505 C 0.59222 0.08117 0.79719 0.0
C506 C 0.58038 0.09286 0.78131 0.0
C507 C 0.55105 0.0913 0.78475 0.0
C508 C 0.59313 0.05036 0.79122 0.0
C509 C 0.62419 0.10842 0.80733 0.0
C510 C 0.47576 0.11671 0.74683 0.0
C511 C 0.47684 0.12718 0.72926 0.0
C512 C 0.50293 0.13284 0.7191 0.0
C513 C 0.52777 0.12826 0.7263 0.0
C514 C 0.52654 0.11778 0.74389 0.0
C515 C 0.50077 0.11202 0.75382 0.0
C516 C 0.50334 0.10033 0.77209 0.0
C517 C 0.53496 0.10019 0.77149 0.0
C518 C 0.54841 0.11059 0.75498 0.0
C519 C 0.47404 0.06597 0.77237 0.0
C520 C 0.50565 0.12519 0.78734 0.0
H521 H 0.65059 0.09574 0.77678 0.0
H522 H 0.65186 0.13738 0.71629 0.0
H523 H 0.62958 0.17552 0.74305 0.0
H524 H 0.59052 0.16652 0.73521 0.0
H525 H 0.6172 0.166 0.71895 0.0
H526 H 0.58128 0.07901 0.71694 0.0
H527 H 0.58749 0.11261 0.7048 0.0
H528 H 0.55204 0.0907 0.71685 0.0
H529 H 0.58157 0.05399 0.83184 0.0
H530 H 0.49295 0.0551 0.83727 0.0
H531 H 0.49742 0.0776 0.80832 0.0
H532 H 0.56821 0.02956 0.788 0.0
H533 H 0.60528 0.04429 0.80228 0.0
H534 H 0.60534 0.05228 0.77864 0.0
H535 H 0.61996 0.12599 0.81543 0.0
H536 H 0.64214 0.12267 0.79792 0.0
H537 H 0.63501 0.09866 0.81695 0.0
H538 H 0.6958 0.1091 0.75846 0.0
C539 C 0.65003 0.10472 0.76381 0.0
C540 C 0.84977 0.53357 0.95652 0.0
C541 C 0.87774 0.53706 0.9494 0.0
C542 C 0.88528 0.54853 0.93208 0.0
C543 C 0.83701 0.55306 0.92929 0.0
C544 C 0.82976 0.54145 0.94624 0.0
C545 C 0.79863 0.53813 0.95172 0.0
H546 H 0.66734 0.55294 0.9344 0.0
C547 C 0.81089 0.55878 0.92227 0.0
C548 C 0.78831 0.54979 0.93534 0.0
H549 H 0.69351 0.51818 0.98147 0.0
H550 H 0.74178 0.52643 0.96848 0.0
H551 H 0.741 0.61288 0.9307 0.0
H552 H 0.68872 0.51635 0.90359 0.0
H553 H 0.70866 0.54351 0.88735 0.0
H554 H 0.67774 0.54605 0.89903 0.0
H555 H 0.70652 0.59965 0.91444 0.0
H556 H 0.7464 0.61433 0.90716 0.0
C557 C 0.8064 0.56083 0.96944 0.0
C558 C 0.77493 0.50199 0.95357 0.0
C559 C 0.81756 0.60668 0.86151 0.0
C560 C 0.79718 0.61457 0.85146 0.0
C561 C 0.76803 0.60866 0.85837 0.0
C562 C 0.75944 0.59536 0.87516 0.0
C563 C 0.78016 0.58775 0.88516 0.0
C564 C 0.80859 0.59326 0.8782 0.0
C565 C 0.82737 0.5831 0.89043 0.0
C566 C 0.80593 0.5711 0.90602 0.0
C567 C 0.77823 0.57388 0.90294 0.0
C568 C 0.86049 0.61318 0.89689 0.0
C569 C 0.82956 0.55568 0.87973 0.0
C570 C 0.68366 0.54716 0.94175 0.0
C571 C 0.67689 0.53489 0.95896 0.0
C572 C 0.69842 0.5276 0.96823 0.0
C573 C 0.72643 0.53245 0.96063 0.0
C574 C 0.73317 0.54481 0.9435 0.0
C575 C 0.71203 0.55197 0.93428 0.0
C576 C 0.72369 0.56507 0.91623 0.0
C577 C 0.75517 0.56442 0.91621 0.0
C578 C 0.76037 0.55251 0.93227 0.0
C579 C 0.7296 0.59976 0.91698 0.0
C580 C 0.69842 0.54179 0.90063 0.0
H581 H 0.87209 0.5654 0.9089 0.0
H582 H 0.84346 0.52456 0.96977 0.0
H583 H 0.77964 0.48626 0.94407 0.0
H584 H 0.74945 0.49471 0.94977 0.0
H585 H 0.77731 0.49582 0.96769 0.0
H586 H 0.83024 0.58315 0.96941 0.0
H587 H 0.80732 0.54901 0.98182 0.0
H588 H 0.78908 0.56942 0.97087 0.0
H589 H 0.84001 0.61083 0.85644 0.0
H590 H 0.75198 0.61449 0.85077 0.0
H591 H 0.737 0.59152 0.87972 0.0
H592 H 0.85764 0.63437 0.90035 0.0
H593 H 0.87729 0.61928 0.88599 0.0
H594 H 0.8721 0.61041 0.90947 0.0
H595 H 0.80738 0.5404 0.87028 0.0
H596 H 0.83119 0.53888 0.88875 0.0
H597 H 0.85047 0.56547 0.87134 0.0
H598 H 0.90683 0.55126 0.92643 0.0
C599 C 0.86509 0.55667 0.92199 0.0
C600 C 0.43266 0.13619 0.96726 0.0
C601 C 0.4278 0.10649 0.95994 0.0
C602 C 0.41145 0.09344 0.9424 0.0
C603 C 0.40645 0.14064 0.93931 0.0
C604 C 0.42194 0.15284 0.95673 0.0
C605 C 0.42682 0.18555 0.96216 0.0
H606 H 0.41575 0.31388 0.93995 0.0
C607 C 0.39998 0.16485 0.93174 0.0
C608 C 0.41186 0.19115 0.94511 0.0
H609 H 0.45782 0.30231 0.99028 0.0
H610 H 0.44243 0.24797 0.97901 0.0
H611 H 0.44451 0.28342 0.91402 0.0
H612 H 0.35163 0.24188 0.93522 0.0
H613 H 0.34501 0.22641 0.91216 0.0
H614 H 0.36292 0.26919 0.91778 0.0
H615 H 0.41327 0.29038 0.90508 0.0
H616 H 0.41656 0.2565 0.89626 0.0
C617 C 0.4637 0.2096 0.9655 0.0
C618 C 0.40767 0.18312 0.97894 0.0
C619 C 0.34892 0.14633 0.86646 0.0
C620 C 0.34252 0.16593 0.8556 0.0
C621 C 0.3485 0.19604 0.86324 0.0
C622 C 0.36135 0.20692 0.88144 0.0
C623 C 0.36856 0.18758 0.89207 0.0
C624 C 0.36215 0.15773 0.88462 0.0
C625 C 0.37235 0.14105 0.89788 0.0
C626 C 0.38584 0.16579 0.91448 0.0
C627 C 0.38354 0.19295 0.91093 0.0
C628 C 0.39878 0.13605 0.8896 0.0
C629 C 0.34192 0.1096 0.90177 0.0
C630 C 0.4213 0.29933 0.94849 0.0
C631 C 0.43794 0.31192 0.96591 0.0
C632 C 0.44501 0.29274 0.97678 0.0
C633 C 0.43612 0.26134 0.97018 0.0
C634 C 0.42023 0.2492 0.95249 0.0
C635 C 0.41282 0.26801 0.94203 0.0
C636 C 0.39659 0.25137 0.92342 0.0
C637 C 0.39555 0.2195 0.92443 0.0
C638 C 0.40946 0.21846 0.94145 0.0
C639 C 0.41855 0.27136 0.90882 0.0
C640 C 0.36229 0.24706 0.92186 0.0
H641 H 0.3886 0.09948 0.91867 0.0
H642 H 0.44531 0.14657 0.98073 0.0
H643 H 0.38471 0.15962 0.97792 0.0
H644 H 0.40017 0.20138 0.97999 0.0
H645 H 0.42185 0.18512 0.99189 0.0
H646 H 0.47737 0.20238 0.95645 0.0
H647 H 0.47284 0.21071 0.97989 0.0
H648 H 0.4705 0.23413 0.96219 0.0
H649 H 0.34451 0.12309 0.86076 0.0
H650 H 0.34358 0.2113 0.85498 0.0
H651 H 0.36564 0.2302 0.88643 0.0
H652 H 0.41458 0.15668 0.88192 0.0
H653 H 0.38787 0.11392 0.87993 0.0
H654 H 0.41538 0.13487 0.90009 0.0
H655 H 0.32092 0.11334 0.90267 0.0
H656 H 0.34474 0.10116 0.91503 0.0
H657 H 0.33531 0.09012 0.89067 0.0
H658 H 0.4076 0.07044 0.93667 0.0
C659 C 0.40062 0.11036 0.93203 0.0
C660 C 0.68594 0.14559 0.95722 0.0
C661 C 0.66085 0.11444 0.95131 0.0
C662 C 0.66101 0.09997 0.9341 0.0
C663 C 0.71166 0.14745 0.92926 0.0
C664 C 0.7111 0.16144 0.94613 0.0
C665 C 0.74018 0.19417 0.9509 0.0
H666 H 0.88987 0.3052 0.93454 0.0
C667 C 0.74186 0.17024 0.9215 0.0
C668 C 0.75866 0.1975 0.93422 0.0
H669 H 0.83395 0.30718 0.97836 0.0
H670 H 0.78837 0.25971 0.96443 0.0
H671 H 0.86334 0.22719 0.9289 0.0
H672 H 0.83488 0.28976 0.90501 0.0
H673 H 0.82503 0.25847 0.88792 0.0
H674 H 0.86674 0.28483 0.89664 0.0
H675 H 0.88778 0.25844 0.91496 0.0
H676 H 0.85793 0.21901 0.90482 0.0
C677 C 0.75836 0.19283 0.96859 0.0
C678 C 0.72881 0.21919 0.95258 0.0
C679 C 0.76841 0.14249 0.85908 0.0
C680 C 0.79486 0.15921 0.84881 0.0
C681 C 0.8208 0.18923 0.85614 0.0
C682 C 0.82043 0.20265 0.8735 0.0
C683 C 0.79385 0.18582 0.88366 0.0
C684 C 0.76833 0.1563 0.87642 0.0
C685 C 0.74202 0.1422 0.88919 0.0
C686 C 0.75557 0.16852 0.90502 0.0
C687 C 0.78614 0.19381 0.90175 0.0
C688 C 0.73928 0.11059 0.89497 0.0
C689 C 0.7106 0.13793 0.87939 0.0
C690 C 0.86906 0.29426 0.94223 0.0
C691 C 0.86864 0.3072 0.96001 0.0
C692 C 0.83776 0.29536 0.96662 0.0
C693 C 0.81046 0.26791 0.95814 0.0
C694 C 0.81304 0.25246 0.94218 0.0
C695 C 0.84136 0.26661 0.93386 0.0
C696 C 0.83793 0.24902 0.91547 0.0
C697 C 0.80356 0.22079 0.91497 0.0
C698 C 0.78942 0.2229 0.93082 0.0
C699 C 0.86311 0.23786 0.91588 0.0
C700 C 0.84151 0.27157 0.9004 0.0
H701 H 0.68513 0.1042 0.91004 0.0
H702 H 0.6861 0.15719 0.97034 0.0
H703 H 0.70447 0.20992 0.94527 0.0
H704 H 0.74472 0.24136 0.94615 0.0
H705 H 0.72743 0.22574 0.96713 0.0
H706 H 0.76069 0.17095 0.96756 0.0
H707 H 0.7451 0.19192 0.98072 0.0
H708 H 0.78316 0.2133 0.97136 0.0
H709 H 0.74823 0.11933 0.85364 0.0
H710 H 0.84131 0.2023 0.84834 0.0
H711 H 0.84088 0.22561 0.87836 0.0
H712 H 0.7634 0.1125 0.8963 0.0
H713 H 0.72352 0.09 0.88467 0.0
H714 H 0.73018 0.10481 0.90855 0.0
H715 H 0.71585 0.15915 0.87185 0.0
H716 H 0.69291 0.13609 0.88897 0.0
H717 H 0.69898 0.1163 0.86932 0.0
H718 H 0.6416 0.07597 0.92932 0.0
C719 C 0.68626 0.11637 0.923 0.0
C720 C 0.56429 0.85839 0.05332 0.0
C721 C 0.56758 0.88785 0.05981 0.0
C722 C 0.58213 0.90172 0.07758 0.0
C723 C 0.58905 0.85611 0.08245 0.0
C724 C 0.57516 0.84298 0.06484 0.0
C725 C 0.57272 0.81107 0.06023 0.0
H726 H 0.59986 0.69304 0.08465 0.0
C727 C 0.59698 0.83353 0.09092 0.0
C728 C 0.58761 0.80722 0.07793 0.0
H729 H 0.55101 0.69664 0.03454 0.0
H730 H 0.56018 0.74895 0.04532 0.0
H731 H 0.65757 0.76982 0.09047 0.0
H732 H 0.56345 0.71659 0.10994 0.0
H733 H 0.58873 0.74545 0.12783 0.0
H734 H 0.59748 0.71478 0.11971 0.0
H735 H 0.64807 0.7406 0.10674 0.0
H736 H 0.66072 0.78189 0.11395 0.0
C737 C 0.59343 0.81444 0.04408 0.0
C738 C 0.53642 0.78517 0.05628 0.0
C739 C 0.64411 0.85729 0.15719 0.0
C740 C 0.65299 0.84034 0.16879 0.0
C741 C 0.65092 0.81147 0.16193 0.0
C742 C 0.63954 0.79923 0.14361 0.0
C743 C 0.63003 0.81606 0.13217 0.0
C744 C 0.63267 0.84472 0.13898 0.0
C745 C 0.62135 0.85924 0.1249 0.0
C746 C 0.61094 0.83431 0.10859 0.0
C747 C 0.61606 0.80907 0.11293 0.0
C748 C 0.65048 0.89203 0.12131 0.0
C749 C 0.59245 0.86129 0.13191 0.0
C750 C 0.59147 0.70542 0.07606 0.0
C751 C 0.57487 0.69109 0.05874 0.0
C752 C 0.56388 0.70747 0.04791 0.0
C753 C 0.56917 0.73775 0.05423 0.0
C754 C 0.58521 0.75163 0.0717 0.0
C755 C 0.59586 0.73545 0.08239 0.0
C756 C 0.61022 0.75301 0.10111 0.0
C757 C 0.60699 0.78264 0.09969 0.0
C758 C 0.59261 0.78171 0.08237 0.0
C759 C 0.646 0.76172 0.10337 0.0
C760 C 0.5892 0.73147 0.11551 0.0
H761 H 0.60363 0.89752 0.10245 0.0
H762 H 0.55305 0.8474 0.03967 0.0
H763 H 0.5208 0.79232 0.0635 0.0
H764 H 0.53068 0.7619 0.06138 0.0
H765 H 0.52853 0.78122 0.04141 0.0
H766 H 0.61631 0.83805 0.0458 0.0
H767 H 0.58029 0.813 0.03083 0.0
H768 H 0.60104 0.79629 0.04312 0.0
H769 H 0.64566 0.87962 0.16229 0.0
H770 H 0.65786 0.79832 0.17081 0.0
H771 H 0.63831 0.77703 0.13913 0.0
H772 H 0.6734 0.89147 0.12266 0.0
H773 H 0.65322 0.91169 0.13124 0.0
H774 H 0.64882 0.89838 0.10723 0.0
H775 H 0.57673 0.83968 0.13894 0.0
H776 H 0.57638 0.86183 0.12081 0.0
H777 H 0.60091 0.88276 0.14188 0.0
H778 H 0.58474 0.92452 0.08267 0.0
C779 C 0.59296 0.88599 0.08897 0.0
C780 C 0.30942 0.85239 0.05658 0.0
C781 C 0.33462 0.88314 0.06311 0.0
C782 C 0.33366 0.89704 0.08033 0.0
C783 C 0.28258 0.84935 0.08424 0.0
C784 C 0.28373 0.83611 0.06725 0.0
C785 C 0.25501 0.80334 0.06206 0.0
H786 H 0.11163 0.68114 0.08115 0.0
C787 C 0.25245 0.82577 0.09175 0.0
C788 C 0.23628 0.7989 0.07868 0.0
H789 H 0.1636 0.68715 0.03388 0.0
H790 H 0.20645 0.7401 0.04584 0.0
H791 H 0.17082 0.70588 0.10931 0.0
H792 H 0.1277 0.75615 0.08506 0.0
H793 H 0.13669 0.76921 0.10859 0.0
H794 H 0.10914 0.72731 0.10135 0.0
H795 H 0.13604 0.70498 0.11779 0.0
H796 H 0.17656 0.73584 0.12627 0.0
C797 C 0.26706 0.77891 0.06 0.0
C798 C 0.23663 0.80501 0.04454 0.0
C799 C 0.22458 0.84831 0.15519 0.0
C800 C 0.19834 0.82986 0.16531 0.0
C801 C 0.17351 0.79953 0.15757 0.0
C802 C 0.17464 0.78747 0.14003 0.0
C803 C 0.20096 0.80587 0.13004 0.0
C804 C 0.22546 0.83573 0.13758 0.0
C805 C 0.25158 0.85147 0.1248 0.0
C806 C 0.23876 0.82598 0.10851 0.0
C807 C 0.20901 0.79944 0.11172 0.0
C808 C 0.28353 0.85655 0.1343 0.0
C809 C 0.25299 0.88285 0.11976 0.0
C810 C 0.13222 0.69417 0.07341 0.0
C811 C 0.13444 0.6804 0.05656 0.0
C812 C 0.16159 0.6976 0.04686 0.0
C813 C 0.18639 0.72823 0.05387 0.0
C814 C 0.18415 0.74169 0.07086 0.0
C815 C 0.1575 0.72462 0.08038 0.0
C816 C 0.16014 0.74201 0.09863 0.0
C817 C 0.19253 0.7726 0.09834 0.0
C818 C 0.20625 0.7723 0.08199 0.0
C819 C 0.16072 0.72121 0.11387 0.0
C820 C 0.13191 0.74898 0.09861 0.0
H821 H 0.30833 0.89195 0.10398 0.0
H822 H 0.30978 0.84125 0.04342 0.0
H823 H 0.23718 0.82841 0.0449 0.0
H824 H 0.21072 0.78664 0.04303 0.0
H825 H 0.24772 0.80269 0.03205 0.0
H826 H 0.28937 0.78677 0.06922 0.0
H827 H 0.27273 0.77624 0.04576 0.0
H828 H 0.24962 0.75495 0.06404 0.0
H829 H 0.24388 0.87177 0.16089 0.0
H830 H 0.15313 0.78515 0.16519 0.0
H831 H 0.15492 0.76421 0.13495 0.0
H832 H 0.27916 0.83517 0.14145 0.0
H833 H 0.29456 0.87777 0.14467 0.0
H834 H 0.3014 0.85955 0.12458 0.0
H835 H 0.22829 0.8795 0.11796 0.0
H836 H 0.26322 0.89041 0.1066 0.0
H837 H 0.26718 0.9028 0.13069 0.0
H838 H 0.3531 0.92077 0.08555 0.0
C839 C 0.30775 0.88027 0.09096 0.0
C840 C 0.3187 0.45953 0.06148 0.0
C841 C 0.34472 0.45637 0.06814 0.0
C842 C 0.3444 0.44515 0.08548 0.0
C843 C 0.29218 0.44054 0.08923 0.0
C844 C 0.29295 0.45168 0.07219 0.0
C845 C 0.26396 0.45461 0.06707 0.0
H846 H 0.12108 0.43878 0.08644 0.0
C847 C 0.26179 0.43497 0.09677 0.0
C848 C 0.24543 0.44338 0.08376 0.0
H849 H 0.17178 0.47304 0.03842 0.0
H850 H 0.21491 0.46546 0.05064 0.0
H851 H 0.13592 0.38004 0.08993 0.0
H852 H 0.1826 0.47721 0.11521 0.0
H853 H 0.18438 0.45354 0.13201 0.0
H854 H 0.14556 0.44599 0.12237 0.0
H855 H 0.11842 0.39319 0.10698 0.0
H856 H 0.14572 0.37907 0.11318 0.0
C857 C 0.24554 0.43137 0.04961 0.0
C858 C 0.27567 0.49056 0.06492 0.0
C859 C 0.23145 0.38989 0.15878 0.0
C860 C 0.2047 0.38271 0.16875 0.0
C861 C 0.1807 0.3888 0.16159 0.0
C862 C 0.1829 0.40142 0.14468 0.0
C863 C 0.20945 0.40816 0.13471 0.0
C864 C 0.23341 0.40275 0.14182 0.0
C865 C 0.26012 0.41217 0.12929 0.0
C866 C 0.24787 0.42346 0.11341 0.0
C867 C 0.21806 0.4209 0.11671 0.0
C868 C 0.26199 0.38189 0.12332 0.0
C869 C 0.29169 0.4399 0.13953 0.0
C870 C 0.14155 0.44446 0.07866 0.0
C871 C 0.14333 0.45638 0.06148 0.0
C872 C 0.17017 0.46378 0.05166 0.0
C873 C 0.19512 0.45937 0.05882 0.0
C874 C 0.19327 0.4475 0.07605 0.0
C875 C 0.16685 0.44029 0.08569 0.0
C876 C 0.1694 0.42828 0.10385 0.0
C877 C 0.20166 0.42945 0.10347 0.0
C878 C 0.21536 0.44063 0.08713 0.0
C879 C 0.14086 0.3934 0.10369 0.0
C880 C 0.17032 0.4522 0.11926 0.0
H881 H 0.31918 0.4287 0.10917 0.0
H882 H 0.3186 0.46831 0.04823 0.0
H883 H 0.29777 0.50666 0.07425 0.0
H884 H 0.25797 0.49766 0.06876 0.0
H885 H 0.28159 0.49638 0.0507 0.0
H886 H 0.24711 0.4091 0.04975 0.0
H887 H 0.2558 0.44278 0.03703 0.0
H888 H 0.21939 0.42276 0.04849 0.0
H889 H 0.25022 0.38543 0.16403 0.0
H890 H 0.15999 0.38342 0.16909 0.0
H891 H 0.16368 0.40528 0.13999 0.0
H892 H 0.23735 0.36074 0.1199 0.0
H893 H 0.2742 0.37605 0.13448 0.0
H894 H 0.27464 0.38432 0.11087 0.0
H895 H 0.28677 0.45686 0.14775 0.0
H896 H 0.30942 0.45473 0.13018 0.0
H897 H 0.30306 0.43052 0.14906 0.0
H898 H 0.36447 0.44271 0.09081 0.0
C899 C 0.31818 0.43713 0.09607 0.0
C900 C 0.51901 0.87132 0.29121 0.0
C901 C 0.54625 0.87324 0.28388 0.0
C902 C 0.55303 0.88291 0.26614 0.0
C903 C 0.50562 0.88892 0.26336 0.0
C904 C 0.49903 0.87904 0.28073 0.0
C905 C 0.46867 0.87741 0.28639 0.0
H906 H 0.33728 0.89174 0.26743 0.0
C907 C 0.47991 0.89514 0.25623 0.0
C908 C 0.45816 0.88823 0.26967 0.0
H909 H 0.36495 0.86258 0.31644 0.0
H910 H 0.41336 0.87012 0.30381 0.0
H911 H 0.40963 0.95148 0.2637 0.0
H912 H 0.36001 0.85438 0.23747 0.0
H913 H 0.3781 0.88182 0.22098 0.0
H914 H 0.34714 0.88284 0.23332 0.0
H915 H 0.37758 0.93833 0.24577 0.0
H916 H 0.4188 0.95283 0.2408 0.0
C917 C 0.4778 0.90161 0.30356 0.0
C918 C 0.44432 0.8419 0.28925 0.0
C919 C 0.48527 0.93786 0.19389 0.0
C920 C 0.46616 0.94758 0.18408 0.0
C921 C 0.43824 0.9443 0.19148 0.0
C922 C 0.4296 0.93175 0.20845 0.0
C923 C 0.44924 0.92261 0.21828 0.0
C924 C 0.47656 0.92576 0.21092 0.0
C925 C 0.4951 0.91571 0.22343 0.0
C926 C 0.47469 0.90628 0.23957 0.0
C927 C 0.44763 0.91012 0.23648 0.0
C928 C 0.52912 0.94528 0.22881 0.0
C929 C 0.49523 0.88653 0.2135 0.0
C930 C 0.35393 0.88701 0.27529 0.0
C931 C 0.34746 0.87638 0.29289 0.0
C932 C 0.3696 0.87071 0.30289 0.0
C933 C 0.39764 0.87507 0.29548 0.0
C934 C 0.40385 0.88541 0.27785 0.0
C935 C 0.38241 0.89155 0.26808 0.0
C936 C 0.39396 0.90351 0.24981 0.0
C937 C 0.42525 0.9025 0.25005 0.0
C938 C 0.4307 0.89179 0.26654 0.0
C939 C 0.40018 0.93828 0.24983 0.0
C940 C 0.3685 0.87961 0.23448 0.0
H941 H 0.53932 0.89815 0.24243 0.0
H942 H 0.51328 0.86372 0.3048 0.0
H943 H 0.44722 0.82502 0.27961 0.0
H944 H 0.41888 0.83548 0.28636 0.0
H945 H 0.44797 0.83649 0.30338 0.0
H946 H 0.5021 0.92312 0.30305 0.0
H947 H 0.47839 0.89052 0.31632 0.0
H948 H 0.4614 0.91141 0.30464 0.0
H949 H 0.5069 0.94024 0.18854 0.0
H950 H 0.42326 0.95171 0.18413 0.0
H951 H 0.4081 0.92987 0.21335 0.0
H952 H 0.52771 0.96757 0.23111 0.0
H953 H 0.54534 0.94887 0.21782 0.0
H954 H 0.54065 0.94367 0.24178 0.0
H955 H 0.47202 0.87076 0.20498 0.0
H956 H 0.49743 0.87071 0.22307 0.0
H957 H 0.51497 0.89447 0.2043 0.0
H958 H 0.57397 0.88441 0.26032 0.0
C959 C 0.53289 0.89084 0.25584 0.0
C960 C 0.09006 0.46613 0.30714 0.0
C961 C 0.08179 0.43441 0.30082 0.0
C962 C 0.07231 0.42523 0.28176 0.0
C963 C 0.07417 0.47554 0.27726 0.0
C964 C 0.08537 0.48562 0.29544 0.0
C965 C 0.09205 0.51913 0.30067 0.0
H966 H 0.10135 0.65615 0.2759 0.0
C967 C 0.07271 0.50202 0.26884 0.0
C968 C 0.08313 0.52758 0.28256 0.0
H969 H 0.12041 0.63487 0.3299 0.0
H970 H 0.1059 0.58108 0.31796 0.0
H971 H 0.13222 0.62042 0.25325 0.0
H972 H 0.03564 0.59017 0.26668 0.0
H973 H 0.03174 0.57186 0.24464 0.0
H974 H 0.05297 0.6152 0.24856 0.0
H975 H 0.10789 0.63521 0.24316 0.0
H976 H 0.10604 0.59901 0.23351 0.0
C977 C 0.12854 0.54065 0.30693 0.0
C978 C 0.06927 0.51743 0.31537 0.0
C979 C 0.03264 0.48888 0.20155 0.0
C980 C 0.02931 0.50984 0.19028 0.0
C981 C 0.03855 0.5412 0.1975 0.0
C982 C 0.05082 0.55165 0.21583 0.0
C983 C 0.05391 0.5305 0.22706 0.0
C984 C 0.04508 0.49975 0.21989 0.0
C985 C 0.05072 0.48097 0.23388 0.0
C986 C 0.06347 0.50523 0.25072 0.0
C987 C 0.06533 0.53418 0.24657 0.0
C988 C 0.0765 0.47317 0.22739 0.0
C989 C 0.01789 0.45101 0.23642 0.0
C990 C 0.10226 0.63972 0.28506 0.0
C991 C 0.11222 0.6495 0.30377 0.0
C992 C 0.11287 0.62761 0.31543 0.0
C993 C 0.10446 0.5965 0.30845 0.0
C994 C 0.0949 0.58706 0.28965 0.0
C995 C 0.09339 0.60835 0.27836 0.0
C996 C 0.08115 0.59356 0.25896 0.0
C997 C 0.07626 0.56013 0.2604 0.0
C998 C 0.0847 0.55664 0.27834 0.0
C999 C 0.10797 0.61302 0.24642 0.0
C1000 C 0.04882 0.59274 0.25428 0.0
H1001 H 0.06032 0.43632 0.25598 0.0
H1002 H 0.10093 0.47698 0.32069 0.0
H1003 H 0.04647 0.49375 0.31389 0.0
H1004 H 0.06128 0.53521 0.31412 0.0
H1005 H 0.08088 0.52077 0.32943 0.0
H1006 H 0.14319 0.53444 0.29811 0.0
H1007 H 0.13396 0.53741 0.32128 0.0
H1008 H 0.13764 0.56646 0.30581 0.0
H1009 H 0.02574 0.46469 0.19618 0.0
H1010 H 0.03611 0.55755 0.18891 0.0
H1011 H 0.05738 0.5758 0.22054 0.0
H1012 H 0.09398 0.49241 0.21947 0.0
H1013 H 0.06516 0.45021 0.21841 0.0
H1014 H 0.09153 0.47198 0.23889 0.0
H1015 H 0.99872 0.45752 0.23713 0.0
H1016 H 0.01807 0.4403 0.24927 0.0
H1017 H 0.01042 0.43226 0.22476 0.0
H1018 H 0.06892 0.40282 0.27543 0.0
C1019 C 0.06799 0.4452 0.27014 0.0
C1020 C 0.34896 0.48886 0.29095 0.0
C1021 C 0.3224 0.45932 0.28396 0.0
C1022 C 0.32138 0.44673 0.26598 0.0
C1023 C 0.37406 0.4928 0.26251 0.0
C1024 C 0.3744 0.50503 0.28011 0.0
C1025 C 0.40482 0.53615 0.28599 0.0
H1026 H 0.55664 0.64478 0.27165 0.0
C1027 C 0.40521 0.51515 0.25539 0.0
C1028 C 0.4232 0.54045 0.26922 0.0
H1029 H 0.50229 0.64387 0.31704 0.0
H1030 H 0.4559 0.59828 0.30236 0.0
H1031 H 0.52766 0.56696 0.26391 0.0
H1032 H 0.50367 0.63468 0.24322 0.0
H1033 H 0.49225 0.6048 0.225 0.0
H1034 H 0.53418 0.62849 0.23392 0.0
H1035 H 0.55254 0.59811 0.25007 0.0
H1036 H 0.52099 0.5594 0.23987 0.0
C1037 C 0.42169 0.53097 0.30297 0.0
C1038 C 0.39597 0.56283 0.28936 0.0
C1039 C 0.4322 0.49286 0.1916 0.0
C1040 C 0.45994 0.50971 0.18224 0.0
C1041 C 0.48653 0.53808 0.19085 0.0
C1042 C 0.4858 0.54968 0.20859 0.0
C1043 C 0.4582 0.53269 0.21793 0.0
C1044 C 0.43186 0.50483 0.20948 0.0
C1045 C 0.40471 0.49035 0.22176 0.0
C1046 C 0.41891 0.51456 0.23868 0.0
C1047 C 0.45041 0.53905 0.2363 0.0
C1048 C 0.39924 0.45694 0.22586 0.0
C1049 C 0.37472 0.48944 0.21226 0.0
C1050 C 0.53589 0.63357 0.27939 0.0
C1051 C 0.53616 0.64523 0.29762 0.0
C1052 C 0.50559 0.63305 0.3047 0.0
C1053 C 0.47773 0.60674 0.29575 0.0
C1054 C 0.47939 0.59283 0.27893 0.0
C1055 C 0.50768 0.60712 0.27059 0.0
C1056 C 0.50372 0.59122 0.25163 0.0
C1057 C 0.46874 0.56407 0.25049 0.0
C1058 C 0.45487 0.56505 0.26664 0.0
C1059 C 0.52752 0.57831 0.25115 0.0
C1060 C 0.50888 0.61595 0.23764 0.0
H1061 H 0.34517 0.45264 0.2416 0.0
H1062 H 0.35013 0.49886 0.30475 0.0
H1063 H 0.37235 0.55622 0.28196 0.0
H1064 H 0.41348 0.5857 0.28411 0.0
H1065 H 0.39427 0.56741 0.30415 0.0
H1066 H 0.42132 0.50773 0.30085 0.0
H1067 H 0.40921 0.53033 0.3154 0.0
H1068 H 0.44735 0.54947 0.30588 0.0
H1069 H 0.41144 0.471 0.18516 0.0
H1070 H 0.50797 0.55129 0.18376 0.0
H1071 H 0.50689 0.57141 0.21436 0.0
H1072 H 0.42268 0.45754 0.22794 0.0
H1073 H 0.38451 0.43847 0.21431 0.0
H1074 H 0.38756 0.44891 0.23859 0.0
H1075 H 0.3818 0.51217 0.20589 0.0
H1076 H 0.35699 0.48732 0.22188 0.0
H1077 H 0.36252 0.46923 0.20126 0.0
H1078 H 0.30099 0.42377 0.26049 0.0
C1079 C 0.34709 0.4634 0.25516 0.0
Tb1080 Tb 0.48833 0.97687 0.98904 0.0
Eu1081 Eu 0.51498 0.0223 0.03039 0.0
C1082 C 0.5196 0.95748 0.02078 0.0
C1083 C 0.44445 0.95619 0.02239 0.0
C1084 C 0.48442 0.96623 0.93859 0.0
C1085 C 0.50631 0.96679 0.90928 0.0
C1086 C 0.49601 0.95279 0.92564 0.0
C1087 C 0.4835 0.99412 0.93487 0.0
C1088 C 0.49359 0.00797 0.91844 0.0
C1089 C 0.50505 0.99441 0.90548 0.0
C1090 C 0.47528 0.95201 0.95625 0.0
O1091 O 0.47479 0.01357 0.9874 0.0
O1092 O 0.49591 0.04804 0.01421 0.0
O1093 O 0.55049 0.05281 0.01105 0.0
O1094 O 0.53899 0.01234 0.98838 0.0
C1095 C 0.48036 0.03923 0.99782 0.0
O1096 O 0.50625 0.04497 0.05435 0.0
O1097 O 0.55006 0.04249 0.05456 0.0
O1098 O 0.53095 0.9857 0.03002 0.0
O1099 O 0.49997 0.94792 1.00575 0.0
O1100 O 0.44982 0.94807 1.00602 0.0
O1101 O 0.46426 0.98324 0.03228 0.0
C1102 C 0.55652 0.04209 0.99575 0.0
O1103 O 0.49898 0.95469 0.96711 0.0
O1104 O 0.45584 0.95808 0.96523 0.0
C1105 C 0.52377 0.03377 0.08209 0.0
C1106 C 0.50515 0.00496 0.11524 0.0
C1107 C 0.50766 0.03487 0.11295 0.0
C1108 C 0.51696 0.04916 0.09656 0.0
C1109 C 0.52118 0.00378 0.08434 0.0
C1110 C 0.51219 0.98963 0.10081 0.0
C1111 C 0.53102 0.04799 0.06435 0.0
H1112 H 0.5151 0.95596 0.89949 0.0
H1113 H 0.49731 0.93155 0.92827 0.0
H1114 H 0.4752 0.00537 0.9447 0.0
H1115 H 0.49248 0.02931 0.91581 0.0
H1116 H 0.5023 0.0471 0.12386 0.0
H1117 H 0.51836 0.07205 0.09507 0.0
H1118 H 0.5257 0.99107 0.07329 0.0
H1119 H 0.51035 0.96654 0.10224 0.0
Tb1120 Tb 0.02427 0.50107 0.99133 0.0
Eu1121 Eu 0.98214 0.48139 0.0273 0.0
C1122 C 0.04146 0.55193 0.02513 0.0
C1123 C 0.04811 0.48091 0.02632 0.0
C1124 C 0.04412 0.51782 0.94403 0.0
C1125 C 0.05804 0.53659 0.91413 0.0
C1126 C 0.06719 0.53237 0.93167 0.0
C1127 C 0.01156 0.50594 0.93839 0.0
C1128 C 1.0024 0.51008 0.92085 0.0
C1129 C 0.02568 0.5279 0.90872 0.0
C1130 C 0.0541 0.51594 0.96291 0.0
O1131 O 0.97946 0.45611 0.98287 0.0
O1132 O 0.97353 0.43681 0.0108 0.0
O1133 O 0.9499 0.48365 1.00463 0.0
O1134 O 0.99021 0.51813 0.98787 0.0
C1135 C 0.96713 0.43193 0.99301 0.0
O1136 O 0.96007 0.44686 0.04743 0.0
O1137 O 0.95446 0.48875 0.04778 0.0
O1138 O 0.01247 0.5352 0.03049 0.0
O1139 O 0.05251 0.5402 0.01268 0.0
O1140 O 0.04433 0.47825 1.0083 0.0
O1141 O 0.03098 0.4888 0.03649 0.0
C1142 C 0.96015 0.5039 0.99198 0.0
O1143 O 0.05393 0.53673 0.97497 0.0
O1144 O 0.04092 0.48728 0.96854 0.0
C1145 C 0.96023 0.47062 0.07624 0.0
C1146 C 0.98078 0.48042 0.11379 0.0
C1147 C 0.95401 0.45112 0.10639 0.0
C1148 C 0.94377 0.44628 0.08772 0.0
C1149 C 0.987 0.49996 0.08367 0.0
C1150 C 0.99712 0.50486 0.10235 0.0
C1151 C 0.95064 0.46433 0.05642 0.0
H1152 H 0.07677 0.54617 0.90493 0.0
H1153 H 0.09238 0.54053 0.93557 0.0
H1154 H 0.99316 0.49341 0.94757 0.0
H1155 H 0.9768 0.4984 0.91705 0.0
H1156 H 0.94123 0.432 0.11506 0.0
H1157 H 0.92329 0.42339 0.08218 0.0
H1158 H 1.00029 0.51893 0.07502 0.0
H1159 H 0.01788 0.52758 0.10786 0.0
Tb1160 Tb 0.52192 0.49482 0.02968 0.0
Eu1161 Eu 0.49711 0.51466 0.9911 0.0
C1162 C 0.48535 0.44306 0.99472 0.0
C1163 C 0.56514 0.51252 0.99652 0.0
C1164 C 0.51944 0.48143 0.0783 0.0
C1165 C 0.52631 0.49484 0.11126 0.0
C1166 C 0.53924 0.4931 0.09486 0.0
C1167 C 0.48635 0.47117 0.07843 0.0
C1168 C 0.4734 0.47274 0.09483 0.0
C1169 C 0.49337 0.48492 0.11133 0.0
C1170 C 0.53366 0.48158 0.0609 0.0
O1171 O 0.54795 0.54681 0.03012 0.0
O1172 O 0.5104 0.55372 0.01363 0.0
O1173 O 0.45373 0.4962 1.00725 0.0
O1174 O 0.47734 0.49409 0.03505 0.0
C1175 C 0.53495 0.56416 0.026 0.0
O1176 O 0.51061 0.55184 0.97219 0.0
O1177 O 0.46511 0.50703 0.96678 0.0
O1178 O 0.48059 0.46261 0.98507 0.0
O1179 O 0.50088 0.45112 0.01116 0.0
O1180 O 0.55964 0.50067 0.01251 0.0
O1181 O 0.54619 0.52058 0.98755 0.0
C1182 C 0.45282 0.49148 0.02471 0.0
O1183 O 0.5144 0.46006 0.04778 0.0
O1184 O 0.55073 0.50964 0.05489 0.0
C1185 C 0.49439 0.52994 0.94139 0.0
C1186 C 0.51231 0.52466 0.9059 0.0
C1187 C 0.51403 0.55327 0.91295 0.0
C1188 C 0.505 0.55582 0.93054 0.0
C1189 C 0.49324 0.50153 0.93444 0.0
C1190 C 0.50193 0.49887 0.9168 0.0
C1191 C 0.48619 0.53336 0.9602 0.0
H1192 H 0.54205 0.50431 0.12389 0.0
H1193 H 0.5648 0.5013 0.09506 0.0
H1194 H 0.47052 0.46226 0.06584 0.0
H1195 H 0.44795 0.465 0.09462 0.0
H1196 H 0.52212 0.57347 0.90477 0.0
H1197 H 0.50647 0.57807 0.93573 0.0
H1198 H 0.48572 0.48141 0.94264 0.0
H1199 H 0.50059 0.47667 0.91164 0.0
Tb1200 Tb 0.15851 0.31529 0.32256 0.0
Eu1201 Eu 0.1813 0.35808 0.3634 0.0
C1202 C 0.19674 0.30308 0.3531 0.0
C1203 C 0.11563 0.29052 0.35574 0.0
C1204 C 0.15676 0.30228 0.27239 0.0
C1205 C 0.17765 0.30087 0.24299 0.0
C1206 C 0.16786 0.28796 0.25969 0.0
C1207 C 0.15595 0.33002 0.26816 0.0
C1208 C 0.16545 0.34273 0.2514 0.0
C1209 C 0.17629 0.32822 0.23864 0.0
C1210 C 0.14748 0.28893 0.29023 0.0
O1211 O 0.15045 0.35556 0.31988 0.0
O1212 O 0.14186 0.36386 0.34963 0.0
O1213 O 0.21186 0.39306 0.34381 0.0
O1214 O 0.20839 0.35383 0.32279 0.0
C1215 C 0.13816 0.3663 0.33209 0.0
O1216 O 0.17297 0.38295 0.38644 0.0
O1217 O 0.2141 0.37607 0.38863 0.0
O1218 O 0.21014 0.33383 0.35828 0.0
O1219 O 0.17098 0.28876 0.34131 0.0
O1220 O 0.11587 0.29183 0.33784 0.0
O1221 O 0.14118 0.30877 0.36718 0.0
C1222 C 0.22144 0.3841 0.32927 0.0
O1223 O 0.17115 0.29294 0.30168 0.0
O1224 O 0.12713 0.29465 0.29844 0.0
C1225 C 0.18583 0.36945 0.41506 0.0
C1226 C 0.16794 0.34196 0.44865 0.0
C1227 C 0.19891 0.36845 0.44747 0.0
C1228 C 0.20773 0.38208 0.43084 0.0
C1229 C 0.15497 0.34269 0.41619 0.0
C1230 C 0.14606 0.32921 0.43284 0.0
C1231 C 0.19558 0.38365 0.39745 0.0
H1232 H 0.18602 0.28937 0.23337 0.0
H1233 H 0.16905 0.26681 0.26272 0.0
H1234 H 0.14801 0.34191 0.2778 0.0
H1235 H 0.16429 0.36389 0.24835 0.0
H1236 H 0.21621 0.3786 0.45946 0.0
H1237 H 0.23172 0.40248 0.43028 0.0
H1238 H 0.1377 0.33215 0.4042 0.0
H1239 H 0.12211 0.30875 0.43339 0.0
Tb1240 Tb 0.69366 0.83844 0.32704 0.0
Eu1241 Eu 0.65097 0.81961 0.36269 0.0
C1242 C 0.71071 0.88982 0.36053 0.0
C1243 C 0.71714 0.81895 0.36265 0.0
C1244 C 0.71343 0.85409 0.27979 0.0
C1245 C 0.72689 0.87213 0.24971 0.0
C1246 C 0.73625 0.86799 0.26722 0.0
C1247 C 0.6809 0.84281 0.27441 0.0
C1248 C 0.67153 0.84689 0.25692 0.0
C1249 C 0.69462 0.86405 0.24455 0.0
C1250 C 0.7236 0.85241 0.29866 0.0
O1251 O 0.64887 0.79329 0.31882 0.0
O1252 O 0.64373 0.77502 0.34694 0.0
O1253 O 0.61935 0.82145 0.33945 0.0
O1254 O 0.66003 0.85592 0.32298 0.0
C1255 C 0.63681 0.76948 0.32921 0.0
O1256 O 0.62555 0.78434 0.38189 0.0
O1257 O 0.62377 0.82839 0.3829 0.0
O1258 O 0.68159 0.87337 0.36577 0.0
O1259 O 0.72176 0.87782 0.34824 0.0
O1260 O 0.71392 0.81645 0.34461 0.0
O1261 O 0.6993 0.82623 0.37263 0.0
C1262 C 0.62983 0.84169 0.32682 0.0
O1263 O 0.72388 0.8736 0.31061 0.0
O1264 O 0.7101 0.82387 0.30446 0.0
C1265 C 0.62121 0.80513 0.4106 0.0
C1266 C 0.63009 0.80882 0.4489 0.0
C1267 C 0.59939 0.78873 0.43966 0.0
C1268 C 0.59499 0.78692 0.42061 0.0
C1269 C 0.652 0.82525 0.41981 0.0
C1270 C 0.65641 0.82714 0.43892 0.0
C1271 C 0.61612 0.80208 0.39058 0.0
H1272 H 0.74537 0.88113 0.24034 0.0
H1273 H 0.76138 0.87569 0.27093 0.0
H1274 H 0.66266 0.83081 0.28377 0.0
H1275 H 0.64591 0.83573 0.25333 0.0
H1276 H 0.5789 0.77445 0.44723 0.0
H1277 H 0.57114 0.77117 0.41366 0.0
H1278 H 0.67252 0.8393 0.41222 0.0
H1279 H 0.68024 0.84271 0.44591 0.0
Tb1280 Tb 0.19284 0.83517 0.36328 0.0
Eu1281 Eu 0.16375 0.84841 0.32468 0.0
C1282 C 0.15483 0.78045 0.33167 0.0
C1283 C 0.23354 0.85228 0.3289 0.0
C1284 C 0.19245 0.82066 0.41162 0.0
C1285 C 0.17987 0.79743 0.44069 0.0
C1286 C 0.19663 0.8032 0.42495 0.0
C1287 C 0.17232 0.83345 0.41465 0.0
C1288 C 0.15559 0.82768 0.4303 0.0
C1289 C 0.15693 0.80746 0.44317 0.0
C1290 C 0.20895 0.82564 0.39463 0.0
O1291 O 0.21938 0.8863 0.36014 0.0
O1292 O 0.17905 0.8909 0.34531 0.0
O1293 O 0.1219 0.82588 0.34224 0.0
O1294 O 0.15194 0.84015 0.37009 0.0
C1295 C 0.20614 0.90347 0.35589 0.0
O1296 O 0.16826 0.88162 0.30446 0.0
O1297 O 0.1287 0.83231 0.30069 0.0
O1298 O 0.16259 0.80154 0.31963 0.0
O1299 O 0.15728 0.78863 0.34926 0.0
O1300 O 0.22648 0.83675 0.34376 0.0
O1301 O 0.21568 0.86302 0.32142 0.0
C1302 C 0.12427 0.82911 0.36027 0.0
O1303 O 0.19395 0.80302 0.38124 0.0
O1304 O 0.22012 0.85395 0.38881 0.0
C1305 C 0.15321 0.85675 0.27416 0.0
C1306 C 0.17187 0.854 0.23855 0.0
C1307 C 0.17497 0.88264 0.24663 0.0
C1308 C 0.16556 0.88394 0.26426 0.0
C1309 C 0.15032 0.82814 0.26605 0.0
C1310 C 0.15945 0.82678 0.24838 0.0
C1311 C 0.14505 0.85914 0.29315 0.0
H1312 H 0.18617 0.78586 0.45091 0.0
H1313 H 0.21316 0.79426 0.42332 0.0
H1314 H 0.16973 0.84835 0.40501 0.0
H1315 H 0.14235 0.84013 0.43223 0.0
H1316 H 0.18459 0.90391 0.23927 0.0
H1317 H 0.16825 0.90632 0.27025 0.0
H1318 H 0.14126 0.80686 0.27338 0.0
H1319 H 0.15697 0.80449 0.24238 0.0
Tb1320 Tb 0.82231 0.6463 0.65585 0.0
Eu1321 Eu 0.84699 0.68852 0.69725 0.0
C1322 C 0.8538 0.62723 0.68693 0.0
C1323 C 0.77649 0.62511 0.68801 0.0
C1324 C 0.82119 0.63526 0.60572 0.0
C1325 C 0.84203 0.63348 0.57635 0.0
C1326 C 0.83103 0.62006 0.59278 0.0
C1327 C 0.82304 0.66447 0.60203 0.0
C1328 C 0.83369 0.67769 0.58553 0.0
C1329 C 0.8431 0.66222 0.57249 0.0
C1330 C 0.81025 0.62114 0.6232 0.0
O1331 O 0.82014 0.68977 0.65309 0.0
O1332 O 0.81549 0.70409 0.68278 0.0
O1333 O 0.88183 0.72102 0.67803 0.0
O1334 O 0.87391 0.68001 0.65686 0.0
C1335 C 0.81183 0.70497 0.66506 0.0
O1336 O 0.84034 0.71403 0.72065 0.0
O1337 O 0.88009 0.70495 0.72232 0.0
O1338 O 0.86907 0.65726 0.69388 0.0
O1339 O 0.82955 0.61608 0.67421 0.0
O1340 O 0.77853 0.62587 0.6702 0.0
O1341 O 0.8012 0.64257 0.70017 0.0
C1342 C 0.89006 0.71027 0.66357 0.0
O1343 O 0.8325 0.62224 0.63467 0.0
O1344 O 0.79129 0.62881 0.63152 0.0
C1345 C 0.85267 0.69947 0.74899 0.0
C1346 C 0.83446 0.67171 0.78245 0.0
C1347 C 0.86584 0.69747 0.78123 0.0
C1348 C 0.87483 0.71125 0.76466 0.0
C1349 C 0.82133 0.67354 0.7502 0.0
C1350 C 0.81228 0.65991 0.76678 0.0
C1351 C 0.8626 0.71363 0.7314 0.0
H1352 H 0.84927 0.62122 0.56651 0.0
H1353 H 0.83021 0.59778 0.5954 0.0
H1354 H 0.81616 0.67707 0.61187 0.0
H1355 H 0.83443 0.69991 0.58287 0.0
H1356 H 0.88334 0.70688 0.79313 0.0
H1357 H 0.89916 0.73104 0.76404 0.0
H1358 H 0.80382 0.66372 0.7383 0.0
H1359 H 0.788 0.64004 0.76739 0.0
Tb1360 Tb 0.35663 0.16877 0.65757 0.0
Eu1361 Eu 0.3128 0.14798 0.69262 0.0
C1362 C 0.37326 0.21916 0.69171 0.0
C1363 C 0.38027 0.14944 0.69334 0.0
C1364 C 0.37215 0.18203 0.6102 0.0
C1365 C 0.3799 0.2001 0.57983 0.0
C1366 C 0.39266 0.19797 0.5969 0.0
C1367 C 0.33874 0.16675 0.60596 0.0
C1368 C 0.326 0.16883 0.58893 0.0
C1369 C 0.34627 0.18786 0.57592 0.0
C1370 C 0.38522 0.18268 0.62879 0.0
O1371 O 0.31239 0.12321 0.64901 0.0
O1372 O 0.30699 0.10404 0.6768 0.0
O1373 O 0.28161 0.15018 0.66922 0.0
O1374 O 0.32293 0.18623 0.65379 0.0
C1375 C 0.30057 0.09893 0.65906 0.0
O1376 O 0.28812 0.11223 0.71174 0.0
O1377 O 0.28343 0.15468 0.71216 0.0
O1378 O 0.34453 0.20174 0.69735 0.0
O1379 O 0.3842 0.20853 0.67862 0.0
O1380 O 0.37864 0.14857 0.67533 0.0
O1381 O 0.36072 0.15445 0.70308 0.0
C1382 C 0.29248 0.17127 0.65708 0.0
O1383 O 0.38514 0.20387 0.64058 0.0
O1384 O 0.37416 0.15482 0.63529 0.0
C1385 C 0.28503 0.13401 0.74038 0.0
C1386 C 0.30073 0.14057 0.77835 0.0
C1387 C 0.27489 0.11171 0.76975 0.0
C1388 C 0.26701 0.10852 0.75087 0.0
C1389 C 0.31091 0.16289 0.749 0.0
C1390 C 0.31857 0.1662 0.76789 0.0
C1391 C 0.27798 0.12938 0.7204 0.0
H1392 H 0.39693 0.21096 0.56983 0.0
H1393 H 0.41857 0.2089 0.59973 0.0
H1394 H 0.32238 0.15326 0.61588 0.0
H1395 H 0.3001 0.15479 0.58623 0.0
H1396 H 0.26104 0.09167 0.77764 0.0
H1397 H 0.2472 0.08596 0.74439 0.0
H1398 H 0.32548 0.18268 0.74111 0.0
H1399 H 0.3387 0.18855 0.77434 0.0
Tb1400 Tb 0.85614 0.16524 0.69679 0.0
Eu1401 Eu 0.82867 0.18069 0.6583 0.0
C1402 C 0.81749 0.11056 0.66488 0.0
C1403 C 0.89756 0.18382 0.6627 0.0
C1404 C 0.85702 0.15033 0.74513 0.0
C1405 C 0.84919 0.12989 0.77506 0.0
C1406 C 0.86508 0.13621 0.75899 0.0
C1407 C 0.83365 0.15908 0.74785 0.0
C1408 C 0.81779 0.15278 0.76382 0.0
C1409 C 0.82345 0.136 0.77742 0.0
C1410 C 0.87361 0.15701 0.72817 0.0
O1411 O 0.88242 0.21659 0.69438 0.0
O1412 O 0.84179 0.22103 0.67999 0.0
O1413 O 0.78576 0.16107 0.6749 0.0
O1414 O 0.81172 0.16454 0.70305 0.0
C1415 C 0.86835 0.23322 0.69095 0.0
O1416 O 0.83628 0.21576 0.63873 0.0
O1417 O 0.79571 0.16708 0.63356 0.0
O1418 O 0.82375 0.13191 0.65306 0.0
O1419 O 0.82304 0.11832 0.68264 0.0
O1420 O 0.88945 0.16674 0.67696 0.0
O1421 O 0.88099 0.19657 0.6562 0.0
C1422 C 0.78582 0.15879 0.69267 0.0
O1423 O 0.86025 0.13441 0.71466 0.0
O1424 O 0.8822 0.18503 0.72253 0.0
C1425 C 0.82356 0.19257 0.60814 0.0
C1426 C 0.84518 0.19086 0.5733 0.0
C1427 C 0.84699 0.21909 0.5811 0.0
C1428 C 0.83608 0.21985 0.59834 0.0
C1429 C 0.8223 0.1645 0.60043 0.0
C1430 C 0.83285 0.16363 0.58312 0.0
C1431 C 0.81365 0.19431 0.62672 0.0
H1432 H 0.85843 0.12127 0.78564 0.0
H1433 H 0.88413 0.13058 0.75757 0.0
H1434 H 0.82801 0.17149 0.73777 0.0
H1435 H 0.80188 0.16234 0.76543 0.0
H1436 H 0.85657 0.24037 0.57374 0.0
H1437 H 0.83765 0.24185 0.60409 0.0
H1438 H 0.81334 0.14325 0.60779 0.0
H1439 H 0.83142 0.14169 0.57736 0.0
C1440 C 0.39263 0.9036 0.05777 0.0
C1441 C 0.36239 0.90029 0.05202 0.0
C1442 C 0.38437 0.92673 0.02433 0.0
C1443 C 0.41554 0.93351 0.03123 0.0
N1444 N 0.45024 0.93134 0.05557 0.0
N1445 N 0.32987 0.91173 0.03106 0.0
C1446 C 0.4199 0.92272 0.04824 0.0
C1447 C 0.35826 0.91243 0.03553 0.0
N1448 N 0.39508 0.88757 0.072 0.0
N1449 N 0.37978 0.93432 1.0072 0.0
H1450 H 0.31036 0.90178 0.03901 0.0
H1451 H 0.32646 0.92331 0.02037 0.0
H1452 H 0.39845 0.94591 0.99887 0.0
H1453 H 0.35711 0.92697 1.00063 0.0
H1454 H 0.41558 0.8861 0.07552 0.0
H1455 H 0.37564 0.87323 0.07931 0.0
H1456 H 0.45534 0.92815 0.069 0.0
H1457 H 0.47083 0.94342 0.04865 0.0
C1458 C 0.12118 0.49284 0.05621 0.0
C1459 C 0.11752 0.46178 0.0536 0.0
C1460 C 0.06676 0.44248 0.03439 0.0
C1461 C 0.07214 0.47432 0.03554 0.0
N1462 N 0.10696 0.53085 0.04497 0.0
N1463 N 0.08905 0.40763 0.03891 0.0
C1464 C 0.09994 0.49979 0.04585 0.0
C1465 C 0.09086 0.43671 0.04235 0.0
N1466 N 0.1448 0.51559 0.06874 0.0
N1467 N 0.03815 0.41761 0.02624 0.0
H1468 H 0.1056 0.40215 0.04504 0.0
H1469 H 0.07242 0.38964 0.02912 0.0
H1470 H 0.02003 0.42091 0.02015 0.0
H1471 H 0.03124 0.39349 0.02673 0.0
H1472 H 0.14652 0.53752 0.07274 0.0
H1473 H 0.16116 0.5115 0.07634 0.0
H1474 H 0.12848 0.55079 0.05066 0.0
H1475 H 0.09251 0.53689 0.03705 0.0
C1476 C 0.54723 0.63122 0.06058 0.0
C1477 C 0.56818 0.65865 0.05175 0.0
C1478 C 0.56813 0.62388 0.02609 0.0
C1479 C 0.54859 0.59667 0.03538 0.0
N1480 N 0.52661 0.5746 0.06339 0.0
N1481 N 0.60536 0.68135 0.0287 0.0
C1482 C 0.54062 0.60041 0.05332 0.0
C1483 C 0.58079 0.65505 0.03528 0.0
N1484 N 0.53193 0.63421 0.07513 0.0
N1485 N 0.57409 0.62 1.00839 0.0
H1486 H 0.61577 0.70446 0.03541 0.0
H1487 H 0.61753 0.67984 0.01769 0.0
H1488 H 0.56583 0.59748 1.00135 0.0
H1489 H 0.58521 0.63899 1.00029 0.0
H1490 H 0.51373 0.61454 0.08072 0.0
H1491 H 0.5351 0.65616 0.08057 0.0
H1492 H 0.5233 0.57667 0.07721 0.0
H1493 H 0.5207 0.55144 0.05837 0.0
C1494 C 0.92945 0.3507 0.96406 0.0
C1495 C 0.8986 0.33484 0.97088 0.0
C1496 C 0.91541 0.38014 0.9937 0.0
C1497 C 0.94378 0.39872 0.98487 0.0
N1498 N 0.97946 0.40061 0.9622 0.0
N1499 N 0.87979 0.32641 1.00096 0.0
C1500 C 0.95133 0.38377 0.97014 0.0
C1501 C 0.89644 0.34695 0.98841 0.0
N1502 N 0.94012 0.33288 0.95489 0.0
N1503 N 0.90544 0.39404 1.00657 0.0
H1504 H 0.86959 0.30155 0.99826 0.0
H1505 H 0.87992 0.33434 0.01451 0.0
H1506 H 0.9168 0.41882 0.00992 0.0
H1507 H 0.88357 0.38097 0.01228 0.0
H1508 H 0.96337 0.3424 0.95081 0.0
H1509 H 0.9273 0.30779 0.95408 0.0
H1510 H 0.98403 0.39217 0.94998 0.0
H1511 H 0.9977 0.42352 0.96739 0.0
C1512 C 0.64707 0.55593 0.97714 0.0
C1513 C 0.64753 0.52959 0.96775 0.0
C1514 C 0.59672 0.49188 0.97994 0.0
C1515 C 0.59478 0.51827 0.988 0.0
N1516 N 0.61678 0.57551 0.99366 0.0
N1517 N 0.6208 0.47303 0.95771 0.0
C1518 C 0.61956 0.55035 0.98634 0.0
C1519 C 0.62177 0.49769 0.96847 0.0
N1520 N 0.67356 0.5861 0.97791 0.0
N1521 N 0.57493 0.46127 0.98346 0.0
H1522 H 0.63864 0.47648 0.94908 0.0
H1523 H 0.60105 0.44974 0.95606 0.0
H1524 H 0.55604 0.45602 0.99159 0.0
H1525 H 0.57696 0.44128 0.97957 0.0
H1526 H 0.67642 0.60574 0.98623 0.0
H1527 H 0.6939 0.59123 0.9711 0.0
H1528 H 0.63152 0.59925 0.99092 0.0
H1529 H 0.59869 0.57246 1.00199 0.0
C1530 C 0.42066 0.06332 0.97989 0.0
C1531 C 0.44128 0.08988 0.97043 0.0
C1532 C 0.48838 0.08747 0.98274 0.0
C1533 C 0.46738 0.05868 0.99037 0.0
N1534 N 0.41372 0.018 0.99599 0.0
N1535 N 0.494 0.12519 0.96078 0.0
C1536 C 0.43353 0.04628 0.98891 0.0
C1537 C 0.475 0.10155 0.97137 0.0
N1538 N 0.38905 0.05504 0.98068 0.0
N1539 N 0.52106 0.10148 0.98649 0.0
H1540 H 0.48511 0.13614 0.95225 0.0
H1541 H 0.518 0.13216 0.95926 0.0
H1542 H 0.5317 0.09164 0.99464 0.0
H1543 H 0.53755 0.12415 0.98286 0.0
H1544 H 0.37355 0.0381 0.98891 0.0
H1545 H 0.37879 0.06685 0.97408 0.0
H1546 H 0.38868 0.00546 0.99342 0.0
H1547 H 0.4225 0.0062 1.00388 0.0
C1548 C 0.60314 0.09206 0.95811 0.0
C1549 C 0.63437 0.09718 0.96321 0.0
C1550 C 0.61577 0.07217 0.99175 0.0
C1551 C 0.58385 0.06395 0.98563 0.0
N1552 N 0.54604 0.06217 0.96187 0.0
N1553 N 0.6699 0.08866 0.98359 0.0
C1554 C 0.57723 0.07283 0.96849 0.0
C1555 C 0.64065 0.08651 0.97977 0.0
N1556 N 0.59846 0.10647 0.94367 0.0
N1557 N 0.62222 0.06593 1.00891 0.0
H1558 H 0.68853 0.09854 0.97504 0.0
H1559 H 0.67493 0.07829 0.9944 0.0
H1560 H 0.60436 0.05438 0.01774 0.0
H1561 H 0.64547 0.07428 0.01494 0.0
H1562 H 0.57709 0.10654 0.94051 0.0
H1563 H 0.61687 0.12084 0.93574 0.0
H1564 H 0.53944 0.06441 0.94854 0.0
H1565 H 0.52635 0.04919 0.96931 0.0
C1566 C 0.9257 0.55258 0.9718 0.0
C1567 C 0.89889 0.5284 0.96021 0.0
C1568 C 0.91182 0.48769 0.96963 0.0
C1569 C 0.93756 0.51157 0.98197 0.0
N1570 N 0.96566 0.56523 0.99732 0.0
N1571 N 0.86352 0.47245 0.94963 0.0
C1572 C 0.94363 0.54366 0.98372 0.0
C1573 C 0.89107 0.49577 0.95961 0.0
N1574 N 0.93421 0.58414 0.97124 0.0
N1575 N 0.90808 0.45766 0.96685 0.0
H1576 H 0.84859 0.47755 0.94138 0.0
H1577 H 0.85427 0.44792 0.95038 0.0
H1578 H 0.92221 0.45052 0.97418 0.0
H1579 H 0.89244 0.4404 0.95645 0.0
H1580 H 0.95558 0.60326 0.9777 0.0
H1581 H 0.92094 0.5915 0.96321 0.0
H1582 H 0.96906 0.58809 1.00058 0.0
H1583 H 0.97867 0.5593 1.00656 0.0
C1584 C 0.43366 0.35207 0.98695 0.0
C1585 C 0.44898 0.34561 0.97266 0.0
C1586 C 0.4848 0.4033 0.971 0.0
C1587 C 0.47207 0.40965 0.98672 0.0
N1588 N 0.43616 0.3904 0.01073 0.0
N1589 N 0.49211 0.3643 0.95279 0.0
C1590 C 0.44705 0.3841 0.99505 0.0
C1591 C 0.47525 0.37101 0.96505 0.0
N1592 N 0.40568 0.3277 0.99231 0.0
N1593 N 0.50598 0.42802 0.96174 0.0
H1594 H 0.48604 0.34093 0.94813 0.0
H1595 H 0.51377 0.38177 0.94842 0.0
H1596 H 0.51511 0.45219 0.96611 0.0
H1597 H 0.51292 0.42455 0.94899 0.0
H1598 H 0.39142 0.33134 1.00125 0.0
H1599 H 0.39509 0.30394 0.98658 0.0
H1600 H 0.42086 0.37261 0.01864 0.0
H1601 H 0.44387 0.4136 0.01657 0.0
C1602 C 0.10404 0.62064 0.05839 0.0
C1603 C 0.10882 0.64756 0.04916 0.0
C1604 C 0.0692 0.61157 0.02403 0.0
C1605 C 0.06304 0.58488 0.03385 0.0
N1606 N 0.06877 0.56441 0.06222 0.0
N1607 N 0.09105 0.66922 0.02534 0.0
C1608 C 0.0785 0.58956 0.05166 0.0
C1609 C 0.08994 0.6432 0.03257 0.0
N1610 N 0.12494 0.62446 0.07299 0.0
N1611 N 0.05548 0.60671 1.0065 0.0
H1612 H 0.10549 0.69269 0.03145 0.0
H1613 H 0.07551 0.66734 0.0143 0.0
H1614 H 0.03902 0.58394 1.00007 0.0
H1615 H 0.06195 0.62504 0.99792 0.0
H1616 H 0.1247 0.60522 0.07891 0.0
H1617 H 0.14453 0.64671 0.07813 0.0
H1618 H 0.07685 0.56722 0.07601 0.0
H1619 H 0.05056 0.54111 0.05767 0.0
C1620 C 0.39818 0.49796 0.05849 0.0
C1621 C 0.37244 0.46557 0.05686 0.0
C1622 C 0.39617 0.4523 0.03126 0.0
C1623 C 0.42332 0.48389 0.03396 0.0
N1624 N 0.45082 0.53713 0.04976 0.0
N1625 N 0.34757 0.41107 0.043 0.0
C1626 C 0.42443 0.50684 0.04747 0.0
C1627 C 0.37156 0.44252 0.04354 0.0
N1628 N 0.39704 0.52034 0.07029 0.0
N1629 N 0.39383 0.4318 0.01681 0.0
H1630 H 0.32887 0.40321 0.05155 0.0
H1631 H 0.34721 0.39229 0.03506 0.0
H1632 H 0.41146 0.43814 1.00765 0.0
H1633 H 0.37343 0.40947 0.01294 0.0
H1634 H 0.41304 0.54497 0.07087 0.0
H1635 H 0.37883 0.5145 0.07903 0.0
H1636 H 0.45557 0.55395 0.06075 0.0
H1637 H 0.46875 0.54528 0.04072 0.0
C1638 C 0.52128 0.89279 0.04668 0.0
C1639 C 0.55484 0.90375 0.04813 0.0
C1640 C 0.56456 0.94725 0.02911 0.0
C1641 C 0.53094 0.93628 0.02768 0.0
N1642 N 0.47645 0.89422 0.03099 0.0
N1643 N 0.60762 0.93672 0.03804 0.0
C1644 C 0.50899 0.90753 0.03507 0.0
C1645 C 0.57628 0.9296 0.0385 0.0
N1646 N 0.50139 0.86931 0.05708 0.0
N1647 N 0.58524 0.97475 0.02161 0.0
H1648 H 0.617 0.9244 0.04493 0.0
H1649 H 0.62376 0.95313 0.02981 0.0
H1650 H 0.57728 0.98663 0.01321 0.0
H1651 H 0.61026 0.98648 0.02416 0.0
H1652 H 0.47751 0.86308 0.05839 0.0
H1653 H 0.50938 0.85762 0.06562 0.0
H1654 H 0.45947 0.87154 0.03439 0.0
H1655 H 0.46631 0.90451 0.02288 0.0
C1656 C 0.03203 0.25459 0.37283 0.0
C1657 C 0.03473 0.23547 0.38603 0.0
C1658 C 0.08653 0.24616 0.37552 0.0
C1659 C 0.08573 0.26837 0.36392 0.0
N1660 N 0.05954 0.29678 0.35296 0.0
N1661 N 0.06523 0.21469 0.40121 0.0
C1662 C 0.05879 0.27315 0.36276 0.0
C1663 C 0.06216 0.23164 0.3877 0.0
N1664 N 0.00379 0.25483 0.36984 0.0
N1665 N 0.11027 0.23843 0.37449 0.0
H1666 H 0.04743 0.20293 0.41005 0.0
H1667 H 0.08628 0.21412 0.40455 0.0
H1668 H 0.12804 0.24816 0.3654 0.0
H1669 H 0.11071 0.22027 0.3813 0.0
H1670 H 0.99895 0.26519 0.35895 0.0
H1671 H 0.98411 0.24259 0.37745 0.0
H1672 H 0.04254 0.30415 0.35348 0.0
H1673 H 0.07842 0.31078 0.34525 0.0
C1674 C 0.7613 0.77596 0.37857 0.0
C1675 C 0.78824 0.80143 0.38946 0.0
C1676 C 0.76948 0.83869 0.38198 0.0
C1677 C 0.74145 0.81284 0.37203 0.0
N1678 N 0.70786 0.75596 0.36318 0.0
N1679 N 0.81539 0.85547 0.40428 0.0
C1680 C 0.73656 0.78118 0.37097 0.0
C1681 C 0.79147 0.83232 0.39204 0.0
N1682 N 0.75983 0.74705 0.3751 0.0
N1683 N 0.77597 0.86956 0.38102 0.0
H1684 H 0.83226 0.8518 0.41165 0.0
H1685 H 0.8169 0.8773 0.40827 0.0
H1686 H 0.76091 0.87517 0.37336 0.0
H1687 H 0.79757 0.88976 0.38639 0.0
H1688 H 0.74291 0.72876 0.36556 0.0
H1689 H 0.77695 0.74204 0.3809 0.0
H1690 H 0.70135 0.73195 0.36373 0.0
H1691 H 0.6893 0.75887 0.35737 0.0
C1692 C 0.25082 0.99522 0.35804 0.0
C1693 C 0.25379 0.00271 0.37727 0.0
C1694 C 0.23201 0.94641 0.38198 0.0
C1695 C 0.22306 0.93785 0.36292 0.0
N1696 N 0.22822 0.95422 0.33218 0.0
N1697 N 0.27436 0.98728 0.40299 0.0
C1698 C 0.23392 0.96232 0.35067 0.0
C1699 C 0.25226 0.97905 0.38834 0.0
N1700 N 0.26771 0.01938 0.34731 0.0
N1701 N 0.22072 0.92378 0.3942 0.0
H1702 H 0.29429 0.01052 0.40544 0.0
H1703 H 0.27552 0.97021 0.41062 0.0
H1704 H 0.20406 0.89961 0.39033 0.0
H1705 H 0.22558 0.92998 0.40833 0.0
H1706 H 0.26906 0.01578 0.33335 0.0
H1707 H 0.28342 0.04292 0.35305 0.0
H1708 H 0.23199 0.97066 0.32265 0.0
H1709 H 0.21872 0.93069 0.32632 0.0
C1710 C 0.59725 0.68733 0.30119 0.0
C1711 C 0.56666 0.67229 0.30835 0.0
C1712 C 0.58479 0.71837 0.33071 0.0
C1713 C 0.61293 0.73618 0.32154 0.0
N1714 N 0.6477 0.73648 0.2987 0.0
N1715 N 0.54919 0.6652 0.33874 0.0
C1716 C 0.61976 0.72038 0.30692 0.0
C1717 C 0.56531 0.68512 0.32584 0.0
N1718 N 0.6069 0.66877 0.29185 0.0
N1719 N 0.57551 0.73306 0.34352 0.0
H1720 H 0.53886 0.64028 0.33634 0.0
H1721 H 0.54993 0.67372 0.35226 0.0
H1722 H 0.5872 0.75793 0.34653 0.0
H1723 H 0.55386 0.72048 0.34951 0.0
H1724 H 0.62994 0.67758 0.28757 0.0
H1725 H 0.59322 0.64368 0.29087 0.0
H1726 H 0.65183 0.7274 0.28655 0.0
H1727 H 0.66623 0.75946 0.30356 0.0
C1728 C 0.29095 0.83861 0.30054 0.0
C1729 C 0.31743 0.87051 0.30111 0.0
C1730 C 0.28997 0.88986 0.3212 0.0
C1731 C 0.26287 0.85822 0.31992 0.0
N1732 N 0.23504 0.80352 0.30604 0.0
N1733 N 0.34102 0.92722 0.3099 0.0
C1734 C 0.2627 0.83283 0.30899 0.0
C1735 C 0.31654 0.89638 0.3108 0.0
N1736 N 0.29305 0.81372 0.29213 0.0
N1737 N 0.29072 0.91345 0.33288 0.0
H1738 H 0.3613 0.93278 0.30293 0.0
H1739 H 0.34036 0.9475 0.31492 0.0
H1740 H 0.27167 0.9096 0.34059 0.0
H1741 H 0.31096 0.93616 0.33603 0.0
H1742 H 0.27654 0.7896 0.2932 0.0
H1743 H 0.31244 0.81712 0.28484 0.0
H1744 H 0.23199 0.78502 0.29662 0.0
H1745 H 0.21401 0.79839 0.31205 0.0
C1746 C 0.0744 0.37945 0.30713 0.0
C1747 C 0.0866 0.41233 0.31303 0.0
C1748 C 0.12684 0.41185 0.33435 0.0
C1749 C 0.11929 0.38135 0.32597 0.0
N1750 N 0.08235 0.33347 0.30611 0.0
N1751 N 0.10165 0.44231 0.34272 0.0
C1752 C 0.0918 0.36417 0.31293 0.0
C1753 C 0.10656 0.42427 0.32972 0.0
N1754 N 0.04432 0.36218 0.298 0.0
N1755 N 0.15364 0.42962 0.34636 0.0
H1756 H 0.08139 0.44505 0.34141 0.0
H1757 H 0.11419 0.44948 0.35573 0.0
H1758 H 0.17036 0.42244 0.34962 0.0
H1759 H 0.16058 0.45297 0.35164 0.0
H1760 H 0.03238 0.33743 0.29456 0.0
H1761 H 0.0299 0.37247 0.29577 0.0
H1762 H 0.06536 0.3214 0.29489 0.0
H1763 H 0.09218 0.32027 0.31137 0.0
C1764 C 0.3007 0.42104 0.30811 0.0
C1765 C 0.29668 0.44106 0.29607 0.0
C1766 C 0.24474 0.4273 0.30782 0.0
C1767 C 0.24916 0.40783 0.32011 0.0
N1768 N 0.28357 0.39111 0.33478 0.0
N1769 N 0.26804 0.46762 0.28624 0.0
C1770 C 0.2779 0.40625 0.3211 0.0
C1771 C 0.26962 0.44554 0.29648 0.0
N1772 N 0.32589 0.41552 0.30677 0.0
N1773 N 0.2162 0.42727 0.30646 0.0
H1774 H 0.28526 0.48055 0.27733 0.0
H1775 H 0.2509 0.47469 0.28739 0.0
H1776 H 0.19825 0.41565 0.31522 0.0
H1777 H 0.2096 0.43745 0.29619 0.0
H1778 H 0.32827 0.39845 0.31368 0.0
H1779 H 0.34344 0.42641 0.29767 0.0
H1780 H 0.3053 0.39153 0.33745 0.0
H1781 H 0.26746 0.38051 0.34464 0.0
C1782 C 0.55982 0.83242 0.29471 0.0
C1783 C 0.56758 0.86499 0.29488 0.0
C1784 C 0.61327 0.88122 0.3179 0.0
C1785 C 0.60725 0.84915 0.31653 0.0
N1786 N 0.57746 0.79481 0.30201 0.0
N1787 N 0.60338 0.92108 0.30492 0.0
C1788 C 0.5811 0.82482 0.30458 0.0
C1789 C 0.59485 0.88961 0.30597 0.0
N1790 N 0.53183 0.8087 0.28529 0.0
N1791 N 0.63567 0.90334 0.33118 0.0
H1792 H 0.58983 0.92807 0.29687 0.0
H1793 H 0.62503 0.94039 0.31098 0.0
H1794 H 0.64903 0.89786 0.34044 0.0
H1795 H 0.63904 0.92625 0.33417 0.0
H1796 H 0.52275 0.78428 0.28639 0.0
H1797 H 0.51637 0.8134 0.27725 0.0
H1798 H 0.56139 0.77718 0.29188 0.0
H1799 H 0.59215 0.78809 0.30912 0.0
C1800 C 0.15544 0.70372 0.31815 0.0
C1801 C 0.1228 0.68296 0.31114 0.0
C1802 C 0.11156 0.72696 0.31658 0.0
C1803 C 0.14332 0.74659 0.3252 0.0
N1804 N 0.19355 0.75175 0.33745 0.0
N1805 N 0.06815 0.67276 0.30687 0.0
C1806 C 0.16462 0.73433 0.32706 0.0
C1807 C 0.10034 0.694 0.31121 0.0
N1808 N 0.17805 0.69485 0.3155 0.0
N1809 N 0.09221 0.73982 0.31339 0.0
H1810 H 0.05893 0.6483 0.30323 0.0
H1811 H 0.0503 0.67875 0.30849 0.0
H1812 H 0.09918 0.76359 0.31767 0.0
H1813 H 0.07021 0.72763 0.30536 0.0
H1814 H 0.20275 0.71046 0.31856 0.0
H1815 H 0.17254 0.67299 0.30854 0.0
H1816 H 0.20843 0.74247 0.34086 0.0
H1817 H 0.20148 0.77455 0.34398 0.0
C1818 C 0.77379 0.95784 0.39381 0.0
C1819 C 0.77972 0.98492 0.38441 0.0
C1820 C 0.73979 0.94946 0.35927 0.0
C1821 C 0.73252 0.92269 0.36926 0.0
N1822 N 0.73665 0.90217 0.39791 0.0
N1823 N 0.7634 0.00731 0.36033 0.0
C1824 C 0.7475 0.92715 0.38718 0.0
C1825 C 0.76124 0.98098 0.36773 0.0
N1826 N 0.79433 0.96104 0.40845 0.0
N1827 N 0.72644 0.94477 0.34166 0.0
H1828 H 0.77834 0.03074 0.3664 0.0
H1829 H 0.74822 0.00582 0.34919 0.0
H1830 H 0.70947 0.92213 0.33529 0.0
H1831 H 0.73369 0.96305 0.33299 0.0
H1832 H 0.79315 0.94148 0.41449 0.0
H1833 H 0.81453 0.98293 0.41347 0.0
H1834 H 0.74455 0.90499 0.41174 0.0
H1835 H 0.71775 0.87914 0.39348 0.0
C1836 C 0.07062 0.83353 0.39548 0.0
C1837 C 0.04299 0.80232 0.39229 0.0
C1838 C 0.06872 0.78822 0.3682 0.0
C1839 C 0.09516 0.82033 0.37027 0.0
N1840 N 0.11869 0.87509 0.38364 0.0
N1841 N 0.01336 0.75131 0.37398 0.0
C1842 C 0.09542 0.84341 0.38334 0.0
C1843 C 0.0413 0.7801 0.37811 0.0
N1844 N 0.07342 0.85356 0.4103 0.0
N1845 N 0.07053 0.76497 0.35762 0.0
H1846 H 0.99324 0.74397 0.38138 0.0
H1847 H 0.00928 0.73573 0.36243 0.0
H1848 H 0.09041 0.76962 0.35051 0.0
H1849 H 0.05366 0.74054 0.35719 0.0
H1850 H 0.09455 0.87509 0.41461 0.0
H1851 H 0.05542 0.84748 0.41921 0.0
H1852 H 0.11843 0.89357 0.39158 0.0
H1853 H 0.13666 0.88341 0.37462 0.0
C1854 C 0.23697 0.27983 0.38974 0.0
C1855 C 0.23697 0.25298 0.38098 0.0
C1856 C 0.21847 0.26456 0.35204 0.0
C1857 C 0.20978 0.28471 0.36225 0.0
N1858 N 0.20678 0.30685 0.39217 0.0
N1859 N 0.25205 0.24013 0.35238 0.0
C1860 C 0.2181 0.29123 0.38147 0.0
C1861 C 0.23426 0.25034 0.36151 0.0
N1862 N 0.25802 0.29694 0.4047 0.0
N1863 N 0.21231 0.2594 0.33342 0.0
H1864 H 0.26951 0.2368 0.35937 0.0
H1865 H 0.2534 0.23997 0.33827 0.0
H1866 H 0.20372 0.2716 0.3258 0.0
H1867 H 0.2144 0.24186 0.32564 0.0
H1868 H 0.26044 0.31834 0.41062 0.0
H1869 H 0.27549 0.29158 0.40953 0.0
H1870 H 0.2112 0.31013 0.40643 0.0
H1871 H 0.18993 0.31279 0.38713 0.0
C1872 C 0.69881 0.59966 0.71059 0.0
C1873 C 0.69271 0.56955 0.71616 0.0
C1874 C 0.7358 0.57246 0.69829 0.0
C1875 C 0.745 0.6045 0.69518 0.0
N1876 N 0.73681 0.64986 0.69914 0.0
N1877 N 0.70821 0.52901 0.71736 0.0
C1878 C 0.72685 0.61843 0.70149 0.0
C1879 C 0.71181 0.55624 0.71045 0.0
N1880 N 0.67726 0.60983 0.71346 0.0
N1881 N 0.74983 0.55748 0.68952 0.0
H1882 H 0.69151 0.51682 0.72667 0.0
H1883 H 0.72378 0.52019 0.71521 0.0
H1884 H 0.76729 0.56878 0.68042 0.0
H1885 H 0.74207 0.53314 0.6899 0.0
H1886 H 0.67867 0.62996 0.70807 0.0
H1887 H 0.65621 0.59651 0.71984 0.0
H1888 H 0.72707 0.6626 0.70542 0.0
H1889 H 0.75615 0.66379 0.69167 0.0
C1890 C 0.45828 0.16471 0.71923 0.0
C1891 C 0.45107 0.13277 0.72132 0.0
C1892 C 0.39607 0.11213 0.70702 0.0
C1893 C 0.40458 0.14375 0.70306 0.0
N1894 N 0.44498 0.19974 0.70321 0.0
N1895 N 0.41463 0.0756 0.71525 0.0
C1896 C 0.43603 0.16996 0.70857 0.0
C1897 C 0.42028 0.1063 0.71478 0.0
N1898 N 0.48605 0.19004 0.72788 0.0
N1899 N 0.36476 0.08772 0.70355 0.0
H1900 H 0.43166 0.07032 0.72087 0.0
H1901 H 0.39403 0.05545 0.70883 0.0
H1902 H 0.34658 0.0909 0.69742 0.0
H1903 H 0.35626 0.06497 0.708 0.0
H1904 H 0.49111 0.21377 0.7285 0.0
H1905 H 0.50276 0.18708 0.73594 0.0
H1906 H 0.46857 0.21903 0.70508 0.0
H1907 H 0.42929 0.20456 0.69555 0.0
C1908 C 0.91815 0.32437 0.69742 0.0
C1909 C 0.90651 0.33043 0.7137 0.0
C1910 C 0.87626 0.27275 0.71692 0.0
C1911 C 0.88333 0.26663 0.69918 0.0
N1912 N 0.90964 0.28607 0.6718 0.0
N1913 N 0.8696 0.30975 0.73723 0.0
C1914 C 0.90395 0.2923 0.68919 0.0
C1915 C 0.88441 0.30448 0.72311 0.0
N1916 N 0.94338 0.34912 0.6902 0.0
N1917 N 0.86212 0.2484 0.72795 0.0
H1918 H 0.8736 0.33244 0.74178 0.0
H1919 H 0.85085 0.29116 0.7432 0.0
H1920 H 0.85586 0.22478 0.72383 0.0
H1921 H 0.85935 0.25223 0.74169 0.0
H1922 H 0.95486 0.34578 0.67933 0.0
H1923 H 0.95492 0.37278 0.69621 0.0
H1924 H 0.92153 0.30391 0.66309 0.0
H1925 H 0.90064 0.26278 0.66563 0.0
C1926 C 0.23077 0.01346 0.65494 0.0
C1927 C 0.23235 0.00139 0.63727 0.0
C1928 C 0.28442 0.05091 0.63592 0.0
C1929 C 0.27726 0.06562 0.65097 0.0
N1930 N 0.23941 0.06037 0.67313 0.0
N1931 N 0.27343 0.00029 0.62039 0.0
C1932 C 0.24937 0.04672 0.6601 0.0
C1933 C 0.26276 0.01772 0.62997 0.0
N1934 N 0.21519 0.99293 0.66771 0.0
N1935 N 0.31196 0.06812 0.62753 0.0
H1936 H 0.26099 0.97519 0.61956 0.0
H1937 H 0.29645 0.01015 0.61593 0.0
H1938 H 0.33007 0.09121 0.63251 0.0
H1939 H 0.3161 0.05981 0.61512 0.0
H1940 H 0.21582 0.00094 0.68132 0.0
H1941 H 0.20546 0.96812 0.66508 0.0
H1942 H 0.21791 0.04698 0.67912 0.0
H1943 H 0.25024 0.08515 0.67628 0.0
C1944 C 0.95016 0.18022 0.62626 0.0
C1945 C 0.98158 0.20208 0.63474 0.0
C1946 C 0.95793 0.20946 0.66231 0.0
C1947 C 0.92649 0.18937 0.65331 0.0
N1948 N 0.89292 0.16124 0.62514 0.0
N1949 N 0.01521 0.2428 0.65917 0.0
C1950 C 0.92269 0.17659 0.63478 0.0
C1951 C 0.98541 0.21815 0.65234 0.0
N1952 N 0.94639 0.16164 0.61051 0.0
N1953 N 0.96161 0.22057 0.68033 0.0
H1954 H 0.03566 0.25049 0.65203 0.0
H1955 H 0.01917 0.25769 0.67103 0.0
H1956 H 0.94225 0.21652 0.68781 0.0
H1957 H 0.98375 0.23205 0.68823 0.0
H1958 H 0.9241 0.14272 0.60485 0.0
H1959 H 0.96575 0.16306 0.60394 0.0
H1960 H 0.88949 0.15521 0.61102 0.0
H1961 H 0.87178 0.15652 0.63088 0.0
C1962 C 0.75327 0.72615 0.64193 0.0
C1963 C 0.775 0.75838 0.63858 0.0
C1964 C 0.81825 0.75744 0.65725 0.0
C1965 C 0.79803 0.72395 0.65795 0.0
N1966 N 0.7468 0.67536 0.64998 0.0
N1967 N 0.82977 0.80315 0.64051 0.0
C1968 C 0.76563 0.70796 0.65002 0.0
C1969 C 0.80793 0.77376 0.64567 0.0
N1970 N 0.72078 0.71333 0.63796 0.0
N1971 N 0.84723 0.77366 0.66766 0.0
H1972 H 0.82357 0.81548 0.63143 0.0
H1973 H 0.85459 0.81383 0.64379 0.0
H1974 H 0.85556 0.76233 0.67626 0.0
H1975 H 0.86154 0.79865 0.669 0.0
H1976 H 0.70358 0.69106 0.64176 0.0
H1977 H 0.71077 0.72623 0.63244 0.0
H1978 H 0.72434 0.66192 0.6425 0.0
H1979 H 0.75449 0.66142 0.65657 0.0
C1980 C 0.93903 0.76305 0.62768 0.0
C1981 C 0.96823 0.76257 0.6307 0.0
C1982 C 0.94743 0.73058 0.65682 0.0
C1983 C 0.91869 0.73202 0.65418 0.0
N1984 N 0.88858 0.75313 0.639 0.0
N1985 N 1.00235 0.74953 0.64919 0.0
C1986 C 0.91501 0.74942 0.64019 0.0
C1987 C 0.97308 0.74747 0.64564 0.0
N1988 N 0.93399 0.77591 0.61258 0.0
N1989 N 0.94971 0.7122 0.66969 0.0
H1990 H 0.02107 0.76011 0.64075 0.0
H1991 H 0.00888 0.74237 0.661 0.0
H1992 H 0.93223 0.70116 0.67882 0.0
H1993 H 0.968 0.70659 0.67085 0.0
H1994 H 0.91185 0.77353 0.60824 0.0
H1995 H 0.95149 0.78733 0.60353 0.0
H1996 H 0.88571 0.76819 0.63046 0.0
H1997 H 0.87043 0.74299 0.64775 0.0
C1998 C 0.25332 0.21867 0.64111 0.0
C1999 C 0.23203 0.19773 0.62602 0.0
C2000 C 0.2505 0.15933 0.63118 0.0
C2001 C 0.27026 0.17932 0.64696 0.0
N2002 N 0.28737 0.22554 0.66863 0.0
N2003 N 0.2068 0.14641 0.60797 0.0
C2004 C 0.27079 0.20834 0.6524 0.0
C2005 C 0.22967 0.16758 0.62139 0.0
N2006 N 0.25745 0.24879 0.64432 0.0
N2007 N 0.25231 0.13292 0.62524 0.0
H2008 H 0.19158 0.15184 0.60025 0.0
H2009 H 0.20126 0.12267 0.60531 0.0
H2010 H 0.26596 0.1252 0.63252 0.0
H2011 H 0.24194 0.11978 0.61257 0.0
H2012 H 0.27509 0.26655 0.65382 0.0
H2013 H 0.24479 0.25701 0.63647 0.0
H2014 H 0.28616 0.24512 0.67439 0.0
H2015 H 0.30044 0.21867 0.67719 0.0
C2016 C 0.7611 0.02071 0.65253 0.0
C2017 C 0.78106 0.01304 0.64239 0.0
C2018 C 0.82502 0.06914 0.64711 0.0
C2019 C 0.80544 0.07666 0.65786 0.0
N2020 N 0.75738 0.05877 0.67379 0.0
N2021 N 0.83259 0.0281 0.63118 0.0
C2022 C 0.7742 0.05219 0.66147 0.0
C2023 C 0.81317 0.03681 0.6399 0.0
N2024 N 0.72935 0.99801 0.65324 0.0
N2025 N 0.85524 0.09291 0.6441 0.0
H2026 H 0.8244 0.00488 0.62516 0.0
H2027 H 0.85725 0.04321 0.63059 0.0
H2028 H 0.8664 0.11575 0.65112 0.0
H2029 H 0.86916 0.09045 0.63443 0.0
H2030 H 0.71245 0.00298 0.65857 0.0
H2031 H 0.71914 0.9745 0.64715 0.0
H2032 H 0.73612 0.04128 0.67851 0.0
H2033 H 0.76596 0.08146 0.68059 0.0
C2034 C 0.44001 0.28849 0.72289 0.0
C2035 C 0.44041 0.31517 0.71538 0.0
C2036 C 0.39616 0.2787 0.69238 0.0
C2037 C 0.39462 0.2521 0.70059 0.0
N2038 N 0.40959 0.23144 0.72614 0.0
N2039 N 0.41502 0.33591 0.6955 0.0
C2040 C 0.41481 0.25693 0.71665 0.0
C2041 C 0.41731 0.31035 0.70084 0.0
N2042 N 0.46451 0.29319 0.73535 0.0
N2043 N 0.37784 0.27374 0.67633 0.0
H2044 H 0.42996 0.35937 0.70152 0.0
H2045 H 0.39658 0.33358 0.68628 0.0
H2046 H 0.36123 0.25085 0.67011 0.0
H2047 H 0.38053 0.2922 0.66857 0.0
H2048 H 0.4674 0.2745 0.73968 0.0
H2049 H 0.48367 0.31592 0.74017 0.0
H2050 H 0.4215 0.23389 0.73891 0.0
H2051 H 0.39113 0.20803 0.72207 0.0
C2052 C 0.73236 0.16495 0.72771 0.0
C2053 C 0.70512 0.1334 0.72492 0.0
C2054 C 0.72739 0.12142 0.69812 0.0
C2055 C 0.7563 0.15162 0.70208 0.0
N2056 N 0.7855 0.2036 0.71928 0.0
N2057 N 0.67773 0.08031 0.70893 0.0
C2058 C 0.7585 0.17377 0.71655 0.0
C2059 C 0.70289 0.11133 0.71048 0.0
N2060 N 0.73267 0.18668 0.74069 0.0
N2061 N 0.72282 0.10269 0.68231 0.0
H2062 H 0.65913 0.07218 0.71755 0.0
H2063 H 0.67656 0.06194 0.70015 0.0
H2064 H 0.73975 0.1092 0.67274 0.0
H2065 H 0.70102 0.08208 0.67772 0.0
H2066 H 0.75014 0.21094 0.74251 0.0
H2067 H 0.71433 0.18077 0.74935 0.0
H2068 H 0.79116 0.21974 0.73078 0.0
H2069 H 0.80261 0.2123 0.70978 0.0
C2070 C 0.90912 0.59543 0.69981 0.0
C2071 C 0.89135 0.57394 0.71271 0.0
C2072 C 0.84726 0.585 0.70739 0.0
C2073 C 0.86455 0.60582 0.6941 0.0
N2074 N 0.9086 0.62643 0.67499 0.0
N2075 N 0.84105 0.54258 0.72589 0.0
C2076 C 0.89449 0.6096 0.68945 0.0
C2077 C 0.85957 0.56687 0.71555 0.0
N2078 N 0.9403 0.60306 0.69796 0.0
N2079 N 0.82006 0.58392 0.71299 0.0
H2080 H 0.84945 0.52907 0.73235 0.0
H2081 H 0.81654 0.53397 0.72681 0.0
H2082 H 0.81021 0.59671 0.70727 0.0
H2083 H 0.80859 0.57229 0.72419 0.0
H2084 H 0.9558 0.62121 0.69032 0.0
H2085 H 0.9515 0.59257 0.70507 0.0
H2086 H 0.92897 0.62777 0.6698 0.0
H2087 H 0.89826 0.63691 0.66711 0.0
C2088 C 0.50453 0.99248 0.16626 0.0
C2089 C 0.47599 0.96213 0.16636 0.0
C2090 C 0.46502 0.96109 0.13312 0.0
C2091 C 0.49521 0.98982 0.13279 0.0
N2092 N 0.54661 0.02933 0.14858 0.0
N2093 N 0.43203 0.91474 0.14935 0.0
C2094 C 0.5158 0.00452 0.14925 0.0
C2095 C 0.45704 0.94563 0.14962 0.0
N2096 N 0.52031 0.01045 0.18244 0.0
N2097 N 0.44345 0.94914 0.11787 0.0
H2098 H 0.42565 0.9025 0.16107 0.0
H2099 H 0.41952 0.90028 0.13731 0.0
H2100 H 0.44819 0.95989 0.1056 0.0
H2101 H 0.41979 0.93029 0.11783 0.0
H2102 H 0.5392 0.03417 0.18318 0.0
H2103 H 0.5126 0.00283 0.19519 0.0
H2104 H 0.56383 0.03873 0.15985 0.0
H2105 H 0.55598 0.03852 0.13639 0.0
C2106 C 0.98447 0.49403 0.16571 0.0
C2107 C 0.01573 0.49922 0.17088 0.0
C2108 C 0.02142 0.48656 0.13897 0.0
C2109 C 0.99208 0.48554 0.13355 0.0
N2110 N 0.9475 0.49242 0.14137 0.0
N2111 N 0.06588 0.50432 0.1624 0.0
C2112 C 0.97397 0.49023 0.14682 0.0
C2113 C 0.03471 0.49637 0.15752 0.0
N2114 N 0.9646 0.49209 0.17888 0.0
N2115 N 0.03618 0.47741 0.12647 0.0
H2116 H 0.07646 0.51145 0.17586 0.0
H2117 H 0.08207 0.50628 0.15294 0.0
H2118 H 0.02705 0.46995 0.11277 0.0
H2119 H 0.05577 0.47444 0.12998 0.0
H2120 H 0.94038 0.48508 0.17596 0.0
H2121 H 0.97146 0.49457 0.19286 0.0
H2122 H 0.93549 0.49941 0.15032 0.0
H2123 H 0.93905 0.48986 0.12765 0.0
C2124 C 0.47038 0.47443 0.16036 0.0
C2125 C 0.46199 0.49861 0.1633 0.0
C2126 C 0.47212 0.51254 0.13178 0.0
C2127 C 0.48009 0.48805 0.12872 0.0
N2128 N 0.47941 0.44078 0.13838 0.0
N2129 N 0.44706 0.53503 0.15092 0.0
C2130 C 0.47683 0.4674 0.1425 0.0
C2131 C 0.46024 0.51576 0.14865 0.0
N2132 N 0.47363 0.45926 0.17479 0.0
N2133 N 0.47752 0.53381 0.11898 0.0
H2134 H 0.43814 0.53777 0.16314 0.0
H2135 H 0.44217 0.54578 0.14026 0.0
H2136 H 0.48635 0.53247 0.10648 0.0
H2137 H 0.47565 0.55432 0.1213 0.0
H2138 H 0.48349 0.44431 0.17401 0.0
H2139 H 0.46831 0.46317 0.18796 0.0
H2140 H 0.47414 0.42305 0.14725 0.0
H2141 H 0.48404 0.43492 0.12542 0.0
C2142 C 0.97368 0.51 0.86443 0.0
C2143 C 0.99779 0.51852 0.85204 0.0
C2144 C 0.03919 0.54977 0.8773 0.0
C2145 C 0.01602 0.53373 0.88983 0.0
N2146 N 0.96285 0.52468 0.89408 0.0
N2147 N 0.05394 0.54941 0.84632 0.0
C2148 C 0.98328 0.52111 0.88324 0.0
C2149 C 0.03072 0.53958 0.85832 0.0
N2150 N 0.94177 0.49092 0.85842 0.0
N2151 N 0.06711 0.57753 0.88322 0.0
H2152 H 0.04857 0.54323 0.83221 0.0
H2153 H 0.07855 0.56206 0.85061 0.0
H2154 H 0.07122 0.588 0.89667 0.0
H2155 H 0.08368 0.59198 0.87443 0.0
H2156 H 0.92373 0.48161 0.86737 0.0
H2157 H 0.93365 0.48274 0.84466 0.0
H2158 H 0.93938 0.51849 0.88943 0.0
H2159 H 0.97122 0.53809 0.90686 0.0
C2160 C 0.5534 0.50936 0.86661 0.0
C2161 C 0.53364 0.50839 0.85124 0.0
C2162 C 0.50042 0.51905 0.87161 0.0
C2163 C 0.52088 0.52129 0.88699 0.0
N2164 N 0.57098 0.52602 0.89895 0.0
N2165 N 0.49374 0.52024 0.83876 0.0
C2166 C 0.54873 0.51879 0.88442 0.0
C2167 C 0.50889 0.51585 0.85366 0.0
N2168 N 0.57561 0.49987 0.86433 0.0
N2169 N 0.47199 0.51825 0.8741 0.0
H2170 H 0.4996 0.51834 0.82543 0.0
H2171 H 0.47775 0.52884 0.83976 0.0
H2172 H 0.46456 0.52007 0.88699 0.0
H2173 H 0.45443 0.51299 0.86343 0.0
H2174 H 0.58808 0.49648 0.8752 0.0
H2175 H 0.57999 0.49313 0.85153 0.0
H2176 H 0.5933 0.52776 0.89765 0.0
H2177 H 0.56841 0.53323 0.91213 0.0
C2178 C 0.55013 0.05439 0.87081 0.0
C2179 C 0.53169 0.03683 0.85414 0.0
C2180 C 0.49553 0.99193 0.87114 0.0
C2181 C 0.51491 0.00867 0.88771 0.0
N2182 N 0.56426 0.05299 0.90287 0.0
N2183 N 0.49169 0.98625 0.83794 0.0
C2184 C 0.54335 0.03909 0.88741 0.0
C2185 C 0.50591 0.00473 0.85418 0.0
N2186 N 0.57324 0.08605 0.87092 0.0
N2187 N 0.46639 0.96452 0.87164 0.0
H2188 H 0.49889 0.99474 0.82526 0.0
H2189 H 0.47504 0.9617 0.83707 0.0
H2190 H 0.45759 0.95452 0.88376 0.0
H2191 H 0.4496 0.95329 0.86025 0.0
H2192 H 0.58494 0.10116 0.88288 0.0
H2193 H 0.57916 0.09792 0.85906 0.0
H2194 H 0.58697 0.07345 0.90309 0.0
H2195 H 0.56011 0.04247 0.91522 0.0
C2196 C 0.14106 0.28177 0.485 0.0
C2197 C 0.14048 0.30073 0.50038 0.0
C2198 C 0.15444 0.3454 0.48127 0.0
C2199 C 0.15837 0.32766 0.46648 0.0
N2200 N 0.16087 0.28094 0.45535 0.0
N2201 N 0.15241 0.35267 0.51403 0.0
C2202 C 0.15316 0.29635 0.46864 0.0
C2203 C 0.14876 0.33314 0.49875 0.0
N2204 N 0.12902 0.24953 0.48578 0.0
N2205 N 0.15501 0.37347 0.47847 0.0
H2206 H 0.1489 0.3448 0.52709 0.0
H2207 H 0.1618 0.37737 0.51402 0.0
H2208 H 0.15871 0.38307 0.46586 0.0
H2209 H 0.14884 0.38566 0.48815 0.0
H2210 H 0.1256 0.23383 0.47442 0.0
H2211 H 0.11961 0.23789 0.4974 0.0
H2212 H 0.16091 0.25963 0.45699 0.0
H2213 H 0.1701 0.2909 0.44329 0.0
C2214 C 0.62982 0.83081 0.49943 0.0
C2215 C 0.64568 0.8157 0.50744 0.0
C2216 C 0.64265 0.78935 0.47741 0.0
C2217 C 0.63435 0.81042 0.46911 0.0
N2218 N 0.61793 0.85028 0.47212 0.0
N2219 N 0.63734 0.76203 0.50451 0.0
C2220 C 0.62682 0.83058 0.48008 0.0
C2221 C 0.64415 0.78947 0.49674 0.0
N2222 N 0.6146 0.84206 0.51022 0.0
N2223 N 0.64894 0.7691 0.46697 0.0
H2224 H 0.62987 0.75859 0.51771 0.0
H2225 H 0.63348 0.74119 0.497 0.0
H2226 H 0.64716 0.76751 0.45268 0.0
H2227 H 0.65801 0.75555 0.4727 0.0
H2228 H 0.60005 0.85071 0.50506 0.0
H2229 H 0.61355 0.83893 0.52418 0.0
H2230 H 0.6156 0.86792 0.47963 0.0
H2231 H 0.61509 0.85051 0.45796 0.0
C2232 C 0.14082 0.79581 0.49295 0.0
C2233 C 0.12642 0.81509 0.49567 0.0
C2234 C 0.11559 0.81176 0.46243 0.0
C2235 C 0.13782 0.80081 0.46003 0.0
N2236 N 0.14445 0.75839 0.47131 0.0
N2237 N 0.09705 0.83914 0.48285 0.0
C2238 C 0.14303 0.78571 0.47479 0.0
C2239 C 0.11245 0.82202 0.48036 0.0
N2240 N 0.15285 0.78754 0.50759 0.0
N2241 N 0.09453 0.80814 0.44805 0.0
H2242 H 0.09343 0.84624 0.49579 0.0
H2243 H 0.08961 0.84779 0.47205 0.0
H2244 H 0.09339 0.79615 0.43547 0.0
H2245 H 0.0759 0.81314 0.44929 0.0
H2246 H 0.16651 0.77631 0.50615 0.0
H2247 H 0.15071 0.79354 0.52113 0.0
H2248 H 0.14544 0.74473 0.48157 0.0
H2249 H 0.13963 0.74707 0.45803 0.0
C2250 C 0.64081 0.84622 0.20112 0.0
C2251 C 0.66389 0.85264 0.18826 0.0
C2252 C 0.70713 0.88398 0.21263 0.0
C2253 C 0.68459 0.86966 0.22572 0.0
N2254 N 0.6328 0.8635 0.23092 0.0
N2255 N 0.71958 0.88072 0.18136 0.0
C2256 C 0.65182 0.85823 0.21972 0.0
C2257 C 0.69728 0.87275 0.19384 0.0
N2258 N 0.60854 0.82813 0.19577 0.0
N2259 N 0.73589 0.9113 0.21781 0.0
H2260 H 0.71321 0.8738 0.16735 0.0
H2261 H 0.74435 0.89258 0.18517 0.0
H2262 H 0.74109 0.92276 0.23107 0.0
H2263 H 0.75216 0.92457 0.20856 0.0
H2264 H 0.59108 0.82026 0.2051 0.0
H2265 H 0.59942 0.81929 0.18218 0.0
H2266 H 0.60947 0.85826 0.22667 0.0
H2267 H 0.64228 0.87719 0.24357 0.0
C2268 C 0.17162 0.85004 0.18642 0.0
C2269 C 0.19578 0.84175 0.18397 0.0
C2270 C 0.20893 0.84899 0.21727 0.0
C2271 C 0.18148 0.85222 0.21973 0.0
N2272 N 0.13442 0.85248 0.20663 0.0
N2273 N 0.23602 0.83068 0.19697 0.0
C2274 C 0.16236 0.85219 0.2043 0.0
C2275 C 0.21434 0.84083 0.19937 0.0
N2276 N 0.15776 0.85614 0.17161 0.0
N2277 N 0.2301 0.85427 0.23204 0.0
H2278 H 0.241 0.82493 0.1841 0.0
H2279 H 0.24745 0.82584 0.20774 0.0
H2280 H 0.22694 0.86046 0.24531 0.0
H2281 H 0.25221 0.85544 0.23093 0.0
H2282 H 0.14229 0.86535 0.17267 0.0
H2283 H 0.16421 0.85495 0.15835 0.0
H2284 H 0.11765 0.8488 0.19582 0.0
H2285 H 0.12656 0.85377 0.21946 0.0
C2286 C 0.17528 0.33552 0.18702 0.0
C2287 C 0.20049 0.36773 0.18642 0.0
C2288 C 0.21343 0.37185 0.21966 0.0
C2289 C 0.18544 0.34131 0.22054 0.0
N2290 N 0.13688 0.296 0.20525 0.0
N2291 N 0.24164 0.41807 0.2024 0.0
C2292 C 0.16568 0.32355 0.20424 0.0
C2293 C 0.21923 0.38629 0.2028 0.0
N2294 N 0.16085 0.31617 0.17106 0.0
N2295 N 0.23485 0.38672 0.23484 0.0
H2296 H 0.2468 0.42941 0.19034 0.0
H2297 H 0.25342 0.4338 0.21414 0.0
H2298 H 0.23152 0.37678 0.24736 0.0
H2299 H 0.25724 0.40742 0.23462 0.0
H2300 H 0.14463 0.29157 0.17062 0.0
H2301 H 0.16751 0.32406 0.1582 0.0
H2302 H 0.11983 0.28402 0.19405 0.0
H2303 H 0.1286 0.28661 0.21758 0.0
C2304 C 0.80679 0.61042 0.81813 0.0
C2305 C 0.80643 0.62913 0.8337 0.0
C2306 C 0.82128 0.67461 0.81515 0.0
C2307 C 0.8248 0.65701 0.80014 0.0
N2308 N 0.82631 0.61005 0.78834 0.0
N2309 N 0.81894 0.6809 0.84795 0.0
C2310 C 0.81903 0.62539 0.80191 0.0
C2311 C 0.81522 0.66177 0.83246 0.0
N2312 N 0.79441 0.57807 0.81862 0.0
N2313 N 0.8226 0.70315 0.81273 0.0
H2314 H 0.81504 0.67253 0.86089 0.0
H2315 H 0.8287 0.70569 0.84825 0.0
H2316 H 0.82672 0.71324 0.80026 0.0
H2317 H 0.81673 0.71536 0.82257 0.0
H2318 H 0.79079 0.56256 0.80712 0.0
H2319 H 0.785 0.56619 0.83017 0.0
H2320 H 0.82595 0.58847 0.78968 0.0
H2321 H 0.83555 0.62027 0.77634 0.0
C2322 C 0.35128 0.15525 0.82311 0.0
C2323 C 0.33046 0.15577 0.836 0.0
C2324 C 0.28986 0.14625 0.81109 0.0
C2325 C 0.3099 0.14387 0.79828 0.0
N2326 N 0.35596 0.13838 0.79226 0.0
N2327 N 0.27738 0.14459 0.84271 0.0
C2328 C 0.33948 0.14594 0.80436 0.0
C2329 C 0.29888 0.14898 0.83011 0.0
N2330 N 0.38278 0.16514 0.8286 0.0
N2331 N 0.26301 0.14738 0.80512 0.0
H2332 H 0.28317 0.14613 0.85677 0.0
H2333 H 0.25305 0.13646 0.83917 0.0
H2334 H 0.25567 0.14569 0.79129 0.0
H2335 H 0.24952 0.15268 0.81385 0.0
H2336 H 0.39993 0.16871 0.81947 0.0
H2337 H 0.39259 0.17247 0.84219 0.0
H2338 H 0.37593 0.13629 0.79626 0.0
H2339 H 0.34786 0.13114 0.77842 0.0
C2340 C 0.81295 0.12905 0.82802 0.0
C2341 C 0.79559 0.14556 0.83031 0.0
C2342 C 0.78111 0.13688 0.79721 0.0
C2343 C 0.80578 0.12927 0.79481 0.0
N2344 N 0.81992 0.09252 0.80743 0.0
N2345 N 0.76064 0.16319 0.81693 0.0
C2346 C 0.8149 0.11786 0.81007 0.0
C2347 C 0.77847 0.14846 0.81488 0.0
N2348 N 0.82787 0.12434 0.84287 0.0
N2349 N 0.75772 0.12888 0.78328 0.0
H2350 H 0.75769 0.17159 0.82969 0.0
H2351 H 0.7506 0.16884 0.80583 0.0
H2352 H 0.75677 0.11604 0.77108 0.0
H2353 H 0.73747 0.13119 0.78478 0.0
H2354 H 0.84361 0.11544 0.84165 0.0
H2355 H 0.82585 0.13095 0.85631 0.0
H2356 H 0.82388 0.08126 0.81815 0.0
H2357 H 0.81524 0.08003 0.7945 0.0
C2358 C 0.34028 0.19433 0.52516 0.0
C2359 C 0.30695 0.17168 0.52096 0.0
C2360 C 0.29847 0.17666 0.55321 0.0
C2361 C 0.33224 0.19131 0.55768 0.0
N2362 N 0.37936 0.23594 0.5477 0.0
N2363 N 0.25319 0.14325 0.53086 0.0
C2364 C 0.35203 0.20677 0.54363 0.0
C2365 C 0.28557 0.16366 0.53492 0.0
N2366 N 0.36082 0.20362 0.51166 0.0
N2367 N 0.27969 0.17958 0.56563 0.0
H2368 H 0.24274 0.13378 0.51751 0.0
H2369 H 0.23721 0.13425 0.54093 0.0
H2370 H 0.28987 0.19362 0.57814 0.0
H2371 H 0.25532 0.17189 0.56259 0.0
H2372 H 0.38582 0.2176 0.51446 0.0
H2373 H 0.35303 0.1957 0.49785 0.0
H2374 H 0.39326 0.2498 0.53775 0.0
H2375 H 0.38525 0.24793 0.56086 0.0
C2376 C 0.84713 0.18771 0.52133 0.0
C2377 C 0.87118 0.17917 0.51925 0.0
C2378 C 0.88314 0.18607 0.55264 0.0
C2379 C 0.85563 0.18937 0.55469 0.0
N2380 N 0.80895 0.18965 0.5409 0.0
N2381 N 0.91093 0.16793 0.53278 0.0
C2382 C 0.83712 0.18957 0.53901 0.0
C2383 C 0.88918 0.17807 0.53487 0.0
N2384 N 0.83398 0.19416 0.50635 0.0
N2385 N 0.9037 0.19104 0.56766 0.0
H2386 H 0.91641 0.1624 0.52 0.0
H2387 H 0.92199 0.16296 0.54368 0.0
H2388 H 0.90007 0.19713 0.58085 0.0
H2389 H 0.92579 0.19202 0.56689 0.0
H2390 H 0.81862 0.20354 0.50719 0.0
H2391 H 0.84099 0.19315 0.49322 0.0
H2392 H 0.79266 0.18612 0.52985 0.0
H2393 H 0.80035 0.19045 0.55355 0.0
C2394 C 0.88847 0.72048 0.53719 0.0
C2395 C 0.86919 0.70297 0.52071 0.0
C2396 C 0.83279 0.65901 0.53816 0.0
C2397 C 0.85296 0.67564 0.55453 0.0
N2398 N 0.90357 0.71902 0.56906 0.0
N2399 N 0.82792 0.65254 0.50496 0.0
C2400 C 0.88195 0.70544 0.55386 0.0
C2401 C 0.84292 0.67123 0.52105 0.0
N2402 N 0.91209 0.7519 0.53707 0.0
N2403 N 0.80314 0.63241 0.53898 0.0
H2404 H 0.83496 0.6606 0.49218 0.0
H2405 H 0.81078 0.62816 0.50432 0.0
H2406 H 0.79437 0.62295 0.55122 0.0
H2407 H 0.78597 0.62147 0.52773 0.0
H2408 H 0.92448 0.76701 0.54894 0.0
H2409 H 0.91775 0.76364 0.52516 0.0
H2410 H 0.92654 0.73901 0.56898 0.0
H2411 H 0.89968 0.70859 0.58143 0.0
loop_
_geom_bond_atom_site_label_1
_geom_bond_atom_site_label_2
_geom_bond_distance
_geom_bond_site_symmetry_2
_ccdc_geom_bond_type
C0 C1 1.391 . S
C0 C4 1.391 . S
C0 H42 0.948 . S
C1 C0 1.391 . S
C1 C2 1.391 . S
C2 C1 1.391 . S
C2 H58 0.947 . S
C2 C59 1.392 . S
C3 C4 1.391 . S
C3 C7 1.397 . S
C3 C59 1.419 . S
C4 C0 1.391 . S
C4 C3 1.391 . S
C4 C5 1.399 . S
C5 C4 1.399 . S
C5 C8 1.396 . S
C5 C17 1.453 . S
C5 C18 1.684 . S
H6 C30 0.948 . S
C7 C3 1.397 . S
C7 C8 1.394 . S
C7 C26 1.723 . S
C8 C5 1.396 . S
C8 C7 1.394 . S
C8 C38 1.723 . S
H9 C32 0.947 . S
H10 C33 0.948 . S
H11 C39 0.982 . S
H12 C40 0.979 . S
H13 C40 0.980 . S
H14 C40 0.983 . S
H15 C39 0.979 . S
H16 C39 0.977 . S
C17 C5 1.453 . S
C17 H46 0.982 . S
C17 H47 0.979 . S
C17 H48 0.977 . S
C18 C5 1.684 . S
C18 H43 0.979 . S
C18 H44 0.980 . S
C18 H45 0.983 . S
C19 C20 1.391 . S
C19 C24 1.391 . S
C19 H49 0.948 . S
C20 C19 1.391 . S
C20 C21 1.391 . S
C21 C20 1.391 . S
C21 C22 1.392 . S
C21 H50 0.947 . S
C22 C21 1.392 . S
C22 C23 1.419 . S
C22 H51 0.948 . S
C23 C22 1.419 . S
C23 C24 1.391 . S
C23 C27 1.397 . S
C24 C19 1.391 . S
C24 C23 1.391 . S
C24 C25 1.399 . S
C25 C24 1.399 . S
C25 C26 1.396 . S
C25 C28 1.453 . S
C25 C29 1.684 . S
C26 C7 1.723 . S
C26 C25 1.396 . S
C26 C27 1.394 . S
C27 C23 1.397 . S
C27 C26 1.394 . S
C27 C37 1.723 . S
C28 C25 1.453 . S
C28 H52 0.982 . S
C28 H53 0.979 . S
C28 H54 0.977 . S
C29 C25 1.684 . S
C29 H55 0.979 . S
C29 H56 0.980 . S
C29 H57 0.983 . S
C30 H6 0.948 . S
C30 C31 1.391 . S
C30 C35 1.391 . S
C31 C30 1.391 . S
C31 C32 1.391 . S
C32 H9 0.947 . S
C32 C31 1.391 . S
C32 C33 1.392 . S
C33 H10 0.948 . S
C33 C32 1.392 . S
C33 C34 1.419 . S
C34 C33 1.419 . S
C34 C35 1.391 . S
C34 C38 1.397 . S
C35 C30 1.391 . S
C35 C34 1.391 . S
C35 C36 1.399 . S
C36 C35 1.399 . S
C36 C37 1.396 . S
C36 C39 1.453 . S
C36 C40 1.684 . S
C37 C27 1.723 . S
C37 C36 1.396 . S
C37 C38 1.394 . S
C38 C8 1.723 . S
C38 C34 1.397 . S
C38 C37 1.394 . S
C39 H11 0.982 . S
C39 H15 0.979 . S
C39 H16 0.977 . S
C39 C36 1.453 . S
C40 H12 0.979 . S
C40 H13 0.980 . S
C40 H14 0.983 . S
C40 C36 1.684 . S
H41 C59 0.948 . S
H42 C0 0.948 . S
H43 C18 0.979 . S
H44 C18 0.980 . S
H45 C18 0.983 . S
H46 C17 0.982 . S
H47 C17 0.979 . S
H48 C17 0.977 . S
H49 C19 0.948 . S
H50 C21 0.947 . S
H51 C22 0.948 . S
H52 C28 0.982 . S
H53 C28 0.979 . S
H54 C28 0.977 . S
H55 C29 0.979 . S
H56 C29 0.980 . S
H57 C29 0.983 . S
H58 C2 0.947 . S
C59 C2 1.392 . S
C59 C3 1.419 . S
C59 H41 0.948 . S
C60 C61 1.391 . S
C60 C64 1.391 . S
C60 H102 0.948 . S
C61 C60 1.391 . S
C61 C62 1.391 . S
C62 C61 1.391 . S
C62 H118 0.947 . S
C62 C119 1.392 . S
C63 C64 1.391 . S
C63 C67 1.397 . S
C63 C119 1.419 . S
C64 C60 1.391 . S
C64 C63 1.391 . S
C64 C65 1.399 . S
C65 C64 1.399 . S
C65 C68 1.396 . S
C65 C77 1.453 . S
C65 C78 1.684 . S
H66 C90 0.948 . S
C67 C63 1.397 . S
C67 C68 1.394 . S
C67 C86 1.723 . S
C68 C65 1.396 . S
C68 C67 1.394 . S
C68 C98 1.723 . S
H69 C92 0.947 . S
H70 C93 0.948 . S
H71 C99 0.982 . S
H72 C100 0.979 . S
H73 C100 0.980 . S
H74 C100 0.983 . S
H75 C99 0.979 . S
H76 C99 0.977 . S
C77 C65 1.453 . S
C77 H106 0.982 . S
C77 H107 0.979 . S
C77 H108 0.977 . S
C78 C65 1.684 . S
C78 H103 0.979 . S
C78 H104 0.980 . S
C78 H105 0.983 . S
C79 C80 1.391 . S
C79 C84 1.391 . S
C79 H109 0.948 . S
C80 C79 1.391 . S
C80 C81 1.391 . S
C81 C80 1.391 . S
C81 C82 1.392 . S
C81 H110 0.947 . S
C82 C81 1.392 . S
C82 C83 1.419 . S
C82 H111 0.948 . S
C83 C82 1.419 . S
C83 C84 1.391 . S
C83 C87 1.397 . S
C84 C79 1.391 . S
C84 C83 1.391 . S
C84 C85 1.399 . S
C85 C84 1.399 . S
C85 C86 1.396 . S
C85 C88 1.453 . S
C85 C89 1.684 . S
C86 C67 1.723 . S
C86 C85 1.396 . S
C86 C87 1.394 . S
C87 C83 1.397 . S
C87 C86 1.394 . S
C87 C97 1.723 . S
C88 C85 1.453 . S
C88 H112 0.982 . S
C88 H113 0.979 . S
C88 H114 0.977 . S
C89 C85 1.684 . S
C89 H115 0.979 . S
C89 H116 0.980 . S
C89 H117 0.983 . S
C90 H66 0.948 . S
C90 C91 1.391 . S
C90 C95 1.391 . S
C91 C90 1.391 . S
C91 C92 1.391 . S
C92 H69 0.947 . S
C92 C91 1.391 . S
C92 C93 1.392 . S
C93 H70 0.948 . S
C93 C92 1.392 . S
C93 C94 1.419 . S
C94 C93 1.419 . S
C94 C95 1.391 . S
C94 C98 1.397 . S
C95 C90 1.391 . S
C95 C94 1.391 . S
C95 C96 1.399 . S
C96 C95 1.399 . S
C96 C97 1.396 . S
C96 C99 1.453 . S
C96 C100 1.684 . S
C97 C87 1.723 . S
C97 C96 1.396 . S
C97 C98 1.394 . S
C98 C68 1.723 . S
C98 C94 1.397 . S
C98 C97 1.394 . S
C99 H71 0.982 . S
C99 H75 0.979 . S
C99 H76 0.977 . S
C99 C96 1.453 . S
C100 H72 0.979 . S
C100 H73 0.980 . S
C100 H74 0.983 . S
C100 C96 1.684 . S
H101 C119 0.948 . S
H102 C60 0.948 . S
H103 C78 0.979 . S
H104 C78 0.980 . S
H105 C78 0.983 . S
H106 C77 0.982 . S
H107 C77 0.979 . S
H108 C77 0.977 . S
H109 C79 0.948 . S
H110 C81 0.947 . S
H111 C82 0.948 . S
H112 C88 0.982 . S
H113 C88 0.979 . S
H114 C88 0.977 . S
H115 C89 0.979 . S
H116 C89 0.980 . S
H117 C89 0.983 . S
H118 C62 0.947 . S
C119 C62 1.392 . S
C119 C63 1.419 . S
C119 H101 0.948 . S
C120 C121 1.391 . S
C120 C124 1.391 . S
C120 H162 0.948 . S
C121 C120 1.391 . S
C121 C122 1.391 . S
C122 C121 1.391 . S
C122 H178 0.947 1_655 S
C122 C179 1.392 . S
C123 C124 1.391 . S
C123 C127 1.397 . S
C123 C179 1.419 . S
C124 C120 1.391 . S
C124 C123 1.391 . S
C124 C125 1.399 . S
C125 C124 1.399 . S
C125 C128 1.396 . S
C125 C137 1.453 . S
C125 C138 1.684 . S
H126 C150 0.948 . S
C127 C123 1.397 . S
C127 C128 1.394 . S
C127 C146 1.723 . S
C128 C125 1.396 . S
C128 C127 1.394 . S
C128 C158 1.723 . S
H129 C152 0.947 . S
H130 C153 0.948 . S
H131 C159 0.982 . S
H132 C160 0.979 . S
H133 C160 0.980 . S
H134 C160 0.983 . S
H135 C159 0.979 . S
H136 C159 0.977 . S
C137 C125 1.453 . S
C137 H166 0.982 . S
C137 H167 0.979 . S
C137 H168 0.977 . S
C138 C125 1.684 . S
C138 H163 0.979 . S
C138 H164 0.980 . S
C138 H165 0.983 . S
C139 C140 1.391 . S
C139 C144 1.391 . S
C139 H169 0.948 . S
C140 C139 1.391 . S
C140 C141 1.391 . S
C141 C140 1.391 . S
C141 C142 1.392 . S
C141 H170 0.947 . S
C142 C141 1.392 . S
C142 C143 1.419 . S
C142 H171 0.948 . S
C143 C142 1.419 . S
C143 C144 1.391 . S
C143 C147 1.397 . S
C144 C139 1.391 . S
C144 C143 1.391 . S
C144 C145 1.399 . S
C145 C144 1.399 . S
C145 C146 1.396 . S
C145 C148 1.453 . S
C145 C149 1.684 . S
C146 C127 1.723 . S
C146 C145 1.396 . S
C146 C147 1.394 . S
C147 C143 1.397 . S
C147 C146 1.394 . S
C147 C157 1.723 . S
C148 C145 1.453 . S
C148 H172 0.982 . S
C148 H173 0.979 . S
C148 H174 0.977 . S
C149 C145 1.684 . S
C149 H175 0.979 . S
C149 H176 0.980 . S
C149 H177 0.983 . S
C150 H126 0.948 . S
C150 C151 1.391 . S
C150 C155 1.391 . S
C151 C150 1.391 . S
C151 C152 1.391 . S
C152 H129 0.947 . S
C152 C151 1.391 . S
C152 C153 1.392 . S
C153 H130 0.948 . S
C153 C152 1.392 . S
C153 C154 1.419 . S
C154 C153 1.419 . S
C154 C155 1.391 . S
C154 C158 1.397 . S
C155 C150 1.391 . S
C155 C154 1.391 . S
C155 C156 1.399 . S
C156 C155 1.399 . S
C156 C157 1.396 . S
C156 C159 1.453 . S
C156 C160 1.684 . S
C157 C147 1.723 . S
C157 C156 1.396 . S
C157 C158 1.394 . S
C158 C128 1.723 . S
C158 C154 1.397 . S
C158 C157 1.394 . S
C159 H131 0.982 . S
C159 H135 0.979 . S
C159 H136 0.977 . S
C159 C156 1.453 . S
C160 H132 0.979 . S
C160 H133 0.980 . S
C160 H134 0.983 . S
C160 C156 1.684 . S
H161 C179 0.948 . S
H162 C120 0.948 . S
H163 C138 0.979 . S
H164 C138 0.980 . S
H165 C138 0.983 . S
H166 C137 0.982 . S
H167 C137 0.979 . S
H168 C137 0.977 . S
H169 C139 0.948 . S
H170 C141 0.947 . S
H171 C142 0.948 . S
H172 C148 0.982 . S
H173 C148 0.979 . S
H174 C148 0.977 . S
H175 C149 0.979 . S
H176 C149 0.980 . S
H177 C149 0.983 . S
H178 C122 0.947 1_455 S
C179 C122 1.392 . S
C179 C123 1.419 . S
C179 H161 0.948 . S
C180 C181 1.391 . S
C180 C184 1.391 . S
C180 H222 0.948 . S
C181 C180 1.391 . S
C181 C182 1.391 . S
C182 C181 1.391 . S
C182 H238 0.947 . S
C182 C239 1.392 . S
C183 C184 1.391 . S
C183 C187 1.397 . S
C183 C239 1.419 . S
C184 C180 1.391 . S
C184 C183 1.391 . S
C184 C185 1.399 . S
C185 C184 1.399 . S
C185 C188 1.396 . S
C185 C197 1.453 . S
C185 C198 1.684 . S
H186 C210 0.932 1_655 S
C187 C183 1.397 . S
C187 C188 1.394 . S
C187 C206 1.723 . S
C188 C185 1.396 . S
C188 C187 1.394 . S
C188 C218 1.723 . S
H189 C212 0.947 . S
H190 C213 0.948 . S
H191 C219 0.982 . S
H192 C220 0.979 . S
H193 C220 0.980 . S
H194 C220 0.983 . S
H195 C219 0.979 . S
H196 C219 0.977 . S
C197 C185 1.453 . S
C197 H226 0.982 . S
C197 H227 0.979 . S
C197 H228 0.977 . S
C198 C185 1.684 . S
C198 H223 0.979 . S
C198 H224 0.980 . S
C198 H225 0.983 . S
C199 C200 1.391 . S
C199 C204 1.391 . S
C199 H229 0.948 . S
C200 C199 1.391 . S
C200 C201 1.391 . S
C201 C200 1.391 . S
C201 C202 1.392 . S
C201 H230 0.947 . S
C202 C201 1.392 . S
C202 C203 1.419 . S
C202 H231 0.948 . S
C203 C202 1.419 . S
C203 C204 1.391 . S
C203 C207 1.397 . S
C204 C199 1.391 . S
C204 C203 1.391 . S
C204 C205 1.399 . S
C205 C204 1.399 . S
C205 C206 1.396 . S
C205 C208 1.453 . S
C205 C209 1.684 . S
C206 C187 1.723 . S
C206 C205 1.396 . S
C206 C207 1.394 . S
C207 C203 1.397 . S
C207 C206 1.394 . S
C207 C217 1.723 . S
C208 C205 1.453 . S
C208 H232 0.982 . S
C208 H233 0.979 . S
C208 H234 0.977 . S
C209 C205 1.684 . S
C209 H235 0.979 . S
C209 H236 0.980 . S
C209 H237 0.983 . S
C210 H186 0.932 1_455 S
C210 C211 1.391 . S
C210 C215 1.391 . S
C211 C210 1.391 . S
C211 C212 1.391 . S
C212 H189 0.947 . S
C212 C211 1.391 . S
C212 C213 1.392 . S
C213 H190 0.948 . S
C213 C212 1.392 . S
C213 C214 1.419 . S
C214 C213 1.419 . S
C214 C215 1.391 . S
C214 C218 1.397 . S
C215 C210 1.391 . S
C215 C214 1.391 . S
C215 C216 1.399 . S
C216 C215 1.399 . S
C216 C217 1.396 . S
C216 C219 1.453 . S
C216 C220 1.684 . S
C217 C207 1.723 . S
C217 C216 1.396 . S
C217 C218 1.394 . S
C218 C188 1.723 . S
C218 C214 1.397 . S
C218 C217 1.394 . S
C219 H191 0.982 . S
C219 H195 0.979 . S
C219 H196 0.977 . S
C219 C216 1.453 . S
C220 H192 0.979 . S
C220 H193 0.980 . S
C220 H194 0.983 . S
C220 C216 1.684 . S
H221 C239 0.948 . S
H222 C180 0.948 . S
H223 C198 0.979 . S
H224 C198 0.980 . S
H225 C198 0.983 . S
H226 C197 0.982 . S
H227 C197 0.979 . S
H228 C197 0.977 . S
H229 C199 0.948 . S
H230 C201 0.947 . S
H231 C202 0.948 . S
H232 C208 0.982 . S
H233 C208 0.979 . S
H234 C208 0.977 . S
H235 C209 0.979 . S
H236 C209 0.980 . S
H237 C209 0.983 . S
H238 C182 0.947 . S
C239 C182 1.392 . S
C239 C183 1.419 . S
C239 H221 0.948 . S
C240 C241 1.391 . S
C240 C244 1.391 . S
C240 H282 0.948 . S
C241 C240 1.391 . S
C241 C242 1.391 . S
C242 C241 1.391 . S
C242 H298 0.947 . S
C242 C299 1.392 . S
C243 C244 1.391 . S
C243 C247 1.397 . S
C243 C299 1.419 . S
C244 C240 1.391 . S
C244 C243 1.391 . S
C244 C245 1.399 . S
C245 C244 1.399 . S
C245 C248 1.396 . S
C245 C257 1.453 . S
C245 C258 1.684 . S
H246 C270 0.948 . S
C247 C243 1.397 . S
C247 C248 1.394 . S
C247 C266 1.723 . S
C248 C245 1.396 . S
C248 C247 1.394 . S
C248 C278 1.723 . S
H249 C272 0.947 . S
H250 C273 0.948 . S
H251 C279 0.982 . S
H252 C280 0.979 . S
H253 C280 0.980 . S
H254 C280 0.983 . S
H255 C279 0.979 . S
H256 C279 0.977 . S
C257 C245 1.453 . S
C257 H286 0.982 . S
C257 H287 0.979 . S
C257 H288 0.977 . S
C258 C245 1.684 . S
C258 H283 0.979 . S
C258 H284 0.980 . S
C258 H285 0.983 . S
C259 C260 1.391 . S
C259 C264 1.391 . S
C259 H289 0.948 . S
C260 C259 1.391 . S
C260 C261 1.391 . S
C261 C260 1.391 . S
C261 C262 1.392 . S
C261 H290 0.947 . S
C262 C261 1.392 . S
C262 C263 1.419 . S
C262 H291 0.948 . S
C263 C262 1.419 . S
C263 C264 1.391 . S
C263 C267 1.397 . S
C264 C259 1.391 . S
C264 C263 1.391 . S
C264 C265 1.399 . S
C265 C264 1.399 . S
C265 C266 1.396 . S
C265 C268 1.453 . S
C265 C269 1.684 . S
C266 C247 1.723 . S
C266 C265 1.396 . S
C266 C267 1.394 . S
C267 C263 1.397 . S
C267 C266 1.394 . S
C267 C277 1.723 . S
C268 C265 1.453 . S
C268 H292 0.982 . S
C268 H293 0.979 . S
C268 H294 0.977 . S
C269 C265 1.684 . S
C269 H295 0.979 . S
C269 H296 0.980 . S
C269 H297 0.983 . S
C270 H246 0.948 . S
C270 C271 1.391 . S
C270 C275 1.391 . S
C271 C270 1.391 . S
C271 C272 1.391 . S
C272 H249 0.947 . S
C272 C271 1.391 . S
C272 C273 1.392 . S
C273 H250 0.948 . S
C273 C272 1.392 . S
C273 C274 1.419 . S
C274 C273 1.419 . S
C274 C275 1.391 . S
C274 C278 1.397 . S
C275 C270 1.391 . S
C275 C274 1.391 . S
C275 C276 1.399 . S
C276 C275 1.399 . S
C276 C277 1.396 . S
C276 C279 1.453 . S
C276 C280 1.684 . S
C277 C267 1.723 . S
C277 C276 1.396 . S
C277 C278 1.394 . S
C278 C248 1.723 . S
C278 C274 1.397 . S
C278 C277 1.394 . S
C279 H251 0.982 . S
C279 H255 0.979 . S
C279 H256 0.977 . S
C279 C276 1.453 . S
C280 H252 0.979 . S
C280 H253 0.980 . S
C280 H254 0.983 . S
C280 C276 1.684 . S
H281 C299 0.948 . S
H282 C240 0.948 . S
H283 C258 0.979 . S
H284 C258 0.980 . S
H285 C258 0.983 . S
H286 C257 0.982 . S
H287 C257 0.979 . S
H288 C257 0.977 . S
H289 C259 0.948 . S
H290 C261 0.947 . S
H291 C262 0.948 . S
H292 C268 0.982 . S
H293 C268 0.979 . S
H294 C268 0.977 . S
H295 C269 0.979 . S
H296 C269 0.980 . S
H297 C269 0.983 . S
H298 C242 0.947 . S
C299 C242 1.392 . S
C299 C243 1.419 . S
C299 H281 0.948 . S
C300 C301 1.391 . S
C300 C304 1.391 . S
C300 H342 0.948 . S
C301 C300 1.391 . S
C301 C302 1.391 . S
C302 C301 1.391 . S
C302 H358 0.947 . S
C302 C359 1.392 . S
C303 C304 1.391 . S
C303 C307 1.397 . S
C303 C359 1.419 . S
C304 C300 1.391 . S
C304 C303 1.391 . S
C304 C305 1.399 . S
C305 C304 1.399 . S
C305 C308 1.396 . S
C305 C317 1.453 . S
C305 C318 1.684 . S
H306 C330 0.948 . S
C307 C303 1.397 . S
C307 C308 1.394 . S
C307 C326 1.723 . S
C308 C305 1.396 . S
C308 C307 1.394 . S
C308 C338 1.723 . S
H309 C332 0.947 . S
H310 C333 0.948 . S
H311 C339 0.982 . S
H312 C340 0.979 . S
H313 C340 0.980 . S
H314 C340 0.983 . S
H315 C339 0.979 . S
H316 C339 0.977 . S
C317 C305 1.453 . S
C317 H346 0.982 . S
C317 H347 0.979 . S
C317 H348 0.977 . S
C318 C305 1.684 . S
C318 H343 0.979 . S
C318 H344 0.980 . S
C318 H345 0.983 . S
C319 C320 1.391 . S
C319 C324 1.391 . S
C319 H349 0.948 . S
C320 C319 1.391 . S
C320 C321 1.391 . S
C321 C320 1.391 . S
C321 C322 1.392 . S
C321 H350 0.947 . S
C322 C321 1.392 . S
C322 C323 1.419 . S
C322 H351 0.948 . S
C323 C322 1.419 . S
C323 C324 1.391 . S
C323 C327 1.397 . S
C324 C319 1.391 . S
C324 C323 1.391 . S
C324 C325 1.399 . S
C325 C324 1.399 . S
C325 C326 1.396 . S
C325 C328 1.453 . S
C325 C329 1.684 . S
C326 C307 1.723 . S
C326 C325 1.396 . S
C326 C327 1.394 . S
C327 C323 1.397 . S
C327 C326 1.394 . S
C327 C337 1.723 . S
C328 C325 1.453 . S
C328 H352 0.982 . S
C328 H353 0.979 . S
C328 H354 0.977 . S
C329 C325 1.684 . S
C329 H355 0.979 . S
C329 H356 0.980 . S
C329 H357 0.983 . S
C330 H306 0.948 . S
C330 C331 1.391 . S
C330 C335 1.391 . S
C331 C330 1.391 . S
C331 C332 1.391 . S
C332 H309 0.947 . S
C332 C331 1.391 . S
C332 C333 1.392 . S
C333 H310 0.948 . S
C333 C332 1.392 . S
C333 C334 1.419 . S
C334 C333 1.419 . S
C334 C335 1.391 . S
C334 C338 1.397 . S
C335 C330 1.391 . S
C335 C334 1.391 . S
C335 C336 1.399 . S
C336 C335 1.399 . S
C336 C337 1.396 . S
C336 C339 1.453 . S
C336 C340 1.684 . S
C337 C327 1.723 . S
C337 C336 1.396 . S
C337 C338 1.394 . S
C338 C308 1.723 . S
C338 C334 1.397 . S
C338 C337 1.394 . S
C339 H311 0.982 . S
C339 H315 0.979 . S
C339 H316 0.977 . S
C339 C336 1.453 . S
C340 H312 0.979 . S
C340 H313 0.980 . S
C340 H314 0.983 . S
C340 C336 1.684 . S
H341 C359 0.948 . S
H342 C300 0.948 . S
H343 C318 0.979 . S
H344 C318 0.980 . S
H345 C318 0.983 . S
H346 C317 0.982 . S
H347 C317 0.979 . S
H348 C317 0.977 . S
H349 C319 0.948 . S
H350 C321 0.947 . S
H351 C322 0.948 . S
H352 C328 0.982 . S
H353 C328 0.979 . S
H354 C328 0.977 . S
H355 C329 0.979 . S
H356 C329 0.980 . S
H357 C329 0.983 . S
H358 C302 0.947 . S
C359 C302 1.392 . S
C359 C303 1.419 . S
C359 H341 0.948 . S
C360 C361 1.391 . S
C360 C364 1.391 . S
C360 H402 0.948 . S
C361 C360 1.391 . S
C361 C362 1.391 . S
C362 C361 1.391 . S
C362 H418 0.947 . S
C362 C419 1.392 . S
C363 C364 1.391 . S
C363 C367 1.397 . S
C363 C419 1.419 . S
C364 C360 1.391 . S
C364 C363 1.391 . S
C364 C365 1.399 . S
C365 C364 1.399 . S
C365 C368 1.396 . S
C365 C377 1.453 . S
C365 C378 1.684 . S
H366 C390 0.948 . S
C367 C363 1.397 . S
C367 C368 1.394 . S
C367 C386 1.723 . S
C368 C365 1.396 . S
C368 C367 1.394 . S
C368 C398 1.723 . S
H369 C392 0.947 . S
H370 C393 0.948 . S
H371 C399 0.982 1_455 S
H372 C400 0.979 . S
H373 C400 0.980 . S
H374 C400 0.983 . S
H375 C399 0.979 . S
H376 C399 0.977 . S
C377 C365 1.453 . S
C377 H406 0.982 . S
C377 H407 0.979 . S
C377 H408 0.977 . S
C378 C365 1.684 . S
C378 H403 0.979 . S
C378 H404 0.980 . S
C378 H405 0.983 . S
C379 C380 1.391 . S
C379 C384 1.391 . S
C379 H409 0.948 . S
C380 C379 1.391 . S
C380 C381 1.391 . S
C381 C380 1.391 . S
C381 C382 1.392 . S
C381 H410 0.947 . S
C382 C381 1.392 . S
C382 C383 1.419 . S
C382 H411 0.948 . S
C383 C382 1.419 . S
C383 C384 1.391 . S
C383 C387 1.397 . S
C384 C379 1.391 . S
C384 C383 1.391 . S
C384 C385 1.399 . S
C385 C384 1.399 . S
C385 C386 1.396 . S
C385 C388 1.457 . S
C385 C389 1.684 . S
C386 C367 1.723 . S
C386 C385 1.396 . S
C386 C387 1.394 . S
C387 C383 1.397 . S
C387 C386 1.394 . S
C387 C397 1.723 . S
C388 C385 1.457 . S
C388 H412 0.971 1_655 S
C388 H413 0.981 1_655 S
C388 H414 0.982 . S
C389 C385 1.684 . S
C389 H415 0.979 . S
C389 H416 0.980 . S
C389 H417 0.983 . S
C390 H366 0.948 . S
C390 C391 1.391 . S
C390 C395 1.391 . S
C391 C390 1.391 . S
C391 C392 1.391 . S
C392 H369 0.947 . S
C392 C391 1.391 . S
C392 C393 1.392 . S
C393 H370 0.948 . S
C393 C392 1.392 . S
C393 C394 1.419 . S
C394 C393 1.419 . S
C394 C395 1.391 . S
C394 C398 1.397 . S
C395 C390 1.391 . S
C395 C394 1.391 . S
C395 C396 1.399 . S
C396 C395 1.399 . S
C396 C397 1.396 . S
C396 C399 1.453 . S
C396 C400 1.684 . S
C397 C387 1.723 . S
C397 C396 1.396 . S
C397 C398 1.394 . S
C398 C368 1.723 . S
C398 C394 1.397 . S
C398 C397 1.394 . S
C399 H371 0.982 1_655 S
C399 H375 0.979 . S
C399 H376 0.977 . S
C399 C396 1.453 . S
C400 H372 0.979 . S
C400 H373 0.980 . S
C400 H374 0.983 . S
C400 C396 1.684 . S
H401 C419 0.948 . S
H402 C360 0.948 . S
H403 C378 0.979 . S
H404 C378 0.980 . S
H405 C378 0.983 . S
H406 C377 0.982 . S
H407 C377 0.979 . S
H408 C377 0.977 . S
H409 C379 0.948 . S
H410 C381 0.947 . S
H411 C382 0.948 . S
H412 C388 0.971 1_455 S
H413 C388 0.981 1_455 S
H414 C388 0.982 . S
H415 C389 0.979 . S
H416 C389 0.980 . S
H417 C389 0.983 . S
H418 C362 0.947 . S
C419 C362 1.392 . S
C419 C363 1.419 . S
C419 H401 0.948 . S
C420 C421 1.391 . S
C420 C424 1.391 . S
C420 H462 0.948 . S
C421 C420 1.391 . S
C421 C422 1.391 . S
C422 C421 1.391 . S
C422 H478 0.947 . S
C422 C479 1.392 . S
C423 C424 1.391 . S
C423 C427 1.397 . S
C423 C479 1.419 . S
C424 C420 1.391 . S
C424 C423 1.391 . S
C424 C425 1.399 . S
C425 C424 1.399 . S
C425 C428 1.396 . S
C425 C437 1.453 . S
C425 C438 1.684 . S
H426 C450 0.948 . S
C427 C423 1.397 . S
C427 C428 1.394 . S
C427 C446 1.723 . S
C428 C425 1.396 . S
C428 C427 1.394 . S
C428 C458 1.723 . S
H429 C452 0.947 . S
H430 C453 0.948 . S
H431 C459 0.982 . S
H432 C460 0.979 . S
H433 C460 0.980 . S
H434 C460 0.983 . S
H435 C459 0.979 . S
H436 C459 0.977 . S
C437 C425 1.453 . S
C437 H466 0.982 . S
C437 H467 0.979 . S
C437 H468 0.977 . S
C438 C425 1.684 . S
C438 H463 0.979 . S
C438 H464 0.980 . S
C438 H465 0.983 . S
C439 C440 1.391 . S
C439 C444 1.391 . S
C439 H469 0.948 . S
C440 C439 1.391 . S
C440 C441 1.391 . S
C441 C440 1.391 . S
C441 C442 1.392 . S
C441 H470 0.947 . S
C442 C441 1.392 . S
C442 C443 1.419 . S
C442 H471 0.948 . S
C443 C442 1.419 . S
C443 C444 1.391 . S
C443 C447 1.397 . S
C444 C439 1.391 . S
C444 C443 1.391 . S
C444 C445 1.399 . S
C445 C444 1.399 . S
C445 C446 1.396 . S
C445 C448 1.453 . S
C445 C449 1.684 . S
C446 C427 1.723 . S
C446 C445 1.396 . S
C446 C447 1.394 . S
C447 C443 1.397 . S
C447 C446 1.394 . S
C447 C457 1.723 . S
C448 C445 1.453 . S
C448 H472 0.982 . S
C448 H473 0.979 . S
C448 H474 0.977 . S
C449 C445 1.684 . S
C449 H475 0.979 . S
C449 H476 0.980 . S
C449 H477 0.983 . S
C450 H426 0.948 . S
C450 C451 1.391 . S
C450 C455 1.391 . S
C451 C450 1.391 . S
C451 C452 1.391 . S
C452 H429 0.947 . S
C452 C451 1.391 . S
C452 C453 1.392 . S
C453 H430 0.948 . S
C453 C452 1.392 . S
C453 C454 1.419 . S
C454 C453 1.419 . S
C454 C455 1.391 . S
C454 C458 1.397 . S
C455 C450 1.391 . S
C455 C454 1.391 . S
C455 C456 1.399 . S
C456 C455 1.399 . S
C456 C457 1.396 . S
C456 C459 1.453 . S
C456 C460 1.684 . S
C457 C447 1.723 . S
C457 C456 1.396 . S
C457 C458 1.394 . S
C458 C428 1.723 . S
C458 C454 1.397 . S
C458 C457 1.394 . S
C459 H431 0.982 . S
C459 H435 0.979 . S
C459 H436 0.977 . S
C459 C456 1.453 . S
C460 H432 0.979 . S
C460 H433 0.980 . S
C460 H434 0.983 . S
C460 C456 1.684 . S
H461 C479 0.948 . S
H462 C420 0.948 . S
H463 C438 0.979 . S
H464 C438 0.980 . S
H465 C438 0.983 . S
H466 C437 0.982 . S
H467 C437 0.979 . S
H468 C437 0.977 . S
H469 C439 0.948 . S
H470 C441 0.947 . S
H471 C442 0.948 . S
H472 C448 0.982 . S
H473 C448 0.979 . S
H474 C448 0.977 . S
H475 C449 0.979 . S
H476 C449 0.980 . S
H477 C449 0.983 . S
H478 C422 0.947 . S
C479 C422 1.392 . S
C479 C423 1.419 . S
C479 H461 0.948 . S
C480 C481 1.391 . S
C480 C484 1.391 . S
C480 H522 0.948 . S
C481 C480 1.391 . S
C481 C482 1.391 . S
C482 C481 1.391 . S
C482 H538 0.947 . S
C482 C539 1.392 . S
C483 C484 1.391 . S
C483 C487 1.397 . S
C483 C539 1.419 . S
C484 C480 1.391 . S
C484 C483 1.391 . S
C484 C485 1.399 . S
C485 C484 1.399 . S
C485 C488 1.396 . S
C485 C497 1.453 . S
C485 C498 1.684 . S
H486 C510 0.948 . S
C487 C483 1.397 . S
C487 C488 1.394 . S
C487 C506 1.723 . S
C488 C485 1.396 . S
C488 C487 1.394 . S
C488 C518 1.723 . S
H489 C512 0.947 . S
H490 C513 0.948 . S
H491 C519 0.982 . S
H492 C520 0.979 . S
H493 C520 0.980 . S
H494 C520 0.983 . S
H495 C519 0.979 . S
H496 C519 0.977 . S
C497 C485 1.453 . S
C497 H526 0.982 . S
C497 H527 0.979 . S
C497 H528 0.977 . S
C498 C485 1.684 . S
C498 H523 0.979 . S
C498 H524 0.980 . S
C498 H525 0.983 . S
C499 C500 1.391 . S
C499 C504 1.391 . S
C499 H529 0.948 . S
C500 C499 1.391 . S
C500 C501 1.391 . S
C501 C500 1.391 . S
C501 C502 1.392 . S
C501 H530 0.947 . S
C502 C501 1.392 . S
C502 C503 1.419 . S
C502 H531 0.948 . S
C503 C502 1.419 . S
C503 C504 1.391 . S
C503 C507 1.397 . S
C504 C499 1.391 . S
C504 C503 1.391 . S
C504 C505 1.399 . S
C505 C504 1.399 . S
C505 C506 1.396 . S
C505 C508 1.453 . S
C505 C509 1.684 . S
C506 C487 1.723 . S
C506 C505 1.396 . S
C506 C507 1.394 . S
C507 C503 1.397 . S
C507 C506 1.394 . S
C507 C517 1.723 . S
C508 C505 1.453 . S
C508 H532 0.982 . S
C508 H533 0.979 . S
C508 H534 0.977 . S
C509 C505 1.684 . S
C509 H535 0.979 . S
C509 H536 0.980 . S
C509 H537 0.983 . S
C510 H486 0.948 . S
C510 C511 1.391 . S
C510 C515 1.391 . S
C511 C510 1.391 . S
C511 C512 1.391 . S
C512 H489 0.947 . S
C512 C511 1.391 . S
C512 C513 1.392 . S
C513 H490 0.948 . S
C513 C512 1.392 . S
C513 C514 1.419 . S
C514 C513 1.419 . S
C514 C515 1.391 . S
C514 C518 1.397 . S
C515 C510 1.391 . S
C515 C514 1.391 . S
C515 C516 1.399 . S
C516 C515 1.399 . S
C516 C517 1.396 . S
C516 C519 1.453 . S
C516 C520 1.684 . S
C517 C507 1.723 . S
C517 C516 1.396 . S
C517 C518 1.394 . S
C518 C488 1.723 . S
C518 C514 1.397 . S
C518 C517 1.394 . S
C519 H491 0.982 . S
C519 H495 0.979 . S
C519 H496 0.977 . S
C519 C516 1.453 . S
C520 H492 0.979 . S
C520 H493 0.980 . S
C520 H494 0.983 . S
C520 C516 1.684 . S
H521 C539 0.948 . S
H522 C480 0.948 . S
H523 C498 0.979 . S
H524 C498 0.980 . S
H525 C498 0.983 . S
H526 C497 0.982 . S
H527 C497 0.979 . S
H528 C497 0.977 . S
H529 C499 0.948 . S
H530 C501 0.947 . S
H531 C502 0.948 . S
H532 C508 0.982 . S
H533 C508 0.979 . S
H534 C508 0.977 . S
H535 C509 0.979 . S
H536 C509 0.980 . S
H537 C509 0.983 . S
H538 C482 0.947 . S
C539 C482 1.392 . S
C539 C483 1.419 . S
C539 H521 0.948 . S
C540 C541 1.391 . S
C540 C544 1.391 . S
C540 H582 0.948 . S
C541 C540 1.391 . S
C541 C542 1.391 . S
C542 C541 1.391 . S
C542 H598 0.947 . S
C542 C599 1.392 . S
C543 C544 1.391 . S
C543 C547 1.397 . S
C543 C599 1.419 . S
C544 C540 1.391 . S
C544 C543 1.391 . S
C544 C545 1.399 . S
C545 C544 1.399 . S
C545 C548 1.396 . S
C545 C557 1.453 . S
C545 C558 1.684 . S
H546 C570 0.948 . S
C547 C543 1.397 . S
C547 C548 1.394 . S
C547 C566 1.723 . S
C548 C545 1.396 . S
C548 C547 1.394 . S
C548 C578 1.723 . S
H549 C572 0.947 . S
H550 C573 0.948 . S
H551 C579 0.982 . S
H552 C580 0.979 . S
H553 C580 0.980 . S
H554 C580 0.983 . S
H555 C579 0.979 . S
H556 C579 0.977 . S
C557 C545 1.453 . S
C557 H586 0.982 . S
C557 H587 0.979 . S
C557 H588 0.977 . S
C558 C545 1.684 . S
C558 H583 0.979 . S
C558 H584 0.980 . S
C558 H585 0.983 . S
C559 C560 1.391 . S
C559 C564 1.391 . S
C559 H589 0.948 . S
C560 C559 1.391 . S
C560 C561 1.391 . S
C561 C560 1.391 . S
C561 C562 1.392 . S
C561 H590 0.947 . S
C562 C561 1.392 . S
C562 C563 1.419 . S
C562 H591 0.948 . S
C563 C562 1.419 . S
C563 C564 1.391 . S
C563 C567 1.397 . S
C564 C559 1.391 . S
C564 C563 1.391 . S
C564 C565 1.399 . S
C565 C564 1.399 . S
C565 C566 1.396 . S
C565 C568 1.453 . S
C565 C569 1.684 . S
C566 C547 1.723 . S
C566 C565 1.396 . S
C566 C567 1.394 . S
C567 C563 1.397 . S
C567 C566 1.394 . S
C567 C577 1.723 . S
C568 C565 1.453 . S
C568 H592 0.982 . S
C568 H593 0.979 . S
C568 H594 0.977 . S
C569 C565 1.684 . S
C569 H595 0.979 . S
C569 H596 0.980 . S
C569 H597 0.983 . S
C570 H546 0.948 . S
C570 C571 1.391 . S
C570 C575 1.391 . S
C571 C570 1.391 . S
C571 C572 1.391 . S
C572 H549 0.947 . S
C572 C571 1.391 . S
C572 C573 1.392 . S
C573 H550 0.948 . S
C573 C572 1.392 . S
C573 C574 1.419 . S
C574 C573 1.419 . S
C574 C575 1.391 . S
C574 C578 1.397 . S
C575 C570 1.391 . S
C575 C574 1.391 . S
C575 C576 1.399 . S
C576 C575 1.399 . S
C576 C577 1.396 . S
C576 C579 1.453 . S
C576 C580 1.684 . S
C577 C567 1.723 . S
C577 C576 1.396 . S
C577 C578 1.394 . S
C578 C548 1.723 . S
C578 C574 1.397 . S
C578 C577 1.394 . S
C579 H551 0.982 . S
C579 H555 0.979 . S
C579 H556 0.977 . S
C579 C576 1.453 . S
C580 H552 0.979 . S
C580 H553 0.980 . S
C580 H554 0.983 . S
C580 C576 1.684 . S
H581 C599 0.948 . S
H582 C540 0.948 . S
H583 C558 0.979 . S
H584 C558 0.980 . S
H585 C558 0.983 . S
H586 C557 0.982 . S
H587 C557 0.979 . S
H588 C557 0.977 . S
H589 C559 0.948 . S
H590 C561 0.947 . S
H591 C562 0.948 . S
H592 C568 0.982 . S
H593 C568 0.979 . S
H594 C568 0.977 . S
H595 C569 0.979 . S
H596 C569 0.980 . S
H597 C569 0.983 . S
H598 C542 0.947 . S
C599 C542 1.392 . S
C599 C543 1.419 . S
C599 H581 0.948 . S
C600 C601 1.391 . S
C600 C604 1.391 . S
C600 H642 0.948 . S
C601 C600 1.391 . S
C601 C602 1.391 . S
C602 C601 1.391 . S
C602 H658 0.947 . S
C602 C659 1.392 . S
C603 C604 1.391 . S
C603 C607 1.397 . S
C603 C659 1.419 . S
C604 C600 1.391 . S
C604 C603 1.391 . S
C604 C605 1.399 . S
C605 C604 1.399 . S
C605 C608 1.396 . S
C605 C617 1.453 . S
C605 C618 1.684 . S
H606 C630 0.948 . S
C607 C603 1.397 . S
C607 C608 1.394 . S
C607 C626 1.723 . S
C608 C605 1.396 . S
C608 C607 1.394 . S
C608 C638 1.723 . S
H609 C632 0.947 1_554 S
H610 C633 0.948 . S
H611 C639 0.982 . S
H612 C640 0.979 . S
H613 C640 0.980 . S
H614 C640 0.983 . S
H615 C639 0.979 . S
H616 C639 0.977 . S
C617 C605 1.453 . S
C617 H646 0.982 . S
C617 H647 0.979 . S
C617 H648 0.977 . S
C618 C605 1.684 . S
C618 H643 0.979 . S
C618 H644 0.980 . S
C618 H645 0.983 1_556 S
C619 C620 1.391 . S
C619 C624 1.391 . S
C619 H649 0.948 . S
C620 C619 1.391 . S
C620 C621 1.391 . S
C621 C620 1.391 . S
C621 C622 1.392 . S
C621 H650 0.947 . S
C622 C621 1.392 . S
C622 C623 1.419 . S
C622 H651 0.948 . S
C623 C622 1.419 . S
C623 C624 1.391 . S
C623 C627 1.397 . S
C624 C619 1.391 . S
C624 C623 1.391 . S
C624 C625 1.399 . S
C625 C624 1.399 . S
C625 C626 1.396 . S
C625 C628 1.453 . S
C625 C629 1.684 . S
C626 C607 1.723 . S
C626 C625 1.396 . S
C626 C627 1.394 . S
C627 C623 1.397 . S
C627 C626 1.394 . S
C627 C637 1.723 . S
C628 C625 1.453 . S
C628 H652 0.982 . S
C628 H653 0.979 . S
C628 H654 0.977 . S
C629 C625 1.684 . S
C629 H655 0.979 . S
C629 H656 0.980 . S
C629 H657 0.983 . S
C630 H606 0.948 . S
C630 C631 1.391 . S
C630 C635 1.391 . S
C631 C630 1.391 . S
C631 C632 1.391 . S
C632 H609 0.947 1_556 S
C632 C631 1.391 . S
C632 C633 1.392 . S
C633 H610 0.948 . S
C633 C632 1.392 . S
C633 C634 1.419 . S
C634 C633 1.419 . S
C634 C635 1.391 . S
C634 C638 1.397 . S
C635 C630 1.391 . S
C635 C634 1.391 . S
C635 C636 1.399 . S
C636 C635 1.399 . S
C636 C637 1.396 . S
C636 C639 1.453 . S
C636 C640 1.684 . S
C637 C627 1.723 . S
C637 C636 1.396 . S
C637 C638 1.394 . S
C638 C608 1.723 . S
C638 C634 1.397 . S
C638 C637 1.394 . S
C639 H611 0.982 . S
C639 H615 0.979 . S
C639 H616 0.977 . S
C639 C636 1.453 . S
C640 H612 0.979 . S
C640 H613 0.980 . S
C640 H614 0.983 . S
C640 C636 1.684 . S
H641 C659 0.948 . S
H642 C600 0.948 . S
H643 C618 0.979 . S
H644 C618 0.980 . S
H645 C618 0.983 1_554 S
H646 C617 0.982 . S
H647 C617 0.979 . S
H648 C617 0.977 . S
H649 C619 0.948 . S
H650 C621 0.947 . S
H651 C622 0.948 . S
H652 C628 0.982 . S
H653 C628 0.979 . S
H654 C628 0.977 . S
H655 C629 0.979 . S
H656 C629 0.980 . S
H657 C629 0.983 . S
H658 C602 0.947 . S
C659 C602 1.392 . S
C659 C603 1.419 . S
C659 H641 0.948 . S
C660 C661 1.391 . S
C660 C664 1.391 . S
C660 H702 0.948 . S
C661 C660 1.391 . S
C661 C662 1.391 . S
C662 C661 1.391 . S
C662 H718 0.947 . S
C662 C719 1.392 . S
C663 C664 1.391 . S
C663 C667 1.397 . S
C663 C719 1.419 . S
C664 C660 1.391 . S
C664 C663 1.391 . S
C664 C665 1.399 . S
C665 C664 1.399 . S
C665 C668 1.396 . S
C665 C677 1.453 . S
C665 C678 1.684 . S
H666 C690 0.948 . S
C667 C663 1.397 . S
C667 C668 1.394 . S
C667 C686 1.723 . S
C668 C665 1.396 . S
C668 C667 1.394 . S
C668 C698 1.723 . S
H669 C692 0.947 . S
H670 C693 0.948 . S
H671 C699 0.982 . S
H672 C700 0.979 . S
H673 C700 0.980 . S
H674 C700 0.983 . S
H675 C699 0.979 . S
H676 C699 0.977 . S
C677 C665 1.453 . S
C677 H706 0.982 . S
C677 H707 0.979 . S
C677 H708 0.977 . S
C678 C665 1.684 . S
C678 H703 0.979 . S
C678 H704 0.980 . S
C678 H705 0.983 . S
C679 C680 1.391 . S
C679 C684 1.391 . S
C679 H709 0.948 . S
C680 C679 1.391 . S
C680 C681 1.391 . S
C681 C680 1.391 . S
C681 C682 1.392 . S
C681 H710 0.947 . S
C682 C681 1.392 . S
C682 C683 1.419 . S
C682 H711 0.948 . S
C683 C682 1.419 . S
C683 C684 1.391 . S
C683 C687 1.397 . S
C684 C679 1.391 . S
C684 C683 1.391 . S
C684 C685 1.399 . S
C685 C684 1.399 . S
C685 C686 1.396 . S
C685 C688 1.453 . S
C685 C689 1.684 . S
C686 C667 1.723 . S
C686 C685 1.396 . S
C686 C687 1.394 . S
C687 C683 1.397 . S
C687 C686 1.394 . S
C687 C697 1.723 . S
C688 C685 1.453 . S
C688 H712 0.982 . S
C688 H713 0.979 . S
C688 H714 0.977 . S
C689 C685 1.684 . S
C689 H715 0.979 . S
C689 H716 0.980 . S
C689 H717 0.983 . S
C690 H666 0.948 . S
C690 C691 1.391 . S
C690 C695 1.391 . S
C691 C690 1.391 . S
C691 C692 1.391 . S
C692 H669 0.947 . S
C692 C691 1.391 . S
C692 C693 1.392 . S
C693 H670 0.948 . S
C693 C692 1.392 . S
C693 C694 1.419 . S
C694 C693 1.419 . S
C694 C695 1.391 . S
C694 C698 1.397 . S
C695 C690 1.391 . S
C695 C694 1.391 . S
C695 C696 1.399 . S
C696 C695 1.399 . S
C696 C697 1.396 . S
C696 C699 1.453 . S
C696 C700 1.684 . S
C697 C687 1.723 . S
C697 C696 1.396 . S
C697 C698 1.394 . S
C698 C668 1.723 . S
C698 C694 1.397 . S
C698 C697 1.394 . S
C699 H671 0.982 . S
C699 H675 0.979 . S
C699 H676 0.977 . S
C699 C696 1.453 . S
C700 H672 0.979 . S
C700 H673 0.980 . S
C700 H674 0.983 . S
C700 C696 1.684 . S
H701 C719 0.948 . S
H702 C660 0.948 . S
H703 C678 0.979 . S
H704 C678 0.980 . S
H705 C678 0.983 . S
H706 C677 0.982 . S
H707 C677 0.979 . S
H708 C677 0.977 . S
H709 C679 0.948 . S
H710 C681 0.947 . S
H711 C682 0.948 . S
H712 C688 0.982 . S
H713 C688 0.979 . S
H714 C688 0.977 . S
H715 C689 0.979 . S
H716 C689 0.980 . S
H717 C689 0.983 . S
H718 C662 0.947 . S
C719 C662 1.392 . S
C719 C663 1.419 . S
C719 H701 0.948 . S
C720 C721 1.391 . S
C720 C724 1.391 . S
C720 H762 0.948 . S
C721 C720 1.391 . S
C721 C722 1.391 . S
C722 C721 1.391 . S
C722 H778 0.947 . S
C722 C779 1.392 . S
C723 C724 1.391 . S
C723 C727 1.397 . S
C723 C779 1.419 . S
C724 C720 1.391 . S
C724 C723 1.391 . S
C724 C725 1.399 . S
C725 C724 1.399 . S
C725 C728 1.396 . S
C725 C737 1.453 . S
C725 C738 1.684 . S
H726 C750 0.948 . S
C727 C723 1.397 . S
C727 C728 1.394 . S
C727 C746 1.723 . S
C728 C725 1.396 . S
C728 C727 1.394 . S
C728 C758 1.723 . S
H729 C752 0.947 1_556 S
H730 C753 0.948 . S
H731 C759 0.982 . S
H732 C760 0.979 . S
H733 C760 0.980 . S
H734 C760 0.983 . S
H735 C759 0.979 . S
H736 C759 0.977 . S
C737 C725 1.453 . S
C737 H766 0.982 . S
C737 H767 1.018 . S
C737 H768 0.977 . S
C738 C725 1.684 . S
C738 H763 0.979 . S
C738 H764 0.980 . S
C738 H765 1.002 . S
C739 C740 1.391 . S
C739 C744 1.391 . S
C739 H769 0.948 . S
C740 C739 1.391 . S
C740 C741 1.391 . S
C741 C740 1.391 . S
C741 C742 1.392 . S
C741 H770 0.947 . S
C742 C741 1.392 . S
C742 C743 1.419 . S
C742 H771 0.948 . S
C743 C742 1.419 . S
C743 C744 1.391 . S
C743 C747 1.397 . S
C744 C739 1.391 . S
C744 C743 1.391 . S
C744 C745 1.399 . S
C745 C744 1.399 . S
C745 C746 1.396 . S
C745 C748 1.453 . S
C745 C749 1.684 . S
C746 C727 1.723 . S
C746 C745 1.396 . S
C746 C747 1.394 . S
C747 C743 1.397 . S
C747 C746 1.394 . S
C747 C757 1.723 . S
C748 C745 1.453 . S
C748 H772 0.982 . S
C748 H773 0.979 . S
C748 H774 0.977 . S
C749 C745 1.684 . S
C749 H775 0.979 . S
C749 H776 0.980 . S
C749 H777 0.983 . S
C750 H726 0.948 . S
C750 C751 1.391 . S
C750 C755 1.391 . S
C751 C750 1.391 . S
C751 C752 1.391 . S
C752 H729 0.947 1_554 S
C752 C751 1.391 . S
C752 C753 1.392 . S
C753 H730 0.948 . S
C753 C752 1.392 . S
C753 C754 1.419 . S
C754 C753 1.419 . S
C754 C755 1.391 . S
C754 C758 1.397 . S
C755 C750 1.391 . S
C755 C754 1.391 . S
C755 C756 1.399 . S
C756 C755 1.399 . S
C756 C757 1.396 . S
C756 C759 1.453 . S
C756 C760 1.684 . S
C757 C747 1.723 . S
C757 C756 1.396 . S
C757 C758 1.394 . S
C758 C728 1.723 . S
C758 C754 1.397 . S
C758 C757 1.394 . S
C759 H731 0.982 . S
C759 H735 0.979 . S
C759 H736 0.977 . S
C759 C756 1.453 . S
C760 H732 0.979 . S
C760 H733 0.980 . S
C760 H734 0.983 . S
C760 C756 1.684 . S
H761 C779 0.948 . S
H762 C720 0.948 . S
H763 C738 0.979 . S
H764 C738 0.980 . S
H765 C738 1.002 . S
H766 C737 0.982 . S
H767 C737 1.018 . S
H768 C737 0.977 . S
H769 C739 0.948 . S
H770 C741 0.947 . S
H771 C742 0.948 . S
H772 C748 0.982 . S
H773 C748 0.979 . S
H774 C748 0.977 . S
H775 C749 0.979 . S
H776 C749 0.980 . S
H777 C749 0.983 . S
H778 C722 0.947 . S
C779 C722 1.392 . S
C779 C723 1.419 . S
C779 H761 0.948 . S
C780 C781 1.391 . S
C780 C784 1.391 . S
C780 H822 0.948 . S
C781 C780 1.391 . S
C781 C782 1.391 . S
C782 C781 1.391 . S
C782 H838 0.947 . S
C782 C839 1.392 . S
C783 C784 1.391 . S
C783 C787 1.397 . S
C783 C839 1.419 . S
C784 C780 1.391 . S
C784 C783 1.391 . S
C784 C785 1.399 . S
C785 C784 1.399 . S
C785 C788 1.396 . S
C785 C797 1.453 . S
C785 C798 1.684 . S
H786 C810 0.948 . S
C787 C783 1.397 . S
C787 C788 1.394 . S
C787 C806 1.723 . S
C788 C785 1.396 . S
C788 C787 1.394 . S
C788 C818 1.723 . S
H789 C812 0.947 . S
H790 C813 0.948 . S
H791 C819 0.982 . S
H792 C820 0.979 . S
H793 C820 0.980 . S
H794 C820 0.983 . S
H795 C819 0.979 . S
H796 C819 0.977 . S
C797 C785 1.453 . S
C797 H826 0.982 . S
C797 H827 0.979 . S
C797 H828 0.977 . S
C798 C785 1.684 . S
C798 H823 0.979 . S
C798 H824 0.980 . S
C798 H825 0.983 . S
C799 C800 1.391 . S
C799 C804 1.391 . S
C799 H829 0.948 . S
C800 C799 1.391 . S
C800 C801 1.391 . S
C801 C800 1.391 . S
C801 C802 1.392 . S
C801 H830 0.947 . S
C802 C801 1.392 . S
C802 C803 1.419 . S
C802 H831 0.948 . S
C803 C802 1.419 . S
C803 C804 1.391 . S
C803 C807 1.397 . S
C804 C799 1.391 . S
C804 C803 1.391 . S
C804 C805 1.399 . S
C805 C804 1.399 . S
C805 C806 1.396 . S
C805 C808 1.453 . S
C805 C809 1.684 . S
C806 C787 1.723 . S
C806 C805 1.396 . S
C806 C807 1.394 . S
C807 C803 1.397 . S
C807 C806 1.394 . S
C807 C817 1.723 . S
C808 C805 1.453 . S
C808 H832 0.982 . S
C808 H833 0.979 . S
C808 H834 0.977 . S
C809 C805 1.684 . S
C809 H835 0.979 . S
C809 H836 0.980 . S
C809 H837 0.983 . S
C810 H786 0.948 . S
C810 C811 1.391 . S
C810 C815 1.391 . S
C811 C810 1.391 . S
C811 C812 1.391 . S
C812 H789 0.947 . S
C812 C811 1.391 . S
C812 C813 1.392 . S
C813 H790 0.948 . S
C813 C812 1.392 . S
C813 C814 1.419 . S
C814 C813 1.419 . S
C814 C815 1.391 . S
C814 C818 1.397 . S
C815 C810 1.391 . S
C815 C814 1.391 . S
C815 C816 1.399 . S
C816 C815 1.399 . S
C816 C817 1.396 . S
C816 C819 1.453 . S
C816 C820 1.684 . S
C817 C807 1.723 . S
C817 C816 1.396 . S
C817 C818 1.394 . S
C818 C788 1.723 . S
C818 C814 1.397 . S
C818 C817 1.394 . S
C819 H791 0.982 . S
C819 H795 0.979 . S
C819 H796 0.977 . S
C819 C816 1.453 . S
C820 H792 0.979 . S
C820 H793 0.980 . S
C820 H794 0.983 . S
C820 C816 1.684 . S
H821 C839 0.948 . S
H822 C780 0.948 . S
H823 C798 0.979 . S
H824 C798 0.980 . S
H825 C798 0.983 . S
H826 C797 0.982 . S
H827 C797 0.979 . S
H828 C797 0.977 . S
H829 C799 0.948 . S
H830 C801 0.947 . S
H831 C802 0.948 . S
H832 C808 0.982 . S
H833 C808 0.979 . S
H834 C808 0.977 . S
H835 C809 0.979 . S
H836 C809 0.980 . S
H837 C809 0.983 . S
H838 C782 0.947 . S
C839 C782 1.392 . S
C839 C783 1.419 . S
C839 H821 0.948 . S
C840 C841 1.391 . S
C840 C844 1.391 . S
C840 H882 0.948 . S
C841 C840 1.391 . S
C841 C842 1.391 . S
C842 C841 1.391 . S
C842 H898 0.947 . S
C842 C899 1.392 . S
C843 C844 1.391 . S
C843 C847 1.397 . S
C843 C899 1.419 . S
C844 C840 1.391 . S
C844 C843 1.391 . S
C844 C845 1.399 . S
C845 C844 1.399 . S
C845 C848 1.396 . S
C845 C857 1.453 . S
C845 C858 1.684 . S
H846 C870 0.948 . S
C847 C843 1.397 . S
C847 C848 1.394 . S
C847 C866 1.723 . S
C848 C845 1.396 . S
C848 C847 1.394 . S
C848 C878 1.723 . S
H849 C872 0.947 . S
H850 C873 0.948 . S
H851 C879 0.982 . S
H852 C880 0.979 . S
H853 C880 0.980 . S
H854 C880 0.983 . S
H855 C879 0.979 . S
H856 C879 0.977 . S
C857 C845 1.453 . S
C857 H886 0.982 . S
C857 H887 0.979 . S
C857 H888 0.977 . S
C858 C845 1.684 . S
C858 H883 0.979 . S
C858 H884 0.980 . S
C858 H885 0.983 . S
C859 C860 1.391 . S
C859 C864 1.391 . S
C859 H889 0.948 . S
C860 C859 1.391 . S
C860 C861 1.391 . S
C861 C860 1.391 . S
C861 C862 1.392 . S
C861 H890 0.947 . S
C862 C861 1.392 . S
C862 C863 1.419 . S
C862 H891 0.948 . S
C863 C862 1.419 . S
C863 C864 1.391 . S
C863 C867 1.397 . S
C864 C859 1.391 . S
C864 C863 1.391 . S
C864 C865 1.399 . S
C865 C864 1.399 . S
C865 C866 1.396 . S
C865 C868 1.453 . S
C865 C869 1.684 . S
C866 C847 1.723 . S
C866 C865 1.396 . S
C866 C867 1.394 . S
C867 C863 1.397 . S
C867 C866 1.394 . S
C867 C877 1.723 . S
C868 C865 1.453 . S
C868 H892 0.982 . S
C868 H893 0.979 . S
C868 H894 0.977 . S
C869 C865 1.684 . S
C869 H895 0.979 . S
C869 H896 0.980 . S
C869 H897 0.983 . S
C870 H846 0.948 . S
C870 C871 1.391 . S
C870 C875 1.391 . S
C871 C870 1.391 . S
C871 C872 1.391 . S
C872 H849 0.947 . S
C872 C871 1.391 . S
C872 C873 1.392 . S
C873 H850 0.948 . S
C873 C872 1.392 . S
C873 C874 1.419 . S
C874 C873 1.419 . S
C874 C875 1.391 . S
C874 C878 1.397 . S
C875 C870 1.391 . S
C875 C874 1.391 . S
C875 C876 1.399 . S
C876 C875 1.399 . S
C876 C877 1.396 . S
C876 C879 1.453 . S
C876 C880 1.684 . S
C877 C867 1.723 . S
C877 C876 1.396 . S
C877 C878 1.394 . S
C878 C848 1.723 . S
C878 C874 1.397 . S
C878 C877 1.394 . S
C879 H851 0.982 . S
C879 H855 0.979 . S
C879 H856 0.977 . S
C879 C876 1.453 . S
C880 H852 0.979 . S
C880 H853 0.980 . S
C880 H854 0.983 . S
C880 C876 1.684 . S
H881 C899 0.948 . S
H882 C840 0.948 . S
H883 C858 0.979 . S
H884 C858 0.980 . S
H885 C858 0.983 . S
H886 C857 0.982 . S
H887 C857 0.979 . S
H888 C857 0.977 . S
H889 C859 0.948 . S
H890 C861 0.947 . S
H891 C862 0.948 . S
H892 C868 0.982 . S
H893 C868 0.979 . S
H894 C868 0.977 . S
H895 C869 0.979 . S
H896 C869 0.980 . S
H897 C869 0.983 . S
H898 C842 0.947 . S
C899 C842 1.392 . S
C899 C843 1.419 . S
C899 H881 0.948 . S
C900 C901 1.391 . S
C900 C904 1.391 . S
C900 H942 0.948 . S
C901 C900 1.391 . S
C901 C902 1.391 . S
C902 C901 1.391 . S
C902 H958 0.947 . S
C902 C959 1.392 . S
C903 C904 1.391 . S
C903 C907 1.397 . S
C903 C959 1.419 . S
C904 C900 1.391 . S
C904 C903 1.391 . S
C904 C905 1.399 . S
C905 C904 1.399 . S
C905 C908 1.396 . S
C905 C917 1.453 . S
C905 C918 1.684 . S
H906 C930 0.948 . S
C907 C903 1.397 . S
C907 C908 1.394 . S
C907 C926 1.723 . S
C908 C905 1.396 . S
C908 C907 1.394 . S
C908 C938 1.723 . S
H909 C932 0.947 . S
H910 C933 0.948 . S
H911 C939 0.982 . S
H912 C940 0.979 . S
H913 C940 0.980 . S
H914 C940 0.983 . S
H915 C939 0.979 . S
H916 C939 0.977 . S
C917 C905 1.453 . S
C917 H946 0.982 . S
C917 H947 0.979 . S
C917 H948 0.977 . S
C918 C905 1.684 . S
C918 H943 0.979 . S
C918 H944 0.980 . S
C918 H945 0.983 . S
C919 C920 1.391 . S
C919 C924 1.391 . S
C919 H949 0.948 . S
C920 C919 1.391 . S
C920 C921 1.391 . S
C921 C920 1.391 . S
C921 C922 1.392 . S
C921 H950 0.947 . S
C922 C921 1.392 . S
C922 C923 1.419 . S
C922 H951 0.948 . S
C923 C922 1.419 . S
C923 C924 1.391 . S
C923 C927 1.397 . S
C924 C919 1.391 . S
C924 C923 1.391 . S
C924 C925 1.399 . S
C925 C924 1.399 . S
C925 C926 1.396 . S
C925 C928 1.453 . S
C925 C929 1.684 . S
C926 C907 1.723 . S
C926 C925 1.396 . S
C926 C927 1.394 . S
C927 C923 1.397 . S
C927 C926 1.394 . S
C927 C937 1.723 . S
C928 C925 1.453 . S
C928 H952 0.982 . S
C928 H953 0.979 . S
C928 H954 0.977 . S
C929 C925 1.684 . S
C929 H955 0.979 . S
C929 H956 0.980 . S
C929 H957 0.983 . S
C930 H906 0.948 . S
C930 C931 1.391 . S
C930 C935 1.391 . S
C931 C930 1.391 . S
C931 C932 1.391 . S
C932 H909 0.947 . S
C932 C931 1.391 . S
C932 C933 1.392 . S
C933 H910 0.948 . S
C933 C932 1.392 . S
C933 C934 1.419 . S
C934 C933 1.419 . S
C934 C935 1.391 . S
C934 C938 1.397 . S
C935 C930 1.391 . S
C935 C934 1.391 . S
C935 C936 1.399 . S
C936 C935 1.399 . S
C936 C937 1.396 . S
C936 C939 1.453 . S
C936 C940 1.684 . S
C937 C927 1.723 . S
C937 C936 1.396 . S
C937 C938 1.394 . S
C938 C908 1.723 . S
C938 C934 1.397 . S
C938 C937 1.394 . S
C939 H911 0.982 . S
C939 H915 0.979 . S
C939 H916 0.977 . S
C939 C936 1.453 . S
C940 H912 0.979 . S
C940 H913 0.980 . S
C940 H914 0.983 . S
C940 C936 1.684 . S
H941 C959 0.948 . S
H942 C900 0.948 . S
H943 C918 0.979 . S
H944 C918 0.980 . S
H945 C918 0.983 . S
H946 C917 0.982 . S
H947 C917 0.979 . S
H948 C917 0.977 . S
H949 C919 0.948 . S
H950 C921 0.947 . S
H951 C922 0.948 . S
H952 C928 0.982 . S
H953 C928 0.979 . S
H954 C928 0.977 . S
H955 C929 0.979 . S
H956 C929 0.980 . S
H957 C929 0.983 . S
H958 C902 0.947 . S
C959 C902 1.392 . S
C959 C903 1.419 . S
C959 H941 0.948 . S
C960 C961 1.391 . S
C960 C964 1.391 . S
C960 H1002 0.948 . S
C961 C960 1.391 . S
C961 C962 1.391 . S
C962 C961 1.391 . S
C962 H1018 0.947 . S
C962 C1019 1.392 . S
C963 C964 1.391 . S
C963 C967 1.397 . S
C963 C1019 1.419 . S
C964 C960 1.391 . S
C964 C963 1.391 . S
C964 C965 1.399 . S
C965 C964 1.399 . S
C965 C968 1.396 . S
C965 C977 1.453 . S
C965 C978 1.684 . S
H966 C990 0.948 . S
C967 C963 1.397 . S
C967 C968 1.394 . S
C967 C986 1.723 . S
C968 C965 1.396 . S
C968 C967 1.394 . S
C968 C998 1.723 . S
H969 C992 0.947 . S
H970 C993 0.948 . S
H971 C999 0.982 . S
H972 C1000 0.979 1_655 S
H973 C1000 0.978 . S
H974 C1000 0.983 . S
H975 C999 0.979 . S
H976 C999 0.977 . S
C977 C965 1.453 . S
C977 H1006 0.982 . S
C977 H1007 0.979 . S
C977 H1008 0.977 . S
C978 C965 1.684 . S
C978 H1003 0.979 . S
C978 H1004 0.980 . S
C978 H1005 0.983 . S
C979 C980 1.391 1_455 S
C979 C984 1.391 . S
C979 H1009 0.953 1_455 S
C980 C979 1.391 1_655 S
C980 C981 1.391 1_655 S
C981 C980 1.391 1_455 S
C981 C982 1.392 . S
C981 H1010 0.937 1_455 S
C982 C981 1.392 . S
C982 C983 1.419 . S
C982 H1011 0.948 . S
C983 C982 1.419 . S
C983 C984 1.391 . S
C983 C987 1.397 . S
C984 C979 1.391 . S
C984 C983 1.391 . S
C984 C985 1.399 . S
C985 C984 1.399 . S
C985 C986 1.396 . S
C985 C988 1.453 . S
C985 C989 1.684 1_455 S
C986 C967 1.723 . S
C986 C985 1.396 . S
C986 C987 1.394 . S
C987 C983 1.397 . S
C987 C986 1.394 . S
C987 C997 1.723 . S
C988 C985 1.453 . S
C988 H1012 0.982 . S
C988 H1013 0.979 . S
C988 H1014 0.977 . S
C989 C985 1.684 1_655 S
C989 H1015 0.979 . S
C989 H1016 0.980 1_655 S
C989 H1017 0.983 . S
C990 H966 0.948 . S
C990 C991 1.391 . S
C990 C995 1.391 . S
C991 C990 1.391 . S
C991 C992 1.391 . S
C992 H969 0.947 . S
C992 C991 1.391 . S
C992 C993 1.392 . S
C993 H970 0.948 . S
C993 C992 1.392 . S
C993 C994 1.419 . S
C994 C993 1.419 . S
C994 C995 1.391 . S
C994 C998 1.397 . S
C995 C990 1.391 . S
C995 C994 1.391 . S
C995 C996 1.399 . S
C996 C995 1.399 . S
C996 C997 1.396 . S
C996 C999 1.453 . S
C996 C1000 1.684 . S
C997 C987 1.723 . S
C997 C996 1.396 . S
C997 C998 1.394 . S
C998 C968 1.723 . S
C998 C994 1.397 . S
C998 C997 1.394 . S
C999 H971 0.982 . S
C999 H975 0.979 . S
C999 H976 0.977 . S
C999 C996 1.453 . S
C1000 H972 0.979 1_455 S
C1000 H973 0.978 . S
C1000 H974 0.983 . S
C1000 C996 1.684 . S
H1001 C1019 0.948 . S
H1002 C960 0.948 . S
H1003 C978 0.979 . S
H1004 C978 0.980 . S
H1005 C978 0.983 . S
H1006 C977 0.982 . S
H1007 C977 0.979 . S
H1008 C977 0.977 . S
H1009 C979 0.953 1_655 S
H1010 C981 0.937 1_655 S
H1011 C982 0.948 . S
H1012 C988 0.982 . S
H1013 C988 0.979 . S
H1014 C988 0.977 . S
H1015 C989 0.979 . S
H1016 C989 0.980 1_455 S
H1017 C989 0.983 . S
H1018 C962 0.947 . S
C1019 C962 1.392 . S
C1019 C963 1.419 . S
C1019 H1001 0.948 . S
C1020 C1021 1.391 . S
C1020 C1024 1.391 . S
C1020 H1062 0.948 . S
C1021 C1020 1.391 . S
C1021 C1022 1.391 . S
C1022 C1021 1.391 . S
C1022 H1078 0.947 . S
C1022 C1079 1.392 . S
C1023 C1024 1.391 . S
C1023 C1027 1.397 . S
C1023 C1079 1.419 . S
C1024 C1020 1.391 . S
C1024 C1023 1.391 . S
C1024 C1025 1.399 . S
C1025 C1024 1.399 . S
C1025 C1028 1.396 . S
C1025 C1037 1.453 . S
C1025 C1038 1.684 . S
H1026 C1050 0.948 . S
C1027 C1023 1.397 . S
C1027 C1028 1.394 . S
C1027 C1046 1.723 . S
C1028 C1025 1.396 . S
C1028 C1027 1.394 . S
C1028 C1058 1.723 . S
H1029 C1052 0.947 . S
H1030 C1053 0.948 . S
H1031 C1059 0.982 . S
H1032 C1060 0.979 . S
H1033 C1060 0.980 . S
H1034 C1060 0.983 . S
H1035 C1059 0.979 . S
H1036 C1059 0.977 . S
C1037 C1025 1.453 . S
C1037 H1066 0.982 . S
C1037 H1067 0.979 . S
C1037 H1068 0.977 . S
C1038 C1025 1.684 . S
C1038 H1063 0.979 . S
C1038 H1064 0.980 . S
C1038 H1065 0.983 . S
C1039 C1040 1.391 . S
C1039 C1044 1.391 . S
C1039 H1069 0.948 . S
C1040 C1039 1.391 . S
C1040 C1041 1.391 . S
C1041 C1040 1.391 . S
C1041 C1042 1.392 . S
C1041 H1070 0.947 . S
C1042 C1041 1.392 . S
C1042 C1043 1.419 . S
C1042 H1071 0.948 . S
C1043 C1042 1.419 . S
C1043 C1044 1.391 . S
C1043 C1047 1.397 . S
C1044 C1039 1.391 . S
C1044 C1043 1.391 . S
C1044 C1045 1.399 . S
C1045 C1044 1.399 . S
C1045 C1046 1.396 . S
C1045 C1048 1.453 . S
C1045 C1049 1.684 . S
C1046 C1027 1.723 . S
C1046 C1045 1.396 . S
C1046 C1047 1.394 . S
C1047 C1043 1.397 . S
C1047 C1046 1.394 . S
C1047 C1057 1.723 . S
C1048 C1045 1.453 . S
C1048 H1072 0.982 . S
C1048 H1073 0.979 . S
C1048 H1074 0.977 . S
C1049 C1045 1.684 . S
C1049 H1075 0.979 . S
C1049 H1076 0.980 . S
C1049 H1077 0.983 . S
C1050 H1026 0.948 . S
C1050 C1051 1.391 . S
C1050 C1055 1.391 . S
C1051 C1050 1.391 . S
C1051 C1052 1.391 . S
C1052 H1029 0.947 . S
C1052 C1051 1.391 . S
C1052 C1053 1.392 . S
C1053 H1030 0.948 . S
C1053 C1052 1.392 . S
C1053 C1054 1.419 . S
C1054 C1053 1.419 . S
C1054 C1055 1.391 . S
C1054 C1058 1.397 . S
C1055 C1050 1.391 . S
C1055 C1054 1.391 . S
C1055 C1056 1.399 . S
C1056 C1055 1.399 . S
C1056 C1057 1.396 . S
C1056 C1059 1.453 . S
C1056 C1060 1.684 . S
C1057 C1047 1.723 . S
C1057 C1056 1.396 . S
C1057 C1058 1.394 . S
C1058 C1028 1.723 . S
C1058 C1054 1.397 . S
C1058 C1057 1.394 . S
C1059 H1031 0.982 . S
C1059 H1035 0.979 . S
C1059 H1036 0.977 . S
C1059 C1056 1.453 . S
C1060 H1032 0.979 . S
C1060 H1033 0.980 . S
C1060 H1034 0.983 . S
C1060 C1056 1.684 . S
H1061 C1079 0.948 . S
H1062 C1020 0.948 . S
H1063 C1038 0.979 . S
H1064 C1038 0.980 . S
H1065 C1038 0.983 . S
H1066 C1037 0.982 . S
H1067 C1037 0.979 . S
H1068 C1037 0.977 . S
H1069 C1039 0.948 . S
H1070 C1041 0.947 . S
H1071 C1042 0.948 . S
H1072 C1048 0.982 . S
H1073 C1048 0.979 . S
H1074 C1048 0.977 . S
H1075 C1049 0.979 . S
H1076 C1049 0.980 . S
H1077 C1049 0.983 . S
H1078 C1022 0.947 . S
C1079 C1022 1.392 . S
C1079 C1023 1.419 . S
C1079 H1061 0.948 . S
Tb1080 C1090 2.825 . S
Tb1080 O1091 2.347 1_565 S
Tb1080 O1094 2.366 1_565 S
Tb1080 O1099 2.418 . S
Tb1080 O1100 2.384 . S
Tb1080 O1103 2.479 . S
Tb1080 O1104 2.478 . S
Eu1081 O1092 2.418 . S
Eu1081 O1093 2.384 . S
Eu1081 O1096 2.479 . S
Eu1081 O1097 2.483 . S
Eu1081 O1098 2.347 1_545 S
Eu1081 O1101 2.366 1_545 S
Eu1081 C1111 2.825 . S
C1082 O1098 1.259 . S
C1082 O1099 1.265 1_554 S
C1083 O1100 1.255 1_554 S
C1083 O1101 1.265 . S
C1084 C1086 1.380 . S
C1084 C1087 1.374 1_565 S
C1084 C1090 1.507 . S
C1085 C1086 1.384 . S
C1085 C1089 1.387 1_565 S
C1085 H1112 0.930 . S
C1086 C1084 1.380 . S
C1086 C1085 1.384 . S
C1086 H1113 0.931 . S
C1087 C1084 1.374 1_545 S
C1087 C1088 1.390 . S
C1087 H1114 0.930 . S
C1088 C1087 1.390 . S
C1088 C1089 1.391 . S
C1088 H1115 0.930 . S
C1089 C1085 1.387 1_545 S
C1089 C1088 1.391 . S
C1090 Tb1080 2.825 . S
C1090 C1084 1.507 . S
C1090 O1103 1.238 . S
C1090 O1104 1.257 . S
O1091 Tb1080 2.347 1_545 S
O1091 C1095 1.259 . S
O1092 Eu1081 2.418 . S
O1092 C1095 1.265 1_554 S
O1093 Eu1081 2.384 . S
O1093 C1102 1.255 1_554 S
O1094 Tb1080 2.366 1_545 S
O1094 C1102 1.265 . S
C1095 O1091 1.259 . S
C1095 O1092 1.265 1_556 S
O1096 Eu1081 2.479 . S
O1096 C1111 1.238 . S
O1097 Eu1081 2.483 . S
O1097 C1111 1.265 . S
O1098 Eu1081 2.347 1_565 S
O1098 C1082 1.259 . S
O1099 Tb1080 2.418 . S
O1099 C1082 1.265 1_556 S
O1100 Tb1080 2.384 . S
O1100 C1083 1.255 1_556 S
O1101 Eu1081 2.366 1_565 S
O1101 C1083 1.265 . S
C1102 O1093 1.255 1_556 S
C1102 O1094 1.265 . S
O1103 Tb1080 2.479 . S
O1103 C1090 1.238 . S
O1104 Tb1080 2.478 . S
O1104 C1090 1.257 . S
C1105 C1108 1.380 . S
C1105 C1109 1.374 1_545 S
C1105 C1111 1.507 . S
C1106 C1107 1.387 1_565 S
C1106 C1110 1.391 . S
C1107 C1106 1.387 1_545 S
C1107 C1108 1.384 . S
C1107 H1116 0.930 . S
C1108 C1105 1.380 . S
C1108 C1107 1.384 . S
C1108 H1117 0.931 . S
C1109 C1105 1.374 1_565 S
C1109 C1110 1.390 . S
C1109 H1118 0.930 . S
C1110 C1106 1.391 . S
C1110 C1109 1.390 . S
C1110 H1119 0.930 . S
C1111 Eu1081 2.825 . S
C1111 O1096 1.238 . S
C1111 O1097 1.265 . S
C1111 C1105 1.507 . S
H1112 C1085 0.930 . S
H1113 C1086 0.931 . S
H1114 C1087 0.930 . S
H1115 C1088 0.930 . S
H1116 C1107 0.930 . S
H1117 C1108 0.931 . S
H1118 C1109 0.930 . S
H1119 C1110 0.930 . S
Tb1120 C1130 2.825 . S
Tb1120 O1131 2.347 1_455 S
Tb1120 O1134 2.366 1_455 S
Tb1120 O1139 2.418 . S
Tb1120 O1140 2.384 1_556 S
Tb1120 O1143 2.479 . S
Tb1120 O1144 2.471 1_455 S
Eu1121 O1132 2.418 . S
Eu1121 O1133 2.384 1_554 S
Eu1121 O1136 2.479 . S
Eu1121 O1137 2.471 1_655 S
Eu1121 O1138 2.347 1_655 S
Eu1121 O1141 2.366 1_655 S
Eu1121 C1151 2.825 . S
C1122 O1138 1.259 . S
C1122 O1139 1.265 1_554 S
C1123 O1140 1.255 . S
C1123 O1141 1.265 . S
C1124 C1126 1.380 . S
C1124 C1127 1.374 1_455 S
C1124 C1130 1.507 . S
C1125 C1126 1.384 . S
C1125 C1129 1.387 1_455 S
C1125 H1152 0.930 . S
C1126 C1124 1.380 . S
C1126 C1125 1.384 . S
C1126 H1153 0.931 . S
C1127 C1124 1.374 1_655 S
C1127 C1128 1.390 . S
C1127 H1154 0.930 . S
C1128 C1127 1.390 . S
C1128 C1129 1.391 . S
C1128 H1155 0.930 . S
C1129 C1125 1.387 1_655 S
C1129 C1128 1.391 . S
C1130 Tb1120 2.825 . S
C1130 C1124 1.507 . S
C1130 O1143 1.238 . S
C1130 O1144 1.247 1_455 S
O1131 Tb1120 2.347 1_655 S
O1131 C1135 1.259 . S
O1132 Eu1121 2.418 . S
O1132 C1135 1.265 1_554 S
O1133 Eu1121 2.384 1_556 S
O1133 C1142 1.255 . S
O1134 Tb1120 2.366 1_655 S
O1134 C1142 1.265 . S
C1135 O1131 1.259 . S
C1135 O1132 1.265 1_556 S
O1136 Eu1121 2.479 . S
O1136 C1151 1.238 . S
O1137 Eu1121 2.471 1_455 S
O1137 C1151 1.247 1_455 S
O1138 Eu1121 2.347 1_455 S
O1138 C1122 1.259 . S
O1139 Tb1120 2.418 . S
O1139 C1122 1.265 1_556 S
O1140 Tb1120 2.384 1_554 S
O1140 C1123 1.255 . S
O1141 Eu1121 2.366 1_455 S
O1141 C1123 1.265 . S
C1142 O1133 1.255 . S
C1142 O1134 1.265 . S
O1143 Tb1120 2.479 . S
O1143 C1130 1.238 . S
O1144 Tb1120 2.471 1_655 S
O1144 C1130 1.247 1_655 S
C1145 C1148 1.380 . S
C1145 C1149 1.374 1_655 S
C1145 C1151 1.507 . S
C1146 C1147 1.387 1_455 S
C1146 C1150 1.391 . S
C1147 C1146 1.387 1_655 S
C1147 C1148 1.384 . S
C1147 H1156 0.930 . S
C1148 C1145 1.380 . S
C1148 C1147 1.384 . S
C1148 H1157 0.931 . S
C1149 C1145 1.374 1_455 S
C1149 C1150 1.390 . S
C1149 H1158 0.930 . S
C1150 C1146 1.391 . S
C1150 C1149 1.390 . S
C1150 H1159 0.930 . S
C1151 Eu1121 2.825 . S
C1151 O1136 1.238 . S
C1151 O1137 1.247 1_655 S
C1151 C1145 1.507 . S
H1152 C1125 0.930 . S
H1153 C1126 0.931 . S
H1154 C1127 0.930 . S
H1155 C1128 0.930 . S
H1156 C1147 0.930 . S
H1157 C1148 0.931 . S
H1158 C1149 0.930 . S
H1159 C1150 0.930 . S
Tb1160 C1170 2.825 . S
Tb1160 O1171 2.347 . S
Tb1160 O1174 2.366 . S
Tb1160 O1179 2.418 . S
Tb1160 O1180 2.385 . S
Tb1160 O1183 2.479 . S
Tb1160 O1184 2.471 . S
Eu1161 O1172 2.418 . S
Eu1161 O1173 2.384 1_556 S
Eu1161 O1176 2.479 . S
Eu1161 O1177 2.471 . S
Eu1161 O1178 2.347 . S
Eu1161 O1181 2.366 . S
Eu1161 C1191 2.825 . S
C1162 O1178 1.259 . S
C1162 O1179 1.265 1_556 S
C1163 O1180 1.254 1_556 S
C1163 O1181 1.265 . S
C1164 C1166 1.380 . S
C1164 C1167 1.374 . S
C1164 C1170 1.507 . S
C1165 C1166 1.384 . S
C1165 C1169 1.387 . S
C1165 H1192 0.930 . S
C1166 C1164 1.380 . S
C1166 C1165 1.384 . S
C1166 H1193 0.931 . S
C1167 C1164 1.374 . S
C1167 C1168 1.390 . S
C1167 H1194 0.930 . S
C1168 C1167 1.390 . S
C1168 C1169 1.391 . S
C1168 H1195 0.930 . S
C1169 C1165 1.387 . S
C1169 C1168 1.391 . S
C1170 Tb1160 2.825 . S
C1170 C1164 1.507 . S
C1170 O1183 1.238 . S
C1170 O1184 1.247 . S
O1171 Tb1160 2.347 . S
O1171 C1175 1.259 . S
O1172 Eu1161 2.418 . S
O1172 C1175 1.265 1_556 S
O1173 Eu1161 2.384 1_554 S
O1173 C1182 1.255 . S
O1174 Tb1160 2.366 . S
O1174 C1182 1.265 . S
C1175 O1171 1.259 . S
C1175 O1172 1.265 1_554 S
O1176 Eu1161 2.479 . S
O1176 C1191 1.238 . S
O1177 Eu1161 2.471 . S
O1177 C1191 1.247 . S
O1178 Eu1161 2.347 . S
O1178 C1162 1.259 . S
O1179 Tb1160 2.418 . S
O1179 C1162 1.265 1_554 S
O1180 Tb1160 2.385 . S
O1180 C1163 1.254 1_554 S
O1181 Eu1161 2.366 . S
O1181 C1163 1.265 . S
C1182 O1173 1.255 . S
C1182 O1174 1.265 . S
O1183 Tb1160 2.479 . S
O1183 C1170 1.238 . S
O1184 Tb1160 2.471 . S
O1184 C1170 1.247 . S
C1185 C1188 1.380 . S
C1185 C1189 1.374 . S
C1185 C1191 1.507 . S
C1186 C1187 1.387 . S
C1186 C1190 1.391 . S
C1187 C1186 1.387 . S
C1187 C1188 1.384 . S
C1187 H1196 0.930 . S
C1188 C1185 1.380 . S
C1188 C1187 1.384 . S
C1188 H1197 0.931 . S
C1189 C1185 1.374 . S
C1189 C1190 1.390 . S
C1189 H1198 0.930 . S
C1190 C1186 1.391 . S
C1190 C1189 1.390 . S
C1190 H1199 0.930 . S
C1191 Eu1161 2.825 . S
C1191 O1176 1.238 . S
C1191 O1177 1.247 . S
C1191 C1185 1.507 . S
H1192 C1165 0.930 . S
H1193 C1166 0.931 . S
H1194 C1167 0.930 . S
H1195 C1168 0.930 . S
H1196 C1187 0.930 . S
H1197 C1188 0.931 . S
H1198 C1189 0.930 . S
H1199 C1190 0.930 . S
Tb1200 C1210 2.825 . S
Tb1200 O1211 2.347 . S
Tb1200 O1214 2.366 . S
Tb1200 O1219 2.418 . S
Tb1200 O1220 2.384 . S
Tb1200 O1223 2.479 . S
Tb1200 O1224 2.471 . S
Eu1201 O1212 2.418 . S
Eu1201 O1213 2.384 . S
Eu1201 O1216 2.479 . S
Eu1201 O1217 2.471 . S
Eu1201 O1218 2.347 . S
Eu1201 O1221 2.366 . S
Eu1201 C1231 2.825 . S
C1202 O1218 1.259 . S
C1202 O1219 1.265 . S
C1203 O1220 1.255 . S
C1203 O1221 1.265 . S
C1204 C1206 1.380 . S
C1204 C1207 1.374 . S
C1204 C1210 1.507 . S
C1205 C1206 1.384 . S
C1205 C1209 1.387 . S
C1205 H1232 0.930 . S
C1206 C1204 1.380 . S
C1206 C1205 1.384 . S
C1206 H1233 0.931 . S
C1207 C1204 1.374 . S
C1207 C1208 1.390 . S
C1207 H1234 0.930 . S
C1208 C1207 1.390 . S
C1208 C1209 1.391 . S
C1208 H1235 0.930 . S
C1209 C1205 1.387 . S
C1209 C1208 1.391 . S
C1210 Tb1200 2.825 . S
C1210 C1204 1.507 . S
C1210 O1223 1.238 . S
C1210 O1224 1.247 . S
O1211 Tb1200 2.347 . S
O1211 C1215 1.259 . S
O1212 Eu1201 2.418 . S
O1212 C1215 1.265 . S
O1213 Eu1201 2.384 . S
O1213 C1222 1.255 . S
O1214 Tb1200 2.366 . S
O1214 C1222 1.265 . S
C1215 O1211 1.259 . S
C1215 O1212 1.265 . S
O1216 Eu1201 2.479 . S
O1216 C1231 1.238 . S
O1217 Eu1201 2.471 . S
O1217 C1231 1.247 . S
O1218 Eu1201 2.347 . S
O1218 C1202 1.259 . S
O1219 Tb1200 2.418 . S
O1219 C1202 1.265 . S
O1220 Tb1200 2.384 . S
O1220 C1203 1.255 . S
O1221 Eu1201 2.366 . S
O1221 C1203 1.265 . S
C1222 O1213 1.255 . S
C1222 O1214 1.265 . S
O1223 Tb1200 2.479 . S
O1223 C1210 1.238 . S
O1224 Tb1200 2.471 . S
O1224 C1210 1.247 . S
C1225 C1228 1.380 . S
C1225 C1229 1.374 . S
C1225 C1231 1.507 . S
C1226 C1227 1.387 . S
C1226 C1230 1.391 . S
C1227 C1226 1.387 . S
C1227 C1228 1.384 . S
C1227 H1236 0.930 . S
C1228 C1225 1.380 . S
C1228 C1227 1.384 . S
C1228 H1237 0.931 . S
C1229 C1225 1.374 . S
C1229 C1230 1.390 . S
C1229 H1238 0.930 . S
C1230 C1226 1.391 . S
C1230 C1229 1.390 . S
C1230 H1239 0.930 . S
C1231 Eu1201 2.825 . S
C1231 O1216 1.238 . S
C1231 O1217 1.247 . S
C1231 C1225 1.507 . S
H1232 C1205 0.930 . S
H1233 C1206 0.931 . S
H1234 C1207 0.930 . S
H1235 C1208 0.930 . S
H1236 C1227 0.930 . S
H1237 C1228 0.931 . S
H1238 C1229 0.930 . S
H1239 C1230 0.930 . S
Tb1240 C1250 2.825 . S
Tb1240 O1251 2.347 . S
Tb1240 O1254 2.366 . S
Tb1240 O1259 2.418 . S
Tb1240 O1260 2.384 . S
Tb1240 O1263 2.479 . S
Tb1240 O1264 2.471 . S
Eu1241 O1252 2.418 . S
Eu1241 O1253 2.384 . S
Eu1241 O1256 2.479 . S
Eu1241 O1257 2.471 . S
Eu1241 O1258 2.347 . S
Eu1241 O1261 2.366 . S
Eu1241 C1271 2.825 . S
C1242 O1258 1.259 . S
C1242 O1259 1.265 . S
C1243 O1260 1.255 . S
C1243 O1261 1.265 . S
C1244 C1246 1.380 . S
C1244 C1247 1.374 . S
C1244 C1250 1.507 . S
C1245 C1246 1.384 . S
C1245 C1249 1.387 . S
C1245 H1272 0.930 . S
C1246 C1244 1.380 . S
C1246 C1245 1.384 . S
C1246 H1273 0.931 . S
C1247 C1244 1.374 . S
C1247 C1248 1.390 . S
C1247 H1274 0.930 . S
C1248 C1247 1.390 . S
C1248 C1249 1.391 . S
C1248 H1275 0.930 . S
C1249 C1245 1.387 . S
C1249 C1248 1.391 . S
C1250 Tb1240 2.825 . S
C1250 C1244 1.507 . S
C1250 O1263 1.238 . S
C1250 O1264 1.247 . S
O1251 Tb1240 2.347 . S
O1251 C1255 1.259 . S
O1252 Eu1241 2.418 . S
O1252 C1255 1.265 . S
O1253 Eu1241 2.384 . S
O1253 C1262 1.255 . S
O1254 Tb1240 2.366 . S
O1254 C1262 1.265 . S
C1255 O1251 1.259 . S
C1255 O1252 1.265 . S
O1256 Eu1241 2.479 . S
O1256 C1271 1.238 . S
O1257 Eu1241 2.471 . S
O1257 C1271 1.247 . S
O1258 Eu1241 2.347 . S
O1258 C1242 1.259 . S
O1259 Tb1240 2.418 . S
O1259 C1242 1.265 . S
O1260 Tb1240 2.384 . S
O1260 C1243 1.255 . S
O1261 Eu1241 2.366 . S
O1261 C1243 1.265 . S
C1262 O1253 1.255 . S
C1262 O1254 1.265 . S
O1263 Tb1240 2.479 . S
O1263 C1250 1.238 . S
O1264 Tb1240 2.471 . S
O1264 C1250 1.247 . S
C1265 C1268 1.380 . S
C1265 C1269 1.374 . S
C1265 C1271 1.507 . S
C1266 C1267 1.387 . S
C1266 C1270 1.391 . S
C1267 C1266 1.387 . S
C1267 C1268 1.384 . S
C1267 H1276 0.930 . S
C1268 C1265 1.380 . S
C1268 C1267 1.384 . S
C1268 H1277 0.931 . S
C1269 C1265 1.374 . S
C1269 C1270 1.390 . S
C1269 H1278 0.930 . S
C1270 C1266 1.391 . S
C1270 C1269 1.390 . S
C1270 H1279 0.930 . S
C1271 Eu1241 2.825 . S
C1271 O1256 1.238 . S
C1271 O1257 1.247 . S
C1271 C1265 1.507 . S
H1272 C1245 0.930 . S
H1273 C1246 0.931 . S
H1274 C1247 0.930 . S
H1275 C1248 0.930 . S
H1276 C1267 0.930 . S
H1277 C1268 0.931 . S
H1278 C1269 0.930 . S
H1279 C1270 0.930 . S
Tb1280 C1290 2.825 . S
Tb1280 O1291 2.347 . S
Tb1280 O1294 2.366 . S
Tb1280 O1299 2.418 . S
Tb1280 O1300 2.384 . S
Tb1280 O1303 2.479 . S
Tb1280 O1304 2.471 . S
Eu1281 O1292 2.418 . S
Eu1281 O1293 2.384 . S
Eu1281 O1296 2.479 . S
Eu1281 O1297 2.471 . S
Eu1281 O1298 2.347 . S
Eu1281 O1301 2.366 . S
Eu1281 C1311 2.825 . S
C1282 O1298 1.259 . S
C1282 O1299 1.265 . S
C1283 O1300 1.255 . S
C1283 O1301 1.265 . S
C1284 C1286 1.380 . S
C1284 C1287 1.374 . S
C1284 C1290 1.507 . S
C1285 C1286 1.384 . S
C1285 C1289 1.387 . S
C1285 H1312 0.930 . S
C1286 C1284 1.380 . S
C1286 C1285 1.384 . S
C1286 H1313 0.931 . S
C1287 C1284 1.374 . S
C1287 C1288 1.390 . S
C1287 H1314 0.930 . S
C1288 C1287 1.390 . S
C1288 C1289 1.391 . S
C1288 H1315 0.930 . S
C1289 C1285 1.387 . S
C1289 C1288 1.391 . S
C1290 Tb1280 2.825 . S
C1290 C1284 1.507 . S
C1290 O1303 1.238 . S
C1290 O1304 1.247 . S
O1291 Tb1280 2.347 . S
O1291 C1295 1.259 . S
O1292 Eu1281 2.418 . S
O1292 C1295 1.265 . S
O1293 Eu1281 2.384 . S
O1293 C1302 1.255 . S
O1294 Tb1280 2.366 . S
O1294 C1302 1.265 . S
C1295 O1291 1.259 . S
C1295 O1292 1.265 . S
O1296 Eu1281 2.479 . S
O1296 C1311 1.238 . S
O1297 Eu1281 2.471 . S
O1297 C1311 1.247 . S
O1298 Eu1281 2.347 . S
O1298 C1282 1.259 . S
O1299 Tb1280 2.418 . S
O1299 C1282 1.265 . S
O1300 Tb1280 2.384 . S
O1300 C1283 1.255 . S
O1301 Eu1281 2.366 . S
O1301 C1283 1.265 . S
C1302 O1293 1.255 . S
C1302 O1294 1.265 . S
O1303 Tb1280 2.479 . S
O1303 C1290 1.238 . S
O1304 Tb1280 2.471 . S
O1304 C1290 1.247 . S
C1305 C1308 1.380 . S
C1305 C1309 1.374 . S
C1305 C1311 1.507 . S
C1306 C1307 1.387 . S
C1306 C1310 1.391 . S
C1307 C1306 1.387 . S
C1307 C1308 1.384 . S
C1307 H1316 0.930 . S
C1308 C1305 1.380 . S
C1308 C1307 1.384 . S
C1308 H1317 0.931 . S
C1309 C1305 1.374 . S
C1309 C1310 1.390 . S
C1309 H1318 0.930 . S
C1310 C1306 1.391 . S
C1310 C1309 1.390 . S
C1310 H1319 0.930 . S
C1311 Eu1281 2.825 . S
C1311 O1296 1.238 . S
C1311 O1297 1.247 . S
C1311 C1305 1.507 . S
H1312 C1285 0.930 . S
H1313 C1286 0.931 . S
H1314 C1287 0.930 . S
H1315 C1288 0.930 . S
H1316 C1307 0.930 . S
H1317 C1308 0.931 . S
H1318 C1309 0.930 . S
H1319 C1310 0.930 . S
Tb1320 C1330 2.825 . S
Tb1320 O1331 2.347 . S
Tb1320 O1334 2.366 . S
Tb1320 O1339 2.418 . S
Tb1320 O1340 2.384 . S
Tb1320 O1343 2.479 . S
Tb1320 O1344 2.471 . S
Eu1321 O1332 2.418 . S
Eu1321 O1333 2.384 . S
Eu1321 O1336 2.479 . S
Eu1321 O1337 2.471 . S
Eu1321 O1338 2.347 . S
Eu1321 O1341 2.366 . S
Eu1321 C1351 2.825 . S
C1322 O1338 1.259 . S
C1322 O1339 1.265 . S
C1323 O1340 1.255 . S
C1323 O1341 1.265 . S
C1324 C1326 1.380 . S
C1324 C1327 1.374 . S
C1324 C1330 1.507 . S
C1325 C1326 1.384 . S
C1325 C1329 1.387 . S
C1325 H1352 0.930 . S
C1326 C1324 1.380 . S
C1326 C1325 1.384 . S
C1326 H1353 0.931 . S
C1327 C1324 1.374 . S
C1327 C1328 1.390 . S
C1327 H1354 0.930 . S
C1328 C1327 1.390 . S
C1328 C1329 1.391 . S
C1328 H1355 0.930 . S
C1329 C1325 1.387 . S
C1329 C1328 1.391 . S
C1330 Tb1320 2.825 . S
C1330 C1324 1.507 . S
C1330 O1343 1.238 . S
C1330 O1344 1.247 . S
O1331 Tb1320 2.347 . S
O1331 C1335 1.259 . S
O1332 Eu1321 2.418 . S
O1332 C1335 1.265 . S
O1333 Eu1321 2.384 . S
O1333 C1342 1.255 . S
O1334 Tb1320 2.366 . S
O1334 C1342 1.265 . S
C1335 O1331 1.259 . S
C1335 O1332 1.265 . S
O1336 Eu1321 2.479 . S
O1336 C1351 1.238 . S
O1337 Eu1321 2.471 . S
O1337 C1351 1.247 . S
O1338 Eu1321 2.347 . S
O1338 C1322 1.259 . S
O1339 Tb1320 2.418 . S
O1339 C1322 1.265 . S
O1340 Tb1320 2.384 . S
O1340 C1323 1.255 . S
O1341 Eu1321 2.366 . S
O1341 C1323 1.265 . S
C1342 O1333 1.255 . S
C1342 O1334 1.265 . S
O1343 Tb1320 2.479 . S
O1343 C1330 1.238 . S
O1344 Tb1320 2.471 . S
O1344 C1330 1.247 . S
C1345 C1348 1.380 . S
C1345 C1349 1.374 . S
C1345 C1351 1.507 . S
C1346 C1347 1.387 . S
C1346 C1350 1.391 . S
C1347 C1346 1.387 . S
C1347 C1348 1.384 . S
C1347 H1356 0.930 . S
C1348 C1345 1.380 . S
C1348 C1347 1.384 . S
C1348 H1357 0.931 . S
C1349 C1345 1.374 . S
C1349 C1350 1.390 . S
C1349 H1358 0.930 . S
C1350 C1346 1.391 . S
C1350 C1349 1.390 . S
C1350 H1359 0.930 . S
C1351 Eu1321 2.825 . S
C1351 O1336 1.238 . S
C1351 O1337 1.247 . S
C1351 C1345 1.507 . S
H1352 C1325 0.930 . S
H1353 C1326 0.931 . S
H1354 C1327 0.930 . S
H1355 C1328 0.930 . S
H1356 C1347 0.930 . S
H1357 C1348 0.931 . S
H1358 C1349 0.930 . S
H1359 C1350 0.930 . S
Tb1360 C1370 2.825 . S
Tb1360 O1371 2.347 . S
Tb1360 O1374 2.366 . S
Tb1360 O1379 2.418 . S
Tb1360 O1380 2.384 . S
Tb1360 O1383 2.479 . S
Tb1360 O1384 2.471 . S
Eu1361 O1372 2.418 . S
Eu1361 O1373 2.384 . S
Eu1361 O1376 2.479 . S
Eu1361 O1377 2.471 . S
Eu1361 O1378 2.347 . S
Eu1361 O1381 2.366 . S
Eu1361 C1391 2.825 . S
C1362 O1378 1.259 . S
C1362 O1379 1.265 . S
C1363 O1380 1.255 . S
C1363 O1381 1.265 . S
C1364 C1366 1.380 . S
C1364 C1367 1.374 . S
C1364 C1370 1.507 . S
C1365 C1366 1.384 . S
C1365 C1369 1.387 . S
C1365 H1392 0.930 . S
C1366 C1364 1.380 . S
C1366 C1365 1.384 . S
C1366 H1393 0.931 . S
C1367 C1364 1.374 . S
C1367 C1368 1.390 . S
C1367 H1394 0.930 . S
C1368 C1367 1.390 . S
C1368 C1369 1.391 . S
C1368 H1395 0.930 . S
C1369 C1365 1.387 . S
C1369 C1368 1.391 . S
C1370 Tb1360 2.825 . S
C1370 C1364 1.507 . S
C1370 O1383 1.238 . S
C1370 O1384 1.247 . S
O1371 Tb1360 2.347 . S
O1371 C1375 1.259 . S
O1372 Eu1361 2.418 . S
O1372 C1375 1.265 . S
O1373 Eu1361 2.384 . S
O1373 C1382 1.255 . S
O1374 Tb1360 2.366 . S
O1374 C1382 1.265 . S
C1375 O1371 1.259 . S
C1375 O1372 1.265 . S
O1376 Eu1361 2.479 . S
O1376 C1391 1.238 . S
O1377 Eu1361 2.471 . S
O1377 C1391 1.247 . S
O1378 Eu1361 2.347 . S
O1378 C1362 1.259 . S
O1379 Tb1360 2.418 . S
O1379 C1362 1.265 . S
O1380 Tb1360 2.384 . S
O1380 C1363 1.255 . S
O1381 Eu1361 2.366 . S
O1381 C1363 1.265 . S
C1382 O1373 1.255 . S
C1382 O1374 1.265 . S
O1383 Tb1360 2.479 . S
O1383 C1370 1.238 . S
O1384 Tb1360 2.471 . S
O1384 C1370 1.247 . S
C1385 C1388 1.380 . S
C1385 C1389 1.374 . S
C1385 C1391 1.507 . S
C1386 C1387 1.387 . S
C1386 C1390 1.391 . S
C1387 C1386 1.387 . S
C1387 C1388 1.384 . S
C1387 H1396 0.930 . S
C1388 C1385 1.380 . S
C1388 C1387 1.384 . S
C1388 H1397 0.931 . S
C1389 C1385 1.374 . S
C1389 C1390 1.390 . S
C1389 H1398 0.930 . S
C1390 C1386 1.391 . S
C1390 C1389 1.390 . S
C1390 H1399 0.930 . S
C1391 Eu1361 2.825 . S
C1391 O1376 1.238 . S
C1391 O1377 1.247 . S
C1391 C1385 1.507 . S
H1392 C1365 0.930 . S
H1393 C1366 0.931 . S
H1394 C1367 0.930 . S
H1395 C1368 0.930 . S
H1396 C1387 0.930 . S
H1397 C1388 0.931 . S
H1398 C1389 0.930 . S
H1399 C1390 0.930 . S
Tb1400 C1410 2.825 . S
Tb1400 O1411 2.347 . S
Tb1400 O1414 2.366 . S
Tb1400 O1419 2.418 . S
Tb1400 O1420 2.384 . S
Tb1400 O1423 2.479 . S
Tb1400 O1424 2.471 . S
Eu1401 O1412 2.418 . S
Eu1401 O1413 2.384 . S
Eu1401 O1416 2.479 . S
Eu1401 O1417 2.471 . S
Eu1401 O1418 2.347 . S
Eu1401 O1421 2.366 . S
Eu1401 C1431 2.825 . S
C1402 O1418 1.259 . S
C1402 O1419 1.265 . S
C1403 O1420 1.255 . S
C1403 O1421 1.265 . S
C1404 C1406 1.380 . S
C1404 C1407 1.374 . S
C1404 C1410 1.507 . S
C1405 C1406 1.384 . S
C1405 C1409 1.387 . S
C1405 H1432 0.930 . S
C1406 C1404 1.380 . S
C1406 C1405 1.384 . S
C1406 H1433 0.931 . S
C1407 C1404 1.374 . S
C1407 C1408 1.390 . S
C1407 H1434 0.930 . S
C1408 C1407 1.390 . S
C1408 C1409 1.391 . S
C1408 H1435 0.930 . S
C1409 C1405 1.387 . S
C1409 C1408 1.391 . S
C1410 Tb1400 2.825 . S
C1410 C1404 1.507 . S
C1410 O1423 1.238 . S
C1410 O1424 1.247 . S
O1411 Tb1400 2.347 . S
O1411 C1415 1.259 . S
O1412 Eu1401 2.418 . S
O1412 C1415 1.265 . S
O1413 Eu1401 2.384 . S
O1413 C1422 1.255 . S
O1414 Tb1400 2.366 . S
O1414 C1422 1.265 . S
C1415 O1411 1.259 . S
C1415 O1412 1.265 . S
O1416 Eu1401 2.479 . S
O1416 C1431 1.238 . S
O1417 Eu1401 2.471 . S
O1417 C1431 1.247 . S
O1418 Eu1401 2.347 . S
O1418 C1402 1.259 . S
O1419 Tb1400 2.418 . S
O1419 C1402 1.265 . S
O1420 Tb1400 2.384 . S
O1420 C1403 1.255 . S
O1421 Eu1401 2.366 . S
O1421 C1403 1.265 . S
C1422 O1413 1.255 . S
C1422 O1414 1.265 . S
O1423 Tb1400 2.479 . S
O1423 C1410 1.238 . S
O1424 Tb1400 2.471 . S
O1424 C1410 1.247 . S
C1425 C1428 1.380 . S
C1425 C1429 1.374 . S
C1425 C1431 1.507 . S
C1426 C1427 1.387 . S
C1426 C1430 1.391 . S
C1427 C1426 1.387 . S
C1427 C1428 1.384 . S
C1427 H1436 0.930 . S
C1428 C1425 1.380 . S
C1428 C1427 1.384 . S
C1428 H1437 0.931 . S
C1429 C1425 1.374 . S
C1429 C1430 1.390 . S
C1429 H1438 0.930 . S
C1430 C1426 1.391 . S
C1430 C1429 1.390 . S
C1430 H1439 0.930 . S
C1431 Eu1401 2.825 . S
C1431 O1416 1.238 . S
C1431 O1417 1.247 . S
C1431 C1425 1.507 . S
H1432 C1405 0.930 . S
H1433 C1406 0.931 . S
H1434 C1407 0.930 . S
H1435 C1408 0.930 . S
H1436 C1427 0.930 . S
H1437 C1428 0.931 . S
H1438 C1429 0.930 . S
H1439 C1430 0.930 . S
C1440 C1441 1.363 . S
C1440 C1446 1.379 . S
C1440 N1448 1.356 . S
C1441 C1440 1.363 . S
C1441 C1447 1.363 . S
C1442 C1443 1.363 . S
C1442 C1447 1.379 . S
C1442 N1449 1.356 1_554 S
C1443 C1442 1.363 . S
C1443 C1446 1.363 . S
N1444 C1446 1.356 . S
N1444 H1456 0.984 . S
N1444 H1457 0.985 . S
N1445 C1447 1.356 . S
N1445 H1450 0.984 . S
N1445 H1451 0.985 1_554 S
C1446 C1440 1.379 . S
C1446 C1443 1.363 . S
C1446 N1444 1.356 . S
C1447 C1441 1.363 . S
C1447 C1442 1.379 . S
C1447 N1445 1.356 . S
N1448 C1440 1.356 . S
N1448 H1454 0.984 . S
N1448 H1455 0.984 . S
N1449 C1442 1.356 1_556 S
N1449 H1452 0.984 . S
N1449 H1453 0.985 . S
H1450 N1445 0.984 . S
H1451 N1445 0.985 1_556 S
H1452 N1449 0.984 . S
H1453 N1449 0.985 . S
H1454 N1448 0.984 . S
H1455 N1448 0.984 . S
H1456 N1444 0.984 . S
H1457 N1444 0.985 . S
C1458 C1459 1.363 . S
C1458 C1464 1.379 . S
C1458 N1466 1.356 . S
C1459 C1458 1.363 . S
C1459 C1465 1.363 . S
C1460 C1461 1.363 . S
C1460 C1465 1.379 . S
C1460 N1467 1.348 1_554 S
C1461 C1460 1.363 . S
C1461 C1464 1.363 . S
N1462 C1464 1.356 . S
N1462 H1474 0.984 . S
N1462 H1475 0.985 . S
N1463 C1465 1.356 . S
N1463 H1468 0.984 . S
N1463 H1469 0.985 1_554 S
C1464 C1458 1.379 . S
C1464 C1461 1.363 . S
C1464 N1462 1.356 . S
C1465 C1459 1.363 . S
C1465 C1460 1.379 . S
C1465 N1463 1.356 . S
N1466 C1458 1.356 . S
N1466 H1472 0.984 . S
N1466 H1473 0.984 . S
N1467 C1460 1.348 1_556 S
N1467 H1470 0.983 1_556 S
N1467 H1471 0.993 . S
H1468 N1463 0.984 . S
H1469 N1463 0.985 1_556 S
H1470 N1467 0.983 1_554 S
H1471 N1467 0.993 . S
H1472 N1466 0.984 . S
H1473 N1466 0.984 . S
H1474 N1462 0.984 . S
H1475 N1462 0.985 . S
C1476 C1477 1.363 . S
C1476 C1482 1.379 . S
C1476 N1484 1.356 . S
C1477 C1476 1.363 . S
C1477 C1483 1.363 . S
C1478 C1479 1.411 . S
C1478 C1483 1.376 . S
C1478 N1485 1.324 1_554 S
C1479 C1478 1.411 . S
C1479 C1482 1.363 . S
N1480 C1482 1.356 . S
N1480 H1492 0.984 . S
N1480 H1493 0.985 . S
N1481 C1483 1.356 1_556 S
N1481 H1486 0.984 . S
N1481 H1487 0.985 . S
C1482 C1476 1.379 . S
C1482 C1479 1.363 . S
C1482 N1480 1.356 . S
C1483 C1477 1.363 . S
C1483 C1478 1.376 . S
C1483 N1481 1.356 1_554 S
N1484 C1476 1.356 . S
N1484 H1490 0.984 . S
N1484 H1491 0.984 . S
N1485 C1478 1.324 1_556 S
N1485 H1488 0.984 . S
N1485 H1489 0.985 . S
H1486 N1481 0.984 . S
H1487 N1481 0.985 . S
H1488 N1485 0.984 . S
H1489 N1485 0.985 . S
H1490 N1484 0.984 . S
H1491 N1484 0.984 . S
H1492 N1480 0.984 . S
H1493 N1480 0.985 . S
C1494 C1495 1.363 . S
C1494 C1500 1.379 . S
C1494 N1502 1.356 . S
C1495 C1494 1.363 . S
C1495 C1501 1.363 . S
C1496 C1497 1.363 . S
C1496 C1501 1.379 . S
C1496 N1503 1.356 1_556 S
C1497 C1496 1.363 . S
C1497 C1500 1.363 . S
N1498 C1500 1.356 . S
N1498 H1510 0.984 . S
N1498 H1511 0.985 . S
N1499 C1501 1.356 1_554 S
N1499 H1504 0.984 1_554 S
N1499 H1505 0.985 . S
C1500 C1494 1.379 . S
C1500 C1497 1.363 . S
C1500 N1498 1.356 . S
C1501 C1495 1.363 . S
C1501 C1496 1.379 . S
C1501 N1499 1.356 1_556 S
N1502 C1494 1.356 . S
N1502 H1508 0.984 . S
N1502 H1509 0.984 . S
N1503 C1496 1.356 1_554 S
N1503 H1506 0.984 . S
N1503 H1507 0.985 . S
H1504 N1499 0.984 1_556 S
H1505 N1499 0.985 . S
H1506 N1503 0.984 . S
H1507 N1503 0.985 . S
H1508 N1502 0.984 . S
H1509 N1502 0.984 . S
H1510 N1498 0.984 . S
H1511 N1498 0.985 . S
C1512 C1513 1.363 . S
C1512 C1518 1.379 . S
C1512 N1520 1.356 . S
C1513 C1512 1.363 . S
C1513 C1519 1.363 . S
C1514 C1515 1.363 . S
C1514 C1519 1.379 . S
C1514 N1521 1.356 . S
C1515 C1514 1.363 . S
C1515 C1518 1.363 . S
N1516 C1518 1.356 1_554 S
N1516 H1528 0.984 . S
N1516 H1529 0.985 . S
N1517 C1519 1.356 . S
N1517 H1522 0.984 . S
N1517 H1523 0.985 . S
C1518 C1512 1.379 . S
C1518 C1515 1.363 . S
C1518 N1516 1.356 1_556 S
C1519 C1513 1.363 . S
C1519 C1514 1.379 . S
C1519 N1517 1.356 . S
N1520 C1512 1.356 . S
N1520 H1526 0.984 . S
N1520 H1527 0.984 . S
N1521 C1514 1.356 . S
N1521 H1524 0.984 . S
N1521 H1525 0.985 . S
H1522 N1517 0.984 . S
H1523 N1517 0.985 . S
H1524 N1521 0.984 . S
H1525 N1521 0.985 . S
H1526 N1520 0.984 . S
H1527 N1520 0.984 . S
H1528 N1516 0.984 . S
H1529 N1516 0.985 . S
C1530 C1531 1.363 . S
C1530 C1536 1.379 . S
C1530 N1538 1.356 . S
C1531 C1530 1.363 . S
C1531 C1537 1.363 . S
C1532 C1533 1.363 . S
C1532 C1537 1.379 . S
C1532 N1539 1.356 1_556 S
C1533 C1532 1.363 . S
C1533 C1536 1.363 . S
N1534 C1536 1.356 . S
N1534 H1546 0.984 1_545 S
N1534 H1547 0.985 . S
N1535 C1537 1.356 . S
N1535 H1540 0.984 . S
N1535 H1541 0.985 1_556 S
C1536 C1530 1.379 . S
C1536 C1533 1.363 . S
C1536 N1534 1.356 . S
C1537 C1531 1.363 . S
C1537 C1532 1.379 . S
C1537 N1535 1.356 . S
N1538 C1530 1.356 . S
N1538 H1544 0.973 1_545 S
N1538 H1545 0.984 . S
N1539 C1532 1.356 1_554 S
N1539 H1542 0.984 . S
N1539 H1543 0.985 . S
H1540 N1535 0.984 . S
H1541 N1535 0.985 1_554 S
H1542 N1539 0.984 . S
H1543 N1539 0.985 . S
H1544 N1538 0.973 1_565 S
H1545 N1538 0.984 . S
H1546 N1534 0.984 1_565 S
H1547 N1534 0.985 . S
C1548 C1549 1.363 . S
C1548 C1554 1.379 . S
C1548 N1556 1.356 . S
C1549 C1548 1.363 . S
C1549 C1555 1.363 . S
C1550 C1551 1.363 . S
C1550 C1555 1.379 . S
C1550 N1557 1.356 1_556 S
C1551 C1550 1.363 . S
C1551 C1554 1.363 . S
N1552 C1554 1.356 . S
N1552 H1564 0.984 . S
N1552 H1565 0.985 . S
N1553 C1555 1.356 . S
N1553 H1558 0.984 . S
N1553 H1559 0.985 1_556 S
C1554 C1548 1.379 . S
C1554 C1551 1.363 . S
C1554 N1552 1.356 . S
C1555 C1549 1.363 . S
C1555 C1550 1.379 . S
C1555 N1553 1.356 . S
N1556 C1548 1.356 . S
N1556 H1562 0.984 . S
N1556 H1563 0.984 . S
N1557 C1550 1.356 1_554 S
N1557 H1560 0.984 . S
N1557 H1561 0.985 . S
H1558 N1553 0.984 . S
H1559 N1553 0.985 1_554 S
H1560 N1557 0.984 . S
H1561 N1557 0.985 . S
H1562 N1556 0.984 . S
H1563 N1556 0.984 . S
H1564 N1552 0.984 . S
H1565 N1552 0.985 . S
C1566 C1567 1.363 . S
C1566 C1572 1.379 . S
C1566 N1574 1.356 . S
C1567 C1566 1.363 . S
C1567 C1573 1.363 . S
C1568 C1569 1.363 . S
C1568 C1573 1.379 . S
C1568 N1575 1.356 . S
C1569 C1568 1.363 . S
C1569 C1572 1.363 . S
N1570 C1572 1.356 . S
N1570 H1582 0.984 . S
N1570 H1583 0.985 . S
N1571 C1573 1.356 . S
N1571 H1576 0.984 . S
N1571 H1577 0.985 . S
C1572 C1566 1.379 . S
C1572 C1569 1.363 . S
C1572 N1570 1.356 . S
C1573 C1567 1.363 . S
C1573 C1568 1.379 . S
C1573 N1571 1.356 . S
N1574 C1566 1.356 . S
N1574 H1580 0.984 . S
N1574 H1581 0.984 . S
N1575 C1568 1.356 . S
N1575 H1578 0.984 . S
N1575 H1579 0.985 . S
H1576 N1571 0.984 . S
H1577 N1571 0.985 . S
H1578 N1575 0.984 . S
H1579 N1575 0.985 . S
H1580 N1574 0.984 . S
H1581 N1574 0.984 . S
H1582 N1570 0.984 . S
H1583 N1570 0.985 . S
C1584 C1585 1.363 . S
C1584 C1590 1.378 . S
C1584 N1592 1.356 1_556 S
C1585 C1584 1.363 . S
C1585 C1591 1.363 . S
C1586 C1587 1.363 . S
C1586 C1591 1.379 . S
C1586 N1593 1.356 . S
C1587 C1586 1.363 . S
C1587 C1590 1.370 . S
N1588 C1590 1.352 1_554 S
N1588 H1600 0.984 . S
N1588 H1601 0.985 . S
N1589 C1591 1.356 . S
N1589 H1594 0.984 . S
N1589 H1595 0.985 . S
C1590 C1584 1.378 . S
C1590 C1587 1.370 . S
C1590 N1588 1.352 1_556 S
C1591 C1585 1.363 . S
C1591 C1586 1.379 . S
C1591 N1589 1.356 . S
N1592 C1584 1.356 1_554 S
N1592 H1598 0.984 . S
N1592 H1599 0.984 . S
N1593 C1586 1.356 . S
N1593 H1596 0.984 . S
N1593 H1597 0.985 . S
H1594 N1589 0.984 . S
H1595 N1589 0.985 . S
H1596 N1593 0.984 . S
H1597 N1593 0.985 . S
H1598 N1592 0.984 . S
H1599 N1592 0.984 . S
H1600 N1588 0.984 . S
H1601 N1588 0.985 . S
C1602 C1603 1.363 . S
C1602 C1608 1.379 . S
C1602 N1610 1.356 . S
C1603 C1602 1.363 . S
C1603 C1609 1.363 . S
C1604 C1605 1.363 . S
C1604 C1609 1.379 . S
C1604 N1611 1.356 1_554 S
C1605 C1604 1.363 . S
C1605 C1608 1.363 . S
N1606 C1608 1.356 . S
N1606 H1618 0.984 . S
N1606 H1619 0.985 . S
N1607 C1609 1.326 1_556 S
N1607 H1612 0.969 1_556 S
N1607 H1613 1.033 . S
C1608 C1602 1.379 . S
C1608 C1605 1.363 . S
C1608 N1606 1.356 . S
C1609 C1603 1.363 . S
C1609 C1604 1.379 . S
C1609 N1607 1.326 1_554 S
N1610 C1602 1.356 . S
N1610 H1616 0.984 . S
N1610 H1617 0.984 . S
N1611 C1604 1.356 1_556 S
N1611 H1614 0.984 . S
N1611 H1615 0.985 . S
H1612 N1607 0.969 1_554 S
H1613 N1607 1.033 . S
H1614 N1611 0.984 . S
H1615 N1611 0.985 . S
H1616 N1610 0.984 . S
H1617 N1610 0.984 . S
H1618 N1606 0.984 . S
H1619 N1606 0.985 . S
C1620 C1621 1.363 . S
C1620 C1626 1.379 . S
C1620 N1628 1.356 . S
C1621 C1620 1.363 . S
C1621 C1627 1.363 . S
C1622 C1623 1.363 . S
C1622 C1627 1.379 . S
C1622 N1629 1.356 . S
C1623 C1622 1.363 . S
C1623 C1626 1.363 . S
N1624 C1626 1.356 . S
N1624 H1636 0.984 . S
N1624 H1637 0.985 . S
N1625 C1627 1.356 . S
N1625 H1630 0.984 . S
N1625 H1631 0.985 . S
C1626 C1620 1.379 . S
C1626 C1623 1.363 . S
C1626 N1624 1.356 . S
C1627 C1621 1.363 . S
C1627 C1622 1.379 . S
C1627 N1625 1.356 . S
N1628 C1620 1.356 . S
N1628 H1634 0.984 . S
N1628 H1635 0.984 . S
N1629 C1622 1.356 . S
N1629 H1632 0.984 . S
N1629 H1633 0.985 . S
H1630 N1625 0.984 . S
H1631 N1625 0.985 . S
H1632 N1629 0.984 . S
H1633 N1629 0.985 . S
H1634 N1628 0.984 . S
H1635 N1628 0.984 . S
H1636 N1624 0.984 . S
H1637 N1624 0.985 . S
C1638 C1639 1.363 . S
C1638 C1644 1.379 . S
C1638 N1646 1.356 . S
C1639 C1638 1.363 . S
C1639 C1645 1.363 . S
C1640 C1641 1.363 . S
C1640 C1645 1.379 . S
C1640 N1647 1.356 . S
C1641 C1640 1.363 . S
C1641 C1644 1.363 . S
N1642 C1644 1.356 1_556 S
N1642 H1654 0.984 . S
N1642 H1655 0.985 . S
N1643 C1645 1.356 . S
N1643 H1648 0.984 . S
N1643 H1649 0.985 . S
C1644 C1638 1.379 . S
C1644 C1641 1.363 . S
C1644 N1642 1.356 1_554 S
C1645 C1639 1.363 . S
C1645 C1640 1.379 . S
C1645 N1643 1.356 . S
N1646 C1638 1.356 . S
N1646 H1652 0.984 1_554 S
N1646 H1653 0.984 . S
N1647 C1640 1.356 . S
N1647 H1650 0.984 . S
N1647 H1651 0.985 1_565 S
H1648 N1643 0.984 . S
H1649 N1643 0.985 . S
H1650 N1647 0.984 . S
H1651 N1647 0.985 1_545 S
H1652 N1646 0.984 1_556 S
H1653 N1646 0.984 . S
H1654 N1642 0.984 . S
H1655 N1642 0.985 . S
C1656 C1657 1.363 . S
C1656 C1662 1.379 . S
C1656 N1664 1.356 . S
C1657 C1656 1.363 . S
C1657 C1663 1.363 . S
C1658 C1659 1.363 . S
C1658 C1663 1.379 . S
C1658 N1665 1.356 . S
C1659 C1658 1.363 . S
C1659 C1662 1.363 . S
N1660 C1662 1.356 . S
N1660 H1672 0.984 . S
N1660 H1673 0.985 . S
N1661 C1663 1.356 1_655 S
N1661 H1666 0.984 . S
N1661 H1667 0.985 . S
C1662 C1656 1.379 . S
C1662 C1659 1.363 . S
C1662 N1660 1.356 . S
C1663 C1657 1.363 . S
C1663 C1658 1.379 . S
C1663 N1661 1.356 1_455 S
N1664 C1656 1.356 . S
N1664 H1670 0.984 . S
N1664 H1671 0.984 1_455 S
N1665 C1658 1.356 . S
N1665 H1668 0.984 . S
N1665 H1669 0.985 . S
H1666 N1661 0.984 . S
H1667 N1661 0.985 . S
H1668 N1665 0.984 . S
H1669 N1665 0.985 . S
H1670 N1664 0.984 . S
H1671 N1664 0.984 1_655 S
H1672 N1660 0.984 . S
H1673 N1660 0.985 . S
C1674 C1675 1.363 . S
C1674 C1680 1.379 . S
C1674 N1682 1.356 . S
C1675 C1674 1.363 . S
C1675 C1681 1.363 . S
C1676 C1677 1.363 . S
C1676 C1681 1.379 . S
C1676 N1683 1.356 . S
C1677 C1676 1.363 . S
C1677 C1680 1.363 . S
N1678 C1680 1.356 . S
N1678 H1690 0.984 . S
N1678 H1691 0.985 . S
N1679 C1681 1.356 . S
N1679 H1684 0.984 . S
N1679 H1685 0.985 . S
C1680 C1674 1.379 . S
C1680 C1677 1.363 . S
C1680 N1678 1.356 . S
C1681 C1675 1.363 . S
C1681 C1676 1.379 . S
C1681 N1679 1.356 . S
N1682 C1674 1.356 . S
N1682 H1688 0.984 . S
N1682 H1689 0.984 . S
N1683 C1676 1.356 . S
N1683 H1686 0.984 . S
N1683 H1687 0.985 . S
H1684 N1679 0.984 . S
H1685 N1679 0.985 . S
H1686 N1683 0.984 . S
H1687 N1683 0.985 . S
H1688 N1682 0.984 . S
H1689 N1682 0.984 . S
H1690 N1678 0.984 . S
H1691 N1678 0.985 . S
C1692 C1693 1.363 1_565 S
C1692 C1698 1.379 . S
C1692 N1700 1.356 1_565 S
C1693 C1692 1.363 1_545 S
C1693 C1699 1.363 1_545 S
C1694 C1695 1.363 . S
C1694 C1699 1.379 . S
C1694 N1701 1.356 . S
C1695 C1694 1.363 . S
C1695 C1698 1.363 . S
N1696 C1698 1.356 . S
N1696 H1708 0.984 . S
N1696 H1709 0.985 . S
N1697 C1699 1.356 1_545 S
N1697 H1702 0.984 . S
N1697 H1703 0.985 . S
C1698 C1692 1.379 . S
C1698 C1695 1.363 . S
C1698 N1696 1.356 . S
C1699 C1693 1.363 1_565 S
C1699 C1694 1.379 . S
C1699 N1697 1.356 1_565 S
N1700 C1692 1.356 1_545 S
N1700 H1706 0.984 . S
N1700 H1707 0.984 . S
N1701 C1694 1.356 . S
N1701 H1704 0.984 . S
N1701 H1705 0.985 . S
H1702 N1697 0.984 . S
H1703 N1697 0.985 . S
H1704 N1701 0.984 . S
H1705 N1701 0.985 . S
H1706 N1700 0.984 . S
H1707 N1700 0.984 . S
H1708 N1696 0.984 . S
H1709 N1696 0.985 . S
C1710 C1711 1.363 . S
C1710 C1716 1.379 . S
C1710 N1718 1.356 . S
C1711 C1710 1.363 . S
C1711 C1717 1.363 . S
C1712 C1713 1.363 . S
C1712 C1717 1.379 . S
C1712 N1719 1.356 . S
C1713 C1712 1.363 . S
C1713 C1716 1.363 . S
N1714 C1716 1.356 . S
N1714 H1726 0.984 . S
N1714 H1727 0.985 . S
N1715 C1717 1.356 . S
N1715 H1720 0.984 . S
N1715 H1721 0.985 . S
C1716 C1710 1.379 . S
C1716 C1713 1.363 . S
C1716 N1714 1.356 . S
C1717 C1711 1.363 . S
C1717 C1712 1.379 . S
C1717 N1715 1.356 . S
N1718 C1710 1.356 . S
N1718 H1724 0.984 . S
N1718 H1725 0.984 . S
N1719 C1712 1.356 . S
N1719 H1722 0.984 . S
N1719 H1723 0.985 . S
H1720 N1715 0.984 . S
H1721 N1715 0.985 . S
H1722 N1719 0.984 . S
H1723 N1719 0.985 . S
H1724 N1718 0.984 . S
H1725 N1718 0.984 . S
H1726 N1714 0.984 . S
H1727 N1714 0.985 . S
C1728 C1729 1.363 . S
C1728 C1734 1.379 . S
C1728 N1736 1.356 . S
C1729 C1728 1.363 . S
C1729 C1735 1.363 . S
C1730 C1731 1.363 . S
C1730 C1735 1.379 . S
C1730 N1737 1.356 . S
C1731 C1730 1.363 . S
C1731 C1734 1.363 . S
N1732 C1734 1.356 . S
N1732 H1744 0.984 . S
N1732 H1745 0.985 . S
N1733 C1735 1.356 . S
N1733 H1738 0.984 . S
N1733 H1739 0.985 . S
C1734 C1728 1.379 . S
C1734 C1731 1.363 . S
C1734 N1732 1.356 . S
C1735 C1729 1.363 . S
C1735 C1730 1.379 . S
C1735 N1733 1.356 . S
N1736 C1728 1.356 . S
N1736 H1742 0.984 . S
N1736 H1743 0.984 . S
N1737 C1730 1.356 . S
N1737 H1740 0.984 . S
N1737 H1741 0.985 . S
H1738 N1733 0.984 . S
H1739 N1733 0.985 . S
H1740 N1737 0.984 . S
H1741 N1737 0.985 . S
H1742 N1736 0.984 . S
H1743 N1736 0.984 . S
H1744 N1732 0.984 . S
H1745 N1732 0.985 . S
C1746 C1747 1.363 . S
C1746 C1752 1.379 . S
C1746 N1754 1.356 . S
C1747 C1746 1.363 . S
C1747 C1753 1.363 . S
C1748 C1749 1.363 . S
C1748 C1753 1.379 . S
C1748 N1755 1.356 . S
C1749 C1748 1.363 . S
C1749 C1752 1.363 . S
N1750 C1752 1.356 . S
N1750 H1762 0.984 . S
N1750 H1763 0.985 . S
N1751 C1753 1.356 . S
N1751 H1756 0.984 . S
N1751 H1757 0.985 . S
C1752 C1746 1.379 . S
C1752 C1749 1.363 . S
C1752 N1750 1.356 . S
C1753 C1747 1.363 . S
C1753 C1748 1.379 . S
C1753 N1751 1.356 . S
N1754 C1746 1.356 . S
N1754 H1760 0.984 . S
N1754 H1761 0.984 . S
N1755 C1748 1.356 . S
N1755 H1758 0.984 . S
N1755 H1759 0.985 . S
H1756 N1751 0.984 . S
H1757 N1751 0.985 . S
H1758 N1755 0.984 . S
H1759 N1755 0.985 . S
H1760 N1754 0.984 . S
H1761 N1754 0.984 . S
H1762 N1750 0.984 . S
H1763 N1750 0.985 . S
C1764 C1765 1.363 . S
C1764 C1770 1.379 . S
C1764 N1772 1.356 . S
C1765 C1764 1.363 . S
C1765 C1771 1.363 . S
C1766 C1767 1.363 . S
C1766 C1771 1.379 . S
C1766 N1773 1.356 . S
C1767 C1766 1.363 . S
C1767 C1770 1.363 . S
N1768 C1770 1.356 . S
N1768 H1780 0.984 . S
N1768 H1781 0.985 . S
N1769 C1771 1.356 . S
N1769 H1774 0.984 . S
N1769 H1775 0.985 . S
C1770 C1764 1.379 . S
C1770 C1767 1.363 . S
C1770 N1768 1.356 . S
C1771 C1765 1.363 . S
C1771 C1766 1.379 . S
C1771 N1769 1.356 . S
N1772 C1764 1.356 . S
N1772 H1778 0.984 . S
N1772 H1779 0.984 . S
N1773 C1766 1.356 . S
N1773 H1776 0.984 . S
N1773 H1777 0.985 . S
H1774 N1769 0.984 . S
H1775 N1769 0.985 . S
H1776 N1773 0.984 . S
H1777 N1773 0.985 . S
H1778 N1772 0.984 . S
H1779 N1772 0.984 . S
H1780 N1768 0.984 . S
H1781 N1768 0.985 . S
C1782 C1783 1.363 . S
C1782 C1788 1.379 . S
C1782 N1790 1.356 . S
C1783 C1782 1.363 . S
C1783 C1789 1.363 . S
C1784 C1785 1.363 . S
C1784 C1789 1.379 . S
C1784 N1791 1.356 . S
C1785 C1784 1.363 . S
C1785 C1788 1.363 . S
N1786 C1788 1.356 . S
N1786 H1798 0.984 . S
N1786 H1799 0.985 . S
N1787 C1789 1.356 . S
N1787 H1792 0.984 . S
N1787 H1793 0.985 . S
C1788 C1782 1.379 . S
C1788 C1785 1.363 . S
C1788 N1786 1.356 . S
C1789 C1783 1.363 . S
C1789 C1784 1.379 . S
C1789 N1787 1.356 . S
N1790 C1782 1.356 . S
N1790 H1796 0.984 . S
N1790 H1797 0.984 . S
N1791 C1784 1.356 . S
N1791 H1794 0.984 . S
N1791 H1795 0.985 . S
H1792 N1787 0.984 . S
H1793 N1787 0.985 . S
H1794 N1791 0.984 . S
H1795 N1791 0.985 . S
H1796 N1790 0.984 . S
H1797 N1790 0.984 . S
H1798 N1786 0.984 . S
H1799 N1786 0.985 . S
C1800 C1801 1.363 . S
C1800 C1806 1.379 . S
C1800 N1808 1.356 . S
C1801 C1800 1.363 . S
C1801 C1807 1.363 . S
C1802 C1803 1.363 . S
C1802 C1807 1.379 . S
C1802 N1809 1.356 . S
C1803 C1802 1.363 . S
C1803 C1806 1.363 . S
N1804 C1806 1.356 . S
N1804 H1816 0.984 . S
N1804 H1817 0.985 . S
N1805 C1807 1.356 . S
N1805 H1810 0.984 . S
N1805 H1811 0.985 . S
C1806 C1800 1.379 . S
C1806 C1803 1.363 . S
C1806 N1804 1.356 . S
C1807 C1801 1.363 . S
C1807 C1802 1.379 . S
C1807 N1805 1.356 . S
N1808 C1800 1.356 . S
N1808 H1814 0.984 . S
N1808 H1815 0.984 . S
N1809 C1802 1.356 . S
N1809 H1812 0.984 . S
N1809 H1813 0.985 . S
H1810 N1805 0.984 . S
H1811 N1805 0.985 . S
H1812 N1809 0.984 . S
H1813 N1809 0.985 . S
H1814 N1808 0.984 . S
H1815 N1808 0.984 . S
H1816 N1804 0.984 . S
H1817 N1804 0.985 . S
C1818 C1819 1.338 1_565 S
C1818 C1824 1.379 . S
C1818 N1826 1.356 1_565 S
C1819 C1818 1.338 1_545 S
C1819 C1825 1.357 1_545 S
C1820 C1821 1.363 . S
C1820 C1825 1.379 . S
C1820 N1827 1.356 . S
C1821 C1820 1.363 . S
C1821 C1824 1.363 . S
N1822 C1824 1.356 . S
N1822 H1834 0.984 . S
N1822 H1835 0.985 . S
N1823 C1825 1.356 1_545 S
N1823 H1828 0.984 . S
N1823 H1829 0.986 1_545 S
C1824 C1818 1.379 . S
C1824 C1821 1.363 . S
C1824 N1822 1.356 . S
C1825 C1819 1.357 1_565 S
C1825 C1820 1.379 . S
C1825 N1823 1.356 1_565 S
N1826 C1818 1.356 1_545 S
N1826 H1832 0.984 . S
N1826 H1833 0.984 . S
N1827 C1820 1.356 . S
N1827 H1830 0.984 . S
N1827 H1831 0.985 . S
H1828 N1823 0.984 . S
H1829 N1823 0.986 1_565 S
H1830 N1827 0.984 . S
H1831 N1827 0.985 . S
H1832 N1826 0.984 . S
H1833 N1826 0.984 . S
H1834 N1822 0.984 . S
H1835 N1822 0.985 . S
C1836 C1837 1.363 . S
C1836 C1842 1.379 . S
C1836 N1844 1.356 . S
C1837 C1836 1.363 . S
C1837 C1843 1.363 . S
C1838 C1839 1.363 . S
C1838 C1843 1.379 . S
C1838 N1845 1.356 . S
C1839 C1838 1.363 . S
C1839 C1842 1.363 . S
N1840 C1842 1.356 . S
N1840 H1852 0.984 . S
N1840 H1853 0.985 . S
N1841 C1843 1.356 . S
N1841 H1846 0.984 1_455 S
N1841 H1847 0.985 . S
C1842 C1836 1.379 . S
C1842 C1839 1.363 . S
C1842 N1840 1.356 . S
C1843 C1837 1.363 . S
C1843 C1838 1.379 . S
C1843 N1841 1.356 . S
N1844 C1836 1.356 . S
N1844 H1850 0.984 . S
N1844 H1851 1.005 . S
N1845 C1838 1.356 . S
N1845 H1848 0.984 . S
N1845 H1849 0.985 . S
H1846 N1841 0.984 1_655 S
H1847 N1841 0.985 . S
H1848 N1845 0.984 . S
H1849 N1845 0.985 . S
H1850 N1844 0.984 . S
H1851 N1844 1.005 . S
H1852 N1840 0.984 . S
H1853 N1840 0.985 . S
C1854 C1855 1.363 . S
C1854 C1860 1.379 . S
C1854 N1862 1.356 . S
C1855 C1854 1.363 . S
C1855 C1861 1.363 . S
C1856 C1857 1.363 . S
C1856 C1861 1.379 . S
C1856 N1863 1.356 . S
C1857 C1856 1.363 . S
C1857 C1860 1.363 . S
N1858 C1860 1.356 . S
N1858 H1870 0.984 . S
N1858 H1871 0.985 . S
N1859 C1861 1.356 . S
N1859 H1864 0.984 . S
N1859 H1865 0.985 . S
C1860 C1854 1.379 . S
C1860 C1857 1.363 . S
C1860 N1858 1.356 . S
C1861 C1855 1.363 . S
C1861 C1856 1.379 . S
C1861 N1859 1.356 . S
N1862 C1854 1.356 . S
N1862 H1868 0.984 . S
N1862 H1869 0.984 . S
N1863 C1856 1.356 . S
N1863 H1866 0.984 . S
N1863 H1867 0.985 . S
H1864 N1859 0.984 . S
H1865 N1859 0.985 . S
H1866 N1863 0.984 . S
H1867 N1863 0.985 . S
H1868 N1862 0.984 . S
H1869 N1862 0.984 . S
H1870 N1858 0.984 . S
H1871 N1858 0.985 . S
C1872 C1873 1.363 . S
C1872 C1878 1.379 . S
C1872 N1880 1.356 . S
C1873 C1872 1.363 . S
C1873 C1879 1.363 . S
C1874 C1875 1.363 . S
C1874 C1879 1.379 . S
C1874 N1881 1.356 . S
C1875 C1874 1.363 . S
C1875 C1878 1.363 . S
N1876 C1878 1.356 . S
N1876 H1888 0.984 . S
N1876 H1889 0.985 . S
N1877 C1879 1.356 . S
N1877 H1882 0.984 . S
N1877 H1883 0.985 . S
C1878 C1872 1.379 . S
C1878 C1875 1.363 . S
C1878 N1876 1.356 . S
C1879 C1873 1.363 . S
C1879 C1874 1.379 . S
C1879 N1877 1.356 . S
N1880 C1872 1.356 . S
N1880 H1886 0.984 . S
N1880 H1887 0.984 . S
N1881 C1874 1.356 . S
N1881 H1884 0.984 . S
N1881 H1885 0.985 . S
H1882 N1877 0.984 . S
H1883 N1877 0.985 . S
H1884 N1881 0.984 . S
H1885 N1881 0.985 . S
H1886 N1880 0.984 . S
H1887 N1880 0.984 . S
H1888 N1876 0.984 . S
H1889 N1876 0.985 . S
C1890 C1891 1.363 . S
C1890 C1896 1.379 . S
C1890 N1898 1.356 . S
C1891 C1890 1.363 . S
C1891 C1897 1.363 . S
C1892 C1893 1.363 . S
C1892 C1897 1.379 . S
C1892 N1899 1.356 . S
C1893 C1892 1.363 . S
C1893 C1896 1.363 . S
N1894 C1896 1.356 . S
N1894 H1906 0.984 . S
N1894 H1907 0.985 . S
N1895 C1897 1.356 . S
N1895 H1900 0.984 . S
N1895 H1901 0.985 . S
C1896 C1890 1.379 . S
C1896 C1893 1.363 . S
C1896 N1894 1.356 . S
C1897 C1891 1.363 . S
C1897 C1892 1.379 . S
C1897 N1895 1.356 . S
N1898 C1890 1.356 . S
N1898 H1904 0.984 . S
N1898 H1905 0.984 . S
N1899 C1892 1.356 . S
N1899 H1902 0.984 . S
N1899 H1903 0.985 . S
H1900 N1895 0.984 . S
H1901 N1895 0.985 . S
H1902 N1899 0.984 . S
H1903 N1899 0.985 . S
H1904 N1898 0.984 . S
H1905 N1898 0.984 . S
H1906 N1894 0.984 . S
H1907 N1894 0.985 . S
C1908 C1909 1.363 . S
C1908 C1914 1.379 . S
C1908 N1916 1.356 . S
C1909 C1908 1.363 . S
C1909 C1915 1.363 . S
C1910 C1911 1.363 . S
C1910 C1915 1.379 . S
C1910 N1917 1.356 . S
C1911 C1910 1.363 . S
C1911 C1914 1.363 . S
N1912 C1914 1.356 . S
N1912 H1924 0.984 . S
N1912 H1925 0.985 . S
N1913 C1915 1.356 . S
N1913 H1918 0.984 . S
N1913 H1919 0.985 . S
C1914 C1908 1.379 . S
C1914 C1911 1.363 . S
C1914 N1912 1.356 . S
C1915 C1909 1.363 . S
C1915 C1910 1.379 . S
C1915 N1913 1.356 . S
N1916 C1908 1.356 . S
N1916 H1922 0.984 . S
N1916 H1923 0.984 . S
N1917 C1910 1.356 . S
N1917 H1920 0.984 . S
N1917 H1921 0.985 . S
H1918 N1913 0.984 . S
H1919 N1913 0.985 . S
H1920 N1917 0.984 . S
H1921 N1917 0.985 . S
H1922 N1916 0.984 . S
H1923 N1916 0.984 . S
H1924 N1912 0.984 . S
H1925 N1912 0.985 . S
C1926 C1927 1.349 1_545 S
C1926 C1932 1.379 . S
C1926 N1934 1.356 1_545 S
C1927 C1926 1.349 1_565 S
C1927 C1933 1.355 1_565 S
C1928 C1929 1.363 . S
C1928 C1933 1.379 . S
C1928 N1935 1.356 . S
C1929 C1928 1.363 . S
C1929 C1932 1.363 . S
N1930 C1932 1.356 . S
N1930 H1942 0.984 . S
N1930 H1943 0.985 . S
N1931 C1933 1.356 1_565 S
N1931 H1936 0.984 . S
N1931 H1937 0.985 1_565 S
C1932 C1926 1.379 . S
C1932 C1929 1.363 . S
C1932 N1930 1.356 . S
C1933 C1927 1.355 1_545 S
C1933 C1928 1.379 . S
C1933 N1931 1.356 1_545 S
N1934 C1926 1.356 1_565 S
N1934 H1940 0.984 . S
N1934 H1941 0.984 . S
N1935 C1928 1.356 . S
N1935 H1938 0.984 . S
N1935 H1939 0.985 . S
H1936 N1931 0.984 . S
H1937 N1931 0.985 1_545 S
H1938 N1935 0.984 . S
H1939 N1935 0.985 . S
H1940 N1934 0.984 . S
H1941 N1934 0.984 . S
H1942 N1930 0.984 . S
H1943 N1930 0.985 . S
C1944 C1945 1.363 . S
C1944 C1950 1.379 . S
C1944 N1952 1.356 . S
C1945 C1944 1.363 . S
C1945 C1951 1.363 . S
C1946 C1947 1.363 . S
C1946 C1951 1.379 . S
C1946 N1953 1.356 . S
C1947 C1946 1.363 . S
C1947 C1950 1.363 . S
N1948 C1950 1.356 . S
N1948 H1960 0.984 . S
N1948 H1961 0.985 . S
N1949 C1951 1.356 1_455 S
N1949 H1954 0.984 . S
N1949 H1955 0.985 . S
C1950 C1944 1.379 . S
C1950 C1947 1.363 . S
C1950 N1948 1.356 . S
C1951 C1945 1.363 . S
C1951 C1946 1.379 . S
C1951 N1949 1.356 1_655 S
N1952 C1944 1.356 . S
N1952 H1958 0.984 . S
N1952 H1959 0.984 . S
N1953 C1946 1.356 . S
N1953 H1956 0.984 . S
N1953 H1957 0.985 . S
H1954 N1949 0.984 . S
H1955 N1949 0.985 . S
H1956 N1953 0.984 . S
H1957 N1953 0.985 . S
H1958 N1952 0.984 . S
H1959 N1952 0.984 . S
H1960 N1948 0.984 . S
H1961 N1948 0.985 . S
C1962 C1963 1.363 . S
C1962 C1968 1.379 . S
C1962 N1970 1.356 . S
C1963 C1962 1.363 . S
C1963 C1969 1.363 . S
C1964 C1965 1.363 . S
C1964 C1969 1.379 . S
C1964 N1971 1.356 . S
C1965 C1964 1.363 . S
C1965 C1968 1.363 . S
N1966 C1968 1.356 . S
N1966 H1978 0.984 . S
N1966 H1979 0.985 . S
N1967 C1969 1.356 . S
N1967 H1972 0.984 . S
N1967 H1973 0.985 . S
C1968 C1962 1.379 . S
C1968 C1965 1.363 . S
C1968 N1966 1.356 . S
C1969 C1963 1.363 . S
C1969 C1964 1.379 . S
C1969 N1967 1.356 . S
N1970 C1962 1.356 . S
N1970 H1976 0.984 . S
N1970 H1977 0.984 . S
N1971 C1964 1.356 . S
N1971 H1974 0.984 . S
N1971 H1975 0.985 . S
H1972 N1967 0.984 . S
H1973 N1967 0.985 . S
H1974 N1971 0.984 . S
H1975 N1971 0.985 . S
H1976 N1970 0.984 . S
H1977 N1970 0.984 . S
H1978 N1966 0.984 . S
H1979 N1966 0.985 . S
C1980 C1981 1.363 . S
C1980 C1986 1.379 . S
C1980 N1988 1.356 . S
C1981 C1980 1.363 . S
C1981 C1987 1.363 . S
C1982 C1983 1.363 . S
C1982 C1987 1.379 . S
C1982 N1989 1.356 . S
C1983 C1982 1.363 . S
C1983 C1986 1.363 . S
N1984 C1986 1.356 . S
N1984 H1996 0.984 . S
N1984 H1997 0.985 . S
N1985 C1987 1.356 1_455 S
N1985 H1990 0.984 . S
N1985 H1991 0.985 . S
C1986 C1980 1.379 . S
C1986 C1983 1.363 . S
C1986 N1984 1.356 . S
C1987 C1981 1.363 . S
C1987 C1982 1.379 . S
C1987 N1985 1.356 1_655 S
N1988 C1980 1.356 . S
N1988 H1994 0.984 . S
N1988 H1995 0.984 1_655 S
N1989 C1982 1.356 . S
N1989 H1992 0.984 . S
N1989 H1993 0.985 . S
H1990 N1985 0.984 . S
H1991 N1985 0.985 . S
H1992 N1989 0.984 . S
H1993 N1989 0.985 . S
H1994 N1988 0.984 . S
H1995 N1988 0.984 1_455 S
H1996 N1984 0.984 . S
H1997 N1984 0.985 . S
C1998 C1999 1.363 . S
C1998 C2004 1.379 . S
C1998 N2006 1.356 . S
C1999 C1998 1.363 . S
C1999 C2005 1.363 . S
C2000 C2001 1.363 . S
C2000 C2005 1.379 . S
C2000 N2007 1.356 . S
C2001 C2000 1.363 . S
C2001 C2004 1.363 . S
N2002 C2004 1.356 . S
N2002 H2014 0.984 . S
N2002 H2015 0.985 . S
N2003 C2005 1.356 . S
N2003 H2008 0.984 . S
N2003 H2009 0.985 . S
C2004 C1998 1.379 . S
C2004 C2001 1.363 . S
C2004 N2002 1.356 . S
C2005 C1999 1.363 . S
C2005 C2000 1.379 . S
C2005 N2003 1.356 . S
N2006 C1998 1.356 . S
N2006 H2012 0.984 . S
N2006 H2013 0.984 . S
N2007 C2000 1.356 . S
N2007 H2010 0.984 . S
N2007 H2011 0.985 . S
H2008 N2003 0.984 . S
H2009 N2003 0.985 . S
H2010 N2007 0.984 . S
H2011 N2007 0.985 . S
H2012 N2006 0.984 . S
H2013 N2006 0.984 . S
H2014 N2002 0.984 . S
H2015 N2002 0.985 . S
C2016 C2017 1.363 1_545 S
C2016 C2022 1.379 . S
C2016 N2024 1.356 1_545 S
C2017 C2016 1.363 1_565 S
C2017 C2023 1.363 1_565 S
C2018 C2019 1.363 . S
C2018 C2023 1.379 . S
C2018 N2025 1.356 . S
C2019 C2018 1.363 . S
C2019 C2022 1.363 . S
N2020 C2022 1.356 . S
N2020 H2032 0.984 . S
N2020 H2033 0.985 . S
N2021 C2023 1.356 1_565 S
N2021 H2026 0.984 . S
N2021 H2027 0.985 . S
C2022 C2016 1.379 . S
C2022 C2019 1.363 . S
C2022 N2020 1.356 . S
C2023 C2017 1.363 1_545 S
C2023 C2018 1.379 . S
C2023 N2021 1.356 1_545 S
N2024 C2016 1.356 1_565 S
N2024 H2030 0.984 1_565 S
N2024 H2031 0.984 . S
N2025 C2018 1.356 . S
N2025 H2028 0.984 . S
N2025 H2029 0.985 . S
H2026 N2021 0.984 . S
H2027 N2021 0.985 . S
H2028 N2025 0.984 . S
H2029 N2025 0.985 . S
H2030 N2024 0.984 1_545 S
H2031 N2024 0.984 . S
H2032 N2020 0.984 . S
H2033 N2020 0.985 . S
C2034 C2035 1.363 . S
C2034 C2040 1.379 . S
C2034 N2042 1.356 . S
C2035 C2034 1.363 . S
C2035 C2041 1.363 . S
C2036 C2037 1.363 . S
C2036 C2041 1.379 . S
C2036 N2043 1.356 . S
C2037 C2036 1.363 . S
C2037 C2040 1.363 . S
N2038 C2040 1.356 . S
N2038 H2050 0.984 . S
N2038 H2051 0.985 . S
N2039 C2041 1.356 . S
N2039 H2044 0.984 . S
N2039 H2045 0.985 . S
C2040 C2034 1.379 . S
C2040 C2037 1.363 . S
C2040 N2038 1.356 . S
C2041 C2035 1.363 . S
C2041 C2036 1.379 . S
C2041 N2039 1.356 . S
N2042 C2034 1.356 . S
N2042 H2048 0.984 . S
N2042 H2049 0.984 . S
N2043 C2036 1.356 . S
N2043 H2046 0.984 . S
N2043 H2047 0.985 . S
H2044 N2039 0.984 . S
H2045 N2039 0.985 . S
H2046 N2043 0.984 . S
H2047 N2043 0.985 . S
H2048 N2042 0.984 . S
H2049 N2042 0.984 . S
H2050 N2038 0.984 . S
H2051 N2038 0.985 . S
C2052 C2053 1.363 . S
C2052 C2058 1.379 . S
C2052 N2060 1.356 . S
C2053 C2052 1.363 . S
C2053 C2059 1.363 . S
C2054 C2055 1.363 . S
C2054 C2059 1.379 . S
C2054 N2061 1.356 . S
C2055 C2054 1.363 . S
C2055 C2058 1.363 . S
N2056 C2058 1.356 . S
N2056 H2068 0.984 . S
N2056 H2069 0.985 . S
N2057 C2059 1.356 . S
N2057 H2062 0.984 . S
N2057 H2063 0.985 . S
C2058 C2052 1.379 . S
C2058 C2055 1.363 . S
C2058 N2056 1.356 . S
C2059 C2053 1.363 . S
C2059 C2054 1.379 . S
C2059 N2057 1.356 . S
N2060 C2052 1.356 . S
N2060 H2066 0.984 . S
N2060 H2067 0.984 . S
N2061 C2054 1.356 . S
N2061 H2064 0.984 . S
N2061 H2065 0.985 . S
H2062 N2057 0.984 . S
H2063 N2057 0.985 . S
H2064 N2061 0.984 . S
H2065 N2061 0.985 . S
H2066 N2060 0.984 . S
H2067 N2060 0.984 . S
H2068 N2056 0.984 . S
H2069 N2056 0.985 . S
C2070 C2071 1.363 . S
C2070 C2076 1.379 . S
C2070 N2078 1.356 . S
C2071 C2070 1.363 . S
C2071 C2077 1.363 . S
C2072 C2073 1.363 . S
C2072 C2077 1.379 . S
C2072 N2079 1.356 . S
C2073 C2072 1.363 . S
C2073 C2076 1.363 . S
N2074 C2076 1.356 . S
N2074 H2086 0.984 . S
N2074 H2087 0.985 . S
N2075 C2077 1.356 . S
N2075 H2080 0.984 . S
N2075 H2081 0.985 . S
C2076 C2070 1.379 . S
C2076 C2073 1.363 . S
C2076 N2074 1.356 . S
C2077 C2071 1.363 . S
C2077 C2072 1.379 . S
C2077 N2075 1.356 . S
N2078 C2070 1.356 . S
N2078 H2084 0.984 . S
N2078 H2085 0.984 . S
N2079 C2072 1.356 . S
N2079 H2082 0.984 . S
N2079 H2083 0.985 . S
H2080 N2075 0.984 . S
H2081 N2075 0.985 . S
H2082 N2079 0.984 . S
H2083 N2079 0.985 . S
H2084 N2078 0.984 . S
H2085 N2078 0.984 . S
H2086 N2074 0.984 . S
H2087 N2074 0.985 . S
C2088 C2089 1.363 1_545 S
C2088 C2094 1.379 . S
C2088 N2096 1.356 . S
C2089 C2088 1.363 1_565 S
C2089 C2095 1.363 . S
C2090 C2091 1.363 . S
C2090 C2095 1.379 . S
C2090 N2097 1.356 . S
C2091 C2090 1.363 . S
C2091 C2094 1.363 1_565 S
N2092 C2094 1.356 . S
N2092 H2104 0.984 . S
N2092 H2105 0.985 . S
N2093 C2095 1.356 . S
N2093 H2098 0.984 . S
N2093 H2099 0.985 . S
C2094 C2088 1.379 . S
C2094 C2091 1.363 1_545 S
C2094 N2092 1.356 . S
C2095 C2089 1.363 . S
C2095 C2090 1.379 . S
C2095 N2093 1.356 . S
N2096 C2088 1.356 . S
N2096 H2102 0.984 . S
N2096 H2103 0.984 . S
N2097 C2090 1.356 . S
N2097 H2100 0.984 . S
N2097 H2101 0.985 . S
H2098 N2093 0.984 . S
H2099 N2093 0.985 . S
H2100 N2097 0.984 . S
H2101 N2097 0.985 . S
H2102 N2096 0.984 . S
H2103 N2096 0.984 . S
H2104 N2092 0.984 . S
H2105 N2092 0.985 . S
C2106 C2107 1.363 . S
C2106 C2112 1.379 . S
C2106 N2114 1.356 1_455 S
C2107 C2106 1.363 . S
C2107 C2113 1.363 . S
C2108 C2109 1.363 . S
C2108 C2113 1.379 . S
C2108 N2115 1.356 . S
C2109 C2108 1.363 . S
C2109 C2112 1.363 . S
N2110 C2112 1.356 . S
N2110 H2122 0.984 . S
N2110 H2123 0.985 . S
N2111 C2113 1.356 . S
N2111 H2116 0.986 . S
N2111 H2117 0.985 . S
C2112 C2106 1.379 . S
C2112 C2109 1.363 . S
C2112 N2110 1.356 . S
C2113 C2107 1.363 . S
C2113 C2108 1.379 . S
C2113 N2111 1.356 . S
N2114 C2106 1.356 1_655 S
N2114 H2120 0.984 . S
N2114 H2121 0.984 . S
N2115 C2108 1.356 . S
N2115 H2118 0.984 . S
N2115 H2119 0.985 . S
H2116 N2111 0.986 . S
H2117 N2111 0.985 . S
H2118 N2115 0.984 . S
H2119 N2115 0.985 . S
H2120 N2114 0.984 . S
H2121 N2114 0.984 . S
H2122 N2110 0.984 . S
H2123 N2110 0.985 . S
C2124 C2125 1.363 . S
C2124 C2130 1.379 . S
C2124 N2132 1.356 . S
C2125 C2124 1.363 . S
C2125 C2131 1.363 . S
C2126 C2127 1.363 . S
C2126 C2131 1.379 . S
C2126 N2133 1.356 . S
C2127 C2126 1.363 . S
C2127 C2130 1.363 . S
N2128 C2130 1.356 . S
N2128 H2140 0.984 . S
N2128 H2141 0.985 . S
N2129 C2131 1.356 . S
N2129 H2134 0.984 . S
N2129 H2135 0.985 . S
C2130 C2124 1.379 . S
C2130 C2127 1.363 . S
C2130 N2128 1.356 . S
C2131 C2125 1.363 . S
C2131 C2126 1.379 . S
C2131 N2129 1.356 . S
N2132 C2124 1.356 . S
N2132 H2138 0.984 . S
N2132 H2139 0.984 . S
N2133 C2126 1.356 . S
N2133 H2136 0.984 . S
N2133 H2137 0.985 . S
H2134 N2129 0.984 . S
H2135 N2129 0.985 . S
H2136 N2133 0.984 . S
H2137 N2133 0.985 . S
H2138 N2132 0.984 . S
H2139 N2132 0.984 . S
H2140 N2128 0.984 . S
H2141 N2128 0.985 . S
C2142 C2143 1.363 . S
C2142 C2148 1.379 . S
C2142 N2150 1.356 . S
C2143 C2142 1.363 . S
C2143 C2149 1.363 1_655 S
C2144 C2145 1.363 1_455 S
C2144 C2149 1.379 . S
C2144 N2151 1.356 . S
C2145 C2144 1.363 1_655 S
C2145 C2148 1.363 . S
N2146 C2148 1.356 . S
N2146 H2158 0.984 . S
N2146 H2159 0.985 . S
N2147 C2149 1.356 . S
N2147 H2152 0.984 . S
N2147 H2153 0.985 . S
C2148 C2142 1.379 . S
C2148 C2145 1.363 . S
C2148 N2146 1.356 . S
C2149 C2143 1.363 1_455 S
C2149 C2144 1.379 . S
C2149 N2147 1.356 . S
N2150 C2142 1.356 . S
N2150 H2156 0.984 . S
N2150 H2157 0.984 . S
N2151 C2144 1.356 . S
N2151 H2154 0.984 . S
N2151 H2155 0.985 . S
H2152 N2147 0.984 . S
H2153 N2147 0.985 . S
H2154 N2151 0.984 . S
H2155 N2151 0.985 . S
H2156 N2150 0.984 . S
H2157 N2150 0.984 . S
H2158 N2146 0.984 . S
H2159 N2146 0.985 . S
C2160 C2161 1.363 . S
C2160 C2166 1.379 . S
C2160 N2168 1.356 . S
C2161 C2160 1.363 . S
C2161 C2167 1.363 . S
C2162 C2163 1.363 . S
C2162 C2167 1.379 . S
C2162 N2169 1.356 . S
C2163 C2162 1.363 . S
C2163 C2166 1.363 . S
N2164 C2166 1.356 . S
N2164 H2176 0.984 . S
N2164 H2177 0.985 . S
N2165 C2167 1.356 . S
N2165 H2170 0.984 . S
N2165 H2171 0.985 . S
C2166 C2160 1.379 . S
C2166 C2163 1.363 . S
C2166 N2164 1.356 . S
C2167 C2161 1.363 . S
C2167 C2162 1.379 . S
C2167 N2165 1.356 . S
N2168 C2160 1.356 . S
N2168 H2174 0.984 . S
N2168 H2175 0.984 . S
N2169 C2162 1.356 . S
N2169 H2172 0.984 . S
N2169 H2173 0.985 . S
H2170 N2165 0.984 . S
H2171 N2165 0.985 . S
H2172 N2169 0.984 . S
H2173 N2169 0.985 . S
H2174 N2168 0.984 . S
H2175 N2168 0.984 . S
H2176 N2164 0.984 . S
H2177 N2164 0.985 . S
C2178 C2179 1.363 . S
C2178 C2184 1.379 . S
C2178 N2186 1.356 . S
C2179 C2178 1.363 . S
C2179 C2185 1.363 1_545 S
C2180 C2181 1.363 1_565 S
C2180 C2185 1.379 . S
C2180 N2187 1.356 . S
C2181 C2180 1.363 1_545 S
C2181 C2184 1.363 . S
N2182 C2184 1.356 . S
N2182 H2194 0.984 . S
N2182 H2195 0.985 . S
N2183 C2185 1.356 . S
N2183 H2188 0.984 . S
N2183 H2189 0.985 . S
C2184 C2178 1.379 . S
C2184 C2181 1.363 . S
C2184 N2182 1.356 . S
C2185 C2179 1.363 1_565 S
C2185 C2180 1.379 . S
C2185 N2183 1.356 . S
N2186 C2178 1.356 . S
N2186 H2192 0.984 . S
N2186 H2193 0.984 . S
N2187 C2180 1.356 . S
N2187 H2190 0.984 . S
N2187 H2191 0.985 . S
H2188 N2183 0.984 . S
H2189 N2183 0.985 . S
H2190 N2187 0.984 . S
H2191 N2187 0.985 . S
H2192 N2186 0.984 . S
H2193 N2186 0.984 . S
H2194 N2182 0.984 . S
H2195 N2182 0.985 . S
C2196 C2197 1.363 . S
C2196 C2202 1.379 . S
C2196 N2204 1.356 . S
C2197 C2196 1.363 . S
C2197 C2203 1.363 . S
C2198 C2199 1.363 . S
C2198 C2203 1.379 . S
C2198 N2205 1.356 . S
C2199 C2198 1.363 . S
C2199 C2202 1.363 . S
N2200 C2202 1.356 . S
N2200 H2212 0.984 . S
N2200 H2213 0.985 . S
N2201 C2203 1.356 . S
N2201 H2206 0.984 . S
N2201 H2207 0.985 . S
C2202 C2196 1.379 . S
C2202 C2199 1.363 . S
C2202 N2200 1.356 . S
C2203 C2197 1.363 . S
C2203 C2198 1.379 . S
C2203 N2201 1.356 . S
N2204 C2196 1.356 . S
N2204 H2210 0.984 . S
N2204 H2211 0.984 . S
N2205 C2198 1.356 . S
N2205 H2208 0.984 . S
N2205 H2209 0.985 . S
H2206 N2201 0.984 . S
H2207 N2201 0.985 . S
H2208 N2205 0.984 . S
H2209 N2205 0.985 . S
H2210 N2204 0.984 . S
H2211 N2204 0.984 . S
H2212 N2200 0.984 . S
H2213 N2200 0.985 . S
C2214 C2215 1.363 . S
C2214 C2220 1.379 . S
C2214 N2222 1.356 . S
C2215 C2214 1.363 . S
C2215 C2221 1.363 . S
C2216 C2217 1.363 . S
C2216 C2221 1.379 . S
C2216 N2223 1.356 . S
C2217 C2216 1.363 . S
C2217 C2220 1.363 . S
N2218 C2220 1.356 . S
N2218 H2230 0.984 . S
N2218 H2231 0.985 . S
N2219 C2221 1.356 . S
N2219 H2224 0.984 . S
N2219 H2225 0.985 . S
C2220 C2214 1.379 . S
C2220 C2217 1.363 . S
C2220 N2218 1.356 . S
C2221 C2215 1.363 . S
C2221 C2216 1.379 . S
C2221 N2219 1.356 . S
N2222 C2214 1.356 . S
N2222 H2228 0.984 . S
N2222 H2229 0.984 . S
N2223 C2216 1.356 . S
N2223 H2226 0.984 . S
N2223 H2227 0.985 . S
H2224 N2219 0.984 . S
H2225 N2219 0.985 . S
H2226 N2223 0.984 . S
H2227 N2223 0.985 . S
H2228 N2222 0.984 . S
H2229 N2222 0.984 . S
H2230 N2218 0.984 . S
H2231 N2218 0.985 . S
C2232 C2233 1.363 . S
C2232 C2238 1.379 . S
C2232 N2240 1.356 . S
C2233 C2232 1.363 . S
C2233 C2239 1.363 . S
C2234 C2235 1.363 . S
C2234 C2239 1.379 . S
C2234 N2241 1.356 . S
C2235 C2234 1.363 . S
C2235 C2238 1.363 . S
N2236 C2238 1.356 . S
N2236 H2248 0.984 . S
N2236 H2249 0.985 . S
N2237 C2239 1.356 . S
N2237 H2242 0.984 . S
N2237 H2243 0.985 . S
C2238 C2232 1.379 . S
C2238 C2235 1.363 . S
C2238 N2236 1.356 . S
C2239 C2233 1.363 . S
C2239 C2234 1.379 . S
C2239 N2237 1.356 . S
N2240 C2232 1.356 . S
N2240 H2246 0.984 . S
N2240 H2247 0.984 . S
N2241 C2234 1.356 . S
N2241 H2244 0.984 . S
N2241 H2245 0.985 . S
H2242 N2237 0.984 . S
H2243 N2237 0.985 . S
H2244 N2241 0.984 . S
H2245 N2241 0.985 . S
H2246 N2240 0.984 . S
H2247 N2240 0.984 . S
H2248 N2236 0.984 . S
H2249 N2236 0.985 . S
C2250 C2251 1.363 . S
C2250 C2256 1.379 . S
C2250 N2258 1.356 . S
C2251 C2250 1.363 . S
C2251 C2257 1.363 . S
C2252 C2253 1.363 . S
C2252 C2257 1.379 . S
C2252 N2259 1.356 . S
C2253 C2252 1.363 . S
C2253 C2256 1.363 . S
N2254 C2256 1.356 . S
N2254 H2266 0.984 . S
N2254 H2267 0.985 . S
N2255 C2257 1.356 . S
N2255 H2260 0.984 . S
N2255 H2261 0.985 . S
C2256 C2250 1.379 . S
C2256 C2253 1.363 . S
C2256 N2254 1.356 . S
C2257 C2251 1.363 . S
C2257 C2252 1.379 . S
C2257 N2255 1.356 . S
N2258 C2250 1.356 . S
N2258 H2264 0.984 . S
N2258 H2265 0.984 . S
N2259 C2252 1.356 . S
N2259 H2262 0.984 . S
N2259 H2263 0.985 . S
H2260 N2255 0.984 . S
H2261 N2255 0.985 . S
H2262 N2259 0.984 . S
H2263 N2259 0.985 . S
H2264 N2258 0.984 . S
H2265 N2258 0.984 . S
H2266 N2254 0.984 . S
H2267 N2254 0.985 . S
C2268 C2269 1.363 . S
C2268 C2274 1.379 . S
C2268 N2276 1.356 . S
C2269 C2268 1.363 . S
C2269 C2275 1.363 . S
C2270 C2271 1.363 . S
C2270 C2275 1.379 . S
C2270 N2277 1.356 . S
C2271 C2270 1.363 . S
C2271 C2274 1.363 . S
N2272 C2274 1.356 . S
N2272 H2284 0.984 . S
N2272 H2285 0.985 . S
N2273 C2275 1.356 . S
N2273 H2278 0.984 . S
N2273 H2279 0.985 . S
C2274 C2268 1.379 . S
C2274 C2271 1.363 . S
C2274 N2272 1.356 . S
C2275 C2269 1.363 . S
C2275 C2270 1.379 . S
C2275 N2273 1.356 . S
N2276 C2268 1.356 . S
N2276 H2282 0.984 . S
N2276 H2283 0.984 . S
N2277 C2270 1.356 . S
N2277 H2280 0.984 . S
N2277 H2281 0.985 . S
H2278 N2273 0.984 . S
H2279 N2273 0.985 . S
H2280 N2277 0.984 . S
H2281 N2277 0.985 . S
H2282 N2276 0.984 . S
H2283 N2276 0.984 . S
H2284 N2272 0.984 . S
H2285 N2272 0.985 . S
C2286 C2287 1.363 . S
C2286 C2292 1.379 . S
C2286 N2294 1.356 . S
C2287 C2286 1.363 . S
C2287 C2293 1.363 . S
C2288 C2289 1.363 . S
C2288 C2293 1.379 . S
C2288 N2295 1.356 . S
C2289 C2288 1.363 . S
C2289 C2292 1.363 . S
N2290 C2292 1.356 . S
N2290 H2302 0.984 . S
N2290 H2303 0.985 . S
N2291 C2293 1.356 . S
N2291 H2296 0.984 . S
N2291 H2297 0.985 . S
C2292 C2286 1.379 . S
C2292 C2289 1.363 . S
C2292 N2290 1.356 . S
C2293 C2287 1.363 . S
C2293 C2288 1.379 . S
C2293 N2291 1.356 . S
N2294 C2286 1.356 . S
N2294 H2300 0.984 . S
N2294 H2301 0.984 . S
N2295 C2288 1.356 . S
N2295 H2298 0.984 . S
N2295 H2299 0.985 . S
H2296 N2291 0.984 . S
H2297 N2291 0.985 . S
H2298 N2295 0.984 . S
H2299 N2295 0.985 . S
H2300 N2294 0.984 . S
H2301 N2294 0.984 . S
H2302 N2290 0.984 . S
H2303 N2290 0.985 . S
C2304 C2305 1.363 . S
C2304 C2310 1.379 . S
C2304 N2312 1.356 . S
C2305 C2304 1.363 . S
C2305 C2311 1.363 . S
C2306 C2307 1.363 . S
C2306 C2311 1.379 . S
C2306 N2313 1.356 . S
C2307 C2306 1.363 . S
C2307 C2310 1.363 . S
N2308 C2310 1.356 . S
N2308 H2320 0.984 . S
N2308 H2321 0.985 . S
N2309 C2311 1.356 . S
N2309 H2314 0.984 . S
N2309 H2315 0.985 . S
C2310 C2304 1.379 . S
C2310 C2307 1.363 . S
C2310 N2308 1.356 . S
C2311 C2305 1.363 . S
C2311 C2306 1.379 . S
C2311 N2309 1.356 . S
N2312 C2304 1.356 . S
N2312 H2318 0.984 . S
N2312 H2319 0.984 . S
N2313 C2306 1.356 . S
N2313 H2316 0.984 . S
N2313 H2317 0.985 . S
H2314 N2309 0.984 . S
H2315 N2309 0.985 . S
H2316 N2313 0.984 . S
H2317 N2313 0.985 . S
H2318 N2312 0.984 . S
H2319 N2312 0.984 . S
H2320 N2308 0.984 . S
H2321 N2308 0.985 . S
C2322 C2323 1.363 . S
C2322 C2328 1.379 . S
C2322 N2330 1.356 . S
C2323 C2322 1.363 . S
C2323 C2329 1.363 . S
C2324 C2325 1.363 . S
C2324 C2329 1.379 . S
C2324 N2331 1.356 . S
C2325 C2324 1.363 . S
C2325 C2328 1.363 . S
N2326 C2328 1.356 . S
N2326 H2338 0.984 . S
N2326 H2339 0.985 . S
N2327 C2329 1.356 . S
N2327 H2332 0.984 . S
N2327 H2333 0.985 . S
C2328 C2322 1.379 . S
C2328 C2325 1.363 . S
C2328 N2326 1.356 . S
C2329 C2323 1.363 . S
C2329 C2324 1.379 . S
C2329 N2327 1.356 . S
N2330 C2322 1.356 . S
N2330 H2336 0.984 . S
N2330 H2337 0.984 . S
N2331 C2324 1.356 . S
N2331 H2334 0.984 . S
N2331 H2335 0.985 . S
H2332 N2327 0.984 . S
H2333 N2327 0.985 . S
H2334 N2331 0.984 . S
H2335 N2331 0.985 . S
H2336 N2330 0.984 . S
H2337 N2330 0.984 . S
H2338 N2326 0.984 . S
H2339 N2326 0.985 . S
C2340 C2341 1.363 . S
C2340 C2346 1.379 . S
C2340 N2348 1.356 . S
C2341 C2340 1.363 . S
C2341 C2347 1.363 . S
C2342 C2343 1.363 . S
C2342 C2347 1.379 . S
C2342 N2349 1.356 . S
C2343 C2342 1.363 . S
C2343 C2346 1.363 . S
N2344 C2346 1.356 . S
N2344 H2356 0.984 . S
N2344 H2357 0.985 . S
N2345 C2347 1.356 . S
N2345 H2350 0.984 . S
N2345 H2351 0.985 . S
C2346 C2340 1.379 . S
C2346 C2343 1.363 . S
C2346 N2344 1.356 . S
C2347 C2341 1.363 . S
C2347 C2342 1.379 . S
C2347 N2345 1.356 . S
N2348 C2340 1.356 . S
N2348 H2354 0.984 . S
N2348 H2355 0.984 . S
N2349 C2342 1.356 . S
N2349 H2352 0.984 . S
N2349 H2353 0.985 . S
H2350 N2345 0.984 . S
H2351 N2345 0.985 . S
H2352 N2349 0.984 . S
H2353 N2349 0.985 . S
H2354 N2348 0.984 . S
H2355 N2348 0.984 . S
H2356 N2344 0.984 . S
H2357 N2344 0.985 . S
C2358 C2359 1.363 . S
C2358 C2364 1.379 . S
C2358 N2366 1.356 . S
C2359 C2358 1.363 . S
C2359 C2365 1.363 . S
C2360 C2361 1.363 . S
C2360 C2365 1.379 . S
C2360 N2367 1.356 . S
C2361 C2360 1.363 . S
C2361 C2364 1.363 . S
N2362 C2364 1.356 . S
N2362 H2374 0.984 . S
N2362 H2375 0.985 . S
N2363 C2365 1.356 . S
N2363 H2368 0.984 . S
N2363 H2369 0.985 . S
C2364 C2358 1.379 . S
C2364 C2361 1.363 . S
C2364 N2362 1.356 . S
C2365 C2359 1.363 . S
C2365 C2360 1.379 . S
C2365 N2363 1.356 . S
N2366 C2358 1.356 . S
N2366 H2372 0.984 . S
N2366 H2373 0.984 . S
N2367 C2360 1.356 . S
N2367 H2370 0.984 . S
N2367 H2371 0.985 . S
H2368 N2363 0.984 . S
H2369 N2363 0.985 . S
H2370 N2367 0.984 . S
H2371 N2367 0.985 . S
H2372 N2366 0.984 . S
H2373 N2366 0.984 . S
H2374 N2362 0.984 . S
H2375 N2362 0.985 . S
C2376 C2377 1.363 . S
C2376 C2382 1.379 . S
C2376 N2384 1.356 . S
C2377 C2376 1.363 . S
C2377 C2383 1.363 . S
C2378 C2379 1.363 . S
C2378 C2383 1.379 . S
C2378 N2385 1.356 . S
C2379 C2378 1.363 . S
C2379 C2382 1.363 . S
N2380 C2382 1.356 . S
N2380 H2392 0.984 . S
N2380 H2393 0.985 . S
N2381 C2383 1.356 . S
N2381 H2386 0.984 . S
N2381 H2387 0.985 . S
C2382 C2376 1.379 . S
C2382 C2379 1.363 . S
C2382 N2380 1.356 . S
C2383 C2377 1.363 . S
C2383 C2378 1.379 . S
C2383 N2381 1.356 . S
N2384 C2376 1.356 . S
N2384 H2390 0.984 . S
N2384 H2391 0.984 . S
N2385 C2378 1.356 . S
N2385 H2388 0.984 . S
N2385 H2389 0.985 . S
H2386 N2381 0.984 . S
H2387 N2381 0.985 . S
H2388 N2385 0.984 . S
H2389 N2385 0.985 . S
H2390 N2384 0.984 . S
H2391 N2384 0.984 . S
H2392 N2380 0.984 . S
H2393 N2380 0.985 . S
C2394 C2395 1.363 . S
C2394 C2400 1.379 . S
C2394 N2402 1.356 . S
C2395 C2394 1.363 . S
C2395 C2401 1.363 . S
C2396 C2397 1.363 . S
C2396 C2401 1.379 . S
C2396 N2403 1.356 . S
C2397 C2396 1.363 . S
C2397 C2400 1.363 . S
N2398 C2400 1.356 . S
N2398 H2410 0.984 . S
N2398 H2411 0.985 . S
N2399 C2401 1.356 . S
N2399 H2404 0.984 . S
N2399 H2405 0.985 . S
C2400 C2394 1.379 . S
C2400 C2397 1.363 . S
C2400 N2398 1.356 . S
C2401 C2395 1.363 . S
C2401 C2396 1.379 . S
C2401 N2399 1.356 . S
N2402 C2394 1.356 . S
N2402 H2408 0.984 . S
N2402 H2409 0.984 . S
N2403 C2396 1.356 . S
N2403 H2406 0.984 . S
N2403 H2407 0.985 . S
H2404 N2399 0.984 . S
H2405 N2399 0.985 . S
H2406 N2403 0.984 . S
H2407 N2403 0.985 . S
H2408 N2402 0.984 . S
H2409 N2402 0.984 . S
H2410 N2398 0.984 . S
H2411 N2398 0.985 . S
C1441 C781 1.753 . S
C1443 C1083 1.754 . S
C1459 C871 1.735 . S
C1461 C1123 1.783 . S
C1477 C751 1.746 . S
C1479 C1175 1.823 . S
C1495 C691 1.581 . S
C1497 C1135 1.639 . S
C1515 C1163 1.534 . S
C1513 C571 1.442 . S
C1531 C601 1.553 . S
C1533 C1095 1.583 . S
C1551 C1102 1.754 . S
C1549 C661 1.656 . S
C1569 C1142 1.786 . S
C1567 C541 1.708 . S
C1585 C631 1.853 . S
C1587 C1162 1.823 . S
C1603 C811 1.667 . S
C1605 C1122 1.640 . S
C1621 C841 1.484 . S
C1623 C1182 1.534 . S
C1641 C1082 1.583 . S
C1639 C721 1.444 . S
C1659 C1203 1.754 . S
C1657 C61 1.753 1_455 S
C1675 C151 1.735 . S
C1677 C1243 1.786 . S
C1693 C31 1.746 . S
C1695 C1295 1.823 . S
C1711 C1051 1.581 . S
C1713 C1255 1.639 . S
C1729 C931 1.442 . S
C1731 C1283 1.534 . S
C1747 C961 1.554 . S
C1749 C1215 1.584 . S
C1765 C1021 1.656 . S
C1767 C1222 1.754 . S
C1783 C901 1.705 . S
C1785 C1262 1.786 . S
C1803 C1282 1.824 . S
C1801 C991 1.853 . S
C1819 C91 1.694 . S
C1821 C1242 1.640 . S
C1839 C1302 1.534 . S
C1837 C121 1.484 1_455 S
C1855 C1 1.445 . S
C1857 C1202 1.584 . S
C1875 C1323 1.754 . S
C1873 C421 1.753 . S
C1891 C511 1.735 . S
C1893 C1363 1.786 . S
C1911 C1415 1.824 . S
C1909 C391 1.746 . S
C1929 C1375 1.640 . S
C1927 C331 1.599 . S
C1947 C1403 1.534 . S
C1945 C211 1.442 1_655 S
C1963 C241 1.554 . S
C1965 C1335 1.584 . S
C1981 C301 1.656 1_655 S
C1983 C1342 1.754 . S
C1999 C181 1.705 . S
C2001 C1382 1.786 . S
C2019 C1402 1.823 . S
C2017 C271 1.853 . S
C2035 C451 1.666 . S
C2037 C1362 1.639 . S
C2053 C481 1.484 . S
C2055 C1422 1.534 . S
C2071 C361 1.445 . S
C2073 C1322 1.584 . S
C2089 C920 1.372 . S
C2091 C1106 1.387 . S
C2109 C1146 1.820 . S
C2107 C980 1.851 1_455 S
C2125 C1040 1.516 . S
C2127 C1169 1.577 . S
C2143 C380 1.777 . S
C2145 C1129 1.820 . S
C2161 C440 1.557 . S
C2163 C1186 1.577 . S
C2181 C1089 1.387 . S
C2179 C500 1.391 . S
C2197 C200 1.372 . S
C2199 C1226 1.387 . S
C2215 C260 1.851 . S
C2217 C1266 1.820 . S
C2233 C320 1.516 . S
C2235 C1289 1.577 . S
C2251 C740 1.777 . S
C2253 C1249 1.820 . S
C2271 C1306 1.577 . S
C2269 C800 1.557 . S
C2287 C860 1.391 . S
C2289 C1209 1.387 . S
C2305 C560 1.372 . S
C2307 C1346 1.387 . S
C2323 C620 1.851 . S
C2325 C1386 1.820 . S
C2343 C1409 1.577 . S
C2341 C680 1.516 . S
C2359 C20 1.777 . S
C2361 C1369 1.820 . S
C2377 C80 1.557 . S
C2379 C1426 1.577 . S
C2395 C140 1.391 . S
C2397 C1329 1.387 . S
