# Generated by pormake.
# Topology pto, (3,4)-cn, num edge types: 1
# Building blocks:
#     Node 0, Type 0, BuildingBlock: ESEHIV_clean_linker_0, # of connection points: 3
#     Node 1, Type 0, BuildingBlock: ESEHIV_clean_linker_0, # of connection points: 3
#     Node 2, Type 0, BuildingBlock: ESEHIV_clean_linker_0, # of connection points: 3
#     Node 3, Type 0, BuildingBlock: ESEHIV_clean_linker_0, # of connection points: 3
#     Node 4, Type 0, BuildingBlock: ESEHIV_clean_linker_0, # of connection points: 3
#     Node 5, Type 0, BuildingBlock: ESEHIV_clean_linker_0, # of connection points: 3
#     Node 6, Type 0, BuildingBlock: ESEHIV_clean_linker_0, # of connection points: 3
#     Node 7, Type 0, BuildingBlock: ESEHIV_clean_linker_0, # of connection points: 3
#     Node 8, Type 1, BuildingBlock: NAWXER_clean_sbu_0, # of connection points: 4
#     Node 9, Type 1, BuildingBlock: NAWXER_clean_sbu_0, # of connection points: 4
#     Node 10, Type 1, BuildingBlock: NAWXER_clean_sbu_0, # of connection points: 4
#     Node 11, Type 1, BuildingBlock: NAWXER_clean_sbu_0, # of connection points: 4
#     Node 12, Type 1, BuildingBlock: NAWXER_clean_sbu_0, # of connection points: 4
#     Node 13, Type 1, BuildingBlock: NAWXER_clean_sbu_0, # of connection points: 4
#     Edge 14, Type (0, 1), BuildingBlock: XIVTED_clean_linker_0, # of connection points: 2
#     Edge 15, Type (0, 1), BuildingBlock: XIVTED_clean_linker_0, # of connection points: 2
#     Edge 16, Type (0, 1), BuildingBlock: XIVTED_clean_linker_0, # of connection points: 2
#     Edge 17, Type (0, 1), BuildingBlock: XIVTED_clean_linker_0, # of connection points: 2
#     Edge 18, Type (0, 1), BuildingBlock: XIVTED_clean_linker_0, # of connection points: 2
#     Edge 19, Type (0, 1), BuildingBlock: XIVTED_clean_linker_0, # of connection points: 2
#     Edge 20, Type (0, 1), BuildingBlock: XIVTED_clean_linker_0, # of connection points: 2
#     Edge 21, Type (0, 1), BuildingBlock: XIVTED_clean_linker_0, # of connection points: 2
#     Edge 22, Type (0, 1), BuildingBlock: XIVTED_clean_linker_0, # of connection points: 2
#     Edge 23, Type (0, 1), BuildingBlock: XIVTED_clean_linker_0, # of connection points: 2
#     Edge 24, Type (0, 1), BuildingBlock: XIVTED_clean_linker_0, # of connection points: 2
#     Edge 25, Type (0, 1), BuildingBlock: XIVTED_clean_linker_0, # of connection points: 2
#     Edge 26, Type (0, 1), BuildingBlock: XIVTED_clean_linker_0, # of connection points: 2
#     Edge 27, Type (0, 1), BuildingBlock: XIVTED_clean_linker_0, # of connection points: 2
#     Edge 28, Type (0, 1), BuildingBlock: XIVTED_clean_linker_0, # of connection points: 2
#     Edge 29, Type (0, 1), BuildingBlock: XIVTED_clean_linker_0, # of connection points: 2
#     Edge 30, Type (0, 1), BuildingBlock: XIVTED_clean_linker_0, # of connection points: 2
#     Edge 31, Type (0, 1), BuildingBlock: XIVTED_clean_linker_0, # of connection points: 2
#     Edge 32, Type (0, 1), BuildingBlock: XIVTED_clean_linker_0, # of connection points: 2
#     Edge 33, Type (0, 1), BuildingBlock: XIVTED_clean_linker_0, # of connection points: 2
#     Edge 34, Type (0, 1), BuildingBlock: XIVTED_clean_linker_0, # of connection points: 2
#     Edge 35, Type (0, 1), BuildingBlock: XIVTED_clean_linker_0, # of connection points: 2
#     Edge 36, Type (0, 1), BuildingBlock: XIVTED_clean_linker_0, # of connection points: 2
#     Edge 37, Type (0, 1), BuildingBlock: XIVTED_clean_linker_0, # of connection points: 2
# Relax obj value: 0.000
# Max RMSD: 0.005
# Mean RMSD: 0.003
data_MOF--net-pto--node1-NAWXER_clean_sbu_0--node2-ESEHIV_clean_linker_0--edge1-XIVTED_clean_linker_0
_symmetry_space_group_name_H-M    P1
_symmetry_Int_Tables_number       1
_symmetry_cell_setting            triclinic
loop_
_symmetry_equiv_pos_as_xyz
'x, y, z'
_cell_length_a     41.325148
_cell_length_b     38.954853
_cell_length_c     36.338845
_cell_angle_alpha  90.388259
_cell_angle_beta   90.004566
_cell_angle_gamma 90.084367
loop_
_atom_site_label
_atom_site_type_symbol
_atom_site_fract_x
_atom_site_fract_y
_atom_site_fract_z
_atom_type_partial_charge
H0 H 0.25433 0.28653 0.2284 0.0
H1 H 0.28103 0.18665 0.26791 0.0
H2 H 0.1951 0.23653 0.30868 0.0
C3 C 0.24976 0.26472 0.24599 0.0
C4 C 0.2228 0.26522 0.26948 0.0
C5 C 0.27073 0.23631 0.24479 0.0
C6 C 0.26443 0.20814 0.26785 0.0
C7 C 0.23745 0.20818 0.29166 0.0
C8 C 0.21668 0.23673 0.29178 0.0
H9 H 0.25495 0.67678 0.83021 0.0
H10 H 0.29514 0.76565 0.7767 0.0
H11 H 0.19591 0.7375 0.75873 0.0
C12 C 0.25239 0.69863 0.81218 0.0
C13 C 0.22289 0.70382 0.79382 0.0
C14 C 0.27857 0.72133 0.80689 0.0
C15 C 0.27471 0.74915 0.78257 0.0
C16 C 0.24502 0.75526 0.76485 0.0
C17 C 0.21922 0.73269 0.77132 0.0
H18 H 0.72691 0.78212 0.25669 0.0
H19 H 0.81623 0.74422 0.30154 0.0
H20 H 0.75532 0.67715 0.23824 0.0
C21 C 0.74383 0.76133 0.26077 0.0
C22 C 0.73794 0.72918 0.24388 0.0
C23 C 0.77166 0.7669 0.28253 0.0
C24 C 0.7938 0.73985 0.2868 0.0
C25 C 0.78815 0.70756 0.27082 0.0
C26 C 0.76 0.70234 0.24988 0.0
H27 H 0.7199 0.19242 0.77483 0.0
H28 H 0.81397 0.23416 0.75071 0.0
H29 H 0.754 0.28275 0.83186 0.0
C30 C 0.73896 0.21088 0.78025 0.0
C31 C 0.73393 0.23677 0.80693 0.0
C32 C 0.76758 0.20995 0.75919 0.0
C33 C 0.79136 0.23503 0.76577 0.0
C34 C 0.78633 0.26182 0.79109 0.0
C35 C 0.75786 0.26218 0.81212 0.0
H36 H 0.70949 0.79336 0.72784 0.0
H37 H 0.75021 0.70324 0.77728 0.0
H38 H 0.78614 0.73893 0.6733 0.0
C39 C 0.72578 0.77163 0.72667 0.0
C40 C 0.74657 0.76803 0.69636 0.0
C41 C 0.72686 0.74857 0.75618 0.0
C42 C 0.74963 0.72175 0.75519 0.0
C43 C 0.77154 0.71831 0.72573 0.0
C44 C 0.76948 0.74134 0.69617 0.0
H45 H 0.69895 0.25665 0.24801 0.0
H46 H 0.75302 0.33095 0.18668 0.0
H47 H 0.79951 0.27272 0.27215 0.0
C48 C 0.72172 0.2694 0.24236 0.0
C49 C 0.74903 0.2615 0.2635 0.0
C50 C 0.7232 0.29353 0.21391 0.0
C51 C 0.75207 0.31178 0.2081 0.0
C52 C 0.77969 0.30504 0.22959 0.0
C53 C 0.778 0.27937 0.25677 0.0
H54 H 0.22057 0.28043 0.67267 0.0
H55 H 0.3098 0.25325 0.72585 0.0
H56 H 0.25637 0.34177 0.76267 0.0
C57 C 0.2393 0.28578 0.69281 0.0
C58 C 0.23608 0.31427 0.71637 0.0
C59 C 0.26614 0.26382 0.6957 0.0
C60 C 0.28962 0.27072 0.72262 0.0
C61 C 0.2862 0.2985 0.7472 0.0
C62 C 0.25974 0.32079 0.7433 0.0
H63 H 0.21476 0.74754 0.28523 0.0
H64 H 0.25211 0.71578 0.17988 0.0
H65 H 0.30021 0.79527 0.24159 0.0
C66 C 0.23239 0.75012 0.26338 0.0
C67 C 0.25773 0.77405 0.26726 0.0
C68 C 0.22998 0.72902 0.23186 0.0
C69 C 0.25328 0.73234 0.20392 0.0
C70 C 0.27873 0.75613 0.20735 0.0
C71 C 0.28052 0.77705 0.23885 0.0
C72 C 0.97719 0.45311 0.21495 0.0
C73 C 0.05746 0.54661 0.21936 0.0
O74 O 0.98598 0.46265 0.24723 0.0
Zn75 Zn 0.01659 0.49874 0.27406 0.0
O76 O 0.9891 0.4679 0.18684 0.0
Zn77 Zn 0.01725 0.49987 0.21411 0.0
O78 O 0.05111 0.46613 0.23901 0.0
O79 O 0.04659 0.46858 0.29956 0.0
O80 O 0.04552 0.53354 0.19013 0.0
O81 O 0.04823 0.53549 0.25073 0.0
O82 O 0.98513 0.5274 0.30024 0.0
O83 O 0.98202 0.53127 0.23976 0.0
C84 C 0.06021 0.45626 0.27094 0.0
C85 C 0.97162 0.53971 0.27173 0.0
C86 C 0.95227 0.45066 0.79169 0.0
C87 C 0.03436 0.54136 0.79536 0.0
O88 O 0.96527 0.46367 0.82029 0.0
Zn89 Zn 0.99304 0.49627 0.795 0.0
O90 O 0.96049 0.46164 0.75983 0.0
Zn91 Zn 0.99207 0.49904 0.73625 0.0
O92 O 0.02189 0.47191 0.70702 0.0
O93 O 0.02672 0.4632 0.76678 0.0
O94 O 0.02461 0.53351 0.76291 0.0
O95 O 0.02237 0.52598 0.82297 0.0
O96 O 0.95861 0.53199 0.77247 0.0
O97 O 0.96224 0.52968 0.71193 0.0
C98 C 0.0356 0.4567 0.73364 0.0
C99 C 0.9492 0.5422 0.74071 0.0
C100 C 0.22661 0.94526 0.58129 0.0
C101 C 0.21688 0.02086 0.47458 0.0
O102 O 0.20038 0.95553 0.5667 0.0
Zn103 Zn 0.21961 0.98362 0.52849 0.0
O104 O 0.25385 0.95492 0.56798 0.0
Zn105 Zn 0.27194 0.98552 0.52395 0.0
O106 O 0.29505 0.02271 0.54943 0.0
O107 O 0.24223 0.02381 0.55825 0.0
O108 O 0.24599 0.01333 0.48337 0.0
O109 O 0.19337 0.0098 0.49383 0.0
O110 O 0.24063 0.9459 0.49374 0.0
O111 O 0.2938 0.95156 0.49274 0.0
C112 C 0.2703 0.03664 0.5641 0.0
C113 C 0.26831 0.93598 0.48202 0.0
C114 C 0.56087 0.71117 0.05623 0.0
C115 C 0.48301 0.70836 0.95371 0.0
O116 O 0.55055 0.68433 0.03977 0.0
Zn117 Zn 0.52296 0.7074 0.00406 0.0
O118 O 0.5516 0.74083 0.04547 0.0
Zn119 Zn 0.52123 0.7629 0.00442 0.0
O120 O 0.48889 0.78658 0.03395 0.0
O121 O 0.48667 0.73005 0.03797 0.0
O122 O 0.49121 0.73839 0.9648 0.0
O123 O 0.49563 0.68211 0.96868 0.0
O124 O 0.55781 0.7319 0.97007 0.0
O125 O 0.55105 0.78813 0.97341 0.0
C126 C 0.47568 0.75969 0.04691 0.0
C127 C 0.56614 0.76226 0.96057 0.0
C128 C 0.74231 0.96436 0.51998 0.0
C129 C 0.74251 0.06775 0.44361 0.0
O130 O 0.71719 0.97895 0.50712 0.0
Zn131 Zn 0.74024 0.01592 0.48194 0.0
O132 O 0.7703 0.97704 0.51344 0.0
Zn133 Zn 0.79241 0.01827 0.48481 0.0
O134 O 0.81283 0.04393 0.52456 0.0
O135 O 0.75941 0.04395 0.52781 0.0
O136 O 0.7707 0.05792 0.45361 0.0
O137 O 0.7177 0.05074 0.45343 0.0
O138 O 0.7651 0.9876 0.44035 0.0
O139 O 0.81784 0.99265 0.44883 0.0
C140 C 0.78696 0.05272 0.54111 0.0
C141 C 0.7941 0.98031 0.43073 0.0
C142 C 0.52841 0.30584 0.05143 0.0
C143 C 0.44572 0.30307 0.95527 0.0
O144 O 0.51922 0.2756 0.04202 0.0
Zn145 Zn 0.48692 0.25087 0.00457 0.0
O146 O 0.51605 0.33189 0.03586 0.0
Zn147 Zn 0.48709 0.30595 0.00362 0.0
O148 O 0.45403 0.28303 0.04232 0.0
O149 O 0.45801 0.22668 0.03756 0.0
O150 O 0.45862 0.32969 0.96947 0.0
O151 O 0.45447 0.2733 0.96623 0.0
O152 O 0.51695 0.22544 0.97341 0.0
O153 O 0.52152 0.28157 0.96779 0.0
C154 C 0.44527 0.25295 0.05264 0.0
C155 C 0.53081 0.25122 0.95894 0.0
H156 H 0.20051 0.30277 0.2113 0.0
H157 H 0.08345 0.42252 0.33221 0.0
H158 H 0.19426 0.29582 0.32961 0.0
H159 H 0.09599 0.43032 0.21456 0.0
H160 H 0.12477 0.3772 0.33305 0.0
H161 H 0.16305 0.35093 0.21302 0.0
C162 C 0.19149 0.31158 0.23771 0.0
C163 C 0.20057 0.29518 0.27034 0.0
C164 C 0.11848 0.38902 0.30714 0.0
C165 C 0.15708 0.35017 0.27253 0.0
C166 C 0.09495 0.41488 0.30667 0.0
C167 C 0.08607 0.43012 0.27327 0.0
C168 C 0.1331 0.37846 0.27398 0.0
C169 C 0.1018 0.41923 0.24098 0.0
C170 C 0.1699 0.339 0.23868 0.0
C171 C 0.18758 0.3074 0.30371 0.0
N172 N 0.12437 0.39408 0.24216 0.0
N173 N 0.16642 0.33412 0.30395 0.0
H174 H 0.18723 0.67853 0.73718 0.0
H175 H 0.07177 0.55742 0.8565 0.0
H176 H 0.19769 0.67118 0.85501 0.0
H177 H 0.05709 0.58371 0.74246 0.0
H178 H 0.11857 0.59676 0.85826 0.0
H179 H 0.141 0.64032 0.73982 0.0
C180 C 0.17964 0.66894 0.76374 0.0
C181 C 0.19603 0.67853 0.79599 0.0
C182 C 0.10487 0.59392 0.83302 0.0
C183 C 0.14284 0.63415 0.7993 0.0
C184 C 0.07814 0.57163 0.83203 0.0
C185 C 0.06061 0.56704 0.79921 0.0
C186 C 0.11397 0.61148 0.80094 0.0
C187 C 0.06996 0.58604 0.76831 0.0
C188 C 0.15319 0.647 0.76526 0.0
C189 C 0.18564 0.66445 0.8295 0.0
N190 N 0.09595 0.60715 0.76994 0.0
N191 N 0.15952 0.64301 0.83036 0.0
H192 H 0.8236 0.68889 0.33171 0.0
H193 H 0.93246 0.55836 0.2156 0.0
H194 H 0.80932 0.66391 0.21694 0.0
H195 H 0.94562 0.57313 0.33256 0.0
H196 H 0.88647 0.5965 0.21729 0.0
H197 H 0.86722 0.64629 0.33425 0.0
C198 C 0.82953 0.67436 0.30712 0.0
C199 C 0.81281 0.68004 0.27401 0.0
C200 C 0.89922 0.59149 0.24273 0.0
C201 C 0.86249 0.63136 0.27681 0.0
C202 C 0.92573 0.56971 0.24179 0.0
C203 C 0.9432 0.56268 0.274 0.0
C204 C 0.88991 0.60682 0.27607 0.0
C205 C 0.93289 0.57794 0.30708 0.0
C206 C 0.85432 0.64999 0.30866 0.0
C207 C 0.82121 0.6602 0.24315 0.0
N208 N 0.90694 0.59955 0.30726 0.0
N209 N 0.84552 0.63697 0.24529 0.0
H210 H 0.81361 0.29507 0.73348 0.0
H211 H 0.9262 0.42041 0.85374 0.0
H212 H 0.8121 0.2947 0.85219 0.0
H213 H 0.92172 0.41826 0.73501 0.0
H214 H 0.88477 0.37498 0.85534 0.0
H215 H 0.8534 0.34089 0.73501 0.0
C216 C 0.82186 0.30455 0.75998 0.0
C217 C 0.80984 0.29068 0.79276 0.0
C218 C 0.89293 0.38458 0.82903 0.0
C219 C 0.85548 0.34383 0.79481 0.0
C220 C 0.91658 0.41044 0.82809 0.0
C221 C 0.92753 0.42319 0.79419 0.0
C222 C 0.88029 0.37149 0.79585 0.0
C223 C 0.91417 0.40935 0.76183 0.0
C224 C 0.84452 0.33092 0.76086 0.0
C225 C 0.82081 0.30466 0.82628 0.0
N226 N 0.89139 0.38437 0.76352 0.0
N227 N 0.84321 0.33042 0.82648 0.0
H228 H 0.21261 0.2103 0.36188 0.0
H229 H 0.24781 0.0175 0.40916 0.0
H230 H 0.24705 0.13892 0.27924 0.0
H231 H 0.17662 0.07645 0.46878 0.0
H232 H 0.24882 0.06146 0.36147 0.0
H233 H 0.20085 0.16225 0.40223 0.0
C234 C 0.21739 0.18456 0.3519 0.0
C235 C 0.23076 0.17885 0.31677 0.0
C236 C 0.23251 0.06453 0.38458 0.0
C237 C 0.21796 0.12359 0.36364 0.0
C238 C 0.23187 0.03946 0.41173 0.0
C239 C 0.21204 0.04347 0.44278 0.0
C240 C 0.21385 0.0943 0.38904 0.0
C241 C 0.192 0.07236 0.44504 0.0
C242 C 0.21068 0.15711 0.37512 0.0
C243 C 0.23723 0.14478 0.30615 0.0
N244 N 0.19386 0.0971 0.41881 0.0
N245 N 0.23101 0.11849 0.3296 0.0
H246 H 0.30955 0.66055 0.82502 0.0
H247 H 0.46419 0.75779 0.90632 0.0
H248 H 0.31953 0.7707 0.83417 0.0
H249 H 0.44207 0.65372 0.93775 0.0
H250 H 0.41596 0.75863 0.86824 0.0
H251 H 0.36136 0.65411 0.85733 0.0
C252 C 0.32242 0.68338 0.83384 0.0
C253 C 0.30998 0.71631 0.82653 0.0
C254 C 0.42165 0.73547 0.88323 0.0
C255 C 0.36966 0.70892 0.86261 0.0
C256 C 0.44934 0.73487 0.90491 0.0
C257 C 0.45701 0.70577 0.92572 0.0
C258 C 0.40117 0.70677 0.8821 0.0
C259 C 0.43701 0.67671 0.92223 0.0
C260 C 0.3521 0.6796 0.85206 0.0
C261 C 0.32822 0.74482 0.83823 0.0
N262 N 0.40971 0.67803 0.90108 0.0
N263 N 0.35703 0.74043 0.85546 0.0
H264 H 0.75741 0.83203 0.25718 0.0
H265 H 0.83966 0.92952 0.42748 0.0
H266 H 0.80103 0.77969 0.34921 0.0
H267 H 0.75762 0.97066 0.3693 0.0
H268 H 0.83792 0.87859 0.38723 0.0
H269 H 0.76791 0.88688 0.28824 0.0
C270 C 0.76909 0.83187 0.28384 0.0
C271 C 0.77817 0.80085 0.3005 0.0
C272 C 0.82074 0.89914 0.38289 0.0
C273 C 0.79136 0.86379 0.33538 0.0
C274 C 0.82197 0.92831 0.40551 0.0
C275 C 0.79868 0.95416 0.40168 0.0
C276 C 0.7964 0.89624 0.35601 0.0
C277 C 0.7759 0.95113 0.37317 0.0
C278 C 0.77537 0.86327 0.30132 0.0
C279 C 0.79403 0.80271 0.33477 0.0
N280 N 0.77521 0.92258 0.3515 0.0
N281 N 0.80015 0.83356 0.35097 0.0
H282 H 0.69725 0.29348 0.82302 0.0
H283 H 0.563 0.19185 0.93899 0.0
H284 H 0.6997 0.18374 0.83821 0.0
H285 H 0.56271 0.30135 0.9214 0.0
H286 H 0.61166 0.18733 0.90049 0.0
H287 H 0.64698 0.296 0.85793 0.0
C288 C 0.68734 0.26989 0.83393 0.0
C289 C 0.70297 0.23838 0.82791 0.0
C290 C 0.60079 0.21229 0.90496 0.0
C291 C 0.64483 0.241 0.86771 0.0
C292 C 0.57296 0.21487 0.92684 0.0
C293 C 0.55874 0.24704 0.9336 0.0
C294 C 0.61447 0.24208 0.88975 0.0
C295 C 0.57281 0.276 0.91717 0.0
C296 C 0.65843 0.2713 0.85368 0.0
C297 C 0.68843 0.20858 0.84203 0.0
N298 N 0.59984 0.27282 0.89621 0.0
N299 N 0.66027 0.21062 0.86139 0.0
H300 H 0.20879 0.75758 0.70125 0.0
H301 H 0.27306 0.93732 0.63362 0.0
H302 H 0.27188 0.82017 0.76888 0.0
H303 H 0.18063 0.89709 0.59872 0.0
H304 H 0.27609 0.89263 0.68045 0.0
H305 H 0.20126 0.80607 0.66015 0.0
C306 C 0.22084 0.78154 0.70783 0.0
C307 C 0.24087 0.78463 0.73902 0.0
C308 C 0.25499 0.89381 0.66282 0.0
C309 C 0.23292 0.84011 0.69106 0.0
C310 C 0.25325 0.91923 0.63606 0.0
C311 C 0.22656 0.92084 0.61224 0.0
C312 C 0.23022 0.86928 0.66525 0.0
C313 C 0.20154 0.89684 0.61666 0.0
C314 C 0.21656 0.8092 0.68414 0.0
C315 C 0.25657 0.81623 0.74507 0.0
N316 N 0.20419 0.87169 0.64233 0.0
N317 N 0.25243 0.84264 0.7212 0.0
H318 H 0.67638 0.75642 0.24952 0.0
H319 H 0.60605 0.66114 0.07066 0.0
H320 H 0.73437 0.68959 0.18085 0.0
H321 H 0.5686 0.75723 0.11203 0.0
H322 H 0.64782 0.66277 0.11894 0.0
H323 H 0.63139 0.74909 0.20647 0.0
C324 C 0.67981 0.74027 0.22549 0.0
C325 C 0.70953 0.7238 0.21895 0.0
C326 C 0.63024 0.6833 0.11752 0.0
C327 C 0.65759 0.71459 0.17002 0.0
C328 C 0.60633 0.68226 0.09019 0.0
C329 C 0.58402 0.7092 0.08722 0.0
C330 C 0.63135 0.71114 0.14235 0.0
C331 C 0.58555 0.73609 0.11312 0.0
C332 C 0.65397 0.73591 0.20106 0.0
C333 C 0.71194 0.70245 0.1876 0.0
N334 N 0.60877 0.73638 0.13956 0.0
N335 N 0.68638 0.69848 0.16438 0.0
H336 H 0.74665 0.14249 0.75543 0.0
H337 H 0.8324 0.09986 0.56375 0.0
H338 H 0.79869 0.21879 0.69288 0.0
H339 H 0.74308 0.05156 0.59675 0.0
H340 H 0.82971 0.13659 0.61903 0.0
H341 H 0.75362 0.10198 0.70418 0.0
C342 C 0.75952 0.15085 0.73113 0.0
C343 C 0.77217 0.1843 0.72885 0.0
C344 C 0.81089 0.11771 0.61417 0.0
C345 C 0.78104 0.13758 0.67068 0.0
C346 C 0.81251 0.0967 0.58285 0.0
C347 C 0.78779 0.07293 0.57562 0.0
C348 C 0.78478 0.11426 0.63868 0.0
C349 C 0.76245 0.06988 0.60116 0.0
C350 C 0.76367 0.12759 0.70204 0.0
C351 C 0.78916 0.19318 0.69665 0.0
N352 N 0.76161 0.09026 0.63161 0.0
N353 N 0.7932 0.16997 0.669 0.0
H354 H 0.29405 0.18332 0.20171 0.0
H355 H 0.41968 0.30381 0.09561 0.0
H356 H 0.31184 0.28962 0.2293 0.0
H357 H 0.41504 0.19427 0.07752 0.0
H358 H 0.37932 0.2985 0.14398 0.0
H359 H 0.33794 0.18591 0.15634 0.0
C360 C 0.30736 0.20709 0.19854 0.0
C361 C 0.29894 0.2364 0.21916 0.0
C362 C 0.38712 0.27554 0.12957 0.0
C363 C 0.34888 0.23964 0.1669 0.0
C364 C 0.41017 0.27856 0.10177 0.0
C365 C 0.42079 0.24944 0.08229 0.0
C366 C 0.37422 0.24317 0.13804 0.0
C367 C 0.40757 0.21742 0.09177 0.0
C368 C 0.33229 0.20859 0.17247 0.0
C369 C 0.31691 0.26656 0.21356 0.0
N370 N 0.38487 0.21515 0.11887 0.0
N371 N 0.3408 0.26742 0.1879 0.0
H372 H 0.79516 0.67834 0.66874 0.0
H373 H 0.92007 0.57726 0.79697 0.0
H374 H 0.80729 0.69759 0.78508 0.0
H375 H 0.91875 0.56651 0.67866 0.0
H376 H 0.87689 0.61953 0.79289 0.0
H377 H 0.83863 0.63575 0.67153 0.0
C378 C 0.80696 0.67373 0.69484 0.0
C379 C 0.79736 0.6916 0.72675 0.0
C380 C 0.88602 0.60801 0.76776 0.0
C381 C 0.84697 0.64258 0.73016 0.0
C382 C 0.91072 0.58378 0.77007 0.0
C383 C 0.92315 0.56824 0.7381 0.0
C384 C 0.87337 0.61684 0.73323 0.0
C385 C 0.90998 0.57785 0.70403 0.0
C386 C 0.83171 0.64929 0.69642 0.0
C387 C 0.81335 0.68411 0.75987 0.0
N388 N 0.88576 0.60148 0.70249 0.0
N389 N 0.83726 0.66024 0.76068 0.0
H390 H 0.80658 0.32873 0.16462 0.0
H391 H 0.96181 0.4062 0.26661 0.0
H392 H 0.82276 0.32688 0.28205 0.0
H393 H 0.93487 0.43881 0.15756 0.0
H394 H 0.91551 0.36791 0.26761 0.0
H395 H 0.85672 0.36188 0.15747 0.0
C396 C 0.8205 0.33529 0.18891 0.0
C397 C 0.81028 0.32478 0.22407 0.0
C398 C 0.91968 0.38325 0.24331 0.0
C399 C 0.868 0.36198 0.21577 0.0
C400 C 0.94625 0.4051 0.24263 0.0
C401 C 0.95201 0.42615 0.21212 0.0
C402 C 0.89837 0.38226 0.21331 0.0
C403 C 0.93124 0.42309 0.18166 0.0
C404 C 0.84922 0.35402 0.1847 0.0
C405 C 0.82977 0.33364 0.25433 0.0
N406 N 0.90503 0.40175 0.18314 0.0
N407 N 0.85757 0.35158 0.24945 0.0
H408 H 0.22809 0.38031 0.69295 0.0
H409 H 0.05209 0.40105 0.7743 0.0
H410 H 0.17635 0.29444 0.73848 0.0
H411 H 0.08166 0.45913 0.67941 0.0
H412 H 0.10031 0.36509 0.7674 0.0
H413 H 0.17749 0.41381 0.69347 0.0
C414 C 0.20601 0.36862 0.70295 0.0
C415 C 0.20608 0.33476 0.71566 0.0
C416 C 0.09607 0.38551 0.7479 0.0
C417 C 0.14878 0.37265 0.71688 0.0
C418 C 0.06865 0.40602 0.75183 0.0
C419 C 0.06289 0.43296 0.72729 0.0
C420 C 0.11839 0.39257 0.71984 0.0
C421 C 0.08512 0.43839 0.69869 0.0
C422 C 0.17725 0.38756 0.70308 0.0
C423 C 0.17705 0.32053 0.72841 0.0
N424 N 0.11222 0.41866 0.69604 0.0
N425 N 0.14959 0.33967 0.72909 0.0
H426 H 0.20712 0.68733 0.28633 0.0
H427 H 0.08328 0.58099 0.15942 0.0
H428 H 0.19437 0.70925 0.17094 0.0
H429 H 0.08879 0.57483 0.27788 0.0
H430 H 0.12533 0.62592 0.16108 0.0
H431 H 0.16511 0.64383 0.28191 0.0
C432 C 0.19526 0.68328 0.26008 0.0
C433 C 0.20417 0.70236 0.22907 0.0
C434 C 0.11717 0.61465 0.18661 0.0
C435 C 0.1561 0.65169 0.22357 0.0
C436 C 0.09323 0.58903 0.18567 0.0
C437 C 0.08242 0.57404 0.21852 0.0
C438 C 0.1304 0.62507 0.2206 0.0
C439 C 0.09619 0.5855 0.25177 0.0
C440 C 0.17134 0.65817 0.25749 0.0
C441 C 0.18845 0.69506 0.19554 0.0
N442 N 0.11936 0.61012 0.25188 0.0
N443 N 0.16515 0.67031 0.19365 0.0
H444 H 0.79733 0.79756 0.65972 0.0
H445 H 0.68844 0.93225 0.54952 0.0
H446 H 0.69293 0.79708 0.6644 0.0
H447 H 0.79246 0.92445 0.54158 0.0
H448 H 0.68836 0.88147 0.58946 0.0
H449 H 0.79499 0.84246 0.6136 0.0
C450 C 0.77387 0.80653 0.65069 0.0
C451 C 0.74531 0.79353 0.66612 0.0
C452 C 0.71112 0.89089 0.57872 0.0
C453 C 0.74239 0.84575 0.61367 0.0
C454 C 0.71115 0.91982 0.55595 0.0
C455 C 0.74049 0.93286 0.54246 0.0
C456 C 0.74062 0.87506 0.58787 0.0
C457 C 0.76923 0.91567 0.5516 0.0
C458 C 0.77251 0.83244 0.6245 0.0
C459 C 0.7156 0.80674 0.65369 0.0
N460 N 0.76854 0.88789 0.57376 0.0
N461 N 0.7149 0.83229 0.62837 0.0
H462 H 0.68541 0.24312 0.18511 0.0
H463 H 0.56885 0.3611 0.06604 0.0
H464 H 0.69654 0.35332 0.18629 0.0
H465 H 0.54769 0.2573 0.09943 0.0
H466 H 0.61678 0.36069 0.10657 0.0
H467 H 0.63693 0.24904 0.14831 0.0
C468 C 0.67747 0.26868 0.17783 0.0
C469 C 0.69473 0.2978 0.18944 0.0
C470 C 0.60132 0.33824 0.10515 0.0
C471 C 0.63905 0.30483 0.14653 0.0
C472 C 0.57398 0.33851 0.08222 0.0
C473 C 0.55453 0.30902 0.079 0.0
C474 C 0.60904 0.30825 0.12457 0.0
C475 C 0.56223 0.28043 0.10051 0.0
C476 C 0.64974 0.27207 0.15669 0.0
C477 C 0.68385 0.33021 0.17798 0.0
N478 N 0.58893 0.2807 0.12202 0.0
N479 N 0.65654 0.33292 0.15713 0.0
H480 H 0.31929 0.23534 0.66152 0.0
H481 H 0.22358 0.06379 0.60773 0.0
H482 H 0.21753 0.21824 0.68093 0.0
H483 H 0.32118 0.08274 0.57059 0.0
H484 H 0.22342 0.11905 0.63861 0.0
H485 H 0.3224 0.17915 0.63072 0.0
C486 C 0.29758 0.21987 0.6591 0.0
C487 C 0.26805 0.23158 0.67373 0.0
C488 C 0.24498 0.11128 0.62382 0.0
C489 C 0.27155 0.16732 0.63889 0.0
C490 C 0.24516 0.07953 0.6062 0.0
C491 C 0.27238 0.06864 0.58622 0.0
C492 C 0.27222 0.13266 0.62164 0.0
C493 C 0.29969 0.09014 0.58568 0.0
C494 C 0.2994 0.18786 0.64152 0.0
C495 C 0.24068 0.21059 0.66963 0.0
N496 N 0.29887 0.12131 0.60301 0.0
N497 N 0.24316 0.17951 0.65281 0.0
H498 H 0.30932 0.7021 0.17429 0.0
H499 H 0.4411 0.81674 0.06962 0.0
H500 H 0.30875 0.81287 0.17827 0.0
H501 H 0.44366 0.70618 0.07771 0.0
H502 H 0.39113 0.81691 0.10633 0.0
H503 H 0.35626 0.70403 0.13396 0.0
C504 C 0.31877 0.72687 0.1662 0.0
C505 C 0.30512 0.75735 0.17973 0.0
C506 C 0.40277 0.79269 0.10001 0.0
C507 C 0.35952 0.75982 0.13414 0.0
C508 C 0.43131 0.7926 0.07921 0.0
C509 C 0.44663 0.76143 0.07058 0.0
C510 C 0.38957 0.7614 0.112 0.0
C511 C 0.4328 0.73088 0.08359 0.0
C512 C 0.34584 0.72799 0.14346 0.0
C513 C 0.31881 0.78874 0.1688 0.0
N514 N 0.40513 0.73167 0.1035 0.0
N515 N 0.34539 0.78918 0.14675 0.0
H516 H 0.77907 0.2592 0.33121 0.0
H517 H 0.69443 0.08442 0.39447 0.0
H518 H 0.71454 0.201 0.26095 0.0
H519 H 0.78503 0.12079 0.4392 0.0
H520 H 0.69442 0.13317 0.35179 0.0
H521 H 0.7753 0.21378 0.37716 0.0
C522 C 0.76422 0.23692 0.32528 0.0
C523 C 0.74712 0.23412 0.29198 0.0
C524 C 0.71415 0.13048 0.37117 0.0
C525 C 0.74206 0.18245 0.34501 0.0
C526 C 0.71405 0.10286 0.39562 0.0
C527 C 0.73987 0.09847 0.42016 0.0
C528 C 0.73996 0.15405 0.37183 0.0
C529 C 0.7648 0.12303 0.42044 0.0
C530 C 0.7619 0.21113 0.35168 0.0
C531 C 0.72772 0.20479 0.28638 0.0
N532 N 0.76422 0.14975 0.39667 0.0
N533 N 0.72566 0.18019 0.31262 0.0
H534 H 0.30454 0.24717 0.79265 0.0
H535 H 0.42444 0.3603 0.91746 0.0
H536 H 0.31705 0.35588 0.77565 0.0
H537 H 0.40995 0.25088 0.92669 0.0
H538 H 0.38393 0.36131 0.86774 0.0
H539 H 0.34174 0.25006 0.84414 0.0
C540 C 0.31539 0.2717 0.79965 0.0
C541 C 0.30817 0.30121 0.77939 0.0
C542 C 0.38967 0.33719 0.88085 0.0
C543 C 0.35084 0.30491 0.83905 0.0
C544 C 0.41271 0.33659 0.90919 0.0
C545 C 0.42076 0.30543 0.92616 0.0
C546 C 0.37463 0.30644 0.86966 0.0
C547 C 0.40481 0.27551 0.91437 0.0
C548 C 0.33655 0.27341 0.82928 0.0
C549 C 0.32217 0.3325 0.79048 0.0
N550 N 0.38268 0.2768 0.88696 0.0
N551 N 0.3431 0.33353 0.81951 0.0
H552 H 0.31332 0.79276 0.30428 0.0
H553 H 0.21834 0.89493 0.46126 0.0
H554 H 0.20942 0.80432 0.30785 0.0
H555 H 0.31968 0.913 0.43954 0.0
H556 H 0.21689 0.85349 0.41123 0.0
H557 H 0.31779 0.82978 0.35871 0.0
C558 C 0.29143 0.80316 0.31631 0.0
C559 C 0.26088 0.79551 0.30114 0.0
C560 C 0.23951 0.86637 0.4174 0.0
C561 C 0.26597 0.83716 0.36402 0.0
C562 C 0.24046 0.89005 0.44612 0.0
C563 C 0.26915 0.90788 0.45441 0.0
C564 C 0.26746 0.86014 0.39663 0.0
C565 C 0.29703 0.89997 0.43399 0.0
C566 C 0.29407 0.82411 0.34753 0.0
C567 C 0.23342 0.80906 0.31866 0.0
N568 N 0.29546 0.87675 0.40579 0.0
N569 N 0.23665 0.82917 0.34909 0.0
H570 H 0.73896 0.73559 0.82942 0.0
H571 H 0.57153 0.80885 0.90471 0.0
H572 H 0.66407 0.77248 0.75664 0.0
H573 H 0.62039 0.72362 0.95544 0.0
H574 H 0.61259 0.80854 0.85557 0.0
H575 H 0.70187 0.7427 0.88125 0.0
C576 C 0.71478 0.745 0.82414 0.0
C577 C 0.70472 0.75316 0.78828 0.0
C578 C 0.6144 0.79024 0.87778 0.0
C579 C 0.66272 0.76263 0.84792 0.0
C580 C 0.59125 0.79059 0.90585 0.0
C581 C 0.59265 0.76613 0.93389 0.0
C582 C 0.63935 0.76578 0.87847 0.0
C583 C 0.61843 0.74274 0.93406 0.0
C584 C 0.69378 0.74937 0.85386 0.0
C585 C 0.67326 0.76629 0.78367 0.0
N586 N 0.64083 0.74315 0.90677 0.0
N587 N 0.65343 0.7707 0.81313 0.0
loop_
_geom_bond_atom_site_label_1
_geom_bond_atom_site_label_2
_geom_bond_distance
_geom_bond_site_symmetry_2
_ccdc_geom_bond_type
H0 C3 0.931 . S
H1 C6 0.928 . S
H2 C8 0.930 . S
C3 H0 0.931 . S
C3 C4 1.413 . S
C3 C5 1.360 . S
C4 C3 1.413 . S
C4 C8 1.429 . S
C5 C3 1.360 . S
C5 C6 1.372 . S
C6 H1 0.928 . S
C6 C5 1.372 . S
C6 C7 1.404 . S
C7 C6 1.404 . S
C7 C8 1.391 . S
C8 H2 0.930 . S
C8 C4 1.429 . S
C8 C7 1.391 . S
H9 C12 0.931 . S
H10 C15 0.928 . S
H11 C17 0.930 . S
C12 H9 0.931 . S
C12 C13 1.413 . S
C12 C14 1.360 . S
C13 C12 1.413 . S
C13 C17 1.429 . S
C14 C12 1.360 . S
C14 C15 1.372 . S
C15 H10 0.928 . S
C15 C14 1.372 . S
C15 C16 1.404 . S
C16 C15 1.404 . S
C16 C17 1.391 . S
C17 H11 0.930 . S
C17 C13 1.429 . S
C17 C16 1.391 . S
H18 C21 0.931 . S
H19 C24 0.928 . S
H20 C26 0.930 . S
C21 H18 0.931 . S
C21 C22 1.413 . S
C21 C23 1.360 . S
C22 C21 1.413 . S
C22 C26 1.429 . S
C23 C21 1.360 . S
C23 C24 1.372 . S
C24 H19 0.928 . S
C24 C23 1.372 . S
C24 C25 1.404 . S
C25 C24 1.404 . S
C25 C26 1.391 . S
C26 H20 0.930 . S
C26 C22 1.429 . S
C26 C25 1.391 . S
H27 C30 0.931 . S
H28 C33 0.928 . S
H29 C35 0.930 . S
C30 H27 0.931 . S
C30 C31 1.413 . S
C30 C32 1.360 . S
C31 C30 1.413 . S
C31 C35 1.429 . S
C32 C30 1.360 . S
C32 C33 1.372 . S
C33 H28 0.928 . S
C33 C32 1.372 . S
C33 C34 1.404 . S
C34 C33 1.404 . S
C34 C35 1.391 . S
C35 H29 0.930 . S
C35 C31 1.429 . S
C35 C34 1.391 . S
H36 C39 0.931 . S
H37 C42 0.928 . S
H38 C44 0.930 . S
C39 H36 0.931 . S
C39 C40 1.413 . S
C39 C41 1.360 . S
C40 C39 1.413 . S
C40 C44 1.429 . S
C41 C39 1.360 . S
C41 C42 1.372 . S
C42 H37 0.928 . S
C42 C41 1.372 . S
C42 C43 1.404 . S
C43 C42 1.404 . S
C43 C44 1.391 . S
C44 H38 0.930 . S
C44 C40 1.429 . S
C44 C43 1.391 . S
H45 C48 0.931 . S
H46 C51 0.928 . S
H47 C53 0.930 . S
C48 H45 0.931 . S
C48 C49 1.413 . S
C48 C50 1.360 . S
C49 C48 1.413 . S
C49 C53 1.429 . S
C50 C48 1.360 . S
C50 C51 1.372 . S
C51 H46 0.928 . S
C51 C50 1.372 . S
C51 C52 1.404 . S
C52 C51 1.404 . S
C52 C53 1.391 . S
C53 H47 0.930 . S
C53 C49 1.429 . S
C53 C52 1.391 . S
H54 C57 0.931 . S
H55 C60 0.928 . S
H56 C62 0.930 . S
C57 H54 0.931 . S
C57 C58 1.413 . S
C57 C59 1.360 . S
C58 C57 1.413 . S
C58 C62 1.429 . S
C59 C57 1.360 . S
C59 C60 1.372 . S
C60 H55 0.928 . S
C60 C59 1.372 . S
C60 C61 1.404 . S
C61 C60 1.404 . S
C61 C62 1.391 . S
C62 H56 0.930 . S
C62 C58 1.429 . S
C62 C61 1.391 . S
H63 C66 0.931 . S
H64 C69 0.928 . S
H65 C71 0.930 . S
C66 H63 0.931 . S
C66 C67 1.413 . S
C66 C68 1.360 . S
C67 C66 1.413 . S
C67 C71 1.429 . S
C68 C66 1.360 . S
C68 C69 1.372 . S
C69 H64 0.928 . S
C69 C68 1.372 . S
C69 C70 1.404 . S
C70 C69 1.404 . S
C70 C71 1.391 . S
C71 H65 0.930 . S
C71 C67 1.429 . S
C71 C70 1.391 . S
C72 O74 1.247 . S
C72 O76 1.258 . S
C73 O80 1.247 . S
C73 O81 1.258 . S
O74 C72 1.247 . S
O74 Zn75 2.028 1_655 S
Zn75 O74 2.028 1_455 S
Zn75 O79 2.035 . S
Zn75 O81 2.035 . S
Zn75 O82 2.028 1_455 S
O76 C72 1.258 . S
O76 Zn77 2.035 1_655 S
Zn77 O76 2.035 1_455 S
Zn77 O78 2.028 . S
Zn77 O80 2.028 . S
Zn77 O83 2.035 1_455 S
O78 Zn77 2.028 . S
O78 C84 1.247 . S
O79 Zn75 2.035 . S
O79 C84 1.258 . S
O80 C73 1.247 . S
O80 Zn77 2.028 . S
O81 C73 1.258 . S
O81 Zn75 2.035 . S
O82 Zn75 2.028 1_655 S
O82 C85 1.247 . S
O83 Zn77 2.035 1_655 S
O83 C85 1.258 . S
C84 O78 1.247 . S
C84 O79 1.258 . S
C85 O82 1.247 . S
C85 O83 1.258 . S
C86 O88 1.247 . S
C86 O90 1.258 . S
C87 O94 1.247 . S
C87 O95 1.258 . S
O88 C86 1.247 . S
O88 Zn89 2.028 1_655 S
Zn89 O88 2.028 1_455 S
Zn89 O93 2.035 . S
Zn89 O95 2.035 . S
Zn89 O96 2.028 1_455 S
O90 C86 1.258 . S
O90 Zn91 2.035 1_655 S
Zn91 O90 2.035 1_455 S
Zn91 O92 2.028 . S
Zn91 O94 2.028 . S
Zn91 O97 2.035 1_455 S
O92 Zn91 2.028 . S
O92 C98 1.247 . S
O93 Zn89 2.035 . S
O93 C98 1.258 . S
O94 C87 1.247 . S
O94 Zn91 2.028 . S
O95 C87 1.258 . S
O95 Zn89 2.035 . S
O96 Zn89 2.028 1_655 S
O96 C99 1.247 . S
O97 Zn91 2.035 1_655 S
O97 C99 1.258 . S
C98 O92 1.247 . S
C98 O93 1.258 . S
C99 O96 1.247 . S
C99 O97 1.258 . S
C100 O102 1.247 . S
C100 O104 1.258 . S
C101 O108 1.247 . S
C101 O109 1.258 . S
O102 C100 1.247 . S
O102 Zn103 2.024 1_565 S
Zn103 O102 2.024 1_545 S
Zn103 O107 2.039 . S
Zn103 O109 2.039 . S
Zn103 O110 2.025 1_545 S
O104 C100 1.258 . S
O104 Zn105 2.016 1_565 S
Zn105 O104 2.016 1_545 S
Zn105 O106 2.047 . S
Zn105 O108 2.047 . S
Zn105 O111 2.016 1_545 S
O106 Zn105 2.047 . S
O106 C112 1.247 . S
O107 Zn103 2.039 . S
O107 C112 1.258 . S
O108 C101 1.247 . S
O108 Zn105 2.047 . S
O109 C101 1.258 . S
O109 Zn103 2.039 . S
O110 Zn103 2.025 1_565 S
O110 C113 1.247 . S
O111 Zn105 2.016 1_565 S
O111 C113 1.258 . S
C112 O106 1.247 . S
C112 O107 1.258 . S
C113 O110 1.247 . S
C113 O111 1.258 . S
C114 O116 1.247 . S
C114 O118 1.258 . S
C115 O122 1.247 . S
C115 O123 1.258 . S
O116 C114 1.247 . S
O116 Zn117 2.026 . S
Zn117 O116 2.026 . S
Zn117 O121 2.033 . S
Zn117 O123 2.037 1_554 S
Zn117 O124 2.030 1_554 S
O118 C114 1.258 . S
O118 Zn119 2.047 . S
Zn119 O118 2.047 . S
Zn119 O120 2.040 . S
Zn119 O122 2.016 1_554 S
Zn119 O125 2.023 1_554 S
O120 Zn119 2.040 . S
O120 C126 1.247 . S
O121 Zn117 2.033 . S
O121 C126 1.258 . S
O122 C115 1.247 . S
O122 Zn119 2.016 1_556 S
O123 C115 1.258 . S
O123 Zn117 2.037 1_556 S
O124 Zn117 2.030 1_556 S
O124 C127 1.247 . S
O125 Zn119 2.023 1_556 S
O125 C127 1.258 . S
C126 O120 1.247 . S
C126 O121 1.258 . S
C127 O124 1.247 . S
C127 O125 1.258 . S
C128 O130 1.247 . S
C128 O132 1.258 . S
C129 O136 1.247 . S
C129 O137 1.258 . S
O130 C128 1.247 . S
O130 Zn131 2.028 . S
Zn131 O130 2.028 . S
Zn131 O135 2.036 1_565 S
Zn131 O137 2.036 1_565 S
Zn131 O138 2.028 . S
O132 C128 1.258 . S
O132 Zn133 2.024 1_565 S
Zn133 O132 2.024 1_545 S
Zn133 O134 2.039 . S
Zn133 O136 2.039 . S
Zn133 O139 2.024 1_545 S
O134 Zn133 2.039 . S
O134 C140 1.247 . S
O135 Zn131 2.036 1_545 S
O135 C140 1.258 . S
O136 C129 1.247 . S
O136 Zn133 2.039 . S
O137 C129 1.258 . S
O137 Zn131 2.036 1_545 S
O138 Zn131 2.028 . S
O138 C141 1.247 . S
O139 Zn133 2.024 1_565 S
O139 C141 1.258 . S
C140 O134 1.247 . S
C140 O135 1.258 . S
C141 O138 1.247 . S
C141 O139 1.258 . S
C142 O144 1.247 . S
C142 O146 1.258 . S
C143 O150 1.247 . S
C143 O151 1.258 . S
O144 C142 1.247 . S
O144 Zn145 2.028 . S
Zn145 O144 2.028 . S
Zn145 O149 2.035 . S
Zn145 O151 2.035 1_554 S
Zn145 O152 2.028 1_554 S
O146 C142 1.258 . S
O146 Zn147 2.035 . S
Zn147 O146 2.035 . S
Zn147 O148 2.028 . S
Zn147 O150 2.028 1_554 S
Zn147 O153 2.035 1_554 S
O148 Zn147 2.028 . S
O148 C154 1.247 . S
O149 Zn145 2.035 . S
O149 C154 1.258 . S
O150 C143 1.247 . S
O150 Zn147 2.028 1_556 S
O151 C143 1.258 . S
O151 Zn145 2.035 1_556 S
O152 Zn145 2.028 1_556 S
O152 C155 1.247 . S
O153 Zn147 2.035 1_556 S
O153 C155 1.258 . S
C154 O148 1.247 . S
C154 O149 1.258 . S
C155 O152 1.247 . S
C155 O153 1.258 . S
H156 C162 0.930 . S
H157 C166 0.930 . S
H158 C171 0.929 . S
H159 C169 0.929 . S
H160 C164 0.929 . S
H161 C170 0.929 . S
C162 H156 0.930 . S
C162 C163 1.367 . S
C162 C170 1.378 . S
C163 C162 1.367 . S
C163 C171 1.433 . S
C164 H160 0.929 . S
C164 C166 1.378 . S
C164 C168 1.350 . S
C165 C168 1.463 . S
C165 C170 1.350 . S
C165 N173 1.427 . S
C166 H157 0.930 . S
C166 C164 1.378 . S
C166 C167 1.367 . S
C167 C166 1.367 . S
C167 C169 1.433 . S
C168 C164 1.350 . S
C168 C165 1.463 . S
C168 N172 1.427 . S
C169 H159 0.929 . S
C169 C167 1.433 . S
C169 N172 1.384 . S
C170 H161 0.929 . S
C170 C162 1.378 . S
C170 C165 1.350 . S
C171 H158 0.929 . S
C171 C163 1.433 . S
C171 N173 1.384 . S
N172 C168 1.427 . S
N172 C169 1.384 . S
N173 C165 1.427 . S
N173 C171 1.384 . S
H174 C180 0.930 . S
H175 C184 0.930 . S
H176 C189 0.929 . S
H177 C187 0.929 . S
H178 C182 0.929 . S
H179 C188 0.929 . S
C180 H174 0.930 . S
C180 C181 1.367 . S
C180 C188 1.378 . S
C181 C180 1.367 . S
C181 C189 1.433 . S
C182 H178 0.929 . S
C182 C184 1.378 . S
C182 C186 1.350 . S
C183 C186 1.463 . S
C183 C188 1.350 . S
C183 N191 1.427 . S
C184 H175 0.930 . S
C184 C182 1.378 . S
C184 C185 1.367 . S
C185 C184 1.367 . S
C185 C187 1.433 . S
C186 C182 1.350 . S
C186 C183 1.463 . S
C186 N190 1.427 . S
C187 H177 0.929 . S
C187 C185 1.433 . S
C187 N190 1.384 . S
C188 H179 0.929 . S
C188 C180 1.378 . S
C188 C183 1.350 . S
C189 H176 0.929 . S
C189 C181 1.433 . S
C189 N191 1.384 . S
N190 C186 1.427 . S
N190 C187 1.384 . S
N191 C183 1.427 . S
N191 C189 1.384 . S
H192 C198 0.930 . S
H193 C202 0.930 . S
H194 C207 0.929 . S
H195 C205 0.929 . S
H196 C200 0.929 . S
H197 C206 0.929 . S
C198 H192 0.930 . S
C198 C199 1.367 . S
C198 C206 1.378 . S
C199 C198 1.367 . S
C199 C207 1.433 . S
C200 H196 0.929 . S
C200 C202 1.378 . S
C200 C204 1.350 . S
C201 C204 1.463 . S
C201 C206 1.350 . S
C201 N209 1.427 . S
C202 H193 0.930 . S
C202 C200 1.378 . S
C202 C203 1.367 . S
C203 C202 1.367 . S
C203 C205 1.433 . S
C204 C200 1.350 . S
C204 C201 1.463 . S
C204 N208 1.427 . S
C205 H195 0.929 . S
C205 C203 1.433 . S
C205 N208 1.384 . S
C206 H197 0.929 . S
C206 C198 1.378 . S
C206 C201 1.350 . S
C207 H194 0.929 . S
C207 C199 1.433 . S
C207 N209 1.384 . S
N208 C204 1.427 . S
N208 C205 1.384 . S
N209 C201 1.427 . S
N209 C207 1.384 . S
H210 C216 0.930 . S
H211 C220 0.930 . S
H212 C225 0.929 . S
H213 C223 0.929 . S
H214 C218 0.929 . S
H215 C224 0.929 . S
C216 H210 0.930 . S
C216 C217 1.367 . S
C216 C224 1.378 . S
C217 C216 1.367 . S
C217 C225 1.433 . S
C218 H214 0.929 . S
C218 C220 1.378 . S
C218 C222 1.350 . S
C219 C222 1.463 . S
C219 C224 1.350 . S
C219 N227 1.427 . S
C220 H211 0.930 . S
C220 C218 1.378 . S
C220 C221 1.367 . S
C221 C220 1.367 . S
C221 C223 1.433 . S
C222 C218 1.350 . S
C222 C219 1.463 . S
C222 N226 1.427 . S
C223 H213 0.929 . S
C223 C221 1.433 . S
C223 N226 1.384 . S
C224 H215 0.929 . S
C224 C216 1.378 . S
C224 C219 1.350 . S
C225 H212 0.929 . S
C225 C217 1.433 . S
C225 N227 1.384 . S
N226 C222 1.427 . S
N226 C223 1.384 . S
N227 C219 1.427 . S
N227 C225 1.384 . S
H228 C234 0.930 . S
H229 C238 0.930 . S
H230 C243 0.929 . S
H231 C241 0.929 . S
H232 C236 0.929 . S
H233 C242 0.929 . S
C234 H228 0.930 . S
C234 C235 1.367 . S
C234 C242 1.378 . S
C235 C234 1.367 . S
C235 C243 1.433 . S
C236 H232 0.929 . S
C236 C238 1.378 . S
C236 C240 1.350 . S
C237 C240 1.463 . S
C237 C242 1.350 . S
C237 N245 1.427 . S
C238 H229 0.930 . S
C238 C236 1.378 . S
C238 C239 1.367 . S
C239 C238 1.367 . S
C239 C241 1.433 . S
C240 C236 1.350 . S
C240 C237 1.463 . S
C240 N244 1.427 . S
C241 H231 0.929 . S
C241 C239 1.433 . S
C241 N244 1.384 . S
C242 H233 0.929 . S
C242 C234 1.378 . S
C242 C237 1.350 . S
C243 H230 0.929 . S
C243 C235 1.433 . S
C243 N245 1.384 . S
N244 C240 1.427 . S
N244 C241 1.384 . S
N245 C237 1.427 . S
N245 C243 1.384 . S
H246 C252 0.930 . S
H247 C256 0.930 . S
H248 C261 0.929 . S
H249 C259 0.929 . S
H250 C254 0.929 . S
H251 C260 0.929 . S
C252 H246 0.930 . S
C252 C253 1.367 . S
C252 C260 1.378 . S
C253 C252 1.367 . S
C253 C261 1.433 . S
C254 H250 0.929 . S
C254 C256 1.378 . S
C254 C258 1.350 . S
C255 C258 1.463 . S
C255 C260 1.350 . S
C255 N263 1.427 . S
C256 H247 0.930 . S
C256 C254 1.378 . S
C256 C257 1.367 . S
C257 C256 1.367 . S
C257 C259 1.433 . S
C258 C254 1.350 . S
C258 C255 1.463 . S
C258 N262 1.427 . S
C259 H249 0.929 . S
C259 C257 1.433 . S
C259 N262 1.384 . S
C260 H251 0.929 . S
C260 C252 1.378 . S
C260 C255 1.350 . S
C261 H248 0.929 . S
C261 C253 1.433 . S
C261 N263 1.384 . S
N262 C258 1.427 . S
N262 C259 1.384 . S
N263 C255 1.427 . S
N263 C261 1.384 . S
H264 C270 0.930 . S
H265 C274 0.930 . S
H266 C279 0.929 . S
H267 C277 0.929 . S
H268 C272 0.929 . S
H269 C278 0.929 . S
C270 H264 0.930 . S
C270 C271 1.367 . S
C270 C278 1.378 . S
C271 C270 1.367 . S
C271 C279 1.433 . S
C272 H268 0.929 . S
C272 C274 1.378 . S
C272 C276 1.350 . S
C273 C276 1.463 . S
C273 C278 1.350 . S
C273 N281 1.427 . S
C274 H265 0.930 . S
C274 C272 1.378 . S
C274 C275 1.367 . S
C275 C274 1.367 . S
C275 C277 1.433 . S
C276 C272 1.350 . S
C276 C273 1.463 . S
C276 N280 1.427 . S
C277 H267 0.929 . S
C277 C275 1.433 . S
C277 N280 1.384 . S
C278 H269 0.929 . S
C278 C270 1.378 . S
C278 C273 1.350 . S
C279 H266 0.929 . S
C279 C271 1.433 . S
C279 N281 1.384 . S
N280 C276 1.427 . S
N280 C277 1.384 . S
N281 C273 1.427 . S
N281 C279 1.384 . S
H282 C288 0.930 . S
H283 C292 0.930 . S
H284 C297 0.929 . S
H285 C295 0.929 . S
H286 C290 0.929 . S
H287 C296 0.929 . S
C288 H282 0.930 . S
C288 C289 1.367 . S
C288 C296 1.378 . S
C289 C288 1.367 . S
C289 C297 1.433 . S
C290 H286 0.929 . S
C290 C292 1.378 . S
C290 C294 1.350 . S
C291 C294 1.463 . S
C291 C296 1.350 . S
C291 N299 1.427 . S
C292 H283 0.930 . S
C292 C290 1.378 . S
C292 C293 1.367 . S
C293 C292 1.367 . S
C293 C295 1.433 . S
C294 C290 1.350 . S
C294 C291 1.463 . S
C294 N298 1.427 . S
C295 H285 0.929 . S
C295 C293 1.433 . S
C295 N298 1.384 . S
C296 H287 0.929 . S
C296 C288 1.378 . S
C296 C291 1.350 . S
C297 H284 0.929 . S
C297 C289 1.433 . S
C297 N299 1.384 . S
N298 C294 1.427 . S
N298 C295 1.384 . S
N299 C291 1.427 . S
N299 C297 1.384 . S
H300 C306 0.930 . S
H301 C310 0.930 . S
H302 C315 0.929 . S
H303 C313 0.929 . S
H304 C308 0.929 . S
H305 C314 0.929 . S
C306 H300 0.930 . S
C306 C307 1.367 . S
C306 C314 1.378 . S
C307 C306 1.367 . S
C307 C315 1.433 . S
C308 H304 0.929 . S
C308 C310 1.378 . S
C308 C312 1.350 . S
C309 C312 1.463 . S
C309 C314 1.350 . S
C309 N317 1.427 . S
C310 H301 0.930 . S
C310 C308 1.378 . S
C310 C311 1.367 . S
C311 C310 1.367 . S
C311 C313 1.433 . S
C312 C308 1.350 . S
C312 C309 1.463 . S
C312 N316 1.427 . S
C313 H303 0.929 . S
C313 C311 1.433 . S
C313 N316 1.384 . S
C314 H305 0.929 . S
C314 C306 1.378 . S
C314 C309 1.350 . S
C315 H302 0.929 . S
C315 C307 1.433 . S
C315 N317 1.384 . S
N316 C312 1.427 . S
N316 C313 1.384 . S
N317 C309 1.427 . S
N317 C315 1.384 . S
H318 C324 0.930 . S
H319 C328 0.930 . S
H320 C333 0.929 . S
H321 C331 0.929 . S
H322 C326 0.929 . S
H323 C332 0.929 . S
C324 H318 0.930 . S
C324 C325 1.367 . S
C324 C332 1.378 . S
C325 C324 1.367 . S
C325 C333 1.433 . S
C326 H322 0.929 . S
C326 C328 1.378 . S
C326 C330 1.350 . S
C327 C330 1.463 . S
C327 C332 1.350 . S
C327 N335 1.427 . S
C328 H319 0.930 . S
C328 C326 1.378 . S
C328 C329 1.367 . S
C329 C328 1.367 . S
C329 C331 1.433 . S
C330 C326 1.350 . S
C330 C327 1.463 . S
C330 N334 1.427 . S
C331 H321 0.929 . S
C331 C329 1.433 . S
C331 N334 1.384 . S
C332 H323 0.929 . S
C332 C324 1.378 . S
C332 C327 1.350 . S
C333 H320 0.929 . S
C333 C325 1.433 . S
C333 N335 1.384 . S
N334 C330 1.427 . S
N334 C331 1.384 . S
N335 C327 1.427 . S
N335 C333 1.384 . S
H336 C342 0.930 . S
H337 C346 0.930 . S
H338 C351 0.929 . S
H339 C349 0.929 . S
H340 C344 0.929 . S
H341 C350 0.929 . S
C342 H336 0.930 . S
C342 C343 1.367 . S
C342 C350 1.378 . S
C343 C342 1.367 . S
C343 C351 1.433 . S
C344 H340 0.929 . S
C344 C346 1.378 . S
C344 C348 1.350 . S
C345 C348 1.463 . S
C345 C350 1.350 . S
C345 N353 1.427 . S
C346 H337 0.930 . S
C346 C344 1.378 . S
C346 C347 1.367 . S
C347 C346 1.367 . S
C347 C349 1.433 . S
C348 C344 1.350 . S
C348 C345 1.463 . S
C348 N352 1.427 . S
C349 H339 0.929 . S
C349 C347 1.433 . S
C349 N352 1.384 . S
C350 H341 0.929 . S
C350 C342 1.378 . S
C350 C345 1.350 . S
C351 H338 0.929 . S
C351 C343 1.433 . S
C351 N353 1.384 . S
N352 C348 1.427 . S
N352 C349 1.384 . S
N353 C345 1.427 . S
N353 C351 1.384 . S
H354 C360 0.930 . S
H355 C364 0.930 . S
H356 C369 0.929 . S
H357 C367 0.929 . S
H358 C362 0.929 . S
H359 C368 0.929 . S
C360 H354 0.930 . S
C360 C361 1.367 . S
C360 C368 1.378 . S
C361 C360 1.367 . S
C361 C369 1.433 . S
C362 H358 0.929 . S
C362 C364 1.378 . S
C362 C366 1.350 . S
C363 C366 1.463 . S
C363 C368 1.350 . S
C363 N371 1.427 . S
C364 H355 0.930 . S
C364 C362 1.378 . S
C364 C365 1.367 . S
C365 C364 1.367 . S
C365 C367 1.433 . S
C366 C362 1.350 . S
C366 C363 1.463 . S
C366 N370 1.427 . S
C367 H357 0.929 . S
C367 C365 1.433 . S
C367 N370 1.384 . S
C368 H359 0.929 . S
C368 C360 1.378 . S
C368 C363 1.350 . S
C369 H356 0.929 . S
C369 C361 1.433 . S
C369 N371 1.384 . S
N370 C366 1.427 . S
N370 C367 1.384 . S
N371 C363 1.427 . S
N371 C369 1.384 . S
H372 C378 0.930 . S
H373 C382 0.930 . S
H374 C387 0.929 . S
H375 C385 0.929 . S
H376 C380 0.929 . S
H377 C386 0.929 . S
C378 H372 0.930 . S
C378 C379 1.367 . S
C378 C386 1.378 . S
C379 C378 1.367 . S
C379 C387 1.433 . S
C380 H376 0.929 . S
C380 C382 1.378 . S
C380 C384 1.350 . S
C381 C384 1.463 . S
C381 C386 1.350 . S
C381 N389 1.427 . S
C382 H373 0.930 . S
C382 C380 1.378 . S
C382 C383 1.367 . S
C383 C382 1.367 . S
C383 C385 1.433 . S
C384 C380 1.350 . S
C384 C381 1.463 . S
C384 N388 1.427 . S
C385 H375 0.929 . S
C385 C383 1.433 . S
C385 N388 1.384 . S
C386 H377 0.929 . S
C386 C378 1.378 . S
C386 C381 1.350 . S
C387 H374 0.929 . S
C387 C379 1.433 . S
C387 N389 1.384 . S
N388 C384 1.427 . S
N388 C385 1.384 . S
N389 C381 1.427 . S
N389 C387 1.384 . S
H390 C396 0.930 . S
H391 C400 0.930 . S
H392 C405 0.929 . S
H393 C403 0.929 . S
H394 C398 0.929 . S
H395 C404 0.929 . S
C396 H390 0.930 . S
C396 C397 1.367 . S
C396 C404 1.378 . S
C397 C396 1.367 . S
C397 C405 1.433 . S
C398 H394 0.929 . S
C398 C400 1.378 . S
C398 C402 1.350 . S
C399 C402 1.463 . S
C399 C404 1.350 . S
C399 N407 1.427 . S
C400 H391 0.930 . S
C400 C398 1.378 . S
C400 C401 1.367 . S
C401 C400 1.367 . S
C401 C403 1.433 . S
C402 C398 1.350 . S
C402 C399 1.463 . S
C402 N406 1.427 . S
C403 H393 0.929 . S
C403 C401 1.433 . S
C403 N406 1.384 . S
C404 H395 0.929 . S
C404 C396 1.378 . S
C404 C399 1.350 . S
C405 H392 0.929 . S
C405 C397 1.433 . S
C405 N407 1.384 . S
N406 C402 1.427 . S
N406 C403 1.384 . S
N407 C399 1.427 . S
N407 C405 1.384 . S
H408 C414 0.930 . S
H409 C418 0.930 . S
H410 C423 0.929 . S
H411 C421 0.929 . S
H412 C416 0.929 . S
H413 C422 0.929 . S
C414 H408 0.930 . S
C414 C415 1.367 . S
C414 C422 1.378 . S
C415 C414 1.367 . S
C415 C423 1.433 . S
C416 H412 0.929 . S
C416 C418 1.378 . S
C416 C420 1.350 . S
C417 C420 1.463 . S
C417 C422 1.350 . S
C417 N425 1.427 . S
C418 H409 0.930 . S
C418 C416 1.378 . S
C418 C419 1.367 . S
C419 C418 1.367 . S
C419 C421 1.433 . S
C420 C416 1.350 . S
C420 C417 1.463 . S
C420 N424 1.427 . S
C421 H411 0.929 . S
C421 C419 1.433 . S
C421 N424 1.384 . S
C422 H413 0.929 . S
C422 C414 1.378 . S
C422 C417 1.350 . S
C423 H410 0.929 . S
C423 C415 1.433 . S
C423 N425 1.384 . S
N424 C420 1.427 . S
N424 C421 1.384 . S
N425 C417 1.427 . S
N425 C423 1.384 . S
H426 C432 0.930 . S
H427 C436 0.930 . S
H428 C441 0.929 . S
H429 C439 0.929 . S
H430 C434 0.929 . S
H431 C440 0.929 . S
C432 H426 0.930 . S
C432 C433 1.367 . S
C432 C440 1.378 . S
C433 C432 1.367 . S
C433 C441 1.433 . S
C434 H430 0.929 . S
C434 C436 1.378 . S
C434 C438 1.350 . S
C435 C438 1.463 . S
C435 C440 1.350 . S
C435 N443 1.427 . S
C436 H427 0.930 . S
C436 C434 1.378 . S
C436 C437 1.367 . S
C437 C436 1.367 . S
C437 C439 1.433 . S
C438 C434 1.350 . S
C438 C435 1.463 . S
C438 N442 1.427 . S
C439 H429 0.929 . S
C439 C437 1.433 . S
C439 N442 1.384 . S
C440 H431 0.929 . S
C440 C432 1.378 . S
C440 C435 1.350 . S
C441 H428 0.929 . S
C441 C433 1.433 . S
C441 N443 1.384 . S
N442 C438 1.427 . S
N442 C439 1.384 . S
N443 C435 1.427 . S
N443 C441 1.384 . S
H444 C450 0.930 . S
H445 C454 0.930 . S
H446 C459 0.929 . S
H447 C457 0.929 . S
H448 C452 0.929 . S
H449 C458 0.929 . S
C450 H444 0.930 . S
C450 C451 1.367 . S
C450 C458 1.378 . S
C451 C450 1.367 . S
C451 C459 1.433 . S
C452 H448 0.929 . S
C452 C454 1.378 . S
C452 C456 1.350 . S
C453 C456 1.463 . S
C453 C458 1.350 . S
C453 N461 1.427 . S
C454 H445 0.930 . S
C454 C452 1.378 . S
C454 C455 1.367 . S
C455 C454 1.367 . S
C455 C457 1.433 . S
C456 C452 1.350 . S
C456 C453 1.463 . S
C456 N460 1.427 . S
C457 H447 0.929 . S
C457 C455 1.433 . S
C457 N460 1.384 . S
C458 H449 0.929 . S
C458 C450 1.378 . S
C458 C453 1.350 . S
C459 H446 0.929 . S
C459 C451 1.433 . S
C459 N461 1.384 . S
N460 C456 1.427 . S
N460 C457 1.384 . S
N461 C453 1.427 . S
N461 C459 1.384 . S
H462 C468 0.930 . S
H463 C472 0.930 . S
H464 C477 0.929 . S
H465 C475 0.929 . S
H466 C470 0.929 . S
H467 C476 0.929 . S
C468 H462 0.930 . S
C468 C469 1.367 . S
C468 C476 1.378 . S
C469 C468 1.367 . S
C469 C477 1.433 . S
C470 H466 0.929 . S
C470 C472 1.378 . S
C470 C474 1.350 . S
C471 C474 1.463 . S
C471 C476 1.350 . S
C471 N479 1.427 . S
C472 H463 0.930 . S
C472 C470 1.378 . S
C472 C473 1.367 . S
C473 C472 1.367 . S
C473 C475 1.433 . S
C474 C470 1.350 . S
C474 C471 1.463 . S
C474 N478 1.427 . S
C475 H465 0.929 . S
C475 C473 1.433 . S
C475 N478 1.384 . S
C476 H467 0.929 . S
C476 C468 1.378 . S
C476 C471 1.350 . S
C477 H464 0.929 . S
C477 C469 1.433 . S
C477 N479 1.384 . S
N478 C474 1.427 . S
N478 C475 1.384 . S
N479 C471 1.427 . S
N479 C477 1.384 . S
H480 C486 0.930 . S
H481 C490 0.930 . S
H482 C495 0.929 . S
H483 C493 0.929 . S
H484 C488 0.929 . S
H485 C494 0.929 . S
C486 H480 0.930 . S
C486 C487 1.367 . S
C486 C494 1.378 . S
C487 C486 1.367 . S
C487 C495 1.433 . S
C488 H484 0.929 . S
C488 C490 1.378 . S
C488 C492 1.350 . S
C489 C492 1.463 . S
C489 C494 1.350 . S
C489 N497 1.427 . S
C490 H481 0.930 . S
C490 C488 1.378 . S
C490 C491 1.367 . S
C491 C490 1.367 . S
C491 C493 1.433 . S
C492 C488 1.350 . S
C492 C489 1.463 . S
C492 N496 1.427 . S
C493 H483 0.929 . S
C493 C491 1.433 . S
C493 N496 1.384 . S
C494 H485 0.929 . S
C494 C486 1.378 . S
C494 C489 1.350 . S
C495 H482 0.929 . S
C495 C487 1.433 . S
C495 N497 1.384 . S
N496 C492 1.427 . S
N496 C493 1.384 . S
N497 C489 1.427 . S
N497 C495 1.384 . S
H498 C504 0.930 . S
H499 C508 0.930 . S
H500 C513 0.929 . S
H501 C511 0.929 . S
H502 C506 0.929 . S
H503 C512 0.929 . S
C504 H498 0.930 . S
C504 C505 1.367 . S
C504 C512 1.378 . S
C505 C504 1.367 . S
C505 C513 1.433 . S
C506 H502 0.929 . S
C506 C508 1.378 . S
C506 C510 1.350 . S
C507 C510 1.463 . S
C507 C512 1.350 . S
C507 N515 1.427 . S
C508 H499 0.930 . S
C508 C506 1.378 . S
C508 C509 1.367 . S
C509 C508 1.367 . S
C509 C511 1.433 . S
C510 C506 1.350 . S
C510 C507 1.463 . S
C510 N514 1.427 . S
C511 H501 0.929 . S
C511 C509 1.433 . S
C511 N514 1.384 . S
C512 H503 0.929 . S
C512 C504 1.378 . S
C512 C507 1.350 . S
C513 H500 0.929 . S
C513 C505 1.433 . S
C513 N515 1.384 . S
N514 C510 1.427 . S
N514 C511 1.384 . S
N515 C507 1.427 . S
N515 C513 1.384 . S
H516 C522 0.930 . S
H517 C526 0.930 . S
H518 C531 0.929 . S
H519 C529 0.929 . S
H520 C524 0.929 . S
H521 C530 0.929 . S
C522 H516 0.930 . S
C522 C523 1.367 . S
C522 C530 1.378 . S
C523 C522 1.367 . S
C523 C531 1.433 . S
C524 H520 0.929 . S
C524 C526 1.378 . S
C524 C528 1.350 . S
C525 C528 1.463 . S
C525 C530 1.350 . S
C525 N533 1.427 . S
C526 H517 0.930 . S
C526 C524 1.378 . S
C526 C527 1.367 . S
C527 C526 1.367 . S
C527 C529 1.433 . S
C528 C524 1.350 . S
C528 C525 1.463 . S
C528 N532 1.427 . S
C529 H519 0.929 . S
C529 C527 1.433 . S
C529 N532 1.384 . S
C530 H521 0.929 . S
C530 C522 1.378 . S
C530 C525 1.350 . S
C531 H518 0.929 . S
C531 C523 1.433 . S
C531 N533 1.384 . S
N532 C528 1.427 . S
N532 C529 1.384 . S
N533 C525 1.427 . S
N533 C531 1.384 . S
H534 C540 0.930 . S
H535 C544 0.930 . S
H536 C549 0.929 . S
H537 C547 0.929 . S
H538 C542 0.929 . S
H539 C548 0.929 . S
C540 H534 0.930 . S
C540 C541 1.367 . S
C540 C548 1.378 . S
C541 C540 1.367 . S
C541 C549 1.433 . S
C542 H538 0.929 . S
C542 C544 1.378 . S
C542 C546 1.350 . S
C543 C546 1.463 . S
C543 C548 1.350 . S
C543 N551 1.427 . S
C544 H535 0.930 . S
C544 C542 1.378 . S
C544 C545 1.367 . S
C545 C544 1.367 . S
C545 C547 1.433 . S
C546 C542 1.350 . S
C546 C543 1.463 . S
C546 N550 1.427 . S
C547 H537 0.929 . S
C547 C545 1.433 . S
C547 N550 1.384 . S
C548 H539 0.929 . S
C548 C540 1.378 . S
C548 C543 1.350 . S
C549 H536 0.929 . S
C549 C541 1.433 . S
C549 N551 1.384 . S
N550 C546 1.427 . S
N550 C547 1.384 . S
N551 C543 1.427 . S
N551 C549 1.384 . S
H552 C558 0.930 . S
H553 C562 0.930 . S
H554 C567 0.929 . S
H555 C565 0.929 . S
H556 C560 0.929 . S
H557 C566 0.929 . S
C558 H552 0.930 . S
C558 C559 1.367 . S
C558 C566 1.378 . S
C559 C558 1.367 . S
C559 C567 1.433 . S
C560 H556 0.929 . S
C560 C562 1.378 . S
C560 C564 1.350 . S
C561 C564 1.463 . S
C561 C566 1.350 . S
C561 N569 1.427 . S
C562 H553 0.930 . S
C562 C560 1.378 . S
C562 C563 1.367 . S
C563 C562 1.367 . S
C563 C565 1.433 . S
C564 C560 1.350 . S
C564 C561 1.463 . S
C564 N568 1.427 . S
C565 H555 0.929 . S
C565 C563 1.433 . S
C565 N568 1.384 . S
C566 H557 0.929 . S
C566 C558 1.378 . S
C566 C561 1.350 . S
C567 H554 0.929 . S
C567 C559 1.433 . S
C567 N569 1.384 . S
N568 C564 1.427 . S
N568 C565 1.384 . S
N569 C561 1.427 . S
N569 C567 1.384 . S
H570 C576 0.930 . S
H571 C580 0.930 . S
H572 C585 0.929 . S
H573 C583 0.929 . S
H574 C578 0.929 . S
H575 C584 0.929 . S
C576 H570 0.930 . S
C576 C577 1.367 . S
C576 C584 1.378 . S
C577 C576 1.367 . S
C577 C585 1.433 . S
C578 H574 0.929 . S
C578 C580 1.378 . S
C578 C582 1.350 . S
C579 C582 1.463 . S
C579 C584 1.350 . S
C579 N587 1.427 . S
C580 H571 0.930 . S
C580 C578 1.378 . S
C580 C581 1.367 . S
C581 C580 1.367 . S
C581 C583 1.433 . S
C582 C578 1.350 . S
C582 C579 1.463 . S
C582 N586 1.427 . S
C583 H573 0.929 . S
C583 C581 1.433 . S
C583 N586 1.384 . S
C584 H575 0.929 . S
C584 C576 1.378 . S
C584 C579 1.350 . S
C585 H572 0.929 . S
C585 C577 1.433 . S
C585 N587 1.384 . S
N586 C582 1.427 . S
N586 C583 1.384 . S
N587 C579 1.427 . S
N587 C585 1.384 . S
C167 C84 1.504 . S
C163 C4 1.504 . S
C185 C87 1.503 . S
C181 C13 1.503 . S
C203 C85 1.505 . S
C199 C25 1.507 . S
C221 C86 1.504 . S
C217 C34 1.505 . S
C239 C101 1.494 . S
C235 C7 1.498 . S
C257 C115 1.505 . S
C253 C14 1.509 . S
C271 C23 1.503 . S
C275 C141 1.503 . S
C293 C155 1.510 . S
C289 C31 1.511 . S
C311 C100 1.494 . S
C307 C16 1.497 . S
C325 C22 1.513 . S
C329 C114 1.511 . S
C347 C140 1.502 . S
C343 C32 1.503 . S
C365 C154 1.506 . S
C361 C5 1.508 . S
C379 C43 1.508 . S
C383 C99 1.507 . S
C401 C72 1.505 . S
C397 C52 1.508 . S
C415 C58 1.504 . S
C419 C98 1.501 . S
C433 C68 1.506 . S
C437 C73 1.504 . S
C455 C128 1.509 . S
C451 C40 1.509 . S
C473 C142 1.505 . S
C469 C50 1.506 . S
C491 C112 1.501 . S
C487 C59 1.503 . S
C505 C70 1.501 . S
C509 C126 1.498 . S
C527 C129 1.508 . S
C523 C49 1.510 . S
C545 C143 1.499 . S
C541 C61 1.499 . S
C563 C113 1.502 . S
C559 C67 1.504 . S
C577 C41 1.505 . S
C581 C127 1.502 . S
