# Generated by pormake.
# Topology zzz, (3,6)-cn, num edge types: 1
# Building blocks:
#     Node 0, Type 0, BuildingBlock: QEWDON_clean_linker_0, # of connection points: 3
#     Node 1, Type 0, BuildingBlock: QEWDON_clean_linker_0, # of connection points: 3
#     Node 2, Type 0, BuildingBlock: QEWDON_clean_linker_0, # of connection points: 3
#     Node 3, Type 0, BuildingBlock: QEWDON_clean_linker_0, # of connection points: 3
#     Node 4, Type 0, BuildingBlock: QEWDON_clean_linker_0, # of connection points: 3
#     Node 5, Type 0, BuildingBlock: QEWDON_clean_linker_0, # of connection points: 3
#     Node 6, Type 0, BuildingBlock: QEWDON_clean_linker_0, # of connection points: 3
#     Node 7, Type 0, BuildingBlock: QEWDON_clean_linker_0, # of connection points: 3
#     Node 8, Type 1, BuildingBlock: BETFAJ_clean_sbu_0, # of connection points: 6
#     Node 9, Type 1, BuildingBlock: BETFAJ_clean_sbu_0, # of connection points: 6
#     Node 10, Type 1, BuildingBlock: BETFAJ_clean_sbu_0, # of connection points: 6
#     Node 11, Type 1, BuildingBlock: BETFAJ_clean_sbu_0, # of connection points: 6
#     Edge 12, Type (0, 1), BuildingBlock: TEMPAE_clean_linker_10, # of connection points: 2
#     Edge 13, Type (0, 1), BuildingBlock: TEMPAE_clean_linker_10, # of connection points: 2
#     Edge 14, Type (0, 1), BuildingBlock: TEMPAE_clean_linker_10, # of connection points: 2
#     Edge 15, Type (0, 1), BuildingBlock: TEMPAE_clean_linker_10, # of connection points: 2
#     Edge 16, Type (0, 1), BuildingBlock: TEMPAE_clean_linker_10, # of connection points: 2
#     Edge 17, Type (0, 1), BuildingBlock: TEMPAE_clean_linker_10, # of connection points: 2
#     Edge 18, Type (0, 1), BuildingBlock: TEMPAE_clean_linker_10, # of connection points: 2
#     Edge 19, Type (0, 1), BuildingBlock: TEMPAE_clean_linker_10, # of connection points: 2
#     Edge 20, Type (0, 1), BuildingBlock: TEMPAE_clean_linker_10, # of connection points: 2
#     Edge 21, Type (0, 1), BuildingBlock: TEMPAE_clean_linker_10, # of connection points: 2
#     Edge 22, Type (0, 1), BuildingBlock: TEMPAE_clean_linker_10, # of connection points: 2
#     Edge 23, Type (0, 1), BuildingBlock: TEMPAE_clean_linker_10, # of connection points: 2
#     Edge 24, Type (0, 1), BuildingBlock: TEMPAE_clean_linker_10, # of connection points: 2
#     Edge 25, Type (0, 1), BuildingBlock: TEMPAE_clean_linker_10, # of connection points: 2
#     Edge 26, Type (0, 1), BuildingBlock: TEMPAE_clean_linker_10, # of connection points: 2
#     Edge 27, Type (0, 1), BuildingBlock: TEMPAE_clean_linker_10, # of connection points: 2
#     Edge 28, Type (0, 1), BuildingBlock: TEMPAE_clean_linker_10, # of connection points: 2
#     Edge 29, Type (0, 1), BuildingBlock: TEMPAE_clean_linker_10, # of connection points: 2
#     Edge 30, Type (0, 1), BuildingBlock: TEMPAE_clean_linker_10, # of connection points: 2
#     Edge 31, Type (0, 1), BuildingBlock: TEMPAE_clean_linker_10, # of connection points: 2
#     Edge 32, Type (0, 1), BuildingBlock: TEMPAE_clean_linker_10, # of connection points: 2
#     Edge 33, Type (0, 1), BuildingBlock: TEMPAE_clean_linker_10, # of connection points: 2
#     Edge 34, Type (0, 1), BuildingBlock: TEMPAE_clean_linker_10, # of connection points: 2
#     Edge 35, Type (0, 1), BuildingBlock: TEMPAE_clean_linker_10, # of connection points: 2
# Relax obj value: 0.174
# Max RMSD: 0.173
# Mean RMSD: 0.124
data_MOF--net-zzz--node1-BETFAJ_clean_sbu_0--node2-QEWDON_clean_linker_0--edge1-TEMPAE_clean_linker_10
_symmetry_space_group_name_H-M    P1
_symmetry_Int_Tables_number       1
_symmetry_cell_setting            triclinic
loop_
_symmetry_equiv_pos_as_xyz
'x, y, z'
_cell_length_a     56.602066
_cell_length_b     56.612752
_cell_length_c     12.924585
_cell_angle_alpha  89.98547
_cell_angle_beta   90.033401
_cell_angle_gamma 90.0676
loop_
_atom_site_label
_atom_site_type_symbol
_atom_site_fract_x
_atom_site_fract_y
_atom_site_fract_z
_atom_type_partial_charge
H0 H 0.75558 0.50897 0.18835 0.0
C1 C 0.76639 0.50883 0.25739 0.0
C2 C 0.78681 0.49496 0.25724 0.0
C3 C 0.76087 0.52331 0.34325 0.0
H4 H 0.81849 0.4857 0.33708 0.0
C5 C 0.80224 0.4957 0.34135 0.0
C6 C 0.79894 0.51139 0.42309 0.0
C7 C 0.77787 0.52483 0.42534 0.0
C8 C 0.73837 0.53782 0.34274 0.0
H9 H 0.77506 0.53625 0.4911 0.0
C10 C 0.71837 0.53157 0.28086 0.0
C11 C 0.6979 0.54603 0.27714 0.0
C12 C 0.73689 0.55866 0.40203 0.0
H13 H 0.75162 0.56496 0.44748 0.0
C14 C 0.71643 0.57231 0.40231 0.0
H15 H 0.71868 0.51574 0.23418 0.0
C16 C 0.69716 0.56611 0.34105 0.0
H17 H 0.68163 0.57723 0.3436 0.0
H18 H 0.71563 0.5881 0.44941 0.0
H19 H 0.99035 0.75159 0.26095 0.0
C20 C 0.99473 0.76439 0.31991 0.0
C21 C 0.98376 0.7865 0.31419 0.0
C22 C 1.01108 0.75915 0.3995 0.0
H23 H 0.97941 0.82024 0.3877 0.0
C24 C 0.98795 0.80317 0.39209 0.0
C25 C 1.00502 0.79972 0.46835 0.0
C26 C 1.01694 0.77769 0.47106 0.0
C27 C 0.02147 0.73444 0.40787 0.0
H28 H 0.03056 0.77523 0.52871 0.0
C29 C 0.02176 0.71812 0.32312 0.0
C30 C 0.03016 0.69464 0.33517 0.0
C31 C 0.03006 0.72635 0.50392 0.0
H32 H 0.02955 0.73738 0.57212 0.0
C33 C 0.0388 0.70347 0.5154 0.0
H34 H 1.01588 0.72345 0.24711 0.0
C35 C 0.03884 0.68778 0.43237 0.0
H36 H 0.04517 0.66996 0.44513 0.0
H37 H 0.04521 0.69768 0.59017 0.0
H38 H 0.79144 0.98449 0.25554 0.0
C39 C 0.77857 0.98941 0.31329 0.0
C40 C 0.75617 0.97901 0.30666 0.0
C41 C 0.7839 1.00611 0.39132 0.0
H42 H 0.72204 0.97592 0.37844 0.0
C43 C 0.73941 0.98388 0.38335 0.0
C44 C 0.74317 1.00113 0.45844 0.0
C45 C 0.76539 1.01262 0.46141 0.0
C46 C 0.80858 1.01648 0.39859 0.0
H47 H 0.768 0.02649 0.51776 0.0
C48 C 0.82461 1.01651 0.3132 0.0
C49 C 0.84802 0.02493 0.32392 0.0
C50 C 0.81688 0.02546 0.4937 0.0
H51 H 0.80598 0.0252 0.56233 0.0
C52 C 0.83981 0.03436 0.50334 0.0
H53 H 0.81921 1.01027 0.23781 0.0
C54 C 0.85526 0.03411 0.41938 0.0
H55 H 0.87309 0.0407 0.42946 0.0
H56 H 0.84578 0.04114 0.57718 0.0
H57 H 0.55573 0.79711 0.2582 0.0
C58 C 0.55144 0.78371 0.31464 0.0
C59 C 0.56323 0.76204 0.307 0.0
C60 C 0.5341 0.78758 0.39153 0.0
H61 H 0.56851 0.72808 0.37731 0.0
C62 C 0.55928 0.74475 0.38263 0.0
C63 C 0.54121 0.74687 0.45542 0.0
C64 C 0.52833 0.7683 0.45883 0.0
C65 C 0.5222 0.8115 0.40029 0.0
H66 H 0.51392 0.76969 0.51335 0.0
C67 C 0.5216 0.82802 0.31671 0.0
C68 C 0.51161 0.8508 0.32866 0.0
C69 C 0.51223 0.8186 0.49523 0.0
H70 H 0.51284 0.80732 0.56268 0.0
C71 C 0.50182 0.84079 0.50638 0.0
H72 H 0.52849 0.8234 0.24148 0.0
C73 C 0.50151 0.85675 0.42424 0.0
H74 H 0.49384 0.87405 0.4364 0.0
H75 H 0.49433 0.84585 0.58016 0.0
H76 H 0.27932 0.55162 0.22771 0.0
C77 C 0.26709 0.54468 0.17086 0.0
C78 C 0.24284 0.54738 0.18812 0.0
C79 C 0.27538 0.53388 0.0791 0.0
H80 H 0.20795 0.54264 0.12599 0.0
C81 C 0.22669 0.53989 0.11329 0.0
C82 C 0.23402 0.53022 0.01989 0.0
C83 C 0.25843 0.5267 0.00311 0.0
C84 C 0.3016 0.53216 0.06013 0.0
H85 H 0.26403 0.51882 0.93095 0.0
C86 C 0.31813 0.52955 0.14263 0.0
C87 C 0.34277 0.53057 0.12408 0.0
C88 C 0.31048 0.53483 0.95904 0.0
H89 H 0.29876 0.53745 0.89392 0.0
C90 C 0.33476 0.53516 0.94041 0.0
H91 H 0.31199 0.5273 0.22133 0.0
C92 C 0.35076 0.53328 0.02202 0.0
H93 H 0.36951 0.53401 0.0054 0.0
H94 H 0.34123 0.53738 0.8622 0.0
H95 H 0.98268 0.2915 0.19764 0.0
C96 C 0.98664 0.27831 0.13976 0.0
C97 C 0.97568 0.25633 0.1493 0.0
C98 C 1.00194 0.28319 0.05612 0.0
H99 H 0.97013 0.2225 0.08046 0.0
C100 C 0.97916 0.23919 0.07291 0.0
C101 C 0.9959 0.24196 0.99436 0.0
C102 C 1.00745 0.26421 0.98631 0.0
C103 C 1.01064 0.30828 0.03995 0.0
H104 H 1.02036 0.26668 0.92558 0.0
C105 C 1.01175 0.32521 0.12211 0.0
C106 C 1.01597 0.34947 0.10197 0.0
C107 C 1.01544 0.31631 0.93896 0.0
H108 H 1.0144 0.30453 0.87328 0.0
C109 C 0.02051 0.34006 0.91968 0.0
H110 H 1.00875 0.31993 0.20141 0.0
C111 C 1.02042 0.35653 -0.00012 0.0
H112 H 0.02379 0.37494 0.98208 0.0
H113 H 0.0239 0.34586 0.84125 0.0
H114 H 0.26031 0.99472 0.24455 0.0
C115 C 0.27277 1.00141 0.1882 0.0
C116 C 0.29686 0.99738 0.20454 0.0
C117 C 0.26496 1.0133 0.09814 0.0
H118 H 0.33187 1.00084 0.14291 0.0
C119 C 0.3133 1.0045 0.13036 0.0
C120 C 0.30646 1.01535 0.03871 0.0
C121 C 0.28224 0.02034 0.02319 0.0
C122 C 0.2388 1.01644 0.07979 0.0
H123 H 0.27703 0.02923 0.9527 0.0
C124 C 0.22233 1.0186 0.16281 0.0
C125 C 0.19766 1.01891 0.14403 0.0
C126 C 0.22984 1.01558 0.97818 0.0
H127 H 0.24143 1.01333 0.91243 0.0
C128 C 0.20559 1.01664 0.95943 0.0
H129 H 0.22851 1.0195 0.24198 0.0
C130 C 0.18965 1.01808 0.0413 0.0
H131 H 0.17091 1.01851 0.02423 0.0
H132 H 0.19907 1.01584 0.88074 0.0
H133 H 0.54744 0.26002 0.21892 0.0
C134 C 0.54034 0.27344 0.16806 0.0
C135 C 0.54736 0.29688 0.18293 0.0
C136 C 0.5248 0.26748 0.08618 0.0
H137 H 0.54501 0.33241 0.12847 0.0
C138 C 0.53942 0.31441 0.11575 0.0
C139 C 0.525 0.30941 0.0315 0.0
C140 C 0.51704 0.28592 0.01805 0.0
C141 C 0.51815 0.24195 0.06875 0.0
H142 H 0.50527 0.28213 0.95419 0.0
C143 C 0.51703 0.22524 0.15127 0.0
C144 C 0.51193 0.20107 0.13232 0.0
C145 C 0.51398 0.23377 0.96751 0.0
H146 H 0.51539 0.24546 0.90158 0.0
C147 C 0.5087 0.2101 0.94868 0.0
H148 H 0.51976 0.23094 0.23029 0.0
C149 C 0.50774 0.19392 0.02979 0.0
H150 H 0.50419 0.17558 0.01164 0.0
H151 H 0.50572 0.20416 0.87013 0.0
Sm152 Sm 0.03445 1.01622 0.84787 0.0
Sm153 Sm 1.01075 0.02483 0.61861 0.0
C154 C 0.03777 1.00082 0.03816 0.0
C155 C 0.02704 0.97866 0.07542 0.0
C156 C 1.00287 0.97419 0.05889 0.0
C157 C 0.99399 0.95124 0.06468 0.0
C158 C 1.00911 0.93228 0.08675 0.0
C159 C 0.03301 0.93695 0.10906 0.0
C160 C 0.04184 0.95993 0.10418 0.0
C161 C 0.06911 0.0209 0.69628 0.0
C162 C 0.02136 0.97043 0.69198 0.0
C163 C 1.00359 0.03847 0.42768 0.0
C164 C 0.99279 0.0608 0.3946 0.0
C165 C 1.00691 0.07715 0.34197 0.0
C166 C 1.00035 0.10079 0.33792 0.0
C167 C 0.97911 0.1085 0.38367 0.0
C168 C 0.96415 0.09176 0.42995 0.0
C169 C 0.971 0.06811 0.43598 0.0
C170 C 0.97631 0.02112 0.77216 0.0
C171 C 0.02195 0.07117 0.77566 0.0
O172 O 0.02325 1.0179 0.01262 0.0
O173 O 0.05463 0.99772 0.97027 0.0
O174 O 0.04695 0.02171 0.68582 0.0
O175 O 0.07378 1.01842 0.79418 0.0
O176 O 0.02435 0.97843 0.788 0.0
O177 O 1.01868 0.98492 0.61213 0.0
O178 O 0.0239 0.04121 0.47483 0.0
O179 O 0.98973 0.0231 0.47345 0.0
O180 O 0.99844 1.01971 0.78069 0.0
O181 O 0.97145 0.02429 0.67494 0.0
O182 O 1.01551 0.06315 0.6828 0.0
O183 O 0.02914 0.05694 0.85172 0.0
H184 H 0.99098 0.98815 0.03581 0.0
H185 H 0.97539 0.94829 0.04965 0.0
H186 H 0.0452 0.92271 0.12576 0.0
H187 H 0.06059 0.96283 0.11571 0.0
H188 H 0.02395 0.072 0.31113 0.0
H189 H 1.01258 0.11316 0.30304 0.0
H190 H 0.94747 0.09701 0.46384 0.0
H191 H 0.95982 0.05591 0.47809 0.0
Sm192 Sm 0.52786 0.03714 0.82224 0.0
Sm193 Sm 0.51724 1.01223 0.61413 0.0
C194 C 0.54737 0.0476 0.00026 0.0
C195 C 0.56932 0.03679 0.03897 0.0
C196 C 0.57227 1.01215 0.03292 0.0
C197 C 0.59453 1.00204 0.04342 0.0
C198 C 0.61438 1.01633 0.0601 0.0
C199 C 0.61137 0.04087 0.0715 0.0
C200 C 0.58899 0.05102 0.06086 0.0
C201 C 0.51672 0.06757 0.66251 0.0
C202 C 0.57266 1.02016 0.67399 0.0
C203 C 0.50498 1.00155 0.42324 0.0
C204 C 0.48708 0.98524 0.38208 0.0
C205 C 0.47161 0.99328 0.30552 0.0
C206 C 0.45084 0.98093 0.28472 0.0
C207 C 0.44521 0.96015 0.33984 0.0
C208 C 0.462 0.95087 0.40884 0.0
C209 C 0.48271 0.9634 0.43036 0.0
C210 C 0.51803 0.97792 0.76979 0.0
C211 C 0.47282 0.02593 0.77182 0.0
O212 O 0.52898 0.03358 0.99333 0.0
O213 O 0.55017 0.06086 0.9182 0.0
O214 O 0.52959 0.04932 0.65454 0.0
O215 O 0.50991 0.07048 0.75778 0.0
O216 O 0.56512 0.02479 0.76869 0.0
O217 O 0.55755 1.01701 0.59723 0.0
O218 O 0.4964 1.01985 0.47288 0.0
O219 O 0.52319 0.99195 0.46973 0.0
O220 O 0.52142 0.99979 0.77893 0.0
O221 O 0.51434 0.97333 0.67307 0.0
O222 O 0.47968 0.0222 0.67488 0.0
O223 O 0.48833 0.02955 0.84687 0.0
H224 H 0.55763 1.00066 0.01461 0.0
H225 H 0.59627 0.98305 0.03639 0.0
H226 H 0.62645 0.0523 0.08422 0.0
H227 H 0.58726 0.07007 0.06394 0.0
H228 H 0.47466 1.01009 0.2676 0.0
H229 H 0.43834 0.98889 0.23181 0.0
H230 H 0.45849 0.9347 0.45093 0.0
H231 H 0.49449 0.95673 0.48954 0.0
Sm232 Sm 0.50486 0.53304 0.83295 0.0
Sm233 Sm 0.52865 0.52007 0.60877 0.0
C234 C 0.50149 0.55192 0.01699 0.0
C235 C 0.51315 0.57406 0.04796 0.0
C236 C 0.53687 0.57817 0.02092 0.0
C237 C 0.54648 0.60081 0.0262 0.0
C238 C 0.53245 0.61995 0.05699 0.0
C239 C 0.50885 0.61573 0.08666 0.0
C240 C 0.49937 0.59297 0.08288 0.0
C241 C 0.47045 0.52874 0.67942 0.0
C242 C 0.52019 0.57567 0.66847 0.0
C243 C 0.53903 0.50435 0.42341 0.0
C244 C 0.55537 0.48498 0.4006 0.0
C245 C 0.56265 0.47028 0.48188 0.0
C246 C 0.57602 0.45019 0.46211 0.0
C247 C 0.5829 0.44458 0.36051 0.0
C248 C 0.57736 0.46065 0.28038 0.0
C249 C 0.56334 0.48052 0.30014 0.0
C250 C 0.56312 0.52334 0.76299 0.0
C251 C 0.51261 0.47696 0.77566 0.0
O252 O 0.51523 0.53372 -0.00108 0.0
O253 O 0.48517 0.55474 0.94634 0.0
O254 O 0.49253 0.5266 0.67062 0.0
O255 O 0.46569 0.53237 0.77651 0.0
O256 O 0.51775 0.56887 0.76608 0.0
O257 O 0.52151 0.56018 0.5915 0.0
O258 O 0.51984 0.49789 0.473 0.0
O259 O 0.54891 0.52332 0.46234 0.0
O260 O 0.54111 0.52627 0.77099 0.0
O261 O 0.56763 0.51854 0.6671 0.0
O262 O 0.51951 0.48332 0.68102 0.0
O263 O 0.50705 0.4925 0.84888 0.0
H264 H 0.54777 0.56418 0.99066 0.0
H265 H 0.56479 0.60333 0.00463 0.0
H266 H 0.49741 0.63013 0.10943 0.0
H267 H 0.48088 0.59039 0.10138 0.0
H268 H 0.557 0.47371 0.56049 0.0
H269 H 0.5795 0.43834 0.52602 0.0
H270 H 0.58286 0.45732 0.20152 0.0
H271 H 0.55813 0.49189 0.23679 0.0
Sm272 Sm 1.01247 0.51018 0.8207 0.0
Sm273 Sm 0.02321 0.53692 0.60162 0.0
C274 C 1.00092 0.49894 0.01125 0.0
C275 C 0.98185 0.48367 0.04923 0.0
C276 C 0.96738 0.49188 0.12906 0.0
C277 C 0.94536 0.48155 0.14604 0.0
C278 C 0.93747 0.46264 0.0838 0.0
C279 C 0.95304 0.45305 0.01037 0.0
C280 C 0.975 0.46356 0.99281 0.0
C281 C 1.01286 0.47794 0.65617 0.0
C282 C 0.96778 0.52459 0.66804 0.0
C283 C 0.034 0.54855 0.41034 0.0
C284 C 0.05206 0.56468 0.36931 0.0
C285 C 0.0671 0.55661 0.29122 0.0
C286 C 0.08834 0.56825 0.27174 0.0
C287 C 0.09485 0.58837 0.32954 0.0
C288 C 0.07848 0.59786 0.39989 0.0
C289 C 0.05732 0.586 0.42022 0.0
C290 C 0.02319 0.56918 0.7663 0.0
C291 C 0.06783 0.52206 0.75448 0.0
O292 O 0.99351 0.51831 0.9659 0.0
O293 O 1.01824 0.48852 0.96156 0.0
O294 O 1.01637 0.49993 0.65346 0.0
O295 O 1.00884 0.47218 0.75165 0.0
O296 O 0.9748 0.51963 0.76365 0.0
O297 O 0.98295 0.52924 0.59227 0.0
O298 O 0.04252 0.5297 0.45621 0.0
O299 O 1.01635 0.55822 0.46063 0.0
O300 O 1.01957 0.54719 0.76905 0.0
O301 O 0.02688 0.57491 0.67051 0.0
O302 O 0.06089 0.52709 0.65868 0.0
O303 O 0.05265 0.51757 0.83029 0.0
H304 H 0.97225 0.5075 0.17263 0.0
H305 H 0.93386 0.48973 0.20245 0.0
H306 H 0.94777 0.43822 0.96272 0.0
H307 H 0.98588 0.4569 0.93046 0.0
H308 H 0.06338 0.54017 0.25134 0.0
H309 H 0.10046 0.56018 0.21755 0.0
H310 H 0.08266 0.61359 0.44391 0.0
H311 H 0.04592 0.59267 0.48077 0.0
C312 C 0.17988 0.03687 0.30567 0.0
C313 C 0.17981 1.01917 0.22967 0.0
C314 C 0.16172 0.03822 0.38057 0.0
C315 C 0.14326 0.02118 0.38116 0.0
C316 C 0.14347 1.003 0.30577 0.0
C317 C 0.16152 1.00236 0.23082 0.0
C318 C 0.16207 0.05813 0.45814 0.0
C319 C 0.12462 0.9841 0.30432 0.0
C320 C 0.10938 1.01029 0.63279 0.0
C321 C 0.08758 0.0213 0.61387 0.0
C322 C 0.12751 1.01014 0.55819 0.0
C323 C 0.12414 0.02179 0.46225 0.0
C324 C 0.10226 0.03332 0.44326 0.0
C325 C 0.08421 0.03277 0.51891 0.0
C326 C 0.15018 0.99716 0.58164 0.0
C327 C 0.09797 0.04637 0.34324 0.0
H328 H 0.19376 0.05007 0.30459 0.0
H329 H 0.16138 0.98857 0.17264 0.0
H330 H 0.1454 0.06837 0.4528 0.0
H331 H 0.16312 0.0509 0.53777 0.0
H332 H 0.1772 0.07033 0.44593 0.0
H333 H 0.12752 0.97091 0.24201 0.0
H334 H 0.12424 0.97476 0.37979 0.0
H335 H 0.107 0.99226 0.29299 0.0
H336 H 0.11217 1.00137 0.70602 0.0
H337 H 0.06774 0.04183 0.50476 0.0
H338 H 0.1654 1.00947 0.57712 0.0
H339 H 0.1531 0.98314 0.52302 0.0
H340 H 0.15003 0.98889 0.6596 0.0
H341 H 0.11185 0.05999 0.3319 0.0
H342 H 0.0804 0.05508 0.34147 0.0
H343 H 0.09912 0.03396 0.27706 0.0
C344 C 0.49417 0.16498 0.21701 0.0
C345 C 0.51149 0.18284 0.21699 0.0
C346 C 0.49471 0.14625 0.28882 0.0
C347 C 0.51301 0.14513 0.36353 0.0
C348 C 0.53024 0.16338 0.36575 0.0
C349 C 0.52924 0.18199 0.29289 0.0
C350 C 0.47579 0.12746 0.28381 0.0
C351 C 0.55003 0.163 0.44396 0.0
C352 C 0.50281 0.10767 0.6062 0.0
C353 C 0.51519 0.0868 0.58352 0.0
C354 C 0.50204 0.12668 0.53584 0.0
C355 C 0.51392 0.12497 0.43961 0.0
C356 C 0.52625 0.10382 0.41569 0.0
C357 C 0.52673 0.08503 0.48772 0.0
C358 C 0.48854 0.14869 0.56487 0.0
C359 C 0.53908 0.10108 0.31407 0.0
H360 H 0.48016 0.16555 0.15989 0.0
H361 H 0.54285 0.19548 0.29325 0.0
H362 H 0.48396 0.10998 0.26915 0.0
H363 H 0.46644 0.1263 0.35906 0.0
H364 H 0.46259 0.131 0.22208 0.0
H365 H 0.56181 0.17864 0.43706 0.0
H366 H 0.54269 0.16247 0.52349 0.0
H367 H 0.56077 0.14679 0.43354 0.0
H368 H 0.49381 0.10926 0.67985 0.0
H369 H 0.53635 0.06902 0.46942 0.0
H370 H 0.4745 0.15215 0.50689 0.0
H371 H 0.50056 0.16418 0.56454 0.0
H372 H 0.48023 0.14729 0.64249 0.0
H373 H 0.52648 0.10312 0.24889 0.0
H374 H 0.54791 0.08364 0.30702 0.0
H375 H 0.55259 0.11518 0.30602 0.0
C376 C 0.37702 0.54827 0.21998 0.0
C377 C 0.36056 0.52986 0.20967 0.0
C378 C 0.39506 0.54749 0.29502 0.0
C379 C 0.39719 0.5275 0.36049 0.0
C380 C 0.38063 0.50877 0.35015 0.0
C381 C 0.36236 0.51029 0.27578 0.0
C382 C 0.41178 0.56818 0.3046 0.0
C383 C 0.38241 0.48695 0.41673 0.0
C384 C 0.45702 0.51924 0.49674 0.0
C385 C 0.45213 0.52765 0.59647 0.0
C386 C 0.43922 0.51845 0.41988 0.0
C387 C 0.4161 0.5268 0.44246 0.0
C388 C 0.41123 0.5354 0.54311 0.0
C389 C 0.42914 0.53547 0.61866 0.0
C390 C 0.44515 0.50872 0.31442 0.0
C391 C 0.38717 0.54504 0.57068 0.0
H392 H 0.37571 0.56344 0.16907 0.0
H393 H 0.34989 0.49587 0.26722 0.0
H394 H 0.41106 0.57543 0.3843 0.0
H395 H 0.43019 0.5623 0.29067 0.0
H396 H 0.40754 0.58256 0.24915 0.0
H397 H 0.36878 0.47356 0.39679 0.0
H398 H 0.40014 0.47886 0.40774 0.0
H399 H 0.3804 0.49175 0.49943 0.0
H400 H 0.47467 0.51312 0.47902 0.0
H401 H 0.42519 0.54214 0.69534 0.0
H402 H 0.44336 0.5228 0.25529 0.0
H403 H 0.43254 0.49446 0.2936 0.0
H404 H 0.4634 0.50157 0.31087 0.0
H405 H 0.38284 0.56018 0.51954 0.0
H406 H 0.38618 0.55104 0.6524 0.0
H407 H 0.37344 0.53135 0.55804 0.0
C408 C 0.99806 0.38634 0.17728 0.0
C409 C 1.01469 0.368 0.18478 0.0
C410 C 0.99731 0.40486 0.25034 0.0
C411 C 1.01414 0.40569 0.33169 0.0
C412 C 0.03115 0.38729 0.33889 0.0
C413 C 0.03102 0.36856 0.26639 0.0
C414 C 0.97841 0.42352 0.24027 0.0
C415 C 0.04972 0.38755 0.42267 0.0
C416 C 0.02424 0.46463 0.47496 0.0
C417 C 1.01232 0.46068 0.56854 0.0
C418 C 0.02506 0.44698 0.39718 0.0
C419 C 1.01322 0.42505 0.41211 0.0
C420 C 1.0005 0.42147 0.50521 0.0
C421 C 1.00049 0.43907 0.58223 0.0
C422 C 0.03904 0.45161 0.29994 0.0
C423 C 0.98683 0.39894 0.5238 0.0
H424 H 0.98548 0.3861 0.11401 0.0
H425 H 0.04413 0.35467 0.27175 0.0
H426 H 0.96933 0.42624 0.3154 0.0
H427 H 0.98659 0.44058 0.21803 0.0
H428 H 0.96497 0.4188 0.18112 0.0
H429 H 0.06247 0.37275 0.41475 0.0
H430 H 0.0596 0.40449 0.42044 0.0
H431 H 0.04119 0.3863 0.49973 0.0
H432 H 0.03354 0.48117 0.4639 0.0
H433 H 0.99108 0.43588 0.65393 0.0
H434 H 0.02717 0.45108 0.23169 0.0
H435 H 0.05249 0.43757 0.28926 0.0
H436 H 0.04808 0.46904 0.30165 0.0
H437 H 0.97422 0.39587 0.45935 0.0
H438 H 0.9768 0.39935 0.59764 0.0
H439 H 0.99909 0.38369 0.52578 0.0
C440 C 0.87687 1.00226 0.21479 0.0
C441 C 0.86553 0.02364 0.23778 0.0
C442 C 0.89543 1.00125 0.14199 0.0
C443 C 0.90267 0.02207 0.08947 0.0
C444 C 0.89097 0.04365 0.11173 0.0
C445 C 0.87278 0.04421 0.18633 0.0
C446 C 0.90759 0.97796 0.12245 0.0
C447 C 0.89773 0.0662 0.05695 0.0
C448 C 0.96358 0.02549 0.95909 0.0
C449 C 0.95809 0.02045 0.85569 0.0
C450 C 0.94591 0.02564 0.03641 0.0
C451 C 0.92198 0.02118 0.00935 0.0
C452 C 0.91638 1.0163 0.90459 0.0
C453 C 0.93442 1.01597 0.82956 0.0
C454 C 0.95286 0.03085 0.14685 0.0
C455 C 0.89121 1.01173 0.87128 0.0
H456 H 0.87161 0.98643 0.25603 0.0
H457 H 0.86426 0.0608 0.2051 0.0
H458 H 0.90568 0.97294 0.03991 0.0
H459 H 0.92678 0.97967 0.13842 0.0
H460 H 0.90032 0.96351 0.17114 0.0
H461 H 0.88664 0.0814 0.08123 0.0
H462 H 0.9165 0.0705 0.07294 0.0
H463 H 0.89594 0.06389 0.97204 0.0
H464 H 0.98157 0.02985 0.97924 0.0
H465 H 0.92993 1.0123 0.7496 0.0
H466 H 0.94631 1.01667 0.19876 0.0
H467 H 0.94457 0.0476 0.1724 0.0
H468 H 0.97231 0.03242 0.15649 0.0
H469 H 0.88394 0.99636 0.91398 0.0
H470 H 0.88974 1.00819 0.78697 0.0
H471 H 0.88004 0.02721 0.89045 0.0
C472 C 0.53346 0.87435 0.19289 0.0
C473 C 0.51224 0.86892 0.24387 0.0
C474 C 0.53471 0.8928 0.11954 0.0
C475 C 0.51413 0.90592 0.09419 0.0
C476 C 0.49258 0.9003 0.1446 0.0
C477 C 0.49197 0.88211 0.2192 0.0
C478 C 0.55819 0.89852 0.07017 0.0
C479 C 0.47007 0.91339 0.11933 0.0
C480 C 0.51928 0.96617 0.9588 0.0
C481 C 0.51701 0.95993 0.85426 0.0
C482 C 0.5187 0.94887 0.03772 0.0
C483 C 0.51494 0.92475 0.01187 0.0
C484 C 0.51192 0.91854 0.90642 0.0
C485 C 0.51324 0.93608 0.82931 0.0
C486 C 0.52229 0.9564 0.14865 0.0
C487 C 0.5071 0.89331 0.87482 0.0
H488 H 0.54929 0.86459 0.21272 0.0
H489 H 0.47549 0.87807 0.2581 0.0
H490 H 0.55715 0.89569 0.98538 0.0
H491 H 0.56257 0.91742 0.08284 0.0
H492 H 0.57276 0.88752 0.10158 0.0
H493 H 0.45463 0.90641 0.16275 0.0
H494 H 0.4721 0.9324 0.13801 0.0
H495 H 0.46631 0.9121 0.03523 0.0
H496 H 0.52137 0.98459 0.97891 0.0
H497 H 0.51113 0.93107 0.74888 0.0
H498 H 0.53728 0.94651 0.183 0.0
H499 H 0.50636 0.95214 0.19499 0.0
H500 H 0.52591 0.97563 0.15569 0.0
H501 H 0.52215 0.8819 0.89755 0.0
H502 H 0.50425 0.89148 0.79014 0.0
H503 H 0.49121 0.8866 0.91568 0.0
C504 C 0.66936 0.51805 0.18591 0.0
C505 C 0.67751 0.54112 0.20507 0.0
C506 C 0.64993 0.51378 0.11949 0.0
C507 C 0.6382 0.53297 0.07091 0.0
C508 C 0.64621 0.55624 0.09064 0.0
C509 C 0.66574 0.55998 0.1561 0.0
C510 C 0.64207 0.48867 0.10056 0.0
C511 C 0.63433 0.57731 0.04132 0.0
C512 C 0.60561 0.52519 0.81443 0.0
C513 C 0.58177 0.52492 0.84462 0.0
C514 C 0.624 0.52695 0.88732 0.0
C515 C 0.61862 0.52889 0.99399 0.0
C516 C 0.59457 0.52826 0.02535 0.0
C517 C 0.5765 0.52576 0.95045 0.0
C518 C 0.64925 0.52721 0.84964 0.0
C519 C 0.58791 0.53071 0.13778 0.0
H520 H 0.67798 0.50332 0.2237 0.0
H521 H 0.67201 0.57787 0.16781 0.0
H522 H 0.62329 0.48653 0.1233 0.0
H523 H 0.6433 0.48452 0.01683 0.0
H524 H 0.65286 0.47568 0.14428 0.0
H525 H 0.64155 0.59434 0.07009 0.0
H526 H 0.63669 0.57666 0.95617 0.0
H527 H 0.61505 0.57689 0.05683 0.0
H528 H 0.60998 0.52419 0.7329 0.0
H529 H 0.55831 0.52449 0.97472 0.0
H530 H 0.6597 0.51352 0.89063 0.0
H531 H 0.65747 0.54455 0.86716 0.0
H532 H 0.65057 0.52401 0.76504 0.0
H533 H 0.59593 0.51616 0.18328 0.0
H534 H 0.56847 0.53049 0.14947 0.0
H535 H 0.59501 0.54753 0.16912 0.0
C536 C 1.00883 0.67322 0.19011 0.0
C537 C 0.0294 0.67669 0.24906 0.0
C538 C 1.00727 0.6549 0.11594 0.0
C539 C 0.02687 0.63977 0.09826 0.0
C540 C 0.04779 0.64342 0.15665 0.0
C541 C 0.04874 0.66161 0.23127 0.0
C542 C 0.9845 0.65159 0.05695 0.0
C543 C 0.06936 0.62824 0.13952 0.0
C544 C 1.01842 0.58039 0.95624 0.0
C545 C 0.0242 0.58646 0.85401 0.0
C546 C 1.01916 0.59745 0.03661 0.0
C547 C 0.02601 0.62113 0.01464 0.0
C548 C 0.03221 0.62709 0.9117 0.0
C549 C 0.03109 0.60986 0.8333 0.0
C550 C 1.01233 0.5902 0.14487 0.0
C551 C 0.04016 0.65178 0.88406 0.0
H552 H 0.99366 0.68444 0.2041 0.0
H553 H 0.06478 0.66411 0.27578 0.0
H554 H 0.98764 0.65422 0.97303 0.0
H555 H 0.97795 0.63326 0.06731 0.0
H556 H 0.97053 0.66407 0.08241 0.0
H557 H 0.08396 0.63268 0.19361 0.0
H558 H 0.06478 0.60932 0.14922 0.0
H559 H 0.0758 0.63053 0.05907 0.0
H560 H 1.01315 0.56242 0.97329 0.0
H561 H 0.03576 0.61479 0.75487 0.0
H562 H 0.99639 0.60014 0.16924 0.0
H563 H 0.02666 0.5947 0.20004 0.0
H564 H 1.00855 0.57098 0.15079 0.0
H565 H 0.02591 0.66461 0.90156 0.0
H566 H 0.04493 0.65349 0.80102 0.0
H567 H 0.05572 0.65678 0.93153 0.0
C568 C 0.97975 0.24515 0.33227 0.0
C569 C 0.96467 0.24855 0.24744 0.0
C570 C 0.97714 0.22507 0.39519 0.0
C571 C 0.95897 0.20872 0.37182 0.0
C572 C 0.94041 0.2157 0.30514 0.0
C573 C 0.94349 0.23574 0.24286 0.0
C574 C 0.99655 0.21896 0.47042 0.0
C575 C 0.91969 0.19965 0.28446 0.0
C576 C 0.97917 0.14755 0.29726 0.0
C577 C 0.97302 0.13398 0.38312 0.0
C578 C 0.97584 0.17187 0.29615 0.0
C579 C 0.96419 0.18305 0.38017 0.0
C580 C 0.95713 0.16939 0.46663 0.0
C581 C 0.96209 0.14501 0.46804 0.0
C582 C 0.98448 0.18501 0.20206 0.0
C583 C 0.94479 0.18032 0.55826 0.0
H584 H 0.99583 0.25551 0.33807 0.0
H585 H 0.93135 0.2389 0.17938 0.0
H586 H 0.9893 0.20985 0.53937 0.0
H587 H 1.00925 0.20681 0.43239 0.0
H588 H 1.00633 0.23497 0.4958 0.0
H589 H 0.92464 0.18663 0.22403 0.0
H590 H 0.91461 0.18979 0.35531 0.0
H591 H 0.90421 0.20981 0.25597 0.0
H592 H 0.98684 0.13915 0.22994 0.0
H593 H 0.95762 0.13472 0.536 0.0
H594 H 0.99022 0.20317 0.22038 0.0
H595 H 0.97003 0.18539 0.14409 0.0
H596 H 0.99983 0.17604 0.16625 0.0
H597 H 0.9582 0.18729 0.61288 0.0
H598 H 0.93401 0.16704 0.60051 0.0
H599 H 0.9332 0.19519 0.53475 0.0
C600 C 0.32307 0.99595 0.35436 0.0
C601 C 0.30627 0.98421 0.29375 0.0
C602 C 0.34366 0.98429 0.38544 0.0
C603 C 0.34648 0.96006 0.36062 0.0
C604 C 0.3269 0.94712 0.32284 0.0
C605 C 0.30697 0.95952 0.28736 0.0
C606 C 0.36374 0.99883 0.42895 0.0
C607 C 0.32839 0.92086 0.30535 0.0
C608 C 0.4071 0.95322 0.24745 0.0
C609 C 0.42053 0.9511 0.3379 0.0
C610 C 0.38241 0.95365 0.25156 0.0
C611 C 0.37087 0.95071 0.34837 0.0
C612 C 0.38428 0.94416 0.43612 0.0
C613 C 0.40905 0.94491 0.43054 0.0
C614 C 0.36939 0.96086 0.15449 0.0
C615 C 0.37283 0.93872 0.53878 0.0
H616 H 0.32216 1.01504 0.36065 0.0
H617 H 0.2937 0.95031 0.24213 0.0
H618 H 0.37119 0.99021 0.49858 0.0
H619 H 0.37808 1.00022 0.37065 0.0
H620 H 0.35806 1.01696 0.4503 0.0
H621 H 0.33662 0.91735 0.229 0.0
H622 H 0.33944 0.91231 0.36568 0.0
H623 H 0.31054 0.91268 0.30551 0.0
H624 H 0.41589 0.95694 0.1747 0.0
H625 H 0.41914 0.94269 0.50113 0.0
H626 H 0.3672 0.98031 0.1551 0.0
H627 H 0.3517 0.95265 0.14879 0.0
H628 H 0.37952 0.95617 0.08382 0.0
H629 H 0.3743 0.9543 0.59044 0.0
H630 H 0.38222 0.92392 0.57742 0.0
H631 H 0.3539 0.93396 0.53044 0.0
C632 C 0.58742 0.30794 0.23744 0.0
C633 C 0.56368 0.30465 0.26498 0.0
C634 C 0.59973 0.32815 0.2706 0.0
C635 C 0.58766 0.34523 0.33035 0.0
C636 C 0.56556 0.33934 0.37517 0.0
C637 C 0.55396 0.31872 0.34302 0.0
C638 C 0.62398 0.33301 0.22753 0.0
C639 C 0.55243 0.35651 0.44354 0.0
C640 C 0.60429 0.40716 0.41126 0.0
C641 C 0.59156 0.42028 0.33739 0.0
C642 C 0.60565 0.3824 0.40483 0.0
C643 C 0.5942 0.37065 0.32227 0.0
C644 C 0.58464 0.38415 0.23972 0.0
C645 C 0.58323 0.40869 0.24895 0.0
C646 C 0.61754 0.36902 0.4912 0.0
C647 C 0.57294 0.37308 0.14677 0.0
H648 H 0.59508 0.29686 0.17785 0.0
H649 H 0.53568 0.31593 0.36517 0.0
H650 H 0.63479 0.34338 0.28303 0.0
H651 H 0.63333 0.3163 0.20877 0.0
H652 H 0.62231 0.34346 0.15523 0.0
H653 H 0.53698 0.34813 0.48193 0.0
H654 H 0.56429 0.36374 0.504 0.0
H655 H 0.54599 0.37154 0.39611 0.0
H656 H 0.61184 0.416 0.4779 0.0
H657 H 0.57344 0.41834 0.19064 0.0
H658 H 0.62321 0.35113 0.46659 0.0
H659 H 0.60506 0.36714 0.55687 0.0
H660 H 0.63319 0.3789 0.51998 0.0
H661 H 0.58071 0.3558 0.12604 0.0
H662 H 0.57433 0.3848 0.07814 0.0
H663 H 0.55388 0.37077 0.16401 0.0
C664 C 0.23306 0.58492 0.27492 0.0
C665 C 0.23301 0.56018 0.27749 0.0
C666 C 0.21353 0.59762 0.31234 0.0
C667 C 0.19358 0.585 0.34837 0.0
C668 C 0.19559 0.56048 0.36884 0.0
C669 C 0.21578 0.54844 0.3356 0.0
C670 C 0.21295 0.62407 0.29942 0.0
C671 C 0.17503 0.5462 0.40939 0.0
C672 C 0.13163 0.6017 0.42139 0.0
C673 C 0.11986 0.59649 0.32822 0.0
C674 C 0.15641 0.6016 0.42662 0.0
C675 C 0.1695 0.59521 0.33786 0.0
C676 C 0.1578 0.59324 0.24098 0.0
C677 C 0.13312 0.59449 0.23729 0.0
C678 C 0.16817 0.60592 0.52966 0.0
C679 C 0.1707 0.58639 0.14318 0.0
H680 H 0.24667 0.5941 0.23161 0.0
H681 H 0.21608 0.52929 0.33875 0.0
H682 H 0.20563 0.62854 0.22225 0.0
H683 H 0.20162 0.63244 0.35913 0.0
H684 H 0.23103 0.63164 0.30426 0.0
H685 H 0.18025 0.52785 0.42954 0.0
H686 H 0.16743 0.55464 0.47904 0.0
H687 H 0.16095 0.54537 0.34964 0.0
H688 H 0.12168 0.60378 0.4924 0.0
H689 H 0.12414 0.59155 0.16427 0.0
H690 H 0.18701 0.61102 0.52089 0.0
H691 H 0.1672 0.58966 0.57734 0.0
H692 H 0.15878 0.62006 0.57267 0.0
H693 H 0.18755 0.59616 0.13498 0.0
H694 H 0.15987 0.58966 0.0729 0.0
H695 H 0.1748 0.56726 0.14629 0.0
C696 C 0.98693 0.79647 0.12952 0.0
C697 C 0.9725 0.79512 0.21753 0.0
C698 C 0.98743 0.8173 0.0705 0.0
C699 C 0.97326 0.83657 0.10215 0.0
C700 C 0.95449 0.83255 0.17233 0.0
C701 C 0.95372 0.81113 0.22662 0.0
C702 C 1.00654 0.82033 0.9904 0.0
C703 C 0.93831 0.85224 0.20618 0.0
C704 C 1.00769 0.89211 0.16377 0.0
C705 C 1.00007 0.90769 0.08709 0.0
C706 C 0.9995 0.86889 0.16766 0.0
C707 C 0.98294 0.86089 0.09271 0.0
C708 C 0.97537 0.87641 0.0136 0.0
C709 C 0.98406 0.8997 0.0116 0.0
C710 C 1.00792 0.85363 0.25623 0.0
C711 C 0.95837 0.86839 0.9308 0.0
H712 H 1.00079 0.78351 0.11839 0.0
H713 H 0.94168 0.80939 0.29146 0.0
H714 H 1.00082 0.83248 0.92792 0.0
H715 H 0.02244 0.82805 0.02772 0.0
H716 H 1.01157 0.80309 0.95588 0.0
H717 H 0.92144 0.84516 0.23741 0.0
H718 H 0.94711 0.8625 0.26849 0.0
H719 H 0.93436 0.86451 0.14167 0.0
H720 H 1.01987 0.89824 0.22258 0.0
H721 H 0.97857 0.91155 0.95027 0.0
H722 H 0.99458 0.85439 0.31883 0.0
H723 H 0.02494 0.86005 0.28859 0.0
H724 H 1.01046 0.835 0.23322 0.0
H725 H 0.96729 0.85542 0.87989 0.0
H726 H 0.95199 0.88333 0.88261 0.0
H727 H 0.94289 0.85932 0.9653 0.0
C728 C 0.72988 0.95084 0.21647 0.0
C729 C 0.7474 0.9683 0.20903 0.0
C730 C 0.70858 0.95372 0.16254 0.0
C731 C 0.70639 0.97287 0.09282 0.0
C732 C 0.7269 0.98531 0.06186 0.0
C733 C 0.74752 0.98287 0.12121 0.0
C734 C 0.68744 0.93938 0.19596 0.0
C735 C 0.72575 1.00457 0.98149 0.0
C736 C 0.64515 0.98841 0.99307 0.0
C737 C 0.63813 1.00557 0.06526 0.0
C738 C 0.66749 0.97774 -0.00046 0.0
C739 C 0.683 0.98435 0.08025 0.0
C740 C 0.67596 1.00189 0.15266 0.0
C741 C 0.65366 1.01226 0.14381 0.0
C742 C 0.67457 0.95972 0.9194 0.0
C743 C 0.69126 1.00909 0.24318 0.0
H744 H 0.73049 0.93852 0.28073 0.0
H745 H 0.76169 0.99555 0.11066 0.0
H746 H 0.67791 0.94913 0.25771 0.0
H747 H 0.67495 0.93649 0.1311 0.0
H748 H 0.69288 0.92198 0.22772 0.0
H749 H 0.74345 1.00806 0.94761 0.0
H750 H 0.71325 0.9999 0.91858 0.0
H751 H 0.71942 0.0211 0.01838 0.0
H752 H 0.63327 0.98357 0.9307 0.0
H753 H 0.64811 0.02528 0.20023 0.0
H754 H 0.68307 0.94415 0.9557 0.0
H755 H 0.68775 0.96775 0.86656 0.0
H756 H 0.65922 0.95359 0.87298 0.0
H757 H 0.68538 0.026 0.27825 0.0
H758 H 0.71002 1.01114 0.22066 0.0
H759 H 0.69007 0.99521 0.30343 0.0
C760 C 0.55958 0.75411 0.12061 0.0
C761 C 0.57421 0.75422 0.20836 0.0
C762 C 0.55836 0.73387 0.05806 0.0
C763 C 0.57219 0.71402 0.08518 0.0
C764 C 0.59137 0.71699 0.15425 0.0
C765 C 0.59269 0.73775 0.21318 0.0
C766 C 0.53893 0.73203 0.9787 0.0
C767 C 0.60753 0.69674 0.18111 0.0
C768 C 0.53634 0.65911 0.14169 0.0
C769 C 0.54245 0.64417 0.06022 0.0
C770 C 0.54563 0.68185 0.14928 0.0
C771 C 0.56178 0.69006 0.07312 0.0
C772 C 0.56796 0.67517 0.98955 0.0
C773 C 0.55814 0.65235 0.98388 0.0
C774 C 0.53879 0.69635 0.24267 0.0
C775 C 0.58453 0.68331 0.9054 0.0
H776 H 0.54602 0.76749 0.1123 0.0
H777 H 0.605 0.73856 0.27742 0.0
H778 H 0.54427 0.7205 0.91342 0.0
H779 H 0.52304 0.72413 0.01539 0.0
H780 H 0.53405 0.74971 0.94814 0.0
H781 H 0.62456 0.70321 0.21328 0.0
H782 H 0.59888 0.68553 0.2406 0.0
H783 H 0.61113 0.68556 0.11248 0.0
H784 H 0.52451 0.65283 0.20134 0.0
H785 H 0.56254 0.64106 0.91897 0.0
H786 H 0.53606 0.71516 0.22304 0.0
H787 H 0.55313 0.69497 0.30074 0.0
H788 H 0.5223 0.68979 0.27936 0.0
H789 H 0.57458 0.69439 0.84967 0.0
H790 H 0.59222 0.66815 0.86253 0.0
H791 H 0.59913 0.69423 0.93688 0.0
C792 C 0.81156 0.49789 0.10468 0.0
C793 C 0.79616 0.48386 0.16287 0.0
C794 C 0.83266 0.48842 0.0666 0.0
C795 C 0.83735 0.46404 0.0811 0.0
C796 C 0.81918 0.44906 0.11792 0.0
C797 C 0.79884 0.45926 0.16119 0.0
C798 C 0.8514 0.50531 0.02855 0.0
C799 C 0.8227 0.42275 0.12628 0.0
C800 C 0.89967 0.4515 0.99374 0.0
C801 C 0.91214 0.45564 0.08621 0.0
C802 C 0.87485 0.45117 0.99237 0.0
C803 C 0.86238 0.45612 0.08458 0.0
C804 C 0.87489 0.45776 0.17957 0.0
C805 C 0.89957 0.4569 0.17921 0.0
C806 C 0.86222 0.44766 0.89067 0.0
C807 C 0.86271 0.46339 0.28051 0.0
H808 H 0.80933 0.51693 0.10585 0.0
H809 H 0.78676 0.44834 0.20543 0.0
H810 H 0.86145 0.49767 0.96335 0.0
H811 H 0.84371 0.52241 0.00328 0.0
H812 H 0.86409 0.50886 0.09226 0.0
H813 H 0.80548 0.41331 0.12587 0.0
H814 H 0.83378 0.41605 0.06184 0.0
H815 H 0.83179 0.41858 0.2001 0.0
H816 H 0.90909 0.45025 0.921 0.0
H817 H 0.90908 0.45915 0.25141 0.0
H818 H 0.85926 0.46502 0.85317 0.0
H819 H 0.84476 0.4391 0.902 0.0
H820 H 0.87292 0.43673 0.83691 0.0
H821 H 0.85785 0.48237 0.2807 0.0
H822 H 0.87432 0.46009 0.34831 0.0
H823 H 0.84641 0.45283 0.29043 0.0
C824 C 0.02486 0.21196 0.91939 0.0
C825 C 1.00159 0.22028 0.93004 0.0
C826 C 0.02962 0.18873 0.88329 0.0
C827 C 1.01074 0.17306 0.85877 0.0
C828 C 0.98734 0.18191 0.86347 0.0
C829 C 0.98315 0.20527 0.89713 0.0
C830 C 0.05491 0.18055 0.87645 0.0
C831 C 0.96642 0.16619 0.8403 0.0
C832 C 1.01892 0.11385 0.71441 0.0
C833 C 1.0203 0.09739 0.79603 0.0
C834 C 1.01661 0.13843 0.7332 0.0
C835 C 1.01511 0.14705 0.83629 0.0
C836 C 1.01649 0.13045 0.91861 0.0
C837 C 1.0193 0.10609 0.89771 0.0
C838 C 1.01567 0.15519 0.64242 0.0
C839 C 1.01386 0.13824 0.02942 0.0
H840 H 0.03933 0.22309 0.94492 0.0
H841 H 0.96507 0.21139 0.90365 0.0
H842 H 0.05847 0.16756 0.93883 0.0
H843 H 0.05807 0.17153 0.80149 0.0
H844 H 0.0676 0.19542 0.88435 0.0
H845 H 0.94967 0.17632 0.83496 0.0
H846 H 0.96904 0.15645 0.76681 0.0
H847 H 0.96459 0.15288 0.90282 0.0
H848 H 1.01971 0.10755 0.63532 0.0
H849 H 1.01999 0.09373 0.96168 0.0
H850 H 0.03015 0.16834 0.64885 0.0
H851 H 0.99881 0.16515 0.64294 0.0
H852 H 1.01727 0.14589 0.56707 0.0
H853 H 0.02625 0.15289 0.04695 0.0
H854 H 1.01706 0.12364 0.08516 0.0
H855 H 0.99564 0.14491 0.04106 0.0
C856 C 0.33741 0.99971 0.92036 0.0
C857 C 0.32565 1.01946 0.96124 0.0
C858 C 0.36032 1.00151 0.87841 0.0
C859 C 0.37194 0.0237 0.8762 0.0
C860 C 0.35942 0.04403 0.91012 0.0
C861 C 0.33654 0.04164 0.95309 0.0
C862 C 0.37275 0.97929 0.84378 0.0
C863 C 0.37085 0.06809 0.90798 0.0
C864 C 0.43945 0.02325 0.9007 0.0
C865 C 0.44696 0.02587 0.79768 0.0
C866 C 0.41526 0.02266 0.92688 0.0
C867 C 0.39782 0.02511 0.84859 0.0
C868 C 0.40527 0.02799 0.74449 0.0
C869 C 0.42964 0.02818 0.72027 0.0
C870 C 0.40839 1.0188 0.03852 0.0
C871 C 0.38747 0.03103 0.65861 0.0
H872 H 0.32936 0.98242 0.92883 0.0
H873 H 0.32791 0.05687 0.98699 0.0
H874 H 0.38026 0.98169 0.76522 0.0
H875 H 0.38767 0.97548 0.89691 0.0
H876 H 0.36075 0.96375 0.84281 0.0
H877 H 0.35795 0.08242 0.92355 0.0
H878 H 0.38496 0.0689 0.96756 0.0
H879 H 0.37928 0.07132 0.83177 0.0
H880 H 0.45253 0.02119 0.96128 0.0
H881 H 0.43512 0.03033 0.64049 0.0
H882 H 0.39926 1.00154 0.04624 0.0
H883 H 0.39587 0.03266 0.06428 0.0
H884 H 0.42392 1.01888 0.09111 0.0
H885 H 0.3742 1.01661 0.66079 0.0
H886 H 0.39589 0.03126 0.581 0.0
H887 H 0.37779 0.04787 0.66973 0.0
C888 C 0.49747 0.33948 0.95075 0.0
C889 C 0.52009 0.32958 0.95935 0.0
C890 C 0.49425 0.36244 0.90931 0.0
C891 C 0.51415 0.37604 0.87783 0.0
C892 C 0.5368 0.36544 0.88067 0.0
C893 C 0.5394 0.34239 0.91988 0.0
C894 C 0.46969 0.37266 0.90484 0.0
C895 C 0.55861 0.37899 0.84875 0.0
C896 C 0.51026 0.43389 0.72314 0.0
C897 C 0.51162 0.45112 0.8014 0.0
C898 C 0.51001 0.4095 0.74673 0.0
C899 C 0.51182 0.4019 0.8511 0.0
C900 C 0.51312 0.41924 0.93033 0.0
C901 C 0.51272 0.44348 0.90473 0.0
C902 C 0.50814 0.39186 0.65955 0.0
C903 C 0.5159 0.41221 0.04238 0.0
H904 H 0.48251 0.32994 0.98233 0.0
H905 H 0.55697 0.33495 0.92702 0.0
H906 H 0.46776 0.38638 0.96549 0.0
H907 H 0.4666 0.3813 0.82894 0.0
H908 H 0.45591 0.35896 0.91724 0.0
H909 H 0.57505 0.36856 0.8594 0.0
H910 H 0.55728 0.38419 0.76627 0.0
H911 H 0.56011 0.39548 0.89474 0.0
H912 H 0.50931 0.43947 0.64302 0.0
H913 H 0.51402 0.45649 0.96597 0.0
H914 H 0.49465 0.37824 0.67778 0.0
H915 H 0.52527 0.38264 0.64964 0.0
H916 H 0.50346 0.40041 0.58495 0.0
H917 H 0.5015 0.40003 0.06563 0.0
H918 H 0.51584 0.42769 0.09521 0.0
H919 H 0.53282 0.40263 0.05261 0.0
C920 C 0.20405 0.54602 0.89745 0.0
C921 C 0.21511 0.5262 0.94128 0.0
C922 C 0.18114 0.54464 0.85515 0.0
C923 C 0.1688 0.52283 0.85595 0.0
C924 C 0.18063 0.50236 0.89282 0.0
C925 C 0.20351 0.50433 0.93602 0.0
C926 C 0.16943 0.56701 0.81773 0.0
C927 C 0.16844 0.47866 0.89376 0.0
C928 C 0.10143 0.52511 0.88183 0.0
C929 C 0.09371 0.52196 0.77938 0.0
C930 C 0.12566 0.52545 0.90728 0.0
C931 C 0.14288 0.52205 0.82894 0.0
C932 C 0.13522 0.51864 0.72544 0.0
C933 C 0.11083 0.51885 0.70179 0.0
C934 C 0.13281 0.52988 0.01822 0.0
C935 C 0.15281 0.51451 0.63972 0.0
H936 H 0.21261 0.56311 0.90415 0.0
H937 H 0.2116 0.4891 0.97244 0.0
H938 H 0.16053 0.56405 0.74237 0.0
H939 H 0.15567 0.57243 0.87408 0.0
H940 H 0.18224 0.58176 0.80908 0.0
H941 H 0.18093 0.46403 0.91072 0.0
H942 H 0.15444 0.47863 0.95378 0.0
H943 H 0.15979 0.47523 0.81817 0.0
H944 H 0.08848 0.52779 0.94244 0.0
H945 H 0.10515 0.51625 0.6225 0.0
H946 H 0.14358 0.54623 0.02285 0.0
H947 H 0.14393 0.51515 0.04696 0.0
H948 H 0.11734 0.53182 0.07035 0.0
H949 H 0.14428 0.5141 0.5623 0.0
H950 H 0.16193 0.49742 0.65265 0.0
H951 H 0.16655 0.52849 0.64012 0.0
C952 C 0.03301 0.83147 0.53381 0.0
C953 C 1.01063 0.82072 0.53601 0.0
C954 C 0.03645 0.85483 0.57076 0.0
C955 C 1.01703 0.86806 0.60974 0.0
C956 C 0.99477 0.85668 0.61782 0.0
C957 C 0.99195 0.8333 0.58212 0.0
C958 C 0.0606 0.86589 0.56173 0.0
C959 C 0.97324 0.86984 0.65517 0.0
C960 C 0.02462 0.92759 0.75204 0.0
C961 C 0.0207 0.94415 0.67239 0.0
C962 C 0.02401 0.90292 0.73286 0.0
C963 C 1.01918 0.89431 0.63174 0.0
C964 C 1.01509 0.91096 0.55163 0.0
C965 C 1.01606 0.93542 0.57254 0.0
C966 C 0.02828 0.88602 0.82114 0.0
C967 C 1.00953 0.90295 0.44308 0.0
H968 H 0.04749 0.82224 0.4968 0.0
H969 H 0.9745 0.82537 0.58332 0.0
H970 H 0.06522 0.87547 0.63389 0.0
H971 H 0.07447 0.85253 0.54561 0.0
H972 H 0.06055 0.87896 0.49776 0.0
H973 H 0.95893 0.85758 0.67934 0.0
H974 H 0.97761 0.88168 0.72076 0.0
H975 H 0.9664 0.88102 0.59131 0.0
H976 H 0.02818 0.93388 0.82972 0.0
H977 H 1.01294 0.94776 0.50992 0.0
H978 H 0.04307 0.87396 0.80169 0.0
H979 H 1.01238 0.8749 0.83349 0.0
H980 H 0.03253 0.89532 0.89453 0.0
H981 H 1.00584 0.91797 0.39015 0.0
H982 H 0.99398 0.89101 0.4433 0.0
H983 H 0.02472 0.89285 0.41217 0.0
C984 C 0.70932 0.9895 0.57249 0.0
C985 C 0.72217 1.00761 0.52357 0.0
C986 C 0.68575 0.99273 0.60447 0.0
C987 C 0.67455 1.01486 0.58975 0.0
C988 C 0.688 0.03379 0.54762 0.0
C989 C 0.71154 0.02991 0.5144 0.0
C990 C 0.67225 0.97171 0.64523 0.0
C991 C 0.67704 0.05775 0.53095 0.0
C992 C 0.60724 1.01313 0.55396 0.0
C993 C 0.59878 1.01902 0.65291 0.0
C994 C 0.63166 1.01215 0.53229 0.0
C995 C 0.6484 1.01739 0.61086 0.0
C996 C 0.64002 0.02359 0.7107 0.0
C997 C 0.61545 0.02422 0.73064 0.0
C998 C 0.63957 1.00539 0.42486 0.0
C999 C 0.65709 0.02936 0.79679 0.0
H1000 H 0.71718 0.97209 0.57841 0.0
H1001 H 0.721 0.04387 0.47461 0.0
H1002 H 0.66039 0.97685 0.70956 0.0
H1003 H 0.66104 0.96442 0.58239 0.0
H1004 H 0.68426 0.95748 0.67231 0.0
H1005 H 0.69055 0.07144 0.51363 0.0
H1006 H 0.66454 0.05685 0.46492 0.0
H1007 H 0.66686 0.06326 0.60016 0.0
H1008 H 0.59473 1.00913 0.49292 0.0
H1009 H 0.60932 0.02886 0.80743 0.0
H1010 H 0.65099 0.98948 0.42819 0.0
H1011 H 0.65026 1.01991 0.39149 0.0
H1012 H 0.62449 1.00173 0.37216 0.0
H1013 H 0.66823 1.01371 0.81386 0.0
H1014 H 0.64792 0.03485 0.86883 0.0
H1015 H 0.66913 0.04378 0.77226 0.0
C1016 C 0.51255 0.71482 0.51051 0.0
C1017 C 0.53512 0.72505 0.51662 0.0
C1018 C 0.50847 0.69126 0.54307 0.0
C1019 C 0.52745 0.67736 0.58163 0.0
C1020 C 0.54992 0.68811 0.59329 0.0
C1021 C 0.55338 0.7117 0.56185 0.0
C1022 C 0.48412 0.68083 0.53045 0.0
C1023 C 0.57089 0.67417 0.63157 0.0
C1024 C 0.5177 0.61854 0.72425 0.0
C1025 C 0.52157 0.60171 0.64573 0.0
C1026 C 0.51894 0.64307 0.7042 0.0
C1027 C 0.52444 0.65128 0.60334 0.0
C1028 C 0.52837 0.63439 0.524 0.0
C1029 C 0.52674 0.60998 0.54577 0.0
C1030 C 0.51447 0.66026 0.79123 0.0
C1031 C 0.53441 0.64212 0.41562 0.0
H1032 H 0.4984 0.7247 0.47419 0.0
H1033 H 0.57094 0.71931 0.56656 0.0
H1034 H 0.48418 0.66812 0.46511 0.0
H1035 H 0.47891 0.67095 0.60103 0.0
H1036 H 0.47063 0.69459 0.51444 0.0
H1037 H 0.58603 0.68577 0.65204 0.0
H1038 H 0.56611 0.66339 0.70008 0.0
H1039 H 0.5767 0.66183 0.56996 0.0
H1040 H 0.51363 0.61259 0.80194 0.0
H1041 H 0.52978 0.59735 0.48424 0.0
H1042 H 0.49966 0.67217 0.77041 0.0
H1043 H 0.53028 0.67153 0.80347 0.0
H1044 H 0.51011 0.6512 0.86506 0.0
H1045 H 0.51981 0.65309 0.38475 0.0
H1046 H 0.53728 0.62696 0.36256 0.0
H1047 H 0.55057 0.65323 0.41623 0.0
C1048 C 0.82981 0.53766 0.5049 0.0
C1049 C 0.81959 0.51517 0.49448 0.0
C1050 C 0.85301 0.54048 0.54396 0.0
C1051 C 0.8665 0.52035 0.5725 0.0
C1052 C 0.85558 0.49782 0.56921 0.0
C1053 C 0.83234 0.49556 0.53134 0.0
C1054 C 0.86363 0.5649 0.54825 0.0
C1055 C 0.86902 0.47579 0.59868 0.0
C1056 C 0.93386 0.52238 0.54124 0.0
C1057 C 0.94183 0.52428 0.64394 0.0
C1058 C 0.90955 0.52126 0.51725 0.0
C1059 C 0.89248 0.52247 0.59752 0.0
C1060 C 0.90038 0.52471 0.70125 0.0
C1061 C 0.92485 0.52542 0.72321 0.0
C1062 C 0.90217 0.51818 0.40576 0.0
C1063 C 0.88297 0.52644 0.78924 0.0
H1064 H 0.82036 0.5529 0.47563 0.0
H1065 H 0.82465 0.47809 0.52377 0.0
H1066 H 0.87246 0.56784 0.62383 0.0
H1067 H 0.87728 0.56667 0.48715 0.0
H1068 H 0.85014 0.57889 0.53645 0.0
H1069 H 0.85745 0.45994 0.60151 0.0
H1070 H 0.88323 0.4726 0.54128 0.0
H1071 H 0.87761 0.47802 0.6752 0.0
H1072 H 0.94668 0.52125 0.47919 0.0
H1073 H 0.93066 0.52701 0.80282 0.0
H1074 H 0.88964 0.53232 0.383 0.0
H1075 H 0.89285 0.50107 0.39653 0.0
H1076 H 0.91745 0.51852 0.3519 0.0
H1077 H 0.87264 0.54299 0.78166 0.0
H1078 H 0.8918 0.52635 0.86603 0.0
H1079 H 0.87023 0.51156 0.78601 0.0
loop_
_geom_bond_atom_site_label_1
_geom_bond_atom_site_label_2
_geom_bond_distance
_geom_bond_site_symmetry_2
_ccdc_geom_bond_type
H0 C1 0.949 . S
C1 H0 0.949 . S
C1 C2 1.395 . S
C1 C3 1.391 . S
C2 C1 1.395 . S
C2 C5 1.390 . S
C3 C1 1.391 . S
C3 C7 1.387 . S
C3 C8 1.491 . S
H4 C5 0.950 . S
C5 C2 1.390 . S
C5 H4 0.950 . S
C5 C6 1.378 . S
C6 C5 1.378 . S
C6 C7 1.409 . S
C7 C3 1.387 . S
C7 C6 1.409 . S
C7 H9 0.951 . S
C8 C3 1.491 . S
C8 C10 1.382 . S
C8 C12 1.404 . S
H9 C7 0.951 . S
C10 C8 1.382 . S
C10 C11 1.390 . S
C10 H15 0.949 . S
C11 C10 1.390 . S
C11 C16 1.399 . S
C12 C8 1.404 . S
C12 H13 0.950 . S
C12 C14 1.375 . S
H13 C12 0.950 . S
C14 C12 1.375 . S
C14 C16 1.382 . S
C14 H18 0.950 . S
H15 C10 0.949 . S
C16 C11 1.399 . S
C16 C14 1.382 . S
C16 H17 0.952 . S
H17 C16 0.952 . S
H18 C14 0.950 . S
H19 C20 0.949 . S
C20 H19 0.949 . S
C20 C21 1.395 . S
C20 C22 1.391 . S
C21 C20 1.395 . S
C21 C24 1.390 1_655 S
C22 C20 1.391 . S
C22 C26 1.387 . S
C22 C27 1.491 . S
H23 C24 0.950 . S
C24 C21 1.390 1_455 S
C24 H23 0.950 . S
C24 C25 1.377 1_455 S
C25 C24 1.377 1_655 S
C25 C26 1.413 . S
C26 C22 1.387 . S
C26 C25 1.413 . S
C26 H28 0.951 . S
C27 C22 1.491 . S
C27 C29 1.382 . S
C27 C31 1.404 . S
H28 C26 0.951 . S
C29 C27 1.382 . S
C29 C30 1.390 . S
C29 H34 0.949 1_655 S
C30 C29 1.390 . S
C30 C35 1.399 . S
C31 C27 1.404 . S
C31 H32 0.950 . S
C31 C33 1.375 . S
H32 C31 0.950 . S
C33 C31 1.375 . S
C33 C35 1.382 . S
C33 H37 0.950 . S
H34 C29 0.949 1_455 S
C35 C30 1.399 . S
C35 C33 1.382 . S
C35 H36 0.952 . S
H36 C35 0.952 . S
H37 C33 0.950 . S
H38 C39 0.949 . S
C39 H38 0.949 . S
C39 C40 1.395 . S
C39 C41 1.391 . S
C40 C39 1.395 . S
C40 C43 1.390 1_565 S
C41 C39 1.391 . S
C41 C45 1.387 . S
C41 C46 1.491 . S
H42 C43 0.950 . S
C43 C40 1.390 1_545 S
C43 H42 0.950 . S
C43 C44 1.377 1_545 S
C44 C43 1.377 1_565 S
C44 C45 1.413 . S
C45 C41 1.387 . S
C45 C44 1.413 . S
C45 H47 0.951 . S
C46 C41 1.491 . S
C46 C48 1.382 . S
C46 C50 1.404 . S
H47 C45 0.951 . S
C48 C46 1.382 . S
C48 C49 1.390 . S
C48 H53 0.949 1_565 S
C49 C48 1.390 . S
C49 C54 1.399 . S
C50 C46 1.404 . S
C50 H51 0.950 . S
C50 C52 1.375 . S
H51 C50 0.950 . S
C52 C50 1.375 . S
C52 C54 1.382 . S
C52 H56 0.950 . S
H53 C48 0.949 1_545 S
C54 C49 1.399 . S
C54 C52 1.382 . S
C54 H55 0.952 . S
H55 C54 0.952 . S
H56 C52 0.950 . S
H57 C58 0.949 . S
C58 H57 0.949 . S
C58 C59 1.395 . S
C58 C60 1.391 . S
C59 C58 1.395 . S
C59 C62 1.390 . S
C60 C58 1.391 . S
C60 C64 1.387 . S
C60 C65 1.491 . S
H61 C62 0.950 . S
C62 C59 1.390 . S
C62 H61 0.950 . S
C62 C63 1.378 . S
C63 C62 1.378 . S
C63 C64 1.409 . S
C64 C60 1.387 . S
C64 C63 1.409 . S
C64 H66 0.951 . S
C65 C60 1.491 . S
C65 C67 1.382 . S
C65 C69 1.404 . S
H66 C64 0.951 . S
C67 C65 1.382 . S
C67 C68 1.390 . S
C67 H72 0.949 . S
C68 C67 1.390 . S
C68 C73 1.399 . S
C69 C65 1.404 . S
C69 H70 0.950 . S
C69 C71 1.375 . S
H70 C69 0.950 . S
C71 C69 1.375 . S
C71 C73 1.382 . S
C71 H75 0.950 . S
H72 C67 0.949 . S
C73 C68 1.399 . S
C73 C71 1.382 . S
C73 H74 0.952 . S
H74 C73 0.952 . S
H75 C71 0.950 . S
H76 C77 0.949 . S
C77 H76 0.949 . S
C77 C78 1.395 . S
C77 C79 1.391 1_554 S
C78 C77 1.395 . S
C78 C81 1.390 1_554 S
C79 C77 1.391 1_556 S
C79 C83 1.387 . S
C79 C84 1.491 . S
H80 C81 0.950 . S
C81 C78 1.390 1_556 S
C81 H80 0.950 . S
C81 C82 1.378 . S
C82 C81 1.378 . S
C82 C83 1.409 . S
C83 C79 1.387 . S
C83 C82 1.409 . S
C83 H85 0.951 . S
C84 C79 1.491 . S
C84 C86 1.382 1_556 S
C84 C88 1.404 . S
H85 C83 0.951 . S
C86 C84 1.382 1_554 S
C86 C87 1.390 . S
C86 H91 0.949 . S
C87 C86 1.390 . S
C87 C92 1.399 1_554 S
C88 C84 1.404 . S
C88 H89 0.950 . S
C88 C90 1.375 . S
H89 C88 0.950 . S
C90 C88 1.375 . S
C90 C92 1.382 . S
C90 H94 0.950 . S
H91 C86 0.949 . S
C92 C87 1.399 1_556 S
C92 C90 1.382 . S
C92 H93 0.952 . S
H93 C92 0.952 . S
H94 C90 0.950 . S
H95 C96 0.949 . S
C96 H95 0.949 . S
C96 C97 1.395 1_655 S
C96 C98 1.391 1_554 S
C97 C96 1.395 1_455 S
C97 C100 1.390 1_554 S
C98 C96 1.391 1_556 S
C98 C102 1.387 . S
C98 C103 1.491 . S
H99 C100 0.950 . S
C100 C97 1.390 1_556 S
C100 H99 0.950 . S
C100 C101 1.377 1_455 S
C101 C100 1.377 1_655 S
C101 C102 1.411 . S
C102 C98 1.387 . S
C102 C101 1.411 . S
C102 H104 0.951 . S
C103 C98 1.491 . S
C103 C105 1.402 1_556 S
C103 C107 1.404 . S
H104 C102 0.951 . S
C105 C103 1.402 1_554 S
C105 C106 1.400 . S
C105 H110 0.920 1_655 S
C106 C105 1.400 . S
C106 C111 1.399 1_554 S
C107 C103 1.404 . S
C107 H108 0.950 . S
C107 C109 1.375 . S
H108 C107 0.950 . S
C109 C107 1.375 . S
C109 C111 1.382 . S
C109 H113 0.950 . S
H110 C105 0.920 1_455 S
C111 C106 1.399 1_556 S
C111 C109 1.382 . S
C111 H112 0.952 . S
H112 C111 0.952 . S
H113 C109 0.950 . S
H114 C115 0.949 . S
C115 H114 0.949 . S
C115 C116 1.395 1_565 S
C115 C117 1.391 1_554 S
C116 C115 1.395 1_545 S
C116 C119 1.390 1_554 S
C117 C115 1.391 1_556 S
C117 C121 1.387 . S
C117 C122 1.491 . S
H118 C119 0.950 . S
C119 C116 1.390 1_556 S
C119 H118 0.950 . S
C119 C120 1.377 1_545 S
C120 C119 1.377 1_565 S
C120 C121 1.411 . S
C121 C117 1.387 . S
C121 C120 1.411 . S
C121 H123 0.951 . S
C122 C117 1.491 . S
C122 C124 1.402 1_556 S
C122 C126 1.404 . S
H123 C121 0.951 . S
C124 C122 1.402 1_554 S
C124 C125 1.400 . S
C124 H129 0.920 1_565 S
C125 C124 1.400 . S
C125 C130 1.399 1_554 S
C126 C122 1.404 . S
C126 H127 0.950 . S
C126 C128 1.375 . S
H127 C126 0.950 . S
C128 C126 1.375 . S
C128 C130 1.382 . S
C128 H132 0.950 . S
H129 C124 0.920 1_545 S
C130 C125 1.399 1_556 S
C130 C128 1.382 . S
C130 H131 0.952 . S
H131 C130 0.952 . S
H132 C128 0.950 . S
H133 C134 0.949 . S
C134 H133 0.949 . S
C134 C135 1.395 . S
C134 C136 1.391 1_554 S
C135 C134 1.395 . S
C135 C138 1.390 1_554 S
C136 C134 1.391 1_556 S
C136 C140 1.387 . S
C136 C141 1.491 . S
H137 C138 0.950 . S
C138 C135 1.390 1_556 S
C138 H137 0.950 . S
C138 C139 1.378 . S
C139 C138 1.378 . S
C139 C140 1.409 . S
C140 C136 1.387 . S
C140 C139 1.409 . S
C140 H142 0.951 . S
C141 C136 1.491 . S
C141 C143 1.382 1_556 S
C141 C145 1.404 . S
H142 C140 0.951 . S
C143 C141 1.382 1_554 S
C143 C144 1.390 . S
C143 H148 0.949 . S
C144 C143 1.390 . S
C144 C149 1.399 1_554 S
C145 C141 1.404 . S
C145 H146 0.950 . S
C145 C147 1.375 . S
H146 C145 0.950 . S
C147 C145 1.375 . S
C147 C149 1.382 . S
C147 H151 0.950 . S
H148 C143 0.949 . S
C149 C144 1.399 1_556 S
C149 C147 1.382 . S
C149 H150 0.952 . S
H150 C149 0.952 . S
H151 C147 0.950 . S
Sm152 C154 2.846 . S
Sm152 O172 2.533 1_455 S
Sm152 O173 2.450 . S
Sm152 O174 2.681 1_565 S
Sm152 O175 2.464 . S
Sm152 O176 2.396 . S
Sm152 O180 2.386 1_455 S
Sm152 O183 2.408 1_565 S
Sm153 C163 2.846 . S
Sm153 O174 2.386 1_655 S
Sm153 O177 2.408 1_545 S
Sm153 O178 2.529 1_655 S
Sm153 O179 2.450 . S
Sm153 O180 2.681 1_545 S
Sm153 O181 2.464 . S
Sm153 O182 2.396 . S
C154 Sm152 2.846 . S
C154 C155 1.504 1_556 S
C154 O172 1.239 1_455 S
C154 O173 1.242 . S
C155 C154 1.504 1_554 S
C155 C156 1.359 . S
C155 C160 1.382 . S
C156 C155 1.359 . S
C156 C157 1.385 . S
C156 H184 0.930 1_455 S
C157 C156 1.385 . S
C157 C158 1.395 . S
C157 H185 0.929 1_455 S
C158 C157 1.395 . S
C158 C159 1.335 . S
C159 C158 1.335 . S
C159 C160 1.398 . S
C159 H186 0.930 . S
C160 C155 1.382 . S
C160 C159 1.398 . S
C160 H187 0.929 1_554 S
C161 O174 1.271 1_565 S
C161 O175 1.251 . S
C162 O176 1.252 1_655 S
C162 O177 1.272 . S
C163 Sm153 2.846 . S
C163 C164 1.506 . S
C163 O178 1.229 1_655 S
C163 O179 1.242 . S
C164 C163 1.506 . S
C164 C165 1.358 . S
C164 C169 1.382 . S
C165 C164 1.358 . S
C165 C166 1.385 . S
C165 H188 0.930 1_655 S
C166 C165 1.385 . S
C166 C167 1.395 . S
C166 H189 0.929 1_655 S
C167 C166 1.395 . S
C167 C168 1.335 . S
C168 C167 1.335 . S
C168 C169 1.398 . S
C168 H190 0.930 . S
C169 C164 1.382 . S
C169 C168 1.398 . S
C169 H191 0.929 . S
C170 O180 1.271 1_545 S
C170 O181 1.251 . S
C171 O182 1.252 1_455 S
C171 O183 1.272 . S
O172 Sm152 2.533 1_655 S
O172 C154 1.239 1_655 S
O173 Sm152 2.450 . S
O173 C154 1.242 . S
O174 Sm152 2.681 1_545 S
O174 Sm153 2.386 1_455 S
O174 C161 1.271 1_545 S
O175 Sm152 2.464 . S
O175 C161 1.251 . S
O176 Sm152 2.396 . S
O176 C162 1.252 1_455 S
O177 Sm153 2.408 1_565 S
O177 C162 1.272 . S
O178 Sm153 2.529 1_455 S
O178 C163 1.229 1_455 S
O179 Sm153 2.450 . S
O179 C163 1.242 . S
O180 Sm152 2.386 1_655 S
O180 Sm153 2.681 1_565 S
O180 C170 1.271 1_565 S
O181 Sm153 2.464 . S
O181 C170 1.251 . S
O182 Sm153 2.396 . S
O182 C171 1.252 1_655 S
O183 Sm152 2.408 1_545 S
O183 C171 1.272 . S
H184 C156 0.930 1_655 S
H185 C157 0.929 1_655 S
H186 C159 0.930 . S
H187 C160 0.929 1_556 S
H188 C165 0.930 1_455 S
H189 C166 0.929 1_455 S
H190 C168 0.930 . S
H191 C169 0.929 . S
Sm192 C194 2.846 . S
Sm192 O212 2.532 1_545 S
Sm192 O213 2.450 . S
Sm192 O214 2.681 . S
Sm192 O215 2.464 . S
Sm192 O216 2.396 . S
Sm192 O220 2.386 1_545 S
Sm192 O223 2.408 . S
Sm193 C203 2.846 . S
Sm193 O214 2.386 1_565 S
Sm193 O217 2.408 . S
Sm193 O218 2.528 1_565 S
Sm193 O219 2.450 . S
Sm193 O220 2.681 . S
Sm193 O221 2.464 . S
Sm193 O222 2.396 . S
C194 Sm192 2.846 . S
C194 C195 1.503 1_556 S
C194 O212 1.236 1_545 S
C194 O213 1.242 . S
C195 C194 1.503 1_554 S
C195 C196 1.360 . S
C195 C200 1.383 . S
C196 C195 1.360 . S
C196 C197 1.385 . S
C196 H224 0.930 1_545 S
C197 C196 1.385 . S
C197 C198 1.395 . S
C197 H225 0.929 1_545 S
C198 C197 1.395 . S
C198 C199 1.335 . S
C199 C198 1.335 . S
C199 C200 1.398 . S
C199 H226 0.930 . S
C200 C195 1.383 . S
C200 C199 1.398 . S
C200 H227 0.929 1_554 S
C201 O214 1.271 . S
C201 O215 1.251 . S
C202 O216 1.252 1_565 S
C202 O217 1.272 . S
C203 Sm193 2.846 . S
C203 C204 1.506 . S
C203 O218 1.225 1_565 S
C203 O219 1.242 . S
C204 C203 1.506 . S
C204 C205 1.358 . S
C204 C209 1.382 . S
C205 C204 1.358 . S
C205 C206 1.385 . S
C205 H228 0.930 1_565 S
C206 C205 1.385 . S
C206 C207 1.395 . S
C206 H229 0.929 1_565 S
C207 C206 1.395 . S
C207 C208 1.335 . S
C208 C207 1.335 . S
C208 C209 1.398 . S
C208 H230 0.930 . S
C209 C204 1.382 . S
C209 C208 1.398 . S
C209 H231 0.929 . S
C210 O220 1.271 . S
C210 O221 1.251 . S
C211 O222 1.252 1_545 S
C211 O223 1.272 . S
O212 Sm192 2.532 1_565 S
O212 C194 1.236 1_565 S
O213 Sm192 2.450 . S
O213 C194 1.242 . S
O214 Sm192 2.681 . S
O214 Sm193 2.386 1_545 S
O214 C201 1.271 . S
O215 Sm192 2.464 . S
O215 C201 1.251 . S
O216 Sm192 2.396 . S
O216 C202 1.252 1_545 S
O217 Sm193 2.408 . S
O217 C202 1.272 . S
O218 Sm193 2.528 1_545 S
O218 C203 1.225 1_545 S
O219 Sm193 2.450 . S
O219 C203 1.242 . S
O220 Sm192 2.386 1_565 S
O220 Sm193 2.681 . S
O220 C210 1.271 . S
O221 Sm193 2.464 . S
O221 C210 1.251 . S
O222 Sm193 2.396 . S
O222 C211 1.252 1_565 S
O223 Sm192 2.408 . S
O223 C211 1.272 . S
H224 C196 0.930 1_565 S
H225 C197 0.929 1_565 S
H226 C199 0.930 . S
H227 C200 0.929 1_556 S
H228 C205 0.930 1_545 S
H229 C206 0.929 1_545 S
H230 C208 0.930 . S
H231 C209 0.929 . S
Sm232 C234 2.846 . S
Sm232 O252 2.543 . S
Sm232 O253 2.450 . S
Sm232 O254 2.681 . S
Sm232 O255 2.464 . S
Sm232 O256 2.396 . S
Sm232 O260 2.386 . S
Sm232 O263 2.408 . S
Sm233 C243 2.846 . S
Sm233 O254 2.386 . S
Sm233 O257 2.408 . S
Sm233 O258 2.543 . S
Sm233 O259 2.450 . S
Sm233 O260 2.681 . S
Sm233 O261 2.464 . S
Sm233 O262 2.396 . S
C234 Sm232 2.846 . S
C234 C235 1.501 1_556 S
C234 O252 1.261 . S
C234 O253 1.242 . S
C235 C234 1.501 1_554 S
C235 C236 1.361 . S
C235 C240 1.384 . S
C236 C235 1.361 . S
C236 C237 1.385 . S
C236 H264 0.930 . S
C237 C236 1.385 . S
C237 C238 1.395 . S
C237 H265 0.929 . S
C238 C237 1.395 . S
C238 C239 1.335 . S
C239 C238 1.335 . S
C239 C240 1.398 . S
C239 H266 0.930 . S
C240 C235 1.384 . S
C240 C239 1.398 . S
C240 H267 0.929 1_554 S
C241 O254 1.271 . S
C241 O255 1.251 . S
C242 O256 1.252 . S
C242 O257 1.272 . S
C243 Sm233 2.846 . S
C243 C244 1.506 . S
C243 O258 1.261 . S
C243 O259 1.242 . S
C244 C243 1.506 . S
C244 C245 1.358 . S
C244 C249 1.382 . S
C245 C244 1.358 . S
C245 C246 1.385 . S
C245 H268 0.930 . S
C246 C245 1.385 . S
C246 C247 1.395 . S
C246 H269 0.929 . S
C247 C246 1.395 . S
C247 C248 1.335 . S
C248 C247 1.335 . S
C248 C249 1.398 . S
C248 H270 0.930 . S
C249 C244 1.382 . S
C249 C248 1.398 . S
C249 H271 0.929 . S
C250 O260 1.271 . S
C250 O261 1.251 . S
C251 O262 1.252 . S
C251 O263 1.272 . S
O252 Sm232 2.543 . S
O252 C234 1.261 . S
O253 Sm232 2.450 . S
O253 C234 1.242 . S
O254 Sm232 2.681 . S
O254 Sm233 2.386 . S
O254 C241 1.271 . S
O255 Sm232 2.464 . S
O255 C241 1.251 . S
O256 Sm232 2.396 . S
O256 C242 1.252 . S
O257 Sm233 2.408 . S
O257 C242 1.272 . S
O258 Sm233 2.543 . S
O258 C243 1.261 . S
O259 Sm233 2.450 . S
O259 C243 1.242 . S
O260 Sm232 2.386 . S
O260 Sm233 2.681 . S
O260 C250 1.271 . S
O261 Sm233 2.464 . S
O261 C250 1.251 . S
O262 Sm233 2.396 . S
O262 C251 1.252 . S
O263 Sm232 2.408 . S
O263 C251 1.272 . S
H264 C236 0.930 . S
H265 C237 0.929 . S
H266 C239 0.930 . S
H267 C240 0.929 1_556 S
H268 C245 0.930 . S
H269 C246 0.929 . S
H270 C248 0.930 . S
H271 C249 0.929 . S
Sm272 C274 2.846 . S
Sm272 O292 2.543 . S
Sm272 O293 2.450 . S
Sm272 O294 2.681 1_655 S
Sm272 O295 2.464 . S
Sm272 O296 2.396 . S
Sm272 O300 2.386 . S
Sm272 O303 2.408 1_655 S
Sm273 C283 2.846 . S
Sm273 O294 2.386 . S
Sm273 O297 2.408 1_455 S
Sm273 O298 2.543 . S
Sm273 O299 2.450 . S
Sm273 O300 2.681 1_455 S
Sm273 O301 2.464 . S
Sm273 O302 2.396 . S
C274 Sm272 2.846 . S
C274 C275 1.502 1_556 S
C274 O292 1.261 . S
C274 O293 1.242 . S
C275 C274 1.502 1_554 S
C275 C276 1.361 . S
C275 C280 1.383 . S
C276 C275 1.361 . S
C276 C277 1.385 . S
C276 H304 0.930 . S
C277 C276 1.385 . S
C277 C278 1.395 . S
C277 H305 0.929 . S
C278 C277 1.395 . S
C278 C279 1.335 . S
C279 C278 1.335 . S
C279 C280 1.398 . S
C279 H306 0.930 . S
C280 C275 1.383 . S
C280 C279 1.398 . S
C280 H307 0.929 1_554 S
C281 O294 1.258 1_655 S
C281 O295 1.275 . S
C282 O296 1.252 . S
C282 O297 1.272 . S
C283 Sm273 2.846 . S
C283 C284 1.506 . S
C283 O298 1.261 . S
C283 O299 1.242 . S
C284 C283 1.506 . S
C284 C285 1.358 . S
C284 C289 1.382 . S
C285 C284 1.358 . S
C285 C286 1.385 . S
C285 H308 0.930 . S
C286 C285 1.385 . S
C286 C287 1.395 . S
C286 H309 0.929 . S
C287 C286 1.395 . S
C287 C288 1.335 . S
C288 C287 1.335 . S
C288 C289 1.398 . S
C288 H310 0.930 . S
C289 C284 1.382 . S
C289 C288 1.398 . S
C289 H311 0.929 . S
C290 O300 1.271 1_455 S
C290 O301 1.251 . S
C291 O302 1.252 . S
C291 O303 1.272 . S
O292 Sm272 2.543 . S
O292 C274 1.261 . S
O293 Sm272 2.450 . S
O293 C274 1.242 . S
O294 Sm272 2.681 1_455 S
O294 Sm273 2.386 . S
O294 C281 1.258 1_455 S
O295 Sm272 2.464 . S
O295 C281 1.275 . S
O296 Sm272 2.396 . S
O296 C282 1.252 . S
O297 Sm273 2.408 1_655 S
O297 C282 1.272 . S
O298 Sm273 2.543 . S
O298 C283 1.261 . S
O299 Sm273 2.450 . S
O299 C283 1.242 . S
O300 Sm272 2.386 . S
O300 Sm273 2.681 1_655 S
O300 C290 1.271 1_655 S
O301 Sm273 2.464 . S
O301 C290 1.251 . S
O302 Sm273 2.396 . S
O302 C291 1.252 . S
O303 Sm272 2.408 1_455 S
O303 C291 1.272 . S
H304 C276 0.930 . S
H305 C277 0.929 . S
H306 C279 0.930 . S
H307 C280 0.929 1_556 S
H308 C285 0.930 . S
H309 C286 0.929 . S
H310 C288 0.930 . S
H311 C289 0.929 . S
C312 C313 1.391 . S
C312 C314 1.394 . S
C312 H328 0.931 . S
C313 C312 1.391 . S
C313 C317 1.376 1_545 S
C314 C312 1.394 . S
C314 C315 1.369 . S
C314 C318 1.531 . S
C315 C314 1.369 . S
C315 C316 1.410 1_545 S
C315 C323 1.503 . S
C316 C315 1.410 1_565 S
C316 C317 1.392 . S
C316 C319 1.511 . S
C317 C313 1.376 1_565 S
C317 C316 1.392 . S
C317 H329 0.929 . S
C318 C314 1.531 . S
C318 H330 0.960 . S
C318 H331 0.962 . S
C318 H332 0.960 . S
C319 C316 1.511 . S
C319 H333 0.961 . S
C319 H334 0.961 . S
C319 H335 0.961 . S
C320 C321 1.370 1_565 S
C320 C322 1.363 . S
C320 H336 0.931 . S
C321 C320 1.370 1_545 S
C321 C325 1.408 . S
C322 C320 1.363 . S
C322 C323 1.370 1_565 S
C322 C326 1.524 . S
C323 C315 1.503 . S
C323 C322 1.370 1_545 S
C323 C324 1.403 . S
C324 C323 1.403 . S
C324 C325 1.404 . S
C324 C327 1.539 . S
C325 C321 1.408 . S
C325 C324 1.404 . S
C325 H337 0.930 . S
C326 C322 1.524 . S
C326 H338 0.956 . S
C326 H339 0.961 . S
C326 H340 0.961 . S
C327 C324 1.539 . S
C327 H341 0.958 . S
C327 H342 0.961 . S
C327 H343 0.960 . S
H328 C312 0.931 . S
H329 C317 0.929 . S
H330 C318 0.960 . S
H331 C318 0.962 . S
H332 C318 0.960 . S
H333 C319 0.961 . S
H334 C319 0.961 . S
H335 C319 0.961 . S
H336 C320 0.931 . S
H337 C325 0.930 . S
H338 C326 0.956 . S
H339 C326 0.961 . S
H340 C326 0.961 . S
H341 C327 0.958 . S
H342 C327 0.961 . S
H343 C327 0.960 . S
C344 C345 1.391 . S
C344 C346 1.394 . S
C344 H360 0.931 . S
C345 C344 1.391 . S
C345 C349 1.376 . S
C346 C344 1.394 . S
C346 C347 1.369 . S
C346 C350 1.531 . S
C347 C346 1.369 . S
C347 C348 1.410 . S
C347 C355 1.503 . S
C348 C347 1.410 . S
C348 C349 1.392 . S
C348 C351 1.511 . S
C349 C345 1.376 . S
C349 C348 1.392 . S
C349 H361 0.929 . S
C350 C346 1.531 . S
C350 H362 0.960 . S
C350 H363 0.962 . S
C350 H364 0.960 . S
C351 C348 1.511 . S
C351 H365 0.961 . S
C351 H366 0.961 . S
C351 H367 0.961 . S
C352 C353 1.370 . S
C352 C354 1.363 . S
C352 H368 0.931 . S
C353 C352 1.370 . S
C353 C357 1.408 . S
C354 C352 1.363 . S
C354 C355 1.370 . S
C354 C358 1.524 . S
C355 C347 1.503 . S
C355 C354 1.370 . S
C355 C356 1.403 . S
C356 C355 1.403 . S
C356 C357 1.404 . S
C356 C359 1.539 . S
C357 C353 1.408 . S
C357 C356 1.404 . S
C357 H369 0.930 . S
C358 C354 1.524 . S
C358 H370 0.956 . S
C358 H371 0.961 . S
C358 H372 0.961 . S
C359 C356 1.539 . S
C359 H373 0.958 . S
C359 H374 0.961 . S
C359 H375 0.960 . S
H360 C344 0.931 . S
H361 C349 0.929 . S
H362 C350 0.960 . S
H363 C350 0.962 . S
H364 C350 0.960 . S
H365 C351 0.961 . S
H366 C351 0.961 . S
H367 C351 0.961 . S
H368 C352 0.931 . S
H369 C357 0.930 . S
H370 C358 0.956 . S
H371 C358 0.961 . S
H372 C358 0.961 . S
H373 C359 0.958 . S
H374 C359 0.961 . S
H375 C359 0.960 . S
C376 C377 1.391 . S
C376 C378 1.394 . S
C376 H392 0.931 . S
C377 C376 1.391 . S
C377 C381 1.376 . S
C378 C376 1.394 . S
C378 C379 1.369 . S
C378 C382 1.531 . S
C379 C378 1.369 . S
C379 C380 1.410 . S
C379 C387 1.503 . S
C380 C379 1.410 . S
C380 C381 1.392 . S
C380 C383 1.511 . S
C381 C377 1.376 . S
C381 C380 1.392 . S
C381 H393 0.929 . S
C382 C378 1.531 . S
C382 H394 0.960 . S
C382 H395 0.962 . S
C382 H396 0.960 . S
C383 C380 1.511 . S
C383 H397 0.961 . S
C383 H398 0.961 . S
C383 H399 0.961 . S
C384 C385 1.370 . S
C384 C386 1.363 . S
C384 H400 0.931 . S
C385 C384 1.370 . S
C385 C389 1.408 . S
C386 C384 1.363 . S
C386 C387 1.370 . S
C386 C390 1.524 . S
C387 C379 1.503 . S
C387 C386 1.370 . S
C387 C388 1.403 . S
C388 C387 1.403 . S
C388 C389 1.404 . S
C388 C391 1.539 . S
C389 C385 1.408 . S
C389 C388 1.404 . S
C389 H401 0.930 . S
C390 C386 1.524 . S
C390 H402 0.956 . S
C390 H403 0.961 . S
C390 H404 0.961 . S
C391 C388 1.539 . S
C391 H405 0.958 . S
C391 H406 0.961 . S
C391 H407 0.960 . S
H392 C376 0.931 . S
H393 C381 0.929 . S
H394 C382 0.960 . S
H395 C382 0.962 . S
H396 C382 0.960 . S
H397 C383 0.961 . S
H398 C383 0.961 . S
H399 C383 0.961 . S
H400 C384 0.931 . S
H401 C389 0.930 . S
H402 C390 0.956 . S
H403 C390 0.961 . S
H404 C390 0.961 . S
H405 C391 0.958 . S
H406 C391 0.961 . S
H407 C391 0.960 . S
C408 C409 1.391 . S
C408 C410 1.394 . S
C408 H424 0.931 . S
C409 C408 1.391 . S
C409 C413 1.376 1_655 S
C410 C408 1.394 . S
C410 C411 1.369 . S
C410 C414 1.531 . S
C411 C410 1.369 . S
C411 C412 1.410 1_655 S
C411 C419 1.503 . S
C412 C411 1.410 1_455 S
C412 C413 1.392 . S
C412 C415 1.511 . S
C413 C409 1.376 1_455 S
C413 C412 1.392 . S
C413 H425 0.929 . S
C414 C410 1.531 . S
C414 H426 0.960 . S
C414 H427 0.962 . S
C414 H428 0.960 . S
C415 C412 1.511 . S
C415 H429 0.961 . S
C415 H430 0.961 . S
C415 H431 0.961 . S
C416 C417 1.392 . S
C416 C418 1.363 . S
C416 H432 0.931 . S
C417 C416 1.392 . S
C417 C421 1.383 1_455 S
C418 C416 1.363 . S
C418 C419 1.370 1_455 S
C418 C422 1.524 . S
C419 C411 1.503 . S
C419 C418 1.370 1_655 S
C419 C420 1.403 . S
C420 C419 1.403 . S
C420 C421 1.404 . S
C420 C423 1.539 . S
C421 C417 1.383 1_655 S
C421 C420 1.404 . S
C421 H433 0.930 . S
C422 C418 1.524 . S
C422 H434 0.956 . S
C422 H435 0.961 . S
C422 H436 0.961 . S
C423 C420 1.539 . S
C423 H437 0.958 . S
C423 H438 0.961 . S
C423 H439 0.960 . S
H424 C408 0.931 . S
H425 C413 0.929 . S
H426 C414 0.960 . S
H427 C414 0.962 . S
H428 C414 0.960 . S
H429 C415 0.961 . S
H430 C415 0.961 . S
H431 C415 0.961 . S
H432 C416 0.931 . S
H433 C421 0.930 . S
H434 C422 0.956 . S
H435 C422 0.961 . S
H436 C422 0.961 . S
H437 C423 0.958 . S
H438 C423 0.961 . S
H439 C423 0.960 . S
C440 C441 1.413 . S
C440 C442 1.394 . S
C440 H456 0.931 . S
C441 C440 1.413 . S
C441 C445 1.355 1_565 S
C442 C440 1.394 . S
C442 C443 1.369 . S
C442 C446 1.531 . S
C443 C442 1.369 . S
C443 C444 1.410 1_565 S
C443 C451 1.503 . S
C444 C443 1.410 1_545 S
C444 C445 1.392 . S
C444 C447 1.511 . S
C445 C441 1.355 1_545 S
C445 C444 1.392 . S
C445 H457 0.929 . S
C446 C442 1.531 . S
C446 H458 0.960 . S
C446 H459 0.962 . S
C446 H460 0.960 . S
C447 C444 1.511 . S
C447 H461 0.961 . S
C447 H462 0.961 . S
C447 H463 0.961 . S
C448 C449 1.370 1_544 S
C448 C450 1.363 . S
C448 H464 0.931 . S
C449 C448 1.370 1_566 S
C449 C453 1.408 . S
C450 C448 1.363 . S
C450 C451 1.370 1_545 S
C450 C454 1.524 . S
C451 C443 1.503 . S
C451 C450 1.370 1_565 S
C451 C452 1.403 1_554 S
C452 C451 1.403 1_556 S
C452 C453 1.404 . S
C452 C455 1.539 . S
C453 C449 1.408 . S
C453 C452 1.404 . S
C453 H465 0.930 . S
C454 C450 1.524 . S
C454 H466 0.956 1_545 S
C454 H467 0.961 . S
C454 H468 0.961 . S
C455 C452 1.539 . S
C455 H469 0.958 . S
C455 H470 0.961 . S
C455 H471 0.960 . S
H456 C440 0.931 . S
H457 C445 0.929 . S
H458 C446 0.960 . S
H459 C446 0.962 . S
H460 C446 0.960 . S
H461 C447 0.961 . S
H462 C447 0.961 . S
H463 C447 0.961 . S
H464 C448 0.931 . S
H465 C453 0.930 . S
H466 C454 0.956 1_565 S
H467 C454 0.961 . S
H468 C454 0.961 . S
H469 C455 0.958 . S
H470 C455 0.961 . S
H471 C455 0.960 . S
C472 C473 1.391 . S
C472 C474 1.394 . S
C472 H488 0.931 . S
C473 C472 1.391 . S
C473 C477 1.376 . S
C474 C472 1.394 . S
C474 C475 1.369 . S
C474 C478 1.531 . S
C475 C474 1.369 . S
C475 C476 1.410 . S
C475 C483 1.503 . S
C476 C475 1.410 . S
C476 C477 1.392 . S
C476 C479 1.511 . S
C477 C473 1.376 . S
C477 C476 1.392 . S
C477 H489 0.929 . S
C478 C474 1.531 . S
C478 H490 0.960 . S
C478 H491 0.962 . S
C478 H492 0.960 . S
C479 C476 1.511 . S
C479 H493 0.961 . S
C479 H494 0.961 1_554 S
C479 H495 0.961 1_554 S
C480 C481 1.370 . S
C480 C482 1.363 1_556 S
C480 H496 0.931 . S
C481 C480 1.370 . S
C481 C485 1.408 . S
C482 C480 1.363 1_554 S
C482 C483 1.370 . S
C482 C486 1.524 . S
C483 C475 1.503 . S
C483 C482 1.370 . S
C483 C484 1.403 1_554 S
C484 C483 1.403 1_556 S
C484 C485 1.404 . S
C484 C487 1.539 . S
C485 C481 1.408 . S
C485 C484 1.404 . S
C485 H497 0.930 . S
C486 C482 1.524 . S
C486 H498 0.956 . S
C486 H499 0.961 . S
C486 H500 0.961 . S
C487 C484 1.539 . S
C487 H501 0.958 1_556 S
C487 H502 0.961 . S
C487 H503 0.960 . S
H488 C472 0.931 . S
H489 C477 0.929 . S
H490 C478 0.960 . S
H491 C478 0.962 . S
H492 C478 0.960 . S
H493 C479 0.961 . S
H494 C479 0.961 1_556 S
H495 C479 0.961 1_556 S
H496 C480 0.931 . S
H497 C485 0.930 . S
H498 C486 0.956 . S
H499 C486 0.961 . S
H500 C486 0.961 . S
H501 C487 0.958 1_554 S
H502 C487 0.961 . S
H503 C487 0.960 . S
C504 C505 1.391 . S
C504 C506 1.394 . S
C504 H520 0.931 . S
C505 C504 1.391 . S
C505 C509 1.376 . S
C506 C504 1.394 . S
C506 C507 1.369 . S
C506 C510 1.531 . S
C507 C506 1.369 . S
C507 C508 1.410 . S
C507 C515 1.503 . S
C508 C507 1.410 . S
C508 C509 1.392 . S
C508 C511 1.511 . S
C509 C505 1.376 . S
C509 C508 1.392 . S
C509 H521 0.929 . S
C510 C506 1.531 . S
C510 H522 0.960 . S
C510 H523 0.962 . S
C510 H524 0.960 . S
C511 C508 1.511 . S
C511 H525 0.961 . S
C511 H526 0.961 . S
C511 H527 0.961 . S
C512 C513 1.370 . S
C512 C514 1.363 . S
C512 H528 0.931 . S
C513 C512 1.370 . S
C513 C517 1.408 1_556 S
C514 C512 1.363 . S
C514 C515 1.370 1_556 S
C514 C518 1.524 . S
C515 C507 1.503 . S
C515 C514 1.370 1_554 S
C515 C516 1.403 . S
C516 C515 1.403 . S
C516 C517 1.404 . S
C516 C519 1.539 . S
C517 C513 1.408 1_554 S
C517 C516 1.404 . S
C517 H529 0.930 . S
C518 C514 1.524 . S
C518 H530 0.956 . S
C518 H531 0.961 . S
C518 H532 0.961 . S
C519 C516 1.539 . S
C519 H533 0.958 . S
C519 H534 0.961 . S
C519 H535 0.960 . S
H520 C504 0.931 . S
H521 C509 0.929 . S
H522 C510 0.960 . S
H523 C510 0.962 . S
H524 C510 0.960 . S
H525 C511 0.961 . S
H526 C511 0.961 . S
H527 C511 0.961 . S
H528 C512 0.931 . S
H529 C517 0.930 . S
H530 C518 0.956 . S
H531 C518 0.961 . S
H532 C518 0.961 . S
H533 C519 0.958 . S
H534 C519 0.961 . S
H535 C519 0.960 . S
C536 C537 1.377 1_655 S
C536 C538 1.394 . S
C536 H552 0.931 . S
C537 C536 1.377 1_455 S
C537 C541 1.390 . S
C538 C536 1.394 . S
C538 C539 1.338 1_655 S
C538 C542 1.531 . S
C539 C538 1.338 1_455 S
C539 C540 1.440 . S
C539 C547 1.503 . S
C540 C539 1.440 . S
C540 C541 1.392 . S
C540 C543 1.511 . S
C541 C537 1.390 . S
C541 C540 1.392 . S
C541 H553 0.929 . S
C542 C538 1.531 . S
C542 H554 0.960 . S
C542 H555 0.962 . S
C542 H556 0.960 . S
C543 C540 1.511 . S
C543 H557 0.961 . S
C543 H558 0.961 . S
C543 H559 0.961 . S
C544 C545 1.378 1_554 S
C544 C546 1.367 . S
C544 H560 0.933 . S
C545 C544 1.378 1_556 S
C545 C549 1.396 1_655 S
C546 C544 1.367 . S
C546 C547 1.369 1_655 S
C546 C550 1.524 . S
C547 C539 1.503 . S
C547 C546 1.369 1_455 S
C547 C548 1.404 1_554 S
C548 C547 1.404 1_556 S
C548 C549 1.404 . S
C548 C551 1.539 . S
C549 C545 1.396 1_455 S
C549 C548 1.404 . S
C549 H561 0.930 . S
C550 C546 1.524 . S
C550 H562 0.956 . S
C550 H563 0.961 . S
C550 H564 0.961 . S
C551 C548 1.539 . S
C551 H565 0.958 . S
C551 H566 0.961 . S
C551 H567 0.960 . S
H552 C536 0.931 . S
H553 C541 0.929 . S
H554 C542 0.960 . S
H555 C542 0.962 . S
H556 C542 0.960 . S
H557 C543 0.961 . S
H558 C543 0.961 . S
H559 C543 0.961 . S
H560 C544 0.933 . S
H561 C549 0.930 . S
H562 C550 0.956 . S
H563 C550 0.961 . S
H564 C550 0.961 . S
H565 C551 0.958 . S
H566 C551 0.961 . S
H567 C551 0.960 . S
C568 C569 1.389 1_455 S
C568 C570 1.394 1_455 S
C568 H584 0.931 . S
C569 C568 1.389 1_655 S
C569 C573 1.389 . S
C570 C568 1.394 1_655 S
C570 C571 1.369 . S
C570 C574 1.531 . S
C571 C570 1.369 . S
C571 C572 1.410 . S
C571 C579 1.503 . S
C572 C571 1.410 . S
C572 C573 1.392 . S
C572 C575 1.511 . S
C573 C569 1.389 . S
C573 C572 1.392 . S
C573 H585 0.929 1_554 S
C574 C570 1.531 . S
C574 H586 0.960 . S
C574 H587 0.962 1_655 S
C574 H588 0.960 . S
C575 C572 1.511 . S
C575 H589 0.961 1_554 S
C575 H590 0.961 . S
C575 H591 0.961 . S
C576 C577 1.370 . S
C576 C578 1.363 . S
C576 H592 0.931 1_655 S
C577 C576 1.370 . S
C577 C581 1.408 . S
C578 C576 1.363 . S
C578 C579 1.370 . S
C578 C582 1.524 1_655 S
C579 C571 1.503 . S
C579 C578 1.370 . S
C579 C580 1.403 . S
C580 C579 1.403 . S
C580 C581 1.404 . S
C580 C583 1.539 . S
C581 C577 1.408 . S
C581 C580 1.404 . S
C581 H593 0.930 . S
C582 C578 1.524 1_455 S
C582 H594 0.956 . S
C582 H595 0.961 . S
C582 H596 0.961 . S
C583 C580 1.539 . S
C583 H597 0.958 . S
C583 H598 0.961 . S
C583 H599 0.960 . S
H584 C568 0.931 . S
H585 C573 0.929 1_556 S
H586 C574 0.960 . S
H587 C574 0.962 1_455 S
H588 C574 0.960 . S
H589 C575 0.961 1_556 S
H590 C575 0.961 . S
H591 C575 0.961 . S
H592 C576 0.931 1_455 S
H593 C581 0.930 . S
H594 C582 0.956 . S
H595 C582 0.961 . S
H596 C582 0.961 . S
H597 C583 0.958 . S
H598 C583 0.961 . S
H599 C583 0.960 . S
C600 C601 1.387 1_545 S
C600 C602 1.394 1_545 S
C600 H616 0.931 . S
C601 C600 1.387 1_565 S
C601 C605 1.390 . S
C602 C600 1.394 1_565 S
C602 C603 1.369 . S
C602 C606 1.532 . S
C603 C602 1.369 . S
C603 C604 1.410 . S
C603 C611 1.503 . S
C604 C603 1.410 . S
C604 C605 1.392 . S
C604 C607 1.511 . S
C605 C601 1.390 . S
C605 C604 1.392 . S
C605 H617 0.929 1_554 S
C606 C602 1.532 . S
C606 H618 0.965 . S
C606 H619 0.956 1_565 S
C606 H620 0.960 . S
C607 C604 1.511 . S
C607 H621 0.961 1_554 S
C607 H622 0.961 . S
C607 H623 0.961 . S
C608 C609 1.370 . S
C608 C610 1.363 . S
C608 H624 0.931 1_565 S
C609 C608 1.370 . S
C609 C613 1.408 . S
C610 C608 1.363 . S
C610 C611 1.370 . S
C610 C614 1.524 1_565 S
C611 C603 1.503 . S
C611 C610 1.370 . S
C611 C612 1.403 . S
C612 C611 1.403 . S
C612 C613 1.404 . S
C612 C615 1.539 . S
C613 C609 1.408 . S
C613 C612 1.404 . S
C613 H625 0.930 . S
C614 C610 1.524 1_545 S
C614 H626 0.956 . S
C614 H627 0.961 . S
C614 H628 0.961 . S
C615 C612 1.539 . S
C615 H629 0.958 . S
C615 H630 0.961 . S
C615 H631 0.960 . S
H616 C600 0.931 . S
H617 C605 0.929 1_556 S
H618 C606 0.965 . S
H619 C606 0.956 1_545 S
H620 C606 0.960 . S
H621 C607 0.961 1_556 S
H622 C607 0.961 . S
H623 C607 0.961 . S
H624 C608 0.931 1_545 S
H625 C613 0.930 . S
H626 C614 0.956 . S
H627 C614 0.961 . S
H628 C614 0.961 . S
H629 C615 0.958 . S
H630 C615 0.961 . S
H631 C615 0.960 . S
C632 C633 1.391 . S
C632 C634 1.394 . S
C632 H648 0.931 . S
C633 C632 1.391 . S
C633 C637 1.376 . S
C634 C632 1.394 . S
C634 C635 1.369 . S
C634 C638 1.531 . S
C635 C634 1.369 . S
C635 C636 1.410 . S
C635 C643 1.503 . S
C636 C635 1.410 . S
C636 C637 1.392 . S
C636 C639 1.511 . S
C637 C633 1.376 . S
C637 C636 1.392 . S
C637 H649 0.929 . S
C638 C634 1.531 . S
C638 H650 0.960 . S
C638 H651 0.962 . S
C638 H652 0.960 . S
C639 C636 1.511 . S
C639 H653 0.961 . S
C639 H654 0.961 . S
C639 H655 0.961 . S
C640 C641 1.370 . S
C640 C642 1.363 . S
C640 H656 0.931 . S
C641 C640 1.370 . S
C641 C645 1.408 . S
C642 C640 1.363 . S
C642 C643 1.370 . S
C642 C646 1.524 . S
C643 C635 1.503 . S
C643 C642 1.370 . S
C643 C644 1.403 . S
C644 C643 1.403 . S
C644 C645 1.404 . S
C644 C647 1.539 . S
C645 C641 1.408 . S
C645 C644 1.404 . S
C645 H657 0.930 . S
C646 C642 1.524 . S
C646 H658 0.956 . S
C646 H659 0.961 . S
C646 H660 0.961 . S
C647 C644 1.539 . S
C647 H661 0.958 . S
C647 H662 0.961 . S
C647 H663 0.960 . S
H648 C632 0.931 . S
H649 C637 0.929 . S
H650 C638 0.960 . S
H651 C638 0.962 . S
H652 C638 0.960 . S
H653 C639 0.961 . S
H654 C639 0.961 . S
H655 C639 0.961 . S
H656 C640 0.931 . S
H657 C645 0.930 . S
H658 C646 0.956 . S
H659 C646 0.961 . S
H660 C646 0.961 . S
H661 C647 0.958 . S
H662 C647 0.961 . S
H663 C647 0.960 . S
C664 C665 1.391 . S
C664 C666 1.394 . S
C664 H680 0.931 . S
C665 C664 1.391 . S
C665 C669 1.376 . S
C666 C664 1.394 . S
C666 C667 1.369 . S
C666 C670 1.531 . S
C667 C666 1.369 . S
C667 C668 1.410 . S
C667 C675 1.503 . S
C668 C667 1.410 . S
C668 C669 1.392 . S
C668 C671 1.511 . S
C669 C665 1.376 . S
C669 C668 1.392 . S
C669 H681 0.929 1_554 S
C670 C666 1.531 . S
C670 H682 0.960 . S
C670 H683 0.962 . S
C670 H684 0.960 . S
C671 C668 1.511 . S
C671 H685 0.961 1_554 S
C671 H686 0.961 . S
C671 H687 0.961 1_554 S
C672 C673 1.370 . S
C672 C674 1.363 . S
C672 H688 0.931 . S
C673 C672 1.370 . S
C673 C677 1.408 . S
C674 C672 1.363 . S
C674 C675 1.370 . S
C674 C678 1.524 . S
C675 C667 1.503 . S
C675 C674 1.370 . S
C675 C676 1.403 . S
C676 C675 1.403 . S
C676 C677 1.404 . S
C676 C679 1.539 . S
C677 C673 1.408 . S
C677 C676 1.404 . S
C677 H689 0.930 . S
C678 C674 1.524 . S
C678 H690 0.956 . S
C678 H691 0.961 . S
C678 H692 0.961 . S
C679 C676 1.539 . S
C679 H693 0.958 . S
C679 H694 0.961 . S
C679 H695 0.960 . S
H680 C664 0.931 . S
H681 C669 0.929 1_556 S
H682 C670 0.960 . S
H683 C670 0.962 . S
H684 C670 0.960 . S
H685 C671 0.961 1_556 S
H686 C671 0.961 . S
H687 C671 0.961 1_556 S
H688 C672 0.931 . S
H689 C677 0.930 . S
H690 C678 0.956 . S
H691 C678 0.961 . S
H692 C678 0.961 . S
H693 C679 0.958 . S
H694 C679 0.961 . S
H695 C679 0.960 . S
C696 C697 1.391 1_455 S
C696 C698 1.394 . S
C696 H712 0.931 . S
C697 C696 1.391 1_655 S
C697 C701 1.376 . S
C698 C696 1.394 . S
C698 C699 1.369 . S
C698 C702 1.531 . S
C699 C698 1.369 . S
C699 C700 1.410 1_455 S
C699 C707 1.503 . S
C700 C699 1.410 1_655 S
C700 C701 1.392 . S
C700 C703 1.511 . S
C701 C697 1.376 . S
C701 C700 1.392 . S
C701 H713 0.929 . S
C702 C698 1.531 . S
C702 H714 0.960 . S
C702 H715 0.962 . S
C702 H716 0.960 . S
C703 C700 1.511 . S
C703 H717 0.961 . S
C703 H718 0.961 . S
C703 H719 0.961 . S
C704 C705 1.370 . S
C704 C706 1.363 . S
C704 H720 0.931 . S
C705 C704 1.370 . S
C705 C709 1.408 . S
C706 C704 1.363 . S
C706 C707 1.370 . S
C706 C710 1.524 . S
C707 C699 1.503 . S
C707 C706 1.370 . S
C707 C708 1.403 . S
C708 C707 1.403 . S
C708 C709 1.404 . S
C708 C711 1.539 . S
C709 C705 1.408 . S
C709 C708 1.404 . S
C709 H721 0.930 1_554 S
C710 C706 1.524 . S
C710 H722 0.956 . S
C710 H723 0.961 . S
C710 H724 0.961 . S
C711 C708 1.539 . S
C711 H725 0.958 1_554 S
C711 H726 0.961 1_554 S
C711 H727 0.960 . S
H712 C696 0.931 . S
H713 C701 0.929 . S
H714 C702 0.960 . S
H715 C702 0.962 . S
H716 C702 0.960 . S
H717 C703 0.961 . S
H718 C703 0.961 . S
H719 C703 0.961 . S
H720 C704 0.931 . S
H721 C709 0.930 1_556 S
H722 C710 0.956 . S
H723 C710 0.961 . S
H724 C710 0.961 . S
H725 C711 0.958 1_556 S
H726 C711 0.961 1_556 S
H727 C711 0.960 . S
C728 C729 1.383 1_565 S
C728 C730 1.392 . S
C728 H744 0.931 . S
C729 C728 1.383 1_545 S
C729 C733 1.393 . S
C730 C728 1.392 . S
C730 C731 1.372 1_565 S
C730 C734 1.529 . S
C731 C730 1.372 1_545 S
C731 C732 1.410 . S
C731 C739 1.503 . S
C732 C731 1.410 . S
C732 C733 1.392 . S
C732 C735 1.511 . S
C733 C729 1.393 . S
C733 C732 1.392 . S
C733 H745 0.929 . S
C734 C730 1.529 . S
C734 H746 0.960 1_565 S
C734 H747 0.962 . S
C734 H748 0.960 . S
C735 C732 1.511 . S
C735 H749 0.961 . S
C735 H750 0.961 . S
C735 H751 0.961 . S
C736 C737 1.370 . S
C736 C738 1.363 . S
C736 H752 0.931 . S
C737 C736 1.370 . S
C737 C741 1.408 . S
C738 C736 1.363 . S
C738 C739 1.370 . S
C738 C742 1.524 1_545 S
C739 C731 1.503 . S
C739 C738 1.370 . S
C739 C740 1.403 . S
C740 C739 1.403 . S
C740 C741 1.404 . S
C740 C743 1.539 . S
C741 C737 1.408 . S
C741 C740 1.404 . S
C741 H753 0.930 . S
C742 C738 1.524 1_565 S
C742 H754 0.956 . S
C742 H755 0.961 . S
C742 H756 0.961 . S
C743 C740 1.539 . S
C743 H757 0.958 . S
C743 H758 0.961 . S
C743 H759 0.960 . S
H744 C728 0.931 . S
H745 C733 0.929 . S
H746 C734 0.960 1_545 S
H747 C734 0.962 . S
H748 C734 0.960 . S
H749 C735 0.961 . S
H750 C735 0.961 . S
H751 C735 0.961 . S
H752 C736 0.931 . S
H753 C741 0.930 . S
H754 C742 0.956 . S
H755 C742 0.961 . S
H756 C742 0.961 . S
H757 C743 0.958 . S
H758 C743 0.961 . S
H759 C743 0.960 . S
C760 C761 1.391 . S
C760 C762 1.394 . S
C760 H776 0.931 . S
C761 C760 1.391 . S
C761 C765 1.376 . S
C762 C760 1.394 . S
C762 C763 1.369 . S
C762 C766 1.531 . S
C763 C762 1.369 . S
C763 C764 1.410 . S
C763 C771 1.503 . S
C764 C763 1.410 . S
C764 C765 1.392 . S
C764 C767 1.511 . S
C765 C761 1.376 . S
C765 C764 1.392 . S
C765 H777 0.929 . S
C766 C762 1.531 . S
C766 H778 0.960 . S
C766 H779 0.962 . S
C766 H780 0.960 . S
C767 C764 1.511 . S
C767 H781 0.961 . S
C767 H782 0.961 . S
C767 H783 0.961 . S
C768 C769 1.370 . S
C768 C770 1.363 . S
C768 H784 0.931 . S
C769 C768 1.370 . S
C769 C773 1.408 . S
C770 C768 1.363 . S
C770 C771 1.370 . S
C770 C774 1.524 . S
C771 C763 1.503 . S
C771 C770 1.370 . S
C771 C772 1.403 . S
C772 C771 1.403 . S
C772 C773 1.404 . S
C772 C775 1.539 . S
C773 C769 1.408 . S
C773 C772 1.404 . S
C773 H785 0.930 . S
C774 C770 1.524 . S
C774 H786 0.956 . S
C774 H787 0.961 . S
C774 H788 0.961 . S
C775 C772 1.539 . S
C775 H789 0.958 . S
C775 H790 0.961 . S
C775 H791 0.960 . S
H776 C760 0.931 . S
H777 C765 0.929 . S
H778 C766 0.960 . S
H779 C766 0.962 . S
H780 C766 0.960 . S
H781 C767 0.961 . S
H782 C767 0.961 . S
H783 C767 0.961 . S
H784 C768 0.931 . S
H785 C773 0.930 . S
H786 C774 0.956 . S
H787 C774 0.961 . S
H788 C774 0.961 . S
H789 C775 0.958 . S
H790 C775 0.961 . S
H791 C775 0.960 . S
C792 C793 1.391 . S
C792 C794 1.394 . S
C792 H808 0.931 . S
C793 C792 1.391 . S
C793 C797 1.376 . S
C794 C792 1.394 . S
C794 C795 1.369 . S
C794 C798 1.531 . S
C795 C794 1.369 . S
C795 C796 1.410 . S
C795 C803 1.503 . S
C796 C795 1.410 . S
C796 C797 1.392 . S
C796 C799 1.511 . S
C797 C793 1.376 . S
C797 C796 1.392 . S
C797 H809 0.929 . S
C798 C794 1.531 . S
C798 H810 0.960 . S
C798 H811 0.962 . S
C798 H812 0.960 . S
C799 C796 1.511 . S
C799 H813 0.961 . S
C799 H814 0.961 . S
C799 H815 0.961 . S
C800 C801 1.370 . S
C800 C802 1.363 . S
C800 H816 0.931 . S
C801 C800 1.370 . S
C801 C805 1.408 . S
C802 C800 1.363 . S
C802 C803 1.370 . S
C802 C806 1.524 . S
C803 C795 1.503 . S
C803 C802 1.370 . S
C803 C804 1.403 . S
C804 C803 1.403 . S
C804 C805 1.404 . S
C804 C807 1.539 . S
C805 C801 1.408 . S
C805 C804 1.404 . S
C805 H817 0.930 . S
C806 C802 1.524 . S
C806 H818 0.956 . S
C806 H819 0.961 . S
C806 H820 0.961 . S
C807 C804 1.539 . S
C807 H821 0.958 . S
C807 H822 0.961 . S
C807 H823 0.960 . S
H808 C792 0.931 . S
H809 C797 0.929 . S
H810 C798 0.960 . S
H811 C798 0.962 . S
H812 C798 0.960 . S
H813 C799 0.961 . S
H814 C799 0.961 . S
H815 C799 0.961 . S
H816 C800 0.931 . S
H817 C805 0.930 . S
H818 C806 0.956 . S
H819 C806 0.961 . S
H820 C806 0.961 . S
H821 C807 0.958 . S
H822 C807 0.961 . S
H823 C807 0.960 . S
C824 C825 1.391 . S
C824 C826 1.394 . S
C824 H840 0.931 . S
C825 C824 1.391 . S
C825 C829 1.376 1_455 S
C826 C824 1.394 . S
C826 C827 1.369 . S
C826 C830 1.531 . S
C827 C826 1.369 . S
C827 C828 1.410 1_455 S
C827 C835 1.503 . S
C828 C827 1.410 1_655 S
C828 C829 1.392 . S
C828 C831 1.511 . S
C829 C825 1.376 1_655 S
C829 C828 1.392 . S
C829 H841 0.929 . S
C830 C826 1.531 . S
C830 H842 0.960 . S
C830 H843 0.962 . S
C830 H844 0.960 . S
C831 C828 1.511 . S
C831 H845 0.961 . S
C831 H846 0.961 . S
C831 H847 0.961 . S
C832 C833 1.370 . S
C832 C834 1.363 . S
C832 H848 0.931 . S
C833 C832 1.370 . S
C833 C837 1.408 . S
C834 C832 1.363 . S
C834 C835 1.370 . S
C834 C838 1.524 . S
C835 C827 1.503 . S
C835 C834 1.370 . S
C835 C836 1.403 . S
C836 C835 1.403 . S
C836 C837 1.404 . S
C836 C839 1.539 1_556 S
C837 C833 1.408 . S
C837 C836 1.404 . S
C837 H849 0.930 . S
C838 C834 1.524 . S
C838 H850 0.956 . S
C838 H851 0.961 1_455 S
C838 H852 0.961 1_455 S
C839 C836 1.539 1_554 S
C839 H853 0.958 . S
C839 H854 0.961 . S
C839 H855 0.960 . S
H840 C824 0.931 . S
H841 C829 0.929 . S
H842 C830 0.960 . S
H843 C830 0.962 . S
H844 C830 0.960 . S
H845 C831 0.961 . S
H846 C831 0.961 . S
H847 C831 0.961 . S
H848 C832 0.931 . S
H849 C837 0.930 . S
H850 C838 0.956 . S
H851 C838 0.961 1_655 S
H852 C838 0.961 1_655 S
H853 C839 0.958 . S
H854 C839 0.961 . S
H855 C839 0.960 . S
C856 C857 1.391 1_565 S
C856 C858 1.394 . S
C856 H872 0.931 . S
C857 C856 1.391 1_545 S
C857 C861 1.376 . S
C858 C856 1.394 . S
C858 C859 1.369 1_565 S
C858 C862 1.531 . S
C859 C858 1.369 1_545 S
C859 C860 1.410 . S
C859 C867 1.503 . S
C860 C859 1.410 . S
C860 C861 1.392 . S
C860 C863 1.511 . S
C861 C857 1.376 . S
C861 C860 1.392 . S
C861 H873 0.929 . S
C862 C858 1.531 . S
C862 H874 0.960 . S
C862 H875 0.962 . S
C862 H876 0.960 . S
C863 C860 1.511 . S
C863 H877 0.961 . S
C863 H878 0.961 . S
C863 H879 0.961 . S
C864 C865 1.370 . S
C864 C866 1.363 . S
C864 H880 0.931 . S
C865 C864 1.370 . S
C865 C869 1.408 . S
C866 C864 1.363 . S
C866 C867 1.370 . S
C866 C870 1.524 . S
C867 C859 1.503 . S
C867 C866 1.370 . S
C867 C868 1.403 . S
C868 C867 1.403 . S
C868 C869 1.404 . S
C868 C871 1.539 . S
C869 C865 1.408 . S
C869 C868 1.404 . S
C869 H881 0.930 . S
C870 C866 1.524 . S
C870 H882 0.956 1_546 S
C870 H883 0.961 . S
C870 H884 0.961 1_556 S
C871 C868 1.539 . S
C871 H885 0.958 1_545 S
C871 H886 0.961 . S
C871 H887 0.960 . S
H872 C856 0.931 . S
H873 C861 0.929 . S
H874 C862 0.960 . S
H875 C862 0.962 . S
H876 C862 0.960 . S
H877 C863 0.961 . S
H878 C863 0.961 . S
H879 C863 0.961 . S
H880 C864 0.931 . S
H881 C869 0.930 . S
H882 C870 0.956 1_564 S
H883 C870 0.961 . S
H884 C870 0.961 1_554 S
H885 C871 0.958 1_565 S
H886 C871 0.961 . S
H887 C871 0.960 . S
C888 C889 1.391 . S
C888 C890 1.394 . S
C888 H904 0.931 . S
C889 C888 1.391 . S
C889 C893 1.376 . S
C890 C888 1.394 . S
C890 C891 1.369 . S
C890 C894 1.531 . S
C891 C890 1.369 . S
C891 C892 1.410 . S
C891 C899 1.503 . S
C892 C891 1.410 . S
C892 C893 1.392 . S
C892 C895 1.511 . S
C893 C889 1.376 . S
C893 C892 1.392 . S
C893 H905 0.929 . S
C894 C890 1.531 . S
C894 H906 0.960 . S
C894 H907 0.962 . S
C894 H908 0.960 1_556 S
C895 C892 1.511 . S
C895 H909 0.961 . S
C895 H910 0.961 . S
C895 H911 0.961 . S
C896 C897 1.370 . S
C896 C898 1.363 . S
C896 H912 0.931 . S
C897 C896 1.370 . S
C897 C901 1.408 . S
C898 C896 1.363 . S
C898 C899 1.370 . S
C898 C902 1.524 . S
C899 C891 1.503 . S
C899 C898 1.370 . S
C899 C900 1.403 . S
C900 C899 1.403 . S
C900 C901 1.404 . S
C900 C903 1.539 . S
C901 C897 1.408 . S
C901 C900 1.404 . S
C901 H913 0.930 . S
C902 C898 1.524 . S
C902 H914 0.956 . S
C902 H915 0.961 . S
C902 H916 0.961 . S
C903 C900 1.539 . S
C903 H917 0.958 1_556 S
C903 H918 0.961 . S
C903 H919 0.960 . S
H904 C888 0.931 . S
H905 C893 0.929 . S
H906 C894 0.960 . S
H907 C894 0.962 . S
H908 C894 0.960 1_554 S
H909 C895 0.961 . S
H910 C895 0.961 . S
H911 C895 0.961 . S
H912 C896 0.931 . S
H913 C901 0.930 . S
H914 C902 0.956 . S
H915 C902 0.961 . S
H916 C902 0.961 . S
H917 C903 0.958 1_554 S
H918 C903 0.961 . S
H919 C903 0.960 . S
C920 C921 1.391 . S
C920 C922 1.394 . S
C920 H936 0.931 . S
C921 C920 1.391 . S
C921 C925 1.376 . S
C922 C920 1.394 . S
C922 C923 1.369 . S
C922 C926 1.531 . S
C923 C922 1.369 . S
C923 C924 1.410 . S
C923 C931 1.503 . S
C924 C923 1.410 . S
C924 C925 1.392 . S
C924 C927 1.511 1_556 S
C925 C921 1.376 . S
C925 C924 1.392 . S
C925 H937 0.929 . S
C926 C922 1.531 . S
C926 H938 0.960 . S
C926 H939 0.962 . S
C926 H940 0.960 . S
C927 C924 1.511 1_554 S
C927 H941 0.961 . S
C927 H942 0.961 . S
C927 H943 0.961 . S
C928 C929 1.370 . S
C928 C930 1.363 . S
C928 H944 0.931 . S
C929 C928 1.370 . S
C929 C933 1.408 . S
C930 C928 1.363 . S
C930 C931 1.370 . S
C930 C934 1.524 . S
C931 C923 1.503 . S
C931 C930 1.370 . S
C931 C932 1.403 . S
C932 C931 1.403 . S
C932 C933 1.404 . S
C932 C935 1.539 . S
C933 C929 1.408 . S
C933 C932 1.404 . S
C933 H945 0.930 . S
C934 C930 1.524 . S
C934 H946 0.956 . S
C934 H947 0.961 . S
C934 H948 0.961 . S
C935 C932 1.539 . S
C935 H949 0.958 . S
C935 H950 0.961 . S
C935 H951 0.960 . S
H936 C920 0.931 . S
H937 C925 0.929 . S
H938 C926 0.960 . S
H939 C926 0.962 . S
H940 C926 0.960 . S
H941 C927 0.961 . S
H942 C927 0.961 . S
H943 C927 0.961 . S
H944 C928 0.931 . S
H945 C933 0.930 . S
H946 C934 0.956 . S
H947 C934 0.961 . S
H948 C934 0.961 . S
H949 C935 0.958 . S
H950 C935 0.961 . S
H951 C935 0.960 . S
C952 C953 1.391 1_455 S
C952 C954 1.394 . S
C952 H968 0.931 . S
C953 C952 1.391 1_655 S
C953 C957 1.376 . S
C954 C952 1.394 . S
C954 C955 1.369 1_455 S
C954 C958 1.531 . S
C955 C954 1.369 1_655 S
C955 C956 1.410 . S
C955 C963 1.503 . S
C956 C955 1.410 . S
C956 C957 1.392 . S
C956 C959 1.511 . S
C957 C953 1.376 . S
C957 C956 1.392 . S
C957 H969 0.929 . S
C958 C954 1.531 . S
C958 H970 0.960 . S
C958 H971 0.962 . S
C958 H972 0.960 . S
C959 C956 1.511 . S
C959 H973 0.961 . S
C959 H974 0.961 . S
C959 H975 0.961 . S
C960 C961 1.370 1_455 S
C960 C962 1.363 . S
C960 H976 0.931 . S
C961 C960 1.370 1_655 S
C961 C965 1.408 . S
C962 C960 1.363 . S
C962 C963 1.370 1_455 S
C962 C966 1.524 . S
C963 C955 1.503 . S
C963 C962 1.370 1_655 S
C963 C964 1.403 . S
C964 C963 1.403 . S
C964 C965 1.404 . S
C964 C967 1.539 . S
C965 C961 1.408 . S
C965 C964 1.404 . S
C965 H977 0.930 . S
C966 C962 1.524 . S
C966 H978 0.956 . S
C966 H979 0.961 . S
C966 H980 0.961 . S
C967 C964 1.539 . S
C967 H981 0.958 . S
C967 H982 0.961 . S
C967 H983 0.960 . S
H968 C952 0.931 . S
H969 C957 0.929 . S
H970 C958 0.960 . S
H971 C958 0.962 . S
H972 C958 0.960 . S
H973 C959 0.961 . S
H974 C959 0.961 . S
H975 C959 0.961 . S
H976 C960 0.931 . S
H977 C965 0.930 . S
H978 C966 0.956 . S
H979 C966 0.961 . S
H980 C966 0.961 . S
H981 C967 0.958 . S
H982 C967 0.961 . S
H983 C967 0.960 . S
C984 C985 1.388 . S
C984 C986 1.394 . S
C984 H1000 0.931 . S
C985 C984 1.388 . S
C985 C989 1.379 1_565 S
C986 C984 1.394 . S
C986 C987 1.385 . S
C986 C990 1.531 . S
C987 C986 1.385 . S
C987 C988 1.392 1_565 S
C987 C995 1.507 . S
C988 C987 1.392 1_545 S
C988 C989 1.392 . S
C988 C991 1.511 . S
C989 C985 1.379 1_545 S
C989 C988 1.392 . S
C989 H1001 0.929 . S
C990 C986 1.531 . S
C990 H1002 0.960 . S
C990 H1003 0.962 . S
C990 H1004 0.960 . S
C991 C988 1.511 . S
C991 H1005 0.961 . S
C991 H1006 0.961 . S
C991 H1007 0.961 . S
C992 C993 1.370 . S
C992 C994 1.363 . S
C992 H1008 0.931 . S
C993 C992 1.370 . S
C993 C997 1.408 1_565 S
C994 C992 1.363 . S
C994 C995 1.370 . S
C994 C998 1.524 . S
C995 C987 1.507 . S
C995 C994 1.370 . S
C995 C996 1.403 1_565 S
C996 C995 1.403 1_545 S
C996 C997 1.404 . S
C996 C999 1.539 . S
C997 C993 1.408 1_545 S
C997 C996 1.404 . S
C997 H1009 0.930 . S
C998 C994 1.524 . S
C998 H1010 0.956 . S
C998 H1011 0.961 . S
C998 H1012 0.961 . S
C999 C996 1.539 . S
C999 H1013 0.958 . S
C999 H1014 0.961 . S
C999 H1015 0.960 . S
H1000 C984 0.931 . S
H1001 C989 0.929 . S
H1002 C990 0.960 . S
H1003 C990 0.962 . S
H1004 C990 0.960 . S
H1005 C991 0.961 . S
H1006 C991 0.961 . S
H1007 C991 0.961 . S
H1008 C992 0.931 . S
H1009 C997 0.930 . S
H1010 C998 0.956 . S
H1011 C998 0.961 . S
H1012 C998 0.961 . S
H1013 C999 0.958 . S
H1014 C999 0.961 . S
H1015 C999 0.960 . S
C1016 C1017 1.391 . S
C1016 C1018 1.394 . S
C1016 H1032 0.931 . S
C1017 C1016 1.391 . S
C1017 C1021 1.376 . S
C1018 C1016 1.394 . S
C1018 C1019 1.369 . S
C1018 C1022 1.531 . S
C1019 C1018 1.369 . S
C1019 C1020 1.410 . S
C1019 C1027 1.503 . S
C1020 C1019 1.410 . S
C1020 C1021 1.392 . S
C1020 C1023 1.511 . S
C1021 C1017 1.376 . S
C1021 C1020 1.392 . S
C1021 H1033 0.929 . S
C1022 C1018 1.531 . S
C1022 H1034 0.960 . S
C1022 H1035 0.962 . S
C1022 H1036 0.960 . S
C1023 C1020 1.511 . S
C1023 H1037 0.961 . S
C1023 H1038 0.961 . S
C1023 H1039 0.961 . S
C1024 C1025 1.370 . S
C1024 C1026 1.363 . S
C1024 H1040 0.931 . S
C1025 C1024 1.370 . S
C1025 C1029 1.408 . S
C1026 C1024 1.363 . S
C1026 C1027 1.370 . S
C1026 C1030 1.524 . S
C1027 C1019 1.503 . S
C1027 C1026 1.370 . S
C1027 C1028 1.403 . S
C1028 C1027 1.403 . S
C1028 C1029 1.404 . S
C1028 C1031 1.539 . S
C1029 C1025 1.408 . S
C1029 C1028 1.404 . S
C1029 H1041 0.930 . S
C1030 C1026 1.524 . S
C1030 H1042 0.956 . S
C1030 H1043 0.961 . S
C1030 H1044 0.961 . S
C1031 C1028 1.539 . S
C1031 H1045 0.958 . S
C1031 H1046 0.961 . S
C1031 H1047 0.960 . S
H1032 C1016 0.931 . S
H1033 C1021 0.929 . S
H1034 C1022 0.960 . S
H1035 C1022 0.962 . S
H1036 C1022 0.960 . S
H1037 C1023 0.961 . S
H1038 C1023 0.961 . S
H1039 C1023 0.961 . S
H1040 C1024 0.931 . S
H1041 C1029 0.930 . S
H1042 C1030 0.956 . S
H1043 C1030 0.961 . S
H1044 C1030 0.961 . S
H1045 C1031 0.958 . S
H1046 C1031 0.961 . S
H1047 C1031 0.960 . S
C1048 C1049 1.391 . S
C1048 C1050 1.394 . S
C1048 H1064 0.931 . S
C1049 C1048 1.391 . S
C1049 C1053 1.376 . S
C1050 C1048 1.394 . S
C1050 C1051 1.369 . S
C1050 C1054 1.531 . S
C1051 C1050 1.369 . S
C1051 C1052 1.410 . S
C1051 C1059 1.503 . S
C1052 C1051 1.410 . S
C1052 C1053 1.392 . S
C1052 C1055 1.511 . S
C1053 C1049 1.376 . S
C1053 C1052 1.392 . S
C1053 H1065 0.929 . S
C1054 C1050 1.531 . S
C1054 H1066 0.960 . S
C1054 H1067 0.962 . S
C1054 H1068 0.960 . S
C1055 C1052 1.511 . S
C1055 H1069 0.961 . S
C1055 H1070 0.961 . S
C1055 H1071 0.961 . S
C1056 C1057 1.370 . S
C1056 C1058 1.363 . S
C1056 H1072 0.931 . S
C1057 C1056 1.370 . S
C1057 C1061 1.408 . S
C1058 C1056 1.363 . S
C1058 C1059 1.370 . S
C1058 C1062 1.524 . S
C1059 C1051 1.503 . S
C1059 C1058 1.370 . S
C1059 C1060 1.403 . S
C1060 C1059 1.403 . S
C1060 C1061 1.404 . S
C1060 C1063 1.539 . S
C1061 C1057 1.408 . S
C1061 C1060 1.404 . S
C1061 H1073 0.930 . S
C1062 C1058 1.524 . S
C1062 H1074 0.956 . S
C1062 H1075 0.961 . S
C1062 H1076 0.961 . S
C1063 C1060 1.539 . S
C1063 H1077 0.958 . S
C1063 H1078 0.961 . S
C1063 H1079 0.960 . S
H1064 C1048 0.931 . S
H1065 C1053 0.929 . S
H1066 C1054 0.960 . S
H1067 C1054 0.962 . S
H1068 C1054 0.960 . S
H1069 C1055 0.961 . S
H1070 C1055 0.961 . S
H1071 C1055 0.961 . S
H1072 C1056 0.931 . S
H1073 C1061 0.930 . S
H1074 C1062 0.956 . S
H1075 C1062 0.961 . S
H1076 C1062 0.961 . S
H1077 C1063 0.958 . S
H1078 C1063 0.961 . S
H1079 C1063 0.960 . S
C313 C125 1.909 1_545 S
C321 C161 1.942 1_545 S
C353 C201 1.944 . S
C345 C144 1.885 . S
C385 C241 1.943 . S
C377 C87 1.892 . S
C417 C281 1.937 1_455 S
C409 C106 1.883 . S
C449 C170 1.940 1_565 S
C441 C49 1.902 . S
C473 C68 1.878 . S
C481 C210 1.949 . S
C505 C11 1.894 . S
C513 C250 1.949 . S
C537 C30 1.903 1_455 S
C545 C290 1.938 1_655 S
C577 C167 0.555 . S
C569 C97 0.568 1_655 S
C609 C207 0.557 . S
C601 C116 0.578 1_565 S
C641 C247 0.547 . S
C633 C135 0.480 . S
C665 C78 0.506 . S
C673 C287 0.553 . S
C697 C21 0.658 . S
C705 C158 0.518 . S
C737 C198 0.560 . S
C729 C40 0.494 1_545 S
C769 C238 0.509 . S
C761 C59 0.619 . S
C793 C2 0.496 . S
C801 C278 0.563 . S
C825 C101 2.015 1_455 S
C833 C171 2.270 . S
C857 C120 2.082 1_545 S
C865 C211 2.267 . S
C897 C251 2.260 . S
C889 C139 2.014 . S
C929 C291 2.278 . S
C921 C82 2.049 . S
C953 C25 2.032 . S
C961 C162 2.288 . S
C993 C202 2.262 . S
C985 C44 2.069 . S
C1025 C242 2.269 . S
C1017 C63 2.007 . S
C1049 C6 2.063 . S
C1057 C282 2.282 . S
