# Generated by pormake.
# Topology pyr, (3,6)-cn, num edge types: 1
# Building blocks:
#     Node 0, Type 0, BuildingBlock: KAKCAD_clean_linker_0, # of connection points: 3
#     Node 1, Type 0, BuildingBlock: KAKCAD_clean_linker_0, # of connection points: 3
#     Node 2, Type 0, BuildingBlock: KAKCAD_clean_linker_0, # of connection points: 3
#     Node 3, Type 0, BuildingBlock: KAKCAD_clean_linker_0, # of connection points: 3
#     Node 4, Type 0, BuildingBlock: KAKCAD_clean_linker_0, # of connection points: 3
#     Node 5, Type 0, BuildingBlock: KAKCAD_clean_linker_0, # of connection points: 3
#     Node 6, Type 0, BuildingBlock: KAKCAD_clean_linker_0, # of connection points: 3
#     Node 7, Type 0, BuildingBlock: KAKCAD_clean_linker_0, # of connection points: 3
#     Node 8, Type 1, BuildingBlock: MIDCAF_clean_sbu_0, # of connection points: 6
#     Node 9, Type 1, BuildingBlock: MIDCAF_clean_sbu_0, # of connection points: 6
#     Node 10, Type 1, BuildingBlock: MIDCAF_clean_sbu_0, # of connection points: 6
#     Node 11, Type 1, BuildingBlock: MIDCAF_clean_sbu_0, # of connection points: 6
#     Edge 12, Type (0, 1), BuildingBlock: OJICUG_clean_linker_0, # of connection points: 2
#     Edge 13, Type (0, 1), BuildingBlock: OJICUG_clean_linker_0, # of connection points: 2
#     Edge 14, Type (0, 1), BuildingBlock: OJICUG_clean_linker_0, # of connection points: 2
#     Edge 15, Type (0, 1), BuildingBlock: OJICUG_clean_linker_0, # of connection points: 2
#     Edge 16, Type (0, 1), BuildingBlock: OJICUG_clean_linker_0, # of connection points: 2
#     Edge 17, Type (0, 1), BuildingBlock: OJICUG_clean_linker_0, # of connection points: 2
#     Edge 18, Type (0, 1), BuildingBlock: OJICUG_clean_linker_0, # of connection points: 2
#     Edge 19, Type (0, 1), BuildingBlock: OJICUG_clean_linker_0, # of connection points: 2
#     Edge 20, Type (0, 1), BuildingBlock: OJICUG_clean_linker_0, # of connection points: 2
#     Edge 21, Type (0, 1), BuildingBlock: OJICUG_clean_linker_0, # of connection points: 2
#     Edge 22, Type (0, 1), BuildingBlock: OJICUG_clean_linker_0, # of connection points: 2
#     Edge 23, Type (0, 1), BuildingBlock: OJICUG_clean_linker_0, # of connection points: 2
#     Edge 24, Type (0, 1), BuildingBlock: OJICUG_clean_linker_0, # of connection points: 2
#     Edge 25, Type (0, 1), BuildingBlock: OJICUG_clean_linker_0, # of connection points: 2
#     Edge 26, Type (0, 1), BuildingBlock: OJICUG_clean_linker_0, # of connection points: 2
#     Edge 27, Type (0, 1), BuildingBlock: OJICUG_clean_linker_0, # of connection points: 2
#     Edge 28, Type (0, 1), BuildingBlock: OJICUG_clean_linker_0, # of connection points: 2
#     Edge 29, Type (0, 1), BuildingBlock: OJICUG_clean_linker_0, # of connection points: 2
#     Edge 30, Type (0, 1), BuildingBlock: OJICUG_clean_linker_0, # of connection points: 2
#     Edge 31, Type (0, 1), BuildingBlock: OJICUG_clean_linker_0, # of connection points: 2
#     Edge 32, Type (0, 1), BuildingBlock: OJICUG_clean_linker_0, # of connection points: 2
#     Edge 33, Type (0, 1), BuildingBlock: OJICUG_clean_linker_0, # of connection points: 2
#     Edge 34, Type (0, 1), BuildingBlock: OJICUG_clean_linker_0, # of connection points: 2
#     Edge 35, Type (0, 1), BuildingBlock: OJICUG_clean_linker_0, # of connection points: 2
# Relax obj value: 0.019
# Max RMSD: 0.063
# Mean RMSD: 0.024
data_MOF--net-pry--node1-MIDCAF_clean_sbu_0--node2-KAKCAD_clean_linker_0--edge1-OJICUG_clean_linker_0
_symmetry_space_group_name_H-M    P1
_symmetry_Int_Tables_number       1
_symmetry_cell_setting            triclinic
loop_
_symmetry_equiv_pos_as_xyz
'x, y, z'
_cell_length_a     34.145311
_cell_length_b     34.180312
_cell_length_c     34.10767
_cell_angle_alpha  90.217471
_cell_angle_beta   89.868132
_cell_angle_gamma 90.352225
loop_
_atom_site_label
_atom_site_type_symbol
_atom_site_fract_x
_atom_site_fract_y
_atom_site_fract_z
_atom_type_partial_charge
C0 C 0.15543 0.18541 0.34497 0.0
C1 C 0.1785 0.16721 0.37361 0.0
C2 C 0.1727 0.20811 0.31566 0.0
C3 C 0.21357 0.21326 0.31407 0.0
C4 C 0.23672 0.19575 0.34308 0.0
C5 C 0.21937 0.17306 0.3726 0.0
C6 C 0.23156 0.23548 0.28112 0.0
C7 C 0.21362 0.26966 0.2675 0.0
C8 C 0.22639 0.28808 0.23297 0.0
C9 C 0.25917 0.27302 0.21316 0.0
C10 C 0.27809 0.23903 0.22654 0.0
C11 C 0.26414 0.22064 0.26076 0.0
C12 C 0.3099 0.22076 0.20278 0.0
C13 C 0.30719 0.21981 0.16167 0.0
C14 C 0.34235 0.20296 0.22069 0.0
C15 C 0.37128 0.18466 0.19795 0.0
C16 C 0.36849 0.18404 0.15684 0.0
C17 C 0.20291 0.32037 0.21572 0.0
C18 C 0.16179 0.31829 0.21685 0.0
C19 C 0.22078 0.35241 0.19676 0.0
C20 C 0.19792 0.38157 0.17937 0.0
C21 C 0.15679 0.37936 0.18085 0.0
C22 C 0.13912 0.34736 0.19981 0.0
C23 C 0.33607 0.20183 0.13907 0.0
H24 H 0.12403 0.18088 0.34414 0.0
H25 H 0.15403 0.2205 0.29334 0.0
H26 H 0.26824 0.19946 0.34284 0.0
H27 H 0.238 0.15981 0.39442 0.0
H28 H 0.18883 0.28145 0.28343 0.0
H29 H 0.27709 0.19339 0.27019 0.0
H30 H 0.26904 0.2869 0.18638 0.0
H31 H 0.28216 0.23212 0.1468 0.0
H32 H 0.34549 0.20331 0.25228 0.0
H33 H 0.39596 0.17129 0.2125 0.0
H34 H 0.14689 0.29356 0.23005 0.0
H35 H 0.25237 0.35502 0.19548 0.0
H36 H 0.33244 0.20102 0.10753 0.0
H37 H 0.10755 0.34413 0.20056 0.0
H38 H 0.21237 0.4059 0.16498 0.0
C39 C 0.31721 0.87707 0.86707 0.0
C40 C 0.35649 0.86999 0.87748 0.0
C41 C 0.29824 0.85414 0.8387 0.0
C42 C 0.31828 0.82433 0.81842 0.0
C43 C 0.35714 0.81651 0.8298 0.0
C44 C 0.37545 0.83821 0.85939 0.0
C45 C 0.29995 0.80325 0.78415 0.0
C46 C 0.27064 0.82112 0.76133 0.0
C47 C 0.25621 0.80317 0.72704 0.0
C48 C 0.27251 0.76755 0.71454 0.0
C49 C 0.30229 0.74956 0.73611 0.0
C50 C 0.31407 0.7665 0.77186 0.0
C51 C 0.3246 0.71611 0.71909 0.0
C52 C 0.30621 0.68671 0.69648 0.0
C53 C 0.36558 0.71537 0.72285 0.0
C54 C 0.38762 0.68659 0.70425 0.0
C55 C 0.3695 0.65763 0.6811 0.0
C56 C 0.22604 0.82295 0.70275 0.0
C57 C 0.19381 0.84174 0.72024 0.0
C58 C 0.22943 0.82326 0.66168 0.0
C59 C 0.20113 0.84132 0.63866 0.0
C60 C 0.16869 0.85975 0.65602 0.0
C61 C 0.16546 0.86005 0.69711 0.0
C62 C 0.32847 0.65783 0.67755 0.0
H63 H 0.30108 0.90119 0.87961 0.0
H64 H 0.26798 0.86066 0.83228 0.0
H65 H 0.3745 0.79452 0.81516 0.0
H66 H 0.40503 0.83029 0.86718 0.0
H67 H 0.26017 0.84999 0.76882 0.0
H68 H 0.33529 0.75115 0.78943 0.0
H69 H 0.2629 0.75451 0.68719 0.0
H70 H 0.27469 0.68621 0.69312 0.0
H71 H 0.38102 0.73804 0.73895 0.0
H72 H 0.41921 0.68802 0.70684 0.0
H73 H 0.19021 0.84184 0.7518 0.0
H74 H 0.25434 0.81003 0.64721 0.0
H75 H 0.31365 0.63581 0.66003 0.0
H76 H 0.14076 0.87394 0.71133 0.0
H77 H 0.20507 0.84143 0.60714 0.0
C78 C 0.84475 0.38064 0.855 0.0
C79 C 0.87305 0.35797 0.8741 0.0
C80 C 0.81592 0.36298 0.83195 0.0
C81 C 0.81449 0.3221 0.82723 0.0
C82 C 0.84306 0.2993 0.84581 0.0
C83 C 0.8721 0.31706 0.86893 0.0
C84 C 0.78206 0.30385 0.80433 0.0
C85 C 0.76899 0.32187 0.76988 0.0
C86 C 0.73425 0.30974 0.75141 0.0
C87 C 0.71402 0.27706 0.76624 0.0
C88 C 0.72693 0.2579 0.80035 0.0
C89 C 0.7612 0.27144 0.81906 0.0
C90 C 0.70235 0.22661 0.81864 0.0
C91 C 0.66132 0.23003 0.81915 0.0
C92 C 0.71937 0.19394 0.83683 0.0
C93 C 0.69585 0.16546 0.85501 0.0
C94 C 0.65484 0.16894 0.85512 0.0
C95 C 0.71638 0.33461 0.7205 0.0
C96 C 0.7173 0.37554 0.72477 0.0
C97 C 0.69597 0.31831 0.68845 0.0
C98 C 0.67594 0.34245 0.66209 0.0
C99 C 0.67575 0.38323 0.66758 0.0
C100 C 0.69746 0.39945 0.69862 0.0
C101 C 0.63795 0.20158 0.83698 0.0
H102 H 0.84383 0.41206 0.85905 0.0
H103 H 0.79385 0.38142 0.81887 0.0
H104 H 0.84288 0.26777 0.84255 0.0
H105 H 0.89363 0.29872 0.88299 0.0
H106 H 0.78516 0.34663 0.75825 0.0
H107 H 0.77017 0.25846 0.84652 0.0
H108 H 0.68706 0.26771 0.75229 0.0
H109 H 0.64711 0.25527 0.80659 0.0
H110 H 0.75084 0.19027 0.83685 0.0
H111 H 0.70971 0.14058 0.86868 0.0
H112 H 0.73206 0.38928 0.74934 0.0
H113 H 0.69492 0.28691 0.68414 0.0
H114 H 0.60652 0.20571 0.83738 0.0
H115 H 0.69837 0.43081 0.7033 0.0
H116 H 0.65944 0.32918 0.63838 0.0
C117 C 0.81399 0.67263 0.16031 0.0
C118 C 0.8549 0.66775 0.15907 0.0
C119 C 0.7966 0.69559 0.18961 0.0
C120 C 0.81977 0.71432 0.21815 0.0
C121 C 0.86068 0.71019 0.21625 0.0
C122 C 0.87799 0.68725 0.18716 0.0
C123 C 0.80178 0.73655 0.25112 0.0
C124 C 0.7696 0.72112 0.27187 0.0
C125 C 0.75598 0.73942 0.3063 0.0
C126 C 0.77474 0.77385 0.31951 0.0
C127 C 0.80709 0.78951 0.29932 0.0
C128 C 0.81954 0.77124 0.26454 0.0
C129 C 0.83067 0.82205 0.3167 0.0
C130 C 0.81293 0.85343 0.33674 0.0
C131 C 0.87179 0.8206 0.31507 0.0
C132 C 0.89455 0.8495 0.33293 0.0
C133 C 0.87699 0.88066 0.35322 0.0
C134 C 0.72483 0.72062 0.33058 0.0
C135 C 0.69195 0.70251 0.31326 0.0
C136 C 0.72851 0.71971 0.3716 0.0
C137 C 0.70003 0.70164 0.39474 0.0
C138 C 0.66707 0.68372 0.37759 0.0
C139 C 0.6634 0.68414 0.33654 0.0
C140 C 0.83589 0.88238 0.35497 0.0
H141 H 0.79534 0.65834 0.13891 0.0
H142 H 0.76503 0.69848 0.19009 0.0
H143 H 0.8794 0.72351 0.23822 0.0
H144 H 0.90945 0.68351 0.18779 0.0
H145 H 0.75678 0.69352 0.26262 0.0
H146 H 0.84404 0.78346 0.24835 0.0
H147 H 0.76514 0.78756 0.34652 0.0
H148 H 0.78134 0.85558 0.3384 0.0
H149 H 0.88662 0.79637 0.30102 0.0
H150 H 0.92612 0.84669 0.33187 0.0
H151 H 0.68814 0.70279 0.28175 0.0
H152 H 0.75393 0.73225 0.38597 0.0
H153 H 0.82154 0.90611 0.37035 0.0
H154 H 0.63829 0.67063 0.3225 0.0
H155 H 0.70431 0.70097 0.42619 0.0
C156 C 0.97177 0.89321 0.7617 0.0
C157 C 0.97851 0.93316 0.75421 0.0
C158 C 0.94899 0.88148 0.79383 0.0
C159 C 0.9327 0.9094 0.81946 0.0
C160 C 0.94111 0.94914 0.81307 0.0
C161 C 0.96335 0.96086 0.7808 0.0
C162 C 0.90573 0.8975 0.85178 0.0
C163 C 0.91221 0.86301 0.87311 0.0
C164 C 0.88664 0.85182 0.90342 0.0
C165 C 0.85412 0.87506 0.91229 0.0
C166 C 0.84696 0.90933 0.89103 0.0
C167 C 0.87287 0.9205 0.86109 0.0
C168 C 0.81196 0.9331 0.89975 0.0
C169 C 0.77463 0.91579 0.89891 0.0
C170 C 0.8157 0.9728 0.91 0.0
C171 C 0.7827 0.99434 0.92107 0.0
C172 C 0.74542 0.97672 0.92106 0.0
C173 C 0.89425 0.81584 0.9259 0.0
C174 C 0.89571 0.77958 0.90661 0.0
C175 C 0.90201 0.81779 0.96628 0.0
C176 C 0.91299 0.78416 0.98668 0.0
C177 C 0.91537 0.74799 0.96714 0.0
C178 C 0.90579 0.74585 0.92715 0.0
C179 C 0.74161 0.93749 0.90913 0.0
H180 H 0.98333 0.87095 0.74228 0.0
H181 H 0.94305 0.85058 0.7977 0.0
H182 H 0.92985 0.97145 0.83262 0.0
H183 H 0.9671 0.99193 0.77597 0.0
H184 H 0.93764 0.8452 0.86685 0.0
H185 H 0.86658 0.94656 0.84429 0.0
H186 H 0.83431 0.86637 0.93562 0.0
H187 H 0.77108 0.88528 0.89085 0.0
H188 H 0.8443 0.98669 0.91083 0.0
H189 H 0.78636 0.02446 0.93043 0.0
H190 H 0.88976 0.77751 0.87547 0.0
H191 H 0.90112 0.84559 0.98162 0.0
H192 H 0.71329 0.92304 0.90948 0.0
H193 H 0.90803 0.71841 0.91131 0.0
H194 H 0.92056 0.78651 0.01743 0.0
C195 C 0.57227 0.07475 0.2819 0.0
C196 C 0.55649 0.10259 0.25609 0.0
C197 C 0.59377 0.0864 0.3147 0.0
C198 C 0.60084 0.12622 0.32237 0.0
C199 C 0.58404 0.15417 0.29735 0.0
C200 C 0.56192 0.1425 0.26482 0.0
C201 C 0.62686 0.13841 0.35533 0.0
C202 C 0.66009 0.1162 0.36497 0.0
C203 C 0.68557 0.12844 0.39487 0.0
C204 C 0.67765 0.16301 0.41567 0.0
C205 C 0.64473 0.18543 0.40651 0.0
C206 C 0.61944 0.17296 0.37651 0.0
C207 C 0.63705 0.22258 0.42737 0.0
C208 C 0.63321 0.2236 0.46838 0.0
C209 C 0.63208 0.25711 0.40592 0.0
C210 C 0.62252 0.29193 0.42498 0.0
C211 C 0.61718 0.29282 0.46584 0.0
C212 C 0.72127 0.10587 0.40361 0.0
C213 C 0.71872 0.0664 0.4147 0.0
C214 C 0.7581 0.12423 0.40207 0.0
C215 C 0.79177 0.1038 0.41245 0.0
C216 C 0.78915 0.06485 0.42525 0.0
C217 C 0.75238 0.04616 0.42593 0.0
C218 C 0.62288 0.25841 0.48746 0.0
H219 H 0.56952 0.04371 0.27608 0.0
H220 H 0.60545 0.06401 0.33368 0.0
H221 H 0.58902 0.18514 0.30203 0.0
H222 H 0.54983 0.16486 0.24608 0.0
H223 H 0.66716 0.0901 0.34833 0.0
H224 H 0.59369 0.19014 0.37006 0.0
H225 H 0.69741 0.17274 0.43863 0.0
H226 H 0.63686 0.19721 0.48545 0.0
H227 H 0.6351 0.257 0.37429 0.0
H228 H 0.61772 0.31787 0.40751 0.0
H229 H 0.69053 0.05173 0.41607 0.0
H230 H 0.76072 0.15458 0.39335 0.0
H231 H 0.61878 0.25836 0.51897 0.0
H232 H 0.74964 0.01622 0.43592 0.0
H233 H 0.81967 0.11907 0.41224 0.0
C234 C 0.24026 0.60959 0.12996 0.0
C235 C 0.24329 0.57033 0.11802 0.0
C236 C 0.27368 0.63093 0.14027 0.0
C237 C 0.31059 0.61319 0.13956 0.0
C238 C 0.31355 0.57345 0.12952 0.0
C239 C 0.28015 0.55226 0.11833 0.0
C240 C 0.34603 0.63683 0.14743 0.0
C241 C 0.36995 0.62838 0.17962 0.0
C242 C 0.40299 0.65167 0.18779 0.0
C243 C 0.41214 0.68335 0.16335 0.0
C244 C 0.38833 0.69198 0.13105 0.0
C245 C 0.3554 0.66862 0.12313 0.0
C246 C 0.39727 0.72629 0.10648 0.0
C247 C 0.39532 0.76394 0.12275 0.0
C248 C 0.40924 0.72161 0.06736 0.0
C249 C 0.42097 0.75416 0.04535 0.0
C250 C 0.41993 0.79184 0.06196 0.0
C251 C 0.42724 0.64337 0.22253 0.0
C252 C 0.41018 0.64355 0.25996 0.0
C253 C 0.46696 0.63374 0.2184 0.0
C254 C 0.48879 0.62249 0.25114 0.0
C255 C 0.47141 0.62172 0.28852 0.0
C256 C 0.43218 0.63318 0.29272 0.0
C257 C 0.4062 0.79648 0.10056 0.0
H258 H 0.21229 0.62437 0.12936 0.0
H259 H 0.27085 0.66155 0.14806 0.0
H260 H 0.34185 0.55932 0.12877 0.0
H261 H 0.28319 0.52211 0.10896 0.0
H262 H 0.36261 0.60397 0.19855 0.0
H263 H 0.33683 0.67544 0.09835 0.0
H264 H 0.43744 0.7016 0.16975 0.0
H265 H 0.38605 0.76807 0.15288 0.0
H266 H 0.41092 0.69268 0.05438 0.0
H267 H 0.43171 0.74986 0.01575 0.0
H268 H 0.37962 0.65106 0.26374 0.0
H269 H 0.4806 0.63343 0.18969 0.0
H270 H 0.40575 0.82512 0.11428 0.0
H271 H 0.41791 0.63221 0.32111 0.0
H272 H 0.51891 0.6135 0.24718 0.0
C273 C 0.13072 0.2471 0.60263 0.0
C274 C 0.11781 0.25038 0.56371 0.0
C275 C 0.14072 0.28044 0.62417 0.0
C276 C 0.13868 0.31752 0.60695 0.0
C277 C 0.12768 0.32083 0.56748 0.0
C278 C 0.11683 0.28747 0.5461 0.0
C279 C 0.14646 0.35268 0.63088 0.0
C280 C 0.17805 0.37741 0.62186 0.0
C281 C 0.18667 0.40969 0.6459 0.0
C282 C 0.1634 0.4174 0.67887 0.0
C283 C 0.13153 0.39288 0.68796 0.0
C284 C 0.12311 0.36063 0.66384 0.0
C285 C 0.10783 0.40041 0.72335 0.0
C286 C 0.1257 0.40076 0.7603 0.0
C287 C 0.06773 0.40867 0.7203 0.0
C288 C 0.04623 0.41914 0.75367 0.0
C289 C 0.0644 0.42048 0.79057 0.0
C290 C 0.22119 0.43414 0.63727 0.0
C291 C 0.25873 0.4193 0.64386 0.0
C292 C 0.21693 0.471 0.61996 0.0
C293 C 0.25 0.49194 0.60747 0.0
C294 C 0.28768 0.47643 0.61268 0.0
C295 C 0.29174 0.4404 0.63195 0.0
C296 C 0.10407 0.41035 0.7937 0.0
H297 H 0.1311 0.21893 0.61709 0.0
H298 H 0.14932 0.27737 0.65456 0.0
H299 H 0.12597 0.3493 0.55375 0.0
H300 H 0.10669 0.29068 0.51622 0.0
H301 H 0.19641 0.37109 0.59665 0.0
H302 H 0.09879 0.34139 0.67106 0.0
H303 H 0.17031 0.44219 0.69762 0.0
H304 H 0.15658 0.39427 0.76321 0.0
H305 H 0.05348 0.40853 0.69195 0.0
H306 H 0.01575 0.42715 0.75058 0.0
H307 H 0.26243 0.39081 0.65715 0.0
H308 H 0.18805 0.48278 0.61465 0.0
H309 H 0.1189 0.4118 0.82172 0.0
H310 H 0.32034 0.42742 0.63577 0.0
H311 H 0.24611 0.5196 0.59262 0.0
Zn312 Zn 0.9796 0.06132 0.56119 0.0
Zn313 Zn 0.06783 0.97314 0.46885 0.0
Zn314 Zn 0.02347 0.01767 0.5156 0.0
C315 C 0.09703 0.04945 0.46323 0.0
C316 C 0.99082 0.96811 0.441 0.0
O317 O 0.02557 0.99358 0.57594 0.0
O318 O 0.9936 0.03718 0.61173 0.0
C319 C 0.03496 0.11092 0.52869 0.0
O320 O 0.06829 0.05562 0.48704 0.0
O321 O 0.10433 0.01516 0.45151 0.0
O322 O 0.02505 0.95685 0.4328 0.0
O323 O 0.98482 0.99062 0.4708 0.0
O324 O 0.00361 0.1124 0.54827 0.0
O325 O 0.04728 0.07803 0.51494 0.0
O326 O 0.96233 0.01693 0.49319 0.0
O327 O 0.928 0.04857 0.53822 0.0
C328 C 0.92936 0.02983 0.50631 0.0
O329 O 0.05197 0.97244 0.55229 0.0
O330 O 0.08541 0.93633 0.51007 0.0
C331 C 0.01294 0.00594 0.60939 0.0
C332 C 0.07493 0.9435 0.54489 0.0
Zn333 Zn 0.46503 0.0669 0.96871 0.0
Zn334 Zn 0.5578 0.98001 0.05785 0.0
Zn335 Zn 0.51305 0.02449 0.01479 0.0
C336 C 0.60689 0.0145 0.00342 0.0
C337 C 0.5038 0.92999 0.02505 0.0
O338 O 0.4845 0.06897 0.0528 0.0
O339 O 0.4484 0.10301 0.01143 0.0
C340 C 0.54255 0.07568 0.94036 0.0
O341 O 0.57362 0.02709 0.99106 0.0
O342 O 0.60879 0.99506 0.03472 0.0
O343 O 0.53562 0.92826 0.04367 0.0
O344 O 0.49087 0.96326 0.01316 0.0
O345 O 0.50756 0.08448 0.93237 0.0
O346 O 0.55005 0.05364 0.96998 0.0
O347 O 0.46905 0.98578 0.98669 0.0
O348 O 0.4291 0.02341 0.95257 0.0
C349 C 0.43901 0.98992 0.9643 0.0
O350 O 0.51088 0.0472 0.07567 0.0
O351 O 0.54314 0.00249 0.10928 0.0
C352 C 0.46046 0.09706 0.04588 0.0
C353 C 0.52357 0.03366 0.10846 0.0
Zn354 Zn 0.56122 0.57176 0.5657 0.0
Zn355 Zn 0.47867 0.47861 0.47241 0.0
Zn356 Zn 0.5212 0.52457 0.51854 0.0
C357 C 0.53645 0.4319 0.5043 0.0
C358 C 0.51004 0.53702 0.42501 0.0
O359 O 0.48056 0.55065 0.56281 0.0
O360 O 0.51737 0.59107 0.59796 0.0
C361 C 0.58947 0.49548 0.57662 0.0
O362 O 0.54714 0.46513 0.51893 0.0
O363 O 0.5056 0.42903 0.48421 0.0
O364 O 0.49119 0.50523 0.42246 0.0
O365 O 0.52305 0.54901 0.45845 0.0
O366 O 0.59289 0.52994 0.58968 0.0
O367 O 0.56557 0.48785 0.54837 0.0
O368 O 0.54979 0.57018 0.48191 0.0
O369 O 0.58371 0.60588 0.52426 0.0
C370 C 0.57355 0.59871 0.48936 0.0
O371 O 0.45988 0.52333 0.54017 0.0
O372 O 0.42689 0.48826 0.49652 0.0
C373 C 0.48436 0.57598 0.59071 0.0
C374 C 0.42748 0.50829 0.52766 0.0
Zn375 Zn 0.05656 0.56209 0.9767 0.0
Zn376 Zn 0.96652 0.47265 0.06772 0.0
Zn377 Zn 0.0118 0.51779 0.02139 0.0
C378 C 0.04341 0.46869 0.09633 0.0
C379 C 0.96101 0.44243 0.99135 0.0
O380 O 0.9871 0.57777 0.02022 0.0
O381 O 0.03083 0.61264 0.98715 0.0
C382 C 0.1053 0.53277 0.03372 0.0
O383 O 0.04962 0.49166 0.06704 0.0
O384 O 0.00915 0.4567 0.10387 0.0
O385 O 0.94931 0.43568 0.02585 0.0
O386 O 0.98444 0.47139 0.98455 0.0
O387 O 0.10733 0.55173 0.00212 0.0
O388 O 0.07221 0.51871 0.04559 0.0
O389 O 0.01189 0.49247 0.96156 0.0
O390 O 0.0453 0.53564 0.92641 0.0
C391 C 0.02606 0.50409 0.9285 0.0
O392 O 0.96628 0.5554 0.04841 0.0
O393 O 0.9304 0.51505 0.08445 0.0
C394 C 0.99898 0.61064 0.00587 0.0
C395 C 0.93747 0.5492 0.07215 0.0
C396 C 0.12254 0.14718 0.41772 0.0
C397 C 0.16002 0.13977 0.40214 0.0
H398 H 0.07286 0.12414 0.44855 0.0
C399 C 0.17808 0.10401 0.41092 0.0
H400 H 0.10792 0.17459 0.41196 0.0
C401 C 0.1583 0.07558 0.43278 0.0
C402 C 0.12005 0.08219 0.44646 0.0
H403 H 0.20666 0.09701 0.39912 0.0
H404 H 0.17242 0.04771 0.43765 0.0
C405 C 0.10266 0.11857 0.43938 0.0
C406 C 0.35844 0.92117 0.9318 0.0
C407 C 0.37836 0.89719 0.90457 0.0
H408 H 0.36201 0.96997 0.97163 0.0
C409 C 0.41944 0.90165 0.90146 0.0
H410 H 0.32726 0.91816 0.93657 0.0
C411 C 0.43942 0.92996 0.92342 0.0
C412 C 0.41884 0.95545 0.94799 0.0
H413 H 0.43638 0.88488 0.88062 0.0
H414 H 0.4707 0.9336 0.9192 0.0
C415 C 0.37835 0.95057 0.95255 0.0
C416 C 0.65114 0.40682 0.6019 0.0
C417 C 0.65121 0.40924 0.64312 0.0
H418 H 0.63239 0.43341 0.54809 0.0
C419 C 0.62881 0.43833 0.66154 0.0
H420 H 0.66836 0.38481 0.58694 0.0
C421 C 0.60826 0.46546 0.63947 0.0
C422 C 0.60919 0.46406 0.59838 0.0
H423 H 0.62756 0.44049 0.69322 0.0
H424 H 0.59183 0.48794 0.65467 0.0
C425 C 0.63035 0.43426 0.57965 0.0
C426 C 0.91072 0.64781 0.11495 0.0
C427 C 0.87348 0.63993 0.13102 0.0
H428 H 0.96054 0.62503 0.08452 0.0
C429 C 0.85589 0.6034 0.12336 0.0
H430 H 0.92497 0.6758 0.11985 0.0
C431 C 0.87596 0.57474 0.1022 0.0
C432 C 0.91403 0.58188 0.08812 0.0
H433 H 0.8275 0.59606 0.13558 0.0
H434 H 0.86223 0.54632 0.09823 0.0
C435 C 0.9309 0.61898 0.09398 0.0
C436 C 0.41027 0.18104 0.09649 0.0
C437 C 0.39821 0.16402 0.13199 0.0
H438 H 0.43997 0.17325 0.0418 0.0
C439 C 0.41183 0.1264 0.1414 0.0
H440 H 0.40103 0.21026 0.08873 0.0
C441 C 0.43456 0.10521 0.11446 0.0
C442 C 0.44412 0.12139 0.07784 0.0
H443 H 0.40289 0.1124 0.16844 0.0
H444 H 0.44221 0.07531 0.12119 0.0
C445 C 0.43277 0.15993 0.0697 0.0
C446 C 0.1253 0.91686 0.63983 0.0
C447 C 0.13914 0.87917 0.63083 0.0
H448 H 0.09427 0.96715 0.61932 0.0
C449 C 0.12706 0.86125 0.59569 0.0
H450 H 0.13427 0.93154 0.66656 0.0
C451 C 0.10403 0.88149 0.56892 0.0
C452 C 0.09225 0.92004 0.57672 0.0
H453 H 0.13652 0.83195 0.58827 0.0
H454 H 0.09667 0.86745 0.54135 0.0
C455 C 0.10213 0.93718 0.61291 0.0
C456 C 0.91697 0.41433 0.89341 0.0
C457 C 0.90122 0.37705 0.90159 0.0
H458 H 0.94735 0.46461 0.91566 0.0
C459 C 0.9094 0.35991 0.93804 0.0
H460 H 0.91167 0.42824 0.86546 0.0
C461 C 0.93081 0.38045 0.96639 0.0
C462 C 0.94462 0.41854 0.95896 0.0
H463 H 0.89746 0.3315 0.94559 0.0
H464 H 0.93522 0.36706 0.99477 0.0
C465 C 0.93815 0.43496 0.92191 0.0
C466 C 0.62627 0.68141 0.43858 0.0
C467 C 0.6376 0.66396 0.40299 0.0
H468 H 0.59667 0.67453 0.49343 0.0
C469 C 0.62332 0.62631 0.39385 0.0
H470 H 0.63609 0.71067 0.44613 0.0
C471 C 0.60042 0.60558 0.42103 0.0
C472 C 0.59129 0.62228 0.45761 0.0
H473 H 0.63172 0.61199 0.36675 0.0
H474 H 0.59199 0.57571 0.41437 0.0
C475 C 0.60355 0.66077 0.4656 0.0
C476 C 0.13965 0.42147 0.12296 0.0
C477 C 0.1317 0.40893 0.16143 0.0
H478 H 0.11755 0.45025 0.07183 0.0
C479 C 0.09704 0.42141 0.17979 0.0
H480 H 0.16599 0.41217 0.10794 0.0
C481 C 0.06948 0.44312 0.15919 0.0
C482 C 0.0761 0.45326 0.11989 0.0
H483 H 0.09043 0.41294 0.20967 0.0
H484 H 0.04217 0.45058 0.17356 0.0
C485 C 0.11199 0.44342 0.10231 0.0
C486 C 0.59389 0.12781 0.85738 0.0
C487 C 0.62922 0.13967 0.87496 0.0
H488 H 0.53918 0.09777 0.86412 0.0
C489 C 0.63793 0.1261 0.91284 0.0
H490 H 0.58663 0.13713 0.82797 0.0
C491 C 0.61065 0.10333 0.9336 0.0
C492 C 0.57437 0.09349 0.91671 0.0
H493 H 0.66479 0.13494 0.92729 0.0
H494 H 0.61701 0.09551 0.96362 0.0
C495 C 0.56678 0.10511 0.87803 0.0
C496 C 0.8945 0.92056 0.41294 0.0
C497 C 0.90217 0.90973 0.37383 0.0
H498 H 0.91698 0.94753 0.46526 0.0
C499 C 0.9367 0.92333 0.35585 0.0
H500 H 0.86825 0.91035 0.42767 0.0
C501 C 0.96441 0.94447 0.3773 0.0
C502 C 0.95807 0.95292 0.41709 0.0
H503 H 0.94309 0.91615 0.32555 0.0
H504 H 0.99161 0.95287 0.36312 0.0
C505 C 0.92232 0.94194 0.43445 0.0
C506 C 0.38755 0.62099 0.61934 0.0
C507 C 0.39425 0.62917 0.65929 0.0
H508 H 0.41119 0.59717 0.56588 0.0
C509 C 0.42785 0.61387 0.67718 0.0
H510 H 0.362 0.63244 0.60467 0.0
C511 C 0.45591 0.59424 0.655 0.0
C512 C 0.45071 0.58875 0.61458 0.0
H513 H 0.43344 0.61881 0.70806 0.0
H514 H 0.4826 0.58483 0.66917 0.0
C515 C 0.41565 0.60085 0.59711 0.0
C516 C 0.01835 0.98222 0.71607 0.0
C517 C 0.99755 0.94654 0.71711 0.0
H518 H 0.03958 0.0293 0.68041 0.0
C519 C 0.99042 0.92678 0.68143 0.0
H520 H 0.02578 0.99763 0.74285 0.0
C521 C 1.00001 0.94435 0.64563 0.0
C522 C 0.01613 0.98214 0.64499 0.0
H523 H 0.97448 0.89933 0.6808 0.0
H524 H 0.99126 0.93007 0.61858 0.0
C525 C 0.02686 1.00017 0.68035 0.0
C526 C 0.54446 0.11077 0.18362 0.0
C527 C 0.53808 0.08963 0.21852 0.0
H528 H 0.54331 0.10967 0.1207 0.0
C529 C 0.51843 0.05336 0.21616 0.0
H530 H 0.55954 0.1387 0.18397 0.0
C531 C 0.51024 0.03643 0.17979 0.0
C532 C 0.52016 0.05602 0.14512 0.0
H533 H 0.51157 0.03684 0.24234 0.0
H534 H 0.49836 0.00697 0.17873 0.0
C535 C 0.53518 0.0942 0.1472 0.0
C536 C 0.49166 0.62255 0.35917 0.0
C537 C 0.4918 0.60405 0.32228 0.0
H538 H 0.49904 0.61574 0.42123 0.0
C539 C 0.50565 0.56559 0.31916 0.0
H540 H 0.4812 0.65227 0.36221 0.0
C541 C 0.51519 0.54462 0.3528 0.0
C542 C 0.51182 0.56203 0.39 0.0
H543 H 0.50584 0.55061 0.29111 0.0
H544 H 0.52264 0.51397 0.34997 0.0
C545 C 0.50206 0.60177 0.39282 0.0
C546 C 0.02955 0.47577 0.8224 0.0
C547 C 0.04424 0.43761 0.82491 0.0
H548 H 0.01204 0.527 0.85403 0.0
C549 C 0.04555 0.41911 0.86162 0.0
H550 H 0.02852 0.49073 0.79448 0.0
C551 C 0.03536 0.43966 0.89567 0.0
C552 C 0.02463 0.47914 0.89334 0.0
H553 H 0.05673 0.38964 0.86416 0.0
H554 H 0.03916 0.42579 0.92391 0.0
C555 C 0.02024 0.49652 0.85641 0.0
C556 C 0.71328 0.01117 0.9768 0.0
C557 C 0.71118 0.99697 0.93819 0.0
H558 H 0.68114 0.02831 0.02796 0.0
C559 C 0.67481 0.99645 0.91893 0.0
H560 H 0.74091 0.01166 0.99235 0.0
C561 C 0.64064 0.00678 0.93912 0.0
C562 C 0.64243 0.01689 0.97901 0.0
H563 H 0.67255 0.98574 0.88909 0.0
H564 H 0.61264 0.00338 0.92459 0.0
C565 C 0.67912 0.02066 0.99717 0.0
C566 C 0.86029 0.04702 0.42273 0.0
C567 C 0.82406 0.04604 0.44239 0.0
H568 H 0.92262 0.04112 0.42764 0.0
C569 C 0.82252 0.03254 0.48117 0.0
H570 H 0.86213 0.05723 0.39275 0.0
C571 C 0.857 0.02392 0.50119 0.0
C572 C 0.89348 0.02786 0.4825 0.0
H573 H 0.79501 0.03174 0.49705 0.0
H574 H 0.85534 0.01653 0.53201 0.0
C575 C 0.89479 0.0376 0.44257 0.0
C576 C 0.2114 0.53687 0.06152 0.0
C577 C 0.2089 0.55066 0.10025 0.0
H578 H 0.17985 0.52015 0.00987 0.0
C579 C 0.1722 0.55133 0.11903 0.0
H580 H 0.23929 0.53632 0.04632 0.0
C581 C 0.13821 0.54131 0.09835 0.0
C582 C 0.14052 0.53138 0.05844 0.0
H583 H 0.16964 0.56179 0.14894 0.0
H584 H 0.11001 0.54456 0.11257 0.0
C585 C 0.17743 0.52772 0.04066 0.0
C586 C 0.35838 0.49697 0.61293 0.0
C587 C 0.32223 0.49441 0.59339 0.0
H588 H 0.42055 0.50425 0.60717 0.0
C589 C 0.32061 0.50322 0.55325 0.0
H590 H 0.36034 0.4905 0.64392 0.0
C591 C 0.35493 0.5108 0.5323 0.0
C592 C 0.39138 0.51034 0.55122 0.0
H593 H 0.29322 0.50118 0.53738 0.0
H594 H 0.3532 0.51479 0.50085 0.0
C595 C 0.39274 0.50509 0.59199 0.0
C596 C 0.91431 0.67672 0.9845 0.0
C597 C 0.93275 0.71357 0.98649 0.0
H598 H 0.92085 0.61462 0.99085 0.0
C599 C 0.9708 0.7164 0.00173 0.0
H600 H 0.88493 0.67392 0.97286 0.0
C601 C 0.99146 0.68265 0.01121 0.0
C602 C 0.97407 0.64562 0.00652 0.0
H603 H 0.98571 0.74444 0.0033 0.0
H604 H 0.02184 0.68533 0.02 0.0
C605 C 0.93472 0.64294 0.99495 0.0
C606 C 0.47703 0.82356 0.02928 0.0
C607 C 0.43787 0.8257 0.04165 0.0
H608 H 0.52886 0.8556 0.01388 0.0
C609 C 0.41865 0.86194 0.04059 0.0
H610 H 0.49257 0.79603 0.03002 0.0
C611 C 0.43929 0.896 0.03068 0.0
C612 C 0.47956 0.89427 0.0225 0.0
H613 H 0.38838 0.86423 0.04987 0.0
H614 H 0.42462 0.92393 0.03303 0.0
C615 C 0.49781 0.85763 0.02013 0.0
C616 C 0.06127 0.21747 0.53147 0.0
C617 C 0.10028 0.21582 0.54418 0.0
H618 H 0.00975 0.1848 0.51637 0.0
C619 C 0.11959 0.17962 0.54437 0.0
H620 H 0.04567 0.24498 0.53133 0.0
C621 C 0.09916 0.14521 0.53518 0.0
C622 C 0.05906 0.14664 0.52646 0.0
H623 H 0.14973 0.17773 0.55399 0.0
H624 H 0.11383 0.11736 0.53816 0.0
C625 C 0.0407 0.18309 0.52307 0.0
C626 C 0.61801 0.36548 0.47514 0.0
C627 C 0.60191 0.32877 0.48461 0.0
H628 H 0.60975 0.4276 0.47512 0.0
C629 C 0.56747 0.32705 0.50718 0.0
H630 H 0.64458 0.36754 0.45782 0.0
C631 C 0.54759 0.36138 0.51696 0.0
C632 C 0.56238 0.39786 0.50513 0.0
H633 H 0.55422 0.29913 0.51448 0.0
H634 H 0.51942 0.35931 0.53152 0.0
C635 C 0.59834 0.39978 0.4853 0.0
loop_
_geom_bond_atom_site_label_1
_geom_bond_atom_site_label_2
_geom_bond_distance
_geom_bond_site_symmetry_2
_ccdc_geom_bond_type
C0 C1 1.386 . S
C0 C2 1.397 . S
C0 H24 0.931 . S
C1 C0 1.386 . S
C1 C5 1.397 . S
C2 C0 1.397 . S
C2 C3 1.384 . S
C2 H25 0.930 . S
C3 C2 1.384 . S
C3 C4 1.377 . S
C3 C6 1.481 . S
C4 C3 1.377 . S
C4 C5 1.389 . S
C4 H26 0.929 . S
C5 C1 1.397 . S
C5 C4 1.389 . S
C5 H27 0.931 . S
C6 C3 1.481 . S
C6 C7 1.387 . S
C6 C11 1.390 . S
C7 C6 1.387 . S
C7 C8 1.401 . S
C7 H28 0.930 . S
C8 C7 1.401 . S
C8 C9 1.376 . S
C8 C17 1.511 . S
C9 C8 1.376 . S
C9 C10 1.392 . S
C9 H30 0.931 . S
C10 C9 1.392 . S
C10 C11 1.361 . S
C10 C12 1.500 . S
C11 C6 1.390 . S
C11 C10 1.361 . S
C11 H29 0.931 . S
C12 C10 1.500 . S
C12 C13 1.371 . S
C12 C14 1.365 . S
C13 C12 1.371 . S
C13 C23 1.386 . S
C13 H31 0.931 . S
C14 C12 1.365 . S
C14 C15 1.409 . S
C14 H32 0.929 . S
C15 C14 1.409 . S
C15 C16 1.380 . S
C15 H33 0.930 . S
C16 C15 1.380 . S
C16 C23 1.357 . S
C17 C8 1.511 . S
C17 C18 1.341 . S
C17 C19 1.371 . S
C18 C17 1.341 . S
C18 C22 1.394 . S
C18 H34 0.930 . S
C19 C17 1.371 . S
C19 C20 1.392 . S
C19 H35 0.931 . S
C20 C19 1.392 . S
C20 C21 1.331 . S
C20 H38 0.932 . S
C21 C20 1.331 . S
C21 C22 1.336 . S
C22 C18 1.394 . S
C22 C21 1.336 . S
C22 H37 0.929 . S
C23 C13 1.386 . S
C23 C16 1.357 . S
C23 H36 0.928 . S
H24 C0 0.931 . S
H25 C2 0.930 . S
H26 C4 0.929 . S
H27 C5 0.931 . S
H28 C7 0.930 . S
H29 C11 0.931 . S
H30 C9 0.931 . S
H31 C13 0.931 . S
H32 C14 0.929 . S
H33 C15 0.930 . S
H34 C18 0.930 . S
H35 C19 0.931 . S
H36 C23 0.928 . S
H37 C22 0.929 . S
H38 C20 0.932 . S
C39 C40 1.386 . S
C39 C41 1.397 . S
C39 H63 0.931 . S
C40 C39 1.386 . S
C40 C44 1.397 . S
C41 C39 1.397 . S
C41 C42 1.384 . S
C41 H64 0.930 . S
C42 C41 1.384 . S
C42 C43 1.377 . S
C42 C45 1.481 . S
C43 C42 1.377 . S
C43 C44 1.389 . S
C43 H65 0.929 . S
C44 C40 1.397 . S
C44 C43 1.389 . S
C44 H66 0.931 . S
C45 C42 1.481 . S
C45 C46 1.387 . S
C45 C50 1.390 . S
C46 C45 1.387 . S
C46 C47 1.401 . S
C46 H67 0.930 . S
C47 C46 1.401 . S
C47 C48 1.376 . S
C47 C56 1.511 . S
C48 C47 1.376 . S
C48 C49 1.392 . S
C48 H69 0.931 . S
C49 C48 1.392 . S
C49 C50 1.361 . S
C49 C51 1.500 . S
C50 C45 1.390 . S
C50 C49 1.361 . S
C50 H68 0.931 . S
C51 C49 1.500 . S
C51 C52 1.371 . S
C51 C53 1.365 . S
C52 C51 1.371 . S
C52 C62 1.386 . S
C52 H70 0.931 . S
C53 C51 1.365 . S
C53 C54 1.409 . S
C53 H71 0.929 . S
C54 C53 1.409 . S
C54 C55 1.380 . S
C54 H72 0.930 . S
C55 C54 1.380 . S
C55 C62 1.357 . S
C56 C47 1.511 . S
C56 C57 1.341 . S
C56 C58 1.371 . S
C57 C56 1.341 . S
C57 C61 1.394 . S
C57 H73 0.930 . S
C58 C56 1.371 . S
C58 C59 1.392 . S
C58 H74 0.931 . S
C59 C58 1.392 . S
C59 C60 1.331 . S
C59 H77 0.932 . S
C60 C59 1.331 . S
C60 C61 1.336 . S
C61 C57 1.394 . S
C61 C60 1.336 . S
C61 H76 0.929 . S
C62 C52 1.386 . S
C62 C55 1.357 . S
C62 H75 0.928 . S
H63 C39 0.931 . S
H64 C41 0.930 . S
H65 C43 0.929 . S
H66 C44 0.931 . S
H67 C46 0.930 . S
H68 C50 0.931 . S
H69 C48 0.931 . S
H70 C52 0.931 . S
H71 C53 0.929 . S
H72 C54 0.930 . S
H73 C57 0.930 . S
H74 C58 0.931 . S
H75 C62 0.928 . S
H76 C61 0.929 . S
H77 C59 0.932 . S
C78 C79 1.386 . S
C78 C80 1.397 . S
C78 H102 0.931 . S
C79 C78 1.386 . S
C79 C83 1.397 . S
C80 C78 1.397 . S
C80 C81 1.384 . S
C80 H103 0.930 . S
C81 C80 1.384 . S
C81 C82 1.377 . S
C81 C84 1.481 . S
C82 C81 1.377 . S
C82 C83 1.389 . S
C82 H104 0.929 . S
C83 C79 1.397 . S
C83 C82 1.389 . S
C83 H105 0.931 . S
C84 C81 1.481 . S
C84 C85 1.387 . S
C84 C89 1.390 . S
C85 C84 1.387 . S
C85 C86 1.401 . S
C85 H106 0.930 . S
C86 C85 1.401 . S
C86 C87 1.376 . S
C86 C95 1.511 . S
C87 C86 1.376 . S
C87 C88 1.392 . S
C87 H108 0.931 . S
C88 C87 1.392 . S
C88 C89 1.361 . S
C88 C90 1.500 . S
C89 C84 1.390 . S
C89 C88 1.361 . S
C89 H107 0.931 . S
C90 C88 1.500 . S
C90 C91 1.371 . S
C90 C92 1.365 . S
C91 C90 1.371 . S
C91 C101 1.386 . S
C91 H109 0.931 . S
C92 C90 1.365 . S
C92 C93 1.409 . S
C92 H110 0.929 . S
C93 C92 1.409 . S
C93 C94 1.380 . S
C93 H111 0.930 . S
C94 C93 1.380 . S
C94 C101 1.357 . S
C95 C86 1.511 . S
C95 C96 1.341 . S
C95 C97 1.371 . S
C96 C95 1.341 . S
C96 C100 1.394 . S
C96 H112 0.930 . S
C97 C95 1.371 . S
C97 C98 1.392 . S
C97 H113 0.931 . S
C98 C97 1.392 . S
C98 C99 1.331 . S
C98 H116 0.932 . S
C99 C98 1.331 . S
C99 C100 1.336 . S
C100 C96 1.394 . S
C100 C99 1.336 . S
C100 H115 0.929 . S
C101 C91 1.386 . S
C101 C94 1.357 . S
C101 H114 0.928 . S
H102 C78 0.931 . S
H103 C80 0.930 . S
H104 C82 0.929 . S
H105 C83 0.931 . S
H106 C85 0.930 . S
H107 C89 0.931 . S
H108 C87 0.931 . S
H109 C91 0.931 . S
H110 C92 0.929 . S
H111 C93 0.930 . S
H112 C96 0.930 . S
H113 C97 0.931 . S
H114 C101 0.928 . S
H115 C100 0.929 . S
H116 C98 0.932 . S
C117 C118 1.386 . S
C117 C119 1.397 . S
C117 H141 0.931 . S
C118 C117 1.386 . S
C118 C122 1.397 . S
C119 C117 1.397 . S
C119 C120 1.384 . S
C119 H142 0.930 . S
C120 C119 1.384 . S
C120 C121 1.377 . S
C120 C123 1.481 . S
C121 C120 1.377 . S
C121 C122 1.389 . S
C121 H143 0.929 . S
C122 C118 1.397 . S
C122 C121 1.389 . S
C122 H144 0.931 . S
C123 C120 1.481 . S
C123 C124 1.387 . S
C123 C128 1.390 . S
C124 C123 1.387 . S
C124 C125 1.401 . S
C124 H145 0.930 . S
C125 C124 1.401 . S
C125 C126 1.376 . S
C125 C134 1.511 . S
C126 C125 1.376 . S
C126 C127 1.392 . S
C126 H147 0.931 . S
C127 C126 1.392 . S
C127 C128 1.361 . S
C127 C129 1.500 . S
C128 C123 1.390 . S
C128 C127 1.361 . S
C128 H146 0.931 . S
C129 C127 1.500 . S
C129 C130 1.371 . S
C129 C131 1.365 . S
C130 C129 1.371 . S
C130 C140 1.386 . S
C130 H148 0.931 . S
C131 C129 1.365 . S
C131 C132 1.409 . S
C131 H149 0.929 . S
C132 C131 1.409 . S
C132 C133 1.380 . S
C132 H150 0.930 . S
C133 C132 1.380 . S
C133 C140 1.357 . S
C134 C125 1.511 . S
C134 C135 1.341 . S
C134 C136 1.371 . S
C135 C134 1.341 . S
C135 C139 1.394 . S
C135 H151 0.930 . S
C136 C134 1.371 . S
C136 C137 1.392 . S
C136 H152 0.931 . S
C137 C136 1.392 . S
C137 C138 1.331 . S
C137 H155 0.932 . S
C138 C137 1.331 . S
C138 C139 1.336 . S
C139 C135 1.394 . S
C139 C138 1.336 . S
C139 H154 0.929 . S
C140 C130 1.386 . S
C140 C133 1.357 . S
C140 H153 0.928 . S
H141 C117 0.931 . S
H142 C119 0.930 . S
H143 C121 0.929 . S
H144 C122 0.931 . S
H145 C124 0.930 . S
H146 C128 0.931 . S
H147 C126 0.931 . S
H148 C130 0.931 . S
H149 C131 0.929 . S
H150 C132 0.930 . S
H151 C135 0.930 . S
H152 C136 0.931 . S
H153 C140 0.928 . S
H154 C139 0.929 . S
H155 C137 0.932 . S
C156 C157 1.386 1_565 S
C156 C158 1.397 . S
C156 H180 0.931 . S
C157 C156 1.386 1_545 S
C157 C161 1.397 . S
C158 C156 1.397 . S
C158 C159 1.384 . S
C158 H181 0.930 . S
C159 C158 1.384 . S
C159 C160 1.377 1_565 S
C159 C162 1.481 . S
C160 C159 1.377 1_545 S
C160 C161 1.389 . S
C160 H182 0.929 . S
C161 C157 1.397 . S
C161 C160 1.389 . S
C161 H183 0.931 . S
C162 C159 1.481 . S
C162 C163 1.387 . S
C162 C167 1.390 . S
C163 C162 1.387 . S
C163 C164 1.401 . S
C163 H184 0.930 . S
C164 C163 1.401 . S
C164 C165 1.376 . S
C164 C173 1.511 . S
C165 C164 1.376 . S
C165 C166 1.392 . S
C165 H186 0.931 . S
C166 C165 1.392 . S
C166 C167 1.361 . S
C166 C168 1.500 . S
C167 C162 1.390 . S
C167 C166 1.361 . S
C167 H185 0.931 . S
C168 C166 1.500 . S
C168 C169 1.371 . S
C168 C170 1.365 1_565 S
C169 C168 1.371 . S
C169 C179 1.386 1_556 S
C169 H187 0.931 . S
C170 C168 1.365 1_545 S
C170 C171 1.409 . S
C170 H188 0.929 . S
C171 C170 1.409 . S
C171 C172 1.380 1_546 S
C171 H189 0.930 . S
C172 C171 1.380 1_564 S
C172 C179 1.357 . S
C173 C164 1.511 . S
C173 C174 1.341 . S
C173 C175 1.355 1_556 S
C174 C173 1.341 . S
C174 C178 1.394 1_655 S
C174 H190 0.930 . S
C175 C173 1.355 1_554 S
C175 C176 1.399 . S
C175 H191 0.941 . S
C176 C175 1.399 . S
C176 C177 1.345 1_554 S
C176 H194 0.932 . S
C177 C176 1.345 1_556 S
C177 C178 1.333 1_655 S
C178 C174 1.394 1_455 S
C178 C177 1.333 1_455 S
C178 H193 0.929 . S
C179 C169 1.386 1_554 S
C179 C172 1.357 . S
C179 H192 0.928 . S
H180 C156 0.931 . S
H181 C158 0.930 . S
H182 C160 0.929 . S
H183 C161 0.931 . S
H184 C163 0.930 . S
H185 C167 0.931 . S
H186 C165 0.931 . S
H187 C169 0.931 . S
H188 C170 0.929 . S
H189 C171 0.930 . S
H190 C174 0.930 . S
H191 C175 0.941 . S
H192 C179 0.928 . S
H193 C178 0.929 . S
H194 C176 0.932 . S
C195 C196 1.386 . S
C195 C197 1.397 . S
C195 H219 0.931 1_545 S
C196 C195 1.386 . S
C196 C200 1.397 . S
C197 C195 1.397 . S
C197 C198 1.384 . S
C197 H220 0.930 . S
C198 C197 1.384 . S
C198 C199 1.377 . S
C198 C201 1.481 . S
C199 C198 1.377 . S
C199 C200 1.389 . S
C199 H221 0.929 . S
C200 C196 1.397 . S
C200 C199 1.389 . S
C200 H222 0.931 . S
C201 C198 1.481 . S
C201 C202 1.387 . S
C201 C206 1.390 . S
C202 C201 1.387 . S
C202 C203 1.401 . S
C202 H223 0.930 . S
C203 C202 1.401 . S
C203 C204 1.376 . S
C203 C212 1.511 . S
C204 C203 1.376 . S
C204 C205 1.392 . S
C204 H225 0.931 . S
C205 C204 1.392 . S
C205 C206 1.361 . S
C205 C207 1.500 . S
C206 C201 1.390 . S
C206 C205 1.361 . S
C206 H224 0.931 . S
C207 C205 1.500 . S
C207 C208 1.371 . S
C207 C209 1.365 . S
C208 C207 1.371 . S
C208 C218 1.386 . S
C208 H226 0.931 . S
C209 C207 1.365 . S
C209 C210 1.409 . S
C209 H227 0.929 . S
C210 C209 1.409 . S
C210 C211 1.380 . S
C210 H228 0.930 . S
C211 C210 1.380 . S
C211 C218 1.357 . S
C212 C203 1.511 . S
C212 C213 1.341 . S
C212 C214 1.371 . S
C213 C212 1.341 . S
C213 C217 1.394 . S
C213 H229 0.930 . S
C214 C212 1.371 . S
C214 C215 1.392 . S
C214 H230 0.931 . S
C215 C214 1.392 . S
C215 C216 1.331 . S
C215 H233 0.932 . S
C216 C215 1.331 . S
C216 C217 1.336 . S
C217 C213 1.394 . S
C217 C216 1.336 . S
C217 H232 0.924 1_545 S
C218 C208 1.386 . S
C218 C211 1.357 . S
C218 H231 0.928 . S
H219 C195 0.931 1_565 S
H220 C197 0.930 . S
H221 C199 0.929 . S
H222 C200 0.931 . S
H223 C202 0.930 . S
H224 C206 0.931 . S
H225 C204 0.931 . S
H226 C208 0.931 . S
H227 C209 0.929 . S
H228 C210 0.930 . S
H229 C213 0.930 . S
H230 C214 0.931 . S
H231 C218 0.928 . S
H232 C217 0.924 1_565 S
H233 C215 0.932 . S
C234 C235 1.386 . S
C234 C236 1.397 . S
C234 H258 0.931 . S
C235 C234 1.386 . S
C235 C239 1.397 . S
C236 C234 1.397 . S
C236 C237 1.384 . S
C236 H259 0.930 . S
C237 C236 1.384 . S
C237 C238 1.377 . S
C237 C240 1.481 . S
C238 C237 1.377 . S
C238 C239 1.389 . S
C238 H260 0.929 . S
C239 C235 1.397 . S
C239 C238 1.389 . S
C239 H261 0.931 1_554 S
C240 C237 1.481 . S
C240 C241 1.387 . S
C240 C245 1.390 . S
C241 C240 1.387 . S
C241 C242 1.401 . S
C241 H262 0.930 . S
C242 C241 1.401 . S
C242 C243 1.376 . S
C242 C251 1.511 . S
C243 C242 1.376 . S
C243 C244 1.392 . S
C243 H264 0.931 . S
C244 C243 1.392 . S
C244 C245 1.361 . S
C244 C246 1.500 . S
C245 C240 1.390 . S
C245 C244 1.361 . S
C245 H263 0.931 . S
C246 C244 1.500 . S
C246 C247 1.371 . S
C246 C248 1.365 . S
C247 C246 1.371 . S
C247 C257 1.386 . S
C247 H265 0.931 . S
C248 C246 1.365 . S
C248 C249 1.409 . S
C248 H266 0.929 . S
C249 C248 1.409 . S
C249 C250 1.380 . S
C249 H267 0.930 1_554 S
C250 C249 1.380 . S
C250 C257 1.357 . S
C251 C242 1.511 . S
C251 C252 1.341 . S
C251 C253 1.371 . S
C252 C251 1.341 . S
C252 C256 1.394 . S
C252 H268 0.930 . S
C253 C251 1.371 . S
C253 C254 1.392 . S
C253 H269 0.931 . S
C254 C253 1.392 . S
C254 C255 1.331 . S
C254 H272 0.932 . S
C255 C254 1.331 . S
C255 C256 1.336 . S
C256 C252 1.394 . S
C256 C255 1.336 . S
C256 H271 0.929 . S
C257 C247 1.386 . S
C257 C250 1.357 . S
C257 H270 0.928 . S
H258 C234 0.931 . S
H259 C236 0.930 . S
H260 C238 0.929 . S
H261 C239 0.931 1_556 S
H262 C241 0.930 . S
H263 C245 0.931 . S
H264 C243 0.931 . S
H265 C247 0.931 . S
H266 C248 0.929 . S
H267 C249 0.930 1_556 S
H268 C252 0.930 . S
H269 C253 0.931 . S
H270 C257 0.928 . S
H271 C256 0.929 . S
H272 C254 0.932 . S
C273 C274 1.386 . S
C273 C275 1.397 . S
C273 H297 0.931 . S
C274 C273 1.386 . S
C274 C278 1.397 . S
C275 C273 1.397 . S
C275 C276 1.384 . S
C275 H298 0.930 . S
C276 C275 1.384 . S
C276 C277 1.377 . S
C276 C279 1.481 . S
C277 C276 1.377 . S
C277 C278 1.389 . S
C277 H299 0.929 . S
C278 C274 1.397 . S
C278 C277 1.389 . S
C278 H300 0.931 1_455 S
C279 C276 1.481 . S
C279 C280 1.387 . S
C279 C284 1.390 . S
C280 C279 1.387 . S
C280 C281 1.401 . S
C280 H301 0.930 . S
C281 C280 1.401 . S
C281 C282 1.376 . S
C281 C290 1.511 . S
C282 C281 1.376 . S
C282 C283 1.392 . S
C282 H303 0.931 . S
C283 C282 1.392 . S
C283 C284 1.361 . S
C283 C285 1.500 . S
C284 C279 1.390 . S
C284 C283 1.361 . S
C284 H302 0.931 . S
C285 C283 1.500 . S
C285 C286 1.371 . S
C285 C287 1.365 . S
C286 C285 1.371 . S
C286 C296 1.386 . S
C286 H304 0.931 . S
C287 C285 1.365 . S
C287 C288 1.409 . S
C287 H305 0.929 . S
C288 C287 1.409 . S
C288 C289 1.380 . S
C288 H306 0.930 1_455 S
C289 C288 1.380 . S
C289 C296 1.357 . S
C290 C281 1.511 . S
C290 C291 1.341 . S
C290 C292 1.371 . S
C291 C290 1.341 . S
C291 C295 1.394 . S
C291 H307 0.930 . S
C292 C290 1.371 . S
C292 C293 1.392 . S
C292 H308 0.931 . S
C293 C292 1.392 . S
C293 C294 1.331 . S
C293 H311 0.932 . S
C294 C293 1.331 . S
C294 C295 1.336 . S
C295 C291 1.394 . S
C295 C294 1.336 . S
C295 H310 0.929 . S
C296 C286 1.386 . S
C296 C289 1.357 . S
C296 H309 0.928 . S
H297 C273 0.931 . S
H298 C275 0.930 . S
H299 C277 0.929 . S
H300 C278 0.931 1_655 S
H301 C280 0.930 . S
H302 C284 0.931 . S
H303 C282 0.931 . S
H304 C286 0.931 . S
H305 C287 0.929 . S
H306 C288 0.930 1_655 S
H307 C291 0.930 . S
H308 C292 0.931 . S
H309 C296 0.928 . S
H310 C295 0.929 . S
H311 C293 0.932 . S
Zn312 O318 1.920 . S
Zn312 O324 1.898 . S
Zn312 O327 1.905 . S
Zn313 O321 1.905 1_565 S
Zn313 O322 1.898 . S
Zn313 O330 1.920 . S
Zn314 O317 2.080 1_455 S
Zn314 O320 2.114 . S
Zn314 O323 2.120 1_445 S
Zn314 O325 2.120 . S
Zn314 O326 2.114 1_455 S
Zn314 O329 2.080 . S
C315 O320 1.166 . S
C315 O321 1.182 . S
C316 O322 1.167 1_655 S
C316 O323 1.299 . S
O317 Zn314 2.080 1_655 S
O317 C331 1.305 . S
O318 Zn312 1.920 . S
O318 C331 1.234 . S
C319 O324 1.167 1_455 S
C319 O325 1.299 . S
O320 Zn314 2.114 . S
O320 C315 1.166 . S
O321 Zn313 1.905 1_545 S
O321 C315 1.182 . S
O322 Zn313 1.898 . S
O322 C316 1.167 1_455 S
O323 Zn314 2.120 1_665 S
O323 C316 1.299 . S
O324 Zn312 1.898 . S
O324 C319 1.167 1_655 S
O325 Zn314 2.120 . S
O325 C319 1.299 . S
O326 Zn314 2.114 1_655 S
O326 C328 1.166 . S
O327 Zn312 1.905 . S
O327 C328 1.182 . S
C328 O326 1.166 . S
C328 O327 1.182 . S
O329 Zn314 2.080 . S
O329 C332 1.305 1_545 S
O330 Zn313 1.920 . S
O330 C332 1.234 . S
C331 O317 1.305 . S
C331 O318 1.234 . S
C332 O329 1.305 1_565 S
C332 O330 1.234 . S
Zn333 O339 1.920 1_556 S
Zn333 O345 1.898 . S
Zn333 O348 1.905 . S
Zn334 O342 1.905 . S
Zn334 O343 1.898 . S
Zn334 O351 1.920 . S
Zn335 O338 2.080 . S
Zn335 O341 2.114 1_545 S
Zn335 O344 2.120 1_545 S
Zn335 O346 2.120 . S
Zn335 O347 2.114 1_544 S
Zn335 O350 2.080 . S
C336 O341 1.166 . S
C336 O342 1.182 . S
C337 O343 1.167 . S
C337 O344 1.299 . S
O338 Zn335 2.080 . S
O338 C352 1.305 . S
O339 Zn333 1.920 1_554 S
O339 C352 1.234 . S
C340 O345 1.167 . S
C340 O346 1.299 1_556 S
O341 Zn335 2.114 1_565 S
O341 C336 1.166 . S
O342 Zn334 1.905 . S
O342 C336 1.182 . S
O343 Zn334 1.898 . S
O343 C337 1.167 . S
O344 Zn335 2.120 1_565 S
O344 C337 1.299 . S
O345 Zn333 1.898 . S
O345 C340 1.167 . S
O346 Zn335 2.120 . S
O346 C340 1.299 1_554 S
O347 Zn335 2.114 1_566 S
O347 C349 1.166 . S
O348 Zn333 1.905 . S
O348 C349 1.182 1_545 S
C349 O347 1.166 . S
C349 O348 1.182 1_565 S
O350 Zn335 2.080 . S
O350 C353 1.305 . S
O351 Zn334 1.920 . S
O351 C353 1.234 1_565 S
C352 O338 1.305 . S
C352 O339 1.234 . S
C353 O350 1.305 . S
C353 O351 1.234 1_545 S
Zn354 O360 1.920 . S
Zn354 O366 1.898 . S
Zn354 O369 1.905 . S
Zn355 O363 1.905 . S
Zn355 O364 1.898 . S
Zn355 O372 1.920 . S
Zn356 O359 2.080 . S
Zn356 O362 2.114 . S
Zn356 O365 2.120 . S
Zn356 O367 2.120 . S
Zn356 O368 2.114 . S
Zn356 O371 2.080 . S
C357 O362 1.166 . S
C357 O363 1.182 . S
C358 O364 1.167 . S
C358 O365 1.299 . S
O359 Zn356 2.080 . S
O359 C373 1.305 . S
O360 Zn354 1.920 . S
O360 C373 1.234 . S
C361 O366 1.167 . S
C361 O367 1.299 . S
O362 Zn356 2.114 . S
O362 C357 1.166 . S
O363 Zn355 1.905 . S
O363 C357 1.182 . S
O364 Zn355 1.898 . S
O364 C358 1.167 . S
O365 Zn356 2.120 . S
O365 C358 1.299 . S
O366 Zn354 1.898 . S
O366 C361 1.167 . S
O367 Zn356 2.120 . S
O367 C361 1.299 . S
O368 Zn356 2.114 . S
O368 C370 1.166 . S
O369 Zn354 1.905 . S
O369 C370 1.182 . S
C370 O368 1.166 . S
C370 O369 1.182 . S
O371 Zn356 2.080 . S
O371 C374 1.305 . S
O372 Zn355 1.920 . S
O372 C374 1.234 . S
C373 O359 1.305 . S
C373 O360 1.234 . S
C374 O371 1.305 . S
C374 O372 1.234 . S
Zn375 O381 1.920 . S
Zn375 O387 1.898 . S
Zn375 O390 1.905 . S
Zn376 O384 1.905 1_655 S
Zn376 O385 1.898 . S
Zn376 O393 1.920 . S
Zn377 O380 2.080 1_554 S
Zn377 O383 2.114 . S
Zn377 O386 2.120 1_454 S
Zn377 O388 2.120 . S
Zn377 O389 2.114 1_554 S
Zn377 O392 2.080 . S
C378 O383 1.166 . S
C378 O384 1.182 . S
C379 O385 1.167 1_556 S
C379 O386 1.299 . S
O380 Zn377 2.080 1_556 S
O380 C394 1.305 . S
O381 Zn375 1.920 . S
O381 C394 1.234 . S
C382 O387 1.167 1_554 S
C382 O388 1.299 . S
O383 Zn377 2.114 . S
O383 C378 1.166 . S
O384 Zn376 1.905 1_455 S
O384 C378 1.182 . S
O385 Zn376 1.898 . S
O385 C379 1.167 1_554 S
O386 Zn377 2.120 1_656 S
O386 C379 1.299 . S
O387 Zn375 1.898 . S
O387 C382 1.167 1_556 S
O388 Zn377 2.120 . S
O388 C382 1.299 . S
O389 Zn377 2.114 1_556 S
O389 C391 1.166 . S
O390 Zn375 1.905 . S
O390 C391 1.182 . S
C391 O389 1.166 . S
C391 O390 1.182 . S
O392 Zn377 2.080 . S
O392 C395 1.305 1_455 S
O393 Zn376 1.920 . S
O393 C395 1.234 . S
C394 O380 1.305 . S
C394 O381 1.234 . S
C395 O392 1.305 1_655 S
C395 O393 1.234 . S
C396 C397 1.387 . S
C396 H400 0.950 . S
C396 C405 1.390 . S
C397 C396 1.387 . S
C397 C399 1.387 . S
H398 C405 0.950 . S
C399 C397 1.387 . S
C399 C401 1.390 . S
C399 H403 0.950 . S
H400 C396 0.950 . S
C401 C399 1.390 . S
C401 C402 1.387 . S
C401 H404 0.950 . S
C402 C401 1.387 . S
C402 C405 1.387 . S
H403 C399 0.950 . S
H404 C401 0.950 . S
C405 C396 1.390 . S
C405 H398 0.950 . S
C405 C402 1.387 . S
C406 C407 1.387 . S
C406 H410 0.950 . S
C406 C415 1.390 . S
C407 C406 1.387 . S
C407 C409 1.387 . S
H408 C415 0.950 . S
C409 C407 1.387 . S
C409 C411 1.390 . S
C409 H413 0.950 . S
H410 C406 0.950 . S
C411 C409 1.390 . S
C411 C412 1.387 . S
C411 H414 0.950 1_565 S
C412 C411 1.387 . S
C412 C415 1.387 . S
H413 C409 0.950 . S
H414 C411 0.950 1_545 S
C415 C406 1.390 . S
C415 H408 0.950 . S
C415 C412 1.387 . S
C416 C417 1.387 . S
C416 H420 0.950 . S
C416 C425 1.390 . S
C417 C416 1.387 . S
C417 C419 1.387 . S
H418 C425 0.950 . S
C419 C417 1.387 . S
C419 C421 1.390 . S
C419 H423 0.950 . S
H420 C416 0.950 . S
C421 C419 1.390 . S
C421 C422 1.387 . S
C421 H424 0.950 . S
C422 C421 1.387 . S
C422 C425 1.387 . S
H423 C419 0.950 . S
H424 C421 0.950 . S
C425 C416 1.390 . S
C425 H418 0.950 . S
C425 C422 1.387 . S
C426 C427 1.387 . S
C426 H430 0.950 . S
C426 C435 1.390 . S
C427 C426 1.387 . S
C427 C429 1.387 . S
H428 C435 0.950 1_455 S
C429 C427 1.387 . S
C429 C431 1.390 . S
C429 H433 0.950 . S
H430 C426 0.950 . S
C431 C429 1.390 . S
C431 C432 1.387 . S
C431 H434 0.950 . S
C432 C431 1.387 . S
C432 C435 1.387 . S
H433 C429 0.950 . S
H434 C431 0.950 . S
C435 C426 1.390 . S
C435 H428 0.950 1_655 S
C435 C432 1.387 . S
C436 C437 1.387 . S
C436 H440 0.950 . S
C436 C445 1.390 . S
C437 C436 1.387 . S
C437 C439 1.387 . S
H438 C445 0.950 . S
C439 C437 1.387 . S
C439 C441 1.390 . S
C439 H443 0.950 . S
H440 C436 0.950 . S
C441 C439 1.390 . S
C441 C442 1.387 . S
C441 H444 0.950 . S
C442 C441 1.387 . S
C442 C445 1.387 . S
H443 C439 0.950 . S
H444 C441 0.950 . S
C445 C436 1.390 . S
C445 H438 0.950 . S
C445 C442 1.387 . S
C446 C447 1.387 . S
C446 H450 0.950 . S
C446 C455 1.390 . S
C447 C446 1.387 . S
C447 C449 1.387 . S
H448 C455 0.950 1_545 S
C449 C447 1.387 . S
C449 C451 1.390 . S
C449 H453 0.950 . S
H450 C446 0.950 . S
C451 C449 1.390 . S
C451 C452 1.387 . S
C451 H454 0.950 . S
C452 C451 1.387 . S
C452 C455 1.387 . S
H453 C449 0.950 . S
H454 C451 0.950 . S
C455 C446 1.390 . S
C455 H448 0.950 1_565 S
C455 C452 1.387 . S
C456 C457 1.387 . S
C456 H460 0.950 . S
C456 C465 1.390 . S
C457 C456 1.387 . S
C457 C459 1.387 . S
H458 C465 0.950 . S
C459 C457 1.387 . S
C459 C461 1.390 . S
C459 H463 0.950 . S
H460 C456 0.950 . S
C461 C459 1.390 . S
C461 C462 1.387 . S
C461 H464 0.950 1_556 S
C462 C461 1.387 . S
C462 C465 1.387 . S
H463 C459 0.950 . S
H464 C461 0.950 1_554 S
C465 C456 1.390 . S
C465 H458 0.950 . S
C465 C462 1.387 . S
C466 C467 1.387 . S
C466 H470 0.950 . S
C466 C475 1.390 . S
C467 C466 1.387 . S
C467 C469 1.387 . S
H468 C475 0.950 . S
C469 C467 1.387 . S
C469 C471 1.390 . S
C469 H473 0.950 . S
H470 C466 0.950 . S
C471 C469 1.390 . S
C471 C472 1.387 . S
C471 H474 0.950 . S
C472 C471 1.387 . S
C472 C475 1.387 . S
H473 C469 0.950 . S
H474 C471 0.950 . S
C475 C466 1.390 . S
C475 H468 0.950 . S
C475 C472 1.387 . S
C476 C477 1.387 . S
C476 H480 0.950 . S
C476 C485 1.390 . S
C477 C476 1.387 . S
C477 C479 1.387 . S
H478 C485 0.950 . S
C479 C477 1.387 . S
C479 C481 1.390 . S
C479 H483 0.950 . S
H480 C476 0.950 . S
C481 C479 1.390 . S
C481 C482 1.387 . S
C481 H484 0.950 . S
C482 C481 1.387 . S
C482 C485 1.387 . S
H483 C479 0.950 . S
H484 C481 0.950 . S
C485 C476 1.390 . S
C485 H478 0.950 . S
C485 C482 1.387 . S
C486 C487 1.387 . S
C486 H490 0.950 . S
C486 C495 1.390 . S
C487 C486 1.387 . S
C487 C489 1.387 . S
H488 C495 0.950 . S
C489 C487 1.387 . S
C489 C491 1.390 . S
C489 H493 0.950 . S
H490 C486 0.950 . S
C491 C489 1.390 . S
C491 C492 1.387 . S
C491 H494 0.950 1_556 S
C492 C491 1.387 . S
C492 C495 1.387 . S
H493 C489 0.950 . S
H494 C491 0.950 1_554 S
C495 C486 1.390 . S
C495 H488 0.950 . S
C495 C492 1.387 . S
C496 C497 1.387 . S
C496 H500 0.950 . S
C496 C505 1.390 . S
C497 C496 1.387 . S
C497 C499 1.387 . S
H498 C505 0.929 1_455 S
C499 C497 1.387 . S
C499 C501 1.390 . S
C499 H503 0.950 . S
H500 C496 0.950 . S
C501 C499 1.390 . S
C501 C502 1.387 . S
C501 H504 0.950 . S
C502 C501 1.387 . S
C502 C505 1.387 . S
H503 C499 0.950 . S
H504 C501 0.950 . S
C505 C496 1.390 . S
C505 H498 0.929 1_655 S
C505 C502 1.387 . S
C506 C507 1.387 . S
C506 H510 0.950 . S
C506 C515 1.390 . S
C507 C506 1.387 . S
C507 C509 1.387 . S
H508 C515 0.950 . S
C509 C507 1.387 . S
C509 C511 1.390 . S
C509 H513 0.950 . S
H510 C506 0.950 . S
C511 C509 1.390 . S
C511 C512 1.387 . S
C511 H514 0.950 . S
C512 C511 1.387 . S
C512 C515 1.387 . S
H513 C509 0.950 . S
H514 C511 0.950 . S
C515 C506 1.390 . S
C515 H508 0.950 . S
C515 C512 1.387 . S
C516 C517 1.387 . S
C516 H520 0.950 . S
C516 C525 1.390 . S
C517 C516 1.387 . S
C517 C519 1.387 1_545 S
H518 C525 0.950 . S
C519 C517 1.387 1_565 S
C519 C521 1.390 . S
C519 H523 0.950 . S
H520 C516 0.950 . S
C521 C519 1.390 . S
C521 C522 1.387 1_565 S
C521 H524 0.950 . S
C522 C521 1.387 1_545 S
C522 C525 1.387 . S
H523 C519 0.950 . S
H524 C521 0.950 . S
C525 C516 1.390 . S
C525 H518 0.950 . S
C525 C522 1.387 . S
C526 C527 1.387 . S
C526 H530 0.950 . S
C526 C535 1.390 . S
C527 C526 1.387 . S
C527 C529 1.387 1_545 S
H528 C535 0.950 . S
C529 C527 1.387 1_565 S
C529 C531 1.390 . S
C529 H533 0.950 . S
H530 C526 0.950 . S
C531 C529 1.390 . S
C531 C532 1.387 1_565 S
C531 H534 0.950 . S
C532 C531 1.387 1_545 S
C532 C535 1.387 . S
H533 C529 0.950 . S
H534 C531 0.950 . S
C535 C526 1.390 . S
C535 H528 0.950 . S
C535 C532 1.387 . S
C536 C537 1.387 . S
C536 H540 0.950 . S
C536 C545 1.390 . S
C537 C536 1.387 . S
C537 C539 1.387 . S
H538 C545 0.950 . S
C539 C537 1.387 . S
C539 C541 1.390 . S
C539 H543 0.950 . S
H540 C536 0.950 . S
C541 C539 1.390 . S
C541 C542 1.387 . S
C541 H544 0.950 . S
C542 C541 1.387 . S
C542 C545 1.387 . S
H543 C539 0.950 . S
H544 C541 0.950 . S
C545 C536 1.390 . S
C545 H538 0.950 . S
C545 C542 1.387 . S
C546 C547 1.387 . S
C546 H550 0.950 . S
C546 C555 1.390 . S
C547 C546 1.387 . S
C547 C549 1.387 . S
H548 C555 0.950 . S
C549 C547 1.387 . S
C549 C551 1.390 . S
C549 H553 0.950 . S
H550 C546 0.950 . S
C551 C549 1.390 . S
C551 C552 1.387 . S
C551 H554 0.950 . S
C552 C551 1.387 . S
C552 C555 1.387 . S
H553 C549 0.950 . S
H554 C551 0.950 . S
C555 C546 1.390 . S
C555 H548 0.950 . S
C555 C552 1.387 . S
C556 C557 1.387 1_565 S
C556 H560 0.950 . S
C556 C565 1.390 . S
C557 C556 1.387 1_545 S
C557 C559 1.387 1_554 S
H558 C565 0.950 . S
C559 C557 1.387 1_556 S
C559 C561 1.390 1_545 S
C559 H563 0.950 . S
H560 C556 0.950 . S
C561 C559 1.390 1_565 S
C561 C562 1.387 1_556 S
C561 H564 0.950 . S
C562 C561 1.387 1_554 S
C562 C565 1.387 . S
H563 C559 0.950 . S
H564 C561 0.950 . S
C565 C556 1.390 . S
C565 H558 0.950 . S
C565 C562 1.387 . S
C566 C567 1.387 . S
C566 H570 0.950 . S
C566 C575 1.390 . S
C567 C566 1.387 . S
C567 C569 1.387 . S
H568 C575 0.950 . S
C569 C567 1.387 . S
C569 C571 1.390 . S
C569 H573 0.950 . S
H570 C566 0.950 . S
C571 C569 1.390 . S
C571 C572 1.387 . S
C571 H574 0.950 . S
C572 C571 1.387 . S
C572 C575 1.387 . S
H573 C569 0.950 . S
H574 C571 0.950 . S
C575 C566 1.390 . S
C575 H568 0.950 . S
C575 C572 1.387 . S
C576 C577 1.387 1_556 S
C576 H580 0.950 . S
C576 C585 1.390 . S
C577 C576 1.387 1_554 S
C577 C579 1.387 . S
H578 C585 0.950 . S
C579 C577 1.387 . S
C579 C581 1.390 . S
C579 H583 0.950 . S
H580 C576 0.950 . S
C581 C579 1.390 . S
C581 C582 1.387 . S
C581 H584 0.950 . S
C582 C581 1.387 . S
C582 C585 1.387 1_554 S
H583 C579 0.950 . S
H584 C581 0.950 . S
C585 C576 1.390 . S
C585 H578 0.950 . S
C585 C582 1.387 1_556 S
C586 C587 1.387 . S
C586 H590 0.950 . S
C586 C595 1.390 . S
C587 C586 1.387 . S
C587 C589 1.387 . S
H588 C595 0.950 . S
C589 C587 1.387 . S
C589 C591 1.390 . S
C589 H593 0.950 . S
H590 C586 0.950 . S
C591 C589 1.390 . S
C591 C592 1.387 . S
C591 H594 0.950 . S
C592 C591 1.387 . S
C592 C595 1.387 . S
H593 C589 0.950 . S
H594 C591 0.950 . S
C595 C586 1.390 . S
C595 H588 0.950 . S
C595 C592 1.387 . S
C596 C597 1.387 1_654 S
C596 H600 0.950 . S
C596 C605 1.390 1_554 S
C597 C596 1.387 1_456 S
C597 C599 1.387 . S
H598 C605 0.950 . S
C599 C597 1.387 . S
C599 C601 1.390 . S
C599 H603 0.950 . S
H600 C596 0.950 . S
C601 C599 1.390 . S
C601 C602 1.387 . S
C601 H604 0.950 . S
C602 C601 1.387 . S
C602 C605 1.387 1_455 S
H603 C599 0.950 . S
H604 C601 0.950 . S
C605 C596 1.390 1_556 S
C605 H598 0.950 . S
C605 C602 1.387 1_655 S
C606 C607 1.387 . S
C606 H610 0.950 . S
C606 C615 1.390 . S
C607 C606 1.387 . S
C607 C609 1.387 . S
H608 C615 0.950 . S
C609 C607 1.387 . S
C609 C611 1.390 . S
C609 H613 0.950 . S
H610 C606 0.950 . S
C611 C609 1.390 . S
C611 C612 1.387 . S
C611 H614 0.950 . S
C612 C611 1.387 . S
C612 C615 1.387 . S
H613 C609 0.950 . S
H614 C611 0.950 . S
C615 C606 1.390 . S
C615 H608 0.950 . S
C615 C612 1.387 . S
C616 C617 1.387 1_655 S
C616 H620 0.950 . S
C616 C625 1.391 . S
C617 C616 1.387 1_455 S
C617 C619 1.387 . S
H618 C625 0.965 . S
C619 C617 1.387 . S
C619 C621 1.390 . S
C619 H623 0.950 . S
H620 C616 0.950 . S
C621 C619 1.390 . S
C621 C622 1.387 . S
C621 H624 0.950 . S
C622 C621 1.387 . S
C622 C625 1.372 1_455 S
H623 C619 0.950 . S
H624 C621 0.950 . S
C625 C616 1.391 . S
C625 H618 0.965 . S
C625 C622 1.372 1_655 S
C626 C627 1.387 . S
C626 H630 0.950 . S
C626 C635 1.390 . S
C627 C626 1.387 . S
C627 C629 1.387 . S
H628 C635 0.950 . S
C629 C627 1.387 . S
C629 C631 1.390 . S
C629 H633 0.950 . S
H630 C626 0.950 . S
C631 C629 1.390 . S
C631 C632 1.387 . S
C631 H634 0.950 . S
C632 C631 1.387 . S
C632 C635 1.387 . S
H633 C629 0.950 . S
H634 C631 0.950 . S
C635 C626 1.390 . S
C635 H628 0.950 . S
C635 C632 1.387 . S
C397 C1 1.545 . S
C402 C315 1.443 . S
C407 C40 1.514 . S
C412 C349 1.419 . S
C422 C361 1.408 . S
C417 C99 1.503 . S
C427 C118 1.504 . S
C432 C395 1.410 . S
C442 C352 1.436 . S
C437 C16 1.535 . S
C452 C332 1.410 . S
C447 C60 1.511 . S
C462 C379 1.408 . S
C457 C79 1.508 . S
C472 C370 1.404 . S
C467 C138 1.495 . S
C477 C21 1.530 . S
C482 C378 1.426 . S
C492 C340 1.420 . S
C487 C94 1.515 . S
C497 C133 1.500 . S
C502 C316 1.389 . S
C507 C55 1.517 . S
C512 C373 1.411 . S
C522 C331 1.686 . S
C517 C157 1.746 . S
C527 C196 1.745 . S
C532 C353 1.675 . S
C537 C255 1.748 . S
C542 C358 1.695 . S
C547 C289 1.762 . S
C552 C391 1.711 . S
C557 C172 1.766 1_545 S
C562 C336 1.711 . S
C572 C328 1.703 . S
C567 C216 1.774 . S
C582 C382 1.710 . S
C577 C235 1.770 . S
C592 C374 1.670 . S
C587 C294 1.720 . S
C597 C177 1.720 1_455 S
C602 C394 1.674 . S
C612 C337 1.716 . S
C607 C250 1.777 . S
C622 C319 1.662 . S
C617 C274 1.726 . S
C627 C211 1.746 . S
C632 C357 1.692 . S
