# Generated by pormake.
# Topology zzz, (3,6)-cn, num edge types: 1
# Building blocks:
#     Node 0, Type 0, BuildingBlock: CUQRIR_clean_linker_1, # of connection points: 3
#     Node 1, Type 0, BuildingBlock: CUQRIR_clean_linker_1, # of connection points: 3
#     Node 2, Type 0, BuildingBlock: CUQRIR_clean_linker_1, # of connection points: 3
#     Node 3, Type 0, BuildingBlock: CUQRIR_clean_linker_1, # of connection points: 3
#     Node 4, Type 0, BuildingBlock: CUQRIR_clean_linker_1, # of connection points: 3
#     Node 5, Type 0, BuildingBlock: CUQRIR_clean_linker_1, # of connection points: 3
#     Node 6, Type 0, BuildingBlock: CUQRIR_clean_linker_1, # of connection points: 3
#     Node 7, Type 0, BuildingBlock: CUQRIR_clean_linker_1, # of connection points: 3
#     Node 8, Type 1, BuildingBlock: JUFBIX_clean_sbu_0, # of connection points: 6
#     Node 9, Type 1, BuildingBlock: JUFBIX_clean_sbu_0, # of connection points: 6
#     Node 10, Type 1, BuildingBlock: JUFBIX_clean_sbu_0, # of connection points: 6
#     Node 11, Type 1, BuildingBlock: JUFBIX_clean_sbu_0, # of connection points: 6
#     Edge 12, Type (0, 1), BuildingBlock: XIVTED_clean_linker_0, # of connection points: 2
#     Edge 13, Type (0, 1), BuildingBlock: XIVTED_clean_linker_0, # of connection points: 2
#     Edge 14, Type (0, 1), BuildingBlock: XIVTED_clean_linker_0, # of connection points: 2
#     Edge 15, Type (0, 1), BuildingBlock: XIVTED_clean_linker_0, # of connection points: 2
#     Edge 16, Type (0, 1), BuildingBlock: XIVTED_clean_linker_0, # of connection points: 2
#     Edge 17, Type (0, 1), BuildingBlock: XIVTED_clean_linker_0, # of connection points: 2
#     Edge 18, Type (0, 1), BuildingBlock: XIVTED_clean_linker_0, # of connection points: 2
#     Edge 19, Type (0, 1), BuildingBlock: XIVTED_clean_linker_0, # of connection points: 2
#     Edge 20, Type (0, 1), BuildingBlock: XIVTED_clean_linker_0, # of connection points: 2
#     Edge 21, Type (0, 1), BuildingBlock: XIVTED_clean_linker_0, # of connection points: 2
#     Edge 22, Type (0, 1), BuildingBlock: XIVTED_clean_linker_0, # of connection points: 2
#     Edge 23, Type (0, 1), BuildingBlock: XIVTED_clean_linker_0, # of connection points: 2
#     Edge 24, Type (0, 1), BuildingBlock: XIVTED_clean_linker_0, # of connection points: 2
#     Edge 25, Type (0, 1), BuildingBlock: XIVTED_clean_linker_0, # of connection points: 2
#     Edge 26, Type (0, 1), BuildingBlock: XIVTED_clean_linker_0, # of connection points: 2
#     Edge 27, Type (0, 1), BuildingBlock: XIVTED_clean_linker_0, # of connection points: 2
#     Edge 28, Type (0, 1), BuildingBlock: XIVTED_clean_linker_0, # of connection points: 2
#     Edge 29, Type (0, 1), BuildingBlock: XIVTED_clean_linker_0, # of connection points: 2
#     Edge 30, Type (0, 1), BuildingBlock: XIVTED_clean_linker_0, # of connection points: 2
#     Edge 31, Type (0, 1), BuildingBlock: XIVTED_clean_linker_0, # of connection points: 2
#     Edge 32, Type (0, 1), BuildingBlock: XIVTED_clean_linker_0, # of connection points: 2
#     Edge 33, Type (0, 1), BuildingBlock: XIVTED_clean_linker_0, # of connection points: 2
#     Edge 34, Type (0, 1), BuildingBlock: XIVTED_clean_linker_0, # of connection points: 2
#     Edge 35, Type (0, 1), BuildingBlock: XIVTED_clean_linker_0, # of connection points: 2
# Relax obj value: 0.131
# Max RMSD: 0.179
# Mean RMSD: 0.099
data_MOF--net-zzz--node1-JUFBIX_clean_sbu_0--node2-CUQRIR_clean_linker_1--edge1-XIVTED_clean_linker_0
_symmetry_space_group_name_H-M    P1
_symmetry_Int_Tables_number       1
_symmetry_cell_setting            triclinic
loop_
_symmetry_equiv_pos_as_xyz
'x, y, z'
_cell_length_a     49.129509
_cell_length_b     49.00198
_cell_length_c     15.912635
_cell_angle_alpha  80.650374
_cell_angle_beta   90.144505
_cell_angle_gamma 91.269351
loop_
_atom_site_label
_atom_site_type_symbol
_atom_site_fract_x
_atom_site_fract_y
_atom_site_fract_z
_atom_type_partial_charge
C0 C 0.77615 0.48678 0.32281 0.0
N1 N 0.80358 0.48438 0.32836 0.0
N2 N 0.76726 0.48246 0.24499 0.0
C3 C 0.7581 0.49229 0.39379 0.0
C4 C 0.79029 0.47768 0.20356 0.0
N5 N 0.81219 0.47851 0.25448 0.0
C6 C 0.79167 0.47482 0.1108 0.0
H7 H 0.76696 0.4838 0.45659 0.0
H8 H 0.73742 0.48321 0.38798 0.0
H9 H 0.75634 0.51498 0.39016 0.0
H10 H 0.77473 0.48571 0.07436 0.0
H11 H 0.79014 0.45257 0.10519 0.0
H12 H 0.81124 0.48331 0.08196 0.0
C13 C 0.0186 0.74086 0.32043 0.0
N14 N 0.0238 0.76798 0.32348 0.0
N15 N 0.02575 0.73475 0.24334 0.0
C16 C 0.00717 0.72035 0.39272 0.0
C17 C 0.03493 0.75921 0.1994 0.0
N18 N 0.03409 0.77925 0.24838 0.0
C19 C 0.04134 0.76427 0.10538 0.0
H20 H 0.0133 0.72609 0.45483 0.0
H21 H 0.01405 0.69918 0.38876 0.0
H22 H 0.98462 0.72041 0.38889 0.0
H23 H 0.03601 0.78552 0.07552 0.0
H24 H 0.03008 0.74942 0.07171 0.0
H25 H 0.06349 0.76173 0.0966 0.0
C26 C 0.76834 0.00535 0.21638 0.0
N27 N 0.74124 0.00986 0.20931 0.0
N28 N 0.77987 0.00726 0.13816 0.0
C29 C 0.78317 0.99762 0.29911 0.0
C30 C 0.75884 0.01315 0.08345 0.0
N31 N 0.73542 0.0148 0.12667 0.0
C32 C 0.7609 0.01481 0.98831 0.0
H33 H 0.80475 0.00479 0.29324 0.0
H34 H 0.78275 0.97476 0.3166 0.0
H35 H 0.77316 0.00647 0.35071 0.0
H36 H 0.7546 0.99451 0.97135 0.0
H37 H 0.78203 0.01981 0.9656 0.0
H38 H 0.7473 0.03064 0.95447 0.0
C39 C 0.5123 0.74212 0.22543 0.0
N40 N 0.51246 0.71443 0.2259 0.0
N41 N 0.51283 0.75598 0.14419 0.0
C42 C 0.51327 0.75555 0.30374 0.0
C43 C 0.51317 0.73565 0.09572 0.0
N44 N 0.51306 0.71055 0.14536 0.0
C45 C 0.51196 0.74021 0.99997 0.0
H46 H 0.49214 0.75896 0.32347 0.0
H47 H 0.52414 0.77589 0.29066 0.0
H48 H 0.52339 0.74209 0.35701 0.0
H49 H 0.53301 0.74159 0.97432 0.0
H50 H 0.5015 0.75971 0.97508 0.0
H51 H 0.50117 0.7227 0.97703 0.0
C52 C 0.23782 0.51484 0.2571 0.0
N53 N 0.21042 0.51746 0.25101 0.0
N54 N 0.24679 0.52047 0.33346 0.0
C55 C 0.25578 0.50786 0.18787 0.0
C56 C 0.22384 0.52626 0.37352 0.0
N57 N 0.20192 0.52478 0.32309 0.0
C58 C 0.22251 0.5307 0.46494 0.0
H59 H 0.27659 0.51675 0.19252 0.0
H60 H 0.24706 0.51553 0.12424 0.0
H61 H 0.25718 0.48503 0.19495 0.0
H62 H 0.22424 0.55319 0.46697 0.0
H63 H 0.23936 0.52018 0.5029 0.0
H64 H 0.20288 0.52282 0.49474 0.0
C65 C 0.99853 0.25794 0.26595 0.0
N66 N 0.99397 0.23061 0.26442 0.0
N67 N 0.99201 0.26414 0.34342 0.0
C68 C 0.00862 0.27854 0.19181 0.0
C69 C 0.98387 0.23959 0.38911 0.0
N70 N 0.98471 0.21934 0.3409 0.0
C71 C 0.97826 0.23486 0.48359 0.0
H72 H 0.0312 0.27929 0.1931 0.0
H73 H 1.00117 0.2995 0.19582 0.0
H74 H 1.00204 0.27232 0.13076 0.0
H75 H 0.95611 0.23668 0.49412 0.0
H76 H 0.98928 0.25036 0.51534 0.0
H77 H 0.98449 0.21394 0.51391 0.0
C78 C 0.24652 0.99389 0.3666 0.0
N79 N 0.27392 0.99194 0.37476 0.0
N80 N 0.23435 0.9892 0.44431 0.0
C81 C 0.23223 0.0033 0.28386 0.0
C82 C 0.25535 0.98431 0.4995 0.0
N83 N 0.27936 0.98615 0.45746 0.0
C84 C 0.25223 0.9774 0.59468 0.0
H85 H 0.23893 0.02483 0.25847 0.0
H86 H 0.20979 0.00248 0.29152 0.0
H87 H 0.23818 0.99014 0.2367 0.0
H88 H 0.26941 0.9648 0.6234 0.0
H89 H 0.23274 0.96594 0.61155 0.0
H90 H 0.25195 0.99684 0.6219 0.0
C91 C 0.50142 0.26547 0.35564 0.0
N92 N 0.50114 0.29318 0.35467 0.0
N93 N 0.501 0.25175 0.43706 0.0
C94 C 0.50047 0.25188 0.27764 0.0
C95 C 0.50062 0.27219 0.48511 0.0
N96 N 0.50059 0.29721 0.43506 0.0
C97 C 0.50199 0.26783 0.58084 0.0
H98 H 0.48971 0.23149 0.29116 0.0
H99 H 0.52162 0.24854 0.25785 0.0
H100 H 0.49027 0.2652 0.22427 0.0
H101 H 0.51258 0.24843 0.60592 0.0
H102 H 0.48097 0.26637 0.60681 0.0
H103 H 0.5127 0.28547 0.60328 0.0
Co104 Co 0.01596 0.01413 0.83244 0.0
C105 C 0.96307 0.99809 0.87729 0.0
Co106 Co 0.99928 0.98362 0.75617 0.0
C107 C 0.01829 0.06375 0.9088 0.0
C108 C 0.05564 0.04186 0.92427 0.0
N109 N 0.0304 0.04081 0.89145 0.0
N110 N 0.03498 0.07918 0.95098 0.0
C111 C 0.05852 0.06537 0.96081 0.0
H112 H 0.9977 0.06919 0.88956 0.0
H113 H 0.07097 0.02651 0.92166 0.0
C114 C 0.05219 0.99968 0.71134 0.0
N115 N 0.98486 0.95699 0.69717 0.0
C116 C 0.99702 0.93406 0.67998 0.0
C117 C 0.95969 0.95597 0.66383 0.0
N118 N 0.98044 0.91868 0.63732 0.0
C119 C 0.9569 0.93249 0.62707 0.0
C120 C 0.98992 0.03706 0.68288 0.0
O121 O 0.04928 0.01451 0.76933 0.0
O122 O 0.03245 0.98423 0.69467 0.0
O123 O 0.98618 0.01217 0.67189 0.0
O124 O 1.00239 0.0423 0.74862 0.0
O125 O 0.96591 0.98327 0.81924 0.0
H126 H 0.94435 0.97134 0.66613 0.0
H127 H 0.01757 0.92863 0.69958 0.0
O128 O 0.98285 0.01349 0.89393 0.0
O129 O 0.0292 0.98553 0.91666 0.0
O130 O 0.01285 0.95549 0.83983 0.0
C131 C 0.02549 0.96066 0.90532 0.0
H132 H 0.07646 0.07153 0.99329 0.0
H133 H 0.93906 0.92639 0.59408 0.0
Co134 Co 0.49644 0.0101 0.84718 0.0
C135 C 0.50714 0.95443 0.87127 0.0
Co136 Co 0.51907 0.99828 0.7386 0.0
C137 C 0.45128 0.01171 0.9636 0.0
C138 C 0.48259 0.04162 0.9781 0.0
N139 N 0.47615 0.02109 0.93415 0.0
N140 N 0.44181 0.02571 0.02376 0.0
C141 C 0.46167 0.04446 0.03313 0.0
H142 H 0.44004 0.99541 0.9394 0.0
H143 H 0.50114 0.05407 0.96966 0.0
C144 C 0.50834 0.05393 0.71458 0.0
N145 N 0.5395 0.98728 0.65201 0.0
C146 C 0.56341 0.99822 0.61863 0.0
C147 C 0.53511 0.96452 0.61589 0.0
N148 N 0.57431 0.98295 0.56419 0.0
C149 C 0.55646 0.96177 0.56217 0.0
C150 C 0.46349 0.99532 0.71826 0.0
O151 O 0.49775 0.0474 0.78831 0.0
O152 O 0.51912 0.03525 0.67956 0.0
O153 O 0.48575 0.99071 0.68283 0.0
O154 O 0.46413 0.00387 0.78935 0.0
O155 O 0.51887 0.96124 0.79941 0.0
H156 H 0.51795 0.95032 0.62997 0.0
H157 H 0.57326 0.01634 0.637 0.0
O158 O 0.49522 0.97286 0.90447 0.0
O159 O 0.52935 0.01614 0.90462 0.0
O160 O 0.55175 0.00609 0.7948 0.0
C161 C 0.55179 0.01335 0.86785 0.0
H162 H 0.46125 0.05929 0.07657 0.0
H163 H 0.55882 0.94524 0.52533 0.0
Co164 Co 0.52925 0.50347 0.79168 0.0
C165 C 0.5034 0.46247 0.9104 0.0
Co166 Co 0.48427 0.50412 0.78899 0.0
C167 C 0.58143 0.50121 0.87433 0.0
C168 C 0.58541 0.50054 0.74069 0.0
N169 N 0.56685 0.50235 0.80171 0.0
N170 N 0.60827 0.49847 0.86128 0.0
C171 C 0.61089 0.49797 0.77726 0.0
H172 H 0.57238 0.50129 0.93626 0.0
H173 H 0.58066 0.50047 0.67432 0.0
C174 C 0.51012 0.54511 0.67024 0.0
N175 N 0.44666 0.50521 0.77881 0.0
C176 C 0.43214 0.50569 0.70631 0.0
C177 C 0.42803 0.50749 0.83922 0.0
N178 N 0.40528 0.50844 0.71884 0.0
C179 C 0.40257 0.50967 0.80238 0.0
C180 C 0.50631 0.53769 0.89526 0.0
O181 O 0.53199 0.53417 0.70105 0.0
O182 O 0.48736 0.53475 0.69881 0.0
O183 O 0.48378 0.52926 0.86824 0.0
O184 O 0.52837 0.52854 0.87049 0.0
O185 O 0.48152 0.47345 0.8797 0.0
H186 H 0.43272 0.50811 0.90535 0.0
H187 H 0.44123 0.5051 0.64473 0.0
O188 O 0.52615 0.47281 0.88176 0.0
O189 O 0.52976 0.47838 0.71231 0.0
O190 O 0.48518 0.47903 0.71031 0.0
C191 C 0.50724 0.46993 0.68536 0.0
H192 H 0.62984 0.49572 0.74477 0.0
H193 H 0.38357 0.51211 0.83437 0.0
Co194 Co 0.00447 0.5233 0.78849 0.0
C195 C 0.05106 0.50109 0.87477 0.0
Co196 Co 0.00978 0.47863 0.78885 0.0
C197 C 1.00197 0.57092 0.87076 0.0
C198 C 0.99906 0.58235 0.73538 0.0
N199 N 1.00084 0.56024 0.79771 0.0
N200 N 1.00124 0.59873 0.85659 0.0
C201 C 0.99957 0.60611 0.77147 0.0
H202 H 0.00468 0.55861 0.93306 0.0
H203 H 0.99834 0.5813 0.66803 0.0
C204 C 0.96317 0.50096 0.70264 0.0
N205 N 0.01344 0.44168 0.77952 0.0
C206 C 0.01283 0.43109 0.70625 0.0
C207 C 0.01494 0.4195 0.84173 0.0
N208 N 0.01367 0.40328 0.72014 0.0
C209 C 0.01483 0.39579 0.80531 0.0
C210 C 0.97943 0.48835 0.92415 0.0
O211 O 0.97162 0.52368 0.72354 0.0
O212 O 0.97703 0.47933 0.72433 0.0
O213 O 0.98908 0.46888 0.89032 0.0
O214 O 0.984 0.51323 0.8896 0.0
O215 O 0.04274 0.47829 0.85404 0.0
H216 H 0.01529 0.42045 0.90916 0.0
H217 H 0.0105 0.44345 0.64387 0.0
O218 O 0.03711 0.52262 0.85285 0.0
O219 O 0.0252 0.53306 0.68698 0.0
O220 O 0.03019 0.4887 0.68773 0.0
C221 C 0.03473 0.51356 0.65306 0.0
H222 H 0.99922 0.62717 0.73788 0.0
H223 H 0.01517 0.37471 0.83868 0.0
H224 H 0.18951 0.95938 0.41285 0.0
H225 H 0.09736 0.03269 0.72306 0.0
H226 H 0.21662 0.0284 0.52958 0.0
H227 H 0.06672 0.96771 0.5926 0.0
H228 H 0.14059 0.03238 0.64796 0.0
H229 H 0.14355 0.96332 0.47101 0.0
C230 C 0.18551 0.97565 0.44947 0.0
C231 C 0.20659 0.99363 0.46666 0.0
C232 C 0.1244 0.01825 0.63536 0.0
C233 C 0.15466 0.99805 0.53463 0.0
C234 C 0.09968 0.01839 0.67846 0.0
C235 C 0.07834 1.00015 0.66445 0.0
C236 C 0.12801 0.99963 0.57793 0.0
C237 C 0.08259 0.98213 0.60557 0.0
C238 C 0.15945 0.97783 0.48313 0.0
C239 C 0.20075 0.01418 0.5153 0.0
N240 N 0.10695 0.98223 0.56485 0.0
N241 N 0.17542 0.01572 0.54806 0.0
H242 H 0.46419 0.22382 0.54521 0.0
H243 H 0.53516 0.0772 0.56805 0.0
H244 H 0.53552 0.21308 0.39859 0.0
H245 H 0.47901 0.09649 0.7571 0.0
H246 H 0.5323 0.12497 0.49337 0.0
H247 H 0.46546 0.17502 0.61014 0.0
C248 C 0.48004 0.211 0.52653 0.0
C249 C 0.49993 0.22238 0.46738 0.0
C250 C 0.52064 0.11869 0.55121 0.0
C251 C 0.50156 0.16654 0.54077 0.0
C252 C 0.52223 0.09145 0.59388 0.0
C253 C 0.50735 0.08282 0.66918 0.0
C254 C 0.50379 0.13735 0.58348 0.0
C255 C 0.49095 0.1022 0.6996 0.0
C256 C 0.48081 0.18322 0.56353 0.0
C257 C 0.51981 0.20494 0.4439 0.0
N258 N 0.48955 0.12846 0.65654 0.0
N259 N 0.52022 0.17784 0.48099 0.0
H260 H 0.28261 0.47851 0.35342 0.0
H261 H 0.36244 0.54237 0.70855 0.0
H262 H 0.27217 0.56238 0.39377 0.0
H263 H 0.40019 0.48111 0.58413 0.0
H264 H 0.32656 0.547 0.6005 0.0
H265 H 0.32449 0.47638 0.44007 0.0
C266 C 0.28959 0.49665 0.37875 0.0
C267 C 0.27401 0.52059 0.36734 0.0
C268 C 0.34277 0.53263 0.59646 0.0
C269 C 0.32091 0.5181 0.46793 0.0
C270 C 0.36306 0.52983 0.65851 0.0
C271 C 0.38418 0.51129 0.65522 0.0
C272 C 0.34322 0.51636 0.5315 0.0
C273 C 0.38426 0.49573 0.58842 0.0
C274 C 0.31326 0.4954 0.42854 0.0
C275 C 0.28358 0.54349 0.40215 0.0
N276 N 0.36388 0.49835 0.52957 0.0
N277 N 0.30611 0.54154 0.45212 0.0
H278 H 0.95135 0.28834 0.41341 0.0
H279 H 0.03954 0.40864 0.5682 0.0
H280 H 0.03627 0.29814 0.34705 0.0
H281 H 0.98123 0.35787 0.72831 0.0
H282 H 0.03373 0.37809 0.46001 0.0
H283 H 0.95637 0.32542 0.49924 0.0
C284 C 0.97088 0.29892 0.41532 0.0
C285 C 0.9935 0.29016 0.37424 0.0
C286 C 0.02225 0.37377 0.51887 0.0
C287 C 0.99941 0.33237 0.4716 0.0
C288 C 0.02551 0.39108 0.58019 0.0
C289 C 0.01097 0.38547 0.65712 0.0
C290 C 0.00366 0.35137 0.5339 0.0
C291 C 0.99301 0.36259 0.67018 0.0
C292 C 0.97378 0.31981 0.46459 0.0
C293 C 0.01841 0.30446 0.3779 0.0
N294 N 0.98966 0.34651 0.60884 0.0
N295 N 0.02083 0.32484 0.42668 0.0
H296 H 0.79744 0.96586 0.06127 0.0
H297 H 0.94891 0.03033 0.99529 0.0
H298 H 0.82461 0.03814 0.16155 0.0
H299 H 0.91763 0.96513 0.86683 0.0
H300 H 0.90537 0.03031 0.06942 0.0
H301 H 0.84324 0.96165 0.00393 0.0
C302 C 0.81334 0.98052 0.0723 0.0
C303 C 0.80753 0.00226 0.11625 0.0
C304 C 0.90805 0.01594 0.02526 0.0
C305 C 0.85974 0.998 0.05022 0.0
C306 C 0.93294 0.01591 0.98285 0.0
C307 C 0.93696 0.99776 0.92434 0.0
C308 C 0.88697 0.99761 0.00949 0.0
C309 C 0.91547 0.97957 0.91103 0.0
C310 C 0.83937 0.97827 0.03929 0.0
C311 C 0.82855 0.02095 0.12866 0.0
N312 N 0.89143 0.98 0.95311 0.0
N313 N 0.85373 0.01851 0.09538 0.0
H314 H 0.54998 0.78392 0.03729 0.0
H315 H 0.47915 0.93069 0.01515 0.0
H316 H 0.47843 0.79473 0.18279 0.0
H317 H 0.53736 0.91219 0.83074 0.0
H318 H 0.48159 0.88276 0.08876 0.0
H319 H 0.54919 0.83287 0.97383 0.0
C320 C 0.53418 0.79678 0.05601 0.0
C321 C 0.51409 0.78538 0.11446 0.0
C322 C 0.49381 0.88924 0.03219 0.0
C323 C 0.51301 0.84141 0.0427 0.0
C324 C 0.49245 0.91659 0.99014 0.0
C325 C 0.50802 0.92549 0.91642 0.0
C326 C 0.51109 0.87074 1.00086 0.0
C327 C 0.52489 0.90628 0.88703 0.0
C328 C 0.53368 0.82466 0.01987 0.0
C329 C 0.49428 0.80288 0.13802 0.0
N330 N 0.52602 0.87991 0.92939 0.0
N331 N 0.49413 0.83007 0.10172 0.0
H332 H 0.73094 0.52388 0.23173 0.0
H333 H 0.65104 0.46457 0.86749 0.0
H334 H 0.74236 0.44161 0.17814 0.0
H335 H 0.61354 0.52405 0.99971 0.0
H336 H 0.68705 0.45873 0.97495 0.0
H337 H 0.68894 0.52683 0.14558 0.0
C338 C 0.72415 0.50624 0.20357 0.0
C339 C 0.74003 0.48255 0.21114 0.0
C340 C 0.67088 0.47297 0.98085 0.0
C341 C 0.69297 0.48598 0.11116 0.0
C342 C 0.6505 0.47646 0.91913 0.0
C343 C 0.62941 0.49487 0.92472 0.0
C344 C 0.67054 0.4884 0.04791 0.0
C345 C 0.62944 0.50956 0.99358 0.0
C346 C 0.70041 0.50796 0.15407 0.0
C347 C 0.73071 0.4603 0.17278 0.0
N348 N 0.6499 0.50628 0.05213 0.0
N349 N 0.70808 0.46272 0.12325 0.0
H350 H 0.98008 0.70287 0.23797 0.0
H351 H 0.03406 0.64395 0.84488 0.0
H352 H 0.06503 0.70936 0.17044 0.0
H353 H 0.9767 0.59382 0.01056 0.0
H354 H 0.04118 0.6734 0.9542 0.0
H355 H 0.97412 0.66591 0.15059 0.0
C356 C 0.99757 0.6959 0.20675 0.0
C357 C 0.02304 0.70913 0.21053 0.0
C358 C 0.02707 0.65591 0.96663 0.0
C359 C 0.01624 0.66816 0.10883 0.0
C360 C 0.02283 0.63936 0.90415 0.0
C361 C 0.00475 0.61663 0.91908 0.0
C362 C 0.01259 0.65008 0.04366 0.0
C363 C 0.99086 0.61122 0.99726 0.0
C364 C 0.99414 0.67509 0.15654 0.0
C365 C 0.04506 0.69975 0.16806 0.0
N366 N 0.99479 0.62808 0.05658 0.0
N367 N 0.04105 0.68029 0.11735 0.0
H368 H 0.93963 0.1957 0.4202 0.0
H369 H 0.99871 0.04378 0.51193 0.0
H370 H 0.01869 0.17731 0.33022 0.0
H371 H 0.96324 0.08273 0.70859 0.0
H372 H 0.99222 0.08664 0.4097 0.0
H373 H 0.93461 0.1474 0.49166 0.0
C374 C 0.9556 0.18127 0.4141 0.0
C375 C 0.97967 0.19032 0.37022 0.0
C376 C 0.98527 0.08539 0.4748 0.0
C377 C 0.97377 0.13548 0.44851 0.0
C378 C 0.98882 0.06108 0.53268 0.0
C379 C 0.98155 0.06007 0.61822 0.0
C380 C 0.9737 0.10824 0.50282 0.0
C381 C 0.96917 0.08296 0.64295 0.0
C382 C 0.9527 0.1539 0.45428 0.0
C383 C 0.99975 0.17097 0.36282 0.0
N384 N 0.96563 0.10624 0.58537 0.0
N385 N 0.99643 0.14437 0.40214 0.0
H386 H 0.29663 0.01818 0.56972 0.0
H387 H 0.45175 0.97321 0.57277 0.0
H388 H 0.32292 0.95617 0.42651 0.0
H389 H 0.41434 0.01037 0.77079 0.0
H390 H 0.40665 0.97007 0.5065 0.0
H391 H 0.34195 0.01943 0.63232 0.0
C392 C 0.31199 0.00457 0.55251 0.0
C393 C 0.30608 0.98665 0.49459 0.0
C394 C 0.40848 0.97878 0.56466 0.0
C395 C 0.35817 0.9884 0.56376 0.0
C396 C 0.43413 0.98062 0.60232 0.0
C397 C 0.43683 0.9921 0.67731 0.0
C398 C 0.38564 0.98884 0.60189 0.0
C399 C 0.41334 1.00136 0.71305 0.0
C400 C 0.33786 0.00538 0.58763 0.0
C401 C 0.32686 0.97013 0.4715 0.0
N402 N 0.38886 0.99965 0.67481 0.0
N403 N 0.35213 0.97138 0.50619 0.0
H404 H 0.46151 0.31715 0.52447 0.0
H405 H 0.54989 0.44699 0.61228 0.0
H406 H 0.53985 0.3369 0.40756 0.0
H407 H 0.46243 0.44175 0.6406 0.0
H408 H 0.54782 0.40617 0.5413 0.0
H409 H 0.4624 0.36198 0.57465 0.0
C410 C 0.47884 0.33113 0.50959 0.0
C411 C 0.50068 0.32367 0.46268 0.0
C412 C 0.5291 0.41422 0.56223 0.0
C413 C 0.5021 0.37453 0.51937 0.0
C414 C 0.53026 0.43747 0.60271 0.0
C415 C 0.50633 0.44766 0.63296 0.0
C416 C 0.5039 0.40089 0.55329 0.0
C417 C 0.48142 0.43456 0.61869 0.0
C418 C 0.47935 0.35665 0.53752 0.0
C419 C 0.52272 0.34223 0.44384 0.0
N420 N 0.4809 0.41165 0.58088 0.0
N421 N 0.52304 0.36682 0.47302 0.0
H422 H 0.17888 0.56875 0.37441 0.0
H423 H 0.04837 0.47829 0.54531 0.0
H424 H 0.16204 0.48611 0.32666 0.0
H425 H 0.06348 0.5614 0.59401 0.0
H426 H 0.08531 0.48445 0.44182 0.0
H427 H 0.13283 0.57003 0.43325 0.0
C428 C 0.16518 0.55109 0.37537 0.0
C429 C 0.174 0.52722 0.34679 0.0
C430 C 0.08036 0.50153 0.47409 0.0
C431 C 0.12174 0.5283 0.41351 0.0
C432 C 0.05924 0.49802 0.5332 0.0
C433 C 0.05323 0.51921 0.57932 0.0
C434 C 0.09588 0.52626 0.46193 0.0
C435 C 0.06765 0.54447 0.56025 0.0
C436 C 0.13899 0.55178 0.40856 0.0
C437 C 0.15576 0.50485 0.34812 0.0
N438 N 0.08871 0.54713 0.50402 0.0
N439 N 0.13055 0.50579 0.382 0.0
H440 H 0.08024 0.80315 0.17722 0.0
H441 H 0.05303 0.91644 0.873 0.0
H442 H 0.99928 0.82095 0.25258 0.0
H443 H 0.01827 0.95215 0.07749 0.0
H444 H 0.06236 0.87434 0.97353 0.0
H445 H 0.08559 0.85128 0.10452 0.0
C446 C 0.0639 0.81745 0.17981 0.0
C447 C 0.03924 0.80828 0.21978 0.0
C448 C 0.05344 0.89168 0.99693 0.0
C449 C 0.04514 0.86276 0.13839 0.0
C450 C 0.04796 0.91553 0.93966 0.0
C451 C 0.03502 0.93757 0.9677 0.0
C452 C 0.04512 0.88967 0.08205 0.0
C453 C 0.02852 0.93552 0.05419 0.0
C454 C 0.06691 0.84469 0.13858 0.0
C455 C 0.01862 0.8274 0.22271 0.0
N456 N 0.03297 0.91155 0.1083 0.0
N457 N 0.02194 0.85382 0.18178 0.0
H458 H 0.71528 0.05722 0.01559 0.0
H459 H 0.56293 1.00143 0.0376 0.0
H460 H 0.69413 0.97747 0.15995 0.0
H461 H 0.59969 0.03349 0.79463 0.0
H462 H 0.60781 0.00373 0.10536 0.0
H463 H 0.66922 0.05954 0.95331 0.0
C464 C 0.70091 0.04023 0.03372 0.0
C465 C 0.70839 0.01693 0.09154 0.0
C466 C 0.60583 0.01052 0.03739 0.0
C467 C 0.65591 0.02004 0.02484 0.0
C468 C 0.58036 0.00937 0.99893 0.0
C469 C 0.57782 0.01718 0.9106 0.0
C470 C 0.62854 0.0203 0.98731 0.0
C471 C 0.60098 0.02713 0.86293 0.0
C472 C 0.67476 0.04166 0.999 0.0
C473 C 0.68894 0.99577 0.11564 0.0
N474 N 0.62546 0.02856 0.90202 0.0
N475 N 0.66344 0.99787 0.0825 0.0
H476 H 0.55205 0.69067 0.0554 0.0
H477 H 0.46366 0.56068 0.96827 0.0
H478 H 0.47374 0.67092 0.17247 0.0
H479 H 0.5511 0.56601 0.9395 0.0
H480 H 0.46573 0.6016 0.03879 0.0
H481 H 0.55111 0.64588 0.00499 0.0
C482 C 0.53471 0.67671 0.07023 0.0
C483 C 0.5129 0.68415 0.11728 0.0
C484 C 0.48445 0.59355 0.01786 0.0
C485 C 0.51143 0.63331 0.06037 0.0
C486 C 0.48329 0.57024 0.97765 0.0
C487 C 0.50722 0.56003 0.94743 0.0
C488 C 0.50964 0.60693 0.02656 0.0
C489 C 0.53212 0.5732 0.96142 0.0
C490 C 0.53418 0.6512 0.04217 0.0
C491 C 0.49085 0.6656 0.13607 0.0
N492 N 0.53263 0.59616 0.99898 0.0
N493 N 0.49051 0.64103 0.1068 0.0
H494 H 0.85206 0.51683 0.25798 0.0
H495 H 0.95253 0.43966 0.98661 0.0
H496 H 0.83537 0.43591 0.19553 0.0
H497 H 0.96343 0.52418 0.02747 0.0
H498 H 0.91511 0.43374 0.08986 0.0
H499 H 0.89819 0.51563 0.20123 0.0
C500 C 0.85845 0.4986 0.23366 0.0
C501 C 0.84015 0.47653 0.23046 0.0
C502 C 0.92601 0.45342 0.07718 0.0
C503 C 0.89237 0.4751 0.16384 0.0
C504 C 0.94743 0.45677 0.0186 0.0
C505 C 0.96071 0.4826 0.99738 0.0
C506 C 0.91798 0.47606 0.11462 0.0
C507 C 0.95338 0.50405 0.04086 0.0
C508 C 0.88463 0.49792 0.20087 0.0
C509 C 0.84903 0.45342 0.19772 0.0
N510 N 0.93229 0.5004 0.09662 0.0
N511 N 0.87448 0.4534 0.16458 0.0
H512 H 0.95664 0.20084 0.19253 0.0
H513 H 0.07072 0.11943 0.9835 0.0
H514 H 0.04146 0.22472 0.18443 0.0
H515 H 0.98514 0.09739 0.98783 0.0
H516 H 0.06012 0.16083 0.04324 0.0
H517 H 0.96601 0.1665 0.10093 0.0
C518 C 0.97714 0.19923 0.16923 0.0
C519 C 0.99833 0.21547 0.19545 0.0
C520 C 0.04363 0.14705 0.03047 0.0
C521 C 0.00951 0.17589 0.09279 0.0
C522 C 0.04969 0.12325 0.9969 0.0
C523 C 0.02883 0.10462 0.98127 0.0
C524 C 0.0165 0.15232 0.04905 0.0
C525 C 1.0019 0.11111 0.9983 0.0
C526 C 0.98258 0.17954 0.11763 0.0
C527 C 0.02462 0.21266 0.16461 0.0
N528 N 0.99657 0.13424 0.03186 0.0
N529 N 0.02958 0.1929 0.11582 0.0
H530 H 0.28866 0.96176 0.25555 0.0
H531 H 0.41601 0.06292 0.10405 0.0
H532 H 0.30599 0.03769 0.34964 0.0
H533 H 0.4073 0.98056 0.0422 0.0
H534 H 0.3729 0.05622 0.18016 0.0
H535 H 0.32863 0.97079 0.16092 0.0
C536 C 0.30063 0.98064 0.25443 0.0
C537 C 0.29418 0.99918 0.30927 0.0
C538 C 0.38038 0.03961 0.14981 0.0
C539 C 0.33989 0.00949 0.20342 0.0
C540 C 0.40521 0.04334 0.10659 0.0
C541 C 0.41573 0.02218 0.06696 0.0
C542 C 0.36565 0.01456 0.15361 0.0
C543 C 0.40013 0.99755 0.07116 0.0
C544 C 0.32351 0.98568 0.20138 0.0
C545 C 0.31039 0.02312 0.30743 0.0
N546 N 0.37598 0.9944 0.11392 0.0
N547 N 0.33257 0.02755 0.2557 0.0
H548 H 0.45976 0.32794 0.31623 0.0
H549 H 0.54589 0.42936 0.96739 0.0
H550 H 0.53904 0.30835 0.2323 0.0
H551 H 0.45935 0.43713 0.99992 0.0
H552 H 0.54441 0.38645 0.06977 0.0
H553 H 0.45941 0.36899 0.20475 0.0
C554 C 0.47688 0.33221 0.27302 0.0
C555 C 0.49936 0.31489 0.2823 0.0
C556 C 0.52573 0.3975 0.05443 0.0
C557 C 0.49953 0.36186 0.15635 0.0
C558 C 0.52656 0.42213 0.99633 0.0
C559 C 0.50269 0.43698 0.97508 0.0
C560 C 0.50091 0.38766 0.09257 0.0
C561 C 0.47825 0.42642 0.01441 0.0
C562 C 0.47677 0.35558 0.20979 0.0
C563 C 0.52127 0.32118 0.22598 0.0
N564 N 0.47801 0.40248 0.07153 0.0
N565 N 0.52095 0.34434 0.16574 0.0
H566 H 0.19844 0.47163 0.18166 0.0
H567 H 0.07445 0.54762 0.91903 0.0
H568 H 0.18151 0.5581 0.16282 0.0
H569 H 0.08668 0.45983 0.93892 0.0
H570 H 0.11627 0.55182 0.99786 0.0
H571 H 0.161 0.4669 0.08083 0.0
C572 C 0.18728 0.48971 0.15411 0.0
C573 C 0.19296 0.51532 0.17943 0.0
C574 C 0.10997 0.53158 0.98502 0.0
C575 C 0.15004 0.51016 0.06661 0.0
C576 C 0.08594 0.52914 0.93997 0.0
C577 C 0.07683 0.50327 0.92256 0.0
C578 C 0.12524 0.50801 0.01373 0.0
C579 C 0.09284 0.48016 0.95119 0.0
C580 C 0.16578 0.48701 0.09758 0.0
C581 C 0.1777 0.5381 0.14401 0.0
N582 N 0.11622 0.48304 0.99576 0.0
N583 N 0.15687 0.53497 0.08999 0.0
H584 H 0.06047 0.7972 0.39964 0.0
H585 H 0.94489 0.87865 0.60196 0.0
H586 H 0.97549 0.77429 0.39845 0.0
H587 H 0.03048 0.90046 0.60263 0.0
H588 H 0.95586 0.83741 0.54185 0.0
H589 H 0.05037 0.83131 0.49129 0.0
C590 C 0.03976 0.79898 0.42088 0.0
C591 C 0.01877 0.78306 0.39213 0.0
C592 C 0.97225 0.85111 0.55581 0.0
C593 C 0.00677 0.82239 0.49482 0.0
C594 C 0.96599 0.87482 0.5896 0.0
C595 C 0.98675 0.89334 0.60675 0.0
C596 C 0.99949 0.84583 0.53863 0.0
C597 C 0.01377 0.88684 0.59101 0.0
C598 C 0.03391 0.81854 0.47251 0.0
C599 C 0.99219 0.78608 0.42033 0.0
N600 N 0.01931 0.86379 0.55728 0.0
N601 N 0.98685 0.8057 0.46924 0.0
H602 H 0.70787 0.04997 0.23984 0.0
H603 H 0.60799 0.94359 0.52585 0.0
H604 H 0.72818 0.96515 0.32658 0.0
H605 H 0.60029 0.03188 0.50573 0.0
H606 H 0.65145 0.95103 0.45014 0.0
H607 H 0.66829 0.04425 0.3357 0.0
C608 C 0.70423 0.03034 0.28088 0.0
C609 C 0.72129 0.00807 0.27643 0.0
C610 C 0.64037 0.9688 0.46268 0.0
C611 C 0.67582 1.001 0.38411 0.0
C612 C 0.61541 0.96457 0.50526 0.0
C613 C 0.60035 0.98717 0.5216 0.0
C614 C 0.65027 0.99586 0.43494 0.0
C615 C 0.61126 0.01389 0.49473 0.0
C616 C 0.68165 0.027 0.33512 0.0
C617 C 0.71566 0.98286 0.3295 0.0
N618 N 0.63541 0.01751 0.45197 0.0
N619 N 0.69319 0.97988 0.38037 0.0
H620 H 0.55372 0.67948 0.26381 0.0
H621 H 0.46763 0.57822 0.61319 0.0
H622 H 0.47457 0.69925 0.34827 0.0
H623 H 0.55415 0.5704 0.58052 0.0
H624 H 0.4691 0.62108 0.51059 0.0
H625 H 0.55403 0.6384 0.37518 0.0
C626 C 0.53661 0.67523 0.30708 0.0
C627 C 0.51419 0.69261 0.298 0.0
C628 C 0.48778 0.61003 0.52594 0.0
C629 C 0.51397 0.64562 0.42385 0.0
C630 C 0.48695 0.58543 0.58417 0.0
C631 C 0.51082 0.57058 0.60545 0.0
C632 C 0.51259 0.61984 0.48771 0.0
C633 C 0.53526 0.58111 0.56602 0.0
C634 C 0.53671 0.65185 0.37026 0.0
C635 C 0.4923 0.68636 0.35442 0.0
N636 N 0.53549 0.60501 0.50877 0.0
N637 N 0.49259 0.66319 0.41461 0.0
H638 H 0.8321 0.44269 0.4122 0.0
H639 H 0.92745 0.54249 0.64385 0.0
H640 H 0.81593 0.52895 0.40334 0.0
H641 H 0.93973 0.45508 0.65344 0.0
H642 H 0.88501 0.53814 0.56458 0.0
H643 H 0.86927 0.4465 0.51249 0.0
C644 C 0.83609 0.46228 0.43358 0.0
C645 C 0.82099 0.48545 0.40068 0.0
C646 C 0.89697 0.51993 0.58448 0.0
C647 C 0.864 0.49047 0.51306 0.0
C648 C 0.92124 0.52241 0.62948 0.0
C649 C 0.93733 0.49916 0.65501 0.0
C650 C 0.88874 0.49401 0.56492 0.0
C651 C 0.92817 0.47364 0.63487 0.0
C652 C 0.85742 0.4646 0.49005 0.0
C653 C 0.82701 0.51059 0.42865 0.0
N654 N 0.90463 0.47181 0.59101 0.0
N655 N 0.84833 0.51256 0.48259 0.0
loop_
_geom_bond_atom_site_label_1
_geom_bond_atom_site_label_2
_geom_bond_distance
_geom_bond_site_symmetry_2
_ccdc_geom_bond_type
C0 N1 1.317 . S
C0 N2 1.348 . S
C0 C3 1.485 . S
N1 C0 1.317 . S
N1 N5 1.370 . S
N2 C0 1.348 . S
N2 C4 1.346 . S
C3 C0 1.485 . S
C3 H7 0.960 . S
C3 H8 0.961 . S
C3 H9 0.960 . S
C4 N2 1.346 . S
C4 N5 1.307 . S
C4 C6 1.486 . S
N5 N1 1.370 . S
N5 C4 1.307 . S
C6 C4 1.486 . S
C6 H10 0.960 1_554 S
C6 H11 0.960 . S
C6 H12 0.959 1_554 S
H7 C3 0.960 . S
H8 C3 0.961 . S
H9 C3 0.960 . S
H10 C6 0.960 1_556 S
H11 C6 0.960 . S
H12 C6 0.959 1_556 S
C13 N14 1.317 . S
C13 N15 1.348 . S
C13 C16 1.485 . S
N14 C13 1.317 . S
N14 N18 1.370 . S
N15 C13 1.348 . S
N15 C17 1.346 . S
C16 C13 1.485 . S
C16 H20 0.960 . S
C16 H21 0.961 . S
C16 H22 0.960 . S
C17 N15 1.346 . S
C17 N18 1.307 . S
C17 C19 1.486 1_554 S
N18 N14 1.370 . S
N18 C17 1.307 . S
C19 C17 1.486 1_556 S
C19 H23 0.960 . S
C19 H24 0.960 . S
C19 H25 0.959 . S
H20 C16 0.960 . S
H21 C16 0.961 . S
H22 C16 0.960 . S
H23 C19 0.960 . S
H24 C19 0.960 . S
H25 C19 0.959 . S
C26 N27 1.317 . S
C26 N28 1.344 . S
C26 C29 1.485 . S
N27 C26 1.317 . S
N27 N31 1.369 . S
N28 C26 1.344 . S
N28 C30 1.349 1_564 S
C29 C26 1.485 . S
C29 H33 0.960 1_565 S
C29 H34 0.961 . S
C29 H35 0.960 . S
C30 N28 1.349 1_546 S
C30 N31 1.308 1_546 S
C30 C32 1.492 . S
N31 N27 1.369 . S
N31 C30 1.308 1_564 S
C32 C30 1.492 . S
C32 H36 0.919 1_545 S
C32 H37 0.989 . S
C32 H38 0.966 . S
H33 C29 0.960 1_545 S
H34 C29 0.961 . S
H35 C29 0.960 . S
H36 C32 0.919 1_565 S
H37 C32 0.989 . S
H38 C32 0.966 . S
C39 N40 1.317 . S
C39 N41 1.348 . S
C39 C42 1.485 . S
N40 C39 1.317 . S
N40 N44 1.370 . S
N41 C39 1.348 . S
N41 C43 1.346 . S
C42 C39 1.485 . S
C42 H46 0.960 . S
C42 H47 0.961 . S
C42 H48 0.960 . S
C43 N41 1.346 . S
C43 N44 1.307 . S
C43 C45 1.486 1_554 S
N44 N40 1.370 . S
N44 C43 1.307 . S
C45 C43 1.486 1_556 S
C45 H49 0.960 . S
C45 H50 0.960 . S
C45 H51 0.959 . S
H46 C42 0.960 . S
H47 C42 0.961 . S
H48 C42 0.960 . S
H49 C45 0.960 . S
H50 C45 0.960 . S
H51 C45 0.959 . S
C52 N53 1.317 . S
C52 N54 1.348 . S
C52 C55 1.485 . S
N53 C52 1.317 . S
N53 N57 1.370 . S
N54 C52 1.348 . S
N54 C56 1.346 . S
C55 C52 1.485 . S
C55 H59 0.960 . S
C55 H60 0.961 . S
C55 H61 0.960 . S
C56 N54 1.346 . S
C56 N57 1.307 . S
C56 C58 1.486 . S
N57 N53 1.370 . S
N57 C56 1.307 . S
C58 C56 1.486 . S
C58 H62 0.960 . S
C58 H63 0.960 . S
C58 H64 0.959 . S
H59 C55 0.960 . S
H60 C55 0.961 . S
H61 C55 0.960 . S
H62 C58 0.960 . S
H63 C58 0.960 . S
H64 C58 0.959 . S
C65 N66 1.317 . S
C65 N67 1.348 . S
C65 C68 1.485 . S
N66 C65 1.317 . S
N66 N70 1.370 . S
N67 C65 1.348 . S
N67 C69 1.346 . S
C68 C65 1.485 . S
C68 H72 0.960 . S
C68 H73 0.961 . S
C68 H74 0.960 . S
C69 N67 1.346 . S
C69 N70 1.307 . S
C69 C71 1.486 . S
N70 N66 1.370 . S
N70 C69 1.307 . S
C71 C69 1.486 . S
C71 H75 0.960 . S
C71 H76 0.960 . S
C71 H77 0.959 . S
H72 C68 0.960 . S
H73 C68 0.961 . S
H74 C68 0.960 . S
H75 C71 0.960 . S
H76 C71 0.960 . S
H77 C71 0.959 . S
C78 N79 1.317 . S
C78 N80 1.354 . S
C78 C81 1.485 . S
N79 C78 1.317 . S
N79 N83 1.371 . S
N80 C78 1.354 . S
N80 C82 1.342 1_565 S
C81 C78 1.485 . S
C81 H85 0.960 1_565 S
C81 H86 0.961 . S
C81 H87 0.960 . S
C82 N80 1.342 1_545 S
C82 N83 1.305 1_545 S
C82 C84 1.488 . S
N83 N79 1.371 . S
N83 C82 1.305 1_565 S
C84 C82 1.488 . S
C84 H88 0.960 1_545 S
C84 H89 0.960 . S
C84 H90 0.959 . S
H85 C81 0.960 1_545 S
H86 C81 0.961 . S
H87 C81 0.960 . S
H88 C84 0.960 1_565 S
H89 C84 0.960 . S
H90 C84 0.959 . S
C91 N92 1.317 . S
C91 N93 1.348 . S
C91 C94 1.485 . S
N92 C91 1.317 . S
N92 N96 1.370 . S
N93 C91 1.348 . S
N93 C95 1.346 . S
C94 C91 1.485 . S
C94 H98 0.960 . S
C94 H99 0.961 . S
C94 H100 0.960 . S
C95 N93 1.346 . S
C95 N96 1.307 . S
C95 C97 1.486 . S
N96 N92 1.370 . S
N96 C95 1.307 . S
C97 C95 1.486 . S
C97 H101 0.960 . S
C97 H102 0.960 . S
C97 H103 0.959 . S
H98 C94 0.960 . S
H99 C94 0.961 . S
H100 C94 0.960 . S
H101 C97 0.960 . S
H102 C97 0.960 . S
H103 C97 0.959 . S
Co104 N109 2.057 . S
Co104 O121 2.021 . S
Co104 O124 2.062 . S
Co104 O128 2.117 1_455 S
Co104 O129 2.020 1_545 S
C105 O125 1.259 1_545 S
C105 O128 1.258 . S
Co106 N115 2.057 . S
Co106 O122 2.117 1_655 S
Co106 O123 2.020 1_665 S
Co106 O125 2.021 . S
Co106 O130 2.062 . S
C107 N109 1.316 . S
C107 N110 1.347 1_556 S
C107 H112 0.931 . S
C108 N109 1.375 1_654 S
C108 C111 1.352 . S
C108 H113 0.930 1_554 S
N109 Co104 2.057 . S
N109 C107 1.316 . S
N109 C108 1.375 1_456 S
N110 C107 1.347 1_554 S
N110 C111 1.368 1_455 S
C111 C108 1.352 . S
C111 N110 1.368 1_655 S
C111 H132 0.934 . S
H112 C107 0.931 . S
H113 C108 0.930 1_556 S
C114 O121 1.259 1_565 S
C114 O122 1.258 . S
N115 Co106 2.057 . S
N115 C116 1.316 . S
N115 C117 1.375 1_655 S
C116 N115 1.316 . S
C116 N118 1.347 . S
C116 H127 0.931 . S
C117 N115 1.375 1_455 S
C117 C119 1.350 . S
C117 H126 0.930 . S
N118 C116 1.347 . S
N118 C119 1.373 1_655 S
C119 C117 1.350 . S
C119 N118 1.373 1_455 S
C119 H133 0.931 . S
C120 O123 1.256 . S
C120 O124 1.255 . S
O121 Co104 2.021 . S
O121 C114 1.259 1_545 S
O122 Co106 2.117 1_455 S
O122 C114 1.258 . S
O123 Co106 2.020 1_445 S
O123 C120 1.256 . S
O124 Co104 2.062 . S
O124 C120 1.255 . S
O125 C105 1.259 1_565 S
O125 Co106 2.021 . S
H126 C117 0.930 . S
H127 C116 0.931 . S
O128 Co104 2.117 1_655 S
O128 C105 1.258 . S
O129 Co104 2.020 1_565 S
O129 C131 1.253 1_455 S
O130 Co106 2.062 . S
O130 C131 1.256 . S
C131 O129 1.253 1_655 S
C131 O130 1.256 . S
H132 C111 0.934 . S
H133 C119 0.931 . S
Co134 N139 2.057 1_545 S
Co134 O151 2.021 . S
Co134 O154 2.069 . S
Co134 O158 2.117 1_545 S
Co134 O159 2.020 . S
C135 O155 1.259 . S
C135 O158 1.258 . S
Co136 N145 2.057 1_565 S
Co136 O152 2.117 1_565 S
Co136 O153 2.020 . S
Co136 O155 2.021 . S
Co136 O160 2.067 . S
C137 N139 1.316 1_544 S
C137 N140 1.347 . S
C137 H142 0.931 1_554 S
C138 N139 1.375 1_554 S
C138 C141 1.350 . S
C138 H143 0.930 . S
N139 Co134 2.057 1_565 S
N139 C137 1.316 1_566 S
N139 C138 1.375 1_556 S
N140 C137 1.347 . S
N140 C141 1.373 1_545 S
C141 C138 1.350 . S
C141 N140 1.373 1_565 S
C141 H162 0.931 . S
H142 C137 0.931 1_556 S
H143 C138 0.930 . S
C144 O151 1.259 . S
C144 O152 1.258 . S
N145 Co136 2.057 1_545 S
N145 C146 1.316 1_545 S
N145 C147 1.375 . S
C146 N145 1.316 1_565 S
C146 N148 1.347 . S
C146 H157 0.931 . S
C147 N145 1.375 . S
C147 C149 1.350 . S
C147 H156 0.930 . S
N148 C146 1.347 . S
N148 C149 1.373 1_565 S
C149 C147 1.350 . S
C149 N148 1.373 1_545 S
C149 H163 0.931 . S
C150 O153 1.256 . S
C150 O154 1.241 1_565 S
O151 Co134 2.021 . S
O151 C144 1.259 . S
O152 Co136 2.117 1_545 S
O152 C144 1.258 . S
O153 Co136 2.020 . S
O153 C150 1.256 . S
O154 Co134 2.069 . S
O154 C150 1.241 1_545 S
O155 C135 1.259 . S
O155 Co136 2.021 . S
H156 C147 0.930 . S
H157 C146 0.931 . S
O158 Co134 2.117 1_565 S
O158 C135 1.258 . S
O159 Co134 2.020 . S
O159 C161 1.256 . S
O160 Co136 2.067 . S
O160 C161 1.244 1_565 S
C161 O159 1.256 . S
C161 O160 1.244 1_545 S
H162 C141 0.931 . S
H163 C149 0.931 . S
Co164 N169 2.057 . S
Co164 O181 2.021 . S
Co164 O184 2.062 . S
Co164 O188 2.117 . S
Co164 O189 2.020 . S
C165 O185 1.259 . S
C165 O188 1.258 . S
Co166 N175 2.057 . S
Co166 O182 2.117 . S
Co166 O183 2.020 . S
Co166 O185 2.021 . S
Co166 O190 2.062 . S
C167 N169 1.316 . S
C167 N170 1.347 . S
C167 H172 0.931 . S
C168 N169 1.375 . S
C168 C171 1.350 . S
C168 H173 0.930 . S
N169 Co164 2.057 . S
N169 C167 1.316 . S
N169 C168 1.375 . S
N170 C167 1.347 . S
N170 C171 1.373 . S
C171 C168 1.350 . S
C171 N170 1.373 . S
C171 H192 0.931 . S
H172 C167 0.931 . S
H173 C168 0.930 . S
C174 O181 1.259 . S
C174 O182 1.258 . S
N175 Co166 2.057 . S
N175 C176 1.316 . S
N175 C177 1.375 . S
C176 N175 1.316 . S
C176 N178 1.347 . S
C176 H187 0.931 . S
C177 N175 1.375 . S
C177 C179 1.350 . S
C177 H186 0.930 . S
N178 C176 1.347 . S
N178 C179 1.373 . S
C179 C177 1.350 . S
C179 N178 1.373 . S
C179 H193 0.931 . S
C180 O183 1.256 . S
C180 O184 1.255 . S
O181 Co164 2.021 . S
O181 C174 1.259 . S
O182 Co166 2.117 . S
O182 C174 1.258 . S
O183 Co166 2.020 . S
O183 C180 1.256 . S
O184 Co164 2.062 . S
O184 C180 1.255 . S
O185 C165 1.259 . S
O185 Co166 2.021 . S
H186 C177 0.930 . S
H187 C176 0.931 . S
O188 Co164 2.117 . S
O188 C165 1.258 . S
O189 Co164 2.020 . S
O189 C191 1.256 . S
O190 Co166 2.062 . S
O190 C191 1.255 . S
C191 O189 1.256 . S
C191 O190 1.255 . S
H192 C171 0.931 . S
H193 C179 0.931 . S
Co194 N199 2.057 . S
Co194 O211 2.021 1_455 S
Co194 O214 2.062 1_455 S
Co194 O218 2.117 . S
Co194 O219 2.020 . S
C195 O215 1.259 . S
C195 O218 1.258 . S
Co196 N205 2.057 . S
Co196 O212 2.117 1_455 S
Co196 O213 2.020 1_455 S
Co196 O215 2.021 . S
Co196 O220 2.062 . S
C197 N199 1.316 1_655 S
C197 N200 1.347 . S
C197 H202 0.931 . S
C198 N199 1.375 . S
C198 C201 1.350 . S
C198 H203 0.930 . S
N199 Co194 2.057 . S
N199 C197 1.316 1_455 S
N199 C198 1.375 . S
N200 C197 1.347 . S
N200 C201 1.373 1_655 S
C201 C198 1.350 . S
C201 N200 1.373 1_455 S
C201 H222 0.931 . S
H202 C197 0.931 . S
H203 C198 0.930 . S
C204 O211 1.259 . S
C204 O212 1.258 . S
N205 Co196 2.057 . S
N205 C206 1.316 . S
N205 C207 1.375 1_455 S
C206 N205 1.316 . S
C206 N208 1.347 . S
C206 H217 0.931 . S
C207 N205 1.375 1_655 S
C207 C209 1.350 . S
C207 H216 0.930 . S
N208 C206 1.347 . S
N208 C209 1.373 1_455 S
C209 C207 1.350 . S
C209 N208 1.373 1_655 S
C209 H223 0.931 . S
C210 O213 1.256 . S
C210 O214 1.255 . S
O211 Co194 2.021 1_655 S
O211 C204 1.259 . S
O212 Co196 2.117 1_655 S
O212 C204 1.258 . S
O213 Co196 2.020 1_655 S
O213 C210 1.256 . S
O214 Co194 2.062 1_655 S
O214 C210 1.255 . S
O215 C195 1.259 . S
O215 Co196 2.021 . S
H216 C207 0.930 . S
H217 C206 0.931 . S
O218 Co194 2.117 . S
O218 C195 1.258 . S
O219 Co194 2.020 . S
O219 C221 1.256 . S
O220 Co196 2.062 . S
O220 C221 1.255 . S
C221 O219 1.256 . S
C221 O220 1.255 . S
H222 C201 0.931 . S
H223 C209 0.931 . S
H224 C230 0.930 . S
H225 C234 0.930 . S
H226 C239 0.929 . S
H227 C237 0.929 . S
H228 C232 0.929 . S
H229 C238 0.929 . S
C230 H224 0.930 . S
C230 C231 1.367 . S
C230 C238 1.378 . S
C231 C230 1.367 . S
C231 C239 1.433 1_565 S
C232 H228 0.929 . S
C232 C234 1.378 . S
C232 C236 1.350 1_545 S
C233 C236 1.463 . S
C233 C238 1.350 . S
C233 N241 1.427 1_565 S
C234 H225 0.930 . S
C234 C232 1.378 . S
C234 C235 1.367 1_545 S
C235 C234 1.367 1_565 S
C235 C237 1.433 . S
C236 C232 1.350 1_565 S
C236 C233 1.463 . S
C236 N240 1.427 . S
C237 H227 0.929 . S
C237 C235 1.433 . S
C237 N240 1.384 . S
C238 H229 0.929 . S
C238 C230 1.378 . S
C238 C233 1.350 . S
C239 H226 0.929 . S
C239 C231 1.433 1_545 S
C239 N241 1.384 . S
N240 C236 1.427 . S
N240 C237 1.384 . S
N241 C233 1.427 1_545 S
N241 C239 1.384 . S
H242 C248 0.930 . S
H243 C252 0.930 . S
H244 C257 0.929 . S
H245 C255 0.929 . S
H246 C250 0.929 . S
H247 C256 0.929 . S
C248 H242 0.930 . S
C248 C249 1.367 . S
C248 C256 1.378 . S
C249 C248 1.367 . S
C249 C257 1.433 . S
C250 H246 0.929 . S
C250 C252 1.378 . S
C250 C254 1.350 . S
C251 C254 1.463 . S
C251 C256 1.350 . S
C251 N259 1.427 . S
C252 H243 0.930 . S
C252 C250 1.378 . S
C252 C253 1.367 . S
C253 C252 1.367 . S
C253 C255 1.433 . S
C254 C250 1.350 . S
C254 C251 1.463 . S
C254 N258 1.427 . S
C255 H245 0.929 . S
C255 C253 1.433 . S
C255 N258 1.384 . S
C256 H247 0.929 . S
C256 C248 1.378 . S
C256 C251 1.350 . S
C257 H244 0.929 . S
C257 C249 1.433 . S
C257 N259 1.384 . S
N258 C254 1.427 . S
N258 C255 1.384 . S
N259 C251 1.427 . S
N259 C257 1.384 . S
H260 C266 0.930 . S
H261 C270 0.930 . S
H262 C275 0.929 . S
H263 C273 0.929 . S
H264 C268 0.929 . S
H265 C274 0.929 . S
C266 H260 0.930 . S
C266 C267 1.367 . S
C266 C274 1.378 . S
C267 C266 1.367 . S
C267 C275 1.433 . S
C268 H264 0.929 . S
C268 C270 1.378 . S
C268 C272 1.350 . S
C269 C272 1.463 . S
C269 C274 1.350 . S
C269 N277 1.427 . S
C270 H261 0.930 . S
C270 C268 1.378 . S
C270 C271 1.367 . S
C271 C270 1.367 . S
C271 C273 1.433 . S
C272 C268 1.350 . S
C272 C269 1.463 . S
C272 N276 1.427 . S
C273 H263 0.929 . S
C273 C271 1.433 . S
C273 N276 1.384 . S
C274 H265 0.929 . S
C274 C266 1.378 . S
C274 C269 1.350 . S
C275 H262 0.929 . S
C275 C267 1.433 . S
C275 N277 1.384 . S
N276 C272 1.427 . S
N276 C273 1.384 . S
N277 C269 1.427 . S
N277 C275 1.384 . S
H278 C284 0.930 . S
H279 C288 0.930 . S
H280 C293 0.929 . S
H281 C291 0.929 1_655 S
H282 C286 0.929 . S
H283 C292 0.929 . S
C284 H278 0.930 . S
C284 C285 1.367 . S
C284 C292 1.378 . S
C285 C284 1.367 . S
C285 C293 1.433 . S
C286 H282 0.929 . S
C286 C288 1.378 . S
C286 C290 1.350 . S
C287 C290 1.463 . S
C287 C292 1.350 . S
C287 N295 1.427 . S
C288 H279 0.930 . S
C288 C286 1.378 . S
C288 C289 1.367 . S
C289 C288 1.367 . S
C289 C291 1.433 . S
C290 C286 1.350 . S
C290 C287 1.463 . S
C290 N294 1.427 . S
C291 H281 0.929 1_455 S
C291 C289 1.433 . S
C291 N294 1.384 . S
C292 H283 0.929 . S
C292 C284 1.378 . S
C292 C287 1.350 . S
C293 H280 0.929 . S
C293 C285 1.433 . S
C293 N295 1.384 . S
N294 C290 1.427 . S
N294 C291 1.384 . S
N295 C287 1.427 . S
N295 C293 1.384 . S
H296 C302 0.930 1_554 S
H297 C306 0.930 . S
H298 C311 0.929 . S
H299 C309 0.929 . S
H300 C304 0.929 . S
H301 C310 0.929 . S
C302 H296 0.930 1_556 S
C302 C303 1.360 1_566 S
C302 C310 1.378 . S
C303 C302 1.360 1_544 S
C303 C311 1.436 1_554 S
C304 H300 0.929 . S
C304 C306 1.378 . S
C304 C308 1.350 . S
C305 C308 1.463 . S
C305 C310 1.350 1_545 S
C305 N313 1.427 . S
C306 H297 0.930 . S
C306 C304 1.378 . S
C306 C307 1.367 . S
C307 C306 1.367 . S
C307 C309 1.433 1_545 S
C308 C304 1.350 . S
C308 C305 1.463 . S
C308 N312 1.427 1_545 S
C309 H299 0.929 . S
C309 C307 1.433 1_565 S
C309 N312 1.384 . S
C310 H301 0.929 . S
C310 C302 1.378 . S
C310 C305 1.350 1_565 S
C311 H298 0.929 . S
C311 C303 1.436 1_556 S
C311 N313 1.384 . S
N312 C308 1.427 1_565 S
N312 C309 1.384 . S
N313 C305 1.427 . S
N313 C311 1.384 . S
H314 C320 0.930 . S
H315 C324 0.930 . S
H316 C329 0.929 1_556 S
H317 C327 0.929 . S
H318 C322 0.929 . S
H319 C328 0.929 . S
C320 H314 0.930 . S
C320 C321 1.367 . S
C320 C328 1.378 . S
C321 C320 1.367 . S
C321 C329 1.433 . S
C322 H318 0.929 . S
C322 C324 1.378 . S
C322 C326 1.350 . S
C323 C326 1.463 . S
C323 C328 1.350 1_556 S
C323 N331 1.427 . S
C324 H315 0.930 . S
C324 C322 1.378 . S
C324 C325 1.367 . S
C325 C324 1.367 . S
C325 C327 1.433 . S
C326 C322 1.350 . S
C326 C323 1.463 . S
C326 N330 1.427 . S
C327 H317 0.929 . S
C327 C325 1.433 . S
C327 N330 1.384 . S
C328 H319 0.929 . S
C328 C320 1.378 . S
C328 C323 1.350 1_554 S
C329 H316 0.929 1_554 S
C329 C321 1.433 . S
C329 N331 1.384 1_554 S
N330 C326 1.427 . S
N330 C327 1.384 . S
N331 C323 1.427 . S
N331 C329 1.384 1_556 S
H332 C338 0.930 . S
H333 C342 0.930 . S
H334 C347 0.929 . S
H335 C345 0.929 . S
H336 C340 0.929 . S
H337 C346 0.929 1_556 S
C338 H332 0.930 . S
C338 C339 1.367 . S
C338 C346 1.378 . S
C339 C338 1.367 . S
C339 C347 1.433 . S
C340 H336 0.929 . S
C340 C342 1.378 1_554 S
C340 C344 1.350 1_554 S
C341 C344 1.463 1_554 S
C341 C346 1.350 . S
C341 N349 1.427 . S
C342 H333 0.930 . S
C342 C340 1.378 1_556 S
C342 C343 1.367 . S
C343 C342 1.367 . S
C343 C345 1.433 . S
C344 C340 1.350 1_556 S
C344 C341 1.463 1_556 S
C344 N348 1.427 . S
C345 H335 0.929 . S
C345 C343 1.433 . S
C345 N348 1.384 . S
C346 H337 0.929 1_554 S
C346 C338 1.378 . S
C346 C341 1.350 . S
C347 H334 0.929 . S
C347 C339 1.433 . S
C347 N349 1.384 . S
N348 C344 1.427 . S
N348 C345 1.384 . S
N349 C341 1.427 . S
N349 C347 1.384 . S
H350 C356 0.930 . S
H351 C360 0.930 . S
H352 C365 0.929 . S
H353 C363 0.929 . S
H354 C358 0.929 1_455 S
H355 C364 0.929 . S
C356 H350 0.930 . S
C356 C357 1.367 . S
C356 C364 1.378 . S
C357 C356 1.367 . S
C357 C365 1.433 . S
C358 H354 0.929 1_655 S
C358 C360 1.378 1_655 S
C358 C362 1.350 . S
C359 C362 1.463 . S
C359 C364 1.350 1_556 S
C359 N367 1.427 . S
C360 H351 0.930 . S
C360 C358 1.378 1_455 S
C360 C361 1.367 1_455 S
C361 C360 1.367 1_655 S
C361 C363 1.433 . S
C362 C358 1.350 . S
C362 C359 1.463 . S
C362 N366 1.427 . S
C363 H353 0.929 . S
C363 C361 1.433 . S
C363 N366 1.384 . S
C364 H355 0.929 . S
C364 C356 1.378 . S
C364 C359 1.350 1_554 S
C365 H352 0.929 . S
C365 C357 1.433 . S
C365 N367 1.384 1_554 S
N366 C362 1.427 . S
N366 C363 1.384 . S
N367 C359 1.427 . S
N367 C365 1.384 1_556 S
H368 C374 0.930 . S
H369 C378 0.930 . S
H370 C383 0.929 . S
H371 C381 0.929 . S
H372 C376 0.929 . S
H373 C382 0.929 . S
C374 H368 0.930 . S
C374 C375 1.367 . S
C374 C382 1.378 . S
C375 C374 1.367 . S
C375 C383 1.433 . S
C376 H372 0.929 . S
C376 C378 1.378 . S
C376 C380 1.350 . S
C377 C380 1.463 . S
C377 C382 1.350 . S
C377 N385 1.427 . S
C378 H369 0.930 . S
C378 C376 1.378 . S
C378 C379 1.367 . S
C379 C378 1.367 . S
C379 C381 1.433 1_455 S
C380 C376 1.350 . S
C380 C377 1.463 . S
C380 N384 1.427 . S
C381 H371 0.929 . S
C381 C379 1.433 1_655 S
C381 N384 1.384 1_655 S
C382 H373 0.929 . S
C382 C374 1.378 . S
C382 C377 1.350 . S
C383 H370 0.929 . S
C383 C375 1.433 . S
C383 N385 1.384 . S
N384 C380 1.427 . S
N384 C381 1.384 1_455 S
N385 C377 1.427 . S
N385 C383 1.384 . S
H386 C392 0.930 . S
H387 C396 0.930 . S
H388 C401 0.929 . S
H389 C399 0.929 . S
H390 C394 0.929 . S
H391 C400 0.929 . S
C392 H386 0.930 . S
C392 C393 1.387 . S
C392 C400 1.378 . S
C393 C392 1.387 . S
C393 C401 1.412 1_545 S
C394 H390 0.929 . S
C394 C396 1.378 . S
C394 C398 1.350 . S
C395 C398 1.463 . S
C395 C400 1.350 1_565 S
C395 N403 1.427 . S
C396 H387 0.930 . S
C396 C394 1.378 . S
C396 C397 1.367 . S
C397 C396 1.367 . S
C397 C399 1.433 1_565 S
C398 C394 1.350 . S
C398 C395 1.463 . S
C398 N402 1.427 1_565 S
C399 H389 0.929 . S
C399 C397 1.433 1_545 S
C399 N402 1.384 . S
C400 H391 0.929 . S
C400 C392 1.378 . S
C400 C395 1.350 1_545 S
C401 H388 0.929 . S
C401 C393 1.412 1_565 S
C401 N403 1.384 . S
N402 C398 1.427 1_545 S
N402 C399 1.384 . S
N403 C395 1.427 . S
N403 C401 1.384 . S
H404 C410 0.930 . S
H405 C414 0.930 . S
H406 C419 0.929 . S
H407 C417 0.929 . S
H408 C412 0.929 . S
H409 C418 0.929 . S
C410 H404 0.930 . S
C410 C411 1.367 . S
C410 C418 1.378 . S
C411 C410 1.367 . S
C411 C419 1.433 . S
C412 H408 0.929 . S
C412 C414 1.378 . S
C412 C416 1.350 . S
C413 C416 1.463 . S
C413 C418 1.350 . S
C413 N421 1.427 . S
C414 H405 0.930 . S
C414 C412 1.378 . S
C414 C415 1.367 . S
C415 C414 1.367 . S
C415 C417 1.433 . S
C416 C412 1.350 . S
C416 C413 1.463 . S
C416 N420 1.427 . S
C417 H407 0.929 . S
C417 C415 1.433 . S
C417 N420 1.384 . S
C418 H409 0.929 . S
C418 C410 1.378 . S
C418 C413 1.350 . S
C419 H406 0.929 . S
C419 C411 1.433 . S
C419 N421 1.384 . S
N420 C416 1.427 . S
N420 C417 1.384 . S
N421 C413 1.427 . S
N421 C419 1.384 . S
H422 C428 0.930 . S
H423 C432 0.930 . S
H424 C437 0.929 . S
H425 C435 0.929 . S
H426 C430 0.929 . S
H427 C436 0.929 . S
C428 H422 0.930 . S
C428 C429 1.367 . S
C428 C436 1.378 . S
C429 C428 1.367 . S
C429 C437 1.433 . S
C430 H426 0.929 . S
C430 C432 1.378 . S
C430 C434 1.350 . S
C431 C434 1.463 . S
C431 C436 1.350 . S
C431 N439 1.427 . S
C432 H423 0.930 . S
C432 C430 1.378 . S
C432 C433 1.367 . S
C433 C432 1.367 . S
C433 C435 1.433 . S
C434 C430 1.350 . S
C434 C431 1.463 . S
C434 N438 1.427 . S
C435 H425 0.929 . S
C435 C433 1.433 . S
C435 N438 1.384 . S
C436 H427 0.929 . S
C436 C428 1.378 . S
C436 C431 1.350 . S
C437 H424 0.929 . S
C437 C429 1.433 . S
C437 N439 1.384 . S
N438 C434 1.427 . S
N438 C435 1.384 . S
N439 C431 1.427 . S
N439 C437 1.384 . S
H440 C446 0.930 . S
H441 C450 0.930 . S
H442 C455 0.929 . S
H443 C453 0.929 1_554 S
H444 C448 0.929 . S
H445 C454 0.929 . S
C446 H440 0.930 . S
C446 C447 1.367 . S
C446 C454 1.378 . S
C447 C446 1.367 . S
C447 C455 1.433 1_554 S
C448 H444 0.929 . S
C448 C450 1.378 . S
C448 C452 1.350 . S
C449 C452 1.463 . S
C449 C454 1.350 1_556 S
C449 N457 1.427 . S
C450 H441 0.930 . S
C450 C448 1.378 . S
C450 C451 1.367 1_655 S
C451 C450 1.367 1_455 S
C451 C453 1.433 . S
C452 C448 1.350 . S
C452 C449 1.463 . S
C452 N456 1.427 1_556 S
C453 H443 0.929 1_556 S
C453 C451 1.433 . S
C453 N456 1.384 1_456 S
C454 H445 0.929 . S
C454 C446 1.378 . S
C454 C449 1.350 1_554 S
C455 H442 0.929 . S
C455 C447 1.433 1_556 S
C455 N457 1.384 . S
N456 C452 1.427 1_554 S
N456 C453 1.384 1_654 S
N457 C449 1.427 . S
N457 C455 1.384 . S
H458 C464 0.930 . S
H459 C468 0.930 . S
H460 C473 0.929 . S
H461 C471 0.929 . S
H462 C466 0.929 1_554 S
H463 C472 0.929 . S
C464 H458 0.930 . S
C464 C465 1.391 . S
C464 C472 1.378 . S
C465 C464 1.391 . S
C465 C473 1.413 1_546 S
C466 H462 0.929 1_556 S
C466 C468 1.378 . S
C466 C470 1.350 1_565 S
C467 C470 1.463 . S
C467 C472 1.350 . S
C467 N475 1.427 1_546 S
C468 H459 0.930 . S
C468 C466 1.378 . S
C468 C469 1.367 1_565 S
C469 C468 1.367 1_545 S
C469 C471 1.433 . S
C470 C466 1.350 1_545 S
C470 C467 1.463 . S
C470 N474 1.427 . S
C471 H461 0.929 . S
C471 C469 1.433 . S
C471 N474 1.384 . S
C472 H463 0.929 . S
C472 C464 1.378 . S
C472 C467 1.350 . S
C473 H460 0.929 . S
C473 C465 1.413 1_564 S
C473 N475 1.384 . S
N474 C470 1.427 . S
N474 C471 1.384 . S
N475 C467 1.427 1_564 S
N475 C473 1.384 . S
H476 C482 0.930 . S
H477 C486 0.930 1_554 S
H478 C491 0.929 . S
H479 C489 0.929 . S
H480 C484 0.929 . S
H481 C490 0.929 . S
C482 H476 0.930 . S
C482 C483 1.367 1_556 S
C482 C490 1.378 . S
C483 C482 1.367 1_554 S
C483 C491 1.433 . S
C484 H480 0.929 . S
C484 C486 1.378 1_554 S
C484 C488 1.350 1_554 S
C485 C488 1.461 1_554 S
C485 C490 1.349 1_554 S
C485 N493 1.430 . S
C486 H477 0.930 1_556 S
C486 C484 1.378 1_556 S
C486 C487 1.367 . S
C487 C486 1.367 . S
C487 C489 1.433 . S
C488 C484 1.350 1_556 S
C488 C485 1.461 1_556 S
C488 N492 1.427 . S
C489 H479 0.929 . S
C489 C487 1.433 . S
C489 N492 1.384 . S
C490 H481 0.929 . S
C490 C482 1.378 . S
C490 C485 1.349 1_556 S
C491 H478 0.929 . S
C491 C483 1.433 . S
C491 N493 1.384 . S
N492 C488 1.427 . S
N492 C489 1.384 . S
N493 C485 1.430 . S
N493 C491 1.384 . S
H494 C500 0.930 . S
H495 C504 0.930 . S
H496 C509 0.929 . S
H497 C507 0.929 . S
H498 C502 0.929 . S
H499 C508 0.929 . S
C500 H494 0.930 . S
C500 C501 1.367 . S
C500 C508 1.378 . S
C501 C500 1.367 . S
C501 C509 1.433 . S
C502 H498 0.929 . S
C502 C504 1.378 . S
C502 C506 1.357 . S
C503 C506 1.457 1_554 S
C503 C508 1.350 . S
C503 N511 1.427 . S
C504 H495 0.930 . S
C504 C502 1.378 . S
C504 C505 1.367 . S
C505 C504 1.367 . S
C505 C507 1.433 . S
C506 C502 1.357 . S
C506 C503 1.457 1_556 S
C506 N510 1.426 1_556 S
C507 H497 0.929 . S
C507 C505 1.433 . S
C507 N510 1.384 1_556 S
C508 H499 0.929 . S
C508 C500 1.378 . S
C508 C503 1.350 . S
C509 H496 0.929 . S
C509 C501 1.433 . S
C509 N511 1.384 . S
N510 C506 1.426 1_554 S
N510 C507 1.384 1_554 S
N511 C503 1.427 . S
N511 C509 1.384 . S
H512 C518 0.930 . S
H513 C522 0.930 . S
H514 C527 0.929 . S
H515 C525 0.929 . S
H516 C520 0.929 . S
H517 C526 0.929 . S
C518 H512 0.930 . S
C518 C519 1.367 . S
C518 C526 1.378 . S
C519 C518 1.367 . S
C519 C527 1.433 . S
C520 H516 0.929 . S
C520 C522 1.378 . S
C520 C524 1.350 . S
C521 C524 1.463 . S
C521 C526 1.350 . S
C521 N529 1.427 . S
C522 H513 0.930 . S
C522 C520 1.378 . S
C522 C523 1.367 . S
C523 C522 1.367 . S
C523 C525 1.433 . S
C524 C520 1.350 . S
C524 C521 1.463 . S
C524 N528 1.427 . S
C525 H515 0.929 . S
C525 C523 1.433 . S
C525 N528 1.384 . S
C526 H517 0.929 . S
C526 C518 1.378 . S
C526 C521 1.350 . S
C527 H514 0.929 . S
C527 C519 1.433 . S
C527 N529 1.384 . S
N528 C524 1.427 . S
N528 C525 1.384 . S
N529 C521 1.427 . S
N529 C527 1.384 . S
H530 C536 0.930 . S
H531 C540 0.930 . S
H532 C545 0.929 . S
H533 C543 0.929 . S
H534 C538 0.929 . S
H535 C544 0.929 . S
C536 H530 0.930 . S
C536 C537 1.352 1_565 S
C536 C544 1.378 . S
C537 C536 1.352 1_545 S
C537 C545 1.448 . S
C538 H534 0.929 . S
C538 C540 1.378 . S
C538 C542 1.350 . S
C539 C542 1.463 . S
C539 C544 1.350 1_545 S
C539 N547 1.427 . S
C540 H531 0.930 . S
C540 C538 1.378 . S
C540 C541 1.367 . S
C541 C540 1.367 . S
C541 C543 1.433 1_545 S
C542 C538 1.350 . S
C542 C539 1.463 . S
C542 N546 1.427 1_545 S
C543 H533 0.929 . S
C543 C541 1.433 1_565 S
C543 N546 1.384 . S
C544 H535 0.929 . S
C544 C536 1.378 . S
C544 C539 1.350 1_565 S
C545 H532 0.929 . S
C545 C537 1.448 . S
C545 N547 1.384 . S
N546 C542 1.427 1_565 S
N546 C543 1.384 . S
N547 C539 1.427 . S
N547 C545 1.384 . S
H548 C554 0.930 . S
H549 C558 0.930 . S
H550 C563 0.929 . S
H551 C561 0.929 . S
H552 C556 0.929 . S
H553 C562 0.929 . S
C554 H548 0.930 . S
C554 C555 1.367 . S
C554 C562 1.378 . S
C555 C554 1.367 . S
C555 C563 1.433 . S
C556 H552 0.929 . S
C556 C558 1.378 1_554 S
C556 C560 1.350 . S
C557 C560 1.463 . S
C557 C562 1.350 . S
C557 N565 1.427 . S
C558 H549 0.930 . S
C558 C556 1.378 1_556 S
C558 C559 1.367 1_556 S
C559 C558 1.367 1_554 S
C559 C561 1.433 . S
C560 C556 1.350 . S
C560 C557 1.463 . S
C560 N564 1.427 . S
C561 H551 0.929 . S
C561 C559 1.433 . S
C561 N564 1.384 . S
C562 H553 0.929 . S
C562 C554 1.378 . S
C562 C557 1.350 . S
C563 H550 0.929 . S
C563 C555 1.433 . S
C563 N565 1.384 . S
N564 C560 1.427 . S
N564 C561 1.384 . S
N565 C557 1.427 . S
N565 C563 1.384 . S
H566 C572 0.930 . S
H567 C576 0.930 . S
H568 C581 0.929 . S
H569 C579 0.929 . S
H570 C574 0.929 . S
H571 C580 0.929 . S
C572 H566 0.930 . S
C572 C573 1.367 . S
C572 C580 1.378 . S
C573 C572 1.367 . S
C573 C581 1.433 . S
C574 H570 0.929 . S
C574 C576 1.378 1_554 S
C574 C578 1.350 . S
C575 C578 1.463 . S
C575 C580 1.350 . S
C575 N583 1.427 . S
C576 H567 0.930 . S
C576 C574 1.378 1_556 S
C576 C577 1.367 . S
C577 C576 1.367 . S
C577 C579 1.433 1_556 S
C578 C574 1.350 . S
C578 C575 1.463 . S
C578 N582 1.427 . S
C579 H569 0.929 . S
C579 C577 1.433 1_554 S
C579 N582 1.384 . S
C580 H571 0.929 . S
C580 C572 1.378 . S
C580 C575 1.350 . S
C581 H568 0.929 . S
C581 C573 1.433 . S
C581 N583 1.384 . S
N582 C578 1.427 . S
N582 C579 1.384 . S
N583 C575 1.427 . S
N583 C581 1.384 . S
H584 C590 0.930 . S
H585 C594 0.930 . S
H586 C599 0.929 . S
H587 C597 0.929 . S
H588 C592 0.929 . S
H589 C598 0.929 . S
C590 H584 0.930 . S
C590 C591 1.367 . S
C590 C598 1.378 . S
C591 C590 1.367 . S
C591 C599 1.433 . S
C592 H588 0.929 . S
C592 C594 1.378 . S
C592 C596 1.350 . S
C593 C596 1.463 . S
C593 C598 1.350 . S
C593 N601 1.427 . S
C594 H585 0.930 . S
C594 C592 1.378 . S
C594 C595 1.367 . S
C595 C594 1.367 . S
C595 C597 1.433 . S
C596 C592 1.350 . S
C596 C593 1.463 . S
C596 N600 1.427 . S
C597 H587 0.929 . S
C597 C595 1.433 . S
C597 N600 1.384 . S
C598 H589 0.929 . S
C598 C590 1.378 . S
C598 C593 1.350 . S
C599 H586 0.929 . S
C599 C591 1.433 . S
C599 N601 1.384 . S
N600 C596 1.427 . S
N600 C597 1.384 . S
N601 C593 1.427 . S
N601 C599 1.384 . S
H602 C608 0.930 . S
H603 C612 0.930 . S
H604 C617 0.929 . S
H605 C615 0.923 1_545 S
H606 C610 0.929 . S
H607 C616 0.929 . S
C608 H602 0.930 . S
C608 C609 1.356 1_545 S
C608 C616 1.378 . S
C609 C608 1.356 1_565 S
C609 C617 1.443 . S
C610 H606 0.929 . S
C610 C612 1.378 . S
C610 C614 1.350 . S
C611 C614 1.463 . S
C611 C616 1.350 1_565 S
C611 N619 1.427 . S
C612 H603 0.930 . S
C612 C610 1.378 . S
C612 C613 1.367 . S
C613 C612 1.367 . S
C613 C615 1.439 . S
C614 C610 1.350 . S
C614 C611 1.463 . S
C614 N618 1.427 1_565 S
C615 H605 0.923 1_565 S
C615 C613 1.439 . S
C615 N618 1.385 1_565 S
C616 H607 0.929 . S
C616 C608 1.378 . S
C616 C611 1.350 1_545 S
C617 H604 0.929 . S
C617 C609 1.443 . S
C617 N619 1.384 . S
N618 C614 1.427 1_545 S
N618 C615 1.385 1_545 S
N619 C611 1.427 . S
N619 C617 1.384 . S
H620 C626 0.930 . S
H621 C630 0.930 . S
H622 C635 0.929 . S
H623 C633 0.929 . S
H624 C628 0.929 . S
H625 C634 0.929 . S
C626 H620 0.930 . S
C626 C627 1.367 . S
C626 C634 1.378 . S
C627 C626 1.367 . S
C627 C635 1.433 . S
C628 H624 0.929 . S
C628 C630 1.378 . S
C628 C632 1.350 . S
C629 C632 1.463 . S
C629 C634 1.350 . S
C629 N637 1.427 . S
C630 H621 0.930 . S
C630 C628 1.378 . S
C630 C631 1.367 . S
C631 C630 1.367 . S
C631 C633 1.433 . S
C632 C628 1.350 . S
C632 C629 1.463 . S
C632 N636 1.427 . S
C633 H623 0.929 . S
C633 C631 1.433 . S
C633 N636 1.384 . S
C634 H625 0.929 . S
C634 C626 1.378 . S
C634 C629 1.350 . S
C635 H622 0.929 . S
C635 C627 1.433 . S
C635 N637 1.384 . S
N636 C632 1.427 . S
N636 C633 1.384 . S
N637 C629 1.427 . S
N637 C635 1.384 . S
H638 C644 0.930 . S
H639 C648 0.930 . S
H640 C653 0.929 . S
H641 C651 0.929 . S
H642 C646 0.929 . S
H643 C652 0.929 . S
C644 H638 0.930 . S
C644 C645 1.367 . S
C644 C652 1.378 . S
C645 C644 1.367 . S
C645 C653 1.433 . S
C646 H642 0.929 . S
C646 C648 1.378 . S
C646 C650 1.350 . S
C647 C650 1.463 . S
C647 C652 1.350 . S
C647 N655 1.427 . S
C648 H639 0.930 . S
C648 C646 1.378 . S
C648 C649 1.367 . S
C649 C648 1.367 . S
C649 C651 1.433 . S
C650 C646 1.350 . S
C650 C647 1.463 . S
C650 N654 1.427 . S
C651 H641 0.929 . S
C651 C649 1.433 . S
C651 N654 1.384 . S
C652 H643 0.929 . S
C652 C644 1.378 . S
C652 C647 1.350 . S
C653 H640 0.929 . S
C653 C645 1.433 . S
C653 N655 1.384 . S
N654 C650 1.427 . S
N654 C651 1.384 . S
N655 C647 1.427 . S
N655 C653 1.384 . S
C231 N80 1.699 . S
C235 C114 1.701 . S
C253 C144 1.819 . S
C249 N93 1.803 . S
C271 N178 1.362 . S
C267 N54 1.410 . S
C289 N208 1.388 . S
C285 N67 1.405 . S
C307 C105 1.704 . S
C303 N28 1.709 1_545 S
C321 N41 1.816 . S
C325 C135 1.824 . S
C339 N2 1.406 . S
C343 N170 1.357 . S
C357 N15 1.420 . S
C361 N200 1.380 . S
C379 C120 0.396 . S
C375 N70 0.402 . S
C397 C150 0.783 . S
C393 N83 0.778 1_545 S
C415 C191 1.055 . S
C411 N96 1.061 . S
C429 N57 0.595 . S
C433 C221 0.590 . S
C447 N18 0.402 . S
C451 C131 0.393 1_455 S
C469 C161 0.775 . S
C465 N31 0.774 1_546 S
C487 C180 1.061 . S
C483 N44 1.061 . S
C501 N5 0.604 . S
C505 C210 0.606 . S
C519 N66 1.483 . S
C523 N110 1.460 . S
C537 N79 1.468 1_545 S
C541 N140 1.436 . S
C559 C165 1.655 1_554 S
C555 N92 1.650 . S
C577 C195 1.598 . S
C573 N53 1.596 . S
C591 N14 1.500 . S
C595 N118 1.461 . S
C613 N148 1.431 . S
C609 N27 1.472 . S
C631 C174 1.655 . S
C627 N40 1.656 . S
C645 N1 1.596 . S
C649 C204 1.598 . S
