# Generated by pormake.
# Topology apo, (3,6)-cn, num edge types: 1
# Building blocks:
#     Node 0, Type 0, BuildingBlock: CUQRIR_clean_linker_1, # of connection points: 3
#     Node 1, Type 0, BuildingBlock: CUQRIR_clean_linker_1, # of connection points: 3
#     Node 2, Type 0, BuildingBlock: CUQRIR_clean_linker_1, # of connection points: 3
#     Node 3, Type 0, BuildingBlock: CUQRIR_clean_linker_1, # of connection points: 3
#     Node 4, Type 0, BuildingBlock: CUQRIR_clean_linker_1, # of connection points: 3
#     Node 5, Type 0, BuildingBlock: CUQRIR_clean_linker_1, # of connection points: 3
#     Node 6, Type 0, BuildingBlock: CUQRIR_clean_linker_1, # of connection points: 3
#     Node 7, Type 0, BuildingBlock: CUQRIR_clean_linker_1, # of connection points: 3
#     Node 8, Type 1, BuildingBlock: KUMBUR_clean_sbu_1, # of connection points: 6
#     Node 9, Type 1, BuildingBlock: KUMBUR_clean_sbu_1, # of connection points: 6
#     Node 10, Type 1, BuildingBlock: KUMBUR_clean_sbu_1, # of connection points: 6
#     Node 11, Type 1, BuildingBlock: KUMBUR_clean_sbu_1, # of connection points: 6
#     Edge 12, Type (0, 1), BuildingBlock: CIFDUS_clean_linker_0, # of connection points: 2
#     Edge 13, Type (0, 1), BuildingBlock: CIFDUS_clean_linker_0, # of connection points: 2
#     Edge 14, Type (0, 1), BuildingBlock: CIFDUS_clean_linker_0, # of connection points: 2
#     Edge 15, Type (0, 1), BuildingBlock: CIFDUS_clean_linker_0, # of connection points: 2
#     Edge 16, Type (0, 1), BuildingBlock: CIFDUS_clean_linker_0, # of connection points: 2
#     Edge 17, Type (0, 1), BuildingBlock: CIFDUS_clean_linker_0, # of connection points: 2
#     Edge 18, Type (0, 1), BuildingBlock: CIFDUS_clean_linker_0, # of connection points: 2
#     Edge 19, Type (0, 1), BuildingBlock: CIFDUS_clean_linker_0, # of connection points: 2
#     Edge 20, Type (0, 1), BuildingBlock: CIFDUS_clean_linker_0, # of connection points: 2
#     Edge 21, Type (0, 1), BuildingBlock: CIFDUS_clean_linker_0, # of connection points: 2
#     Edge 22, Type (0, 1), BuildingBlock: CIFDUS_clean_linker_0, # of connection points: 2
#     Edge 23, Type (0, 1), BuildingBlock: CIFDUS_clean_linker_0, # of connection points: 2
#     Edge 24, Type (0, 1), BuildingBlock: CIFDUS_clean_linker_0, # of connection points: 2
#     Edge 25, Type (0, 1), BuildingBlock: CIFDUS_clean_linker_0, # of connection points: 2
#     Edge 26, Type (0, 1), BuildingBlock: CIFDUS_clean_linker_0, # of connection points: 2
#     Edge 27, Type (0, 1), BuildingBlock: CIFDUS_clean_linker_0, # of connection points: 2
#     Edge 28, Type (0, 1), BuildingBlock: CIFDUS_clean_linker_0, # of connection points: 2
#     Edge 29, Type (0, 1), BuildingBlock: CIFDUS_clean_linker_0, # of connection points: 2
#     Edge 30, Type (0, 1), BuildingBlock: CIFDUS_clean_linker_0, # of connection points: 2
#     Edge 31, Type (0, 1), BuildingBlock: CIFDUS_clean_linker_0, # of connection points: 2
#     Edge 32, Type (0, 1), BuildingBlock: CIFDUS_clean_linker_0, # of connection points: 2
#     Edge 33, Type (0, 1), BuildingBlock: CIFDUS_clean_linker_0, # of connection points: 2
#     Edge 34, Type (0, 1), BuildingBlock: CIFDUS_clean_linker_0, # of connection points: 2
#     Edge 35, Type (0, 1), BuildingBlock: CIFDUS_clean_linker_0, # of connection points: 2
# Relax obj value: 0.044
# Max RMSD: 0.236
# Mean RMSD: 0.183
data_MOF--net-apo--node1-KUMBUR_clean_sbu_1--node2-CUQRIR_clean_linker_1--edge1-CIFDUS_clean_linker_0
_symmetry_space_group_name_H-M    P1
_symmetry_Int_Tables_number       1
_symmetry_cell_setting            triclinic
loop_
_symmetry_equiv_pos_as_xyz
'x, y, z'
_cell_length_a     22.710704
_cell_length_b     33.720249
_cell_length_c     41.539539
_cell_angle_alpha  89.827512
_cell_angle_beta   90.45678
_cell_angle_gamma 90.38714
loop_
_atom_site_label
_atom_site_type_symbol
_atom_site_fract_x
_atom_site_fract_y
_atom_site_fract_z
_atom_type_partial_charge
C0 C 0.24716 0.341 0.41721 0.0
N1 N 0.28983 0.36922 0.41941 0.0
N2 N 0.2308 0.33534 0.38609 0.0
C3 C 0.22342 0.31776 0.44533 0.0
C4 C 0.2652 0.361 0.36943 0.0
N5 N 0.30136 0.38131 0.38963 0.0
C6 C 0.26427 0.36544 0.33333 0.0
H7 H 0.25777 0.29702 0.45411 0.0
H8 H 0.18318 0.30075 0.4388 0.0
H9 H 0.21247 0.33788 0.4654 0.0
H10 H 0.22806 0.38575 0.3264 0.0
H11 H 0.2559 0.33637 0.32164 0.0
H12 H 0.306 0.37811 0.3241 0.0
C13 C 0.22225 0.19817 0.92669 0.0
N14 N 0.19159 0.16348 0.92736 0.0
N15 N 0.23809 0.20745 0.89619 0.0
C16 C 0.24117 0.22128 0.95597 0.0
C17 C 0.21641 0.17704 0.87833 0.0
N18 N 0.1884 0.15022 0.89727 0.0
C19 C 0.22017 0.17457 0.84227 0.0
H20 H 0.2052 0.24162 0.96281 0.0
H21 H 0.2812 0.23928 0.95108 0.0
H22 H 0.25011 0.20112 0.97656 0.0
H23 H 0.25886 0.15638 0.83586 0.0
H24 H 0.22566 0.20444 0.83139 0.0
H25 H 0.1802 0.16013 0.83202 0.0
C26 C 0.75521 0.18972 0.63226 0.0
N27 N 0.79093 0.15779 0.62999 0.0
N28 N 0.73007 0.1913 0.66171 0.0
C29 C 0.74999 0.22161 0.60694 0.0
C30 C 0.7522 0.15928 0.67733 0.0
N31 N 0.79019 0.13934 0.65834 0.0
C32 C 0.73192 0.14511 0.70987 0.0
H33 H 0.79028 0.2233 0.59205 0.0
H34 H 0.7426 0.251 0.61806 0.0
H35 H 0.71205 0.21462 0.5909 0.0
H36 H 0.6861 0.15465 0.71447 0.0
H37 H 0.76095 0.15785 0.72884 0.0
H38 H 0.73404 0.1123 0.71156 0.0
C39 C 0.76258 0.33222 0.12805 0.0
N40 N 0.729 0.36527 0.12627 0.0
N41 N 0.78626 0.32817 0.15786 0.0
C42 C 0.76758 0.30194 0.10165 0.0
C43 C 0.76593 0.35984 0.17417 0.0
N44 N 0.72992 0.38201 0.15526 0.0
C45 C 0.78635 0.37118 0.20753 0.0
H46 H 0.72773 0.30181 0.08603 0.0
H47 H 0.77387 0.27176 0.11175 0.0
H48 H 0.80623 0.30945 0.08659 0.0
H49 H 0.78599 0.40385 0.21064 0.0
H50 H 0.83155 0.36016 0.21224 0.0
H51 H 0.75659 0.35764 0.22559 0.0
C52 C 0.73452 0.68406 0.63013 0.0
N53 N 0.70201 0.65015 0.62807 0.0
N54 N 0.74677 0.69295 0.66127 0.0
C55 C 0.75195 0.70959 0.60199 0.0
C56 C 0.72004 0.66373 0.67817 0.0
N57 N 0.69239 0.63793 0.65811 0.0
C58 C 0.72083 0.66043 0.7143 0.0
H59 H 0.79246 0.69739 0.59117 0.0
H60 H 0.76131 0.74051 0.60959 0.0
H61 H 0.71671 0.70959 0.58333 0.0
H62 H 0.75809 0.67739 0.725 0.0
H63 H 0.72377 0.6289 0.72183 0.0
H64 H 0.67914 0.67255 0.72378 0.0
C65 C 0.7351 0.84666 0.12908 0.0
N66 N 0.76648 0.88098 0.12602 0.0
N67 N 0.71643 0.84186 0.15976 0.0
C68 C 0.71784 0.81964 0.10181 0.0
C69 C 0.73694 0.87432 0.17526 0.0
N70 N 0.76683 0.89819 0.15485 0.0
C71 C 0.72918 0.88218 0.21063 0.0
H72 H 0.71123 0.83672 0.07921 0.0
H73 H 0.67686 0.80298 0.10741 0.0
H74 H 0.75351 0.79788 0.098 0.0
H75 H 0.72182 0.8542 0.22417 0.0
H76 H 0.69031 0.90149 0.21383 0.0
H77 H 0.76824 0.8978 0.2208 0.0
C78 C 0.21753 0.80862 0.41997 0.0
N79 N 0.18418 0.84183 0.42148 0.0
N80 N 0.23605 0.80243 0.38946 0.0
C81 C 0.23257 0.78262 0.4484 0.0
C82 C 0.21229 0.83272 0.37237 0.0
N83 N 0.18033 0.8565 0.39175 0.0
C84 C 0.21988 0.83908 0.33662 0.0
H85 H 0.2677 0.79725 0.46286 0.0
H86 H 0.24906 0.75322 0.44117 0.0
H87 H 0.19348 0.77852 0.46395 0.0
H88 H 0.25407 0.82016 0.32599 0.0
H89 H 0.23066 0.87063 0.33159 0.0
H90 H 0.17801 0.8317 0.32407 0.0
C91 C 0.28725 0.70557 0.92061 0.0
N92 N 0.30978 0.66894 0.92553 0.0
N93 N 0.28477 0.71441 0.88886 0.0
C94 C 0.26878 0.73315 0.94704 0.0
C95 C 0.30722 0.68185 0.87453 0.0
N96 N 0.32135 0.65351 0.89674 0.0
C97 C 0.31749 0.6788 0.83875 0.0
H98 H 0.2265 0.72237 0.95715 0.0
H99 H 0.26305 0.76388 0.93801 0.0
H100 H 0.30189 0.73321 0.96682 0.0
H101 H 0.34947 0.65526 0.83291 0.0
H102 H 0.33546 0.70688 0.82904 0.0
H103 H 0.27495 0.67294 0.82627 0.0
Tb104 Tb 0.07337 0.11581 0.24753 0.0
C105 C 0.86255 0.02237 0.30271 0.0
N106 N 0.86624 0.062 0.29754 0.0
C107 C 0.77061 0.06122 0.27258 0.0
C108 C 0.81421 0.99999 0.2913 0.0
C109 C 0.81977 0.08206 0.28436 0.0
C110 C 0.76846 0.01987 0.27538 0.0
C111 C 0.90029 0.96492 0.33079 0.0
C112 C 0.905 1.00518 0.32196 0.0
C113 C 0.85492 0.9415 0.31738 0.0
C114 C 0.81189 0.95904 0.29761 0.0
Tb115 Tb 0.94954 0.09296 0.31609 0.0
N116 N 0.94691 0.02916 0.335 0.0
C117 C 0.93893 0.95022 0.35431 0.0
C118 C 0.98064 0.01603 0.36018 0.0
C119 C 0.97807 0.97621 0.36976 0.0
H120 H 0.82174 0.11395 0.28201 0.0
H121 H 0.00618 0.96562 0.38907 0.0
H122 H 0.17558 0.04725 0.26741 0.0
H123 H 0.09543 0.27425 0.23653 0.0
H124 H 0.0102 0.03622 0.37257 0.0
H125 H 0.9368 0.91947 0.36188 0.0
H126 H 0.04932 0.20842 0.2272 0.0
H127 H 0.73468 0.07699 0.26119 0.0
H128 H 0.85109 0.91031 0.3234 0.0
H129 H 0.77567 0.94108 0.28856 0.0
H130 H 0.26821 0.04561 0.29809 0.0
H131 H 0.73044 1.00379 0.26623 0.0
H132 H 0.1872 0.27949 0.26893 0.0
N133 N 0.16365 0.10974 0.27274 0.0
C134 C 0.19083 0.14439 0.28081 0.0
C135 C 0.24635 0.0736 0.29393 0.0
C136 C 0.24532 0.14499 0.29732 0.0
C137 C 0.19274 0.07467 0.27713 0.0
C138 C 0.27219 0.10887 0.30469 0.0
N139 N 0.11364 0.17736 0.25453 0.0
C140 C 0.08944 0.21063 0.2412 0.0
C141 C 0.19337 0.21613 0.27684 0.0
C142 C 0.16555 0.17941 0.27074 0.0
C143 C 0.16733 0.25066 0.26468 0.0
C144 C 0.11546 0.24782 0.24644 0.0
H145 H 0.31403 0.10798 0.31738 0.0
H146 H 0.31357 0.1826 0.31797 0.0
H147 H 0.26781 0.24503 0.30009 0.0
O148 O 0.05516 0.13071 0.19932 0.0
O149 O 0.04749 0.15737 0.28532 0.0
O150 O 0.03475 0.11886 0.32973 0.0
O151 O 0.1377 0.10482 0.21235 0.0
O152 O 0.98585 0.13998 0.23708 0.0
O153 O 0.93161 0.14436 0.28489 0.0
O154 O 0.90773 0.08716 0.36113 0.0
O155 O 0.93237 0.0752 0.26544 0.0
O156 O 0.02272 0.06078 0.24303 0.0
O157 O 0.91361 0.1436 0.3377 0.0
O158 O 0.04068 0.07251 0.32177 0.0
O159 O 0.0734 0.05708 0.27113 0.0
C160 C 0.05556 0.15105 0.31609 0.0
C161 C 0.10024 0.09181 0.16005 0.0
C162 C 0.10128 0.08611 0.10131 0.0
C163 C 0.08782 0.04546 0.1044 0.0
C164 C 0.0868 0.0513 0.16258 0.0
C165 C 0.08067 0.02829 0.13483 0.0
C166 C 0.10749 0.10902 0.12949 0.0
C167 C 0.94276 0.15453 0.25467 0.0
C168 C 0.10459 0.11709 0.18878 0.0
C169 C 0.2721 0.18154 0.30491 0.0
C170 C 0.24621 0.21708 0.29462 0.0
C171 C 0.96535 0.0557 0.24489 0.0
C172 C 0.92196 0.14269 0.39472 0.0
C173 C 0.91494 0.1495 0.45337 0.0
C174 C 0.96336 0.17579 0.4527 0.0
C175 C 0.96976 0.16931 0.39489 0.0
C176 C 0.89485 0.13276 0.42407 0.0
C177 C 0.99053 0.18544 0.42369 0.0
C178 C 0.06727 0.04848 0.30192 0.0
C179 C 0.90038 0.12503 0.3642 0.0
H180 H 0.08196 0.02704 0.08329 0.0
H181 H 0.08088 0.03762 0.18595 0.0
H182 H 0.06997 0.99706 0.13691 0.0
H183 H 0.11836 0.14031 0.12777 0.0
H184 H 0.9793 0.18997 0.47447 0.0
H185 H 0.99078 0.17797 0.37274 0.0
H186 H 0.85811 0.11208 0.42398 0.0
H187 H 0.02733 0.20603 0.42346 0.0
Tb188 Tb 0.42615 0.39966 0.74537 0.0
C189 C 0.64594 0.48765 0.78275 0.0
N190 N 0.63598 0.44794 0.78343 0.0
C191 C 0.72186 0.4377 0.75125 0.0
C192 C 0.69266 0.50424 0.76498 0.0
C193 C 0.67468 0.42278 0.76918 0.0
C194 C 0.73039 0.47866 0.74872 0.0
C195 C 0.61774 0.55291 0.80065 0.0
C196 C 0.60897 0.51148 0.80013 0.0
C197 C 0.66257 0.56997 0.78188 0.0
C198 C 0.70009 0.54563 0.76412 0.0
Tb199 Tb 0.55507 0.42636 0.81133 0.0
N200 N 0.56625 0.49372 0.81783 0.0
C201 C 0.58243 0.57568 0.8208 0.0
C202 C 0.5364 0.51537 0.83997 0.0
C203 C 0.54254 0.55666 0.84118 0.0
H204 H 0.66929 0.39122 0.7715 0.0
H205 H 0.51752 0.57364 0.85834 0.0
H206 H 0.31444 0.46194 0.74236 0.0
H207 H 0.41943 0.23878 0.74736 0.0
H208 H 0.51005 0.50064 0.85765 0.0
H209 H 0.58764 0.6076 0.82195 0.0
H210 H 0.46214 0.30435 0.73455 0.0
H211 H 0.75167 0.4176 0.73946 0.0
H212 H 0.66945 0.60179 0.78154 0.0
H213 H 0.73513 0.55903 0.75018 0.0
H214 H 0.21194 0.46396 0.76258 0.0
H215 H 0.76675 0.49017 0.73469 0.0
H216 H 0.32229 0.23405 0.77381 0.0
N217 N 0.329 0.4031 0.75853 0.0
C218 C 0.3038 0.36901 0.76913 0.0
C219 C 0.23762 0.4372 0.76511 0.0
C220 C 0.24529 0.36811 0.78013 0.0
C221 C 0.29574 0.43625 0.75418 0.0
C222 C 0.21272 0.4032 0.77893 0.0
N223 N 0.38967 0.33659 0.75306 0.0
C224 C 0.41901 0.30267 0.74513 0.0
C225 C 0.30921 0.29759 0.7741 0.0
C226 C 0.33504 0.33434 0.76594 0.0
C227 C 0.34049 0.2629 0.76778 0.0
C228 C 0.39521 0.26545 0.75274 0.0
H229 H 0.16755 0.40384 0.78709 0.0
H230 H 0.176 0.3307 0.79952 0.0
H231 H 0.23228 0.26884 0.79444 0.0
O232 O 0.46069 0.40913 0.69915 0.0
O233 O 0.45485 0.36043 0.78392 0.0
O234 O 0.47623 0.39503 0.82939 0.0
O235 O 0.36925 0.39547 0.70503 0.0
O236 O 0.5138 0.37327 0.73705 0.0
O237 O 0.56651 0.37014 0.78578 0.0
O238 O 0.59395 0.44063 0.85624 0.0
O239 O 0.55273 0.44174 0.75986 0.0
O240 O 0.4597 0.46019 0.74715 0.0
O241 O 0.60861 0.38419 0.83444 0.0
O242 O 0.46641 0.44726 0.82419 0.0
O243 O 0.40737 0.45073 0.77748 0.0
C244 C 0.44682 0.36671 0.8145 0.0
C245 C 0.4136 0.37553 0.65646 0.0
C246 C 0.39919 0.36439 0.59873 0.0
C247 C 0.42256 0.32608 0.60257 0.0
C248 C 0.43614 0.33716 0.65964 0.0
C249 C 0.44078 0.31265 0.63283 0.0
C250 C 0.3949 0.38904 0.62599 0.0
C251 C 0.55735 0.35959 0.75545 0.0
C252 C 0.41097 0.4021 0.68449 0.0
C253 C 0.22054 0.33195 0.7904 0.0
C254 C 0.25251 0.29671 0.78741 0.0
C255 C 0.51615 0.46798 0.74803 0.0
C256 C 0.59666 0.38523 0.89087 0.0
C257 C 0.60589 0.37741 0.94937 0.0
C258 C 0.56072 0.34862 0.94832 0.0
C259 C 0.55213 0.35609 0.89063 0.0
C260 C 0.62341 0.39584 0.92033 0.0
C261 C 0.53412 0.33817 0.91918 0.0
C262 C 0.41982 0.46025 0.8079 0.0
C263 C 0.61408 0.40509 0.86057 0.0
H264 H 0.42549 0.30609 0.5823 0.0
H265 H 0.45035 0.32627 0.6828 0.0
H266 H 0.45825 0.28303 0.63554 0.0
H267 H 0.37758 0.41878 0.6235 0.0
H268 H 0.547 0.33321 0.96994 0.0
H269 H 0.5314 0.34692 0.86834 0.0
H270 H 0.65766 0.41838 0.92059 0.0
H271 H 0.49986 0.31569 0.91865 0.0
Tb272 Tb 0.06004 0.9113 0.7406 0.0
C273 C 0.80555 0.88236 0.78368 0.0
N274 N 0.83839 0.91621 0.78601 0.0
C275 C 0.75724 0.95425 0.76565 0.0
C276 C 0.74747 0.88317 0.77147 0.0
C277 C 0.81471 0.95205 0.77782 0.0
C278 C 0.72354 0.91969 0.76235 0.0
C279 C 0.79949 0.81058 0.78864 0.0
C280 C 0.83116 0.84641 0.79237 0.0
C281 C 0.74136 0.81141 0.7769 0.0
C282 C 0.71543 0.84758 0.76836 0.0
Tb283 Tb 0.92992 0.90777 0.80788 0.0
N284 N 0.88851 0.84641 0.80221 0.0
C285 C 0.82788 0.77488 0.79584 0.0
C286 C 0.91635 0.81173 0.80925 0.0
C287 C 0.88659 0.77549 0.80611 0.0
H288 H 0.83906 0.97926 0.7814 0.0
H289 H 0.90911 0.748 0.81136 0.0
H290 H 0.13505 0.82775 0.73594 0.0
H291 H 0.12901 0.06484 0.7364 0.0
H292 H 0.96173 0.81178 0.81645 0.0
H293 H 0.8052 0.74671 0.79307 0.0
H294 H 0.05744 0.00931 0.7331 0.0
H295 H 0.73876 0.98269 0.7591 0.0
H296 H 0.7164 0.78417 0.7738 0.0
H297 H 0.67077 0.84765 0.75898 0.0
H298 H 0.23953 0.80742 0.73998 0.0
H299 H 0.67906 0.92156 0.75286 0.0
H300 H 0.23474 0.05099 0.74572 0.0
N301 N 0.15435 0.88902 0.74238 0.0
C302 C 0.19664 0.91736 0.74572 0.0
C303 C 0.22802 0.83843 0.74172 0.0
C304 C 0.25662 0.90727 0.74785 0.0
C305 C 0.16903 0.84996 0.73957 0.0
C306 C 0.27197 0.86716 0.74626 0.0
N307 N 0.12146 0.96508 0.74264 0.0
C308 C 0.10326 1.00319 0.73763 0.0
C309 C 0.22229 0.98726 0.74699 0.0
C310 C 0.17975 0.95674 0.7454 0.0
C311 C 0.20345 0.02663 0.74453 0.0
C312 C 0.14377 0.03458 0.73931 0.0
H313 H 0.3176 0.85815 0.74786 0.0
H314 H 0.34556 0.9304 0.75266 0.0
H315 H 0.31549 1.00046 0.75186 0.0
O316 O 0.0205 0.92993 0.69725 0.0
O317 O 0.07826 0.94824 0.78272 0.0
O318 O 0.00022 0.95101 0.8195 0.0
O319 O 0.09917 0.89488 0.69675 0.0
O320 O 0.97512 0.94176 0.73744 0.0
O321 O 0.94244 0.96559 0.78526 0.0
O322 O 0.92158 0.88576 0.85528 0.0
O323 O 0.92135 0.88197 0.75873 0.0
O324 O 0.01099 0.85616 0.74507 0.0
O325 O 0.87151 0.9359 0.83933 0.0
O326 O 0.01271 0.87939 0.82168 0.0
O327 O 0.06383 0.8618 0.7753 0.0
C328 C 0.0536 0.96093 0.80937 0.0
C329 C 0.03627 0.88978 0.65138 0.0
C330 C 0.0475 0.87044 0.59495 0.0
C331 C 0.99459 0.84858 0.59713 0.0
C332 C 0.98348 0.86813 0.65285 0.0
C333 C 0.9629 0.84756 0.62585 0.0
C334 C 0.06786 0.89103 0.62243 0.0
C335 C 0.95729 0.97138 0.75511 0.0
C336 C 0.05893 0.91202 0.67938 0.0
C337 C 0.29921 0.93753 0.75075 0.0
C338 C 0.28208 0.97744 0.75028 0.0
C339 C 0.95335 0.85449 0.74474 0.0
C340 C 0.89918 0.93419 0.89432 0.0
C341 C 0.8928 0.93779 0.95312 0.0
C342 C 0.92174 0.97477 0.95214 0.0
C343 C 0.92784 0.97116 0.89408 0.0
C344 C 0.88213 0.91741 0.92396 0.0
C345 C 0.93931 0.99118 0.92282 0.0
C346 C 0.05648 0.86172 0.80694 0.0
C347 C 0.88551 0.91358 0.86377 0.0
H348 H 0.97807 0.83169 0.57682 0.0
H349 H 0.95808 0.86734 0.67473 0.0
H350 H 0.9223 0.83066 0.62722 0.0
H351 H 0.10803 0.90851 0.6213 0.0
H352 H 0.93118 0.9909 0.97412 0.0
H353 H 0.94063 0.9847 0.8716 0.0
H354 H 0.8594 0.88903 0.92425 0.0
H355 H 0.96156 0.01967 0.92234 0.0
Tb356 Tb 0.45301 0.60571 0.24221 0.0
C357 C 0.69254 0.65977 0.29064 0.0
N358 N 0.67134 0.62205 0.28954 0.0
C359 C 0.75998 0.60025 0.2644 0.0
C360 C 0.74756 0.66961 0.27729 0.0
C361 C 0.70483 0.59202 0.27774 0.0
C362 C 0.78119 0.63928 0.26386 0.0
C363 C 0.67865 0.72801 0.30662 0.0
C364 C 0.65828 0.68847 0.30493 0.0
C365 C 0.73253 0.7384 0.29233 0.0
C366 C 0.76698 0.70924 0.27777 0.0
Tb367 Tb 0.58093 0.61173 0.31141 0.0
N368 N 0.60637 0.67722 0.31844 0.0
C369 C 0.64518 0.75559 0.32347 0.0
C370 C 0.57667 0.70326 0.33745 0.0
C371 C 0.59467 0.74294 0.33955 0.0
H372 H 0.68876 0.56181 0.27834 0.0
H373 H 0.57001 0.76361 0.35397 0.0
H374 H 0.36609 0.6844 0.25219 0.0
H375 H 0.39469 0.45067 0.23343 0.0
H376 H 0.53969 0.69366 0.3517 0.0
H377 H 0.65925 0.78627 0.32534 0.0
H378 H 0.45553 0.51066 0.22284 0.0
H379 H 0.78606 0.57652 0.25453 0.0
H380 H 0.74856 0.76873 0.29306 0.0
H381 H 0.80883 0.71756 0.26728 0.0
H382 H 0.2696 0.69778 0.2767 0.0
H383 H 0.82375 0.6456 0.25333 0.0
H384 H 0.30162 0.45649 0.26373 0.0
N385 N 0.36178 0.62214 0.26098 0.0
C386 C 0.32671 0.59119 0.26955 0.0
C387 C 0.28544 0.66764 0.2752 0.0
C388 C 0.27084 0.59726 0.28311 0.0
C389 C 0.34046 0.65996 0.2617 0.0
C390 C 0.25106 0.63621 0.2867 0.0
N391 N 0.39802 0.54915 0.24781 0.0
C392 C 0.41466 0.51323 0.23582 0.0
C393 C 0.30904 0.52022 0.26889 0.0
C394 C 0.34513 0.55332 0.26233 0.0
C395 C 0.32797 0.48275 0.25904 0.0
C396 C 0.38048 0.47935 0.24189 0.0
H397 H 0.20842 0.64223 0.29705 0.0
H398 H 0.19302 0.56832 0.30225 0.0
H399 H 0.22674 0.50073 0.29 0.0
O400 O 0.47857 0.5975 0.19401 0.0
O401 O 0.46271 0.56036 0.2801 0.0
O402 O 0.49322 0.59171 0.32622 0.0
O403 O 0.39368 0.62035 0.2048 0.0
O404 O 0.53384 0.57217 0.23332 0.0
O405 O 0.57655 0.55631 0.28332 0.0
O406 O 0.62005 0.62211 0.35689 0.0
O407 O 0.59674 0.62775 0.26061 0.0
O408 O 0.51145 0.65734 0.24409 0.0
O409 O 0.61551 0.56343 0.33747 0.0
O410 O 0.49694 0.64127 0.3213 0.0
O411 O 0.46153 0.66023 0.27102 0.0
C412 C 0.45963 0.56575 0.31127 0.0
C413 C 0.43923 0.64442 0.15794 0.0
C414 C 0.43789 0.66737 0.10195 0.0
C415 C 0.45902 0.70454 0.11245 0.0
C416 C 0.45965 0.68189 0.16769 0.0
C417 C 0.46966 0.71168 0.14505 0.0
C418 C 0.42776 0.6373 0.12502 0.0
C419 C 0.56731 0.54992 0.25217 0.0
C420 C 0.43081 0.61283 0.18211 0.0
C421 C 0.23576 0.56431 0.29136 0.0
C422 C 0.25488 0.52582 0.2843 0.0
C423 C 0.56912 0.65548 0.24433 0.0
C424 C 0.60567 0.57017 0.39423 0.0
C425 C 0.61017 0.57096 0.45341 0.0
C426 C 0.56321 0.54349 0.45394 0.0
C427 C 0.5585 0.54309 0.39567 0.0
C428 C 0.63125 0.58407 0.42319 0.0
C429 C 0.53763 0.52985 0.42533 0.0
C430 C 0.46298 0.66319 0.30263 0.0
C431 C 0.62773 0.58472 0.36279 0.0
H432 H 0.46661 0.7284 0.09542 0.0
H433 H 0.46771 0.68816 0.19285 0.0
H434 H 0.48561 0.74047 0.1528 0.0
H435 H 0.412 0.60839 0.11737 0.0
H436 H 0.54655 0.53205 0.47651 0.0
H437 H 0.53771 0.53209 0.3739 0.0
H438 H 0.66691 0.60553 0.42208 0.0
H439 H 0.50147 0.50878 0.42615 0.0
H440 H 0.10458 0.87109 0.34322 0.0
H441 H 0.20249 0.92695 0.41991 0.0
H442 H 0.17662 0.99258 0.39858 0.0
H443 H 0.13158 0.03374 0.35564 0.0
H444 H 0.04325 0.97682 0.2759 0.0
H445 H 0.06322 0.91162 0.29945 0.0
C446 C 0.12074 0.89768 0.35497 0.0
C447 C 0.15614 0.89439 0.3827 0.0
C448 C 0.10913 0.9349 0.34134 0.0
C449 C 0.17483 0.92894 0.39862 0.0
C450 C 0.16092 0.96633 0.38612 0.0
C451 C 0.1176 1.0069 0.34334 0.0
C452 C 0.08649 0.00968 0.31406 0.0
C453 C 0.1294 0.96962 0.35702 0.0
C454 C 0.06816 0.97507 0.29818 0.0
C455 C 0.07885 0.93793 0.31186 0.0
H456 H 0.2714 0.60806 0.85061 0.0
H457 H 0.40004 0.60397 0.92753 0.0
H458 H 0.42668 0.53708 0.91165 0.0
H459 H 0.42226 0.48308 0.87142 0.0
H460 H 0.33158 0.50615 0.7817 0.0
H461 H 0.27964 0.56061 0.80644 0.0
C462 C 0.30672 0.59334 0.86344 0.0
C463 C 0.33433 0.6122 0.88987 0.0
C464 C 0.32827 0.55753 0.8514 0.0
C465 C 0.37701 0.59087 0.90739 0.0
C466 C 0.39313 0.55256 0.89793 0.0
C467 C 0.3933 0.50093 0.8566 0.0
C468 C 0.38268 0.49054 0.82414 0.0
C469 C 0.37075 0.53634 0.86917 0.0
C470 C 0.34053 0.51234 0.80668 0.0
C471 C 0.31148 0.54425 0.82071 0.0
H472 H 0.59413 0.63458 0.69305 0.0
H473 H 0.72247 0.56265 0.64565 0.0
H474 H 0.67811 0.50239 0.66885 0.0
H475 H 0.60611 0.47101 0.70551 0.0
H476 H 0.47612 0.5432 0.75184 0.0
H477 H 0.51733 0.60275 0.72632 0.0
C478 C 0.61149 0.60553 0.68754 0.0
C479 C 0.66115 0.60262 0.66779 0.0
C480 C 0.58569 0.57136 0.70096 0.0
C481 C 0.68384 0.56516 0.6606 0.0
C482 C 0.65874 0.53093 0.67402 0.0
C483 C 0.58666 0.49982 0.70969 0.0
C484 C 0.53863 0.50306 0.73064 0.0
C485 C 0.6102 0.53374 0.69464 0.0
C486 C 0.51313 0.54024 0.73573 0.0
C487 C 0.53678 0.57421 0.72125 0.0
H488 H 0.88274 0.90789 0.1626 0.0
H489 H 0.71657 0.96712 0.16998 0.0
H490 H 0.7643 0.02354 0.19706 0.0
H491 H 0.85251 0.05313 0.2224 0.0
H492 H 0.01761 0.99115 0.21851 0.0
H493 H 0.97217 0.93923 0.18577 0.0
C494 C 0.85776 0.93381 0.16938 0.0
C495 C 0.7968 0.93412 0.16398 0.0
C496 C 0.88526 0.96523 0.18597 0.0
C497 C 0.76385 0.96703 0.17354 0.0
C498 C 0.79102 0.99891 0.18926 0.0
C499 C 0.87818 0.02796 0.21481 0.0
C500 C 0.93783 0.02551 0.22368 0.0
C501 C 0.85145 0.99781 0.19641 0.0
C502 C 0.97138 0.99364 0.21231 0.0
C503 C 0.94543 0.96384 0.19359 0.0
H504 H 0.85858 0.13695 0.71078 0.0
H505 H 0.80319 0.06841 0.62863 0.0
H506 H 0.85577 0.0104 0.65002 0.0
H507 H 0.90954 0.97789 0.69488 0.0
H508 H 0.95459 0.04556 0.77964 0.0
H509 H 0.91289 0.10518 0.75496 0.0
C510 C 0.85809 0.10922 0.69765 0.0
C511 C 0.82676 0.10666 0.66841 0.0
C512 C 0.88583 0.07586 0.71086 0.0
C513 C 0.82735 0.07101 0.6511 0.0
C514 C 0.85689 0.03785 0.66351 0.0
C515 C 0.91078 1.00583 0.70774 0.0
C516 C 0.93503 1.0075 0.73904 0.0
C517 C 0.88511 0.0397 0.69375 0.0
C518 C 0.93577 0.04366 0.75563 0.0
C519 C 0.91211 0.07768 0.74151 0.0
H520 H 0.66388 0.38463 0.20804 0.0
H521 H 0.71859 0.45385 0.12621 0.0
H522 H 0.66893 0.51222 0.14822 0.0
H523 H 0.61661 0.54447 0.19319 0.0
H524 H 0.57551 0.47643 0.27826 0.0
H525 H 0.61541 0.41679 0.25334 0.0
C526 C 0.66536 0.41265 0.19522 0.0
C527 C 0.69532 0.41519 0.1658 0.0
C528 C 0.64022 0.44629 0.20899 0.0
C529 C 0.69539 0.45119 0.14879 0.0
C530 C 0.66768 0.48458 0.16158 0.0
C531 C 0.61652 0.51649 0.20616 0.0
C532 C 0.59347 0.5146 0.23748 0.0
C533 C 0.64109 0.48266 0.19202 0.0
C534 C 0.59372 0.47848 0.25427 0.0
C535 C 0.61609 0.44443 0.23996 0.0
H536 H 0.28672 0.45964 0.39317 0.0
H537 H 0.40719 0.36931 0.36363 0.0
H538 H 0.4688 0.41923 0.33664 0.0
H539 H 0.48286 0.48794 0.31746 0.0
H540 H 0.36418 0.579 0.34828 0.0
H541 H 0.30647 0.52984 0.37848 0.0
C542 C 0.32741 0.4514 0.38155 0.0
C543 C 0.34317 0.41129 0.38038 0.0
C544 C 0.36185 0.48025 0.36582 0.0
C545 C 0.39521 0.40029 0.36495 0.0
C546 C 0.4298 0.42869 0.3493 0.0
C547 C 0.44462 0.49684 0.33109 0.0
C548 C 0.42723 0.53666 0.33076 0.0
C549 C 0.41271 0.46859 0.34887 0.0
C550 C 0.37811 0.54835 0.34849 0.0
C551 C 0.34525 0.5203 0.36568 0.0
H552 H 0.2324 0.08733 0.8667 0.0
H553 H 0.07248 0.13626 0.90378 0.0
H554 H 0.01542 0.08076 0.88087 0.0
H555 H 0.01112 0.02117 0.84644 0.0
H556 H 0.17266 0.96981 0.81286 0.0
H557 H 0.22909 0.02379 0.83726 0.0
C558 C 0.18513 0.08541 0.86987 0.0
C559 C 0.15625 0.11563 0.88655 0.0
C560 C 0.15305 0.05337 0.85683 0.0
C561 C 0.09519 0.11307 0.89098 0.0
C562 C 0.06276 0.08153 0.87777 0.0
C563 C 0.05868 0.02103 0.84536 0.0
C564 C 0.08739 0.99145 0.82765 0.0
C565 C 0.09114 0.05177 0.86023 0.0
C566 C 0.14919 0.9926 0.82569 0.0
C567 C 0.18164 0.02334 0.83987 0.0
H568 H 0.12383 0.19083 0.97498 0.0
H569 H 0.21901 0.08839 0.94334 0.0
H570 H 0.19676 0.05406 0.99395 0.0
H571 H 0.15666 0.05542 0.04883 0.0
H572 H 0.06242 0.15866 0.08077 0.0
H573 H 0.07902 0.19084 0.0289 0.0
C574 C 0.13931 0.16093 0.97928 0.0
C575 C 0.17304 0.14208 0.95569 0.0
C576 C 0.12736 0.14184 1.00868 0.0
C577 C 0.19247 0.1032 0.96113 0.0
C578 C 0.1802 0.08378 0.99014 0.0
C579 C 0.13898 0.08472 0.04433 0.0
C580 C 0.10882 0.10466 0.06892 0.0
C581 C 0.14854 0.10308 1.01433 0.0
C582 C 0.08684 0.14286 0.06262 0.0
C583 C 0.09594 0.16122 0.03284 0.0
H584 H 0.25309 0.40455 0.47325 0.0
H585 H 0.40328 0.35095 0.42909 0.0
H586 H 0.45489 0.34921 0.48118 0.0
H587 H 0.45073 0.35404 0.54026 0.0
H588 H 0.29704 0.40361 0.5849 0.0
H589 H 0.25337 0.41618 0.53195 0.0
C590 C 0.29764 0.39339 0.47516 0.0
C591 C 0.32454 0.37767 0.44773 0.0
C592 C 0.3258 0.39116 0.50536 0.0
C593 C 0.38225 0.36342 0.45002 0.0
C594 C 0.41128 0.36199 0.47982 0.0
C595 C 0.40787 0.36788 0.53839 0.0
C596 C 0.37688 0.37734 0.56657 0.0
C597 C 0.38249 0.37429 0.50785 0.0
C598 C 0.32196 0.3961 0.56368 0.0
C599 C 0.29676 0.40307 0.53337 0.0
H600 H 0.77597 0.38403 0.06973 0.0
H601 H 0.61151 0.37452 0.11975 0.0
H602 H 0.55731 0.38301 0.06875 0.0
H603 H 0.5579 0.38432 1.00935 0.0
H604 H 0.72394 0.38865 0.95948 0.0
H605 H 0.77648 0.39183 1.01082 0.0
C606 C 0.72824 0.38472 0.06931 0.0
C607 C 0.69744 0.37859 0.0981 0.0
C608 C 0.6979 0.38825 0.03991 0.0
C609 C 0.63576 0.37949 0.09775 0.0
C610 C 0.60501 0.38393 0.0686 0.0
C611 C 0.60558 0.3862 1.00969 0.0
C612 C 0.63685 0.38572 0.98046 0.0
C613 C 0.63571 0.38688 0.0394 0.0
C614 C 0.69858 0.38918 0.98144 0.0
C615 C 0.72877 0.39065 1.01085 0.0
H616 H 0.74405 0.14287 0.57234 0.0
H617 H 0.90853 0.14819 0.62414 0.0
H618 H 0.96265 0.14097 0.57347 0.0
H619 H 0.9623 0.14095 0.51402 0.0
H620 H 0.79619 0.14174 0.4626 0.0
H621 H 0.74353 0.13807 0.51334 0.0
C622 C 0.79176 0.14177 0.57238 0.0
C623 C 0.82254 0.14618 0.60162 0.0
C624 C 0.8221 0.13908 0.54319 0.0
C625 C 0.88421 0.14456 0.60181 0.0
C626 C 0.91494 0.14084 0.57285 0.0
C627 C 0.91457 0.14026 0.51385 0.0
C628 C 0.88347 0.14202 0.48429 0.0
C629 C 0.8843 0.13939 0.54329 0.0
C630 C 0.82157 0.14006 0.48473 0.0
C631 C 0.79126 0.13832 0.51383 0.0
H632 H 0.83221 0.84415 0.08143 0.0
H633 H 0.75152 0.95573 0.10409 0.0
H634 H 0.7857 0.98378 0.05317 0.0
H635 H 0.83442 0.97559 1.00091 0.0
H636 H 0.90818 0.86236 0.97603 0.0
H637 H 0.87895 0.83538 0.0284 0.0
C638 C 0.82187 0.8745 0.07505 0.0
C639 C 0.78971 0.89792 0.09665 0.0
C640 C 0.83959 0.88987 0.04507 0.0
C641 C 0.77736 0.9374 0.0883 0.0
C642 C 0.79623 0.95327 0.05897 0.0
C643 C 0.84434 0.94506 1.00703 0.0
C644 C 0.87356 0.92104 0.98461 0.0
C645 C 0.82687 0.92967 0.03702 0.0
C646 C 0.88532 0.88136 0.99272 0.0
C647 C 0.86894 0.86601 1.02274 0.0
H648 H 0.76008 0.62975 0.57435 0.0
H649 H 0.58787 0.6324 0.61673 0.0
H650 H 0.54394 0.60774 0.5665 0.0
H651 H 0.55415 0.58851 0.50977 0.0
H652 H 0.7268 0.58601 0.46708 0.0
H653 H 0.7706 0.60896 0.51764 0.0
C654 C 0.71296 0.62493 0.57244 0.0
C655 C 0.67716 0.63283 0.59915 0.0
C656 C 0.68804 0.61145 0.54325 0.0
C657 C 0.61628 0.626 0.59662 0.0
C658 C 0.59118 0.61229 0.56781 0.0
C659 C 0.60147 0.59248 0.51152 0.0
C660 C 0.63691 0.58548 0.48436 0.0
C661 C 0.62657 0.60526 0.54085 0.0
C662 C 0.69809 0.59168 0.48721 0.0
C663 C 0.72334 0.6045 0.51628 0.0
H664 H 0.41617 0.67912 0.95099 0.0
H665 H 0.24463 0.63068 0.97 0.0
H666 H 0.27118 0.62147 1.0271 0.0
H667 H 0.34008 0.63517 0.07259 0.0
H668 H 0.51084 0.68586 0.05253 0.0
H669 H 0.48854 0.68583 0.99501 0.0
C670 C 0.38563 0.66528 0.9676 0.0
C671 C 0.32925 0.65457 0.95648 0.0
C672 C 0.40092 0.66112 1.00026 0.0
C673 C 0.28879 0.63802 0.97811 0.0
C674 C 0.30385 0.63323 1.01071 0.0
C675 C 0.3728 0.64535 0.05553 0.0
C676 C 0.42679 0.66099 0.06691 0.0
C677 C 0.35932 0.64574 1.02227 0.0
C678 C 0.46862 0.6743 0.04447 0.0
C679 C 0.45596 0.67424 1.01155 0.0
H680 H 0.22844 0.85838 0.48022 0.0
H681 H 0.06776 0.85572 0.42473 0.0
H682 H 0.01054 0.86788 0.47355 0.0
H683 H 0.0061 0.87263 0.53272 0.0
H684 H 0.16743 0.86867 0.5884 0.0
H685 H 0.22438 0.86542 0.53907 0.0
C686 C 0.1809 0.86043 0.47896 0.0
C687 C 0.15209 0.85546 0.44916 0.0
C688 C 0.14843 0.86579 0.50725 0.0
C689 C 0.09069 0.85949 0.44748 0.0
C690 C 0.05807 0.86601 0.47542 0.0
C691 C 0.0537 0.87088 0.53414 0.0
C692 C 0.08214 0.87072 0.56448 0.0
C693 C 0.08637 0.86801 0.50558 0.0
C694 C 0.14407 0.86935 0.56558 0.0
C695 C 0.17683 0.86721 0.53732 0.0
H696 H 0.23334 0.25661 0.39589 0.0
H697 H 0.13856 0.34926 0.34687 0.0
H698 H 0.07369 0.29993 0.32146 0.0
H699 H 0.04661 0.23031 0.31188 0.0
H700 H 0.13818 0.1374 0.36256 0.0
H701 H 0.20077 0.18686 0.38966 0.0
C702 C 0.1977 0.26583 0.38011 0.0
C703 C 0.19044 0.30632 0.37311 0.0
C704 C 0.16004 0.23734 0.3662 0.0
C705 C 0.14494 0.31816 0.35226 0.0
C706 C 0.10782 0.29004 0.33795 0.0
C707 C 0.07998 0.22107 0.32912 0.0
C708 C 0.08853 0.18055 0.33513 0.0
C709 C 0.11533 0.24957 0.34453 0.0
C710 C 0.13105 0.1686 0.35775 0.0
C711 C 0.16695 0.1968 0.37301 0.0
H712 H 0.34162 0.20601 0.866 0.0
H713 H 0.20957 0.28439 0.90243 0.0
H714 H 0.26551 0.3422 0.8829 0.0
H715 H 0.35055 0.37 0.85288 0.0
H716 H 0.48144 0.29059 0.81607 0.0
H717 H 0.42866 0.2337 0.83871 0.0
C718 C 0.32552 0.23585 0.86964 0.0
C719 C 0.27176 0.24126 0.88537 0.0
C720 C 0.35815 0.26867 0.8586 0.0
C721 C 0.25104 0.27986 0.89034 0.0
C722 C 0.28301 0.31276 0.87923 0.0
C723 C 0.36801 0.34027 0.85065 0.0
C724 C 0.41996 0.33429 0.83327 0.0
C725 C 0.33657 0.30755 0.86316 0.0
C726 C 0.44172 0.2957 0.82971 0.0
C727 C 0.41139 0.2632 0.84244 0.0
H728 H 0.74136 0.22768 0.71883 0.0
H729 H 0.63399 0.22321 0.633 0.0
H730 H 0.57267 0.27687 0.65356 0.0
H731 H 0.55032 0.32491 0.69608 0.0
H732 H 0.64955 0.32196 0.78519 0.0
H733 H 0.71303 0.27102 0.76338 0.0
C734 C 0.70381 0.23789 0.70495 0.0
C735 C 0.69235 0.22168 0.6744 0.0
C736 C 0.66749 0.26747 0.71749 0.0
C737 C 0.64426 0.23578 0.65633 0.0
C738 C 0.60903 0.26621 0.66818 0.0
C739 C 0.58526 0.3129 0.71094 0.0
C740 C 0.59506 0.32778 0.74219 0.0
C741 C 0.62034 0.28233 0.69874 0.0
C742 C 0.64108 0.3117 0.76091 0.0
C743 C 0.67745 0.28235 0.74852 0.0
H744 H 0.76303 0.28675 0.21127 0.0
H745 H 0.88451 0.29667 0.13263 0.0
H746 H 0.94224 0.24149 0.15467 0.0
H747 H 0.95906 0.19213 0.19715 0.0
H748 H 0.84153 0.1865 0.27841 0.0
H749 H 0.78133 0.23856 0.25459 0.0
C750 C 0.80256 0.27702 0.19927 0.0
C751 C 0.81992 0.29561 0.17056 0.0
C752 C 0.836 0.24617 0.21252 0.0
C753 C 0.87037 0.28241 0.15467 0.0
C754 C 0.90334 0.2511 0.16733 0.0
C755 C 0.92036 0.2022 0.20976 0.0
C756 C 0.90507 0.18525 0.23962 0.0
C757 C 0.88671 0.23293 0.19637 0.0
C758 C 0.85451 0.1988 0.25541 0.0
C759 C 0.82001 0.22869 0.24185 0.0
H760 H 0.85928 0.69574 0.68061 0.0
H761 H 0.7024 0.7654 0.67084 0.0
H762 H 0.75299 0.82276 0.6952 0.0
H763 H 0.84179 0.85233 0.71999 0.0
H764 H -0.00146 0.78189 0.73086 0.0
H765 H 0.94897 0.72583 0.70484 0.0
C766 C 0.83678 0.72372 0.68368 0.0
C767 C 0.77771 0.7269 0.67393 0.0
C768 C 0.86617 0.75625 0.69781 0.0
C769 C 0.74813 0.76284 0.67808 0.0
C770 C 0.77699 0.7954 0.69201 0.0
C771 C 0.86495 0.82462 0.71688 0.0
C772 C 0.92353 0.82115 0.72779 0.0
C773 C 0.83595 0.79237 0.70214 0.0
C774 C 0.9534 0.78535 0.72278 0.0
C775 C 0.92501 0.75321 0.708 0.0
H776 H 0.74515 0.76536 0.16671 0.0
H777 H 0.60764 0.84977 0.18311 0.0
H778 H 0.5482 0.79876 0.21012 0.0
H779 H 0.53782 0.73102 0.23117 0.0
H780 H 0.67593 0.64628 0.21579 0.0
H781 H 0.73338 0.69636 0.1867 0.0
C782 C 0.70183 0.77211 0.17592 0.0
C783 C 0.68019 0.81084 0.17298 0.0
C784 C 0.66867 0.74279 0.19191 0.0
C785 C 0.62454 0.81991 0.18521 0.0
C786 C 0.59089 0.79088 0.20066 0.0
C787 C 0.58026 0.72346 0.22117 0.0
C788 C 0.60297 0.6852 0.22582 0.0
C789 C 0.6128 0.75234 0.20448 0.0
C790 C 0.65807 0.67579 0.21292 0.0
C791 C 0.69072 0.70432 0.19613 0.0
H792 H 0.33995 0.81291 0.36091 0.0
H793 H 0.21575 0.72363 0.39102 0.0
H794 H 0.27875 0.67147 0.36916 0.0
H795 H 0.36757 0.65203 0.33931 0.0
H796 H 0.47972 0.74259 0.29913 0.0
H797 H 0.42305 0.79406 0.32646 0.0
C798 C 0.32695 0.78197 0.36252 0.0
C799 C 0.27406 0.77179 0.3778 0.0
C800 C 0.36105 0.75274 0.34787 0.0
C801 C 0.25701 0.7318 0.37985 0.0
C802 C 0.29265 0.70218 0.36713 0.0
C803 C 0.37934 0.68309 0.33675 0.0
C804 C 0.42785 0.69392 0.31795 0.0
C805 C 0.34452 0.71238 0.35085 0.0
C806 C 0.44257 0.734 0.31386 0.0
C807 C 0.41029 0.76324 0.32942 0.0
H808 H 0.17151 0.73196 0.89712 0.0
H809 H 0.32774 0.76976 0.8475 0.0
H810 H 0.27048 0.81855 0.81674 0.0
H811 H 0.17475 0.84952 0.80366 0.0
H812 H 0.02192 0.81709 0.85873 0.0
H813 H 0.07901 0.76838 0.88859 0.0
C814 C 0.19292 0.75126 0.87981 0.0
C815 C 0.25309 0.74638 0.8736 0.0
C816 C 0.16017 0.78007 0.86319 0.0
C817 C 0.28087 0.77186 0.85154 0.0
C818 C 0.24828 0.79999 0.83426 0.0
C819 C 0.15369 0.83085 0.82139 0.0
C820 C 0.09302 0.83468 0.82692 0.0
C821 C 0.18756 0.80383 0.83946 0.0
C822 C 0.06758 0.81314 0.8524 0.0
C823 C 0.10042 0.78549 0.86985 0.0
loop_
_geom_bond_atom_site_label_1
_geom_bond_atom_site_label_2
_geom_bond_distance
_geom_bond_site_symmetry_2
_ccdc_geom_bond_type
C0 N1 1.317 . S
C0 N2 1.348 . S
C0 C3 1.485 . S
N1 C0 1.317 . S
N1 N5 1.370 . S
N2 C0 1.348 . S
N2 C4 1.346 . S
C3 C0 1.485 . S
C3 H7 0.960 . S
C3 H8 0.961 . S
C3 H9 0.960 . S
C4 N2 1.346 . S
C4 N5 1.307 . S
C4 C6 1.486 . S
N5 N1 1.370 . S
N5 C4 1.307 . S
C6 C4 1.486 . S
C6 H10 0.960 . S
C6 H11 0.960 . S
C6 H12 0.959 . S
H7 C3 0.960 . S
H8 C3 0.961 . S
H9 C3 0.960 . S
H10 C6 0.960 . S
H11 C6 0.960 . S
H12 C6 0.959 . S
C13 N14 1.317 . S
C13 N15 1.348 . S
C13 C16 1.485 . S
N14 C13 1.317 . S
N14 N18 1.370 . S
N15 C13 1.348 . S
N15 C17 1.346 . S
C16 C13 1.485 . S
C16 H20 0.960 . S
C16 H21 0.961 . S
C16 H22 0.960 . S
C17 N15 1.346 . S
C17 N18 1.307 . S
C17 C19 1.486 . S
N18 N14 1.370 . S
N18 C17 1.307 . S
C19 C17 1.486 . S
C19 H23 0.960 . S
C19 H24 0.960 . S
C19 H25 0.959 . S
H20 C16 0.960 . S
H21 C16 0.961 . S
H22 C16 0.960 . S
H23 C19 0.960 . S
H24 C19 0.960 . S
H25 C19 0.959 . S
C26 N27 1.317 . S
C26 N28 1.348 . S
C26 C29 1.485 . S
N27 C26 1.317 . S
N27 N31 1.370 . S
N28 C26 1.348 . S
N28 C30 1.346 . S
C29 C26 1.485 . S
C29 H33 0.960 . S
C29 H34 0.961 . S
C29 H35 0.960 . S
C30 N28 1.346 . S
C30 N31 1.307 . S
C30 C32 1.486 . S
N31 N27 1.370 . S
N31 C30 1.307 . S
C32 C30 1.486 . S
C32 H36 0.960 . S
C32 H37 0.960 . S
C32 H38 0.959 . S
H33 C29 0.960 . S
H34 C29 0.961 . S
H35 C29 0.960 . S
H36 C32 0.960 . S
H37 C32 0.960 . S
H38 C32 0.959 . S
C39 N40 1.317 . S
C39 N41 1.348 . S
C39 C42 1.485 . S
N40 C39 1.317 . S
N40 N44 1.370 . S
N41 C39 1.348 . S
N41 C43 1.346 . S
C42 C39 1.485 . S
C42 H46 0.960 . S
C42 H47 0.961 . S
C42 H48 0.960 . S
C43 N41 1.346 . S
C43 N44 1.307 . S
C43 C45 1.486 . S
N44 N40 1.370 . S
N44 C43 1.307 . S
C45 C43 1.486 . S
C45 H49 0.960 . S
C45 H50 0.960 . S
C45 H51 0.959 . S
H46 C42 0.960 . S
H47 C42 0.961 . S
H48 C42 0.960 . S
H49 C45 0.960 . S
H50 C45 0.960 . S
H51 C45 0.959 . S
C52 N53 1.317 . S
C52 N54 1.348 . S
C52 C55 1.485 . S
N53 C52 1.317 . S
N53 N57 1.370 . S
N54 C52 1.348 . S
N54 C56 1.346 . S
C55 C52 1.485 . S
C55 H59 0.960 . S
C55 H60 0.961 . S
C55 H61 0.960 . S
C56 N54 1.346 . S
C56 N57 1.307 . S
C56 C58 1.486 . S
N57 N53 1.370 . S
N57 C56 1.307 . S
C58 C56 1.486 . S
C58 H62 0.960 . S
C58 H63 0.960 . S
C58 H64 0.959 . S
H59 C55 0.960 . S
H60 C55 0.961 . S
H61 C55 0.960 . S
H62 C58 0.960 . S
H63 C58 0.960 . S
H64 C58 0.959 . S
C65 N66 1.317 . S
C65 N67 1.348 . S
C65 C68 1.485 . S
N66 C65 1.317 . S
N66 N70 1.370 . S
N67 C65 1.348 . S
N67 C69 1.346 . S
C68 C65 1.485 . S
C68 H72 0.960 . S
C68 H73 0.961 . S
C68 H74 0.960 . S
C69 N67 1.346 . S
C69 N70 1.307 . S
C69 C71 1.486 . S
N70 N66 1.370 . S
N70 C69 1.307 . S
C71 C69 1.486 . S
C71 H75 0.960 . S
C71 H76 0.960 . S
C71 H77 0.959 . S
H72 C68 0.960 . S
H73 C68 0.961 . S
H74 C68 0.960 . S
H75 C71 0.960 . S
H76 C71 0.960 . S
H77 C71 0.959 . S
C78 N79 1.317 . S
C78 N80 1.348 . S
C78 C81 1.485 . S
N79 C78 1.317 . S
N79 N83 1.370 . S
N80 C78 1.348 . S
N80 C82 1.346 . S
C81 C78 1.485 . S
C81 H85 0.960 . S
C81 H86 0.961 . S
C81 H87 0.960 . S
C82 N80 1.346 . S
C82 N83 1.307 . S
C82 C84 1.486 . S
N83 N79 1.370 . S
N83 C82 1.307 . S
C84 C82 1.486 . S
C84 H88 0.960 . S
C84 H89 0.960 . S
C84 H90 0.959 . S
H85 C81 0.960 . S
H86 C81 0.961 . S
H87 C81 0.960 . S
H88 C84 0.960 . S
H89 C84 0.960 . S
H90 C84 0.959 . S
C91 N92 1.317 . S
C91 N93 1.348 . S
C91 C94 1.485 . S
N92 C91 1.317 . S
N92 N96 1.370 . S
N93 C91 1.348 . S
N93 C95 1.346 . S
C94 C91 1.485 . S
C94 H98 0.960 . S
C94 H99 0.961 . S
C94 H100 0.960 . S
C95 N93 1.346 . S
C95 N96 1.307 . S
C95 C97 1.486 . S
N96 N92 1.370 . S
N96 C95 1.307 . S
C97 C95 1.486 . S
C97 H101 0.960 . S
C97 H102 0.960 . S
C97 H103 0.959 . S
H98 C94 0.960 . S
H99 C94 0.961 . S
H100 C94 0.960 . S
H101 C97 0.960 . S
H102 C97 0.960 . S
H103 C97 0.959 . S
Tb104 N133 2.617 . S
Tb104 N139 2.572 . S
Tb104 O148 2.465 . S
Tb104 O149 2.387 . S
Tb104 O151 2.428 . S
Tb104 O152 2.308 1_455 S
Tb104 O156 2.349 1_455 S
Tb104 O159 2.393 . S
Tb104 C168 2.802 . S
C105 N106 1.379 . S
C105 C108 1.416 . S
C105 C112 1.424 . S
N106 C105 1.379 . S
N106 C109 1.334 . S
N106 Tb115 2.617 . S
C107 C109 1.390 . S
C107 C110 1.339 . S
C107 H127 0.930 . S
C108 C105 1.416 . S
C108 C110 1.416 . S
C108 C114 1.448 . S
C109 N106 1.334 . S
C109 C107 1.390 . S
C109 H120 0.930 . S
C110 C107 1.339 . S
C110 C108 1.416 . S
C110 H131 0.930 . S
C111 C112 1.417 . S
C111 C113 1.427 1_545 S
C111 C117 1.412 1_545 S
C112 C105 1.424 . S
C112 C111 1.417 . S
C112 N116 1.361 . S
C113 C111 1.427 1_565 S
C113 C114 1.329 1_565 S
C113 H128 0.928 . S
C114 C108 1.448 . S
C114 C113 1.329 1_545 S
C114 H129 0.930 . S
Tb115 N106 2.617 . S
Tb115 N116 2.572 . S
Tb115 O150 2.349 1_655 S
Tb115 O153 2.393 . S
Tb115 O154 2.465 . S
Tb115 O155 2.387 . S
Tb115 O157 2.428 . S
Tb115 O158 2.308 1_655 S
Tb115 C179 2.802 . S
N116 C112 1.361 . S
N116 Tb115 2.572 . S
N116 C118 1.340 . S
C117 C111 1.412 1_565 S
C117 C119 1.332 . S
C117 H125 0.931 . S
C118 N116 1.340 . S
C118 C119 1.407 1_545 S
C118 H124 0.930 . S
C119 C117 1.332 . S
C119 C118 1.407 1_565 S
C119 H121 0.929 . S
H120 C109 0.930 . S
H121 C119 0.929 . S
H122 C137 0.930 . S
H123 C144 0.929 . S
H124 C118 0.930 . S
H125 C117 0.931 . S
H126 C140 0.930 . S
H127 C107 0.930 . S
H128 C113 0.928 . S
H129 C114 0.930 . S
H130 C135 0.930 . S
H131 C110 0.930 . S
H132 C143 0.931 . S
N133 Tb104 2.617 . S
N133 C134 1.379 . S
N133 C137 1.334 . S
C134 N133 1.379 . S
C134 C136 1.416 . S
C134 C142 1.424 . S
C135 H130 0.930 . S
C135 C137 1.390 . S
C135 C138 1.339 . S
C136 C134 1.416 . S
C136 C138 1.416 . S
C136 C169 1.448 . S
C137 H122 0.930 . S
C137 N133 1.334 . S
C137 C135 1.390 . S
C138 C135 1.339 . S
C138 C136 1.416 . S
C138 H145 0.930 . S
N139 Tb104 2.572 . S
N139 C140 1.340 . S
N139 C142 1.361 . S
C140 H126 0.930 . S
C140 N139 1.340 . S
C140 C144 1.407 . S
C141 C142 1.413 . S
C141 C143 1.416 . S
C141 C170 1.427 . S
C142 C134 1.424 . S
C142 N139 1.361 . S
C142 C141 1.413 . S
C143 H132 0.931 . S
C143 C141 1.416 . S
C143 C144 1.332 . S
C144 H123 0.929 . S
C144 C140 1.407 . S
C144 C143 1.332 . S
H145 C138 0.930 . S
H146 C169 0.930 . S
H147 C170 0.929 . S
O148 Tb104 2.465 . S
O148 C168 1.264 . S
O149 Tb104 2.387 . S
O149 C160 1.264 . S
O150 Tb115 2.349 1_455 S
O150 C160 1.243 . S
O151 Tb104 2.428 . S
O151 C168 1.256 . S
O152 Tb104 2.308 1_655 S
O152 C167 1.266 . S
O153 Tb115 2.393 . S
O153 C167 1.248 . S
O154 Tb115 2.465 . S
O154 C179 1.264 . S
O155 Tb115 2.387 . S
O155 C171 1.264 . S
O156 Tb104 2.349 1_655 S
O156 C171 1.243 . S
O157 Tb115 2.428 . S
O157 C179 1.256 . S
O158 Tb115 2.308 1_455 S
O158 C178 1.266 . S
O159 Tb104 2.393 . S
O159 C178 1.248 . S
C160 O149 1.264 . S
C160 O150 1.243 . S
C161 C164 1.399 . S
C161 C166 1.383 . S
C161 C168 1.496 . S
C162 C163 1.399 . S
C162 C166 1.389 . S
C163 C162 1.399 . S
C163 C165 1.380 . S
C163 H180 0.929 . S
C164 C161 1.399 . S
C164 C165 1.392 . S
C164 H181 0.929 . S
C165 C163 1.380 . S
C165 C164 1.392 . S
C165 H182 0.929 . S
C166 C161 1.383 . S
C166 C162 1.389 . S
C166 H183 0.931 . S
C167 O152 1.266 . S
C167 O153 1.248 . S
C168 Tb104 2.802 . S
C168 O148 1.264 . S
C168 O151 1.256 . S
C168 C161 1.496 . S
C169 C136 1.448 . S
C169 H146 0.930 . S
C169 C170 1.328 . S
C170 C141 1.427 . S
C170 H147 0.929 . S
C170 C169 1.328 . S
C171 O155 1.264 . S
C171 O156 1.243 . S
C172 C175 1.399 . S
C172 C176 1.383 . S
C172 C179 1.496 . S
C173 C174 1.399 . S
C173 C176 1.389 . S
C174 C173 1.399 . S
C174 C177 1.380 . S
C174 H184 0.929 . S
C175 C172 1.399 . S
C175 C177 1.392 . S
C175 H185 0.929 . S
C176 C172 1.383 . S
C176 C173 1.389 . S
C176 H186 0.931 . S
C177 C174 1.380 . S
C177 C175 1.392 . S
C177 H187 0.929 . S
C178 O158 1.266 . S
C178 O159 1.248 . S
C179 Tb115 2.802 . S
C179 O154 1.264 . S
C179 O157 1.256 . S
C179 C172 1.496 . S
H180 C163 0.929 . S
H181 C164 0.929 . S
H182 C165 0.929 . S
H183 C166 0.931 . S
H184 C174 0.929 . S
H185 C175 0.929 . S
H186 C176 0.931 . S
H187 C177 0.929 . S
Tb188 N217 2.617 . S
Tb188 N223 2.572 . S
Tb188 O232 2.465 . S
Tb188 O233 2.387 . S
Tb188 O235 2.428 . S
Tb188 O236 2.308 . S
Tb188 O240 2.349 . S
Tb188 O243 2.393 . S
Tb188 C252 2.802 . S
C189 N190 1.379 . S
C189 C192 1.416 . S
C189 C196 1.424 . S
N190 C189 1.379 . S
N190 C193 1.334 . S
N190 Tb199 2.617 . S
C191 C193 1.390 . S
C191 C194 1.339 . S
C191 H211 0.930 . S
C192 C189 1.416 . S
C192 C194 1.416 . S
C192 C198 1.448 . S
C193 N190 1.334 . S
C193 C191 1.390 . S
C193 H204 0.930 . S
C194 C191 1.339 . S
C194 C192 1.416 . S
C194 H215 0.930 . S
C195 C196 1.413 . S
C195 C197 1.427 . S
C195 C201 1.416 . S
C196 C189 1.424 . S
C196 C195 1.413 . S
C196 N200 1.361 . S
C197 C195 1.427 . S
C197 C198 1.328 . S
C197 H212 0.929 . S
C198 C192 1.448 . S
C198 C197 1.328 . S
C198 H213 0.930 . S
Tb199 N190 2.617 . S
Tb199 N200 2.572 . S
Tb199 O234 2.349 . S
Tb199 O237 2.393 . S
Tb199 O238 2.465 . S
Tb199 O239 2.387 . S
Tb199 O241 2.428 . S
Tb199 O242 2.308 . S
Tb199 C263 2.802 . S
N200 C196 1.361 . S
N200 Tb199 2.572 . S
N200 C202 1.340 . S
C201 C195 1.416 . S
C201 C203 1.332 . S
C201 H209 0.931 . S
C202 N200 1.340 . S
C202 C203 1.407 . S
C202 H208 0.930 . S
C203 C201 1.332 . S
C203 C202 1.407 . S
C203 H205 0.929 . S
H204 C193 0.930 . S
H205 C203 0.929 . S
H206 C221 0.930 . S
H207 C228 0.929 . S
H208 C202 0.930 . S
H209 C201 0.931 . S
H210 C224 0.930 . S
H211 C191 0.930 . S
H212 C197 0.929 . S
H213 C198 0.930 . S
H214 C219 0.930 . S
H215 C194 0.930 . S
H216 C227 0.931 . S
N217 Tb188 2.617 . S
N217 C218 1.379 . S
N217 C221 1.334 . S
C218 N217 1.379 . S
C218 C220 1.416 . S
C218 C226 1.424 . S
C219 H214 0.930 . S
C219 C221 1.390 . S
C219 C222 1.339 . S
C220 C218 1.416 . S
C220 C222 1.416 . S
C220 C253 1.448 . S
C221 H206 0.930 . S
C221 N217 1.334 . S
C221 C219 1.390 . S
C222 C219 1.339 . S
C222 C220 1.416 . S
C222 H229 0.930 . S
N223 Tb188 2.572 . S
N223 C224 1.340 . S
N223 C226 1.361 . S
C224 H210 0.930 . S
C224 N223 1.340 . S
C224 C228 1.407 . S
C225 C226 1.413 . S
C225 C227 1.416 . S
C225 C254 1.427 . S
C226 C218 1.424 . S
C226 N223 1.361 . S
C226 C225 1.413 . S
C227 H216 0.931 . S
C227 C225 1.416 . S
C227 C228 1.332 . S
C228 H207 0.929 . S
C228 C224 1.407 . S
C228 C227 1.332 . S
H229 C222 0.930 . S
H230 C253 0.930 . S
H231 C254 0.929 . S
O232 Tb188 2.465 . S
O232 C252 1.264 . S
O233 Tb188 2.387 . S
O233 C244 1.264 . S
O234 Tb199 2.349 . S
O234 C244 1.243 . S
O235 Tb188 2.428 . S
O235 C252 1.256 . S
O236 Tb188 2.308 . S
O236 C251 1.266 . S
O237 Tb199 2.393 . S
O237 C251 1.248 . S
O238 Tb199 2.465 . S
O238 C263 1.264 . S
O239 Tb199 2.387 . S
O239 C255 1.264 . S
O240 Tb188 2.349 . S
O240 C255 1.243 . S
O241 Tb199 2.428 . S
O241 C263 1.256 . S
O242 Tb199 2.308 . S
O242 C262 1.266 . S
O243 Tb188 2.393 . S
O243 C262 1.248 . S
C244 O233 1.264 . S
C244 O234 1.243 . S
C245 C248 1.399 . S
C245 C250 1.383 . S
C245 C252 1.496 . S
C246 C247 1.399 . S
C246 C250 1.389 . S
C247 C246 1.399 . S
C247 C249 1.380 . S
C247 H264 0.929 . S
C248 C245 1.399 . S
C248 C249 1.392 . S
C248 H265 0.929 . S
C249 C247 1.380 . S
C249 C248 1.392 . S
C249 H266 0.929 . S
C250 C245 1.383 . S
C250 C246 1.389 . S
C250 H267 0.931 . S
C251 O236 1.266 . S
C251 O237 1.248 . S
C252 Tb188 2.802 . S
C252 O232 1.264 . S
C252 O235 1.256 . S
C252 C245 1.496 . S
C253 C220 1.448 . S
C253 H230 0.930 . S
C253 C254 1.328 . S
C254 C225 1.427 . S
C254 H231 0.929 . S
C254 C253 1.328 . S
C255 O239 1.264 . S
C255 O240 1.243 . S
C256 C259 1.399 . S
C256 C260 1.383 . S
C256 C263 1.496 . S
C257 C258 1.399 . S
C257 C260 1.389 . S
C258 C257 1.399 . S
C258 C261 1.380 . S
C258 H268 0.929 . S
C259 C256 1.399 . S
C259 C261 1.392 . S
C259 H269 0.929 . S
C260 C256 1.383 . S
C260 C257 1.389 . S
C260 H270 0.931 . S
C261 C258 1.380 . S
C261 C259 1.392 . S
C261 H271 0.929 . S
C262 O242 1.266 . S
C262 O243 1.248 . S
C263 Tb199 2.802 . S
C263 O238 1.264 . S
C263 O241 1.256 . S
C263 C256 1.496 . S
H264 C247 0.929 . S
H265 C248 0.929 . S
H266 C249 0.929 . S
H267 C250 0.931 . S
H268 C258 0.929 . S
H269 C259 0.929 . S
H270 C260 0.931 . S
H271 C261 0.929 . S
Tb272 N301 2.617 . S
Tb272 N307 2.572 . S
Tb272 O316 2.465 . S
Tb272 O317 2.387 . S
Tb272 O319 2.428 . S
Tb272 O320 2.312 . S
Tb272 O324 2.349 . S
Tb272 O327 2.393 . S
Tb272 C336 2.802 . S
C273 N274 1.379 . S
C273 C276 1.416 . S
C273 C280 1.424 . S
N274 C273 1.379 . S
N274 C277 1.334 . S
N274 Tb283 2.617 . S
C275 C277 1.390 . S
C275 C278 1.339 . S
C275 H295 0.930 . S
C276 C273 1.416 . S
C276 C278 1.416 . S
C276 C282 1.448 . S
C277 N274 1.334 . S
C277 C275 1.390 . S
C277 H288 0.930 . S
C278 C275 1.339 . S
C278 C276 1.416 . S
C278 H299 0.930 . S
C279 C280 1.413 . S
C279 C281 1.427 . S
C279 C285 1.416 . S
C280 C273 1.424 . S
C280 C279 1.413 . S
C280 N284 1.361 . S
C281 C279 1.427 . S
C281 C282 1.328 . S
C281 H296 0.929 . S
C282 C276 1.448 . S
C282 C281 1.328 . S
C282 H297 0.930 . S
Tb283 N274 2.617 . S
Tb283 N284 2.572 . S
Tb283 O318 2.349 1_655 S
Tb283 O321 2.393 . S
Tb283 O322 2.465 . S
Tb283 O323 2.387 . S
Tb283 O325 2.428 . S
Tb283 O326 2.308 1_655 S
Tb283 C347 2.802 . S
N284 C280 1.361 . S
N284 Tb283 2.572 . S
N284 C286 1.340 . S
C285 C279 1.416 . S
C285 C287 1.332 . S
C285 H293 0.931 . S
C286 N284 1.340 . S
C286 C287 1.407 . S
C286 H292 0.930 . S
C287 C285 1.332 . S
C287 C286 1.407 . S
C287 H289 0.929 . S
H288 C277 0.930 . S
H289 C287 0.929 . S
H290 C305 0.930 . S
H291 C312 0.929 . S
H292 C286 0.930 . S
H293 C285 0.931 . S
H294 C308 0.930 . S
H295 C275 0.930 . S
H296 C281 0.929 . S
H297 C282 0.930 . S
H298 C303 0.930 . S
H299 C278 0.930 . S
H300 C311 0.931 . S
N301 Tb272 2.617 . S
N301 C302 1.379 . S
N301 C305 1.334 . S
C302 N301 1.379 . S
C302 C304 1.416 . S
C302 C310 1.424 . S
C303 H298 0.930 . S
C303 C305 1.390 . S
C303 C306 1.339 . S
C304 C302 1.416 . S
C304 C306 1.416 . S
C304 C337 1.448 . S
C305 H290 0.930 . S
C305 N301 1.334 . S
C305 C303 1.390 . S
C306 C303 1.339 . S
C306 C304 1.416 . S
C306 H313 0.930 . S
N307 Tb272 2.572 . S
N307 C308 1.340 . S
N307 C310 1.361 . S
C308 H294 0.930 . S
C308 N307 1.340 . S
C308 C312 1.407 1_565 S
C309 C310 1.417 . S
C309 C311 1.412 1_565 S
C309 C338 1.427 1_565 S
C310 C302 1.424 . S
C310 N307 1.361 . S
C310 C309 1.417 . S
C311 H300 0.931 . S
C311 C309 1.412 1_545 S
C311 C312 1.332 . S
C312 H291 0.929 . S
C312 C308 1.407 1_545 S
C312 C311 1.332 . S
H313 C306 0.930 . S
H314 C337 0.930 . S
H315 C338 0.928 . S
O316 Tb272 2.465 . S
O316 C336 1.264 . S
O317 Tb272 2.387 . S
O317 C328 1.264 . S
O318 Tb283 2.349 1_455 S
O318 C328 1.243 . S
O319 Tb272 2.428 . S
O319 C336 1.256 . S
O320 Tb272 2.312 . S
O320 C335 1.262 1_455 S
O321 Tb283 2.393 . S
O321 C335 1.248 . S
O322 Tb283 2.465 . S
O322 C347 1.264 . S
O323 Tb283 2.387 . S
O323 C339 1.264 . S
O324 Tb272 2.349 . S
O324 C339 1.243 1_455 S
O325 Tb283 2.428 . S
O325 C347 1.256 . S
O326 Tb283 2.308 1_455 S
O326 C346 1.266 . S
O327 Tb272 2.393 . S
O327 C346 1.248 . S
C328 O317 1.264 . S
C328 O318 1.243 . S
C329 C332 1.399 . S
C329 C334 1.383 . S
C329 C336 1.496 . S
C330 C331 1.399 . S
C330 C334 1.389 . S
C331 C330 1.399 . S
C331 C333 1.380 . S
C331 H348 0.929 . S
C332 C329 1.399 . S
C332 C333 1.392 . S
C332 H349 0.929 . S
C333 C331 1.380 . S
C333 C332 1.392 . S
C333 H350 0.929 . S
C334 C329 1.383 . S
C334 C330 1.389 . S
C334 H351 0.931 . S
C335 O320 1.262 1_655 S
C335 O321 1.248 . S
C336 Tb272 2.802 . S
C336 O316 1.264 . S
C336 O319 1.256 . S
C336 C329 1.496 . S
C337 C304 1.448 . S
C337 H314 0.930 . S
C337 C338 1.330 1_565 S
C338 C309 1.427 1_545 S
C338 H315 0.928 . S
C338 C337 1.330 1_545 S
C339 O323 1.264 . S
C339 O324 1.243 1_655 S
C340 C343 1.399 . S
C340 C344 1.383 . S
C340 C347 1.496 . S
C341 C342 1.399 . S
C341 C344 1.389 . S
C342 C341 1.399 . S
C342 C345 1.380 . S
C342 H352 0.929 . S
C343 C340 1.399 . S
C343 C345 1.392 . S
C343 H353 0.929 . S
C344 C340 1.383 . S
C344 C341 1.389 . S
C344 H354 0.931 . S
C345 C342 1.380 . S
C345 C343 1.392 . S
C345 H355 0.929 . S
C346 O326 1.266 . S
C346 O327 1.248 . S
C347 Tb283 2.802 . S
C347 O322 1.264 . S
C347 O325 1.256 . S
C347 C340 1.496 . S
H348 C331 0.929 . S
H349 C332 0.929 . S
H350 C333 0.929 . S
H351 C334 0.931 . S
H352 C342 0.929 . S
H353 C343 0.929 . S
H354 C344 0.931 . S
H355 C345 0.929 . S
Tb356 N385 2.617 . S
Tb356 N391 2.572 . S
Tb356 O400 2.465 . S
Tb356 O401 2.387 . S
Tb356 O403 2.428 . S
Tb356 O404 2.308 . S
Tb356 O408 2.349 . S
Tb356 O411 2.393 . S
Tb356 C420 2.802 . S
C357 N358 1.379 . S
C357 C360 1.416 . S
C357 C364 1.424 . S
N358 C357 1.379 . S
N358 C361 1.334 . S
N358 Tb367 2.617 . S
C359 C361 1.390 . S
C359 C362 1.339 . S
C359 H379 0.930 . S
C360 C357 1.416 . S
C360 C362 1.416 . S
C360 C366 1.448 . S
C361 N358 1.334 . S
C361 C359 1.390 . S
C361 H372 0.930 . S
C362 C359 1.339 . S
C362 C360 1.416 . S
C362 H383 0.930 . S
C363 C364 1.413 . S
C363 C365 1.427 . S
C363 C369 1.416 . S
C364 C357 1.424 . S
C364 C363 1.413 . S
C364 N368 1.361 . S
C365 C363 1.427 . S
C365 C366 1.328 . S
C365 H380 0.929 . S
C366 C360 1.448 . S
C366 C365 1.328 . S
C366 H381 0.930 . S
Tb367 N358 2.617 . S
Tb367 N368 2.572 . S
Tb367 O402 2.349 . S
Tb367 O405 2.393 . S
Tb367 O406 2.465 . S
Tb367 O407 2.387 . S
Tb367 O409 2.428 . S
Tb367 O410 2.308 . S
Tb367 C431 2.802 . S
N368 C364 1.361 . S
N368 Tb367 2.572 . S
N368 C370 1.340 . S
C369 C363 1.416 . S
C369 C371 1.332 . S
C369 H377 0.931 . S
C370 N368 1.340 . S
C370 C371 1.407 . S
C370 H376 0.930 . S
C371 C369 1.332 . S
C371 C370 1.407 . S
C371 H373 0.929 . S
H372 C361 0.930 . S
H373 C371 0.929 . S
H374 C389 0.930 . S
H375 C396 0.929 . S
H376 C370 0.930 . S
H377 C369 0.931 . S
H378 C392 0.930 . S
H379 C359 0.930 . S
H380 C365 0.929 . S
H381 C366 0.930 . S
H382 C387 0.930 . S
H383 C362 0.930 . S
H384 C395 0.931 . S
N385 Tb356 2.617 . S
N385 C386 1.379 . S
N385 C389 1.334 . S
C386 N385 1.379 . S
C386 C388 1.416 . S
C386 C394 1.424 . S
C387 H382 0.930 . S
C387 C389 1.390 . S
C387 C390 1.339 . S
C388 C386 1.416 . S
C388 C390 1.416 . S
C388 C421 1.448 . S
C389 H374 0.930 . S
C389 N385 1.334 . S
C389 C387 1.390 . S
C390 C387 1.339 . S
C390 C388 1.416 . S
C390 H397 0.930 . S
N391 Tb356 2.572 . S
N391 C392 1.340 . S
N391 C394 1.361 . S
C392 H378 0.930 . S
C392 N391 1.340 . S
C392 C396 1.407 . S
C393 C394 1.413 . S
C393 C395 1.416 . S
C393 C422 1.427 . S
C394 C386 1.424 . S
C394 N391 1.361 . S
C394 C393 1.413 . S
C395 H384 0.931 . S
C395 C393 1.416 . S
C395 C396 1.332 . S
C396 H375 0.929 . S
C396 C392 1.407 . S
C396 C395 1.332 . S
H397 C390 0.930 . S
H398 C421 0.930 . S
H399 C422 0.929 . S
O400 Tb356 2.465 . S
O400 C420 1.264 . S
O401 Tb356 2.387 . S
O401 C412 1.264 . S
O402 Tb367 2.349 . S
O402 C412 1.243 . S
O403 Tb356 2.428 . S
O403 C420 1.256 . S
O404 Tb356 2.308 . S
O404 C419 1.266 . S
O405 Tb367 2.393 . S
O405 C419 1.248 . S
O406 Tb367 2.465 . S
O406 C431 1.264 . S
O407 Tb367 2.387 . S
O407 C423 1.264 . S
O408 Tb356 2.349 . S
O408 C423 1.243 . S
O409 Tb367 2.428 . S
O409 C431 1.256 . S
O410 Tb367 2.308 . S
O410 C430 1.266 . S
O411 Tb356 2.393 . S
O411 C430 1.248 . S
C412 O401 1.264 . S
C412 O402 1.243 . S
C413 C416 1.399 . S
C413 C418 1.383 . S
C413 C420 1.496 . S
C414 C415 1.399 . S
C414 C418 1.389 . S
C415 C414 1.399 . S
C415 C417 1.380 . S
C415 H432 0.929 . S
C416 C413 1.399 . S
C416 C417 1.392 . S
C416 H433 0.929 . S
C417 C415 1.380 . S
C417 C416 1.392 . S
C417 H434 0.929 . S
C418 C413 1.383 . S
C418 C414 1.389 . S
C418 H435 0.931 . S
C419 O404 1.266 . S
C419 O405 1.248 . S
C420 Tb356 2.802 . S
C420 O400 1.264 . S
C420 O403 1.256 . S
C420 C413 1.496 . S
C421 C388 1.448 . S
C421 H398 0.930 . S
C421 C422 1.328 . S
C422 C393 1.427 . S
C422 H399 0.929 . S
C422 C421 1.328 . S
C423 O407 1.264 . S
C423 O408 1.243 . S
C424 C427 1.399 . S
C424 C428 1.383 . S
C424 C431 1.496 . S
C425 C426 1.399 . S
C425 C428 1.389 . S
C426 C425 1.399 . S
C426 C429 1.380 . S
C426 H436 0.929 . S
C427 C424 1.399 . S
C427 C429 1.392 . S
C427 H437 0.929 . S
C428 C424 1.383 . S
C428 C425 1.389 . S
C428 H438 0.931 . S
C429 C426 1.380 . S
C429 C427 1.392 . S
C429 H439 0.929 . S
C430 O410 1.266 . S
C430 O411 1.248 . S
C431 Tb367 2.802 . S
C431 O406 1.264 . S
C431 O409 1.256 . S
C431 C424 1.496 . S
H432 C415 0.929 . S
H433 C416 0.929 . S
H434 C417 0.929 . S
H435 C418 0.931 . S
H436 C426 0.929 . S
H437 C427 0.929 . S
H438 C428 0.931 . S
H439 C429 0.929 . S
H440 C446 0.930 . S
H441 C449 0.930 . S
H442 C450 0.930 . S
H443 C451 0.930 . S
H444 C454 0.930 1_655 S
H445 C455 0.930 . S
C446 H440 0.930 . S
C446 C447 1.355 . S
C446 C448 1.415 . S
C447 C446 1.355 . S
C447 C449 1.419 . S
C448 C446 1.415 . S
C448 C453 1.425 . S
C448 C455 1.409 . S
C449 H441 0.930 . S
C449 C447 1.419 . S
C449 C450 1.362 . S
C450 H442 0.930 . S
C450 C449 1.362 . S
C450 C453 1.409 . S
C451 H443 0.930 . S
C451 C452 1.355 . S
C451 C453 1.415 1_545 S
C452 C451 1.355 . S
C452 C454 1.419 1_545 S
C453 C448 1.425 . S
C453 C450 1.409 . S
C453 C451 1.415 1_565 S
C454 H444 0.930 1_455 S
C454 C452 1.419 1_565 S
C454 C455 1.362 . S
C455 H445 0.930 . S
C455 C448 1.409 . S
C455 C454 1.362 . S
H456 C462 0.930 . S
H457 C465 0.930 . S
H458 C466 0.930 . S
H459 C467 0.930 . S
H460 C470 0.930 . S
H461 C471 0.930 . S
C462 H456 0.930 . S
C462 C463 1.355 . S
C462 C464 1.415 . S
C463 C462 1.355 . S
C463 C465 1.419 . S
C464 C462 1.415 . S
C464 C469 1.425 . S
C464 C471 1.409 . S
C465 H457 0.930 . S
C465 C463 1.419 . S
C465 C466 1.362 . S
C466 H458 0.930 . S
C466 C465 1.362 . S
C466 C469 1.409 . S
C467 H459 0.930 . S
C467 C468 1.355 . S
C467 C469 1.415 . S
C468 C467 1.355 . S
C468 C470 1.419 . S
C469 C464 1.425 . S
C469 C466 1.409 . S
C469 C467 1.415 . S
C470 H460 0.930 . S
C470 C468 1.419 . S
C470 C471 1.362 . S
C471 H461 0.930 . S
C471 C464 1.409 . S
C471 C470 1.362 . S
H472 C478 0.930 . S
H473 C481 0.930 . S
H474 C482 0.930 . S
H475 C483 0.930 . S
H476 C486 0.930 . S
H477 C487 0.930 . S
C478 H472 0.930 . S
C478 C479 1.355 . S
C478 C480 1.415 . S
C479 C478 1.355 . S
C479 C481 1.419 . S
C480 C478 1.415 . S
C480 C485 1.425 . S
C480 C487 1.409 . S
C481 H473 0.930 . S
C481 C479 1.419 . S
C481 C482 1.362 . S
C482 H474 0.930 . S
C482 C481 1.362 . S
C482 C485 1.409 . S
C483 H475 0.930 . S
C483 C484 1.355 . S
C483 C485 1.415 . S
C484 C483 1.355 . S
C484 C486 1.419 . S
C485 C480 1.425 . S
C485 C482 1.409 . S
C485 C483 1.415 . S
C486 H476 0.930 . S
C486 C484 1.419 . S
C486 C487 1.362 . S
C487 H477 0.930 . S
C487 C480 1.409 . S
C487 C486 1.362 . S
H488 C494 0.930 . S
H489 C497 0.930 . S
H490 C498 0.930 . S
H491 C499 0.930 . S
H492 C502 0.930 . S
H493 C503 0.930 . S
C494 H488 0.930 . S
C494 C495 1.355 . S
C494 C496 1.415 . S
C495 C494 1.355 . S
C495 C497 1.419 . S
C496 C494 1.415 . S
C496 C501 1.425 . S
C496 C503 1.409 . S
C497 H489 0.930 . S
C497 C495 1.419 . S
C497 C498 1.362 . S
C498 H490 0.930 . S
C498 C497 1.362 . S
C498 C501 1.409 . S
C499 H491 0.930 . S
C499 C500 1.355 1_565 S
C499 C501 1.415 . S
C500 C499 1.355 1_545 S
C500 C502 1.419 . S
C501 C496 1.425 . S
C501 C498 1.409 . S
C501 C499 1.415 . S
C502 H492 0.930 . S
C502 C500 1.419 . S
C502 C503 1.362 1_545 S
C503 H493 0.930 . S
C503 C496 1.409 . S
C503 C502 1.362 1_565 S
H504 C510 0.930 . S
H505 C513 0.930 . S
H506 C514 0.930 . S
H507 C515 0.930 . S
H508 C518 0.930 1_455 S
H509 C519 0.930 . S
C510 H504 0.930 . S
C510 C511 1.355 . S
C510 C512 1.415 . S
C511 C510 1.355 . S
C511 C513 1.419 . S
C512 C510 1.415 . S
C512 C517 1.425 . S
C512 C519 1.409 . S
C513 H505 0.930 . S
C513 C511 1.419 . S
C513 C514 1.362 . S
C514 H506 0.930 . S
C514 C513 1.362 . S
C514 C517 1.409 . S
C515 H507 0.930 . S
C515 C516 1.355 . S
C515 C517 1.415 1_565 S
C516 C515 1.355 . S
C516 C518 1.419 1_565 S
C517 C512 1.425 . S
C517 C514 1.409 . S
C517 C515 1.415 1_545 S
C518 H508 0.930 1_655 S
C518 C516 1.419 1_545 S
C518 C519 1.362 . S
C519 H509 0.930 . S
C519 C512 1.409 . S
C519 C518 1.362 . S
H520 C526 0.930 . S
H521 C529 0.930 . S
H522 C530 0.930 . S
H523 C531 0.930 . S
H524 C534 0.930 . S
H525 C535 0.930 . S
C526 H520 0.930 . S
C526 C527 1.355 . S
C526 C528 1.415 . S
C527 C526 1.355 . S
C527 C529 1.419 . S
C528 C526 1.415 . S
C528 C533 1.425 . S
C528 C535 1.409 . S
C529 H521 0.930 . S
C529 C527 1.419 . S
C529 C530 1.362 . S
C530 H522 0.930 . S
C530 C529 1.362 . S
C530 C533 1.409 . S
C531 H523 0.930 . S
C531 C532 1.355 . S
C531 C533 1.415 . S
C532 C531 1.355 . S
C532 C534 1.419 . S
C533 C528 1.425 . S
C533 C530 1.409 . S
C533 C531 1.415 . S
C534 H524 0.930 . S
C534 C532 1.419 . S
C534 C535 1.362 . S
C535 H525 0.930 . S
C535 C528 1.409 . S
C535 C534 1.362 . S
H536 C542 0.930 . S
H537 C545 0.930 . S
H538 C546 0.930 . S
H539 C547 0.930 . S
H540 C550 0.930 . S
H541 C551 0.930 . S
C542 H536 0.930 . S
C542 C543 1.355 . S
C542 C544 1.415 . S
C543 C542 1.355 . S
C543 C545 1.419 . S
C544 C542 1.415 . S
C544 C549 1.425 . S
C544 C551 1.409 . S
C545 H537 0.930 . S
C545 C543 1.419 . S
C545 C546 1.362 . S
C546 H538 0.930 . S
C546 C545 1.362 . S
C546 C549 1.409 . S
C547 H539 0.930 . S
C547 C548 1.355 . S
C547 C549 1.415 . S
C548 C547 1.355 . S
C548 C550 1.419 . S
C549 C544 1.425 . S
C549 C546 1.409 . S
C549 C547 1.415 . S
C550 H540 0.930 . S
C550 C548 1.419 . S
C550 C551 1.362 . S
C551 H541 0.930 . S
C551 C544 1.409 . S
C551 C550 1.362 . S
H552 C558 0.930 . S
H553 C561 0.930 . S
H554 C562 0.930 . S
H555 C563 0.930 . S
H556 C566 0.930 . S
H557 C567 0.930 . S
C558 H552 0.930 . S
C558 C559 1.355 . S
C558 C560 1.415 . S
C559 C558 1.355 . S
C559 C561 1.419 . S
C560 C558 1.415 . S
C560 C565 1.425 . S
C560 C567 1.409 . S
C561 H553 0.930 . S
C561 C559 1.419 . S
C561 C562 1.362 . S
C562 H554 0.930 . S
C562 C561 1.362 . S
C562 C565 1.409 . S
C563 H555 0.930 . S
C563 C564 1.355 1_545 S
C563 C565 1.415 . S
C564 C563 1.355 1_565 S
C564 C566 1.419 . S
C565 C560 1.425 . S
C565 C562 1.409 . S
C565 C563 1.415 . S
C566 H556 0.930 . S
C566 C564 1.419 . S
C566 C567 1.362 1_565 S
C567 H557 0.930 . S
C567 C560 1.409 . S
C567 C566 1.362 1_545 S
H568 C574 0.930 . S
H569 C577 0.930 . S
H570 C578 0.930 1_554 S
H571 C579 0.930 . S
H572 C582 0.930 . S
H573 C583 0.930 . S
C574 H568 0.930 . S
C574 C575 1.355 . S
C574 C576 1.415 . S
C575 C574 1.355 . S
C575 C577 1.419 . S
C576 C574 1.415 . S
C576 C581 1.425 1_556 S
C576 C583 1.409 . S
C577 H569 0.930 . S
C577 C575 1.419 . S
C577 C578 1.362 . S
C578 H570 0.930 1_556 S
C578 C577 1.362 . S
C578 C581 1.409 1_556 S
C579 H571 0.930 . S
C579 C580 1.355 . S
C579 C581 1.415 . S
C580 C579 1.355 . S
C580 C582 1.419 . S
C581 C576 1.425 1_554 S
C581 C578 1.409 1_554 S
C581 C579 1.415 . S
C582 H572 0.930 . S
C582 C580 1.419 . S
C582 C583 1.362 1_554 S
C583 H573 0.930 . S
C583 C576 1.409 . S
C583 C582 1.362 1_556 S
H584 C590 0.930 . S
H585 C593 0.930 . S
H586 C594 0.930 . S
H587 C595 0.930 . S
H588 C598 0.930 . S
H589 C599 0.930 . S
C590 H584 0.930 . S
C590 C591 1.355 . S
C590 C592 1.415 . S
C591 C590 1.355 . S
C591 C593 1.419 . S
C592 C590 1.415 . S
C592 C597 1.425 . S
C592 C599 1.409 . S
C593 H585 0.930 . S
C593 C591 1.419 . S
C593 C594 1.362 . S
C594 H586 0.930 . S
C594 C593 1.362 . S
C594 C597 1.409 . S
C595 H587 0.930 . S
C595 C596 1.355 . S
C595 C597 1.415 . S
C596 C595 1.355 . S
C596 C598 1.419 . S
C597 C592 1.425 . S
C597 C594 1.409 . S
C597 C595 1.415 . S
C598 H588 0.930 . S
C598 C596 1.419 . S
C598 C599 1.362 . S
C599 H589 0.930 . S
C599 C592 1.409 . S
C599 C598 1.362 . S
H600 C606 0.930 . S
H601 C609 0.930 . S
H602 C610 0.930 . S
H603 C611 0.930 . S
H604 C614 0.930 . S
H605 C615 0.930 . S
C606 H600 0.930 . S
C606 C607 1.355 . S
C606 C608 1.415 . S
C607 C606 1.355 . S
C607 C609 1.419 . S
C608 C606 1.415 . S
C608 C613 1.425 . S
C608 C615 1.409 1_554 S
C609 H601 0.930 . S
C609 C607 1.419 . S
C609 C610 1.362 . S
C610 H602 0.930 . S
C610 C609 1.362 . S
C610 C613 1.409 . S
C611 H603 0.930 . S
C611 C612 1.355 . S
C611 C613 1.415 1_556 S
C612 C611 1.355 . S
C612 C614 1.419 . S
C613 C608 1.425 . S
C613 C610 1.409 . S
C613 C611 1.415 1_554 S
C614 H604 0.930 . S
C614 C612 1.419 . S
C614 C615 1.362 . S
C615 H605 0.930 . S
C615 C608 1.409 1_556 S
C615 C614 1.362 . S
H616 C622 0.930 . S
H617 C625 0.930 . S
H618 C626 0.930 . S
H619 C627 0.930 . S
H620 C630 0.930 . S
H621 C631 0.930 . S
C622 H616 0.930 . S
C622 C623 1.355 . S
C622 C624 1.415 . S
C623 C622 1.355 . S
C623 C625 1.419 . S
C624 C622 1.415 . S
C624 C629 1.425 . S
C624 C631 1.409 . S
C625 H617 0.930 . S
C625 C623 1.419 . S
C625 C626 1.362 . S
C626 H618 0.930 . S
C626 C625 1.362 . S
C626 C629 1.409 . S
C627 H619 0.930 . S
C627 C628 1.355 . S
C627 C629 1.415 . S
C628 C627 1.355 . S
C628 C630 1.419 . S
C629 C624 1.425 . S
C629 C626 1.409 . S
C629 C627 1.415 . S
C630 H620 0.930 . S
C630 C628 1.419 . S
C630 C631 1.362 . S
C631 H621 0.930 . S
C631 C624 1.409 . S
C631 C630 1.362 . S
H632 C638 0.930 . S
H633 C641 0.930 . S
H634 C642 0.930 1_556 S
H635 C643 0.930 . S
H636 C646 0.930 . S
H637 C647 0.930 . S
C638 H632 0.930 . S
C638 C639 1.355 . S
C638 C640 1.415 . S
C639 C638 1.355 . S
C639 C641 1.419 . S
C640 C638 1.415 . S
C640 C645 1.425 1_554 S
C640 C647 1.409 . S
C641 H633 0.930 . S
C641 C639 1.419 . S
C641 C642 1.362 . S
C642 H634 0.930 1_554 S
C642 C641 1.362 . S
C642 C645 1.409 1_554 S
C643 H635 0.930 . S
C643 C644 1.355 . S
C643 C645 1.415 . S
C644 C643 1.355 . S
C644 C646 1.419 . S
C645 C640 1.425 1_556 S
C645 C642 1.409 1_556 S
C645 C643 1.415 . S
C646 H636 0.930 . S
C646 C644 1.419 . S
C646 C647 1.362 1_556 S
C647 H637 0.930 . S
C647 C640 1.409 . S
C647 C646 1.362 1_554 S
H648 C654 0.930 . S
H649 C657 0.930 . S
H650 C658 0.930 . S
H651 C659 0.930 . S
H652 C662 0.930 . S
H653 C663 0.930 . S
C654 H648 0.930 . S
C654 C655 1.355 . S
C654 C656 1.415 . S
C655 C654 1.355 . S
C655 C657 1.419 . S
C656 C654 1.415 . S
C656 C661 1.425 . S
C656 C663 1.409 . S
C657 H649 0.930 . S
C657 C655 1.419 . S
C657 C658 1.362 . S
C658 H650 0.930 . S
C658 C657 1.362 . S
C658 C661 1.409 . S
C659 H651 0.930 . S
C659 C660 1.355 . S
C659 C661 1.415 . S
C660 C659 1.355 . S
C660 C662 1.419 . S
C661 C656 1.425 . S
C661 C658 1.409 . S
C661 C659 1.415 . S
C662 H652 0.930 . S
C662 C660 1.419 . S
C662 C663 1.362 . S
C663 H653 0.930 . S
C663 C656 1.409 . S
C663 C662 1.362 . S
H664 C670 0.930 . S
H665 C673 0.930 . S
H666 C674 0.930 1_554 S
H667 C675 0.930 . S
H668 C678 0.930 . S
H669 C679 0.930 . S
C670 H664 0.930 . S
C670 C671 1.355 . S
C670 C672 1.415 . S
C671 C670 1.355 . S
C671 C673 1.419 . S
C672 C670 1.415 . S
C672 C677 1.425 1_556 S
C672 C679 1.409 . S
C673 H665 0.930 . S
C673 C671 1.419 . S
C673 C674 1.362 . S
C674 H666 0.930 1_556 S
C674 C673 1.362 . S
C674 C677 1.409 1_556 S
C675 H667 0.930 . S
C675 C676 1.355 . S
C675 C677 1.415 . S
C676 C675 1.355 . S
C676 C678 1.419 . S
C677 C672 1.425 1_554 S
C677 C674 1.409 1_554 S
C677 C675 1.415 . S
C678 H668 0.930 . S
C678 C676 1.419 . S
C678 C679 1.362 1_554 S
C679 H669 0.930 . S
C679 C672 1.409 . S
C679 C678 1.362 1_556 S
H680 C686 0.930 . S
H681 C689 0.930 . S
H682 C690 0.930 . S
H683 C691 0.930 . S
H684 C694 0.930 . S
H685 C695 0.930 . S
C686 H680 0.930 . S
C686 C687 1.355 . S
C686 C688 1.415 . S
C687 C686 1.355 . S
C687 C689 1.419 . S
C688 C686 1.415 . S
C688 C693 1.425 . S
C688 C695 1.409 . S
C689 H681 0.930 . S
C689 C687 1.419 . S
C689 C690 1.362 . S
C690 H682 0.930 . S
C690 C689 1.362 . S
C690 C693 1.409 . S
C691 H683 0.930 . S
C691 C692 1.355 . S
C691 C693 1.415 . S
C692 C691 1.355 . S
C692 C694 1.419 . S
C693 C688 1.425 . S
C693 C690 1.409 . S
C693 C691 1.415 . S
C694 H684 0.930 . S
C694 C692 1.419 . S
C694 C695 1.362 . S
C695 H685 0.930 . S
C695 C688 1.409 . S
C695 C694 1.362 . S
H696 C702 0.930 . S
H697 C705 0.930 . S
H698 C706 0.930 . S
H699 C707 0.930 . S
H700 C710 0.930 . S
H701 C711 0.930 . S
C702 H696 0.930 . S
C702 C703 1.355 . S
C702 C704 1.415 . S
C703 C702 1.355 . S
C703 C705 1.419 . S
C704 C702 1.415 . S
C704 C709 1.425 . S
C704 C711 1.409 . S
C705 H697 0.930 . S
C705 C703 1.419 . S
C705 C706 1.362 . S
C706 H698 0.930 . S
C706 C705 1.362 . S
C706 C709 1.409 . S
C707 H699 0.930 . S
C707 C708 1.355 . S
C707 C709 1.415 . S
C708 C707 1.355 . S
C708 C710 1.419 . S
C709 C704 1.425 . S
C709 C706 1.409 . S
C709 C707 1.415 . S
C710 H700 0.930 . S
C710 C708 1.419 . S
C710 C711 1.362 . S
C711 H701 0.930 . S
C711 C704 1.409 . S
C711 C710 1.362 . S
H712 C718 0.930 . S
H713 C721 0.930 . S
H714 C722 0.930 . S
H715 C723 0.930 . S
H716 C726 0.930 . S
H717 C727 0.930 . S
C718 H712 0.930 . S
C718 C719 1.355 . S
C718 C720 1.415 . S
C719 C718 1.355 . S
C719 C721 1.419 . S
C720 C718 1.415 . S
C720 C725 1.425 . S
C720 C727 1.409 . S
C721 H713 0.930 . S
C721 C719 1.419 . S
C721 C722 1.362 . S
C722 H714 0.930 . S
C722 C721 1.362 . S
C722 C725 1.409 . S
C723 H715 0.930 . S
C723 C724 1.355 . S
C723 C725 1.415 . S
C724 C723 1.355 . S
C724 C726 1.419 . S
C725 C720 1.425 . S
C725 C722 1.409 . S
C725 C723 1.415 . S
C726 H716 0.930 . S
C726 C724 1.419 . S
C726 C727 1.362 . S
C727 H717 0.930 . S
C727 C720 1.409 . S
C727 C726 1.362 . S
H728 C734 0.930 . S
H729 C737 0.930 . S
H730 C738 0.930 . S
H731 C739 0.930 . S
H732 C742 0.930 . S
H733 C743 0.930 . S
C734 H728 0.930 . S
C734 C735 1.355 . S
C734 C736 1.415 . S
C735 C734 1.355 . S
C735 C737 1.419 . S
C736 C734 1.415 . S
C736 C741 1.425 . S
C736 C743 1.409 . S
C737 H729 0.930 . S
C737 C735 1.419 . S
C737 C738 1.362 . S
C738 H730 0.930 . S
C738 C737 1.362 . S
C738 C741 1.409 . S
C739 H731 0.930 . S
C739 C740 1.355 . S
C739 C741 1.415 . S
C740 C739 1.355 . S
C740 C742 1.419 . S
C741 C736 1.425 . S
C741 C738 1.409 . S
C741 C739 1.415 . S
C742 H732 0.930 . S
C742 C740 1.419 . S
C742 C743 1.362 . S
C743 H733 0.930 . S
C743 C736 1.409 . S
C743 C742 1.362 . S
H744 C750 0.930 . S
H745 C753 0.930 . S
H746 C754 0.930 . S
H747 C755 0.930 . S
H748 C758 0.930 . S
H749 C759 0.930 . S
C750 H744 0.930 . S
C750 C751 1.355 . S
C750 C752 1.415 . S
C751 C750 1.355 . S
C751 C753 1.419 . S
C752 C750 1.415 . S
C752 C757 1.425 . S
C752 C759 1.409 . S
C753 H745 0.930 . S
C753 C751 1.419 . S
C753 C754 1.362 . S
C754 H746 0.930 . S
C754 C753 1.362 . S
C754 C757 1.409 . S
C755 H747 0.930 . S
C755 C756 1.355 . S
C755 C757 1.415 . S
C756 C755 1.355 . S
C756 C758 1.419 . S
C757 C752 1.425 . S
C757 C754 1.409 . S
C757 C755 1.415 . S
C758 H748 0.930 . S
C758 C756 1.419 . S
C758 C759 1.362 . S
C759 H749 0.930 . S
C759 C752 1.409 . S
C759 C758 1.362 . S
H760 C766 0.930 . S
H761 C769 0.930 . S
H762 C770 0.930 . S
H763 C771 0.930 . S
H764 C774 0.930 . S
H765 C775 0.930 . S
C766 H760 0.930 . S
C766 C767 1.355 . S
C766 C768 1.415 . S
C767 C766 1.355 . S
C767 C769 1.419 . S
C768 C766 1.415 . S
C768 C773 1.425 . S
C768 C775 1.409 . S
C769 H761 0.930 . S
C769 C767 1.419 . S
C769 C770 1.362 . S
C770 H762 0.930 . S
C770 C769 1.362 . S
C770 C773 1.409 . S
C771 H763 0.930 . S
C771 C772 1.355 . S
C771 C773 1.415 . S
C772 C771 1.355 . S
C772 C774 1.419 . S
C773 C768 1.425 . S
C773 C770 1.409 . S
C773 C771 1.415 . S
C774 H764 0.930 . S
C774 C772 1.419 . S
C774 C775 1.362 . S
C775 H765 0.930 . S
C775 C768 1.409 . S
C775 C774 1.362 . S
H776 C782 0.930 . S
H777 C785 0.930 . S
H778 C786 0.930 . S
H779 C787 0.930 . S
H780 C790 0.930 . S
H781 C791 0.930 . S
C782 H776 0.930 . S
C782 C783 1.355 . S
C782 C784 1.415 . S
C783 C782 1.355 . S
C783 C785 1.419 . S
C784 C782 1.415 . S
C784 C789 1.425 . S
C784 C791 1.409 . S
C785 H777 0.930 . S
C785 C783 1.419 . S
C785 C786 1.362 . S
C786 H778 0.930 . S
C786 C785 1.362 . S
C786 C789 1.409 . S
C787 H779 0.930 . S
C787 C788 1.355 . S
C787 C789 1.415 . S
C788 C787 1.355 . S
C788 C790 1.419 . S
C789 C784 1.425 . S
C789 C786 1.409 . S
C789 C787 1.415 . S
C790 H780 0.930 . S
C790 C788 1.419 . S
C790 C791 1.362 . S
C791 H781 0.930 . S
C791 C784 1.409 . S
C791 C790 1.362 . S
H792 C798 0.930 . S
H793 C801 0.930 . S
H794 C802 0.930 . S
H795 C803 0.930 . S
H796 C806 0.930 . S
H797 C807 0.930 . S
C798 H792 0.930 . S
C798 C799 1.355 . S
C798 C800 1.415 . S
C799 C798 1.355 . S
C799 C801 1.419 . S
C800 C798 1.415 . S
C800 C805 1.425 . S
C800 C807 1.409 . S
C801 H793 0.930 . S
C801 C799 1.419 . S
C801 C802 1.362 . S
C802 H794 0.930 . S
C802 C801 1.362 . S
C802 C805 1.409 . S
C803 H795 0.930 . S
C803 C804 1.355 . S
C803 C805 1.415 . S
C804 C803 1.355 . S
C804 C806 1.419 . S
C805 C800 1.425 . S
C805 C802 1.409 . S
C805 C803 1.415 . S
C806 H796 0.930 . S
C806 C804 1.419 . S
C806 C807 1.362 . S
C807 H797 0.930 . S
C807 C800 1.409 . S
C807 C806 1.362 . S
H808 C814 0.930 . S
H809 C817 0.930 . S
H810 C818 0.930 . S
H811 C819 0.930 . S
H812 C822 0.930 . S
H813 C823 0.930 . S
C814 H808 0.930 . S
C814 C815 1.355 . S
C814 C816 1.415 . S
C815 C814 1.355 . S
C815 C817 1.419 . S
C816 C814 1.415 . S
C816 C821 1.425 . S
C816 C823 1.409 . S
C817 H809 0.930 . S
C817 C815 1.419 . S
C817 C818 1.362 . S
C818 H810 0.930 . S
C818 C817 1.362 . S
C818 C821 1.409 . S
C819 H811 0.930 . S
C819 C820 1.355 . S
C819 C821 1.415 . S
C820 C819 1.355 . S
C820 C822 1.419 . S
C821 C816 1.425 . S
C821 C818 1.409 . S
C821 C819 1.415 . S
C822 H812 0.930 . S
C822 C820 1.419 . S
C822 C823 1.362 . S
C823 H813 0.930 . S
C823 C816 1.409 . S
C823 C822 1.362 . S
C447 N83 1.619 . S
C452 C178 1.640 . S
C468 C262 1.606 . S
C463 N96 1.642 . S
C484 C255 1.642 . S
C479 N57 1.605 . S
C495 N70 1.597 . S
C500 C171 1.635 . S
C516 C335 1.628 . S
C511 N31 1.631 . S
C532 C419 1.637 . S
C527 N44 1.622 . S
C543 N5 1.630 . S
C548 C412 1.633 . S
C559 N18 1.623 . S
C564 C328 1.630 . S
C580 C162 1.460 . S
C575 N14 1.602 . S
C596 C246 1.418 . S
C591 N1 1.603 . S
C612 C257 1.302 . S
C607 N40 1.614 . S
C628 C173 1.307 . S
C623 N27 1.615 . S
C644 C341 1.488 . S
C639 N66 1.606 . S
C655 N53 1.594 . S
C660 C425 1.393 . S
C676 C414 1.397 . S
C671 N92 1.609 . S
C687 N79 1.593 . S
C692 C330 1.320 . S
C708 C160 1.525 . S
C703 N2 1.523 . S
C724 C244 1.533 . S
C719 N15 1.533 . S
C735 N28 1.532 . S
C740 C251 1.478 . S
C756 C167 1.513 . S
C751 N41 1.525 . S
C772 C339 1.535 . S
C767 N54 1.517 . S
C783 N67 1.536 . S
C788 C423 1.524 . S
C799 N80 1.510 . S
C804 C430 1.501 . S
C815 N93 1.518 . S
C820 C346 1.523 . S
