# Generated by pormake.
# Topology wbl, (4,4)-cn, num edge types: 1
# Building blocks:
#     Node 0, Type 0, BuildingBlock: NAWXER_clean_linker_0, # of connection points: 4
#     Node 1, Type 0, BuildingBlock: NAWXER_clean_linker_0, # of connection points: 4
#     Node 2, Type 0, BuildingBlock: NAWXER_clean_linker_0, # of connection points: 4
#     Node 3, Type 0, BuildingBlock: NAWXER_clean_linker_0, # of connection points: 4
#     Node 4, Type 0, BuildingBlock: NAWXER_clean_linker_0, # of connection points: 4
#     Node 5, Type 0, BuildingBlock: NAWXER_clean_linker_0, # of connection points: 4
#     Node 6, Type 0, BuildingBlock: NAWXER_clean_linker_0, # of connection points: 4
#     Node 7, Type 0, BuildingBlock: NAWXER_clean_linker_0, # of connection points: 4
#     Node 8, Type 1, BuildingBlock: KUFVIS_clean_sbu_0, # of connection points: 4
#     Node 9, Type 1, BuildingBlock: KUFVIS_clean_sbu_0, # of connection points: 4
#     Node 10, Type 1, BuildingBlock: KUFVIS_clean_sbu_0, # of connection points: 4
#     Node 11, Type 1, BuildingBlock: KUFVIS_clean_sbu_0, # of connection points: 4
#     Node 12, Type 1, BuildingBlock: KUFVIS_clean_sbu_0, # of connection points: 4
#     Node 13, Type 1, BuildingBlock: KUFVIS_clean_sbu_0, # of connection points: 4
#     Node 14, Type 1, BuildingBlock: KUFVIS_clean_sbu_0, # of connection points: 4
#     Node 15, Type 1, BuildingBlock: KUFVIS_clean_sbu_0, # of connection points: 4
#     Edge 16, Type (0, 1), BuildingBlock: EZIPEK_clean_linker_0, # of connection points: 2
#     Edge 17, Type (0, 1), BuildingBlock: EZIPEK_clean_linker_0, # of connection points: 2
#     Edge 18, Type (0, 1), BuildingBlock: EZIPEK_clean_linker_0, # of connection points: 2
#     Edge 19, Type (0, 1), BuildingBlock: EZIPEK_clean_linker_0, # of connection points: 2
#     Edge 20, Type (0, 1), BuildingBlock: EZIPEK_clean_linker_0, # of connection points: 2
#     Edge 21, Type (0, 1), BuildingBlock: EZIPEK_clean_linker_0, # of connection points: 2
#     Edge 22, Type (0, 1), BuildingBlock: EZIPEK_clean_linker_0, # of connection points: 2
#     Edge 23, Type (0, 1), BuildingBlock: EZIPEK_clean_linker_0, # of connection points: 2
#     Edge 24, Type (0, 1), BuildingBlock: EZIPEK_clean_linker_0, # of connection points: 2
#     Edge 25, Type (0, 1), BuildingBlock: EZIPEK_clean_linker_0, # of connection points: 2
#     Edge 26, Type (0, 1), BuildingBlock: EZIPEK_clean_linker_0, # of connection points: 2
#     Edge 27, Type (0, 1), BuildingBlock: EZIPEK_clean_linker_0, # of connection points: 2
#     Edge 28, Type (0, 1), BuildingBlock: EZIPEK_clean_linker_0, # of connection points: 2
#     Edge 29, Type (0, 1), BuildingBlock: EZIPEK_clean_linker_0, # of connection points: 2
#     Edge 30, Type (0, 1), BuildingBlock: EZIPEK_clean_linker_0, # of connection points: 2
#     Edge 31, Type (0, 1), BuildingBlock: EZIPEK_clean_linker_0, # of connection points: 2
#     Edge 32, Type (0, 1), BuildingBlock: EZIPEK_clean_linker_0, # of connection points: 2
#     Edge 33, Type (0, 1), BuildingBlock: EZIPEK_clean_linker_0, # of connection points: 2
#     Edge 34, Type (0, 1), BuildingBlock: EZIPEK_clean_linker_0, # of connection points: 2
#     Edge 35, Type (0, 1), BuildingBlock: EZIPEK_clean_linker_0, # of connection points: 2
#     Edge 36, Type (0, 1), BuildingBlock: EZIPEK_clean_linker_0, # of connection points: 2
#     Edge 37, Type (0, 1), BuildingBlock: EZIPEK_clean_linker_0, # of connection points: 2
#     Edge 38, Type (0, 1), BuildingBlock: EZIPEK_clean_linker_0, # of connection points: 2
#     Edge 39, Type (0, 1), BuildingBlock: EZIPEK_clean_linker_0, # of connection points: 2
#     Edge 40, Type (0, 1), BuildingBlock: EZIPEK_clean_linker_0, # of connection points: 2
#     Edge 41, Type (0, 1), BuildingBlock: EZIPEK_clean_linker_0, # of connection points: 2
#     Edge 42, Type (0, 1), BuildingBlock: EZIPEK_clean_linker_0, # of connection points: 2
#     Edge 43, Type (0, 1), BuildingBlock: EZIPEK_clean_linker_0, # of connection points: 2
#     Edge 44, Type (0, 1), BuildingBlock: EZIPEK_clean_linker_0, # of connection points: 2
#     Edge 45, Type (0, 1), BuildingBlock: EZIPEK_clean_linker_0, # of connection points: 2
#     Edge 46, Type (0, 1), BuildingBlock: EZIPEK_clean_linker_0, # of connection points: 2
#     Edge 47, Type (0, 1), BuildingBlock: EZIPEK_clean_linker_0, # of connection points: 2
# Relax obj value: 0.159
# Max RMSD: 0.161
# Mean RMSD: 0.141
data_MOF--net-wbl--node1-KUFVIS_clean_sbu_0--node2-NAWXER_clean_linker_0--edge1-EZIPEK_clean_linker_0
_symmetry_space_group_name_H-M    P1
_symmetry_Int_Tables_number       1
_symmetry_cell_setting            triclinic
loop_
_symmetry_equiv_pos_as_xyz
'x, y, z'
_cell_length_a     35.175876
_cell_length_b     35.16133
_cell_length_c     60.38815
_cell_angle_alpha  89.95348
_cell_angle_beta   90.642322
_cell_angle_gamma 90.185591
loop_
_atom_site_label
_atom_site_type_symbol
_atom_site_fract_x
_atom_site_fract_y
_atom_site_fract_z
_atom_type_partial_charge
C0 C 0.03537 0.89846 0.38105 0.0
C1 C 0.07486 0.9019 0.38349 0.0
C2 C 0.01608 0.91997 0.36516 0.0
C3 C 0.0361 0.94461 0.35118 0.0
C4 C 0.09529 0.92466 0.3686 0.0
C5 C 0.07595 0.94605 0.35253 0.0
C6 C 0.01458 0.9723 0.33773 0.0
C7 C 0.10488 0.95323 0.28211 0.0
C8 C 0.10614 0.91348 0.28366 0.0
C9 C 0.07443 0.97318 0.29099 0.0
C10 C 0.04529 0.95363 0.30187 0.0
C11 C 0.0755 0.89365 0.29297 0.0
C12 C 0.04531 0.91369 0.30221 0.0
C13 C 0.01736 0.97549 0.31458 0.0
C14 C 0.91217 0.10727 0.29364 0.0
C15 C 0.88432 0.08752 0.28132 0.0
C16 C 0.942 0.08734 0.30379 0.0
C17 C 0.94419 0.04767 0.3015 0.0
C18 C 0.88828 0.04839 0.27773 0.0
C19 C 0.91819 0.02864 0.28763 0.0
C20 C 0.97092 0.02476 0.31475 0.0
C21 C 0.88854 0.07801 0.36437 0.0
C22 C 0.90626 0.09049 0.38408 0.0
C23 C 0.9089 0.05649 0.34899 0.0
C24 C 0.94782 0.04914 0.35247 0.0
C25 C 0.9452 0.08379 0.38727 0.0
C26 C 0.96575 0.06366 0.37159 0.0
C27 C 0.96988 0.02313 0.33816 0.0
H28 H 0.01932 0.88067 0.39221 0.0
H29 H 0.98531 0.91857 0.36436 0.0
H30 H 0.12584 0.92762 0.37032 0.0
H31 H 0.09187 0.9653 0.3421 0.0
H32 H 0.12835 0.96887 0.27497 0.0
H33 H 0.0748 0.00399 0.29056 0.0
H34 H 0.07618 0.86294 0.29429 0.0
H35 H 0.02283 0.89817 0.31041 0.0
H36 H 0.9095 0.13757 0.29642 0.0
H37 H 0.96219 0.10248 0.31423 0.0
H38 H 0.86712 0.03284 0.26817 0.0
H39 H 0.91966 0.99807 0.28556 0.0
H40 H 0.85845 0.0828 0.36163 0.0
H41 H 0.89377 0.04438 0.33498 0.0
H42 H 0.95949 0.09309 0.40232 0.0
H43 H 0.99563 0.0583 0.37481 0.0
N44 N 0.99145 0.99652 0.34859 0.0
N45 N 0.995 0.0012 0.30386 0.0
C46 C 0.90351 0.42217 0.61813 0.0
C47 C 0.91898 0.40958 0.63836 0.0
C48 C 0.92661 0.4409 0.60278 0.0
C49 C 0.96566 0.44637 0.60724 0.0
C50 C 0.95798 0.41428 0.64258 0.0
C51 C 0.98105 0.43248 0.62721 0.0
C52 C 0.98979 0.47056 0.59286 0.0
C53 C 0.9556 0.37283 0.55122 0.0
C54 C 0.9318 0.38157 0.53321 0.0
C55 C 0.97446 0.40171 0.56271 0.0
C56 C 0.96923 0.43995 0.55663 0.0
C57 C 0.92788 0.4195 0.52632 0.0
C58 C 0.94665 0.44857 0.53795 0.0
C59 C 0.98822 0.47055 0.56945 0.0
C60 C 0.09967 0.59876 0.54867 0.0
C61 C 0.07567 0.62135 0.53549 0.0
C62 C 0.0857 0.56557 0.55845 0.0
C63 C 0.04727 0.55525 0.55564 0.0
C64 C 0.03828 0.60937 0.53114 0.0
C65 C 0.02418 0.57649 0.54114 0.0
C66 C 0.0299 0.52435 0.5688 0.0
C67 C 0.07298 0.60721 0.6231 0.0
C68 C 0.0995 0.58936 0.63724 0.0
C69 C 0.05274 0.58582 0.60732 0.0
C70 C 0.05925 0.54656 0.60545 0.0
C71 C 0.10761 0.55076 0.63425 0.0
C72 C 0.08736 0.52943 0.61867 0.0
C73 C 0.03412 0.52191 0.59203 0.0
H74 H 0.87346 0.4186 0.61458 0.0
H75 H 0.91361 0.45228 0.58786 0.0
H76 H 0.97046 0.40449 0.65804 0.0
H77 H 0.01092 0.43647 0.63118 0.0
H78 H 0.95905 0.34363 0.55662 0.0
H79 H 0.99289 0.39414 0.5765 0.0
H80 H 0.90955 0.42658 0.5124 0.0
H81 H 0.94275 0.47781 0.53275 0.0
H82 H 0.12868 0.6076 0.55207 0.0
H83 H 0.1045 0.54887 0.56889 0.0
H84 H 0.01946 0.6266 0.52099 0.0
H85 H 0.9946 0.56886 0.53853 0.0
H86 H 0.06653 0.6371 0.62512 0.0
H87 H 0.03087 0.59944 0.59738 0.0
H88 H 0.12848 0.53676 0.64462 0.0
H89 H 0.09277 0.49919 0.61743 0.0
N90 N 0.0135 0.49559 0.60309 0.0
N91 N 0.0074 0.49821 0.55832 0.0
C92 C 0.59416 0.39654 0.86893 0.0
C93 C 0.59699 0.41078 0.89068 0.0
C94 C 0.57239 0.41575 0.85284 0.0
C95 C 0.55577 0.45118 0.8577 0.0
C96 C 0.58071 0.44619 0.89533 0.0
C97 C 0.56117 0.46635 0.87906 0.0
C98 C 0.52879 0.4712 0.84246 0.0
C99 C 0.62918 0.44512 0.80059 0.0
C100 C 0.62086 0.42018 0.78308 0.0
C101 C 0.59985 0.46302 0.8119 0.0
C102 C 0.56176 0.45542 0.80617 0.0
C103 C 0.58299 0.41439 0.7764 0.0
C104 C 0.55359 0.43197 0.78788 0.0
C105 C 0.53036 0.47202 0.81897 0.0
C106 C 0.41836 0.57184 0.77856 0.0
C107 C 0.38076 0.56253 0.784 0.0
C108 C 0.44865 0.55251 0.78866 0.0
C109 C 0.44146 0.52427 0.80452 0.0
C110 C 0.37366 0.53294 0.79895 0.0
C111 C 0.40379 0.51388 0.8091 0.0
C112 C 0.47278 0.50788 0.81778 0.0
C113 C 0.41173 0.53961 0.88852 0.0
C114 C 0.40768 0.57861 0.88441 0.0
C115 C 0.43081 0.51663 0.87353 0.0
C116 C 0.44593 0.53225 0.85413 0.0
C117 C 0.42073 0.59406 0.86446 0.0
C118 C 0.44001 0.57102 0.84943 0.0
C119 C 0.47276 0.50934 0.84103 0.0
H120 H 0.60715 0.36965 0.86473 0.0
H121 H 0.5677 0.40209 0.83701 0.0
H122 H 0.58311 0.45845 0.91172 0.0
H123 H 0.54912 0.49357 0.88354 0.0
H124 H 0.65836 0.45004 0.8058 0.0
H125 H 0.60686 0.48201 0.82546 0.0
H126 H 0.57622 0.39527 0.76285 0.0
H127 H 0.52442 0.42628 0.78294 0.0
H128 H 0.42417 0.59473 0.76705 0.0
H129 H 0.47756 0.56087 0.78496 0.0
H130 H 0.34477 0.52545 0.80326 0.0
H131 H 0.39772 0.49185 0.82113 0.0
H132 H 0.40185 0.52736 0.9039 0.0
H133 H 0.43526 0.48693 0.87758 0.0
H134 H 0.41797 0.62422 0.86117 0.0
H135 H 0.45227 0.58404 0.83491 0.0
N136 N 0.50019 0.49041 0.85229 0.0
N137 N 0.50181 0.48975 0.80752 0.0
C138 C 0.43005 0.88164 0.05698 0.0
C139 C 0.42065 0.88393 0.03437 0.0
C140 C 0.44776 0.91184 0.06777 0.0
C141 C 0.45317 0.94695 0.05704 0.0
C142 C 0.42758 0.91821 0.02309 0.0
C143 C 0.44296 0.94968 0.03444 0.0
C144 C 0.47293 0.97912 0.06863 0.0
C145 C 0.38123 0.94698 0.11793 0.0
C146 C 0.39554 0.93253 0.13802 0.0
C147 C 0.40598 0.96352 0.1026 0.0
C148 C 0.44528 0.96533 0.10716 0.0
C149 C 0.43464 0.93432 0.14252 0.0
C150 C 0.45926 0.95068 0.1273 0.0
C151 C 0.47213 0.98434 0.09194 0.0
C152 C 0.56349 0.11271 0.12147 0.0
C153 C 0.59145 0.09379 0.1341 0.0
C154 C 0.54212 0.09277 0.10555 0.0
C155 C 0.54875 0.05391 0.10216 0.0
C156 C 0.5999 0.05578 0.1294 0.0
C157 C 0.57834 0.03582 0.11375 0.0
C158 C 0.52169 0.03033 0.08944 0.0
C159 C 0.59342 0.09953 0.0465 0.0
C160 C 0.57133 0.12187 0.03209 0.0
C161 C 0.57803 0.06673 0.05599 0.0
C162 C 0.5398 0.05675 0.05194 0.0
C163 C 0.53485 0.10926 0.02583 0.0
C164 C 0.51911 0.07702 0.0358 0.0
C165 C 0.51961 0.02883 0.06611 0.0
H166 H 0.42581 0.85539 0.06605 0.0
H167 H 0.4583 0.90667 0.08436 0.0
H168 H 0.42158 0.92046 0.0055 0.0
H169 H 0.44775 0.97583 0.02539 0.0
H170 H 0.35102 0.94598 0.11432 0.0
H171 H 0.39445 0.97531 0.08738 0.0
H172 H 0.44606 0.92339 0.158 0.0
H173 H 0.48935 0.95192 0.13127 0.0
H174 H 0.55669 0.14213 0.12491 0.0
H175 H 0.51914 0.10702 0.09685 0.0
H176 H 0.62181 0.04102 0.13867 0.0
H177 H 0.5837 0.00578 0.11135 0.0
H178 H 0.62184 0.10854 0.05126 0.0
H179 H 0.59542 0.05044 0.06742 0.0
H180 H 0.5175 0.12608 0.01461 0.0
H181 H 0.4898 0.06962 0.03209 0.0
N182 N 0.49567 0.00279 0.05657 0.0
N183 N 0.49743 0.00874 0.1013 0.0
C184 C 0.07058 0.6154 0.89026 0.0
C185 C 0.0819 0.60049 0.8698 0.0
C186 C 0.05032 0.59256 0.90515 0.0
C187 C 0.0418 0.55446 0.89983 0.0
C188 C 0.07315 0.56268 0.8645 0.0
C189 C 0.05322 0.53996 0.8793 0.0
C190 C 0.01944 0.52951 0.91468 0.0
C191 C 0.12764 0.55569 0.94914 0.0
C192 C 0.12648 0.56702 0.97139 0.0
C193 C 0.09553 0.54088 0.93865 0.0
C194 C 0.06021 0.54026 0.94933 0.0
C195 C 0.09183 0.56447 0.9827 0.0
C196 C 0.05881 0.55181 0.97164 0.0
C197 C 0.02571 0.52516 0.93772 0.0
C198 C 0.92723 0.41634 0.9807 0.0
C199 C 0.88828 0.42287 0.97711 0.0
C200 C 0.95432 0.43769 0.96918 0.0
C201 C 0.9427 0.46525 0.95368 0.0
C202 C 0.87677 0.45187 0.96257 0.0
C203 C 0.90376 0.473 0.951 0.0
C204 C 0.97088 0.48442 0.93945 0.0
C205 C 0.91888 0.44796 0.8644 0.0
C206 C 0.90348 0.41293 0.87097 0.0
C207 C 0.93665 0.47186 0.87961 0.0
C208 C 0.94214 0.46073 0.90183 0.0
C209 C 0.90618 0.40263 0.89343 0.0
C210 C 0.92705 0.42522 0.90843 0.0
C211 C 0.96794 0.48487 0.916 0.0
H212 H 0.07711 0.64461 0.89456 0.0
H213 H 0.04115 0.60463 0.92069 0.0
H214 H 0.08169 0.55075 0.84878 0.0
H215 H 0.04689 0.51081 0.87471 0.0
H216 H 0.1541 0.55654 0.94012 0.0
H217 H 0.0989 0.52928 0.92222 0.0
H218 H 0.0904 0.57208 1.00005 0.0
H219 H 0.03232 0.55063 0.98058 0.0
H220 H 0.93653 0.39406 0.99188 0.0
H221 H 0.98423 0.43147 0.97159 0.0
H222 H 0.84683 0.45728 0.95966 0.0
H223 H 0.89422 0.4945 0.93936 0.0
H224 H 0.91688 0.45723 0.84732 0.0
H225 H 0.9474 0.49875 0.8735 0.0
H226 H 0.89371 0.37626 0.89919 0.0
H227 H 0.93215 0.41372 0.92472 0.0
N228 N 0.99184 0.50832 0.90498 0.0
N229 N 0.00036 0.50362 0.94933 0.0
C230 C 0.41245 0.54896 0.1263 0.0
C231 C 0.41682 0.58795 0.12236 0.0
C232 C 0.43378 0.53122 0.14284 0.0
C233 C 0.45931 0.55233 0.15594 0.0
C234 C 0.44081 0.60963 0.13622 0.0
C235 C 0.46213 0.59183 0.15294 0.0
C236 C 0.48603 0.53168 0.17042 0.0
C237 C 0.46999 0.62342 0.22778 0.0
C238 C 0.43184 0.63093 0.22251 0.0
C239 C 0.48768 0.59116 0.21932 0.0
C240 C 0.46746 0.56607 0.20544 0.0
C241 C 0.41078 0.60457 0.20996 0.0
C242 C 0.42837 0.57201 0.20173 0.0
C243 C 0.4885 0.53615 0.19354 0.0
C244 C 0.61109 0.42068 0.21781 0.0
C245 C 0.58859 0.39789 0.23162 0.0
C246 C 0.59531 0.45243 0.2072 0.0
C247 C 0.55651 0.46053 0.20966 0.0
C248 C 0.55136 0.40901 0.23631 0.0
C249 C 0.53538 0.44008 0.22532 0.0
C250 C 0.53614 0.4877 0.19514 0.0
C251 C 0.59335 0.40404 0.14681 0.0
C252 C 0.60433 0.42052 0.12658 0.0
C253 C 0.57058 0.42435 0.16161 0.0
C254 C 0.56166 0.46272 0.15758 0.0
C255 C 0.59476 0.45858 0.12243 0.0
C256 C 0.57456 0.47953 0.13788 0.0
C257 C 0.53555 0.48539 0.17164 0.0
H258 H 0.39391 0.53196 0.11589 0.0
H259 H 0.43138 0.50068 0.14491 0.0
H260 H 0.44452 0.63981 0.1333 0.0
H261 H 0.48208 0.60847 0.16274 0.0
H262 H 0.48655 0.64357 0.23747 0.0
H263 H 0.51773 0.587 0.22257 0.0
H264 H 0.38121 0.60994 0.20588 0.0
H265 H 0.41182 0.55237 0.1917 0.0
H266 H 0.63998 0.41245 0.21412 0.0
H267 H 0.61247 0.46872 0.19579 0.0
H268 H 0.53369 0.3917 0.24693 0.0
H269 H 0.5056 0.44634 0.22786 0.0
H270 H 0.60045 0.37475 0.15053 0.0
H271 H 0.55914 0.40969 0.17575 0.0
H272 H 0.60255 0.47212 0.107 0.0
H273 H 0.56791 0.50889 0.134 0.0
N274 N 0.50987 0.50706 0.16051 0.0
N275 N 0.51301 0.51351 0.20506 0.0
C276 C 0.45872 0.90406 0.37397 0.0
C277 C 0.41919 0.90693 0.37166 0.0
C278 C 0.47789 0.92518 0.39011 0.0
C279 C 0.45774 0.94894 0.40444 0.0
C280 C 0.39864 0.92876 0.38687 0.0
C281 C 0.41787 0.94984 0.40317 0.0
C282 C 0.4792 0.97641 0.41814 0.0
C283 C 0.38877 0.95575 0.47373 0.0
C284 C 0.38725 0.91602 0.47186 0.0
C285 C 0.41933 0.97597 0.46497 0.0
C286 C 0.44834 0.95677 0.45388 0.0
C287 C 0.41771 0.89652 0.46229 0.0
C288 C 0.44802 0.91683 0.45319 0.0
C289 C 0.47647 0.97898 0.44132 0.0
C290 C 0.58471 0.10885 0.46299 0.0
C291 C 0.61228 0.08838 0.47504 0.0
C292 C 0.55428 0.08964 0.45284 0.0
C293 C 0.55116 0.04997 0.45488 0.0
C294 C 0.60746 0.04923 0.47836 0.0
C295 C 0.57694 0.0302 0.46848 0.0
C296 C 0.52378 0.02781 0.44152 0.0
C297 C 0.60735 0.08002 0.39175 0.0
C298 C 0.58975 0.0933 0.37219 0.0
C299 C 0.58647 0.05903 0.40722 0.0
C300 C 0.54724 0.05289 0.40395 0.0
C301 C 0.5505 0.08801 0.36928 0.0
C302 C 0.5295 0.06831 0.38502 0.0
C303 C 0.52465 0.02689 0.41811 0.0
H304 H 0.47488 0.88698 0.36256 0.0
H305 H 0.50867 0.92421 0.39083 0.0
H306 H 0.36804 0.93124 0.38526 0.0
H307 H 0.40185 0.96843 0.41385 0.0
H308 H 0.36544 0.97116 0.48105 0.0
H309 H 0.41915 0.00677 0.46566 0.0
H310 H 0.41686 0.86584 0.4607 0.0
H311 H 0.47036 0.90154 0.44483 0.0
H312 H 0.58801 0.13916 0.46042 0.0
H313 H 0.53432 0.10535 0.44259 0.0
H314 H 0.62837 0.03312 0.48772 0.0
H315 H 0.57479 -0.00039 0.47034 0.0
H316 H 0.63767 0.08374 0.39428 0.0
H317 H 0.60138 0.04627 0.4211 0.0
H318 H 0.53629 0.09797 0.35436 0.0
H319 H 0.49939 0.06387 0.38197 0.0
N320 N 0.50265 0.00077 0.40749 0.0
N321 N 0.49931 0.00418 0.45225 0.0
C322 C 0.10637 0.92827 0.63866 0.0
C323 C 0.09127 0.91271 0.61908 0.0
C324 C 0.08222 0.9447 0.6542 0.0
C325 C 0.0426 0.9453 0.6505 0.0
C326 C 0.05178 0.91202 0.6157 0.0
C327 C 0.02766 0.92827 0.63124 0.0
C328 C 0.01735 0.96825 0.66475 0.0
C329 C 0.05801 0.8754 0.70814 0.0
C330 C 0.08486 0.8866 0.72416 0.0
C331 C 0.037 0.9026 0.69661 0.0
C332 C 0.04263 0.94148 0.70087 0.0
C333 C 0.08989 0.92534 0.72898 0.0
C334 C 0.06852 0.95269 0.71752 0.0
C335 C 0.02097 0.97003 0.68805 0.0
C336 C 0.9031 0.08784 0.7118 0.0
C337 C 0.92638 0.11521 0.72213 0.0
C338 C 0.91935 0.05636 0.70151 0.0
C339 C 0.95901 0.05187 0.70159 0.0
C340 C 0.96582 0.10972 0.72315 0.0
C341 C 0.98201 0.07805 0.71307 0.0
C342 C 0.97705 0.02145 0.68869 0.0
C343 C 0.93108 0.10166 0.63452 0.0
C344 C 0.90341 0.08371 0.62117 0.0
C345 C 0.95171 0.08061 0.65021 0.0
C346 C 0.94481 0.04148 0.65265 0.0
C347 C 0.89458 0.04537 0.62489 0.0
C348 C 0.91552 0.02424 0.64028 0.0
C349 C 0.97092 0.01734 0.66571 0.0
H350 H 0.13684 0.92927 0.64139 0.0
H351 H 0.09478 0.9587 0.66849 0.0
H352 H 0.03974 0.9002 0.6006 0.0
H353 H 0.99734 0.92865 0.62786 0.0
H354 H 0.05392 0.84558 0.70425 0.0
H355 H 0.0165 0.89327 0.68422 0.0
H356 H 0.11071 0.93432 0.74127 0.0
H357 H 0.07295 0.98254 0.72118 0.0
H358 H 0.87257 0.09166 0.71099 0.0
H359 H 0.9011 0.03608 0.69302 0.0
H360 H 0.98411 0.1306 0.7311 0.0
H361 H 0.01265 0.07493 0.71337 0.0
H362 H 0.93819 0.1313 0.63187 0.0
H363 H 0.97445 0.09433 0.65947 0.0
H364 H 0.87279 0.03136 0.61512 0.0
H365 H 0.90976 0.9941 0.64199 0.0
N366 N 0.99173 0.99136 0.65458 0.0
N367 N 0.00148 0.99728 0.69914 0.0
Mn368 Mn 0.3377 0.67474 0.00743 0.0
Mn369 Mn 0.35604 0.58062 0.00829 0.0
C370 C 0.3506 0.64383 0.04066 0.0
C371 C 0.36185 0.73697 0.00697 0.0
C372 C 0.27673 0.61289 0.00208 0.0
O373 O 0.34916 0.66449 0.97518 0.0
O374 O 0.36301 0.60187 0.97799 0.0
C375 C 0.43853 0.58442 0.99922 0.0
N376 N 0.40947 0.5733 0.01247 0.0
C377 C 0.45278 0.54227 0.03772 0.0
C378 C 0.48318 0.55336 0.02432 0.0
C379 C 0.47602 0.57467 0.00504 0.0
C380 C 0.41609 0.55323 0.03122 0.0
H381 H 0.43313 0.60049 0.9843 0.0
C382 C 0.35935 0.63282 0.96693 0.0
O383 O 0.32624 0.73013 0.00238 0.0
O384 O 0.38314 0.70752 0.00979 0.0
N385 N 0.35074 0.55637 0.03645 0.0
C386 C 0.31818 0.54711 0.04725 0.0
C387 C 0.32031 0.52557 0.0668 0.0
C388 C 0.35577 0.5131 0.07479 0.0
C389 C 0.38886 0.52241 0.0632 0.0
C390 C 0.38496 0.54398 0.04381 0.0
H391 H 0.29076 0.55607 0.041 0.0
O392 O 0.33255 0.67583 0.04042 0.0
O393 O 0.36023 0.63074 0.02146 0.0
O394 O 0.28575 0.6482 0.00306 0.0
O395 O 0.30072 0.58604 0.00478 0.0
C396 C 0.42548 0.51075 0.06996 0.0
C397 C 0.45743 0.52078 0.05727 0.0
H398 H 0.51212 0.54569 0.02868 0.0
H399 H 0.49933 0.58334 0.99461 0.0
H400 H 0.29464 0.51831 0.07559 0.0
H401 H 0.35717 0.496 0.08969 0.0
H402 H 0.42942 0.49407 0.08489 0.0
H403 H 0.48546 0.51185 0.06271 0.0
Mn404 Mn 0.31674 0.83649 0.25912 0.0
Mn405 Mn 0.40958 0.86019 0.25516 0.0
C406 C 0.35334 0.84592 0.29088 0.0
C407 C 0.25341 0.85428 0.26185 0.0
C408 C 0.37933 0.78052 0.24699 0.0
O409 O 0.3204 0.85469 0.22717 0.0
O410 O 0.38214 0.8729 0.22707 0.0
C411 C 0.40273 0.94395 0.25194 0.0
N412 N 0.41641 0.91265 0.26261 0.0
C413 C 0.4511 0.95147 0.28874 0.0
C414 C 0.43723 0.98411 0.27807 0.0
C415 C 0.41284 0.98031 0.25963 0.0
C416 C 0.43969 0.91599 0.28046 0.0
H417 H 0.38449 0.94116 0.23759 0.0
C418 C 0.34937 0.8692 0.21777 0.0
O419 O 0.26257 0.82055 0.25502 0.0
O420 O 0.2808 0.87793 0.26616 0.0
N421 N 0.43901 0.84983 0.28132 0.0
C422 C 0.45012 0.81555 0.28965 0.0
C423 C 0.47429 0.81436 0.3083 0.0
C424 C 0.48733 0.84838 0.31794 0.0
C425 C 0.4761 0.88333 0.30883 0.0
C426 C 0.45177 0.88273 0.29032 0.0
H427 H 0.44048 0.78928 0.28219 0.0
O428 O 0.32251 0.82569 0.29154 0.0
O429 O 0.3621 0.8594 0.27155 0.0
O430 O 0.34452 0.78739 0.2511 0.0
O431 O 0.40566 0.8056 0.24778 0.0
C432 C 0.4883 0.91872 0.31728 0.0
C433 C 0.47575 0.95276 0.30728 0.0
H434 H 0.44514 0.01221 0.28389 0.0
H435 H 0.40208 0.00536 0.25126 0.0
H436 H 0.48296 0.78727 0.31518 0.0
H437 H 0.50611 0.84732 0.33226 0.0
H438 H 0.50737 0.92012 0.33147 0.0
H439 H 0.48513 0.97979 0.31402 0.0
Mn440 Mn 0.17792 0.83194 0.49584 0.0
Mn441 Mn 0.08414 0.85152 0.49933 0.0
C442 C 0.14154 0.84075 0.46395 0.0
C443 C 0.24072 0.85258 0.49347 0.0
C444 C 0.11702 0.77305 0.50719 0.0
O445 O 0.17297 0.84882 0.52797 0.0
O446 O 0.11049 0.86397 0.52779 0.0
C447 C 0.08828 0.93532 0.50363 0.0
N448 N 0.07578 0.90397 0.49249 0.0
C449 C 0.04022 0.9425 0.46669 0.0
C450 C 0.05285 0.97521 0.47786 0.0
C451 C 0.0771 0.97159 0.49637 0.0
C452 C 0.05268 0.90715 0.47456 0.0
H453 H 0.10639 0.93263 0.51803 0.0
C454 C 0.14313 0.86125 0.53735 0.0
O455 O 0.2327 0.81831 0.50002 0.0
O456 O 0.21249 0.87513 0.48936 0.0
N457 N 0.05558 0.84112 0.47284 0.0
C458 C 0.04567 0.80677 0.46405 0.0
C459 C 0.02178 0.80541 0.44528 0.0
C460 C 0.00775 0.83929 0.43601 0.0
C461 C 0.01773 0.87427 0.44561 0.0
C462 C 0.04186 0.87386 0.4642 0.0
H463 H 0.05605 0.78061 0.47124 0.0
O464 O 0.17308 0.82186 0.46329 0.0
O465 O 0.13197 0.85325 0.48332 0.0
O466 O 0.15166 0.78148 0.50336 0.0
O467 O 0.08974 0.7969 0.50611 0.0
C468 C 0.00444 0.90951 0.43758 0.0
C469 C 0.01576 0.9436 0.44807 0.0
H470 H 0.04409 0.00322 0.47237 0.0
H471 H 0.08691 0.99668 0.50512 0.0
H472 H 0.01407 0.77829 0.43802 0.0
H473 H 0.98917 0.83808 0.4216 0.0
H474 H 0.98546 0.91075 0.42336 0.0
H475 H 0.00557 0.97051 0.44164 0.0
Mn476 Mn 0.17764 0.68687 0.7498 0.0
Mn477 Mn 0.1599 0.59233 0.75036 0.0
C478 C 0.16575 0.65465 0.71683 0.0
C479 C 0.15731 0.74946 0.75075 0.0
C480 C 0.23877 0.62661 0.75682 0.0
O481 O 0.16417 0.67691 0.78215 0.0
O482 O 0.14966 0.61443 0.77989 0.0
C483 C 0.07666 0.59566 0.75688 0.0
N484 N 0.10691 0.58398 0.74478 0.0
C485 C 0.066 0.55029 0.71929 0.0
C486 C 0.03442 0.56177 0.73154 0.0
C487 C 0.03977 0.58478 0.75033 0.0
C488 C 0.102 0.5626 0.72639 0.0
H489 H 0.08062 0.6131 0.77144 0.0
C490 C 0.15221 0.64578 0.79054 0.0
O491 O 0.19189 0.74056 0.75631 0.0
O492 O 0.13398 0.72191 0.74609 0.0
N493 N 0.16768 0.56682 0.7228 0.0
C494 C 0.20112 0.55682 0.71333 0.0
C495 C 0.20082 0.53396 0.69429 0.0
C496 C 0.16616 0.52047 0.68561 0.0
C497 C 0.13209 0.53007 0.69602 0.0
C498 C 0.1342 0.5533 0.71483 0.0
H499 H 0.22781 0.56548 0.72054 0.0
O500 O 0.18374 0.68692 0.71682 0.0
O501 O 0.15567 0.64215 0.73614 0.0
O502 O 0.22915 0.66123 0.75433 0.0
O503 O 0.21541 0.59865 0.7558 0.0
C504 C 0.09619 0.51685 0.68876 0.0
C505 C 0.06315 0.52713 0.70031 0.0
H506 H 0.00595 0.55318 0.72664 0.0
H507 H 0.01554 0.59388 0.75984 0.0
H508 H 0.22731 0.52612 0.6866 0.0
H509 H 0.16615 0.50218 0.6712 0.0
H510 H 0.09365 0.49869 0.67434 0.0
H511 H 0.0357 0.51705 0.69446 0.0
Mn512 Mn 0.83053 0.18372 0.5081 0.0
Mn513 Mn 0.83653 0.08782 0.509 0.0
C514 C 0.84067 0.15176 0.54142 0.0
C515 C 0.85766 0.2438 0.50588 0.0
C516 C 0.76236 0.13099 0.50305 0.0
O517 O 0.83963 0.17046 0.4755 0.0
O518 O 0.84803 0.10714 0.47907 0.0
C519 C 0.9191 0.08021 0.50126 0.0
N520 N 0.88817 0.07315 0.51402 0.0
C521 C 0.9253 0.03527 0.53935 0.0
C522 C 0.95753 0.04196 0.52644 0.0
C523 C 0.95445 0.06474 0.50738 0.0
C524 C 0.89098 0.05196 0.53262 0.0
H525 H 0.91678 0.0974 0.48648 0.0
C526 C 0.84748 0.1377 0.46755 0.0
O527 O 0.82201 0.23831 0.50117 0.0
O528 O 0.87826 0.21407 0.51015 0.0
N529 N 0.82667 0.0649 0.53711 0.0
C530 C 0.79273 0.06028 0.54741 0.0
C531 C 0.79096 0.03866 0.56693 0.0
C532 C 0.82387 0.02096 0.57526 0.0
C533 C 0.85828 0.02506 0.56399 0.0
C534 C 0.85838 0.04741 0.54479 0.0
H535 H 0.76715 0.07263 0.54064 0.0
O536 O 0.82696 0.18595 0.54125 0.0
O537 O 0.84783 0.13738 0.52212 0.0
O538 O 0.77616 0.16423 0.50527 0.0
O539 O 0.78212 0.10052 0.5039 0.0
C540 C 0.89233 0.00733 0.57083 0.0
C541 C 0.92587 0.01265 0.55861 0.0
H542 H 0.98477 0.02982 0.53101 0.0
H543 H 0.9792 0.0701 0.49735 0.0
H544 H 0.76418 0.03519 0.57535 0.0
H545 H 0.82226 0.00389 0.59016 0.0
H546 H 0.89307 0.98944 0.58543 0.0
H547 H 0.95194 0.99917 0.56417 0.0
Mn548 Mn 0.81967 0.32469 0.75871 0.0
Mn549 Mn 0.91448 0.33935 0.76134 0.0
C550 C 0.84971 0.33392 0.79288 0.0
C551 C 0.75827 0.34822 0.75607 0.0
C552 C 0.87791 0.26217 0.75233 0.0
O553 O 0.83292 0.33839 0.72672 0.0
O554 O 0.89503 0.35295 0.73151 0.0
C555 C 0.91245 0.42326 0.75756 0.0
N556 N 0.92312 0.39148 0.76892 0.0
C557 C 0.95246 0.42903 0.79771 0.0
C558 C 0.94199 0.46217 0.78627 0.0
C559 C 0.92171 0.45926 0.76616 0.0
C560 C 0.94173 0.39399 0.78855 0.0
H561 H 0.89686 0.42116 0.7421 0.0
C562 C 0.86487 0.35045 0.7196 0.0
O563 O 0.7657 0.31332 0.75065 0.0
O564 O 0.78667 0.36998 0.76139 0.0
N565 N 0.93799 0.3279 0.78928 0.0
C566 C 0.9491 0.2933 0.79711 0.0
C567 C 0.97126 0.2911 0.81654 0.0
C568 C 0.98282 0.32457 0.82737 0.0
C569 C 0.97227 0.35995 0.81859 0.0
C570 C 0.95029 0.36031 0.79911 0.0
H571 H 0.94205 0.26766 0.78825 0.0
O572 O 0.81671 0.31752 0.79166 0.0
O573 O 0.86402 0.34391 0.77404 0.0
O574 O 0.84357 0.27253 0.7548 0.0
O575 O 0.90664 0.28459 0.754 0.0
C576 C 0.98349 0.39485 0.8281 0.0
C577 C 0.97341 0.42938 0.81773 0.0
H578 H 0.94941 0.48996 0.79275 0.0
H579 H 0.91341 0.48469 0.75727 0.0
H580 H 0.97989 0.26368 0.82297 0.0
H581 H 8e-05 0.32278 0.8423 0.0
H582 H 9e-05 0.39545 0.84332 0.0
H583 H 0.98224 0.45604 0.82518 0.0
Mn584 Mn 0.68877 0.33047 0.00407 0.0
Mn585 Mn 0.59663 0.35676 0.00453 0.0
C586 C 0.65632 0.34198 0.97097 0.0
C587 C 0.75294 0.3476 0.00406 0.0
C588 C 0.62153 0.27529 0.01091 0.0
O589 O 0.68234 0.34657 0.03622 0.0
O590 O 0.62026 0.36185 0.03453 0.0
C591 C 0.61199 0.43834 0.01308 0.0
N592 N 0.59588 0.41065 1.00027 0.0
C593 C 0.56989 0.45704 0.97507 0.0
C594 C 0.58606 0.48607 0.98804 0.0
C595 C 0.60737 0.47665 0.00707 0.0
C596 C 0.57611 0.41936 0.98165 0.0
H597 H 0.62823 0.43128 0.02778 0.0
C598 C 0.65178 0.35804 0.0451 0.0
O599 O 0.74242 0.31369 0.0101 0.0
O600 O 0.7264 0.37158 0.99914 0.0
N601 N 0.56932 0.35397 0.97702 0.0
C602 C 0.55262 0.32285 0.96756 0.0
C603 C 0.52861 0.32745 0.94904 0.0
C604 C 0.52154 0.36402 0.9406 0.0
C605 C 0.53805 0.39571 0.95102 0.0
C606 C 0.56148 0.38939 0.96955 0.0
H607 H 0.55736 0.29472 0.97421 0.0
O608 O 0.6868 0.3214 0.9713 0.0
O609 O 0.64579 0.35515 0.99004 0.0
O610 O 0.6574 0.28186 0.01025 0.0
O611 O 0.5962 0.30093 0.00804 0.0
C612 C 0.53116 0.43339 0.94418 0.0
C613 C 0.54742 0.46404 0.95605 0.0
H614 H 0.58216 0.51567 0.9836 0.0
H615 H 0.61998 0.49888 0.01715 0.0
H616 H 0.51551 0.30287 0.94129 0.0
H617 H 0.50304 0.36745 0.92628 0.0
H618 H 0.51327 0.43914 0.92985 0.0
H619 H 0.54199 0.49288 0.95059 0.0
Mn620 Mn 0.66838 0.18581 0.24837 0.0
Mn621 Mn 0.66027 0.09022 0.24686 0.0
C622 C 0.65767 0.15485 0.21486 0.0
C623 C 0.64156 0.24579 0.25076 0.0
C624 C 0.73533 0.13229 0.25322 0.0
O625 O 0.65916 0.17206 0.28088 0.0
O626 O 0.64866 0.10907 0.2769 0.0
C627 C 0.57747 0.08328 0.25417 0.0
N628 N 0.60841 0.07638 0.24143 0.0
C629 C 0.57066 0.04082 0.21518 0.0
C630 C 0.53842 0.04737 0.22806 0.0
C631 C 0.54182 0.06888 0.24758 0.0
C632 C 0.60534 0.0563 0.22244 0.0
H633 H 0.57998 0.09957 0.26927 0.0
C634 C 0.65009 0.1394 0.28862 0.0
O635 O 0.67731 0.24045 0.25527 0.0
O636 O 0.62086 0.21597 0.24667 0.0
N637 N 0.67007 0.06811 0.21854 0.0
C638 C 0.704 0.06358 0.20826 0.0
C639 C 0.70543 0.04334 0.18825 0.0
C640 C 0.67214 0.02699 0.17936 0.0
C641 C 0.63773 0.0309 0.19062 0.0
C642 C 0.638 0.0518 0.21035 0.0
H643 H 0.7298 0.07506 0.21536 0.0
O644 O 0.67229 0.18871 0.2153 0.0
O645 O 0.65017 0.14011 0.23405 0.0
O646 O 0.72237 0.16579 0.25103 0.0
O647 O 0.71486 0.10216 0.25231 0.0
C648 C 0.60328 0.01448 0.1832 0.0
C649 C 0.56973 0.0196 0.1954 0.0
H650 H 0.51092 0.03613 0.2231 0.0
H651 H 0.51705 0.07413 0.25759 0.0
H652 H 0.73221 0.04 0.17983 0.0
H653 H 0.67342 0.01113 0.16402 0.0
H654 H 0.60223 0.99775 0.16816 0.0
H655 H 0.54337 0.00713 0.18942 0.0
C656 C 0.16815 0.88503 0.29533 0.0
C657 C 0.14178 0.89346 0.27807 0.0
C658 C 0.18622 0.86934 0.25033 0.0
C659 C 0.21382 0.86432 0.26739 0.0
N660 N 0.23201 0.86636 0.30603 0.0
N661 N 0.12441 0.89455 0.23941 0.0
C662 C 0.20489 0.87158 0.28989 0.0
C663 C 0.15032 0.8855 0.25562 0.0
N664 N 0.15788 0.88978 0.31697 0.0
N665 N 0.19455 0.85888 0.22912 0.0
H666 H 0.09731 0.90478 0.24288 0.0
H667 H 0.12988 0.89346 0.22254 0.0
H668 H 0.22107 0.84849 0.22458 0.0
H669 H 0.17487 0.85843 0.21615 0.0
H670 H 0.17368 0.88001 0.33047 0.0
H671 H 0.1322 0.90179 0.32173 0.0
H672 H 0.22972 0.87611 0.32222 0.0
H673 H 0.25791 0.85311 0.30315 0.0
C674 C 0.07867 0.69148 0.54193 0.0
C675 C 0.08801 0.65983 0.52851 0.0
C676 C 0.11535 0.70231 0.50063 0.0
C677 C 0.10781 0.73388 0.51457 0.0
N678 N 0.08785 0.7583 0.54997 0.0
N679 N 0.11969 0.63368 0.49687 0.0
C680 C 0.0909 0.72841 0.53562 0.0
C681 C 0.10781 0.66483 0.5084 0.0
N682 N 0.05748 0.68626 0.56058 0.0
N683 N 0.1279 0.70828 0.47956 0.0
H684 H 0.11354 0.60588 0.50175 0.0
H685 H 0.13788 0.63516 0.48342 0.0
H686 H 0.13358 0.73527 0.47325 0.0
H687 H 0.12988 0.68693 0.46771 0.0
H688 H 0.04537 0.70842 0.56944 0.0
H689 H 0.04984 0.65952 0.56658 0.0
H690 H 0.08028 0.7554 0.5665 0.0
H691 H 0.09584 0.78599 0.54599 0.0
C692 C 0.33446 0.57926 0.75361 0.0
C693 C 0.34842 0.58522 0.77543 0.0
C694 C 0.29386 0.62578 0.78371 0.0
C695 C 0.27908 0.61816 0.7622 0.0
N696 N 0.29214 0.60142 0.72452 0.0
N697 N 0.34759 0.62149 0.80926 0.0
C698 C 0.30151 0.59906 0.74644 0.0
C699 C 0.33007 0.61099 0.78986 0.0
N700 N 0.35165 0.55355 0.74007 0.0
N701 N 0.27287 0.64618 0.79841 0.0
H702 H 0.37419 0.61117 0.81412 0.0
H703 H 0.33751 0.64264 0.81968 0.0
H704 H 0.24754 0.65966 0.79402 0.0
H705 H 0.27958 0.64858 0.81518 0.0
H706 H 0.34005 0.54493 0.72493 0.0
H707 H 0.37624 0.53886 0.74462 0.0
H708 H 0.30909 0.59082 0.71192 0.0
H709 H 0.26936 0.61787 0.71896 0.0
C710 C 0.37235 0.84564 0.01135 0.0
C711 C 0.40776 0.84846 0.02284 0.0
C712 C 0.4102 0.77974 0.0256 0.0
C713 C 0.37745 0.7759 0.01165 0.0
N714 N 0.33465 0.80759 0.98587 0.0
N715 N 0.46672 0.81696 0.03213 0.0
C716 C 0.36063 0.80955 0.00277 0.0
C717 C 0.42903 0.81504 0.0266 0.0
N718 N 0.34907 0.87644 0.00943 0.0
N719 N 0.42138 0.75155 0.03982 0.0
H720 H 0.48168 0.84265 0.03241 0.0
H721 H 0.48344 0.79266 0.03392 0.0
H722 H 0.40444 0.72809 0.04352 0.0
H723 H 0.44425 0.75488 0.05081 0.0
H724 H 0.3215 0.87453 0.00299 0.0
H725 H 0.3559 0.90297 0.01606 0.0
H726 H 0.32389 0.83176 0.97802 0.0
H727 H 0.32764 0.78227 0.97785 0.0
C728 C 0.19425 0.55301 0.98057 0.0
C729 C 0.16291 0.57775 0.98273 0.0
C730 C 0.20476 0.62252 0.00254 0.0
C731 C 0.23709 0.60139 0.99576 0.0
N732 N 0.26013 0.55175 0.9712 0.0
N733 N 0.14011 0.64008 0.99302 0.0
C734 C 0.23127 0.56793 0.98285 0.0
C735 C 0.16847 0.6137 0.99305 0.0
N736 N 0.18881 0.51533 0.97603 0.0
N737 N 0.20804 0.6498 0.01853 0.0
H738 H 0.11363 0.63538 0.9856 0.0
H739 H 0.1443 0.66788 0.99855 0.0
H740 H 0.23332 0.65511 0.02715 0.0
H741 H 0.18456 0.66372 0.02505 0.0
H742 H 0.21121 0.49596 0.97575 0.0
H743 H 0.16179 0.50301 0.97514 0.0
H744 H 0.25565 0.52888 0.96048 0.0
H745 H 0.28688 0.56413 0.96958 0.0
C746 C 0.42234 0.69979 0.21384 0.0
C747 C 0.41545 0.66844 0.22806 0.0
C748 C 0.38428 0.71025 0.25471 0.0
C749 C 0.39006 0.74151 0.24016 0.0
N750 N 0.40832 0.76519 0.20426 0.0
N751 N 0.3848 0.64176 0.25997 0.0
C752 C 0.40737 0.73603 0.21926 0.0
C753 C 0.39472 0.67305 0.24785 0.0
N754 N 0.44397 0.69503 0.19534 0.0
N755 N 0.37073 0.71638 0.27553 0.0
H756 H 0.39302 0.61424 0.25575 0.0
H757 H 0.36612 0.64259 0.27321 0.0
H758 H 0.36252 0.74306 0.28116 0.0
H759 H 0.37017 0.69567 0.28784 0.0
H760 H 0.45431 0.71748 0.18589 0.0
H761 H 0.45363 0.66859 0.19004 0.0
H762 H 0.41627 0.76192 0.18783 0.0
H763 H 0.39824 0.79235 0.20766 0.0
C764 C 0.32502 0.88755 0.46015 0.0
C765 C 0.35154 0.89569 0.47741 0.0
C766 C 0.30772 0.86943 0.50498 0.0
C767 C 0.28 0.86441 0.48796 0.0
N768 N 0.26131 0.86809 0.44942 0.0
N769 N 0.3692 0.8957 0.51602 0.0
C770 C 0.28853 0.87307 0.46554 0.0
C771 C 0.3433 0.88668 0.49978 0.0
N772 N 0.33495 0.89343 0.43854 0.0
N773 N 0.29984 0.85788 0.52608 0.0
H774 H 0.39606 0.90677 0.51261 0.0
H775 H 0.36389 0.89383 0.53289 0.0
H776 H 0.27353 0.84676 0.5306 0.0
H777 H 0.31971 0.85727 0.53895 0.0
H778 H 0.31916 0.88385 0.42499 0.0
H779 H 0.36038 0.90623 0.43385 0.0
H780 H 0.26323 0.87884 0.43342 0.0
H781 H 0.23569 0.85406 0.45215 0.0
C782 C 0.1415 0.84425 0.72259 0.0
C783 C 0.10946 0.85722 0.73441 0.0
C784 C 0.1149 0.80382 0.76032 0.0
C785 C 0.14531 0.7894 0.7476 0.0
N786 N 0.19292 0.79889 0.71953 0.0
N787 N 0.06988 0.85506 0.76659 0.0
C788 C 0.16062 0.81084 0.72982 0.0
C789 C 0.09766 0.83887 0.75408 0.0
N790 N 0.15217 0.86282 0.7037 0.0
N791 N 0.1022 0.78338 0.77806 0.0
H792 H 0.05673 0.88057 0.76221 0.0
H793 H 0.06136 0.84489 0.78193 0.0
H794 H 0.11629 0.75929 0.78396 0.0
H795 H 0.07766 0.78957 0.78677 0.0
H796 H 0.17182 0.85239 0.69251 0.0
H797 H 0.14005 0.88845 0.69857 0.0
H798 H 0.20792 0.81524 0.70821 0.0
H799 H 0.20656 0.77341 0.72321 0.0
C800 C 0.67364 0.41406 0.75563 0.0
C801 C 0.65197 0.39809 0.773 0.0
C802 C 0.69722 0.34575 0.77694 0.0
C803 C 0.71901 0.36164 0.75952 0.0
N804 N 0.72445 0.40551 0.72914 0.0
N805 N 0.63765 0.34485 0.79672 0.0
C806 C 0.706 0.39415 0.74784 0.0
C807 C 0.66188 0.36248 0.78239 0.0
N808 N 0.6639 0.44877 0.74713 0.0
N809 N 0.7115 0.31654 0.78947 0.0
H810 H 0.61215 0.35689 0.80181 0.0
H811 H 0.64119 0.31694 0.80212 0.0
H812 H 0.73722 0.30315 0.78628 0.0
H813 H 0.69929 0.30729 0.80415 0.0
H814 H 0.68084 0.46412 0.73627 0.0
H815 H 0.63946 0.46328 0.75186 0.0
H816 H 0.71477 0.42705 0.71871 0.0
H817 H 0.74787 0.39094 0.72298 0.0
C818 C 0.61149 0.16679 0.00957 0.0
C819 C 0.58406 0.16098 0.02627 0.0
C820 C 0.58202 0.2297 0.03347 0.0
C821 C 0.60814 0.2359 0.01592 0.0
N822 N 0.64192 0.21104 0.98452 0.0
N823 N 0.54045 0.18634 0.05302 0.0
C824 C 0.62149 0.20458 0.00329 0.0
C825 C 0.56844 0.19232 0.03781 0.0
N826 N 0.62822 0.1361 0.99983 0.0
N827 N 0.5715 0.25921 0.0468 0.0
H828 H 0.53232 0.15945 0.05853 0.0
H829 H 0.52362 0.2079 0.05943 0.0
H830 H 0.57962 0.2873 0.0443 0.0
H831 H 0.5569 0.25581 0.06157 0.0
H832 H 0.65172 0.13815 0.98957 0.0
H833 H 0.62017 0.10812 0.00316 0.0
H834 H 0.64889 0.18987 0.97325 0.0
H835 H 0.64911 0.23816 0.97901 0.0
C836 C 0.84129 0.11147 0.25106 0.0
C837 C 0.84871 0.10633 0.27402 0.0
C838 C 0.78531 0.13001 0.28261 0.0
C839 C 0.77564 0.12829 0.25982 0.0
N840 N 0.79416 0.12104 0.22186 0.0
N841 N 0.8266 0.10708 0.31182 0.0
C842 C 0.80368 0.12033 0.24383 0.0
C843 C 0.82062 0.11515 0.2899 0.0
N844 N 0.8704 0.10835 0.23637 0.0
N845 N 0.76093 0.14629 0.29727 0.0
H846 H 0.85193 0.09593 0.31805 0.0
H847 H 0.80529 0.10851 0.32363 0.0
H848 H 0.73481 0.15774 0.29248 0.0
H849 H 0.76815 0.15177 0.31374 0.0
H850 H 0.86784 0.11458 0.21958 0.0
H851 H 0.89823 0.10232 0.24137 0.0
H852 H 0.81169 0.11125 0.20934 0.0
H853 H 0.76779 0.13069 0.21619 0.0
C854 C 0.92477 0.32848 0.50562 0.0
C855 C 0.90913 0.35068 0.52284 0.0
C856 C 0.85766 0.3046 0.52751 0.0
C857 C 0.87287 0.28247 0.51001 0.0
N858 N 0.91543 0.27705 0.47927 0.0
N859 N 0.85643 0.36528 0.54647 0.0
C860 C 0.90481 0.29561 0.49806 0.0
C861 C 0.87399 0.34058 0.53243 0.0
N862 N 0.95926 0.33821 0.49704 0.0
N863 N 0.82954 0.29015 0.54058 0.0
H864 H 0.8681 0.39152 0.55093 0.0
H865 H 0.82881 0.36136 0.55209 0.0
H866 H 0.81692 0.26366 0.53806 0.0
H867 H 0.82083 0.30298 0.55519 0.0
H868 H 0.9744 0.32088 0.48633 0.0
H869 H 0.97375 0.36299 0.50158 0.0
H870 H 0.93639 0.28693 0.46866 0.0
H871 H 0.90072 0.2534 0.4732 0.0
C872 C 0.6763 0.11595 0.46655 0.0
C873 C 0.64832 0.10655 0.48243 0.0
C874 C 0.69392 0.11914 0.51259 0.0
C875 C 0.72185 0.12769 0.49659 0.0
N876 N 0.73612 0.14738 0.45934 0.0
N877 N 0.62718 0.10718 0.5202 0.0
C878 C 0.71184 0.13045 0.47388 0.0
C879 C 0.65612 0.11072 0.50542 0.0
N880 N 0.67 0.10874 0.44456 0.0
N881 N 0.70372 0.11897 0.53452 0.0
H882 H 0.5992 0.1015 0.51527 0.0
H883 H 0.63004 0.11273 0.53706 0.0
H884 H 0.73021 0.12842 0.54019 0.0
H885 H 0.68628 0.10867 0.54699 0.0
H886 H 0.69118 0.11066 0.43269 0.0
H887 H 0.64455 0.09775 0.4383 0.0
H888 H 0.72867 0.15361 0.44299 0.0
H889 H 0.76242 0.15856 0.46414 0.0
C890 C 0.90854 0.15834 0.75351 0.0
C891 C 0.90993 0.15119 0.73039 0.0
C892 C 0.87983 0.21249 0.72288 0.0
C893 C 0.88463 0.22239 0.74547 0.0
N894 N 0.89923 0.20432 0.78301 0.0
N895 N 0.90133 0.17327 0.69274 0.0
C896 C 0.89771 0.1951 0.76105 0.0
C897 C 0.89646 0.1786 0.71496 0.0
N898 N 0.91657 0.12964 0.76811 0.0
N899 N 0.85853 0.23493 0.70908 0.0
H900 H 0.91396 0.14911 0.68608 0.0
H901 H 0.89599 0.19437 0.681 0.0
H902 H 0.84537 0.2598 0.71433 0.0
H903 H 0.85092 0.227 0.69301 0.0
H904 H 0.91319 0.13176 0.78515 0.0
H905 H 0.92416 0.10239 0.76301 0.0
H906 H 0.91259 0.18782 0.79508 0.0
H907 H 0.88759 0.22941 0.78909 0.0
C908 C 0.84195 0.40841 0.00735 0.0
C909 C 0.85905 0.39775 0.98715 0.0
C910 C 0.81398 0.34461 0.98317 0.0
C911 C 0.79327 0.35906 0.00135 0.0
N912 N 0.78782 0.40254 0.03185 0.0
N913 N 0.86258 0.35596 0.95564 0.0
C914 C 0.8077 0.39007 0.01395 0.0
C915 C 0.84583 0.36543 0.97522 0.0
N916 N 0.85857 0.43609 0.0201 0.0
N917 N 0.80279 0.31137 0.9733 0.0
H918 H 0.88683 0.36959 0.94975 0.0
H919 H 0.85157 0.33596 0.9446 0.0
H920 H 0.77904 0.29593 0.97825 0.0
H921 H 0.8186 0.29728 0.9614 0.0
H922 H 0.84958 0.44335 0.03589 0.0
H923 H 0.88341 0.45016 0.01548 0.0
H924 H 0.79375 0.42765 0.04033 0.0
H925 H 0.76432 0.38787 0.03797 0.0
C926 C 0.6209 0.35156 0.25754 0.0
C927 C 0.60104 0.35891 0.23744 0.0
C928 C 0.60945 0.29296 0.22585 0.0
C929 C 0.62653 0.28451 0.24672 0.0
N930 N 0.64303 0.30405 0.28387 0.0
N931 N 0.56871 0.33489 0.20479 0.0
C932 C 0.63083 0.31338 0.263 0.0
C933 C 0.59285 0.32905 0.22237 0.0
N934 N 0.63061 0.38108 0.27119 0.0
N935 N 0.61109 0.26757 0.20874 0.0
H936 H 0.55605 0.36098 0.20136 0.0
H937 H 0.5583 0.31292 0.19484 0.0
H938 H 0.62409 0.24115 0.20992 0.0
H939 H 0.60314 0.27432 0.19254 0.0
H940 H 0.64854 0.37822 0.28492 0.0
H941 H 0.62271 0.40912 0.26789 0.0
H942 H 0.64335 0.32308 0.29707 0.0
H943 H 0.64973 0.27626 0.28851 0.0
C944 C 0.0994 0.84619 0.40548 0.0
C945 C 0.09373 0.88595 0.4035 0.0
C946 C 0.12391 0.89602 0.43972 0.0
C947 C 0.12486 0.85603 0.4431 0.0
N948 N 0.11227 0.79257 0.42972 0.0
N949 N 0.09495 0.9485 0.42003 0.0
C950 C 0.11256 0.83092 0.42602 0.0
C951 C 0.10449 0.91083 0.42096 0.0
N952 N 0.09301 0.82326 0.38754 0.0
N953 N 0.14293 0.91996 0.45386 0.0
H954 H 0.0801 0.96066 0.40679 0.0
H955 H 0.09852 0.96707 0.43332 0.0
H956 H 0.15856 0.91061 0.46754 0.0
H957 H 0.14651 0.9489 0.45081 0.0
H958 H 0.10016 0.79458 0.3871 0.0
H959 H 0.08329 0.83368 0.37232 0.0
H960 H 0.09984 0.77294 0.41896 0.0
H961 H 0.12166 0.78047 0.44455 0.0
C962 C 0.09266 0.61884 0.67483 0.0
C963 C 0.11617 0.60954 0.65669 0.0
C964 C 0.17266 0.6295 0.67796 0.0
C965 C 0.14895 0.63969 0.69588 0.0
N966 N 0.08584 0.65501 0.70855 0.0
N967 N 0.17712 0.61281 0.63905 0.0
C968 C 0.10876 0.63771 0.69346 0.0
C969 C 0.15583 0.6169 0.65769 0.0
N970 N 0.05523 0.60811 0.67478 0.0
N971 N 0.21127 0.63078 0.68056 0.0
H972 H 0.16549 0.60401 0.62392 0.0
H973 H 0.20544 0.6212 0.63798 0.0
H974 H 0.22449 0.64107 0.69486 0.0
H975 H 0.23016 0.61929 0.66925 0.0
H976 H 0.03776 0.61075 0.68849 0.0
H977 H 0.04229 0.59321 0.66182 0.0
H978 H 0.05658 0.65788 0.70636 0.0
H979 H 0.09624 0.67001 0.7222 0.0
C980 C 0.42049 0.62008 0.91732 0.0
C981 C 0.39378 0.60327 0.90243 0.0
C982 C 0.34186 0.61705 0.92781 0.0
C983 C 0.36901 0.63111 0.94328 0.0
N984 N 0.43105 0.6572 0.95075 0.0
N985 N 0.32902 0.59412 0.89044 0.0
C986 C 0.40734 0.63658 0.93724 0.0
C987 C 0.35428 0.60475 0.90666 0.0
N988 N 0.45855 0.61799 0.91311 0.0
N989 N 0.3046 0.61428 0.93379 0.0
H990 H 0.33777 0.58518 0.87482 0.0
H991 H 0.29968 0.59681 0.89171 0.0
H992 H 0.29468 0.62533 0.94868 0.0
H993 H 0.28377 0.60041 0.92444 0.0
H994 H 0.47964 0.6253 0.92457 0.0
H995 H 0.46934 0.60692 0.89846 0.0
H996 H 0.45854 0.66514 0.94647 0.0
H997 H 0.42189 0.66935 0.96551 0.0
C998 C 0.35665 0.94053 0.17213 0.0
C999 C 0.3702 0.91637 0.15514 0.0
C1000 C 0.35269 0.86011 0.17682 0.0
C1001 C 0.3456 0.88427 0.19499 0.0
N1002 N 0.32691 0.94555 0.20823 0.0
N1003 N 0.37714 0.85394 0.13944 0.0
C1004 C 0.3429 0.92402 0.192 0.0
C1005 C 0.36611 0.87628 0.15672 0.0
N1006 N 0.35938 0.9791 0.16973 0.0
N1007 N 0.34632 0.82197 0.17899 0.0
H1008 H 0.38566 0.86533 0.12431 0.0
H1009 H 0.37856 0.82443 0.14001 0.0
H1010 H 0.33533 0.81029 0.19348 0.0
H1011 H 0.34913 0.80232 0.16626 0.0
H1012 H 0.35419 0.99848 0.18234 0.0
H1013 H 0.36809 0.99192 0.15504 0.0
H1014 H 0.32154 0.97453 0.20682 0.0
H1015 H 0.31615 0.93339 0.22266 0.0
C1016 C 0.1422 0.61562 0.85052 0.0
C1017 C 0.10317 0.62346 0.85339 0.0
C1018 C 0.10202 0.65923 0.81848 0.0
C1019 C 0.13873 0.64493 0.81369 0.0
N1020 N 0.19372 0.60835 0.82464 0.0
N1021 N 0.04532 0.65332 0.84087 0.0
C1022 C 0.15914 0.62337 0.82976 0.0
C1023 C 0.0831 0.64628 0.83784 0.0
N1024 N 0.1627 0.60012 0.8676 0.0
N1025 N 0.08477 0.68403 0.80415 0.0
H1026 H 0.03102 0.64524 0.85517 0.0
H1027 H 0.02766 0.66555 0.82892 0.0
H1028 H 0.09694 0.69248 0.78928 0.0
H1029 H 0.05972 0.69839 0.80765 0.0
H1030 H 0.19208 0.59662 0.86734 0.0
H1031 H 0.15063 0.59415 0.88294 0.0
H1032 H 0.20811 0.58885 0.83461 0.0
H1033 H 0.20695 0.61348 0.80959 0.0
C1034 C 0.42352 0.61206 0.08364 0.0
C1035 C 0.39986 0.60461 0.10201 0.0
C1036 C 0.34342 0.62076 0.07977 0.0
C1037 C 0.36735 0.6298 0.06172 0.0
N1038 N 0.43057 0.64431 0.04863 0.0
N1039 N 0.3385 0.60763 0.11915 0.0
C1040 C 0.40753 0.62851 0.06427 0.0
C1041 C 0.36008 0.61071 0.10055 0.0
N1042 N 0.46107 0.60202 0.08432 0.0
N1043 N 0.30481 0.62048 0.07681 0.0
H1044 H 0.34997 0.60026 0.13458 0.0
H1045 H 0.30999 0.61533 0.1198 0.0
H1046 H 0.29164 0.62745 0.06179 0.0
H1047 H 0.28589 0.61022 0.08853 0.0
H1048 H 0.47862 0.60296 0.07056 0.0
H1049 H 0.47407 0.5894 0.09806 0.0
H1050 H 0.45976 0.64791 0.05088 0.0
H1051 H 0.42039 0.65724 0.03425 0.0
C1052 C 0.39586 0.85117 0.34925 0.0
C1053 C 0.40033 0.89104 0.35161 0.0
C1054 C 0.36951 0.90111 0.31558 0.0
C1055 C 0.36985 0.86122 0.31178 0.0
N1056 N 0.38481 0.79791 0.32449 0.0
N1057 N 0.397 0.95403 0.3357 0.0
C1058 C 0.38314 0.83608 0.32858 0.0
C1059 C 0.38863 0.91606 0.33443 0.0
N1060 N 0.40294 0.82791 0.36697 0.0
N1061 N 0.34957 0.92474 0.30174 0.0
H1062 H 0.41163 0.96631 0.34901 0.0
H1063 H 0.39267 0.97288 0.32261 0.0
H1064 H 0.33411 0.91523 0.28802 0.0
H1065 H 0.34509 0.95342 0.30509 0.0
H1066 H 0.39663 0.79897 0.36712 0.0
H1067 H 0.41228 0.83819 0.3823 0.0
H1068 H 0.39803 0.77848 0.33502 0.0
H1069 H 0.37581 0.78595 0.30955 0.0
C1070 C 0.12407 0.86074 0.59826 0.0
C1071 C 0.11643 0.90008 0.60096 0.0
C1072 C 0.14432 0.91371 0.5648 0.0
C1073 C 0.14528 0.87426 0.5606 0.0
N1074 N 0.14936 0.8107 0.57473 0.0
N1075 N 0.12122 0.96482 0.58794 0.0
C1076 C 0.13957 0.84783 0.57791 0.0
C1077 C 0.12807 0.92696 0.58478 0.0
N1078 N 0.11462 0.83587 0.61473 0.0
N1079 N 0.1595 0.93812 0.54965 0.0
H1080 H 0.11033 0.97565 0.60262 0.0
H1081 H 0.12476 0.98545 0.57577 0.0
H1082 H 0.17219 0.92833 0.53518 0.0
H1083 H 0.16255 0.96725 0.55213 0.0
H1084 H 0.11592 0.80644 0.6133 0.0
H1085 H 0.10457 0.84494 0.63004 0.0
H1086 H 0.14788 0.7897 0.58682 0.0
H1087 H 0.16161 0.80141 0.56004 0.0
C1088 C 0.64321 0.40979 0.92252 0.0
C1089 C 0.61662 0.38973 0.90907 0.0
C1090 C 0.62344 0.33471 0.9339 0.0
C1091 C 0.64259 0.35806 0.94962 0.0
N1092 N 0.66916 0.41959 0.9592 0.0
N1093 N 0.57791 0.33322 0.90363 0.0
C1094 C 0.65194 0.39616 0.94406 0.0
C1095 C 0.6062 0.35188 0.91494 0.0
N1096 N 0.66122 0.44122 0.91434 0.0
N1097 N 0.62074 0.29642 0.93735 0.0
H1098 H 0.56166 0.3457 0.89111 0.0
H1099 H 0.56753 0.30666 0.90829 0.0
H1100 H 0.63115 0.28328 0.95164 0.0
H1101 H 0.61063 0.27753 0.92536 0.0
H1102 H 0.68336 0.45503 0.92269 0.0
H1103 H 0.65705 0.45068 0.89811 0.0
H1104 H 0.67217 0.44878 0.9567 0.0
H1105 H 0.67788 0.41072 0.97489 0.0
C1106 C 0.58539 0.11654 0.17319 0.0
C1107 C 0.6083 0.11171 0.15422 0.0
C1108 C 0.66434 0.13369 0.17522 0.0
C1109 C 0.64097 0.13996 0.1939 0.0
N1110 N 0.57762 0.14812 0.20832 0.0
N1111 N 0.66779 0.12133 0.13569 0.0
C1112 C 0.601 0.1346 0.1922 0.0
C1113 C 0.64733 0.12196 0.1548 0.0
N1114 N 0.54908 0.10248 0.17343 0.0
N1115 N 0.70287 0.13785 0.17722 0.0
H1116 H 0.65605 0.11292 0.12052 0.0
H1117 H 0.69532 0.13196 0.13441 0.0
H1118 H 0.71616 0.14686 0.19181 0.0
H1119 H 0.72194 0.12962 0.16509 0.0
H1120 H 0.53251 0.10168 0.18761 0.0
H1121 H 0.53655 0.08819 0.1601 0.0
H1122 H 0.54811 0.14858 0.20675 0.0
H1123 H 0.58748 0.16246 0.22233 0.0
C1124 C 0.85601 0.08607 0.41353 0.0
C1125 C 0.88426 0.10765 0.4025 0.0
C1126 C 0.8848 0.15386 0.43295 0.0
C1127 C 0.85563 0.13284 0.44357 0.0
N1128 N 0.80502 0.08658 0.43996 0.0
N1129 N 0.91657 0.16772 0.39841 0.0
C1130 C 0.83823 0.10172 0.43236 0.0
C1131 C 0.89543 0.14362 0.41108 0.0
N1132 N 0.84823 0.04941 0.40739 0.0
N1133 N 0.90452 0.18143 0.44415 0.0
H1134 H 0.92432 0.16102 0.38224 0.0
H1135 H 0.92286 0.19558 0.40309 0.0
H1136 H 0.89902 0.18878 0.46048 0.0
H1137 H 0.92868 0.19462 0.43786 0.0
H1138 H 0.83088 0.0314 0.41659 0.0
H1139 H 0.86189 0.03548 0.39455 0.0
H1140 H 0.78932 0.06631 0.43116 0.0
H1141 H 0.79131 0.09704 0.45388 0.0
C1142 C 0.90162 0.35283 0.66078 0.0
C1143 C 0.89517 0.39153 0.65567 0.0
C1144 C 0.856 0.39761 0.68889 0.0
C1145 C 0.86899 0.36146 0.69607 0.0
N1146 N 0.9073 0.30567 0.6897 0.0
N1147 N 0.86708 0.45189 0.66496 0.0
C1148 C 0.8922 0.33904 0.6821 0.0
C1149 C 0.87185 0.4141 0.66949 0.0
N1150 N 0.91733 0.32953 0.6453 0.0
N1151 N 0.82957 0.41664 0.70101 0.0
H1152 H 0.87794 0.46494 0.65087 0.0
H1153 H 0.85439 0.47089 0.67581 0.0
H1154 H 0.81856 0.40591 0.71571 0.0
H1155 H 0.81628 0.44143 0.69559 0.0
H1156 H 0.9197 0.3002 0.6473 0.0
H1157 H 0.92441 0.33914 0.6295 0.0
H1158 H 0.92771 0.29026 0.68119 0.0
H1159 H 0.90178 0.29489 0.7054 0.0
C1160 C 0.63903 0.08706 0.34233 0.0
C1161 C 0.61211 0.10971 0.35361 0.0
C1162 C 0.61394 0.15668 0.3235 0.0
C1163 C 0.64171 0.13439 0.31259 0.0
N1164 N 0.68992 0.08587 0.31587 0.0
N1165 N 0.58305 0.17109 0.35823 0.0
C1166 C 0.65749 0.10226 0.32357 0.0
C1167 C 0.60278 0.14634 0.3453 0.0
N1168 N 0.64491 0.04997 0.34823 0.0
N1169 N 0.59608 0.18586 0.31269 0.0
H1170 H 0.57497 0.16433 0.37434 0.0
H1171 H 0.57829 0.19935 0.35383 0.0
H1172 H 0.6024 0.19411 0.29659 0.0
H1173 H 0.57266 0.19997 0.31912 0.0
H1174 H 0.66118 0.03137 0.33886 0.0
H1175 H 0.63066 0.03647 0.36106 0.0
H1176 H 0.70452 0.06468 0.32451 0.0
H1177 H 0.70431 0.09618 0.30211 0.0
C1178 C 0.91085 0.10899 0.58268 0.0
C1179 C 0.88738 0.10324 0.60135 0.0
C1180 C 0.83256 0.12859 0.58065 0.0
C1181 C 0.85648 0.13553 0.56227 0.0
N1182 N 0.92027 0.14276 0.54831 0.0
N1183 N 0.82788 0.11292 0.61976 0.0
C1184 C 0.8962 0.12885 0.56403 0.0
C1185 C 0.84874 0.11463 0.60082 0.0
N1186 N 0.94676 0.09417 0.58236 0.0
N1187 N 0.79426 0.13419 0.57858 0.0
H1188 H 0.83897 0.10277 0.63473 0.0
H1189 H 0.80071 0.12421 0.6212 0.0
H1190 H 0.78163 0.14497 0.56421 0.0
H1191 H 0.77464 0.12561 0.59036 0.0
H1192 H 0.96365 0.09402 0.56831 0.0
H1193 H 0.95858 0.07871 0.59545 0.0
H1194 H 0.94976 0.1422 0.54996 0.0
H1195 H 0.91109 0.15841 0.53463 0.0
C1196 C 0.85893 0.40689 0.83873 0.0
C1197 C 0.88419 0.38873 0.85376 0.0
C1198 C 0.87785 0.33051 0.83148 0.0
C1199 C 0.8616 0.35217 0.81399 0.0
N1200 N 0.83965 0.41345 0.80063 0.0
N1201 N 0.92024 0.33215 0.86329 0.0
C1202 C 0.85298 0.39109 0.81749 0.0
C1203 C 0.8939 0.34989 0.85013 0.0
N1204 N 0.84001 0.43895 0.84497 0.0
N1205 N 0.87876 0.29179 0.83007 0.0
H1206 H 0.9361 0.34607 0.87546 0.0
H1207 H 0.92945 0.30445 0.86058 0.0
H1208 H 0.86823 0.27705 0.81632 0.0
H1209 H 0.88708 0.27438 0.84321 0.0
H1210 H 0.81891 0.45155 0.8352 0.0
H1211 H 0.84229 0.45008 0.86096 0.0
H1212 H 0.83688 0.44285 0.80213 0.0
H1213 H 0.83484 0.40357 0.78464 0.0
C1214 C 0.65676 0.4145 0.09861 0.0
C1215 C 0.62418 0.39845 0.10894 0.0
C1216 C 0.62713 0.34579 0.08265 0.0
C1217 C 0.65129 0.36734 0.06904 0.0
N1218 N 0.6904 0.42299 0.06409 0.0
N1219 N 0.5749 0.34971 0.10781 0.0
C1220 C 0.66712 0.4017 0.07715 0.0
C1221 C 0.60874 0.36383 0.1005 0.0
N1222 N 0.67769 0.44173 0.10933 0.0
N1223 N 0.62167 0.30815 0.07838 0.0
H1224 H 0.55788 0.36361 0.1192 0.0
H1225 H 0.56165 0.32621 0.10051 0.0
H1226 H 0.63641 0.29441 0.06578 0.0
H1227 H 0.60636 0.29033 0.08886 0.0
H1228 H 0.70319 0.45239 0.10323 0.0
H1229 H 0.67153 0.45051 0.1254 0.0
H1230 H 0.69929 0.45038 0.06828 0.0
H1231 H 0.699 0.41397 0.04849 0.0
loop_
_geom_bond_atom_site_label_1
_geom_bond_atom_site_label_2
_geom_bond_distance
_geom_bond_site_symmetry_2
_ccdc_geom_bond_type
C0 C1 1.384 . S
C0 C2 1.384 . S
C0 H28 0.931 . S
C1 C0 1.384 . S
C1 C4 1.382 . S
C2 C0 1.384 . S
C2 C3 1.381 . S
C2 H29 0.930 . S
C3 C2 1.381 . S
C3 C5 1.381 . S
C3 C6 1.487 . S
C4 C1 1.382 . S
C4 C5 1.387 . S
C4 H30 0.930 . S
C5 C3 1.381 . S
C5 C4 1.387 . S
C5 H31 0.931 1_565 S
C6 C3 1.487 . S
C6 C13 1.399 . S
C6 N44 1.343 1_565 S
C7 C8 1.384 . S
C7 C9 1.384 . S
C7 H32 0.931 . S
C8 C7 1.384 . S
C8 C11 1.382 . S
C9 C7 1.384 . S
C9 C10 1.381 . S
C9 H33 0.930 . S
C10 C9 1.381 . S
C10 C12 1.381 . S
C10 C13 1.487 . S
C11 C8 1.382 . S
C11 C12 1.387 . S
C11 H34 0.930 . S
C12 C10 1.381 . S
C12 C11 1.387 . S
C12 H35 0.931 . S
C13 C6 1.399 . S
C13 C10 1.487 . S
C13 N45 1.349 1_455 S
C14 C15 1.384 . S
C14 C16 1.384 . S
C14 H36 0.931 . S
C15 C14 1.384 . S
C15 C18 1.382 . S
C16 C14 1.384 . S
C16 C17 1.381 . S
C16 H37 0.930 . S
C17 C16 1.381 . S
C17 C19 1.381 . S
C17 C20 1.487 . S
C18 C15 1.382 . S
C18 C19 1.387 . S
C18 H38 0.930 . S
C19 C17 1.381 . S
C19 C18 1.387 . S
C19 H39 0.931 1_545 S
C20 C17 1.487 . S
C20 C27 1.399 . S
C20 N45 1.336 1_545 S
C21 C22 1.384 . S
C21 C23 1.384 . S
C21 H40 0.931 . S
C22 C21 1.384 . S
C22 C25 1.382 . S
C23 C21 1.384 . S
C23 C24 1.381 . S
C23 H41 0.930 . S
C24 C23 1.381 . S
C24 C26 1.381 . S
C24 C27 1.487 . S
C25 C22 1.382 . S
C25 C26 1.387 . S
C25 H42 0.930 . S
C26 C24 1.381 . S
C26 C25 1.387 . S
C26 H43 0.931 . S
C27 C20 1.399 . S
C27 C24 1.487 . S
C27 N44 1.343 1_655 S
H28 C0 0.931 . S
H29 C2 0.930 . S
H30 C4 0.930 . S
H31 C5 0.931 1_545 S
H32 C7 0.931 . S
H33 C9 0.930 . S
H34 C11 0.930 . S
H35 C12 0.931 . S
H36 C14 0.931 . S
H37 C16 0.930 . S
H38 C18 0.930 . S
H39 C19 0.931 1_565 S
H40 C21 0.931 . S
H41 C23 0.930 . S
H42 C25 0.930 . S
H43 C26 0.931 . S
N44 C6 1.343 1_545 S
N44 C27 1.343 1_455 S
N45 C13 1.349 1_655 S
N45 C20 1.336 1_565 S
C46 C47 1.384 . S
C46 C48 1.384 . S
C46 H74 0.931 . S
C47 C46 1.384 . S
C47 C50 1.382 . S
C48 C46 1.384 . S
C48 C49 1.381 . S
C48 H75 0.930 . S
C49 C48 1.381 . S
C49 C51 1.381 . S
C49 C52 1.487 . S
C50 C47 1.382 . S
C50 C51 1.387 . S
C50 H76 0.930 . S
C51 C49 1.381 . S
C51 C50 1.387 . S
C51 H77 0.931 1_655 S
C52 C49 1.487 . S
C52 C59 1.399 . S
C52 N90 1.343 1_655 S
C53 C54 1.384 . S
C53 C55 1.384 . S
C53 H78 0.931 . S
C54 C53 1.384 . S
C54 C57 1.382 . S
C55 C53 1.384 . S
C55 C56 1.381 . S
C55 H79 0.930 . S
C56 C55 1.381 . S
C56 C58 1.381 . S
C56 C59 1.487 . S
C57 C54 1.382 . S
C57 C58 1.387 . S
C57 H80 0.930 . S
C58 C56 1.381 . S
C58 C57 1.387 . S
C58 H81 0.931 . S
C59 C52 1.399 . S
C59 C56 1.487 . S
C59 N91 1.354 . S
C60 C61 1.384 . S
C60 C62 1.384 . S
C60 H82 0.931 . S
C61 C60 1.384 . S
C61 C64 1.382 . S
C62 C60 1.384 . S
C62 C63 1.381 . S
C62 H83 0.930 . S
C63 C62 1.381 . S
C63 C65 1.381 . S
C63 C66 1.487 . S
C64 C61 1.382 . S
C64 C65 1.387 . S
C64 H84 0.930 . S
C65 C63 1.381 . S
C65 C64 1.387 . S
C65 H85 0.931 1_455 S
C66 C63 1.487 . S
C66 C73 1.399 . S
C66 N91 1.330 1_455 S
C67 C68 1.384 . S
C67 C69 1.384 . S
C67 H86 0.931 . S
C68 C67 1.384 . S
C68 C71 1.382 . S
C69 C67 1.384 . S
C69 C70 1.381 . S
C69 H87 0.930 . S
C70 C69 1.381 . S
C70 C72 1.381 . S
C70 C73 1.487 . S
C71 C68 1.382 . S
C71 C72 1.387 . S
C71 H88 0.930 . S
C72 C70 1.381 . S
C72 C71 1.387 . S
C72 H89 0.931 . S
C73 C66 1.399 . S
C73 C70 1.487 . S
C73 N90 1.343 . S
H74 C46 0.931 . S
H75 C48 0.930 . S
H76 C50 0.930 . S
H77 C51 0.931 1_455 S
H78 C53 0.931 . S
H79 C55 0.930 . S
H80 C57 0.930 . S
H81 C58 0.931 . S
H82 C60 0.931 . S
H83 C62 0.930 . S
H84 C64 0.930 . S
H85 C65 0.931 1_655 S
H86 C67 0.931 . S
H87 C69 0.930 . S
H88 C71 0.930 . S
H89 C72 0.931 . S
N90 C52 1.343 1_455 S
N90 C73 1.343 . S
N91 C59 1.354 . S
N91 C66 1.330 1_655 S
C92 C93 1.384 . S
C92 C94 1.384 . S
C92 H120 0.931 . S
C93 C92 1.384 . S
C93 C96 1.382 . S
C94 C92 1.384 . S
C94 C95 1.381 . S
C94 H121 0.930 . S
C95 C94 1.381 . S
C95 C97 1.381 . S
C95 C98 1.487 . S
C96 C93 1.382 . S
C96 C97 1.387 . S
C96 H122 0.930 . S
C97 C95 1.381 . S
C97 C96 1.387 . S
C97 H123 0.931 . S
C98 C95 1.487 . S
C98 C105 1.399 . S
C98 N136 1.343 . S
C99 C100 1.384 . S
C99 C101 1.384 . S
C99 H124 0.931 . S
C100 C99 1.384 . S
C100 C103 1.382 . S
C101 C99 1.384 . S
C101 C102 1.381 . S
C101 H125 0.930 . S
C102 C101 1.381 . S
C102 C104 1.381 . S
C102 C105 1.487 . S
C103 C100 1.382 . S
C103 C104 1.387 . S
C103 H126 0.930 . S
C104 C102 1.381 . S
C104 C103 1.387 . S
C104 H127 0.931 . S
C105 C98 1.399 . S
C105 C102 1.487 . S
C105 N137 1.343 . S
C106 C107 1.384 . S
C106 C108 1.384 . S
C106 H128 0.931 . S
C107 C106 1.384 . S
C107 C110 1.382 . S
C108 C106 1.384 . S
C108 C109 1.381 . S
C108 H129 0.930 . S
C109 C108 1.381 . S
C109 C111 1.381 . S
C109 C112 1.487 . S
C110 C107 1.382 . S
C110 C111 1.387 . S
C110 H130 0.930 . S
C111 C109 1.381 . S
C111 C110 1.387 . S
C111 H131 0.931 . S
C112 C109 1.487 . S
C112 C119 1.399 . S
C112 N137 1.343 . S
C113 C114 1.384 . S
C113 C115 1.384 . S
C113 H132 0.931 . S
C114 C113 1.384 . S
C114 C117 1.382 . S
C115 C113 1.384 . S
C115 C116 1.381 . S
C115 H133 0.930 . S
C116 C115 1.381 . S
C116 C118 1.381 . S
C116 C119 1.487 . S
C117 C114 1.382 . S
C117 C118 1.387 . S
C117 H134 0.930 . S
C118 C116 1.381 . S
C118 C117 1.387 . S
C118 H135 0.931 . S
C119 C112 1.399 . S
C119 C116 1.487 . S
C119 N136 1.343 . S
H120 C92 0.931 . S
H121 C94 0.930 . S
H122 C96 0.930 . S
H123 C97 0.931 . S
H124 C99 0.931 . S
H125 C101 0.930 . S
H126 C103 0.930 . S
H127 C104 0.931 . S
H128 C106 0.931 . S
H129 C108 0.930 . S
H130 C110 0.930 . S
H131 C111 0.931 . S
H132 C113 0.931 . S
H133 C115 0.930 . S
H134 C117 0.930 . S
H135 C118 0.931 . S
N136 C98 1.343 . S
N136 C119 1.343 . S
N137 C105 1.343 . S
N137 C112 1.343 . S
C138 C139 1.384 . S
C138 C140 1.384 . S
C138 H166 0.931 . S
C139 C138 1.384 . S
C139 C142 1.382 . S
C140 C138 1.384 . S
C140 C141 1.381 . S
C140 H167 0.930 . S
C141 C140 1.381 . S
C141 C143 1.381 . S
C141 C144 1.487 . S
C142 C139 1.382 . S
C142 C143 1.387 . S
C142 H168 0.930 . S
C143 C141 1.381 . S
C143 C142 1.387 . S
C143 H169 0.939 . S
C144 C141 1.487 . S
C144 C151 1.399 . S
C144 N182 1.343 1_565 S
C145 C146 1.384 . S
C145 C147 1.384 . S
C145 H170 0.931 . S
C146 C145 1.384 . S
C146 C149 1.382 . S
C147 C145 1.384 . S
C147 C148 1.381 . S
C147 H171 0.930 . S
C148 C147 1.381 . S
C148 C150 1.381 . S
C148 C151 1.487 . S
C149 C146 1.382 . S
C149 C150 1.387 . S
C149 H172 0.930 . S
C150 C148 1.381 . S
C150 C149 1.387 . S
C150 H173 0.931 . S
C151 C144 1.399 . S
C151 C148 1.487 . S
C151 N183 1.343 1_565 S
C152 C153 1.384 . S
C152 C154 1.384 . S
C152 H174 0.931 . S
C153 C152 1.384 . S
C153 C156 1.382 . S
C154 C152 1.384 . S
C154 C155 1.381 . S
C154 H175 0.930 . S
C155 C154 1.381 . S
C155 C157 1.381 . S
C155 C158 1.487 . S
C156 C153 1.382 . S
C156 C157 1.387 . S
C156 H176 0.930 . S
C157 C155 1.381 . S
C157 C156 1.387 . S
C157 H177 0.931 . S
C158 C155 1.487 . S
C158 C165 1.399 . S
C158 N183 1.343 . S
C159 C160 1.384 . S
C159 C161 1.384 . S
C159 H178 0.931 . S
C160 C159 1.384 . S
C160 C163 1.382 . S
C161 C159 1.384 . S
C161 C162 1.381 . S
C161 H179 0.930 . S
C162 C161 1.381 . S
C162 C164 1.381 . S
C162 C165 1.487 . S
C163 C160 1.382 . S
C163 C164 1.387 . S
C163 H180 0.930 . S
C164 C162 1.381 . S
C164 C163 1.387 . S
C164 H181 0.931 . S
C165 C158 1.399 . S
C165 C162 1.487 . S
C165 N182 1.343 . S
H166 C138 0.931 . S
H167 C140 0.930 . S
H168 C142 0.930 . S
H169 C143 0.939 . S
H170 C145 0.931 . S
H171 C147 0.930 . S
H172 C149 0.930 . S
H173 C150 0.931 . S
H174 C152 0.931 . S
H175 C154 0.930 . S
H176 C156 0.930 . S
H177 C157 0.931 . S
H178 C159 0.931 . S
H179 C161 0.930 . S
H180 C163 0.930 . S
H181 C164 0.931 . S
N182 C144 1.343 1_545 S
N182 C165 1.343 . S
N183 C151 1.343 1_545 S
N183 C158 1.343 . S
C184 C185 1.384 . S
C184 C186 1.384 . S
C184 H212 0.931 . S
C185 C184 1.384 . S
C185 C188 1.382 . S
C186 C184 1.384 . S
C186 C187 1.381 . S
C186 H213 0.930 . S
C187 C186 1.381 . S
C187 C189 1.381 . S
C187 C190 1.487 . S
C188 C185 1.382 . S
C188 C189 1.387 . S
C188 H214 0.930 . S
C189 C187 1.381 . S
C189 C188 1.387 . S
C189 H215 0.931 . S
C190 C187 1.487 . S
C190 C197 1.399 . S
C190 N228 1.343 . S
C191 C192 1.384 . S
C191 C193 1.384 . S
C191 H216 0.931 . S
C192 C191 1.384 . S
C192 C195 1.382 . S
C193 C191 1.384 . S
C193 C194 1.381 . S
C193 H217 0.930 . S
C194 C193 1.381 . S
C194 C196 1.381 . S
C194 C197 1.487 . S
C195 C192 1.382 . S
C195 C196 1.387 . S
C195 H218 0.930 . S
C196 C194 1.381 . S
C196 C195 1.387 . S
C196 H219 0.931 . S
C197 C190 1.399 . S
C197 C194 1.487 . S
C197 N229 1.343 . S
C198 C199 1.384 . S
C198 C200 1.384 . S
C198 H220 0.931 . S
C199 C198 1.384 . S
C199 C202 1.382 . S
C200 C198 1.384 . S
C200 C201 1.381 . S
C200 H221 0.930 . S
C201 C200 1.381 . S
C201 C203 1.381 . S
C201 C204 1.487 . S
C202 C199 1.382 . S
C202 C203 1.387 . S
C202 H222 0.930 . S
C203 C201 1.381 . S
C203 C202 1.387 . S
C203 H223 0.931 . S
C204 C201 1.487 . S
C204 C211 1.399 . S
C204 N229 1.343 1_655 S
C205 C206 1.384 . S
C205 C207 1.384 . S
C205 H224 0.931 . S
C206 C205 1.384 . S
C206 C209 1.382 . S
C207 C205 1.384 . S
C207 C208 1.381 . S
C207 H225 0.930 . S
C208 C207 1.381 . S
C208 C210 1.381 . S
C208 C211 1.487 . S
C209 C206 1.382 . S
C209 C210 1.387 . S
C209 H226 0.930 . S
C210 C208 1.381 . S
C210 C209 1.387 . S
C210 H227 0.931 . S
C211 C204 1.399 . S
C211 C208 1.487 . S
C211 N228 1.343 1_655 S
H212 C184 0.931 . S
H213 C186 0.930 . S
H214 C188 0.930 . S
H215 C189 0.931 . S
H216 C191 0.931 . S
H217 C193 0.930 . S
H218 C195 0.930 . S
H219 C196 0.931 . S
H220 C198 0.931 . S
H221 C200 0.930 . S
H222 C202 0.930 . S
H223 C203 0.931 . S
H224 C205 0.931 . S
H225 C207 0.930 . S
H226 C209 0.930 . S
H227 C210 0.931 . S
N228 C190 1.343 . S
N228 C211 1.343 1_455 S
N229 C197 1.343 . S
N229 C204 1.343 1_455 S
C230 C231 1.384 . S
C230 C232 1.384 . S
C230 H258 0.931 . S
C231 C230 1.384 . S
C231 C234 1.382 . S
C232 C230 1.384 . S
C232 C233 1.381 . S
C232 H259 0.930 . S
C233 C232 1.381 . S
C233 C235 1.381 . S
C233 C236 1.487 . S
C234 C231 1.382 . S
C234 C235 1.387 . S
C234 H260 0.930 . S
C235 C233 1.381 . S
C235 C234 1.387 . S
C235 H261 0.931 . S
C236 C233 1.487 . S
C236 C243 1.399 . S
C236 N274 1.343 . S
C237 C238 1.384 . S
C237 C239 1.384 . S
C237 H262 0.931 . S
C238 C237 1.384 . S
C238 C241 1.382 . S
C239 C237 1.384 . S
C239 C240 1.381 . S
C239 H263 0.930 . S
C240 C239 1.381 . S
C240 C242 1.381 . S
C240 C243 1.487 . S
C241 C238 1.382 . S
C241 C242 1.387 . S
C241 H264 0.930 . S
C242 C240 1.381 . S
C242 C241 1.387 . S
C242 H265 0.931 . S
C243 C236 1.399 . S
C243 C240 1.487 . S
C243 N275 1.343 . S
C244 C245 1.384 . S
C244 C246 1.384 . S
C244 H266 0.931 . S
C245 C244 1.384 . S
C245 C248 1.382 . S
C246 C244 1.384 . S
C246 C247 1.381 . S
C246 H267 0.930 . S
C247 C246 1.381 . S
C247 C249 1.381 . S
C247 C250 1.487 . S
C248 C245 1.382 . S
C248 C249 1.387 . S
C248 H268 0.930 . S
C249 C247 1.381 . S
C249 C248 1.387 . S
C249 H269 0.931 . S
C250 C247 1.487 . S
C250 C257 1.399 . S
C250 N275 1.343 . S
C251 C252 1.384 . S
C251 C253 1.384 . S
C251 H270 0.931 . S
C252 C251 1.384 . S
C252 C255 1.382 . S
C253 C251 1.384 . S
C253 C254 1.381 . S
C253 H271 0.930 . S
C254 C253 1.381 . S
C254 C256 1.381 . S
C254 C257 1.487 . S
C255 C252 1.382 . S
C255 C256 1.387 . S
C255 H272 0.930 . S
C256 C254 1.381 . S
C256 C255 1.387 . S
C256 H273 0.931 . S
C257 C250 1.399 . S
C257 C254 1.487 . S
C257 N274 1.343 . S
H258 C230 0.931 . S
H259 C232 0.930 . S
H260 C234 0.930 . S
H261 C235 0.931 . S
H262 C237 0.931 . S
H263 C239 0.930 . S
H264 C241 0.930 . S
H265 C242 0.931 . S
H266 C244 0.931 . S
H267 C246 0.930 . S
H268 C248 0.930 . S
H269 C249 0.931 . S
H270 C251 0.931 . S
H271 C253 0.930 . S
H272 C255 0.930 . S
H273 C256 0.931 . S
N274 C236 1.343 . S
N274 C257 1.343 . S
N275 C243 1.343 . S
N275 C250 1.343 . S
C276 C277 1.384 . S
C276 C278 1.384 . S
C276 H304 0.931 . S
C277 C276 1.384 . S
C277 C280 1.382 . S
C278 C276 1.384 . S
C278 C279 1.381 . S
C278 H305 0.930 . S
C279 C278 1.381 . S
C279 C281 1.381 . S
C279 C282 1.487 . S
C280 C277 1.382 . S
C280 C281 1.387 . S
C280 H306 0.930 . S
C281 C279 1.381 . S
C281 C280 1.387 . S
C281 H307 0.931 1_565 S
C282 C279 1.487 . S
C282 C289 1.399 . S
C282 N320 1.343 1_565 S
C283 C284 1.384 . S
C283 C285 1.384 . S
C283 H308 0.931 . S
C284 C283 1.384 . S
C284 C287 1.382 . S
C285 C283 1.384 . S
C285 C286 1.381 . S
C285 H309 0.930 . S
C286 C285 1.381 . S
C286 C288 1.381 . S
C286 C289 1.487 . S
C287 C284 1.382 . S
C287 C288 1.387 . S
C287 H310 0.930 . S
C288 C286 1.381 . S
C288 C287 1.387 . S
C288 H311 0.931 . S
C289 C282 1.399 . S
C289 C286 1.487 . S
C289 N321 1.343 1_565 S
C290 C291 1.384 . S
C290 C292 1.384 . S
C290 H312 0.931 . S
C291 C290 1.384 . S
C291 C294 1.382 . S
C292 C290 1.384 . S
C292 C293 1.381 . S
C292 H313 0.930 . S
C293 C292 1.381 . S
C293 C295 1.381 . S
C293 C296 1.487 . S
C294 C291 1.382 . S
C294 C295 1.387 . S
C294 H314 0.930 . S
C295 C293 1.381 . S
C295 C294 1.387 . S
C295 H315 0.931 . S
C296 C293 1.487 . S
C296 C303 1.399 . S
C296 N321 1.343 . S
C297 C298 1.384 . S
C297 C299 1.384 . S
C297 H316 0.931 . S
C298 C297 1.384 . S
C298 C301 1.382 . S
C299 C297 1.384 . S
C299 C300 1.381 . S
C299 H317 0.930 . S
C300 C299 1.381 . S
C300 C302 1.381 . S
C300 C303 1.487 . S
C301 C298 1.382 . S
C301 C302 1.387 . S
C301 H318 0.930 . S
C302 C300 1.381 . S
C302 C301 1.387 . S
C302 H319 0.931 . S
C303 C296 1.399 . S
C303 C300 1.487 . S
C303 N320 1.343 . S
H304 C276 0.931 . S
H305 C278 0.930 . S
H306 C280 0.930 . S
H307 C281 0.931 1_545 S
H308 C283 0.931 . S
H309 C285 0.930 . S
H310 C287 0.930 . S
H311 C288 0.931 . S
H312 C290 0.931 . S
H313 C292 0.930 . S
H314 C294 0.930 . S
H315 C295 0.931 . S
H316 C297 0.931 . S
H317 C299 0.930 . S
H318 C301 0.930 . S
H319 C302 0.931 . S
N320 C282 1.343 1_545 S
N320 C303 1.343 . S
N321 C289 1.343 1_545 S
N321 C296 1.343 . S
C322 C323 1.384 . S
C322 C324 1.384 . S
C322 H350 0.931 . S
C323 C322 1.384 . S
C323 C326 1.382 . S
C324 C322 1.384 . S
C324 C325 1.381 . S
C324 H351 0.930 . S
C325 C324 1.381 . S
C325 C327 1.381 . S
C325 C328 1.487 . S
C326 C323 1.382 . S
C326 C327 1.387 . S
C326 H352 0.930 . S
C327 C325 1.381 . S
C327 C326 1.387 . S
C327 H353 0.931 1_455 S
C328 C325 1.487 . S
C328 C335 1.399 . S
C328 N366 1.343 1_465 S
C329 C330 1.384 . S
C329 C331 1.384 . S
C329 H354 0.931 . S
C330 C329 1.384 . S
C330 C333 1.382 . S
C331 C329 1.384 . S
C331 C332 1.381 . S
C331 H355 0.930 . S
C332 C331 1.381 . S
C332 C334 1.381 . S
C332 C335 1.487 . S
C333 C330 1.382 . S
C333 C334 1.387 . S
C333 H356 0.930 . S
C334 C332 1.381 . S
C334 C333 1.387 . S
C334 H357 0.931 . S
C335 C328 1.399 . S
C335 C332 1.487 . S
C335 N367 1.343 1_565 S
C336 C337 1.384 . S
C336 C338 1.384 . S
C336 H358 0.931 . S
C337 C336 1.384 . S
C337 C340 1.382 . S
C338 C336 1.384 . S
C338 C339 1.381 . S
C338 H359 0.930 . S
C339 C338 1.381 . S
C339 C341 1.381 . S
C339 C342 1.487 . S
C340 C337 1.382 . S
C340 C341 1.387 . S
C340 H360 0.930 . S
C341 C339 1.381 . S
C341 C340 1.387 . S
C341 H361 0.931 1_655 S
C342 C339 1.487 . S
C342 C349 1.399 . S
C342 N367 1.343 1_655 S
C343 C344 1.384 . S
C343 C345 1.384 . S
C343 H362 0.931 . S
C344 C343 1.384 . S
C344 C347 1.382 . S
C345 C343 1.384 . S
C345 C346 1.381 . S
C345 H363 0.930 . S
C346 C345 1.381 . S
C346 C348 1.381 . S
C346 C349 1.487 . S
C347 C344 1.382 . S
C347 C348 1.387 . S
C347 H364 0.930 . S
C348 C346 1.381 . S
C348 C347 1.387 . S
C348 H365 0.931 . S
C349 C342 1.399 . S
C349 C346 1.487 . S
C349 N366 1.343 . S
H350 C322 0.931 . S
H351 C324 0.930 . S
H352 C326 0.930 . S
H353 C327 0.931 1_655 S
H354 C329 0.931 . S
H355 C331 0.930 . S
H356 C333 0.930 . S
H357 C334 0.931 . S
H358 C336 0.931 . S
H359 C338 0.930 . S
H360 C340 0.930 . S
H361 C341 0.931 1_455 S
H362 C343 0.931 . S
H363 C345 0.930 . S
H364 C347 0.930 . S
H365 C348 0.931 . S
N366 C328 1.343 1_645 S
N366 C349 1.343 . S
N367 C335 1.343 1_545 S
N367 C342 1.343 1_455 S
Mn368 O373 2.095 1_554 S
Mn368 O383 2.162 . S
Mn368 O384 2.297 . S
Mn368 O392 2.385 . S
Mn368 O393 2.209 . S
Mn368 O394 2.094 1_554 S
Mn369 O374 2.121 . S
Mn369 N376 2.257 1_556 S
Mn369 N385 2.282 1_556 S
Mn369 O393 2.215 1_556 S
Mn369 O395 2.117 . S
C370 O392 1.234 . S
C370 O393 1.283 . S
C371 O383 1.281 . S
C371 O384 1.236 . S
C372 O394 1.240 . S
C372 O395 1.264 . S
O373 Mn368 2.095 1_556 S
O373 C382 1.250 . S
O374 Mn369 2.121 . S
O374 C382 1.258 . S
C375 N376 1.326 1_556 S
C375 C379 1.460 1_556 S
C375 H381 0.929 . S
N376 Mn369 2.257 1_554 S
N376 C375 1.326 1_554 S
N376 C380 1.362 . S
C377 C378 1.258 . S
C377 C380 1.431 . S
C377 C397 1.449 . S
C378 C377 1.258 . S
C378 C379 1.477 . S
C378 H398 0.931 . S
C379 C375 1.460 1_554 S
C379 C378 1.477 . S
C379 H399 0.930 1_554 S
C380 N376 1.362 . S
C380 C377 1.431 . S
C380 C390 1.476 . S
H381 C375 0.929 . S
C382 O373 1.250 . S
C382 O374 1.258 . S
O383 Mn368 2.162 . S
O383 C371 1.281 . S
O384 Mn368 2.297 . S
O384 C371 1.236 . S
N385 Mn369 2.282 1_554 S
N385 C386 1.328 . S
N385 C390 1.318 . S
C386 N385 1.328 . S
C386 C387 1.457 . S
C386 H391 0.929 . S
C387 C386 1.457 . S
C387 C388 1.291 . S
C387 H400 0.931 . S
C388 C387 1.291 . S
C388 C389 1.373 . S
C388 H401 0.929 . S
C389 C388 1.373 . S
C389 C390 1.396 . S
C389 C396 1.403 . S
C390 C380 1.476 . S
C390 N385 1.318 . S
C390 C389 1.396 . S
H391 C386 0.929 . S
O392 Mn368 2.385 . S
O392 C370 1.234 . S
O393 Mn368 2.209 . S
O393 Mn369 2.215 1_554 S
O393 C370 1.283 . S
O394 Mn368 2.094 1_556 S
O394 C372 1.240 . S
O395 Mn369 2.117 . S
O395 C372 1.264 . S
C396 C389 1.403 . S
C396 C397 1.399 . S
C396 H402 0.929 . S
C397 C377 1.449 . S
C397 C396 1.399 . S
C397 H403 0.930 . S
H398 C378 0.931 . S
H399 C379 0.930 1_556 S
H400 C387 0.931 . S
H401 C388 0.929 . S
H402 C396 0.929 . S
H403 C397 0.930 . S
Mn404 O409 2.095 . S
Mn404 O419 2.162 . S
Mn404 O420 2.297 . S
Mn404 O428 2.385 . S
Mn404 O429 2.209 . S
Mn404 O430 2.094 . S
Mn405 O410 2.121 . S
Mn405 N412 2.257 . S
Mn405 N421 2.282 . S
Mn405 O429 2.215 . S
Mn405 O431 2.117 . S
C406 O428 1.234 . S
C406 O429 1.283 . S
C407 O419 1.281 . S
C407 O420 1.236 . S
C408 O430 1.240 . S
C408 O431 1.264 . S
O409 Mn404 2.095 . S
O409 C418 1.250 . S
O410 Mn405 2.121 . S
O410 C418 1.258 . S
C411 N412 1.326 . S
C411 C415 1.460 . S
C411 H417 0.929 . S
N412 Mn405 2.257 . S
N412 C411 1.326 . S
N412 C416 1.362 . S
C413 C414 1.258 . S
C413 C416 1.431 . S
C413 C433 1.449 . S
C414 C413 1.258 . S
C414 C415 1.477 . S
C414 H434 0.931 . S
C415 C411 1.460 . S
C415 C414 1.477 . S
C415 H435 0.930 . S
C416 N412 1.362 . S
C416 C413 1.431 . S
C416 C426 1.476 . S
H417 C411 0.929 . S
C418 O409 1.250 . S
C418 O410 1.258 . S
O419 Mn404 2.162 . S
O419 C407 1.281 . S
O420 Mn404 2.297 . S
O420 C407 1.236 . S
N421 Mn405 2.282 . S
N421 C422 1.328 . S
N421 C426 1.318 . S
C422 N421 1.328 . S
C422 C423 1.457 . S
C422 H427 0.929 . S
C423 C422 1.457 . S
C423 C424 1.291 . S
C423 H436 0.931 . S
C424 C423 1.291 . S
C424 C425 1.373 . S
C424 H437 0.929 . S
C425 C424 1.373 . S
C425 C426 1.396 . S
C425 C432 1.403 . S
C426 C416 1.476 . S
C426 N421 1.318 . S
C426 C425 1.396 . S
H427 C422 0.929 . S
O428 Mn404 2.385 . S
O428 C406 1.234 . S
O429 Mn404 2.209 . S
O429 Mn405 2.215 . S
O429 C406 1.283 . S
O430 Mn404 2.094 . S
O430 C408 1.240 . S
O431 Mn405 2.117 . S
O431 C408 1.264 . S
C432 C425 1.403 . S
C432 C433 1.399 . S
C432 H438 0.929 . S
C433 C413 1.449 . S
C433 C432 1.399 . S
C433 H439 0.930 . S
H434 C414 0.931 . S
H435 C415 0.930 . S
H436 C423 0.931 . S
H437 C424 0.929 . S
H438 C432 0.929 . S
H439 C433 0.930 . S
Mn440 O445 2.095 . S
Mn440 O455 2.162 . S
Mn440 O456 2.297 . S
Mn440 O464 2.385 . S
Mn440 O465 2.209 . S
Mn440 O466 2.094 . S
Mn441 O446 2.121 . S
Mn441 N448 2.257 . S
Mn441 N457 2.282 . S
Mn441 O465 2.215 . S
Mn441 O467 2.117 . S
C442 O464 1.234 . S
C442 O465 1.283 . S
C443 O455 1.281 . S
C443 O456 1.236 . S
C444 O466 1.240 . S
C444 O467 1.264 . S
O445 Mn440 2.095 . S
O445 C454 1.250 . S
O446 Mn441 2.121 . S
O446 C454 1.258 . S
C447 N448 1.326 . S
C447 C451 1.460 . S
C447 H453 0.929 . S
N448 Mn441 2.257 . S
N448 C447 1.326 . S
N448 C452 1.362 . S
C449 C450 1.258 . S
C449 C452 1.431 . S
C449 C469 1.449 1_455 S
C450 C449 1.258 . S
C450 C451 1.477 . S
C450 H470 0.931 1_455 S
C451 C447 1.460 . S
C451 C450 1.477 . S
C451 H471 0.930 . S
C452 N448 1.362 . S
C452 C449 1.431 . S
C452 C462 1.476 . S
H453 C447 0.929 . S
C454 O445 1.250 . S
C454 O446 1.258 . S
O455 Mn440 2.162 . S
O455 C443 1.281 . S
O456 Mn440 2.297 . S
O456 C443 1.236 . S
N457 Mn441 2.282 . S
N457 C458 1.328 . S
N457 C462 1.318 . S
C458 N457 1.328 . S
C458 C459 1.457 . S
C458 H463 0.929 . S
C459 C458 1.457 . S
C459 C460 1.291 . S
C459 H472 0.931 . S
C460 C459 1.291 . S
C460 C461 1.373 . S
C460 H473 0.929 . S
C461 C460 1.373 . S
C461 C462 1.396 . S
C461 C468 1.403 1_455 S
C462 C452 1.476 . S
C462 N457 1.318 . S
C462 C461 1.396 . S
H463 C458 0.929 . S
O464 Mn440 2.385 . S
O464 C442 1.234 . S
O465 Mn440 2.209 . S
O465 Mn441 2.215 . S
O465 C442 1.283 . S
O466 Mn440 2.094 . S
O466 C444 1.240 . S
O467 Mn441 2.117 . S
O467 C444 1.264 . S
C468 C461 1.403 1_655 S
C468 C469 1.399 . S
C468 H474 0.929 . S
C469 C449 1.449 1_655 S
C469 C468 1.399 . S
C469 H475 0.930 . S
H470 C450 0.931 1_655 S
H471 C451 0.930 . S
H472 C459 0.931 . S
H473 C460 0.929 . S
H474 C468 0.929 . S
H475 C469 0.930 . S
Mn476 O481 2.095 . S
Mn476 O491 2.162 . S
Mn476 O492 2.297 . S
Mn476 O500 2.385 . S
Mn476 O501 2.209 . S
Mn476 O502 2.094 . S
Mn477 O482 2.121 . S
Mn477 N484 2.257 . S
Mn477 N493 2.282 . S
Mn477 O501 2.215 . S
Mn477 O503 2.117 . S
C478 O500 1.234 . S
C478 O501 1.283 . S
C479 O491 1.281 . S
C479 O492 1.236 . S
C480 O502 1.240 . S
C480 O503 1.264 . S
O481 Mn476 2.095 . S
O481 C490 1.250 . S
O482 Mn477 2.121 . S
O482 C490 1.258 . S
C483 N484 1.326 . S
C483 C487 1.460 . S
C483 H489 0.929 . S
N484 Mn477 2.257 . S
N484 C483 1.326 . S
N484 C488 1.362 . S
C485 C486 1.258 . S
C485 C488 1.431 . S
C485 C505 1.449 . S
C486 C485 1.258 . S
C486 C487 1.477 . S
C486 H506 0.931 . S
C487 C483 1.460 . S
C487 C486 1.477 . S
C487 H507 0.930 . S
C488 N484 1.362 . S
C488 C485 1.431 . S
C488 C498 1.476 . S
H489 C483 0.929 . S
C490 O481 1.250 . S
C490 O482 1.258 . S
O491 Mn476 2.162 . S
O491 C479 1.281 . S
O492 Mn476 2.297 . S
O492 C479 1.236 . S
N493 Mn477 2.282 . S
N493 C494 1.328 . S
N493 C498 1.318 . S
C494 N493 1.328 . S
C494 C495 1.457 . S
C494 H499 0.929 . S
C495 C494 1.457 . S
C495 C496 1.291 . S
C495 H508 0.931 . S
C496 C495 1.291 . S
C496 C497 1.373 . S
C496 H509 0.929 . S
C497 C496 1.373 . S
C497 C498 1.396 . S
C497 C504 1.403 . S
C498 C488 1.476 . S
C498 N493 1.318 . S
C498 C497 1.396 . S
H499 C494 0.929 . S
O500 Mn476 2.385 . S
O500 C478 1.234 . S
O501 Mn476 2.209 . S
O501 Mn477 2.215 . S
O501 C478 1.283 . S
O502 Mn476 2.094 . S
O502 C480 1.240 . S
O503 Mn477 2.117 . S
O503 C480 1.264 . S
C504 C497 1.403 . S
C504 C505 1.399 . S
C504 H510 0.929 . S
C505 C485 1.449 . S
C505 C504 1.399 . S
C505 H511 0.930 . S
H506 C486 0.931 . S
H507 C487 0.930 . S
H508 C495 0.931 . S
H509 C496 0.929 . S
H510 C504 0.929 . S
H511 C505 0.930 . S
Mn512 O517 2.095 . S
Mn512 O527 2.162 . S
Mn512 O528 2.297 . S
Mn512 O536 2.385 . S
Mn512 O537 2.209 . S
Mn512 O538 2.094 . S
Mn513 O518 2.121 . S
Mn513 N520 2.257 . S
Mn513 N529 2.282 . S
Mn513 O537 2.215 . S
Mn513 O539 2.117 . S
C514 O536 1.234 . S
C514 O537 1.283 . S
C515 O527 1.281 . S
C515 O528 1.236 . S
C516 O538 1.240 . S
C516 O539 1.264 . S
O517 Mn512 2.095 . S
O517 C526 1.250 . S
O518 Mn513 2.121 . S
O518 C526 1.258 . S
C519 N520 1.326 . S
C519 C523 1.460 . S
C519 H525 0.929 . S
N520 Mn513 2.257 . S
N520 C519 1.326 . S
N520 C524 1.362 . S
C521 C522 1.258 . S
C521 C524 1.431 . S
C521 C541 1.449 1_545 S
C522 C521 1.258 . S
C522 C523 1.477 . S
C522 H542 0.931 1_545 S
C523 C519 1.460 . S
C523 C522 1.477 . S
C523 H543 0.930 . S
C524 N520 1.362 . S
C524 C521 1.431 . S
C524 C534 1.476 . S
H525 C519 0.929 . S
C526 O517 1.250 . S
C526 O518 1.258 . S
O527 Mn512 2.162 . S
O527 C515 1.281 . S
O528 Mn512 2.297 . S
O528 C515 1.236 . S
N529 Mn513 2.282 . S
N529 C530 1.328 . S
N529 C534 1.318 . S
C530 N529 1.328 . S
C530 C531 1.457 . S
C530 H535 0.929 . S
C531 C530 1.457 . S
C531 C532 1.291 . S
C531 H544 0.931 . S
C532 C531 1.291 . S
C532 C533 1.373 . S
C532 H545 0.929 . S
C533 C532 1.373 . S
C533 C534 1.396 . S
C533 C540 1.403 . S
C534 C524 1.476 . S
C534 N529 1.318 . S
C534 C533 1.396 . S
H535 C530 0.929 . S
O536 Mn512 2.385 . S
O536 C514 1.234 . S
O537 Mn512 2.209 . S
O537 Mn513 2.215 . S
O537 C514 1.283 . S
O538 Mn512 2.094 . S
O538 C516 1.240 . S
O539 Mn513 2.117 . S
O539 C516 1.264 . S
C540 C533 1.403 . S
C540 C541 1.399 1_545 S
C540 H546 0.929 1_545 S
C541 C521 1.449 1_565 S
C541 C540 1.399 1_565 S
C541 H547 0.930 . S
H542 C522 0.931 1_565 S
H543 C523 0.930 . S
H544 C531 0.931 . S
H545 C532 0.929 . S
H546 C540 0.929 1_565 S
H547 C541 0.930 . S
Mn548 O553 2.095 . S
Mn548 O563 2.162 . S
Mn548 O564 2.297 . S
Mn548 O572 2.385 . S
Mn548 O573 2.209 . S
Mn548 O574 2.094 . S
Mn549 O554 2.121 . S
Mn549 N556 2.257 . S
Mn549 N565 2.282 . S
Mn549 O573 2.215 . S
Mn549 O575 2.117 . S
C550 O572 1.234 . S
C550 O573 1.283 . S
C551 O563 1.281 . S
C551 O564 1.236 . S
C552 O574 1.240 . S
C552 O575 1.264 . S
O553 Mn548 2.095 . S
O553 C562 1.250 . S
O554 Mn549 2.121 . S
O554 C562 1.258 . S
C555 N556 1.326 . S
C555 C559 1.460 . S
C555 H561 0.929 . S
N556 Mn549 2.257 . S
N556 C555 1.326 . S
N556 C560 1.362 . S
C557 C558 1.258 . S
C557 C560 1.431 . S
C557 C577 1.449 1_655 S
C558 C557 1.258 . S
C558 C559 1.477 . S
C558 H578 0.931 1_655 S
C559 C555 1.460 . S
C559 C558 1.477 . S
C559 H579 0.930 . S
C560 N556 1.362 . S
C560 C557 1.431 . S
C560 C570 1.476 . S
H561 C555 0.929 . S
C562 O553 1.250 . S
C562 O554 1.258 . S
O563 Mn548 2.162 . S
O563 C551 1.281 . S
O564 Mn548 2.297 . S
O564 C551 1.236 . S
N565 Mn549 2.282 . S
N565 C566 1.328 . S
N565 C570 1.318 . S
C566 N565 1.328 . S
C566 C567 1.457 . S
C566 H571 0.929 . S
C567 C566 1.457 . S
C567 C568 1.291 . S
C567 H580 0.931 . S
C568 C567 1.291 . S
C568 C569 1.373 . S
C568 H581 0.929 . S
C569 C568 1.373 . S
C569 C570 1.396 . S
C569 C576 1.403 1_655 S
C570 C560 1.476 . S
C570 N565 1.318 . S
C570 C569 1.396 . S
H571 C566 0.929 . S
O572 Mn548 2.385 . S
O572 C550 1.234 . S
O573 Mn548 2.209 . S
O573 Mn549 2.215 . S
O573 C550 1.283 . S
O574 Mn548 2.094 . S
O574 C552 1.240 . S
O575 Mn549 2.117 . S
O575 C552 1.264 . S
C576 C569 1.403 1_455 S
C576 C577 1.399 . S
C576 H582 0.929 . S
C577 C557 1.449 1_455 S
C577 C576 1.399 . S
C577 H583 0.930 . S
H578 C558 0.931 1_455 S
H579 C559 0.930 . S
H580 C567 0.931 . S
H581 C568 0.929 . S
H582 C576 0.929 . S
H583 C577 0.930 . S
Mn584 O589 2.095 . S
Mn584 O599 2.162 . S
Mn584 O600 2.297 1_554 S
Mn584 O608 2.385 1_554 S
Mn584 O609 2.209 1_554 S
Mn584 O610 2.094 . S
Mn585 O590 2.121 . S
Mn585 N592 2.245 1_554 S
Mn585 N601 2.282 1_554 S
Mn585 O609 2.215 1_554 S
Mn585 O611 2.117 . S
C586 O608 1.234 . S
C586 O609 1.283 . S
C587 O599 1.281 1_556 S
C587 O600 1.236 . S
C588 O610 1.240 . S
C588 O611 1.264 . S
O589 Mn584 2.095 . S
O589 C598 1.250 . S
O590 Mn585 2.121 . S
O590 C598 1.258 . S
C591 N592 1.306 1_554 S
C591 C595 1.460 . S
C591 H597 0.929 . S
N592 Mn585 2.245 1_556 S
N592 C591 1.306 1_556 S
N592 C596 1.396 . S
C593 C594 1.258 . S
C593 C596 1.431 . S
C593 C613 1.449 . S
C594 C593 1.258 . S
C594 C595 1.477 1_556 S
C594 H614 0.931 . S
C595 C591 1.460 . S
C595 C594 1.477 1_554 S
C595 H615 0.930 . S
C596 N592 1.396 . S
C596 C593 1.431 . S
C596 C606 1.476 . S
H597 C591 0.929 . S
C598 O589 1.250 . S
C598 O590 1.258 . S
O599 Mn584 2.162 . S
O599 C587 1.281 1_554 S
O600 Mn584 2.297 1_556 S
O600 C587 1.236 . S
N601 Mn585 2.282 1_556 S
N601 C602 1.328 . S
N601 C606 1.318 . S
C602 N601 1.328 . S
C602 C603 1.457 . S
C602 H607 0.929 . S
C603 C602 1.457 . S
C603 C604 1.291 . S
C603 H616 0.931 . S
C604 C603 1.291 . S
C604 C605 1.373 . S
C604 H617 0.929 . S
C605 C604 1.373 . S
C605 C606 1.396 . S
C605 C612 1.403 . S
C606 C596 1.476 . S
C606 N601 1.318 . S
C606 C605 1.396 . S
H607 C602 0.929 . S
O608 Mn584 2.385 1_556 S
O608 C586 1.234 . S
O609 Mn584 2.209 1_556 S
O609 Mn585 2.215 1_556 S
O609 C586 1.283 . S
O610 Mn584 2.094 . S
O610 C588 1.240 . S
O611 Mn585 2.117 . S
O611 C588 1.264 . S
C612 C605 1.403 . S
C612 C613 1.399 . S
C612 H618 0.929 . S
C613 C593 1.449 . S
C613 C612 1.399 . S
C613 H619 0.930 . S
H614 C594 0.931 . S
H615 C595 0.930 . S
H616 C603 0.931 . S
H617 C604 0.929 . S
H618 C612 0.929 . S
H619 C613 0.930 . S
Mn620 O625 2.095 . S
Mn620 O635 2.162 . S
Mn620 O636 2.297 . S
Mn620 O644 2.385 . S
Mn620 O645 2.209 . S
Mn620 O646 2.094 . S
Mn621 O626 2.121 . S
Mn621 N628 2.257 . S
Mn621 N637 2.282 . S
Mn621 O645 2.215 . S
Mn621 O647 2.117 . S
C622 O644 1.234 . S
C622 O645 1.283 . S
C623 O635 1.281 . S
C623 O636 1.236 . S
C624 O646 1.240 . S
C624 O647 1.264 . S
O625 Mn620 2.095 . S
O625 C634 1.250 . S
O626 Mn621 2.121 . S
O626 C634 1.258 . S
C627 N628 1.326 . S
C627 C631 1.460 . S
C627 H633 0.929 . S
N628 Mn621 2.257 . S
N628 C627 1.326 . S
N628 C632 1.362 . S
C629 C630 1.258 . S
C629 C632 1.431 . S
C629 C649 1.448 . S
C630 C629 1.258 . S
C630 C631 1.477 . S
C630 H650 0.931 1_545 S
C631 C627 1.460 . S
C631 C630 1.477 . S
C631 H651 0.930 . S
C632 N628 1.362 . S
C632 C629 1.431 . S
C632 C642 1.476 . S
H633 C627 0.929 . S
C634 O625 1.250 . S
C634 O626 1.258 . S
O635 Mn620 2.162 . S
O635 C623 1.281 . S
O636 Mn620 2.297 . S
O636 C623 1.236 . S
N637 Mn621 2.282 . S
N637 C638 1.328 . S
N637 C642 1.318 . S
C638 N637 1.328 . S
C638 C639 1.457 . S
C638 H643 0.929 . S
C639 C638 1.457 . S
C639 C640 1.291 . S
C639 H652 0.931 . S
C640 C639 1.291 . S
C640 C641 1.373 . S
C640 H653 0.929 . S
C641 C640 1.373 . S
C641 C642 1.396 . S
C641 C648 1.403 . S
C642 C632 1.476 . S
C642 N637 1.318 . S
C642 C641 1.396 . S
H643 C638 0.929 . S
O644 Mn620 2.385 . S
O644 C622 1.234 . S
O645 Mn620 2.209 . S
O645 Mn621 2.215 . S
O645 C622 1.283 . S
O646 Mn620 2.094 . S
O646 C624 1.240 . S
O647 Mn621 2.117 . S
O647 C624 1.264 . S
C648 C641 1.403 . S
C648 C649 1.399 . S
C648 H654 0.929 1_545 S
C649 C629 1.448 . S
C649 C648 1.399 . S
C649 H655 0.930 1_545 S
H650 C630 0.931 1_565 S
H651 C631 0.930 . S
H652 C639 0.931 . S
H653 C640 0.929 . S
H654 C648 0.929 1_565 S
H655 C649 0.930 1_565 S
C656 C657 1.363 . S
C656 C662 1.379 . S
C656 N664 1.356 . S
C657 C656 1.363 . S
C657 C663 1.363 . S
C658 C659 1.363 . S
C658 C663 1.379 . S
C658 N665 1.356 . S
C659 C658 1.363 . S
C659 C662 1.363 . S
N660 C662 1.356 . S
N660 H672 0.984 . S
N660 H673 0.985 . S
N661 C663 1.356 . S
N661 H666 0.984 . S
N661 H667 0.985 . S
C662 C656 1.379 . S
C662 C659 1.363 . S
C662 N660 1.356 . S
C663 C657 1.363 . S
C663 C658 1.379 . S
C663 N661 1.356 . S
N664 C656 1.356 . S
N664 H670 0.984 . S
N664 H671 0.984 . S
N665 C658 1.356 . S
N665 H668 0.984 . S
N665 H669 0.985 . S
H666 N661 0.984 . S
H667 N661 0.985 . S
H668 N665 0.984 . S
H669 N665 0.985 . S
H670 N664 0.984 . S
H671 N664 0.984 . S
H672 N660 0.984 . S
H673 N660 0.985 . S
C674 C675 1.363 . S
C674 C680 1.379 . S
C674 N682 1.356 . S
C675 C674 1.363 . S
C675 C681 1.363 . S
C676 C677 1.363 . S
C676 C681 1.379 . S
C676 N683 1.356 . S
C677 C676 1.363 . S
C677 C680 1.363 . S
N678 C680 1.356 . S
N678 H690 0.984 . S
N678 H691 0.985 . S
N679 C681 1.356 . S
N679 H684 0.984 . S
N679 H685 0.985 . S
C680 C674 1.379 . S
C680 C677 1.363 . S
C680 N678 1.356 . S
C681 C675 1.363 . S
C681 C676 1.379 . S
C681 N679 1.356 . S
N682 C674 1.356 . S
N682 H688 0.984 . S
N682 H689 0.984 . S
N683 C676 1.356 . S
N683 H686 0.984 . S
N683 H687 0.985 . S
H684 N679 0.984 . S
H685 N679 0.985 . S
H686 N683 0.984 . S
H687 N683 0.985 . S
H688 N682 0.984 . S
H689 N682 0.984 . S
H690 N678 0.984 . S
H691 N678 0.985 . S
C692 C693 1.363 . S
C692 C698 1.379 . S
C692 N700 1.356 . S
C693 C692 1.363 . S
C693 C699 1.363 . S
C694 C695 1.363 . S
C694 C699 1.379 . S
C694 N701 1.356 . S
C695 C694 1.363 . S
C695 C698 1.363 . S
N696 C698 1.356 . S
N696 H708 0.984 . S
N696 H709 0.985 . S
N697 C699 1.356 . S
N697 H702 0.984 . S
N697 H703 0.985 . S
C698 C692 1.379 . S
C698 C695 1.363 . S
C698 N696 1.356 . S
C699 C693 1.363 . S
C699 C694 1.379 . S
C699 N697 1.356 . S
N700 C692 1.356 . S
N700 H706 0.984 . S
N700 H707 0.984 . S
N701 C694 1.356 . S
N701 H704 0.984 . S
N701 H705 0.985 . S
H702 N697 0.984 . S
H703 N697 0.985 . S
H704 N701 0.984 . S
H705 N701 0.985 . S
H706 N700 0.984 . S
H707 N700 0.984 . S
H708 N696 0.984 . S
H709 N696 0.985 . S
C710 C711 1.363 . S
C710 C716 1.379 . S
C710 N718 1.356 . S
C711 C710 1.363 . S
C711 C717 1.363 . S
C712 C713 1.363 . S
C712 C717 1.379 . S
C712 N719 1.356 . S
C713 C712 1.363 . S
C713 C716 1.363 . S
N714 C716 1.356 1_556 S
N714 H726 0.984 . S
N714 H727 0.985 . S
N715 C717 1.356 . S
N715 H720 0.984 . S
N715 H721 0.985 . S
C716 C710 1.379 . S
C716 C713 1.363 . S
C716 N714 1.356 1_554 S
C717 C711 1.363 . S
C717 C712 1.379 . S
C717 N715 1.356 . S
N718 C710 1.356 . S
N718 H724 0.984 1_554 S
N718 H725 0.984 . S
N719 C712 1.356 . S
N719 H722 0.984 . S
N719 H723 0.985 . S
H720 N715 0.984 . S
H721 N715 0.985 . S
H722 N719 0.984 . S
H723 N719 0.985 . S
H724 N718 0.984 1_556 S
H725 N718 0.984 . S
H726 N714 0.984 . S
H727 N714 0.985 . S
C728 C729 1.363 . S
C728 C734 1.379 . S
C728 N736 1.356 . S
C729 C728 1.363 . S
C729 C735 1.363 . S
C730 C731 1.363 . S
C730 C735 1.379 . S
C730 N737 1.356 1_556 S
C731 C730 1.363 . S
C731 C734 1.363 . S
N732 C734 1.356 . S
N732 H744 0.984 . S
N732 H745 0.985 . S
N733 C735 1.356 . S
N733 H738 0.984 . S
N733 H739 0.985 1_556 S
C734 C728 1.379 . S
C734 C731 1.363 . S
C734 N732 1.356 . S
C735 C729 1.363 . S
C735 C730 1.379 . S
C735 N733 1.356 . S
N736 C728 1.356 . S
N736 H742 0.984 . S
N736 H743 0.984 . S
N737 C730 1.356 1_554 S
N737 H740 0.984 . S
N737 H741 0.985 . S
H738 N733 0.984 . S
H739 N733 0.985 1_554 S
H740 N737 0.984 . S
H741 N737 0.985 . S
H742 N736 0.984 . S
H743 N736 0.984 . S
H744 N732 0.984 . S
H745 N732 0.985 . S
C746 C747 1.363 . S
C746 C752 1.379 . S
C746 N754 1.356 . S
C747 C746 1.363 . S
C747 C753 1.363 . S
C748 C749 1.363 . S
C748 C753 1.379 . S
C748 N755 1.356 . S
C749 C748 1.363 . S
C749 C752 1.363 . S
N750 C752 1.356 . S
N750 H762 0.984 . S
N750 H763 0.985 . S
N751 C753 1.356 . S
N751 H756 0.984 . S
N751 H757 0.985 . S
C752 C746 1.379 . S
C752 C749 1.363 . S
C752 N750 1.356 . S
C753 C747 1.363 . S
C753 C748 1.379 . S
C753 N751 1.356 . S
N754 C746 1.356 . S
N754 H760 0.984 . S
N754 H761 0.984 . S
N755 C748 1.356 . S
N755 H758 0.984 . S
N755 H759 0.985 . S
H756 N751 0.984 . S
H757 N751 0.985 . S
H758 N755 0.984 . S
H759 N755 0.985 . S
H760 N754 0.984 . S
H761 N754 0.984 . S
H762 N750 0.984 . S
H763 N750 0.985 . S
C764 C765 1.363 . S
C764 C770 1.379 . S
C764 N772 1.356 . S
C765 C764 1.363 . S
C765 C771 1.363 . S
C766 C767 1.363 . S
C766 C771 1.379 . S
C766 N773 1.356 . S
C767 C766 1.363 . S
C767 C770 1.363 . S
N768 C770 1.356 . S
N768 H780 0.984 . S
N768 H781 0.985 . S
N769 C771 1.356 . S
N769 H774 0.984 . S
N769 H775 0.985 . S
C770 C764 1.379 . S
C770 C767 1.363 . S
C770 N768 1.356 . S
C771 C765 1.363 . S
C771 C766 1.379 . S
C771 N769 1.356 . S
N772 C764 1.356 . S
N772 H778 0.984 . S
N772 H779 0.984 . S
N773 C766 1.356 . S
N773 H776 0.984 . S
N773 H777 0.985 . S
H774 N769 0.984 . S
H775 N769 0.985 . S
H776 N773 0.984 . S
H777 N773 0.985 . S
H778 N772 0.984 . S
H779 N772 0.984 . S
H780 N768 0.984 . S
H781 N768 0.985 . S
C782 C783 1.363 . S
C782 C788 1.379 . S
C782 N790 1.356 . S
C783 C782 1.363 . S
C783 C789 1.363 . S
C784 C785 1.363 . S
C784 C789 1.379 . S
C784 N791 1.356 . S
C785 C784 1.363 . S
C785 C788 1.363 . S
N786 C788 1.356 . S
N786 H798 0.984 . S
N786 H799 0.985 . S
N787 C789 1.356 . S
N787 H792 0.984 . S
N787 H793 0.985 . S
C788 C782 1.379 . S
C788 C785 1.363 . S
C788 N786 1.356 . S
C789 C783 1.363 . S
C789 C784 1.379 . S
C789 N787 1.356 . S
N790 C782 1.356 . S
N790 H796 0.984 . S
N790 H797 0.984 . S
N791 C784 1.356 . S
N791 H794 0.984 . S
N791 H795 0.985 . S
H792 N787 0.984 . S
H793 N787 0.985 . S
H794 N791 0.984 . S
H795 N791 0.985 . S
H796 N790 0.984 . S
H797 N790 0.984 . S
H798 N786 0.984 . S
H799 N786 0.985 . S
C800 C801 1.363 . S
C800 C806 1.379 . S
C800 N808 1.356 . S
C801 C800 1.363 . S
C801 C807 1.363 . S
C802 C803 1.363 . S
C802 C807 1.379 . S
C802 N809 1.356 . S
C803 C802 1.363 . S
C803 C806 1.363 . S
N804 C806 1.356 . S
N804 H816 0.984 . S
N804 H817 0.985 . S
N805 C807 1.356 . S
N805 H810 0.984 . S
N805 H811 0.985 . S
C806 C800 1.379 . S
C806 C803 1.363 . S
C806 N804 1.356 . S
C807 C801 1.363 . S
C807 C802 1.379 . S
C807 N805 1.356 . S
N808 C800 1.356 . S
N808 H814 0.984 . S
N808 H815 0.984 . S
N809 C802 1.356 . S
N809 H812 0.984 . S
N809 H813 0.985 . S
H810 N805 0.984 . S
H811 N805 0.985 . S
H812 N809 0.984 . S
H813 N809 0.985 . S
H814 N808 0.984 . S
H815 N808 0.984 . S
H816 N804 0.984 . S
H817 N804 0.985 . S
C818 C819 1.363 . S
C818 C824 1.379 . S
C818 N826 1.356 1_554 S
C819 C818 1.363 . S
C819 C825 1.363 . S
C820 C821 1.363 . S
C820 C825 1.379 . S
C820 N827 1.356 . S
C821 C820 1.363 . S
C821 C824 1.363 . S
N822 C824 1.356 1_556 S
N822 H834 0.984 . S
N822 H835 0.985 . S
N823 C825 1.356 . S
N823 H828 0.984 . S
N823 H829 0.985 . S
C824 C818 1.379 . S
C824 C821 1.363 . S
C824 N822 1.356 1_554 S
C825 C819 1.363 . S
C825 C820 1.379 . S
C825 N823 1.356 . S
N826 C818 1.356 1_556 S
N826 H832 0.984 . S
N826 H833 0.984 1_556 S
N827 C820 1.356 . S
N827 H830 0.984 . S
N827 H831 0.985 . S
H828 N823 0.984 . S
H829 N823 0.985 . S
H830 N827 0.984 . S
H831 N827 0.985 . S
H832 N826 0.984 . S
H833 N826 0.984 1_554 S
H834 N822 0.984 . S
H835 N822 0.985 . S
C836 C837 1.363 . S
C836 C842 1.379 . S
C836 N844 1.356 . S
C837 C836 1.363 . S
C837 C843 1.363 . S
C838 C839 1.363 . S
C838 C843 1.379 . S
C838 N845 1.356 . S
C839 C838 1.363 . S
C839 C842 1.363 . S
N840 C842 1.356 . S
N840 H852 0.984 . S
N840 H853 0.985 . S
N841 C843 1.356 . S
N841 H846 0.984 . S
N841 H847 0.985 . S
C842 C836 1.379 . S
C842 C839 1.363 . S
C842 N840 1.356 . S
C843 C837 1.363 . S
C843 C838 1.379 . S
C843 N841 1.356 . S
N844 C836 1.356 . S
N844 H850 0.984 . S
N844 H851 0.984 . S
N845 C838 1.356 . S
N845 H848 0.984 . S
N845 H849 0.985 . S
H846 N841 0.984 . S
H847 N841 0.985 . S
H848 N845 0.984 . S
H849 N845 0.985 . S
H850 N844 0.984 . S
H851 N844 0.984 . S
H852 N840 0.984 . S
H853 N840 0.985 . S
C854 C855 1.363 . S
C854 C860 1.379 . S
C854 N862 1.356 . S
C855 C854 1.363 . S
C855 C861 1.363 . S
C856 C857 1.363 . S
C856 C861 1.379 . S
C856 N863 1.356 . S
C857 C856 1.363 . S
C857 C860 1.363 . S
N858 C860 1.356 . S
N858 H870 0.984 . S
N858 H871 0.985 . S
N859 C861 1.356 . S
N859 H864 0.984 . S
N859 H865 0.985 . S
C860 C854 1.379 . S
C860 C857 1.363 . S
C860 N858 1.356 . S
C861 C855 1.363 . S
C861 C856 1.379 . S
C861 N859 1.356 . S
N862 C854 1.356 . S
N862 H868 0.984 . S
N862 H869 0.984 . S
N863 C856 1.356 . S
N863 H866 0.984 . S
N863 H867 0.985 . S
H864 N859 0.984 . S
H865 N859 0.985 . S
H866 N863 0.984 . S
H867 N863 0.985 . S
H868 N862 0.984 . S
H869 N862 0.984 . S
H870 N858 0.984 . S
H871 N858 0.985 . S
C872 C873 1.363 . S
C872 C878 1.379 . S
C872 N880 1.356 . S
C873 C872 1.363 . S
C873 C879 1.363 . S
C874 C875 1.363 . S
C874 C879 1.379 . S
C874 N881 1.356 . S
C875 C874 1.363 . S
C875 C878 1.363 . S
N876 C878 1.356 . S
N876 H888 0.984 . S
N876 H889 0.985 . S
N877 C879 1.356 . S
N877 H882 0.984 . S
N877 H883 0.985 . S
C878 C872 1.379 . S
C878 C875 1.363 . S
C878 N876 1.356 . S
C879 C873 1.363 . S
C879 C874 1.379 . S
C879 N877 1.356 . S
N880 C872 1.356 . S
N880 H886 0.984 . S
N880 H887 0.984 . S
N881 C874 1.356 . S
N881 H884 0.984 . S
N881 H885 0.985 . S
H882 N877 0.984 . S
H883 N877 0.985 . S
H884 N881 0.984 . S
H885 N881 0.985 . S
H886 N880 0.984 . S
H887 N880 0.984 . S
H888 N876 0.984 . S
H889 N876 0.985 . S
C890 C891 1.363 . S
C890 C896 1.379 . S
C890 N898 1.356 . S
C891 C890 1.363 . S
C891 C897 1.363 . S
C892 C893 1.363 . S
C892 C897 1.379 . S
C892 N899 1.356 . S
C893 C892 1.363 . S
C893 C896 1.363 . S
N894 C896 1.356 . S
N894 H906 0.984 . S
N894 H907 0.985 . S
N895 C897 1.356 . S
N895 H900 0.984 . S
N895 H901 0.985 . S
C896 C890 1.379 . S
C896 C893 1.363 . S
C896 N894 1.356 . S
C897 C891 1.363 . S
C897 C892 1.379 . S
C897 N895 1.356 . S
N898 C890 1.356 . S
N898 H904 0.984 . S
N898 H905 0.984 . S
N899 C892 1.356 . S
N899 H902 0.984 . S
N899 H903 0.985 . S
H900 N895 0.984 . S
H901 N895 0.985 . S
H902 N899 0.984 . S
H903 N899 0.985 . S
H904 N898 0.984 . S
H905 N898 0.984 . S
H906 N894 0.984 . S
H907 N894 0.985 . S
C908 C909 1.363 . S
C908 C914 1.379 . S
C908 N916 1.365 . S
C909 C908 1.363 . S
C909 C915 1.363 . S
C910 C911 1.363 . S
C910 C915 1.379 . S
C910 N917 1.356 . S
C911 C910 1.363 . S
C911 C914 1.363 . S
N912 C914 1.356 1_554 S
N912 H924 0.984 . S
N912 H925 0.985 . S
N913 C915 1.356 . S
N913 H918 0.984 . S
N913 H919 0.985 . S
C914 C908 1.379 . S
C914 C911 1.363 . S
C914 N912 1.356 1_556 S
C915 C909 1.363 . S
C915 C910 1.379 . S
C915 N913 1.356 . S
N916 C908 1.365 . S
N916 H922 0.965 1_556 S
N916 H923 0.998 . S
N917 C910 1.356 . S
N917 H920 0.984 . S
N917 H921 0.985 . S
H918 N913 0.984 . S
H919 N913 0.985 . S
H920 N917 0.984 . S
H921 N917 0.985 . S
H922 N916 0.965 1_554 S
H923 N916 0.998 . S
H924 N912 0.984 . S
H925 N912 0.985 . S
C926 C927 1.363 . S
C926 C932 1.379 . S
C926 N934 1.356 . S
C927 C926 1.363 . S
C927 C933 1.363 . S
C928 C929 1.363 . S
C928 C933 1.379 . S
C928 N935 1.356 . S
C929 C928 1.363 . S
C929 C932 1.363 . S
N930 C932 1.356 . S
N930 H942 0.984 . S
N930 H943 0.985 . S
N931 C933 1.356 . S
N931 H936 0.984 . S
N931 H937 0.985 . S
C932 C926 1.379 . S
C932 C929 1.363 . S
C932 N930 1.356 . S
C933 C927 1.363 . S
C933 C928 1.379 . S
C933 N931 1.356 . S
N934 C926 1.356 . S
N934 H940 0.984 . S
N934 H941 0.984 . S
N935 C928 1.356 . S
N935 H938 0.984 . S
N935 H939 0.985 . S
H936 N931 0.984 . S
H937 N931 0.985 . S
H938 N935 0.984 . S
H939 N935 0.985 . S
H940 N934 0.984 . S
H941 N934 0.984 . S
H942 N930 0.984 . S
H943 N930 0.985 . S
C944 C945 1.363 . S
C944 C950 1.379 . S
C944 N952 1.356 . S
C945 C944 1.363 . S
C945 C951 1.363 . S
C946 C947 1.363 . S
C946 C951 1.379 . S
C946 N953 1.356 . S
C947 C946 1.363 . S
C947 C950 1.363 . S
N948 C950 1.356 . S
N948 H960 0.984 . S
N948 H961 0.985 . S
N949 C951 1.356 . S
N949 H954 0.984 . S
N949 H955 0.985 . S
C950 C944 1.379 . S
C950 C947 1.363 . S
C950 N948 1.356 . S
C951 C945 1.363 . S
C951 C946 1.379 . S
C951 N949 1.356 . S
N952 C944 1.356 . S
N952 H958 0.984 . S
N952 H959 0.984 . S
N953 C946 1.356 . S
N953 H956 0.984 . S
N953 H957 0.985 . S
H954 N949 0.984 . S
H955 N949 0.985 . S
H956 N953 0.984 . S
H957 N953 0.985 . S
H958 N952 0.984 . S
H959 N952 0.984 . S
H960 N948 0.984 . S
H961 N948 0.985 . S
C962 C963 1.363 . S
C962 C968 1.379 . S
C962 N970 1.356 . S
C963 C962 1.363 . S
C963 C969 1.363 . S
C964 C965 1.363 . S
C964 C969 1.379 . S
C964 N971 1.356 . S
C965 C964 1.363 . S
C965 C968 1.363 . S
N966 C968 1.356 . S
N966 H978 0.984 . S
N966 H979 0.985 . S
N967 C969 1.356 . S
N967 H972 0.984 . S
N967 H973 0.985 . S
C968 C962 1.379 . S
C968 C965 1.363 . S
C968 N966 1.356 . S
C969 C963 1.363 . S
C969 C964 1.379 . S
C969 N967 1.356 . S
N970 C962 1.356 . S
N970 H976 0.984 . S
N970 H977 0.984 . S
N971 C964 1.356 . S
N971 H974 0.984 . S
N971 H975 0.985 . S
H972 N967 0.984 . S
H973 N967 0.985 . S
H974 N971 0.984 . S
H975 N971 0.985 . S
H976 N970 0.984 . S
H977 N970 0.984 . S
H978 N966 0.984 . S
H979 N966 0.985 . S
C980 C981 1.363 . S
C980 C986 1.379 . S
C980 N988 1.356 . S
C981 C980 1.363 . S
C981 C987 1.363 . S
C982 C983 1.363 . S
C982 C987 1.379 . S
C982 N989 1.356 . S
C983 C982 1.363 . S
C983 C986 1.363 . S
N984 C986 1.356 . S
N984 H996 0.984 . S
N984 H997 0.985 . S
N985 C987 1.356 . S
N985 H990 0.984 . S
N985 H991 0.985 . S
C986 C980 1.379 . S
C986 C983 1.363 . S
C986 N984 1.356 . S
C987 C981 1.363 . S
C987 C982 1.379 . S
C987 N985 1.356 . S
N988 C980 1.356 . S
N988 H994 0.984 . S
N988 H995 0.984 . S
N989 C982 1.356 . S
N989 H992 0.984 . S
N989 H993 0.985 . S
H990 N985 0.984 . S
H991 N985 0.985 . S
H992 N989 0.984 . S
H993 N989 0.985 . S
H994 N988 0.984 . S
H995 N988 0.984 . S
H996 N984 0.984 . S
H997 N984 0.985 . S
C998 C999 1.363 . S
C998 C1004 1.379 . S
C998 N1006 1.356 . S
C999 C998 1.363 . S
C999 C1005 1.363 . S
C1000 C1001 1.363 . S
C1000 C1005 1.379 . S
C1000 N1007 1.356 . S
C1001 C1000 1.363 . S
C1001 C1004 1.363 . S
N1002 C1004 1.356 . S
N1002 H1014 0.984 . S
N1002 H1015 0.985 . S
N1003 C1005 1.356 . S
N1003 H1008 0.984 . S
N1003 H1009 0.985 . S
C1004 C998 1.379 . S
C1004 C1001 1.363 . S
C1004 N1002 1.356 . S
C1005 C999 1.363 . S
C1005 C1000 1.379 . S
C1005 N1003 1.356 . S
N1006 C998 1.356 . S
N1006 H1012 0.984 . S
N1006 H1013 0.984 . S
N1007 C1000 1.356 . S
N1007 H1010 0.984 . S
N1007 H1011 0.985 . S
H1008 N1003 0.984 . S
H1009 N1003 0.985 . S
H1010 N1007 0.984 . S
H1011 N1007 0.985 . S
H1012 N1006 0.984 . S
H1013 N1006 0.984 . S
H1014 N1002 0.984 . S
H1015 N1002 0.985 . S
C1016 C1017 1.363 . S
C1016 C1022 1.379 . S
C1016 N1024 1.356 . S
C1017 C1016 1.363 . S
C1017 C1023 1.363 . S
C1018 C1019 1.363 . S
C1018 C1023 1.379 . S
C1018 N1025 1.356 . S
C1019 C1018 1.363 . S
C1019 C1022 1.363 . S
N1020 C1022 1.356 . S
N1020 H1032 0.984 . S
N1020 H1033 0.985 . S
N1021 C1023 1.356 . S
N1021 H1026 0.984 . S
N1021 H1027 0.985 . S
C1022 C1016 1.379 . S
C1022 C1019 1.363 . S
C1022 N1020 1.356 . S
C1023 C1017 1.363 . S
C1023 C1018 1.379 . S
C1023 N1021 1.356 . S
N1024 C1016 1.356 . S
N1024 H1030 0.984 . S
N1024 H1031 0.984 . S
N1025 C1018 1.356 . S
N1025 H1028 0.984 . S
N1025 H1029 0.985 . S
H1026 N1021 0.984 . S
H1027 N1021 0.985 . S
H1028 N1025 0.984 . S
H1029 N1025 0.985 . S
H1030 N1024 0.984 . S
H1031 N1024 0.984 . S
H1032 N1020 0.984 . S
H1033 N1020 0.985 . S
C1034 C1035 1.363 . S
C1034 C1040 1.379 . S
C1034 N1042 1.356 . S
C1035 C1034 1.363 . S
C1035 C1041 1.363 . S
C1036 C1037 1.363 . S
C1036 C1041 1.379 . S
C1036 N1043 1.356 . S
C1037 C1036 1.363 . S
C1037 C1040 1.363 . S
N1038 C1040 1.356 . S
N1038 H1050 0.984 . S
N1038 H1051 0.985 . S
N1039 C1041 1.356 . S
N1039 H1044 0.984 . S
N1039 H1045 0.985 . S
C1040 C1034 1.379 . S
C1040 C1037 1.363 . S
C1040 N1038 1.356 . S
C1041 C1035 1.363 . S
C1041 C1036 1.379 . S
C1041 N1039 1.356 . S
N1042 C1034 1.356 . S
N1042 H1048 0.984 . S
N1042 H1049 0.984 . S
N1043 C1036 1.356 . S
N1043 H1046 0.984 . S
N1043 H1047 0.985 . S
H1044 N1039 0.984 . S
H1045 N1039 0.985 . S
H1046 N1043 0.984 . S
H1047 N1043 0.985 . S
H1048 N1042 0.984 . S
H1049 N1042 0.984 . S
H1050 N1038 0.984 . S
H1051 N1038 0.985 . S
C1052 C1053 1.363 . S
C1052 C1058 1.379 . S
C1052 N1060 1.356 . S
C1053 C1052 1.363 . S
C1053 C1059 1.363 . S
C1054 C1055 1.363 . S
C1054 C1059 1.379 . S
C1054 N1061 1.356 . S
C1055 C1054 1.363 . S
C1055 C1058 1.363 . S
N1056 C1058 1.356 . S
N1056 H1068 0.984 . S
N1056 H1069 0.985 . S
N1057 C1059 1.356 . S
N1057 H1062 0.984 . S
N1057 H1063 0.985 . S
C1058 C1052 1.379 . S
C1058 C1055 1.363 . S
C1058 N1056 1.356 . S
C1059 C1053 1.363 . S
C1059 C1054 1.379 . S
C1059 N1057 1.356 . S
N1060 C1052 1.356 . S
N1060 H1066 0.984 . S
N1060 H1067 0.984 . S
N1061 C1054 1.356 . S
N1061 H1064 0.984 . S
N1061 H1065 0.985 . S
H1062 N1057 0.984 . S
H1063 N1057 0.985 . S
H1064 N1061 0.984 . S
H1065 N1061 0.985 . S
H1066 N1060 0.984 . S
H1067 N1060 0.984 . S
H1068 N1056 0.984 . S
H1069 N1056 0.985 . S
C1070 C1071 1.363 . S
C1070 C1076 1.379 . S
C1070 N1078 1.356 . S
C1071 C1070 1.363 . S
C1071 C1077 1.363 . S
C1072 C1073 1.363 . S
C1072 C1077 1.379 . S
C1072 N1079 1.356 . S
C1073 C1072 1.363 . S
C1073 C1076 1.363 . S
N1074 C1076 1.356 . S
N1074 H1086 0.984 . S
N1074 H1087 0.985 . S
N1075 C1077 1.356 . S
N1075 H1080 0.984 . S
N1075 H1081 0.985 . S
C1076 C1070 1.379 . S
C1076 C1073 1.363 . S
C1076 N1074 1.356 . S
C1077 C1071 1.363 . S
C1077 C1072 1.379 . S
C1077 N1075 1.356 . S
N1078 C1070 1.356 . S
N1078 H1084 0.984 . S
N1078 H1085 0.984 . S
N1079 C1072 1.356 . S
N1079 H1082 0.984 . S
N1079 H1083 0.985 . S
H1080 N1075 0.984 . S
H1081 N1075 0.985 . S
H1082 N1079 0.984 . S
H1083 N1079 0.985 . S
H1084 N1078 0.984 . S
H1085 N1078 0.984 . S
H1086 N1074 0.984 . S
H1087 N1074 0.985 . S
C1088 C1089 1.363 . S
C1088 C1094 1.379 . S
C1088 N1096 1.356 . S
C1089 C1088 1.363 . S
C1089 C1095 1.363 . S
C1090 C1091 1.363 . S
C1090 C1095 1.379 . S
C1090 N1097 1.356 . S
C1091 C1090 1.363 . S
C1091 C1094 1.363 . S
N1092 C1094 1.356 . S
N1092 H1104 0.984 . S
N1092 H1105 0.985 . S
N1093 C1095 1.356 . S
N1093 H1098 0.984 . S
N1093 H1099 0.985 . S
C1094 C1088 1.379 . S
C1094 C1091 1.363 . S
C1094 N1092 1.356 . S
C1095 C1089 1.363 . S
C1095 C1090 1.379 . S
C1095 N1093 1.356 . S
N1096 C1088 1.356 . S
N1096 H1102 0.984 . S
N1096 H1103 0.984 . S
N1097 C1090 1.356 . S
N1097 H1100 0.984 . S
N1097 H1101 0.985 . S
H1098 N1093 0.984 . S
H1099 N1093 0.985 . S
H1100 N1097 0.984 . S
H1101 N1097 0.985 . S
H1102 N1096 0.984 . S
H1103 N1096 0.984 . S
H1104 N1092 0.984 . S
H1105 N1092 0.985 . S
C1106 C1107 1.363 . S
C1106 C1112 1.379 . S
C1106 N1114 1.356 . S
C1107 C1106 1.363 . S
C1107 C1113 1.363 . S
C1108 C1109 1.363 . S
C1108 C1113 1.379 . S
C1108 N1115 1.356 . S
C1109 C1108 1.363 . S
C1109 C1112 1.363 . S
N1110 C1112 1.356 . S
N1110 H1122 0.984 . S
N1110 H1123 0.985 . S
N1111 C1113 1.356 . S
N1111 H1116 0.984 . S
N1111 H1117 0.985 . S
C1112 C1106 1.379 . S
C1112 C1109 1.363 . S
C1112 N1110 1.356 . S
C1113 C1107 1.363 . S
C1113 C1108 1.379 . S
C1113 N1111 1.356 . S
N1114 C1106 1.356 . S
N1114 H1120 0.984 . S
N1114 H1121 0.984 . S
N1115 C1108 1.356 . S
N1115 H1118 0.984 . S
N1115 H1119 0.985 . S
H1116 N1111 0.984 . S
H1117 N1111 0.985 . S
H1118 N1115 0.984 . S
H1119 N1115 0.985 . S
H1120 N1114 0.984 . S
H1121 N1114 0.984 . S
H1122 N1110 0.984 . S
H1123 N1110 0.985 . S
C1124 C1125 1.363 . S
C1124 C1130 1.379 . S
C1124 N1132 1.356 . S
C1125 C1124 1.363 . S
C1125 C1131 1.363 . S
C1126 C1127 1.363 . S
C1126 C1131 1.379 . S
C1126 N1133 1.356 . S
C1127 C1126 1.363 . S
C1127 C1130 1.363 . S
N1128 C1130 1.356 . S
N1128 H1140 0.984 . S
N1128 H1141 0.985 . S
N1129 C1131 1.356 . S
N1129 H1134 0.984 . S
N1129 H1135 0.985 . S
C1130 C1124 1.379 . S
C1130 C1127 1.363 . S
C1130 N1128 1.356 . S
C1131 C1125 1.363 . S
C1131 C1126 1.379 . S
C1131 N1129 1.356 . S
N1132 C1124 1.356 . S
N1132 H1138 0.984 . S
N1132 H1139 0.984 . S
N1133 C1126 1.356 . S
N1133 H1136 0.984 . S
N1133 H1137 0.985 . S
H1134 N1129 0.984 . S
H1135 N1129 0.985 . S
H1136 N1133 0.984 . S
H1137 N1133 0.985 . S
H1138 N1132 0.984 . S
H1139 N1132 0.984 . S
H1140 N1128 0.984 . S
H1141 N1128 0.985 . S
C1142 C1143 1.363 . S
C1142 C1148 1.379 . S
C1142 N1150 1.356 . S
C1143 C1142 1.363 . S
C1143 C1149 1.363 . S
C1144 C1145 1.363 . S
C1144 C1149 1.379 . S
C1144 N1151 1.356 . S
C1145 C1144 1.363 . S
C1145 C1148 1.363 . S
N1146 C1148 1.356 . S
N1146 H1158 0.984 . S
N1146 H1159 0.985 . S
N1147 C1149 1.356 . S
N1147 H1152 0.984 . S
N1147 H1153 0.985 . S
C1148 C1142 1.379 . S
C1148 C1145 1.363 . S
C1148 N1146 1.356 . S
C1149 C1143 1.363 . S
C1149 C1144 1.379 . S
C1149 N1147 1.356 . S
N1150 C1142 1.356 . S
N1150 H1156 0.984 . S
N1150 H1157 0.984 . S
N1151 C1144 1.356 . S
N1151 H1154 0.984 . S
N1151 H1155 0.985 . S
H1152 N1147 0.984 . S
H1153 N1147 0.985 . S
H1154 N1151 0.984 . S
H1155 N1151 0.985 . S
H1156 N1150 0.984 . S
H1157 N1150 0.984 . S
H1158 N1146 0.984 . S
H1159 N1146 0.985 . S
C1160 C1161 1.363 . S
C1160 C1166 1.379 . S
C1160 N1168 1.356 . S
C1161 C1160 1.363 . S
C1161 C1167 1.363 . S
C1162 C1163 1.363 . S
C1162 C1167 1.379 . S
C1162 N1169 1.356 . S
C1163 C1162 1.363 . S
C1163 C1166 1.363 . S
N1164 C1166 1.356 . S
N1164 H1176 0.984 . S
N1164 H1177 0.985 . S
N1165 C1167 1.356 . S
N1165 H1170 0.984 . S
N1165 H1171 0.985 . S
C1166 C1160 1.379 . S
C1166 C1163 1.363 . S
C1166 N1164 1.356 . S
C1167 C1161 1.363 . S
C1167 C1162 1.379 . S
C1167 N1165 1.356 . S
N1168 C1160 1.356 . S
N1168 H1174 0.984 . S
N1168 H1175 0.984 . S
N1169 C1162 1.356 . S
N1169 H1172 0.984 . S
N1169 H1173 0.985 . S
H1170 N1165 0.984 . S
H1171 N1165 0.985 . S
H1172 N1169 0.984 . S
H1173 N1169 0.985 . S
H1174 N1168 0.984 . S
H1175 N1168 0.984 . S
H1176 N1164 0.984 . S
H1177 N1164 0.985 . S
C1178 C1179 1.363 . S
C1178 C1184 1.379 . S
C1178 N1186 1.356 . S
C1179 C1178 1.363 . S
C1179 C1185 1.363 . S
C1180 C1181 1.363 . S
C1180 C1185 1.379 . S
C1180 N1187 1.356 . S
C1181 C1180 1.363 . S
C1181 C1184 1.363 . S
N1182 C1184 1.356 . S
N1182 H1194 0.984 . S
N1182 H1195 0.985 . S
N1183 C1185 1.356 . S
N1183 H1188 0.984 . S
N1183 H1189 0.985 . S
C1184 C1178 1.379 . S
C1184 C1181 1.363 . S
C1184 N1182 1.356 . S
C1185 C1179 1.363 . S
C1185 C1180 1.379 . S
C1185 N1183 1.356 . S
N1186 C1178 1.356 . S
N1186 H1192 0.984 . S
N1186 H1193 0.984 . S
N1187 C1180 1.356 . S
N1187 H1190 0.984 . S
N1187 H1191 0.985 . S
H1188 N1183 0.984 . S
H1189 N1183 0.985 . S
H1190 N1187 0.984 . S
H1191 N1187 0.985 . S
H1192 N1186 0.984 . S
H1193 N1186 0.984 . S
H1194 N1182 0.984 . S
H1195 N1182 0.985 . S
C1196 C1197 1.363 . S
C1196 C1202 1.379 . S
C1196 N1204 1.356 . S
C1197 C1196 1.363 . S
C1197 C1203 1.363 . S
C1198 C1199 1.363 . S
C1198 C1203 1.379 . S
C1198 N1205 1.356 . S
C1199 C1198 1.363 . S
C1199 C1202 1.363 . S
N1200 C1202 1.356 . S
N1200 H1212 0.984 . S
N1200 H1213 0.985 . S
N1201 C1203 1.356 . S
N1201 H1206 0.984 . S
N1201 H1207 0.985 . S
C1202 C1196 1.379 . S
C1202 C1199 1.363 . S
C1202 N1200 1.356 . S
C1203 C1197 1.363 . S
C1203 C1198 1.379 . S
C1203 N1201 1.356 . S
N1204 C1196 1.356 . S
N1204 H1210 0.984 . S
N1204 H1211 0.984 . S
N1205 C1198 1.356 . S
N1205 H1208 0.984 . S
N1205 H1209 0.985 . S
H1206 N1201 0.984 . S
H1207 N1201 0.985 . S
H1208 N1205 0.984 . S
H1209 N1205 0.985 . S
H1210 N1204 0.984 . S
H1211 N1204 0.984 . S
H1212 N1200 0.984 . S
H1213 N1200 0.985 . S
C1214 C1215 1.363 . S
C1214 C1220 1.379 . S
C1214 N1222 1.356 . S
C1215 C1214 1.363 . S
C1215 C1221 1.363 . S
C1216 C1217 1.363 . S
C1216 C1221 1.379 . S
C1216 N1223 1.356 . S
C1217 C1216 1.363 . S
C1217 C1220 1.363 . S
N1218 C1220 1.356 . S
N1218 H1230 0.984 . S
N1218 H1231 0.985 . S
N1219 C1221 1.356 . S
N1219 H1224 0.984 . S
N1219 H1225 0.985 . S
C1220 C1214 1.379 . S
C1220 C1217 1.363 . S
C1220 N1218 1.356 . S
C1221 C1215 1.363 . S
C1221 C1216 1.379 . S
C1221 N1219 1.356 . S
N1222 C1214 1.356 . S
N1222 H1228 0.984 . S
N1222 H1229 0.984 . S
N1223 C1216 1.356 . S
N1223 H1226 0.984 . S
N1223 H1227 0.985 . S
H1224 N1219 0.984 . S
H1225 N1219 0.985 . S
H1226 N1223 0.984 . S
H1227 N1223 0.985 . S
H1228 N1222 0.984 . S
H1229 N1222 0.984 . S
H1230 N1218 0.984 . S
H1231 N1218 0.985 . S
C659 C407 1.424 . S
C657 C8 1.375 . S
C677 C444 1.400 . S
C675 C61 1.377 . S
C695 C480 1.422 . S
C693 C107 1.389 . S
C711 C139 1.389 . S
C713 C371 1.444 . S
C729 C192 1.397 . S
C731 C372 1.423 . S
C747 C238 1.387 . S
C749 C408 1.404 . S
C767 C443 1.427 . S
C765 C284 1.381 . S
C785 C479 1.445 . S
C783 C330 1.392 . S
C801 C100 1.381 . S
C803 C551 1.427 . S
C821 C588 1.404 . S
C819 C160 1.386 . S
C837 C15 1.396 . S
C839 C624 1.425 . S
C857 C515 1.446 . S
C855 C54 1.393 . S
C873 C291 1.388 . S
C875 C516 1.421 . S
C891 C337 1.378 . S
C893 C552 1.401 . S
C911 C587 1.424 . S
C909 C199 1.373 . S
C927 C245 1.385 . S
C929 C623 1.444 . S
C947 C442 1.672 . S
C945 C1 1.673 . S
C965 C478 1.664 . S
C963 C68 1.652 . S
C981 C114 1.614 . S
C983 C382 1.472 . S
C999 C146 1.636 . S
C1001 C418 1.483 . S
C1017 C185 1.644 . S
C1019 C490 1.485 . S
C1037 C370 1.683 . S
C1035 C231 1.682 . S
C1055 C406 1.691 . S
C1053 C277 1.690 . S
C1073 C454 1.496 . S
C1071 C323 1.653 . S
C1091 C586 1.691 . S
C1089 C93 1.691 . S
C1109 C622 1.683 . S
C1107 C153 1.668 . S
C1125 C22 1.630 . S
C1127 C526 1.486 . S
C1145 C562 1.495 . S
C1143 C47 1.652 . S
C1163 C634 1.472 . S
C1161 C298 1.615 . S
C1179 C344 1.651 . S
C1181 C514 1.663 . S
C1199 C550 1.673 . S
C1197 C206 1.661 . S
C1217 C598 1.483 . S
C1215 C252 1.625 . S
