# Generated by pormake.
# Topology eea, (3,6)-cn, num edge types: 1
# Building blocks:
#     Node 0, Type 0, BuildingBlock: CUQRIR_clean_linker_1, # of connection points: 3
#     Node 1, Type 0, BuildingBlock: CUQRIR_clean_linker_1, # of connection points: 3
#     Node 2, Type 0, BuildingBlock: CUQRIR_clean_linker_1, # of connection points: 3
#     Node 3, Type 0, BuildingBlock: CUQRIR_clean_linker_1, # of connection points: 3
#     Node 4, Type 0, BuildingBlock: CUQRIR_clean_linker_1, # of connection points: 3
#     Node 5, Type 0, BuildingBlock: CUQRIR_clean_linker_1, # of connection points: 3
#     Node 6, Type 0, BuildingBlock: CUQRIR_clean_linker_1, # of connection points: 3
#     Node 7, Type 0, BuildingBlock: CUQRIR_clean_linker_1, # of connection points: 3
#     Node 8, Type 0, BuildingBlock: CUQRIR_clean_linker_1, # of connection points: 3
#     Node 9, Type 0, BuildingBlock: CUQRIR_clean_linker_1, # of connection points: 3
#     Node 10, Type 0, BuildingBlock: CUQRIR_clean_linker_1, # of connection points: 3
#     Node 11, Type 0, BuildingBlock: CUQRIR_clean_linker_1, # of connection points: 3
#     Node 12, Type 0, BuildingBlock: CUQRIR_clean_linker_1, # of connection points: 3
#     Node 13, Type 0, BuildingBlock: CUQRIR_clean_linker_1, # of connection points: 3
#     Node 14, Type 0, BuildingBlock: CUQRIR_clean_linker_1, # of connection points: 3
#     Node 15, Type 0, BuildingBlock: CUQRIR_clean_linker_1, # of connection points: 3
#     Node 16, Type 0, BuildingBlock: CUQRIR_clean_linker_1, # of connection points: 3
#     Node 17, Type 0, BuildingBlock: CUQRIR_clean_linker_1, # of connection points: 3
#     Node 18, Type 1, BuildingBlock: NUHQIS_clean_sbu_0, # of connection points: 6
#     Node 19, Type 1, BuildingBlock: NUHQIS_clean_sbu_0, # of connection points: 6
#     Node 20, Type 1, BuildingBlock: NUHQIS_clean_sbu_0, # of connection points: 6
#     Node 21, Type 1, BuildingBlock: NUHQIS_clean_sbu_0, # of connection points: 6
#     Node 22, Type 1, BuildingBlock: NUHQIS_clean_sbu_0, # of connection points: 6
#     Node 23, Type 1, BuildingBlock: NUHQIS_clean_sbu_0, # of connection points: 6
#     Node 24, Type 1, BuildingBlock: NUHQIS_clean_sbu_0, # of connection points: 6
#     Node 25, Type 1, BuildingBlock: NUHQIS_clean_sbu_0, # of connection points: 6
#     Node 26, Type 1, BuildingBlock: NUHQIS_clean_sbu_0, # of connection points: 6
#     Edge 27, Type (0, 1), None
#     Edge 28, Type (0, 1), None
#     Edge 29, Type (0, 1), None
#     Edge 30, Type (0, 1), None
#     Edge 31, Type (0, 1), None
#     Edge 32, Type (0, 1), None
#     Edge 33, Type (0, 1), None
#     Edge 34, Type (0, 1), None
#     Edge 35, Type (0, 1), None
#     Edge 36, Type (0, 1), None
#     Edge 37, Type (0, 1), None
#     Edge 38, Type (0, 1), None
#     Edge 39, Type (0, 1), None
#     Edge 40, Type (0, 1), None
#     Edge 41, Type (0, 1), None
#     Edge 42, Type (0, 1), None
#     Edge 43, Type (0, 1), None
#     Edge 44, Type (0, 1), None
#     Edge 45, Type (0, 1), None
#     Edge 46, Type (0, 1), None
#     Edge 47, Type (0, 1), None
#     Edge 48, Type (0, 1), None
#     Edge 49, Type (0, 1), None
#     Edge 50, Type (0, 1), None
#     Edge 51, Type (0, 1), None
#     Edge 52, Type (0, 1), None
#     Edge 53, Type (0, 1), None
#     Edge 54, Type (0, 1), None
#     Edge 55, Type (0, 1), None
#     Edge 56, Type (0, 1), None
#     Edge 57, Type (0, 1), None
#     Edge 58, Type (0, 1), None
#     Edge 59, Type (0, 1), None
#     Edge 60, Type (0, 1), None
#     Edge 61, Type (0, 1), None
#     Edge 62, Type (0, 1), None
#     Edge 63, Type (0, 1), None
#     Edge 64, Type (0, 1), None
#     Edge 65, Type (0, 1), None
#     Edge 66, Type (0, 1), None
#     Edge 67, Type (0, 1), None
#     Edge 68, Type (0, 1), None
#     Edge 69, Type (0, 1), None
#     Edge 70, Type (0, 1), None
#     Edge 71, Type (0, 1), None
#     Edge 72, Type (0, 1), None
#     Edge 73, Type (0, 1), None
#     Edge 74, Type (0, 1), None
#     Edge 75, Type (0, 1), None
#     Edge 76, Type (0, 1), None
#     Edge 77, Type (0, 1), None
#     Edge 78, Type (0, 1), None
#     Edge 79, Type (0, 1), None
#     Edge 80, Type (0, 1), None
# Relax obj value: 0.108
# Max RMSD: 0.334
# Mean RMSD: 0.247
data_MOF--net-eea--node1-NUHQIS_clean_sbu_0--node2-CUQRIR_clean_linker_1--edge1-none
_symmetry_space_group_name_H-M    P1
_symmetry_Int_Tables_number       1
_symmetry_cell_setting            triclinic
loop_
_symmetry_equiv_pos_as_xyz
'x, y, z'
_cell_length_a     19.584535
_cell_length_b     20.025983
_cell_length_c     32.911786
_cell_angle_alpha  84.496023
_cell_angle_beta   90.599112
_cell_angle_gamma 119.31166
loop_
_atom_site_label
_atom_site_type_symbol
_atom_site_fract_x
_atom_site_fract_y
_atom_site_fract_z
_atom_type_partial_charge
C0 C 0.15169 0.07657 0.42121 0.0
N1 N 0.1768 0.13956 0.44226 0.0
N2 N 0.15606 0.01842 0.44424 0.0
C3 C 0.13558 0.07623 0.37608 0.0
C4 C 0.18762 0.04961 0.47929 0.0
N5 N 0.20018 0.12256 0.47801 0.0
C6 C 0.21001 0.01028 0.51429 0.0
H7 H 0.07134 0.04607 0.37216 0.0
H8 H 0.16163 0.0469 0.36047 0.0
H9 H 0.16244 0.13483 0.35985 0.0
H10 H 0.25332 -0.00496 0.50304 0.0
H11 H 0.15725 0.95653 0.52677 0.0
H12 H 0.23652 0.04644 0.53955 0.0
C13 C 0.87907 0.09464 0.41871 0.0
N14 N 0.923 0.15155 0.44281 0.0
N15 N 0.8174 0.03517 0.44083 0.0
C16 C 0.90423 0.09068 0.37609 0.0
C17 C 0.82494 0.0578 0.47891 0.0
N18 N 0.88862 0.1284 0.48027 0.0
C19 C 0.76406 0.01502 0.51353 0.0
H20 H 0.8702 0.03295 0.36542 0.0
H21 H 0.96648 0.10464 0.37525 0.0
H22 H 0.89836 0.13341 0.35442 0.0
H23 H 0.77315 0.96815 0.52853 0.0
H24 H 0.70408 0.98893 0.50178 0.0
H25 H 0.76703 0.05219 0.53706 0.0
C26 C 0.84887 0.77007 0.40063 0.0
N27 N 0.8918 0.75053 0.42704 0.0
N28 N 0.77619 0.7451 0.41734 0.0
C29 C 0.87818 0.8147 0.35897 0.0
C30 C 0.77432 0.70358 0.45284 0.0
N31 N 0.84535 0.71083 0.45988 0.0
C32 C 0.70517 0.66008 0.48304 0.0
H33 H 0.92683 0.87351 0.36243 0.0
H34 H 0.83165 0.81827 0.34118 0.0
H35 H 0.90063 0.78561 0.34046 0.0
H36 H 0.64981 0.62822 0.46719 0.0
H37 H 0.70144 0.7016 0.50152 0.0
H38 H 0.71159 0.61722 0.50422 0.0
C39 C 0.07043 0.21211 0.75175 0.0
N40 N 0.13303 0.23303 0.72581 0.0
N41 N 0.02204 0.23679 0.73476 0.0
C42 C 0.0556 0.16625 0.79309 0.0
C43 C 0.06139 0.27941 0.69964 0.0
N44 N 0.12593 0.2736 0.69324 0.0
C45 C 0.0347 0.32249 0.66916 0.0
H46 H 0.04449 0.10738 0.78909 0.0
H47 H 0.00628 0.16287 0.81093 0.0
H48 H 0.10766 0.19413 0.81185 0.0
H49 H 0.01192 0.35461 0.68488 0.0
H50 H -0.0116 0.28065 0.65095 0.0
H51 H 0.08309 0.36497 0.64776 0.0
C52 C 0.77363 0.88762 0.73344 0.0
N53 N 0.76128 0.83136 0.70918 0.0
N54 N 0.77157 0.94736 0.7112 0.0
C55 C 0.80233 0.8909 0.77649 0.0
C56 C 0.75731 0.92554 0.67285 0.0
N57 N 0.75091 0.85522 0.67151 0.0
C58 C 0.7394 0.96867 0.63785 0.0
H59 H 0.82641 0.94855 0.78725 0.0
H60 H 0.85024 0.87638 0.7781 0.0
H61 H 0.75339 0.84834 0.79768 0.0
H62 H 0.7954 0.01531 0.62321 0.0
H63 H 0.70584 -0.00497 0.64911 0.0
H64 H 0.70494 0.93152 0.61417 0.0
C65 C 0.06755 0.90699 0.72872 0.0
N66 N 0.02825 0.84416 0.70765 0.0
N67 N 0.12924 0.96488 0.70568 0.0
C68 C 0.05482 0.90666 0.77413 0.0
C69 C 0.12821 0.93347 0.67068 0.0
N70 N 0.06729 0.86063 0.67191 0.0
C71 C 0.1894 0.97236 0.63598 0.0
H72 H 0.02042 0.93602 0.7789 0.0
H73 H 0.11128 0.93626 0.78928 0.0
H74 H 0.02462 0.84779 0.79016 0.0
H75 H 0.24809 0.98762 0.64764 0.0
H76 H 0.19038 0.02613 0.62319 0.0
H77 H 0.17929 0.93597 0.61089 0.0
C78 C 0.81836 0.4099 0.75454 0.0
N79 N 0.84347 0.47289 0.77559 0.0
N80 N 0.82273 0.35176 0.77757 0.0
C81 C 0.80224 0.40957 0.70941 0.0
C82 C 0.85429 0.38294 0.81263 0.0
N83 N 0.86685 0.45589 0.81134 0.0
C84 C 0.87668 0.34361 0.84762 0.0
H85 H 0.738 0.3794 0.70549 0.0
H86 H 0.82829 0.38024 0.6938 0.0
H87 H 0.82911 0.46817 0.69318 0.0
H88 H 0.91999 0.32838 0.83638 0.0
H89 H 0.82392 0.28986 0.8601 0.0
H90 H 0.90319 0.37977 0.87288 0.0
C91 C 0.54574 0.42797 0.75205 0.0
N92 N 0.58967 0.48489 0.77614 0.0
N93 N 0.48406 0.3685 0.77416 0.0
C94 C 0.5709 0.42401 0.70943 0.0
C95 C 0.49161 0.39113 0.81225 0.0
N96 N 0.55529 0.46173 0.8136 0.0
C97 C 0.43072 0.34835 0.84687 0.0
H98 H 0.53686 0.36628 0.69875 0.0
H99 H 0.63314 0.43797 0.70859 0.0
H100 H 0.56503 0.46674 0.68776 0.0
H101 H 0.43981 0.30148 0.86186 0.0
H102 H 0.37075 0.32226 0.83511 0.0
H103 H 0.4337 0.38552 0.87039 0.0
C104 C 0.51554 0.1034 0.73396 0.0
N105 N 0.55846 0.08386 0.76037 0.0
N106 N 0.44285 0.07843 0.75067 0.0
C107 C 0.54484 0.14804 0.6923 0.0
C108 C 0.44099 0.03691 0.78618 0.0
N109 N 0.51202 0.04416 0.79322 0.0
C110 C 0.37183 -0.00659 0.81637 0.0
H111 H 0.5935 0.20684 0.69576 0.0
H112 H 0.49832 0.15161 0.67451 0.0
H113 H 0.5673 0.11894 0.67379 0.0
H114 H 0.31648 0.96156 0.80052 0.0
H115 H 0.36811 0.03493 0.83486 0.0
H116 H 0.37826 0.95055 0.83756 0.0
C117 C 0.7371 0.54545 0.08508 0.0
N118 N 0.79969 0.56636 1.05914 0.0
N119 N 0.68871 0.57012 1.0681 0.0
C120 C 0.72227 0.49958 0.12642 0.0
C121 C 0.72806 0.61274 1.03297 0.0
N122 N 0.7926 0.60693 1.02658 0.0
C123 C 0.70136 0.65583 1.0025 0.0
H124 H 0.71115 0.44071 0.12243 0.0
H125 H 0.67294 0.4962 0.14426 0.0
H126 H 0.77433 0.52746 0.14519 0.0
H127 H 0.67859 0.68794 1.01821 0.0
H128 H 0.65506 0.61399 0.98429 0.0
H129 H 0.74976 0.6983 0.98109 0.0
C130 C 0.4403 0.22095 1.06678 0.0
N131 N 0.42795 0.16469 1.04252 0.0
N132 N 0.43824 0.28069 1.04453 0.0
C133 C 0.46899 0.22424 0.10982 0.0
C134 C 0.42398 0.25888 1.00619 0.0
N135 N 0.41758 0.18855 1.00485 0.0
C136 C 0.40607 0.30201 0.97119 0.0
H137 H 0.49308 0.28189 0.12059 0.0
H138 H 0.5169 0.20972 0.11143 0.0
H139 H 0.42006 0.18168 0.13102 0.0
H140 H 0.46207 0.34865 0.95655 0.0
H141 H 0.3725 0.32837 0.98245 0.0
H142 H 0.37161 0.26485 0.94751 0.0
C143 C 0.73421 0.24032 1.06206 0.0
N144 N 0.69492 0.1775 1.04098 0.0
N145 N 0.79591 0.29821 1.03901 0.0
C146 C 0.72149 0.24 0.10747 0.0
C147 C 0.79488 0.26681 1.00401 0.0
N148 N 0.73395 0.19396 1.00524 0.0
C149 C 0.85607 0.3057 0.96931 0.0
H150 H 0.68708 0.26935 0.11223 0.0
H151 H 0.77795 0.2696 0.12262 0.0
H152 H 0.69129 0.18112 0.1235 0.0
H153 H 0.91476 0.32095 0.98097 0.0
H154 H 0.85704 0.35946 0.95652 0.0
H155 H 0.84596 0.2693 0.94422 0.0
C156 C 0.48502 0.74323 0.08787 0.0
N157 N 0.51014 0.80622 0.10893 0.0
N158 N 0.4894 0.68509 0.11091 0.0
C159 C 0.46891 0.7429 1.04274 0.0
C160 C 0.52095 0.71627 0.14596 0.0
N161 N 0.53351 0.78922 0.14468 0.0
C162 C 0.54334 0.67695 0.18095 0.0
H163 H 0.40467 0.71274 1.03882 0.0
H164 H 0.49496 0.71357 1.02714 0.0
H165 H 0.49578 0.8015 1.02652 0.0
H166 H 0.58665 0.66171 0.16971 0.0
H167 H 0.49058 0.62319 0.19344 0.0
H168 H 0.56986 0.71311 0.20621 0.0
C169 C 0.21241 0.76131 0.08538 0.0
N170 N 0.25633 0.81822 0.10948 0.0
N171 N 0.15073 0.70183 0.1075 0.0
C172 C 0.23756 0.75735 1.04276 0.0
C173 C 0.15827 0.72447 0.14558 0.0
N174 N 0.22196 0.79507 0.14693 0.0
C175 C 0.09739 0.68168 0.1802 0.0
H176 H 0.20353 0.69961 1.03208 0.0
H177 H 0.29981 0.7713 1.04192 0.0
H178 H 0.23169 0.80007 1.02109 0.0
H179 H 0.10648 0.63482 0.19519 0.0
H180 H 0.03741 0.65559 0.16844 0.0
H181 H 0.10036 0.71886 0.20373 0.0
C182 C 0.1822 0.43674 1.06729 0.0
N183 N 0.22513 0.4172 0.0937 0.0
N184 N 0.10952 0.41177 0.084 0.0
C185 C 0.21151 0.48137 1.02564 0.0
C186 C 0.10766 0.37025 0.11951 0.0
N187 N 0.17868 0.3775 0.12655 0.0
C188 C 0.0385 0.32674 0.14971 0.0
H189 H 0.26017 0.54017 1.0291 0.0
H190 H 0.16498 0.48494 1.00784 0.0
H191 H 0.23396 0.45228 1.00712 0.0
H192 H -0.01686 0.29489 0.13386 0.0
H193 H 0.03478 0.36827 0.16819 0.0
H194 H 0.04492 0.28389 0.17089 0.0
C195 C 0.40377 0.87878 0.41841 0.0
N196 N 0.46636 0.89969 0.39247 0.0
N197 N 0.35538 0.90346 0.40143 0.0
C198 C 0.38894 0.83292 0.45976 0.0
C199 C 0.39473 0.94607 0.3663 0.0
N200 N 0.45926 0.94026 0.35991 0.0
C201 C 0.36803 -0.01084 0.33583 0.0
H202 H 0.37782 0.77404 0.45576 0.0
H203 H 0.33961 0.82954 0.47759 0.0
H204 H 0.44099 0.8608 0.47852 0.0
H205 H 0.34525 0.02128 0.35154 0.0
H206 H 0.32173 0.94732 0.31762 0.0
H207 H 0.41642 0.03164 0.31443 0.0
C208 C 0.10696 0.55429 0.40011 0.0
N209 N 0.09462 0.49803 0.37585 0.0
N210 N 0.1049 0.61403 0.37786 0.0
C211 C 0.13566 0.55757 0.44316 0.0
C212 C 0.09065 0.59221 0.33952 0.0
N213 N 0.08425 0.52189 0.33818 0.0
C214 C 0.07274 0.63534 0.30452 0.0
H215 H 0.15974 0.61522 0.45392 0.0
H216 H 0.18357 0.54305 0.44477 0.0
H217 H 0.08672 0.51501 0.46435 0.0
H218 H 0.12874 0.68198 0.28988 0.0
H219 H 0.03917 0.6617 0.31578 0.0
H220 H 0.03828 0.59819 0.28084 0.0
C221 C 0.40088 0.57366 0.39539 0.0
N222 N 0.36158 0.51083 0.37431 0.0
N223 N 0.46257 0.63155 0.37234 0.0
C224 C 0.38816 0.57333 0.4408 0.0
C225 C 0.46154 0.60014 0.33734 0.0
N226 N 0.40062 0.52729 0.33858 0.0
C227 C 0.52273 0.63903 0.30265 0.0
H228 H 0.35375 0.60268 0.44556 0.0
H229 H 0.44462 0.60293 0.45595 0.0
H230 H 0.35795 0.51446 0.45683 0.0
H231 H 0.58142 0.65428 0.3143 0.0
H232 H 0.52371 0.69279 0.28985 0.0
H233 H 0.51263 0.60264 0.27756 0.0
Tb234 Tb 0.46946 0.96948 1.02925 0.0
Eu235 Eu 0.49532 0.01619 0.1235 0.0
C236 C 0.5051 0.87136 0.09747 0.0
C237 C 0.32908 0.88055 0.09944 0.0
C238 C 0.49789 0.96951 0.91633 0.0
C239 C 0.52257 0.95549 0.84615 0.0
C240 C 0.50474 0.9258 0.88733 0.0
C241 C 0.51745 0.04612 0.90451 0.0
C242 C 0.5358 0.07584 0.86347 0.0
C243 C 0.53371 0.02917 0.83359 0.0
C244 C 0.46385 0.93221 0.95749 0.0
O245 O 0.45572 0.07157 1.02398 0.0
O246 O 0.4366 0.07888 0.09197 0.0
O247 O 0.58357 0.1166 0.08291 0.0
O248 O 0.59486 0.05253 1.03265 0.0
C249 C 0.43758 0.10195 1.05293 0.0
O250 O 0.46636 0.04335 0.18108 0.0
O251 O 0.58128 0.0551 0.17087 0.0
O252 O 0.53829 0.93093 0.11852 0.0
O253 O 0.46116 0.87101 1.06721 0.0
O254 O 0.35229 0.90325 1.06034 0.0
O255 O 0.37628 0.91156 0.12904 0.0
C256 C 0.62415 0.11377 1.05267 0.0
O257 O 0.51241 0.93017 0.98424 0.0
O258 O 0.4141 0.94937 0.97323 0.0
C259 C 0.52778 0.01969 0.23825 0.0
C260 C 0.49783 0.95823 0.32036 0.0
C261 C 0.56004 0.03267 0.30951 0.0
C262 C 0.57501 0.06335 0.26851 0.0
C263 C 0.47102 0.94259 0.24868 0.0
C264 C 0.45649 0.91196 0.28954 0.0
C265 C 0.53288 0.05707 0.19699 0.0
H266 H 0.51883 0.91803 0.82357 0.0
H267 H 0.49056 0.8667 0.89598 0.0
H268 H 0.51376 0.08128 0.92649 0.0
H269 H 0.54269 0.13228 0.85427 0.0
H270 H 0.59114 0.06951 0.33299 0.0
H271 H 0.61948 0.12288 0.26082 0.0
H272 H 0.43456 0.90778 0.22563 0.0
H273 H 0.40727 0.85491 0.29757 0.0
Tb274 Tb -0.00111 0.53605 1.02371 0.0
Eu275 Eu 0.93915 0.46918 0.12142 0.0
C276 C 0.09224 0.6351 0.09491 0.0
C277 C 0.05871 0.43861 0.07478 0.0
C278 C -0.00886 0.56299 0.91183 0.0
C279 C -0.01354 0.55536 0.83862 0.0
C280 C 0.02933 0.58387 0.87318 0.0
C281 C 0.90917 0.51827 0.9152 0.0
C282 C 0.86633 0.49062 0.88062 0.0
C283 C 0.90512 0.50614 0.84243 0.0
C284 C 0.03688 0.58073 0.9488 0.0
O285 O 0.91087 0.41441 1.02467 0.0
O286 O 0.84021 0.3913 0.08447 0.0
O287 O 0.87219 0.52883 0.10109 0.0
O288 O 0.89428 0.54569 1.03134 0.0
C289 C 0.84937 0.36972 1.0494 0.0
O290 O 0.91301 0.37942 0.17191 0.0
O291 O 0.91064 0.48272 0.18301 0.0
O292 O 0.0581 0.57388 0.12159 0.0
O293 O 0.07005 0.63442 1.05708 0.0
O294 O 0.0812 0.50335 1.05138 0.0
O295 O -0.00878 0.40559 0.09468 0.0
C296 C 0.85728 0.54714 1.06402 0.0
O297 O 0.02157 0.6188 0.97377 0.0
O298 O 0.04104 0.52307 0.96826 0.0
C299 C 0.95696 0.42873 0.23565 0.0
C300 C 0.04613 0.47409 0.30585 0.0
C301 C 0.96475 0.42453 0.30962 0.0
C302 C 0.92042 0.40234 0.27477 0.0
C303 C 0.03921 0.47155 0.23196 0.0
C304 C 0.08347 0.49412 0.26685 0.0
C305 C 0.90886 0.41995 0.19948 0.0
H306 H 0.01728 0.56631 0.80951 0.0
H307 H 0.09261 0.61811 0.87007 0.0
H308 H 0.87887 0.5009 0.9449 0.0
H309 H 0.80387 0.4512 0.88417 0.0
H310 H 0.93472 0.40977 0.33928 0.0
H311 H 0.85712 0.36914 0.27833 0.0
H312 H 0.06871 0.49229 0.20205 0.0
H313 H 0.1459 0.53355 0.2632 0.0
Tb314 Tb 0.45556 0.44717 0.12809 0.0
Eu315 Eu 0.4593 0.51257 1.02974 0.0
C316 C 0.447 0.34745 1.05706 0.0
C317 C 0.61116 0.54314 0.07695 0.0
C318 C 0.42113 0.42084 0.23964 0.0
C319 C 0.42128 0.42754 0.31293 0.0
C320 C 0.43748 0.39988 0.27887 0.0
C321 C 0.38275 0.46454 0.23517 0.0
C322 C 0.3659 0.49147 0.26923 0.0
C323 C 0.38843 0.47617 0.30806 0.0
C324 C 0.45079 0.404 0.2033 0.0
O325 O 0.48845 0.56894 0.12571 0.0
O326 O 0.44002 0.59203 1.06541 0.0
O327 O 0.33332 0.45365 1.05131 0.0
O328 O 0.3414 0.43786 0.12113 0.0
C329 C 0.47109 0.61353 0.10064 0.0
O330 O 0.52055 0.60157 0.97877 0.0
O331 O 0.41681 0.49597 0.9678 0.0
O332 O 0.47469 0.40878 1.03051 0.0
O333 O 0.42585 0.34827 0.09471 0.0
O334 O 0.56969 0.47907 0.10085 0.0
O335 O 0.57611 0.57585 1.05658 0.0
C336 C 0.30169 0.43615 0.08856 0.0
O337 O 0.39814 0.36408 0.17805 0.0
O338 O 0.51147 0.46263 0.18401 0.0
C339 C 0.51663 0.55169 0.91539 0.0
C340 C 0.5643 0.50984 0.84561 0.0
C341 C 0.52943 0.55685 0.84139 0.0
C342 C 0.50546 0.57728 0.87596 0.0
C343 C 0.55885 0.51151 0.91962 0.0
C344 C 0.58254 0.49082 0.88499 0.0
C345 C 0.47647 0.55939 0.95122 0.0
H346 H 0.44073 0.4168 0.34253 0.0
H347 H 0.46723 0.36631 0.28288 0.0
H348 H 0.37038 0.48188 0.20506 0.0
H349 H 0.34243 0.53053 0.26481 0.0
H350 H 0.51317 0.57069 0.81152 0.0
H351 H 0.47331 0.60853 0.8719 0.0
H352 H 0.56852 0.49137 0.94971 0.0
H353 H 0.60773 0.45319 0.8891 0.0
Tb354 Tb 0.13613 0.30282 0.36258 0.0
Eu355 Eu 0.16198 0.34953 0.45683 0.0
C356 C 0.17176 0.2047 0.4308 0.0
C357 C -0.00425 0.21389 0.43278 0.0
C358 C 0.16455 0.30284 0.24966 0.0
C359 C 0.18923 0.28882 0.17949 0.0
C360 C 0.17141 0.25913 0.22066 0.0
C361 C 0.18412 0.37945 0.23785 0.0
C362 C 0.20246 0.40918 0.1968 0.0
C363 C 0.20038 0.36251 0.16693 0.0
C364 C 0.13052 0.26554 0.29082 0.0
O365 O 0.12238 0.4049 0.35731 0.0
O366 O 0.10327 0.41222 0.4253 0.0
O367 O 0.25023 0.44994 0.41624 0.0
O368 O 0.26153 0.38587 0.36599 0.0
C369 C 0.10425 0.43528 0.38626 0.0
O370 O 0.13303 0.37669 0.51441 0.0
O371 O 0.24795 0.38843 0.5042 0.0
O372 O 0.20495 0.26426 0.45185 0.0
O373 O 0.12782 0.20435 0.40054 0.0
O374 O 0.01895 0.23659 0.39367 0.0
O375 O 0.04295 0.24489 0.46238 0.0
C376 C 0.29082 0.4471 0.386 0.0
O377 O 0.17908 0.2635 0.31757 0.0
O378 O 0.08077 0.2827 0.30656 0.0
C379 C 0.19444 0.35303 0.57158 0.0
C380 C 0.16449 0.29156 0.65369 0.0
C381 C 0.22671 0.366 0.64284 0.0
C382 C 0.24168 0.39669 0.60184 0.0
C383 C 0.13769 0.27592 0.58202 0.0
C384 C 0.12316 0.24529 0.62287 0.0
C385 C 0.19955 0.3904 0.53032 0.0
H386 H 0.18549 0.25136 0.1569 0.0
H387 H 0.15723 0.20004 0.22932 0.0
H388 H 0.18043 0.41462 0.25983 0.0
H389 H 0.20935 0.46562 0.1876 0.0
H390 H 0.2578 0.40284 0.66633 0.0
H391 H 0.28614 0.45622 0.59415 0.0
H392 H 0.10123 0.24112 0.55896 0.0
H393 H 0.07394 0.18824 0.63091 0.0
Tb394 Tb 0.66555 0.86938 0.35704 0.0
Eu395 Eu 0.60582 0.80251 0.45475 0.0
C396 C 0.7589 0.96843 0.42824 0.0
C397 C 0.72538 0.77194 0.40811 0.0
C398 C 0.6578 0.89632 0.24516 0.0
C399 C 0.65313 0.8887 0.17196 0.0
C400 C 0.696 0.9172 0.20651 0.0
C401 C 0.57584 0.85161 0.24853 0.0
C402 C 0.533 0.82395 0.21395 0.0
C403 C 0.57179 0.83948 0.17577 0.0
C404 C 0.70355 0.91406 0.28214 0.0
O405 O 0.57754 0.74774 0.35801 0.0
O406 O 0.50688 0.72464 0.4178 0.0
O407 O 0.53886 0.86216 0.43442 0.0
O408 O 0.56095 0.87902 0.36468 0.0
C409 C 0.51604 0.70306 0.38274 0.0
O410 O 0.57967 0.71276 0.50525 0.0
O411 O 0.57731 0.81605 0.51634 0.0
O412 O 0.72476 0.90721 0.45492 0.0
O413 O 0.73671 0.96775 0.39041 0.0
O414 O 0.74786 0.83669 0.38472 0.0
O415 O 0.65789 0.73893 0.42802 0.0
C416 C 0.52395 0.88047 0.39736 0.0
O417 O 0.68824 0.95213 0.3071 0.0
O418 O 0.70771 0.8564 0.30159 0.0
C419 C 0.62363 0.76206 0.56898 0.0
C420 C 0.71279 0.80742 0.63918 0.0
C421 C 0.63142 0.75786 0.64295 0.0
C422 C 0.58709 0.73567 0.6081 0.0
C423 C 0.70588 0.80488 0.56529 0.0
C424 C 0.75013 0.82746 0.60018 0.0
C425 C 0.57553 0.75329 0.53281 0.0
H426 H 0.68394 0.89965 0.14284 0.0
H427 H 0.75928 0.95144 0.20341 0.0
H428 H 0.54554 0.83424 0.27823 0.0
H429 H 0.47054 0.78453 0.21751 0.0
H430 H 0.60138 0.74311 0.67261 0.0
H431 H 0.52379 0.70247 0.61166 0.0
H432 H 0.73538 0.82562 0.53539 0.0
H433 H 0.81257 0.86688 0.59653 0.0
Tb434 Tb 0.12223 0.7805 0.46143 0.0
Eu435 Eu 0.12597 0.84591 0.36307 0.0
C436 C 0.11367 0.68078 0.3904 0.0
C437 C 0.27783 0.87647 0.41028 0.0
C438 C 0.08779 0.75418 0.57298 0.0
C439 C 0.08795 0.76087 0.64626 0.0
C440 C 0.10415 0.73321 0.61221 0.0
C441 C 0.04942 0.79787 0.5685 0.0
C442 C 0.03256 0.8248 0.60256 0.0
C443 C 0.05509 0.8095 0.6414 0.0
C444 C 0.11746 0.73733 0.53664 0.0
O445 O 0.15512 0.90228 0.45904 0.0
O446 O 0.10669 0.92537 0.39874 0.0
O447 O -1e-05 0.78698 0.38464 0.0
O448 O 0.00807 0.77119 0.45446 0.0
C449 C 0.13776 0.94687 0.43398 0.0
O450 O 0.18722 0.93491 0.3121 0.0
O451 O 0.08347 0.82931 0.30114 0.0
O452 O 0.14136 0.74212 0.36385 0.0
O453 O 0.09252 0.68161 0.42805 0.0
O454 O 0.23635 0.81241 0.43418 0.0
O455 O 0.24277 0.90918 0.38992 0.0
C456 C 0.96836 0.76948 0.4219 0.0
O457 O 0.06481 0.69742 0.51138 0.0
O458 O 0.17814 0.79596 0.51735 0.0
C459 C 0.1833 0.88503 0.24872 0.0
C460 C 0.23096 0.84317 0.17894 0.0
C461 C 0.19609 0.89018 0.17473 0.0
C462 C 0.17213 0.91062 0.2093 0.0
C463 C 0.22552 0.84484 0.25295 0.0
C464 C 0.2492 0.82415 0.21832 0.0
C465 C 0.14314 0.89272 0.28455 0.0
H466 H 0.10739 0.75014 0.67586 0.0
H467 H 0.1339 0.69964 0.61622 0.0
H468 H 0.03705 0.81522 0.53839 0.0
H469 H 0.0091 0.86386 0.59814 0.0
H470 H 0.17984 0.90403 0.14485 0.0
H471 H 0.13998 0.94186 0.20523 0.0
H472 H 0.23519 0.8247 0.28304 0.0
H473 H 0.2744 0.78652 0.22243 0.0
Tb474 Tb 0.80279 0.63615 0.69591 0.0
Eu475 Eu 0.82865 0.68286 0.79016 0.0
C476 C 0.83843 0.53803 0.76413 0.0
C477 C 0.66241 0.54722 0.76611 0.0
C478 C 0.83122 0.63617 0.58299 0.0
C479 C 0.8559 0.62215 0.51282 0.0
C480 C 0.83807 0.59246 0.554 0.0
C481 C 0.85078 0.71278 0.57118 0.0
C482 C 0.86913 0.74251 0.53013 0.0
C483 C 0.86704 0.69584 0.50026 0.0
C484 C 0.79719 0.59887 0.62415 0.0
O485 O 0.78905 0.73824 0.69064 0.0
O486 O 0.76993 0.74555 0.75864 0.0
O487 O 0.9169 0.78327 0.74958 0.0
O488 O 0.9282 0.7192 0.69932 0.0
C489 C 0.77092 0.76861 0.7196 0.0
O490 O 0.7997 0.71002 0.84775 0.0
O491 O 0.91461 0.72177 0.83754 0.0
O492 O 0.87162 0.5976 0.78518 0.0
O493 O 0.79449 0.53768 0.73388 0.0
O494 O 0.68562 0.56992 0.727 0.0
O495 O 0.70962 0.57823 0.79571 0.0
C496 C 0.95748 0.78043 0.71933 0.0
O497 O 0.84575 0.59684 0.6509 0.0
O498 O 0.74743 0.61603 0.6399 0.0
C499 C 0.86111 0.68636 0.90492 0.0
C500 C 0.83116 0.62489 0.98703 0.0
C501 C 0.89337 0.69933 0.97617 0.0
C502 C 0.90835 0.73002 0.93518 0.0
C503 C 0.80436 0.60926 0.91535 0.0
C504 C 0.78983 0.57862 0.9562 0.0
C505 C 0.86621 0.72373 0.86365 0.0
H506 H 0.85216 0.5847 0.49024 0.0
H507 H 0.8239 0.53337 0.56265 0.0
H508 H 0.8471 0.74795 0.59316 0.0
H509 H 0.87602 0.79895 0.52094 0.0
H510 H 0.92447 0.73617 0.99966 0.0
H511 H 0.95281 0.78955 0.92748 0.0
H512 H 0.7679 0.57445 0.89229 0.0
H513 H 0.74061 0.52158 0.96424 0.0
Tb514 Tb 0.33222 0.20272 0.69037 0.0
Eu515 Eu 0.27248 0.13584 0.78809 0.0
C516 C 0.42557 0.30176 0.76158 0.0
C517 C 0.39205 0.10528 0.74144 0.0
C518 C 0.32447 0.22966 0.5785 0.0
C519 C 0.31979 0.22203 0.50529 0.0
C520 C 0.36266 0.25053 0.53984 0.0
C521 C 0.2425 0.18494 0.58186 0.0
C522 C 0.19966 0.15728 0.54728 0.0
C523 C 0.23846 0.17281 0.5091 0.0
C524 C 0.37021 0.24739 0.61547 0.0
O525 O 0.2442 0.08107 0.69134 0.0
O526 O 0.17354 0.05797 0.75113 0.0
O527 O 0.20552 0.1955 0.76775 0.0
O528 O 0.22761 0.21235 0.69801 0.0
C529 C 0.18271 0.03639 0.71607 0.0
O530 O 0.24634 0.04609 0.83858 0.0
O531 O 0.24397 0.14938 0.84967 0.0
O532 O 0.39143 0.24055 0.78825 0.0
O533 O 0.40338 0.30109 0.72374 0.0
O534 O 0.41453 0.17002 0.71805 0.0
O535 O 0.32456 0.07226 0.76135 0.0
C536 C 0.19061 0.2138 0.73069 0.0
O537 O 0.35491 0.28547 0.64044 0.0
O538 O 0.37438 0.18973 0.63493 0.0
C539 C 0.2903 0.09539 0.90231 0.0
C540 C 0.37946 0.14075 0.97252 0.0
C541 C 0.29808 0.09119 0.97629 0.0
C542 C 0.25376 0.069 0.94144 0.0
C543 C 0.37255 0.13822 0.89863 0.0
C544 C 0.4168 0.16079 0.93351 0.0
C545 C 0.2422 0.08662 0.86615 0.0
H546 H 0.35061 0.23298 0.47618 0.0
H547 H 0.42595 0.28478 0.53674 0.0
H548 H 0.21221 0.16757 0.61156 0.0
H549 H 0.13721 0.11787 0.55084 0.0
H550 H 0.26805 0.07644 1.00595 0.0
H551 H 0.19045 0.03581 0.945 0.0
H552 H 0.40204 0.15896 0.86872 0.0
H553 H 0.47924 0.20022 0.92986 0.0
Tb554 Tb 0.78889 0.11383 0.79476 0.0
Eu555 Eu 0.79264 0.17924 0.69641 0.0
C556 C 0.78033 0.01411 0.72373 0.0
C557 C 0.94449 0.20981 0.74362 0.0
C558 C 0.75446 0.08751 0.90631 0.0
C559 C 0.75462 0.0942 0.9796 0.0
C560 C 0.77081 0.06654 0.94554 0.0
C561 C 0.71608 0.1312 0.90184 0.0
C562 C 0.69923 0.15813 0.93589 0.0
C563 C 0.72176 0.14284 0.97473 0.0
C564 C 0.78412 0.07066 0.86997 0.0
O565 O 0.82179 0.23561 0.79238 0.0
O566 O 0.77335 0.2587 0.73207 0.0
O567 O 0.66665 0.12032 0.71798 0.0
O568 O 0.67474 0.10452 0.7878 0.0
C569 C 0.80442 0.2802 0.76731 0.0
O570 O 0.85388 0.26824 0.64543 0.0
O571 O 0.75014 0.16264 0.63447 0.0
O572 O 0.80803 0.07545 0.69718 0.0
O573 O 0.75919 0.01494 0.76138 0.0
O574 O 0.90302 0.14574 0.76752 0.0
O575 O 0.90944 0.24251 0.72325 0.0
C576 C 0.63503 0.10282 0.75523 0.0
O577 O 0.73147 0.03075 0.84472 0.0
O578 O 0.8448 0.1293 0.85068 0.0
C579 C 0.84996 0.21836 0.58206 0.0
C580 C 0.89763 0.1765 0.51228 0.0
C581 C 0.86276 0.22352 0.50806 0.0
C582 C 0.83879 0.24395 0.54263 0.0
C583 C 0.89219 0.17818 0.58629 0.0
C584 C 0.91587 0.15748 0.55166 0.0
C585 C 0.8098 0.22606 0.61788 0.0
H586 H 0.77406 0.08347 1.0092 0.0
H587 H 0.80056 0.03297 0.94955 0.0
H588 H 0.70371 0.14855 0.87172 0.0
H589 H 0.67576 0.19719 0.93148 0.0
H590 H 0.8465 0.23736 0.47818 0.0
H591 H 0.80665 0.2752 0.53856 0.0
H592 H 0.90185 0.15803 0.61638 0.0
H593 H 0.94106 0.11986 0.55577 0.0
loop_
_geom_bond_atom_site_label_1
_geom_bond_atom_site_label_2
_geom_bond_distance
_geom_bond_site_symmetry_2
_ccdc_geom_bond_type
C0 N1 1.317 . S
C0 N2 1.348 . S
C0 C3 1.485 . S
N1 C0 1.317 . S
N1 N5 1.370 . S
N2 C0 1.348 . S
N2 C4 1.346 . S
C3 C0 1.485 . S
C3 H7 0.960 . S
C3 H8 0.961 . S
C3 H9 0.960 . S
C4 N2 1.346 . S
C4 N5 1.307 . S
C4 C6 1.486 . S
N5 N1 1.370 . S
N5 C4 1.307 . S
C6 C4 1.486 . S
C6 H10 0.960 . S
C6 H11 0.960 1_545 S
C6 H12 0.959 . S
H7 C3 0.960 . S
H8 C3 0.961 . S
H9 C3 0.960 . S
H10 C6 0.960 . S
H11 C6 0.960 1_565 S
H12 C6 0.959 . S
C13 N14 1.317 . S
C13 N15 1.348 . S
C13 C16 1.485 . S
N14 C13 1.317 . S
N14 N18 1.370 . S
N15 C13 1.348 . S
N15 C17 1.346 . S
C16 C13 1.485 . S
C16 H20 0.960 . S
C16 H21 0.961 . S
C16 H22 0.960 . S
C17 N15 1.346 . S
C17 N18 1.307 . S
C17 C19 1.486 . S
N18 N14 1.370 . S
N18 C17 1.307 . S
C19 C17 1.486 . S
C19 H23 0.960 1_545 S
C19 H24 0.960 . S
C19 H25 0.959 . S
H20 C16 0.960 . S
H21 C16 0.961 . S
H22 C16 0.960 . S
H23 C19 0.960 1_565 S
H24 C19 0.960 . S
H25 C19 0.959 . S
C26 N27 1.317 . S
C26 N28 1.348 . S
C26 C29 1.485 . S
N27 C26 1.317 . S
N27 N31 1.370 . S
N28 C26 1.348 . S
N28 C30 1.346 . S
C29 C26 1.485 . S
C29 H33 0.960 . S
C29 H34 0.961 . S
C29 H35 0.960 . S
C30 N28 1.346 . S
C30 N31 1.307 . S
C30 C32 1.486 . S
N31 N27 1.370 . S
N31 C30 1.307 . S
C32 C30 1.486 . S
C32 H36 0.960 . S
C32 H37 0.960 . S
C32 H38 0.959 . S
H33 C29 0.960 . S
H34 C29 0.961 . S
H35 C29 0.960 . S
H36 C32 0.960 . S
H37 C32 0.960 . S
H38 C32 0.959 . S
C39 N40 1.317 . S
C39 N41 1.348 1_455 S
C39 C42 1.485 . S
N40 C39 1.317 . S
N40 N44 1.370 . S
N41 C39 1.348 1_655 S
N41 C43 1.346 1_655 S
C42 C39 1.485 . S
C42 H46 0.960 . S
C42 H47 0.961 . S
C42 H48 0.960 . S
C43 N41 1.346 1_455 S
C43 N44 1.307 . S
C43 C45 1.486 1_455 S
N44 N40 1.370 . S
N44 C43 1.307 . S
C45 C43 1.486 1_655 S
C45 H49 0.960 . S
C45 H50 0.960 . S
C45 H51 0.959 . S
H46 C42 0.960 . S
H47 C42 0.961 . S
H48 C42 0.960 . S
H49 C45 0.960 . S
H50 C45 0.960 . S
H51 C45 0.959 . S
C52 N53 1.317 . S
C52 N54 1.348 . S
C52 C55 1.485 . S
N53 C52 1.317 . S
N53 N57 1.370 . S
N54 C52 1.348 . S
N54 C56 1.346 . S
C55 C52 1.485 . S
C55 H59 0.960 . S
C55 H60 0.961 . S
C55 H61 0.960 . S
C56 N54 1.346 . S
C56 N57 1.307 . S
C56 C58 1.486 . S
N57 N53 1.370 . S
N57 C56 1.307 . S
C58 C56 1.486 . S
C58 H62 0.960 1_565 S
C58 H63 0.960 . S
C58 H64 0.959 . S
H59 C55 0.960 . S
H60 C55 0.961 . S
H61 C55 0.960 . S
H62 C58 0.960 1_545 S
H63 C58 0.960 . S
H64 C58 0.959 . S
C65 N66 1.317 . S
C65 N67 1.348 . S
C65 C68 1.485 . S
N66 C65 1.317 . S
N66 N70 1.370 . S
N67 C65 1.348 . S
N67 C69 1.346 . S
C68 C65 1.485 . S
C68 H72 0.960 . S
C68 H73 0.961 . S
C68 H74 0.960 . S
C69 N67 1.346 . S
C69 N70 1.307 . S
C69 C71 1.486 . S
N70 N66 1.370 . S
N70 C69 1.307 . S
C71 C69 1.486 . S
C71 H75 0.960 . S
C71 H76 0.960 1_565 S
C71 H77 0.959 . S
H72 C68 0.960 . S
H73 C68 0.961 . S
H74 C68 0.960 . S
H75 C71 0.960 . S
H76 C71 0.960 1_545 S
H77 C71 0.959 . S
C78 N79 1.317 . S
C78 N80 1.348 . S
C78 C81 1.485 . S
N79 C78 1.317 . S
N79 N83 1.370 . S
N80 C78 1.348 . S
N80 C82 1.346 . S
C81 C78 1.485 . S
C81 H85 0.960 . S
C81 H86 0.961 . S
C81 H87 0.960 . S
C82 N80 1.346 . S
C82 N83 1.307 . S
C82 C84 1.486 . S
N83 N79 1.370 . S
N83 C82 1.307 . S
C84 C82 1.486 . S
C84 H88 0.960 1_655 S
C84 H89 0.960 . S
C84 H90 0.959 . S
H85 C81 0.960 . S
H86 C81 0.961 . S
H87 C81 0.960 . S
H88 C84 0.960 1_455 S
H89 C84 0.960 . S
H90 C84 0.959 . S
C91 N92 1.317 . S
C91 N93 1.348 . S
C91 C94 1.485 . S
N92 C91 1.317 . S
N92 N96 1.370 . S
N93 C91 1.348 . S
N93 C95 1.346 . S
C94 C91 1.485 . S
C94 H98 0.960 . S
C94 H99 0.961 . S
C94 H100 0.960 . S
C95 N93 1.346 . S
C95 N96 1.307 . S
C95 C97 1.486 . S
N96 N92 1.370 . S
N96 C95 1.307 . S
C97 C95 1.486 . S
C97 H101 0.960 . S
C97 H102 0.960 . S
C97 H103 0.959 . S
H98 C94 0.960 . S
H99 C94 0.961 . S
H100 C94 0.960 . S
H101 C97 0.960 . S
H102 C97 0.960 . S
H103 C97 0.959 . S
C104 N105 1.317 . S
C104 N106 1.348 . S
C104 C107 1.485 . S
N105 C104 1.317 . S
N105 N109 1.370 . S
N106 C104 1.348 . S
N106 C108 1.346 . S
C107 C104 1.485 . S
C107 H111 0.960 . S
C107 H112 0.961 . S
C107 H113 0.960 . S
C108 N106 1.346 . S
C108 N109 1.307 . S
C108 C110 1.486 . S
N109 N105 1.370 . S
N109 C108 1.307 . S
C110 C108 1.486 . S
C110 H114 0.960 . S
C110 H115 0.960 . S
C110 H116 0.959 . S
H111 C107 0.960 . S
H112 C107 0.961 . S
H113 C107 0.960 . S
H114 C110 0.960 . S
H115 C110 0.960 . S
H116 C110 0.959 . S
C117 N118 1.317 . S
C117 N119 1.348 . S
C117 C120 1.485 1_556 S
N118 C117 1.317 . S
N118 N122 1.370 . S
N119 C117 1.348 . S
N119 C121 1.346 . S
C120 C117 1.485 1_554 S
C120 H124 0.960 . S
C120 H125 0.961 . S
C120 H126 0.960 . S
C121 N119 1.346 . S
C121 N122 1.307 . S
C121 C123 1.486 . S
N122 N118 1.370 . S
N122 C121 1.307 . S
C123 C121 1.486 . S
C123 H127 0.960 . S
C123 H128 0.960 . S
C123 H129 0.959 . S
H124 C120 0.960 . S
H125 C120 0.961 . S
H126 C120 0.960 . S
H127 C123 0.960 . S
H128 C123 0.960 . S
H129 C123 0.959 . S
C130 N131 1.317 1_554 S
C130 N132 1.348 1_554 S
C130 C133 1.485 . S
N131 C130 1.317 1_556 S
N131 N135 1.370 . S
N132 C130 1.348 1_556 S
N132 C134 1.346 . S
C133 C130 1.485 . S
C133 H137 0.960 . S
C133 H138 0.961 . S
C133 H139 0.960 . S
C134 N132 1.346 . S
C134 N135 1.307 . S
C134 C136 1.486 . S
N135 N131 1.370 . S
N135 C134 1.307 . S
C136 C134 1.486 . S
C136 H140 0.960 . S
C136 H141 0.960 . S
C136 H142 0.959 . S
H137 C133 0.960 . S
H138 C133 0.961 . S
H139 C133 0.960 . S
H140 C136 0.960 . S
H141 C136 0.960 . S
H142 C136 0.959 . S
C143 N144 1.317 1_554 S
C143 N145 1.348 1_554 S
C143 C146 1.485 . S
N144 C143 1.317 1_556 S
N144 N148 1.370 . S
N145 C143 1.348 1_556 S
N145 C147 1.346 . S
C146 C143 1.485 . S
C146 H150 0.960 . S
C146 H151 0.961 . S
C146 H152 0.960 . S
C147 N145 1.346 . S
C147 N148 1.307 . S
C147 C149 1.486 . S
N148 N144 1.370 . S
N148 C147 1.307 . S
C149 C147 1.486 . S
C149 H153 0.960 . S
C149 H154 0.960 . S
C149 H155 0.959 . S
H150 C146 0.960 . S
H151 C146 0.961 . S
H152 C146 0.960 . S
H153 C149 0.960 . S
H154 C149 0.960 . S
H155 C149 0.959 . S
C156 N157 1.317 . S
C156 N158 1.348 . S
C156 C159 1.485 1_554 S
N157 C156 1.317 . S
N157 N161 1.370 . S
N158 C156 1.348 . S
N158 C160 1.346 . S
C159 C156 1.485 1_556 S
C159 H163 0.960 . S
C159 H164 0.961 . S
C159 H165 0.960 . S
C160 N158 1.346 . S
C160 N161 1.307 . S
C160 C162 1.486 . S
N161 N157 1.370 . S
N161 C160 1.307 . S
C162 C160 1.486 . S
C162 H166 0.960 . S
C162 H167 0.960 . S
C162 H168 0.959 . S
H163 C159 0.960 . S
H164 C159 0.961 . S
H165 C159 0.960 . S
H166 C162 0.960 . S
H167 C162 0.960 . S
H168 C162 0.959 . S
C169 N170 1.317 . S
C169 N171 1.348 . S
C169 C172 1.485 1_554 S
N170 C169 1.317 . S
N170 N174 1.370 . S
N171 C169 1.348 . S
N171 C173 1.346 . S
C172 C169 1.485 1_556 S
C172 H176 0.960 . S
C172 H177 0.961 . S
C172 H178 0.960 . S
C173 N171 1.346 . S
C173 N174 1.307 . S
C173 C175 1.486 . S
N174 N170 1.370 . S
N174 C173 1.307 . S
C175 C173 1.486 . S
C175 H179 0.960 . S
C175 H180 0.960 . S
C175 H181 0.959 . S
H176 C172 0.960 . S
H177 C172 0.961 . S
H178 C172 0.960 . S
H179 C175 0.960 . S
H180 C175 0.960 . S
H181 C175 0.959 . S
C182 N183 1.317 . S
C182 N184 1.348 . S
C182 C185 1.485 1_554 S
N183 C182 1.317 . S
N183 N187 1.370 . S
N184 C182 1.348 . S
N184 C186 1.346 . S
C185 C182 1.485 1_556 S
C185 H189 0.960 . S
C185 H190 0.961 . S
C185 H191 0.960 . S
C186 N184 1.346 . S
C186 N187 1.307 . S
C186 C188 1.486 . S
N187 N183 1.370 . S
N187 C186 1.307 . S
C188 C186 1.486 . S
C188 H192 0.960 . S
C188 H193 0.960 . S
C188 H194 0.959 . S
H189 C185 0.960 . S
H190 C185 0.961 . S
H191 C185 0.960 . S
H192 C188 0.960 . S
H193 C188 0.960 . S
H194 C188 0.959 . S
C195 N196 1.317 . S
C195 N197 1.348 . S
C195 C198 1.485 . S
N196 C195 1.317 . S
N196 N200 1.370 . S
N197 C195 1.348 . S
N197 C199 1.346 . S
C198 C195 1.485 . S
C198 H202 0.960 . S
C198 H203 0.961 . S
C198 H204 0.960 . S
C199 N197 1.346 . S
C199 N200 1.307 . S
C199 C201 1.486 . S
N200 N196 1.370 . S
N200 C199 1.307 . S
C201 C199 1.486 . S
C201 H205 0.960 . S
C201 H206 0.960 . S
C201 H207 0.959 . S
H202 C198 0.960 . S
H203 C198 0.961 . S
H204 C198 0.960 . S
H205 C201 0.960 . S
H206 C201 0.960 . S
H207 C201 0.959 . S
C208 N209 1.317 . S
C208 N210 1.348 . S
C208 C211 1.485 . S
N209 C208 1.317 . S
N209 N213 1.370 . S
N210 C208 1.348 . S
N210 C212 1.346 . S
C211 C208 1.485 . S
C211 H215 0.960 . S
C211 H216 0.961 . S
C211 H217 0.960 . S
C212 N210 1.346 . S
C212 N213 1.307 . S
C212 C214 1.486 . S
N213 N209 1.370 . S
N213 C212 1.307 . S
C214 C212 1.486 . S
C214 H218 0.960 . S
C214 H219 0.960 1_455 S
C214 H220 0.959 . S
H215 C211 0.960 . S
H216 C211 0.961 . S
H217 C211 0.960 . S
H218 C214 0.960 . S
H219 C214 0.960 1_655 S
H220 C214 0.959 . S
C221 N222 1.317 . S
C221 N223 1.348 . S
C221 C224 1.485 . S
N222 C221 1.317 . S
N222 N226 1.370 . S
N223 C221 1.348 . S
N223 C225 1.346 . S
C224 C221 1.485 . S
C224 H228 0.960 . S
C224 H229 0.961 . S
C224 H230 0.960 . S
C225 N223 1.346 . S
C225 N226 1.307 . S
C225 C227 1.486 . S
N226 N222 1.370 . S
N226 C225 1.307 . S
C227 C225 1.486 . S
C227 H231 0.960 . S
C227 H232 0.960 . S
C227 H233 0.959 . S
H228 C224 0.960 . S
H229 C224 0.961 . S
H230 C224 0.960 . S
H231 C227 0.960 . S
H232 C227 0.960 . S
H233 C227 0.959 . S
Tb234 C244 2.825 1_565 S
Tb234 O245 2.347 1_565 S
Tb234 O248 2.366 1_565 S
Tb234 O253 2.418 . S
Tb234 O254 2.369 1_556 S
Tb234 O257 2.479 . S
Tb234 O258 2.471 1_565 S
Eu235 O246 2.418 . S
Eu235 O247 2.384 . S
Eu235 O250 2.479 . S
Eu235 O251 2.471 1_545 S
Eu235 O252 2.347 1_545 S
Eu235 O255 2.366 1_545 S
Eu235 C265 2.825 1_545 S
C236 O252 1.259 . S
C236 O253 1.265 1_554 S
C237 O254 1.276 . S
C237 O255 1.265 . S
C238 C240 1.389 . S
C238 C241 1.374 . S
C238 C244 1.507 . S
C239 C240 1.387 . S
C239 C243 1.387 . S
C239 H266 0.930 1_545 S
C240 C238 1.389 . S
C240 C239 1.387 . S
C240 H267 0.919 1_545 S
C241 C238 1.374 . S
C241 C242 1.390 . S
C241 H268 0.930 . S
C242 C241 1.390 . S
C242 C243 1.391 . S
C242 H269 0.930 . S
C243 C239 1.387 . S
C243 C242 1.391 . S
C244 Tb234 2.825 1_545 S
C244 C238 1.507 . S
C244 O257 1.238 1_545 S
C244 O258 1.247 . S
O245 Tb234 2.347 1_545 S
O245 C249 1.259 1_556 S
O246 Eu235 2.418 . S
O246 C249 1.265 . S
O247 Eu235 2.384 . S
O247 C256 1.255 1_554 S
O248 Tb234 2.366 1_545 S
O248 C256 1.265 . S
C249 O245 1.259 1_554 S
C249 O246 1.265 . S
O250 Eu235 2.479 . S
O250 C265 1.238 1_545 S
O251 Eu235 2.471 1_565 S
O251 C265 1.247 . S
O252 Eu235 2.347 1_565 S
O252 C236 1.259 . S
O253 Tb234 2.418 . S
O253 C236 1.265 1_556 S
O254 Tb234 2.369 1_554 S
O254 C237 1.276 . S
O255 Eu235 2.366 1_565 S
O255 C237 1.265 . S
C256 O247 1.255 1_556 S
C256 O248 1.265 . S
O257 Tb234 2.479 . S
O257 C244 1.238 1_565 S
O258 Tb234 2.471 1_545 S
O258 C244 1.247 . S
C259 C262 1.367 1_565 S
C259 C263 1.374 . S
C259 C265 1.507 . S
C260 C261 1.387 . S
C260 C264 1.391 . S
C261 C260 1.387 . S
C261 C262 1.381 1_565 S
C261 H270 0.930 1_565 S
C262 C259 1.367 1_545 S
C262 C261 1.381 1_545 S
C262 H271 0.947 . S
C263 C259 1.374 . S
C263 C264 1.390 . S
C263 H272 0.930 . S
C264 C260 1.391 . S
C264 C263 1.390 . S
C264 H273 0.930 . S
C265 Eu235 2.825 1_565 S
C265 O250 1.238 1_565 S
C265 O251 1.247 . S
C265 C259 1.507 . S
H266 C239 0.930 1_565 S
H267 C240 0.919 1_565 S
H268 C241 0.930 . S
H269 C242 0.930 . S
H270 C261 0.930 1_545 S
H271 C262 0.947 . S
H272 C263 0.930 . S
H273 C264 0.930 . S
Tb274 C284 2.825 . S
Tb274 O285 2.347 1_455 S
Tb274 O288 2.366 1_455 S
Tb274 O293 2.418 . S
Tb274 O294 2.384 1_556 S
Tb274 O297 2.479 . S
Tb274 O298 2.471 1_455 S
Eu275 O286 2.418 . S
Eu275 O287 2.384 1_554 S
Eu275 O290 2.479 . S
Eu275 O291 2.471 1_655 S
Eu275 O292 2.347 1_655 S
Eu275 O295 2.366 1_655 S
Eu275 C305 2.825 . S
C276 O292 1.259 . S
C276 O293 1.265 1_554 S
C277 O294 1.255 . S
C277 O295 1.265 . S
C278 C280 1.380 1_655 S
C278 C281 1.374 . S
C278 C284 1.507 1_655 S
C279 C280 1.384 . S
C279 C283 1.387 1_455 S
C279 H306 0.930 . S
C280 C278 1.380 1_455 S
C280 C279 1.384 . S
C280 H307 0.931 . S
C281 C278 1.374 . S
C281 C282 1.390 . S
C281 H308 0.930 . S
C282 C281 1.390 . S
C282 C283 1.391 . S
C282 H309 0.930 . S
C283 C279 1.387 1_655 S
C283 C282 1.391 . S
C284 Tb274 2.825 . S
C284 C278 1.507 1_455 S
C284 O297 1.238 . S
C284 O298 1.247 1_455 S
O285 Tb274 2.347 1_655 S
O285 C289 1.259 . S
O286 Eu275 2.418 . S
O286 C289 1.265 1_554 S
O287 Eu275 2.384 1_556 S
O287 C296 1.255 . S
O288 Tb274 2.366 1_655 S
O288 C296 1.265 . S
C289 O285 1.259 . S
C289 O286 1.265 1_556 S
O290 Eu275 2.479 . S
O290 C305 1.238 . S
O291 Eu275 2.471 1_455 S
O291 C305 1.247 1_455 S
O292 Eu275 2.347 1_455 S
O292 C276 1.259 . S
O293 Tb274 2.418 . S
O293 C276 1.265 1_556 S
O294 Tb274 2.384 1_554 S
O294 C277 1.255 . S
O295 Eu275 2.366 1_455 S
O295 C277 1.265 . S
C296 O287 1.255 . S
C296 O288 1.265 . S
O297 Tb274 2.479 . S
O297 C284 1.238 . S
O298 Tb274 2.471 1_655 S
O298 C284 1.247 1_655 S
C299 C302 1.380 1_455 S
C299 C303 1.374 . S
C299 C305 1.507 1_455 S
C300 C301 1.387 1_455 S
C300 C304 1.391 . S
C301 C300 1.387 1_655 S
C301 C302 1.384 . S
C301 H310 0.930 . S
C302 C299 1.380 1_655 S
C302 C301 1.384 . S
C302 H311 0.931 . S
C303 C299 1.374 . S
C303 C304 1.390 . S
C303 H312 0.930 . S
C304 C300 1.391 . S
C304 C303 1.390 . S
C304 H313 0.930 . S
C305 Eu275 2.825 . S
C305 O290 1.238 . S
C305 O291 1.247 1_655 S
C305 C299 1.507 1_655 S
H306 C279 0.930 . S
H307 C280 0.931 . S
H308 C281 0.930 . S
H309 C282 0.930 . S
H310 C301 0.930 . S
H311 C302 0.931 . S
H312 C303 0.930 . S
H313 C304 0.930 . S
Tb314 C324 2.825 . S
Tb314 O325 2.347 . S
Tb314 O328 2.366 . S
Tb314 O333 2.418 . S
Tb314 O334 2.384 . S
Tb314 O337 2.479 . S
Tb314 O338 2.471 . S
Eu315 O326 2.418 . S
Eu315 O327 2.384 1_556 S
Eu315 O330 2.479 . S
Eu315 O331 2.471 . S
Eu315 O332 2.347 . S
Eu315 O335 2.366 . S
Eu315 C345 2.825 . S
C316 O332 1.259 1_554 S
C316 O333 1.265 . S
C317 O334 1.255 1_556 S
C317 O335 1.265 . S
C318 C320 1.380 . S
C318 C321 1.374 . S
C318 C324 1.507 . S
C319 C320 1.384 . S
C319 C323 1.387 . S
C319 H346 0.930 . S
C320 C318 1.380 . S
C320 C319 1.384 . S
C320 H347 0.931 . S
C321 C318 1.374 . S
C321 C322 1.390 . S
C321 H348 0.930 . S
C322 C321 1.390 . S
C322 C323 1.391 . S
C322 H349 0.930 . S
C323 C319 1.387 . S
C323 C322 1.391 . S
C324 Tb314 2.825 . S
C324 C318 1.507 . S
C324 O337 1.238 . S
C324 O338 1.247 . S
O325 Tb314 2.347 . S
O325 C329 1.259 . S
O326 Eu315 2.418 . S
O326 C329 1.265 1_556 S
O327 Eu315 2.384 1_554 S
O327 C336 1.255 . S
O328 Tb314 2.366 . S
O328 C336 1.265 . S
C329 O325 1.259 . S
C329 O326 1.265 1_554 S
O330 Eu315 2.479 . S
O330 C345 1.238 . S
O331 Eu315 2.471 . S
O331 C345 1.247 . S
O332 Eu315 2.347 . S
O332 C316 1.259 1_556 S
O333 Tb314 2.418 . S
O333 C316 1.265 . S
O334 Tb314 2.384 . S
O334 C317 1.255 1_554 S
O335 Eu315 2.366 . S
O335 C317 1.265 . S
C336 O327 1.255 . S
C336 O328 1.265 . S
O337 Tb314 2.479 . S
O337 C324 1.238 . S
O338 Tb314 2.471 . S
O338 C324 1.247 . S
C339 C342 1.380 . S
C339 C343 1.374 . S
C339 C345 1.507 . S
C340 C341 1.387 . S
C340 C344 1.391 . S
C341 C340 1.387 . S
C341 C342 1.384 . S
C341 H350 0.930 . S
C342 C339 1.380 . S
C342 C341 1.384 . S
C342 H351 0.931 . S
C343 C339 1.374 . S
C343 C344 1.390 . S
C343 H352 0.930 . S
C344 C340 1.391 . S
C344 C343 1.390 . S
C344 H353 0.930 . S
C345 Eu315 2.825 . S
C345 O330 1.238 . S
C345 O331 1.247 . S
C345 C339 1.507 . S
H346 C319 0.930 . S
H347 C320 0.931 . S
H348 C321 0.930 . S
H349 C322 0.930 . S
H350 C341 0.930 . S
H351 C342 0.931 . S
H352 C343 0.930 . S
H353 C344 0.930 . S
Tb354 C364 2.825 . S
Tb354 O365 2.347 . S
Tb354 O368 2.366 . S
Tb354 O373 2.418 . S
Tb354 O374 2.384 . S
Tb354 O377 2.479 . S
Tb354 O378 2.471 . S
Eu355 O366 2.418 . S
Eu355 O367 2.384 . S
Eu355 O370 2.479 . S
Eu355 O371 2.471 . S
Eu355 O372 2.347 . S
Eu355 O375 2.366 . S
Eu355 C385 2.825 . S
C356 O372 1.259 . S
C356 O373 1.265 . S
C357 O374 1.255 . S
C357 O375 1.265 . S
C358 C360 1.380 . S
C358 C361 1.374 . S
C358 C364 1.507 . S
C359 C360 1.384 . S
C359 C363 1.387 . S
C359 H386 0.930 . S
C360 C358 1.380 . S
C360 C359 1.384 . S
C360 H387 0.931 . S
C361 C358 1.374 . S
C361 C362 1.390 . S
C361 H388 0.930 . S
C362 C361 1.390 . S
C362 C363 1.391 . S
C362 H389 0.930 . S
C363 C359 1.387 . S
C363 C362 1.391 . S
C364 Tb354 2.825 . S
C364 C358 1.507 . S
C364 O377 1.238 . S
C364 O378 1.247 . S
O365 Tb354 2.347 . S
O365 C369 1.259 . S
O366 Eu355 2.418 . S
O366 C369 1.265 . S
O367 Eu355 2.384 . S
O367 C376 1.255 . S
O368 Tb354 2.366 . S
O368 C376 1.265 . S
C369 O365 1.259 . S
C369 O366 1.265 . S
O370 Eu355 2.479 . S
O370 C385 1.238 . S
O371 Eu355 2.471 . S
O371 C385 1.247 . S
O372 Eu355 2.347 . S
O372 C356 1.259 . S
O373 Tb354 2.418 . S
O373 C356 1.265 . S
O374 Tb354 2.384 . S
O374 C357 1.255 . S
O375 Eu355 2.366 . S
O375 C357 1.265 . S
C376 O367 1.255 . S
C376 O368 1.265 . S
O377 Tb354 2.479 . S
O377 C364 1.238 . S
O378 Tb354 2.471 . S
O378 C364 1.247 . S
C379 C382 1.380 . S
C379 C383 1.374 . S
C379 C385 1.507 . S
C380 C381 1.387 . S
C380 C384 1.391 . S
C381 C380 1.387 . S
C381 C382 1.384 . S
C381 H390 0.930 . S
C382 C379 1.380 . S
C382 C381 1.384 . S
C382 H391 0.931 . S
C383 C379 1.374 . S
C383 C384 1.390 . S
C383 H392 0.930 . S
C384 C380 1.391 . S
C384 C383 1.390 . S
C384 H393 0.930 . S
C385 Eu355 2.825 . S
C385 O370 1.238 . S
C385 O371 1.247 . S
C385 C379 1.507 . S
H386 C359 0.930 . S
H387 C360 0.931 . S
H388 C361 0.930 . S
H389 C362 0.930 . S
H390 C381 0.930 . S
H391 C382 0.931 . S
H392 C383 0.930 . S
H393 C384 0.930 . S
Tb394 C404 2.825 . S
Tb394 O405 2.347 . S
Tb394 O408 2.366 . S
Tb394 O413 2.418 1_565 S
Tb394 O414 2.384 . S
Tb394 O417 2.479 . S
Tb394 O418 2.471 . S
Eu395 O406 2.418 . S
Eu395 O407 2.384 . S
Eu395 O410 2.479 . S
Eu395 O411 2.471 . S
Eu395 O412 2.347 . S
Eu395 O415 2.366 . S
Eu395 C425 2.825 . S
C396 O412 1.259 1_545 S
C396 O413 1.265 . S
C397 O414 1.255 . S
C397 O415 1.265 . S
C398 C400 1.380 . S
C398 C401 1.374 . S
C398 C404 1.507 . S
C399 C400 1.384 . S
C399 C403 1.387 . S
C399 H426 0.930 . S
C400 C398 1.380 . S
C400 C399 1.384 . S
C400 H427 0.931 . S
C401 C398 1.374 . S
C401 C402 1.390 . S
C401 H428 0.930 . S
C402 C401 1.390 . S
C402 C403 1.391 . S
C402 H429 0.930 . S
C403 C399 1.387 . S
C403 C402 1.391 . S
C404 Tb394 2.825 . S
C404 C398 1.507 . S
C404 O417 1.238 . S
C404 O418 1.247 . S
O405 Tb394 2.347 . S
O405 C409 1.259 . S
O406 Eu395 2.418 . S
O406 C409 1.265 . S
O407 Eu395 2.384 . S
O407 C416 1.255 . S
O408 Tb394 2.366 . S
O408 C416 1.265 . S
C409 O405 1.259 . S
C409 O406 1.265 . S
O410 Eu395 2.479 . S
O410 C425 1.238 . S
O411 Eu395 2.471 . S
O411 C425 1.247 . S
O412 Eu395 2.347 . S
O412 C396 1.259 1_565 S
O413 Tb394 2.418 1_545 S
O413 C396 1.265 . S
O414 Tb394 2.384 . S
O414 C397 1.255 . S
O415 Eu395 2.366 . S
O415 C397 1.265 . S
C416 O407 1.255 . S
C416 O408 1.265 . S
O417 Tb394 2.479 . S
O417 C404 1.238 . S
O418 Tb394 2.471 . S
O418 C404 1.247 . S
C419 C422 1.380 . S
C419 C423 1.374 . S
C419 C425 1.507 . S
C420 C421 1.387 . S
C420 C424 1.391 . S
C421 C420 1.387 . S
C421 C422 1.384 . S
C421 H430 0.930 . S
C422 C419 1.380 . S
C422 C421 1.384 . S
C422 H431 0.931 . S
C423 C419 1.374 . S
C423 C424 1.390 . S
C423 H432 0.930 . S
C424 C420 1.391 . S
C424 C423 1.390 . S
C424 H433 0.930 . S
C425 Eu395 2.825 . S
C425 O410 1.238 . S
C425 O411 1.247 . S
C425 C419 1.507 . S
H426 C399 0.930 . S
H427 C400 0.931 . S
H428 C401 0.930 . S
H429 C402 0.930 . S
H430 C421 0.930 . S
H431 C422 0.931 . S
H432 C423 0.930 . S
H433 C424 0.930 . S
Tb434 C444 2.825 . S
Tb434 O445 2.347 . S
Tb434 O448 2.366 . S
Tb434 O453 2.418 . S
Tb434 O454 2.384 . S
Tb434 O457 2.479 . S
Tb434 O458 2.471 . S
Eu435 O446 2.418 . S
Eu435 O447 2.384 . S
Eu435 O450 2.479 . S
Eu435 O451 2.471 . S
Eu435 O452 2.347 . S
Eu435 O455 2.366 . S
Eu435 C465 2.825 . S
C436 O452 1.259 . S
C436 O453 1.265 . S
C437 O454 1.255 . S
C437 O455 1.265 . S
C438 C440 1.380 . S
C438 C441 1.374 . S
C438 C444 1.507 . S
C439 C440 1.384 . S
C439 C443 1.387 . S
C439 H466 0.930 . S
C440 C438 1.380 . S
C440 C439 1.384 . S
C440 H467 0.931 . S
C441 C438 1.374 . S
C441 C442 1.390 . S
C441 H468 0.930 . S
C442 C441 1.390 . S
C442 C443 1.391 . S
C442 H469 0.930 . S
C443 C439 1.387 . S
C443 C442 1.391 . S
C444 Tb434 2.825 . S
C444 C438 1.507 . S
C444 O457 1.238 . S
C444 O458 1.247 . S
O445 Tb434 2.347 . S
O445 C449 1.259 . S
O446 Eu435 2.418 . S
O446 C449 1.265 . S
O447 Eu435 2.384 . S
O447 C456 1.255 . S
O448 Tb434 2.366 . S
O448 C456 1.265 . S
C449 O445 1.259 . S
C449 O446 1.265 . S
O450 Eu435 2.479 . S
O450 C465 1.238 . S
O451 Eu435 2.471 . S
O451 C465 1.247 . S
O452 Eu435 2.347 . S
O452 C436 1.259 . S
O453 Tb434 2.418 . S
O453 C436 1.265 . S
O454 Tb434 2.384 . S
O454 C437 1.255 . S
O455 Eu435 2.366 . S
O455 C437 1.265 . S
C456 O447 1.255 . S
C456 O448 1.265 . S
O457 Tb434 2.479 . S
O457 C444 1.238 . S
O458 Tb434 2.471 . S
O458 C444 1.247 . S
C459 C462 1.380 . S
C459 C463 1.374 . S
C459 C465 1.507 . S
C460 C461 1.387 . S
C460 C464 1.391 . S
C461 C460 1.387 . S
C461 C462 1.384 . S
C461 H470 0.930 . S
C462 C459 1.380 . S
C462 C461 1.384 . S
C462 H471 0.931 . S
C463 C459 1.374 . S
C463 C464 1.390 . S
C463 H472 0.930 . S
C464 C460 1.391 . S
C464 C463 1.390 . S
C464 H473 0.930 . S
C465 Eu435 2.825 . S
C465 O450 1.238 . S
C465 O451 1.247 . S
C465 C459 1.507 . S
H466 C439 0.930 . S
H467 C440 0.931 . S
H468 C441 0.930 . S
H469 C442 0.930 . S
H470 C461 0.930 . S
H471 C462 0.931 . S
H472 C463 0.930 . S
H473 C464 0.930 . S
Tb474 C484 2.825 . S
Tb474 O485 2.347 . S
Tb474 O488 2.366 . S
Tb474 O493 2.418 . S
Tb474 O494 2.384 . S
Tb474 O497 2.479 . S
Tb474 O498 2.471 . S
Eu475 O486 2.418 . S
Eu475 O487 2.384 . S
Eu475 O490 2.479 . S
Eu475 O491 2.471 . S
Eu475 O492 2.347 . S
Eu475 O495 2.366 . S
Eu475 C505 2.825 . S
C476 O492 1.259 . S
C476 O493 1.265 . S
C477 O494 1.255 . S
C477 O495 1.265 . S
C478 C480 1.380 . S
C478 C481 1.374 . S
C478 C484 1.507 . S
C479 C480 1.384 . S
C479 C483 1.387 . S
C479 H506 0.930 . S
C480 C478 1.380 . S
C480 C479 1.384 . S
C480 H507 0.931 . S
C481 C478 1.374 . S
C481 C482 1.390 . S
C481 H508 0.930 . S
C482 C481 1.390 . S
C482 C483 1.391 . S
C482 H509 0.930 . S
C483 C479 1.387 . S
C483 C482 1.391 . S
C484 Tb474 2.825 . S
C484 C478 1.507 . S
C484 O497 1.238 . S
C484 O498 1.247 . S
O485 Tb474 2.347 . S
O485 C489 1.259 . S
O486 Eu475 2.418 . S
O486 C489 1.265 . S
O487 Eu475 2.384 . S
O487 C496 1.255 1_655 S
O488 Tb474 2.366 . S
O488 C496 1.265 1_655 S
C489 O485 1.259 . S
C489 O486 1.265 . S
O490 Eu475 2.479 . S
O490 C505 1.238 . S
O491 Eu475 2.471 . S
O491 C505 1.247 . S
O492 Eu475 2.347 . S
O492 C476 1.259 . S
O493 Tb474 2.418 . S
O493 C476 1.265 . S
O494 Tb474 2.384 . S
O494 C477 1.255 . S
O495 Eu475 2.366 . S
O495 C477 1.265 . S
C496 O487 1.255 1_455 S
C496 O488 1.265 1_455 S
O497 Tb474 2.479 . S
O497 C484 1.238 . S
O498 Tb474 2.471 . S
O498 C484 1.247 . S
C499 C502 1.380 . S
C499 C503 1.374 . S
C499 C505 1.507 . S
C500 C501 1.387 . S
C500 C504 1.391 . S
C501 C500 1.387 . S
C501 C502 1.384 . S
C501 H510 0.930 . S
C502 C499 1.380 . S
C502 C501 1.384 . S
C502 H511 0.931 . S
C503 C499 1.374 . S
C503 C504 1.390 . S
C503 H512 0.930 . S
C504 C500 1.391 . S
C504 C503 1.390 . S
C504 H513 0.930 . S
C505 Eu475 2.825 . S
C505 O490 1.238 . S
C505 O491 1.247 . S
C505 C499 1.507 . S
H506 C479 0.930 . S
H507 C480 0.931 . S
H508 C481 0.930 . S
H509 C482 0.930 . S
H510 C501 0.930 . S
H511 C502 0.931 . S
H512 C503 0.930 . S
H513 C504 0.930 . S
Tb514 C524 2.825 . S
Tb514 O525 2.347 . S
Tb514 O528 2.366 . S
Tb514 O533 2.418 . S
Tb514 O534 2.384 . S
Tb514 O537 2.479 . S
Tb514 O538 2.471 . S
Eu515 O526 2.418 . S
Eu515 O527 2.384 . S
Eu515 O530 2.479 . S
Eu515 O531 2.471 . S
Eu515 O532 2.347 . S
Eu515 O535 2.366 . S
Eu515 C545 2.825 . S
C516 O532 1.259 . S
C516 O533 1.265 . S
C517 O534 1.255 . S
C517 O535 1.265 . S
C518 C520 1.380 . S
C518 C521 1.374 . S
C518 C524 1.507 . S
C519 C520 1.384 . S
C519 C523 1.387 . S
C519 H546 0.930 . S
C520 C518 1.380 . S
C520 C519 1.384 . S
C520 H547 0.931 . S
C521 C518 1.374 . S
C521 C522 1.390 . S
C521 H548 0.930 . S
C522 C521 1.390 . S
C522 C523 1.391 . S
C522 H549 0.930 . S
C523 C519 1.387 . S
C523 C522 1.391 . S
C524 Tb514 2.825 . S
C524 C518 1.507 . S
C524 O537 1.238 . S
C524 O538 1.247 . S
O525 Tb514 2.347 . S
O525 C529 1.259 . S
O526 Eu515 2.418 . S
O526 C529 1.265 . S
O527 Eu515 2.384 . S
O527 C536 1.255 . S
O528 Tb514 2.366 . S
O528 C536 1.265 . S
C529 O525 1.259 . S
C529 O526 1.265 . S
O530 Eu515 2.479 . S
O530 C545 1.238 . S
O531 Eu515 2.471 . S
O531 C545 1.247 . S
O532 Eu515 2.347 . S
O532 C516 1.259 . S
O533 Tb514 2.418 . S
O533 C516 1.265 . S
O534 Tb514 2.384 . S
O534 C517 1.255 . S
O535 Eu515 2.366 . S
O535 C517 1.265 . S
C536 O527 1.255 . S
C536 O528 1.265 . S
O537 Tb514 2.479 . S
O537 C524 1.238 . S
O538 Tb514 2.471 . S
O538 C524 1.247 . S
C539 C542 1.380 . S
C539 C543 1.374 . S
C539 C545 1.507 . S
C540 C541 1.387 . S
C540 C544 1.391 . S
C541 C540 1.387 . S
C541 C542 1.384 . S
C541 H550 0.930 . S
C542 C539 1.380 . S
C542 C541 1.384 . S
C542 H551 0.931 . S
C543 C539 1.374 . S
C543 C544 1.390 . S
C543 H552 0.930 . S
C544 C540 1.391 . S
C544 C543 1.390 . S
C544 H553 0.930 . S
C545 Eu515 2.825 . S
C545 O530 1.238 . S
C545 O531 1.247 . S
C545 C539 1.507 . S
H546 C519 0.930 . S
H547 C520 0.931 . S
H548 C521 0.930 . S
H549 C522 0.930 . S
H550 C541 0.930 . S
H551 C542 0.931 . S
H552 C543 0.930 . S
H553 C544 0.930 . S
Tb554 C564 2.825 . S
Tb554 O565 2.347 . S
Tb554 O568 2.366 . S
Tb554 O573 2.418 1_545 S
Tb554 O574 2.384 . S
Tb554 O577 2.479 . S
Tb554 O578 2.471 . S
Eu555 O566 2.418 . S
Eu555 O567 2.384 . S
Eu555 O570 2.479 . S
Eu555 O571 2.471 . S
Eu555 O572 2.347 . S
Eu555 O575 2.366 . S
Eu555 C585 2.825 . S
C556 O572 1.259 . S
C556 O573 1.265 1_545 S
C557 O574 1.255 . S
C557 O575 1.265 . S
C558 C560 1.380 . S
C558 C561 1.374 . S
C558 C564 1.507 . S
C559 C560 1.384 . S
C559 C563 1.387 . S
C559 H586 0.930 . S
C560 C558 1.380 . S
C560 C559 1.384 . S
C560 H587 0.931 . S
C561 C558 1.374 . S
C561 C562 1.390 . S
C561 H588 0.930 . S
C562 C561 1.390 . S
C562 C563 1.391 . S
C562 H589 0.930 . S
C563 C559 1.387 . S
C563 C562 1.391 . S
C564 Tb554 2.825 . S
C564 C558 1.507 . S
C564 O577 1.238 . S
C564 O578 1.247 . S
O565 Tb554 2.347 . S
O565 C569 1.259 . S
O566 Eu555 2.418 . S
O566 C569 1.265 . S
O567 Eu555 2.384 . S
O567 C576 1.255 . S
O568 Tb554 2.366 . S
O568 C576 1.265 . S
C569 O565 1.259 . S
C569 O566 1.265 . S
O570 Eu555 2.479 . S
O570 C585 1.238 . S
O571 Eu555 2.471 . S
O571 C585 1.247 . S
O572 Eu555 2.347 . S
O572 C556 1.259 . S
O573 Tb554 2.418 1_565 S
O573 C556 1.265 1_565 S
O574 Tb554 2.384 . S
O574 C557 1.255 . S
O575 Eu555 2.366 . S
O575 C557 1.265 . S
C576 O567 1.255 . S
C576 O568 1.265 . S
O577 Tb554 2.479 . S
O577 C564 1.238 . S
O578 Tb554 2.471 . S
O578 C564 1.247 . S
C579 C582 1.380 . S
C579 C583 1.374 . S
C579 C585 1.507 . S
C580 C581 1.387 . S
C580 C584 1.391 . S
C581 C580 1.387 . S
C581 C582 1.384 . S
C581 H590 0.930 . S
C582 C579 1.380 . S
C582 C581 1.384 . S
C582 H591 0.931 . S
C583 C579 1.374 . S
C583 C584 1.390 . S
C583 H592 0.930 . S
C584 C580 1.391 . S
C584 C583 1.390 . S
C584 H593 0.930 . S
C585 Eu555 2.825 . S
C585 O570 1.238 . S
C585 O571 1.247 . S
C585 C579 1.507 . S
H586 C559 0.930 . S
H587 C560 0.931 . S
H588 C561 0.930 . S
H589 C562 0.930 . S
H590 C581 0.930 . S
H591 C582 0.931 . S
H592 C583 0.930 . S
H593 C584 0.930 . S
N170 C237 2.309 . S
N184 C277 1.120 . S
N158 C329 1.742 . S
N145 C289 1.609 . S
C317 N119 0.703 . S
N131 C249 2.052 1_556 S
C256 N144 1.909 . S
C296 N118 1.799 . S
N132 C316 1.604 1_556 S
N171 C276 1.519 . S
N183 C336 1.354 . S
C236 N157 1.511 . S
C357 N14 2.309 1_455 S
N28 C397 1.121 . S
N2 C449 1.742 1_545 S
N223 C409 1.609 . S
N197 C437 0.703 . S
N209 C369 2.053 . S
N222 C376 1.909 . S
N196 C416 1.799 . S
C436 N210 1.603 . S
N15 C396 1.520 . S
C456 N27 1.353 1_455 S
N1 C356 1.511 . S
C477 N92 2.309 . S
N106 C517 1.120 . S
C569 N80 1.742 . S
C529 N67 1.609 1_545 S
C557 N41 0.703 . S
N53 C489 2.053 . S
N66 C496 1.909 . S
N40 C536 1.800 . S
C556 N54 1.603 1_545 S
N93 C516 1.520 . S
N105 C576 1.354 . S
N79 C476 1.511 . S
N200 C260 1.165 . S
C300 N213 2.048 . S
N226 C323 1.837 . S
N83 C283 2.272 . S
N96 C340 1.763 . S
C243 N109 1.848 . S
N44 C380 1.165 . S
N57 C420 2.048 . S
N70 C443 1.837 . S
N161 C403 2.272 . S
C460 N174 1.764 . S
N187 C363 1.848 . S
N122 C500 1.165 . S
N135 C540 2.048 . S
C563 N148 1.837 . S
N5 C523 2.272 . S
N18 C580 1.764 . S
N31 C483 1.848 . S
