# Generated by pormake.
# Topology zzz, (3,6)-cn, num edge types: 1
# Building blocks:
#     Node 0, Type 0, BuildingBlock: VETTIZ_charged_linker_0, # of connection points: 3
#     Node 1, Type 0, BuildingBlock: VETTIZ_charged_linker_0, # of connection points: 3
#     Node 2, Type 0, BuildingBlock: VETTIZ_charged_linker_0, # of connection points: 3
#     Node 3, Type 0, BuildingBlock: VETTIZ_charged_linker_0, # of connection points: 3
#     Node 4, Type 0, BuildingBlock: VETTIZ_charged_linker_0, # of connection points: 3
#     Node 5, Type 0, BuildingBlock: VETTIZ_charged_linker_0, # of connection points: 3
#     Node 6, Type 0, BuildingBlock: VETTIZ_charged_linker_0, # of connection points: 3
#     Node 7, Type 0, BuildingBlock: VETTIZ_charged_linker_0, # of connection points: 3
#     Node 8, Type 1, BuildingBlock: PAMTUU_clean_sbu_0, # of connection points: 6
#     Node 9, Type 1, BuildingBlock: PAMTUU_clean_sbu_0, # of connection points: 6
#     Node 10, Type 1, BuildingBlock: PAMTUU_clean_sbu_0, # of connection points: 6
#     Node 11, Type 1, BuildingBlock: PAMTUU_clean_sbu_0, # of connection points: 6
#     Edge 12, Type (0, 1), BuildingBlock: XUDNAN_clean_linker_2, # of connection points: 2
#     Edge 13, Type (0, 1), BuildingBlock: XUDNAN_clean_linker_2, # of connection points: 2
#     Edge 14, Type (0, 1), BuildingBlock: XUDNAN_clean_linker_2, # of connection points: 2
#     Edge 15, Type (0, 1), BuildingBlock: XUDNAN_clean_linker_2, # of connection points: 2
#     Edge 16, Type (0, 1), BuildingBlock: XUDNAN_clean_linker_2, # of connection points: 2
#     Edge 17, Type (0, 1), BuildingBlock: XUDNAN_clean_linker_2, # of connection points: 2
#     Edge 18, Type (0, 1), BuildingBlock: XUDNAN_clean_linker_2, # of connection points: 2
#     Edge 19, Type (0, 1), BuildingBlock: XUDNAN_clean_linker_2, # of connection points: 2
#     Edge 20, Type (0, 1), BuildingBlock: XUDNAN_clean_linker_2, # of connection points: 2
#     Edge 21, Type (0, 1), BuildingBlock: XUDNAN_clean_linker_2, # of connection points: 2
#     Edge 22, Type (0, 1), BuildingBlock: XUDNAN_clean_linker_2, # of connection points: 2
#     Edge 23, Type (0, 1), BuildingBlock: XUDNAN_clean_linker_2, # of connection points: 2
#     Edge 24, Type (0, 1), BuildingBlock: XUDNAN_clean_linker_2, # of connection points: 2
#     Edge 25, Type (0, 1), BuildingBlock: XUDNAN_clean_linker_2, # of connection points: 2
#     Edge 26, Type (0, 1), BuildingBlock: XUDNAN_clean_linker_2, # of connection points: 2
#     Edge 27, Type (0, 1), BuildingBlock: XUDNAN_clean_linker_2, # of connection points: 2
#     Edge 28, Type (0, 1), BuildingBlock: XUDNAN_clean_linker_2, # of connection points: 2
#     Edge 29, Type (0, 1), BuildingBlock: XUDNAN_clean_linker_2, # of connection points: 2
#     Edge 30, Type (0, 1), BuildingBlock: XUDNAN_clean_linker_2, # of connection points: 2
#     Edge 31, Type (0, 1), BuildingBlock: XUDNAN_clean_linker_2, # of connection points: 2
#     Edge 32, Type (0, 1), BuildingBlock: XUDNAN_clean_linker_2, # of connection points: 2
#     Edge 33, Type (0, 1), BuildingBlock: XUDNAN_clean_linker_2, # of connection points: 2
#     Edge 34, Type (0, 1), BuildingBlock: XUDNAN_clean_linker_2, # of connection points: 2
#     Edge 35, Type (0, 1), BuildingBlock: XUDNAN_clean_linker_2, # of connection points: 2
# Relax obj value: 0.390
# Max RMSD: 0.266
# Mean RMSD: 0.224
data_MOF--net-zzz--node1-PAMTUU_clean_sbu_0--node2-VETTIZ_charged_linker_0--edge1-XUDNAN_clean_linker_2
_symmetry_space_group_name_H-M    P1
_symmetry_Int_Tables_number       1
_symmetry_cell_setting            triclinic
loop_
_symmetry_equiv_pos_as_xyz
'x, y, z'
_cell_length_a     56.960941
_cell_length_b     61.089383
_cell_length_c     20.565539
_cell_angle_alpha  98.80347
_cell_angle_beta   90.013271
_cell_angle_gamma 89.606066
loop_
_atom_site_label
_atom_site_type_symbol
_atom_site_fract_x
_atom_site_fract_y
_atom_site_fract_z
_atom_type_partial_charge
C0 C 0.82594 0.49299 0.43672 0.0
C1 C 0.8506 0.49639 0.44508 0.0
C2 C 0.86311 0.50443 0.39506 0.0
C3 C 0.82744 0.507 0.33193 0.0
C4 C 0.81473 0.49802 0.37853 0.0
C5 C 0.78897 0.49509 0.35718 0.0
H6 H 0.70846 0.50812 0.11077 0.0
C7 C 0.81134 0.512 0.27952 0.0
C8 C 0.78851 0.50474 0.29228 0.0
H9 H 0.69149 0.48124 0.28639 0.0
H10 H 0.73269 0.48615 0.32374 0.0
H11 H 0.732 0.54746 0.18773 0.0
H12 H 0.75777 0.48689 0.07797 0.0
H13 H 0.77648 0.50744 0.05774 0.0
H14 H 0.74559 0.50913 0.04078 0.0
H15 H 0.73537 0.54407 0.10017 0.0
H16 H 0.75863 0.55507 0.15535 0.0
C17 C 0.77308 0.50845 0.40954 0.0
C18 C 0.78318 0.47024 0.34604 0.0
C19 C 0.84507 0.54713 0.09131 0.0
C20 C 0.835 0.55196 0.03256 0.0
C21 C 0.81045 0.55215 0.02635 0.0
C22 C 0.79626 0.54533 0.07479 0.0
C23 C 0.80673 0.53807 0.12987 0.0
C24 C 0.83062 0.54008 0.139 0.0
C25 C 0.83867 0.5312 0.19968 0.0
C26 C 0.81568 0.52293 0.22447 0.0
C27 C 0.7973 0.52663 0.18261 0.0
C28 C 0.84876 0.55093 0.24776 0.0
C29 C 0.85631 0.51189 0.17828 0.0
C30 C 0.71356 0.5026 0.15647 0.0
C31 C 0.69683 0.49375 0.19431 0.0
C32 C 0.7042 0.4876 0.25503 0.0
C33 C 0.72799 0.49062 0.27683 0.0
C34 C 0.74438 0.50028 0.23816 0.0
C35 C 0.73645 0.5062 0.17946 0.0
C36 C 0.75411 0.51845 0.14634 0.0
C37 C 0.77479 0.51804 0.19171 0.0
C38 C 0.76977 0.50727 0.24627 0.0
C39 C 0.74463 0.54245 0.14675 0.0
C40 C 0.75876 0.50503 0.07694 0.0
H41 H 0.86267 0.51629 0.30457 0.0
H42 H 0.8158 0.48672 0.47429 0.0
H43 H 0.79593 0.46091 0.31114 0.0
H44 H 0.76548 0.46703 0.32501 0.0
H45 H 0.78406 0.46346 0.39314 0.0
H46 H 0.77894 0.52596 0.4201 0.0
H47 H 0.77366 0.50137 0.45617 0.0
H48 H 0.75463 0.50858 0.39295 0.0
H49 H 0.86396 0.54648 0.09705 0.0
H50 H 0.80239 0.55579 0.98144 0.0
H51 H 0.77783 0.54451 0.06471 0.0
H52 H 0.8386 0.56639 0.24503 0.0
H53 H 0.86732 0.55408 0.23566 0.0
H54 H 0.84758 0.54866 0.29989 0.0
H55 H 0.85295 0.50373 0.12697 0.0
H56 H 0.85473 0.49832 0.20798 0.0
H57 H 0.87471 0.51786 0.18045 0.0
H58 H 0.88184 0.50727 0.4001 0.0
C59 C 0.8518 0.50984 0.33945 0.0
C60 C 0.07488 0.75483 0.05776 0.0
C61 C 0.06947 0.77607 0.04398 0.0
C62 C 0.05367 0.78965 0.08499 0.0
C63 C 0.05056 0.76173 0.15574 0.0
C64 C 0.06472 0.74779 0.11306 0.0
C65 C 0.06742 0.72533 0.13371 0.0
H66 H 1.00865 0.65234 0.27456 0.0
C67 C 0.0441 0.75014 0.21067 0.0
C68 C 0.05304 0.72854 0.19719 0.0
H69 H 0.06381 0.64189 0.12734 0.0
H70 H 0.07511 0.67984 0.15442 0.0
H71 H 0.04406 0.69866 0.39631 0.0
H72 H 0.98922 0.70446 0.25263 0.0
H73 H 0.98633 0.7159 0.33834 0.0
H74 H 0.98403 0.68647 0.31292 0.0
H75 H 0.02394 0.67586 0.38381 0.0
H76 H 1.0133 0.70218 0.41919 0.0
C77 C 0.09371 0.72163 0.14787 0.0
C78 C 0.05706 0.70765 0.07876 0.0
C79 C 1.01254 0.79437 0.4188 0.0
C80 C 1.01361 0.79016 0.48398 0.0
C81 C 0.01744 0.76807 0.49473 0.0
C82 C 0.02069 0.75078 0.44142 0.0
C83 C 0.0195 0.75541 0.37675 0.0
C84 C 1.0165 0.77716 0.36663 0.0
C85 C 0.02361 0.78044 0.29839 0.0
C86 C 0.03223 0.75738 0.27065 0.0
C87 C 0.02805 0.74241 0.3146 0.0
C88 C 0.04366 0.79777 0.30418 0.0
C89 C 1.00144 0.78701 0.26193 0.0
C90 C 0.02297 0.65834 0.24767 0.0
C91 C 0.03491 0.64392 0.19754 0.0
C92 C 0.05409 0.65227 0.16567 0.0
C93 C 0.06027 0.67448 0.17952 0.0
C94 C 0.04685 0.68886 0.2241 0.0
C95 C 0.02974 0.68082 0.26138 0.0
C96 C 0.01998 0.69919 0.3128 0.0
C97 C 0.03307 0.71944 0.29521 0.0
C98 C 0.04708 0.71301 0.23921 0.0
C99 C 0.02578 0.69386 0.38193 0.0
C100 C 0.99331 0.70162 0.30357 0.0
H101 H 0.03264 0.79382 0.17076 0.0
H102 H 0.08671 0.744 0.02629 0.0
H103 H 0.04059 0.70047 0.09484 0.0
H104 H 0.06975 0.69405 0.06258 0.0
H105 H 0.05245 0.71458 0.03344 0.0
H106 H 0.10152 0.73689 0.17583 0.0
H107 H 0.10374 0.71729 0.10128 0.0
H108 H 0.09652 0.7085 0.1786 0.0
H109 H 1.01126 0.8112 0.40852 0.0
H110 H 0.01917 0.76435 0.54433 0.0
H111 H 0.02627 0.73488 0.45178 0.0
H112 H 0.05599 0.79525 0.34441 0.0
H113 H 0.03655 0.81491 0.31531 0.0
H114 H 0.05476 0.79669 0.26003 0.0
H115 H 0.98528 0.77998 0.28073 0.0
H116 H 1.00179 0.78035 0.20877 0.0
H117 H 0.99914 0.80529 0.26839 0.0
H118 H 0.04938 0.80617 0.07535 0.0
C119 C 0.04414 0.78257 0.14064 0.0
C120 C 0.84786 0.99137 0.19292 0.0
C121 C 0.8596 0.99845 0.13821 0.0
C122 C 0.84735 0.01282 0.10271 0.0
C123 C 0.81485 0.01588 0.17922 0.0
C124 C 0.82514 1.00028 0.21229 0.0
C125 C 0.80874 0.99528 0.26746 0.0
H126 H 0.70056 0.02025 0.42195 0.0
C127 C 0.79258 0.02363 0.21173 0.0
C128 C 0.78807 0.01151 0.26346 0.0
H129 H 0.74923 0.97068 0.46875 0.0
H130 H 0.77697 0.9805 0.38619 0.0
H131 H 0.73802 0.05582 0.42493 0.0
H132 H 0.70637 0.01242 0.26565 0.0
H133 H 0.70672 0.03907 0.24334 0.0
H134 H 0.6911 0.03463 0.31606 0.0
H135 H 0.71029 0.06233 0.39122 0.0
H136 H 0.73769 0.07101 0.3592 0.0
C137 C 0.82153 1.0002 0.33392 0.0
C138 C 0.80086 0.971 0.25155 0.0
C139 C 0.75014 0.0868 0.12645 0.0
C140 C 0.72896 0.098 0.14389 0.0
C141 C 0.71689 0.09368 0.20038 0.0
C142 C 0.72506 0.07746 0.23635 0.0
C143 C 0.74551 0.06532 0.21564 0.0
C144 C 0.75796 0.07058 0.16272 0.0
C145 C 0.77904 0.05597 0.14697 0.0
C146 C 0.77742 0.04109 0.19975 0.0
C147 C 0.75753 0.04632 0.23874 0.0
C148 C 0.80099 0.07108 0.15558 0.0
C149 C 0.77557 0.04273 0.07671 0.0
C150 C 0.7169 0.01106 0.41381 0.0
C151 C 0.7222 0.99425 0.4508 0.0
C152 C 0.74438 0.9835 0.44022 0.0
C153 C 0.76041 0.98911 0.39216 0.0
C154 C 0.75447 0.00591 0.35487 0.0
C155 C 0.73305 0.01671 0.36773 0.0
C156 C 0.72961 0.03525 0.32914 0.0
C157 C 0.75169 0.03337 0.28789 0.0
C158 C 0.7667 0.01606 0.30166 0.0
C159 C 0.72867 0.05729 0.37824 0.0
C160 C 0.70725 0.03033 0.28642 0.0
H161 H 0.81814 0.03285 0.09367 0.0
H162 H 0.85624 0.97969 0.22025 0.0
H163 H 0.79327 0.96765 0.2012 0.0
H164 H 0.78728 0.96698 0.28598 0.0
H165 H 0.81601 0.95958 0.25376 0.0
H166 H 0.8286 0.01732 0.34128 0.0
H167 H 0.83643 0.98848 0.33588 0.0
H168 H 0.80963 0.99887 0.37553 0.0
H169 H 0.75978 0.08971 0.08318 0.0
H170 H 0.70028 0.10181 0.21431 0.0
H171 H 0.71449 0.07435 0.27701 0.0
H172 H 0.7985 0.085 0.19681 0.0
H173 H 0.80445 0.07843 0.11037 0.0
H174 H 0.81702 0.06254 0.1689 0.0
H175 H 0.7567 0.04139 0.06267 0.0
H176 H 0.78158 0.02529 0.07286 0.0
H177 H 0.7847 0.05075 0.03896 0.0
H178 H 0.85471 0.01761 0.05845 0.0
C179 C 0.82557 0.02159 0.12297 0.0
C180 C 0.55653 0.73412 0.37762 0.0
C181 C 0.56898 0.71519 0.39136 0.0
C182 C 0.58903 0.70802 0.35362 0.0
C183 C 0.57952 0.73313 0.27842 0.0
C184 C 0.5627 0.7433 0.32095 0.0
C185 C 0.5519 0.76279 0.29376 0.0
H186 H 0.53758 0.81511 0.02762 0.0
C187 C 0.57782 0.74159 0.21595 0.0
C188 C 0.56458 0.7612 0.22708 0.0
H189 H 0.55908 0.84876 0.21881 0.0
H190 H 0.56478 0.81303 0.2557 0.0
H191 H 0.5806 0.78278 0.01957 0.0
H192 H 0.50931 0.77054 0.07672 0.0
H193 H 0.52063 0.74655 0.02841 0.0
H194 H 0.51705 0.77159 0.99263 0.0
H195 H 0.55619 0.78239 0.96393 0.0
H196 H 0.57051 0.75725 0.9769 0.0
C197 C 0.55693 0.78429 0.34095 0.0
C198 C 0.52526 0.75939 0.28413 0.0
C199 C 0.57937 0.68048 0.02116 0.0
C200 C 0.5673 0.67722 0.96087 0.0
C201 C 0.55568 0.69551 0.94056 0.0
C202 C 0.55557 0.71635 0.98091 0.0
C203 C 0.5669 0.71883 0.04251 0.0
C204 C 0.57831 0.7009 0.06175 0.0
C205 C 0.5875 0.70546 0.13091 0.0
C206 C 0.57876 0.72909 0.15165 0.0
C207 C 0.56737 0.737 0.09901 0.0
C208 C 0.61459 0.7044 0.12761 0.0
C209 C 0.57678 0.68859 0.17211 0.0
C210 C 0.54251 0.81506 0.07842 0.0
C211 C 0.54707 0.83502 0.12067 0.0
C212 C 0.55418 0.8339 0.18608 0.0
C213 C 0.5568 0.8134 0.20848 0.0
C214 C 0.55146 0.79391 0.16617 0.0
C215 C 0.54561 0.79477 0.10133 0.0
C216 C 0.54741 0.77225 0.05936 0.0
C217 C 0.5575 0.75861 0.10876 0.0
C218 C 0.55748 0.77094 0.17198 0.0
C219 C 0.56449 0.7736 1.00156 0.0
C220 C 0.52238 0.76475 0.0375 0.0
H221 H 0.60965 0.71106 0.26917 0.0
H222 H 0.5417 0.74063 0.40757 0.0
H223 H 0.52164 0.7434 0.25207 0.0
H224 H 0.51747 0.77296 0.26062 0.0
H225 H 0.51634 0.75933 0.33214 0.0
H226 H 0.5529 0.78224 0.39255 0.0
H227 H 0.54555 0.79802 0.32972 0.0
H228 H 0.57569 0.78897 0.33845 0.0
H229 H 0.5881 0.6669 0.03961 0.0
H230 H 0.54626 0.69359 0.89431 0.0
H231 H 0.54625 0.72961 0.9634 0.0
H232 H 0.62129 0.7131 0.08768 0.0
H233 H 0.62082 0.68693 0.11766 0.0
H234 H 0.62285 0.71264 0.17336 0.0
H235 H 0.57087 0.67305 0.14162 0.0
H236 H 0.56105 0.69554 0.20009 0.0
H237 H 0.58976 0.68307 0.20637 0.0
H238 H 0.59969 0.69441 0.36549 0.0
C239 C 0.59455 0.71721 0.29762 0.0
C240 C 0.33922 0.49349 0.38412 0.0
C241 C 0.35524 0.50454 0.43116 0.0
C242 C 0.35219 0.52739 0.45179 0.0
C243 C 0.31669 0.52762 0.38709 0.0
C244 C 0.32027 0.50564 0.36131 0.0
C245 C 0.30212 0.49818 0.30779 0.0
H246 H 0.19778 0.52463 0.16256 0.0
C247 C 0.29483 0.53554 0.35971 0.0
C248 C 0.28609 0.51871 0.31122 0.0
H249 H 0.23955 0.46601 0.10127 0.0
H250 H 0.26834 0.47841 0.18758 0.0
H251 H 0.20304 0.52549 0.31359 0.0
H252 H 0.23937 0.5573 0.17204 0.0
H253 H 0.23735 0.57731 0.24279 0.0
H254 H 0.21084 0.566 0.20319 0.0
H255 H 0.19135 0.54933 0.28348 0.0
H256 H 0.20973 0.55178 0.35561 0.0
C257 C 0.28879 0.47799 0.32501 0.0
C258 C 0.31507 0.49326 0.24132 0.0
C259 C 0.25523 0.60338 0.48733 0.0
C260 C 0.23277 0.61257 0.482 0.0
C261 C 0.22011 0.60683 0.42304 0.0
C262 C 0.22845 0.59029 0.37367 0.0
C263 C 0.24959 0.57924 0.38341 0.0
C264 C 0.26323 0.58668 0.43766 0.0
C265 C 0.28536 0.57322 0.43921 0.0
C266 C 0.2816 0.55519 0.38005 0.0
C267 C 0.26054 0.55875 0.34823 0.0
C268 C 0.28585 0.56378 0.50508 0.0
C269 C 0.30644 0.58839 0.42929 0.0
C270 C 0.21296 0.51425 0.16775 0.0
C271 C 0.21607 0.49419 0.12547 0.0
C272 C 0.23658 0.48155 0.13336 0.0
C273 C 0.25335 0.48882 0.18313 0.0
C274 C 0.25001 0.50926 0.22449 0.0
C275 C 0.23001 0.52151 0.21531 0.0
C276 C 0.22901 0.5431 0.26046 0.0
C277 C 0.25184 0.54236 0.29779 0.0
C278 C 0.26435 0.52237 0.27824 0.0
C279 C 0.20716 0.54266 0.30552 0.0
C280 C 0.22895 0.56202 0.21789 0.0
H281 H 0.3319 0.55608 0.44906 0.0
H282 H 0.34147 0.47603 0.36571 0.0
H283 H 0.32716 0.50702 0.23523 0.0
H284 H 0.30295 0.49163 0.19911 0.0
H285 H 0.32565 0.47779 0.23837 0.0
H286 H 0.2813 0.48174 0.37544 0.0
H287 H 0.30074 0.46346 0.32321 0.0
H288 H 0.27409 0.47329 0.29082 0.0
H289 H 0.26542 0.60779 0.53182 0.0
H290 H 0.20271 0.61359 0.41758 0.0
H291 H 0.21727 0.58577 0.33189 0.0
H292 H 0.2686 0.55636 0.51422 0.0
H293 H 0.28956 0.57703 0.54706 0.0
H294 H 0.29899 0.55058 0.50639 0.0
H295 H 0.30087 0.60413 0.41267 0.0
H296 H 0.31858 0.58042 0.39034 0.0
H297 H 0.31645 0.59301 0.47568 0.0
H298 H 0.36407 0.53638 0.4873 0.0
C299 C 0.33326 0.53887 0.42996 0.0
C300 C 0.93775 0.20578 0.47942 0.0
C301 C 0.92589 0.18555 0.46368 0.0
C302 C 0.92588 0.17474 0.39808 0.0
C303 C 0.9522 0.2023 0.36727 0.0
C304 C 0.95046 0.21401 0.43007 0.0
C305 C 0.9643 0.23514 0.43748 0.0
H306 H 0.03909 0.3033 0.31071 0.0
C307 C 0.96908 0.21376 0.32998 0.0
C308 C 0.97573 0.23334 0.36988 0.0
H309 H 1.00275 0.31335 0.49773 0.0
H310 H 0.98473 0.27785 0.47196 0.0
H311 H 0.04824 0.23567 0.23635 0.0
H312 H 0.99535 0.27916 0.21915 0.0
H313 H 1.00917 0.25736 0.16587 0.0
H314 H 0.02564 0.28174 0.19709 0.0
H315 H 0.05149 0.24906 0.31806 0.0
H316 H 0.05725 0.26417 0.2514 0.0
C317 C 0.98276 0.23435 0.49246 0.0
C318 C 0.94673 0.25488 0.45072 0.0
C319 C 1.0015 0.1719 0.11834 0.0
C320 C 0.01892 0.17613 0.07404 0.0
C321 C 0.02948 0.19721 0.08243 0.0
C322 C 0.02337 0.21345 0.1365 0.0
C323 C 1.00647 0.20852 0.18217 0.0
C324 C 0.9956 0.1881 0.17136 0.0
C325 C 0.97781 0.18534 0.22291 0.0
C326 C 0.98027 0.20712 0.26853 0.0
C327 C 0.9971 0.22082 0.2451 0.0
C328 C 0.98555 0.16528 0.25603 0.0
C329 C 0.95323 0.18295 0.18991 0.0
C330 C 0.02717 0.29772 0.34569 0.0
C331 C 0.02244 0.31112 0.40663 0.0
C332 C 1.00696 0.30328 0.45105 0.0
C333 C 0.99629 0.28267 0.43574 0.0
C334 C 1.00112 0.26943 0.37531 0.0
C335 C 1.01644 0.27677 0.33131 0.0
C336 C 0.0197 0.25963 0.27038 0.0
C337 C 1.00285 0.24153 0.28404 0.0
C338 C 0.99223 0.24753 0.34607 0.0
C339 C 0.04554 0.25169 0.26828 0.0
C340 C 1.01221 0.26994 0.20952 0.0
H341 H 0.93899 0.17353 0.30156 0.0
H342 H 0.93777 0.21452 0.52938 0.0
H343 H 0.95128 0.26848 0.4231 0.0
H344 H 0.94566 0.26156 0.504 0.0
H345 H 0.92866 0.25 0.434 0.0
H346 H 0.99092 0.21759 0.48813 0.0
H347 H 0.97456 0.23812 0.54195 0.0
H348 H 0.99751 0.24581 0.48995 0.0
H349 H 0.99269 0.15605 0.11209 0.0
H350 H 0.0428 0.20089 0.04821 0.0
H351 H 0.03209 0.22913 0.14102 0.0
H352 H 1.00472 0.16592 0.26646 0.0
H353 H 0.98193 0.14941 0.22351 0.0
H354 H 0.97704 0.16472 0.30378 0.0
H355 H 0.95283 0.18978 0.14276 0.0
H356 H 0.93949 0.19244 0.22059 0.0
H357 H 0.94794 0.1653 0.1788 0.0
H358 H 0.917 0.15906 0.38491 0.0
C359 C 0.93892 0.18303 0.34985 0.0
C360 C 0.32929 0.00318 0.13338 0.0
C361 C 0.35128 0.01294 0.12039 0.0
C362 C 0.3588 0.03144 0.16513 0.0
C363 C 0.32628 0.02772 0.23761 0.0
C364 C 0.31668 0.0114 0.19219 0.0
C365 C 0.29203 0.0058 0.21483 0.0
H366 H 0.21003 0.02757 0.46799 0.0
C367 C 0.31095 0.03236 0.29509 0.0
C368 C 0.28973 0.02087 0.28209 0.0
H369 H 0.20024 0.98143 0.28915 0.0
H370 H 0.23897 0.99125 0.25009 0.0
H371 H 0.2503 0.01246 0.50496 0.0
H372 H 0.23648 0.06678 0.41025 0.0
H373 H 0.25917 0.0747 0.46742 0.0
H374 H 0.23231 0.06358 0.49492 0.0
H375 H 0.25676 0.03899 0.54816 0.0
H376 H 0.27934 0.02182 0.50371 0.0
C377 C 0.29127 0.98113 0.22204 0.0
C378 C 0.27389 0.01194 0.16506 0.0
C379 C 0.34798 0.04956 0.51831 0.0
C380 C 0.33791 0.05259 0.58174 0.0
C381 C 0.3144 0.05985 0.58918 0.0
C382 C 0.30038 0.06089 0.53373 0.0
C383 C 0.30978 0.05377 0.4709 0.0
C384 C 0.33357 0.05028 0.46352 0.0
C385 C 0.34067 0.04542 0.39221 0.0
C386 C 0.31645 0.04307 0.35921 0.0
C387 C 0.29863 0.04678 0.40646 0.0
C388 C 0.35494 0.02355 0.3793 0.0
C389 C 0.35503 0.06539 0.37626 0.0
C390 C 0.21593 0.01922 0.4205 0.0
C391 C 0.20182 0.00341 0.38279 0.0
C392 C 0.21054 0.99372 0.32006 0.0
C393 C 0.23306 0.99935 0.29737 0.0
C394 C 0.24717 0.01476 0.33776 0.0
C395 C 0.23827 0.02407 0.39851 0.0
C396 C 0.25555 0.03831 0.43953 0.0
C397 C 0.27619 0.03724 0.39266 0.0
C398 C 0.2716 0.02358 0.33193 0.0
C399 C 0.26085 0.02754 0.50223 0.0
C400 C 0.24538 0.06213 0.45438 0.0
H401 H 0.3513 0.0543 0.25131 0.0
H402 H 0.32213 0.98977 0.09873 0.0
H403 H 0.27628 0.02938 0.15705 0.0
H404 H 0.25571 0.01047 0.18239 0.0
H405 H 0.27592 0.00103 0.1169 0.0
H406 H 0.30568 0.97701 0.25473 0.0
H407 H 0.2934 0.97055 0.17337 0.0
H408 H 0.27455 0.97675 0.24385 0.0
H409 H 0.36617 0.04463 0.51081 0.0
H410 H 0.30647 0.06324 0.63758 0.0
H411 H 0.28247 0.06608 0.54157 0.0
H412 H 0.34478 0.0097 0.39455 0.0
H413 H 0.37179 0.02504 0.40669 0.0
H414 H 0.35943 0.01905 0.32656 0.0
H415 H 0.36332 0.0748 0.42088 0.0
H416 H 0.34375 0.07725 0.35432 0.0
H417 H 0.36998 0.06 0.34292 0.0
H418 H 0.37492 0.03993 0.15715 0.0
C419 C 0.34604 0.03917 0.22199 0.0
C420 C 0.4725 0.24551 0.23609 0.0
C421 C 0.46058 0.26599 0.23729 0.0
C422 C 0.44632 0.274 0.29214 0.0
C423 C 0.46316 0.24684 0.35094 0.0
C424 C 0.47276 0.23573 0.29388 0.0
C425 C 0.4847 0.21463 0.30693 0.0
H426 H 0.51997 0.15478 0.54393 0.0
C427 C 0.47215 0.23725 0.4066 0.0
C428 C 0.48084 0.21612 0.38153 0.0
H429 H 0.47541 0.12861 0.37996 0.0
H430 H 0.47087 0.16579 0.35232 0.0
H431 H 0.54961 0.19135 0.46282 0.0
H432 H 0.48949 0.19733 0.59302 0.0
H433 H 0.51088 0.21793 0.61866 0.0
H434 H 0.51837 0.1894 0.6168 0.0
H435 H 0.55295 0.19402 0.5504 0.0
H436 H 0.54951 0.21797 0.50933 0.0
C437 C 0.51106 0.21519 0.29031 0.0
C438 C 0.47285 0.19458 0.26589 0.0
C439 C 0.50837 0.29568 0.57674 0.0
C440 C 0.52908 0.29567 0.61377 0.0
C441 C 0.53956 0.27517 0.62089 0.0
C442 C 0.53016 0.25518 0.58857 0.0
C443 C 0.51032 0.25574 0.54807 0.0
C444 C 0.49994 0.27583 0.54212 0.0
C445 C 0.48058 0.27373 0.49183 0.0
C446 C 0.48211 0.24902 0.4652 0.0
C447 C 0.49893 0.23855 0.50033 0.0
C448 C 0.48588 0.28889 0.43944 0.0
C449 C 0.45718 0.27974 0.52815 0.0
C450 C 0.51046 0.15656 0.49949 0.0
C451 C 0.49854 0.1384 0.46355 0.0
C452 C 0.48509 0.142 0.4082 0.0
C453 C 0.48319 0.16319 0.39005 0.0
C454 C 0.49583 0.18068 0.42506 0.0
C455 C 0.50857 0.17756 0.48014 0.0
C456 C 0.51664 0.19937 0.51838 0.0
C457 C 0.50369 0.21562 0.48182 0.0
C458 C 0.4937 0.2045 0.42413 0.0
C459 C 0.54359 0.20084 0.51048 0.0
C460 C 0.5085 0.20119 0.59075 0.0
H461 H 0.43736 0.27129 0.39156 0.0
H462 H 0.48265 0.2383 0.19359 0.0
H463 H 0.47124 0.19707 0.21365 0.0
H464 H 0.45496 0.19207 0.28486 0.0
H465 H 0.48359 0.17936 0.2658 0.0
H466 H 0.51943 0.23017 0.31811 0.0
H467 H 0.51372 0.21538 0.23687 0.0
H468 H 0.52019 0.20034 0.30344 0.0
H469 H 0.49934 0.31105 0.57252 0.0
H470 H 0.55546 0.27461 0.64949 0.0
H471 H 0.53892 0.24006 0.59501 0.0
H472 H 0.49565 0.30404 0.45983 0.0
H473 H 0.46962 0.29529 0.41954 0.0
H474 H 0.49671 0.28009 0.3985 0.0
H475 H 0.45543 0.27077 0.57105 0.0
H476 H 0.44187 0.27518 0.49622 0.0
H477 H 0.45622 0.29782 0.54644 0.0
H478 H 0.43568 0.2888 0.29265 0.0
C479 C 0.44747 0.2643 0.34922 0.0
Tb480 Tb 1.01052 0.99024 0.71316 0.0
Tb481 Tb 0.05311 0.98178 0.81053 0.0
C482 C 1.00097 0.98258 0.85743 0.0
C483 C 0.96059 0.01868 0.65046 0.0
C484 C 0.93433 0.05807 0.65529 0.0
C485 C 0.9314 0.04053 0.60296 0.0
C486 C 0.9445 0.021 0.60055 0.0
C487 C 0.96275 0.03565 0.70442 0.0
C488 C 0.94971 0.0552 0.70683 0.0
C489 C 0.97642 0.99946 0.64381 0.0
O490 O 0.02494 0.02298 0.74835 0.0
O491 O 0.04305 0.01606 0.84285 0.0
O492 O 0.06829 0.99472 0.7262 0.0
O493 O 0.04108 0.98116 0.64986 0.0
O494 O 0.06717 0.98062 0.90457 0.0
O495 O 0.08887 0.97427 0.81785 0.0
O496 O 0.0472 0.94934 0.75348 0.0
O497 O 1.0111 0.95421 0.70727 0.0
O498 O 0.99687 0.9958 0.81397 0.0
O499 O 0.02072 0.97116 0.85469 0.0
C500 C 0.03428 0.02993 0.80626 0.0
O501 O 0.99823 0.00371 0.63159 0.0
O502 O 0.97471 0.98696 0.68954 0.0
C503 C 0.06252 0.98811 0.66446 0.0
C504 C 0.09419 0.95057 0.89525 0.0
C505 C 0.10312 0.90522 0.89501 0.0
C506 C 0.11993 0.91843 0.87007 0.0
C507 C 0.11548 0.94098 0.87022 0.0
C508 C 0.07818 0.93764 0.92438 0.0
C509 C 0.08267 0.91524 0.92452 0.0
C510 C 0.08704 0.97241 0.87983 0.0
C511 C 0.0284 0.94136 0.72153 0.0
H512 H 0.91999 0.04235 0.56197 0.0
H513 H 0.94272 0.00807 0.5585 0.0
H514 H 0.97513 0.03407 0.74349 0.0
H515 H 0.95225 0.06836 0.74788 0.0
H516 H 0.13592 0.91114 0.84757 0.0
H517 H 0.12803 0.95064 0.84722 0.0
H518 H 0.0616 0.94446 0.94411 0.0
H519 H 0.06973 0.90558 0.94608 0.0
Tb520 Tb 0.52964 0.96377 0.73128 0.0
Tb521 Tb 0.54259 0.00791 0.83232 0.0
C522 C 0.54709 0.96086 0.87161 0.0
C523 C 0.48834 0.92666 0.64949 0.0
C524 C 0.44259 0.94371 0.66095 0.0
C525 C 0.45167 0.93275 0.71049 0.0
C526 C 0.47447 0.92411 0.70468 0.0
C527 C 0.47731 0.93338 0.59471 0.0
C528 C 0.45458 0.9421 0.60067 0.0
C529 C 0.51385 0.93055 0.6583 0.0
O530 O 0.50005 0.96842 0.80018 0.0
O531 O 0.50426 0.0051 0.84221 0.0
O532 O 0.54102 0.01656 0.73451 0.0
O533 O 0.51231 0.99227 0.69835 0.0
O534 O 0.56244 0.0246 0.91027 0.0
O535 O 0.53463 0.0413 0.86495 0.0
O536 O 0.57649 0.99611 0.78724 0.0
O537 O 0.56378 0.97302 0.69481 0.0
O538 O 0.5511 0.95357 0.80919 0.0
O539 O 0.53943 0.98115 0.89003 0.0
C540 C 0.49172 0.98684 0.83407 0.0
O541 O 0.52161 0.94801 0.63574 0.0
O542 O 0.522 0.92972 0.71712 0.0
C543 C 0.52349 0.01078 0.69491 0.0
C544 C 0.56721 0.06242 0.90467 0.0
C545 C 0.60052 0.09631 0.90781 0.0
C546 C 0.59681 0.08132 0.8496 0.0
C547 C 0.58029 0.06441 0.84812 0.0
C548 C 0.5696 0.07819 0.96103 0.0
C549 C 0.58609 0.09501 0.96269 0.0
C550 C 0.55189 0.04345 0.90699 0.0
C551 C 0.5805 0.98461 0.72825 0.0
H552 H 0.44243 0.9333 0.75673 0.0
H553 H 0.48216 0.91834 0.74722 0.0
H554 H 0.48733 0.93503 0.55095 0.0
H555 H 0.44751 0.94992 0.56096 0.0
H556 H 0.60752 0.08196 0.80643 0.0
H557 H 0.5784 0.0524 0.80387 0.0
H558 H 0.55948 0.0769 1.0049 0.0
H559 H 0.58867 0.10592 1.00878 0.0
Tb560 Tb 0.50745 0.47703 0.86951 0.0
Tb561 Tb 0.53758 0.50177 0.7642 0.0
C562 C 0.48597 0.48512 0.73047 0.0
C563 C 0.48403 0.43588 0.96827 0.0
C564 C 0.48302 0.39342 1.0063 0.0
C565 C 0.49744 0.39753 0.95401 0.0
C566 C 0.498 0.41862 0.93529 0.0
C567 C 0.46977 0.43189 0.02053 0.0
C568 C 0.46927 0.41089 0.03946 0.0
C569 C 0.48327 0.45775 0.94673 0.0
O570 O 0.52361 0.45051 0.80263 0.0
O571 O 0.55168 0.46807 0.74707 0.0
O572 O 0.55762 0.50353 0.85648 0.0
O573 O 0.54404 0.4738 0.90065 0.0
O574 O 0.561 0.52795 0.76346 0.0
O575 O 0.54786 0.51016 0.67234 0.0
O576 O 0.50863 0.52215 0.80715 0.0
O577 O 0.50995 0.51226 0.90749 0.0
O578 O 0.48251 0.48418 0.79355 0.0
O579 O 0.50688 0.48892 0.70728 0.0
C580 C 0.54202 0.45019 0.764 0.0
O581 O 0.50041 0.47119 0.96599 0.0
O582 O 0.4784 0.4576 0.88487 0.0
C583 C 0.56006 0.48903 0.89752 0.0
C584 C 0.55555 0.54916 0.6779 0.0
C585 C 0.5502 0.59096 0.63522 0.0
C586 C 0.56447 0.58858 0.68951 0.0
C587 C 0.56711 0.56799 0.71048 0.0
C588 C 0.54107 0.55148 0.62394 0.0
C589 C 0.53844 0.57216 0.60286 0.0
C590 C 0.55959 0.52739 0.7001 0.0
C591 C 0.50781 0.52786 0.87067 0.0
H592 H 0.5084 0.3845 0.92793 0.0
H593 H 0.50915 0.42142 0.89469 0.0
H594 H 0.45876 0.44497 0.04619 0.0
H595 H 0.45774 0.40822 0.07932 0.0
H596 H 0.57404 0.60257 0.71512 0.0
H597 H 0.57851 0.56674 0.75197 0.0
H598 H 0.53192 0.53735 0.59767 0.0
H599 H 0.52717 0.57343 0.56116 0.0
Tb600 Tb 0.04295 0.50331 0.73549 0.0
Tb601 Tb 0.02473 0.46341 0.80748 0.0
C602 C 0.02384 0.51205 0.87762 0.0
C603 C 0.07258 0.55355 0.69141 0.0
C604 C 0.1052 0.58837 0.70828 0.0
C605 C 0.10398 0.57349 0.75415 0.0
C606 C 0.08774 0.55618 0.74578 0.0
C607 C 0.07305 0.56882 0.6473 0.0
C608 C 0.08919 0.58606 0.65554 0.0
C609 C 0.05632 0.53491 0.67899 0.0
O610 O 0.07477 0.49122 0.78009 0.0
O611 O 0.05868 0.47124 0.85563 0.0
O612 O 0.04914 0.45029 0.73039 0.0
O613 O 0.03859 0.47397 0.66117 0.0
O614 O 1.01301 0.45004 0.88993 0.0
O615 O 1.01502 0.42984 0.79474 0.0
O616 O 0.99693 0.46868 0.73678 0.0
O617 O 1.00453 0.50479 0.72926 0.0
O618 O 0.0414 0.51585 0.83989 0.0
O619 O 1.01081 0.49435 0.86226 0.0
C620 C 0.07675 0.48097 0.83211 0.0
O621 O 0.06569 0.51512 0.66859 0.0
O622 O 0.03823 0.53595 0.71805 0.0
C623 C 0.04611 0.45434 0.67035 0.0
C624 C 0.97909 0.43061 0.85189 0.0
C625 C 0.93832 0.45562 0.84581 0.0
C626 C 0.94685 0.45169 0.90706 0.0
C627 C 0.96704 0.43884 0.91014 0.0
C628 C 0.96723 0.43021 0.79137 0.0
C629 C 0.94706 0.44312 0.78824 0.0
C630 C 1.00496 0.43248 0.8524 0.0
C631 C 0.99027 0.48778 0.72073 0.0
H632 H 0.116 0.57486 0.79537 0.0
H633 H 0.08737 0.54458 0.7807 0.0
H634 H 0.06135 0.56704 0.60528 0.0
H635 H 0.08991 0.59684 0.61843 0.0
H636 H 0.93989 0.46095 0.95218 0.0
H637 H 0.97537 0.43886 0.95753 0.0
H638 H 0.97553 0.4232 0.7454 0.0
H639 H 0.94033 0.44562 0.74063 0.0
H640 H 0.19086 1.00081 0.51283 0.0
H641 H 0.15954 0.99255 0.31826 0.0
H642 H 0.12088 0.98651 0.36777 0.0
H643 H 0.15523 0.96122 0.58198 0.0
H644 H 0.15352 0.97812 0.66178 0.0
H645 H 0.17875 0.9799 0.61009 0.0
H646 H 0.17208 0.02219 0.61799 0.0
H647 H 0.14679 0.02054 0.66949 0.0
H648 H 0.14403 0.03246 0.59488 0.0
H649 H 0.0846 0.98296 0.4418 0.0
H650 H 0.05532 0.98213 0.53029 0.0
H651 H 0.11047 0.99504 0.6763 0.0
C652 C 0.17597 0.99787 0.48009 0.0
C653 C 0.17856 0.99743 0.41101 0.0
C654 C 0.15837 0.99284 0.37092 0.0
C655 C 0.13621 0.98953 0.39885 0.0
C656 C 0.1343 0.99082 0.46724 0.0
C657 C 0.15377 0.99483 0.50715 0.0
C658 C 0.14716 0.99623 0.57935 0.0
C659 C 0.15939 0.97777 0.61009 0.0
C660 C 0.15285 0.01922 0.61767 0.0
C661 C 0.12083 0.99258 0.57434 0.0
C662 C 0.11371 0.98929 0.50926 0.0
C663 C 0.09013 0.98552 0.49273 0.0
C664 C 0.07355 0.98509 0.54357 0.0
C665 C 0.08037 0.98861 0.61077 0.0
C666 C 0.10447 0.99241 0.62576 0.0
H667 H 0.53457 0.11862 0.5239 0.0
H668 H 0.46237 0.1083 0.4588 0.0
H669 H 0.46187 0.07298 0.50259 0.0
H670 H 0.55357 0.06098 0.49618 0.0
H671 H 0.57117 0.06392 0.56981 0.0
H672 H 0.56668 0.08729 0.52723 0.0
H673 H 0.55052 0.11034 0.63443 0.0
H674 H 0.55501 0.08708 0.67727 0.0
H675 H 0.52636 0.09976 0.67662 0.0
H676 H 0.46872 0.03924 0.55876 0.0
H677 H 0.48178 0.01124 0.62701 0.0
H678 H 0.54836 0.04522 0.66033 0.0
C679 C 0.51861 0.109 0.51856 0.0
C680 C 0.49861 0.11636 0.48694 0.0
C681 C 0.47821 0.10296 0.48103 0.0
C682 C 0.47766 0.08285 0.50627 0.0
C683 C 0.49759 0.07631 0.53774 0.0
C684 C 0.51765 0.08906 0.54416 0.0
C685 C 0.53622 0.07908 0.58367 0.0
C686 C 0.55821 0.07242 0.5417 0.0
C687 C 0.54238 0.09501 0.64673 0.0
C688 C 0.52336 0.05891 0.59926 0.0
C689 C 0.50122 0.05738 0.57173 0.0
C690 C 0.48604 0.04021 0.58049 0.0
C691 C 0.49361 0.02438 0.61915 0.0
C692 C 0.51602 0.02607 0.64923 0.0
C693 C 0.53107 0.04346 0.63824 0.0
H694 H 0.40209 0.5153 0.44211 0.0
H695 H 0.35108 0.46969 0.5 0.0
H696 H 0.37981 0.45805 0.57887 0.0
H697 H 0.45534 0.47992 0.45927 0.0
H698 H 0.47292 0.50373 0.48964 0.0
H699 H 0.44942 0.50614 0.43237 0.0
H700 H 0.43143 0.53829 0.51416 0.0
H701 H 0.45459 0.53574 0.5721 0.0
H702 H 0.42437 0.53387 0.5966 0.0
H703 H 0.41213 0.45609 0.66459 0.0
H704 H 0.44677 0.45996 0.73804 0.0
H705 H 0.47796 0.50528 0.62046 0.0
C706 C 0.39728 0.50224 0.46964 0.0
C707 C 0.37434 0.49316 0.46399 0.0
C708 C 0.36861 0.47651 0.50213 0.0
C709 C 0.3848 0.46999 0.54768 0.0
C710 C 0.40689 0.47999 0.554 0.0
C711 C 0.41334 0.49537 0.5147 0.0
C712 C 0.43775 0.50434 0.53284 0.0
C713 C 0.45487 0.49816 0.47509 0.0
C714 C 0.43697 0.52955 0.55525 0.0
C715 C 0.44384 0.4921 0.58974 0.0
C716 C 0.42574 0.47822 0.60144 0.0
C717 C 0.42655 0.46655 0.65475 0.0
C718 C 0.44629 0.46895 0.69656 0.0
C719 C 0.46531 0.48269 0.68481 0.0
C720 C 0.46399 0.49428 0.63016 0.0
H721 H 0.04414 0.32723 0.52175 0.0
H722 H 0.02235 0.3458 0.33583 0.0
H723 H 0.03123 0.38508 0.37855 0.0
H724 H 0.01746 0.36994 0.61982 0.0
H725 H 0.03977 0.37392 0.68259 0.0
H726 H 0.03629 0.34722 0.63326 0.0
H727 H 0.07996 0.34721 0.59776 0.0
H728 H 0.08368 0.3739 0.64773 0.0
H729 H 0.09113 0.37013 0.56154 0.0
H730 H 0.03607 0.423 0.44939 0.0
H731 H 0.03813 0.45517 0.53847 0.0
H732 H 0.05683 0.41106 0.67699 0.0
C733 C 0.04197 0.33949 0.4893 0.0
C734 C 0.03269 0.33351 0.42538 0.0
C735 C 0.0298 0.35 0.38456 0.0
C736 C 0.03469 0.37235 0.40862 0.0
C737 C 0.04278 0.37783 0.47321 0.0
C738 C 0.04676 0.36173 0.51251 0.0
C739 C 0.0533 0.37184 0.58192 0.0
C740 C 0.03565 0.36535 0.63231 0.0
C741 C 0.07852 0.36539 0.59817 0.0
C742 C 0.05147 0.39621 0.57659 0.0
C743 C 0.04566 0.39945 0.51347 0.0
C744 C 0.04112 0.42062 0.49857 0.0
C745 C 0.0423 0.43882 0.54955 0.0
C746 C 0.04783 0.43573 0.61475 0.0
C747 C 0.0529 0.41412 0.62764 0.0
H748 H 0.89302 0.02465 0.09304 0.0
H749 H 0.88203 0.95711 0.12653 0.0
H750 H 0.91921 0.94591 0.06654 0.0
H751 H 0.90959 0.01034 0.92886 0.0
H752 H 0.93025 0.0326 0.92974 0.0
H753 H 0.90566 0.03574 0.98533 0.0
H754 H 0.93388 0.04469 0.08449 0.0
H755 H 0.9586 0.04173 0.02911 0.0
H756 H 0.9573 0.02559 0.0954 0.0
H757 H 0.95753 0.9422 0.99338 0.0
H758 H 0.98962 0.94586 0.91398 0.0
H759 H 0.97113 0.01493 0.91814 0.0
C760 C 0.89838 0.00745 0.0886 0.0
C761 C 0.8842 0.99176 0.11466 0.0
C762 C 0.89246 0.96958 0.10806 0.0
C763 C 0.91355 0.96305 0.0734 0.0
C764 C 0.92626 0.97884 0.04517 0.0
C765 C 0.91878 1.00063 0.05268 0.0
C766 C 0.93379 0.01421 0.01282 0.0
C767 C 0.91894 0.02378 0.96114 0.0
C768 C 0.94665 0.03264 0.05817 0.0
C769 C 0.95086 0.99672 0.98055 0.0
C770 C 0.94672 0.97649 1.00077 0.0
C771 C 0.96071 0.95801 0.97752 0.0
C772 C 0.97899 0.96024 0.93242 0.0
C773 C 0.98289 0.98064 0.90931 0.0
C774 C 0.96857 0.99906 0.93429 0.0
H775 H 0.55927 0.84364 0.99683 0.0
H776 H 0.5332 0.87576 0.18646 0.0
H777 H 0.53282 0.91163 0.14527 0.0
H778 H 0.5959 0.88775 0.96054 0.0
H779 H 0.58871 0.88372 0.87419 0.0
H780 H 0.58793 0.86064 0.91919 0.0
H781 H 0.54475 0.85297 0.88362 0.0
H782 H 0.54546 0.87589 0.83805 0.0
H783 H 0.52325 0.87493 0.89993 0.0
H784 H 0.53481 0.94401 0.08301 0.0
H785 H 0.5367 0.97008 1.00288 0.0
H786 H 0.55972 0.91659 0.85197 0.0
C787 C 0.55317 0.85809 0.02975 0.0
C788 C 0.54628 0.8567 0.09526 0.0
C789 C 0.53892 0.8763 0.13655 0.0
C790 C 0.53855 0.89678 0.11347 0.0
C791 C 0.54547 0.89748 0.04881 0.0
C792 C 0.55246 0.87863 1.00737 0.0
C793 C 0.5583 0.88375 0.93932 0.0
C794 C 0.58425 0.87866 0.92234 0.0
C795 C 0.54196 0.87114 0.88716 0.0
C796 C 0.55339 0.90846 0.94884 0.0
C797 C 0.54621 0.91606 0.01254 0.0
C798 C 0.54043 0.93823 0.03303 0.0
C799 C 0.54164 0.95294 0.98703 0.0
C800 C 0.54842 0.94547 0.92093 0.0
C801 C 0.55461 0.92291 0.90208 0.0
H802 H 0.66592 0.46026 0.13803 0.0
H803 H 0.6723 0.53131 0.19442 0.0
H804 H 0.63799 0.53716 0.12635 0.0
H805 H 0.64872 0.45922 0.97621 0.0
H806 H 0.62647 0.43821 0.97224 0.0
H807 H 0.65022 0.43863 0.03026 0.0
H808 H 0.62066 0.44044 0.12631 0.0
H809 H 0.59677 0.43953 0.06842 0.0
H810 H 0.59837 0.46178 0.13679 0.0
H811 H 0.61078 0.53574 0.03184 0.0
H812 H 0.5822 0.52772 0.94286 0.0
H813 H 0.58453 0.45795 0.9612 0.0
C814 C 0.65932 0.47695 0.13859 0.0
C815 C 0.67179 0.49538 0.17256 0.0
C816 C 0.66294 0.51698 0.17001 0.0
C817 C 0.64358 0.52048 0.13071 0.0
C818 C 0.63245 0.50219 0.09538 0.0
C819 C 0.63914 0.48079 0.10112 0.0
C820 C 0.62344 0.46433 0.05756 0.0
C821 C 0.6381 0.4492 1.00602 0.0
C822 C 0.60894 0.45071 0.09979 0.0
C823 C 0.60769 0.4799 0.0249 0.0
C824 C 0.61385 0.50162 0.0466 0.0
C825 C 0.60476 0.51893 0.01735 0.0
C826 C 0.58823 0.51418 0.96676 0.0
C827 C 0.57957 0.49245 0.94751 0.0
C828 C 0.58982 0.47493 0.97672 0.0
H829 H 0.06243 0.60723 0.15973 0.0
H830 H 0.98968 0.62869 0.17578 0.0
H831 H 0.97786 0.59345 0.10801 0.0
H832 H 0.06011 0.58937 0.99584 0.0
H833 H 0.08024 0.56642 0.99482 0.0
H834 H 0.08227 0.58993 0.05867 0.0
H835 H 0.07804 0.56436 0.14751 0.0
H836 H 0.07621 0.54069 0.08362 0.0
H837 H 0.05333 0.54593 0.14463 0.0
H838 H 0.9749 0.55802 0.02303 0.0
H839 H 0.98135 0.52771 0.92941 0.0
H840 H 0.05641 0.53264 0.96099 0.0
C841 C 0.04391 0.60434 0.15057 0.0
C842 C 0.02701 0.62084 0.17317 0.0
C843 C 1.00296 0.61623 0.1601 0.0
C844 C 0.99611 0.59627 0.12114 0.0
C845 C 1.01349 0.58107 0.0957 0.0
C846 C 0.03693 0.58492 0.11043 0.0
C847 C 0.05264 0.56798 0.06987 0.0
C848 C 0.0698 0.5791 0.02729 0.0
C849 C 0.06583 0.5539 0.1141 0.0
C850 C 0.03453 0.5544 0.02806 0.0
C851 C 1.01197 0.5617 0.0447 0.0
C852 C 0.9925 0.55207 0.01037 0.0
C853 C 0.99628 0.53485 0.95736 0.0
C854 C 0.01935 0.52793 0.93822 0.0
C855 C 0.03858 0.53765 0.97473 0.0
H856 H 0.95009 0.17579 0.56837 0.0
H857 H 0.88282 0.1665 0.47082 0.0
H858 H 0.87331 0.13706 0.53628 0.0
H859 H 0.96403 0.124 0.55309 0.0
H860 H 0.97891 0.12368 0.63034 0.0
H861 H 0.97704 0.1489 0.59626 0.0
H862 H 0.95741 0.16877 0.70294 0.0
H863 H 0.95951 0.14352 0.73806 0.0
H864 H 0.9315 0.15717 0.73427 0.0
H865 H 0.87572 0.10291 0.58626 0.0
H866 H 0.88962 0.06752 0.61697 0.0
H867 H 0.95595 0.09803 0.67993 0.0
C868 C 0.93278 0.16848 0.56406 0.0
C869 C 0.91699 0.17357 0.5157 0.0
C870 C 0.89494 0.16298 0.50853 0.0
C871 C 0.88941 0.14629 0.54565 0.0
C872 C 0.90609 0.14048 0.58983 0.0
C873 C 0.92725 0.15153 0.6 0.0
C874 C 0.94402 0.13946 0.63962 0.0
C875 C 0.96734 0.13366 0.60256 0.0
C876 C 0.94835 0.15304 0.70778 0.0
C877 C 0.92984 0.11896 0.64508 0.0
C878 C 0.9077 0.1202 0.61816 0.0
C879 C 0.89272 0.10201 0.60927 0.0
C880 C 0.90082 0.08192 0.62632 0.0
C881 C 0.9238 0.0801 0.65124 0.0
C882 C 0.93804 0.09911 0.66296 0.0
H883 H 0.38459 0.05534 0.61312 0.0
H884 H 0.31904 0.02727 0.66666 0.0
H885 H 0.34075 1.00018 0.7202 0.0
H886 H 0.4073 0.0099 0.55219 0.0
H887 H 0.43756 0.01346 0.57637 0.0
H888 H 0.41964 0.03728 0.57027 0.0
H889 H 0.42749 0.05432 0.69052 0.0
H890 H 0.44697 0.03147 0.69819 0.0
H891 H 0.42313 0.03802 0.75551 0.0
H892 H 0.36797 0.96925 0.73383 0.0
H893 H 0.39857 0.93983 0.71402 0.0
H894 H 0.44609 0.98651 0.646 0.0
C895 C 0.37487 0.04425 0.63932 0.0
C896 C 0.35018 0.04337 0.63532 0.0
C897 C 0.33797 0.02855 0.6697 0.0
C898 C 0.35022 0.01293 0.70014 0.0
C899 C 0.37464 0.01253 0.69652 0.0
C900 C 0.38692 0.02826 0.66849 0.0
C901 C 0.41242 0.02164 0.65768 0.0
C902 C 0.41961 0.02051 0.58487 0.0
C903 C 0.42845 0.0373 0.7032 0.0
C904 C 0.41201 0.99892 0.67791 0.0
C905 C 0.39037 0.99416 0.70243 0.0
C906 C 0.38518 0.97303 0.71648 0.0
C907 C 0.40248 0.95636 0.70446 0.0
C908 C 0.42432 0.96092 0.67712 0.0
C909 C 0.42929 0.98259 0.66587 0.0
H910 H 0.53169 0.33312 0.55621 0.0
H911 H 0.55067 0.30713 0.73416 0.0
H912 H 0.56467 0.34422 0.78323 0.0
H913 H 0.57842 0.3761 0.56236 0.0
H914 H 0.5584 0.39552 0.53373 0.0
H915 H 0.55484 0.36619 0.50737 0.0
H916 H 0.51193 0.36878 0.55012 0.0
H917 H 0.51531 0.39802 0.57586 0.0
H918 H 0.50622 0.38062 0.63447 0.0
H919 H 0.56999 0.38476 0.8195 0.0
H920 H 0.56402 0.42528 0.84242 0.0
H921 H 0.5404 0.42527 0.64252 0.0
C922 C 0.53906 0.33509 0.60527 0.0
C923 C 0.53996 0.31718 0.64148 0.0
C924 C 0.55001 0.32049 0.70515 0.0
C925 C 0.55803 0.34152 0.73335 0.0
C926 C 0.55609 0.35898 0.697 0.0
C927 C 0.54685 0.35594 0.63422 0.0
C928 C 0.54365 0.37776 0.6087 0.0
C929 C 0.5598 0.37896 0.54953 0.0
C930 C 0.51775 0.38151 0.59133 0.0
C931 C 0.55139 0.39377 0.66824 0.0
C932 C 0.55912 0.38256 0.71804 0.0
C933 C 0.56466 0.39369 0.78034 0.0
C934 C 0.56135 0.4167 0.79285 0.0
C935 C 0.55255 0.42827 0.74342 0.0
C936 C 0.54819 0.41682 0.6799 0.0
H937 H 0.23053 0.59706 0.59718 0.0
H938 H 0.20443 0.64968 0.49754 0.0
H939 H 0.17273 0.65729 0.57966 0.0
H940 H 0.18271 0.57322 0.60524 0.0
H941 H 0.1851 0.56421 0.68452 0.0
H942 H 0.21107 0.56963 0.64141 0.0
H943 H 0.22467 0.59791 0.74073 0.0
H944 H 0.19861 0.59233 0.7851 0.0
H945 H 0.20546 0.62034 0.77462 0.0
H946 H 0.13806 0.651 0.64432 0.0
H947 H 0.1042 0.63092 0.67966 0.0
H948 H 0.15109 0.58054 0.73336 0.0
C949 C 0.2191 0.61119 0.59554 0.0
C950 C 0.22003 0.62296 0.54172 0.0
C951 C 0.20415 0.64067 0.53898 0.0
C952 C 0.18613 0.64512 0.5857 0.0
C953 C 0.18427 0.63175 0.63482 0.0
C954 C 0.20068 0.61531 0.64071 0.0
C955 C 0.19197 0.5997 0.68592 0.0
C956 C 0.19273 0.5753 0.65216 0.0
C957 C 0.20601 0.60277 0.75043 0.0
C958 C 0.16708 0.60817 0.69773 0.0
C959 C 0.16338 0.6274 0.67109 0.0
C960 C 0.14092 0.63633 0.66691 0.0
C961 C 0.12173 0.62469 0.68659 0.0
C962 C 0.12504 0.60405 0.70875 0.0
C963 C 0.14808 0.59651 0.71808 0.0
H964 H 0.04931 0.79494 0.94704 0.0
H965 H 0.11653 0.77962 0.02734 0.0
H966 H 0.13568 0.80636 0.9664 0.0
H967 H 0.07358 0.8126 0.78201 0.0
H968 H 0.05125 0.83391 0.78945 0.0
H969 H 0.04516 0.80763 0.81528 0.0
H970 H 0.03277 0.82884 0.92929 0.0
H971 H 0.03976 0.85478 0.90417 0.0
H972 H 0.05355 0.84702 0.97627 0.0
H973 H 0.14453 0.8423 0.93224 0.0
H974 H 0.14257 0.88195 0.92098 0.0
H975 H 0.07014 0.87402 0.85807 0.0
C976 C 0.06825 0.79636 0.94827 0.0
C977 C 0.08155 0.78533 0.99115 0.0
C978 C 0.10619 0.78774 0.99367 0.0
C979 C 0.11717 0.80292 0.95921 0.0
C980 C 0.10327 0.81514 0.92164 0.0
C981 C 0.07935 0.8115 0.91429 0.0
C982 C 0.06752 0.82949 0.88277 0.0
C983 C 0.05889 0.82034 0.8132 0.0
C984 C 0.04725 0.84068 0.92575 0.0
C985 C 0.08793 0.84498 0.88028 0.0
C986 C 0.1086 0.83617 0.90081 0.0
C987 C 0.12873 0.84905 0.91356 0.0
C988 C 0.12748 0.87158 0.90729 0.0
C989 C 0.10615 0.88095 0.88915 0.0
C990 C 0.08663 0.86719 0.87227 0.0
H991 H 0.72397 0.08519 0.01344 0.0
H992 H 0.70569 0.13796 0.17068 0.0
H993 H 0.67656 0.15216 0.09861 0.0
H994 H 0.70518 0.1165 0.86524 0.0
H995 H 0.69407 0.09064 0.82285 0.0
H996 H 0.72019 0.09092 0.87261 0.0
H997 H 0.70116 0.06278 0.93841 0.0
H998 H 0.67534 0.06243 0.88935 0.0
H999 H 0.67311 0.06935 0.97763 0.0
H1000 H 0.64221 0.15302 0.02845 0.0
H1001 H 0.60556 0.13851 0.97586 0.0
H1002 H 0.64429 0.08409 0.86451 0.0
C1003 C 0.71487 0.10057 0.03104 0.0
C1004 C 0.71716 0.11063 0.09712 0.0
C1005 C 0.70427 0.13013 0.11991 0.0
C1006 C 0.68782 0.1384 0.07896 0.0
C1007 C 0.68452 0.12701 0.01537 0.0
C1008 C 0.69802 0.10859 0.99113 0.0
C1009 C 0.6875 0.09599 0.9289 0.0
C1010 C 0.70264 0.09869 0.86885 0.0
C1011 C 0.68404 0.07123 0.93406 0.0
C1012 C 0.6644 0.10828 0.92724 0.0
C1013 C 0.66365 0.12697 0.9748 0.0
C1014 C 0.64281 0.13879 0.99002 0.0
C1015 C 0.62198 0.13034 0.96015 0.0
C1016 C 0.62208 0.10997 0.91685 0.0
C1017 C 0.64376 0.0999 0.89645 0.0
H1018 H 0.52825 0.65802 0.89455 0.0
H1019 H 0.59986 0.64354 0.94855 0.0
H1020 H 0.59037 0.60403 0.93715 0.0
H1021 H 0.4986 0.62136 0.96594 0.0
H1022 H 0.47852 0.61108 0.90082 0.0
H1023 H 0.49056 0.63843 0.90514 0.0
H1024 H 0.50763 0.62911 0.78682 0.0
H1025 H 0.49391 0.60236 0.78119 0.0
H1026 H 0.52483 0.60418 0.7655 0.0
H1027 H 0.5692 0.57035 0.95948 0.0
H1028 H 0.54441 0.53704 0.95197 0.0
H1029 H 0.49136 0.56875 0.84731 0.0
C1030 C 0.54233 0.64653 0.90069 0.0
C1031 C 0.56444 0.6541 0.92641 0.0
C1032 C 0.58238 0.63832 0.93263 0.0
C1033 C 0.57723 0.61581 0.92613 0.0
C1034 C 0.55457 0.60919 0.90825 0.0
C1035 C 0.53794 0.62366 0.89021 0.0
C1036 C 0.51524 0.61154 0.86962 0.0
C1037 C 0.49452 0.62119 0.91299 0.0
C1038 C 0.5101 0.61182 0.79642 0.0
C1039 C 0.52156 0.58839 0.88248 0.0
C1040 C 0.54399 0.58786 0.90766 0.0
C1041 C 0.55231 0.5699 0.93523 0.0
C1042 C 0.53815 0.55118 0.93122 0.0
C1043 C 0.51687 0.54998 0.89584 0.0
C1044 C 0.50799 0.56908 0.87297 0.0
H1045 H 0.82842 0.52454 0.9195 0.0
H1046 H 0.87603 0.57377 0.01676 0.0
H1047 H 0.90742 0.55896 0.9401 0.0
H1048 H 0.85874 0.48423 0.92485 0.0
H1049 H 0.85373 0.46712 0.84656 0.0
H1050 H 0.83237 0.48744 0.8784 0.0
H1051 H 0.83481 0.50549 0.77331 0.0
H1052 H 0.85631 0.48503 0.7394 0.0
H1053 H 0.86275 0.51411 0.74545 0.0
H1054 H 0.93537 0.53173 0.89264 0.0
H1055 H 0.95662 0.49615 0.87552 0.0
H1056 H 0.89271 0.46185 0.81075 0.0
C1057 C 0.845 0.53315 0.92109 0.0
C1058 C 0.8499 0.55032 0.9733 0.0
C1059 C 0.87196 0.56075 0.97645 0.0
C1060 C 0.88986 0.55241 0.93282 0.0
C1061 C 0.88536 0.53362 0.88665 0.0
C1062 C 0.86317 0.5244 0.87915 0.0
C1063 C 0.86406 0.50131 0.83937 0.0
C1064 C 0.85153 0.48405 0.87452 0.0
C1065 C 0.85388 0.50149 0.77026 0.0
C1066 C 0.89031 0.49756 0.83579 0.0
C1067 C 0.90225 0.51688 0.85945 0.0
C1068 C 0.92628 0.51678 0.87198 0.0
C1069 C 0.93816 0.4965 0.86302 0.0
C1070 C 0.92601 0.47659 0.84239 0.0
C1071 C 0.90215 0.47712 0.82556 0.0
H1072 H 0.03345 0.13474 0.08865 0.0
H1073 H 0.0187 0.17619 0.94033 0.0
H1074 H 0.02338 0.14348 0.85308 0.0
H1075 H 0.07705 0.09794 0.99213 0.0
H1076 H 0.06693 0.07403 0.02536 0.0
H1077 H 0.0649 0.10114 0.07401 0.0
H1078 H 0.02028 0.09553 0.08935 0.0
H1079 H 0.02211 0.06856 0.04021 0.0
H1080 H 1.00186 0.08894 0.01784 0.0
H1081 H 0.02471 0.1048 0.78392 0.0
H1082 H 0.02619 0.06485 0.73863 0.0
H1083 H 0.04134 0.04954 0.93358 0.0
C1084 C 0.0318 0.13701 0.03762 0.0
C1085 C 0.02587 0.15795 0.02094 0.0
C1086 C 0.02358 0.16032 0.95387 0.0
C1087 C 0.02606 0.14182 0.90419 0.0
C1088 C 0.03116 0.12119 0.92257 0.0
C1089 C 0.0344 0.11884 0.98777 0.0
C1090 C 0.03873 0.09489 0.99541 0.0
C1091 C 0.06337 0.09183 0.02337 0.0
C1092 C 0.01961 0.0865 0.03822 0.0
C1093 C 0.03693 0.08393 0.92449 0.0
C1094 C 0.03251 0.09929 0.88303 0.0
C1095 C 0.02862 0.09273 0.81588 0.0
C1096 C 0.02942 0.06997 0.79061 0.0
C1097 C 0.0342 0.05402 0.8323 0.0
C1098 C 0.0381 0.06127 0.90002 0.0
H1099 H 0.37937 0.03675 0.04561 0.0
H1100 H 0.36066 0.96942 0.06619 0.0
H1101 H 0.39232 0.95541 0.98781 0.0
H1102 H 0.39837 0.02546 0.86995 0.0
H1103 H 0.42189 0.04519 0.8846 0.0
H1104 H 0.39538 0.04936 0.93287 0.0
H1105 H 0.42041 0.05176 0.0392 0.0
H1106 H 0.44679 0.04712 0.99082 0.0
H1107 H 0.4398 0.02911 0.0497 0.0
H1108 H 0.42925 0.9489 0.91492 0.0
H1109 H 0.46685 0.95042 0.85626 0.0
H1110 H 0.46299 0.02219 0.88821 0.0
C1111 C 0.38164 0.01899 0.03342 0.0
C1112 C 0.36727 0.00425 0.06314 0.0
C1113 C 0.37096 0.98117 0.04407 0.0
C1114 C 0.38913 0.97305 0.99974 0.0
C1115 C 0.40357 0.98812 0.97408 0.0
C1116 C 0.39982 0.01065 0.98989 0.0
C1117 C 0.41871 0.0235 0.95954 0.0
C1118 C 0.40793 0.03665 0.90872 0.0
C1119 C 0.43222 0.03877 0.01301 0.0
C1120 C 0.43427 0.00476 0.92613 0.0
C1121 C 0.42496 0.98446 0.93392 0.0
C1122 C 0.43646 0.96476 0.90834 0.0
C1123 C 0.4579 0.96581 0.87473 0.0
C1124 C 0.46811 0.9864 0.86694 0.0
C1125 C 0.45585 0.00613 0.89298 0.0
H1126 H 0.46957 0.30991 0.26334 0.0
H1127 H 0.46327 0.25588 0.10105 0.0
H1128 H 0.47059 0.28226 0.0224 0.0
H1129 H 0.43945 0.35024 0.18928 0.0
H1130 H 0.45804 0.37264 0.22518 0.0
H1131 H 0.45376 0.34915 0.26694 0.0
H1132 H 0.4988 0.34286 0.2696 0.0
H1133 H 0.50323 0.36633 0.22775 0.0
H1134 H 0.51526 0.33965 0.19384 0.0
H1135 H 0.47684 0.31595 0.9622 0.0
H1136 H 0.48092 0.35279 0.92703 0.0
H1137 H 0.48281 0.38356 0.13148 0.0
C1138 C 0.46951 0.30354 0.2112 0.0
C1139 C 0.46542 0.28089 0.18817 0.0
C1140 C 0.46626 0.27319 0.11968 0.0
C1141 C 0.47038 0.28806 0.07482 0.0
C1142 C 0.47388 0.31043 0.09956 0.0
C1143 C 0.47356 0.31801 0.16635 0.0
C1144 C 0.47718 0.34274 0.18137 0.0
C1145 C 0.45584 0.35437 0.21782 0.0
C1146 C 0.49998 0.3482 0.22043 0.0
C1147 C 0.47917 0.34818 0.11248 0.0
C1148 C 0.47745 0.32941 0.0657 0.0
C1149 C 0.47834 0.33068 0.99858 0.0
C1150 C 0.48077 0.35165 0.97906 0.0
C1151 C 0.4821 0.37107 0.02653 0.0
C1152 C 0.48157 0.3691 0.09396 0.0
H1153 H 0.16774 0.49191 0.13579 0.0
H1154 H 0.22424 0.48286 0.99298 0.0
H1155 H 0.19501 0.47765 0.90267 0.0
H1156 H 0.12841 0.45022 0.04344 0.0
H1157 H 0.10226 0.46605 0.06864 0.0
H1158 H 0.12762 0.46819 0.1216 0.0
H1159 H 0.12778 0.51078 0.12439 0.0
H1160 H 0.10238 0.50848 0.07178 0.0
H1161 H 0.12846 0.52184 0.04797 0.0
H1162 H 0.15912 0.47769 0.8274 0.0
H1163 H 0.12015 0.47797 0.77415 0.0
H1164 H 0.08657 0.48375 0.96515 0.0
C1165 C 0.17395 0.48846 0.08548 0.0
C1166 C 0.19842 0.48771 0.07162 0.0
C1167 C 0.20572 0.48322 1.00504 0.0
C1168 C 0.18918 0.48041 0.95336 0.0
C1169 C 0.16524 0.48171 0.9687 0.0
C1170 C 0.15764 0.48514 0.03329 0.0
C1171 C 0.13092 0.4856 0.03655 0.0
C1172 C 0.12177 0.46637 0.06951 0.0
C1173 C 0.12188 0.50802 0.07229 0.0
C1174 C 0.1246 0.48243 0.9638 0.0
C1175 C 0.14467 0.48043 0.92547 0.0
C1176 C 0.14335 0.47882 0.85707 0.0
C1177 C 0.12109 0.47907 0.82716 0.0
C1178 C 0.1002 0.48051 0.86509 0.0
C1179 C 0.10213 0.48212 0.93449 0.0
H1180 H 0.98792 0.82911 0.49821 0.0
H1181 H 0.04315 0.79554 0.59085 0.0
H1182 H 0.05057 0.82985 0.66779 0.0
H1183 H 0.01784 0.8783 0.49919 0.0
H1184 H 0.99265 0.89634 0.51538 0.0
H1185 H 0.98897 0.86839 0.47434 0.0
H1186 H 0.95907 0.8609 0.56311 0.0
H1187 H 0.96245 0.88896 0.60415 0.0
H1188 H 0.96729 0.86612 0.64872 0.0
H1189 H 0.05519 0.86899 0.72649 0.0
H1190 H 0.05588 0.9093 0.7637 0.0
H1191 H 0.99814 0.91792 0.63181 0.0
C1192 C 1.00119 0.82878 0.53576 0.0
C1193 C 1.01477 0.8094 0.53857 0.0
C1194 C 0.03207 0.80986 0.58835 0.0
C1195 C 0.03654 0.82939 0.63221 0.0
C1196 C 0.02341 0.84836 0.62641 0.0
C1197 C 1.0059 0.84815 0.57985 0.0
C1198 C 0.99559 0.87117 0.58037 0.0
C1199 C 0.99897 0.879 0.51335 0.0
C1200 C 0.96955 0.87182 0.60029 0.0
C1201 C 1.01046 0.8845 0.63325 0.0
C1202 C 0.02628 0.87099 0.65957 0.0
C1203 C 0.04268 0.87965 0.70673 0.0
C1204 C 0.043 0.90266 0.72731 0.0
C1205 C 0.02704 0.91692 0.70082 0.0
C1206 C 1.01041 0.90755 0.6536 0.0
H1207 H 0.67458 0.98644 0.4356 0.0
H1208 H 0.72975 0.99198 0.58209 0.0
H1209 H 0.69997 0.98956 0.66877 0.0
H1210 H 0.63145 0.01855 0.5314 0.0
H1211 H 0.607 0.00146 0.50058 0.0
H1212 H 0.63266 0.0026 0.4501 0.0
H1213 H 0.63711 0.95995 0.43716 0.0
H1214 H 0.61132 0.95866 0.48714 0.0
H1215 H 0.6386 0.94667 0.50955 0.0
H1216 H 0.66284 0.9905 0.74173 0.0
H1217 H 0.62321 0.98986 0.79116 0.0
H1218 H 0.59239 0.98082 0.59629 0.0
C1219 C 0.68046 0.98678 0.48581 0.0
C1220 C 0.7047 0.98933 0.50173 0.0
C1221 C 0.71148 0.98975 0.56823 0.0
C1222 C 0.69458 0.98857 0.61795 0.0
C1223 C 0.67082 0.98657 0.6007 0.0
C1224 C 0.66385 0.98521 0.53584 0.0
C1225 C 0.63728 0.98295 0.52999 0.0
C1226 C 0.62647 0.00256 0.50132 0.0
C1227 C 0.63069 0.96074 0.4885 0.0
C1228 C 0.63024 0.9836 0.60168 0.0
C1229 C 0.64982 0.98595 0.64189 0.0
C1230 C 0.64752 0.98827 0.71032 0.0
C1231 C 0.62486 0.98796 0.73813 0.0
C1232 C 0.60454 0.98496 0.69795 0.0
C1233 C 0.60749 0.9827 0.62861 0.0
H1234 H 0.56111 0.67112 0.36667 0.0
H1235 H 0.55849 0.72717 0.52351 0.0
H1236 H 0.54998 0.70159 0.60374 0.0
H1237 H 0.51503 0.63792 0.43064 0.0
H1238 H 0.53046 0.61232 0.40302 0.0
H1239 H 0.53345 0.63539 0.35856 0.0
H1240 H 0.57865 0.63364 0.3715 0.0
H1241 H 0.57582 0.61071 0.41625 0.0
H1242 H 0.59116 0.63527 0.45263 0.0
H1243 H 0.5464 0.66872 0.66767 0.0
H1244 H 0.54619 0.63265 0.70824 0.0
H1245 H 0.55127 0.5987 0.50738 0.0
C1246 C 0.55833 0.67807 0.41781 0.0
C1247 C 0.56049 0.70108 0.43917 0.0
C1248 C 0.55672 0.7096 0.50627 0.0
C1249 C 0.55198 0.69517 0.552 0.0
C1250 C 0.55076 0.67239 0.52941 0.0
C1251 C 0.55355 0.664 0.46356 0.0
C1252 C 0.5528 0.63895 0.45159 0.0
C1253 C 0.53167 0.63066 0.4084 0.0
C1254 C 0.57599 0.62907 0.42123 0.0
C1255 C 0.54975 0.63433 0.52122 0.0
C1256 C 0.54847 0.65377 0.56556 0.0
C1257 C 0.54705 0.65347 0.63314 0.0
C1258 C 0.54707 0.63286 0.65575 0.0
C1259 C 0.54848 0.61274 0.61101 0.0
C1260 C 0.5496 0.61368 0.54286 0.0
H1261 H 0.88345 0.46435 0.46319 0.0
H1262 H 0.85085 0.52468 0.56097 0.0
H1263 H 0.88172 0.52788 0.64663 0.0
H1264 H 0.90361 0.44393 0.62108 0.0
H1265 H 0.9302 0.4323 0.5823 0.0
H1266 H 0.90379 0.43321 0.53436 0.0
H1267 H 0.92627 0.4543 0.45403 0.0
H1268 H 0.95256 0.45386 0.50234 0.0
H1269 H 0.94078 0.47988 0.48555 0.0
H1270 H 0.92027 0.52803 0.71008 0.0
H1271 H 0.9599 0.52241 0.75443 0.0
H1272 H 0.9662 0.45989 0.62412 0.0
C1273 C 0.88213 0.47757 0.50462 0.0
C1274 C 0.86414 0.49391 0.50632 0.0
C1275 C 0.86381 0.51156 0.5597 0.0
C1276 C 0.8815 0.51362 0.6083 0.0
C1277 C 0.89935 0.49762 0.60412 0.0
C1278 C 0.89941 0.47954 0.55464 0.0
C1279 C 0.9212 0.46522 0.55977 0.0
C1280 C 0.91428 0.4423 0.57529 0.0
C1281 C 0.93607 0.46321 0.49667 0.0
C1282 C 0.93391 0.47852 0.61785 0.0
C1283 C 0.92102 0.49722 0.64258 0.0
C1284 C 0.93015 0.51315 0.69198 0.0
C1285 C 0.95279 0.50988 0.71677 0.0
C1286 C 0.96608 0.49054 0.69389 0.0
C1287 C 0.95629 0.47459 0.64394 0.0
loop_
_geom_bond_atom_site_label_1
_geom_bond_atom_site_label_2
_geom_bond_distance
_geom_bond_site_symmetry_2
_ccdc_geom_bond_type
C0 C1 1.391 . S
C0 C4 1.391 . S
C0 H42 0.948 . S
C1 C0 1.391 . S
C1 C2 1.391 . S
C2 C1 1.391 . S
C2 H58 0.947 . S
C2 C59 1.392 . S
C3 C4 1.391 . S
C3 C7 1.397 . S
C3 C59 1.419 . S
C4 C0 1.391 . S
C4 C3 1.391 . S
C4 C5 1.399 . S
C5 C4 1.399 . S
C5 C8 1.396 . S
C5 C17 1.453 . S
C5 C18 1.684 . S
H6 C30 0.948 . S
C7 C3 1.397 . S
C7 C8 1.394 . S
C7 C26 1.723 . S
C8 C5 1.396 . S
C8 C7 1.394 . S
C8 C38 1.723 . S
H9 C32 0.947 . S
H10 C33 0.948 . S
H11 C39 0.982 . S
H12 C40 0.979 . S
H13 C40 0.980 . S
H14 C40 0.983 . S
H15 C39 0.979 . S
H16 C39 0.977 . S
C17 C5 1.453 . S
C17 H46 0.982 . S
C17 H47 0.979 . S
C17 H48 0.977 . S
C18 C5 1.684 . S
C18 H43 0.979 . S
C18 H44 0.980 . S
C18 H45 0.983 . S
C19 C20 1.391 . S
C19 C24 1.391 . S
C19 H49 0.948 . S
C20 C19 1.391 . S
C20 C21 1.391 . S
C21 C20 1.391 . S
C21 C22 1.392 . S
C21 H50 0.947 . S
C22 C21 1.392 . S
C22 C23 1.419 . S
C22 H51 0.948 . S
C23 C22 1.419 . S
C23 C24 1.391 . S
C23 C27 1.397 . S
C24 C19 1.391 . S
C24 C23 1.391 . S
C24 C25 1.399 . S
C25 C24 1.399 . S
C25 C26 1.396 . S
C25 C28 1.453 . S
C25 C29 1.684 . S
C26 C7 1.723 . S
C26 C25 1.396 . S
C26 C27 1.394 . S
C27 C23 1.397 . S
C27 C26 1.394 . S
C27 C37 1.723 . S
C28 C25 1.453 . S
C28 H52 0.982 . S
C28 H53 0.979 . S
C28 H54 0.977 . S
C29 C25 1.684 . S
C29 H55 0.979 . S
C29 H56 0.980 . S
C29 H57 0.983 . S
C30 H6 0.948 . S
C30 C31 1.391 . S
C30 C35 1.391 . S
C31 C30 1.391 . S
C31 C32 1.391 . S
C32 H9 0.947 . S
C32 C31 1.391 . S
C32 C33 1.392 . S
C33 H10 0.948 . S
C33 C32 1.392 . S
C33 C34 1.419 . S
C34 C33 1.419 . S
C34 C35 1.391 . S
C34 C38 1.397 . S
C35 C30 1.391 . S
C35 C34 1.391 . S
C35 C36 1.399 . S
C36 C35 1.399 . S
C36 C37 1.396 . S
C36 C39 1.453 . S
C36 C40 1.684 . S
C37 C27 1.723 . S
C37 C36 1.396 . S
C37 C38 1.394 . S
C38 C8 1.723 . S
C38 C34 1.397 . S
C38 C37 1.394 . S
C39 H11 0.982 . S
C39 H15 0.979 . S
C39 H16 0.977 . S
C39 C36 1.453 . S
C40 H12 0.979 . S
C40 H13 0.980 . S
C40 H14 0.983 . S
C40 C36 1.684 . S
H41 C59 0.948 . S
H42 C0 0.948 . S
H43 C18 0.979 . S
H44 C18 0.980 . S
H45 C18 0.983 . S
H46 C17 0.982 . S
H47 C17 0.979 . S
H48 C17 0.977 . S
H49 C19 0.948 . S
H50 C21 0.947 . S
H51 C22 0.948 . S
H52 C28 0.982 . S
H53 C28 0.979 . S
H54 C28 0.977 . S
H55 C29 0.979 . S
H56 C29 0.980 . S
H57 C29 0.983 . S
H58 C2 0.947 . S
C59 C2 1.392 . S
C59 C3 1.419 . S
C59 H41 0.948 . S
C60 C61 1.391 . S
C60 C64 1.391 . S
C60 H102 0.948 . S
C61 C60 1.391 . S
C61 C62 1.391 . S
C62 C61 1.391 . S
C62 H118 0.947 . S
C62 C119 1.392 . S
C63 C64 1.391 . S
C63 C67 1.397 . S
C63 C119 1.419 . S
C64 C60 1.391 . S
C64 C63 1.391 . S
C64 C65 1.399 . S
C65 C64 1.399 . S
C65 C68 1.396 . S
C65 C77 1.453 . S
C65 C78 1.684 . S
H66 C90 0.948 . S
C67 C63 1.397 . S
C67 C68 1.394 . S
C67 C86 1.723 . S
C68 C65 1.396 . S
C68 C67 1.394 . S
C68 C98 1.723 . S
H69 C92 0.947 . S
H70 C93 0.948 . S
H71 C99 0.982 1_455 S
H72 C100 0.979 . S
H73 C100 0.980 . S
H74 C100 0.983 . S
H75 C99 0.979 . S
H76 C99 0.977 . S
C77 C65 1.453 . S
C77 H106 0.982 1_655 S
C77 H107 0.979 . S
C77 H108 0.977 . S
C78 C65 1.684 . S
C78 H103 0.979 . S
C78 H104 0.980 . S
C78 H105 0.983 . S
C79 C80 1.391 . S
C79 C84 1.391 . S
C79 H109 0.948 . S
C80 C79 1.391 . S
C80 C81 1.391 . S
C81 C80 1.391 . S
C81 C82 1.392 . S
C81 H110 0.947 . S
C82 C81 1.392 . S
C82 C83 1.419 . S
C82 H111 0.948 . S
C83 C82 1.419 . S
C83 C84 1.391 . S
C83 C87 1.397 . S
C84 C79 1.391 . S
C84 C83 1.391 . S
C84 C85 1.399 . S
C85 C84 1.399 . S
C85 C86 1.396 . S
C85 C88 1.453 . S
C85 C89 1.684 . S
C86 C67 1.723 . S
C86 C85 1.396 . S
C86 C87 1.394 . S
C87 C83 1.397 . S
C87 C86 1.394 . S
C87 C97 1.723 . S
C88 C85 1.453 . S
C88 H112 0.982 1_655 S
C88 H113 0.979 . S
C88 H114 0.977 . S
C89 C85 1.684 . S
C89 H115 0.979 . S
C89 H116 0.980 . S
C89 H117 0.983 . S
C90 H66 0.948 . S
C90 C91 1.391 . S
C90 C95 1.391 . S
C91 C90 1.391 . S
C91 C92 1.391 . S
C92 H69 0.947 . S
C92 C91 1.391 . S
C92 C93 1.392 . S
C93 H70 0.948 . S
C93 C92 1.392 . S
C93 C94 1.419 . S
C94 C93 1.419 . S
C94 C95 1.391 . S
C94 C98 1.397 . S
C95 C90 1.391 . S
C95 C94 1.391 . S
C95 C96 1.399 . S
C96 C95 1.399 . S
C96 C97 1.396 . S
C96 C99 1.453 . S
C96 C100 1.684 . S
C97 C87 1.723 . S
C97 C96 1.396 . S
C97 C98 1.394 . S
C98 C68 1.723 . S
C98 C94 1.397 . S
C98 C97 1.394 . S
C99 H71 0.982 1_655 S
C99 H75 0.979 . S
C99 H76 0.977 . S
C99 C96 1.453 . S
C100 H72 0.979 . S
C100 H73 0.980 . S
C100 H74 0.983 . S
C100 C96 1.684 . S
H101 C119 0.948 . S
H102 C60 0.948 . S
H103 C78 0.979 . S
H104 C78 0.980 . S
H105 C78 0.983 . S
H106 C77 0.982 1_455 S
H107 C77 0.979 . S
H108 C77 0.977 . S
H109 C79 0.948 . S
H110 C81 0.947 . S
H111 C82 0.948 . S
H112 C88 0.982 1_455 S
H113 C88 0.979 . S
H114 C88 0.977 . S
H115 C89 0.979 . S
H116 C89 0.980 . S
H117 C89 0.983 . S
H118 C62 0.947 . S
C119 C62 1.392 . S
C119 C63 1.419 . S
C119 H101 0.948 . S
C120 C121 1.391 . S
C120 C124 1.391 . S
C120 H162 0.948 . S
C121 C120 1.391 . S
C121 C122 1.391 . S
C122 C121 1.391 . S
C122 H178 0.947 . S
C122 C179 1.392 . S
C123 C124 1.391 . S
C123 C127 1.397 1_565 S
C123 C179 1.419 . S
C124 C120 1.391 . S
C124 C123 1.391 . S
C124 C125 1.399 . S
C125 C124 1.399 . S
C125 C128 1.396 1_565 S
C125 C137 1.453 1_565 S
C125 C138 1.684 . S
H126 C150 0.948 . S
C127 C123 1.397 1_545 S
C127 C128 1.395 . S
C127 C146 1.722 . S
C128 C125 1.396 1_545 S
C128 C127 1.395 . S
C128 C158 1.722 . S
H129 C152 0.947 . S
H130 C153 0.948 . S
H131 C159 0.982 . S
H132 C160 0.979 . S
H133 C160 0.980 . S
H134 C160 0.983 . S
H135 C159 0.979 . S
H136 C159 0.977 . S
C137 C125 1.453 1_545 S
C137 H166 0.982 . S
C137 H167 0.979 . S
C137 H168 0.977 . S
C138 C125 1.684 . S
C138 H163 0.979 . S
C138 H164 0.980 . S
C138 H165 0.983 . S
C139 C140 1.391 . S
C139 C144 1.391 . S
C139 H169 0.948 . S
C140 C139 1.391 . S
C140 C141 1.391 . S
C141 C140 1.391 . S
C141 C142 1.392 . S
C141 H170 0.947 . S
C142 C141 1.392 . S
C142 C143 1.419 . S
C142 H171 0.948 . S
C143 C142 1.419 . S
C143 C144 1.391 . S
C143 C147 1.397 1_565 S
C144 C139 1.391 . S
C144 C143 1.391 . S
C144 C145 1.399 . S
C145 C144 1.399 . S
C145 C146 1.396 1_565 S
C145 C148 1.453 1_565 S
C145 C149 1.684 . S
C146 C127 1.722 . S
C146 C145 1.396 1_545 S
C146 C147 1.394 . S
C147 C143 1.397 1_545 S
C147 C146 1.394 . S
C147 C157 1.723 . S
C148 C145 1.453 1_545 S
C148 H172 0.982 . S
C148 H173 0.979 . S
C148 H174 0.977 . S
C149 C145 1.684 . S
C149 H175 0.979 . S
C149 H176 0.980 . S
C149 H177 0.983 . S
C150 H126 0.948 . S
C150 C151 1.391 . S
C150 C155 1.391 . S
C151 C150 1.391 . S
C151 C152 1.391 . S
C152 H129 0.947 . S
C152 C151 1.391 . S
C152 C153 1.392 . S
C153 H130 0.948 . S
C153 C152 1.392 . S
C153 C154 1.419 . S
C154 C153 1.419 . S
C154 C155 1.391 . S
C154 C158 1.398 1_565 S
C155 C150 1.391 . S
C155 C154 1.391 . S
C155 C156 1.399 . S
C156 C155 1.399 . S
C156 C157 1.396 1_565 S
C156 C159 1.453 1_565 S
C156 C160 1.684 . S
C157 C147 1.723 . S
C157 C156 1.396 1_545 S
C157 C158 1.394 . S
C158 C128 1.722 . S
C158 C154 1.398 1_545 S
C158 C157 1.394 . S
C159 H131 0.982 . S
C159 H135 0.979 . S
C159 H136 0.977 . S
C159 C156 1.453 1_545 S
C160 H132 0.979 . S
C160 H133 0.980 . S
C160 H134 0.983 . S
C160 C156 1.684 . S
H161 C179 0.948 . S
H162 C120 0.948 . S
H163 C138 0.979 . S
H164 C138 0.980 . S
H165 C138 0.983 . S
H166 C137 0.982 . S
H167 C137 0.979 . S
H168 C137 0.977 . S
H169 C139 0.948 . S
H170 C141 0.947 . S
H171 C142 0.948 . S
H172 C148 0.982 . S
H173 C148 0.979 . S
H174 C148 0.977 . S
H175 C149 0.979 . S
H176 C149 0.980 . S
H177 C149 0.983 . S
H178 C122 0.947 . S
C179 C122 1.392 . S
C179 C123 1.419 . S
C179 H161 0.948 . S
C180 C181 1.391 . S
C180 C184 1.391 . S
C180 H222 0.948 . S
C181 C180 1.391 . S
C181 C182 1.391 . S
C182 C181 1.391 . S
C182 H238 0.947 . S
C182 C239 1.392 . S
C183 C184 1.391 . S
C183 C187 1.397 . S
C183 C239 1.419 . S
C184 C180 1.391 . S
C184 C183 1.391 . S
C184 C185 1.399 . S
C185 C184 1.399 . S
C185 C188 1.396 . S
C185 C197 1.453 . S
C185 C198 1.684 . S
H186 C210 0.948 . S
C187 C183 1.397 . S
C187 C188 1.394 . S
C187 C206 1.723 1_554 S
C188 C185 1.396 . S
C188 C187 1.394 . S
C188 C218 1.723 . S
H189 C212 0.947 . S
H190 C213 0.948 . S
H191 C219 0.982 . S
H192 C220 0.979 . S
H193 C220 0.980 . S
H194 C220 0.983 . S
H195 C219 0.979 . S
H196 C219 0.977 . S
C197 C185 1.453 . S
C197 H226 0.982 . S
C197 H227 0.979 . S
C197 H228 0.977 . S
C198 C185 1.684 . S
C198 H223 0.979 . S
C198 H224 0.980 . S
C198 H225 0.983 . S
C199 C200 1.391 . S
C199 C204 1.391 . S
C199 H229 0.948 . S
C200 C199 1.391 . S
C200 C201 1.391 . S
C201 C200 1.391 . S
C201 C202 1.392 . S
C201 H230 0.947 . S
C202 C201 1.392 . S
C202 C203 1.419 . S
C202 H231 0.948 . S
C203 C202 1.419 . S
C203 C204 1.391 . S
C203 C207 1.397 . S
C204 C199 1.391 . S
C204 C203 1.391 . S
C204 C205 1.399 . S
C205 C204 1.399 . S
C205 C206 1.396 . S
C205 C208 1.453 . S
C205 C209 1.684 1_556 S
C206 C187 1.723 1_556 S
C206 C205 1.396 . S
C206 C207 1.394 . S
C207 C203 1.397 . S
C207 C206 1.394 . S
C207 C217 1.723 . S
C208 C205 1.453 . S
C208 H232 0.982 . S
C208 H233 0.979 . S
C208 H234 0.977 1_556 S
C209 C205 1.684 1_554 S
C209 H235 0.979 1_554 S
C209 H236 0.980 . S
C209 H237 0.983 1_554 S
C210 H186 0.948 . S
C210 C211 1.391 . S
C210 C215 1.391 . S
C211 C210 1.391 . S
C211 C212 1.391 1_556 S
C212 H189 0.947 . S
C212 C211 1.391 1_554 S
C212 C213 1.392 . S
C213 H190 0.948 . S
C213 C212 1.392 . S
C213 C214 1.419 . S
C214 C213 1.419 . S
C214 C215 1.391 1_554 S
C214 C218 1.397 . S
C215 C210 1.391 . S
C215 C214 1.391 1_556 S
C215 C216 1.399 . S
C216 C215 1.399 . S
C216 C217 1.396 . S
C216 C219 1.453 . S
C216 C220 1.684 . S
C217 C207 1.723 . S
C217 C216 1.396 . S
C217 C218 1.394 1_556 S
C218 C188 1.723 . S
C218 C214 1.397 . S
C218 C217 1.394 1_554 S
C219 H191 0.982 . S
C219 H195 0.979 . S
C219 H196 0.977 . S
C219 C216 1.453 . S
C220 H192 0.979 . S
C220 H193 0.980 . S
C220 H194 0.983 . S
C220 C216 1.684 . S
H221 C239 0.948 . S
H222 C180 0.948 . S
H223 C198 0.979 . S
H224 C198 0.980 . S
H225 C198 0.983 . S
H226 C197 0.982 . S
H227 C197 0.979 . S
H228 C197 0.977 . S
H229 C199 0.948 . S
H230 C201 0.947 . S
H231 C202 0.948 . S
H232 C208 0.982 . S
H233 C208 0.979 . S
H234 C208 0.977 1_554 S
H235 C209 0.979 1_556 S
H236 C209 0.980 . S
H237 C209 0.983 1_556 S
H238 C182 0.947 . S
C239 C182 1.392 . S
C239 C183 1.419 . S
C239 H221 0.948 . S
C240 C241 1.391 . S
C240 C244 1.391 . S
C240 H282 0.948 . S
C241 C240 1.391 . S
C241 C242 1.391 . S
C242 C241 1.391 . S
C242 H298 0.947 . S
C242 C299 1.392 . S
C243 C244 1.391 . S
C243 C247 1.397 . S
C243 C299 1.419 . S
C244 C240 1.391 . S
C244 C243 1.391 . S
C244 C245 1.399 . S
C245 C244 1.399 . S
C245 C248 1.396 . S
C245 C257 1.453 . S
C245 C258 1.684 . S
H246 C270 0.948 . S
C247 C243 1.397 . S
C247 C248 1.394 . S
C247 C266 1.723 . S
C248 C245 1.396 . S
C248 C247 1.394 . S
C248 C278 1.723 . S
H249 C272 0.947 . S
H250 C273 0.948 . S
H251 C279 0.982 . S
H252 C280 0.979 . S
H253 C280 0.980 . S
H254 C280 0.983 . S
H255 C279 0.979 . S
H256 C279 0.977 . S
C257 C245 1.453 . S
C257 H286 0.982 . S
C257 H287 0.979 . S
C257 H288 0.977 . S
C258 C245 1.684 . S
C258 H283 0.979 . S
C258 H284 0.980 . S
C258 H285 0.983 . S
C259 C260 1.391 . S
C259 C264 1.391 . S
C259 H289 0.948 . S
C260 C259 1.391 . S
C260 C261 1.391 . S
C261 C260 1.391 . S
C261 C262 1.392 . S
C261 H290 0.947 . S
C262 C261 1.392 . S
C262 C263 1.419 . S
C262 H291 0.948 . S
C263 C262 1.419 . S
C263 C264 1.391 . S
C263 C267 1.397 . S
C264 C259 1.391 . S
C264 C263 1.391 . S
C264 C265 1.399 . S
C265 C264 1.399 . S
C265 C266 1.396 . S
C265 C268 1.453 . S
C265 C269 1.684 . S
C266 C247 1.723 . S
C266 C265 1.396 . S
C266 C267 1.394 . S
C267 C263 1.397 . S
C267 C266 1.394 . S
C267 C277 1.723 . S
C268 C265 1.453 . S
C268 H292 0.982 . S
C268 H293 0.979 . S
C268 H294 0.977 . S
C269 C265 1.684 . S
C269 H295 0.979 . S
C269 H296 0.980 . S
C269 H297 0.983 . S
C270 H246 0.948 . S
C270 C271 1.391 . S
C270 C275 1.391 1_556 S
C271 C270 1.391 . S
C271 C272 1.391 . S
C272 H249 0.947 . S
C272 C271 1.391 . S
C272 C273 1.392 . S
C273 H250 0.948 . S
C273 C272 1.392 . S
C273 C274 1.419 1_556 S
C274 C273 1.419 1_554 S
C274 C275 1.391 . S
C274 C278 1.397 . S
C275 C270 1.391 1_554 S
C275 C274 1.391 . S
C275 C276 1.399 . S
C276 C275 1.399 . S
C276 C277 1.396 . S
C276 C279 1.453 . S
C276 C280 1.684 . S
C277 C267 1.723 . S
C277 C276 1.396 . S
C277 C278 1.394 . S
C278 C248 1.723 . S
C278 C274 1.397 . S
C278 C277 1.394 . S
C279 H251 0.982 . S
C279 H255 0.979 . S
C279 H256 0.977 . S
C279 C276 1.453 . S
C280 H252 0.979 . S
C280 H253 0.980 . S
C280 H254 0.983 . S
C280 C276 1.684 . S
H281 C299 0.948 . S
H282 C240 0.948 . S
H283 C258 0.979 . S
H284 C258 0.980 . S
H285 C258 0.983 . S
H286 C257 0.982 . S
H287 C257 0.979 . S
H288 C257 0.977 . S
H289 C259 0.948 . S
H290 C261 0.947 . S
H291 C262 0.948 . S
H292 C268 0.982 . S
H293 C268 0.979 . S
H294 C268 0.977 . S
H295 C269 0.979 . S
H296 C269 0.980 . S
H297 C269 0.983 . S
H298 C242 0.947 . S
C299 C242 1.392 . S
C299 C243 1.419 . S
C299 H281 0.948 . S
C300 C301 1.391 . S
C300 C304 1.391 . S
C300 H342 0.948 . S
C301 C300 1.391 . S
C301 C302 1.391 . S
C302 C301 1.391 . S
C302 H358 0.947 . S
C302 C359 1.392 . S
C303 C304 1.391 . S
C303 C307 1.397 . S
C303 C359 1.419 . S
C304 C300 1.391 . S
C304 C303 1.391 . S
C304 C305 1.399 . S
C305 C304 1.399 . S
C305 C308 1.396 . S
C305 C317 1.453 . S
C305 C318 1.684 . S
H306 C330 0.948 . S
C307 C303 1.397 . S
C307 C308 1.394 . S
C307 C326 1.723 . S
C308 C305 1.396 . S
C308 C307 1.394 . S
C308 C338 1.723 . S
H309 C332 0.947 . S
H310 C333 0.948 . S
H311 C339 0.982 . S
H312 C340 0.979 . S
H313 C340 0.980 . S
H314 C340 0.983 . S
H315 C339 0.979 . S
H316 C339 0.977 . S
C317 C305 1.453 . S
C317 H346 0.982 . S
C317 H347 0.979 . S
C317 H348 0.977 . S
C318 C305 1.684 . S
C318 H343 0.979 . S
C318 H344 0.980 . S
C318 H345 0.983 . S
C319 C320 1.391 1_554 S
C319 C324 1.391 . S
C319 H349 0.948 1_554 S
C320 C319 1.391 1_556 S
C320 C321 1.391 . S
C321 C320 1.391 . S
C321 C322 1.392 1_556 S
C321 H350 0.947 . S
C322 C321 1.392 1_554 S
C322 C323 1.419 . S
C322 H351 0.948 . S
C323 C322 1.419 . S
C323 C324 1.391 . S
C323 C327 1.397 . S
C324 C319 1.391 . S
C324 C323 1.391 . S
C324 C325 1.399 . S
C325 C324 1.399 . S
C325 C326 1.396 . S
C325 C328 1.453 . S
C325 C329 1.684 . S
C326 C307 1.723 . S
C326 C325 1.396 . S
C326 C327 1.394 . S
C327 C323 1.397 . S
C327 C326 1.394 . S
C327 C337 1.723 . S
C328 C325 1.453 . S
C328 H352 0.982 . S
C328 H353 0.979 . S
C328 H354 0.977 . S
C329 C325 1.684 . S
C329 H355 0.979 . S
C329 H356 0.980 . S
C329 H357 0.983 . S
C330 H306 0.948 . S
C330 C331 1.391 . S
C330 C335 1.391 . S
C331 C330 1.391 . S
C331 C332 1.391 . S
C332 H309 0.947 . S
C332 C331 1.391 . S
C332 C333 1.392 . S
C333 H310 0.948 . S
C333 C332 1.392 . S
C333 C334 1.419 . S
C334 C333 1.419 . S
C334 C335 1.391 . S
C334 C338 1.397 . S
C335 C330 1.391 . S
C335 C334 1.391 . S
C335 C336 1.399 . S
C336 C335 1.399 . S
C336 C337 1.396 . S
C336 C339 1.453 . S
C336 C340 1.684 . S
C337 C327 1.723 . S
C337 C336 1.396 . S
C337 C338 1.394 . S
C338 C308 1.723 . S
C338 C334 1.397 . S
C338 C337 1.394 . S
C339 H311 0.982 . S
C339 H315 0.979 . S
C339 H316 0.977 . S
C339 C336 1.453 . S
C340 H312 0.979 . S
C340 H313 0.980 . S
C340 H314 0.983 . S
C340 C336 1.684 . S
H341 C359 0.948 . S
H342 C300 0.948 . S
H343 C318 0.979 . S
H344 C318 0.980 . S
H345 C318 0.983 . S
H346 C317 0.982 . S
H347 C317 0.979 . S
H348 C317 0.977 . S
H349 C319 0.948 1_556 S
H350 C321 0.947 . S
H351 C322 0.948 . S
H352 C328 0.982 . S
H353 C328 0.979 . S
H354 C328 0.977 . S
H355 C329 0.979 . S
H356 C329 0.980 . S
H357 C329 0.983 . S
H358 C302 0.947 . S
C359 C302 1.392 . S
C359 C303 1.419 . S
C359 H341 0.948 . S
C360 C361 1.391 . S
C360 C364 1.391 1_556 S
C360 H402 0.948 . S
C361 C360 1.391 . S
C361 C362 1.391 . S
C362 C361 1.391 . S
C362 H418 0.947 . S
C362 C419 1.392 1_556 S
C363 C364 1.391 . S
C363 C367 1.398 1_545 S
C363 C419 1.419 . S
C364 C360 1.391 1_554 S
C364 C363 1.391 . S
C364 C365 1.399 . S
C365 C364 1.399 . S
C365 C368 1.396 1_545 S
C365 C377 1.453 1_545 S
C365 C378 1.684 . S
H366 C390 0.948 . S
C367 C363 1.398 1_565 S
C367 C368 1.394 . S
C367 C386 1.722 . S
C368 C365 1.396 1_565 S
C368 C367 1.394 . S
C368 C398 1.723 . S
H369 C392 0.947 . S
H370 C393 0.948 . S
H371 C399 0.982 . S
H372 C400 0.979 . S
H373 C400 0.980 . S
H374 C400 0.983 . S
H375 C399 0.979 . S
H376 C399 0.977 . S
C377 C365 1.453 1_565 S
C377 H406 0.982 . S
C377 H407 0.979 1_554 S
C377 H408 0.977 . S
C378 C365 1.684 . S
C378 H403 0.979 . S
C378 H404 0.980 . S
C378 H405 0.983 1_554 S
C379 C380 1.391 . S
C379 C384 1.391 . S
C379 H409 0.948 . S
C380 C379 1.391 . S
C380 C381 1.391 . S
C381 C380 1.391 . S
C381 C382 1.392 . S
C381 H410 0.947 . S
C382 C381 1.392 . S
C382 C383 1.419 . S
C382 H411 0.948 . S
C383 C382 1.419 . S
C383 C384 1.391 . S
C383 C387 1.397 1_545 S
C384 C379 1.391 . S
C384 C383 1.391 . S
C384 C385 1.399 . S
C385 C384 1.399 . S
C385 C386 1.396 1_545 S
C385 C388 1.453 1_545 S
C385 C389 1.684 . S
C386 C367 1.722 . S
C386 C385 1.396 1_565 S
C386 C387 1.395 . S
C387 C383 1.397 1_565 S
C387 C386 1.395 . S
C387 C397 1.723 . S
C388 C385 1.453 1_565 S
C388 H412 0.982 . S
C388 H413 0.979 . S
C388 H414 0.977 . S
C389 C385 1.684 . S
C389 H415 0.979 . S
C389 H416 0.980 . S
C389 H417 0.983 . S
C390 H366 0.948 . S
C390 C391 1.391 . S
C390 C395 1.391 . S
C391 C390 1.391 . S
C391 C392 1.391 . S
C392 H369 0.947 . S
C392 C391 1.391 . S
C392 C393 1.392 . S
C393 H370 0.948 . S
C393 C392 1.392 . S
C393 C394 1.419 . S
C394 C393 1.419 . S
C394 C395 1.391 . S
C394 C398 1.397 1_545 S
C395 C390 1.391 . S
C395 C394 1.391 . S
C395 C396 1.399 . S
C396 C395 1.399 . S
C396 C397 1.396 1_545 S
C396 C399 1.453 1_545 S
C396 C400 1.684 . S
C397 C387 1.723 . S
C397 C396 1.396 1_565 S
C397 C398 1.394 . S
C398 C368 1.723 . S
C398 C394 1.397 1_565 S
C398 C397 1.394 . S
C399 H371 0.982 . S
C399 H375 0.979 . S
C399 H376 0.977 . S
C399 C396 1.453 1_565 S
C400 H372 0.979 . S
C400 H373 0.980 . S
C400 H374 0.983 . S
C400 C396 1.684 . S
H401 C419 0.948 . S
H402 C360 0.948 . S
H403 C378 0.979 . S
H404 C378 0.980 . S
H405 C378 0.983 1_556 S
H406 C377 0.982 . S
H407 C377 0.979 1_556 S
H408 C377 0.977 . S
H409 C379 0.948 . S
H410 C381 0.947 . S
H411 C382 0.948 . S
H412 C388 0.982 . S
H413 C388 0.979 . S
H414 C388 0.977 . S
H415 C389 0.979 . S
H416 C389 0.980 . S
H417 C389 0.983 . S
H418 C362 0.947 . S
C419 C362 1.392 1_554 S
C419 C363 1.419 . S
C419 H401 0.948 . S
C420 C421 1.391 . S
C420 C424 1.391 . S
C420 H462 0.948 . S
C421 C420 1.391 . S
C421 C422 1.391 . S
C422 C421 1.391 . S
C422 H478 0.947 . S
C422 C479 1.392 . S
C423 C424 1.391 . S
C423 C427 1.397 . S
C423 C479 1.419 . S
C424 C420 1.391 . S
C424 C423 1.391 . S
C424 C425 1.399 . S
C425 C424 1.399 . S
C425 C428 1.396 . S
C425 C437 1.453 . S
C425 C438 1.684 . S
H426 C450 0.948 . S
C427 C423 1.397 . S
C427 C428 1.394 . S
C427 C446 1.723 . S
C428 C425 1.396 . S
C428 C427 1.394 . S
C428 C458 1.723 . S
H429 C452 0.947 . S
H430 C453 0.948 . S
H431 C459 0.982 . S
H432 C460 0.979 . S
H433 C460 0.980 . S
H434 C460 0.983 . S
H435 C459 0.979 . S
H436 C459 0.977 . S
C437 C425 1.453 . S
C437 H466 0.982 . S
C437 H467 0.979 . S
C437 H468 0.977 . S
C438 C425 1.684 . S
C438 H463 0.979 . S
C438 H464 0.980 . S
C438 H465 0.983 . S
C439 C440 1.391 . S
C439 C444 1.391 . S
C439 H469 0.948 . S
C440 C439 1.391 . S
C440 C441 1.391 . S
C441 C440 1.391 . S
C441 C442 1.392 . S
C441 H470 0.947 . S
C442 C441 1.392 . S
C442 C443 1.419 . S
C442 H471 0.948 . S
C443 C442 1.419 . S
C443 C444 1.391 . S
C443 C447 1.397 . S
C444 C439 1.391 . S
C444 C443 1.391 . S
C444 C445 1.399 . S
C445 C444 1.399 . S
C445 C446 1.396 . S
C445 C448 1.453 . S
C445 C449 1.684 . S
C446 C427 1.723 . S
C446 C445 1.396 . S
C446 C447 1.394 . S
C447 C443 1.397 . S
C447 C446 1.394 . S
C447 C457 1.723 . S
C448 C445 1.453 . S
C448 H472 0.982 . S
C448 H473 0.979 . S
C448 H474 0.977 . S
C449 C445 1.684 . S
C449 H475 0.979 . S
C449 H476 0.980 . S
C449 H477 0.983 . S
C450 H426 0.948 . S
C450 C451 1.391 . S
C450 C455 1.391 . S
C451 C450 1.391 . S
C451 C452 1.391 . S
C452 H429 0.947 . S
C452 C451 1.391 . S
C452 C453 1.392 . S
C453 H430 0.948 . S
C453 C452 1.392 . S
C453 C454 1.419 . S
C454 C453 1.419 . S
C454 C455 1.391 . S
C454 C458 1.397 . S
C455 C450 1.391 . S
C455 C454 1.391 . S
C455 C456 1.399 . S
C456 C455 1.399 . S
C456 C457 1.396 . S
C456 C459 1.453 . S
C456 C460 1.684 . S
C457 C447 1.723 . S
C457 C456 1.396 . S
C457 C458 1.394 . S
C458 C428 1.723 . S
C458 C454 1.397 . S
C458 C457 1.394 . S
C459 H431 0.982 . S
C459 H435 0.979 . S
C459 H436 0.977 . S
C459 C456 1.453 . S
C460 H432 0.979 . S
C460 H433 0.980 . S
C460 H434 0.983 . S
C460 C456 1.684 . S
H461 C479 0.948 . S
H462 C420 0.948 . S
H463 C438 0.979 . S
H464 C438 0.980 . S
H465 C438 0.983 . S
H466 C437 0.982 . S
H467 C437 0.979 . S
H468 C437 0.977 . S
H469 C439 0.948 . S
H470 C441 0.947 . S
H471 C442 0.948 . S
H472 C448 0.982 . S
H473 C448 0.979 . S
H474 C448 0.977 . S
H475 C449 0.979 . S
H476 C449 0.980 . S
H477 C449 0.983 . S
H478 C422 0.947 . S
C479 C422 1.392 . S
C479 C423 1.419 . S
C479 H461 0.948 . S
Tb480 C489 2.764 . S
Tb480 O490 2.325 1_655 S
Tb480 O493 2.303 1_655 S
Tb480 O497 2.322 1_545 S
Tb480 O498 2.349 . S
Tb480 O501 2.415 1_655 S
Tb480 O502 2.399 . S
Tb481 O491 2.322 1_565 S
Tb481 O492 2.349 . S
Tb481 O494 2.415 . S
Tb481 O495 2.399 . S
Tb481 O496 2.325 . S
Tb481 O499 2.303 1_455 S
Tb481 C510 2.764 . S
C482 O498 1.261 . S
C482 O499 1.257 1_545 S
C483 C486 1.358 . S
C483 C487 1.332 1_655 S
C483 C489 1.504 . S
C484 C485 1.373 . S
C484 C488 1.308 1_655 S
C485 C484 1.373 . S
C485 C486 1.429 . S
C485 H512 0.932 . S
C486 C483 1.358 . S
C486 C485 1.429 . S
C486 H513 0.930 . S
C487 C483 1.332 1_455 S
C487 C488 1.394 . S
C487 H514 0.932 . S
C488 C484 1.308 1_455 S
C488 C487 1.394 . S
C488 H515 0.929 . S
C489 Tb480 2.764 . S
C489 C483 1.504 . S
C489 O501 1.239 1_655 S
C489 O502 1.263 . S
O490 Tb480 2.325 1_455 S
O490 C500 1.236 . S
O491 Tb481 2.322 1_545 S
O491 C500 1.257 . S
O492 Tb481 2.349 . S
O492 C503 1.261 . S
O493 Tb480 2.303 1_455 S
O493 C503 1.257 1_545 S
O494 Tb481 2.415 . S
O494 C510 1.239 . S
O495 Tb481 2.399 . S
O495 C510 1.263 . S
O496 Tb481 2.325 . S
O496 C511 1.236 1_455 S
O497 Tb480 2.322 1_565 S
O497 C511 1.257 . S
O498 Tb480 2.349 . S
O498 C482 1.261 . S
O499 Tb481 2.303 1_655 S
O499 C482 1.257 1_565 S
C500 O490 1.236 . S
C500 O491 1.257 . S
O501 Tb480 2.415 1_455 S
O501 C489 1.239 1_455 S
O502 Tb480 2.399 . S
O502 C489 1.263 . S
C503 O492 1.261 . S
C503 O493 1.257 1_565 S
C504 C507 1.358 . S
C504 C508 1.332 . S
C504 C510 1.504 . S
C505 C506 1.373 . S
C505 C509 1.308 . S
C506 C505 1.373 . S
C506 C507 1.429 . S
C506 H516 0.932 . S
C507 C504 1.358 . S
C507 C506 1.429 . S
C507 H517 0.930 . S
C508 C504 1.332 . S
C508 C509 1.394 . S
C508 H518 0.930 1_455 S
C509 C505 1.308 . S
C509 C508 1.394 . S
C509 H519 0.929 . S
C510 Tb481 2.764 . S
C510 O494 1.239 . S
C510 O495 1.263 . S
C510 C504 1.504 . S
C511 O496 1.236 1_655 S
C511 O497 1.257 . S
H512 C485 0.932 . S
H513 C486 0.930 . S
H514 C487 0.932 . S
H515 C488 0.929 . S
H516 C506 0.932 . S
H517 C507 0.930 . S
H518 C508 0.930 1_655 S
H519 C509 0.929 . S
Tb520 C529 2.764 . S
Tb520 O530 2.325 . S
Tb520 O533 2.303 1_565 S
Tb520 O537 2.322 . S
Tb520 O538 2.349 . S
Tb520 O541 2.415 1_565 S
Tb520 O542 2.399 . S
Tb521 O531 2.322 . S
Tb521 O532 2.349 . S
Tb521 O534 2.415 1_545 S
Tb521 O535 2.399 . S
Tb521 O536 2.325 . S
Tb521 O539 2.303 1_545 S
Tb521 C550 2.764 . S
C522 O538 1.261 . S
C522 O539 1.257 . S
C523 C526 1.358 . S
C523 C527 1.332 . S
C523 C529 1.504 . S
C524 C525 1.373 . S
C524 C528 1.308 . S
C525 C524 1.373 . S
C525 C526 1.429 . S
C525 H552 0.932 . S
C526 C523 1.358 . S
C526 C525 1.429 . S
C526 H553 0.930 . S
C527 C523 1.332 . S
C527 C528 1.394 . S
C527 H554 0.932 1_565 S
C528 C524 1.308 . S
C528 C527 1.394 . S
C528 H555 0.929 1_565 S
C529 Tb520 2.764 . S
C529 C523 1.504 . S
C529 O541 1.239 1_565 S
C529 O542 1.263 . S
O530 Tb520 2.325 . S
O530 C540 1.236 1_565 S
O531 Tb521 2.322 . S
O531 C540 1.257 . S
O532 Tb521 2.349 . S
O532 C543 1.261 . S
O533 Tb520 2.303 1_545 S
O533 C543 1.257 . S
O534 Tb521 2.415 1_565 S
O534 C550 1.239 1_565 S
O535 Tb521 2.399 . S
O535 C550 1.263 . S
O536 Tb521 2.325 . S
O536 C551 1.236 1_545 S
O537 Tb520 2.322 . S
O537 C551 1.257 . S
O538 Tb520 2.349 . S
O538 C522 1.261 . S
O539 Tb521 2.303 1_565 S
O539 C522 1.257 . S
C540 O530 1.236 1_545 S
C540 O531 1.257 . S
O541 Tb520 2.415 1_545 S
O541 C529 1.239 1_545 S
O542 Tb520 2.399 . S
O542 C529 1.263 . S
C543 O532 1.261 . S
C543 O533 1.257 . S
C544 C547 1.358 . S
C544 C548 1.342 . S
C544 C550 1.504 . S
C545 C546 1.373 . S
C545 C549 1.308 1_554 S
C546 C545 1.373 . S
C546 C547 1.429 1_554 S
C546 H556 0.932 . S
C547 C544 1.358 . S
C547 C546 1.429 1_556 S
C547 H557 0.930 . S
C548 C544 1.342 . S
C548 C549 1.394 . S
C548 H558 0.922 1_545 S
C549 C545 1.308 1_556 S
C549 C548 1.394 . S
C549 H559 0.929 1_545 S
C550 Tb521 2.764 . S
C550 O534 1.239 1_545 S
C550 O535 1.263 . S
C550 C544 1.504 . S
C551 O536 1.236 1_565 S
C551 O537 1.257 . S
H552 C525 0.932 . S
H553 C526 0.930 . S
H554 C527 0.932 1_545 S
H555 C528 0.929 1_545 S
H556 C546 0.932 . S
H557 C547 0.930 . S
H558 C548 0.922 1_565 S
H559 C549 0.929 1_565 S
Tb560 C569 2.764 . S
Tb560 O570 2.325 . S
Tb560 O573 2.303 . S
Tb560 O577 2.322 . S
Tb560 O578 2.349 . S
Tb560 O581 2.415 . S
Tb560 O582 2.399 . S
Tb561 O571 2.322 . S
Tb561 O572 2.349 . S
Tb561 O574 2.415 . S
Tb561 O575 2.399 . S
Tb561 O576 2.325 . S
Tb561 O579 2.303 . S
Tb561 C590 2.764 . S
C562 O578 1.261 . S
C562 O579 1.257 . S
C563 C566 1.358 . S
C563 C567 1.332 . S
C563 C569 1.504 . S
C564 C565 1.373 . S
C564 C568 1.308 . S
C565 C564 1.373 . S
C565 C566 1.429 1_554 S
C565 H592 0.932 . S
C566 C563 1.358 . S
C566 C565 1.429 1_556 S
C566 H593 0.930 . S
C567 C563 1.332 . S
C567 C568 1.394 1_556 S
C567 H594 0.932 . S
C568 C564 1.308 . S
C568 C567 1.394 1_554 S
C568 H595 0.929 . S
C569 Tb560 2.764 . S
C569 C563 1.504 . S
C569 O581 1.239 . S
C569 O582 1.263 . S
O570 Tb560 2.325 . S
O570 C580 1.236 . S
O571 Tb561 2.322 . S
O571 C580 1.257 . S
O572 Tb561 2.349 . S
O572 C583 1.261 . S
O573 Tb560 2.303 . S
O573 C583 1.257 . S
O574 Tb561 2.415 . S
O574 C590 1.239 . S
O575 Tb561 2.399 . S
O575 C590 1.263 . S
O576 Tb561 2.325 . S
O576 C591 1.236 . S
O577 Tb560 2.322 . S
O577 C591 1.257 . S
O578 Tb560 2.349 . S
O578 C562 1.261 . S
O579 Tb561 2.303 . S
O579 C562 1.257 . S
C580 O570 1.236 . S
C580 O571 1.257 . S
O581 Tb560 2.415 . S
O581 C569 1.239 . S
O582 Tb560 2.399 . S
O582 C569 1.263 . S
C583 O572 1.261 . S
C583 O573 1.257 . S
C584 C587 1.358 . S
C584 C588 1.332 . S
C584 C590 1.504 . S
C585 C586 1.373 . S
C585 C589 1.308 . S
C586 C585 1.373 . S
C586 C587 1.429 . S
C586 H596 0.932 . S
C587 C584 1.358 . S
C587 C586 1.429 . S
C587 H597 0.930 . S
C588 C584 1.332 . S
C588 C589 1.394 . S
C588 H598 0.932 . S
C589 C585 1.308 . S
C589 C588 1.394 . S
C589 H599 0.929 . S
C590 Tb561 2.764 . S
C590 O574 1.239 . S
C590 O575 1.263 . S
C590 C584 1.504 . S
C591 O576 1.236 . S
C591 O577 1.257 . S
H592 C565 0.932 . S
H593 C566 0.930 . S
H594 C567 0.932 . S
H595 C568 0.929 . S
H596 C586 0.932 . S
H597 C587 0.930 . S
H598 C588 0.932 . S
H599 C589 0.929 . S
Tb600 C609 2.764 . S
Tb600 O610 2.325 . S
Tb600 O613 2.303 . S
Tb600 O617 2.322 1_455 S
Tb600 O618 2.349 . S
Tb600 O621 2.415 . S
Tb600 O622 2.399 . S
Tb601 O611 2.322 1_655 S
Tb601 O612 2.349 1_655 S
Tb601 O614 2.415 . S
Tb601 O615 2.399 . S
Tb601 O616 2.325 . S
Tb601 O619 2.303 1_655 S
Tb601 C630 2.764 . S
C602 O618 1.261 . S
C602 O619 1.257 . S
C603 C606 1.358 . S
C603 C607 1.332 . S
C603 C609 1.504 . S
C604 C605 1.373 . S
C604 C608 1.308 . S
C605 C604 1.373 . S
C605 C606 1.429 . S
C605 H632 0.932 . S
C606 C603 1.358 . S
C606 C605 1.429 . S
C606 H633 0.930 . S
C607 C603 1.332 . S
C607 C608 1.394 . S
C607 H634 0.932 . S
C608 C604 1.308 . S
C608 C607 1.394 . S
C608 H635 0.929 . S
C609 Tb600 2.764 . S
C609 C603 1.504 . S
C609 O621 1.239 . S
C609 O622 1.263 . S
O610 Tb600 2.325 . S
O610 C620 1.236 . S
O611 Tb601 2.322 1_455 S
O611 C620 1.257 . S
O612 Tb601 2.349 1_455 S
O612 C623 1.261 . S
O613 Tb600 2.303 . S
O613 C623 1.257 . S
O614 Tb601 2.415 . S
O614 C630 1.239 . S
O615 Tb601 2.399 . S
O615 C630 1.263 . S
O616 Tb601 2.325 . S
O616 C631 1.236 . S
O617 Tb600 2.322 1_655 S
O617 C631 1.257 . S
O618 Tb600 2.349 . S
O618 C602 1.261 . S
O619 Tb601 2.303 1_455 S
O619 C602 1.257 . S
C620 O610 1.236 . S
C620 O611 1.257 . S
O621 Tb600 2.415 . S
O621 C609 1.239 . S
O622 Tb600 2.399 . S
O622 C609 1.263 . S
C623 O612 1.261 . S
C623 O613 1.257 . S
C624 C627 1.358 . S
C624 C628 1.332 . S
C624 C630 1.504 . S
C625 C626 1.373 1_554 S
C625 C629 1.308 1_554 S
C626 C625 1.373 1_556 S
C626 C627 1.429 . S
C626 H636 0.932 . S
C627 C624 1.358 . S
C627 C626 1.429 . S
C627 H637 0.930 . S
C628 C624 1.332 . S
C628 C629 1.394 . S
C628 H638 0.932 . S
C629 C625 1.308 1_556 S
C629 C628 1.394 . S
C629 H639 0.929 1_556 S
C630 Tb601 2.764 . S
C630 O614 1.239 . S
C630 O615 1.263 . S
C630 C624 1.504 . S
C631 O616 1.236 . S
C631 O617 1.257 . S
H632 C605 0.932 . S
H633 C606 0.930 . S
H634 C607 0.932 . S
H635 C608 0.929 . S
H636 C626 0.932 . S
H637 C627 0.930 . S
H638 C628 0.932 . S
H639 C629 0.929 1_554 S
H640 C652 0.930 . S
H641 C654 0.930 . S
H642 C655 0.930 . S
H643 C659 0.959 . S
H644 C659 0.959 1_545 S
H645 C659 0.961 1_545 S
H646 C660 0.960 . S
H647 C660 0.961 . S
H648 C660 0.959 . S
H649 C663 0.929 . S
H650 C664 0.931 . S
H651 C666 0.930 . S
C652 H640 0.930 . S
C652 C653 1.401 . S
C652 C657 1.399 . S
C653 C652 1.401 . S
C653 C654 1.371 1_545 S
C654 H641 0.930 . S
C654 C653 1.371 1_565 S
C654 C655 1.388 . S
C655 H642 0.930 . S
C655 C654 1.388 . S
C655 C656 1.392 . S
C656 C655 1.392 . S
C656 C657 1.387 1_565 S
C656 C662 1.461 . S
C657 C652 1.399 . S
C657 C656 1.387 1_545 S
C657 C658 1.516 . S
C658 C657 1.516 . S
C658 C659 1.502 1_545 S
C658 C660 1.561 . S
C658 C661 1.526 . S
C659 H643 0.959 . S
C659 H644 0.959 1_565 S
C659 H645 0.961 1_565 S
C659 C658 1.502 1_565 S
C660 H646 0.960 . S
C660 H647 0.961 . S
C660 H648 0.959 . S
C660 C658 1.561 . S
C661 C658 1.526 . S
C661 C662 1.388 1_545 S
C661 C666 1.390 . S
C662 C656 1.461 . S
C662 C661 1.388 1_565 S
C662 C663 1.414 . S
C663 H649 0.929 . S
C663 C662 1.414 . S
C663 C664 1.385 . S
C664 H650 0.931 . S
C664 C663 1.385 . S
C664 C665 1.389 . S
C665 C664 1.389 . S
C665 C666 1.388 1_565 S
C666 H651 0.930 . S
C666 C661 1.390 . S
C666 C665 1.388 1_545 S
H667 C679 0.930 . S
H668 C681 0.930 . S
H669 C682 0.930 . S
H670 C686 0.959 . S
H671 C686 0.959 . S
H672 C686 0.961 . S
H673 C687 0.960 . S
H674 C687 0.961 . S
H675 C687 0.959 . S
H676 C690 0.929 . S
H677 C691 0.931 . S
H678 C693 0.930 . S
C679 H667 0.930 . S
C679 C680 1.399 . S
C679 C684 1.399 . S
C680 C679 1.399 . S
C680 C681 1.376 . S
C681 H668 0.930 . S
C681 C680 1.376 . S
C681 C682 1.388 . S
C682 H669 0.930 . S
C682 C681 1.388 . S
C682 C683 1.390 . S
C683 C682 1.390 . S
C683 C684 1.394 . S
C683 C689 1.465 . S
C684 C679 1.399 . S
C684 C683 1.394 . S
C684 C685 1.516 . S
C685 C684 1.516 . S
C685 C686 1.502 . S
C685 C687 1.561 . S
C685 C688 1.526 . S
C686 H670 0.959 . S
C686 H671 0.959 . S
C686 H672 0.961 . S
C686 C685 1.502 . S
C687 H673 0.960 . S
C687 H674 0.961 . S
C687 H675 0.959 . S
C687 C685 1.561 . S
C688 C685 1.526 . S
C688 C689 1.396 . S
C688 C693 1.390 . S
C689 C683 1.465 . S
C689 C688 1.396 . S
C689 C690 1.399 . S
C690 H676 0.929 . S
C690 C689 1.399 . S
C690 C691 1.385 . S
C691 H677 0.931 . S
C691 C690 1.385 . S
C691 C692 1.389 . S
C692 C691 1.389 . S
C692 C693 1.387 . S
C693 H678 0.930 . S
C693 C688 1.390 . S
C693 C692 1.387 . S
H694 C706 0.930 . S
H695 C708 0.930 . S
H696 C709 0.930 . S
H697 C713 0.959 . S
H698 C713 0.959 . S
H699 C713 0.961 . S
H700 C714 0.960 . S
H701 C714 0.961 . S
H702 C714 0.959 . S
H703 C717 0.929 . S
H704 C718 0.931 . S
H705 C720 0.930 . S
C706 H694 0.930 . S
C706 C707 1.399 . S
C706 C711 1.399 . S
C707 C706 1.399 . S
C707 C708 1.376 . S
C708 H695 0.930 . S
C708 C707 1.376 . S
C708 C709 1.388 . S
C709 H696 0.930 . S
C709 C708 1.388 . S
C709 C710 1.390 . S
C710 C709 1.390 . S
C710 C711 1.394 . S
C710 C716 1.465 . S
C711 C706 1.399 . S
C711 C710 1.394 . S
C711 C712 1.516 . S
C712 C711 1.516 . S
C712 C713 1.502 . S
C712 C714 1.561 . S
C712 C715 1.526 . S
C713 H697 0.959 . S
C713 H698 0.959 . S
C713 H699 0.961 . S
C713 C712 1.502 . S
C714 H700 0.960 . S
C714 H701 0.961 . S
C714 H702 0.959 . S
C714 C712 1.561 . S
C715 C712 1.526 . S
C715 C716 1.396 . S
C715 C720 1.390 . S
C716 C710 1.465 . S
C716 C715 1.396 . S
C716 C717 1.399 . S
C717 H703 0.929 . S
C717 C716 1.399 . S
C717 C718 1.385 . S
C718 H704 0.931 . S
C718 C717 1.385 . S
C718 C719 1.389 . S
C719 C718 1.389 . S
C719 C720 1.387 . S
C720 H705 0.930 . S
C720 C715 1.390 . S
C720 C719 1.387 . S
H721 C733 0.930 . S
H722 C735 0.930 . S
H723 C736 0.930 . S
H724 C740 0.959 . S
H725 C740 0.959 . S
H726 C740 0.961 . S
H727 C741 0.960 . S
H728 C741 0.961 . S
H729 C741 0.959 . S
H730 C744 0.929 1_655 S
H731 C745 0.931 1_655 S
H732 C747 0.930 . S
C733 H721 0.930 . S
C733 C734 1.399 . S
C733 C738 1.399 . S
C734 C733 1.399 . S
C734 C735 1.376 . S
C735 H722 0.930 . S
C735 C734 1.376 . S
C735 C736 1.388 . S
C736 H723 0.930 . S
C736 C735 1.388 . S
C736 C737 1.390 . S
C737 C736 1.390 . S
C737 C738 1.394 . S
C737 C743 1.465 . S
C738 C733 1.399 . S
C738 C737 1.394 . S
C738 C739 1.516 . S
C739 C738 1.516 . S
C739 C740 1.502 . S
C739 C741 1.561 . S
C739 C742 1.526 . S
C740 H724 0.959 . S
C740 H725 0.959 . S
C740 H726 0.961 . S
C740 C739 1.502 . S
C741 H727 0.960 . S
C741 H728 0.961 . S
C741 H729 0.959 . S
C741 C739 1.561 . S
C742 C739 1.526 . S
C742 C743 1.396 . S
C742 C747 1.390 . S
C743 C737 1.465 . S
C743 C742 1.396 . S
C743 C744 1.399 . S
C744 H730 0.929 1_455 S
C744 C743 1.399 . S
C744 C745 1.385 . S
C745 H731 0.931 1_455 S
C745 C744 1.385 . S
C745 C746 1.389 . S
C746 C745 1.389 . S
C746 C747 1.387 . S
C747 H732 0.930 . S
C747 C742 1.390 . S
C747 C746 1.387 . S
H748 C760 0.930 . S
H749 C762 0.930 . S
H750 C763 0.930 . S
H751 C767 0.959 . S
H752 C767 0.959 . S
H753 C767 0.961 . S
H754 C768 0.960 . S
H755 C768 0.961 . S
H756 C768 0.959 . S
H757 C771 0.929 . S
H758 C772 0.931 . S
H759 C774 0.930 . S
C760 H748 0.930 . S
C760 C761 1.399 1_545 S
C760 C765 1.399 . S
C761 C760 1.399 1_565 S
C761 C762 1.376 . S
C762 H749 0.930 . S
C762 C761 1.376 . S
C762 C763 1.388 . S
C763 H750 0.930 . S
C763 C762 1.388 . S
C763 C764 1.390 . S
C764 C763 1.390 . S
C764 C765 1.394 1_565 S
C764 C770 1.465 . S
C765 C760 1.399 . S
C765 C764 1.394 1_545 S
C765 C766 1.516 . S
C766 C765 1.516 . S
C766 C767 1.502 . S
C766 C768 1.561 . S
C766 C769 1.526 . S
C767 H751 0.959 . S
C767 H752 0.959 . S
C767 H753 0.961 . S
C767 C766 1.502 . S
C768 H754 0.960 . S
C768 H755 0.961 . S
C768 H756 0.959 . S
C768 C766 1.561 . S
C769 C766 1.526 . S
C769 C770 1.396 1_545 S
C769 C774 1.390 1_554 S
C770 C764 1.465 . S
C770 C769 1.396 1_565 S
C770 C771 1.399 . S
C771 H757 0.929 . S
C771 C770 1.399 . S
C771 C772 1.385 1_554 S
C772 H758 0.931 . S
C772 C771 1.385 1_556 S
C772 C773 1.389 . S
C773 C772 1.389 . S
C773 C774 1.387 1_565 S
C774 H759 0.930 . S
C774 C769 1.390 1_556 S
C774 C773 1.387 1_545 S
H775 C787 0.930 . S
H776 C789 0.930 1_554 S
H777 C790 0.930 1_554 S
H778 C794 0.959 . S
H779 C794 0.959 . S
H780 C794 0.961 . S
H781 C795 0.960 . S
H782 C795 0.961 . S
H783 C795 0.959 . S
H784 C798 0.929 . S
H785 C799 0.931 . S
H786 C801 0.930 . S
C787 H775 0.930 . S
C787 C788 1.399 . S
C787 C792 1.399 . S
C788 C787 1.399 . S
C788 C789 1.376 . S
C789 H776 0.930 1_556 S
C789 C788 1.376 . S
C789 C790 1.388 . S
C790 H777 0.930 1_556 S
C790 C789 1.388 . S
C790 C791 1.390 . S
C791 C790 1.390 . S
C791 C792 1.394 . S
C791 C797 1.465 . S
C792 C787 1.399 . S
C792 C791 1.394 . S
C792 C793 1.516 . S
C793 C792 1.516 . S
C793 C794 1.502 . S
C793 C795 1.561 . S
C793 C796 1.526 . S
C794 H778 0.959 . S
C794 H779 0.959 . S
C794 H780 0.961 . S
C794 C793 1.502 . S
C795 H781 0.960 . S
C795 H782 0.961 . S
C795 H783 0.959 . S
C795 C793 1.561 . S
C796 C793 1.526 . S
C796 C797 1.396 . S
C796 C801 1.390 . S
C797 C791 1.465 . S
C797 C796 1.396 . S
C797 C798 1.399 . S
C798 H784 0.929 . S
C798 C797 1.399 . S
C798 C799 1.385 . S
C799 H785 0.931 . S
C799 C798 1.385 . S
C799 C800 1.389 . S
C800 C799 1.389 . S
C800 C801 1.387 . S
C801 H786 0.930 . S
C801 C796 1.390 . S
C801 C800 1.387 . S
H802 C814 0.930 . S
H803 C816 0.930 . S
H804 C817 0.930 . S
H805 C821 0.959 . S
H806 C821 0.959 . S
H807 C821 0.961 . S
H808 C822 0.960 . S
H809 C822 0.961 . S
H810 C822 0.959 . S
H811 C825 0.929 . S
H812 C826 0.931 . S
H813 C828 0.930 . S
C814 H802 0.930 . S
C814 C815 1.399 . S
C814 C819 1.399 . S
C815 C814 1.399 . S
C815 C816 1.376 . S
C816 H803 0.930 . S
C816 C815 1.376 . S
C816 C817 1.388 . S
C817 H804 0.930 . S
C817 C816 1.388 . S
C817 C818 1.390 . S
C818 C817 1.390 . S
C818 C819 1.394 . S
C818 C824 1.465 . S
C819 C814 1.399 . S
C819 C818 1.394 . S
C819 C820 1.516 . S
C820 C819 1.516 . S
C820 C821 1.502 . S
C820 C822 1.561 . S
C820 C823 1.526 . S
C821 H805 0.959 . S
C821 H806 0.959 . S
C821 H807 0.961 . S
C821 C820 1.502 . S
C822 H808 0.960 . S
C822 H809 0.961 . S
C822 H810 0.959 . S
C822 C820 1.561 . S
C823 C820 1.526 . S
C823 C824 1.396 . S
C823 C828 1.390 1_554 S
C824 C818 1.465 . S
C824 C823 1.396 . S
C824 C825 1.399 . S
C825 H811 0.929 . S
C825 C824 1.399 . S
C825 C826 1.385 1_554 S
C826 H812 0.931 . S
C826 C825 1.385 1_556 S
C826 C827 1.389 . S
C827 C826 1.389 . S
C827 C828 1.387 . S
C828 H813 0.930 . S
C828 C823 1.390 1_556 S
C828 C827 1.387 . S
H829 C841 0.930 1_455 S
H830 C843 0.930 . S
H831 C844 0.930 . S
H832 C848 0.959 . S
H833 C848 0.959 . S
H834 C848 0.961 . S
H835 C849 0.960 . S
H836 C849 0.961 . S
H837 C849 0.959 . S
H838 C852 0.929 . S
H839 C853 0.931 . S
H840 C855 0.930 . S
C841 H829 0.930 1_655 S
C841 C842 1.399 . S
C841 C846 1.399 . S
C842 C841 1.399 . S
C842 C843 1.376 . S
C843 H830 0.930 . S
C843 C842 1.376 . S
C843 C844 1.388 . S
C844 H831 0.930 . S
C844 C843 1.388 . S
C844 C845 1.390 . S
C845 C844 1.390 . S
C845 C846 1.394 . S
C845 C851 1.465 . S
C846 C841 1.399 . S
C846 C845 1.394 . S
C846 C847 1.516 1_655 S
C847 C846 1.516 1_455 S
C847 C848 1.502 . S
C847 C849 1.561 1_455 S
C847 C850 1.528 . S
C848 H832 0.959 . S
C848 H833 0.959 . S
C848 H834 0.961 . S
C848 C847 1.502 . S
C849 H835 0.960 . S
C849 H836 0.961 . S
C849 H837 0.959 . S
C849 C847 1.561 1_655 S
C850 C847 1.528 . S
C850 C851 1.390 1_455 S
C850 C855 1.392 1_554 S
C851 C845 1.465 . S
C851 C850 1.390 1_655 S
C851 C852 1.399 1_554 S
C852 H838 0.929 . S
C852 C851 1.399 1_556 S
C852 C853 1.385 . S
C853 H839 0.931 . S
C853 C852 1.385 . S
C853 C854 1.389 1_655 S
C854 C853 1.389 1_455 S
C854 C855 1.387 . S
C855 H840 0.930 . S
C855 C850 1.392 1_556 S
C855 C854 1.387 . S
H856 C868 0.930 . S
H857 C870 0.930 . S
H858 C871 0.930 1_655 S
H859 C875 0.959 . S
H860 C875 0.959 . S
H861 C875 0.961 . S
H862 C876 0.960 . S
H863 C876 0.961 . S
H864 C876 0.959 . S
H865 C879 0.929 . S
H866 C880 0.931 . S
H867 C882 0.930 . S
C868 H856 0.930 . S
C868 C869 1.399 . S
C868 C873 1.399 . S
C869 C868 1.399 . S
C869 C870 1.376 . S
C870 H857 0.930 . S
C870 C869 1.376 . S
C870 C871 1.388 . S
C871 H858 0.930 1_455 S
C871 C870 1.388 . S
C871 C872 1.390 . S
C872 C871 1.390 . S
C872 C873 1.394 . S
C872 C878 1.465 1_455 S
C873 C868 1.399 . S
C873 C872 1.394 . S
C873 C874 1.516 . S
C874 C873 1.516 . S
C874 C875 1.502 . S
C874 C876 1.561 . S
C874 C877 1.526 . S
C875 H859 0.959 . S
C875 H860 0.959 . S
C875 H861 0.961 . S
C875 C874 1.502 . S
C876 H862 0.960 . S
C876 H863 0.961 . S
C876 H864 0.959 . S
C876 C874 1.561 . S
C877 C874 1.526 . S
C877 C878 1.396 1_455 S
C877 C882 1.390 . S
C878 C872 1.465 1_655 S
C878 C877 1.396 1_655 S
C878 C879 1.399 . S
C879 H865 0.929 . S
C879 C878 1.399 . S
C879 C880 1.385 . S
C880 H866 0.931 . S
C880 C879 1.385 . S
C880 C881 1.389 . S
C881 C880 1.389 . S
C881 C882 1.387 1_655 S
C882 H867 0.930 . S
C882 C877 1.390 . S
C882 C881 1.387 1_455 S
H883 C895 0.930 . S
H884 C897 0.930 . S
H885 C898 0.930 . S
H886 C902 0.959 . S
H887 C902 0.959 . S
H888 C902 0.961 . S
H889 C903 0.960 . S
H890 C903 0.961 . S
H891 C903 0.959 . S
H892 C906 0.929 . S
H893 C907 0.931 . S
H894 C909 0.930 1_545 S
C895 H883 0.930 . S
C895 C896 1.413 . S
C895 C900 1.399 . S
C896 C895 1.413 . S
C896 C897 1.348 1_545 S
C897 H884 0.930 . S
C897 C896 1.348 1_565 S
C897 C898 1.388 . S
C898 H885 0.930 . S
C898 C897 1.388 . S
C898 C899 1.390 . S
C899 C898 1.390 . S
C899 C900 1.394 1_565 S
C899 C905 1.465 . S
C900 C895 1.399 . S
C900 C899 1.394 1_545 S
C900 C901 1.516 . S
C901 C900 1.516 . S
C901 C902 1.502 . S
C901 C903 1.561 . S
C901 C904 1.526 1_545 S
C902 H886 0.959 . S
C902 H887 0.959 . S
C902 H888 0.961 . S
C902 C901 1.502 . S
C903 H889 0.960 . S
C903 H890 0.961 . S
C903 H891 0.959 . S
C903 C901 1.561 . S
C904 C901 1.526 1_565 S
C904 C905 1.396 . S
C904 C909 1.390 . S
C905 C899 1.465 . S
C905 C904 1.396 . S
C905 C906 1.399 . S
C906 H892 0.929 . S
C906 C905 1.399 . S
C906 C907 1.385 . S
C907 H893 0.931 . S
C907 C906 1.385 . S
C907 C908 1.389 . S
C908 C907 1.389 . S
C908 C909 1.387 . S
C909 H894 0.930 1_565 S
C909 C904 1.390 . S
C909 C908 1.387 . S
H910 C922 0.930 . S
H911 C924 0.930 . S
H912 C925 0.930 . S
H913 C929 0.959 . S
H914 C929 0.959 . S
H915 C929 0.961 . S
H916 C930 0.960 . S
H917 C930 0.961 . S
H918 C930 0.959 . S
H919 C933 0.929 . S
H920 C934 0.931 . S
H921 C936 0.930 . S
C922 H910 0.930 . S
C922 C923 1.399 . S
C922 C927 1.399 . S
C923 C922 1.399 . S
C923 C924 1.376 . S
C924 H911 0.930 . S
C924 C923 1.376 . S
C924 C925 1.388 . S
C925 H912 0.930 . S
C925 C924 1.388 . S
C925 C926 1.390 . S
C926 C925 1.390 . S
C926 C927 1.394 . S
C926 C932 1.465 . S
C927 C922 1.399 . S
C927 C926 1.394 . S
C927 C928 1.516 . S
C928 C927 1.516 . S
C928 C929 1.502 . S
C928 C930 1.561 . S
C928 C931 1.526 . S
C929 H913 0.959 . S
C929 H914 0.959 . S
C929 H915 0.961 . S
C929 C928 1.502 . S
C930 H916 0.960 . S
C930 H917 0.961 . S
C930 H918 0.959 . S
C930 C928 1.561 . S
C931 C928 1.526 . S
C931 C932 1.396 . S
C931 C936 1.390 . S
C932 C926 1.465 . S
C932 C931 1.396 . S
C932 C933 1.399 . S
C933 H919 0.929 . S
C933 C932 1.399 . S
C933 C934 1.385 . S
C934 H920 0.931 . S
C934 C933 1.385 . S
C934 C935 1.389 . S
C935 C934 1.389 . S
C935 C936 1.387 . S
C936 H921 0.930 . S
C936 C931 1.390 . S
C936 C935 1.387 . S
H937 C949 0.930 . S
H938 C951 0.930 . S
H939 C952 0.930 . S
H940 C956 0.959 . S
H941 C956 0.959 . S
H942 C956 0.961 . S
H943 C957 0.960 . S
H944 C957 0.961 . S
H945 C957 0.959 . S
H946 C960 0.929 . S
H947 C961 0.931 . S
H948 C963 0.930 . S
C949 H937 0.930 . S
C949 C950 1.399 . S
C949 C954 1.399 . S
C950 C949 1.399 . S
C950 C951 1.376 . S
C951 H938 0.930 . S
C951 C950 1.376 . S
C951 C952 1.388 . S
C952 H939 0.930 . S
C952 C951 1.388 . S
C952 C953 1.390 . S
C953 C952 1.390 . S
C953 C954 1.394 . S
C953 C959 1.465 . S
C954 C949 1.399 . S
C954 C953 1.394 . S
C954 C955 1.516 . S
C955 C954 1.516 . S
C955 C956 1.502 . S
C955 C957 1.561 . S
C955 C958 1.526 . S
C956 H940 0.959 . S
C956 H941 0.959 . S
C956 H942 0.961 . S
C956 C955 1.502 . S
C957 H943 0.960 . S
C957 H944 0.961 . S
C957 H945 0.959 . S
C957 C955 1.561 . S
C958 C955 1.526 . S
C958 C959 1.396 . S
C958 C963 1.390 . S
C959 C953 1.465 . S
C959 C958 1.396 . S
C959 C960 1.399 . S
C960 H946 0.929 . S
C960 C959 1.399 . S
C960 C961 1.385 . S
C961 H947 0.931 . S
C961 C960 1.385 . S
C961 C962 1.389 . S
C962 C961 1.389 . S
C962 C963 1.387 . S
C963 H948 0.930 . S
C963 C958 1.390 . S
C963 C962 1.387 . S
H964 C976 0.930 . S
H965 C978 0.930 . S
H966 C979 0.930 . S
H967 C983 0.959 . S
H968 C983 0.959 . S
H969 C983 0.961 1_655 S
H970 C984 0.960 . S
H971 C984 0.961 . S
H972 C984 0.959 1_554 S
H973 C987 0.929 . S
H974 C988 0.931 . S
H975 C990 0.930 . S
C976 H964 0.930 . S
C976 C977 1.399 . S
C976 C981 1.399 . S
C977 C976 1.399 . S
C977 C978 1.376 . S
C978 H965 0.930 . S
C978 C977 1.376 . S
C978 C979 1.388 1_655 S
C979 H966 0.930 . S
C979 C978 1.388 1_455 S
C979 C980 1.390 . S
C980 C979 1.390 . S
C980 C981 1.394 1_455 S
C980 C986 1.465 . S
C981 C976 1.399 . S
C981 C980 1.394 1_655 S
C981 C982 1.516 1_554 S
C982 C981 1.516 1_556 S
C982 C983 1.502 1_655 S
C982 C984 1.561 . S
C982 C985 1.526 1_656 S
C983 H967 0.959 . S
C983 H968 0.959 . S
C983 H969 0.961 1_455 S
C983 C982 1.502 1_455 S
C984 H970 0.960 . S
C984 H971 0.961 . S
C984 H972 0.959 1_556 S
C984 C982 1.561 . S
C985 C982 1.526 1_454 S
C985 C986 1.396 . S
C985 C990 1.390 1_554 S
C986 C980 1.465 . S
C986 C985 1.396 . S
C986 C987 1.399 . S
C987 H973 0.929 . S
C987 C986 1.399 . S
C987 C988 1.385 . S
C988 H974 0.931 . S
C988 C987 1.385 . S
C988 C989 1.379 1_554 S
C989 C988 1.379 1_556 S
C989 C990 1.390 . S
C990 H975 0.930 . S
C990 C985 1.390 1_556 S
C990 C989 1.390 . S
H991 C1003 0.930 . S
H992 C1005 0.930 . S
H993 C1006 0.930 . S
H994 C1010 0.959 1_545 S
H995 C1010 0.959 . S
H996 C1010 0.961 . S
H997 C1011 0.960 . S
H998 C1011 0.961 . S
H999 C1011 0.959 . S
H1000 C1014 0.929 . S
H1001 C1015 0.931 . S
H1002 C1017 0.930 1_556 S
C1003 H991 0.930 . S
C1003 C1004 1.399 . S
C1003 C1008 1.399 . S
C1004 C1003 1.399 . S
C1004 C1005 1.376 1_565 S
C1005 H992 0.930 . S
C1005 C1004 1.376 1_545 S
C1005 C1006 1.388 . S
C1006 H993 0.930 . S
C1006 C1005 1.388 . S
C1006 C1007 1.390 . S
C1007 C1006 1.390 . S
C1007 C1008 1.394 1_545 S
C1007 C1013 1.465 . S
C1008 C1003 1.399 . S
C1008 C1007 1.394 1_565 S
C1008 C1009 1.516 . S
C1009 C1008 1.516 . S
C1009 C1010 1.502 1_554 S
C1009 C1011 1.561 . S
C1009 C1012 1.526 1_565 S
C1010 H994 0.959 1_565 S
C1010 H995 0.959 . S
C1010 H996 0.961 . S
C1010 C1009 1.502 1_556 S
C1011 H997 0.960 . S
C1011 H998 0.961 . S
C1011 H999 0.959 . S
C1011 C1009 1.561 . S
C1012 C1009 1.526 1_545 S
C1012 C1013 1.396 . S
C1012 C1017 1.390 . S
C1013 C1007 1.465 . S
C1013 C1012 1.396 . S
C1013 C1014 1.399 . S
C1014 H1000 0.929 . S
C1014 C1013 1.399 . S
C1014 C1015 1.385 . S
C1015 H1001 0.931 . S
C1015 C1014 1.385 . S
C1015 C1016 1.389 . S
C1016 C1015 1.389 . S
C1016 C1017 1.387 . S
C1017 H1002 0.930 1_554 S
C1017 C1012 1.390 . S
C1017 C1016 1.387 . S
H1018 C1030 0.930 . S
H1019 C1032 0.930 . S
H1020 C1033 0.930 . S
H1021 C1037 0.959 . S
H1022 C1037 0.959 . S
H1023 C1037 0.961 . S
H1024 C1038 0.960 . S
H1025 C1038 0.961 . S
H1026 C1038 0.959 . S
H1027 C1041 0.929 . S
H1028 C1042 0.931 . S
H1029 C1044 0.930 . S
C1030 H1018 0.930 . S
C1030 C1031 1.399 . S
C1030 C1035 1.399 . S
C1031 C1030 1.399 . S
C1031 C1032 1.376 . S
C1032 H1019 0.930 . S
C1032 C1031 1.376 . S
C1032 C1033 1.388 . S
C1033 H1020 0.930 . S
C1033 C1032 1.388 . S
C1033 C1034 1.390 . S
C1034 C1033 1.390 . S
C1034 C1035 1.394 . S
C1034 C1040 1.465 . S
C1035 C1030 1.399 . S
C1035 C1034 1.394 . S
C1035 C1036 1.516 . S
C1036 C1035 1.516 . S
C1036 C1037 1.502 . S
C1036 C1038 1.561 . S
C1036 C1039 1.526 . S
C1037 H1021 0.959 . S
C1037 H1022 0.959 . S
C1037 H1023 0.961 . S
C1037 C1036 1.502 . S
C1038 H1024 0.960 . S
C1038 H1025 0.961 . S
C1038 H1026 0.959 . S
C1038 C1036 1.561 . S
C1039 C1036 1.526 . S
C1039 C1040 1.396 . S
C1039 C1044 1.390 . S
C1040 C1034 1.465 . S
C1040 C1039 1.396 . S
C1040 C1041 1.399 . S
C1041 H1027 0.929 . S
C1041 C1040 1.399 . S
C1041 C1042 1.385 . S
C1042 H1028 0.931 . S
C1042 C1041 1.385 . S
C1042 C1043 1.389 . S
C1043 C1042 1.389 . S
C1043 C1044 1.387 . S
C1044 H1029 0.930 . S
C1044 C1039 1.390 . S
C1044 C1043 1.387 . S
H1045 C1057 0.930 . S
H1046 C1059 0.930 . S
H1047 C1060 0.930 . S
H1048 C1064 0.959 . S
H1049 C1064 0.959 1_556 S
H1050 C1064 0.961 . S
H1051 C1065 0.960 . S
H1052 C1065 0.961 . S
H1053 C1065 0.959 . S
H1054 C1068 0.929 . S
H1055 C1069 0.931 . S
H1056 C1071 0.930 . S
C1057 H1045 0.930 . S
C1057 C1058 1.399 . S
C1057 C1062 1.399 . S
C1058 C1057 1.399 . S
C1058 C1059 1.376 . S
C1059 H1046 0.930 . S
C1059 C1058 1.376 . S
C1059 C1060 1.388 . S
C1060 H1047 0.930 . S
C1060 C1059 1.388 . S
C1060 C1061 1.390 . S
C1061 C1060 1.390 . S
C1061 C1062 1.394 . S
C1061 C1067 1.465 . S
C1062 C1057 1.399 . S
C1062 C1061 1.394 . S
C1062 C1063 1.516 . S
C1063 C1062 1.516 . S
C1063 C1064 1.502 . S
C1063 C1065 1.561 1_554 S
C1063 C1066 1.526 . S
C1064 H1048 0.959 . S
C1064 H1049 0.959 1_554 S
C1064 H1050 0.961 . S
C1064 C1063 1.502 . S
C1065 H1051 0.960 . S
C1065 H1052 0.961 . S
C1065 H1053 0.959 . S
C1065 C1063 1.561 1_556 S
C1066 C1063 1.526 . S
C1066 C1067 1.396 . S
C1066 C1071 1.390 1_554 S
C1067 C1061 1.465 . S
C1067 C1066 1.396 . S
C1067 C1068 1.399 . S
C1068 H1054 0.929 . S
C1068 C1067 1.399 . S
C1068 C1069 1.385 . S
C1069 H1055 0.931 . S
C1069 C1068 1.385 . S
C1069 C1070 1.389 . S
C1070 C1069 1.389 . S
C1070 C1071 1.387 1_554 S
C1071 H1056 0.930 . S
C1071 C1066 1.390 1_556 S
C1071 C1070 1.387 1_556 S
H1072 C1084 0.930 . S
H1073 C1086 0.930 . S
H1074 C1087 0.930 . S
H1075 C1091 0.959 . S
H1076 C1091 0.959 1_554 S
H1077 C1091 0.961 1_554 S
H1078 C1092 0.960 . S
H1079 C1092 0.961 . S
H1080 C1092 0.964 . S
H1081 C1095 0.929 . S
H1082 C1096 0.931 . S
H1083 C1098 0.930 . S
C1084 H1072 0.930 . S
C1084 C1085 1.399 . S
C1084 C1089 1.399 . S
C1085 C1084 1.399 . S
C1085 C1086 1.376 . S
C1086 H1073 0.930 . S
C1086 C1085 1.376 . S
C1086 C1087 1.388 . S
C1087 H1074 0.930 . S
C1087 C1086 1.388 . S
C1087 C1088 1.390 . S
C1088 C1087 1.390 . S
C1088 C1089 1.394 . S
C1088 C1094 1.465 . S
C1089 C1084 1.399 . S
C1089 C1088 1.394 . S
C1089 C1090 1.516 . S
C1090 C1089 1.516 . S
C1090 C1091 1.502 . S
C1090 C1092 1.561 1_556 S
C1090 C1093 1.526 . S
C1091 H1075 0.959 . S
C1091 H1076 0.959 1_556 S
C1091 H1077 0.961 1_556 S
C1091 C1090 1.502 . S
C1092 H1078 0.960 . S
C1092 H1079 0.961 . S
C1092 H1080 0.964 . S
C1092 C1090 1.561 1_554 S
C1093 C1090 1.526 . S
C1093 C1094 1.396 . S
C1093 C1098 1.390 . S
C1094 C1088 1.465 . S
C1094 C1093 1.396 . S
C1094 C1095 1.399 . S
C1095 H1081 0.929 . S
C1095 C1094 1.399 . S
C1095 C1096 1.385 . S
C1096 H1082 0.931 . S
C1096 C1095 1.385 . S
C1096 C1097 1.389 . S
C1097 C1096 1.389 . S
C1097 C1098 1.387 . S
C1098 H1083 0.930 . S
C1098 C1093 1.390 . S
C1098 C1097 1.387 . S
H1099 C1111 0.930 . S
H1100 C1113 0.930 . S
H1101 C1114 0.930 . S
H1102 C1118 0.959 . S
H1103 C1118 0.959 . S
H1104 C1118 0.961 . S
H1105 C1119 0.960 . S
H1106 C1119 0.961 . S
H1107 C1119 0.959 . S
H1108 C1122 0.929 . S
H1109 C1123 0.931 . S
H1110 C1125 0.930 . S
C1111 H1099 0.930 . S
C1111 C1112 1.385 1_545 S
C1111 C1116 1.399 . S
C1112 C1111 1.385 1_565 S
C1112 C1113 1.393 . S
C1113 H1100 0.930 . S
C1113 C1112 1.393 . S
C1113 C1114 1.388 . S
C1114 H1101 0.930 . S
C1114 C1113 1.388 . S
C1114 C1115 1.390 . S
C1115 C1114 1.390 . S
C1115 C1116 1.394 1_565 S
C1115 C1121 1.465 . S
C1116 C1111 1.399 . S
C1116 C1115 1.394 1_545 S
C1116 C1117 1.516 . S
C1117 C1116 1.516 . S
C1117 C1118 1.502 . S
C1117 C1119 1.561 . S
C1117 C1120 1.526 . S
C1118 H1102 0.959 . S
C1118 H1103 0.959 . S
C1118 H1104 0.961 . S
C1118 C1117 1.502 . S
C1119 H1105 0.960 . S
C1119 H1106 0.961 . S
C1119 H1107 0.959 . S
C1119 C1117 1.561 . S
C1120 C1117 1.526 . S
C1120 C1121 1.396 1_545 S
C1120 C1125 1.390 . S
C1121 C1115 1.465 . S
C1121 C1120 1.396 1_565 S
C1121 C1122 1.399 . S
C1122 H1108 0.929 . S
C1122 C1121 1.399 . S
C1122 C1123 1.385 . S
C1123 H1109 0.931 . S
C1123 C1122 1.385 . S
C1123 C1124 1.389 1_565 S
C1124 C1123 1.389 1_545 S
C1124 C1125 1.387 . S
C1125 H1110 0.930 . S
C1125 C1120 1.390 . S
C1125 C1124 1.387 . S
H1126 C1138 0.930 . S
H1127 C1140 0.930 . S
H1128 C1141 0.930 . S
H1129 C1145 0.959 . S
H1130 C1145 0.959 . S
H1131 C1145 0.961 . S
H1132 C1146 0.960 . S
H1133 C1146 0.961 . S
H1134 C1146 0.959 . S
H1135 C1149 0.929 . S
H1136 C1150 0.931 . S
H1137 C1152 0.930 . S
C1138 H1126 0.930 . S
C1138 C1139 1.399 . S
C1138 C1143 1.399 . S
C1139 C1138 1.399 . S
C1139 C1140 1.376 . S
C1140 H1127 0.930 . S
C1140 C1139 1.376 . S
C1140 C1141 1.388 . S
C1141 H1128 0.930 . S
C1141 C1140 1.388 . S
C1141 C1142 1.390 . S
C1142 C1141 1.390 . S
C1142 C1143 1.394 . S
C1142 C1148 1.465 . S
C1143 C1138 1.399 . S
C1143 C1142 1.394 . S
C1143 C1144 1.516 . S
C1144 C1143 1.516 . S
C1144 C1145 1.502 . S
C1144 C1146 1.561 . S
C1144 C1147 1.526 . S
C1145 H1129 0.959 . S
C1145 H1130 0.959 . S
C1145 H1131 0.961 . S
C1145 C1144 1.502 . S
C1146 H1132 0.960 . S
C1146 H1133 0.961 . S
C1146 H1134 0.959 . S
C1146 C1144 1.561 . S
C1147 C1144 1.526 . S
C1147 C1148 1.396 . S
C1147 C1152 1.390 . S
C1148 C1142 1.465 . S
C1148 C1147 1.396 . S
C1148 C1149 1.399 . S
C1149 H1135 0.929 . S
C1149 C1148 1.399 . S
C1149 C1150 1.385 . S
C1150 H1136 0.931 . S
C1150 C1149 1.385 . S
C1150 C1151 1.389 . S
C1151 C1150 1.389 . S
C1151 C1152 1.387 . S
C1152 H1137 0.930 . S
C1152 C1147 1.390 . S
C1152 C1151 1.387 . S
H1153 C1165 0.930 . S
H1154 C1167 0.930 . S
H1155 C1168 0.930 . S
H1156 C1172 0.959 . S
H1157 C1172 0.959 . S
H1158 C1172 0.961 . S
H1159 C1173 0.960 . S
H1160 C1173 0.961 . S
H1161 C1173 0.959 . S
H1162 C1176 0.929 . S
H1163 C1177 0.931 . S
H1164 C1179 0.930 . S
C1165 H1153 0.930 . S
C1165 C1166 1.399 . S
C1165 C1170 1.399 . S
C1166 C1165 1.399 . S
C1166 C1167 1.376 . S
C1167 H1154 0.930 . S
C1167 C1166 1.376 . S
C1167 C1168 1.388 . S
C1168 H1155 0.930 . S
C1168 C1167 1.388 . S
C1168 C1169 1.390 . S
C1169 C1168 1.390 . S
C1169 C1170 1.394 . S
C1169 C1175 1.465 . S
C1170 C1165 1.399 . S
C1170 C1169 1.394 . S
C1170 C1171 1.516 . S
C1171 C1170 1.516 . S
C1171 C1172 1.502 . S
C1171 C1173 1.561 . S
C1171 C1174 1.526 . S
C1172 H1156 0.959 . S
C1172 H1157 0.959 . S
C1172 H1158 0.961 . S
C1172 C1171 1.502 . S
C1173 H1159 0.960 . S
C1173 H1160 0.961 . S
C1173 H1161 0.959 . S
C1173 C1171 1.561 . S
C1174 C1171 1.526 . S
C1174 C1175 1.396 . S
C1174 C1179 1.390 . S
C1175 C1169 1.465 . S
C1175 C1174 1.396 . S
C1175 C1176 1.399 . S
C1176 H1162 0.929 . S
C1176 C1175 1.399 . S
C1176 C1177 1.385 . S
C1177 H1163 0.931 . S
C1177 C1176 1.385 . S
C1177 C1178 1.389 . S
C1178 C1177 1.389 . S
C1178 C1179 1.387 . S
C1179 H1164 0.930 . S
C1179 C1174 1.390 . S
C1179 C1178 1.387 . S
H1180 C1192 0.930 . S
H1181 C1194 0.930 . S
H1182 C1195 0.930 . S
H1183 C1199 0.959 . S
H1184 C1199 0.959 . S
H1185 C1199 0.961 . S
H1186 C1200 0.960 . S
H1187 C1200 0.961 . S
H1188 C1200 0.959 . S
H1189 C1203 0.929 . S
H1190 C1204 0.931 . S
H1191 C1206 0.930 . S
C1192 H1180 0.930 . S
C1192 C1193 1.399 . S
C1192 C1197 1.399 . S
C1193 C1192 1.399 . S
C1193 C1194 1.376 . S
C1194 H1181 0.930 . S
C1194 C1193 1.376 . S
C1194 C1195 1.388 . S
C1195 H1182 0.930 . S
C1195 C1194 1.388 . S
C1195 C1196 1.390 . S
C1196 C1195 1.390 . S
C1196 C1197 1.394 . S
C1196 C1202 1.465 . S
C1197 C1192 1.399 . S
C1197 C1196 1.394 . S
C1197 C1198 1.516 . S
C1198 C1197 1.516 . S
C1198 C1199 1.502 1_655 S
C1198 C1200 1.561 . S
C1198 C1201 1.526 . S
C1199 H1183 0.959 . S
C1199 H1184 0.959 . S
C1199 H1185 0.961 . S
C1199 C1198 1.502 1_455 S
C1200 H1186 0.960 . S
C1200 H1187 0.961 . S
C1200 H1188 0.959 . S
C1200 C1198 1.561 . S
C1201 C1198 1.526 . S
C1201 C1202 1.396 . S
C1201 C1206 1.390 . S
C1202 C1196 1.465 . S
C1202 C1201 1.396 . S
C1202 C1203 1.399 . S
C1203 H1189 0.929 . S
C1203 C1202 1.399 . S
C1203 C1204 1.385 . S
C1204 H1190 0.931 . S
C1204 C1203 1.385 . S
C1204 C1205 1.389 . S
C1205 C1204 1.389 . S
C1205 C1206 1.387 . S
C1206 H1191 0.930 . S
C1206 C1201 1.390 . S
C1206 C1205 1.387 . S
H1207 C1219 0.930 . S
H1208 C1221 0.930 . S
H1209 C1222 0.930 . S
H1210 C1226 0.959 . S
H1211 C1226 0.959 . S
H1212 C1226 0.961 . S
H1213 C1227 0.960 . S
H1214 C1227 0.961 . S
H1215 C1227 0.959 . S
H1216 C1230 0.929 . S
H1217 C1231 0.931 . S
H1218 C1233 0.930 . S
C1219 H1207 0.930 . S
C1219 C1220 1.399 . S
C1219 C1224 1.399 . S
C1220 C1219 1.399 . S
C1220 C1221 1.376 1_565 S
C1221 H1208 0.930 . S
C1221 C1220 1.376 1_545 S
C1221 C1222 1.388 . S
C1222 H1209 0.930 . S
C1222 C1221 1.388 . S
C1222 C1223 1.390 . S
C1223 C1222 1.390 . S
C1223 C1224 1.394 1_545 S
C1223 C1229 1.465 . S
C1224 C1219 1.399 . S
C1224 C1223 1.394 1_565 S
C1224 C1225 1.516 . S
C1225 C1224 1.516 . S
C1225 C1226 1.502 . S
C1225 C1227 1.561 . S
C1225 C1228 1.526 . S
C1226 H1210 0.959 . S
C1226 H1211 0.959 . S
C1226 H1212 0.961 . S
C1226 C1225 1.502 . S
C1227 H1213 0.960 . S
C1227 H1214 0.961 . S
C1227 H1215 0.959 . S
C1227 C1225 1.561 . S
C1228 C1225 1.526 . S
C1228 C1229 1.396 1_565 S
C1228 C1233 1.390 . S
C1229 C1223 1.465 . S
C1229 C1228 1.396 1_545 S
C1229 C1230 1.399 . S
C1230 H1216 0.929 . S
C1230 C1229 1.399 . S
C1230 C1231 1.385 . S
C1231 H1217 0.931 . S
C1231 C1230 1.385 . S
C1231 C1232 1.389 1_545 S
C1232 C1231 1.389 1_565 S
C1232 C1233 1.387 . S
C1233 H1218 0.930 . S
C1233 C1228 1.390 . S
C1233 C1232 1.387 . S
H1234 C1246 0.930 . S
H1235 C1248 0.930 . S
H1236 C1249 0.930 . S
H1237 C1253 0.959 . S
H1238 C1253 0.959 . S
H1239 C1253 0.961 . S
H1240 C1254 0.960 . S
H1241 C1254 0.961 . S
H1242 C1254 0.959 . S
H1243 C1257 0.929 . S
H1244 C1258 0.931 . S
H1245 C1260 0.930 . S
C1246 H1234 0.930 . S
C1246 C1247 1.399 . S
C1246 C1251 1.399 . S
C1247 C1246 1.399 . S
C1247 C1248 1.376 . S
C1248 H1235 0.930 . S
C1248 C1247 1.376 . S
C1248 C1249 1.388 . S
C1249 H1236 0.930 . S
C1249 C1248 1.388 . S
C1249 C1250 1.390 . S
C1250 C1249 1.390 . S
C1250 C1251 1.394 . S
C1250 C1256 1.465 . S
C1251 C1246 1.399 . S
C1251 C1250 1.394 . S
C1251 C1252 1.516 . S
C1252 C1251 1.516 . S
C1252 C1253 1.502 . S
C1252 C1254 1.561 . S
C1252 C1255 1.526 . S
C1253 H1237 0.959 . S
C1253 H1238 0.959 . S
C1253 H1239 0.961 . S
C1253 C1252 1.502 . S
C1254 H1240 0.960 . S
C1254 H1241 0.961 . S
C1254 H1242 0.959 . S
C1254 C1252 1.561 . S
C1255 C1252 1.526 . S
C1255 C1256 1.396 . S
C1255 C1260 1.390 . S
C1256 C1250 1.465 . S
C1256 C1255 1.396 . S
C1256 C1257 1.399 . S
C1257 H1243 0.929 . S
C1257 C1256 1.399 . S
C1257 C1258 1.385 . S
C1258 H1244 0.931 . S
C1258 C1257 1.385 . S
C1258 C1259 1.389 . S
C1259 C1258 1.389 . S
C1259 C1260 1.387 . S
C1260 H1245 0.930 . S
C1260 C1255 1.390 . S
C1260 C1259 1.387 . S
H1261 C1273 0.930 . S
H1262 C1275 0.930 . S
H1263 C1276 0.930 . S
H1264 C1280 0.959 . S
H1265 C1280 0.959 . S
H1266 C1280 0.961 . S
H1267 C1281 0.960 . S
H1268 C1281 0.961 . S
H1269 C1281 0.959 . S
H1270 C1284 0.929 . S
H1271 C1285 0.931 . S
H1272 C1287 0.930 . S
C1273 H1261 0.930 . S
C1273 C1274 1.399 . S
C1273 C1278 1.399 . S
C1274 C1273 1.399 . S
C1274 C1275 1.376 . S
C1275 H1262 0.930 . S
C1275 C1274 1.376 . S
C1275 C1276 1.388 . S
C1276 H1263 0.930 . S
C1276 C1275 1.388 . S
C1276 C1277 1.390 . S
C1277 C1276 1.390 . S
C1277 C1278 1.394 . S
C1277 C1283 1.465 . S
C1278 C1273 1.399 . S
C1278 C1277 1.394 . S
C1278 C1279 1.516 . S
C1279 C1278 1.516 . S
C1279 C1280 1.502 . S
C1279 C1281 1.561 . S
C1279 C1282 1.526 . S
C1280 H1264 0.959 . S
C1280 H1265 0.959 . S
C1280 H1266 0.961 . S
C1280 C1279 1.502 . S
C1281 H1267 0.960 . S
C1281 H1268 0.961 . S
C1281 H1269 0.959 . S
C1281 C1279 1.561 . S
C1282 C1279 1.526 . S
C1282 C1283 1.396 . S
C1282 C1287 1.390 . S
C1283 C1277 1.465 . S
C1283 C1282 1.396 . S
C1283 C1284 1.399 . S
C1284 H1270 0.929 . S
C1284 C1283 1.399 . S
C1284 C1285 1.385 . S
C1285 H1271 0.931 . S
C1285 C1284 1.385 . S
C1285 C1286 1.389 . S
C1286 C1285 1.389 . S
C1286 C1287 1.387 . S
C1287 H1272 0.930 . S
C1287 C1282 1.390 . S
C1287 C1286 1.387 . S
C653 C391 2.325 . S
C665 C503 2.349 . S
C692 C543 1.627 . S
C680 C451 1.619 . S
C719 C562 2.418 . S
C707 C241 2.027 . S
C746 C623 1.795 . S
C734 C331 1.457 . S
C773 C482 2.366 1_565 S
C761 C121 2.049 . S
C788 C211 1.531 . S
C800 C522 1.628 . S
C815 C31 2.352 . S
C827 C583 2.416 . S
C842 C91 1.488 . S
C854 C602 1.813 . S
C881 C484 0.820 . S
C869 C301 0.757 . S
C908 C524 0.477 . S
C896 C380 0.143 . S
C935 C580 0.906 . S
C923 C440 1.023 . S
C950 C260 0.598 . S
C962 C604 0.496 . S
C977 C61 0.655 . S
C989 C505 0.799 . S
C1016 C545 0.460 . S
C1004 C140 0.313 . S
C1043 C591 0.967 . S
C1031 C200 0.935 . S
C1058 C20 0.488 . S
C1070 C625 0.397 . S
C1085 C320 2.390 . S
C1097 C500 2.517 . S
C1112 C361 2.583 1_565 S
C1124 C540 3.163 . S
C1151 C564 1.973 . S
C1139 C421 1.726 . S
C1178 C620 3.144 . S
C1166 C271 2.957 . S
C1193 C80 2.409 . S
C1205 C511 2.539 . S
C1232 C551 3.153 . S
C1220 C151 3.004 . S
C1259 C585 1.944 . S
C1247 C181 1.786 . S
C1274 C1 2.573 . S
C1286 C631 3.166 . S
