# Generated by pormake.
# Topology ssa, (4,4)-cn, num edge types: 1
# Building blocks:
#     Node 0, Type 0, BuildingBlock: NAWXER_clean_sbu_0, # of connection points: 4
#     Node 1, Type 0, BuildingBlock: NAWXER_clean_sbu_0, # of connection points: 4
#     Node 2, Type 0, BuildingBlock: NAWXER_clean_sbu_0, # of connection points: 4
#     Node 3, Type 0, BuildingBlock: NAWXER_clean_sbu_0, # of connection points: 4
#     Node 4, Type 0, BuildingBlock: NAWXER_clean_sbu_0, # of connection points: 4
#     Node 5, Type 0, BuildingBlock: NAWXER_clean_sbu_0, # of connection points: 4
#     Node 6, Type 1, BuildingBlock: AZAVOO_clean_linker_0, # of connection points: 4
#     Node 7, Type 1, BuildingBlock: AZAVOO_clean_linker_0, # of connection points: 4
#     Node 8, Type 1, BuildingBlock: AZAVOO_clean_linker_0, # of connection points: 4
#     Node 9, Type 1, BuildingBlock: AZAVOO_clean_linker_0, # of connection points: 4
#     Node 10, Type 1, BuildingBlock: AZAVOO_clean_linker_0, # of connection points: 4
#     Node 11, Type 1, BuildingBlock: AZAVOO_clean_linker_0, # of connection points: 4
#     Edge 12, Type (0, 1), BuildingBlock: XUDNAN_clean_linker_2, # of connection points: 2
#     Edge 13, Type (0, 1), BuildingBlock: XUDNAN_clean_linker_2, # of connection points: 2
#     Edge 14, Type (0, 1), BuildingBlock: XUDNAN_clean_linker_2, # of connection points: 2
#     Edge 15, Type (0, 1), BuildingBlock: XUDNAN_clean_linker_2, # of connection points: 2
#     Edge 16, Type (0, 1), BuildingBlock: XUDNAN_clean_linker_2, # of connection points: 2
#     Edge 17, Type (0, 1), BuildingBlock: XUDNAN_clean_linker_2, # of connection points: 2
#     Edge 18, Type (0, 1), BuildingBlock: XUDNAN_clean_linker_2, # of connection points: 2
#     Edge 19, Type (0, 1), BuildingBlock: XUDNAN_clean_linker_2, # of connection points: 2
#     Edge 20, Type (0, 1), BuildingBlock: XUDNAN_clean_linker_2, # of connection points: 2
#     Edge 21, Type (0, 1), BuildingBlock: XUDNAN_clean_linker_2, # of connection points: 2
#     Edge 22, Type (0, 1), BuildingBlock: XUDNAN_clean_linker_2, # of connection points: 2
#     Edge 23, Type (0, 1), BuildingBlock: XUDNAN_clean_linker_2, # of connection points: 2
#     Edge 24, Type (0, 1), BuildingBlock: XUDNAN_clean_linker_2, # of connection points: 2
#     Edge 25, Type (0, 1), BuildingBlock: XUDNAN_clean_linker_2, # of connection points: 2
#     Edge 26, Type (0, 1), BuildingBlock: XUDNAN_clean_linker_2, # of connection points: 2
#     Edge 27, Type (0, 1), BuildingBlock: XUDNAN_clean_linker_2, # of connection points: 2
#     Edge 28, Type (0, 1), BuildingBlock: XUDNAN_clean_linker_2, # of connection points: 2
#     Edge 29, Type (0, 1), BuildingBlock: XUDNAN_clean_linker_2, # of connection points: 2
#     Edge 30, Type (0, 1), BuildingBlock: XUDNAN_clean_linker_2, # of connection points: 2
#     Edge 31, Type (0, 1), BuildingBlock: XUDNAN_clean_linker_2, # of connection points: 2
#     Edge 32, Type (0, 1), BuildingBlock: XUDNAN_clean_linker_2, # of connection points: 2
#     Edge 33, Type (0, 1), BuildingBlock: XUDNAN_clean_linker_2, # of connection points: 2
#     Edge 34, Type (0, 1), BuildingBlock: XUDNAN_clean_linker_2, # of connection points: 2
#     Edge 35, Type (0, 1), BuildingBlock: XUDNAN_clean_linker_2, # of connection points: 2
# Relax obj value: 0.084
# Max RMSD: 0.234
# Mean RMSD: 0.129
data_MOF--net-ssa--node1-NAWXER_clean_sbu_0--node2-AZAVOO_clean_linker_0--edge1-XUDNAN_clean_linker_2
_symmetry_space_group_name_H-M    P1
_symmetry_Int_Tables_number       1
_symmetry_cell_setting            triclinic
loop_
_symmetry_equiv_pos_as_xyz
'x, y, z'
_cell_length_a     48.763165
_cell_length_b     49.122726
_cell_length_c     46.060577
_cell_angle_alpha  89.82735
_cell_angle_beta   92.913287
_cell_angle_gamma 120.20267
loop_
_atom_site_label
_atom_site_type_symbol
_atom_site_fract_x
_atom_site_fract_y
_atom_site_fract_z
_atom_type_partial_charge
C0 C 0.16791 0.60154 0.03489 0.0
C1 C 0.1385 0.52626 0.95424 0.0
O2 O 0.1419 0.57567 0.03805 0.0
Zn3 Zn 0.1138 0.53083 0.01633 0.0
O4 O 0.18445 0.6047 0.01331 0.0
Zn5 Zn 0.15527 0.56395 0.99481 0.0
O6 O 0.113 0.56708 0.98608 0.0
O7 O 0.07382 0.52963 0.00991 0.0
O8 O 0.16354 0.55318 0.95688 0.0
O9 O 0.11893 0.516 0.9745 0.0
O10 O 0.11692 0.50132 0.04261 0.0
O11 O 0.16172 0.53234 0.02191 0.0
C12 C 0.08394 0.55294 0.99309 0.0
C13 C 0.14572 0.50968 0.03884 0.0
C14 C 0.56101 0.01238 0.60441 0.0
C15 C 0.59938 0.97042 0.53108 0.0
O16 O 0.55685 0.98476 0.60241 0.0
Zn17 Zn 0.58099 0.991 0.56843 0.0
O18 O 0.57753 0.03289 0.58586 0.0
Zn19 Zn 0.60318 0.03589 0.54868 0.0
O20 O 0.58109 0.04579 0.5182 0.0
O21 O 0.55338 0.99721 0.53382 0.0
O22 O 0.60767 0.99941 0.52735 0.0
O23 O 0.58414 0.9562 0.55309 0.0
O24 O 0.62899 0.02228 0.58363 0.0
O25 O 0.64655 0.0671 0.56077 0.0
C26 C 0.55607 0.01877 0.51641 0.0
C27 C 0.65132 0.05036 0.57913 0.0
C28 C 0.56484 0.45505 0.06394 0.0
C29 C 0.63232 0.53406 0.13851 0.0
O30 O 0.56893 0.48244 0.05867 0.0
Zn31 Zn 0.59385 0.5288 0.07795 0.0
O32 O 0.57756 0.45086 0.087 0.0
Zn33 Zn 0.59782 0.49374 0.10237 0.0
O34 O 0.55893 0.49988 0.11262 0.0
O35 O 0.56016 0.53743 0.08539 0.0
O36 O 0.6224 0.50469 0.13926 0.0
O37 O 0.62358 0.54538 0.11727 0.0
O38 O 0.62387 0.55216 0.04875 0.0
O39 O 0.63379 0.51836 0.07196 0.0
C40 C 0.54725 0.51724 0.10496 0.0
C41 C 0.6411 0.53969 0.05292 0.0
C42 C 0.08677 0.5468 0.52971 0.0
C43 C 0.02852 0.4487 0.58007 0.0
O44 O 0.09422 0.53843 0.55351 0.0
Zn45 Zn 0.05682 0.49798 0.55516 0.0
O46 O 0.05993 0.52824 0.51623 0.0
Zn47 Zn 0.01943 0.48207 0.52308 0.0
O48 O 0.98504 0.49017 0.52733 0.0
O49 O 0.02089 0.5093 0.56401 0.0
O50 O 0.01301 0.44908 0.55686 0.0
O51 O 0.05516 0.47269 0.5875 0.0
O52 O 0.06003 0.47254 0.51837 0.0
O53 O 0.01748 0.45854 0.48909 0.0
C54 C 0.99477 0.50492 0.55166 0.0
C55 C 0.04332 0.45872 0.49492 0.0
C56 C 0.62119 0.00198 0.10495 0.0
C57 C 0.58355 0.07112 0.0668 0.0
O58 O 0.62718 0.02826 0.11593 0.0
Zn59 Zn 0.60173 0.03642 0.08728 0.0
O60 O 0.60218 0.99049 0.0823 0.0
Zn61 Zn 0.57462 0.00293 0.0533 0.0
O62 O 0.59244 0.0034 0.01691 0.0
O63 O 0.62604 0.04093 0.04808 0.0
O64 O 0.57219 0.04516 0.05218 0.0
O65 O 0.60201 0.07608 0.08915 0.0
O66 O 0.5541 0.00197 0.09731 0.0
O67 O 0.53131 0.97094 0.05844 0.0
C68 C 0.61992 0.02686 0.02315 0.0
C69 C 0.52979 0.9785 0.08439 0.0
C70 C 0.56989 0.55604 0.64378 0.0
C71 C 0.48763 0.5088 0.56619 0.0
O72 O 0.54262 0.5535 0.6431 0.0
Zn73 Zn 0.52741 0.52955 0.60707 0.0
O74 O 0.57738 0.54352 0.62352 0.0
Zn75 Zn 0.55549 0.51638 0.58363 0.0
O76 O 0.585 0.54398 0.55579 0.0
O77 O 0.55884 0.56354 0.57712 0.0
O78 O 0.51159 0.50579 0.56135 0.0
O79 O 0.48641 0.52034 0.59037 0.0
O80 O 0.52311 0.48566 0.61976 0.0
O81 O 0.55205 0.476 0.59081 0.0
C82 C 0.57918 0.56628 0.559 0.0
C83 C 0.53384 0.46797 0.61179 0.0
H84 H 0.30753 0.44044 0.49208 0.0
H85 H 0.07305 0.35025 0.21072 0.0
H86 H 0.32776 0.48917 0.3323 0.0
H87 H 0.36806 0.51083 0.37167 0.0
H88 H 0.37132 0.42431 0.3731 0.0
H89 H 0.32883 0.4021 0.33456 0.0
H90 H 0.27985 0.46273 0.37223 0.0
H91 H 0.29142 0.46166 0.42439 0.0
H92 H 0.27407 0.36674 0.41366 0.0
H93 H 0.26264 0.3682 0.36148 0.0
H94 H 0.23184 0.4569 0.33883 0.0
H95 H 0.19062 0.4542 0.36874 0.0
H96 H 0.14308 0.35254 0.36504 0.0
H97 H 0.18524 0.3555 0.33543 0.0
H98 H 0.21944 0.45281 0.2644 0.0
H99 H 0.17028 0.44237 0.23771 0.0
H100 H 0.13058 0.34257 0.25099 0.0
H101 H 0.18012 0.35335 0.27723 0.0
H102 H 0.28619 0.47413 0.2405 0.0
H103 H 0.27264 0.4813 0.19036 0.0
H104 H 0.21055 0.38088 0.17908 0.0
H105 H 0.22587 0.37344 0.22891 0.0
H106 H 0.3373 0.49068 0.27827 0.0
H107 H 0.38128 0.51126 0.24581 0.0
H108 H 0.35131 0.4163 0.21676 0.0
H109 H 0.30745 0.39589 0.24954 0.0
O110 O 0.30177 0.43996 0.4716 0.0
O111 O 0.29079 0.39055 0.46526 0.0
O112 O 0.11433 0.40657 0.2149 0.0
O113 O 0.09255 0.35509 0.2216 0.0
C114 C 0.29402 0.4287 0.31459 0.0
C115 C 0.26688 0.41734 0.33112 0.0
C116 C 0.2372 0.40923 0.31742 0.0
C117 C 0.23403 0.41013 0.28691 0.0
C118 C 0.2608 0.4197 0.27009 0.0
C119 C 0.29103 0.42959 0.28402 0.0
C120 C 0.32558 0.44421 0.33042 0.0
C121 C 0.33812 0.47537 0.3403 0.0
C122 C 0.36128 0.4877 0.36305 0.0
C123 C 0.37298 0.46931 0.37612 0.0
C124 C 0.36237 0.43895 0.36422 0.0
C125 C 0.33859 0.42638 0.34172 0.0
C126 C 0.27018 0.41545 0.36318 0.0
C127 C 0.27804 0.44155 0.38128 0.0
C128 C 0.28485 0.44094 0.41103 0.0
C129 C 0.28381 0.41416 0.42319 0.0
C130 C 0.27512 0.38775 0.40501 0.0
C131 C 0.2684 0.38843 0.37525 0.0
C132 C 0.21156 0.40642 0.33525 0.0
C133 C 0.21266 0.43405 0.34466 0.0
C134 C 0.1892 0.43247 0.36174 0.0
C135 C 0.1639 0.40317 0.36933 0.0
C136 C 0.16241 0.37538 0.35942 0.0
C137 C 0.18635 0.37701 0.34264 0.0
C138 C 0.20328 0.40383 0.2727 0.0
C139 C 0.20002 0.42874 0.26164 0.0
C140 C 0.17194 0.4227 0.24638 0.0
C141 C 0.14651 0.39161 0.24214 0.0
C142 C 0.14969 0.36677 0.25382 0.0
C143 C 0.17787 0.37285 0.26895 0.0
C144 C 0.25745 0.42322 0.23828 0.0
C145 C 0.27098 0.45351 0.22686 0.0
C146 C 0.26296 0.45762 0.19837 0.0
C147 C 0.24067 0.4316 0.18117 0.0
C148 C 0.22795 0.40118 0.19209 0.0
C149 C 0.23671 0.39697 0.22038 0.0
C150 C 0.31943 0.44177 0.26653 0.0
C151 C 0.34064 0.4743 0.26537 0.0
C152 C 0.36547 0.48602 0.24654 0.0
C153 C 0.36966 0.46539 0.22867 0.0
C154 C 0.34884 0.43274 0.23045 0.0
C155 C 0.32382 0.42105 0.24912 0.0
C156 C 0.29224 0.41403 0.45459 0.0
C157 C 0.11688 0.38501 0.22542 0.0
H158 H 0.96117 0.27944 0.01195 0.0
H159 H 0.72698 0.02247 0.7887 0.0
H160 H 0.92788 0.29248 0.8613 0.0
H161 H 0.97462 0.3435 0.87238 0.0
H162 H 0.03145 0.31503 0.82588 0.0
H163 H 0.98458 0.26266 0.81724 0.0
H164 H 0.89183 0.25156 0.89855 0.0
H165 H 0.91505 0.26652 0.94826 0.0
H166 H 0.97828 0.23134 0.93148 0.0
H167 H 0.95453 0.21614 0.88185 0.0
H168 H 0.84059 0.20867 0.88117 0.0
H169 H 0.79869 0.17372 0.91244 0.0
H170 H 0.8264 0.10355 0.90293 0.0
H171 H 0.86911 0.13925 0.87213 0.0
H172 H 0.80723 0.17585 0.82462 0.0
H173 H 0.75646 0.12691 0.81559 0.0
H174 H 0.80702 0.07817 0.79699 0.0
H175 H 0.85759 0.12723 0.80639 0.0
H176 H 0.83977 0.21318 0.77006 0.0
H177 H 0.80824 0.1864 0.72549 0.0
H178 H 0.86456 0.14181 0.71586 0.0
H179 H 0.89478 0.16754 0.76129 0.0
H180 H 0.91516 0.28775 0.79236 0.0
H181 H 0.93713 0.32058 0.75 0.0
H182 H 0.96361 0.25505 0.71776 0.0
H183 H 0.94285 0.22298 0.76084 0.0
O184 O 0.95219 0.27314 0.99224 0.0
O185 O 0.98421 0.25477 0.9825 0.0
O186 O 0.72186 0.06822 0.80244 0.0
O187 O 0.7467 0.04214 0.79239 0.0
C188 C 0.92396 0.24222 0.8331 0.0
C189 C 0.90734 0.22332 0.85653 0.0
C190 C 0.87831 0.19498 0.85096 0.0
C191 C 0.86671 0.18463 0.82206 0.0
C192 C 0.88357 0.20297 0.7987 0.0
C193 C 0.91188 0.23205 0.80412 0.0
C194 C 0.95287 0.27357 0.83901 0.0
C195 C 0.95054 0.29702 0.854 0.0
C196 C 0.97732 0.32655 0.85973 0.0
C197 C 0.00704 0.33378 0.84978 0.0
C198 C 0.00917 0.31031 0.83423 0.0
C199 C 0.98236 0.28041 0.82907 0.0
C200 C 0.9212 0.23236 0.88676 0.0
C201 C 0.91038 0.2467 0.90577 0.0
C202 C 0.92386 0.25543 0.9341 0.0
C203 C 0.94847 0.25004 0.94389 0.0
C204 C 0.95932 0.23576 0.92467 0.0
C205 C 0.9458 0.22704 0.89634 0.0
C206 C 0.85837 0.17681 0.87496 0.0
C207 C 0.83866 0.18641 0.88697 0.0
C208 C 0.81453 0.16628 0.9046 0.0
C209 C 0.8093 0.13592 0.91003 0.0
C210 C 0.82991 0.1268 0.89898 0.0
C211 C 0.85443 0.14722 0.88168 0.0
C212 C 0.83598 0.15497 0.8162 0.0
C213 C 0.80723 0.15454 0.81865 0.0
C214 C 0.77831 0.12658 0.81345 0.0
C215 C 0.77768 0.0986 0.80558 0.0
C216 C 0.80663 0.09926 0.80302 0.0
C217 C 0.83554 0.12723 0.80832 0.0
C218 C 0.8696 0.19239 0.76872 0.0
C219 C 0.84574 0.19824 0.75785 0.0
C220 C 0.82784 0.18296 0.73232 0.0
C221 C 0.83367 0.1617 0.71717 0.0
C222 C 0.85907 0.15759 0.72724 0.0
C223 C 0.87666 0.17256 0.75296 0.0
C224 C 0.92718 0.25286 0.77952 0.0
C225 C 0.9262 0.28077 0.77641 0.0
C226 C 0.93871 0.29945 0.75229 0.0
C227 C 0.95184 0.29014 0.73069 0.0
C228 C 0.95334 0.2625 0.73408 0.0
C229 C 0.94142 0.24418 0.75852 0.0
C230 C 0.96278 0.25941 0.974 0.0
C231 C 0.74702 0.06882 0.80007 0.0
H232 H 0.74487 0.75717 0.14408 0.0
H233 H 0.68414 0.97702 0.35846 0.0
H234 H 0.65065 0.72233 0.2985 0.0
H235 H 0.65197 0.67741 0.27813 0.0
H236 H 0.75472 0.72941 0.28769 0.0
H237 H 0.75297 0.77488 0.30695 0.0
H238 H 0.67598 0.7574 0.24424 0.0
H239 H 0.69648 0.74951 0.19962 0.0
H240 H 0.78794 0.83158 0.22239 0.0
H241 H 0.76726 0.83888 0.26725 0.0
H242 H 0.66553 0.80862 0.24043 0.0
H243 H 0.66149 0.84012 0.2013 0.0
H244 H 0.73824 0.92444 0.24348 0.0
H245 H 0.74294 0.89239 0.28242 0.0
H246 H 0.64454 0.84083 0.29136 0.0
H247 H 0.63436 0.88412 0.29946 0.0
H248 H 0.71825 0.93003 0.3579 0.0
H249 H 0.72841 0.88685 0.34924 0.0
H250 H 0.62352 0.79632 0.34134 0.0
H251 H 0.60296 0.81833 0.37589 0.0
H252 H 0.69217 0.85979 0.42665 0.0
H253 H 0.7128 0.83767 0.39175 0.0
H254 H 0.62836 0.74551 0.35076 0.0
H255 H 0.61219 0.71133 0.39281 0.0
H256 H 0.70958 0.7359 0.41217 0.0
H257 H 0.72598 0.77125 0.37053 0.0
O258 O 0.73728 0.76069 0.1619 0.0
O259 O 0.78373 0.80329 0.17441 0.0
O260 O 0.64613 0.93636 0.32282 0.0
O261 O 0.68807 0.96003 0.35424 0.0
C262 C 0.70049 0.78102 0.30918 0.0
C263 C 0.70807 0.80296 0.28658 0.0
C264 C 0.70332 0.82889 0.28971 0.0
C265 C 0.6925 0.8337 0.31597 0.0
C266 C 0.68468 0.8117 0.33839 0.0
C267 C 0.6884 0.7852 0.33498 0.0
C268 C 0.7017 0.75187 0.30401 0.0
C269 C 0.6734 0.72365 0.29702 0.0
C270 C 0.67426 0.6979 0.28541 0.0
C271 C 0.70351 0.69979 0.28088 0.0
C272 C 0.7318 0.72732 0.29028 0.0
C273 C 0.73089 0.75322 0.30159 0.0
C274 C 0.72027 0.79846 0.25916 0.0
C275 C 0.70052 0.77346 0.23969 0.0
C276 C 0.71225 0.7691 0.21414 0.0
C277 C 0.74389 0.78985 0.20747 0.0
C278 C 0.76349 0.81511 0.22691 0.0
C279 C 0.75175 0.81937 0.25251 0.0
C280 C 0.70475 0.84809 0.26417 0.0
C281 C 0.68223 0.83373 0.2408 0.0
C282 C 0.67983 0.8518 0.21854 0.0
C283 C 0.69957 0.88472 0.21938 0.0
C284 C 0.72267 0.89911 0.24241 0.0
C285 C 0.72547 0.88086 0.26451 0.0
C286 C 0.68729 0.86082 0.3196 0.0
C287 C 0.66088 0.86046 0.30561 0.0
C288 C 0.65507 0.88514 0.31038 0.0
C289 C 0.67549 0.91053 0.32937 0.0
C290 C 0.70207 0.91087 0.34315 0.0
C291 C 0.70795 0.88626 0.33823 0.0
C292 C 0.66965 0.81556 0.36403 0.0
C293 C 0.63813 0.80891 0.36062 0.0
C294 C 0.62649 0.8216 0.38023 0.0
C295 C 0.64617 0.84094 0.40362 0.0
C296 C 0.67656 0.84475 0.40882 0.0
C297 C 0.68832 0.83212 0.38901 0.0
C298 C 0.67842 0.7614 0.35801 0.0
C299 C 0.64623 0.74353 0.36402 0.0
C300 C 0.63701 0.72394 0.38786 0.0
C301 C 0.65974 0.7213 0.40565 0.0
C302 C 0.69172 0.73762 0.39862 0.0
C303 C 0.70105 0.75774 0.37498 0.0
C304 C 0.75628 0.78513 0.18031 0.0
C305 C 0.66894 0.93638 0.33515 0.0
H306 H 0.78568 0.65362 0.63788 0.0
H307 H 0.99912 0.53847 0.7807 0.0
H308 H 0.82299 0.65049 0.79797 0.0
H309 H 0.77793 0.65777 0.78525 0.0
H310 H 0.71649 0.55643 0.77823 0.0
H311 H 0.76118 0.5498 0.79346 0.0
H312 H 0.85946 0.64893 0.74001 0.0
H313 H 0.836 0.65989 0.6965 0.0
H314 H 0.75708 0.56412 0.69512 0.0
H315 H 0.781 0.55345 0.73844 0.0
H316 H 0.91765 0.62722 0.74427 0.0
H317 H 0.93621 0.61706 0.6992 0.0
H318 H 0.84623 0.53084 0.6845 0.0
H319 H 0.82815 0.54085 0.72963 0.0
H320 H 0.93673 0.62777 0.81254 0.0
H321 H 0.98295 0.62075 0.81176 0.0
H322 H 0.92312 0.5273 0.77374 0.0
H323 H 0.87703 0.53444 0.77509 0.0
H324 H 0.89434 0.63181 0.86431 0.0
H325 H 0.92977 0.63228 0.90404 0.0
H326 H 0.90538 0.5376 0.87889 0.0
H327 H 0.86862 0.53676 0.84048 0.0
H328 H 0.83097 0.63624 0.85175 0.0
H329 H 0.80395 0.63053 0.89685 0.0
H330 H 0.78266 0.53409 0.90172 0.0
H331 H 0.80855 0.53952 0.85621 0.0
O332 O 0.79477 0.64866 0.65482 0.0
O333 O 0.7546 0.59926 0.65524 0.0
O334 O 0.01088 0.58987 0.80127 0.0
O335 O 0.98124 0.54186 0.7813 0.0
C336 C 0.82315 0.59536 0.79656 0.0
C337 C 0.83545 0.59461 0.76963 0.0
C338 C 0.86103 0.58904 0.76865 0.0
C339 C 0.8755 0.58586 0.79479 0.0
C340 C 0.86328 0.58676 0.82184 0.0
C341 C 0.83661 0.59085 0.82267 0.0
C342 C 0.79522 0.59964 0.79656 0.0
C343 C 0.79945 0.62997 0.79494 0.0
C344 C 0.7737 0.63401 0.78718 0.0
C345 C 0.74353 0.60775 0.77986 0.0
C346 C 0.73907 0.57734 0.7839 0.0
C347 C 0.76468 0.57338 0.79251 0.0
C348 C 0.82185 0.60047 0.74236 0.0
C349 C 0.83723 0.63032 0.73012 0.0
C350 C 0.82372 0.63652 0.70534 0.0
C351 C 0.79459 0.61291 0.69239 0.0
C352 C 0.77949 0.58286 0.70458 0.0
C353 C 0.79307 0.57669 0.72931 0.0
C354 C 0.87153 0.5848 0.74016 0.0
C355 C 0.90191 0.60631 0.73114 0.0
C356 C 0.91247 0.60045 0.7055 0.0
C357 C 0.89261 0.5732 0.68834 0.0
C358 C 0.86187 0.55225 0.69703 0.0
C359 C 0.85151 0.55793 0.72279 0.0
C360 C 0.90357 0.58164 0.79384 0.0
C361 C 0.93367 0.60579 0.8041 0.0
C362 C 0.96002 0.60173 0.80359 0.0
C363 C 0.95673 0.57345 0.79265 0.0
C364 C 0.9265 0.54936 0.78228 0.0
C365 C 0.90015 0.5534 0.78294 0.0
C366 C 0.87937 0.58447 0.84921 0.0
C367 C 0.8959 0.61083 0.86803 0.0
C368 C 0.91641 0.61116 0.89049 0.0
C369 C 0.92102 0.58525 0.89427 0.0
C370 C 0.9024 0.55793 0.87679 0.0
C371 C 0.88154 0.55747 0.85462 0.0
C372 C 0.82151 0.58821 0.85055 0.0
C373 C 0.82016 0.6138 0.86238 0.0
C374 C 0.80485 0.61056 0.88812 0.0
C375 C 0.79132 0.5819 0.90269 0.0
C376 C 0.79316 0.55652 0.89102 0.0
C377 C 0.80792 0.55959 0.86508 0.0
C378 C 0.78003 0.61973 0.66637 0.0
C379 C 0.98464 0.56902 0.79205 0.0
H380 H 0.31968 0.88591 0.49417 0.0
H381 H 0.13308 0.60273 0.2858 0.0
H382 H 0.31725 0.88907 0.33559 0.0
H383 H 0.363 0.93398 0.36123 0.0
H384 H 0.41898 0.88955 0.34991 0.0
H385 H 0.37332 0.84483 0.32467 0.0
H386 H 0.26432 0.83581 0.37731 0.0
H387 H 0.27977 0.85785 0.42699 0.0
H388 H 0.36056 0.84384 0.42791 0.0
H389 H 0.34448 0.8213 0.37848 0.0
H390 H 0.2068 0.76405 0.35215 0.0
H391 H 0.17877 0.72902 0.39182 0.0
H392 H 0.26294 0.72442 0.41675 0.0
H393 H 0.29051 0.75894 0.37704 0.0
H394 H 0.20192 0.75939 0.28226 0.0
H395 H 0.15578 0.70719 0.27099 0.0
H396 H 0.20723 0.66414 0.30906 0.0
H397 H 0.2533 0.71648 0.31988 0.0
H398 H 0.24809 0.80775 0.24268 0.0
H399 H 0.2296 0.78352 0.19398 0.0
H400 H 0.26724 0.72194 0.21303 0.0
H401 H 0.2865 0.74708 0.26135 0.0
H402 H 0.29915 0.86284 0.25571 0.0
H403 H 0.33192 0.88961 0.2145 0.0
H404 H 0.38893 0.84676 0.23464 0.0
H405 H 0.35538 0.81912 0.27489 0.0
O406 O 0.31384 0.87685 0.47464 0.0
O407 O 0.35462 0.86851 0.47424 0.0
O408 O 0.12569 0.64694 0.27035 0.0
O409 O 0.15101 0.62365 0.28991 0.0
C410 C 0.31287 0.83327 0.3209 0.0
C411 C 0.29449 0.81489 0.34374 0.0
C412 C 0.26781 0.78473 0.33761 0.0
C413 C 0.25886 0.77339 0.30853 0.0
C414 C 0.27718 0.79185 0.28573 0.0
C415 C 0.30443 0.82157 0.29196 0.0
C416 C 0.34207 0.86383 0.32812 0.0
C417 C 0.33981 0.88973 0.33758 0.0
C418 C 0.36586 0.91527 0.35222 0.0
C419 C 0.39429 0.91495 0.35769 0.0
C420 C 0.39723 0.89022 0.34601 0.0
C421 C 0.37131 0.86485 0.3313 0.0
C422 C 0.30342 0.82721 0.37426 0.0
C423 C 0.28524 0.83738 0.38836 0.0
C424 C 0.29418 0.85004 0.41669 0.0
C425 C 0.32147 0.85272 0.43139 0.0
C426 C 0.33945 0.84217 0.41722 0.0
C427 C 0.33039 0.82939 0.38895 0.0
C428 C 0.25074 0.76418 0.36188 0.0
C429 C 0.21911 0.75545 0.36623 0.0
C430 C 0.20317 0.73545 0.3888 0.0
C431 C 0.21878 0.7242 0.40748 0.0
C432 C 0.25049 0.73315 0.40304 0.0
C433 C 0.26625 0.75282 0.38037 0.0
C434 C 0.23087 0.74167 0.30193 0.0
C435 C 0.20317 0.73864 0.28807 0.0
C436 C 0.17685 0.70881 0.28171 0.0
C437 C 0.1778 0.68147 0.28917 0.0
C438 C 0.20567 0.68468 0.30305 0.0
C439 C 0.232 0.71452 0.30932 0.0
C440 C 0.26861 0.77914 0.25542 0.0
C441 C 0.25287 0.78947 0.23606 0.0
C442 C 0.24214 0.77544 0.20838 0.0
C443 C 0.2468 0.75068 0.19969 0.0
C444 C 0.26362 0.74119 0.21888 0.0
C445 C 0.27443 0.75534 0.24654 0.0
C446 C 0.32517 0.83934 0.26833 0.0
C447 C 0.31877 0.85936 0.2512 0.0
C448 C 0.33734 0.87448 0.22775 0.0
C449 C 0.3629 0.87024 0.22165 0.0
C450 C 0.3695 0.85056 0.23915 0.0
C451 C 0.35051 0.83491 0.26211 0.0
C452 C 0.33108 0.86647 0.46136 0.0
C453 C 0.14988 0.64972 0.28253 0.0
H454 H 0.51243 0.25412 0.63348 0.0
H455 H 0.50012 0.04727 0.90533 0.0
H456 H 0.54808 0.3013 0.80814 0.0
H457 H 0.5481 0.3392 0.77323 0.0
H458 H 0.45151 0.27178 0.74454 0.0
H459 H 0.45104 0.2345 0.78027 0.0
H460 H 0.5466 0.25876 0.7576 0.0
H461 H 0.54146 0.26402 0.70508 0.0
H462 H 0.44728 0.18177 0.7023 0.0
H463 H 0.45254 0.17712 0.75497 0.0
H464 H 0.55426 0.19938 0.77332 0.0
H465 H 0.55729 0.16077 0.74235 0.0
H466 H 0.4617 0.09078 0.76243 0.0
H467 H 0.45916 0.12966 0.79379 0.0
H468 H 0.56337 0.18762 0.84332 0.0
H469 H 0.57003 0.14595 0.86596 0.0
H470 H 0.46915 0.09271 0.87854 0.0
H471 H 0.46292 0.13459 0.85588 0.0
H472 H 0.56779 0.24104 0.88263 0.0
H473 H 0.57955 0.22909 0.9317 0.0
H474 H 0.47901 0.17002 0.94295 0.0
H475 H 0.46747 0.18246 0.8938 0.0
H476 H 0.55923 0.2879 0.86746 0.0
H477 H 0.56053 0.32434 0.90439 0.0
H478 H 0.45809 0.27888 0.89543 0.0
H479 H 0.45712 0.24257 0.85839 0.0
O480 O 0.51415 0.25127 0.65416 0.0
O481 O 0.4665 0.20797 0.65361 0.0
O482 O 0.55028 0.09365 0.89176 0.0
O483 O 0.49817 0.06403 0.89619 0.0
C484 C 0.50271 0.23922 0.81041 0.0
C485 C 0.50239 0.21575 0.79224 0.0
C486 C 0.50518 0.19088 0.8046 0.0
C487 C 0.50891 0.18966 0.83499 0.0
C488 C 0.51043 0.21356 0.85309 0.0
C489 C 0.50718 0.23829 0.84089 0.0
C490 C 0.49959 0.26507 0.79671 0.0
C491 C 0.5264 0.2953 0.79541 0.0
C492 C 0.52648 0.3168 0.77533 0.0
C493 C 0.49991 0.30811 0.75613 0.0
C494 C 0.47226 0.27889 0.75913 0.0
C495 C 0.47194 0.25772 0.7796 0.0
C496 C 0.49989 0.21765 0.76008 0.0
C497 C 0.5249 0.24189 0.74559 0.0
C498 C 0.52191 0.24482 0.71559 0.0
C499 C 0.49392 0.22337 0.6995 0.0
C500 C 0.46914 0.19872 0.71405 0.0
C501 C 0.47211 0.19591 0.74409 0.0
C502 C 0.50649 0.16728 0.78565 0.0
C503 C 0.53398 0.17573 0.77093 0.0
C504 C 0.53557 0.15367 0.75318 0.0
C505 C 0.50964 0.12273 0.74981 0.0
C506 C 0.48215 0.11431 0.7648 0.0
C507 C 0.48059 0.13647 0.78257 0.0
C508 C 0.51268 0.16398 0.84795 0.0
C509 C 0.54277 0.16686 0.85089 0.0
C510 C 0.54649 0.14308 0.86388 0.0
C511 C 0.52009 0.11597 0.87405 0.0
C512 C 0.48995 0.11322 0.87091 0.0
C513 C 0.48629 0.13705 0.85797 0.0
C514 C 0.5168 0.21277 0.88481 0.0
C515 C 0.5483 0.22658 0.89616 0.0
C516 C 0.55495 0.2197 0.92417 0.0
C517 C 0.53018 0.1985 0.94108 0.0
C518 C 0.49854 0.18634 0.93032 0.0
C519 C 0.4919 0.19355 0.9024 0.0
C520 C 0.50809 0.26266 0.86035 0.0
C521 C 0.53713 0.28606 0.87331 0.0
C522 C 0.53778 0.30665 0.89452 0.0
C523 C 0.50937 0.30424 0.90304 0.0
C524 C 0.48036 0.28142 0.88922 0.0
C525 C 0.47975 0.26072 0.86807 0.0
C526 C 0.49059 0.22693 0.66771 0.0
C527 C 0.52389 0.09063 0.88784 0.0
H528 H 0.12611 0.47088 0.086 0.0
H529 H 0.20134 0.51374 0.02561 0.0
H530 H 0.23056 0.49184 0.05218 0.0
H531 H 0.17567 0.48754 0.14823 0.0
H532 H 0.15071 0.45134 0.16626 0.0
H533 H 0.13328 0.46648 0.14029 0.0
H534 H 0.10723 0.41368 0.11079 0.0
H535 H 0.12464 0.3984 0.13679 0.0
H536 H 0.13172 0.39854 0.09874 0.0
H537 H 0.25509 0.47201 0.08833 0.0
H538 H 0.27295 0.4547 0.13228 0.0
H539 H 0.18191 0.42308 0.16879 0.0
C540 C 0.14836 0.475 0.07801 0.0
C541 C 0.16141 0.49399 0.05371 0.0
C542 C 0.19089 0.49935 0.04422 0.0
C543 C 0.20762 0.48684 0.05906 0.0
C544 C 0.19451 0.46881 0.08326 0.0
C545 C 0.16549 0.4627 0.09267 0.0
C546 C 0.15818 0.44491 0.12082 0.0
C547 C 0.15425 0.4637 0.14534 0.0
C548 C 0.12869 0.41192 0.11651 0.0
C549 C 0.18809 0.443 0.12617 0.0
C550 C 0.20858 0.45664 0.10405 0.0
C551 C 0.23899 0.46053 0.10544 0.0
C552 C 0.24895 0.45068 0.13035 0.0
C553 C 0.22842 0.43697 0.15325 0.0
C554 C 0.19749 0.43256 0.15095 0.0
H555 H 0.69554 0.11218 0.59321 0.0
H556 H 0.67573 0.01622 0.60367 0.0
H557 H 0.72425 0.03553 0.63567 0.0
H558 H 0.78405 0.1508 0.59652 0.0
H559 H 0.78911 0.18424 0.61726 0.0
H560 H 0.75536 0.16357 0.59174 0.0
H561 H 0.71749 0.15491 0.63274 0.0
H562 H 0.75104 0.17539 0.65836 0.0
H563 H 0.7201 0.13589 0.66546 0.0
H564 H 0.77075 0.06377 0.67033 0.0
H565 H 0.81209 0.09922 0.70661 0.0
H566 H 0.80307 0.17763 0.67409 0.0
C567 C 0.70193 0.09539 0.60165 0.0
C568 C 0.68205 0.06275 0.59584 0.0
C569 C 0.69067 0.04135 0.60786 0.0
C570 C 0.71826 0.05209 0.62592 0.0
C571 C 0.737 0.08431 0.6318 0.0
C572 C 0.72933 0.10572 0.62005 0.0
C573 C 0.75199 0.13873 0.63214 0.0
C574 C 0.77127 0.16063 0.60797 0.0
C575 C 0.73408 0.15199 0.64812 0.0
C576 C 0.7729 0.13226 0.65312 0.0
C577 C 0.76409 0.10079 0.6522 0.0
C578 C 0.77838 0.08862 0.67085 0.0
C579 C 0.80205 0.10906 0.69129 0.0
C580 C 0.81126 0.1414 0.69303 0.0
C581 C 0.7967 0.15311 0.6733 0.0
H582 H 0.61935 0.53656 0.19488 0.0
H583 H 0.69187 0.5822 0.1328 0.0
H584 H 0.72386 0.62612 0.16807 0.0
H585 H 0.61946 0.60213 0.21565 0.0
H586 H 0.61283 0.59356 0.25357 0.0
H587 H 0.59965 0.5619 0.22728 0.0
H588 H 0.63226 0.54103 0.25569 0.0
H589 H 0.64534 0.57256 0.28237 0.0
H590 H 0.67412 0.56708 0.26412 0.0
H591 H 0.74235 0.6689 0.20489 0.0
H592 H 0.74593 0.70806 0.24016 0.0
H593 H 0.6618 0.63551 0.27977 0.0
C594 C 0.64273 0.55508 0.18949 0.0
C595 C 0.65384 0.55582 0.16169 0.0
C596 C 0.68358 0.5811 0.1544 0.0
C597 C 0.70185 0.60605 0.17428 0.0
C598 C 0.68985 0.60538 0.20127 0.0
C599 C 0.66104 0.58047 0.20903 0.0
C600 C 0.65123 0.58786 0.23733 0.0
C601 C 0.6189 0.58628 0.23318 0.0
C602 C 0.65072 0.56582 0.2613 0.0
C603 C 0.6781 0.62135 0.24338 0.0
C604 C 0.70046 0.6307 0.22267 0.0
C605 C 0.72556 0.6616 0.22177 0.0
C606 C 0.72749 0.68372 0.24211 0.0
C607 C 0.70437 0.67495 0.26312 0.0
C608 C 0.67994 0.64305 0.26414 0.0
H609 H 0.00864 0.5355 0.60456 0.0
H610 H 0.93811 0.49969 0.53205 0.0
H611 H 0.90577 0.51668 0.55782 0.0
H612 H 0.95461 0.51073 0.66003 0.0
H613 H 0.97875 0.5448 0.68344 0.0
H614 H 0.99725 0.53187 0.65837 0.0
H615 H 0.02522 0.58729 0.63602 0.0
H616 H 0.00674 0.6004 0.66103 0.0
H617 H 0.00175 0.60404 0.62244 0.0
H618 H 0.87962 0.53457 0.59295 0.0
H619 H 0.86173 0.55195 0.63472 0.0
H620 H 0.94962 0.57597 0.68382 0.0
C621 C 0.98658 0.53151 0.59388 0.0
C622 C 0.97595 0.51632 0.56623 0.0
C623 C 0.94678 0.51135 0.55319 0.0
C624 C 0.92829 0.52097 0.56763 0.0
C625 C 0.93937 0.53562 0.59499 0.0
C626 C 0.96789 0.54094 0.60794 0.0
C627 C 0.97385 0.55587 0.638 0.0
C628 C 0.97624 0.53454 0.66132 0.0
C629 C 0.00366 0.58886 0.63944 0.0
C630 C 0.94398 0.55771 0.64016 0.0
C631 C 0.92444 0.54606 0.6151 0.0
C632 C 0.89485 0.544 0.61257 0.0
C633 C 0.88485 0.5538 0.6364 0.0
C634 C 0.9044 0.5655 0.66237 0.0
C635 C 0.93448 0.56777 0.66403 0.0
H636 H 0.52426 0.97261 0.14298 0.0
H637 H 0.46894 0.94371 0.06063 0.0
H638 H 0.41956 0.91456 0.08693 0.0
H639 H 0.47844 0.89901 0.17756 0.0
H640 H 0.48244 0.91683 0.21284 0.0
H641 H 0.51299 0.93657 0.18748 0.0
H642 H 0.50727 0.9861 0.19147 0.0
H643 H 0.47659 0.96645 0.21677 0.0
H644 H 0.46885 0.98242 0.18415 0.0
H645 H 0.37618 0.88954 0.12261 0.0
H646 H 0.34272 0.86621 0.16466 0.0
H647 H 0.42711 0.90896 0.223 0.0
C648 C 0.50173 0.96031 0.13049 0.0
C649 C 0.50029 0.96056 0.09982 0.0
C650 C 0.47048 0.94375 0.08417 0.0
C651 C 0.44235 0.92729 0.09891 0.0
C652 C 0.4446 0.9276 0.12922 0.0
C653 C 0.47358 0.94334 0.14479 0.0
C654 C 0.46975 0.93872 0.17713 0.0
C655 C 0.48692 0.92177 0.18947 0.0
C656 C 0.4813 0.9703 0.19333 0.0
C657 C 0.43406 0.91792 0.17737 0.0
C658 C 0.41989 0.91211 0.14957 0.0
C659 C 0.38703 0.89383 0.14445 0.0
C660 C 0.36824 0.88082 0.16836 0.0
C661 C 0.3825 0.88582 0.19683 0.0
C662 C 0.41576 0.90471 0.20134 0.0
H663 H 0.52703 0.46051 0.67009 0.0
H664 H 0.52576 0.41214 0.591 0.0
H665 H 0.51484 0.36508 0.61935 0.0
H666 H 0.56866 0.43158 0.71455 0.0
H667 H 0.54773 0.42862 0.74663 0.0
H668 H 0.55303 0.45744 0.71989 0.0
H669 H 0.49225 0.43497 0.71499 0.0
H670 H 0.48663 0.40605 0.74176 0.0
H671 H 0.46615 0.39365 0.7064 0.0
H672 H 0.50296 0.32314 0.65628 0.0
H673 H 0.49615 0.29095 0.69967 0.0
H674 H 0.5099 0.36837 0.75522 0.0
C675 C 0.52402 0.43982 0.65873 0.0
C676 C 0.52667 0.4396 0.62834 0.0
C677 C 0.52356 0.41256 0.61426 0.0
C678 C 0.5173 0.38579 0.63016 0.0
C679 C 0.51488 0.38678 0.66015 0.0
C680 C 0.51858 0.41326 0.67435 0.0
C681 C 0.51691 0.40901 0.70695 0.0
C682 C 0.54846 0.43308 0.72294 0.0
C683 C 0.48881 0.41103 0.71817 0.0
C684 C 0.51144 0.37587 0.70891 0.0
C685 C 0.5099 0.36332 0.68161 0.0
C686 C 0.50427 0.33277 0.67774 0.0
C687 C 0.50032 0.31466 0.70242 0.0
C688 C 0.50251 0.32731 0.73057 0.0
C689 C 0.50821 0.3583 0.73386 0.0
H690 H 0.61235 0.92209 0.5374 0.0
H691 H 0.59999 0.98069 0.47344 0.0
H692 H 0.60933 0.95278 0.43428 0.0
H693 H 0.67673 0.92117 0.50243 0.0
H694 H 0.66445 0.88105 0.51148 0.0
H695 H 0.65547 0.90463 0.53473 0.0
H696 H 0.59568 0.86227 0.52975 0.0
H697 H 0.60448 0.83859 0.50643 0.0
H698 H 0.57605 0.8499 0.49404 0.0
H699 H 0.61853 0.91853 0.40213 0.0
H700 H 0.6313 0.8817 0.37838 0.0
H701 H 0.64173 0.84703 0.46254 0.0
C702 C 0.61152 0.92884 0.51511 0.0
C703 C 0.6054 0.95343 0.50832 0.0
C704 C 0.60485 0.96202 0.47904 0.0
C705 C 0.60996 0.94624 0.45665 0.0
C706 C 0.61607 0.92223 0.46397 0.0
C707 C 0.61729 0.91372 0.49243 0.0
C708 C 0.62577 0.88794 0.49416 0.0
C709 C 0.65749 0.89939 0.51174 0.0
C710 C 0.59888 0.8579 0.50684 0.0
C711 C 0.62879 0.88318 0.4622 0.0
C712 C 0.62274 0.90307 0.44526 0.0
C713 C 0.62339 0.90288 0.41511 0.0
C714 C 0.63053 0.88185 0.40184 0.0
C715 C 0.6373 0.86158 0.4187 0.0
C716 C 0.6366 0.86234 0.44928 0.0
H717 H 0.65619 0.57103 0.00108 0.0
H718 H 0.68916 0.52802 0.06592 0.0
H719 H 0.73376 0.53843 0.03619 0.0
H720 H 0.6718 0.53922 0.94032 0.0
H721 H 0.68484 0.57349 0.91826 0.0
H722 H 0.65729 0.56598 0.94594 0.0
H723 H 0.69535 0.62121 0.96931 0.0
H724 H 0.72302 0.62894 0.94161 0.0
H725 H 0.73592 0.63233 0.97947 0.0
H726 H 0.77155 0.54855 0.99807 0.0
H727 H 0.80106 0.5588 0.95351 0.0
H728 H 0.74467 0.59572 0.91298 0.0
C729 C 0.67319 0.56442 0.00925 0.0
C730 C 0.66921 0.54876 0.03586 0.0
C731 C 0.69164 0.53997 0.04559 0.0
C732 C 0.71717 0.54589 0.02892 0.0
C733 C 0.72008 0.56073 0.00256 0.0
C734 C 0.69887 0.57005 0.99276 0.0
C735 C 0.70642 0.58373 0.96269 0.0
C736 C 0.67842 0.56445 0.9405 0.0
C737 C 0.71574 0.61863 0.96332 0.0
C738 C 0.73469 0.57992 0.95697 0.0
C739 C 0.74225 0.5668 0.98038 0.0
C740 C 0.76617 0.55922 0.97972 0.0
C741 C 0.78267 0.56496 0.95433 0.0
C742 C 0.77521 0.57818 0.93 0.0
C743 C 0.75119 0.58613 0.93152 0.0
H744 H 0.08197 0.56863 0.47587 0.0
H745 H 0.14275 0.59376 0.55507 0.0
H746 H 0.18157 0.64358 0.53339 0.0
H747 H 0.14368 0.59736 0.42723 0.0
H748 H 0.12513 0.61168 0.40144 0.0
H749 H 0.10099 0.57909 0.42393 0.0
H750 H 0.07428 0.60927 0.44283 0.0
H751 H 0.09837 0.642 0.42037 0.0
H752 H 0.09867 0.64817 0.45898 0.0
H753 H 0.21507 0.6891 0.50232 0.0
H754 H 0.24123 0.72716 0.46367 0.0
H755 H 0.15891 0.67225 0.40461 0.0
C756 C 0.10324 0.58478 0.48882 0.0
C757 C 0.10926 0.57733 0.51722 0.0
C758 C 0.13758 0.59895 0.53328 0.0
C759 C 0.15975 0.62736 0.52119 0.0
C760 C 0.15322 0.63381 0.49305 0.0
C761 C 0.12566 0.61319 0.47706 0.0
C762 C 0.1251 0.62508 0.44678 0.0
C763 C 0.12365 0.60193 0.42348 0.0
C764 C 0.09746 0.63152 0.44197 0.0
C765 C 0.15687 0.65541 0.44812 0.0
C766 C 0.17262 0.66008 0.47507 0.0
C767 C 0.2029 0.68582 0.48119 0.0
C768 C 0.21761 0.70719 0.45909 0.0
C769 C 0.20206 0.70266 0.43121 0.0
C770 C 0.17114 0.67659 0.42586 0.0
H771 H 0.5364 0.06263 0.02715 0.0
H772 H 0.61411 0.13423 0.08217 0.0
H773 H 0.60477 0.17501 0.05979 0.0
H774 H 0.55281 0.10517 0.96437 0.0
H775 H 0.51189 0.09034 0.95233 0.0
H776 H 0.52233 0.06688 0.9752 0.0
H777 H 0.48221 0.06306 0.01222 0.0
H778 H 0.47184 0.08667 0.98923 0.0
H779 H 0.4853 0.09863 0.02665 0.0
H780 H 0.59136 0.20847 0.02632 0.0
H781 H 0.57399 0.2311 0.98619 0.0
H782 H 0.50452 0.13687 0.95456 0.0
C783 C 0.55112 0.0868 0.03495 0.0
C784 C 0.57601 0.09528 0.0564 0.0
C785 C 0.59477 0.12719 0.06589 0.0
C786 C 0.58962 0.15048 0.0533 0.0
C787 C 0.56532 0.14134 0.03163 0.0
C788 C 0.54615 0.11015 0.02283 0.0
C789 C 0.52301 0.10647 0.99792 0.0
C790 C 0.52785 0.09133 0.97088 0.0
C791 C 0.48855 0.08759 0.00706 0.0
C792 C 0.53292 0.14058 0.99322 0.0
C793 C 0.55715 0.16042 0.01299 0.0
C794 C 0.57195 0.19312 0.01115 0.0
C795 C 0.56203 0.20576 0.98828 0.0
C796 C 0.53754 0.18572 0.96764 0.0
C797 C 0.52254 0.15277 0.97058 0.0
H798 H 0.44196 0.45679 0.53455 0.0
H799 H 0.49035 0.55875 0.54027 0.0
H800 H 0.46681 0.55978 0.49181 0.0
H801 H 0.44902 0.44799 0.46108 0.0
H802 H 0.40974 0.41473 0.45341 0.0
H803 H 0.42826 0.42123 0.4895 0.0
H804 H 0.38039 0.42176 0.51094 0.0
H805 H 0.36135 0.41444 0.47497 0.0
H806 H 0.36764 0.44796 0.49636 0.0
H807 H 0.44541 0.55018 0.44039 0.0
H808 H 0.4174 0.5306 0.39258 0.0
H809 H 0.37596 0.43437 0.42233 0.0
C810 C 0.44658 0.47914 0.52589 0.0
C811 C 0.46742 0.50771 0.54107 0.0
C812 C 0.47379 0.53668 0.52904 0.0
C813 C 0.46082 0.53749 0.50149 0.0
C814 C 0.44099 0.50904 0.48661 0.0
C815 C 0.43292 0.48032 0.4987 0.0
C816 C 0.41068 0.45331 0.478 0.0
C817 C 0.42531 0.43314 0.47004 0.0
C818 C 0.37808 0.43318 0.49083 0.0
C819 C 0.40853 0.47143 0.45211 0.0
C820 C 0.42657 0.50351 0.45746 0.0
C821 C 0.43027 0.5251 0.43623 0.0
C822 C 0.41407 0.51366 0.4091 0.0
C823 C 0.39362 0.48085 0.40355 0.0
C824 C 0.39135 0.45955 0.42543 0.0
H825 H 0.0873 0.50487 0.91697 0.0
H826 H 0.17181 0.49904 0.9367 0.0
H827 H 0.1506 0.45216 0.90373 0.0
H828 H 0.03478 0.42949 0.92011 0.0
H829 H 0.00769 0.42638 0.89046 0.0
H830 H 0.03254 0.4636 0.90904 0.0
H831 H 0.05588 0.48981 0.86057 0.0
H832 H 0.03048 0.45271 0.84153 0.0
H833 H 0.07281 0.47295 0.83778 0.0
H834 H 0.11436 0.39933 0.87942 0.0
H835 H 0.06903 0.34829 0.86206 0.0
H836 H 0.00974 0.39094 0.85402 0.0
C837 C 0.10198 0.49465 0.91298 0.0
C838 C 0.13134 0.50566 0.92864 0.0
C839 C 0.14964 0.49128 0.9241 0.0
C840 C 0.13767 0.4646 0.90555 0.0
C841 C 0.10777 0.45326 0.89136 0.0
C842 C 0.09058 0.46845 0.8942 0.0
C843 C 0.05767 0.44977 0.87947 0.0
C844 C 0.03168 0.44185 0.90107 0.0
C845 C 0.05401 0.46736 0.85327 0.0
C846 C 0.05811 0.42062 0.86977 0.0
C847 C 0.08727 0.42315 0.87645 0.0
C848 C 0.09181 0.3975 0.87311 0.0
C849 C 0.06582 0.36852 0.86313 0.0
C850 C 0.03559 0.36535 0.85655 0.0
C851 C 0.03229 0.39223 0.85904 0.0
H852 H 0.01866 0.52017 0.98535 0.0
H853 H 0.10212 0.61194 0.97489 0.0
H854 H 0.06824 0.63158 0.95351 0.0
H855 H 0.98032 0.51844 0.9183 0.0
H856 H 0.94065 0.49885 0.93102 0.0
H857 H 0.9708 0.49283 0.94888 0.0
H858 H 0.96079 0.5108 0.99811 0.0
H859 H 0.93056 0.51689 0.98036 0.0
H860 H 0.96335 0.54861 0.00117 0.0
H861 H 0.02682 0.6402 0.9297 0.0
H862 H 0.98041 0.6368 0.90273 0.0
H863 H 0.92274 0.53965 0.92843 0.0
C864 C 0.02964 0.54455 0.97906 0.0
C865 C 0.06296 0.5646 0.98186 0.0
C866 C 0.07663 0.59616 0.97285 0.0
C867 C 0.05758 0.60761 0.96087 0.0
C868 C 0.02489 0.58719 0.95798 0.0
C869 C 0.01094 0.55632 0.96671 0.0
C870 C 0.97552 0.53868 0.95882 0.0
C871 C 0.9663 0.51055 0.93802 0.0
C872 C 0.95643 0.52813 0.98626 0.0
C873 C 0.97198 0.5643 0.94369 0.0
C874 C 0.00072 0.59218 0.94387 0.0
C875 C 0.00402 0.6187 0.92985 0.0
C876 C 0.97736 0.61657 0.91475 0.0
C877 C 0.94768 0.58807 0.91369 0.0
C878 C 0.945 0.56179 0.92884 0.0
H879 H 0.50929 0.96008 0.49894 0.0
H880 H 0.54794 0.05881 0.47942 0.0
H881 H 0.50899 0.04353 0.43718 0.0
H882 H 0.50012 0.93356 0.42683 0.0
H883 H 0.46411 0.89674 0.43179 0.0
H884 H 0.49262 0.91568 0.46195 0.0
H885 H 0.4491 0.91564 0.49224 0.0
H886 H 0.42046 0.89618 0.46223 0.0
H887 H 0.42633 0.93264 0.47739 0.0
H888 H 0.46598 0.01628 0.3958 0.0
H889 H 0.42492 0.97983 0.35876 0.0
H890 H 0.41794 0.90008 0.40549 0.0
C891 C 0.50926 0.97864 0.48621 0.0
C892 C 0.53142 0.01068 0.49267 0.0
C893 C 0.531 0.03411 0.47496 0.0
C894 C 0.50897 0.02565 0.45097 0.0
C895 C 0.48779 0.9937 0.44496 0.0
C896 C 0.4879 0.97063 0.46216 0.0
C897 C 0.4644 0.93796 0.45029 0.0
C898 C 0.48133 0.91994 0.44224 0.0
C899 C 0.43854 0.91954 0.47183 0.0
C900 C 0.45105 0.94608 0.42358 0.0
C901 C 0.46445 0.97828 0.42088 0.0
C902 C 0.45543 0.99105 0.39771 0.0
C903 C 0.4322 0.9703 0.37683 0.0
C904 C 0.41885 0.93734 0.37914 0.0
C905 C 0.42832 0.92525 0.40292 0.0
H906 H 0.57513 0.40669 0.05072 0.0
H907 H 0.51659 0.44734 0.02623 0.0
H908 H 0.49245 0.40973 0.9845 0.0
H909 H 0.59349 0.39932 0.98046 0.0
H910 H 0.59311 0.36273 0.98541 0.0
H911 H 0.6022 0.38914 0.01602 0.0
H912 H 0.5567 0.34461 0.04366 0.0
H913 H 0.54769 0.3179 0.01323 0.0
H914 H 0.51705 0.3239 0.02679 0.0
H915 H 0.47841 0.37139 0.94301 0.0
H916 H 0.47586 0.33526 0.90436 0.0
H917 H 0.54464 0.32054 0.95494 0.0
C918 C 0.55648 0.40692 0.0371 0.0
C919 C 0.54734 0.42955 0.04186 0.0
C920 C 0.5237 0.42997 0.02302 0.0
C921 C 0.50983 0.40869 0.99931 0.0
C922 C 0.52003 0.38727 0.99465 0.0
C923 C 0.54275 0.38614 0.01303 0.0
C924 C 0.5517 0.36294 0.00155 0.0
C925 C 0.58723 0.37954 0.9955 0.0
C926 C 0.54274 0.33572 0.02256 0.0
C927 C 0.53099 0.35177 0.9736 0.0
C928 C 0.51258 0.36575 0.97021 0.0
C929 C 0.49241 0.35999 0.94557 0.0
C930 C 0.49108 0.33941 0.92377 0.0
C931 C 0.51005 0.32512 0.92663 0.0
C932 C 0.53004 0.3313 0.95203 0.0
H933 H 0.10321 0.46786 0.49326 0.0
H934 H 0.00884 0.41574 0.45071 0.0
H935 H 0.02835 0.39146 0.41644 0.0
H936 H 0.14457 0.48635 0.4293 0.0
H937 H 0.17738 0.48307 0.44497 0.0
H938 H 0.15511 0.49367 0.46772 0.0
H939 H 0.14375 0.44683 0.50095 0.0
H940 H 0.16593 0.43601 0.4782 0.0
H941 H 0.1254 0.40755 0.48528 0.0
H942 H 0.0591 0.37463 0.38551 0.0
H943 H 0.09938 0.37027 0.35826 0.0
H944 H 0.17329 0.43481 0.42057 0.0
C945 C 0.0865 0.45099 0.47702 0.0
C946 C 0.05446 0.44349 0.47476 0.0
C947 C 0.0335 0.42178 0.45283 0.0
C948 C 0.04432 0.40775 0.43339 0.0
C949 C 0.07615 0.4158 0.43615 0.0
C950 C 0.09694 0.43709 0.45732 0.0
C951 C 0.13047 0.44369 0.45441 0.0
C952 C 0.15321 0.47876 0.44875 0.0
C953 C 0.14206 0.43286 0.48131 0.0
C954 C 0.12545 0.42322 0.42798 0.0
C955 C 0.0939 0.40687 0.41799 0.0
C956 C 0.08383 0.38716 0.39325 0.0
C957 C 0.10676 0.3847 0.37801 0.0
C958 C 0.13927 0.40222 0.38741 0.0
C959 C 0.14853 0.4212 0.41297 0.0
H960 H 0.67617 0.08264 0.02491 0.0
H961 H 0.6211 0.99518 0.97467 0.0
H962 H 0.66494 0.01246 0.94151 0.0
H963 H 0.7091 0.1321 0.964 0.0
H964 H 0.74694 0.15737 0.98299 0.0
H965 H 0.71151 0.13757 0.00293 0.0
H966 H 0.73765 0.11286 0.03565 0.0
H967 H 0.77309 0.13237 0.01565 0.0
H968 H 0.75276 0.09019 0.01913 0.0
H969 H 0.71527 0.03929 0.91424 0.0
H970 H 0.76613 0.07546 0.89249 0.0
H971 H 0.78736 0.14548 0.96031 0.0
C972 C 0.6733 0.06705 0.00697 0.0
C973 C 0.64529 0.0375 0.00242 0.0
C974 C 0.64234 0.01796 0.97851 0.0
C975 C 0.66716 0.02749 0.95967 0.0
C976 C 0.6946 0.05668 0.96499 0.0
C977 C 0.69763 0.07629 0.98787 0.0
C978 C 0.72903 0.10694 0.98832 0.0
C979 C 0.72382 0.13515 0.98431 0.0
C980 C 0.74932 0.1108 0.01635 0.0
C981 C 0.74325 0.10155 0.96207 0.0
C982 C 0.7232 0.07231 0.94905 0.0
C983 C 0.73119 0.0622 0.9243 0.0
C984 C 0.7602 0.08276 0.91225 0.0
C985 C 0.78066 0.11313 0.92487 0.0
C986 C 0.77213 0.12239 0.95025 0.0
H987 H 0.61587 0.57763 0.51161 0.0
H988 H 0.57576 0.61943 0.56598 0.0
H989 H 0.59573 0.66517 0.53445 0.0
H990 H 0.68759 0.65302 0.49409 0.0
H991 H 0.68671 0.64027 0.45722 0.0
H992 H 0.67198 0.61183 0.4856 0.0
H993 H 0.61799 0.58032 0.45619 0.0
H994 H 0.63247 0.60869 0.42783 0.0
H995 H 0.59651 0.5999 0.44483 0.0
H996 H 0.61451 0.7034 0.49509 0.0
H997 H 0.63367 0.73366 0.45039 0.0
H998 H 0.66354 0.6692 0.42143 0.0
C999 C 0.61187 0.59671 0.51718 0.0
C1000 C 0.59424 0.59488 0.54131 0.0
C1001 C 0.58914 0.62017 0.54763 0.0
C1002 C 0.60046 0.64637 0.52989 0.0
C1003 C 0.6171 0.64716 0.50597 0.0
C1004 C 0.62313 0.62323 0.49964 0.0
C1005 C 0.64027 0.62946 0.47164 0.0
C1006 C 0.67362 0.63391 0.4775 0.0
C1007 C 0.62063 0.60302 0.44878 0.0
C1008 C 0.64207 0.66011 0.46293 0.0
C1009 C 0.62865 0.66988 0.48321 0.0
C1010 C 0.62554 0.69633 0.47927 0.0
C1011 C 0.63633 0.71326 0.45385 0.0
C1012 C 0.65017 0.70376 0.43281 0.0
C1013 C 0.65345 0.67709 0.43753 0.0
H1014 H 0.56486 0.06917 0.61263 0.0
H1015 H 0.52743 0.97672 0.65 0.0
H1016 H 0.50763 0.99388 0.69052 0.0
H1017 H 0.5925 0.11312 0.67849 0.0
H1018 H 0.58217 0.14215 0.66723 0.0
H1019 H 0.59149 0.12182 0.64052 0.0
H1020 H 0.53717 0.10345 0.61274 0.0
H1021 H 0.52771 0.12383 0.63932 0.0
H1022 H 0.5011 0.0824 0.63174 0.0
H1023 H 0.49431 0.02264 0.72827 0.0
H1024 H 0.48895 0.06026 0.75976 0.0
H1025 H 0.53466 0.13294 0.69638 0.0
C1026 C 0.55228 0.05233 0.62916 0.0
C1027 C 0.54768 0.02157 0.62813 0.0
C1028 C 0.53117 0.00039 0.65031 0.0
C1029 C 0.51983 0.00993 0.67338 0.0
C1030 C 0.5251 0.0406 0.6738 0.0
C1031 C 0.54085 0.06139 0.65217 0.0
C1032 C 0.54446 0.09334 0.65793 0.0
C1033 C 0.57975 0.11911 0.66125 0.0
C1034 C 0.52654 0.1012 0.63401 0.0
C1035 C 0.52871 0.08753 0.68648 0.0
C1036 C 0.51749 0.05697 0.69528 0.0
C1037 C 0.50279 0.04654 0.72145 0.0
C1038 C 0.49972 0.06802 0.73912 0.0
C1039 C 0.51144 0.09956 0.73056 0.0
C1040 C 0.52578 0.10913 0.70372 0.0
H1041 H 0.51364 0.47458 0.14593 0.0
H1042 H 0.51805 0.55256 0.09755 0.0
H1043 H 0.4728 0.54773 0.12378 0.0
H1044 H 0.4284 0.4285 0.14717 0.0
H1045 H 0.42921 0.41499 0.18346 0.0
H1046 H 0.46155 0.42449 0.16056 0.0
H1047 H 0.5014 0.46383 0.20016 0.0
H1048 H 0.46919 0.45453 0.22316 0.0
H1049 H 0.49556 0.49482 0.21375 0.0
H1050 H 0.42782 0.53502 0.15656 0.0
H1051 H 0.3857 0.51438 0.19182 0.0
H1052 H 0.41106 0.44466 0.21815 0.0
C1053 C 0.50509 0.49062 0.14068 0.0
C1054 C 0.51944 0.51398 0.11964 0.0
C1055 C 0.50743 0.53445 0.11353 0.0
C1056 C 0.48177 0.53191 0.12835 0.0
C1057 C 0.46838 0.50873 0.14912 0.0
C1058 C 0.47957 0.48837 0.15516 0.0
C1059 C 0.46125 0.4656 0.17851 0.0
C1060 C 0.44408 0.43137 0.16671 0.0
C1061 C 0.48316 0.46997 0.20549 0.0
C1062 C 0.43791 0.47627 0.18474 0.0
C1063 C 0.44246 0.50127 0.16768 0.0
C1064 C 0.42404 0.51544 0.16998 0.0
C1065 C 0.40032 0.50368 0.19017 0.0
C1066 C 0.39513 0.47793 0.2077 0.0
C1067 C 0.41424 0.46413 0.20483 0.0
H1068 H 0.03897 0.44586 0.63858 0.0
H1069 H 0.988 0.38794 0.56183 0.0
H1070 H 0.96541 0.34041 0.59177 0.0
H1071 H 0.05634 0.39021 0.67538 0.0
H1072 H 0.04955 0.40018 0.71089 0.0
H1073 H 0.06361 0.42932 0.68311 0.0
H1074 H 0.01591 0.43789 0.68929 0.0
H1075 H 0.00176 0.40885 0.7171 0.0
H1076 H 0.97604 0.4046 0.68581 0.0
H1077 H 0.94827 0.29938 0.63003 0.0
H1078 H 0.93378 0.26821 0.67475 0.0
H1079 H 0.99329 0.35332 0.72682 0.0
C1080 C 0.02335 0.4231 0.62807 0.0
C1081 C 0.01539 0.4204 0.59792 0.0
C1082 C 0.99435 0.3904 0.58495 0.0
C1083 C 0.98156 0.36331 0.60172 0.0
C1084 C 0.98978 0.36676 0.63144 0.0
C1085 C 0.0099 0.39592 0.64457 0.0
C1086 C 0.01319 0.39343 0.67719 0.0
C1087 C 0.04773 0.4039 0.68722 0.0
C1088 C 0.00099 0.4123 0.69329 0.0
C1089 C 0.99166 0.35834 0.68035 0.0
C1090 C 0.97879 0.34331 0.65366 0.0
C1091 C 0.9582 0.31087 0.65105 0.0
C1092 C 0.95022 0.29337 0.67647 0.0
C1093 C 0.96246 0.30849 0.70403 0.0
C1094 C 0.98357 0.34131 0.70594 0.0
H1095 H 0.64616 0.00508 0.16088 0.0
H1096 H 0.6309 0.95982 0.07606 0.0
H1097 H 0.65486 0.92927 0.09531 0.0
H1098 H 0.72173 0.00799 0.18228 0.0
H1099 H 0.71173 0.99878 0.21956 0.0
H1100 H 0.69642 0.01983 0.19866 0.0
H1101 H 0.63897 0.97751 0.20981 0.0
H1102 H 0.65411 0.95647 0.23081 0.0
H1103 H 0.62504 0.93668 0.20112 0.0
H1104 H 0.67677 0.90107 0.12369 0.0
H1105 H 0.69289 0.87459 0.16066 0.0
H1106 H 0.6933 0.93659 0.22777 0.0
C1107 C 0.64838 0.9891 0.14632 0.0
C1108 C 0.63678 0.9849 0.11695 0.0
C1109 C 0.63952 0.96335 0.09866 0.0
C1110 C 0.65331 0.94603 0.10932 0.0
C1111 C 0.66419 0.9504 0.13838 0.0
C1112 C 0.6618 0.97125 0.15674 0.0
C1113 C 0.67309 0.96944 0.18762 0.0
C1114 C 0.7025 0.00089 0.19761 0.0
C1115 C 0.6462 0.95942 0.20856 0.0
C1116 C 0.68153 0.9439 0.18375 0.0
C1117 C 0.67659 0.93362 0.15506 0.0
C1118 C 0.68103 0.90909 0.1462 0.0
C1119 C 0.69009 0.89414 0.16732 0.0
C1120 C 0.69448 0.90366 0.19697 0.0
C1121 C 0.69075 0.92929 0.20516 0.0
H1122 H 0.57504 0.5379 0.69859 0.0
H1123 H 0.61999 0.61435 0.63895 0.0
H1124 H 0.66666 0.64191 0.67364 0.0
H1125 H 0.61129 0.58738 0.76911 0.0
H1126 H 0.61594 0.55654 0.78567 0.0
H1127 H 0.58307 0.54669 0.75979 0.0
H1128 H 0.60015 0.51433 0.72893 0.0
H1129 H 0.63305 0.52417 0.75447 0.0
H1130 H 0.63999 0.53309 0.71664 0.0
H1131 H 0.71154 0.65504 0.7085 0.0
H1132 H 0.75186 0.6535 0.7411 0.0
H1133 H 0.67817 0.56997 0.78094 0.0
C1134 C 0.59417 0.56115 0.69368 0.0
C1135 C 0.59395 0.57467 0.66674 0.0
C1136 C 0.61975 0.60425 0.65996 0.0
C1137 C 0.64622 0.62001 0.67952 0.0
C1138 C 0.64635 0.60575 0.7057 0.0
C1139 C 0.62088 0.5771 0.713 0.0
C1140 C 0.62894 0.56477 0.7404 0.0
C1141 C 0.6086 0.5638 0.76522 0.0
C1142 C 0.62534 0.53219 0.73474 0.0
C1143 C 0.66344 0.58996 0.74627 0.0
C1144 C 0.67276 0.61366 0.72634 0.0
C1145 C 0.70435 0.63728 0.72492 0.0
C1146 C 0.72717 0.63628 0.74383 0.0
C1147 C 0.71841 0.61183 0.76411 0.0
C1148 C 0.68585 0.58905 0.76586 0.0
H1149 H 0.22626 0.64129 0.0625 0.0
H1150 H 0.12839 0.61986 0.05414 0.0
H1151 H 0.13997 0.66036 0.09184 0.0
H1152 H 0.23296 0.64849 0.13835 0.0
H1153 H 0.2737 0.68016 0.1412 0.0
H1154 H 0.25947 0.65319 0.11039 0.0
H1155 H 0.27743 0.6999 0.0755 0.0
H1156 H 0.29187 0.72707 0.10627 0.0
H1157 H 0.26349 0.72731 0.07977 0.0
H1158 H 0.16012 0.69897 0.13281 0.0
H1159 H 0.18718 0.73213 0.17662 0.0
H1160 H 0.27214 0.72828 0.16039 0.0
C1161 C 0.20764 0.64586 0.06816 0.0
C1162 C 0.17656 0.62791 0.05533 0.0
C1163 C 0.15237 0.63361 0.06376 0.0
C1164 C 0.15875 0.65661 0.08501 0.0
C1165 C 0.1894 0.67352 0.0978 0.0
C1166 C 0.21349 0.66845 0.08986 0.0
C1167 C 0.24337 0.68761 0.10929 0.0
C1168 C 0.25292 0.66607 0.12578 0.0
C1169 C 0.27066 0.71192 0.09165 0.0
C1170 C 0.23197 0.70353 0.12971 0.0
C1171 C 0.20094 0.69546 0.1223 0.0
C1172 C 0.1846 0.70591 0.13861 0.0
C1173 C 0.20025 0.72489 0.1634 0.0
C1174 C 0.23188 0.73308 0.17182 0.0
C1175 C 0.24798 0.72247 0.15449 0.0
loop_
_geom_bond_atom_site_label_1
_geom_bond_atom_site_label_2
_geom_bond_distance
_geom_bond_site_symmetry_2
_ccdc_geom_bond_type
C0 O2 1.247 . S
C0 O4 1.258 . S
C1 O8 1.247 . S
C1 O9 1.258 . S
O2 C0 1.247 . S
O2 Zn3 2.028 . S
Zn3 O2 2.028 . S
Zn3 O7 2.035 1_554 S
Zn3 O9 2.035 1_554 S
Zn3 O10 2.028 . S
O4 C0 1.258 . S
O4 Zn5 2.035 1_554 S
Zn5 O4 2.035 1_556 S
Zn5 O6 2.028 . S
Zn5 O8 2.028 . S
Zn5 O11 2.035 1_556 S
O6 Zn5 2.028 . S
O6 C12 1.247 . S
O7 Zn3 2.035 1_556 S
O7 C12 1.258 . S
O8 C1 1.247 . S
O8 Zn5 2.028 . S
O9 C1 1.258 . S
O9 Zn3 2.035 1_556 S
O10 Zn3 2.028 . S
O10 C13 1.247 . S
O11 Zn5 2.035 1_554 S
O11 C13 1.258 . S
C12 O6 1.247 . S
C12 O7 1.258 . S
C13 O10 1.247 . S
C13 O11 1.258 . S
C14 O16 1.247 1_545 S
C14 O18 1.258 . S
C15 O22 1.247 1_565 S
C15 O23 1.258 . S
O16 C14 1.247 1_565 S
O16 Zn17 2.028 . S
Zn17 O16 2.028 . S
Zn17 O21 2.035 . S
Zn17 O23 2.035 . S
Zn17 O24 2.034 . S
O18 C14 1.258 . S
O18 Zn19 2.035 . S
Zn19 O18 2.035 . S
Zn19 O20 2.028 . S
Zn19 O22 2.028 . S
Zn19 O25 2.035 . S
O20 Zn19 2.028 . S
O20 C26 1.247 1_545 S
O21 Zn17 2.035 . S
O21 C26 1.258 . S
O22 C15 1.247 1_545 S
O22 Zn19 2.028 . S
O23 C15 1.258 . S
O23 Zn17 2.035 . S
O24 Zn17 2.034 . S
O24 C27 1.218 1_565 S
O25 Zn19 2.035 . S
O25 C27 1.258 . S
C26 O20 1.247 1_565 S
C26 O21 1.258 . S
C27 O24 1.218 1_545 S
C27 O25 1.258 . S
C28 O30 1.247 . S
C28 O32 1.258 . S
C29 O36 1.247 . S
C29 O37 1.258 . S
O30 C28 1.247 . S
O30 Zn31 2.028 . S
Zn31 O30 2.028 . S
Zn31 O35 2.035 . S
Zn31 O37 2.035 . S
Zn31 O38 2.028 . S
O32 C28 1.258 . S
O32 Zn33 2.035 . S
Zn33 O32 2.035 . S
Zn33 O34 2.028 . S
Zn33 O36 2.028 . S
Zn33 O39 2.035 . S
O34 Zn33 2.028 . S
O34 C40 1.247 . S
O35 Zn31 2.035 . S
O35 C40 1.258 . S
O36 C29 1.247 . S
O36 Zn33 2.028 . S
O37 C29 1.258 . S
O37 Zn31 2.035 . S
O38 Zn31 2.028 . S
O38 C41 1.247 . S
O39 Zn33 2.035 . S
O39 C41 1.258 . S
C40 O34 1.247 . S
C40 O35 1.258 . S
C41 O38 1.247 . S
C41 O39 1.258 . S
C42 O44 1.247 . S
C42 O46 1.258 1_455 S
C43 O50 1.247 . S
C43 O51 1.258 1_655 S
O44 C42 1.247 . S
O44 Zn45 2.028 . S
Zn45 O44 2.028 . S
Zn45 O49 2.035 . S
Zn45 O51 2.035 . S
Zn45 O52 2.028 . S
O46 C42 1.258 1_655 S
O46 Zn47 2.035 . S
Zn47 O46 2.035 . S
Zn47 O48 2.028 . S
Zn47 O50 2.028 . S
Zn47 O53 2.060 . S
O48 Zn47 2.028 . S
O48 C54 1.247 . S
O49 Zn45 2.035 . S
O49 C54 1.258 1_455 S
O50 C43 1.247 . S
O50 Zn47 2.028 . S
O51 C43 1.258 1_455 S
O51 Zn45 2.035 . S
O52 Zn45 2.028 . S
O52 C55 1.247 . S
O53 Zn47 2.060 . S
O53 C55 1.230 1_655 S
C54 O48 1.247 . S
C54 O49 1.258 1_655 S
C55 O52 1.247 . S
C55 O53 1.230 1_455 S
C56 O58 1.247 . S
C56 O60 1.258 . S
C57 O64 1.247 . S
C57 O65 1.258 . S
O58 C56 1.247 . S
O58 Zn59 2.028 . S
Zn59 O58 2.028 . S
Zn59 O63 2.035 . S
Zn59 O65 2.035 . S
Zn59 O66 2.028 . S
O60 C56 1.258 . S
O60 Zn61 2.035 . S
Zn61 O60 2.035 . S
Zn61 O62 2.028 . S
Zn61 O64 2.028 . S
Zn61 O67 2.035 . S
O62 Zn61 2.028 . S
O62 C68 1.247 . S
O63 Zn59 2.035 . S
O63 C68 1.258 . S
O64 C57 1.247 . S
O64 Zn61 2.028 . S
O65 C57 1.258 . S
O65 Zn59 2.035 . S
O66 Zn59 2.028 . S
O66 C69 1.247 . S
O67 Zn61 2.035 . S
O67 C69 1.258 . S
C68 O62 1.247 . S
C68 O63 1.258 . S
C69 O66 1.247 . S
C69 O67 1.258 . S
C70 O72 1.247 . S
C70 O74 1.258 . S
C71 O78 1.247 . S
C71 O79 1.258 . S
O72 C70 1.247 . S
O72 Zn73 2.028 . S
Zn73 O72 2.028 . S
Zn73 O77 2.035 . S
Zn73 O79 2.035 . S
Zn73 O80 2.028 . S
O74 C70 1.258 . S
O74 Zn75 2.035 . S
Zn75 O74 2.035 . S
Zn75 O76 2.028 . S
Zn75 O78 2.028 . S
Zn75 O81 2.035 . S
O76 Zn75 2.028 . S
O76 C82 1.247 . S
O77 Zn73 2.035 . S
O77 C82 1.258 . S
O78 C71 1.247 . S
O78 Zn75 2.028 . S
O79 C71 1.258 . S
O79 Zn73 2.035 . S
O80 Zn73 2.028 . S
O80 C83 1.247 . S
O81 Zn75 2.035 . S
O81 C83 1.258 . S
C82 O76 1.247 . S
C82 O77 1.258 . S
C83 O80 1.247 . S
C83 O81 1.258 . S
H84 O110 0.856 . S
H85 O113 0.854 . S
H86 C121 0.930 . S
H87 C122 0.930 . S
H88 C124 0.930 . S
H89 C125 0.930 . S
H90 C127 0.931 . S
H91 C128 0.930 . S
H92 C130 0.930 . S
H93 C131 0.929 . S
H94 C133 0.930 . S
H95 C134 0.931 . S
H96 C136 0.930 . S
H97 C137 0.929 . S
H98 C139 0.931 . S
H99 C140 0.930 . S
H100 C142 0.930 . S
H101 C143 0.932 . S
H102 C145 0.930 . S
H103 C146 0.929 . S
H104 C148 0.931 . S
H105 C149 0.930 . S
H106 C151 0.929 . S
H107 C152 0.931 . S
H108 C154 0.930 . S
H109 C155 0.929 . S
O110 H84 0.856 . S
O110 C156 1.300 . S
O111 C156 1.209 . S
O112 C157 1.199 . S
O113 H85 0.854 . S
O113 C157 1.297 . S
C114 C115 1.404 . S
C114 C119 1.397 . S
C114 C120 1.492 . S
C115 C114 1.404 . S
C115 C116 1.396 . S
C115 C126 1.492 . S
C116 C115 1.396 . S
C116 C117 1.397 . S
C116 C132 1.509 . S
C117 C116 1.397 . S
C117 C118 1.412 . S
C117 C138 1.485 . S
C118 C117 1.412 . S
C118 C119 1.388 . S
C118 C144 1.490 . S
C119 C114 1.397 . S
C119 C118 1.388 . S
C119 C150 1.519 . S
C120 C114 1.492 . S
C120 C121 1.363 . S
C120 C125 1.390 . S
C121 H86 0.930 . S
C121 C120 1.363 . S
C121 C122 1.372 . S
C122 H87 0.930 . S
C122 C121 1.372 . S
C122 C123 1.383 . S
C123 C122 1.383 . S
C123 C124 1.395 . S
C124 H88 0.930 . S
C124 C123 1.395 . S
C124 C125 1.362 . S
C125 H89 0.930 . S
C125 C120 1.390 . S
C125 C124 1.362 . S
C126 C115 1.492 . S
C126 C127 1.377 . S
C126 C131 1.397 . S
C127 H90 0.931 . S
C127 C126 1.377 . S
C127 C128 1.376 . S
C128 H91 0.930 . S
C128 C127 1.376 . S
C128 C129 1.376 . S
C129 C128 1.376 . S
C129 C130 1.378 . S
C129 C156 1.486 . S
C130 H92 0.930 . S
C130 C129 1.378 . S
C130 C131 1.376 . S
C131 H93 0.929 . S
C131 C126 1.397 . S
C131 C130 1.376 . S
C132 C116 1.509 . S
C132 C133 1.391 . S
C132 C137 1.386 . S
C133 H94 0.930 . S
C133 C132 1.391 . S
C133 C134 1.375 . S
C134 H95 0.931 . S
C134 C133 1.375 . S
C134 C135 1.375 . S
C135 C134 1.375 . S
C135 C136 1.361 . S
C136 H96 0.930 . S
C136 C135 1.361 . S
C136 C137 1.399 . S
C137 H97 0.929 . S
C137 C132 1.386 . S
C137 C136 1.399 . S
C138 C117 1.485 . S
C138 C139 1.394 . S
C138 C143 1.360 . S
C139 H98 0.931 . S
C139 C138 1.394 . S
C139 C140 1.372 . S
C140 H99 0.930 . S
C140 C139 1.372 . S
C140 C141 1.397 . S
C141 C140 1.397 . S
C141 C142 1.390 . S
C141 C157 1.476 . S
C142 H100 0.930 . S
C142 C141 1.390 . S
C142 C143 1.366 . S
C143 H101 0.932 . S
C143 C138 1.360 . S
C143 C142 1.366 . S
C144 C118 1.490 . S
C144 C145 1.380 . S
C144 C149 1.386 . S
C145 H102 0.930 . S
C145 C144 1.380 . S
C145 C146 1.381 . S
C146 H103 0.929 . S
C146 C145 1.381 . S
C146 C147 1.371 . S
C147 C146 1.371 . S
C147 C148 1.380 . S
C148 H104 0.931 . S
C148 C147 1.380 . S
C148 C149 1.387 . S
C149 H105 0.930 . S
C149 C144 1.386 . S
C149 C148 1.387 . S
C150 C119 1.519 . S
C150 C151 1.377 . S
C150 C155 1.361 . S
C151 H106 0.929 . S
C151 C150 1.377 . S
C151 C152 1.386 . S
C152 H107 0.931 . S
C152 C151 1.386 . S
C152 C153 1.363 . S
C153 C152 1.363 . S
C153 C154 1.385 . S
C154 H108 0.930 . S
C154 C153 1.385 . S
C154 C155 1.396 . S
C155 H109 0.929 . S
C155 C150 1.361 . S
C155 C154 1.396 . S
C156 O110 1.300 . S
C156 O111 1.209 . S
C156 C129 1.486 . S
C157 O112 1.199 . S
C157 O113 1.297 . S
C157 C141 1.476 . S
H158 O184 0.856 1_554 S
H159 O187 0.854 1_565 S
H160 C195 0.930 . S
H161 C196 0.930 . S
H162 C198 0.930 1_455 S
H163 C199 0.930 . S
H164 C201 0.931 . S
H165 C202 0.930 . S
H166 C204 0.930 . S
H167 C205 0.929 . S
H168 C207 0.930 . S
H169 C208 0.931 . S
H170 C210 0.930 . S
H171 C211 0.929 . S
H172 C213 0.931 . S
H173 C214 0.930 . S
H174 C216 0.930 . S
H175 C217 0.932 . S
H176 C219 0.930 . S
H177 C220 0.929 . S
H178 C222 0.931 . S
H179 C223 0.930 . S
H180 C225 0.929 . S
H181 C226 0.931 . S
H182 C228 0.930 . S
H183 C229 0.929 . S
O184 H158 0.856 1_556 S
O184 C230 1.300 . S
O185 C230 1.209 . S
O186 C231 1.199 . S
O187 H159 0.854 1_545 S
O187 C231 1.297 . S
C188 C189 1.404 . S
C188 C193 1.397 . S
C188 C194 1.492 . S
C189 C188 1.404 . S
C189 C190 1.396 . S
C189 C200 1.492 . S
C190 C189 1.396 . S
C190 C191 1.397 . S
C190 C206 1.509 . S
C191 C190 1.397 . S
C191 C192 1.412 . S
C191 C212 1.485 . S
C192 C191 1.412 . S
C192 C193 1.388 . S
C192 C218 1.490 . S
C193 C188 1.397 . S
C193 C192 1.388 . S
C193 C224 1.519 . S
C194 C188 1.492 . S
C194 C195 1.363 . S
C194 C199 1.390 . S
C195 H160 0.930 . S
C195 C194 1.363 . S
C195 C196 1.372 . S
C196 H161 0.930 . S
C196 C195 1.372 . S
C196 C197 1.383 . S
C197 C196 1.383 . S
C197 C198 1.395 . S
C198 H162 0.930 1_655 S
C198 C197 1.395 . S
C198 C199 1.362 . S
C199 H163 0.930 . S
C199 C194 1.390 . S
C199 C198 1.362 . S
C200 C189 1.492 . S
C200 C201 1.377 . S
C200 C205 1.397 . S
C201 H164 0.931 . S
C201 C200 1.377 . S
C201 C202 1.376 . S
C202 H165 0.930 . S
C202 C201 1.376 . S
C202 C203 1.376 . S
C203 C202 1.376 . S
C203 C204 1.378 . S
C203 C230 1.486 . S
C204 H166 0.930 . S
C204 C203 1.378 . S
C204 C205 1.376 . S
C205 H167 0.929 . S
C205 C200 1.397 . S
C205 C204 1.376 . S
C206 C190 1.509 . S
C206 C207 1.391 . S
C206 C211 1.386 . S
C207 H168 0.930 . S
C207 C206 1.391 . S
C207 C208 1.375 . S
C208 H169 0.931 . S
C208 C207 1.375 . S
C208 C209 1.375 . S
C209 C208 1.375 . S
C209 C210 1.361 . S
C210 H170 0.930 . S
C210 C209 1.361 . S
C210 C211 1.399 . S
C211 H171 0.929 . S
C211 C206 1.386 . S
C211 C210 1.399 . S
C212 C191 1.485 . S
C212 C213 1.394 . S
C212 C217 1.360 . S
C213 H172 0.931 . S
C213 C212 1.394 . S
C213 C214 1.372 . S
C214 H173 0.930 . S
C214 C213 1.372 . S
C214 C215 1.397 . S
C215 C214 1.397 . S
C215 C216 1.390 . S
C215 C231 1.476 . S
C216 H174 0.930 . S
C216 C215 1.390 . S
C216 C217 1.366 . S
C217 H175 0.932 . S
C217 C212 1.360 . S
C217 C216 1.366 . S
C218 C192 1.490 . S
C218 C219 1.380 . S
C218 C223 1.386 . S
C219 H176 0.930 . S
C219 C218 1.380 . S
C219 C220 1.381 . S
C220 H177 0.929 . S
C220 C219 1.381 . S
C220 C221 1.371 . S
C221 C220 1.371 . S
C221 C222 1.380 . S
C222 H178 0.931 . S
C222 C221 1.380 . S
C222 C223 1.387 . S
C223 H179 0.930 . S
C223 C218 1.386 . S
C223 C222 1.387 . S
C224 C193 1.519 . S
C224 C225 1.377 . S
C224 C229 1.361 . S
C225 H180 0.929 . S
C225 C224 1.377 . S
C225 C226 1.386 . S
C226 H181 0.931 . S
C226 C225 1.386 . S
C226 C227 1.363 . S
C227 C226 1.363 . S
C227 C228 1.385 . S
C228 H182 0.930 . S
C228 C227 1.385 . S
C228 C229 1.396 . S
C229 H183 0.929 . S
C229 C224 1.361 . S
C229 C228 1.396 . S
C230 O184 1.300 . S
C230 O185 1.209 . S
C230 C203 1.486 . S
C231 O186 1.199 . S
C231 O187 1.297 . S
C231 C215 1.476 . S
H232 O258 0.856 . S
H233 O261 0.854 . S
H234 C269 0.930 . S
H235 C270 0.930 . S
H236 C272 0.930 . S
H237 C273 0.930 . S
H238 C275 0.931 . S
H239 C276 0.930 . S
H240 C278 0.930 . S
H241 C279 0.929 . S
H242 C281 0.930 . S
H243 C282 0.931 . S
H244 C284 0.930 . S
H245 C285 0.929 . S
H246 C287 0.931 . S
H247 C288 0.930 . S
H248 C290 0.930 . S
H249 C291 0.932 . S
H250 C293 0.930 . S
H251 C294 0.929 . S
H252 C296 0.931 . S
H253 C297 0.930 . S
H254 C299 0.929 . S
H255 C300 0.931 . S
H256 C302 0.930 . S
H257 C303 0.929 . S
O258 H232 0.856 . S
O258 C304 1.300 . S
O259 C304 1.209 . S
O260 C305 1.199 . S
O261 H233 0.854 . S
O261 C305 1.297 1_545 S
C262 C263 1.404 . S
C262 C267 1.397 . S
C262 C268 1.492 . S
C263 C262 1.404 . S
C263 C264 1.396 . S
C263 C274 1.492 . S
C264 C263 1.396 . S
C264 C265 1.397 . S
C264 C280 1.509 . S
C265 C264 1.397 . S
C265 C266 1.412 . S
C265 C286 1.485 . S
C266 C265 1.412 . S
C266 C267 1.388 . S
C266 C292 1.490 . S
C267 C262 1.397 . S
C267 C266 1.388 . S
C267 C298 1.519 . S
C268 C262 1.492 . S
C268 C269 1.363 . S
C268 C273 1.390 . S
C269 H234 0.930 . S
C269 C268 1.363 . S
C269 C270 1.372 . S
C270 H235 0.930 . S
C270 C269 1.372 . S
C270 C271 1.383 . S
C271 C270 1.383 . S
C271 C272 1.395 . S
C272 H236 0.930 . S
C272 C271 1.395 . S
C272 C273 1.362 . S
C273 H237 0.930 . S
C273 C268 1.390 . S
C273 C272 1.362 . S
C274 C263 1.492 . S
C274 C275 1.377 . S
C274 C279 1.397 . S
C275 H238 0.931 . S
C275 C274 1.377 . S
C275 C276 1.376 . S
C276 H239 0.930 . S
C276 C275 1.376 . S
C276 C277 1.376 . S
C277 C276 1.376 . S
C277 C278 1.378 . S
C277 C304 1.486 . S
C278 H240 0.930 . S
C278 C277 1.378 . S
C278 C279 1.376 . S
C279 H241 0.929 . S
C279 C274 1.397 . S
C279 C278 1.376 . S
C280 C264 1.509 . S
C280 C281 1.391 . S
C280 C285 1.386 . S
C281 H242 0.930 . S
C281 C280 1.391 . S
C281 C282 1.375 . S
C282 H243 0.931 . S
C282 C281 1.375 . S
C282 C283 1.375 . S
C283 C282 1.375 . S
C283 C284 1.361 . S
C284 H244 0.930 . S
C284 C283 1.361 . S
C284 C285 1.399 . S
C285 H245 0.929 . S
C285 C280 1.386 . S
C285 C284 1.399 . S
C286 C265 1.485 . S
C286 C287 1.394 . S
C286 C291 1.360 . S
C287 H246 0.931 . S
C287 C286 1.394 . S
C287 C288 1.372 . S
C288 H247 0.930 . S
C288 C287 1.372 . S
C288 C289 1.397 . S
C289 C288 1.397 . S
C289 C290 1.390 . S
C289 C305 1.476 . S
C290 H248 0.930 . S
C290 C289 1.390 . S
C290 C291 1.366 . S
C291 H249 0.932 . S
C291 C286 1.360 . S
C291 C290 1.366 . S
C292 C266 1.490 . S
C292 C293 1.380 . S
C292 C297 1.386 . S
C293 H250 0.930 . S
C293 C292 1.380 . S
C293 C294 1.381 . S
C294 H251 0.929 . S
C294 C293 1.381 . S
C294 C295 1.371 . S
C295 C294 1.371 . S
C295 C296 1.380 . S
C296 H252 0.931 . S
C296 C295 1.380 . S
C296 C297 1.387 . S
C297 H253 0.930 . S
C297 C292 1.386 . S
C297 C296 1.387 . S
C298 C267 1.519 . S
C298 C299 1.377 . S
C298 C303 1.361 . S
C299 H254 0.929 . S
C299 C298 1.377 . S
C299 C300 1.386 . S
C300 H255 0.931 . S
C300 C299 1.386 . S
C300 C301 1.363 . S
C301 C300 1.363 . S
C301 C302 1.385 . S
C302 H256 0.930 . S
C302 C301 1.385 . S
C302 C303 1.396 . S
C303 H257 0.929 . S
C303 C298 1.361 . S
C303 C302 1.396 . S
C304 O258 1.300 . S
C304 O259 1.209 . S
C304 C277 1.486 . S
C305 O260 1.199 . S
C305 O261 1.297 1_565 S
C305 C289 1.476 . S
H306 O332 0.856 . S
H307 O335 0.854 . S
H308 C343 0.930 . S
H309 C344 0.930 . S
H310 C346 0.930 . S
H311 C347 0.930 . S
H312 C349 0.931 . S
H313 C350 0.930 . S
H314 C352 0.930 . S
H315 C353 0.929 . S
H316 C355 0.930 . S
H317 C356 0.931 . S
H318 C358 0.930 . S
H319 C359 0.929 . S
H320 C361 0.931 . S
H321 C362 0.930 . S
H322 C364 0.930 . S
H323 C365 0.932 . S
H324 C367 0.930 . S
H325 C368 0.929 . S
H326 C370 0.931 . S
H327 C371 0.930 . S
H328 C373 0.929 . S
H329 C374 0.931 . S
H330 C376 0.930 . S
H331 C377 0.929 . S
O332 H306 0.856 . S
O332 C378 1.300 . S
O333 C378 1.209 . S
O334 C379 1.199 . S
O335 H307 0.854 . S
O335 C379 1.297 . S
C336 C337 1.404 . S
C336 C341 1.397 . S
C336 C342 1.492 . S
C337 C336 1.404 . S
C337 C338 1.396 . S
C337 C348 1.492 . S
C338 C337 1.396 . S
C338 C339 1.397 . S
C338 C354 1.509 . S
C339 C338 1.397 . S
C339 C340 1.412 . S
C339 C360 1.485 . S
C340 C339 1.412 . S
C340 C341 1.388 . S
C340 C366 1.490 . S
C341 C336 1.397 . S
C341 C340 1.388 . S
C341 C372 1.519 . S
C342 C336 1.492 . S
C342 C343 1.363 . S
C342 C347 1.390 . S
C343 H308 0.930 . S
C343 C342 1.363 . S
C343 C344 1.372 . S
C344 H309 0.930 . S
C344 C343 1.372 . S
C344 C345 1.383 . S
C345 C344 1.383 . S
C345 C346 1.395 . S
C346 H310 0.930 . S
C346 C345 1.395 . S
C346 C347 1.362 . S
C347 H311 0.930 . S
C347 C342 1.390 . S
C347 C346 1.362 . S
C348 C337 1.492 . S
C348 C349 1.377 . S
C348 C353 1.397 . S
C349 H312 0.931 . S
C349 C348 1.377 . S
C349 C350 1.376 . S
C350 H313 0.930 . S
C350 C349 1.376 . S
C350 C351 1.376 . S
C351 C350 1.376 . S
C351 C352 1.378 . S
C351 C378 1.486 . S
C352 H314 0.930 . S
C352 C351 1.378 . S
C352 C353 1.376 . S
C353 H315 0.929 . S
C353 C348 1.397 . S
C353 C352 1.376 . S
C354 C338 1.509 . S
C354 C355 1.391 . S
C354 C359 1.386 . S
C355 H316 0.930 . S
C355 C354 1.391 . S
C355 C356 1.375 . S
C356 H317 0.931 . S
C356 C355 1.375 . S
C356 C357 1.375 . S
C357 C356 1.375 . S
C357 C358 1.361 . S
C358 H318 0.930 . S
C358 C357 1.361 . S
C358 C359 1.399 . S
C359 H319 0.929 . S
C359 C354 1.386 . S
C359 C358 1.399 . S
C360 C339 1.485 . S
C360 C361 1.394 . S
C360 C365 1.360 . S
C361 H320 0.931 . S
C361 C360 1.394 . S
C361 C362 1.372 1_655 S
C362 H321 0.930 . S
C362 C361 1.372 1_455 S
C362 C363 1.397 . S
C363 C362 1.397 . S
C363 C364 1.390 1_455 S
C363 C379 1.476 . S
C364 H322 0.930 . S
C364 C363 1.390 1_655 S
C364 C365 1.366 . S
C365 H323 0.932 . S
C365 C360 1.360 . S
C365 C364 1.366 . S
C366 C340 1.490 . S
C366 C367 1.380 . S
C366 C371 1.386 . S
C367 H324 0.930 . S
C367 C366 1.380 . S
C367 C368 1.381 . S
C368 H325 0.929 . S
C368 C367 1.381 . S
C368 C369 1.371 . S
C369 C368 1.371 . S
C369 C370 1.380 . S
C370 H326 0.931 . S
C370 C369 1.380 . S
C370 C371 1.387 . S
C371 H327 0.930 . S
C371 C366 1.386 . S
C371 C370 1.387 . S
C372 C341 1.519 . S
C372 C373 1.377 . S
C372 C377 1.361 . S
C373 H328 0.929 . S
C373 C372 1.377 . S
C373 C374 1.386 . S
C374 H329 0.931 . S
C374 C373 1.386 . S
C374 C375 1.363 . S
C375 C374 1.363 . S
C375 C376 1.385 . S
C376 H330 0.930 . S
C376 C375 1.385 . S
C376 C377 1.396 . S
C377 H331 0.929 . S
C377 C372 1.361 . S
C377 C376 1.396 . S
C378 O332 1.300 . S
C378 O333 1.209 . S
C378 C351 1.486 . S
C379 O334 1.199 . S
C379 O335 1.297 . S
C379 C363 1.476 . S
H380 O406 0.856 . S
H381 O409 0.854 . S
H382 C417 0.930 . S
H383 C418 0.930 . S
H384 C420 0.930 . S
H385 C421 0.930 . S
H386 C423 0.931 . S
H387 C424 0.930 . S
H388 C426 0.930 . S
H389 C427 0.929 . S
H390 C429 0.930 . S
H391 C430 0.931 . S
H392 C432 0.930 . S
H393 C433 0.929 . S
H394 C435 0.931 . S
H395 C436 0.930 . S
H396 C438 0.930 . S
H397 C439 0.932 . S
H398 C441 0.930 . S
H399 C442 0.929 . S
H400 C444 0.931 . S
H401 C445 0.930 . S
H402 C447 0.929 . S
H403 C448 0.931 . S
H404 C450 0.930 . S
H405 C451 0.929 . S
O406 H380 0.856 . S
O406 C452 1.300 . S
O407 C452 1.209 . S
O408 C453 1.199 . S
O409 H381 0.854 . S
O409 C453 1.297 . S
C410 C411 1.404 . S
C410 C415 1.397 . S
C410 C416 1.492 . S
C411 C410 1.404 . S
C411 C412 1.396 . S
C411 C422 1.492 . S
C412 C411 1.396 . S
C412 C413 1.397 . S
C412 C428 1.509 . S
C413 C412 1.397 . S
C413 C414 1.412 . S
C413 C434 1.485 . S
C414 C413 1.412 . S
C414 C415 1.388 . S
C414 C440 1.490 . S
C415 C410 1.397 . S
C415 C414 1.388 . S
C415 C446 1.519 . S
C416 C410 1.492 . S
C416 C417 1.363 . S
C416 C421 1.390 . S
C417 H382 0.930 . S
C417 C416 1.363 . S
C417 C418 1.372 . S
C418 H383 0.930 . S
C418 C417 1.372 . S
C418 C419 1.383 . S
C419 C418 1.383 . S
C419 C420 1.395 . S
C420 H384 0.930 . S
C420 C419 1.395 . S
C420 C421 1.362 . S
C421 H385 0.930 . S
C421 C416 1.390 . S
C421 C420 1.362 . S
C422 C411 1.492 . S
C422 C423 1.377 . S
C422 C427 1.397 . S
C423 H386 0.931 . S
C423 C422 1.377 . S
C423 C424 1.376 . S
C424 H387 0.930 . S
C424 C423 1.376 . S
C424 C425 1.376 . S
C425 C424 1.376 . S
C425 C426 1.378 . S
C425 C452 1.486 . S
C426 H388 0.930 . S
C426 C425 1.378 . S
C426 C427 1.376 . S
C427 H389 0.929 . S
C427 C422 1.397 . S
C427 C426 1.376 . S
C428 C412 1.509 . S
C428 C429 1.391 . S
C428 C433 1.386 . S
C429 H390 0.930 . S
C429 C428 1.391 . S
C429 C430 1.375 . S
C430 H391 0.931 . S
C430 C429 1.375 . S
C430 C431 1.375 . S
C431 C430 1.375 . S
C431 C432 1.361 . S
C432 H392 0.930 . S
C432 C431 1.361 . S
C432 C433 1.399 . S
C433 H393 0.929 . S
C433 C428 1.386 . S
C433 C432 1.399 . S
C434 C413 1.485 . S
C434 C435 1.394 . S
C434 C439 1.360 . S
C435 H394 0.931 . S
C435 C434 1.394 . S
C435 C436 1.372 . S
C436 H395 0.930 . S
C436 C435 1.372 . S
C436 C437 1.397 . S
C437 C436 1.397 . S
C437 C438 1.390 . S
C437 C453 1.476 . S
C438 H396 0.930 . S
C438 C437 1.390 . S
C438 C439 1.366 . S
C439 H397 0.932 . S
C439 C434 1.360 . S
C439 C438 1.366 . S
C440 C414 1.490 . S
C440 C441 1.380 . S
C440 C445 1.386 . S
C441 H398 0.930 . S
C441 C440 1.380 . S
C441 C442 1.381 . S
C442 H399 0.929 . S
C442 C441 1.381 . S
C442 C443 1.371 . S
C443 C442 1.371 . S
C443 C444 1.380 . S
C444 H400 0.931 . S
C444 C443 1.380 . S
C444 C445 1.387 . S
C445 H401 0.930 . S
C445 C440 1.386 . S
C445 C444 1.387 . S
C446 C415 1.519 . S
C446 C447 1.377 . S
C446 C451 1.361 . S
C447 H402 0.929 . S
C447 C446 1.377 . S
C447 C448 1.386 . S
C448 H403 0.931 . S
C448 C447 1.386 . S
C448 C449 1.363 . S
C449 C448 1.363 . S
C449 C450 1.385 . S
C450 H404 0.930 . S
C450 C449 1.385 . S
C450 C451 1.396 . S
C451 H405 0.929 . S
C451 C446 1.361 . S
C451 C450 1.396 . S
C452 O406 1.300 . S
C452 O407 1.209 . S
C452 C425 1.486 . S
C453 O408 1.199 . S
C453 O409 1.297 . S
C453 C437 1.476 . S
H454 O480 0.856 . S
H455 O483 0.854 1_565 S
H456 C491 0.930 . S
H457 C492 0.930 . S
H458 C494 0.930 . S
H459 C495 0.930 . S
H460 C497 0.931 . S
H461 C498 0.930 . S
H462 C500 0.930 . S
H463 C501 0.929 . S
H464 C503 0.930 . S
H465 C504 0.931 . S
H466 C506 0.930 . S
H467 C507 0.929 . S
H468 C509 0.931 . S
H469 C510 0.930 . S
H470 C512 0.930 . S
H471 C513 0.932 . S
H472 C515 0.930 . S
H473 C516 0.929 . S
H474 C518 0.931 . S
H475 C519 0.930 . S
H476 C521 0.929 . S
H477 C522 0.931 . S
H478 C524 0.930 . S
H479 C525 0.929 . S
O480 H454 0.856 . S
O480 C526 1.300 . S
O481 C526 1.209 . S
O482 C527 1.199 . S
O483 H455 0.854 1_545 S
O483 C527 1.297 . S
C484 C485 1.404 . S
C484 C489 1.397 . S
C484 C490 1.492 . S
C485 C484 1.404 . S
C485 C486 1.396 . S
C485 C496 1.492 . S
C486 C485 1.396 . S
C486 C487 1.397 . S
C486 C502 1.509 . S
C487 C486 1.397 . S
C487 C488 1.412 . S
C487 C508 1.485 . S
C488 C487 1.412 . S
C488 C489 1.388 . S
C488 C514 1.490 . S
C489 C484 1.397 . S
C489 C488 1.388 . S
C489 C520 1.519 . S
C490 C484 1.492 . S
C490 C491 1.363 . S
C490 C495 1.390 . S
C491 H456 0.930 . S
C491 C490 1.363 . S
C491 C492 1.372 . S
C492 H457 0.930 . S
C492 C491 1.372 . S
C492 C493 1.383 . S
C493 C492 1.383 . S
C493 C494 1.395 . S
C494 H458 0.930 . S
C494 C493 1.395 . S
C494 C495 1.362 . S
C495 H459 0.930 . S
C495 C490 1.390 . S
C495 C494 1.362 . S
C496 C485 1.492 . S
C496 C497 1.377 . S
C496 C501 1.397 . S
C497 H460 0.931 . S
C497 C496 1.377 . S
C497 C498 1.376 . S
C498 H461 0.930 . S
C498 C497 1.376 . S
C498 C499 1.376 . S
C499 C498 1.376 . S
C499 C500 1.378 . S
C499 C526 1.486 . S
C500 H462 0.930 . S
C500 C499 1.378 . S
C500 C501 1.376 . S
C501 H463 0.929 . S
C501 C496 1.397 . S
C501 C500 1.376 . S
C502 C486 1.509 . S
C502 C503 1.391 . S
C502 C507 1.386 . S
C503 H464 0.930 . S
C503 C502 1.391 . S
C503 C504 1.375 . S
C504 H465 0.931 . S
C504 C503 1.375 . S
C504 C505 1.375 . S
C505 C504 1.375 . S
C505 C506 1.361 . S
C506 H466 0.930 . S
C506 C505 1.361 . S
C506 C507 1.399 . S
C507 H467 0.929 . S
C507 C502 1.386 . S
C507 C506 1.399 . S
C508 C487 1.485 . S
C508 C509 1.394 . S
C508 C513 1.360 . S
C509 H468 0.931 . S
C509 C508 1.394 . S
C509 C510 1.372 . S
C510 H469 0.930 . S
C510 C509 1.372 . S
C510 C511 1.397 . S
C511 C510 1.397 . S
C511 C512 1.390 . S
C511 C527 1.476 . S
C512 H470 0.930 . S
C512 C511 1.390 . S
C512 C513 1.366 . S
C513 H471 0.932 . S
C513 C508 1.360 . S
C513 C512 1.366 . S
C514 C488 1.490 . S
C514 C515 1.380 . S
C514 C519 1.386 . S
C515 H472 0.930 . S
C515 C514 1.380 . S
C515 C516 1.381 . S
C516 H473 0.929 . S
C516 C515 1.381 . S
C516 C517 1.371 . S
C517 C516 1.371 . S
C517 C518 1.380 . S
C518 H474 0.931 . S
C518 C517 1.380 . S
C518 C519 1.387 . S
C519 H475 0.930 . S
C519 C514 1.386 . S
C519 C518 1.387 . S
C520 C489 1.519 . S
C520 C521 1.377 . S
C520 C525 1.361 . S
C521 H476 0.929 . S
C521 C520 1.377 . S
C521 C522 1.386 . S
C522 H477 0.931 . S
C522 C521 1.386 . S
C522 C523 1.363 . S
C523 C522 1.363 . S
C523 C524 1.385 . S
C524 H478 0.930 . S
C524 C523 1.385 . S
C524 C525 1.396 . S
C525 H479 0.929 . S
C525 C520 1.361 . S
C525 C524 1.396 . S
C526 O480 1.300 . S
C526 O481 1.209 . S
C526 C499 1.486 . S
C527 O482 1.199 . S
C527 O483 1.297 . S
C527 C511 1.476 . S
H528 C540 0.930 . S
H529 C542 0.930 . S
H530 C543 0.930 . S
H531 C547 0.959 . S
H532 C547 0.959 . S
H533 C547 0.961 . S
H534 C548 0.960 . S
H535 C548 0.961 . S
H536 C548 0.959 . S
H537 C551 0.929 . S
H538 C552 0.931 . S
H539 C554 0.930 . S
C540 H528 0.930 . S
C540 C541 1.399 . S
C540 C545 1.399 . S
C541 C540 1.399 . S
C541 C542 1.376 . S
C542 H529 0.930 . S
C542 C541 1.376 . S
C542 C543 1.388 . S
C543 H530 0.930 . S
C543 C542 1.388 . S
C543 C544 1.390 . S
C544 C543 1.390 . S
C544 C545 1.394 . S
C544 C550 1.465 . S
C545 C540 1.399 . S
C545 C544 1.394 . S
C545 C546 1.516 . S
C546 C545 1.516 . S
C546 C547 1.502 . S
C546 C548 1.561 . S
C546 C549 1.526 . S
C547 H531 0.959 . S
C547 H532 0.959 . S
C547 H533 0.961 . S
C547 C546 1.502 . S
C548 H534 0.960 . S
C548 H535 0.961 . S
C548 H536 0.959 . S
C548 C546 1.561 . S
C549 C546 1.526 . S
C549 C550 1.396 . S
C549 C554 1.390 . S
C550 C544 1.465 . S
C550 C549 1.396 . S
C550 C551 1.399 . S
C551 H537 0.929 . S
C551 C550 1.399 . S
C551 C552 1.385 . S
C552 H538 0.931 . S
C552 C551 1.385 . S
C552 C553 1.389 . S
C553 C552 1.389 . S
C553 C554 1.387 . S
C554 H539 0.930 . S
C554 C549 1.390 . S
C554 C553 1.387 . S
H555 C567 0.930 . S
H556 C569 0.930 . S
H557 C570 0.930 . S
H558 C574 0.959 . S
H559 C574 0.959 . S
H560 C574 0.961 . S
H561 C575 0.960 . S
H562 C575 0.961 . S
H563 C575 0.959 . S
H564 C578 0.929 . S
H565 C579 0.931 . S
H566 C581 0.930 . S
C567 H555 0.930 . S
C567 C568 1.399 . S
C567 C572 1.399 . S
C568 C567 1.399 . S
C568 C569 1.376 . S
C569 H556 0.930 . S
C569 C568 1.376 . S
C569 C570 1.388 . S
C570 H557 0.930 . S
C570 C569 1.388 . S
C570 C571 1.390 . S
C571 C570 1.390 . S
C571 C572 1.394 . S
C571 C577 1.465 . S
C572 C567 1.399 . S
C572 C571 1.394 . S
C572 C573 1.516 . S
C573 C572 1.516 . S
C573 C574 1.502 . S
C573 C575 1.561 . S
C573 C576 1.526 . S
C574 H558 0.959 . S
C574 H559 0.959 . S
C574 H560 0.961 . S
C574 C573 1.502 . S
C575 H561 0.960 . S
C575 H562 0.961 . S
C575 H563 0.959 . S
C575 C573 1.561 . S
C576 C573 1.526 . S
C576 C577 1.396 . S
C576 C581 1.390 . S
C577 C571 1.465 . S
C577 C576 1.396 . S
C577 C578 1.399 . S
C578 H564 0.929 . S
C578 C577 1.399 . S
C578 C579 1.385 . S
C579 H565 0.931 . S
C579 C578 1.385 . S
C579 C580 1.389 . S
C580 C579 1.389 . S
C580 C581 1.387 . S
C581 H566 0.930 . S
C581 C576 1.390 . S
C581 C580 1.387 . S
H582 C594 0.930 . S
H583 C596 0.930 . S
H584 C597 0.930 . S
H585 C601 0.959 . S
H586 C601 0.959 . S
H587 C601 0.961 . S
H588 C602 0.960 . S
H589 C602 0.961 . S
H590 C602 0.959 . S
H591 C605 0.929 . S
H592 C606 0.931 . S
H593 C608 0.930 . S
C594 H582 0.930 . S
C594 C595 1.399 . S
C594 C599 1.399 . S
C595 C594 1.399 . S
C595 C596 1.376 . S
C596 H583 0.930 . S
C596 C595 1.376 . S
C596 C597 1.388 . S
C597 H584 0.930 . S
C597 C596 1.388 . S
C597 C598 1.390 . S
C598 C597 1.390 . S
C598 C599 1.394 . S
C598 C604 1.465 . S
C599 C594 1.399 . S
C599 C598 1.394 . S
C599 C600 1.516 . S
C600 C599 1.516 . S
C600 C601 1.502 . S
C600 C602 1.561 . S
C600 C603 1.526 . S
C601 H585 0.959 . S
C601 H586 0.959 . S
C601 H587 0.961 . S
C601 C600 1.502 . S
C602 H588 0.960 . S
C602 H589 0.961 . S
C602 H590 0.959 . S
C602 C600 1.561 . S
C603 C600 1.526 . S
C603 C604 1.396 . S
C603 C608 1.390 . S
C604 C598 1.465 . S
C604 C603 1.396 . S
C604 C605 1.399 . S
C605 H591 0.929 . S
C605 C604 1.399 . S
C605 C606 1.385 . S
C606 H592 0.931 . S
C606 C605 1.385 . S
C606 C607 1.389 . S
C607 C606 1.389 . S
C607 C608 1.387 . S
C608 H593 0.930 . S
C608 C603 1.390 . S
C608 C607 1.387 . S
H609 C621 0.930 1_455 S
H610 C623 0.930 . S
H611 C624 0.930 . S
H612 C628 0.959 1_655 S
H613 C628 0.959 . S
H614 C628 0.961 . S
H615 C629 0.960 . S
H616 C629 0.961 . S
H617 C629 0.959 . S
H618 C632 0.929 . S
H619 C633 0.931 . S
H620 C635 0.930 1_455 S
C621 H609 0.930 1_655 S
C621 C622 1.399 . S
C621 C626 1.399 . S
C622 C621 1.399 . S
C622 C623 1.376 . S
C623 H610 0.930 . S
C623 C622 1.376 . S
C623 C624 1.388 . S
C624 H611 0.930 . S
C624 C623 1.388 . S
C624 C625 1.390 . S
C625 C624 1.390 . S
C625 C626 1.394 . S
C625 C631 1.465 . S
C626 C621 1.399 . S
C626 C625 1.394 . S
C626 C627 1.516 1_655 S
C627 C626 1.516 1_455 S
C627 C628 1.502 . S
C627 C629 1.561 . S
C627 C630 1.526 1_455 S
C628 H612 0.959 1_455 S
C628 H613 0.959 . S
C628 H614 0.961 . S
C628 C627 1.502 . S
C629 H615 0.960 . S
C629 H616 0.961 . S
C629 H617 0.959 . S
C629 C627 1.561 . S
C630 C627 1.526 1_655 S
C630 C631 1.396 . S
C630 C635 1.390 . S
C631 C625 1.465 . S
C631 C630 1.396 . S
C631 C632 1.399 . S
C632 H618 0.929 . S
C632 C631 1.399 . S
C632 C633 1.385 . S
C633 H619 0.931 . S
C633 C632 1.385 . S
C633 C634 1.389 . S
C634 C633 1.389 . S
C634 C635 1.387 . S
C635 H620 0.930 1_655 S
C635 C630 1.390 . S
C635 C634 1.387 . S
H636 C648 0.930 . S
H637 C650 0.930 . S
H638 C651 0.930 . S
H639 C655 0.959 . S
H640 C655 0.959 . S
H641 C655 0.961 . S
H642 C656 0.960 . S
H643 C656 0.961 . S
H644 C656 0.959 . S
H645 C659 0.929 . S
H646 C660 0.931 . S
H647 C662 0.930 . S
C648 H636 0.930 . S
C648 C649 1.399 1_565 S
C648 C653 1.399 . S
C649 C648 1.399 1_545 S
C649 C650 1.376 . S
C650 H637 0.930 . S
C650 C649 1.376 . S
C650 C651 1.388 . S
C651 H638 0.930 . S
C651 C650 1.388 . S
C651 C652 1.390 1_545 S
C652 C651 1.390 1_565 S
C652 C653 1.394 . S
C652 C658 1.465 . S
C653 C648 1.399 . S
C653 C652 1.394 . S
C653 C654 1.516 . S
C654 C653 1.516 . S
C654 C655 1.502 . S
C654 C656 1.561 . S
C654 C657 1.526 . S
C655 H639 0.959 . S
C655 H640 0.959 . S
C655 H641 0.961 . S
C655 C654 1.502 . S
C656 H642 0.960 . S
C656 H643 0.961 . S
C656 H644 0.959 . S
C656 C654 1.561 . S
C657 C654 1.526 . S
C657 C658 1.396 . S
C657 C662 1.390 . S
C658 C652 1.465 . S
C658 C657 1.396 . S
C658 C659 1.399 . S
C659 H645 0.929 . S
C659 C658 1.399 . S
C659 C660 1.385 . S
C660 H646 0.931 . S
C660 C659 1.385 . S
C660 C661 1.389 . S
C661 C660 1.389 . S
C661 C662 1.387 . S
C662 H647 0.930 . S
C662 C657 1.390 . S
C662 C661 1.387 . S
H663 C675 0.930 . S
H664 C677 0.930 . S
H665 C678 0.930 . S
H666 C682 0.959 . S
H667 C682 0.959 . S
H668 C682 0.961 . S
H669 C683 0.960 . S
H670 C683 0.961 . S
H671 C683 0.959 . S
H672 C686 0.929 . S
H673 C687 0.931 . S
H674 C689 0.930 . S
C675 H663 0.930 . S
C675 C676 1.399 . S
C675 C680 1.399 . S
C676 C675 1.399 . S
C676 C677 1.376 . S
C677 H664 0.930 . S
C677 C676 1.376 . S
C677 C678 1.388 . S
C678 H665 0.930 . S
C678 C677 1.388 . S
C678 C679 1.390 . S
C679 C678 1.390 . S
C679 C680 1.394 . S
C679 C685 1.465 . S
C680 C675 1.399 . S
C680 C679 1.394 . S
C680 C681 1.516 . S
C681 C680 1.516 . S
C681 C682 1.502 . S
C681 C683 1.561 . S
C681 C684 1.526 . S
C682 H666 0.959 . S
C682 H667 0.959 . S
C682 H668 0.961 . S
C682 C681 1.502 . S
C683 H669 0.960 . S
C683 H670 0.961 . S
C683 H671 0.959 . S
C683 C681 1.561 . S
C684 C681 1.526 . S
C684 C685 1.396 . S
C684 C689 1.390 . S
C685 C679 1.465 . S
C685 C684 1.396 . S
C685 C686 1.399 . S
C686 H672 0.929 . S
C686 C685 1.399 . S
C686 C687 1.385 . S
C687 H673 0.931 . S
C687 C686 1.385 . S
C687 C688 1.389 . S
C688 C687 1.389 . S
C688 C689 1.387 . S
C689 H674 0.930 . S
C689 C684 1.390 . S
C689 C688 1.387 . S
H690 C702 0.930 . S
H691 C704 0.930 . S
H692 C705 0.930 . S
H693 C709 0.959 . S
H694 C709 0.959 . S
H695 C709 0.961 . S
H696 C710 0.960 . S
H697 C710 0.961 . S
H698 C710 0.959 . S
H699 C713 0.929 . S
H700 C714 0.931 . S
H701 C716 0.930 . S
C702 H690 0.930 . S
C702 C703 1.399 . S
C702 C707 1.399 . S
C703 C702 1.399 . S
C703 C704 1.376 . S
C704 H691 0.930 . S
C704 C703 1.376 . S
C704 C705 1.388 . S
C705 H692 0.930 . S
C705 C704 1.388 . S
C705 C706 1.390 . S
C706 C705 1.390 . S
C706 C707 1.394 . S
C706 C712 1.465 . S
C707 C702 1.399 . S
C707 C706 1.394 . S
C707 C708 1.516 . S
C708 C707 1.516 . S
C708 C709 1.502 . S
C708 C710 1.561 . S
C708 C711 1.526 . S
C709 H693 0.959 . S
C709 H694 0.959 . S
C709 H695 0.961 . S
C709 C708 1.502 . S
C710 H696 0.960 . S
C710 H697 0.961 . S
C710 H698 0.959 . S
C710 C708 1.561 . S
C711 C708 1.526 . S
C711 C712 1.396 . S
C711 C716 1.390 . S
C712 C706 1.465 . S
C712 C711 1.396 . S
C712 C713 1.399 . S
C713 H699 0.929 . S
C713 C712 1.399 . S
C713 C714 1.385 . S
C714 H700 0.931 . S
C714 C713 1.385 . S
C714 C715 1.389 . S
C715 C714 1.389 . S
C715 C716 1.387 . S
C716 H701 0.930 . S
C716 C711 1.390 . S
C716 C715 1.387 . S
H717 C729 0.930 1_556 S
H718 C731 0.930 . S
H719 C732 0.930 . S
H720 C736 0.959 . S
H721 C736 0.959 . S
H722 C736 0.961 . S
H723 C737 0.960 . S
H724 C737 0.961 . S
H725 C737 0.959 . S
H726 C740 0.929 . S
H727 C741 0.931 . S
H728 C743 0.930 . S
C729 H717 0.930 1_554 S
C729 C730 1.399 . S
C729 C734 1.399 1_554 S
C730 C729 1.399 . S
C730 C731 1.376 . S
C731 H718 0.930 . S
C731 C730 1.376 . S
C731 C732 1.388 . S
C732 H719 0.930 . S
C732 C731 1.388 . S
C732 C733 1.362 1_554 S
C733 C732 1.362 1_556 S
C733 C734 1.403 . S
C733 C739 1.489 . S
C734 C729 1.399 1_556 S
C734 C733 1.403 . S
C734 C735 1.516 . S
C735 C734 1.516 . S
C735 C736 1.502 . S
C735 C737 1.561 . S
C735 C738 1.526 . S
C736 H720 0.959 . S
C736 H721 0.959 . S
C736 H722 0.961 . S
C736 C735 1.502 . S
C737 H723 0.960 . S
C737 H724 0.961 . S
C737 H725 0.959 . S
C737 C735 1.561 . S
C738 C735 1.526 . S
C738 C739 1.396 . S
C738 C743 1.390 . S
C739 C733 1.489 . S
C739 C738 1.396 . S
C739 C740 1.399 . S
C740 H726 0.929 . S
C740 C739 1.399 . S
C740 C741 1.385 . S
C741 H727 0.931 . S
C741 C740 1.385 . S
C741 C742 1.389 . S
C742 C741 1.389 . S
C742 C743 1.387 . S
C743 H728 0.930 . S
C743 C738 1.390 . S
C743 C742 1.387 . S
H744 C756 0.930 . S
H745 C758 0.930 . S
H746 C759 0.930 . S
H747 C763 0.959 . S
H748 C763 0.959 . S
H749 C763 0.961 . S
H750 C764 0.960 . S
H751 C764 0.961 . S
H752 C764 0.959 . S
H753 C767 0.929 . S
H754 C768 0.931 . S
H755 C770 0.930 . S
C756 H744 0.930 . S
C756 C757 1.399 . S
C756 C761 1.399 . S
C757 C756 1.399 . S
C757 C758 1.376 . S
C758 H745 0.930 . S
C758 C757 1.376 . S
C758 C759 1.388 . S
C759 H746 0.930 . S
C759 C758 1.388 . S
C759 C760 1.390 . S
C760 C759 1.390 . S
C760 C761 1.394 . S
C760 C766 1.465 . S
C761 C756 1.399 . S
C761 C760 1.394 . S
C761 C762 1.516 . S
C762 C761 1.516 . S
C762 C763 1.502 . S
C762 C764 1.561 . S
C762 C765 1.526 . S
C763 H747 0.959 . S
C763 H748 0.959 . S
C763 H749 0.961 . S
C763 C762 1.502 . S
C764 H750 0.960 . S
C764 H751 0.961 . S
C764 H752 0.959 . S
C764 C762 1.561 . S
C765 C762 1.526 . S
C765 C766 1.396 . S
C765 C770 1.390 . S
C766 C760 1.465 . S
C766 C765 1.396 . S
C766 C767 1.399 . S
C767 H753 0.929 . S
C767 C766 1.399 . S
C767 C768 1.385 . S
C768 H754 0.931 . S
C768 C767 1.385 . S
C768 C769 1.389 . S
C769 C768 1.389 . S
C769 C770 1.387 . S
C770 H755 0.930 . S
C770 C765 1.390 . S
C770 C769 1.387 . S
H771 C783 0.930 . S
H772 C785 0.930 . S
H773 C786 0.930 . S
H774 C790 0.959 . S
H775 C790 0.959 . S
H776 C790 0.961 . S
H777 C791 0.960 . S
H778 C791 0.961 . S
H779 C791 0.959 . S
H780 C794 0.929 1_554 S
H781 C795 0.931 . S
H782 C797 0.930 . S
C783 H771 0.930 . S
C783 C784 1.399 . S
C783 C788 1.399 1_554 S
C784 C783 1.399 . S
C784 C785 1.376 . S
C785 H772 0.930 . S
C785 C784 1.376 . S
C785 C786 1.388 . S
C786 H773 0.930 . S
C786 C785 1.388 . S
C786 C787 1.390 . S
C787 C786 1.390 . S
C787 C788 1.394 1_554 S
C787 C793 1.465 1_554 S
C788 C783 1.399 1_556 S
C788 C787 1.394 1_556 S
C788 C789 1.516 . S
C789 C788 1.516 . S
C789 C790 1.502 . S
C789 C791 1.561 . S
C789 C792 1.526 . S
C790 H774 0.959 . S
C790 H775 0.959 . S
C790 H776 0.961 . S
C790 C789 1.502 . S
C791 H777 0.960 . S
C791 H778 0.961 . S
C791 H779 0.959 . S
C791 C789 1.561 . S
C792 C789 1.526 . S
C792 C793 1.396 . S
C792 C797 1.390 . S
C793 C787 1.465 1_556 S
C793 C792 1.396 . S
C793 C794 1.399 . S
C794 H780 0.929 1_556 S
C794 C793 1.399 . S
C794 C795 1.385 . S
C795 H781 0.931 . S
C795 C794 1.385 . S
C795 C796 1.389 . S
C796 C795 1.389 . S
C796 C797 1.387 . S
C797 H782 0.930 . S
C797 C792 1.390 . S
C797 C796 1.387 . S
H798 C810 0.930 . S
H799 C812 0.930 . S
H800 C813 0.930 . S
H801 C817 0.959 . S
H802 C817 0.959 . S
H803 C817 0.961 . S
H804 C818 0.960 . S
H805 C818 0.961 . S
H806 C818 0.959 . S
H807 C821 0.929 . S
H808 C822 0.931 . S
H809 C824 0.930 . S
C810 H798 0.930 . S
C810 C811 1.399 . S
C810 C815 1.399 . S
C811 C810 1.399 . S
C811 C812 1.376 . S
C812 H799 0.930 . S
C812 C811 1.376 . S
C812 C813 1.388 . S
C813 H800 0.930 . S
C813 C812 1.388 . S
C813 C814 1.390 . S
C814 C813 1.390 . S
C814 C815 1.394 . S
C814 C820 1.465 . S
C815 C810 1.399 . S
C815 C814 1.394 . S
C815 C816 1.516 . S
C816 C815 1.516 . S
C816 C817 1.502 . S
C816 C818 1.561 . S
C816 C819 1.526 . S
C817 H801 0.959 . S
C817 H802 0.959 . S
C817 H803 0.961 . S
C817 C816 1.502 . S
C818 H804 0.960 . S
C818 H805 0.961 . S
C818 H806 0.959 . S
C818 C816 1.561 . S
C819 C816 1.526 . S
C819 C820 1.396 . S
C819 C824 1.390 . S
C820 C814 1.465 . S
C820 C819 1.396 . S
C820 C821 1.399 . S
C821 H807 0.929 . S
C821 C820 1.399 . S
C821 C822 1.385 . S
C822 H808 0.931 . S
C822 C821 1.385 . S
C822 C823 1.389 . S
C823 C822 1.389 . S
C823 C824 1.387 . S
C824 H809 0.930 . S
C824 C819 1.390 . S
C824 C823 1.387 . S
H825 C837 0.930 . S
H826 C839 0.930 . S
H827 C840 0.930 . S
H828 C844 0.959 . S
H829 C844 0.959 . S
H830 C844 0.961 . S
H831 C845 0.960 . S
H832 C845 0.961 . S
H833 C845 0.959 . S
H834 C848 0.929 . S
H835 C849 0.931 . S
H836 C851 0.930 . S
C837 H825 0.930 . S
C837 C838 1.399 . S
C837 C842 1.399 . S
C838 C837 1.399 . S
C838 C839 1.376 . S
C839 H826 0.930 . S
C839 C838 1.376 . S
C839 C840 1.388 . S
C840 H827 0.930 . S
C840 C839 1.388 . S
C840 C841 1.390 . S
C841 C840 1.390 . S
C841 C842 1.394 . S
C841 C847 1.465 . S
C842 C837 1.399 . S
C842 C841 1.394 . S
C842 C843 1.516 . S
C843 C842 1.516 . S
C843 C844 1.502 . S
C843 C845 1.561 . S
C843 C846 1.526 . S
C844 H828 0.959 . S
C844 H829 0.959 . S
C844 H830 0.961 . S
C844 C843 1.502 . S
C845 H831 0.960 . S
C845 H832 0.961 . S
C845 H833 0.959 . S
C845 C843 1.561 . S
C846 C843 1.526 . S
C846 C847 1.396 . S
C846 C851 1.390 . S
C847 C841 1.465 . S
C847 C846 1.396 . S
C847 C848 1.399 . S
C848 H834 0.929 . S
C848 C847 1.399 . S
C848 C849 1.385 . S
C849 H835 0.931 . S
C849 C848 1.385 . S
C849 C850 1.389 . S
C850 C849 1.389 . S
C850 C851 1.387 . S
C851 H836 0.930 . S
C851 C846 1.390 . S
C851 C850 1.387 . S
H852 C864 0.930 . S
H853 C866 0.930 . S
H854 C867 0.930 . S
H855 C871 0.959 . S
H856 C871 0.959 1_655 S
H857 C871 0.961 . S
H858 C872 0.960 1_554 S
H859 C872 0.961 . S
H860 C872 0.959 . S
H861 C875 0.929 . S
H862 C876 0.931 . S
H863 C878 0.930 1_655 S
C864 H852 0.930 . S
C864 C865 1.399 . S
C864 C869 1.399 . S
C865 C864 1.399 . S
C865 C866 1.376 . S
C866 H853 0.930 . S
C866 C865 1.376 . S
C866 C867 1.388 . S
C867 H854 0.930 . S
C867 C866 1.388 . S
C867 C868 1.390 . S
C868 C867 1.390 . S
C868 C869 1.394 . S
C868 C874 1.465 . S
C869 C864 1.399 . S
C869 C868 1.394 . S
C869 C870 1.516 . S
C870 C869 1.516 . S
C870 C871 1.502 . S
C870 C872 1.561 . S
C870 C873 1.526 . S
C871 H855 0.959 . S
C871 H856 0.959 1_455 S
C871 H857 0.961 . S
C871 C870 1.502 . S
C872 H858 0.960 1_556 S
C872 H859 0.961 . S
C872 H860 0.959 . S
C872 C870 1.561 . S
C873 C870 1.526 . S
C873 C874 1.396 . S
C873 C878 1.390 . S
C874 C868 1.465 . S
C874 C873 1.396 . S
C874 C875 1.399 . S
C875 H861 0.929 . S
C875 C874 1.399 . S
C875 C876 1.385 . S
C876 H862 0.931 . S
C876 C875 1.385 . S
C876 C877 1.389 . S
C877 C876 1.389 . S
C877 C878 1.387 . S
C878 H863 0.930 1_455 S
C878 C873 1.390 . S
C878 C877 1.387 . S
H879 C891 0.930 . S
H880 C893 0.930 1_545 S
H881 C894 0.930 1_545 S
H882 C898 0.959 . S
H883 C898 0.959 . S
H884 C898 0.961 . S
H885 C899 0.960 . S
H886 C899 0.961 . S
H887 C899 0.959 . S
H888 C902 0.954 . S
H889 C903 0.931 . S
H890 C905 0.930 . S
C891 H879 0.930 . S
C891 C892 1.399 . S
C891 C896 1.399 . S
C892 C891 1.399 . S
C892 C893 1.376 . S
C893 H880 0.930 1_565 S
C893 C892 1.376 . S
C893 C894 1.388 . S
C894 H881 0.930 1_565 S
C894 C893 1.388 . S
C894 C895 1.390 . S
C895 C894 1.390 . S
C895 C896 1.394 . S
C895 C901 1.465 . S
C896 C891 1.399 . S
C896 C895 1.394 . S
C896 C897 1.516 . S
C897 C896 1.516 . S
C897 C898 1.502 . S
C897 C899 1.561 . S
C897 C900 1.526 . S
C898 H882 0.959 . S
C898 H883 0.959 . S
C898 H884 0.961 . S
C898 C897 1.502 . S
C899 H885 0.960 . S
C899 H886 0.961 . S
C899 H887 0.959 . S
C899 C897 1.561 . S
C900 C897 1.526 . S
C900 C901 1.396 . S
C900 C905 1.390 . S
C901 C895 1.465 . S
C901 C900 1.396 . S
C901 C902 1.399 . S
C902 H888 0.954 . S
C902 C901 1.399 . S
C902 C903 1.385 . S
C903 H889 0.931 . S
C903 C902 1.385 . S
C903 C904 1.389 . S
C904 C903 1.389 . S
C904 C905 1.387 . S
C905 H890 0.930 . S
C905 C900 1.390 . S
C905 C904 1.387 . S
H906 C918 0.930 . S
H907 C920 0.930 . S
H908 C921 0.931 . S
H909 C925 0.959 . S
H910 C925 0.959 . S
H911 C925 0.961 . S
H912 C926 0.960 1_554 S
H913 C926 0.961 . S
H914 C926 0.959 1_554 S
H915 C929 0.929 . S
H916 C930 0.931 . S
H917 C932 0.930 . S
C918 H906 0.930 . S
C918 C919 1.399 . S
C918 C923 1.399 1_554 S
C919 C918 1.399 . S
C919 C920 1.376 . S
C920 H907 0.930 . S
C920 C919 1.376 . S
C920 C921 1.388 . S
C921 H908 0.931 . S
C921 C920 1.388 . S
C921 C922 1.390 1_554 S
C922 C921 1.390 1_556 S
C922 C923 1.394 . S
C922 C928 1.465 . S
C923 C918 1.399 1_556 S
C923 C922 1.394 . S
C923 C924 1.516 . S
C924 C923 1.516 . S
C924 C925 1.502 . S
C924 C926 1.561 . S
C924 C927 1.526 . S
C925 H909 0.959 . S
C925 H910 0.959 . S
C925 H911 0.961 . S
C925 C924 1.502 . S
C926 H912 0.960 1_556 S
C926 H913 0.961 . S
C926 H914 0.959 1_556 S
C926 C924 1.561 . S
C927 C924 1.526 . S
C927 C928 1.396 . S
C927 C932 1.390 . S
C928 C922 1.465 . S
C928 C927 1.396 . S
C928 C929 1.399 . S
C929 H915 0.929 . S
C929 C928 1.399 . S
C929 C930 1.385 . S
C930 H916 0.931 . S
C930 C929 1.385 . S
C930 C931 1.389 . S
C931 C930 1.389 . S
C931 C932 1.387 . S
C932 H917 0.930 . S
C932 C927 1.390 . S
C932 C931 1.387 . S
H933 C945 0.930 . S
H934 C947 0.930 . S
H935 C948 0.930 . S
H936 C952 0.959 . S
H937 C952 0.959 . S
H938 C952 0.961 . S
H939 C953 0.960 . S
H940 C953 0.961 . S
H941 C953 0.959 . S
H942 C956 0.929 . S
H943 C957 0.931 . S
H944 C959 0.930 . S
C945 H933 0.930 . S
C945 C946 1.399 . S
C945 C950 1.399 . S
C946 C945 1.399 . S
C946 C947 1.376 . S
C947 H934 0.930 . S
C947 C946 1.376 . S
C947 C948 1.388 . S
C948 H935 0.930 . S
C948 C947 1.388 . S
C948 C949 1.390 . S
C949 C948 1.390 . S
C949 C950 1.394 . S
C949 C955 1.465 . S
C950 C945 1.399 . S
C950 C949 1.394 . S
C950 C951 1.516 . S
C951 C950 1.516 . S
C951 C952 1.502 . S
C951 C953 1.561 . S
C951 C954 1.526 . S
C952 H936 0.959 . S
C952 H937 0.959 . S
C952 H938 0.961 . S
C952 C951 1.502 . S
C953 H939 0.960 . S
C953 H940 0.961 . S
C953 H941 0.959 . S
C953 C951 1.561 . S
C954 C951 1.526 . S
C954 C955 1.396 . S
C954 C959 1.390 . S
C955 C949 1.465 . S
C955 C954 1.396 . S
C955 C956 1.399 . S
C956 H942 0.929 . S
C956 C955 1.399 . S
C956 C957 1.385 . S
C957 H943 0.931 . S
C957 C956 1.385 . S
C957 C958 1.389 . S
C958 C957 1.389 . S
C958 C959 1.387 . S
C959 H944 0.930 . S
C959 C954 1.390 . S
C959 C958 1.387 . S
H960 C972 0.930 . S
H961 C974 0.930 . S
H962 C975 0.930 . S
H963 C979 0.959 . S
H964 C979 0.959 . S
H965 C979 0.961 . S
H966 C980 0.960 . S
H967 C980 0.961 . S
H968 C980 0.959 . S
H969 C983 0.929 . S
H970 C984 0.931 . S
H971 C986 0.930 . S
C972 H960 0.930 . S
C972 C973 1.399 . S
C972 C977 1.399 . S
C973 C972 1.399 . S
C973 C974 1.376 . S
C974 H961 0.930 . S
C974 C973 1.376 . S
C974 C975 1.388 . S
C975 H962 0.930 . S
C975 C974 1.388 . S
C975 C976 1.390 . S
C976 C975 1.390 . S
C976 C977 1.394 . S
C976 C982 1.465 1_554 S
C977 C972 1.399 . S
C977 C976 1.394 . S
C977 C978 1.505 1_554 S
C978 C977 1.505 1_556 S
C978 C979 1.517 . S
C978 C980 1.547 1_556 S
C978 C981 1.534 . S
C979 H963 0.959 . S
C979 H964 0.959 . S
C979 H965 0.961 . S
C979 C978 1.517 . S
C980 H966 0.960 . S
C980 H967 0.961 . S
C980 H968 0.959 . S
C980 C978 1.547 1_554 S
C981 C978 1.534 . S
C981 C982 1.396 . S
C981 C986 1.390 . S
C982 C976 1.465 1_556 S
C982 C981 1.396 . S
C982 C983 1.399 . S
C983 H969 0.929 . S
C983 C982 1.399 . S
C983 C984 1.385 . S
C984 H970 0.931 . S
C984 C983 1.385 . S
C984 C985 1.389 . S
C985 C984 1.389 . S
C985 C986 1.387 . S
C986 H971 0.930 . S
C986 C981 1.390 . S
C986 C985 1.387 . S
H987 C999 0.930 . S
H988 C1001 0.930 . S
H989 C1002 0.930 . S
H990 C1006 0.959 . S
H991 C1006 0.959 . S
H992 C1006 0.961 . S
H993 C1007 0.960 . S
H994 C1007 0.961 . S
H995 C1007 0.959 . S
H996 C1010 0.929 . S
H997 C1011 0.931 . S
H998 C1013 0.930 . S
C999 H987 0.930 . S
C999 C1000 1.399 . S
C999 C1004 1.399 . S
C1000 C999 1.399 . S
C1000 C1001 1.376 . S
C1001 H988 0.930 . S
C1001 C1000 1.376 . S
C1001 C1002 1.388 . S
C1002 H989 0.930 . S
C1002 C1001 1.388 . S
C1002 C1003 1.390 . S
C1003 C1002 1.390 . S
C1003 C1004 1.394 . S
C1003 C1009 1.465 . S
C1004 C999 1.399 . S
C1004 C1003 1.394 . S
C1004 C1005 1.516 . S
C1005 C1004 1.516 . S
C1005 C1006 1.502 . S
C1005 C1007 1.561 . S
C1005 C1008 1.526 . S
C1006 H990 0.959 . S
C1006 H991 0.959 . S
C1006 H992 0.961 . S
C1006 C1005 1.502 . S
C1007 H993 0.960 . S
C1007 H994 0.961 . S
C1007 H995 0.959 . S
C1007 C1005 1.561 . S
C1008 C1005 1.526 . S
C1008 C1009 1.396 . S
C1008 C1013 1.390 . S
C1009 C1003 1.465 . S
C1009 C1008 1.396 . S
C1009 C1010 1.399 . S
C1010 H996 0.929 . S
C1010 C1009 1.399 . S
C1010 C1011 1.385 . S
C1011 H997 0.931 . S
C1011 C1010 1.385 . S
C1011 C1012 1.389 . S
C1012 C1011 1.389 . S
C1012 C1013 1.387 . S
C1013 H998 0.930 . S
C1013 C1008 1.390 . S
C1013 C1012 1.387 . S
H1014 C1026 0.930 . S
H1015 C1028 0.930 1_565 S
H1016 C1029 0.930 1_565 S
H1017 C1033 0.959 . S
H1018 C1033 0.959 . S
H1019 C1033 0.961 . S
H1020 C1034 0.960 . S
H1021 C1034 0.961 . S
H1022 C1034 0.959 . S
H1023 C1037 0.929 . S
H1024 C1038 0.931 . S
H1025 C1040 0.930 . S
C1026 H1014 0.930 . S
C1026 C1027 1.399 . S
C1026 C1031 1.399 . S
C1027 C1026 1.399 . S
C1027 C1028 1.376 . S
C1028 H1015 0.930 1_545 S
C1028 C1027 1.376 . S
C1028 C1029 1.388 . S
C1029 H1016 0.930 1_545 S
C1029 C1028 1.388 . S
C1029 C1030 1.390 . S
C1030 C1029 1.390 . S
C1030 C1031 1.394 . S
C1030 C1036 1.465 . S
C1031 C1026 1.399 . S
C1031 C1030 1.394 . S
C1031 C1032 1.516 . S
C1032 C1031 1.516 . S
C1032 C1033 1.502 . S
C1032 C1034 1.561 . S
C1032 C1035 1.526 . S
C1033 H1017 0.959 . S
C1033 H1018 0.959 . S
C1033 H1019 0.961 . S
C1033 C1032 1.502 . S
C1034 H1020 0.960 . S
C1034 H1021 0.961 . S
C1034 H1022 0.959 . S
C1034 C1032 1.561 . S
C1035 C1032 1.526 . S
C1035 C1036 1.396 . S
C1035 C1040 1.390 . S
C1036 C1030 1.465 . S
C1036 C1035 1.396 . S
C1036 C1037 1.399 . S
C1037 H1023 0.929 . S
C1037 C1036 1.399 . S
C1037 C1038 1.385 . S
C1038 H1024 0.931 . S
C1038 C1037 1.385 . S
C1038 C1039 1.389 . S
C1039 C1038 1.389 . S
C1039 C1040 1.387 . S
C1040 H1025 0.930 . S
C1040 C1035 1.390 . S
C1040 C1039 1.387 . S
H1041 C1053 0.930 . S
H1042 C1055 0.930 . S
H1043 C1056 0.930 . S
H1044 C1060 0.959 . S
H1045 C1060 0.959 . S
H1046 C1060 0.961 . S
H1047 C1061 0.960 . S
H1048 C1061 0.961 . S
H1049 C1061 0.959 . S
H1050 C1064 0.929 . S
H1051 C1065 0.931 . S
H1052 C1067 0.930 . S
C1053 H1041 0.930 . S
C1053 C1054 1.399 . S
C1053 C1058 1.399 . S
C1054 C1053 1.399 . S
C1054 C1055 1.376 . S
C1055 H1042 0.930 . S
C1055 C1054 1.376 . S
C1055 C1056 1.388 . S
C1056 H1043 0.930 . S
C1056 C1055 1.388 . S
C1056 C1057 1.390 . S
C1057 C1056 1.390 . S
C1057 C1058 1.394 . S
C1057 C1063 1.465 . S
C1058 C1053 1.399 . S
C1058 C1057 1.394 . S
C1058 C1059 1.516 . S
C1059 C1058 1.516 . S
C1059 C1060 1.502 . S
C1059 C1061 1.561 . S
C1059 C1062 1.526 . S
C1060 H1044 0.959 . S
C1060 H1045 0.959 . S
C1060 H1046 0.961 . S
C1060 C1059 1.502 . S
C1061 H1047 0.960 . S
C1061 H1048 0.961 . S
C1061 H1049 0.959 . S
C1061 C1059 1.561 . S
C1062 C1059 1.526 . S
C1062 C1063 1.396 . S
C1062 C1067 1.390 . S
C1063 C1057 1.465 . S
C1063 C1062 1.396 . S
C1063 C1064 1.399 . S
C1064 H1050 0.929 . S
C1064 C1063 1.399 . S
C1064 C1065 1.385 . S
C1065 H1051 0.931 . S
C1065 C1064 1.385 . S
C1065 C1066 1.389 . S
C1066 C1065 1.389 . S
C1066 C1067 1.387 . S
C1067 H1052 0.930 . S
C1067 C1062 1.390 . S
C1067 C1066 1.387 . S
H1068 C1080 0.930 1_455 S
H1069 C1082 0.930 . S
H1070 C1083 0.930 . S
H1071 C1087 0.959 . S
H1072 C1087 0.959 . S
H1073 C1087 0.961 . S
H1074 C1088 0.960 . S
H1075 C1088 0.961 . S
H1076 C1088 0.959 . S
H1077 C1091 0.929 . S
H1078 C1092 0.931 . S
H1079 C1094 0.930 1_455 S
C1080 H1068 0.930 1_655 S
C1080 C1081 1.399 . S
C1080 C1085 1.399 . S
C1081 C1080 1.399 . S
C1081 C1082 1.376 . S
C1082 H1069 0.930 . S
C1082 C1081 1.376 . S
C1082 C1083 1.388 . S
C1083 H1070 0.930 . S
C1083 C1082 1.388 . S
C1083 C1084 1.390 . S
C1084 C1083 1.390 . S
C1084 C1085 1.394 . S
C1084 C1090 1.465 . S
C1085 C1080 1.399 . S
C1085 C1084 1.394 . S
C1085 C1086 1.516 1_655 S
C1086 C1085 1.516 1_455 S
C1086 C1087 1.502 . S
C1086 C1088 1.561 . S
C1086 C1089 1.526 1_455 S
C1087 H1071 0.959 . S
C1087 H1072 0.959 . S
C1087 H1073 0.961 . S
C1087 C1086 1.502 . S
C1088 H1074 0.960 . S
C1088 H1075 0.961 . S
C1088 H1076 0.959 . S
C1088 C1086 1.561 . S
C1089 C1086 1.526 1_655 S
C1089 C1090 1.396 . S
C1089 C1094 1.390 . S
C1090 C1084 1.465 . S
C1090 C1089 1.396 . S
C1090 C1091 1.399 . S
C1091 H1077 0.929 . S
C1091 C1090 1.399 . S
C1091 C1092 1.385 . S
C1092 H1078 0.931 . S
C1092 C1091 1.385 . S
C1092 C1093 1.389 . S
C1093 C1092 1.389 . S
C1093 C1094 1.387 . S
C1094 H1079 0.930 1_655 S
C1094 C1089 1.390 . S
C1094 C1093 1.387 . S
H1095 C1107 0.930 . S
H1096 C1109 0.930 . S
H1097 C1110 0.930 . S
H1098 C1114 0.959 . S
H1099 C1114 0.959 . S
H1100 C1114 0.961 . S
H1101 C1115 0.960 . S
H1102 C1115 0.961 . S
H1103 C1115 0.959 . S
H1104 C1118 0.929 . S
H1105 C1119 0.931 . S
H1106 C1121 0.930 1_545 S
C1107 H1095 0.930 . S
C1107 C1108 1.399 . S
C1107 C1112 1.399 . S
C1108 C1107 1.399 . S
C1108 C1109 1.376 1_545 S
C1109 H1096 0.930 . S
C1109 C1108 1.376 1_565 S
C1109 C1110 1.388 . S
C1110 H1097 0.930 . S
C1110 C1109 1.388 . S
C1110 C1111 1.390 . S
C1111 C1110 1.390 . S
C1111 C1112 1.394 1_565 S
C1111 C1117 1.465 . S
C1112 C1107 1.399 . S
C1112 C1111 1.394 1_545 S
C1112 C1113 1.516 . S
C1113 C1112 1.516 . S
C1113 C1114 1.502 . S
C1113 C1115 1.561 . S
C1113 C1116 1.526 1_545 S
C1114 H1098 0.959 . S
C1114 H1099 0.959 . S
C1114 H1100 0.961 . S
C1114 C1113 1.502 . S
C1115 H1101 0.960 . S
C1115 H1102 0.961 . S
C1115 H1103 0.959 . S
C1115 C1113 1.561 . S
C1116 C1113 1.526 1_565 S
C1116 C1117 1.396 . S
C1116 C1121 1.390 . S
C1117 C1111 1.465 . S
C1117 C1116 1.396 . S
C1117 C1118 1.399 . S
C1118 H1104 0.929 . S
C1118 C1117 1.399 . S
C1118 C1119 1.385 . S
C1119 H1105 0.931 . S
C1119 C1118 1.385 . S
C1119 C1120 1.389 . S
C1120 C1119 1.389 . S
C1120 C1121 1.387 . S
C1121 H1106 0.930 1_565 S
C1121 C1116 1.390 . S
C1121 C1120 1.387 . S
H1122 C1134 0.930 . S
H1123 C1136 0.930 . S
H1124 C1137 0.930 . S
H1125 C1141 0.959 . S
H1126 C1141 0.959 . S
H1127 C1141 0.961 . S
H1128 C1142 0.960 . S
H1129 C1142 0.961 . S
H1130 C1142 0.959 . S
H1131 C1145 0.929 . S
H1132 C1146 0.931 . S
H1133 C1148 0.930 . S
C1134 H1122 0.930 . S
C1134 C1135 1.399 . S
C1134 C1139 1.399 . S
C1135 C1134 1.399 . S
C1135 C1136 1.376 . S
C1136 H1123 0.930 . S
C1136 C1135 1.376 . S
C1136 C1137 1.388 . S
C1137 H1124 0.930 . S
C1137 C1136 1.388 . S
C1137 C1138 1.390 . S
C1138 C1137 1.390 . S
C1138 C1139 1.394 . S
C1138 C1144 1.465 . S
C1139 C1134 1.399 . S
C1139 C1138 1.394 . S
C1139 C1140 1.516 . S
C1140 C1139 1.516 . S
C1140 C1141 1.502 . S
C1140 C1142 1.561 . S
C1140 C1143 1.526 . S
C1141 H1125 0.959 . S
C1141 H1126 0.959 . S
C1141 H1127 0.961 . S
C1141 C1140 1.502 . S
C1142 H1128 0.960 . S
C1142 H1129 0.961 . S
C1142 H1130 0.959 . S
C1142 C1140 1.561 . S
C1143 C1140 1.526 . S
C1143 C1144 1.396 . S
C1143 C1148 1.390 . S
C1144 C1138 1.465 . S
C1144 C1143 1.396 . S
C1144 C1145 1.399 . S
C1145 H1131 0.929 . S
C1145 C1144 1.399 . S
C1145 C1146 1.385 . S
C1146 H1132 0.931 . S
C1146 C1145 1.385 . S
C1146 C1147 1.389 . S
C1147 C1146 1.389 . S
C1147 C1148 1.387 . S
C1148 H1133 0.930 . S
C1148 C1143 1.390 . S
C1148 C1147 1.387 . S
H1149 C1161 0.930 . S
H1150 C1163 0.930 . S
H1151 C1164 0.930 . S
H1152 C1168 0.959 . S
H1153 C1168 0.959 . S
H1154 C1168 0.961 . S
H1155 C1169 0.960 . S
H1156 C1169 0.961 . S
H1157 C1169 0.959 . S
H1158 C1172 0.929 . S
H1159 C1173 0.931 . S
H1160 C1175 0.930 . S
C1161 H1149 0.930 . S
C1161 C1162 1.399 . S
C1161 C1166 1.399 . S
C1162 C1161 1.399 . S
C1162 C1163 1.376 . S
C1163 H1150 0.930 . S
C1163 C1162 1.376 . S
C1163 C1164 1.388 . S
C1164 H1151 0.930 . S
C1164 C1163 1.388 . S
C1164 C1165 1.390 . S
C1165 C1164 1.390 . S
C1165 C1166 1.394 . S
C1165 C1171 1.465 . S
C1166 C1161 1.399 . S
C1166 C1165 1.394 . S
C1166 C1167 1.516 . S
C1167 C1166 1.516 . S
C1167 C1168 1.502 . S
C1167 C1169 1.561 . S
C1167 C1170 1.526 . S
C1168 H1152 0.959 . S
C1168 H1153 0.959 . S
C1168 H1154 0.961 . S
C1168 C1167 1.502 . S
C1169 H1155 0.960 . S
C1169 H1156 0.961 . S
C1169 H1157 0.959 . S
C1169 C1167 1.561 . S
C1170 C1167 1.526 . S
C1170 C1171 1.396 . S
C1170 C1175 1.390 . S
C1171 C1165 1.465 . S
C1171 C1170 1.396 . S
C1171 C1172 1.399 . S
C1172 H1158 0.929 . S
C1172 C1171 1.399 . S
C1172 C1173 1.385 . S
C1173 H1159 0.931 . S
C1173 C1172 1.385 . S
C1173 C1174 1.389 . S
C1174 C1173 1.389 . S
C1174 C1175 1.387 . S
C1175 H1160 0.930 . S
C1175 C1170 1.390 . S
C1175 C1174 1.387 . S
C541 C13 2.184 . S
C553 C147 2.151 . S
C568 C27 1.403 . S
C580 C221 1.317 . S
C607 C271 1.746 . S
C595 C29 1.832 . S
C634 C357 1.327 . S
C622 C54 1.338 . S
C661 C449 1.881 . S
C649 C69 1.875 . S
C688 C493 1.819 . S
C676 C83 1.880 . S
C703 C15 1.328 . S
C715 C295 1.176 . S
C730 C41 2.484 . S
C742 C375 2.440 . S
C769 C431 1.419 . S
C757 C42 1.386 . S
C796 C517 1.514 . S
C784 C57 1.514 . S
C811 C71 2.170 . S
C823 C123 2.043 . S
C850 C197 1.852 1_455 S
C838 C1 1.884 . S
C877 C369 1.921 1_455 S
C865 C12 2.121 . S
C892 C26 2.188 . S
C904 C419 2.071 . S
C931 C523 2.319 . S
C919 C28 2.386 . S
C946 C55 1.474 . S
C958 C135 1.475 . S
C973 C68 1.993 . S
C985 C209 1.951 . S
C1000 C82 2.418 . S
C1012 C301 2.271 . S
C1027 C14 1.974 . S
C1039 C505 1.913 . S
C1066 C153 2.158 . S
C1054 C40 2.169 . S
C1081 C43 2.410 . S
C1093 C227 2.233 . S
C1108 C56 1.842 . S
C1120 C283 1.651 . S
C1135 C70 1.691 . S
C1147 C345 1.532 . S
C1162 C0 2.143 . S
C1174 C443 1.984 . S
