# Generated by pormake.
# Topology ctn, (3,4)-cn, num edge types: 1
# Building blocks:
#     Node 0, Type 0, BuildingBlock: VETTIZ_charged_linker_0, # of connection points: 3
#     Node 1, Type 0, BuildingBlock: VETTIZ_charged_linker_0, # of connection points: 3
#     Node 2, Type 0, BuildingBlock: VETTIZ_charged_linker_0, # of connection points: 3
#     Node 3, Type 0, BuildingBlock: VETTIZ_charged_linker_0, # of connection points: 3
#     Node 4, Type 0, BuildingBlock: VETTIZ_charged_linker_0, # of connection points: 3
#     Node 5, Type 0, BuildingBlock: VETTIZ_charged_linker_0, # of connection points: 3
#     Node 6, Type 0, BuildingBlock: VETTIZ_charged_linker_0, # of connection points: 3
#     Node 7, Type 0, BuildingBlock: VETTIZ_charged_linker_0, # of connection points: 3
#     Node 8, Type 0, BuildingBlock: VETTIZ_charged_linker_0, # of connection points: 3
#     Node 9, Type 0, BuildingBlock: VETTIZ_charged_linker_0, # of connection points: 3
#     Node 10, Type 0, BuildingBlock: VETTIZ_charged_linker_0, # of connection points: 3
#     Node 11, Type 0, BuildingBlock: VETTIZ_charged_linker_0, # of connection points: 3
#     Node 12, Type 0, BuildingBlock: VETTIZ_charged_linker_0, # of connection points: 3
#     Node 13, Type 0, BuildingBlock: VETTIZ_charged_linker_0, # of connection points: 3
#     Node 14, Type 0, BuildingBlock: VETTIZ_charged_linker_0, # of connection points: 3
#     Node 15, Type 0, BuildingBlock: VETTIZ_charged_linker_0, # of connection points: 3
#     Node 16, Type 1, BuildingBlock: KUFVIS_clean_sbu_0, # of connection points: 4
#     Node 17, Type 1, BuildingBlock: KUFVIS_clean_sbu_0, # of connection points: 4
#     Node 18, Type 1, BuildingBlock: KUFVIS_clean_sbu_0, # of connection points: 4
#     Node 19, Type 1, BuildingBlock: KUFVIS_clean_sbu_0, # of connection points: 4
#     Node 20, Type 1, BuildingBlock: KUFVIS_clean_sbu_0, # of connection points: 4
#     Node 21, Type 1, BuildingBlock: KUFVIS_clean_sbu_0, # of connection points: 4
#     Node 22, Type 1, BuildingBlock: KUFVIS_clean_sbu_0, # of connection points: 4
#     Node 23, Type 1, BuildingBlock: KUFVIS_clean_sbu_0, # of connection points: 4
#     Node 24, Type 1, BuildingBlock: KUFVIS_clean_sbu_0, # of connection points: 4
#     Node 25, Type 1, BuildingBlock: KUFVIS_clean_sbu_0, # of connection points: 4
#     Node 26, Type 1, BuildingBlock: KUFVIS_clean_sbu_0, # of connection points: 4
#     Node 27, Type 1, BuildingBlock: KUFVIS_clean_sbu_0, # of connection points: 4
#     Edge 28, Type (0, 1), BuildingBlock: XIVTED_clean_linker_0, # of connection points: 2
#     Edge 29, Type (0, 1), BuildingBlock: XIVTED_clean_linker_0, # of connection points: 2
#     Edge 30, Type (0, 1), BuildingBlock: XIVTED_clean_linker_0, # of connection points: 2
#     Edge 31, Type (0, 1), BuildingBlock: XIVTED_clean_linker_0, # of connection points: 2
#     Edge 32, Type (0, 1), BuildingBlock: XIVTED_clean_linker_0, # of connection points: 2
#     Edge 33, Type (0, 1), BuildingBlock: XIVTED_clean_linker_0, # of connection points: 2
#     Edge 34, Type (0, 1), BuildingBlock: XIVTED_clean_linker_0, # of connection points: 2
#     Edge 35, Type (0, 1), BuildingBlock: XIVTED_clean_linker_0, # of connection points: 2
#     Edge 36, Type (0, 1), BuildingBlock: XIVTED_clean_linker_0, # of connection points: 2
#     Edge 37, Type (0, 1), BuildingBlock: XIVTED_clean_linker_0, # of connection points: 2
#     Edge 38, Type (0, 1), BuildingBlock: XIVTED_clean_linker_0, # of connection points: 2
#     Edge 39, Type (0, 1), BuildingBlock: XIVTED_clean_linker_0, # of connection points: 2
#     Edge 40, Type (0, 1), BuildingBlock: XIVTED_clean_linker_0, # of connection points: 2
#     Edge 41, Type (0, 1), BuildingBlock: XIVTED_clean_linker_0, # of connection points: 2
#     Edge 42, Type (0, 1), BuildingBlock: XIVTED_clean_linker_0, # of connection points: 2
#     Edge 43, Type (0, 1), BuildingBlock: XIVTED_clean_linker_0, # of connection points: 2
#     Edge 44, Type (0, 1), BuildingBlock: XIVTED_clean_linker_0, # of connection points: 2
#     Edge 45, Type (0, 1), BuildingBlock: XIVTED_clean_linker_0, # of connection points: 2
#     Edge 46, Type (0, 1), BuildingBlock: XIVTED_clean_linker_0, # of connection points: 2
#     Edge 47, Type (0, 1), BuildingBlock: XIVTED_clean_linker_0, # of connection points: 2
#     Edge 48, Type (0, 1), BuildingBlock: XIVTED_clean_linker_0, # of connection points: 2
#     Edge 49, Type (0, 1), BuildingBlock: XIVTED_clean_linker_0, # of connection points: 2
#     Edge 50, Type (0, 1), BuildingBlock: XIVTED_clean_linker_0, # of connection points: 2
#     Edge 51, Type (0, 1), BuildingBlock: XIVTED_clean_linker_0, # of connection points: 2
#     Edge 52, Type (0, 1), BuildingBlock: XIVTED_clean_linker_0, # of connection points: 2
#     Edge 53, Type (0, 1), BuildingBlock: XIVTED_clean_linker_0, # of connection points: 2
#     Edge 54, Type (0, 1), BuildingBlock: XIVTED_clean_linker_0, # of connection points: 2
#     Edge 55, Type (0, 1), BuildingBlock: XIVTED_clean_linker_0, # of connection points: 2
#     Edge 56, Type (0, 1), BuildingBlock: XIVTED_clean_linker_0, # of connection points: 2
#     Edge 57, Type (0, 1), BuildingBlock: XIVTED_clean_linker_0, # of connection points: 2
#     Edge 58, Type (0, 1), BuildingBlock: XIVTED_clean_linker_0, # of connection points: 2
#     Edge 59, Type (0, 1), BuildingBlock: XIVTED_clean_linker_0, # of connection points: 2
#     Edge 60, Type (0, 1), BuildingBlock: XIVTED_clean_linker_0, # of connection points: 2
#     Edge 61, Type (0, 1), BuildingBlock: XIVTED_clean_linker_0, # of connection points: 2
#     Edge 62, Type (0, 1), BuildingBlock: XIVTED_clean_linker_0, # of connection points: 2
#     Edge 63, Type (0, 1), BuildingBlock: XIVTED_clean_linker_0, # of connection points: 2
#     Edge 64, Type (0, 1), BuildingBlock: XIVTED_clean_linker_0, # of connection points: 2
#     Edge 65, Type (0, 1), BuildingBlock: XIVTED_clean_linker_0, # of connection points: 2
#     Edge 66, Type (0, 1), BuildingBlock: XIVTED_clean_linker_0, # of connection points: 2
#     Edge 67, Type (0, 1), BuildingBlock: XIVTED_clean_linker_0, # of connection points: 2
#     Edge 68, Type (0, 1), BuildingBlock: XIVTED_clean_linker_0, # of connection points: 2
#     Edge 69, Type (0, 1), BuildingBlock: XIVTED_clean_linker_0, # of connection points: 2
#     Edge 70, Type (0, 1), BuildingBlock: XIVTED_clean_linker_0, # of connection points: 2
#     Edge 71, Type (0, 1), BuildingBlock: XIVTED_clean_linker_0, # of connection points: 2
#     Edge 72, Type (0, 1), BuildingBlock: XIVTED_clean_linker_0, # of connection points: 2
#     Edge 73, Type (0, 1), BuildingBlock: XIVTED_clean_linker_0, # of connection points: 2
#     Edge 74, Type (0, 1), BuildingBlock: XIVTED_clean_linker_0, # of connection points: 2
#     Edge 75, Type (0, 1), BuildingBlock: XIVTED_clean_linker_0, # of connection points: 2
# Relax obj value: 0.012
# Max RMSD: 0.063
# Mean RMSD: 0.029
data_MOF--net-ctn--node1-KUFVIS_clean_sbu_0--node2-VETTIZ_charged_linker_0--edge1-XIVTED_clean_linker_0
_symmetry_space_group_name_H-M    P1
_symmetry_Int_Tables_number       1
_symmetry_cell_setting            triclinic
loop_
_symmetry_equiv_pos_as_xyz
'x, y, z'
_cell_length_a     66.625483
_cell_length_b     66.469363
_cell_length_c     66.839055
_cell_angle_alpha  90.929166
_cell_angle_beta   90.236955
_cell_angle_gamma 91.481358
loop_
_atom_site_label
_atom_site_type_symbol
_atom_site_fract_x
_atom_site_fract_y
_atom_site_fract_z
_atom_type_partial_charge
C0 C 0.03571 0.09628 0.99824 0.0
C1 C 0.01847 0.108 1.00038 0.0
C2 C 0.00472 0.10311 0.0157 0.0
C3 C 0.02561 0.076 0.02656 0.0
C4 C 0.03885 0.08034 0.0113 0.0
C5 C 0.05593 0.06594 0.01054 0.0
H6 H 0.1039 0.98776 0.05136 0.0
C7 C 0.03335 0.05876 0.03768 0.0
C8 C 0.05107 0.05269 0.02829 0.0
H9 H 0.11806 0.01857 0.99636 0.0
H10 H 0.09029 0.0404 1.00164 0.0
H11 H 0.09203 0.02673 0.07755 0.0
H12 H 0.05721 0.98385 0.04207 0.0
H13 H 0.04328 0.98894 0.06371 0.0
H14 H 0.06755 0.97775 0.06599 0.0
H15 H 0.08727 1.00133 0.0853 0.0
H16 H 0.07 0.02108 0.09091 0.0
C17 C 0.07581 0.07815 0.01373 0.0
C18 C 0.05465 0.05401 0.99041 0.0
C19 C 0.99665 0.03403 0.09955 0.0
C20 C 1.00054 0.01883 0.11336 0.0
C21 C 0.01786 0.0073 0.11083 0.0
C22 C 0.03098 0.01076 0.09483 0.0
C23 C 0.02681 0.02592 0.08112 0.0
C24 C 0.00993 0.03731 0.08366 0.0
C25 C 0.00799 0.05288 0.06772 0.0
C26 C 0.02645 0.04888 0.05514 0.0
C27 C 0.03738 0.03305 0.06305 0.0
C28 C 0.00917 0.07392 0.07804 0.0
C29 C 0.98827 0.04834 0.05591 0.0
C30 C 0.10102 0.99904 0.04028 0.0
C31 C 0.1135 1.00133 0.02345 0.0
C32 C 0.10912 0.01657 0.0097 0.0
C33 C 0.09277 0.02916 0.01265 0.0
C34 C 0.08039 0.02646 0.02939 0.0
C35 C 0.08455 0.0115 0.04279 0.0
C36 C 0.06925 0.01017 0.05924 0.0
C37 C 0.0552 0.02676 0.05346 0.0
C38 C 0.06192 0.03641 0.03609 0.0
C39 C 0.08007 0.01491 0.0794 0.0
C40 C 0.05878 0.98908 0.05792 0.0
H41 H 0.99718 0.08447 0.04008 0.0
H42 H 0.04671 0.09947 0.98677 0.0
H43 H 0.03894 0.05282 0.98471 0.0
H44 H 0.05925 0.03822 0.99185 0.0
H45 H 0.0639 0.06142 0.97872 0.0
H46 H 0.07425 0.08939 0.0261 0.0
H47 H 0.08004 0.08643 1.0 0.0
H48 H 0.08845 0.06873 0.01807 0.0
H49 H 0.98339 0.04304 0.10087 0.0
H50 H 0.02143 0.99572 0.12139 0.0
H51 H 0.04388 1.00149 0.0938 0.0
H52 H 0.02055 0.07429 0.09028 0.0
H53 H 0.9945 0.07781 0.08472 0.0
H54 H 0.01399 0.08602 0.06789 0.0
H55 H 0.98471 0.03189 0.05525 0.0
H56 H 0.98923 0.05282 0.04008 0.0
H57 H 0.97535 0.05583 0.06304 0.0
H58 H 0.991 0.11131 0.01748 0.0
C59 C 0.00823 0.08732 0.02878 0.0
C60 C 0.27522 0.63905 0.20596 0.0
C61 C 0.25768 0.63598 0.19445 0.0
C62 C 0.25396 0.64903 0.1785 0.0
C63 C 0.28424 0.66862 0.1868 0.0
C64 C 0.28814 0.65536 0.20195 0.0
C65 C 0.3069 0.66101 0.21346 0.0
H66 H 0.3839 0.72675 0.23173 0.0
C67 C 0.30016 0.68461 0.18745 0.0
C68 C 0.31346 0.68013 0.20303 0.0
H69 H 0.36961 0.67119 0.26204 0.0
H70 H 0.34181 0.6647 0.23955 0.0
H71 H 0.33992 0.7414 0.22918 0.0
H72 H 0.37532 0.70915 0.18625 0.0
H73 H 0.36261 0.72791 0.1734 0.0
H74 H 0.38018 0.73508 0.19299 0.0
H75 H 0.35903 0.75374 0.21466 0.0
H76 H 0.33356 0.75058 0.20561 0.0
C77 C 0.301 0.66509 0.23556 0.0
C78 C 0.32214 0.64399 0.21043 0.0
C79 C 0.29783 0.74357 0.13983 0.0
C80 C 0.30968 0.76128 0.13812 0.0
C81 C 0.32614 0.76454 0.15117 0.0
C82 C 0.33083 0.75035 0.16562 0.0
C83 C 0.31883 0.73275 0.16723 0.0
C84 C 0.30256 0.72964 0.15455 0.0
C85 C 0.29101 0.71047 0.15907 0.0
C86 C 0.30325 0.70245 0.17629 0.0
C87 C 0.31957 0.71555 0.18092 0.0
C88 C 0.26957 0.7161 0.16566 0.0
C89 C 0.29164 0.69645 0.14039 0.0
C90 C 0.37476 0.71321 0.23357 0.0
C91 C 0.379 0.69949 0.24877 0.0
C92 C 0.36688 0.6819 0.25036 0.0
C93 C 0.3506 0.67823 0.23736 0.0
C94 C 0.34625 0.69234 0.22261 0.0
C95 C 0.35838 0.70936 0.22076 0.0
C96 C 0.35141 0.72272 0.20429 0.0
C97 C 0.33308 0.7109 0.19658 0.0
C98 C 0.33011 0.69319 0.20744 0.0
C99 C 0.34578 0.74327 0.21374 0.0
C100 C 0.36821 0.724 0.18837 0.0
H101 H 0.26337 0.67494 0.16249 0.0
H102 H 0.27873 0.62907 0.21807 0.0
H103 H 0.32036 0.63673 0.19539 0.0
H104 H 0.33791 0.64956 0.2109 0.0
H105 H 0.32 0.63207 0.22174 0.0
H106 H 0.28624 0.67251 0.23646 0.0
H107 H 0.29972 0.65084 0.24398 0.0
H108 H 0.31156 0.67551 0.24352 0.0
H109 H 0.28492 0.74081 0.13017 0.0
H110 H 0.33555 0.77801 0.15003 0.0
H111 H 0.34361 0.75368 0.17503 0.0
H112 H 0.2699 0.73039 0.17458 0.0
H113 H 0.25967 0.71822 0.1525 0.0
H114 H 0.26249 0.70489 0.17557 0.0
H115 H 0.30669 0.69733 0.13324 0.0
H116 H 0.2892 0.68042 0.14397 0.0
H117 H 0.28036 0.70078 0.12907 0.0
H118 H 0.24053 0.647 0.16943 0.0
C119 C 0.26715 0.66534 0.17462 0.0
C120 C 0.98657 0.41448 0.99967 0.0
C121 C 0.97475 0.40936 0.98277 0.0
C122 C 0.95953 0.42244 0.97693 0.0
C123 C 0.96718 0.44455 0.00527 0.0
C124 C 0.98246 0.43202 0.01071 0.0
C125 C 0.99287 0.43915 0.02965 0.0
H126 H 0.99895 0.50529 0.10768 0.0
C127 C 0.96606 0.46089 0.02049 0.0
C128 C 0.98108 0.45777 0.03484 0.0
H129 H 0.03748 0.45532 0.09481 0.0
H130 H 0.01824 0.44715 0.06504 0.0
H131 H 0.9578 0.48301 0.09617 0.0
H132 H 0.99791 0.52111 0.06251 0.0
H133 H 0.97335 0.52814 0.05676 0.0
H134 H 0.98234 0.53057 0.08219 0.0
H135 H 0.95927 0.50978 0.10003 0.0
H136 H 0.94271 0.49825 0.08147 0.0
C137 C 0.99013 0.42258 0.04552 0.0
C138 C 0.01504 0.44446 0.02457 0.0
C139 C 0.91254 0.51398 0.01495 0.0
C140 C 0.90717 0.53028 0.02741 0.0
C141 C 0.91819 0.53395 0.04525 0.0
C142 C 0.93421 0.52184 0.0505 0.0
C143 C 0.93936 0.50568 0.03792 0.0
C144 C 0.92854 0.50189 0.02052 0.0
C145 C 0.93579 0.48362 0.00935 0.0
C146 C 0.9529 0.47728 0.02278 0.0
C147 C 0.95492 0.4903 0.03946 0.0
C148 C 0.91839 0.46768 0.00855 0.0
C149 C 0.94342 0.49037 0.98859 0.0
C150 C 0.00339 0.49268 0.0984 0.0
C151 C 0.01981 0.48095 0.10374 0.0
C152 C 0.02476 0.46446 0.0913 0.0
C153 C 0.01365 0.45982 0.07388 0.0
C154 C 0.99737 0.47178 0.06873 0.0
C155 C 0.99253 0.48792 0.0809 0.0
C156 C 0.975 0.49918 0.07295 0.0
C157 C 0.97014 0.48719 0.05395 0.0
C158 C 0.98321 0.47109 0.0516 0.0
C159 C 0.95775 0.4977 0.08841 0.0
C160 C 0.98232 0.52096 0.06844 0.0
H161 H 0.94382 0.44918 0.98287 0.0
H162 H 0.99826 0.40468 0.00465 0.0
H163 H 0.01635 0.45059 0.00922 0.0
H164 H 0.02161 0.4564 0.03445 0.0
H165 H 0.02448 0.43095 0.02523 0.0
H166 H 0.97482 0.41552 0.04448 0.0
H167 H 1.00115 0.4105 0.04332 0.0
H168 H 0.9914 0.42843 0.06103 0.0
H169 H 0.90456 0.51068 1.00109 0.0
H170 H 0.91421 0.54602 0.05544 0.0
H171 H 0.94187 0.52546 0.06429 0.0
H172 H 0.90907 0.46848 0.02231 0.0
H173 H 0.90835 0.47006 0.99555 0.0
H174 H 0.92368 0.45208 0.00803 0.0
H175 H 0.9515 0.5052 0.9898 0.0
H176 H 0.95438 0.48003 0.98199 0.0
H177 H 0.93073 0.49195 0.97794 0.0
H178 H 0.9504 0.41899 0.96381 0.0
C179 C 0.95573 0.43999 0.98802 0.0
C180 C 0.64367 0.81228 0.25255 0.0
C181 C 0.62938 0.79638 0.25169 0.0
C182 C 0.62946 0.78286 0.23521 0.0
C183 C 0.658 0.80095 0.22107 0.0
C184 C 0.65763 0.81437 0.23708 0.0
C185 C 0.67336 0.83085 0.23544 0.0
H186 H 0.75362 0.87119 0.18773 0.0
C187 C 0.67445 0.80743 0.20761 0.0
C188 C 0.68331 0.82509 0.21586 0.0
H189 H 0.72487 0.8925 0.2417 0.0
H190 H 0.69983 0.86597 0.23872 0.0
H191 H 0.71281 0.86307 0.1631 0.0
H192 H 0.74941 0.82359 0.19729 0.0
H193 H 0.74315 0.81154 0.17436 0.0
H194 H 0.75744 0.83486 0.17433 0.0
H195 H 0.73553 0.85308 0.15318 0.0
H196 H 0.71173 0.83957 0.15074 0.0
C197 C 0.66262 0.85123 0.23409 0.0
C198 C 0.68787 0.82927 0.25351 0.0
C199 C 0.6919 0.76464 0.14661 0.0
C200 C 0.70612 0.76709 0.13129 0.0
C201 C 0.7186 0.78453 0.13132 0.0
C202 C 0.71726 0.79911 0.14661 0.0
C203 C 0.70322 0.79632 0.16201 0.0
C204 C 0.69057 0.77949 0.16165 0.0
C205 C 0.67586 0.77961 0.17869 0.0
C206 C 0.68214 0.799 0.18962 0.0
C207 C 0.69832 0.8086 0.17989 0.0
C208 C 0.65436 0.78061 0.16985 0.0
C209 C 0.67947 0.76087 0.19153 0.0
C210 C 0.74179 0.87025 0.19877 0.0
C211 C 0.74144 0.88381 0.21516 0.0
C212 C 0.72578 0.882 0.22919 0.0
C213 C 0.71116 0.8666 0.2274 0.0
C214 C 0.71211 0.85273 0.2114 0.0
C215 C 0.72702 0.85485 0.19721 0.0
C216 C 0.7254 0.83875 0.18112 0.0
C217 C 0.70728 0.82649 0.18823 0.0
C218 C 0.69969 0.83471 0.20604 0.0
C219 C 0.72129 0.84901 0.1609 0.0
C220 C 0.74486 0.82652 0.18159 0.0
H221 H 0.64312 0.77415 0.2079 0.0
H222 H 0.64375 0.8231 0.26485 0.0
H223 H 0.69068 0.81323 0.25686 0.0
H224 H 0.70286 0.83607 0.25079 0.0
H225 H 0.68146 0.83631 0.26716 0.0
H226 H 0.64756 0.84929 0.22695 0.0
H227 H 0.66043 0.85809 0.24916 0.0
H228 H 0.67072 0.86216 0.22454 0.0
H229 H 0.68187 0.75155 0.14674 0.0
H230 H 0.72968 0.78668 0.11968 0.0
H231 H 0.72733 0.81194 0.14591 0.0
H232 H 0.65437 0.78867 0.15539 0.0
H233 H 0.64778 0.7653 0.16703 0.0
H234 H 0.64414 0.78922 0.17953 0.0
H235 H 0.69583 0.75876 0.1938 0.0
H236 H 0.67307 0.76209 0.20668 0.0
H237 H 0.67314 0.74703 0.18409 0.0
H238 H 0.6186 0.77046 0.23428 0.0
C239 C 0.64373 0.785 0.21995 0.0
C240 C 0.02911 0.92005 0.5265 0.0
C241 C 0.01399 0.90506 0.52349 0.0
C242 C 1.00168 0.90606 0.50629 0.0
C243 C 0.01981 0.93608 0.49551 0.0
C244 C 0.03189 0.93516 0.51231 0.0
C245 C 0.048 0.95146 0.51277 0.0
H246 H 0.0984 0.02513 0.46415 0.0
C247 C 0.02705 0.95326 0.48344 0.0
C248 C 0.04371 0.96221 0.49339 0.0
H249 H 0.1088 0.0043 0.52442 0.0
H250 H 0.08042 0.98156 0.52121 0.0
H251 H 0.05334 0.03133 0.47212 0.0
H252 H 0.08372 0.98309 0.4425 0.0
H253 H 0.06315 0.99005 0.4276 0.0
H254 H 0.08275 0.00834 0.43339 0.0
H255 H 0.05991 0.03264 0.4462 0.0
H256 H 0.03627 0.02157 0.45418 0.0
C257 C 0.04466 0.96518 0.53137 0.0
C258 C 0.06863 0.94124 0.51238 0.0
C259 C 0.99117 0.97039 0.41875 0.0
C260 C 0.99458 0.98531 0.40433 0.0
C261 C 0.0111 0.9988 0.40686 0.0
C262 C 0.02406 0.9974 0.42334 0.0
C263 C 0.02046 0.98241 0.43758 0.0
C264 C 0.00419 0.96927 0.4352 0.0
C265 C 0.00271 0.95431 0.45186 0.0
C266 C 0.02046 0.96102 0.4649 0.0
C267 C 0.0309 0.97734 0.45633 0.0
C268 C 0.98248 0.95719 0.4627 0.0
C269 C 0.00541 0.93295 0.44275 0.0
C270 C 0.0947 0.01595 0.47688 0.0
C271 C 0.10658 0.01653 0.49444 0.0
C272 C 0.10071 0.00392 0.51036 0.0
C273 C 0.08396 0.99076 0.5086 0.0
C274 C 0.07256 0.9903 0.49088 0.0
C275 C 0.07767 0.00318 0.47564 0.0
C276 C 0.06261 0.00223 0.45879 0.0
C277 C 0.04817 0.98589 0.46602 0.0
C278 C 0.05428 0.97868 0.48465 0.0
C279 C 0.05253 0.02298 0.45756 0.0
C280 C 0.07353 0.99569 0.43944 0.0
H281 H 0.99463 0.9213 0.47963 0.0
H282 H 0.0387 0.92009 0.53961 0.0
H283 H 0.06851 0.92863 0.50123 0.0
H284 H 0.08108 0.95141 0.50794 0.0
H285 H 0.07225 0.93495 0.52723 0.0
H286 H 0.02848 0.96557 0.5354 0.0
H287 H 0.05296 0.95976 0.5446 0.0
H288 H 0.04904 0.98108 0.52873 0.0
H289 H 0.97853 0.95987 0.41736 0.0
H290 H 0.01426 0.01023 0.39585 0.0
H291 H 0.03649 0.00795 0.42426 0.0
H292 H 0.97942 0.97347 0.46469 0.0
H293 H 0.96985 0.9502 0.45393 0.0
H294 H 0.98226 0.95098 0.47791 0.0
H295 H 0.0152 0.93342 0.42931 0.0
H296 H 0.01304 0.92278 0.45307 0.0
H297 H 0.99076 0.92598 0.4381 0.0
H298 H 0.99015 0.89464 0.50324 0.0
C299 C 0.00444 0.92149 0.49241 0.0
C300 C 0.25026 0.6471 0.81393 0.0
C301 C 0.25182 0.63529 0.79642 0.0
C302 C 0.23751 0.63734 0.78104 0.0
C303 C 0.22078 0.66304 0.80049 0.0
C304 C 0.23483 0.66095 0.81555 0.0
C305 C 0.23196 0.67567 0.83254 0.0
H306 H 0.18543 0.75704 0.87006 0.0
C307 C 0.20726 0.67937 0.80653 0.0
C308 C 0.21386 0.68691 0.82524 0.0
H309 H 0.23455 0.72476 0.89584 0.0
H310 H 0.23264 0.70044 0.86882 0.0
H311 H 0.15894 0.71643 0.85834 0.0
H312 H 0.19948 0.75458 0.82519 0.0
H313 H 0.17873 0.74872 0.80965 0.0
H314 H 0.17501 0.7623 0.83283 0.0
H315 H 0.15184 0.74061 0.84958 0.0
H316 H 0.14883 0.71816 0.83416 0.0
C317 C 0.22719 0.66359 0.85166 0.0
C318 C 0.25106 0.68947 0.83408 0.0
C319 C 0.14928 0.69836 0.76127 0.0
C320 C 0.13484 0.71341 0.76265 0.0
C321 C 0.13518 0.72655 0.77943 0.0
C322 C 0.14956 0.72475 0.79459 0.0
C323 C 0.16394 0.70971 0.79298 0.0
C324 C 0.16368 0.69685 0.77651 0.0
C325 C 0.18048 0.68213 0.77715 0.0
C326 C 0.19048 0.68794 0.79697 0.0
C327 C 0.18073 0.70414 0.80612 0.0
C328 C 0.17111 0.66059 0.77749 0.0
C329 C 0.1945 0.68618 0.75912 0.0
C330 C 0.19558 0.74458 0.87003 0.0
C331 C 0.2104 0.74306 0.88497 0.0
C332 C 0.22332 0.72659 0.88429 0.0
C333 C 0.22216 0.71242 0.86859 0.0
C334 C 0.20795 0.71467 0.85328 0.0
C335 C 0.19464 0.73025 0.85439 0.0
C336 C 0.18032 0.72996 0.83691 0.0
C337 C 0.18765 0.71202 0.82487 0.0
C338 C 0.20393 0.70324 0.83449 0.0
C339 C 0.15879 0.72625 0.84501 0.0
C340 C 0.18332 0.74993 0.82551 0.0
H341 H 0.21152 0.65192 0.77081 0.0
H342 H 0.26123 0.64607 0.82586 0.0
H343 H 0.25735 0.69249 0.81899 0.0
H344 H 0.24816 0.70451 0.84048 0.0
H345 H 0.26295 0.68237 0.84304 0.0
H346 H 0.21824 0.64964 0.84797 0.0
H347 H 0.24117 0.65904 0.85927 0.0
H348 H 0.21784 0.67193 0.86242 0.0
H349 H 0.14959 0.68821 0.74844 0.0
H350 H 0.1241 0.73812 0.78095 0.0
H351 H 0.14897 0.7352 0.80695 0.0
H352 H 0.15807 0.65995 0.78783 0.0
H353 H 0.16569 0.65579 0.76238 0.0
H354 H 0.18159 0.64933 0.78301 0.0
H355 H 0.19448 0.7023 0.75488 0.0
H356 H 0.2104 0.68322 0.76247 0.0
H357 H 0.18968 0.67709 0.74577 0.0
H358 H 0.23837 0.6283 0.76746 0.0
C359 C 0.22194 0.65105 0.78303 0.0
C360 C 0.91969 0.4976 0.49147 0.0
C361 C 0.91421 0.48082 0.47936 0.0
C362 C 0.92717 0.47493 0.46382 0.0
C363 C 0.94982 0.50309 0.47164 0.0
C364 C 0.93746 0.50851 0.48729 0.0
C365 C 0.94498 0.52739 0.49793 0.0
H366 H 0.0123 0.60553 0.50368 0.0
C367 C 0.96649 0.51815 0.47057 0.0
C368 C 0.96381 0.53239 0.48604 0.0
H369 H 0.96057 0.59446 0.54113 0.0
H370 H 0.95317 0.56334 0.52313 0.0
H371 H 0.99086 0.59365 0.46344 0.0
H372 H 0.02763 0.55955 0.50275 0.0
H373 H 0.03445 0.5529 0.47821 0.0
H374 H 0.03781 0.57867 0.48678 0.0
H375 H 0.01762 0.59719 0.46474 0.0
H376 H 0.00591 0.57878 0.44804 0.0
C377 C 0.92888 0.54365 0.49572 0.0
C378 C 0.94996 0.52207 0.51983 0.0
C379 C 0.01681 0.51499 0.41339 0.0
C380 C 0.03284 0.5279 0.40785 0.0
C381 C 0.03848 0.54413 0.42067 0.0
C382 C 0.02789 0.54799 0.43828 0.0
C383 C 0.0113 0.5356 0.44317 0.0
C384 C 0.00621 0.51919 0.43105 0.0
C385 C 0.98796 0.50789 0.43863 0.0
C386 C 0.9828 0.52045 0.45705 0.0
C387 C 0.99649 0.53671 0.45952 0.0
C388 C 0.97136 0.50852 0.42235 0.0
C389 C 0.99428 0.48641 0.44419 0.0
C390 C 0.99954 0.59627 0.50817 0.0
C391 C 0.98698 0.60249 0.52381 0.0
C392 C 0.97033 0.59012 0.52897 0.0
C393 C 0.9661 0.57201 0.51854 0.0
C394 C 0.97853 0.56622 0.50263 0.0
C395 C 0.995 0.57823 0.49779 0.0
C396 C 0.00623 0.57003 0.48012 0.0
C397 C 0.99385 0.55108 0.47519 0.0
C398 C 0.97763 0.54892 0.4884 0.0
C399 C 0.00533 0.58566 0.46316 0.0
C400 C 0.02773 0.56511 0.48713 0.0
H401 H 0.95397 0.48076 0.44776 0.0
H402 H 0.90999 0.5026 0.50341 0.0
H403 H 0.95671 0.50696 0.52057 0.0
H404 H 0.96121 0.53249 0.5268 0.0
H405 H 0.9362 0.52176 0.52917 0.0
H406 H 0.92122 0.54224 0.48092 0.0
H407 H 0.91719 0.54217 0.50745 0.0
H408 H 0.93525 0.55914 0.49618 0.0
H409 H 0.01208 0.50245 0.4038 0.0
H410 H 0.05098 0.55409 0.41688 0.0
H411 H 0.03279 0.56077 0.44718 0.0
H412 H 0.97145 0.52345 0.41505 0.0
H413 H 0.9737 0.49691 0.4105 0.0
H414 H 0.95607 0.50655 0.42837 0.0
H415 H 0.00992 0.48656 0.45012 0.0
H416 H 0.98506 0.47989 0.45629 0.0
H417 H 0.99365 0.47611 0.43094 0.0
H418 H 0.92344 0.46189 0.45447 0.0
C419 C 0.94493 0.4859 0.45995 0.0
C420 C 0.81905 0.7693 0.87166 0.0
C421 C 0.80384 0.77038 0.88608 0.0
C422 C 0.79131 0.78714 0.8864 0.0
C423 C 0.80786 0.80024 0.85687 0.0
C424 C 0.82088 0.7844 0.85737 0.0
C425 C 0.83604 0.78526 0.8408 0.0
H426 H 0.86711 0.82432 0.75329 0.0
C427 C 0.81274 0.8123 0.83901 0.0
C428 C 0.82943 0.80374 0.82973 0.0
H429 H 0.89322 0.77661 0.78715 0.0
H430 H 0.86956 0.78186 0.81366 0.0
H431 H 0.86054 0.8551 0.79296 0.0
H432 H 0.82268 0.81204 0.76087 0.0
H433 H 0.80757 0.83227 0.76752 0.0
H434 H 0.82865 0.83645 0.75109 0.0
H435 H 0.85158 0.8591 0.768 0.0
H436 H 0.8369 0.86581 0.78961 0.0
C437 C 0.85721 0.78837 0.8503 0.0
C438 C 0.83337 0.7658 0.82786 0.0
C439 C 0.76635 0.86779 0.81772 0.0
C440 C 0.76544 0.87948 0.80042 0.0
C441 C 0.78058 0.87773 0.78589 0.0
C442 C 0.79628 0.86436 0.7884 0.0
C443 C 0.79673 0.85235 0.8055 0.0
C444 C 0.78196 0.85421 0.81984 0.0
C445 C 0.78431 0.83948 0.83651 0.0
C446 C 0.80301 0.82861 0.82989 0.0
C447 C 0.81024 0.83626 0.81172 0.0
C448 C 0.78785 0.85149 0.85631 0.0
C449 C 0.76545 0.82534 0.83649 0.0
C450 C 0.86789 0.81529 0.76659 0.0
C451 C 0.88188 0.79986 0.76804 0.0
C452 C 0.88237 0.78835 0.78555 0.0
C453 C 0.86862 0.79143 0.80096 0.0
C454 C 0.85404 0.80612 0.79889 0.0
C455 C 0.85411 0.81811 0.78219 0.0
C456 C 0.83739 0.83296 0.78276 0.0
C457 C 0.82736 0.82781 0.80252 0.0
C458 C 0.83707 0.81189 0.81171 0.0
C459 C 0.84694 0.85444 0.78322 0.0
C460 C 0.82332 0.82843 0.7646 0.0
H461 H 0.78296 0.81424 0.87258 0.0
H462 H 0.8291 0.75674 0.87131 0.0
H463 H 0.81716 0.76208 0.82539 0.0
H464 H 0.83984 0.7671 0.81277 0.0
H465 H 0.84017 0.75279 0.83533 0.0
H466 H 0.85646 0.79565 0.86538 0.0
H467 H 0.8648 0.77381 0.85206 0.0
H468 H 0.86697 0.79866 0.84155 0.0
H469 H 0.75476 0.86867 0.829 0.0
H470 H 0.78022 0.88671 0.77252 0.0
H471 H 0.80729 0.86367 0.77676 0.0
H472 H 0.79677 0.86558 0.85367 0.0
H473 H 0.7734 0.85579 0.86319 0.0
H474 H 0.79671 0.84318 0.86731 0.0
H475 H 0.76071 0.82136 0.8209 0.0
H476 H 0.76797 0.81081 0.84366 0.0
H477 H 0.75265 0.83269 0.84398 0.0
H478 H 0.7795 0.78827 0.89742 0.0
C479 C 0.79324 0.80208 0.87187 0.0
C480 C 0.31736 0.27115 0.37285 0.0
C481 C 0.30097 0.27159 0.38608 0.0
C482 C 0.286 0.2859 0.38303 0.0
C483 C 0.30356 0.29859 0.354 0.0
C484 C 0.31829 0.28468 0.35697 0.0
C485 C 0.3342 0.28563 0.34108 0.0
H486 H 0.36649 0.32184 0.25255 0.0
C487 C 0.30872 0.31003 0.33585 0.0
C488 C 0.32668 0.30255 0.32823 0.0
H489 H 0.39255 0.27586 0.28878 0.0
H490 H 0.36826 0.28174 0.31456 0.0
H491 H 0.36005 0.35326 0.28987 0.0
H492 H 0.32 0.30999 0.2607 0.0
H493 H 0.30781 0.33311 0.26343 0.0
H494 H 0.3302 0.33192 0.24864 0.0
H495 H 0.34819 0.35845 0.26643 0.0
H496 H 0.33605 0.36355 0.29004 0.0
C497 C 0.35453 0.29134 0.35131 0.0
C498 C 0.33382 0.26512 0.32966 0.0
C499 C 0.26226 0.36419 0.31198 0.0
C500 C 0.2633 0.37783 0.29616 0.0
C501 C 0.27991 0.37743 0.28316 0.0
C502 C 0.29512 0.36346 0.28573 0.0
C503 C 0.2938 0.34982 0.30155 0.0
C504 C 0.27769 0.35053 0.3145 0.0
C505 C 0.27923 0.33558 0.33103 0.0
C506 C 0.29887 0.32571 0.32585 0.0
C507 C 0.30722 0.33389 0.30841 0.0
C508 C 0.28055 0.34736 0.35123 0.0
C509 C 0.26109 0.32058 0.32916 0.0
C510 C 0.36707 0.31327 0.26617 0.0
C511 C 0.3812 0.29808 0.26846 0.0
C512 C 0.38153 0.28731 0.28646 0.0
C513 C 0.36739 0.29073 0.30143 0.0
C514 C 0.3526 0.30504 0.29846 0.0
C515 C 0.35288 0.31644 0.28134 0.0
C516 C 0.33607 0.3312 0.2811 0.0
C517 C 0.32525 0.32609 0.30045 0.0
C518 C 0.335 0.31067 0.31046 0.0
C519 C 0.34543 0.35279 0.28175 0.0
C520 C 0.32278 0.3265 0.26247 0.0
H521 H 0.27528 0.30975 0.36567 0.0
H522 H 0.32921 0.2605 0.37474 0.0
H523 H 0.31822 0.25883 0.32834 0.0
H524 H 0.33907 0.26623 0.31408 0.0
H525 H 0.34291 0.25392 0.33757 0.0
H526 H 0.35234 0.30173 0.36429 0.0
H527 H 0.36202 0.27779 0.35694 0.0
H528 H 0.36493 0.29961 0.34135 0.0
H529 H 0.24986 0.36439 0.32241 0.0
H530 H 0.28099 0.38779 0.27085 0.0
H531 H 0.30728 0.36377 0.27526 0.0
H532 H 0.28891 0.36194 0.34952 0.0
H533 H 0.26537 0.35075 0.35698 0.0
H534 H 0.28896 0.33939 0.36282 0.0
H535 H 0.25724 0.31745 0.31317 0.0
H536 H 0.26412 0.30569 0.33541 0.0
H537 H 0.24757 0.32673 0.33648 0.0
H538 H 0.27296 0.2864 0.39262 0.0
C539 C 0.28725 0.29939 0.36718 0.0
C540 C 0.48579 0.9136 0.50053 0.0
C541 C 0.47342 0.9081 0.48414 0.0
C542 C 0.45769 0.92081 0.47881 0.0
C543 C 0.46646 0.94367 0.50627 0.0
C544 C 0.482 0.93132 0.51138 0.0
C545 C 0.49317 0.9389 0.52971 0.0
H546 H 0.50617 0.00984 0.60264 0.0
C547 C 0.46638 0.96074 0.52075 0.0
C548 C 0.48207 0.95805 0.53448 0.0
H549 H 0.5373 0.95383 0.59504 0.0
H550 H 0.51803 0.94613 0.56532 0.0
H551 H 0.46227 0.98937 0.59363 0.0
H552 H 0.50463 0.02215 0.5573 0.0
H553 H 0.48063 0.02954 0.54993 0.0
H554 H 0.48909 0.03455 0.57529 0.0
H555 H 0.4676 0.01583 0.59696 0.0
H556 H 0.44878 0.00654 0.57949 0.0
C557 C 0.49054 0.92304 0.54636 0.0
C558 C 0.51525 0.94339 0.52375 0.0
C559 C 0.41278 0.01387 0.51632 0.0
C560 C 0.40928 0.03162 0.52746 0.0
C561 C 0.42325 0.03764 0.54249 0.0
C562 C 0.43979 0.02589 0.54692 0.0
C563 C 0.44261 0.00787 0.5362 0.0
C564 C 0.42953 0.00235 0.52086 0.0
C565 C 0.43555 0.98314 0.5105 0.0
C566 C 0.45397 0.97776 0.52261 0.0
C567 C 0.45788 0.99222 0.53778 0.0
C568 C 0.41824 0.96736 0.51281 0.0
C569 C 0.44088 0.98804 0.48853 0.0
C570 C 0.50878 0.9958 0.59477 0.0
C571 C 0.52353 0.98256 0.60135 0.0
C572 C 0.52644 0.96461 0.59024 0.0
C573 C 0.51505 0.96001 0.57302 0.0
C574 C 0.50032 0.97333 0.5668 0.0
C575 C 0.49729 0.9908 0.5777 0.0
C576 C 0.48034 0.0027 0.5694 0.0
C577 C 0.47376 0.98951 0.55167 0.0
C578 C 0.48564 0.97242 0.55014 0.0
C579 C 0.46385 0.00388 0.58564 0.0
C580 C 0.48894 0.0234 0.56272 0.0
H581 H 0.4419 0.94747 0.48499 0.0
H582 H 0.49779 0.90401 0.50521 0.0
H583 H 0.51595 0.951 0.50906 0.0
H584 H 0.52322 0.95369 0.53437 0.0
H585 H 0.52373 0.92926 0.52238 0.0
H586 H 0.47623 0.9142 0.54447 0.0
H587 H 0.50297 0.91222 0.54616 0.0
H588 H 0.4895 0.92995 0.56147 0.0
H589 H 0.40249 0.00873 0.50463 0.0
H590 H 0.42145 0.05152 0.55092 0.0
H591 H 0.44967 0.03126 0.55865 0.0
H592 H 0.41178 0.96822 0.52811 0.0
H593 H 0.40595 0.96998 0.50195 0.0
H594 H 0.42316 0.95172 0.51097 0.0
H595 H 0.44736 0.00357 0.48733 0.0
H596 H 0.45255 0.97824 0.48233 0.0
H597 H 0.42736 0.98697 0.47875 0.0
H598 H 0.44806 0.917 0.46614 0.0
C599 C 0.45418 0.93854 0.48973 0.0
C600 C 0.14655 0.3132 0.75442 0.0
C601 C 0.13487 0.29541 0.75596 0.0
C602 C 0.1375 0.27972 0.74185 0.0
C603 C 0.16324 0.29959 0.7251 0.0
C604 C 0.16071 0.31487 0.73907 0.0
C605 C 0.1753 0.3322 0.73619 0.0
H606 H 0.2564 0.37122 0.68879 0.0
C607 C 0.17948 0.30598 0.71138 0.0
C608 C 0.18668 0.32501 0.71791 0.0
H609 H 0.22534 0.39523 0.74025 0.0
H610 H 0.20058 0.36832 0.73776 0.0
H611 H 0.21647 0.36103 0.66326 0.0
H612 H 0.25296 0.32442 0.70057 0.0
H613 H 0.248 0.31145 0.67776 0.0
H614 H 0.26133 0.33527 0.67751 0.0
H615 H 0.23889 0.3499 0.65396 0.0
H616 H 0.21487 0.33662 0.65285 0.0
C617 C 0.16315 0.35118 0.73174 0.0
C618 C 0.18893 0.33408 0.75507 0.0
C619 C 0.19883 0.26073 0.65284 0.0
C620 C 0.21232 0.26333 0.63693 0.0
C621 C 0.22402 0.28125 0.63598 0.0
C622 C 0.22248 0.29629 0.65079 0.0
C623 C 0.20896 0.29349 0.66664 0.0
C624 C 0.19721 0.27607 0.66734 0.0
C625 C 0.18286 0.27625 0.68466 0.0
C626 C 0.18797 0.29662 0.69425 0.0
C627 C 0.2035 0.3065 0.6838 0.0
C628 C 0.16118 0.27522 0.67616 0.0
C629 C 0.18803 0.25868 0.69858 0.0
C630 C 0.24411 0.37079 0.69934 0.0
C631 C 0.24305 0.38518 0.71497 0.0
C632 C 0.22678 0.38408 0.72837 0.0
C633 C 0.21238 0.36844 0.72689 0.0
C634 C 0.2142 0.3536 0.71188 0.0
C635 C 0.22959 0.35514 0.69813 0.0
C636 C 0.22891 0.338 0.68309 0.0
C637 C 0.21119 0.3255 0.69074 0.0
C638 C 0.20269 0.33474 0.7076 0.0
C639 C 0.22471 0.34671 0.66214 0.0
C640 C 0.24884 0.32664 0.68462 0.0
H641 H 0.15283 0.26928 0.71611 0.0
H642 H 0.14511 0.32534 0.76529 0.0
H643 H 0.19054 0.31928 0.76238 0.0
H644 H 0.20449 0.33896 0.75162 0.0
H645 H 0.18263 0.3446 0.76635 0.0
H646 H 0.15007 0.34732 0.72187 0.0
H647 H 0.15727 0.35801 0.74575 0.0
H648 H 0.17191 0.36273 0.7236 0.0
H649 H 0.18942 0.24724 0.65372 0.0
H650 H 0.23452 0.28351 0.62383 0.0
H651 H 0.23188 0.30952 0.64932 0.0
H652 H 0.16006 0.28433 0.6624 0.0
H653 H 0.15654 0.25949 0.67216 0.0
H654 H 0.15005 0.28155 0.68651 0.0
H655 H 0.2045 0.25626 0.69887 0.0
H656 H 0.18403 0.26163 0.71436 0.0
H657 H 0.18056 0.24438 0.69342 0.0
H658 H 0.1286 0.26589 0.74276 0.0
C659 C 0.15154 0.28175 0.72638 0.0
C660 C 0.77728 0.13771 0.70786 0.0
C661 C 0.75924 0.13494 0.6971 0.0
C662 C 0.7546 0.14866 0.68199 0.0
C663 C 0.78493 0.16833 0.68981 0.0
C664 C 0.78977 0.15443 0.70408 0.0
C665 C 0.80896 0.15991 0.71497 0.0
H666 H 0.88068 0.22965 0.7382 0.0
C667 C 0.80037 0.18475 0.69073 0.0
C668 C 0.81442 0.17989 0.7055 0.0
H669 H 0.87519 0.16823 0.75882 0.0
H670 H 0.84658 0.16244 0.73748 0.0
H671 H 0.83406 0.23983 0.73511 0.0
H672 H 0.87561 0.21593 0.6923 0.0
H673 H 0.85993 0.23193 0.67916 0.0
H674 H 0.87572 0.24215 0.69906 0.0
H675 H 0.85435 0.25453 0.72473 0.0
H676 H 0.83035 0.25206 0.71228 0.0
C677 C 0.80411 0.16235 0.73752 0.0
C678 C 0.82456 0.1436 0.71014 0.0
C679 C 0.79532 0.24512 0.64528 0.0
C680 C 0.80655 0.26326 0.64393 0.0
C681 C 0.82242 0.26716 0.65756 0.0
C682 C 0.82734 0.25304 0.67201 0.0
C683 C 0.81621 0.23482 0.67297 0.0
C684 C 0.8003 0.23123 0.65994 0.0
C685 C 0.78957 0.21147 0.66383 0.0
C686 C 0.80228 0.20337 0.68065 0.0
C687 C 0.81787 0.21712 0.68592 0.0
C688 C 0.76793 0.21594 0.67073 0.0
C689 C 0.79066 0.19813 0.64469 0.0
C690 C 0.87359 0.21483 0.7381 0.0
C691 C 0.88022 0.19959 0.75085 0.0
C692 C 0.8702 0.1806 0.74991 0.0
C693 C 0.85362 0.17712 0.73726 0.0
C694 C 0.84698 0.19264 0.7251 0.0
C695 C 0.85729 0.2109 0.72518 0.0
C696 C 0.84918 0.22496 0.70985 0.0
C697 C 0.83191 0.21229 0.70104 0.0
C698 C 0.83047 0.19355 0.71036 0.0
C699 C 0.84167 0.24397 0.72091 0.0
C700 C 0.8659 0.22918 0.69428 0.0
H701 H 0.76287 0.17544 0.66682 0.0
H702 H 0.78149 0.12719 0.71926 0.0
H703 H 0.82097 0.13544 0.69585 0.0
H704 H 0.83983 0.15014 0.70789 0.0
H705 H 0.82509 0.13222 0.7221 0.0
H706 H 0.79032 0.17123 0.73962 0.0
H707 H 0.80147 0.14746 0.74448 0.0
H708 H 0.81599 0.17051 0.7461 0.0
H709 H 0.7828 0.24189 0.63524 0.0
H710 H 0.8313 0.28101 0.65677 0.0
H711 H 0.83968 0.25683 0.68185 0.0
H712 H 0.76741 0.2306 0.67897 0.0
H713 H 0.75751 0.21669 0.65776 0.0
H714 H 0.76196 0.20481 0.68142 0.0
H715 H 0.80588 0.19932 0.63794 0.0
H716 H 0.78808 0.18198 0.64761 0.0
H717 H 0.77964 0.20288 0.63329 0.0
H718 H 0.74077 0.14686 0.67349 0.0
C719 C 0.76735 0.16534 0.67829 0.0
C720 C 0.53855 0.59749 0.49853 0.0
C721 C 0.52196 0.61001 0.50119 0.0
C722 C 0.5086 0.60588 0.51706 0.0
C723 C 0.52844 0.5777 0.5272 0.0
C724 C 0.54135 0.58142 0.5115 0.0
C725 C 0.55766 0.56619 0.51016 0.0
H726 H 0.60314 0.48562 0.54901 0.0
C727 C 0.53551 0.55986 0.53785 0.0
C728 C 0.55254 0.55293 0.52782 0.0
H729 H 0.61808 0.51727 0.49468 0.0
H730 H 0.59076 0.53954 0.50032 0.0
H731 H 0.59133 0.52496 0.57638 0.0
H732 H 0.55738 0.4824 0.53975 0.0
H733 H 0.54173 0.48888 0.55975 0.0
H734 H 0.56504 0.47653 0.56469 0.0
H735 H 0.58805 0.4988 0.58222 0.0
H736 H 0.56992 0.51698 0.58978 0.0
C737 C 0.57812 0.57746 0.51308 0.0
C738 C 0.55539 0.55461 0.48991 0.0
C739 C 0.49954 0.53638 0.60066 0.0
C740 C 0.50216 0.51996 0.61343 0.0
C741 C 0.51783 0.50662 0.60924 0.0
C742 C 0.5307 0.50969 0.59297 0.0
C743 C 0.52786 0.52615 0.58046 0.0
C744 C 0.51235 0.53903 0.58426 0.0
C745 C 0.511 0.55515 0.56879 0.0
C746 C 0.52845 0.54997 0.55525 0.0
C747 C 0.53838 0.53308 0.56228 0.0
C748 C 0.51436 0.57583 0.57945 0.0
C749 C 0.49049 0.55256 0.55784 0.0
C750 C 0.60053 0.49719 0.53816 0.0
C751 C 0.61316 0.49963 0.52145 0.0
C752 C 0.60907 0.51518 0.50796 0.0
C753 C 0.59299 0.52805 0.51114 0.0
C754 C 0.58059 0.52534 0.52787 0.0
C755 C 0.58434 0.50998 0.54093 0.0
C756 C 0.56901 0.50872 0.55737 0.0
C757 C 0.55562 0.52604 0.55216 0.0
C758 C 0.56258 0.53584 0.53497 0.0
C759 C 0.58002 0.51242 0.57759 0.0
C760 C 0.55772 0.48806 0.55551 0.0
H761 H 0.5011 0.58771 0.54182 0.0
H762 H 0.54927 0.60011 0.48667 0.0
H763 H 0.53946 0.55388 0.48481 0.0
H764 H 0.55966 0.53869 0.49091 0.0
H765 H 0.56435 0.56201 0.47801 0.0
H766 H 0.57722 0.5889 0.52536 0.0
H767 H 0.58263 0.5854 0.49924 0.0
H768 H 0.5903 0.56749 0.51747 0.0
H769 H 0.48786 0.5471 0.60332 0.0
H770 H 0.52004 0.49354 0.61835 0.0
H771 H 0.5423 0.49901 0.59069 0.0
H772 H 0.52683 0.57517 0.59053 0.0
H773 H 0.50066 0.58035 0.58761 0.0
H774 H 0.51878 0.58794 0.56915 0.0
H775 H 0.48501 0.5366 0.55784 0.0
H776 H 0.49138 0.55638 0.54182 0.0
H777 H 0.47884 0.56176 0.56515 0.0
H778 H 0.49539 0.61475 0.51931 0.0
C779 C 0.51181 0.58995 0.53008 0.0
C780 C 0.52928 0.41872 0.02528 0.0
C781 C 0.51231 0.40571 0.02347 0.0
C782 C 0.49832 0.40912 0.00803 0.0
C783 C 0.51837 0.43765 0.99657 0.0
C784 C 0.53191 0.43454 0.01184 0.0
C785 C 0.54894 0.44985 0.01203 0.0
H786 H 0.59558 0.53044 0.97032 0.0
C787 C 0.52564 0.45529 0.98514 0.0
C788 C 0.54347 0.46258 0.99426 0.0
H789 H 0.61317 0.49818 0.02298 0.0
H790 H 0.58404 0.47614 0.01943 0.0
H791 H 0.54926 0.53201 0.98089 0.0
H792 H 0.58198 0.49067 0.94393 0.0
H793 H 0.55979 0.49641 0.93116 0.0
H794 H 0.57791 0.51624 0.93703 0.0
H795 H 0.55813 0.53861 0.95648 0.0
H796 H 0.53408 0.52604 0.95999 0.0
C797 C 0.54821 0.46196 0.03203 0.0
C798 C 0.56873 0.43859 0.00852 0.0
C799 C 0.48828 0.47638 0.92263 0.0
C800 C 0.49171 0.49173 0.90867 0.0
C801 C 0.50798 0.50541 0.91186 0.0
C802 C 0.52089 0.50353 0.92833 0.0
C803 C 0.51754 0.48781 0.94185 0.0
C804 C 0.50129 0.47472 0.93901 0.0
C805 C 0.49989 0.45908 0.95504 0.0
C806 C 0.51818 0.46473 0.96777 0.0
C807 C 0.52851 0.48151 0.95991 0.0
C808 C 0.48005 0.46197 0.96663 0.0
C809 C 0.50177 0.43809 0.94492 0.0
C810 C 0.59322 0.51852 0.98098 0.0
C811 C 0.60674 0.51605 0.99694 0.0
C812 C 0.6029 0.50056 0.01068 0.0
C813 C 0.58601 0.48769 0.00853 0.0
C814 C 0.57267 0.49031 0.99249 0.0
C815 C 0.57633 0.50559 0.97911 0.0
C816 C 0.56035 0.5063 0.96316 0.0
C817 C 0.54653 0.48891 0.96918 0.0
C818 C 0.5539 0.47954 0.9863 0.0
C819 C 0.54991 0.52681 0.965 0.0
C820 C 0.57039 0.50234 0.94266 0.0
H821 H 0.49008 0.42666 0.98321 0.0
H822 H 0.54051 0.41655 0.03674 0.0
H823 H 0.56646 0.42621 0.99727 0.0
H824 H 0.58083 0.44827 0.00238 0.0
H825 H 0.57413 0.43181 0.02257 0.0
H826 H 0.53251 0.46322 0.03745 0.0
H827 H 0.55695 0.4546 0.04392 0.0
H828 H 0.55368 0.47771 0.03058 0.0
H829 H 0.47573 0.46581 0.92081 0.0
H830 H 0.51109 0.51726 0.90129 0.0
H831 H 0.53314 0.51426 0.92975 0.0
H832 H 0.476 0.47811 0.96725 0.0
H833 H 0.46739 0.45343 0.95934 0.0
H834 H 0.48114 0.45756 0.98246 0.0
H835 H 0.51344 0.43852 0.93306 0.0
H836 H 0.50656 0.42643 0.95533 0.0
H837 H 0.48737 0.43308 0.93779 0.0
H838 H 0.48491 0.39968 0.00641 0.0
C839 C 0.50127 0.42494 0.9946 0.0
C840 C 0.75466 0.15197 0.31164 0.0
C841 C 0.75593 0.1394 0.29462 0.0
C842 C 0.7415 0.14095 0.27928 0.0
C843 C 0.72481 0.16715 0.29809 0.0
C844 C 0.73917 0.16578 0.31298 0.0
C845 C 0.73632 0.18092 0.32961 0.0
H846 H 0.68105 0.25387 0.37194 0.0
C847 C 0.71078 0.18304 0.30414 0.0
C848 C 0.71752 0.19119 0.32257 0.0
H849 H 0.73893 0.23237 0.39091 0.0
H850 H 0.7388 0.20892 0.36348 0.0
H851 H 0.66108 0.21052 0.35612 0.0
H852 H 0.69428 0.25866 0.32816 0.0
H853 H 0.67726 0.24926 0.31004 0.0
H854 H 0.6679 0.26025 0.33295 0.0
H855 H 0.65143 0.2352 0.35262 0.0
H856 H 0.64905 0.21597 0.3334 0.0
C857 C 0.73267 0.1693 0.34921 0.0
C858 C 0.75489 0.19553 0.33022 0.0
C859 C 0.65085 0.1988 0.25998 0.0
C860 C 0.63555 0.21293 0.26173 0.0
C861 C 0.63501 0.22544 0.27895 0.0
C862 C 0.64947 0.22402 0.29409 0.0
C863 C 0.66482 0.21004 0.29202 0.0
C864 C 0.66533 0.19769 0.2752 0.0
C865 C 0.68302 0.18403 0.27545 0.0
C866 C 0.69306 0.19031 0.29512 0.0
C867 C 0.68224 0.2055 0.30477 0.0
C868 C 0.67489 0.16201 0.27579 0.0
C869 C 0.69647 0.18899 0.25723 0.0
C870 C 0.69382 0.24426 0.37029 0.0
C871 C 0.70983 0.24503 0.3842 0.0
C872 C 0.72596 0.23192 0.38112 0.0
C873 C 0.72608 0.21839 0.36486 0.0
C874 C 0.71015 0.21807 0.35108 0.0
C875 C 0.69449 0.23102 0.35377 0.0
C876 C 0.67972 0.22973 0.33666 0.0
C877 C 0.68903 0.21368 0.32345 0.0
C878 C 0.70668 0.20671 0.33215 0.0
C879 C 0.65914 0.22261 0.34501 0.0
C880 C 0.67956 0.25051 0.3264 0.0
H881 H 0.71533 0.15506 0.26883 0.0
H882 H 0.76578 0.15137 0.32348 0.0
H883 H 0.76263 0.19607 0.31552 0.0
H884 H 0.75079 0.21131 0.33333 0.0
H885 H 0.76605 0.19089 0.34152 0.0
H886 H 0.72196 0.1564 0.34657 0.0
H887 H 0.74691 0.1632 0.35498 0.0
H888 H 0.72592 0.17856 0.36112 0.0
H889 H 0.65178 0.1891 0.24685 0.0
H890 H 0.62324 0.23625 0.28079 0.0
H891 H 0.64817 0.23393 0.30681 0.0
H892 H 0.66164 0.16065 0.28581 0.0
H893 H 0.6701 0.15677 0.2606 0.0
H894 H 0.68584 0.15144 0.28174 0.0
H895 H 0.69627 0.20533 0.25389 0.0
H896 H 0.71245 0.18586 0.25987 0.0
H897 H 0.6912 0.1806 0.24361 0.0
H898 H 0.74218 0.13137 0.26604 0.0
C899 C 0.7259 0.15466 0.28096 0.0
C900 C 0.42034 0.99821 0.99212 0.0
C901 C 0.41443 0.9816 0.97998 0.0
C902 C 0.42707 0.97559 0.96422 0.0
C903 C 0.4503 0.0033 0.97195 0.0
C904 C 0.43823 0.00885 0.98778 0.0
C905 C 0.44615 0.02757 0.99841 0.0
H906 H 0.51428 0.105 0.00343 0.0
C907 C 0.46718 0.01812 0.97074 0.0
C908 C 0.46488 0.03235 0.98629 0.0
H909 H 0.46313 0.09414 0.04172 0.0
H910 H 0.45521 0.06316 0.02373 0.0
H911 H 0.49219 0.0933 0.96344 0.0
H912 H 0.5292 0.05876 0.00214 0.0
H913 H 0.53566 0.05222 0.97747 0.0
H914 H 0.53932 0.07791 0.98618 0.0
H915 H 0.51898 0.09666 0.96443 0.0
H916 H 0.50697 0.07835 0.94783 0.0
C917 C 0.43026 0.04408 0.99649 0.0
C918 C 0.45133 0.02207 0.02022 0.0
C919 C 0.51688 0.01417 0.91312 0.0
C920 C 0.53296 0.02688 0.90734 0.0
C921 C 0.53886 0.04318 0.91998 0.0
C922 C 0.52849 0.04725 0.93769 0.0
C923 C 0.51186 0.03502 0.94283 0.0
C924 C 0.50649 0.01859 0.93084 0.0
C925 C 0.48817 0.00755 0.93861 0.0
C926 C 0.48334 0.02023 0.95704 0.0
C927 C 0.49724 0.03634 0.95934 0.0
C928 C 0.47145 0.00836 0.92246 0.0
C929 C 0.49426 0.98601 0.94418 0.0
C930 C 0.50153 0.09581 0.0081 0.0
C931 C 0.48927 0.10208 0.02397 0.0
C932 C 0.47265 0.08979 0.02938 0.0
C933 C 0.46812 0.07175 0.01895 0.0
C934 C 0.48022 0.06594 0.0028 0.0
C935 C 0.4967 0.07783 0.99773 0.0
C936 C 0.50759 0.06955 0.97988 0.0
C937 C 0.49497 0.05072 0.97508 0.0
C938 C 0.47893 0.0487 0.98852 0.0
C939 C 0.5066 0.08521 0.96296 0.0
C940 C 0.52914 0.06442 0.98656 0.0
H941 H 0.45376 0.98104 0.94786 0.0
H942 H 0.41088 0.00332 0.00422 0.0
H943 H 0.45771 0.00678 0.02082 0.0
H944 H 0.46297 0.03218 0.02702 0.0
H945 H 0.43774 0.02209 0.02979 0.0
H946 H 0.42245 0.04288 0.98175 0.0
H947 H 0.41868 0.04267 0.00832 0.0
H948 H 0.43684 0.05948 0.997 0.0
H949 H 0.51193 1.00161 0.90364 0.0
H950 H 0.55138 0.05301 0.91598 0.0
H951 H 0.53358 0.06005 0.94645 0.0
H952 H 0.47187 0.02314 0.91487 0.0
H953 H 0.47332 0.99645 0.91081 0.0
H954 H 0.45617 0.00698 0.92867 0.0
H955 H 0.50984 0.98604 0.95026 0.0
H956 H 0.48486 0.9795 0.95613 0.0
H957 H 0.49371 0.97577 0.93088 0.0
H958 H 0.42298 0.96268 0.95483 0.0
C959 C 0.44496 0.98627 0.9602 0.0
Mn960 Mn 0.25465 0.87543 0.00739 0.0
Mn961 Mn 0.24992 0.88957 0.95939 0.0
C962 C 0.23734 0.85499 0.98442 0.0
C963 C 0.27167 0.85853 0.03235 0.0
C964 C 0.22614 0.90778 0.99347 0.0
O965 O 0.27684 0.89716 0.00473 0.0
O966 O 0.2734 0.90385 0.97191 0.0
C967 C 0.28701 0.8723 0.9429 0.0
N968 N 0.26664 0.87354 0.94269 0.0
C969 C 0.26378 0.84964 0.91532 0.0
C970 C 0.28474 0.8482 0.91518 0.0
C971 C 0.2964 0.85956 0.92905 0.0
C972 C 0.25528 0.86268 0.9294 0.0
H973 H 0.29603 0.88094 0.95359 0.0
C974 C 0.28235 0.90624 0.98884 0.0
O975 O 0.25948 0.87288 0.03672 0.0
O976 O 0.27469 0.85476 0.01353 0.0
N977 N 0.22787 0.87637 0.94567 0.0
C978 C 0.20781 0.87855 0.94859 0.0
C979 C 0.19403 0.86773 0.93631 0.0
C980 C 0.20102 0.85484 0.92115 0.0
C981 C 0.22173 0.85293 0.91836 0.0
C982 C 0.23474 0.86422 0.93094 0.0
H983 H 0.20235 0.88838 0.96025 0.0
O984 O 0.23382 0.8533 0.0034 0.0
O985 O 0.25052 0.86874 0.97962 0.0
O986 O 0.23298 0.89674 0.00722 0.0
O987 O 0.23182 0.90666 0.97526 0.0
C988 C 0.22997 0.83996 0.90386 0.0
C989 C 0.25098 0.8383 0.90236 0.0
H990 H 0.29203 0.83828 0.90461 0.0
H991 H 0.31257 0.85845 0.9291 0.0
H992 H 0.17807 0.86925 0.93859 0.0
H993 H 0.19035 0.84637 0.91185 0.0
H994 H 0.22027 0.83095 0.89401 0.0
H995 H 0.25712 0.82804 0.89136 0.0
Mn996 Mn 0.14059 0.50384 0.25145 0.0
Mn997 Mn 0.12415 0.5513 0.2477 0.0
C998 C 0.15894 0.52771 0.23385 0.0
C999 C 0.15935 0.47962 0.26744 0.0
C1000 C 0.10692 0.5162 0.2231 0.0
O1001 O 0.11999 0.50532 0.27399 0.0
O1002 O 0.11085 0.53747 0.27038 0.0
C1003 C 0.14138 0.56788 0.2856 0.0
N1004 N 0.13958 0.56862 0.26532 0.0
C1005 C 0.1616 0.59785 0.26405 0.0
C1006 C 0.16358 0.59747 0.28493 0.0
C1007 C 0.15345 0.5824 0.29574 0.0
C1008 C 0.14929 0.58303 0.25477 0.0
H1009 H 0.13369 0.55628 0.29397 0.0
C1010 C 0.10982 0.52055 0.2793 0.0
O1011 O 0.14451 0.47454 0.25559 0.0
O1012 O 0.16259 0.49871 0.27075 0.0
N1013 N 0.13599 0.56655 0.22653 0.0
C1014 C 0.13312 0.56434 0.20641 0.0
C1015 C 0.14247 0.57805 0.19342 0.0
C1016 C 0.15455 0.59395 0.20125 0.0
C1017 C 0.15709 0.59605 0.22202 0.0
C1018 C 0.14724 0.58205 0.23424 0.0
H1019 H 0.12387 0.55214 0.20029 0.0
O1020 O 0.16122 0.50869 0.23018 0.0
O1021 O 0.14599 0.53216 0.24759 0.0
O1022 O 0.1181 0.50283 0.23041 0.0
O1023 O 0.10784 0.53469 0.22865 0.0
C1024 C 0.16931 0.61128 0.23106 0.0
C1025 C 0.17161 0.61214 0.25205 0.0
H1026 H 0.17296 0.60858 0.2928 0.0
H1027 H 0.15499 0.58195 0.31185 0.0
H1028 H 0.14044 0.57632 0.17741 0.0
H1029 H 0.16192 0.60436 0.19118 0.0
H1030 H 0.17723 0.62223 0.22199 0.0
H1031 H 0.18126 0.62375 0.2588 0.0
Mn1032 Mn 0.75509 0.63034 0.008 0.0
Mn1033 Mn 0.71326 0.64471 0.98399 0.0
C1034 C 0.72634 0.61006 0.00879 0.0
C1035 C 0.78602 0.6146 0.00765 0.0
C1036 C 0.72798 0.66328 0.02344 0.0
O1037 O 0.7652 0.65271 0.98966 0.0
O1038 O 0.73718 0.65765 0.97145 0.0
C1039 C 0.71975 0.62504 0.94458 0.0
N1040 N 0.70805 0.62793 0.96098 0.0
C1041 C 0.68206 0.60578 0.94749 0.0
C1042 C 0.69373 0.60275 0.93035 0.0
C1043 C 0.7127 0.61236 0.92893 0.0
C1044 C 0.68986 0.61862 0.96258 0.0
H1045 H 0.73437 0.63231 0.94351 0.0
C1046 C 0.75586 0.66084 0.97527 0.0
O1047 O 0.78202 0.62852 0.02077 0.0
O1048 O 0.77223 0.61017 0.9944 0.0
N1049 N 0.68892 0.63319 0.99445 0.0
C1050 C 0.6801 0.63672 0.01248 0.0
C1051 C 0.66133 0.62764 0.0166 0.0
C1052 C 0.65174 0.61521 0.0021 0.0
C1053 C 0.661 0.61199 0.98356 0.0
C1054 C 0.67966 0.62152 0.98026 0.0
H1055 H 0.68734 0.64632 0.02367 0.0
O1056 O 0.7404 0.60805 0.02205 0.0
O1057 O 0.72972 0.62357 0.99529 0.0
O1058 O 0.74227 0.65125 0.02628 0.0
O1059 O 0.71695 0.66277 0.00773 0.0
C1060 C 0.65264 0.59937 0.96839 0.0
C1061 C 0.66318 0.59622 0.95039 0.0
H1062 H 0.68839 0.59291 0.91829 0.0
H1063 H 0.72186 0.60998 0.91582 0.0
H1064 H 0.65428 0.6302 0.03095 0.0
H1065 H 0.63736 0.60809 0.0054 0.0
H1066 H 0.63827 0.59173 0.97055 0.0
H1067 H 0.65677 0.58621 0.93899 0.0
Mn1068 Mn 0.87463 0.00817 0.25577 0.0
Mn1069 Mn 0.886 0.95897 0.25283 0.0
C1070 C 0.853 0.98506 0.23997 0.0
C1071 C 0.85932 0.03555 0.27108 0.0
C1072 C 0.90554 0.99079 0.22684 0.0
O1073 O 0.89614 0.0059 0.27756 0.0
O1074 O 0.90152 0.97259 0.27477 0.0
C1075 C 0.86902 0.94599 0.29155 0.0
N1076 N 0.86976 0.94413 0.27125 0.0
C1077 C 0.84496 0.91714 0.27123 0.0
C1078 C 0.84402 0.9187 0.29215 0.0
C1079 C 0.85608 0.93321 0.30234 0.0
C1080 C 0.8582 0.93023 0.26129 0.0
H1081 H 0.8782 0.95717 0.29945 0.0
C1082 C 0.90475 0.98989 0.28311 0.0
O1083 O 0.87397 0.03799 0.25855 0.0
O1084 O 0.85439 0.01718 0.27568 0.0
N1085 N 0.87169 0.94401 0.23235 0.0
C1086 C 0.87366 0.94512 0.21211 0.0
C1087 C 0.86231 0.93188 0.19969 0.0
C1088 C 0.84915 0.91758 0.20819 0.0
C1089 C 0.84751 0.91661 0.22906 0.0
C1090 C 0.85933 0.93008 0.24069 0.0
H1091 H 0.88374 0.95608 0.20548 0.0
O1092 O 0.85246 0.00397 0.23557 0.0
O1093 O 0.86626 0.98028 0.2532 0.0
O1094 O 0.89585 0.00554 0.23395 0.0
O1095 O 0.90315 0.97278 0.23294 0.0
C1096 C 0.83433 0.90306 0.23877 0.0
C1097 C 0.83302 0.90337 0.25984 0.0
H1098 H 0.83398 0.90894 0.30052 0.0
H1099 H 0.85536 0.93457 0.31848 0.0
H1100 H 0.86364 0.93274 0.18359 0.0
H1101 H 0.84027 0.90753 0.19856 0.0
H1102 H 0.82491 0.89256 0.23017 0.0
H1103 H 0.8226 0.89309 0.26711 0.0
Mn1104 Mn 0.25567 0.13025 0.5074 0.0
Mn1105 Mn 0.21421 0.14796 0.48489 0.0
C1106 C 0.22623 0.11096 0.5067 0.0
C1107 C 0.28606 0.11348 0.50751 0.0
C1108 C 0.22779 0.16161 0.52609 0.0
O1109 O 0.26729 0.15288 0.49038 0.0
O1110 O 0.23852 0.16367 0.47694 0.0
C1111 C 0.22453 0.13614 0.44338 0.0
N1112 N 0.2114 0.13577 0.45894 0.0
C1113 C 0.18647 0.11777 0.43906 0.0
C1114 C 0.19968 0.11803 0.42278 0.0
C1115 C 0.21884 0.12717 0.42499 0.0
C1116 C 0.19304 0.12683 0.45705 0.0
H1117 H 0.23921 0.14329 0.445 0.0
C1118 C 0.25756 0.16479 0.47942 0.0
O1119 O 0.28186 0.12696 0.52098 0.0
O1120 O 0.27276 0.11002 0.49351 0.0
N1121 N 0.18924 0.13462 0.49087 0.0
C1122 C 0.17876 0.13476 0.50833 0.0
C1123 C 0.1595 0.1257 0.50886 0.0
C1124 C 0.15106 0.11701 0.49135 0.0
C1125 C 0.16203 0.1173 0.4735 0.0
C1126 C 0.1812 0.12644 0.47391 0.0
H1127 H 0.18509 0.14169 0.52173 0.0
O1128 O 0.23996 0.10804 0.52009 0.0
O1129 O 0.23012 0.12502 0.49377 0.0
O1130 O 0.24338 0.1509 0.52664 0.0
O1131 O 0.21553 0.16137 0.51138 0.0
C1132 C 0.15483 0.10868 0.45535 0.0
C1133 C 0.1671 0.10876 0.4382 0.0
H1134 H 0.19531 0.11118 0.40855 0.0
H1135 H 0.22914 0.12738 0.41251 0.0
H1136 H 0.15111 0.12553 0.52269 0.0
H1137 H 0.13618 0.11005 0.49183 0.0
H1138 H 0.13997 0.10173 0.45448 0.0
H1139 H 0.16153 0.10179 0.42444 0.0
Mn1140 Mn 0.37582 0.50948 0.75655 0.0
Mn1141 Mn 0.3893 0.46095 0.75295 0.0
C1142 C 0.35516 0.4858 0.74036 0.0
C1143 C 0.35933 0.5357 0.77255 0.0
C1144 C 0.40767 0.49406 0.72767 0.0
O1145 O 0.39754 0.50771 0.77827 0.0
O1146 O 0.4038 0.47457 0.77555 0.0
C1147 C 0.37208 0.44616 0.79091 0.0
N1148 N 0.37324 0.44497 0.77058 0.0
C1149 C 0.34915 0.41736 0.76928 0.0
C1150 C 0.34779 0.41822 0.7902 0.0
C1151 C 0.35929 0.4327 0.80105 0.0
C1152 C 0.36226 0.43108 0.76 0.0
H1153 H 0.38081 0.45733 0.79931 0.0
C1154 C 0.40643 0.49192 0.78398 0.0
O1155 O 0.37376 0.53915 0.75998 0.0
O1156 O 0.35533 0.51704 0.77676 0.0
N1157 N 0.37593 0.44612 0.73177 0.0
C1158 C 0.37813 0.44803 0.71163 0.0
C1159 C 0.36727 0.43497 0.6986 0.0
C1160 C 0.35433 0.42008 0.70641 0.0
C1161 C 0.3524 0.41832 0.72719 0.0
C1162 C 0.36376 0.43162 0.73944 0.0
H1163 H 0.38801 0.45949 0.70554 0.0
O1164 O 0.35374 0.50474 0.73637 0.0
O1165 O 0.36868 0.48137 0.75348 0.0
O1166 O 0.39693 0.50817 0.73448 0.0
O1167 O 0.40642 0.476 0.73387 0.0
C1168 C 0.33935 0.40418 0.73622 0.0
C1169 C 0.33769 0.40372 0.75725 0.0
H1170 H 0.33783 0.40796 0.79808 0.0
H1171 H 0.35824 0.43352 0.8172 0.0
H1172 H 0.3688 0.43645 0.68257 0.0
H1173 H 0.34581 0.41018 0.69631 0.0
H1174 H 0.33027 0.39379 0.72713 0.0
H1175 H 0.32737 0.39299 0.764 0.0
Mn1176 Mn 0.75432 0.37397 0.50881 0.0
Mn1177 Mn 0.75098 0.38727 0.46044 0.0
C1178 C 0.73665 0.35368 0.48593 0.0
C1179 C 0.77041 0.3573 0.53455 0.0
C1180 C 0.72673 0.40656 0.49355 0.0
O1181 O 0.7771 0.3951 0.50628 0.0
O1182 O 0.77434 0.40131 0.47334 0.0
C1183 C 0.78814 0.36857 0.44583 0.0
N1184 N 0.76785 0.37041 0.44475 0.0
C1185 C 0.76537 0.34606 0.41777 0.0
C1186 C 0.78625 0.34399 0.41851 0.0
C1187 C 0.79767 0.35526 0.43264 0.0
C1188 C 0.75671 0.35953 0.43132 0.0
H1189 H 0.79698 0.37717 0.4567 0.0
C1190 C 0.78305 0.40384 0.49037 0.0
O1191 O 0.75846 0.37202 0.53829 0.0
O1192 O 0.77367 0.35293 0.51588 0.0
N1193 N 0.72911 0.37444 0.4461 0.0
C1194 C 0.70909 0.37782 0.44767 0.0
C1195 C 0.69556 0.36764 0.43464 0.0
C1196 C 0.70275 0.35422 0.42006 0.0
C1197 C 0.72343 0.35113 0.41861 0.0
C1198 C 0.73621 0.36181 0.4319 0.0
H1199 H 0.70348 0.3882 0.45878 0.0
O1200 O 0.73295 0.35236 0.50491 0.0
O1201 O 0.75044 0.36679 0.48106 0.0
O1202 O 0.73322 0.39577 0.50767 0.0
O1203 O 0.73273 0.40502 0.47545 0.0
C1204 C 0.73187 0.33778 0.40458 0.0
C1205 C 0.7528 0.33514 0.40425 0.0
H1206 H 0.79366 0.33371 0.40838 0.0
H1207 H 0.81378 0.35368 0.43337 0.0
H1208 H 0.67961 0.37012 0.43584 0.0
H1209 H 0.69225 0.34634 0.4101 0.0
H1210 H 0.72237 0.32933 0.39408 0.0
H1211 H 0.75908 0.32464 0.39357 0.0
Mn1212 Mn 0.64144 1.00207 0.75195 0.0
Mn1213 Mn 0.62512 0.04962 0.74828 0.0
C1214 C 0.66064 0.0262 0.73564 0.0
C1215 C 0.65895 0.97721 0.76834 0.0
C1216 C 0.60895 0.01488 0.72254 0.0
O1217 O 0.61963 0.00321 0.7734 0.0
O1218 O 0.61126 0.03568 0.77052 0.0
C1219 C 0.64138 0.06603 0.78665 0.0
N1220 N 0.64011 0.06686 0.76634 0.0
C1221 C 0.66212 0.09612 0.76574 0.0
C1222 C 0.66357 0.09565 0.78666 0.0
C1223 C 0.65318 0.08052 0.79715 0.0
C1224 C 0.65007 0.08133 0.75609 0.0
H1225 H 0.63348 0.05438 0.79478 0.0
C1226 C 0.60964 0.0185 0.77889 0.0
O1227 O 0.64484 0.97271 0.75546 0.0
O1228 O 0.66224 0.99617 0.77242 0.0
N1229 N 0.63751 0.06495 0.72748 0.0
C1230 C 0.63515 0.06283 0.70728 0.0
C1231 C 0.64481 0.07661 0.69459 0.0
C1232 C 0.65669 0.09249 0.70278 0.0
C1233 C 0.65871 0.0945 0.72361 0.0
C1234 C 0.64855 0.08043 0.73552 0.0
H1235 H 0.62603 0.05068 0.7009 0.0
O1236 O 0.66319 0.00723 0.73193 0.0
O1237 O 0.64704 0.03048 0.74881 0.0
O1238 O 0.6203 1.00158 0.72965 0.0
O1239 O 0.60914 0.03316 0.72876 0.0
C1240 C 0.67068 0.1097 0.73301 0.0
C1241 C 0.67243 0.11048 0.75405 0.0
H1242 H 0.67273 0.10674 0.79481 0.0
H1243 H 0.6543 0.08 0.81329 0.0
H1244 H 0.64318 0.07496 0.67853 0.0
H1245 H 0.6643 0.10295 0.69294 0.0
H1246 H 0.67882 0.1207 0.72418 0.0
H1247 H 0.6819 0.12207 0.76109 0.0
Mn1248 Mn 0.00552 0.25086 0.87666 0.0
Mn1249 Mn 0.95666 0.24639 0.88943 0.0
C1250 C 0.98295 0.23333 0.85604 0.0
C1251 C 0.0321 0.26727 0.86067 0.0
C1252 C 0.98937 0.22216 0.9085 0.0
O1253 O 0.00268 0.27317 0.89791 0.0
O1254 O 0.96945 0.26978 0.90369 0.0
C1255 C 0.94239 0.28375 0.87119 0.0
N1256 N 0.94125 0.26335 0.87278 0.0
C1257 C 0.91463 0.26085 0.84835 0.0
C1258 C 0.91545 0.28184 0.84654 0.0
C1259 C 0.92942 0.29333 0.85798 0.0
C1260 C 0.92794 0.25214 0.86175 0.0
H1261 H 0.95315 0.29265 0.87991 0.0
C1262 C 0.98653 0.27874 0.90645 0.0
O1263 O 0.03512 0.25502 0.87524 0.0
O1264 O 0.01359 0.27086 0.85614 0.0
N1265 N 0.94242 0.22445 0.87637 0.0
C1266 C 0.94385 0.20434 0.87955 0.0
C1267 C 0.93093 0.19073 0.86918 0.0
C1268 C 0.91661 0.19794 0.85578 0.0
C1269 C 0.91527 0.21871 0.85293 0.0
C1270 C 0.92841 0.23156 0.86381 0.0
H1271 H 0.95478 0.1987 0.88988 0.0
O1272 O 1.00199 0.22991 0.85491 0.0
O1273 O 0.97777 0.24679 0.86917 0.0
O1274 O 0.00372 0.22918 0.89794 0.0
O1275 O 0.97128 0.22795 0.90701 0.0
C1276 C 0.90155 0.22716 0.83956 0.0
C1277 C 0.90129 0.2482 0.8372 0.0
H1278 H 0.9055 0.28928 0.83633 0.0
H1279 H 0.9302 0.30953 0.85661 0.0
H1280 H 0.93205 0.17472 0.87148 0.0
H1281 H 0.9068 0.18739 0.84768 0.0
H1282 H 0.89126 0.21759 0.83087 0.0
H1283 H 0.89084 0.2545 0.8267 0.0
Mn1284 Mn 0.50316 0.75148 0.37569 0.0
Mn1285 Mn 0.45508 0.7446 0.39026 0.0
C1286 C 0.4805 0.73335 0.35566 0.0
C1287 C 0.52799 0.76924 0.35834 0.0
C1288 C 0.48973 0.72204 0.40801 0.0
O1289 O 0.50004 0.77352 0.39719 0.0
O1290 O 0.46722 0.76845 0.40432 0.0
C1291 C 0.43779 0.78127 0.37337 0.0
N1292 N 0.43798 0.76084 0.37456 0.0
C1293 C 0.41045 0.75714 0.35125 0.0
C1294 C 0.4099 0.77814 0.34986 0.0
C1295 C 0.42365 0.79025 0.36095 0.0
C1296 C 0.4248 0.74904 0.36397 0.0
H1297 H 0.44838 0.79065 0.3818 0.0
C1298 C 0.48397 0.7782 0.40644 0.0
O1299 O 0.53251 0.75732 0.37279 0.0
O1300 O 0.50907 0.77179 0.35488 0.0
N1301 N 0.44171 0.72209 0.37727 0.0
C1302 C 0.44504 0.70209 0.37934 0.0
C1303 C 0.43295 0.68792 0.36875 0.0
C1304 C 0.41754 0.69444 0.3562 0.0
C1305 C 0.41432 0.7151 0.35439 0.0
C1306 C 0.42674 0.72852 0.36544 0.0
H1307 H 0.4569 0.697 0.38892 0.0
O1308 O 0.4996 0.73054 0.35387 0.0
O1309 O 0.47537 0.74629 0.3693 0.0
O1310 O 0.5034 0.72967 0.39697 0.0
O1311 O 0.47133 0.7269 0.40704 0.0
C1312 C 0.39955 0.7229 0.34175 0.0
C1313 C 0.39762 0.74391 0.34017 0.0
H1314 H 0.3991 0.78512 0.34019 0.0
H1315 H 0.42338 0.80647 0.35988 0.0
H1316 H 0.43556 0.67201 0.37018 0.0
H1317 H 0.40838 0.68347 0.3479 0.0
H1318 H 0.3898 0.71289 0.33294 0.0
H1319 H 0.38642 0.74973 0.33017 0.0
Mn1320 Mn 0.00608 0.75436 0.62902 0.0
Mn1321 Mn 0.98633 0.70955 0.64361 0.0
C1322 C 0.0087 0.7259 0.60866 0.0
C1323 C 0.00399 0.78531 0.61314 0.0
C1324 C 0.02507 0.72777 0.66062 0.0
O1325 O 0.98665 0.76261 0.65121 0.0
O1326 O 0.97343 0.73195 0.6581 0.0
C1327 C 0.94516 0.71362 0.62758 0.0
N1328 N 0.96244 0.70317 0.62866 0.0
C1329 C 0.94867 0.67668 0.60738 0.0
C1330 C 0.93068 0.68711 0.60611 0.0
C1331 C 0.92896 0.70569 0.6162 0.0
C1332 C 0.96432 0.68537 0.61888 0.0
H1333 H 0.94377 0.72789 0.63535 0.0
C1334 C 0.97432 0.75111 0.66056 0.0
O1335 O 0.01724 0.78226 0.62696 0.0
O1336 O 0.99142 0.77055 0.60896 0.0
N1337 N 0.99725 0.68641 0.63067 0.0
C1338 C 0.01588 0.67869 0.63273 0.0
C1339 C 0.02021 0.66029 0.62328 0.0
C1340 C 0.00528 0.6499 0.61203 0.0
C1341 C 0.98614 0.65801 0.61033 0.0
C1342 C 0.98269 0.67638 0.62012 0.0
H1343 H 0.02738 0.68653 0.64147 0.0
O1344 O 0.02116 0.74105 0.60667 0.0
O1345 O 0.99517 0.72781 0.62242 0.0
O1346 O 0.02538 0.74341 0.64983 0.0
O1347 O 0.01104 0.71433 0.65968 0.0
C1348 C 0.97044 0.64874 0.59908 0.0
C1349 C 0.95175 0.65813 0.59749 0.0
H1350 H 0.91815 0.68104 0.59735 0.0
H1351 H 0.91516 0.71386 0.61524 0.0
H1352 H 0.03501 0.65412 0.62467 0.0
H1353 H 0.00871 0.63578 0.60465 0.0
H1354 H 0.97267 0.63456 0.5913 0.0
H1355 H 0.93992 0.65103 0.58851 0.0
Mn1356 Mn 0.50557 0.25465 0.12842 0.0
Mn1357 Mn 0.48725 0.20957 0.14381 0.0
C1358 C 0.50871 0.22604 0.10841 0.0
C1359 C 0.50207 0.28513 0.11194 0.0
C1360 C 0.52585 0.22886 0.15996 0.0
O1361 O 0.48622 0.26268 0.15072 0.0
O1362 O 0.47427 0.23179 0.15858 0.0
C1363 C 0.44562 0.21283 0.12873 0.0
N1364 N 0.46312 0.20272 0.12941 0.0
C1365 C 0.44944 0.17609 0.10823 0.0
C1366 C 0.43123 0.18618 0.10739 0.0
C1367 C 0.42935 0.20466 0.11762 0.0
C1368 C 0.46515 0.18501 0.11949 0.0
H1369 H 0.44411 0.22703 0.1366 0.0
C1370 C 0.47464 0.25099 0.16072 0.0
O1371 O 0.51561 0.28297 0.1257 0.0
O1372 O 0.49011 0.26978 0.10822 0.0
N1373 N 0.49828 0.18659 0.13067 0.0
C1374 C 0.51709 0.1792 0.13236 0.0
C1375 C 0.52158 0.16094 0.12271 0.0
C1376 C 0.50664 0.15036 0.11165 0.0
C1377 C 0.48732 0.15813 0.11036 0.0
C1378 C 0.48371 0.17636 0.12033 0.0
H1379 H 0.52861 0.1872 0.14093 0.0
O1380 O 0.52076 0.24146 0.10607 0.0
O1381 O 0.49533 0.22778 0.12233 0.0
O1382 O 0.52546 0.24456 0.14924 0.0
O1383 O 0.51226 0.21496 0.15919 0.0
C1384 C 0.47159 0.14865 0.0993 0.0
C1385 C 0.45269 0.15768 0.09815 0.0
H1386 H 0.41864 0.17993 0.09883 0.0
H1387 H 0.41537 0.21257 0.11698 0.0
H1388 H 0.53653 0.15504 0.12379 0.0
H1389 H 0.5102 0.13636 0.1041 0.0
H1390 H 0.47396 0.13458 0.09136 0.0
H1391 H 0.44081 0.15042 0.08934 0.0
H1392 H 0.1817 0.76366 0.90613 0.0
H1393 H 0.26381 0.83331 0.96369 0.0
H1394 H 0.24581 0.75938 0.89896 0.0
H1395 H 0.20047 0.83757 0.97509 0.0
H1396 H 0.25688 0.80553 0.94031 0.0
H1397 H 0.18751 0.79055 0.93129 0.0
C1398 C 0.19697 0.76834 0.90984 0.0
C1399 C 0.2133 0.75911 0.90053 0.0
C1400 C 0.2444 0.81244 0.94785 0.0
C1401 C 0.22002 0.78968 0.9293 0.0
C1402 C 0.24837 0.82837 0.96111 0.0
C1403 C 0.23261 0.83803 0.97072 0.0
C1404 C 0.22446 0.806 0.9442 0.0
C1405 C 0.21294 0.83067 0.96753 0.0
C1406 C 0.20026 0.7836 0.92426 0.0
C1407 C 0.23276 0.76572 0.906 0.0
N1408 N 0.20935 0.81518 0.95428 0.0
N1409 N 0.23554 0.78056 0.91996 0.0
H1410 H 0.04076 0.55708 0.38085 0.0
H1411 H 0.10466 0.48935 0.30603 0.0
H1412 H 0.04748 0.49353 0.39003 0.0
H1413 H 0.085 0.54935 0.29365 0.0
H1414 H 0.08463 0.4898 0.33687 0.0
H1415 H 0.05811 0.55399 0.34907 0.0
C1416 C 0.04599 0.54244 0.37617 0.0
C1417 C 0.04287 0.52558 0.38819 0.0
C1418 C 0.08465 0.50275 0.32725 0.0
C1419 C 0.06276 0.52183 0.35156 0.0
C1420 C 0.09606 0.50252 0.30965 0.0
C1421 C 0.0967 0.51939 0.29721 0.0
C1422 C 0.07395 0.52002 0.33245 0.0
C1423 C 0.08521 0.53601 0.30272 0.0
C1424 C 0.05579 0.54064 0.35793 0.0
C1425 C 0.04961 0.5069 0.38117 0.0
N1426 N 0.07449 0.53592 0.3199 0.0
N1427 N 0.05942 0.50553 0.36335 0.0
H1428 H 0.79919 0.7308 0.87583 0.0
H1429 H 0.78386 0.68991 0.98634 0.0
H1430 H 0.79959 0.77123 0.92696 0.0
H1431 H 0.75203 0.66481 0.93505 0.0
H1432 H 0.79827 0.71638 0.96488 0.0
H1433 H 0.79048 0.7028 0.89783 0.0
C1434 C 0.79771 0.73371 0.89175 0.0
C1435 C 0.80003 0.75331 0.89964 0.0
C1436 C 0.7883 0.70489 0.95838 0.0
C1437 C 0.79026 0.72141 0.9248 0.0
C1438 C 0.78023 0.68976 0.97052 0.0
C1439 C 0.76674 0.67524 0.9624 0.0
C1440 C 0.78319 0.70508 0.93798 0.0
C1441 C 0.76231 0.6758 0.94189 0.0
C1442 C 0.79267 0.71778 0.90423 0.0
C1443 C 0.79777 0.75632 0.92033 0.0
N1444 N 0.77056 0.69043 0.93037 0.0
N1445 N 0.79304 0.74049 0.93227 0.0
H1446 H 0.97939 0.95415 0.38124 0.0
H1447 H 0.9168 0.02263 0.30692 0.0
H1448 H 0.97969 0.01895 0.38652 0.0
H1449 H 0.92448 0.95859 0.29939 0.0
H1450 H 0.93886 0.02218 0.33649 0.0
H1451 H 0.95788 0.95597 0.35183 0.0
C1452 C 0.97481 0.96878 0.37629 0.0
C1453 C 0.98132 0.98641 0.38643 0.0
C1454 C 0.93571 0.00829 0.32825 0.0
C1455 C 0.95675 0.98867 0.35245 0.0
C1456 C 0.92314 0.00853 0.31136 0.0
C1457 C 0.91869 0.99064 0.30056 0.0
C1458 C 0.94376 0.99002 0.3344 0.0
C1459 C 0.92736 0.97282 0.30712 0.0
C1460 C 0.96262 0.96984 0.35937 0.0
C1461 C 0.97517 0.00498 0.37906 0.0
N1462 N 0.93935 0.97299 0.32355 0.0
N1463 N 0.96317 0.00564 0.36254 0.0
H1464 H 0.21865 0.22316 0.64144 0.0
H1465 H 0.2055 0.19552 0.52571 0.0
H1466 H 0.20957 0.26793 0.59656 0.0
H1467 H 0.24191 0.16018 0.56473 0.0
H1468 H 0.20108 0.21988 0.55301 0.0
H1469 H 0.22172 0.19753 0.61475 0.0
C1470 C 0.21722 0.22753 0.62596 0.0
C1471 C 0.21394 0.24764 0.62111 0.0
C1472 C 0.20998 0.20676 0.55558 0.0
C1473 C 0.21716 0.21854 0.59073 0.0
C1474 C 0.21242 0.19277 0.54007 0.0
C1475 C 0.22415 0.1758 0.54292 0.0
C1476 C 0.21902 0.20361 0.57422 0.0
C1477 C 0.23285 0.17312 0.56184 0.0
C1478 C 0.21906 0.21297 0.6108 0.0
C1479 C 0.21227 0.2526 0.60087 0.0
N1480 N 0.23004 0.18685 0.57683 0.0
N1481 N 0.21377 0.23813 0.58641 0.0
H1482 H 0.51114 0.50372 0.65006 0.0
H1483 H 0.40569 0.52417 0.70033 0.0
H1484 H 0.46194 0.52852 0.61696 0.0
H1485 H 0.44198 0.47444 0.71768 0.0
H1486 H 0.42885 0.5309 0.6727 0.0
H1487 H 0.48839 0.49746 0.67792 0.0
C1488 C 0.49559 0.50776 0.64849 0.0
C1489 C 0.48857 0.51659 0.63088 0.0
C1490 C 0.43172 0.51855 0.6826 0.0
C1491 C 0.4626 0.51001 0.66319 0.0
C1492 C 0.4186 0.51476 0.69842 0.0
C1493 C 0.42191 0.4987 0.71132 0.0
C1494 C 0.44848 0.50646 0.6799 0.0
C1495 C 0.43881 0.48691 0.70804 0.0
C1496 C 0.48266 0.50428 0.66452 0.0
C1497 C 0.46828 0.52201 0.63021 0.0
N1498 N 0.45155 0.49111 0.69272 0.0
N1499 N 0.45607 0.51871 0.64614 0.0
H1500 H 0.80252 0.30407 0.64795 0.0
H1501 H 0.78908 0.3214 0.53068 0.0
H1502 H 0.80047 0.25579 0.60404 0.0
H1503 H 0.76939 0.36429 0.57514 0.0
H1504 H 0.79884 0.29897 0.55742 0.0
H1505 H 0.79535 0.32799 0.6214 0.0
C1506 C 0.80062 0.29854 0.63271 0.0
C1507 C 0.80201 0.27793 0.62816 0.0
C1508 C 0.79248 0.31334 0.56133 0.0
C1509 C 0.79403 0.30514 0.5978 0.0
C1510 C 0.78703 0.32623 0.54608 0.0
C1511 C 0.77834 0.34473 0.55069 0.0
C1512 C 0.78944 0.31905 0.58137 0.0
C1513 C 0.77598 0.35013 0.57093 0.0
C1514 C 0.79647 0.31216 0.61761 0.0
C1515 C 0.79931 0.27152 0.6082 0.0
N1516 N 0.78149 0.33733 0.58555 0.0
N1517 N 0.79555 0.28509 0.59375 0.0
H1518 H 0.51195 0.00242 0.63584 0.0
H1519 H 0.61246 0.98309 0.69638 0.0
H1520 H 0.5629 0.97344 0.60919 0.0
H1521 H 0.57513 0.03367 0.70975 0.0
H1522 H 0.59136 0.97493 0.66717 0.0
H1523 H 0.53224 0.01011 0.66564 0.0
C1524 C 0.52739 0.99777 0.63609 0.0
C1525 C 0.53565 0.98727 0.61976 0.0
C1526 C 0.58779 0.98777 0.67655 0.0
C1527 C 0.55872 0.99554 0.65425 0.0
C1528 C 0.59972 0.99237 0.6933 0.0
C1529 C 0.59557 0.00911 0.70553 0.0
C1530 C 0.57137 0.99977 0.67218 0.0
C1531 C 0.57894 0.02068 0.70068 0.0
C1532 C 0.5389 1.00207 0.65322 0.0
C1533 C 0.55566 0.98122 0.62141 0.0
N1534 N 0.56738 0.01574 0.68442 0.0
N1535 N 0.56645 0.98535 0.63835 0.0
H1536 H 0.91293 0.22583 0.7471 0.0
H1537 H 0.97268 0.19501 0.84355 0.0
H1538 H 0.88686 0.18231 0.7876 0.0
H1539 H 0.96375 0.25747 0.83067 0.0
H1540 H 0.94883 0.18547 0.81641 0.0
H1541 H 0.93926 0.23335 0.77178 0.0
C1542 C 0.91257 0.21782 0.76106 0.0
C1543 C 0.89727 0.20348 0.76515 0.0
C1544 C 0.95228 0.20123 0.81953 0.0
C1545 C 0.92818 0.2114 0.79291 0.0
C1546 C 0.96577 0.20663 0.8349 0.0
C1547 C 0.96951 0.22699 0.83957 0.0
C1548 C 0.94335 0.21635 0.80839 0.0
C1549 C 0.96071 0.2416 0.82774 0.0
C1550 C 0.9278 0.22202 0.77501 0.0
C1551 C 0.89835 0.1932 0.7834 0.0
N1552 N 0.94799 0.23601 0.81263 0.0
N1553 N 0.91358 0.1973 0.79654 0.0
H1554 H 0.50866 0.89163 0.47111 0.0
H1555 H 0.45306 0.79147 0.42933 0.0
H1556 H 0.44461 0.88044 0.47245 0.0
H1557 H 0.51439 0.80674 0.41368 0.0
H1558 H 0.45143 0.82245 0.44871 0.0
H1559 H 0.51253 0.85935 0.45321 0.0
C1560 C 0.49544 0.88237 0.46768 0.0
C1561 C 0.47626 0.88878 0.47317 0.0
C1562 C 0.46529 0.81908 0.44109 0.0
C1563 C 0.48059 0.85194 0.45288 0.0
C1564 C 0.4663 0.80127 0.43001 0.0
C1565 C 0.48388 0.79642 0.41964 0.0
C1566 C 0.48198 0.83235 0.44201 0.0
C1567 C 0.5005 0.80983 0.42136 0.0
C1568 C 0.49766 0.86403 0.45741 0.0
C1569 C 0.45964 0.87627 0.46826 0.0
N1570 N 0.49913 0.82726 0.43228 0.0
N1571 N 0.46221 0.85848 0.45848 0.0
H1572 H 0.10592 0.32139 0.76799 0.0
H1573 H 0.0708 0.25474 0.86054 0.0
H1574 H 0.13111 0.26408 0.78167 0.0
H1575 H 0.0314 0.29603 0.83173 0.0
H1576 H 0.09684 0.26309 0.83614 0.0
H1577 H 0.08189 0.31682 0.79544 0.0
C1578 C 0.10642 0.30791 0.77685 0.0
C1579 C 0.12037 0.29301 0.77253 0.0
C1580 C 0.08255 0.27046 0.8353 0.0
C1581 C 0.09328 0.28786 0.80396 0.0
C1582 C 0.06774 0.26583 0.8493 0.0
C1583 C 0.04886 0.27462 0.84808 0.0
C1584 C 0.07856 0.28415 0.82012 0.0
C1585 C 0.04572 0.28883 0.83314 0.0
C1586 C 0.09272 0.3053 0.79243 0.0
C1587 C 0.12042 0.2758 0.78439 0.0
N1588 N 0.06042 0.29312 0.81968 0.0
N1589 N 0.10712 0.27372 0.79962 0.0
H1590 H 0.53057 0.61263 0.46087 0.0
H1591 H 0.47091 0.71213 0.44291 0.0
H1592 H 0.50507 0.6466 0.50983 0.0
H1593 H 0.52098 0.6961 0.40567 0.0
H1594 H 0.47964 0.68539 0.46592 0.0
H1595 H 0.52401 0.64058 0.4387 0.0
C1596 C 0.52378 0.62595 0.4671 0.0
C1597 C 0.51837 0.62706 0.48742 0.0
C1598 C 0.48875 0.68782 0.45276 0.0
C1599 C 0.51026 0.65888 0.46177 0.0
C1600 C 0.48375 0.703 0.43959 0.0
C1601 C 0.49527 0.70638 0.42237 0.0
C1602 C 0.50511 0.67561 0.44846 0.0
C1603 C 0.51178 0.69411 0.41884 0.0
C1604 C 0.51994 0.64185 0.45434 0.0
C1605 C 0.50913 0.64468 0.49428 0.0
N1606 N 0.5161 0.67911 0.43167 0.0
N1607 N 0.50522 0.65978 0.48147 0.0
H1608 H 0.9055 0.82471 0.74451 0.0
H1609 H 0.94282 0.73173 0.67825 0.0
H1610 H 0.88759 0.76255 0.75253 0.0
H1611 H 0.97249 0.79022 0.67575 0.0
H1612 H 0.9199 0.74471 0.70284 0.0
H1613 H 0.92767 0.8142 0.71698 0.0
C1614 C 0.90618 0.80891 0.74042 0.0
C1615 C 0.8949 0.79443 0.75094 0.0
C1616 C 0.9314 0.7548 0.69702 0.0
C1617 C 0.91993 0.78241 0.71962 0.0
C1618 C 0.94461 0.74737 0.68288 0.0
C1619 C 0.9599 0.7598 0.67501 0.0
C1620 C 0.93329 0.7749 0.70356 0.0
C1621 C 0.96103 0.78004 0.6815 0.0
C1622 C 0.91886 0.80293 0.72482 0.0
C1623 C 0.89629 0.77418 0.74508 0.0
N1624 N 0.94794 0.78698 0.69552 0.0
N1625 N 0.90853 0.76882 0.72989 0.0
H1626 H 0.97908 0.88496 0.53474 0.0
H1627 H 0.0329 0.81515 0.61369 0.0
H1628 H 0.04318 0.88623 0.54507 0.0
H1629 H 0.97595 0.79843 0.58636 0.0
H1630 H 0.0347 0.84498 0.59283 0.0
H1631 H 0.97577 0.85649 0.55733 0.0
C1632 C 0.99249 0.8793 0.54164 0.0
C1633 C 0.01148 0.88815 0.53783 0.0
C1634 C 0.02177 0.83483 0.59146 0.0
C1635 C 0.00761 0.85581 0.56417 0.0
C1636 C 0.02066 0.81784 0.60344 0.0
C1637 C 0.00427 0.80422 0.60172 0.0
C1638 C 0.00627 0.83841 0.57779 0.0
C1639 C 0.9889 0.8085 0.58812 0.0
C1640 C 0.99052 0.8631 0.55465 0.0
C1641 C 0.02817 0.8803 0.54771 0.0
N1642 N 0.99026 0.82524 0.57667 0.0
N1643 N 0.02583 0.86466 0.56041 0.0
H1644 H 0.12254 0.74798 0.7452 0.0
H1645 H 0.03421 0.69393 0.68151 0.0
H1646 H 0.11207 0.68365 0.74396 0.0
H1647 H 0.05403 0.75553 0.67272 0.0
H1648 H 0.06146 0.69014 0.70564 0.0
H1649 H 0.09629 0.75133 0.71989 0.0
C1650 C 0.11468 0.73456 0.73961 0.0
C1651 C 0.11945 0.71551 0.74674 0.0
C1652 C 0.05987 0.70445 0.69837 0.0
C1653 C 0.08937 0.71922 0.71774 0.0
C1654 C 0.04426 0.70667 0.68463 0.0
C1655 C 0.04175 0.72511 0.67505 0.0
C1656 C 0.07298 0.72083 0.70277 0.0
C1657 C 0.05536 0.74102 0.67967 0.0
C1658 C 0.09977 0.73647 0.72508 0.0
C1659 C 0.10896 0.69861 0.73877 0.0
N1660 N 0.0703 0.73854 0.69326 0.0
N1661 N 0.09432 0.70087 0.72479 0.0
H1662 H 0.9598 0.631 0.53384 0.0
H1663 H 0.03834 0.70146 0.595 0.0
H1664 H 0.02295 0.61867 0.53747 0.0
H1665 H 0.97599 0.71485 0.58675 0.0
H1666 H 0.0341 0.67268 0.57159 0.0
H1667 H 0.96616 0.66294 0.55148 0.0
C1668 C 0.97501 0.635 0.53843 0.0
C1669 C 0.99084 0.62207 0.53432 0.0
C1670 C 0.02139 0.68202 0.57475 0.0
C1671 C 0.99832 0.65878 0.55447 0.0
C1672 C 0.02383 0.69838 0.58807 0.0
C1673 C 0.00726 0.70985 0.5933 0.0
C1674 C 0.00231 0.67745 0.56649 0.0
C1675 C 0.98891 0.70578 0.58361 0.0
C1676 C 0.97869 0.65334 0.54835 0.0
C1677 C 0.01032 0.62822 0.54029 0.0
N1678 N 0.98684 0.68976 0.57087 0.0
N1679 N 0.0135 0.64606 0.55022 0.0
H1680 H 0.76009 0.89457 0.25024 0.0
H1681 H 0.83645 0.97567 0.20316 0.0
H1682 H 0.76008 0.90802 0.18728 0.0
H1683 H 0.82988 0.96495 0.2662 0.0
H1684 H 0.80843 0.95151 0.19634 0.0
H1685 H 0.78613 0.92032 0.25577 0.0
C1686 C 0.76544 0.9031 0.23757 0.0
C1687 C 0.75768 0.89928 0.2183 0.0
C1688 C 0.81311 0.95452 0.21166 0.0
C1689 C 0.78782 0.92885 0.22451 0.0
C1690 C 0.82903 0.96824 0.2155 0.0
C1691 C 0.83579 0.97158 0.23517 0.0
C1692 C 0.80385 0.94449 0.22769 0.0
C1693 C 0.82549 0.96215 0.25077 0.0
C1694 C 0.7804 0.9178 0.24073 0.0
C1695 C 0.76567 0.91045 0.20238 0.0
N1696 N 0.81017 0.9489 0.24669 0.0
N1697 N 0.7803 0.92478 0.20583 0.0
H1698 H 0.76806 0.11207 0.32206 0.0
H1699 H 0.85964 0.07356 0.25616 0.0
H1700 H 0.78127 0.13395 0.26306 0.0
H1701 H 0.83044 0.0363 0.30022 0.0
H1702 H 0.83558 0.09991 0.26318 0.0
H1703 H 0.79515 0.0879 0.31843 0.0
C1704 C 0.77675 0.11184 0.3084 0.0
C1705 C 0.77239 0.1249 0.29277 0.0
C1706 C 0.83458 0.08604 0.27144 0.0
C1707 C 0.80343 0.09761 0.28866 0.0
C1708 C 0.8484 0.07105 0.26757 0.0
C1709 C 0.84698 0.05265 0.27755 0.0
C1710 C 0.81938 0.08274 0.28558 0.0
C1711 C 0.83202 0.05022 0.29212 0.0
C1712 C 0.79212 0.09804 0.30633 0.0
C1713 C 0.78402 0.12397 0.27536 0.0
N1714 N 0.81875 0.06508 0.29567 0.0
N1715 N 0.79907 0.11061 0.27379 0.0
H1716 H 0.39666 0.96919 0.01505 0.0
H1717 H 0.29661 0.92988 0.95883 0.0
H1718 H 0.38693 0.9709 0.95125 0.0
H1719 H 0.31011 0.91287 0.01944 0.0
H1720 H 0.32797 0.94904 0.9578 0.0
H1721 H 0.36364 0.95215 0.01867 0.0
C1722 C 0.38757 0.96602 1.00184 0.0
C1723 C 0.39461 0.9713 0.98279 0.0
C1724 C 0.32413 0.94118 0.97138 0.0
C1725 C 0.35695 0.95208 0.98684 0.0
C1726 C 0.3061 0.93022 0.97203 0.0
C1727 C 0.30067 0.91949 0.98922 0.0
C1728 C 0.33703 0.9416 0.98801 0.0
C1729 C 0.31368 0.92081 0.00585 0.0
C1730 C 0.36881 0.95626 0.00391 0.0
C1731 C 0.38228 0.96682 0.96618 0.0
N1732 N 0.33134 0.9316 0.00481 0.0
N1733 N 0.3641 0.95754 0.96861 0.0
H1734 H 0.22265 0.37076 0.29565 0.0
H1735 H 0.19592 0.4866 0.28512 0.0
H1736 H 0.26745 0.41836 0.2905 0.0
H1737 H 0.15504 0.43841 0.26644 0.0
H1738 H 0.22083 0.46172 0.29358 0.0
H1739 H 0.19632 0.39543 0.29083 0.0
C1740 C 0.22691 0.38643 0.29359 0.0
C1741 C 0.24723 0.39256 0.29337 0.0
C1742 C 0.20635 0.4566 0.28776 0.0
C1743 C 0.2173 0.42078 0.28809 0.0
C1744 C 0.19206 0.47077 0.28306 0.0
C1745 C 0.17339 0.46457 0.27497 0.0
C1746 C 0.20189 0.43604 0.28459 0.0
C1747 C 0.16927 0.44385 0.27257 0.0
C1748 C 0.21192 0.40044 0.29078 0.0
C1749 C 0.25197 0.413 0.29056 0.0
N1750 N 0.18343 0.4303 0.27733 0.0
N1751 N 0.23712 0.42639 0.28811 0.0
H1752 H 0.11449 0.05246 0.47495 0.0
H1753 H 0.20379 0.09563 0.53704 0.0
H1754 H 0.14066 0.01281 0.51816 0.0
H1755 H 0.21063 0.09269 0.47302 0.0
H1756 H 0.17523 0.07143 0.53421 0.0
H1757 H 0.14455 0.07376 0.4772 0.0
C1758 C 0.12641 0.04795 0.48479 0.0
C1759 C 0.12472 0.03035 0.49621 0.0
C1760 C 0.18296 0.07626 0.52083 0.0
C1761 C 0.15879 0.0559 0.49963 0.0
C1762 C 0.1991 0.09005 0.52239 0.0
C1763 C 0.20884 0.09684 0.50511 0.0
C1764 C 0.17657 0.0694 0.50186 0.0
C1765 C 0.20274 0.08865 0.48655 0.0
C1766 C 0.14352 0.06042 0.48617 0.0
C1767 C 0.14075 0.02626 0.50929 0.0
N1768 N 0.18667 0.07563 0.48532 0.0
N1769 N 0.15698 0.03907 0.51083 0.0
H1770 H 0.74825 0.12331 0.73448 0.0
H1771 H 0.67342 0.03377 0.69758 0.0
H1772 H 0.73753 0.10913 0.67205 0.0
H1773 H 0.68294 0.05145 0.75923 0.0
H1774 H 0.69819 0.05979 0.68755 0.0
H1775 H 0.72524 0.09595 0.74352 0.0
C1776 C 0.74116 0.1143 0.72265 0.0
C1777 C 0.74497 0.11839 0.70247 0.0
C1778 C 0.69485 0.05797 0.70326 0.0
C1779 C 0.71841 0.08697 0.71275 0.0
C1780 C 0.68078 0.04317 0.70894 0.0
C1781 C 0.67572 0.04116 0.72913 0.0
C1782 C 0.70415 0.0704 0.718 0.0
C1783 C 0.68598 0.05314 0.74343 0.0
C1784 C 0.72794 0.09871 0.72783 0.0
C1785 C 0.73497 0.10651 0.68779 0.0
N1786 N 0.69959 0.06736 0.73759 0.0
N1787 N 0.72217 0.09127 0.69322 0.0
H1788 H 0.38675 0.05159 0.55528 0.0
H1789 H 0.30152 0.0865 0.48025 0.0
H1790 H 0.38968 0.03889 0.49178 0.0
H1791 H 0.31302 0.114 0.53824 0.0
H1792 H 0.33175 0.06646 0.48435 0.0
H1793 H 0.3575 0.07187 0.54959 0.0
C1794 C 0.38142 0.05319 0.54008 0.0
C1795 C 0.39101 0.04365 0.52397 0.0
C1796 C 0.32766 0.07698 0.49609 0.0
C1797 C 0.35693 0.06663 0.51742 0.0
C1798 C 0.31042 0.08839 0.49377 0.0
C1799 C 0.30472 0.10194 0.50893 0.0
C1800 C 0.33903 0.07896 0.5138 0.0
C1801 C 0.31681 0.10379 0.52614 0.0
C1802 C 0.36458 0.06472 0.53687 0.0
C1803 C 0.38278 0.04582 0.50471 0.0
N1804 N 0.33326 0.09235 0.52815 0.0
N1805 N 0.3662 0.05706 0.50197 0.0
H1806 H 0.6158 0.45943 0.53066 0.0
H1807 H 0.71761 0.44076 0.47339 0.0
H1808 H 0.64986 0.50828 0.50407 0.0
H1809 H 0.69947 0.40528 0.52405 0.0
H1810 H 0.69036 0.46384 0.48068 0.0
H1811 H 0.64402 0.43746 0.52486 0.0
C1812 C 0.62919 0.46568 0.52378 0.0
C1813 C 0.63029 0.48593 0.51794 0.0
C1814 C 0.69245 0.45104 0.49023 0.0
C1815 C 0.66248 0.46045 0.51067 0.0
C1816 C 0.70793 0.43784 0.48606 0.0
C1817 C 0.71086 0.4211 0.49817 0.0
C1818 C 0.67953 0.44722 0.50633 0.0
C1819 C 0.69786 0.41808 0.51441 0.0
C1820 C 0.64526 0.45302 0.52036 0.0
C1821 C 0.648 0.49278 0.50853 0.0
N1822 N 0.68264 0.43089 0.5179 0.0
N1823 N 0.66331 0.48005 0.50507 0.0
H1824 H 0.69239 0.28252 0.38674 0.0
H1825 H 0.76156 0.32837 0.46734 0.0
H1826 H 0.72843 0.2421 0.42111 0.0
H1827 H 0.69879 0.3407 0.47443 0.0
H1828 H 0.75252 0.30028 0.44452 0.0
H1829 H 0.69595 0.30747 0.41377 0.0
C1830 C 0.70082 0.27861 0.39991 0.0
C1831 C 0.71037 0.25998 0.40123 0.0
C1832 C 0.74076 0.30911 0.45116 0.0
C1833 C 0.71522 0.28918 0.43169 0.0
C1834 C 0.74587 0.32513 0.46399 0.0
C1835 C 0.73086 0.33695 0.47233 0.0
C1836 C 0.72054 0.30517 0.44639 0.0
C1837 C 0.71072 0.332 0.46796 0.0
C1838 C 0.70292 0.29304 0.41526 0.0
C1839 C 0.72141 0.25636 0.41878 0.0
N1840 N 0.70608 0.31664 0.45485 0.0
N1841 N 0.72392 0.27098 0.43306 0.0
H1842 H 0.54052 0.05567 0.87986 0.0
H1843 H 0.60489 0.98759 0.80599 0.0
H1844 H 0.54746 0.99229 0.88988 0.0
H1845 H 0.58356 0.04663 0.79217 0.0
H1846 H 0.58472 0.98817 0.83675 0.0
H1847 H 0.55748 0.05213 0.8479 0.0
C1848 C 0.54571 0.04098 0.87531 0.0
C1849 C 0.54277 0.02429 0.88761 0.0
C1850 C 0.58438 1.00086 0.82682 0.0
C1851 C 0.56222 0.02003 0.85081 0.0
C1852 C 0.59585 1.00054 0.80926 0.0
C1853 C 0.59614 0.01716 0.79649 0.0
C1854 C 0.57326 0.01796 0.83164 0.0
C1855 C 0.5841 0.03352 0.80154 0.0
C1856 C 0.55529 0.03891 0.85697 0.0
C1857 C 0.54947 0.00552 0.88079 0.0
N1858 N 0.57335 0.03354 0.8187 0.0
N1859 N 0.55908 0.0039 0.86288 0.0
H1860 H 0.28613 0.27768 0.42391 0.0
H1861 H 0.29246 0.16309 0.45773 0.0
H1862 H 0.31111 0.23161 0.38587 0.0
H1863 H 0.24659 0.20351 0.47715 0.0
H1864 H 0.30681 0.19004 0.43674 0.0
H1865 H 0.27901 0.25234 0.44909 0.0
C1866 C 0.29018 0.26227 0.42082 0.0
C1867 C 0.29888 0.25677 0.40249 0.0
C1868 C 0.29378 0.193 0.44585 0.0
C1869 C 0.29116 0.22775 0.43157 0.0
C1870 C 0.28571 0.17775 0.45787 0.0
C1871 C 0.26831 0.18116 0.46902 0.0
C1872 C 0.28456 0.21179 0.44545 0.0
C1873 C 0.25994 0.20028 0.46861 0.0
C1874 C 0.28622 0.24785 0.43528 0.0
C1875 C 0.30442 0.23662 0.39974 0.0
N1876 N 0.26814 0.21487 0.45702 0.0
N1877 N 0.30032 0.22279 0.41405 0.0
H1878 H 0.47659 0.52533 0.89084 0.0
H1879 H 0.4275 0.46135 0.79994 0.0
H1880 H 0.47806 0.46066 0.88462 0.0
H1881 H 0.41623 0.52459 0.80887 0.0
H1882 H 0.44809 0.46201 0.82984 0.0
H1883 H 0.45634 0.52639 0.8601 0.0
C1884 C 0.47268 0.51137 0.88302 0.0
C1885 C 0.47898 0.49285 0.89039 0.0
C1886 C 0.44117 0.47579 0.82533 0.0
C1887 C 0.45588 0.49399 0.85525 0.0
C1888 C 0.42938 0.47548 0.80812 0.0
C1889 C 0.41995 0.49296 0.80176 0.0
C1890 C 0.44377 0.49372 0.8365 0.0
C1891 C 0.42315 0.51074 0.81316 0.0
C1892 C 0.46106 0.51199 0.86553 0.0
C1893 C 0.47333 0.47525 0.87972 0.0
N1894 N 0.43479 0.51066 0.83001 0.0
N1895 N 0.4622 0.47628 0.86273 0.0
H1896 H 0.70998 0.72664 0.13604 0.0
H1897 H 0.70886 0.69903 0.01952 0.0
H1898 H 0.70716 0.77194 0.09073 0.0
H1899 H 0.73776 0.6623 0.06324 0.0
H1900 H 0.70274 0.72426 0.04579 0.0
H1901 H 0.71469 0.70102 0.10974 0.0
C1902 C 0.7102 0.73113 0.12053 0.0
C1903 C 0.70823 0.75139 0.1155 0.0
C1904 C 0.71042 0.71067 0.04958 0.0
C1905 C 0.71348 0.72227 0.08545 0.0
C1906 C 0.71384 0.69623 0.03464 0.0
C1907 C 0.72391 0.67856 0.03917 0.0
C1908 C 0.71675 0.70724 0.06926 0.0
C1909 C 0.73008 0.67577 0.05904 0.0
C1910 C 0.71301 0.71657 0.10558 0.0
C1911 C 0.70878 0.75648 0.09521 0.0
N1912 N 0.7263 0.6899 0.07337 0.0
N1913 N 0.71125 0.742 0.08089 0.0
H1914 H 0.98096 0.04641 0.13673 0.0
H1915 H 0.92718 0.96338 0.20525 0.0
H1916 H 0.98834 0.98246 0.12871 0.0
H1917 H 0.91686 0.02712 0.21079 0.0
H1918 H 0.9504 0.97015 0.17787 0.0
H1919 H 0.95801 0.03969 0.16436 0.0
C1920 C 0.97769 0.03094 0.14069 0.0
C1921 C 0.98662 0.01498 0.13032 0.0
C1922 C 0.94307 0.98266 0.18509 0.0
C1923 C 0.96048 0.00717 0.16218 0.0
C1924 C 0.92982 0.97881 0.20078 0.0
C1925 C 0.91999 0.99469 0.21042 0.0
C1926 C 0.94662 0.00254 0.17894 0.0
C1927 C 0.92402 0.01436 0.20385 0.0
C1928 C 0.96465 0.02712 0.15657 0.0
C1929 C 0.98204 0.99526 0.13641 0.0
N1930 N 0.937 0.01771 0.18855 0.0
N1931 N 0.9693 0.99193 0.15191 0.0
H1932 H 0.30671 0.80204 0.14319 0.0
H1933 H 0.29037 0.82283 0.02702 0.0
H1934 H 0.30209 0.75481 0.09828 0.0
H1935 H 0.27152 0.86434 0.07314 0.0
H1936 H 0.30059 0.79956 0.05285 0.0
H1937 H 0.29913 0.82675 0.11752 0.0
C1938 C 0.30417 0.79691 0.1279 0.0
C1939 C 0.30497 0.77637 0.12282 0.0
C1940 C 0.29433 0.81381 0.05731 0.0
C1941 C 0.29652 0.80449 0.09345 0.0
C1942 C 0.28862 0.82718 0.04259 0.0
C1943 C 0.28001 0.84555 0.04794 0.0
C1944 C 0.29166 0.81891 0.07756 0.0
C1945 C 0.27803 0.85032 0.06837 0.0
C1946 C 0.29978 0.81098 0.11331 0.0
C1947 C 0.30143 0.77048 0.10284 0.0
N1948 N 0.28381 0.83707 0.08246 0.0
N1949 N 0.29747 0.78448 0.08886 0.0
H1950 H 0.03069 0.51847 0.11844 0.0
H1951 H 0.09811 0.47826 0.20784 0.0
H1952 H 0.03674 0.45531 0.13062 0.0
H1953 H 0.08362 0.54072 0.2006 0.0
H1954 H 0.07625 0.46939 0.17938 0.0
H1955 H 0.0506 0.52675 0.14824 0.0
C1956 C 0.03604 0.50631 0.12745 0.0
C1957 C 0.03193 0.48613 0.12196 0.0
C1958 C 0.0778 0.48502 0.18411 0.0
C1959 C 0.05515 0.49557 0.15607 0.0
C1960 C 0.09028 0.49011 0.20037 0.0
C1961 C 0.0928 0.5103 0.20667 0.0
C1962 C 0.06785 0.50021 0.17395 0.0
C1963 C 0.08221 0.52496 0.19636 0.0
C1964 C 0.04753 0.51107 0.14445 0.0
C1965 C 0.03972 0.47107 0.13408 0.0
N1966 N 0.07031 0.51963 0.18049 0.0
N1967 N 0.05097 0.47609 0.15052 0.0
H1968 H 0.40569 0.67331 0.26515 0.0
H1969 H 0.45858 0.75879 0.33432 0.0
H1970 H 0.38952 0.73581 0.26616 0.0
H1971 H 0.47263 0.6961 0.33852 0.0
H1972 H 0.43513 0.75055 0.30716 0.0
H1973 H 0.43163 0.68111 0.29038 0.0
C1974 C 0.40758 0.68866 0.27065 0.0
C1975 C 0.3954 0.70394 0.26345 0.0
C1976 C 0.44327 0.73851 0.31395 0.0
C1977 C 0.4252 0.71296 0.29212 0.0
C1978 C 0.45656 0.74321 0.32951 0.0
C1979 C 0.46689 0.72796 0.339 0.0
C1980 C 0.44036 0.71837 0.30772 0.0
C1981 C 0.46448 0.70816 0.33178 0.0
C1982 C 0.42246 0.6931 0.28497 0.0
C1983 C 0.39872 0.72359 0.27096 0.0
N1984 N 0.45121 0.70384 0.31666 0.0
N1985 N 0.41325 0.72749 0.28487 0.0
H1986 H 0.94545 0.38271 0.97025 0.0
H1987 H 0.01787 0.30604 0.91449 0.0
H1988 H 0.00983 0.39152 0.97098 0.0
H1989 H 0.95541 0.29369 0.92793 0.0
H1990 H 0.01599 0.33777 0.9338 0.0
H1991 H 0.94936 0.3507 0.95273 0.0
C1992 C 0.96044 0.37796 0.96657 0.0
C1993 C 0.97732 0.38989 0.97196 0.0
C1994 C 0.0028 0.32797 0.93257 0.0
C1995 C 0.982 0.35294 0.95199 0.0
C1996 C 0.00386 0.30985 0.92159 0.0
C1997 C 0.98675 0.29714 0.91941 0.0
C1998 C 0.98449 0.33342 0.94126 0.0
C1999 C 0.969 0.30293 0.92897 0.0
C2000 C 0.9627 0.35956 0.95671 0.0
C2001 C 0.99642 0.38273 0.96715 0.0
N2002 N 0.96834 0.32061 0.93929 0.0
N2003 N 0.99826 0.36474 0.95732 0.0
H2004 H 0.58879 0.79051 0.24789 0.0
H2005 H 0.56899 0.76929 0.36275 0.0
H2006 H 0.63588 0.79704 0.29216 0.0
H2007 H 0.52221 0.78655 0.32211 0.0
H2008 H 0.59402 0.77775 0.33722 0.0
H2009 H 0.56422 0.7866 0.27479 0.0
C2010 C 0.59393 0.79105 0.26329 0.0
C2011 C 0.61436 0.79404 0.26784 0.0
C2012 C 0.57829 0.77992 0.33403 0.0
C2013 C 0.58641 0.78957 0.29866 0.0
C2014 C 0.56401 0.77514 0.34859 0.0
C2015 C 0.54348 0.77718 0.34454 0.0
C2016 C 0.57194 0.78641 0.31519 0.0
C2017 C 0.53786 0.78477 0.32591 0.0
C2018 C 0.57992 0.78899 0.27863 0.0
C2019 C 0.62023 0.79486 0.28805 0.0
N2020 N 0.55198 0.78884 0.31183 0.0
N2021 N 0.60634 0.79245 0.30274 0.0
H2022 H 0.02841 0.11161 0.96048 0.0
H2023 H 0.9685 0.21129 0.94213 0.0
H2024 H 0.99978 0.1437 0.00888 0.0
H2025 H 0.02021 0.19584 0.90693 0.0
H2026 H 0.9759 0.18374 0.96478 0.0
H2027 H 0.02198 0.1398 0.9386 0.0
C2028 C 0.02093 0.12456 0.96664 0.0
C2029 C 0.01467 0.1251 0.98672 0.0
C2030 C 0.98564 0.18648 0.95213 0.0
C2031 C 0.00673 0.15722 0.96138 0.0
C2032 C 0.9814 0.20213 0.93917 0.0
C2033 C 0.99381 0.20593 0.92266 0.0
C2034 C 1.00212 0.17427 0.94828 0.0
C2035 C 0.01034 0.19356 0.91956 0.0
C2036 C 0.01716 0.14061 0.95404 0.0
C2037 C 0.00455 0.14225 0.99349 0.0
N2038 N 0.01391 0.17818 0.93214 0.0
N2039 N 1.00079 0.15752 0.98084 0.0
H2040 H 0.38846 0.26018 0.25524 0.0
H2041 H 0.47028 0.29079 0.17293 0.0
H2042 H 0.40401 0.32227 0.24349 0.0
H2043 H 0.44672 0.23058 0.18269 0.0
H2044 H 0.44705 0.3034 0.19853 0.0
H2045 H 0.41079 0.24976 0.22868 0.0
C2046 C 0.39672 0.27166 0.24711 0.0
C2047 C 0.39456 0.29211 0.25177 0.0
C2048 C 0.44702 0.28746 0.19494 0.0
C2049 C 0.42021 0.28025 0.22093 0.0
C2050 C 0.46027 0.28024 0.18036 0.0
C2051 C 0.46064 0.25955 0.17567 0.0
C2052 C 0.43414 0.27384 0.20485 0.0
C2053 C 0.44724 0.24662 0.18578 0.0
C2054 C 0.40941 0.2657 0.2318 0.0
C2055 C 0.40528 0.30632 0.24036 0.0
N2056 N 0.43469 0.25397 0.19982 0.0
N2057 N 0.41779 0.30012 0.2255 0.0
H2058 H 0.52166 0.40436 0.06365 0.0
H2059 H 0.4806 0.29129 0.07767 0.0
H2060 H 0.49614 0.36784 0.01542 0.0
H2061 H 0.52196 0.32117 0.11893 0.0
H2062 H 0.48176 0.32114 0.05669 0.0
H2063 H 0.51792 0.37572 0.08587 0.0
C2064 C 0.51534 0.39035 0.05764 0.0
C2065 C 0.50934 0.3886 0.03747 0.0
C2066 C 0.4905 0.32119 0.07039 0.0
C2067 C 0.50461 0.35579 0.06312 0.0
C2068 C 0.48976 0.3042 0.08243 0.0
C2069 C 0.50126 0.30371 0.10006 0.0
C2070 C 0.50266 0.33791 0.07609 0.0
C2071 C 0.51292 0.32086 0.10543 0.0
C2072 C 0.5131 0.37402 0.07042 0.0
C2073 C 0.50077 0.3701 0.03084 0.0
N2074 N 0.51333 0.33726 0.0935 0.0
N2075 N 0.49867 0.35446 0.04361 0.0
H2076 H 0.61457 0.18275 0.2417 0.0
H2077 H 0.55398 0.25746 0.17221 0.0
H2078 H 0.62165 0.24741 0.24533 0.0
H2079 H 0.53657 0.19505 0.18002 0.0
H2080 H 0.58139 0.25344 0.19614 0.0
H2081 H 0.58854 0.18639 0.21609 0.0
C2082 C 0.61074 0.1977 0.237 0.0
C2083 C 0.62021 0.21481 0.24573 0.0
C2084 C 0.57157 0.24063 0.19259 0.0
C2085 C 0.59046 0.21908 0.21648 0.0
C2086 C 0.55594 0.24289 0.17887 0.0
C2087 C 0.54285 0.2266 0.1741 0.0
C2088 C 0.5743 0.22189 0.20149 0.0
C2089 C 0.54617 0.20808 0.18329 0.0
C2090 C 0.59581 0.19977 0.22249 0.0
C2091 C 0.61454 0.23383 0.23919 0.0
N2092 N 0.56157 0.20624 0.19649 0.0
N2093 N 0.60008 0.23545 0.22495 0.0
H2094 H 0.52554 0.11823 0.0369 0.0
H2095 H 0.47578 0.21503 0.08692 0.0
H2096 H 0.46232 0.13058 0.03471 0.0
H2097 H 0.53825 0.20166 0.09426 0.0
H2098 H 0.47191 0.18657 0.06352 0.0
H2099 H 0.53162 0.15047 0.05453 0.0
C2100 C 0.51297 0.12778 0.04001 0.0
C2101 C 0.49337 0.12163 0.03446 0.0
C2102 C 0.48653 0.18984 0.07011 0.0
C2103 C 0.50022 0.15855 0.05446 0.0
C2104 C 0.4887 0.20602 0.0835 0.0
C2105 C 0.50715 0.21004 0.09301 0.0
C2106 C 0.50296 0.17755 0.06626 0.0
C2107 C 0.52365 0.19857 0.08756 0.0
C2108 C 0.51645 0.14616 0.05008 0.0
C2109 C 0.47763 0.13454 0.03898 0.0
N2110 N 0.5211 0.18253 0.07478 0.0
N2111 N 0.4814 0.15234 0.04871 0.0
H2112 H 0.26049 0.39678 0.75037 0.0
H2113 H 0.33881 0.47633 0.70351 0.0
H2114 H 0.26312 0.40816 0.68703 0.0
H2115 H 0.3328 0.46462 0.76642 0.0
H2116 H 0.31091 0.45209 0.69655 0.0
H2117 H 0.28712 0.4219 0.75601 0.0
C2118 C 0.26653 0.40475 0.73764 0.0
C2119 C 0.25937 0.40053 0.71822 0.0
C2120 C 0.31573 0.45484 0.71186 0.0
C2121 C 0.29019 0.42935 0.72457 0.0
C2122 C 0.33158 0.4686 0.71579 0.0
C2123 C 0.33841 0.47178 0.73546 0.0
C2124 C 0.30654 0.44463 0.72782 0.0
C2125 C 0.32834 0.46198 0.75098 0.0
C2126 C 0.28186 0.41905 0.74086 0.0
C2127 C 0.26822 0.41094 0.70225 0.0
N2128 N 0.31302 0.44875 0.74682 0.0
N2129 N 0.28316 0.42494 0.70577 0.0
H2130 H 0.27699 0.63184 0.7645 0.0
H2131 H 0.3309 0.53433 0.80207 0.0
H2132 H 0.26516 0.60737 0.82276 0.0
H2133 H 0.35712 0.57379 0.7581 0.0
H2134 H 0.30566 0.55961 0.8093 0.0
H2135 H 0.305 0.60898 0.76063 0.0
C2136 C 0.28027 0.62157 0.77643 0.0
C2137 C 0.26872 0.6214 0.79393 0.0
C2138 C 0.31712 0.56282 0.79827 0.0
C2139 C 0.30071 0.59523 0.78964 0.0
C2140 C 0.33154 0.54843 0.79416 0.0
C2141 C 0.34611 0.55195 0.77943 0.0
C2142 C 0.31705 0.58065 0.78729 0.0
C2143 C 0.3462 0.57046 0.7696 0.0
C2144 C 0.29634 0.60867 0.77431 0.0
C2145 C 0.27376 0.60799 0.80906 0.0
N2146 N 0.33171 0.58398 0.7735 0.0
N2147 N 0.28927 0.59529 0.8065 0.0
H2148 H 0.88744 0.46937 0.45026 0.0
H2149 H 0.81005 0.4113 0.52153 0.0
H2150 H 0.89601 0.46836 0.51424 0.0
H2151 H 0.79839 0.42622 0.45995 0.0
H2152 H 0.84182 0.43097 0.51995 0.0
H2153 H 0.85525 0.45181 0.45408 0.0
C2154 C 0.88258 0.46532 0.46515 0.0
C2155 C 0.89451 0.47019 0.48194 0.0
C2156 C 0.83216 0.42998 0.50689 0.0
C2157 C 0.85737 0.45013 0.48651 0.0
C2158 C 0.81402 0.4188 0.50778 0.0
C2159 C 0.8015 0.41692 0.49082 0.0
C2160 C 0.8378 0.4392 0.48889 0.0
C2161 C 0.80749 0.42699 0.47341 0.0
C2162 C 0.86408 0.45541 0.46735 0.0
C2163 C 0.88722 0.46491 0.50091 0.0
N2164 N 0.82516 0.43751 0.4729 0.0
N2165 N 0.86914 0.45503 0.5027 0.0
H2166 H 0.74151 0.88092 0.76739 0.0
H2167 H 0.68666 0.98079 0.79878 0.0
H2168 H 0.75057 0.90831 0.82575 0.0
H2169 H 0.66181 0.93827 0.75531 0.0
H2170 H 0.71142 0.95592 0.80826 0.0
H2171 H 0.71375 0.90352 0.76149 0.0
C2172 C 0.73763 0.89175 0.77894 0.0
C2173 C 0.74836 0.89287 0.79703 0.0
C2174 C 0.70036 0.95199 0.79683 0.0
C2175 C 0.71671 0.9188 0.79038 0.0
C2176 C 0.68624 0.96615 0.79141 0.0
C2177 C 0.67219 0.96161 0.77618 0.0
C2178 C 0.70066 0.93334 0.78665 0.0
C2179 C 0.67235 0.94242 0.76713 0.0
C2180 C 0.72172 0.90453 0.77564 0.0
C2181 C 0.74261 0.90699 0.81162 0.0
N2182 N 0.68653 0.9291 0.77231 0.0
N2183 N 0.72729 0.9196 0.8079 0.0
H2184 H 0.62199 0.53361 0.03135 0.0
H2185 H 0.71604 0.58622 0.97691 0.0
H2186 H 0.63266 0.52901 0.96783 0.0
H2187 H 0.69984 0.59935 0.03795 0.0
H2188 H 0.68757 0.56222 0.97428 0.0
H2189 H 0.65207 0.5553 0.03488 0.0
C2190 C 0.63073 0.53708 0.01816 0.0
C2191 C 0.62481 0.52946 0.99926 0.0
C2192 C 0.69017 0.57035 0.98825 0.0
C2193 C 0.65926 0.55428 0.0032 0.0
C2194 C 0.70632 0.58409 0.9897 0.0
C2195 C 0.70962 0.59527 0.00739 0.0
C2196 C 0.67739 0.56767 0.00472 0.0
C2197 C 0.69732 0.59136 0.02388 0.0
C2198 C 0.64785 0.54953 0.02018 0.0
C2199 C 0.63655 0.5347 0.98265 0.0
N2200 N 0.68154 0.57804 0.02209 0.0
N2201 N 0.65323 0.54673 0.98502 0.0
H2202 H 0.24488 0.62596 0.23172 0.0
H2203 H 0.1712 0.53522 0.19552 0.0
H2204 H 0.237 0.60922 0.16949 0.0
H2205 H 0.18182 0.55268 0.25707 0.0
H2206 H 0.19584 0.56128 0.18517 0.0
H2207 H 0.2218 0.59875 0.24087 0.0
C2208 C 0.23839 0.61643 0.21996 0.0
C2209 C 0.24306 0.61974 0.19982 0.0
C2210 C 0.19278 0.55937 0.20093 0.0
C2211 C 0.21641 0.58843 0.2102 0.0
C2212 C 0.17879 0.54456 0.20679 0.0
C2213 C 0.17407 0.54249 0.22706 0.0
C2214 C 0.20229 0.57178 0.21557 0.0
C2215 C 0.18459 0.5544 0.24122 0.0
C2216 C 0.22514 0.60089 0.22519 0.0
C2217 C 0.23377 0.60721 0.1852 0.0
N2218 N 0.19808 0.56865 0.23521 0.0
N2219 N 0.22091 0.59204 0.19068 0.0
H2220 H 0.87132 0.5191 0.0091 0.0
H2221 H 0.81987 0.62419 0.02945 0.0
H2222 H 0.90353 0.57103 0.03387 0.0
H2223 H 0.79516 0.57949 0.98811 0.0
H2224 H 0.85008 0.60431 0.03257 0.0
H2225 H 0.84277 0.54033 0.00229 0.0
C2226 C 0.87254 0.53498 0.01293 0.0
C2227 C 0.88994 0.54318 0.02222 0.0
C2228 C 0.83812 0.59893 0.02269 0.0
C2229 C 0.857 0.56751 0.01481 0.0
C2230 C 0.82085 0.61025 0.02093 0.0
C2231 C 0.80496 0.60347 0.00852 0.0
C2232 C 0.8394 0.58051 0.01221 0.0
C2233 C 0.80707 0.5853 0.99781 0.0
C2234 C 0.85615 0.54707 0.00911 0.0
C2235 C 0.89035 0.56385 0.02711 0.0
N2236 N 0.82389 0.57436 1.00004 0.0
N2237 N 0.8741 0.57523 0.02349 0.0
H2238 H 0.11634 0.96128 0.03316 0.0
H2239 H 0.217 0.94233 0.97408 0.0
H2240 H 0.15003 0.00986 0.00567 0.0
H2241 H 0.19937 0.90626 0.02449 0.0
H2242 H 0.19015 0.96557 0.98214 0.0
H2243 H 0.14443 0.93922 0.02712 0.0
C2244 C 0.12964 0.96747 0.02605 0.0
C2245 C 0.13065 0.98765 0.01999 0.0
C2246 C 0.19225 0.95262 0.99148 0.0
C2247 C 0.16269 0.96205 0.01246 0.0
C2248 C 0.2075 0.93931 0.98686 0.0
C2249 C 0.21045 0.92234 0.99865 0.0
C2250 C 0.17957 0.9487 0.00774 0.0
C2251 C 0.19772 0.91922 0.01507 0.0
C2252 C 0.14564 0.95475 0.02251 0.0
C2253 C 0.14824 0.9944 0.0103 0.0
N2254 N 0.18269 0.93216 0.01901 0.0
N2255 N 0.16347 0.98161 0.00672 0.0
loop_
_geom_bond_atom_site_label_1
_geom_bond_atom_site_label_2
_geom_bond_distance
_geom_bond_site_symmetry_2
_ccdc_geom_bond_type
C0 C1 1.391 . S
C0 C4 1.391 . S
C0 H42 0.948 . S
C1 C0 1.391 . S
C1 C2 1.391 . S
C2 C1 1.391 . S
C2 H58 0.947 1_455 S
C2 C59 1.392 1_556 S
C3 C4 1.391 1_554 S
C3 C7 1.397 . S
C3 C59 1.419 . S
C4 C0 1.391 . S
C4 C3 1.391 1_556 S
C4 C5 1.399 . S
C5 C4 1.399 . S
C5 C8 1.396 1_556 S
C5 C17 1.453 . S
C5 C18 1.684 . S
H6 C30 0.948 . S
C7 C3 1.397 . S
C7 C8 1.394 . S
C7 C26 1.723 . S
C8 C5 1.396 1_554 S
C8 C7 1.394 . S
C8 C38 1.723 . S
H9 C32 0.947 1_556 S
H10 C33 0.948 1_556 S
H11 C39 0.982 1_545 S
H12 C40 0.979 . S
H13 C40 0.980 . S
H14 C40 0.983 . S
H15 C39 0.979 . S
H16 C39 0.975 1_545 S
C17 C5 1.453 . S
C17 H46 0.982 1_556 S
C17 H47 0.979 . S
C17 H48 0.977 . S
C18 C5 1.684 . S
C18 H43 0.979 . S
C18 H44 0.980 . S
C18 H45 0.983 . S
C19 C20 1.391 . S
C19 C24 1.391 . S
C19 H49 0.948 . S
C20 C19 1.391 . S
C20 C21 1.391 . S
C21 C20 1.391 . S
C21 C22 1.392 1_655 S
C21 H50 0.947 1_545 S
C22 C21 1.392 1_455 S
C22 C23 1.419 . S
C22 H51 0.948 1_545 S
C23 C22 1.419 . S
C23 C24 1.391 1_455 S
C23 C27 1.397 . S
C24 C19 1.391 . S
C24 C23 1.391 1_655 S
C24 C25 1.399 . S
C25 C24 1.399 . S
C25 C26 1.396 1_655 S
C25 C28 1.453 . S
C25 C29 1.684 . S
C26 C7 1.723 . S
C26 C25 1.396 1_455 S
C26 C27 1.394 . S
C27 C23 1.397 . S
C27 C26 1.394 . S
C27 C37 1.723 . S
C28 C25 1.453 . S
C28 H52 0.982 1_655 S
C28 H53 0.979 . S
C28 H54 0.977 1_655 S
C29 C25 1.684 . S
C29 H55 0.979 . S
C29 H56 0.980 . S
C29 H57 0.983 . S
C30 H6 0.948 . S
C30 C31 1.391 . S
C30 C35 1.391 . S
C31 C30 1.391 . S
C31 C32 1.391 . S
C32 H9 0.947 1_554 S
C32 C31 1.391 . S
C32 C33 1.392 1_565 S
C33 H10 0.948 1_554 S
C33 C32 1.392 1_545 S
C33 C34 1.419 . S
C34 C33 1.419 . S
C34 C35 1.391 1_545 S
C34 C38 1.397 . S
C35 C30 1.391 . S
C35 C34 1.391 1_565 S
C35 C36 1.399 . S
C36 C35 1.399 . S
C36 C37 1.396 1_565 S
C36 C39 1.453 . S
C36 C40 1.684 . S
C37 C27 1.723 . S
C37 C36 1.396 1_545 S
C37 C38 1.394 . S
C38 C8 1.723 . S
C38 C34 1.397 . S
C38 C37 1.394 . S
C39 H11 0.982 1_565 S
C39 H15 0.979 . S
C39 H16 0.975 1_565 S
C39 C36 1.453 . S
C40 H12 0.979 . S
C40 H13 0.980 . S
C40 H14 0.983 . S
C40 C36 1.684 . S
H41 C59 0.948 1_655 S
H42 C0 0.948 . S
H43 C18 0.979 . S
H44 C18 0.980 . S
H45 C18 0.983 . S
H46 C17 0.982 1_554 S
H47 C17 0.979 . S
H48 C17 0.977 . S
H49 C19 0.948 . S
H50 C21 0.947 1_565 S
H51 C22 0.948 1_565 S
H52 C28 0.982 1_455 S
H53 C28 0.979 . S
H54 C28 0.977 1_455 S
H55 C29 0.979 . S
H56 C29 0.980 . S
H57 C29 0.983 . S
H58 C2 0.947 1_655 S
C59 C2 1.392 1_554 S
C59 C3 1.419 . S
C59 H41 0.948 1_455 S
C60 C61 1.391 . S
C60 C64 1.391 . S
C60 H102 0.948 . S
C61 C60 1.391 . S
C61 C62 1.391 . S
C62 C61 1.391 . S
C62 H118 0.947 . S
C62 C119 1.392 . S
C63 C64 1.391 . S
C63 C67 1.397 . S
C63 C119 1.419 . S
C64 C60 1.391 . S
C64 C63 1.391 . S
C64 C65 1.399 . S
C65 C64 1.399 . S
C65 C68 1.396 . S
C65 C77 1.453 . S
C65 C78 1.684 . S
H66 C90 0.948 . S
C67 C63 1.397 . S
C67 C68 1.394 . S
C67 C86 1.723 . S
C68 C65 1.396 . S
C68 C67 1.394 . S
C68 C98 1.723 . S
H69 C92 0.947 . S
H70 C93 0.948 . S
H71 C99 0.982 . S
H72 C100 0.979 . S
H73 C100 0.980 . S
H74 C100 0.983 . S
H75 C99 0.979 . S
H76 C99 0.977 . S
C77 C65 1.453 . S
C77 H106 0.982 . S
C77 H107 0.979 . S
C77 H108 0.977 . S
C78 C65 1.684 . S
C78 H103 0.979 . S
C78 H104 0.980 . S
C78 H105 0.983 . S
C79 C80 1.391 . S
C79 C84 1.391 . S
C79 H109 0.948 . S
C80 C79 1.391 . S
C80 C81 1.391 . S
C81 C80 1.391 . S
C81 C82 1.392 . S
C81 H110 0.947 . S
C82 C81 1.392 . S
C82 C83 1.419 . S
C82 H111 0.948 . S
C83 C82 1.419 . S
C83 C84 1.391 . S
C83 C87 1.397 . S
C84 C79 1.391 . S
C84 C83 1.391 . S
C84 C85 1.399 . S
C85 C84 1.399 . S
C85 C86 1.396 . S
C85 C88 1.453 . S
C85 C89 1.684 . S
C86 C67 1.723 . S
C86 C85 1.396 . S
C86 C87 1.394 . S
C87 C83 1.397 . S
C87 C86 1.394 . S
C87 C97 1.723 . S
C88 C85 1.453 . S
C88 H112 0.982 . S
C88 H113 0.979 . S
C88 H114 0.977 . S
C89 C85 1.684 . S
C89 H115 0.979 . S
C89 H116 0.980 . S
C89 H117 0.983 . S
C90 H66 0.948 . S
C90 C91 1.391 . S
C90 C95 1.391 . S
C91 C90 1.391 . S
C91 C92 1.391 . S
C92 H69 0.947 . S
C92 C91 1.391 . S
C92 C93 1.392 . S
C93 H70 0.948 . S
C93 C92 1.392 . S
C93 C94 1.419 . S
C94 C93 1.419 . S
C94 C95 1.391 . S
C94 C98 1.397 . S
C95 C90 1.391 . S
C95 C94 1.391 . S
C95 C96 1.399 . S
C96 C95 1.399 . S
C96 C97 1.396 . S
C96 C99 1.453 . S
C96 C100 1.684 . S
C97 C87 1.723 . S
C97 C96 1.396 . S
C97 C98 1.394 . S
C98 C68 1.723 . S
C98 C94 1.397 . S
C98 C97 1.394 . S
C99 H71 0.982 . S
C99 H75 0.979 . S
C99 H76 0.977 . S
C99 C96 1.453 . S
C100 H72 0.979 . S
C100 H73 0.980 . S
C100 H74 0.983 . S
C100 C96 1.684 . S
H101 C119 0.948 . S
H102 C60 0.948 . S
H103 C78 0.979 . S
H104 C78 0.980 . S
H105 C78 0.983 . S
H106 C77 0.982 . S
H107 C77 0.979 . S
H108 C77 0.977 . S
H109 C79 0.948 . S
H110 C81 0.947 . S
H111 C82 0.948 . S
H112 C88 0.982 . S
H113 C88 0.979 . S
H114 C88 0.977 . S
H115 C89 0.979 . S
H116 C89 0.980 . S
H117 C89 0.983 . S
H118 C62 0.947 . S
C119 C62 1.392 . S
C119 C63 1.419 . S
C119 H101 0.948 . S
C120 C121 1.391 . S
C120 C124 1.391 1_556 S
C120 H162 0.948 1_655 S
C121 C120 1.391 . S
C121 C122 1.391 . S
C122 C121 1.391 . S
C122 H178 0.947 . S
C122 C179 1.392 . S
C123 C124 1.391 . S
C123 C127 1.397 . S
C123 C179 1.419 1_554 S
C124 C120 1.391 1_554 S
C124 C123 1.391 . S
C124 C125 1.399 . S
C125 C124 1.399 . S
C125 C128 1.396 . S
C125 C137 1.453 . S
C125 C138 1.684 1_655 S
H126 C150 0.948 . S
C127 C123 1.397 . S
C127 C128 1.394 . S
C127 C146 1.723 . S
C128 C125 1.396 . S
C128 C127 1.394 . S
C128 C158 1.723 . S
H129 C152 0.947 . S
H130 C153 0.948 . S
H131 C159 0.982 . S
H132 C160 0.979 . S
H133 C160 0.980 . S
H134 C160 0.983 . S
H135 C159 0.979 . S
H136 C159 0.977 . S
C137 C125 1.453 . S
C137 H166 0.982 . S
C137 H167 0.979 1_655 S
C137 H168 0.977 1_655 S
C138 C125 1.684 1_455 S
C138 H163 0.979 . S
C138 H164 0.980 . S
C138 H165 0.983 . S
C139 C140 1.391 . S
C139 C144 1.391 . S
C139 H169 0.954 . S
C140 C139 1.391 . S
C140 C141 1.391 . S
C141 C140 1.391 . S
C141 C142 1.392 . S
C141 H170 0.947 . S
C142 C141 1.392 . S
C142 C143 1.419 . S
C142 H171 0.948 . S
C143 C142 1.419 . S
C143 C144 1.391 . S
C143 C147 1.397 . S
C144 C139 1.391 . S
C144 C143 1.391 . S
C144 C145 1.399 . S
C145 C144 1.399 . S
C145 C146 1.396 . S
C145 C148 1.453 . S
C145 C149 1.684 1_554 S
C146 C127 1.723 . S
C146 C145 1.396 . S
C146 C147 1.394 . S
C147 C143 1.397 . S
C147 C146 1.394 . S
C147 C157 1.723 . S
C148 C145 1.453 . S
C148 H172 0.982 . S
C148 H173 0.979 1_554 S
C148 H174 0.977 1_554 S
C149 C145 1.684 1_556 S
C149 H175 0.979 . S
C149 H176 0.980 . S
C149 H177 0.983 . S
C150 H126 0.948 . S
C150 C151 1.391 . S
C150 C155 1.391 1_455 S
C151 C150 1.391 . S
C151 C152 1.391 . S
C152 H129 0.947 . S
C152 C151 1.391 . S
C152 C153 1.392 . S
C153 H130 0.948 . S
C153 C152 1.392 . S
C153 C154 1.419 1_455 S
C154 C153 1.419 1_655 S
C154 C155 1.391 . S
C154 C158 1.397 . S
C155 C150 1.391 1_655 S
C155 C154 1.391 . S
C155 C156 1.399 . S
C156 C155 1.399 . S
C156 C157 1.396 . S
C156 C159 1.453 . S
C156 C160 1.684 . S
C157 C147 1.723 . S
C157 C156 1.396 . S
C157 C158 1.394 . S
C158 C128 1.723 . S
C158 C154 1.397 . S
C158 C157 1.394 . S
C159 H131 0.982 . S
C159 H135 0.979 . S
C159 H136 0.977 . S
C159 C156 1.453 . S
C160 H132 0.979 . S
C160 H133 0.980 . S
C160 H134 0.983 . S
C160 C156 1.684 . S
H161 C179 0.948 . S
H162 C120 0.948 1_455 S
H163 C138 0.979 . S
H164 C138 0.980 . S
H165 C138 0.983 . S
H166 C137 0.982 . S
H167 C137 0.979 1_455 S
H168 C137 0.977 1_455 S
H169 C139 0.954 . S
H170 C141 0.947 . S
H171 C142 0.948 . S
H172 C148 0.982 . S
H173 C148 0.979 1_556 S
H174 C148 0.977 1_556 S
H175 C149 0.979 . S
H176 C149 0.980 . S
H177 C149 0.983 . S
H178 C122 0.947 . S
C179 C122 1.392 . S
C179 C123 1.419 1_556 S
C179 H161 0.948 . S
C180 C181 1.391 . S
C180 C184 1.391 . S
C180 H222 0.948 . S
C181 C180 1.391 . S
C181 C182 1.391 . S
C182 C181 1.391 . S
C182 H238 0.947 . S
C182 C239 1.392 . S
C183 C184 1.391 . S
C183 C187 1.397 . S
C183 C239 1.419 . S
C184 C180 1.391 . S
C184 C183 1.391 . S
C184 C185 1.399 . S
C185 C184 1.399 . S
C185 C188 1.396 . S
C185 C197 1.453 . S
C185 C198 1.684 . S
H186 C210 0.948 . S
C187 C183 1.397 . S
C187 C188 1.394 . S
C187 C206 1.723 . S
C188 C185 1.396 . S
C188 C187 1.394 . S
C188 C218 1.723 . S
H189 C212 0.947 . S
H190 C213 0.948 . S
H191 C219 0.982 . S
H192 C220 0.979 . S
H193 C220 0.980 . S
H194 C220 0.983 . S
H195 C219 0.979 . S
H196 C219 0.977 . S
C197 C185 1.453 . S
C197 H226 0.982 . S
C197 H227 0.979 . S
C197 H228 0.977 . S
C198 C185 1.684 . S
C198 H223 0.979 . S
C198 H224 0.980 . S
C198 H225 0.983 . S
C199 C200 1.391 . S
C199 C204 1.391 . S
C199 H229 0.948 . S
C200 C199 1.391 . S
C200 C201 1.391 . S
C201 C200 1.391 . S
C201 C202 1.392 . S
C201 H230 0.947 . S
C202 C201 1.392 . S
C202 C203 1.419 . S
C202 H231 0.948 . S
C203 C202 1.419 . S
C203 C204 1.391 . S
C203 C207 1.397 . S
C204 C199 1.391 . S
C204 C203 1.391 . S
C204 C205 1.399 . S
C205 C204 1.399 . S
C205 C206 1.396 . S
C205 C208 1.453 . S
C205 C209 1.684 . S
C206 C187 1.723 . S
C206 C205 1.396 . S
C206 C207 1.394 . S
C207 C203 1.397 . S
C207 C206 1.394 . S
C207 C217 1.723 . S
C208 C205 1.453 . S
C208 H232 0.982 . S
C208 H233 0.979 . S
C208 H234 0.977 . S
C209 C205 1.684 . S
C209 H235 0.979 . S
C209 H236 0.980 . S
C209 H237 0.983 . S
C210 H186 0.948 . S
C210 C211 1.391 . S
C210 C215 1.391 . S
C211 C210 1.391 . S
C211 C212 1.391 . S
C212 H189 0.947 . S
C212 C211 1.391 . S
C212 C213 1.392 . S
C213 H190 0.948 . S
C213 C212 1.392 . S
C213 C214 1.419 . S
C214 C213 1.419 . S
C214 C215 1.391 . S
C214 C218 1.397 . S
C215 C210 1.391 . S
C215 C214 1.391 . S
C215 C216 1.399 . S
C216 C215 1.399 . S
C216 C217 1.396 . S
C216 C219 1.453 . S
C216 C220 1.684 . S
C217 C207 1.723 . S
C217 C216 1.396 . S
C217 C218 1.394 . S
C218 C188 1.723 . S
C218 C214 1.397 . S
C218 C217 1.394 . S
C219 H191 0.982 . S
C219 H195 0.979 . S
C219 H196 0.977 . S
C219 C216 1.453 . S
C220 H192 0.979 . S
C220 H193 0.980 . S
C220 H194 0.983 . S
C220 C216 1.684 . S
H221 C239 0.948 . S
H222 C180 0.948 . S
H223 C198 0.979 . S
H224 C198 0.980 . S
H225 C198 0.983 . S
H226 C197 0.982 . S
H227 C197 0.979 . S
H228 C197 0.977 . S
H229 C199 0.948 . S
H230 C201 0.947 . S
H231 C202 0.948 . S
H232 C208 0.982 . S
H233 C208 0.979 . S
H234 C208 0.977 . S
H235 C209 0.979 . S
H236 C209 0.980 . S
H237 C209 0.983 . S
H238 C182 0.947 . S
C239 C182 1.392 . S
C239 C183 1.419 . S
C239 H221 0.948 . S
C240 C241 1.391 . S
C240 C244 1.391 . S
C240 H282 0.948 . S
C241 C240 1.391 . S
C241 C242 1.391 . S
C242 C241 1.391 . S
C242 H298 0.903 1_455 S
C242 C299 1.392 . S
C243 C244 1.391 . S
C243 C247 1.397 . S
C243 C299 1.419 . S
C244 C240 1.391 . S
C244 C243 1.391 . S
C244 C245 1.399 . S
C245 C244 1.399 . S
C245 C248 1.396 . S
C245 C257 1.453 . S
C245 C258 1.684 . S
H246 C270 0.948 . S
C247 C243 1.397 . S
C247 C248 1.394 . S
C247 C266 1.723 . S
C248 C245 1.396 . S
C248 C247 1.394 . S
C248 C278 1.723 . S
H249 C272 0.947 . S
H250 C273 0.948 . S
H251 C279 0.982 . S
H252 C280 0.984 1_565 S
H253 C280 0.980 . S
H254 C280 0.983 . S
H255 C279 0.979 . S
H256 C279 0.977 . S
C257 C245 1.453 . S
C257 H286 0.982 . S
C257 H287 0.979 . S
C257 H288 0.977 . S
C258 C245 1.684 . S
C258 H283 0.979 . S
C258 H284 0.980 . S
C258 H285 0.983 . S
C259 C260 1.391 . S
C259 C264 1.353 1_655 S
C259 H289 0.948 . S
C260 C259 1.391 . S
C260 C261 1.428 1_655 S
C261 C260 1.428 1_455 S
C261 C262 1.399 . S
C261 H290 0.905 1_565 S
C262 C261 1.399 . S
C262 C263 1.419 . S
C262 H291 0.948 1_565 S
C263 C262 1.419 . S
C263 C264 1.430 . S
C263 C267 1.397 . S
C264 C259 1.353 1_455 S
C264 C263 1.430 . S
C264 C265 1.405 . S
C265 C264 1.405 . S
C265 C266 1.396 . S
C265 C268 1.453 1_455 S
C265 C269 1.684 1_455 S
C266 C247 1.723 . S
C266 C265 1.396 . S
C266 C267 1.394 . S
C267 C263 1.397 . S
C267 C266 1.394 . S
C267 C277 1.723 . S
C268 C265 1.453 1_655 S
C268 H292 0.982 . S
C268 H293 0.979 . S
C268 H294 0.977 . S
C269 C265 1.684 1_655 S
C269 H295 0.979 1_655 S
C269 H296 0.980 . S
C269 H297 0.983 . S
C270 H246 0.948 . S
C270 C271 1.391 . S
C270 C275 1.391 . S
C271 C270 1.391 . S
C271 C272 1.391 . S
C272 H249 0.947 . S
C272 C271 1.391 . S
C272 C273 1.392 1_545 S
C273 H250 0.948 . S
C273 C272 1.392 1_565 S
C273 C274 1.419 . S
C274 C273 1.419 . S
C274 C275 1.391 1_565 S
C274 C278 1.397 . S
C275 C270 1.391 . S
C275 C274 1.391 1_545 S
C275 C276 1.399 . S
C276 C275 1.399 . S
C276 C277 1.396 1_545 S
C276 C279 1.453 . S
C276 C280 1.684 . S
C277 C267 1.723 . S
C277 C276 1.396 1_565 S
C277 C278 1.394 . S
C278 C248 1.723 . S
C278 C274 1.397 . S
C278 C277 1.394 . S
C279 H251 0.982 . S
C279 H255 0.979 . S
C279 H256 0.977 . S
C279 C276 1.453 . S
C280 H252 0.984 1_545 S
C280 H253 0.980 . S
C280 H254 0.983 . S
C280 C276 1.684 . S
H281 C299 0.948 . S
H282 C240 0.948 . S
H283 C258 0.979 . S
H284 C258 0.980 . S
H285 C258 0.983 . S
H286 C257 0.982 . S
H287 C257 0.979 . S
H288 C257 0.977 . S
H289 C259 0.948 . S
H290 C261 0.905 1_545 S
H291 C262 0.948 1_545 S
H292 C268 0.982 . S
H293 C268 0.979 . S
H294 C268 0.977 . S
H295 C269 0.979 1_455 S
H296 C269 0.980 . S
H297 C269 0.983 . S
H298 C242 0.903 1_655 S
C299 C242 1.392 . S
C299 C243 1.419 . S
C299 H281 0.948 . S
C300 C301 1.391 . S
C300 C304 1.391 . S
C300 H342 0.948 . S
C301 C300 1.391 . S
C301 C302 1.391 . S
C302 C301 1.391 . S
C302 H358 0.947 . S
C302 C359 1.392 . S
C303 C304 1.391 . S
C303 C307 1.397 . S
C303 C359 1.419 . S
C304 C300 1.391 . S
C304 C303 1.391 . S
C304 C305 1.399 . S
C305 C304 1.399 . S
C305 C308 1.396 . S
C305 C317 1.453 . S
C305 C318 1.684 . S
H306 C330 0.948 . S
C307 C303 1.397 . S
C307 C308 1.394 . S
C307 C326 1.723 . S
C308 C305 1.396 . S
C308 C307 1.394 . S
C308 C338 1.723 . S
H309 C332 0.947 . S
H310 C333 0.948 . S
H311 C339 0.982 . S
H312 C340 0.979 . S
H313 C340 0.980 . S
H314 C340 0.983 . S
H315 C339 0.979 . S
H316 C339 0.977 . S
C317 C305 1.453 . S
C317 H346 0.982 . S
C317 H347 0.979 . S
C317 H348 0.977 . S
C318 C305 1.684 . S
C318 H343 0.979 . S
C318 H344 0.980 . S
C318 H345 0.983 . S
C319 C320 1.391 . S
C319 C324 1.391 . S
C319 H349 0.948 . S
C320 C319 1.391 . S
C320 C321 1.391 . S
C321 C320 1.391 . S
C321 C322 1.392 . S
C321 H350 0.947 . S
C322 C321 1.392 . S
C322 C323 1.419 . S
C322 H351 0.948 . S
C323 C322 1.419 . S
C323 C324 1.391 . S
C323 C327 1.397 . S
C324 C319 1.391 . S
C324 C323 1.391 . S
C324 C325 1.399 . S
C325 C324 1.399 . S
C325 C326 1.396 . S
C325 C328 1.453 . S
C325 C329 1.684 . S
C326 C307 1.723 . S
C326 C325 1.396 . S
C326 C327 1.394 . S
C327 C323 1.397 . S
C327 C326 1.394 . S
C327 C337 1.723 . S
C328 C325 1.453 . S
C328 H352 0.982 . S
C328 H353 0.979 . S
C328 H354 0.977 . S
C329 C325 1.684 . S
C329 H355 0.979 . S
C329 H356 0.980 . S
C329 H357 0.983 . S
C330 H306 0.948 . S
C330 C331 1.391 . S
C330 C335 1.391 . S
C331 C330 1.391 . S
C331 C332 1.391 . S
C332 H309 0.947 . S
C332 C331 1.391 . S
C332 C333 1.392 . S
C333 H310 0.948 . S
C333 C332 1.392 . S
C333 C334 1.419 . S
C334 C333 1.419 . S
C334 C335 1.391 . S
C334 C338 1.397 . S
C335 C330 1.391 . S
C335 C334 1.391 . S
C335 C336 1.399 . S
C336 C335 1.399 . S
C336 C337 1.396 . S
C336 C339 1.453 . S
C336 C340 1.684 . S
C337 C327 1.723 . S
C337 C336 1.396 . S
C337 C338 1.394 . S
C338 C308 1.723 . S
C338 C334 1.397 . S
C338 C337 1.394 . S
C339 H311 0.982 . S
C339 H315 0.979 . S
C339 H316 0.977 . S
C339 C336 1.453 . S
C340 H312 0.979 . S
C340 H313 0.980 . S
C340 H314 0.983 . S
C340 C336 1.684 . S
H341 C359 0.948 . S
H342 C300 0.948 . S
H343 C318 0.979 . S
H344 C318 0.980 . S
H345 C318 0.983 . S
H346 C317 0.982 . S
H347 C317 0.979 . S
H348 C317 0.977 . S
H349 C319 0.948 . S
H350 C321 0.947 . S
H351 C322 0.948 . S
H352 C328 0.982 . S
H353 C328 0.979 . S
H354 C328 0.977 . S
H355 C329 0.979 . S
H356 C329 0.980 . S
H357 C329 0.983 . S
H358 C302 0.947 . S
C359 C302 1.392 . S
C359 C303 1.419 . S
C359 H341 0.948 . S
C360 C361 1.391 . S
C360 C364 1.391 . S
C360 H402 0.948 . S
C361 C360 1.391 . S
C361 C362 1.391 . S
C362 C361 1.391 . S
C362 H418 0.947 . S
C362 C419 1.392 . S
C363 C364 1.391 . S
C363 C367 1.397 . S
C363 C419 1.419 . S
C364 C360 1.391 . S
C364 C363 1.391 . S
C364 C365 1.399 . S
C365 C364 1.399 . S
C365 C368 1.396 . S
C365 C377 1.453 . S
C365 C378 1.684 . S
H366 C390 0.948 1_455 S
C367 C363 1.397 . S
C367 C368 1.394 . S
C367 C386 1.723 . S
C368 C365 1.396 . S
C368 C367 1.394 . S
C368 C398 1.723 . S
H369 C392 0.947 . S
H370 C393 0.948 . S
H371 C399 0.982 1_655 S
H372 C400 0.979 . S
H373 C400 0.980 . S
H374 C400 0.983 . S
H375 C399 0.979 . S
H376 C399 0.977 . S
C377 C365 1.453 . S
C377 H406 0.982 . S
C377 H407 0.979 . S
C377 H408 0.977 . S
C378 C365 1.684 . S
C378 H403 0.979 . S
C378 H404 0.980 . S
C378 H405 0.983 . S
C379 C380 1.391 . S
C379 C384 1.391 1_455 S
C379 H409 0.948 . S
C380 C379 1.391 . S
C380 C381 1.391 . S
C381 C380 1.391 . S
C381 C382 1.392 . S
C381 H410 0.947 . S
C382 C381 1.392 . S
C382 C383 1.419 . S
C382 H411 0.948 . S
C383 C382 1.419 . S
C383 C384 1.391 1_455 S
C383 C387 1.397 1_455 S
C384 C379 1.391 1_655 S
C384 C383 1.391 1_655 S
C384 C385 1.399 . S
C385 C384 1.399 . S
C385 C386 1.396 . S
C385 C388 1.453 . S
C385 C389 1.684 . S
C386 C367 1.723 . S
C386 C385 1.396 . S
C386 C387 1.394 . S
C387 C383 1.397 1_655 S
C387 C386 1.394 . S
C387 C397 1.723 . S
C388 C385 1.453 . S
C388 H412 0.982 . S
C388 H413 0.979 . S
C388 H414 0.977 . S
C389 C385 1.684 . S
C389 H415 0.979 . S
C389 H416 0.980 . S
C389 H417 0.983 . S
C390 H366 0.948 1_655 S
C390 C391 1.391 . S
C390 C395 1.391 . S
C391 C390 1.391 . S
C391 C392 1.391 . S
C392 H369 0.947 . S
C392 C391 1.391 . S
C392 C393 1.392 . S
C393 H370 0.948 . S
C393 C392 1.392 . S
C393 C394 1.419 . S
C394 C393 1.419 . S
C394 C395 1.391 . S
C394 C398 1.397 . S
C395 C390 1.391 . S
C395 C394 1.391 . S
C395 C396 1.390 1_655 S
C396 C395 1.390 1_455 S
C396 C397 1.384 1_455 S
C396 C399 1.455 . S
C396 C400 1.705 . S
C397 C387 1.723 . S
C397 C396 1.384 1_655 S
C397 C398 1.394 . S
C398 C368 1.723 . S
C398 C394 1.397 . S
C398 C397 1.394 . S
C399 H371 0.982 1_455 S
C399 H375 0.979 . S
C399 H376 0.977 . S
C399 C396 1.455 . S
C400 H372 0.979 . S
C400 H373 0.980 . S
C400 H374 0.983 . S
C400 C396 1.705 . S
H401 C419 0.948 . S
H402 C360 0.948 . S
H403 C378 0.979 . S
H404 C378 0.980 . S
H405 C378 0.983 . S
H406 C377 0.982 . S
H407 C377 0.979 . S
H408 C377 0.977 . S
H409 C379 0.948 . S
H410 C381 0.947 . S
H411 C382 0.948 . S
H412 C388 0.982 . S
H413 C388 0.979 . S
H414 C388 0.977 . S
H415 C389 0.979 . S
H416 C389 0.980 . S
H417 C389 0.983 . S
H418 C362 0.947 . S
C419 C362 1.392 . S
C419 C363 1.419 . S
C419 H401 0.948 . S
C420 C421 1.391 . S
C420 C424 1.391 . S
C420 H462 0.948 . S
C421 C420 1.391 . S
C421 C422 1.391 . S
C422 C421 1.391 . S
C422 H478 0.947 . S
C422 C479 1.392 . S
C423 C424 1.391 . S
C423 C427 1.397 . S
C423 C479 1.419 . S
C424 C420 1.391 . S
C424 C423 1.391 . S
C424 C425 1.399 . S
C425 C424 1.399 . S
C425 C428 1.396 . S
C425 C437 1.453 . S
C425 C438 1.684 . S
H426 C450 0.948 . S
C427 C423 1.397 . S
C427 C428 1.394 . S
C427 C446 1.723 . S
C428 C425 1.396 . S
C428 C427 1.394 . S
C428 C458 1.723 . S
H429 C452 0.947 . S
H430 C453 0.948 . S
H431 C459 0.982 . S
H432 C460 0.979 . S
H433 C460 0.980 . S
H434 C460 0.983 . S
H435 C459 0.979 . S
H436 C459 0.977 . S
C437 C425 1.453 . S
C437 H466 0.982 . S
C437 H467 0.979 . S
C437 H468 0.977 . S
C438 C425 1.684 . S
C438 H463 0.979 . S
C438 H464 0.980 . S
C438 H465 0.983 . S
C439 C440 1.391 . S
C439 C444 1.391 . S
C439 H469 0.948 . S
C440 C439 1.391 . S
C440 C441 1.391 . S
C441 C440 1.391 . S
C441 C442 1.392 . S
C441 H470 0.947 . S
C442 C441 1.392 . S
C442 C443 1.419 . S
C442 H471 0.948 . S
C443 C442 1.419 . S
C443 C444 1.391 . S
C443 C447 1.397 . S
C444 C439 1.391 . S
C444 C443 1.391 . S
C444 C445 1.399 . S
C445 C444 1.399 . S
C445 C446 1.396 . S
C445 C448 1.453 . S
C445 C449 1.684 . S
C446 C427 1.723 . S
C446 C445 1.396 . S
C446 C447 1.394 . S
C447 C443 1.397 . S
C447 C446 1.394 . S
C447 C457 1.723 . S
C448 C445 1.453 . S
C448 H472 0.982 . S
C448 H473 0.979 . S
C448 H474 0.977 . S
C449 C445 1.684 . S
C449 H475 0.979 . S
C449 H476 0.980 . S
C449 H477 0.983 . S
C450 H426 0.948 . S
C450 C451 1.391 . S
C450 C455 1.391 . S
C451 C450 1.391 . S
C451 C452 1.391 . S
C452 H429 0.947 . S
C452 C451 1.391 . S
C452 C453 1.392 . S
C453 H430 0.948 . S
C453 C452 1.392 . S
C453 C454 1.419 . S
C454 C453 1.419 . S
C454 C455 1.391 . S
C454 C458 1.397 . S
C455 C450 1.391 . S
C455 C454 1.391 . S
C455 C456 1.399 . S
C456 C455 1.399 . S
C456 C457 1.396 . S
C456 C459 1.453 . S
C456 C460 1.684 . S
C457 C447 1.723 . S
C457 C456 1.396 . S
C457 C458 1.394 . S
C458 C428 1.723 . S
C458 C454 1.397 . S
C458 C457 1.394 . S
C459 H431 0.982 . S
C459 H435 0.979 . S
C459 H436 0.977 . S
C459 C456 1.453 . S
C460 H432 0.979 . S
C460 H433 0.980 . S
C460 H434 0.983 . S
C460 C456 1.684 . S
H461 C479 0.948 . S
H462 C420 0.948 . S
H463 C438 0.979 . S
H464 C438 0.980 . S
H465 C438 0.983 . S
H466 C437 0.982 . S
H467 C437 0.979 . S
H468 C437 0.977 . S
H469 C439 0.948 . S
H470 C441 0.947 . S
H471 C442 0.948 . S
H472 C448 0.982 . S
H473 C448 0.979 . S
H474 C448 0.977 . S
H475 C449 0.979 . S
H476 C449 0.980 . S
H477 C449 0.983 . S
H478 C422 0.947 . S
C479 C422 1.392 . S
C479 C423 1.419 . S
C479 H461 0.948 . S
C480 C481 1.391 . S
C480 C484 1.391 . S
C480 H522 0.948 . S
C481 C480 1.391 . S
C481 C482 1.391 . S
C482 C481 1.391 . S
C482 H538 0.947 . S
C482 C539 1.392 . S
C483 C484 1.391 . S
C483 C487 1.397 . S
C483 C539 1.419 . S
C484 C480 1.391 . S
C484 C483 1.391 . S
C484 C485 1.399 . S
C485 C484 1.399 . S
C485 C488 1.396 . S
C485 C497 1.453 . S
C485 C498 1.684 . S
H486 C510 0.948 . S
C487 C483 1.397 . S
C487 C488 1.394 . S
C487 C506 1.723 . S
C488 C485 1.396 . S
C488 C487 1.394 . S
C488 C518 1.723 . S
H489 C512 0.947 . S
H490 C513 0.948 . S
H491 C519 0.982 . S
H492 C520 0.979 . S
H493 C520 0.980 . S
H494 C520 0.983 . S
H495 C519 0.979 . S
H496 C519 0.977 . S
C497 C485 1.453 . S
C497 H526 0.982 . S
C497 H527 0.979 . S
C497 H528 0.977 . S
C498 C485 1.684 . S
C498 H523 0.979 . S
C498 H524 0.980 . S
C498 H525 0.983 . S
C499 C500 1.391 . S
C499 C504 1.391 . S
C499 H529 0.948 . S
C500 C499 1.391 . S
C500 C501 1.391 . S
C501 C500 1.391 . S
C501 C502 1.392 . S
C501 H530 0.947 . S
C502 C501 1.392 . S
C502 C503 1.419 . S
C502 H531 0.948 . S
C503 C502 1.419 . S
C503 C504 1.391 . S
C503 C507 1.397 . S
C504 C499 1.391 . S
C504 C503 1.391 . S
C504 C505 1.399 . S
C505 C504 1.399 . S
C505 C506 1.396 . S
C505 C508 1.453 . S
C505 C509 1.684 . S
C506 C487 1.723 . S
C506 C505 1.396 . S
C506 C507 1.394 . S
C507 C503 1.397 . S
C507 C506 1.394 . S
C507 C517 1.723 . S
C508 C505 1.453 . S
C508 H532 0.982 . S
C508 H533 0.979 . S
C508 H534 0.977 . S
C509 C505 1.684 . S
C509 H535 0.979 . S
C509 H536 0.980 . S
C509 H537 0.983 . S
C510 H486 0.948 . S
C510 C511 1.391 . S
C510 C515 1.391 . S
C511 C510 1.391 . S
C511 C512 1.391 . S
C512 H489 0.947 . S
C512 C511 1.391 . S
C512 C513 1.392 . S
C513 H490 0.948 . S
C513 C512 1.392 . S
C513 C514 1.419 . S
C514 C513 1.419 . S
C514 C515 1.391 . S
C514 C518 1.397 . S
C515 C510 1.391 . S
C515 C514 1.391 . S
C515 C516 1.399 . S
C516 C515 1.399 . S
C516 C517 1.396 . S
C516 C519 1.453 . S
C516 C520 1.684 . S
C517 C507 1.723 . S
C517 C516 1.396 . S
C517 C518 1.394 . S
C518 C488 1.723 . S
C518 C514 1.397 . S
C518 C517 1.394 . S
C519 H491 0.982 . S
C519 H495 0.979 . S
C519 H496 0.977 . S
C519 C516 1.453 . S
C520 H492 0.979 . S
C520 H493 0.980 . S
C520 H494 0.983 . S
C520 C516 1.684 . S
H521 C539 0.948 . S
H522 C480 0.948 . S
H523 C498 0.979 . S
H524 C498 0.980 . S
H525 C498 0.983 . S
H526 C497 0.982 . S
H527 C497 0.979 . S
H528 C497 0.977 . S
H529 C499 0.948 . S
H530 C501 0.947 . S
H531 C502 0.948 . S
H532 C508 0.982 . S
H533 C508 0.979 . S
H534 C508 0.977 . S
H535 C509 0.979 . S
H536 C509 0.980 . S
H537 C509 0.983 . S
H538 C482 0.947 . S
C539 C482 1.392 . S
C539 C483 1.419 . S
C539 H521 0.948 . S
C540 C541 1.391 . S
C540 C544 1.391 . S
C540 H582 0.948 . S
C541 C540 1.391 . S
C541 C542 1.391 . S
C542 C541 1.391 . S
C542 H598 0.947 . S
C542 C599 1.392 . S
C543 C544 1.391 . S
C543 C547 1.397 . S
C543 C599 1.419 . S
C544 C540 1.391 . S
C544 C543 1.391 . S
C544 C545 1.399 . S
C545 C544 1.399 . S
C545 C548 1.396 . S
C545 C557 1.453 . S
C545 C558 1.684 . S
H546 C570 0.948 1_545 S
C547 C543 1.397 . S
C547 C548 1.394 . S
C547 C566 1.723 . S
C548 C545 1.396 . S
C548 C547 1.394 . S
C548 C578 1.723 . S
H549 C572 0.947 . S
H550 C573 0.948 . S
H551 C579 0.982 . S
H552 C580 0.979 . S
H553 C580 0.980 . S
H554 C580 0.983 . S
H555 C579 0.979 1_545 S
H556 C579 0.977 1_545 S
C557 C545 1.453 . S
C557 H586 0.982 . S
C557 H587 0.979 . S
C557 H588 0.977 . S
C558 C545 1.684 . S
C558 H583 0.979 . S
C558 H584 0.980 . S
C558 H585 0.983 . S
C559 C560 1.391 . S
C559 C564 1.391 1_545 S
C559 H589 0.948 . S
C560 C559 1.391 . S
C560 C561 1.391 . S
C561 C560 1.391 . S
C561 C562 1.392 . S
C561 H590 0.947 . S
C562 C561 1.392 . S
C562 C563 1.419 1_545 S
C562 H591 0.948 . S
C563 C562 1.419 1_565 S
C563 C564 1.391 . S
C563 C567 1.397 . S
C564 C559 1.391 1_565 S
C564 C563 1.391 . S
C564 C565 1.399 . S
C565 C564 1.399 . S
C565 C566 1.396 . S
C565 C568 1.453 . S
C565 C569 1.684 . S
C566 C547 1.723 . S
C566 C565 1.396 . S
C566 C567 1.394 . S
C567 C563 1.397 . S
C567 C566 1.394 . S
C567 C577 1.723 . S
C568 C565 1.453 . S
C568 H592 0.982 . S
C568 H593 0.979 . S
C568 H594 0.977 . S
C569 C565 1.684 . S
C569 H595 0.979 . S
C569 H596 0.980 . S
C569 H597 0.983 . S
C570 H546 0.948 1_565 S
C570 C571 1.391 . S
C570 C575 1.391 . S
C571 C570 1.391 . S
C571 C572 1.391 . S
C572 H549 0.947 . S
C572 C571 1.391 . S
C572 C573 1.392 . S
C573 H550 0.948 . S
C573 C572 1.392 . S
C573 C574 1.419 . S
C574 C573 1.419 . S
C574 C575 1.391 . S
C574 C578 1.397 . S
C575 C570 1.391 . S
C575 C574 1.391 . S
C575 C576 1.399 . S
C576 C575 1.399 . S
C576 C577 1.396 . S
C576 C579 1.453 . S
C576 C580 1.684 1_565 S
C577 C567 1.723 . S
C577 C576 1.396 . S
C577 C578 1.394 . S
C578 C548 1.723 . S
C578 C574 1.397 . S
C578 C577 1.394 . S
C579 H551 0.982 . S
C579 H555 0.979 1_565 S
C579 H556 0.977 1_565 S
C579 C576 1.453 . S
C580 H552 0.979 . S
C580 H553 0.980 . S
C580 H554 0.983 . S
C580 C576 1.684 1_545 S
H581 C599 0.948 . S
H582 C540 0.948 . S
H583 C558 0.979 . S
H584 C558 0.980 . S
H585 C558 0.983 . S
H586 C557 0.982 . S
H587 C557 0.979 . S
H588 C557 0.977 . S
H589 C559 0.948 . S
H590 C561 0.947 . S
H591 C562 0.948 . S
H592 C568 0.982 . S
H593 C568 0.979 . S
H594 C568 0.977 . S
H595 C569 0.979 . S
H596 C569 0.980 . S
H597 C569 0.983 . S
H598 C542 0.947 . S
C599 C542 1.392 . S
C599 C543 1.419 . S
C599 H581 0.948 . S
C600 C601 1.391 . S
C600 C604 1.391 . S
C600 H642 0.948 . S
C601 C600 1.391 . S
C601 C602 1.391 . S
C602 C601 1.391 . S
C602 H658 0.947 . S
C602 C659 1.392 . S
C603 C604 1.391 . S
C603 C607 1.397 . S
C603 C659 1.419 . S
C604 C600 1.391 . S
C604 C603 1.391 . S
C604 C605 1.399 . S
C605 C604 1.399 . S
C605 C608 1.396 . S
C605 C617 1.453 . S
C605 C618 1.684 . S
H606 C630 0.948 . S
C607 C603 1.397 . S
C607 C608 1.394 . S
C607 C626 1.723 . S
C608 C605 1.396 . S
C608 C607 1.394 . S
C608 C638 1.723 . S
H609 C632 0.947 . S
H610 C633 0.948 . S
H611 C639 0.982 . S
H612 C640 0.979 . S
H613 C640 0.980 . S
H614 C640 0.983 . S
H615 C639 0.979 . S
H616 C639 0.977 . S
C617 C605 1.453 . S
C617 H646 0.982 . S
C617 H647 0.979 . S
C617 H648 0.977 . S
C618 C605 1.684 . S
C618 H643 0.979 . S
C618 H644 0.980 . S
C618 H645 0.983 . S
C619 C620 1.391 . S
C619 C624 1.391 . S
C619 H649 0.948 . S
C620 C619 1.391 . S
C620 C621 1.391 . S
C621 C620 1.391 . S
C621 C622 1.392 . S
C621 H650 0.947 . S
C622 C621 1.392 . S
C622 C623 1.419 . S
C622 H651 0.948 . S
C623 C622 1.419 . S
C623 C624 1.391 . S
C623 C627 1.397 . S
C624 C619 1.391 . S
C624 C623 1.391 . S
C624 C625 1.399 . S
C625 C624 1.399 . S
C625 C626 1.396 . S
C625 C628 1.453 . S
C625 C629 1.684 . S
C626 C607 1.723 . S
C626 C625 1.396 . S
C626 C627 1.394 . S
C627 C623 1.397 . S
C627 C626 1.394 . S
C627 C637 1.723 . S
C628 C625 1.453 . S
C628 H652 0.982 . S
C628 H653 0.979 . S
C628 H654 0.977 . S
C629 C625 1.684 . S
C629 H655 0.979 . S
C629 H656 0.980 . S
C629 H657 0.983 . S
C630 H606 0.948 . S
C630 C631 1.391 . S
C630 C635 1.391 . S
C631 C630 1.391 . S
C631 C632 1.391 . S
C632 H609 0.947 . S
C632 C631 1.391 . S
C632 C633 1.392 . S
C633 H610 0.948 . S
C633 C632 1.392 . S
C633 C634 1.419 . S
C634 C633 1.419 . S
C634 C635 1.391 . S
C634 C638 1.397 . S
C635 C630 1.391 . S
C635 C634 1.391 . S
C635 C636 1.399 . S
C636 C635 1.399 . S
C636 C637 1.396 . S
C636 C639 1.453 . S
C636 C640 1.684 . S
C637 C627 1.723 . S
C637 C636 1.396 . S
C637 C638 1.394 . S
C638 C608 1.723 . S
C638 C634 1.397 . S
C638 C637 1.394 . S
C639 H611 0.982 . S
C639 H615 0.979 . S
C639 H616 0.977 . S
C639 C636 1.453 . S
C640 H612 0.979 . S
C640 H613 0.980 . S
C640 H614 0.983 . S
C640 C636 1.684 . S
H641 C659 0.948 . S
H642 C600 0.948 . S
H643 C618 0.979 . S
H644 C618 0.980 . S
H645 C618 0.983 . S
H646 C617 0.982 . S
H647 C617 0.979 . S
H648 C617 0.977 . S
H649 C619 0.948 . S
H650 C621 0.947 . S
H651 C622 0.948 . S
H652 C628 0.982 . S
H653 C628 0.979 . S
H654 C628 0.977 . S
H655 C629 0.979 . S
H656 C629 0.980 . S
H657 C629 0.983 . S
H658 C602 0.947 . S
C659 C602 1.392 . S
C659 C603 1.419 . S
C659 H641 0.948 . S
C660 C661 1.391 . S
C660 C664 1.391 . S
C660 H702 0.948 . S
C661 C660 1.391 . S
C661 C662 1.391 . S
C662 C661 1.391 . S
C662 H718 0.947 . S
C662 C719 1.392 . S
C663 C664 1.391 . S
C663 C667 1.397 . S
C663 C719 1.419 . S
C664 C660 1.391 . S
C664 C663 1.391 . S
C664 C665 1.399 . S
C665 C664 1.399 . S
C665 C668 1.396 . S
C665 C677 1.453 . S
C665 C678 1.684 . S
H666 C690 0.948 . S
C667 C663 1.397 . S
C667 C668 1.394 . S
C667 C686 1.723 . S
C668 C665 1.396 . S
C668 C667 1.394 . S
C668 C698 1.723 . S
H669 C692 0.947 . S
H670 C693 0.948 . S
H671 C699 0.982 . S
H672 C700 0.979 . S
H673 C700 0.980 . S
H674 C700 0.983 . S
H675 C699 0.979 . S
H676 C699 0.977 . S
C677 C665 1.453 . S
C677 H706 0.982 . S
C677 H707 0.979 . S
C677 H708 0.977 . S
C678 C665 1.684 . S
C678 H703 0.979 . S
C678 H704 0.980 . S
C678 H705 0.983 . S
C679 C680 1.391 . S
C679 C684 1.391 . S
C679 H709 0.948 . S
C680 C679 1.391 . S
C680 C681 1.391 . S
C681 C680 1.391 . S
C681 C682 1.392 . S
C681 H710 0.947 . S
C682 C681 1.392 . S
C682 C683 1.419 . S
C682 H711 0.948 . S
C683 C682 1.419 . S
C683 C684 1.391 . S
C683 C687 1.397 . S
C684 C679 1.391 . S
C684 C683 1.391 . S
C684 C685 1.399 . S
C685 C684 1.399 . S
C685 C686 1.396 . S
C685 C688 1.453 . S
C685 C689 1.684 . S
C686 C667 1.723 . S
C686 C685 1.396 . S
C686 C687 1.394 . S
C687 C683 1.397 . S
C687 C686 1.394 . S
C687 C697 1.723 . S
C688 C685 1.453 . S
C688 H712 0.982 . S
C688 H713 0.979 . S
C688 H714 0.977 . S
C689 C685 1.684 . S
C689 H715 0.979 . S
C689 H716 0.980 . S
C689 H717 0.983 . S
C690 H666 0.948 . S
C690 C691 1.391 . S
C690 C695 1.391 . S
C691 C690 1.391 . S
C691 C692 1.391 . S
C692 H669 0.947 . S
C692 C691 1.391 . S
C692 C693 1.392 . S
C693 H670 0.948 . S
C693 C692 1.392 . S
C693 C694 1.419 . S
C694 C693 1.419 . S
C694 C695 1.391 . S
C694 C698 1.397 . S
C695 C690 1.391 . S
C695 C694 1.391 . S
C695 C696 1.399 . S
C696 C695 1.399 . S
C696 C697 1.396 . S
C696 C699 1.453 . S
C696 C700 1.684 . S
C697 C687 1.723 . S
C697 C696 1.396 . S
C697 C698 1.394 . S
C698 C668 1.723 . S
C698 C694 1.397 . S
C698 C697 1.394 . S
C699 H671 0.982 . S
C699 H675 0.979 . S
C699 H676 0.977 . S
C699 C696 1.453 . S
C700 H672 0.979 . S
C700 H673 0.980 . S
C700 H674 0.983 . S
C700 C696 1.684 . S
H701 C719 0.948 . S
H702 C660 0.948 . S
H703 C678 0.979 . S
H704 C678 0.980 . S
H705 C678 0.983 . S
H706 C677 0.982 . S
H707 C677 0.979 . S
H708 C677 0.977 . S
H709 C679 0.948 . S
H710 C681 0.947 . S
H711 C682 0.948 . S
H712 C688 0.982 . S
H713 C688 0.979 . S
H714 C688 0.977 . S
H715 C689 0.979 . S
H716 C689 0.980 . S
H717 C689 0.983 . S
H718 C662 0.947 . S
C719 C662 1.392 . S
C719 C663 1.419 . S
C719 H701 0.948 . S
C720 C721 1.391 . S
C720 C724 1.391 . S
C720 H762 0.948 . S
C721 C720 1.391 . S
C721 C722 1.391 . S
C722 C721 1.391 . S
C722 H778 0.947 . S
C722 C779 1.392 . S
C723 C724 1.391 . S
C723 C727 1.397 . S
C723 C779 1.419 . S
C724 C720 1.391 . S
C724 C723 1.391 . S
C724 C725 1.399 . S
C725 C724 1.399 . S
C725 C728 1.396 . S
C725 C737 1.453 . S
C725 C738 1.684 . S
H726 C750 0.948 . S
C727 C723 1.397 . S
C727 C728 1.394 . S
C727 C746 1.723 . S
C728 C725 1.396 . S
C728 C727 1.394 . S
C728 C758 1.723 . S
H729 C752 0.947 . S
H730 C753 0.948 . S
H731 C759 0.982 . S
H732 C760 0.979 . S
H733 C760 0.980 . S
H734 C760 0.983 . S
H735 C759 0.979 . S
H736 C759 0.977 . S
C737 C725 1.453 . S
C737 H766 0.982 . S
C737 H767 0.979 . S
C737 H768 0.977 . S
C738 C725 1.684 . S
C738 H763 0.979 . S
C738 H764 0.980 . S
C738 H765 0.983 . S
C739 C740 1.391 . S
C739 C744 1.391 . S
C739 H769 0.948 . S
C740 C739 1.391 . S
C740 C741 1.391 . S
C741 C740 1.391 . S
C741 C742 1.392 . S
C741 H770 0.947 . S
C742 C741 1.392 . S
C742 C743 1.419 . S
C742 H771 0.948 . S
C743 C742 1.419 . S
C743 C744 1.391 . S
C743 C747 1.397 . S
C744 C739 1.391 . S
C744 C743 1.391 . S
C744 C745 1.399 . S
C745 C744 1.399 . S
C745 C746 1.396 . S
C745 C748 1.453 . S
C745 C749 1.684 . S
C746 C727 1.723 . S
C746 C745 1.396 . S
C746 C747 1.394 . S
C747 C743 1.397 . S
C747 C746 1.394 . S
C747 C757 1.723 . S
C748 C745 1.453 . S
C748 H772 0.982 . S
C748 H773 0.979 . S
C748 H774 0.977 . S
C749 C745 1.684 . S
C749 H775 0.979 . S
C749 H776 0.980 . S
C749 H777 0.983 . S
C750 H726 0.948 . S
C750 C751 1.391 . S
C750 C755 1.391 . S
C751 C750 1.391 . S
C751 C752 1.391 . S
C752 H729 0.947 . S
C752 C751 1.391 . S
C752 C753 1.392 . S
C753 H730 0.948 . S
C753 C752 1.392 . S
C753 C754 1.419 . S
C754 C753 1.419 . S
C754 C755 1.391 . S
C754 C758 1.397 . S
C755 C750 1.391 . S
C755 C754 1.391 . S
C755 C756 1.399 . S
C756 C755 1.399 . S
C756 C757 1.396 . S
C756 C759 1.453 . S
C756 C760 1.684 . S
C757 C747 1.723 . S
C757 C756 1.396 . S
C757 C758 1.394 . S
C758 C728 1.723 . S
C758 C754 1.397 . S
C758 C757 1.394 . S
C759 H731 0.982 . S
C759 H735 0.979 . S
C759 H736 0.977 . S
C759 C756 1.453 . S
C760 H732 0.979 . S
C760 H733 0.980 . S
C760 H734 0.983 . S
C760 C756 1.684 . S
H761 C779 0.948 . S
H762 C720 0.948 . S
H763 C738 0.979 . S
H764 C738 0.980 . S
H765 C738 0.983 . S
H766 C737 0.982 . S
H767 C737 0.979 . S
H768 C737 0.977 . S
H769 C739 0.948 . S
H770 C741 0.947 . S
H771 C742 0.948 . S
H772 C748 0.982 . S
H773 C748 0.979 . S
H774 C748 0.977 . S
H775 C749 0.979 . S
H776 C749 0.980 . S
H777 C749 0.983 . S
H778 C722 0.947 . S
C779 C722 1.392 . S
C779 C723 1.419 . S
C779 H761 0.948 . S
C780 C781 1.391 . S
C780 C784 1.391 . S
C780 H822 0.948 . S
C781 C780 1.391 . S
C781 C782 1.435 . S
C782 C781 1.435 . S
C782 H838 0.946 . S
C782 C839 1.352 1_554 S
C783 C784 1.391 1_556 S
C783 C787 1.397 . S
C783 C839 1.419 . S
C784 C780 1.391 . S
C784 C783 1.391 1_554 S
C784 C785 1.399 . S
C785 C784 1.399 . S
C785 C788 1.396 1_554 S
C785 C797 1.453 . S
C785 C798 1.684 . S
H786 C810 0.948 . S
C787 C783 1.397 . S
C787 C788 1.394 . S
C787 C806 1.723 . S
C788 C785 1.396 1_556 S
C788 C787 1.394 . S
C788 C818 1.723 . S
H789 C812 0.947 1_554 S
H790 C813 0.926 1_554 S
H791 C819 0.982 . S
H792 C820 0.979 . S
H793 C820 0.980 . S
H794 C820 0.983 . S
H795 C819 0.979 . S
H796 C819 0.977 . S
C797 C785 1.453 . S
C797 H826 0.982 . S
C797 H827 0.979 . S
C797 H828 0.977 . S
C798 C785 1.684 . S
C798 H823 0.979 1_554 S
C798 H824 0.980 . S
C798 H825 0.983 . S
C799 C800 1.391 . S
C799 C804 1.391 . S
C799 H829 0.948 . S
C800 C799 1.391 . S
C800 C801 1.391 . S
C801 C800 1.391 . S
C801 C802 1.392 . S
C801 H830 0.947 . S
C802 C801 1.392 . S
C802 C803 1.419 . S
C802 H831 0.948 . S
C803 C802 1.419 . S
C803 C804 1.391 . S
C803 C807 1.397 . S
C804 C799 1.391 . S
C804 C803 1.391 . S
C804 C805 1.399 . S
C805 C804 1.399 . S
C805 C806 1.396 . S
C805 C808 1.453 . S
C805 C809 1.684 . S
C806 C787 1.723 . S
C806 C805 1.396 . S
C806 C807 1.394 . S
C807 C803 1.397 . S
C807 C806 1.394 . S
C807 C817 1.723 . S
C808 C805 1.453 . S
C808 H832 0.982 . S
C808 H833 0.979 . S
C808 H834 0.977 . S
C809 C805 1.684 . S
C809 H835 0.979 . S
C809 H836 0.980 . S
C809 H837 0.983 . S
C810 H786 0.948 . S
C810 C811 1.391 . S
C810 C815 1.391 . S
C811 C810 1.391 . S
C811 C812 1.391 . S
C812 H789 0.947 1_556 S
C812 C811 1.391 . S
C812 C813 1.392 . S
C813 H790 0.926 1_556 S
C813 C812 1.392 . S
C813 C814 1.419 . S
C814 C813 1.419 . S
C814 C815 1.391 . S
C814 C818 1.397 . S
C815 C810 1.391 . S
C815 C814 1.391 . S
C815 C816 1.399 . S
C816 C815 1.399 . S
C816 C817 1.396 . S
C816 C819 1.453 . S
C816 C820 1.684 . S
C817 C807 1.723 . S
C817 C816 1.396 . S
C817 C818 1.394 . S
C818 C788 1.723 . S
C818 C814 1.397 . S
C818 C817 1.394 . S
C819 H791 0.982 . S
C819 H795 0.979 . S
C819 H796 0.977 . S
C819 C816 1.453 . S
C820 H792 0.979 . S
C820 H793 0.980 . S
C820 H794 0.983 . S
C820 C816 1.684 . S
H821 C839 0.948 . S
H822 C780 0.948 . S
H823 C798 0.979 1_556 S
H824 C798 0.980 . S
H825 C798 0.983 . S
H826 C797 0.982 . S
H827 C797 0.979 . S
H828 C797 0.977 . S
H829 C799 0.948 . S
H830 C801 0.947 . S
H831 C802 0.948 . S
H832 C808 0.982 . S
H833 C808 0.979 . S
H834 C808 0.977 . S
H835 C809 0.979 . S
H836 C809 0.980 . S
H837 C809 0.983 . S
H838 C782 0.946 . S
C839 C782 1.352 1_556 S
C839 C783 1.419 . S
C839 H821 0.948 . S
C840 C841 1.391 . S
C840 C844 1.391 . S
C840 H882 0.948 . S
C841 C840 1.391 . S
C841 C842 1.391 . S
C842 C841 1.391 . S
C842 H898 0.947 . S
C842 C899 1.392 . S
C843 C844 1.391 . S
C843 C847 1.397 . S
C843 C899 1.419 . S
C844 C840 1.391 . S
C844 C843 1.391 . S
C844 C845 1.399 . S
C845 C844 1.399 . S
C845 C848 1.396 . S
C845 C857 1.453 . S
C845 C858 1.684 . S
H846 C870 0.948 . S
C847 C843 1.397 . S
C847 C848 1.394 . S
C847 C866 1.723 . S
C848 C845 1.396 . S
C848 C847 1.394 . S
C848 C878 1.723 . S
H849 C872 0.947 . S
H850 C873 0.948 . S
H851 C879 0.982 . S
H852 C880 0.979 . S
H853 C880 0.980 . S
H854 C880 0.983 . S
H855 C879 0.979 . S
H856 C879 0.977 . S
C857 C845 1.453 . S
C857 H886 0.982 . S
C857 H887 0.979 . S
C857 H888 0.977 . S
C858 C845 1.684 . S
C858 H883 0.979 . S
C858 H884 0.980 . S
C858 H885 0.983 . S
C859 C860 1.391 . S
C859 C864 1.391 . S
C859 H889 0.948 . S
C860 C859 1.391 . S
C860 C861 1.391 . S
C861 C860 1.391 . S
C861 C862 1.392 . S
C861 H890 0.947 . S
C862 C861 1.392 . S
C862 C863 1.419 . S
C862 H891 0.948 . S
C863 C862 1.419 . S
C863 C864 1.391 . S
C863 C867 1.397 . S
C864 C859 1.391 . S
C864 C863 1.391 . S
C864 C865 1.399 . S
C865 C864 1.399 . S
C865 C866 1.396 . S
C865 C868 1.453 . S
C865 C869 1.684 . S
C866 C847 1.723 . S
C866 C865 1.396 . S
C866 C867 1.394 . S
C867 C863 1.397 . S
C867 C866 1.394 . S
C867 C877 1.723 . S
C868 C865 1.453 . S
C868 H892 0.982 . S
C868 H893 0.979 . S
C868 H894 0.977 . S
C869 C865 1.684 . S
C869 H895 0.979 . S
C869 H896 0.980 . S
C869 H897 0.983 . S
C870 H846 0.948 . S
C870 C871 1.391 . S
C870 C875 1.391 . S
C871 C870 1.391 . S
C871 C872 1.391 . S
C872 H849 0.947 . S
C872 C871 1.391 . S
C872 C873 1.392 . S
C873 H850 0.948 . S
C873 C872 1.392 . S
C873 C874 1.419 . S
C874 C873 1.419 . S
C874 C875 1.391 . S
C874 C878 1.397 . S
C875 C870 1.391 . S
C875 C874 1.391 . S
C875 C876 1.399 . S
C876 C875 1.399 . S
C876 C877 1.396 . S
C876 C879 1.453 . S
C876 C880 1.684 . S
C877 C867 1.723 . S
C877 C876 1.396 . S
C877 C878 1.394 . S
C878 C848 1.723 . S
C878 C874 1.397 . S
C878 C877 1.394 . S
C879 H851 0.982 . S
C879 H855 0.979 . S
C879 H856 0.977 . S
C879 C876 1.453 . S
C880 H852 0.979 . S
C880 H853 0.980 . S
C880 H854 0.983 . S
C880 C876 1.684 . S
H881 C899 0.948 . S
H882 C840 0.948 . S
H883 C858 0.979 . S
H884 C858 0.980 . S
H885 C858 0.983 . S
H886 C857 0.982 . S
H887 C857 0.979 . S
H888 C857 0.977 . S
H889 C859 0.948 . S
H890 C861 0.947 . S
H891 C862 0.948 . S
H892 C868 0.982 . S
H893 C868 0.979 . S
H894 C868 0.977 . S
H895 C869 0.979 . S
H896 C869 0.980 . S
H897 C869 0.983 . S
H898 C842 0.947 . S
C899 C842 1.392 . S
C899 C843 1.419 . S
C899 H881 0.948 . S
C900 C901 1.391 . S
C900 C904 1.391 1_565 S
C900 H942 0.948 1_566 S
C901 C900 1.391 . S
C901 C902 1.391 . S
C902 C901 1.391 . S
C902 H958 0.947 . S
C902 C959 1.392 . S
C903 C904 1.391 . S
C903 C907 1.397 . S
C903 C959 1.419 1_545 S
C904 C900 1.391 1_545 S
C904 C903 1.391 . S
C904 C905 1.381 1_556 S
C905 C904 1.381 1_554 S
C905 C908 1.369 1_554 S
C905 C917 1.458 . S
C905 C918 1.730 . S
H906 C930 0.948 . S
C907 C903 1.397 . S
C907 C908 1.394 . S
C907 C926 1.723 . S
C908 C905 1.369 1_556 S
C908 C907 1.394 . S
C908 C938 1.723 . S
H909 C932 0.947 . S
H910 C933 0.948 . S
H911 C939 0.982 . S
H912 C940 0.979 . S
H913 C940 0.980 . S
H914 C940 0.983 . S
H915 C939 0.979 . S
H916 C939 0.977 . S
C917 C905 1.458 . S
C917 H946 0.982 1_554 S
C917 H947 0.979 . S
C917 H948 0.977 . S
C918 C905 1.730 . S
C918 H943 0.979 . S
C918 H944 0.980 . S
C918 H945 0.983 . S
C919 C920 1.391 . S
C919 C924 1.391 . S
C919 H949 0.948 . S
C920 C919 1.391 . S
C920 C921 1.391 . S
C921 C920 1.391 . S
C921 C922 1.392 . S
C921 H950 0.947 . S
C922 C921 1.392 . S
C922 C923 1.419 . S
C922 H951 0.948 . S
C923 C922 1.419 . S
C923 C924 1.391 . S
C923 C927 1.397 . S
C924 C919 1.391 . S
C924 C923 1.391 . S
C924 C925 1.399 . S
C925 C924 1.399 . S
C925 C926 1.396 . S
C925 C928 1.453 . S
C925 C929 1.684 1_545 S
C926 C907 1.723 . S
C926 C925 1.396 . S
C926 C927 1.394 . S
C927 C923 1.397 . S
C927 C926 1.394 . S
C927 C937 1.723 . S
C928 C925 1.453 . S
C928 H952 0.982 . S
C928 H953 0.979 1_545 S
C928 H954 0.966 1_545 S
C929 C925 1.684 1_565 S
C929 H955 0.979 . S
C929 H956 0.980 . S
C929 H957 0.983 . S
C930 H906 0.948 . S
C930 C931 1.391 . S
C930 C935 1.386 1_554 S
C931 C930 1.391 . S
C931 C932 1.391 . S
C932 H909 0.947 . S
C932 C931 1.391 . S
C932 C933 1.392 . S
C933 H910 0.948 . S
C933 C932 1.392 . S
C933 C934 1.419 . S
C934 C933 1.419 . S
C934 C935 1.390 1_554 S
C934 C938 1.397 1_554 S
C935 C930 1.386 1_556 S
C935 C934 1.390 1_556 S
C935 C936 1.407 . S
C936 C935 1.407 . S
C936 C937 1.396 . S
C936 C939 1.453 . S
C936 C940 1.684 . S
C937 C927 1.723 . S
C937 C936 1.396 . S
C937 C938 1.394 . S
C938 C908 1.723 . S
C938 C934 1.397 1_556 S
C938 C937 1.394 . S
C939 H911 0.982 . S
C939 H915 0.979 . S
C939 H916 0.977 . S
C939 C936 1.453 . S
C940 H912 0.979 . S
C940 H913 0.980 . S
C940 H914 0.983 . S
C940 C936 1.684 . S
H941 C959 0.948 . S
H942 C900 0.948 1_544 S
H943 C918 0.979 . S
H944 C918 0.980 . S
H945 C918 0.983 . S
H946 C917 0.982 1_556 S
H947 C917 0.979 . S
H948 C917 0.977 . S
H949 C919 0.948 . S
H950 C921 0.947 . S
H951 C922 0.948 . S
H952 C928 0.982 . S
H953 C928 0.979 1_565 S
H954 C928 0.966 1_565 S
H955 C929 0.979 . S
H956 C929 0.980 . S
H957 C929 0.983 . S
H958 C902 0.947 . S
C959 C902 1.392 . S
C959 C903 1.419 1_565 S
C959 H941 0.948 . S
Mn960 O965 2.095 . S
Mn960 O975 2.162 . S
Mn960 O976 2.297 . S
Mn960 O984 2.405 . S
Mn960 O985 2.209 1_554 S
Mn960 O986 2.094 . S
Mn961 O966 2.121 . S
Mn961 N968 2.257 . S
Mn961 N977 2.282 . S
Mn961 O985 2.215 . S
Mn961 O987 2.117 . S
C962 O984 1.196 1_556 S
C962 O985 1.283 . S
C963 O975 1.281 . S
C963 O976 1.236 . S
C964 O986 1.240 . S
C964 O987 1.264 1_554 S
O965 Mn960 2.095 . S
O965 C974 1.250 . S
O966 Mn961 2.121 . S
O966 C974 1.258 1_556 S
C967 N968 1.326 . S
C967 C971 1.460 . S
C967 H973 0.929 . S
N968 Mn961 2.257 . S
N968 C967 1.326 . S
N968 C972 1.362 . S
C969 C970 1.258 . S
C969 C972 1.431 . S
C969 C989 1.449 . S
C970 C969 1.258 . S
C970 C971 1.477 . S
C970 H990 0.931 . S
C971 C967 1.460 . S
C971 C970 1.477 . S
C971 H991 0.930 . S
C972 N968 1.362 . S
C972 C969 1.431 . S
C972 C982 1.476 . S
H973 C967 0.929 . S
C974 O965 1.250 . S
C974 O966 1.258 1_554 S
O975 Mn960 2.162 . S
O975 C963 1.281 . S
O976 Mn960 2.297 . S
O976 C963 1.236 . S
N977 Mn961 2.282 . S
N977 C978 1.328 . S
N977 C982 1.318 . S
C978 N977 1.328 . S
C978 C979 1.457 . S
C978 H983 0.929 . S
C979 C978 1.457 . S
C979 C980 1.291 . S
C979 H992 0.931 . S
C980 C979 1.291 . S
C980 C981 1.373 . S
C980 H993 0.929 . S
C981 C980 1.373 . S
C981 C982 1.396 . S
C981 C988 1.403 . S
C982 C972 1.476 . S
C982 N977 1.318 . S
C982 C981 1.396 . S
H983 C978 0.929 . S
O984 Mn960 2.405 . S
O984 C962 1.196 1_554 S
O985 Mn960 2.209 1_556 S
O985 Mn961 2.215 . S
O985 C962 1.283 . S
O986 Mn960 2.094 . S
O986 C964 1.240 . S
O987 Mn961 2.117 . S
O987 C964 1.264 1_556 S
C988 C981 1.403 . S
C988 C989 1.399 . S
C988 H994 0.929 . S
C989 C969 1.449 . S
C989 C988 1.399 . S
C989 H995 0.930 . S
H990 C970 0.931 . S
H991 C971 0.930 . S
H992 C979 0.931 . S
H993 C980 0.929 . S
H994 C988 0.929 . S
H995 C989 0.930 . S
Mn996 O1001 2.095 . S
Mn996 O1011 2.162 . S
Mn996 O1012 2.297 . S
Mn996 O1020 2.385 . S
Mn996 O1021 2.209 . S
Mn996 O1022 2.094 . S
Mn997 O1002 2.121 . S
Mn997 N1004 2.257 . S
Mn997 N1013 2.282 . S
Mn997 O1021 2.215 . S
Mn997 O1023 2.117 . S
C998 O1020 1.234 . S
C998 O1021 1.283 . S
C999 O1011 1.281 . S
C999 O1012 1.236 . S
C1000 O1022 1.240 . S
C1000 O1023 1.264 . S
O1001 Mn996 2.095 . S
O1001 C1010 1.250 . S
O1002 Mn997 2.121 . S
O1002 C1010 1.258 . S
C1003 N1004 1.326 . S
C1003 C1007 1.460 . S
C1003 H1009 0.929 . S
N1004 Mn997 2.257 . S
N1004 C1003 1.326 . S
N1004 C1008 1.362 . S
C1005 C1006 1.258 . S
C1005 C1008 1.431 . S
C1005 C1025 1.449 . S
C1006 C1005 1.258 . S
C1006 C1007 1.477 . S
C1006 H1026 0.931 . S
C1007 C1003 1.460 . S
C1007 C1006 1.477 . S
C1007 H1027 0.930 . S
C1008 N1004 1.362 . S
C1008 C1005 1.431 . S
C1008 C1018 1.476 . S
H1009 C1003 0.929 . S
C1010 O1001 1.250 . S
C1010 O1002 1.258 . S
O1011 Mn996 2.162 . S
O1011 C999 1.281 . S
O1012 Mn996 2.297 . S
O1012 C999 1.236 . S
N1013 Mn997 2.282 . S
N1013 C1014 1.328 . S
N1013 C1018 1.318 . S
C1014 N1013 1.328 . S
C1014 C1015 1.457 . S
C1014 H1019 0.929 . S
C1015 C1014 1.457 . S
C1015 C1016 1.291 . S
C1015 H1028 0.931 . S
C1016 C1015 1.291 . S
C1016 C1017 1.373 . S
C1016 H1029 0.929 . S
C1017 C1016 1.373 . S
C1017 C1018 1.396 . S
C1017 C1024 1.403 . S
C1018 C1008 1.476 . S
C1018 N1013 1.318 . S
C1018 C1017 1.396 . S
H1019 C1014 0.929 . S
O1020 Mn996 2.385 . S
O1020 C998 1.234 . S
O1021 Mn996 2.209 . S
O1021 Mn997 2.215 . S
O1021 C998 1.283 . S
O1022 Mn996 2.094 . S
O1022 C1000 1.240 . S
O1023 Mn997 2.117 . S
O1023 C1000 1.264 . S
C1024 C1017 1.403 . S
C1024 C1025 1.399 . S
C1024 H1030 0.929 . S
C1025 C1005 1.449 . S
C1025 C1024 1.399 . S
C1025 H1031 0.930 . S
H1026 C1006 0.931 . S
H1027 C1007 0.930 . S
H1028 C1015 0.931 . S
H1029 C1016 0.929 . S
H1030 C1024 0.929 . S
H1031 C1025 0.930 . S
Mn1032 O1037 2.095 1_554 S
Mn1032 O1047 2.162 . S
Mn1032 O1048 2.297 1_554 S
Mn1032 O1056 2.385 . S
Mn1032 O1057 2.209 1_554 S
Mn1032 O1058 2.094 . S
Mn1033 O1038 2.121 . S
Mn1033 N1040 2.257 . S
Mn1033 N1049 2.282 . S
Mn1033 O1057 2.215 . S
Mn1033 O1059 2.117 1_556 S
C1034 O1056 1.274 . S
C1034 O1057 1.256 1_554 S
C1035 O1047 1.281 . S
C1035 O1048 1.236 1_554 S
C1036 O1058 1.240 . S
C1036 O1059 1.264 . S
O1037 Mn1032 2.095 1_556 S
O1037 C1046 1.250 . S
O1038 Mn1033 2.121 . S
O1038 C1046 1.258 . S
C1039 N1040 1.326 . S
C1039 C1043 1.460 . S
C1039 H1045 0.929 . S
N1040 Mn1033 2.257 . S
N1040 C1039 1.326 . S
N1040 C1044 1.362 . S
C1041 C1042 1.258 . S
C1041 C1044 1.431 . S
C1041 C1061 1.449 . S
C1042 C1041 1.258 . S
C1042 C1043 1.477 . S
C1042 H1062 0.931 . S
C1043 C1039 1.460 . S
C1043 C1042 1.477 . S
C1043 H1063 0.930 . S
C1044 N1040 1.362 . S
C1044 C1041 1.431 . S
C1044 C1054 1.476 . S
H1045 C1039 0.929 . S
C1046 O1037 1.250 . S
C1046 O1038 1.258 . S
O1047 Mn1032 2.162 . S
O1047 C1035 1.281 . S
O1048 Mn1032 2.297 1_556 S
O1048 C1035 1.236 1_556 S
N1049 Mn1033 2.282 . S
N1049 C1050 1.328 1_556 S
N1049 C1054 1.318 . S
C1050 N1049 1.328 1_554 S
C1050 C1051 1.457 . S
C1050 H1055 0.929 . S
C1051 C1050 1.457 . S
C1051 C1052 1.291 . S
C1051 H1064 0.931 . S
C1052 C1051 1.291 . S
C1052 C1053 1.373 1_554 S
C1052 H1065 0.929 . S
C1053 C1052 1.373 1_556 S
C1053 C1054 1.396 . S
C1053 C1060 1.403 . S
C1054 C1044 1.476 . S
C1054 N1049 1.318 . S
C1054 C1053 1.396 . S
H1055 C1050 0.929 . S
O1056 Mn1032 2.385 . S
O1056 C1034 1.274 . S
O1057 Mn1032 2.209 1_556 S
O1057 Mn1033 2.215 . S
O1057 C1034 1.256 1_556 S
O1058 Mn1032 2.094 . S
O1058 C1036 1.240 . S
O1059 Mn1033 2.117 1_554 S
O1059 C1036 1.264 . S
C1060 C1053 1.403 . S
C1060 C1061 1.399 . S
C1060 H1066 0.929 . S
C1061 C1041 1.449 . S
C1061 C1060 1.399 . S
C1061 H1067 0.930 . S
H1062 C1042 0.931 . S
H1063 C1043 0.930 . S
H1064 C1051 0.931 . S
H1065 C1052 0.929 . S
H1066 C1060 0.929 . S
H1067 C1061 0.930 . S
Mn1068 O1073 2.095 . S
Mn1068 O1083 2.162 . S
Mn1068 O1084 2.297 . S
Mn1068 O1092 2.385 1_545 S
Mn1068 O1093 2.209 1_545 S
Mn1068 O1094 2.094 . S
Mn1069 O1074 2.121 . S
Mn1069 N1076 2.257 . S
Mn1069 N1085 2.282 . S
Mn1069 O1093 2.215 . S
Mn1069 O1095 2.117 . S
C1070 O1092 1.234 . S
C1070 O1093 1.283 . S
C1071 O1083 1.281 . S
C1071 O1084 1.236 . S
C1072 O1094 1.240 . S
C1072 O1095 1.264 1_545 S
O1073 Mn1068 2.095 . S
O1073 C1082 1.248 . S
O1074 Mn1069 2.121 . S
O1074 C1082 1.261 1_565 S
C1075 N1076 1.326 . S
C1075 C1079 1.460 . S
C1075 H1081 0.929 . S
N1076 Mn1069 2.257 . S
N1076 C1075 1.326 . S
N1076 C1080 1.362 . S
C1077 C1078 1.258 . S
C1077 C1080 1.431 . S
C1077 C1097 1.449 . S
C1078 C1077 1.258 . S
C1078 C1079 1.477 . S
C1078 H1098 0.931 . S
C1079 C1075 1.460 . S
C1079 C1078 1.477 . S
C1079 H1099 0.930 . S
C1080 N1076 1.362 . S
C1080 C1077 1.431 . S
C1080 C1090 1.476 . S
H1081 C1075 0.929 . S
C1082 O1073 1.248 . S
C1082 O1074 1.261 1_545 S
O1083 Mn1068 2.162 . S
O1083 C1071 1.281 . S
O1084 Mn1068 2.297 . S
O1084 C1071 1.236 . S
N1085 Mn1069 2.282 . S
N1085 C1086 1.328 . S
N1085 C1090 1.318 . S
C1086 N1085 1.328 . S
C1086 C1087 1.457 . S
C1086 H1091 0.929 . S
C1087 C1086 1.457 . S
C1087 C1088 1.291 . S
C1087 H1100 0.931 . S
C1088 C1087 1.291 . S
C1088 C1089 1.373 . S
C1088 H1101 0.929 . S
C1089 C1088 1.373 . S
C1089 C1090 1.396 . S
C1089 C1096 1.403 . S
C1090 C1080 1.476 . S
C1090 N1085 1.318 . S
C1090 C1089 1.396 . S
H1091 C1086 0.929 . S
O1092 Mn1068 2.385 1_565 S
O1092 C1070 1.234 . S
O1093 Mn1068 2.209 1_565 S
O1093 Mn1069 2.215 . S
O1093 C1070 1.283 . S
O1094 Mn1068 2.094 . S
O1094 C1072 1.240 . S
O1095 Mn1069 2.117 . S
O1095 C1072 1.264 1_565 S
C1096 C1089 1.403 . S
C1096 C1097 1.399 . S
C1096 H1102 0.929 . S
C1097 C1077 1.449 . S
C1097 C1096 1.399 . S
C1097 H1103 0.930 . S
H1098 C1078 0.931 . S
H1099 C1079 0.930 . S
H1100 C1087 0.931 . S
H1101 C1088 0.929 . S
H1102 C1096 0.929 . S
H1103 C1097 0.930 . S
Mn1104 O1109 2.095 . S
Mn1104 O1119 2.162 . S
Mn1104 O1120 2.297 . S
Mn1104 O1128 2.385 . S
Mn1104 O1129 2.209 . S
Mn1104 O1130 2.094 . S
Mn1105 O1110 2.121 . S
Mn1105 N1112 2.257 . S
Mn1105 N1121 2.282 . S
Mn1105 O1129 2.215 . S
Mn1105 O1131 2.117 . S
C1106 O1128 1.234 . S
C1106 O1129 1.283 . S
C1107 O1119 1.281 . S
C1107 O1120 1.236 . S
C1108 O1130 1.240 . S
C1108 O1131 1.264 . S
O1109 Mn1104 2.095 . S
O1109 C1118 1.250 . S
O1110 Mn1105 2.121 . S
O1110 C1118 1.258 . S
C1111 N1112 1.326 . S
C1111 C1115 1.460 . S
C1111 H1117 0.929 . S
N1112 Mn1105 2.257 . S
N1112 C1111 1.326 . S
N1112 C1116 1.362 . S
C1113 C1114 1.258 . S
C1113 C1116 1.431 . S
C1113 C1133 1.449 . S
C1114 C1113 1.258 . S
C1114 C1115 1.477 . S
C1114 H1134 0.931 . S
C1115 C1111 1.460 . S
C1115 C1114 1.477 . S
C1115 H1135 0.930 . S
C1116 N1112 1.362 . S
C1116 C1113 1.431 . S
C1116 C1126 1.476 . S
H1117 C1111 0.929 . S
C1118 O1109 1.250 . S
C1118 O1110 1.258 . S
O1119 Mn1104 2.162 . S
O1119 C1107 1.281 . S
O1120 Mn1104 2.297 . S
O1120 C1107 1.236 . S
N1121 Mn1105 2.282 . S
N1121 C1122 1.328 . S
N1121 C1126 1.318 . S
C1122 N1121 1.328 . S
C1122 C1123 1.457 . S
C1122 H1127 0.929 . S
C1123 C1122 1.457 . S
C1123 C1124 1.291 . S
C1123 H1136 0.931 . S
C1124 C1123 1.291 . S
C1124 C1125 1.373 . S
C1124 H1137 0.929 . S
C1125 C1124 1.373 . S
C1125 C1126 1.396 . S
C1125 C1132 1.403 . S
C1126 C1116 1.476 . S
C1126 N1121 1.318 . S
C1126 C1125 1.396 . S
H1127 C1122 0.929 . S
O1128 Mn1104 2.385 . S
O1128 C1106 1.234 . S
O1129 Mn1104 2.209 . S
O1129 Mn1105 2.215 . S
O1129 C1106 1.283 . S
O1130 Mn1104 2.094 . S
O1130 C1108 1.240 . S
O1131 Mn1105 2.117 . S
O1131 C1108 1.264 . S
C1132 C1125 1.403 . S
C1132 C1133 1.399 . S
C1132 H1138 0.929 . S
C1133 C1113 1.449 . S
C1133 C1132 1.399 . S
C1133 H1139 0.930 . S
H1134 C1114 0.931 . S
H1135 C1115 0.930 . S
H1136 C1123 0.931 . S
H1137 C1124 0.929 . S
H1138 C1132 0.929 . S
H1139 C1133 0.930 . S
Mn1140 O1145 2.095 . S
Mn1140 O1155 2.162 . S
Mn1140 O1156 2.297 . S
Mn1140 O1164 2.385 . S
Mn1140 O1165 2.209 . S
Mn1140 O1166 2.094 . S
Mn1141 O1146 2.121 . S
Mn1141 N1148 2.257 . S
Mn1141 N1157 2.282 . S
Mn1141 O1165 2.215 . S
Mn1141 O1167 2.117 . S
C1142 O1164 1.234 . S
C1142 O1165 1.283 . S
C1143 O1155 1.281 . S
C1143 O1156 1.236 . S
C1144 O1166 1.240 . S
C1144 O1167 1.264 . S
O1145 Mn1140 2.095 . S
O1145 C1154 1.250 . S
O1146 Mn1141 2.121 . S
O1146 C1154 1.258 . S
C1147 N1148 1.326 . S
C1147 C1151 1.460 . S
C1147 H1153 0.929 . S
N1148 Mn1141 2.257 . S
N1148 C1147 1.326 . S
N1148 C1152 1.362 . S
C1149 C1150 1.258 . S
C1149 C1152 1.431 . S
C1149 C1169 1.449 . S
C1150 C1149 1.258 . S
C1150 C1151 1.477 . S
C1150 H1170 0.931 . S
C1151 C1147 1.460 . S
C1151 C1150 1.477 . S
C1151 H1171 0.930 . S
C1152 N1148 1.362 . S
C1152 C1149 1.431 . S
C1152 C1162 1.476 . S
H1153 C1147 0.929 . S
C1154 O1145 1.250 . S
C1154 O1146 1.258 . S
O1155 Mn1140 2.162 . S
O1155 C1143 1.281 . S
O1156 Mn1140 2.297 . S
O1156 C1143 1.236 . S
N1157 Mn1141 2.282 . S
N1157 C1158 1.328 . S
N1157 C1162 1.318 . S
C1158 N1157 1.328 . S
C1158 C1159 1.457 . S
C1158 H1163 0.929 . S
C1159 C1158 1.457 . S
C1159 C1160 1.291 . S
C1159 H1172 0.931 . S
C1160 C1159 1.291 . S
C1160 C1161 1.373 . S
C1160 H1173 0.929 . S
C1161 C1160 1.373 . S
C1161 C1162 1.396 . S
C1161 C1168 1.403 . S
C1162 C1152 1.476 . S
C1162 N1157 1.318 . S
C1162 C1161 1.396 . S
H1163 C1158 0.929 . S
O1164 Mn1140 2.385 . S
O1164 C1142 1.234 . S
O1165 Mn1140 2.209 . S
O1165 Mn1141 2.215 . S
O1165 C1142 1.283 . S
O1166 Mn1140 2.094 . S
O1166 C1144 1.240 . S
O1167 Mn1141 2.117 . S
O1167 C1144 1.264 . S
C1168 C1161 1.403 . S
C1168 C1169 1.399 . S
C1168 H1174 0.929 . S
C1169 C1149 1.449 . S
C1169 C1168 1.399 . S
C1169 H1175 0.930 . S
H1170 C1150 0.931 . S
H1171 C1151 0.930 . S
H1172 C1159 0.931 . S
H1173 C1160 0.929 . S
H1174 C1168 0.929 . S
H1175 C1169 0.930 . S
Mn1176 O1181 2.095 . S
Mn1176 O1191 2.162 . S
Mn1176 O1192 2.297 . S
Mn1176 O1200 2.385 . S
Mn1176 O1201 2.209 . S
Mn1176 O1202 2.094 . S
Mn1177 O1182 2.121 . S
Mn1177 N1184 2.257 . S
Mn1177 N1193 2.282 . S
Mn1177 O1201 2.215 . S
Mn1177 O1203 2.117 . S
C1178 O1200 1.234 . S
C1178 O1201 1.283 . S
C1179 O1191 1.281 . S
C1179 O1192 1.236 . S
C1180 O1202 1.240 . S
C1180 O1203 1.264 . S
O1181 Mn1176 2.095 . S
O1181 C1190 1.250 . S
O1182 Mn1177 2.121 . S
O1182 C1190 1.258 . S
C1183 N1184 1.326 . S
C1183 C1187 1.460 . S
C1183 H1189 0.929 . S
N1184 Mn1177 2.257 . S
N1184 C1183 1.326 . S
N1184 C1188 1.362 . S
C1185 C1186 1.258 . S
C1185 C1188 1.431 . S
C1185 C1205 1.449 . S
C1186 C1185 1.258 . S
C1186 C1187 1.477 . S
C1186 H1206 0.931 . S
C1187 C1183 1.460 . S
C1187 C1186 1.477 . S
C1187 H1207 0.930 . S
C1188 N1184 1.362 . S
C1188 C1185 1.431 . S
C1188 C1198 1.476 . S
H1189 C1183 0.929 . S
C1190 O1181 1.250 . S
C1190 O1182 1.258 . S
O1191 Mn1176 2.162 . S
O1191 C1179 1.281 . S
O1192 Mn1176 2.297 . S
O1192 C1179 1.236 . S
N1193 Mn1177 2.282 . S
N1193 C1194 1.328 . S
N1193 C1198 1.318 . S
C1194 N1193 1.328 . S
C1194 C1195 1.457 . S
C1194 H1199 0.929 . S
C1195 C1194 1.457 . S
C1195 C1196 1.291 . S
C1195 H1208 0.931 . S
C1196 C1195 1.291 . S
C1196 C1197 1.373 . S
C1196 H1209 0.929 . S
C1197 C1196 1.373 . S
C1197 C1198 1.396 . S
C1197 C1204 1.403 . S
C1198 C1188 1.476 . S
C1198 N1193 1.318 . S
C1198 C1197 1.396 . S
H1199 C1194 0.929 . S
O1200 Mn1176 2.385 . S
O1200 C1178 1.234 . S
O1201 Mn1176 2.209 . S
O1201 Mn1177 2.215 . S
O1201 C1178 1.283 . S
O1202 Mn1176 2.094 . S
O1202 C1180 1.240 . S
O1203 Mn1177 2.117 . S
O1203 C1180 1.264 . S
C1204 C1197 1.403 . S
C1204 C1205 1.399 . S
C1204 H1210 0.929 . S
C1205 C1185 1.449 . S
C1205 C1204 1.399 . S
C1205 H1211 0.930 . S
H1206 C1186 0.931 . S
H1207 C1187 0.930 . S
H1208 C1195 0.931 . S
H1209 C1196 0.929 . S
H1210 C1204 0.929 . S
H1211 C1205 0.930 . S
Mn1212 O1217 2.095 . S
Mn1212 O1227 2.162 . S
Mn1212 O1228 2.297 . S
Mn1212 O1236 2.385 1_565 S
Mn1212 O1237 2.209 1_565 S
Mn1212 O1238 2.094 . S
Mn1213 O1218 2.121 . S
Mn1213 N1220 2.257 . S
Mn1213 N1229 2.282 . S
Mn1213 O1237 2.215 . S
Mn1213 O1239 2.117 . S
C1214 O1236 1.234 . S
C1214 O1237 1.283 . S
C1215 O1227 1.281 . S
C1215 O1228 1.236 . S
C1216 O1238 1.218 1_545 S
C1216 O1239 1.292 . S
O1217 Mn1212 2.095 . S
O1217 C1226 1.250 1_565 S
O1218 Mn1213 2.121 . S
O1218 C1226 1.258 . S
C1219 N1220 1.326 . S
C1219 C1223 1.460 . S
C1219 H1225 0.929 . S
N1220 Mn1213 2.257 . S
N1220 C1219 1.326 . S
N1220 C1224 1.362 . S
C1221 C1222 1.258 . S
C1221 C1224 1.431 . S
C1221 C1241 1.449 . S
C1222 C1221 1.258 . S
C1222 C1223 1.477 . S
C1222 H1242 0.931 . S
C1223 C1219 1.460 . S
C1223 C1222 1.477 . S
C1223 H1243 0.930 . S
C1224 N1220 1.362 . S
C1224 C1221 1.431 . S
C1224 C1234 1.476 . S
H1225 C1219 0.929 . S
C1226 O1217 1.250 1_545 S
C1226 O1218 1.258 . S
O1227 Mn1212 2.162 . S
O1227 C1215 1.281 . S
O1228 Mn1212 2.297 . S
O1228 C1215 1.236 . S
N1229 Mn1213 2.282 . S
N1229 C1230 1.328 . S
N1229 C1234 1.318 . S
C1230 N1229 1.328 . S
C1230 C1231 1.457 . S
C1230 H1235 0.929 . S
C1231 C1230 1.457 . S
C1231 C1232 1.291 . S
C1231 H1244 0.931 . S
C1232 C1231 1.291 . S
C1232 C1233 1.373 . S
C1232 H1245 0.929 . S
C1233 C1232 1.373 . S
C1233 C1234 1.396 . S
C1233 C1240 1.403 . S
C1234 C1224 1.476 . S
C1234 N1229 1.318 . S
C1234 C1233 1.396 . S
H1235 C1230 0.929 . S
O1236 Mn1212 2.385 1_545 S
O1236 C1214 1.234 . S
O1237 Mn1212 2.209 1_545 S
O1237 Mn1213 2.215 . S
O1237 C1214 1.283 . S
O1238 Mn1212 2.094 . S
O1238 C1216 1.218 1_565 S
O1239 Mn1213 2.117 . S
O1239 C1216 1.292 . S
C1240 C1233 1.403 . S
C1240 C1241 1.399 . S
C1240 H1246 0.929 . S
C1241 C1221 1.449 . S
C1241 C1240 1.399 . S
C1241 H1247 0.930 . S
H1242 C1222 0.931 . S
H1243 C1223 0.930 . S
H1244 C1231 0.931 . S
H1245 C1232 0.929 . S
H1246 C1240 0.929 . S
H1247 C1241 0.930 . S
Mn1248 O1253 2.095 . S
Mn1248 O1263 2.162 . S
Mn1248 O1264 2.297 . S
Mn1248 O1272 2.385 1_455 S
Mn1248 O1273 2.209 1_455 S
Mn1248 O1274 2.094 . S
Mn1249 O1254 2.121 . S
Mn1249 N1256 2.257 . S
Mn1249 N1265 2.282 . S
Mn1249 O1273 2.215 . S
Mn1249 O1275 2.117 . S
C1250 O1272 1.234 . S
C1250 O1273 1.283 . S
C1251 O1263 1.281 . S
C1251 O1264 1.236 . S
C1252 O1274 1.240 . S
C1252 O1275 1.264 1_455 S
O1253 Mn1248 2.095 . S
O1253 C1262 1.250 1_455 S
O1254 Mn1249 2.121 . S
O1254 C1262 1.258 . S
C1255 N1256 1.326 . S
C1255 C1259 1.460 . S
C1255 H1261 0.929 . S
N1256 Mn1249 2.257 . S
N1256 C1255 1.326 . S
N1256 C1260 1.362 . S
C1257 C1258 1.258 . S
C1257 C1260 1.431 . S
C1257 C1277 1.449 . S
C1258 C1257 1.258 . S
C1258 C1259 1.477 . S
C1258 H1278 0.931 . S
C1259 C1255 1.460 . S
C1259 C1258 1.477 . S
C1259 H1279 0.930 . S
C1260 N1256 1.362 . S
C1260 C1257 1.431 . S
C1260 C1270 1.476 . S
H1261 C1255 0.929 . S
C1262 O1253 1.250 1_655 S
C1262 O1254 1.258 . S
O1263 Mn1248 2.162 . S
O1263 C1251 1.281 . S
O1264 Mn1248 2.297 . S
O1264 C1251 1.236 . S
N1265 Mn1249 2.282 . S
N1265 C1266 1.328 . S
N1265 C1270 1.318 . S
C1266 N1265 1.328 . S
C1266 C1267 1.457 . S
C1266 H1271 0.929 . S
C1267 C1266 1.457 . S
C1267 C1268 1.291 . S
C1267 H1280 0.931 . S
C1268 C1267 1.291 . S
C1268 C1269 1.373 . S
C1268 H1281 0.929 . S
C1269 C1268 1.373 . S
C1269 C1270 1.396 . S
C1269 C1276 1.403 . S
C1270 C1260 1.476 . S
C1270 N1265 1.318 . S
C1270 C1269 1.396 . S
H1271 C1266 0.929 . S
O1272 Mn1248 2.385 1_655 S
O1272 C1250 1.234 . S
O1273 Mn1248 2.209 1_655 S
O1273 Mn1249 2.215 . S
O1273 C1250 1.283 . S
O1274 Mn1248 2.094 . S
O1274 C1252 1.240 . S
O1275 Mn1249 2.117 . S
O1275 C1252 1.264 1_655 S
C1276 C1269 1.403 . S
C1276 C1277 1.399 . S
C1276 H1282 0.929 . S
C1277 C1257 1.449 . S
C1277 C1276 1.399 . S
C1277 H1283 0.930 . S
H1278 C1258 0.931 . S
H1279 C1259 0.930 . S
H1280 C1267 0.931 . S
H1281 C1268 0.929 . S
H1282 C1276 0.929 . S
H1283 C1277 0.930 . S
Mn1284 O1289 2.095 . S
Mn1284 O1299 2.162 . S
Mn1284 O1300 2.297 . S
Mn1284 O1308 2.385 . S
Mn1284 O1309 2.209 . S
Mn1284 O1310 2.094 . S
Mn1285 O1290 2.121 . S
Mn1285 N1292 2.257 . S
Mn1285 N1301 2.282 . S
Mn1285 O1309 2.215 . S
Mn1285 O1311 2.117 . S
C1286 O1308 1.234 . S
C1286 O1309 1.283 . S
C1287 O1299 1.281 . S
C1287 O1300 1.236 . S
C1288 O1310 1.240 . S
C1288 O1311 1.264 . S
O1289 Mn1284 2.095 . S
O1289 C1298 1.250 . S
O1290 Mn1285 2.121 . S
O1290 C1298 1.258 . S
C1291 N1292 1.326 . S
C1291 C1295 1.460 . S
C1291 H1297 0.929 . S
N1292 Mn1285 2.257 . S
N1292 C1291 1.326 . S
N1292 C1296 1.362 . S
C1293 C1294 1.258 . S
C1293 C1296 1.431 . S
C1293 C1313 1.449 . S
C1294 C1293 1.258 . S
C1294 C1295 1.477 . S
C1294 H1314 0.931 . S
C1295 C1291 1.460 . S
C1295 C1294 1.477 . S
C1295 H1315 0.930 . S
C1296 N1292 1.362 . S
C1296 C1293 1.431 . S
C1296 C1306 1.476 . S
H1297 C1291 0.929 . S
C1298 O1289 1.250 . S
C1298 O1290 1.258 . S
O1299 Mn1284 2.162 . S
O1299 C1287 1.281 . S
O1300 Mn1284 2.297 . S
O1300 C1287 1.236 . S
N1301 Mn1285 2.282 . S
N1301 C1302 1.328 . S
N1301 C1306 1.318 . S
C1302 N1301 1.328 . S
C1302 C1303 1.457 . S
C1302 H1307 0.929 . S
C1303 C1302 1.457 . S
C1303 C1304 1.291 . S
C1303 H1316 0.931 . S
C1304 C1303 1.291 . S
C1304 C1305 1.373 . S
C1304 H1317 0.929 . S
C1305 C1304 1.373 . S
C1305 C1306 1.396 . S
C1305 C1312 1.403 . S
C1306 C1296 1.476 . S
C1306 N1301 1.318 . S
C1306 C1305 1.396 . S
H1307 C1302 0.929 . S
O1308 Mn1284 2.385 . S
O1308 C1286 1.234 . S
O1309 Mn1284 2.209 . S
O1309 Mn1285 2.215 . S
O1309 C1286 1.283 . S
O1310 Mn1284 2.094 . S
O1310 C1288 1.240 . S
O1311 Mn1285 2.117 . S
O1311 C1288 1.264 . S
C1312 C1305 1.403 . S
C1312 C1313 1.399 . S
C1312 H1318 0.929 . S
C1313 C1293 1.449 . S
C1313 C1312 1.399 . S
C1313 H1319 0.930 . S
H1314 C1294 0.931 . S
H1315 C1295 0.930 . S
H1316 C1303 0.931 . S
H1317 C1304 0.929 . S
H1318 C1312 0.929 . S
H1319 C1313 0.930 . S
Mn1320 O1325 2.095 1_455 S
Mn1320 O1335 2.162 . S
Mn1320 O1336 2.297 1_455 S
Mn1320 O1344 2.385 . S
Mn1320 O1345 2.209 1_455 S
Mn1320 O1346 2.094 . S
Mn1321 O1326 2.121 . S
Mn1321 N1328 2.257 . S
Mn1321 N1337 2.282 1_655 S
Mn1321 O1345 2.215 . S
Mn1321 O1347 2.117 1_655 S
C1322 O1344 1.234 . S
C1322 O1345 1.283 1_455 S
C1323 O1335 1.281 . S
C1323 O1336 1.236 1_455 S
C1324 O1346 1.240 . S
C1324 O1347 1.264 . S
O1325 Mn1320 2.095 1_655 S
O1325 C1334 1.250 . S
O1326 Mn1321 2.121 . S
O1326 C1334 1.258 . S
C1327 N1328 1.326 . S
C1327 C1331 1.460 . S
C1327 H1333 0.929 . S
N1328 Mn1321 2.257 . S
N1328 C1327 1.326 . S
N1328 C1332 1.362 . S
C1329 C1330 1.258 . S
C1329 C1332 1.431 . S
C1329 C1349 1.449 . S
C1330 C1329 1.258 . S
C1330 C1331 1.477 . S
C1330 H1350 0.931 . S
C1331 C1327 1.460 . S
C1331 C1330 1.477 . S
C1331 H1351 0.930 . S
C1332 N1328 1.362 . S
C1332 C1329 1.431 . S
C1332 C1342 1.476 . S
H1333 C1327 0.929 . S
C1334 O1325 1.250 . S
C1334 O1326 1.258 . S
O1335 Mn1320 2.162 . S
O1335 C1323 1.281 . S
O1336 Mn1320 2.297 1_655 S
O1336 C1323 1.236 1_655 S
N1337 Mn1321 2.282 1_455 S
N1337 C1338 1.328 . S
N1337 C1342 1.318 1_455 S
C1338 N1337 1.328 . S
C1338 C1339 1.457 . S
C1338 H1343 0.929 . S
C1339 C1338 1.457 . S
C1339 C1340 1.291 . S
C1339 H1352 0.931 . S
C1340 C1339 1.291 . S
C1340 C1341 1.373 1_455 S
C1340 H1353 0.929 . S
C1341 C1340 1.373 1_655 S
C1341 C1342 1.396 . S
C1341 C1348 1.403 . S
C1342 C1332 1.476 . S
C1342 N1337 1.318 1_655 S
C1342 C1341 1.396 . S
H1343 C1338 0.929 . S
O1344 Mn1320 2.385 . S
O1344 C1322 1.234 . S
O1345 Mn1320 2.209 1_655 S
O1345 Mn1321 2.215 . S
O1345 C1322 1.283 1_655 S
O1346 Mn1320 2.094 . S
O1346 C1324 1.240 . S
O1347 Mn1321 2.117 1_455 S
O1347 C1324 1.264 . S
C1348 C1341 1.403 . S
C1348 C1349 1.399 . S
C1348 H1354 0.929 . S
C1349 C1329 1.449 . S
C1349 C1348 1.399 . S
C1349 H1355 0.930 . S
H1350 C1330 0.931 . S
H1351 C1331 0.930 . S
H1352 C1339 0.931 . S
H1353 C1340 0.929 . S
H1354 C1348 0.929 . S
H1355 C1349 0.930 . S
Mn1356 O1361 2.095 . S
Mn1356 O1371 2.162 . S
Mn1356 O1372 2.297 . S
Mn1356 O1380 2.385 . S
Mn1356 O1381 2.209 . S
Mn1356 O1382 2.094 . S
Mn1357 O1362 2.121 . S
Mn1357 N1364 2.257 . S
Mn1357 N1373 2.282 . S
Mn1357 O1381 2.215 . S
Mn1357 O1383 2.117 . S
C1358 O1380 1.234 . S
C1358 O1381 1.283 . S
C1359 O1371 1.281 . S
C1359 O1372 1.236 . S
C1360 O1382 1.240 . S
C1360 O1383 1.264 . S
O1361 Mn1356 2.095 . S
O1361 C1370 1.250 . S
O1362 Mn1357 2.121 . S
O1362 C1370 1.258 . S
C1363 N1364 1.326 . S
C1363 C1367 1.460 . S
C1363 H1369 0.929 . S
N1364 Mn1357 2.257 . S
N1364 C1363 1.326 . S
N1364 C1368 1.362 . S
C1365 C1366 1.258 . S
C1365 C1368 1.431 . S
C1365 C1385 1.449 . S
C1366 C1365 1.258 . S
C1366 C1367 1.477 . S
C1366 H1386 0.931 . S
C1367 C1363 1.460 . S
C1367 C1366 1.477 . S
C1367 H1387 0.930 . S
C1368 N1364 1.362 . S
C1368 C1365 1.431 . S
C1368 C1378 1.476 . S
H1369 C1363 0.929 . S
C1370 O1361 1.250 . S
C1370 O1362 1.258 . S
O1371 Mn1356 2.162 . S
O1371 C1359 1.281 . S
O1372 Mn1356 2.297 . S
O1372 C1359 1.236 . S
N1373 Mn1357 2.282 . S
N1373 C1374 1.328 . S
N1373 C1378 1.318 . S
C1374 N1373 1.328 . S
C1374 C1375 1.457 . S
C1374 H1379 0.929 . S
C1375 C1374 1.457 . S
C1375 C1376 1.291 . S
C1375 H1388 0.931 . S
C1376 C1375 1.291 . S
C1376 C1377 1.373 . S
C1376 H1389 0.929 . S
C1377 C1376 1.373 . S
C1377 C1378 1.396 . S
C1377 C1384 1.403 . S
C1378 C1368 1.476 . S
C1378 N1373 1.318 . S
C1378 C1377 1.396 . S
H1379 C1374 0.929 . S
O1380 Mn1356 2.385 . S
O1380 C1358 1.234 . S
O1381 Mn1356 2.209 . S
O1381 Mn1357 2.215 . S
O1381 C1358 1.283 . S
O1382 Mn1356 2.094 . S
O1382 C1360 1.240 . S
O1383 Mn1357 2.117 . S
O1383 C1360 1.264 . S
C1384 C1377 1.403 . S
C1384 C1385 1.399 . S
C1384 H1390 0.929 . S
C1385 C1365 1.449 . S
C1385 C1384 1.399 . S
C1385 H1391 0.930 . S
H1386 C1366 0.931 . S
H1387 C1367 0.930 . S
H1388 C1375 0.931 . S
H1389 C1376 0.929 . S
H1390 C1384 0.929 . S
H1391 C1385 0.930 . S
H1392 C1398 0.930 . S
H1393 C1402 0.930 . S
H1394 C1407 0.929 . S
H1395 C1405 0.929 . S
H1396 C1400 0.929 . S
H1397 C1406 0.929 . S
C1398 H1392 0.930 . S
C1398 C1399 1.367 . S
C1398 C1406 1.378 . S
C1399 C1398 1.367 . S
C1399 C1407 1.433 . S
C1400 H1396 0.929 . S
C1400 C1402 1.378 . S
C1400 C1404 1.350 . S
C1401 C1404 1.463 . S
C1401 C1406 1.350 . S
C1401 N1409 1.427 . S
C1402 H1393 0.930 . S
C1402 C1400 1.378 . S
C1402 C1403 1.367 . S
C1403 C1402 1.367 . S
C1403 C1405 1.433 . S
C1404 C1400 1.350 . S
C1404 C1401 1.463 . S
C1404 N1408 1.427 . S
C1405 H1395 0.929 . S
C1405 C1403 1.433 . S
C1405 N1408 1.384 . S
C1406 H1397 0.929 . S
C1406 C1398 1.378 . S
C1406 C1401 1.350 . S
C1407 H1394 0.929 . S
C1407 C1399 1.433 . S
C1407 N1409 1.384 . S
N1408 C1404 1.427 . S
N1408 C1405 1.384 . S
N1409 C1401 1.427 . S
N1409 C1407 1.384 . S
H1410 C1416 0.930 . S
H1411 C1420 0.930 . S
H1412 C1425 0.929 . S
H1413 C1423 0.929 . S
H1414 C1418 0.929 . S
H1415 C1424 0.929 . S
C1416 H1410 0.930 . S
C1416 C1417 1.367 . S
C1416 C1424 1.378 . S
C1417 C1416 1.367 . S
C1417 C1425 1.433 . S
C1418 H1414 0.929 . S
C1418 C1420 1.378 . S
C1418 C1422 1.350 . S
C1419 C1422 1.463 . S
C1419 C1424 1.350 . S
C1419 N1427 1.427 . S
C1420 H1411 0.930 . S
C1420 C1418 1.378 . S
C1420 C1421 1.367 . S
C1421 C1420 1.367 . S
C1421 C1423 1.433 . S
C1422 C1418 1.350 . S
C1422 C1419 1.463 . S
C1422 N1426 1.427 . S
C1423 H1413 0.929 . S
C1423 C1421 1.433 . S
C1423 N1426 1.384 . S
C1424 H1415 0.929 . S
C1424 C1416 1.378 . S
C1424 C1419 1.350 . S
C1425 H1412 0.929 . S
C1425 C1417 1.433 . S
C1425 N1427 1.384 . S
N1426 C1422 1.427 . S
N1426 C1423 1.384 . S
N1427 C1419 1.427 . S
N1427 C1425 1.384 . S
H1428 C1434 0.930 . S
H1429 C1438 0.930 . S
H1430 C1443 0.929 . S
H1431 C1441 0.929 . S
H1432 C1436 0.929 . S
H1433 C1442 0.929 . S
C1434 H1428 0.930 . S
C1434 C1435 1.367 . S
C1434 C1442 1.378 . S
C1435 C1434 1.367 . S
C1435 C1443 1.433 . S
C1436 H1432 0.929 . S
C1436 C1438 1.378 . S
C1436 C1440 1.350 . S
C1437 C1440 1.463 . S
C1437 C1442 1.350 . S
C1437 N1445 1.427 . S
C1438 H1429 0.930 . S
C1438 C1436 1.378 . S
C1438 C1439 1.367 . S
C1439 C1438 1.367 . S
C1439 C1441 1.433 . S
C1440 C1436 1.350 . S
C1440 C1437 1.463 . S
C1440 N1444 1.427 . S
C1441 H1431 0.929 . S
C1441 C1439 1.433 . S
C1441 N1444 1.384 . S
C1442 H1433 0.929 . S
C1442 C1434 1.378 . S
C1442 C1437 1.350 . S
C1443 H1430 0.929 . S
C1443 C1435 1.433 . S
C1443 N1445 1.384 . S
N1444 C1440 1.427 . S
N1444 C1441 1.384 . S
N1445 C1437 1.427 . S
N1445 C1443 1.384 . S
H1446 C1452 0.930 . S
H1447 C1456 0.930 . S
H1448 C1461 0.929 . S
H1449 C1459 0.929 . S
H1450 C1454 0.929 . S
H1451 C1460 0.929 . S
C1452 H1446 0.930 . S
C1452 C1453 1.367 . S
C1452 C1460 1.378 . S
C1453 C1452 1.367 . S
C1453 C1461 1.433 1_565 S
C1454 H1450 0.929 . S
C1454 C1456 1.378 . S
C1454 C1458 1.350 1_545 S
C1455 C1458 1.463 . S
C1455 C1460 1.350 . S
C1455 N1463 1.427 1_565 S
C1456 H1447 0.930 . S
C1456 C1454 1.378 . S
C1456 C1457 1.367 . S
C1457 C1456 1.367 . S
C1457 C1459 1.433 1_545 S
C1458 C1454 1.350 1_565 S
C1458 C1455 1.463 . S
C1458 N1462 1.427 . S
C1459 H1449 0.929 . S
C1459 C1457 1.433 1_565 S
C1459 N1462 1.384 . S
C1460 H1451 0.929 . S
C1460 C1452 1.378 . S
C1460 C1455 1.350 . S
C1461 H1448 0.929 . S
C1461 C1453 1.433 1_545 S
C1461 N1463 1.384 . S
N1462 C1458 1.427 . S
N1462 C1459 1.384 . S
N1463 C1455 1.427 1_545 S
N1463 C1461 1.384 . S
H1464 C1470 0.930 . S
H1465 C1474 0.930 . S
H1466 C1479 0.929 . S
H1467 C1477 0.929 . S
H1468 C1472 0.929 . S
H1469 C1478 0.929 . S
C1470 H1464 0.930 . S
C1470 C1471 1.367 . S
C1470 C1478 1.378 . S
C1471 C1470 1.367 . S
C1471 C1479 1.433 . S
C1472 H1468 0.929 . S
C1472 C1474 1.378 . S
C1472 C1476 1.350 . S
C1473 C1476 1.463 . S
C1473 C1478 1.350 . S
C1473 N1481 1.427 . S
C1474 H1465 0.930 . S
C1474 C1472 1.378 . S
C1474 C1475 1.367 . S
C1475 C1474 1.367 . S
C1475 C1477 1.433 . S
C1476 C1472 1.350 . S
C1476 C1473 1.463 . S
C1476 N1480 1.427 . S
C1477 H1467 0.929 . S
C1477 C1475 1.433 . S
C1477 N1480 1.384 . S
C1478 H1469 0.929 . S
C1478 C1470 1.378 . S
C1478 C1473 1.350 . S
C1479 H1466 0.929 . S
C1479 C1471 1.433 . S
C1479 N1481 1.384 . S
N1480 C1476 1.427 . S
N1480 C1477 1.384 . S
N1481 C1473 1.427 . S
N1481 C1479 1.384 . S
H1482 C1488 0.930 . S
H1483 C1492 0.930 . S
H1484 C1497 0.929 . S
H1485 C1495 0.929 . S
H1486 C1490 0.929 . S
H1487 C1496 0.929 . S
C1488 H1482 0.930 . S
C1488 C1489 1.367 . S
C1488 C1496 1.378 . S
C1489 C1488 1.367 . S
C1489 C1497 1.433 . S
C1490 H1486 0.929 . S
C1490 C1492 1.378 . S
C1490 C1494 1.350 . S
C1491 C1494 1.463 . S
C1491 C1496 1.350 . S
C1491 N1499 1.427 . S
C1492 H1483 0.930 . S
C1492 C1490 1.378 . S
C1492 C1493 1.367 . S
C1493 C1492 1.367 . S
C1493 C1495 1.433 . S
C1494 C1490 1.350 . S
C1494 C1491 1.463 . S
C1494 N1498 1.427 . S
C1495 H1485 0.929 . S
C1495 C1493 1.433 . S
C1495 N1498 1.384 . S
C1496 H1487 0.929 . S
C1496 C1488 1.378 . S
C1496 C1491 1.350 . S
C1497 H1484 0.929 . S
C1497 C1489 1.433 . S
C1497 N1499 1.384 . S
N1498 C1494 1.427 . S
N1498 C1495 1.384 . S
N1499 C1491 1.427 . S
N1499 C1497 1.384 . S
H1500 C1506 0.930 . S
H1501 C1510 0.930 . S
H1502 C1515 0.929 . S
H1503 C1513 0.929 . S
H1504 C1508 0.929 . S
H1505 C1514 0.929 . S
C1506 H1500 0.930 . S
C1506 C1507 1.367 . S
C1506 C1514 1.378 . S
C1507 C1506 1.367 . S
C1507 C1515 1.433 . S
C1508 H1504 0.929 . S
C1508 C1510 1.378 . S
C1508 C1512 1.350 . S
C1509 C1512 1.463 . S
C1509 C1514 1.350 . S
C1509 N1517 1.427 . S
C1510 H1501 0.930 . S
C1510 C1508 1.378 . S
C1510 C1511 1.367 . S
C1511 C1510 1.367 . S
C1511 C1513 1.433 . S
C1512 C1508 1.350 . S
C1512 C1509 1.463 . S
C1512 N1516 1.427 . S
C1513 H1503 0.929 . S
C1513 C1511 1.433 . S
C1513 N1516 1.384 . S
C1514 H1505 0.929 . S
C1514 C1506 1.378 . S
C1514 C1509 1.350 . S
C1515 H1502 0.929 . S
C1515 C1507 1.433 . S
C1515 N1517 1.384 . S
N1516 C1512 1.427 . S
N1516 C1513 1.384 . S
N1517 C1509 1.427 . S
N1517 C1515 1.384 . S
H1518 C1524 0.930 1_545 S
H1519 C1528 0.930 . S
H1520 C1533 0.929 . S
H1521 C1531 0.929 . S
H1522 C1526 0.929 . S
H1523 C1532 0.912 1_545 S
C1524 H1518 0.930 1_565 S
C1524 C1525 1.367 . S
C1524 C1532 1.380 . S
C1525 C1524 1.367 . S
C1525 C1533 1.433 . S
C1526 H1522 0.929 . S
C1526 C1528 1.378 . S
C1526 C1530 1.350 . S
C1527 C1530 1.463 . S
C1527 C1532 1.365 . S
C1527 N1535 1.427 . S
C1528 H1519 0.930 . S
C1528 C1526 1.378 . S
C1528 C1529 1.367 . S
C1529 C1528 1.367 . S
C1529 C1531 1.433 1_565 S
C1530 C1526 1.350 . S
C1530 C1527 1.463 . S
C1530 N1534 1.427 1_565 S
C1531 H1521 0.929 . S
C1531 C1529 1.433 1_545 S
C1531 N1534 1.384 . S
C1532 H1523 0.912 1_565 S
C1532 C1524 1.380 . S
C1532 C1527 1.365 . S
C1533 H1520 0.929 . S
C1533 C1525 1.433 . S
C1533 N1535 1.384 . S
N1534 C1530 1.427 1_545 S
N1534 C1531 1.384 . S
N1535 C1527 1.427 . S
N1535 C1533 1.384 . S
H1536 C1542 0.930 . S
H1537 C1546 0.930 . S
H1538 C1551 0.929 . S
H1539 C1549 0.929 . S
H1540 C1544 0.929 . S
H1541 C1550 0.929 . S
C1542 H1536 0.930 . S
C1542 C1543 1.367 . S
C1542 C1550 1.378 . S
C1543 C1542 1.367 . S
C1543 C1551 1.433 . S
C1544 H1540 0.929 . S
C1544 C1546 1.378 . S
C1544 C1548 1.350 . S
C1545 C1548 1.463 . S
C1545 C1550 1.350 . S
C1545 N1553 1.427 . S
C1546 H1537 0.930 . S
C1546 C1544 1.378 . S
C1546 C1547 1.367 . S
C1547 C1546 1.367 . S
C1547 C1549 1.433 . S
C1548 C1544 1.350 . S
C1548 C1545 1.463 . S
C1548 N1552 1.427 . S
C1549 H1539 0.929 . S
C1549 C1547 1.433 . S
C1549 N1552 1.384 . S
C1550 H1541 0.929 . S
C1550 C1542 1.378 . S
C1550 C1545 1.350 . S
C1551 H1538 0.929 . S
C1551 C1543 1.433 . S
C1551 N1553 1.384 . S
N1552 C1548 1.427 . S
N1552 C1549 1.384 . S
N1553 C1545 1.427 . S
N1553 C1551 1.384 . S
H1554 C1560 0.930 . S
H1555 C1564 0.930 . S
H1556 C1569 0.929 . S
H1557 C1567 0.929 . S
H1558 C1562 0.929 . S
H1559 C1568 0.929 . S
C1560 H1554 0.930 . S
C1560 C1561 1.367 . S
C1560 C1568 1.378 . S
C1561 C1560 1.367 . S
C1561 C1569 1.433 . S
C1562 H1558 0.929 . S
C1562 C1564 1.378 . S
C1562 C1566 1.350 . S
C1563 C1566 1.463 . S
C1563 C1568 1.350 . S
C1563 N1571 1.427 . S
C1564 H1555 0.930 . S
C1564 C1562 1.378 . S
C1564 C1565 1.367 . S
C1565 C1564 1.367 . S
C1565 C1567 1.433 . S
C1566 C1562 1.350 . S
C1566 C1563 1.463 . S
C1566 N1570 1.427 . S
C1567 H1557 0.929 . S
C1567 C1565 1.433 . S
C1567 N1570 1.384 . S
C1568 H1559 0.929 . S
C1568 C1560 1.378 . S
C1568 C1563 1.350 . S
C1569 H1556 0.929 . S
C1569 C1561 1.433 . S
C1569 N1571 1.384 . S
N1570 C1566 1.427 . S
N1570 C1567 1.384 . S
N1571 C1563 1.427 . S
N1571 C1569 1.384 . S
H1572 C1578 0.930 . S
H1573 C1582 0.930 . S
H1574 C1587 0.929 . S
H1575 C1585 0.929 . S
H1576 C1580 0.929 . S
H1577 C1586 0.929 . S
C1578 H1572 0.930 . S
C1578 C1579 1.367 . S
C1578 C1586 1.378 . S
C1579 C1578 1.367 . S
C1579 C1587 1.433 . S
C1580 H1576 0.929 . S
C1580 C1582 1.378 . S
C1580 C1584 1.350 . S
C1581 C1584 1.463 . S
C1581 C1586 1.350 . S
C1581 N1589 1.427 . S
C1582 H1573 0.930 . S
C1582 C1580 1.378 . S
C1582 C1583 1.367 . S
C1583 C1582 1.367 . S
C1583 C1585 1.433 . S
C1584 C1580 1.350 . S
C1584 C1581 1.463 . S
C1584 N1588 1.427 . S
C1585 H1575 0.929 . S
C1585 C1583 1.433 . S
C1585 N1588 1.384 . S
C1586 H1577 0.929 . S
C1586 C1578 1.378 . S
C1586 C1581 1.350 . S
C1587 H1574 0.929 . S
C1587 C1579 1.433 . S
C1587 N1589 1.384 . S
N1588 C1584 1.427 . S
N1588 C1585 1.384 . S
N1589 C1581 1.427 . S
N1589 C1587 1.384 . S
H1590 C1596 0.930 . S
H1591 C1600 0.930 . S
H1592 C1605 0.929 . S
H1593 C1603 0.929 . S
H1594 C1598 0.929 . S
H1595 C1604 0.929 . S
C1596 H1590 0.930 . S
C1596 C1597 1.367 . S
C1596 C1604 1.378 . S
C1597 C1596 1.367 . S
C1597 C1605 1.433 . S
C1598 H1594 0.929 . S
C1598 C1600 1.378 . S
C1598 C1602 1.350 . S
C1599 C1602 1.463 . S
C1599 C1604 1.350 . S
C1599 N1607 1.427 . S
C1600 H1591 0.930 . S
C1600 C1598 1.378 . S
C1600 C1601 1.367 . S
C1601 C1600 1.367 . S
C1601 C1603 1.433 . S
C1602 C1598 1.350 . S
C1602 C1599 1.463 . S
C1602 N1606 1.427 . S
C1603 H1593 0.929 . S
C1603 C1601 1.433 . S
C1603 N1606 1.384 . S
C1604 H1595 0.929 . S
C1604 C1596 1.378 . S
C1604 C1599 1.350 . S
C1605 H1592 0.929 . S
C1605 C1597 1.433 . S
C1605 N1607 1.384 . S
N1606 C1602 1.427 . S
N1606 C1603 1.384 . S
N1607 C1599 1.427 . S
N1607 C1605 1.384 . S
H1608 C1614 0.930 . S
H1609 C1618 0.930 . S
H1610 C1623 0.929 . S
H1611 C1621 0.929 . S
H1612 C1616 0.929 . S
H1613 C1622 0.929 . S
C1614 H1608 0.930 . S
C1614 C1615 1.367 . S
C1614 C1622 1.378 . S
C1615 C1614 1.367 . S
C1615 C1623 1.433 . S
C1616 H1612 0.929 . S
C1616 C1618 1.378 . S
C1616 C1620 1.350 . S
C1617 C1620 1.463 . S
C1617 C1622 1.350 . S
C1617 N1625 1.427 . S
C1618 H1609 0.930 . S
C1618 C1616 1.378 . S
C1618 C1619 1.367 . S
C1619 C1618 1.367 . S
C1619 C1621 1.433 . S
C1620 C1616 1.350 . S
C1620 C1617 1.463 . S
C1620 N1624 1.427 . S
C1621 H1611 0.929 . S
C1621 C1619 1.433 . S
C1621 N1624 1.384 . S
C1622 H1613 0.929 . S
C1622 C1614 1.378 . S
C1622 C1617 1.350 . S
C1623 H1610 0.929 . S
C1623 C1615 1.433 . S
C1623 N1625 1.384 . S
N1624 C1620 1.427 . S
N1624 C1621 1.384 . S
N1625 C1617 1.427 . S
N1625 C1623 1.384 . S
H1626 C1632 0.930 1_655 S
H1627 C1636 0.930 . S
H1628 C1641 0.929 . S
H1629 C1639 0.929 . S
H1630 C1634 0.929 . S
H1631 C1640 0.929 1_655 S
C1632 H1626 0.930 1_455 S
C1632 C1633 1.367 . S
C1632 C1640 1.378 . S
C1633 C1632 1.367 . S
C1633 C1641 1.433 . S
C1634 H1630 0.929 . S
C1634 C1636 1.378 . S
C1634 C1638 1.350 . S
C1635 C1638 1.463 . S
C1635 C1640 1.350 . S
C1635 N1643 1.427 . S
C1636 H1627 0.930 . S
C1636 C1634 1.378 . S
C1636 C1637 1.367 . S
C1637 C1636 1.367 . S
C1637 C1639 1.433 1_455 S
C1638 C1634 1.350 . S
C1638 C1635 1.463 . S
C1638 N1642 1.427 1_455 S
C1639 H1629 0.929 . S
C1639 C1637 1.433 1_655 S
C1639 N1642 1.384 . S
C1640 H1631 0.929 1_455 S
C1640 C1632 1.378 . S
C1640 C1635 1.350 . S
C1641 H1628 0.929 . S
C1641 C1633 1.433 . S
C1641 N1643 1.384 . S
N1642 C1638 1.427 1_655 S
N1642 C1639 1.384 . S
N1643 C1635 1.427 . S
N1643 C1641 1.384 . S
H1644 C1650 0.930 . S
H1645 C1654 0.930 . S
H1646 C1659 0.929 . S
H1647 C1657 0.929 . S
H1648 C1652 0.929 . S
H1649 C1658 0.929 . S
C1650 H1644 0.930 . S
C1650 C1651 1.367 . S
C1650 C1658 1.378 . S
C1651 C1650 1.367 . S
C1651 C1659 1.433 . S
C1652 H1648 0.929 . S
C1652 C1654 1.378 . S
C1652 C1656 1.350 . S
C1653 C1656 1.463 . S
C1653 C1658 1.350 . S
C1653 N1661 1.427 . S
C1654 H1645 0.930 . S
C1654 C1652 1.378 . S
C1654 C1655 1.367 . S
C1655 C1654 1.367 . S
C1655 C1657 1.433 . S
C1656 C1652 1.350 . S
C1656 C1653 1.463 . S
C1656 N1660 1.427 . S
C1657 H1647 0.929 . S
C1657 C1655 1.433 . S
C1657 N1660 1.384 . S
C1658 H1649 0.929 . S
C1658 C1650 1.378 . S
C1658 C1653 1.350 . S
C1659 H1646 0.929 . S
C1659 C1651 1.433 . S
C1659 N1661 1.384 . S
N1660 C1656 1.427 . S
N1660 C1657 1.384 . S
N1661 C1653 1.427 . S
N1661 C1659 1.384 . S
H1662 C1668 0.930 . S
H1663 C1672 0.930 . S
H1664 C1677 0.929 . S
H1665 C1675 0.929 . S
H1666 C1670 0.928 1_455 S
H1667 C1676 0.929 . S
C1668 H1662 0.930 . S
C1668 C1669 1.367 . S
C1668 C1676 1.378 . S
C1669 C1668 1.367 . S
C1669 C1677 1.433 . S
C1670 H1666 0.928 1_655 S
C1670 C1672 1.377 1_655 S
C1670 C1674 1.351 . S
C1671 C1674 1.463 . S
C1671 C1676 1.350 . S
C1671 N1679 1.427 . S
C1672 H1663 0.930 . S
C1672 C1670 1.377 1_455 S
C1672 C1673 1.368 . S
C1673 C1672 1.368 . S
C1673 C1675 1.431 1_455 S
C1674 C1670 1.351 . S
C1674 C1671 1.463 . S
C1674 N1678 1.427 . S
C1675 H1665 0.929 . S
C1675 C1673 1.431 1_655 S
C1675 N1678 1.384 . S
C1676 H1667 0.929 . S
C1676 C1668 1.378 . S
C1676 C1671 1.350 . S
C1677 H1664 0.929 . S
C1677 C1669 1.433 . S
C1677 N1679 1.384 . S
N1678 C1674 1.427 . S
N1678 C1675 1.384 . S
N1679 C1671 1.427 . S
N1679 C1677 1.384 . S
H1680 C1686 0.930 . S
H1681 C1690 0.930 . S
H1682 C1695 0.929 . S
H1683 C1693 0.929 . S
H1684 C1688 0.929 . S
H1685 C1694 0.929 . S
C1686 H1680 0.930 . S
C1686 C1687 1.367 . S
C1686 C1694 1.378 . S
C1687 C1686 1.367 . S
C1687 C1695 1.433 . S
C1688 H1684 0.929 . S
C1688 C1690 1.378 . S
C1688 C1692 1.350 . S
C1689 C1692 1.463 . S
C1689 C1694 1.350 . S
C1689 N1697 1.427 . S
C1690 H1681 0.930 . S
C1690 C1688 1.378 . S
C1690 C1691 1.367 . S
C1691 C1690 1.367 . S
C1691 C1693 1.433 . S
C1692 C1688 1.350 . S
C1692 C1689 1.463 . S
C1692 N1696 1.427 . S
C1693 H1683 0.929 . S
C1693 C1691 1.433 . S
C1693 N1696 1.384 . S
C1694 H1685 0.929 . S
C1694 C1686 1.378 . S
C1694 C1689 1.350 . S
C1695 H1682 0.929 . S
C1695 C1687 1.433 . S
C1695 N1697 1.384 . S
N1696 C1692 1.427 . S
N1696 C1693 1.384 . S
N1697 C1689 1.427 . S
N1697 C1695 1.384 . S
H1698 C1704 0.930 . S
H1699 C1708 0.930 . S
H1700 C1713 0.929 . S
H1701 C1711 0.929 . S
H1702 C1706 0.929 . S
H1703 C1712 0.929 . S
C1704 H1698 0.930 . S
C1704 C1705 1.367 . S
C1704 C1712 1.378 . S
C1705 C1704 1.367 . S
C1705 C1713 1.433 . S
C1706 H1702 0.929 . S
C1706 C1708 1.378 . S
C1706 C1710 1.350 . S
C1707 C1710 1.463 . S
C1707 C1712 1.350 . S
C1707 N1715 1.427 . S
C1708 H1699 0.930 . S
C1708 C1706 1.378 . S
C1708 C1709 1.367 . S
C1709 C1708 1.367 . S
C1709 C1711 1.433 . S
C1710 C1706 1.350 . S
C1710 C1707 1.463 . S
C1710 N1714 1.427 . S
C1711 H1701 0.929 . S
C1711 C1709 1.433 . S
C1711 N1714 1.384 . S
C1712 H1703 0.929 . S
C1712 C1704 1.378 . S
C1712 C1707 1.350 . S
C1713 H1700 0.929 . S
C1713 C1705 1.433 . S
C1713 N1715 1.384 . S
N1714 C1710 1.427 . S
N1714 C1711 1.384 . S
N1715 C1707 1.427 . S
N1715 C1713 1.384 . S
H1716 C1722 0.930 . S
H1717 C1726 0.930 . S
H1718 C1731 0.929 . S
H1719 C1729 0.929 . S
H1720 C1724 0.929 . S
H1721 C1730 0.929 . S
C1722 H1716 0.930 . S
C1722 C1723 1.367 1_554 S
C1722 C1730 1.378 . S
C1723 C1722 1.367 1_556 S
C1723 C1731 1.433 . S
C1724 H1720 0.929 . S
C1724 C1726 1.378 . S
C1724 C1728 1.350 . S
C1725 C1728 1.463 . S
C1725 C1730 1.350 1_556 S
C1725 N1733 1.427 . S
C1726 H1717 0.930 . S
C1726 C1724 1.378 . S
C1726 C1727 1.367 1_556 S
C1727 C1726 1.367 1_554 S
C1727 C1729 1.433 . S
C1728 C1724 1.350 . S
C1728 C1725 1.463 . S
C1728 N1732 1.427 1_556 S
C1729 H1719 0.929 . S
C1729 C1727 1.433 . S
C1729 N1732 1.384 . S
C1730 H1721 0.929 . S
C1730 C1722 1.378 . S
C1730 C1725 1.350 1_554 S
C1731 H1718 0.929 . S
C1731 C1723 1.433 . S
C1731 N1733 1.384 . S
N1732 C1728 1.427 1_554 S
N1732 C1729 1.384 . S
N1733 C1725 1.427 . S
N1733 C1731 1.384 . S
H1734 C1740 0.930 . S
H1735 C1744 0.930 . S
H1736 C1749 0.929 . S
H1737 C1747 0.929 . S
H1738 C1742 0.929 . S
H1739 C1748 0.929 . S
C1740 H1734 0.930 . S
C1740 C1741 1.367 . S
C1740 C1748 1.378 . S
C1741 C1740 1.367 . S
C1741 C1749 1.433 . S
C1742 H1738 0.929 . S
C1742 C1744 1.378 . S
C1742 C1746 1.350 . S
C1743 C1746 1.463 . S
C1743 C1748 1.350 . S
C1743 N1751 1.427 . S
C1744 H1735 0.930 . S
C1744 C1742 1.378 . S
C1744 C1745 1.367 . S
C1745 C1744 1.367 . S
C1745 C1747 1.433 . S
C1746 C1742 1.350 . S
C1746 C1743 1.463 . S
C1746 N1750 1.427 . S
C1747 H1737 0.929 . S
C1747 C1745 1.433 . S
C1747 N1750 1.384 . S
C1748 H1739 0.929 . S
C1748 C1740 1.378 . S
C1748 C1743 1.350 . S
C1749 H1736 0.929 . S
C1749 C1741 1.433 . S
C1749 N1751 1.384 . S
N1750 C1746 1.427 . S
N1750 C1747 1.384 . S
N1751 C1743 1.427 . S
N1751 C1749 1.384 . S
H1752 C1758 0.930 . S
H1753 C1762 0.930 . S
H1754 C1767 0.929 . S
H1755 C1765 0.929 . S
H1756 C1760 0.929 . S
H1757 C1766 0.929 . S
C1758 H1752 0.930 . S
C1758 C1759 1.367 . S
C1758 C1766 1.378 . S
C1759 C1758 1.367 . S
C1759 C1767 1.433 . S
C1760 H1756 0.929 . S
C1760 C1762 1.378 . S
C1760 C1764 1.350 . S
C1761 C1764 1.463 . S
C1761 C1766 1.350 . S
C1761 N1769 1.427 . S
C1762 H1753 0.930 . S
C1762 C1760 1.378 . S
C1762 C1763 1.367 . S
C1763 C1762 1.367 . S
C1763 C1765 1.433 . S
C1764 C1760 1.350 . S
C1764 C1761 1.463 . S
C1764 N1768 1.427 . S
C1765 H1755 0.929 . S
C1765 C1763 1.433 . S
C1765 N1768 1.384 . S
C1766 H1757 0.929 . S
C1766 C1758 1.378 . S
C1766 C1761 1.350 . S
C1767 H1754 0.929 . S
C1767 C1759 1.433 . S
C1767 N1769 1.384 . S
N1768 C1764 1.427 . S
N1768 C1765 1.384 . S
N1769 C1761 1.427 . S
N1769 C1767 1.384 . S
H1770 C1776 0.930 . S
H1771 C1780 0.930 . S
H1772 C1785 0.929 . S
H1773 C1783 0.929 . S
H1774 C1778 0.929 . S
H1775 C1784 0.929 . S
C1776 H1770 0.930 . S
C1776 C1777 1.367 . S
C1776 C1784 1.378 . S
C1777 C1776 1.367 . S
C1777 C1785 1.433 . S
C1778 H1774 0.929 . S
C1778 C1780 1.378 . S
C1778 C1782 1.350 . S
C1779 C1782 1.463 . S
C1779 C1784 1.350 . S
C1779 N1787 1.427 . S
C1780 H1771 0.930 . S
C1780 C1778 1.378 . S
C1780 C1781 1.367 . S
C1781 C1780 1.367 . S
C1781 C1783 1.433 . S
C1782 C1778 1.350 . S
C1782 C1779 1.463 . S
C1782 N1786 1.427 . S
C1783 H1773 0.929 . S
C1783 C1781 1.433 . S
C1783 N1786 1.384 . S
C1784 H1775 0.929 . S
C1784 C1776 1.378 . S
C1784 C1779 1.350 . S
C1785 H1772 0.929 . S
C1785 C1777 1.433 . S
C1785 N1787 1.384 . S
N1786 C1782 1.427 . S
N1786 C1783 1.384 . S
N1787 C1779 1.427 . S
N1787 C1785 1.384 . S
H1788 C1794 0.930 . S
H1789 C1798 0.930 . S
H1790 C1803 0.929 . S
H1791 C1801 0.929 . S
H1792 C1796 0.929 . S
H1793 C1802 0.929 . S
C1794 H1788 0.930 . S
C1794 C1795 1.367 . S
C1794 C1802 1.378 . S
C1795 C1794 1.367 . S
C1795 C1803 1.433 . S
C1796 H1792 0.929 . S
C1796 C1798 1.378 . S
C1796 C1800 1.350 . S
C1797 C1800 1.463 . S
C1797 C1802 1.350 . S
C1797 N1805 1.427 . S
C1798 H1789 0.930 . S
C1798 C1796 1.378 . S
C1798 C1799 1.367 . S
C1799 C1798 1.367 . S
C1799 C1801 1.433 . S
C1800 C1796 1.350 . S
C1800 C1797 1.463 . S
C1800 N1804 1.427 . S
C1801 H1791 0.929 . S
C1801 C1799 1.433 . S
C1801 N1804 1.384 . S
C1802 H1793 0.929 . S
C1802 C1794 1.378 . S
C1802 C1797 1.350 . S
C1803 H1790 0.929 . S
C1803 C1795 1.433 . S
C1803 N1805 1.384 . S
N1804 C1800 1.427 . S
N1804 C1801 1.384 . S
N1805 C1797 1.427 . S
N1805 C1803 1.384 . S
H1806 C1812 0.930 . S
H1807 C1816 0.930 . S
H1808 C1821 0.929 . S
H1809 C1819 0.929 . S
H1810 C1814 0.929 . S
H1811 C1820 0.929 . S
C1812 H1806 0.930 . S
C1812 C1813 1.367 . S
C1812 C1820 1.378 . S
C1813 C1812 1.367 . S
C1813 C1821 1.433 . S
C1814 H1810 0.929 . S
C1814 C1816 1.378 . S
C1814 C1818 1.350 . S
C1815 C1818 1.463 . S
C1815 C1820 1.350 . S
C1815 N1823 1.427 . S
C1816 H1807 0.930 . S
C1816 C1814 1.378 . S
C1816 C1817 1.367 . S
C1817 C1816 1.367 . S
C1817 C1819 1.433 . S
C1818 C1814 1.350 . S
C1818 C1815 1.463 . S
C1818 N1822 1.427 . S
C1819 H1809 0.929 . S
C1819 C1817 1.433 . S
C1819 N1822 1.384 . S
C1820 H1811 0.929 . S
C1820 C1812 1.378 . S
C1820 C1815 1.350 . S
C1821 H1808 0.929 . S
C1821 C1813 1.433 . S
C1821 N1823 1.384 . S
N1822 C1818 1.427 . S
N1822 C1819 1.384 . S
N1823 C1815 1.427 . S
N1823 C1821 1.384 . S
H1824 C1830 0.930 . S
H1825 C1834 0.930 . S
H1826 C1839 0.929 . S
H1827 C1837 0.929 . S
H1828 C1832 0.929 . S
H1829 C1838 0.929 . S
C1830 H1824 0.930 . S
C1830 C1831 1.367 . S
C1830 C1838 1.378 . S
C1831 C1830 1.367 . S
C1831 C1839 1.433 . S
C1832 H1828 0.929 . S
C1832 C1834 1.378 . S
C1832 C1836 1.350 . S
C1833 C1836 1.463 . S
C1833 C1838 1.350 . S
C1833 N1841 1.427 . S
C1834 H1825 0.930 . S
C1834 C1832 1.378 . S
C1834 C1835 1.367 . S
C1835 C1834 1.367 . S
C1835 C1837 1.433 . S
C1836 C1832 1.350 . S
C1836 C1833 1.463 . S
C1836 N1840 1.427 . S
C1837 H1827 0.929 . S
C1837 C1835 1.433 . S
C1837 N1840 1.384 . S
C1838 H1829 0.929 . S
C1838 C1830 1.378 . S
C1838 C1833 1.350 . S
C1839 H1826 0.929 . S
C1839 C1831 1.433 . S
C1839 N1841 1.384 . S
N1840 C1836 1.427 . S
N1840 C1837 1.384 . S
N1841 C1833 1.427 . S
N1841 C1839 1.384 . S
H1842 C1848 0.930 . S
H1843 C1852 0.930 . S
H1844 C1857 0.929 1_565 S
H1845 C1855 0.929 . S
H1846 C1850 0.929 . S
H1847 C1856 0.929 . S
C1848 H1842 0.930 . S
C1848 C1849 1.367 . S
C1848 C1856 1.378 . S
C1849 C1848 1.367 . S
C1849 C1857 1.433 . S
C1850 H1846 0.929 . S
C1850 C1852 1.378 . S
C1850 C1854 1.350 1_565 S
C1851 C1854 1.463 . S
C1851 C1856 1.350 . S
C1851 N1859 1.404 1_545 S
C1852 H1843 0.930 . S
C1852 C1850 1.378 . S
C1852 C1853 1.367 1_565 S
C1853 C1852 1.367 1_545 S
C1853 C1855 1.433 . S
C1854 C1850 1.350 1_545 S
C1854 C1851 1.463 . S
C1854 N1858 1.427 . S
C1855 H1845 0.929 . S
C1855 C1853 1.433 . S
C1855 N1858 1.384 . S
C1856 H1847 0.929 . S
C1856 C1848 1.378 . S
C1856 C1851 1.350 . S
C1857 H1844 0.929 1_545 S
C1857 C1849 1.433 . S
C1857 N1859 1.380 1_545 S
N1858 C1854 1.427 . S
N1858 C1855 1.384 . S
N1859 C1851 1.404 1_565 S
N1859 C1857 1.380 1_565 S
H1860 C1866 0.930 . S
H1861 C1870 0.930 . S
H1862 C1875 0.929 . S
H1863 C1873 0.929 . S
H1864 C1868 0.929 . S
H1865 C1874 0.929 . S
C1866 H1860 0.930 . S
C1866 C1867 1.367 . S
C1866 C1874 1.378 . S
C1867 C1866 1.367 . S
C1867 C1875 1.433 . S
C1868 H1864 0.929 . S
C1868 C1870 1.378 . S
C1868 C1872 1.350 . S
C1869 C1872 1.463 . S
C1869 C1874 1.350 . S
C1869 N1877 1.427 . S
C1870 H1861 0.930 . S
C1870 C1868 1.378 . S
C1870 C1871 1.367 . S
C1871 C1870 1.367 . S
C1871 C1873 1.433 . S
C1872 C1868 1.350 . S
C1872 C1869 1.463 . S
C1872 N1876 1.427 . S
C1873 H1863 0.929 . S
C1873 C1871 1.433 . S
C1873 N1876 1.384 . S
C1874 H1865 0.929 . S
C1874 C1866 1.378 . S
C1874 C1869 1.350 . S
C1875 H1862 0.929 . S
C1875 C1867 1.433 . S
C1875 N1877 1.384 . S
N1876 C1872 1.427 . S
N1876 C1873 1.384 . S
N1877 C1869 1.427 . S
N1877 C1875 1.384 . S
H1878 C1884 0.930 . S
H1879 C1888 0.930 . S
H1880 C1893 0.929 . S
H1881 C1891 0.929 . S
H1882 C1886 0.929 . S
H1883 C1892 0.929 . S
C1884 H1878 0.930 . S
C1884 C1885 1.367 . S
C1884 C1892 1.378 . S
C1885 C1884 1.367 . S
C1885 C1893 1.433 . S
C1886 H1882 0.929 . S
C1886 C1888 1.378 . S
C1886 C1890 1.350 . S
C1887 C1890 1.463 . S
C1887 C1892 1.350 . S
C1887 N1895 1.427 . S
C1888 H1879 0.930 . S
C1888 C1886 1.378 . S
C1888 C1889 1.367 . S
C1889 C1888 1.367 . S
C1889 C1891 1.433 . S
C1890 C1886 1.350 . S
C1890 C1887 1.463 . S
C1890 N1894 1.427 . S
C1891 H1881 0.929 . S
C1891 C1889 1.433 . S
C1891 N1894 1.384 . S
C1892 H1883 0.929 . S
C1892 C1884 1.378 . S
C1892 C1887 1.350 . S
C1893 H1880 0.929 . S
C1893 C1885 1.433 . S
C1893 N1895 1.384 . S
N1894 C1890 1.427 . S
N1894 C1891 1.384 . S
N1895 C1887 1.427 . S
N1895 C1893 1.384 . S
H1896 C1902 0.930 . S
H1897 C1906 0.930 . S
H1898 C1911 0.929 . S
H1899 C1909 0.929 . S
H1900 C1904 0.929 . S
H1901 C1910 0.929 . S
C1902 H1896 0.930 . S
C1902 C1903 1.367 . S
C1902 C1910 1.378 . S
C1903 C1902 1.367 . S
C1903 C1911 1.433 . S
C1904 H1900 0.929 . S
C1904 C1906 1.378 . S
C1904 C1908 1.350 . S
C1905 C1908 1.463 . S
C1905 C1910 1.350 . S
C1905 N1913 1.427 . S
C1906 H1897 0.930 . S
C1906 C1904 1.378 . S
C1906 C1907 1.367 . S
C1907 C1906 1.367 . S
C1907 C1909 1.433 . S
C1908 C1904 1.350 . S
C1908 C1905 1.463 . S
C1908 N1912 1.427 . S
C1909 H1899 0.929 . S
C1909 C1907 1.433 . S
C1909 N1912 1.384 . S
C1910 H1901 0.929 . S
C1910 C1902 1.378 . S
C1910 C1905 1.350 . S
C1911 H1898 0.929 . S
C1911 C1903 1.433 . S
C1911 N1913 1.384 . S
N1912 C1908 1.427 . S
N1912 C1909 1.384 . S
N1913 C1905 1.427 . S
N1913 C1911 1.384 . S
H1914 C1920 0.930 . S
H1915 C1924 0.930 . S
H1916 C1929 0.929 1_565 S
H1917 C1927 0.929 . S
H1918 C1922 0.929 . S
H1919 C1928 0.929 . S
C1920 H1914 0.930 . S
C1920 C1921 1.367 . S
C1920 C1928 1.378 . S
C1921 C1920 1.367 . S
C1921 C1929 1.433 . S
C1922 H1918 0.929 . S
C1922 C1924 1.378 . S
C1922 C1926 1.350 1_565 S
C1923 C1926 1.463 . S
C1923 C1928 1.350 . S
C1923 N1931 1.423 1_545 S
C1924 H1915 0.930 . S
C1924 C1922 1.378 . S
C1924 C1925 1.367 1_565 S
C1925 C1924 1.367 1_545 S
C1925 C1927 1.433 . S
C1926 C1922 1.350 1_545 S
C1926 C1923 1.463 . S
C1926 N1930 1.427 . S
C1927 H1917 0.929 . S
C1927 C1925 1.433 . S
C1927 N1930 1.384 . S
C1928 H1919 0.929 . S
C1928 C1920 1.378 . S
C1928 C1923 1.350 . S
C1929 H1916 0.929 1_545 S
C1929 C1921 1.433 . S
C1929 N1931 1.383 1_545 S
N1930 C1926 1.427 . S
N1930 C1927 1.384 . S
N1931 C1923 1.423 1_565 S
N1931 C1929 1.383 1_565 S
H1932 C1938 0.930 . S
H1933 C1942 0.930 . S
H1934 C1947 0.929 . S
H1935 C1945 0.929 . S
H1936 C1940 0.929 . S
H1937 C1946 0.929 . S
C1938 H1932 0.930 . S
C1938 C1939 1.367 . S
C1938 C1946 1.378 . S
C1939 C1938 1.367 . S
C1939 C1947 1.433 . S
C1940 H1936 0.929 . S
C1940 C1942 1.378 . S
C1940 C1944 1.350 . S
C1941 C1944 1.463 . S
C1941 C1946 1.350 . S
C1941 N1949 1.427 . S
C1942 H1933 0.930 . S
C1942 C1940 1.378 . S
C1942 C1943 1.367 . S
C1943 C1942 1.367 . S
C1943 C1945 1.433 . S
C1944 C1940 1.350 . S
C1944 C1941 1.463 . S
C1944 N1948 1.427 . S
C1945 H1935 0.929 . S
C1945 C1943 1.433 . S
C1945 N1948 1.384 . S
C1946 H1937 0.929 . S
C1946 C1938 1.378 . S
C1946 C1941 1.350 . S
C1947 H1934 0.929 . S
C1947 C1939 1.433 . S
C1947 N1949 1.384 . S
N1948 C1944 1.427 . S
N1948 C1945 1.384 . S
N1949 C1941 1.427 . S
N1949 C1947 1.384 . S
H1950 C1956 0.930 . S
H1951 C1960 0.930 . S
H1952 C1965 0.929 . S
H1953 C1963 0.929 . S
H1954 C1958 0.929 . S
H1955 C1964 0.929 . S
C1956 H1950 0.930 . S
C1956 C1957 1.367 . S
C1956 C1964 1.378 . S
C1957 C1956 1.367 . S
C1957 C1965 1.433 . S
C1958 H1954 0.929 . S
C1958 C1960 1.378 . S
C1958 C1962 1.350 . S
C1959 C1962 1.463 . S
C1959 C1964 1.350 . S
C1959 N1967 1.427 . S
C1960 H1951 0.930 . S
C1960 C1958 1.378 . S
C1960 C1961 1.367 . S
C1961 C1960 1.367 . S
C1961 C1963 1.433 . S
C1962 C1958 1.350 . S
C1962 C1959 1.463 . S
C1962 N1966 1.427 . S
C1963 H1953 0.929 . S
C1963 C1961 1.433 . S
C1963 N1966 1.384 . S
C1964 H1955 0.929 . S
C1964 C1956 1.378 . S
C1964 C1959 1.350 . S
C1965 H1952 0.929 . S
C1965 C1957 1.433 . S
C1965 N1967 1.384 . S
N1966 C1962 1.427 . S
N1966 C1963 1.384 . S
N1967 C1959 1.427 . S
N1967 C1965 1.384 . S
H1968 C1974 0.930 . S
H1969 C1978 0.930 . S
H1970 C1983 0.929 . S
H1971 C1981 0.929 . S
H1972 C1976 0.929 . S
H1973 C1982 0.929 . S
C1974 H1968 0.930 . S
C1974 C1975 1.367 . S
C1974 C1982 1.378 . S
C1975 C1974 1.367 . S
C1975 C1983 1.433 . S
C1976 H1972 0.929 . S
C1976 C1978 1.378 . S
C1976 C1980 1.350 . S
C1977 C1980 1.463 . S
C1977 C1982 1.350 . S
C1977 N1985 1.427 . S
C1978 H1969 0.930 . S
C1978 C1976 1.378 . S
C1978 C1979 1.367 . S
C1979 C1978 1.367 . S
C1979 C1981 1.433 . S
C1980 C1976 1.350 . S
C1980 C1977 1.463 . S
C1980 N1984 1.427 . S
C1981 H1971 0.929 . S
C1981 C1979 1.433 . S
C1981 N1984 1.384 . S
C1982 H1973 0.929 . S
C1982 C1974 1.378 . S
C1982 C1977 1.350 . S
C1983 H1970 0.929 . S
C1983 C1975 1.433 . S
C1983 N1985 1.384 . S
N1984 C1980 1.427 . S
N1984 C1981 1.384 . S
N1985 C1977 1.427 . S
N1985 C1983 1.384 . S
H1986 C1992 0.930 . S
H1987 C1996 0.930 . S
H1988 C2001 0.929 1_455 S
H1989 C1999 0.929 . S
H1990 C1994 0.929 . S
H1991 C2000 0.929 . S
C1992 H1986 0.930 . S
C1992 C1993 1.367 . S
C1992 C2000 1.378 . S
C1993 C1992 1.367 . S
C1993 C2001 1.433 . S
C1994 H1990 0.929 . S
C1994 C1996 1.378 . S
C1994 C1998 1.350 1_455 S
C1995 C1998 1.463 . S
C1995 C2000 1.350 . S
C1995 N2003 1.399 1_655 S
C1996 H1987 0.930 . S
C1996 C1994 1.378 . S
C1996 C1997 1.367 1_455 S
C1997 C1996 1.367 1_655 S
C1997 C1999 1.433 . S
C1998 C1994 1.350 1_655 S
C1998 C1995 1.463 . S
C1998 N2002 1.427 . S
C1999 H1989 0.929 . S
C1999 C1997 1.433 . S
C1999 N2002 1.384 . S
C2000 H1991 0.929 . S
C2000 C1992 1.378 . S
C2000 C1995 1.350 . S
C2001 H1988 0.929 1_655 S
C2001 C1993 1.433 . S
C2001 N2003 1.376 1_655 S
N2002 C1998 1.427 . S
N2002 C1999 1.384 . S
N2003 C1995 1.399 1_455 S
N2003 C2001 1.376 1_455 S
H2004 C2010 0.930 . S
H2005 C2014 0.930 . S
H2006 C2019 0.929 . S
H2007 C2017 0.929 . S
H2008 C2012 0.929 . S
H2009 C2018 0.929 . S
C2010 H2004 0.930 . S
C2010 C2011 1.367 . S
C2010 C2018 1.378 . S
C2011 C2010 1.367 . S
C2011 C2019 1.433 . S
C2012 H2008 0.929 . S
C2012 C2014 1.378 . S
C2012 C2016 1.350 . S
C2013 C2016 1.463 . S
C2013 C2018 1.350 . S
C2013 N2021 1.427 . S
C2014 H2005 0.930 . S
C2014 C2012 1.378 . S
C2014 C2015 1.367 . S
C2015 C2014 1.367 . S
C2015 C2017 1.433 . S
C2016 C2012 1.350 . S
C2016 C2013 1.463 . S
C2016 N2020 1.427 . S
C2017 H2007 0.929 . S
C2017 C2015 1.433 . S
C2017 N2020 1.384 . S
C2018 H2009 0.929 . S
C2018 C2010 1.378 . S
C2018 C2013 1.350 . S
C2019 H2006 0.929 . S
C2019 C2011 1.433 . S
C2019 N2021 1.384 . S
N2020 C2016 1.427 . S
N2020 C2017 1.384 . S
N2021 C2013 1.427 . S
N2021 C2019 1.384 . S
H2022 C2028 0.930 . S
H2023 C2032 0.930 . S
H2024 C2037 0.929 . S
H2025 C2035 0.929 . S
H2026 C2030 0.929 . S
H2027 C2036 0.929 . S
C2028 H2022 0.930 . S
C2028 C2029 1.367 . S
C2028 C2036 1.378 . S
C2029 C2028 1.367 . S
C2029 C2037 1.433 . S
C2030 H2026 0.929 . S
C2030 C2032 1.378 . S
C2030 C2034 1.350 . S
C2031 C2034 1.463 . S
C2031 C2036 1.350 . S
C2031 N2039 1.427 . S
C2032 H2023 0.930 . S
C2032 C2030 1.378 . S
C2032 C2033 1.367 . S
C2033 C2032 1.367 . S
C2033 C2035 1.433 . S
C2034 C2030 1.350 . S
C2034 C2031 1.463 . S
C2034 N2038 1.427 . S
C2035 H2025 0.929 . S
C2035 C2033 1.433 . S
C2035 N2038 1.384 . S
C2036 H2027 0.929 . S
C2036 C2028 1.378 . S
C2036 C2031 1.350 . S
C2037 H2024 0.929 . S
C2037 C2029 1.433 . S
C2037 N2039 1.384 . S
N2038 C2034 1.427 . S
N2038 C2035 1.384 . S
N2039 C2031 1.427 . S
N2039 C2037 1.384 . S
H2040 C2046 0.930 . S
H2041 C2050 0.930 . S
H2042 C2055 0.929 . S
H2043 C2053 0.929 . S
H2044 C2048 0.929 . S
H2045 C2054 0.929 . S
C2046 H2040 0.930 . S
C2046 C2047 1.367 . S
C2046 C2054 1.378 . S
C2047 C2046 1.367 . S
C2047 C2055 1.433 . S
C2048 H2044 0.929 . S
C2048 C2050 1.378 . S
C2048 C2052 1.350 . S
C2049 C2052 1.463 . S
C2049 C2054 1.350 . S
C2049 N2057 1.427 . S
C2050 H2041 0.930 . S
C2050 C2048 1.378 . S
C2050 C2051 1.367 . S
C2051 C2050 1.367 . S
C2051 C2053 1.433 . S
C2052 C2048 1.350 . S
C2052 C2049 1.463 . S
C2052 N2056 1.427 . S
C2053 H2043 0.929 . S
C2053 C2051 1.433 . S
C2053 N2056 1.384 . S
C2054 H2045 0.929 . S
C2054 C2046 1.378 . S
C2054 C2049 1.350 . S
C2055 H2042 0.929 . S
C2055 C2047 1.433 . S
C2055 N2057 1.384 . S
N2056 C2052 1.427 . S
N2056 C2053 1.384 . S
N2057 C2049 1.427 . S
N2057 C2055 1.384 . S
H2058 C2064 0.930 . S
H2059 C2068 0.930 . S
H2060 C2073 0.929 . S
H2061 C2071 0.929 . S
H2062 C2066 0.929 . S
H2063 C2072 0.929 . S
C2064 H2058 0.930 . S
C2064 C2065 1.367 . S
C2064 C2072 1.378 . S
C2065 C2064 1.367 . S
C2065 C2073 1.433 . S
C2066 H2062 0.929 . S
C2066 C2068 1.378 . S
C2066 C2070 1.350 . S
C2067 C2070 1.463 . S
C2067 C2072 1.350 . S
C2067 N2075 1.427 . S
C2068 H2059 0.930 . S
C2068 C2066 1.378 . S
C2068 C2069 1.367 . S
C2069 C2068 1.367 . S
C2069 C2071 1.433 . S
C2070 C2066 1.350 . S
C2070 C2067 1.463 . S
C2070 N2074 1.427 . S
C2071 H2061 0.929 . S
C2071 C2069 1.433 . S
C2071 N2074 1.384 . S
C2072 H2063 0.929 . S
C2072 C2064 1.378 . S
C2072 C2067 1.350 . S
C2073 H2060 0.929 . S
C2073 C2065 1.433 . S
C2073 N2075 1.384 . S
N2074 C2070 1.427 . S
N2074 C2071 1.384 . S
N2075 C2067 1.427 . S
N2075 C2073 1.384 . S
H2076 C2082 0.930 . S
H2077 C2086 0.930 . S
H2078 C2091 0.929 . S
H2079 C2089 0.929 . S
H2080 C2084 0.929 . S
H2081 C2090 0.929 . S
C2082 H2076 0.930 . S
C2082 C2083 1.367 . S
C2082 C2090 1.378 . S
C2083 C2082 1.367 . S
C2083 C2091 1.433 . S
C2084 H2080 0.929 . S
C2084 C2086 1.378 . S
C2084 C2088 1.350 . S
C2085 C2088 1.463 . S
C2085 C2090 1.350 . S
C2085 N2093 1.427 . S
C2086 H2077 0.930 . S
C2086 C2084 1.378 . S
C2086 C2087 1.367 . S
C2087 C2086 1.367 . S
C2087 C2089 1.433 . S
C2088 C2084 1.350 . S
C2088 C2085 1.463 . S
C2088 N2092 1.427 . S
C2089 H2079 0.929 . S
C2089 C2087 1.433 . S
C2089 N2092 1.384 . S
C2090 H2081 0.929 . S
C2090 C2082 1.378 . S
C2090 C2085 1.350 . S
C2091 H2078 0.929 . S
C2091 C2083 1.433 . S
C2091 N2093 1.384 . S
N2092 C2088 1.427 . S
N2092 C2089 1.384 . S
N2093 C2085 1.427 . S
N2093 C2091 1.384 . S
H2094 C2100 0.930 . S
H2095 C2104 0.930 . S
H2096 C2109 0.929 . S
H2097 C2107 0.929 . S
H2098 C2102 0.929 . S
H2099 C2108 0.929 . S
C2100 H2094 0.930 . S
C2100 C2101 1.367 . S
C2100 C2108 1.378 . S
C2101 C2100 1.367 . S
C2101 C2109 1.433 . S
C2102 H2098 0.929 . S
C2102 C2104 1.378 . S
C2102 C2106 1.350 . S
C2103 C2106 1.463 . S
C2103 C2108 1.350 . S
C2103 N2111 1.427 . S
C2104 H2095 0.930 . S
C2104 C2102 1.378 . S
C2104 C2105 1.367 . S
C2105 C2104 1.367 . S
C2105 C2107 1.433 . S
C2106 C2102 1.350 . S
C2106 C2103 1.463 . S
C2106 N2110 1.427 . S
C2107 H2097 0.929 . S
C2107 C2105 1.433 . S
C2107 N2110 1.384 . S
C2108 H2099 0.929 . S
C2108 C2100 1.378 . S
C2108 C2103 1.350 . S
C2109 H2096 0.929 . S
C2109 C2101 1.433 . S
C2109 N2111 1.384 . S
N2110 C2106 1.427 . S
N2110 C2107 1.384 . S
N2111 C2103 1.427 . S
N2111 C2109 1.384 . S
H2112 C2118 0.930 . S
H2113 C2122 0.930 . S
H2114 C2127 0.929 . S
H2115 C2125 0.929 . S
H2116 C2120 0.929 . S
H2117 C2126 0.929 . S
C2118 H2112 0.930 . S
C2118 C2119 1.367 . S
C2118 C2126 1.378 . S
C2119 C2118 1.367 . S
C2119 C2127 1.433 . S
C2120 H2116 0.929 . S
C2120 C2122 1.378 . S
C2120 C2124 1.350 . S
C2121 C2124 1.463 . S
C2121 C2126 1.350 . S
C2121 N2129 1.427 . S
C2122 H2113 0.930 . S
C2122 C2120 1.378 . S
C2122 C2123 1.367 . S
C2123 C2122 1.367 . S
C2123 C2125 1.433 . S
C2124 C2120 1.350 . S
C2124 C2121 1.463 . S
C2124 N2128 1.427 . S
C2125 H2115 0.929 . S
C2125 C2123 1.433 . S
C2125 N2128 1.384 . S
C2126 H2117 0.929 . S
C2126 C2118 1.378 . S
C2126 C2121 1.350 . S
C2127 H2114 0.929 . S
C2127 C2119 1.433 . S
C2127 N2129 1.384 . S
N2128 C2124 1.427 . S
N2128 C2125 1.384 . S
N2129 C2121 1.427 . S
N2129 C2127 1.384 . S
H2130 C2136 0.930 . S
H2131 C2140 0.930 . S
H2132 C2145 0.929 . S
H2133 C2143 0.929 . S
H2134 C2138 0.929 . S
H2135 C2144 0.929 . S
C2136 H2130 0.930 . S
C2136 C2137 1.367 . S
C2136 C2144 1.378 . S
C2137 C2136 1.367 . S
C2137 C2145 1.433 . S
C2138 H2134 0.929 . S
C2138 C2140 1.378 . S
C2138 C2142 1.350 . S
C2139 C2142 1.463 . S
C2139 C2144 1.350 . S
C2139 N2147 1.427 . S
C2140 H2131 0.930 . S
C2140 C2138 1.378 . S
C2140 C2141 1.367 . S
C2141 C2140 1.367 . S
C2141 C2143 1.433 . S
C2142 C2138 1.350 . S
C2142 C2139 1.463 . S
C2142 N2146 1.427 . S
C2143 H2133 0.929 . S
C2143 C2141 1.433 . S
C2143 N2146 1.384 . S
C2144 H2135 0.929 . S
C2144 C2136 1.378 . S
C2144 C2139 1.350 . S
C2145 H2132 0.929 . S
C2145 C2137 1.433 . S
C2145 N2147 1.384 . S
N2146 C2142 1.427 . S
N2146 C2143 1.384 . S
N2147 C2139 1.427 . S
N2147 C2145 1.384 . S
H2148 C2154 0.930 . S
H2149 C2158 0.930 . S
H2150 C2163 0.929 . S
H2151 C2161 0.929 . S
H2152 C2156 0.929 . S
H2153 C2162 0.929 . S
C2154 H2148 0.930 . S
C2154 C2155 1.367 . S
C2154 C2162 1.378 . S
C2155 C2154 1.367 . S
C2155 C2163 1.433 . S
C2156 H2152 0.929 . S
C2156 C2158 1.378 . S
C2156 C2160 1.350 . S
C2157 C2160 1.463 . S
C2157 C2162 1.350 . S
C2157 N2165 1.427 . S
C2158 H2149 0.930 . S
C2158 C2156 1.378 . S
C2158 C2159 1.367 . S
C2159 C2158 1.367 . S
C2159 C2161 1.433 . S
C2160 C2156 1.350 . S
C2160 C2157 1.463 . S
C2160 N2164 1.427 . S
C2161 H2151 0.929 . S
C2161 C2159 1.433 . S
C2161 N2164 1.384 . S
C2162 H2153 0.929 . S
C2162 C2154 1.378 . S
C2162 C2157 1.350 . S
C2163 H2150 0.929 . S
C2163 C2155 1.433 . S
C2163 N2165 1.384 . S
N2164 C2160 1.427 . S
N2164 C2161 1.384 . S
N2165 C2157 1.427 . S
N2165 C2163 1.384 . S
H2166 C2172 0.930 . S
H2167 C2176 0.930 . S
H2168 C2181 0.929 . S
H2169 C2179 0.929 . S
H2170 C2174 0.929 . S
H2171 C2180 0.929 . S
C2172 H2166 0.930 . S
C2172 C2173 1.367 . S
C2172 C2180 1.378 . S
C2173 C2172 1.367 . S
C2173 C2181 1.433 . S
C2174 H2170 0.929 . S
C2174 C2176 1.378 . S
C2174 C2178 1.350 . S
C2175 C2178 1.463 . S
C2175 C2180 1.350 . S
C2175 N2183 1.427 . S
C2176 H2167 0.930 . S
C2176 C2174 1.378 . S
C2176 C2177 1.367 . S
C2177 C2176 1.367 . S
C2177 C2179 1.433 . S
C2178 C2174 1.350 . S
C2178 C2175 1.463 . S
C2178 N2182 1.427 . S
C2179 H2169 0.929 . S
C2179 C2177 1.433 . S
C2179 N2182 1.384 . S
C2180 H2171 0.929 . S
C2180 C2172 1.378 . S
C2180 C2175 1.350 . S
C2181 H2168 0.929 . S
C2181 C2173 1.433 . S
C2181 N2183 1.384 . S
N2182 C2178 1.427 . S
N2182 C2179 1.384 . S
N2183 C2175 1.427 . S
N2183 C2181 1.384 . S
H2184 C2190 0.931 1_554 S
H2185 C2194 0.930 . S
H2186 C2199 0.929 . S
H2187 C2197 0.929 . S
H2188 C2192 0.929 . S
H2189 C2198 0.929 . S
C2190 H2184 0.931 1_556 S
C2190 C2191 1.366 . S
C2190 C2198 1.378 1_556 S
C2191 C2190 1.366 . S
C2191 C2199 1.433 . S
C2192 H2188 0.929 . S
C2192 C2194 1.378 . S
C2192 C2196 1.350 . S
C2193 C2196 1.463 . S
C2193 C2198 1.350 1_556 S
C2193 N2201 1.427 . S
C2194 H2185 0.930 . S
C2194 C2192 1.378 . S
C2194 C2195 1.367 . S
C2195 C2194 1.367 . S
C2195 C2197 1.433 1_556 S
C2196 C2192 1.350 . S
C2196 C2193 1.463 . S
C2196 N2200 1.427 1_556 S
C2197 H2187 0.929 . S
C2197 C2195 1.433 1_554 S
C2197 N2200 1.384 . S
C2198 H2189 0.929 . S
C2198 C2190 1.378 1_554 S
C2198 C2193 1.350 1_554 S
C2199 H2186 0.929 . S
C2199 C2191 1.433 . S
C2199 N2201 1.384 . S
N2200 C2196 1.427 1_554 S
N2200 C2197 1.384 . S
N2201 C2193 1.427 . S
N2201 C2199 1.384 . S
H2202 C2208 0.930 . S
H2203 C2212 0.930 . S
H2204 C2217 0.929 . S
H2205 C2215 0.929 . S
H2206 C2210 0.929 . S
H2207 C2216 0.929 . S
C2208 H2202 0.930 . S
C2208 C2209 1.367 . S
C2208 C2216 1.378 . S
C2209 C2208 1.367 . S
C2209 C2217 1.433 . S
C2210 H2206 0.929 . S
C2210 C2212 1.378 . S
C2210 C2214 1.350 . S
C2211 C2214 1.463 . S
C2211 C2216 1.350 . S
C2211 N2219 1.427 . S
C2212 H2203 0.930 . S
C2212 C2210 1.378 . S
C2212 C2213 1.367 . S
C2213 C2212 1.367 . S
C2213 C2215 1.433 . S
C2214 C2210 1.350 . S
C2214 C2211 1.463 . S
C2214 N2218 1.427 . S
C2215 H2205 0.929 . S
C2215 C2213 1.433 . S
C2215 N2218 1.384 . S
C2216 H2207 0.929 . S
C2216 C2208 1.378 . S
C2216 C2211 1.350 . S
C2217 H2204 0.929 . S
C2217 C2209 1.433 . S
C2217 N2219 1.384 . S
N2218 C2214 1.427 . S
N2218 C2215 1.384 . S
N2219 C2211 1.427 . S
N2219 C2217 1.384 . S
H2220 C2226 0.930 . S
H2221 C2230 0.930 . S
H2222 C2235 0.929 . S
H2223 C2233 0.929 . S
H2224 C2228 0.929 . S
H2225 C2234 0.929 . S
C2226 H2220 0.930 . S
C2226 C2227 1.367 . S
C2226 C2234 1.378 . S
C2227 C2226 1.367 . S
C2227 C2235 1.433 . S
C2228 H2224 0.929 . S
C2228 C2230 1.378 . S
C2228 C2232 1.350 . S
C2229 C2232 1.463 . S
C2229 C2234 1.350 . S
C2229 N2237 1.427 . S
C2230 H2221 0.930 . S
C2230 C2228 1.378 . S
C2230 C2231 1.367 . S
C2231 C2230 1.367 . S
C2231 C2233 1.433 . S
C2232 C2228 1.350 . S
C2232 C2229 1.463 . S
C2232 N2236 1.427 . S
C2233 H2223 0.929 . S
C2233 C2231 1.433 . S
C2233 N2236 1.384 . S
C2234 H2225 0.929 . S
C2234 C2226 1.378 . S
C2234 C2229 1.350 . S
C2235 H2222 0.929 . S
C2235 C2227 1.433 . S
C2235 N2237 1.384 . S
N2236 C2232 1.427 . S
N2236 C2233 1.384 . S
N2237 C2229 1.427 . S
N2237 C2235 1.384 . S
H2238 C2244 0.930 . S
H2239 C2248 0.930 1_556 S
H2240 C2253 0.929 . S
H2241 C2251 0.929 . S
H2242 C2246 0.931 . S
H2243 C2252 0.929 . S
C2244 H2238 0.930 . S
C2244 C2245 1.367 . S
C2244 C2252 1.378 . S
C2245 C2244 1.367 . S
C2245 C2253 1.433 . S
C2246 H2242 0.931 . S
C2246 C2248 1.378 . S
C2246 C2250 1.350 . S
C2247 C2250 1.463 . S
C2247 C2252 1.350 . S
C2247 N2255 1.427 . S
C2248 H2239 0.930 1_554 S
C2248 C2246 1.378 . S
C2248 C2249 1.367 . S
C2249 C2248 1.367 . S
C2249 C2251 1.433 . S
C2250 C2246 1.350 . S
C2250 C2247 1.463 . S
C2250 N2254 1.427 . S
C2251 H2241 0.929 . S
C2251 C2249 1.433 . S
C2251 N2254 1.384 . S
C2252 H2243 0.929 . S
C2252 C2244 1.378 . S
C2252 C2247 1.350 . S
C2253 H2240 0.929 . S
C2253 C2245 1.433 . S
C2253 N2255 1.384 . S
N2254 C2250 1.427 . S
N2254 C2251 1.384 . S
N2255 C2247 1.427 . S
N2255 C2253 1.384 . S
C1403 C962 1.454 . S
C1399 C331 1.422 . S
C1421 C1010 1.634 . S
C1417 C380 1.660 . S
C1435 C421 1.394 . S
C1439 C1046 1.369 . S
C1457 C1082 1.583 . S
C1453 C260 1.593 . S
C1475 C1108 1.471 . S
C1471 C620 1.433 . S
C1493 C1144 1.583 . S
C1489 C740 1.568 . S
C1507 C680 1.482 . S
C1511 C1179 1.505 . S
C1529 C1216 1.604 1_565 S
C1525 C571 1.597 . S
C1543 C691 1.444 . S
C1547 C1250 1.441 . S
C1565 C1298 1.550 . S
C1561 C541 1.591 . S
C1579 C601 1.416 . S
C1583 C1251 1.461 . S
C1601 C1288 1.615 . S
C1597 C721 1.594 . S
C1615 C451 1.439 . S
C1619 C1334 1.403 . S
C1633 C241 1.601 . S
C1637 C1323 1.625 . S
C1651 C320 1.454 . S
C1655 C1324 1.495 . S
C1669 C391 1.637 . S
C1673 C1322 1.651 . S
C1687 C211 1.417 . S
C1691 C1070 1.449 . S
C1705 C841 1.412 . S
C1709 C1071 1.453 . S
C1727 C974 1.598 . S
C1723 C901 1.639 . S
C1745 C999 1.472 . S
C1741 C500 1.435 . S
C1759 C271 1.605 . S
C1763 C1106 1.627 . S
C1781 C1214 1.473 . S
C1777 C661 1.477 . S
C1799 C1107 1.594 . S
C1795 C560 1.583 . S
C1817 C1180 1.619 . S
C1813 C751 1.600 . S
C1835 C1178 1.449 . S
C1831 C871 1.423 . S
C1849 C920 1.660 . S
C1853 C1226 1.635 . S
C1867 C481 1.395 . S
C1871 C1118 1.382 . S
C1889 C1154 1.571 . S
C1885 C800 1.595 . S
C1903 C200 1.431 . S
C1907 C1036 1.470 . S
C1925 C1072 1.583 . S
C1921 C20 1.572 . S
C1943 C963 1.505 . S
C1939 C80 1.480 . S
C1961 C1000 1.610 . S
C1957 C151 1.593 . S
C1975 C91 1.437 . S
C1979 C1286 1.442 . S
C1993 C121 1.593 . S
C1997 C1262 1.563 . S
C2011 C181 1.409 . S
C2015 C1287 1.461 . S
C2029 C1 1.594 . S
C2033 C1252 1.615 . S
C2051 C1370 1.415 . S
C2047 C511 1.427 . S
C2069 C1359 1.627 . S
C2065 C781 1.605 . S
C2087 C1360 1.501 . S
C2083 C860 1.467 . S
C2101 C931 1.632 . S
C2105 C1358 1.650 . S
C2119 C631 1.416 . S
C2123 C1142 1.450 . S
C2141 C1143 1.453 . S
C2137 C301 1.398 . S
C2159 C1190 1.607 . S
C2155 C361 1.635 . S
C2177 C1215 1.473 . S
C2173 C440 1.435 . S
C2191 C811 1.596 . S
C2195 C1034 1.621 1_556 S
C2213 C998 1.472 . S
C2209 C61 1.479 . S
C2227 C140 1.585 . S
C2231 C1035 1.592 . S
C2249 C964 1.616 . S
C2245 C31 1.605 . S
