# Generated by pormake.
# Topology ssb, (4,4)-cn, num edge types: 1
# Building blocks:
#     Node 0, Type 0, BuildingBlock: MIFKUJ_clean_linker_1, # of connection points: 4
#     Node 1, Type 0, BuildingBlock: MIFKUJ_clean_linker_1, # of connection points: 4
#     Node 2, Type 0, BuildingBlock: MIFKUJ_clean_linker_1, # of connection points: 4
#     Node 3, Type 0, BuildingBlock: MIFKUJ_clean_linker_1, # of connection points: 4
#     Node 4, Type 0, BuildingBlock: MIFKUJ_clean_linker_1, # of connection points: 4
#     Node 5, Type 0, BuildingBlock: MIFKUJ_clean_linker_1, # of connection points: 4
#     Node 6, Type 0, BuildingBlock: MIFKUJ_clean_linker_1, # of connection points: 4
#     Node 7, Type 0, BuildingBlock: MIFKUJ_clean_linker_1, # of connection points: 4
#     Node 8, Type 1, BuildingBlock: NAWXER_clean_sbu_0, # of connection points: 4
#     Node 9, Type 1, BuildingBlock: NAWXER_clean_sbu_0, # of connection points: 4
#     Node 10, Type 1, BuildingBlock: NAWXER_clean_sbu_0, # of connection points: 4
#     Node 11, Type 1, BuildingBlock: NAWXER_clean_sbu_0, # of connection points: 4
#     Node 12, Type 1, BuildingBlock: NAWXER_clean_sbu_0, # of connection points: 4
#     Node 13, Type 1, BuildingBlock: NAWXER_clean_sbu_0, # of connection points: 4
#     Node 14, Type 1, BuildingBlock: NAWXER_clean_sbu_0, # of connection points: 4
#     Node 15, Type 1, BuildingBlock: NAWXER_clean_sbu_0, # of connection points: 4
#     Edge 16, Type (0, 1), BuildingBlock: AJUNOK_clean_linker_0, # of connection points: 2
#     Edge 17, Type (0, 1), BuildingBlock: AJUNOK_clean_linker_0, # of connection points: 2
#     Edge 18, Type (0, 1), BuildingBlock: AJUNOK_clean_linker_0, # of connection points: 2
#     Edge 19, Type (0, 1), BuildingBlock: AJUNOK_clean_linker_0, # of connection points: 2
#     Edge 20, Type (0, 1), BuildingBlock: AJUNOK_clean_linker_0, # of connection points: 2
#     Edge 21, Type (0, 1), BuildingBlock: AJUNOK_clean_linker_0, # of connection points: 2
#     Edge 22, Type (0, 1), BuildingBlock: AJUNOK_clean_linker_0, # of connection points: 2
#     Edge 23, Type (0, 1), BuildingBlock: AJUNOK_clean_linker_0, # of connection points: 2
#     Edge 24, Type (0, 1), BuildingBlock: AJUNOK_clean_linker_0, # of connection points: 2
#     Edge 25, Type (0, 1), BuildingBlock: AJUNOK_clean_linker_0, # of connection points: 2
#     Edge 26, Type (0, 1), BuildingBlock: AJUNOK_clean_linker_0, # of connection points: 2
#     Edge 27, Type (0, 1), BuildingBlock: AJUNOK_clean_linker_0, # of connection points: 2
#     Edge 28, Type (0, 1), BuildingBlock: AJUNOK_clean_linker_0, # of connection points: 2
#     Edge 29, Type (0, 1), BuildingBlock: AJUNOK_clean_linker_0, # of connection points: 2
#     Edge 30, Type (0, 1), BuildingBlock: AJUNOK_clean_linker_0, # of connection points: 2
#     Edge 31, Type (0, 1), BuildingBlock: AJUNOK_clean_linker_0, # of connection points: 2
#     Edge 32, Type (0, 1), BuildingBlock: AJUNOK_clean_linker_0, # of connection points: 2
#     Edge 33, Type (0, 1), BuildingBlock: AJUNOK_clean_linker_0, # of connection points: 2
#     Edge 34, Type (0, 1), BuildingBlock: AJUNOK_clean_linker_0, # of connection points: 2
#     Edge 35, Type (0, 1), BuildingBlock: AJUNOK_clean_linker_0, # of connection points: 2
#     Edge 36, Type (0, 1), BuildingBlock: AJUNOK_clean_linker_0, # of connection points: 2
#     Edge 37, Type (0, 1), BuildingBlock: AJUNOK_clean_linker_0, # of connection points: 2
#     Edge 38, Type (0, 1), BuildingBlock: AJUNOK_clean_linker_0, # of connection points: 2
#     Edge 39, Type (0, 1), BuildingBlock: AJUNOK_clean_linker_0, # of connection points: 2
#     Edge 40, Type (0, 1), BuildingBlock: AJUNOK_clean_linker_0, # of connection points: 2
#     Edge 41, Type (0, 1), BuildingBlock: AJUNOK_clean_linker_0, # of connection points: 2
#     Edge 42, Type (0, 1), BuildingBlock: AJUNOK_clean_linker_0, # of connection points: 2
#     Edge 43, Type (0, 1), BuildingBlock: AJUNOK_clean_linker_0, # of connection points: 2
#     Edge 44, Type (0, 1), BuildingBlock: AJUNOK_clean_linker_0, # of connection points: 2
#     Edge 45, Type (0, 1), BuildingBlock: AJUNOK_clean_linker_0, # of connection points: 2
#     Edge 46, Type (0, 1), BuildingBlock: AJUNOK_clean_linker_0, # of connection points: 2
#     Edge 47, Type (0, 1), BuildingBlock: AJUNOK_clean_linker_0, # of connection points: 2
# Relax obj value: 0.000
# Max RMSD: 0.000
# Mean RMSD: 0.000
data_MOF--net-ssb--node1-NAWXER_clean_sbu_0--node2-MIFKUJ_clean_linker_1--edge1-AJUNOK_clean_linker_0
_symmetry_space_group_name_H-M    P1
_symmetry_Int_Tables_number       1
_symmetry_cell_setting            triclinic
loop_
_symmetry_equiv_pos_as_xyz
'x, y, z'
_cell_length_a     41.809251
_cell_length_b     41.647638
_cell_length_c     36.593027
_cell_angle_alpha  89.96283
_cell_angle_beta   89.810802
_cell_angle_gamma 89.990941
loop_
_atom_site_label
_atom_site_type_symbol
_atom_site_fract_x
_atom_site_fract_y
_atom_site_fract_z
_atom_type_partial_charge
H0 H 0.28544 0.20032 0.17029 0.0
H1 H 0.32923 0.19905 0.12571 0.0
H2 H 0.36219 0.29103 0.16505 0.0
H3 H 0.31792 0.29248 0.20902 0.0
H4 H 0.29975 0.20492 0.24677 0.0
H5 H 0.24312 0.26925 0.15228 0.0
H6 H 0.23971 0.31721 0.11325 0.0
H7 H 0.24443 0.37751 0.20893 0.0
H8 H 0.24836 0.32986 0.24769 0.0
H9 H 0.20728 0.28637 0.32623 0.0
H10 H 0.16564 0.28073 0.37251 0.0
H11 H 0.16317 0.17835 0.3537 0.0
H12 H 0.20306 0.18444 0.30529 0.0
H13 H 0.20852 0.28027 0.25904 0.0
H14 H 0.27283 0.23513 0.34999 0.0
H15 H 0.2873 0.19936 0.40035 0.0
H16 H 0.28235 0.11804 0.3274 0.0
H17 H 0.26877 0.15411 0.27677 0.0
C18 C 0.29841 0.2466 0.19265 0.0
C19 C 0.30185 0.22042 0.16883 0.0
C20 C 0.32702 0.21954 0.14375 0.0
C21 C 0.3494 0.24464 0.14248 0.0
C22 C 0.34523 0.27138 0.16548 0.0
C23 C 0.31993 0.27232 0.19045 0.0
C24 C 0.27486 0.2449 0.22266 0.0
C25 C 0.27939 0.22098 0.2491 0.0
C26 C 0.2499 0.2675 0.22709 0.0
C27 C 0.24641 0.29595 0.2029 0.0
C28 C 0.2435 0.29279 0.16482 0.0
C29 C 0.24129 0.32013 0.1426 0.0
C30 C 0.24213 0.35098 0.15813 0.0
C31 C 0.24417 0.35401 0.19626 0.0
C32 C 0.24625 0.3268 0.21839 0.0
C33 C 0.20871 0.23582 0.31245 0.0
C34 C 0.19779 0.26269 0.33195 0.0
C35 C 0.1743 0.25934 0.35888 0.0
C36 C 0.16162 0.22895 0.36739 0.0
C37 C 0.17259 0.20204 0.3479 0.0
C38 C 0.19569 0.20548 0.32051 0.0
C39 C 0.23282 0.23959 0.28279 0.0
C40 C 0.2286 0.26391 0.25658 0.0
C41 C 0.25955 0.21892 0.27983 0.0
C42 C 0.26904 0.19713 0.30989 0.0
C43 C 0.2749 0.20959 0.34485 0.0
C44 C 0.28322 0.18918 0.37354 0.0
C45 C 0.28548 0.15589 0.36786 0.0
C46 C 0.28091 0.14362 0.33249 0.0
C47 C 0.2729 0.16412 0.30367 0.0
H48 H 0.66177 0.27368 0.25894 0.0
H49 H 0.61657 0.27987 0.21674 0.0
H50 H 0.68252 0.28689 0.1261 0.0
H51 H 0.72748 0.28022 0.16811 0.0
H52 H 0.7149 0.23116 0.26503 0.0
H53 H 0.69327 0.34263 0.23745 0.0
H54 H 0.68224 0.38286 0.19042 0.0
H55 H 0.77849 0.37171 0.14895 0.0
H56 H 0.78855 0.32988 0.19418 0.0
H57 H 0.84181 0.28072 0.26783 0.0
H58 H 0.88921 0.28193 0.30725 0.0
H59 H 0.82841 0.27769 0.40263 0.0
H60 H 0.78098 0.27608 0.36315 0.0
H61 H 0.78975 0.32366 0.26614 0.0
H62 H 0.8121 0.21271 0.29178 0.0
H63 H 0.82055 0.16418 0.32859 0.0
H64 H 0.72505 0.17318 0.3724 0.0
H65 H 0.71681 0.22187 0.33623 0.0
C66 C 0.69799 0.27682 0.21674 0.0
C67 C 0.66644 0.27603 0.22992 0.0
C68 C 0.64071 0.27988 0.20589 0.0
C69 C 0.64616 0.28475 0.16834 0.0
C70 C 0.6777 0.28414 0.15504 0.0
C71 C 0.70334 0.27996 0.17896 0.0
C72 C 0.72538 0.27779 0.24252 0.0
C73 C 0.73106 0.25151 0.26577 0.0
C74 C 0.74658 0.30431 0.243 0.0
C75 C 0.74156 0.33271 0.21894 0.0
C76 C 0.71203 0.34892 0.21826 0.0
C77 C 0.70583 0.3722 0.19159 0.0
C78 C 0.72942 0.3804 0.16577 0.0
C79 C 0.7596 0.36553 0.16802 0.0
C80 C 0.76556 0.34189 0.19421 0.0
C81 C 0.80795 0.27804 0.31261 0.0
C82 C 0.8387 0.2801 0.29723 0.0
C83 C 0.86568 0.28072 0.31967 0.0
C84 C 0.86229 0.27985 0.35783 0.0
C85 C 0.83151 0.27849 0.37324 0.0
C86 C 0.80453 0.27739 0.35078 0.0
C87 C 0.77949 0.27692 0.28861 0.0
C88 C 0.77349 0.30336 0.26578 0.0
C89 C 0.75812 0.2505 0.28864 0.0
C90 C 0.76383 0.22125 0.31135 0.0
C91 C 0.79311 0.20456 0.30971 0.0
C92 C 0.79793 0.17675 0.33063 0.0
C93 C 0.77336 0.16472 0.35303 0.0
C94 C 0.74424 0.18158 0.35488 0.0
C95 C 0.73951 0.20945 0.33424 0.0
H96 H 0.73474 0.81224 0.17637 0.0
H97 H 0.69136 0.81919 0.13224 0.0
H98 H 0.65675 0.72409 0.15798 0.0
H99 H 0.70025 0.71716 0.20182 0.0
H100 H 0.72614 0.80394 0.24765 0.0
H101 H 0.77541 0.74354 0.15088 0.0
H102 H 0.78079 0.70139 0.10458 0.0
H103 H 0.77197 0.62906 0.18853 0.0
H104 H 0.7663 0.67115 0.23475 0.0
H105 H 0.79924 0.70715 0.32667 0.0
H106 H 0.84075 0.70271 0.37364 0.0
H107 H 0.87016 0.80008 0.35108 0.0
H108 H 0.82903 0.80439 0.304 0.0
H109 H 0.80496 0.71554 0.25669 0.0
H110 H 0.75703 0.77696 0.35391 0.0
H111 H 0.74732 0.81958 0.39895 0.0
H112 H 0.7516 0.89056 0.31317 0.0
H113 H 0.76249 0.84837 0.26847 0.0
C114 C 0.7209 0.76407 0.19217 0.0
C115 C 0.71796 0.79277 0.17222 0.0
C116 C 0.69302 0.79687 0.14732 0.0
C117 C 0.67044 0.77238 0.1421 0.0
C118 C 0.6739 0.74335 0.1614 0.0
C119 C 0.69884 0.73926 0.18628 0.0
C120 C 0.74482 0.76158 0.22187 0.0
C121 C 0.74389 0.78498 0.24933 0.0
C122 C 0.7669 0.73593 0.22469 0.0
C123 C 0.76987 0.71057 0.19628 0.0
C124 C 0.77426 0.71863 0.15932 0.0
C125 C 0.77751 0.69456 0.13291 0.0
C126 C 0.77663 0.662 0.14302 0.0
C127 C 0.77295 0.65397 0.18006 0.0
C128 C 0.76955 0.67801 0.20642 0.0
C129 C 0.81061 0.75631 0.3122 0.0
C130 C 0.81455 0.7276 0.33195 0.0
C131 C 0.83827 0.72501 0.35866 0.0
C132 C 0.85835 0.75115 0.3662 0.0
C133 C 0.85453 0.77978 0.3463 0.0
C134 C 0.83097 0.78231 0.31949 0.0
C135 C 0.78665 0.75831 0.2824 0.0
C136 C 0.78741 0.73467 0.255 0.0
C137 C 0.76439 0.78387 0.27957 0.0
C138 C 0.76078 0.80939 0.30773 0.0
C139 C 0.75648 0.80171 0.34484 0.0
C140 C 0.75055 0.82597 0.37048 0.0
C141 C 0.7481 0.85815 0.35926 0.0
C142 C 0.75267 0.86583 0.32231 0.0
C143 C 0.75909 0.84174 0.29685 0.0
H144 H 0.20377 0.73095 0.32532 0.0
H145 H 0.15866 0.73879 0.36688 0.0
H146 H 0.14658 0.83537 0.32594 0.0
H147 H 0.18983 0.82632 0.28219 0.0
H148 H 0.21501 0.72957 0.25493 0.0
H149 H 0.25602 0.79311 0.35386 0.0
H150 H 0.24881 0.83647 0.39831 0.0
H151 H 0.24367 0.90533 0.31035 0.0
H152 H 0.25113 0.86167 0.26571 0.0
H153 H 0.31294 0.80649 0.18601 0.0
H154 H 0.35991 0.79753 0.14712 0.0
H155 H 0.37512 0.70547 0.19833 0.0
H156 H 0.32854 0.7148 0.2379 0.0
H157 H 0.30216 0.81049 0.25982 0.0
H158 H 0.26994 0.73945 0.16086 0.0
H159 H 0.27819 0.69134 0.12345 0.0
H160 H 0.26831 0.63208 0.21969 0.0
H161 H 0.25999 0.68024 0.25699 0.0
C162 C 0.20072 0.77819 0.30094 0.0
C163 C 0.19094 0.75354 0.32462 0.0
C164 C 0.16534 0.75825 0.34875 0.0
C165 C 0.14902 0.78784 0.3501 0.0
C166 C 0.15814 0.81212 0.32544 0.0
C167 C 0.18332 0.80713 0.30074 0.0
C168 C 0.23039 0.77443 0.27845 0.0
C169 C 0.23407 0.7472 0.25613 0.0
C170 C 0.25543 0.79731 0.27996 0.0
C171 C 0.25421 0.82421 0.30653 0.0
C172 C 0.25363 0.81756 0.34414 0.0
C173 C 0.24931 0.84227 0.36945 0.0
C174 C 0.24523 0.87411 0.35767 0.0
C175 C 0.24622 0.88088 0.32004 0.0
C176 C 0.25095 0.85611 0.29463 0.0
C177 C 0.31692 0.76127 0.21475 0.0
C178 C 0.32663 0.7846 0.18933 0.0
C179 C 0.35341 0.77939 0.16704 0.0
C180 C 0.37114 0.75075 0.1697 0.0
C181 C 0.36176 0.72761 0.1955 0.0
C182 C 0.33518 0.733 0.21813 0.0
C183 C 0.2867 0.76569 0.23603 0.0
C184 C 0.28295 0.79305 0.25823 0.0
C185 C 0.26182 0.74258 0.23492 0.0
C186 C 0.26435 0.71342 0.21173 0.0
C187 C 0.26943 0.71608 0.17387 0.0
C188 C 0.27437 0.68864 0.15259 0.0
C189 C 0.27388 0.658 0.16868 0.0
C190 C 0.26843 0.65537 0.2065 0.0
C191 C 0.26357 0.68282 0.2278 0.0
H192 H 0.16733 0.75437 0.74715 0.0
H193 H 0.12663 0.74796 0.69972 0.0
H194 H 0.20071 0.74359 0.61748 0.0
H195 H 0.24146 0.74948 0.66493 0.0
H196 H 0.21216 0.71708 0.76956 0.0
H197 H 0.21275 0.82431 0.71981 0.0
H198 H 0.21887 0.8697 0.67785 0.0
H199 H 0.3124 0.83492 0.64661 0.0
H200 H 0.30645 0.79002 0.68928 0.0
H201 H 0.34307 0.75147 0.77797 0.0
H202 H 0.38813 0.76047 0.81887 0.0
H203 H 0.32265 0.77781 0.9082 0.0
H204 H 0.2772 0.76929 0.86667 0.0
H205 H 0.29986 0.7967 0.76185 0.0
H206 H 0.30133 0.69347 0.81883 0.0
H207 H 0.2957 0.64925 0.862 0.0
H208 H 0.19635 0.67399 0.8785 0.0
H209 H 0.20278 0.71991 0.83761 0.0
C210 C 0.20748 0.75305 0.7096 0.0
C211 C 0.17486 0.75194 0.71893 0.0
C212 C 0.15164 0.74811 0.69191 0.0
C213 C 0.16059 0.74546 0.65503 0.0
C214 C 0.19322 0.74602 0.64571 0.0
C215 C 0.21646 0.74963 0.67277 0.0
C216 C 0.23209 0.75619 0.73859 0.0
C217 C 0.23102 0.73495 0.76842 0.0
C218 C 0.25724 0.7788 0.73637 0.0
C219 C 0.25909 0.80377 0.70758 0.0
C220 C 0.23436 0.82623 0.70354 0.0
C221 C 0.23797 0.8522 0.67969 0.0
C222 C 0.26639 0.85618 0.65945 0.0
C223 C 0.29064 0.83301 0.66259 0.0
C224 C 0.2871 0.80717 0.68662 0.0
C225 C 0.30679 0.75947 0.81934 0.0
C226 C 0.33834 0.75705 0.8064 0.0
C227 C 0.36406 0.76231 0.82973 0.0
C228 C 0.35885 0.77025 0.86654 0.0
C229 C 0.32727 0.77232 0.87974 0.0
C230 C 0.30137 0.76694 0.85626 0.0
C231 C 0.28014 0.75747 0.79286 0.0
C232 C 0.28083 0.77901 0.76341 0.0
C233 C 0.25464 0.73518 0.79576 0.0
C234 C 0.25259 0.7104 0.82503 0.0
C235 C 0.27859 0.69012 0.83253 0.0
C236 C 0.27509 0.66425 0.8566 0.0
C237 C 0.24527 0.65745 0.87285 0.0
C238 C 0.21959 0.67841 0.86632 0.0
C239 C 0.22325 0.70462 0.8428 0.0
H240 H 0.35499 0.27263 0.75536 0.0
H241 H 0.40062 0.2772 0.79726 0.0
H242 H 0.33545 0.28539 0.88846 0.0
H243 H 0.29004 0.28005 0.84682 0.0
H244 H 0.30095 0.23193 0.74896 0.0
H245 H 0.32493 0.34274 0.77995 0.0
H246 H 0.33587 0.38193 0.82814 0.0
H247 H 0.23903 0.37114 0.86787 0.0
H248 H 0.229 0.3304 0.82146 0.0
H249 H 0.17544 0.2865 0.74604 0.0
H250 H 0.12846 0.28958 0.70616 0.0
H251 H 0.18974 0.28185 0.61143 0.0
H252 H 0.23671 0.27865 0.65137 0.0
H253 H 0.22853 0.32638 0.74938 0.0
H254 H 0.20311 0.21697 0.72206 0.0
H255 H 0.19295 0.16923 0.68466 0.0
H256 H 0.28892 0.17493 0.64139 0.0
H257 H 0.29884 0.22294 0.67812 0.0
C258 C 0.31912 0.27642 0.7979 0.0
C259 C 0.35057 0.27482 0.78444 0.0
C260 C 0.37655 0.27773 0.80829 0.0
C261 C 0.37143 0.28251 0.84588 0.0
C262 C 0.33999 0.2826 0.85947 0.0
C263 C 0.31409 0.27925 0.83576 0.0
C264 C 0.29164 0.27846 0.77233 0.0
C265 C 0.28533 0.25272 0.74856 0.0
C266 C 0.27101 0.30546 0.77244 0.0
C267 C 0.27629 0.33312 0.79747 0.0
C268 C 0.30604 0.34888 0.79902 0.0
C269 C 0.31219 0.37154 0.82636 0.0
C270 C 0.28838 0.37954 0.852 0.0
C271 C 0.25808 0.36508 0.84896 0.0
C272 C 0.25214 0.34209 0.8221 0.0
C273 C 0.2095 0.28218 0.70164 0.0
C274 C 0.17876 0.28565 0.71668 0.0
C275 C 0.152 0.28735 0.69397 0.0
C276 C 0.15562 0.28625 0.65583 0.0
C277 C 0.18643 0.28322 0.64077 0.0
C278 C 0.21317 0.28113 0.6635 0.0
C279 C 0.23771 0.27983 0.72594 0.0
C280 C 0.24426 0.30566 0.7494 0.0
C281 C 0.25831 0.25278 0.72563 0.0
C282 C 0.25168 0.22395 0.70265 0.0
C283 C 0.22181 0.20834 0.70402 0.0
C284 C 0.21598 0.18103 0.68268 0.0
C285 C 0.24007 0.16848 0.65996 0.0
C286 C 0.26993 0.18402 0.65874 0.0
C287 C 0.27564 0.21143 0.67978 0.0
H288 H 0.72798 0.19385 0.84402 0.0
H289 H 0.68234 0.19075 0.88531 0.0
H290 H 0.66234 0.29115 0.8658 0.0
H291 H 0.70644 0.29333 0.82193 0.0
H292 H 0.71977 0.20443 0.77391 0.0
H293 H 0.77597 0.26789 0.87196 0.0
H294 H 0.77847 0.31636 0.91039 0.0
H295 H 0.77483 0.37559 0.81369 0.0
H296 H 0.7719 0.32755 0.77562 0.0
H297 H 0.81661 0.28504 0.70054 0.0
H298 H 0.85925 0.2795 0.65553 0.0
H299 H 0.85818 0.17657 0.67065 0.0
H300 H 0.81762 0.18251 0.71822 0.0
H301 H 0.81276 0.27787 0.76681 0.0
H302 H 0.75475 0.23281 0.67072 0.0
H303 H 0.74089 0.1967 0.62045 0.0
H304 H 0.73322 0.11783 0.69661 0.0
H305 H 0.74715 0.15396 0.74684 0.0
C306 C 0.7209 0.24391 0.83011 0.0
C307 C 0.71403 0.21535 0.84903 0.0
C308 C 0.68809 0.21368 0.87297 0.0
C309 C 0.66883 0.24076 0.87913 0.0
C310 C 0.67662 0.26978 0.86142 0.0
C311 C 0.70218 0.27124 0.83678 0.0
C312 C 0.74476 0.24328 0.80011 0.0
C313 C 0.74052 0.22005 0.77277 0.0
C314 C 0.77023 0.26553 0.79689 0.0
C315 C 0.77336 0.29409 0.82092 0.0
C316 C 0.77573 0.29132 0.8591 0.0
C317 C 0.77738 0.31893 0.88096 0.0
C318 C 0.77652 0.34962 0.86492 0.0
C319 C 0.77512 0.35222 0.82673 0.0
C320 C 0.7736 0.32478 0.80499 0.0
C321 C 0.81365 0.23422 0.7128 0.0
C322 C 0.82581 0.26129 0.6946 0.0
C323 C 0.84999 0.25804 0.66851 0.0
C324 C 0.8623 0.22759 0.65958 0.0
C325 C 0.84981 0.20043 0.67743 0.0
C326 C 0.82611 0.20378 0.70418 0.0
C327 C 0.78858 0.23793 0.74143 0.0
C328 C 0.79234 0.26184 0.7682 0.0
C329 C 0.76131 0.21783 0.74286 0.0
C330 C 0.75253 0.19597 0.71247 0.0
C331 C 0.75015 0.20773 0.67661 0.0
C332 C 0.74196 0.18719 0.64798 0.0
C333 C 0.73563 0.15459 0.65473 0.0
C334 C 0.73725 0.143 0.69075 0.0
C335 C 0.74552 0.16354 0.71938 0.0
H336 H 0.81106 0.7291 0.68592 0.0
H337 H 0.85892 0.73688 0.6483 0.0
H338 H 0.8725 0.83077 0.69555 0.0
H339 H 0.82491 0.82265 0.73395 0.0
H340 H 0.79921 0.72657 0.75768 0.0
H341 H 0.76745 0.79337 0.65756 0.0
H342 H 0.77758 0.83918 0.61727 0.0
H343 H 0.76504 0.90372 0.70843 0.0
H344 H 0.75527 0.85765 0.74893 0.0
H345 H 0.70082 0.80235 0.8254 0.0
H346 H 0.6569 0.79111 0.86785 0.0
H347 H 0.64279 0.69865 0.817 0.0
H348 H 0.68548 0.71084 0.77329 0.0
H349 H 0.71142 0.80672 0.75084 0.0
H350 H 0.7441 0.7382 0.85078 0.0
H351 H 0.73506 0.69133 0.88987 0.0
H352 H 0.74646 0.62909 0.79644 0.0
H353 H 0.75515 0.67615 0.75722 0.0
C354 C 0.81416 0.77531 0.71267 0.0
C355 C 0.82454 0.75117 0.68866 0.0
C356 C 0.85185 0.75568 0.6671 0.0
C357 C 0.86944 0.78441 0.66912 0.0
C358 C 0.85928 0.80849 0.69335 0.0
C359 C 0.83213 0.80382 0.71527 0.0
C360 C 0.78374 0.77117 0.73357 0.0
C361 C 0.77993 0.74392 0.75584 0.0
C362 C 0.75859 0.79395 0.73147 0.0
C363 C 0.76091 0.82203 0.70639 0.0
C364 C 0.76689 0.81737 0.66893 0.0
C365 C 0.77303 0.84352 0.646 0.0
C366 C 0.77291 0.87495 0.65991 0.0
C367 C 0.76564 0.87971 0.69709 0.0
C368 C 0.75976 0.85347 0.72015 0.0
C369 C 0.69678 0.75738 0.79631 0.0
C370 C 0.6877 0.78006 0.82269 0.0
C371 C 0.66283 0.77336 0.8473 0.0
C372 C 0.64644 0.74381 0.84613 0.0
C373 C 0.65454 0.72177 0.81851 0.0
C374 C 0.67916 0.72866 0.79362 0.0
C375 C 0.72688 0.76197 0.77481 0.0
C376 C 0.73068 0.78935 0.75256 0.0
C377 C 0.75206 0.73922 0.77669 0.0
C378 C 0.74991 0.71069 0.80099 0.0
C379 C 0.74462 0.71447 0.83868 0.0
C380 C 0.73918 0.68773 0.86092 0.0
C381 C 0.73934 0.65666 0.84598 0.0
C382 C 0.74593 0.65281 0.80854 0.0
C383 C 0.75111 0.67961 0.78621 0.0
C384 C 0.96569 0.22772 0.55367 0.0
C385 C 0.05397 0.22772 0.46688 0.0
O386 O 0.97372 0.25599 0.54331 0.0
Zn387 Zn 1.0082 0.27793 0.50807 0.0
O388 O 0.98062 0.20336 0.54153 0.0
Zn389 Zn 0.0094 0.22666 0.50961 0.0
O390 O 0.04016 0.25034 0.54799 0.0
O391 O 0.03456 0.30275 0.54101 0.0
O392 O 0.03971 0.2032 0.47967 0.0
O393 O 0.04432 0.25598 0.47518 0.0
O394 O 0.98104 0.29969 0.47319 0.0
O395 O 0.97784 0.24689 0.46962 0.0
C396 C 0.04781 0.27909 0.55691 0.0
C397 C 0.96917 0.27475 0.45852 0.0
C398 C 0.73161 0.05752 0.54211 0.0
C399 C 0.73738 0.9666 0.45752 0.0
O400 O 0.75996 0.04894 0.53312 0.0
Zn401 Zn 0.78405 0.01469 0.50016 0.0
O402 O 0.70757 0.04264 0.52912 0.0
Zn403 Zn 0.73207 0.01266 0.49903 0.0
O404 O 0.75407 0.98427 0.54015 0.0
O405 O 0.80663 0.98881 0.53696 0.0
O406 O 0.7118 0.98008 0.46859 0.0
O407 O 0.76458 0.97767 0.46733 0.0
O408 O 0.80558 0.04314 0.46477 0.0
O409 O 0.75304 0.04382 0.45972 0.0
C410 C 0.78183 0.97683 0.55209 0.0
C411 C 0.78052 0.05371 0.44907 0.0
C412 C 0.97305 0.79315 0.56366 0.0
C413 C 0.049 0.79632 0.46031 0.0
O414 O 0.98351 0.81865 0.54847 0.0
Zn415 Zn 0.00995 0.7974 0.51105 0.0
O416 O 0.98165 0.76575 0.55123 0.0
Zn417 Zn 0.01066 0.74525 0.50955 0.0
O418 O 0.04174 0.72193 0.53898 0.0
O419 O 0.04622 0.77477 0.5429 0.0
O420 O 0.04148 0.76808 0.47113 0.0
O421 O 0.03573 0.82076 0.47477 0.0
O422 O 0.9741 0.77628 0.47855 0.0
O423 O 0.97905 0.72357 0.47869 0.0
C424 C 0.05615 0.74661 0.55127 0.0
C425 C 0.9642 0.74867 0.46839 0.0
C426 C 0.23321 0.05595 0.56641 0.0
C427 C 0.23783 0.97536 0.46732 0.0
O428 O 0.26117 0.04538 0.55864 0.0
Zn429 Zn 0.2844 0.01313 0.52222 0.0
O430 O 0.20906 0.04498 0.54928 0.0
Zn431 Zn 0.23251 0.01546 0.51685 0.0
O432 O 0.2499 0.97949 0.55295 0.0
O433 O 0.30265 0.98159 0.55542 0.0
O434 O 0.21239 0.98917 0.47849 0.0
O435 O 0.26468 0.98279 0.48169 0.0
O436 O 0.31061 0.04253 0.49286 0.0
O437 O 0.25853 0.04908 0.48569 0.0
C438 C 0.27642 0.96857 0.56526 0.0
C439 C 0.28725 0.05765 0.47869 0.0
C440 C 0.4734 0.7369 0.06245 0.0
C441 C 0.54962 0.72963 0.95872 0.0
O442 O 0.48318 0.76362 0.04932 0.0
Zn443 Zn 0.51264 0.78237 1.00748 0.0
O444 O 0.4828 0.71075 0.04782 0.0
Zn445 Zn 0.51073 0.72985 0.00975 0.0
O446 O 0.54765 0.75169 0.04047 0.0
O447 O 0.5453 0.80461 0.03611 0.0
O448 O 0.53653 0.70546 0.97414 0.0
O449 O 0.54237 0.75809 0.96895 0.0
O450 O 0.48119 0.8042 0.97627 0.0
O451 O 0.47719 0.75138 0.97495 0.0
C452 C 0.55887 0.77941 0.04841 0.0
C453 C 0.46768 0.77895 0.96417 0.0
C454 C 0.2845 0.55039 0.06839 0.0
C455 C 0.29442 0.47076 0.97036 0.0
O456 O 0.31044 0.54126 0.05333 0.0
Zn457 Zn 0.29148 0.51086 0.01897 0.0
O458 O 0.25785 0.5389 0.05733 0.0
Zn459 Zn 0.24005 0.50627 0.01773 0.0
O460 O 0.21909 0.47401 0.04776 0.0
O461 O 0.27162 0.47463 0.05405 0.0
O462 O 0.2656 0.47648 0.98033 0.0
O463 O 0.31756 0.48568 0.98518 0.0
O464 O 0.268 0.54206 0.98191 0.0
O465 O 0.21572 0.53483 0.9858 0.0
C466 C 0.24426 0.46284 0.06259 0.0
C467 C 0.23964 0.5492 0.97179 0.0
C468 C 0.55393 0.2394 0.96744 0.0
C469 C 0.46187 0.24379 0.04895 0.0
O470 O 0.54422 0.26798 0.97393 0.0
Zn471 Zn 0.50915 0.29168 1.0063 0.0
O472 O 0.54024 0.21547 0.98239 0.0
Zn473 Zn 0.50836 0.23992 0.00883 0.0
O474 O 0.48021 0.26077 0.96623 0.0
O475 O 0.48355 0.31365 0.96943 0.0
O476 O 0.47612 0.21854 0.03805 0.0
O477 O 0.47225 0.27142 0.03913 0.0
O478 O 0.53587 0.31473 0.04172 0.0
O479 O 0.53692 0.26223 0.04922 0.0
C480 C 0.47232 0.28857 0.95421 0.0
C481 C 0.54596 0.29024 0.05906 0.0
C482 C 0.7739 0.55488 0.04165 0.0
C483 C 0.77153 0.46381 0.9566 0.0
O484 O 0.79801 0.53855 0.0313 0.0
Zn485 Zn 0.77458 0.5086 0.99991 0.0
O486 O 0.74587 0.54671 0.03131 0.0
Zn487 Zn 0.7231 0.51188 0.99824 0.0
O488 O 0.69804 0.48742 0.03393 0.0
O489 O 0.75011 0.47917 0.03821 0.0
O490 O 0.74388 0.4752 0.96463 0.0
O491 O 0.7964 0.47604 0.971 0.0
O492 O 0.75558 0.53997 0.95893 0.0
O493 O 0.70281 0.53992 0.96269 0.0
C494 C 0.72155 0.47315 0.04877 0.0
C495 C 0.72839 0.55021 0.94775 0.0
C496 C 0.10841 0.20717 0.38761 0.0
C497 C 0.13585 0.22569 0.39521 0.0
C498 C 0.08233 0.20645 0.41186 0.0
C499 C 0.08279 0.22455 0.44415 0.0
H500 H 0.1065 0.19418 0.36208 0.0
H501 H 0.06117 0.19294 0.40449 0.0
S502 S 0.15023 0.27298 0.47956 0.0
N503 N 0.16312 0.25921 0.43983 0.0
N504 N 0.11355 0.2589 0.48445 0.0
C505 C 0.11047 0.2419 0.45294 0.0
C506 C 0.13716 0.24221 0.4287 0.0
C507 C 0.80347 0.13022 0.39808 0.0
C508 C 0.77751 0.13434 0.37405 0.0
C509 C 0.80558 0.10304 0.42096 0.0
C510 C 0.78178 0.0791 0.4205 0.0
H511 H 0.82152 0.14877 0.40035 0.0
H512 H 0.82504 0.10161 0.44036 0.0
S513 S 0.71202 0.07605 0.358 0.0
N514 N 0.72984 0.11033 0.34803 0.0
N515 N 0.7336 0.0596 0.39074 0.0
C516 C 0.75689 0.08208 0.39486 0.0
C517 C 0.75478 0.1096 0.37175 0.0
C518 C 0.90598 0.7236 0.39397 0.0
C519 C 0.88345 0.74876 0.39464 0.0
C520 C 0.93154 0.72275 0.41887 0.0
C521 C 0.93534 0.74711 0.44511 0.0
H522 H 0.90448 0.70509 0.37326 0.0
H523 H 0.94905 0.70368 0.41663 0.0
S524 S 0.8798 0.81527 0.46177 0.0
N525 N 0.86451 0.79636 0.42626 0.0
N526 N 0.91231 0.79502 0.47282 0.0
C527 C 0.91192 0.77138 0.4472 0.0
C528 C 0.88604 0.77216 0.42201 0.0
C529 C 0.26536 0.90343 0.41218 0.0
C530 C 0.24195 0.9002 0.38506 0.0
C531 C 0.26336 0.92765 0.43852 0.0
C532 C 0.23765 0.94956 0.43926 0.0
H533 H 0.28568 0.88728 0.41279 0.0
H534 H 0.28227 0.92905 0.45864 0.0
S535 S 0.16933 0.95052 0.37486 0.0
N536 N 0.1918 0.92031 0.36068 0.0
N537 N 0.18777 0.96588 0.41071 0.0
C538 C 0.21368 0.94629 0.41262 0.0
C539 C 0.21596 0.9217 0.38534 0.0
C540 C 0.11121 0.72069 0.62813 0.0
C541 C 0.13574 0.74383 0.6263 0.0
C542 C 0.08616 0.72049 0.60258 0.0
C543 C 0.08458 0.74388 0.57493 0.0
H544 H 0.11118 0.70291 0.64975 0.0
H545 H 0.06729 0.70284 0.60542 0.0
S546 S 0.1436 0.80874 0.55748 0.0
N547 N 0.15746 0.78983 0.59379 0.0
N548 N 0.11044 0.78974 0.54614 0.0
C549 C 0.10943 0.76656 0.5723 0.0
C550 C 0.13502 0.76647 0.5979 0.0
C551 C 0.25757 0.11355 0.64125 0.0
C552 C 0.23503 0.13846 0.63864 0.0
C553 C 0.25546 0.08619 0.6192 0.0
C554 C 0.23074 0.08246 0.59347 0.0
H555 H 0.27745 0.11552 0.66003 0.0
H556 H 0.27404 0.06817 0.62165 0.0
S557 S 0.16503 0.14042 0.57663 0.0
N558 N 0.18653 0.15736 0.60916 0.0
N559 N 0.18257 0.10577 0.5675 0.0
C560 C 0.20723 0.10658 0.59157 0.0
C561 C 0.20938 0.13461 0.61418 0.0
C562 C 0.88634 0.24328 0.59951 0.0
C563 C 0.88799 0.22463 0.63155 0.0
C564 C 0.91134 0.24337 0.57404 0.0
C565 C 0.93863 0.22426 0.57915 0.0
H566 H 0.86575 0.25836 0.59427 0.0
H567 H 0.90941 0.25876 0.55026 0.0
S568 S 0.95508 0.17095 0.65785 0.0
N569 N 0.91967 0.18667 0.66695 0.0
N570 N 0.966 0.18586 0.61788 0.0
C571 C 0.94028 0.2046 0.61019 0.0
C572 C 0.91509 0.20498 0.63667 0.0
C573 C 0.75586 0.92775 0.63398 0.0
C574 C 0.77841 0.90277 0.63513 0.0
C575 C 0.75829 0.95243 0.60812 0.0
C576 C 0.78361 0.95347 0.58262 0.0
H577 H 0.73535 0.92747 0.65216 0.0
H578 H 0.73958 0.97043 0.60741 0.0
S579 S 0.85064 0.89542 0.57647 0.0
N580 N 0.8282 0.8817 0.61029 0.0
N581 N 0.83284 0.92838 0.5617 0.0
C582 C 0.8073 0.92961 0.58469 0.0
C583 C 0.80462 0.90415 0.61085 0.0
C584 C 0.90089 0.81557 0.62213 0.0
C585 C 0.89826 0.78894 0.64574 0.0
C586 C 0.92625 0.81801 0.59681 0.0
C587 C 0.94976 0.79389 0.59437 0.0
H588 H 0.88249 0.83387 0.62212 0.0
H589 H 0.92652 0.83802 0.57787 0.0
S590 S 0.95639 0.72218 0.65431 0.0
N591 N 0.92326 0.74014 0.668 0.0
N592 N 0.97069 0.74456 0.62079 0.0
C593 C 0.94835 0.76827 0.61948 0.0
C594 C 0.92267 0.76581 0.64505 0.0
C595 C 0.2454 0.8934 0.6117 0.0
C596 C 0.27042 0.88448 0.63511 0.0
C597 C 0.24787 0.92048 0.5893 0.0
C598 C 0.27553 0.93982 0.58917 0.0
H599 H 0.22369 0.87923 0.61055 0.0
H600 H 0.22782 0.92615 0.57176 0.0
S601 S 0.34766 0.92736 0.64615 0.0
N602 N 0.3236 0.89751 0.65754 0.0
N603 N 0.32847 0.94823 0.61471 0.0
C604 C 0.30094 0.93106 0.61217 0.0
C605 C 0.29833 0.90346 0.63528 0.0
C606 C 0.10308 0.26347 0.63665 0.0
C607 C 0.12712 0.2867 0.63188 0.0
C608 C 0.07696 0.26186 0.61284 0.0
C609 C 0.07355 0.28386 0.58392 0.0
H610 H 0.10503 0.24577 0.65824 0.0
H611 H 0.05948 0.24295 0.61682 0.0
S612 S 0.12942 0.34996 0.56062 0.0
N613 N 0.14563 0.33259 0.59669 0.0
N614 N 0.09612 0.32995 0.55226 0.0
C615 C 0.09691 0.30783 0.57954 0.0
C616 C 0.12385 0.3091 0.6034 0.0
C617 C 0.75316 0.1319 0.59512 0.0
C618 C 0.73082 0.13209 0.62386 0.0
C619 C 0.75199 0.10853 0.56782 0.0
C620 C 0.72827 0.08455 0.56791 0.0
H621 H 0.77265 0.14906 0.59462 0.0
H622 H 0.7705 0.10867 0.54701 0.0
S623 S 0.66227 0.07637 0.63509 0.0
N624 N 0.68281 0.10781 0.64944 0.0
N625 N 0.68059 0.06368 0.5977 0.0
C626 C 0.70469 0.08544 0.5953 0.0
C627 C 0.70606 0.10918 0.62347 0.0
C628 C 0.89535 0.30352 0.40801 0.0
C629 C 0.89085 0.27943 0.38163 0.0
C630 C 0.92164 0.3027 0.43179 0.0
C631 C 0.94388 0.27735 0.43046 0.0
H632 H 0.8783 0.32301 0.41041 0.0
H633 H 0.9239 0.3214 0.45218 0.0
S634 S 0.94306 0.2089 0.36556 0.0
N635 N 0.91111 0.23016 0.35474 0.0
N636 N 0.96015 0.22815 0.39977 0.0
C637 C 0.93983 0.2534 0.40376 0.0
C638 C 0.91341 0.25456 0.37924 0.0
C639 C 0.76402 0.88826 0.41506 0.0
C640 C 0.74245 0.88406 0.38618 0.0
C641 C 0.76147 0.91466 0.43853 0.0
C642 C 0.73691 0.93754 0.43439 0.0
H643 H 0.78375 0.87169 0.41869 0.0
H644 H 0.77922 0.91742 0.45981 0.0
S645 S 0.67298 0.93602 0.36456 0.0
N646 N 0.69485 0.9039 0.35559 0.0
N647 N 0.68968 0.95336 0.40035 0.0
C648 C 0.71432 0.93285 0.40662 0.0
C649 C 0.71724 0.90619 0.38228 0.0
C650 C 0.12847 0.78204 0.41423 0.0
C651 C 0.12371 0.79342 0.37839 0.0
C652 C 0.10453 0.78458 0.44092 0.0
C653 C 0.07508 0.79929 0.43326 0.0
H654 H 0.15076 0.77055 0.42168 0.0
H655 H 0.10886 0.7743 0.46766 0.0
S656 S 0.05012 0.83354 0.34448 0.0
N657 N 0.08675 0.82013 0.33692 0.0
N658 N 0.04228 0.82587 0.38791 0.0
C659 C 0.0702 0.81191 0.3982 0.0
C660 C 0.09441 0.80883 0.3706 0.0
C661 C 0.31183 0.1082 0.39741 0.0
C662 C 0.28963 0.13366 0.39918 0.0
C663 C 0.31299 0.0846 0.42489 0.0
C664 C 0.2917 0.08565 0.45462 0.0
H665 H 0.32768 0.10598 0.37407 0.0
H666 H 0.32922 0.06451 0.42172 0.0
S667 S 0.23069 0.14826 0.47342 0.0
N668 N 0.24709 0.15914 0.43423 0.0
N669 N 0.24958 0.11523 0.4858 0.0
C670 C 0.27063 0.11184 0.45763 0.0
C671 C 0.26949 0.13575 0.42991 0.0
C672 C 0.62874 0.74291 0.91173 0.0
C673 C 0.62217 0.73578 0.87488 0.0
C674 C 0.60562 0.73855 0.93912 0.0
C675 C 0.57515 0.7263 0.93101 0.0
H676 H 0.65174 0.75274 0.91942 0.0
H677 H 0.61123 0.74595 0.96677 0.0
S678 S 0.5457 0.70286 0.83957 0.0
N679 N 0.58274 0.71511 0.83208 0.0
N680 N 0.53961 0.70637 0.88403 0.0
C681 C 0.56854 0.71771 0.89477 0.0
C682 C 0.59201 0.72247 0.86661 0.0
C683 C 0.224 0.63043 0.92957 0.0
C684 C 0.24085 0.6284 0.89618 0.0
C685 C 0.22152 0.60384 0.9531 0.0
C686 C 0.23595 0.57446 0.94404 0.0
H687 H 0.21374 0.65305 0.93831 0.0
H688 H 0.20979 0.60678 0.97933 0.0
S689 S 0.27899 0.555 0.85829 0.0
N690 N 0.26889 0.59312 0.85374 0.0
N691 N 0.26541 0.54385 0.89877 0.0
C692 C 0.25158 0.57163 0.91026 0.0
C693 C 0.25373 0.59841 0.8861 0.0
C694 C 0.42277 0.26306 0.87275 0.0
C695 C 0.39879 0.28662 0.87117 0.0
C696 C 0.44719 0.26474 0.89882 0.0
C697 C 0.44892 0.29034 0.92392 0.0
H698 H 0.42194 0.24252 0.85463 0.0
H699 H 0.4645 0.2454 0.89983 0.0
S700 S 0.39324 0.35958 0.92893 0.0
N701 N 0.37914 0.3373 0.8953 0.0
N702 N 0.42534 0.34071 0.94411 0.0
C703 C 0.42592 0.31488 0.92146 0.0
C704 C 0.40074 0.31291 0.8952 0.0
C705 C 0.79956 0.38538 0.91357 0.0
C706 C 0.77548 0.37903 0.88778 0.0
C707 C 0.79883 0.41344 0.93496 0.0
C708 C 0.77368 0.43576 0.93173 0.0
H709 H 0.81914 0.36864 0.91705 0.0
H710 H 0.81765 0.41725 0.95477 0.0
S711 S 0.70493 0.43005 0.86803 0.0
N712 N 0.726 0.39726 0.86009 0.0
N713 N 0.72443 0.44969 0.90016 0.0
C714 C 0.74959 0.42962 0.90586 0.0
C715 C 0.75053 0.40135 0.88394 0.0
C716 C 0.59418 0.26641 0.14217 0.0
C717 C 0.61898 0.28912 0.14276 0.0
C718 C 0.56992 0.26802 0.11593 0.0
C719 C 0.56919 0.29265 0.0895 0.0
H720 H 0.59422 0.24647 0.16121 0.0
H721 H 0.55198 0.24925 0.1158 0.0
S722 S 0.62711 0.35978 0.08162 0.0
N723 N 0.64033 0.33828 0.11639 0.0
N724 N 0.59449 0.34144 0.06708 0.0
C725 C 0.59297 0.31648 0.09094 0.0
C726 C 0.61797 0.31461 0.11748 0.0
C727 C 0.79956 0.61048 0.11848 0.0
C728 C 0.77796 0.63629 0.11497 0.0
C729 C 0.79938 0.58474 0.09361 0.0
C730 C 0.77715 0.58373 0.06491 0.0
H731 H 0.81642 0.61001 0.14089 0.0
H732 H 0.81581 0.56497 0.09775 0.0
S733 S 0.71661 0.64601 0.04284 0.0
N734 N 0.73466 0.65969 0.07974 0.0
N735 N 0.73419 0.61153 0.03322 0.0
C736 C 0.75608 0.60983 0.06057 0.0
C737 C 0.75652 0.63607 0.08553 0.0
C738 C 0.40156 0.71769 0.12335 0.0
C739 C 0.39936 0.74533 0.14548 0.0
C740 C 0.42655 0.71401 0.09768 0.0
C741 C 0.45017 0.73783 0.09337 0.0
H742 H 0.38315 0.69944 0.12485 0.0
H743 H 0.42652 0.69314 0.08004 0.0
S744 S 0.45788 0.81208 0.14899 0.0
N745 N 0.42487 0.79493 0.16428 0.0
N746 N 0.47161 0.78818 0.11657 0.0
C747 C 0.44915 0.76457 0.11698 0.0
C748 C 0.42381 0.76829 0.14286 0.0
C749 C 0.21796 0.38523 0.10881 0.0
C750 C 0.24227 0.38007 0.13467 0.0
C751 C 0.21803 0.41267 0.08638 0.0
C752 C 0.24275 0.43555 0.08861 0.0
H753 H 0.19874 0.36798 0.10599 0.0
H754 H 0.19909 0.41552 0.06651 0.0
S755 S 0.31178 0.43309 0.15219 0.0
N756 N 0.29143 0.4001 0.16146 0.0
N757 N 0.29176 0.45142 0.11944 0.0
C758 C 0.26702 0.43068 0.11463 0.0
C759 C 0.26673 0.40302 0.13761 0.0
C760 C 0.38539 0.26952 0.09603 0.0
C761 C 0.37745 0.24289 0.11774 0.0
C762 C 0.41252 0.26923 0.07367 0.0
C763 C 0.43281 0.24224 0.07202 0.0
H764 H 0.37051 0.29083 0.09635 0.0
H765 H 0.41758 0.29045 0.05752 0.0
S766 S 0.42292 0.16655 0.12426 0.0
N767 N 0.39221 0.18894 0.13689 0.0
N768 N 0.44312 0.18819 0.09421 0.0
C769 C 0.42495 0.21523 0.09323 0.0
C770 C 0.3973 0.2156 0.11625 0.0
C771 C 0.7333 0.39582 0.09987 0.0
C772 C 0.72271 0.40329 0.13543 0.0
C773 C 0.73089 0.4181 0.0714 0.0
C774 C 0.71714 0.44843 0.07707 0.0
H775 H 0.74443 0.37287 0.09418 0.0
H776 H 0.74086 0.41193 0.04493 0.0
S777 S 0.68417 0.47962 0.16405 0.0
N778 N 0.69692 0.44316 0.17428 0.0
N779 N 0.69156 0.48463 0.12003 0.0
C780 C 0.70482 0.45575 0.11176 0.0
C781 C 0.70772 0.43322 0.14111 0.0
C782 C 0.63628 0.75226 0.09139 0.0
C783 C 0.64327 0.77668 0.11654 0.0
C784 C 0.60947 0.75416 0.06885 0.0
C785 C 0.58848 0.78059 0.07037 0.0
H786 H 0.6515 0.73126 0.08939 0.0
H787 H 0.60498 0.73441 0.05028 0.0
S788 S 0.59633 0.85131 0.13102 0.0
N789 N 0.62733 0.82849 0.14141 0.0
N790 N 0.5769 0.83217 0.09837 0.0
C791 C 0.59567 0.80577 0.09447 0.0
C792 C 0.62306 0.80376 0.11773 0.0
C793 C 0.30387 0.62658 0.12096 0.0
C794 C 0.27807 0.6289 0.14569 0.0
C795 C 0.30694 0.60019 0.09726 0.0
C796 C 0.284 0.57548 0.0971 0.0
H797 H 0.32159 0.64554 0.11961 0.0
H798 H 0.32661 0.59984 0.07793 0.0
S799 S 0.21287 0.56942 0.15778 0.0
N800 N 0.22992 0.60364 0.16944 0.0
N801 N 0.23563 0.55416 0.1252 0.0
C802 C 0.25869 0.57707 0.12253 0.0
C803 C 0.25573 0.60373 0.14674 0.0
C804 C 0.4105 0.75065 0.8915 0.0
C805 C 0.38669 0.7744 0.89109 0.0
C806 C 0.43703 0.75324 0.91434 0.0
C807 C 0.44107 0.7798 0.93766 0.0
H808 H 0.40832 0.72947 0.87449 0.0
H809 H 0.4544 0.73391 0.91401 0.0
S810 S 0.38631 0.84944 0.94565 0.0
N811 N 0.36925 0.82606 0.91488 0.0
N812 N 0.41948 0.83091 0.95817 0.0
C813 C 0.41792 0.80425 0.93691 0.0
C814 C 0.39056 0.80146 0.91369 0.0
C815 C 0.28383 0.39394 0.91811 0.0
C816 C 0.2949 0.40188 0.88286 0.0
C817 C 0.28576 0.41585 0.94696 0.0
C818 C 0.29953 0.44628 0.94198 0.0
H819 H 0.2726 0.37092 0.92322 0.0
H820 H 0.27537 0.40937 0.97313 0.0
S821 S 0.33371 0.4786 0.8561 0.0
N822 N 0.32118 0.44225 0.8451 0.0
N823 N 0.32566 0.48304 0.90005 0.0
C824 C 0.31236 0.45403 0.90765 0.0
C825 C 0.30994 0.43187 0.87792 0.0
C826 C 0.61088 0.2526 0.88921 0.0
C827 C 0.63933 0.23827 0.90169 0.0
C828 C 0.58285 0.25153 0.91008 0.0
C829 C 0.58198 0.2354 0.94373 0.0
H830 H 0.61028 0.265 0.86319 0.0
H831 H 0.56177 0.26383 0.90008 0.0
S832 S 0.64954 0.1945 0.98936 0.0
N833 N 0.66485 0.20809 0.95066 0.0
N834 N 0.61144 0.20501 0.98906 0.0
C835 C 0.60977 0.22021 0.95625 0.0
C836 C 0.63863 0.22186 0.93539 0.0
C837 C 0.75645 0.60316 0.86985 0.0
C838 C 0.73399 0.62825 0.86976 0.0
C839 C 0.75359 0.57739 0.89425 0.0
C840 C 0.72791 0.57542 0.91917 0.0
H841 H 0.77705 0.60403 0.85185 0.0
H842 H 0.77208 0.55916 0.8941 0.0
S843 S 0.66141 0.63394 0.92801 0.0
N844 N 0.68427 0.64882 0.89522 0.0
N845 N 0.67878 0.60021 0.94107 0.0
C846 C 0.70453 0.59968 0.91832 0.0
C847 C 0.70765 0.62618 0.89369 0.0
loop_
_geom_bond_atom_site_label_1
_geom_bond_atom_site_label_2
_geom_bond_distance
_geom_bond_site_symmetry_2
_ccdc_geom_bond_type
H0 C19 0.949 . S
H1 C20 0.950 . S
H2 C22 0.950 . S
H3 C23 0.950 . S
H4 C25 0.950 . S
H5 C28 0.950 . S
H6 C29 0.950 . S
H7 C31 0.951 . S
H8 C32 0.949 . S
H9 C34 0.949 . S
H10 C35 0.950 . S
H11 C37 0.950 . S
H12 C38 0.950 . S
H13 C40 0.950 . S
H14 C43 0.950 . S
H15 C44 0.950 . S
H16 C46 0.951 . S
H17 C47 0.949 . S
C18 C19 1.376 . S
C18 C23 1.386 . S
C18 C24 1.483 . S
C19 H0 0.949 . S
C19 C18 1.376 . S
C19 C20 1.397 . S
C20 H1 0.950 . S
C20 C19 1.397 . S
C20 C21 1.391 . S
C21 C20 1.391 . S
C21 C22 1.405 . S
C22 H2 0.950 . S
C22 C21 1.405 . S
C22 C23 1.367 . S
C23 H3 0.950 . S
C23 C18 1.386 . S
C23 C22 1.367 . S
C24 C18 1.483 . S
C24 C25 1.382 . S
C24 C26 1.403 . S
C25 H4 0.950 . S
C25 C24 1.382 . S
C25 C41 1.411 . S
C26 C24 1.403 . S
C26 C27 1.489 . S
C26 C40 1.411 . S
C27 C26 1.489 . S
C27 C28 1.383 . S
C27 C32 1.382 . S
C28 H5 0.950 . S
C28 C27 1.383 . S
C28 C29 1.395 . S
C29 H6 0.950 . S
C29 C28 1.395 . S
C29 C30 1.288 . S
C30 C29 1.288 . S
C30 C31 1.392 . S
C31 H7 0.951 . S
C31 C30 1.392 . S
C31 C32 1.392 . S
C32 H8 0.949 . S
C32 C27 1.382 . S
C32 C31 1.392 . S
C33 C34 1.376 . S
C33 C38 1.386 . S
C33 C39 1.483 . S
C34 H9 0.949 . S
C34 C33 1.376 . S
C34 C35 1.397 . S
C35 H10 0.950 . S
C35 C34 1.397 . S
C35 C36 1.391 . S
C36 C35 1.391 . S
C36 C37 1.405 . S
C37 H11 0.950 . S
C37 C36 1.405 . S
C37 C38 1.367 . S
C38 H12 0.950 . S
C38 C33 1.386 . S
C38 C37 1.367 . S
C39 C33 1.483 . S
C39 C40 1.382 . S
C39 C41 1.403 . S
C40 H13 0.950 . S
C40 C26 1.411 . S
C40 C39 1.382 . S
C41 C25 1.411 . S
C41 C39 1.403 . S
C41 C42 1.489 . S
C42 C41 1.489 . S
C42 C43 1.383 . S
C42 C47 1.382 . S
C43 H14 0.950 . S
C43 C42 1.383 . S
C43 C44 1.395 . S
C44 H15 0.950 . S
C44 C43 1.395 . S
C44 C45 1.288 . S
C45 C44 1.288 . S
C45 C46 1.392 . S
C46 H16 0.951 . S
C46 C45 1.392 . S
C46 C47 1.392 . S
C47 H17 0.949 . S
C47 C42 1.382 . S
C47 C46 1.392 . S
H48 C67 0.949 . S
H49 C68 0.950 . S
H50 C70 0.950 . S
H51 C71 0.950 . S
H52 C73 0.950 . S
H53 C76 0.950 . S
H54 C77 0.950 . S
H55 C79 0.951 . S
H56 C80 0.949 . S
H57 C82 0.949 . S
H58 C83 0.950 . S
H59 C85 0.950 . S
H60 C86 0.950 . S
H61 C88 0.950 . S
H62 C91 0.950 . S
H63 C92 0.950 . S
H64 C94 0.951 . S
H65 C95 0.949 . S
C66 C67 1.376 . S
C66 C71 1.386 . S
C66 C72 1.483 . S
C67 H48 0.949 . S
C67 C66 1.376 . S
C67 C68 1.397 . S
C68 H49 0.950 . S
C68 C67 1.397 . S
C68 C69 1.391 . S
C69 C68 1.391 . S
C69 C70 1.405 . S
C70 H50 0.950 . S
C70 C69 1.405 . S
C70 C71 1.367 . S
C71 H51 0.950 . S
C71 C66 1.386 . S
C71 C70 1.367 . S
C72 C66 1.483 . S
C72 C73 1.382 . S
C72 C74 1.403 . S
C73 H52 0.950 . S
C73 C72 1.382 . S
C73 C89 1.411 . S
C74 C72 1.403 . S
C74 C75 1.489 . S
C74 C88 1.411 . S
C75 C74 1.489 . S
C75 C76 1.383 . S
C75 C80 1.382 . S
C76 H53 0.950 . S
C76 C75 1.383 . S
C76 C77 1.395 . S
C77 H54 0.950 . S
C77 C76 1.395 . S
C77 C78 1.288 . S
C78 C77 1.288 . S
C78 C79 1.392 . S
C79 H55 0.951 . S
C79 C78 1.392 . S
C79 C80 1.392 . S
C80 H56 0.949 . S
C80 C75 1.382 . S
C80 C79 1.392 . S
C81 C82 1.376 . S
C81 C86 1.386 . S
C81 C87 1.483 . S
C82 H57 0.949 . S
C82 C81 1.376 . S
C82 C83 1.397 . S
C83 H58 0.950 . S
C83 C82 1.397 . S
C83 C84 1.391 . S
C84 C83 1.391 . S
C84 C85 1.405 . S
C85 H59 0.950 . S
C85 C84 1.405 . S
C85 C86 1.367 . S
C86 H60 0.950 . S
C86 C81 1.386 . S
C86 C85 1.367 . S
C87 C81 1.483 . S
C87 C88 1.382 . S
C87 C89 1.403 . S
C88 H61 0.950 . S
C88 C74 1.411 . S
C88 C87 1.382 . S
C89 C73 1.411 . S
C89 C87 1.403 . S
C89 C90 1.489 . S
C90 C89 1.489 . S
C90 C91 1.383 . S
C90 C95 1.382 . S
C91 H62 0.950 . S
C91 C90 1.383 . S
C91 C92 1.395 . S
C92 H63 0.950 . S
C92 C91 1.395 . S
C92 C93 1.288 . S
C93 C92 1.288 . S
C93 C94 1.392 . S
C94 H64 0.951 . S
C94 C93 1.392 . S
C94 C95 1.392 . S
C95 H65 0.949 . S
C95 C90 1.382 . S
C95 C94 1.392 . S
H96 C115 0.949 . S
H97 C116 0.950 . S
H98 C118 0.950 . S
H99 C119 0.950 . S
H100 C121 0.950 . S
H101 C124 0.950 . S
H102 C125 0.950 . S
H103 C127 0.951 . S
H104 C128 0.949 . S
H105 C130 0.949 . S
H106 C131 0.950 . S
H107 C133 0.950 . S
H108 C134 0.950 . S
H109 C136 0.950 . S
H110 C139 0.950 . S
H111 C140 0.950 . S
H112 C142 0.951 . S
H113 C143 0.949 . S
C114 C115 1.376 . S
C114 C119 1.386 . S
C114 C120 1.483 . S
C115 H96 0.949 . S
C115 C114 1.376 . S
C115 C116 1.397 . S
C116 H97 0.950 . S
C116 C115 1.397 . S
C116 C117 1.391 . S
C117 C116 1.391 . S
C117 C118 1.405 . S
C118 H98 0.950 . S
C118 C117 1.405 . S
C118 C119 1.367 . S
C119 H99 0.950 . S
C119 C114 1.386 . S
C119 C118 1.367 . S
C120 C114 1.483 . S
C120 C121 1.382 . S
C120 C122 1.403 . S
C121 H100 0.950 . S
C121 C120 1.382 . S
C121 C137 1.411 . S
C122 C120 1.403 . S
C122 C123 1.489 . S
C122 C136 1.411 . S
C123 C122 1.489 . S
C123 C124 1.383 . S
C123 C128 1.382 . S
C124 H101 0.950 . S
C124 C123 1.383 . S
C124 C125 1.395 . S
C125 H102 0.950 . S
C125 C124 1.395 . S
C125 C126 1.288 . S
C126 C125 1.288 . S
C126 C127 1.392 . S
C127 H103 0.951 . S
C127 C126 1.392 . S
C127 C128 1.392 . S
C128 H104 0.949 . S
C128 C123 1.382 . S
C128 C127 1.392 . S
C129 C130 1.376 . S
C129 C134 1.386 . S
C129 C135 1.483 . S
C130 H105 0.949 . S
C130 C129 1.376 . S
C130 C131 1.397 . S
C131 H106 0.950 . S
C131 C130 1.397 . S
C131 C132 1.391 . S
C132 C131 1.391 . S
C132 C133 1.405 . S
C133 H107 0.950 . S
C133 C132 1.405 . S
C133 C134 1.367 . S
C134 H108 0.950 . S
C134 C129 1.386 . S
C134 C133 1.367 . S
C135 C129 1.483 . S
C135 C136 1.382 . S
C135 C137 1.403 . S
C136 H109 0.950 . S
C136 C122 1.411 . S
C136 C135 1.382 . S
C137 C121 1.411 . S
C137 C135 1.403 . S
C137 C138 1.489 . S
C138 C137 1.489 . S
C138 C139 1.383 . S
C138 C143 1.382 . S
C139 H110 0.950 . S
C139 C138 1.383 . S
C139 C140 1.395 . S
C140 H111 0.950 . S
C140 C139 1.395 . S
C140 C141 1.288 . S
C141 C140 1.288 . S
C141 C142 1.392 . S
C142 H112 0.951 . S
C142 C141 1.392 . S
C142 C143 1.392 . S
C143 H113 0.949 . S
C143 C138 1.382 . S
C143 C142 1.392 . S
H144 C163 0.949 . S
H145 C164 0.950 . S
H146 C166 0.950 . S
H147 C167 0.950 . S
H148 C169 0.950 . S
H149 C172 0.950 . S
H150 C173 0.950 . S
H151 C175 0.951 . S
H152 C176 0.949 . S
H153 C178 0.949 . S
H154 C179 0.950 . S
H155 C181 0.950 . S
H156 C182 0.950 . S
H157 C184 0.950 . S
H158 C187 0.950 . S
H159 C188 0.950 . S
H160 C190 0.951 . S
H161 C191 0.949 . S
C162 C163 1.376 . S
C162 C167 1.386 . S
C162 C168 1.483 . S
C163 H144 0.949 . S
C163 C162 1.376 . S
C163 C164 1.397 . S
C164 H145 0.950 . S
C164 C163 1.397 . S
C164 C165 1.391 . S
C165 C164 1.391 . S
C165 C166 1.405 . S
C166 H146 0.950 . S
C166 C165 1.405 . S
C166 C167 1.367 . S
C167 H147 0.950 . S
C167 C162 1.386 . S
C167 C166 1.367 . S
C168 C162 1.483 . S
C168 C169 1.382 . S
C168 C170 1.403 . S
C169 H148 0.950 . S
C169 C168 1.382 . S
C169 C185 1.411 . S
C170 C168 1.403 . S
C170 C171 1.489 . S
C170 C184 1.411 . S
C171 C170 1.489 . S
C171 C172 1.383 . S
C171 C176 1.382 . S
C172 H149 0.950 . S
C172 C171 1.383 . S
C172 C173 1.395 . S
C173 H150 0.950 . S
C173 C172 1.395 . S
C173 C174 1.288 . S
C174 C173 1.288 . S
C174 C175 1.392 . S
C175 H151 0.951 . S
C175 C174 1.392 . S
C175 C176 1.392 . S
C176 H152 0.949 . S
C176 C171 1.382 . S
C176 C175 1.392 . S
C177 C178 1.376 . S
C177 C182 1.386 . S
C177 C183 1.483 . S
C178 H153 0.949 . S
C178 C177 1.376 . S
C178 C179 1.397 . S
C179 H154 0.950 . S
C179 C178 1.397 . S
C179 C180 1.391 . S
C180 C179 1.391 . S
C180 C181 1.405 . S
C181 H155 0.950 . S
C181 C180 1.405 . S
C181 C182 1.367 . S
C182 H156 0.950 . S
C182 C177 1.386 . S
C182 C181 1.367 . S
C183 C177 1.483 . S
C183 C184 1.382 . S
C183 C185 1.403 . S
C184 H157 0.950 . S
C184 C170 1.411 . S
C184 C183 1.382 . S
C185 C169 1.411 . S
C185 C183 1.403 . S
C185 C186 1.489 . S
C186 C185 1.489 . S
C186 C187 1.383 . S
C186 C191 1.382 . S
C187 H158 0.950 . S
C187 C186 1.383 . S
C187 C188 1.395 . S
C188 H159 0.950 . S
C188 C187 1.395 . S
C188 C189 1.288 . S
C189 C188 1.288 . S
C189 C190 1.392 . S
C190 H160 0.951 . S
C190 C189 1.392 . S
C190 C191 1.392 . S
C191 H161 0.949 . S
C191 C186 1.382 . S
C191 C190 1.392 . S
H192 C211 0.949 . S
H193 C212 0.950 . S
H194 C214 0.950 . S
H195 C215 0.950 . S
H196 C217 0.950 . S
H197 C220 0.950 . S
H198 C221 0.950 . S
H199 C223 0.951 . S
H200 C224 0.949 . S
H201 C226 0.949 . S
H202 C227 0.950 . S
H203 C229 0.950 . S
H204 C230 0.950 . S
H205 C232 0.950 . S
H206 C235 0.950 . S
H207 C236 0.950 . S
H208 C238 0.951 . S
H209 C239 0.949 . S
C210 C211 1.376 . S
C210 C215 1.386 . S
C210 C216 1.483 . S
C211 H192 0.949 . S
C211 C210 1.376 . S
C211 C212 1.397 . S
C212 H193 0.950 . S
C212 C211 1.397 . S
C212 C213 1.391 . S
C213 C212 1.391 . S
C213 C214 1.405 . S
C214 H194 0.950 . S
C214 C213 1.405 . S
C214 C215 1.367 . S
C215 H195 0.950 . S
C215 C210 1.386 . S
C215 C214 1.367 . S
C216 C210 1.483 . S
C216 C217 1.382 . S
C216 C218 1.403 . S
C217 H196 0.950 . S
C217 C216 1.382 . S
C217 C233 1.411 . S
C218 C216 1.403 . S
C218 C219 1.489 . S
C218 C232 1.411 . S
C219 C218 1.489 . S
C219 C220 1.383 . S
C219 C224 1.382 . S
C220 H197 0.950 . S
C220 C219 1.383 . S
C220 C221 1.395 . S
C221 H198 0.950 . S
C221 C220 1.395 . S
C221 C222 1.288 . S
C222 C221 1.288 . S
C222 C223 1.392 . S
C223 H199 0.951 . S
C223 C222 1.392 . S
C223 C224 1.392 . S
C224 H200 0.949 . S
C224 C219 1.382 . S
C224 C223 1.392 . S
C225 C226 1.376 . S
C225 C230 1.386 . S
C225 C231 1.483 . S
C226 H201 0.949 . S
C226 C225 1.376 . S
C226 C227 1.397 . S
C227 H202 0.950 . S
C227 C226 1.397 . S
C227 C228 1.391 . S
C228 C227 1.391 . S
C228 C229 1.405 . S
C229 H203 0.950 . S
C229 C228 1.405 . S
C229 C230 1.367 . S
C230 H204 0.950 . S
C230 C225 1.386 . S
C230 C229 1.367 . S
C231 C225 1.483 . S
C231 C232 1.382 . S
C231 C233 1.403 . S
C232 H205 0.950 . S
C232 C218 1.411 . S
C232 C231 1.382 . S
C233 C217 1.411 . S
C233 C231 1.403 . S
C233 C234 1.489 . S
C234 C233 1.489 . S
C234 C235 1.383 . S
C234 C239 1.382 . S
C235 H206 0.950 . S
C235 C234 1.383 . S
C235 C236 1.395 . S
C236 H207 0.950 . S
C236 C235 1.395 . S
C236 C237 1.288 . S
C237 C236 1.288 . S
C237 C238 1.392 . S
C238 H208 0.951 . S
C238 C237 1.392 . S
C238 C239 1.392 . S
C239 H209 0.949 . S
C239 C234 1.382 . S
C239 C238 1.392 . S
H240 C259 0.949 . S
H241 C260 0.950 . S
H242 C262 0.950 . S
H243 C263 0.950 . S
H244 C265 0.950 . S
H245 C268 0.950 . S
H246 C269 0.950 . S
H247 C271 0.951 . S
H248 C272 0.949 . S
H249 C274 0.949 . S
H250 C275 0.950 . S
H251 C277 0.950 . S
H252 C278 0.950 . S
H253 C280 0.950 . S
H254 C283 0.950 . S
H255 C284 0.950 . S
H256 C286 0.951 . S
H257 C287 0.949 . S
C258 C259 1.376 . S
C258 C263 1.386 . S
C258 C264 1.483 . S
C259 H240 0.949 . S
C259 C258 1.376 . S
C259 C260 1.397 . S
C260 H241 0.950 . S
C260 C259 1.397 . S
C260 C261 1.391 . S
C261 C260 1.391 . S
C261 C262 1.405 . S
C262 H242 0.950 . S
C262 C261 1.405 . S
C262 C263 1.367 . S
C263 H243 0.950 . S
C263 C258 1.386 . S
C263 C262 1.367 . S
C264 C258 1.483 . S
C264 C265 1.382 . S
C264 C266 1.403 . S
C265 H244 0.950 . S
C265 C264 1.382 . S
C265 C281 1.411 . S
C266 C264 1.403 . S
C266 C267 1.489 . S
C266 C280 1.411 . S
C267 C266 1.489 . S
C267 C268 1.383 . S
C267 C272 1.382 . S
C268 H245 0.950 . S
C268 C267 1.383 . S
C268 C269 1.395 . S
C269 H246 0.950 . S
C269 C268 1.395 . S
C269 C270 1.288 . S
C270 C269 1.288 . S
C270 C271 1.392 . S
C271 H247 0.951 . S
C271 C270 1.392 . S
C271 C272 1.392 . S
C272 H248 0.949 . S
C272 C267 1.382 . S
C272 C271 1.392 . S
C273 C274 1.376 . S
C273 C278 1.386 . S
C273 C279 1.483 . S
C274 H249 0.949 . S
C274 C273 1.376 . S
C274 C275 1.397 . S
C275 H250 0.950 . S
C275 C274 1.397 . S
C275 C276 1.391 . S
C276 C275 1.391 . S
C276 C277 1.405 . S
C277 H251 0.950 . S
C277 C276 1.405 . S
C277 C278 1.367 . S
C278 H252 0.950 . S
C278 C273 1.386 . S
C278 C277 1.367 . S
C279 C273 1.483 . S
C279 C280 1.382 . S
C279 C281 1.403 . S
C280 H253 0.950 . S
C280 C266 1.411 . S
C280 C279 1.382 . S
C281 C265 1.411 . S
C281 C279 1.403 . S
C281 C282 1.489 . S
C282 C281 1.489 . S
C282 C283 1.383 . S
C282 C287 1.382 . S
C283 H254 0.950 . S
C283 C282 1.383 . S
C283 C284 1.395 . S
C284 H255 0.950 . S
C284 C283 1.395 . S
C284 C285 1.288 . S
C285 C284 1.288 . S
C285 C286 1.392 . S
C286 H256 0.951 . S
C286 C285 1.392 . S
C286 C287 1.392 . S
C287 H257 0.949 . S
C287 C282 1.382 . S
C287 C286 1.392 . S
H288 C307 0.949 . S
H289 C308 0.950 . S
H290 C310 0.950 . S
H291 C311 0.950 . S
H292 C313 0.950 . S
H293 C316 0.950 . S
H294 C317 0.950 . S
H295 C319 0.951 . S
H296 C320 0.949 . S
H297 C322 0.949 . S
H298 C323 0.950 . S
H299 C325 0.950 . S
H300 C326 0.950 . S
H301 C328 0.950 . S
H302 C331 0.950 . S
H303 C332 0.950 . S
H304 C334 0.951 . S
H305 C335 0.949 . S
C306 C307 1.376 . S
C306 C311 1.386 . S
C306 C312 1.483 . S
C307 H288 0.949 . S
C307 C306 1.376 . S
C307 C308 1.397 . S
C308 H289 0.950 . S
C308 C307 1.397 . S
C308 C309 1.391 . S
C309 C308 1.391 . S
C309 C310 1.405 . S
C310 H290 0.950 . S
C310 C309 1.405 . S
C310 C311 1.367 . S
C311 H291 0.950 . S
C311 C306 1.386 . S
C311 C310 1.367 . S
C312 C306 1.483 . S
C312 C313 1.382 . S
C312 C314 1.403 . S
C313 H292 0.950 . S
C313 C312 1.382 . S
C313 C329 1.411 . S
C314 C312 1.403 . S
C314 C315 1.489 . S
C314 C328 1.411 . S
C315 C314 1.489 . S
C315 C316 1.383 . S
C315 C320 1.382 . S
C316 H293 0.950 . S
C316 C315 1.383 . S
C316 C317 1.395 . S
C317 H294 0.950 . S
C317 C316 1.395 . S
C317 C318 1.288 . S
C318 C317 1.288 . S
C318 C319 1.392 . S
C319 H295 0.951 . S
C319 C318 1.392 . S
C319 C320 1.392 . S
C320 H296 0.949 . S
C320 C315 1.382 . S
C320 C319 1.392 . S
C321 C322 1.376 . S
C321 C326 1.386 . S
C321 C327 1.483 . S
C322 H297 0.949 . S
C322 C321 1.376 . S
C322 C323 1.397 . S
C323 H298 0.950 . S
C323 C322 1.397 . S
C323 C324 1.391 . S
C324 C323 1.391 . S
C324 C325 1.405 . S
C325 H299 0.950 . S
C325 C324 1.405 . S
C325 C326 1.367 . S
C326 H300 0.950 . S
C326 C321 1.386 . S
C326 C325 1.367 . S
C327 C321 1.483 . S
C327 C328 1.382 . S
C327 C329 1.403 . S
C328 H301 0.950 . S
C328 C314 1.411 . S
C328 C327 1.382 . S
C329 C313 1.411 . S
C329 C327 1.403 . S
C329 C330 1.489 . S
C330 C329 1.489 . S
C330 C331 1.383 . S
C330 C335 1.382 . S
C331 H302 0.950 . S
C331 C330 1.383 . S
C331 C332 1.395 . S
C332 H303 0.950 . S
C332 C331 1.395 . S
C332 C333 1.288 . S
C333 C332 1.288 . S
C333 C334 1.392 . S
C334 H304 0.951 . S
C334 C333 1.392 . S
C334 C335 1.392 . S
C335 H305 0.949 . S
C335 C330 1.382 . S
C335 C334 1.392 . S
H336 C355 0.949 . S
H337 C356 0.950 . S
H338 C358 0.950 . S
H339 C359 0.950 . S
H340 C361 0.950 . S
H341 C364 0.950 . S
H342 C365 0.950 . S
H343 C367 0.951 . S
H344 C368 0.949 . S
H345 C370 0.949 . S
H346 C371 0.950 . S
H347 C373 0.950 . S
H348 C374 0.950 . S
H349 C376 0.950 . S
H350 C379 0.950 . S
H351 C380 0.950 . S
H352 C382 0.951 . S
H353 C383 0.949 . S
C354 C355 1.376 . S
C354 C359 1.386 . S
C354 C360 1.483 . S
C355 H336 0.949 . S
C355 C354 1.376 . S
C355 C356 1.397 . S
C356 H337 0.950 . S
C356 C355 1.397 . S
C356 C357 1.391 . S
C357 C356 1.391 . S
C357 C358 1.405 . S
C358 H338 0.950 . S
C358 C357 1.405 . S
C358 C359 1.367 . S
C359 H339 0.950 . S
C359 C354 1.386 . S
C359 C358 1.367 . S
C360 C354 1.483 . S
C360 C361 1.382 . S
C360 C362 1.403 . S
C361 H340 0.950 . S
C361 C360 1.382 . S
C361 C377 1.411 . S
C362 C360 1.403 . S
C362 C363 1.489 . S
C362 C376 1.411 . S
C363 C362 1.489 . S
C363 C364 1.383 . S
C363 C368 1.382 . S
C364 H341 0.950 . S
C364 C363 1.383 . S
C364 C365 1.395 . S
C365 H342 0.950 . S
C365 C364 1.395 . S
C365 C366 1.288 . S
C366 C365 1.288 . S
C366 C367 1.392 . S
C367 H343 0.951 . S
C367 C366 1.392 . S
C367 C368 1.392 . S
C368 H344 0.949 . S
C368 C363 1.382 . S
C368 C367 1.392 . S
C369 C370 1.376 . S
C369 C374 1.386 . S
C369 C375 1.483 . S
C370 H345 0.949 . S
C370 C369 1.376 . S
C370 C371 1.397 . S
C371 H346 0.950 . S
C371 C370 1.397 . S
C371 C372 1.391 . S
C372 C371 1.391 . S
C372 C373 1.405 . S
C373 H347 0.950 . S
C373 C372 1.405 . S
C373 C374 1.367 . S
C374 H348 0.950 . S
C374 C369 1.386 . S
C374 C373 1.367 . S
C375 C369 1.483 . S
C375 C376 1.382 . S
C375 C377 1.403 . S
C376 H349 0.950 . S
C376 C362 1.411 . S
C376 C375 1.382 . S
C377 C361 1.411 . S
C377 C375 1.403 . S
C377 C378 1.489 . S
C378 C377 1.489 . S
C378 C379 1.383 . S
C378 C383 1.382 . S
C379 H350 0.950 . S
C379 C378 1.383 . S
C379 C380 1.395 . S
C380 H351 0.950 . S
C380 C379 1.395 . S
C380 C381 1.288 . S
C381 C380 1.288 . S
C381 C382 1.392 . S
C382 H352 0.951 . S
C382 C381 1.392 . S
C382 C383 1.392 . S
C383 H353 0.949 . S
C383 C378 1.382 . S
C383 C382 1.392 . S
C384 O386 1.247 . S
C384 O388 1.258 . S
C385 O392 1.247 . S
C385 O393 1.258 . S
O386 C384 1.247 . S
O386 Zn387 2.031 1_655 S
Zn387 O386 2.031 1_455 S
Zn387 O391 2.033 . S
Zn387 O393 2.033 . S
Zn387 O394 2.031 1_455 S
O388 C384 1.258 . S
O388 Zn389 2.023 1_655 S
Zn389 O388 2.023 1_455 S
Zn389 O390 2.040 . S
Zn389 O392 2.040 . S
Zn389 O395 2.023 1_455 S
O390 Zn389 2.040 . S
O390 C396 1.247 . S
O391 Zn387 2.033 . S
O391 C396 1.258 . S
O392 C385 1.247 . S
O392 Zn389 2.040 . S
O393 C385 1.258 . S
O393 Zn387 2.033 . S
O394 Zn387 2.031 1_655 S
O394 C397 1.247 . S
O395 Zn389 2.023 1_655 S
O395 C397 1.258 . S
C396 O390 1.247 . S
C396 O391 1.258 . S
C397 O394 1.247 . S
C397 O395 1.258 . S
C398 O400 1.247 . S
C398 O402 1.258 . S
C399 O406 1.247 . S
C399 O407 1.258 . S
O400 C398 1.247 . S
O400 Zn401 2.040 . S
Zn401 O400 2.040 . S
Zn401 O405 2.023 1_545 S
Zn401 O407 2.023 1_545 S
Zn401 O408 2.040 . S
O402 C398 1.258 . S
O402 Zn403 2.033 . S
Zn403 O402 2.033 . S
Zn403 O404 2.030 1_545 S
Zn403 O406 2.030 1_545 S
Zn403 O409 2.033 . S
O404 Zn403 2.030 1_565 S
O404 C410 1.247 . S
O405 Zn401 2.023 1_565 S
O405 C410 1.258 . S
O406 C399 1.247 . S
O406 Zn403 2.030 1_565 S
O407 C399 1.258 . S
O407 Zn401 2.023 1_565 S
O408 Zn401 2.040 . S
O408 C411 1.247 . S
O409 Zn403 2.033 . S
O409 C411 1.258 . S
C410 O404 1.247 . S
C410 O405 1.258 . S
C411 O408 1.247 . S
C411 O409 1.258 . S
C412 O414 1.247 . S
C412 O416 1.258 . S
C413 O420 1.247 . S
C413 O421 1.258 . S
O414 C412 1.247 . S
O414 Zn415 2.030 1_655 S
Zn415 O414 2.030 1_455 S
Zn415 O419 2.033 . S
Zn415 O421 2.033 . S
Zn415 O422 2.030 1_455 S
O416 C412 1.258 . S
O416 Zn417 2.023 1_655 S
Zn417 O416 2.023 1_455 S
Zn417 O418 2.040 . S
Zn417 O420 2.040 . S
Zn417 O423 2.023 1_455 S
O418 Zn417 2.040 . S
O418 C424 1.247 . S
O419 Zn415 2.033 . S
O419 C424 1.258 . S
O420 C413 1.247 . S
O420 Zn417 2.040 . S
O421 C413 1.258 . S
O421 Zn415 2.033 . S
O422 Zn415 2.030 1_655 S
O422 C425 1.247 . S
O423 Zn417 2.023 1_655 S
O423 C425 1.258 . S
C424 O418 1.247 . S
C424 O419 1.258 . S
C425 O422 1.247 . S
C425 O423 1.258 . S
C426 O428 1.247 . S
C426 O430 1.258 . S
C427 O434 1.247 . S
C427 O435 1.258 . S
O428 C426 1.247 . S
O428 Zn429 2.040 . S
Zn429 O428 2.040 . S
Zn429 O433 2.023 1_545 S
Zn429 O435 2.023 1_545 S
Zn429 O436 2.040 . S
O430 C426 1.258 . S
O430 Zn431 2.033 . S
Zn431 O430 2.033 . S
Zn431 O432 2.030 1_545 S
Zn431 O434 2.030 1_545 S
Zn431 O437 2.033 . S
O432 Zn431 2.030 1_565 S
O432 C438 1.247 . S
O433 Zn429 2.023 1_565 S
O433 C438 1.258 . S
O434 C427 1.247 . S
O434 Zn431 2.030 1_565 S
O435 C427 1.258 . S
O435 Zn429 2.023 1_565 S
O436 Zn429 2.040 . S
O436 C439 1.247 . S
O437 Zn431 2.033 . S
O437 C439 1.258 . S
C438 O432 1.247 . S
C438 O433 1.258 . S
C439 O436 1.247 . S
C439 O437 1.258 . S
C440 O442 1.247 . S
C440 O444 1.258 . S
C441 O448 1.247 . S
C441 O449 1.258 . S
O442 C440 1.247 . S
O442 Zn443 2.028 . S
Zn443 O442 2.028 . S
Zn443 O447 2.035 . S
Zn443 O449 2.035 1_554 S
Zn443 O450 2.028 1_554 S
O444 C440 1.258 . S
O444 Zn445 2.035 . S
Zn445 O444 2.035 . S
Zn445 O446 2.028 . S
Zn445 O448 2.028 1_554 S
Zn445 O451 2.035 1_554 S
O446 Zn445 2.028 . S
O446 C452 1.247 . S
O447 Zn443 2.035 . S
O447 C452 1.258 . S
O448 C441 1.247 . S
O448 Zn445 2.028 1_556 S
O449 C441 1.258 . S
O449 Zn443 2.035 1_556 S
O450 Zn443 2.028 1_556 S
O450 C453 1.247 . S
O451 Zn445 2.035 1_556 S
O451 C453 1.258 . S
C452 O446 1.247 . S
C452 O447 1.258 . S
C453 O450 1.247 . S
C453 O451 1.258 . S
C454 O456 1.247 . S
C454 O458 1.258 . S
C455 O462 1.247 . S
C455 O463 1.258 . S
O456 C454 1.247 . S
O456 Zn457 2.028 . S
Zn457 O456 2.028 . S
Zn457 O461 2.035 . S
Zn457 O463 2.035 1_554 S
Zn457 O464 2.028 1_554 S
O458 C454 1.258 . S
O458 Zn459 2.035 . S
Zn459 O458 2.035 . S
Zn459 O460 2.028 . S
Zn459 O462 2.028 1_554 S
Zn459 O465 2.035 1_554 S
O460 Zn459 2.028 . S
O460 C466 1.247 . S
O461 Zn457 2.035 . S
O461 C466 1.258 . S
O462 C455 1.247 . S
O462 Zn459 2.028 1_556 S
O463 C455 1.258 . S
O463 Zn457 2.035 1_556 S
O464 Zn457 2.028 1_556 S
O464 C467 1.247 . S
O465 Zn459 2.035 1_556 S
O465 C467 1.258 . S
C466 O460 1.247 . S
C466 O461 1.258 . S
C467 O464 1.247 . S
C467 O465 1.258 . S
C468 O470 1.247 . S
C468 O472 1.258 . S
C469 O476 1.247 . S
C469 O477 1.258 . S
O470 C468 1.247 . S
O470 Zn471 2.028 1_556 S
Zn471 O470 2.028 1_554 S
Zn471 O475 2.035 1_554 S
Zn471 O477 2.035 . S
Zn471 O478 2.028 . S
O472 C468 1.258 . S
O472 Zn473 2.035 1_556 S
Zn473 O472 2.035 1_554 S
Zn473 O474 2.028 1_554 S
Zn473 O476 2.028 . S
Zn473 O479 2.035 . S
O474 Zn473 2.028 1_556 S
O474 C480 1.247 . S
O475 Zn471 2.035 1_556 S
O475 C480 1.258 . S
O476 C469 1.247 . S
O476 Zn473 2.028 . S
O477 C469 1.258 . S
O477 Zn471 2.035 . S
O478 Zn471 2.028 . S
O478 C481 1.247 . S
O479 Zn473 2.035 . S
O479 C481 1.258 . S
C480 O474 1.247 . S
C480 O475 1.258 . S
C481 O478 1.247 . S
C481 O479 1.258 . S
C482 O484 1.247 . S
C482 O486 1.258 . S
C483 O490 1.247 . S
C483 O491 1.258 . S
O484 C482 1.247 . S
O484 Zn485 2.028 . S
Zn485 O484 2.028 . S
Zn485 O489 2.035 . S
Zn485 O491 2.035 1_554 S
Zn485 O492 2.028 1_554 S
O486 C482 1.258 . S
O486 Zn487 2.035 . S
Zn487 O486 2.035 . S
Zn487 O488 2.028 . S
Zn487 O490 2.028 1_554 S
Zn487 O493 2.035 1_554 S
O488 Zn487 2.028 . S
O488 C494 1.247 . S
O489 Zn485 2.035 . S
O489 C494 1.258 . S
O490 C483 1.247 . S
O490 Zn487 2.028 1_556 S
O491 C483 1.258 . S
O491 Zn485 2.035 1_556 S
O492 Zn485 2.028 1_556 S
O492 C495 1.247 . S
O493 Zn487 2.035 1_556 S
O493 C495 1.258 . S
C494 O488 1.247 . S
C494 O489 1.258 . S
C495 O492 1.247 . S
C495 O493 1.258 . S
C496 C497 1.369 . S
C496 C498 1.419 . S
C496 H500 0.930 . S
C497 C496 1.369 . S
C497 C506 1.429 . S
C498 C496 1.419 . S
C498 C499 1.363 . S
C498 H501 0.929 . S
C499 C498 1.363 . S
C499 C505 1.428 . S
H500 C496 0.930 . S
H501 C498 0.929 . S
S502 N503 1.613 . S
S502 N504 1.610 . S
N503 S502 1.613 . S
N503 C506 1.350 . S
N504 S502 1.610 . S
N504 C505 1.351 . S
C505 C499 1.428 . S
C505 N504 1.351 . S
C505 C506 1.434 . S
C506 C497 1.429 . S
C506 N503 1.350 . S
C506 C505 1.434 . S
C507 C508 1.369 . S
C507 C509 1.419 . S
C507 H511 0.930 . S
C508 C507 1.369 . S
C508 C517 1.429 . S
C509 C507 1.419 . S
C509 C510 1.363 . S
C509 H512 0.929 . S
C510 C509 1.363 . S
C510 C516 1.428 . S
H511 C507 0.930 . S
H512 C509 0.929 . S
S513 N514 1.613 . S
S513 N515 1.610 . S
N514 S513 1.613 . S
N514 C517 1.350 . S
N515 S513 1.610 . S
N515 C516 1.351 . S
C516 C510 1.428 . S
C516 N515 1.351 . S
C516 C517 1.434 . S
C517 C508 1.429 . S
C517 N514 1.350 . S
C517 C516 1.434 . S
C518 C519 1.369 . S
C518 C520 1.419 . S
C518 H522 0.930 . S
C519 C518 1.369 . S
C519 C528 1.429 . S
C520 C518 1.419 . S
C520 C521 1.363 . S
C520 H523 0.929 . S
C521 C520 1.363 . S
C521 C527 1.428 . S
H522 C518 0.930 . S
H523 C520 0.929 . S
S524 N525 1.613 . S
S524 N526 1.610 . S
N525 S524 1.613 . S
N525 C528 1.350 . S
N526 S524 1.610 . S
N526 C527 1.351 . S
C527 C521 1.428 . S
C527 N526 1.351 . S
C527 C528 1.434 . S
C528 C519 1.429 . S
C528 N525 1.350 . S
C528 C527 1.434 . S
C529 C530 1.369 . S
C529 C531 1.419 . S
C529 H533 0.930 . S
C530 C529 1.369 . S
C530 C539 1.429 . S
C531 C529 1.419 . S
C531 C532 1.363 . S
C531 H534 0.929 . S
C532 C531 1.363 . S
C532 C538 1.428 . S
H533 C529 0.930 . S
H534 C531 0.929 . S
S535 N536 1.613 . S
S535 N537 1.610 . S
N536 S535 1.613 . S
N536 C539 1.350 . S
N537 S535 1.610 . S
N537 C538 1.351 . S
C538 C532 1.428 . S
C538 N537 1.351 . S
C538 C539 1.434 . S
C539 C530 1.429 . S
C539 N536 1.350 . S
C539 C538 1.434 . S
C540 C541 1.369 . S
C540 C542 1.419 . S
C540 H544 0.930 . S
C541 C540 1.369 . S
C541 C550 1.429 . S
C542 C540 1.419 . S
C542 C543 1.363 . S
C542 H545 0.929 . S
C543 C542 1.363 . S
C543 C549 1.428 . S
H544 C540 0.930 . S
H545 C542 0.929 . S
S546 N547 1.613 . S
S546 N548 1.610 . S
N547 S546 1.613 . S
N547 C550 1.350 . S
N548 S546 1.610 . S
N548 C549 1.351 . S
C549 C543 1.428 . S
C549 N548 1.351 . S
C549 C550 1.434 . S
C550 C541 1.429 . S
C550 N547 1.350 . S
C550 C549 1.434 . S
C551 C552 1.369 . S
C551 C553 1.419 . S
C551 H555 0.930 . S
C552 C551 1.369 . S
C552 C561 1.429 . S
C553 C551 1.419 . S
C553 C554 1.363 . S
C553 H556 0.929 . S
C554 C553 1.363 . S
C554 C560 1.428 . S
H555 C551 0.930 . S
H556 C553 0.929 . S
S557 N558 1.613 . S
S557 N559 1.610 . S
N558 S557 1.613 . S
N558 C561 1.350 . S
N559 S557 1.610 . S
N559 C560 1.351 . S
C560 C554 1.428 . S
C560 N559 1.351 . S
C560 C561 1.434 . S
C561 C552 1.429 . S
C561 N558 1.350 . S
C561 C560 1.434 . S
C562 C563 1.369 . S
C562 C564 1.419 . S
C562 H566 0.930 . S
C563 C562 1.369 . S
C563 C572 1.429 . S
C564 C562 1.419 . S
C564 C565 1.363 . S
C564 H567 0.929 . S
C565 C564 1.363 . S
C565 C571 1.428 . S
H566 C562 0.930 . S
H567 C564 0.929 . S
S568 N569 1.613 . S
S568 N570 1.610 . S
N569 S568 1.613 . S
N569 C572 1.350 . S
N570 S568 1.610 . S
N570 C571 1.351 . S
C571 C565 1.428 . S
C571 N570 1.351 . S
C571 C572 1.434 . S
C572 C563 1.429 . S
C572 N569 1.350 . S
C572 C571 1.434 . S
C573 C574 1.369 . S
C573 C575 1.419 . S
C573 H577 0.930 . S
C574 C573 1.369 . S
C574 C583 1.429 . S
C575 C573 1.419 . S
C575 C576 1.363 . S
C575 H578 0.929 . S
C576 C575 1.363 . S
C576 C582 1.428 . S
H577 C573 0.930 . S
H578 C575 0.929 . S
S579 N580 1.613 . S
S579 N581 1.610 . S
N580 S579 1.613 . S
N580 C583 1.350 . S
N581 S579 1.610 . S
N581 C582 1.351 . S
C582 C576 1.428 . S
C582 N581 1.351 . S
C582 C583 1.434 . S
C583 C574 1.429 . S
C583 N580 1.350 . S
C583 C582 1.434 . S
C584 C585 1.369 . S
C584 C586 1.419 . S
C584 H588 0.930 . S
C585 C584 1.369 . S
C585 C594 1.429 . S
C586 C584 1.419 . S
C586 C587 1.363 . S
C586 H589 0.929 . S
C587 C586 1.363 . S
C587 C593 1.428 . S
H588 C584 0.930 . S
H589 C586 0.929 . S
S590 N591 1.613 . S
S590 N592 1.610 . S
N591 S590 1.613 . S
N591 C594 1.350 . S
N592 S590 1.610 . S
N592 C593 1.351 . S
C593 C587 1.428 . S
C593 N592 1.351 . S
C593 C594 1.434 . S
C594 C585 1.429 . S
C594 N591 1.350 . S
C594 C593 1.434 . S
C595 C596 1.369 . S
C595 C597 1.419 . S
C595 H599 0.930 . S
C596 C595 1.369 . S
C596 C605 1.429 . S
C597 C595 1.419 . S
C597 C598 1.363 . S
C597 H600 0.929 . S
C598 C597 1.363 . S
C598 C604 1.428 . S
H599 C595 0.930 . S
H600 C597 0.929 . S
S601 N602 1.613 . S
S601 N603 1.610 . S
N602 S601 1.613 . S
N602 C605 1.350 . S
N603 S601 1.610 . S
N603 C604 1.351 . S
C604 C598 1.428 . S
C604 N603 1.351 . S
C604 C605 1.434 . S
C605 C596 1.429 . S
C605 N602 1.350 . S
C605 C604 1.434 . S
C606 C607 1.369 . S
C606 C608 1.419 . S
C606 H610 0.930 . S
C607 C606 1.369 . S
C607 C616 1.429 . S
C608 C606 1.419 . S
C608 C609 1.363 . S
C608 H611 0.929 . S
C609 C608 1.363 . S
C609 C615 1.428 . S
H610 C606 0.930 . S
H611 C608 0.929 . S
S612 N613 1.613 . S
S612 N614 1.610 . S
N613 S612 1.613 . S
N613 C616 1.350 . S
N614 S612 1.610 . S
N614 C615 1.351 . S
C615 C609 1.428 . S
C615 N614 1.351 . S
C615 C616 1.434 . S
C616 C607 1.429 . S
C616 N613 1.350 . S
C616 C615 1.434 . S
C617 C618 1.369 . S
C617 C619 1.419 . S
C617 H621 0.930 . S
C618 C617 1.369 . S
C618 C627 1.429 . S
C619 C617 1.419 . S
C619 C620 1.363 . S
C619 H622 0.929 . S
C620 C619 1.363 . S
C620 C626 1.428 . S
H621 C617 0.930 . S
H622 C619 0.929 . S
S623 N624 1.613 . S
S623 N625 1.610 . S
N624 S623 1.613 . S
N624 C627 1.350 . S
N625 S623 1.610 . S
N625 C626 1.351 . S
C626 C620 1.428 . S
C626 N625 1.351 . S
C626 C627 1.434 . S
C627 C618 1.429 . S
C627 N624 1.350 . S
C627 C626 1.434 . S
C628 C629 1.369 . S
C628 C630 1.419 . S
C628 H632 0.930 . S
C629 C628 1.369 . S
C629 C638 1.429 . S
C630 C628 1.419 . S
C630 C631 1.363 . S
C630 H633 0.929 . S
C631 C630 1.363 . S
C631 C637 1.428 . S
H632 C628 0.930 . S
H633 C630 0.929 . S
S634 N635 1.613 . S
S634 N636 1.610 . S
N635 S634 1.613 . S
N635 C638 1.350 . S
N636 S634 1.610 . S
N636 C637 1.351 . S
C637 C631 1.428 . S
C637 N636 1.351 . S
C637 C638 1.434 . S
C638 C629 1.429 . S
C638 N635 1.350 . S
C638 C637 1.434 . S
C639 C640 1.369 . S
C639 C641 1.419 . S
C639 H643 0.930 . S
C640 C639 1.369 . S
C640 C649 1.429 . S
C641 C639 1.419 . S
C641 C642 1.363 . S
C641 H644 0.929 . S
C642 C641 1.363 . S
C642 C648 1.428 . S
H643 C639 0.930 . S
H644 C641 0.929 . S
S645 N646 1.613 . S
S645 N647 1.610 . S
N646 S645 1.613 . S
N646 C649 1.350 . S
N647 S645 1.610 . S
N647 C648 1.351 . S
C648 C642 1.428 . S
C648 N647 1.351 . S
C648 C649 1.434 . S
C649 C640 1.429 . S
C649 N646 1.350 . S
C649 C648 1.434 . S
C650 C651 1.369 . S
C650 C652 1.419 . S
C650 H654 0.930 . S
C651 C650 1.369 . S
C651 C660 1.429 . S
C652 C650 1.419 . S
C652 C653 1.363 . S
C652 H655 0.929 . S
C653 C652 1.363 . S
C653 C659 1.428 . S
H654 C650 0.930 . S
H655 C652 0.929 . S
S656 N657 1.613 . S
S656 N658 1.610 . S
N657 S656 1.613 . S
N657 C660 1.350 . S
N658 S656 1.610 . S
N658 C659 1.351 . S
C659 C653 1.428 . S
C659 N658 1.351 . S
C659 C660 1.434 . S
C660 C651 1.429 . S
C660 N657 1.350 . S
C660 C659 1.434 . S
C661 C662 1.369 . S
C661 C663 1.419 . S
C661 H665 0.930 . S
C662 C661 1.369 . S
C662 C671 1.429 . S
C663 C661 1.419 . S
C663 C664 1.363 . S
C663 H666 0.929 . S
C664 C663 1.363 . S
C664 C670 1.428 . S
H665 C661 0.930 . S
H666 C663 0.929 . S
S667 N668 1.613 . S
S667 N669 1.610 . S
N668 S667 1.613 . S
N668 C671 1.350 . S
N669 S667 1.610 . S
N669 C670 1.351 . S
C670 C664 1.428 . S
C670 N669 1.351 . S
C670 C671 1.434 . S
C671 C662 1.429 . S
C671 N668 1.350 . S
C671 C670 1.434 . S
C672 C673 1.369 . S
C672 C674 1.419 . S
C672 H676 0.930 . S
C673 C672 1.369 . S
C673 C682 1.429 . S
C674 C672 1.419 . S
C674 C675 1.363 . S
C674 H677 0.929 . S
C675 C674 1.363 . S
C675 C681 1.428 . S
H676 C672 0.930 . S
H677 C674 0.929 . S
S678 N679 1.613 . S
S678 N680 1.610 . S
N679 S678 1.613 . S
N679 C682 1.350 . S
N680 S678 1.610 . S
N680 C681 1.351 . S
C681 C675 1.428 . S
C681 N680 1.351 . S
C681 C682 1.434 . S
C682 C673 1.429 . S
C682 N679 1.350 . S
C682 C681 1.434 . S
C683 C684 1.369 . S
C683 C685 1.419 . S
C683 H687 0.930 . S
C684 C683 1.369 . S
C684 C693 1.429 . S
C685 C683 1.419 . S
C685 C686 1.363 . S
C685 H688 0.929 . S
C686 C685 1.363 . S
C686 C692 1.428 . S
H687 C683 0.930 . S
H688 C685 0.929 . S
S689 N690 1.613 . S
S689 N691 1.610 . S
N690 S689 1.613 . S
N690 C693 1.350 . S
N691 S689 1.610 . S
N691 C692 1.351 . S
C692 C686 1.428 . S
C692 N691 1.351 . S
C692 C693 1.434 . S
C693 C684 1.429 . S
C693 N690 1.350 . S
C693 C692 1.434 . S
C694 C695 1.369 . S
C694 C696 1.419 . S
C694 H698 0.930 . S
C695 C694 1.369 . S
C695 C704 1.429 . S
C696 C694 1.419 . S
C696 C697 1.363 . S
C696 H699 0.929 . S
C697 C696 1.363 . S
C697 C703 1.428 . S
H698 C694 0.930 . S
H699 C696 0.929 . S
S700 N701 1.613 . S
S700 N702 1.610 . S
N701 S700 1.613 . S
N701 C704 1.350 . S
N702 S700 1.610 . S
N702 C703 1.351 . S
C703 C697 1.428 . S
C703 N702 1.351 . S
C703 C704 1.434 . S
C704 C695 1.429 . S
C704 N701 1.350 . S
C704 C703 1.434 . S
C705 C706 1.369 . S
C705 C707 1.419 . S
C705 H709 0.930 . S
C706 C705 1.369 . S
C706 C715 1.429 . S
C707 C705 1.419 . S
C707 C708 1.363 . S
C707 H710 0.929 . S
C708 C707 1.363 . S
C708 C714 1.428 . S
H709 C705 0.930 . S
H710 C707 0.929 . S
S711 N712 1.613 . S
S711 N713 1.610 . S
N712 S711 1.613 . S
N712 C715 1.350 . S
N713 S711 1.610 . S
N713 C714 1.351 . S
C714 C708 1.428 . S
C714 N713 1.351 . S
C714 C715 1.434 . S
C715 C706 1.429 . S
C715 N712 1.350 . S
C715 C714 1.434 . S
C716 C717 1.369 . S
C716 C718 1.419 . S
C716 H720 0.930 . S
C717 C716 1.369 . S
C717 C726 1.429 . S
C718 C716 1.419 . S
C718 C719 1.363 . S
C718 H721 0.929 . S
C719 C718 1.363 . S
C719 C725 1.428 . S
H720 C716 0.930 . S
H721 C718 0.929 . S
S722 N723 1.613 . S
S722 N724 1.610 . S
N723 S722 1.613 . S
N723 C726 1.350 . S
N724 S722 1.610 . S
N724 C725 1.351 . S
C725 C719 1.428 . S
C725 N724 1.351 . S
C725 C726 1.434 . S
C726 C717 1.429 . S
C726 N723 1.350 . S
C726 C725 1.434 . S
C727 C728 1.369 . S
C727 C729 1.419 . S
C727 H731 0.930 . S
C728 C727 1.369 . S
C728 C737 1.429 . S
C729 C727 1.419 . S
C729 C730 1.363 . S
C729 H732 0.929 . S
C730 C729 1.363 . S
C730 C736 1.428 . S
H731 C727 0.930 . S
H732 C729 0.929 . S
S733 N734 1.613 . S
S733 N735 1.610 . S
N734 S733 1.613 . S
N734 C737 1.350 . S
N735 S733 1.610 . S
N735 C736 1.351 . S
C736 C730 1.428 . S
C736 N735 1.351 . S
C736 C737 1.434 . S
C737 C728 1.429 . S
C737 N734 1.350 . S
C737 C736 1.434 . S
C738 C739 1.369 . S
C738 C740 1.419 . S
C738 H742 0.930 . S
C739 C738 1.369 . S
C739 C748 1.429 . S
C740 C738 1.419 . S
C740 C741 1.363 . S
C740 H743 0.929 . S
C741 C740 1.363 . S
C741 C747 1.428 . S
H742 C738 0.930 . S
H743 C740 0.929 . S
S744 N745 1.613 . S
S744 N746 1.610 . S
N745 S744 1.613 . S
N745 C748 1.350 . S
N746 S744 1.610 . S
N746 C747 1.351 . S
C747 C741 1.428 . S
C747 N746 1.351 . S
C747 C748 1.434 . S
C748 C739 1.429 . S
C748 N745 1.350 . S
C748 C747 1.434 . S
C749 C750 1.369 . S
C749 C751 1.419 . S
C749 H753 0.930 . S
C750 C749 1.369 . S
C750 C759 1.429 . S
C751 C749 1.419 . S
C751 C752 1.363 . S
C751 H754 0.929 . S
C752 C751 1.363 . S
C752 C758 1.428 . S
H753 C749 0.930 . S
H754 C751 0.929 . S
S755 N756 1.613 . S
S755 N757 1.610 . S
N756 S755 1.613 . S
N756 C759 1.350 . S
N757 S755 1.610 . S
N757 C758 1.351 . S
C758 C752 1.428 . S
C758 N757 1.351 . S
C758 C759 1.434 . S
C759 C750 1.429 . S
C759 N756 1.350 . S
C759 C758 1.434 . S
C760 C761 1.369 . S
C760 C762 1.419 . S
C760 H764 0.930 . S
C761 C760 1.369 . S
C761 C770 1.429 . S
C762 C760 1.419 . S
C762 C763 1.363 . S
C762 H765 0.929 . S
C763 C762 1.363 . S
C763 C769 1.428 . S
H764 C760 0.930 . S
H765 C762 0.929 . S
S766 N767 1.613 . S
S766 N768 1.610 . S
N767 S766 1.613 . S
N767 C770 1.350 . S
N768 S766 1.610 . S
N768 C769 1.351 . S
C769 C763 1.428 . S
C769 N768 1.351 . S
C769 C770 1.434 . S
C770 C761 1.429 . S
C770 N767 1.350 . S
C770 C769 1.434 . S
C771 C772 1.369 . S
C771 C773 1.419 . S
C771 H775 0.930 . S
C772 C771 1.369 . S
C772 C781 1.429 . S
C773 C771 1.419 . S
C773 C774 1.363 . S
C773 H776 0.929 . S
C774 C773 1.363 . S
C774 C780 1.428 . S
H775 C771 0.930 . S
H776 C773 0.929 . S
S777 N778 1.613 . S
S777 N779 1.610 . S
N778 S777 1.613 . S
N778 C781 1.350 . S
N779 S777 1.610 . S
N779 C780 1.351 . S
C780 C774 1.428 . S
C780 N779 1.351 . S
C780 C781 1.434 . S
C781 C772 1.429 . S
C781 N778 1.350 . S
C781 C780 1.434 . S
C782 C783 1.369 . S
C782 C784 1.419 . S
C782 H786 0.930 . S
C783 C782 1.369 . S
C783 C792 1.429 . S
C784 C782 1.419 . S
C784 C785 1.363 . S
C784 H787 0.929 . S
C785 C784 1.363 . S
C785 C791 1.428 . S
H786 C782 0.930 . S
H787 C784 0.929 . S
S788 N789 1.613 . S
S788 N790 1.610 . S
N789 S788 1.613 . S
N789 C792 1.350 . S
N790 S788 1.610 . S
N790 C791 1.351 . S
C791 C785 1.428 . S
C791 N790 1.351 . S
C791 C792 1.434 . S
C792 C783 1.429 . S
C792 N789 1.350 . S
C792 C791 1.434 . S
C793 C794 1.369 . S
C793 C795 1.419 . S
C793 H797 0.930 . S
C794 C793 1.369 . S
C794 C803 1.429 . S
C795 C793 1.419 . S
C795 C796 1.363 . S
C795 H798 0.929 . S
C796 C795 1.363 . S
C796 C802 1.428 . S
H797 C793 0.930 . S
H798 C795 0.929 . S
S799 N800 1.613 . S
S799 N801 1.610 . S
N800 S799 1.613 . S
N800 C803 1.350 . S
N801 S799 1.610 . S
N801 C802 1.351 . S
C802 C796 1.428 . S
C802 N801 1.351 . S
C802 C803 1.434 . S
C803 C794 1.429 . S
C803 N800 1.350 . S
C803 C802 1.434 . S
C804 C805 1.369 . S
C804 C806 1.419 . S
C804 H808 0.930 . S
C805 C804 1.369 . S
C805 C814 1.429 . S
C806 C804 1.419 . S
C806 C807 1.363 . S
C806 H809 0.929 . S
C807 C806 1.363 . S
C807 C813 1.428 . S
H808 C804 0.930 . S
H809 C806 0.929 . S
S810 N811 1.613 . S
S810 N812 1.610 . S
N811 S810 1.613 . S
N811 C814 1.350 . S
N812 S810 1.610 . S
N812 C813 1.351 . S
C813 C807 1.428 . S
C813 N812 1.351 . S
C813 C814 1.434 . S
C814 C805 1.429 . S
C814 N811 1.350 . S
C814 C813 1.434 . S
C815 C816 1.369 . S
C815 C817 1.419 . S
C815 H819 0.930 . S
C816 C815 1.369 . S
C816 C825 1.429 . S
C817 C815 1.419 . S
C817 C818 1.363 . S
C817 H820 0.929 . S
C818 C817 1.363 . S
C818 C824 1.428 . S
H819 C815 0.930 . S
H820 C817 0.929 . S
S821 N822 1.613 . S
S821 N823 1.610 . S
N822 S821 1.613 . S
N822 C825 1.350 . S
N823 S821 1.610 . S
N823 C824 1.351 . S
C824 C818 1.428 . S
C824 N823 1.351 . S
C824 C825 1.434 . S
C825 C816 1.429 . S
C825 N822 1.350 . S
C825 C824 1.434 . S
C826 C827 1.369 . S
C826 C828 1.419 . S
C826 H830 0.930 . S
C827 C826 1.369 . S
C827 C836 1.429 . S
C828 C826 1.419 . S
C828 C829 1.363 . S
C828 H831 0.929 . S
C829 C828 1.363 . S
C829 C835 1.428 . S
H830 C826 0.930 . S
H831 C828 0.929 . S
S832 N833 1.613 . S
S832 N834 1.610 . S
N833 S832 1.613 . S
N833 C836 1.350 . S
N834 S832 1.610 . S
N834 C835 1.351 . S
C835 C829 1.428 . S
C835 N834 1.351 . S
C835 C836 1.434 . S
C836 C827 1.429 . S
C836 N833 1.350 . S
C836 C835 1.434 . S
C837 C838 1.369 . S
C837 C839 1.419 . S
C837 H841 0.930 . S
C838 C837 1.369 . S
C838 C847 1.429 . S
C839 C837 1.419 . S
C839 C840 1.363 . S
C839 H842 0.929 . S
C840 C839 1.363 . S
C840 C846 1.428 . S
H841 C837 0.930 . S
H842 C839 0.929 . S
S843 N844 1.613 . S
S843 N845 1.610 . S
N844 S843 1.613 . S
N844 C847 1.350 . S
N845 S843 1.610 . S
N845 C846 1.351 . S
C846 C840 1.428 . S
C846 N845 1.351 . S
C846 C847 1.434 . S
C847 C838 1.429 . S
C847 N844 1.350 . S
C847 C846 1.434 . S
C499 C385 1.501 . S
C497 C36 1.501 . S
C510 C411 1.501 . S
C508 C93 1.495 . S
C521 C425 1.500 . S
C519 C132 1.502 . S
C532 C427 1.499 . S
C530 C174 1.497 . S
C541 C213 1.502 . S
C543 C424 1.501 . S
C554 C426 1.500 . S
C552 C285 1.498 . S
C565 C384 1.501 . S
C563 C324 1.502 . S
C576 C410 1.501 . S
C574 C366 1.499 . S
C587 C412 1.500 . S
C585 C357 1.502 . S
C598 C438 1.500 . S
C596 C222 1.496 . S
C609 C396 1.501 . S
C607 C276 1.503 . S
C620 C398 1.500 . S
C618 C333 1.497 . S
C631 C397 1.501 . S
C629 C84 1.502 . S
C642 C399 1.501 . S
C640 C141 1.498 . S
C653 C413 1.500 . S
C651 C165 1.502 . S
C664 C439 1.501 . S
C662 C45 1.499 . S
C675 C441 1.500 . S
C673 C372 1.504 . S
C684 C237 1.497 . S
C686 C467 1.501 . S
C695 C261 1.502 . S
C697 C480 1.502 . S
C706 C318 1.497 . S
C708 C483 1.501 . S
C717 C69 1.502 . S
C719 C481 1.499 . S
C728 C126 1.497 . S
C730 C482 1.499 . S
C739 C180 1.502 . S
C741 C440 1.500 . S
C752 C466 1.500 . S
C750 C30 1.495 . S
C763 C469 1.501 . S
C761 C21 1.501 . S
C772 C78 1.498 . S
C774 C494 1.498 . S
C783 C117 1.502 . S
C785 C452 1.500 . S
C794 C189 1.497 . S
C796 C454 1.498 . S
C807 C453 1.502 . S
C805 C228 1.504 . S
C818 C455 1.500 . S
C816 C270 1.499 . S
C827 C309 1.501 . S
C829 C468 1.503 . S
C840 C495 1.501 . S
C838 C381 1.500 . S
