# Generated by pormake.
# Topology tsx, (6,3)-cn, num edge types: 1
# Building blocks:
#     Node 0, Type 0, BuildingBlock: FUNLAD_clean_sbu_0, # of connection points: 6
#     Node 1, Type 0, BuildingBlock: FUNLAD_clean_sbu_0, # of connection points: 6
#     Node 2, Type 1, BuildingBlock: VETTIZ_charged_linker_0, # of connection points: 3
#     Node 3, Type 1, BuildingBlock: VETTIZ_charged_linker_0, # of connection points: 3
#     Node 4, Type 1, BuildingBlock: VETTIZ_charged_linker_0, # of connection points: 3
#     Node 5, Type 1, BuildingBlock: VETTIZ_charged_linker_0, # of connection points: 3
#     Edge 6, Type (0, 1), BuildingBlock: UVAHIK_clean_linker_0, # of connection points: 2
#     Edge 7, Type (0, 1), BuildingBlock: UVAHIK_clean_linker_0, # of connection points: 2
#     Edge 8, Type (0, 1), BuildingBlock: UVAHIK_clean_linker_0, # of connection points: 2
#     Edge 9, Type (0, 1), BuildingBlock: UVAHIK_clean_linker_0, # of connection points: 2
#     Edge 10, Type (0, 1), BuildingBlock: UVAHIK_clean_linker_0, # of connection points: 2
#     Edge 11, Type (0, 1), BuildingBlock: UVAHIK_clean_linker_0, # of connection points: 2
#     Edge 12, Type (0, 1), BuildingBlock: UVAHIK_clean_linker_0, # of connection points: 2
#     Edge 13, Type (0, 1), BuildingBlock: UVAHIK_clean_linker_0, # of connection points: 2
#     Edge 14, Type (0, 1), BuildingBlock: UVAHIK_clean_linker_0, # of connection points: 2
#     Edge 15, Type (0, 1), BuildingBlock: UVAHIK_clean_linker_0, # of connection points: 2
#     Edge 16, Type (0, 1), BuildingBlock: UVAHIK_clean_linker_0, # of connection points: 2
#     Edge 17, Type (0, 1), BuildingBlock: UVAHIK_clean_linker_0, # of connection points: 2
# Relax obj value: 0.169
# Max RMSD: 0.158
# Mean RMSD: 0.098
data_MOF--net-tsx--node1-FUNLAD_clean_sbu_0--node2-VETTIZ_charged_linker_0--edge1-UVAHIK_clean_linker_0
_symmetry_space_group_name_H-M    P1
_symmetry_Int_Tables_number       1
_symmetry_cell_setting            triclinic
loop_
_symmetry_equiv_pos_as_xyz
'x, y, z'
_cell_length_a     28.690423
_cell_length_b     31.786233
_cell_length_c     60.951974
_cell_angle_alpha  90.86631
_cell_angle_beta   92.109626
_cell_angle_gamma 89.921318
loop_
_atom_site_label
_atom_site_type_symbol
_atom_site_fract_x
_atom_site_fract_y
_atom_site_fract_z
_atom_type_partial_charge
C0 C 0.95917 0.94683 -0.00502 0.0
N1 N 0.02165 0.00874 0.04917 0.0
C2 C 0.97908 0.01004 0.05829 0.0
C3 C 0.97542 0.00779 0.08095 0.0
C4 C 0.01587 0.00327 0.0943 0.0
C5 C 0.05938 0.00183 0.08458 0.0
C6 C 0.06153 0.00508 0.06181 0.0
Zn7 Zn 0.02409 0.01015 0.01583 0.0
C8 C 0.09489 0.95314 -0.00164 0.0
N9 N 0.02565 0.01242 0.94605 0.0
C10 C 0.98658 0.00467 0.93329 0.0
C11 C 0.06792 0.01767 0.93703 0.0
C12 C 0.07218 0.01471 0.91437 0.0
C13 C 0.03276 0.00543 0.90093 0.0
C14 C 0.98946 0.00062 0.91054 0.0
Zn15 Zn 0.02293 0.01229 0.97941 0.0
O16 O 0.97513 0.96043 0.01346 0.0
C17 C 0.95204 0.06917 -0.00323 0.0
O18 O 0.97339 0.96287 0.97749 0.0
H19 H 0.09868 0.02314 0.94745 0.0
H20 H 0.94776 0.01227 0.04796 0.0
H21 H 0.95331 0.00074 0.94078 0.0
O22 O 0.96912 0.05474 0.01465 0.0
O23 O 0.96826 0.05673 0.97866 0.0
H24 H 0.09501 0.00423 0.05422 0.0
O25 O 0.07146 0.06193 0.98184 0.0
O26 O 0.07307 0.06031 0.01784 0.0
O27 O 0.07797 0.96786 0.98052 0.0
O28 O 0.07866 0.96541 0.01646 0.0
C29 C 0.08677 0.07648 0.00023 0.0
H30 H 0.94126 0.00854 0.08796 0.0
H31 H 0.09125 -0.00152 0.09449 0.0
H32 H 0.1062 0.01821 0.90747 0.0
H33 H 0.95831 0.99366 0.90056 0.0
C34 C 0.46286 0.45283 0.49905 0.0
N35 N 0.53011 0.51751 0.5509 0.0
C36 C 0.48812 0.52055 0.56048 0.0
C37 C 0.48546 0.51873 0.5832 0.0
C38 C 0.52626 0.51284 0.59613 0.0
C39 C 0.56919 0.50989 0.58595 0.0
C40 C 0.57039 0.51278 0.56313 0.0
Zn41 Zn 0.5307 0.51684 0.51751 0.0
C42 C 0.59897 0.45673 0.50015 0.0
N43 N 0.52771 0.51329 0.4477 0.0
C44 C 0.48817 0.50548 0.43529 0.0
C45 C 0.56952 0.51885 0.4383 0.0
C46 C 0.57269 0.51693 0.41558 0.0
C47 C 0.53269 0.5083 0.40245 0.0
C48 C 0.48998 0.5024 0.41245 0.0
Zn49 Zn 0.52668 0.51493 0.48109 0.0
O50 O 0.47995 0.4692 0.51669 0.0
C51 C 0.45833 0.57486 0.49823 0.0
O52 O 0.47699 0.46526 0.48073 0.0
H53 H 0.6007 0.52427 0.44844 0.0
H54 H 0.45642 0.52354 0.55048 0.0
H55 H 0.4553 0.50123 0.4431 0.0
O56 O 0.47734 0.56288 0.51622 0.0
O57 O 0.47209 0.55947 0.48022 0.0
H58 H 0.60339 0.5105 0.55518 0.0
O59 O 0.5754 0.56482 0.48206 0.0
O60 O 0.5811 0.56525 0.51804 0.0
O61 O 0.58146 0.4706 0.48224 0.0
O62 O 0.58381 0.47035 0.51823 0.0
C63 C 0.59289 0.58023 0.49985 0.0
H64 H 0.45169 0.52059 0.59056 0.0
H65 H 0.60131 0.5054 0.59554 0.0
H66 H 0.60627 0.52117 0.40835 0.0
H67 H 0.45845 0.49577 0.40269 0.0
C68 C 0.05702 0.88159 0.46628 0.0
C69 C 0.0785 0.846 0.45712 0.0
C70 C 0.06974 0.83583 0.43477 0.0
C71 C 0.02083 0.89736 0.43072 0.0
C72 C 0.02793 0.90652 0.45284 0.0
C73 C 0.00148 0.9451 0.45979 0.0
H74 H 0.86338 0.10951 0.43093 0.0
C75 C 0.99002 0.92984 0.42115 0.0
C76 C 0.97763 0.95747 0.43816 0.0
H77 H 0.92024 0.0809 0.49551 0.0
H78 H 0.95458 0.01656 0.48119 0.0
H79 H 0.95755 0.08471 0.40525 0.0
H80 H 0.82972 0.02054 0.41787 0.0
H81 H 0.8469 0.00135 0.39224 0.0
H82 H 0.83339 0.05658 0.39565 0.0
H83 H 0.90136 0.09998 0.39408 0.0
H84 H 0.93631 0.06144 0.38051 0.0
C85 C 0.03728 0.97856 0.46823 0.0
C86 C 0.96584 0.93218 0.47692 0.0
C87 C 0.96646 0.93865 0.33833 0.0
C88 C 0.94013 0.96602 0.32476 0.0
C89 C 0.9091 0.99451 0.3346 0.0
C90 C 0.90695 -0.00206 0.35743 0.0
C91 C 0.93593 0.97253 0.3707 0.0
C92 C 0.96342 0.94219 0.36117 0.0
C93 C 0.98891 0.91577 0.37804 0.0
C94 C 0.9745 0.93734 0.39919 0.0
C95 C 0.9442 0.97098 0.39468 0.0
C96 C 0.04193 0.91992 0.37466 0.0
C97 C 0.97021 0.87002 0.37591 0.0
C98 C 0.8837 0.08971 0.442 0.0
C99 C 0.8899 0.10051 0.46433 0.0
C100 C 0.91527 0.07314 0.47827 0.0
C101 C 0.93533 0.03616 0.4699 0.0
C102 C 0.92998 0.02662 0.44734 0.0
C103 C 0.90404 0.05305 0.4339 0.0
C104 C 0.90199 0.03844 0.41037 0.0
C105 C 0.93112 -0.00127 0.41182 0.0
C106 C 0.9477 0.99204 0.43346 0.0
C107 C 0.9252 0.07279 0.39665 0.0
C108 C 0.85042 0.02893 0.40348 0.0
H109 H 0.03641 0.85234 0.4046 0.0
H110 H 0.06282 0.88982 0.48348 0.0
H111 H 0.93357 0.9511 0.47562 0.0
H112 H 0.98108 0.9348 0.4939 0.0
H113 H 0.95406 0.8991 0.47423 0.0
H114 H 0.06788 0.97917 0.45754 0.0
H115 H 0.0503 0.97151 0.48517 0.0
H116 H 0.02326 0.01087 0.46803 0.0
H117 H 0.99024 0.91597 0.33147 0.0
H118 H 0.88683 0.01476 0.32465 0.0
H119 H 0.8835 0.02091 0.36386 0.0
H120 H 0.05159 0.9535 0.37268 0.0
H121 H 0.05217 0.90235 0.3597 0.0
H122 H 0.06355 0.90849 0.38866 0.0
H123 H 0.93553 0.86854 0.36714 0.0
H124 H 0.9644 0.85599 0.39213 0.0
H125 H 0.99426 0.84951 0.36668 0.0
H126 H 0.08632 0.80877 0.42734 0.0
C127 C 0.04103 0.86129 0.42155 0.0
C128 C 0.07524 0.13821 0.53799 0.0
C129 C 0.1108 0.16281 0.5482 0.0
C130 C 0.12594 0.15381 0.56988 0.0
C131 C 0.07122 0.09632 0.57089 0.0
C132 C 0.05577 0.10525 0.54971 0.0
C133 C 0.01722 0.07601 0.54176 0.0
H134 H 0.90217 0.89304 0.5561 0.0
C135 C 0.04556 0.05939 0.57828 0.0
C136 C 0.01419 0.04679 0.56123 0.0
H137 H 0.88286 0.97946 0.50261 0.0
H138 H 0.93781 0.02802 0.52069 0.0
H139 H 0.01417 0.90489 0.56756 0.0
H140 H 0.88896 0.96153 0.59062 0.0
H141 H 0.92984 0.96777 0.61255 0.0
H142 H 0.91311 0.9155 0.60324 0.0
H143 H 0.9702 0.8783 0.58238 0.0
H144 H 0.01672 0.90646 0.5966 0.0
C145 C 0.03296 0.05292 0.52074 0.0
C146 C 0.97228 0.10253 0.53844 0.0
C147 C 0.0764 0.00544 0.65537 0.0
C148 C 0.05517 0.97389 0.66752 0.0
C149 C 0.02331 0.94625 0.65654 0.0
C150 C 0.0115 0.95105 0.63422 0.0
C151 C 0.03103 0.98425 0.62273 0.0
C152 C 0.06325 0.01049 0.63325 0.0
C153 C 0.07865 0.04531 0.61876 0.0
C154 C 0.04897 0.03647 0.59808 0.0
C155 C 0.02173 0.00042 0.60043 0.0
C156 C 0.13141 0.03928 0.61493 0.0
C157 C 0.06576 0.08792 0.62974 0.0
C158 C 0.91046 0.9222 0.54813 0.0
C159 C 0.89038 0.93177 0.52748 0.0
C160 C 0.8994 0.97102 0.51818 0.0
C161 C 0.93106 -0.00093 0.52865 0.0
C162 C 0.95259 0.98822 0.54885 0.0
C163 C 0.94062 0.95107 0.55865 0.0
C164 C 0.96168 0.94718 0.58141 0.0
C165 C 0.991 0.98678 0.58306 0.0
C166 C 0.9863 0.01038 0.56379 0.0
C167 C 0.99223 0.90701 0.58221 0.0
C168 C 0.92159 0.94776 0.59789 0.0
H169 H 0.11994 0.11549 0.59758 0.0
H170 H 0.06284 0.14457 0.52137 0.0
H171 H 0.94011 0.08395 0.5399 0.0
H172 H 0.97154 0.11835 0.52231 0.0
H173 H 0.97022 0.12747 0.55138 0.0
H174 H 0.06993 0.04263 0.52275 0.0
H175 H 0.0302 0.07388 0.50633 0.0
H176 H 0.01293 0.02408 0.51682 0.0
H177 H 0.10171 0.02679 0.66302 0.0
H178 H 0.00583 0.92191 0.66534 0.0
H179 H 0.98674 0.92933 0.62693 0.0
H180 H 0.14115 0.00538 0.61503 0.0
H181 H 0.15308 0.05545 0.62796 0.0
H182 H 0.14169 0.05032 0.5987 0.0
H183 H 0.03236 0.08539 0.63835 0.0
H184 H 0.05972 0.11338 0.61785 0.0
H185 H 0.0931 0.09805 0.64208 0.0
H186 H 0.15385 0.1718 0.57795 0.0
C187 C 0.10647 0.12078 0.58122 0.0
C188 C 0.5495 0.37542 0.96656 0.0
C189 C 0.57125 0.33995 0.9574 0.0
C190 C 0.56314 0.33011 0.93497 0.0
C191 C 0.51446 0.39175 0.93083 0.0
C192 C 0.52083 0.40058 0.95301 0.0
C193 C 0.49409 0.43906 0.95991 0.0
H194 H 0.35963 0.60545 0.93019 0.0
C195 C 0.48405 0.4244 0.92115 0.0
C196 C 0.47104 0.4518 0.93814 0.0
H197 H 0.41178 0.57496 -0.00471 0.0
H198 H 0.44602 0.51037 0.98114 0.0
H199 H 0.4545 0.57898 0.90535 0.0
H200 H 0.32431 0.51779 0.91668 0.0
H201 H 0.34254 0.49712 0.89152 0.0
H202 H 0.33022 0.55273 0.89414 0.0
H203 H 0.39895 0.59574 0.89406 0.0
H204 H 0.43307 0.55682 0.88036 0.0
C205 C 0.5296 0.47236 0.96882 0.0
C206 C 0.45779 0.42581 0.97665 0.0
C207 C 0.46504 0.43545 0.83824 0.0
C208 C 0.43957 0.46334 0.82462 0.0
C209 C 0.40768 0.49126 0.83427 0.0
C210 C 0.40408 0.49384 0.85704 0.0
C211 C 0.43248 0.46817 0.87044 0.0
C212 C 0.46056 0.43816 0.86103 0.0
C213 C 0.48512 0.41128 0.87799 0.0
C214 C 0.46956 0.43232 0.89909 0.0
C215 C 0.43955 0.46609 0.89446 0.0
C216 C 0.53835 0.41548 0.87528 0.0
C217 C 0.46646 0.36559 0.87531 0.0
C218 C 0.37888 0.58517 0.94142 0.0
C219 C 0.38413 0.59565 0.96382 0.0
C220 C 0.4079 0.56759 0.97797 0.0
C221 C 0.42777 0.53041 0.96972 0.0
C222 C 0.4236 0.52125 0.94709 0.0
C223 C 0.39883 0.54821 0.93346 0.0
C224 C 0.39757 0.53383 0.90991 0.0
C225 C 0.42597 0.4937 0.91155 0.0
C226 C 0.4415 0.4866 0.93331 0.0
C227 C 0.42201 0.56798 0.89654 0.0
C228 C 0.3461 0.52511 0.9025 0.0
H229 H 0.53075 0.34708 0.90466 0.0
H230 H 0.55478 0.38339 0.98381 0.0
H231 H 0.42576 0.44507 0.9754 0.0
H232 H 0.47265 0.42758 0.99373 0.0
H233 H 0.4457 0.39295 0.97351 0.0
H234 H 0.56046 0.47337 0.95831 0.0
H235 H 0.54221 0.46482 0.98576 0.0
H236 H 0.51549 0.50463 0.96883 0.0
H237 H 0.48933 0.4131 0.83148 0.0
H238 H 0.386 0.51184 0.82422 0.0
H239 H 0.38013 0.5165 0.86335 0.0
H240 H 0.5482 0.44912 0.87375 0.0
H241 H 0.54935 0.39842 0.86029 0.0
H242 H 0.55923 0.4035 0.88939 0.0
H243 H 0.43243 0.3643 0.86595 0.0
H244 H 0.4594 0.35128 0.89132 0.0
H245 H 0.49119 0.34521 0.8664 0.0
H246 H 0.57992 0.30316 0.92753 0.0
C247 C 0.53487 0.35578 0.92167 0.0
C248 C 0.57296 0.63589 0.03372 0.0
C249 C 0.60725 0.66272 0.04319 0.0
C250 C 0.61984 0.6591 0.06562 0.0
C251 C 0.56647 0.60084 0.06861 0.0
C252 C 0.55265 0.60547 0.0468 0.0
C253 C 0.51466 0.57491 0.03978 0.0
H254 H 0.40184 0.39348 0.06051 0.0
C255 C 0.54127 0.56467 0.07726 0.0
C256 C 0.51107 0.54892 0.06042 0.0
H257 H 0.38044 0.473 0.00428 0.0
H258 H 0.43541 0.52388 0.02043 0.0
H259 H 0.51367 0.40778 0.07065 0.0
H260 H 0.38824 0.46541 0.09274 0.0
H261 H 0.42911 0.4737 0.11447 0.0
H262 H 0.41302 0.42062 0.10631 0.0
H263 H 0.47157 0.3826 0.08715 0.0
H264 H 0.51831 0.41347 0.0995 0.0
C265 C 0.53128 0.54868 0.01995 0.0
C266 C 0.46968 0.60064 0.03497 0.0
C267 C 0.57364 0.51907 0.15592 0.0
C268 C 0.55453 0.48718 0.16863 0.0
C269 C 0.52381 0.45778 0.15827 0.0
C270 C 0.5113 0.4608 0.13597 0.0
C271 C 0.52902 0.4939 0.1238 0.0
C272 C 0.56001 0.5221 0.13371 0.0
C273 C 0.57412 0.55595 0.1183 0.0
C274 C 0.54504 0.5442 0.09779 0.0
C275 C 0.51919 0.50765 0.10111 0.0
C276 C 0.6271 0.55118 0.11477 0.0
C277 C 0.5595 0.59914 0.12805 0.0
C278 C 0.40963 0.42161 0.05151 0.0
C279 C 0.3889 0.42853 0.0307 0.0
C280 C 0.39745 0.46654 0.02002 0.0
C281 C 0.42905 0.49598 0.0294 0.0
C282 C 0.45099 0.48785 0.04987 0.0
C283 C 0.43965 0.45189 0.06092 0.0
C284 C 0.46103 0.45095 0.08372 0.0
C285 C 0.48923 0.49124 0.08411 0.0
C286 C 0.48415 0.51234 0.06408 0.0
C287 C 0.49271 0.41157 0.08555 0.0
C288 C 0.42107 0.45249 0.10025 0.0
H289 H 0.61148 0.62666 0.09522 0.0
H290 H 0.56235 0.63855 0.01655 0.0
H291 H 0.43755 0.58242 0.03727 0.0
H292 H 0.4692 0.6134 0.0181 0.0
H293 H 0.46723 0.62783 0.04659 0.0
H294 H 0.56789 0.53804 0.02292 0.0
H295 H 0.52996 0.56761 0.00476 0.0
H296 H 0.51072 0.51988 0.01675 0.0
H297 H 0.59787 0.54187 0.16315 0.0
H298 H 0.50783 0.43324 0.16755 0.0
H299 H 0.48752 0.43767 0.1292 0.0
H300 H 0.63751 0.51743 0.11457 0.0
H301 H 0.64794 0.56717 0.12816 0.0
H302 H 0.63776 0.56318 0.09882 0.0
H303 H 0.52672 0.59634 0.13713 0.0
H304 H 0.55151 0.62279 0.11536 0.0
H305 H 0.58682 0.6118 0.13972 0.0
H306 H 0.64638 0.67941 0.07316 0.0
C307 C 0.5998 0.62824 0.07835 0.0
C308 C 0.13656 0.12825 0.98139 0.0
C309 C 0.1186 0.11303 0.00091 0.0
C310 C 0.16481 0.164 0.98175 0.0
C311 C 0.1927 0.25923 0.01448 0.0
H312 H 0.30701 0.25955 0.98241 0.0
C313 C 0.37434 0.35418 0.01927 0.0
C314 C 0.35827 0.39582 0.02061 0.0
C315 C 0.34393 0.32174 0.01287 0.0
C316 C 0.27504 0.25997 0.99133 0.0
H317 H 0.11656 0.12317 0.03614 0.0
H318 H 0.16608 0.18564 0.03674 0.0
H319 H 0.25638 0.19775 0.98033 0.0
H320 H 0.29878 0.43684 0.01533 0.0
H321 H 0.245 0.37976 0.0042 0.0
H322 H 0.21198 0.32095 0.02598 0.0
C323 C 0.15789 0.17004 0.02115 0.0
C324 C 0.24599 0.22473 0.99006 0.0
C325 C 0.12987 0.13409 0.02083 0.0
C326 C 0.31185 0.4049 0.01436 0.0
C327 C 0.28115 0.3723 0.00817 0.0
C328 C 0.22157 0.29458 0.01562 0.0
C329 C 0.17545 0.18546 0.0016 0.0
C330 C 0.20494 0.22373 0.00193 0.0
C331 C 0.29671 0.3303 0.00788 0.0
C332 C 0.26343 0.29503 0.00436 0.0
H333 H 0.12852 0.11276 0.96576 0.0
H334 H 0.17761 0.1753 0.96641 0.0
H335 H 0.16095 0.25954 0.02356 0.0
H336 H 0.41017 0.34658 0.02391 0.0
H337 H 0.35687 0.28971 0.01296 0.0
C338 C 0.15816 0.91572 0.97902 0.0
C339 C 0.13187 0.9209 -0.00218 0.0
C340 C 0.19077 0.88332 0.97769 0.0
C341 C 0.2557 0.80225 0.01019 0.0
H342 H 0.25976 0.747 0.95314 0.0
C343 C 0.33897 0.63795 0.99109 0.0
C344 C 0.36483 0.636 0.97195 0.0
C345 C 0.31543 0.67498 -0.00327 0.0
C346 C 0.25932 0.76236 0.96912 0.0
H347 H 0.11995 0.89709 0.03028 0.0
H348 H 0.17578 0.83937 0.02767 0.0
H349 H 0.20875 0.80706 0.95799 0.0
H350 H 0.39008 0.67224 0.94495 0.0
H351 H 0.34856 0.73634 0.95461 0.0
H352 H 0.30548 0.75589 0.02129 0.0
C353 C 0.172 0.86089 0.01412 0.0
C354 C 0.23026 0.79697 0.97191 0.0
C355 C 0.13982 0.89382 0.01558 0.0
C356 C 0.36936 0.67246 0.95946 0.0
C357 C 0.34577 0.70918 0.965 0.0
C358 C 0.28449 0.76708 0.00743 0.0
C359 C 0.19725 0.85478 -0.00503 0.0
C360 C 0.22837 0.81771 0.9924 0.0
C361 C 0.31741 0.71039 0.98326 0.0
C362 C 0.28685 0.74717 0.98679 0.0
H363 H 0.15326 0.93652 0.9652 0.0
H364 H 0.21051 0.88036 0.96294 0.0
H365 H 0.25534 0.81761 0.02616 0.0
H366 H 0.33495 0.61032 0.00103 0.0
H367 H 0.29371 0.67522 0.0109 0.0
C368 C 0.89165 0.9104 0.97576 0.0
C369 C 0.92297 0.91389 0.99399 0.0
C370 C 0.85506 0.88135 0.97569 0.0
C371 C 0.81726 0.78313 -0.0007 0.0
H372 H 0.69139 0.82795 -0.00462 0.0
C373 C 0.63646 0.73511 0.03655 0.0
C374 C 0.63252 0.69283 0.0298 0.0
C375 C 0.66716 0.76195 0.02636 0.0
C376 C 0.72633 0.81496 -0.00383 0.0
H377 H 0.94173 0.88889 0.02601 0.0
H378 H 0.87863 0.83731 0.02556 0.0
H379 H 0.75777 0.87392 0.98857 0.0
H380 H 0.65558 0.64569 0.00658 0.0
H381 H 0.71033 0.69258 0.98898 0.0
H382 H 0.78614 0.72454 0.00751 0.0
C383 C 0.88215 0.85731 0.01148 0.0
C384 C 0.76416 0.84112 0.99221 0.0
C385 C 0.91804 0.88691 0.01178 0.0
C386 C 0.65787 0.67831 0.01193 0.0
C387 C 0.68926 0.70497 0.00198 0.0
C388 C 0.77945 0.75681 0.00285 0.0
C389 C 0.84998 0.8547 0.99359 0.0
C390 C 0.80995 0.82566 0.99438 0.0
C391 C 0.69502 0.74671 0.0095 0.0
C392 C 0.73375 0.77279 0.00192 0.0
H393 H 0.89454 0.93099 0.96187 0.0
H394 H 0.83058 0.87983 0.96173 0.0
H395 H 0.85231 0.77058 0.00101 0.0
H396 H 0.61721 0.74689 0.05033 0.0
H397 H 0.67126 0.79388 0.03259 0.0
C398 C 0.88929 0.10724 0.01649 0.0
C399 C 0.91349 0.09995 -0.00286 0.0
C400 C 0.8523 0.13584 0.01678 0.0
C401 C 0.8032 0.2274 0.98829 0.0
H402 H 0.68442 0.19085 0.00973 0.0
C403 C 0.60303 0.27037 0.96919 0.0
C404 C 0.60489 0.31448 0.97047 0.0
C405 C 0.63949 0.24624 0.97808 0.0
C406 C 0.71752 0.20159 0.0039 0.0
H407 H 0.91834 0.1173 0.96302 0.0
H408 H 0.854 0.16755 0.9636 0.0
H409 H 0.75265 0.14481 0.01341 0.0
H410 H 0.64464 0.36798 0.98317 0.0
H411 H 0.70878 0.32566 -0.00131 0.0
H412 H 0.76794 0.28349 0.9781 0.0
C413 C 0.86375 0.15115 0.97853 0.0
C414 C 0.75652 0.17539 0.00608 0.0
C415 C 0.90034 0.12219 0.97816 0.0
C416 C 0.64235 0.33399 0.98205 0.0
C417 C 0.67912 0.30985 0.99076 0.0
C418 C 0.7644 0.25374 0.98632 0.0
C419 C 0.83927 0.1581 -0.0022 0.0
C420 C 0.79939 0.18765 -0.00222 0.0
C421 C 0.67867 0.26582 0.98824 0.0
C422 C 0.72092 0.24068 0.99362 0.0
H423 H 0.89858 0.09051 0.03138 0.0
H424 H 0.83406 0.14076 0.03185 0.0
H425 H 0.836 0.23773 0.98196 0.0
H426 H 0.57429 0.25464 0.96046 0.0
H427 H 0.63833 0.21239 0.97577 0.0
C428 C 0.6378 0.63869 0.51866 0.0
C429 C 0.62446 0.61682 0.49924 0.0
C430 C 0.66488 0.67505 0.51786 0.0
C431 C 0.74725 0.73068 0.48414 0.0
H432 H 0.7148 0.82634 0.52081 0.0
C433 C 0.81356 0.9101 0.51021 0.0
C434 C 0.85999 0.9004 0.51613 0.0
C435 C 0.7828 0.87812 0.50319 0.0
C436 C 0.72387 0.80022 0.51017 0.0
H437 H 0.62997 0.61537 0.4638 0.0
H438 H 0.67759 0.67875 0.46249 0.0
H439 H 0.66475 0.76437 0.5193 0.0
H440 H 0.912 0.85103 0.51774 0.0
H441 H 0.85858 0.79524 0.50543 0.0
H442 H 0.80697 0.76628 0.4754 0.0
C443 C 0.667 0.66775 0.47829 0.0
C444 C 0.69558 0.76453 0.50956 0.0
C445 C 0.63966 0.63153 0.47906 0.0
C446 C 0.87614 0.85904 0.5134 0.0
C447 C 0.84565 0.82724 0.5062 0.0
C448 C 0.77574 0.76632 0.48486 0.0
C449 C 0.6794 0.69013 0.49765 0.0
C450 C 0.7075 0.72909 0.4969 0.0
C451 C 0.79831 0.83618 0.50176 0.0
C452 C 0.7648 0.80112 0.49822 0.0
H453 H 0.62668 0.62816 0.53445 0.0
H454 H 0.6746 0.69132 0.53308 0.0
H455 H 0.7573 0.70379 0.47426 0.0
H456 H 0.80048 0.94186 0.51222 0.0
H457 H 0.74656 0.88589 0.49966 0.0
C458 C 0.66071 0.41774 0.48061 0.0
C459 C 0.63549 0.42406 0.49967 0.0
C460 C 0.69274 0.38492 0.47927 0.0
C461 C 0.75909 0.30506 0.51176 0.0
H462 H 0.75935 0.2477 0.45516 0.0
C463 C 0.84513 0.14178 0.49216 0.0
C464 C 0.86979 0.14038 0.47264 0.0
C465 C 0.82073 0.17821 0.49805 0.0
C466 C 0.75991 0.26361 0.47102 0.0
H467 H 0.62497 0.40187 0.53258 0.0
H468 H 0.67999 0.34336 0.52999 0.0
H469 H 0.70795 0.30741 0.46032 0.0
H470 H 0.89204 0.17708 0.44519 0.0
H471 H 0.84901 0.24008 0.45528 0.0
H472 H 0.81048 0.25971 0.52243 0.0
C473 C 0.67568 0.36431 0.51622 0.0
C474 C 0.73064 0.29801 0.47397 0.0
C475 C 0.64401 0.39769 0.51767 0.0
C476 C 0.87227 0.17685 0.46 0.0
C477 C 0.84783 0.21294 0.46579 0.0
C478 C 0.78814 0.27009 0.50884 0.0
C479 C 0.69974 0.35707 0.49681 0.0
C480 C 0.73032 0.31964 0.49425 0.0
C481 C 0.82066 0.21352 0.48446 0.0
C482 C 0.78922 0.24954 0.48832 0.0
H483 H 0.65539 0.43798 0.46659 0.0
H484 H 0.71164 0.38108 0.46432 0.0
H485 H 0.75985 0.32109 0.52757 0.0
H486 H 0.84269 0.11414 0.50222 0.0
H487 H 0.79996 0.17799 0.51253 0.0
C488 C 0.40781 0.4111 0.52063 0.0
C489 C 0.42564 0.42092 0.50018 0.0
C490 C 0.37188 0.38206 0.52209 0.0
C491 C 0.27574 0.32993 0.49065 0.0
H492 H 0.27976 0.25715 0.54121 0.0
C493 C 0.15272 0.18874 0.51563 0.0
C494 C 0.13447 0.19656 0.5364 0.0
C495 C 0.18422 0.21709 0.50691 0.0
C496 C 0.27837 0.2772 0.52697 0.0
H497 H 0.41952 0.40799 0.46514 0.0
H498 H 0.35676 0.35623 0.46779 0.0
H499 H 0.3463 0.30187 0.53437 0.0
H500 H 0.13065 0.2419 0.56321 0.0
H501 H 0.18613 0.29085 0.54814 0.0
H502 H 0.20727 0.30443 0.48345 0.0
C503 C 0.37052 0.37154 0.48264 0.0
C504 C 0.31625 0.30296 0.5231 0.0
C505 C 0.4066 0.40094 0.48115 0.0
C506 C 0.14483 0.23481 0.54734 0.0
C507 C 0.17632 0.26285 0.53872 0.0
C508 C 0.23779 0.30358 0.49443 0.0
C509 C 0.35296 0.36169 0.50318 0.0
C510 C 0.31489 0.33059 0.50531 0.0
C511 C 0.19758 0.25339 0.5189 0.0
C512 C 0.23857 0.27794 0.51296 0.0
H513 H 0.42123 0.42621 0.5356 0.0
H514 H 0.35845 0.37602 0.53812 0.0
H515 H 0.27361 0.35096 0.47684 0.0
H516 H 0.14539 0.1594 0.50691 0.0
H517 H 0.20055 0.20926 0.49163 0.0
C518 C 0.4061 0.62656 0.47898 0.0
C519 C 0.42023 0.60607 0.49836 0.0
C520 C 0.36978 0.65579 0.47909 0.0
C521 C 0.26414 0.68285 0.50696 0.0
H522 H 0.27533 0.78906 0.47709 0.0
C523 C 0.15017 0.84055 0.4814 0.0
C524 C 0.11249 0.82078 0.47011 0.0
C525 C 0.187 0.81658 0.49019 0.0
C526 C 0.27188 0.75985 0.48582 0.0
H527 H 0.40737 0.59997 0.53305 0.0
H528 H 0.34316 0.65064 0.53306 0.0
H529 H 0.34326 0.74317 0.48132 0.0
H530 H 0.08165 0.76075 0.46063 0.0
H531 H 0.14582 0.71881 0.47612 0.0
H532 H 0.19219 0.69886 0.51068 0.0
C533 C 0.36052 0.64419 0.51788 0.0
C534 C 0.31059 0.73346 0.48802 0.0
C535 C 0.39731 0.61537 0.51786 0.0
C536 C 0.11055 0.77666 0.46914 0.0
C537 C 0.14707 0.75271 0.47813 0.0
C538 C 0.2252 0.70906 0.50452 0.0
C539 C 0.34651 0.66468 0.4985 0.0
C540 C 0.30683 0.69439 0.49822 0.0
C541 C 0.18638 0.77251 0.48804 0.0
C542 C 0.22856 0.74746 0.49358 0.0
H543 H 0.42314 0.62007 0.46372 0.0
H544 H 0.35924 0.67086 0.46387 0.0
H545 H 0.26035 0.65278 0.51483 0.0
H546 H 0.15252 0.87455 0.48228 0.0
H547 H 0.2168 0.83254 0.4979 0.0
C548 C 0.98741 0.02939 0.13012 0.0
C549 C 0.01208 -0.0008 0.11822 0.0
C550 C 0.98084 0.02421 0.15247 0.0
C551 C 0.02148 0.96252 0.20103 0.0
H552 H 0.90395 0.00121 0.22359 0.0
C553 C 0.95704 0.9297 0.28878 0.0
C554 C 0.94666 0.96669 0.30066 0.0
C555 C 0.96511 0.93123 0.26631 0.0
C556 C 0.93686 0.99024 0.21744 0.0
H557 H 0.0496 0.94018 0.12005 0.0
H558 H 0.03672 0.93007 0.15901 0.0
H559 H 0.91852 0.00848 0.18473 0.0
H560 H 0.93766 0.03442 0.29802 0.0
H561 H 0.94939 0.03641 0.25879 0.0
H562 H 0.03884 0.94332 0.23394 0.0
C563 C 0.02349 0.9584 0.15134 0.0
C564 C 0.9455 0.99474 0.19525 0.0
C565 C 0.03078 0.96403 0.12903 0.0
C566 C 0.94417 0.00506 0.28943 0.0
C567 C 0.9513 0.00639 0.26697 0.0
C568 C 0.0124 0.95734 0.2232 0.0
C569 C -0.00205 0.98822 0.16329 0.0
C570 C 0.98825 0.98162 0.1868 0.0
C571 C 0.96205 0.96959 0.25528 0.0
C572 C 0.97031 0.97175 0.23159 0.0
H573 H 0.97309 0.05697 0.12209 0.0
H574 H 0.96218 0.04845 0.16122 0.0
H575 H 0.05498 0.95249 0.19521 0.0
H576 H 0.95867 0.89951 0.29675 0.0
H577 H 0.97313 0.90242 0.2575 0.0
C578 C 0.02146 0.96212 0.86667 0.0
C579 C 0.03741 -0.00069 0.87708 0.0
C580 C 0.02806 0.9553 0.84431 0.0
C581 C 0.09611 0.995 0.79789 0.0
H582 H 2e-05 0.93788 0.76236 0.0
C583 C 0.06895 0.0096 0.70421 0.0
C584 C 0.06289 0.97216 0.69178 0.0
C585 C 0.07198 0.00873 0.72707 0.0
C586 C 0.02739 0.95334 0.77218 0.0
H587 H 0.07172 0.05894 0.87249 0.0
H588 H 0.0813 0.04822 0.83323 0.0
H589 H 0.99116 0.94566 0.80182 0.0
H590 H 0.05736 0.90417 0.69394 0.0
H591 H 0.06036 0.90316 0.73407 0.0
H592 H 0.13076 0.00469 0.76781 0.0
C593 C 0.06527 0.02346 0.84234 0.0
C594 C 0.02247 0.95776 0.7948 0.0
C595 C 0.05942 0.02988 0.86477 0.0
C596 C 0.06106 0.93371 0.70291 0.0
C597 C 0.06311 0.93299 0.72585 0.0
C598 C 0.10055 0.99124 0.77522 0.0
C599 C 0.05004 0.98591 0.83184 0.0
C600 C 0.0565 0.97911 0.80793 0.0
C601 C 0.06811 0.97057 0.73806 0.0
C602 C 0.06601 0.97075 0.76219 0.0
H603 H 0.00492 0.93787 0.87596 0.0
H604 H 0.01656 0.92573 0.83693 0.0
H605 H 0.12362 0.01067 0.80749 0.0
H606 H 0.06942 0.03995 0.6964 0.0
H607 H 0.07524 0.03816 0.7362 0.0
C608 C 0.49983 0.53861 0.63238 0.0
C609 C 0.52321 0.5082 0.62004 0.0
C610 C 0.49287 0.53245 0.65462 0.0
C611 C 0.52924 0.46654 0.70227 0.0
H612 H 0.41137 0.50596 0.72413 0.0
C613 C 0.45916 0.42909 0.78846 0.0
C614 C 0.44805 0.46539 0.80074 0.0
C615 C 0.4689 0.43196 0.76621 0.0
C616 C 0.44438 0.49479 0.71819 0.0
H617 H 0.55839 0.44795 0.62103 0.0
H618 H 0.54491 0.43626 0.6598 0.0
H619 H 0.42837 0.51581 0.68573 0.0
H620 H 0.43972 0.53332 0.79913 0.0
H621 H 0.45446 0.5377 0.76026 0.0
H622 H 0.54427 0.44463 0.73491 0.0
C623 C 0.53293 0.46541 0.65255 0.0
C624 C 0.45441 0.50076 0.69626 0.0
C625 C 0.5406 0.47198 0.63036 0.0
C626 C 0.44671 0.50447 0.79017 0.0
C627 C 0.45556 0.50715 0.76793 0.0
C628 C 0.51879 0.45996 0.72417 0.0
C629 C 0.5083 0.4953 0.66487 0.0
C630 C 0.49729 0.48738 0.68809 0.0
C631 C 0.46687 0.47101 0.75581 0.0
C632 C 0.47657 0.47462 0.73233 0.0
H633 H 0.48652 0.56697 0.62474 0.0
H634 H 0.47496 0.55672 0.6637 0.0
H635 H 0.56277 0.45619 0.69662 0.0
H636 H 0.46003 0.39842 0.79595 0.0
H637 H 0.47735 0.40365 0.75706 0.0
C638 C 0.52198 0.46768 0.36731 0.0
C639 C 0.53614 0.50466 0.37845 0.0
C640 C 0.52823 0.46318 0.34478 0.0
C641 C 0.59316 0.51002 0.29917 0.0
H642 H 0.50151 0.44925 0.26272 0.0
C643 C 0.5669 0.52425 0.20505 0.0
C644 C 0.56331 0.48639 0.19282 0.0
C645 C 0.56975 0.5238 0.22794 0.0
C646 C 0.52761 0.46586 0.27279 0.0
H647 H 0.56656 0.56635 0.37506 0.0
H648 H 0.57531 0.55965 0.33554 0.0
H649 H 0.49163 0.45478 0.30218 0.0
H650 H 0.56285 0.41825 0.19526 0.0
H651 H 0.56561 0.41783 0.23534 0.0
H652 H 0.62752 0.52289 0.26934 0.0
C653 C 0.5611 0.53333 0.34416 0.0
C654 C 0.52213 0.46896 0.29541 0.0
C655 C 0.55569 0.53744 0.36673 0.0
C656 C 0.56443 0.44804 0.2041 0.0
C657 C 0.56633 0.44768 0.22701 0.0
C658 C 0.59809 0.50759 0.27649 0.0
C659 C 0.54798 0.49594 0.3329 0.0
C660 C 0.55466 0.49135 0.3089 0.0
C661 C 0.56827 0.48559 0.23907 0.0
C662 C 0.56524 0.48566 0.26315 0.0
H663 H 0.50732 0.44182 0.37615 0.0
H664 H 0.51839 0.43368 0.33681 0.0
H665 H 0.61955 0.52663 0.30904 0.0
H666 H 0.56533 0.55443 0.19705 0.0
H667 H 0.57081 0.55344 0.23697 0.0
loop_
_geom_bond_atom_site_label_1
_geom_bond_atom_site_label_2
_geom_bond_distance
_geom_bond_site_symmetry_2
_ccdc_geom_bond_type
C0 O16 1.251 . S
C0 O18 1.254 1_554 S
N1 C2 1.333 1_445 S
N1 C6 1.307 . S
N1 Zn7 2.020 . S
C2 N1 1.333 1_665 S
C2 C3 1.379 . S
C2 H20 0.952 . S
C3 C2 1.379 . S
C3 C4 1.390 1_665 S
C3 H30 0.949 . S
C4 C3 1.390 1_445 S
C4 C5 1.357 . S
C5 C4 1.357 . S
C5 C6 1.370 . S
C5 H31 0.950 . S
C6 N1 1.307 . S
C6 C5 1.370 . S
C6 H24 0.948 . S
Zn7 N1 2.020 . S
Zn7 O16 2.039 1_445 S
Zn7 O22 2.034 1_455 S
Zn7 O26 2.025 . S
Zn7 O28 2.024 1_545 S
C8 O27 1.246 1_554 S
C8 O28 1.249 . S
N9 C10 1.307 1_445 S
N9 C11 1.333 . S
N9 Zn15 2.020 . S
C10 N9 1.307 1_665 S
C10 C14 1.370 . S
C10 H21 0.948 . S
C11 N9 1.333 . S
C11 C12 1.379 . S
C11 H19 0.952 . S
C12 C11 1.379 . S
C12 C13 1.390 . S
C12 H32 0.949 . S
C13 C12 1.390 . S
C13 C14 1.357 1_445 S
C14 C10 1.370 . S
C14 C13 1.357 1_665 S
C14 H33 0.950 . S
Zn15 N9 2.020 . S
Zn15 O18 2.025 1_445 S
Zn15 O23 2.024 1_455 S
Zn15 O25 2.039 . S
Zn15 O27 2.034 1_545 S
O16 C0 1.251 . S
O16 Zn7 2.039 1_665 S
C17 O22 1.246 . S
C17 O23 1.249 1_554 S
O18 C0 1.254 1_556 S
O18 Zn15 2.025 1_665 S
H19 C11 0.952 . S
H20 C2 0.952 . S
H21 C10 0.948 . S
O22 Zn7 2.034 1_655 S
O22 C17 1.246 . S
O23 Zn15 2.024 1_655 S
O23 C17 1.249 1_556 S
H24 C6 0.948 . S
O25 Zn15 2.039 . S
O25 C29 1.251 1_556 S
O26 Zn7 2.025 . S
O26 C29 1.254 . S
O27 C8 1.246 1_556 S
O27 Zn15 2.034 1_565 S
O28 Zn7 2.024 1_565 S
O28 C8 1.249 . S
C29 O25 1.251 1_554 S
C29 O26 1.254 . S
H30 C3 0.949 . S
H31 C5 0.950 . S
H32 C12 0.949 . S
H33 C14 0.950 . S
C34 O50 1.251 . S
C34 O52 1.254 . S
N35 C36 1.333 . S
N35 C40 1.307 . S
N35 Zn41 2.020 . S
C36 N35 1.333 . S
C36 C37 1.379 . S
C36 H54 0.952 . S
C37 C36 1.379 . S
C37 C38 1.390 . S
C37 H64 0.949 . S
C38 C37 1.390 . S
C38 C39 1.357 . S
C39 C38 1.357 . S
C39 C40 1.370 . S
C39 H65 0.950 . S
C40 N35 1.307 . S
C40 C39 1.370 . S
C40 H58 0.948 . S
Zn41 N35 2.020 . S
Zn41 O50 2.039 . S
Zn41 O56 2.034 . S
Zn41 O60 2.025 . S
Zn41 O62 2.024 . S
C42 O61 1.246 . S
C42 O62 1.249 . S
N43 C44 1.307 . S
N43 C45 1.333 . S
N43 Zn49 2.020 . S
C44 N43 1.307 . S
C44 C48 1.370 . S
C44 H55 0.948 . S
C45 N43 1.333 . S
C45 C46 1.379 . S
C45 H53 0.952 . S
C46 C45 1.379 . S
C46 C47 1.390 . S
C46 H66 0.949 . S
C47 C46 1.390 . S
C47 C48 1.357 . S
C48 C44 1.370 . S
C48 C47 1.357 . S
C48 H67 0.950 . S
Zn49 N43 2.020 . S
Zn49 O52 2.025 . S
Zn49 O57 2.024 . S
Zn49 O59 2.039 . S
Zn49 O61 2.034 . S
O50 C34 1.251 . S
O50 Zn41 2.039 . S
C51 O56 1.246 . S
C51 O57 1.249 . S
O52 C34 1.254 . S
O52 Zn49 2.025 . S
H53 C45 0.952 . S
H54 C36 0.952 . S
H55 C44 0.948 . S
O56 Zn41 2.034 . S
O56 C51 1.246 . S
O57 Zn49 2.024 . S
O57 C51 1.249 . S
H58 C40 0.948 . S
O59 Zn49 2.039 . S
O59 C63 1.251 . S
O60 Zn41 2.025 . S
O60 C63 1.254 . S
O61 C42 1.246 . S
O61 Zn49 2.034 . S
O62 Zn41 2.024 . S
O62 C42 1.249 . S
C63 O59 1.251 . S
C63 O60 1.254 . S
H64 C37 0.949 . S
H65 C39 0.950 . S
H66 C46 0.949 . S
H67 C48 0.950 . S
C68 C69 1.391 . S
C68 C72 1.391 . S
C68 H110 0.948 . S
C69 C68 1.391 . S
C69 C70 1.391 . S
C70 C69 1.391 . S
C70 H126 0.947 . S
C70 C127 1.392 . S
C71 C72 1.391 . S
C71 C75 1.397 . S
C71 C127 1.419 . S
C72 C68 1.391 . S
C72 C71 1.391 . S
C72 C73 1.399 . S
C73 C72 1.399 . S
C73 C76 1.396 . S
C73 C85 1.453 1_565 S
C73 C86 1.684 1_455 S
H74 C98 0.948 . S
C75 C71 1.397 . S
C75 C76 1.394 . S
C75 C94 1.723 . S
C76 C73 1.396 . S
C76 C75 1.394 . S
C76 C106 1.723 1_465 S
H77 C100 0.947 . S
H78 C101 0.948 . S
H79 C107 0.982 . S
H80 C108 0.979 . S
H81 C108 0.980 . S
H82 C108 0.983 . S
H83 C107 0.979 . S
H84 C107 0.977 . S
C85 C73 1.453 1_545 S
C85 H114 0.982 . S
C85 H115 0.979 1_545 S
C85 H116 0.977 . S
C86 C73 1.684 1_655 S
C86 H111 0.979 . S
C86 H112 0.980 . S
C86 H113 0.983 1_655 S
C87 C88 1.391 1_465 S
C87 C92 1.391 . S
C87 H117 0.948 . S
C88 C87 1.391 1_645 S
C88 C89 1.391 . S
C89 C88 1.391 . S
C89 C90 1.392 . S
C89 H118 0.947 . S
C90 C89 1.392 . S
C90 C91 1.419 . S
C90 H119 0.948 . S
C91 C90 1.419 . S
C91 C92 1.391 1_645 S
C91 C95 1.397 . S
C92 C87 1.391 . S
C92 C91 1.391 1_465 S
C92 C93 1.399 . S
C93 C92 1.399 . S
C93 C94 1.396 . S
C93 C96 1.453 . S
C93 C97 1.684 . S
C94 C75 1.723 . S
C94 C93 1.396 . S
C94 C95 1.394 1_465 S
C95 C91 1.397 . S
C95 C94 1.394 1_645 S
C95 C105 1.723 . S
C96 C93 1.453 . S
C96 H120 0.982 . S
C96 H121 0.979 . S
C96 H122 0.977 . S
C97 C93 1.684 . S
C97 H123 0.979 . S
C97 H124 0.980 . S
C97 H125 0.983 . S
C98 H74 0.948 . S
C98 C99 1.391 . S
C98 C103 1.391 . S
C99 C98 1.391 . S
C99 C100 1.391 . S
C100 H77 0.947 . S
C100 C99 1.391 . S
C100 C101 1.392 . S
C101 H78 0.948 . S
C101 C100 1.392 . S
C101 C102 1.419 . S
C102 C101 1.419 . S
C102 C103 1.391 . S
C102 C106 1.397 . S
C103 C98 1.391 . S
C103 C102 1.391 . S
C103 C104 1.399 . S
C104 C103 1.399 . S
C104 C105 1.396 . S
C104 C107 1.453 . S
C104 C108 1.684 . S
C105 C95 1.723 . S
C105 C104 1.396 . S
C105 C106 1.394 . S
C106 C76 1.723 1_645 S
C106 C102 1.397 . S
C106 C105 1.394 . S
C107 H79 0.982 . S
C107 H83 0.979 . S
C107 H84 0.977 . S
C107 C104 1.453 . S
C108 H80 0.979 . S
C108 H81 0.980 . S
C108 H82 0.983 . S
C108 C104 1.684 . S
H109 C127 0.948 . S
H110 C68 0.948 . S
H111 C86 0.979 . S
H112 C86 0.980 . S
H113 C86 0.983 1_455 S
H114 C85 0.982 . S
H115 C85 0.979 1_565 S
H116 C85 0.977 . S
H117 C87 0.948 . S
H118 C89 0.947 . S
H119 C90 0.948 . S
H120 C96 0.982 . S
H121 C96 0.979 . S
H122 C96 0.977 . S
H123 C97 0.979 . S
H124 C97 0.980 . S
H125 C97 0.983 . S
H126 C70 0.947 . S
C127 C70 1.392 . S
C127 C71 1.419 . S
C127 H109 0.948 . S
C128 C129 1.391 . S
C128 C132 1.391 . S
C128 H170 0.948 . S
C129 C128 1.391 . S
C129 C130 1.391 . S
C130 C129 1.391 . S
C130 H186 0.947 . S
C130 C187 1.392 . S
C131 C132 1.391 . S
C131 C135 1.397 . S
C131 C187 1.419 . S
C132 C128 1.391 . S
C132 C131 1.391 . S
C132 C133 1.399 . S
C133 C132 1.399 . S
C133 C136 1.396 . S
C133 C145 1.453 . S
C133 C146 1.684 . S
H134 C158 0.948 . S
C135 C131 1.397 . S
C135 C136 1.394 . S
C135 C154 1.723 . S
C136 C133 1.396 . S
C136 C135 1.394 . S
C136 C166 1.723 1_445 S
H137 C160 0.947 . S
H138 C161 0.948 . S
H139 C167 0.982 . S
H140 C168 0.979 . S
H141 C168 0.980 . S
H142 C168 0.983 . S
H143 C167 0.979 . S
H144 C167 0.977 . S
C145 C133 1.453 . S
C145 H174 0.982 1_545 S
C145 H175 0.979 . S
C145 H176 0.977 1_545 S
C146 C133 1.684 . S
C146 H171 0.979 1_455 S
C146 H172 0.980 1_455 S
C146 H173 0.983 . S
C147 C148 1.391 . S
C147 C152 1.391 . S
C147 H177 0.948 . S
C148 C147 1.391 . S
C148 C149 1.391 1_445 S
C149 C148 1.391 1_665 S
C149 C150 1.392 . S
C149 H178 0.947 . S
C150 C149 1.392 . S
C150 C151 1.417 1_665 S
C150 H179 0.948 . S
C151 C150 1.417 1_445 S
C151 C152 1.394 . S
C151 C155 1.397 . S
C152 C147 1.391 . S
C152 C151 1.394 . S
C152 C153 1.399 . S
C153 C152 1.399 . S
C153 C154 1.396 . S
C153 C156 1.453 . S
C153 C157 1.684 . S
C154 C135 1.723 . S
C154 C153 1.396 . S
C154 C155 1.394 . S
C155 C151 1.397 . S
C155 C154 1.394 . S
C155 C165 1.723 1_445 S
C156 C153 1.453 . S
C156 H180 0.982 . S
C156 H181 0.979 . S
C156 H182 0.977 . S
C157 C153 1.684 . S
C157 H183 0.979 . S
C157 H184 0.980 . S
C157 H185 0.983 . S
C158 H134 0.948 . S
C158 C159 1.391 . S
C158 C163 1.391 . S
C159 C158 1.391 . S
C159 C160 1.391 . S
C160 H137 0.947 . S
C160 C159 1.391 . S
C160 C161 1.392 . S
C161 H138 0.948 . S
C161 C160 1.392 . S
C161 C162 1.419 . S
C162 C161 1.419 . S
C162 C163 1.391 . S
C162 C166 1.397 . S
C163 C158 1.391 . S
C163 C162 1.391 . S
C163 C164 1.399 . S
C164 C163 1.399 . S
C164 C165 1.396 . S
C164 C167 1.453 . S
C164 C168 1.684 . S
C165 C155 1.723 1_665 S
C165 C164 1.396 . S
C165 C166 1.394 . S
C166 C136 1.723 1_665 S
C166 C162 1.397 . S
C166 C165 1.394 . S
C167 H139 0.982 . S
C167 H143 0.979 . S
C167 H144 0.977 . S
C167 C164 1.453 . S
C168 H140 0.979 . S
C168 H141 0.980 . S
C168 H142 0.983 . S
C168 C164 1.684 . S
H169 C187 0.948 . S
H170 C128 0.948 . S
H171 C146 0.979 1_655 S
H172 C146 0.980 1_655 S
H173 C146 0.983 . S
H174 C145 0.982 1_565 S
H175 C145 0.979 . S
H176 C145 0.977 1_565 S
H177 C147 0.948 . S
H178 C149 0.947 . S
H179 C150 0.948 . S
H180 C156 0.982 . S
H181 C156 0.979 . S
H182 C156 0.977 . S
H183 C157 0.979 . S
H184 C157 0.980 . S
H185 C157 0.983 . S
H186 C130 0.947 . S
C187 C130 1.392 . S
C187 C131 1.419 . S
C187 H169 0.948 . S
C188 C189 1.391 . S
C188 C192 1.391 . S
C188 H230 0.948 1_556 S
C189 C188 1.391 . S
C189 C190 1.391 . S
C190 C189 1.391 . S
C190 H246 0.947 . S
C190 C247 1.392 . S
C191 C192 1.391 . S
C191 C195 1.397 . S
C191 C247 1.419 . S
C192 C188 1.391 . S
C192 C191 1.391 . S
C192 C193 1.399 . S
C193 C192 1.399 . S
C193 C196 1.396 . S
C193 C205 1.453 . S
C193 C206 1.690 . S
H194 C218 0.948 . S
C195 C191 1.397 . S
C195 C196 1.394 . S
C195 C214 1.723 . S
C196 C193 1.396 . S
C196 C195 1.394 . S
C196 C226 1.723 . S
H197 C220 0.947 1_554 S
H198 C221 0.948 . S
H199 C227 0.982 . S
H200 C228 0.979 . S
H201 C228 0.980 . S
H202 C228 0.983 . S
H203 C227 0.979 . S
H204 C227 0.977 . S
C205 C193 1.453 . S
C205 H234 0.982 . S
C205 H235 0.979 1_556 S
C205 H236 0.977 . S
C206 C193 1.690 . S
C206 H231 0.981 . S
C206 H232 0.978 1_556 S
C206 H233 0.976 1_556 S
C207 C208 1.391 . S
C207 C212 1.391 . S
C207 H237 0.948 . S
C208 C207 1.391 . S
C208 C209 1.391 . S
C209 C208 1.391 . S
C209 C210 1.392 . S
C209 H238 0.947 . S
C210 C209 1.392 . S
C210 C211 1.419 . S
C210 H239 0.948 . S
C211 C210 1.419 . S
C211 C212 1.391 . S
C211 C215 1.397 . S
C212 C207 1.391 . S
C212 C211 1.391 . S
C212 C213 1.399 . S
C213 C212 1.399 . S
C213 C214 1.396 . S
C213 C216 1.453 . S
C213 C217 1.684 . S
C214 C195 1.723 . S
C214 C213 1.396 . S
C214 C215 1.394 . S
C215 C211 1.397 . S
C215 C214 1.394 . S
C215 C225 1.723 . S
C216 C213 1.453 . S
C216 H240 0.982 . S
C216 H241 0.979 . S
C216 H242 0.977 . S
C217 C213 1.684 . S
C217 H243 0.979 . S
C217 H244 0.980 . S
C217 H245 0.983 . S
C218 H194 0.948 . S
C218 C219 1.391 . S
C218 C223 1.391 . S
C219 C218 1.391 . S
C219 C220 1.391 . S
C220 H197 0.947 1_556 S
C220 C219 1.391 . S
C220 C221 1.392 . S
C221 H198 0.948 . S
C221 C220 1.392 . S
C221 C222 1.419 . S
C222 C221 1.419 . S
C222 C223 1.391 . S
C222 C226 1.397 . S
C223 C218 1.391 . S
C223 C222 1.391 . S
C223 C224 1.399 . S
C224 C223 1.399 . S
C224 C225 1.396 . S
C224 C227 1.453 . S
C224 C228 1.684 . S
C225 C215 1.723 . S
C225 C224 1.396 . S
C225 C226 1.394 . S
C226 C196 1.723 . S
C226 C222 1.397 . S
C226 C225 1.394 . S
C227 H199 0.982 . S
C227 H203 0.979 . S
C227 H204 0.977 . S
C227 C224 1.453 . S
C228 H200 0.979 . S
C228 H201 0.980 . S
C228 H202 0.983 . S
C228 C224 1.684 . S
H229 C247 0.948 . S
H230 C188 0.948 1_554 S
H231 C206 0.981 . S
H232 C206 0.978 1_554 S
H233 C206 0.976 1_554 S
H234 C205 0.982 . S
H235 C205 0.979 1_554 S
H236 C205 0.977 . S
H237 C207 0.948 . S
H238 C209 0.947 . S
H239 C210 0.948 . S
H240 C216 0.982 . S
H241 C216 0.979 . S
H242 C216 0.977 . S
H243 C217 0.979 . S
H244 C217 0.980 . S
H245 C217 0.983 . S
H246 C190 0.947 . S
C247 C190 1.392 . S
C247 C191 1.419 . S
C247 H229 0.948 . S
C248 C249 1.391 . S
C248 C252 1.391 . S
C248 H290 0.948 . S
C249 C248 1.391 . S
C249 C250 1.391 . S
C250 C249 1.391 . S
C250 H306 0.947 . S
C250 C307 1.392 . S
C251 C252 1.391 . S
C251 C255 1.397 . S
C251 C307 1.419 . S
C252 C248 1.391 . S
C252 C251 1.391 . S
C252 C253 1.399 . S
C253 C252 1.399 . S
C253 C256 1.396 . S
C253 C265 1.453 . S
C253 C266 1.684 . S
H254 C278 0.948 . S
C255 C251 1.397 . S
C255 C256 1.394 . S
C255 C274 1.723 . S
C256 C253 1.396 . S
C256 C255 1.394 . S
C256 C286 1.723 . S
H257 C280 0.947 1_556 S
H258 C281 0.948 . S
H259 C287 0.982 . S
H260 C288 0.979 . S
H261 C288 0.980 . S
H262 C288 0.983 . S
H263 C287 0.979 . S
H264 C287 0.977 . S
C265 C253 1.453 . S
C265 H294 0.982 . S
C265 H295 0.951 1_554 S
C265 H296 0.977 . S
C266 C253 1.684 . S
C266 H291 0.979 . S
C266 H292 0.980 . S
C266 H293 0.983 1_554 S
C267 C268 1.391 . S
C267 C272 1.391 . S
C267 H297 0.948 . S
C268 C267 1.391 . S
C268 C269 1.391 . S
C269 C268 1.391 . S
C269 C270 1.392 . S
C269 H298 0.947 . S
C270 C269 1.392 . S
C270 C271 1.419 . S
C270 H299 0.948 . S
C271 C270 1.419 . S
C271 C272 1.391 . S
C271 C275 1.397 . S
C272 C267 1.391 . S
C272 C271 1.391 . S
C272 C273 1.399 . S
C273 C272 1.399 . S
C273 C274 1.396 . S
C273 C276 1.453 . S
C273 C277 1.684 . S
C274 C255 1.723 . S
C274 C273 1.396 . S
C274 C275 1.394 . S
C275 C271 1.397 . S
C275 C274 1.394 . S
C275 C285 1.723 . S
C276 C273 1.453 . S
C276 H300 0.982 . S
C276 H301 0.979 . S
C276 H302 0.977 . S
C277 C273 1.684 . S
C277 H303 0.979 . S
C277 H304 0.980 . S
C277 H305 0.983 . S
C278 H254 0.948 . S
C278 C279 1.391 . S
C278 C283 1.391 . S
C279 C278 1.391 . S
C279 C280 1.391 . S
C280 H257 0.947 1_554 S
C280 C279 1.391 . S
C280 C281 1.392 . S
C281 H258 0.948 . S
C281 C280 1.392 . S
C281 C282 1.419 . S
C282 C281 1.419 . S
C282 C283 1.391 . S
C282 C286 1.397 . S
C283 C278 1.391 . S
C283 C282 1.391 . S
C283 C284 1.399 . S
C284 C283 1.399 . S
C284 C285 1.396 . S
C284 C287 1.453 . S
C284 C288 1.684 . S
C285 C275 1.723 . S
C285 C284 1.396 . S
C285 C286 1.394 . S
C286 C256 1.723 . S
C286 C282 1.397 . S
C286 C285 1.394 . S
C287 H259 0.982 . S
C287 H263 0.979 . S
C287 H264 0.977 . S
C287 C284 1.453 . S
C288 H260 0.979 . S
C288 H261 0.980 . S
C288 H262 0.983 . S
C288 C284 1.684 . S
H289 C307 0.948 . S
H290 C248 0.948 . S
H291 C266 0.979 . S
H292 C266 0.980 . S
H293 C266 0.983 1_556 S
H294 C265 0.982 . S
H295 C265 0.951 1_556 S
H296 C265 0.977 . S
H297 C267 0.948 . S
H298 C269 0.947 . S
H299 C270 0.948 . S
H300 C276 0.982 . S
H301 C276 0.979 . S
H302 C276 0.977 . S
H303 C277 0.979 . S
H304 C277 0.980 . S
H305 C277 0.983 . S
H306 C250 0.947 . S
C307 C250 1.392 . S
C307 C251 1.419 . S
C307 H289 0.948 . S
C308 C309 1.349 1_556 S
C308 C310 1.327 . S
C308 H333 0.950 . S
C309 C308 1.349 1_554 S
C309 C325 1.349 . S
C310 C308 1.327 . S
C310 C329 1.429 1_556 S
C310 H334 0.950 . S
C311 C328 1.574 . S
C311 C330 1.368 . S
C311 H335 0.949 . S
H312 C316 0.949 . S
C313 C314 1.349 . S
C313 C315 1.327 . S
C313 H336 0.950 . S
C314 C313 1.349 . S
C314 C326 1.349 . S
C315 C313 1.327 . S
C315 C331 1.429 . S
C315 H337 0.950 . S
C316 H312 0.949 . S
C316 C324 1.574 . S
C316 C332 1.368 1_556 S
H317 C325 0.950 . S
H318 C323 0.950 . S
H319 C324 0.949 . S
H320 C326 0.950 1_556 S
H321 C327 0.952 . S
H322 C328 0.949 . S
C323 H318 0.950 . S
C323 C325 1.327 . S
C323 C329 1.429 . S
C324 C316 1.574 . S
C324 H319 0.949 . S
C324 C330 1.368 1_556 S
C325 C309 1.349 . S
C325 H317 0.950 . S
C325 C323 1.327 . S
C326 C314 1.349 . S
C326 H320 0.950 1_554 S
C326 C327 1.327 1_554 S
C327 H321 0.952 . S
C327 C326 1.327 1_556 S
C327 C331 1.427 1_556 S
C328 C311 1.574 . S
C328 H322 0.949 . S
C328 C332 1.368 . S
C329 C310 1.429 1_554 S
C329 C323 1.429 . S
C329 C330 1.523 . S
C330 C311 1.368 . S
C330 C324 1.368 1_554 S
C330 C329 1.523 . S
C331 C315 1.429 . S
C331 C327 1.427 1_554 S
C331 C332 1.523 . S
C332 C316 1.368 1_554 S
C332 C328 1.368 . S
C332 C331 1.523 . S
H333 C308 0.950 . S
H334 C310 0.950 . S
H335 C311 0.949 . S
H336 C313 0.950 . S
H337 C315 0.950 . S
C338 C339 1.349 1_556 S
C338 C340 1.327 . S
C338 H363 0.950 . S
C339 C338 1.349 1_554 S
C339 C355 1.349 . S
C340 C338 1.327 . S
C340 C359 1.429 . S
C340 H364 0.950 . S
C341 C358 1.574 . S
C341 C360 1.368 1_554 S
C341 H365 0.949 . S
H342 C346 0.949 . S
C343 C344 1.349 1_554 S
C343 C345 1.327 . S
C343 H366 0.950 . S
C344 C343 1.349 1_556 S
C344 C356 1.349 . S
C345 C343 1.327 . S
C345 C361 1.429 1_554 S
C345 H367 0.950 . S
C346 H342 0.949 . S
C346 C354 1.574 . S
C346 C362 1.368 . S
H347 C355 0.950 . S
H348 C353 0.950 . S
H349 C354 0.949 . S
H350 C356 0.950 . S
H351 C357 0.950 . S
H352 C358 0.949 . S
C353 H348 0.950 . S
C353 C355 1.327 . S
C353 C359 1.429 1_554 S
C354 C346 1.574 . S
C354 H349 0.949 . S
C354 C360 1.368 . S
C355 C339 1.349 . S
C355 H347 0.950 . S
C355 C353 1.327 . S
C356 C344 1.349 . S
C356 H350 0.950 . S
C356 C357 1.327 . S
C357 H351 0.950 . S
C357 C356 1.327 . S
C357 C361 1.429 . S
C358 C341 1.574 . S
C358 H352 0.949 . S
C358 C362 1.368 1_554 S
C359 C340 1.429 . S
C359 C353 1.429 1_556 S
C359 C360 1.523 . S
C360 C341 1.368 1_556 S
C360 C354 1.368 . S
C360 C359 1.523 . S
C361 C345 1.429 1_556 S
C361 C357 1.429 . S
C361 C362 1.523 . S
C362 C346 1.368 . S
C362 C358 1.368 1_556 S
C362 C361 1.523 . S
H363 C338 0.950 . S
H364 C340 0.950 . S
H365 C341 0.949 . S
H366 C343 0.950 . S
H367 C345 0.950 . S
C368 C369 1.349 1_556 S
C368 C370 1.327 . S
C368 H393 0.950 . S
C369 C368 1.349 1_554 S
C369 C385 1.349 . S
C370 C368 1.327 . S
C370 C389 1.429 1_556 S
C370 H394 0.950 . S
C371 C388 1.574 . S
C371 C390 1.368 . S
C371 H395 0.949 . S
H372 C376 0.949 1_556 S
C373 C374 1.349 . S
C373 C375 1.327 . S
C373 H396 0.950 . S
C374 C373 1.349 . S
C374 C386 1.349 . S
C375 C373 1.327 . S
C375 C391 1.429 . S
C375 H397 0.950 . S
C376 H372 0.949 1_554 S
C376 C384 1.571 1_554 S
C376 C392 1.368 . S
H377 C385 0.950 . S
H378 C383 0.950 . S
H379 C384 0.960 . S
H380 C386 0.950 . S
H381 C387 0.950 1_556 S
H382 C388 0.949 . S
C383 H378 0.950 . S
C383 C385 1.327 . S
C383 C389 1.429 . S
C384 C376 1.571 1_556 S
C384 H379 0.960 . S
C384 C390 1.358 1_556 S
C385 C369 1.349 . S
C385 H377 0.950 . S
C385 C383 1.327 . S
C386 C374 1.349 . S
C386 H380 0.950 . S
C386 C387 1.327 . S
C387 H381 0.950 1_554 S
C387 C386 1.327 . S
C387 C391 1.429 . S
C388 C371 1.574 . S
C388 H382 0.949 . S
C388 C392 1.368 . S
C389 C370 1.429 1_554 S
C389 C383 1.429 . S
C389 C390 1.523 . S
C390 C371 1.368 . S
C390 C384 1.358 1_554 S
C390 C389 1.523 . S
C391 C375 1.429 . S
C391 C387 1.429 . S
C391 C392 1.523 . S
C392 C376 1.368 . S
C392 C388 1.368 . S
C392 C391 1.523 . S
H393 C368 0.950 . S
H394 C370 0.950 . S
H395 C371 0.949 . S
H396 C373 0.950 . S
H397 C375 0.950 . S
C398 C399 1.349 . S
C398 C400 1.327 . S
C398 H423 0.950 . S
C399 C398 1.349 . S
C399 C415 1.349 1_554 S
C400 C398 1.327 . S
C400 C419 1.398 1_554 S
C400 H424 0.950 . S
C401 C418 1.574 . S
C401 C420 1.368 . S
C401 H425 0.949 . S
H402 C406 0.949 . S
C403 C404 1.349 . S
C403 C405 1.327 . S
C403 H426 0.950 . S
C404 C403 1.349 . S
C404 C416 1.349 1_556 S
C405 C403 1.327 . S
C405 C421 1.429 . S
C405 H427 0.950 . S
C406 H402 0.949 . S
C406 C414 1.574 . S
C406 C422 1.368 1_554 S
H407 C415 0.950 . S
H408 C413 0.950 . S
H409 C414 0.949 . S
H410 C416 0.950 . S
H411 C417 0.950 . S
H412 C418 0.949 . S
C413 H408 0.950 . S
C413 C415 1.327 . S
C413 C419 1.457 . S
C414 C406 1.574 . S
C414 H409 0.949 . S
C414 C420 1.368 1_554 S
C415 C399 1.349 1_556 S
C415 H407 0.950 . S
C415 C413 1.327 . S
C416 C404 1.349 1_554 S
C416 H410 0.950 . S
C416 C417 1.327 . S
C417 H411 0.950 . S
C417 C416 1.327 . S
C417 C421 1.429 1_554 S
C418 C401 1.574 . S
C418 H412 0.949 . S
C418 C422 1.368 . S
C419 C400 1.398 1_556 S
C419 C413 1.457 . S
C419 C420 1.526 . S
C420 C401 1.368 . S
C420 C414 1.368 1_556 S
C420 C419 1.526 . S
C421 C405 1.429 . S
C421 C417 1.429 1_556 S
C421 C422 1.523 . S
C422 C406 1.368 1_556 S
C422 C418 1.368 . S
C422 C421 1.523 . S
H423 C398 0.950 . S
H424 C400 0.950 . S
H425 C401 0.949 . S
H426 C403 0.950 . S
H427 C405 0.950 . S
C428 C429 1.349 . S
C428 C430 1.327 . S
C428 H453 0.950 . S
C429 C428 1.349 . S
C429 C445 1.349 . S
C430 C428 1.327 . S
C430 C449 1.429 . S
C430 H454 0.950 . S
C431 C448 1.574 . S
C431 C450 1.368 . S
C431 H455 0.949 . S
H432 C436 0.949 . S
C433 C434 1.349 . S
C433 C435 1.327 . S
C433 H456 0.950 . S
C434 C433 1.349 . S
C434 C446 1.349 . S
C435 C433 1.327 . S
C435 C451 1.429 . S
C435 H457 0.950 . S
C436 H432 0.949 . S
C436 C444 1.574 . S
C436 C452 1.368 . S
H437 C445 0.950 . S
H438 C443 0.950 . S
H439 C444 0.949 . S
H440 C446 0.950 . S
H441 C447 0.950 . S
H442 C448 0.949 . S
C443 H438 0.950 . S
C443 C445 1.327 . S
C443 C449 1.429 . S
C444 C436 1.574 . S
C444 H439 0.949 . S
C444 C450 1.368 . S
C445 C429 1.349 . S
C445 H437 0.950 . S
C445 C443 1.327 . S
C446 C434 1.349 . S
C446 H440 0.950 . S
C446 C447 1.327 . S
C447 H441 0.950 . S
C447 C446 1.327 . S
C447 C451 1.429 . S
C448 C431 1.574 . S
C448 H442 0.949 . S
C448 C452 1.368 . S
C449 C430 1.429 . S
C449 C443 1.429 . S
C449 C450 1.523 . S
C450 C431 1.368 . S
C450 C444 1.368 . S
C450 C449 1.523 . S
C451 C435 1.429 . S
C451 C447 1.429 . S
C451 C452 1.523 . S
C452 C436 1.368 . S
C452 C448 1.368 . S
C452 C451 1.523 . S
H453 C428 0.950 . S
H454 C430 0.950 . S
H455 C431 0.949 . S
H456 C433 0.950 . S
H457 C435 0.950 . S
C458 C459 1.349 . S
C458 C460 1.327 . S
C458 H483 0.950 . S
C459 C458 1.349 . S
C459 C475 1.349 . S
C460 C458 1.327 . S
C460 C479 1.429 . S
C460 H484 0.950 . S
C461 C478 1.574 . S
C461 C480 1.368 . S
C461 H485 0.949 . S
H462 C466 0.949 . S
C463 C464 1.349 . S
C463 C465 1.327 . S
C463 H486 0.950 . S
C464 C463 1.349 . S
C464 C476 1.349 . S
C465 C463 1.327 . S
C465 C481 1.429 . S
C465 H487 0.950 . S
C466 H462 0.949 . S
C466 C474 1.574 . S
C466 C482 1.368 . S
H467 C475 0.950 . S
H468 C473 0.950 . S
H469 C474 0.949 . S
H470 C476 0.950 . S
H471 C477 0.950 . S
H472 C478 0.949 . S
C473 H468 0.950 . S
C473 C475 1.327 . S
C473 C479 1.429 . S
C474 C466 1.574 . S
C474 H469 0.949 . S
C474 C480 1.368 . S
C475 C459 1.349 . S
C475 H467 0.950 . S
C475 C473 1.327 . S
C476 C464 1.349 . S
C476 H470 0.950 . S
C476 C477 1.327 . S
C477 H471 0.950 . S
C477 C476 1.327 . S
C477 C481 1.429 . S
C478 C461 1.574 . S
C478 H472 0.949 . S
C478 C482 1.368 . S
C479 C460 1.429 . S
C479 C473 1.429 . S
C479 C480 1.523 . S
C480 C461 1.368 . S
C480 C474 1.368 . S
C480 C479 1.523 . S
C481 C465 1.429 . S
C481 C477 1.429 . S
C481 C482 1.523 . S
C482 C466 1.368 . S
C482 C478 1.368 . S
C482 C481 1.523 . S
H483 C458 0.950 . S
H484 C460 0.950 . S
H485 C461 0.949 . S
H486 C463 0.950 . S
H487 C465 0.950 . S
C488 C489 1.349 . S
C488 C490 1.327 . S
C488 H513 0.950 . S
C489 C488 1.349 . S
C489 C505 1.349 . S
C490 C488 1.327 . S
C490 C509 1.429 . S
C490 H514 0.950 . S
C491 C508 1.574 . S
C491 C510 1.368 . S
C491 H515 0.949 . S
H492 C496 0.949 . S
C493 C494 1.349 . S
C493 C495 1.327 . S
C493 H516 0.950 . S
C494 C493 1.349 . S
C494 C506 1.349 . S
C495 C493 1.327 . S
C495 C511 1.429 . S
C495 H517 0.950 . S
C496 H492 0.949 . S
C496 C504 1.574 . S
C496 C512 1.368 . S
H497 C505 0.950 . S
H498 C503 0.950 . S
H499 C504 0.949 . S
H500 C506 0.950 . S
H501 C507 0.950 . S
H502 C508 0.949 . S
C503 H498 0.950 . S
C503 C505 1.327 . S
C503 C509 1.429 . S
C504 C496 1.574 . S
C504 H499 0.949 . S
C504 C510 1.368 . S
C505 C489 1.349 . S
C505 H497 0.950 . S
C505 C503 1.327 . S
C506 C494 1.349 . S
C506 H500 0.950 . S
C506 C507 1.327 . S
C507 H501 0.950 . S
C507 C506 1.327 . S
C507 C511 1.429 . S
C508 C491 1.574 . S
C508 H502 0.949 . S
C508 C512 1.368 . S
C509 C490 1.429 . S
C509 C503 1.429 . S
C509 C510 1.523 . S
C510 C491 1.368 . S
C510 C504 1.368 . S
C510 C509 1.523 . S
C511 C495 1.429 . S
C511 C507 1.429 . S
C511 C512 1.523 . S
C512 C496 1.368 . S
C512 C508 1.368 . S
C512 C511 1.523 . S
H513 C488 0.950 . S
H514 C490 0.950 . S
H515 C491 0.949 . S
H516 C493 0.950 . S
H517 C495 0.950 . S
C518 C519 1.349 . S
C518 C520 1.327 . S
C518 H543 0.950 . S
C519 C518 1.349 . S
C519 C535 1.349 . S
C520 C518 1.327 . S
C520 C539 1.429 . S
C520 H544 0.950 . S
C521 C538 1.574 . S
C521 C540 1.368 . S
C521 H545 0.949 . S
H522 C526 0.949 . S
C523 C524 1.349 . S
C523 C525 1.327 . S
C523 H546 0.950 . S
C524 C523 1.349 . S
C524 C536 1.349 . S
C525 C523 1.327 . S
C525 C541 1.429 . S
C525 H547 0.950 . S
C526 H522 0.949 . S
C526 C534 1.574 . S
C526 C542 1.368 . S
H527 C535 0.950 . S
H528 C533 0.950 . S
H529 C534 0.949 . S
H530 C536 0.950 . S
H531 C537 0.950 . S
H532 C538 0.949 . S
C533 H528 0.950 . S
C533 C535 1.327 . S
C533 C539 1.429 . S
C534 C526 1.574 . S
C534 H529 0.949 . S
C534 C540 1.368 . S
C535 C519 1.349 . S
C535 H527 0.950 . S
C535 C533 1.327 . S
C536 C524 1.349 . S
C536 H530 0.950 . S
C536 C537 1.327 . S
C537 H531 0.950 . S
C537 C536 1.327 . S
C537 C541 1.429 . S
C538 C521 1.574 . S
C538 H532 0.949 . S
C538 C542 1.368 . S
C539 C520 1.429 . S
C539 C533 1.429 . S
C539 C540 1.523 . S
C540 C521 1.368 . S
C540 C534 1.368 . S
C540 C539 1.523 . S
C541 C525 1.429 . S
C541 C537 1.429 . S
C541 C542 1.523 . S
C542 C526 1.368 . S
C542 C538 1.368 . S
C542 C541 1.523 . S
H543 C518 0.950 . S
H544 C520 0.950 . S
H545 C521 0.949 . S
H546 C523 0.950 . S
H547 C525 0.950 . S
C548 C549 1.349 1_655 S
C548 C550 1.327 . S
C548 H573 0.950 . S
C549 C548 1.349 1_455 S
C549 C565 1.349 1_545 S
C550 C548 1.327 . S
C550 C569 1.429 1_655 S
C550 H574 0.950 . S
C551 C568 1.574 . S
C551 C570 1.368 1_565 S
C551 H575 0.949 . S
H552 C556 0.949 . S
C553 C554 1.343 1_465 S
C553 C555 1.327 . S
C553 H576 0.950 . S
C554 C553 1.343 1_645 S
C554 C566 1.354 . S
C555 C553 1.327 . S
C555 C571 1.429 1_565 S
C555 H577 0.950 . S
C556 H552 0.949 . S
C556 C564 1.574 . S
C556 C572 1.368 1_655 S
H557 C565 0.950 . S
H558 C563 0.950 . S
H559 C564 0.949 . S
H560 C566 0.950 . S
H561 C567 0.950 . S
H562 C568 0.949 . S
C563 H558 0.950 . S
C563 C565 1.327 . S
C563 C569 1.429 1_565 S
C564 C556 1.574 . S
C564 H559 0.949 . S
C564 C570 1.368 1_655 S
C565 C549 1.349 1_565 S
C565 H557 0.950 . S
C565 C563 1.327 . S
C566 C554 1.354 . S
C566 H560 0.950 . S
C566 C567 1.327 . S
C567 H561 0.950 . S
C567 C566 1.327 . S
C567 C571 1.429 1_655 S
C568 C551 1.574 . S
C568 H562 0.949 . S
C568 C572 1.368 1_565 S
C569 C550 1.429 1_455 S
C569 C563 1.429 1_545 S
C569 C570 1.523 . S
C570 C551 1.368 1_545 S
C570 C564 1.368 1_455 S
C570 C569 1.523 . S
C571 C555 1.429 1_545 S
C571 C567 1.429 1_455 S
C571 C572 1.523 . S
C572 C556 1.368 1_455 S
C572 C568 1.368 1_545 S
C572 C571 1.523 . S
H573 C548 0.950 . S
H574 C550 0.950 . S
H575 C551 0.949 . S
H576 C553 0.950 . S
H577 C555 0.950 . S
C578 C579 1.349 1_665 S
C578 C580 1.327 . S
C578 H603 0.950 . S
C579 C578 1.349 1_445 S
C579 C595 1.349 . S
C580 C578 1.327 . S
C580 C599 1.429 1_665 S
C580 H604 0.950 . S
C581 C598 1.574 . S
C581 C600 1.368 . S
C581 H605 0.949 . S
H582 C586 0.949 . S
C583 C584 1.349 . S
C583 C585 1.327 . S
C583 H606 0.950 . S
C584 C583 1.349 . S
C584 C596 1.349 1_445 S
C585 C583 1.327 . S
C585 C601 1.429 . S
C585 H607 0.950 . S
C586 H582 0.949 . S
C586 C594 1.574 . S
C586 C602 1.368 1_665 S
H587 C595 0.950 . S
H588 C593 0.950 . S
H589 C594 0.949 . S
H590 C596 0.950 . S
H591 C597 0.950 . S
H592 C598 0.949 . S
C593 H588 0.950 . S
C593 C595 1.327 . S
C593 C599 1.429 . S
C594 C586 1.574 . S
C594 H589 0.949 . S
C594 C600 1.368 1_665 S
C595 C579 1.349 . S
C595 H587 0.950 . S
C595 C593 1.327 . S
C596 C584 1.349 1_665 S
C596 H590 0.950 . S
C596 C597 1.327 . S
C597 H591 0.950 . S
C597 C596 1.327 . S
C597 C601 1.429 1_665 S
C598 C581 1.574 . S
C598 H592 0.949 . S
C598 C602 1.368 . S
C599 C580 1.429 1_445 S
C599 C593 1.429 . S
C599 C600 1.523 . S
C600 C581 1.368 . S
C600 C594 1.368 1_445 S
C600 C599 1.523 . S
C601 C585 1.429 . S
C601 C597 1.429 1_445 S
C601 C602 1.523 . S
C602 C586 1.368 1_445 S
C602 C598 1.368 . S
C602 C601 1.523 . S
H603 C578 0.950 . S
H604 C580 0.950 . S
H605 C581 0.949 . S
H606 C583 0.950 . S
H607 C585 0.950 . S
C608 C609 1.349 . S
C608 C610 1.327 . S
C608 H633 0.950 . S
C609 C608 1.349 . S
C609 C625 1.349 . S
C610 C608 1.327 . S
C610 C629 1.429 . S
C610 H634 0.950 . S
C611 C628 1.574 . S
C611 C630 1.368 . S
C611 H635 0.949 . S
H612 C616 0.949 . S
C613 C614 1.349 . S
C613 C615 1.327 . S
C613 H636 0.950 . S
C614 C613 1.349 . S
C614 C626 1.349 . S
C615 C613 1.327 . S
C615 C631 1.429 . S
C615 H637 0.950 . S
C616 H612 0.949 . S
C616 C624 1.574 . S
C616 C632 1.368 . S
H617 C625 0.950 . S
H618 C623 0.950 . S
H619 C624 0.949 . S
H620 C626 0.950 . S
H621 C627 0.950 . S
H622 C628 0.949 . S
C623 H618 0.950 . S
C623 C625 1.327 . S
C623 C629 1.429 . S
C624 C616 1.574 . S
C624 H619 0.949 . S
C624 C630 1.368 . S
C625 C609 1.349 . S
C625 H617 0.950 . S
C625 C623 1.327 . S
C626 C614 1.349 . S
C626 H620 0.950 . S
C626 C627 1.327 . S
C627 H621 0.950 . S
C627 C626 1.327 . S
C627 C631 1.429 . S
C628 C611 1.574 . S
C628 H622 0.949 . S
C628 C632 1.368 . S
C629 C610 1.429 . S
C629 C623 1.429 . S
C629 C630 1.523 . S
C630 C611 1.368 . S
C630 C624 1.368 . S
C630 C629 1.523 . S
C631 C615 1.429 . S
C631 C627 1.429 . S
C631 C632 1.523 . S
C632 C616 1.368 . S
C632 C628 1.368 . S
C632 C631 1.523 . S
H633 C608 0.950 . S
H634 C610 0.950 . S
H635 C611 0.949 . S
H636 C613 0.950 . S
H637 C615 0.950 . S
C638 C639 1.349 . S
C638 C640 1.327 . S
C638 H663 0.950 . S
C639 C638 1.349 . S
C639 C655 1.349 . S
C640 C638 1.327 . S
C640 C659 1.429 . S
C640 H664 0.950 . S
C641 C658 1.574 . S
C641 C660 1.368 . S
C641 H665 0.949 . S
H642 C646 0.949 . S
C643 C644 1.349 . S
C643 C645 1.327 . S
C643 H666 0.950 . S
C644 C643 1.349 . S
C644 C656 1.349 . S
C645 C643 1.327 . S
C645 C661 1.429 . S
C645 H667 0.950 . S
C646 H642 0.949 . S
C646 C654 1.574 . S
C646 C662 1.368 . S
H647 C655 0.950 . S
H648 C653 0.950 . S
H649 C654 0.949 . S
H650 C656 0.950 . S
H651 C657 0.950 . S
H652 C658 0.949 . S
C653 H648 0.950 . S
C653 C655 1.327 . S
C653 C659 1.429 . S
C654 C646 1.574 . S
C654 H649 0.949 . S
C654 C660 1.368 . S
C655 C639 1.349 . S
C655 H647 0.950 . S
C655 C653 1.327 . S
C656 C644 1.349 . S
C656 H650 0.950 . S
C656 C657 1.327 . S
C657 H651 0.950 . S
C657 C656 1.327 . S
C657 C661 1.429 . S
C658 C641 1.574 . S
C658 H652 0.949 . S
C658 C662 1.368 . S
C659 C640 1.429 . S
C659 C653 1.429 . S
C659 C660 1.523 . S
C660 C641 1.368 . S
C660 C654 1.368 . S
C660 C659 1.523 . S
C661 C645 1.429 . S
C661 C657 1.429 . S
C661 C662 1.523 . S
C662 C646 1.368 . S
C662 C658 1.368 . S
C662 C661 1.523 . S
H663 C638 0.950 . S
H664 C640 0.950 . S
H665 C641 0.949 . S
H666 C643 0.950 . S
H667 C645 0.950 . S
C314 C279 1.399 . S
C309 C29 1.408 . S
C339 C8 1.397 . S
C344 C219 1.392 . S
C369 C0 1.389 . S
C374 C249 1.293 . S
C399 C17 1.401 . S
C404 C189 1.304 . S
C429 C63 1.408 . S
C434 C159 1.400 . S
C459 C42 1.398 . S
C464 C99 1.391 . S
C494 C129 1.293 . S
C489 C34 1.389 . S
C524 C69 1.304 . S
C519 C51 1.401 . S
C549 C4 1.479 . S
C554 C88 1.462 . S
C579 C13 1.478 . S
C584 C148 1.453 . S
C614 C208 1.460 . S
C609 C38 1.479 . S
C639 C47 1.478 . S
C644 C268 1.453 . S
