# Generated by pormake.
# Topology pto, (3,4)-cn, num edge types: 1
# Building blocks:
#     Node 0, Type 0, BuildingBlock: BETDAH_clean_linker_0, # of connection points: 3
#     Node 1, Type 0, BuildingBlock: BETDAH_clean_linker_0, # of connection points: 3
#     Node 2, Type 0, BuildingBlock: BETDAH_clean_linker_0, # of connection points: 3
#     Node 3, Type 0, BuildingBlock: BETDAH_clean_linker_0, # of connection points: 3
#     Node 4, Type 0, BuildingBlock: BETDAH_clean_linker_0, # of connection points: 3
#     Node 5, Type 0, BuildingBlock: BETDAH_clean_linker_0, # of connection points: 3
#     Node 6, Type 0, BuildingBlock: BETDAH_clean_linker_0, # of connection points: 3
#     Node 7, Type 0, BuildingBlock: BETDAH_clean_linker_0, # of connection points: 3
#     Node 8, Type 1, BuildingBlock: NAWXER_clean_sbu_0, # of connection points: 4
#     Node 9, Type 1, BuildingBlock: NAWXER_clean_sbu_0, # of connection points: 4
#     Node 10, Type 1, BuildingBlock: NAWXER_clean_sbu_0, # of connection points: 4
#     Node 11, Type 1, BuildingBlock: NAWXER_clean_sbu_0, # of connection points: 4
#     Node 12, Type 1, BuildingBlock: NAWXER_clean_sbu_0, # of connection points: 4
#     Node 13, Type 1, BuildingBlock: NAWXER_clean_sbu_0, # of connection points: 4
#     Edge 14, Type (0, 1), BuildingBlock: ZUJKAS_clean_linker_0, # of connection points: 2
#     Edge 15, Type (0, 1), BuildingBlock: ZUJKAS_clean_linker_0, # of connection points: 2
#     Edge 16, Type (0, 1), BuildingBlock: ZUJKAS_clean_linker_0, # of connection points: 2
#     Edge 17, Type (0, 1), BuildingBlock: ZUJKAS_clean_linker_0, # of connection points: 2
#     Edge 18, Type (0, 1), BuildingBlock: ZUJKAS_clean_linker_0, # of connection points: 2
#     Edge 19, Type (0, 1), BuildingBlock: ZUJKAS_clean_linker_0, # of connection points: 2
#     Edge 20, Type (0, 1), BuildingBlock: ZUJKAS_clean_linker_0, # of connection points: 2
#     Edge 21, Type (0, 1), BuildingBlock: ZUJKAS_clean_linker_0, # of connection points: 2
#     Edge 22, Type (0, 1), BuildingBlock: ZUJKAS_clean_linker_0, # of connection points: 2
#     Edge 23, Type (0, 1), BuildingBlock: ZUJKAS_clean_linker_0, # of connection points: 2
#     Edge 24, Type (0, 1), BuildingBlock: ZUJKAS_clean_linker_0, # of connection points: 2
#     Edge 25, Type (0, 1), BuildingBlock: ZUJKAS_clean_linker_0, # of connection points: 2
#     Edge 26, Type (0, 1), BuildingBlock: ZUJKAS_clean_linker_0, # of connection points: 2
#     Edge 27, Type (0, 1), BuildingBlock: ZUJKAS_clean_linker_0, # of connection points: 2
#     Edge 28, Type (0, 1), BuildingBlock: ZUJKAS_clean_linker_0, # of connection points: 2
#     Edge 29, Type (0, 1), BuildingBlock: ZUJKAS_clean_linker_0, # of connection points: 2
#     Edge 30, Type (0, 1), BuildingBlock: ZUJKAS_clean_linker_0, # of connection points: 2
#     Edge 31, Type (0, 1), BuildingBlock: ZUJKAS_clean_linker_0, # of connection points: 2
#     Edge 32, Type (0, 1), BuildingBlock: ZUJKAS_clean_linker_0, # of connection points: 2
#     Edge 33, Type (0, 1), BuildingBlock: ZUJKAS_clean_linker_0, # of connection points: 2
#     Edge 34, Type (0, 1), BuildingBlock: ZUJKAS_clean_linker_0, # of connection points: 2
#     Edge 35, Type (0, 1), BuildingBlock: ZUJKAS_clean_linker_0, # of connection points: 2
#     Edge 36, Type (0, 1), BuildingBlock: ZUJKAS_clean_linker_0, # of connection points: 2
#     Edge 37, Type (0, 1), BuildingBlock: ZUJKAS_clean_linker_0, # of connection points: 2
# Relax obj value: 0.010
# Max RMSD: 0.138
# Mean RMSD: 0.058
data_MOF--net-pto--node1-NAWXER_clean_sbu_0--node2-BETDAH_clean_linker_0--edge1-ZUJKAS_clean_linker_0
_symmetry_space_group_name_H-M    P1
_symmetry_Int_Tables_number       1
_symmetry_cell_setting            triclinic
loop_
_symmetry_equiv_pos_as_xyz
'x, y, z'
_cell_length_a     56.109951
_cell_length_b     51.347117
_cell_length_c     49.725207
_cell_angle_alpha  108.78846
_cell_angle_beta   95.449901
_cell_angle_gamma 99.156459
loop_
_atom_site_label
_atom_site_type_symbol
_atom_site_fract_x
_atom_site_fract_y
_atom_site_fract_z
_atom_type_partial_charge
H0 H 0.32658 0.25756 0.4315 0.0
H1 H 0.30573 0.33752 0.44415 0.0
H2 H 0.27931 0.28693 0.493 0.0
C3 C 0.31651 0.2733 0.44199 0.0
C4 C 0.30216 0.26873 0.46237 0.0
C5 C 0.31818 0.29818 0.43535 0.0
C6 C 0.30483 0.31834 0.44907 0.0
C7 C 0.2908 0.31411 0.46979 0.0
C8 C 0.28983 0.28963 0.47655 0.0
N9 N 0.27839 0.33469 0.48526 0.0
C10 C 0.26505 0.34941 0.47258 0.0
H11 H 0.29815 0.68255 0.81482 0.0
H12 H 0.3463 0.73811 0.78586 0.0
H13 H 0.26847 0.72507 0.76166 0.0
C14 C 0.30086 0.69673 0.80276 0.0
C15 C 0.28049 0.70188 0.78798 0.0
C16 C 0.32466 0.70974 0.80227 0.0
C17 C 0.328 0.72784 0.78642 0.0
C18 C 0.30798 0.73375 0.77202 0.0
C19 C 0.28408 0.72091 0.77299 0.0
N20 N 0.31299 0.75245 0.75663 0.0
C21 C 0.29615 0.76469 0.74514 0.0
H22 H 0.82485 0.71972 0.40714 0.0
H23 H 0.75954 0.7087 0.34805 0.0
H24 H 0.8038 0.64616 0.33109 0.0
C25 C 0.81239 0.70756 0.38747 0.0
C26 C 0.81728 0.6821 0.36978 0.0
C27 C 0.79149 0.71733 0.37999 0.0
C28 C 0.77552 0.70131 0.35424 0.0
C29 C 0.78013 0.67566 0.3366 0.0
C30 C 0.80075 0.66621 0.34466 0.0
N31 N 0.76437 0.65839 0.31082 0.0
C32 C 0.74632 0.66685 0.29641 0.0
H33 H 0.79844 0.29622 0.90257 0.0
H34 H 0.74242 0.2868 0.95432 0.0
H35 H 0.80272 0.35744 0.98632 0.0
C36 C 0.79078 0.30385 0.92216 0.0
C37 C 0.80309 0.32884 0.94374 0.0
C38 C 0.76888 0.28846 0.92561 0.0
C39 C 0.75919 0.29849 0.95131 0.0
C40 C 0.77144 0.32362 0.97313 0.0
C41 C 0.79326 0.33841 0.96918 0.0
N42 N 0.76302 0.33465 0.99974 0.0
C43 C 0.73999 0.32653 0.00606 0.0
H44 H 0.82979 0.74267 0.93184 0.0
H45 H 0.87839 0.76077 0.87557 0.0
H46 H 0.81039 0.78888 0.87709 0.0
C47 C 0.83382 0.75184 0.91557 0.0
C48 C 0.81716 0.76599 0.90584 0.0
C49 C 0.85603 0.75008 0.90497 0.0
C50 C 0.86151 0.76244 0.88438 0.0
C51 C 0.84537 0.77657 0.87446 0.0
C52 C 0.82316 0.77841 0.8852 0.0
N53 N 0.85216 0.78813 0.85329 0.0
C54 C 0.83963 0.80505 0.84298 0.0
H55 H 0.7802 0.26418 0.36068 0.0
H56 H 0.81359 0.25975 0.44048 0.0
H57 H 0.73599 0.23433 0.41491 0.0
C58 C 0.77872 0.25872 0.37985 0.0
C59 C 0.75558 0.24771 0.3847 0.0
C60 C 0.79982 0.26352 0.39997 0.0
C61 C 0.79759 0.25627 0.42477 0.0
C62 C 0.77451 0.24561 0.42993 0.0
C63 C 0.75373 0.24179 0.41016 0.0
N64 N 0.7713 0.24032 0.45572 0.0
C65 C 0.7869 0.2281 0.46896 0.0
H66 H 0.32182 0.26322 0.9142 0.0
H67 H 0.30294 0.34376 0.95227 0.0
H68 H 0.29951 0.30877 0.86062 0.0
C69 C 0.31506 0.28115 0.9119 0.0
C70 C 0.31031 0.28289 0.88441 0.0
C71 C 0.31265 0.303 0.93655 0.0
C72 C 0.3047 0.32666 0.93343 0.0
C73 C 0.2999 0.32861 0.90592 0.0
C74 C 0.30316 0.307 0.8817 0.0
N75 N 0.29286 0.35259 0.90197 0.0
C76 C 0.2767 0.3669 0.91736 0.0
H77 H 0.26923 0.72166 0.32763 0.0
H78 H 0.32897 0.73287 0.28169 0.0
H79 H 0.27598 0.65533 0.25125 0.0
C80 C 0.27883 0.71358 0.30978 0.0
C81 C 0.26983 0.68643 0.28981 0.0
C82 C 0.3002 0.7304 0.30711 0.0
C83 C 0.3126 0.7199 0.28393 0.0
C84 C 0.30364 0.69285 0.26357 0.0
C85 C 0.28243 0.67632 0.26674 0.0
N86 N 0.31545 0.68146 0.2397 0.0
C87 C 0.33581 0.69596 0.23302 0.0
C88 C 1.00315 0.4535 0.36939 0.0
C89 C 0.06464 0.52176 0.35111 0.0
O90 O 0.01389 0.47333 0.39258 0.0
Zn91 Zn 0.04189 0.51072 0.40463 0.0
O92 O 0.00912 0.4537 0.34544 0.0
Zn93 Zn 0.03368 0.48788 0.36003 0.0
O94 O 0.06251 0.47658 0.38316 0.0
O95 O 0.06691 0.50309 0.42882 0.0
O96 O 0.05052 0.50017 0.33288 0.0
O97 O 0.06312 0.52784 0.37795 0.0
O98 O 0.02473 0.54008 0.42215 0.0
O99 O 0.01278 0.51995 0.37538 0.0
C100 C 0.07342 0.48401 0.40914 0.0
C101 C 0.01113 0.53826 0.39943 0.0
C102 C 0.01777 0.49454 0.89888 0.0
C103 C 0.07867 0.557 0.8721 0.0
O104 O 0.03025 0.51474 0.92078 0.0
Zn105 Zn 0.05986 0.55021 0.92917 0.0
O106 O 0.02264 0.49235 0.87389 0.0
Zn107 Zn 0.0486 0.52508 0.88535 0.0
O108 O 0.07724 0.51283 0.90745 0.0
O109 O 0.08569 0.5423 0.95216 0.0
O110 O 0.06389 0.53492 0.85573 0.0
O111 O 0.07885 0.56465 0.89938 0.0
O112 O 0.0447 0.58132 0.94717 0.0
O113 O 0.02912 0.55839 0.90155 0.0
C114 C 0.08975 0.5211 0.93272 0.0
C115 C 0.02931 0.57814 0.92532 0.0
C116 C 0.28366 0.96431 0.61044 0.0
C117 C 0.29053 0.03458 0.56273 0.0
O118 O 0.26635 0.97151 0.59791 0.0
Zn119 Zn 0.28636 0.99934 0.5863 0.0
O120 O 0.30582 0.97611 0.61139 0.0
Zn121 Zn 0.32519 0.00731 0.59693 0.0
O122 O 0.34166 0.03639 0.6324 0.0
O123 O 0.30157 0.03214 0.62632 0.0
O124 O 0.31123 0.03158 0.57335 0.0
O125 O 0.27096 0.01983 0.56528 0.0
O126 O 0.30475 0.97442 0.55475 0.0
O127 O 0.34437 0.98617 0.57088 0.0
C128 C 0.32264 0.04438 0.64135 0.0
C129 C 0.32663 0.97132 0.5513 0.0
C130 C 0.5856 0.70494 0.07686 0.0
C131 C 0.52735 0.70767 0.99865 0.0
O132 O 0.57349 0.6843 0.05558 0.0
Zn133 Zn 0.55694 0.7058 0.03702 0.0
O134 O 0.58334 0.72996 0.07897 0.0
Zn135 Zn 0.56331 0.75031 0.05561 0.0
O136 O 0.54378 0.76839 0.08344 0.0
O137 O 0.53336 0.72212 0.06714 0.0
O138 O 0.53688 0.73215 0.01688 0.0
O139 O 0.53406 0.68622 0.0019 0.0
O140 O 0.58611 0.72782 0.02284 0.0
O141 O 0.58914 0.77321 0.04511 0.0
C142 C 0.53015 0.74602 0.08328 0.0
C143 C 0.5966 0.7533 0.02752 0.0
C144 C 0.80193 0.986 0.6845 0.0
C145 C 0.80401 0.04814 0.62805 0.0
O146 O 0.78057 0.98598 0.67271 0.0
Zn147 Zn 0.76461 0.00582 0.64555 0.0
O148 O 0.82049 1.00128 0.6806 0.0
Zn149 Zn 0.80326 0.01713 0.65625 0.0
O150 O 0.7836 0.04326 0.68527 0.0
O151 O 0.74414 0.02692 0.66986 0.0
O152 O 0.82196 0.04343 0.64212 0.0
O153 O 0.78222 0.03559 0.62774 0.0
O154 O 0.74936 0.97396 0.61157 0.0
O155 O 0.78962 0.98142 0.61777 0.0
C156 C 0.76134 0.04481 0.68819 0.0
C157 C 0.76889 0.96708 0.60314 0.0
C158 C 0.53908 0.25991 0.21954 0.0
C159 C 0.4745 0.27479 0.15631 0.0
O160 O 0.52332 0.24115 0.2 0.0
Zn161 Zn 0.50657 0.26646 0.18752 0.0
O162 O 0.53887 0.28592 0.22419 0.0
Zn163 Zn 0.51858 0.31089 0.20758 0.0
O164 O 0.50471 0.33097 0.24073 0.0
O165 O 0.48946 0.28544 0.22364 0.0
O166 O 0.48788 0.29772 0.17386 0.0
O167 O 0.47901 0.25139 0.15667 0.0
O168 O 0.53391 0.28531 0.16845 0.0
O169 O 0.54335 0.33085 0.19237 0.0
C170 C 0.49008 0.30986 0.24192 0.0
C171 C 0.54649 0.30966 0.1721 0.0
H172 H 0.22206 0.32546 0.43805 0.0
H173 H 0.19069 0.34969 0.42542 0.0
H174 H 0.23842 0.42967 0.47231 0.0
H175 H 0.26986 0.40534 0.48479 0.0
H176 H 0.16953 0.38735 0.46663 0.0
H177 H 0.21299 0.43778 0.39506 0.0
H178 H 0.22307 0.40887 0.40277 0.0
H179 H 0.23151 0.44371 0.42884 0.0
C180 C 0.22596 0.3482 0.44505 0.0
C181 C 0.24827 0.36369 0.46202 0.0
C182 C 0.20807 0.36199 0.43799 0.0
C183 C 0.21231 0.39146 0.44774 0.0
C184 C 0.23494 0.40693 0.46416 0.0
H185 H 0.10001 0.49305 0.46175 0.0
H186 H 0.13405 0.4713 0.47189 0.0
C187 C 0.25284 0.39309 0.47128 0.0
C188 C 0.19239 0.40585 0.44244 0.0
H189 H 0.17603 0.45044 0.40908 0.0
C190 C 0.17093 0.40115 0.45405 0.0
C191 C 0.19426 0.4237 0.4259 0.0
C192 C 0.21659 0.42872 0.41218 0.0
C193 C 0.15127 0.4139 0.44964 0.0
C194 C 0.15326 0.43207 0.43345 0.0
C195 C 0.17467 0.43667 0.4217 0.0
C196 C 0.1329 0.44561 0.42752 0.0
C197 C 0.12833 0.40739 0.46182 0.0
C198 C 0.12126 0.43867 0.39921 0.0
C199 C 0.10185 0.45101 0.39335 0.0
C200 C 0.09379 0.47073 0.4157 0.0
C201 C 0.10566 0.47784 0.44407 0.0
C202 C 0.12507 0.46539 0.44991 0.0
H203 H 0.12779 0.38862 0.46843 0.0
H204 H 0.12756 0.42555 0.48103 0.0
H205 H 0.11182 0.40375 0.44585 0.0
H206 H 0.12707 0.42349 0.38163 0.0
H207 H 0.09322 0.44512 0.37123 0.0
H208 H 0.24052 0.72474 0.80238 0.0
H209 H 0.2024 0.70108 0.81233 0.0
H210 H 0.2269 0.62249 0.78587 0.0
H211 H 0.26488 0.64595 0.77616 0.0
H212 H 0.1644 0.65084 0.77924 0.0
H213 H 0.21958 0.63945 0.8721 0.0
H214 H 0.23117 0.66282 0.85381 0.0
H215 H 0.23016 0.62577 0.83834 0.0
C216 C 0.23745 0.70231 0.79807 0.0
C217 C 0.25573 0.68721 0.7889 0.0
C218 C 0.21574 0.68884 0.8038 0.0
C219 C 0.21209 0.66016 0.80032 0.0
C220 C 0.22956 0.64473 0.78915 0.0
H221 H 0.08779 0.54409 0.81646 0.0
H222 H 0.11858 0.5705 0.79814 0.0
C223 C 0.25122 0.65814 0.7836 0.0
C224 C 0.19126 0.64676 0.81074 0.0
H225 H 0.17823 0.61567 0.86025 0.0
C226 C 0.16733 0.64323 0.79702 0.0
C227 C 0.19516 0.63724 0.83421 0.0
C228 C 0.22037 0.64169 0.85069 0.0
C229 C 0.1472 0.62978 0.80579 0.0
C230 C 0.15123 0.61938 0.82862 0.0
C231 C 0.17515 0.62347 0.84263 0.0
C232 C 0.13107 0.60442 0.83879 0.0
C233 C 0.12181 0.62717 0.79084 0.0
C234 C 0.12802 0.61451 0.86778 0.0
C235 C 0.1107 0.59933 0.87837 0.0
C236 C 0.09602 0.57365 0.8602 0.0
C237 C 0.09872 0.56383 0.831 0.0
C238 C 0.1162 0.57902 0.82043 0.0
H239 H 0.12132 0.64254 0.77946 0.0
H240 H 0.11567 0.60577 0.77464 0.0
H241 H 0.10866 0.63037 0.80637 0.0
H242 H 0.13936 0.634 0.88237 0.0
H243 H 0.10907 0.6076 0.90094 0.0
H244 H 0.84731 0.65755 0.33352 0.0
H245 H 0.88206 0.63769 0.34475 0.0
H246 H 0.87346 0.66474 0.43423 0.0
H247 H 0.83783 0.68361 0.42293 0.0
H248 H 0.9257 0.6618 0.38021 0.0
H249 H 0.87292 0.58177 0.41683 0.0
H250 H 0.85828 0.60145 0.39839 0.0
H251 H 0.87107 0.61746 0.43583 0.0
C252 C 0.8526 0.65904 0.35557 0.0
C253 C 0.83952 0.67183 0.37725 0.0
C254 C 0.87263 0.64788 0.362 0.0
C255 C 0.88012 0.64927 0.39024 0.0
C256 C 0.86769 0.66288 0.41217 0.0
H257 H 0.99685 0.57341 0.44691 0.0
H258 H 0.96649 0.60312 0.44772 0.0
C259 C 0.84751 0.67397 0.40573 0.0
C260 C 0.90078 0.63608 0.39627 0.0
H261 H 0.91517 0.58302 0.41808 0.0
C262 C 0.92343 0.64471 0.38869 0.0
C263 C 0.89782 0.61379 0.40738 0.0
C264 C 0.87369 0.60284 0.41488 0.0
C265 C 0.94301 0.63129 0.39133 0.0
C266 C 0.93981 0.60854 0.40164 0.0
C267 C 0.91752 0.60054 0.41024 0.0
C268 C 0.9587 0.59138 0.40147 0.0
C269 C 0.9669 0.64127 0.38271 0.0
C270 C 0.96414 0.57481 0.3752 0.0
C271 C 0.98124 0.55771 0.37464 0.0
C272 C 0.99334 0.55689 0.40037 0.0
C273 C 0.98794 0.57365 0.42672 0.0
C274 C 0.9706 0.5906 0.42724 0.0
H275 H 0.96844 0.66289 0.38207 0.0
H276 H 0.98263 0.64085 0.39782 0.0
H277 H 0.9681 0.62705 0.36092 0.0
H278 H 0.95488 0.57482 0.35507 0.0
H279 H 0.98493 0.54509 0.35397 0.0
H280 H 0.84148 0.30826 0.92028 0.0
H281 H 0.87864 0.33467 0.91198 0.0
H282 H 0.85443 0.41209 0.95012 0.0
H283 H 0.8168 0.38577 0.95759 0.0
H284 H 0.87121 0.40813 0.89864 0.0
H285 H 0.93768 0.38274 0.97166 0.0
H286 H 0.91773 0.35258 0.94539 0.0
H287 H 0.90525 0.37663 0.97266 0.0
C288 C 0.84399 0.3309 0.92678 0.0
C289 C 0.82615 0.34491 0.93962 0.0
C290 C 0.86539 0.34598 0.92232 0.0
C291 C 0.86946 0.37537 0.9308 0.0
C292 C 0.85171 0.38942 0.94358 0.0
H293 H 1.00221 0.49464 0.9493 0.0
H294 H 0.96649 0.46461 0.9558 0.0
C295 C 0.8303 0.37436 0.94803 0.0
C296 C 0.89188 0.39147 0.9256 0.0
H297 H 0.95417 0.4067 0.9419 0.0
C298 C 0.88936 0.40783 0.90808 0.0
C299 C 0.91551 0.39123 0.93818 0.0
C300 C 0.9193 0.37507 0.95824 0.0
C301 C 0.90983 0.4239 0.9027 0.0
C302 C 0.93349 0.42319 0.91478 0.0
C303 C 0.93602 0.40693 0.93241 0.0
C304 C 0.95578 0.44031 0.91054 0.0
C305 C 0.90592 0.44206 0.88476 0.0
C306 C 0.96193 0.43622 0.88295 0.0
C307 C 0.98236 0.45343 0.87912 0.0
C308 C 0.99708 0.47494 0.90285 0.0
C309 C 0.99125 0.47836 0.93053 0.0
C310 C 0.97084 0.46119 0.93431 0.0
H311 H 0.88681 0.44533 0.88286 0.0
H312 H 0.91846 0.46289 0.8941 0.0
H313 H 0.90976 0.43169 0.86278 0.0
H314 H 0.95081 0.41985 0.86437 0.0
H315 H 0.9864 0.45012 0.85754 0.0
H316 H 0.26103 0.2367 0.46941 0.0
H317 H 0.25803 0.19526 0.48404 0.0
H318 H 0.33548 0.19942 0.48504 0.0
H319 H 0.33875 0.2413 0.47106 0.0
H320 H 0.27125 0.14233 0.45776 0.0
H321 H 0.32465 0.2009 0.56657 0.0
H322 H 0.31209 0.21826 0.5439 0.0
H323 H 0.33955 0.20504 0.53735 0.0
C324 C 0.27745 0.22887 0.47286 0.0
C325 C 0.30018 0.24247 0.46936 0.0
C326 C 0.27567 0.20509 0.48102 0.0
C327 C 0.29658 0.19453 0.48601 0.0
C328 C 0.31918 0.2075 0.4817 0.0
H329 H 0.32922 0.06464 0.54931 0.0
H330 H 0.32922 0.10192 0.52898 0.0
C331 C 0.32098 0.23127 0.47346 0.0
C332 C 0.2948 0.17035 0.49635 0.0
H333 H 0.31418 0.15148 0.55326 0.0
C334 C 0.28055 0.14428 0.47866 0.0
C335 C 0.30684 0.17306 0.52371 0.0
C336 C 0.32148 0.20085 0.54415 0.0
C337 C 0.27859 0.1206 0.4873 0.0
C338 C 0.29085 0.12327 0.51456 0.0
C339 C 0.30485 0.14945 0.53234 0.0
C340 C 0.29009 0.09913 0.52494 0.0
C341 C 0.26399 0.0928 0.4669 0.0
C342 C 0.26802 0.08497 0.52929 0.0
C343 C 0.26791 0.06342 0.54088 0.0
C344 C 0.28993 0.0559 0.54857 0.0
C345 C 0.31191 0.06991 0.54375 0.0
C346 C 0.31198 0.09127 0.53211 0.0
H347 H 0.26076 0.09276 0.44449 0.0
H348 H 0.27343 0.07542 0.46713 0.0
H349 H 0.24595 0.08858 0.47375 0.0
H350 H 0.25095 0.09105 0.52442 0.0
H351 H 0.2507 0.05317 0.54447 0.0
H352 H 0.36784 0.69828 0.7847 0.0
H353 H 0.40326 0.69199 0.81308 0.0
H354 H 0.36517 0.70561 0.88628 0.0
H355 H 0.32966 0.71127 0.85787 0.0
H356 H 0.43187 0.72794 0.85962 0.0
H357 H 0.38963 0.63658 0.88643 0.0
H358 H 0.37458 0.64758 0.85945 0.0
H359 H 0.37308 0.66441 0.89697 0.0
C360 C 0.36701 0.69973 0.8068 0.0
C361 C 0.34593 0.70508 0.81902 0.0
C362 C 0.38721 0.69605 0.82296 0.0
C363 C 0.38674 0.69774 0.85167 0.0
C364 C 0.36573 0.70328 0.86393 0.0
H365 H 0.50509 0.74858 0.99046 0.0
H366 H 0.47237 0.74398 0.95239 0.0
C367 C 0.34547 0.70666 0.84771 0.0
C368 C 0.4087 0.69558 0.86943 0.0
H369 H 0.42729 0.66439 0.91669 0.0
C370 C 0.43093 0.71375 0.87178 0.0
C371 C 0.4077 0.67668 0.88488 0.0
C372 C 0.38502 0.65501 0.88156 0.0
C373 C 0.45181 0.7145 0.89017 0.0
C374 C 0.45026 0.69718 0.90733 0.0
C375 C 0.4284 0.678 0.90391 0.0
C376 C 0.47063 0.69975 0.93002 0.0
C377 C 0.4753 0.73392 0.89102 0.0
C378 C 0.48011 0.6762 0.93073 0.0
C379 C 0.4987 0.67867 0.95285 0.0
C380 C 0.50811 0.70476 0.97466 0.0
C381 C 0.49851 0.72823 0.97386 0.0
C382 C 0.47987 0.72569 0.95194 0.0
H383 H 0.47585 0.7379 0.87038 0.0
H384 H 0.47657 0.75443 0.90825 0.0
H385 H 0.49151 0.72519 0.8955 0.0
H386 H 0.47311 0.65591 0.91418 0.0
H387 H 0.50563 0.66017 0.95289 0.0
H388 H 0.82381 0.76681 0.40942 0.0
H389 H 0.81567 0.80918 0.44415 0.0
H390 H 0.73911 0.77117 0.42865 0.0
H391 H 0.74723 0.72822 0.39469 0.0
H392 H 0.78551 0.84549 0.43827 0.0
H393 H 0.75614 0.79399 0.5157 0.0
H394 H 0.77124 0.77736 0.48623 0.0
H395 H 0.73935 0.77823 0.47988 0.0
C396 C 0.80526 0.76733 0.41355 0.0
C397 C 0.78623 0.74393 0.39948 0.0
C398 C 0.80061 0.79167 0.43325 0.0
C399 C 0.77686 0.79318 0.43939 0.0
C400 C 0.75766 0.77028 0.42469 0.0
H401 H 0.72889 0.92733 0.5703 0.0
H402 H 0.72857 0.88562 0.52844 0.0
C403 C 0.7623 0.74585 0.40501 0.0
C404 C 0.77245 0.81864 0.46149 0.0
H405 H 0.75452 0.8419 0.52746 0.0
C406 C 0.77863 0.84469 0.45771 0.0
C407 C 0.76339 0.81756 0.48683 0.0
C408 C 0.75732 0.79035 0.49264 0.0
C409 C 0.77626 0.8697 0.47869 0.0
C410 C 0.76779 0.86868 0.5043 0.0
C411 C 0.76094 0.84259 0.50775 0.0
C412 C 0.7676 0.89456 0.52865 0.0
C413 C 0.78293 0.89705 0.47332 0.0
C414 C 0.78965 0.91325 0.54272 0.0
C415 C 0.78991 0.93693 0.56661 0.0
C416 C 0.76812 0.94243 0.57704 0.0
C417 C 0.74598 0.92377 0.56276 0.0
C418 C 0.74576 0.89993 0.53888 0.0
H419 H 0.78228 0.89362 0.45001 0.0
H420 H 0.77049 0.91139 0.48205 0.0
H421 H 0.80184 0.90756 0.48424 0.0
H422 H 0.80677 0.90923 0.53555 0.0
H423 H 0.80731 0.95077 0.57707 0.0
H424 H 0.72149 0.36859 0.03836 0.0
H425 H 0.68679 0.36503 0.0643 0.0
H426 H 0.67404 0.27463 0.02752 0.0
H427 H 0.70929 0.27829 0.00199 0.0
H428 H 0.6382 0.34195 0.04702 0.0
H429 H 0.68083 0.28762 0.11307 0.0
H430 H 0.69763 0.30356 0.09128 0.0
H431 H 0.67761 0.26974 0.075 0.0
C432 C 0.71107 0.34799 0.03565 0.0
C433 C 0.71784 0.32369 0.01833 0.0
C434 C 0.6913 0.34597 0.05045 0.0
C435 C 0.67805 0.31958 0.04828 0.0
C436 C 0.68432 0.29521 0.03002 0.0
H437 H 0.55832 0.2675 0.1292 0.0
H438 H 0.58945 0.27085 0.09881 0.0
C439 C 0.70424 0.29726 0.01526 0.0
C440 C 0.65815 0.31784 0.06575 0.0
H441 H 0.64031 0.29324 0.1184 0.0
C442 C 0.63866 0.33132 0.06265 0.0
C443 C 0.65888 0.30418 0.08634 0.0
C444 C 0.67995 0.29067 0.0919 0.0
C445 C 0.61972 0.33112 0.07922 0.0
C446 C 0.62041 0.31731 0.09963 0.0
C447 C 0.63984 0.3038 0.10271 0.0
C448 C 0.60089 0.31598 0.11758 0.0
C449 C 0.59888 0.34522 0.07444 0.0
C450 C 0.59698 0.34032 0.13836 0.0
C451 C 0.57913 0.33851 0.15597 0.0
C452 C 0.56492 0.31231 0.15308 0.0
C453 C 0.56884 0.28807 0.13206 0.0
C454 C 0.58668 0.28989 0.11462 0.0
H455 H 0.59846 0.34978 0.05404 0.0
H456 H 0.5811 0.33189 0.07401 0.0
H457 H 0.60099 0.36539 0.09244 0.0
H458 H 0.60802 0.36064 0.14128 0.0
H459 H 0.57665 0.35756 0.17199 0.0
H460 H 0.2975 0.81985 0.76816 0.0
H461 H 0.28493 0.85028 0.74278 0.0
H462 H 0.25542 0.77758 0.66712 0.0
H463 H 0.26865 0.74717 0.69252 0.0
H464 H 0.28655 0.8146 0.6548 0.0
H465 H 0.22329 0.8718 0.71735 0.0
H466 H 0.2508 0.87426 0.74031 0.0
H467 H 0.231 0.84049 0.72195 0.0
C468 C 0.28756 0.81038 0.74644 0.0
C469 C 0.28371 0.78131 0.73228 0.0
C470 C 0.28027 0.82775 0.73196 0.0
C471 C 0.26886 0.81627 0.70311 0.0
C472 C 0.26398 0.78692 0.68943 0.0
H473 H 0.23936 0.93264 0.61133 0.0
H474 H 0.23237 0.89471 0.63152 0.0
C475 C 0.2714 0.76956 0.70393 0.0
C476 C 0.26545 0.83508 0.68631 0.0
H477 H 0.24532 0.89516 0.68887 0.0
C478 C 0.27707 0.83185 0.66196 0.0
C479 C 0.25288 0.85748 0.69531 0.0
C480 C 0.23857 0.86102 0.71999 0.0
C481 C 0.27774 0.85127 0.64751 0.0
C482 C 0.26692 0.87492 0.65797 0.0
C483 C 0.25395 0.87726 0.68115 0.0
C484 C 0.27064 0.89834 0.64646 0.0
C485 C 0.29054 0.84662 0.6215 0.0
C486 C 0.29437 0.91331 0.64876 0.0
C487 C 0.29842 0.93484 0.63733 0.0
C488 C 0.27879 0.94208 0.62344 0.0
C489 C 0.25489 0.92753 0.62178 0.0
C490 C 0.25085 0.90588 0.6333 0.0
H491 H 0.29106 0.82409 0.61116 0.0
H492 H 0.28141 0.85402 0.60533 0.0
H493 H 0.30968 0.85856 0.62827 0.0
H494 H 0.30986 0.90825 0.65935 0.0
H495 H 0.31705 0.94569 0.63926 0.0
H496 H 0.74206 0.71656 0.29054 0.0
H497 H 0.71283 0.72373 0.25468 0.0
H498 H 0.68109 0.63511 0.2232 0.0
H499 H 0.70993 0.62816 0.25926 0.0
H500 H 0.70875 0.69989 0.19603 0.0
H501 H 0.6207 0.66939 0.23069 0.0
H502 H 0.64975 0.67697 0.25352 0.0
H503 H 0.63921 0.64325 0.2257 0.0
C504 C 0.72845 0.69884 0.27627 0.0
C505 C 0.72784 0.67192 0.27762 0.0
C506 C 0.71188 0.70287 0.25579 0.0
C507 C 0.69452 0.68002 0.23653 0.0
C508 C 0.69386 0.65315 0.23826 0.0
H509 H 0.59146 0.65512 0.08355 0.0
H510 H 0.61825 0.64878 0.12199 0.0
C511 C 0.71037 0.64917 0.25873 0.0
C512 C 0.67825 0.68381 0.21333 0.0
H513 H 0.61839 0.67334 0.18404 0.0
C514 C 0.68899 0.69431 0.19356 0.0
C515 C 0.65246 0.67632 0.21001 0.0
C516 C 0.63981 0.6661 0.23126 0.0
C517 C 0.67468 0.69711 0.1703 0.0
C518 C 0.64894 0.68948 0.16691 0.0
C519 C 0.63816 0.67899 0.18664 0.0
C520 C 0.6329 0.69316 0.14353 0.0
C521 C 0.6872 0.70774 0.14921 0.0
C522 C 0.63217 0.72018 0.14312 0.0
C523 C 0.61692 0.72388 0.12135 0.0
C524 C 0.60203 0.70058 0.0995 0.0
C525 C 0.60277 0.67347 0.09997 0.0
C526 C 0.618 0.66982 0.12192 0.0
H527 H 0.70682 0.7064 0.15092 0.0
H528 H 0.67811 0.69566 0.1268 0.0
H529 H 0.68604 0.73008 0.1537 0.0
H530 H 0.64328 0.73848 0.15984 0.0
H531 H 0.61678 0.74506 0.12174 0.0
H532 H 0.74998 0.2379 0.93105 0.0
H533 H 0.73849 0.19198 0.89249 0.0
H534 H 0.75157 0.23199 0.82966 0.0
H535 H 0.76166 0.27776 0.8677 0.0
H536 H 0.71431 0.18805 0.80826 0.0
H537 H 0.7927 0.15667 0.85857 0.0
H538 H 0.76925 0.16446 0.88032 0.0
H539 H 0.78723 0.1919 0.87137 0.0
C540 C 0.7497 0.23694 0.90894 0.0
C541 C 0.75727 0.26141 0.90248 0.0
C542 C 0.74344 0.21064 0.88694 0.0
C543 C 0.74495 0.20841 0.85823 0.0
C544 C 0.75054 0.23306 0.85163 0.0
H545 H 0.79337 0.09152 0.72363 0.0
H546 H 0.78579 0.12861 0.76488 0.0
C547 C 0.7565 0.25924 0.87346 0.0
C548 C 0.74301 0.18078 0.83522 0.0
H549 H 0.77203 0.12557 0.81395 0.0
C550 C 0.72671 0.17416 0.80959 0.0
C551 C 0.7594 0.16281 0.83687 0.0
C552 C 0.77829 0.16932 0.86312 0.0
C553 C 0.72707 0.15085 0.78522 0.0
C554 C 0.74377 0.13322 0.78677 0.0
C555 C 0.75922 0.13908 0.81281 0.0
C556 C 0.74752 0.11045 0.76104 0.0
C557 C 0.71057 0.14629 0.75763 0.0
C558 C 0.7285 0.08779 0.74493 0.0
C559 C 0.73274 0.06656 0.72091 0.0
C560 C 0.75617 0.06743 0.71291 0.0
C561 C 0.77512 0.09009 0.7292 0.0
C562 C 0.77083 0.11134 0.75288 0.0
H563 H 0.70281 0.16506 0.75837 0.0
H564 H 0.72062 0.14107 0.73902 0.0
H565 H 0.69515 0.12845 0.75396 0.0
H566 H 0.71049 0.0863 0.75112 0.0
H567 H 0.71781 0.04926 0.70893 0.0
H568 H 0.3492 0.34712 0.44045 0.0
H569 H 0.37756 0.35489 0.40798 0.0
H570 H 0.35345 0.26859 0.35245 0.0
H571 H 0.32454 0.2609 0.3842 0.0
H572 H 0.41588 0.32845 0.39309 0.0
H573 H 0.34982 0.31029 0.29575 0.0
H574 H 0.3408 0.31615 0.33078 0.0
H575 H 0.34493 0.28192 0.30952 0.0
C576 C 0.34957 0.32994 0.42101 0.0
C577 C 0.33451 0.30339 0.41489 0.0
C578 C 0.36593 0.33438 0.40259 0.0
C579 C 0.36741 0.31245 0.37757 0.0
C580 C 0.3523 0.28599 0.37132 0.0
H581 H 0.45589 0.26866 0.24743 0.0
H582 H 0.42709 0.27301 0.28152 0.0
C583 C 0.33597 0.28154 0.38969 0.0
C584 C 0.38557 0.31666 0.35869 0.0
H585 H 0.39129 0.30818 0.28877 0.0
C586 C 0.41052 0.32446 0.37037 0.0
C587 C 0.37855 0.3116 0.32908 0.0
C588 C 0.35205 0.30481 0.31558 0.0
C589 C 0.42865 0.32589 0.35291 0.0
C590 C 0.42159 0.31964 0.3231 0.0
C591 C 0.39665 0.31286 0.31163 0.0
C592 C 0.4397 0.31773 0.303 0.0
C593 C 0.4552 0.3328 0.36618 0.0
C594 C 0.45641 0.34152 0.30373 0.0
C595 C 0.47305 0.33915 0.28411 0.0
C596 C 0.47318 0.31292 0.26347 0.0
C597 C 0.45641 0.2892 0.26301 0.0
C598 C 0.43984 0.29162 0.28247 0.0
H599 H 0.45756 0.33289 0.38865 0.0
H600 H 0.4652 0.31743 0.35327 0.0
H601 H 0.46369 0.35392 0.36635 0.0
H602 H 0.4564 0.36194 0.31922 0.0
H603 H 0.48564 0.35783 0.28498 0.0
H604 H 0.90526 0.76774 0.92186 0.0
H605 H 0.93481 0.74008 0.93085 0.0
H606 H 0.87596 0.66998 0.91796 0.0
H607 H 0.84621 0.69773 0.9092 0.0
H608 H 0.91425 0.67764 0.96337 0.0
H609 H 0.94909 0.67737 0.86243 0.0
H610 H 0.95001 0.71179 0.88756 0.0
H611 H 0.92105 0.68851 0.8713 0.0
C612 C 0.89862 0.74652 0.92123 0.0
C613 C 0.87348 0.73472 0.91446 0.0
C614 C 0.9155 0.73076 0.92634 0.0
C615 C 0.90759 0.70282 0.92446 0.0
C616 C 0.88242 0.69149 0.91938 0.0
H617 H 0.99106 0.57238 0.88437 0.0
H618 H 0.96143 0.60258 0.88633 0.0
C619 C 0.86546 0.70735 0.91444 0.0
C620 C 0.92561 0.68492 0.92581 0.0
H621 H 0.9705 0.65748 0.89145 0.0
C622 C 0.92659 0.6732 0.9477 0.0
C623 C 0.9414 0.67886 0.90505 0.0
C624 C 0.94026 0.68954 0.88008 0.0
C625 C 0.94315 0.65573 0.9495 0.0
C626 C 0.95934 0.65026 0.92912 0.0
C627 C 0.95823 0.66191 0.90721 0.0
C628 C 0.97686 0.63146 0.9291 0.0
C629 C 0.94275 0.64273 0.97272 0.0
C630 C 0.99549 0.63768 0.95252 0.0
C631 C 0.01251 0.6203 0.95153 0.0
C632 C 0.01132 0.5966 0.92696 0.0
C633 C 0.99261 0.59051 0.9036 0.0
C634 C 0.9756 0.60774 0.90468 0.0
H635 H 0.92551 0.64338 0.98199 0.0
H636 H 0.94491 0.62055 0.96425 0.0
H637 H 0.95817 0.65456 0.99034 0.0
H638 H 0.99712 0.65622 0.97134 0.0
H639 H 0.02675 0.62563 0.96983 0.0
H640 H 0.81963 0.25528 0.35016 0.0
H641 H 0.85653 0.28315 0.3429 0.0
H642 H 0.87064 0.33274 0.4332 0.0
H643 H 0.83371 0.30533 0.4406 0.0
H644 H 0.8644 0.3412 0.3543 0.0
H645 H 0.93746 0.31408 0.41728 0.0
H646 H 0.90687 0.29305 0.40602 0.0
H647 H 0.91333 0.32477 0.43686 0.0
C648 C 0.83069 0.27199 0.36852 0.0
C649 C 0.82368 0.27806 0.39597 0.0
C650 C 0.85181 0.2878 0.36435 0.0
C651 C 0.86647 0.3098 0.38756 0.0
C652 C 0.8599 0.31545 0.41509 0.0
H653 H 0.98505 0.44859 0.417 0.0
H654 H 0.95235 0.41223 0.41937 0.0
C655 C 0.83877 0.29971 0.41929 0.0
C656 C 0.88749 0.32832 0.38268 0.0
H657 H 0.94876 0.35444 0.40378 0.0
C658 C 0.88292 0.34386 0.36481 0.0
C659 C 0.91157 0.3318 0.39652 0.0
C660 C 0.91772 0.31486 0.41505 0.0
C661 C 0.90162 0.36358 0.36123 0.0
C662 C 0.92566 0.36744 0.37549 0.0
C663 C 0.93032 0.35146 0.39289 0.0
C664 C 0.94596 0.38888 0.37369 0.0
C665 C 0.89529 0.38091 0.34319 0.0
C666 C 0.95348 0.38763 0.34724 0.0
C667 C 0.97214 0.40852 0.34576 0.0
C668 C 0.98375 0.43091 0.37077 0.0
C669 C 0.97648 0.43172 0.39729 0.0
C670 C 0.95782 0.4109 0.39872 0.0
H671 H 0.8753 0.38007 0.33938 0.0
H672 H 0.90477 0.4032 0.35363 0.0
H673 H 0.90129 0.37266 0.32197 0.0
H674 H 0.9449 0.37051 0.32773 0.0
H675 H 0.97741 0.40714 0.32502 0.0
H676 H 0.28322 0.41643 0.96119 0.0
H677 H 0.25182 0.44444 0.97546 0.0
H678 H 0.19759 0.37937 0.9114 0.0
H679 H 0.22875 0.35134 0.89778 0.0
H680 H 0.22677 0.46523 0.94165 0.0
H681 H 0.16041 0.39731 0.97784 0.0
H682 H 0.19091 0.39127 0.97369 0.0
H683 H 0.16686 0.37838 0.94309 0.0
C684 C 0.26441 0.40794 0.95083 0.0
C685 C 0.25812 0.38177 0.92872 0.0
C686 C 0.24655 0.42391 0.95888 0.0
C687 C 0.22222 0.41383 0.94487 0.0
C688 C 0.21601 0.38728 0.92315 0.0
H689 H 0.09774 0.47085 0.89865 0.0
H690 H 0.13053 0.44695 0.90692 0.0
C691 C 0.23381 0.37133 0.91524 0.0
C692 C 0.20384 0.43204 0.95047 0.0
H693 H 0.1444 0.43136 0.96067 0.0
C694 C 0.20896 0.45813 0.94652 0.0
C695 C 0.1806 0.42284 0.9569 0.0
C696 C 0.17448 0.39604 0.96343 0.0
C697 C 0.19099 0.47437 0.94698 0.0
C698 C 0.16736 0.46428 0.95158 0.0
C699 C 0.16254 0.43891 0.95696 0.0
C700 C 0.14687 0.4784 0.94802 0.0
C701 C 0.1969 0.50148 0.94097 0.0
C702 C 0.14508 0.50386 0.96865 0.0
C703 C 0.12622 0.5176 0.96407 0.0
C704 C 0.10902 0.50614 0.93867 0.0
C705 C 0.11073 0.48036 0.91836 0.0
C706 C 0.12941 0.46659 0.92307 0.0
H707 H 0.21568 0.50543 0.93581 0.0
H708 H 0.18363 0.50107 0.92271 0.0
H709 H 0.19524 0.51927 0.96009 0.0
H710 H 0.15839 0.51321 0.98809 0.0
H711 H 0.1254 0.53741 0.98012 0.0
H712 H 0.25661 0.68094 0.33966 0.0
H713 H 0.21938 0.65278 0.34554 0.0
H714 H 0.19529 0.62299 0.254 0.0
H715 H 0.23225 0.65172 0.24787 0.0
H716 H 0.16833 0.65569 0.32518 0.0
H717 H 0.19223 0.5508 0.2782 0.0
H718 H 0.21514 0.58286 0.29184 0.0
H719 H 0.19572 0.57442 0.25816 0.0
C720 C 0.24333 0.66864 0.32075 0.0
C721 C 0.24743 0.66869 0.29328 0.0
C722 C 0.22213 0.65244 0.32417 0.0
C723 C 0.20473 0.63572 0.3002 0.0
C724 C 0.2087 0.63554 0.27272 0.0
H725 H 0.07278 0.5163 0.29612 0.0
H726 H 0.10496 0.54475 0.28155 0.0
C727 C 0.22986 0.65188 0.26927 0.0
C728 C 0.18228 0.61887 0.30422 0.0
H729 H 0.15453 0.5518 0.29517 0.0
C730 C 0.16519 0.63296 0.31849 0.0
C731 C 0.17822 0.58925 0.2952 0.0
C732 C 0.19629 0.57328 0.28011 0.0
C733 C 0.14421 0.6182 0.32435 0.0
C734 C 0.14059 0.58862 0.31637 0.0
C735 C 0.15736 0.57447 0.30132 0.0
C736 C 0.12038 0.57215 0.32493 0.0
C737 C 0.12608 0.63445 0.33893 0.0
C738 C 0.11848 0.57797 0.35412 0.0
C739 C 0.10012 0.56191 0.36249 0.0
C740 C 0.08338 0.5394 0.34184 0.0
C741 C 0.08532 0.53354 0.31256 0.0
C742 C 0.1037 0.54974 0.3042 0.0
H743 H 0.12716 0.6547 0.33502 0.0
H744 H 0.10708 0.62217 0.33136 0.0
H745 H 0.13029 0.63931 0.36249 0.0
H746 H 0.13152 0.59467 0.37054 0.0
H747 H 0.09932 0.56689 0.38523 0.0
H748 H 0.84855 0.86142 0.86423 0.0
H749 H 0.83848 0.89268 0.8384 0.0
H750 H 0.80035 0.82075 0.76603 0.0
H751 H 0.81075 0.7895 0.79182 0.0
H752 H 0.83509 0.85607 0.75138 0.0
H753 H 0.77529 0.917 0.81787 0.0
H754 H 0.80347 0.91661 0.838 0.0
H755 H 0.7814 0.88443 0.82076 0.0
C756 C 0.83746 0.85247 0.84312 0.0
C757 C 0.83011 0.82331 0.82996 0.0
C758 C 0.83168 0.87027 0.82842 0.0
C759 C 0.81843 0.85905 0.80042 0.0
C760 C 0.81045 0.82982 0.78768 0.0
H761 H 0.76562 0.95194 0.69734 0.0
H762 H 0.76979 0.92126 0.72541 0.0
C763 C 0.81625 0.81204 0.8024 0.0
C764 C 0.81498 0.87755 0.78346 0.0
H765 H 0.79117 0.93458 0.78285 0.0
C766 C 0.82535 0.87313 0.75816 0.0
C767 C 0.80216 0.89968 0.79228 0.0
C768 C 0.78973 0.90462 0.81857 0.0
C769 C 0.8236 0.89053 0.74165 0.0
C770 C 0.8115 0.91323 0.75097 0.0
C771 C 0.80071 0.91736 0.77598 0.0
C772 C 0.80925 0.93245 0.73457 0.0
C773 C 0.83444 0.88424 0.71416 0.0
C774 C 0.83009 0.94922 0.73075 0.0
C775 C 0.82781 0.96681 0.71464 0.0
C776 C 0.80461 0.96799 0.70218 0.0
C777 C 0.78378 0.95149 0.70652 0.0
C778 C 0.78609 0.93397 0.72262 0.0
H779 H 0.83776 0.86247 0.70656 0.0
H780 H 0.82224 0.88714 0.69686 0.0
H781 H 0.85222 0.89892 0.71799 0.0
H782 H 0.84812 0.94869 0.74024 0.0
H783 H 0.8442 0.97935 0.71185 0.0
H784 H 0.71643 0.2036 0.36727 0.0
H785 H 0.67823 0.19818 0.33601 0.0
H786 H 0.70568 0.27629 0.32388 0.0
H787 H 0.74373 0.28219 0.35553 0.0
H788 H 0.6463 0.2366 0.3461 0.0
H789 H 0.67897 0.22115 0.24128 0.0
H790 H 0.6963 0.21638 0.27128 0.0
H791 H 0.69653 0.25109 0.27022 0.0
C792 C 0.71436 0.21962 0.35792 0.0
C793 C 0.73315 0.24336 0.36395 0.0
C794 C 0.69258 0.21639 0.33994 0.0
C795 C 0.68926 0.23665 0.32738 0.0
C796 C 0.70809 0.26011 0.3329 0.0
H797 H 0.56788 0.2935 0.2697 0.0
H798 H 0.60242 0.28326 0.29533 0.0
C799 C 0.72985 0.26343 0.35097 0.0
C800 C 0.6655 0.23435 0.31016 0.0
H801 H 0.63947 0.23293 0.24466 0.0
C802 C 0.64472 0.23539 0.3238 0.0
C803 C 0.66344 0.23244 0.28099 0.0
C804 C 0.68494 0.22993 0.26494 0.0
C805 C 0.62216 0.23601 0.30943 0.0
C806 C 0.62045 0.23573 0.2808 0.0
C807 C 0.64091 0.23326 0.26668 0.0
C808 C 0.5983 0.24066 0.26612 0.0
C809 C 0.60044 0.23756 0.32516 0.0
C810 C 0.58454 0.22003 0.24114 0.0
C811 C 0.56458 0.22577 0.22643 0.0
C812 C 0.55845 0.2524 0.23626 0.0
C813 C 0.57213 0.27279 0.26153 0.0
C814 C 0.59181 0.26695 0.27631 0.0
H815 H 0.60288 0.23016 0.34373 0.0
H816 H 0.5982 0.2597 0.33347 0.0
H817 H 0.58341 0.22482 0.31051 0.0
H818 H 0.58942 0.19966 0.23289 0.0
H819 H 0.55448 0.20971 0.20693 0.0
H820 H 0.33245 0.28636 0.83849 0.0
H821 H 0.33827 0.24745 0.79715 0.0
H822 H 0.30094 0.18805 0.83146 0.0
H823 H 0.29508 0.2267 0.87273 0.0
H824 H 0.34456 0.17504 0.813 0.0
H825 H 0.28525 0.1969 0.72998 0.0
H826 H 0.30918 0.22575 0.75181 0.0
H827 H 0.2848 0.21273 0.76797 0.0
C828 C 0.32525 0.265 0.83702 0.0
C829 C 0.31326 0.25957 0.85881 0.0
C830 C 0.32863 0.24282 0.81345 0.0
C831 C 0.31987 0.2149 0.81117 0.0
C832 C 0.30791 0.20945 0.83288 0.0
H833 H 0.28519 0.06237 0.6681 0.0
H834 H 0.28715 0.10416 0.70978 0.0
C835 C 0.30459 0.23155 0.85643 0.0
C836 C 0.32303 0.19115 0.78623 0.0
H837 H 0.30553 0.15925 0.71379 0.0
C838 C 0.33618 0.17163 0.79125 0.0
C839 C 0.31192 0.18674 0.75797 0.0
C840 C 0.29682 0.20646 0.75149 0.0
C841 C 0.33815 0.14749 0.76878 0.0
C842 C 0.32693 0.14304 0.74055 0.0
C843 C 0.31421 0.16285 0.73547 0.0
C844 C 0.32651 0.11698 0.71627 0.0
C845 C 0.35138 0.12643 0.77556 0.0
C846 C 0.34807 0.11014 0.70626 0.0
C847 C 0.34705 0.08604 0.68238 0.0
C848 C 0.3244 0.06859 0.66805 0.0
C849 C 0.30294 0.07535 0.67853 0.0
C850 C 0.304 0.09929 0.70234 0.0
H851 H 0.35477 0.13026 0.79903 0.0
H852 H 0.34075 0.10472 0.76443 0.0
H853 H 0.36929 0.12791 0.76785 0.0
H854 H 0.36561 0.12376 0.71649 0.0
H855 H 0.36388 0.08149 0.67471 0.0
H856 H 0.33899 0.74006 0.21435 0.0
H857 H 0.37302 0.75825 0.19326 0.0
H858 H 0.41295 0.698 0.20893 0.0
H859 H 0.37911 0.68014 0.23026 0.0
H860 H 0.4423 0.75238 0.22085 0.0
H861 H 0.38457 0.71127 0.11283 0.0
H862 H 0.3729 0.73518 0.1411 0.0
H863 H 0.37567 0.70131 0.14263 0.0
C864 C 0.35525 0.73111 0.21361 0.0
C865 C 0.35667 0.70879 0.22371 0.0
C866 C 0.37456 0.74137 0.20151 0.0
C867 C 0.39535 0.72921 0.19923 0.0
C868 C 0.39708 0.70767 0.21051 0.0
H869 H 0.49719 0.70174 0.08486 0.0
H870 H 0.46494 0.70235 0.11436 0.0
C871 C 0.37781 0.69746 0.22261 0.0
C872 C 0.4146 0.73733 0.18333 0.0
H873 H 0.42555 0.73187 0.11555 0.0
C874 C 0.43864 0.74831 0.1979 0.0
C875 C 0.40972 0.73173 0.15334 0.0
C876 C 0.38439 0.71904 0.13639 0.0
C877 C 0.45808 0.75307 0.18309 0.0
C878 C 0.45325 0.74686 0.15303 0.0
C879 C 0.42911 0.73678 0.13865 0.0
C880 C 0.47313 0.74742 0.13553 0.0
C881 C 0.48379 0.76336 0.19938 0.0
C882 C 0.48841 0.77268 0.13758 0.0
C883 C 0.50702 0.77245 0.1206 0.0
C884 C 0.51056 0.74694 0.10137 0.0
C885 C 0.49507 0.72179 0.09943 0.0
C886 C 0.47656 0.72206 0.11626 0.0
H887 H 0.48475 0.76371 0.22192 0.0
H888 H 0.49605 0.74979 0.18844 0.0
H889 H 0.49077 0.78498 0.1998 0.0
H890 H 0.48585 0.79251 0.15212 0.0
H891 H 0.51859 0.79218 0.12255 0.0
H892 H 0.78199 0.17225 0.45189 0.0
H893 H 0.79429 0.14508 0.48138 0.0
H894 H 0.82986 0.22194 0.54947 0.0
H895 H 0.81702 0.24918 0.52004 0.0
H896 H 0.83796 0.14037 0.5103 0.0
H897 H 0.77676 0.18742 0.58591 0.0
H898 H 0.77688 0.19154 0.55126 0.0
H899 H 0.80094 0.21182 0.58053 0.0
C900 C 0.79297 0.18322 0.47287 0.0
C901 C 0.79865 0.21261 0.48388 0.0
C902 C 0.79998 0.16774 0.48969 0.0
C903 C 0.81264 0.18151 0.51779 0.0
C904 C 0.81977 0.21094 0.52802 0.0
H905 H 0.84721 0.08042 0.62535 0.0
H906 H 0.85274 0.11442 0.60015 0.0
C907 C 0.81263 0.22645 0.51119 0.0
C908 C 0.81589 0.16505 0.53702 0.0
H909 H 0.79517 0.15266 0.59503 0.0
C910 C 0.82892 0.14326 0.52908 0.0
C911 C 0.80379 0.1687 0.56132 0.0
C912 C 0.78863 0.19096 0.57024 0.0
C913 C 0.82959 0.12451 0.54431 0.0
C914 C 0.81709 0.12789 0.56822 0.0
C915 C 0.8048 0.15024 0.57673 0.0
C916 C 0.81439 0.107 0.58304 0.0
C917 C 0.84259 0.10044 0.5339 0.0
C918 C 0.79101 0.09185 0.58203 0.0
C919 C 0.78777 0.07263 0.59644 0.0
C920 C 0.80787 0.06817 0.61232 0.0
C921 C 0.83136 0.08329 0.61324 0.0
C922 C 0.83458 0.10262 0.59875 0.0
H923 H 0.84787 0.09813 0.51239 0.0
H924 H 0.85945 0.10413 0.54934 0.0
H925 H 0.83085 0.08041 0.53273 0.0
H926 H 0.77518 0.09494 0.57003 0.0
H927 H 0.76943 0.06137 0.59523 0.0
H928 H 0.3431 0.34374 0.98179 0.0
H929 H 0.36446 0.33733 0.02383 0.0
H930 H 0.32315 0.25253 0.99744 0.0
H931 H 0.30161 0.25882 0.95549 0.0
H932 H 0.3486 0.31584 0.07058 0.0
H933 H 0.39708 0.24731 0.99272 0.0
H934 H 0.38029 0.27123 0.98344 0.0
H935 H 0.36422 0.23905 0.98568 0.0
C936 C 0.33797 0.32408 0.98549 0.0
C937 C 0.32092 0.30166 0.96521 0.0
C938 C 0.35026 0.3204 0.00942 0.0
C939 C 0.34564 0.2943 0.01335 0.0
C940 C 0.32716 0.27269 0.9945 0.0
H941 H 0.43959 0.2312 0.11864 0.0
H942 H 0.40567 0.23434 0.08561 0.0
C943 C 0.31489 0.27633 0.97061 0.0
C944 C 0.36201 0.28871 0.03505 0.0
H945 H 0.40844 0.25448 0.04159 0.0
C946 C 0.36159 0.3023 0.06433 0.0
C947 C 0.37883 0.27093 0.02671 0.0
C948 C 0.38038 0.25637 0.99546 0.0
C949 C 0.37776 0.29869 0.0856 0.0
C950 C 0.39515 0.28162 0.07725 0.0
C951 C 0.39508 0.26749 0.04794 0.0
C952 C 0.4147 0.27965 0.09834 0.0
C953 C 0.37601 0.31313 0.11679 0.0
C954 C 0.4312 0.304 0.1161 0.0
C955 C 0.45048 0.30229 0.13492 0.0
C956 C 0.45389 0.27611 0.13617 0.0
C957 C 0.43746 0.25166 0.1182 0.0
C958 C 0.41805 0.25343 0.09939 0.0
H959 H 0.35735 0.3172 0.11946 0.0
H960 H 0.38072 0.30043 0.1301 0.0
H961 H 0.38895 0.3337 0.12504 0.0
H962 H 0.42945 0.32437 0.11504 0.0
H963 H 0.46287 0.32155 0.14828 0.0
H964 H 0.34724 0.75417 0.33426 0.0
H965 H 0.36152 0.79942 0.37347 0.0
H966 H 0.28833 0.81533 0.36863 0.0
H967 H 0.27409 0.77062 0.32923 0.0
H968 H 0.32638 0.86271 0.37479 0.0
H969 H 0.34408 0.81081 0.45537 0.0
H970 H 0.35859 0.80146 0.42381 0.0
H971 H 0.32599 0.79183 0.42043 0.0
C972 C 0.33432 0.76756 0.34129 0.0
C973 C 0.3095 0.75876 0.32892 0.0
C974 C 0.34245 0.79325 0.3638 0.0
C975 C 0.32589 0.81047 0.37416 0.0
C976 C 0.30137 0.80225 0.36101 0.0
H977 H 0.29344 0.94306 0.50303 0.0
H978 H 0.29884 0.90696 0.45961 0.0
C979 C 0.29323 0.77664 0.33865 0.0
C980 C 0.33346 0.83648 0.39956 0.0
H981 H 0.34666 0.85949 0.47284 0.0
C982 C 0.33126 0.86213 0.3962 0.0
C983 C 0.33997 0.83564 0.42743 0.0
C984 C 0.34222 0.80851 0.43223 0.0
C985 C 0.33423 0.88675 0.4201 0.0
C986 C 0.3391 0.88553 0.44805 0.0
C987 C 0.34289 0.86031 0.45136 0.0
C988 C 0.33694 0.90893 0.4739 0.0
C989 C 0.33135 0.9137 0.41529 0.0
C990 C 0.35651 0.92173 0.49663 0.0
C991 C 0.35347 0.94251 0.52173 0.0
C992 C 0.33068 0.9504 0.52455 0.0
C993 C 0.31123 0.93753 0.50162 0.0
C994 C 0.31433 0.91702 0.47662 0.0
H995 H 0.33581 0.91352 0.39393 0.0
H996 H 0.31207 0.91607 0.41586 0.0
H997 H 0.34324 0.9322 0.43224 0.0
H998 H 0.37402 0.91549 0.49502 0.0
H999 H 0.36876 0.95196 0.53907 0.0
H1000 H 0.79358 0.81051 0.91916 0.0
H1001 H 0.75527 0.81319 0.93887 0.0
H1002 H 0.74944 0.72851 0.93886 0.0
H1003 H 0.78715 0.72514 0.91824 0.0
H1004 H 0.70525 0.76766 0.91336 0.0
H1005 H 0.74806 0.78662 0.02547 0.0
H1006 H 0.76504 0.79608 0.99972 0.0
H1007 H 0.75701 0.75997 0.99687 0.0
C1008 C 0.784 0.79228 0.92294 0.0
C1009 C 0.79359 0.76764 0.91722 0.0
C1010 C 0.76219 0.79395 0.93435 0.0
C1011 C 0.74974 0.77112 0.94047 0.0
C1012 C 0.75899 0.74642 0.93449 0.0
H1013 H 0.61137 0.71655 0.98229 0.0
H1014 H 0.64784 0.72443 0.96055 0.0
C1015 C 0.78064 0.74464 0.92289 0.0
C1016 C 0.72714 0.773 0.95343 0.0
H1017 H 0.70484 0.77748 0.01593 0.0
C1018 C 0.70512 0.77009 0.93583 0.0
C1019 C 0.72719 0.77639 0.98277 0.0
C1020 C 0.75056 0.78012 0.00251 0.0
C1021 C 0.68289 0.76948 0.94669 0.0
C1022 C 0.6828 0.77173 0.97579 0.0
C1023 C 0.70498 0.77574 0.99362 0.0
C1024 C 0.65977 0.76799 0.98766 0.0
C1025 C 0.65963 0.76608 0.92692 0.0
C1026 C 0.65444 0.78988 0.01023 0.0
C1027 C 0.63348 0.78549 0.0227 0.0
C1028 C 0.61776 0.75897 0.01309 0.0
C1029 C 0.62308 0.73723 0.99024 0.0
C1030 C 0.64385 0.74172 0.97765 0.0
H1031 H 0.66336 0.77174 0.90775 0.0
H1032 H 0.64988 0.74383 0.91937 0.0
H1033 H 0.64734 0.77928 0.93837 0.0
H1034 H 0.66664 0.81026 0.01838 0.0
H1035 H 0.62995 0.80261 0.04035 0.0
loop_
_geom_bond_atom_site_label_1
_geom_bond_atom_site_label_2
_geom_bond_distance
_geom_bond_site_symmetry_2
_ccdc_geom_bond_type
H0 C3 0.929 . S
H1 C6 0.929 . S
H2 C8 0.930 . S
C3 H0 0.929 . S
C3 C4 1.398 . S
C3 C5 1.396 . S
C4 C3 1.398 . S
C4 C8 1.407 . S
C5 C3 1.396 . S
C5 C6 1.394 . S
C6 H1 0.929 . S
C6 C5 1.394 . S
C6 C7 1.382 . S
C7 C6 1.382 . S
C7 C8 1.392 . S
C7 N9 1.420 . S
C8 H2 0.930 . S
C8 C4 1.407 . S
C8 C7 1.392 . S
N9 C7 1.420 . S
N9 C10 1.244 . S
C10 N9 1.244 . S
H11 C14 0.929 . S
H12 C17 0.929 . S
H13 C19 0.930 . S
C14 H11 0.929 . S
C14 C15 1.398 . S
C14 C16 1.396 . S
C15 C14 1.398 . S
C15 C19 1.407 . S
C16 C14 1.396 . S
C16 C17 1.394 . S
C17 H12 0.929 . S
C17 C16 1.394 . S
C17 C18 1.382 . S
C18 C17 1.382 . S
C18 C19 1.392 . S
C18 N20 1.420 . S
C19 H13 0.930 . S
C19 C15 1.407 . S
C19 C18 1.392 . S
N20 C18 1.420 . S
N20 C21 1.244 . S
C21 N20 1.244 . S
H22 C25 0.929 . S
H23 C28 0.929 . S
H24 C30 0.930 . S
C25 H22 0.929 . S
C25 C26 1.398 . S
C25 C27 1.396 . S
C26 C25 1.398 . S
C26 C30 1.407 . S
C27 C25 1.396 . S
C27 C28 1.394 . S
C28 H23 0.929 . S
C28 C27 1.394 . S
C28 C29 1.382 . S
C29 C28 1.382 . S
C29 C30 1.392 . S
C29 N31 1.420 . S
C30 H24 0.930 . S
C30 C26 1.407 . S
C30 C29 1.392 . S
N31 C29 1.420 . S
N31 C32 1.244 . S
C32 N31 1.244 . S
H33 C36 0.929 . S
H34 C39 0.929 . S
H35 C41 0.930 1_554 S
C36 H33 0.929 . S
C36 C37 1.398 . S
C36 C38 1.396 . S
C37 C36 1.398 . S
C37 C41 1.407 . S
C38 C36 1.396 . S
C38 C39 1.394 . S
C39 H34 0.929 . S
C39 C38 1.394 . S
C39 C40 1.382 . S
C40 C39 1.382 . S
C40 C41 1.392 . S
C40 N42 1.420 1_556 S
C41 H35 0.930 1_556 S
C41 C37 1.407 . S
C41 C40 1.392 . S
N42 C40 1.420 1_554 S
N42 C43 1.244 1_554 S
C43 N42 1.244 1_556 S
H44 C47 0.929 . S
H45 C50 0.929 . S
H46 C52 0.930 . S
C47 H44 0.929 . S
C47 C48 1.398 . S
C47 C49 1.396 . S
C48 C47 1.398 . S
C48 C52 1.407 . S
C49 C47 1.396 . S
C49 C50 1.394 . S
C50 H45 0.929 . S
C50 C49 1.394 . S
C50 C51 1.382 . S
C51 C50 1.382 . S
C51 C52 1.392 . S
C51 N53 1.420 . S
C52 H46 0.930 . S
C52 C48 1.407 . S
C52 C51 1.392 . S
N53 C51 1.420 . S
N53 C54 1.244 . S
C54 N53 1.244 . S
H55 C58 0.929 . S
H56 C61 0.929 . S
H57 C63 0.930 . S
C58 H55 0.929 . S
C58 C59 1.398 . S
C58 C60 1.396 . S
C59 C58 1.398 . S
C59 C63 1.407 . S
C60 C58 1.396 . S
C60 C61 1.394 . S
C61 H56 0.929 . S
C61 C60 1.394 . S
C61 C62 1.382 . S
C62 C61 1.382 . S
C62 C63 1.392 . S
C62 N64 1.420 . S
C63 H57 0.930 . S
C63 C59 1.407 . S
C63 C62 1.392 . S
N64 C62 1.420 . S
N64 C65 1.244 . S
C65 N64 1.244 . S
H66 C69 0.929 . S
H67 C72 0.929 . S
H68 C74 0.930 . S
C69 H66 0.929 . S
C69 C70 1.398 . S
C69 C71 1.396 . S
C70 C69 1.398 . S
C70 C74 1.407 . S
C71 C69 1.396 . S
C71 C72 1.394 . S
C72 H67 0.929 . S
C72 C71 1.394 . S
C72 C73 1.382 . S
C73 C72 1.382 . S
C73 C74 1.392 . S
C73 N75 1.420 . S
C74 H68 0.930 . S
C74 C70 1.407 . S
C74 C73 1.392 . S
N75 C73 1.420 . S
N75 C76 1.244 . S
C76 N75 1.244 . S
H77 C80 0.929 . S
H78 C83 0.929 . S
H79 C85 0.930 . S
C80 H77 0.929 . S
C80 C81 1.398 . S
C80 C82 1.396 . S
C81 C80 1.398 . S
C81 C85 1.407 . S
C82 C80 1.396 . S
C82 C83 1.394 . S
C83 H78 0.929 . S
C83 C82 1.394 . S
C83 C84 1.382 . S
C84 C83 1.382 . S
C84 C85 1.392 . S
C84 N86 1.420 . S
C85 H79 0.930 . S
C85 C81 1.407 . S
C85 C84 1.392 . S
N86 C84 1.420 . S
N86 C87 1.244 . S
C87 N86 1.244 . S
C88 O90 1.247 1_655 S
C88 O92 1.267 . S
C89 O96 1.247 . S
C89 O97 1.258 . S
O90 C88 1.247 1_455 S
O90 Zn91 2.028 . S
Zn91 O90 2.028 . S
Zn91 O95 2.035 . S
Zn91 O97 2.035 . S
Zn91 O98 2.028 . S
O92 C88 1.267 . S
O92 Zn93 2.016 1_655 S
Zn93 O92 2.016 1_455 S
Zn93 O94 2.028 . S
Zn93 O96 2.028 . S
Zn93 O99 2.062 . S
O94 Zn93 2.028 . S
O94 C100 1.247 . S
O95 Zn91 2.035 . S
O95 C100 1.258 . S
O96 C89 1.247 . S
O96 Zn93 2.028 . S
O97 C89 1.258 . S
O97 Zn91 2.035 . S
O98 Zn91 2.028 . S
O98 C101 1.247 1_455 S
O99 Zn93 2.062 . S
O99 C101 1.247 1_455 S
C100 O94 1.247 . S
C100 O95 1.258 . S
C101 O98 1.247 1_655 S
C101 O99 1.247 1_655 S
C102 O104 1.247 . S
C102 O106 1.258 . S
C103 O110 1.247 . S
C103 O111 1.258 . S
O104 C102 1.247 . S
O104 Zn105 2.028 . S
Zn105 O104 2.028 . S
Zn105 O109 2.035 . S
Zn105 O111 2.035 . S
Zn105 O112 2.028 . S
O106 C102 1.258 . S
O106 Zn107 2.035 . S
Zn107 O106 2.035 . S
Zn107 O108 2.028 . S
Zn107 O110 2.028 . S
Zn107 O113 2.035 . S
O108 Zn107 2.028 . S
O108 C114 1.247 . S
O109 Zn105 2.035 . S
O109 C114 1.258 . S
O110 C103 1.247 . S
O110 Zn107 2.028 . S
O111 C103 1.258 . S
O111 Zn105 2.035 . S
O112 Zn105 2.028 . S
O112 C115 1.247 . S
O113 Zn107 2.035 . S
O113 C115 1.258 . S
C114 O108 1.247 . S
C114 O109 1.258 . S
C115 O112 1.247 . S
C115 O113 1.258 . S
C116 O118 1.247 . S
C116 O120 1.258 1_565 S
C117 O124 1.247 . S
C117 O125 1.258 . S
O118 C116 1.247 . S
O118 Zn119 2.028 1_565 S
Zn119 O118 2.028 1_545 S
Zn119 O123 2.035 . S
Zn119 O125 2.035 . S
Zn119 O126 2.028 1_545 S
O120 C116 1.258 1_545 S
O120 Zn121 2.035 . S
Zn121 O120 2.035 . S
Zn121 O122 2.028 . S
Zn121 O124 2.028 . S
Zn121 O127 2.035 . S
O122 Zn121 2.028 . S
O122 C128 1.247 . S
O123 Zn119 2.035 . S
O123 C128 1.258 . S
O124 C117 1.247 . S
O124 Zn121 2.028 . S
O125 C117 1.258 . S
O125 Zn119 2.035 . S
O126 Zn119 2.028 1_565 S
O126 C129 1.247 . S
O127 Zn121 2.035 . S
O127 C129 1.258 1_545 S
C128 O122 1.247 . S
C128 O123 1.258 . S
C129 O126 1.247 . S
C129 O127 1.258 1_565 S
C130 O132 1.247 . S
C130 O134 1.258 . S
C131 O138 1.247 . S
C131 O139 1.258 . S
O132 C130 1.247 . S
O132 Zn133 2.028 1_554 S
Zn133 O132 2.028 1_556 S
Zn133 O137 2.035 1_556 S
Zn133 O139 2.035 . S
Zn133 O140 2.028 . S
O134 C130 1.258 . S
O134 Zn135 2.035 . S
Zn135 O134 2.035 . S
Zn135 O136 2.028 . S
Zn135 O138 2.028 1_554 S
Zn135 O141 2.035 1_554 S
O136 Zn135 2.028 . S
O136 C142 1.247 . S
O137 Zn133 2.035 1_554 S
O137 C142 1.258 . S
O138 C131 1.247 . S
O138 Zn135 2.028 1_556 S
O139 C131 1.258 . S
O139 Zn133 2.035 . S
O140 Zn133 2.028 . S
O140 C143 1.247 . S
O141 Zn135 2.035 1_556 S
O141 C143 1.258 . S
C142 O136 1.247 . S
C142 O137 1.258 . S
C143 O140 1.247 . S
C143 O141 1.258 . S
C144 O146 1.247 . S
C144 O148 1.258 . S
C145 O152 1.247 . S
C145 O153 1.258 . S
O146 C144 1.247 . S
O146 Zn147 2.028 1_565 S
Zn147 O146 2.028 1_545 S
Zn147 O151 2.035 . S
Zn147 O153 2.035 . S
Zn147 O154 2.028 1_545 S
O148 C144 1.258 . S
O148 Zn149 2.035 1_565 S
Zn149 O148 2.035 1_545 S
Zn149 O150 2.028 . S
Zn149 O152 2.028 . S
Zn149 O155 2.035 1_545 S
O150 Zn149 2.028 . S
O150 C156 1.247 . S
O151 Zn147 2.035 . S
O151 C156 1.258 . S
O152 C145 1.247 . S
O152 Zn149 2.028 . S
O153 C145 1.258 . S
O153 Zn147 2.035 . S
O154 Zn147 2.028 1_565 S
O154 C157 1.247 . S
O155 Zn149 2.035 1_565 S
O155 C157 1.258 . S
C156 O150 1.247 . S
C156 O151 1.258 . S
C157 O154 1.247 . S
C157 O155 1.258 . S
C158 O160 1.247 . S
C158 O162 1.258 . S
C159 O166 1.247 . S
C159 O167 1.258 . S
O160 C158 1.247 . S
O160 Zn161 2.028 . S
Zn161 O160 2.028 . S
Zn161 O165 2.035 . S
Zn161 O167 2.035 . S
Zn161 O168 2.028 . S
O162 C158 1.258 . S
O162 Zn163 2.035 . S
Zn163 O162 2.035 . S
Zn163 O164 2.028 . S
Zn163 O166 2.028 . S
Zn163 O169 2.035 . S
O164 Zn163 2.028 . S
O164 C170 1.247 . S
O165 Zn161 2.035 . S
O165 C170 1.258 . S
O166 C159 1.247 . S
O166 Zn163 2.028 . S
O167 C159 1.258 . S
O167 Zn161 2.035 . S
O168 Zn161 2.028 . S
O168 C171 1.247 . S
O169 Zn163 2.035 . S
O169 C171 1.258 . S
C170 O164 1.247 . S
C170 O165 1.258 . S
C171 O168 1.247 . S
C171 O169 1.258 . S
H172 C180 0.929 . S
H173 C182 0.930 . S
H174 C184 0.930 . S
H175 C187 0.929 . S
H176 C190 0.930 . S
H177 C192 0.960 . S
H178 C192 0.960 . S
H179 C192 0.960 . S
C180 H172 0.929 . S
C180 C181 1.377 . S
C180 C182 1.384 . S
C181 C180 1.377 . S
C181 C187 1.390 . S
C182 H173 0.930 . S
C182 C180 1.384 . S
C182 C183 1.372 . S
C183 C182 1.372 . S
C183 C184 1.400 . S
C183 C188 1.490 . S
C184 H174 0.930 . S
C184 C183 1.400 . S
C184 C187 1.386 . S
H185 C201 0.930 . S
H186 C202 0.931 . S
C187 H175 0.929 . S
C187 C181 1.390 . S
C187 C184 1.386 . S
C188 C183 1.490 . S
C188 C190 1.395 . S
C188 C191 1.403 . S
H189 C195 0.930 . S
C190 H176 0.930 . S
C190 C188 1.395 . S
C190 C193 1.403 . S
C191 C188 1.403 . S
C191 C192 1.524 . S
C191 C195 1.400 . S
C192 H177 0.960 . S
C192 H178 0.960 . S
C192 H179 0.960 . S
C192 C191 1.524 . S
C193 C190 1.403 . S
C193 C194 1.392 . S
C193 C197 1.495 . S
C194 C193 1.392 . S
C194 C195 1.385 . S
C194 C196 1.478 . S
C195 H189 0.930 . S
C195 C191 1.400 . S
C195 C194 1.385 . S
C196 C194 1.478 . S
C196 C198 1.381 . S
C196 C202 1.383 . S
C197 C193 1.495 . S
C197 H203 0.959 . S
C197 H204 0.961 . S
C197 H205 0.960 . S
C198 C196 1.381 . S
C198 C199 1.394 . S
C198 H206 0.930 . S
C199 C198 1.394 . S
C199 C200 1.383 . S
C199 H207 0.929 . S
C200 C199 1.383 . S
C200 C201 1.377 . S
C201 H185 0.930 . S
C201 C200 1.377 . S
C201 C202 1.379 . S
C202 H186 0.931 . S
C202 C196 1.383 . S
C202 C201 1.379 . S
H203 C197 0.959 . S
H204 C197 0.961 . S
H205 C197 0.960 . S
H206 C198 0.930 . S
H207 C199 0.929 . S
H208 C216 0.929 . S
H209 C218 0.930 . S
H210 C220 0.930 . S
H211 C223 0.929 . S
H212 C226 0.930 . S
H213 C228 0.960 . S
H214 C228 0.960 . S
H215 C228 0.960 . S
C216 H208 0.929 . S
C216 C217 1.377 . S
C216 C218 1.384 . S
C217 C216 1.377 . S
C217 C223 1.390 . S
C218 H209 0.930 . S
C218 C216 1.384 . S
C218 C219 1.372 . S
C219 C218 1.372 . S
C219 C220 1.400 . S
C219 C224 1.490 . S
C220 H210 0.930 . S
C220 C219 1.400 . S
C220 C223 1.386 . S
H221 C237 0.930 . S
H222 C238 0.931 . S
C223 H211 0.929 . S
C223 C217 1.390 . S
C223 C220 1.386 . S
C224 C219 1.490 . S
C224 C226 1.395 . S
C224 C227 1.403 . S
H225 C231 0.930 . S
C226 H212 0.930 . S
C226 C224 1.395 . S
C226 C229 1.403 . S
C227 C224 1.403 . S
C227 C228 1.524 . S
C227 C231 1.400 . S
C228 H213 0.960 . S
C228 H214 0.960 . S
C228 H215 0.960 . S
C228 C227 1.524 . S
C229 C226 1.403 . S
C229 C230 1.392 . S
C229 C233 1.495 . S
C230 C229 1.392 . S
C230 C231 1.385 . S
C230 C232 1.478 . S
C231 H225 0.930 . S
C231 C227 1.400 . S
C231 C230 1.385 . S
C232 C230 1.478 . S
C232 C234 1.381 . S
C232 C238 1.383 . S
C233 C229 1.495 . S
C233 H239 0.959 . S
C233 H240 0.961 . S
C233 H241 0.960 . S
C234 C232 1.381 . S
C234 C235 1.394 . S
C234 H242 0.930 . S
C235 C234 1.394 . S
C235 C236 1.383 . S
C235 H243 0.929 . S
C236 C235 1.383 . S
C236 C237 1.377 . S
C237 H221 0.930 . S
C237 C236 1.377 . S
C237 C238 1.379 . S
C238 H222 0.931 . S
C238 C232 1.383 . S
C238 C237 1.379 . S
H239 C233 0.959 . S
H240 C233 0.961 . S
H241 C233 0.960 . S
H242 C234 0.930 . S
H243 C235 0.929 . S
H244 C252 0.929 . S
H245 C254 0.930 . S
H246 C256 0.930 . S
H247 C259 0.929 . S
H248 C262 0.930 . S
H249 C264 0.960 . S
H250 C264 0.960 . S
H251 C264 0.960 . S
C252 H244 0.929 . S
C252 C253 1.377 . S
C252 C254 1.384 . S
C253 C252 1.377 . S
C253 C259 1.390 . S
C254 H245 0.930 . S
C254 C252 1.384 . S
C254 C255 1.372 . S
C255 C254 1.372 . S
C255 C256 1.400 . S
C255 C260 1.490 . S
C256 H246 0.930 . S
C256 C255 1.400 . S
C256 C259 1.386 . S
H257 C273 0.930 . S
H258 C274 0.931 . S
C259 H247 0.929 . S
C259 C253 1.390 . S
C259 C256 1.386 . S
C260 C255 1.490 . S
C260 C262 1.395 . S
C260 C263 1.403 . S
H261 C267 0.930 . S
C262 H248 0.930 . S
C262 C260 1.395 . S
C262 C265 1.403 . S
C263 C260 1.403 . S
C263 C264 1.524 . S
C263 C267 1.400 . S
C264 H249 0.960 . S
C264 H250 0.960 . S
C264 H251 0.960 . S
C264 C263 1.524 . S
C265 C262 1.403 . S
C265 C266 1.392 . S
C265 C269 1.495 . S
C266 C265 1.392 . S
C266 C267 1.385 . S
C266 C268 1.478 . S
C267 H261 0.930 . S
C267 C263 1.400 . S
C267 C266 1.385 . S
C268 C266 1.478 . S
C268 C270 1.381 . S
C268 C274 1.383 . S
C269 C265 1.495 . S
C269 H275 0.959 . S
C269 H276 0.961 . S
C269 H277 0.960 . S
C270 C268 1.381 . S
C270 C271 1.394 . S
C270 H278 0.930 . S
C271 C270 1.394 . S
C271 C272 1.383 . S
C271 H279 0.929 . S
C272 C271 1.383 . S
C272 C273 1.377 . S
C273 H257 0.930 . S
C273 C272 1.377 . S
C273 C274 1.379 . S
C274 H258 0.931 . S
C274 C268 1.383 . S
C274 C273 1.379 . S
H275 C269 0.959 . S
H276 C269 0.961 . S
H277 C269 0.960 . S
H278 C270 0.930 . S
H279 C271 0.929 . S
H280 C288 0.929 . S
H281 C290 0.930 . S
H282 C292 0.930 . S
H283 C295 0.929 . S
H284 C298 0.930 . S
H285 C300 0.960 . S
H286 C300 0.960 . S
H287 C300 0.960 . S
C288 H280 0.929 . S
C288 C289 1.377 . S
C288 C290 1.384 . S
C289 C288 1.377 . S
C289 C295 1.390 . S
C290 H281 0.930 . S
C290 C288 1.384 . S
C290 C291 1.372 . S
C291 C290 1.372 . S
C291 C292 1.400 . S
C291 C296 1.490 . S
C292 H282 0.930 . S
C292 C291 1.400 . S
C292 C295 1.386 . S
H293 C309 0.930 . S
H294 C310 0.931 . S
C295 H283 0.929 . S
C295 C289 1.390 . S
C295 C292 1.386 . S
C296 C291 1.490 . S
C296 C298 1.395 . S
C296 C299 1.403 . S
H297 C303 0.930 1_554 S
C298 H284 0.930 . S
C298 C296 1.395 . S
C298 C301 1.403 . S
C299 C296 1.403 . S
C299 C300 1.524 1_556 S
C299 C303 1.400 . S
C300 H285 0.960 . S
C300 H286 0.960 . S
C300 H287 0.960 . S
C300 C299 1.524 1_554 S
C301 C298 1.403 . S
C301 C302 1.392 . S
C301 C305 1.495 . S
C302 C301 1.392 . S
C302 C303 1.385 . S
C302 C304 1.478 . S
C303 H297 0.930 1_556 S
C303 C299 1.400 . S
C303 C302 1.385 . S
C304 C302 1.478 . S
C304 C306 1.381 . S
C304 C310 1.383 . S
C305 C301 1.495 . S
C305 H311 0.959 . S
C305 H312 0.961 . S
C305 H313 0.960 . S
C306 C304 1.381 . S
C306 C307 1.394 . S
C306 H314 0.930 . S
C307 C306 1.394 . S
C307 C308 1.383 . S
C307 H315 0.958 . S
C308 C307 1.383 . S
C308 C309 1.377 . S
C309 H293 0.930 . S
C309 C308 1.377 . S
C309 C310 1.379 . S
C310 H294 0.931 . S
C310 C304 1.383 . S
C310 C309 1.379 . S
H311 C305 0.959 . S
H312 C305 0.961 . S
H313 C305 0.960 . S
H314 C306 0.930 . S
H315 C307 0.958 . S
H316 C324 0.929 . S
H317 C326 0.930 . S
H318 C328 0.930 . S
H319 C331 0.929 . S
H320 C334 0.930 . S
H321 C336 0.960 . S
H322 C336 0.960 . S
H323 C336 0.960 . S
C324 H316 0.929 . S
C324 C325 1.377 . S
C324 C326 1.384 . S
C325 C324 1.377 . S
C325 C331 1.390 . S
C326 H317 0.930 . S
C326 C324 1.384 . S
C326 C327 1.372 . S
C327 C326 1.372 . S
C327 C328 1.400 . S
C327 C332 1.490 . S
C328 H318 0.930 . S
C328 C327 1.400 . S
C328 C331 1.386 . S
H329 C345 0.930 . S
H330 C346 0.931 . S
C331 H319 0.929 . S
C331 C325 1.390 . S
C331 C328 1.386 . S
C332 C327 1.490 . S
C332 C334 1.395 . S
C332 C335 1.403 . S
H333 C339 0.930 . S
C334 H320 0.930 . S
C334 C332 1.395 . S
C334 C337 1.403 . S
C335 C332 1.403 . S
C335 C336 1.524 . S
C335 C339 1.400 . S
C336 H321 0.960 . S
C336 H322 0.960 . S
C336 H323 0.960 . S
C336 C335 1.524 . S
C337 C334 1.403 . S
C337 C338 1.392 . S
C337 C341 1.495 . S
C338 C337 1.392 . S
C338 C339 1.385 . S
C338 C340 1.478 . S
C339 H333 0.930 . S
C339 C335 1.400 . S
C339 C338 1.385 . S
C340 C338 1.478 . S
C340 C342 1.381 . S
C340 C346 1.383 . S
C341 C337 1.495 . S
C341 H347 0.959 . S
C341 H348 0.961 . S
C341 H349 0.960 . S
C342 C340 1.381 . S
C342 C343 1.394 . S
C342 H350 0.930 . S
C343 C342 1.394 . S
C343 C344 1.383 . S
C343 H351 0.929 . S
C344 C343 1.383 . S
C344 C345 1.377 . S
C345 H329 0.930 . S
C345 C344 1.377 . S
C345 C346 1.379 . S
C346 H330 0.931 . S
C346 C340 1.383 . S
C346 C345 1.379 . S
H347 C341 0.959 . S
H348 C341 0.961 . S
H349 C341 0.960 . S
H350 C342 0.930 . S
H351 C343 0.929 . S
H352 C360 0.929 . S
H353 C362 0.930 . S
H354 C364 0.930 . S
H355 C367 0.929 . S
H356 C370 0.930 . S
H357 C372 0.960 . S
H358 C372 0.960 . S
H359 C372 0.960 . S
C360 H352 0.929 . S
C360 C361 1.377 . S
C360 C362 1.384 . S
C361 C360 1.377 . S
C361 C367 1.390 . S
C362 H353 0.930 . S
C362 C360 1.384 . S
C362 C363 1.372 . S
C363 C362 1.372 . S
C363 C364 1.400 . S
C363 C368 1.490 . S
C364 H354 0.930 . S
C364 C363 1.400 . S
C364 C367 1.386 . S
H365 C381 0.930 . S
H366 C382 0.931 . S
C367 H355 0.929 . S
C367 C361 1.390 . S
C367 C364 1.386 . S
C368 C363 1.490 . S
C368 C370 1.395 . S
C368 C371 1.403 . S
H369 C375 0.930 . S
C370 H356 0.930 . S
C370 C368 1.395 . S
C370 C373 1.403 . S
C371 C368 1.403 . S
C371 C372 1.524 . S
C371 C375 1.400 . S
C372 H357 0.960 . S
C372 H358 0.960 . S
C372 H359 0.960 . S
C372 C371 1.524 . S
C373 C370 1.403 . S
C373 C374 1.392 . S
C373 C377 1.495 . S
C374 C373 1.392 . S
C374 C375 1.385 . S
C374 C376 1.478 . S
C375 H369 0.930 . S
C375 C371 1.400 . S
C375 C374 1.385 . S
C376 C374 1.478 . S
C376 C378 1.381 . S
C376 C382 1.383 . S
C377 C373 1.495 . S
C377 H383 0.959 . S
C377 H384 0.961 . S
C377 H385 0.960 . S
C378 C376 1.381 . S
C378 C379 1.394 . S
C378 H386 0.930 . S
C379 C378 1.394 . S
C379 C380 1.383 . S
C379 H387 0.929 . S
C380 C379 1.383 . S
C380 C381 1.377 . S
C381 H365 0.930 . S
C381 C380 1.377 . S
C381 C382 1.379 . S
C382 H366 0.931 . S
C382 C376 1.383 . S
C382 C381 1.379 . S
H383 C377 0.959 . S
H384 C377 0.961 . S
H385 C377 0.960 . S
H386 C378 0.930 . S
H387 C379 0.929 . S
H388 C396 0.929 . S
H389 C398 0.930 . S
H390 C400 0.930 . S
H391 C403 0.929 . S
H392 C406 0.930 . S
H393 C408 0.960 . S
H394 C408 0.960 . S
H395 C408 0.960 . S
C396 H388 0.929 . S
C396 C397 1.377 . S
C396 C398 1.384 . S
C397 C396 1.377 . S
C397 C403 1.390 . S
C398 H389 0.930 . S
C398 C396 1.384 . S
C398 C399 1.372 . S
C399 C398 1.372 . S
C399 C400 1.400 . S
C399 C404 1.490 . S
C400 H390 0.930 . S
C400 C399 1.400 . S
C400 C403 1.386 . S
H401 C417 0.930 . S
H402 C418 0.931 . S
C403 H391 0.929 . S
C403 C397 1.390 . S
C403 C400 1.386 . S
C404 C399 1.490 . S
C404 C406 1.395 . S
C404 C407 1.403 . S
H405 C411 0.930 . S
C406 H392 0.930 . S
C406 C404 1.395 . S
C406 C409 1.403 . S
C407 C404 1.403 . S
C407 C408 1.524 . S
C407 C411 1.400 . S
C408 H393 0.960 . S
C408 H394 0.960 . S
C408 H395 0.960 . S
C408 C407 1.524 . S
C409 C406 1.403 . S
C409 C410 1.392 . S
C409 C413 1.495 . S
C410 C409 1.392 . S
C410 C411 1.385 . S
C410 C412 1.478 . S
C411 H405 0.930 . S
C411 C407 1.400 . S
C411 C410 1.385 . S
C412 C410 1.478 . S
C412 C414 1.381 . S
C412 C418 1.383 . S
C413 C409 1.495 . S
C413 H419 0.959 . S
C413 H420 0.961 . S
C413 H421 0.960 . S
C414 C412 1.381 . S
C414 C415 1.394 . S
C414 H422 0.930 . S
C415 C414 1.394 . S
C415 C416 1.383 . S
C415 H423 0.929 . S
C416 C415 1.383 . S
C416 C417 1.377 . S
C417 H401 0.930 . S
C417 C416 1.377 . S
C417 C418 1.379 . S
C418 H402 0.931 . S
C418 C412 1.383 . S
C418 C417 1.379 . S
H419 C413 0.959 . S
H420 C413 0.961 . S
H421 C413 0.960 . S
H422 C414 0.930 . S
H423 C415 0.929 . S
H424 C432 0.929 . S
H425 C434 0.930 . S
H426 C436 0.930 . S
H427 C439 0.929 1_556 S
H428 C442 0.930 . S
H429 C444 0.960 . S
H430 C444 0.960 . S
H431 C444 0.960 . S
C432 H424 0.929 . S
C432 C433 1.377 . S
C432 C434 1.384 . S
C433 C432 1.377 . S
C433 C439 1.390 . S
C434 H425 0.930 . S
C434 C432 1.384 . S
C434 C435 1.372 . S
C435 C434 1.372 . S
C435 C436 1.400 . S
C435 C440 1.490 . S
C436 H426 0.930 . S
C436 C435 1.400 . S
C436 C439 1.386 . S
H437 C453 0.930 . S
H438 C454 0.931 . S
C439 H427 0.929 1_554 S
C439 C433 1.390 . S
C439 C436 1.386 . S
C440 C435 1.490 . S
C440 C442 1.395 . S
C440 C443 1.403 . S
H441 C447 0.930 . S
C442 H428 0.930 . S
C442 C440 1.395 . S
C442 C445 1.403 . S
C443 C440 1.403 . S
C443 C444 1.524 . S
C443 C447 1.400 . S
C444 H429 0.960 . S
C444 H430 0.960 . S
C444 H431 0.960 . S
C444 C443 1.524 . S
C445 C442 1.403 . S
C445 C446 1.392 . S
C445 C449 1.495 . S
C446 C445 1.392 . S
C446 C447 1.385 . S
C446 C448 1.478 . S
C447 H441 0.930 . S
C447 C443 1.400 . S
C447 C446 1.385 . S
C448 C446 1.478 . S
C448 C450 1.381 . S
C448 C454 1.383 . S
C449 C445 1.495 . S
C449 H455 0.959 . S
C449 H456 0.961 . S
C449 H457 0.960 . S
C450 C448 1.381 . S
C450 C451 1.394 . S
C450 H458 0.930 . S
C451 C450 1.394 . S
C451 C452 1.383 . S
C451 H459 0.929 . S
C452 C451 1.383 . S
C452 C453 1.377 . S
C453 H437 0.930 . S
C453 C452 1.377 . S
C453 C454 1.379 . S
C454 H438 0.931 . S
C454 C448 1.383 . S
C454 C453 1.379 . S
H455 C449 0.959 . S
H456 C449 0.961 . S
H457 C449 0.960 . S
H458 C450 0.930 . S
H459 C451 0.929 . S
H460 C468 0.929 . S
H461 C470 0.930 . S
H462 C472 0.930 . S
H463 C475 0.929 . S
H464 C478 0.930 . S
H465 C480 0.960 . S
H466 C480 0.960 . S
H467 C480 0.960 . S
C468 H460 0.929 . S
C468 C469 1.377 . S
C468 C470 1.384 . S
C469 C468 1.377 . S
C469 C475 1.390 . S
C470 H461 0.930 . S
C470 C468 1.384 . S
C470 C471 1.372 . S
C471 C470 1.372 . S
C471 C472 1.400 . S
C471 C476 1.490 . S
C472 H462 0.930 . S
C472 C471 1.400 . S
C472 C475 1.386 . S
H473 C489 0.930 . S
H474 C490 0.931 . S
C475 H463 0.929 . S
C475 C469 1.390 . S
C475 C472 1.386 . S
C476 C471 1.490 . S
C476 C478 1.395 . S
C476 C479 1.403 . S
H477 C483 0.930 . S
C478 H464 0.930 . S
C478 C476 1.395 . S
C478 C481 1.403 . S
C479 C476 1.403 . S
C479 C480 1.524 . S
C479 C483 1.400 . S
C480 H465 0.960 . S
C480 H466 0.960 . S
C480 H467 0.960 . S
C480 C479 1.524 . S
C481 C478 1.403 . S
C481 C482 1.392 . S
C481 C485 1.495 . S
C482 C481 1.392 . S
C482 C483 1.385 . S
C482 C484 1.478 . S
C483 H477 0.930 . S
C483 C479 1.400 . S
C483 C482 1.385 . S
C484 C482 1.478 . S
C484 C486 1.381 . S
C484 C490 1.383 . S
C485 C481 1.495 . S
C485 H491 0.959 . S
C485 H492 0.961 . S
C485 H493 0.960 . S
C486 C484 1.381 . S
C486 C487 1.394 . S
C486 H494 0.930 . S
C487 C486 1.394 . S
C487 C488 1.383 . S
C487 H495 0.929 . S
C488 C487 1.383 . S
C488 C489 1.377 . S
C489 H473 0.930 . S
C489 C488 1.377 . S
C489 C490 1.379 . S
C490 H474 0.931 . S
C490 C484 1.383 . S
C490 C489 1.379 . S
H491 C485 0.959 . S
H492 C485 0.961 . S
H493 C485 0.960 . S
H494 C486 0.930 . S
H495 C487 0.929 . S
H496 C504 0.929 . S
H497 C506 0.930 . S
H498 C508 0.930 . S
H499 C511 0.929 . S
H500 C514 0.930 . S
H501 C516 0.960 . S
H502 C516 0.960 . S
H503 C516 0.960 . S
C504 H496 0.929 . S
C504 C505 1.377 . S
C504 C506 1.384 . S
C505 C504 1.377 . S
C505 C511 1.390 . S
C506 H497 0.930 . S
C506 C504 1.384 . S
C506 C507 1.372 . S
C507 C506 1.372 . S
C507 C508 1.400 . S
C507 C512 1.490 . S
C508 H498 0.930 . S
C508 C507 1.400 . S
C508 C511 1.386 . S
H509 C525 0.930 . S
H510 C526 0.931 . S
C511 H499 0.929 . S
C511 C505 1.390 . S
C511 C508 1.386 . S
C512 C507 1.490 . S
C512 C514 1.395 . S
C512 C515 1.403 . S
H513 C519 0.930 . S
C514 H500 0.930 . S
C514 C512 1.395 . S
C514 C517 1.403 . S
C515 C512 1.403 . S
C515 C516 1.524 . S
C515 C519 1.400 . S
C516 H501 0.960 . S
C516 H502 0.960 . S
C516 H503 0.960 . S
C516 C515 1.524 . S
C517 C514 1.403 . S
C517 C518 1.392 . S
C517 C521 1.495 . S
C518 C517 1.392 . S
C518 C519 1.385 . S
C518 C520 1.478 . S
C519 H513 0.930 . S
C519 C515 1.400 . S
C519 C518 1.385 . S
C520 C518 1.478 . S
C520 C522 1.381 . S
C520 C526 1.383 . S
C521 C517 1.495 . S
C521 H527 0.959 . S
C521 H528 0.961 . S
C521 H529 0.960 . S
C522 C520 1.381 . S
C522 C523 1.394 . S
C522 H530 0.930 . S
C523 C522 1.394 . S
C523 C524 1.383 . S
C523 H531 0.929 . S
C524 C523 1.383 . S
C524 C525 1.377 . S
C525 H509 0.930 . S
C525 C524 1.377 . S
C525 C526 1.379 . S
C526 H510 0.931 . S
C526 C520 1.383 . S
C526 C525 1.379 . S
H527 C521 0.959 . S
H528 C521 0.961 . S
H529 C521 0.960 . S
H530 C522 0.930 . S
H531 C523 0.929 . S
H532 C540 0.929 . S
H533 C542 0.930 . S
H534 C544 0.930 . S
H535 C547 0.929 . S
H536 C550 0.930 . S
H537 C552 0.960 . S
H538 C552 0.960 . S
H539 C552 0.960 . S
C540 H532 0.929 . S
C540 C541 1.377 . S
C540 C542 1.384 . S
C541 C540 1.377 . S
C541 C547 1.390 . S
C542 H533 0.930 . S
C542 C540 1.384 . S
C542 C543 1.372 . S
C543 C542 1.372 . S
C543 C544 1.400 . S
C543 C548 1.490 . S
C544 H534 0.930 . S
C544 C543 1.400 . S
C544 C547 1.386 . S
H545 C561 0.930 . S
H546 C562 0.931 . S
C547 H535 0.929 . S
C547 C541 1.390 . S
C547 C544 1.386 . S
C548 C543 1.490 . S
C548 C550 1.395 . S
C548 C551 1.403 . S
H549 C555 0.930 . S
C550 H536 0.930 . S
C550 C548 1.395 . S
C550 C553 1.403 . S
C551 C548 1.403 . S
C551 C552 1.524 . S
C551 C555 1.400 . S
C552 H537 0.960 . S
C552 H538 0.960 . S
C552 H539 0.960 . S
C552 C551 1.524 . S
C553 C550 1.403 . S
C553 C554 1.392 . S
C553 C557 1.495 . S
C554 C553 1.392 . S
C554 C555 1.385 . S
C554 C556 1.478 . S
C555 H549 0.930 . S
C555 C551 1.400 . S
C555 C554 1.385 . S
C556 C554 1.478 . S
C556 C558 1.381 . S
C556 C562 1.383 . S
C557 C553 1.495 . S
C557 H563 0.959 . S
C557 H564 0.961 . S
C557 H565 0.960 . S
C558 C556 1.381 . S
C558 C559 1.394 . S
C558 H566 0.930 . S
C559 C558 1.394 . S
C559 C560 1.383 . S
C559 H567 0.929 . S
C560 C559 1.383 . S
C560 C561 1.377 . S
C561 H545 0.930 . S
C561 C560 1.377 . S
C561 C562 1.379 . S
C562 H546 0.931 . S
C562 C556 1.383 . S
C562 C561 1.379 . S
H563 C557 0.959 . S
H564 C557 0.961 . S
H565 C557 0.960 . S
H566 C558 0.930 . S
H567 C559 0.929 . S
H568 C576 0.929 . S
H569 C578 0.930 . S
H570 C580 0.930 . S
H571 C583 0.929 . S
H572 C586 0.930 . S
H573 C588 0.960 . S
H574 C588 0.960 . S
H575 C588 0.960 . S
C576 H568 0.929 . S
C576 C577 1.377 . S
C576 C578 1.384 . S
C577 C576 1.377 . S
C577 C583 1.390 . S
C578 H569 0.930 . S
C578 C576 1.384 . S
C578 C579 1.372 . S
C579 C578 1.372 . S
C579 C580 1.400 . S
C579 C584 1.490 . S
C580 H570 0.930 . S
C580 C579 1.400 . S
C580 C583 1.386 . S
H581 C597 0.930 . S
H582 C598 0.931 . S
C583 H571 0.929 . S
C583 C577 1.390 . S
C583 C580 1.386 . S
C584 C579 1.490 . S
C584 C586 1.395 . S
C584 C587 1.403 . S
H585 C591 0.930 . S
C586 H572 0.930 . S
C586 C584 1.395 . S
C586 C589 1.403 . S
C587 C584 1.403 . S
C587 C588 1.524 . S
C587 C591 1.400 . S
C588 H573 0.960 . S
C588 H574 0.960 . S
C588 H575 0.960 . S
C588 C587 1.524 . S
C589 C586 1.403 . S
C589 C590 1.392 . S
C589 C593 1.495 . S
C590 C589 1.392 . S
C590 C591 1.385 . S
C590 C592 1.478 . S
C591 H585 0.930 . S
C591 C587 1.400 . S
C591 C590 1.385 . S
C592 C590 1.478 . S
C592 C594 1.381 . S
C592 C598 1.383 . S
C593 C589 1.495 . S
C593 H599 0.959 . S
C593 H600 0.961 . S
C593 H601 0.960 . S
C594 C592 1.381 . S
C594 C595 1.394 . S
C594 H602 0.930 . S
C595 C594 1.394 . S
C595 C596 1.383 . S
C595 H603 0.929 . S
C596 C595 1.383 . S
C596 C597 1.377 . S
C597 H581 0.930 . S
C597 C596 1.377 . S
C597 C598 1.379 . S
C598 H582 0.931 . S
C598 C592 1.383 . S
C598 C597 1.379 . S
H599 C593 0.959 . S
H600 C593 0.961 . S
H601 C593 0.960 . S
H602 C594 0.930 . S
H603 C595 0.929 . S
H604 C612 0.929 . S
H605 C614 0.930 . S
H606 C616 0.930 . S
H607 C619 0.929 . S
H608 C622 0.930 . S
H609 C624 0.960 . S
H610 C624 0.960 . S
H611 C624 0.960 . S
C612 H604 0.929 . S
C612 C613 1.377 . S
C612 C614 1.384 . S
C613 C612 1.377 . S
C613 C619 1.390 . S
C614 H605 0.930 . S
C614 C612 1.384 . S
C614 C615 1.372 . S
C615 C614 1.372 . S
C615 C616 1.400 . S
C615 C620 1.490 . S
C616 H606 0.930 . S
C616 C615 1.400 . S
C616 C619 1.386 . S
H617 C633 0.930 . S
H618 C634 0.931 . S
C619 H607 0.929 . S
C619 C613 1.390 . S
C619 C616 1.386 . S
C620 C615 1.490 . S
C620 C622 1.395 . S
C620 C623 1.403 . S
H621 C627 0.930 . S
C622 H608 0.930 . S
C622 C620 1.395 . S
C622 C625 1.403 . S
C623 C620 1.403 . S
C623 C624 1.524 . S
C623 C627 1.400 . S
C624 H609 0.960 . S
C624 H610 0.960 . S
C624 H611 0.960 . S
C624 C623 1.524 . S
C625 C622 1.403 . S
C625 C626 1.392 . S
C625 C629 1.495 . S
C626 C625 1.392 . S
C626 C627 1.385 . S
C626 C628 1.478 . S
C627 H621 0.930 . S
C627 C623 1.400 . S
C627 C626 1.385 . S
C628 C626 1.478 . S
C628 C630 1.381 . S
C628 C634 1.383 . S
C629 C625 1.495 . S
C629 H635 0.959 . S
C629 H636 0.961 . S
C629 H637 0.960 . S
C630 C628 1.381 . S
C630 C631 1.394 . S
C630 H638 0.930 . S
C631 C630 1.394 . S
C631 C632 1.383 . S
C631 H639 0.929 1_655 S
C632 C631 1.383 . S
C632 C633 1.377 . S
C633 H617 0.930 . S
C633 C632 1.377 . S
C633 C634 1.379 . S
C634 H618 0.931 . S
C634 C628 1.383 . S
C634 C633 1.379 . S
H635 C629 0.959 . S
H636 C629 0.961 . S
H637 C629 0.960 . S
H638 C630 0.930 . S
H639 C631 0.929 1_455 S
H640 C648 0.929 . S
H641 C650 0.930 . S
H642 C652 0.930 . S
H643 C655 0.929 . S
H644 C658 0.930 . S
H645 C660 0.960 . S
H646 C660 0.960 . S
H647 C660 0.960 . S
C648 H640 0.929 . S
C648 C649 1.377 . S
C648 C650 1.384 . S
C649 C648 1.377 . S
C649 C655 1.390 . S
C650 H641 0.930 . S
C650 C648 1.384 . S
C650 C651 1.372 . S
C651 C650 1.372 . S
C651 C652 1.400 . S
C651 C656 1.490 . S
C652 H642 0.930 . S
C652 C651 1.400 . S
C652 C655 1.386 . S
H653 C669 0.930 . S
H654 C670 0.931 . S
C655 H643 0.929 . S
C655 C649 1.390 . S
C655 C652 1.386 . S
C656 C651 1.490 . S
C656 C658 1.395 . S
C656 C659 1.403 . S
H657 C663 0.930 . S
C658 H644 0.930 . S
C658 C656 1.395 . S
C658 C661 1.403 . S
C659 C656 1.403 . S
C659 C660 1.524 . S
C659 C663 1.400 . S
C660 H645 0.960 . S
C660 H646 0.960 . S
C660 H647 0.960 . S
C660 C659 1.524 . S
C661 C658 1.403 . S
C661 C662 1.392 . S
C661 C665 1.495 . S
C662 C661 1.392 . S
C662 C663 1.385 . S
C662 C664 1.478 . S
C663 H657 0.930 . S
C663 C659 1.400 . S
C663 C662 1.385 . S
C664 C662 1.478 . S
C664 C666 1.381 . S
C664 C670 1.383 . S
C665 C661 1.495 . S
C665 H671 0.959 . S
C665 H672 0.961 . S
C665 H673 0.960 . S
C666 C664 1.381 . S
C666 C667 1.394 . S
C666 H674 0.930 . S
C667 C666 1.394 . S
C667 C668 1.383 . S
C667 H675 0.929 . S
C668 C667 1.383 . S
C668 C669 1.377 . S
C669 H653 0.930 . S
C669 C668 1.377 . S
C669 C670 1.379 . S
C670 H654 0.931 . S
C670 C664 1.383 . S
C670 C669 1.379 . S
H671 C665 0.959 . S
H672 C665 0.961 . S
H673 C665 0.960 . S
H674 C666 0.930 . S
H675 C667 0.929 . S
H676 C684 0.929 . S
H677 C686 0.930 . S
H678 C688 0.930 . S
H679 C691 0.929 . S
H680 C694 0.930 . S
H681 C696 0.960 . S
H682 C696 0.960 . S
H683 C696 0.960 . S
C684 H676 0.929 . S
C684 C685 1.377 . S
C684 C686 1.384 . S
C685 C684 1.377 . S
C685 C691 1.390 . S
C686 H677 0.930 . S
C686 C684 1.384 . S
C686 C687 1.372 . S
C687 C686 1.372 . S
C687 C688 1.400 . S
C687 C692 1.490 . S
C688 H678 0.930 . S
C688 C687 1.400 . S
C688 C691 1.386 . S
H689 C705 0.930 . S
H690 C706 0.931 . S
C691 H679 0.929 . S
C691 C685 1.390 . S
C691 C688 1.386 . S
C692 C687 1.490 . S
C692 C694 1.395 . S
C692 C695 1.403 . S
H693 C699 0.930 . S
C694 H680 0.930 . S
C694 C692 1.395 . S
C694 C697 1.403 . S
C695 C692 1.403 . S
C695 C696 1.524 . S
C695 C699 1.400 . S
C696 H681 0.960 . S
C696 H682 0.960 . S
C696 H683 0.960 . S
C696 C695 1.524 . S
C697 C694 1.403 . S
C697 C698 1.392 . S
C697 C701 1.495 1_556 S
C698 C697 1.392 . S
C698 C699 1.385 . S
C698 C700 1.478 . S
C699 H693 0.930 . S
C699 C695 1.400 . S
C699 C698 1.385 . S
C700 C698 1.478 . S
C700 C702 1.381 . S
C700 C706 1.383 . S
C701 C697 1.495 1_554 S
C701 H707 0.959 . S
C701 H708 0.951 1_554 S
C701 H709 0.960 . S
C702 C700 1.381 . S
C702 C703 1.394 . S
C702 H710 0.930 . S
C703 C702 1.394 . S
C703 C704 1.383 . S
C703 H711 0.929 . S
C704 C703 1.383 . S
C704 C705 1.377 . S
C705 H689 0.930 . S
C705 C704 1.377 . S
C705 C706 1.379 . S
C706 H690 0.931 . S
C706 C700 1.383 . S
C706 C705 1.379 . S
H707 C701 0.959 . S
H708 C701 0.951 1_556 S
H709 C701 0.960 . S
H710 C702 0.930 . S
H711 C703 0.929 . S
H712 C720 0.929 . S
H713 C722 0.930 . S
H714 C724 0.930 . S
H715 C727 0.929 . S
H716 C730 0.930 . S
H717 C732 0.960 . S
H718 C732 0.960 . S
H719 C732 0.960 . S
C720 H712 0.929 . S
C720 C721 1.377 . S
C720 C722 1.384 . S
C721 C720 1.377 . S
C721 C727 1.390 . S
C722 H713 0.930 . S
C722 C720 1.384 . S
C722 C723 1.372 . S
C723 C722 1.372 . S
C723 C724 1.400 . S
C723 C728 1.490 . S
C724 H714 0.930 . S
C724 C723 1.400 . S
C724 C727 1.386 . S
H725 C741 0.930 . S
H726 C742 0.931 . S
C727 H715 0.929 . S
C727 C721 1.390 . S
C727 C724 1.386 . S
C728 C723 1.490 . S
C728 C730 1.395 . S
C728 C731 1.403 . S
H729 C735 0.930 . S
C730 H716 0.930 . S
C730 C728 1.395 . S
C730 C733 1.403 . S
C731 C728 1.403 . S
C731 C732 1.524 . S
C731 C735 1.400 . S
C732 H717 0.960 . S
C732 H718 0.960 . S
C732 H719 0.960 . S
C732 C731 1.524 . S
C733 C730 1.403 . S
C733 C734 1.392 . S
C733 C737 1.495 . S
C734 C733 1.392 . S
C734 C735 1.385 . S
C734 C736 1.478 . S
C735 H729 0.930 . S
C735 C731 1.400 . S
C735 C734 1.385 . S
C736 C734 1.478 . S
C736 C738 1.381 . S
C736 C742 1.383 . S
C737 C733 1.495 . S
C737 H743 0.959 . S
C737 H744 0.961 . S
C737 H745 0.960 . S
C738 C736 1.381 . S
C738 C739 1.394 . S
C738 H746 0.930 . S
C739 C738 1.394 . S
C739 C740 1.383 . S
C739 H747 0.929 . S
C740 C739 1.383 . S
C740 C741 1.377 . S
C741 H725 0.930 . S
C741 C740 1.377 . S
C741 C742 1.379 . S
C742 H726 0.931 . S
C742 C736 1.383 . S
C742 C741 1.379 . S
H743 C737 0.959 . S
H744 C737 0.961 . S
H745 C737 0.960 . S
H746 C738 0.930 . S
H747 C739 0.929 . S
H748 C756 0.929 . S
H749 C758 0.930 . S
H750 C760 0.930 . S
H751 C763 0.929 . S
H752 C766 0.930 . S
H753 C768 0.960 . S
H754 C768 0.960 . S
H755 C768 0.960 . S
C756 H748 0.929 . S
C756 C757 1.377 . S
C756 C758 1.384 . S
C757 C756 1.377 . S
C757 C763 1.390 . S
C758 H749 0.930 . S
C758 C756 1.384 . S
C758 C759 1.372 . S
C759 C758 1.372 . S
C759 C760 1.400 . S
C759 C764 1.490 . S
C760 H750 0.930 . S
C760 C759 1.400 . S
C760 C763 1.386 . S
H761 C777 0.930 . S
H762 C778 0.931 . S
C763 H751 0.929 . S
C763 C757 1.390 . S
C763 C760 1.386 . S
C764 C759 1.490 . S
C764 C766 1.395 . S
C764 C767 1.403 . S
H765 C771 0.930 . S
C766 H752 0.930 . S
C766 C764 1.395 . S
C766 C769 1.403 . S
C767 C764 1.403 . S
C767 C768 1.524 . S
C767 C771 1.400 . S
C768 H753 0.960 . S
C768 H754 0.960 . S
C768 H755 0.960 . S
C768 C767 1.524 . S
C769 C766 1.403 . S
C769 C770 1.392 . S
C769 C773 1.495 . S
C770 C769 1.392 . S
C770 C771 1.385 . S
C770 C772 1.478 . S
C771 H765 0.930 . S
C771 C767 1.400 . S
C771 C770 1.385 . S
C772 C770 1.478 . S
C772 C774 1.381 . S
C772 C778 1.383 . S
C773 C769 1.495 . S
C773 H779 0.959 . S
C773 H780 0.961 . S
C773 H781 0.960 . S
C774 C772 1.381 . S
C774 C775 1.394 . S
C774 H782 0.930 . S
C775 C774 1.394 . S
C775 C776 1.383 . S
C775 H783 0.929 . S
C776 C775 1.383 . S
C776 C777 1.377 . S
C777 H761 0.930 . S
C777 C776 1.377 . S
C777 C778 1.379 . S
C778 H762 0.931 . S
C778 C772 1.383 . S
C778 C777 1.379 . S
H779 C773 0.959 . S
H780 C773 0.961 . S
H781 C773 0.960 . S
H782 C774 0.930 . S
H783 C775 0.929 . S
H784 C792 0.929 . S
H785 C794 0.930 . S
H786 C796 0.930 . S
H787 C799 0.929 . S
H788 C802 0.930 . S
H789 C804 0.960 . S
H790 C804 0.960 . S
H791 C804 0.960 . S
C792 H784 0.929 . S
C792 C793 1.377 . S
C792 C794 1.384 . S
C793 C792 1.377 . S
C793 C799 1.390 . S
C794 H785 0.930 . S
C794 C792 1.384 . S
C794 C795 1.372 . S
C795 C794 1.372 . S
C795 C796 1.400 . S
C795 C800 1.490 . S
C796 H786 0.930 . S
C796 C795 1.400 . S
C796 C799 1.386 . S
H797 C813 0.930 . S
H798 C814 0.931 . S
C799 H787 0.929 . S
C799 C793 1.390 . S
C799 C796 1.386 . S
C800 C795 1.490 . S
C800 C802 1.395 . S
C800 C803 1.403 . S
H801 C807 0.930 . S
C802 H788 0.930 . S
C802 C800 1.395 . S
C802 C805 1.403 . S
C803 C800 1.403 . S
C803 C804 1.524 . S
C803 C807 1.400 . S
C804 H789 0.960 . S
C804 H790 0.960 . S
C804 H791 0.960 . S
C804 C803 1.524 . S
C805 C802 1.403 . S
C805 C806 1.392 . S
C805 C809 1.495 . S
C806 C805 1.392 . S
C806 C807 1.385 . S
C806 C808 1.478 . S
C807 H801 0.930 . S
C807 C803 1.400 . S
C807 C806 1.385 . S
C808 C806 1.478 . S
C808 C810 1.381 . S
C808 C814 1.383 . S
C809 C805 1.495 . S
C809 H815 0.959 . S
C809 H816 0.961 . S
C809 H817 0.960 . S
C810 C808 1.381 . S
C810 C811 1.394 . S
C810 H818 0.930 . S
C811 C810 1.394 . S
C811 C812 1.383 . S
C811 H819 0.929 . S
C812 C811 1.383 . S
C812 C813 1.377 . S
C813 H797 0.930 . S
C813 C812 1.377 . S
C813 C814 1.379 . S
C814 H798 0.931 . S
C814 C808 1.383 . S
C814 C813 1.379 . S
H815 C809 0.959 . S
H816 C809 0.961 . S
H817 C809 0.960 . S
H818 C810 0.930 . S
H819 C811 0.929 . S
H820 C828 0.929 . S
H821 C830 0.930 . S
H822 C832 0.930 . S
H823 C835 0.929 . S
H824 C838 0.930 . S
H825 C840 0.960 . S
H826 C840 0.960 . S
H827 C840 0.960 . S
C828 H820 0.929 . S
C828 C829 1.377 . S
C828 C830 1.384 . S
C829 C828 1.377 . S
C829 C835 1.390 . S
C830 H821 0.930 . S
C830 C828 1.384 . S
C830 C831 1.372 . S
C831 C830 1.372 . S
C831 C832 1.400 . S
C831 C836 1.490 . S
C832 H822 0.930 . S
C832 C831 1.400 . S
C832 C835 1.386 . S
H833 C849 0.930 . S
H834 C850 0.931 . S
C835 H823 0.929 . S
C835 C829 1.390 . S
C835 C832 1.386 . S
C836 C831 1.490 . S
C836 C838 1.395 . S
C836 C839 1.403 . S
H837 C843 0.930 . S
C838 H824 0.930 . S
C838 C836 1.395 . S
C838 C841 1.403 . S
C839 C836 1.403 . S
C839 C840 1.524 . S
C839 C843 1.400 . S
C840 H825 0.960 . S
C840 H826 0.960 . S
C840 H827 0.960 . S
C840 C839 1.524 . S
C841 C838 1.403 . S
C841 C842 1.392 . S
C841 C845 1.495 . S
C842 C841 1.392 . S
C842 C843 1.385 . S
C842 C844 1.478 . S
C843 H837 0.930 . S
C843 C839 1.400 . S
C843 C842 1.385 . S
C844 C842 1.478 . S
C844 C846 1.381 . S
C844 C850 1.383 . S
C845 C841 1.495 . S
C845 H851 0.959 . S
C845 H852 0.961 . S
C845 H853 0.960 . S
C846 C844 1.381 . S
C846 C847 1.394 . S
C846 H854 0.930 . S
C847 C846 1.394 . S
C847 C848 1.383 . S
C847 H855 0.929 . S
C848 C847 1.383 . S
C848 C849 1.377 . S
C849 H833 0.930 . S
C849 C848 1.377 . S
C849 C850 1.379 . S
C850 H834 0.931 . S
C850 C844 1.383 . S
C850 C849 1.379 . S
H851 C845 0.959 . S
H852 C845 0.961 . S
H853 C845 0.960 . S
H854 C846 0.930 . S
H855 C847 0.929 . S
H856 C864 0.929 . S
H857 C866 0.930 . S
H858 C868 0.930 . S
H859 C871 0.929 . S
H860 C874 0.930 . S
H861 C876 0.960 . S
H862 C876 0.960 . S
H863 C876 0.960 . S
C864 H856 0.929 . S
C864 C865 1.377 . S
C864 C866 1.384 . S
C865 C864 1.377 . S
C865 C871 1.390 . S
C866 H857 0.930 . S
C866 C864 1.384 . S
C866 C867 1.372 . S
C867 C866 1.372 . S
C867 C868 1.400 . S
C867 C872 1.490 . S
C868 H858 0.930 . S
C868 C867 1.400 . S
C868 C871 1.386 . S
H869 C885 0.930 . S
H870 C886 0.931 . S
C871 H859 0.929 . S
C871 C865 1.390 . S
C871 C868 1.386 . S
C872 C867 1.490 . S
C872 C874 1.395 . S
C872 C875 1.403 . S
H873 C879 0.930 . S
C874 H860 0.930 . S
C874 C872 1.395 . S
C874 C877 1.403 . S
C875 C872 1.403 . S
C875 C876 1.524 . S
C875 C879 1.400 . S
C876 H861 0.960 . S
C876 H862 0.960 . S
C876 H863 0.960 . S
C876 C875 1.524 . S
C877 C874 1.403 . S
C877 C878 1.392 . S
C877 C881 1.495 . S
C878 C877 1.392 . S
C878 C879 1.385 . S
C878 C880 1.478 . S
C879 H873 0.930 . S
C879 C875 1.400 . S
C879 C878 1.385 . S
C880 C878 1.478 . S
C880 C882 1.381 . S
C880 C886 1.383 . S
C881 C877 1.495 . S
C881 H887 0.959 . S
C881 H888 0.961 . S
C881 H889 0.960 . S
C882 C880 1.381 . S
C882 C883 1.394 . S
C882 H890 0.930 . S
C883 C882 1.394 . S
C883 C884 1.383 . S
C883 H891 0.929 . S
C884 C883 1.383 . S
C884 C885 1.377 . S
C885 H869 0.930 . S
C885 C884 1.377 . S
C885 C886 1.379 . S
C886 H870 0.931 . S
C886 C880 1.383 . S
C886 C885 1.379 . S
H887 C881 0.959 . S
H888 C881 0.961 . S
H889 C881 0.960 . S
H890 C882 0.930 . S
H891 C883 0.929 . S
H892 C900 0.929 . S
H893 C902 0.930 . S
H894 C904 0.930 . S
H895 C907 0.929 . S
H896 C910 0.930 . S
H897 C912 0.960 . S
H898 C912 0.960 . S
H899 C912 0.960 . S
C900 H892 0.929 . S
C900 C901 1.377 . S
C900 C902 1.384 . S
C901 C900 1.377 . S
C901 C907 1.390 . S
C902 H893 0.930 . S
C902 C900 1.384 . S
C902 C903 1.372 . S
C903 C902 1.372 . S
C903 C904 1.400 . S
C903 C908 1.490 . S
C904 H894 0.930 . S
C904 C903 1.400 . S
C904 C907 1.386 . S
H905 C921 0.930 . S
H906 C922 0.931 . S
C907 H895 0.929 . S
C907 C901 1.390 . S
C907 C904 1.386 . S
C908 C903 1.490 . S
C908 C910 1.395 . S
C908 C911 1.403 . S
H909 C915 0.930 . S
C910 H896 0.930 . S
C910 C908 1.395 . S
C910 C913 1.403 . S
C911 C908 1.403 . S
C911 C912 1.524 . S
C911 C915 1.400 . S
C912 H897 0.960 . S
C912 H898 0.960 . S
C912 H899 0.960 . S
C912 C911 1.524 . S
C913 C910 1.403 . S
C913 C914 1.392 . S
C913 C917 1.495 . S
C914 C913 1.392 . S
C914 C915 1.385 . S
C914 C916 1.478 . S
C915 H909 0.930 . S
C915 C911 1.400 . S
C915 C914 1.385 . S
C916 C914 1.478 . S
C916 C918 1.381 . S
C916 C922 1.383 . S
C917 C913 1.495 . S
C917 H923 0.959 . S
C917 H924 0.961 . S
C917 H925 0.960 . S
C918 C916 1.381 . S
C918 C919 1.394 . S
C918 H926 0.930 . S
C919 C918 1.394 . S
C919 C920 1.383 . S
C919 H927 0.929 . S
C920 C919 1.383 . S
C920 C921 1.377 . S
C921 H905 0.930 . S
C921 C920 1.377 . S
C921 C922 1.379 . S
C922 H906 0.931 . S
C922 C916 1.383 . S
C922 C921 1.379 . S
H923 C917 0.959 . S
H924 C917 0.961 . S
H925 C917 0.960 . S
H926 C918 0.930 . S
H927 C919 0.929 . S
H928 C936 0.929 . S
H929 C938 0.930 . S
H930 C940 0.930 . S
H931 C943 0.929 . S
H932 C946 0.930 . S
H933 C948 0.960 . S
H934 C948 0.960 . S
H935 C948 0.960 . S
C936 H928 0.929 . S
C936 C937 1.377 . S
C936 C938 1.384 1_556 S
C937 C936 1.377 . S
C937 C943 1.390 . S
C938 H929 0.930 . S
C938 C936 1.384 1_554 S
C938 C939 1.372 . S
C939 C938 1.372 . S
C939 C940 1.400 1_554 S
C939 C944 1.490 . S
C940 H930 0.930 . S
C940 C939 1.400 1_556 S
C940 C943 1.386 . S
H941 C957 0.930 . S
H942 C958 0.931 . S
C943 H931 0.929 . S
C943 C937 1.390 . S
C943 C940 1.386 . S
C944 C939 1.490 . S
C944 C946 1.395 . S
C944 C947 1.403 . S
H945 C951 0.930 . S
C946 H932 0.930 . S
C946 C944 1.395 . S
C946 C949 1.403 . S
C947 C944 1.403 . S
C947 C948 1.524 1_554 S
C947 C951 1.400 . S
C948 H933 0.960 . S
C948 H934 0.960 . S
C948 H935 0.960 . S
C948 C947 1.524 1_556 S
C949 C946 1.403 . S
C949 C950 1.392 . S
C949 C953 1.495 . S
C950 C949 1.392 . S
C950 C951 1.385 . S
C950 C952 1.478 . S
C951 H945 0.930 . S
C951 C947 1.400 . S
C951 C950 1.385 . S
C952 C950 1.478 . S
C952 C954 1.381 . S
C952 C958 1.383 . S
C953 C949 1.495 . S
C953 H959 0.959 . S
C953 H960 0.961 . S
C953 H961 0.960 . S
C954 C952 1.381 . S
C954 C955 1.394 . S
C954 H962 0.930 . S
C955 C954 1.394 . S
C955 C956 1.383 . S
C955 H963 0.929 . S
C956 C955 1.383 . S
C956 C957 1.377 . S
C957 H941 0.930 . S
C957 C956 1.377 . S
C957 C958 1.379 . S
C958 H942 0.931 . S
C958 C952 1.383 . S
C958 C957 1.379 . S
H959 C953 0.959 . S
H960 C953 0.961 . S
H961 C953 0.960 . S
H962 C954 0.930 . S
H963 C955 0.929 . S
H964 C972 0.929 . S
H965 C974 0.930 . S
H966 C976 0.930 . S
H967 C979 0.929 . S
H968 C982 0.930 . S
H969 C984 0.960 . S
H970 C984 0.960 . S
H971 C984 0.960 . S
C972 H964 0.929 . S
C972 C973 1.377 . S
C972 C974 1.384 . S
C973 C972 1.377 . S
C973 C979 1.390 . S
C974 H965 0.930 . S
C974 C972 1.384 . S
C974 C975 1.372 . S
C975 C974 1.372 . S
C975 C976 1.400 . S
C975 C980 1.490 . S
C976 H966 0.930 . S
C976 C975 1.400 . S
C976 C979 1.386 . S
H977 C993 0.930 . S
H978 C994 0.931 . S
C979 H967 0.929 . S
C979 C973 1.390 . S
C979 C976 1.386 . S
C980 C975 1.490 . S
C980 C982 1.395 . S
C980 C983 1.403 . S
H981 C987 0.930 . S
C982 H968 0.930 . S
C982 C980 1.395 . S
C982 C985 1.403 . S
C983 C980 1.403 . S
C983 C984 1.524 . S
C983 C987 1.400 . S
C984 H969 0.960 . S
C984 H970 0.960 . S
C984 H971 0.960 . S
C984 C983 1.524 . S
C985 C982 1.403 . S
C985 C986 1.392 . S
C985 C989 1.495 . S
C986 C985 1.392 . S
C986 C987 1.385 . S
C986 C988 1.478 . S
C987 H981 0.930 . S
C987 C983 1.400 . S
C987 C986 1.385 . S
C988 C986 1.478 . S
C988 C990 1.381 . S
C988 C994 1.383 . S
C989 C985 1.495 . S
C989 H995 0.959 . S
C989 H996 0.961 . S
C989 H997 0.960 . S
C990 C988 1.381 . S
C990 C991 1.394 . S
C990 H998 0.930 . S
C991 C990 1.394 . S
C991 C992 1.383 . S
C991 H999 0.929 . S
C992 C991 1.383 . S
C992 C993 1.377 . S
C993 H977 0.930 . S
C993 C992 1.377 . S
C993 C994 1.379 . S
C994 H978 0.931 . S
C994 C988 1.383 . S
C994 C993 1.379 . S
H995 C989 0.959 . S
H996 C989 0.961 . S
H997 C989 0.960 . S
H998 C990 0.930 . S
H999 C991 0.929 . S
H1000 C1008 0.929 . S
H1001 C1010 0.930 . S
H1002 C1012 0.930 . S
H1003 C1015 0.929 . S
H1004 C1018 0.930 . S
H1005 C1020 0.960 . S
H1006 C1020 0.960 . S
H1007 C1020 0.960 . S
C1008 H1000 0.929 . S
C1008 C1009 1.377 . S
C1008 C1010 1.384 . S
C1009 C1008 1.377 . S
C1009 C1015 1.390 . S
C1010 H1001 0.930 . S
C1010 C1008 1.384 . S
C1010 C1011 1.372 . S
C1011 C1010 1.372 . S
C1011 C1012 1.400 . S
C1011 C1016 1.490 . S
C1012 H1002 0.930 . S
C1012 C1011 1.400 . S
C1012 C1015 1.386 . S
H1013 C1029 0.930 . S
H1014 C1030 0.931 . S
C1015 H1003 0.929 . S
C1015 C1009 1.390 . S
C1015 C1012 1.386 . S
C1016 C1011 1.490 . S
C1016 C1018 1.395 . S
C1016 C1019 1.403 . S
H1017 C1023 0.930 . S
C1018 H1004 0.930 . S
C1018 C1016 1.395 . S
C1018 C1021 1.403 . S
C1019 C1016 1.403 . S
C1019 C1020 1.524 . S
C1019 C1023 1.400 . S
C1020 H1005 0.960 . S
C1020 H1006 0.960 . S
C1020 H1007 0.960 . S
C1020 C1019 1.524 . S
C1021 C1018 1.403 . S
C1021 C1022 1.392 . S
C1021 C1025 1.495 . S
C1022 C1021 1.392 . S
C1022 C1023 1.385 . S
C1022 C1024 1.478 . S
C1023 H1017 0.930 . S
C1023 C1019 1.400 . S
C1023 C1022 1.385 . S
C1024 C1022 1.478 . S
C1024 C1026 1.381 . S
C1024 C1030 1.383 . S
C1025 C1021 1.495 . S
C1025 H1031 0.959 . S
C1025 H1032 0.961 . S
C1025 H1033 0.960 . S
C1026 C1024 1.381 . S
C1026 C1027 1.394 . S
C1026 H1034 0.930 . S
C1027 C1026 1.394 . S
C1027 C1028 1.383 . S
C1027 H1035 0.929 . S
C1028 C1027 1.383 . S
C1028 C1029 1.377 . S
C1029 H1013 0.930 . S
C1029 C1028 1.377 . S
C1029 C1030 1.379 . S
C1030 H1014 0.931 . S
C1030 C1024 1.383 . S
C1030 C1029 1.379 . S
H1031 C1025 0.959 . S
H1032 C1025 0.961 . S
H1033 C1025 0.960 . S
H1034 C1026 0.930 . S
H1035 C1027 0.929 . S
C200 C100 1.518 . S
C181 C10 1.516 . S
C236 C103 1.688 . S
C217 C15 1.702 . S
C272 C101 1.397 . S
C253 C26 1.403 . S
C308 C102 1.474 1_655 S
C289 C37 1.496 . S
C344 C117 1.792 . S
C325 C4 1.808 . S
C380 C131 1.675 . S
C361 C16 1.672 . S
C397 C27 1.614 . S
C416 C157 1.617 . S
C452 C171 1.380 . S
C433 C43 1.387 1_554 S
C488 C116 1.726 . S
C469 C21 1.713 . S
C505 C32 1.421 . S
C524 C130 1.417 . S
C560 C156 1.592 . S
C541 C38 1.591 . S
C596 C170 1.573 . S
C577 C5 1.575 . S
C613 C49 1.763 . S
C632 C115 1.765 1_655 S
C668 C88 1.593 . S
C649 C60 1.586 . S
C685 C76 1.599 . S
C704 C114 1.597 . S
C721 C81 1.530 . S
C740 C89 1.540 . S
C776 C144 1.469 . S
C757 C54 1.460 . S
C812 C158 1.607 . S
C793 C59 1.610 . S
C848 C128 1.612 . S
C829 C70 1.613 . S
C865 C87 1.652 . S
C884 C142 1.626 . S
C920 C145 1.529 . S
C901 C65 1.526 . S
C956 C159 1.647 . S
C937 C71 1.625 . S
C992 C129 1.608 . S
C973 C82 1.590 . S
C1009 C48 1.742 . S
C1028 C143 1.722 . S
