# Generated by pormake.
# Topology pyr, (3,6)-cn, num edge types: 1
# Building blocks:
#     Node 0, Type 0, BuildingBlock: ESEHIV_clean_linker_0, # of connection points: 3
#     Node 1, Type 0, BuildingBlock: ESEHIV_clean_linker_0, # of connection points: 3
#     Node 2, Type 0, BuildingBlock: ESEHIV_clean_linker_0, # of connection points: 3
#     Node 3, Type 0, BuildingBlock: ESEHIV_clean_linker_0, # of connection points: 3
#     Node 4, Type 0, BuildingBlock: ESEHIV_clean_linker_0, # of connection points: 3
#     Node 5, Type 0, BuildingBlock: ESEHIV_clean_linker_0, # of connection points: 3
#     Node 6, Type 0, BuildingBlock: ESEHIV_clean_linker_0, # of connection points: 3
#     Node 7, Type 0, BuildingBlock: ESEHIV_clean_linker_0, # of connection points: 3
#     Node 8, Type 1, BuildingBlock: PAMTOO_clean_sbu_0, # of connection points: 6
#     Node 9, Type 1, BuildingBlock: PAMTOO_clean_sbu_0, # of connection points: 6
#     Node 10, Type 1, BuildingBlock: PAMTOO_clean_sbu_0, # of connection points: 6
#     Node 11, Type 1, BuildingBlock: PAMTOO_clean_sbu_0, # of connection points: 6
#     Edge 12, Type (0, 1), BuildingBlock: ZUJKAS_clean_linker_0, # of connection points: 2
#     Edge 13, Type (0, 1), BuildingBlock: ZUJKAS_clean_linker_0, # of connection points: 2
#     Edge 14, Type (0, 1), BuildingBlock: ZUJKAS_clean_linker_0, # of connection points: 2
#     Edge 15, Type (0, 1), BuildingBlock: ZUJKAS_clean_linker_0, # of connection points: 2
#     Edge 16, Type (0, 1), BuildingBlock: ZUJKAS_clean_linker_0, # of connection points: 2
#     Edge 17, Type (0, 1), BuildingBlock: ZUJKAS_clean_linker_0, # of connection points: 2
#     Edge 18, Type (0, 1), BuildingBlock: ZUJKAS_clean_linker_0, # of connection points: 2
#     Edge 19, Type (0, 1), BuildingBlock: ZUJKAS_clean_linker_0, # of connection points: 2
#     Edge 20, Type (0, 1), BuildingBlock: ZUJKAS_clean_linker_0, # of connection points: 2
#     Edge 21, Type (0, 1), BuildingBlock: ZUJKAS_clean_linker_0, # of connection points: 2
#     Edge 22, Type (0, 1), BuildingBlock: ZUJKAS_clean_linker_0, # of connection points: 2
#     Edge 23, Type (0, 1), BuildingBlock: ZUJKAS_clean_linker_0, # of connection points: 2
#     Edge 24, Type (0, 1), BuildingBlock: ZUJKAS_clean_linker_0, # of connection points: 2
#     Edge 25, Type (0, 1), BuildingBlock: ZUJKAS_clean_linker_0, # of connection points: 2
#     Edge 26, Type (0, 1), BuildingBlock: ZUJKAS_clean_linker_0, # of connection points: 2
#     Edge 27, Type (0, 1), BuildingBlock: ZUJKAS_clean_linker_0, # of connection points: 2
#     Edge 28, Type (0, 1), BuildingBlock: ZUJKAS_clean_linker_0, # of connection points: 2
#     Edge 29, Type (0, 1), BuildingBlock: ZUJKAS_clean_linker_0, # of connection points: 2
#     Edge 30, Type (0, 1), BuildingBlock: ZUJKAS_clean_linker_0, # of connection points: 2
#     Edge 31, Type (0, 1), BuildingBlock: ZUJKAS_clean_linker_0, # of connection points: 2
#     Edge 32, Type (0, 1), BuildingBlock: ZUJKAS_clean_linker_0, # of connection points: 2
#     Edge 33, Type (0, 1), BuildingBlock: ZUJKAS_clean_linker_0, # of connection points: 2
#     Edge 34, Type (0, 1), BuildingBlock: ZUJKAS_clean_linker_0, # of connection points: 2
#     Edge 35, Type (0, 1), BuildingBlock: ZUJKAS_clean_linker_0, # of connection points: 2
# Relax obj value: 0.089
# Max RMSD: 0.157
# Mean RMSD: 0.066
data_MOF--net-pyr--node1-PAMTOO_clean_sbu_0--node2-ESEHIV_clean_linker_0--edge1-ZUJKAS_clean_linker_0
_symmetry_space_group_name_H-M    P1
_symmetry_Int_Tables_number       1
_symmetry_cell_setting            triclinic
loop_
_symmetry_equiv_pos_as_xyz
'x, y, z'
_cell_length_a     45.760236
_cell_length_b     47.860509
_cell_length_c     47.923509
_cell_angle_alpha  89.996381
_cell_angle_beta   89.959047
_cell_angle_gamma 102.67838
loop_
_atom_site_label
_atom_site_type_symbol
_atom_site_fract_x
_atom_site_fract_y
_atom_site_fract_z
_atom_type_partial_charge
H0 H 0.29539 0.3049 0.23867 0.0
H1 H 0.35346 0.2459 0.24399 0.0
H2 H 0.35279 0.2961 0.16967 0.0
C3 C 0.31301 0.29585 0.22975 0.0
C4 C 0.32284 0.30318 0.20239 0.0
C5 C 0.324 0.27533 0.245 0.0
C6 C 0.34606 0.26288 0.23297 0.0
C7 C 0.35654 0.27015 0.20577 0.0
C8 C 0.34505 0.2906 0.19076 0.0
H9 H 0.15521 0.80081 0.74223 0.0
H10 H 0.22283 0.75151 0.73755 0.0
H11 H 0.16345 0.75217 0.66822 0.0
C12 C 0.16552 0.78574 0.73113 0.0
C13 C 0.15613 0.77738 0.70389 0.0
C14 C 0.18946 0.77638 0.74351 0.0
C15 C 0.20334 0.75759 0.7287 0.0
C16 C 0.19415 0.74868 0.70155 0.0
C17 C 0.17042 0.75861 0.6893 0.0
H18 H 0.67685 0.34147 0.89045 0.0
H19 H 0.68403 0.40851 0.82982 0.0
H20 H 0.60803 0.33669 0.82844 0.0
C21 C 0.66779 0.35051 0.87255 0.0
C22 C 0.64055 0.33586 0.86091 0.0
C23 C 0.68349 0.37673 0.86166 0.0
C24 C 0.67161 0.38852 0.83853 0.0
C25 C 0.64445 0.37425 0.82602 0.0
C26 C 0.62918 0.34769 0.83735 0.0
H27 H 0.8385 0.7021 0.3877 0.0
H28 H 0.90352 0.71004 0.32183 0.0
H29 H 0.83116 0.63519 0.32692 0.0
C30 C 0.847 0.69351 0.36923 0.0
C31 C 0.83152 0.66702 0.35865 0.0
C32 C 0.87323 0.70907 0.35644 0.0
C33 C 0.88367 0.69789 0.33205 0.0
C34 C 0.86873 0.67115 0.32093 0.0
C35 C 0.84279 0.65585 0.33476 0.0
H36 H 0.66022 0.80169 0.81857 0.0
H37 H 0.72299 0.74744 0.82599 0.0
H38 H 0.6738 0.76447 0.89803 0.0
C39 C 0.67082 0.7879 0.83113 0.0
C40 C 0.66429 0.78475 0.85977 0.0
C41 C 0.69224 0.77485 0.81882 0.0
C42 C 0.70544 0.75657 0.835 0.0
C43 C 0.69857 0.7523 0.86347 0.0
C44 C 0.67802 0.76656 0.87579 0.0
H45 H 0.79911 0.29896 0.32647 0.0
H46 H 0.8636 0.24609 0.32522 0.0
H47 H 0.85251 0.29369 0.39922 0.0
C48 C 0.8174 0.29171 0.33639 0.0
C49 C 0.82482 0.29944 0.3642 0.0
C50 C 0.83125 0.27249 0.32219 0.0
C51 C 0.85345 0.26156 0.33586 0.0
C52 C 0.86116 0.26889 0.36371 0.0
C53 C 0.84691 0.28808 0.37767 0.0
H54 H 0.33936 0.70039 0.18554 0.0
H55 H 0.3323 0.63322 0.24619 0.0
H56 H 0.40417 0.70828 0.25159 0.0
C57 C 0.34817 0.6915 0.20366 0.0
C58 C 0.37407 0.70731 0.21675 0.0
C59 C 0.33293 0.66476 0.21395 0.0
C60 C 0.34356 0.65406 0.23842 0.0
C61 C 0.36925 0.66956 0.25235 0.0
C62 C 0.38437 0.6962 0.24122 0.0
H63 H 0.11143 0.33497 0.7487 0.0
H64 H 0.176 0.34173 0.68241 0.0
H65 H 0.18235 0.41077 0.74068 0.0
C66 C 0.1311 0.34698 0.73807 0.0
C67 C 0.14521 0.37463 0.74773 0.0
C68 C 0.14235 0.33472 0.7147 0.0
C69 C 0.16746 0.35074 0.70064 0.0
C70 C 0.18188 0.37815 0.70972 0.0
C71 C 0.17088 0.38978 0.73344 0.0
Dy72 Dy 0.04185 0.02812 0.51794 0.0
Dy73 Dy 0.97665 1.01657 0.54968 0.0
C74 C 0.0293 0.06939 0.56749 0.0
O75 O 0.0391 0.98832 0.5426 0.0
O76 O 1.00537 0.99479 0.57604 0.0
O77 O 0.08998 0.03347 0.51953 0.0
O78 O 0.06732 0.03352 0.47979 0.0
O79 O 0.97664 0.97643 0.52595 0.0
O80 O 0.00981 0.99612 0.49184 0.0
O81 O 0.97258 0.0408 0.5105 0.0
O82 O 0.02145 0.06424 0.50512 0.0
O83 O 0.92852 1.00577 0.54654 0.0
O84 O 0.94973 1.01589 0.58684 0.0
C85 C 0.02612 0.98197 0.56688 0.0
O86 O 0.04882 0.05637 0.55598 0.0
O87 O 1.00038 0.06031 0.5634 0.0
C88 C 0.11576 0.06215 0.48346 0.0
C89 C 0.15729 0.10854 0.46032 0.0
C90 C 0.13113 0.11295 0.47342 0.0
C91 C 0.1105 0.0899 0.48493 0.0
C92 C 0.14227 0.0578 0.47144 0.0
C93 C 0.16291 0.08079 0.45998 0.0
C94 C 0.093 0.03736 0.49265 0.0
C95 C 0.98858 0.97504 0.50123 0.0
C96 C 0.99287 0.06207 0.50027 0.0
C97 C 0.90465 0.98117 0.58553 0.0
C98 C 0.86615 0.93314 0.60949 0.0
C99 C 0.8898 0.92968 0.59198 0.0
C100 C 0.90895 0.95354 0.58014 0.0
C101 C 0.88112 0.98476 0.60282 0.0
C102 C 0.86204 0.96098 0.61475 0.0
C103 C 0.9247 1.00638 0.57348 0.0
H104 H 0.12632 0.13411 0.47423 0.0
H105 H 0.09009 0.09356 0.49425 0.0
H106 H 0.14656 0.03645 0.4701 0.0
H107 H 0.18259 0.07658 0.44969 0.0
H108 H 0.89345 0.90856 0.58736 0.0
H109 H 0.92713 0.95044 0.56682 0.0
H110 H 0.87765 1.00599 0.60729 0.0
H111 H 0.84447 0.96448 0.62859 0.0
Dy112 Dy 0.47691 1.01617 1.0242 0.0
Dy113 Dy 0.54067 0.02813 0.05834 0.0
C114 C 0.48709 0.97464 0.07331 0.0
O115 O 0.47088 0.04026 0.06303 0.0
O116 O 0.51937 0.06387 0.07033 0.0
O117 O 0.42869 1.00396 1.02521 0.0
O118 O 0.45178 1.01714 0.98624 0.0
O119 O 0.54914 0.05714 1.02083 0.0
O120 O 0.50079 0.06012 1.01141 0.0
O121 O 0.53899 0.98842 0.03383 0.0
O122 O 0.50734 0.99538 0.99877 0.0
O123 O 0.58859 0.03219 0.05848 0.0
O124 O 0.56481 0.03497 0.09722 0.0
C125 C 0.49058 0.06147 0.07409 0.0
O126 O 0.47622 0.976 0.04812 0.0
O127 O 0.50773 0.99583 0.08339 0.0
C128 C 0.40612 0.98326 0.98388 0.0
C129 C 0.36742 0.93877 0.95514 0.0
C130 C 0.39142 0.93312 0.97089 0.0
C131 C 0.41067 0.95525 0.98518 0.0
C132 C 0.38223 0.98897 0.96837 0.0
C133 C 0.36305 0.96696 0.95408 0.0
C134 C 0.42613 1.00687 0.99832 0.0
C135 C 0.52978 0.0697 1.00839 0.0
C136 C 0.52767 0.98257 1.00885 0.0
C137 C 0.61391 0.06232 0.09368 0.0
C138 C 0.65665 0.10965 0.11352 0.0
C139 C 0.63296 0.11374 0.09638 0.0
C140 C 0.61171 0.0902 0.08653 0.0
C141 C 0.63779 0.0581 0.11013 0.0
C142 C 0.65899 0.08154 0.11999 0.0
C143 C 0.59084 0.03748 0.08519 0.0
H144 H 0.39526 0.91163 0.97225 0.0
H145 H 0.42911 0.95056 0.99713 0.0
H146 H 0.37856 1.01055 0.96709 0.0
H147 H 0.34519 0.97217 0.9417 0.0
H148 H 0.63067 0.13509 0.09086 0.0
H149 H 0.59332 0.09374 0.07377 0.0
H150 H 0.63967 0.03667 0.1159 0.0
H151 H 0.67659 0.07761 0.13354 0.0
Dy152 Dy 0.50682 0.49193 0.52064 0.0
Dy153 Dy 0.51161 0.55228 0.55455 0.0
C154 C 0.53647 0.50115 0.58195 0.0
O155 O 0.46 0.4894 0.53591 0.0
O156 O 0.47108 0.52227 0.5714 0.0
O157 O 0.49907 0.44572 0.51926 0.0
O158 O 0.51049 0.4705 0.48157 0.0
O159 O 0.47863 0.55308 0.5201 0.0
O160 O 0.49563 0.52333 0.48992 0.0
O161 O 0.54946 0.56016 0.52389 0.0
O162 O 0.55521 0.51417 0.51875 0.0
O163 O 0.51915 0.59842 0.55428 0.0
O164 O 0.50923 0.5752 0.59309 0.0
C165 C 0.45257 0.50108 0.55897 0.0
O166 O 0.51973 0.48349 0.56438 0.0
O167 O 0.54131 0.52909 0.57852 0.0
C168 C 0.53183 0.43089 0.48737 0.0
C169 C 0.58167 0.40866 0.47219 0.0
C170 C 0.58209 0.42453 0.49692 0.0
C171 C 0.55743 0.4357 0.50436 0.0
C172 C 0.53097 0.41442 0.46312 0.0
C173 C 0.55571 0.40338 0.45556 0.0
C174 C 0.50749 0.4455 0.49329 0.0
C175 C 0.48094 0.54353 0.49469 0.0
C176 C 0.56518 0.54186 0.51543 0.0
C177 C 0.48682 0.61418 0.58593 0.0
C178 C 0.43727 0.63788 0.59889 0.0
C179 C 0.43772 0.62228 0.57412 0.0
C180 C 0.46218 0.61041 0.56778 0.0
C181 C 0.48673 0.63012 0.61043 0.0
C182 C 0.46212 0.64187 0.61691 0.0
C183 C 0.51137 0.59962 0.58036 0.0
H184 H 0.60189 0.42924 0.50995 0.0
H185 H 0.5587 0.44881 0.52295 0.0
H186 H 0.51149 0.41075 0.44964 0.0
H187 H 0.55468 0.391 0.43652 0.0
H188 H 0.41874 0.61848 0.56004 0.0
H189 H 0.46154 0.59778 0.54896 0.0
H190 H 0.50544 0.63303 0.62478 0.0
H191 H 0.46246 0.65396 0.63605 0.0
Dy192 Dy 0.01273 0.5546 1.01753 0.0
Dy193 Dy 1.00579 0.49384 0.0516 0.0
C194 C 0.97995 0.54592 0.07711 0.0
O195 O 0.05059 0.56212 0.04806 0.0
O196 O 0.0542 0.51567 0.05512 0.0
O197 O 0.02057 0.60077 1.01712 0.0
O198 O 0.01147 0.57705 0.97853 0.0
O199 O 0.01974 0.48554 1.00811 0.0
O200 O 0.04282 0.53099 0.99469 0.0
O201 O 0.95951 0.49254 0.03576 0.0
O202 O 0.97255 0.52463 0.99992 0.0
O203 O 0.99574 0.44754 0.05267 0.0
O204 O 0.01003 0.47182 0.09018 0.0
C205 C 0.06511 0.54331 0.05764 0.0
O206 O 0.98024 0.55709 0.05203 0.0
O207 O 0.99231 0.52412 0.08211 0.0
C208 C 0.98916 0.61631 0.98435 0.0
C209 C 0.93995 0.63973 0.96943 0.0
C210 C 0.94017 0.62546 0.99503 0.0
C211 C 0.96446 0.61372 1.00235 0.0
C212 C 0.98934 0.63101 0.95906 0.0
C213 C 0.96492 0.64262 0.95162 0.0
C214 C 0.01343 0.60165 0.99085 0.0
C215 C 0.03749 0.50305 0.99109 0.0
C216 C 0.95316 0.50397 1.0122 0.0
C217 C 0.02964 0.43146 0.0825 0.0
C218 C 0.08058 0.40969 0.09459 0.0
C219 C 0.07784 0.42249 0.06863 0.0
C220 C 0.05267 0.43348 0.0627 0.0
C221 C 0.0318 0.41779 0.10801 0.0
C222 C 0.0571 0.407 0.11405 0.0
C223 C 1.00557 0.44686 0.07815 0.0
H224 H 0.92113 0.62254 1.00901 0.0
H225 H 0.96361 0.60206 1.02181 0.0
H226 H 0.00808 0.633 0.94481 0.0
H227 H 0.96548 0.65372 0.93186 0.0
H228 H 0.09572 0.42515 0.05338 0.0
H229 H 0.05174 0.44447 0.04306 0.0
H230 H 0.01441 0.41637 0.12365 0.0
H231 H 0.05854 0.39699 0.13412 0.0
H232 H 0.26439 0.2637 0.25772 0.0
H233 H 0.24 0.24131 0.2997 0.0
H234 H 0.32585 0.23677 0.33417 0.0
H235 H 0.35079 0.26052 0.29248 0.0
H236 H 0.2437 0.18706 0.31583 0.0
H237 H 0.28369 0.2655 0.40057 0.0
H238 H 0.28652 0.27527 0.3641 0.0
H239 H 0.31243 0.25629 0.37913 0.0
C240 C 0.27829 0.25887 0.27454 0.0
C241 C 0.30963 0.26414 0.27179 0.0
C242 C 0.26423 0.24582 0.29846 0.0
C243 C 0.28111 0.23763 0.32014 0.0
C244 C 0.31245 0.2434 0.31788 0.0
H245 H 0.21873 0.12153 0.45839 0.0
H246 H 0.25063 0.15507 0.42645 0.0
C247 C 0.32662 0.25666 0.29393 0.0
C248 C 0.26545 0.22058 0.34362 0.0
H249 H 0.25423 0.22029 0.41415 0.0
C250 C 0.246 0.19436 0.33731 0.0
C251 C 0.2687 0.2301 0.37163 0.0
C252 C 0.28877 0.25843 0.37938 0.0
C253 C 0.22946 0.17749 0.3582 0.0
C254 C 0.23226 0.18721 0.38609 0.0
C255 C 0.25215 0.21309 0.39264 0.0
C256 C 0.21397 0.17066 0.40837 0.0
C257 C 0.20901 0.14935 0.35032 0.0
C258 C 0.18305 0.1691 0.4092 0.0
C259 C 0.1648 0.14994 0.42721 0.0
C260 C 0.17722 0.13199 0.44469 0.0
C261 C 0.2085 0.13483 0.44491 0.0
C262 C 0.22676 0.15408 0.42688 0.0
H263 H 0.21349 0.14252 0.32887 0.0
H264 H 0.21156 0.13226 0.36521 0.0
H265 H 0.1854 0.15157 0.3513 0.0
H266 H 0.17288 0.1818 0.39498 0.0
H267 H 0.1408 0.14809 0.42629 0.0
H268 H 0.21077 0.74933 0.78708 0.0
H269 H 0.23909 0.77187 0.8276 0.0
H270 H 0.2262 0.85431 0.80074 0.0
H271 H 0.19902 0.83229 0.7598 0.0
H272 H 0.28553 0.85269 0.80998 0.0
H273 H 0.21403 0.80686 0.8999 0.0
H274 H 0.2223 0.7813 0.87529 0.0
H275 H 0.19991 0.80588 0.86464 0.0
C276 C 0.2137 0.77222 0.79 0.0
C277 C 0.20261 0.789 0.77021 0.0
C278 C 0.22963 0.785 0.81329 0.0
C279 C 0.2345 0.8147 0.81724 0.0
C280 C 0.22251 0.83131 0.79811 0.0
H281 H 0.30663 0.92946 0.94893 0.0
H282 H 0.27516 0.89604 0.91697 0.0
C283 C 0.20673 0.81862 0.77484 0.0
C284 C 0.25436 0.82905 0.83972 0.0
H285 H 0.26163 0.83602 0.91042 0.0
C286 C 0.28038 0.84899 0.83196 0.0
C287 C 0.24745 0.82416 0.8683 0.0
C288 C 0.2193 0.80356 0.87767 0.0
C289 C 0.29949 0.86461 0.85199 0.0
C290 C 0.29272 0.85967 0.88061 0.0
C291 C 0.26687 0.83947 0.88844 0.0
C292 C 0.31111 0.87695 0.90248 0.0
C293 C 0.32617 0.88703 0.84228 0.0
C294 C 0.34151 0.87659 0.90555 0.0
C295 C 0.35966 0.89595 0.92351 0.0
C296 C 0.3476 0.91583 0.93883 0.0
C297 C 0.31671 0.91484 0.93696 0.0
C298 C 0.29864 0.89559 0.91892 0.0
H299 H 0.32443 0.89244 0.81988 0.0
H300 H 0.32854 0.90696 0.85474 0.0
H301 H 0.34684 0.8788 0.84503 0.0
H302 H 0.35141 0.86203 0.89332 0.0
H303 H 0.38336 0.89619 0.92441 0.0
H304 H 0.61641 0.34733 0.77916 0.0
H305 H 0.59856 0.36928 0.73815 0.0
H306 H 0.62714 0.4527 0.77551 0.0
H307 H 0.64467 0.43102 0.8166 0.0
H308 H 0.55609 0.40318 0.73313 0.0
H309 H 0.66778 0.46437 0.69919 0.0
H310 H 0.6632 0.43595 0.72467 0.0
H311 H 0.65859 0.47093 0.73467 0.0
C312 C 0.6187 0.37033 0.77881 0.0
C313 C 0.63235 0.38733 0.80126 0.0
C314 C 0.60861 0.38289 0.75522 0.0
C315 C 0.61204 0.41277 0.75336 0.0
C316 C 0.62495 0.42971 0.77599 0.0
H317 H 0.56668 0.52939 0.62723 0.0
H318 H 0.58464 0.50821 0.66874 0.0
C319 C 0.63499 0.4172 0.79956 0.0
C320 C 0.60174 0.4262 0.72801 0.0
H321 H 0.62573 0.47434 0.67547 0.0
C322 C 0.57137 0.41862 0.72046 0.0
C323 C 0.62156 0.44653 0.71145 0.0
C324 C 0.65465 0.45479 0.71768 0.0
C325 C 0.56022 0.43108 0.69724 0.0
C326 C 0.58007 0.4513 0.68056 0.0
C327 C 0.61044 0.45893 0.68817 0.0
C328 C 0.56982 0.46433 0.65493 0.0
C329 C 0.52707 0.42294 0.69123 0.0
C330 C 0.55614 0.44691 0.6329 0.0
C331 C 0.54581 0.45894 0.6092 0.0
C332 C 0.54912 0.48882 0.60667 0.0
C333 C 0.56365 0.50634 0.62839 0.0
C334 C 0.57393 0.49422 0.6522 0.0
H335 H 0.51402 0.41423 0.71006 0.0
H336 H 0.51867 0.4416 0.68352 0.0
H337 H 0.52282 0.40608 0.67492 0.0
H338 H 0.5534 0.42388 0.63401 0.0
H339 H 0.53507 0.44468 0.59288 0.0
H340 H 0.83612 0.63825 0.27937 0.0
H341 H 0.85455 0.61686 0.23875 0.0
H342 H 0.94524 0.65745 0.26081 0.0
H343 H 0.92728 0.67686 0.30286 0.0
H344 H 0.88205 0.63668 0.19403 0.0
H345 H 0.95705 0.57912 0.2493 0.0
H346 H 0.93141 0.59627 0.26765 0.0
H347 H 0.96717 0.61684 0.25598 0.0
C348 C 0.86008 0.64216 0.27613 0.0
C349 C 0.88007 0.65911 0.29504 0.0
C350 C 0.87062 0.63012 0.2525 0.0
C351 C 0.90145 0.63486 0.24677 0.0
C352 C 0.92142 0.65257 0.26501 0.0
H353 H 0.96999 0.60028 0.08143 0.0
H354 H 0.95103 0.62216 0.12179 0.0
C355 C 0.91096 0.6642 0.28895 0.0
C356 C 0.91245 0.6216 0.22155 0.0
H357 H 0.96226 0.58218 0.19992 0.0
C358 C 0.89948 0.62462 0.19541 0.0
C359 C 0.93486 0.60535 0.22312 0.0
C360 C 0.94818 0.59892 0.25056 0.0
C361 C 0.90832 0.61218 0.17103 0.0
C362 C 0.93174 0.5971 0.17239 0.0
C363 C 0.94456 0.59393 0.19857 0.0
C364 C 0.94289 0.58381 0.14726 0.0
C365 C 0.89164 0.61462 0.1443 0.0
C366 C 0.94574 0.55513 0.14806 0.0
C367 C 0.95738 0.5428 0.12523 0.0
C368 C 0.96617 0.55869 0.10076 0.0
C369 C 0.96302 0.58727 0.09976 0.0
C370 C 0.95193 0.59978 0.12286 0.0
H371 H 0.86878 0.61798 0.14852 0.0
H372 H 0.90389 0.63338 0.13228 0.0
H373 H 0.8896 0.59516 0.1312 0.0
H374 H 0.93904 0.54219 0.16649 0.0
H375 H 0.95948 0.52075 0.12677 0.0
H376 H 0.3521 0.24842 0.15285 0.0
H377 H 0.38074 0.21617 0.13227 0.0
H378 H 0.43394 0.22123 0.20707 0.0
H379 H 0.40556 0.2539 0.22782 0.0
H380 H 0.44351 0.22109 0.12284 0.0
H381 H 0.39474 0.13487 0.19816 0.0
H382 H 0.37954 0.16628 0.19326 0.0
H383 H 0.41322 0.16855 0.21315 0.0
C384 C 0.37037 0.24329 0.16471 0.0
C385 C 0.37649 0.25365 0.19204 0.0
C386 C 0.38659 0.2247 0.15296 0.0
C387 C 0.4091 0.21603 0.16833 0.0
C388 C 0.41628 0.22734 0.19508 0.0
H389 H 0.52446 0.10994 0.09782 0.0
H390 H 0.50666 0.14804 0.122 0.0
C391 C 0.40007 0.24597 0.20687 0.0
C392 C 0.42378 0.19394 0.15677 0.0
H393 H 0.42874 0.12428 0.165 0.0
C394 C 0.44055 0.19998 0.13214 0.0
C395 C 0.41943 0.16635 0.16883 0.0
C396 C 0.40058 0.15839 0.19468 0.0
C397 C 0.45296 0.17903 0.11906 0.0
C398 C 0.44866 0.15147 0.13117 0.0
C399 C 0.43213 0.14552 0.15594 0.0
C400 C 0.4597 0.12801 0.11759 0.0
C401 C 0.46966 0.1862 0.09192 0.0
C402 C 0.43917 0.10379 0.10784 0.0
C403 C 0.44922 0.08192 0.09413 0.0
C404 C 0.48003 0.08382 0.09005 0.0
C405 C 0.50057 0.10783 0.1005 0.0
C406 C 0.49047 0.12972 0.11419 0.0
H407 H 0.46577 0.20632 0.08258 0.0
H408 H 0.49404 0.18898 0.09575 0.0
H409 H 0.46285 0.16856 0.0766 0.0
H410 H 0.41531 0.10206 0.1104 0.0
H411 H 0.43278 0.06373 0.08643 0.0
H412 H 0.15899 0.79903 0.65101 0.0
H413 H 0.12725 0.82845 0.63049 0.0
H414 H 0.07225 0.81751 0.70448 0.0
H415 H 0.10382 0.78771 0.72517 0.0
H416 H 0.06386 0.81928 0.62033 0.0
H417 H 0.10497 0.9052 0.6984 0.0
H418 H 0.1231 0.87573 0.69304 0.0
H419 H 0.08836 0.87024 0.71184 0.0
C420 C 0.1397 0.80221 0.66266 0.0
C421 C 0.13405 0.79119 0.68981 0.0
C422 C 0.12167 0.81918 0.65096 0.0
C423 C 0.09777 0.82553 0.66619 0.0
C424 C 0.09096 0.81326 0.69263 0.0
H425 H 1.00361 0.96041 0.61768 0.0
H426 H 0.01623 0.92031 0.64345 0.0
C427 C 0.10898 0.79625 0.70437 0.0
C428 C 0.08144 0.84652 0.65491 0.0
H429 H 0.07355 0.91539 0.66295 0.0
C430 C 0.06563 0.84016 0.62981 0.0
C431 C 0.08371 0.8737 0.66743 0.0
C432 C 0.10108 0.88187 0.69407 0.0
C433 C 0.05278 0.86062 0.61643 0.0
C434 C 0.05636 0.88825 0.62823 0.0
C435 C 0.07089 0.89416 0.654 0.0
C436 C 0.04801 0.9121 0.61276 0.0
C437 C 0.03596 0.85265 0.5895 0.0
C438 C 0.06221 0.92107 0.58738 0.0
C439 C 0.05526 0.94393 0.57276 0.0
C440 C 0.03401 0.95845 0.58328 0.0
C441 C 0.02006 0.94969 0.60898 0.0
C442 C 0.02715 0.92675 0.62369 0.0
H443 H 0.02722 0.82914 0.58792 0.0
H444 H 0.01695 0.8635 0.58758 0.0
H445 H 0.05139 0.85939 0.57167 0.0
H446 H 0.07892 0.9105 0.57893 0.0
H447 H 0.06657 0.9501 0.55313 0.0
H448 H 0.73008 0.35339 0.87836 0.0
H449 H 0.77504 0.37658 0.90403 0.0
H450 H 0.74723 0.45694 0.90061 0.0
H451 H 0.70175 0.43367 0.87528 0.0
H452 H 0.82134 0.4232 0.88946 0.0
H453 H 0.76125 0.44596 0.98471 0.0
H454 H 0.74353 0.4213 0.95808 0.0
H455 H 0.74905 0.45924 0.95266 0.0
C456 C 0.73346 0.376 0.88312 0.0
C457 C 0.71215 0.39162 0.875 0.0
C458 C 0.75925 0.38925 0.89771 0.0
C459 C 0.76427 0.41838 0.9047 0.0
C460 C 0.74355 0.43431 0.89589 0.0
H461 H 0.93247 0.52339 0.96401 0.0
H462 H 0.88653 0.50304 0.93869 0.0
C463 C 0.71774 0.42106 0.88115 0.0
C464 C 0.79124 0.43186 0.92121 0.0
H465 H 0.81377 0.46396 0.98372 0.0
C466 C 0.81968 0.43217 0.91004 0.0
C467 C 0.78906 0.44315 0.94826 0.0
C468 C 0.75912 0.44226 0.96184 0.0
C469 C 0.84597 0.44376 0.925 0.0
C470 C 0.84382 0.45565 0.95178 0.0
C471 C 0.81539 0.45503 0.96313 0.0
C472 C 0.87094 0.46885 0.9682 0.0
C473 C 0.87585 0.44273 0.91221 0.0
C474 C 0.87704 0.45697 0.99379 0.0
C475 C 0.90342 0.46863 1.0085 0.0
C476 C 0.92409 0.49251 0.99794 0.0
C477 C 0.9173 0.50485 0.97274 0.0
C478 C 0.89104 0.49318 0.95809 0.0
H479 H 0.87351 0.4269 0.89494 0.0
H480 H 0.88625 0.46411 0.90357 0.0
H481 H 0.89128 0.43719 0.92813 0.0
H482 H 0.86173 0.43828 1.00207 0.0
H483 H 0.90782 0.4586 1.02784 0.0
H484 H 0.78572 0.68922 0.37961 0.0
H485 H 0.74163 0.66452 0.40548 0.0
H486 H 0.76865 0.58438 0.39477 0.0
H487 H 0.81363 0.60921 0.36972 0.0
H488 H 0.69489 0.62165 0.39 0.0
H489 H 0.75554 0.58532 0.47854 0.0
H490 H 0.77399 0.61146 0.45346 0.0
H491 H 0.76539 0.57402 0.44475 0.0
C492 C 0.78254 0.66638 0.38299 0.0
C493 C 0.80355 0.65132 0.37284 0.0
C494 C 0.75714 0.65223 0.39765 0.0
C495 C 0.752 0.62264 0.40261 0.0
C496 C 0.77241 0.60732 0.39182 0.0
H497 H 0.60377 0.51093 0.49325 0.0
H498 H 0.64901 0.52902 0.46546 0.0
C499 C 0.79796 0.6215 0.37715 0.0
C500 C 0.72508 0.60813 0.41885 0.0
H501 H 0.70275 0.57051 0.47878 0.0
C502 C 0.69666 0.61044 0.40938 0.0
C503 C 0.72728 0.59336 0.44414 0.0
C504 C 0.75717 0.59103 0.45603 0.0
C505 C 0.67051 0.59862 0.42449 0.0
C506 C 0.67275 0.58441 0.45005 0.0
C507 C 0.70106 0.58145 0.45923 0.0
C508 C 0.64604 0.57344 0.46793 0.0
C509 C 0.64062 0.60134 0.41288 0.0
C510 C 0.62974 0.59243 0.47917 0.0
C511 C 0.60398 0.58222 0.49513 0.0
C512 C 0.59391 0.55272 0.50032 0.0
C513 C 0.61079 0.53377 0.48969 0.0
C514 C 0.63667 0.54406 0.47376 0.0
H515 H 0.64187 0.60577 0.3901 0.0
H516 H 0.62323 0.58154 0.41669 0.0
H517 H 0.63344 0.61939 0.42336 0.0
H518 H 0.63685 0.61524 0.47544 0.0
H519 H 0.59172 0.5975 0.50303 0.0
H520 H 0.30286 0.35102 0.21771 0.0
H521 H 0.26645 0.37221 0.19282 0.0
H522 H 0.27045 0.31693 0.12253 0.0
H523 H 0.30547 0.29446 0.14781 0.0
H524 H 0.26286 0.3993 0.14265 0.0
H525 H 0.18329 0.29325 0.1457 0.0
H526 H 0.2181 0.30046 0.16474 0.0
H527 H 0.21781 0.29334 0.12788 0.0
C528 C 0.29617 0.3435 0.19686 0.0
C529 C 0.30662 0.32062 0.18503 0.0
C530 C 0.27552 0.35578 0.18259 0.0
C531 C 0.26515 0.34556 0.15617 0.0
C532 C 0.27762 0.32461 0.14322 0.0
H533 H 0.11203 0.37905 0.06265 0.0
H534 H 0.15884 0.3649 0.07483 0.0
C535 C 0.29801 0.31207 0.15759 0.0
C536 C 0.23947 0.35504 0.14345 0.0
H537 H 0.16641 0.33095 0.12418 0.0
C538 C 0.24184 0.38435 0.13843 0.0
C539 C 0.21196 0.33547 0.13816 0.0
C540 C 0.20742 0.30392 0.14461 0.0
C541 C 0.21734 0.39464 0.12844 0.0
C542 C 0.18985 0.3751 0.12353 0.0
C543 C 0.18766 0.34577 0.12786 0.0
C544 C 0.16248 0.38474 0.1156 0.0
C545 C 0.2209 0.42631 0.12338 0.0
C546 C 0.14898 0.40019 0.13469 0.0
C547 C 0.12223 0.40805 0.12792 0.0
C548 C 0.10856 0.40063 0.1019 0.0
C549 C 0.12219 0.38519 0.08277 0.0
C550 C 0.14885 0.37711 0.08967 0.0
H551 H 0.24484 0.43748 0.12187 0.0
H552 H 0.20925 0.43022 0.10392 0.0
H553 H 0.21067 0.43583 0.14098 0.0
H554 H 0.15896 0.40586 0.15497 0.0
H555 H 0.11241 0.42023 0.14293 0.0
H556 H 0.63147 0.32424 0.91647 0.0
H557 H 0.61131 0.27822 0.93868 0.0
H558 H 0.59186 0.23902 0.85784 0.0
H559 H 0.61325 0.28513 0.83531 0.0
H560 H 0.55753 0.24271 0.93873 0.0
H561 H 0.64044 0.18693 0.8928 0.0
H562 H 0.64434 0.22519 0.89033 0.0
H563 H 0.61905 0.20163 0.86753 0.0
C564 C 0.62305 0.30583 0.90332 0.0
C565 C 0.6245 0.30836 0.87403 0.0
C566 C 0.61135 0.27949 0.9161 0.0
C567 C 0.60065 0.25485 0.90004 0.0
C568 C 0.60069 0.25749 0.87076 0.0
H569 H 0.49667 0.09702 0.97466 0.0
H570 H 0.51353 0.14085 0.94773 0.0
C571 C 0.61254 0.28397 0.85788 0.0
C572 C 0.58975 0.22666 0.91427 0.0
H573 H 0.60217 0.15894 0.9206 0.0
C574 C 0.56725 0.22438 0.93466 0.0
C575 C 0.60276 0.20279 0.90944 0.0
C576 C 0.62818 0.20421 0.88905 0.0
C577 C 0.5574 0.19911 0.95021 0.0
C578 C 0.56984 0.175 0.94488 0.0
C579 C 0.59242 0.17727 0.92457 0.0
C580 C 0.55991 0.14743 0.96038 0.0
C581 C 0.53438 0.19885 0.97284 0.0
C582 C 0.5805 0.13568 0.97574 0.0
C583 C 0.57095 0.11026 0.99104 0.0
C584 C 0.54057 0.09599 0.99126 0.0
C585 C 0.52018 0.1075 0.9753 0.0
C586 C 0.52976 0.13274 0.95994 0.0
H587 H 0.53364 0.22088 0.97965 0.0
H588 H 0.51189 0.18859 0.96471 0.0
H589 H 0.53906 0.18655 0.99133 0.0
H590 H 0.60393 0.14647 0.97632 0.0
H591 H 0.58731 0.10207 1.00303 0.0
H592 H 0.88277 0.72237 0.41184 0.0
H593 H 0.90463 0.76864 0.43267 0.0
H594 H 0.92412 0.8052 0.35071 0.0
H595 H 0.90056 0.75915 0.32956 0.0
H596 H 0.95889 0.80186 0.43189 0.0
H597 H 0.88073 0.86157 0.3836 0.0
H598 H 0.87472 0.8231 0.38179 0.0
H599 H 0.90114 0.84525 0.35876 0.0
C600 C 0.89129 0.74029 0.39812 0.0
C601 C 0.88927 0.73698 0.36891 0.0
C602 C 0.90409 0.76678 0.41013 0.0
C603 C 0.91549 0.79076 0.39337 0.0
C604 C 0.91475 0.78732 0.36419 0.0
H605 H 1.00167 0.96597 0.44632 0.0
H606 H 0.98539 0.92195 0.41889 0.0
C607 C 0.90164 0.76078 0.35209 0.0
C608 C 0.92802 0.8191 0.40675 0.0
H609 H 0.92001 0.8885 0.41095 0.0
C610 C 0.95038 0.82077 0.4272 0.0
C611 C 0.91696 0.84394 0.4008 0.0
C612 C 0.89188 0.84342 0.38025 0.0
C613 C 0.9617 0.84629 0.44191 0.0
C614 C 0.95048 0.87093 0.43609 0.0
C615 C 0.92867 0.86959 0.41527 0.0
C616 C 0.96008 0.89781 0.45247 0.0
C617 C 0.98553 0.84678 0.46374 0.0
C618 C 0.95096 0.89896 0.48032 0.0
C619 C 0.95995 0.92409 0.49595 0.0
C620 C 0.97849 0.94867 0.48414 0.0
C621 C 0.98748 0.94748 0.45613 0.0
C622 C 0.97818 0.92235 0.4404 0.0
H623 H 0.9958 0.82785 0.4622 0.0
H624 H 1.00343 0.86654 0.46179 0.0
H625 H 0.97538 0.84683 0.48478 0.0
H626 H 0.93679 0.88035 0.48998 0.0
H627 H 0.95258 0.92411 0.51744 0.0
H628 H 0.21321 0.75674 0.64737 0.0
H629 H 0.24914 0.734 0.62347 0.0
H630 H 0.25285 0.68131 0.69585 0.0
H631 H 0.21603 0.70301 0.71935 0.0
H632 H 0.30546 0.73848 0.64123 0.0
H633 H 0.25056 0.62367 0.63454 0.0
H634 H 0.22996 0.65093 0.64206 0.0
H635 H 0.24964 0.63696 0.66943 0.0
C636 C 0.22085 0.73959 0.65781 0.0
C637 C 0.21182 0.73171 0.6853 0.0
C638 C 0.24157 0.72677 0.6442 0.0
C639 C 0.25352 0.70578 0.65776 0.0
C640 C 0.24351 0.697 0.68471 0.0
H641 H 0.40911 0.63485 0.6494 0.0
H642 H 0.36383 0.6517 0.66128 0.0
C643 C 0.22271 0.70967 0.69826 0.0
C644 C 0.2789 0.69551 0.64526 0.0
H645 H 0.30454 0.63512 0.63132 0.0
C646 C 0.30506 0.71589 0.63857 0.0
C647 C 0.27841 0.66604 0.64187 0.0
C648 C 0.2505 0.64318 0.64709 0.0
C649 C 0.33112 0.70755 0.62975 0.0
C650 C 0.33092 0.6781 0.62746 0.0
C651 C 0.30459 0.65771 0.63334 0.0
C652 C 0.35824 0.66809 0.62002 0.0
C653 C 0.35906 0.7302 0.62397 0.0
C654 C 0.36996 0.67178 0.5929 0.0
C655 C 0.39583 0.66225 0.58607 0.0
C656 C 0.41043 0.64895 0.60631 0.0
C657 C 0.39862 0.64539 0.63349 0.0
C658 C 0.37265 0.65477 0.64024 0.0
H659 H 0.3567 0.75186 0.63055 0.0
H660 H 0.37856 0.72499 0.63495 0.0
H661 H 0.36391 0.73079 0.60126 0.0
H662 H 0.35899 0.68191 0.57701 0.0
H663 H 0.4045 0.6654 0.565 0.0
H664 H 0.7087 0.74179 0.77709 0.0
H665 H 0.73705 0.75908 0.73458 0.0
H666 H 0.73207 0.84561 0.75498 0.0
H667 H 0.70469 0.82892 0.7975 0.0
H668 H 0.72418 0.80038 0.6872 0.0
H669 H 0.82443 0.839 0.7535 0.0
H670 H 0.79302 0.81135 0.76465 0.0
H671 H 0.79063 0.8483 0.76574 0.0
C672 C 0.71331 0.76445 0.77228 0.0
C673 C 0.70448 0.78396 0.79074 0.0
C674 C 0.72933 0.77422 0.74797 0.0
C675 C 0.73672 0.80358 0.74193 0.0
C676 C 0.72653 0.82285 0.75943 0.0
H677 H 0.8056 0.92341 0.61792 0.0
H678 H 0.77478 0.88593 0.64627 0.0
C679 C 0.71063 0.81319 0.78362 0.0
C680 C 0.75732 0.81487 0.71891 0.0
H681 H 0.82607 0.85789 0.70746 0.0
C682 C 0.74668 0.81254 0.69141 0.0
C683 C 0.78676 0.83021 0.72455 0.0
C684 C 0.79959 0.83223 0.75367 0.0
C685 C 0.76427 0.8268 0.66949 0.0
C686 C 0.79287 0.84409 0.67552 0.0
C687 C 0.8041 0.84479 0.70281 0.0
C688 C 0.81041 0.86391 0.6548 0.0
C689 C 0.75186 0.8236 0.64024 0.0
C690 C 0.84078 0.86418 0.65027 0.0
C691 C 0.85867 0.88604 0.6346 0.0
C692 C 0.8465 0.90809 0.62322 0.0
C693 C 0.81576 0.90699 0.62673 0.0
C694 C 0.79795 0.88525 0.64253 0.0
H695 H 0.73603 0.80258 0.63748 0.0
H696 H 0.73929 0.84057 0.63631 0.0
H697 H 0.76998 0.8256 0.62446 0.0
H698 H 0.85091 0.84808 0.65979 0.0
H699 H 0.88231 0.88638 0.63255 0.0
H700 H 0.81554 0.30181 0.27739 0.0
H701 H 0.78848 0.2812 0.23536 0.0
H702 H 0.79289 0.19657 0.26315 0.0
H703 H 0.81916 0.21672 0.30529 0.0
H704 H 0.80211 0.23921 0.19189 0.0
H705 H 0.7012 0.19993 0.25736 0.0
H706 H 0.73216 0.22792 0.26867 0.0
H707 H 0.73499 0.1911 0.27014 0.0
C708 C 0.81104 0.27884 0.27433 0.0
C709 C 0.81938 0.26089 0.29472 0.0
C710 C 0.79577 0.26716 0.2503 0.0
C711 C 0.78854 0.23742 0.24642 0.0
C712 C 0.79822 0.2196 0.26593 0.0
H713 H 0.7172 0.11687 0.12103 0.0
H714 H 0.74961 0.15309 0.14961 0.0
C715 C 0.81346 0.2312 0.28988 0.0
C716 C 0.76871 0.22454 0.22339 0.0
H717 H 0.70009 0.18149 0.21132 0.0
C718 C 0.77966 0.22684 0.19596 0.0
C719 C 0.7393 0.20894 0.22883 0.0
C720 C 0.72601 0.20696 0.25779 0.0
C721 C 0.7623 0.21266 0.17388 0.0
C722 C 0.73353 0.19559 0.17963 0.0
C723 C 0.72217 0.1945 0.20691 0.0
C724 C 0.7155 0.17687 0.15842 0.0
C725 C 0.77497 0.21591 0.14472 0.0
C726 C 0.68557 0.17822 0.15374 0.0
C727 C 0.66681 0.15721 0.13784 0.0
C728 C 0.67764 0.13437 0.12641 0.0
C729 C 0.70808 0.13399 0.12985 0.0
C730 C 0.72678 0.15494 0.14584 0.0
H731 H 0.79178 0.23639 0.14231 0.0
H732 H 0.78638 0.19816 0.14041 0.0
H733 H 0.75705 0.21512 0.12893 0.0
H734 H 0.67636 0.19485 0.16345 0.0
H735 H 0.64343 0.158 0.13586 0.0
H736 H 0.42751 0.67042 0.26761 0.0
H737 H 0.44528 0.6496 0.30927 0.0
H738 H 0.35421 0.62093 0.33761 0.0
H739 H 0.33627 0.64168 0.29608 0.0
H740 H 0.43971 0.65974 0.36522 0.0
H741 H 0.38436 0.54737 0.34089 0.0
H742 H 0.3876 0.57586 0.31566 0.0
H743 H 0.359 0.57112 0.34209 0.0
C744 C 0.41122 0.65988 0.28278 0.0
C745 C 0.38037 0.65761 0.27823 0.0
C746 C 0.42145 0.64786 0.3066 0.0
C747 C 0.40112 0.63316 0.32646 0.0
C748 C 0.37037 0.63145 0.32232 0.0
H749 H 0.44954 0.58656 0.49529 0.0
H750 H 0.42976 0.60848 0.45533 0.0
C751 C 0.36012 0.64339 0.2985 0.0
C752 C 0.4121 0.61977 0.35148 0.0
H753 H 0.40668 0.556 0.38563 0.0
C754 C 0.43249 0.63705 0.36966 0.0
C755 C 0.40304 0.59006 0.35721 0.0
C756 C 0.38253 0.56993 0.33782 0.0
C757 C 0.44376 0.62559 0.39343 0.0
C758 C 0.43406 0.59602 0.39956 0.0
C759 C 0.41391 0.5787 0.38121 0.0
C760 C 0.44542 0.58238 0.42423 0.0
C761 C 0.46657 0.64516 0.41134 0.0
C762 C 0.46002 0.55973 0.42035 0.0
C763 C 0.47113 0.54698 0.44319 0.0
C764 C 0.46783 0.55643 0.47062 0.0
C765 C 0.45268 0.57877 0.47453 0.0
C766 C 0.44152 0.59151 0.45162 0.0
H767 H 0.47736 0.66502 0.40003 0.0
H768 H 0.45527 0.65146 0.43006 0.0
H769 H 0.48428 0.63422 0.41843 0.0
H770 H 0.46323 0.55213 0.39952 0.0
H771 H 0.4826 0.52984 0.43923 0.0
H772 H 0.12103 0.3485 0.79649 0.0
H773 H 0.10263 0.37053 0.83711 0.0
H774 H 0.12571 0.45302 0.79693 0.0
H775 H 0.14273 0.43106 0.75583 0.0
H776 H 0.13153 0.41099 0.87275 0.0
H777 H 0.04149 0.45222 0.82079 0.0
H778 H 0.0601 0.42715 0.80409 0.0
H779 H 0.07735 0.46477 0.80469 0.0
C780 C 0.1217 0.37124 0.79601 0.0
C781 C 0.13339 0.38785 0.77261 0.0
C782 C 0.11137 0.3839 0.81944 0.0
C783 C 0.11227 0.41346 0.8201 0.0
C784 C 0.12406 0.4301 0.79687 0.0
H785 H 0.06782 0.53105 0.94578 0.0
H786 H 0.08704 0.50975 0.90497 0.0
C787 C 0.13426 0.41749 0.77342 0.0
C788 C 0.10174 0.42702 0.84532 0.0
H789 H 0.05427 0.46901 0.86691 0.0
C790 C 0.11451 0.42352 0.87144 0.0
C791 C 0.07953 0.44351 0.84383 0.0
C792 C 0.0636 0.44693 0.8169 0.0
C793 C 0.10611 0.43634 0.89579 0.0
C794 C 0.08404 0.45293 0.89423 0.0
C795 C 0.07131 0.45649 0.86816 0.0
C796 C 0.07323 0.46604 0.91951 0.0
C797 C 0.12137 0.43243 0.92296 0.0
C798 C 0.0589 0.44866 0.94131 0.0
C799 C 0.04784 0.46076 0.96461 0.0
C800 C 0.05074 0.49062 0.96678 0.0
C801 C 0.0653 0.50804 0.94499 0.0
C802 C 0.07623 0.49586 0.92155 0.0
H803 H 0.1429 0.42583 0.91949 0.0
H804 H 0.12578 0.45248 0.93542 0.0
H805 H 0.10657 0.41545 0.93537 0.0
H806 H 0.05578 0.4256 0.94011 0.0
H807 H 0.03674 0.44657 0.98085 0.0
H808 H 0.62228 0.77064 0.90163 0.0
H809 H 0.59508 0.80263 0.92536 0.0
H810 H 0.63771 0.87217 0.87186 0.0
H811 H 0.66582 0.84103 0.8491 0.0
H812 H 0.6419 0.88692 0.92613 0.0
H813 H 0.52422 0.83547 0.90003 0.0
H814 H 0.54498 0.81186 0.91588 0.0
H815 H 0.55583 0.82688 0.88207 0.0
C816 C 0.62576 0.79272 0.8949 0.0
C817 C 0.64602 0.80314 0.87326 0.0
C818 C 0.60993 0.81088 0.90824 0.0
C819 C 0.61399 0.83966 0.90003 0.0
C820 C 0.63398 0.84997 0.87832 0.0
H821 H 0.51694 0.96874 0.9535 0.0
H822 H 0.53668 0.93345 0.92631 0.0
C823 C 0.64986 0.83199 0.86516 0.0
C824 C 0.59934 0.85982 0.91526 0.0
H825 H 0.5315 0.87313 0.93356 0.0
C826 C 0.61775 0.88394 0.92765 0.0
C827 C 0.56785 0.85608 0.9169 0.0
C828 C 0.547 0.83133 0.90281 0.0
C829 C 0.6056 0.90424 0.94196 0.0
C830 C 0.57414 0.89999 0.94451 0.0
C831 C 0.55562 0.87616 0.93173 0.0
C832 C 0.56035 0.91983 0.96105 0.0
C833 C 0.6266 0.93025 0.95397 0.0
C834 C 0.56656 0.92327 0.98961 0.0
C835 C 0.55561 0.94343 1.00505 0.0
C836 C 0.5379 0.9604 0.9923 0.0
C837 C 0.53067 0.95613 0.96387 0.0
C838 C 0.54185 0.93596 0.94835 0.0
H839 H 0.64892 0.93431 0.9437 0.0
H840 H 0.61724 0.94967 0.95173 0.0
H841 H 0.6299 0.9267 0.97652 0.0
H842 H 0.58027 0.91059 0.99992 0.0
H843 H 0.56125 0.94578 1.02699 0.0
H844 H 0.91375 0.25667 0.34538 0.0
H845 H 0.94233 0.2251 0.3677 0.0
H846 H 0.88259 0.21494 0.43838 0.0
H847 H 0.85372 0.24608 0.41618 0.0
H848 H 0.94539 0.22169 0.45195 0.0
H849 H 0.90475 0.13766 0.37213 0.0
H850 H 0.92309 0.1723 0.35906 0.0
H851 H 0.88792 0.16807 0.37697 0.0
C852 C 0.90688 0.24791 0.3658 0.0
C853 C 0.88133 0.25371 0.37891 0.0
C854 C 0.92322 0.22992 0.37849 0.0
C855 C 0.91425 0.21741 0.40445 0.0
C856 C 0.88982 0.22441 0.4183 0.0
H857 H 0.93585 0.06401 0.48486 0.0
H858 H 0.91939 0.10274 0.46067 0.0
C859 C 0.87346 0.24235 0.40564 0.0
C860 C 0.92887 0.19548 0.41643 0.0
H861 H 0.93659 0.12675 0.40708 0.0
C862 C 0.94376 0.20101 0.44208 0.0
C863 C 0.92627 0.16844 0.40357 0.0
C864 C 0.90947 0.16102 0.37652 0.0
C865 C 0.95596 0.18004 0.45538 0.0
C866 C 0.95334 0.15301 0.44251 0.0
C867 C 0.93872 0.14761 0.41673 0.0
C868 C 0.9639 0.1294 0.4563 0.0
C869 C 0.9706 0.18656 0.48354 0.0
C870 C 0.99447 0.13139 0.46136 0.0
C871 C 1.00401 0.10924 0.47517 0.0
C872 C 0.9831 0.08472 0.48409 0.0
C873 C 0.95255 0.08259 0.47836 0.0
C874 C 0.94308 0.1047 0.46453 0.0
H875 H 0.96579 0.20631 0.49291 0.0
H876 H 0.96289 0.16844 0.49816 0.0
H877 H 0.99523 0.18967 0.4812 0.0
H878 H 0.01091 0.15012 0.45476 0.0
H879 H 0.02772 0.11154 0.47916 0.0
H880 H 0.32469 0.6584 0.15746 0.0
H881 H 0.27941 0.63525 0.13244 0.0
H882 H 0.23504 0.6094 0.21065 0.0
H883 H 0.28001 0.63365 0.23598 0.0
H884 H 0.24749 0.58043 0.1302 0.0
H885 H 0.17681 0.65051 0.17368 0.0
H886 H 0.21693 0.6582 0.17797 0.0
H887 H 0.1934 0.63175 0.19957 0.0
C888 C 0.30524 0.64804 0.16944 0.0
C889 C 0.30595 0.64836 0.19883 0.0
C890 C 0.27939 0.63457 0.15504 0.0
C891 C 0.25352 0.62102 0.16959 0.0
C892 C 0.25445 0.62026 0.19892 0.0
H893 H 0.09786 0.5116 0.08715 0.0
H894 H 0.14337 0.52911 0.11441 0.0
C895 C 0.28035 0.63385 0.21339 0.0
C896 C 0.22564 0.6082 0.15387 0.0
H897 H 0.15268 0.61255 0.14464 0.0
C898 C 0.22673 0.5874 0.13341 0.0
C899 C 0.19862 0.61756 0.15772 0.0
C900 C 0.1963 0.64091 0.17822 0.0
C901 C 0.20168 0.57578 0.11674 0.0
C902 C 0.17449 0.58476 0.12095 0.0
C903 C 0.1734 0.6055 0.14147 0.0
C904 C 0.14717 0.57373 0.10377 0.0
C905 C 0.20491 0.55467 0.09418 0.0
C906 C 0.13366 0.59292 0.08903 0.0
C907 C 0.10742 0.583 0.07365 0.0
C908 C 0.09399 0.5536 0.07261 0.0
C909 C 0.1077 0.53436 0.0872 0.0
C910 C 0.13387 0.54434 0.10274 0.0
H911 H 0.22877 0.5561 0.08861 0.0
H912 H 0.19556 0.53261 0.10176 0.0
H913 H 0.19256 0.55824 0.07505 0.0
H914 H 0.14339 0.61569 0.0895 0.0
H915 H 0.09754 0.59848 0.06277 0.0
H916 H 0.23607 0.40637 0.73093 0.0
H917 H 0.28116 0.42938 0.70477 0.0
H918 H 0.23337 0.40848 0.62741 0.0
H919 H 0.18832 0.38571 0.65333 0.0
H920 H 0.311 0.40132 0.66303 0.0
H921 H 0.27302 0.49532 0.62043 0.0
H922 H 0.25539 0.47521 0.65015 0.0
H923 H 0.24753 0.4613 0.61551 0.0
C924 C 0.23507 0.40711 0.70837 0.0
C925 C 0.20862 0.3942 0.69421 0.0
C926 C 0.26087 0.42009 0.69345 0.0
C927 C 0.26058 0.42082 0.66413 0.0
C928 C 0.23405 0.40847 0.65 0.0
H929 H 0.41246 0.45022 0.54846 0.0
H930 H 0.36547 0.43055 0.57327 0.0
C931 C 0.20837 0.3953 0.66486 0.0
C932 C 0.28829 0.43333 0.64821 0.0
H933 H 0.31867 0.48682 0.6026 0.0
C934 C 0.31272 0.42004 0.64986 0.0
C935 C 0.29054 0.45783 0.63112 0.0
C936 C 0.26536 0.47347 0.62926 0.0
C937 C 0.33917 0.43038 0.63461 0.0
C938 C 0.3412 0.45454 0.6171 0.0
C939 C 0.31694 0.46809 0.61577 0.0
C940 C 0.36887 0.46679 0.601 0.0
C941 C 0.36497 0.41567 0.63765 0.0
C942 C 0.38596 0.49397 0.60786 0.0
C943 C 0.41277 0.50521 0.59381 0.0
C944 C 0.42299 0.48965 0.57233 0.0
C945 C 0.40531 0.46278 0.56487 0.0
C946 C 0.37853 0.45143 0.57914 0.0
H947 H 0.362 0.40088 0.65581 0.0
H948 H 0.36666 0.40303 0.61854 0.0
H949 H 0.38641 0.43167 0.64011 0.0
H950 H 0.37887 0.50627 0.62453 0.0
H951 H 0.42564 0.52607 0.60002 0.0
H952 H 0.72639 0.76786 0.9134 0.0
H953 H 0.76367 0.74585 0.93625 0.0
H954 H 0.74918 0.67903 0.87424 0.0
H955 H 0.71158 0.70062 0.85146 0.0
H956 H 0.76041 0.67516 0.94952 0.0
H957 H 0.84178 0.73692 0.87323 0.0
H958 H 0.80978 0.74992 0.8853 0.0
H959 H 0.80453 0.72021 0.86171 0.0
C960 C 0.73036 0.74794 0.9052 0.0
C961 C 0.7162 0.73602 0.88054 0.0
C962 C 0.75174 0.73549 0.9182 0.0
C963 C 0.75913 0.71098 0.90677 0.0
C964 C 0.74366 0.69797 0.8833 0.0
H965 H 0.91254 0.63464 0.91853 0.0
H966 H 0.86788 0.65143 0.90478 0.0
C967 C 0.72232 0.71036 0.8703 0.0
C968 C 0.78542 0.70099 0.91714 0.0
H969 H 0.85963 0.70617 0.90381 0.0
C970 C 0.78218 0.68195 0.93971 0.0
C971 C 0.81359 0.70988 0.90406 0.0
C972 C 0.81794 0.73043 0.87975 0.0
C973 C 0.80655 0.67116 0.94935 0.0
C974 C 0.83485 0.68014 0.93629 0.0
C975 C 0.83796 0.69934 0.91379 0.0
C976 C 0.8615 0.66953 0.94513 0.0
C977 C 0.80159 0.64965 0.97285 0.0
C978 C 0.87297 0.67447 0.97227 0.0
C979 C 0.89852 0.66492 0.98017 0.0
C980 C 0.91326 0.65055 0.96095 0.0
C981 C 0.90191 0.64596 0.93369 0.0
C982 C 0.8763 0.65537 0.92587 0.0
H983 H 0.77748 0.63953 0.97556 0.0
H984 H 0.81411 0.63258 0.96915 0.0
H985 H 0.80978 0.66069 0.99262 0.0
H986 H 0.86237 0.68602 0.98725 0.0
H987 H 0.90698 0.66909 1.00121 0.0
H988 H 0.3842 0.72096 0.16151 0.0
H989 H 0.40506 0.76778 0.14098 0.0
H990 H 0.42135 0.80446 0.2231 0.0
H991 H 0.39956 0.75764 0.24404 0.0
H992 H 0.3811 0.82097 0.15519 0.0
H993 H 0.50274 0.83038 0.17542 0.0
H994 H 0.47689 0.79599 0.173 0.0
H995 H 0.47638 0.81804 0.20313 0.0
C996 C 0.39209 0.73893 0.17533 0.0
C997 C 0.38979 0.73544 0.20453 0.0
C998 C 0.40419 0.76568 0.1635 0.0
C999 C 0.41477 0.78961 0.18047 0.0
C1000 C 0.41351 0.7862 0.2096 0.0
H1001 H 0.4982 0.96546 0.12866 0.0
H1002 H 0.4801 0.92181 0.15608 0.0
C1003 C 0.40115 0.75938 0.22154 0.0
C1004 C 0.4256 0.81824 0.16742 0.0
H1005 H 0.48893 0.86827 0.15117 0.0
C1006 C 0.40466 0.83141 0.15442 0.0
C1007 C 0.45627 0.83194 0.16666 0.0
C1008 C 0.47957 0.81848 0.18016 0.0
C1009 C 0.41356 0.85779 0.1405 0.0
C1010 C 0.44443 0.87105 0.13871 0.0
C1011 C 0.46532 0.85815 0.15234 0.0
C1012 C 0.45547 0.89773 0.1221 0.0
C1013 C 0.38965 0.87134 0.1282 0.0
C1014 C 0.44812 0.89876 0.0937 0.0
C1015 C 0.45816 0.92375 0.07807 0.0
C1016 C 0.47629 0.94828 0.09028 0.0
C1017 C 0.48419 0.94706 0.11858 0.0
C1018 C 0.47389 0.92206 0.13429 0.0
H1019 H 0.36787 0.86396 0.13908 0.0
H1020 H 0.39606 0.89507 0.12937 0.0
H1021 H 0.38627 0.865 0.10596 0.0
H1022 H 0.43475 0.88011 0.08348 0.0
H1023 H 0.45192 0.92367 0.05627 0.0
H1024 H 0.17064 0.29287 0.6978 0.0
H1025 H 0.14884 0.24726 0.67545 0.0
H1026 H 0.06048 0.26338 0.68644 0.0
H1027 H 0.08236 0.3098 0.70803 0.0
H1028 H 0.10933 0.1994 0.69246 0.0
H1029 H 0.06146 0.24832 0.60322 0.0
H1030 H 0.08755 0.26928 0.62742 0.0
H1031 H 0.04879 0.25723 0.63685 0.0
C1032 C 0.14654 0.28683 0.69539 0.0
C1033 C 0.12832 0.30533 0.70433 0.0
C1034 C 0.13407 0.26059 0.68273 0.0
C1035 C 0.10303 0.25203 0.67861 0.0
C1036 C 0.08456 0.26976 0.68871 0.0
H1037 H 0.99565 0.10317 0.59262 0.0
H1038 H 0.01301 0.14641 0.62044 0.0
C1039 C 0.09707 0.29616 0.7014 0.0
C1040 C 0.09044 0.2248 0.66335 0.0
H1041 H 0.05134 0.19779 0.60487 0.0
C1042 C 0.09661 0.19908 0.67333 0.0
C1043 C 0.07391 0.22427 0.63827 0.0
C1044 C 0.06772 0.25125 0.6256 0.0
C1045 C 0.08663 0.17296 0.65912 0.0
C1046 C 0.07035 0.17249 0.63395 0.0
C1047 C 0.06382 0.19811 0.62414 0.0
C1048 C 0.05999 0.14572 0.61738 0.0
C1049 C 0.09328 0.14601 0.6714 0.0
C1050 C 0.0806 0.13092 0.60606 0.0
C1051 C 0.07074 0.10608 0.59004 0.0
C1052 C 0.04001 0.0955 0.58489 0.0
C1053 C 0.01947 0.11049 0.59618 0.0
C1054 C 0.02936 0.13533 0.61211 0.0
H1055 H 0.09881 0.14855 0.69396 0.0
H1056 H 0.07395 0.1276 0.66875 0.0
H1057 H 0.11284 0.1409 0.66047 0.0
H1058 H 0.10441 0.13878 0.60931 0.0
H1059 H 0.08725 0.0953 0.58157 0.0
H1060 H 0.80131 0.28949 0.4167 0.0
H1061 H 0.76392 0.31199 0.43861 0.0
H1062 H 0.76855 0.36907 0.36841 0.0
H1063 H 0.80642 0.34714 0.34654 0.0
H1064 H 0.76306 0.37941 0.44638 0.0
H1065 H 0.67945 0.3115 0.3762 0.0
H1066 H 0.71394 0.3016 0.38596 0.0
H1067 H 0.71459 0.32997 0.36139 0.0
C1068 C 0.79514 0.30746 0.40633 0.0
C1069 C 0.80665 0.31642 0.37977 0.0
C1070 C 0.77369 0.32017 0.41883 0.0
C1071 C 0.76346 0.34195 0.40495 0.0
C1072 C 0.7762 0.35218 0.37931 0.0
H1073 H 0.60639 0.41255 0.42019 0.0
H1074 H 0.65151 0.39727 0.40519 0.0
C1075 C 0.79769 0.33956 0.36684 0.0
C1076 C 0.73723 0.35182 0.41567 0.0
H1077 H 0.66212 0.34377 0.40549 0.0
C1078 C 0.74093 0.37167 0.43758 0.0
C1079 C 0.70857 0.34156 0.404 0.0
C1080 C 0.70361 0.31986 0.38066 0.0
C1081 C 0.71654 0.38203 0.44783 0.0
C1082 C 0.68775 0.37168 0.43619 0.0
C1083 C 0.68418 0.35166 0.41437 0.0
C1084 C 0.66097 0.38161 0.44583 0.0
C1085 C 0.72195 0.40448 0.47047 0.0
C1086 C 0.65114 0.37758 0.47359 0.0
C1087 C 0.62535 0.38633 0.48222 0.0
C1088 C 0.60874 0.39887 0.46312 0.0
C1089 C 0.6185 0.40261 0.43528 0.0
C1090 C 0.64436 0.39406 0.42674 0.0
H1091 H 0.74594 0.41554 0.47174 0.0
H1092 H 0.70838 0.42074 0.46692 0.0
H1093 H 0.71538 0.39406 0.4909 0.0
H1094 H 0.66317 0.36734 0.48849 0.0
H1095 H 0.61815 0.38291 0.50372 0.0
loop_
_geom_bond_atom_site_label_1
_geom_bond_atom_site_label_2
_geom_bond_distance
_geom_bond_site_symmetry_2
_ccdc_geom_bond_type
H0 C3 0.931 . S
H1 C6 0.928 . S
H2 C8 0.930 . S
C3 H0 0.931 . S
C3 C4 1.413 . S
C3 C5 1.360 . S
C4 C3 1.413 . S
C4 C8 1.429 . S
C5 C3 1.360 . S
C5 C6 1.372 . S
C6 H1 0.928 . S
C6 C5 1.372 . S
C6 C7 1.404 . S
C7 C6 1.404 . S
C7 C8 1.391 . S
C8 H2 0.930 . S
C8 C4 1.429 . S
C8 C7 1.391 . S
H9 C12 0.931 . S
H10 C15 0.928 . S
H11 C17 0.930 . S
C12 H9 0.931 . S
C12 C13 1.413 . S
C12 C14 1.360 . S
C13 C12 1.413 . S
C13 C17 1.429 . S
C14 C12 1.360 . S
C14 C15 1.372 . S
C15 H10 0.928 . S
C15 C14 1.372 . S
C15 C16 1.404 . S
C16 C15 1.404 . S
C16 C17 1.391 . S
C17 H11 0.930 . S
C17 C13 1.429 . S
C17 C16 1.391 . S
H18 C21 0.931 . S
H19 C24 0.928 . S
H20 C26 0.930 . S
C21 H18 0.931 . S
C21 C22 1.413 . S
C21 C23 1.360 . S
C22 C21 1.413 . S
C22 C26 1.429 . S
C23 C21 1.360 . S
C23 C24 1.372 . S
C24 H19 0.928 . S
C24 C23 1.372 . S
C24 C25 1.404 . S
C25 C24 1.404 . S
C25 C26 1.391 . S
C26 H20 0.930 . S
C26 C22 1.429 . S
C26 C25 1.391 . S
H27 C30 0.931 . S
H28 C33 0.928 . S
H29 C35 0.930 . S
C30 H27 0.931 . S
C30 C31 1.413 . S
C30 C32 1.360 . S
C31 C30 1.413 . S
C31 C35 1.429 . S
C32 C30 1.360 . S
C32 C33 1.372 . S
C33 H28 0.928 . S
C33 C32 1.372 . S
C33 C34 1.404 . S
C34 C33 1.404 . S
C34 C35 1.391 . S
C35 H29 0.930 . S
C35 C31 1.429 . S
C35 C34 1.391 . S
H36 C39 0.931 . S
H37 C42 0.928 . S
H38 C44 0.930 . S
C39 H36 0.931 . S
C39 C40 1.413 . S
C39 C41 1.360 . S
C40 C39 1.413 . S
C40 C44 1.429 . S
C41 C39 1.360 . S
C41 C42 1.372 . S
C42 H37 0.928 . S
C42 C41 1.372 . S
C42 C43 1.404 . S
C43 C42 1.404 . S
C43 C44 1.391 . S
C44 H38 0.930 . S
C44 C40 1.429 . S
C44 C43 1.391 . S
H45 C48 0.931 . S
H46 C51 0.928 . S
H47 C53 0.930 . S
C48 H45 0.931 . S
C48 C49 1.413 . S
C48 C50 1.360 . S
C49 C48 1.413 . S
C49 C53 1.429 . S
C50 C48 1.360 . S
C50 C51 1.372 . S
C51 H46 0.928 . S
C51 C50 1.372 . S
C51 C52 1.404 . S
C52 C51 1.404 . S
C52 C53 1.391 . S
C53 H47 0.930 . S
C53 C49 1.429 . S
C53 C52 1.391 . S
H54 C57 0.931 . S
H55 C60 0.928 . S
H56 C62 0.930 . S
C57 H54 0.931 . S
C57 C58 1.413 . S
C57 C59 1.360 . S
C58 C57 1.413 . S
C58 C62 1.429 . S
C59 C57 1.360 . S
C59 C60 1.372 . S
C60 H55 0.928 . S
C60 C59 1.372 . S
C60 C61 1.404 . S
C61 C60 1.404 . S
C61 C62 1.391 . S
C62 H56 0.930 . S
C62 C58 1.429 . S
C62 C61 1.391 . S
H63 C66 0.931 . S
H64 C69 0.928 . S
H65 C71 0.930 . S
C66 H63 0.931 . S
C66 C67 1.413 . S
C66 C68 1.360 . S
C67 C66 1.413 . S
C67 C71 1.429 . S
C68 C66 1.360 . S
C68 C69 1.372 . S
C69 H64 0.928 . S
C69 C68 1.372 . S
C69 C70 1.404 . S
C70 C69 1.404 . S
C70 C71 1.391 . S
C71 H65 0.930 . S
C71 C67 1.429 . S
C71 C70 1.391 . S
Dy72 O75 2.307 1_545 S
Dy72 O77 2.395 . S
Dy72 O78 2.379 . S
Dy72 O80 2.339 1_545 S
Dy72 O82 2.298 1_455 S
Dy72 O86 2.275 . S
Dy72 C94 2.738 . S
Dy73 O76 2.316 1_655 S
Dy73 O79 2.294 . S
Dy73 O81 2.285 1_565 S
Dy73 O83 2.422 . S
Dy73 O84 2.383 . S
Dy73 O87 2.314 1_565 S
Dy73 C103 2.756 . S
C74 O86 1.254 . S
C74 O87 1.257 1_455 S
O75 Dy72 2.307 1_565 S
O75 C85 1.266 . S
O76 Dy73 2.316 1_455 S
O76 C85 1.236 . S
O77 Dy72 2.395 . S
O77 C94 1.255 . S
O78 Dy72 2.379 . S
O78 C94 1.249 . S
O79 Dy73 2.294 . S
O79 C95 1.254 . S
O80 Dy72 2.339 1_565 S
O80 C95 1.257 1_455 S
O81 Dy73 2.285 1_545 S
O81 C96 1.266 . S
O82 Dy72 2.298 1_655 S
O82 C96 1.236 . S
O83 Dy73 2.422 . S
O83 C103 1.255 . S
O84 Dy73 2.383 . S
O84 C103 1.249 . S
C85 O75 1.266 . S
C85 O76 1.236 . S
O86 Dy72 2.275 . S
O86 C74 1.254 . S
O87 Dy73 2.314 1_545 S
O87 C74 1.257 1_655 S
C88 C91 1.344 . S
C88 C92 1.328 . S
C88 C94 1.516 . S
C89 C90 1.304 . S
C89 C93 1.323 . S
C90 C89 1.304 . S
C90 C91 1.371 . S
C90 H104 0.930 . S
C91 C88 1.344 . S
C91 C90 1.371 . S
C91 H105 0.931 . S
C92 C88 1.328 . S
C92 C93 1.433 . S
C92 H106 0.931 . S
C93 C89 1.323 . S
C93 C92 1.433 . S
C93 H107 0.933 . S
C94 Dy72 2.738 . S
C94 O77 1.255 . S
C94 O78 1.249 . S
C94 C88 1.516 . S
C95 O79 1.254 . S
C95 O80 1.257 1_655 S
C96 O81 1.266 . S
C96 O82 1.236 . S
C97 C100 1.344 . S
C97 C101 1.328 . S
C97 C103 1.516 . S
C98 C99 1.304 . S
C98 C102 1.323 . S
C99 C98 1.304 . S
C99 C100 1.371 . S
C99 H108 0.930 . S
C100 C97 1.344 . S
C100 C99 1.371 . S
C100 H109 0.931 . S
C101 C97 1.328 . S
C101 C102 1.433 . S
C101 H110 0.931 . S
C102 C98 1.323 . S
C102 C101 1.433 . S
C102 H111 0.933 . S
C103 Dy73 2.756 . S
C103 O83 1.255 . S
C103 O84 1.249 . S
C103 C97 1.516 . S
H104 C90 0.930 . S
H105 C91 0.931 . S
H106 C92 0.931 . S
H107 C93 0.933 . S
H108 C99 0.930 . S
H109 C100 0.931 . S
H110 C101 0.931 . S
H111 C102 0.933 . S
Dy112 O115 2.281 1_566 S
Dy112 O117 2.427 . S
Dy112 O118 2.384 . S
Dy112 O120 2.309 1_565 S
Dy112 O122 2.320 . S
Dy112 O126 2.298 1_556 S
Dy112 C134 2.759 . S
Dy113 O116 2.298 . S
Dy113 O119 2.275 1_554 S
Dy113 O121 2.307 1_544 S
Dy113 O123 2.395 . S
Dy113 O124 2.379 . S
Dy113 O127 2.339 1_545 S
Dy113 C143 2.738 . S
C114 O126 1.254 . S
C114 O127 1.257 . S
O115 Dy112 2.281 1_544 S
O115 C125 1.266 . S
O116 Dy113 2.298 . S
O116 C125 1.236 . S
O117 Dy112 2.427 . S
O117 C134 1.255 . S
O118 Dy112 2.384 . S
O118 C134 1.249 . S
O119 Dy113 2.275 1_556 S
O119 C135 1.254 . S
O120 Dy112 2.309 1_545 S
O120 C135 1.257 . S
O121 Dy113 2.307 1_566 S
O121 C136 1.266 . S
O122 Dy112 2.320 . S
O122 C136 1.236 . S
O123 Dy113 2.395 . S
O123 C143 1.255 . S
O124 Dy113 2.379 . S
O124 C143 1.249 . S
C125 O115 1.266 . S
C125 O116 1.236 . S
O126 Dy112 2.298 1_554 S
O126 C114 1.254 . S
O127 Dy113 2.339 1_565 S
O127 C114 1.257 . S
C128 C131 1.344 . S
C128 C132 1.328 . S
C128 C134 1.516 . S
C129 C130 1.304 . S
C129 C133 1.323 . S
C130 C129 1.304 . S
C130 C131 1.371 . S
C130 H144 0.930 . S
C131 C128 1.344 . S
C131 C130 1.371 . S
C131 H145 0.931 . S
C132 C128 1.328 . S
C132 C133 1.433 . S
C132 H146 0.931 . S
C133 C129 1.323 . S
C133 C132 1.433 . S
C133 H147 0.933 . S
C134 Dy112 2.759 . S
C134 O117 1.255 . S
C134 O118 1.249 . S
C134 C128 1.516 . S
C135 O119 1.254 . S
C135 O120 1.257 . S
C136 O121 1.266 . S
C136 O122 1.236 . S
C137 C140 1.344 . S
C137 C141 1.328 . S
C137 C143 1.516 . S
C138 C139 1.304 . S
C138 C142 1.323 . S
C139 C138 1.304 . S
C139 C140 1.371 . S
C139 H148 0.930 . S
C140 C137 1.344 . S
C140 C139 1.371 . S
C140 H149 0.931 . S
C141 C137 1.328 . S
C141 C142 1.433 . S
C141 H150 0.931 . S
C142 C138 1.323 . S
C142 C141 1.433 . S
C142 H151 0.933 . S
C143 Dy113 2.738 . S
C143 O123 1.255 . S
C143 O124 1.249 . S
C143 C137 1.516 . S
H144 C130 0.930 . S
H145 C131 0.931 . S
H146 C132 0.931 . S
H147 C133 0.933 . S
H148 C139 0.930 . S
H149 C140 0.931 . S
H150 C141 0.931 . S
H151 C142 0.933 . S
Dy152 O155 2.307 . S
Dy152 O157 2.395 . S
Dy152 O158 2.379 . S
Dy152 O160 2.339 . S
Dy152 O162 2.298 . S
Dy152 O166 2.275 . S
Dy152 C174 2.738 . S
Dy153 O156 2.298 . S
Dy153 O159 2.275 . S
Dy153 O161 2.307 . S
Dy153 O163 2.395 . S
Dy153 O164 2.379 . S
Dy153 O167 2.339 . S
Dy153 C183 2.738 . S
C154 O166 1.254 . S
C154 O167 1.257 . S
O155 Dy152 2.307 . S
O155 C165 1.266 . S
O156 Dy153 2.298 . S
O156 C165 1.236 . S
O157 Dy152 2.395 . S
O157 C174 1.255 . S
O158 Dy152 2.379 . S
O158 C174 1.249 . S
O159 Dy153 2.275 . S
O159 C175 1.254 . S
O160 Dy152 2.339 . S
O160 C175 1.257 . S
O161 Dy153 2.307 . S
O161 C176 1.266 . S
O162 Dy152 2.298 . S
O162 C176 1.236 . S
O163 Dy153 2.395 . S
O163 C183 1.255 . S
O164 Dy153 2.379 . S
O164 C183 1.249 . S
C165 O155 1.266 . S
C165 O156 1.236 . S
O166 Dy152 2.275 . S
O166 C154 1.254 . S
O167 Dy153 2.339 . S
O167 C154 1.257 . S
C168 C171 1.344 . S
C168 C172 1.328 . S
C168 C174 1.516 . S
C169 C170 1.304 . S
C169 C173 1.323 . S
C170 C169 1.304 . S
C170 C171 1.371 . S
C170 H184 0.930 . S
C171 C168 1.344 . S
C171 C170 1.371 . S
C171 H185 0.931 . S
C172 C168 1.328 . S
C172 C173 1.433 . S
C172 H186 0.931 . S
C173 C169 1.323 . S
C173 C172 1.433 . S
C173 H187 0.933 . S
C174 Dy152 2.738 . S
C174 O157 1.255 . S
C174 O158 1.249 . S
C174 C168 1.516 . S
C175 O159 1.254 . S
C175 O160 1.257 . S
C176 O161 1.266 . S
C176 O162 1.236 . S
C177 C180 1.344 . S
C177 C181 1.328 . S
C177 C183 1.516 . S
C178 C179 1.304 . S
C178 C182 1.323 . S
C179 C178 1.304 . S
C179 C180 1.371 . S
C179 H188 0.930 . S
C180 C177 1.344 . S
C180 C179 1.371 . S
C180 H189 0.931 . S
C181 C177 1.328 . S
C181 C182 1.433 . S
C181 H190 0.931 . S
C182 C178 1.323 . S
C182 C181 1.433 . S
C182 H191 0.933 . S
C183 Dy153 2.738 . S
C183 O163 1.255 . S
C183 O164 1.249 . S
C183 C177 1.516 . S
H184 C170 0.930 . S
H185 C171 0.931 . S
H186 C172 0.931 . S
H187 C173 0.933 . S
H188 C179 0.930 . S
H189 C180 0.931 . S
H190 C181 0.931 . S
H191 C182 0.933 . S
Dy192 O195 2.307 1_656 S
Dy192 O197 2.395 . S
Dy192 O198 2.379 . S
Dy192 O200 2.339 1_655 S
Dy192 O202 2.298 . S
Dy192 O206 2.275 1_556 S
Dy192 C214 2.738 . S
Dy193 O196 2.298 . S
Dy193 O199 2.275 1_554 S
Dy193 O201 2.307 1_455 S
Dy193 O203 2.395 . S
Dy193 O204 2.379 . S
Dy193 O207 2.339 1_455 S
Dy193 C223 2.738 . S
C194 O206 1.254 . S
C194 O207 1.257 . S
O195 Dy192 2.307 1_454 S
O195 C205 1.266 . S
O196 Dy193 2.298 . S
O196 C205 1.236 . S
O197 Dy192 2.395 . S
O197 C214 1.255 . S
O198 Dy192 2.379 . S
O198 C214 1.249 . S
O199 Dy193 2.275 1_556 S
O199 C215 1.254 . S
O200 Dy192 2.339 1_455 S
O200 C215 1.257 . S
O201 Dy193 2.307 1_655 S
O201 C216 1.266 1_554 S
O202 Dy192 2.298 . S
O202 C216 1.236 . S
O203 Dy193 2.395 . S
O203 C223 1.255 . S
O204 Dy193 2.379 . S
O204 C223 1.249 . S
C205 O195 1.266 . S
C205 O196 1.236 . S
O206 Dy192 2.275 1_554 S
O206 C194 1.254 . S
O207 Dy193 2.339 1_655 S
O207 C194 1.257 . S
C208 C211 1.344 . S
C208 C212 1.328 . S
C208 C214 1.516 . S
C209 C210 1.304 . S
C209 C213 1.323 . S
C210 C209 1.304 . S
C210 C211 1.371 . S
C210 H224 0.930 . S
C211 C208 1.344 . S
C211 C210 1.371 . S
C211 H225 0.931 . S
C212 C208 1.328 . S
C212 C213 1.433 . S
C212 H226 0.931 . S
C213 C209 1.323 . S
C213 C212 1.433 . S
C213 H227 0.933 . S
C214 Dy192 2.738 . S
C214 O197 1.255 . S
C214 O198 1.249 . S
C214 C208 1.516 . S
C215 O199 1.254 . S
C215 O200 1.257 . S
C216 O201 1.266 1_556 S
C216 O202 1.236 . S
C217 C220 1.344 . S
C217 C221 1.328 . S
C217 C223 1.516 . S
C218 C219 1.304 . S
C218 C222 1.323 . S
C219 C218 1.304 . S
C219 C220 1.371 . S
C219 H228 0.930 . S
C220 C217 1.344 . S
C220 C219 1.371 . S
C220 H229 0.931 . S
C221 C217 1.328 . S
C221 C222 1.433 . S
C221 H230 0.931 . S
C222 C218 1.323 . S
C222 C221 1.433 . S
C222 H231 0.933 . S
C223 Dy193 2.738 . S
C223 O203 1.255 . S
C223 O204 1.249 . S
C223 C217 1.516 . S
H224 C210 0.930 . S
H225 C211 0.931 . S
H226 C212 0.931 . S
H227 C213 0.933 . S
H228 C219 0.930 . S
H229 C220 0.931 . S
H230 C221 0.931 . S
H231 C222 0.933 . S
H232 C240 0.929 . S
H233 C242 0.930 . S
H234 C244 0.930 . S
H235 C247 0.929 . S
H236 C250 0.930 . S
H237 C252 0.960 . S
H238 C252 0.960 . S
H239 C252 0.960 . S
C240 H232 0.929 . S
C240 C241 1.377 . S
C240 C242 1.384 . S
C241 C240 1.377 . S
C241 C247 1.390 . S
C242 H233 0.930 . S
C242 C240 1.384 . S
C242 C243 1.372 . S
C243 C242 1.372 . S
C243 C244 1.400 . S
C243 C248 1.490 . S
C244 H234 0.930 . S
C244 C243 1.400 . S
C244 C247 1.386 . S
H245 C261 0.930 . S
H246 C262 0.931 . S
C247 H235 0.929 . S
C247 C241 1.390 . S
C247 C244 1.386 . S
C248 C243 1.490 . S
C248 C250 1.395 . S
C248 C251 1.403 . S
H249 C255 0.930 . S
C250 H236 0.930 . S
C250 C248 1.395 . S
C250 C253 1.403 . S
C251 C248 1.403 . S
C251 C252 1.524 . S
C251 C255 1.400 . S
C252 H237 0.960 . S
C252 H238 0.960 . S
C252 H239 0.960 . S
C252 C251 1.524 . S
C253 C250 1.403 . S
C253 C254 1.392 . S
C253 C257 1.495 . S
C254 C253 1.392 . S
C254 C255 1.385 . S
C254 C256 1.478 . S
C255 H249 0.930 . S
C255 C251 1.400 . S
C255 C254 1.385 . S
C256 C254 1.478 . S
C256 C258 1.381 . S
C256 C262 1.383 . S
C257 C253 1.495 . S
C257 H263 0.959 . S
C257 H264 0.961 . S
C257 H265 0.960 . S
C258 C256 1.381 . S
C258 C259 1.394 . S
C258 H266 0.930 . S
C259 C258 1.394 . S
C259 C260 1.383 . S
C259 H267 0.929 . S
C260 C259 1.383 . S
C260 C261 1.377 . S
C261 H245 0.930 . S
C261 C260 1.377 . S
C261 C262 1.379 . S
C262 H246 0.931 . S
C262 C256 1.383 . S
C262 C261 1.379 . S
H263 C257 0.959 . S
H264 C257 0.961 . S
H265 C257 0.960 . S
H266 C258 0.930 . S
H267 C259 0.929 . S
H268 C276 0.929 . S
H269 C278 0.930 . S
H270 C280 0.930 . S
H271 C283 0.929 . S
H272 C286 0.930 . S
H273 C288 0.960 . S
H274 C288 0.960 . S
H275 C288 0.960 . S
C276 H268 0.929 . S
C276 C277 1.377 . S
C276 C278 1.384 . S
C277 C276 1.377 . S
C277 C283 1.390 . S
C278 H269 0.930 . S
C278 C276 1.384 . S
C278 C279 1.372 . S
C279 C278 1.372 . S
C279 C280 1.400 . S
C279 C284 1.490 . S
C280 H270 0.930 . S
C280 C279 1.400 . S
C280 C283 1.386 . S
H281 C297 0.930 . S
H282 C298 0.931 . S
C283 H271 0.929 . S
C283 C277 1.390 . S
C283 C280 1.386 . S
C284 C279 1.490 . S
C284 C286 1.395 . S
C284 C287 1.403 . S
H285 C291 0.930 . S
C286 H272 0.930 . S
C286 C284 1.395 . S
C286 C289 1.403 . S
C287 C284 1.403 . S
C287 C288 1.524 . S
C287 C291 1.400 . S
C288 H273 0.960 . S
C288 H274 0.960 . S
C288 H275 0.960 . S
C288 C287 1.524 . S
C289 C286 1.403 . S
C289 C290 1.392 . S
C289 C293 1.495 . S
C290 C289 1.392 . S
C290 C291 1.385 . S
C290 C292 1.478 . S
C291 H285 0.930 . S
C291 C287 1.400 . S
C291 C290 1.385 . S
C292 C290 1.478 . S
C292 C294 1.381 . S
C292 C298 1.383 . S
C293 C289 1.495 . S
C293 H299 0.959 . S
C293 H300 0.961 . S
C293 H301 0.960 . S
C294 C292 1.381 . S
C294 C295 1.394 . S
C294 H302 0.930 . S
C295 C294 1.394 . S
C295 C296 1.383 . S
C295 H303 0.929 . S
C296 C295 1.383 . S
C296 C297 1.377 . S
C297 H281 0.930 . S
C297 C296 1.377 . S
C297 C298 1.379 . S
C298 H282 0.931 . S
C298 C292 1.383 . S
C298 C297 1.379 . S
H299 C293 0.959 . S
H300 C293 0.961 . S
H301 C293 0.960 . S
H302 C294 0.930 . S
H303 C295 0.929 . S
H304 C312 0.929 . S
H305 C314 0.930 . S
H306 C316 0.930 . S
H307 C319 0.929 . S
H308 C322 0.930 . S
H309 C324 0.960 . S
H310 C324 0.960 . S
H311 C324 0.960 . S
C312 H304 0.929 . S
C312 C313 1.377 . S
C312 C314 1.384 . S
C313 C312 1.377 . S
C313 C319 1.390 . S
C314 H305 0.930 . S
C314 C312 1.384 . S
C314 C315 1.372 . S
C315 C314 1.372 . S
C315 C316 1.400 . S
C315 C320 1.490 . S
C316 H306 0.930 . S
C316 C315 1.400 . S
C316 C319 1.386 . S
H317 C333 0.930 . S
H318 C334 0.931 . S
C319 H307 0.929 . S
C319 C313 1.390 . S
C319 C316 1.386 . S
C320 C315 1.490 . S
C320 C322 1.395 . S
C320 C323 1.403 . S
H321 C327 0.930 . S
C322 H308 0.930 . S
C322 C320 1.395 . S
C322 C325 1.403 . S
C323 C320 1.403 . S
C323 C324 1.524 . S
C323 C327 1.400 . S
C324 H309 0.960 . S
C324 H310 0.960 . S
C324 H311 0.960 . S
C324 C323 1.524 . S
C325 C322 1.403 . S
C325 C326 1.392 . S
C325 C329 1.495 . S
C326 C325 1.392 . S
C326 C327 1.385 . S
C326 C328 1.478 . S
C327 H321 0.930 . S
C327 C323 1.400 . S
C327 C326 1.385 . S
C328 C326 1.478 . S
C328 C330 1.381 . S
C328 C334 1.383 . S
C329 C325 1.495 . S
C329 H335 0.959 . S
C329 H336 0.961 . S
C329 H337 0.960 . S
C330 C328 1.381 . S
C330 C331 1.394 . S
C330 H338 0.930 . S
C331 C330 1.394 . S
C331 C332 1.383 . S
C331 H339 0.929 . S
C332 C331 1.383 . S
C332 C333 1.377 . S
C333 H317 0.930 . S
C333 C332 1.377 . S
C333 C334 1.379 . S
C334 H318 0.931 . S
C334 C328 1.383 . S
C334 C333 1.379 . S
H335 C329 0.959 . S
H336 C329 0.961 . S
H337 C329 0.960 . S
H338 C330 0.930 . S
H339 C331 0.929 . S
H340 C348 0.929 . S
H341 C350 0.930 . S
H342 C352 0.930 . S
H343 C355 0.929 . S
H344 C358 0.930 . S
H345 C360 0.960 . S
H346 C360 0.960 . S
H347 C360 0.960 . S
C348 H340 0.929 . S
C348 C349 1.377 . S
C348 C350 1.384 . S
C349 C348 1.377 . S
C349 C355 1.390 . S
C350 H341 0.930 . S
C350 C348 1.384 . S
C350 C351 1.372 . S
C351 C350 1.372 . S
C351 C352 1.400 . S
C351 C356 1.490 . S
C352 H342 0.930 . S
C352 C351 1.400 . S
C352 C355 1.386 . S
H353 C369 0.930 . S
H354 C370 0.931 . S
C355 H343 0.929 . S
C355 C349 1.390 . S
C355 C352 1.386 . S
C356 C351 1.490 . S
C356 C358 1.395 . S
C356 C359 1.403 . S
H357 C363 0.930 . S
C358 H344 0.930 . S
C358 C356 1.395 . S
C358 C361 1.403 . S
C359 C356 1.403 . S
C359 C360 1.524 . S
C359 C363 1.400 . S
C360 H345 0.960 . S
C360 H346 0.960 . S
C360 H347 0.960 . S
C360 C359 1.524 . S
C361 C358 1.403 . S
C361 C362 1.392 . S
C361 C365 1.495 . S
C362 C361 1.392 . S
C362 C363 1.385 . S
C362 C364 1.478 . S
C363 H357 0.930 . S
C363 C359 1.400 . S
C363 C362 1.385 . S
C364 C362 1.478 . S
C364 C366 1.381 . S
C364 C370 1.383 . S
C365 C361 1.495 . S
C365 H371 0.959 . S
C365 H372 0.961 . S
C365 H373 0.960 . S
C366 C364 1.381 . S
C366 C367 1.394 . S
C366 H374 0.930 . S
C367 C366 1.394 . S
C367 C368 1.383 . S
C367 H375 0.929 . S
C368 C367 1.383 . S
C368 C369 1.377 . S
C369 H353 0.930 . S
C369 C368 1.377 . S
C369 C370 1.379 . S
C370 H354 0.931 . S
C370 C364 1.383 . S
C370 C369 1.379 . S
H371 C365 0.959 . S
H372 C365 0.961 . S
H373 C365 0.960 . S
H374 C366 0.930 . S
H375 C367 0.929 . S
H376 C384 0.929 . S
H377 C386 0.930 . S
H378 C388 0.930 . S
H379 C391 0.929 . S
H380 C394 0.930 . S
H381 C396 0.960 . S
H382 C396 0.960 . S
H383 C396 0.960 . S
C384 H376 0.929 . S
C384 C385 1.377 . S
C384 C386 1.384 . S
C385 C384 1.377 . S
C385 C391 1.390 . S
C386 H377 0.930 . S
C386 C384 1.384 . S
C386 C387 1.372 . S
C387 C386 1.372 . S
C387 C388 1.400 . S
C387 C392 1.490 . S
C388 H378 0.930 . S
C388 C387 1.400 . S
C388 C391 1.386 . S
H389 C405 0.930 . S
H390 C406 0.931 . S
C391 H379 0.929 . S
C391 C385 1.390 . S
C391 C388 1.386 . S
C392 C387 1.490 . S
C392 C394 1.395 . S
C392 C395 1.403 . S
H393 C399 0.930 . S
C394 H380 0.930 . S
C394 C392 1.395 . S
C394 C397 1.403 . S
C395 C392 1.403 . S
C395 C396 1.524 . S
C395 C399 1.400 . S
C396 H381 0.960 . S
C396 H382 0.960 . S
C396 H383 0.960 . S
C396 C395 1.524 . S
C397 C394 1.403 . S
C397 C398 1.392 . S
C397 C401 1.495 . S
C398 C397 1.392 . S
C398 C399 1.385 . S
C398 C400 1.478 . S
C399 H393 0.930 . S
C399 C395 1.400 . S
C399 C398 1.385 . S
C400 C398 1.478 . S
C400 C402 1.381 . S
C400 C406 1.383 . S
C401 C397 1.495 . S
C401 H407 0.959 . S
C401 H408 0.961 . S
C401 H409 0.960 . S
C402 C400 1.381 . S
C402 C403 1.394 . S
C402 H410 0.930 . S
C403 C402 1.394 . S
C403 C404 1.383 . S
C403 H411 0.929 . S
C404 C403 1.383 . S
C404 C405 1.377 . S
C405 H389 0.930 . S
C405 C404 1.377 . S
C405 C406 1.379 . S
C406 H390 0.931 . S
C406 C400 1.383 . S
C406 C405 1.379 . S
H407 C401 0.959 . S
H408 C401 0.961 . S
H409 C401 0.960 . S
H410 C402 0.930 . S
H411 C403 0.929 . S
H412 C420 0.929 . S
H413 C422 0.930 . S
H414 C424 0.930 . S
H415 C427 0.929 . S
H416 C430 0.930 . S
H417 C432 0.960 . S
H418 C432 0.960 . S
H419 C432 0.960 . S
C420 H412 0.929 . S
C420 C421 1.377 . S
C420 C422 1.384 . S
C421 C420 1.377 . S
C421 C427 1.390 . S
C422 H413 0.930 . S
C422 C420 1.384 . S
C422 C423 1.372 . S
C423 C422 1.372 . S
C423 C424 1.400 . S
C423 C428 1.490 . S
C424 H414 0.930 . S
C424 C423 1.400 . S
C424 C427 1.386 . S
H425 C441 0.930 . S
H426 C442 0.931 . S
C427 H415 0.929 . S
C427 C421 1.390 . S
C427 C424 1.386 . S
C428 C423 1.490 . S
C428 C430 1.395 . S
C428 C431 1.403 . S
H429 C435 0.930 . S
C430 H416 0.930 . S
C430 C428 1.395 . S
C430 C433 1.403 . S
C431 C428 1.403 . S
C431 C432 1.524 . S
C431 C435 1.400 . S
C432 H417 0.960 . S
C432 H418 0.960 . S
C432 H419 0.960 . S
C432 C431 1.524 . S
C433 C430 1.403 . S
C433 C434 1.392 . S
C433 C437 1.495 . S
C434 C433 1.392 . S
C434 C435 1.385 . S
C434 C436 1.478 . S
C435 H429 0.930 . S
C435 C431 1.400 . S
C435 C434 1.385 . S
C436 C434 1.478 . S
C436 C438 1.381 . S
C436 C442 1.383 . S
C437 C433 1.495 . S
C437 H443 0.959 . S
C437 H444 0.961 . S
C437 H445 0.960 . S
C438 C436 1.381 . S
C438 C439 1.394 . S
C438 H446 0.930 . S
C439 C438 1.394 . S
C439 C440 1.383 . S
C439 H447 0.929 . S
C440 C439 1.383 . S
C440 C441 1.377 . S
C441 H425 0.930 . S
C441 C440 1.377 . S
C441 C442 1.379 . S
C442 H426 0.931 . S
C442 C436 1.383 . S
C442 C441 1.379 . S
H443 C437 0.959 . S
H444 C437 0.961 . S
H445 C437 0.960 . S
H446 C438 0.930 . S
H447 C439 0.929 . S
H448 C456 0.929 . S
H449 C458 0.930 . S
H450 C460 0.930 . S
H451 C463 0.929 . S
H452 C466 0.930 . S
H453 C468 0.960 . S
H454 C468 0.960 . S
H455 C468 0.960 . S
C456 H448 0.929 . S
C456 C457 1.377 . S
C456 C458 1.384 . S
C457 C456 1.377 . S
C457 C463 1.390 . S
C458 H449 0.930 . S
C458 C456 1.384 . S
C458 C459 1.372 . S
C459 C458 1.372 . S
C459 C460 1.400 . S
C459 C464 1.490 . S
C460 H450 0.930 . S
C460 C459 1.400 . S
C460 C463 1.386 . S
H461 C477 0.930 . S
H462 C478 0.931 . S
C463 H451 0.929 . S
C463 C457 1.390 . S
C463 C460 1.386 . S
C464 C459 1.490 . S
C464 C466 1.395 . S
C464 C467 1.403 . S
H465 C471 0.930 . S
C466 H452 0.930 . S
C466 C464 1.395 . S
C466 C469 1.403 . S
C467 C464 1.403 . S
C467 C468 1.524 . S
C467 C471 1.400 . S
C468 H453 0.960 . S
C468 H454 0.960 . S
C468 H455 0.960 . S
C468 C467 1.524 . S
C469 C466 1.403 . S
C469 C470 1.392 . S
C469 C473 1.495 . S
C470 C469 1.392 . S
C470 C471 1.385 . S
C470 C472 1.478 . S
C471 H465 0.930 . S
C471 C467 1.400 . S
C471 C470 1.385 . S
C472 C470 1.478 . S
C472 C474 1.381 . S
C472 C478 1.383 . S
C473 C469 1.495 . S
C473 H479 0.959 . S
C473 H480 0.961 . S
C473 H481 0.960 . S
C474 C472 1.381 . S
C474 C475 1.394 . S
C474 H482 0.930 . S
C475 C474 1.394 . S
C475 C476 1.383 . S
C475 H483 0.929 . S
C476 C475 1.383 . S
C476 C477 1.377 . S
C477 H461 0.930 . S
C477 C476 1.377 . S
C477 C478 1.379 . S
C478 H462 0.931 . S
C478 C472 1.383 . S
C478 C477 1.379 . S
H479 C473 0.959 . S
H480 C473 0.961 . S
H481 C473 0.960 . S
H482 C474 0.930 . S
H483 C475 0.929 . S
H484 C492 0.929 . S
H485 C494 0.930 . S
H486 C496 0.930 . S
H487 C499 0.929 . S
H488 C502 0.930 . S
H489 C504 0.960 . S
H490 C504 0.960 . S
H491 C504 0.960 . S
C492 H484 0.929 . S
C492 C493 1.377 . S
C492 C494 1.384 . S
C493 C492 1.377 . S
C493 C499 1.390 . S
C494 H485 0.930 . S
C494 C492 1.384 . S
C494 C495 1.372 . S
C495 C494 1.372 . S
C495 C496 1.400 . S
C495 C500 1.490 . S
C496 H486 0.930 . S
C496 C495 1.400 . S
C496 C499 1.386 . S
H497 C513 0.930 . S
H498 C514 0.931 . S
C499 H487 0.929 . S
C499 C493 1.390 . S
C499 C496 1.386 . S
C500 C495 1.490 . S
C500 C502 1.395 . S
C500 C503 1.403 . S
H501 C507 0.930 . S
C502 H488 0.930 . S
C502 C500 1.395 . S
C502 C505 1.403 . S
C503 C500 1.403 . S
C503 C504 1.524 . S
C503 C507 1.400 . S
C504 H489 0.960 . S
C504 H490 0.960 . S
C504 H491 0.960 . S
C504 C503 1.524 . S
C505 C502 1.403 . S
C505 C506 1.392 . S
C505 C509 1.495 . S
C506 C505 1.392 . S
C506 C507 1.385 . S
C506 C508 1.478 . S
C507 H501 0.930 . S
C507 C503 1.400 . S
C507 C506 1.385 . S
C508 C506 1.478 . S
C508 C510 1.381 . S
C508 C514 1.383 . S
C509 C505 1.495 . S
C509 H515 0.959 . S
C509 H516 0.961 . S
C509 H517 0.960 . S
C510 C508 1.381 . S
C510 C511 1.394 . S
C510 H518 0.930 . S
C511 C510 1.394 . S
C511 C512 1.383 . S
C511 H519 0.929 . S
C512 C511 1.383 . S
C512 C513 1.377 . S
C513 H497 0.930 . S
C513 C512 1.377 . S
C513 C514 1.379 . S
C514 H498 0.931 . S
C514 C508 1.383 . S
C514 C513 1.379 . S
H515 C509 0.959 . S
H516 C509 0.961 . S
H517 C509 0.960 . S
H518 C510 0.930 . S
H519 C511 0.929 . S
H520 C528 0.929 . S
H521 C530 0.930 . S
H522 C532 0.930 . S
H523 C535 0.929 . S
H524 C538 0.930 . S
H525 C540 0.960 . S
H526 C540 0.960 . S
H527 C540 0.960 . S
C528 H520 0.929 . S
C528 C529 1.377 . S
C528 C530 1.384 . S
C529 C528 1.377 . S
C529 C535 1.390 . S
C530 H521 0.930 . S
C530 C528 1.384 . S
C530 C531 1.372 . S
C531 C530 1.372 . S
C531 C532 1.400 . S
C531 C536 1.490 . S
C532 H522 0.930 . S
C532 C531 1.400 . S
C532 C535 1.386 . S
H533 C549 0.930 . S
H534 C550 0.931 . S
C535 H523 0.929 . S
C535 C529 1.390 . S
C535 C532 1.386 . S
C536 C531 1.490 . S
C536 C538 1.395 . S
C536 C539 1.403 . S
H537 C543 0.930 . S
C538 H524 0.930 . S
C538 C536 1.395 . S
C538 C541 1.403 . S
C539 C536 1.403 . S
C539 C540 1.524 . S
C539 C543 1.400 . S
C540 H525 0.960 . S
C540 H526 0.960 . S
C540 H527 0.960 . S
C540 C539 1.524 . S
C541 C538 1.403 . S
C541 C542 1.392 . S
C541 C545 1.495 . S
C542 C541 1.392 . S
C542 C543 1.385 . S
C542 C544 1.478 . S
C543 H537 0.930 . S
C543 C539 1.400 . S
C543 C542 1.385 . S
C544 C542 1.478 . S
C544 C546 1.381 . S
C544 C550 1.383 . S
C545 C541 1.495 . S
C545 H551 0.959 . S
C545 H552 0.961 . S
C545 H553 0.960 . S
C546 C544 1.381 . S
C546 C547 1.394 . S
C546 H554 0.930 . S
C547 C546 1.394 . S
C547 C548 1.383 . S
C547 H555 0.929 . S
C548 C547 1.383 . S
C548 C549 1.377 . S
C549 H533 0.930 . S
C549 C548 1.377 . S
C549 C550 1.379 . S
C550 H534 0.931 . S
C550 C544 1.383 . S
C550 C549 1.379 . S
H551 C545 0.959 . S
H552 C545 0.961 . S
H553 C545 0.960 . S
H554 C546 0.930 . S
H555 C547 0.929 . S
H556 C564 0.929 . S
H557 C566 0.930 . S
H558 C568 0.930 . S
H559 C571 0.929 . S
H560 C574 0.930 . S
H561 C576 0.960 . S
H562 C576 0.960 . S
H563 C576 0.960 . S
C564 H556 0.929 . S
C564 C565 1.377 . S
C564 C566 1.384 . S
C565 C564 1.377 . S
C565 C571 1.390 . S
C566 H557 0.930 . S
C566 C564 1.384 . S
C566 C567 1.372 . S
C567 C566 1.372 . S
C567 C568 1.400 . S
C567 C572 1.490 . S
C568 H558 0.930 . S
C568 C567 1.400 . S
C568 C571 1.386 . S
H569 C585 0.930 . S
H570 C586 0.931 . S
C571 H559 0.929 . S
C571 C565 1.390 . S
C571 C568 1.386 . S
C572 C567 1.490 . S
C572 C574 1.395 . S
C572 C575 1.403 . S
H573 C579 0.930 . S
C574 H560 0.930 . S
C574 C572 1.395 . S
C574 C577 1.403 . S
C575 C572 1.403 . S
C575 C576 1.524 . S
C575 C579 1.400 . S
C576 H561 0.960 . S
C576 H562 0.960 . S
C576 H563 0.960 . S
C576 C575 1.524 . S
C577 C574 1.403 . S
C577 C578 1.392 . S
C577 C581 1.495 . S
C578 C577 1.392 . S
C578 C579 1.385 . S
C578 C580 1.478 . S
C579 H573 0.930 . S
C579 C575 1.400 . S
C579 C578 1.385 . S
C580 C578 1.478 . S
C580 C582 1.381 . S
C580 C586 1.383 . S
C581 C577 1.495 . S
C581 H587 0.959 . S
C581 H588 0.961 . S
C581 H589 0.960 . S
C582 C580 1.381 . S
C582 C583 1.394 . S
C582 H590 0.930 . S
C583 C582 1.394 . S
C583 C584 1.383 . S
C583 H591 0.929 . S
C584 C583 1.383 . S
C584 C585 1.377 . S
C585 H569 0.930 . S
C585 C584 1.377 . S
C585 C586 1.379 . S
C586 H570 0.931 . S
C586 C580 1.383 . S
C586 C585 1.379 . S
H587 C581 0.959 . S
H588 C581 0.961 . S
H589 C581 0.960 . S
H590 C582 0.930 . S
H591 C583 0.929 . S
H592 C600 0.929 . S
H593 C602 0.930 . S
H594 C604 0.930 . S
H595 C607 0.929 . S
H596 C610 0.930 . S
H597 C612 0.960 . S
H598 C612 0.960 . S
H599 C612 0.960 . S
C600 H592 0.929 . S
C600 C601 1.377 . S
C600 C602 1.384 . S
C601 C600 1.377 . S
C601 C607 1.390 . S
C602 H593 0.930 . S
C602 C600 1.384 . S
C602 C603 1.372 . S
C603 C602 1.372 . S
C603 C604 1.400 . S
C603 C608 1.490 . S
C604 H594 0.930 . S
C604 C603 1.400 . S
C604 C607 1.386 . S
H605 C621 0.930 . S
H606 C622 0.931 . S
C607 H595 0.929 . S
C607 C601 1.390 . S
C607 C604 1.386 . S
C608 C603 1.490 . S
C608 C610 1.395 . S
C608 C611 1.403 . S
H609 C615 0.930 . S
C610 H596 0.930 . S
C610 C608 1.395 . S
C610 C613 1.403 . S
C611 C608 1.403 . S
C611 C612 1.524 . S
C611 C615 1.400 . S
C612 H597 0.960 . S
C612 H598 0.960 . S
C612 H599 0.960 . S
C612 C611 1.524 . S
C613 C610 1.403 . S
C613 C614 1.392 . S
C613 C617 1.495 . S
C614 C613 1.392 . S
C614 C615 1.385 . S
C614 C616 1.478 . S
C615 H609 0.930 . S
C615 C611 1.400 . S
C615 C614 1.385 . S
C616 C614 1.478 . S
C616 C618 1.381 . S
C616 C622 1.383 . S
C617 C613 1.495 . S
C617 H623 0.959 . S
C617 H624 0.975 . S
C617 H625 0.960 . S
C618 C616 1.381 . S
C618 C619 1.394 . S
C618 H626 0.930 . S
C619 C618 1.394 . S
C619 C620 1.383 . S
C619 H627 0.929 . S
C620 C619 1.383 . S
C620 C621 1.377 . S
C621 H605 0.930 . S
C621 C620 1.377 . S
C621 C622 1.379 . S
C622 H606 0.931 . S
C622 C616 1.383 . S
C622 C621 1.379 . S
H623 C617 0.959 . S
H624 C617 0.975 . S
H625 C617 0.960 . S
H626 C618 0.930 . S
H627 C619 0.929 . S
H628 C636 0.929 . S
H629 C638 0.930 . S
H630 C640 0.930 . S
H631 C643 0.929 . S
H632 C646 0.930 . S
H633 C648 0.960 . S
H634 C648 0.960 . S
H635 C648 0.960 . S
C636 H628 0.929 . S
C636 C637 1.377 . S
C636 C638 1.384 . S
C637 C636 1.377 . S
C637 C643 1.390 . S
C638 H629 0.930 . S
C638 C636 1.384 . S
C638 C639 1.372 . S
C639 C638 1.372 . S
C639 C640 1.400 . S
C639 C644 1.490 . S
C640 H630 0.930 . S
C640 C639 1.400 . S
C640 C643 1.386 . S
H641 C657 0.930 . S
H642 C658 0.931 . S
C643 H631 0.929 . S
C643 C637 1.390 . S
C643 C640 1.386 . S
C644 C639 1.490 . S
C644 C646 1.395 . S
C644 C647 1.403 . S
H645 C651 0.930 . S
C646 H632 0.930 . S
C646 C644 1.395 . S
C646 C649 1.403 . S
C647 C644 1.403 . S
C647 C648 1.524 . S
C647 C651 1.400 . S
C648 H633 0.960 . S
C648 H634 0.960 . S
C648 H635 0.960 . S
C648 C647 1.524 . S
C649 C646 1.403 . S
C649 C650 1.392 . S
C649 C653 1.495 . S
C650 C649 1.392 . S
C650 C651 1.385 . S
C650 C652 1.478 . S
C651 H645 0.930 . S
C651 C647 1.400 . S
C651 C650 1.385 . S
C652 C650 1.478 . S
C652 C654 1.381 . S
C652 C658 1.383 . S
C653 C649 1.495 . S
C653 H659 0.959 . S
C653 H660 0.961 . S
C653 H661 0.960 . S
C654 C652 1.381 . S
C654 C655 1.394 . S
C654 H662 0.930 . S
C655 C654 1.394 . S
C655 C656 1.383 . S
C655 H663 0.929 . S
C656 C655 1.383 . S
C656 C657 1.377 . S
C657 H641 0.930 . S
C657 C656 1.377 . S
C657 C658 1.379 . S
C658 H642 0.931 . S
C658 C652 1.383 . S
C658 C657 1.379 . S
H659 C653 0.959 . S
H660 C653 0.961 . S
H661 C653 0.960 . S
H662 C654 0.930 . S
H663 C655 0.929 . S
H664 C672 0.929 . S
H665 C674 0.930 . S
H666 C676 0.930 . S
H667 C679 0.929 . S
H668 C682 0.930 . S
H669 C684 0.960 . S
H670 C684 0.960 . S
H671 C684 0.960 . S
C672 H664 0.929 . S
C672 C673 1.377 . S
C672 C674 1.384 . S
C673 C672 1.377 . S
C673 C679 1.390 . S
C674 H665 0.930 . S
C674 C672 1.384 . S
C674 C675 1.372 . S
C675 C674 1.372 . S
C675 C676 1.400 . S
C675 C680 1.490 . S
C676 H666 0.930 . S
C676 C675 1.400 . S
C676 C679 1.386 . S
H677 C693 0.930 . S
H678 C694 0.931 . S
C679 H667 0.929 . S
C679 C673 1.390 . S
C679 C676 1.386 . S
C680 C675 1.490 . S
C680 C682 1.395 . S
C680 C683 1.403 . S
H681 C687 0.930 . S
C682 H668 0.930 . S
C682 C680 1.395 . S
C682 C685 1.403 . S
C683 C680 1.403 . S
C683 C684 1.524 . S
C683 C687 1.400 . S
C684 H669 0.960 . S
C684 H670 0.960 . S
C684 H671 0.960 . S
C684 C683 1.524 . S
C685 C682 1.403 . S
C685 C686 1.392 . S
C685 C689 1.495 . S
C686 C685 1.392 . S
C686 C687 1.385 . S
C686 C688 1.478 . S
C687 H681 0.930 . S
C687 C683 1.400 . S
C687 C686 1.385 . S
C688 C686 1.478 . S
C688 C690 1.381 . S
C688 C694 1.383 . S
C689 C685 1.495 . S
C689 H695 0.959 . S
C689 H696 0.961 . S
C689 H697 0.960 . S
C690 C688 1.381 . S
C690 C691 1.394 . S
C690 H698 0.930 . S
C691 C690 1.394 . S
C691 C692 1.383 . S
C691 H699 0.929 . S
C692 C691 1.383 . S
C692 C693 1.377 . S
C693 H677 0.930 . S
C693 C692 1.377 . S
C693 C694 1.379 . S
C694 H678 0.931 . S
C694 C688 1.383 . S
C694 C693 1.379 . S
H695 C689 0.959 . S
H696 C689 0.961 . S
H697 C689 0.960 . S
H698 C690 0.930 . S
H699 C691 0.929 . S
H700 C708 0.929 . S
H701 C710 0.930 . S
H702 C712 0.930 . S
H703 C715 0.929 . S
H704 C718 0.930 . S
H705 C720 0.960 . S
H706 C720 0.960 . S
H707 C720 0.960 . S
C708 H700 0.929 . S
C708 C709 1.377 . S
C708 C710 1.384 . S
C709 C708 1.377 . S
C709 C715 1.390 . S
C710 H701 0.930 . S
C710 C708 1.384 . S
C710 C711 1.372 . S
C711 C710 1.372 . S
C711 C712 1.400 . S
C711 C716 1.490 . S
C712 H702 0.930 . S
C712 C711 1.400 . S
C712 C715 1.386 . S
H713 C729 0.930 . S
H714 C730 0.931 . S
C715 H703 0.929 . S
C715 C709 1.390 . S
C715 C712 1.386 . S
C716 C711 1.490 . S
C716 C718 1.395 . S
C716 C719 1.403 . S
H717 C723 0.930 . S
C718 H704 0.930 . S
C718 C716 1.395 . S
C718 C721 1.403 . S
C719 C716 1.403 . S
C719 C720 1.524 . S
C719 C723 1.400 . S
C720 H705 0.960 . S
C720 H706 0.960 . S
C720 H707 0.960 . S
C720 C719 1.524 . S
C721 C718 1.403 . S
C721 C722 1.392 . S
C721 C725 1.495 . S
C722 C721 1.392 . S
C722 C723 1.385 . S
C722 C724 1.478 . S
C723 H717 0.930 . S
C723 C719 1.400 . S
C723 C722 1.385 . S
C724 C722 1.478 . S
C724 C726 1.381 . S
C724 C730 1.383 . S
C725 C721 1.495 . S
C725 H731 0.959 . S
C725 H732 0.961 . S
C725 H733 0.960 . S
C726 C724 1.381 . S
C726 C727 1.394 . S
C726 H734 0.930 . S
C727 C726 1.394 . S
C727 C728 1.383 . S
C727 H735 0.929 . S
C728 C727 1.383 . S
C728 C729 1.377 . S
C729 H713 0.930 . S
C729 C728 1.377 . S
C729 C730 1.379 . S
C730 H714 0.931 . S
C730 C724 1.383 . S
C730 C729 1.379 . S
H731 C725 0.959 . S
H732 C725 0.961 . S
H733 C725 0.960 . S
H734 C726 0.930 . S
H735 C727 0.929 . S
H736 C744 0.929 . S
H737 C746 0.930 . S
H738 C748 0.930 . S
H739 C751 0.929 . S
H740 C754 0.930 . S
H741 C756 0.960 . S
H742 C756 0.960 . S
H743 C756 0.960 . S
C744 H736 0.929 . S
C744 C745 1.377 . S
C744 C746 1.384 . S
C745 C744 1.377 . S
C745 C751 1.390 . S
C746 H737 0.930 . S
C746 C744 1.384 . S
C746 C747 1.372 . S
C747 C746 1.372 . S
C747 C748 1.400 . S
C747 C752 1.490 . S
C748 H738 0.930 . S
C748 C747 1.400 . S
C748 C751 1.386 . S
H749 C765 0.930 . S
H750 C766 0.931 . S
C751 H739 0.929 . S
C751 C745 1.390 . S
C751 C748 1.386 . S
C752 C747 1.490 . S
C752 C754 1.395 . S
C752 C755 1.403 . S
H753 C759 0.930 . S
C754 H740 0.930 . S
C754 C752 1.395 . S
C754 C757 1.403 . S
C755 C752 1.403 . S
C755 C756 1.524 . S
C755 C759 1.400 . S
C756 H741 0.960 . S
C756 H742 0.960 . S
C756 H743 0.960 . S
C756 C755 1.524 . S
C757 C754 1.403 . S
C757 C758 1.392 . S
C757 C761 1.495 . S
C758 C757 1.392 . S
C758 C759 1.385 . S
C758 C760 1.478 . S
C759 H753 0.930 . S
C759 C755 1.400 . S
C759 C758 1.385 . S
C760 C758 1.478 . S
C760 C762 1.381 . S
C760 C766 1.383 . S
C761 C757 1.495 . S
C761 H767 0.959 . S
C761 H768 0.961 . S
C761 H769 0.960 . S
C762 C760 1.381 . S
C762 C763 1.394 . S
C762 H770 0.930 . S
C763 C762 1.394 . S
C763 C764 1.383 . S
C763 H771 0.929 . S
C764 C763 1.383 . S
C764 C765 1.377 . S
C765 H749 0.930 . S
C765 C764 1.377 . S
C765 C766 1.379 . S
C766 H750 0.931 . S
C766 C760 1.383 . S
C766 C765 1.379 . S
H767 C761 0.959 . S
H768 C761 0.961 . S
H769 C761 0.960 . S
H770 C762 0.930 . S
H771 C763 0.929 . S
H772 C780 0.929 . S
H773 C782 0.930 . S
H774 C784 0.930 . S
H775 C787 0.929 . S
H776 C790 0.930 . S
H777 C792 0.960 . S
H778 C792 0.960 . S
H779 C792 0.960 . S
C780 H772 0.929 . S
C780 C781 1.377 . S
C780 C782 1.384 . S
C781 C780 1.377 . S
C781 C787 1.390 . S
C782 H773 0.930 . S
C782 C780 1.384 . S
C782 C783 1.372 . S
C783 C782 1.372 . S
C783 C784 1.400 . S
C783 C788 1.490 . S
C784 H774 0.930 . S
C784 C783 1.400 . S
C784 C787 1.386 . S
H785 C801 0.930 . S
H786 C802 0.931 . S
C787 H775 0.929 . S
C787 C781 1.390 . S
C787 C784 1.386 . S
C788 C783 1.490 . S
C788 C790 1.395 . S
C788 C791 1.403 . S
H789 C795 0.930 . S
C790 H776 0.930 . S
C790 C788 1.395 . S
C790 C793 1.403 . S
C791 C788 1.403 . S
C791 C792 1.524 . S
C791 C795 1.400 . S
C792 H777 0.960 . S
C792 H778 0.960 . S
C792 H779 0.960 . S
C792 C791 1.524 . S
C793 C790 1.403 . S
C793 C794 1.392 . S
C793 C797 1.495 . S
C794 C793 1.392 . S
C794 C795 1.385 . S
C794 C796 1.478 . S
C795 H789 0.930 . S
C795 C791 1.400 . S
C795 C794 1.385 . S
C796 C794 1.478 . S
C796 C798 1.381 . S
C796 C802 1.383 . S
C797 C793 1.495 . S
C797 H803 0.959 . S
C797 H804 0.961 . S
C797 H805 0.960 . S
C798 C796 1.381 . S
C798 C799 1.394 . S
C798 H806 0.930 . S
C799 C798 1.394 . S
C799 C800 1.383 . S
C799 H807 0.929 . S
C800 C799 1.383 . S
C800 C801 1.377 . S
C801 H785 0.930 . S
C801 C800 1.377 . S
C801 C802 1.379 . S
C802 H786 0.931 . S
C802 C796 1.383 . S
C802 C801 1.379 . S
H803 C797 0.959 . S
H804 C797 0.961 . S
H805 C797 0.960 . S
H806 C798 0.930 . S
H807 C799 0.929 . S
H808 C816 0.929 . S
H809 C818 0.930 . S
H810 C820 0.930 . S
H811 C823 0.929 . S
H812 C826 0.930 . S
H813 C828 0.960 . S
H814 C828 0.960 . S
H815 C828 0.960 . S
C816 H808 0.929 . S
C816 C817 1.377 . S
C816 C818 1.384 . S
C817 C816 1.377 . S
C817 C823 1.390 . S
C818 H809 0.930 . S
C818 C816 1.384 . S
C818 C819 1.372 . S
C819 C818 1.372 . S
C819 C820 1.400 . S
C819 C824 1.490 . S
C820 H810 0.930 . S
C820 C819 1.400 . S
C820 C823 1.386 . S
H821 C837 0.930 . S
H822 C838 0.931 . S
C823 H811 0.929 . S
C823 C817 1.390 . S
C823 C820 1.386 . S
C824 C819 1.490 . S
C824 C826 1.395 . S
C824 C827 1.403 . S
H825 C831 0.930 . S
C826 H812 0.930 . S
C826 C824 1.395 . S
C826 C829 1.403 . S
C827 C824 1.403 . S
C827 C828 1.524 . S
C827 C831 1.400 . S
C828 H813 0.960 . S
C828 H814 0.960 . S
C828 H815 0.960 . S
C828 C827 1.524 . S
C829 C826 1.403 . S
C829 C830 1.392 . S
C829 C833 1.495 . S
C830 C829 1.392 . S
C830 C831 1.385 . S
C830 C832 1.478 . S
C831 H825 0.930 . S
C831 C827 1.400 . S
C831 C830 1.385 . S
C832 C830 1.478 . S
C832 C834 1.381 . S
C832 C838 1.383 . S
C833 C829 1.495 . S
C833 H839 0.959 . S
C833 H840 0.961 . S
C833 H841 0.960 . S
C834 C832 1.381 . S
C834 C835 1.394 . S
C834 H842 0.930 . S
C835 C834 1.394 . S
C835 C836 1.383 . S
C835 H843 0.929 . S
C836 C835 1.383 . S
C836 C837 1.377 . S
C837 H821 0.930 . S
C837 C836 1.377 . S
C837 C838 1.379 . S
C838 H822 0.931 . S
C838 C832 1.383 . S
C838 C837 1.379 . S
H839 C833 0.959 . S
H840 C833 0.961 . S
H841 C833 0.960 . S
H842 C834 0.930 . S
H843 C835 0.929 . S
H844 C852 0.929 . S
H845 C854 0.930 . S
H846 C856 0.930 . S
H847 C859 0.929 . S
H848 C862 0.930 . S
H849 C864 0.960 . S
H850 C864 0.960 . S
H851 C864 0.960 . S
C852 H844 0.929 . S
C852 C853 1.377 . S
C852 C854 1.384 . S
C853 C852 1.377 . S
C853 C859 1.390 . S
C854 H845 0.930 . S
C854 C852 1.384 . S
C854 C855 1.372 . S
C855 C854 1.372 . S
C855 C856 1.400 . S
C855 C860 1.490 . S
C856 H846 0.930 . S
C856 C855 1.400 . S
C856 C859 1.386 . S
H857 C873 0.930 . S
H858 C874 0.931 . S
C859 H847 0.929 . S
C859 C853 1.390 . S
C859 C856 1.386 . S
C860 C855 1.490 . S
C860 C862 1.395 . S
C860 C863 1.403 . S
H861 C867 0.930 . S
C862 H848 0.930 . S
C862 C860 1.395 . S
C862 C865 1.403 . S
C863 C860 1.403 . S
C863 C864 1.524 . S
C863 C867 1.400 . S
C864 H849 0.960 . S
C864 H850 0.960 . S
C864 H851 0.960 . S
C864 C863 1.524 . S
C865 C862 1.403 . S
C865 C866 1.392 . S
C865 C869 1.495 . S
C866 C865 1.392 . S
C866 C867 1.385 . S
C866 C868 1.478 . S
C867 H861 0.930 . S
C867 C863 1.400 . S
C867 C866 1.385 . S
C868 C866 1.478 . S
C868 C870 1.381 . S
C868 C874 1.383 . S
C869 C865 1.495 . S
C869 H875 0.959 . S
C869 H876 0.961 . S
C869 H877 0.960 . S
C870 C868 1.381 . S
C870 C871 1.394 . S
C870 H878 0.930 . S
C871 C870 1.394 . S
C871 C872 1.383 . S
C871 H879 0.929 1_655 S
C872 C871 1.383 . S
C872 C873 1.377 . S
C873 H857 0.930 . S
C873 C872 1.377 . S
C873 C874 1.379 . S
C874 H858 0.931 . S
C874 C868 1.383 . S
C874 C873 1.379 . S
H875 C869 0.959 . S
H876 C869 0.961 . S
H877 C869 0.960 . S
H878 C870 0.930 . S
H879 C871 0.929 1_455 S
H880 C888 0.929 . S
H881 C890 0.930 . S
H882 C892 0.930 . S
H883 C895 0.929 . S
H884 C898 0.930 . S
H885 C900 0.960 . S
H886 C900 0.960 . S
H887 C900 0.960 . S
C888 H880 0.929 . S
C888 C889 1.377 . S
C888 C890 1.384 . S
C889 C888 1.377 . S
C889 C895 1.390 . S
C890 H881 0.930 . S
C890 C888 1.384 . S
C890 C891 1.372 . S
C891 C890 1.372 . S
C891 C892 1.400 . S
C891 C896 1.490 . S
C892 H882 0.930 . S
C892 C891 1.400 . S
C892 C895 1.386 . S
H893 C909 0.930 . S
H894 C910 0.931 . S
C895 H883 0.929 . S
C895 C889 1.390 . S
C895 C892 1.386 . S
C896 C891 1.490 . S
C896 C898 1.395 . S
C896 C899 1.403 . S
H897 C903 0.930 . S
C898 H884 0.930 . S
C898 C896 1.395 . S
C898 C901 1.403 . S
C899 C896 1.403 . S
C899 C900 1.524 . S
C899 C903 1.400 . S
C900 H885 0.960 . S
C900 H886 0.960 . S
C900 H887 0.960 . S
C900 C899 1.524 . S
C901 C898 1.403 . S
C901 C902 1.392 . S
C901 C905 1.495 . S
C902 C901 1.392 . S
C902 C903 1.385 . S
C902 C904 1.478 . S
C903 H897 0.930 . S
C903 C899 1.400 . S
C903 C902 1.385 . S
C904 C902 1.478 . S
C904 C906 1.381 . S
C904 C910 1.383 . S
C905 C901 1.495 . S
C905 H911 0.959 . S
C905 H912 0.961 . S
C905 H913 0.960 . S
C906 C904 1.381 . S
C906 C907 1.394 . S
C906 H914 0.930 . S
C907 C906 1.394 . S
C907 C908 1.383 . S
C907 H915 0.954 . S
C908 C907 1.383 . S
C908 C909 1.377 . S
C909 H893 0.930 . S
C909 C908 1.377 . S
C909 C910 1.379 . S
C910 H894 0.931 . S
C910 C904 1.383 . S
C910 C909 1.379 . S
H911 C905 0.959 . S
H912 C905 0.961 . S
H913 C905 0.960 . S
H914 C906 0.930 . S
H915 C907 0.954 . S
H916 C924 0.929 . S
H917 C926 0.930 . S
H918 C928 0.930 . S
H919 C931 0.929 . S
H920 C934 0.930 . S
H921 C936 0.960 . S
H922 C936 0.960 . S
H923 C936 0.960 . S
C924 H916 0.929 . S
C924 C925 1.377 . S
C924 C926 1.384 . S
C925 C924 1.377 . S
C925 C931 1.390 . S
C926 H917 0.930 . S
C926 C924 1.384 . S
C926 C927 1.372 . S
C927 C926 1.372 . S
C927 C928 1.400 . S
C927 C932 1.490 . S
C928 H918 0.930 . S
C928 C927 1.400 . S
C928 C931 1.386 . S
H929 C945 0.930 . S
H930 C946 0.931 . S
C931 H919 0.929 . S
C931 C925 1.390 . S
C931 C928 1.386 . S
C932 C927 1.490 . S
C932 C934 1.395 . S
C932 C935 1.403 . S
H933 C939 0.930 . S
C934 H920 0.930 . S
C934 C932 1.395 . S
C934 C937 1.403 . S
C935 C932 1.403 . S
C935 C936 1.524 . S
C935 C939 1.400 . S
C936 H921 0.960 . S
C936 H922 0.960 . S
C936 H923 0.960 . S
C936 C935 1.524 . S
C937 C934 1.403 . S
C937 C938 1.392 . S
C937 C941 1.495 . S
C938 C937 1.392 . S
C938 C939 1.385 . S
C938 C940 1.478 . S
C939 H933 0.930 . S
C939 C935 1.400 . S
C939 C938 1.385 . S
C940 C938 1.478 . S
C940 C942 1.381 . S
C940 C946 1.383 . S
C941 C937 1.495 . S
C941 H947 0.959 . S
C941 H948 0.961 . S
C941 H949 0.960 . S
C942 C940 1.381 . S
C942 C943 1.394 . S
C942 H950 0.930 . S
C943 C942 1.394 . S
C943 C944 1.383 . S
C943 H951 0.929 . S
C944 C943 1.383 . S
C944 C945 1.377 . S
C945 H929 0.930 . S
C945 C944 1.377 . S
C945 C946 1.379 . S
C946 H930 0.931 . S
C946 C940 1.383 . S
C946 C945 1.379 . S
H947 C941 0.959 . S
H948 C941 0.961 . S
H949 C941 0.960 . S
H950 C942 0.930 . S
H951 C943 0.929 . S
H952 C960 0.929 . S
H953 C962 0.930 . S
H954 C964 0.930 . S
H955 C967 0.929 . S
H956 C970 0.930 . S
H957 C972 0.960 . S
H958 C972 0.960 . S
H959 C972 0.960 . S
C960 H952 0.929 . S
C960 C961 1.377 . S
C960 C962 1.384 . S
C961 C960 1.377 . S
C961 C967 1.390 . S
C962 H953 0.930 . S
C962 C960 1.384 . S
C962 C963 1.372 . S
C963 C962 1.372 . S
C963 C964 1.400 . S
C963 C968 1.490 . S
C964 H954 0.930 . S
C964 C963 1.400 . S
C964 C967 1.386 . S
H965 C981 0.930 . S
H966 C982 0.931 . S
C967 H955 0.929 . S
C967 C961 1.390 . S
C967 C964 1.386 . S
C968 C963 1.490 . S
C968 C970 1.395 . S
C968 C971 1.403 . S
H969 C975 0.930 . S
C970 H956 0.930 . S
C970 C968 1.395 . S
C970 C973 1.403 . S
C971 C968 1.403 . S
C971 C972 1.524 . S
C971 C975 1.400 . S
C972 H957 0.960 . S
C972 H958 0.960 . S
C972 H959 0.960 . S
C972 C971 1.524 . S
C973 C970 1.403 . S
C973 C974 1.392 . S
C973 C977 1.495 . S
C974 C973 1.392 . S
C974 C975 1.385 . S
C974 C976 1.478 . S
C975 H969 0.930 . S
C975 C971 1.400 . S
C975 C974 1.385 . S
C976 C974 1.478 . S
C976 C978 1.381 . S
C976 C982 1.383 . S
C977 C973 1.495 . S
C977 H983 0.959 . S
C977 H984 0.961 . S
C977 H985 0.960 . S
C978 C976 1.381 . S
C978 C979 1.394 . S
C978 H986 0.930 . S
C979 C978 1.394 . S
C979 C980 1.383 . S
C979 H987 0.929 . S
C980 C979 1.383 . S
C980 C981 1.377 . S
C981 H965 0.930 . S
C981 C980 1.377 . S
C981 C982 1.379 . S
C982 H966 0.931 . S
C982 C976 1.383 . S
C982 C981 1.379 . S
H983 C977 0.959 . S
H984 C977 0.961 . S
H985 C977 0.960 . S
H986 C978 0.930 . S
H987 C979 0.929 . S
H988 C996 0.929 . S
H989 C998 0.930 . S
H990 C1000 0.930 . S
H991 C1003 0.929 . S
H992 C1006 0.930 . S
H993 C1008 0.960 . S
H994 C1008 0.960 . S
H995 C1008 0.960 . S
C996 H988 0.929 . S
C996 C997 1.377 . S
C996 C998 1.384 . S
C997 C996 1.377 . S
C997 C1003 1.390 . S
C998 H989 0.930 . S
C998 C996 1.384 . S
C998 C999 1.372 . S
C999 C998 1.372 . S
C999 C1000 1.400 . S
C999 C1004 1.490 . S
C1000 H990 0.930 . S
C1000 C999 1.400 . S
C1000 C1003 1.386 . S
H1001 C1017 0.930 . S
H1002 C1018 0.931 . S
C1003 H991 0.929 . S
C1003 C997 1.390 . S
C1003 C1000 1.386 . S
C1004 C999 1.490 . S
C1004 C1006 1.395 . S
C1004 C1007 1.403 . S
H1005 C1011 0.930 . S
C1006 H992 0.930 . S
C1006 C1004 1.395 . S
C1006 C1009 1.403 . S
C1007 C1004 1.403 . S
C1007 C1008 1.524 . S
C1007 C1011 1.400 . S
C1008 H993 0.960 . S
C1008 H994 0.960 . S
C1008 H995 0.960 . S
C1008 C1007 1.524 . S
C1009 C1006 1.403 . S
C1009 C1010 1.392 . S
C1009 C1013 1.495 . S
C1010 C1009 1.392 . S
C1010 C1011 1.385 . S
C1010 C1012 1.478 . S
C1011 H1005 0.930 . S
C1011 C1007 1.400 . S
C1011 C1010 1.385 . S
C1012 C1010 1.478 . S
C1012 C1014 1.381 . S
C1012 C1018 1.383 . S
C1013 C1009 1.495 . S
C1013 H1019 0.959 . S
C1013 H1020 0.961 . S
C1013 H1021 0.960 . S
C1014 C1012 1.381 . S
C1014 C1015 1.394 . S
C1014 H1022 0.930 . S
C1015 C1014 1.394 . S
C1015 C1016 1.383 . S
C1015 H1023 0.929 . S
C1016 C1015 1.383 . S
C1016 C1017 1.377 . S
C1017 H1001 0.930 . S
C1017 C1016 1.377 . S
C1017 C1018 1.379 . S
C1018 H1002 0.931 . S
C1018 C1012 1.383 . S
C1018 C1017 1.379 . S
H1019 C1013 0.959 . S
H1020 C1013 0.961 . S
H1021 C1013 0.960 . S
H1022 C1014 0.930 . S
H1023 C1015 0.929 . S
H1024 C1032 0.929 . S
H1025 C1034 0.930 . S
H1026 C1036 0.930 . S
H1027 C1039 0.929 . S
H1028 C1042 0.930 . S
H1029 C1044 0.960 . S
H1030 C1044 0.960 . S
H1031 C1044 0.960 . S
C1032 H1024 0.929 . S
C1032 C1033 1.377 . S
C1032 C1034 1.384 . S
C1033 C1032 1.377 . S
C1033 C1039 1.390 . S
C1034 H1025 0.930 . S
C1034 C1032 1.384 . S
C1034 C1035 1.372 . S
C1035 C1034 1.372 . S
C1035 C1036 1.400 . S
C1035 C1040 1.490 . S
C1036 H1026 0.930 . S
C1036 C1035 1.400 . S
C1036 C1039 1.386 . S
H1037 C1053 0.892 1_655 S
H1038 C1054 0.931 . S
C1039 H1027 0.929 . S
C1039 C1033 1.390 . S
C1039 C1036 1.386 . S
C1040 C1035 1.490 . S
C1040 C1042 1.395 . S
C1040 C1043 1.403 . S
H1041 C1047 0.930 . S
C1042 H1028 0.930 . S
C1042 C1040 1.395 . S
C1042 C1045 1.403 . S
C1043 C1040 1.403 . S
C1043 C1044 1.524 . S
C1043 C1047 1.400 . S
C1044 H1029 0.960 . S
C1044 H1030 0.960 . S
C1044 H1031 0.960 . S
C1044 C1043 1.524 . S
C1045 C1042 1.403 . S
C1045 C1046 1.392 . S
C1045 C1049 1.495 . S
C1046 C1045 1.392 . S
C1046 C1047 1.385 . S
C1046 C1048 1.478 . S
C1047 H1041 0.930 . S
C1047 C1043 1.400 . S
C1047 C1046 1.385 . S
C1048 C1046 1.478 . S
C1048 C1050 1.381 . S
C1048 C1054 1.383 . S
C1049 C1045 1.495 . S
C1049 H1055 0.959 . S
C1049 H1056 0.961 . S
C1049 H1057 0.960 . S
C1050 C1048 1.381 . S
C1050 C1051 1.394 . S
C1050 H1058 0.930 . S
C1051 C1050 1.394 . S
C1051 C1052 1.383 . S
C1051 H1059 0.929 . S
C1052 C1051 1.383 . S
C1052 C1053 1.377 . S
C1053 H1037 0.892 1_455 S
C1053 C1052 1.377 . S
C1053 C1054 1.379 . S
C1054 H1038 0.931 . S
C1054 C1048 1.383 . S
C1054 C1053 1.379 . S
H1055 C1049 0.959 . S
H1056 C1049 0.961 . S
H1057 C1049 0.960 . S
H1058 C1050 0.930 . S
H1059 C1051 0.929 . S
H1060 C1068 0.929 . S
H1061 C1070 0.930 . S
H1062 C1072 0.930 . S
H1063 C1075 0.929 . S
H1064 C1078 0.930 . S
H1065 C1080 0.960 . S
H1066 C1080 0.960 . S
H1067 C1080 0.960 . S
C1068 H1060 0.929 . S
C1068 C1069 1.377 . S
C1068 C1070 1.384 . S
C1069 C1068 1.377 . S
C1069 C1075 1.390 . S
C1070 H1061 0.930 . S
C1070 C1068 1.384 . S
C1070 C1071 1.372 . S
C1071 C1070 1.372 . S
C1071 C1072 1.400 . S
C1071 C1076 1.490 . S
C1072 H1062 0.930 . S
C1072 C1071 1.400 . S
C1072 C1075 1.386 . S
H1073 C1089 0.930 . S
H1074 C1090 0.931 . S
C1075 H1063 0.929 . S
C1075 C1069 1.390 . S
C1075 C1072 1.386 . S
C1076 C1071 1.490 . S
C1076 C1078 1.395 . S
C1076 C1079 1.403 . S
H1077 C1083 0.930 . S
C1078 H1064 0.930 . S
C1078 C1076 1.395 . S
C1078 C1081 1.403 . S
C1079 C1076 1.403 . S
C1079 C1080 1.524 . S
C1079 C1083 1.400 . S
C1080 H1065 0.960 . S
C1080 H1066 0.960 . S
C1080 H1067 0.960 . S
C1080 C1079 1.524 . S
C1081 C1078 1.403 . S
C1081 C1082 1.392 . S
C1081 C1085 1.495 . S
C1082 C1081 1.392 . S
C1082 C1083 1.385 . S
C1082 C1084 1.478 . S
C1083 H1077 0.930 . S
C1083 C1079 1.400 . S
C1083 C1082 1.385 . S
C1084 C1082 1.478 . S
C1084 C1086 1.381 . S
C1084 C1090 1.383 . S
C1085 C1081 1.495 . S
C1085 H1091 0.959 . S
C1085 H1092 0.961 . S
C1085 H1093 0.960 . S
C1086 C1084 1.381 . S
C1086 C1087 1.394 . S
C1086 H1094 0.930 . S
C1087 C1086 1.394 . S
C1087 C1088 1.383 . S
C1087 H1095 0.929 . S
C1088 C1087 1.383 . S
C1088 C1089 1.377 . S
C1089 H1073 0.930 . S
C1089 C1088 1.377 . S
C1089 C1090 1.379 . S
C1090 H1074 0.931 . S
C1090 C1084 1.383 . S
C1090 C1089 1.379 . S
H1091 C1085 0.959 . S
H1092 C1085 0.961 . S
H1093 C1085 0.960 . S
H1094 C1086 0.930 . S
H1095 C1087 0.929 . S
C241 C5 1.003 . S
C260 C89 1.025 . S
C277 C14 0.987 . S
C296 C129 1.010 . S
C332 C154 2.360 . S
C313 C25 2.426 . S
C349 C34 2.422 . S
C368 C194 2.376 . S
C404 C125 1.546 . S
C385 C7 1.515 . S
C440 C85 1.572 . S
C421 C13 1.536 . S
C476 C216 1.616 . S
C457 C23 1.654 . S
C512 C176 1.613 . S
C493 C31 1.653 . S
C529 C4 1.124 . S
C548 C218 1.128 . S
C584 C135 2.118 . S
C565 C22 2.152 . S
C601 C32 2.167 . S
C620 C95 2.120 . S
C637 C16 1.119 . S
C656 C178 1.145 . S
C692 C98 0.983 . S
C673 C41 0.986 . S
C709 C50 0.990 . S
C728 C138 0.990 . S
C745 C61 2.419 . S
C764 C175 2.358 . S
C781 C67 2.434 . S
C800 C215 2.385 . S
C817 C40 1.546 . S
C836 C136 1.567 . S
C872 C96 1.548 . S
C853 C52 1.514 . S
C908 C205 1.647 . S
C889 C59 1.663 . S
C944 C165 1.623 . S
C925 C70 1.649 . S
C961 C43 1.117 . S
C980 C209 1.116 . S
C1016 C114 2.143 . S
C997 C58 2.168 . S
C1052 C74 2.106 . S
C1033 C68 2.143 . S
C1069 C49 1.119 . S
C1088 C169 1.120 . S
