# Generated by pormake.
# Topology ssb, (4,4)-cn, num edge types: 1
# Building blocks:
#     Node 0, Type 0, BuildingBlock: MIFKUJ_clean_linker_1, # of connection points: 4
#     Node 1, Type 0, BuildingBlock: MIFKUJ_clean_linker_1, # of connection points: 4
#     Node 2, Type 0, BuildingBlock: MIFKUJ_clean_linker_1, # of connection points: 4
#     Node 3, Type 0, BuildingBlock: MIFKUJ_clean_linker_1, # of connection points: 4
#     Node 4, Type 0, BuildingBlock: MIFKUJ_clean_linker_1, # of connection points: 4
#     Node 5, Type 0, BuildingBlock: MIFKUJ_clean_linker_1, # of connection points: 4
#     Node 6, Type 0, BuildingBlock: MIFKUJ_clean_linker_1, # of connection points: 4
#     Node 7, Type 0, BuildingBlock: MIFKUJ_clean_linker_1, # of connection points: 4
#     Node 8, Type 1, BuildingBlock: NAWXER_clean_sbu_0, # of connection points: 4
#     Node 9, Type 1, BuildingBlock: NAWXER_clean_sbu_0, # of connection points: 4
#     Node 10, Type 1, BuildingBlock: NAWXER_clean_sbu_0, # of connection points: 4
#     Node 11, Type 1, BuildingBlock: NAWXER_clean_sbu_0, # of connection points: 4
#     Node 12, Type 1, BuildingBlock: NAWXER_clean_sbu_0, # of connection points: 4
#     Node 13, Type 1, BuildingBlock: NAWXER_clean_sbu_0, # of connection points: 4
#     Node 14, Type 1, BuildingBlock: NAWXER_clean_sbu_0, # of connection points: 4
#     Node 15, Type 1, BuildingBlock: NAWXER_clean_sbu_0, # of connection points: 4
#     Edge 16, Type (0, 1), BuildingBlock: XUDNAN_clean_linker_2, # of connection points: 2
#     Edge 17, Type (0, 1), BuildingBlock: XUDNAN_clean_linker_2, # of connection points: 2
#     Edge 18, Type (0, 1), BuildingBlock: XUDNAN_clean_linker_2, # of connection points: 2
#     Edge 19, Type (0, 1), BuildingBlock: XUDNAN_clean_linker_2, # of connection points: 2
#     Edge 20, Type (0, 1), BuildingBlock: XUDNAN_clean_linker_2, # of connection points: 2
#     Edge 21, Type (0, 1), BuildingBlock: XUDNAN_clean_linker_2, # of connection points: 2
#     Edge 22, Type (0, 1), BuildingBlock: XUDNAN_clean_linker_2, # of connection points: 2
#     Edge 23, Type (0, 1), BuildingBlock: XUDNAN_clean_linker_2, # of connection points: 2
#     Edge 24, Type (0, 1), BuildingBlock: XUDNAN_clean_linker_2, # of connection points: 2
#     Edge 25, Type (0, 1), BuildingBlock: XUDNAN_clean_linker_2, # of connection points: 2
#     Edge 26, Type (0, 1), BuildingBlock: XUDNAN_clean_linker_2, # of connection points: 2
#     Edge 27, Type (0, 1), BuildingBlock: XUDNAN_clean_linker_2, # of connection points: 2
#     Edge 28, Type (0, 1), BuildingBlock: XUDNAN_clean_linker_2, # of connection points: 2
#     Edge 29, Type (0, 1), BuildingBlock: XUDNAN_clean_linker_2, # of connection points: 2
#     Edge 30, Type (0, 1), BuildingBlock: XUDNAN_clean_linker_2, # of connection points: 2
#     Edge 31, Type (0, 1), BuildingBlock: XUDNAN_clean_linker_2, # of connection points: 2
#     Edge 32, Type (0, 1), BuildingBlock: XUDNAN_clean_linker_2, # of connection points: 2
#     Edge 33, Type (0, 1), BuildingBlock: XUDNAN_clean_linker_2, # of connection points: 2
#     Edge 34, Type (0, 1), BuildingBlock: XUDNAN_clean_linker_2, # of connection points: 2
#     Edge 35, Type (0, 1), BuildingBlock: XUDNAN_clean_linker_2, # of connection points: 2
#     Edge 36, Type (0, 1), BuildingBlock: XUDNAN_clean_linker_2, # of connection points: 2
#     Edge 37, Type (0, 1), BuildingBlock: XUDNAN_clean_linker_2, # of connection points: 2
#     Edge 38, Type (0, 1), BuildingBlock: XUDNAN_clean_linker_2, # of connection points: 2
#     Edge 39, Type (0, 1), BuildingBlock: XUDNAN_clean_linker_2, # of connection points: 2
#     Edge 40, Type (0, 1), BuildingBlock: XUDNAN_clean_linker_2, # of connection points: 2
#     Edge 41, Type (0, 1), BuildingBlock: XUDNAN_clean_linker_2, # of connection points: 2
#     Edge 42, Type (0, 1), BuildingBlock: XUDNAN_clean_linker_2, # of connection points: 2
#     Edge 43, Type (0, 1), BuildingBlock: XUDNAN_clean_linker_2, # of connection points: 2
#     Edge 44, Type (0, 1), BuildingBlock: XUDNAN_clean_linker_2, # of connection points: 2
#     Edge 45, Type (0, 1), BuildingBlock: XUDNAN_clean_linker_2, # of connection points: 2
#     Edge 46, Type (0, 1), BuildingBlock: XUDNAN_clean_linker_2, # of connection points: 2
#     Edge 47, Type (0, 1), BuildingBlock: XUDNAN_clean_linker_2, # of connection points: 2
# Relax obj value: 0.000
# Max RMSD: 0.000
# Mean RMSD: 0.000
data_MOF--net-ssb--node1-NAWXER_clean_sbu_0--node2-MIFKUJ_clean_linker_1--edge1-XUDNAN_clean_linker_2
_symmetry_space_group_name_H-M    P1
_symmetry_Int_Tables_number       1
_symmetry_cell_setting            triclinic
loop_
_symmetry_equiv_pos_as_xyz
'x, y, z'
_cell_length_a     53.768071
_cell_length_b     53.851645
_cell_length_c     46.687567
_cell_angle_alpha  89.958883
_cell_angle_beta   89.89681
_cell_angle_gamma 89.966555
loop_
_atom_site_label
_atom_site_type_symbol
_atom_site_fract_x
_atom_site_fract_y
_atom_site_fract_z
_atom_type_partial_charge
H0 H 0.3164 0.23233 0.22833 0.0
H1 H 0.35368 0.23621 0.19845 0.0
H2 H 0.36268 0.31205 0.22599 0.0
H3 H 0.32619 0.30785 0.25725 0.0
H4 H 0.3111 0.23362 0.28326 0.0
H5 H 0.2781 0.28638 0.20564 0.0
H6 H 0.27815 0.32374 0.17557 0.0
H7 H 0.27415 0.36927 0.25167 0.0
H8 H 0.2735 0.33199 0.28131 0.0
H9 H 0.23091 0.29362 0.33501 0.0
H10 H 0.1912 0.28873 0.36021 0.0
H11 H 0.18883 0.2116 0.33592 0.0
H12 H 0.22785 0.21664 0.30934 0.0
H13 H 0.24044 0.29274 0.28282 0.0
H14 H 0.28021 0.24672 0.35993 0.0
H15 H 0.28723 0.21316 0.39469 0.0
H16 H 0.2831 0.15925 0.32654 0.0
H17 H 0.27685 0.19291 0.2917 0.0
C18 C 0.31813 0.26987 0.24487 0.0
C19 C 0.32633 0.24982 0.22805 0.0
C20 C 0.34753 0.25206 0.21087 0.0
C21 C 0.36077 0.2745 0.20981 0.0
C22 C 0.35249 0.2947 0.2262 0.0
C23 C 0.33158 0.2923 0.24393 0.0
C24 C 0.29607 0.26679 0.264 0.0
C25 C 0.29547 0.24637 0.28281 0.0
C26 C 0.27608 0.28395 0.26441 0.0
C27 C 0.27571 0.30637 0.24575 0.0
C28 C 0.27721 0.30444 0.21577 0.0
C29 C 0.27743 0.32584 0.19862 0.0
C30 C 0.27607 0.3496 0.21112 0.0
C31 C 0.27474 0.35135 0.24119 0.0
C32 C 0.2744 0.33002 0.25824 0.0
C33 C 0.23274 0.25549 0.3203 0.0
C34 C 0.22206 0.27555 0.33521 0.0
C35 C 0.19946 0.27275 0.34979 0.0
C36 C 0.18722 0.24973 0.35022 0.0
C37 C 0.19819 0.22941 0.33629 0.0
C38 C 0.2206 0.23231 0.32123 0.0
C39 C 0.25531 0.25938 0.302 0.0
C40 C 0.25599 0.27992 0.28325 0.0
C41 C 0.27568 0.24268 0.30207 0.0
C42 C 0.27789 0.22227 0.32328 0.0
C43 C 0.28065 0.22766 0.35252 0.0
C44 C 0.28478 0.20855 0.37229 0.0
C45 C 0.28572 0.18369 0.36321 0.0
C46 C 0.28234 0.17827 0.33405 0.0
C47 C 0.27881 0.19743 0.31419 0.0
H48 H 0.70464 0.22675 0.23158 0.0
H49 H 0.66855 0.21901 0.20113 0.0
H50 H 0.71216 0.23687 0.1263 0.0
H51 H 0.74876 0.24332 0.15658 0.0
H52 H 0.74528 0.20476 0.23784 0.0
H53 H 0.72802 0.29109 0.20838 0.0
H54 H 0.72554 0.32914 0.17971 0.0
H55 H 0.79812 0.31362 0.14405 0.0
H56 H 0.80026 0.27549 0.17234 0.0
H57 H 0.84049 0.25899 0.24279 0.0
H58 H 0.87253 0.271 0.27728 0.0
H59 H 0.82262 0.25367 0.34693 0.0
H60 H 0.79018 0.24279 0.31251 0.0
H61 H 0.7995 0.27891 0.23137 0.0
H62 H 0.81874 0.19472 0.25691 0.0
H63 H 0.82841 0.16128 0.29034 0.0
H64 H 0.75793 0.1734 0.33306 0.0
H65 H 0.74796 0.2059 0.2984 0.0
C66 C 0.72959 0.23593 0.19662 0.0
C67 C 0.70662 0.2289 0.20862 0.0
C68 C 0.68594 0.2245 0.19122 0.0
C69 C 0.68756 0.22738 0.16138 0.0
C70 C 0.71034 0.23477 0.14928 0.0
C71 C 0.73124 0.23865 0.16666 0.0
C72 C 0.75177 0.23935 0.21554 0.0
C73 C 0.75689 0.22119 0.2365 0.0
C74 C 0.76798 0.26003 0.21324 0.0
C75 C 0.7643 0.28048 0.19244 0.0
C76 C 0.74307 0.29557 0.19381 0.0
C77 C 0.74181 0.3174 0.17763 0.0
C78 C 0.76178 0.32451 0.15986 0.0
C79 C 0.78238 0.3086 0.15736 0.0
C80 C 0.78366 0.28686 0.1736 0.0
C81 C 0.81287 0.24964 0.27487 0.0
C82 C 0.83638 0.25769 0.26547 0.0
C83 C 0.8547 0.26457 0.28517 0.0
C84 C 0.85004 0.26325 0.31475 0.0
C85 C 0.8268 0.25459 0.32424 0.0
C86 C 0.8083 0.24817 0.30452 0.0
C87 C 0.79262 0.24467 0.25374 0.0
C88 C 0.78795 0.26242 0.23243 0.0
C89 C 0.77722 0.22342 0.25524 0.0
C90 C 0.78269 0.2028 0.27528 0.0
C91 C 0.80535 0.19002 0.27342 0.0
C92 C 0.81092 0.17102 0.29277 0.0
C93 C 0.79407 0.16462 0.31471 0.0
C94 C 0.77124 0.17742 0.31627 0.0
C95 C 0.76551 0.19614 0.29656 0.0
H96 H 0.71252 0.77328 0.22794 0.0
H97 H 0.68258 0.77549 0.18908 0.0
H98 H 0.65514 0.70257 0.21176 0.0
H99 H 0.68386 0.70143 0.25219 0.0
H100 H 0.71155 0.77104 0.28251 0.0
H101 H 0.73908 0.7162 0.20831 0.0
H102 H 0.7369 0.68146 0.17456 0.0
H103 H 0.73052 0.63028 0.24539 0.0
H104 H 0.73193 0.66506 0.27907 0.0
H105 H 0.76815 0.69786 0.34674 0.0
H106 H 0.80528 0.69365 0.37653 0.0
H107 H 0.83361 0.76261 0.34212 0.0
H108 H 0.79638 0.76678 0.31265 0.0
H109 H 0.76731 0.69795 0.2896 0.0
H110 H 0.73343 0.75576 0.36237 0.0
H111 H 0.73141 0.79256 0.3934 0.0
H112 H 0.7531 0.83883 0.32206 0.0
H113 H 0.75462 0.80212 0.29106 0.0
C114 C 0.70084 0.73698 0.2427 0.0
C115 C 0.69975 0.75795 0.22492 0.0
C116 C 0.68282 0.759 0.20236 0.0
C117 C 0.66679 0.73893 0.19674 0.0
C118 C 0.66714 0.71839 0.21538 0.0
C119 C 0.68379 0.71757 0.23835 0.0
C120 C 0.72058 0.73517 0.26488 0.0
C121 C 0.72384 0.75509 0.28389 0.0
C122 C 0.73651 0.71428 0.26694 0.0
C123 C 0.73537 0.6933 0.24627 0.0
C124 C 0.7368 0.69755 0.21659 0.0
C125 C 0.73552 0.67772 0.19731 0.0
C126 C 0.73342 0.65323 0.20739 0.0
C127 C 0.7322 0.64899 0.23707 0.0
C128 C 0.73309 0.66882 0.25631 0.0
C129 C 0.77931 0.73277 0.32767 0.0
C130 C 0.78223 0.71223 0.34591 0.0
C131 C 0.80356 0.70975 0.36276 0.0
C132 C 0.82253 0.72772 0.36162 0.0
C133 C 0.81925 0.7486 0.34386 0.0
C134 C 0.7979 0.75106 0.32702 0.0
C135 C 0.75814 0.73376 0.30729 0.0
C136 C 0.75479 0.71372 0.2884 0.0
C137 C 0.74243 0.75471 0.30494 0.0
C138 C 0.74425 0.77627 0.32449 0.0
C139 C 0.73808 0.77379 0.35357 0.0
C140 C 0.73678 0.79479 0.37117 0.0
C141 C 0.74202 0.81849 0.36005 0.0
C142 C 0.74911 0.82076 0.33119 0.0
C143 C 0.74995 0.79985 0.31349 0.0
H144 H 0.19406 0.75897 0.2826 0.0
H145 H 0.1576 0.76288 0.31328 0.0
H146 H 0.14903 0.83932 0.2863 0.0
H147 H 0.1839 0.83437 0.25363 0.0
H148 H 0.20486 0.76011 0.22941 0.0
H149 H 0.23075 0.80982 0.30966 0.0
H150 H 0.23014 0.84397 0.34422 0.0
H151 H 0.23386 0.89667 0.27443 0.0
H152 H 0.23517 0.86244 0.24021 0.0
H153 H 0.26279 0.78294 0.15695 0.0
H154 H 0.30032 0.78476 0.12715 0.0
H155 H 0.34409 0.80259 0.20165 0.0
H156 H 0.30698 0.79933 0.23178 0.0
H157 H 0.26954 0.82552 0.23504 0.0
H158 H 0.20959 0.75265 0.17344 0.0
H159 H 0.21583 0.7154 0.1442 0.0
H160 H 0.28565 0.70192 0.18722 0.0
H161 H 0.27942 0.73921 0.21603 0.0
C162 C 0.19216 0.79653 0.26622 0.0
C163 C 0.18402 0.77641 0.28287 0.0
C164 C 0.16332 0.77886 0.30083 0.0
C165 C 0.15049 0.80163 0.30293 0.0
C166 C 0.15817 0.82143 0.28532 0.0
C167 C 0.17847 0.81876 0.26686 0.0
C168 C 0.21553 0.79468 0.24917 0.0
C169 C 0.21904 0.77438 0.23061 0.0
C170 C 0.23441 0.81288 0.25133 0.0
C171 C 0.23309 0.83359 0.27234 0.0
C172 C 0.2313 0.82876 0.30186 0.0
C173 C 0.23078 0.84834 0.32159 0.0
C174 C 0.23207 0.87315 0.31219 0.0
C175 C 0.23332 0.87783 0.28253 0.0
C176 C 0.23401 0.85829 0.26288 0.0
C177 C 0.28192 0.79072 0.19681 0.0
C178 C 0.2805 0.78659 0.1671 0.0
C179 C 0.3019 0.78782 0.15001 0.0
C180 C 0.32497 0.79394 0.16217 0.0
C181 C 0.32645 0.79803 0.19178 0.0
C182 C 0.30522 0.79621 0.20895 0.0
C183 C 0.25908 0.79094 0.21506 0.0
C184 C 0.25554 0.81107 0.23381 0.0
C185 C 0.24075 0.77198 0.21391 0.0
C186 C 0.24422 0.749 0.19663 0.0
C187 C 0.2262 0.7416 0.17662 0.0
C188 C 0.22974 0.72022 0.15999 0.0
C189 C 0.25136 0.70573 0.16313 0.0
C190 C 0.26905 0.71289 0.18374 0.0
C191 C 0.2655 0.73423 0.2003 0.0
H192 H 0.20732 0.72823 0.73022 0.0
H193 H 0.17203 0.7367 0.69854 0.0
H194 H 0.22194 0.74178 0.62634 0.0
H195 H 0.25752 0.73384 0.65829 0.0
H196 H 0.24433 0.69133 0.72961 0.0
H197 H 0.23413 0.77875 0.71706 0.0
H198 H 0.23147 0.81799 0.69172 0.0
H199 H 0.30873 0.8112 0.66696 0.0
H200 H 0.31056 0.77064 0.6905 0.0
H201 H 0.34371 0.72696 0.75701 0.0
H202 H 0.37312 0.72132 0.79661 0.0
H203 H 0.31173 0.71035 0.85501 0.0
H204 H 0.28244 0.71668 0.81566 0.0
H205 H 0.30539 0.75896 0.74567 0.0
H206 H 0.31566 0.67212 0.76528 0.0
H207 H 0.31677 0.63647 0.79799 0.0
H208 H 0.2382 0.64521 0.81405 0.0
H209 H 0.23731 0.68152 0.78258 0.0
C210 C 0.23501 0.73053 0.6966 0.0
C211 C 0.21067 0.73083 0.70752 0.0
C212 C 0.19058 0.73572 0.6895 0.0
C213 C 0.19443 0.73982 0.66016 0.0
C214 C 0.21864 0.7385 0.64893 0.0
C215 C 0.23887 0.73406 0.6671 0.0
C216 C 0.25619 0.72784 0.71663 0.0
C217 C 0.25773 0.70606 0.73312 0.0
C218 C 0.27386 0.74707 0.72072 0.0
C219 C 0.27236 0.77126 0.70518 0.0
C220 C 0.25034 0.7853 0.70555 0.0
C221 C 0.24903 0.80814 0.69144 0.0
C222 C 0.26996 0.81811 0.67733 0.0
C223 C 0.2921 0.8041 0.67717 0.0
C224 C 0.29325 0.78095 0.6909 0.0
C225 C 0.31093 0.72183 0.7833 0.0
C226 C 0.33661 0.72373 0.77842 0.0
C227 C 0.35335 0.7204 0.80099 0.0
C228 C 0.34464 0.715 0.82872 0.0
C229 C 0.31892 0.71399 0.83373 0.0
C230 C 0.30221 0.7177 0.8113 0.0
C231 C 0.29319 0.72265 0.75901 0.0
C232 C 0.29238 0.74398 0.74166 0.0
C233 C 0.27607 0.70309 0.75422 0.0
C234 C 0.27645 0.67983 0.77167 0.0
C235 C 0.29868 0.66651 0.77599 0.0
C236 C 0.29934 0.64616 0.79467 0.0
C237 C 0.27761 0.63821 0.80862 0.0
C238 C 0.25522 0.65093 0.80348 0.0
C239 C 0.25467 0.67159 0.78534 0.0
H240 H 0.30146 0.25097 0.79707 0.0
H241 H 0.33411 0.24967 0.8335 0.0
H242 H 0.27823 0.25265 0.89991 0.0
H243 H 0.24558 0.25314 0.8635 0.0
H244 H 0.26532 0.22165 0.78316 0.0
H245 H 0.26608 0.30824 0.81963 0.0
H246 H 0.26043 0.34204 0.85409 0.0
H247 H 0.18783 0.31306 0.87591 0.0
H248 H 0.19339 0.27991 0.84086 0.0
H249 H 0.16547 0.26423 0.76386 0.0
H250 H 0.13685 0.27524 0.72519 0.0
H251 H 0.19566 0.26539 0.66337 0.0
H252 H 0.22485 0.25579 0.70215 0.0
H253 H 0.20123 0.28771 0.78244 0.0
H254 H 0.19526 0.2064 0.74316 0.0
H255 H 0.19759 0.17042 0.71104 0.0
H256 H 0.27593 0.18404 0.69839 0.0
H257 H 0.27351 0.2202 0.7298 0.0
C258 C 0.27095 0.25268 0.82738 0.0
C259 C 0.29616 0.2511 0.81947 0.0
C260 C 0.31485 0.25028 0.84031 0.0
C261 C 0.30876 0.2512 0.86957 0.0
C262 C 0.28352 0.25227 0.87751 0.0
C263 C 0.26483 0.25273 0.85667 0.0
C264 C 0.25127 0.25399 0.80489 0.0
C265 C 0.25145 0.23629 0.78271 0.0
C266 C 0.23234 0.2723 0.80508 0.0
C267 C 0.23018 0.29154 0.82772 0.0
C268 C 0.24908 0.30908 0.83209 0.0
C269 C 0.24582 0.32835 0.85189 0.0
C270 C 0.22356 0.33044 0.86774 0.0
C271 C 0.20497 0.31241 0.86373 0.0
C272 C 0.20819 0.2933 0.84384 0.0
C273 C 0.19744 0.25902 0.73612 0.0
C274 C 0.17233 0.26436 0.74203 0.0
C275 C 0.15594 0.2706 0.71997 0.0
C276 C 0.16416 0.27115 0.69146 0.0
C277 C 0.18893 0.2649 0.68525 0.0
C278 C 0.20553 0.25922 0.70741 0.0
C279 C 0.21542 0.2556 0.76016 0.0
C280 C 0.21494 0.27291 0.7827 0.0
C281 C 0.23365 0.23655 0.76054 0.0
C282 C 0.23423 0.21611 0.73901 0.0
C283 C 0.21283 0.20201 0.73296 0.0
C284 C 0.21415 0.18143 0.71463 0.0
C285 C 0.23698 0.17434 0.70243 0.0
C286 C 0.25815 0.1889 0.70778 0.0
C287 C 0.25678 0.20956 0.72578 0.0
H288 H 0.70313 0.2247 0.79829 0.0
H289 H 0.6651 0.22574 0.82716 0.0
H290 H 0.65283 0.30198 0.80254 0.0
H291 H 0.69016 0.30059 0.77232 0.0
H292 H 0.71342 0.22796 0.74512 0.0
H293 H 0.73506 0.27495 0.82669 0.0
H294 H 0.72499 0.30713 0.8618 0.0
H295 H 0.73473 0.36339 0.79689 0.0
H296 H 0.74387 0.33102 0.76137 0.0
H297 H 0.78375 0.29766 0.69735 0.0
H298 H 0.82169 0.29869 0.66843 0.0
H299 H 0.83959 0.22422 0.69567 0.0
H300 H 0.80205 0.22354 0.72552 0.0
H301 H 0.77699 0.29432 0.75328 0.0
H302 H 0.74954 0.24048 0.6713 0.0
H303 H 0.75649 0.20421 0.64021 0.0
H304 H 0.76246 0.15739 0.71496 0.0
H305 H 0.75502 0.19343 0.74582 0.0
C306 C 0.6998 0.26263 0.78328 0.0
C307 C 0.69216 0.24158 0.79875 0.0
C308 C 0.67053 0.24222 0.81539 0.0
C309 C 0.65625 0.26402 0.81723 0.0
C310 C 0.66374 0.28507 0.80175 0.0
C311 C 0.68508 0.28425 0.78453 0.0
C312 C 0.72339 0.26205 0.76636 0.0
C313 C 0.72736 0.24242 0.7471 0.0
C314 C 0.74185 0.2807 0.7691 0.0
C315 C 0.7397 0.3005 0.7912 0.0
C316 C 0.73508 0.2942 0.81996 0.0
C317 C 0.72926 0.31256 0.84 0.0
C318 C 0.72871 0.33767 0.83191 0.0
C319 C 0.73494 0.34414 0.80361 0.0
C320 C 0.74029 0.32569 0.78337 0.0
C321 C 0.78971 0.26045 0.71348 0.0
C322 C 0.7958 0.28153 0.69721 0.0
C323 C 0.81747 0.28207 0.68059 0.0
C324 C 0.83356 0.26148 0.67969 0.0
C325 C 0.82736 0.24021 0.69562 0.0
C326 C 0.80583 0.23982 0.71263 0.0
C327 C 0.76676 0.26044 0.73159 0.0
C328 C 0.76296 0.27998 0.75121 0.0
C329 C 0.74878 0.24128 0.72992 0.0
C330 C 0.75191 0.21958 0.71081 0.0
C331 C 0.75213 0.22235 0.6809 0.0
C332 C 0.756 0.20169 0.66323 0.0
C333 C 0.76007 0.17813 0.6753 0.0
C334 C 0.75949 0.17541 0.7052 0.0
C335 C 0.75517 0.19591 0.72279 0.0
H336 H 0.8084 0.73259 0.72028 0.0
H337 H 0.84551 0.73262 0.69009 0.0
H338 H 0.86042 0.80855 0.71412 0.0
H339 H 0.82366 0.80823 0.74536 0.0
H340 H 0.8008 0.73603 0.77381 0.0
H341 H 0.77572 0.78116 0.69308 0.0
H342 H 0.78528 0.81213 0.65637 0.0
H343 H 0.77885 0.87036 0.71939 0.0
H344 H 0.77025 0.8391 0.75659 0.0
H345 H 0.73027 0.79623 0.8311 0.0
H346 H 0.69255 0.79026 0.85993 0.0
H347 H 0.67228 0.72785 0.80662 0.0
H348 H 0.71024 0.73356 0.77865 0.0
H349 H 0.736 0.80141 0.76628 0.0
H350 H 0.76179 0.74395 0.84704 0.0
H351 H 0.75678 0.70535 0.87477 0.0
H352 H 0.75536 0.66335 0.79603 0.0
H353 H 0.76056 0.7017 0.76861 0.0
C354 C 0.81314 0.7704 0.73511 0.0
C355 C 0.81977 0.74917 0.71941 0.0
C356 C 0.8409 0.74923 0.70207 0.0
C357 C 0.85575 0.77059 0.69983 0.0
C358 C 0.84913 0.79193 0.71535 0.0
C359 C 0.82817 0.79173 0.73316 0.0
C360 C 0.79022 0.77015 0.753 0.0
C361 C 0.78671 0.75039 0.77212 0.0
C362 C 0.7715 0.78857 0.75046 0.0
C363 C 0.77289 0.80779 0.72771 0.0
C364 C 0.77626 0.80059 0.69904 0.0
C365 C 0.78173 0.81824 0.6781 0.0
C366 C 0.78315 0.84348 0.68526 0.0
C367 C 0.77794 0.85093 0.71348 0.0
C368 C 0.77294 0.83315 0.73465 0.0
C369 C 0.72312 0.76515 0.80302 0.0
C370 C 0.71753 0.78141 0.82559 0.0
C371 C 0.69592 0.77802 0.84194 0.0
C372 C 0.67947 0.7584 0.83581 0.0
C373 C 0.68477 0.7428 0.81239 0.0
C374 C 0.70638 0.7461 0.79625 0.0
C375 C 0.74685 0.76733 0.78711 0.0
C376 C 0.75042 0.78743 0.76831 0.0
C377 C 0.76507 0.74845 0.78866 0.0
C378 C 0.76145 0.72561 0.80582 0.0
C379 C 0.76035 0.7264 0.83585 0.0
C380 C 0.75767 0.7044 0.85161 0.0
C381 C 0.75569 0.68144 0.83748 0.0
C382 C 0.75668 0.68082 0.80743 0.0
C383 C 0.75971 0.70267 0.79178 0.0
C384 C 0.97497 0.25685 0.5453 0.0
C385 C 0.03721 0.24708 0.46793 0.0
O386 O 0.98322 0.27708 0.53446 0.0
Zn387 Zn 0.00798 0.28982 0.50217 0.0
O388 O 0.98253 0.23616 0.53533 0.0
Zn389 Zn 1.0058 0.25004 0.50652 0.0
O390 O 0.03317 0.26789 0.53285 0.0
O391 O 0.03189 0.30829 0.52481 0.0
O392 O 0.02746 0.22931 0.48205 0.0
O393 O 0.03111 0.26951 0.47362 0.0
O394 O 0.9861 0.3067 0.47557 0.0
O395 O 0.98054 0.26609 0.47591 0.0
C396 C 0.04132 0.28983 0.53793 0.0
C397 C 0.97487 0.28762 0.46608 0.0
C398 C 0.77174 0.03949 0.53898 0.0
C399 C 0.75513 0.97294 0.47056 0.0
O400 O 0.79161 0.02934 0.52925 0.0
Zn401 Zn 0.80168 1.00144 0.49844 0.0
O402 O 0.75069 0.03262 0.52953 0.0
Zn403 Zn 0.76304 0.00726 0.50367 0.0
O404 O 0.77979 0.98073 0.53272 0.0
O405 O 0.81969 0.97814 0.52174 0.0
O406 O 0.73943 0.98655 0.48356 0.0
O407 O 0.77845 0.9769 0.47403 0.0
O408 O 0.81995 0.01986 0.47007 0.0
O409 O 0.78 0.02907 0.47027 0.0
C410 C 0.8014 0.9713 0.53712 0.0
C411 C 0.8019 0.03224 0.45993 0.0
C412 C 0.98041 0.77798 0.54699 0.0
C413 C 0.03077 0.79402 0.46165 0.0
O414 O 0.98242 0.79866 0.53399 0.0
Zn415 Zn 1.00436 0.78681 0.5037 0.0
O416 O 0.99139 0.7587 0.53698 0.0
Zn417 Zn 0.0148 0.7484 0.50181 0.0
O418 O 0.04404 0.73642 0.52176 0.0
O419 O 0.03706 0.77656 0.52764 0.0
O420 O 0.03125 0.77132 0.46982 0.0
O421 O 0.01712 0.80959 0.47481 0.0
O422 O 0.9798 0.76394 0.47961 0.0
O423 O 0.994 0.72556 0.48013 0.0
C424 C 0.05013 0.75712 0.53287 0.0
C425 C 0.97764 0.74116 0.47217 0.0
C426 C 0.24299 0.03697 0.56417 0.0
C427 C 0.2395 0.98424 0.47837 0.0
O428 O 0.26387 0.02739 0.55677 0.0
Zn429 Zn 0.27918 1.00394 0.52425 0.0
O430 O 0.22356 0.03228 0.54957 0.0
Zn431 Zn 0.23964 0.00978 0.52215 0.0
O432 O 0.25109 0.97987 0.54939 0.0
O433 O 0.29182 0.97556 0.54598 0.0
O434 O 0.22084 0.99312 0.49169 0.0
O435 O 0.26141 0.98728 0.48843 0.0
O436 O 0.30166 0.02707 0.50519 0.0
O437 O 0.26193 0.03568 0.49824 0.0
C438 C 0.27115 0.96858 0.55651 0.0
C439 C 0.28494 0.04046 0.49357 0.0
C440 C 0.47142 0.7758 0.03793 0.0
C441 C 0.53632 0.75511 0.96795 0.0
O442 O 0.48364 0.79082 0.02232 0.0
Zn443 Zn 0.50471 0.76646 1.00311 0.0
O444 O 0.47673 0.75263 0.03732 0.0
Zn445 Zn 0.50216 0.72845 0.01624 0.0
O446 O 0.52341 0.71649 0.04704 0.0
O447 O 0.53078 0.75546 0.03496 0.0
O448 O 0.52842 0.73641 0.98242 0.0
O449 O 0.52735 0.7766 0.97282 0.0
O450 O 0.47878 0.74398 0.97974 0.0
O451 O 0.47954 0.70588 0.99738 0.0
C452 C 0.53612 0.73623 0.04987 0.0
C453 C 0.47093 0.72149 0.97948 0.0
C454 C 0.25309 0.55109 0.04934 0.0
C455 C 0.23347 0.47429 0.99694 0.0
O456 O 0.27222 0.53848 0.04168 0.0
Zn457 Zn 0.28111 0.50484 0.01959 0.0
O458 O 0.23148 0.54297 0.04345 0.0
Zn459 Zn 0.24184 0.5126 0.0238 0.0
O460 O 0.25742 0.49106 0.05757 0.0
O461 O 0.29722 0.48419 0.04893 0.0
O462 O 0.21775 0.48951 1.00743 0.0
O463 O 0.25677 0.4783 1.00031 0.0
O464 O 0.29909 0.51756 0.98594 0.0
O465 O 0.25887 0.52607 0.98555 0.0
C466 C 0.27818 0.48123 0.06482 0.0
C467 C 0.28025 0.52699 0.97349 0.0
C468 C 0.52869 0.27101 0.96663 0.0
C469 C 0.48499 0.27728 0.05897 0.0
O470 O 0.52566 0.29079 0.98114 0.0
Zn471 Zn 0.50682 0.27578 0.01288 0.0
O472 O 0.51995 0.25047 0.97609 0.0
Zn473 Zn 0.50003 0.23633 0.01178 0.0
O474 O 0.46965 0.22394 0.99371 0.0
O475 O 0.4723 0.26487 0.99368 0.0
O476 O 0.48627 0.25526 0.04872 0.0
O477 O 0.49424 0.29546 0.04512 0.0
O478 O 0.53473 0.25338 0.0333 0.0
O479 O 0.52407 0.21396 0.02945 0.0
C480 C 0.46029 0.245 0.98762 0.0
C481 C 0.53925 0.2304 0.0383 0.0
C482 C 0.72734 0.53433 0.04814 0.0
C483 C 0.71645 0.47268 0.97185 0.0
O484 O 0.74764 0.5272 0.03634 0.0
Zn485 Zn 0.75995 0.50431 1.00187 0.0
O486 O 0.70658 0.52688 0.03833 0.0
Zn487 Zn 0.72025 0.5047 1.00904 0.0
O488 O 0.741 0.47924 0.0347 0.0
O489 O 0.78081 0.48061 0.02252 0.0
O490 O 0.69928 0.48204 0.98727 0.0
O491 O 0.73899 0.47974 0.97537 0.0
O492 O 0.77398 0.52814 0.97474 0.0
O493 O 0.73297 0.5296 0.97696 0.0
C494 C 0.7634 0.47167 0.0379 0.0
C495 C 0.75346 0.53707 0.96596 0.0
H496 H 0.17166 0.22549 0.39926 0.0
H497 H 0.14572 0.27047 0.32835 0.0
H498 H 0.10306 0.26951 0.34813 0.0
H499 H 0.11448 0.18751 0.40824 0.0
H500 H 0.11631 0.18769 0.44679 0.0
H501 H 0.14434 0.18935 0.42561 0.0
H502 H 0.15697 0.22986 0.45165 0.0
H503 H 0.12911 0.22822 0.473 0.0
H504 H 0.13563 0.25571 0.45224 0.0
H505 H 0.06458 0.26691 0.37685 0.0
H506 H 0.03253 0.26512 0.41463 0.0
H507 H 0.08215 0.22202 0.46825 0.0
C508 C 0.15681 0.23472 0.38778 0.0
C509 C 0.16175 0.24789 0.36216 0.0
C510 C 0.14214 0.26023 0.34792 0.0
C511 C 0.11789 0.25966 0.35892 0.0
C512 C 0.11353 0.24672 0.3843 0.0
C513 C 0.13239 0.23457 0.39873 0.0
C514 C 0.12288 0.2239 0.42688 0.0
C515 C 0.12461 0.19542 0.42687 0.0
C516 C 0.13698 0.2351 0.45245 0.0
C517 C 0.09593 0.23249 0.42629 0.0
C518 C 0.09098 0.2453 0.40124 0.0
C519 C 0.06808 0.25658 0.39632 0.0
C520 C 0.04997 0.25541 0.41785 0.0
C521 C 0.0547 0.24296 0.44397 0.0
C522 C 0.0778 0.23089 0.44805 0.0
H523 H 0.76253 0.131 0.3409 0.0
H524 H 0.84005 0.15368 0.33738 0.0
H525 H 0.85071 0.12086 0.37198 0.0
H526 H 0.76177 0.12025 0.41683 0.0
H527 H 0.74085 0.09419 0.41452 0.0
H528 H 0.73956 0.11847 0.38802 0.0
H529 H 0.74583 0.08585 0.34785 0.0
H530 H 0.74729 0.06148 0.37425 0.0
H531 H 0.77243 0.06548 0.34907 0.0
H532 H 0.85304 0.08551 0.40714 0.0
H533 H 0.84631 0.0523 0.44286 0.0
H534 H 0.76697 0.0548 0.42597 0.0
C535 C 0.78175 0.1293 0.34748 0.0
C536 C 0.80045 0.14491 0.33596 0.0
C537 C 0.82539 0.14166 0.34515 0.0
C538 C 0.83165 0.12314 0.36501 0.0
C539 C 0.81276 0.10813 0.37581 0.0
C540 C 0.78828 0.11117 0.3676 0.0
C541 C 0.77135 0.09329 0.38336 0.0
C542 C 0.75226 0.10739 0.40178 0.0
C543 C 0.75847 0.07547 0.36237 0.0
C544 C 0.79015 0.07976 0.40178 0.0
C545 C 0.81397 0.0884 0.39687 0.0
C546 C 0.83446 0.07863 0.41123 0.0
C547 C 0.83046 0.05972 0.4314 0.0
C548 C 0.80612 0.051 0.43727 0.0
C549 C 0.78579 0.06113 0.42206 0.0
H550 H 0.84949 0.76311 0.3905 0.0
H551 H 0.84894 0.68457 0.36964 0.0
H552 H 0.8884 0.67905 0.39589 0.0
H553 H 0.91515 0.77192 0.3819 0.0
H554 H 0.91756 0.79361 0.41114 0.0
H555 H 0.88893 0.79112 0.3914 0.0
H556 H 0.86498 0.7823 0.43858 0.0
H557 H 0.89354 0.7848 0.45846 0.0
H558 H 0.87488 0.75711 0.46133 0.0
H559 H 0.92873 0.68241 0.42402 0.0
H560 H 0.96587 0.69444 0.45212 0.0
H561 H 0.93979 0.77076 0.4533 0.0
C562 C 0.85768 0.74475 0.3913 0.0
C563 C 0.846 0.72427 0.37805 0.0
C564 C 0.85728 0.7005 0.37998 0.0
C565 C 0.87981 0.69719 0.39468 0.0
C566 C 0.89087 0.71782 0.40735 0.0
C567 C 0.88013 0.74112 0.40583 0.0
C568 C 0.89578 0.76032 0.42109 0.0
C569 C 0.90489 0.78042 0.40013 0.0
C570 C 0.88144 0.7718 0.44636 0.0
C571 C 0.91704 0.74421 0.43137 0.0
C572 C 0.91394 0.71975 0.4233 0.0
C573 C 0.93133 0.70152 0.43047 0.0
C574 C 0.95238 0.70852 0.4464 0.0
C575 C 0.95581 0.73353 0.45493 0.0
C576 C 0.93783 0.75148 0.44715 0.0
H577 H 0.20723 0.87858 0.364 0.0
H578 H 0.261 0.91475 0.30832 0.0
H579 H 0.26496 0.94883 0.34295 0.0
H580 H 0.17778 0.93544 0.39145 0.0
H581 H 0.17439 0.92336 0.42726 0.0
H582 H 0.17387 0.90254 0.39705 0.0
H583 H 0.2098 0.877 0.4193 0.0
H584 H 0.21037 0.89764 0.4496 0.0
H585 H 0.23829 0.89246 0.42903 0.0
H586 H 0.2662 0.97701 0.38448 0.0
H587 H 0.26481 0.99789 0.43143 0.0
H588 H 0.21014 0.94466 0.46139 0.0
C589 C 0.21974 0.89373 0.35902 0.0
C590 C 0.23356 0.89404 0.3331 0.0
C591 C 0.24972 0.91427 0.32754 0.0
C592 C 0.25222 0.93372 0.34719 0.0
C593 C 0.23843 0.93281 0.37243 0.0
C594 C 0.22249 0.91341 0.37849 0.0
C595 C 0.21089 0.91651 0.408 0.0
C596 C 0.18255 0.91965 0.4058 0.0
C597 C 0.21776 0.8946 0.42764 0.0
C598 C 0.22326 0.94041 0.41775 0.0
C599 C 0.23895 0.94947 0.39668 0.0
C600 C 0.25373 0.97033 0.40099 0.0
C601 C 0.25283 0.98204 0.42769 0.0
C602 C 0.23713 0.97305 0.44972 0.0
C603 C 0.22181 0.95221 0.44458 0.0
H604 H 0.17397 0.71423 0.61515 0.0
H605 H 0.16717 0.78177 0.66497 0.0
H606 H 0.13052 0.79417 0.63635 0.0
H607 H 0.15411 0.74004 0.54635 0.0
H608 H 0.13681 0.71274 0.53634 0.0
H609 H 0.16355 0.70994 0.55934 0.0
H610 H 0.13655 0.68753 0.59742 0.0
H611 H 0.10974 0.69032 0.57458 0.0
H612 H 0.10873 0.70237 0.61058 0.0
H613 H 0.09475 0.79896 0.60333 0.0
H614 H 0.0602 0.79529 0.56916 0.0
H615 H 0.0883 0.72349 0.54167 0.0
C616 C 0.16485 0.73174 0.61965 0.0
C617 C 0.17331 0.74725 0.64197 0.0
C618 C 0.16085 0.76981 0.64782 0.0
C619 C 0.14013 0.77697 0.63168 0.0
C620 C 0.13202 0.76122 0.60997 0.0
C621 C 0.14383 0.73901 0.60398 0.0
C622 C 0.13039 0.72498 0.58045 0.0
C623 C 0.14722 0.72174 0.55406 0.0
C624 C 0.12078 0.69981 0.59142 0.0
C625 C 0.10912 0.74273 0.57432 0.0
C626 C 0.11067 0.76361 0.59142 0.0
C627 C 0.09332 0.78272 0.5898 0.0
C628 C 0.07377 0.78045 0.57025 0.0
C629 C 0.07149 0.75909 0.55272 0.0
C630 C 0.08948 0.73999 0.55483 0.0
H631 H 0.2082 0.15747 0.65732 0.0
H632 H 0.27136 0.13816 0.71062 0.0
H633 H 0.27711 0.09949 0.68324 0.0
H634 H 0.18466 0.09373 0.64741 0.0
H635 H 0.17616 0.09878 0.61054 0.0
H636 H 0.17557 0.12427 0.63554 0.0
H637 H 0.2051 0.14937 0.60258 0.0
H638 H 0.20573 0.12401 0.57748 0.0
H639 H 0.2344 0.13596 0.59187 0.0
H640 H 0.27784 0.06457 0.64932 0.0
H641 H 0.27453 0.03532 0.60914 0.0
H642 H 0.2109 0.07604 0.57641 0.0
C643 C 0.223 0.14487 0.66337 0.0
C644 C 0.2394 0.15081 0.68606 0.0
C645 C 0.25877 0.13409 0.69316 0.0
C646 C 0.26207 0.112 0.67787 0.0
C647 C 0.24584 0.1068 0.65547 0.0
C648 C 0.22671 0.12269 0.64808 0.0
C649 C 0.21292 0.11309 0.62191 0.0
C650 C 0.18571 0.10711 0.6293 0.0
C651 C 0.21465 0.13172 0.59699 0.0
C652 C 0.22758 0.08958 0.61557 0.0
C653 C 0.24632 0.08633 0.63547 0.0
C654 C 0.26314 0.06677 0.63372 0.0
C655 C 0.26113 0.05028 0.61074 0.0
C656 C 0.24243 0.05333 0.58967 0.0
C657 C 0.22513 0.07302 0.59243 0.0
H658 H 0.85339 0.22792 0.6408 0.0
H659 H 0.86755 0.29866 0.6821 0.0
H660 H 0.90654 0.30292 0.65473 0.0
H661 H 0.91877 0.20736 0.63649 0.0
H662 H 0.91519 0.19358 0.60157 0.0
H663 H 0.8891 0.19488 0.62583 0.0
H664 H 0.86315 0.2178 0.58735 0.0
H665 H 0.88912 0.21655 0.56299 0.0
H666 H 0.87508 0.246 0.57168 0.0
H667 H 0.94229 0.30108 0.62193 0.0
H668 H 0.97298 0.29408 0.5838 0.0
H669 H 0.93708 0.2244 0.56203 0.0
C670 C 0.86494 0.24411 0.64428 0.0
C671 C 0.85744 0.26302 0.66358 0.0
C672 C 0.87281 0.2841 0.66728 0.0
C673 C 0.89508 0.2866 0.65197 0.0
C674 C 0.90181 0.26787 0.63291 0.0
C675 C 0.88728 0.24703 0.62886 0.0
C676 C 0.89842 0.23044 0.60574 0.0
C677 C 0.90581 0.20506 0.61816 0.0
C678 C 0.88036 0.22754 0.58044 0.0
C679 C 0.92125 0.24544 0.59722 0.0
C680 C 0.92278 0.26684 0.61349 0.0
C681 C 0.9414 0.28434 0.60917 0.0
C682 C 0.95873 0.28019 0.58735 0.0
C683 C 0.9575 0.25869 0.5699 0.0
C684 C 0.93871 0.24082 0.57526 0.0
H685 H 0.75873 0.88543 0.66769 0.0
H686 H 0.82557 0.84206 0.65355 0.0
H687 H 0.8389 0.87154 0.61585 0.0
H688 H 0.74757 0.89848 0.5942 0.0
H689 H 0.73592 0.92942 0.60031 0.0
H690 H 0.7327 0.9061 0.6277 0.0
H691 H 0.75543 0.93468 0.66381 0.0
H692 H 0.75872 0.95812 0.63649 0.0
H693 H 0.7858 0.94664 0.65497 0.0
H694 H 0.84446 0.90529 0.57914 0.0
H695 H 0.84061 0.9393 0.54384 0.0
H696 H 0.76914 0.9595 0.58048 0.0
C697 C 0.7763 0.88242 0.65685 0.0
C698 C 0.79125 0.86168 0.66348 0.0
C699 C 0.81391 0.85792 0.64862 0.0
C700 C 0.82166 0.87458 0.62733 0.0
C701 C 0.8064 0.89478 0.62106 0.0
C702 C 0.78412 0.89868 0.63523 0.0
C703 C 0.77046 0.92093 0.62316 0.0
C704 C 0.74517 0.91326 0.61059 0.0
C705 C 0.76744 0.9413 0.64597 0.0
C706 C 0.78845 0.92882 0.59988 0.0
C707 C 0.80921 0.91371 0.59925 0.0
C708 C 0.8283 0.91728 0.57944 0.0
C709 C 0.82598 0.93667 0.55952 0.0
C710 C 0.80457 0.952 0.55936 0.0
C711 C 0.78571 0.94805 0.58 0.0
H712 H 0.86946 0.80372 0.65782 0.0
H713 H 0.89249 0.73604 0.70072 0.0
H714 H 0.9287 0.73286 0.6684 0.0
H715 H 0.88409 0.78388 0.58806 0.0
H716 H 0.89522 0.81351 0.57543 0.0
H717 H 0.87251 0.81221 0.60376 0.0
H718 H 0.90133 0.83823 0.63637 0.0
H719 H 0.92416 0.83972 0.6081 0.0
H720 H 0.93272 0.82788 0.64284 0.0
H721 H 0.95994 0.73485 0.62997 0.0
H722 H 0.9852 0.74167 0.58679 0.0
H723 H 0.94274 0.80826 0.56756 0.0
C724 C 0.88248 0.78857 0.6607 0.0
C725 C 0.87835 0.77013 0.68175 0.0
C726 C 0.89538 0.75026 0.68462 0.0
C727 C 0.91602 0.74838 0.66649 0.0
C728 C 0.91937 0.76655 0.64561 0.0
C729 C 0.90318 0.78631 0.64256 0.0
C730 C 0.91034 0.80229 0.61703 0.0
C731 C 0.88929 0.803 0.59476 0.0
C732 C 0.91757 0.82859 0.62667 0.0
C733 C 0.93275 0.78808 0.60593 0.0
C734 C 0.93764 0.76766 0.62299 0.0
C735 C 0.9565 0.75089 0.61658 0.0
C736 C 0.97067 0.7549 0.59189 0.0
C737 C 0.96597 0.77551 0.57381 0.0
C738 C 0.94695 0.79252 0.58117 0.0
H739 H 0.29378 0.83496 0.62804 0.0
H740 H 0.2436 0.8588 0.69581 0.0
H741 H 0.23938 0.89945 0.67251 0.0
H742 H 0.32558 0.89498 0.62131 0.0
H743 H 0.32913 0.89239 0.58303 0.0
H744 H 0.32837 0.86481 0.6049 0.0
H745 H 0.29196 0.84767 0.57456 0.0
H746 H 0.29254 0.87522 0.55267 0.0
H747 H 0.26417 0.86606 0.57037 0.0
H748 H 0.23808 0.93639 0.64074 0.0
H749 H 0.24238 0.96897 0.60391 0.0
H750 H 0.29638 0.92375 0.55858 0.0
C751 C 0.28217 0.84879 0.63828 0.0
C752 C 0.26868 0.84324 0.66365 0.0
C753 C 0.25357 0.86204 0.676 0.0
C754 C 0.25122 0.8854 0.66306 0.0
C755 C 0.26443 0.89004 0.63798 0.0
C756 C 0.27989 0.87246 0.62586 0.0
C757 C 0.29208 0.8825 0.59881 0.0
C758 C 0.32048 0.88375 0.60223 0.0
C759 C 0.28474 0.86693 0.57255 0.0
C760 C 0.28073 0.90833 0.59749 0.0
C761 C 0.26471 0.91211 0.62027 0.0
C762 C 0.25083 0.93381 0.62303 0.0
C763 C 0.25333 0.95215 0.60196 0.0
C764 C 0.26986 0.94894 0.57862 0.0
C765 C 0.28394 0.92682 0.57651 0.0
H766 H 0.14675 0.24411 0.64609 0.0
H767 H 0.14279 0.31661 0.68595 0.0
H768 H 0.11311 0.33056 0.6487 0.0
H769 H 0.14081 0.26447 0.57154 0.0
H770 H 0.12135 0.23862 0.5617 0.0
H771 H 0.14396 0.23516 0.58987 0.0
H772 H 0.10925 0.22072 0.62467 0.0
H773 H 0.08658 0.22409 0.59663 0.0
H774 H 0.08236 0.24018 0.63013 0.0
H775 H 0.08318 0.33622 0.60749 0.0
H776 H 0.05262 0.33205 0.56817 0.0
H777 H 0.07432 0.25502 0.55716 0.0
C778 C 0.13984 0.263 0.64662 0.0
C779 C 0.14712 0.27945 0.66855 0.0
C780 C 0.1374 0.30387 0.66913 0.0
C781 C 0.12066 0.31194 0.64805 0.0
C782 C 0.11365 0.29524 0.62674 0.0
C783 C 0.12276 0.27121 0.62602 0.0
C784 C 0.11086 0.25641 0.60212 0.0
C785 C 0.13041 0.24819 0.58 0.0
C786 C 0.0964 0.23403 0.61412 0.0
C787 C 0.09347 0.27576 0.58971 0.0
C788 C 0.09564 0.29817 0.60387 0.0
C789 C 0.08133 0.31876 0.59624 0.0
C790 C 0.06408 0.31626 0.57384 0.0
C791 C 0.06103 0.29322 0.5597 0.0
C792 C 0.07615 0.27286 0.56765 0.0
H793 H 0.73293 0.15948 0.63039 0.0
H794 H 0.80045 0.14809 0.67933 0.0
H795 H 0.81066 0.1115 0.64959 0.0
H796 H 0.71787 0.09453 0.62306 0.0
H797 H 0.7058 0.09758 0.58724 0.0
H798 H 0.70414 0.12343 0.61163 0.0
H799 H 0.72759 0.15105 0.57504 0.0
H800 H 0.72927 0.1253 0.55049 0.0
H801 H 0.75731 0.14099 0.56135 0.0
H802 H 0.8141 0.07712 0.61423 0.0
H803 H 0.80966 0.04526 0.57673 0.0
H804 H 0.73862 0.077 0.552 0.0
C805 C 0.74991 0.14931 0.63462 0.0
C806 C 0.76601 0.15653 0.65699 0.0
C807 C 0.78791 0.1427 0.6623 0.0
C808 C 0.79386 0.12199 0.6455 0.0
C809 C 0.77757 0.11521 0.62371 0.0
C810 C 0.75595 0.12829 0.61832 0.0
C811 C 0.74133 0.11649 0.59411 0.0
C812 C 0.71577 0.10747 0.60465 0.0
C813 C 0.73873 0.13454 0.56875 0.0
C814 C 0.7582 0.09485 0.58668 0.0
C815 C 0.77909 0.09465 0.60391 0.0
C816 C 0.79777 0.07698 0.60071 0.0
C817 C 0.7951 0.059 0.57929 0.0
C818 C 0.77376 0.0586 0.56156 0.0
C819 C 0.75501 0.07671 0.56546 0.0
H820 H 0.86746 0.23866 0.36223 0.0
H821 H 0.87551 0.30709 0.31414 0.0
H822 H 0.90699 0.32175 0.34883 0.0
H823 H 0.87512 0.26492 0.43315 0.0
H824 H 0.89285 0.23893 0.44639 0.0
H825 H 0.87018 0.23434 0.41853 0.0
H826 H 0.90401 0.21462 0.38612 0.0
H827 H 0.92675 0.21907 0.41391 0.0
H828 H 0.93213 0.23169 0.37867 0.0
H829 H 0.93747 0.32903 0.38917 0.0
H830 H 0.96698 0.32693 0.42971 0.0
H831 H 0.94032 0.25293 0.4501 0.0
C832 C 0.87575 0.25679 0.35917 0.0
C833 C 0.86903 0.27181 0.33559 0.0
C834 C 0.88052 0.29528 0.33201 0.0
C835 C 0.89829 0.3038 0.35167 0.0
C836 C 0.90455 0.28854 0.37469 0.0
C837 C 0.89379 0.26543 0.37838 0.0
C838 C 0.90463 0.25219 0.40415 0.0
C839 C 0.88449 0.24731 0.4269 0.0
C840 C 0.91765 0.22797 0.39516 0.0
C841 C 0.92319 0.27141 0.41432 0.0
C842 C 0.92266 0.29238 0.39728 0.0
C843 C 0.93808 0.31267 0.40262 0.0
C844 C 0.95473 0.31135 0.42576 0.0
C845 C 0.95603 0.28976 0.44303 0.0
C846 C 0.93987 0.26966 0.43723 0.0
H847 H 0.77536 0.85634 0.36787 0.0
H848 H 0.70178 0.83128 0.3926 0.0
H849 H 0.69591 0.8695 0.42129 0.0
H850 H 0.79131 0.88204 0.43617 0.0
H851 H 0.80856 0.90768 0.42127 0.0
H852 H 0.8063 0.87894 0.40178 0.0
H853 H 0.78853 0.90272 0.35806 0.0
H854 H 0.79055 0.93152 0.37753 0.0
H855 H 0.76127 0.92184 0.3625 0.0
H856 H 0.69804 0.91085 0.44685 0.0
H857 H 0.70966 0.94984 0.4714 0.0
H858 H 0.78253 0.9468 0.43141 0.0
C859 C 0.75799 0.85901 0.37924 0.0
C860 C 0.73897 0.84097 0.37802 0.0
C861 C 0.71661 0.84486 0.39346 0.0
C862 C 0.71306 0.86656 0.4096 0.0
C863 C 0.73213 0.88407 0.41026 0.0
C864 C 0.75428 0.88038 0.39576 0.0
C865 C 0.77232 0.90144 0.40113 0.0
C866 C 0.79602 0.89195 0.41598 0.0
C867 C 0.77852 0.91519 0.37313 0.0
C868 C 0.75691 0.91752 0.42099 0.0
C869 C 0.73366 0.90739 0.42568 0.0
C870 C 0.71621 0.91894 0.44336 0.0
C871 C 0.72293 0.94114 0.4571 0.0
C872 C 0.74699 0.95134 0.45336 0.0
C873 C 0.76399 0.93946 0.43474 0.0
H874 H 0.14549 0.77989 0.35609 0.0
H875 H 0.10831 0.83085 0.29796 0.0
H876 H 0.0752 0.83719 0.33382 0.0
H877 H 0.08981 0.75004 0.37976 0.0
H878 H 0.10102 0.74553 0.41575 0.0
H879 H 0.12267 0.74673 0.38634 0.0
H880 H 0.14651 0.78231 0.41167 0.0
H881 H 0.12476 0.7814 0.44103 0.0
H882 H 0.13002 0.81006 0.42202 0.0
H883 H 0.0458 0.83793 0.37684 0.0
H884 H 0.02087 0.82927 0.42057 0.0
H885 H 0.07578 0.77509 0.44739 0.0
C886 C 0.13032 0.79218 0.35052 0.0
C887 C 0.12983 0.80496 0.32404 0.0
C888 C 0.10962 0.8212 0.31824 0.0
C889 C 0.09058 0.82486 0.33846 0.0
C890 C 0.09178 0.81196 0.36429 0.0
C891 C 0.11099 0.79569 0.37014 0.0
C892 C 0.10736 0.78293 0.39869 0.0
C893 C 0.10507 0.75464 0.39489 0.0
C894 C 0.12841 0.78958 0.41958 0.0
C895 C 0.08297 0.79438 0.40793 0.0
C896 C 0.07442 0.81144 0.38814 0.0
C897 C 0.05229 0.82453 0.39242 0.0
C898 C 0.03832 0.81961 0.4173 0.0
C899 C 0.04639 0.80144 0.43712 0.0
C900 C 0.0691 0.78895 0.43242 0.0
H901 H 0.25742 0.1425 0.37384 0.0
H902 H 0.32524 0.17965 0.39955 0.0
H903 H 0.33403 0.14573 0.43403 0.0
H904 H 0.24021 0.12277 0.44429 0.0
H905 H 0.22719 0.09367 0.43258 0.0
H906 H 0.2273 0.12001 0.40882 0.0
H907 H 0.25067 0.09401 0.37058 0.0
H908 H 0.25074 0.06762 0.39431 0.0
H909 H 0.27962 0.07915 0.37984 0.0
H910 H 0.33545 0.10704 0.46543 0.0
H911 H 0.32707 0.0694 0.49458 0.0
H912 H 0.25702 0.05944 0.45017 0.0
C913 C 0.2742 0.14332 0.38661 0.0
C914 C 0.29079 0.1635 0.384 0.0
C915 C 0.31234 0.16429 0.40134 0.0
C916 C 0.31752 0.14507 0.42083 0.0
C917 C 0.30079 0.12537 0.42292 0.0
C918 C 0.2794 0.12455 0.40651 0.0
C919 C 0.26367 0.10216 0.41402 0.0
C920 C 0.23809 0.11014 0.42562 0.0
C921 C 0.26103 0.0847 0.38815 0.0
C922 C 0.27948 0.09053 0.43725 0.0
C923 C 0.30102 0.10392 0.44182 0.0
C924 C 0.31858 0.09648 0.4621 0.0
C925 C 0.31376 0.07505 0.47847 0.0
C926 C 0.29136 0.06165 0.47475 0.0
C927 C 0.27422 0.06945 0.45367 0.0
H928 H 0.64749 0.79219 0.86131 0.0
H929 H 0.66201 0.71312 0.85314 0.0
H930 H 0.62591 0.70416 0.88385 0.0
H931 H 0.63008 0.7902 0.9356 0.0
H932 H 0.60619 0.81351 0.93235 0.0
H933 H 0.63254 0.81393 0.90849 0.0
H934 H 0.60285 0.81284 0.86486 0.0
H935 H 0.5764 0.81233 0.88861 0.0
H936 H 0.58017 0.78831 0.86208 0.0
H937 H 0.58933 0.7034 0.91613 0.0
H938 H 0.55465 0.71081 0.94939 0.0
H939 H 0.56359 0.79044 0.93827 0.0
C940 C 0.64312 0.77299 0.86602 0.0
C941 C 0.6575 0.75336 0.85442 0.0
C942 C 0.65101 0.7285 0.86111 0.0
C943 C 0.6306 0.72319 0.87872 0.0
C944 C 0.61682 0.74291 0.88964 0.0
C945 C 0.62277 0.76732 0.8837 0.0
C946 C 0.60515 0.78498 0.89896 0.0
C947 C 0.61934 0.80163 0.92011 0.0
C948 C 0.59026 0.80053 0.87733 0.0
C949 C 0.58853 0.76662 0.91457 0.0
C950 C 0.59561 0.74248 0.9087 0.0
C951 C 0.58355 0.72221 0.92086 0.0
C952 C 0.56385 0.72666 0.93978 0.0
C953 C 0.55632 0.75122 0.9465 0.0
C954 C 0.56876 0.77146 0.93345 0.0
H955 H 0.30819 0.63028 0.855 0.0
H956 H 0.24734 0.59784 0.80706 0.0
H957 H 0.24544 0.56304 0.84144 0.0
H958 H 0.3377 0.57092 0.87791 0.0
H959 H 0.34519 0.58264 0.91301 0.0
H960 H 0.344 0.60352 0.88283 0.0
H961 H 0.31205 0.63098 0.9096 0.0
H962 H 0.31312 0.61028 0.93984 0.0
H963 H 0.28378 0.61719 0.923 0.0
H964 H 0.24703 0.53444 0.8826 0.0
H965 H 0.25101 0.51392 0.92957 0.0
H966 H 0.31101 0.56389 0.95219 0.0
C967 C 0.2949 0.61549 0.85147 0.0
C968 C 0.278 0.61656 0.82829 0.0
C969 C 0.2604 0.59731 0.82468 0.0
C970 C 0.25931 0.57742 0.84399 0.0
C971 C 0.27593 0.57705 0.86686 0.0
C972 C 0.29339 0.59554 0.8708 0.0
C973 C 0.30753 0.59165 0.89863 0.0
C974 C 0.33526 0.58689 0.89273 0.0
C975 C 0.30389 0.61384 0.91896 0.0
C976 C 0.29481 0.56845 0.91003 0.0
C977 C 0.27686 0.56026 0.89104 0.0
C978 C 0.26129 0.54037 0.89741 0.0
C979 C 0.26368 0.52885 0.92412 0.0
C980 C 0.28157 0.53708 0.94415 0.0
C981 C 0.29771 0.55682 0.93684 0.0
H982 H 0.35103 0.22222 0.87383 0.0
H983 H 0.31164 0.28284 0.91503 0.0
H984 H 0.3452 0.28623 0.95083 0.0
H985 H 0.37475 0.19415 0.93986 0.0
H986 H 0.40418 0.18563 0.92413 0.0
H987 H 0.37673 0.18735 0.90212 0.0
H988 H 0.39901 0.21831 0.86825 0.0
H989 H 0.42651 0.21668 0.89012 0.0
H990 H 0.41226 0.24631 0.88283 0.0
H991 H 0.38416 0.28543 0.97965 0.0
H992 H 0.42528 0.27884 1.00181 0.0
H993 H 0.43909 0.21709 0.94434 0.0
C994 C 0.34947 0.23612 0.89048 0.0
C995 C 0.32866 0.25225 0.89169 0.0
C996 C 0.32722 0.27011 0.91388 0.0
C997 C 0.34624 0.27225 0.93424 0.0
C998 C 0.36651 0.25618 0.93238 0.0
C999 C 0.36819 0.23829 0.91128 0.0
C1000 C 0.39215 0.2235 0.91415 0.0
C1001 C 0.38661 0.19603 0.92045 0.0
C1002 C 0.40844 0.22638 0.88724 0.0
C1003 C 0.40385 0.23617 0.93986 0.0
C1004 C 0.38872 0.25505 0.94988 0.0
C1005 C 0.396 0.27048 0.97227 0.0
C1006 C 0.4194 0.26663 0.98466 0.0
C1007 C 0.43517 0.2473 0.975 0.0
C1008 C 0.42715 0.23167 0.95251 0.0
H1009 H 0.75324 0.38057 0.84549 0.0
H1010 H 0.68724 0.33783 0.86582 0.0
H1011 H 0.67488 0.36945 0.90163 0.0
H1012 H 0.76667 0.39795 0.91697 0.0
H1013 H 0.77796 0.42843 0.90774 0.0
H1014 H 0.78032 0.40349 0.88225 0.0
H1015 H 0.75621 0.42984 0.84499 0.0
H1016 H 0.7537 0.45485 0.87045 0.0
H1017 H 0.72608 0.44223 0.8542 0.0
H1018 H 0.67038 0.40569 0.93622 0.0
H1019 H 0.67597 0.44144 0.96904 0.0
H1020 H 0.74572 0.4591 0.92685 0.0
C1021 C 0.73603 0.3781 0.85723 0.0
C1022 C 0.7211 0.35691 0.85285 0.0
C1023 C 0.69894 0.35397 0.86898 0.0
C1024 C 0.69172 0.37188 0.88921 0.0
C1025 C 0.70694 0.39254 0.89316 0.0
C1026 C 0.72873 0.39561 0.87775 0.0
C1027 C 0.74266 0.41854 0.88731 0.0
C1028 C 0.76842 0.41168 0.89928 0.0
C1029 C 0.74478 0.43748 0.86277 0.0
C1030 C 0.72546 0.42778 0.91068 0.0
C1031 C 0.70476 0.4128 0.91353 0.0
C1032 C 0.6865 0.41759 0.93411 0.0
C1033 C 0.68976 0.43796 0.95259 0.0
C1034 C 0.71128 0.453 0.95055 0.0
C1035 C 0.72908 0.44792 0.92902 0.0
H1036 H 0.66663 0.25761 0.1206 0.0
H1037 H 0.65866 0.1857 0.16131 0.0
H1038 H 0.62129 0.1773 0.13197 0.0
H1039 H 0.60197 0.27162 0.11933 0.0
H1040 H 0.60297 0.28744 0.08531 0.0
H1041 H 0.63012 0.28685 0.1078 0.0
H1042 H 0.65583 0.26789 0.0662 0.0
H1043 H 0.62871 0.26838 0.04359 0.0
H1044 H 0.64529 0.23971 0.04931 0.0
H1045 H 0.58418 0.17711 0.09847 0.0
H1046 H 0.54872 0.18651 0.06645 0.0
H1047 H 0.57996 0.25934 0.04945 0.0
C1048 C 0.65717 0.23998 0.12299 0.0
C1049 C 0.66559 0.2222 0.14303 0.0
C1050 C 0.65247 0.19954 0.14606 0.0
C1051 C 0.63132 0.19458 0.1294 0.0
C1052 C 0.62336 0.21256 0.10995 0.0
C1053 C 0.63579 0.23489 0.10685 0.0
C1054 C 0.62251 0.25172 0.08579 0.0
C1055 C 0.61388 0.27582 0.10044 0.0
C1056 C 0.63907 0.25724 0.05967 0.0
C1057 C 0.60061 0.23546 0.0777 0.0
C1058 C 0.60159 0.2128 0.09153 0.0
C1059 C 0.58325 0.1948 0.0875 0.0
C1060 C 0.56321 0.20026 0.0692 0.0
C1061 C 0.56149 0.22365 0.05546 0.0
C1062 C 0.58066 0.24129 0.05967 0.0
H1063 H 0.70594 0.6467 0.15814 0.0
H1064 H 0.76264 0.61218 0.2109 0.0
H1065 H 0.76536 0.5773 0.17684 0.0
H1066 H 0.67515 0.58872 0.13724 0.0
H1067 H 0.66863 0.59921 0.10136 0.0
H1068 H 0.67045 0.62131 0.13025 0.0
H1069 H 0.70404 0.64597 0.10243 0.0
H1070 H 0.70234 0.62398 0.07346 0.0
H1071 H 0.73177 0.63025 0.09041 0.0
H1072 H 0.76475 0.5484 0.13593 0.0
H1073 H 0.75894 0.52493 0.09123 0.0
H1074 H 0.70048 0.57571 0.06537 0.0
C1075 C 0.71881 0.6317 0.16249 0.0
C1076 C 0.73406 0.63203 0.18718 0.0
C1077 C 0.75063 0.6121 0.1923 0.0
C1078 C 0.75235 0.59228 0.17304 0.0
C1079 C 0.73716 0.5925 0.14892 0.0
C1080 C 0.72051 0.61149 0.14364 0.0
C1081 C 0.70651 0.60704 0.11586 0.0
C1082 C 0.67852 0.60388 0.12153 0.0
C1083 C 0.71147 0.62806 0.09426 0.0
C1084 C 0.71828 0.58282 0.10615 0.0
C1085 C 0.73599 0.57495 0.1256 0.0
C1086 C 0.75065 0.5541 0.12077 0.0
C1087 C 0.74724 0.54092 0.09532 0.0
C1088 C 0.72904 0.54833 0.07517 0.0
C1089 C 0.71414 0.5694 0.08077 0.0
H1090 H 0.34554 0.75925 0.12655 0.0
H1091 H 0.35504 0.83449 0.15743 0.0
H1092 H 0.39291 0.839 0.12751 0.0
H1093 H 0.4102 0.74368 0.12766 0.0
H1094 H 0.4088 0.72455 0.09603 0.0
H1095 H 0.38172 0.72797 0.11841 0.0
H1096 H 0.35627 0.74312 0.07465 0.0
H1097 H 0.3833 0.73975 0.05213 0.0
H1098 H 0.36735 0.76916 0.05397 0.0
H1099 H 0.42963 0.8352 0.09336 0.0
H1100 H 0.46402 0.82216 0.0612 0.0
H1101 H 0.43163 0.74857 0.05565 0.0
C1102 C 0.35552 0.77671 0.12674 0.0
C1103 C 0.34739 0.79662 0.144 0.0
C1104 C 0.36107 0.81907 0.14424 0.0
C1105 C 0.38249 0.82181 0.12727 0.0
C1106 C 0.39012 0.80178 0.1105 0.0
C1107 C 0.37718 0.77958 0.11036 0.0
C1108 C 0.38999 0.76046 0.09173 0.0
C1109 C 0.39816 0.73784 0.10953 0.0
C1110 C 0.37323 0.75267 0.06663 0.0
C1111 C 0.41215 0.77533 0.08141 0.0
C1112 C 0.41177 0.79924 0.0921 0.0
C1113 C 0.43017 0.81648 0.08498 0.0
C1114 C 0.44958 0.80896 0.06668 0.0
C1115 C 0.45059 0.78434 0.05619 0.0
C1116 C 0.43153 0.76745 0.06363 0.0
H1117 H 0.30185 0.36007 0.16089 0.0
H1118 H 0.24763 0.39101 0.22007 0.0
H1119 H 0.24576 0.42914 0.19123 0.0
H1120 H 0.33409 0.41803 0.14454 0.0
H1121 H 0.33824 0.41077 0.10714 0.0
H1122 H 0.33676 0.38613 0.13324 0.0
H1123 H 0.30054 0.36575 0.10537 0.0
H1124 H 0.30203 0.3902 0.07909 0.0
H1125 H 0.27317 0.3838 0.09734 0.0
H1126 H 0.24758 0.46279 0.15537 0.0
H1127 H 0.25194 0.48986 0.11314 0.0
H1128 H 0.30491 0.43826 0.07596 0.0
C1129 C 0.28958 0.37486 0.16779 0.0
C1130 C 0.27514 0.37254 0.19312 0.0
C1131 C 0.25936 0.39243 0.20127 0.0
C1132 C 0.25806 0.41419 0.18492 0.0
C1133 C 0.27261 0.41593 0.16032 0.0
C1134 C 0.28801 0.39684 0.15162 0.0
C1135 C 0.30081 0.40329 0.12349 0.0
C1136 C 0.32916 0.40464 0.12735 0.0
C1137 C 0.29371 0.38465 0.09993 0.0
C1138 C 0.28986 0.42882 0.11762 0.0
C1139 C 0.27376 0.43569 0.13934 0.0
C1140 C 0.26031 0.45776 0.13836 0.0
C1141 C 0.26292 0.47301 0.11427 0.0
C1142 C 0.27894 0.4663 0.09145 0.0
C1143 C 0.29297 0.44411 0.0934 0.0
H1144 H 0.37053 0.30353 0.16262 0.0
H1145 H 0.40289 0.24816 0.21871 0.0
H1146 H 0.44119 0.24801 0.18936 0.0
H1147 H 0.39229 0.27701 0.09888 0.0
H1148 H 0.3982 0.30589 0.08056 0.0
H1149 H 0.37488 0.30448 0.10818 0.0
H1150 H 0.39685 0.34018 0.13529 0.0
H1151 H 0.42037 0.34161 0.10776 0.0
H1152 H 0.42923 0.33715 0.14463 0.0
H1153 H 0.47352 0.25018 0.15196 0.0
H1154 H 0.49749 0.25282 0.10697 0.0
H1155 H 0.44505 0.30667 0.07373 0.0
C1156 C 0.38599 0.29187 0.16895 0.0
C1157 C 0.38406 0.27604 0.19303 0.0
C1158 C 0.40423 0.26048 0.20041 0.0
C1159 C 0.42604 0.26039 0.18397 0.0
C1160 C 0.42735 0.27593 0.16013 0.0
C1161 C 0.40788 0.29133 0.15248 0.0
C1162 C 0.41322 0.30422 0.12415 0.0
C1163 C 0.39348 0.29748 0.10162 0.0
C1164 C 0.41503 0.33247 0.12821 0.0
C1165 C 0.43839 0.2931 0.11673 0.0
C1166 C 0.44628 0.27713 0.13811 0.0
C1167 C 0.46784 0.26299 0.13535 0.0
C1168 C 0.48135 0.26464 0.10978 0.0
C1169 C 0.4734 0.28038 0.08735 0.0
C1170 C 0.45196 0.29522 0.09106 0.0
H1171 H 0.77675 0.33668 0.10502 0.0
H1172 H 0.74819 0.36862 0.18387 0.0
H1173 H 0.75008 0.41032 0.16227 0.0
H1174 H 0.81934 0.38749 0.08722 0.0
H1175 H 0.81327 0.38571 0.04932 0.0
H1176 H 0.81089 0.35823 0.07123 0.0
H1177 H 0.76566 0.35136 0.05387 0.0
H1178 H 0.76802 0.37861 0.0317 0.0
H1179 H 0.74328 0.3761 0.05764 0.0
H1180 H 0.75273 0.44785 0.13205 0.0
H1181 H 0.75349 0.47915 0.09349 0.0
H1182 H 0.78162 0.42408 0.03407 0.0
C1183 C 0.77109 0.3525 0.11778 0.0
C1184 C 0.76219 0.34938 0.14611 0.0
C1185 C 0.75467 0.37049 0.162 0.0
C1186 C 0.75597 0.39429 0.15004 0.0
C1187 C 0.76493 0.39674 0.12219 0.0
C1188 C 0.77223 0.37647 0.10613 0.0
C1189 C 0.77986 0.38426 0.07612 0.0
C1190 C 0.80749 0.37858 0.07066 0.0
C1191 C 0.76321 0.37185 0.0535 0.0
C1192 C 0.77524 0.41202 0.0777 0.0
C1193 C 0.76689 0.41875 0.10465 0.0
C1194 C 0.75966 0.44294 0.11103 0.0
C1195 C 0.76028 0.46059 0.08909 0.0
C1196 C 0.76827 0.45407 0.06123 0.0
C1197 C 0.77632 0.42962 0.05553 0.0
H1198 H 0.61915 0.72 0.19063 0.0
H1199 H 0.67789 0.75799 0.14385 0.0
H1200 H 0.65099 0.76026 0.1015 0.0
H1201 H 0.59827 0.68265 0.1295 0.0
H1202 H 0.56596 0.68428 0.13974 0.0
H1203 H 0.58983 0.68541 0.16676 0.0
H1204 H 0.57182 0.72695 0.18557 0.0
H1205 H 0.54796 0.726 0.15859 0.0
H1206 H 0.56808 0.75266 0.1612 0.0
H1207 H 0.61745 0.76122 0.06555 0.0
H1208 H 0.57952 0.75814 0.03623 0.0
H1209 H 0.54318 0.71622 0.10377 0.0
C1210 C 0.62652 0.72849 0.17139 0.0
C1211 C 0.65059 0.73921 0.1709 0.0
C1212 C 0.65932 0.75031 0.14522 0.0
C1213 C 0.64427 0.75147 0.12087 0.0
C1214 C 0.62064 0.74106 0.12224 0.0
C1215 C 0.61185 0.72949 0.14663 0.0
C1216 C 0.58563 0.7198 0.14215 0.0
C1217 C 0.58489 0.69134 0.14468 0.0
C1218 C 0.5673 0.7321 0.16313 0.0
C1219 C 0.58098 0.72817 0.11159 0.0
C1220 C 0.60147 0.74049 0.10069 0.0
C1221 C 0.60139 0.75131 0.07364 0.0
C1222 C 0.57976 0.74957 0.05724 0.0
C1223 C 0.55862 0.73682 0.06775 0.0
C1224 C 0.55929 0.72572 0.09514 0.0
H1225 H 0.21767 0.67005 0.14519 0.0
H1226 H 0.29536 0.69143 0.13865 0.0
H1227 H 0.30366 0.65463 0.10887 0.0
H1228 H 0.22774 0.60434 0.14929 0.0
H1229 H 0.20113 0.59632 0.12777 0.0
H1230 H 0.20097 0.62451 0.14852 0.0
H1231 H 0.19162 0.65 0.10273 0.0
H1232 H 0.19172 0.62188 0.08183 0.0
H1233 H 0.21195 0.64723 0.07214 0.0
H1234 H 0.30408 0.61549 0.08084 0.0
H1235 H 0.29658 0.57636 0.05526 0.0
H1236 H 0.21829 0.58004 0.07808 0.0
C1237 C 0.23638 0.66713 0.13727 0.0
C1238 C 0.25591 0.68363 0.14456 0.0
C1239 C 0.28017 0.6789 0.13393 0.0
C1240 C 0.28506 0.65811 0.11679 0.0
C1241 C 0.26549 0.64219 0.11024 0.0
C1242 C 0.24161 0.64642 0.12001 0.0
C1243 C 0.22405 0.62615 0.10984 0.0
C1244 C 0.21281 0.61199 0.13538 0.0
C1245 C 0.20363 0.63697 0.09048 0.0
C1246 C 0.24186 0.60986 0.09293 0.0
C1247 C 0.26566 0.61954 0.09355 0.0
C1248 C 0.28551 0.60776 0.0801 0.0
C1249 C 0.28103 0.58545 0.06565 0.0
C1250 C 0.25682 0.57503 0.06457 0.0
C1251 C 0.23696 0.58756 0.07834 0.0
H1252 H 0.38471 0.7432 0.84369 0.0
H1253 H 0.34408 0.67671 0.86731 0.0
H1254 H 0.37321 0.66964 0.90754 0.0
H1255 H 0.4465 0.72058 0.86093 0.0
H1256 H 0.45662 0.75011 0.87484 0.0
H1257 H 0.43334 0.74898 0.84717 0.0
H1258 H 0.40335 0.77468 0.87905 0.0
H1259 H 0.42652 0.77589 0.90678 0.0
H1260 H 0.39599 0.76381 0.91461 0.0
H1261 H 0.40691 0.67039 0.94572 0.0
H1262 H 0.44065 0.68026 0.97999 0.0
H1263 H 0.45781 0.74684 0.9314 0.0
C1264 C 0.38216 0.72699 0.85713 0.0
C1265 C 0.3623 0.71043 0.85241 0.0
C1266 C 0.35919 0.68967 0.87074 0.0
C1267 C 0.37569 0.68544 0.89349 0.0
C1268 C 0.39507 0.70223 0.89765 0.0
C1269 C 0.39826 0.72265 0.88004 0.0
C1270 C 0.41976 0.73858 0.88979 0.0
C1271 C 0.44027 0.73961 0.86681 0.0
C1272 C 0.41086 0.76479 0.89806 0.0
C1273 C 0.42811 0.72404 0.91575 0.0
C1274 C 0.41388 0.70299 0.91985 0.0
C1275 C 0.41819 0.68682 0.94269 0.0
C1276 C 0.43739 0.69253 0.96199 0.0
C1277 C 0.45176 0.71434 0.95842 0.0
C1278 C 0.44708 0.73008 0.93483 0.0
H1279 H 0.25754 0.35304 0.90342 0.0
H1280 H 0.1802 0.3564 0.87706 0.0
H1281 H 0.17336 0.39183 0.90959 0.0
H1282 H 0.24808 0.37011 0.97762 0.0
H1283 H 0.27595 0.38863 0.97924 0.0
H1284 H 0.27434 0.36252 0.95521 0.0
H1285 H 0.28548 0.39119 0.91244 0.0
H1286 H 0.28724 0.41733 0.93634 0.0
H1287 H 0.26689 0.41845 0.90573 0.0
H1288 H 0.17537 0.42829 0.94414 0.0
H1289 H 0.18674 0.46318 0.97614 0.0
H1290 H 0.26283 0.43623 0.97829 0.0
C1291 C 0.23916 0.36121 0.90437 0.0
C1292 C 0.2194 0.35167 0.88773 0.0
C1293 C 0.19558 0.36293 0.88995 0.0
C1294 C 0.19151 0.3832 0.90829 0.0
C1295 C 0.21142 0.39212 0.92429 0.0
C1296 C 0.23479 0.3815 0.92242 0.0
C1297 C 0.25331 0.39514 0.94101 0.0
C1298 C 0.26351 0.37808 0.96467 0.0
C1299 C 0.27447 0.40619 0.92279 0.0
C1300 C 0.23681 0.41527 0.95334 0.0
C1301 C 0.21264 0.41316 0.9437 0.0
C1302 C 0.19424 0.43005 0.95191 0.0
C1303 C 0.20083 0.44978 0.97014 0.0
C1304 C 0.22565 0.4525 0.97974 0.0
C1305 C 0.24367 0.43476 0.97138 0.0
H1306 H 0.64368 0.29574 0.86118 0.0
H1307 H 0.61716 0.23249 0.81263 0.0
H1308 H 0.57934 0.23092 0.84267 0.0
H1309 H 0.62453 0.27319 0.92863 0.0
H1310 H 0.6156 0.30294 0.94304 0.0
H1311 H 0.63919 0.30115 0.91573 0.0
H1312 H 0.61406 0.3316 0.8841 0.0
H1313 H 0.5903 0.33346 0.91131 0.0
H1314 H 0.5822 0.32454 0.87531 0.0
H1315 H 0.54649 0.23385 0.87934 0.0
H1316 H 0.52087 0.23959 0.92251 0.0
H1317 H 0.56804 0.30073 0.9491 0.0
C1318 C 0.6296 0.28191 0.85664 0.0
C1319 C 0.63312 0.26431 0.8345 0.0
C1320 C 0.61471 0.24609 0.82949 0.0
C1321 C 0.59315 0.24517 0.84631 0.0
C1322 C 0.59031 0.26254 0.86818 0.0
C1323 C 0.60801 0.28053 0.87355 0.0
C1324 C 0.6012 0.29556 0.9 0.0
C1325 C 0.62132 0.29304 0.92322 0.0
C1326 C 0.59667 0.32292 0.8922 0.0
C1327 C 0.57718 0.28283 0.90893 0.0
C1328 C 0.5712 0.26406 0.88994 0.0
C1329 C 0.5508 0.24864 0.89421 0.0
C1330 C 0.53639 0.25203 0.91885 0.0
C1331 C 0.54237 0.27069 0.93907 0.0
C1332 C 0.56275 0.28666 0.93372 0.0
H1333 H 0.78288 0.66398 0.88316 0.0
H1334 H 0.72044 0.64623 0.82813 0.0
H1335 H 0.71467 0.60654 0.85376 0.0
H1336 H 0.80732 0.60129 0.88742 0.0
H1337 H 0.81649 0.6039 0.92441 0.0
H1338 H 0.81586 0.6311 0.90192 0.0
H1339 H 0.7863 0.65298 0.9378 0.0
H1340 H 0.787 0.62593 0.9605 0.0
H1341 H 0.75766 0.638 0.94806 0.0
H1342 H 0.71437 0.5701 0.88607 0.0
H1343 H 0.71981 0.53806 0.92328 0.0
H1344 H 0.78385 0.57757 0.95647 0.0
C1345 C 0.76794 0.65173 0.87669 0.0
C1346 C 0.75206 0.65808 0.85371 0.0
C1347 C 0.73287 0.64157 0.84557 0.0
C1348 C 0.72945 0.61904 0.85999 0.0
C1349 C 0.74554 0.61318 0.88234 0.0
C1350 C 0.76446 0.62894 0.89067 0.0
C1351 C 0.77911 0.61797 0.91541 0.0
C1352 C 0.80631 0.61328 0.90676 0.0
C1353 C 0.7774 0.63472 0.94202 0.0
C1354 C 0.76523 0.59374 0.91988 0.0
C1355 C 0.74591 0.59149 0.90054 0.0
C1356 C 0.72957 0.57149 0.90114 0.0
C1357 C 0.73279 0.55343 0.92234 0.0
C1358 C 0.75237 0.55529 0.94244 0.0
C1359 C 0.76905 0.57551 0.94095 0.0
loop_
_geom_bond_atom_site_label_1
_geom_bond_atom_site_label_2
_geom_bond_distance
_geom_bond_site_symmetry_2
_ccdc_geom_bond_type
H0 C19 0.949 . S
H1 C20 0.950 . S
H2 C22 0.950 . S
H3 C23 0.950 . S
H4 C25 0.950 . S
H5 C28 0.950 . S
H6 C29 0.950 . S
H7 C31 0.951 . S
H8 C32 0.949 . S
H9 C34 0.949 . S
H10 C35 0.950 . S
H11 C37 0.950 . S
H12 C38 0.950 . S
H13 C40 0.950 . S
H14 C43 0.950 . S
H15 C44 0.950 . S
H16 C46 0.951 . S
H17 C47 0.949 . S
C18 C19 1.376 . S
C18 C23 1.386 . S
C18 C24 1.483 . S
C19 H0 0.949 . S
C19 C18 1.376 . S
C19 C20 1.397 . S
C20 H1 0.950 . S
C20 C19 1.397 . S
C20 C21 1.391 . S
C21 C20 1.391 . S
C21 C22 1.405 . S
C22 H2 0.950 . S
C22 C21 1.405 . S
C22 C23 1.367 . S
C23 H3 0.950 . S
C23 C18 1.386 . S
C23 C22 1.367 . S
C24 C18 1.483 . S
C24 C25 1.382 . S
C24 C26 1.403 . S
C25 H4 0.950 . S
C25 C24 1.382 . S
C25 C41 1.411 . S
C26 C24 1.403 . S
C26 C27 1.489 . S
C26 C40 1.411 . S
C27 C26 1.489 . S
C27 C28 1.383 . S
C27 C32 1.382 . S
C28 H5 0.950 . S
C28 C27 1.383 . S
C28 C29 1.395 . S
C29 H6 0.950 . S
C29 C28 1.395 . S
C29 C30 1.288 . S
C30 C29 1.288 . S
C30 C31 1.392 . S
C31 H7 0.951 . S
C31 C30 1.392 . S
C31 C32 1.392 . S
C32 H8 0.949 . S
C32 C27 1.382 . S
C32 C31 1.392 . S
C33 C34 1.376 . S
C33 C38 1.386 . S
C33 C39 1.483 . S
C34 H9 0.949 . S
C34 C33 1.376 . S
C34 C35 1.397 . S
C35 H10 0.950 . S
C35 C34 1.397 . S
C35 C36 1.391 . S
C36 C35 1.391 . S
C36 C37 1.405 . S
C37 H11 0.950 . S
C37 C36 1.405 . S
C37 C38 1.367 . S
C38 H12 0.950 . S
C38 C33 1.386 . S
C38 C37 1.367 . S
C39 C33 1.483 . S
C39 C40 1.382 . S
C39 C41 1.403 . S
C40 H13 0.950 . S
C40 C26 1.411 . S
C40 C39 1.382 . S
C41 C25 1.411 . S
C41 C39 1.403 . S
C41 C42 1.489 . S
C42 C41 1.489 . S
C42 C43 1.383 . S
C42 C47 1.382 . S
C43 H14 0.950 . S
C43 C42 1.383 . S
C43 C44 1.395 . S
C44 H15 0.950 . S
C44 C43 1.395 . S
C44 C45 1.288 . S
C45 C44 1.288 . S
C45 C46 1.392 . S
C46 H16 0.951 . S
C46 C45 1.392 . S
C46 C47 1.392 . S
C47 H17 0.949 . S
C47 C42 1.382 . S
C47 C46 1.392 . S
H48 C67 0.949 . S
H49 C68 0.950 . S
H50 C70 0.950 . S
H51 C71 0.950 . S
H52 C73 0.950 . S
H53 C76 0.950 . S
H54 C77 0.950 . S
H55 C79 0.951 . S
H56 C80 0.949 . S
H57 C82 0.949 . S
H58 C83 0.950 . S
H59 C85 0.950 . S
H60 C86 0.950 . S
H61 C88 0.950 . S
H62 C91 0.950 . S
H63 C92 0.950 . S
H64 C94 0.951 . S
H65 C95 0.949 . S
C66 C67 1.376 . S
C66 C71 1.386 . S
C66 C72 1.483 . S
C67 H48 0.949 . S
C67 C66 1.376 . S
C67 C68 1.397 . S
C68 H49 0.950 . S
C68 C67 1.397 . S
C68 C69 1.391 . S
C69 C68 1.391 . S
C69 C70 1.405 . S
C70 H50 0.950 . S
C70 C69 1.405 . S
C70 C71 1.367 . S
C71 H51 0.950 . S
C71 C66 1.386 . S
C71 C70 1.367 . S
C72 C66 1.483 . S
C72 C73 1.382 . S
C72 C74 1.403 . S
C73 H52 0.950 . S
C73 C72 1.382 . S
C73 C89 1.411 . S
C74 C72 1.403 . S
C74 C75 1.489 . S
C74 C88 1.411 . S
C75 C74 1.489 . S
C75 C76 1.383 . S
C75 C80 1.382 . S
C76 H53 0.950 . S
C76 C75 1.383 . S
C76 C77 1.395 . S
C77 H54 0.950 . S
C77 C76 1.395 . S
C77 C78 1.288 . S
C78 C77 1.288 . S
C78 C79 1.392 . S
C79 H55 0.951 . S
C79 C78 1.392 . S
C79 C80 1.392 . S
C80 H56 0.949 . S
C80 C75 1.382 . S
C80 C79 1.392 . S
C81 C82 1.376 . S
C81 C86 1.386 . S
C81 C87 1.483 . S
C82 H57 0.949 . S
C82 C81 1.376 . S
C82 C83 1.397 . S
C83 H58 0.950 . S
C83 C82 1.397 . S
C83 C84 1.391 . S
C84 C83 1.391 . S
C84 C85 1.405 . S
C85 H59 0.950 . S
C85 C84 1.405 . S
C85 C86 1.367 . S
C86 H60 0.950 . S
C86 C81 1.386 . S
C86 C85 1.367 . S
C87 C81 1.483 . S
C87 C88 1.382 . S
C87 C89 1.403 . S
C88 H61 0.950 . S
C88 C74 1.411 . S
C88 C87 1.382 . S
C89 C73 1.411 . S
C89 C87 1.403 . S
C89 C90 1.489 . S
C90 C89 1.489 . S
C90 C91 1.383 . S
C90 C95 1.382 . S
C91 H62 0.950 . S
C91 C90 1.383 . S
C91 C92 1.395 . S
C92 H63 0.950 . S
C92 C91 1.395 . S
C92 C93 1.288 . S
C93 C92 1.288 . S
C93 C94 1.392 . S
C94 H64 0.951 . S
C94 C93 1.392 . S
C94 C95 1.392 . S
C95 H65 0.949 . S
C95 C90 1.382 . S
C95 C94 1.392 . S
H96 C115 0.949 . S
H97 C116 0.950 . S
H98 C118 0.950 . S
H99 C119 0.950 . S
H100 C121 0.950 . S
H101 C124 0.950 . S
H102 C125 0.950 . S
H103 C127 0.951 . S
H104 C128 0.949 . S
H105 C130 0.949 . S
H106 C131 0.950 . S
H107 C133 0.950 . S
H108 C134 0.950 . S
H109 C136 0.950 . S
H110 C139 0.950 . S
H111 C140 0.950 . S
H112 C142 0.951 . S
H113 C143 0.949 . S
C114 C115 1.376 . S
C114 C119 1.386 . S
C114 C120 1.483 . S
C115 H96 0.949 . S
C115 C114 1.376 . S
C115 C116 1.397 . S
C116 H97 0.950 . S
C116 C115 1.397 . S
C116 C117 1.391 . S
C117 C116 1.391 . S
C117 C118 1.405 . S
C118 H98 0.950 . S
C118 C117 1.405 . S
C118 C119 1.367 . S
C119 H99 0.950 . S
C119 C114 1.386 . S
C119 C118 1.367 . S
C120 C114 1.483 . S
C120 C121 1.382 . S
C120 C122 1.403 . S
C121 H100 0.950 . S
C121 C120 1.382 . S
C121 C137 1.411 . S
C122 C120 1.403 . S
C122 C123 1.489 . S
C122 C136 1.411 . S
C123 C122 1.489 . S
C123 C124 1.383 . S
C123 C128 1.382 . S
C124 H101 0.950 . S
C124 C123 1.383 . S
C124 C125 1.395 . S
C125 H102 0.950 . S
C125 C124 1.395 . S
C125 C126 1.288 . S
C126 C125 1.288 . S
C126 C127 1.392 . S
C127 H103 0.951 . S
C127 C126 1.392 . S
C127 C128 1.392 . S
C128 H104 0.949 . S
C128 C123 1.382 . S
C128 C127 1.392 . S
C129 C130 1.376 . S
C129 C134 1.386 . S
C129 C135 1.483 . S
C130 H105 0.949 . S
C130 C129 1.376 . S
C130 C131 1.397 . S
C131 H106 0.950 . S
C131 C130 1.397 . S
C131 C132 1.391 . S
C132 C131 1.391 . S
C132 C133 1.405 . S
C133 H107 0.950 . S
C133 C132 1.405 . S
C133 C134 1.367 . S
C134 H108 0.950 . S
C134 C129 1.386 . S
C134 C133 1.367 . S
C135 C129 1.483 . S
C135 C136 1.382 . S
C135 C137 1.403 . S
C136 H109 0.950 . S
C136 C122 1.411 . S
C136 C135 1.382 . S
C137 C121 1.411 . S
C137 C135 1.403 . S
C137 C138 1.489 . S
C138 C137 1.489 . S
C138 C139 1.383 . S
C138 C143 1.382 . S
C139 H110 0.950 . S
C139 C138 1.383 . S
C139 C140 1.395 . S
C140 H111 0.950 . S
C140 C139 1.395 . S
C140 C141 1.288 . S
C141 C140 1.288 . S
C141 C142 1.392 . S
C142 H112 0.951 . S
C142 C141 1.392 . S
C142 C143 1.392 . S
C143 H113 0.949 . S
C143 C138 1.382 . S
C143 C142 1.392 . S
H144 C163 0.949 . S
H145 C164 0.950 . S
H146 C166 0.950 . S
H147 C167 0.950 . S
H148 C169 0.950 . S
H149 C172 0.950 . S
H150 C173 0.950 . S
H151 C175 0.951 . S
H152 C176 0.949 . S
H153 C178 0.949 . S
H154 C179 0.950 . S
H155 C181 0.950 . S
H156 C182 0.950 . S
H157 C184 0.950 . S
H158 C187 0.950 . S
H159 C188 0.950 . S
H160 C190 0.951 . S
H161 C191 0.949 . S
C162 C163 1.376 . S
C162 C167 1.386 . S
C162 C168 1.483 . S
C163 H144 0.949 . S
C163 C162 1.376 . S
C163 C164 1.397 . S
C164 H145 0.950 . S
C164 C163 1.397 . S
C164 C165 1.391 . S
C165 C164 1.391 . S
C165 C166 1.405 . S
C166 H146 0.950 . S
C166 C165 1.405 . S
C166 C167 1.367 . S
C167 H147 0.950 . S
C167 C162 1.386 . S
C167 C166 1.367 . S
C168 C162 1.483 . S
C168 C169 1.382 . S
C168 C170 1.403 . S
C169 H148 0.950 . S
C169 C168 1.382 . S
C169 C185 1.411 . S
C170 C168 1.403 . S
C170 C171 1.489 . S
C170 C184 1.411 . S
C171 C170 1.489 . S
C171 C172 1.383 . S
C171 C176 1.382 . S
C172 H149 0.950 . S
C172 C171 1.383 . S
C172 C173 1.395 . S
C173 H150 0.950 . S
C173 C172 1.395 . S
C173 C174 1.288 . S
C174 C173 1.288 . S
C174 C175 1.392 . S
C175 H151 0.951 . S
C175 C174 1.392 . S
C175 C176 1.392 . S
C176 H152 0.949 . S
C176 C171 1.382 . S
C176 C175 1.392 . S
C177 C178 1.376 . S
C177 C182 1.386 . S
C177 C183 1.483 . S
C178 H153 0.949 . S
C178 C177 1.376 . S
C178 C179 1.397 . S
C179 H154 0.950 . S
C179 C178 1.397 . S
C179 C180 1.391 . S
C180 C179 1.391 . S
C180 C181 1.405 . S
C181 H155 0.950 . S
C181 C180 1.405 . S
C181 C182 1.367 . S
C182 H156 0.950 . S
C182 C177 1.386 . S
C182 C181 1.367 . S
C183 C177 1.483 . S
C183 C184 1.382 . S
C183 C185 1.403 . S
C184 H157 0.950 . S
C184 C170 1.411 . S
C184 C183 1.382 . S
C185 C169 1.411 . S
C185 C183 1.403 . S
C185 C186 1.489 . S
C186 C185 1.489 . S
C186 C187 1.383 . S
C186 C191 1.382 . S
C187 H158 0.950 . S
C187 C186 1.383 . S
C187 C188 1.395 . S
C188 H159 0.950 . S
C188 C187 1.395 . S
C188 C189 1.288 . S
C189 C188 1.288 . S
C189 C190 1.392 . S
C190 H160 0.951 . S
C190 C189 1.392 . S
C190 C191 1.392 . S
C191 H161 0.949 . S
C191 C186 1.382 . S
C191 C190 1.392 . S
H192 C211 0.949 . S
H193 C212 0.950 . S
H194 C214 0.950 . S
H195 C215 0.950 . S
H196 C217 0.950 . S
H197 C220 0.950 . S
H198 C221 0.950 . S
H199 C223 0.951 . S
H200 C224 0.949 . S
H201 C226 0.949 . S
H202 C227 0.950 . S
H203 C229 0.950 . S
H204 C230 0.950 . S
H205 C232 0.950 . S
H206 C235 0.950 . S
H207 C236 0.950 . S
H208 C238 0.951 . S
H209 C239 0.949 . S
C210 C211 1.376 . S
C210 C215 1.386 . S
C210 C216 1.483 . S
C211 H192 0.949 . S
C211 C210 1.376 . S
C211 C212 1.397 . S
C212 H193 0.950 . S
C212 C211 1.397 . S
C212 C213 1.391 . S
C213 C212 1.391 . S
C213 C214 1.405 . S
C214 H194 0.950 . S
C214 C213 1.405 . S
C214 C215 1.367 . S
C215 H195 0.950 . S
C215 C210 1.386 . S
C215 C214 1.367 . S
C216 C210 1.483 . S
C216 C217 1.382 . S
C216 C218 1.403 . S
C217 H196 0.950 . S
C217 C216 1.382 . S
C217 C233 1.411 . S
C218 C216 1.403 . S
C218 C219 1.489 . S
C218 C232 1.411 . S
C219 C218 1.489 . S
C219 C220 1.383 . S
C219 C224 1.382 . S
C220 H197 0.950 . S
C220 C219 1.383 . S
C220 C221 1.395 . S
C221 H198 0.950 . S
C221 C220 1.395 . S
C221 C222 1.288 . S
C222 C221 1.288 . S
C222 C223 1.392 . S
C223 H199 0.951 . S
C223 C222 1.392 . S
C223 C224 1.392 . S
C224 H200 0.949 . S
C224 C219 1.382 . S
C224 C223 1.392 . S
C225 C226 1.376 . S
C225 C230 1.386 . S
C225 C231 1.483 . S
C226 H201 0.949 . S
C226 C225 1.376 . S
C226 C227 1.397 . S
C227 H202 0.950 . S
C227 C226 1.397 . S
C227 C228 1.391 . S
C228 C227 1.391 . S
C228 C229 1.405 . S
C229 H203 0.950 . S
C229 C228 1.405 . S
C229 C230 1.367 . S
C230 H204 0.950 . S
C230 C225 1.386 . S
C230 C229 1.367 . S
C231 C225 1.483 . S
C231 C232 1.382 . S
C231 C233 1.403 . S
C232 H205 0.950 . S
C232 C218 1.411 . S
C232 C231 1.382 . S
C233 C217 1.411 . S
C233 C231 1.403 . S
C233 C234 1.489 . S
C234 C233 1.489 . S
C234 C235 1.383 . S
C234 C239 1.382 . S
C235 H206 0.950 . S
C235 C234 1.383 . S
C235 C236 1.395 . S
C236 H207 0.950 . S
C236 C235 1.395 . S
C236 C237 1.288 . S
C237 C236 1.288 . S
C237 C238 1.392 . S
C238 H208 0.951 . S
C238 C237 1.392 . S
C238 C239 1.392 . S
C239 H209 0.949 . S
C239 C234 1.382 . S
C239 C238 1.392 . S
H240 C259 0.949 . S
H241 C260 0.950 . S
H242 C262 0.950 . S
H243 C263 0.950 . S
H244 C265 0.950 . S
H245 C268 0.950 . S
H246 C269 0.950 . S
H247 C271 0.951 . S
H248 C272 0.949 . S
H249 C274 0.949 . S
H250 C275 0.950 . S
H251 C277 0.950 . S
H252 C278 0.950 . S
H253 C280 0.950 . S
H254 C283 0.950 . S
H255 C284 0.950 . S
H256 C286 0.951 . S
H257 C287 0.949 . S
C258 C259 1.376 . S
C258 C263 1.386 . S
C258 C264 1.483 . S
C259 H240 0.949 . S
C259 C258 1.376 . S
C259 C260 1.397 . S
C260 H241 0.950 . S
C260 C259 1.397 . S
C260 C261 1.391 . S
C261 C260 1.391 . S
C261 C262 1.405 . S
C262 H242 0.950 . S
C262 C261 1.405 . S
C262 C263 1.367 . S
C263 H243 0.950 . S
C263 C258 1.386 . S
C263 C262 1.367 . S
C264 C258 1.483 . S
C264 C265 1.382 . S
C264 C266 1.403 . S
C265 H244 0.950 . S
C265 C264 1.382 . S
C265 C281 1.411 . S
C266 C264 1.403 . S
C266 C267 1.489 . S
C266 C280 1.411 . S
C267 C266 1.489 . S
C267 C268 1.383 . S
C267 C272 1.382 . S
C268 H245 0.950 . S
C268 C267 1.383 . S
C268 C269 1.395 . S
C269 H246 0.950 . S
C269 C268 1.395 . S
C269 C270 1.288 . S
C270 C269 1.288 . S
C270 C271 1.392 . S
C271 H247 0.951 . S
C271 C270 1.392 . S
C271 C272 1.392 . S
C272 H248 0.949 . S
C272 C267 1.382 . S
C272 C271 1.392 . S
C273 C274 1.376 . S
C273 C278 1.386 . S
C273 C279 1.483 . S
C274 H249 0.949 . S
C274 C273 1.376 . S
C274 C275 1.397 . S
C275 H250 0.950 . S
C275 C274 1.397 . S
C275 C276 1.391 . S
C276 C275 1.391 . S
C276 C277 1.405 . S
C277 H251 0.950 . S
C277 C276 1.405 . S
C277 C278 1.367 . S
C278 H252 0.950 . S
C278 C273 1.386 . S
C278 C277 1.367 . S
C279 C273 1.483 . S
C279 C280 1.382 . S
C279 C281 1.403 . S
C280 H253 0.950 . S
C280 C266 1.411 . S
C280 C279 1.382 . S
C281 C265 1.411 . S
C281 C279 1.403 . S
C281 C282 1.489 . S
C282 C281 1.489 . S
C282 C283 1.383 . S
C282 C287 1.382 . S
C283 H254 0.950 . S
C283 C282 1.383 . S
C283 C284 1.395 . S
C284 H255 0.950 . S
C284 C283 1.395 . S
C284 C285 1.288 . S
C285 C284 1.288 . S
C285 C286 1.392 . S
C286 H256 0.951 . S
C286 C285 1.392 . S
C286 C287 1.392 . S
C287 H257 0.949 . S
C287 C282 1.382 . S
C287 C286 1.392 . S
H288 C307 0.949 . S
H289 C308 0.950 . S
H290 C310 0.950 . S
H291 C311 0.950 . S
H292 C313 0.950 . S
H293 C316 0.950 . S
H294 C317 0.950 . S
H295 C319 0.951 . S
H296 C320 0.949 . S
H297 C322 0.949 . S
H298 C323 0.950 . S
H299 C325 0.950 . S
H300 C326 0.950 . S
H301 C328 0.950 . S
H302 C331 0.950 . S
H303 C332 0.950 . S
H304 C334 0.951 . S
H305 C335 0.949 . S
C306 C307 1.376 . S
C306 C311 1.386 . S
C306 C312 1.483 . S
C307 H288 0.949 . S
C307 C306 1.376 . S
C307 C308 1.397 . S
C308 H289 0.950 . S
C308 C307 1.397 . S
C308 C309 1.391 . S
C309 C308 1.391 . S
C309 C310 1.405 . S
C310 H290 0.950 . S
C310 C309 1.405 . S
C310 C311 1.367 . S
C311 H291 0.950 . S
C311 C306 1.386 . S
C311 C310 1.367 . S
C312 C306 1.483 . S
C312 C313 1.382 . S
C312 C314 1.403 . S
C313 H292 0.950 . S
C313 C312 1.382 . S
C313 C329 1.411 . S
C314 C312 1.403 . S
C314 C315 1.489 . S
C314 C328 1.411 . S
C315 C314 1.489 . S
C315 C316 1.383 . S
C315 C320 1.382 . S
C316 H293 0.950 . S
C316 C315 1.383 . S
C316 C317 1.395 . S
C317 H294 0.950 . S
C317 C316 1.395 . S
C317 C318 1.288 . S
C318 C317 1.288 . S
C318 C319 1.392 . S
C319 H295 0.951 . S
C319 C318 1.392 . S
C319 C320 1.392 . S
C320 H296 0.949 . S
C320 C315 1.382 . S
C320 C319 1.392 . S
C321 C322 1.376 . S
C321 C326 1.386 . S
C321 C327 1.483 . S
C322 H297 0.949 . S
C322 C321 1.376 . S
C322 C323 1.397 . S
C323 H298 0.950 . S
C323 C322 1.397 . S
C323 C324 1.391 . S
C324 C323 1.391 . S
C324 C325 1.405 . S
C325 H299 0.950 . S
C325 C324 1.405 . S
C325 C326 1.367 . S
C326 H300 0.950 . S
C326 C321 1.386 . S
C326 C325 1.367 . S
C327 C321 1.483 . S
C327 C328 1.382 . S
C327 C329 1.403 . S
C328 H301 0.950 . S
C328 C314 1.411 . S
C328 C327 1.382 . S
C329 C313 1.411 . S
C329 C327 1.403 . S
C329 C330 1.489 . S
C330 C329 1.489 . S
C330 C331 1.383 . S
C330 C335 1.382 . S
C331 H302 0.950 . S
C331 C330 1.383 . S
C331 C332 1.395 . S
C332 H303 0.950 . S
C332 C331 1.395 . S
C332 C333 1.288 . S
C333 C332 1.288 . S
C333 C334 1.392 . S
C334 H304 0.951 . S
C334 C333 1.392 . S
C334 C335 1.392 . S
C335 H305 0.949 . S
C335 C330 1.382 . S
C335 C334 1.392 . S
H336 C355 0.949 . S
H337 C356 0.950 . S
H338 C358 0.950 . S
H339 C359 0.950 . S
H340 C361 0.950 . S
H341 C364 0.950 . S
H342 C365 0.950 . S
H343 C367 0.951 . S
H344 C368 0.949 . S
H345 C370 0.949 . S
H346 C371 0.950 . S
H347 C373 0.950 . S
H348 C374 0.950 . S
H349 C376 0.950 . S
H350 C379 0.950 . S
H351 C380 0.950 . S
H352 C382 0.951 . S
H353 C383 0.949 . S
C354 C355 1.376 . S
C354 C359 1.386 . S
C354 C360 1.483 . S
C355 H336 0.949 . S
C355 C354 1.376 . S
C355 C356 1.397 . S
C356 H337 0.950 . S
C356 C355 1.397 . S
C356 C357 1.391 . S
C357 C356 1.391 . S
C357 C358 1.405 . S
C358 H338 0.950 . S
C358 C357 1.405 . S
C358 C359 1.367 . S
C359 H339 0.950 . S
C359 C354 1.386 . S
C359 C358 1.367 . S
C360 C354 1.483 . S
C360 C361 1.382 . S
C360 C362 1.403 . S
C361 H340 0.950 . S
C361 C360 1.382 . S
C361 C377 1.411 . S
C362 C360 1.403 . S
C362 C363 1.489 . S
C362 C376 1.411 . S
C363 C362 1.489 . S
C363 C364 1.383 . S
C363 C368 1.382 . S
C364 H341 0.950 . S
C364 C363 1.383 . S
C364 C365 1.395 . S
C365 H342 0.950 . S
C365 C364 1.395 . S
C365 C366 1.288 . S
C366 C365 1.288 . S
C366 C367 1.392 . S
C367 H343 0.951 . S
C367 C366 1.392 . S
C367 C368 1.392 . S
C368 H344 0.949 . S
C368 C363 1.382 . S
C368 C367 1.392 . S
C369 C370 1.376 . S
C369 C374 1.386 . S
C369 C375 1.483 . S
C370 H345 0.949 . S
C370 C369 1.376 . S
C370 C371 1.397 . S
C371 H346 0.950 . S
C371 C370 1.397 . S
C371 C372 1.391 . S
C372 C371 1.391 . S
C372 C373 1.405 . S
C373 H347 0.950 . S
C373 C372 1.405 . S
C373 C374 1.367 . S
C374 H348 0.950 . S
C374 C369 1.386 . S
C374 C373 1.367 . S
C375 C369 1.483 . S
C375 C376 1.382 . S
C375 C377 1.403 . S
C376 H349 0.950 . S
C376 C362 1.411 . S
C376 C375 1.382 . S
C377 C361 1.411 . S
C377 C375 1.403 . S
C377 C378 1.489 . S
C378 C377 1.489 . S
C378 C379 1.383 . S
C378 C383 1.382 . S
C379 H350 0.950 . S
C379 C378 1.383 . S
C379 C380 1.395 . S
C380 H351 0.950 . S
C380 C379 1.395 . S
C380 C381 1.288 . S
C381 C380 1.288 . S
C381 C382 1.392 . S
C382 H352 0.951 . S
C382 C381 1.392 . S
C382 C383 1.392 . S
C383 H353 0.949 . S
C383 C378 1.382 . S
C383 C382 1.392 . S
C384 O386 1.247 . S
C384 O388 1.258 . S
C385 O392 1.247 . S
C385 O393 1.258 . S
O386 C384 1.247 . S
O386 Zn387 2.025 . S
Zn387 O386 2.025 . S
Zn387 O391 2.038 1_655 S
Zn387 O393 2.038 1_655 S
Zn387 O394 2.025 . S
O388 C384 1.258 . S
O388 Zn389 2.025 1_655 S
Zn389 O388 2.025 1_455 S
Zn389 O390 2.038 . S
Zn389 O392 2.038 . S
Zn389 O395 2.025 1_455 S
O390 Zn389 2.038 . S
O390 C396 1.247 . S
O391 Zn387 2.038 1_455 S
O391 C396 1.258 . S
O392 C385 1.247 . S
O392 Zn389 2.038 . S
O393 C385 1.258 . S
O393 Zn387 2.038 1_455 S
O394 Zn387 2.025 . S
O394 C397 1.247 . S
O395 Zn389 2.025 1_655 S
O395 C397 1.258 . S
C396 O390 1.247 . S
C396 O391 1.258 . S
C397 O394 1.247 . S
C397 O395 1.258 . S
C398 O400 1.247 . S
C398 O402 1.258 . S
C399 O406 1.247 . S
C399 O407 1.258 . S
O400 C398 1.247 . S
O400 Zn401 2.039 . S
Zn401 O400 2.039 . S
Zn401 O405 2.024 1_545 S
Zn401 O407 2.024 1_545 S
Zn401 O408 2.039 . S
O402 C398 1.258 . S
O402 Zn403 2.039 1_545 S
Zn403 O402 2.039 1_565 S
Zn403 O404 2.024 . S
Zn403 O406 2.024 . S
Zn403 O409 2.039 1_565 S
O404 Zn403 2.024 . S
O404 C410 1.247 . S
O405 Zn401 2.024 1_565 S
O405 C410 1.258 . S
O406 C399 1.247 . S
O406 Zn403 2.024 . S
O407 C399 1.258 . S
O407 Zn401 2.024 1_565 S
O408 Zn401 2.039 . S
O408 C411 1.247 . S
O409 Zn403 2.039 1_545 S
O409 C411 1.258 . S
C410 O404 1.247 . S
C410 O405 1.258 . S
C411 O408 1.247 . S
C411 O409 1.258 . S
C412 O414 1.247 . S
C412 O416 1.258 . S
C413 O420 1.247 . S
C413 O421 1.258 . S
O414 C412 1.247 . S
O414 Zn415 2.032 1_655 S
Zn415 O414 2.032 1_455 S
Zn415 O419 2.031 . S
Zn415 O421 2.031 . S
Zn415 O422 2.032 1_455 S
O416 C412 1.258 . S
O416 Zn417 2.024 1_655 S
Zn417 O416 2.024 1_455 S
Zn417 O418 2.039 . S
Zn417 O420 2.039 . S
Zn417 O423 2.024 1_455 S
O418 Zn417 2.039 . S
O418 C424 1.247 . S
O419 Zn415 2.031 . S
O419 C424 1.258 . S
O420 C413 1.247 . S
O420 Zn417 2.039 . S
O421 C413 1.258 . S
O421 Zn415 2.031 . S
O422 Zn415 2.032 1_655 S
O422 C425 1.247 . S
O423 Zn417 2.024 1_655 S
O423 C425 1.258 . S
C424 O418 1.247 . S
C424 O419 1.258 . S
C425 O422 1.247 . S
C425 O423 1.258 . S
C426 O428 1.247 . S
C426 O430 1.258 . S
C427 O434 1.247 . S
C427 O435 1.258 . S
O428 C426 1.247 . S
O428 Zn429 2.039 . S
Zn429 O428 2.039 . S
Zn429 O433 2.024 1_545 S
Zn429 O435 2.024 1_545 S
Zn429 O436 2.039 . S
O430 C426 1.258 . S
O430 Zn431 2.032 . S
Zn431 O430 2.032 . S
Zn431 O432 2.031 1_545 S
Zn431 O434 2.031 1_545 S
Zn431 O437 2.032 . S
O432 Zn431 2.031 1_565 S
O432 C438 1.247 . S
O433 Zn429 2.024 1_565 S
O433 C438 1.258 . S
O434 C427 1.247 . S
O434 Zn431 2.031 1_565 S
O435 C427 1.258 . S
O435 Zn429 2.024 1_565 S
O436 Zn429 2.039 . S
O436 C439 1.247 . S
O437 Zn431 2.032 . S
O437 C439 1.258 . S
C438 O432 1.247 . S
C438 O433 1.258 . S
C439 O436 1.247 . S
C439 O437 1.258 . S
C440 O442 1.247 . S
C440 O444 1.258 . S
C441 O448 1.247 . S
C441 O449 1.258 . S
O442 C440 1.247 . S
O442 Zn443 2.028 . S
Zn443 O442 2.028 . S
Zn443 O447 2.035 . S
Zn443 O449 2.035 1_554 S
Zn443 O450 2.028 1_554 S
O444 C440 1.258 . S
O444 Zn445 2.035 . S
Zn445 O444 2.035 . S
Zn445 O446 2.028 . S
Zn445 O448 2.028 1_554 S
Zn445 O451 2.035 1_554 S
O446 Zn445 2.028 . S
O446 C452 1.247 . S
O447 Zn443 2.035 . S
O447 C452 1.258 . S
O448 C441 1.247 . S
O448 Zn445 2.028 1_556 S
O449 C441 1.258 . S
O449 Zn443 2.035 1_556 S
O450 Zn443 2.028 1_556 S
O450 C453 1.247 . S
O451 Zn445 2.035 1_556 S
O451 C453 1.258 . S
C452 O446 1.247 . S
C452 O447 1.258 . S
C453 O450 1.247 . S
C453 O451 1.258 . S
C454 O456 1.247 . S
C454 O458 1.258 . S
C455 O462 1.247 . S
C455 O463 1.258 . S
O456 C454 1.247 . S
O456 Zn457 2.028 . S
Zn457 O456 2.028 . S
Zn457 O461 2.035 . S
Zn457 O463 2.035 1_554 S
Zn457 O464 2.028 1_554 S
O458 C454 1.258 . S
O458 Zn459 2.035 . S
Zn459 O458 2.035 . S
Zn459 O460 2.028 . S
Zn459 O462 2.028 1_554 S
Zn459 O465 2.035 1_554 S
O460 Zn459 2.028 . S
O460 C466 1.247 . S
O461 Zn457 2.035 . S
O461 C466 1.258 . S
O462 C455 1.247 . S
O462 Zn459 2.028 1_556 S
O463 C455 1.258 . S
O463 Zn457 2.035 1_556 S
O464 Zn457 2.028 1_556 S
O464 C467 1.247 . S
O465 Zn459 2.035 1_556 S
O465 C467 1.258 . S
C466 O460 1.247 . S
C466 O461 1.258 . S
C467 O464 1.247 . S
C467 O465 1.258 . S
C468 O470 1.247 . S
C468 O472 1.258 . S
C469 O476 1.247 . S
C469 O477 1.258 . S
O470 C468 1.247 . S
O470 Zn471 2.028 1_556 S
Zn471 O470 2.028 1_554 S
Zn471 O475 2.035 1_554 S
Zn471 O477 2.035 . S
Zn471 O478 2.028 . S
O472 C468 1.258 . S
O472 Zn473 2.035 1_556 S
Zn473 O472 2.035 1_554 S
Zn473 O474 2.028 1_554 S
Zn473 O476 2.028 . S
Zn473 O479 2.035 . S
O474 Zn473 2.028 1_556 S
O474 C480 1.247 . S
O475 Zn471 2.035 1_556 S
O475 C480 1.258 . S
O476 C469 1.247 . S
O476 Zn473 2.028 . S
O477 C469 1.258 . S
O477 Zn471 2.035 . S
O478 Zn471 2.028 . S
O478 C481 1.247 . S
O479 Zn473 2.035 . S
O479 C481 1.258 . S
C480 O474 1.247 . S
C480 O475 1.258 . S
C481 O478 1.247 . S
C481 O479 1.258 . S
C482 O484 1.247 . S
C482 O486 1.258 . S
C483 O490 1.247 . S
C483 O491 1.258 . S
O484 C482 1.247 . S
O484 Zn485 2.028 . S
Zn485 O484 2.028 . S
Zn485 O489 2.035 . S
Zn485 O491 2.035 1_554 S
Zn485 O492 2.028 1_554 S
O486 C482 1.258 . S
O486 Zn487 2.035 . S
Zn487 O486 2.035 . S
Zn487 O488 2.028 . S
Zn487 O490 2.028 1_554 S
Zn487 O493 2.035 1_554 S
O488 Zn487 2.028 . S
O488 C494 1.247 . S
O489 Zn485 2.035 . S
O489 C494 1.258 . S
O490 C483 1.247 . S
O490 Zn487 2.028 1_556 S
O491 C483 1.258 . S
O491 Zn485 2.035 1_556 S
O492 Zn485 2.028 1_556 S
O492 C495 1.247 . S
O493 Zn487 2.035 1_556 S
O493 C495 1.258 . S
C494 O488 1.247 . S
C494 O489 1.258 . S
C495 O492 1.247 . S
C495 O493 1.258 . S
H496 C508 0.930 . S
H497 C510 0.930 . S
H498 C511 0.930 . S
H499 C515 0.959 . S
H500 C515 0.959 . S
H501 C515 0.961 . S
H502 C516 0.960 . S
H503 C516 0.961 . S
H504 C516 0.959 . S
H505 C519 0.929 . S
H506 C520 0.931 . S
H507 C522 0.930 . S
C508 H496 0.930 . S
C508 C509 1.399 . S
C508 C513 1.399 . S
C509 C508 1.399 . S
C509 C510 1.376 . S
C510 H497 0.930 . S
C510 C509 1.376 . S
C510 C511 1.388 . S
C511 H498 0.930 . S
C511 C510 1.388 . S
C511 C512 1.390 . S
C512 C511 1.390 . S
C512 C513 1.394 . S
C512 C518 1.465 . S
C513 C508 1.399 . S
C513 C512 1.394 . S
C513 C514 1.516 . S
C514 C513 1.516 . S
C514 C515 1.502 . S
C514 C516 1.561 . S
C514 C517 1.526 . S
C515 H499 0.959 . S
C515 H500 0.959 . S
C515 H501 0.961 . S
C515 C514 1.502 . S
C516 H502 0.960 . S
C516 H503 0.961 . S
C516 H504 0.959 . S
C516 C514 1.561 . S
C517 C514 1.526 . S
C517 C518 1.396 . S
C517 C522 1.390 . S
C518 C512 1.465 . S
C518 C517 1.396 . S
C518 C519 1.399 . S
C519 H505 0.929 . S
C519 C518 1.399 . S
C519 C520 1.385 . S
C520 H506 0.931 . S
C520 C519 1.385 . S
C520 C521 1.389 . S
C521 C520 1.389 . S
C521 C522 1.387 . S
C522 H507 0.930 . S
C522 C517 1.390 . S
C522 C521 1.387 . S
H523 C535 0.930 . S
H524 C537 0.930 . S
H525 C538 0.930 . S
H526 C542 0.959 . S
H527 C542 0.959 . S
H528 C542 0.961 . S
H529 C543 0.960 . S
H530 C543 0.961 . S
H531 C543 0.959 . S
H532 C546 0.929 . S
H533 C547 0.931 . S
H534 C549 0.930 . S
C535 H523 0.930 . S
C535 C536 1.399 . S
C535 C540 1.399 . S
C536 C535 1.399 . S
C536 C537 1.376 . S
C537 H524 0.930 . S
C537 C536 1.376 . S
C537 C538 1.388 . S
C538 H525 0.930 . S
C538 C537 1.388 . S
C538 C539 1.390 . S
C539 C538 1.390 . S
C539 C540 1.394 . S
C539 C545 1.465 . S
C540 C535 1.399 . S
C540 C539 1.394 . S
C540 C541 1.516 . S
C541 C540 1.516 . S
C541 C542 1.502 . S
C541 C543 1.561 . S
C541 C544 1.526 . S
C542 H526 0.959 . S
C542 H527 0.959 . S
C542 H528 0.961 . S
C542 C541 1.502 . S
C543 H529 0.960 . S
C543 H530 0.961 . S
C543 H531 0.959 . S
C543 C541 1.561 . S
C544 C541 1.526 . S
C544 C545 1.396 . S
C544 C549 1.390 . S
C545 C539 1.465 . S
C545 C544 1.396 . S
C545 C546 1.399 . S
C546 H532 0.929 . S
C546 C545 1.399 . S
C546 C547 1.385 . S
C547 H533 0.931 . S
C547 C546 1.385 . S
C547 C548 1.389 . S
C548 C547 1.389 . S
C548 C549 1.387 . S
C549 H534 0.930 . S
C549 C544 1.390 . S
C549 C548 1.387 . S
H550 C562 0.930 . S
H551 C564 0.930 . S
H552 C565 0.930 . S
H553 C569 0.959 . S
H554 C569 0.959 . S
H555 C569 0.961 . S
H556 C570 0.960 . S
H557 C570 0.961 . S
H558 C570 0.959 . S
H559 C573 0.929 . S
H560 C574 0.931 . S
H561 C576 0.930 . S
C562 H550 0.930 . S
C562 C563 1.399 . S
C562 C567 1.399 . S
C563 C562 1.399 . S
C563 C564 1.376 . S
C564 H551 0.930 . S
C564 C563 1.376 . S
C564 C565 1.388 . S
C565 H552 0.930 . S
C565 C564 1.388 . S
C565 C566 1.390 . S
C566 C565 1.390 . S
C566 C567 1.394 . S
C566 C572 1.465 . S
C567 C562 1.399 . S
C567 C566 1.394 . S
C567 C568 1.516 . S
C568 C567 1.516 . S
C568 C569 1.502 . S
C568 C570 1.561 . S
C568 C571 1.526 . S
C569 H553 0.959 . S
C569 H554 0.959 . S
C569 H555 0.961 . S
C569 C568 1.502 . S
C570 H556 0.960 . S
C570 H557 0.961 . S
C570 H558 0.959 . S
C570 C568 1.561 . S
C571 C568 1.526 . S
C571 C572 1.396 . S
C571 C576 1.390 . S
C572 C566 1.465 . S
C572 C571 1.396 . S
C572 C573 1.399 . S
C573 H559 0.929 . S
C573 C572 1.399 . S
C573 C574 1.385 . S
C574 H560 0.931 . S
C574 C573 1.385 . S
C574 C575 1.389 . S
C575 C574 1.389 . S
C575 C576 1.387 . S
C576 H561 0.930 . S
C576 C571 1.390 . S
C576 C575 1.387 . S
H577 C589 0.930 . S
H578 C591 0.930 . S
H579 C592 0.930 . S
H580 C596 0.959 . S
H581 C596 0.959 . S
H582 C596 0.961 . S
H583 C597 0.960 . S
H584 C597 0.961 . S
H585 C597 0.959 . S
H586 C600 0.929 . S
H587 C601 0.931 . S
H588 C603 0.930 . S
C589 H577 0.930 . S
C589 C590 1.399 . S
C589 C594 1.399 . S
C590 C589 1.399 . S
C590 C591 1.376 . S
C591 H578 0.930 . S
C591 C590 1.376 . S
C591 C592 1.388 . S
C592 H579 0.930 . S
C592 C591 1.388 . S
C592 C593 1.390 . S
C593 C592 1.390 . S
C593 C594 1.394 . S
C593 C599 1.465 . S
C594 C589 1.399 . S
C594 C593 1.394 . S
C594 C595 1.516 . S
C595 C594 1.516 . S
C595 C596 1.502 . S
C595 C597 1.561 . S
C595 C598 1.526 . S
C596 H580 0.959 . S
C596 H581 0.959 . S
C596 H582 0.961 . S
C596 C595 1.502 . S
C597 H583 0.960 . S
C597 H584 0.961 . S
C597 H585 0.959 . S
C597 C595 1.561 . S
C598 C595 1.526 . S
C598 C599 1.396 . S
C598 C603 1.390 . S
C599 C593 1.465 . S
C599 C598 1.396 . S
C599 C600 1.399 . S
C600 H586 0.929 . S
C600 C599 1.399 . S
C600 C601 1.385 . S
C601 H587 0.931 . S
C601 C600 1.385 . S
C601 C602 1.389 . S
C602 C601 1.389 . S
C602 C603 1.387 . S
C603 H588 0.930 . S
C603 C598 1.390 . S
C603 C602 1.387 . S
H604 C616 0.930 . S
H605 C618 0.930 . S
H606 C619 0.930 . S
H607 C623 0.959 . S
H608 C623 0.959 . S
H609 C623 0.961 . S
H610 C624 0.960 . S
H611 C624 0.961 . S
H612 C624 0.959 . S
H613 C627 0.929 . S
H614 C628 0.931 . S
H615 C630 0.930 . S
C616 H604 0.930 . S
C616 C617 1.399 . S
C616 C621 1.399 . S
C617 C616 1.399 . S
C617 C618 1.376 . S
C618 H605 0.930 . S
C618 C617 1.376 . S
C618 C619 1.388 . S
C619 H606 0.930 . S
C619 C618 1.388 . S
C619 C620 1.390 . S
C620 C619 1.390 . S
C620 C621 1.394 . S
C620 C626 1.465 . S
C621 C616 1.399 . S
C621 C620 1.394 . S
C621 C622 1.516 . S
C622 C621 1.516 . S
C622 C623 1.502 . S
C622 C624 1.561 . S
C622 C625 1.526 . S
C623 H607 0.959 . S
C623 H608 0.959 . S
C623 H609 0.961 . S
C623 C622 1.502 . S
C624 H610 0.960 . S
C624 H611 0.961 . S
C624 H612 0.959 . S
C624 C622 1.561 . S
C625 C622 1.526 . S
C625 C626 1.396 . S
C625 C630 1.390 . S
C626 C620 1.465 . S
C626 C625 1.396 . S
C626 C627 1.399 . S
C627 H613 0.929 . S
C627 C626 1.399 . S
C627 C628 1.385 . S
C628 H614 0.931 . S
C628 C627 1.385 . S
C628 C629 1.389 . S
C629 C628 1.389 . S
C629 C630 1.387 . S
C630 H615 0.930 . S
C630 C625 1.390 . S
C630 C629 1.387 . S
H631 C643 0.930 . S
H632 C645 0.930 . S
H633 C646 0.930 . S
H634 C650 0.959 . S
H635 C650 0.959 . S
H636 C650 0.961 . S
H637 C651 0.960 . S
H638 C651 0.961 . S
H639 C651 0.959 . S
H640 C654 0.929 . S
H641 C655 0.931 . S
H642 C657 0.930 . S
C643 H631 0.930 . S
C643 C644 1.399 . S
C643 C648 1.399 . S
C644 C643 1.399 . S
C644 C645 1.376 . S
C645 H632 0.930 . S
C645 C644 1.376 . S
C645 C646 1.388 . S
C646 H633 0.930 . S
C646 C645 1.388 . S
C646 C647 1.390 . S
C647 C646 1.390 . S
C647 C648 1.394 . S
C647 C653 1.465 . S
C648 C643 1.399 . S
C648 C647 1.394 . S
C648 C649 1.516 . S
C649 C648 1.516 . S
C649 C650 1.502 . S
C649 C651 1.561 . S
C649 C652 1.526 . S
C650 H634 0.959 . S
C650 H635 0.959 . S
C650 H636 0.961 . S
C650 C649 1.502 . S
C651 H637 0.960 . S
C651 H638 0.961 . S
C651 H639 0.959 . S
C651 C649 1.561 . S
C652 C649 1.526 . S
C652 C653 1.396 . S
C652 C657 1.390 . S
C653 C647 1.465 . S
C653 C652 1.396 . S
C653 C654 1.399 . S
C654 H640 0.929 . S
C654 C653 1.399 . S
C654 C655 1.385 . S
C655 H641 0.931 . S
C655 C654 1.385 . S
C655 C656 1.389 . S
C656 C655 1.389 . S
C656 C657 1.387 . S
C657 H642 0.930 . S
C657 C652 1.390 . S
C657 C656 1.387 . S
H658 C670 0.930 . S
H659 C672 0.930 . S
H660 C673 0.930 . S
H661 C677 0.959 . S
H662 C677 0.959 . S
H663 C677 0.961 . S
H664 C678 0.960 . S
H665 C678 0.961 . S
H666 C678 0.959 . S
H667 C681 0.929 . S
H668 C682 0.931 . S
H669 C684 0.930 . S
C670 H658 0.930 . S
C670 C671 1.399 . S
C670 C675 1.399 . S
C671 C670 1.399 . S
C671 C672 1.376 . S
C672 H659 0.930 . S
C672 C671 1.376 . S
C672 C673 1.388 . S
C673 H660 0.930 . S
C673 C672 1.388 . S
C673 C674 1.390 . S
C674 C673 1.390 . S
C674 C675 1.394 . S
C674 C680 1.465 . S
C675 C670 1.399 . S
C675 C674 1.394 . S
C675 C676 1.516 . S
C676 C675 1.516 . S
C676 C677 1.502 . S
C676 C678 1.561 . S
C676 C679 1.526 . S
C677 H661 0.959 . S
C677 H662 0.959 . S
C677 H663 0.961 . S
C677 C676 1.502 . S
C678 H664 0.960 . S
C678 H665 0.961 . S
C678 H666 0.959 . S
C678 C676 1.561 . S
C679 C676 1.526 . S
C679 C680 1.396 . S
C679 C684 1.390 . S
C680 C674 1.465 . S
C680 C679 1.396 . S
C680 C681 1.399 . S
C681 H667 0.929 . S
C681 C680 1.399 . S
C681 C682 1.385 . S
C682 H668 0.931 . S
C682 C681 1.385 . S
C682 C683 1.389 . S
C683 C682 1.389 . S
C683 C684 1.387 . S
C684 H669 0.930 . S
C684 C679 1.390 . S
C684 C683 1.387 . S
H685 C697 0.930 . S
H686 C699 0.930 . S
H687 C700 0.930 . S
H688 C704 0.959 . S
H689 C704 0.959 . S
H690 C704 0.961 . S
H691 C705 0.960 . S
H692 C705 0.961 . S
H693 C705 0.959 . S
H694 C708 0.929 . S
H695 C709 0.931 . S
H696 C711 0.930 . S
C697 H685 0.930 . S
C697 C698 1.399 . S
C697 C702 1.399 . S
C698 C697 1.399 . S
C698 C699 1.376 . S
C699 H686 0.930 . S
C699 C698 1.376 . S
C699 C700 1.388 . S
C700 H687 0.930 . S
C700 C699 1.388 . S
C700 C701 1.390 . S
C701 C700 1.390 . S
C701 C702 1.394 . S
C701 C707 1.465 . S
C702 C697 1.399 . S
C702 C701 1.394 . S
C702 C703 1.516 . S
C703 C702 1.516 . S
C703 C704 1.502 . S
C703 C705 1.561 . S
C703 C706 1.526 . S
C704 H688 0.959 . S
C704 H689 0.959 . S
C704 H690 0.961 . S
C704 C703 1.502 . S
C705 H691 0.960 . S
C705 H692 0.961 . S
C705 H693 0.959 . S
C705 C703 1.561 . S
C706 C703 1.526 . S
C706 C707 1.396 . S
C706 C711 1.390 . S
C707 C701 1.465 . S
C707 C706 1.396 . S
C707 C708 1.399 . S
C708 H694 0.929 . S
C708 C707 1.399 . S
C708 C709 1.385 . S
C709 H695 0.931 . S
C709 C708 1.385 . S
C709 C710 1.389 . S
C710 C709 1.389 . S
C710 C711 1.387 . S
C711 H696 0.930 . S
C711 C706 1.390 . S
C711 C710 1.387 . S
H712 C724 0.930 . S
H713 C726 0.930 . S
H714 C727 0.930 . S
H715 C731 0.959 . S
H716 C731 0.959 . S
H717 C731 0.961 . S
H718 C732 0.960 . S
H719 C732 0.961 . S
H720 C732 0.959 . S
H721 C735 0.929 . S
H722 C736 0.931 . S
H723 C738 0.930 . S
C724 H712 0.930 . S
C724 C725 1.399 . S
C724 C729 1.399 . S
C725 C724 1.399 . S
C725 C726 1.376 . S
C726 H713 0.930 . S
C726 C725 1.376 . S
C726 C727 1.388 . S
C727 H714 0.930 . S
C727 C726 1.388 . S
C727 C728 1.390 . S
C728 C727 1.390 . S
C728 C729 1.394 . S
C728 C734 1.465 . S
C729 C724 1.399 . S
C729 C728 1.394 . S
C729 C730 1.516 . S
C730 C729 1.516 . S
C730 C731 1.502 . S
C730 C732 1.561 . S
C730 C733 1.526 . S
C731 H715 0.959 . S
C731 H716 0.959 . S
C731 H717 0.961 . S
C731 C730 1.502 . S
C732 H718 0.960 . S
C732 H719 0.961 . S
C732 H720 0.959 . S
C732 C730 1.561 . S
C733 C730 1.526 . S
C733 C734 1.396 . S
C733 C738 1.390 . S
C734 C728 1.465 . S
C734 C733 1.396 . S
C734 C735 1.399 . S
C735 H721 0.929 . S
C735 C734 1.399 . S
C735 C736 1.385 . S
C736 H722 0.931 . S
C736 C735 1.385 . S
C736 C737 1.389 . S
C737 C736 1.389 . S
C737 C738 1.387 . S
C738 H723 0.930 . S
C738 C733 1.390 . S
C738 C737 1.387 . S
H739 C751 0.930 . S
H740 C753 0.930 . S
H741 C754 0.930 . S
H742 C758 0.959 . S
H743 C758 0.959 . S
H744 C758 0.961 . S
H745 C759 0.960 . S
H746 C759 0.961 . S
H747 C759 0.959 . S
H748 C762 0.929 . S
H749 C763 0.931 . S
H750 C765 0.930 . S
C751 H739 0.930 . S
C751 C752 1.399 . S
C751 C756 1.399 . S
C752 C751 1.399 . S
C752 C753 1.376 . S
C753 H740 0.930 . S
C753 C752 1.376 . S
C753 C754 1.388 . S
C754 H741 0.930 . S
C754 C753 1.388 . S
C754 C755 1.390 . S
C755 C754 1.390 . S
C755 C756 1.394 . S
C755 C761 1.465 . S
C756 C751 1.399 . S
C756 C755 1.394 . S
C756 C757 1.516 . S
C757 C756 1.516 . S
C757 C758 1.502 . S
C757 C759 1.561 . S
C757 C760 1.526 . S
C758 H742 0.959 . S
C758 H743 0.959 . S
C758 H744 0.961 . S
C758 C757 1.502 . S
C759 H745 0.960 . S
C759 H746 0.961 . S
C759 H747 0.959 . S
C759 C757 1.561 . S
C760 C757 1.526 . S
C760 C761 1.396 . S
C760 C765 1.390 . S
C761 C755 1.465 . S
C761 C760 1.396 . S
C761 C762 1.399 . S
C762 H748 0.929 . S
C762 C761 1.399 . S
C762 C763 1.385 . S
C763 H749 0.931 . S
C763 C762 1.385 . S
C763 C764 1.389 . S
C764 C763 1.389 . S
C764 C765 1.387 . S
C765 H750 0.930 . S
C765 C760 1.390 . S
C765 C764 1.387 . S
H766 C778 0.930 . S
H767 C780 0.930 . S
H768 C781 0.930 . S
H769 C785 0.959 . S
H770 C785 0.959 . S
H771 C785 0.961 . S
H772 C786 0.960 . S
H773 C786 0.961 . S
H774 C786 0.959 . S
H775 C789 0.929 . S
H776 C790 0.931 . S
H777 C792 0.930 . S
C778 H766 0.930 . S
C778 C779 1.399 . S
C778 C783 1.399 . S
C779 C778 1.399 . S
C779 C780 1.376 . S
C780 H767 0.930 . S
C780 C779 1.376 . S
C780 C781 1.388 . S
C781 H768 0.930 . S
C781 C780 1.388 . S
C781 C782 1.390 . S
C782 C781 1.390 . S
C782 C783 1.394 . S
C782 C788 1.465 . S
C783 C778 1.399 . S
C783 C782 1.394 . S
C783 C784 1.516 . S
C784 C783 1.516 . S
C784 C785 1.502 . S
C784 C786 1.561 . S
C784 C787 1.526 . S
C785 H769 0.959 . S
C785 H770 0.959 . S
C785 H771 0.961 . S
C785 C784 1.502 . S
C786 H772 0.960 . S
C786 H773 0.961 . S
C786 H774 0.959 . S
C786 C784 1.561 . S
C787 C784 1.526 . S
C787 C788 1.396 . S
C787 C792 1.390 . S
C788 C782 1.465 . S
C788 C787 1.396 . S
C788 C789 1.399 . S
C789 H775 0.929 . S
C789 C788 1.399 . S
C789 C790 1.385 . S
C790 H776 0.931 . S
C790 C789 1.385 . S
C790 C791 1.389 . S
C791 C790 1.389 . S
C791 C792 1.387 . S
C792 H777 0.930 . S
C792 C787 1.390 . S
C792 C791 1.387 . S
H793 C805 0.930 . S
H794 C807 0.930 . S
H795 C808 0.930 . S
H796 C812 0.959 . S
H797 C812 0.959 . S
H798 C812 0.961 . S
H799 C813 0.960 . S
H800 C813 0.961 . S
H801 C813 0.959 . S
H802 C816 0.929 . S
H803 C817 0.931 . S
H804 C819 0.930 . S
C805 H793 0.930 . S
C805 C806 1.399 . S
C805 C810 1.399 . S
C806 C805 1.399 . S
C806 C807 1.376 . S
C807 H794 0.930 . S
C807 C806 1.376 . S
C807 C808 1.388 . S
C808 H795 0.930 . S
C808 C807 1.388 . S
C808 C809 1.390 . S
C809 C808 1.390 . S
C809 C810 1.394 . S
C809 C815 1.465 . S
C810 C805 1.399 . S
C810 C809 1.394 . S
C810 C811 1.516 . S
C811 C810 1.516 . S
C811 C812 1.502 . S
C811 C813 1.561 . S
C811 C814 1.526 . S
C812 H796 0.959 . S
C812 H797 0.959 . S
C812 H798 0.961 . S
C812 C811 1.502 . S
C813 H799 0.960 . S
C813 H800 0.961 . S
C813 H801 0.959 . S
C813 C811 1.561 . S
C814 C811 1.526 . S
C814 C815 1.396 . S
C814 C819 1.390 . S
C815 C809 1.465 . S
C815 C814 1.396 . S
C815 C816 1.399 . S
C816 H802 0.929 . S
C816 C815 1.399 . S
C816 C817 1.385 . S
C817 H803 0.931 . S
C817 C816 1.385 . S
C817 C818 1.389 . S
C818 C817 1.389 . S
C818 C819 1.387 . S
C819 H804 0.930 . S
C819 C814 1.390 . S
C819 C818 1.387 . S
H820 C832 0.930 . S
H821 C834 0.930 . S
H822 C835 0.930 . S
H823 C839 0.959 . S
H824 C839 0.959 . S
H825 C839 0.961 . S
H826 C840 0.960 . S
H827 C840 0.961 . S
H828 C840 0.959 . S
H829 C843 0.929 . S
H830 C844 0.931 . S
H831 C846 0.930 . S
C832 H820 0.930 . S
C832 C833 1.399 . S
C832 C837 1.399 . S
C833 C832 1.399 . S
C833 C834 1.376 . S
C834 H821 0.930 . S
C834 C833 1.376 . S
C834 C835 1.388 . S
C835 H822 0.930 . S
C835 C834 1.388 . S
C835 C836 1.390 . S
C836 C835 1.390 . S
C836 C837 1.394 . S
C836 C842 1.465 . S
C837 C832 1.399 . S
C837 C836 1.394 . S
C837 C838 1.516 . S
C838 C837 1.516 . S
C838 C839 1.502 . S
C838 C840 1.561 . S
C838 C841 1.526 . S
C839 H823 0.959 . S
C839 H824 0.959 . S
C839 H825 0.961 . S
C839 C838 1.502 . S
C840 H826 0.960 . S
C840 H827 0.961 . S
C840 H828 0.959 . S
C840 C838 1.561 . S
C841 C838 1.526 . S
C841 C842 1.396 . S
C841 C846 1.390 . S
C842 C836 1.465 . S
C842 C841 1.396 . S
C842 C843 1.399 . S
C843 H829 0.929 . S
C843 C842 1.399 . S
C843 C844 1.385 . S
C844 H830 0.931 . S
C844 C843 1.385 . S
C844 C845 1.389 . S
C845 C844 1.389 . S
C845 C846 1.387 . S
C846 H831 0.930 . S
C846 C841 1.390 . S
C846 C845 1.387 . S
H847 C859 0.930 . S
H848 C861 0.930 . S
H849 C862 0.930 . S
H850 C866 0.959 . S
H851 C866 0.959 . S
H852 C866 0.961 . S
H853 C867 0.960 . S
H854 C867 0.961 . S
H855 C867 0.959 . S
H856 C870 0.929 . S
H857 C871 0.931 . S
H858 C873 0.930 . S
C859 H847 0.930 . S
C859 C860 1.399 . S
C859 C864 1.399 . S
C860 C859 1.399 . S
C860 C861 1.376 . S
C861 H848 0.930 . S
C861 C860 1.376 . S
C861 C862 1.388 . S
C862 H849 0.930 . S
C862 C861 1.388 . S
C862 C863 1.390 . S
C863 C862 1.390 . S
C863 C864 1.394 . S
C863 C869 1.465 . S
C864 C859 1.399 . S
C864 C863 1.394 . S
C864 C865 1.516 . S
C865 C864 1.516 . S
C865 C866 1.502 . S
C865 C867 1.561 . S
C865 C868 1.526 . S
C866 H850 0.959 . S
C866 H851 0.959 . S
C866 H852 0.961 . S
C866 C865 1.502 . S
C867 H853 0.960 . S
C867 H854 0.961 . S
C867 H855 0.959 . S
C867 C865 1.561 . S
C868 C865 1.526 . S
C868 C869 1.396 . S
C868 C873 1.390 . S
C869 C863 1.465 . S
C869 C868 1.396 . S
C869 C870 1.399 . S
C870 H856 0.929 . S
C870 C869 1.399 . S
C870 C871 1.385 . S
C871 H857 0.931 . S
C871 C870 1.385 . S
C871 C872 1.389 . S
C872 C871 1.389 . S
C872 C873 1.387 . S
C873 H858 0.930 . S
C873 C868 1.390 . S
C873 C872 1.387 . S
H874 C886 0.930 . S
H875 C888 0.930 . S
H876 C889 0.930 . S
H877 C893 0.959 . S
H878 C893 0.959 . S
H879 C893 0.961 . S
H880 C894 0.960 . S
H881 C894 0.961 . S
H882 C894 0.959 . S
H883 C897 0.929 . S
H884 C898 0.931 . S
H885 C900 0.930 . S
C886 H874 0.930 . S
C886 C887 1.399 . S
C886 C891 1.399 . S
C887 C886 1.399 . S
C887 C888 1.376 . S
C888 H875 0.930 . S
C888 C887 1.376 . S
C888 C889 1.388 . S
C889 H876 0.930 . S
C889 C888 1.388 . S
C889 C890 1.390 . S
C890 C889 1.390 . S
C890 C891 1.394 . S
C890 C896 1.465 . S
C891 C886 1.399 . S
C891 C890 1.394 . S
C891 C892 1.516 . S
C892 C891 1.516 . S
C892 C893 1.502 . S
C892 C894 1.561 . S
C892 C895 1.526 . S
C893 H877 0.959 . S
C893 H878 0.959 . S
C893 H879 0.961 . S
C893 C892 1.502 . S
C894 H880 0.960 . S
C894 H881 0.961 . S
C894 H882 0.959 . S
C894 C892 1.561 . S
C895 C892 1.526 . S
C895 C896 1.396 . S
C895 C900 1.390 . S
C896 C890 1.465 . S
C896 C895 1.396 . S
C896 C897 1.399 . S
C897 H883 0.929 . S
C897 C896 1.399 . S
C897 C898 1.385 . S
C898 H884 0.931 . S
C898 C897 1.385 . S
C898 C899 1.389 . S
C899 C898 1.389 . S
C899 C900 1.387 . S
C900 H885 0.930 . S
C900 C895 1.390 . S
C900 C899 1.387 . S
H901 C913 0.930 . S
H902 C915 0.930 . S
H903 C916 0.930 . S
H904 C920 0.959 . S
H905 C920 0.959 . S
H906 C920 0.961 . S
H907 C921 0.960 . S
H908 C921 0.961 . S
H909 C921 0.959 . S
H910 C924 0.929 . S
H911 C925 0.931 . S
H912 C927 0.930 . S
C913 H901 0.930 . S
C913 C914 1.399 . S
C913 C918 1.399 . S
C914 C913 1.399 . S
C914 C915 1.376 . S
C915 H902 0.930 . S
C915 C914 1.376 . S
C915 C916 1.388 . S
C916 H903 0.930 . S
C916 C915 1.388 . S
C916 C917 1.390 . S
C917 C916 1.390 . S
C917 C918 1.394 . S
C917 C923 1.465 . S
C918 C913 1.399 . S
C918 C917 1.394 . S
C918 C919 1.516 . S
C919 C918 1.516 . S
C919 C920 1.502 . S
C919 C921 1.561 . S
C919 C922 1.526 . S
C920 H904 0.959 . S
C920 H905 0.959 . S
C920 H906 0.961 . S
C920 C919 1.502 . S
C921 H907 0.960 . S
C921 H908 0.961 . S
C921 H909 0.959 . S
C921 C919 1.561 . S
C922 C919 1.526 . S
C922 C923 1.396 . S
C922 C927 1.390 . S
C923 C917 1.465 . S
C923 C922 1.396 . S
C923 C924 1.399 . S
C924 H910 0.929 . S
C924 C923 1.399 . S
C924 C925 1.385 . S
C925 H911 0.931 . S
C925 C924 1.385 . S
C925 C926 1.389 . S
C926 C925 1.389 . S
C926 C927 1.387 . S
C927 H912 0.930 . S
C927 C922 1.390 . S
C927 C926 1.387 . S
H928 C940 0.930 . S
H929 C942 0.930 . S
H930 C943 0.930 . S
H931 C947 0.959 . S
H932 C947 0.959 . S
H933 C947 0.961 . S
H934 C948 0.960 . S
H935 C948 0.961 . S
H936 C948 0.959 . S
H937 C951 0.929 . S
H938 C952 0.931 . S
H939 C954 0.930 . S
C940 H928 0.930 . S
C940 C941 1.399 . S
C940 C945 1.399 . S
C941 C940 1.399 . S
C941 C942 1.376 . S
C942 H929 0.930 . S
C942 C941 1.376 . S
C942 C943 1.388 . S
C943 H930 0.930 . S
C943 C942 1.388 . S
C943 C944 1.390 . S
C944 C943 1.390 . S
C944 C945 1.394 . S
C944 C950 1.465 . S
C945 C940 1.399 . S
C945 C944 1.394 . S
C945 C946 1.516 . S
C946 C945 1.516 . S
C946 C947 1.502 . S
C946 C948 1.561 . S
C946 C949 1.526 . S
C947 H931 0.959 . S
C947 H932 0.959 . S
C947 H933 0.961 . S
C947 C946 1.502 . S
C948 H934 0.960 . S
C948 H935 0.961 . S
C948 H936 0.959 . S
C948 C946 1.561 . S
C949 C946 1.526 . S
C949 C950 1.396 . S
C949 C954 1.390 . S
C950 C944 1.465 . S
C950 C949 1.396 . S
C950 C951 1.399 . S
C951 H937 0.929 . S
C951 C950 1.399 . S
C951 C952 1.385 . S
C952 H938 0.931 . S
C952 C951 1.385 . S
C952 C953 1.389 . S
C953 C952 1.389 . S
C953 C954 1.387 . S
C954 H939 0.930 . S
C954 C949 1.390 . S
C954 C953 1.387 . S
H955 C967 0.930 . S
H956 C969 0.930 . S
H957 C970 0.930 . S
H958 C974 0.959 . S
H959 C974 0.959 . S
H960 C974 0.961 . S
H961 C975 0.960 . S
H962 C975 0.961 . S
H963 C975 0.959 . S
H964 C978 0.929 . S
H965 C979 0.931 . S
H966 C981 0.930 . S
C967 H955 0.930 . S
C967 C968 1.399 . S
C967 C972 1.399 . S
C968 C967 1.399 . S
C968 C969 1.376 . S
C969 H956 0.930 . S
C969 C968 1.376 . S
C969 C970 1.388 . S
C970 H957 0.930 . S
C970 C969 1.388 . S
C970 C971 1.390 . S
C971 C970 1.390 . S
C971 C972 1.394 . S
C971 C977 1.465 . S
C972 C967 1.399 . S
C972 C971 1.394 . S
C972 C973 1.516 . S
C973 C972 1.516 . S
C973 C974 1.502 . S
C973 C975 1.561 . S
C973 C976 1.526 . S
C974 H958 0.959 . S
C974 H959 0.959 . S
C974 H960 0.961 . S
C974 C973 1.502 . S
C975 H961 0.960 . S
C975 H962 0.961 . S
C975 H963 0.959 . S
C975 C973 1.561 . S
C976 C973 1.526 . S
C976 C977 1.396 . S
C976 C981 1.390 . S
C977 C971 1.465 . S
C977 C976 1.396 . S
C977 C978 1.399 . S
C978 H964 0.929 . S
C978 C977 1.399 . S
C978 C979 1.385 . S
C979 H965 0.931 . S
C979 C978 1.385 . S
C979 C980 1.389 . S
C980 C979 1.389 . S
C980 C981 1.387 . S
C981 H966 0.930 . S
C981 C976 1.390 . S
C981 C980 1.387 . S
H982 C994 0.930 . S
H983 C996 0.930 . S
H984 C997 0.930 . S
H985 C1001 0.959 . S
H986 C1001 0.959 . S
H987 C1001 0.961 . S
H988 C1002 0.960 . S
H989 C1002 0.961 . S
H990 C1002 0.959 . S
H991 C1005 0.929 . S
H992 C1006 0.931 . S
H993 C1008 0.930 . S
C994 H982 0.930 . S
C994 C995 1.399 . S
C994 C999 1.399 . S
C995 C994 1.399 . S
C995 C996 1.376 . S
C996 H983 0.930 . S
C996 C995 1.376 . S
C996 C997 1.388 . S
C997 H984 0.930 . S
C997 C996 1.388 . S
C997 C998 1.390 . S
C998 C997 1.390 . S
C998 C999 1.394 . S
C998 C1004 1.465 . S
C999 C994 1.399 . S
C999 C998 1.394 . S
C999 C1000 1.516 . S
C1000 C999 1.516 . S
C1000 C1001 1.502 . S
C1000 C1002 1.561 . S
C1000 C1003 1.526 . S
C1001 H985 0.959 . S
C1001 H986 0.959 . S
C1001 H987 0.961 . S
C1001 C1000 1.502 . S
C1002 H988 0.960 . S
C1002 H989 0.961 . S
C1002 H990 0.959 . S
C1002 C1000 1.561 . S
C1003 C1000 1.526 . S
C1003 C1004 1.396 . S
C1003 C1008 1.390 . S
C1004 C998 1.465 . S
C1004 C1003 1.396 . S
C1004 C1005 1.399 . S
C1005 H991 0.929 . S
C1005 C1004 1.399 . S
C1005 C1006 1.385 . S
C1006 H992 0.931 . S
C1006 C1005 1.385 . S
C1006 C1007 1.389 . S
C1007 C1006 1.389 . S
C1007 C1008 1.387 . S
C1008 H993 0.930 . S
C1008 C1003 1.390 . S
C1008 C1007 1.387 . S
H1009 C1021 0.930 . S
H1010 C1023 0.930 . S
H1011 C1024 0.930 . S
H1012 C1028 0.959 . S
H1013 C1028 0.959 . S
H1014 C1028 0.961 . S
H1015 C1029 0.960 . S
H1016 C1029 0.961 . S
H1017 C1029 0.959 . S
H1018 C1032 0.929 . S
H1019 C1033 0.931 . S
H1020 C1035 0.930 . S
C1021 H1009 0.930 . S
C1021 C1022 1.399 . S
C1021 C1026 1.399 . S
C1022 C1021 1.399 . S
C1022 C1023 1.376 . S
C1023 H1010 0.930 . S
C1023 C1022 1.376 . S
C1023 C1024 1.388 . S
C1024 H1011 0.930 . S
C1024 C1023 1.388 . S
C1024 C1025 1.390 . S
C1025 C1024 1.390 . S
C1025 C1026 1.394 . S
C1025 C1031 1.465 . S
C1026 C1021 1.399 . S
C1026 C1025 1.394 . S
C1026 C1027 1.516 . S
C1027 C1026 1.516 . S
C1027 C1028 1.502 . S
C1027 C1029 1.561 . S
C1027 C1030 1.526 . S
C1028 H1012 0.959 . S
C1028 H1013 0.959 . S
C1028 H1014 0.961 . S
C1028 C1027 1.502 . S
C1029 H1015 0.960 . S
C1029 H1016 0.961 . S
C1029 H1017 0.959 . S
C1029 C1027 1.561 . S
C1030 C1027 1.526 . S
C1030 C1031 1.396 . S
C1030 C1035 1.390 . S
C1031 C1025 1.465 . S
C1031 C1030 1.396 . S
C1031 C1032 1.399 . S
C1032 H1018 0.929 . S
C1032 C1031 1.399 . S
C1032 C1033 1.385 . S
C1033 H1019 0.931 . S
C1033 C1032 1.385 . S
C1033 C1034 1.389 . S
C1034 C1033 1.389 . S
C1034 C1035 1.387 . S
C1035 H1020 0.930 . S
C1035 C1030 1.390 . S
C1035 C1034 1.387 . S
H1036 C1048 0.930 . S
H1037 C1050 0.930 . S
H1038 C1051 0.930 . S
H1039 C1055 0.959 . S
H1040 C1055 0.959 . S
H1041 C1055 0.961 . S
H1042 C1056 0.960 . S
H1043 C1056 0.961 . S
H1044 C1056 0.959 . S
H1045 C1059 0.929 . S
H1046 C1060 0.931 . S
H1047 C1062 0.930 . S
C1048 H1036 0.930 . S
C1048 C1049 1.399 . S
C1048 C1053 1.399 . S
C1049 C1048 1.399 . S
C1049 C1050 1.376 . S
C1050 H1037 0.930 . S
C1050 C1049 1.376 . S
C1050 C1051 1.388 . S
C1051 H1038 0.930 . S
C1051 C1050 1.388 . S
C1051 C1052 1.390 . S
C1052 C1051 1.390 . S
C1052 C1053 1.394 . S
C1052 C1058 1.465 . S
C1053 C1048 1.399 . S
C1053 C1052 1.394 . S
C1053 C1054 1.516 . S
C1054 C1053 1.516 . S
C1054 C1055 1.502 . S
C1054 C1056 1.561 . S
C1054 C1057 1.526 . S
C1055 H1039 0.959 . S
C1055 H1040 0.959 . S
C1055 H1041 0.961 . S
C1055 C1054 1.502 . S
C1056 H1042 0.960 . S
C1056 H1043 0.961 . S
C1056 H1044 0.959 . S
C1056 C1054 1.561 . S
C1057 C1054 1.526 . S
C1057 C1058 1.396 . S
C1057 C1062 1.390 . S
C1058 C1052 1.465 . S
C1058 C1057 1.396 . S
C1058 C1059 1.399 . S
C1059 H1045 0.929 . S
C1059 C1058 1.399 . S
C1059 C1060 1.385 . S
C1060 H1046 0.931 . S
C1060 C1059 1.385 . S
C1060 C1061 1.389 . S
C1061 C1060 1.389 . S
C1061 C1062 1.387 . S
C1062 H1047 0.930 . S
C1062 C1057 1.390 . S
C1062 C1061 1.387 . S
H1063 C1075 0.930 . S
H1064 C1077 0.930 . S
H1065 C1078 0.930 . S
H1066 C1082 0.959 . S
H1067 C1082 0.959 . S
H1068 C1082 0.961 . S
H1069 C1083 0.960 . S
H1070 C1083 0.961 . S
H1071 C1083 0.959 . S
H1072 C1086 0.929 . S
H1073 C1087 0.931 . S
H1074 C1089 0.930 . S
C1075 H1063 0.930 . S
C1075 C1076 1.399 . S
C1075 C1080 1.399 . S
C1076 C1075 1.399 . S
C1076 C1077 1.376 . S
C1077 H1064 0.930 . S
C1077 C1076 1.376 . S
C1077 C1078 1.388 . S
C1078 H1065 0.930 . S
C1078 C1077 1.388 . S
C1078 C1079 1.390 . S
C1079 C1078 1.390 . S
C1079 C1080 1.394 . S
C1079 C1085 1.465 . S
C1080 C1075 1.399 . S
C1080 C1079 1.394 . S
C1080 C1081 1.516 . S
C1081 C1080 1.516 . S
C1081 C1082 1.502 . S
C1081 C1083 1.561 . S
C1081 C1084 1.526 . S
C1082 H1066 0.959 . S
C1082 H1067 0.959 . S
C1082 H1068 0.961 . S
C1082 C1081 1.502 . S
C1083 H1069 0.960 . S
C1083 H1070 0.961 . S
C1083 H1071 0.959 . S
C1083 C1081 1.561 . S
C1084 C1081 1.526 . S
C1084 C1085 1.396 . S
C1084 C1089 1.390 . S
C1085 C1079 1.465 . S
C1085 C1084 1.396 . S
C1085 C1086 1.399 . S
C1086 H1072 0.929 . S
C1086 C1085 1.399 . S
C1086 C1087 1.385 . S
C1087 H1073 0.931 . S
C1087 C1086 1.385 . S
C1087 C1088 1.389 . S
C1088 C1087 1.389 . S
C1088 C1089 1.387 . S
C1089 H1074 0.930 . S
C1089 C1084 1.390 . S
C1089 C1088 1.387 . S
H1090 C1102 0.930 . S
H1091 C1104 0.930 . S
H1092 C1105 0.930 . S
H1093 C1109 0.959 . S
H1094 C1109 0.959 . S
H1095 C1109 0.961 . S
H1096 C1110 0.960 . S
H1097 C1110 0.961 . S
H1098 C1110 0.959 . S
H1099 C1113 0.929 . S
H1100 C1114 0.931 . S
H1101 C1116 0.930 . S
C1102 H1090 0.930 . S
C1102 C1103 1.399 . S
C1102 C1107 1.399 . S
C1103 C1102 1.399 . S
C1103 C1104 1.376 . S
C1104 H1091 0.930 . S
C1104 C1103 1.376 . S
C1104 C1105 1.388 . S
C1105 H1092 0.930 . S
C1105 C1104 1.388 . S
C1105 C1106 1.390 . S
C1106 C1105 1.390 . S
C1106 C1107 1.394 . S
C1106 C1112 1.465 . S
C1107 C1102 1.399 . S
C1107 C1106 1.394 . S
C1107 C1108 1.516 . S
C1108 C1107 1.516 . S
C1108 C1109 1.502 . S
C1108 C1110 1.561 . S
C1108 C1111 1.526 . S
C1109 H1093 0.959 . S
C1109 H1094 0.959 . S
C1109 H1095 0.961 . S
C1109 C1108 1.502 . S
C1110 H1096 0.960 . S
C1110 H1097 0.961 . S
C1110 H1098 0.959 . S
C1110 C1108 1.561 . S
C1111 C1108 1.526 . S
C1111 C1112 1.396 . S
C1111 C1116 1.390 . S
C1112 C1106 1.465 . S
C1112 C1111 1.396 . S
C1112 C1113 1.399 . S
C1113 H1099 0.929 . S
C1113 C1112 1.399 . S
C1113 C1114 1.385 . S
C1114 H1100 0.931 . S
C1114 C1113 1.385 . S
C1114 C1115 1.389 . S
C1115 C1114 1.389 . S
C1115 C1116 1.387 . S
C1116 H1101 0.930 . S
C1116 C1111 1.390 . S
C1116 C1115 1.387 . S
H1117 C1129 0.930 . S
H1118 C1131 0.930 . S
H1119 C1132 0.930 . S
H1120 C1136 0.959 . S
H1121 C1136 0.959 . S
H1122 C1136 0.961 . S
H1123 C1137 0.960 . S
H1124 C1137 0.961 . S
H1125 C1137 0.959 . S
H1126 C1140 0.929 . S
H1127 C1141 0.931 . S
H1128 C1143 0.930 . S
C1129 H1117 0.930 . S
C1129 C1130 1.399 . S
C1129 C1134 1.399 . S
C1130 C1129 1.399 . S
C1130 C1131 1.376 . S
C1131 H1118 0.930 . S
C1131 C1130 1.376 . S
C1131 C1132 1.388 . S
C1132 H1119 0.930 . S
C1132 C1131 1.388 . S
C1132 C1133 1.390 . S
C1133 C1132 1.390 . S
C1133 C1134 1.394 . S
C1133 C1139 1.465 . S
C1134 C1129 1.399 . S
C1134 C1133 1.394 . S
C1134 C1135 1.516 . S
C1135 C1134 1.516 . S
C1135 C1136 1.502 . S
C1135 C1137 1.561 . S
C1135 C1138 1.526 . S
C1136 H1120 0.959 . S
C1136 H1121 0.959 . S
C1136 H1122 0.961 . S
C1136 C1135 1.502 . S
C1137 H1123 0.960 . S
C1137 H1124 0.961 . S
C1137 H1125 0.959 . S
C1137 C1135 1.561 . S
C1138 C1135 1.526 . S
C1138 C1139 1.396 . S
C1138 C1143 1.390 . S
C1139 C1133 1.465 . S
C1139 C1138 1.396 . S
C1139 C1140 1.399 . S
C1140 H1126 0.929 . S
C1140 C1139 1.399 . S
C1140 C1141 1.385 . S
C1141 H1127 0.931 . S
C1141 C1140 1.385 . S
C1141 C1142 1.389 . S
C1142 C1141 1.389 . S
C1142 C1143 1.387 . S
C1143 H1128 0.930 . S
C1143 C1138 1.390 . S
C1143 C1142 1.387 . S
H1144 C1156 0.930 . S
H1145 C1158 0.930 . S
H1146 C1159 0.930 . S
H1147 C1163 0.959 . S
H1148 C1163 0.959 . S
H1149 C1163 0.961 . S
H1150 C1164 0.960 . S
H1151 C1164 0.961 . S
H1152 C1164 0.959 . S
H1153 C1167 0.929 . S
H1154 C1168 0.931 . S
H1155 C1170 0.930 . S
C1156 H1144 0.930 . S
C1156 C1157 1.399 . S
C1156 C1161 1.399 . S
C1157 C1156 1.399 . S
C1157 C1158 1.376 . S
C1158 H1145 0.930 . S
C1158 C1157 1.376 . S
C1158 C1159 1.388 . S
C1159 H1146 0.930 . S
C1159 C1158 1.388 . S
C1159 C1160 1.390 . S
C1160 C1159 1.390 . S
C1160 C1161 1.394 . S
C1160 C1166 1.465 . S
C1161 C1156 1.399 . S
C1161 C1160 1.394 . S
C1161 C1162 1.516 . S
C1162 C1161 1.516 . S
C1162 C1163 1.502 . S
C1162 C1164 1.561 . S
C1162 C1165 1.526 . S
C1163 H1147 0.959 . S
C1163 H1148 0.959 . S
C1163 H1149 0.961 . S
C1163 C1162 1.502 . S
C1164 H1150 0.960 . S
C1164 H1151 0.961 . S
C1164 H1152 0.959 . S
C1164 C1162 1.561 . S
C1165 C1162 1.526 . S
C1165 C1166 1.396 . S
C1165 C1170 1.390 . S
C1166 C1160 1.465 . S
C1166 C1165 1.396 . S
C1166 C1167 1.399 . S
C1167 H1153 0.929 . S
C1167 C1166 1.399 . S
C1167 C1168 1.385 . S
C1168 H1154 0.931 . S
C1168 C1167 1.385 . S
C1168 C1169 1.389 . S
C1169 C1168 1.389 . S
C1169 C1170 1.387 . S
C1170 H1155 0.930 . S
C1170 C1165 1.390 . S
C1170 C1169 1.387 . S
H1171 C1183 0.930 . S
H1172 C1185 0.930 . S
H1173 C1186 0.930 . S
H1174 C1190 0.959 . S
H1175 C1190 0.959 . S
H1176 C1190 0.961 . S
H1177 C1191 0.960 . S
H1178 C1191 0.961 . S
H1179 C1191 0.959 . S
H1180 C1194 0.929 . S
H1181 C1195 0.931 . S
H1182 C1197 0.930 . S
C1183 H1171 0.930 . S
C1183 C1184 1.399 . S
C1183 C1188 1.399 . S
C1184 C1183 1.399 . S
C1184 C1185 1.376 . S
C1185 H1172 0.930 . S
C1185 C1184 1.376 . S
C1185 C1186 1.388 . S
C1186 H1173 0.930 . S
C1186 C1185 1.388 . S
C1186 C1187 1.390 . S
C1187 C1186 1.390 . S
C1187 C1188 1.394 . S
C1187 C1193 1.465 . S
C1188 C1183 1.399 . S
C1188 C1187 1.394 . S
C1188 C1189 1.516 . S
C1189 C1188 1.516 . S
C1189 C1190 1.502 . S
C1189 C1191 1.561 . S
C1189 C1192 1.526 . S
C1190 H1174 0.959 . S
C1190 H1175 0.959 . S
C1190 H1176 0.961 . S
C1190 C1189 1.502 . S
C1191 H1177 0.960 . S
C1191 H1178 0.961 . S
C1191 H1179 0.959 . S
C1191 C1189 1.561 . S
C1192 C1189 1.526 . S
C1192 C1193 1.396 . S
C1192 C1197 1.390 . S
C1193 C1187 1.465 . S
C1193 C1192 1.396 . S
C1193 C1194 1.399 . S
C1194 H1180 0.929 . S
C1194 C1193 1.399 . S
C1194 C1195 1.385 . S
C1195 H1181 0.931 . S
C1195 C1194 1.385 . S
C1195 C1196 1.389 . S
C1196 C1195 1.389 . S
C1196 C1197 1.387 . S
C1197 H1182 0.930 . S
C1197 C1192 1.390 . S
C1197 C1196 1.387 . S
H1198 C1210 0.930 . S
H1199 C1212 0.930 . S
H1200 C1213 0.930 . S
H1201 C1217 0.959 . S
H1202 C1217 0.959 . S
H1203 C1217 0.961 . S
H1204 C1218 0.960 . S
H1205 C1218 0.961 . S
H1206 C1218 0.959 . S
H1207 C1221 0.929 . S
H1208 C1222 0.931 . S
H1209 C1224 0.930 . S
C1210 H1198 0.930 . S
C1210 C1211 1.399 . S
C1210 C1215 1.399 . S
C1211 C1210 1.399 . S
C1211 C1212 1.376 . S
C1212 H1199 0.930 . S
C1212 C1211 1.376 . S
C1212 C1213 1.388 . S
C1213 H1200 0.930 . S
C1213 C1212 1.388 . S
C1213 C1214 1.390 . S
C1214 C1213 1.390 . S
C1214 C1215 1.394 . S
C1214 C1220 1.465 . S
C1215 C1210 1.399 . S
C1215 C1214 1.394 . S
C1215 C1216 1.516 . S
C1216 C1215 1.516 . S
C1216 C1217 1.502 . S
C1216 C1218 1.561 . S
C1216 C1219 1.526 . S
C1217 H1201 0.959 . S
C1217 H1202 0.959 . S
C1217 H1203 0.961 . S
C1217 C1216 1.502 . S
C1218 H1204 0.960 . S
C1218 H1205 0.961 . S
C1218 H1206 0.959 . S
C1218 C1216 1.561 . S
C1219 C1216 1.526 . S
C1219 C1220 1.396 . S
C1219 C1224 1.390 . S
C1220 C1214 1.465 . S
C1220 C1219 1.396 . S
C1220 C1221 1.399 . S
C1221 H1207 0.929 . S
C1221 C1220 1.399 . S
C1221 C1222 1.385 . S
C1222 H1208 0.931 . S
C1222 C1221 1.385 . S
C1222 C1223 1.389 . S
C1223 C1222 1.389 . S
C1223 C1224 1.387 . S
C1224 H1209 0.930 . S
C1224 C1219 1.390 . S
C1224 C1223 1.387 . S
H1225 C1237 0.930 . S
H1226 C1239 0.930 . S
H1227 C1240 0.930 . S
H1228 C1244 0.959 . S
H1229 C1244 0.959 . S
H1230 C1244 0.961 . S
H1231 C1245 0.960 . S
H1232 C1245 0.961 . S
H1233 C1245 0.959 . S
H1234 C1248 0.929 . S
H1235 C1249 0.931 . S
H1236 C1251 0.930 . S
C1237 H1225 0.930 . S
C1237 C1238 1.399 . S
C1237 C1242 1.399 . S
C1238 C1237 1.399 . S
C1238 C1239 1.376 . S
C1239 H1226 0.930 . S
C1239 C1238 1.376 . S
C1239 C1240 1.388 . S
C1240 H1227 0.930 . S
C1240 C1239 1.388 . S
C1240 C1241 1.390 . S
C1241 C1240 1.390 . S
C1241 C1242 1.394 . S
C1241 C1247 1.465 . S
C1242 C1237 1.399 . S
C1242 C1241 1.394 . S
C1242 C1243 1.516 . S
C1243 C1242 1.516 . S
C1243 C1244 1.502 . S
C1243 C1245 1.561 . S
C1243 C1246 1.526 . S
C1244 H1228 0.959 . S
C1244 H1229 0.959 . S
C1244 H1230 0.961 . S
C1244 C1243 1.502 . S
C1245 H1231 0.960 . S
C1245 H1232 0.961 . S
C1245 H1233 0.959 . S
C1245 C1243 1.561 . S
C1246 C1243 1.526 . S
C1246 C1247 1.396 . S
C1246 C1251 1.390 . S
C1247 C1241 1.465 . S
C1247 C1246 1.396 . S
C1247 C1248 1.399 . S
C1248 H1234 0.929 . S
C1248 C1247 1.399 . S
C1248 C1249 1.385 . S
C1249 H1235 0.931 . S
C1249 C1248 1.385 . S
C1249 C1250 1.389 . S
C1250 C1249 1.389 . S
C1250 C1251 1.387 . S
C1251 H1236 0.930 . S
C1251 C1246 1.390 . S
C1251 C1250 1.387 . S
H1252 C1264 0.930 . S
H1253 C1266 0.930 . S
H1254 C1267 0.930 . S
H1255 C1271 0.959 . S
H1256 C1271 0.959 . S
H1257 C1271 0.961 . S
H1258 C1272 0.960 . S
H1259 C1272 0.961 . S
H1260 C1272 0.959 . S
H1261 C1275 0.929 . S
H1262 C1276 0.931 . S
H1263 C1278 0.930 . S
C1264 H1252 0.930 . S
C1264 C1265 1.399 . S
C1264 C1269 1.399 . S
C1265 C1264 1.399 . S
C1265 C1266 1.376 . S
C1266 H1253 0.930 . S
C1266 C1265 1.376 . S
C1266 C1267 1.388 . S
C1267 H1254 0.930 . S
C1267 C1266 1.388 . S
C1267 C1268 1.390 . S
C1268 C1267 1.390 . S
C1268 C1269 1.394 . S
C1268 C1274 1.465 . S
C1269 C1264 1.399 . S
C1269 C1268 1.394 . S
C1269 C1270 1.516 . S
C1270 C1269 1.516 . S
C1270 C1271 1.502 . S
C1270 C1272 1.561 . S
C1270 C1273 1.526 . S
C1271 H1255 0.959 . S
C1271 H1256 0.959 . S
C1271 H1257 0.961 . S
C1271 C1270 1.502 . S
C1272 H1258 0.960 . S
C1272 H1259 0.961 . S
C1272 H1260 0.959 . S
C1272 C1270 1.561 . S
C1273 C1270 1.526 . S
C1273 C1274 1.396 . S
C1273 C1278 1.390 . S
C1274 C1268 1.465 . S
C1274 C1273 1.396 . S
C1274 C1275 1.399 . S
C1275 H1261 0.929 . S
C1275 C1274 1.399 . S
C1275 C1276 1.385 . S
C1276 H1262 0.931 . S
C1276 C1275 1.385 . S
C1276 C1277 1.389 . S
C1277 C1276 1.389 . S
C1277 C1278 1.387 . S
C1278 H1263 0.930 . S
C1278 C1273 1.390 . S
C1278 C1277 1.387 . S
H1279 C1291 0.930 . S
H1280 C1293 0.930 . S
H1281 C1294 0.930 . S
H1282 C1298 0.959 . S
H1283 C1298 0.959 . S
H1284 C1298 0.961 . S
H1285 C1299 0.960 . S
H1286 C1299 0.961 . S
H1287 C1299 0.959 . S
H1288 C1302 0.929 . S
H1289 C1303 0.931 . S
H1290 C1305 0.930 . S
C1291 H1279 0.930 . S
C1291 C1292 1.399 . S
C1291 C1296 1.399 . S
C1292 C1291 1.399 . S
C1292 C1293 1.376 . S
C1293 H1280 0.930 . S
C1293 C1292 1.376 . S
C1293 C1294 1.388 . S
C1294 H1281 0.930 . S
C1294 C1293 1.388 . S
C1294 C1295 1.390 . S
C1295 C1294 1.390 . S
C1295 C1296 1.394 . S
C1295 C1301 1.465 . S
C1296 C1291 1.399 . S
C1296 C1295 1.394 . S
C1296 C1297 1.516 . S
C1297 C1296 1.516 . S
C1297 C1298 1.502 . S
C1297 C1299 1.561 . S
C1297 C1300 1.526 . S
C1298 H1282 0.959 . S
C1298 H1283 0.959 . S
C1298 H1284 0.961 . S
C1298 C1297 1.502 . S
C1299 H1285 0.960 . S
C1299 H1286 0.961 . S
C1299 H1287 0.959 . S
C1299 C1297 1.561 . S
C1300 C1297 1.526 . S
C1300 C1301 1.396 . S
C1300 C1305 1.390 . S
C1301 C1295 1.465 . S
C1301 C1300 1.396 . S
C1301 C1302 1.399 . S
C1302 H1288 0.929 . S
C1302 C1301 1.399 . S
C1302 C1303 1.385 . S
C1303 H1289 0.931 . S
C1303 C1302 1.385 . S
C1303 C1304 1.389 . S
C1304 C1303 1.389 . S
C1304 C1305 1.387 . S
C1305 H1290 0.930 . S
C1305 C1300 1.390 . S
C1305 C1304 1.387 . S
H1306 C1318 0.930 . S
H1307 C1320 0.930 . S
H1308 C1321 0.930 . S
H1309 C1325 0.959 . S
H1310 C1325 0.959 . S
H1311 C1325 0.961 . S
H1312 C1326 0.960 . S
H1313 C1326 0.961 . S
H1314 C1326 0.959 . S
H1315 C1329 0.929 . S
H1316 C1330 0.931 . S
H1317 C1332 0.930 . S
C1318 H1306 0.930 . S
C1318 C1319 1.399 . S
C1318 C1323 1.399 . S
C1319 C1318 1.399 . S
C1319 C1320 1.376 . S
C1320 H1307 0.930 . S
C1320 C1319 1.376 . S
C1320 C1321 1.388 . S
C1321 H1308 0.930 . S
C1321 C1320 1.388 . S
C1321 C1322 1.390 . S
C1322 C1321 1.390 . S
C1322 C1323 1.394 . S
C1322 C1328 1.465 . S
C1323 C1318 1.399 . S
C1323 C1322 1.394 . S
C1323 C1324 1.516 . S
C1324 C1323 1.516 . S
C1324 C1325 1.502 . S
C1324 C1326 1.561 . S
C1324 C1327 1.526 . S
C1325 H1309 0.959 . S
C1325 H1310 0.959 . S
C1325 H1311 0.961 . S
C1325 C1324 1.502 . S
C1326 H1312 0.960 . S
C1326 H1313 0.961 . S
C1326 H1314 0.959 . S
C1326 C1324 1.561 . S
C1327 C1324 1.526 . S
C1327 C1328 1.396 . S
C1327 C1332 1.390 . S
C1328 C1322 1.465 . S
C1328 C1327 1.396 . S
C1328 C1329 1.399 . S
C1329 H1315 0.929 . S
C1329 C1328 1.399 . S
C1329 C1330 1.385 . S
C1330 H1316 0.931 . S
C1330 C1329 1.385 . S
C1330 C1331 1.389 . S
C1331 C1330 1.389 . S
C1331 C1332 1.387 . S
C1332 H1317 0.930 . S
C1332 C1327 1.390 . S
C1332 C1331 1.387 . S
H1333 C1345 0.930 . S
H1334 C1347 0.930 . S
H1335 C1348 0.930 . S
H1336 C1352 0.959 . S
H1337 C1352 0.959 . S
H1338 C1352 0.961 . S
H1339 C1353 0.960 . S
H1340 C1353 0.961 . S
H1341 C1353 0.959 . S
H1342 C1356 0.929 . S
H1343 C1357 0.931 . S
H1344 C1359 0.930 . S
C1345 H1333 0.930 . S
C1345 C1346 1.399 . S
C1345 C1350 1.399 . S
C1346 C1345 1.399 . S
C1346 C1347 1.376 . S
C1347 H1334 0.930 . S
C1347 C1346 1.376 . S
C1347 C1348 1.388 . S
C1348 H1335 0.930 . S
C1348 C1347 1.388 . S
C1348 C1349 1.390 . S
C1349 C1348 1.390 . S
C1349 C1350 1.394 . S
C1349 C1355 1.465 . S
C1350 C1345 1.399 . S
C1350 C1349 1.394 . S
C1350 C1351 1.516 . S
C1351 C1350 1.516 . S
C1351 C1352 1.502 . S
C1351 C1353 1.561 . S
C1351 C1354 1.526 . S
C1352 H1336 0.959 . S
C1352 H1337 0.959 . S
C1352 H1338 0.961 . S
C1352 C1351 1.502 . S
C1353 H1339 0.960 . S
C1353 H1340 0.961 . S
C1353 H1341 0.959 . S
C1353 C1351 1.561 . S
C1354 C1351 1.526 . S
C1354 C1355 1.396 . S
C1354 C1359 1.390 . S
C1355 C1349 1.465 . S
C1355 C1354 1.396 . S
C1355 C1356 1.399 . S
C1356 H1342 0.929 . S
C1356 C1355 1.399 . S
C1356 C1357 1.385 . S
C1357 H1343 0.931 . S
C1357 C1356 1.385 . S
C1357 C1358 1.389 . S
C1358 C1357 1.389 . S
C1358 C1359 1.387 . S
C1359 H1344 0.930 . S
C1359 C1354 1.390 . S
C1359 C1358 1.387 . S
C521 C385 1.497 . S
C509 C36 1.495 . S
C548 C411 1.497 . S
C536 C93 1.491 . S
C575 C425 1.500 . S
C563 C132 1.492 . S
C602 C427 1.491 . S
C590 C174 1.488 . S
C617 C213 1.491 . S
C629 C424 1.488 . S
C656 C426 1.490 . S
C644 C285 1.488 . S
C683 C384 1.500 . S
C671 C324 1.491 . S
C710 C410 1.498 . S
C698 C366 1.495 . S
C737 C412 1.495 . S
C725 C357 1.500 . S
C764 C438 1.486 . S
C752 C222 1.502 . S
C791 C396 1.493 . S
C779 C276 1.498 . S
C818 C398 1.486 . S
C806 C333 1.480 . S
C845 C397 1.494 . S
C833 C84 1.498 . S
C872 C399 1.501 . S
C860 C141 1.500 . S
C899 C413 1.489 . S
C887 C165 1.501 . S
C926 C439 1.501 . S
C914 C45 1.502 . S
C953 C441 1.489 . S
C941 C372 1.499 . S
C968 C237 1.482 . S
C980 C467 1.497 . S
C995 C261 1.489 . S
C1007 C480 1.494 . S
C1022 C318 1.489 . S
C1034 C483 1.496 . S
C1049 C69 1.500 . S
C1061 C481 1.489 . S
C1076 C126 1.490 . S
C1088 C482 1.489 . S
C1103 C180 1.501 . S
C1115 C440 1.487 . S
C1142 C466 1.490 . S
C1130 C30 1.485 . S
C1169 C469 1.495 . S
C1157 C21 1.497 . S
C1184 C78 1.502 . S
C1196 C494 1.483 . S
C1211 C117 1.494 . S
C1223 C452 1.498 . S
C1238 C189 1.502 . S
C1250 C454 1.496 . S
C1277 C453 1.500 . S
C1265 C228 1.498 . S
C1304 C455 1.493 . S
C1292 C270 1.492 . S
C1319 C309 1.500 . S
C1331 C468 1.498 . S
C1358 C495 1.489 . S
C1346 C381 1.490 . S
