# Generated by pormake.
# Topology dag, (6,3)-cn, num edge types: 1
# Building blocks:
#     Node 0, Type 0, BuildingBlock: IZENUY_clean_sbu_0, # of connection points: 6
#     Node 1, Type 0, BuildingBlock: IZENUY_clean_sbu_0, # of connection points: 6
#     Node 2, Type 0, BuildingBlock: IZENUY_clean_sbu_0, # of connection points: 6
#     Node 3, Type 0, BuildingBlock: IZENUY_clean_sbu_0, # of connection points: 6
#     Node 4, Type 1, BuildingBlock: BETDIP_clean_linker_0, # of connection points: 3
#     Node 5, Type 1, BuildingBlock: BETDIP_clean_linker_0, # of connection points: 3
#     Node 6, Type 1, BuildingBlock: BETDIP_clean_linker_0, # of connection points: 3
#     Node 7, Type 1, BuildingBlock: BETDIP_clean_linker_0, # of connection points: 3
#     Node 8, Type 1, BuildingBlock: BETDIP_clean_linker_0, # of connection points: 3
#     Node 9, Type 1, BuildingBlock: BETDIP_clean_linker_0, # of connection points: 3
#     Node 10, Type 1, BuildingBlock: BETDIP_clean_linker_0, # of connection points: 3
#     Node 11, Type 1, BuildingBlock: BETDIP_clean_linker_0, # of connection points: 3
#     Edge 12, Type (0, 1), BuildingBlock: CIFDUS_clean_linker_0, # of connection points: 2
#     Edge 13, Type (0, 1), BuildingBlock: CIFDUS_clean_linker_0, # of connection points: 2
#     Edge 14, Type (0, 1), BuildingBlock: CIFDUS_clean_linker_0, # of connection points: 2
#     Edge 15, Type (0, 1), BuildingBlock: CIFDUS_clean_linker_0, # of connection points: 2
#     Edge 16, Type (0, 1), BuildingBlock: CIFDUS_clean_linker_0, # of connection points: 2
#     Edge 17, Type (0, 1), BuildingBlock: CIFDUS_clean_linker_0, # of connection points: 2
#     Edge 18, Type (0, 1), BuildingBlock: CIFDUS_clean_linker_0, # of connection points: 2
#     Edge 19, Type (0, 1), BuildingBlock: CIFDUS_clean_linker_0, # of connection points: 2
#     Edge 20, Type (0, 1), BuildingBlock: CIFDUS_clean_linker_0, # of connection points: 2
#     Edge 21, Type (0, 1), BuildingBlock: CIFDUS_clean_linker_0, # of connection points: 2
#     Edge 22, Type (0, 1), BuildingBlock: CIFDUS_clean_linker_0, # of connection points: 2
#     Edge 23, Type (0, 1), BuildingBlock: CIFDUS_clean_linker_0, # of connection points: 2
#     Edge 24, Type (0, 1), BuildingBlock: CIFDUS_clean_linker_0, # of connection points: 2
#     Edge 25, Type (0, 1), BuildingBlock: CIFDUS_clean_linker_0, # of connection points: 2
#     Edge 26, Type (0, 1), BuildingBlock: CIFDUS_clean_linker_0, # of connection points: 2
#     Edge 27, Type (0, 1), BuildingBlock: CIFDUS_clean_linker_0, # of connection points: 2
#     Edge 28, Type (0, 1), BuildingBlock: CIFDUS_clean_linker_0, # of connection points: 2
#     Edge 29, Type (0, 1), BuildingBlock: CIFDUS_clean_linker_0, # of connection points: 2
#     Edge 30, Type (0, 1), BuildingBlock: CIFDUS_clean_linker_0, # of connection points: 2
#     Edge 31, Type (0, 1), BuildingBlock: CIFDUS_clean_linker_0, # of connection points: 2
#     Edge 32, Type (0, 1), BuildingBlock: CIFDUS_clean_linker_0, # of connection points: 2
#     Edge 33, Type (0, 1), BuildingBlock: CIFDUS_clean_linker_0, # of connection points: 2
#     Edge 34, Type (0, 1), BuildingBlock: CIFDUS_clean_linker_0, # of connection points: 2
#     Edge 35, Type (0, 1), BuildingBlock: CIFDUS_clean_linker_0, # of connection points: 2
# Relax obj value: 0.089
# Max RMSD: 0.104
# Mean RMSD: 0.087
data_MOF--net-dag--node1-IZENUY_clean_sbu_0--node2-BETDIP_clean_linker_0--edge1-CIFDUS_clean_linker_0
_symmetry_space_group_name_H-M    P1
_symmetry_Int_Tables_number       1
_symmetry_cell_setting            triclinic
loop_
_symmetry_equiv_pos_as_xyz
'x, y, z'
_cell_length_a     35.51858
_cell_length_b     34.736161
_cell_length_c     31.555385
_cell_angle_alpha  86.116542
_cell_angle_beta   89.824297
_cell_angle_gamma 90.018103
loop_
_atom_site_label
_atom_site_type_symbol
_atom_site_fract_x
_atom_site_fract_y
_atom_site_fract_z
_atom_type_partial_charge
Fe0 Fe 0.20572 0.86232 0.00197 0.0
Fe1 Fe 0.12493 0.88643 0.01981 0.0
O2 O 0.15729 0.85045 0.00711 0.0
Fe3 Fe 0.1411 0.803 0.99965 0.0
O4 O 0.18365 0.7794 0.02179 0.0
O5 O 0.21812 0.82668 0.04428 0.0
O6 O 0.20489 0.89837 0.04216 0.0
C7 C 0.18207 0.90358 0.07224 0.0
C8 C 0.19345 0.81288 0.93585 0.0
O9 O 0.14827 0.89275 0.06988 0.0
C10 C 0.08564 0.85131 0.95893 0.0
O11 O 0.19639 0.89888 0.95892 0.0
O12 O 0.1511 0.92644 0.99326 0.0
O13 O 0.15986 0.80466 0.94597 0.0
O14 O 0.21518 0.8287 0.96116 0.0
C15 C 0.09818 0.82086 0.06748 0.0
O16 O 0.10009 0.88211 0.97043 0.0
O17 O 0.09552 0.81875 0.9761 0.0
C18 C 0.17474 0.92713 0.96326 0.0
O19 O 0.09243 0.85355 0.04883 0.0
O20 O 0.12134 0.79762 0.05305 0.0
C21 C 0.20919 0.79142 0.04563 0.0
Fe22 Fe 0.69228 0.64301 0.55325 0.0
Fe23 Fe 0.62698 0.70155 0.53877 0.0
O24 O 0.64428 0.65355 0.54238 0.0
Fe25 Fe 0.6129 0.61522 0.53478 0.0
O26 O 0.61954 0.59671 0.58897 0.0
O27 O 0.68161 0.59769 0.58566 0.0
O28 O 0.6909 0.66702 0.60237 0.0
C29 C 0.67991 0.70101 0.60703 0.0
C30 C 0.67855 0.58941 0.49614 0.0
O31 O 0.65846 0.71848 0.57998 0.0
C32 C 0.59231 0.6661 0.46989 0.0
O33 O 0.71058 0.68641 0.52336 0.0
O34 O 0.6599 0.71602 0.49732 0.0
O35 O 0.64817 0.58206 0.51568 0.0
O36 O 0.69787 0.6183 0.50435 0.0
C37 C 0.56639 0.6665 0.57677 0.0
O38 O 0.59314 0.69263 0.49587 0.0
O39 O 0.60526 0.63289 0.48025 0.0
C40 C 0.69498 0.71105 0.49764 0.0
O41 O 0.59195 0.69114 0.58043 0.0
O42 O 0.57077 0.63986 0.55204 0.0
C43 C 0.65116 0.5867 0.60423 0.0
Fe44 Fe 0.85719 0.19633 0.04057 0.0
Fe45 Fe 0.87212 0.11051 0.03171 0.0
O46 O 0.84023 0.14832 0.03921 0.0
Fe47 Fe 0.79148 0.13764 0.04531 0.0
O48 O 0.78021 0.16885 0.99863 0.0
O49 O 0.81541 0.218 0.0151 0.0
O50 O 0.87794 0.19592 0.98757 0.0
C51 C 0.90066 0.17062 0.9764 0.0
C52 C 0.80353 0.19576 0.10334 0.0
O53 O 0.90525 0.13956 0.99886 0.0
C54 C 0.82258 0.07765 0.0934 0.0
O55 O 0.90206 0.18249 0.06634 0.0
O56 O 0.89676 0.11976 0.07993 0.0
O57 O 0.78204 0.17642 0.0808 0.0
O58 O 0.83773 0.20082 0.09336 0.0
C59 C 0.81504 0.08878 0.98149 0.0
O60 O 0.84535 0.07402 0.06317 0.0
O61 O 0.79991 0.10567 0.09279 0.0
C62 C 0.91116 0.15168 0.08764 0.0
O63 O 0.84896 0.09926 0.9831 0.0
O64 O 0.79208 0.09682 0.01053 0.0
C65 C 0.79016 0.20374 0.99261 0.0
Fe66 Fe 0.37415 0.38696 0.497 0.0
Fe67 Fe 0.29579 0.35613 0.47783 0.0
O68 O 0.34315 0.34764 0.494 0.0
Fe69 Fe 0.35964 0.30015 0.50753 0.0
O70 O 0.37192 0.31166 0.56092 0.0
O71 O 0.40184 0.36511 0.54095 0.0
O72 O 0.34495 0.40723 0.53654 0.0
C73 C 0.3109 0.41634 0.53143 0.0
C74 C 0.42061 0.33584 0.46117 0.0
O75 O 0.29177 0.40325 0.50169 0.0
C76 C 0.3167 0.28843 0.43798 0.0
O77 O 0.35232 0.41646 0.45368 0.0
O78 O 0.3103 0.37876 0.42673 0.0
O79 O 0.40807 0.30951 0.48743 0.0
O80 O 0.40506 0.36849 0.45767 0.0
C81 C 0.28644 0.30111 0.5436 0.0
O82 O 0.29169 0.31074 0.45135 0.0
O83 O 0.34845 0.28523 0.45546 0.0
C84 C 0.3328 0.40679 0.42276 0.0
O85 O 0.27805 0.33423 0.52761 0.0
O86 O 0.31432 0.28271 0.5299 0.0
C87 C 0.39282 0.33933 0.56925 0.0
H88 H 0.13533 0.19512 0.19852 0.0
H89 H 0.21336 0.10077 0.22012 0.0
H90 H 0.10263 0.08016 0.17267 0.0
H91 H 0.24937 0.14298 0.25049 0.0
C92 C 0.23552 0.17077 0.25083 0.0
C93 C 0.14186 0.16467 0.19784 0.0
C94 C 0.11457 0.13909 0.18473 0.0
C95 C 0.17721 0.15127 0.21154 0.0
C96 C 0.18593 0.11169 0.2107 0.0
C97 C 0.15877 0.08582 0.19716 0.0
C98 C 0.12321 0.09979 0.18458 0.0
N99 N 0.20215 0.1787 0.22732 0.0
H100 H 0.26276 0.6043 0.69728 0.0
H101 H 0.34757 0.69178 0.71082 0.0
H102 H 0.37237 0.59282 0.64162 0.0
H103 H 0.29811 0.72913 0.72257 0.0
C104 C 0.27762 0.71036 0.73911 0.0
C105 C 0.29075 0.61567 0.69067 0.0
C106 C 0.3164 0.59459 0.66774 0.0
C107 C 0.30127 0.65119 0.70573 0.0
C108 C 0.33825 0.66516 0.69833 0.0
C109 C 0.3637 0.64441 0.67465 0.0
C110 C 0.35255 0.60924 0.65942 0.0
N111 N 0.27456 0.67108 0.72973 0.0
H112 H 0.91129 0.78092 0.25403 0.0
H113 H 0.84271 0.88194 0.26892 0.0
H114 H 0.93028 0.88465 0.17516 0.0
H115 H 0.82168 0.852 0.32573 0.0
C116 C 0.82943 0.82178 0.32811 0.0
C117 C 0.904 0.81062 0.24488 0.0
C118 C 0.92394 0.83084 0.2122 0.0
C119 C 0.87497 0.82872 0.2663 0.0
C120 C 0.86532 0.86731 0.25373 0.0
C121 C 0.88553 0.88782 0.22126 0.0
C122 C 0.91479 0.86928 0.20074 0.0
N123 N 0.85644 0.80707 0.30012 0.0
H124 H 0.56045 0.29977 0.77727 0.0
H125 H 0.63769 0.3941 0.79023 0.0
H126 H 0.5412 0.41003 0.71043 0.0
H127 H 0.67703 0.34885 0.81252 0.0
C128 C 0.66139 0.32396 0.82558 0.0
C129 C 0.56851 0.32955 0.76972 0.0
C130 C 0.54614 0.35338 0.74245 0.0
C131 C 0.60182 0.34354 0.7867 0.0
C132 C 0.61254 0.38227 0.77697 0.0
C133 C 0.59018 0.40644 0.7501 0.0
C134 C 0.55725 0.39178 0.73301 0.0
N135 N 0.62363 0.31765 0.81326 0.0
H136 H 0.63004 0.32186 0.31357 0.0
H137 H 0.72832 0.38874 0.3428 0.0
H138 H 0.62138 0.41349 0.39781 0.0
H139 H 0.75954 0.35086 0.30312 0.0
C140 C 0.74149 0.33132 0.28714 0.0
C141 C 0.64314 0.34479 0.32994 0.0
C142 C 0.62127 0.36703 0.35611 0.0
C143 C 0.68184 0.35229 0.32426 0.0
C144 C 0.69866 0.38227 0.34594 0.0
C145 C 0.67674 0.40417 0.37259 0.0
C146 C 0.63823 0.39658 0.37712 0.0
N147 N 0.70223 0.3292 0.29634 0.0
H148 H 0.092 0.2242 0.78985 0.0
H149 H 0.17851 0.13715 0.80871 0.0
H150 H 0.08092 0.13337 0.88859 0.0
H151 H 0.2151 0.18199 0.7791 0.0
C152 C 0.19833 0.19739 0.75478 0.0
C153 C 0.10305 0.19853 0.80687 0.0
C154 C 0.08211 0.18004 0.84022 0.0
C155 C 0.13831 0.18372 0.79541 0.0
C156 C 0.15209 0.14987 0.81748 0.0
C157 C 0.13193 0.13224 0.85171 0.0
C158 C 0.09691 0.14729 0.86249 0.0
N159 N 0.15907 0.20298 0.76147 0.0
H160 H 0.44301 0.68034 0.25359 0.0
H161 H 0.36282 0.58982 0.23374 0.0
H162 H 0.4597 0.56611 0.31129 0.0
H163 H 0.32542 0.63575 0.21214 0.0
C164 C 0.34119 0.66136 0.20162 0.0
C165 C 0.43405 0.65054 0.25854 0.0
C166 C 0.45606 0.62416 0.28337 0.0
C167 C 0.40018 0.63877 0.24044 0.0
C168 C 0.38842 0.6 0.24755 0.0
C169 C 0.40991 0.57361 0.27292 0.0
C170 C 0.44378 0.58591 0.29019 0.0
N171 N 0.37877 0.6667 0.21566 0.0
H172 H 0.78582 0.89863 0.81435 0.0
H173 H 0.87007 0.80869 0.82136 0.0
H174 H 0.89244 0.91746 0.87302 0.0
H175 H 0.81994 0.77026 0.81379 0.0
C176 C 0.8013 0.78665 0.79216 0.0
C177 C 0.81348 0.88821 0.82393 0.0
C178 C 0.83827 0.91252 0.84402 0.0
C179 C 0.82438 0.85047 0.81583 0.0
C180 C 0.86065 0.8372 0.82827 0.0
C181 C 0.88559 0.86147 0.84851 0.0
C182 C 0.87392 0.89888 0.85626 0.0
N183 N 0.79888 0.82743 0.7936 0.0
H184 H 0.14355 0.91819 0.14397 0.0
H185 H 0.2421 0.95295 0.07063 0.0
H186 H 0.24822 0.01041 0.11029 0.0
H187 H 0.21779 0.05688 0.15496 0.0
H188 H 0.11802 0.0231 0.22619 0.0
H189 H 0.12055 0.95901 0.19888 0.0
C190 C 0.1669 0.93785 0.13737 0.0
C191 C 0.19167 0.93179 0.10364 0.0
C192 C 0.1698 0.97134 0.15964 0.0
C193 C 0.22228 0.95711 0.09607 0.0
C194 C 0.22571 0.99019 0.11858 0.0
C195 C 0.19751 0.03496 0.16572 0.0
C196 C 0.16742 0.04474 0.19188 0.0
C197 C 0.19852 0.99855 0.1489 0.0
C198 C 0.14116 0.01621 0.20556 0.0
C199 C 0.14247 0.97969 0.18978 0.0
H200 H 0.53851 0.67014 0.65738 0.0
H201 H 0.50755 0.67873 0.52509 0.0
H202 H 0.44101 0.67765 0.54412 0.0
H203 H 0.39205 0.66498 0.59773 0.0
H204 H 0.42114 0.65438 0.73027 0.0
H205 H 0.48778 0.66591 0.71227 0.0
C206 C 0.51704 0.6729 0.633 0.0
C207 C 0.52761 0.67446 0.58999 0.0
C208 C 0.47858 0.67133 0.64424 0.0
C209 C 0.4998 0.67749 0.55841 0.0
C210 C 0.46181 0.67668 0.56924 0.0
C211 C 0.41299 0.66609 0.6226 0.0
C212 C 0.40213 0.65874 0.66508 0.0
C213 C 0.45092 0.67219 0.61193 0.0
C214 C 0.42915 0.66017 0.6973 0.0
C215 C 0.46718 0.66649 0.68697 0.0
H216 H 0.88317 0.05548 0.1369 0.0
H217 H 0.7651 0.03096 0.12548 0.0
H218 H 0.77329 0.9703 0.16961 0.0
H219 H 0.8168 0.92026 0.20194 0.0
H220 H 0.93503 0.94698 0.21141 0.0
H221 H 0.92406 0.01135 0.17822 0.0
C222 C 0.859 0.03756 0.14549 0.0
C223 C 0.82366 0.04755 0.12846 0.0
C224 C 0.86419 0.00292 0.16991 0.0
C225 C 0.79249 0.02392 0.13886 0.0
C226 C 0.79733 0.98911 0.16363 0.0
C227 C 0.83989 0.94058 0.1976 0.0
C228 C 0.87683 0.92869 0.20825 0.0
C229 C 0.83341 0.97764 0.17796 0.0
C230 C 0.90655 0.95524 0.20259 0.0
C231 C 0.9003 0.99204 0.18372 0.0
H232 H 0.43982 0.28671 0.60775 0.0
H233 H 0.38574 0.39599 0.62234 0.0
H234 H 0.42374 0.40584 0.68505 0.0
H235 H 0.47896 0.38849 0.72773 0.0
H236 H 0.53974 0.28398 0.70654 0.0
H237 H 0.49197 0.2662 0.65586 0.0
C238 C 0.43581 0.31203 0.62559 0.0
C239 C 0.41014 0.34056 0.61108 0.0
C240 C 0.45924 0.3184 0.66022 0.0
C241 C 0.40533 0.3737 0.63349 0.0
C242 C 0.42715 0.37938 0.6691 0.0
C243 C 0.48152 0.36159 0.71237 0.0
C244 C 0.51322 0.33804 0.72019 0.0
C245 C 0.45527 0.35273 0.68155 0.0
C246 C 0.51562 0.3027 0.70107 0.0
C247 C 0.48853 0.29272 0.67168 0.0
H248 H 0.69702 0.51558 0.51622 0.0
H249 H 0.68792 0.60024 0.41068 0.0
H250 H 0.69322 0.5493 0.36071 0.0
H251 H 0.68915 0.47959 0.34835 0.0
H252 H 0.69721 0.3956 0.45471 0.0
H253 H 0.70459 0.44708 0.5032 0.0
C254 C 0.69755 0.52284 0.48221 0.0
C255 C 0.69226 0.56132 0.46688 0.0
C256 C 0.70016 0.49342 0.45397 0.0
C257 C 0.69248 0.57072 0.42295 0.0
C258 C 0.69513 0.54157 0.39448 0.0
C259 C 0.6941 0.47276 0.38192 0.0
C260 C 0.69301 0.43407 0.39814 0.0
C261 C 0.69747 0.50266 0.4097 0.0
C262 C 0.69852 0.42526 0.44171 0.0
C263 C 0.70232 0.45467 0.46942 0.0
H264 H 0.9509 0.22881 0.95647 0.0
H265 H 0.9045 0.12422 0.91219 0.0
H266 H 0.95366 0.12269 0.85822 0.0
H267 H 0.01597 0.14391 0.83327 0.0
H268 H 0.0661 0.24531 0.88034 0.0
H269 H 0.00941 0.25606 0.92272 0.0
C270 C 0.95096 0.2066 0.93391 0.0
C271 C 0.92421 0.17668 0.93803 0.0
C272 C 0.98034 0.20512 0.90382 0.0
C273 C 0.92483 0.14753 0.90935 0.0
C274 C 0.95304 0.14653 0.87868 0.0
C275 C 0.01375 0.16917 0.85158 0.0
C276 C 0.04484 0.1939 0.8537 0.0
C277 C 0.98184 0.17414 0.87692 0.0
C278 C 0.04218 0.22624 0.87791 0.0
C279 C 0.00998 0.23203 0.90254 0.0
H280 H 0.38934 0.41149 0.36677 0.0
H281 H 0.28099 0.45958 0.39395 0.0
H282 H 0.293 0.51423 0.34227 0.0
H283 H 0.33953 0.5536 0.30057 0.0
H284 H 0.4488 0.50576 0.27548 0.0
H285 H 0.4312 0.44535 0.31458 0.0
C286 C 0.36791 0.4333 0.36003 0.0
C287 C 0.33436 0.43179 0.38356 0.0
C288 C 0.37552 0.46489 0.33128 0.0
C289 C 0.30678 0.46017 0.37548 0.0
C290 C 0.31387 0.49154 0.34636 0.0
C291 C 0.35897 0.52947 0.30235 0.0
C292 C 0.39567 0.53435 0.2859 0.0
C293 C 0.34887 0.49505 0.32558 0.0
C294 C 0.42064 0.50288 0.28861 0.0
C295 C 0.41062 0.46838 0.311 0.0
H296 H 0.02809 0.79983 0.95058 0.0
H297 H 0.07096 0.91001 0.90032 0.0
H298 H 0.01481 0.91999 0.85682 0.0
H299 H 0.9511 0.9009 0.83863 0.0
H300 H 0.90527 0.79328 0.89194 0.0
H301 H 0.9653 0.7782 0.9275 0.0
C302 C 0.02535 0.8257 0.92957 0.0
C303 C 0.05351 0.85434 0.92906 0.0
C304 C 0.99242 0.83173 0.9052 0.0
C305 C 0.04952 0.88776 0.90175 0.0
C306 C 0.01743 0.89349 0.87678 0.0
C307 C 0.95435 0.87395 0.85774 0.0
C308 C 0.92362 0.84851 0.86314 0.0
C309 C 0.98831 0.86621 0.87917 0.0
C310 C 0.92851 0.81333 0.88721 0.0
C311 C 0.96272 0.8049 0.90789 0.0
H312 H 0.84817 0.07801 0.90593 0.0
H313 H 0.76044 0.03309 0.99018 0.0
H314 H 0.75477 0.97613 0.94912 0.0
H315 H 0.78293 0.93417 0.89704 0.0
H316 H 0.87237 0.97878 0.81526 0.0
H317 H 0.86881 0.04096 0.84688 0.0
C318 C 0.82726 0.05613 0.91476 0.0
C319 C 0.80528 0.05942 0.95145 0.0
C320 C 0.82466 0.02321 0.89152 0.0
C321 C 0.77785 0.03118 0.96215 0.0
C322 C 0.77476 0.99844 0.93884 0.0
C323 C 0.80057 0.95806 0.88521 0.0
C324 C 0.82793 0.95212 0.85406 0.0
C325 C 0.79913 0.9934 0.90453 0.0
C326 C 0.8511 0.98294 0.83921 0.0
C327 C 0.84928 0.01832 0.85752 0.0
H328 H 0.45002 0.38227 0.39692 0.0
H329 H 0.4732 0.27845 0.47546 0.0
H330 H 0.53651 0.27582 0.44497 0.0
H331 H 0.58779 0.30763 0.40206 0.0
H332 H 0.5645 0.41286 0.3266 0.0
H333 H 0.49855 0.41014 0.34926 0.0
C334 C 0.46871 0.35877 0.40711 0.0
C335 C 0.457 0.33093 0.43893 0.0
C336 C 0.50512 0.35776 0.38991 0.0
C337 C 0.4815 0.30041 0.45123 0.0
C338 C 0.51778 0.29896 0.43388 0.0
C339 C 0.56786 0.32923 0.38978 0.0
C340 C 0.58056 0.36022 0.36251 0.0
C341 C 0.53024 0.32805 0.40402 0.0
C342 C 0.55498 0.38861 0.3473 0.0
C343 C 0.51745 0.3872 0.36051 0.0
H344 H 0.16768 0.9986 0.98866 0.0
H345 H 0.18877 0.93633 0.87747 0.0
H346 H 0.18115 0.99626 0.83212 0.0
H347 H 0.16021 0.0648 0.82442 0.0
H348 H 0.13798 0.12484 0.93717 0.0
H349 H 0.15439 0.06733 0.98175 0.0
C350 C 0.17117 0.99826 0.95449 0.0
C351 C 0.17826 0.96325 0.93622 0.0
C352 C 0.16608 0.03234 0.929 0.0
C353 C 0.18335 0.96312 0.89211 0.0
C354 C 0.17866 0.99726 0.86626 0.0
C355 C 0.1597 0.06533 0.85874 0.0
C356 C 0.14728 0.09871 0.87758 0.0
C357 C 0.16879 0.03183 0.88432 0.0
C358 C 0.14676 0.09921 0.92205 0.0
C359 C 0.15621 0.06642 0.94753 0.0
H360 H 0.59744 0.62537 0.39998 0.0
H361 H 0.53514 0.71757 0.45257 0.0
H362 H 0.48987 0.71706 0.39438 0.0
H363 H 0.46296 0.68346 0.33485 0.0
H364 H 0.525 0.59039 0.28384 0.0
H365 H 0.57569 0.59858 0.33457 0.0
C366 C 0.57428 0.64579 0.39832 0.0
C367 C 0.56926 0.67097 0.43092 0.0
C368 C 0.54819 0.64502 0.36511 0.0
C369 C 0.53953 0.69773 0.42798 0.0
C370 C 0.51351 0.69732 0.39481 0.0
C371 C 0.48816 0.66589 0.33402 0.0
C372 C 0.49018 0.63613 0.30602 0.0
C373 C 0.51683 0.67017 0.36402 0.0
C374 C 0.5228 0.61327 0.30541 0.0
C375 C 0.55165 0.6178 0.33453 0.0
H376 H 0.32419 0.42605 0.61344 0.0
H377 H 0.26673 0.47752 0.50376 0.0
H378 H 0.25786 0.53724 0.53992 0.0
H379 H 0.27654 0.57789 0.59818 0.0
H380 H 0.33723 0.52625 0.70547 0.0
H381 H 0.33478 0.46332 0.67517 0.0
C382 C 0.30906 0.45014 0.59788 0.0
C383 C 0.29663 0.44784 0.55596 0.0
C384 C 0.3051 0.48439 0.61835 0.0
C385 C 0.27647 0.47877 0.53614 0.0
C386 C 0.27177 0.51298 0.55664 0.0
C387 C 0.28812 0.55247 0.61528 0.0
C388 C 0.30696 0.55621 0.65385 0.0
C389 C 0.2874 0.51664 0.59706 0.0
C390 C 0.32246 0.52359 0.67581 0.0
C391 C 0.32123 0.4878 0.65841 0.0
H392 H 0.0322 0.78246 0.06985 0.0
H393 H 0.11165 0.8394 0.14723 0.0
H394 H 0.06485 0.84176 0.20404 0.0
H395 H 0.99817 0.83871 0.22526 0.0
H396 H 0.91762 0.78495 0.14651 0.0
H397 H 0.96776 0.76949 0.09682 0.0
C398 C 0.03954 0.79376 0.09997 0.0
C399 C 0.07519 0.8102 0.10499 0.0
C400 C 0.01204 0.79616 0.13179 0.0
C401 C 0.08445 0.82594 0.14336 0.0
C402 C 0.05759 0.8277 0.17554 0.0
C403 C 0.99205 0.82241 0.19794 0.0
C404 C 0.95466 0.81275 0.18927 0.0
C405 C 0.02083 0.81452 0.16926 0.0
C406 C 0.94646 0.79222 0.15368 0.0
C407 C 0.97503 0.78371 0.12522 0.0
H408 H 0.59786 0.57304 0.66418 0.0
H409 H 0.70492 0.53128 0.62168 0.0
H410 H 0.6982 0.47318 0.66962 0.0
H411 H 0.65683 0.43001 0.71469 0.0
H412 H 0.54874 0.47161 0.75404 0.0
H413 H 0.56104 0.53427 0.71675 0.0
C414 C 0.62005 0.55151 0.66598 0.0
C415 C 0.65149 0.55602 0.63898 0.0
C416 C 0.61561 0.51805 0.69283 0.0
C417 C 0.68036 0.52834 0.64209 0.0
C418 C 0.6764 0.49502 0.66927 0.0
C419 C 0.63658 0.45326 0.71609 0.0
C420 C 0.60181 0.4463 0.73663 0.0
C421 C 0.64345 0.48891 0.69356 0.0
C422 C 0.57555 0.4764 0.73807 0.0
C423 C 0.58251 0.5121 0.71664 0.0
H424 H 0.97266 0.19813 0.08182 0.0
H425 H 0.92197 0.10432 0.15836 0.0
H426 H 0.97987 0.09523 0.19907 0.0
H427 H 0.04687 0.1088 0.20702 0.0
H428 H 0.09913 0.20026 0.12843 0.0
H429 H 0.03845 0.21627 0.09512 0.0
C430 C 0.97412 0.1763 0.10802 0.0
C431 C 0.9435 0.15136 0.11664 0.0
C432 C 0.00782 0.17074 0.13071 0.0
C433 C 0.94559 0.12316 0.15057 0.0
C434 C 0.97861 0.11805 0.17392 0.0
C435 C 0.04482 0.13248 0.18287 0.0
C436 C 0.07731 0.15295 0.16965 0.0
C437 C 0.01026 0.14076 0.16323 0.0
C438 C 0.07436 0.1841 0.13905 0.0
C439 C 0.03978 0.19306 0.11982 0.0
H440 H 0.27668 0.80111 0.08499 0.0
H441 H 0.18807 0.71797 0.07013 0.0
H442 H 0.22108 0.67098 0.1173 0.0
H443 H 0.27487 0.65328 0.16294 0.0
H444 H 0.36475 0.73496 0.17644 0.0
H445 H 0.33155 0.7827 0.1297 0.0
C446 C 0.2646 0.77272 0.09211 0.0
C447 C 0.22992 0.76313 0.074 0.0
C448 C 0.28395 0.74556 0.119 0.0
C449 C 0.21479 0.7261 0.08338 0.0
C450 C 0.23359 0.69919 0.11046 0.0
C451 C 0.28714 0.68157 0.15559 0.0
C452 C 0.32206 0.69064 0.17309 0.0
C453 C 0.26814 0.7086 0.12842 0.0
C454 C 0.33788 0.72726 0.16327 0.0
C455 C 0.31888 0.75457 0.1366 0.0
H456 H 0.72556 0.67243 0.67085 0.0
H457 H 0.67127 0.77743 0.62219 0.0
H458 H 0.70294 0.81322 0.67583 0.0
H459 H 0.74878 0.81537 0.73438 0.0
H460 H 0.80301 0.7102 0.7822 0.0
H461 H 0.76868 0.67392 0.73103 0.0
C462 C 0.72036 0.7031 0.67205 0.0
C463 C 0.69615 0.72214 0.64219 0.0
C464 C 0.73892 0.7236 0.70272 0.0
C465 C 0.68973 0.76191 0.64463 0.0
C466 C 0.70798 0.78249 0.67524 0.0
C467 C 0.75294 0.7845 0.73371 0.0
C468 C 0.7786 0.76547 0.76191 0.0
C469 C 0.73308 0.76376 0.70407 0.0
C470 C 0.78351 0.72546 0.76074 0.0
C471 C 0.7639 0.70471 0.73149 0.0
H472 H 0.83843 0.24624 0.15349 0.0
H473 H 0.73121 0.19189 0.13317 0.0
H474 H 0.70268 0.22826 0.18833 0.0
H475 H 0.70742 0.27698 0.24102 0.0
H476 H 0.81428 0.33163 0.26142 0.0
H477 H 0.84357 0.29371 0.20766 0.0
C478 C 0.80887 0.24214 0.16124 0.0
C479 C 0.78708 0.21636 0.13889 0.0
C480 C 0.79245 0.26338 0.19296 0.0
C481 C 0.74877 0.21154 0.14959 0.0
C482 C 0.73233 0.2324 0.18118 0.0
C483 C 0.73713 0.28056 0.2338 0.0
C484 C 0.75865 0.30723 0.25509 0.0
C485 C 0.75378 0.25867 0.20281 0.0
C486 C 0.79713 0.31134 0.24538 0.0
C487 C 0.81388 0.28967 0.21465 0.0
H488 H 0.30696 0.24404 0.60169 0.0
H489 H 0.21433 0.31945 0.56557 0.0
H490 H 0.17782 0.29304 0.62666 0.0
H491 H 0.17314 0.24992 0.69212 0.0
H492 H 0.26765 0.17769 0.72978 0.0
H493 H 0.3024 0.20133 0.66641 0.0
C494 C 0.27861 0.25439 0.60689 0.0
C495 C 0.26334 0.28348 0.57896 0.0
C496 C 0.25816 0.23977 0.64257 0.0
C497 C 0.22678 0.29704 0.58658 0.0
C498 C 0.20588 0.28197 0.62154 0.0
C499 C 0.20124 0.23926 0.68625 0.0
C500 C 0.21785 0.21204 0.71546 0.0
C501 C 0.22141 0.25357 0.65003 0.0
C502 C 0.25438 0.19871 0.70769 0.0
C503 C 0.27424 0.21217 0.67148 0.0
H504 H 0.76102 0.69432 0.45883 0.0
H505 H 0.67999 0.78529 0.47204 0.0
H506 H 0.71556 0.8279 0.42212 0.0
H507 H 0.76835 0.83881 0.37293 0.0
H508 H 0.84766 0.74724 0.35551 0.0
H509 H 0.81427 0.70537 0.4087 0.0
C510 C 0.75147 0.72359 0.45095 0.0
C511 C 0.71805 0.73672 0.469 0.0
C512 C 0.77159 0.74771 0.4213 0.0
C513 C 0.70557 0.77451 0.45827 0.0
C514 C 0.72588 0.7989 0.4298 0.0
C515 C 0.77833 0.8097 0.38095 0.0
C516 C 0.81022 0.79608 0.36046 0.0
C517 C 0.75867 0.7857 0.41083 0.0
C518 C 0.82296 0.75831 0.3708 0.0
C519 C 0.80394 0.73439 0.40125 0.0
H520 H 0.72266 0.19216 0.95454 0.0
H521 H 0.81461 0.2732 0.95864 0.0
H522 H 0.78311 0.31688 0.90659 0.0
H523 H 0.72912 0.33275 0.8607 0.0
H524 H 0.63608 0.25315 0.85786 0.0
H525 H 0.66831 0.20825 0.90849 0.0
C526 C 0.73582 0.21931 0.94391 0.0
C527 C 0.77082 0.22946 0.96055 0.0
C528 C 0.71735 0.24461 0.91427 0.0
C529 C 0.78749 0.26483 0.94661 0.0
C530 C 0.76958 0.28983 0.91676 0.0
C531 C 0.71602 0.30551 0.87118 0.0
C532 C 0.68045 0.29626 0.85574 0.0
C533 C 0.73446 0.28011 0.90056 0.0
C534 C 0.66351 0.26099 0.86947 0.0
C535 C 0.68191 0.23527 0.89837 0.0
H536 H 0.26125 0.29873 0.37967 0.0
H537 H 0.35248 0.22232 0.41841 0.0
H538 H 0.33649 0.18004 0.3624 0.0
H539 H 0.2948 0.1634 0.3041 0.0
H540 H 0.20464 0.24104 0.26488 0.0
H541 H 0.22219 0.28421 0.31906 0.0
C542 C 0.27758 0.2728 0.37588 0.0
C543 C 0.30767 0.26346 0.4034 0.0
C544 C 0.2685 0.24883 0.34343 0.0
C545 C 0.32905 0.23011 0.39767 0.0
C546 C 0.31993 0.20588 0.36568 0.0
C547 C 0.27931 0.18996 0.30727 0.0
C548 C 0.24841 0.19879 0.28082 0.0
C549 C 0.28952 0.21479 0.3386 0.0
C550 C 0.2285 0.23335 0.28498 0.0
C551 C 0.23843 0.25811 0.31606 0.0
H552 H 0.17411 0.75037 0.89303 0.0
H553 H 0.2489 0.84844 0.88913 0.0
H554 H 0.2797 0.82659 0.82582 0.0
H555 H 0.28804 0.77762 0.77427 0.0
H556 H 0.21634 0.6772 0.78053 0.0
H557 H 0.18159 0.70186 0.83999 0.0
C558 C 0.19683 0.76711 0.87791 0.0
C559 C 0.20932 0.80086 0.89563 0.0
C560 C 0.21513 0.7538 0.84217 0.0
C561 C 0.23903 0.82218 0.87613 0.0
C562 C 0.25663 0.80974 0.83997 0.0
C563 C 0.26458 0.76137 0.7885 0.0
C564 C 0.25481 0.72574 0.77328 0.0
C565 C 0.24535 0.77528 0.82317 0.0
C566 C 0.22452 0.70469 0.79192 0.0
C567 C 0.20463 0.71878 0.82589 0.0
loop_
_geom_bond_atom_site_label_1
_geom_bond_atom_site_label_2
_geom_bond_distance
_geom_bond_site_symmetry_2
_ccdc_geom_bond_type
Fe0 O2 1.918 . S
Fe0 O5 1.997 1_556 S
Fe0 O6 2.002 1_556 S
Fe0 O11 1.976 . S
Fe0 O14 1.996 . S
Fe1 O2 1.918 1_554 S
Fe1 O9 1.997 . S
Fe1 O12 1.996 1_554 S
Fe1 O16 1.976 1_554 S
Fe1 O19 2.002 . S
O2 Fe0 1.918 . S
O2 Fe1 1.918 1_556 S
O2 Fe3 1.918 1_556 S
Fe3 O2 1.918 1_554 S
Fe3 O4 2.002 . S
Fe3 O13 1.976 1_554 S
Fe3 O17 1.996 1_554 S
Fe3 O20 1.997 . S
O4 Fe3 2.002 . S
O4 C21 1.295 . S
O5 Fe0 1.997 1_554 S
O5 C21 1.235 . S
O6 Fe0 2.002 1_554 S
O6 C7 1.295 . S
C7 O6 1.295 . S
C7 O9 1.235 . S
C8 O13 1.287 . S
C8 O14 1.255 . S
O9 Fe1 1.997 . S
O9 C7 1.235 . S
C10 O16 1.287 . S
C10 O17 1.255 . S
O11 Fe0 1.976 . S
O11 C18 1.287 . S
O12 Fe1 1.996 1_556 S
O12 C18 1.255 . S
O13 Fe3 1.976 1_556 S
O13 C8 1.287 . S
O14 Fe0 1.996 . S
O14 C8 1.255 . S
C15 O19 1.295 . S
C15 O20 1.235 . S
O16 Fe1 1.976 1_556 S
O16 C10 1.287 . S
O17 Fe3 1.996 1_556 S
O17 C10 1.255 . S
C18 O11 1.287 . S
C18 O12 1.255 . S
O19 Fe1 2.002 . S
O19 C15 1.295 . S
O20 Fe3 1.997 . S
O20 C15 1.235 . S
C21 O4 1.295 . S
C21 O5 1.235 . S
Fe22 O24 1.918 . S
Fe22 O27 1.997 . S
Fe22 O28 2.002 . S
Fe22 O33 1.976 . S
Fe22 O36 1.996 . S
Fe23 O24 1.918 . S
Fe23 O31 1.997 . S
Fe23 O34 1.996 . S
Fe23 O38 1.976 . S
Fe23 O41 2.002 . S
O24 Fe22 1.918 . S
O24 Fe23 1.918 . S
O24 Fe25 1.918 . S
Fe25 O24 1.918 . S
Fe25 O26 2.002 . S
Fe25 O35 1.976 . S
Fe25 O39 1.996 . S
Fe25 O42 1.997 . S
O26 Fe25 2.002 . S
O26 C43 1.295 . S
O27 Fe22 1.997 . S
O27 C43 1.235 . S
O28 Fe22 2.002 . S
O28 C29 1.295 . S
C29 O28 1.295 . S
C29 O31 1.235 . S
C30 O35 1.287 . S
C30 O36 1.255 . S
O31 Fe23 1.997 . S
O31 C29 1.235 . S
C32 O38 1.287 . S
C32 O39 1.255 . S
O33 Fe22 1.976 . S
O33 C40 1.287 . S
O34 Fe23 1.996 . S
O34 C40 1.255 . S
O35 Fe25 1.976 . S
O35 C30 1.287 . S
O36 Fe22 1.996 . S
O36 C30 1.255 . S
C37 O41 1.295 . S
C37 O42 1.235 . S
O38 Fe23 1.976 . S
O38 C32 1.287 . S
O39 Fe25 1.996 . S
O39 C32 1.255 . S
C40 O33 1.287 . S
C40 O34 1.255 . S
O41 Fe23 2.002 . S
O41 C37 1.295 . S
O42 Fe25 1.997 . S
O42 C37 1.235 . S
C43 O26 1.295 . S
C43 O27 1.235 . S
Fe44 O46 1.918 . S
Fe44 O49 1.993 1_554 S
Fe44 O50 2.002 1_554 S
Fe44 O55 1.976 . S
Fe44 O58 1.996 . S
Fe45 O46 1.918 . S
Fe45 O53 1.997 1_554 S
Fe45 O56 1.996 . S
Fe45 O60 1.976 . S
Fe45 O63 2.016 . S
O46 Fe44 1.918 . S
O46 Fe45 1.918 . S
O46 Fe47 1.918 . S
Fe47 O46 1.918 . S
Fe47 O48 2.002 . S
Fe47 O57 1.976 . S
Fe47 O61 1.996 . S
Fe47 O64 1.997 . S
O48 Fe47 2.002 . S
O48 C65 1.295 1_554 S
O49 Fe44 1.993 1_556 S
O49 C65 1.237 . S
O50 Fe44 2.002 1_556 S
O50 C51 1.295 . S
C51 O50 1.295 . S
C51 O53 1.235 . S
C52 O57 1.287 . S
C52 O58 1.255 . S
O53 Fe45 1.997 1_556 S
O53 C51 1.235 . S
C54 O60 1.287 . S
C54 O61 1.255 . S
O55 Fe44 1.976 . S
O55 C62 1.287 . S
O56 Fe45 1.996 . S
O56 C62 1.255 . S
O57 Fe47 1.976 . S
O57 C52 1.287 . S
O58 Fe44 1.996 . S
O58 C52 1.255 . S
C59 O63 1.292 1_556 S
C59 O64 1.235 1_556 S
O60 Fe45 1.976 . S
O60 C54 1.287 . S
O61 Fe47 1.996 . S
O61 C54 1.255 . S
C62 O55 1.287 . S
C62 O56 1.255 . S
O63 Fe45 2.016 . S
O63 C59 1.292 1_554 S
O64 Fe47 1.997 . S
O64 C59 1.235 1_554 S
C65 O48 1.295 1_556 S
C65 O49 1.237 . S
Fe66 O68 1.918 . S
Fe66 O71 1.997 . S
Fe66 O72 2.002 . S
Fe66 O77 1.976 . S
Fe66 O80 1.996 . S
Fe67 O68 1.918 . S
Fe67 O75 1.997 . S
Fe67 O78 1.996 . S
Fe67 O82 1.976 . S
Fe67 O85 2.002 . S
O68 Fe66 1.918 . S
O68 Fe67 1.918 . S
O68 Fe69 1.918 . S
Fe69 O68 1.918 . S
Fe69 O70 2.002 . S
Fe69 O79 1.976 . S
Fe69 O83 1.996 . S
Fe69 O86 1.997 . S
O70 Fe69 2.002 . S
O70 C87 1.295 . S
O71 Fe66 1.997 . S
O71 C87 1.235 . S
O72 Fe66 2.002 . S
O72 C73 1.295 . S
C73 O72 1.295 . S
C73 O75 1.235 . S
C74 O79 1.287 . S
C74 O80 1.255 . S
O75 Fe67 1.997 . S
O75 C73 1.235 . S
C76 O82 1.287 . S
C76 O83 1.255 . S
O77 Fe66 1.976 . S
O77 C84 1.287 . S
O78 Fe67 1.996 . S
O78 C84 1.255 . S
O79 Fe69 1.976 . S
O79 C74 1.287 . S
O80 Fe66 1.996 . S
O80 C74 1.255 . S
C81 O85 1.295 . S
C81 O86 1.235 . S
O82 Fe67 1.976 . S
O82 C76 1.287 . S
O83 Fe69 1.996 . S
O83 C76 1.255 . S
C84 O77 1.287 . S
C84 O78 1.255 . S
O85 Fe67 2.002 . S
O85 C81 1.295 . S
O86 Fe69 1.997 . S
O86 C81 1.235 . S
C87 O70 1.295 . S
C87 O71 1.235 . S
H88 C93 0.930 . S
H89 C96 0.930 . S
H90 C98 0.930 . S
H91 C92 1.016 . S
C92 H91 1.016 . S
C92 N99 1.286 . S
C93 H88 0.930 . S
C93 C94 1.397 . S
C93 C95 1.361 . S
C94 C93 1.397 . S
C94 C98 1.390 . S
C95 C93 1.361 . S
C95 C96 1.393 . S
C95 N99 1.413 . S
C96 H89 0.930 . S
C96 C95 1.393 . S
C96 C97 1.399 . S
C97 C96 1.399 . S
C97 C98 1.381 . S
C98 H90 0.930 . S
C98 C94 1.390 . S
C98 C97 1.381 . S
N99 C92 1.286 . S
N99 C95 1.413 . S
H100 C105 0.930 . S
H101 C108 0.930 . S
H102 C110 0.930 . S
H103 C104 1.016 . S
C104 H103 1.016 . S
C104 N111 1.286 . S
C105 H100 0.930 . S
C105 C106 1.397 . S
C105 C107 1.361 . S
C106 C105 1.397 . S
C106 C110 1.390 . S
C107 C105 1.361 . S
C107 C108 1.393 . S
C107 N111 1.413 . S
C108 H101 0.930 . S
C108 C107 1.393 . S
C108 C109 1.399 . S
C109 C108 1.399 . S
C109 C110 1.381 . S
C110 H102 0.930 . S
C110 C106 1.390 . S
C110 C109 1.381 . S
N111 C104 1.286 . S
N111 C107 1.413 . S
H112 C117 0.930 . S
H113 C120 0.930 . S
H114 C122 0.930 . S
H115 C116 1.016 . S
C116 H115 1.016 . S
C116 N123 1.286 . S
C117 H112 0.930 . S
C117 C118 1.397 . S
C117 C119 1.361 . S
C118 C117 1.397 . S
C118 C122 1.390 . S
C119 C117 1.361 . S
C119 C120 1.393 . S
C119 N123 1.413 . S
C120 H113 0.930 . S
C120 C119 1.393 . S
C120 C121 1.399 . S
C121 C120 1.399 . S
C121 C122 1.381 . S
C122 H114 0.930 . S
C122 C118 1.390 . S
C122 C121 1.381 . S
N123 C116 1.286 . S
N123 C119 1.413 . S
H124 C129 0.930 . S
H125 C132 0.930 . S
H126 C134 0.930 . S
H127 C128 1.016 . S
C128 H127 1.016 . S
C128 N135 1.286 . S
C129 H124 0.930 . S
C129 C130 1.397 . S
C129 C131 1.361 . S
C130 C129 1.397 . S
C130 C134 1.390 . S
C131 C129 1.361 . S
C131 C132 1.393 . S
C131 N135 1.413 . S
C132 H125 0.930 . S
C132 C131 1.393 . S
C132 C133 1.399 . S
C133 C132 1.399 . S
C133 C134 1.381 . S
C134 H126 0.930 . S
C134 C130 1.390 . S
C134 C133 1.381 . S
N135 C128 1.286 . S
N135 C131 1.413 . S
H136 C141 0.930 . S
H137 C144 0.930 . S
H138 C146 0.930 . S
H139 C140 1.016 . S
C140 H139 1.016 . S
C140 N147 1.286 . S
C141 H136 0.930 . S
C141 C142 1.397 . S
C141 C143 1.361 . S
C142 C141 1.397 . S
C142 C146 1.390 . S
C143 C141 1.361 . S
C143 C144 1.393 . S
C143 N147 1.413 . S
C144 H137 0.930 . S
C144 C143 1.393 . S
C144 C145 1.399 . S
C145 C144 1.399 . S
C145 C146 1.381 . S
C146 H138 0.930 . S
C146 C142 1.390 . S
C146 C145 1.381 . S
N147 C140 1.286 . S
N147 C143 1.413 . S
H148 C153 0.930 . S
H149 C156 0.930 . S
H150 C158 0.930 . S
H151 C152 1.016 . S
C152 H151 1.016 . S
C152 N159 1.286 . S
C153 H148 0.930 . S
C153 C154 1.397 . S
C153 C155 1.361 . S
C154 C153 1.397 . S
C154 C158 1.390 . S
C155 C153 1.361 . S
C155 C156 1.393 . S
C155 N159 1.413 . S
C156 H149 0.930 . S
C156 C155 1.393 . S
C156 C157 1.399 . S
C157 C156 1.399 . S
C157 C158 1.381 . S
C158 H150 0.930 . S
C158 C154 1.390 . S
C158 C157 1.381 . S
N159 C152 1.286 . S
N159 C155 1.413 . S
H160 C165 0.930 . S
H161 C168 0.930 . S
H162 C170 0.930 . S
H163 C164 1.016 . S
C164 H163 1.016 . S
C164 N171 1.286 . S
C165 H160 0.930 . S
C165 C166 1.397 . S
C165 C167 1.361 . S
C166 C165 1.397 . S
C166 C170 1.390 . S
C167 C165 1.361 . S
C167 C168 1.393 . S
C167 N171 1.413 . S
C168 H161 0.930 . S
C168 C167 1.393 . S
C168 C169 1.399 . S
C169 C168 1.399 . S
C169 C170 1.381 . S
C170 H162 0.930 . S
C170 C166 1.390 . S
C170 C169 1.381 . S
N171 C164 1.286 . S
N171 C167 1.413 . S
H172 C177 0.930 . S
H173 C180 0.930 . S
H174 C182 0.930 . S
H175 C176 1.016 . S
C176 H175 1.016 . S
C176 N183 1.286 . S
C177 H172 0.930 . S
C177 C178 1.397 . S
C177 C179 1.361 . S
C178 C177 1.397 . S
C178 C182 1.390 . S
C179 C177 1.361 . S
C179 C180 1.393 . S
C179 N183 1.413 . S
C180 H173 0.930 . S
C180 C179 1.393 . S
C180 C181 1.399 . S
C181 C180 1.399 . S
C181 C182 1.381 . S
C182 H174 0.930 . S
C182 C178 1.390 . S
C182 C181 1.381 . S
N183 C176 1.286 . S
N183 C179 1.413 . S
H184 C190 0.930 . S
H185 C193 0.930 . S
H186 C194 0.930 . S
H187 C195 0.930 . S
H188 C198 0.930 . S
H189 C199 0.930 . S
C190 H184 0.930 . S
C190 C191 1.355 . S
C190 C192 1.415 1_565 S
C191 C190 1.355 . S
C191 C193 1.419 1_565 S
C192 C190 1.415 1_545 S
C192 C197 1.425 . S
C192 C199 1.409 . S
C193 H185 0.930 . S
C193 C191 1.419 1_545 S
C193 C194 1.362 . S
C194 H186 0.930 . S
C194 C193 1.362 . S
C194 C197 1.409 . S
C195 H187 0.930 . S
C195 C196 1.355 . S
C195 C197 1.415 . S
C196 C195 1.355 . S
C196 C198 1.419 . S
C197 C192 1.425 . S
C197 C194 1.409 . S
C197 C195 1.415 . S
C198 H188 0.930 . S
C198 C196 1.419 . S
C198 C199 1.362 . S
C199 H189 0.930 . S
C199 C192 1.409 . S
C199 C198 1.362 . S
H200 C206 0.930 . S
H201 C209 0.930 . S
H202 C210 0.930 . S
H203 C211 0.930 . S
H204 C214 0.930 . S
H205 C215 0.930 . S
C206 H200 0.930 . S
C206 C207 1.355 . S
C206 C208 1.415 . S
C207 C206 1.355 . S
C207 C209 1.419 . S
C208 C206 1.415 . S
C208 C213 1.425 . S
C208 C215 1.409 . S
C209 H201 0.930 . S
C209 C207 1.419 . S
C209 C210 1.362 . S
C210 H202 0.930 . S
C210 C209 1.362 . S
C210 C213 1.409 . S
C211 H203 0.930 . S
C211 C212 1.355 . S
C211 C213 1.415 . S
C212 C211 1.355 . S
C212 C214 1.419 . S
C213 C208 1.425 . S
C213 C210 1.409 . S
C213 C211 1.415 . S
C214 H204 0.930 . S
C214 C212 1.419 . S
C214 C215 1.362 . S
C215 H205 0.930 . S
C215 C208 1.409 . S
C215 C214 1.362 . S
H216 C222 0.930 . S
H217 C225 0.930 . S
H218 C226 0.930 . S
H219 C227 0.930 . S
H220 C230 0.930 . S
H221 C231 0.930 1_545 S
C222 H216 0.930 . S
C222 C223 1.355 . S
C222 C224 1.415 1_545 S
C223 C222 1.355 . S
C223 C225 1.419 1_545 S
C224 C222 1.415 1_565 S
C224 C229 1.425 . S
C224 C231 1.409 . S
C225 H217 0.930 . S
C225 C223 1.419 1_565 S
C225 C226 1.362 . S
C226 H218 0.930 . S
C226 C225 1.362 . S
C226 C229 1.409 . S
C227 H219 0.930 . S
C227 C228 1.355 . S
C227 C229 1.415 . S
C228 C227 1.355 . S
C228 C230 1.419 . S
C229 C224 1.425 . S
C229 C226 1.409 . S
C229 C227 1.415 . S
C230 H220 0.930 . S
C230 C228 1.419 . S
C230 C231 1.362 . S
C231 H221 0.930 1_565 S
C231 C224 1.409 . S
C231 C230 1.362 . S
H232 C238 0.930 . S
H233 C241 0.930 . S
H234 C242 0.930 . S
H235 C243 0.930 . S
H236 C246 0.930 . S
H237 C247 0.930 . S
C238 H232 0.930 . S
C238 C239 1.355 . S
C238 C240 1.415 . S
C239 C238 1.355 . S
C239 C241 1.419 . S
C240 C238 1.415 . S
C240 C245 1.425 . S
C240 C247 1.409 . S
C241 H233 0.930 . S
C241 C239 1.419 . S
C241 C242 1.362 . S
C242 H234 0.930 . S
C242 C241 1.362 . S
C242 C245 1.409 . S
C243 H235 0.930 . S
C243 C244 1.355 . S
C243 C245 1.415 . S
C244 C243 1.355 . S
C244 C246 1.419 . S
C245 C240 1.425 . S
C245 C242 1.409 . S
C245 C243 1.415 . S
C246 H236 0.930 . S
C246 C244 1.419 . S
C246 C247 1.362 . S
C247 H237 0.930 . S
C247 C240 1.409 . S
C247 C246 1.362 . S
H248 C254 0.930 . S
H249 C257 0.930 . S
H250 C258 0.930 . S
H251 C259 0.930 . S
H252 C262 0.930 . S
H253 C263 0.930 . S
C254 H248 0.930 . S
C254 C255 1.355 . S
C254 C256 1.415 . S
C255 C254 1.355 . S
C255 C257 1.419 . S
C256 C254 1.415 . S
C256 C261 1.425 . S
C256 C263 1.409 . S
C257 H249 0.930 . S
C257 C255 1.419 . S
C257 C258 1.362 . S
C258 H250 0.930 . S
C258 C257 1.362 . S
C258 C261 1.409 . S
C259 H251 0.930 . S
C259 C260 1.355 . S
C259 C261 1.415 . S
C260 C259 1.355 . S
C260 C262 1.419 . S
C261 C256 1.425 . S
C261 C258 1.409 . S
C261 C259 1.415 . S
C262 H252 0.930 . S
C262 C260 1.419 . S
C262 C263 1.362 . S
C263 H253 0.930 . S
C263 C256 1.409 . S
C263 C262 1.362 . S
H264 C270 0.930 . S
H265 C273 0.930 . S
H266 C274 0.930 . S
H267 C275 0.930 . S
H268 C278 0.930 . S
H269 C279 0.930 . S
C270 H264 0.930 . S
C270 C271 1.355 . S
C270 C272 1.415 . S
C271 C270 1.355 . S
C271 C273 1.419 . S
C272 C270 1.415 . S
C272 C277 1.425 . S
C272 C279 1.409 . S
C273 H265 0.930 . S
C273 C271 1.419 . S
C273 C274 1.362 . S
C274 H266 0.930 . S
C274 C273 1.362 . S
C274 C277 1.409 . S
C275 H267 0.930 . S
C275 C276 1.355 . S
C275 C277 1.415 1_455 S
C276 C275 1.355 . S
C276 C278 1.419 . S
C277 C272 1.425 . S
C277 C274 1.409 . S
C277 C275 1.415 1_655 S
C278 H268 0.930 . S
C278 C276 1.419 . S
C278 C279 1.362 1_455 S
C279 H269 0.930 . S
C279 C272 1.409 . S
C279 C278 1.362 1_655 S
H280 C286 0.930 . S
H281 C289 0.930 . S
H282 C290 0.930 . S
H283 C291 0.930 . S
H284 C294 0.930 . S
H285 C295 0.930 . S
C286 H280 0.930 . S
C286 C287 1.355 . S
C286 C288 1.415 . S
C287 C286 1.355 . S
C287 C289 1.419 . S
C288 C286 1.415 . S
C288 C293 1.425 . S
C288 C295 1.409 . S
C289 H281 0.930 . S
C289 C287 1.419 . S
C289 C290 1.362 . S
C290 H282 0.930 . S
C290 C289 1.362 . S
C290 C293 1.409 . S
C291 H283 0.930 . S
C291 C292 1.355 . S
C291 C293 1.415 . S
C292 C291 1.355 . S
C292 C294 1.419 . S
C293 C288 1.425 . S
C293 C290 1.409 . S
C293 C291 1.415 . S
C294 H284 0.930 . S
C294 C292 1.419 . S
C294 C295 1.362 . S
C295 H285 0.930 . S
C295 C288 1.409 . S
C295 C294 1.362 . S
H296 C302 0.930 . S
H297 C305 0.930 1_455 S
H298 C306 0.930 . S
H299 C307 0.930 . S
H300 C310 0.930 . S
H301 C311 0.930 . S
C302 H296 0.930 . S
C302 C303 1.355 . S
C302 C304 1.415 1_455 S
C303 C302 1.355 . S
C303 C305 1.419 1_455 S
C304 C302 1.415 1_655 S
C304 C309 1.425 . S
C304 C311 1.409 . S
C305 H297 0.930 1_655 S
C305 C303 1.419 1_655 S
C305 C306 1.362 . S
C306 H298 0.930 . S
C306 C305 1.362 . S
C306 C309 1.409 . S
C307 H299 0.930 . S
C307 C308 1.355 . S
C307 C309 1.415 . S
C308 C307 1.355 . S
C308 C310 1.419 . S
C309 C304 1.425 . S
C309 C306 1.409 . S
C309 C307 1.415 . S
C310 H300 0.930 . S
C310 C308 1.419 . S
C310 C311 1.362 . S
C311 H301 0.930 . S
C311 C304 1.409 . S
C311 C310 1.362 . S
H312 C318 0.929 1_545 S
H313 C321 0.930 . S
H314 C322 0.930 . S
H315 C323 0.930 . S
H316 C326 0.930 . S
H317 C327 0.930 . S
C318 H312 0.929 1_565 S
C318 C319 1.355 1_565 S
C318 C320 1.415 . S
C319 C318 1.355 1_545 S
C319 C321 1.419 . S
C320 C318 1.415 . S
C320 C325 1.425 . S
C320 C327 1.409 . S
C321 H313 0.930 . S
C321 C319 1.419 . S
C321 C322 1.362 1_545 S
C322 H314 0.930 . S
C322 C321 1.362 1_565 S
C322 C325 1.409 . S
C323 H315 0.930 . S
C323 C324 1.355 . S
C323 C325 1.415 . S
C324 C323 1.355 . S
C324 C326 1.419 . S
C325 C320 1.425 . S
C325 C322 1.409 . S
C325 C323 1.415 . S
C326 H316 0.930 . S
C326 C324 1.419 . S
C326 C327 1.362 . S
C327 H317 0.930 . S
C327 C320 1.409 . S
C327 C326 1.362 . S
H328 C334 0.930 . S
H329 C337 0.930 . S
H330 C338 0.930 . S
H331 C339 0.930 . S
H332 C342 0.930 . S
H333 C343 0.930 . S
C334 H328 0.930 . S
C334 C335 1.355 . S
C334 C336 1.415 . S
C335 C334 1.355 . S
C335 C337 1.419 . S
C336 C334 1.415 . S
C336 C341 1.425 . S
C336 C343 1.409 . S
C337 H329 0.930 . S
C337 C335 1.419 . S
C337 C338 1.362 . S
C338 H330 0.930 . S
C338 C337 1.362 . S
C338 C341 1.409 . S
C339 H331 0.930 . S
C339 C340 1.355 . S
C339 C341 1.415 . S
C340 C339 1.355 . S
C340 C342 1.419 . S
C341 C336 1.425 . S
C341 C338 1.409 . S
C341 C339 1.415 . S
C342 H332 0.930 . S
C342 C340 1.419 . S
C342 C343 1.362 . S
C343 H333 0.930 . S
C343 C336 1.409 . S
C343 C342 1.362 . S
H344 C350 0.930 . S
H345 C353 0.930 . S
H346 C354 0.930 . S
H347 C355 0.930 . S
H348 C358 0.930 . S
H349 C359 0.930 . S
C350 H344 0.930 . S
C350 C351 1.355 1_545 S
C350 C352 1.415 . S
C351 C350 1.355 1_565 S
C351 C353 1.419 . S
C352 C350 1.415 . S
C352 C357 1.425 . S
C352 C359 1.409 . S
C353 H345 0.930 . S
C353 C351 1.419 . S
C353 C354 1.362 . S
C354 H346 0.930 . S
C354 C353 1.362 . S
C354 C357 1.409 1_565 S
C355 H347 0.930 . S
C355 C356 1.355 . S
C355 C357 1.415 . S
C356 C355 1.355 . S
C356 C358 1.419 . S
C357 C352 1.425 . S
C357 C354 1.409 1_545 S
C357 C355 1.415 . S
C358 H348 0.930 . S
C358 C356 1.419 . S
C358 C359 1.362 . S
C359 H349 0.930 . S
C359 C352 1.409 . S
C359 C358 1.362 . S
H360 C366 0.930 . S
H361 C369 0.930 . S
H362 C370 0.930 . S
H363 C371 0.930 . S
H364 C374 0.930 . S
H365 C375 0.930 . S
C366 H360 0.930 . S
C366 C367 1.355 . S
C366 C368 1.415 . S
C367 C366 1.355 . S
C367 C369 1.419 . S
C368 C366 1.415 . S
C368 C373 1.425 . S
C368 C375 1.409 . S
C369 H361 0.930 . S
C369 C367 1.419 . S
C369 C370 1.362 . S
C370 H362 0.930 . S
C370 C369 1.362 . S
C370 C373 1.409 . S
C371 H363 0.930 . S
C371 C372 1.355 . S
C371 C373 1.415 . S
C372 C371 1.355 . S
C372 C374 1.419 . S
C373 C368 1.425 . S
C373 C370 1.409 . S
C373 C371 1.415 . S
C374 H364 0.930 . S
C374 C372 1.419 . S
C374 C375 1.362 . S
C375 H365 0.930 . S
C375 C368 1.409 . S
C375 C374 1.362 . S
H376 C382 0.930 . S
H377 C385 0.930 . S
H378 C386 0.930 . S
H379 C387 0.930 . S
H380 C390 0.930 . S
H381 C391 0.930 . S
C382 H376 0.930 . S
C382 C383 1.355 . S
C382 C384 1.415 . S
C383 C382 1.355 . S
C383 C385 1.419 . S
C384 C382 1.415 . S
C384 C389 1.425 . S
C384 C391 1.409 . S
C385 H377 0.930 . S
C385 C383 1.419 . S
C385 C386 1.362 . S
C386 H378 0.930 . S
C386 C385 1.362 . S
C386 C389 1.409 . S
C387 H379 0.930 . S
C387 C388 1.355 . S
C387 C389 1.415 . S
C388 C387 1.355 . S
C388 C390 1.419 . S
C389 C384 1.425 . S
C389 C386 1.409 . S
C389 C387 1.415 . S
C390 H380 0.930 . S
C390 C388 1.419 . S
C390 C391 1.362 . S
C391 H381 0.930 . S
C391 C384 1.409 . S
C391 C390 1.362 . S
H392 C398 0.930 . S
H393 C401 0.930 . S
H394 C402 0.930 . S
H395 C403 0.930 . S
H396 C406 0.930 . S
H397 C407 0.930 1_455 S
C398 H392 0.930 . S
C398 C399 1.355 . S
C398 C400 1.415 . S
C399 C398 1.355 . S
C399 C401 1.419 . S
C400 C398 1.415 . S
C400 C405 1.425 . S
C400 C407 1.407 1_455 S
C401 H393 0.930 . S
C401 C399 1.419 . S
C401 C402 1.362 . S
C402 H394 0.930 . S
C402 C401 1.362 . S
C402 C405 1.409 . S
C403 H395 0.930 . S
C403 C404 1.355 . S
C403 C405 1.415 1_655 S
C404 C403 1.355 . S
C404 C406 1.419 . S
C405 C400 1.425 . S
C405 C402 1.409 . S
C405 C403 1.415 1_455 S
C406 H396 0.930 . S
C406 C404 1.419 . S
C406 C407 1.365 . S
C407 H397 0.930 1_655 S
C407 C400 1.407 1_655 S
C407 C406 1.365 . S
H408 C414 0.930 . S
H409 C417 0.930 . S
H410 C418 0.930 . S
H411 C419 0.930 . S
H412 C422 0.930 . S
H413 C423 0.930 . S
C414 H408 0.930 . S
C414 C415 1.355 . S
C414 C416 1.415 . S
C415 C414 1.355 . S
C415 C417 1.419 . S
C416 C414 1.415 . S
C416 C421 1.425 . S
C416 C423 1.409 . S
C417 H409 0.930 . S
C417 C415 1.419 . S
C417 C418 1.362 . S
C418 H410 0.930 . S
C418 C417 1.362 . S
C418 C421 1.409 . S
C419 H411 0.930 . S
C419 C420 1.355 . S
C419 C421 1.415 . S
C420 C419 1.355 . S
C420 C422 1.419 . S
C421 C416 1.425 . S
C421 C418 1.409 . S
C421 C419 1.415 . S
C422 H412 0.930 . S
C422 C420 1.419 . S
C422 C423 1.362 . S
C423 H413 0.930 . S
C423 C416 1.409 . S
C423 C422 1.362 . S
H424 C430 0.930 . S
H425 C433 0.930 . S
H426 C434 0.930 . S
H427 C435 0.930 . S
H428 C438 0.930 . S
H429 C439 0.930 . S
C430 H424 0.930 . S
C430 C431 1.355 1_455 S
C430 C432 1.415 . S
C431 C430 1.355 1_655 S
C431 C433 1.419 . S
C432 C430 1.415 . S
C432 C437 1.425 . S
C432 C439 1.409 . S
C433 H425 0.930 . S
C433 C431 1.419 . S
C433 C434 1.362 1_655 S
C434 H426 0.930 . S
C434 C433 1.362 1_455 S
C434 C437 1.409 . S
C435 H427 0.930 . S
C435 C436 1.355 . S
C435 C437 1.415 . S
C436 C435 1.355 . S
C436 C438 1.419 . S
C437 C432 1.425 . S
C437 C434 1.409 . S
C437 C435 1.415 . S
C438 H428 0.930 . S
C438 C436 1.419 . S
C438 C439 1.362 . S
C439 H429 0.930 . S
C439 C432 1.409 . S
C439 C438 1.362 . S
H440 C446 0.930 . S
H441 C449 0.930 . S
H442 C450 0.930 . S
H443 C451 0.930 . S
H444 C454 0.930 . S
H445 C455 0.930 . S
C446 H440 0.930 . S
C446 C447 1.355 . S
C446 C448 1.415 . S
C447 C446 1.355 . S
C447 C449 1.419 . S
C448 C446 1.415 . S
C448 C453 1.425 . S
C448 C455 1.409 . S
C449 H441 0.930 . S
C449 C447 1.419 . S
C449 C450 1.362 . S
C450 H442 0.930 . S
C450 C449 1.362 . S
C450 C453 1.409 . S
C451 H443 0.930 . S
C451 C452 1.355 . S
C451 C453 1.415 . S
C452 C451 1.355 . S
C452 C454 1.419 . S
C453 C448 1.425 . S
C453 C450 1.409 . S
C453 C451 1.415 . S
C454 H444 0.930 . S
C454 C452 1.419 . S
C454 C455 1.362 . S
C455 H445 0.930 . S
C455 C448 1.409 . S
C455 C454 1.362 . S
H456 C462 0.930 . S
H457 C465 0.930 . S
H458 C466 0.930 . S
H459 C467 0.930 . S
H460 C470 0.930 . S
H461 C471 0.930 . S
C462 H456 0.930 . S
C462 C463 1.355 . S
C462 C464 1.415 . S
C463 C462 1.355 . S
C463 C465 1.419 . S
C464 C462 1.415 . S
C464 C469 1.425 . S
C464 C471 1.409 . S
C465 H457 0.930 . S
C465 C463 1.419 . S
C465 C466 1.362 . S
C466 H458 0.930 . S
C466 C465 1.362 . S
C466 C469 1.409 . S
C467 H459 0.930 . S
C467 C468 1.355 . S
C467 C469 1.415 . S
C468 C467 1.355 . S
C468 C470 1.419 . S
C469 C464 1.425 . S
C469 C466 1.409 . S
C469 C467 1.415 . S
C470 H460 0.930 . S
C470 C468 1.419 . S
C470 C471 1.362 . S
C471 H461 0.930 . S
C471 C464 1.409 . S
C471 C470 1.362 . S
H472 C478 0.930 . S
H473 C481 0.930 . S
H474 C482 0.930 . S
H475 C483 0.930 . S
H476 C486 0.930 . S
H477 C487 0.930 . S
C478 H472 0.930 . S
C478 C479 1.355 . S
C478 C480 1.415 . S
C479 C478 1.355 . S
C479 C481 1.419 . S
C480 C478 1.415 . S
C480 C485 1.425 . S
C480 C487 1.409 . S
C481 H473 0.930 . S
C481 C479 1.419 . S
C481 C482 1.362 . S
C482 H474 0.930 . S
C482 C481 1.362 . S
C482 C485 1.409 . S
C483 H475 0.930 . S
C483 C484 1.355 . S
C483 C485 1.415 . S
C484 C483 1.355 . S
C484 C486 1.419 . S
C485 C480 1.425 . S
C485 C482 1.409 . S
C485 C483 1.415 . S
C486 H476 0.930 . S
C486 C484 1.419 . S
C486 C487 1.362 . S
C487 H477 0.930 . S
C487 C480 1.409 . S
C487 C486 1.362 . S
H488 C494 0.930 . S
H489 C497 0.930 . S
H490 C498 0.930 . S
H491 C499 0.930 . S
H492 C502 0.930 . S
H493 C503 0.930 . S
C494 H488 0.930 . S
C494 C495 1.355 . S
C494 C496 1.415 . S
C495 C494 1.355 . S
C495 C497 1.419 . S
C496 C494 1.415 . S
C496 C501 1.425 . S
C496 C503 1.409 . S
C497 H489 0.930 . S
C497 C495 1.419 . S
C497 C498 1.362 . S
C498 H490 0.930 . S
C498 C497 1.362 . S
C498 C501 1.409 . S
C499 H491 0.930 . S
C499 C500 1.355 . S
C499 C501 1.415 . S
C500 C499 1.355 . S
C500 C502 1.419 . S
C501 C496 1.425 . S
C501 C498 1.409 . S
C501 C499 1.415 . S
C502 H492 0.930 . S
C502 C500 1.419 . S
C502 C503 1.362 . S
C503 H493 0.930 . S
C503 C496 1.409 . S
C503 C502 1.362 . S
H504 C510 0.930 . S
H505 C513 0.930 . S
H506 C514 0.930 . S
H507 C515 0.930 . S
H508 C518 0.930 . S
H509 C519 0.930 . S
C510 H504 0.930 . S
C510 C511 1.355 . S
C510 C512 1.415 . S
C511 C510 1.355 . S
C511 C513 1.419 . S
C512 C510 1.415 . S
C512 C517 1.425 . S
C512 C519 1.409 . S
C513 H505 0.930 . S
C513 C511 1.419 . S
C513 C514 1.362 . S
C514 H506 0.930 . S
C514 C513 1.362 . S
C514 C517 1.409 . S
C515 H507 0.930 . S
C515 C516 1.355 . S
C515 C517 1.415 . S
C516 C515 1.355 . S
C516 C518 1.419 . S
C517 C512 1.425 . S
C517 C514 1.409 . S
C517 C515 1.415 . S
C518 H508 0.930 . S
C518 C516 1.419 . S
C518 C519 1.362 . S
C519 H509 0.930 . S
C519 C512 1.409 . S
C519 C518 1.362 . S
H520 C526 0.930 . S
H521 C529 0.930 . S
H522 C530 0.930 . S
H523 C531 0.930 . S
H524 C534 0.930 . S
H525 C535 0.930 . S
C526 H520 0.930 . S
C526 C527 1.355 . S
C526 C528 1.415 . S
C527 C526 1.355 . S
C527 C529 1.419 . S
C528 C526 1.415 . S
C528 C533 1.425 . S
C528 C535 1.409 . S
C529 H521 0.930 . S
C529 C527 1.419 . S
C529 C530 1.362 . S
C530 H522 0.930 . S
C530 C529 1.362 . S
C530 C533 1.409 . S
C531 H523 0.930 . S
C531 C532 1.355 . S
C531 C533 1.415 . S
C532 C531 1.355 . S
C532 C534 1.419 . S
C533 C528 1.425 . S
C533 C530 1.409 . S
C533 C531 1.415 . S
C534 H524 0.930 . S
C534 C532 1.419 . S
C534 C535 1.362 . S
C535 H525 0.930 . S
C535 C528 1.409 . S
C535 C534 1.362 . S
H536 C542 0.930 . S
H537 C545 0.930 . S
H538 C546 0.930 . S
H539 C547 0.930 . S
H540 C550 0.930 . S
H541 C551 0.930 . S
C542 H536 0.930 . S
C542 C543 1.355 . S
C542 C544 1.415 . S
C543 C542 1.355 . S
C543 C545 1.419 . S
C544 C542 1.415 . S
C544 C549 1.425 . S
C544 C551 1.409 . S
C545 H537 0.930 . S
C545 C543 1.419 . S
C545 C546 1.362 . S
C546 H538 0.930 . S
C546 C545 1.362 . S
C546 C549 1.409 . S
C547 H539 0.930 . S
C547 C548 1.355 . S
C547 C549 1.415 . S
C548 C547 1.355 . S
C548 C550 1.419 . S
C549 C544 1.425 . S
C549 C546 1.409 . S
C549 C547 1.415 . S
C550 H540 0.930 . S
C550 C548 1.419 . S
C550 C551 1.362 . S
C551 H541 0.930 . S
C551 C544 1.409 . S
C551 C550 1.362 . S
H552 C558 0.930 . S
H553 C561 0.930 . S
H554 C562 0.930 . S
H555 C563 0.930 . S
H556 C566 0.930 . S
H557 C567 0.930 . S
C558 H552 0.930 . S
C558 C559 1.355 . S
C558 C560 1.415 . S
C559 C558 1.355 . S
C559 C561 1.419 . S
C560 C558 1.415 . S
C560 C565 1.425 . S
C560 C567 1.409 . S
C561 H553 0.930 . S
C561 C559 1.419 . S
C561 C562 1.362 . S
C562 H554 0.930 . S
C562 C561 1.362 . S
C562 C565 1.409 . S
C563 H555 0.930 . S
C563 C564 1.355 . S
C563 C565 1.415 . S
C564 C563 1.355 . S
C564 C566 1.419 . S
C565 C560 1.425 . S
C565 C562 1.409 . S
C565 C563 1.415 . S
C566 H556 0.930 . S
C566 C564 1.419 . S
C566 C567 1.362 . S
C567 H557 0.930 . S
C567 C560 1.409 . S
C567 C566 1.362 . S
C191 C7 1.395 . S
C196 C97 1.381 . S
C207 C37 1.422 . S
C212 C109 1.444 . S
C223 C54 1.373 . S
C228 C121 1.373 . S
C244 C130 1.324 . S
C239 C87 1.340 . S
C260 C145 1.272 . S
C255 C30 1.402 . S
C271 C51 1.346 . S
C276 C154 1.326 . S
C287 C84 1.377 . S
C292 C169 1.374 . S
C303 C10 1.446 . S
C308 C181 1.442 . S
C319 C59 1.347 . S
C324 C178 1.275 . S
C340 C142 1.305 . S
C335 C74 1.274 . S
C356 C157 1.354 . S
C351 C18 1.379 . S
C367 C32 1.322 . S
C372 C166 1.283 . S
C388 C106 1.301 . S
C383 C73 1.263 . S
C399 C15 1.342 . S
C404 C118 1.327 . S
C420 C133 1.363 . S
C415 C43 1.416 . S
C436 C94 1.298 . S
C431 C62 1.291 . S
C452 C164 1.395 . S
C447 C21 1.375 . S
C468 C176 1.392 . S
C463 C29 1.449 . S
C479 C52 1.408 . S
C484 C140 1.390 . S
C500 C152 1.359 . S
C495 C81 1.403 . S
C516 C116 1.402 . S
C511 C40 1.401 . S
C527 C65 1.406 . S
C532 C128 1.409 . S
C548 C92 1.416 . S
C543 C76 1.420 . S
C564 C104 1.416 . S
C559 C8 1.415 . S
