# Generated by pormake.
# Topology pto, (3,4)-cn, num edge types: 1
# Building blocks:
#     Node 0, Type 0, BuildingBlock: ESEHIV_clean_linker_0, # of connection points: 3
#     Node 1, Type 0, BuildingBlock: ESEHIV_clean_linker_0, # of connection points: 3
#     Node 2, Type 0, BuildingBlock: ESEHIV_clean_linker_0, # of connection points: 3
#     Node 3, Type 0, BuildingBlock: ESEHIV_clean_linker_0, # of connection points: 3
#     Node 4, Type 0, BuildingBlock: ESEHIV_clean_linker_0, # of connection points: 3
#     Node 5, Type 0, BuildingBlock: ESEHIV_clean_linker_0, # of connection points: 3
#     Node 6, Type 0, BuildingBlock: ESEHIV_clean_linker_0, # of connection points: 3
#     Node 7, Type 0, BuildingBlock: ESEHIV_clean_linker_0, # of connection points: 3
#     Node 8, Type 1, BuildingBlock: KOZSID_clean_sbu_0, # of connection points: 4
#     Node 9, Type 1, BuildingBlock: KOZSID_clean_sbu_0, # of connection points: 4
#     Node 10, Type 1, BuildingBlock: KOZSID_clean_sbu_0, # of connection points: 4
#     Node 11, Type 1, BuildingBlock: KOZSID_clean_sbu_0, # of connection points: 4
#     Node 12, Type 1, BuildingBlock: KOZSID_clean_sbu_0, # of connection points: 4
#     Node 13, Type 1, BuildingBlock: KOZSID_clean_sbu_0, # of connection points: 4
#     Edge 14, Type (0, 1), BuildingBlock: KIFKEQ_clean_linker_1, # of connection points: 2
#     Edge 15, Type (0, 1), BuildingBlock: KIFKEQ_clean_linker_1, # of connection points: 2
#     Edge 16, Type (0, 1), BuildingBlock: KIFKEQ_clean_linker_1, # of connection points: 2
#     Edge 17, Type (0, 1), BuildingBlock: KIFKEQ_clean_linker_1, # of connection points: 2
#     Edge 18, Type (0, 1), BuildingBlock: KIFKEQ_clean_linker_1, # of connection points: 2
#     Edge 19, Type (0, 1), BuildingBlock: KIFKEQ_clean_linker_1, # of connection points: 2
#     Edge 20, Type (0, 1), BuildingBlock: KIFKEQ_clean_linker_1, # of connection points: 2
#     Edge 21, Type (0, 1), BuildingBlock: KIFKEQ_clean_linker_1, # of connection points: 2
#     Edge 22, Type (0, 1), BuildingBlock: KIFKEQ_clean_linker_1, # of connection points: 2
#     Edge 23, Type (0, 1), BuildingBlock: KIFKEQ_clean_linker_1, # of connection points: 2
#     Edge 24, Type (0, 1), BuildingBlock: KIFKEQ_clean_linker_1, # of connection points: 2
#     Edge 25, Type (0, 1), BuildingBlock: KIFKEQ_clean_linker_1, # of connection points: 2
#     Edge 26, Type (0, 1), BuildingBlock: KIFKEQ_clean_linker_1, # of connection points: 2
#     Edge 27, Type (0, 1), BuildingBlock: KIFKEQ_clean_linker_1, # of connection points: 2
#     Edge 28, Type (0, 1), BuildingBlock: KIFKEQ_clean_linker_1, # of connection points: 2
#     Edge 29, Type (0, 1), BuildingBlock: KIFKEQ_clean_linker_1, # of connection points: 2
#     Edge 30, Type (0, 1), BuildingBlock: KIFKEQ_clean_linker_1, # of connection points: 2
#     Edge 31, Type (0, 1), BuildingBlock: KIFKEQ_clean_linker_1, # of connection points: 2
#     Edge 32, Type (0, 1), BuildingBlock: KIFKEQ_clean_linker_1, # of connection points: 2
#     Edge 33, Type (0, 1), BuildingBlock: KIFKEQ_clean_linker_1, # of connection points: 2
#     Edge 34, Type (0, 1), BuildingBlock: KIFKEQ_clean_linker_1, # of connection points: 2
#     Edge 35, Type (0, 1), BuildingBlock: KIFKEQ_clean_linker_1, # of connection points: 2
#     Edge 36, Type (0, 1), BuildingBlock: KIFKEQ_clean_linker_1, # of connection points: 2
#     Edge 37, Type (0, 1), BuildingBlock: KIFKEQ_clean_linker_1, # of connection points: 2
# Relax obj value: 0.000
# Max RMSD: 0.029
# Mean RMSD: 0.012
data_MOF--net-pto--node1-KOZSID_clean_sbu_0--node2-ESEHIV_clean_linker_0--edge1-KIFKEQ_clean_linker_1
_symmetry_space_group_name_H-M    P1
_symmetry_Int_Tables_number       1
_symmetry_cell_setting            triclinic
loop_
_symmetry_equiv_pos_as_xyz
'x, y, z'
_cell_length_a     37.328461
_cell_length_b     50.236319
_cell_length_c     43.855986
_cell_angle_alpha  87.529665
_cell_angle_beta   86.648511
_cell_angle_gamma 93.188175
loop_
_atom_site_label
_atom_site_type_symbol
_atom_site_fract_x
_atom_site_fract_y
_atom_site_fract_z
_atom_type_partial_charge
H0 H 0.27779 0.29787 0.27989 0.0
H1 H 0.30456 0.21806 0.30421 0.0
H2 H 0.22566 0.25666 0.35975 0.0
C3 C 0.27455 0.2804 0.29541 0.0
C4 C 0.2501 0.2802 0.32103 0.0
C5 C 0.29378 0.25789 0.28891 0.0
C6 C 0.28872 0.23506 0.30865 0.0
C7 C 0.26418 0.23425 0.33436 0.0
C8 C 0.24486 0.25698 0.34023 0.0
H9 H 0.25621 0.73452 0.77892 0.0
H10 H 0.28781 0.8159 0.75209 0.0
H11 H 0.21061 0.77223 0.70145 0.0
C12 C 0.25401 0.75183 0.76372 0.0
C13 C 0.23045 0.75044 0.73985 0.0
C14 C 0.27469 0.77534 0.76839 0.0
C15 C 0.27201 0.7977 0.7485 0.0
C16 C 0.24927 0.79679 0.72402 0.0
C17 C 0.22843 0.77306 0.72002 0.0
H18 H 0.74486 0.81163 0.30228 0.0
H19 H 0.81963 0.771 0.35606 0.0
H20 H 0.77689 0.73389 0.27842 0.0
C21 C 0.76035 0.79441 0.3066 0.0
C22 C 0.75783 0.77274 0.28743 0.0
C23 C 0.78275 0.79409 0.3313 0.0
C24 C 0.8028 0.77168 0.33675 0.0
C25 C 0.80037 0.74972 0.31804 0.0
C26 C 0.77791 0.75045 0.29344 0.0
H27 H 0.74594 0.23226 0.77439 0.0
H28 H 0.82168 0.27866 0.71295 0.0
H29 H 0.7792 0.31235 0.79509 0.0
C30 C 0.76146 0.25078 0.76822 0.0
C31 C 0.75953 0.27216 0.78773 0.0
C32 C 0.78405 0.25281 0.74131 0.0
C33 C 0.80489 0.27669 0.73402 0.0
C34 C 0.80322 0.29837 0.75322 0.0
C35 C 0.78056 0.29581 0.78008 0.0
H36 H 0.73719 0.8203 0.76114 0.0
H37 H 0.76561 0.74095 0.7854 0.0
H38 H 0.81314 0.78127 0.70308 0.0
C39 C 0.7522 0.80305 0.75592 0.0
C40 C 0.77514 0.80354 0.72922 0.0
C41 C 0.74842 0.78049 0.77612 0.0
C42 C 0.76834 0.75832 0.76973 0.0
C43 C 0.79223 0.75854 0.7437 0.0
C44 C 0.79508 0.7811 0.72334 0.0
H45 H 0.75791 0.22095 0.30995 0.0
H46 H 0.789 0.30273 0.28384 0.0
H47 H 0.82923 0.26602 0.36458 0.0
C48 C 0.77284 0.23944 0.31411 0.0
C49 C 0.7941 0.24076 0.33945 0.0
C50 C 0.7707 0.26178 0.29409 0.0
C51 C 0.79032 0.28558 0.29951 0.0
C52 C 0.81149 0.28745 0.32492 0.0
C53 C 0.81309 0.26489 0.34488 0.0
H54 H 0.22167 0.26694 0.7091 0.0
H55 H 0.29731 0.22665 0.76228 0.0
H56 H 0.26461 0.30412 0.78661 0.0
C57 C 0.23864 0.26632 0.72831 0.0
C58 C 0.24102 0.28825 0.74707 0.0
C59 C 0.25899 0.24402 0.73357 0.0
C60 C 0.28158 0.24377 0.75814 0.0
C61 C 0.284 0.26539 0.77739 0.0
C62 C 0.26365 0.28757 0.77156 0.0
H63 H 0.21512 0.7612 0.34853 0.0
H64 H 0.26374 0.72683 0.26924 0.0
H65 H 0.29416 0.80743 0.28996 0.0
C66 C 0.2337 0.76291 0.32853 0.0
C67 C 0.25377 0.78715 0.32131 0.0
C68 C 0.2374 0.74088 0.31009 0.0
C69 C 0.26151 0.74338 0.28415 0.0
C70 C 0.28194 0.76732 0.27662 0.0
C71 C 0.27784 0.78911 0.29529 0.0
C72 C 0.07561 0.55359 0.3681 0.0
C73 C 0.08551 0.56256 0.39609 0.0
C74 C 0.06553 0.54736 0.41808 0.0
C75 C 0.04449 0.53017 0.40237 0.0
N76 N 0.05022 0.53311 0.37164 0.0
Co77 Co 0.02315 0.51386 0.34016 0.0
N78 N 0.9917 0.49298 0.37256 0.0
C79 C 0.99319 0.49443 0.4032 0.0
C80 C 0.96994 0.47645 0.4197 0.0
C81 C 0.95294 0.46232 0.39837 0.0
C82 C 0.96671 0.47267 0.36993 0.0
N83 N 0.99566 0.49507 0.30864 0.0
C84 C 0.96959 0.47511 0.31213 0.0
C85 C 0.95752 0.46771 0.2842 0.0
C86 C 0.97734 0.48305 0.26221 0.0
C87 C 1.00009 0.49901 0.2779 0.0
N88 N 0.05503 0.53423 0.30774 0.0
C89 C 0.05474 0.53188 0.27712 0.0
C90 C 0.07972 0.54862 0.26069 0.0
C91 C 0.09663 0.56282 0.28203 0.0
C92 C 0.08071 0.554 0.31034 0.0
N93 N 0.05737 0.48492 0.34065 0.0
C94 C 0.10348 0.44226 0.34105 0.0
C95 C 0.09196 0.45303 0.31367 0.0
C96 C 0.06918 0.47411 0.314 0.0
C97 C 0.09179 0.45341 0.36827 0.0
C98 C 0.06905 0.47463 0.36755 0.0
N99 N 0.98901 0.54287 0.3396 0.0
C100 C 0.96103 0.57788 0.3117 0.0
C101 C 0.94587 0.58719 0.33876 0.0
C102 C 0.95157 0.57338 0.36621 0.0
C103 C 0.97317 0.55148 0.36612 0.0
C104 C 0.98204 0.55579 0.31261 0.0
H105 H 0.97716 0.54215 0.38783 0.0
H106 H 0.99275 0.54982 0.29115 0.0
H107 H 0.06116 0.48106 0.29235 0.0
H108 H 0.06109 0.48225 0.38903 0.0
C109 C 0.01793 0.512 0.41577 0.0
C110 C 0.08951 0.56608 0.33881 0.0
C111 C 0.95675 0.46164 0.34116 0.0
C112 C 0.02828 0.5158 0.26441 0.0
H113 H 0.10448 0.57887 0.40027 0.0
H114 H 0.06553 0.54918 0.44258 0.0
H115 H 0.96655 0.47343 0.44431 0.0
H116 H 0.93333 0.4458 0.4033 0.0
H117 H 0.93719 0.45227 0.28012 0.0
H118 H 0.97623 0.48199 0.23768 0.0
H119 H 0.08415 0.55095 0.23609 0.0
H120 H 0.11758 0.57848 0.27727 0.0
H121 H 0.09982 0.44487 0.29198 0.0
H122 H 0.10032 0.44595 0.39006 0.0
H123 H 0.9567 0.58761 0.2898 0.0
H124 H 0.94029 0.57988 0.38778 0.0
C125 C 0.07142 0.56314 0.75274 0.0
C126 C 0.08115 0.57128 0.78116 0.0
C127 C 0.06088 0.5557 0.80259 0.0
C128 C 0.03976 0.53913 0.78625 0.0
N129 N 0.0456 0.54292 0.75556 0.0
Co130 Co 0.01875 0.52443 0.72334 0.0
N131 N 0.98605 0.50388 0.75506 0.0
C132 C 0.98571 0.50585 0.78575 0.0
C133 C 0.96057 0.48886 0.80163 0.0
C134 C 0.94424 0.47485 0.77984 0.0
C135 C 0.96062 0.48405 0.75184 0.0
N136 N 0.99222 0.50565 0.69118 0.0
C137 C 0.96664 0.48527 0.6941 0.0
C138 C 0.95701 0.4768 0.66584 0.0
C139 C 0.97745 0.49219 0.64428 0.0
C140 C 0.99842 0.509 0.66052 0.0
N141 N 0.05113 0.54528 0.69165 0.0
C142 C 0.05077 0.54379 0.66094 0.0
C143 C 0.07559 0.56099 0.645 0.0
C144 C 0.09239 0.5747 0.66679 0.0
C145 C 0.07659 0.56512 0.69487 0.0
N146 N 0.05254 0.4952 0.72428 0.0
C147 C 0.09546 0.45076 0.72575 0.0
C148 C 0.08958 0.46419 0.6981 0.0
C149 C 0.0681 0.48615 0.69788 0.0
C150 C 0.08051 0.46048 0.75267 0.0
C151 C 0.05961 0.48263 0.75144 0.0
N152 N 0.98496 0.55367 0.72246 0.0
C153 C 0.95364 0.58694 0.69448 0.0
C154 C 0.94264 0.59845 0.72165 0.0
C155 C 0.95188 0.5865 0.74918 0.0
C156 C 0.97262 0.56428 0.74906 0.0
C157 C 0.97472 0.56473 0.6954 0.0
H158 H 0.97875 0.55637 0.77085 0.0
H159 H 0.98296 0.55719 0.67393 0.0
H160 H 0.06398 0.49516 0.67604 0.0
H161 H 0.04908 0.48896 0.7728 0.0
C162 C 0.01149 0.52207 0.79904 0.0
C163 C 0.08573 0.57629 0.7238 0.0
C164 C 0.95244 0.47231 0.72305 0.0
C165 C 0.02581 0.52681 0.64773 0.0
H166 H 0.09994 0.58742 0.78614 0.0
H167 H 0.06036 0.55718 0.82716 0.0
H168 H 0.95561 0.48629 0.82618 0.0
H169 H 0.92335 0.45908 0.7841 0.0
H170 H 0.93798 0.46067 0.66121 0.0
H171 H 0.97789 0.49064 0.61972 0.0
H172 H 0.08033 0.56367 0.62044 0.0
H173 H 0.11339 0.59037 0.66248 0.0
H174 H 0.10066 0.45736 0.67663 0.0
H175 H 0.08496 0.45104 0.7747 0.0
H176 H 0.94696 0.59549 0.67258 0.0
H177 H 0.94323 0.59433 0.77087 0.0
C178 C 0.27692 0.97444 0.57195 0.0
C179 C 0.31009 0.96548 0.57918 0.0
C180 C 0.33555 0.98086 0.56196 0.0
C181 C 0.31668 0.99811 0.54502 0.0
N182 N 0.2806 0.99492 0.55055 0.0
Co183 Co 0.2431 0.01433 0.52891 0.0
N184 N 0.28072 0.036 0.50247 0.0
C185 C 0.3168 0.03464 0.50286 0.0
C186 C 0.33583 0.05216 0.48236 0.0
C187 C 0.31046 0.06589 0.46831 0.0
C188 C 0.27726 0.05602 0.48129 0.0
N189 N 0.2056 0.03341 0.50688 0.0
C190 C 0.20922 0.05375 0.48532 0.0
C191 C 0.176 0.06189 0.47711 0.0
C192 C 0.15056 0.04614 0.49395 0.0
C193 C 0.1695 0.02945 0.51157 0.0
N194 N 0.2055 0.99301 0.55573 0.0
C195 C 0.16949 0.99497 0.55595 0.0
C196 C 0.15048 0.97803 0.57709 0.0
C197 C 0.1758 0.96417 0.59107 0.0
C198 C 0.20894 0.97335 0.57737 0.0
N199 N 0.24442 0.04257 0.55929 0.0
C200 C 0.24687 0.08539 0.59891 0.0
C201 C 0.2141 0.07443 0.58997 0.0
C202 C 0.2135 0.05318 0.5704 0.0
C203 C 0.2783 0.074 0.58834 0.0
C204 C 0.27648 0.05279 0.5688 0.0
N205 N 0.24182 0.98612 0.49845 0.0
C206 C 0.20874 0.95275 0.47131 0.0
C207 C 0.24054 0.94436 0.45739 0.0
C208 C 0.27289 0.95751 0.46405 0.0
C209 C 0.27291 0.9781 0.48442 0.0
C210 C 0.20997 0.97357 0.49147 0.0
H211 H 0.29853 0.98697 0.48867 0.0
H212 H 0.18481 0.97903 0.50127 0.0
H213 H 0.1877 0.04599 0.56423 0.0
H214 H 0.30142 0.0452 0.56145 0.0
C215 C 0.33203 0.0168 0.52291 0.0
C216 C 0.24272 0.96221 0.58514 0.0
C217 C 0.24336 0.06682 0.47321 0.0
C218 C 0.15423 0.01176 0.53476 0.0
H219 H 0.3155 0.94913 0.59478 0.0
H220 H 0.36438 0.97923 0.5613 0.0
H221 H 0.36472 0.0548 0.47832 0.0
H222 H 0.31584 0.08161 0.45071 0.0
H223 H 0.17053 0.07804 0.46127 0.0
H224 H 0.12169 0.04742 0.49419 0.0
H225 H 0.1216 0.97565 0.58139 0.0
H226 H 0.17042 0.94874 0.609 0.0
H227 H 0.18896 0.08259 0.59736 0.0
H228 H 0.30434 0.08135 0.59512 0.0
H229 H 0.18292 0.94343 0.46655 0.0
H230 H 0.29832 0.95158 0.45412 0.0
C231 C 0.46465 0.8022 0.07306 0.0
C232 C 0.45516 0.82664 0.08372 0.0
C233 C 0.4756 0.84579 0.06665 0.0
C234 C 0.4965 0.83205 0.04681 0.0
N235 N 0.49037 0.80524 0.04981 0.0
Co236 Co 0.51711 0.77776 0.0273 0.0
N237 N 0.54796 0.80601 0.00285 0.0
C238 C 0.54574 0.83274 0.00399 0.0
C239 C 0.56863 0.84715 0.98312 0.0
C240 C 0.58627 0.82853 0.96734 0.0
C241 C 0.57325 0.80372 0.97976 0.0
N242 N 0.54475 0.75025 0.00571 0.0
C243 C 0.57142 0.75324 0.98328 0.0
C244 C 0.58389 0.72883 0.97519 0.0
C245 C 0.56386 0.70969 0.99267 0.0
C246 C 0.54062 0.72344 0.01054 0.0
N247 N 0.48537 0.7495 0.05082 0.0
C248 C 0.48553 0.72282 0.04782 0.0
C249 C 0.46023 0.70846 0.06669 0.0
C250 C 0.44303 0.72705 0.08289 0.0
C251 C 0.4591 0.75177 0.07308 0.0
N252 N 0.48239 0.77813 0.99462 0.0
C253 C 0.43512 0.77875 0.94661 0.0
C254 C 0.44955 0.75509 0.95672 0.0
C255 C 0.47266 0.75519 0.98061 0.0
C256 C 0.44456 0.80208 0.96127 0.0
C257 C 0.46809 0.80135 0.98492 0.0
N258 N 0.5518 0.77734 0.05999 0.0
C259 C 0.58087 0.75333 0.09971 0.0
C260 C 0.59816 0.77687 0.10851 0.0
C261 C 0.59244 0.80061 0.09221 0.0
C262 C 0.56925 0.80041 0.06829 0.0
C263 C 0.5582 0.75398 0.07552 0.0
H264 H 0.56558 0.81922 0.05711 0.0
H265 H 0.54598 0.73531 0.06998 0.0
H266 H 0.48257 0.73646 0.98709 0.0
H267 H 0.47439 0.81986 0.99489 0.0
C268 C 0.52194 0.84372 0.025 0.0
C269 C 0.44938 0.77666 0.08644 0.0
C270 C 0.58482 0.77857 0.96815 0.0
C271 C 0.51221 0.71175 0.02956 0.0
H272 H 0.43585 0.8303 0.10221 0.0
H273 H 0.47556 0.86719 0.06872 0.0
H274 H 0.57176 0.86862 0.97951 0.0
H275 H 0.60606 0.83283 0.94851 0.0
H276 H 0.60476 0.7252 0.95793 0.0
H277 H 0.56527 0.68828 0.99174 0.0
H278 H 0.45566 0.68699 0.06911 0.0
H279 H 0.42161 0.72286 0.10045 0.0
H280 H 0.44364 0.73649 0.94594 0.0
H281 H 0.43371 0.8209 0.95472 0.0
H282 H 0.58496 0.73436 0.11132 0.0
H283 H 0.60513 0.8194 0.09831 0.0
C284 C 0.82649 0.98484 0.58132 0.0
C285 C 0.85916 0.97797 0.59207 0.0
C286 C 0.88519 0.99366 0.57583 0.0
C287 C 0.86705 0.00933 0.55636 0.0
N288 N 0.83091 0.0048 0.55936 0.0
Co289 Co 0.79436 0.02361 0.53598 0.0
N290 N 0.83287 0.04496 0.5102 0.0
C291 C 0.86881 0.04297 0.51101 0.0
C292 C 0.88856 0.05985 0.49026 0.0
C293 C 0.86381 0.07365 0.47543 0.0
C294 C 0.83024 0.0645 0.48826 0.0
N295 N 0.75778 0.043 0.51317 0.0
C296 C 0.76224 0.06351 0.49187 0.0
C297 C 0.72943 0.07255 0.48375 0.0
C298 C 0.70339 0.05717 0.50031 0.0
C299 C 0.7216 0.03986 0.51777 0.0
N300 N 0.75585 1.00164 0.56117 0.0
C301 C 0.7199 0.00241 0.55896 0.0
C302 C 0.70016 0.98365 0.5774 0.0
C303 C 0.7249 0.96979 0.59208 0.0
C304 C 0.75853 0.98114 0.58195 0.0
N305 N 0.79395 0.05182 0.56642 0.0
C306 C 0.79276 0.09461 0.60608 0.0
C307 C 0.76107 0.08038 0.59964 0.0
C308 C 0.76227 0.05923 0.58002 0.0
C309 C 0.82518 0.08649 0.59303 0.0
C310 C 0.82517 0.06521 0.57352 0.0
N311 N 0.79474 0.99543 0.50554 0.0
C312 C 0.76277 0.96497 0.47398 0.0
C313 C 0.79453 0.95313 0.46522 0.0
C314 C 0.82653 0.96325 0.47648 0.0
C315 C 0.82605 0.98427 0.49634 0.0
C316 C 0.76349 0.98591 0.49391 0.0
H317 H 0.85132 0.99099 0.50414 0.0
H318 H 0.73831 0.99382 0.49988 0.0
H319 H 0.73715 0.04939 0.57599 0.0
H320 H 0.85073 0.06025 0.5641 0.0
C321 C 0.88323 0.02669 0.53322 0.0
C322 C 0.7922 0.97118 0.59194 0.0
C323 C 0.79683 0.07562 0.47948 0.0
C324 C 0.70549 0.02064 0.53888 0.0
H325 H 0.86376 0.96278 0.60944 0.0
H326 H 0.91398 0.99317 0.5774 0.0
H327 H 0.91753 0.06233 0.48687 0.0
H328 H 0.86983 0.08907 0.45757 0.0
H329 H 0.72466 0.08886 0.46788 0.0
H330 H 0.67459 0.05871 0.50005 0.0
H331 H 0.67123 0.98011 0.57944 0.0
H332 H 0.7187 0.95289 0.608 0.0
H333 H 0.7353 0.08548 0.60972 0.0
H334 H 0.85049 0.09691 0.59718 0.0
H335 H 0.73719 0.95774 0.46611 0.0
H336 H 0.85195 0.95508 0.46994 0.0
C337 C 0.47122 0.28533 0.0822 0.0
C338 C 0.45878 0.30965 0.09064 0.0
C339 C 0.47848 0.32893 0.0731 0.0
C340 C 0.50151 0.31534 0.05486 0.0
N341 N 0.49755 0.28851 0.05949 0.0
Co342 Co 0.52503 0.2612 0.0374 0.0
N343 N 0.55638 0.28966 0.01382 0.0
C344 C 0.55593 0.31634 0.01681 0.0
C345 C 0.58086 0.33086 0.99776 0.0
C346 C 0.5982 0.31238 0.98147 0.0
C347 C 0.58259 0.28758 0.99146 0.0
N348 N 0.55169 0.23391 0.0145 0.0
C349 C 0.57759 0.23715 0.99141 0.0
C350 C 0.58743 0.21282 0.98071 0.0
C351 C 0.56696 0.19351 0.99753 0.0
C352 C 0.54575 0.20708 0.01733 0.0
N353 N 0.49453 0.23274 0.06185 0.0
C354 C 0.49671 0.20603 0.06036 0.0
C355 C 0.47405 0.19146 0.08128 0.0
C356 C 0.4566 0.20994 0.09743 0.0
C357 C 0.46949 0.23485 0.0852 0.0
N358 N 0.48994 0.26168 0.00499 0.0
C359 C 0.44342 0.26215 0.95656 0.0
C360 C 0.44951 0.23837 0.97262 0.0
C361 C 0.47275 0.23858 0.99649 0.0
C362 C 0.46035 0.28574 0.96561 0.0
C363 C 0.48309 0.28509 0.98977 0.0
N364 N 0.56015 0.26073 0.06974 0.0
C365 C 0.59821 0.23657 0.10267 0.0
C366 C 0.60831 0.25989 0.11706 0.0
C367 C 0.59409 0.28367 0.10705 0.0
C368 C 0.57047 0.28366 0.08351 0.0
C369 C 0.57427 0.23742 0.07936 0.0
H370 H 0.56067 0.30246 0.07706 0.0
H371 H 0.5675 0.21892 0.06956 0.0
H372 H 0.47669 0.21973 0.00745 0.0
H373 H 0.49502 0.30379 0.9955 0.0
C374 C 0.52948 0.32722 0.0355 0.0
C375 C 0.45807 0.25989 0.09721 0.0
C376 C 0.59279 0.26275 0.97828 0.0
C377 C 0.52042 0.19522 0.03913 0.0
H378 H 0.43813 0.31313 0.10814 0.0
H379 H 0.47697 0.35032 0.07421 0.0
H380 H 0.58519 0.35235 0.99535 0.0
H381 H 0.61944 0.3167 0.96378 0.0
H382 H 0.6071 0.20937 0.9624 0.0
H383 H 0.56729 0.17214 0.99541 0.0
H384 H 0.47098 0.16997 0.08468 0.0
H385 H 0.43702 0.2055 0.11639 0.0
H386 H 0.43709 0.21955 0.96634 0.0
H387 H 0.45595 0.30474 0.9542 0.0
H388 H 0.60888 0.21767 0.10914 0.0
H389 H 0.60058 0.30227 0.11765 0.0
H390 H 0.27541 0.33242 0.31766 0.0
H391 H 0.17858 0.28222 0.33839 0.0
H392 H 0.24148 0.37196 0.3251 0.0
H393 H 0.14457 0.32179 0.34574 0.0
H394 H 0.0991 0.39803 0.38027 0.0
H395 H 0.13588 0.35934 0.37832 0.0
H396 H 0.19666 0.39547 0.29882 0.0
H397 H 0.16088 0.43444 0.30147 0.0
C398 C 0.24684 0.32984 0.32374 0.0
C399 C 0.22966 0.30418 0.32725 0.0
C400 C 0.22739 0.3525 0.328 0.0
C401 C 0.19026 0.35007 0.33585 0.0
C402 C 0.17322 0.32438 0.34009 0.0
C403 C 0.19271 0.30169 0.33584 0.0
C404 C 0.1207 0.39788 0.36269 0.0
C405 C 0.12697 0.41929 0.34096 0.0
C406 C 0.14151 0.37557 0.36136 0.0
C407 C 0.16914 0.37424 0.33835 0.0
C408 C 0.17585 0.39592 0.31704 0.0
C409 C 0.15505 0.41816 0.31834 0.0
H410 H 0.21061 0.72841 0.68625 0.0
H411 H 0.1991 0.71522 0.78461 0.0
H412 H 0.17525 0.68662 0.68051 0.0
H413 H 0.1661 0.67284 0.7784 0.0
H414 H 0.1524 0.58462 0.74541 0.0
H415 H 0.18711 0.62734 0.74815 0.0
H416 H 0.10468 0.66777 0.7028 0.0
H417 H 0.06919 0.62516 0.7013 0.0
C418 C 0.20052 0.71683 0.70664 0.0
C419 C 0.20816 0.72529 0.73593 0.0
C420 C 0.18053 0.69281 0.70326 0.0
C421 C 0.16843 0.67653 0.72902 0.0
C422 C 0.17566 0.68494 0.7582 0.0
C423 C 0.19485 0.70916 0.76165 0.0
C424 C 0.14174 0.60269 0.73617 0.0
C425 C 0.10797 0.60183 0.72366 0.0
C426 C 0.16154 0.627 0.73765 0.0
C427 C 0.14837 0.6507 0.72577 0.0
C428 C 0.11532 0.6497 0.71204 0.0
C429 C 0.09511 0.62545 0.71123 0.0
H430 H 0.7771 0.69714 0.3191 0.0
H431 H 0.87135 0.74884 0.33009 0.0
H432 H 0.81249 0.6581 0.32625 0.0
H433 H 0.90667 0.70978 0.3376 0.0
H434 H 0.9633 0.63447 0.30716 0.0
H435 H 0.92806 0.67389 0.30435 0.0
H436 H 0.84591 0.63429 0.36642 0.0
H437 H 0.88112 0.59462 0.36897 0.0
C438 C 0.80537 0.70013 0.32313 0.0
C439 C 0.82151 0.72603 0.32389 0.0
C440 C 0.82553 0.67779 0.3275 0.0
C441 C 0.86236 0.68088 0.33243 0.0
C442 C 0.8784 0.70679 0.3336 0.0
C443 C 0.85814 0.72913 0.32954 0.0
C444 C 0.93768 0.63417 0.32016 0.0
C445 C 0.92485 0.61142 0.33815 0.0
C446 C 0.91768 0.65683 0.31878 0.0
C447 C 0.88423 0.65718 0.33516 0.0
C448 C 0.87149 0.63451 0.35338 0.0
C449 C 0.89173 0.61191 0.35502 0.0
H450 H 0.78238 0.34941 0.75859 0.0
H451 H 0.8732 0.30484 0.7301 0.0
H452 H 0.81883 0.39092 0.74914 0.0
H453 H 0.90932 0.34653 0.71923 0.0
H454 H 0.97322 0.42383 0.74227 0.0
H455 H 0.93721 0.3815 0.74718 0.0
H456 H 0.84799 0.42049 0.7098 0.0
H457 H 0.88398 0.46292 0.70595 0.0
C458 C 0.81012 0.34847 0.75018 0.0
C459 C 0.82495 0.32376 0.74539 0.0
C460 C 0.83092 0.37233 0.74435 0.0
C461 C 0.86708 0.37213 0.73344 0.0
C462 C 0.8817 0.34743 0.72798 0.0
C463 C 0.86088 0.32352 0.73388 0.0
C464 C 0.94597 0.42313 0.73494 0.0
C465 C 0.93124 0.44637 0.72363 0.0
C466 C 0.92541 0.39893 0.73754 0.0
C467 C 0.88965 0.39754 0.72888 0.0
C468 C 0.87525 0.42088 0.71703 0.0
C469 C 0.89583 0.4451 0.71456 0.0
H470 H 0.26483 0.1819 0.31872 0.0
H471 H 0.25157 0.23074 0.39693 0.0
H472 H 0.25974 0.14213 0.35231 0.0
H473 H 0.24318 0.19079 0.43031 0.0
H474 H 0.26961 0.11643 0.48578 0.0
H475 H 0.27405 0.15675 0.4524 0.0
H476 H 0.22111 0.11326 0.38301 0.0
H477 H 0.2192 0.07266 0.41589 0.0
C478 C 0.2607 0.18423 0.34308 0.0
C479 C 0.25895 0.20972 0.35499 0.0
C480 C 0.25709 0.16126 0.3624 0.0
C481 C 0.25097 0.16303 0.3942 0.0
C482 C 0.24847 0.18851 0.40605 0.0
C483 C 0.25268 0.21152 0.38676 0.0
C484 C 0.25901 0.11567 0.46333 0.0
C485 C 0.24396 0.09163 0.45333 0.0
C486 C 0.2612 0.13879 0.44426 0.0
C487 C 0.24787 0.13847 0.41486 0.0
C488 C 0.23227 0.11431 0.40519 0.0
C489 C 0.23072 0.09109 0.42409 0.0
H490 H 0.2868 0.81667 0.80622 0.0
H491 H 0.31756 0.73669 0.78917 0.0
H492 H 0.3257 0.81814 0.84904 0.0
H493 H 0.35546 0.73798 0.83255 0.0
H494 H 0.38378 0.74039 0.93342 0.0
H495 H 0.3459 0.73997 0.89005 0.0
H496 H 0.39234 0.81754 0.85833 0.0
H497 H 0.43123 0.81774 0.90116 0.0
C498 C 0.30204 0.79949 0.81138 0.0
C499 C 0.2989 0.77652 0.79422 0.0
C500 C 0.32421 0.80033 0.836 0.0
C501 C 0.34343 0.77813 0.84421 0.0
C502 C 0.34051 0.75524 0.82702 0.0
C503 C 0.31868 0.7545 0.80222 0.0
C504 C 0.38633 0.75726 0.91707 0.0
C505 C 0.41082 0.77903 0.92081 0.0
C506 C 0.36449 0.75702 0.89226 0.0
C507 C 0.36627 0.77868 0.87078 0.0
C508 C 0.39018 0.80068 0.87472 0.0
C509 C 0.41235 0.8008 0.89936 0.0
H510 H 0.72771 0.82268 0.35397 0.0
H511 H 0.84286 0.81773 0.35409 0.0
H512 H 0.73137 0.86114 0.38587 0.0
H513 H 0.84654 0.85627 0.38607 0.0
H514 H 0.83234 0.90807 0.46978 0.0
H515 H 0.83008 0.8697 0.43757 0.0
H516 H 0.75333 0.90769 0.38269 0.0
H517 H 0.7556 0.94604 0.41485 0.0
C518 C 0.75386 0.82994 0.36061 0.0
C519 C 0.78501 0.81719 0.35137 0.0
C520 C 0.75596 0.852 0.37889 0.0
C521 C 0.78927 0.86188 0.38841 0.0
C522 C 0.82041 0.84898 0.37943 0.0
C523 C 0.8183 0.82689 0.36112 0.0
C524 C 0.81531 0.90838 0.45062 0.0
C525 C 0.79408 0.93012 0.44495 0.0
C526 C 0.81399 0.88636 0.43217 0.0
C527 C 0.79141 0.88556 0.40762 0.0
C528 C 0.77052 0.90744 0.40174 0.0
C529 C 0.77184 0.92945 0.42017 0.0
H530 H 0.77425 0.28817 0.84477 0.0
H531 H 0.69021 0.2511 0.79462 0.0
H532 H 0.73395 0.28583 0.89079 0.0
H533 H 0.65025 0.248 0.84088 0.0
H534 H 0.57732 0.27602 0.92011 0.0
H535 H 0.61787 0.27791 0.87397 0.0
H536 H 0.70412 0.25304 0.9283 0.0
H537 H 0.66338 0.25163 0.97437 0.0
C538 C 0.74717 0.27951 0.84359 0.0
C539 C 0.73539 0.26991 0.81602 0.0
C540 C 0.7242 0.27791 0.87003 0.0
C541 C 0.68888 0.26675 0.8695 0.0
C542 C 0.67718 0.25698 0.84197 0.0
C543 C 0.70019 0.25849 0.81556 0.0
C544 C 0.60498 0.27099 0.92196 0.0
C545 C 0.61748 0.26366 0.95046 0.0
C546 C 0.62811 0.27189 0.89566 0.0
C547 C 0.66421 0.26556 0.89746 0.0
C548 C 0.67659 0.25829 0.92619 0.0
C549 C 0.65338 0.25733 0.95247 0.0
H550 H 0.3044 0.83245 0.70273 0.0
H551 H 0.19018 0.81545 0.69686 0.0
H552 H 0.30122 0.87259 0.6701 0.0
H553 H 0.18767 0.85509 0.66291 0.0
H554 H 0.21502 0.9123 0.57497 0.0
H555 H 0.21509 0.87192 0.60858 0.0
H556 H 0.26973 0.91732 0.67517 0.0
H557 H 0.26871 0.95774 0.64187 0.0
C558 C 0.27855 0.83726 0.69469 0.0
C559 C 0.24747 0.82069 0.7028 0.0
C560 C 0.27684 0.86023 0.67584 0.0
C561 C 0.24418 0.86698 0.66414 0.0
C562 C 0.21324 0.85022 0.67152 0.0
C563 C 0.21479 0.82744 0.69084 0.0
C564 C 0.22676 0.91354 0.59692 0.0
C565 C 0.24215 0.93791 0.60586 0.0
C566 C 0.22674 0.89056 0.61611 0.0
C567 C 0.24261 0.89152 0.64435 0.0
C568 C 0.25767 0.916 0.65337 0.0
C569 C 0.25709 0.93905 0.63442 0.0
H570 H 0.74768 0.81517 0.24798 0.0
H571 H 0.71502 0.73195 0.26699 0.0
H572 H 0.70859 0.81657 0.2055 0.0
H573 H 0.67761 0.73292 0.2234 0.0
H574 H 0.58497 0.75051 0.16411 0.0
H575 H 0.62323 0.74982 0.20722 0.0
H576 H 0.70297 0.80161 0.15507 0.0
H577 H 0.66419 0.8027 0.11219 0.0
C578 C 0.73215 0.79716 0.24314 0.0
C579 C 0.73444 0.77347 0.26105 0.0
C580 C 0.71009 0.79786 0.21846 0.0
C581 C 0.68991 0.77485 0.21092 0.0
C582 C 0.69236 0.75113 0.22874 0.0
C583 C 0.71424 0.75047 0.25353 0.0
C584 C 0.61077 0.76163 0.16182 0.0
C585 C 0.6216 0.77661 0.13473 0.0
C586 C 0.63278 0.76119 0.18651 0.0
C587 C 0.66632 0.77558 0.18466 0.0
C588 C 0.6771 0.79062 0.15752 0.0
C589 C 0.65493 0.79121 0.13289 0.0
H590 H 0.84354 0.23354 0.71215 0.0
H591 H 0.72814 0.22037 0.72421 0.0
H592 H 0.84598 0.19582 0.67893 0.0
H593 H 0.73071 0.18214 0.69199 0.0
H594 H 0.74442 0.1336 0.60688 0.0
H595 H 0.74273 0.17194 0.63895 0.0
H596 H 0.83753 0.1472 0.68178 0.0
H597 H 0.8392 0.10875 0.64969 0.0
C598 C 0.8187 0.22264 0.70764 0.0
C599 C 0.78565 0.22997 0.72085 0.0
C600 C 0.82013 0.20084 0.68889 0.0
C601 C 0.78855 0.18591 0.68283 0.0
C602 C 0.75551 0.19335 0.69591 0.0
C603 C 0.75408 0.2151 0.71468 0.0
C604 C 0.76471 0.13616 0.62335 0.0
C605 C 0.79186 0.118 0.62578 0.0
C606 C 0.76376 0.15818 0.64172 0.0
C607 C 0.78995 0.16264 0.663 0.0
C608 C 0.81723 0.14457 0.66534 0.0
C609 C 0.81817 0.12251 0.64695 0.0
H610 H 0.3432 0.29747 0.26704 0.0
H611 H 0.3003 0.21872 0.24793 0.0
H612 H 0.38274 0.29814 0.22056 0.0
H613 H 0.34038 0.21915 0.20186 0.0
H614 H 0.38722 0.24327 0.10435 0.0
H615 H 0.34761 0.24277 0.151 0.0
H616 H 0.4357 0.27572 0.19991 0.0
H617 H 0.47504 0.27619 0.15311 0.0
C618 C 0.34224 0.28031 0.25291 0.0
C619 C 0.31863 0.25805 0.26114 0.0
C620 C 0.36509 0.2806 0.22645 0.0
C621 C 0.36465 0.25871 0.20752 0.0
C622 C 0.3411 0.23643 0.2158 0.0
C623 C 0.31843 0.23607 0.24235 0.0
C624 C 0.39792 0.25029 0.12519 0.0
C625 C 0.43401 0.25961 0.12544 0.0
C626 C 0.37542 0.24993 0.15185 0.0
C627 C 0.38856 0.25913 0.17917 0.0
C628 C 0.42469 0.26872 0.17918 0.0
C629 C 0.44722 0.2689 0.15255 0.0
H630 H 0.80947 0.73486 0.6897 0.0
H631 H 0.82687 0.73019 0.78628 0.0
H632 H 0.84746 0.69729 0.68204 0.0
H633 H 0.86302 0.69208 0.77893 0.0
H634 H 0.95531 0.6424 0.75434 0.0
H635 H 0.92034 0.68172 0.75753 0.0
H636 H 0.84876 0.64944 0.69261 0.0
H637 H 0.8845 0.61015 0.689 0.0
C638 C 0.82137 0.72585 0.70927 0.0
C639 C 0.81502 0.73553 0.73862 0.0
C640 C 0.84282 0.70413 0.70494 0.0
C641 C 0.85844 0.69168 0.72984 0.0
C642 C 0.85195 0.70139 0.75913 0.0
C643 C 0.83071 0.72306 0.76342 0.0
C644 C 0.9321 0.6437 0.74074 0.0
C645 C 0.92236 0.62305 0.72172 0.0
C646 C 0.91197 0.66621 0.74262 0.0
C647 C 0.88137 0.66861 0.72569 0.0
C648 C 0.87228 0.64834 0.70583 0.0
C649 C 0.89268 0.62581 0.70379 0.0
H650 H 0.78982 0.33845 0.31778 0.0
H651 H 0.88002 0.29416 0.34396 0.0
H652 H 0.82492 0.38011 0.32275 0.0
H653 H 0.91451 0.33591 0.35062 0.0
H654 H 0.97943 0.41434 0.32236 0.0
H655 H 0.94407 0.37209 0.32009 0.0
H656 H 0.85061 0.4089 0.35836 0.0
H657 H 0.88601 0.45134 0.35934 0.0
C658 C 0.81711 0.33758 0.32473 0.0
C659 C 0.83216 0.3129 0.33019 0.0
C660 C 0.83712 0.36153 0.32801 0.0
C661 C 0.87265 0.36145 0.33703 0.0
C662 C 0.88742 0.33675 0.3432 0.0
C663 C 0.86746 0.31278 0.33977 0.0
C664 C 0.95133 0.4132 0.33031 0.0
C665 C 0.93532 0.43583 0.34115 0.0
C666 C 0.93111 0.38902 0.32926 0.0
C667 C 0.89445 0.387 0.33914 0.0
C668 C 0.87862 0.40977 0.35022 0.0
C669 C 0.89884 0.43399 0.35106 0.0
H670 H 0.2643 0.34082 0.74566 0.0
H671 H 0.16987 0.28906 0.73558 0.0
H672 H 0.22887 0.37985 0.73855 0.0
H673 H 0.13446 0.32813 0.72816 0.0
H674 H 0.07831 0.40384 0.75824 0.0
H675 H 0.1135 0.36439 0.76133 0.0
H676 H 0.19512 0.4033 0.69822 0.0
H677 H 0.15997 0.44297 0.69535 0.0
C678 C 0.23597 0.33782 0.74185 0.0
C679 C 0.2198 0.31191 0.74131 0.0
C680 C 0.21578 0.36014 0.73751 0.0
C681 C 0.17889 0.35704 0.73284 0.0
C682 C 0.16279 0.33112 0.73194 0.0
C683 C 0.18308 0.30879 0.73596 0.0
C684 C 0.1038 0.40398 0.74507 0.0
C685 C 0.11649 0.42654 0.72668 0.0
C686 C 0.12377 0.38131 0.74662 0.0
C687 C 0.15705 0.38075 0.73002 0.0
C688 C 0.16966 0.40323 0.71143 0.0
C689 C 0.14946 0.42584 0.70961 0.0
H690 H 0.16652 0.73377 0.33077 0.0
H691 H 0.25954 0.69005 0.30606 0.0
H692 H 0.13093 0.69183 0.3409 0.0
H693 H 0.22356 0.64825 0.3145 0.0
H694 H 0.15778 0.57585 0.35623 0.0
H695 H 0.1934 0.61842 0.35252 0.0
H696 H 0.10478 0.6566 0.31303 0.0
H697 H 0.06905 0.61418 0.31802 0.0
C698 C 0.17945 0.71523 0.32766 0.0
C699 C 0.21588 0.71532 0.31746 0.0
C700 C 0.15891 0.69116 0.33308 0.0
C701 C 0.17426 0.6666 0.32834 0.0
C702 C 0.21087 0.66672 0.31871 0.0
C703 C 0.23142 0.69075 0.31345 0.0
C704 C 0.146 0.59352 0.34714 0.0
C705 C 0.11079 0.59201 0.33761 0.0
C706 C 0.16638 0.61782 0.34474 0.0
C707 C 0.15201 0.641 0.33243 0.0
C708 C 0.11654 0.63933 0.32309 0.0
C709 C 0.09615 0.61507 0.32569 0.0
H710 H 0.72207 0.83618 0.71317 0.0
H711 H 0.83574 0.8258 0.69678 0.0
H712 H 0.72795 0.87693 0.68069 0.0
H713 H 0.84097 0.86603 0.66311 0.0
H714 H 0.81839 0.92324 0.57858 0.0
H715 H 0.81573 0.8823 0.61154 0.0
H716 H 0.76158 0.92332 0.68376 0.0
H717 H 0.76512 0.96433 0.65102 0.0
C718 C 0.74836 0.84257 0.70281 0.0
C719 C 0.77849 0.82768 0.70794 0.0
C720 C 0.75162 0.86588 0.68408 0.0
C721 C 0.78493 0.87467 0.66956 0.0
C722 C 0.81492 0.85958 0.67393 0.0
C723 C 0.81181 0.83644 0.6931 0.0
C724 C 0.80623 0.92342 0.60161 0.0
C725 C 0.79165 0.94669 0.61232 0.0
C726 C 0.80476 0.90012 0.62042 0.0
C727 C 0.78821 0.89965 0.65007 0.0
C728 C 0.77409 0.92309 0.66086 0.0
C729 C 0.77614 0.94648 0.64225 0.0
H730 H 0.70132 0.24159 0.2938 0.0
H731 H 0.78811 0.27895 0.23485 0.0
H732 H 0.66264 0.24077 0.2509 0.0
H733 H 0.74989 0.27752 0.19164 0.0
H734 H 0.66095 0.29762 0.12927 0.0
H735 H 0.69969 0.2977 0.17192 0.0
H736 H 0.65233 0.22039 0.20419 0.0
H737 H 0.61194 0.2211 0.16265 0.0
C738 C 0.71224 0.2493 0.27153 0.0
C739 C 0.74767 0.26039 0.26767 0.0
C740 C 0.69013 0.24877 0.24688 0.0
C741 C 0.70306 0.2591 0.21771 0.0
C742 C 0.73875 0.26985 0.21384 0.0
C743 C 0.76073 0.27059 0.23857 0.0
C744 C 0.65844 0.28076 0.14565 0.0
C745 C 0.63312 0.25941 0.14249 0.0
C746 C 0.6811 0.28062 0.16992 0.0
C747 C 0.67927 0.25902 0.19157 0.0
C748 C 0.65422 0.23753 0.18822 0.0
C749 C 0.63137 0.23776 0.16408 0.0
H750 H 0.31438 0.21619 0.71013 0.0
H751 H 0.19898 0.21985 0.71122 0.0
H752 H 0.31105 0.1778 0.67807 0.0
H753 H 0.19575 0.18194 0.67823 0.0
H754 H 0.20163 0.09539 0.6482 0.0
H755 H 0.20414 0.13389 0.68022 0.0
H756 H 0.2979 0.16689 0.62621 0.0
H757 H 0.29532 0.12853 0.59413 0.0
C758 C 0.28828 0.20877 0.70355 0.0
C759 C 0.25693 0.22103 0.71333 0.0
C760 C 0.28641 0.18695 0.68488 0.0
C761 C 0.25314 0.1768 0.67556 0.0
C762 C 0.22177 0.18909 0.68526 0.0
C763 C 0.22366 0.211 0.70388 0.0
C764 C 0.2226 0.11096 0.64299 0.0
C765 C 0.24835 0.10878 0.61863 0.0
C766 C 0.22402 0.13304 0.66135 0.0
C767 C 0.25126 0.15346 0.65582 0.0
C768 C 0.27692 0.15132 0.63141 0.0
C769 C 0.27547 0.12928 0.61304 0.0
H770 H 0.32902 0.73077 0.25773 0.0
H771 H 0.29251 0.80854 0.23352 0.0
H772 H 0.36937 0.73331 0.21178 0.0
H773 H 0.33367 0.81142 0.18792 0.0
H774 H 0.38045 0.79186 0.09203 0.0
H775 H 0.34031 0.79018 0.13846 0.0
H776 H 0.42423 0.75786 0.19023 0.0
H777 H 0.46398 0.75943 0.14364 0.0
C778 C 0.32965 0.74842 0.24258 0.0
C779 C 0.30747 0.76941 0.2492 0.0
C780 C 0.35303 0.74999 0.21642 0.0
C781 C 0.35472 0.77256 0.19618 0.0
C782 C 0.33273 0.79365 0.2029 0.0
C783 C 0.30944 0.79213 0.22917 0.0
C784 C 0.39012 0.78451 0.11345 0.0
C785 C 0.4251 0.77585 0.11455 0.0
C786 C 0.36734 0.78365 0.14 0.0
C787 C 0.37911 0.77393 0.16805 0.0
C788 C 0.41422 0.7652 0.16895 0.0
C789 C 0.43701 0.76617 0.14243 0.0
H790 H 0.80736 0.19027 0.32346 0.0
H791 H 0.78621 0.23727 0.40187 0.0
H792 H 0.8102 0.15058 0.35697 0.0
H793 H 0.78766 0.19744 0.43555 0.0
H794 H 0.82285 0.12573 0.49045 0.0
H795 H 0.82465 0.16575 0.45648 0.0
H796 H 0.77368 0.11971 0.38815 0.0
H797 H 0.7739 0.07965 0.42171 0.0
C798 C 0.80304 0.19201 0.34792 0.0
C799 C 0.79648 0.21681 0.36007 0.0
C800 C 0.80448 0.16924 0.36717 0.0
C801 C 0.79894 0.17064 0.39907 0.0
C802 C 0.79263 0.19559 0.41119 0.0
C803 C 0.79165 0.21843 0.39191 0.0
C804 C 0.81234 0.12433 0.46803 0.0
C805 C 0.79811 0.09982 0.45859 0.0
C806 C 0.81302 0.14723 0.44865 0.0
C807 C 0.79916 0.14612 0.41951 0.0
C808 C 0.78512 0.12136 0.41016 0.0
C809 C 0.78489 0.09844 0.42941 0.0
H810 H 0.32639 0.30641 0.79788 0.0
H811 H 0.29495 0.22294 0.81659 0.0
H812 H 0.36376 0.30566 0.84148 0.0
H813 H 0.33403 0.22179 0.85908 0.0
H814 H 0.3778 0.23579 0.95258 0.0
H815 H 0.33921 0.23663 0.90956 0.0
H816 H 0.41828 0.28934 0.8579 0.0
H817 H 0.45633 0.28892 0.90117 0.0
C818 C 0.32744 0.28788 0.81127 0.0
C819 C 0.30755 0.26475 0.80368 0.0
C820 C 0.3493 0.28735 0.83607 0.0
C821 C 0.35207 0.26364 0.85384 0.0
C822 C 0.33227 0.24049 0.84618 0.0
C823 C 0.31021 0.24106 0.82149 0.0
C824 C 0.38694 0.24745 0.93196 0.0
C825 C 0.42002 0.26237 0.9303 0.0
C826 C 0.36489 0.24788 0.90724 0.0
C827 C 0.37554 0.26309 0.88019 0.0
C828 C 0.40883 0.27783 0.87853 0.0
C829 C 0.43071 0.27755 0.90332 0.0
H830 H 0.25093 0.83985 0.30335 0.0
H831 H 0.24789 0.78699 0.38394 0.0
H832 H 0.24602 0.87798 0.33561 0.0
H833 H 0.24275 0.82512 0.41617 0.0
H834 H 0.20029 0.89697 0.46421 0.0
H835 H 0.20148 0.8593 0.43085 0.0
H836 H 0.28233 0.90269 0.37069 0.0
H837 H 0.28031 0.94061 0.40348 0.0
C838 C 0.2494 0.83637 0.32795 0.0
C839 C 0.2499 0.81034 0.34103 0.0
C840 C 0.24655 0.85823 0.34644 0.0
C841 C 0.24402 0.85461 0.37847 0.0
C842 C 0.24412 0.82857 0.39157 0.0
C843 C 0.24706 0.80671 0.37308 0.0
C844 C 0.21795 0.8986 0.44364 0.0
C845 C 0.24024 0.92179 0.43653 0.0
C846 C 0.21893 0.8769 0.42471 0.0
C847 C 0.24209 0.87794 0.39816 0.0
C848 C 0.26395 0.9013 0.39081 0.0
C849 C 0.26307 0.92294 0.40978 0.0
H850 H 0.74216 0.81968 0.81715 0.0
H851 H 0.69992 0.74064 0.79857 0.0
H852 H 0.70242 0.81914 0.86348 0.0
H853 H 0.66072 0.73985 0.84525 0.0
H854 H 0.5681 0.76188 0.91237 0.0
H855 H 0.60755 0.76224 0.86565 0.0
H856 H 0.69542 0.79558 0.91452 0.0
H857 H 0.6557 0.79517 0.96111 0.0
C858 C 0.72428 0.80224 0.82292 0.0
C859 C 0.72411 0.78022 0.80421 0.0
C860 C 0.7018 0.80182 0.8496 0.0
C861 C 0.67849 0.77943 0.85805 0.0
C862 C 0.67817 0.75747 0.83923 0.0
C863 C 0.70083 0.75783 0.81266 0.0
C864 C 0.5959 0.7692 0.91294 0.0
C865 C 0.60902 0.77864 0.94003 0.0
C866 C 0.61848 0.76932 0.88636 0.0
C867 C 0.65457 0.77901 0.88639 0.0
C868 C 0.66763 0.78833 0.91367 0.0
C869 C 0.64508 0.78802 0.9403 0.0
loop_
_geom_bond_atom_site_label_1
_geom_bond_atom_site_label_2
_geom_bond_distance
_geom_bond_site_symmetry_2
_ccdc_geom_bond_type
H0 C3 0.931 . S
H1 C6 0.928 . S
H2 C8 0.930 . S
C3 H0 0.931 . S
C3 C4 1.413 . S
C3 C5 1.360 . S
C4 C3 1.413 . S
C4 C8 1.429 . S
C5 C3 1.360 . S
C5 C6 1.372 . S
C6 H1 0.928 . S
C6 C5 1.372 . S
C6 C7 1.404 . S
C7 C6 1.404 . S
C7 C8 1.391 . S
C8 H2 0.930 . S
C8 C4 1.429 . S
C8 C7 1.391 . S
H9 C12 0.931 . S
H10 C15 0.928 . S
H11 C17 0.930 . S
C12 H9 0.931 . S
C12 C13 1.413 . S
C12 C14 1.360 . S
C13 C12 1.413 . S
C13 C17 1.429 . S
C14 C12 1.360 . S
C14 C15 1.372 . S
C15 H10 0.928 . S
C15 C14 1.372 . S
C15 C16 1.404 . S
C16 C15 1.404 . S
C16 C17 1.391 . S
C17 H11 0.930 . S
C17 C13 1.429 . S
C17 C16 1.391 . S
H18 C21 0.931 . S
H19 C24 0.928 . S
H20 C26 0.930 . S
C21 H18 0.931 . S
C21 C22 1.413 . S
C21 C23 1.360 . S
C22 C21 1.413 . S
C22 C26 1.429 . S
C23 C21 1.360 . S
C23 C24 1.372 . S
C24 H19 0.928 . S
C24 C23 1.372 . S
C24 C25 1.404 . S
C25 C24 1.404 . S
C25 C26 1.391 . S
C26 H20 0.930 . S
C26 C22 1.429 . S
C26 C25 1.391 . S
H27 C30 0.931 . S
H28 C33 0.928 . S
H29 C35 0.930 . S
C30 H27 0.931 . S
C30 C31 1.413 . S
C30 C32 1.360 . S
C31 C30 1.413 . S
C31 C35 1.429 . S
C32 C30 1.360 . S
C32 C33 1.372 . S
C33 H28 0.928 . S
C33 C32 1.372 . S
C33 C34 1.404 . S
C34 C33 1.404 . S
C34 C35 1.391 . S
C35 H29 0.930 . S
C35 C31 1.429 . S
C35 C34 1.391 . S
H36 C39 0.931 . S
H37 C42 0.928 . S
H38 C44 0.930 . S
C39 H36 0.931 . S
C39 C40 1.413 . S
C39 C41 1.360 . S
C40 C39 1.413 . S
C40 C44 1.429 . S
C41 C39 1.360 . S
C41 C42 1.372 . S
C42 H37 0.928 . S
C42 C41 1.372 . S
C42 C43 1.404 . S
C43 C42 1.404 . S
C43 C44 1.391 . S
C44 H38 0.930 . S
C44 C40 1.429 . S
C44 C43 1.391 . S
H45 C48 0.931 . S
H46 C51 0.928 . S
H47 C53 0.930 . S
C48 H45 0.931 . S
C48 C49 1.413 . S
C48 C50 1.360 . S
C49 C48 1.413 . S
C49 C53 1.429 . S
C50 C48 1.360 . S
C50 C51 1.372 . S
C51 H46 0.928 . S
C51 C50 1.372 . S
C51 C52 1.404 . S
C52 C51 1.404 . S
C52 C53 1.391 . S
C53 H47 0.930 . S
C53 C49 1.429 . S
C53 C52 1.391 . S
H54 C57 0.931 . S
H55 C60 0.928 . S
H56 C62 0.930 . S
C57 H54 0.931 . S
C57 C58 1.413 . S
C57 C59 1.360 . S
C58 C57 1.413 . S
C58 C62 1.429 . S
C59 C57 1.360 . S
C59 C60 1.372 . S
C60 H55 0.928 . S
C60 C59 1.372 . S
C60 C61 1.404 . S
C61 C60 1.404 . S
C61 C62 1.391 . S
C62 H56 0.930 . S
C62 C58 1.429 . S
C62 C61 1.391 . S
H63 C66 0.931 . S
H64 C69 0.928 . S
H65 C71 0.930 . S
C66 H63 0.931 . S
C66 C67 1.413 . S
C66 C68 1.360 . S
C67 C66 1.413 . S
C67 C71 1.429 . S
C68 C66 1.360 . S
C68 C69 1.372 . S
C69 H64 0.928 . S
C69 C68 1.372 . S
C69 C70 1.404 . S
C70 C69 1.404 . S
C70 C71 1.391 . S
C71 H65 0.930 . S
C71 C67 1.429 . S
C71 C70 1.391 . S
C72 C73 1.443 . S
C72 N76 1.376 . S
C72 C110 1.389 . S
C73 C72 1.443 . S
C73 C74 1.340 . S
C73 H113 0.951 . S
C74 C73 1.340 . S
C74 C75 1.439 . S
C74 H114 0.950 . S
C75 C74 1.439 . S
C75 N76 1.374 . S
C75 C109 1.395 . S
N76 C72 1.376 . S
N76 C75 1.374 . S
N76 Co77 2.008 . S
Co77 N76 2.008 . S
Co77 N78 1.995 1_455 S
Co77 N83 2.008 . S
Co77 N88 1.995 . S
Co77 N93 2.282 . S
Co77 N99 2.282 1_455 S
N78 Co77 1.995 1_655 S
N78 C79 1.376 . S
N78 C82 1.383 . S
C79 N78 1.376 . S
C79 C80 1.446 . S
C79 C109 1.391 1_655 S
C80 C79 1.446 . S
C80 C81 1.339 . S
C80 H115 0.949 . S
C81 C80 1.339 . S
C81 C82 1.439 . S
C81 H116 0.950 . S
C82 N78 1.383 . S
C82 C81 1.439 . S
C82 C111 1.392 . S
N83 Co77 2.008 . S
N83 C84 1.376 1_455 S
N83 C87 1.374 . S
C84 N83 1.376 1_655 S
C84 C85 1.443 . S
C84 C111 1.389 . S
C85 C84 1.443 . S
C85 C86 1.340 . S
C85 H117 0.951 . S
C86 C85 1.340 . S
C86 C87 1.439 1_655 S
C86 H118 0.950 . S
C87 N83 1.374 . S
C87 C86 1.439 1_455 S
C87 C112 1.395 . S
N88 Co77 1.995 . S
N88 C89 1.376 . S
N88 C92 1.383 . S
C89 N88 1.376 . S
C89 C90 1.446 . S
C89 C112 1.391 . S
C90 C89 1.446 . S
C90 C91 1.339 . S
C90 H119 0.949 . S
C91 C90 1.339 . S
C91 C92 1.439 . S
C91 H120 0.950 . S
C92 N88 1.383 . S
C92 C91 1.439 . S
C92 C110 1.392 . S
N93 Co77 2.282 . S
N93 C96 1.332 . S
N93 C98 1.332 . S
C94 C95 1.386 . S
C94 C97 1.388 . S
C95 C94 1.386 . S
C95 C96 1.382 . S
C95 H121 0.950 . S
C96 N93 1.332 . S
C96 C95 1.382 . S
C96 H107 0.952 . S
C97 C94 1.388 . S
C97 C98 1.382 . S
C97 H122 0.950 . S
C98 N93 1.332 . S
C98 C97 1.382 . S
C98 H108 0.948 . S
N99 Co77 2.282 1_655 S
N99 C103 1.332 . S
N99 C104 1.332 . S
C100 C101 1.388 . S
C100 C104 1.382 . S
C100 H123 0.950 . S
C101 C100 1.388 . S
C101 C102 1.386 . S
C102 C101 1.386 . S
C102 C103 1.382 . S
C102 H124 0.950 . S
C103 N99 1.332 . S
C103 C102 1.382 . S
C103 H105 0.952 . S
C104 N99 1.332 . S
C104 C100 1.382 . S
C104 H106 0.948 . S
H105 C103 0.952 . S
H106 C104 0.948 . S
H107 C96 0.952 . S
H108 C98 0.948 . S
C109 C75 1.395 . S
C109 C79 1.391 1_455 S
C110 C72 1.389 . S
C110 C92 1.392 . S
C111 C82 1.392 . S
C111 C84 1.389 . S
C112 C87 1.395 . S
C112 C89 1.391 . S
H113 C73 0.951 . S
H114 C74 0.950 . S
H115 C80 0.949 . S
H116 C81 0.950 . S
H117 C85 0.951 . S
H118 C86 0.950 . S
H119 C90 0.949 . S
H120 C91 0.950 . S
H121 C95 0.950 . S
H122 C97 0.950 . S
H123 C100 0.950 . S
H124 C102 0.950 . S
C125 C126 1.443 . S
C125 N129 1.376 . S
C125 C163 1.389 . S
C126 C125 1.443 . S
C126 C127 1.340 . S
C126 H166 0.951 . S
C127 C126 1.340 . S
C127 C128 1.439 . S
C127 H167 0.950 . S
C128 C127 1.439 . S
C128 N129 1.374 . S
C128 C162 1.395 . S
N129 C125 1.376 . S
N129 C128 1.374 . S
N129 Co130 2.008 . S
Co130 N129 2.008 . S
Co130 N131 1.995 1_455 S
Co130 N136 2.008 1_455 S
Co130 N141 1.995 . S
Co130 N146 2.282 . S
Co130 N152 2.282 1_455 S
N131 Co130 1.995 1_655 S
N131 C132 1.376 . S
N131 C135 1.383 . S
C132 N131 1.376 . S
C132 C133 1.446 . S
C132 C162 1.391 1_655 S
C133 C132 1.446 . S
C133 C134 1.339 . S
C133 H168 0.949 . S
C134 C133 1.339 . S
C134 C135 1.439 . S
C134 H169 0.950 . S
C135 N131 1.383 . S
C135 C134 1.439 . S
C135 C164 1.392 . S
N136 Co130 2.008 1_655 S
N136 C137 1.376 . S
N136 C140 1.374 1_655 S
C137 N136 1.376 . S
C137 C138 1.443 . S
C137 C164 1.389 . S
C138 C137 1.443 . S
C138 C139 1.340 . S
C138 H170 0.951 . S
C139 C138 1.340 . S
C139 C140 1.439 1_655 S
C139 H171 0.950 . S
C140 N136 1.374 1_455 S
C140 C139 1.439 1_455 S
C140 C165 1.395 . S
N141 Co130 1.995 . S
N141 C142 1.376 . S
N141 C145 1.383 . S
C142 N141 1.376 . S
C142 C143 1.446 . S
C142 C165 1.391 . S
C143 C142 1.446 . S
C143 C144 1.339 . S
C143 H172 0.949 . S
C144 C143 1.339 . S
C144 C145 1.439 . S
C144 H173 0.950 . S
C145 N141 1.383 . S
C145 C144 1.439 . S
C145 C163 1.392 . S
N146 Co130 2.282 . S
N146 C149 1.332 . S
N146 C151 1.332 . S
C147 C148 1.386 . S
C147 C150 1.388 . S
C148 C147 1.386 . S
C148 C149 1.382 . S
C148 H174 0.950 . S
C149 N146 1.332 . S
C149 C148 1.382 . S
C149 H160 0.952 . S
C150 C147 1.388 . S
C150 C151 1.382 . S
C150 H175 0.950 . S
C151 N146 1.332 . S
C151 C150 1.382 . S
C151 H161 0.948 . S
N152 Co130 2.282 1_655 S
N152 C156 1.332 . S
N152 C157 1.332 . S
C153 C154 1.388 . S
C153 C157 1.382 . S
C153 H176 0.950 . S
C154 C153 1.388 . S
C154 C155 1.386 . S
C155 C154 1.386 . S
C155 C156 1.382 . S
C155 H177 0.950 . S
C156 N152 1.332 . S
C156 C155 1.382 . S
C156 H158 0.952 . S
C157 N152 1.332 . S
C157 C153 1.382 . S
C157 H159 0.948 . S
H158 C156 0.952 . S
H159 C157 0.948 . S
H160 C149 0.952 . S
H161 C151 0.948 . S
C162 C128 1.395 . S
C162 C132 1.391 1_455 S
C163 C125 1.389 . S
C163 C145 1.392 . S
C164 C135 1.392 . S
C164 C137 1.389 . S
C165 C140 1.395 . S
C165 C142 1.391 . S
H166 C126 0.951 . S
H167 C127 0.950 . S
H168 C133 0.949 . S
H169 C134 0.950 . S
H170 C138 0.951 . S
H171 C139 0.950 . S
H172 C143 0.949 . S
H173 C144 0.950 . S
H174 C148 0.950 . S
H175 C150 0.950 . S
H176 C153 0.950 . S
H177 C155 0.950 . S
C178 C179 1.443 . S
C178 N182 1.376 . S
C178 C216 1.389 . S
C179 C178 1.443 . S
C179 C180 1.340 . S
C179 H219 0.951 . S
C180 C179 1.340 . S
C180 C181 1.439 . S
C180 H220 0.950 . S
C181 C180 1.439 . S
C181 N182 1.374 . S
C181 C215 1.395 1_565 S
N182 C178 1.376 . S
N182 C181 1.374 . S
N182 Co183 2.008 1_565 S
Co183 N182 2.008 1_545 S
Co183 N184 1.995 . S
Co183 N189 2.008 . S
Co183 N194 1.995 1_545 S
Co183 N199 2.282 . S
Co183 N205 2.282 1_545 S
N184 Co183 1.995 . S
N184 C185 1.376 . S
N184 C188 1.383 . S
C185 N184 1.376 . S
C185 C186 1.446 . S
C185 C215 1.391 . S
C186 C185 1.446 . S
C186 C187 1.339 . S
C186 H221 0.949 . S
C187 C186 1.339 . S
C187 C188 1.439 . S
C187 H222 0.950 . S
C188 N184 1.383 . S
C188 C187 1.439 . S
C188 C217 1.392 . S
N189 Co183 2.008 . S
N189 C190 1.376 . S
N189 C193 1.374 . S
C190 N189 1.376 . S
C190 C191 1.443 . S
C190 C217 1.389 . S
C191 C190 1.443 . S
C191 C192 1.340 . S
C191 H223 0.951 . S
C192 C191 1.340 . S
C192 C193 1.439 . S
C192 H224 0.950 . S
C193 N189 1.374 . S
C193 C192 1.439 . S
C193 C218 1.395 . S
N194 Co183 1.995 1_565 S
N194 C195 1.376 . S
N194 C198 1.383 . S
C195 N194 1.376 . S
C195 C196 1.446 . S
C195 C218 1.391 1_565 S
C196 C195 1.446 . S
C196 C197 1.339 . S
C196 H225 0.949 . S
C197 C196 1.339 . S
C197 C198 1.439 . S
C197 H226 0.950 . S
C198 N194 1.383 . S
C198 C197 1.439 . S
C198 C216 1.392 . S
N199 Co183 2.282 . S
N199 C202 1.332 . S
N199 C204 1.332 . S
C200 C201 1.386 . S
C200 C203 1.388 . S
C201 C200 1.386 . S
C201 C202 1.382 . S
C201 H227 0.950 . S
C202 N199 1.332 . S
C202 C201 1.382 . S
C202 H213 0.952 . S
C203 C200 1.388 . S
C203 C204 1.382 . S
C203 H228 0.950 . S
C204 N199 1.332 . S
C204 C203 1.382 . S
C204 H214 0.948 . S
N205 Co183 2.282 1_565 S
N205 C209 1.332 . S
N205 C210 1.332 . S
C206 C207 1.388 . S
C206 C210 1.382 . S
C206 H229 0.950 . S
C207 C206 1.388 . S
C207 C208 1.386 . S
C208 C207 1.386 . S
C208 C209 1.382 . S
C208 H230 0.950 . S
C209 N205 1.332 . S
C209 C208 1.382 . S
C209 H211 0.952 . S
C210 N205 1.332 . S
C210 C206 1.382 . S
C210 H212 0.948 . S
H211 C209 0.952 . S
H212 C210 0.948 . S
H213 C202 0.952 . S
H214 C204 0.948 . S
C215 C181 1.395 1_545 S
C215 C185 1.391 . S
C216 C178 1.389 . S
C216 C198 1.392 . S
C217 C188 1.392 . S
C217 C190 1.389 . S
C218 C193 1.395 . S
C218 C195 1.391 1_545 S
H219 C179 0.951 . S
H220 C180 0.950 . S
H221 C186 0.949 . S
H222 C187 0.950 . S
H223 C191 0.951 . S
H224 C192 0.950 . S
H225 C196 0.949 . S
H226 C197 0.950 . S
H227 C201 0.950 . S
H228 C203 0.950 . S
H229 C206 0.950 . S
H230 C208 0.950 . S
C231 C232 1.443 . S
C231 N235 1.376 . S
C231 C269 1.389 . S
C232 C231 1.443 . S
C232 C233 1.340 . S
C232 H272 0.951 . S
C233 C232 1.340 . S
C233 C234 1.439 . S
C233 H273 0.950 . S
C234 C233 1.439 . S
C234 N235 1.374 . S
C234 C268 1.395 . S
N235 C231 1.376 . S
N235 C234 1.374 . S
N235 Co236 2.008 . S
Co236 N235 2.008 . S
Co236 N237 1.995 1_554 S
Co236 N242 2.008 1_554 S
Co236 N247 1.995 . S
Co236 N252 2.282 1_554 S
Co236 N258 2.282 . S
N237 Co236 1.995 1_556 S
N237 C238 1.376 1_556 S
N237 C241 1.383 . S
C238 N237 1.376 1_554 S
C238 C239 1.446 1_554 S
C238 C268 1.391 . S
C239 C238 1.446 1_556 S
C239 C240 1.339 . S
C239 H274 0.949 . S
C240 C239 1.339 . S
C240 C241 1.439 . S
C240 H275 0.950 . S
C241 N237 1.383 . S
C241 C240 1.439 . S
C241 C270 1.392 . S
N242 Co236 2.008 1_556 S
N242 C243 1.376 . S
N242 C246 1.374 . S
C243 N242 1.376 . S
C243 C244 1.443 . S
C243 C270 1.389 . S
C244 C243 1.443 . S
C244 C245 1.340 . S
C244 H276 0.951 . S
C245 C244 1.340 . S
C245 C246 1.439 . S
C245 H277 0.950 . S
C246 N242 1.374 . S
C246 C245 1.439 . S
C246 C271 1.395 1_556 S
N247 Co236 1.995 . S
N247 C248 1.376 . S
N247 C251 1.383 . S
C248 N247 1.376 . S
C248 C249 1.446 . S
C248 C271 1.391 . S
C249 C248 1.446 . S
C249 C250 1.339 . S
C249 H278 0.949 . S
C250 C249 1.339 . S
C250 C251 1.439 . S
C250 H279 0.950 . S
C251 N247 1.383 . S
C251 C250 1.439 . S
C251 C269 1.392 . S
N252 Co236 2.282 1_556 S
N252 C255 1.332 . S
N252 C257 1.332 . S
C253 C254 1.386 . S
C253 C256 1.388 . S
C254 C253 1.386 . S
C254 C255 1.382 . S
C254 H280 0.950 . S
C255 N252 1.332 . S
C255 C254 1.382 . S
C255 H266 0.952 . S
C256 C253 1.388 . S
C256 C257 1.382 . S
C256 H281 0.950 . S
C257 N252 1.332 . S
C257 C256 1.382 . S
C257 H267 0.948 . S
N258 Co236 2.282 . S
N258 C262 1.332 . S
N258 C263 1.332 . S
C259 C260 1.388 . S
C259 C263 1.382 . S
C259 H282 0.950 . S
C260 C259 1.388 . S
C260 C261 1.386 . S
C261 C260 1.386 . S
C261 C262 1.382 . S
C261 H283 0.950 . S
C262 N258 1.332 . S
C262 C261 1.382 . S
C262 H264 0.952 . S
C263 N258 1.332 . S
C263 C259 1.382 . S
C263 H265 0.948 . S
H264 C262 0.952 . S
H265 C263 0.948 . S
H266 C255 0.952 . S
H267 C257 0.948 . S
C268 C234 1.395 . S
C268 C238 1.391 . S
C269 C231 1.389 . S
C269 C251 1.392 . S
C270 C241 1.392 . S
C270 C243 1.389 . S
C271 C246 1.395 1_554 S
C271 C248 1.391 . S
H272 C232 0.951 . S
H273 C233 0.950 . S
H274 C239 0.949 . S
H275 C240 0.950 . S
H276 C244 0.951 . S
H277 C245 0.950 . S
H278 C249 0.949 . S
H279 C250 0.950 . S
H280 C254 0.950 . S
H281 C256 0.950 . S
H282 C259 0.950 . S
H283 C261 0.950 . S
C284 C285 1.443 . S
C284 N288 1.376 1_565 S
C284 C322 1.389 . S
C285 C284 1.443 . S
C285 C286 1.340 . S
C285 H325 0.951 . S
C286 C285 1.340 . S
C286 C287 1.439 1_565 S
C286 H326 0.950 . S
C287 C286 1.439 1_545 S
C287 N288 1.374 . S
C287 C321 1.395 . S
N288 C284 1.376 1_545 S
N288 C287 1.374 . S
N288 Co289 2.008 . S
Co289 N288 2.008 . S
Co289 N290 1.995 . S
Co289 N295 2.008 . S
Co289 N300 1.995 . S
Co289 N305 2.282 . S
Co289 N311 2.282 1_545 S
N290 Co289 1.995 . S
N290 C291 1.376 . S
N290 C294 1.383 . S
C291 N290 1.376 . S
C291 C292 1.446 . S
C291 C321 1.391 . S
C292 C291 1.446 . S
C292 C293 1.339 . S
C292 H327 0.949 . S
C293 C292 1.339 . S
C293 C294 1.439 . S
C293 H328 0.950 . S
C294 N290 1.383 . S
C294 C293 1.439 . S
C294 C323 1.392 . S
N295 Co289 2.008 . S
N295 C296 1.376 . S
N295 C299 1.374 . S
C296 N295 1.376 . S
C296 C297 1.443 . S
C296 C323 1.389 . S
C297 C296 1.443 . S
C297 C298 1.340 . S
C297 H329 0.951 . S
C298 C297 1.340 . S
C298 C299 1.439 . S
C298 H330 0.950 . S
C299 N295 1.374 . S
C299 C298 1.439 . S
C299 C324 1.395 . S
N300 Co289 1.995 . S
N300 C301 1.376 . S
N300 C304 1.383 1_545 S
C301 N300 1.376 . S
C301 C302 1.446 1_545 S
C301 C324 1.391 . S
C302 C301 1.446 1_565 S
C302 C303 1.339 . S
C302 H331 0.949 . S
C303 C302 1.339 . S
C303 C304 1.439 . S
C303 H332 0.950 . S
C304 N300 1.383 1_565 S
C304 C303 1.439 . S
C304 C322 1.392 . S
N305 Co289 2.282 . S
N305 C308 1.332 . S
N305 C310 1.332 . S
C306 C307 1.386 . S
C306 C309 1.388 . S
C307 C306 1.386 . S
C307 C308 1.382 . S
C307 H333 0.950 . S
C308 N305 1.332 . S
C308 C307 1.382 . S
C308 H319 0.952 . S
C309 C306 1.388 . S
C309 C310 1.382 . S
C309 H334 0.950 . S
C310 N305 1.332 . S
C310 C309 1.382 . S
C310 H320 0.948 . S
N311 Co289 2.282 1_565 S
N311 C315 1.332 . S
N311 C316 1.332 . S
C312 C313 1.388 . S
C312 C316 1.382 . S
C312 H335 0.950 . S
C313 C312 1.388 . S
C313 C314 1.386 . S
C314 C313 1.386 . S
C314 C315 1.382 . S
C314 H336 0.950 . S
C315 N311 1.332 . S
C315 C314 1.382 . S
C315 H317 0.952 . S
C316 N311 1.332 . S
C316 C312 1.382 . S
C316 H318 0.948 . S
H317 C315 0.952 . S
H318 C316 0.948 . S
H319 C308 0.952 . S
H320 C310 0.948 . S
C321 C287 1.395 . S
C321 C291 1.391 . S
C322 C284 1.389 . S
C322 C304 1.392 . S
C323 C294 1.392 . S
C323 C296 1.389 . S
C324 C299 1.395 . S
C324 C301 1.391 . S
H325 C285 0.951 . S
H326 C286 0.950 . S
H327 C292 0.949 . S
H328 C293 0.950 . S
H329 C297 0.951 . S
H330 C298 0.950 . S
H331 C302 0.949 . S
H332 C303 0.950 . S
H333 C307 0.950 . S
H334 C309 0.950 . S
H335 C312 0.950 . S
H336 C314 0.950 . S
C337 C338 1.443 . S
C337 N341 1.376 . S
C337 C375 1.389 . S
C338 C337 1.443 . S
C338 C339 1.340 . S
C338 H378 0.951 . S
C339 C338 1.340 . S
C339 C340 1.439 . S
C339 H379 0.950 . S
C340 C339 1.439 . S
C340 N341 1.374 . S
C340 C374 1.395 . S
N341 C337 1.376 . S
N341 C340 1.374 . S
N341 Co342 2.008 . S
Co342 N341 2.008 . S
Co342 N343 1.995 . S
Co342 N348 2.008 . S
Co342 N353 1.995 . S
Co342 N358 2.282 . S
Co342 N364 2.282 . S
N343 Co342 1.995 . S
N343 C344 1.376 . S
N343 C347 1.383 1_554 S
C344 N343 1.376 . S
C344 C345 1.446 1_554 S
C344 C374 1.391 . S
C345 C344 1.446 1_556 S
C345 C346 1.339 . S
C345 H380 0.949 . S
C346 C345 1.339 . S
C346 C347 1.439 . S
C346 H381 0.950 . S
C347 N343 1.383 1_556 S
C347 C346 1.439 . S
C347 C376 1.392 . S
N348 Co342 2.008 . S
N348 C349 1.376 1_554 S
N348 C352 1.374 . S
C349 N348 1.376 1_556 S
C349 C350 1.443 . S
C349 C376 1.389 . S
C350 C349 1.443 . S
C350 C351 1.340 . S
C350 H382 0.951 . S
C351 C350 1.340 . S
C351 C352 1.439 1_556 S
C351 H383 0.950 . S
C352 N348 1.374 . S
C352 C351 1.439 1_554 S
C352 C377 1.395 . S
N353 Co342 1.995 . S
N353 C354 1.376 . S
N353 C357 1.383 . S
C354 N353 1.376 . S
C354 C355 1.446 . S
C354 C377 1.391 . S
C355 C354 1.446 . S
C355 C356 1.339 . S
C355 H384 0.949 . S
C356 C355 1.339 . S
C356 C357 1.439 . S
C356 H385 0.950 . S
C357 N353 1.383 . S
C357 C356 1.439 . S
C357 C375 1.392 . S
N358 Co342 2.282 . S
N358 C361 1.332 1_554 S
N358 C363 1.332 1_554 S
C359 C360 1.386 . S
C359 C362 1.388 . S
C360 C359 1.386 . S
C360 C361 1.382 . S
C360 H386 0.950 . S
C361 N358 1.332 1_556 S
C361 C360 1.382 . S
C361 H372 0.952 1_556 S
C362 C359 1.388 . S
C362 C363 1.382 . S
C362 H387 0.950 . S
C363 N358 1.332 1_556 S
C363 C362 1.382 . S
C363 H373 0.948 . S
N364 Co342 2.282 . S
N364 C368 1.332 . S
N364 C369 1.332 . S
C365 C366 1.388 . S
C365 C369 1.382 . S
C365 H388 0.950 . S
C366 C365 1.388 . S
C366 C367 1.386 . S
C367 C366 1.386 . S
C367 C368 1.382 . S
C367 H389 0.950 . S
C368 N364 1.332 . S
C368 C367 1.382 . S
C368 H370 0.952 . S
C369 N364 1.332 . S
C369 C365 1.382 . S
C369 H371 0.948 . S
H370 C368 0.952 . S
H371 C369 0.948 . S
H372 C361 0.952 1_554 S
H373 C363 0.948 . S
C374 C340 1.395 . S
C374 C344 1.391 . S
C375 C337 1.389 . S
C375 C357 1.392 . S
C376 C347 1.392 . S
C376 C349 1.389 . S
C377 C352 1.395 . S
C377 C354 1.391 . S
H378 C338 0.951 . S
H379 C339 0.950 . S
H380 C345 0.949 . S
H381 C346 0.950 . S
H382 C350 0.951 . S
H383 C351 0.950 . S
H384 C355 0.949 . S
H385 C356 0.950 . S
H386 C360 0.950 . S
H387 C362 0.950 . S
H388 C365 0.950 . S
H389 C367 0.950 . S
H390 C398 0.950 . S
H391 C403 0.950 . S
H392 C400 0.950 . S
H393 C402 0.950 . S
H394 C404 0.950 . S
H395 C406 0.950 . S
H396 C408 0.950 . S
H397 C409 0.950 . S
C398 H390 0.950 . S
C398 C399 1.386 . S
C398 C400 1.391 . S
C399 C398 1.386 . S
C399 C403 1.393 . S
C400 H392 0.950 . S
C400 C398 1.391 . S
C400 C401 1.400 . S
C401 C400 1.400 . S
C401 C402 1.398 . S
C401 C407 1.491 . S
C402 H393 0.950 . S
C402 C401 1.398 . S
C402 C403 1.391 . S
C403 H391 0.950 . S
C403 C399 1.393 . S
C403 C402 1.391 . S
C404 H394 0.950 . S
C404 C405 1.386 . S
C404 C406 1.391 . S
C405 C404 1.386 . S
C405 C409 1.393 . S
C406 H395 0.950 . S
C406 C404 1.391 . S
C406 C407 1.400 . S
C407 C401 1.491 . S
C407 C406 1.400 . S
C407 C408 1.398 . S
C408 H396 0.950 . S
C408 C407 1.398 . S
C408 C409 1.391 . S
C409 H397 0.950 . S
C409 C405 1.393 . S
C409 C408 1.391 . S
H410 C418 0.950 . S
H411 C423 0.950 . S
H412 C420 0.950 . S
H413 C422 0.950 . S
H414 C424 0.950 . S
H415 C426 0.950 . S
H416 C428 0.950 . S
H417 C429 0.950 . S
C418 H410 0.950 . S
C418 C419 1.386 . S
C418 C420 1.391 . S
C419 C418 1.386 . S
C419 C423 1.393 . S
C420 H412 0.950 . S
C420 C418 1.391 . S
C420 C421 1.400 . S
C421 C420 1.400 . S
C421 C422 1.398 . S
C421 C427 1.491 . S
C422 H413 0.950 . S
C422 C421 1.398 . S
C422 C423 1.391 . S
C423 H411 0.950 . S
C423 C419 1.393 . S
C423 C422 1.391 . S
C424 H414 0.950 . S
C424 C425 1.386 . S
C424 C426 1.391 . S
C425 C424 1.386 . S
C425 C429 1.393 . S
C426 H415 0.950 . S
C426 C424 1.391 . S
C426 C427 1.400 . S
C427 C421 1.491 . S
C427 C426 1.400 . S
C427 C428 1.398 . S
C428 H416 0.950 . S
C428 C427 1.398 . S
C428 C429 1.391 . S
C429 H417 0.950 . S
C429 C425 1.393 . S
C429 C428 1.391 . S
H430 C438 0.950 . S
H431 C443 0.950 . S
H432 C440 0.950 . S
H433 C442 0.950 . S
H434 C444 0.950 . S
H435 C446 0.950 . S
H436 C448 0.950 . S
H437 C449 0.950 . S
C438 H430 0.950 . S
C438 C439 1.386 . S
C438 C440 1.391 . S
C439 C438 1.386 . S
C439 C443 1.393 . S
C440 H432 0.950 . S
C440 C438 1.391 . S
C440 C441 1.400 . S
C441 C440 1.400 . S
C441 C442 1.398 . S
C441 C447 1.491 . S
C442 H433 0.950 . S
C442 C441 1.398 . S
C442 C443 1.391 . S
C443 H431 0.950 . S
C443 C439 1.393 . S
C443 C442 1.391 . S
C444 H434 0.950 . S
C444 C445 1.386 . S
C444 C446 1.391 . S
C445 C444 1.386 . S
C445 C449 1.393 . S
C446 H435 0.950 . S
C446 C444 1.391 . S
C446 C447 1.400 . S
C447 C441 1.491 . S
C447 C446 1.400 . S
C447 C448 1.398 . S
C448 H436 0.950 . S
C448 C447 1.398 . S
C448 C449 1.391 . S
C449 H437 0.950 . S
C449 C445 1.393 . S
C449 C448 1.391 . S
H450 C458 0.950 . S
H451 C463 0.950 . S
H452 C460 0.950 . S
H453 C462 0.950 . S
H454 C464 0.950 . S
H455 C466 0.950 . S
H456 C468 0.950 . S
H457 C469 0.950 . S
C458 H450 0.950 . S
C458 C459 1.386 . S
C458 C460 1.391 . S
C459 C458 1.386 . S
C459 C463 1.393 . S
C460 H452 0.950 . S
C460 C458 1.391 . S
C460 C461 1.400 . S
C461 C460 1.400 . S
C461 C462 1.398 . S
C461 C467 1.491 . S
C462 H453 0.950 . S
C462 C461 1.398 . S
C462 C463 1.391 . S
C463 H451 0.950 . S
C463 C459 1.393 . S
C463 C462 1.391 . S
C464 H454 0.950 . S
C464 C465 1.386 . S
C464 C466 1.391 . S
C465 C464 1.386 . S
C465 C469 1.393 . S
C466 H455 0.950 . S
C466 C464 1.391 . S
C466 C467 1.400 . S
C467 C461 1.491 . S
C467 C466 1.400 . S
C467 C468 1.398 . S
C468 H456 0.950 . S
C468 C467 1.398 . S
C468 C469 1.391 . S
C469 H457 0.950 . S
C469 C465 1.393 . S
C469 C468 1.391 . S
H470 C478 0.950 . S
H471 C483 0.950 . S
H472 C480 0.950 . S
H473 C482 0.950 . S
H474 C484 0.950 . S
H475 C486 0.950 . S
H476 C488 0.950 . S
H477 C489 0.950 . S
C478 H470 0.950 . S
C478 C479 1.386 . S
C478 C480 1.391 . S
C479 C478 1.386 . S
C479 C483 1.393 . S
C480 H472 0.950 . S
C480 C478 1.391 . S
C480 C481 1.400 . S
C481 C480 1.400 . S
C481 C482 1.398 . S
C481 C487 1.491 . S
C482 H473 0.950 . S
C482 C481 1.398 . S
C482 C483 1.391 . S
C483 H471 0.950 . S
C483 C479 1.393 . S
C483 C482 1.391 . S
C484 H474 0.950 . S
C484 C485 1.386 . S
C484 C486 1.391 . S
C485 C484 1.386 . S
C485 C489 1.393 . S
C486 H475 0.950 . S
C486 C484 1.391 . S
C486 C487 1.400 . S
C487 C481 1.491 . S
C487 C486 1.400 . S
C487 C488 1.398 . S
C488 H476 0.950 . S
C488 C487 1.398 . S
C488 C489 1.391 . S
C489 H477 0.950 . S
C489 C485 1.393 . S
C489 C488 1.391 . S
H490 C498 0.950 . S
H491 C503 0.950 . S
H492 C500 0.950 . S
H493 C502 0.950 . S
H494 C504 0.950 . S
H495 C506 0.950 . S
H496 C508 0.950 . S
H497 C509 0.950 . S
C498 H490 0.950 . S
C498 C499 1.386 . S
C498 C500 1.391 . S
C499 C498 1.386 . S
C499 C503 1.393 . S
C500 H492 0.950 . S
C500 C498 1.391 . S
C500 C501 1.400 . S
C501 C500 1.400 . S
C501 C502 1.398 . S
C501 C507 1.491 . S
C502 H493 0.950 . S
C502 C501 1.398 . S
C502 C503 1.391 . S
C503 H491 0.950 . S
C503 C499 1.393 . S
C503 C502 1.391 . S
C504 H494 0.950 . S
C504 C505 1.386 . S
C504 C506 1.391 . S
C505 C504 1.386 . S
C505 C509 1.393 . S
C506 H495 0.950 . S
C506 C504 1.391 . S
C506 C507 1.400 . S
C507 C501 1.491 . S
C507 C506 1.400 . S
C507 C508 1.398 . S
C508 H496 0.950 . S
C508 C507 1.398 . S
C508 C509 1.391 . S
C509 H497 0.950 . S
C509 C505 1.393 . S
C509 C508 1.391 . S
H510 C518 0.950 . S
H511 C523 0.950 . S
H512 C520 0.950 . S
H513 C522 0.950 . S
H514 C524 0.950 . S
H515 C526 0.950 . S
H516 C528 0.950 . S
H517 C529 0.950 . S
C518 H510 0.950 . S
C518 C519 1.386 . S
C518 C520 1.391 . S
C519 C518 1.386 . S
C519 C523 1.393 . S
C520 H512 0.950 . S
C520 C518 1.391 . S
C520 C521 1.400 . S
C521 C520 1.400 . S
C521 C522 1.398 . S
C521 C527 1.491 . S
C522 H513 0.950 . S
C522 C521 1.398 . S
C522 C523 1.391 . S
C523 H511 0.950 . S
C523 C519 1.393 . S
C523 C522 1.391 . S
C524 H514 0.950 . S
C524 C525 1.386 . S
C524 C526 1.391 . S
C525 C524 1.386 . S
C525 C529 1.393 . S
C526 H515 0.950 . S
C526 C524 1.391 . S
C526 C527 1.400 . S
C527 C521 1.491 . S
C527 C526 1.400 . S
C527 C528 1.398 . S
C528 H516 0.950 . S
C528 C527 1.398 . S
C528 C529 1.391 . S
C529 H517 0.950 . S
C529 C525 1.393 . S
C529 C528 1.391 . S
H530 C538 0.950 . S
H531 C543 0.950 . S
H532 C540 0.950 . S
H533 C542 0.950 . S
H534 C544 0.950 . S
H535 C546 0.950 . S
H536 C548 0.950 . S
H537 C549 0.950 . S
C538 H530 0.950 . S
C538 C539 1.386 . S
C538 C540 1.391 . S
C539 C538 1.386 . S
C539 C543 1.393 . S
C540 H532 0.950 . S
C540 C538 1.391 . S
C540 C541 1.400 . S
C541 C540 1.400 . S
C541 C542 1.398 . S
C541 C547 1.491 . S
C542 H533 0.950 . S
C542 C541 1.398 . S
C542 C543 1.391 . S
C543 H531 0.950 . S
C543 C539 1.393 . S
C543 C542 1.391 . S
C544 H534 0.950 . S
C544 C545 1.386 . S
C544 C546 1.391 . S
C545 C544 1.386 . S
C545 C549 1.393 . S
C546 H535 0.950 . S
C546 C544 1.391 . S
C546 C547 1.400 . S
C547 C541 1.491 . S
C547 C546 1.400 . S
C547 C548 1.398 . S
C548 H536 0.950 . S
C548 C547 1.398 . S
C548 C549 1.391 . S
C549 H537 0.950 . S
C549 C545 1.393 . S
C549 C548 1.391 . S
H550 C558 0.950 . S
H551 C563 0.950 . S
H552 C560 0.950 . S
H553 C562 0.950 . S
H554 C564 0.950 . S
H555 C566 0.950 . S
H556 C568 0.950 . S
H557 C569 0.950 . S
C558 H550 0.950 . S
C558 C559 1.386 . S
C558 C560 1.391 . S
C559 C558 1.386 . S
C559 C563 1.393 . S
C560 H552 0.950 . S
C560 C558 1.391 . S
C560 C561 1.400 . S
C561 C560 1.400 . S
C561 C562 1.398 . S
C561 C567 1.491 . S
C562 H553 0.950 . S
C562 C561 1.398 . S
C562 C563 1.391 . S
C563 H551 0.950 . S
C563 C559 1.393 . S
C563 C562 1.391 . S
C564 H554 0.950 . S
C564 C565 1.386 . S
C564 C566 1.391 . S
C565 C564 1.386 . S
C565 C569 1.393 . S
C566 H555 0.950 . S
C566 C564 1.391 . S
C566 C567 1.400 . S
C567 C561 1.491 . S
C567 C566 1.400 . S
C567 C568 1.398 . S
C568 H556 0.950 . S
C568 C567 1.398 . S
C568 C569 1.391 . S
C569 H557 0.950 . S
C569 C565 1.393 . S
C569 C568 1.391 . S
H570 C578 0.950 . S
H571 C583 0.950 . S
H572 C580 0.950 . S
H573 C582 0.950 . S
H574 C584 0.950 . S
H575 C586 0.950 . S
H576 C588 0.950 . S
H577 C589 0.950 . S
C578 H570 0.950 . S
C578 C579 1.386 . S
C578 C580 1.391 . S
C579 C578 1.386 . S
C579 C583 1.393 . S
C580 H572 0.950 . S
C580 C578 1.391 . S
C580 C581 1.400 . S
C581 C580 1.400 . S
C581 C582 1.398 . S
C581 C587 1.491 . S
C582 H573 0.950 . S
C582 C581 1.398 . S
C582 C583 1.391 . S
C583 H571 0.950 . S
C583 C579 1.393 . S
C583 C582 1.391 . S
C584 H574 0.950 . S
C584 C585 1.386 . S
C584 C586 1.391 . S
C585 C584 1.386 . S
C585 C589 1.393 . S
C586 H575 0.950 . S
C586 C584 1.391 . S
C586 C587 1.400 . S
C587 C581 1.491 . S
C587 C586 1.400 . S
C587 C588 1.398 . S
C588 H576 0.950 . S
C588 C587 1.398 . S
C588 C589 1.391 . S
C589 H577 0.950 . S
C589 C585 1.393 . S
C589 C588 1.391 . S
H590 C598 0.950 . S
H591 C603 0.950 . S
H592 C600 0.950 . S
H593 C602 0.950 . S
H594 C604 0.950 . S
H595 C606 0.950 . S
H596 C608 0.950 . S
H597 C609 0.950 . S
C598 H590 0.950 . S
C598 C599 1.386 . S
C598 C600 1.391 . S
C599 C598 1.386 . S
C599 C603 1.393 . S
C600 H592 0.950 . S
C600 C598 1.391 . S
C600 C601 1.400 . S
C601 C600 1.400 . S
C601 C602 1.398 . S
C601 C607 1.491 . S
C602 H593 0.950 . S
C602 C601 1.398 . S
C602 C603 1.391 . S
C603 H591 0.950 . S
C603 C599 1.393 . S
C603 C602 1.391 . S
C604 H594 0.950 . S
C604 C605 1.386 . S
C604 C606 1.391 . S
C605 C604 1.386 . S
C605 C609 1.393 . S
C606 H595 0.950 . S
C606 C604 1.391 . S
C606 C607 1.400 . S
C607 C601 1.491 . S
C607 C606 1.400 . S
C607 C608 1.398 . S
C608 H596 0.950 . S
C608 C607 1.398 . S
C608 C609 1.391 . S
C609 H597 0.950 . S
C609 C605 1.393 . S
C609 C608 1.391 . S
H610 C618 0.950 . S
H611 C623 0.950 . S
H612 C620 0.950 . S
H613 C622 0.950 . S
H614 C624 0.950 . S
H615 C626 0.950 . S
H616 C628 0.950 . S
H617 C629 0.950 . S
C618 H610 0.950 . S
C618 C619 1.386 . S
C618 C620 1.391 . S
C619 C618 1.386 . S
C619 C623 1.393 . S
C620 H612 0.950 . S
C620 C618 1.391 . S
C620 C621 1.400 . S
C621 C620 1.400 . S
C621 C622 1.398 . S
C621 C627 1.491 . S
C622 H613 0.950 . S
C622 C621 1.398 . S
C622 C623 1.391 . S
C623 H611 0.950 . S
C623 C619 1.393 . S
C623 C622 1.391 . S
C624 H614 0.950 . S
C624 C625 1.386 . S
C624 C626 1.391 . S
C625 C624 1.386 . S
C625 C629 1.393 . S
C626 H615 0.950 . S
C626 C624 1.391 . S
C626 C627 1.400 . S
C627 C621 1.491 . S
C627 C626 1.400 . S
C627 C628 1.398 . S
C628 H616 0.950 . S
C628 C627 1.398 . S
C628 C629 1.391 . S
C629 H617 0.950 . S
C629 C625 1.393 . S
C629 C628 1.391 . S
H630 C638 0.950 . S
H631 C643 0.950 . S
H632 C640 0.950 . S
H633 C642 0.950 . S
H634 C644 0.950 . S
H635 C646 0.950 . S
H636 C648 0.950 . S
H637 C649 0.950 . S
C638 H630 0.950 . S
C638 C639 1.386 . S
C638 C640 1.391 . S
C639 C638 1.386 . S
C639 C643 1.393 . S
C640 H632 0.950 . S
C640 C638 1.391 . S
C640 C641 1.400 . S
C641 C640 1.400 . S
C641 C642 1.398 . S
C641 C647 1.491 . S
C642 H633 0.950 . S
C642 C641 1.398 . S
C642 C643 1.391 . S
C643 H631 0.950 . S
C643 C639 1.393 . S
C643 C642 1.391 . S
C644 H634 0.950 . S
C644 C645 1.386 . S
C644 C646 1.391 . S
C645 C644 1.386 . S
C645 C649 1.393 . S
C646 H635 0.950 . S
C646 C644 1.391 . S
C646 C647 1.400 . S
C647 C641 1.491 . S
C647 C646 1.400 . S
C647 C648 1.398 . S
C648 H636 0.950 . S
C648 C647 1.398 . S
C648 C649 1.391 . S
C649 H637 0.950 . S
C649 C645 1.393 . S
C649 C648 1.391 . S
H650 C658 0.950 . S
H651 C663 0.950 . S
H652 C660 0.950 . S
H653 C662 0.950 . S
H654 C664 0.950 . S
H655 C666 0.950 . S
H656 C668 0.950 . S
H657 C669 0.950 . S
C658 H650 0.950 . S
C658 C659 1.386 . S
C658 C660 1.391 . S
C659 C658 1.386 . S
C659 C663 1.393 . S
C660 H652 0.950 . S
C660 C658 1.391 . S
C660 C661 1.400 . S
C661 C660 1.400 . S
C661 C662 1.398 . S
C661 C667 1.491 . S
C662 H653 0.950 . S
C662 C661 1.398 . S
C662 C663 1.391 . S
C663 H651 0.950 . S
C663 C659 1.393 . S
C663 C662 1.391 . S
C664 H654 0.950 . S
C664 C665 1.386 . S
C664 C666 1.391 . S
C665 C664 1.386 . S
C665 C669 1.393 . S
C666 H655 0.950 . S
C666 C664 1.391 . S
C666 C667 1.400 . S
C667 C661 1.491 . S
C667 C666 1.400 . S
C667 C668 1.398 . S
C668 H656 0.950 . S
C668 C667 1.398 . S
C668 C669 1.391 . S
C669 H657 0.950 . S
C669 C665 1.393 . S
C669 C668 1.391 . S
H670 C678 0.950 . S
H671 C683 0.950 . S
H672 C680 0.950 . S
H673 C682 0.950 . S
H674 C684 0.950 . S
H675 C686 0.950 . S
H676 C688 0.950 . S
H677 C689 0.950 . S
C678 H670 0.950 . S
C678 C679 1.386 . S
C678 C680 1.391 . S
C679 C678 1.386 . S
C679 C683 1.393 . S
C680 H672 0.950 . S
C680 C678 1.391 . S
C680 C681 1.400 . S
C681 C680 1.400 . S
C681 C682 1.398 . S
C681 C687 1.491 . S
C682 H673 0.950 . S
C682 C681 1.398 . S
C682 C683 1.391 . S
C683 H671 0.950 . S
C683 C679 1.393 . S
C683 C682 1.391 . S
C684 H674 0.950 . S
C684 C685 1.386 . S
C684 C686 1.391 . S
C685 C684 1.386 . S
C685 C689 1.393 . S
C686 H675 0.950 . S
C686 C684 1.391 . S
C686 C687 1.400 . S
C687 C681 1.491 . S
C687 C686 1.400 . S
C687 C688 1.398 . S
C688 H676 0.950 . S
C688 C687 1.398 . S
C688 C689 1.391 . S
C689 H677 0.950 . S
C689 C685 1.393 . S
C689 C688 1.391 . S
H690 C698 0.950 . S
H691 C703 0.950 . S
H692 C700 0.950 . S
H693 C702 0.950 . S
H694 C704 0.950 . S
H695 C706 0.950 . S
H696 C708 0.950 . S
H697 C709 0.950 . S
C698 H690 0.950 . S
C698 C699 1.386 . S
C698 C700 1.391 . S
C699 C698 1.386 . S
C699 C703 1.393 . S
C700 H692 0.950 . S
C700 C698 1.391 . S
C700 C701 1.400 . S
C701 C700 1.400 . S
C701 C702 1.398 . S
C701 C707 1.491 . S
C702 H693 0.950 . S
C702 C701 1.398 . S
C702 C703 1.391 . S
C703 H691 0.950 . S
C703 C699 1.393 . S
C703 C702 1.391 . S
C704 H694 0.950 . S
C704 C705 1.386 . S
C704 C706 1.391 . S
C705 C704 1.386 . S
C705 C709 1.393 . S
C706 H695 0.950 . S
C706 C704 1.391 . S
C706 C707 1.400 . S
C707 C701 1.491 . S
C707 C706 1.400 . S
C707 C708 1.398 . S
C708 H696 0.950 . S
C708 C707 1.398 . S
C708 C709 1.391 . S
C709 H697 0.950 . S
C709 C705 1.393 . S
C709 C708 1.391 . S
H710 C718 0.950 . S
H711 C723 0.950 . S
H712 C720 0.950 . S
H713 C722 0.950 . S
H714 C724 0.950 . S
H715 C726 0.950 . S
H716 C728 0.950 . S
H717 C729 0.950 . S
C718 H710 0.950 . S
C718 C719 1.386 . S
C718 C720 1.391 . S
C719 C718 1.386 . S
C719 C723 1.393 . S
C720 H712 0.950 . S
C720 C718 1.391 . S
C720 C721 1.400 . S
C721 C720 1.400 . S
C721 C722 1.398 . S
C721 C727 1.491 . S
C722 H713 0.950 . S
C722 C721 1.398 . S
C722 C723 1.391 . S
C723 H711 0.950 . S
C723 C719 1.393 . S
C723 C722 1.391 . S
C724 H714 0.950 . S
C724 C725 1.386 . S
C724 C726 1.391 . S
C725 C724 1.386 . S
C725 C729 1.393 . S
C726 H715 0.950 . S
C726 C724 1.391 . S
C726 C727 1.400 . S
C727 C721 1.491 . S
C727 C726 1.400 . S
C727 C728 1.398 . S
C728 H716 0.950 . S
C728 C727 1.398 . S
C728 C729 1.391 . S
C729 H717 0.950 . S
C729 C725 1.393 . S
C729 C728 1.391 . S
H730 C738 0.950 . S
H731 C743 0.950 . S
H732 C740 0.950 . S
H733 C742 0.950 . S
H734 C744 0.950 . S
H735 C746 0.950 . S
H736 C748 0.950 . S
H737 C749 0.950 . S
C738 H730 0.950 . S
C738 C739 1.386 . S
C738 C740 1.391 . S
C739 C738 1.386 . S
C739 C743 1.393 . S
C740 H732 0.950 . S
C740 C738 1.391 . S
C740 C741 1.400 . S
C741 C740 1.400 . S
C741 C742 1.398 . S
C741 C747 1.491 . S
C742 H733 0.950 . S
C742 C741 1.398 . S
C742 C743 1.391 . S
C743 H731 0.950 . S
C743 C739 1.393 . S
C743 C742 1.391 . S
C744 H734 0.950 . S
C744 C745 1.386 . S
C744 C746 1.391 . S
C745 C744 1.386 . S
C745 C749 1.393 . S
C746 H735 0.950 . S
C746 C744 1.391 . S
C746 C747 1.400 . S
C747 C741 1.491 . S
C747 C746 1.400 . S
C747 C748 1.398 . S
C748 H736 0.950 . S
C748 C747 1.398 . S
C748 C749 1.391 . S
C749 H737 0.950 . S
C749 C745 1.393 . S
C749 C748 1.391 . S
H750 C758 0.950 . S
H751 C763 0.950 . S
H752 C760 0.950 . S
H753 C762 0.950 . S
H754 C764 0.950 . S
H755 C766 0.950 . S
H756 C768 0.950 . S
H757 C769 0.950 . S
C758 H750 0.950 . S
C758 C759 1.386 . S
C758 C760 1.391 . S
C759 C758 1.386 . S
C759 C763 1.393 . S
C760 H752 0.950 . S
C760 C758 1.391 . S
C760 C761 1.400 . S
C761 C760 1.400 . S
C761 C762 1.398 . S
C761 C767 1.491 . S
C762 H753 0.950 . S
C762 C761 1.398 . S
C762 C763 1.391 . S
C763 H751 0.950 . S
C763 C759 1.393 . S
C763 C762 1.391 . S
C764 H754 0.950 . S
C764 C765 1.386 . S
C764 C766 1.391 . S
C765 C764 1.386 . S
C765 C769 1.393 . S
C766 H755 0.950 . S
C766 C764 1.391 . S
C766 C767 1.400 . S
C767 C761 1.491 . S
C767 C766 1.400 . S
C767 C768 1.398 . S
C768 H756 0.950 . S
C768 C767 1.398 . S
C768 C769 1.391 . S
C769 H757 0.950 . S
C769 C765 1.393 . S
C769 C768 1.391 . S
H770 C778 0.950 . S
H771 C783 0.950 . S
H772 C780 0.950 . S
H773 C782 0.950 . S
H774 C784 0.950 . S
H775 C786 0.950 . S
H776 C788 0.950 . S
H777 C789 0.950 . S
C778 H770 0.950 . S
C778 C779 1.386 . S
C778 C780 1.391 . S
C779 C778 1.386 . S
C779 C783 1.393 . S
C780 H772 0.950 . S
C780 C778 1.391 . S
C780 C781 1.400 . S
C781 C780 1.400 . S
C781 C782 1.398 . S
C781 C787 1.491 . S
C782 H773 0.950 . S
C782 C781 1.398 . S
C782 C783 1.391 . S
C783 H771 0.950 . S
C783 C779 1.393 . S
C783 C782 1.391 . S
C784 H774 0.950 . S
C784 C785 1.386 . S
C784 C786 1.391 . S
C785 C784 1.386 . S
C785 C789 1.393 . S
C786 H775 0.950 . S
C786 C784 1.391 . S
C786 C787 1.400 . S
C787 C781 1.491 . S
C787 C786 1.400 . S
C787 C788 1.398 . S
C788 H776 0.950 . S
C788 C787 1.398 . S
C788 C789 1.391 . S
C789 H777 0.950 . S
C789 C785 1.393 . S
C789 C788 1.391 . S
H790 C798 0.950 . S
H791 C803 0.950 . S
H792 C800 0.950 . S
H793 C802 0.950 . S
H794 C804 0.950 . S
H795 C806 0.950 . S
H796 C808 0.950 . S
H797 C809 0.950 . S
C798 H790 0.950 . S
C798 C799 1.386 . S
C798 C800 1.391 . S
C799 C798 1.386 . S
C799 C803 1.393 . S
C800 H792 0.950 . S
C800 C798 1.391 . S
C800 C801 1.400 . S
C801 C800 1.400 . S
C801 C802 1.398 . S
C801 C807 1.491 . S
C802 H793 0.950 . S
C802 C801 1.398 . S
C802 C803 1.391 . S
C803 H791 0.950 . S
C803 C799 1.393 . S
C803 C802 1.391 . S
C804 H794 0.950 . S
C804 C805 1.386 . S
C804 C806 1.391 . S
C805 C804 1.386 . S
C805 C809 1.393 . S
C806 H795 0.950 . S
C806 C804 1.391 . S
C806 C807 1.400 . S
C807 C801 1.491 . S
C807 C806 1.400 . S
C807 C808 1.398 . S
C808 H796 0.950 . S
C808 C807 1.398 . S
C808 C809 1.391 . S
C809 H797 0.950 . S
C809 C805 1.393 . S
C809 C808 1.391 . S
H810 C818 0.950 . S
H811 C823 0.950 . S
H812 C820 0.950 . S
H813 C822 0.950 . S
H814 C824 0.950 . S
H815 C826 0.950 . S
H816 C828 0.950 . S
H817 C829 0.950 . S
C818 H810 0.950 . S
C818 C819 1.386 . S
C818 C820 1.391 . S
C819 C818 1.386 . S
C819 C823 1.393 . S
C820 H812 0.950 . S
C820 C818 1.391 . S
C820 C821 1.400 . S
C821 C820 1.400 . S
C821 C822 1.398 . S
C821 C827 1.491 . S
C822 H813 0.950 . S
C822 C821 1.398 . S
C822 C823 1.391 . S
C823 H811 0.950 . S
C823 C819 1.393 . S
C823 C822 1.391 . S
C824 H814 0.950 . S
C824 C825 1.386 . S
C824 C826 1.391 . S
C825 C824 1.386 . S
C825 C829 1.393 . S
C826 H815 0.950 . S
C826 C824 1.391 . S
C826 C827 1.400 . S
C827 C821 1.491 . S
C827 C826 1.400 . S
C827 C828 1.398 . S
C828 H816 0.950 . S
C828 C827 1.398 . S
C828 C829 1.391 . S
C829 H817 0.950 . S
C829 C825 1.393 . S
C829 C828 1.391 . S
H830 C838 0.950 . S
H831 C843 0.950 . S
H832 C840 0.950 . S
H833 C842 0.950 . S
H834 C844 0.950 . S
H835 C846 0.950 . S
H836 C848 0.950 . S
H837 C849 0.950 . S
C838 H830 0.950 . S
C838 C839 1.386 . S
C838 C840 1.391 . S
C839 C838 1.386 . S
C839 C843 1.393 . S
C840 H832 0.950 . S
C840 C838 1.391 . S
C840 C841 1.400 . S
C841 C840 1.400 . S
C841 C842 1.398 . S
C841 C847 1.491 . S
C842 H833 0.950 . S
C842 C841 1.398 . S
C842 C843 1.391 . S
C843 H831 0.950 . S
C843 C839 1.393 . S
C843 C842 1.391 . S
C844 H834 0.950 . S
C844 C845 1.386 . S
C844 C846 1.391 . S
C845 C844 1.386 . S
C845 C849 1.393 . S
C846 H835 0.950 . S
C846 C844 1.391 . S
C846 C847 1.400 . S
C847 C841 1.491 . S
C847 C846 1.400 . S
C847 C848 1.398 . S
C848 H836 0.950 . S
C848 C847 1.398 . S
C848 C849 1.391 . S
C849 H837 0.950 . S
C849 C845 1.393 . S
C849 C848 1.391 . S
H850 C858 0.950 . S
H851 C863 0.950 . S
H852 C860 0.950 . S
H853 C862 0.950 . S
H854 C864 0.950 . S
H855 C866 0.950 . S
H856 C868 0.950 . S
H857 C869 0.950 . S
C858 H850 0.950 . S
C858 C859 1.386 . S
C858 C860 1.391 . S
C859 C858 1.386 . S
C859 C863 1.393 . S
C860 H852 0.950 . S
C860 C858 1.391 . S
C860 C861 1.400 . S
C861 C860 1.400 . S
C861 C862 1.398 . S
C861 C867 1.491 . S
C862 H853 0.950 . S
C862 C861 1.398 . S
C862 C863 1.391 . S
C863 H851 0.950 . S
C863 C859 1.393 . S
C863 C862 1.391 . S
C864 H854 0.950 . S
C864 C865 1.386 . S
C864 C866 1.391 . S
C865 C864 1.386 . S
C865 C869 1.393 . S
C866 H855 0.950 . S
C866 C864 1.391 . S
C866 C867 1.400 . S
C867 C861 1.491 . S
C867 C866 1.400 . S
C867 C868 1.398 . S
C868 H856 0.950 . S
C868 C867 1.398 . S
C868 C869 1.391 . S
C869 H857 0.950 . S
C869 C865 1.393 . S
C869 C868 1.391 . S
C405 C94 1.548 . S
C399 C4 1.550 . S
C425 C163 1.537 . S
C419 C13 1.546 . S
C445 C101 1.546 . S
C439 C25 1.550 . S
C465 C164 1.541 . S
C459 C34 1.543 . S
C485 C217 1.543 . S
C479 C7 1.546 . S
C505 C253 1.520 . S
C499 C14 1.517 . S
C519 C23 1.532 . S
C525 C313 1.528 . S
C545 C376 1.523 . S
C539 C31 1.524 . S
C565 C216 1.533 . S
C559 C16 1.542 . S
C579 C22 1.521 . S
C585 C260 1.523 . S
C605 C306 1.533 . S
C599 C32 1.532 . S
C625 C375 1.520 . S
C619 C5 1.524 . S
C639 C43 1.550 . S
C645 C154 1.545 . S
C665 C111 1.534 . S
C659 C52 1.547 . S
C679 C58 1.551 . S
C685 C147 1.539 . S
C699 C68 1.547 . S
C705 C110 1.545 . S
C725 C322 1.536 . S
C719 C40 1.536 . S
C745 C366 1.516 . S
C739 C50 1.516 . S
C765 C200 1.548 . S
C759 C59 1.550 . S
C779 C70 1.510 . S
C785 C269 1.511 . S
C805 C323 1.530 . S
C799 C49 1.535 . S
C825 C359 1.512 . S
C819 C61 1.510 . S
C845 C207 1.544 . S
C839 C67 1.550 . S
C859 C41 1.518 . S
C865 C270 1.513 . S
