# Generated by pormake.
# Topology zzz, (3,6)-cn, num edge types: 1
# Building blocks:
#     Node 0, Type 0, BuildingBlock: MIDCAF_clean_linker_0, # of connection points: 3
#     Node 1, Type 0, BuildingBlock: MIDCAF_clean_linker_0, # of connection points: 3
#     Node 2, Type 0, BuildingBlock: MIDCAF_clean_linker_0, # of connection points: 3
#     Node 3, Type 0, BuildingBlock: MIDCAF_clean_linker_0, # of connection points: 3
#     Node 4, Type 0, BuildingBlock: MIDCAF_clean_linker_0, # of connection points: 3
#     Node 5, Type 0, BuildingBlock: MIDCAF_clean_linker_0, # of connection points: 3
#     Node 6, Type 0, BuildingBlock: MIDCAF_clean_linker_0, # of connection points: 3
#     Node 7, Type 0, BuildingBlock: MIDCAF_clean_linker_0, # of connection points: 3
#     Node 8, Type 1, BuildingBlock: FUNLAD_clean_sbu_0, # of connection points: 6
#     Node 9, Type 1, BuildingBlock: FUNLAD_clean_sbu_0, # of connection points: 6
#     Node 10, Type 1, BuildingBlock: FUNLAD_clean_sbu_0, # of connection points: 6
#     Node 11, Type 1, BuildingBlock: FUNLAD_clean_sbu_0, # of connection points: 6
#     Edge 12, Type (0, 1), BuildingBlock: XIVTED_clean_linker_0, # of connection points: 2
#     Edge 13, Type (0, 1), BuildingBlock: XIVTED_clean_linker_0, # of connection points: 2
#     Edge 14, Type (0, 1), BuildingBlock: XIVTED_clean_linker_0, # of connection points: 2
#     Edge 15, Type (0, 1), BuildingBlock: XIVTED_clean_linker_0, # of connection points: 2
#     Edge 16, Type (0, 1), BuildingBlock: XIVTED_clean_linker_0, # of connection points: 2
#     Edge 17, Type (0, 1), BuildingBlock: XIVTED_clean_linker_0, # of connection points: 2
#     Edge 18, Type (0, 1), BuildingBlock: XIVTED_clean_linker_0, # of connection points: 2
#     Edge 19, Type (0, 1), BuildingBlock: XIVTED_clean_linker_0, # of connection points: 2
#     Edge 20, Type (0, 1), BuildingBlock: XIVTED_clean_linker_0, # of connection points: 2
#     Edge 21, Type (0, 1), BuildingBlock: XIVTED_clean_linker_0, # of connection points: 2
#     Edge 22, Type (0, 1), BuildingBlock: XIVTED_clean_linker_0, # of connection points: 2
#     Edge 23, Type (0, 1), BuildingBlock: XIVTED_clean_linker_0, # of connection points: 2
#     Edge 24, Type (0, 1), BuildingBlock: XIVTED_clean_linker_0, # of connection points: 2
#     Edge 25, Type (0, 1), BuildingBlock: XIVTED_clean_linker_0, # of connection points: 2
#     Edge 26, Type (0, 1), BuildingBlock: XIVTED_clean_linker_0, # of connection points: 2
#     Edge 27, Type (0, 1), BuildingBlock: XIVTED_clean_linker_0, # of connection points: 2
#     Edge 28, Type (0, 1), BuildingBlock: XIVTED_clean_linker_0, # of connection points: 2
#     Edge 29, Type (0, 1), BuildingBlock: XIVTED_clean_linker_0, # of connection points: 2
#     Edge 30, Type (0, 1), BuildingBlock: XIVTED_clean_linker_0, # of connection points: 2
#     Edge 31, Type (0, 1), BuildingBlock: XIVTED_clean_linker_0, # of connection points: 2
#     Edge 32, Type (0, 1), BuildingBlock: XIVTED_clean_linker_0, # of connection points: 2
#     Edge 33, Type (0, 1), BuildingBlock: XIVTED_clean_linker_0, # of connection points: 2
#     Edge 34, Type (0, 1), BuildingBlock: XIVTED_clean_linker_0, # of connection points: 2
#     Edge 35, Type (0, 1), BuildingBlock: XIVTED_clean_linker_0, # of connection points: 2
# Relax obj value: 0.281
# Max RMSD: 0.227
# Mean RMSD: 0.193
data_MOF--net-zzz--node1-FUNLAD_clean_sbu_0--node2-MIDCAF_clean_linker_0--edge1-XIVTED_clean_linker_0
_symmetry_space_group_name_H-M    P1
_symmetry_Int_Tables_number       1
_symmetry_cell_setting            triclinic
loop_
_symmetry_equiv_pos_as_xyz
'x, y, z'
_cell_length_a     57.822228
_cell_length_b     62.500123
_cell_length_c     22.624293
_cell_angle_alpha  86.746199
_cell_angle_beta   87.421438
_cell_angle_gamma 92.335067
loop_
_atom_site_label
_atom_site_type_symbol
_atom_site_fract_x
_atom_site_fract_y
_atom_site_fract_z
_atom_type_partial_charge
C0 C 0.85823 0.41987 0.37845 0.0
C1 C 0.85213 0.43973 0.39935 0.0
C2 C 0.83345 0.45017 0.37429 0.0
C3 C 0.82172 0.44122 0.32792 0.0
H4 H 0.76566 0.44693 0.2035 0.0
H5 H 0.73068 0.45837 0.15525 0.0
H6 H 0.7305 0.40149 0.05547 0.0
H7 H 0.76517 0.39014 0.10312 0.0
H8 H 0.81923 0.38093 0.05322 0.0
H9 H 0.84883 0.37728 0.97489 0.0
H10 H 0.90213 0.38745 0.09942 0.0
H11 H 0.87278 0.39032 0.17782 0.0
H12 H 0.85245 0.39607 0.31634 0.0
H13 H 0.87272 0.41149 0.39581 0.0
H14 H 0.82823 0.46542 0.38969 0.0
H15 H 0.80796 0.44993 0.30794 0.0
N16 N 0.79819 0.41888 0.232 0.0
N17 N 0.80513 0.40025 0.1459 0.0
N18 N 0.83343 0.40226 0.21588 0.0
C19 C 0.7908 0.41175 0.17988 0.0
C20 C 0.82652 0.3955 0.16343 0.0
C21 C 0.81946 0.41376 0.25063 0.0
C22 C 0.76821 0.41768 0.15694 0.0
C23 C 0.75789 0.43674 0.17197 0.0
C24 C 0.73801 0.44337 0.14404 0.0
C25 C 0.72791 0.43084 0.1015 0.0
C26 C 0.73775 0.4114 0.0884 0.0
C27 C 0.75771 0.40496 0.11552 0.0
C28 C 0.84361 0.38677 0.12133 0.0
C29 C 0.83725 0.38168 0.06437 0.0
C30 C 0.85424 0.37962 0.01937 0.0
C31 C 0.87785 0.38281 0.03038 0.0
C32 C 0.88415 0.385 0.08908 0.0
C33 C 0.8672 0.38687 0.13417 0.0
C34 C 0.82871 0.42186 0.30547 0.0
C35 C 0.8467 0.41108 0.3323 0.0
C36 C 0.90795 0.82382 0.2893 0.0
C37 C 0.90899 0.81444 0.34703 0.0
C38 C 0.91375 0.79251 0.35408 0.0
C39 C 0.91984 0.78098 0.30472 0.0
H40 H 0.98291 0.73028 0.11083 0.0
H41 H 0.98185 0.69398 0.07746 0.0
H42 H 0.90756 0.68943 0.10904 0.0
H43 H 0.90868 0.72609 0.14377 0.0
H44 H 0.97475 0.78991 0.00465 0.0
H45 H 0.9978 0.81779 0.94668 0.0
H46 H 0.01501 0.84741 0.10841 0.0
H47 H 0.99047 0.82039 0.16528 0.0
H48 H 0.91498 0.82064 0.19684 0.0
H49 H 0.90453 0.84063 0.28173 0.0
H50 H 0.91431 0.78468 0.39791 0.0
H51 H 0.92536 0.76471 0.31158 0.0
N52 N 0.93312 0.76122 0.18749 0.0
N53 N 0.96218 0.76743 0.11129 0.0
N54 N 0.95034 0.79571 0.16694 0.0
C55 C 0.94686 0.75375 0.14326 0.0
C56 C 0.96404 0.78838 0.12323 0.0
C57 C 0.93479 0.78238 0.19895 0.0
C58 C 0.94587 0.73096 0.1297 0.0
C59 C 0.96637 0.72146 0.11147 0.0
C60 C 0.96578 0.70063 0.0927 0.0
C61 C 0.94463 0.68892 0.0908 0.0
C62 C 0.92407 0.69819 0.11012 0.0
C63 C 0.92473 0.71902 0.13023 0.0
C64 C 0.9806 0.80329 0.08909 0.0
C65 C 0.98371 0.80231 0.02755 0.0
C66 C 0.99711 0.81825 0.99446 0.0
C67 C 0.00814 0.83518 0.02256 0.0
C68 C 0.00624 0.83512 0.08483 0.0
C69 C 0.99232 0.81955 0.1176 0.0
C70 C 0.92134 0.79129 0.24788 0.0
C71 C 0.91412 0.81239 0.24038 0.0
C72 C 0.71401 0.98857 0.34874 0.0
C73 C 0.70919 0.00562 0.38486 0.0
C74 C 0.72185 0.02526 0.3733 0.0
C75 C 0.73678 0.02856 0.32294 0.0
H76 H 0.8155 0.02236 0.17421 0.0
H77 H 0.85177 0.01859 0.11654 0.0
H78 H 0.81279 0.99533 0.97259 0.0
H79 H 0.77692 0.00056 0.02872 0.0
H80 H 0.73051 0.03217 0.00865 0.0
H81 H 0.69651 0.04101 0.95361 0.0
H82 H 0.6621 0.06022 0.1143 0.0
H83 H 0.69579 0.05109 0.16949 0.0
H84 H 0.73075 0.97914 0.26824 0.0
H85 H 0.70455 0.97327 0.35594 0.0
H86 H 0.71899 0.0386 0.40088 0.0
H87 H 0.74442 0.04449 0.31186 0.0
N88 N 0.76716 0.01286 0.19554 0.0
N89 N 0.75479 0.02635 0.10325 0.0
N90 N 0.73053 0.02751 0.18821 0.0
C91 C 0.77135 0.0172 0.13603 0.0
C92 C 0.73442 0.03175 0.12923 0.0
C93 C 0.74657 0.01808 0.22149 0.0
C94 C 0.79344 0.01194 0.1057 0.0
C95 C 0.81485 0.01625 0.13043 0.0
C96 C 0.83564 0.01402 0.09722 0.0
C97 C 0.83544 0.00701 0.03899 0.0
C98 C 0.81387 0.00154 0.01612 0.0
C99 C 0.7932 0.00427 0.04862 0.0
C100 C 0.7157 0.04048 0.09369 0.0
C101 C 0.71588 0.03867 0.03202 0.0
C102 C 0.69642 0.04385 0.00039 0.0
C103 C 0.67649 0.05102 0.02982 0.0
C104 C 0.67702 0.05432 0.09062 0.0
C105 C 0.69636 0.04908 0.12221 0.0
C106 C 0.7398 0.01217 0.28389 0.0
C107 C 0.72918 0.99185 0.29862 0.0
C108 C 0.51961 0.62888 0.14079 0.0
C109 C 0.51489 0.63123 0.08043 0.0
C110 C 0.52018 0.65112 0.04952 0.0
C111 C 0.5306 0.66804 0.07787 0.0
H112 H 0.55991 0.72905 0.05136 0.0
H113 H 0.55833 0.76409 0.00076 0.0
H114 H 0.56332 0.79394 0.16759 0.0
H115 H 0.56547 0.7584 0.21881 0.0
H116 H 0.56153 0.71315 0.35348 0.0
H117 H 0.56702 0.69572 0.4515 0.0
H118 H 0.60192 0.64466 0.36791 0.0
H119 H 0.59663 0.66216 0.27145 0.0
H120 H 0.53385 0.6432 0.21533 0.0
H121 H 0.51539 0.61391 0.16619 0.0
H122 H 0.51709 0.6534 0.00277 0.0
H123 H 0.53491 0.68298 0.0524 0.0
N124 N 0.55009 0.70302 0.14186 0.0
N125 N 0.56998 0.71502 0.22315 0.0
N126 N 0.55786 0.67874 0.21973 0.0
C127 C 0.56088 0.71919 0.16926 0.0
C128 C 0.56874 0.69458 0.24788 0.0
C129 C 0.54829 0.68283 0.16706 0.0
C130 C 0.56242 0.74092 0.13931 0.0
C131 C 0.56077 0.74303 0.0775 0.0
C132 C 0.55977 0.76316 0.0484 0.0
C133 C 0.56014 0.78179 0.08026 0.0
C134 C 0.56295 0.77986 0.14182 0.0
C135 C 0.56415 0.75955 0.17115 0.0
C136 C 0.57849 0.68883 0.30529 0.0
C137 C 0.57129 0.69873 0.35664 0.0
C138 C 0.57425 0.68862 0.41258 0.0
C139 C 0.58454 0.66855 0.41765 0.0
C140 C 0.59405 0.66009 0.36614 0.0
C141 C 0.59093 0.67007 0.31061 0.0
C142 C 0.53612 0.66538 0.13762 0.0
C143 C 0.53019 0.64571 0.16898 0.0
C144 C 0.18215 0.57856 0.0203 0.0
C145 C 0.18676 0.55777 0.00364 0.0
C146 C 0.20409 0.54658 0.03258 0.0
C147 C 0.21558 0.55558 0.07926 0.0
H148 H 0.28247 0.56737 0.18243 0.0
H149 H 0.31723 0.55665 0.2328 0.0
H150 H 0.28524 0.57262 0.40002 0.0
H151 H 0.25141 0.58386 0.35031 0.0
H152 H 0.21315 0.61981 0.34705 0.0
H153 H 0.18272 0.62411 0.42282 0.0
H154 H 0.13108 0.60663 0.29988 0.0
H155 H 0.16128 0.60313 0.22378 0.0
H156 H 0.18865 0.60311 0.07986 0.0
H157 H 0.16875 0.58763 0.99992 0.0
H158 H 0.20827 0.53063 0.02041 0.0
H159 H 0.22797 0.5462 0.10276 0.0
N160 N 0.23768 0.57767 0.17829 0.0
N161 N 0.22795 0.59557 0.26396 0.0
N162 N 0.20262 0.59531 0.18673 0.0
C163 C 0.24309 0.58387 0.23306 0.0
C164 C 0.20771 0.60137 0.24127 0.0
C165 C 0.21745 0.58366 0.15471 0.0
C166 C 0.26423 0.57674 0.26204 0.0
C167 C 0.28298 0.56862 0.2299 0.0
C168 C 0.30285 0.5624 0.25883 0.0
C169 C 0.30423 0.56406 0.32047 0.0
C170 C 0.2852 0.57171 0.35237 0.0
C171 C 0.26561 0.57807 0.32365 0.0
C172 C 0.18969 0.61037 0.28005 0.0
C173 C 0.19526 0.61759 0.33559 0.0
C174 C 0.17781 0.62003 0.37908 0.0
C175 C 0.15452 0.615 0.36808 0.0
C176 C 0.14881 0.61057 0.31013 0.0
C177 C 0.16624 0.60838 0.26641 0.0
C178 C 0.20972 0.57581 0.09804 0.0
C179 C 0.19348 0.58744 0.06669 0.0
C180 C 0.13186 0.19446 0.07343 0.0
C181 C 0.11597 0.1923 0.02859 0.0
C182 C 0.096 0.20445 0.03009 0.0
C183 C 0.09086 0.21664 0.07839 0.0
H184 H 0.10648 0.28484 0.20486 0.0
H185 H 0.11054 0.31949 0.24982 0.0
H186 H 0.0954 0.28803 0.42295 0.0
H187 H 0.09138 0.25368 0.37851 0.0
H188 H 0.04369 0.21801 0.36528 0.0
H189 H 0.01979 0.19071 0.42331 0.0
H190 H 0.04273 0.14284 0.30572 0.0
H191 H 0.06574 0.17016 0.24665 0.0
H192 H 0.13818 0.20668 0.15831 0.0
H193 H 0.14749 0.18548 0.07323 0.0
H194 H 0.08322 0.203 0.99684 0.0
H195 H 0.07433 0.22418 0.08128 0.0
N196 N 0.10204 0.24173 0.20694 0.0
N197 N 0.07819 0.23131 0.29157 0.0
N198 N 0.08158 0.20832 0.2141 0.0
C199 C 0.09295 0.24601 0.26144 0.0
C200 C 0.0724 0.21245 0.26814 0.0
C201 C 0.09631 0.22278 0.18348 0.0
C202 C 0.09837 0.26658 0.28808 0.0
C203 C 0.10444 0.28533 0.25258 0.0
C204 C 0.10666 0.30514 0.27824 0.0
C205 C 0.10324 0.30646 0.33986 0.0
C206 C 0.09838 0.28753 0.37544 0.0
C207 C 0.09586 0.26786 0.34985 0.0
C208 C 0.0568 0.19625 0.30163 0.0
C209 C 0.04344 0.20168 0.35155 0.0
C210 C 0.02976 0.18601 0.3849 0.0
C211 C 0.02938 0.16449 0.36951 0.0
C212 C 0.04221 0.15925 0.31847 0.0
C213 C 0.05564 0.17495 0.28478 0.0
C214 C 0.10571 0.21716 0.12552 0.0
C215 C 0.12672 0.20679 0.12169 0.0
C216 C 0.32405 0.97176 0.03726 0.0
C217 C 0.32795 0.99261 0.01082 0.0
C218 C 0.31522 0.0093 0.03392 0.0
C219 C 0.30076 0.00555 0.08541 0.0
H220 H 0.22307 0.97437 0.22673 0.0
H221 H 0.18641 0.97752 0.28359 0.0
H222 H 0.22313 0.01089 0.41578 0.0
H223 H 0.25947 0.00647 0.36087 0.0
H224 H 0.30195 0.95374 0.38535 0.0
H225 H 0.33415 0.9436 0.44611 0.0
H226 H 0.38256 0.97165 0.30896 0.0
H227 H 0.35076 0.98045 0.24796 0.0
H228 H 0.30873 0.9522 0.11042 0.0
H229 H 0.33359 0.95845 0.02182 0.0
H230 H 0.31739 0.02549 0.01424 0.0
H231 H 0.29286 0.019 0.10532 0.0
N232 N 0.27097 0.98719 0.20162 0.0
N233 N 0.28374 0.97851 0.2974 0.0
N234 N 0.30877 0.97591 0.21458 0.0
C235 C 0.26673 0.98508 0.26171 0.0
C236 C 0.3048 0.9739 0.27393 0.0
C237 C 0.29219 0.98245 0.17818 0.0
C238 C 0.24408 0.98999 0.28973 0.0
C239 C 0.2231 0.98259 0.2676 0.0
C240 C 0.2021 0.98445 0.30031 0.0
C241 C 0.20167 0.99408 0.3553 0.0
C242 C 0.22267 0.00266 0.37499 0.0
C243 C 0.24356 0.00037 0.34312 0.0
C244 C 0.32385 0.96779 0.31188 0.0
C245 C 0.31955 0.95754 0.36837 0.0
C246 C 0.33802 0.95179 0.40315 0.0
C247 C 0.36112 0.95657 0.38247 0.0
C248 C 0.36519 0.96699 0.32597 0.0
C249 C 0.34685 0.97229 0.291 0.0
C250 C 0.29877 0.98506 0.11441 0.0
C251 C 0.30968 0.96808 0.08829 0.0
C252 C 0.49669 0.37125 0.29131 0.0
C253 C 0.51472 0.36691 0.32945 0.0
C254 C 0.52137 0.34559 0.33821 0.0
C255 C 0.50996 0.32903 0.31059 0.0
H256 H 0.46783 0.26918 0.35564 0.0
H257 H 0.47085 0.23429 0.40609 0.0
H258 H 0.47311 0.20492 0.2377 0.0
H259 H 0.46939 0.24031 0.18659 0.0
H260 H 0.46844 0.28565 0.05639 0.0
H261 H 0.46433 0.30324 0.95795 0.0
H262 H 0.42823 0.35417 0.03868 0.0
H263 H 0.43219 0.33655 0.13571 0.0
H264 H 0.47171 0.35864 0.23407 0.0
H265 H 0.49064 0.38732 0.28443 0.0
H266 H 0.53542 0.34162 0.36632 0.0
H267 H 0.51546 0.31279 0.31834 0.0
N268 N 0.47967 0.29562 0.26616 0.0
N269 N 0.46008 0.28357 0.18448 0.0
N270 N 0.47005 0.32024 0.19086 0.0
C271 C 0.46951 0.27935 0.23793 0.0
C272 C 0.4601 0.30422 0.16141 0.0
C273 C 0.48013 0.31604 0.24277 0.0
C274 C 0.46878 0.25753 0.26704 0.0
C275 C 0.46886 0.25531 0.32915 0.0
C276 C 0.47071 0.23528 0.35815 0.0
C277 C 0.47282 0.21687 0.32591 0.0
C278 C 0.47156 0.21883 0.26379 0.0
C279 C 0.46946 0.23905 0.23453 0.0
C280 C 0.45083 0.30992 0.10334 0.0
C281 C 0.4587 0.30006 0.05248 0.0
C282 C 0.45653 0.31026 0.99629 0.0
C283 C 0.44635 0.33035 0.99043 0.0
C284 C 0.43607 0.33873 0.04114 0.0
C285 C 0.43842 0.32867 0.09698 0.0
C286 C 0.49197 0.33347 0.27268 0.0
C287 C 0.48561 0.35476 0.26283 0.0
C288 C 0.03258 0.96569 0.76375 0.0
N289 N 0.99 0.96722 0.61908 0.0
C290 C 1.00126 0.94954 0.60359 0.0
C291 C 0.9892 0.93237 0.5807 0.0
C292 C 0.96522 0.93324 0.57389 0.0
C293 C 0.95417 0.95204 0.58798 0.0
C294 C 0.96696 0.96893 0.61071 0.0
Zn295 Zn 0.00786 0.98934 0.66475 0.0
C296 C 0.97907 0.00149 0.77145 0.0
N297 N 0.04526 0.03185 0.77042 0.0
C298 C 0.068 0.02969 0.78187 0.0
C299 C 0.03412 0.04981 0.78402 0.0
C300 C 0.04605 0.06683 0.80797 0.0
C301 C 0.06969 0.06539 0.81843 0.0
C302 C 0.08059 0.04633 0.80637 0.0
Zn303 Zn 0.02755 0.00976 0.72442 0.0
O304 O 0.01998 0.96374 0.71956 0.0
C305 C 0.05634 0.99763 0.61769 0.0
O306 O 0.03908 0.98427 0.77799 0.0
H307 H 0.01606 0.05124 0.77463 0.0
H308 H 0.01953 0.94842 0.61089 0.0
H309 H 0.07655 0.01532 0.77036 0.0
O310 O 0.03747 0.988 0.60572 0.0
O311 O 0.05707 0.00786 0.66469 0.0
H312 H 0.95831 0.98307 0.62368 0.0
O313 O 0.01553 0.03513 0.67012 0.0
O314 O 0.99624 0.01516 0.61076 0.0
O315 O 0.99791 0.0111 0.78358 0.0
O316 O 0.97837 0.99129 0.72442 0.0
C317 C 0.00291 0.03361 0.62592 0.0
H318 H 0.99856 0.91842 0.56916 0.0
H319 H 0.93571 0.95339 0.58359 0.0
H320 H 0.03688 0.08108 0.81773 0.0
H321 H 0.09881 0.04462 0.81381 0.0
C322 C 0.49473 0.97837 0.62375 0.0
N323 N 0.50984 0.04404 0.63445 0.0
C324 C 0.51214 0.04436 0.57426 0.0
C325 C 0.50766 0.06283 0.53985 0.0
C326 C 0.50086 0.08124 0.56755 0.0
C327 C 0.4987 0.08051 0.6298 0.0
C328 C 0.50323 0.06163 0.66256 0.0
Zn329 Zn 0.51612 0.01616 0.68166 0.0
C330 C 0.47828 0.00285 0.77099 0.0
N331 N 0.52876 0.95633 0.77272 0.0
C332 C 0.51086 0.94175 0.78526 0.0
C333 C 0.55025 0.95285 0.79248 0.0
C334 C 0.55435 0.93413 0.82651 0.0
C335 C 0.53614 0.91884 0.8404 0.0
C336 C 0.51416 0.92288 0.81921 0.0
Zn337 Zn 0.52265 0.98438 0.72612 0.0
O338 O 0.49727 0.99869 0.62074 0.0
C339 C 0.56026 0.99785 0.63565 0.0
O340 O 0.50409 0.96742 0.66436 0.0
H341 H 0.56424 0.96468 0.78213 0.0
H342 H 0.51751 0.03024 0.55274 0.0
H343 H 0.49387 0.94485 0.76943 0.0
O344 O 0.54708 0.01354 0.62989 0.0
O345 O 0.55443 0.98247 0.67342 0.0
H346 H 0.5014 0.06099 0.71042 0.0
O347 O 0.54065 0.00171 0.78828 0.0
O348 O 0.53541 0.03307 0.74302 0.0
O349 O 0.49101 0.9868 0.77665 0.0
O350 O 0.48483 0.01847 0.73478 0.0
C351 C 0.54393 0.02198 0.78489 0.0
H352 H 0.50987 0.06278 0.49207 0.0
H353 H 0.4933 0.09431 0.6529 0.0
H354 H 0.57164 0.93159 0.84124 0.0
H355 H 0.49951 0.91174 0.82951 0.0
C356 C 0.5362 0.47847 0.60671 0.0
N357 N 0.47387 0.50944 0.63463 0.0
C358 C 0.47766 0.5158 0.57631 0.0
C359 C 0.45918 0.52085 0.54126 0.0
C360 C 0.43654 0.51967 0.56653 0.0
C361 C 0.43306 0.5132 0.6269 0.0
C362 C 0.45206 0.50799 0.66024 0.0
Zn363 Zn 0.50212 0.50223 0.68252 0.0
C364 C 0.49822 0.45967 0.74488 0.0
N365 N 0.56362 0.48766 0.772 0.0
C366 C 0.58582 0.49138 0.75006 0.0
C367 C 0.55902 0.47894 0.82801 0.0
C368 C 0.57699 0.47336 0.86405 0.0
C369 C 0.60006 0.47684 0.84266 0.0
C370 C 0.60443 0.48614 0.78496 0.0
Zn371 Zn 0.53556 0.49496 0.72351 0.0
O372 O 0.51639 0.48656 0.60939 0.0
C373 C 0.5393 0.53753 0.66096 0.0
O374 O 0.54929 0.47973 0.65009 0.0
H375 H 0.5413 0.4763 0.84502 0.0
H376 H 0.49512 0.5171 0.55683 0.0
H377 H 0.58909 0.49835 0.70546 0.0
O378 O 0.51863 0.53164 0.65076 0.0
O379 O 0.55165 0.52493 0.69097 0.0
H380 H 0.44941 0.50285 0.7066 0.0
O381 O 0.52124 0.51006 0.79696 0.0
O382 O 0.48866 0.5179 0.7562 0.0
O383 O 0.51906 0.46531 0.75393 0.0
O384 O 0.48577 0.47251 0.71605 0.0
C385 C 0.50166 0.51853 0.79992 0.0
H386 H 0.46263 0.52607 0.49512 0.0
H387 H 0.41582 0.51199 0.64793 0.0
H388 H 0.57284 0.46657 0.90855 0.0
H389 H 0.62199 0.48899 0.76668 0.0
C390 C 0.04019 0.53064 0.6308 0.0
N391 N 0.04378 0.46357 0.63706 0.0
C392 C 0.04476 0.46702 0.57708 0.0
C393 C 0.05452 0.45211 0.54096 0.0
C394 C 0.06307 0.43319 0.56653 0.0
C395 C 0.0622 0.4302 0.62874 0.0
C396 C 0.0525 0.44571 0.66332 0.0
Zn397 Zn 0.02766 0.48565 0.68596 0.0
C398 C 0.0554 0.503 0.77655 0.0
N399 N 0.99271 0.53437 0.77361 0.0
C400 C 0.98354 0.5523 0.74892 0.0
C401 C 0.99253 0.53063 0.83345 0.0
C402 C 0.98335 0.54534 0.87101 0.0
C403 C 0.97453 0.56438 0.84711 0.0
C404 C 0.97432 0.56762 0.78508 0.0
Zn405 Zn 0.00869 0.51239 0.72398 0.0
O406 O 0.04409 0.51077 0.63013 0.0
C407 C 0.98108 0.49504 0.63316 0.0
O408 O 0.02467 0.53689 0.66652 0.0
H409 H 0.99998 0.51637 0.85237 0.0
H410 H 0.03765 0.48126 0.55697 0.0
H411 H 0.98389 0.55496 0.70122 0.0
O412 O 0.99877 0.48359 0.63113 0.0
O413 O 0.98023 0.51001 0.66886 0.0
H414 H 0.05152 0.44328 0.7111 0.0
O415 O 0.99248 0.48735 0.78019 0.0
O416 O 0.01128 0.46108 0.74282 0.0
O417 O 0.0379 0.5147 0.77811 0.0
O418 O 0.05595 0.4878 0.74162 0.0
C419 C 0.99596 0.46743 0.77895 0.0
H420 H 0.05518 0.45537 0.49339 0.0
H421 H 0.06829 0.41577 0.65054 0.0
H422 H 0.98349 0.54191 0.91845 0.0
H423 H 0.96788 0.58216 0.76468 0.0
H424 H 0.19688 0.9908 0.47711 0.0
H425 H 0.05904 0.9864 0.50198 0.0
H426 H 0.15628 0.99751 0.32185 0.0
H427 H 0.10138 0.00738 0.64179 0.0
H428 H 0.09407 0.98559 0.43671 0.0
H429 H 0.16166 0.99214 0.53934 0.0
C430 C 0.18066 0.99282 0.45576 0.0
C431 C 0.17985 0.99441 0.39357 0.0
C432 C 0.09562 0.9904 0.48164 0.0
C433 C 0.13903 0.99518 0.46565 0.0
C434 C 0.07568 0.99078 0.51901 0.0
C435 C 0.07727 0.99697 0.5775 0.0
C436 C 0.11734 0.99585 0.50326 0.0
C437 C 0.09929 0.00257 0.59704 0.0
C438 C 0.16047 0.9934 0.49164 0.0
C439 C 0.15794 0.99609 0.36933 0.0
N440 N 0.11844 0.00173 0.5602 0.0
N441 N 0.13842 0.99638 0.40538 0.0
H442 H 0.45479 0.17633 0.30726 0.0
H443 H 0.51439 0.12245 0.58849 0.0
H444 H 0.50155 0.21004 0.41688 0.0
H445 H 0.47755 0.0854 0.46463 0.0
H446 H 0.50778 0.15502 0.52812 0.0
H447 H 0.46159 0.14287 0.36489 0.0
C448 C 0.46656 0.17669 0.34312 0.0
C449 C 0.47736 0.19609 0.35772 0.0
C450 C 0.50114 0.13978 0.51401 0.0
C451 C 0.48502 0.15803 0.42404 0.0
C452 C 0.50476 0.12119 0.54877 0.0
C453 C 0.4965 0.10118 0.53164 0.0
C454 C 0.48904 0.13844 0.46174 0.0
C455 C 0.48443 0.10049 0.47916 0.0
C456 C 0.47035 0.15763 0.37616 0.0
C457 C 0.49238 0.1956 0.40485 0.0
N458 N 0.481 0.11886 0.44611 0.0
N459 N 0.49566 0.17696 0.43637 0.0
H460 H 0.3326 0.53036 0.30141 0.0
H461 H 0.4013 0.54558 0.59527 0.0
H462 H 0.32384 0.58368 0.41252 0.0
H463 H 0.42712 0.50772 0.45504 0.0
H464 H 0.36977 0.55659 0.5333 0.0
H465 H 0.36521 0.51936 0.36003 0.0
C466 C 0.3376 0.53987 0.33765 0.0
C467 C 0.32518 0.55785 0.35234 0.0
C468 C 0.38234 0.54588 0.51605 0.0
C469 C 0.36213 0.54505 0.42025 0.0
C470 C 0.4002 0.53946 0.55159 0.0
C471 C 0.41683 0.52574 0.53022 0.0
C472 C 0.38088 0.53832 0.45895 0.0
C473 C 0.41474 0.51847 0.47297 0.0
C474 C 0.35613 0.53349 0.37129 0.0
C475 C 0.33241 0.56939 0.40031 0.0
N476 N 0.39703 0.52477 0.43935 0.0
N477 N 0.35022 0.5627 0.43272 0.0
H478 H 0.12268 0.31847 0.442 0.0
H479 H 0.04678 0.42122 0.46069 0.0
H480 H 0.08128 0.34202 0.30035 0.0
H481 H 0.09917 0.40643 0.58518 0.0
H482 H 0.06027 0.39289 0.40023 0.0
H483 H 0.11565 0.3511 0.49377 0.0
C484 C 0.11236 0.33065 0.42149 0.0
C485 C 0.10242 0.32748 0.36699 0.0
C486 C 0.06897 0.39594 0.44049 0.0
C487 C 0.09411 0.36471 0.42614 0.0
C488 C 0.06134 0.41225 0.47506 0.0
C489 C 0.07183 0.41634 0.52836 0.0
C490 C 0.08707 0.38334 0.45946 0.0
C491 C 0.09028 0.40369 0.54504 0.0
C492 C 0.10838 0.34927 0.45098 0.0
C493 C 0.08938 0.34385 0.34208 0.0
N494 N 0.0972 0.38767 0.51093 0.0
N495 N 0.08536 0.36162 0.37221 0.0
H496 H 0.87979 0.9982 0.07295 0.0
H497 H 0.93397 0.99382 0.74473 0.0
H498 H 0.84155 0.01421 0.91781 0.0
H499 H 0.97628 0.01056 0.88893 0.0
H500 H 0.89938 0.99516 0.81066 0.0
H501 H 0.91505 0.99726 0.00906 0.0
C502 C 0.87867 0.00159 0.02575 0.0
C503 C 0.85734 0.00613 0.00118 0.0
C504 C 0.91624 0.99855 0.82783 0.0
C505 C 0.89771 0.00448 0.92771 0.0
C506 C 0.936 0.99772 0.79032 0.0
C507 C 0.95805 0.00217 0.81129 0.0
C508 C 0.91851 0.00344 0.88716 0.0
C509 C 0.9596 0.00716 0.87084 0.0
C510 C 0.89885 0.00094 0.98932 0.0
C511 C 0.85722 0.01003 0.93923 0.0
N512 N 0.9401 0.00751 0.90686 0.0
N513 N 0.87697 0.00895 0.90482 0.0
H514 H 0.58229 0.82109 0.09383 0.0
H515 H 0.51805 0.87844 0.82556 0.0
H516 H 0.52927 0.79048 0.99547 0.0
H517 H 0.56297 0.9133 0.93734 0.0
H518 H 0.52343 0.84581 0.88624 0.0
H519 H 0.5766 0.85497 0.03686 0.0
C520 C 0.56939 0.82151 0.06058 0.0
C521 C 0.55646 0.80284 0.04888 0.0
C522 C 0.53211 0.86058 0.89771 0.0
C523 C 0.55002 0.84136 0.98341 0.0
C524 C 0.52894 0.87929 0.86314 0.0
C525 C 0.53993 0.89875 0.87648 0.0
C526 C 0.54648 0.86116 0.94608 0.0
C527 C 0.55431 0.89865 0.92502 0.0
C528 C 0.56623 0.8408 0.02793 0.0
C529 C 0.54004 0.80431 0.00512 0.0
N530 N 0.55716 0.88015 0.95811 0.0
N531 N 0.53738 0.82314 0.97395 0.0
H532 H 0.68871 0.40764 0.07726 0.0
H533 H 0.6408 0.49941 0.85975 0.0
H534 H 0.7217 0.47078 0.04951 0.0
H535 H 0.60295 0.43995 0.91228 0.0
H536 H 0.67148 0.48891 0.92556 0.0
H537 H 0.65758 0.41906 0.01479 0.0
C538 C 0.68932 0.42396 0.05818 0.0
C539 C 0.70783 0.43827 0.06847 0.0
C540 C 0.65642 0.4782 0.92273 0.0
C541 C 0.67231 0.45147 0.99649 0.0
C542 C 0.63901 0.48411 0.88484 0.0
C543 C 0.61925 0.47056 0.88065 0.0
C544 C 0.65415 0.45852 0.95622 0.0
C545 C 0.61773 0.45101 0.91467 0.0
C546 C 0.67154 0.4305 0.02259 0.0
C547 C 0.70765 0.45929 0.04311 0.0
N548 N 0.63493 0.44558 0.95084 0.0
N549 N 0.69026 0.46522 0.00789 0.0
H550 H 0.97185 0.65555 0.11793 0.0
H551 H 0.93768 0.59089 0.83695 0.0
H552 H 0.91747 0.67434 0.00408 0.0
H553 H 0.99441 0.57633 0.94818 0.0
H554 H 0.92688 0.61916 0.90259 0.0
H555 H 0.97645 0.62337 0.06318 0.0
C556 C 0.96066 0.6527 0.08178 0.0
C557 C 0.94442 0.66766 0.06508 0.0
C558 C 0.94156 0.6096 0.91277 0.0
C559 C 0.94979 0.63104 0.00139 0.0
C560 C 0.94783 0.59358 0.87512 0.0
C561 C 0.96697 0.58114 0.88701 0.0
C562 C 0.95456 0.61323 0.96253 0.0
C563 C 0.97929 0.58519 0.93759 0.0
C564 C 0.96331 0.63437 0.05038 0.0
C565 C 0.93017 0.66313 0.01835 0.0
N566 N 0.97293 0.60087 0.97318 0.0
N567 N 0.93339 0.64533 0.98751 0.0
H568 H 0.02584 0.16179 0.49093 0.0
H569 H 0.98937 0.03771 0.51092 0.0
H570 H 0.00611 0.12758 0.33906 0.0
H571 H 0.0057 0.07447 0.66058 0.0
H572 H 0.98879 0.07125 0.44923 0.0
H573 H 0.01168 0.13125 0.55528 0.0
C574 C 0.01809 0.14805 0.47097 0.0
C575 C 0.01752 0.14724 0.40918 0.0
C576 C 0.9921 0.07196 0.49583 0.0
C577 C 0.00186 0.1117 0.48311 0.0
C578 C 0.99234 0.05284 0.53104 0.0
C579 C 0.99802 0.05333 0.59058 0.0
C580 C 0.99757 0.09158 0.52058 0.0
C581 C 1.00168 0.07334 0.61454 0.0
C582 C 0.01015 0.13046 0.50792 0.0
C583 C 0.00751 0.12874 0.38632 0.0
N584 N 1.00167 0.09161 0.57932 0.0
N585 N 1.0004 0.11157 0.42322 0.0
H586 H 0.3628 0.95729 0.50406 0.0
H587 H 0.49106 0.9866 0.50544 0.0
H588 H 0.40518 0.94564 0.34774 0.0
H589 H 0.46089 0.94796 0.65545 0.0
H590 H 0.45917 0.97438 0.44585 0.0
H591 H 0.39727 0.95571 0.56236 0.0
C592 C 0.37913 0.95396 0.48197 0.0
C593 C 0.38102 0.95211 0.42031 0.0
C594 C 0.45988 0.9682 0.49143 0.0
C595 C 0.42053 0.95099 0.48683 0.0
C596 C 0.47796 0.97517 0.52526 0.0
C597 C 0.47851 0.96811 0.58498 0.0
C598 C 0.44186 0.95485 0.51839 0.0
C599 C 0.46108 0.95352 0.6092 0.0
C600 C 0.39881 0.95313 0.51542 0.0
C601 C 0.40291 0.94804 0.39459 0.0
N602 N 0.44303 0.94775 0.57615 0.0
N603 N 0.42192 0.94818 0.42767 0.0
H604 H 0.52356 0.40933 0.29198 0.0
H605 H 0.56314 0.44362 0.60766 0.0
H606 H 0.53079 0.36459 0.44222 0.0
H607 H 0.52203 0.48282 0.49367 0.0
H608 H 0.56488 0.41708 0.5319 0.0
H609 H 0.53593 0.43857 0.35227 0.0
C610 C 0.52787 0.40556 0.33735 0.0
C611 C 0.52556 0.3844 0.36226 0.0
C612 C 0.55597 0.43176 0.52309 0.0
C613 C 0.54054 0.41775 0.43046 0.0
C614 C 0.55511 0.44694 0.56596 0.0
C615 C 0.54217 0.46524 0.55696 0.0
C616 C 0.54415 0.43518 0.47078 0.0
C617 C 0.53194 0.46875 0.50243 0.0
C618 C 0.53514 0.42225 0.37142 0.0
C619 C 0.5323 0.38052 0.42074 0.0
N620 N 0.53297 0.45373 0.46147 0.0
N621 N 0.53928 0.39707 0.45299 0.0
H622 H 0.16228 0.59413 0.47375 0.0
H623 H 0.03137 0.57176 0.58954 0.0
H624 H 0.10755 0.62235 0.37587 0.0
H625 H 0.08428 0.52499 0.5923 0.0
H626 H 0.05889 0.59728 0.53256 0.0
H627 H 0.13341 0.57711 0.54418 0.0
C628 C 0.14425 0.59739 0.46792 0.0
C629 C 0.13738 0.60957 0.41816 0.0
C630 C 0.06429 0.58141 0.54598 0.0
C631 C 0.10418 0.5895 0.49837 0.0
C632 C 0.0487 0.56691 0.57818 0.0
C633 C 0.05555 0.54622 0.59499 0.0
C634 C 0.08691 0.57525 0.53263 0.0
C635 C 0.07818 0.54067 0.57958 0.0
C636 C 0.12776 0.58738 0.50788 0.0
C637 C 0.11359 0.61278 0.41298 0.0
N638 N 0.09307 0.55515 0.54971 0.0
N639 N 0.09772 0.60253 0.45225 0.0
H640 H 0.03198 0.83576 0.91358 0.0
H641 H 0.04406 0.96362 0.87976 0.0
H642 H 0.01012 0.87755 0.04955 0.0
H643 H 0.03187 0.92409 0.73294 0.0
H644 H 0.04509 0.9311 0.94523 0.0
H645 H 0.04469 0.86746 0.85017 0.0
C646 C 0.03001 0.85147 0.93053 0.0
C647 C 0.01952 0.85382 0.98697 0.0
C648 C 0.04263 0.92961 0.89843 0.0
C649 C 0.0348 0.89001 0.91519 0.0
C650 C 0.04213 0.94811 0.86106 0.0
C651 C 0.03751 0.94649 0.80113 0.0
C652 C 0.0388 0.90945 0.8754 0.0
C653 C 0.03513 0.926 0.77914 0.0
C654 C 0.03747 0.86951 0.8944 0.0
C655 C 0.01823 0.87469 0.00688 0.0
N656 N 0.03562 0.90824 0.81642 0.0
N657 N 0.02561 0.89194 0.97089 0.0
H658 H 0.63335 0.03689 0.07218 0.0
H659 H 0.57251 0.05797 0.76539 0.0
H660 H 0.66936 0.06793 0.91717 0.0
H661 H 0.55086 0.00809 0.8983 0.0
H662 H 0.60305 0.06994 0.82982 0.0
H663 H 0.598 0.03493 0.01781 0.0
C664 C 0.63373 0.04373 0.02706 0.0
C665 C 0.65442 0.05249 0.99907 0.0
C666 C 0.59132 0.05662 0.8451 0.0
C667 C 0.61397 0.04995 0.93629 0.0
C668 C 0.57384 0.0499 0.80868 0.0
C669 C 0.55934 0.03193 0.82657 0.0
C670 C 0.59392 0.04548 0.89991 0.0
C671 C 0.56185 0.02189 0.88274 0.0
C672 C 0.61356 0.04243 0.99592 0.0
C673 C 0.65387 0.06077 0.94014 0.0
N674 N 0.57888 0.02875 0.91731 0.0
N675 N 0.63397 0.05916 0.91045 0.0
H676 H 0.48328 0.63024 0.99286 0.0
H677 H 0.51745 0.51334 0.9108 0.0
H678 H 0.52721 0.58956 0.09502 0.0
H679 H 0.47313 0.55242 0.80545 0.0
H680 H 0.51471 0.53855 0.98872 0.0
H681 H 0.47369 0.60001 0.93287 0.0
C682 C 0.49074 0.61493 0.00305 0.0
C683 C 0.50631 0.61255 0.04866 0.0
C684 C 0.50526 0.54152 0.94904 0.0
C685 C 0.49526 0.57789 0.98058 0.0
C686 C 0.50678 0.52708 0.90459 0.0
C687 C 0.49577 0.53101 0.85136 0.0
C688 C 0.49299 0.56026 0.9398 0.0
C689 C 0.48197 0.54889 0.84581 0.0
C690 C 0.48513 0.59765 0.96905 0.0
C691 C 0.51504 0.5922 0.06066 0.0
N692 N 0.48133 0.56314 0.88909 0.0
N693 N 0.5096 0.57578 0.02644 0.0
H694 H 0.87116 0.40732 0.92978 0.0
H695 H 0.00247 0.425 0.81283 0.0
H696 H 0.92404 0.37278 0.01888 0.0
H697 H 0.95292 0.47468 0.82274 0.0
H698 H 0.97373 0.39972 0.86637 0.0
H699 H 0.90084 0.42468 0.86222 0.0
C700 C 0.88891 0.40278 0.93414 0.0
C701 C 0.89508 0.38868 0.98078 0.0
C702 C 0.96935 0.41619 0.85657 0.0
C703 C 0.92925 0.40913 0.90403 0.0
C704 C 0.98565 0.43057 0.82636 0.0
C705 C 0.98009 0.45198 0.81388 0.0
C706 C 0.94731 0.42326 0.87231 0.0
C707 C 0.95806 0.45841 0.83197 0.0
C708 C 0.90588 0.41298 0.89591 0.0
C709 C 0.91857 0.38385 0.98426 0.0
N710 N 0.94246 0.44408 0.85976 0.0
N711 N 0.93494 0.3943 0.94681 0.0
H712 H 0.10602 0.19332 0.91068 0.0
H713 H 0.10068 0.06542 0.90692 0.0
H714 H 0.12917 0.15124 0.05188 0.0
H715 H 0.0684 0.10756 0.78064 0.0
H716 H 0.11881 0.09684 0.94931 0.0
H717 H 0.10017 0.1623 0.85107 0.0
C718 C 0.11028 0.17762 0.92874 0.0
C719 C 0.11777 0.17488 0.98674 0.0
C720 C 0.10795 0.09919 0.91191 0.0
C721 C 0.11096 0.13927 0.91895 0.0
C722 C 0.09768 0.08126 0.88763 0.0
C723 C 0.08271 0.08393 0.84092 0.0
C724 C 0.1033 0.11988 0.88903 0.0
C725 C 0.0794 0.10482 0.81757 0.0
C726 C 0.10691 0.15991 0.89473 0.0
C727 C 0.12342 0.15419 0.00741 0.0
N728 N 0.08944 0.12197 0.84216 0.0
N729 N 0.11955 0.13715 0.97392 0.0
H730 H 0.35792 0.02824 0.99442 0.0
H731 H 0.45229 0.96779 0.81524 0.0
H732 H 0.3429 0.96684 0.92282 0.0
H733 H 0.45193 0.0369 0.79945 0.0
H734 H 0.41398 0.96687 0.86576 0.0
H735 H 0.39342 0.03211 0.93101 0.0
C736 C 0.36171 0.01575 0.96467 0.0
C737 C 0.34732 0.997 0.96495 0.0
C738 C 0.42225 0.98224 0.85111 0.0
C739 C 0.38853 0.00112 0.89382 0.0
C740 C 0.44421 0.9828 0.82275 0.0
C741 C 0.45538 0.00247 0.80332 0.0
C742 C 0.41147 0.00149 0.86142 0.0
C743 C 0.44392 0.0214 0.81375 0.0
C744 C 0.38215 0.01794 0.92883 0.0
C745 C 0.35362 0.9813 0.92574 0.0
N746 N 0.42267 0.02047 0.84273 0.0
N747 N 0.37389 0.98354 0.89268 0.0
H748 H 0.41665 0.35843 0.93784 0.0
H749 H 0.52301 0.42521 0.77646 0.0
H750 H 0.48588 0.33551 0.91949 0.0
H751 H 0.45271 0.44518 0.76505 0.0
H752 H 0.50851 0.39064 0.82073 0.0
H753 H 0.42785 0.38813 0.86555 0.0
C754 C 0.43404 0.35935 0.91768 0.0
C755 C 0.45043 0.34458 0.9356 0.0
C756 C 0.49615 0.40244 0.80815 0.0
C757 C 0.46339 0.37862 0.85332 0.0
C758 C 0.50445 0.42228 0.78312 0.0
C759 C 0.48905 0.43821 0.76776 0.0
C760 C 0.47222 0.39848 0.81902 0.0
C761 C 0.46517 0.43336 0.77661 0.0
C762 C 0.44041 0.37632 0.87643 0.0
C763 C 0.47258 0.34639 0.90722 0.0
N764 N 0.45747 0.414 0.80253 0.0
N765 N 0.47849 0.36329 0.8684 0.0
H766 H 0.16931 0.5762 0.90296 0.0
H767 H 0.09032 0.4774 0.81376 0.0
H768 H 0.16968 0.51584 0.00578 0.0
H769 H 0.06748 0.5423 0.81315 0.0
H770 H 0.12534 0.48905 0.86392 0.0
H771 H 0.13841 0.56138 0.84543 0.0
C772 C 0.1631 0.55976 0.91316 0.0
C773 C 0.17179 0.54745 0.96042 0.0
C774 C 0.11254 0.50061 0.85272 0.0
C775 C 0.13673 0.53031 0.8936 0.0
C776 C 0.09263 0.49402 0.82434 0.0
C777 C 0.0759 0.50888 0.80983 0.0
C778 C 0.11595 0.52228 0.86466 0.0
C779 C 0.07977 0.53025 0.82414 0.0
C780 C 0.1455 0.55134 0.88019 0.0
C781 C 0.16353 0.52597 0.96995 0.0
N782 N 0.09946 0.53633 0.85017 0.0
N783 N 0.14628 0.51809 0.93712 0.0
H784 H 0.88309 0.84968 0.36739 0.0
H785 H 0.97039 0.89073 0.60439 0.0
H786 H 0.93684 0.81201 0.44176 0.0
H787 H 0.92958 0.93271 0.49712 0.0
H788 H 0.95119 0.85985 0.56321 0.0
H789 H 0.89251 0.87788 0.43417 0.0
C790 C 0.89654 0.84711 0.39849 0.0
C791 C 0.90952 0.82857 0.39783 0.0
C792 C 0.94628 0.87581 0.54906 0.0
C793 C 0.92027 0.86076 0.47451 0.0
C794 C 0.95737 0.89348 0.57217 0.0
C795 C 0.95198 0.9144 0.5532 0.0
C796 C 0.9296 0.879 0.50665 0.0
C797 C 0.93438 0.9169 0.51287 0.0
C798 C 0.90191 0.86325 0.43653 0.0
C799 C 0.92633 0.82594 0.44033 0.0
N800 N 0.92399 0.89941 0.49042 0.0
N801 N 0.93145 0.842 0.47623 0.0
H802 H 0.69332 0.97131 0.46126 0.0
H803 H 0.57751 0.02941 0.55584 0.0
H804 H 0.67773 0.03611 0.40529 0.0
H805 H 0.59384 0.9675 0.63369 0.0
H806 H 0.6142 0.03107 0.49897 0.0
H807 H 0.65734 0.96869 0.52393 0.0
C808 C 0.6825 0.98503 0.46243 0.0
C809 C 0.68879 0.00403 0.42809 0.0
C810 C 0.60987 0.01708 0.52844 0.0
C811 C 0.64753 0.00106 0.49934 0.0
C812 C 0.58879 0.01608 0.56095 0.0
C813 C 0.58247 0.99827 0.59977 0.0
C814 C 0.62497 0.00012 0.53419 0.0
C815 C 0.59797 0.98154 0.60427 0.0
C816 C 0.66198 0.98352 0.49828 0.0
C817 C 0.67403 0.02128 0.43167 0.0
N818 N 0.61851 0.98285 0.5718 0.0
N819 N 0.65417 0.01932 0.46622 0.0
H820 H 0.54629 0.66373 0.49345 0.0
H821 H 0.58472 0.55264 0.64322 0.0
H822 H 0.61504 0.64042 0.46676 0.0
H823 H 0.5142 0.57162 0.62821 0.0
H824 H 0.59833 0.58807 0.59891 0.0
H825 H 0.53721 0.63426 0.56661 0.0
C826 C 0.55978 0.65282 0.50414 0.0
C827 C 0.58138 0.65444 0.47295 0.0
C828 C 0.5799 0.58447 0.606 0.0
C829 C 0.57071 0.62005 0.55566 0.0
C830 C 0.57215 0.56431 0.63119 0.0
C831 C 0.5483 0.55909 0.63852 0.0
C832 C 0.56366 0.59952 0.589 0.0
C833 C 0.53273 0.57481 0.62248 0.0
C834 C 0.55443 0.63576 0.54548 0.0
C835 C 0.59797 0.63953 0.48868 0.0
N836 N 0.54068 0.59422 0.59835 0.0
N837 N 0.59217 0.62273 0.52821 0.0
H838 H 0.87081 0.42027 0.49651 0.0
H839 H 0.94515 0.52004 0.59901 0.0
H840 H 0.86678 0.48216 0.40341 0.0
H841 H 0.97048 0.45616 0.59187 0.0
H842 H 0.91058 0.50812 0.54743 0.0
H843 H 0.9009 0.43525 0.55622 0.0
C844 C 0.87606 0.43708 0.48897 0.0
C845 C 0.86662 0.44983 0.44379 0.0
C846 C 0.92382 0.49685 0.55726 0.0
C847 C 0.90081 0.46711 0.51288 0.0
C848 C 0.94348 0.5036 0.58646 0.0
C849 C 0.96077 0.4891 0.59925 0.0
C850 C 0.92126 0.47537 0.54272 0.0
C851 C 0.95773 0.46795 0.58235 0.0
C852 C 0.89321 0.44559 0.52312 0.0
C853 C 0.87362 0.47171 0.43755 0.0
N854 N 0.93829 0.4617 0.55554 0.0
N855 N 0.89051 0.47966 0.47138 0.0
loop_
_geom_bond_atom_site_label_1
_geom_bond_atom_site_label_2
_geom_bond_distance
_geom_bond_site_symmetry_2
_ccdc_geom_bond_type
C0 C1 1.384 . S
C0 H13 0.947 . S
C0 C35 1.382 . S
C1 C0 1.384 . S
C1 C2 1.378 . S
C2 C1 1.378 . S
C2 C3 1.378 . S
C2 H14 0.952 . S
C3 C2 1.378 . S
C3 H15 0.950 . S
C3 C34 1.383 . S
H4 C23 0.947 . S
H5 C24 0.946 . S
H6 C26 0.946 1_556 S
H7 C27 0.945 . S
H8 C29 0.952 . S
H9 C30 0.949 . S
H10 C32 0.950 . S
H11 C33 0.948 . S
H12 C35 0.951 . S
H13 C0 0.947 . S
H14 C2 0.952 . S
H15 C3 0.950 . S
N16 C19 1.382 . S
N16 C21 1.363 . S
N17 C19 1.371 . S
N17 C20 1.372 . S
N18 C20 1.361 . S
N18 C21 1.377 . S
C19 N16 1.382 . S
C19 N17 1.371 . S
C19 C22 1.480 . S
C20 N17 1.372 . S
C20 N18 1.361 . S
C20 C28 1.457 . S
C21 N16 1.363 . S
C21 N18 1.377 . S
C21 C34 1.479 . S
C22 C19 1.480 . S
C22 C23 1.383 . S
C22 C27 1.385 . S
C23 H4 0.947 . S
C23 C22 1.383 . S
C23 C24 1.388 . S
C24 H5 0.946 . S
C24 C23 1.388 . S
C24 C25 1.384 . S
C25 C24 1.384 . S
C25 C26 1.377 . S
C26 H6 0.946 1_554 S
C26 C25 1.377 . S
C26 C27 1.369 . S
C27 H7 0.945 . S
C27 C22 1.385 . S
C27 C26 1.369 . S
C28 C20 1.457 . S
C28 C29 1.372 1_554 S
C28 C33 1.364 . S
C29 H8 0.952 . S
C29 C28 1.372 1_556 S
C29 C30 1.389 . S
C30 H9 0.949 . S
C30 C29 1.389 . S
C30 C31 1.387 . S
C31 C30 1.387 . S
C31 C32 1.372 1_556 S
C32 H10 0.950 . S
C32 C31 1.372 1_554 S
C32 C33 1.379 . S
C33 H11 0.948 . S
C33 C28 1.364 . S
C33 C32 1.379 . S
C34 C3 1.383 . S
C34 C21 1.479 . S
C34 C35 1.398 . S
C35 C0 1.382 . S
C35 H12 0.951 . S
C35 C34 1.398 . S
C36 C37 1.384 . S
C36 H49 0.947 . S
C36 C71 1.382 . S
C37 C36 1.384 . S
C37 C38 1.378 . S
C38 C37 1.378 . S
C38 C39 1.378 . S
C38 H50 0.952 . S
C39 C38 1.378 . S
C39 H51 0.950 . S
C39 C70 1.383 . S
H40 C59 0.947 . S
H41 C60 0.946 . S
H42 C62 0.953 . S
H43 C63 0.945 . S
H44 C65 0.952 . S
H45 C66 0.949 . S
H46 C68 0.950 . S
H47 C69 0.948 . S
H48 C71 0.951 . S
H49 C36 0.947 . S
H50 C38 0.952 . S
H51 C39 0.950 . S
N52 C55 1.382 1_554 S
N52 C57 1.363 . S
N53 C55 1.371 . S
N53 C56 1.372 . S
N54 C56 1.361 1_554 S
N54 C57 1.377 . S
C55 N52 1.382 1_556 S
C55 N53 1.371 . S
C55 C58 1.480 . S
C56 N53 1.372 . S
C56 N54 1.361 1_556 S
C56 C64 1.457 . S
C57 N52 1.363 . S
C57 N54 1.377 . S
C57 C70 1.479 . S
C58 C55 1.480 . S
C58 C59 1.383 1_556 S
C58 C63 1.385 . S
C59 H40 0.947 . S
C59 C58 1.383 1_554 S
C59 C60 1.388 . S
C60 H41 0.946 . S
C60 C59 1.388 . S
C60 C61 1.384 1_554 S
C61 C60 1.384 1_556 S
C61 C62 1.377 . S
C62 H42 0.953 . S
C62 C61 1.377 . S
C62 C63 1.369 . S
C63 H43 0.945 . S
C63 C58 1.385 . S
C63 C62 1.369 . S
C64 C56 1.457 . S
C64 C65 1.372 . S
C64 C69 1.364 . S
C65 H44 0.952 . S
C65 C64 1.372 . S
C65 C66 1.389 . S
C66 H45 0.949 . S
C66 C65 1.389 . S
C66 C67 1.387 . S
C67 C66 1.387 . S
C67 C68 1.372 . S
C68 H46 0.950 . S
C68 C67 1.372 . S
C68 C69 1.379 . S
C69 H47 0.948 . S
C69 C64 1.364 . S
C69 C68 1.379 . S
C70 C39 1.383 . S
C70 C57 1.479 . S
C70 C71 1.398 . S
C71 C36 1.382 . S
C71 H48 0.951 . S
C71 C70 1.398 . S
C72 C73 1.383 1_565 S
C72 H85 0.947 . S
C72 C107 1.382 1_565 S
C73 C72 1.383 1_545 S
C73 C74 1.378 . S
C74 C73 1.378 . S
C74 C75 1.378 . S
C74 H86 0.952 . S
C75 C74 1.378 . S
C75 H87 0.950 . S
C75 C106 1.383 . S
H76 C95 0.947 . S
H77 C96 0.951 . S
H78 C98 0.953 . S
H79 C99 0.945 . S
H80 C101 0.948 1_565 S
H81 C102 0.959 . S
H82 C104 0.950 . S
H83 C105 0.948 . S
H84 C107 0.951 1_565 S
H85 C72 0.947 . S
H86 C74 0.952 . S
H87 C75 0.950 . S
N88 C91 1.382 . S
N88 C93 1.363 . S
N89 C91 1.371 . S
N89 C92 1.372 . S
N90 C92 1.361 . S
N90 C93 1.377 . S
C91 N88 1.382 . S
C91 N89 1.371 . S
C91 C94 1.480 . S
C92 N89 1.372 . S
C92 N90 1.361 . S
C92 C100 1.457 1_554 S
C93 N88 1.363 . S
C93 N90 1.377 . S
C93 C106 1.479 . S
C94 C91 1.480 . S
C94 C95 1.383 . S
C94 C99 1.385 1_554 S
C95 H76 0.947 . S
C95 C94 1.383 . S
C95 C96 1.384 1_545 S
C96 H77 0.951 . S
C96 C95 1.384 1_565 S
C96 C97 1.383 1_565 S
C97 C96 1.383 1_545 S
C97 C98 1.377 1_554 S
C98 H78 0.953 . S
C98 C97 1.377 1_556 S
C98 C99 1.369 . S
C99 H79 0.945 . S
C99 C94 1.385 1_556 S
C99 C98 1.369 . S
C100 C92 1.457 1_556 S
C100 C101 1.377 . S
C100 C105 1.364 1_556 S
C101 H80 0.948 1_545 S
C101 C100 1.377 . S
C101 C102 1.386 1_545 S
C102 H81 0.959 . S
C102 C101 1.386 1_565 S
C102 C103 1.380 1_565 S
C103 C102 1.380 1_545 S
C103 C104 1.372 . S
C104 H82 0.950 . S
C104 C103 1.372 . S
C104 C105 1.379 1_556 S
C105 H83 0.948 . S
C105 C100 1.364 1_554 S
C105 C104 1.379 1_554 S
C106 C75 1.383 . S
C106 C93 1.479 . S
C106 C107 1.398 . S
C107 C72 1.382 1_545 S
C107 H84 0.951 1_545 S
C107 C106 1.398 . S
C108 C109 1.384 . S
C108 H121 0.947 . S
C108 C143 1.382 1_556 S
C109 C108 1.384 . S
C109 C110 1.378 . S
C110 C109 1.378 . S
C110 C111 1.378 . S
C110 H122 0.952 . S
C111 C110 1.378 . S
C111 H123 0.950 . S
C111 C142 1.383 1_556 S
H112 C131 0.947 1_556 S
H113 C132 0.946 . S
H114 C134 0.953 . S
H115 C135 0.945 . S
H116 C137 0.952 . S
H117 C138 0.949 . S
H118 C140 0.950 . S
H119 C141 0.948 . S
H120 C143 0.951 . S
H121 C108 0.947 . S
H122 C110 0.952 . S
H123 C111 0.950 . S
N124 C127 1.382 . S
N124 C129 1.363 . S
N125 C127 1.371 . S
N125 C128 1.372 . S
N126 C128 1.361 . S
N126 C129 1.377 . S
C127 N124 1.382 . S
C127 N125 1.371 . S
C127 C130 1.480 . S
C128 N125 1.372 . S
C128 N126 1.361 . S
C128 C136 1.457 . S
C129 N124 1.363 . S
C129 N126 1.377 . S
C129 C142 1.479 . S
C130 C127 1.480 . S
C130 C131 1.383 . S
C130 C135 1.385 . S
C131 H112 0.947 1_554 S
C131 C130 1.383 . S
C131 C132 1.388 1_554 S
C132 H113 0.946 . S
C132 C131 1.388 1_556 S
C132 C133 1.384 1_556 S
C133 C132 1.384 1_554 S
C133 C134 1.377 . S
C134 H114 0.953 . S
C134 C133 1.377 . S
C134 C135 1.369 . S
C135 H115 0.945 . S
C135 C130 1.385 . S
C135 C134 1.369 . S
C136 C128 1.457 . S
C136 C137 1.372 . S
C136 C141 1.364 . S
C137 H116 0.952 . S
C137 C136 1.372 . S
C137 C138 1.389 . S
C138 H117 0.949 . S
C138 C137 1.389 . S
C138 C139 1.387 . S
C139 C138 1.387 . S
C139 C140 1.372 . S
C140 H118 0.950 . S
C140 C139 1.372 . S
C140 C141 1.379 . S
C141 H119 0.948 . S
C141 C136 1.364 . S
C141 C140 1.379 . S
C142 C111 1.383 1_554 S
C142 C129 1.479 . S
C142 C143 1.398 . S
C143 C108 1.382 1_554 S
C143 H120 0.951 . S
C143 C142 1.398 . S
C144 C145 1.384 . S
C144 H157 0.947 . S
C144 C179 1.382 . S
C145 C144 1.384 . S
C145 C146 1.378 . S
C146 C145 1.378 . S
C146 C147 1.378 . S
C146 H158 0.952 . S
C147 C146 1.378 . S
C147 H159 0.950 . S
C147 C178 1.383 . S
H148 C167 0.947 . S
H149 C168 0.946 . S
H150 C170 0.953 . S
H151 C171 0.945 . S
H152 C173 0.952 . S
H153 C174 0.949 . S
H154 C176 0.950 . S
H155 C177 0.948 . S
H156 C179 0.951 . S
H157 C144 0.947 . S
H158 C146 0.952 . S
H159 C147 0.950 . S
N160 C163 1.382 . S
N160 C165 1.363 . S
N161 C163 1.371 . S
N161 C164 1.372 . S
N162 C164 1.361 . S
N162 C165 1.377 . S
C163 N160 1.382 . S
C163 N161 1.371 . S
C163 C166 1.480 . S
C164 N161 1.372 . S
C164 N162 1.361 . S
C164 C172 1.457 . S
C165 N160 1.363 . S
C165 N162 1.377 . S
C165 C178 1.479 . S
C166 C163 1.480 . S
C166 C167 1.383 . S
C166 C171 1.385 . S
C167 H148 0.947 . S
C167 C166 1.383 . S
C167 C168 1.388 . S
C168 H149 0.946 . S
C168 C167 1.388 . S
C168 C169 1.384 . S
C169 C168 1.384 . S
C169 C170 1.377 . S
C170 H150 0.953 . S
C170 C169 1.377 . S
C170 C171 1.369 . S
C171 H151 0.945 . S
C171 C166 1.385 . S
C171 C170 1.369 . S
C172 C164 1.457 . S
C172 C173 1.372 . S
C172 C177 1.364 . S
C173 H152 0.952 . S
C173 C172 1.372 . S
C173 C174 1.389 . S
C174 H153 0.949 . S
C174 C173 1.389 . S
C174 C175 1.387 . S
C175 C174 1.387 . S
C175 C176 1.372 . S
C176 H154 0.950 . S
C176 C175 1.372 . S
C176 C177 1.379 . S
C177 H155 0.948 . S
C177 C172 1.364 . S
C177 C176 1.379 . S
C178 C147 1.383 . S
C178 C165 1.479 . S
C178 C179 1.398 . S
C179 C144 1.382 . S
C179 H156 0.951 . S
C179 C178 1.398 . S
C180 C181 1.384 . S
C180 H193 0.947 . S
C180 C215 1.382 . S
C181 C180 1.384 . S
C181 C182 1.378 . S
C182 C181 1.378 . S
C182 C183 1.378 . S
C182 H194 0.952 . S
C183 C182 1.378 . S
C183 H195 0.950 . S
C183 C214 1.383 . S
H184 C203 0.947 . S
H185 C204 0.946 . S
H186 C206 0.953 . S
H187 C207 0.945 . S
H188 C209 0.952 . S
H189 C210 0.949 . S
H190 C212 0.950 . S
H191 C213 0.948 . S
H192 C215 0.951 . S
H193 C180 0.947 . S
H194 C182 0.952 . S
H195 C183 0.950 . S
N196 C199 1.382 . S
N196 C201 1.363 . S
N197 C199 1.371 . S
N197 C200 1.372 . S
N198 C200 1.361 . S
N198 C201 1.377 . S
C199 N196 1.382 . S
C199 N197 1.371 . S
C199 C202 1.480 . S
C200 N197 1.372 . S
C200 N198 1.361 . S
C200 C208 1.457 . S
C201 N196 1.363 . S
C201 N198 1.377 . S
C201 C214 1.479 . S
C202 C199 1.480 . S
C202 C203 1.383 . S
C202 C207 1.385 . S
C203 H184 0.947 . S
C203 C202 1.383 . S
C203 C204 1.388 . S
C204 H185 0.946 . S
C204 C203 1.388 . S
C204 C205 1.384 . S
C205 C204 1.384 . S
C205 C206 1.377 . S
C206 H186 0.953 . S
C206 C205 1.377 . S
C206 C207 1.369 . S
C207 H187 0.945 . S
C207 C202 1.385 . S
C207 C206 1.369 . S
C208 C200 1.457 . S
C208 C209 1.372 . S
C208 C213 1.364 . S
C209 H188 0.952 . S
C209 C208 1.372 . S
C209 C210 1.389 . S
C210 H189 0.949 . S
C210 C209 1.389 . S
C210 C211 1.387 . S
C211 C210 1.387 . S
C211 C212 1.372 . S
C212 H190 0.950 . S
C212 C211 1.372 . S
C212 C213 1.379 . S
C213 H191 0.948 . S
C213 C208 1.364 . S
C213 C212 1.379 . S
C214 C183 1.383 . S
C214 C201 1.479 . S
C214 C215 1.398 . S
C215 C180 1.382 . S
C215 H192 0.951 . S
C215 C214 1.398 . S
C216 C217 1.384 . S
C216 H229 0.948 1_545 S
C216 C251 1.381 . S
C217 C216 1.384 . S
C217 C218 1.378 . S
C218 C217 1.378 . S
C218 C219 1.378 . S
C218 H230 0.952 . S
C219 C218 1.378 . S
C219 H231 0.950 . S
C219 C250 1.383 . S
H220 C239 0.947 . S
H221 C240 0.949 . S
H222 C242 0.953 . S
H223 C243 0.945 . S
H224 C245 0.949 1_565 S
H225 C246 0.952 . S
H226 C248 0.950 . S
H227 C249 0.948 . S
H228 C251 0.950 1_565 S
H229 C216 0.948 1_565 S
H230 C218 0.952 . S
H231 C219 0.950 . S
N232 C235 1.382 . S
N232 C237 1.363 . S
N233 C235 1.371 . S
N233 C236 1.372 . S
N234 C236 1.361 . S
N234 C237 1.377 . S
C235 N232 1.382 . S
C235 N233 1.371 . S
C235 C238 1.480 . S
C236 N233 1.372 . S
C236 N234 1.361 . S
C236 C244 1.457 . S
C237 N232 1.363 . S
C237 N234 1.377 . S
C237 C250 1.479 . S
C238 C235 1.480 . S
C238 C239 1.383 . S
C238 C243 1.385 . S
C239 H220 0.947 . S
C239 C238 1.383 . S
C239 C240 1.388 1_545 S
C240 H221 0.949 . S
C240 C239 1.388 1_565 S
C240 C241 1.381 1_565 S
C241 C240 1.381 1_545 S
C241 C242 1.377 . S
C242 H222 0.953 . S
C242 C241 1.377 . S
C242 C243 1.369 . S
C243 H223 0.945 . S
C243 C238 1.385 . S
C243 C242 1.369 . S
C244 C236 1.457 . S
C244 C245 1.377 . S
C244 C249 1.364 . S
C245 H224 0.949 1_545 S
C245 C244 1.377 . S
C245 C246 1.387 1_545 S
C246 H225 0.952 . S
C246 C245 1.387 1_565 S
C246 C247 1.385 1_565 S
C247 C246 1.385 1_545 S
C247 C248 1.372 . S
C248 H226 0.950 . S
C248 C247 1.372 . S
C248 C249 1.379 . S
C249 H227 0.948 . S
C249 C244 1.364 . S
C249 C248 1.379 . S
C250 C219 1.383 . S
C250 C237 1.479 . S
C250 C251 1.400 . S
C251 C216 1.381 . S
C251 H228 0.950 1_545 S
C251 C250 1.400 . S
C252 C253 1.384 . S
C252 H265 0.947 . S
C252 C287 1.382 . S
C253 C252 1.384 . S
C253 C254 1.378 . S
C254 C253 1.378 . S
C254 C255 1.378 . S
C254 H266 0.952 . S
C255 C254 1.378 . S
C255 H267 0.950 . S
C255 C286 1.383 . S
H256 C275 0.947 . S
H257 C276 0.946 . S
H258 C278 0.953 . S
H259 C279 0.945 . S
H260 C281 0.952 . S
H261 C282 0.949 . S
H262 C284 0.950 . S
H263 C285 0.948 . S
H264 C287 0.951 . S
H265 C252 0.947 . S
H266 C254 0.952 . S
H267 C255 0.950 . S
N268 C271 1.382 . S
N268 C273 1.363 . S
N269 C271 1.371 . S
N269 C272 1.372 . S
N270 C272 1.361 . S
N270 C273 1.377 . S
C271 N268 1.382 . S
C271 N269 1.371 . S
C271 C274 1.480 . S
C272 N269 1.372 . S
C272 N270 1.361 . S
C272 C280 1.457 . S
C273 N268 1.363 . S
C273 N270 1.377 . S
C273 C286 1.479 . S
C274 C271 1.480 . S
C274 C275 1.383 . S
C274 C279 1.385 . S
C275 H256 0.947 . S
C275 C274 1.383 . S
C275 C276 1.388 . S
C276 H257 0.946 . S
C276 C275 1.388 . S
C276 C277 1.384 . S
C277 C276 1.384 . S
C277 C278 1.377 . S
C278 H258 0.953 . S
C278 C277 1.377 . S
C278 C279 1.369 . S
C279 H259 0.945 . S
C279 C274 1.385 . S
C279 C278 1.369 . S
C280 C272 1.457 . S
C280 C281 1.372 . S
C280 C285 1.364 . S
C281 H260 0.952 . S
C281 C280 1.372 . S
C281 C282 1.389 . S
C282 H261 0.949 . S
C282 C281 1.389 . S
C282 C283 1.387 . S
C283 C282 1.387 . S
C283 C284 1.372 . S
C284 H262 0.950 . S
C284 C283 1.372 . S
C284 C285 1.379 . S
C285 H263 0.948 . S
C285 C280 1.364 . S
C285 C284 1.379 . S
C286 C255 1.383 . S
C286 C273 1.479 . S
C286 C287 1.398 . S
C287 C252 1.382 . S
C287 H264 0.951 . S
C287 C286 1.398 . S
C288 O304 1.251 . S
C288 O306 1.254 . S
N289 C290 1.333 . S
N289 C294 1.307 . S
N289 Zn295 2.020 1_655 S
C290 N289 1.333 . S
C290 C291 1.379 . S
C290 H308 0.952 1_655 S
C291 C290 1.379 . S
C291 C292 1.390 . S
C291 H318 0.949 . S
C292 C291 1.390 . S
C292 C293 1.357 . S
C293 C292 1.357 . S
C293 C294 1.370 . S
C293 H319 0.950 . S
C294 N289 1.307 . S
C294 C293 1.370 . S
C294 H312 0.946 . S
Zn295 N289 2.020 1_455 S
Zn295 O304 2.039 . S
Zn295 O310 2.034 . S
Zn295 O314 2.025 1_565 S
Zn295 O316 2.036 1_455 S
C296 O315 1.246 . S
C296 O316 1.233 1_545 S
N297 C298 1.307 . S
N297 C299 1.333 . S
N297 Zn303 2.020 . S
C298 N297 1.307 . S
C298 C302 1.370 . S
C298 H309 0.958 . S
C299 N297 1.333 . S
C299 C300 1.379 . S
C299 H307 0.952 . S
C300 C299 1.379 . S
C300 C301 1.390 . S
C300 H320 0.949 . S
C301 C300 1.390 . S
C301 C302 1.357 . S
C302 C298 1.370 . S
C302 C301 1.357 . S
C302 H321 0.950 . S
Zn303 N297 2.020 . S
Zn303 O306 2.025 1_545 S
Zn303 O311 2.040 . S
Zn303 O313 2.039 . S
Zn303 O315 2.034 1_455 S
O304 C288 1.251 . S
O304 Zn295 2.039 . S
C305 O310 1.246 . S
C305 O311 1.228 1_565 S
O306 C288 1.254 . S
O306 Zn303 2.025 1_565 S
H307 C299 0.952 . S
H308 C290 0.952 1_455 S
H309 C298 0.958 . S
O310 Zn295 2.034 . S
O310 C305 1.246 . S
O311 Zn303 2.040 . S
O311 C305 1.228 1_545 S
H312 C294 0.946 . S
O313 Zn303 2.039 . S
O313 C317 1.251 . S
O314 Zn295 2.025 1_545 S
O314 C317 1.254 . S
O315 C296 1.246 . S
O315 Zn303 2.034 1_655 S
O316 Zn295 2.036 1_655 S
O316 C296 1.233 1_565 S
C317 O313 1.251 . S
C317 O314 1.254 . S
H318 C291 0.949 . S
H319 C293 0.950 . S
H320 C300 0.949 . S
H321 C302 0.950 . S
C322 O338 1.251 1_565 S
C322 O340 1.254 . S
N323 C324 1.333 . S
N323 C328 1.307 . S
N323 Zn329 2.020 . S
C324 N323 1.333 . S
C324 C325 1.379 . S
C324 H342 0.952 . S
C325 C324 1.379 . S
C325 C326 1.390 . S
C325 H352 0.949 . S
C326 C325 1.390 . S
C326 C327 1.357 . S
C327 C326 1.357 . S
C327 C328 1.370 . S
C327 H353 0.950 . S
C328 N323 1.307 . S
C328 C327 1.370 . S
C328 H346 0.948 . S
Zn329 N323 2.020 . S
Zn329 O338 2.039 . S
Zn329 O344 2.034 . S
Zn329 O348 2.025 . S
Zn329 O350 2.024 . S
C330 O349 1.246 1_545 S
C330 O350 1.249 . S
N331 C332 1.307 . S
N331 C333 1.333 . S
N331 Zn337 2.020 . S
C332 N331 1.307 . S
C332 C336 1.370 . S
C332 H343 0.948 . S
C333 N331 1.333 . S
C333 C334 1.379 . S
C333 H341 0.952 . S
C334 C333 1.379 . S
C334 C335 1.390 . S
C334 H354 0.949 . S
C335 C334 1.390 . S
C335 C336 1.357 . S
C336 C332 1.370 . S
C336 C335 1.357 . S
C336 H355 0.950 . S
Zn337 N331 2.020 . S
Zn337 O340 2.025 . S
Zn337 O345 2.024 . S
Zn337 O347 2.039 . S
Zn337 O349 2.034 . S
O338 C322 1.251 1_545 S
O338 Zn329 2.039 . S
C339 O344 1.246 1_565 S
C339 O345 1.249 . S
O340 C322 1.254 . S
O340 Zn337 2.025 . S
H341 C333 0.952 . S
H342 C324 0.952 . S
H343 C332 0.948 . S
O344 Zn329 2.034 . S
O344 C339 1.246 1_545 S
O345 Zn337 2.024 . S
O345 C339 1.249 . S
H346 C328 0.948 . S
O347 Zn337 2.039 . S
O347 C351 1.251 1_565 S
O348 Zn329 2.025 . S
O348 C351 1.254 . S
O349 C330 1.246 1_565 S
O349 Zn337 2.034 . S
O350 Zn329 2.024 . S
O350 C330 1.249 . S
C351 O347 1.251 1_545 S
C351 O348 1.254 . S
H352 C325 0.949 . S
H353 C327 0.950 . S
H354 C334 0.949 . S
H355 C336 0.950 . S
C356 O372 1.251 . S
C356 O374 1.254 . S
N357 C358 1.333 . S
N357 C362 1.307 . S
N357 Zn363 2.020 . S
C358 N357 1.333 . S
C358 C359 1.379 . S
C358 H376 0.952 . S
C359 C358 1.379 . S
C359 C360 1.390 . S
C359 H386 0.949 . S
C360 C359 1.390 . S
C360 C361 1.357 . S
C361 C360 1.357 . S
C361 C362 1.370 . S
C361 H387 0.950 . S
C362 N357 1.307 . S
C362 C361 1.370 . S
C362 H380 0.948 . S
Zn363 N357 2.020 . S
Zn363 O372 2.039 . S
Zn363 O378 2.034 . S
Zn363 O382 2.025 . S
Zn363 O384 2.024 . S
C364 O383 1.246 . S
C364 O384 1.249 . S
N365 C366 1.307 . S
N365 C367 1.333 . S
N365 Zn371 2.020 . S
C366 N365 1.307 . S
C366 C370 1.370 . S
C366 H377 0.948 . S
C367 N365 1.333 . S
C367 C368 1.379 . S
C367 H375 0.952 . S
C368 C367 1.379 . S
C368 C369 1.390 . S
C368 H388 0.949 . S
C369 C368 1.390 . S
C369 C370 1.357 . S
C370 C366 1.370 . S
C370 C369 1.357 . S
C370 H389 0.950 . S
Zn371 N365 2.020 . S
Zn371 O374 2.025 . S
Zn371 O379 2.024 . S
Zn371 O381 2.039 . S
Zn371 O383 2.034 . S
O372 C356 1.251 . S
O372 Zn363 2.039 . S
C373 O378 1.246 . S
C373 O379 1.249 . S
O374 C356 1.254 . S
O374 Zn371 2.025 . S
H375 C367 0.952 . S
H376 C358 0.952 . S
H377 C366 0.948 . S
O378 Zn363 2.034 . S
O378 C373 1.246 . S
O379 Zn371 2.024 . S
O379 C373 1.249 . S
H380 C362 0.948 . S
O381 Zn371 2.039 . S
O381 C385 1.251 . S
O382 Zn363 2.025 . S
O382 C385 1.254 . S
O383 C364 1.246 . S
O383 Zn371 2.034 . S
O384 Zn363 2.024 . S
O384 C364 1.249 . S
C385 O381 1.251 . S
C385 O382 1.254 . S
H386 C359 0.949 . S
H387 C361 0.950 . S
H388 C368 0.949 . S
H389 C370 0.950 . S
C390 O406 1.251 . S
C390 O408 1.254 . S
N391 C392 1.333 . S
N391 C396 1.307 . S
N391 Zn397 2.020 . S
C392 N391 1.333 . S
C392 C393 1.379 . S
C392 H410 0.952 . S
C393 C392 1.379 . S
C393 C394 1.390 . S
C393 H420 0.949 . S
C394 C393 1.390 . S
C394 C395 1.357 . S
C395 C394 1.357 . S
C395 C396 1.370 . S
C395 H421 0.950 . S
C396 N391 1.307 . S
C396 C395 1.370 . S
C396 H414 0.948 . S
Zn397 N391 2.020 . S
Zn397 O406 2.039 . S
Zn397 O412 2.034 1_455 S
Zn397 O416 2.025 1_455 S
Zn397 O418 2.024 . S
C398 O417 1.246 . S
C398 O418 1.249 . S
N399 C400 1.307 . S
N399 C401 1.333 1_455 S
N399 Zn405 2.020 . S
C400 N399 1.307 . S
C400 C404 1.370 1_455 S
C400 H411 0.948 . S
C401 N399 1.333 1_655 S
C401 C402 1.379 . S
C401 H409 0.952 . S
C402 C401 1.379 . S
C402 C403 1.390 . S
C402 H422 0.949 . S
C403 C402 1.390 . S
C403 C404 1.357 . S
C404 C400 1.370 1_655 S
C404 C403 1.357 . S
C404 H423 0.950 . S
Zn405 N399 2.020 . S
Zn405 O408 2.025 . S
Zn405 O413 2.024 1_455 S
Zn405 O415 2.039 1_455 S
Zn405 O417 2.034 . S
O406 C390 1.251 . S
O406 Zn397 2.039 . S
C407 O412 1.246 . S
C407 O413 1.249 . S
O408 C390 1.254 . S
O408 Zn405 2.025 . S
H409 C401 0.952 . S
H410 C392 0.952 . S
H411 C400 0.948 . S
O412 Zn397 2.034 1_655 S
O412 C407 1.246 . S
O413 Zn405 2.024 1_655 S
O413 C407 1.249 . S
H414 C396 0.948 . S
O415 Zn405 2.039 1_655 S
O415 C419 1.251 . S
O416 Zn397 2.025 1_655 S
O416 C419 1.254 . S
O417 C398 1.246 . S
O417 Zn405 2.034 . S
O418 Zn397 2.024 . S
O418 C398 1.249 . S
C419 O415 1.251 . S
C419 O416 1.254 . S
H420 C393 0.949 . S
H421 C395 0.950 . S
H422 C402 0.949 . S
H423 C404 0.950 . S
H424 C430 0.930 . S
H425 C434 0.930 . S
H426 C439 0.929 . S
H427 C437 0.929 . S
H428 C432 0.929 . S
H429 C438 0.929 . S
C430 H424 0.930 . S
C430 C431 1.367 . S
C430 C438 1.378 . S
C431 C430 1.367 . S
C431 C439 1.433 1_565 S
C432 H428 0.929 . S
C432 C434 1.378 . S
C432 C436 1.350 1_545 S
C433 C436 1.463 . S
C433 C438 1.350 . S
C433 N441 1.427 1_565 S
C434 H425 0.930 . S
C434 C432 1.378 . S
C434 C435 1.367 1_545 S
C435 C434 1.367 1_565 S
C435 C437 1.433 . S
C436 C432 1.350 1_565 S
C436 C433 1.463 . S
C436 N440 1.427 . S
C437 H427 0.929 . S
C437 C435 1.433 . S
C437 N440 1.384 . S
C438 H429 0.929 . S
C438 C430 1.378 . S
C438 C433 1.350 . S
C439 H426 0.929 . S
C439 C431 1.433 1_545 S
C439 N441 1.384 . S
N440 C436 1.427 . S
N440 C437 1.384 . S
N441 C433 1.427 1_545 S
N441 C439 1.384 . S
H442 C448 0.930 . S
H443 C452 0.930 . S
H444 C457 0.929 . S
H445 C455 0.929 . S
H446 C450 0.929 . S
H447 C456 0.929 . S
C448 H442 0.930 . S
C448 C449 1.367 . S
C448 C456 1.378 . S
C449 C448 1.367 . S
C449 C457 1.433 . S
C450 H446 0.929 . S
C450 C452 1.378 . S
C450 C454 1.350 . S
C451 C454 1.463 . S
C451 C456 1.350 . S
C451 N459 1.427 . S
C452 H443 0.930 . S
C452 C450 1.378 . S
C452 C453 1.367 . S
C453 C452 1.367 . S
C453 C455 1.433 . S
C454 C450 1.350 . S
C454 C451 1.463 . S
C454 N458 1.427 . S
C455 H445 0.929 . S
C455 C453 1.433 . S
C455 N458 1.384 . S
C456 H447 0.929 . S
C456 C448 1.378 . S
C456 C451 1.350 . S
C457 H444 0.929 . S
C457 C449 1.433 . S
C457 N459 1.384 . S
N458 C454 1.427 . S
N458 C455 1.384 . S
N459 C451 1.427 . S
N459 C457 1.384 . S
H460 C466 0.930 . S
H461 C470 0.930 . S
H462 C475 0.929 . S
H463 C473 0.929 . S
H464 C468 0.929 . S
H465 C474 0.929 . S
C466 H460 0.930 . S
C466 C467 1.367 . S
C466 C474 1.378 . S
C467 C466 1.367 . S
C467 C475 1.433 . S
C468 H464 0.929 . S
C468 C470 1.378 . S
C468 C472 1.350 . S
C469 C472 1.463 . S
C469 C474 1.350 . S
C469 N477 1.427 . S
C470 H461 0.930 . S
C470 C468 1.378 . S
C470 C471 1.367 . S
C471 C470 1.367 . S
C471 C473 1.433 . S
C472 C468 1.350 . S
C472 C469 1.463 . S
C472 N476 1.427 . S
C473 H463 0.929 . S
C473 C471 1.433 . S
C473 N476 1.384 . S
C474 H465 0.929 . S
C474 C466 1.378 . S
C474 C469 1.350 . S
C475 H462 0.929 . S
C475 C467 1.433 . S
C475 N477 1.384 . S
N476 C472 1.427 . S
N476 C473 1.384 . S
N477 C469 1.427 . S
N477 C475 1.384 . S
H478 C484 0.930 . S
H479 C488 0.930 . S
H480 C493 0.929 . S
H481 C491 0.929 . S
H482 C486 0.929 . S
H483 C492 0.929 . S
C484 H478 0.930 . S
C484 C485 1.367 . S
C484 C492 1.378 . S
C485 C484 1.367 . S
C485 C493 1.433 . S
C486 H482 0.929 . S
C486 C488 1.378 . S
C486 C490 1.350 . S
C487 C490 1.463 . S
C487 C492 1.350 . S
C487 N495 1.427 . S
C488 H479 0.930 . S
C488 C486 1.378 . S
C488 C489 1.367 . S
C489 C488 1.367 . S
C489 C491 1.433 . S
C490 C486 1.350 . S
C490 C487 1.463 . S
C490 N494 1.427 . S
C491 H481 0.929 . S
C491 C489 1.433 . S
C491 N494 1.384 . S
C492 H483 0.929 . S
C492 C484 1.378 . S
C492 C487 1.350 . S
C493 H480 0.929 . S
C493 C485 1.433 . S
C493 N495 1.384 . S
N494 C490 1.427 . S
N494 C491 1.384 . S
N495 C487 1.427 . S
N495 C493 1.384 . S
H496 C502 0.930 1_554 S
H497 C506 0.930 . S
H498 C511 0.929 . S
H499 C509 0.929 . S
H500 C504 0.929 . S
H501 C510 0.929 . S
C502 H496 0.930 1_556 S
C502 C503 1.336 1_565 S
C502 C510 1.378 . S
C503 C502 1.336 1_545 S
C503 C511 1.465 . S
C504 H500 0.929 . S
C504 C506 1.378 . S
C504 C508 1.350 . S
C505 C508 1.463 . S
C505 C510 1.350 1_545 S
C505 N513 1.427 . S
C506 H497 0.930 . S
C506 C504 1.378 . S
C506 C507 1.367 . S
C507 C506 1.367 . S
C507 C509 1.433 1_545 S
C508 C504 1.350 . S
C508 C505 1.463 . S
C508 N512 1.427 1_545 S
C509 H499 0.929 . S
C509 C507 1.433 1_565 S
C509 N512 1.384 . S
C510 H501 0.929 . S
C510 C502 1.378 . S
C510 C505 1.350 1_565 S
C511 H498 0.929 . S
C511 C503 1.465 . S
C511 N513 1.384 . S
N512 C508 1.427 1_565 S
N512 C509 1.384 . S
N513 C505 1.427 . S
N513 C511 1.384 . S
H514 C520 0.930 . S
H515 C524 0.930 . S
H516 C529 0.929 . S
H517 C527 0.929 . S
H518 C522 0.929 . S
H519 C528 0.929 . S
C520 H514 0.930 . S
C520 C521 1.366 1_554 S
C520 C528 1.378 1_554 S
C521 C520 1.366 1_556 S
C521 C529 1.435 . S
C522 H518 0.929 . S
C522 C524 1.378 . S
C522 C526 1.350 . S
C523 C526 1.463 . S
C523 C528 1.350 . S
C523 N531 1.427 . S
C524 H515 0.930 . S
C524 C522 1.378 . S
C524 C525 1.367 . S
C525 C524 1.367 . S
C525 C527 1.433 . S
C526 C522 1.350 . S
C526 C523 1.463 . S
C526 N530 1.427 . S
C527 H517 0.929 . S
C527 C525 1.433 . S
C527 N530 1.384 . S
C528 H519 0.929 . S
C528 C520 1.378 1_556 S
C528 C523 1.350 . S
C529 H516 0.929 . S
C529 C521 1.435 . S
C529 N531 1.384 . S
N530 C526 1.427 . S
N530 C527 1.384 . S
N531 C523 1.427 . S
N531 C529 1.384 . S
H532 C538 0.930 . S
H533 C542 0.930 . S
H534 C547 0.929 . S
H535 C545 0.929 . S
H536 C540 0.929 . S
H537 C546 0.929 . S
C538 H532 0.930 . S
C538 C539 1.367 . S
C538 C546 1.378 1_554 S
C539 C538 1.367 . S
C539 C547 1.433 . S
C540 H536 0.929 . S
C540 C542 1.378 . S
C540 C544 1.350 . S
C541 C544 1.463 . S
C541 C546 1.350 . S
C541 N549 1.427 . S
C542 H533 0.930 . S
C542 C540 1.378 . S
C542 C543 1.367 . S
C543 C542 1.367 . S
C543 C545 1.433 . S
C544 C540 1.350 . S
C544 C541 1.463 . S
C544 N548 1.427 . S
C545 H535 0.929 . S
C545 C543 1.433 . S
C545 N548 1.384 . S
C546 H537 0.929 . S
C546 C538 1.378 1_556 S
C546 C541 1.350 . S
C547 H534 0.929 . S
C547 C539 1.433 . S
C547 N549 1.384 1_554 S
N548 C544 1.427 . S
N548 C545 1.384 . S
N549 C541 1.427 . S
N549 C547 1.384 1_556 S
H550 C556 0.930 . S
H551 C560 0.930 . S
H552 C565 0.929 . S
H553 C563 0.929 . S
H554 C558 0.929 . S
H555 C564 0.929 . S
C556 H550 0.930 . S
C556 C557 1.367 . S
C556 C564 1.378 . S
C557 C556 1.367 . S
C557 C565 1.433 . S
C558 H554 0.929 . S
C558 C560 1.378 . S
C558 C562 1.350 . S
C559 C562 1.463 . S
C559 C564 1.350 . S
C559 N567 1.427 . S
C560 H551 0.930 . S
C560 C558 1.378 . S
C560 C561 1.367 . S
C561 C560 1.367 . S
C561 C563 1.433 . S
C562 C558 1.350 . S
C562 C559 1.463 . S
C562 N566 1.427 . S
C563 H553 0.929 . S
C563 C561 1.433 . S
C563 N566 1.384 . S
C564 H555 0.929 . S
C564 C556 1.378 . S
C564 C559 1.350 . S
C565 H552 0.929 . S
C565 C557 1.433 . S
C565 N567 1.384 . S
N566 C562 1.427 . S
N566 C563 1.384 . S
N567 C559 1.427 . S
N567 C565 1.384 . S
H568 C574 0.930 . S
H569 C578 0.930 . S
H570 C583 0.929 . S
H571 C581 0.929 . S
H572 C576 0.929 . S
H573 C582 0.929 . S
C574 H568 0.930 . S
C574 C575 1.367 . S
C574 C582 1.378 . S
C575 C574 1.367 . S
C575 C583 1.433 . S
C576 H572 0.929 . S
C576 C578 1.378 . S
C576 C580 1.350 . S
C577 C580 1.463 . S
C577 C582 1.350 . S
C577 N585 1.427 . S
C578 H569 0.930 . S
C578 C576 1.378 . S
C578 C579 1.367 . S
C579 C578 1.367 . S
C579 C581 1.433 . S
C580 C576 1.350 . S
C580 C577 1.463 . S
C580 N584 1.427 . S
C581 H571 0.929 . S
C581 C579 1.433 . S
C581 N584 1.384 . S
C582 H573 0.929 . S
C582 C574 1.378 . S
C582 C577 1.350 . S
C583 H570 0.929 . S
C583 C575 1.433 . S
C583 N585 1.384 . S
N584 C580 1.427 . S
N584 C581 1.384 . S
N585 C577 1.427 . S
N585 C583 1.384 . S
H586 C592 0.930 . S
H587 C596 0.930 . S
H588 C601 0.929 . S
H589 C599 0.929 . S
H590 C594 0.929 . S
H591 C600 0.929 . S
C592 H586 0.930 . S
C592 C593 1.405 . S
C592 C600 1.378 . S
C593 C592 1.405 . S
C593 C601 1.390 1_545 S
C594 H590 0.929 . S
C594 C596 1.378 . S
C594 C598 1.350 . S
C595 C598 1.463 . S
C595 C600 1.350 1_565 S
C595 N603 1.427 . S
C596 H587 0.930 . S
C596 C594 1.378 . S
C596 C597 1.367 . S
C597 C596 1.367 . S
C597 C599 1.433 1_565 S
C598 C594 1.350 . S
C598 C595 1.463 . S
C598 N602 1.427 1_565 S
C599 H589 0.929 . S
C599 C597 1.433 1_545 S
C599 N602 1.384 . S
C600 H591 0.929 . S
C600 C592 1.378 . S
C600 C595 1.350 1_545 S
C601 H588 0.929 . S
C601 C593 1.390 1_565 S
C601 N603 1.384 . S
N602 C598 1.427 1_545 S
N602 C599 1.384 . S
N603 C595 1.427 . S
N603 C601 1.384 . S
H604 C610 0.930 . S
H605 C614 0.930 . S
H606 C619 0.929 . S
H607 C617 0.929 . S
H608 C612 0.929 . S
H609 C618 0.929 . S
C610 H604 0.930 . S
C610 C611 1.367 . S
C610 C618 1.378 . S
C611 C610 1.367 . S
C611 C619 1.433 . S
C612 H608 0.929 . S
C612 C614 1.378 . S
C612 C616 1.350 . S
C613 C616 1.463 . S
C613 C618 1.350 . S
C613 N621 1.427 . S
C614 H605 0.930 . S
C614 C612 1.378 . S
C614 C615 1.367 . S
C615 C614 1.367 . S
C615 C617 1.433 . S
C616 C612 1.350 . S
C616 C613 1.463 . S
C616 N620 1.427 . S
C617 H607 0.929 . S
C617 C615 1.433 . S
C617 N620 1.384 . S
C618 H609 0.929 . S
C618 C610 1.378 . S
C618 C613 1.350 . S
C619 H606 0.929 . S
C619 C611 1.433 . S
C619 N621 1.384 . S
N620 C616 1.427 . S
N620 C617 1.384 . S
N621 C613 1.427 . S
N621 C619 1.384 . S
H622 C628 0.930 . S
H623 C632 0.930 . S
H624 C637 0.929 . S
H625 C635 0.929 . S
H626 C630 0.929 . S
H627 C636 0.929 . S
C628 H622 0.930 . S
C628 C629 1.367 . S
C628 C636 1.378 . S
C629 C628 1.367 . S
C629 C637 1.433 . S
C630 H626 0.929 . S
C630 C632 1.378 . S
C630 C634 1.350 . S
C631 C634 1.463 . S
C631 C636 1.350 . S
C631 N639 1.427 . S
C632 H623 0.930 . S
C632 C630 1.378 . S
C632 C633 1.367 . S
C633 C632 1.367 . S
C633 C635 1.433 . S
C634 C630 1.350 . S
C634 C631 1.463 . S
C634 N638 1.427 . S
C635 H625 0.929 . S
C635 C633 1.433 . S
C635 N638 1.384 . S
C636 H627 0.929 . S
C636 C628 1.378 . S
C636 C631 1.350 . S
C637 H624 0.929 . S
C637 C629 1.433 . S
C637 N639 1.384 . S
N638 C634 1.427 . S
N638 C635 1.384 . S
N639 C631 1.427 . S
N639 C637 1.384 . S
H640 C646 0.930 . S
H641 C650 0.930 . S
H642 C655 0.929 . S
H643 C653 0.929 . S
H644 C648 0.929 . S
H645 C654 0.929 . S
C646 H640 0.930 . S
C646 C647 1.367 . S
C646 C654 1.378 . S
C647 C646 1.367 . S
C647 C655 1.433 . S
C648 H644 0.929 . S
C648 C650 1.378 . S
C648 C652 1.350 . S
C649 C652 1.463 . S
C649 C654 1.350 . S
C649 N657 1.427 . S
C650 H641 0.930 . S
C650 C648 1.378 . S
C650 C651 1.367 1_655 S
C651 C650 1.367 1_455 S
C651 C653 1.433 . S
C652 C648 1.350 . S
C652 C649 1.463 . S
C652 N656 1.427 . S
C653 H643 0.929 . S
C653 C651 1.433 . S
C653 N656 1.384 1_455 S
C654 H645 0.929 . S
C654 C646 1.378 . S
C654 C649 1.350 . S
C655 H642 0.929 . S
C655 C647 1.433 . S
C655 N657 1.384 . S
N656 C652 1.427 . S
N656 C653 1.384 1_655 S
N657 C649 1.427 . S
N657 C655 1.384 . S
H658 C664 0.930 . S
H659 C668 0.930 . S
H660 C673 0.929 . S
H661 C671 0.929 . S
H662 C666 0.929 . S
H663 C672 0.929 . S
C664 H658 0.930 . S
C664 C665 1.393 . S
C664 C672 1.378 . S
C665 C664 1.393 . S
C665 C673 1.403 1_565 S
C666 H662 0.929 . S
C666 C668 1.378 . S
C666 C670 1.350 . S
C667 C670 1.463 . S
C667 C672 1.350 1_545 S
C667 N675 1.427 . S
C668 H659 0.930 . S
C668 C666 1.378 . S
C668 C669 1.367 . S
C669 C668 1.367 . S
C669 C671 1.433 1_545 S
C670 C666 1.350 . S
C670 C667 1.463 . S
C670 N674 1.427 1_545 S
C671 H661 0.929 . S
C671 C669 1.433 1_565 S
C671 N674 1.384 . S
C672 H663 0.929 . S
C672 C664 1.378 . S
C672 C667 1.350 1_565 S
C673 H660 0.929 . S
C673 C665 1.403 1_545 S
C673 N675 1.384 . S
N674 C670 1.427 1_565 S
N674 C671 1.384 . S
N675 C667 1.427 . S
N675 C673 1.384 . S
H676 C682 0.930 . S
H677 C686 0.930 . S
H678 C691 0.929 . S
H679 C689 0.929 . S
H680 C684 0.929 . S
H681 C690 0.929 . S
C682 H676 0.930 . S
C682 C683 1.367 . S
C682 C690 1.378 . S
C683 C682 1.367 . S
C683 C691 1.433 . S
C684 H680 0.929 . S
C684 C686 1.378 . S
C684 C688 1.350 . S
C685 C688 1.463 . S
C685 C690 1.350 . S
C685 N693 1.427 . S
C686 H677 0.930 . S
C686 C684 1.378 . S
C686 C687 1.367 . S
C687 C686 1.367 . S
C687 C689 1.433 . S
C688 C684 1.350 . S
C688 C685 1.463 . S
C688 N692 1.427 . S
C689 H679 0.929 . S
C689 C687 1.433 . S
C689 N692 1.384 . S
C690 H681 0.929 . S
C690 C682 1.378 . S
C690 C685 1.350 . S
C691 H678 0.929 . S
C691 C683 1.433 . S
C691 N693 1.384 . S
N692 C688 1.427 . S
N692 C689 1.384 . S
N693 C685 1.427 . S
N693 C691 1.384 . S
H694 C700 0.930 . S
H695 C704 0.944 . S
H696 C709 0.929 1_554 S
H697 C707 0.929 . S
H698 C702 0.929 . S
H699 C708 0.929 . S
C700 H694 0.930 . S
C700 C701 1.367 . S
C700 C708 1.378 . S
C701 C700 1.367 . S
C701 C709 1.433 . S
C702 H698 0.929 . S
C702 C704 1.378 . S
C702 C706 1.350 . S
C703 C706 1.463 . S
C703 C708 1.350 . S
C703 N711 1.427 . S
C704 H695 0.944 . S
C704 C702 1.378 . S
C704 C705 1.367 . S
C705 C704 1.367 . S
C705 C707 1.433 . S
C706 C702 1.350 . S
C706 C703 1.463 . S
C706 N710 1.427 . S
C707 H697 0.929 . S
C707 C705 1.433 . S
C707 N710 1.384 . S
C708 H699 0.929 . S
C708 C700 1.378 . S
C708 C703 1.350 . S
C709 H696 0.929 1_556 S
C709 C701 1.433 . S
C709 N711 1.384 . S
N710 C706 1.427 . S
N710 C707 1.384 . S
N711 C703 1.427 . S
N711 C709 1.384 . S
H712 C718 0.930 . S
H713 C722 0.930 . S
H714 C727 0.929 . S
H715 C725 0.929 . S
H716 C720 0.929 . S
H717 C726 0.929 1_556 S
C718 H712 0.930 . S
C718 C719 1.367 . S
C718 C726 1.378 . S
C719 C718 1.367 . S
C719 C727 1.433 . S
C720 H716 0.929 . S
C720 C722 1.378 . S
C720 C724 1.350 . S
C721 C724 1.463 . S
C721 C726 1.350 . S
C721 N729 1.427 . S
C722 H713 0.930 . S
C722 C720 1.378 . S
C722 C723 1.367 1_554 S
C723 C722 1.367 1_556 S
C723 C725 1.433 . S
C724 C720 1.350 . S
C724 C721 1.463 . S
C724 N728 1.427 1_554 S
C725 H715 0.929 . S
C725 C723 1.433 . S
C725 N728 1.384 . S
C726 H717 0.929 1_554 S
C726 C718 1.378 . S
C726 C721 1.350 . S
C727 H714 0.929 . S
C727 C719 1.433 . S
C727 N729 1.384 . S
N728 C724 1.427 1_556 S
N728 C725 1.384 . S
N729 C721 1.427 . S
N729 C727 1.384 . S
H730 C736 0.930 . S
H731 C740 0.930 . S
H732 C745 0.929 . S
H733 C743 0.929 . S
H734 C738 0.929 . S
H735 C744 0.929 . S
C736 H730 0.930 . S
C736 C737 1.407 . S
C736 C744 1.378 1_554 S
C737 C736 1.407 . S
C737 C745 1.391 1_544 S
C738 H734 0.929 . S
C738 C740 1.378 . S
C738 C742 1.350 1_565 S
C739 C742 1.463 . S
C739 C744 1.350 . S
C739 N747 1.427 1_545 S
C740 H731 0.930 . S
C740 C738 1.378 . S
C740 C741 1.367 1_565 S
C741 C740 1.367 1_545 S
C741 C743 1.433 . S
C742 C738 1.350 1_545 S
C742 C739 1.463 . S
C742 N746 1.427 . S
C743 H733 0.929 . S
C743 C741 1.433 . S
C743 N746 1.384 . S
C744 H735 0.929 . S
C744 C736 1.378 1_556 S
C744 C739 1.350 . S
C745 H732 0.929 . S
C745 C737 1.391 1_566 S
C745 N747 1.384 . S
N746 C742 1.427 . S
N746 C743 1.384 . S
N747 C739 1.427 1_565 S
N747 C745 1.384 . S
H748 C754 0.930 . S
H749 C758 0.930 . S
H750 C763 0.929 . S
H751 C761 0.929 . S
H752 C756 0.929 . S
H753 C762 0.929 . S
C754 H748 0.930 . S
C754 C755 1.367 . S
C754 C762 1.378 1_554 S
C755 C754 1.367 . S
C755 C763 1.433 1_554 S
C756 H752 0.929 . S
C756 C758 1.378 . S
C756 C760 1.350 . S
C757 C760 1.463 . S
C757 C762 1.350 . S
C757 N765 1.427 . S
C758 H749 0.930 . S
C758 C756 1.378 . S
C758 C759 1.367 . S
C759 C758 1.367 . S
C759 C761 1.433 . S
C760 C756 1.350 . S
C760 C757 1.463 . S
C760 N764 1.427 . S
C761 H751 0.929 . S
C761 C759 1.433 . S
C761 N764 1.384 . S
C762 H753 0.929 . S
C762 C754 1.378 1_556 S
C762 C757 1.350 . S
C763 H750 0.929 . S
C763 C755 1.433 1_556 S
C763 N765 1.384 . S
N764 C760 1.427 . S
N764 C761 1.384 . S
N765 C757 1.427 . S
N765 C763 1.384 . S
H766 C772 0.930 1_554 S
H767 C776 0.930 . S
H768 C781 0.929 . S
H769 C779 0.929 . S
H770 C774 0.929 . S
H771 C780 0.929 . S
C772 H766 0.930 1_556 S
C772 C773 1.367 . S
C772 C780 1.378 . S
C773 C772 1.367 . S
C773 C781 1.433 . S
C774 H770 0.929 . S
C774 C776 1.378 . S
C774 C778 1.350 . S
C775 C778 1.463 . S
C775 C780 1.350 . S
C775 N783 1.427 . S
C776 H767 0.930 . S
C776 C774 1.378 . S
C776 C777 1.367 . S
C777 C776 1.367 . S
C777 C779 1.433 . S
C778 C774 1.350 . S
C778 C775 1.463 . S
C778 N782 1.427 . S
C779 H769 0.929 . S
C779 C777 1.433 . S
C779 N782 1.384 . S
C780 H771 0.929 . S
C780 C772 1.378 . S
C780 C775 1.350 . S
C781 H768 0.929 . S
C781 C773 1.433 . S
C781 N783 1.384 . S
N782 C778 1.427 . S
N782 C779 1.384 . S
N783 C775 1.427 . S
N783 C781 1.384 . S
H784 C790 0.930 . S
H785 C794 0.930 . S
H786 C799 0.929 . S
H787 C797 0.929 . S
H788 C792 0.929 . S
H789 C798 0.929 . S
C790 H784 0.930 . S
C790 C791 1.367 . S
C790 C798 1.378 . S
C791 C790 1.367 . S
C791 C799 1.433 . S
C792 H788 0.929 . S
C792 C794 1.378 . S
C792 C796 1.350 . S
C793 C796 1.463 . S
C793 C798 1.350 . S
C793 N801 1.427 . S
C794 H785 0.930 . S
C794 C792 1.378 . S
C794 C795 1.367 . S
C795 C794 1.367 . S
C795 C797 1.433 . S
C796 C792 1.350 . S
C796 C793 1.463 . S
C796 N800 1.427 . S
C797 H787 0.929 . S
C797 C795 1.433 . S
C797 N800 1.384 . S
C798 H789 0.929 . S
C798 C790 1.378 . S
C798 C793 1.350 . S
C799 H786 0.929 . S
C799 C791 1.433 . S
C799 N801 1.384 . S
N800 C796 1.427 . S
N800 C797 1.384 . S
N801 C793 1.427 . S
N801 C799 1.384 . S
H802 C808 0.930 . S
H803 C812 0.930 . S
H804 C817 0.929 . S
H805 C815 0.929 . S
H806 C810 0.929 . S
H807 C816 0.929 . S
C808 H802 0.930 . S
C808 C809 1.399 . S
C808 C816 1.378 . S
C809 C808 1.399 . S
C809 C817 1.399 1_565 S
C810 H806 0.929 . S
C810 C812 1.378 . S
C810 C814 1.350 1_545 S
C811 C814 1.463 . S
C811 C816 1.350 . S
C811 N819 1.427 1_565 S
C812 H803 0.930 . S
C812 C810 1.378 . S
C812 C813 1.367 1_545 S
C813 C812 1.367 1_565 S
C813 C815 1.433 . S
C814 C810 1.350 1_565 S
C814 C811 1.463 . S
C814 N818 1.427 . S
C815 H805 0.929 . S
C815 C813 1.433 . S
C815 N818 1.384 . S
C816 H807 0.929 . S
C816 C808 1.378 . S
C816 C811 1.350 . S
C817 H804 0.929 . S
C817 C809 1.399 1_545 S
C817 N819 1.384 . S
N818 C814 1.427 . S
N818 C815 1.384 . S
N819 C811 1.427 1_545 S
N819 C817 1.384 . S
H820 C826 0.930 . S
H821 C830 0.930 . S
H822 C835 0.929 . S
H823 C833 0.929 . S
H824 C828 0.929 . S
H825 C834 0.929 . S
C826 H820 0.930 . S
C826 C827 1.367 . S
C826 C834 1.378 . S
C827 C826 1.367 . S
C827 C835 1.433 . S
C828 H824 0.929 . S
C828 C830 1.378 . S
C828 C832 1.350 . S
C829 C832 1.463 . S
C829 C834 1.350 . S
C829 N837 1.427 . S
C830 H821 0.930 . S
C830 C828 1.378 . S
C830 C831 1.367 . S
C831 C830 1.367 . S
C831 C833 1.433 . S
C832 C828 1.350 . S
C832 C829 1.463 . S
C832 N836 1.427 . S
C833 H823 0.929 . S
C833 C831 1.433 . S
C833 N836 1.384 . S
C834 H825 0.929 . S
C834 C826 1.378 . S
C834 C829 1.350 . S
C835 H822 0.929 . S
C835 C827 1.433 . S
C835 N837 1.384 . S
N836 C832 1.427 . S
N836 C833 1.384 . S
N837 C829 1.427 . S
N837 C835 1.384 . S
H838 C844 0.930 . S
H839 C848 0.930 . S
H840 C853 0.929 . S
H841 C851 0.929 . S
H842 C846 0.929 . S
H843 C852 0.929 . S
C844 H838 0.930 . S
C844 C845 1.367 . S
C844 C852 1.378 . S
C845 C844 1.367 . S
C845 C853 1.433 . S
C846 H842 0.929 . S
C846 C848 1.378 . S
C846 C850 1.350 . S
C847 C850 1.463 . S
C847 C852 1.350 . S
C847 N855 1.427 . S
C848 H839 0.930 . S
C848 C846 1.378 . S
C848 C849 1.367 . S
C849 C848 1.367 . S
C849 C851 1.433 . S
C850 C846 1.350 . S
C850 C847 1.463 . S
C850 N854 1.427 . S
C851 H841 0.929 . S
C851 C849 1.433 . S
C851 N854 1.384 . S
C852 H843 0.929 . S
C852 C844 1.378 . S
C852 C847 1.350 . S
C853 H840 0.929 . S
C853 C845 1.433 . S
C853 N855 1.384 . S
N854 C850 1.427 . S
N854 C851 1.384 . S
N855 C847 1.427 . S
N855 C853 1.384 . S
C431 C241 1.849 1_565 S
C435 C305 1.887 . S
C453 C326 1.747 . S
C449 C277 1.693 . S
C471 C360 1.567 . S
C467 C169 1.500 . S
C489 C394 1.715 . S
C485 C205 1.689 . S
C507 C296 1.893 . S
C503 C97 1.852 1_556 S
C521 C133 1.740 1_556 S
C525 C335 1.752 . S
C539 C25 1.522 . S
C543 C369 1.563 . S
C557 C61 1.644 . S
C561 C403 1.719 . S
C579 C317 0.649 . S
C575 C211 0.689 . S
C597 C322 0.457 . S
C593 C247 0.486 . S
C615 C356 0.604 . S
C611 C253 0.624 . S
C629 C175 0.436 . S
C633 C390 0.171 . S
C647 C67 0.708 . S
C651 C288 0.635 . S
C669 C351 0.448 . S
C665 C103 0.464 1_565 S
C687 C385 0.606 . S
C683 C109 0.615 . S
C701 C31 0.289 . S
C705 C419 0.164 . S
C719 C181 1.699 . S
C723 C301 1.759 . S
C737 C217 2.044 . S
C741 C330 2.136 . S
C759 C364 1.889 . S
C755 C283 1.741 . S
C777 C398 1.933 . S
C773 C145 1.807 1_556 S
C791 C37 1.653 . S
C795 C292 1.761 . S
C813 C339 2.138 . S
C809 C73 2.050 1_565 S
C831 C373 1.892 . S
C827 C139 1.783 . S
C845 C1 1.842 . S
C849 C407 1.934 . S
