# Generated by pormake.
# Topology llk, (3,12)-cn, num edge types: 1
# Building blocks:
#     Node 0, Type 0, BuildingBlock: BETDIP_clean_linker_0, # of connection points: 3
#     Node 1, Type 0, BuildingBlock: BETDIP_clean_linker_0, # of connection points: 3
#     Node 2, Type 0, BuildingBlock: BETDIP_clean_linker_0, # of connection points: 3
#     Node 3, Type 0, BuildingBlock: BETDIP_clean_linker_0, # of connection points: 3
#     Node 4, Type 0, BuildingBlock: BETDIP_clean_linker_0, # of connection points: 3
#     Node 5, Type 0, BuildingBlock: BETDIP_clean_linker_0, # of connection points: 3
#     Node 6, Type 0, BuildingBlock: BETDIP_clean_linker_0, # of connection points: 3
#     Node 7, Type 0, BuildingBlock: BETDIP_clean_linker_0, # of connection points: 3
#     Node 8, Type 0, BuildingBlock: BETDIP_clean_linker_0, # of connection points: 3
#     Node 9, Type 0, BuildingBlock: BETDIP_clean_linker_0, # of connection points: 3
#     Node 10, Type 0, BuildingBlock: BETDIP_clean_linker_0, # of connection points: 3
#     Node 11, Type 0, BuildingBlock: BETDIP_clean_linker_0, # of connection points: 3
#     Node 12, Type 0, BuildingBlock: BETDIP_clean_linker_0, # of connection points: 3
#     Node 13, Type 0, BuildingBlock: BETDIP_clean_linker_0, # of connection points: 3
#     Node 14, Type 0, BuildingBlock: BETDIP_clean_linker_0, # of connection points: 3
#     Node 15, Type 0, BuildingBlock: BETDIP_clean_linker_0, # of connection points: 3
#     Node 16, Type 0, BuildingBlock: BETDIP_clean_linker_0, # of connection points: 3
#     Node 17, Type 0, BuildingBlock: BETDIP_clean_linker_0, # of connection points: 3
#     Node 18, Type 0, BuildingBlock: BETDIP_clean_linker_0, # of connection points: 3
#     Node 19, Type 0, BuildingBlock: BETDIP_clean_linker_0, # of connection points: 3
#     Node 20, Type 0, BuildingBlock: BETDIP_clean_linker_0, # of connection points: 3
#     Node 21, Type 0, BuildingBlock: BETDIP_clean_linker_0, # of connection points: 3
#     Node 22, Type 0, BuildingBlock: BETDIP_clean_linker_0, # of connection points: 3
#     Node 23, Type 0, BuildingBlock: BETDIP_clean_linker_0, # of connection points: 3
#     Node 24, Type 1, BuildingBlock: EZIPEK_clean_sbu_0, # of connection points: 12
#     Node 25, Type 1, BuildingBlock: EZIPEK_clean_sbu_0, # of connection points: 12
#     Node 26, Type 1, BuildingBlock: EZIPEK_clean_sbu_0, # of connection points: 12
#     Node 27, Type 1, BuildingBlock: EZIPEK_clean_sbu_0, # of connection points: 12
#     Node 28, Type 1, BuildingBlock: EZIPEK_clean_sbu_0, # of connection points: 12
#     Node 29, Type 1, BuildingBlock: EZIPEK_clean_sbu_0, # of connection points: 12
#     Edge 30, Type (0, 1), BuildingBlock: ZUJKAS_clean_linker_0, # of connection points: 2
#     Edge 31, Type (0, 1), BuildingBlock: ZUJKAS_clean_linker_0, # of connection points: 2
#     Edge 32, Type (0, 1), BuildingBlock: ZUJKAS_clean_linker_0, # of connection points: 2
#     Edge 33, Type (0, 1), BuildingBlock: ZUJKAS_clean_linker_0, # of connection points: 2
#     Edge 34, Type (0, 1), BuildingBlock: ZUJKAS_clean_linker_0, # of connection points: 2
#     Edge 35, Type (0, 1), BuildingBlock: ZUJKAS_clean_linker_0, # of connection points: 2
#     Edge 36, Type (0, 1), BuildingBlock: ZUJKAS_clean_linker_0, # of connection points: 2
#     Edge 37, Type (0, 1), BuildingBlock: ZUJKAS_clean_linker_0, # of connection points: 2
#     Edge 38, Type (0, 1), BuildingBlock: ZUJKAS_clean_linker_0, # of connection points: 2
#     Edge 39, Type (0, 1), BuildingBlock: ZUJKAS_clean_linker_0, # of connection points: 2
#     Edge 40, Type (0, 1), BuildingBlock: ZUJKAS_clean_linker_0, # of connection points: 2
#     Edge 41, Type (0, 1), BuildingBlock: ZUJKAS_clean_linker_0, # of connection points: 2
#     Edge 42, Type (0, 1), BuildingBlock: ZUJKAS_clean_linker_0, # of connection points: 2
#     Edge 43, Type (0, 1), BuildingBlock: ZUJKAS_clean_linker_0, # of connection points: 2
#     Edge 44, Type (0, 1), BuildingBlock: ZUJKAS_clean_linker_0, # of connection points: 2
#     Edge 45, Type (0, 1), BuildingBlock: ZUJKAS_clean_linker_0, # of connection points: 2
#     Edge 46, Type (0, 1), BuildingBlock: ZUJKAS_clean_linker_0, # of connection points: 2
#     Edge 47, Type (0, 1), BuildingBlock: ZUJKAS_clean_linker_0, # of connection points: 2
#     Edge 48, Type (0, 1), BuildingBlock: ZUJKAS_clean_linker_0, # of connection points: 2
#     Edge 49, Type (0, 1), BuildingBlock: ZUJKAS_clean_linker_0, # of connection points: 2
#     Edge 50, Type (0, 1), BuildingBlock: ZUJKAS_clean_linker_0, # of connection points: 2
#     Edge 51, Type (0, 1), BuildingBlock: ZUJKAS_clean_linker_0, # of connection points: 2
#     Edge 52, Type (0, 1), BuildingBlock: ZUJKAS_clean_linker_0, # of connection points: 2
#     Edge 53, Type (0, 1), BuildingBlock: ZUJKAS_clean_linker_0, # of connection points: 2
#     Edge 54, Type (0, 1), BuildingBlock: ZUJKAS_clean_linker_0, # of connection points: 2
#     Edge 55, Type (0, 1), BuildingBlock: ZUJKAS_clean_linker_0, # of connection points: 2
#     Edge 56, Type (0, 1), BuildingBlock: ZUJKAS_clean_linker_0, # of connection points: 2
#     Edge 57, Type (0, 1), BuildingBlock: ZUJKAS_clean_linker_0, # of connection points: 2
#     Edge 58, Type (0, 1), BuildingBlock: ZUJKAS_clean_linker_0, # of connection points: 2
#     Edge 59, Type (0, 1), BuildingBlock: ZUJKAS_clean_linker_0, # of connection points: 2
#     Edge 60, Type (0, 1), BuildingBlock: ZUJKAS_clean_linker_0, # of connection points: 2
#     Edge 61, Type (0, 1), BuildingBlock: ZUJKAS_clean_linker_0, # of connection points: 2
#     Edge 62, Type (0, 1), BuildingBlock: ZUJKAS_clean_linker_0, # of connection points: 2
#     Edge 63, Type (0, 1), BuildingBlock: ZUJKAS_clean_linker_0, # of connection points: 2
#     Edge 64, Type (0, 1), BuildingBlock: ZUJKAS_clean_linker_0, # of connection points: 2
#     Edge 65, Type (0, 1), BuildingBlock: ZUJKAS_clean_linker_0, # of connection points: 2
#     Edge 66, Type (0, 1), BuildingBlock: ZUJKAS_clean_linker_0, # of connection points: 2
#     Edge 67, Type (0, 1), BuildingBlock: ZUJKAS_clean_linker_0, # of connection points: 2
#     Edge 68, Type (0, 1), BuildingBlock: ZUJKAS_clean_linker_0, # of connection points: 2
#     Edge 69, Type (0, 1), BuildingBlock: ZUJKAS_clean_linker_0, # of connection points: 2
#     Edge 70, Type (0, 1), BuildingBlock: ZUJKAS_clean_linker_0, # of connection points: 2
#     Edge 71, Type (0, 1), BuildingBlock: ZUJKAS_clean_linker_0, # of connection points: 2
#     Edge 72, Type (0, 1), BuildingBlock: ZUJKAS_clean_linker_0, # of connection points: 2
#     Edge 73, Type (0, 1), BuildingBlock: ZUJKAS_clean_linker_0, # of connection points: 2
#     Edge 74, Type (0, 1), BuildingBlock: ZUJKAS_clean_linker_0, # of connection points: 2
#     Edge 75, Type (0, 1), BuildingBlock: ZUJKAS_clean_linker_0, # of connection points: 2
#     Edge 76, Type (0, 1), BuildingBlock: ZUJKAS_clean_linker_0, # of connection points: 2
#     Edge 77, Type (0, 1), BuildingBlock: ZUJKAS_clean_linker_0, # of connection points: 2
#     Edge 78, Type (0, 1), BuildingBlock: ZUJKAS_clean_linker_0, # of connection points: 2
#     Edge 79, Type (0, 1), BuildingBlock: ZUJKAS_clean_linker_0, # of connection points: 2
#     Edge 80, Type (0, 1), BuildingBlock: ZUJKAS_clean_linker_0, # of connection points: 2
#     Edge 81, Type (0, 1), BuildingBlock: ZUJKAS_clean_linker_0, # of connection points: 2
#     Edge 82, Type (0, 1), BuildingBlock: ZUJKAS_clean_linker_0, # of connection points: 2
#     Edge 83, Type (0, 1), BuildingBlock: ZUJKAS_clean_linker_0, # of connection points: 2
#     Edge 84, Type (0, 1), BuildingBlock: ZUJKAS_clean_linker_0, # of connection points: 2
#     Edge 85, Type (0, 1), BuildingBlock: ZUJKAS_clean_linker_0, # of connection points: 2
#     Edge 86, Type (0, 1), BuildingBlock: ZUJKAS_clean_linker_0, # of connection points: 2
#     Edge 87, Type (0, 1), BuildingBlock: ZUJKAS_clean_linker_0, # of connection points: 2
#     Edge 88, Type (0, 1), BuildingBlock: ZUJKAS_clean_linker_0, # of connection points: 2
#     Edge 89, Type (0, 1), BuildingBlock: ZUJKAS_clean_linker_0, # of connection points: 2
#     Edge 90, Type (0, 1), BuildingBlock: ZUJKAS_clean_linker_0, # of connection points: 2
#     Edge 91, Type (0, 1), BuildingBlock: ZUJKAS_clean_linker_0, # of connection points: 2
#     Edge 92, Type (0, 1), BuildingBlock: ZUJKAS_clean_linker_0, # of connection points: 2
#     Edge 93, Type (0, 1), BuildingBlock: ZUJKAS_clean_linker_0, # of connection points: 2
#     Edge 94, Type (0, 1), BuildingBlock: ZUJKAS_clean_linker_0, # of connection points: 2
#     Edge 95, Type (0, 1), BuildingBlock: ZUJKAS_clean_linker_0, # of connection points: 2
#     Edge 96, Type (0, 1), BuildingBlock: ZUJKAS_clean_linker_0, # of connection points: 2
#     Edge 97, Type (0, 1), BuildingBlock: ZUJKAS_clean_linker_0, # of connection points: 2
#     Edge 98, Type (0, 1), BuildingBlock: ZUJKAS_clean_linker_0, # of connection points: 2
#     Edge 99, Type (0, 1), BuildingBlock: ZUJKAS_clean_linker_0, # of connection points: 2
#     Edge 100, Type (0, 1), BuildingBlock: ZUJKAS_clean_linker_0, # of connection points: 2
#     Edge 101, Type (0, 1), BuildingBlock: ZUJKAS_clean_linker_0, # of connection points: 2
# Relax obj value: 0.073
# Max RMSD: 0.173
# Mean RMSD: 0.134
data_MOF--net-llk--node1-EZIPEK_clean_sbu_0--node2-BETDIP_clean_linker_0--edge1-ZUJKAS_clean_linker_0
_symmetry_space_group_name_H-M    P1
_symmetry_Int_Tables_number       1
_symmetry_cell_setting            triclinic
loop_
_symmetry_equiv_pos_as_xyz
'x, y, z'
_cell_length_a     59.459908
_cell_length_b     59.904698
_cell_length_c     60.314412
_cell_angle_alpha  89.99145
_cell_angle_beta   89.994987
_cell_angle_gamma 90.011016
loop_
_atom_site_label
_atom_site_type_symbol
_atom_site_fract_x
_atom_site_fract_y
_atom_site_fract_z
_atom_type_partial_charge
H0 H 0.00801 0.2509 0.2295 0.0
H1 H 0.01295 0.26244 0.2998 0.0
H2 H 1.00051 0.31736 0.25579 0.0
H3 H 0.04532 0.23373 0.28754 0.0
C4 C 0.03042 0.22346 0.28513 0.0
C5 C 0.00753 0.26223 0.24349 0.0
C6 C 0.00394 0.2853 0.24002 0.0
C7 C 0.01079 0.25393 0.26519 0.0
C8 C 0.01035 0.26878 0.28317 0.0
C9 C 0.00666 0.29163 0.27994 0.0
C10 C 0.00336 0.29967 0.25838 0.0
N11 N 0.01424 0.23072 0.26923 0.0
H12 H 0.79022 1.00074 0.2589 0.0
H13 H 0.71878 0.99412 0.26869 0.0
H14 H 0.76176 0.00798 0.32417 0.0
H15 H 0.73246 0.96237 0.24042 0.0
C16 C 0.73508 0.97719 0.23033 0.0
C17 C 0.77574 1.00094 0.26981 0.0
C18 C 0.77858 0.00476 0.29273 0.0
C19 C 0.75408 0.99706 0.26108 0.0
C20 C 0.73543 0.99713 0.27537 0.0
C21 C 0.73805 1.00104 0.29811 0.0
C22 C 0.75963 0.00495 0.30657 0.0
N23 N 0.75078 0.99343 0.23798 0.0
H24 H 0.01195 0.78674 0.25996 0.0
H25 H 0.0101 0.71561 0.27022 0.0
H26 H 0.00833 0.75988 0.32614 0.0
H27 H 0.04463 0.72768 0.24142 0.0
C28 C 0.02964 0.73053 0.23148 0.0
C29 C 0.01083 0.77256 0.27105 0.0
C30 C 0.01008 0.77591 0.29424 0.0
C31 C 0.01145 0.75065 0.26239 0.0
C32 C 0.01022 0.7324 0.27692 0.0
C33 C 0.00872 0.7356 0.29985 0.0
C34 C 0.00883 0.75734 0.30834 0.0
N35 N 0.01378 0.7466 0.23922 0.0
H36 H 0.22102 0.00364 0.25963 0.0
H37 H 0.29289 0.00691 0.2678 0.0
H38 H 0.25069 0.99463 0.32418 0.0
H39 H 0.27867 0.04117 0.24105 0.0
C40 C 0.27593 0.02657 0.23066 0.0
C41 C 0.23572 0.00261 0.27018 0.0
C42 C 0.23327 0.99834 0.29308 0.0
C43 C 0.25731 0.00596 0.26107 0.0
C44 C 0.27627 0.00479 0.27488 0.0
C45 C 0.27402 1.0004 0.29755 0.0
C46 C 0.25253 0.9972 0.30647 0.0
N47 N 0.2602 0.01025 0.23804 0.0
H48 H 0.00786 0.75571 0.79537 0.0
H49 H 0.01147 0.74567 0.72476 0.0
H50 H 0.00122 0.68962 0.76785 0.0
H51 H 0.04497 0.77409 0.7379 0.0
C52 C 0.02995 0.78419 0.74022 0.0
C53 C 0.00732 0.74465 0.78117 0.0
C54 C 0.00387 0.72148 0.78423 0.0
C55 C 0.01035 0.75339 0.75961 0.0
C56 C 0.0097 0.73892 0.74134 0.0
C57 C 0.00618 0.716 0.74417 0.0
C58 C 0.00328 0.70746 0.76559 0.0
N59 N 0.0137 0.77667 0.75594 0.0
H60 H 0.22146 1.00191 0.76496 0.0
H61 H 0.29332 0.99881 0.75672 0.0
H62 H 0.25104 0.0107 0.70032 0.0
H63 H 0.27917 0.96459 0.78355 0.0
C64 C 0.27643 0.97918 0.79394 0.0
C65 C 0.23615 0.00291 0.75438 0.0
C66 C 0.23365 0.00706 0.73146 0.0
C67 C 0.25775 0.99966 0.76348 0.0
C68 C 0.27669 1.00082 0.74965 0.0
C69 C 0.27441 0.00509 0.72694 0.0
C70 C 0.2529 0.00819 0.71803 0.0
N71 N 0.26069 0.99548 0.78653 0.0
H72 H 0.00707 0.2201 0.76474 0.0
H73 H 0.01066 0.29125 0.75509 0.0
H74 H 0.99993 0.24816 0.69931 0.0
H75 H 0.04423 0.27805 0.78294 0.0
C76 C 0.02937 0.27545 0.79315 0.0
C77 C 0.00643 0.23446 0.75384 0.0
C78 C 0.00278 0.23151 0.73086 0.0
C79 C 0.00955 0.25611 0.7626 0.0
C80 C 0.0088 0.27459 0.74833 0.0
C81 C 0.00507 0.27187 0.72558 0.0
C82 C 0.00209 0.25035 0.71704 0.0
N83 N 0.01312 0.25962 0.78571 0.0
H84 H 0.75797 0.00518 0.79621 0.0
H85 H 0.75037 0.996 0.72585 0.0
H86 H 0.6922 0.00781 0.7664 0.0
H87 H 0.78187 0.96496 0.74439 0.0
C88 C 0.78989 0.98127 0.74442 0.0
C89 C 0.74726 0.00426 0.7817 0.0
C90 C 0.72376 0.00676 0.78387 0.0
C91 C 0.75686 1.00032 0.76069 0.0
C92 C 0.74292 0.99903 0.74197 0.0
C93 C 0.71962 1.00182 0.74386 0.0
C94 C 0.71023 0.00569 0.76483 0.0
N95 N 0.78054 0.99829 0.75808 0.0
H96 H 0.22042 0.25025 0.01087 0.0
H97 H 0.2924 0.2569 0.00722 0.0
H98 H 0.25164 0.31435 0.02094 0.0
H99 H 0.27672 0.23081 0.97243 0.0
C100 C 0.27422 0.22038 0.98699 0.0
C101 C 0.23537 0.26053 0.01202 0.0
C102 C 0.23348 0.28351 0.01674 0.0
C103 C 0.25666 0.25097 0.0083 0.0
C104 C 0.27598 0.26437 0.00962 0.0
C105 C 0.27431 0.28715 0.01452 0.0
C106 C 0.25305 0.29654 0.01804 0.0
N107 N 0.25886 0.22785 1.00349 0.0
H108 H 0.22073 0.7568 0.01419 0.0
H109 H 0.29264 0.74914 0.01737 0.0
H110 H 0.25099 0.69237 1.00343 0.0
H111 H 0.27758 0.77502 0.05241 0.0
C112 C 0.27508 0.78571 0.03805 0.0
C113 C 0.23553 0.74633 0.01287 0.0
C114 C 0.23329 0.72342 0.00797 0.0
C115 C 0.25698 0.75558 0.01653 0.0
C116 C 0.2761 0.74192 0.01499 0.0
C117 C 0.27408 0.7192 0.00992 0.0
C118 C 0.25267 0.71014 0.00646 0.0
N119 N 0.25955 0.77862 0.02154 0.0
H120 H 0.75978 0.21867 0.00899 0.0
H121 H 0.75064 0.28971 1.00339 0.0
H122 H 0.69445 0.2478 0.01965 0.0
H123 H 0.77775 0.27525 0.96998 0.0
C124 C 0.78832 0.27283 0.98449 0.0
C125 C 0.74895 0.23319 0.00989 0.0
C126 C 0.72592 0.23067 0.0148 0.0
C127 C 0.75789 0.25454 0.00574 0.0
C128 C 0.74376 0.27329 0.00668 0.0
C129 C 0.72088 0.27101 0.0117 0.0
C130 C 0.71218 0.24968 0.01586 0.0
N131 N 0.78112 0.25734 1.0009 0.0
H132 H 0.75845 0.7882 0.02241 0.0
H133 H 0.75206 0.71662 0.02346 0.0
H134 H 0.6929 0.75758 0.02087 0.0
H135 H 0.78159 0.73459 0.05775 0.0
C136 C 0.79057 0.73563 0.04207 0.0
C137 C 0.74797 0.7734 0.02205 0.0
C138 C 0.72436 0.77542 0.02187 0.0
C139 C 0.75794 0.75212 0.02315 0.0
C140 C 0.74432 0.733 0.02281 0.0
C141 C 0.72089 0.73486 0.02191 0.0
C142 C 0.71106 0.75608 0.02163 0.0
N143 N 0.78159 0.74968 0.02526 0.0
H144 H 0.51272 0.7513 0.72976 0.0
H145 H 0.51207 0.76163 0.80041 0.0
H146 H 0.50993 0.81796 0.75646 0.0
H147 H 0.54646 0.7324 0.78751 0.0
C148 C 0.53126 0.72256 0.78517 0.0
C149 C 0.5119 0.76247 0.74385 0.0
C150 C 0.51127 0.78582 0.74052 0.0
C151 C 0.51283 0.75376 0.7656 0.0
C152 C 0.51198 0.76839 0.78374 0.0
C153 C 0.51056 0.79149 0.78059 0.0
C154 C 0.5104 0.80003 0.75898 0.0
N155 N 0.51509 0.73043 0.76956 0.0
H156 H 0.29004 0.50112 0.76 0.0
H157 H 0.21809 0.49812 0.76751 0.0
H158 H 0.25976 0.51059 0.82423 0.0
H159 H 0.23258 0.46357 0.74106 0.0
C160 C 0.23537 0.47815 0.73066 0.0
C161 C 0.27524 0.50224 0.77042 0.0
C162 C 0.27749 0.50663 0.79331 0.0
C163 C 0.25374 0.4989 0.76112 0.0
C164 C 0.23465 0.50021 0.77474 0.0
C165 C 0.23668 0.50473 0.79741 0.0
C166 C 0.25809 0.50791 0.80652 0.0
N167 N 0.25105 0.49449 0.73809 0.0
H168 H 0.51055 0.28651 0.76069 0.0
H169 H 0.51461 0.21519 0.76876 0.0
H170 H 0.51592 0.25777 0.82599 0.0
H171 H 0.54601 0.23401 0.73524 0.0
C172 C 0.52915 0.23382 0.72824 0.0
C173 C 0.5118 0.27203 0.77138 0.0
C174 C 0.51365 0.27478 0.79459 0.0
C175 C 0.51275 0.25043 0.76201 0.0
C176 C 0.51428 0.23178 0.77596 0.0
C177 C 0.51525 0.23431 0.79899 0.0
C178 C 0.51526 0.25579 0.80812 0.0
N179 N 0.51231 0.24712 0.73865 0.0
H180 H 0.72131 0.5036 0.75844 0.0
H181 H 0.79261 0.511 0.76877 0.0
H182 H 0.74927 0.49717 0.82399 0.0
H183 H 0.77871 0.54247 0.74024 0.0
C184 C 0.77636 0.52758 0.73019 0.0
C185 C 0.7357 0.5036 0.76945 0.0
C186 C 0.73272 0.49993 0.79238 0.0
C187 C 0.75741 0.50761 0.76088 0.0
C188 C 0.77594 0.50785 0.77533 0.0
C189 C 0.77314 0.50415 0.79808 0.0
C190 C 0.75154 0.50005 0.80637 0.0
N191 N 0.76083 0.51116 0.73779 0.0
H192 H 0.51262 0.25628 0.29573 0.0
H193 H 0.51273 0.24534 0.22517 0.0
H194 H 0.51006 0.18938 0.26959 0.0
H195 H 0.54681 0.2747 0.23786 0.0
C196 C 0.53163 0.28457 0.24013 0.0
C197 C 0.51196 0.24498 0.28172 0.0
C198 C 0.5112 0.22167 0.28523 0.0
C199 C 0.51315 0.25351 0.25992 0.0
C200 C 0.51247 0.23872 0.2419 0.0
C201 C 0.51099 0.21565 0.24523 0.0
C202 C 0.51056 0.20729 0.2669 0.0
N203 N 0.51543 0.27682 0.25577 0.0
H204 H 0.72149 0.49897 0.26444 0.0
H205 H 0.79341 0.49275 0.2588 0.0
H206 H 0.75231 0.4911 0.20028 0.0
H207 H 0.7717 0.46326 0.29318 0.0
C208 C 0.77264 0.48034 0.29919 0.0
C209 C 0.73637 0.49701 0.25425 0.0
C210 C 0.7343 0.49452 0.23107 0.0
C211 C 0.75775 0.4958 0.26429 0.0
C212 C 0.77697 0.4933 0.25104 0.0
C213 C 0.77513 0.49174 0.22796 0.0
C214 C 0.75378 0.49209 0.21818 0.0
N215 N 0.76023 0.49703 0.28769 0.0
H216 H 0.50485 0.71961 0.26425 0.0
H217 H 0.51027 0.79068 0.25488 0.0
H218 H 0.50091 0.74778 0.19864 0.0
H219 H 0.5431 0.77474 0.28546 0.0
C220 C 0.52708 0.77368 0.2941 0.0
C221 C 0.50504 0.73398 0.25333 0.0
C222 C 0.50235 0.7311 0.23023 0.0
C223 C 0.50817 0.75556 0.26223 0.0
C224 C 0.50843 0.77407 0.24798 0.0
C225 C 0.50543 0.77142 0.22511 0.0
C226 C 0.50251 0.74994 0.21642 0.0
N227 N 0.51035 0.759 0.28549 0.0
H228 H 0.25895 0.50133 0.29544 0.0
H229 H 0.24862 0.49629 0.22499 0.0
H230 H 0.19277 0.51045 0.26782 0.0
H231 H 0.27667 0.4633 0.23833 0.0
C232 C 0.2871 0.47802 0.24073 0.0
C233 C 0.24783 0.50205 0.28123 0.0
C234 C 0.22466 0.50628 0.28424 0.0
C235 C 0.2565 0.49843 0.25977 0.0
C236 C 0.24195 0.49917 0.24146 0.0
C237 C 0.21899 0.50353 0.24421 0.0
C238 C 0.21055 0.50716 0.2656 0.0
N239 N 0.27982 0.49432 0.25636 0.0
H240 H 0.72103 0.74875 0.50985 0.0
H241 H 0.79228 0.75913 0.50241 0.0
H242 H 0.74922 0.81444 0.51802 0.0
H243 H 0.77819 0.73116 0.47051 0.0
C244 C 0.77576 0.72077 0.48511 0.0
C245 C 0.73545 0.7598 0.51012 0.0
C246 C 0.73256 0.78274 0.51445 0.0
C247 C 0.75705 0.75125 0.50575 0.0
C248 C 0.77566 0.7657 0.50585 0.0
C249 C 0.77298 0.7885 0.51024 0.0
C250 C 0.75142 0.79679 0.51467 0.0
N251 N 0.76025 0.72811 0.50153 0.0
H252 H 0.7208 0.25695 0.51074 0.0
H253 H 0.79176 0.24969 0.52297 0.0
H254 H 0.75098 0.19167 0.51119 0.0
H255 H 0.77216 0.28213 0.55176 0.0
C256 C 0.77243 0.28948 0.53528 0.0
C257 C 0.73547 0.24638 0.51255 0.0
C258 C 0.7334 0.22305 0.51064 0.0
C259 C 0.75657 0.25601 0.51707 0.0
C260 C 0.77551 0.24224 0.51956 0.0
C261 C 0.77365 0.21902 0.51744 0.0
C262 C 0.75257 0.20962 0.51291 0.0
N263 N 0.75901 0.27955 0.51845 0.0
H264 H 0.25992 0.71919 0.50942 0.0
H265 H 0.24975 0.79008 0.50366 0.0
H266 H 0.19428 0.74745 0.52044 0.0
H267 H 0.27679 0.77613 0.47029 0.0
C268 C 0.28757 0.77371 0.48466 0.0
C269 C 0.24891 0.73357 0.51038 0.0
C270 C 0.22594 0.73076 0.51544 0.0
C271 C 0.25752 0.75502 0.5061 0.0
C272 C 0.24313 0.77358 0.50706 0.0
C273 C 0.22032 0.771 0.51224 0.0
C274 C 0.21195 0.74958 0.51655 0.0
N275 N 0.28067 0.7581 0.50109 0.0
H276 H 0.25964 0.28803 0.52228 0.0
H277 H 0.25213 0.21662 0.52521 0.0
H278 H 0.19361 0.25848 0.52194 0.0
H279 H 0.2824 0.23336 0.55787 0.0
C280 C 0.29135 0.2349 0.54221 0.0
C281 C 0.24894 0.27339 0.5224 0.0
C282 C 0.22536 0.27578 0.52235 0.0
C283 C 0.25858 0.25199 0.52396 0.0
C284 C 0.24464 0.23308 0.52423 0.0
C285 C 0.22123 0.23528 0.5234 0.0
C286 C 0.21175 0.25666 0.52266 0.0
N287 N 0.28223 0.24926 0.52573 0.0
C288 C 0.00566 0.94908 0.56637 0.0
C289 C 0.00582 0.95005 0.45794 0.0
C290 C 0.0052 0.0573 0.56718 0.0
C291 C 0.00634 0.05826 0.45871 0.0
C292 C 0.95136 0.05804 0.51342 0.0
C293 C 0.95112 0.94962 0.5118 0.0
C294 C 0.06044 0.0576 0.51346 0.0
C295 C 0.06016 0.94954 0.51277 0.0
C296 C 0.06031 0.00349 0.45871 0.0
C297 C 0.95159 0.00437 0.45796 0.0
C298 C 0.0596 0.00347 0.56712 0.0
C299 C 0.95068 0.00273 0.56618 0.0
Eu300 Eu 0.00561 0.96121 0.51225 0.0
O301 O 0.9857 0.98398 0.4927 0.0
O302 O 0.02552 0.98357 0.53218 0.0
Eu303 Eu 0.96286 0.00381 0.5122 0.0
Eu304 Eu 0.04839 0.00358 0.51286 0.0
O305 O 0.98537 0.98365 0.53181 0.0
O306 O 0.02576 0.98393 0.49295 0.0
Eu307 Eu 0.00526 0.00329 0.55428 0.0
Eu308 Eu 0.00588 0.00405 0.47087 0.0
O309 O 0.98557 0.02346 0.53207 0.0
O310 O 0.98572 0.02393 0.49293 0.0
O311 O 0.0259 0.02375 0.49323 0.0
O312 O 0.02552 0.02336 0.53242 0.0
Eu313 Eu 0.0058 0.04622 0.51284 0.0
O314 O 0.00583 0.94221 0.54523 0.0
O315 O 0.00575 0.94283 0.47897 0.0
O316 O 0.00559 0.06454 0.54615 0.0
O317 O 0.00628 0.06517 0.47985 0.0
O318 O 0.94438 0.03684 0.51319 0.0
O319 O 0.94423 0.97084 0.51154 0.0
O320 O 0.06721 0.03636 0.51326 0.0
O321 O 0.06706 0.97073 0.51328 0.0
O322 O 0.03885 0.00387 0.4523 0.0
O323 O 0.97314 0.00425 0.45183 0.0
O324 O 0.03804 0.00334 0.57329 0.0
O325 O 0.97212 0.00253 0.57274 0.0
O326 O 0.0391 0.06454 0.51335 0.0
O327 O 0.97274 0.06483 0.51307 0.0
O328 O 0.03879 0.94271 0.51212 0.0
O329 O 0.97246 0.94275 0.51224 0.0
O330 O 0.00583 0.97147 0.45178 0.0
O331 O 0.00617 0.03693 0.45226 0.0
O332 O 0.00538 0.9704 0.57285 0.0
O333 O 0.00494 0.03589 0.57333 0.0
O334 O 0.94373 0.00338 0.54507 0.0
O335 O 0.94427 0.00434 0.47897 0.0
O336 O 0.0669 0.00357 0.54611 0.0
O337 O 0.06736 0.0033 0.47981 0.0
C338 C 0.50563 0.94915 0.06593 0.0
C339 C 0.5055 0.05733 0.06708 0.0
C340 C 0.50553 0.95027 0.95836 0.0
C341 C 0.50566 0.05852 0.95949 0.0
C342 C 0.56022 0.00486 0.95896 0.0
C343 C 0.56036 0.00308 0.06631 0.0
C344 C 0.45047 0.00395 0.95904 0.0
C345 C 0.45059 0.00322 0.06642 0.0
C346 C 0.4505 0.05776 0.01308 0.0
C347 C 0.56025 0.05781 0.01339 0.0
C348 C 0.45065 0.94971 0.01258 0.0
C349 C 0.56035 0.95 0.01211 0.0
Eu350 Eu 0.50546 0.00336 0.05482 0.0
O351 O 0.52526 0.0236 0.03267 0.0
O352 O 0.48561 0.98365 0.03225 0.0
Eu353 Eu 0.54761 0.00389 0.01265 0.0
Eu354 Eu 0.46316 0.00376 0.01273 0.0
O355 O 0.5253 0.9837 0.03221 0.0
O356 O 0.48554 0.02353 0.03269 0.0
Eu357 Eu 0.50547 0.96133 0.01226 0.0
Eu358 Eu 0.50536 0.04634 0.01317 0.0
O359 O 0.52525 0.98412 0.99266 0.0
O360 O 0.52514 0.02398 0.99313 0.0
O361 O 0.48552 0.02396 0.99314 0.0
O362 O 0.48557 0.98407 0.99272 0.0
Eu363 Eu 0.50535 0.00428 0.97054 0.0
O364 O 0.50543 0.9703 0.0729 0.0
O365 O 0.50569 0.03602 0.07353 0.0
O366 O 0.50565 0.97157 0.95186 0.0
O367 O 0.50533 0.03737 0.95251 0.0
O368 O 0.5667 0.00456 0.98015 0.0
O369 O 0.56675 0.00352 0.0451 0.0
O370 O 0.44403 0.00396 0.98025 0.0
O371 O 0.44413 0.00328 0.04522 0.0
O372 O 0.47183 0.06491 0.01298 0.0
O373 O 0.53891 0.06495 0.01349 0.0
O374 O 0.47201 0.94266 0.01257 0.0
O375 O 0.53903 0.94283 0.01211 0.0
O376 O 0.47183 0.00403 0.95202 0.0
O377 O 0.53884 0.00476 0.95199 0.0
O378 O 0.47196 0.00333 0.07341 0.0
O379 O 0.53899 0.00288 0.07335 0.0
O380 O 0.50524 0.06448 0.04611 0.0
O381 O 0.50577 0.06516 0.98062 0.0
O382 O 0.50572 0.94252 0.0448 0.0
O383 O 0.50534 0.94315 0.97934 0.0
O384 O 0.56673 0.97134 0.01223 0.0
O385 O 0.56664 0.03648 0.01308 0.0
O386 O 0.44417 0.97104 0.01251 0.0
O387 O 0.4441 0.0364 0.01312 0.0
C388 C 0.00567 0.44853 0.06576 0.0
C389 C 0.00548 0.44894 0.95831 0.0
C390 C 0.00523 0.5577 0.06617 0.0
C391 C 0.00499 0.55809 0.95865 0.0
C392 C 0.95063 0.55754 0.01291 0.0
C393 C 0.951 0.44875 0.01191 0.0
C394 C 0.05938 0.55804 0.01182 0.0
C395 C 0.05974 0.44905 0.01229 0.0
C396 C 0.05948 0.50354 0.95813 0.0
C397 C 0.95055 0.50351 0.95872 0.0
C398 C 0.06014 0.5035 0.06564 0.0
C399 C 0.95113 0.50198 0.06639 0.0
Eu400 Eu 0.00536 0.46141 0.01209 0.0
O401 O 0.98514 0.48364 0.99246 0.0
O402 O 0.02549 0.48364 0.03184 0.0
Eu403 Eu 0.96249 0.50319 0.01248 0.0
Eu404 Eu 0.04803 0.5035 0.01199 0.0
O405 O 0.98539 0.48352 0.03207 0.0
O406 O 0.0253 0.48376 0.99226 0.0
Eu407 Eu 0.00553 0.50316 0.05444 0.0
Eu408 Eu 0.00506 0.50346 0.97003 0.0
O409 O 0.98525 0.52292 0.03223 0.0
O410 O 0.98504 0.52304 0.9926 0.0
O411 O 0.0251 0.52319 0.99242 0.0
O412 O 0.02533 0.52307 0.03196 0.0
Eu413 Eu 0.00507 0.54532 0.01236 0.0
O414 O 0.00547 0.44226 0.04451 0.0
O415 O 0.00539 0.44251 0.97951 0.0
O416 O 0.00499 0.56414 0.04497 0.0
O417 O 0.00501 0.5644 0.97989 0.0
O418 O 0.94356 0.53633 0.0133 0.0
O419 O 0.94378 0.46991 0.01182 0.0
O420 O 0.06662 0.53687 0.0116 0.0
O421 O 0.06686 0.47026 0.0123 0.0
O422 O 0.03808 0.50367 0.95149 0.0
O423 O 0.97188 0.50317 0.95183 0.0
O424 O 0.03881 0.503 0.07253 0.0
O425 O 0.97254 0.50244 0.07301 0.0
O426 O 0.03787 0.56433 0.01223 0.0
O427 O 0.97209 0.56402 0.01235 0.0
O428 O 0.03827 0.44262 0.01212 0.0
O429 O 0.97251 0.44243 0.01214 0.0
O430 O 0.00544 0.47019 0.95137 0.0
O431 O 0.00496 0.53688 0.9516 0.0
O432 O 0.00579 0.46973 0.07284 0.0
O433 O 0.00552 0.53644 0.07311 0.0
O434 O 0.94408 0.50219 0.04536 0.0
O435 O 0.94373 0.5038 0.97981 0.0
O436 O 0.06695 0.50395 0.04455 0.0
O437 O 0.06651 0.50338 0.97916 0.0
C438 C 0.50623 0.449 0.06634 0.0
C439 C 0.50566 0.55714 0.06659 0.0
C440 C 0.50588 0.44918 0.95793 0.0
C441 C 0.50614 0.5574 0.9582 0.0
C442 C 0.56025 0.50283 0.95806 0.0
C443 C 0.56014 0.50331 0.06647 0.0
C444 C 0.45151 0.50338 0.95806 0.0
C445 C 0.45132 0.50294 0.06631 0.0
C446 C 0.45146 0.55733 0.01193 0.0
C447 C 0.56061 0.5572 0.01215 0.0
C448 C 0.45155 0.44885 0.01212 0.0
C449 C 0.56059 0.44914 0.01283 0.0
Eu450 Eu 0.50578 0.50311 0.05389 0.0
O451 O 0.52598 0.52308 0.0319 0.0
O452 O 0.48583 0.48313 0.03174 0.0
Eu453 Eu 0.54867 0.50316 0.01228 0.0
Eu454 Eu 0.46311 0.5031 0.01222 0.0
O455 O 0.5259 0.48326 0.03177 0.0
O456 O 0.48578 0.5231 0.0318 0.0
Eu457 Eu 0.50601 0.46065 0.01216 0.0
Eu458 Eu 0.50598 0.54569 0.01236 0.0
O459 O 0.52601 0.48327 0.99259 0.0
O460 O 0.52596 0.52312 0.99271 0.0
O461 O 0.48593 0.52309 0.99277 0.0
O462 O 0.4859 0.48324 0.99262 0.0
Eu463 Eu 0.5059 0.50325 0.97056 0.0
O464 O 0.50591 0.47036 0.07268 0.0
O465 O 0.50561 0.53575 0.07283 0.0
O466 O 0.50577 0.47056 0.95166 0.0
O467 O 0.50592 0.53605 0.95183 0.0
O468 O 0.56744 0.50271 0.97912 0.0
O469 O 0.56735 0.50328 0.04543 0.0
O470 O 0.44434 0.50328 0.97912 0.0
O471 O 0.4442 0.50286 0.04524 0.0
O472 O 0.47284 0.56415 0.01202 0.0
O473 O 0.53925 0.56412 0.01234 0.0
O474 O 0.47294 0.44211 0.01222 0.0
O475 O 0.53924 0.44225 0.01228 0.0
O476 O 0.47302 0.50337 0.95176 0.0
O477 O 0.53875 0.50314 0.95179 0.0
O478 O 0.47282 0.50308 0.07264 0.0
O479 O 0.53863 0.50326 0.07274 0.0
O480 O 0.50582 0.56427 0.04553 0.0
O481 O 0.50628 0.56442 0.9793 0.0
O482 O 0.50636 0.44195 0.04526 0.0
O483 O 0.50604 0.44207 0.97899 0.0
O484 O 0.56743 0.47036 0.01301 0.0
O485 O 0.5674 0.53597 0.01207 0.0
O486 O 0.44457 0.47004 0.01205 0.0
O487 O 0.44455 0.53611 0.01207 0.0
C488 C 0.00643 0.4487 0.56558 0.0
C489 C 0.00677 0.44994 0.45806 0.0
C490 C 0.0061 0.55693 0.56676 0.0
C491 C 0.00611 0.55816 0.45926 0.0
C492 C 0.95119 0.55707 0.51226 0.0
C493 C 0.95184 0.449 0.51205 0.0
C494 C 0.06092 0.55756 0.51328 0.0
C495 C 0.06143 0.44979 0.51178 0.0
C496 C 0.06141 0.50435 0.45892 0.0
C497 C 0.95165 0.50354 0.45853 0.0
C498 C 0.061 0.50286 0.56624 0.0
C499 C 0.95124 0.50301 0.56598 0.0
Eu500 Eu 0.00653 0.46098 0.51191 0.0
O501 O 0.98661 0.48363 0.4923 0.0
O502 O 0.02617 0.48339 0.53203 0.0
Eu503 Eu 0.96401 0.5031 0.51231 0.0
Eu504 Eu 0.04849 0.50362 0.51252 0.0
O505 O 0.98647 0.48313 0.53195 0.0
O506 O 0.02632 0.48383 0.49242 0.0
Eu507 Eu 0.00615 0.50293 0.55458 0.0
Eu508 Eu 0.00647 0.50392 0.47023 0.0
O509 O 0.98627 0.52298 0.53234 0.0
O510 O 0.98646 0.52336 0.49288 0.0
O511 O 0.02614 0.52372 0.49287 0.0
O512 O 0.02596 0.5232 0.53248 0.0
Eu513 Eu 0.0061 0.54586 0.51288 0.0
O514 O 0.00665 0.4421 0.54443 0.0
O515 O 0.00649 0.44281 0.47903 0.0
O516 O 0.00585 0.56401 0.54577 0.0
O517 O 0.00617 0.56472 0.48041 0.0
O518 O 0.94483 0.5357 0.51225 0.0
O519 O 0.94519 0.47027 0.51252 0.0
O520 O 0.06739 0.53626 0.51301 0.0
O521 O 0.06772 0.47115 0.5121 0.0
O522 O 0.04007 0.50435 0.45183 0.0
O523 O 0.97304 0.50416 0.45161 0.0
O524 O 0.03962 0.50257 0.57321 0.0
O525 O 0.9726 0.50305 0.57303 0.0
O526 O 0.03955 0.56462 0.51328 0.0
O527 O 0.9725 0.56426 0.51247 0.0
O528 O 0.04013 0.44255 0.51167 0.0
O529 O 0.97323 0.44209 0.51154 0.0
O530 O 0.00692 0.47123 0.45152 0.0
O531 O 0.00618 0.53704 0.45221 0.0
O532 O 0.00612 0.46984 0.57258 0.0
O533 O 0.00632 0.53563 0.57329 0.0
O534 O 0.94484 0.50296 0.54476 0.0
O535 O 0.94507 0.5029 0.47969 0.0
O536 O 0.06748 0.50332 0.54505 0.0
O537 O 0.06775 0.50413 0.48015 0.0
C538 C 0.5056 0.94789 0.56521 0.0
C539 C 0.50603 0.9491 0.45773 0.0
C540 C 0.50675 0.05692 0.56643 0.0
C541 C 0.50577 0.05816 0.45892 0.0
C542 C 0.45185 0.05778 0.51269 0.0
C543 C 0.45106 0.94897 0.51139 0.0
C544 C 0.56063 0.05705 0.51185 0.0
C545 C 0.55974 0.94808 0.51205 0.0
C546 C 0.56019 0.0032 0.45813 0.0
C547 C 0.45124 0.00365 0.45842 0.0
C548 C 0.56057 0.0024 0.56563 0.0
C549 C 0.45154 0.00277 0.56604 0.0
Eu550 Eu 0.50553 0.96106 0.51162 0.0
O551 O 0.4856 0.98366 0.49211 0.0
O552 O 0.52581 0.98295 0.53159 0.0
Eu553 Eu 0.4631 0.00329 0.5122 0.0
Eu554 Eu 0.54862 0.00266 0.51194 0.0
O555 O 0.48569 0.98321 0.53173 0.0
O556 O 0.52572 0.98337 0.49198 0.0
Eu557 Eu 0.50598 0.00254 0.55424 0.0
Eu558 Eu 0.50574 0.00348 0.46988 0.0
O559 O 0.48601 0.02268 0.53212 0.0
O560 O 0.48591 0.02308 0.49257 0.0
O561 O 0.52598 0.02279 0.49246 0.0
O562 O 0.52609 0.02235 0.53197 0.0
Eu563 Eu 0.50617 0.04501 0.51252 0.0
O564 O 0.50535 0.94171 0.54394 0.0
O565 O 0.50616 0.94243 0.47886 0.0
O566 O 0.50692 0.06359 0.54529 0.0
O567 O 0.50596 0.06433 0.4802 0.0
O568 O 0.44453 0.03664 0.51266 0.0
O569 O 0.44405 0.9702 0.51167 0.0
O570 O 0.56763 0.03581 0.51166 0.0
O571 O 0.56711 0.9692 0.51208 0.0
O572 O 0.53882 0.00383 0.45139 0.0
O573 O 0.47259 0.00362 0.4516 0.0
O574 O 0.53921 1.00209 0.57245 0.0
O575 O 0.47293 0.00258 0.57272 0.0
O576 O 0.53919 0.06359 0.51222 0.0
O577 O 0.47338 0.06404 0.51269 0.0
O578 O 0.53819 0.94191 0.51185 0.0
O579 O 0.4725 0.94244 0.5113 0.0
O580 O 0.50561 0.9704 0.45097 0.0
O581 O 0.50569 0.03701 0.45171 0.0
O582 O 0.50588 0.96904 0.57241 0.0
O583 O 0.5062 0.03562 0.57317 0.0
O584 O 0.44456 0.00298 0.54499 0.0
O585 O 0.44439 0.00364 0.47951 0.0
O586 O 0.56744 0.00281 0.54456 0.0
O587 O 0.56713 0.00247 0.47917 0.0
H588 H 0.22633 0.19731 0.49883 0.0
H589 H 0.20084 0.16519 0.49713 0.0
H590 H 0.15747 0.19636 0.54536 0.0
H591 H 0.18305 0.22828 0.5475 0.0
H592 H 0.16676 0.14969 0.55277 0.0
H593 H 0.13782 0.16843 0.46699 0.0
H594 H 0.16774 0.16658 0.4709 0.0
H595 H 0.15228 0.18872 0.48393 0.0
C596 C 0.2115 0.19716 0.50926 0.0
C597 C 0.20655 0.21533 0.52319 0.0
C598 C 0.1969 0.17893 0.50813 0.0
C599 C 0.1772 0.17864 0.5209 0.0
C600 C 0.17256 0.19641 0.53529 0.0
H601 H 0.05518 0.10291 0.5101 0.0
H602 H 0.08441 0.13146 0.51189 0.0
C603 C 0.18709 0.21465 0.53639 0.0
C604 C 0.1611 0.16002 0.51904 0.0
H605 H 0.12336 0.13588 0.48383 0.0
C606 C 0.15732 0.14655 0.53769 0.0
C607 C 0.14872 0.15626 0.49939 0.0
C608 C 0.15163 0.17082 0.47917 0.0
C609 C 0.14138 0.12932 0.53721 0.0
C610 C 0.12914 0.12545 0.5175 0.0
C611 C 0.13294 0.13889 0.49884 0.0
C612 C 0.1117 0.108 0.51616 0.0
C613 C 0.13732 0.11576 0.55792 0.0
C614 C 0.11752 0.0854 0.51771 0.0
C615 C 0.10089 0.06899 0.5167 0.0
C616 C 0.07814 0.07495 0.51408 0.0
C617 C 0.07247 0.09768 0.51225 0.0
C618 C 0.08914 0.11404 0.51321 0.0
H619 H 0.1448 0.12373 0.57283 0.0
H620 H 0.11901 0.11341 0.56078 0.0
H621 H 0.14502 0.09902 0.5559 0.0
H622 H 0.13494 0.08046 0.51968 0.0
H623 H 0.10591 0.05167 0.51812 0.0
H624 H 0.81559 0.22563 0.4999 0.0
H625 H 0.84755 0.19976 0.50077 0.0
H626 H 0.80867 0.15351 0.53987 0.0
H627 H 0.77685 0.1794 0.53959 0.0
H628 H 0.86779 0.17455 0.54445 0.0
H629 H 0.83043 0.1238 0.47629 0.0
H630 H 0.82444 0.1532 0.47947 0.0
H631 H 0.81227 0.1334 0.49823 0.0
C632 C 0.81401 0.21015 0.50905 0.0
C633 C 0.79366 0.20443 0.51951 0.0
C634 C 0.83221 0.19541 0.50945 0.0
C635 C 0.83025 0.1748 0.52025 0.0
C636 C 0.81032 0.16936 0.53136 0.0
H637 H 0.90669 0.05293 0.52305 0.0
H638 H 0.87804 0.08201 0.52531 0.0
C639 C 0.79217 0.18408 0.53105 0.0
C640 C 0.84854 0.15833 0.51893 0.0
H641 H 0.86376 0.11035 0.49257 0.0
C642 C 0.86708 0.16055 0.53307 0.0
C643 C 0.84726 0.14014 0.50413 0.0
C644 C 0.82762 0.13738 0.48853 0.0
C645 C 0.88438 0.14462 0.53307 0.0
C646 C 0.88316 0.12639 0.51818 0.0
C647 C 0.86461 0.12435 0.50394 0.0
C648 C 0.90077 0.10903 0.51722 0.0
C649 C 0.90343 0.14709 0.54941 0.0
C650 C 0.92297 0.1146 0.51167 0.0
C651 C 0.93943 0.09804 0.51043 0.0
C652 C 0.93389 0.07556 0.51446 0.0
C653 C 0.91154 0.07004 0.51975 0.0
C654 C 0.89514 0.08663 0.52111 0.0
H655 H 0.89887 0.15834 0.56335 0.0
H656 H 0.90845 0.13064 0.55631 0.0
H657 H 0.91821 0.15439 0.54083 0.0
H658 H 0.92752 0.13173 0.50807 0.0
H659 H 0.95643 0.10288 0.50612 0.0
H660 H 0.815 0.78148 0.52757 0.0
H661 H 0.84676 0.80762 0.52796 0.0
H662 H 0.80675 0.85627 0.49307 0.0
H663 H 0.77519 0.83016 0.49202 0.0
H664 H 0.86663 0.83233 0.48708 0.0
H665 H 0.83057 0.88567 0.55379 0.0
H666 H 0.82268 0.85676 0.55017 0.0
H667 H 0.81199 0.87762 0.53162 0.0
C668 C 0.81307 0.79763 0.51973 0.0
C669 C 0.79254 0.80384 0.50993 0.0
C670 C 0.83115 0.81253 0.52007 0.0
C671 C 0.82886 0.83383 0.51076 0.0
C672 C 0.80862 0.83993 0.50058 0.0
H673 H 0.90644 0.95446 0.50207 0.0
H674 H 0.87758 0.92547 0.50165 0.0
C675 C 0.79061 0.82505 0.50011 0.0
C676 C 0.84752 0.84994 0.51179 0.0
H677 H 0.86333 0.89892 0.53594 0.0
C678 C 0.86609 0.84683 0.49784 0.0
C679 C 0.8465 0.86878 0.52581 0.0
C680 C 0.82697 0.87247 0.54135 0.0
C681 C 0.88356 0.86255 0.49709 0.0
C682 C 0.88252 0.8815 0.51107 0.0
C683 C 0.86403 0.88438 0.52524 0.0
C684 C 0.90022 0.8988 0.51101 0.0
C685 C 0.90256 0.8591 0.48085 0.0
C686 C 0.92243 0.8934 0.51664 0.0
C687 C 0.93901 0.90989 0.51678 0.0
C688 C 0.93358 0.93214 0.51158 0.0
C689 C 0.91121 0.93752 0.50622 0.0
C690 C 0.89469 0.92098 0.50594 0.0
H691 H 0.89789 0.84718 0.46752 0.0
H692 H 0.90767 0.87514 0.47311 0.0
H693 H 0.91731 0.85216 0.48976 0.0
H694 H 0.92691 0.87647 0.52114 0.0
H695 H 0.95601 0.9052 0.52124 0.0
H696 H 0.22837 0.81247 0.52973 0.0
H697 H 0.20258 0.84441 0.53078 0.0
H698 H 0.15202 0.80546 0.49722 0.0
H699 H 0.17775 0.77373 0.4955 0.0
H700 H 0.17802 0.86458 0.49082 0.0
H701 H 0.12327 0.83013 0.55737 0.0
H702 H 0.15206 0.82127 0.55348 0.0
H703 H 0.13048 0.81143 0.53513 0.0
C704 C 0.21185 0.8108 0.52237 0.0
C705 C 0.20503 0.79053 0.51268 0.0
C706 C 0.19715 0.82898 0.52309 0.0
C707 C 0.17543 0.82706 0.51431 0.0
C708 C 0.16866 0.80704 0.50436 0.0
H709 H 0.05536 0.90517 0.50323 0.0
H710 H 0.08443 0.87642 0.50376 0.0
C711 C 0.18334 0.78893 0.5035 0.0
C712 C 0.15966 0.84596 0.51537 0.0
H713 H 0.11032 0.86253 0.53891 0.0
C714 C 0.1633 0.86433 0.50144 0.0
C715 C 0.14054 0.84534 0.52922 0.0
C716 C 0.13631 0.82608 0.54481 0.0
C717 C 0.14777 0.88192 0.50046 0.0
C718 C 0.12847 0.8812 0.51416 0.0
C719 C 0.12512 0.86298 0.52841 0.0
C720 C 0.11115 0.89886 0.51359 0.0
C721 C 0.15175 0.90067 0.4842 0.0
C722 C 0.11657 0.92094 0.51913 0.0
C723 C 0.10003 0.93747 0.51871 0.0
C724 C 0.07772 0.93211 0.51303 0.0
C725 C 0.07234 0.90988 0.50773 0.0
C726 C 0.08893 0.89342 0.50801 0.0
H727 H 0.16405 0.89591 0.47117 0.0
H728 H 0.1358 0.90576 0.47605 0.0
H729 H 0.15858 0.91533 0.49319 0.0
H730 H 0.13353 0.92536 0.52398 0.0
H731 H 0.10471 0.95437 0.52313 0.0
H732 H 0.48347 0.17965 0.23958 0.0
H733 H 0.48281 0.1536 0.20831 0.0
H734 H 0.53554 0.19105 0.17624 0.0
H735 H 0.53668 0.21691 0.20767 0.0
H736 H 0.4753 0.16348 0.16225 0.0
H737 H 0.55919 0.1258 0.17855 0.0
H738 H 0.54418 0.14188 0.1991 0.0
H739 H 0.5586 0.15576 0.17686 0.0
C740 C 0.49505 0.18222 0.22594 0.0
C741 C 0.51022 0.20021 0.22609 0.0
C742 C 0.49454 0.16744 0.20807 0.0
C743 C 0.50928 0.17034 0.19017 0.0
C744 C 0.52423 0.18844 0.19008 0.0
H745 H 0.50321 0.10286 0.0625 0.0
H746 H 0.5039 0.13086 0.09195 0.0
C747 C 0.52472 0.20327 0.20793 0.0
C748 C 0.509 0.15434 0.17161 0.0
H749 H 0.54041 0.11433 0.14593 0.0
C750 C 0.48951 0.15274 0.1586 0.0
C751 C 0.52754 0.14028 0.16716 0.0
C752 C 0.54853 0.14079 0.18122 0.0
C753 C 0.48811 0.13742 0.14109 0.0
C754 C 0.50677 0.12359 0.13645 0.0
C755 C 0.52622 0.12514 0.14951 0.0
C756 C 0.50619 0.10679 0.11859 0.0
C757 C 0.46654 0.13576 0.12801 0.0
C758 C 0.50761 0.08408 0.1239 0.0
C759 C 0.50729 0.06803 0.10717 0.0
C760 C 0.50569 0.07443 0.08477 0.0
C761 C 0.5044 0.0973 0.07954 0.0
C762 C 0.50468 0.11334 0.09633 0.0
H763 H 0.45234 0.14422 0.13654 0.0
H764 H 0.46891 0.14382 0.11161 0.0
H765 H 0.46194 0.11803 0.12513 0.0
H766 H 0.50887 0.07877 0.14103 0.0
H767 H 0.50839 0.05061 0.11188 0.0
H768 H 0.8131 0.51714 0.23104 0.0
H769 H 0.84493 0.51794 0.20524 0.0
H770 H 0.81448 0.46523 0.16691 0.0
H771 H 0.78278 0.46405 0.19282 0.0
H772 H 0.86278 0.46111 0.1748 0.0
H773 H 0.8366 0.54361 0.14111 0.0
H774 H 0.83963 0.54196 0.17074 0.0
H775 H 0.81795 0.52617 0.1572 0.0
C776 C 0.81341 0.50545 0.21735 0.0
C777 C 0.79543 0.49064 0.21381 0.0
C778 C 0.83147 0.50606 0.20256 0.0
C779 C 0.83179 0.49187 0.18409 0.0
C780 C 0.81439 0.47639 0.18105 0.0
H781 H 0.90529 0.50189 0.06134 0.0
H782 H 0.87684 0.49904 0.0904 0.0
C783 C 0.7963 0.47582 0.19576 0.0
C784 C 0.84974 0.49377 0.16733 0.0
H785 H 0.87027 0.52823 0.12711 0.0
C786 C 0.86452 0.47578 0.1644 0.0
C787 C 0.85163 0.51284 0.15366 0.0
C788 C 0.83554 0.53222 0.15562 0.0
C789 C 0.88138 0.47644 0.14815 0.0
C790 C 0.8835 0.49568 0.13472 0.0
C791 C 0.86861 0.51359 0.13757 0.0
C792 C 0.90083 0.4974 0.1173 0.0
C793 C 0.89647 0.45642 0.14514 0.0
C794 C 0.92368 0.49772 0.12293 0.0
C795 C 0.94002 0.49935 0.10641 0.0
C796 C 0.93376 0.50079 0.08393 0.0
C797 C 0.91076 0.50075 0.07843 0.0
C798 C 0.89445 0.49913 0.09499 0.0
H799 H 0.88948 0.44129 0.15328 0.0
H800 H 0.89908 0.4528 0.12726 0.0
H801 H 0.91313 0.45998 0.15264 0.0
H802 H 0.92887 0.49679 0.14012 0.0
H803 H 0.95753 0.49941 0.11132 0.0
H804 H 0.47646 0.77984 0.19108 0.0
H805 H 0.47725 0.81124 0.1652 0.0
H806 H 0.53425 0.83898 0.1998 0.0
H807 H 0.53397 0.80726 0.22546 0.0
H808 H 0.47392 0.85755 0.17422 0.0
H809 H 0.55514 0.83467 0.13448 0.0
H810 H 0.53938 0.81543 0.1515 0.0
H811 H 0.55579 0.83712 0.16418 0.0
C812 C 0.48927 0.79255 0.19308 0.0
C813 C 0.50529 0.79101 0.21015 0.0
C814 C 0.4896 0.81051 0.1784 0.0
C815 C 0.50598 0.8272 0.18047 0.0
C816 C 0.52169 0.82605 0.19778 0.0
H817 H 0.50533 0.95449 0.11108 0.0
H818 H 0.50553 0.92533 0.13933 0.0
C819 C 0.52137 0.80806 0.21251 0.0
C820 C 0.5066 0.8457 0.16434 0.0
H821 H 0.53826 0.86844 0.12293 0.0
C822 C 0.48799 0.86002 0.16303 0.0
C823 C 0.5249 0.8486 0.14966 0.0
C824 C 0.54489 0.83307 0.1498 0.0
C825 C 0.4872 0.87729 0.14737 0.0
C826 C 0.50565 0.88038 0.13291 0.0
C827 C 0.52424 0.86604 0.13419 0.0
C828 C 0.5057 0.89804 0.11587 0.0
C829 C 0.46645 0.89173 0.14604 0.0
C830 C 0.50618 0.89226 0.09336 0.0
C831 C 0.50615 0.90885 0.07712 0.0
C832 C 0.50575 0.93154 0.08314 0.0
C833 C 0.50551 0.93722 0.10579 0.0
C834 C 0.50554 0.92059 0.122 0.0
H835 H 0.45195 0.88411 0.15486 0.0
H836 H 0.47002 0.90814 0.15379 0.0
H837 H 0.46161 0.89471 0.1285 0.0
H838 H 0.5064 0.87489 0.08836 0.0
H839 H 0.50641 0.90382 0.05988 0.0
H840 H 0.2266 0.52225 0.20343 0.0
H841 H 0.20104 0.523 0.17156 0.0
H842 H 0.15127 0.48706 0.20935 0.0
H843 H 0.17685 0.48561 0.24104 0.0
H844 H 0.17776 0.48196 0.1509 0.0
H845 H 0.12117 0.54742 0.18519 0.0
H846 H 0.15003 0.54425 0.19407 0.0
H847 H 0.12897 0.52506 0.20359 0.0
C848 C 0.21031 0.5143 0.20488 0.0
C849 C 0.20369 0.50397 0.2248 0.0
C850 C 0.19574 0.51485 0.18673 0.0
C851 C 0.17431 0.50527 0.18832 0.0
C852 C 0.1677 0.49477 0.20802 0.0
H853 H 0.05532 0.49317 0.10949 0.0
H854 H 0.08419 0.49367 0.13819 0.0
C855 C 0.18228 0.49408 0.2261 0.0
C856 C 0.1587 0.50614 0.1694 0.0
H857 H 0.10923 0.52921 0.15247 0.0
C858 C 0.16285 0.49239 0.15105 0.0
C859 C 0.13934 0.51974 0.1699 0.0
C860 C 0.13456 0.53511 0.18914 0.0
C861 C 0.1476 0.49135 0.13334 0.0
C862 C 0.12807 0.50482 0.13391 0.0
C863 C 0.12421 0.51889 0.15213 0.0
C864 C 0.11095 0.50409 0.11618 0.0
C865 C 0.15212 0.47526 0.11461 0.0
C866 C 0.11645 0.50991 0.09431 0.0
C867 C 0.1 0.50951 0.07779 0.0
C868 C 0.07771 0.50358 0.08295 0.0
C869 C 0.07228 0.49792 0.10494 0.0
C870 C 0.08876 0.49816 0.12137 0.0
H871 H 0.1646 0.46231 0.11936 0.0
H872 H 0.13639 0.46683 0.10925 0.0
H873 H 0.15899 0.48459 0.10023 0.0
H874 H 0.13339 0.51502 0.09008 0.0
H875 H 0.1047 0.51419 0.06107 0.0
H876 H 0.48308 0.82751 0.78624 0.0
H877 H 0.48242 0.85354 0.81751 0.0
H878 H 0.53474 0.81576 0.84982 0.0
H879 H 0.53589 0.78992 0.81838 0.0
H880 H 0.4747 0.84396 0.86359 0.0
H881 H 0.55899 0.8808 0.8473 0.0
H882 H 0.54389 0.86474 0.8268 0.0
H883 H 0.55811 0.85085 0.84915 0.0
C884 C 0.49455 0.82485 0.79994 0.0
C885 C 0.50964 0.80679 0.79983 0.0
C886 C 0.49405 0.83962 0.81782 0.0
C887 C 0.5087 0.83664 0.83577 0.0
C888 C 0.52351 0.81843 0.83593 0.0
H889 H 0.5029 0.90478 0.96308 0.0
H890 H 0.50345 0.87667 0.93373 0.0
C891 C 0.524 0.80362 0.81808 0.0
C892 C 0.50852 0.85273 0.85427 0.0
H893 H 0.54022 0.89264 0.87978 0.0
C894 C 0.48901 0.85459 0.86721 0.0
C895 C 0.52718 0.86666 0.85868 0.0
C896 C 0.5482 0.86589 0.84468 0.0
C897 C 0.48769 0.87004 0.88462 0.0
C898 C 0.50647 0.88373 0.88923 0.0
C899 C 0.52594 0.88193 0.87623 0.0
C900 C 0.506 0.90062 0.90701 0.0
C901 C 0.4661 0.87196 0.89762 0.0
C902 C 0.50764 0.92331 0.90163 0.0
C903 C 0.5074 0.93942 0.91829 0.0
C904 C 0.50568 0.93311 0.94071 0.0
C905 C 0.50419 0.91027 0.94602 0.0
C906 C 0.50439 0.89417 0.92929 0.0
H907 H 0.45184 0.8636 0.88909 0.0
H908 H 0.46834 0.86398 0.91407 0.0
H909 H 0.46167 0.88976 0.90039 0.0
H910 H 0.50898 0.92854 0.88448 0.0
H911 H 0.50866 0.95681 0.91354 0.0
H912 H 0.20092 0.47609 0.79758 0.0
H913 H 0.16859 0.47637 0.8227 0.0
H914 H 0.19513 0.53474 0.8554 0.0
H915 H 0.22716 0.53496 0.82997 0.0
H916 H 0.17087 0.47262 0.86885 0.0
H917 H 0.12928 0.55151 0.84347 0.0
H918 H 0.15005 0.53767 0.82649 0.0
H919 H 0.15867 0.55451 0.84965 0.0
C920 C 0.19963 0.48923 0.80984 0.0
C921 C 0.21653 0.50553 0.81182 0.0
C922 C 0.18125 0.48929 0.82424 0.0
C923 C 0.1794 0.50572 0.84069 0.0
C924 C 0.19609 0.52215 0.84255 0.0
H925 H 0.1053 0.50293 0.96331 0.0
H926 H 0.13385 0.50286 0.93424 0.0
C927 C 0.21447 0.52211 0.82818 0.0
C928 C 0.16073 0.50493 0.85678 0.0
H929 H 0.11688 0.53518 0.87741 0.0
C930 C 0.15894 0.4862 0.87063 0.0
C931 C 0.14513 0.52261 0.85886 0.0
C932 C 0.14568 0.54263 0.8437 0.0
C933 C 0.14225 0.48492 0.88697 0.0
C934 C 0.12722 0.503 0.88965 0.0
C935 C 0.12862 0.52147 0.87541 0.0
C936 C 0.10995 0.50308 0.9072 0.0
C937 C 0.14073 0.46421 0.90115 0.0
C938 C 0.08711 0.50372 0.90154 0.0
C939 C 0.07071 0.50387 0.91807 0.0
C940 C 0.0769 0.5035 0.94061 0.0
C941 C 0.09988 0.5031 0.94617 0.0
C942 C 0.11625 0.50295 0.92959 0.0
H943 H 0.14958 0.44985 0.89342 0.0
H944 H 0.1487 0.46754 0.91745 0.0
H945 H 0.12293 0.45948 0.90411 0.0
H946 H 0.08198 0.50395 0.8843 0.0
H947 H 0.05321 0.50424 0.91312 0.0
H948 H 0.5429 0.22658 0.83427 0.0
H949 H 0.54152 0.19502 0.86013 0.0
H950 H 0.48683 0.16624 0.82287 0.0
H951 H 0.48805 0.19778 0.79698 0.0
H952 H 0.48104 0.17266 0.87223 0.0
H953 H 0.55842 0.12696 0.84691 0.0
H954 H 0.56071 0.15676 0.85015 0.0
H955 H 0.54353 0.14554 0.8284 0.0
C956 C 0.53069 0.21344 0.83155 0.0
C957 C 0.51558 0.21456 0.81367 0.0
C958 C 0.53 0.19543 0.84621 0.0
C959 C 0.51417 0.17837 0.84322 0.0
C960 C 0.49924 0.17927 0.82527 0.0
H961 H 0.50402 0.05317 0.91439 0.0
H962 H 0.50529 0.08223 0.88607 0.0
C963 C 0.50003 0.19718 0.81049 0.0
C964 C 0.51244 0.16016 0.85953 0.0
H965 H 0.53986 0.11432 0.87928 0.0
C966 C 0.49381 0.15982 0.87377 0.0
C967 C 0.52911 0.14349 0.86125 0.0
C968 C 0.54905 0.14297 0.84581 0.0
C969 C 0.49159 0.1433 0.89008 0.0
C970 C 0.50856 0.12692 0.8922 0.0
C971 C 0.52698 0.12703 0.87764 0.0
C972 C 0.50752 0.1095 0.90945 0.0
C973 C 0.47105 0.14339 0.90478 0.0
C974 C 0.50854 0.1153 0.93194 0.0
C975 C 0.50779 0.09877 0.94822 0.0
C976 C 0.50615 0.07611 0.94226 0.0
C977 C 0.50526 0.07041 0.91964 0.0
C978 C 0.50601 0.08698 0.90339 0.0
H979 H 0.45725 0.15362 0.89763 0.0
H980 H 0.46476 0.12616 0.90755 0.0
H981 H 0.47556 0.1506 0.92114 0.0
H982 H 0.51011 0.13261 0.93688 0.0
H983 H 0.50867 0.1038 0.96545 0.0
H984 H 0.81497 0.48604 0.79181 0.0
H985 H 0.84656 0.48598 0.81797 0.0
H986 H 0.80676 0.52306 0.86499 0.0
H987 H 0.77537 0.52379 0.83884 0.0
H988 H 0.86638 0.52838 0.84218 0.0
H989 H 0.82987 0.46139 0.89518 0.0
H990 H 0.8227 0.46445 0.86622 0.0
H991 H 0.8114 0.48347 0.88628 0.0
C992 C 0.81306 0.49444 0.8076 0.0
C993 C 0.79263 0.50476 0.81336 0.0
C994 C 0.83104 0.49429 0.8225 0.0
C995 C 0.82875 0.50433 0.84336 0.0
C996 C 0.80863 0.51504 0.849 0.0
H997 H 0.90582 0.51304 0.96359 0.0
H998 H 0.87697 0.51346 0.93478 0.0
C999 C 0.79072 0.51531 0.83411 0.0
C1000 C 0.84724 0.50341 0.85952 0.0
H1001 H 0.86276 0.47908 0.90824 0.0
C1002 C 0.86577 0.51753 0.85657 0.0
C1003 C 0.8461 0.4893 0.87822 0.0
C1004 C 0.82655 0.47365 0.88175 0.0
C1005 C 0.88313 0.51831 0.87229 0.0
C1006 C 0.88201 0.50419 0.89107 0.0
C1007 C 0.86353 0.48989 0.89382 0.0
C1008 C 0.89966 0.50418 0.90829 0.0
C1009 C 0.9021 0.53473 0.869 0.0
C1010 C 0.92188 0.49856 0.90292 0.0
C1011 C 0.93845 0.49843 0.91929 0.0
C1012 C 0.93299 0.50362 0.9414 0.0
C1013 C 0.9106 0.50891 0.94676 0.0
C1014 C 0.89409 0.50919 0.93032 0.0
H1015 H 0.89743 0.54821 0.85722 0.0
H1016 H 0.90715 0.54245 0.88498 0.0
H1017 H 0.91689 0.52583 0.86209 0.0
H1018 H 0.92639 0.49409 0.88609 0.0
H1019 H 0.95546 0.49401 0.91462 0.0
H1020 H 0.68362 0.72632 0.04677 0.0
H1021 H 0.65872 0.69385 0.0444 0.0
H1022 H 0.7008 0.66561 0.99337 0.0
H1023 H 0.72576 0.69818 0.99553 0.0
H1024 H 0.65217 0.6683 0.98407 0.0
H1025 H 0.67275 0.62809 0.06462 0.0
H1026 H 0.66713 0.65757 0.06584 0.0
H1027 H 0.69138 0.64765 0.05109 0.0
C1028 C 0.68758 0.71315 0.03509 0.0
C1029 C 0.70656 0.71471 0.02131 0.0
C1030 C 0.67347 0.6946 0.03388 0.0
C1031 C 0.67811 0.67736 0.01886 0.0
C1032 C 0.6971 0.67876 0.00515 0.0
H1033 H 0.60625 0.5511 0.01381 0.0
H1034 H 0.63543 0.57974 0.01404 0.0
C1035 C 0.71134 0.69725 0.00647 0.0
C1036 C 0.66248 0.65839 0.01684 0.0
H1037 H 0.64049 0.61453 0.04562 0.0
C1038 C 0.64971 0.65639 0.99741 0.0
C1039 C 0.65955 0.64289 0.03425 0.0
C1040 C 0.67353 0.64395 0.05509 0.0
C1041 C 0.63346 0.63959 0.9952 0.0
C1042 C 0.62989 0.62463 0.01297 0.0
C1043 C 0.64319 0.6262 0.03212 0.0
C1044 C 0.61217 0.60741 0.0122 0.0
C1045 C 0.62024 0.63796 0.9739 0.0
C1046 C 0.58946 0.61361 0.01128 0.0
C1047 C 0.57267 0.59732 0.01117 0.0
C1048 C 0.57835 0.57453 0.01208 0.0
C1049 C 0.60121 0.56846 0.01305 0.0
C1050 C 0.61795 0.58477 0.01319 0.0
H1051 H 0.62872 0.6469 0.96009 0.0
H1052 H 0.61774 0.62026 0.96902 0.0
H1053 H 0.60344 0.64562 0.97636 0.0
H1054 H 0.58471 0.63106 0.0109 0.0
H1055 H 0.55529 0.60265 0.01047 0.0
H1056 H 0.28374 0.68703 0.97931 0.0
H1057 H 0.3153 0.66084 0.97965 0.0
H1058 H 0.3416 0.69257 0.03837 0.0
H1059 H 0.30974 0.71844 0.03854 0.0
H1060 H 0.36236 0.6686 0.97871 0.0
H1061 H 0.33446 0.62629 0.05604 0.0
H1062 H 0.31636 0.64464 0.04039 0.0
H1063 H 0.33775 0.65604 0.05812 0.0
C1064 C 0.29622 0.68839 0.99233 0.0
C1065 C 0.29417 0.70463 0.00903 0.0
C1066 C 0.31428 0.67353 0.99241 0.0
C1067 C 0.33052 0.67462 0.00921 0.0
C1068 C 0.329 0.6913 0.02546 0.0
H1069 H 0.45735 0.60272 0.01245 0.0
H1070 H 0.42834 0.63149 0.0116 0.0
C1071 C 0.31093 0.70618 0.0254 0.0
C1072 C 0.34869 0.65788 0.01 0.0
H1073 H 0.36921 0.61473 0.04086 0.0
C1074 C 0.36394 0.65684 0.9923 0.0
C1075 C 0.35039 0.64241 0.02763 0.0
C1076 C 0.33378 0.64218 0.04656 0.0
C1077 C 0.38105 0.64074 0.99182 0.0
C1078 C 0.38302 0.62557 0.00967 0.0
C1079 C 0.36769 0.62654 0.02731 0.0
C1080 C 0.40059 0.60819 0.01016 0.0
C1081 C 0.39656 0.63977 0.97204 0.0
C1082 C 0.3945 0.58559 0.01013 0.0
C1083 C 0.411 0.56905 0.01074 0.0
C1084 C 0.43392 0.57485 0.0115 0.0
C1085 C 0.4399 0.59759 0.01175 0.0
C1086 C 0.42337 0.6141 0.01115 0.0
H1087 H 0.3896 0.64902 0.95762 0.0
H1088 H 0.41294 0.64744 0.97648 0.0
H1089 H 0.39972 0.62222 0.96701 0.0
H1090 H 0.37695 0.58075 0.00948 0.0
H1091 H 0.40572 0.55174 0.01055 0.0
H1092 H 0.3097 0.28731 0.98563 0.0
H1093 H 0.34215 0.31247 0.98565 0.0
H1094 H 0.31672 0.34489 0.04438 0.0
H1095 H 0.28459 0.31941 0.04485 0.0
H1096 H 0.33983 0.35888 0.98231 0.0
H1097 H 0.38282 0.33292 0.05977 0.0
H1098 H 0.36179 0.3159 0.04631 0.0
H1099 H 0.35349 0.33911 0.06335 0.0
C1100 C 0.31128 0.2995 0.9988 0.0
C1101 C 0.29464 0.30141 0.01525 0.0
C1102 C 0.32972 0.31392 0.99871 0.0
C1103 C 0.3319 0.33033 0.01515 0.0
C1104 C 0.31551 0.33207 0.03177 0.0
H1105 H 0.40571 0.45404 0.012 0.0
H1106 H 0.37718 0.42473 0.01209 0.0
C1107 C 0.29707 0.31768 0.03187 0.0
C1108 C 0.35054 0.34656 0.01416 0.0
H1109 H 0.39477 0.36732 0.04365 0.0
C1110 C 0.35197 0.36064 0.99562 0.0
C1111 C 0.36641 0.34861 0.03148 0.0
C1112 C 0.36625 0.3332 0.05127 0.0
C1113 C 0.36858 0.37717 0.9942 0.0
C1114 C 0.38387 0.37982 0.01194 0.0
C1115 C 0.38282 0.36536 0.0302 0.0
C1116 C 0.40111 0.39753 0.01185 0.0
C1117 C 0.36972 0.39157 0.97369 0.0
C1118 C 0.42395 0.39185 0.01216 0.0
C1119 C 0.44033 0.40852 0.01222 0.0
C1120 C 0.43413 0.4312 0.01209 0.0
C1121 C 0.41114 0.43679 0.01198 0.0
C1122 C 0.39478 0.42007 0.01192 0.0
H1123 H 0.36066 0.38384 0.95952 0.0
H1124 H 0.36175 0.40794 0.97722 0.0
H1125 H 0.38744 0.39464 0.96874 0.0
H1126 H 0.4291 0.3745 0.01222 0.0
H1127 H 0.45784 0.40354 0.01236 0.0
H1128 H 0.67843 0.27456 0.99482 0.0
H1129 H 0.65318 0.30668 0.99678 0.0
H1130 H 0.70418 0.34443 0.03103 0.0
H1131 H 0.72948 0.31213 0.02973 0.0
H1132 H 0.6415 0.33079 0.04057 0.0
H1133 H 0.68141 0.38251 0.9745 0.0
H1134 H 0.68422 0.35248 0.9751 0.0
H1135 H 0.69912 0.36922 0.99486 0.0
C1136 C 0.68424 0.28961 1.00295 0.0
C1137 C 0.70591 0.29077 0.01224 0.0
C1138 C 0.66985 0.30794 0.00392 0.0
C1139 C 0.67695 0.3278 0.01396 0.0
C1140 C 0.69858 0.32921 0.02306 0.0
H1141 H 0.60531 0.4544 0.02239 0.0
H1142 H 0.63413 0.42541 0.02422 0.0
C1143 C 0.71299 0.31081 0.02221 0.0
C1144 C 0.66134 0.34681 0.01532 0.0
H1145 H 0.649 0.39699 0.99164 0.0
C1146 C 0.64314 0.34536 0.03 0.0
C1147 C 0.6638 0.36573 1.0016 0.0
C1148 C 0.68311 0.36773 0.98551 0.0
C1149 C 0.62703 0.36237 0.03115 0.0
C1150 C 0.62896 0.38095 0.0168 0.0
C1151 C 0.64754 0.38265 1.00253 0.0
C1152 C 0.61149 0.39844 0.01582 0.0
C1153 C 0.60819 0.36034 0.04781 0.0
C1154 C 0.58932 0.39286 0.01014 0.0
C1155 C 0.57277 0.40933 0.00916 0.0
C1156 C 0.57819 0.43174 0.01357 0.0
C1157 C 0.60055 0.43732 0.01885 0.0
C1158 C 0.61705 0.42079 0.01995 0.0
H1159 H 0.61284 0.34909 0.06172 0.0
H1160 H 0.60354 0.37689 0.05471 0.0
H1161 H 0.59317 0.35316 0.03953 0.0
H1162 H 0.58483 0.37576 0.00632 0.0
H1163 H 0.5558 0.40446 0.00479 0.0
H1164 H 0.03482 0.71592 0.70876 0.0
H1165 H 0.03453 0.69056 0.67694 0.0
H1166 H 0.97716 0.65618 0.70434 0.0
H1167 H 0.97693 0.68183 0.73589 0.0
H1168 H 0.03901 0.64391 0.67827 0.0
H1169 H 0.95811 0.66967 0.64009 0.0
H1170 H 0.97258 0.68648 0.66045 0.0
H1171 H 0.95617 0.66281 0.66902 0.0
C1172 C 0.02194 0.70317 0.70783 0.0
C1173 C 0.00584 0.70089 0.72475 0.0
C1174 C 0.02188 0.68865 0.68974 0.0
C1175 C 0.00565 0.67174 0.68822 0.0
C1176 C 0.98958 0.66939 0.70507 0.0
H1177 H 0.00752 0.55058 0.61172 0.0
H1178 H 0.00803 0.57906 0.64059 0.0
C1179 C 0.98963 0.68388 0.72317 0.0
C1180 C 0.00609 0.65597 0.66945 0.0
H1181 H 0.97479 0.63631 0.62626 0.0
C1182 C 0.02505 0.64231 0.6668 0.0
C1183 C 0.98793 0.65418 0.65443 0.0
C1184 C 0.96761 0.6692 0.65595 0.0
C1185 C 0.02611 0.62644 0.64977 0.0
C1186 C 0.00758 0.62406 0.63529 0.0
C1187 C 0.98886 0.6381 0.63758 0.0
C1188 C 0.00723 0.6069 0.61776 0.0
C1189 C 0.04707 0.61245 0.64733 0.0
C1190 C 0.00609 0.61321 0.59542 0.0
C1191 C 0.0057 0.59699 0.57882 0.0
C1192 C 0.00629 0.57416 0.58432 0.0
C1193 C 0.00716 0.56797 0.60682 0.0
C1194 C 0.00757 0.58421 0.62338 0.0
H1195 H 0.06167 0.62008 0.65599 0.0
H1196 H 0.04405 0.59574 0.6547 0.0
H1197 H 0.05145 0.61011 0.62959 0.0
H1198 H 0.00569 0.6307 0.59084 0.0
H1199 H 0.00496 0.60241 0.56171 0.0
H1200 H 0.31014 0.97642 0.7268 0.0
H1201 H 0.34233 0.97648 0.70149 0.0
H1202 H 0.31554 0.03445 0.6683 0.0
H1203 H 0.28365 0.0349 0.69391 0.0
H1204 H 0.33993 0.97231 0.65534 0.0
H1205 H 0.3814 0.05151 0.68004 0.0
H1206 H 0.36071 0.03773 0.69717 0.0
H1207 H 0.35199 0.05434 0.67388 0.0
C1208 C 0.31134 0.98943 0.71437 0.0
C1209 C 0.29442 0.00569 0.71234 0.0
C1210 C 0.32963 0.98935 0.69988 0.0
C1211 C 0.33138 0.00561 0.68325 0.0
C1212 C 0.31465 0.02199 0.68129 0.0
H1213 H 0.40574 1.00201 0.56075 0.0
H1214 H 0.37711 1.00209 0.58974 0.0
C1215 C 0.29635 0.02208 0.69576 0.0
C1216 C 0.35003 0.00474 0.66713 0.0
H1217 H 0.39391 0.03485 0.64632 0.0
C1218 C 0.35185 0.98589 0.65345 0.0
C1219 C 0.36562 0.02241 0.66492 0.0
C1220 C 0.36503 0.04256 0.67991 0.0
C1221 C 0.36858 0.98449 0.63715 0.0
C1222 C 0.38361 0.00255 0.63435 0.0
C1223 C 0.38216 0.02114 0.64841 0.0
C1224 C 0.40093 0.00249 0.61685 0.0
C1225 C 0.37013 0.96367 0.62315 0.0
C1226 C 0.42375 0.00317 0.62256 0.0
C1227 C 0.4402 0.00322 0.60607 0.0
C1228 C 0.43408 0.00273 0.58352 0.0
C1229 C 0.41111 1.00228 0.5779 0.0
C1230 C 0.39469 1.00221 0.59444 0.0
H1231 H 0.36124 0.94937 0.63097 0.0
H1232 H 0.36224 0.96686 0.60679 0.0
H1233 H 0.38795 0.9589 0.6203 0.0
H1234 H 0.42884 0.00351 0.63981 0.0
H1235 H 0.45769 0.00366 0.61106 0.0
H1236 H 0.03384 0.30742 0.72528 0.0
H1237 H 0.0338 0.33918 0.69972 0.0
H1238 H 0.97605 0.31179 0.66607 0.0
H1239 H 0.97558 0.28032 0.6919 0.0
H1240 H 0.03824 0.33696 0.65337 0.0
H1241 H 0.95787 0.3769 0.67828 0.0
H1242 H 0.97206 0.35652 0.69535 0.0
H1243 H 0.95551 0.34768 0.672 0.0
C1244 C 0.02092 0.30837 0.71266 0.0
C1245 C 0.00467 0.29144 0.7106 0.0
C1246 C 0.02101 0.32642 0.69802 0.0
C1247 C 0.00477 0.32789 0.68123 0.0
C1248 C 0.98849 0.31109 0.67917 0.0
H1249 H 0.00776 0.40335 0.55958 0.0
H1250 H 0.00801 0.37448 0.58812 0.0
C1251 C 0.98839 0.29304 0.69378 0.0
C1252 C 0.00545 0.3465 0.66522 0.0
H1253 H 0.97467 0.38993 0.64485 0.0
C1254 C 0.02443 0.34865 0.65157 0.0
C1255 C 0.98747 0.36178 0.66314 0.0
C1256 C 0.96715 0.3608 0.6781 0.0
C1257 C 0.02569 0.36546 0.63546 0.0
C1258 C 0.00734 0.38022 0.63282 0.0
C1259 C 0.9886 0.3784 0.64683 0.0
C1260 C 0.00727 0.39769 0.61559 0.0
C1261 C 0.04667 0.3674 0.62152 0.0
C1262 C 0.00628 0.42023 0.62166 0.0
C1263 C 0.00603 0.43681 0.60542 0.0
C1264 C 0.00661 0.4311 0.58279 0.0
C1265 C 0.00739 0.40841 0.57681 0.0
C1266 C 0.00766 0.39185 0.59309 0.0
H1267 H 0.06114 0.3586 0.62922 0.0
H1268 H 0.04354 0.35977 0.60504 0.0
H1269 H 0.05131 0.38517 0.61892 0.0
H1270 H 0.00586 0.425 0.63898 0.0
H1271 H 0.00537 0.45408 0.61068 0.0
H1272 H 0.67866 0.98148 0.7397 0.0
H1273 H 0.65353 0.98211 0.7076 0.0
H1274 H 0.70239 0.02025 0.67081 0.0
H1275 H 0.72746 0.02032 0.70306 0.0
H1276 H 0.64042 0.02739 0.68428 0.0
H1277 H 0.68138 0.96215 0.63213 0.0
H1278 H 0.68358 0.96193 0.66202 0.0
H1279 H 0.69864 0.98241 0.64627 0.0
C1280 C 0.68404 0.9901 0.72483 0.0
C1281 C 0.705 1.00096 0.72396 0.0
C1282 C 0.66974 0.9903 0.70651 0.0
C1283 C 0.67625 1.00114 0.68697 0.0
C1284 C 0.69727 0.01164 0.68579 0.0
H1285 H 0.60544 0.01178 0.56095 0.0
H1286 H 0.63407 0.0126 0.59004 0.0
C1287 C 0.71156 0.01157 0.70416 0.0
C1288 C 0.66052 0.00231 0.66818 0.0
H1289 H 0.64871 0.97914 0.61789 0.0
C1290 C 0.64221 0.01693 0.6697 0.0
C1291 C 0.66319 0.98878 0.64923 0.0
C1292 C 0.68269 0.97282 0.64714 0.0
C1293 C 0.62623 0.01827 0.65268 0.0
C1294 C 0.62842 0.00414 0.634 0.0
C1295 C 0.64706 0.98986 0.6323 0.0
C1296 C 0.61116 0.00348 0.6164 0.0
C1297 C 0.60732 0.03494 0.65478 0.0
C1298 C 0.58892 0.99769 0.62158 0.0
C1299 C 0.57251 0.99732 0.60508 0.0
C1300 C 0.57811 0.00244 0.583 0.0
C1301 C 0.60055 0.00774 0.57778 0.0
C1302 C 0.61693 0.00825 0.59436 0.0
H1303 H 0.61177 0.04874 0.66628 0.0
H1304 H 0.60287 0.0422 0.63841 0.0
H1305 H 0.59223 0.02642 0.66154 0.0
H1306 H 0.58427 0.99339 0.63841 0.0
H1307 H 0.55548 0.99287 0.60966 0.0
H1308 H 0.98724 0.28542 0.32067 0.0
H1309 H 0.98702 0.3114 0.35205 0.0
H1310 H 0.02496 0.35901 0.31365 0.0
H1311 H 0.0259 0.33298 0.28244 0.0
H1312 H 0.02933 0.33383 0.37234 0.0
H1313 H 0.96452 0.39079 0.3371 0.0
H1314 H 0.96688 0.36187 0.32889 0.0
H1315 H 0.98685 0.38195 0.31894 0.0
C1316 C 0.99575 0.30132 0.31898 0.0
C1317 C 0.00651 0.3072 0.29904 0.0
C1318 C 0.9955 0.31613 0.33685 0.0
C1319 C 0.00581 0.33706 0.33495 0.0
C1320 C 0.01671 0.34295 0.31522 0.0
H1321 H 0.01771 0.4554 0.41441 0.0
H1322 H 0.01772 0.42709 0.38533 0.0
C1323 C 0.01711 0.32813 0.29741 0.0
C1324 C 0.00526 0.35288 0.35361 0.0
H1325 H 0.98238 0.40228 0.37014 0.0
C1326 C 0.01899 0.34875 0.37203 0.0
C1327 C 0.99181 0.37226 0.35288 0.0
C1328 C 0.97653 0.37705 0.33348 0.0
C1329 C 0.02007 0.36394 0.38968 0.0
C1330 C 0.0066 0.38341 0.38897 0.0
C1331 C 0.99267 0.38734 0.3706 0.0
C1332 C 0.00702 0.40022 0.40687 0.0
C1333 C 0.03611 0.35939 0.40854 0.0
C1334 C 1.00084 0.39447 0.42857 0.0
C1335 C 1.00095 0.41058 0.4453 0.0
C1336 C 0.00693 0.43278 0.4405 0.0
C1337 C 0.01291 0.43849 0.41866 0.0
C1338 C 0.01297 0.42234 0.40202 0.0
H1339 H 0.04928 0.34713 0.40378 0.0
H1340 H 0.04445 0.37499 0.41414 0.0
H1341 H 0.0266 0.35235 0.42274 0.0
H1342 H 0.99568 0.3776 0.43253 0.0
H1343 H 0.996 0.40568 0.46189 0.0
H1344 H 0.73501 0.98214 0.3392 0.0
H1345 H 0.70315 0.98345 0.36479 0.0
H1346 H 0.66456 0.02031 0.31662 0.0
H1347 H 0.69659 0.01966 0.29104 0.0
H1348 H 0.68013 0.02755 0.37827 0.0
H1349 H 0.62546 0.96358 0.3382 0.0
H1350 H 0.65565 0.96362 0.33473 0.0
H1351 H 0.63889 0.98425 0.32097 0.0
C1352 C 0.71981 0.99066 0.33408 0.0
C1353 C 0.71835 1.00092 0.31315 0.0
C1354 C 0.70162 0.99125 0.34865 0.0
C1355 C 0.68162 1.00188 0.34244 0.0
C1356 C 0.67988 0.01186 0.32151 0.0
H1357 H 0.55527 0.01363 0.4142 0.0
H1358 H 0.58451 0.01452 0.38575 0.0
C1359 C 0.69813 0.01139 0.30694 0.0
C1360 C 0.66289 0.00317 0.35833 0.0
H1361 H 0.61168 0.98078 0.37057 0.0
C1362 C 0.6651 0.01741 0.37662 0.0
C1363 C 0.64336 0.99003 0.35585 0.0
C1364 C 0.64055 0.97438 0.33646 0.0
C1365 C 0.64819 0.01879 0.39272 0.0
C1366 C 0.62892 0.0051 0.39068 0.0
C1367 C 0.62654 0.99117 0.3721 0.0
C1368 C 0.6113 0.00458 0.40792 0.0
C1369 C 0.65102 0.03507 0.41162 0.0
C1370 C 0.61668 0.99836 0.4297 0.0
C1371 C 0.60008 0.99794 0.44603 0.0
C1372 C 0.57772 0.00345 0.44078 0.0
C1373 C 0.57231 0.00926 0.41882 0.0
C1374 C 0.58898 0.00981 0.40253 0.0
H1375 H 0.66293 0.04869 0.40728 0.0
H1376 H 0.63468 0.04262 0.41642 0.0
H1377 H 0.65794 0.02613 0.42622 0.0
H1378 H 0.63372 0.99369 0.43404 0.0
H1379 H 0.60479 0.99311 0.4627 0.0
H1380 H 0.98113 0.73019 0.33559 0.0
H1381 H 0.98056 0.699 0.36183 0.0
H1382 H 0.03272 0.66603 0.32447 0.0
H1383 H 0.03377 0.69738 0.29843 0.0
H1384 H 0.97301 0.65238 0.35329 0.0
H1385 H 0.0575 0.67007 0.3888 0.0
H1386 H 0.04212 0.69027 0.37255 0.0
H1387 H 0.05642 0.66761 0.35911 0.0
C1388 C 0.99255 0.71634 0.33305 0.0
C1389 C 0.00761 0.71626 0.31508 0.0
C1390 C 0.9921 0.69852 0.34793 0.0
C1391 C 0.00677 0.68044 0.34515 0.0
C1392 C 0.02147 0.68003 0.32698 0.0
H1393 H 0.00285 0.55321 0.41417 0.0
H1394 H 0.00266 0.58261 0.38613 0.0
C1395 C 0.02191 0.69782 0.31205 0.0
C1396 C 0.00686 0.66213 0.36149 0.0
H1397 H 0.03915 0.63735 0.4012 0.0
C1398 C 0.98745 0.64902 0.36376 0.0
C1399 C 0.02567 0.65809 0.37523 0.0
C1400 C 0.04658 0.67233 0.37402 0.0
C1401 C 0.98643 0.63174 0.3794 0.0
C1402 C 0.00539 0.62744 0.39286 0.0
C1403 C 0.02473 0.64066 0.39069 0.0
C1404 C 0.00533 0.60965 0.40975 0.0
C1405 C 0.96496 0.61851 0.38175 0.0
C1406 C 0.0073 0.6152 0.43223 0.0
C1407 C 0.00751 0.59848 0.44832 0.0
C1408 C 0.0059 0.57588 0.44217 0.0
C1409 C 0.00408 0.57041 0.41954 0.0
C1410 C 0.00384 0.58718 0.40347 0.0
H1411 H 0.95051 0.62695 0.37361 0.0
H1412 H 0.96718 0.60192 0.37387 0.0
H1413 H 0.96083 0.61579 0.3995 0.0
H1414 H 0.00858 0.6325 0.43732 0.0
H1415 H 0.009 0.60335 0.46555 0.0
H1416 H 0.28331 0.97039 0.33035 0.0
H1417 H 0.31477 0.97121 0.35648 0.0
H1418 H 0.3415 0.02943 0.32368 0.0
H1419 H 0.30974 0.02914 0.29784 0.0
H1420 H 0.36175 0.96973 0.34869 0.0
H1421 H 0.33465 0.0487 0.38912 0.0
H1422 H 0.31637 0.03271 0.37126 0.0
H1423 H 0.33791 0.05012 0.35953 0.0
C1424 C 0.29586 0.98341 0.32876 0.0
C1425 C 0.29398 0.99983 0.31221 0.0
C1426 C 0.31385 0.98376 0.34358 0.0
C1427 C 0.33019 1.00056 0.34214 0.0
C1428 C 0.32882 0.01654 0.3252 0.0
H1429 H 0.45709 0.00393 0.41335 0.0
H1430 H 0.42804 0.00316 0.38482 0.0
C1431 C 0.31081 0.01621 0.31036 0.0
C1432 C 0.34839 1.00156 0.35872 0.0
H1433 H 0.36925 0.03331 0.40092 0.0
C1434 C 0.36348 0.98362 0.36009 0.0
C1435 C 0.35028 0.01961 0.3737 0.0
C1436 C 0.33385 0.03882 0.37355 0.0
C1437 C 0.38059 0.98332 0.37607 0.0
C1438 C 0.38273 1.00157 0.39077 0.0
C1439 C 0.36758 0.01944 0.38946 0.0
C1440 C 0.40031 1.0022 0.408 0.0
C1441 C 0.39591 0.96328 0.37742 0.0
C1442 C 0.39423 0.00244 0.43045 0.0
C1443 C 0.41075 0.003 0.44686 0.0
C1444 C 0.43367 0.00344 0.44106 0.0
C1445 C 0.43964 0.00348 0.41847 0.0
C1446 C 0.42308 0.00293 0.4021 0.0
H1447 H 0.38886 0.94866 0.36847 0.0
H1448 H 0.41236 0.96749 0.36978 0.0
H1449 H 0.39898 0.95849 0.39495 0.0
H1450 H 0.37668 1.002 0.43527 0.0
H1451 H 0.4055 0.00299 0.46405 0.0
H1452 H 0.99278 0.19643 0.2902 0.0
H1453 H 0.9867 0.16783 0.31891 0.0
H1454 H 0.05267 0.18114 0.34552 0.0
H1455 H 0.05887 0.20929 0.31686 0.0
H1456 H 0.04463 0.13663 0.34236 0.0
H1457 H 0.97313 0.17857 0.38445 0.0
H1458 H 0.96904 0.17343 0.35538 0.0
H1459 H 0.99052 0.19257 0.36423 0.0
C1460 C 0.00599 0.19313 0.30211 0.0
C1461 C 0.02633 0.2051 0.30127 0.0
C1462 C 0.00244 0.17693 0.31865 0.0
C1463 C 0.0191 0.17252 0.33467 0.0
C1464 C 0.03952 0.18422 0.33347 0.0
H1465 H 0.0109 0.10404 0.46241 0.0
H1466 H 0.01335 0.13151 0.43232 0.0
C1467 C 0.04305 0.20031 0.31704 0.0
C1468 C 0.01572 0.15561 0.35261 0.0
H1469 H 0.98349 0.14289 0.39796 0.0
C1470 C 0.0312 0.13799 0.35446 0.0
C1471 C 0.99843 0.15752 0.36868 0.0
C1472 C 0.98192 0.17663 0.36831 0.0
C1473 C 0.02986 0.12226 0.37174 0.0
C1474 C 0.01229 0.12386 0.38753 0.0
C1475 C 0.99686 0.14155 0.38581 0.0
C1476 C 0.00979 0.10732 0.40592 0.0
C1477 C 0.04768 0.10437 0.37323 0.0
C1478 C 0.0065 0.08462 0.40119 0.0
C1479 C 0.00517 0.06888 0.4183 0.0
C1480 C 0.00691 0.07542 0.44071 0.0
C1481 C 0.00956 0.0983 0.44544 0.0
C1482 C 0.01094 0.11407 0.42822 0.0
H1483 H 0.06304 0.10897 0.36379 0.0
H1484 H 0.05247 0.10115 0.39074 0.0
H1485 H 0.04099 0.08863 0.36611 0.0
H1486 H 0.00505 0.079 0.38419 0.0
H1487 H 0.00286 0.05152 0.41385 0.0
H1488 H 0.79252 0.039 0.31889 0.0
H1489 H 0.82491 0.03927 0.34382 0.0
H1490 H 0.84707 0.97644 0.31663 0.0
H1491 H 0.81431 0.97602 0.29172 0.0
H1492 H 0.8433 0.9757 0.36234 0.0
H1493 H 0.89193 0.05008 0.33648 0.0
H1494 H 0.86272 0.05608 0.341 0.0
H1495 H 0.87081 0.03743 0.31902 0.0
C1496 C 0.8047 0.0256 0.31774 0.0
C1497 C 0.80101 0.00756 0.30326 0.0
C1498 C 0.82324 0.02577 0.332 0.0
C1499 C 0.83856 0.00795 0.33206 0.0
C1500 C 0.83553 0.99042 0.31682 0.0
H1501 H 0.95955 0.0048 0.4132 0.0
H1502 H 0.93235 0.00486 0.38307 0.0
C1503 C 0.81697 0.9903 0.30242 0.0
C1504 C 0.85627 0.00669 0.34951 0.0
H1505 H 0.89992 0.03561 0.37263 0.0
C1506 C 0.85583 0.98869 0.36446 0.0
C1507 C 0.87268 0.02357 0.35227 0.0
C1508 C 0.87475 0.04277 0.33621 0.0
C1509 C 0.87097 0.9874 0.38235 0.0
C1510 C 0.88679 0.00475 0.38562 0.0
C1511 C 0.8876 0.02245 0.37034 0.0
C1512 C 0.90311 0.00455 0.40438 0.0
C1513 C 0.87004 0.96732 0.39743 0.0
C1514 C 0.8958 0.00455 0.42656 0.0
C1515 C 0.91141 0.00448 0.44403 0.0
C1516 C 0.93468 0.00452 0.43967 0.0
C1517 C 0.94184 0.00472 0.41738 0.0
C1518 C 0.92627 0.00479 0.40001 0.0
H1519 H 0.86118 0.95307 0.3895 0.0
H1520 H 0.88721 0.96185 0.40221 0.0
H1521 H 0.86076 0.97178 0.41276 0.0
H1522 H 0.87801 0.00481 0.43038 0.0
H1523 H 0.90521 0.00444 0.46092 0.0
H1524 H 0.04363 0.79136 0.32031 0.0
H1525 H 0.04244 0.8235 0.34529 0.0
H1526 H 0.9781 0.8425 0.3182 0.0
H1527 H 0.97921 0.80996 0.29324 0.0
H1528 H 0.03855 0.86915 0.34068 0.0
H1529 H 0.96424 0.83382 0.38416 0.0
H1530 H 0.98038 0.81802 0.36428 0.0
H1531 H 0.96047 0.83854 0.35498 0.0
C1532 C 0.02953 0.80276 0.31927 0.0
C1533 C 0.01158 0.79828 0.30476 0.0
C1534 C 0.02879 0.82107 0.33364 0.0
C1535 C 0.00998 0.83521 0.33401 0.0
C1536 C 0.99261 0.83159 0.31853 0.0
H1537 H 0.00418 0.95755 0.41307 0.0
H1538 H 0.00487 0.93028 0.38314 0.0
C1539 C 0.99338 0.81322 0.30404 0.0
C1540 C 0.00825 0.85279 0.35148 0.0
H1541 H 0.97791 0.86839 0.39717 0.0
C1542 C 0.0252 0.86908 0.35293 0.0
C1543 C 0.99111 0.85243 0.36782 0.0
C1544 C 0.9731 0.83468 0.36796 0.0
C1545 C 0.02544 0.88499 0.37011 0.0
C1546 C 0.00806 0.8849 0.38619 0.0
C1547 C 0.99115 0.86858 0.3848 0.0
C1548 C 0.00722 0.90149 0.40465 0.0
C1549 C 0.0447 0.90137 0.37124 0.0
C1550 C 0.00763 0.89447 0.4269 0.0
C1551 C 0.0071 0.9101 0.44425 0.0
C1552 C 0.00601 0.93314 0.43972 0.0
C1553 C 0.00522 0.94002 0.41737 0.0
C1554 C 0.00574 0.92441 0.40011 0.0
H1555 H 0.05947 0.89551 0.36157 0.0
H1556 H 0.03923 0.91758 0.36418 0.0
H1557 H 0.05003 0.90423 0.38866 0.0
H1558 H 0.00864 0.87685 0.43086 0.0
H1559 H 0.00767 0.90409 0.46117 0.0
H1560 H 0.19816 0.02793 0.29236 0.0
H1561 H 0.16594 0.02856 0.31794 0.0
H1562 H 0.18701 0.96543 0.34531 0.0
H1563 H 0.21887 0.96462 0.31967 0.0
H1564 H 0.14044 0.96895 0.34156 0.0
H1565 H 0.17731 0.04288 0.38372 0.0
H1566 H 0.17191 0.04637 0.35461 0.0
H1567 H 0.19272 0.02662 0.36364 0.0
C1568 C 0.19545 0.01388 0.30335 0.0
C1569 C 0.21101 0.99625 0.30409 0.0
C1570 C 0.17725 0.0144 0.31817 0.0
C1571 C 0.17438 0.9973 0.33392 0.0
C1572 C 0.18895 0.97889 0.33346 0.0
H1573 H 0.10656 1.00052 0.46212 0.0
H1574 H 0.134 0.99882 0.43178 0.0
C1575 C 0.20711 0.97841 0.31876 0.0
C1576 C 0.15723 0.99903 0.35184 0.0
H1577 H 0.14272 0.02953 0.39761 0.0
C1578 C 0.14085 0.98226 0.35374 0.0
C1579 C 0.1581 0.01613 0.36805 0.0
C1580 C 0.17605 0.03394 0.36763 0.0
C1581 C 0.12519 0.98224 0.37123 0.0
C1582 C 0.12573 0.99962 0.38714 0.0
C1583 C 0.14224 0.01629 0.38536 0.0
C1584 C 0.10918 1.0009 0.40562 0.0
C1585 C 0.10854 0.96329 0.37281 0.0
C1586 C 0.08617 0.00304 0.40104 0.0
C1587 C 0.07049 0.00401 0.41826 0.0
C1588 C 0.0774 0.003 0.44061 0.0
C1589 C 0.10056 1.00128 0.44519 0.0
C1590 C 0.11628 1.00031 0.42785 0.0
H1591 H 0.11413 0.9485 0.36316 0.0
H1592 H 0.10591 0.95818 0.39032 0.0
H1593 H 0.09213 0.96882 0.36599 0.0
H1594 H 0.08031 0.00405 0.38406 0.0
H1595 H 0.05289 0.00553 0.41393 0.0
H1596 H 0.99196 0.81064 0.73472 0.0
H1597 H 0.98578 0.83913 0.70593 0.0
H1598 H 0.05227 0.82686 0.68009 0.0
H1599 H 0.05855 0.79881 0.70882 0.0
H1600 H 0.04349 0.87126 0.68315 0.0
H1601 H 0.9732 0.82818 0.64021 0.0
H1602 H 0.96868 0.83323 0.66924 0.0
H1603 H 0.99057 0.81445 0.66062 0.0
C1604 C 0.00526 0.81415 0.72296 0.0
C1605 C 0.02577 0.8025 0.72404 0.0
C1606 C 0.00165 0.83029 0.70637 0.0
C1607 C 0.01844 0.83496 0.69054 0.0
C1608 C 0.03902 0.82358 0.69198 0.0
H1609 H 0.01085 0.90336 0.56271 0.0
H1610 H 0.01327 0.87591 0.59281 0.0
C1611 C 0.0426 0.80754 0.70846 0.0
C1612 C 0.01501 0.85181 0.67255 0.0
H1613 H 0.98316 0.86401 0.62682 0.0
C1614 C 0.03023 0.86969 0.67089 0.0
C1615 C 0.99796 0.84963 0.65628 0.0
C1616 C 0.98176 0.83025 0.65645 0.0
C1617 C 0.02886 0.8854 0.65359 0.0
C1618 C 0.01151 0.88352 0.63759 0.0
C1619 C 0.99635 0.86558 0.63913 0.0
C1620 C 0.00898 0.90002 0.61918 0.0
C1621 C 0.0464 0.90357 0.65231 0.0
C1622 C 0.00527 0.92267 0.62387 0.0
C1623 C 0.00394 0.93839 0.60675 0.0
C1624 C 0.00613 0.93191 0.58437 0.0
C1625 C 0.00917 0.90907 0.57966 0.0
C1626 C 0.01053 0.89331 0.59688 0.0
H1627 H 0.06171 0.89922 0.66194 0.0
H1628 H 0.05136 0.90686 0.63487 0.0
H1629 H 0.03937 0.9192 0.65934 0.0
H1630 H 0.00349 0.92825 0.64086 0.0
H1631 H 0.00131 0.95572 0.61117 0.0
H1632 H 0.21931 0.04038 0.70433 0.0
H1633 H 0.1868 0.03978 0.67956 0.0
H1634 H 0.16556 0.97718 0.708 0.0
H1635 H 0.19843 0.97763 0.73277 0.0
H1636 H 0.16889 0.97595 0.66203 0.0
H1637 H 0.11966 0.04992 0.68794 0.0
H1638 H 0.14877 0.05616 0.68309 0.0
H1639 H 0.14108 0.03758 0.70527 0.0
C1640 C 0.20735 0.0268 0.70573 0.0
C1641 C 0.21132 0.0091 0.72055 0.0
C1642 C 0.18874 0.02649 0.69158 0.0
C1643 C 0.17361 0.00851 0.69197 0.0
C1644 C 0.17695 0.99128 0.70748 0.0
H1645 H 0.05182 0.00331 0.61192 0.0
H1646 H 0.07919 0.00358 0.64192 0.0
C1647 C 0.19559 0.99164 0.72177 0.0
C1648 C 0.15568 0.00685 0.6748 0.0
H1649 H 0.11135 0.03502 0.65203 0.0
C1650 C 0.15616 0.98875 0.65998 0.0
C1651 C 0.139 0.02348 0.67214 0.0
C1652 C 0.1369 0.04277 0.68808 0.0
C1653 C 0.14083 0.98714 0.64229 0.0
C1654 C 0.12475 0.00426 0.63909 0.0
C1655 C 0.12387 0.02204 0.65427 0.0
C1656 C 0.1083 0.0038 0.62045 0.0
C1657 C 0.14184 0.96701 0.6273 0.0
C1658 C 0.1155 0.00401 0.59824 0.0
C1659 C 0.09981 0.00383 0.58086 0.0
C1660 C 0.07657 0.00355 0.58534 0.0
C1661 C 0.06951 0.00348 0.60767 0.0
C1662 C 0.08517 0.00367 0.62495 0.0
H1663 H 0.15099 0.95292 0.63519 0.0
H1664 H 0.12469 0.96128 0.62275 0.0
H1665 H 0.15087 0.97152 0.61183 0.0
H1666 H 0.13327 0.00455 0.59434 0.0
H1667 H 0.10592 0.00401 0.56395 0.0
H1668 H 0.03232 0.19635 0.73237 0.0
H1669 H 0.03279 0.16381 0.70746 0.0
H1670 H 0.9696 0.18481 0.67926 0.0
H1671 H 0.96896 0.21698 0.70422 0.0
H1672 H 0.9722 0.1389 0.68392 0.0
H1673 H 0.04804 0.17254 0.64167 0.0
H1674 H 0.05115 0.16774 0.67091 0.0
H1675 H 0.0319 0.18871 0.66125 0.0
C1676 C 0.01822 0.19358 0.72133 0.0
C1677 C 1.00062 0.20919 0.72022 0.0
C1678 C 0.01865 0.17518 0.70687 0.0
C1679 C 0.00148 0.17213 0.69108 0.0
C1680 C 0.98312 0.18685 0.69113 0.0
H1681 H 0.00405 0.10328 0.56391 0.0
H1682 H 0.00313 0.13054 0.5942 0.0
C1683 C 0.98273 0.20519 0.70547 0.0
C1684 C 0.00303 0.15457 0.67359 0.0
H1685 H 0.03373 0.13833 0.62836 0.0
C1686 C 0.98574 0.13868 0.67186 0.0
C1687 C 0.02044 0.15456 0.65752 0.0
C1688 C 0.03886 0.17189 0.6577 0.0
C1689 C 0.98542 0.12278 0.65467 0.0
C1690 C 0.00305 0.1225 0.63886 0.0
C1691 C 0.0203 0.13844 0.64052 0.0
C1692 C 0.00382 0.10589 0.62042 0.0
C1693 C 0.96584 0.10681 0.65324 0.0
C1694 C 0.00486 0.08295 0.625 0.0
C1695 C 0.00536 0.06733 0.60775 0.0
C1696 C 0.00497 0.07421 0.58539 0.0
C1697 C 0.0043 0.09727 0.58084 0.0
C1698 C 0.0038 0.11292 0.59817 0.0
H1699 H 0.95107 0.11294 0.66274 0.0
H1700 H 0.96069 0.10413 0.63574 0.0
H1701 H 0.97089 0.09046 0.66031 0.0
H1702 H 0.00542 0.07709 0.64198 0.0
H1703 H 0.00607 0.04979 0.61207 0.0
H1704 H 0.813 0.9506 0.72098 0.0
H1705 H 0.84017 0.95668 0.69117 0.0
H1706 H 0.83286 0.02791 0.69901 0.0
H1707 H 0.80622 0.02179 0.7295 0.0
H1708 H 0.83424 0.97555 0.65225 0.0
H1709 H 0.9 0.02304 0.69724 0.0
H1710 H 0.87734 0.00898 0.7114 0.0
H1711 H 0.87271 0.03573 0.69861 0.0
C1712 C 0.81751 0.96756 0.7166 0.0
C1713 C 0.80769 0.98569 0.72773 0.0
C1714 C 0.83295 0.97104 0.69946 0.0
C1715 C 0.83885 0.99276 0.69288 0.0
C1716 C 0.82909 0.01098 0.70406 0.0
H1717 H 0.90582 0.01406 0.56379 0.0
H1718 H 0.87798 0.01322 0.59377 0.0
C1719 C 0.81379 0.00748 0.72147 0.0
C1720 C 0.8545 0.99603 0.67376 0.0
H1721 H 0.90432 0.01994 0.65833 0.0
C1722 C 0.84957 0.98527 0.65361 0.0
C1723 C 0.87462 0.00856 0.67548 0.0
C1724 C 0.88164 0.01957 0.69689 0.0
C1725 C 0.86423 0.98641 0.63533 0.0
C1726 C 0.88417 0.99925 0.63692 0.0
C1727 C 0.88898 0.01024 0.65698 0.0
C1728 C 0.90097 1.0004 0.61854 0.0
C1729 C 0.85859 0.97309 0.61483 0.0
C1730 C 0.92337 0.99414 0.62251 0.0
C1731 C 0.93936 0.99494 0.60553 0.0
C1732 C 0.93338 1.00194 0.58403 0.0
C1733 C 0.91096 0.00832 0.58005 0.0
C1734 C 0.89498 0.00775 0.59718 0.0
H1735 H 0.84627 0.95962 0.61842 0.0
H1736 H 0.851 0.98433 0.60227 0.0
H1737 H 0.8739 0.96542 0.60754 0.0
H1738 H 0.92848 0.9884 0.63878 0.0
H1739 H 0.95641 0.9898 0.60927 0.0
H1740 H 0.30741 0.05515 0.21566 0.0
H1741 H 0.33571 0.04908 0.1869 0.0
H1742 H 0.30904 0.98323 0.17493 0.0
H1743 H 0.28065 0.98919 0.20403 0.0
H1744 H 0.3564 0.98434 0.17881 0.0
H1745 H 0.32662 0.04869 0.11974 0.0
H1746 H 0.33088 0.05929 0.14726 0.0
H1747 H 0.30949 0.03863 0.14235 0.0
C1748 C 0.3074 0.03946 0.20672 0.0
C1749 C 0.2917 0.02274 0.21196 0.0
C1750 C 0.32355 0.03603 0.19024 0.0
C1751 C 0.32434 0.01582 0.17851 0.0
C1752 C 0.30867 0.99901 0.18368 0.0
H1753 H 0.40527 0.99866 0.05949 0.0
H1754 H 0.37506 0.99997 0.0867 0.0
C1755 C 0.29239 0.00247 0.20022 0.0
C1756 C 0.342 0.01223 0.16136 0.0
H1757 H 0.36349 0.0343 0.11359 0.0
C1758 C 0.35786 0.99513 0.16444 0.0
C1759 C 0.3438 0.02618 0.14249 0.0
C1760 C 0.32667 0.04409 0.13759 0.0
C1761 C 0.37579 0.992 0.1495 0.0
C1762 C 0.37813 0.00657 0.13115 0.0
C1763 C 0.3619 0.02328 0.12778 0.0
C1764 C 0.39697 0.00464 0.11494 0.0
C1765 C 0.39192 0.97296 0.15337 0.0
C1766 C 0.4195 0.00685 0.12167 0.0
C1767 C 0.437 0.00606 0.10607 0.0
C1768 C 0.4323 0.00325 0.08335 0.0
C1769 C 0.40968 1.00093 0.07676 0.0
C1770 C 0.39228 1.00166 0.09234 0.0
H1771 H 0.3845 0.95997 0.1643 0.0
H1772 H 0.39696 0.96507 0.13747 0.0
H1773 H 0.4073 0.97944 0.16158 0.0
H1774 H 0.42356 0.00964 0.13895 0.0
H1775 H 0.45414 0.00804 0.11179 0.0
H1776 H 0.96974 0.31125 0.22487 0.0
H1777 H 0.97008 0.33566 0.1924 0.0
H1778 H 0.03405 0.30821 0.17262 0.0
H1779 H 0.03382 0.28382 0.20547 0.0
H1780 H 0.03451 0.35423 0.17464 0.0
H1781 H 0.96039 0.32654 0.12648 0.0
H1782 H 0.9538 0.33201 0.15499 0.0
H1783 H 0.97279 0.30968 0.14808 0.0
C1784 C 0.98353 0.30991 0.21321 0.0
C1785 C 0.00165 0.29547 0.21759 0.0
C1786 C 0.98372 0.32389 0.19462 0.0
C1787 C 0.00201 0.32374 0.17989 0.0
C1788 C 0.01969 0.30858 0.18367 0.0
H1789 H 0.00557 0.40328 0.05851 0.0
H1790 H 0.00565 0.37327 0.08577 0.0
C1791 C 0.01945 0.29446 0.20229 0.0
C1792 C 0.00349 0.34084 0.1619 0.0
H1793 H 0.97484 0.36286 0.11785 0.0
C1794 C 0.02157 0.35596 0.16209 0.0
C1795 C 0.9867 0.34313 0.1454 0.0
C1796 C 0.96744 0.32684 0.14354 0.0
C1797 C 0.02301 0.37357 0.14667 0.0
C1798 C 0.00571 0.37643 0.13078 0.0
C1799 C 0.98796 0.36093 0.13019 0.0
C1800 C 0.00591 0.39508 0.11432 0.0
C1801 C 0.04319 0.38883 0.14741 0.0
C1802 C 0.00581 0.41753 0.12118 0.0
C1803 C 0.0058 0.43492 0.10554 0.0
C1804 C 0.00575 0.43025 0.08265 0.0
C1805 C 0.00566 0.4077 0.07592 0.0
C1806 C 0.00567 0.3904 0.09153 0.0
H1807 H 0.05752 0.38101 0.15632 0.0
H1808 H 0.04876 0.39341 0.13044 0.0
H1809 H 0.03862 0.40438 0.15633 0.0
H1810 H 0.00552 0.42164 0.13866 0.0
H1811 H 0.00573 0.45199 0.11144 0.0
H1812 H 0.70378 0.94871 0.21482 0.0
H1813 H 0.67554 0.95507 0.18608 0.0
H1814 H 0.70192 0.02121 0.17511 0.0
H1815 H 0.73026 0.01495 0.2042 0.0
H1816 H 0.65475 0.02002 0.17876 0.0
H1817 H 0.68442 0.95628 0.11903 0.0
H1818 H 0.68008 0.94531 0.14638 0.0
H1819 H 0.70154 0.96598 0.14179 0.0
C1820 C 0.70375 0.96453 0.2061 0.0
C1821 C 0.71935 0.98124 0.21163 0.0
C1822 C 0.68763 0.96812 0.18962 0.0
C1823 C 0.68676 0.98849 0.17817 0.0
C1824 C 0.70235 0.0053 0.18363 0.0
H1825 H 0.60574 0.00711 0.05934 0.0
H1826 H 0.63598 0.00519 0.08648 0.0
C1827 C 0.7186 1.00168 0.20017 0.0
C1828 C 0.6691 0.99227 0.16104 0.0
H1829 H 0.64752 0.97072 0.11308 0.0
C1830 C 0.65326 0.00937 0.16429 0.0
C1831 C 0.66724 0.97852 0.14204 0.0
C1832 C 0.68435 0.96063 0.13693 0.0
C1833 C 0.63533 0.01269 0.14939 0.0
C1834 C 0.63294 0.9983 0.1309 0.0
C1835 C 0.64913 0.98159 0.12737 0.0
C1836 C 0.61409 1.00045 0.11472 0.0
C1837 C 0.61926 0.03174 0.15345 0.0
C1838 C 0.59154 0.99837 0.12146 0.0
C1839 C 0.57402 0.99951 0.10589 0.0
C1840 C 0.57869 0.00256 0.0832 0.0
C1841 C 0.60133 0.00469 0.0766 0.0
C1842 C 0.61876 0.0036 0.09213 0.0
H1843 H 0.62675 0.04462 0.16445 0.0
H1844 H 0.6142 0.03977 0.13763 0.0
H1845 H 0.60389 0.02523 0.16166 0.0
H1846 H 0.58748 0.99543 0.13871 0.0
H1847 H 0.55686 0.99765 0.11163 0.0
H1848 H 0.05804 0.69942 0.21568 0.0
H1849 H 0.05152 0.67162 0.18679 0.0
H1850 H 0.9849 0.69795 0.17618 0.0
H1851 H 0.99134 0.72591 0.20548 0.0
H1852 H 0.98621 0.65081 0.17913 0.0
H1853 H 0.05031 0.68136 0.11984 0.0
H1854 H 0.06139 0.67683 0.14714 0.0
H1855 H 0.04041 0.69802 0.14279 0.0
C1856 C 0.04207 0.69948 0.20703 0.0
C1857 C 0.02531 0.715 0.21271 0.0
C1858 C 0.03838 0.68359 0.19045 0.0
C1859 C 0.01785 0.68283 0.17902 0.0
C1860 C 1.00095 0.69829 0.18467 0.0
H1861 H 1.00093 0.60278 0.05937 0.0
H1862 H 0.00218 0.63271 0.08664 0.0
C1863 C 0.00467 0.71433 0.20132 0.0
C1864 C 0.01411 0.66546 0.16165 0.0
H1865 H 0.03624 0.64457 0.11361 0.0
C1866 C 0.997 0.64955 0.16469 0.0
C1867 C 0.02804 0.66388 0.14267 0.0
C1868 C 0.04592 0.68105 0.13775 0.0
C1869 C 0.99391 0.63179 0.14965 0.0
C1870 C 0.00852 0.62966 0.1312 0.0
C1871 C 0.02519 0.64596 0.12786 0.0
C1872 C 0.0067 0.61095 0.1149 0.0
C1873 C 0.97486 0.61564 0.15353 0.0
C1874 C 0.00887 0.58854 0.12156 0.0
C1875 C 0.00811 0.57118 0.1059 0.0
C1876 C 0.00536 0.57586 0.08317 0.0
C1877 C 0.00313 0.59836 0.07664 0.0
C1878 C 0.00383 0.61561 0.09227 0.0
H1879 H 0.9617 0.62293 0.16442 0.0
H1880 H 0.96696 0.61054 0.13763 0.0
H1881 H 0.98149 0.60046 0.16179 0.0
H1882 H 0.0116 0.58446 0.13884 0.0
H1883 H 0.01003 0.55415 0.11161 0.0
H1884 H 0.28048 0.01618 0.82125 0.0
H1885 H 0.30903 0.02233 0.85012 0.0
H1886 H 0.33719 0.95737 0.8367 0.0
H1887 H 0.30865 0.95108 0.80823 0.0
H1888 H 0.33311 0.96525 0.88111 0.0
H1889 H 0.37547 0.03662 0.83968 0.0
H1890 H 0.34587 0.04028 0.84441 0.0
H1891 H 0.35538 0.01904 0.82559 0.0
C1892 C 0.29268 0.00319 0.82459 0.0
C1893 C 0.29236 0.98313 0.8125 0.0
C1894 C 0.30912 0.00679 0.84095 0.0
C1895 C 0.32553 0.99045 0.84537 0.0
C1896 C 0.32481 0.97027 0.83358 0.0
H1897 H 0.45424 0.9994 0.91367 0.0
H1898 H 0.42375 0.99684 0.88644 0.0
C1899 C 0.30846 0.96668 0.81732 0.0
C1900 C 0.34345 0.99401 0.8623 0.0
H1901 H 0.38895 0.02649 0.87521 0.0
C1902 C 0.34526 0.9787 0.87985 0.0
C1903 C 0.35956 0.01134 0.86048 0.0
C1904 C 0.35919 0.02767 0.84144 0.0
C1905 C 0.3626 0.98025 0.89562 0.0
C1906 C 0.37844 0.99784 0.89408 0.0
C1907 C 0.37673 0.01311 0.87648 0.0
C1908 C 0.397 1.00044 0.91049 0.0
C1909 C 0.36415 0.96264 0.91346 0.0
C1910 C 0.39216 0.00379 0.93301 0.0
C1911 C 0.4095 0.00519 0.94862 0.0
C1912 C 0.4322 0.00344 0.94209 0.0
C1913 C 0.43703 1.00075 0.91938 0.0
C1914 C 0.4196 0.9993 0.90376 0.0
H1915 H 0.35462 0.94734 0.90895 0.0
H1916 H 0.38192 0.95796 0.91668 0.0
H1917 H 0.3569 0.96931 0.92906 0.0
H1918 H 0.3749 0.00522 0.93856 0.0
H1919 H 0.405 0.00752 0.96586 0.0
H1920 H 0.99177 0.28012 0.82009 0.0
H1921 H 0.98568 0.30863 0.84886 0.0
H1922 H 0.05163 0.33566 0.83597 0.0
H1923 H 0.05784 0.30718 0.80765 0.0
H1924 H 0.0435 0.33194 0.88019 0.0
H1925 H 0.9721 0.37472 0.83874 0.0
H1926 H 0.96804 0.34539 0.84354 0.0
H1927 H 0.98955 0.35453 0.82468 0.0
C1928 C 0.00498 0.29207 0.82353 0.0
C1929 C 0.02531 0.29142 0.81162 0.0
C1930 C 0.00141 0.3085 0.83983 0.0
C1931 C 0.01806 0.32459 0.8444 0.0
C1932 C 0.03848 0.32355 0.83277 0.0
H1933 H 0.00996 0.45267 0.91287 0.0
H1934 H 0.01233 0.42241 0.88559 0.0
C1935 C 0.04202 0.30723 0.81658 0.0
C1936 C 0.01464 0.34246 0.86136 0.0
H1937 H 0.98245 0.38803 0.87426 0.0
C1938 C 0.03009 0.34414 0.87891 0.0
C1939 C 0.99737 0.35866 0.85956 0.0
C1940 C 0.98091 0.35846 0.84053 0.0
C1941 C 0.02874 0.36141 0.89466 0.0
C1942 C 0.01121 0.37735 0.89314 0.0
C1943 C 0.9958 0.37576 0.87554 0.0
C1944 C 0.00877 0.39581 0.90961 0.0
C1945 C 0.04653 0.36276 0.91247 0.0
C1946 C 0.00551 0.39104 0.93216 0.0
C1947 C 0.00423 0.40825 0.9478 0.0
C1948 C 0.00599 0.4308 0.9413 0.0
C1949 C 0.00861 0.43558 0.91857 0.0
C1950 C 0.00994 0.41827 0.90291 0.0
H1951 H 0.06187 0.35323 0.90788 0.0
H1952 H 0.05138 0.38036 0.91576 0.0
H1953 H 0.0398 0.35553 0.92805 0.0
H1954 H 0.00404 0.37391 0.93773 0.0
H1955 H 0.00195 0.40377 0.96505 0.0
H1956 H 0.72751 0.98047 0.82087 0.0
H1957 H 0.70261 0.98072 0.85346 0.0
H1958 H 0.66888 0.03903 0.82796 0.0
H1959 H 0.69377 0.03897 0.79567 0.0
H1960 H 0.67526 0.04016 0.87429 0.0
H1961 H 0.6365 0.96053 0.84627 0.0
H1962 H 0.66645 0.95984 0.85027 0.0
H1963 H 0.65471 0.97693 0.82872 0.0
C1964 C 0.71519 0.99368 0.82259 0.0
C1965 C 0.7125 0.00964 0.80571 0.0
C1966 C 0.7008 0.99366 0.84104 0.0
C1967 C 0.68355 0.00962 0.84291 0.0
C1968 C 0.68192 0.02646 0.82683 0.0
H1969 H 0.55622 0.00444 0.91341 0.0
H1970 H 0.58647 0.00579 0.88587 0.0
C1971 C 0.69618 0.02643 0.8084 0.0
C1972 C 0.66625 0.00817 0.86072 0.0
H1973 H 0.62255 0.97614 0.87942 0.0
C1974 C 0.66383 0.0261 0.87553 0.0
C1975 C 0.65103 0.99002 0.86202 0.0
C1976 C 0.65207 0.97079 0.8459 0.0
C1977 C 0.64672 0.02631 0.89166 0.0
C1978 C 0.63174 0.00799 0.89319 0.0
C1979 C 0.6341 0.99011 0.87832 0.0
C1980 C 0.61338 0.00715 0.90998 0.0
C1981 C 0.64446 0.04643 0.90654 0.0
C1982 C 0.61842 0.00716 0.93269 0.0
C1983 C 0.6012 0.00639 0.94848 0.0
C1984 C 0.57844 0.00548 0.94196 0.0
C1985 C 0.57346 0.00521 0.91913 0.0
C1986 C 0.59076 0.00595 0.90333 0.0
H1987 H 0.6534 0.06119 0.89968 0.0
H1988 H 0.62651 0.05086 0.90906 0.0
H1989 H 0.65189 0.04255 0.92297 0.0
H1990 H 0.63573 0.00762 0.93825 0.0
H1991 H 0.60583 0.00652 0.96585 0.0
H1992 H 0.97009 0.69467 0.79879 0.0
H1993 H 0.97039 0.67018 0.8312 0.0
H1994 H 0.03373 0.69846 0.85178 0.0
H1995 H 0.03353 0.72299 0.81902 0.0
H1996 H 0.03456 0.65216 0.84976 0.0
H1997 H 0.95983 0.67975 0.8971 0.0
H1998 H 0.95367 0.67428 0.86849 0.0
H1999 H 0.97251 0.69665 0.87568 0.0
C2000 C 0.98375 0.69614 0.81059 0.0
C2001 C 0.00169 0.7109 0.80648 0.0
C2002 C 0.98391 0.68213 0.82915 0.0
C2003 C 0.00199 0.68251 0.84411 0.0
C2004 C 0.01952 0.69791 0.84055 0.0
H2005 H 0.00466 0.60336 0.9658 0.0
H2006 H 0.00493 0.63332 0.93846 0.0
C2007 C 0.0193 0.7121 0.82198 0.0
C2008 C 0.00338 0.6655 0.86218 0.0
H2009 H 0.97438 0.64358 0.90606 0.0
C2010 C 0.02151 0.65044 0.86221 0.0
C2011 C 0.98645 0.66324 0.87854 0.0
C2012 C 0.96713 0.67947 0.88014 0.0
C2013 C 0.02283 0.63288 0.87771 0.0
C2014 C 0.00539 0.63004 0.89346 0.0
C2015 C 0.98761 0.6455 0.89383 0.0
C2016 C 0.00546 0.61143 0.90996 0.0
C2017 C 0.04304 0.61767 0.87719 0.0
C2018 C 0.00543 0.58897 0.90316 0.0
C2019 C 0.0053 0.57162 0.91884 0.0
C2020 C 0.00506 0.57634 0.94172 0.0
C2021 C 0.00489 0.59891 0.9484 0.0
C2022 C 0.00502 0.61617 0.93274 0.0
H2023 H 0.05745 0.62548 0.86838 0.0
H2024 H 0.04847 0.61316 0.89423 0.0
H2025 H 0.03858 0.60207 0.86829 0.0
H2026 H 0.00529 0.58482 0.88569 0.0
H2027 H 0.00532 0.55453 0.91298 0.0
H2028 H 0.19765 0.28205 0.98826 0.0
H2029 H 0.16523 0.30751 0.98789 0.0
H2030 H 0.18799 0.337 0.04913 0.0
H2031 H 0.22006 0.31145 0.04974 0.0
H2032 H 0.14118 0.3323 0.04696 0.0
H2033 H 0.17584 0.37358 0.97178 0.0
H2034 H 0.17079 0.34412 0.96918 0.0
H2035 H 0.19191 0.354 0.98809 0.0
C2036 C 0.19532 0.29352 1.00195 0.0
C2037 C 0.21141 0.2949 0.01895 0.0
C2038 C 0.17698 0.30824 1.00158 0.0
C2039 C 0.17451 0.3245 0.01821 0.0
C2040 C 0.18966 0.32473 0.03603 0.0
H2041 H 0.10594 0.45269 0.01449 0.0
H2042 H 0.13348 0.42228 0.01609 0.0
C2043 C 0.20795 0.31012 0.03638 0.0
C2044 C 0.15716 0.34227 0.01651 0.0
H2045 H 0.1415 0.38755 0.98564 0.0
C2046 C 0.14115 0.34431 0.03349 0.0
C2047 C 0.15748 0.35822 0.99917 0.0
C2048 C 0.17502 0.3576 0.98109 0.0
C2049 C 0.12532 0.36174 0.03351 0.0
C2050 C 0.12534 0.3774 0.01592 0.0
C2051 C 0.14145 0.37546 0.99903 0.0
C2052 C 0.1087 0.39586 0.01472 0.0
C2053 C 0.10907 0.36355 0.05264 0.0
C2054 C 0.08569 0.3911 0.01303 0.0
C2055 C 0.06994 0.40837 0.01212 0.0
C2056 C 0.07682 0.43089 0.01275 0.0
C2057 C 0.09997 0.43561 0.01403 0.0
C2058 C 0.11576 0.41825 0.01495 0.0
H2059 H 0.11497 0.35403 0.06734 0.0
H2060 H 0.10654 0.38124 0.05753 0.0
H2061 H 0.09255 0.3566 0.04756 0.0
H2062 H 0.07988 0.37398 0.01234 0.0
H2063 H 0.05232 0.40394 0.01095 0.0
H2064 H 0.19773 0.72479 0.0368 0.0
H2065 H 0.16514 0.69954 0.03716 0.0
H2066 H 0.18703 0.67079 0.97526 0.0
H2067 H 0.21927 0.69614 0.97467 0.0
H2068 H 0.14036 0.67551 0.97795 0.0
H2069 H 0.17554 0.63329 0.05236 0.0
H2070 H 0.17055 0.66272 0.05536 0.0
H2071 H 0.1915 0.65306 0.03617 0.0
C2072 C 0.19516 0.71355 0.02296 0.0
C2073 C 0.21107 0.71231 0.00577 0.0
C2074 C 0.17673 0.69893 0.02332 0.0
C2075 C 0.17397 0.68291 0.0065 0.0
C2076 C 0.18892 0.68287 0.98851 0.0
H2077 H 0.10559 0.55465 0.00944 0.0
H2078 H 0.133 0.58518 0.00799 0.0
C2079 C 0.2073 0.69737 0.98817 0.0
C2080 C 0.15656 0.66517 0.00816 0.0
H2081 H 0.14108 0.61953 0.0386 0.0
C2082 C 0.14041 0.66335 0.99128 0.0
C2083 C 0.15698 0.64901 0.0253 0.0
C2084 C 0.17466 0.64939 0.04325 0.0
C2085 C 0.12458 0.64591 0.99116 0.0
C2086 C 0.12471 0.63003 0.00855 0.0
C2087 C 0.14094 0.63178 0.02536 0.0
C2088 C 0.10812 0.61149 0.00961 0.0
C2089 C 0.10821 0.64433 0.97211 0.0
C2090 C 0.08509 0.61613 0.01137 0.0
C2091 C 0.06941 0.59878 0.01218 0.0
C2092 C 0.07638 0.5763 0.01139 0.0
C2093 C 0.09955 0.57169 0.01001 0.0
C2094 C 0.11526 0.58914 0.0092 0.0
H2095 H 0.11404 0.654 0.95748 0.0
H2096 H 0.10562 0.62669 0.96704 0.0
H2097 H 0.09173 0.65124 0.97736 0.0
H2098 H 0.07921 0.63322 0.01221 0.0
H2099 H 0.05177 0.60312 0.01342 0.0
H2100 H 0.30583 0.2055 0.95861 0.0
H2101 H 0.3346 0.17705 0.96494 0.0
H2102 H 0.30816 0.16527 0.03049 0.0
H2103 H 0.27931 0.194 0.02427 0.0
H2104 H 0.35539 0.17034 0.02926 0.0
H2105 H 0.32668 0.10922 0.96635 0.0
H2106 H 0.3304 0.13687 0.95547 0.0
H2107 H 0.30911 0.13177 0.97604 0.0
C2108 C 0.30597 0.19664 0.97428 0.0
C2109 C 0.29024 0.20183 0.99086 0.0
C2110 C 0.32239 0.18036 0.97785 0.0
C2111 C 0.32337 0.16881 0.99807 0.0
C2112 C 0.30762 0.1739 0.01471 0.0
H2113 H 0.40533 0.05061 0.01823 0.0
H2114 H 0.37495 0.07775 0.01625 0.0
C2115 C 0.2911 0.19023 0.01111 0.0
C2116 C 0.34131 0.15197 1.0019 0.0
H2117 H 0.36347 0.10375 0.98104 0.0
C2118 C 0.35708 0.15568 0.01885 0.0
C2119 C 0.3434 0.13275 0.98842 0.0
C2120 C 0.32638 0.12724 0.97068 0.0
C2121 C 0.37518 0.14096 0.02232 0.0
C2122 C 0.37775 0.12221 0.00826 0.0
C2123 C 0.36166 0.11825 0.99167 0.0
C2124 C 0.39668 0.10615 0.01066 0.0
C2125 C 0.39123 0.14546 0.04117 0.0
C2126 C 0.41914 0.11304 0.0082 0.0
C2127 C 0.43673 0.09748 0.00937 0.0
C2128 C 0.43217 0.07468 0.01282 0.0
C2129 C 0.40961 0.06795 0.01545 0.0
C2130 C 0.39213 0.08348 0.01434 0.0
H2131 H 0.38373 0.15679 0.05374 0.0
H2132 H 0.39629 0.12969 0.04946 0.0
H2133 H 0.4066 0.15359 0.03455 0.0
H2134 H 0.42306 0.13038 0.00489 0.0
H2135 H 0.45383 0.10328 0.00713 0.0
H2136 H 0.80292 0.30451 0.95622 0.0
H2137 H 0.8313 0.33335 0.96263 0.0
H2138 H 0.84357 0.30688 0.02802 0.0
H2139 H 0.81493 0.27798 0.02172 0.0
H2140 H 0.83787 0.35379 0.02696 0.0
H2141 H 0.89978 0.32609 0.96398 0.0
H2142 H 0.87186 0.32951 0.95317 0.0
H2143 H 0.87726 0.30837 0.97366 0.0
C2144 C 0.81187 0.30467 0.97187 0.0
C2145 C 0.80685 0.28892 0.98839 0.0
C2146 C 0.82811 0.32112 0.97549 0.0
C2147 C 0.83977 0.32212 0.99569 0.0
C2148 C 0.83485 0.30634 0.01226 0.0
H2149 H 0.95826 0.40391 0.01686 0.0
H2150 H 0.93101 0.3737 0.0145 0.0
C2151 C 0.81857 0.28979 0.00861 0.0
C2152 C 0.85656 0.34007 0.99958 0.0
H2153 H 0.90506 0.36249 0.97896 0.0
C2154 C 0.85266 0.35562 0.01659 0.0
C2155 C 0.87594 0.34235 0.98616 0.0
C2156 C 0.88163 0.32558 0.96835 0.0
C2157 C 0.86736 0.37368 0.02018 0.0
C2158 C 0.88629 0.3764 0.00619 0.0
C2159 C 0.89042 0.36055 0.98953 0.0
C2160 C 0.9024 0.39523 0.0088 0.0
C2161 C 0.86267 0.38949 0.03908 0.0
C2162 C 0.89542 0.41752 0.0064 0.0
C2163 C 0.91104 0.43501 0.00779 0.0
C2164 C 0.93399 0.43052 0.0114 0.0
C2165 C 0.9408 0.40813 0.01396 0.0
C2166 C 0.92521 0.39075 0.01263 0.0
H2167 H 0.85118 0.38196 0.05154 0.0
H2168 H 0.87849 0.3945 0.0475 0.0
H2169 H 0.85451 0.40477 0.03249 0.0
H2170 H 0.87797 0.42137 1.00299 0.0
H2171 H 0.90517 0.45198 0.0056 0.0
H2172 H 0.69339 0.78913 0.05178 0.0
H2173 H 0.66877 0.8217 0.04928 0.0
H2174 H 0.70398 0.8435 0.99062 0.0
H2175 H 0.72869 0.81057 0.993 0.0
H2176 H 0.67643 0.86814 0.04789 0.0
H2177 H 0.63781 0.8359 0.97018 0.0
H2178 H 0.65547 0.81886 0.98767 0.0
H2179 H 0.66784 0.83947 0.96983 0.0
C2180 C 0.69613 0.8011 0.03858 0.0
C2181 C 0.71282 0.79734 0.0225 0.0
C2182 C 0.68206 0.81967 0.03716 0.0
C2183 C 0.68427 0.83479 0.01955 0.0
C2184 C 0.70178 0.83181 0.00415 0.0
H2185 H 0.60579 0.95751 0.01091 0.0
H2186 H 0.63604 0.93018 0.01208 0.0
C2187 C 0.71602 0.81319 0.00563 0.0
C2188 C 0.66731 0.85278 0.01692 0.0
H2189 H 0.62332 0.86955 0.98444 0.0
C2190 C 0.66495 0.8686 0.03392 0.0
C2191 C 0.65207 0.85304 0.99889 0.0
C2192 C 0.65319 0.83584 0.98064 0.0
C2193 C 0.64772 0.88464 0.03343 0.0
C2194 C 0.6326 0.88502 0.01531 0.0
C2195 C 0.63499 0.86926 0.99826 0.0
C2196 C 0.61403 0.90152 0.01391 0.0
C2197 C 0.64543 0.90062 0.05264 0.0
C2198 C 0.59149 0.89446 0.01393 0.0
C2199 C 0.57398 0.9101 0.01318 0.0
C2200 C 0.5787 0.9331 0.01227 0.0
C2201 C 0.60137 0.94 0.01179 0.0
C2202 C 0.61879 0.92438 0.01255 0.0
H2203 H 0.65477 0.89474 0.06749 0.0
H2204 H 0.65237 0.91711 0.0478 0.0
H2205 H 0.62749 0.90296 0.0572 0.0
H2206 H 0.58746 0.87685 0.01485 0.0
H2207 H 0.55679 0.90413 0.0135 0.0
H2208 H 0.81426 0.728 1.00333 0.0
H2209 H 0.84162 0.69804 0.99647 0.0
H2210 H 0.83326 0.6749 0.0637 0.0
H2211 H 0.80634 0.70491 0.0707 0.0
H2212 H 0.87725 0.67658 0.05166 0.0
H2213 H 0.82737 0.63197 0.98766 0.0
H2214 H 0.83282 0.66081 0.98153 0.0
H2215 H 0.81552 0.65361 0.0049 0.0
C2216 C 0.81839 0.71659 0.01664 0.0
C2217 C 0.80819 0.71874 0.03757 0.0
C2218 C 0.83385 0.69936 0.01266 0.0
C2219 C 0.8392 0.68397 0.02947 0.0
C2220 C 0.82934 0.68648 0.05045 0.0
H2221 H 0.90523 0.55425 0.02163 0.0
H2222 H 0.87805 0.58487 0.02494 0.0
C2223 C 0.81399 0.70365 0.05444 0.0
C2224 C 0.85529 0.66536 0.02557 0.0
H2225 H 0.86406 0.61821 0.99478 0.0
C2226 C 0.87437 0.66385 0.03919 0.0
C2227 C 0.85134 0.64853 0.00954 0.0
C2228 C 0.83056 0.6486 0.99518 0.0
C2229 C 0.88967 0.64612 0.03716 0.0
C2230 C 0.88606 0.62962 0.02075 0.0
C2231 C 0.86689 0.63097 0.00723 0.0
C2232 C 0.90212 0.6109 0.01743 0.0
C2233 C 0.90932 0.64497 0.05297 0.0
C2234 C 0.92449 0.61532 0.01156 0.0
C2235 C 0.94003 0.59794 0.00974 0.0
C2236 C 0.93353 0.57565 0.01357 0.0
C2237 C 0.91086 0.57117 0.01863 0.0
C2238 C 0.8953 0.58866 0.02053 0.0
H2239 H 0.90638 0.6552 0.06806 0.0
H2240 H 0.9127 0.62749 0.05812 0.0
H2241 H 0.92457 0.65152 0.0446 0.0
H2242 H 0.93001 0.63229 0.00859 0.0
H2243 H 0.95722 0.6021 0.00548 0.0
H2244 H 0.27958 0.81333 1.00155 0.0
H2245 H 0.3087 0.84182 0.99555 0.0
H2246 H 0.33663 0.82748 0.05999 0.0
H2247 H 0.30751 0.79932 0.06614 0.0
H2248 H 0.33321 0.87248 0.05202 0.0
H2249 H 0.37499 0.82953 0.98155 0.0
H2250 H 0.34547 0.8347 0.97782 0.0
H2251 H 0.35466 0.81582 0.99912 0.0
C2252 C 0.29185 0.81638 0.01446 0.0
C2253 C 0.29132 0.80411 0.03433 0.0
C2254 C 0.30859 0.83252 0.01095 0.0
C2255 C 0.32509 0.83653 0.02718 0.0
C2256 C 0.32417 0.82463 0.04719 0.0
H2257 H 0.45441 0.90416 0.01798 0.0
H2258 H 0.42385 0.87684 0.02088 0.0
C2259 C 0.30751 0.80857 0.0507 0.0
C2260 C 0.34332 0.85318 0.02362 0.0
H2261 H 0.38891 0.86529 0.99118 0.0
C2262 C 0.34535 0.87094 0.03868 0.0
C2263 C 0.35938 0.85095 0.00642 0.0
C2264 C 0.35873 0.83163 0.99039 0.0
C2265 C 0.36286 0.88659 0.03695 0.0
C2266 C 0.37862 0.88467 0.01946 0.0
C2267 C 0.37672 0.86683 0.00448 0.0
C2268 C 0.3972 0.90103 0.01658 0.0
C2269 C 0.36463 0.90475 0.05421 0.0
C2270 C 0.39239 0.92361 0.0127 0.0
C2271 C 0.40975 0.93925 0.01109 0.0
C2272 C 0.43241 0.93268 0.01316 0.0
C2273 C 0.43721 0.90988 0.01636 0.0
C2274 C 0.41976 0.89422 0.01801 0.0
H2275 H 0.35505 0.90053 0.06946 0.0
H2276 H 0.38244 0.90784 0.05881 0.0
H2277 H 0.35759 0.92046 0.04737 0.0
H2278 H 0.37515 0.92919 0.01106 0.0
H2279 H 0.4053 0.95656 0.00836 0.0
H2280 H 0.69895 0.21685 0.04857 0.0
H2281 H 0.67412 0.18436 0.04877 0.0
H2282 H 0.70279 0.16228 0.98686 0.0
H2283 H 0.72755 0.19513 0.98645 0.0
H2284 H 0.65635 0.16586 0.98564 0.0
H2285 H 0.68244 0.11786 0.05976 0.0
H2286 H 0.67761 0.14684 0.06558 0.0
H2287 H 0.70009 0.13891 0.04724 0.0
C2288 C 0.70039 0.20472 0.03532 0.0
C2289 C 0.71519 0.20846 0.01751 0.0
C2290 C 0.68624 0.18612 0.03548 0.0
C2291 C 0.68665 0.17079 0.0179 0.0
C2292 C 0.70226 0.17385 1.00064 0.0
H2293 H 0.60566 0.05017 0.01342 0.0
H2294 H 0.636 0.07738 0.01374 0.0
C2295 C 0.71654 0.19248 1.00052 0.0
C2296 C 0.66922 0.15306 0.0165 0.0
H2297 H 0.646 0.10952 0.04503 0.0
C2298 C 0.65422 0.15339 0.99851 0.0
C2299 C 0.66648 0.13675 0.03325 0.0
C2300 C 0.68264 0.13488 0.05244 0.0
C2301 C 0.63625 0.13822 0.99709 0.0
C2302 C 0.63297 0.1225 0.0143 0.0
C2303 C 0.64832 0.12179 0.032 0.0
C2304 C 0.61413 0.1062 0.01396 0.0
C2305 C 0.62106 0.139 0.97707 0.0
C2306 C 0.5916 0.11333 0.01416 0.0
C2307 C 0.57401 0.09773 0.01394 0.0
C2308 C 0.57864 0.07469 0.01363 0.0
C2309 C 0.60129 0.06771 0.01361 0.0
C2310 C 0.61877 0.08327 0.01383 0.0
H2311 H 0.62903 0.148 0.96301 0.0
H2312 H 0.61653 0.12191 0.97151 0.0
H2313 H 0.60532 0.14791 0.98146 0.0
H2314 H 0.58762 0.13096 0.01468 0.0
H2315 H 0.55684 0.10375 0.01408 0.0
H2316 H 0.49308 0.69629 0.79018 0.0
H2317 H 0.48657 0.66757 0.81867 0.0
H2318 H 0.55293 0.67934 0.84506 0.0
H2319 H 0.55956 0.70758 0.81661 0.0
H2320 H 0.54399 0.63506 0.84149 0.0
H2321 H 0.47359 0.67807 0.88436 0.0
H2322 H 0.46925 0.67322 0.85527 0.0
H2323 H 0.49113 0.69189 0.86415 0.0
C2324 C 0.50628 0.69262 0.80199 0.0
C2325 C 0.52686 0.70417 0.80116 0.0
C2326 C 0.50248 0.67635 0.8184 0.0
C2327 C 0.51914 0.67148 0.8343 0.0
C2328 C 0.53978 0.68278 0.8331 0.0
H2329 H 0.51135 0.60308 0.96175 0.0
H2330 H 0.5137 0.63045 0.9316 0.0
C2331 C 0.54356 0.69893 0.8168 0.0
C2332 C 0.51553 0.65452 0.8521 0.0
H2333 H 0.48349 0.64221 0.89766 0.0
C2334 C 0.53069 0.6366 0.85371 0.0
C2335 C 0.49841 0.65667 0.86831 0.0
C2336 C 0.48225 0.67608 0.86816 0.0
C2337 C 0.52923 0.62084 0.87094 0.0
C2338 C 0.51185 0.62272 0.88689 0.0
C2339 C 0.49671 0.64067 0.88537 0.0
C2340 C 0.50932 0.60626 0.90531 0.0
C2341 C 0.54675 0.60265 0.87223 0.0
C2342 C 0.5056 0.58361 0.90067 0.0
C2343 C 0.50433 0.56793 0.91782 0.0
C2344 C 0.50657 0.57449 0.94016 0.0
C2345 C 0.50962 0.59733 0.94482 0.0
C2346 C 0.51094 0.61304 0.92757 0.0
H2347 H 0.56207 0.60696 0.86258 0.0
H2348 H 0.55171 0.59938 0.88967 0.0
H2349 H 0.53969 0.58702 0.86522 0.0
H2350 H 0.50378 0.578 0.88369 0.0
H2351 H 0.50169 0.55059 0.91345 0.0
H2352 H 0.31295 0.47742 0.79226 0.0
H2353 H 0.34538 0.47698 0.81758 0.0
H2354 H 0.32357 0.53946 0.84582 0.0
H2355 H 0.2915 0.5401 0.82044 0.0
H2356 H 0.37009 0.53684 0.84139 0.0
H2357 H 0.33528 0.46179 0.88336 0.0
H2358 H 0.34034 0.45871 0.85414 0.0
H2359 H 0.31927 0.47795 0.86365 0.0
C2360 C 0.31551 0.49136 0.80342 0.0
C2361 C 0.29969 0.50875 0.80446 0.0
C2362 C 0.33384 0.49096 0.81808 0.0
C2363 C 0.3366 0.50793 0.83397 0.0
C2364 C 0.32171 0.52609 0.83386 0.0
H2365 H 0.40524 0.50525 0.96148 0.0
H2366 H 0.37776 0.50645 0.9312 0.0
C2367 C 0.30342 0.52647 0.81932 0.0
C2368 C 0.35403 0.50635 0.85164 0.0
H2369 H 0.3697 0.47579 0.897 0.0
C2370 C 0.3701 0.52342 0.85347 0.0
C2371 C 0.35372 0.48909 0.86771 0.0
C2372 C 0.33614 0.47092 0.86734 0.0
C2373 C 0.38595 0.52363 0.87079 0.0
C2374 C 0.38594 0.50612 0.88658 0.0
C2375 C 0.36978 0.48913 0.88484 0.0
C2376 C 0.40258 0.50516 0.905 0.0
C2377 C 0.4022 0.54292 0.87234 0.0
C2378 C 0.42564 0.50365 0.90038 0.0
C2379 C 0.44137 0.50299 0.91759 0.0
C2380 C 0.43445 0.50367 0.93994 0.0
C2381 C 0.41126 0.50477 0.94454 0.0
C2382 C 0.3955 0.50544 0.92723 0.0
H2383 H 0.39623 0.55763 0.86279 0.0
H2384 H 0.40482 0.54801 0.88986 0.0
H2385 H 0.41868 0.53776 0.8654 0.0
H2386 H 0.43151 0.5029 0.88339 0.0
H2387 H 0.45901 0.50195 0.91324 0.0
H2388 H 0.48152 0.30772 0.79386 0.0
H2389 H 0.47947 0.34048 0.81851 0.0
H2390 H 0.54419 0.32343 0.84596 0.0
H2391 H 0.5463 0.29106 0.8214 0.0
H2392 H 0.47942 0.33842 0.86469 0.0
H2393 H 0.55075 0.39025 0.83598 0.0
H2394 H 0.53903 0.36801 0.81941 0.0
H2395 H 0.5587 0.36185 0.84124 0.0
C2396 C 0.49558 0.31147 0.80465 0.0
C2397 C 0.51417 0.29701 0.80558 0.0
C2398 C 0.49433 0.33002 0.81888 0.0
C2399 C 0.51177 0.33458 0.83401 0.0
C2400 C 0.53071 0.32061 0.83421 0.0
H2401 H 0.50734 0.40321 0.96134 0.0
H2402 H 0.50782 0.37585 0.93116 0.0
C2403 C 0.5319 0.30208 0.82017 0.0
C2404 C 0.50958 0.35268 0.85089 0.0
H2405 H 0.53654 0.39828 0.87227 0.0
C2406 C 0.49178 0.35166 0.8662 0.0
C2407 C 0.5256 0.37005 0.85286 0.0
C2408 C 0.54447 0.37279 0.83637 0.0
C2409 C 0.48994 0.3671 0.88372 0.0
C2410 C 0.50655 0.38386 0.88628 0.0
C2411 C 0.52396 0.38528 0.87056 0.0
C2412 C 0.506 0.40036 0.90483 0.0
C2413 C 0.47011 0.36541 0.89923 0.0
C2414 C 0.50532 0.4233 0.90021 0.0
C2415 C 0.5052 0.43899 0.9174 0.0
C2416 C 0.50587 0.43219 0.93978 0.0
C2417 C 0.50667 0.40915 0.94439 0.0
C2418 C 0.5068 0.39343 0.92711 0.0
H2419 H 0.45602 0.35589 0.89168 0.0
H2420 H 0.47534 0.35656 0.91454 0.0
H2421 H 0.46389 0.38223 0.90398 0.0
H2422 H 0.50479 0.42912 0.8832 0.0
H2423 H 0.5046 0.45651 0.91303 0.0
H2424 H 0.69709 0.52877 0.79132 0.0
H2425 H 0.66478 0.52881 0.81679 0.0
H2426 H 0.68655 0.46573 0.84373 0.0
H2427 H 0.71854 0.46554 0.81821 0.0
H2428 H 0.63984 0.46894 0.8403 0.0
H2429 H 0.67663 0.54285 0.88258 0.0
H2430 H 0.67102 0.54647 0.85352 0.0
H2431 H 0.69197 0.52676 0.86231 0.0
C2432 C 0.69447 0.51458 0.80214 0.0
C2433 C 0.71027 0.49716 0.80281 0.0
C2434 C 0.67623 0.51476 0.81691 0.0
C2435 C 0.67357 0.49753 0.83256 0.0
C2436 C 0.68834 0.47928 0.83196 0.0
H2437 H 0.60653 0.50011 0.9612 0.0
H2438 H 0.6338 0.49857 0.93069 0.0
C2439 C 0.70654 0.47913 0.8173 0.0
C2440 C 0.65654 0.49907 0.8506 0.0
H2441 H 0.64216 0.52929 0.89659 0.0
C2442 C 0.64026 0.4822 0.85253 0.0
C2443 C 0.65743 0.51609 0.86689 0.0
C2444 C 0.67529 0.53399 0.86644 0.0
C2445 C 0.62472 0.48202 0.87012 0.0
C2446 C 0.62527 0.49935 0.8861 0.0
C2447 C 0.64167 0.5161 0.88429 0.0
C2448 C 0.60881 0.50048 0.90468 0.0
C2449 C 0.60818 0.46298 0.87173 0.0
C2450 C 0.58576 0.50248 0.90023 0.0
C2451 C 0.57018 0.50335 0.91755 0.0
C2452 C 0.57723 0.50239 0.93986 0.0
C2453 C 0.60043 0.50081 0.9443 0.0
C2454 C 0.61605 0.49994 0.92686 0.0
H2455 H 0.61382 0.44824 0.86202 0.0
H2456 H 0.60566 0.45781 0.88924 0.0
H2457 H 0.59172 0.46843 0.86498 0.0
H2458 H 0.57978 0.50346 0.8833 0.0
H2459 H 0.55254 0.50476 0.91332 0.0
H2460 H 0.49354 0.31093 0.23497 0.0
H2461 H 0.48714 0.33952 0.20632 0.0
H2462 H 0.55347 0.32741 0.18001 0.0
H2463 H 0.55999 0.29931 0.20862 0.0
H2464 H 0.5447 0.37171 0.1832 0.0
H2465 H 0.47408 0.32864 0.14075 0.0
H2466 H 0.46975 0.33372 0.16979 0.0
H2467 H 0.49156 0.31492 0.16106 0.0
C2468 C 0.50676 0.3145 0.22314 0.0
C2469 C 0.52729 0.30289 0.22403 0.0
C2470 C 0.50302 0.33069 0.20663 0.0
C2471 C 0.5197 0.33542 0.19071 0.0
C2472 C 0.5403 0.32407 0.19198 0.0
H2473 H 0.51138 0.40329 0.06289 0.0
H2474 H 0.51398 0.37602 0.09312 0.0
C2475 C 0.54402 0.30801 0.20838 0.0
C2476 C 0.51613 0.35228 0.17279 0.0
H2477 H 0.484 0.36443 0.12726 0.0
C2478 C 0.53136 0.37014 0.17103 0.0
C2479 C 0.49897 0.35009 0.15664 0.0
C2480 C 0.48275 0.33072 0.15694 0.0
C2481 C 0.52991 0.3858 0.15371 0.0
C2482 C 0.51247 0.38389 0.13783 0.0
C2483 C 0.49727 0.366 0.13949 0.0
C2484 C 0.50987 0.4003 0.11937 0.0
C2485 C 0.54748 0.40394 0.15227 0.0
C2486 C 0.50622 0.42297 0.12397 0.0
C2487 C 0.50481 0.43859 0.10678 0.0
C2488 C 0.50682 0.43196 0.08443 0.0
C2489 C 0.50982 0.4091 0.07982 0.0
C2490 C 0.51128 0.39345 0.09711 0.0
H2491 H 0.56284 0.3996 0.16184 0.0
H2492 H 0.55236 0.40716 0.13479 0.0
H2493 H 0.54053 0.41961 0.15928 0.0
H2494 H 0.50457 0.42864 0.14094 0.0
H2495 H 0.50223 0.45594 0.11112 0.0
H2496 H 0.71849 0.46253 0.20343 0.0
H2497 H 0.68641 0.46506 0.17823 0.0
H2498 H 0.66844 0.52868 0.20664 0.0
H2499 H 0.70095 0.52628 0.23186 0.0
H2500 H 0.64035 0.46992 0.18364 0.0
H2501 H 0.67775 0.54311 0.14055 0.0
H2502 H 0.69342 0.52633 0.16001 0.0
H2503 H 0.67334 0.54643 0.16984 0.0
C2504 C 0.70744 0.47687 0.20458 0.0
C2505 C 0.71224 0.49427 0.21951 0.0
C2506 C 0.68914 0.47832 0.19015 0.0
C2507 C 0.67528 0.49726 0.1902 0.0
C2508 C 0.67918 0.51409 0.20602 0.0
H2509 H 0.55264 0.50649 0.11119 0.0
H2510 H 0.58006 0.50555 0.14112 0.0
C2511 C 0.69754 0.5126 0.22061 0.0
C2512 C 0.65761 0.49957 0.17285 0.0
H2513 H 0.64287 0.5301 0.12717 0.0
C2514 C 0.64079 0.48318 0.1714 0.0
C2515 C 0.65848 0.51661 0.15658 0.0
C2516 C 0.6768 0.53405 0.15659 0.0
C2517 C 0.62484 0.48335 0.15418 0.0
C2518 C 0.6255 0.50058 0.13811 0.0
C2519 C 0.64231 0.51697 0.13954 0.0
C2520 C 0.60893 0.50178 0.11964 0.0
C2521 C 0.60782 0.46468 0.15299 0.0
C2522 C 0.61603 0.50067 0.09744 0.0
C2523 C 0.60033 0.50133 0.08009 0.0
C2524 C 0.57717 0.50321 0.08461 0.0
C2525 C 0.57025 0.50478 0.10692 0.0
C2526 C 0.58593 0.50415 0.12418 0.0
H2527 H 0.61317 0.44994 0.16284 0.0
H2528 H 0.59155 0.47063 0.1598 0.0
H2529 H 0.60501 0.45935 0.13558 0.0
H2530 H 0.63374 0.49897 0.09354 0.0
H2531 H 0.60634 0.50013 0.06318 0.0
H2532 H 0.46893 0.71711 0.20286 0.0
H2533 H 0.46938 0.68474 0.17821 0.0
H2534 H 0.53183 0.66298 0.20742 0.0
H2535 H 0.53149 0.6957 0.23211 0.0
H2536 H 0.53368 0.66582 0.16144 0.0
H2537 H 0.45802 0.61831 0.18666 0.0
H2538 H 0.45226 0.64726 0.18154 0.0
H2539 H 0.47055 0.63949 0.20402 0.0
C2540 C 0.4824 0.70505 0.2045 0.0
C2541 C 0.50007 0.70881 0.21955 0.0
C2542 C 0.48264 0.68652 0.19039 0.0
C2543 C 0.50055 0.67126 0.191 0.0
C2544 C 0.51777 0.67445 0.2067 0.0
H2545 H 0.5046 0.54969 0.11147 0.0
H2546 H 0.50429 0.57702 0.14135 0.0
C2547 C 0.51746 0.69299 0.22097 0.0
C2548 C 0.50216 0.65332 0.1739 0.0
H2549 H 0.47336 0.60961 0.151 0.0
C2550 C 0.52059 0.65339 0.1593 0.0
C2551 C 0.48517 0.637 0.1711 0.0
C2552 C 0.46549 0.63532 0.18679 0.0
C2553 C 0.5222 0.63802 0.14171 0.0
C2554 C 0.50474 0.6223 0.13836 0.0
C2555 C 0.48662 0.62183 0.15333 0.0
C2556 C 0.50517 0.60583 0.11978 0.0
C2557 C 0.54271 0.63862 0.127 0.0
C2558 C 0.50557 0.61283 0.09751 0.0
C2559 C 0.50577 0.59715 0.0802 0.0
C2560 C 0.50547 0.57409 0.08477 0.0
C2561 C 0.5049 0.56723 0.10713 0.0
C2562 C 0.50469 0.58288 0.12436 0.0
H2563 H 0.55696 0.64744 0.13507 0.0
H2564 H 0.54822 0.62149 0.12254 0.0
H2565 H 0.53857 0.64765 0.11146 0.0
H2566 H 0.50549 0.63045 0.0935 0.0
H2567 H 0.50608 0.60314 0.06326 0.0
H2568 H 0.30209 0.44938 0.20965 0.0
H2569 H 0.33066 0.45557 0.18117 0.0
H2570 H 0.34244 0.5218 0.20664 0.0
H2571 H 0.31355 0.51571 0.23523 0.0
H2572 H 0.33764 0.52014 0.15995 0.0
H2573 H 0.39896 0.45696 0.18902 0.0
H2574 H 0.37111 0.44599 0.18542 0.0
H2575 H 0.37621 0.46692 0.2062 0.0
C2576 C 0.31095 0.46518 0.20936 0.0
C2577 C 0.30572 0.48196 0.22479 0.0
C2578 C 0.32732 0.46868 0.19309 0.0
C2579 C 0.33894 0.48903 0.19191 0.0
C2580 C 0.33377 0.50591 0.20731 0.0
H2581 H 0.45843 0.50782 0.11092 0.0
H2582 H 0.43103 0.50605 0.14083 0.0
C2583 C 0.31736 0.50238 0.22371 0.0
C2584 C 0.356 0.49268 0.17417 0.0
H2585 H 0.40453 0.47124 0.15256 0.0
C2586 C 0.35237 0.50958 0.15841 0.0
C2587 C 0.37532 0.47903 0.17225 0.0
C2588 C 0.38081 0.46134 0.18923 0.0
C2589 C 0.36724 0.5128 0.14051 0.0
C2590 C 0.38609 0.49855 0.13811 0.0
C2591 C 0.38997 0.48202 0.1542 0.0
C2592 C 0.40237 0.50071 0.11942 0.0
C2593 C 0.36279 0.53163 0.12449 0.0
C2594 C 0.39547 0.49829 0.09724 0.0
C2595 C 0.4112 0.49935 0.0799 0.0
C2596 C 0.4342 0.50264 0.0844 0.0
C2597 C 0.44094 0.50517 0.10666 0.0
C2598 C 0.42525 0.50418 0.1239 0.0
H2599 H 0.35148 0.54444 0.13178 0.0
H2600 H 0.37871 0.53982 0.11935 0.0
H2601 H 0.3545 0.52485 0.10944 0.0
H2602 H 0.37798 0.49513 0.09334 0.0
H2603 H 0.40536 0.49719 0.06303 0.0
H2604 H 0.7812 0.49013 0.70363 0.0
H2605 H 0.80997 0.48394 0.67498 0.0
H2606 H 0.8369 0.54965 0.68723 0.0
H2607 H 0.80814 0.55597 0.71548 0.0
H2608 H 0.83306 0.54084 0.64298 0.0
H2609 H 0.87663 0.47109 0.68584 0.0
H2610 H 0.84711 0.46678 0.68113 0.0
H2611 H 0.85619 0.48856 0.69955 0.0
C2612 C 0.79318 0.50327 0.70008 0.0
C2613 C 0.79245 0.52356 0.71178 0.0
C2614 C 0.80974 0.49965 0.68385 0.0
C2615 C 0.82587 0.5162 0.67917 0.0
C2616 C 0.82474 0.53659 0.69057 0.0
H2617 H 0.95485 0.5084 0.61126 0.0
H2618 H 0.92427 0.51083 0.6384 0.0
C2619 C 0.80827 0.54019 0.7067 0.0
C2620 C 0.84389 0.51265 0.66235 0.0
H2621 H 0.89 0.48076 0.65013 0.0
C2622 C 0.84545 0.52764 0.64451 0.0
C2623 C 0.86031 0.49565 0.66452 0.0
C2624 C 0.8602 0.47969 0.68387 0.0
C2625 C 0.86285 0.52611 0.62881 0.0
C2626 C 0.87901 0.50885 0.63071 0.0
C2627 C 0.87754 0.49388 0.64859 0.0
C2628 C 0.89764 0.50628 0.61438 0.0
C2629 C 0.86411 0.5434 0.61064 0.0
C2630 C 0.89291 0.50241 0.59192 0.0
C2631 C 0.9103 0.50109 0.57636 0.0
C2632 C 0.93295 0.50342 0.58289 0.0
C2633 C 0.93768 0.50659 0.60555 0.0
C2634 C 0.9202 0.50797 0.62112 0.0
H2635 H 0.8543 0.55861 0.61484 0.0
H2636 H 0.8818 0.54834 0.60735 0.0
H2637 H 0.85702 0.53629 0.59515 0.0
H2638 H 0.87569 0.50054 0.58637 0.0
H2639 H 0.90589 0.49835 0.55916 0.0
H2640 H 0.54391 0.81314 0.72503 0.0
H2641 H 0.54224 0.83746 0.6925 0.0
H2642 H 0.47904 0.80767 0.67364 0.0
H2643 H 0.48063 0.78331 0.70654 0.0
H2644 H 0.53876 0.83098 0.64694 0.0
H2645 H 0.46345 0.8742 0.6807 0.0
H2646 H 0.48014 0.85519 0.69707 0.0
H2647 H 0.46059 0.84457 0.67697 0.0
C2648 C 0.52994 0.8114 0.71363 0.0
C2649 C 0.51243 0.79631 0.71823 0.0
C2650 C 0.52895 0.82537 0.69509 0.0
C2651 C 0.51032 0.82475 0.68082 0.0
C2652 C 0.4934 0.80873 0.68463 0.0
H2653 H 0.50389 0.90266 0.55795 0.0
H2654 H 0.50453 0.87265 0.58524 0.0
C2655 C 0.49445 0.79462 0.70322 0.0
C2656 C 0.50828 0.84179 0.66288 0.0
H2657 H 0.47736 0.88703 0.6464 0.0
C2658 C 0.52523 0.84312 0.64671 0.0
C2659 C 0.49088 0.85795 0.66284 0.0
C2660 C 0.4728 0.85814 0.6804 0.0
C2661 C 0.52527 0.86008 0.63055 0.0
C2662 C 0.5077 0.87606 0.63032 0.0
C2663 C 0.49074 0.87473 0.64648 0.0
C2664 C 0.50685 0.89449 0.61369 0.0
C2665 C 0.54453 0.86115 0.61429 0.0
C2666 C 0.50729 0.91692 0.62053 0.0
C2667 C 0.5068 0.93428 0.60491 0.0
C2668 C 0.50573 0.9296 0.58205 0.0
C2669 C 0.50491 0.90706 0.57533 0.0
C2670 C 0.50539 0.88977 0.59095 0.0
H2671 H 0.55931 0.85147 0.62015 0.0
H2672 H 0.53906 0.85397 0.59821 0.0
H2673 H 0.54984 0.87868 0.61136 0.0
H2674 H 0.5083 0.92101 0.638 0.0
H2675 H 0.5074 0.95135 0.61079 0.0
H2676 H 0.2039 0.4496 0.7156 0.0
H2677 H 0.17567 0.4557 0.68679 0.0
H2678 H 0.20245 0.52151 0.67484 0.0
H2679 H 0.23077 0.51552 0.70398 0.0
H2680 H 0.15517 0.52054 0.6787 0.0
H2681 H 0.18464 0.45604 0.61965 0.0
H2682 H 0.18032 0.44546 0.64717 0.0
H2683 H 0.20182 0.46601 0.64225 0.0
C2684 C 0.20396 0.46528 0.70664 0.0
C2685 C 0.21966 0.48198 0.71191 0.0
C2686 C 0.18784 0.46872 0.69013 0.0
C2687 C 0.18709 0.48894 0.6784 0.0
C2688 C 0.20279 0.50572 0.68359 0.0
H2689 H 0.10639 0.50691 0.55938 0.0
H2690 H 0.13655 0.50514 0.58662 0.0
C2691 C 0.21903 0.50225 0.70016 0.0
C2692 C 0.16944 0.49258 0.66125 0.0
H2693 H 0.14785 0.47063 0.61348 0.0
C2694 C 0.15366 0.50976 0.66433 0.0
C2695 C 0.16756 0.47864 0.64239 0.0
C2696 C 0.18461 0.46064 0.6375 0.0
C2697 C 0.13575 0.51298 0.64939 0.0
C2698 C 0.13335 0.49843 0.63104 0.0
C2699 C 0.14949 0.48163 0.62768 0.0
C2700 C 0.11456 0.50051 0.6148 0.0
C2701 C 0.11972 0.5321 0.65326 0.0
C2702 C 0.09199 0.49844 0.62149 0.0
C2703 C 0.07453 0.49949 0.60587 0.0
C2704 C 0.07928 0.50243 0.58318 0.0
C2705 C 0.10194 0.50456 0.57663 0.0
C2706 C 0.1193 0.50356 0.59222 0.0
H2707 H 0.12719 0.54504 0.66422 0.0
H2708 H 0.11477 0.54005 0.63735 0.0
H2709 H 0.10429 0.52569 0.66141 0.0
H2710 H 0.08789 0.49559 0.63875 0.0
H2711 H 0.05735 0.49765 0.61157 0.0
H2712 H 0.55958 0.2116 0.70363 0.0
H2713 H 0.55318 0.18218 0.6763 0.0
H2714 H 0.48158 0.18817 0.6862 0.0
H2715 H 0.48799 0.2183 0.71313 0.0
H2716 H 0.53545 0.1424 0.68181 0.0
H2717 H 0.4841 0.18786 0.61977 0.0
H2718 H 0.49872 0.20197 0.6419 0.0
H2719 H 0.47234 0.18826 0.64716 0.0
C2720 C 0.54244 0.20691 0.69969 0.0
C2721 C 0.52431 0.21742 0.71035 0.0
C2722 C 0.53879 0.18998 0.68413 0.0
C2723 C 0.51688 0.18296 0.6789 0.0
C2724 C 0.49863 0.19356 0.68947 0.0
H2725 H 0.49681 0.05375 0.61098 0.0
H2726 H 0.49772 0.08354 0.63879 0.0
C2727 C 0.5023 0.21076 0.70493 0.0
C2728 C 0.51355 0.16396 0.6631 0.0
H2729 H 0.48832 0.14892 0.61435 0.0
C2730 C 0.52511 0.14386 0.66707 0.0
C2731 C 0.50024 0.16579 0.6437 0.0
C2732 C 0.4883 0.18718 0.63771 0.0
C2733 C 0.52401 0.12579 0.65219 0.0
C2734 C 0.51038 0.12747 0.63299 0.0
C2735 C 0.49862 0.14748 0.62912 0.0
C2736 C 0.50906 0.10921 0.61609 0.0
C2737 C 0.5382 0.10542 0.65682 0.0
C2738 C 0.5144 0.11369 0.59385 0.0
C2739 C 0.51357 0.09677 0.57785 0.0
C2740 C 0.50742 0.07481 0.58365 0.0
C2741 C 0.50188 0.07035 0.60592 0.0
C2742 C 0.5025 0.0874 0.6219 0.0
H2743 H 0.55214 0.10918 0.66851 0.0
H2744 H 0.52754 0.09233 0.66449 0.0
H2745 H 0.54552 0.09858 0.6413 0.0
H2746 H 0.51951 0.1303 0.58885 0.0
H2747 H 0.51802 0.10092 0.56094 0.0
H2748 H 0.78885 0.52158 0.31237 0.0
H2749 H 0.81993 0.52873 0.33833 0.0
H2750 H 0.8256 0.45806 0.35085 0.0
H2751 H 0.79514 0.45087 0.32461 0.0
H2752 H 0.82641 0.52027 0.38213 0.0
H2753 H 0.88921 0.47312 0.33347 0.0
H2754 H 0.86191 0.48027 0.32252 0.0
H2755 H 0.86527 0.45623 0.34016 0.0
C2756 C 0.79665 0.50762 0.32079 0.0
C2757 C 0.78966 0.48563 0.31641 0.0
C2758 C 0.81445 0.51171 0.33557 0.0
C2759 C 0.82553 0.49389 0.34615 0.0
C2760 C 0.81784 0.47205 0.34243 0.0
H2761 H 0.90719 0.49308 0.46416 0.0
H2762 H 0.87742 0.49277 0.43644 0.0
C2763 C 0.80026 0.46797 0.32759 0.0
C2764 C 0.84509 0.4979 0.36113 0.0
H2765 H 0.89914 0.48125 0.37114 0.0
C2766 C 0.84238 0.51191 0.3796 0.0
C2767 C 0.86618 0.48744 0.35763 0.0
C2768 C 0.87092 0.47363 0.33723 0.0
C2769 C 0.85979 0.51495 0.39513 0.0
C2770 C 0.88033 0.50322 0.39245 0.0
C2771 C 0.88335 0.48999 0.37346 0.0
C2772 C 0.89861 0.50384 0.4094 0.0
C2773 C 0.85601 0.53087 0.41416 0.0
C2774 C 0.92079 0.50936 0.40341 0.0
C2775 C 0.93807 0.5092 0.41925 0.0
C2776 C 0.93354 0.50352 0.44146 0.0
C2777 C 0.91134 0.49784 0.44732 0.0
C2778 C 0.89416 0.49782 0.43147 0.0
H2779 H 0.84333 0.54379 0.40985 0.0
H2780 H 0.84952 0.52143 0.42864 0.0
H2781 H 0.87185 0.53935 0.41908 0.0
H2782 H 0.92473 0.51389 0.38646 0.0
H2783 H 0.95492 0.51369 0.4141 0.0
H2784 H 0.55813 0.7973 0.31664 0.0
H2785 H 0.55228 0.82615 0.34468 0.0
H2786 H 0.48052 0.81654 0.33985 0.0
H2787 H 0.48648 0.78689 0.31234 0.0
H2788 H 0.53273 0.8648 0.34106 0.0
H2789 H 0.48713 0.81705 0.40567 0.0
H2790 H 0.50068 0.80364 0.38248 0.0
H2791 H 0.47346 0.81635 0.37917 0.0
C2792 C 0.54112 0.80106 0.32188 0.0
C2793 C 0.52281 0.78966 0.31249 0.0
C2794 C 0.53776 0.81767 0.33784 0.0
C2795 C 0.51596 0.82352 0.3447 0.0
C2796 C 0.49756 0.81204 0.33537 0.0
H2797 H 0.49437 0.95188 0.4136 0.0
H2798 H 0.49521 0.92208 0.3858 0.0
C2799 C 0.50096 0.79511 0.31956 0.0
C2800 C 0.51279 0.8423 0.3608 0.0
H2801 H 0.48948 0.85623 0.41079 0.0
C2802 C 0.52327 0.86287 0.35632 0.0
C2803 C 0.50063 0.83988 0.38087 0.0
C2804 C 0.49002 0.81799 0.38749 0.0
C2805 C 0.5222 0.88086 0.3713 0.0
C2806 C 0.50962 0.87862 0.39113 0.0
C2807 C 0.49896 0.85812 0.39554 0.0
C2808 C 0.50828 0.89685 0.40807 0.0
C2809 C 0.53533 0.90177 0.36602 0.0
C2810 C 0.51456 0.89259 0.43012 0.0
C2811 C 0.5137 0.90949 0.44613 0.0
C2812 C 0.50665 0.93122 0.44053 0.0
C2813 C 0.50018 0.93546 0.41847 0.0
C2814 C 0.50076 0.91842 0.4025 0.0
H2815 H 0.54894 0.8985 0.35383 0.0
H2816 H 0.52384 0.91435 0.35868 0.0
H2817 H 0.54297 0.90902 0.3812 0.0
H2818 H 0.5204 0.87616 0.43495 0.0
H2819 H 0.51889 0.90554 0.46289 0.0
H2820 H 0.19743 0.5398 0.29858 0.0
H2821 H 0.1732 0.53966 0.33129 0.0
H2822 H 0.20292 0.47758 0.35255 0.0
H2823 H 0.2271 0.47753 0.31945 0.0
H2824 H 0.1565 0.47584 0.35063 0.0
H2825 H 0.18297 0.55114 0.39695 0.0
H2826 H 0.17718 0.55684 0.36831 0.0
H2827 H 0.20013 0.53868 0.37557 0.0
C2828 C 0.19924 0.52643 0.31055 0.0
C2829 C 0.21422 0.50871 0.30652 0.0
C2830 C 0.18541 0.52639 0.3293 0.0
C2831 C 0.18629 0.50869 0.34452 0.0
C2832 C 0.20201 0.49147 0.34109 0.0
H2833 H 0.10695 0.50545 0.46618 0.0
H2834 H 0.13713 0.50559 0.43887 0.0
C2835 C 0.21597 0.49156 0.32231 0.0
C2836 C 0.16932 0.50721 0.36265 0.0
H2837 H 0.14678 0.53613 0.40616 0.0
C2838 C 0.15453 0.48891 0.36292 0.0
C2839 C 0.16677 0.52419 0.37877 0.0
C2840 C 0.18275 0.54371 0.38007 0.0
C2841 C 0.13693 0.48744 0.37845 0.0
C2842 C 0.13377 0.50491 0.39394 0.0
C2843 C 0.14897 0.52288 0.39409 0.0
C2844 C 0.11507 0.50469 0.4104 0.0
C2845 C 0.12199 0.46708 0.37823 0.0
C2846 C 0.09247 0.50437 0.40354 0.0
C2847 C 0.075 0.50426 0.41918 0.0
C2848 C 0.07977 0.50458 0.44205 0.0
C2849 C 0.10247 0.50512 0.44878 0.0
C2850 C 0.11986 0.50524 0.43316 0.0
H2851 H 0.13009 0.45284 0.36955 0.0
H2852 H 0.11763 0.46181 0.39535 0.0
H2853 H 0.10615 0.4711 0.36936 0.0
H2854 H 0.08832 0.5044 0.38606 0.0
H2855 H 0.0578 0.50396 0.41331 0.0
H2856 H 0.47866 0.22172 0.31739 0.0
H2857 H 0.47708 0.19724 0.35019 0.0
H2858 H 0.5433 0.17231 0.33477 0.0
H2859 H 0.54489 0.19674 0.30231 0.0
H2860 H 0.47881 0.15113 0.34844 0.0
H2861 H 0.54811 0.18245 0.40118 0.0
H2862 H 0.53635 0.19866 0.37875 0.0
H2863 H 0.55684 0.17727 0.37317 0.0
C2864 C 0.49315 0.2116 0.32156 0.0
C2865 C 0.51206 0.21138 0.3076 0.0
C2866 C 0.49217 0.19745 0.34013 0.0
C2867 C 0.51017 0.18303 0.34513 0.0
C2868 C 0.52941 0.18355 0.33163 0.0
H2869 H 0.50819 0.0549 0.41333 0.0
H2870 H 0.5084 0.08533 0.38623 0.0
C2871 C 0.53032 0.19755 0.31309 0.0
C2872 C 0.50824 0.166 0.36311 0.0
H2873 H 0.53493 0.14548 0.40901 0.0
C2874 C 0.49095 0.15005 0.36182 0.0
C2875 C 0.52396 0.16458 0.38068 0.0
C2876 C 0.54223 0.18179 0.3837 0.0
C2877 C 0.48934 0.13242 0.3772 0.0
C2878 C 0.50568 0.13042 0.39417 0.0
C2879 C 0.52256 0.14677 0.39585 0.0
C2880 C 0.50541 0.11172 0.41056 0.0
C2881 C 0.47001 0.11623 0.37522 0.0
C2882 C 0.50421 0.11632 0.43334 0.0
C2883 C 0.50425 0.09898 0.4489 0.0
C2884 C 0.50562 0.07649 0.44212 0.0
C2885 C 0.50696 0.07192 0.41925 0.0
C2886 C 0.50694 0.08934 0.40367 0.0
H2887 H 0.45585 0.12344 0.36556 0.0
H2888 H 0.47584 0.101 0.36646 0.0
H2889 H 0.46368 0.11122 0.39181 0.0
H2890 H 0.5031 0.13341 0.43912 0.0
H2891 H 0.50319 0.10331 0.4663 0.0
H2892 H 0.71866 0.80934 0.54829 0.0
H2893 H 0.68596 0.83402 0.54847 0.0
H2894 H 0.66351 0.8053 0.48675 0.0
H2895 H 0.69656 0.78067 0.4864 0.0
H2896 H 0.66763 0.85134 0.48519 0.0
H2897 H 0.61884 0.82658 0.55944 0.0
H2898 H 0.64809 0.83111 0.56526 0.0
H2899 H 0.63987 0.80873 0.5471 0.0
C2900 C 0.70636 0.80781 0.53512 0.0
C2901 C 0.71007 0.79306 0.51737 0.0
C2902 C 0.68765 0.8219 0.53526 0.0
C2903 C 0.67219 0.82146 0.51769 0.0
C2904 C 0.67518 0.80585 0.50053 0.0
H2905 H 0.55159 0.90309 0.5122 0.0
H2906 H 0.57869 0.87271 0.51283 0.0
C2907 C 0.69392 0.79164 0.50044 0.0
C2908 C 0.65451 0.83894 0.51612 0.0
H2909 H 0.61088 0.86272 0.54438 0.0
C2910 C 0.65506 0.85369 0.49802 0.0
C2911 C 0.63809 0.84198 0.53282 0.0
C2912 C 0.636 0.82613 0.55215 0.0
C2913 C 0.64 0.87169 0.49642 0.0
C2914 C 0.62417 0.87526 0.51357 0.0
C2915 C 0.62323 0.86017 0.53139 0.0
C2916 C 0.60795 0.89413 0.51302 0.0
C2917 C 0.64102 0.88661 0.47629 0.0
C2918 C 0.61536 0.91642 0.51308 0.0
C2919 C 0.59982 0.93403 0.51269 0.0
C2920 C 0.57656 0.92967 0.51234 0.0
C2921 C 0.56931 0.90725 0.51242 0.0
C2922 C 0.5848 0.88975 0.51282 0.0
H2923 H 0.65006 0.87851 0.46232 0.0
H2924 H 0.62387 0.89124 0.47064 0.0
H2925 H 0.65015 0.90218 0.4806 0.0
H2926 H 0.63316 0.9202 0.51363 0.0
H2927 H 0.60606 0.95102 0.51275 0.0
H2928 H 0.72166 0.19503 0.47719 0.0
H2929 H 0.68941 0.16961 0.47637 0.0
H2930 H 0.66427 0.19898 0.53675 0.0
H2931 H 0.6966 0.22459 0.53753 0.0
H2932 H 0.6712 0.15108 0.53762 0.0
H2933 H 0.62084 0.17795 0.46482 0.0
H2934 H 0.65057 0.17545 0.45997 0.0
H2935 H 0.64034 0.19629 0.47883 0.0
C2936 C 0.70883 0.19653 0.48987 0.0
C2937 C 0.71144 0.21186 0.50732 0.0
C2938 C 0.69045 0.182 0.4894 0.0
C2939 C 0.67441 0.18246 0.50645 0.0
C2940 C 0.67642 0.19846 0.52337 0.0
H2941 H 0.55348 0.10214 0.51429 0.0
H2942 H 0.58119 0.132 0.51342 0.0
C2943 C 0.69473 0.2132 0.52371 0.0
C2944 C 0.657 0.16475 0.50773 0.0
H2945 H 0.61215 0.14242 0.48018 0.0
C2946 C 0.65817 0.14926 0.52517 0.0
C2947 C 0.64006 0.16242 0.49146 0.0
C2948 C 0.63766 0.17899 0.47278 0.0
C2949 C 0.64305 0.13128 0.52659 0.0
C2950 C 0.62646 0.12861 0.50999 0.0
C2951 C 0.62504 0.14435 0.49277 0.0
C2952 C 0.60989 0.11005 0.5106 0.0
C2953 C 0.64479 0.11546 0.54598 0.0
C2954 C 0.61679 0.08765 0.50918 0.0
C2955 C 0.60091 0.07034 0.5097 0.0
C2956 C 0.57781 0.07513 0.51153 0.0
C2957 C 0.57106 0.09766 0.51284 0.0
C2958 C 0.5869 0.11486 0.51233 0.0
H2959 H 0.6548 0.1227 0.55977 0.0
H2960 H 0.62785 0.11099 0.55234 0.0
H2961 H 0.65322 0.09988 0.5405 0.0
H2962 H 0.63444 0.08356 0.50746 0.0
H2963 H 0.60676 0.05326 0.50851 0.0
H2964 H 0.7802 0.69367 0.52199 0.0
H2965 H 0.80913 0.66509 0.52831 0.0
H2966 H 0.8369 0.67825 0.46354 0.0
H2967 H 0.80796 0.7065 0.45708 0.0
H2968 H 0.8333 0.63336 0.4723 0.0
H2969 H 0.87553 0.67744 0.54183 0.0
H2970 H 0.846 0.67242 0.54575 0.0
H2971 H 0.85518 0.6909 0.5241 0.0
C2972 C 0.79239 0.69034 0.50907 0.0
C2973 C 0.79188 0.70231 0.48903 0.0
C2974 C 0.80903 0.67414 0.51277 0.0
C2975 C 0.82544 0.66978 0.49654 0.0
C2976 C 0.82451 0.68138 0.47634 0.0
H2977 H 0.95473 0.60255 0.50628 0.0
H2978 H 0.92405 0.62968 0.50311 0.0
C2979 C 0.80795 0.69749 0.47266 0.0
C2980 C 0.84361 0.65314 0.50031 0.0
H2981 H 0.88934 0.64153 0.5327 0.0
C2982 C 0.84551 0.63511 0.48555 0.0
C2983 C 0.85975 0.65563 0.51738 0.0
C2984 C 0.85923 0.67523 0.53309 0.0
C2985 C 0.86301 0.61947 0.48744 0.0
C2986 C 0.87887 0.62168 0.50481 0.0
C2987 C 0.87708 0.63977 0.5195 0.0
C2988 C 0.89751 0.60542 0.50781 0.0
C2989 C 0.86465 0.60101 0.47048 0.0
C2990 C 0.89281 0.58288 0.51201 0.0
C2991 C 0.91025 0.56733 0.51377 0.0
C2992 C 0.93287 0.57399 0.51153 0.0
C2993 C 0.93756 0.59676 0.50803 0.0
C2994 C 0.92004 0.61232 0.50622 0.0
H2995 H 0.85498 0.60498 0.45522 0.0
H2996 H 0.88243 0.59783 0.46582 0.0
H2997 H 0.85764 0.58542 0.47762 0.0
H2998 H 0.8756 0.57725 0.51379 0.0
H2999 H 0.90588 0.55004 0.51675 0.0
H3000 H 0.30164 0.80559 0.45636 0.0
H3001 H 0.33003 0.83448 0.46252 0.0
H3002 H 0.34332 0.80769 0.52759 0.0
H3003 H 0.31467 0.77874 0.52154 0.0
H3004 H 0.33743 0.85468 0.52676 0.0
H3005 H 0.39858 0.82718 0.46294 0.0
H3006 H 0.37049 0.8306 0.45255 0.0
H3007 H 0.37623 0.8094 0.47289 0.0
C3008 C 0.31081 0.8057 0.47188 0.0
C3009 C 0.30608 0.78983 0.48837 0.0
C3010 C 0.32705 0.82218 0.47536 0.0
C3011 C 0.33899 0.82309 0.4954 0.0
C3012 C 0.33436 0.80721 0.51195 0.0
H3013 H 0.45791 0.90407 0.51618 0.0
H3014 H 0.43039 0.87412 0.51379 0.0
C3015 C 0.31809 0.79063 0.50844 0.0
C3016 C 0.35581 0.84104 0.49915 0.0
H3017 H 0.40415 0.86342 0.47815 0.0
C3018 C 0.35212 0.85653 0.51625 0.0
C3019 C 0.37504 0.84333 0.48552 0.0
C3020 C 0.3805 0.82664 0.46757 0.0
C3021 C 0.3669 0.87453 0.51977 0.0
C3022 C 0.3857 0.87725 0.50563 0.0
C3023 C 0.38961 0.86148 0.48883 0.0
C3024 C 0.40196 0.89593 0.50824 0.0
C3025 C 0.36244 0.89028 0.53878 0.0
C3026 C 0.39517 0.91828 0.50595 0.0
C3027 C 0.41095 0.93563 0.50735 0.0
C3028 C 0.43387 0.93092 0.51086 0.0
C3029 C 0.44048 0.90847 0.51334 0.0
C3030 C 0.42474 0.89123 0.512 0.0
H3031 H 0.35093 0.88281 0.55125 0.0
H3032 H 0.37835 0.89508 0.54715 0.0
H3033 H 0.35442 0.90569 0.5323 0.0
H3034 H 0.37774 0.9223 0.50262 0.0
H3035 H 0.40524 0.95267 0.50524 0.0
H3036 H 0.22899 0.30962 0.49196 0.0
H3037 H 0.20473 0.34286 0.48927 0.0
H3038 H 0.17151 0.32383 0.54998 0.0
H3039 H 0.19563 0.29095 0.55272 0.0
H3040 H 0.15739 0.3406 0.48606 0.0
H3041 H 0.1829 0.39057 0.5591 0.0
H3042 H 0.20032 0.36871 0.54768 0.0
H3043 H 0.17724 0.36191 0.56574 0.0
C3044 C 0.21695 0.31299 0.50502 0.0
C3045 C 0.2142 0.29787 0.5226 0.0
C3046 C 0.20301 0.33182 0.5034 0.0
C3047 C 0.18643 0.33591 0.51953 0.0
C3048 C 0.18441 0.32127 0.53756 0.0
H3049 H 0.05813 0.40386 0.51243 0.0
H3050 H 0.08896 0.37675 0.513 0.0
C3051 C 0.19815 0.30246 0.53909 0.0
C3052 C 0.16982 0.35421 0.51676 0.0
H3053 H 0.14691 0.39909 0.54335 0.0
C3054 C 0.15527 0.35358 0.49843 0.0
C3055 C 0.16712 0.37117 0.53285 0.0
C3056 C 0.18286 0.37332 0.55234 0.0
C3057 C 0.13761 0.36901 0.49616 0.0
C3058 C 0.13424 0.38529 0.51282 0.0
C3059 C 0.14929 0.3864 0.53074 0.0
C3060 C 0.11541 0.40156 0.5119 0.0
C3061 C 0.12275 0.36778 0.47592 0.0
C3062 C 0.12001 0.42449 0.5115 0.0
C3063 C 0.10249 0.44001 0.5113 0.0
C3064 C 0.07986 0.43298 0.51164 0.0
C3065 C 0.07529 0.40993 0.51206 0.0
C3066 C 0.0929 0.39438 0.51225 0.0
H3067 H 0.13095 0.35844 0.46221 0.0
H3068 H 0.10693 0.35898 0.48027 0.0
H3069 H 0.11833 0.38475 0.4699 0.0
H3070 H 0.13723 0.43042 0.51131 0.0
H3071 H 0.10681 0.45757 0.51097 0.0
H3072 H 0.30871 0.20486 0.57064 0.0
H3073 H 0.33663 0.17587 0.56328 0.0
H3074 H 0.34278 0.19887 0.49579 0.0
H3075 H 0.31449 0.2279 0.50305 0.0
H3076 H 0.33802 0.1523 0.49947 0.0
H3077 H 0.40445 0.18328 0.55607 0.0
H3078 H 0.37766 0.1801 0.56941 0.0
H3079 H 0.38094 0.20032 0.54758 0.0
C3080 C 0.31621 0.20391 0.5543 0.0
C3081 C 0.30957 0.21872 0.53749 0.0
C3082 C 0.33221 0.18737 0.55013 0.0
C3083 C 0.34204 0.18538 0.52908 0.0
C3084 C 0.33549 0.2002 0.5122 0.0
H3085 H 0.45901 0.10217 0.50491 0.0
H3086 H 0.43203 0.13264 0.50704 0.0
C3087 C 0.31942 0.21683 0.51638 0.0
C3088 C 0.35863 0.16735 0.52474 0.0
H3089 H 0.40851 0.14592 0.543 0.0
C3090 C 0.35354 0.15098 0.50884 0.0
C3091 C 0.37896 0.16575 0.53682 0.0
C3092 C 0.38597 0.18341 0.55327 0.0
C3093 C 0.36797 0.13275 0.50511 0.0
C3094 C 0.38783 0.13067 0.51789 0.0
C3095 C 0.39316 0.14735 0.53338 0.0
C3096 C 0.40366 0.11162 0.51527 0.0
C3097 C 0.36195 0.11603 0.48737 0.0
C3098 C 0.39671 0.08952 0.51912 0.0
C3099 C 0.41217 0.07188 0.51785 0.0
C3100 C 0.43493 0.07606 0.51296 0.0
C3101 C 0.4417 0.09823 0.50889 0.0
C3102 C 0.42626 0.11575 0.51006 0.0
H3103 H 0.34982 0.12308 0.47524 0.0
H3104 H 0.37716 0.11036 0.4783 0.0
H3105 H 0.35401 0.10125 0.49522 0.0
H3106 H 0.37946 0.08595 0.52362 0.0
H3107 H 0.40638 0.05507 0.52122 0.0
H3108 H 0.7873 0.30457 0.49458 0.0
H3109 H 0.81857 0.33042 0.48763 0.0
H3110 H 0.82719 0.33931 0.55809 0.0
H3111 H 0.79655 0.313 0.56507 0.0
H3112 H 0.82599 0.3734 0.49735 0.0
H3113 H 0.88988 0.32228 0.5403 0.0
H3114 H 0.86217 0.3118 0.53397 0.0
H3115 H 0.86675 0.32872 0.55826 0.0
C3116 C 0.7958 0.31216 0.50856 0.0
C3117 C 0.7896 0.30673 0.5304 0.0
C3118 C 0.81371 0.32687 0.50457 0.0
C3119 C 0.82566 0.33639 0.52234 0.0
C3120 C 0.81876 0.33166 0.54411 0.0
H3121 H 0.9079 0.45443 0.52415 0.0
H3122 H 0.8781 0.42657 0.52465 0.0
C3123 C 0.80109 0.31681 0.54808 0.0
C3124 C 0.84521 0.35141 0.51829 0.0
H3125 H 0.89988 0.36044 0.5333 0.0
C3126 C 0.84221 0.37044 0.50503 0.0
C3127 C 0.8666 0.34733 0.52783 0.0
C3128 C 0.87164 0.32629 0.54067 0.0
C3129 C 0.85967 0.38597 0.50187 0.0
C3130 C 0.88053 0.38272 0.51277 0.0
C3131 C 0.88382 0.36318 0.52522 0.0
C3132 C 0.89885 0.39968 0.51215 0.0
C3133 C 0.85556 0.4056 0.48672 0.0
C3134 C 0.92081 0.39375 0.50579 0.0
C3135 C 0.93812 0.40965 0.50586 0.0
C3136 C 0.93379 0.43183 0.51223 0.0
C3137 C 0.91183 0.43762 0.51879 0.0
C3138 C 0.89465 0.4217 0.51894 0.0
H3139 H 0.8425 0.40169 0.47412 0.0
H3140 H 0.84941 0.41993 0.49667 0.0
H3141 H 0.87118 0.41072 0.47801 0.0
H3142 H 0.92454 0.37682 0.50067 0.0
H3143 H 0.95481 0.4046 0.50069 0.0
H3144 H 0.19951 0.71647 0.54942 0.0
H3145 H 0.17483 0.68386 0.54955 0.0
H3146 H 0.20306 0.66246 0.48721 0.0
H3147 H 0.22766 0.69542 0.48688 0.0
H3148 H 0.15662 0.66614 0.48636 0.0
H3149 H 0.1832 0.61722 0.55973 0.0
H3150 H 0.17844 0.64614 0.5659 0.0
H3151 H 0.20079 0.6384 0.54732 0.0
C3152 C 0.20091 0.70445 0.53607 0.0
C3153 C 0.21552 0.70842 0.51816 0.0
C3154 C 0.18684 0.68578 0.53619 0.0
C3155 C 0.18716 0.67064 0.51845 0.0
C3156 C 0.20261 0.6739 0.50111 0.0
H3157 H 0.10634 0.55005 0.51294 0.0
H3158 H 0.1366 0.57735 0.51347 0.0
C3159 C 0.2168 0.69259 0.50103 0.0
C3160 C 0.16971 0.65294 0.51697 0.0
H3161 H 0.14667 0.60906 0.54511 0.0
C3162 C 0.15458 0.65351 0.49909 0.0
C3163 C 0.16708 0.63643 0.53354 0.0
C3164 C 0.18337 0.63432 0.5526 0.0
C3165 C 0.1366 0.63836 0.4976 0.0
C3166 C 0.13344 0.62243 0.51463 0.0
C3167 C 0.14891 0.62149 0.53222 0.0
C3168 C 0.11464 0.60609 0.51417 0.0
C3169 C 0.12127 0.6394 0.47769 0.0
C3170 C 0.0921 0.61316 0.51457 0.0
C3171 C 0.07455 0.59751 0.51423 0.0
C3172 C 0.07925 0.57449 0.51361 0.0
C3173 C 0.10192 0.56758 0.51339 0.0
C3174 C 0.11935 0.58319 0.51372 0.0
H3175 H 0.12914 0.6486 0.4637 0.0
H3176 H 0.11671 0.62239 0.47194 0.0
H3177 H 0.10555 0.64824 0.4823 0.0
H3178 H 0.08807 0.63077 0.51533 0.0
H3179 H 0.05737 0.60348 0.51454 0.0
loop_
_geom_bond_atom_site_label_1
_geom_bond_atom_site_label_2
_geom_bond_distance
_geom_bond_site_symmetry_2
_ccdc_geom_bond_type
H0 C5 0.928 1_655 S
H1 C8 0.929 1_655 S
H2 C10 0.930 . S
H3 C4 1.016 . S
C4 H3 1.016 . S
C4 N11 1.286 1_455 S
C5 H0 0.928 1_455 S
C5 C6 1.398 . S
C5 C7 1.360 1_455 S
C6 C5 1.398 . S
C6 C10 1.390 . S
C7 C5 1.360 1_655 S
C7 C8 1.390 1_655 S
C7 N11 1.420 . S
C8 H1 0.929 1_455 S
C8 C7 1.390 1_455 S
C8 C9 1.399 . S
C9 C8 1.399 . S
C9 C10 1.381 . S
C10 H2 0.930 . S
C10 C6 1.390 . S
C10 C9 1.381 . S
N11 C4 1.286 1_655 S
N11 C7 1.420 . S
H12 C17 0.930 . S
H13 C20 0.930 . S
H14 C22 0.938 . S
H15 C16 1.010 1_565 S
C16 H15 1.010 1_545 S
C16 N23 1.296 . S
C17 H12 0.930 . S
C17 C18 1.397 . S
C17 C19 1.361 . S
C18 C17 1.397 . S
C18 C22 1.386 1_545 S
C19 C17 1.361 . S
C19 C20 1.393 . S
C19 N23 1.413 . S
C20 H13 0.930 . S
C20 C19 1.393 . S
C20 C21 1.399 . S
C21 C20 1.399 . S
C21 C22 1.378 1_545 S
C22 H14 0.938 . S
C22 C18 1.386 1_565 S
C22 C21 1.378 1_565 S
N23 C16 1.296 . S
N23 C19 1.413 . S
H24 C29 0.929 1_655 S
H25 C32 0.932 . S
H26 C34 0.930 . S
H27 C28 1.016 . S
C28 H27 1.016 . S
C28 N35 1.286 1_455 S
C29 H24 0.929 1_455 S
C29 C30 1.397 . S
C29 C31 1.361 1_455 S
C30 C29 1.397 . S
C30 C34 1.390 . S
C31 C29 1.361 1_655 S
C31 C32 1.391 1_655 S
C31 N35 1.416 . S
C32 H25 0.932 . S
C32 C31 1.391 1_455 S
C32 C33 1.399 . S
C33 C32 1.399 . S
C33 C34 1.381 . S
C34 H26 0.930 . S
C34 C30 1.390 . S
C34 C33 1.381 . S
N35 C28 1.286 1_655 S
N35 C31 1.416 . S
H36 C41 0.930 . S
H37 C44 0.930 . S
H38 C46 0.930 . S
H39 C40 1.016 . S
C40 H39 1.016 . S
C40 N47 1.286 1_545 S
C41 H36 0.930 . S
C41 C42 1.397 1_565 S
C41 C43 1.361 . S
C42 C41 1.397 1_545 S
C42 C46 1.390 . S
C43 C41 1.361 . S
C43 C44 1.393 . S
C43 N47 1.413 . S
C44 H37 0.930 . S
C44 C43 1.393 . S
C44 C45 1.394 1_565 S
C45 C44 1.394 1_545 S
C45 C46 1.384 . S
C46 H38 0.930 . S
C46 C42 1.390 . S
C46 C45 1.384 . S
N47 C40 1.286 1_565 S
N47 C43 1.413 . S
H48 C53 0.932 . S
H49 C56 0.927 1_655 S
H50 C58 0.930 . S
H51 C52 1.016 . S
C52 H51 1.016 . S
C52 N59 1.286 1_455 S
C53 H48 0.932 . S
C53 C54 1.394 1_655 S
C53 C55 1.362 . S
C54 C53 1.394 1_455 S
C54 C58 1.390 . S
C55 C53 1.362 . S
C55 C56 1.392 1_655 S
C55 N59 1.413 . S
C56 H49 0.927 1_455 S
C56 C55 1.392 1_455 S
C56 C57 1.402 . S
C57 C56 1.402 . S
C57 C58 1.381 . S
C58 H50 0.930 . S
C58 C54 1.390 . S
C58 C57 1.381 . S
N59 C52 1.286 1_655 S
N59 C55 1.413 . S
H60 C65 0.930 . S
H61 C68 0.930 . S
H62 C70 0.930 . S
H63 C64 1.025 . S
C64 H63 1.025 . S
C64 N71 1.273 1_565 S
C65 H60 0.930 . S
C65 C66 1.397 . S
C65 C67 1.361 . S
C66 C65 1.397 . S
C66 C70 1.390 1_545 S
C67 C65 1.361 . S
C67 C68 1.393 . S
C67 N71 1.413 . S
C68 H61 0.930 . S
C68 C67 1.393 . S
C68 C69 1.404 . S
C69 C68 1.404 . S
C69 C70 1.378 1_545 S
C70 H62 0.930 . S
C70 C66 1.390 1_565 S
C70 C69 1.378 1_565 S
N71 C64 1.273 1_545 S
N71 C67 1.413 . S
H72 C77 0.933 . S
H73 C80 0.928 1_655 S
H74 C82 0.930 . S
H75 C76 1.016 . S
C76 H75 1.016 . S
C76 N83 1.286 1_455 S
C77 H72 0.933 . S
C77 C78 1.393 1_655 S
C77 C79 1.362 . S
C78 C77 1.393 1_455 S
C78 C82 1.390 . S
C79 C77 1.362 . S
C79 C80 1.390 1_655 S
C79 N83 1.413 . S
C80 H73 0.928 1_455 S
C80 C79 1.390 1_455 S
C80 C81 1.406 . S
C81 C80 1.406 . S
C81 C82 1.381 . S
C82 H74 0.930 . S
C82 C78 1.390 . S
C82 C81 1.381 . S
N83 C76 1.286 1_655 S
N83 C79 1.413 . S
H84 C89 0.930 . S
H85 C92 0.930 . S
H86 C94 0.930 . S
H87 C88 1.025 . S
C88 H87 1.025 . S
C88 N95 1.273 1_565 S
C89 H84 0.930 . S
C89 C90 1.397 . S
C89 C91 1.361 . S
C90 C89 1.397 . S
C90 C94 1.390 1_545 S
C91 C89 1.361 . S
C91 C92 1.393 . S
C91 N95 1.413 . S
C92 H85 0.930 . S
C92 C91 1.393 . S
C92 C93 1.404 . S
C93 C92 1.404 . S
C93 C94 1.378 1_545 S
C94 H86 0.930 . S
C94 C90 1.390 1_565 S
C94 C93 1.378 1_565 S
N95 C88 1.273 1_545 S
N95 C91 1.413 . S
H96 C101 0.930 . S
H97 C104 0.930 . S
H98 C106 0.930 . S
H99 C100 1.016 . S
C100 H99 1.016 . S
C100 N107 1.286 . S
C101 H96 0.930 . S
C101 C102 1.397 . S
C101 C103 1.361 . S
C102 C101 1.397 . S
C102 C106 1.390 . S
C103 C101 1.361 . S
C103 C104 1.393 . S
C103 N107 1.413 . S
C104 H97 0.930 . S
C104 C103 1.393 . S
C104 C105 1.399 . S
C105 C104 1.399 . S
C105 C106 1.381 . S
C106 H98 0.930 . S
C106 C102 1.390 . S
C106 C105 1.381 . S
N107 C100 1.286 . S
N107 C103 1.413 . S
H108 C113 0.930 . S
H109 C116 0.930 . S
H110 C118 0.930 . S
H111 C112 1.016 . S
C112 H111 1.016 . S
C112 N119 1.285 . S
C113 H108 0.930 . S
C113 C114 1.397 . S
C113 C115 1.361 . S
C114 C113 1.397 . S
C114 C118 1.390 . S
C115 C113 1.361 . S
C115 C116 1.393 . S
C115 N119 1.412 . S
C116 H109 0.930 . S
C116 C115 1.393 . S
C116 C117 1.399 . S
C117 C116 1.399 . S
C117 C118 1.381 . S
C118 H110 0.930 . S
C118 C114 1.390 . S
C118 C117 1.381 . S
N119 C112 1.285 . S
N119 C115 1.412 . S
H120 C125 0.930 . S
H121 C128 0.930 . S
H122 C130 0.930 . S
H123 C124 1.016 . S
C124 H123 1.016 . S
C124 N131 1.286 . S
C125 H120 0.930 . S
C125 C126 1.397 . S
C125 C127 1.361 . S
C126 C125 1.397 . S
C126 C130 1.390 . S
C127 C125 1.361 . S
C127 C128 1.393 . S
C127 N131 1.413 . S
C128 H121 0.930 . S
C128 C127 1.393 . S
C128 C129 1.399 . S
C129 C128 1.399 . S
C129 C130 1.381 . S
C130 H122 0.930 . S
C130 C126 1.390 . S
C130 C129 1.381 . S
N131 C124 1.286 . S
N131 C127 1.413 . S
H132 C137 0.930 . S
H133 C140 0.930 . S
H134 C142 0.930 . S
H135 C136 1.016 . S
C136 H135 1.016 . S
C136 N143 1.286 . S
C137 H132 0.930 . S
C137 C138 1.397 . S
C137 C139 1.361 . S
C138 C137 1.397 . S
C138 C142 1.390 . S
C139 C137 1.361 . S
C139 C140 1.393 . S
C139 N143 1.413 . S
C140 H133 0.930 . S
C140 C139 1.393 . S
C140 C141 1.399 . S
C141 C140 1.399 . S
C141 C142 1.381 . S
C142 H134 0.930 . S
C142 C138 1.390 . S
C142 C141 1.381 . S
N143 C136 1.286 . S
N143 C139 1.413 . S
H144 C149 0.930 . S
H145 C152 0.930 . S
H146 C154 0.930 . S
H147 C148 1.016 . S
C148 H147 1.016 . S
C148 N155 1.286 . S
C149 H144 0.930 . S
C149 C150 1.397 . S
C149 C151 1.361 . S
C150 C149 1.397 . S
C150 C154 1.390 . S
C151 C149 1.361 . S
C151 C152 1.393 . S
C151 N155 1.413 . S
C152 H145 0.930 . S
C152 C151 1.393 . S
C152 C153 1.399 . S
C153 C152 1.399 . S
C153 C154 1.381 . S
C154 H146 0.930 . S
C154 C150 1.390 . S
C154 C153 1.381 . S
N155 C148 1.286 . S
N155 C151 1.413 . S
H156 C161 0.930 . S
H157 C164 0.930 . S
H158 C166 0.930 . S
H159 C160 1.016 . S
C160 H159 1.016 . S
C160 N167 1.286 . S
C161 H156 0.930 . S
C161 C162 1.397 . S
C161 C163 1.361 . S
C162 C161 1.397 . S
C162 C166 1.390 . S
C163 C161 1.361 . S
C163 C164 1.393 . S
C163 N167 1.413 . S
C164 H157 0.930 . S
C164 C163 1.393 . S
C164 C165 1.399 . S
C165 C164 1.399 . S
C165 C166 1.381 . S
C166 H158 0.930 . S
C166 C162 1.390 . S
C166 C165 1.381 . S
N167 C160 1.286 . S
N167 C163 1.413 . S
H168 C173 0.930 . S
H169 C176 0.930 . S
H170 C178 0.930 . S
H171 C172 1.016 . S
C172 H171 1.016 . S
C172 N179 1.286 . S
C173 H168 0.930 . S
C173 C174 1.397 . S
C173 C175 1.361 . S
C174 C173 1.397 . S
C174 C178 1.390 . S
C175 C173 1.361 . S
C175 C176 1.393 . S
C175 N179 1.413 . S
C176 H169 0.930 . S
C176 C175 1.393 . S
C176 C177 1.399 . S
C177 C176 1.399 . S
C177 C178 1.381 . S
C178 H170 0.930 . S
C178 C174 1.390 . S
C178 C177 1.381 . S
N179 C172 1.286 . S
N179 C175 1.413 . S
H180 C185 0.930 . S
H181 C188 0.930 . S
H182 C190 0.930 . S
H183 C184 1.016 . S
C184 H183 1.016 . S
C184 N191 1.286 . S
C185 H180 0.930 . S
C185 C186 1.397 . S
C185 C187 1.361 . S
C186 C185 1.397 . S
C186 C190 1.390 . S
C187 C185 1.361 . S
C187 C188 1.393 . S
C187 N191 1.413 . S
C188 H181 0.930 . S
C188 C187 1.393 . S
C188 C189 1.399 . S
C189 C188 1.399 . S
C189 C190 1.381 . S
C190 H182 0.930 . S
C190 C186 1.390 . S
C190 C189 1.381 . S
N191 C184 1.286 . S
N191 C187 1.413 . S
H192 C197 0.930 . S
H193 C200 0.930 . S
H194 C202 0.930 . S
H195 C196 1.016 . S
C196 H195 1.016 . S
C196 N203 1.286 . S
C197 H192 0.930 . S
C197 C198 1.397 . S
C197 C199 1.361 . S
C198 C197 1.397 . S
C198 C202 1.390 . S
C199 C197 1.361 . S
C199 C200 1.393 . S
C199 N203 1.413 . S
C200 H193 0.930 . S
C200 C199 1.393 . S
C200 C201 1.399 . S
C201 C200 1.399 . S
C201 C202 1.381 . S
C202 H194 0.930 . S
C202 C198 1.390 . S
C202 C201 1.381 . S
N203 C196 1.286 . S
N203 C199 1.413 . S
H204 C209 0.930 . S
H205 C212 0.930 . S
H206 C214 0.930 . S
H207 C208 1.016 . S
C208 H207 1.016 . S
C208 N215 1.286 . S
C209 H204 0.930 . S
C209 C210 1.397 . S
C209 C211 1.361 . S
C210 C209 1.397 . S
C210 C214 1.390 . S
C211 C209 1.361 . S
C211 C212 1.393 . S
C211 N215 1.413 . S
C212 H205 0.930 . S
C212 C211 1.393 . S
C212 C213 1.399 . S
C213 C212 1.399 . S
C213 C214 1.381 . S
C214 H206 0.930 . S
C214 C210 1.390 . S
C214 C213 1.381 . S
N215 C208 1.286 . S
N215 C211 1.413 . S
H216 C221 0.930 . S
H217 C224 0.930 . S
H218 C226 0.930 . S
H219 C220 1.016 . S
C220 H219 1.016 . S
C220 N227 1.286 . S
C221 H216 0.930 . S
C221 C222 1.397 . S
C221 C223 1.361 . S
C222 C221 1.397 . S
C222 C226 1.390 . S
C223 C221 1.361 . S
C223 C224 1.393 . S
C223 N227 1.413 . S
C224 H217 0.930 . S
C224 C223 1.393 . S
C224 C225 1.399 . S
C225 C224 1.399 . S
C225 C226 1.381 . S
C226 H218 0.930 . S
C226 C222 1.390 . S
C226 C225 1.381 . S
N227 C220 1.286 . S
N227 C223 1.413 . S
H228 C233 0.930 . S
H229 C236 0.930 . S
H230 C238 0.930 . S
H231 C232 1.016 . S
C232 H231 1.016 . S
C232 N239 1.286 . S
C233 H228 0.930 . S
C233 C234 1.397 . S
C233 C235 1.361 . S
C234 C233 1.397 . S
C234 C238 1.390 . S
C235 C233 1.361 . S
C235 C236 1.393 . S
C235 N239 1.413 . S
C236 H229 0.930 . S
C236 C235 1.393 . S
C236 C237 1.399 . S
C237 C236 1.399 . S
C237 C238 1.381 . S
C238 H230 0.930 . S
C238 C234 1.390 . S
C238 C237 1.381 . S
N239 C232 1.286 . S
N239 C235 1.413 . S
H240 C245 0.930 . S
H241 C248 0.930 . S
H242 C250 0.930 . S
H243 C244 1.016 . S
C244 H243 1.016 . S
C244 N251 1.286 . S
C245 H240 0.930 . S
C245 C246 1.397 . S
C245 C247 1.361 . S
C246 C245 1.397 . S
C246 C250 1.390 . S
C247 C245 1.361 . S
C247 C248 1.393 . S
C247 N251 1.413 . S
C248 H241 0.930 . S
C248 C247 1.393 . S
C248 C249 1.399 . S
C249 C248 1.399 . S
C249 C250 1.381 . S
C250 H242 0.930 . S
C250 C246 1.390 . S
C250 C249 1.381 . S
N251 C244 1.286 . S
N251 C247 1.413 . S
H252 C257 0.930 . S
H253 C260 0.930 . S
H254 C262 0.930 . S
H255 C256 1.016 . S
C256 H255 1.016 . S
C256 N263 1.286 . S
C257 H252 0.930 . S
C257 C258 1.397 . S
C257 C259 1.361 . S
C258 C257 1.397 . S
C258 C262 1.390 . S
C259 C257 1.361 . S
C259 C260 1.393 . S
C259 N263 1.413 . S
C260 H253 0.930 . S
C260 C259 1.393 . S
C260 C261 1.399 . S
C261 C260 1.399 . S
C261 C262 1.381 . S
C262 H254 0.930 . S
C262 C258 1.390 . S
C262 C261 1.381 . S
N263 C256 1.286 . S
N263 C259 1.413 . S
H264 C269 0.930 . S
H265 C272 0.930 . S
H266 C274 0.930 . S
H267 C268 1.016 . S
C268 H267 1.016 . S
C268 N275 1.286 . S
C269 H264 0.930 . S
C269 C270 1.397 . S
C269 C271 1.361 . S
C270 C269 1.397 . S
C270 C274 1.390 . S
C271 C269 1.361 . S
C271 C272 1.393 . S
C271 N275 1.413 . S
C272 H265 0.930 . S
C272 C271 1.393 . S
C272 C273 1.399 . S
C273 C272 1.399 . S
C273 C274 1.381 . S
C274 H266 0.930 . S
C274 C270 1.390 . S
C274 C273 1.381 . S
N275 C268 1.286 . S
N275 C271 1.413 . S
H276 C281 0.930 . S
H277 C284 0.930 . S
H278 C286 0.930 . S
H279 C280 1.016 . S
C280 H279 1.016 . S
C280 N287 1.286 . S
C281 H276 0.930 . S
C281 C282 1.397 . S
C281 C283 1.361 . S
C282 C281 1.397 . S
C282 C286 1.390 . S
C283 C281 1.361 . S
C283 C284 1.393 . S
C283 N287 1.413 . S
C284 H277 0.930 . S
C284 C283 1.393 . S
C284 C285 1.399 . S
C285 C284 1.399 . S
C285 C286 1.381 . S
C286 H278 0.930 . S
C286 C282 1.390 . S
C286 C285 1.381 . S
N287 C280 1.286 . S
N287 C283 1.413 . S
C288 O314 1.283 . S
C288 O332 1.283 . S
C289 O315 1.283 . S
C289 O330 1.283 . S
C290 O316 1.283 . S
C290 O333 1.283 . S
C291 O317 1.283 . S
C291 O331 1.283 . S
C292 O318 1.283 . S
C292 O327 1.283 . S
C293 O319 1.283 . S
C293 O329 1.283 . S
C294 O320 1.283 . S
C294 O326 1.283 . S
C295 O321 1.283 . S
C295 O328 1.283 . S
C296 O322 1.283 . S
C296 O337 1.283 . S
C297 O323 1.283 . S
C297 O335 1.283 . S
C298 O324 1.283 . S
C298 O336 1.283 . S
C299 O325 1.283 . S
C299 O334 1.283 . S
Eu300 O301 2.370 1_455 S
Eu300 O302 2.370 . S
Eu300 O305 2.370 1_455 S
Eu300 O306 2.370 . S
Eu300 O314 2.363 . S
Eu300 O315 2.363 . S
Eu300 O328 2.363 . S
Eu300 O329 2.363 1_455 S
O301 Eu300 2.370 1_655 S
O301 Eu303 2.355 1_565 S
O301 Eu308 2.353 1_665 S
O302 Eu300 2.370 . S
O302 Eu304 2.355 1_565 S
O302 Eu307 2.357 1_565 S
Eu303 O301 2.355 1_545 S
Eu303 O305 2.355 1_545 S
Eu303 O309 2.385 . S
Eu303 O310 2.385 . S
Eu303 O318 2.388 . S
Eu303 O319 2.338 1_545 S
Eu303 O334 2.363 . S
Eu303 O335 2.363 . S
Eu304 O302 2.355 1_545 S
Eu304 O306 2.355 1_545 S
Eu304 O311 2.385 . S
Eu304 O312 2.385 . S
Eu304 O320 2.388 . S
Eu304 O321 2.338 1_545 S
Eu304 O336 2.363 . S
Eu304 O337 2.363 . S
O305 Eu300 2.370 1_655 S
O305 Eu303 2.355 1_565 S
O305 Eu307 2.357 1_665 S
O306 Eu300 2.370 . S
O306 Eu304 2.355 1_565 S
O306 Eu308 2.353 1_565 S
Eu307 O302 2.357 1_545 S
Eu307 O305 2.357 1_445 S
Eu307 O309 2.383 1_455 S
Eu307 O312 2.383 . S
Eu307 O324 2.363 . S
Eu307 O325 2.363 1_455 S
Eu307 O332 2.341 1_545 S
Eu307 O333 2.385 . S
Eu308 O301 2.353 1_445 S
Eu308 O306 2.353 1_545 S
Eu308 O310 2.387 1_455 S
Eu308 O311 2.387 . S
Eu308 O322 2.363 . S
Eu308 O323 2.363 1_455 S
Eu308 O330 2.335 1_545 S
Eu308 O331 2.391 . S
O309 Eu303 2.385 . S
O309 Eu307 2.383 1_655 S
O309 Eu313 2.370 1_655 S
O310 Eu303 2.385 . S
O310 Eu308 2.387 1_655 S
O310 Eu313 2.370 1_655 S
O311 Eu304 2.385 . S
O311 Eu308 2.387 . S
O311 Eu313 2.370 . S
O312 Eu304 2.385 . S
O312 Eu307 2.383 . S
O312 Eu313 2.370 . S
Eu313 O309 2.370 1_455 S
Eu313 O310 2.370 1_455 S
Eu313 O311 2.370 . S
Eu313 O312 2.370 . S
Eu313 O316 2.363 . S
Eu313 O317 2.363 . S
Eu313 O326 2.363 . S
Eu313 O327 2.363 1_455 S
O314 C288 1.283 . S
O314 Eu300 2.363 . S
O315 C289 1.283 . S
O315 Eu300 2.363 . S
O316 C290 1.283 . S
O316 Eu313 2.363 . S
O317 C291 1.283 . S
O317 Eu313 2.363 . S
O318 C292 1.283 . S
O318 Eu303 2.388 . S
O319 C293 1.283 . S
O319 Eu303 2.338 1_565 S
O320 C294 1.283 . S
O320 Eu304 2.388 . S
O321 C295 1.283 . S
O321 Eu304 2.338 1_565 S
O322 C296 1.283 . S
O322 Eu308 2.363 . S
O323 C297 1.283 . S
O323 Eu308 2.363 1_655 S
O324 C298 1.283 . S
O324 Eu307 2.363 . S
O325 C299 1.283 . S
O325 Eu307 2.363 1_655 S
O326 C294 1.283 . S
O326 Eu313 2.363 . S
O327 C292 1.283 . S
O327 Eu313 2.363 1_655 S
O328 C295 1.283 . S
O328 Eu300 2.363 . S
O329 C293 1.283 . S
O329 Eu300 2.363 1_655 S
O330 C289 1.283 . S
O330 Eu308 2.335 1_565 S
O331 C291 1.283 . S
O331 Eu308 2.391 . S
O332 C288 1.283 . S
O332 Eu307 2.341 1_565 S
O333 C290 1.283 . S
O333 Eu307 2.385 . S
O334 C299 1.283 . S
O334 Eu303 2.363 . S
O335 C297 1.283 . S
O335 Eu303 2.363 . S
O336 C298 1.283 . S
O336 Eu304 2.363 . S
O337 C296 1.283 . S
O337 Eu304 2.363 . S
C338 O364 1.283 . S
C338 O382 1.283 . S
C339 O365 1.283 . S
C339 O380 1.283 . S
C340 O366 1.283 . S
C340 O383 1.283 . S
C341 O367 1.283 . S
C341 O381 1.283 . S
C342 O368 1.283 . S
C342 O377 1.283 . S
C343 O369 1.283 . S
C343 O379 1.283 . S
C344 O370 1.283 . S
C344 O376 1.283 . S
C345 O371 1.283 . S
C345 O378 1.283 . S
C346 O372 1.283 . S
C346 O387 1.283 . S
C347 O373 1.283 . S
C347 O385 1.283 . S
C348 O374 1.283 . S
C348 O386 1.283 . S
C349 O375 1.283 . S
C349 O384 1.283 . S
Eu350 O351 2.391 . S
Eu350 O352 2.350 1_545 S
Eu350 O355 2.350 1_545 S
Eu350 O356 2.391 . S
Eu350 O364 2.328 1_545 S
Eu350 O365 2.398 . S
Eu350 O378 2.363 . S
Eu350 O379 2.363 . S
O351 Eu350 2.391 . S
O351 Eu353 2.385 . S
O351 Eu358 2.370 . S
O352 Eu350 2.350 1_565 S
O352 Eu354 2.355 1_565 S
O352 Eu357 2.370 . S
Eu353 O351 2.385 . S
Eu353 O355 2.355 1_545 S
Eu353 O359 2.355 1_544 S
Eu353 O360 2.385 1_554 S
Eu353 O368 2.363 1_554 S
Eu353 O369 2.363 . S
Eu353 O384 2.338 1_545 S
Eu353 O385 2.388 . S
Eu354 O352 2.355 1_545 S
Eu354 O356 2.385 . S
Eu354 O361 2.385 1_554 S
Eu354 O362 2.355 1_544 S
Eu354 O370 2.363 1_554 S
Eu354 O371 2.363 . S
Eu354 O386 2.338 1_545 S
Eu354 O387 2.388 . S
O355 Eu350 2.350 1_565 S
O355 Eu353 2.355 1_565 S
O355 Eu357 2.370 . S
O356 Eu350 2.391 . S
O356 Eu354 2.385 . S
O356 Eu358 2.370 . S
Eu357 O352 2.370 . S
Eu357 O355 2.370 . S
Eu357 O359 2.370 1_554 S
Eu357 O362 2.370 1_554 S
Eu357 O374 2.363 . S
Eu357 O375 2.363 . S
Eu357 O382 2.363 . S
Eu357 O383 2.363 1_554 S
Eu358 O351 2.370 . S
Eu358 O356 2.370 . S
Eu358 O360 2.370 1_554 S
Eu358 O361 2.370 1_554 S
Eu358 O372 2.363 . S
Eu358 O373 2.363 . S
Eu358 O380 2.363 . S
Eu358 O381 2.363 1_554 S
O359 Eu353 2.355 1_566 S
O359 Eu357 2.370 1_556 S
O359 Eu363 2.361 1_565 S
O360 Eu353 2.385 1_556 S
O360 Eu358 2.370 1_556 S
O360 Eu363 2.379 . S
O361 Eu354 2.385 1_556 S
O361 Eu358 2.370 1_556 S
O361 Eu363 2.379 . S
O362 Eu354 2.355 1_566 S
O362 Eu357 2.370 1_556 S
O362 Eu363 2.361 1_565 S
Eu363 O359 2.361 1_545 S
Eu363 O360 2.379 . S
Eu363 O361 2.379 . S
Eu363 O362 2.361 1_545 S
Eu363 O366 2.347 1_545 S
Eu363 O367 2.379 . S
Eu363 O376 2.363 . S
Eu363 O377 2.363 . S
O364 C338 1.283 . S
O364 Eu350 2.328 1_565 S
O365 C339 1.283 . S
O365 Eu350 2.398 . S
O366 C340 1.283 . S
O366 Eu363 2.347 1_565 S
O367 C341 1.283 . S
O367 Eu363 2.379 . S
O368 C342 1.283 . S
O368 Eu353 2.363 1_556 S
O369 C343 1.283 . S
O369 Eu353 2.363 . S
O370 C344 1.283 . S
O370 Eu354 2.363 1_556 S
O371 C345 1.283 . S
O371 Eu354 2.363 . S
O372 C346 1.283 . S
O372 Eu358 2.363 . S
O373 C347 1.283 . S
O373 Eu358 2.363 . S
O374 C348 1.283 . S
O374 Eu357 2.363 . S
O375 C349 1.283 . S
O375 Eu357 2.363 . S
O376 C344 1.283 . S
O376 Eu363 2.363 . S
O377 C342 1.283 . S
O377 Eu363 2.363 . S
O378 C345 1.283 . S
O378 Eu350 2.363 . S
O379 C343 1.283 . S
O379 Eu350 2.363 . S
O380 C339 1.283 . S
O380 Eu358 2.363 . S
O381 C341 1.283 . S
O381 Eu358 2.363 1_556 S
O382 C338 1.283 . S
O382 Eu357 2.363 . S
O383 C340 1.283 . S
O383 Eu357 2.363 1_556 S
O384 C349 1.283 . S
O384 Eu353 2.338 1_565 S
O385 C347 1.283 . S
O385 Eu353 2.388 . S
O386 C348 1.283 . S
O386 Eu354 2.338 1_565 S
O387 C346 1.283 . S
O387 Eu354 2.388 . S
C388 O414 1.283 . S
C388 O432 1.283 . S
C389 O415 1.283 . S
C389 O430 1.283 . S
C390 O416 1.283 . S
C390 O433 1.283 . S
C391 O417 1.283 . S
C391 O431 1.283 . S
C392 O418 1.283 . S
C392 O427 1.283 . S
C393 O419 1.283 . S
C393 O429 1.283 . S
C394 O420 1.283 . S
C394 O426 1.283 . S
C395 O421 1.283 . S
C395 O428 1.283 . S
C396 O422 1.283 . S
C396 O437 1.283 . S
C397 O423 1.283 . S
C397 O435 1.283 . S
C398 O424 1.283 . S
C398 O436 1.283 . S
C399 O425 1.283 . S
C399 O434 1.283 . S
Eu400 O401 2.370 1_454 S
Eu400 O402 2.370 . S
Eu400 O405 2.370 1_455 S
Eu400 O406 2.370 1_554 S
Eu400 O414 2.363 . S
Eu400 O415 2.363 1_554 S
Eu400 O428 2.363 . S
Eu400 O429 2.363 1_455 S
O401 Eu400 2.370 1_656 S
O401 Eu403 2.370 1_556 S
O401 Eu408 2.370 1_655 S
O402 Eu400 2.370 . S
O402 Eu404 2.370 . S
O402 Eu407 2.370 . S
Eu403 O401 2.370 1_554 S
Eu403 O405 2.370 . S
Eu403 O409 2.370 . S
Eu403 O410 2.370 1_554 S
Eu403 O418 2.363 . S
Eu403 O419 2.363 . S
Eu403 O434 2.363 . S
Eu403 O435 2.363 1_554 S
Eu404 O402 2.370 . S
Eu404 O406 2.370 1_554 S
Eu404 O411 2.370 1_554 S
Eu404 O412 2.370 . S
Eu404 O420 2.363 . S
Eu404 O421 2.363 . S
Eu404 O436 2.363 . S
Eu404 O437 2.363 1_554 S
O405 Eu400 2.370 1_655 S
O405 Eu403 2.370 . S
O405 Eu407 2.370 1_655 S
O406 Eu400 2.370 1_556 S
O406 Eu404 2.370 1_556 S
O406 Eu408 2.370 . S
Eu407 O402 2.370 . S
Eu407 O405 2.370 1_455 S
Eu407 O409 2.370 1_455 S
Eu407 O412 2.370 . S
Eu407 O424 2.363 . S
Eu407 O425 2.363 1_455 S
Eu407 O432 2.363 . S
Eu407 O433 2.363 . S
Eu408 O401 2.370 1_455 S
Eu408 O406 2.370 . S
Eu408 O410 2.370 1_455 S
Eu408 O411 2.370 . S
Eu408 O422 2.363 . S
Eu408 O423 2.363 1_455 S
Eu408 O430 2.363 . S
Eu408 O431 2.363 . S
O409 Eu403 2.370 . S
O409 Eu407 2.370 1_655 S
O409 Eu413 2.370 1_655 S
O410 Eu403 2.370 1_556 S
O410 Eu408 2.370 1_655 S
O410 Eu413 2.370 1_656 S
O411 Eu404 2.370 1_556 S
O411 Eu408 2.370 . S
O411 Eu413 2.370 1_556 S
O412 Eu404 2.370 . S
O412 Eu407 2.370 . S
O412 Eu413 2.370 . S
Eu413 O409 2.370 1_455 S
Eu413 O410 2.370 1_454 S
Eu413 O411 2.370 1_554 S
Eu413 O412 2.370 . S
Eu413 O416 2.363 . S
Eu413 O417 2.363 1_554 S
Eu413 O426 2.363 . S
Eu413 O427 2.363 1_455 S
O414 C388 1.283 . S
O414 Eu400 2.363 . S
O415 C389 1.283 . S
O415 Eu400 2.363 1_556 S
O416 C390 1.283 . S
O416 Eu413 2.363 . S
O417 C391 1.283 . S
O417 Eu413 2.363 1_556 S
O418 C392 1.283 . S
O418 Eu403 2.363 . S
O419 C393 1.283 . S
O419 Eu403 2.363 . S
O420 C394 1.283 . S
O420 Eu404 2.363 . S
O421 C395 1.283 . S
O421 Eu404 2.363 . S
O422 C396 1.283 . S
O422 Eu408 2.363 . S
O423 C397 1.283 . S
O423 Eu408 2.363 1_655 S
O424 C398 1.283 . S
O424 Eu407 2.363 . S
O425 C399 1.283 . S
O425 Eu407 2.363 1_655 S
O426 C394 1.283 . S
O426 Eu413 2.363 . S
O427 C392 1.283 . S
O427 Eu413 2.363 1_655 S
O428 C395 1.283 . S
O428 Eu400 2.363 . S
O429 C393 1.283 . S
O429 Eu400 2.363 1_655 S
O430 C389 1.283 . S
O430 Eu408 2.363 . S
O431 C391 1.283 . S
O431 Eu408 2.363 . S
O432 C388 1.283 . S
O432 Eu407 2.363 . S
O433 C390 1.283 . S
O433 Eu407 2.363 . S
O434 C399 1.283 . S
O434 Eu403 2.363 . S
O435 C397 1.283 . S
O435 Eu403 2.363 1_556 S
O436 C398 1.283 . S
O436 Eu404 2.363 . S
O437 C396 1.283 . S
O437 Eu404 2.363 1_556 S
C438 O464 1.283 . S
C438 O482 1.283 . S
C439 O465 1.283 . S
C439 O480 1.283 . S
C440 O466 1.283 . S
C440 O483 1.283 . S
C441 O467 1.283 . S
C441 O481 1.283 . S
C442 O468 1.283 . S
C442 O477 1.283 . S
C443 O469 1.283 . S
C443 O479 1.283 . S
C444 O470 1.283 . S
C444 O476 1.283 . S
C445 O471 1.283 . S
C445 O478 1.283 . S
C446 O472 1.283 . S
C446 O487 1.283 . S
C447 O473 1.283 . S
C447 O485 1.283 . S
C448 O474 1.283 . S
C448 O486 1.283 . S
C449 O475 1.283 . S
C449 O484 1.283 . S
Eu450 O451 2.370 . S
Eu450 O452 2.370 . S
Eu450 O455 2.370 . S
Eu450 O456 2.370 . S
Eu450 O464 2.363 . S
Eu450 O465 2.363 . S
Eu450 O478 2.363 . S
Eu450 O479 2.363 . S
O451 Eu450 2.370 . S
O451 Eu453 2.370 . S
O451 Eu458 2.370 . S
O452 Eu450 2.370 . S
O452 Eu454 2.370 . S
O452 Eu457 2.370 . S
Eu453 O451 2.370 . S
Eu453 O455 2.370 . S
Eu453 O459 2.370 1_554 S
Eu453 O460 2.370 1_554 S
Eu453 O468 2.363 1_554 S
Eu453 O469 2.363 . S
Eu453 O484 2.363 . S
Eu453 O485 2.363 . S
Eu454 O452 2.370 . S
Eu454 O456 2.370 . S
Eu454 O461 2.370 1_554 S
Eu454 O462 2.370 1_554 S
Eu454 O470 2.363 1_554 S
Eu454 O471 2.363 . S
Eu454 O486 2.363 . S
Eu454 O487 2.363 . S
O455 Eu450 2.370 . S
O455 Eu453 2.370 . S
O455 Eu457 2.370 . S
O456 Eu450 2.370 . S
O456 Eu454 2.370 . S
O456 Eu458 2.370 . S
Eu457 O452 2.370 . S
Eu457 O455 2.370 . S
Eu457 O459 2.370 1_554 S
Eu457 O462 2.370 1_554 S
Eu457 O474 2.363 . S
Eu457 O475 2.363 . S
Eu457 O482 2.363 . S
Eu457 O483 2.363 1_554 S
Eu458 O451 2.370 . S
Eu458 O456 2.370 . S
Eu458 O460 2.370 1_554 S
Eu458 O461 2.370 1_554 S
Eu458 O472 2.363 . S
Eu458 O473 2.363 . S
Eu458 O480 2.363 . S
Eu458 O481 2.363 1_554 S
O459 Eu453 2.370 1_556 S
O459 Eu457 2.370 1_556 S
O459 Eu463 2.370 . S
O460 Eu453 2.370 1_556 S
O460 Eu458 2.370 1_556 S
O460 Eu463 2.370 . S
O461 Eu454 2.370 1_556 S
O461 Eu458 2.370 1_556 S
O461 Eu463 2.370 . S
O462 Eu454 2.370 1_556 S
O462 Eu457 2.370 1_556 S
O462 Eu463 2.370 . S
Eu463 O459 2.370 . S
Eu463 O460 2.370 . S
Eu463 O461 2.370 . S
Eu463 O462 2.370 . S
Eu463 O466 2.363 . S
Eu463 O467 2.363 . S
Eu463 O476 2.363 . S
Eu463 O477 2.363 . S
O464 C438 1.283 . S
O464 Eu450 2.363 . S
O465 C439 1.283 . S
O465 Eu450 2.363 . S
O466 C440 1.283 . S
O466 Eu463 2.363 . S
O467 C441 1.283 . S
O467 Eu463 2.363 . S
O468 C442 1.283 . S
O468 Eu453 2.363 1_556 S
O469 C443 1.283 . S
O469 Eu453 2.363 . S
O470 C444 1.283 . S
O470 Eu454 2.363 1_556 S
O471 C445 1.283 . S
O471 Eu454 2.363 . S
O472 C446 1.283 . S
O472 Eu458 2.363 . S
O473 C447 1.283 . S
O473 Eu458 2.363 . S
O474 C448 1.283 . S
O474 Eu457 2.363 . S
O475 C449 1.283 . S
O475 Eu457 2.363 . S
O476 C444 1.283 . S
O476 Eu463 2.363 . S
O477 C442 1.283 . S
O477 Eu463 2.363 . S
O478 C445 1.283 . S
O478 Eu450 2.363 . S
O479 C443 1.283 . S
O479 Eu450 2.363 . S
O480 C439 1.283 . S
O480 Eu458 2.363 . S
O481 C441 1.283 . S
O481 Eu458 2.363 1_556 S
O482 C438 1.283 . S
O482 Eu457 2.363 . S
O483 C440 1.283 . S
O483 Eu457 2.363 1_556 S
O484 C449 1.283 . S
O484 Eu453 2.363 . S
O485 C447 1.283 . S
O485 Eu453 2.363 . S
O486 C448 1.283 . S
O486 Eu454 2.363 . S
O487 C446 1.283 . S
O487 Eu454 2.363 . S
C488 O514 1.283 . S
C488 O532 1.283 . S
C489 O515 1.283 . S
C489 O530 1.283 . S
C490 O516 1.283 . S
C490 O533 1.283 . S
C491 O517 1.283 . S
C491 O531 1.283 . S
C492 O518 1.283 . S
C492 O527 1.283 . S
C493 O519 1.283 . S
C493 O529 1.283 . S
C494 O520 1.283 . S
C494 O526 1.283 . S
C495 O521 1.283 . S
C495 O528 1.283 . S
C496 O522 1.283 . S
C496 O537 1.283 . S
C497 O523 1.283 . S
C497 O535 1.283 . S
C498 O524 1.283 . S
C498 O536 1.283 . S
C499 O525 1.283 . S
C499 O534 1.283 . S
Eu500 O501 2.370 1_455 S
Eu500 O502 2.370 . S
Eu500 O505 2.370 1_455 S
Eu500 O506 2.370 . S
Eu500 O514 2.363 . S
Eu500 O515 2.363 . S
Eu500 O528 2.363 . S
Eu500 O529 2.363 1_455 S
O501 Eu500 2.370 1_655 S
O501 Eu503 2.370 . S
O501 Eu508 2.370 1_655 S
O502 Eu500 2.370 . S
O502 Eu504 2.370 . S
O502 Eu507 2.370 . S
Eu503 O501 2.370 . S
Eu503 O505 2.370 . S
Eu503 O509 2.370 . S
Eu503 O510 2.370 . S
Eu503 O518 2.363 . S
Eu503 O519 2.363 . S
Eu503 O534 2.363 . S
Eu503 O535 2.363 . S
Eu504 O502 2.370 . S
Eu504 O506 2.370 . S
Eu504 O511 2.370 . S
Eu504 O512 2.370 . S
Eu504 O520 2.363 . S
Eu504 O521 2.363 . S
Eu504 O536 2.363 . S
Eu504 O537 2.363 . S
O505 Eu500 2.370 1_655 S
O505 Eu503 2.370 . S
O505 Eu507 2.370 1_655 S
O506 Eu500 2.370 . S
O506 Eu504 2.370 . S
O506 Eu508 2.370 . S
Eu507 O502 2.370 . S
Eu507 O505 2.370 1_455 S
Eu507 O509 2.370 1_455 S
Eu507 O512 2.370 . S
Eu507 O524 2.363 . S
Eu507 O525 2.363 1_455 S
Eu507 O532 2.363 . S
Eu507 O533 2.363 . S
Eu508 O501 2.370 1_455 S
Eu508 O506 2.370 . S
Eu508 O510 2.370 1_455 S
Eu508 O511 2.370 . S
Eu508 O522 2.363 . S
Eu508 O523 2.363 1_455 S
Eu508 O530 2.363 . S
Eu508 O531 2.363 . S
O509 Eu503 2.370 . S
O509 Eu507 2.370 1_655 S
O509 Eu513 2.370 1_655 S
O510 Eu503 2.370 . S
O510 Eu508 2.370 1_655 S
O510 Eu513 2.370 1_655 S
O511 Eu504 2.370 . S
O511 Eu508 2.370 . S
O511 Eu513 2.370 . S
O512 Eu504 2.370 . S
O512 Eu507 2.370 . S
O512 Eu513 2.370 . S
Eu513 O509 2.370 1_455 S
Eu513 O510 2.370 1_455 S
Eu513 O511 2.370 . S
Eu513 O512 2.370 . S
Eu513 O516 2.363 . S
Eu513 O517 2.363 . S
Eu513 O526 2.363 . S
Eu513 O527 2.363 1_455 S
O514 C488 1.283 . S
O514 Eu500 2.363 . S
O515 C489 1.283 . S
O515 Eu500 2.363 . S
O516 C490 1.283 . S
O516 Eu513 2.363 . S
O517 C491 1.283 . S
O517 Eu513 2.363 . S
O518 C492 1.283 . S
O518 Eu503 2.363 . S
O519 C493 1.283 . S
O519 Eu503 2.363 . S
O520 C494 1.283 . S
O520 Eu504 2.363 . S
O521 C495 1.283 . S
O521 Eu504 2.363 . S
O522 C496 1.283 . S
O522 Eu508 2.363 . S
O523 C497 1.283 . S
O523 Eu508 2.363 1_655 S
O524 C498 1.283 . S
O524 Eu507 2.363 . S
O525 C499 1.283 . S
O525 Eu507 2.363 1_655 S
O526 C494 1.283 . S
O526 Eu513 2.363 . S
O527 C492 1.283 . S
O527 Eu513 2.363 1_655 S
O528 C495 1.283 . S
O528 Eu500 2.363 . S
O529 C493 1.283 . S
O529 Eu500 2.363 1_655 S
O530 C489 1.283 . S
O530 Eu508 2.363 . S
O531 C491 1.283 . S
O531 Eu508 2.363 . S
O532 C488 1.283 . S
O532 Eu507 2.363 . S
O533 C490 1.283 . S
O533 Eu507 2.363 . S
O534 C499 1.283 . S
O534 Eu503 2.363 . S
O535 C497 1.283 . S
O535 Eu503 2.363 . S
O536 C498 1.283 . S
O536 Eu504 2.363 . S
O537 C496 1.283 . S
O537 Eu504 2.363 . S
C538 O564 1.283 . S
C538 O582 1.283 . S
C539 O565 1.283 . S
C539 O580 1.283 . S
C540 O566 1.283 . S
C540 O583 1.283 . S
C541 O567 1.283 . S
C541 O581 1.283 . S
C542 O568 1.283 . S
C542 O577 1.283 . S
C543 O569 1.283 . S
C543 O579 1.283 . S
C544 O570 1.283 . S
C544 O576 1.283 . S
C545 O571 1.283 . S
C545 O578 1.283 . S
C546 O572 1.283 . S
C546 O587 1.283 . S
C547 O573 1.283 . S
C547 O585 1.283 . S
C548 O574 1.283 . S
C548 O586 1.283 . S
C549 O575 1.283 . S
C549 O584 1.283 . S
Eu550 O551 2.370 . S
Eu550 O552 2.370 . S
Eu550 O555 2.370 . S
Eu550 O556 2.370 . S
Eu550 O564 2.363 . S
Eu550 O565 2.363 . S
Eu550 O578 2.363 . S
Eu550 O579 2.363 . S
O551 Eu550 2.370 . S
O551 Eu553 2.354 1_565 S
O551 Eu558 2.353 1_565 S
O552 Eu550 2.370 . S
O552 Eu554 2.354 1_565 S
O552 Eu557 2.356 1_565 S
Eu553 O551 2.354 1_545 S
Eu553 O555 2.354 1_545 S
Eu553 O559 2.386 . S
Eu553 O560 2.386 . S
Eu553 O568 2.390 . S
Eu553 O569 2.336 1_545 S
Eu553 O584 2.363 . S
Eu553 O585 2.363 . S
Eu554 O552 2.354 1_545 S
Eu554 O556 2.354 1_545 S
Eu554 O561 2.386 . S
Eu554 O562 2.386 . S
Eu554 O570 2.390 . S
Eu554 O571 2.336 1_545 S
Eu554 O586 2.363 . S
Eu554 O587 2.363 . S
O555 Eu550 2.370 . S
O555 Eu553 2.354 1_565 S
O555 Eu557 2.356 1_565 S
O556 Eu550 2.370 . S
O556 Eu554 2.354 1_565 S
O556 Eu558 2.353 1_565 S
Eu557 O552 2.356 1_545 S
Eu557 O555 2.356 1_545 S
Eu557 O559 2.384 . S
Eu557 O562 2.384 . S
Eu557 O574 2.363 . S
Eu557 O575 2.363 . S
Eu557 O582 2.340 1_545 S
Eu557 O583 2.386 . S
Eu558 O551 2.353 1_545 S
Eu558 O556 2.353 1_545 S
Eu558 O560 2.388 . S
Eu558 O561 2.388 . S
Eu558 O572 2.363 . S
Eu558 O573 2.363 . S
Eu558 O580 2.333 1_545 S
Eu558 O581 2.393 . S
O559 Eu553 2.386 . S
O559 Eu557 2.384 . S
O559 Eu563 2.370 . S
O560 Eu553 2.386 . S
O560 Eu558 2.388 . S
O560 Eu563 2.370 . S
O561 Eu554 2.386 . S
O561 Eu558 2.388 . S
O561 Eu563 2.370 . S
O562 Eu554 2.386 . S
O562 Eu557 2.384 . S
O562 Eu563 2.370 . S
Eu563 O559 2.370 . S
Eu563 O560 2.370 . S
Eu563 O561 2.370 . S
Eu563 O562 2.370 . S
Eu563 O566 2.363 . S
Eu563 O567 2.363 . S
Eu563 O576 2.363 . S
Eu563 O577 2.363 . S
O564 C538 1.283 . S
O564 Eu550 2.363 . S
O565 C539 1.283 . S
O565 Eu550 2.363 . S
O566 C540 1.283 . S
O566 Eu563 2.363 . S
O567 C541 1.283 . S
O567 Eu563 2.363 . S
O568 C542 1.283 . S
O568 Eu553 2.390 . S
O569 C543 1.283 . S
O569 Eu553 2.336 1_565 S
O570 C544 1.283 . S
O570 Eu554 2.390 . S
O571 C545 1.283 . S
O571 Eu554 2.336 1_565 S
O572 C546 1.283 . S
O572 Eu558 2.363 . S
O573 C547 1.283 . S
O573 Eu558 2.363 . S
O574 C548 1.283 . S
O574 Eu557 2.363 . S
O575 C549 1.283 . S
O575 Eu557 2.363 . S
O576 C544 1.283 . S
O576 Eu563 2.363 . S
O577 C542 1.283 . S
O577 Eu563 2.363 . S
O578 C545 1.283 . S
O578 Eu550 2.363 . S
O579 C543 1.283 . S
O579 Eu550 2.363 . S
O580 C539 1.283 . S
O580 Eu558 2.333 1_565 S
O581 C541 1.283 . S
O581 Eu558 2.393 . S
O582 C538 1.283 . S
O582 Eu557 2.340 1_565 S
O583 C540 1.283 . S
O583 Eu557 2.386 . S
O584 C549 1.283 . S
O584 Eu553 2.363 . S
O585 C547 1.283 . S
O585 Eu553 2.363 . S
O586 C548 1.283 . S
O586 Eu554 2.363 . S
O587 C546 1.283 . S
O587 Eu554 2.363 . S
H588 C596 0.929 . S
H589 C598 0.930 . S
H590 C600 0.930 . S
H591 C603 0.929 . S
H592 C606 0.930 . S
H593 C608 0.960 . S
H594 C608 0.960 . S
H595 C608 0.960 . S
C596 H588 0.929 . S
C596 C597 1.377 . S
C596 C598 1.384 . S
C597 C596 1.377 . S
C597 C603 1.390 . S
C598 H589 0.930 . S
C598 C596 1.384 . S
C598 C599 1.372 . S
C599 C598 1.372 . S
C599 C600 1.400 . S
C599 C604 1.490 . S
C600 H590 0.930 . S
C600 C599 1.400 . S
C600 C603 1.386 . S
H601 C617 0.930 . S
H602 C618 0.931 . S
C603 H591 0.929 . S
C603 C597 1.390 . S
C603 C600 1.386 . S
C604 C599 1.490 . S
C604 C606 1.395 . S
C604 C607 1.403 . S
H605 C611 0.930 . S
C606 H592 0.930 . S
C606 C604 1.395 . S
C606 C609 1.403 . S
C607 C604 1.403 . S
C607 C608 1.524 . S
C607 C611 1.400 . S
C608 H593 0.960 . S
C608 H594 0.960 . S
C608 H595 0.960 . S
C608 C607 1.524 . S
C609 C606 1.403 . S
C609 C610 1.392 . S
C609 C613 1.495 . S
C610 C609 1.392 . S
C610 C611 1.385 . S
C610 C612 1.478 . S
C611 H605 0.930 . S
C611 C607 1.400 . S
C611 C610 1.385 . S
C612 C610 1.478 . S
C612 C614 1.381 . S
C612 C618 1.383 . S
C613 C609 1.495 . S
C613 H619 0.959 . S
C613 H620 0.961 . S
C613 H621 0.960 . S
C614 C612 1.381 . S
C614 C615 1.394 . S
C614 H622 0.930 . S
C615 C614 1.394 . S
C615 C616 1.383 . S
C615 H623 0.929 . S
C616 C615 1.383 . S
C616 C617 1.377 . S
C617 H601 0.930 . S
C617 C616 1.377 . S
C617 C618 1.379 . S
C618 H602 0.931 . S
C618 C612 1.383 . S
C618 C617 1.379 . S
H619 C613 0.959 . S
H620 C613 0.961 . S
H621 C613 0.960 . S
H622 C614 0.930 . S
H623 C615 0.929 . S
H624 C632 0.929 . S
H625 C634 0.930 . S
H626 C636 0.930 . S
H627 C639 0.929 . S
H628 C642 0.930 . S
H629 C644 0.960 . S
H630 C644 0.960 . S
H631 C644 0.960 . S
C632 H624 0.929 . S
C632 C633 1.377 . S
C632 C634 1.384 . S
C633 C632 1.377 . S
C633 C639 1.390 . S
C634 H625 0.930 . S
C634 C632 1.384 . S
C634 C635 1.372 . S
C635 C634 1.372 . S
C635 C636 1.400 . S
C635 C640 1.490 . S
C636 H626 0.930 . S
C636 C635 1.400 . S
C636 C639 1.386 . S
H637 C653 0.930 . S
H638 C654 0.931 . S
C639 H627 0.929 . S
C639 C633 1.390 . S
C639 C636 1.386 . S
C640 C635 1.490 . S
C640 C642 1.395 . S
C640 C643 1.403 . S
H641 C647 0.930 . S
C642 H628 0.930 . S
C642 C640 1.395 . S
C642 C645 1.403 . S
C643 C640 1.403 . S
C643 C644 1.524 . S
C643 C647 1.400 . S
C644 H629 0.960 . S
C644 H630 0.960 . S
C644 H631 0.960 . S
C644 C643 1.524 . S
C645 C642 1.403 . S
C645 C646 1.392 . S
C645 C649 1.495 . S
C646 C645 1.392 . S
C646 C647 1.385 . S
C646 C648 1.478 . S
C647 H641 0.930 . S
C647 C643 1.400 . S
C647 C646 1.385 . S
C648 C646 1.478 . S
C648 C650 1.381 . S
C648 C654 1.383 . S
C649 C645 1.495 . S
C649 H655 0.959 . S
C649 H656 0.961 . S
C649 H657 0.960 . S
C650 C648 1.381 . S
C650 C651 1.394 . S
C650 H658 0.930 . S
C651 C650 1.394 . S
C651 C652 1.383 . S
C651 H659 0.929 . S
C652 C651 1.383 . S
C652 C653 1.377 . S
C653 H637 0.930 . S
C653 C652 1.377 . S
C653 C654 1.379 . S
C654 H638 0.931 . S
C654 C648 1.383 . S
C654 C653 1.379 . S
H655 C649 0.959 . S
H656 C649 0.961 . S
H657 C649 0.960 . S
H658 C650 0.930 . S
H659 C651 0.929 . S
H660 C668 0.929 . S
H661 C670 0.930 . S
H662 C672 0.930 . S
H663 C675 0.929 . S
H664 C678 0.930 . S
H665 C680 0.960 . S
H666 C680 0.960 . S
H667 C680 0.960 . S
C668 H660 0.929 . S
C668 C669 1.377 . S
C668 C670 1.384 . S
C669 C668 1.377 . S
C669 C675 1.390 . S
C670 H661 0.930 . S
C670 C668 1.384 . S
C670 C671 1.372 . S
C671 C670 1.372 . S
C671 C672 1.400 . S
C671 C676 1.490 . S
C672 H662 0.930 . S
C672 C671 1.400 . S
C672 C675 1.386 . S
H673 C689 0.930 . S
H674 C690 0.931 . S
C675 H663 0.929 . S
C675 C669 1.390 . S
C675 C672 1.386 . S
C676 C671 1.490 . S
C676 C678 1.395 . S
C676 C679 1.403 . S
H677 C683 0.930 . S
C678 H664 0.930 . S
C678 C676 1.395 . S
C678 C681 1.403 . S
C679 C676 1.403 . S
C679 C680 1.524 . S
C679 C683 1.400 . S
C680 H665 0.960 . S
C680 H666 0.960 . S
C680 H667 0.960 . S
C680 C679 1.524 . S
C681 C678 1.403 . S
C681 C682 1.392 . S
C681 C685 1.495 . S
C682 C681 1.392 . S
C682 C683 1.385 . S
C682 C684 1.478 . S
C683 H677 0.930 . S
C683 C679 1.400 . S
C683 C682 1.385 . S
C684 C682 1.478 . S
C684 C686 1.381 . S
C684 C690 1.383 . S
C685 C681 1.495 . S
C685 H691 0.959 . S
C685 H692 0.961 . S
C685 H693 0.960 . S
C686 C684 1.381 . S
C686 C687 1.394 . S
C686 H694 0.930 . S
C687 C686 1.394 . S
C687 C688 1.383 . S
C687 H695 0.929 . S
C688 C687 1.383 . S
C688 C689 1.377 . S
C689 H673 0.930 . S
C689 C688 1.377 . S
C689 C690 1.379 . S
C690 H674 0.931 . S
C690 C684 1.383 . S
C690 C689 1.379 . S
H691 C685 0.959 . S
H692 C685 0.961 . S
H693 C685 0.960 . S
H694 C686 0.930 . S
H695 C687 0.929 . S
H696 C704 0.929 . S
H697 C706 0.930 . S
H698 C708 0.930 . S
H699 C711 0.929 . S
H700 C714 0.930 . S
H701 C716 0.960 . S
H702 C716 0.960 . S
H703 C716 0.960 . S
C704 H696 0.929 . S
C704 C705 1.377 . S
C704 C706 1.384 . S
C705 C704 1.377 . S
C705 C711 1.390 . S
C706 H697 0.930 . S
C706 C704 1.384 . S
C706 C707 1.372 . S
C707 C706 1.372 . S
C707 C708 1.400 . S
C707 C712 1.490 . S
C708 H698 0.930 . S
C708 C707 1.400 . S
C708 C711 1.386 . S
H709 C725 0.930 . S
H710 C726 0.931 . S
C711 H699 0.929 . S
C711 C705 1.390 . S
C711 C708 1.386 . S
C712 C707 1.490 . S
C712 C714 1.395 . S
C712 C715 1.403 . S
H713 C719 0.930 . S
C714 H700 0.930 . S
C714 C712 1.395 . S
C714 C717 1.403 . S
C715 C712 1.403 . S
C715 C716 1.524 . S
C715 C719 1.400 . S
C716 H701 0.960 . S
C716 H702 0.960 . S
C716 H703 0.960 . S
C716 C715 1.524 . S
C717 C714 1.403 . S
C717 C718 1.392 . S
C717 C721 1.495 . S
C718 C717 1.392 . S
C718 C719 1.385 . S
C718 C720 1.478 . S
C719 H713 0.930 . S
C719 C715 1.400 . S
C719 C718 1.385 . S
C720 C718 1.478 . S
C720 C722 1.381 . S
C720 C726 1.383 . S
C721 C717 1.495 . S
C721 H727 0.959 . S
C721 H728 0.961 . S
C721 H729 0.960 . S
C722 C720 1.381 . S
C722 C723 1.394 . S
C722 H730 0.930 . S
C723 C722 1.394 . S
C723 C724 1.383 . S
C723 H731 0.929 . S
C724 C723 1.383 . S
C724 C725 1.377 . S
C725 H709 0.930 . S
C725 C724 1.377 . S
C725 C726 1.379 . S
C726 H710 0.931 . S
C726 C720 1.383 . S
C726 C725 1.379 . S
H727 C721 0.959 . S
H728 C721 0.961 . S
H729 C721 0.960 . S
H730 C722 0.930 . S
H731 C723 0.929 . S
H732 C740 0.929 . S
H733 C742 0.930 . S
H734 C744 0.930 . S
H735 C747 0.929 . S
H736 C750 0.930 . S
H737 C752 0.960 . S
H738 C752 0.960 . S
H739 C752 0.960 . S
C740 H732 0.929 . S
C740 C741 1.377 . S
C740 C742 1.384 . S
C741 C740 1.377 . S
C741 C747 1.390 . S
C742 H733 0.930 . S
C742 C740 1.384 . S
C742 C743 1.372 . S
C743 C742 1.372 . S
C743 C744 1.400 . S
C743 C748 1.490 . S
C744 H734 0.930 . S
C744 C743 1.400 . S
C744 C747 1.386 . S
H745 C761 0.930 . S
H746 C762 0.931 . S
C747 H735 0.929 . S
C747 C741 1.390 . S
C747 C744 1.386 . S
C748 C743 1.490 . S
C748 C750 1.395 . S
C748 C751 1.403 . S
H749 C755 0.930 . S
C750 H736 0.930 . S
C750 C748 1.395 . S
C750 C753 1.403 . S
C751 C748 1.403 . S
C751 C752 1.524 . S
C751 C755 1.400 . S
C752 H737 0.960 . S
C752 H738 0.960 . S
C752 H739 0.960 . S
C752 C751 1.524 . S
C753 C750 1.403 . S
C753 C754 1.392 . S
C753 C757 1.495 . S
C754 C753 1.392 . S
C754 C755 1.385 . S
C754 C756 1.478 . S
C755 H749 0.930 . S
C755 C751 1.400 . S
C755 C754 1.385 . S
C756 C754 1.478 . S
C756 C758 1.381 . S
C756 C762 1.383 . S
C757 C753 1.495 . S
C757 H763 0.959 . S
C757 H764 0.961 . S
C757 H765 0.960 . S
C758 C756 1.381 . S
C758 C759 1.394 . S
C758 H766 0.930 . S
C759 C758 1.394 . S
C759 C760 1.383 . S
C759 H767 0.929 . S
C760 C759 1.383 . S
C760 C761 1.377 . S
C761 H745 0.930 . S
C761 C760 1.377 . S
C761 C762 1.379 . S
C762 H746 0.931 . S
C762 C756 1.383 . S
C762 C761 1.379 . S
H763 C757 0.959 . S
H764 C757 0.961 . S
H765 C757 0.960 . S
H766 C758 0.930 . S
H767 C759 0.929 . S
H768 C776 0.929 . S
H769 C778 0.930 . S
H770 C780 0.930 . S
H771 C783 0.929 . S
H772 C786 0.930 . S
H773 C788 0.960 . S
H774 C788 0.960 . S
H775 C788 0.960 . S
C776 H768 0.929 . S
C776 C777 1.377 . S
C776 C778 1.384 . S
C777 C776 1.377 . S
C777 C783 1.390 . S
C778 H769 0.930 . S
C778 C776 1.384 . S
C778 C779 1.372 . S
C779 C778 1.372 . S
C779 C780 1.400 . S
C779 C784 1.490 . S
C780 H770 0.930 . S
C780 C779 1.400 . S
C780 C783 1.386 . S
H781 C797 0.930 . S
H782 C798 0.931 . S
C783 H771 0.929 . S
C783 C777 1.390 . S
C783 C780 1.386 . S
C784 C779 1.490 . S
C784 C786 1.395 . S
C784 C787 1.403 . S
H785 C791 0.930 . S
C786 H772 0.930 . S
C786 C784 1.395 . S
C786 C789 1.403 . S
C787 C784 1.403 . S
C787 C788 1.524 . S
C787 C791 1.400 . S
C788 H773 0.960 . S
C788 H774 0.960 . S
C788 H775 0.960 . S
C788 C787 1.524 . S
C789 C786 1.403 . S
C789 C790 1.392 . S
C789 C793 1.495 . S
C790 C789 1.392 . S
C790 C791 1.385 . S
C790 C792 1.478 . S
C791 H785 0.930 . S
C791 C787 1.400 . S
C791 C790 1.385 . S
C792 C790 1.478 . S
C792 C794 1.381 . S
C792 C798 1.383 . S
C793 C789 1.495 . S
C793 H799 0.959 . S
C793 H800 0.961 . S
C793 H801 0.960 . S
C794 C792 1.381 . S
C794 C795 1.394 . S
C794 H802 0.930 . S
C795 C794 1.394 . S
C795 C796 1.383 . S
C795 H803 0.929 . S
C796 C795 1.383 . S
C796 C797 1.377 . S
C797 H781 0.930 . S
C797 C796 1.377 . S
C797 C798 1.379 . S
C798 H782 0.931 . S
C798 C792 1.383 . S
C798 C797 1.379 . S
H799 C793 0.959 . S
H800 C793 0.961 . S
H801 C793 0.960 . S
H802 C794 0.930 . S
H803 C795 0.929 . S
H804 C812 0.929 . S
H805 C814 0.930 . S
H806 C816 0.930 . S
H807 C819 0.929 . S
H808 C822 0.930 . S
H809 C824 0.960 . S
H810 C824 0.960 . S
H811 C824 0.960 . S
C812 H804 0.929 . S
C812 C813 1.377 . S
C812 C814 1.384 . S
C813 C812 1.377 . S
C813 C819 1.390 . S
C814 H805 0.930 . S
C814 C812 1.384 . S
C814 C815 1.372 . S
C815 C814 1.372 . S
C815 C816 1.400 . S
C815 C820 1.490 . S
C816 H806 0.930 . S
C816 C815 1.400 . S
C816 C819 1.386 . S
H817 C833 0.930 . S
H818 C834 0.931 . S
C819 H807 0.929 . S
C819 C813 1.390 . S
C819 C816 1.386 . S
C820 C815 1.490 . S
C820 C822 1.395 . S
C820 C823 1.403 . S
H821 C827 0.930 . S
C822 H808 0.930 . S
C822 C820 1.395 . S
C822 C825 1.403 . S
C823 C820 1.403 . S
C823 C824 1.524 . S
C823 C827 1.400 . S
C824 H809 0.960 . S
C824 H810 0.960 . S
C824 H811 0.960 . S
C824 C823 1.524 . S
C825 C822 1.403 . S
C825 C826 1.392 . S
C825 C829 1.495 . S
C826 C825 1.392 . S
C826 C827 1.385 . S
C826 C828 1.478 . S
C827 H821 0.930 . S
C827 C823 1.400 . S
C827 C826 1.385 . S
C828 C826 1.478 . S
C828 C830 1.381 . S
C828 C834 1.383 . S
C829 C825 1.495 . S
C829 H835 0.959 . S
C829 H836 0.961 . S
C829 H837 0.960 . S
C830 C828 1.381 . S
C830 C831 1.394 . S
C830 H838 0.930 . S
C831 C830 1.394 . S
C831 C832 1.383 . S
C831 H839 0.929 . S
C832 C831 1.383 . S
C832 C833 1.377 . S
C833 H817 0.930 . S
C833 C832 1.377 . S
C833 C834 1.379 . S
C834 H818 0.931 . S
C834 C828 1.383 . S
C834 C833 1.379 . S
H835 C829 0.959 . S
H836 C829 0.961 . S
H837 C829 0.960 . S
H838 C830 0.930 . S
H839 C831 0.929 . S
H840 C848 0.929 . S
H841 C850 0.930 . S
H842 C852 0.930 . S
H843 C855 0.929 . S
H844 C858 0.930 . S
H845 C860 0.960 . S
H846 C860 0.960 . S
H847 C860 0.960 . S
C848 H840 0.929 . S
C848 C849 1.377 . S
C848 C850 1.384 . S
C849 C848 1.377 . S
C849 C855 1.390 . S
C850 H841 0.930 . S
C850 C848 1.384 . S
C850 C851 1.372 . S
C851 C850 1.372 . S
C851 C852 1.400 . S
C851 C856 1.490 . S
C852 H842 0.930 . S
C852 C851 1.400 . S
C852 C855 1.386 . S
H853 C869 0.930 . S
H854 C870 0.931 . S
C855 H843 0.929 . S
C855 C849 1.390 . S
C855 C852 1.386 . S
C856 C851 1.490 . S
C856 C858 1.395 . S
C856 C859 1.403 . S
H857 C863 0.930 . S
C858 H844 0.930 . S
C858 C856 1.395 . S
C858 C861 1.403 . S
C859 C856 1.403 . S
C859 C860 1.524 . S
C859 C863 1.400 . S
C860 H845 0.960 . S
C860 H846 0.960 . S
C860 H847 0.960 . S
C860 C859 1.524 . S
C861 C858 1.403 . S
C861 C862 1.392 . S
C861 C865 1.495 . S
C862 C861 1.392 . S
C862 C863 1.385 . S
C862 C864 1.478 . S
C863 H857 0.930 . S
C863 C859 1.400 . S
C863 C862 1.385 . S
C864 C862 1.478 . S
C864 C866 1.381 . S
C864 C870 1.383 . S
C865 C861 1.495 . S
C865 H871 0.959 . S
C865 H872 0.961 . S
C865 H873 0.960 . S
C866 C864 1.381 . S
C866 C867 1.394 . S
C866 H874 0.930 . S
C867 C866 1.394 . S
C867 C868 1.383 . S
C867 H875 0.929 . S
C868 C867 1.383 . S
C868 C869 1.377 . S
C869 H853 0.930 . S
C869 C868 1.377 . S
C869 C870 1.379 . S
C870 H854 0.931 . S
C870 C864 1.383 . S
C870 C869 1.379 . S
H871 C865 0.959 . S
H872 C865 0.961 . S
H873 C865 0.960 . S
H874 C866 0.930 . S
H875 C867 0.929 . S
H876 C884 0.929 . S
H877 C886 0.930 . S
H878 C888 0.930 . S
H879 C891 0.929 . S
H880 C894 0.930 . S
H881 C896 0.960 . S
H882 C896 0.960 . S
H883 C896 0.960 . S
C884 H876 0.929 . S
C884 C885 1.377 . S
C884 C886 1.384 . S
C885 C884 1.377 . S
C885 C891 1.390 . S
C886 H877 0.930 . S
C886 C884 1.384 . S
C886 C887 1.372 . S
C887 C886 1.372 . S
C887 C888 1.400 . S
C887 C892 1.490 . S
C888 H878 0.930 . S
C888 C887 1.400 . S
C888 C891 1.386 . S
H889 C905 0.930 . S
H890 C906 0.931 . S
C891 H879 0.929 . S
C891 C885 1.390 . S
C891 C888 1.386 . S
C892 C887 1.490 . S
C892 C894 1.395 . S
C892 C895 1.403 . S
H893 C899 0.930 . S
C894 H880 0.930 . S
C894 C892 1.395 . S
C894 C897 1.403 . S
C895 C892 1.403 . S
C895 C896 1.524 . S
C895 C899 1.400 . S
C896 H881 0.960 . S
C896 H882 0.960 . S
C896 H883 0.960 . S
C896 C895 1.524 . S
C897 C894 1.403 . S
C897 C898 1.392 . S
C897 C901 1.495 . S
C898 C897 1.392 . S
C898 C899 1.385 . S
C898 C900 1.478 . S
C899 H893 0.930 . S
C899 C895 1.400 . S
C899 C898 1.385 . S
C900 C898 1.478 . S
C900 C902 1.381 . S
C900 C906 1.383 . S
C901 C897 1.495 . S
C901 H907 0.959 . S
C901 H908 0.961 . S
C901 H909 0.960 . S
C902 C900 1.381 . S
C902 C903 1.394 . S
C902 H910 0.930 . S
C903 C902 1.394 . S
C903 C904 1.383 . S
C903 H911 0.929 . S
C904 C903 1.383 . S
C904 C905 1.377 . S
C905 H889 0.930 . S
C905 C904 1.377 . S
C905 C906 1.379 . S
C906 H890 0.931 . S
C906 C900 1.383 . S
C906 C905 1.379 . S
H907 C901 0.959 . S
H908 C901 0.961 . S
H909 C901 0.960 . S
H910 C902 0.930 . S
H911 C903 0.929 . S
H912 C920 0.929 . S
H913 C922 0.930 . S
H914 C924 0.930 . S
H915 C927 0.929 . S
H916 C930 0.930 . S
H917 C932 0.960 . S
H918 C932 0.960 . S
H919 C932 0.960 . S
C920 H912 0.929 . S
C920 C921 1.377 . S
C920 C922 1.384 . S
C921 C920 1.377 . S
C921 C927 1.390 . S
C922 H913 0.930 . S
C922 C920 1.384 . S
C922 C923 1.372 . S
C923 C922 1.372 . S
C923 C924 1.400 . S
C923 C928 1.490 . S
C924 H914 0.930 . S
C924 C923 1.400 . S
C924 C927 1.386 . S
H925 C941 0.930 . S
H926 C942 0.931 . S
C927 H915 0.929 . S
C927 C921 1.390 . S
C927 C924 1.386 . S
C928 C923 1.490 . S
C928 C930 1.395 . S
C928 C931 1.403 . S
H929 C935 0.930 . S
C930 H916 0.930 . S
C930 C928 1.395 . S
C930 C933 1.403 . S
C931 C928 1.403 . S
C931 C932 1.524 . S
C931 C935 1.400 . S
C932 H917 0.960 . S
C932 H918 0.960 . S
C932 H919 0.960 . S
C932 C931 1.524 . S
C933 C930 1.403 . S
C933 C934 1.392 . S
C933 C937 1.495 . S
C934 C933 1.392 . S
C934 C935 1.385 . S
C934 C936 1.478 . S
C935 H929 0.930 . S
C935 C931 1.400 . S
C935 C934 1.385 . S
C936 C934 1.478 . S
C936 C938 1.381 . S
C936 C942 1.383 . S
C937 C933 1.495 . S
C937 H943 0.959 . S
C937 H944 0.961 . S
C937 H945 0.960 . S
C938 C936 1.381 . S
C938 C939 1.394 . S
C938 H946 0.930 . S
C939 C938 1.394 . S
C939 C940 1.383 . S
C939 H947 0.929 . S
C940 C939 1.383 . S
C940 C941 1.377 . S
C941 H925 0.930 . S
C941 C940 1.377 . S
C941 C942 1.379 . S
C942 H926 0.931 . S
C942 C936 1.383 . S
C942 C941 1.379 . S
H943 C937 0.959 . S
H944 C937 0.961 . S
H945 C937 0.960 . S
H946 C938 0.930 . S
H947 C939 0.929 . S
H948 C956 0.929 . S
H949 C958 0.930 . S
H950 C960 0.930 . S
H951 C963 0.929 . S
H952 C966 0.930 . S
H953 C968 0.960 . S
H954 C968 0.960 . S
H955 C968 0.960 . S
C956 H948 0.929 . S
C956 C957 1.377 . S
C956 C958 1.384 . S
C957 C956 1.377 . S
C957 C963 1.390 . S
C958 H949 0.930 . S
C958 C956 1.384 . S
C958 C959 1.372 . S
C959 C958 1.372 . S
C959 C960 1.400 . S
C959 C964 1.490 . S
C960 H950 0.930 . S
C960 C959 1.400 . S
C960 C963 1.386 . S
H961 C977 0.930 . S
H962 C978 0.931 . S
C963 H951 0.929 . S
C963 C957 1.390 . S
C963 C960 1.386 . S
C964 C959 1.490 . S
C964 C966 1.395 . S
C964 C967 1.403 . S
H965 C971 0.930 . S
C966 H952 0.930 . S
C966 C964 1.395 . S
C966 C969 1.403 . S
C967 C964 1.403 . S
C967 C968 1.524 . S
C967 C971 1.400 . S
C968 H953 0.960 . S
C968 H954 0.960 . S
C968 H955 0.960 . S
C968 C967 1.524 . S
C969 C966 1.403 . S
C969 C970 1.392 . S
C969 C973 1.495 . S
C970 C969 1.392 . S
C970 C971 1.385 . S
C970 C972 1.478 . S
C971 H965 0.930 . S
C971 C967 1.400 . S
C971 C970 1.385 . S
C972 C970 1.478 . S
C972 C974 1.381 . S
C972 C978 1.383 . S
C973 C969 1.495 . S
C973 H979 0.959 . S
C973 H980 0.961 . S
C973 H981 0.960 . S
C974 C972 1.381 . S
C974 C975 1.394 . S
C974 H982 0.930 . S
C975 C974 1.394 . S
C975 C976 1.383 . S
C975 H983 0.929 . S
C976 C975 1.383 . S
C976 C977 1.377 . S
C977 H961 0.930 . S
C977 C976 1.377 . S
C977 C978 1.379 . S
C978 H962 0.931 . S
C978 C972 1.383 . S
C978 C977 1.379 . S
H979 C973 0.959 . S
H980 C973 0.961 . S
H981 C973 0.960 . S
H982 C974 0.930 . S
H983 C975 0.929 . S
H984 C992 0.929 . S
H985 C994 0.930 . S
H986 C996 0.930 . S
H987 C999 0.929 . S
H988 C1002 0.930 . S
H989 C1004 0.960 . S
H990 C1004 0.960 . S
H991 C1004 0.960 . S
C992 H984 0.929 . S
C992 C993 1.377 . S
C992 C994 1.384 . S
C993 C992 1.377 . S
C993 C999 1.390 . S
C994 H985 0.930 . S
C994 C992 1.384 . S
C994 C995 1.372 . S
C995 C994 1.372 . S
C995 C996 1.400 . S
C995 C1000 1.490 . S
C996 H986 0.930 . S
C996 C995 1.400 . S
C996 C999 1.386 . S
H997 C1013 0.930 . S
H998 C1014 0.931 . S
C999 H987 0.929 . S
C999 C993 1.390 . S
C999 C996 1.386 . S
C1000 C995 1.490 . S
C1000 C1002 1.395 . S
C1000 C1003 1.403 . S
H1001 C1007 0.930 . S
C1002 H988 0.930 . S
C1002 C1000 1.395 . S
C1002 C1005 1.403 . S
C1003 C1000 1.403 . S
C1003 C1004 1.524 . S
C1003 C1007 1.400 . S
C1004 H989 0.960 . S
C1004 H990 0.960 . S
C1004 H991 0.960 . S
C1004 C1003 1.524 . S
C1005 C1002 1.403 . S
C1005 C1006 1.392 . S
C1005 C1009 1.495 . S
C1006 C1005 1.392 . S
C1006 C1007 1.385 . S
C1006 C1008 1.478 . S
C1007 H1001 0.930 . S
C1007 C1003 1.400 . S
C1007 C1006 1.385 . S
C1008 C1006 1.478 . S
C1008 C1010 1.381 . S
C1008 C1014 1.383 . S
C1009 C1005 1.495 . S
C1009 H1015 0.959 . S
C1009 H1016 0.961 . S
C1009 H1017 0.960 . S
C1010 C1008 1.381 . S
C1010 C1011 1.394 . S
C1010 H1018 0.930 . S
C1011 C1010 1.394 . S
C1011 C1012 1.383 . S
C1011 H1019 0.929 . S
C1012 C1011 1.383 . S
C1012 C1013 1.377 . S
C1013 H997 0.930 . S
C1013 C1012 1.377 . S
C1013 C1014 1.379 . S
C1014 H998 0.931 . S
C1014 C1008 1.383 . S
C1014 C1013 1.379 . S
H1015 C1009 0.959 . S
H1016 C1009 0.961 . S
H1017 C1009 0.960 . S
H1018 C1010 0.930 . S
H1019 C1011 0.929 . S
H1020 C1028 0.929 . S
H1021 C1030 0.930 . S
H1022 C1032 0.930 1_556 S
H1023 C1035 0.910 1_556 S
H1024 C1038 0.941 . S
H1025 C1040 0.960 . S
H1026 C1040 0.960 . S
H1027 C1040 0.960 . S
C1028 H1020 0.929 . S
C1028 C1029 1.377 . S
C1028 C1030 1.384 . S
C1029 C1028 1.377 . S
C1029 C1035 1.410 . S
C1030 H1021 0.930 . S
C1030 C1028 1.384 . S
C1030 C1031 1.372 . S
C1031 C1030 1.372 . S
C1031 C1032 1.400 . S
C1031 C1036 1.490 . S
C1032 H1022 0.930 1_554 S
C1032 C1031 1.400 . S
C1032 C1035 1.387 . S
H1033 C1049 0.930 . S
H1034 C1050 0.931 . S
C1035 H1023 0.910 1_554 S
C1035 C1029 1.410 . S
C1035 C1032 1.387 . S
C1036 C1031 1.490 . S
C1036 C1038 1.383 1_554 S
C1036 C1039 1.403 . S
H1037 C1043 0.930 . S
C1038 H1024 0.941 . S
C1038 C1036 1.383 1_556 S
C1038 C1041 1.405 . S
C1039 C1036 1.403 . S
C1039 C1040 1.524 . S
C1039 C1043 1.400 . S
C1040 H1025 0.960 . S
C1040 H1026 0.960 . S
C1040 H1027 0.960 . S
C1040 C1039 1.524 . S
C1041 C1038 1.405 . S
C1041 C1042 1.392 1_556 S
C1041 C1045 1.495 . S
C1042 C1041 1.392 1_554 S
C1042 C1043 1.385 . S
C1042 C1044 1.478 . S
C1043 H1037 0.930 . S
C1043 C1039 1.400 . S
C1043 C1042 1.385 . S
C1044 C1042 1.478 . S
C1044 C1046 1.381 . S
C1044 C1050 1.383 1_554 S
C1045 C1041 1.495 . S
C1045 H1051 0.959 . S
C1045 H1052 0.961 . S
C1045 H1053 0.960 . S
C1046 C1044 1.381 . S
C1046 C1047 1.394 . S
C1046 H1054 0.930 . S
C1047 C1046 1.394 . S
C1047 C1048 1.383 . S
C1047 H1055 0.929 . S
C1048 C1047 1.383 . S
C1048 C1049 1.377 1_554 S
C1049 H1033 0.930 . S
C1049 C1048 1.377 1_556 S
C1049 C1050 1.379 . S
C1050 H1034 0.931 . S
C1050 C1044 1.383 1_556 S
C1050 C1049 1.379 . S
H1051 C1045 0.959 . S
H1052 C1045 0.961 . S
H1053 C1045 0.960 . S
H1054 C1046 0.930 . S
H1055 C1047 0.929 . S
H1056 C1064 0.929 . S
H1057 C1066 0.930 . S
H1058 C1068 0.930 . S
H1059 C1071 0.929 . S
H1060 C1074 0.930 . S
H1061 C1076 0.960 . S
H1062 C1076 0.960 . S
H1063 C1076 0.960 . S
C1064 H1056 0.929 . S
C1064 C1065 1.377 1_556 S
C1064 C1066 1.384 . S
C1065 C1064 1.377 1_554 S
C1065 C1071 1.390 . S
C1066 H1057 0.930 . S
C1066 C1064 1.384 . S
C1066 C1067 1.372 1_556 S
C1067 C1066 1.372 1_554 S
C1067 C1068 1.400 . S
C1067 C1072 1.490 . S
C1068 H1058 0.930 . S
C1068 C1067 1.400 . S
C1068 C1071 1.386 . S
H1069 C1085 0.930 . S
H1070 C1086 0.931 . S
C1071 H1059 0.929 . S
C1071 C1065 1.390 . S
C1071 C1068 1.386 . S
C1072 C1067 1.490 . S
C1072 C1074 1.395 1_554 S
C1072 C1075 1.403 . S
H1073 C1079 0.930 . S
C1074 H1060 0.930 . S
C1074 C1072 1.395 1_556 S
C1074 C1077 1.403 . S
C1075 C1072 1.403 . S
C1075 C1076 1.524 . S
C1075 C1079 1.400 . S
C1076 H1061 0.960 . S
C1076 H1062 0.960 . S
C1076 H1063 0.960 . S
C1076 C1075 1.524 . S
C1077 C1074 1.403 . S
C1077 C1078 1.392 1_556 S
C1077 C1081 1.495 . S
C1078 C1077 1.392 1_554 S
C1078 C1079 1.385 . S
C1078 C1080 1.478 . S
C1079 H1073 0.930 . S
C1079 C1075 1.400 . S
C1079 C1078 1.385 . S
C1080 C1078 1.478 . S
C1080 C1082 1.381 1_554 S
C1080 C1086 1.383 . S
C1081 C1077 1.495 . S
C1081 H1087 0.959 . S
C1081 H1088 0.961 . S
C1081 H1089 0.960 . S
C1082 C1080 1.381 1_556 S
C1082 C1083 1.394 . S
C1082 H1090 0.930 . S
C1083 C1082 1.394 . S
C1083 C1084 1.383 1_556 S
C1083 H1091 0.929 . S
C1084 C1083 1.383 1_554 S
C1084 C1085 1.377 . S
C1085 H1069 0.930 . S
C1085 C1084 1.377 . S
C1085 C1086 1.379 . S
C1086 H1070 0.931 . S
C1086 C1080 1.383 . S
C1086 C1085 1.379 . S
H1087 C1081 0.959 . S
H1088 C1081 0.961 . S
H1089 C1081 0.960 . S
H1090 C1082 0.930 . S
H1091 C1083 0.929 . S
H1092 C1100 0.929 . S
H1093 C1102 0.930 . S
H1094 C1104 0.930 . S
H1095 C1107 0.929 . S
H1096 C1110 0.930 . S
H1097 C1112 0.960 . S
H1098 C1112 0.960 . S
H1099 C1112 0.960 . S
C1100 H1092 0.929 . S
C1100 C1101 1.377 1_556 S
C1100 C1102 1.384 . S
C1101 C1100 1.377 1_554 S
C1101 C1107 1.390 . S
C1102 H1093 0.930 . S
C1102 C1100 1.384 . S
C1102 C1103 1.372 1_556 S
C1103 C1102 1.372 1_554 S
C1103 C1104 1.400 . S
C1103 C1108 1.490 . S
C1104 H1094 0.930 . S
C1104 C1103 1.400 . S
C1104 C1107 1.386 . S
H1105 C1121 0.930 . S
H1106 C1122 0.931 . S
C1107 H1095 0.929 . S
C1107 C1101 1.390 . S
C1107 C1104 1.386 . S
C1108 C1103 1.490 . S
C1108 C1110 1.395 1_554 S
C1108 C1111 1.403 . S
H1109 C1115 0.930 . S
C1110 H1096 0.930 . S
C1110 C1108 1.395 1_556 S
C1110 C1113 1.403 . S
C1111 C1108 1.403 . S
C1111 C1112 1.524 . S
C1111 C1115 1.400 . S
C1112 H1097 0.960 . S
C1112 H1098 0.960 . S
C1112 H1099 0.960 . S
C1112 C1111 1.524 . S
C1113 C1110 1.403 . S
C1113 C1114 1.392 1_556 S
C1113 C1117 1.495 . S
C1114 C1113 1.392 1_554 S
C1114 C1115 1.385 . S
C1114 C1116 1.478 . S
C1115 H1109 0.930 . S
C1115 C1111 1.400 . S
C1115 C1114 1.385 . S
C1116 C1114 1.478 . S
C1116 C1118 1.381 1_554 S
C1116 C1122 1.383 . S
C1117 C1113 1.495 . S
C1117 H1123 0.959 . S
C1117 H1124 0.961 . S
C1117 H1125 0.960 . S
C1118 C1116 1.381 1_556 S
C1118 C1119 1.394 . S
C1118 H1126 0.930 . S
C1119 C1118 1.394 . S
C1119 C1120 1.383 1_556 S
C1119 H1127 0.929 . S
C1120 C1119 1.383 1_554 S
C1120 C1121 1.377 . S
C1121 H1105 0.930 . S
C1121 C1120 1.377 . S
C1121 C1122 1.379 . S
C1122 H1106 0.931 . S
C1122 C1116 1.383 . S
C1122 C1121 1.379 . S
H1123 C1117 0.959 . S
H1124 C1117 0.961 . S
H1125 C1117 0.960 . S
H1126 C1118 0.930 . S
H1127 C1119 0.929 . S
H1128 C1136 0.929 . S
H1129 C1138 0.930 . S
H1130 C1140 0.930 . S
H1131 C1143 0.929 . S
H1132 C1146 0.930 . S
H1133 C1148 0.960 . S
H1134 C1148 0.960 . S
H1135 C1148 0.960 1_554 S
C1136 H1128 0.929 . S
C1136 C1137 1.377 1_556 S
C1136 C1138 1.384 . S
C1137 C1136 1.377 1_554 S
C1137 C1143 1.390 . S
C1138 H1129 0.930 . S
C1138 C1136 1.384 . S
C1138 C1139 1.372 1_556 S
C1139 C1138 1.372 1_554 S
C1139 C1140 1.400 . S
C1139 C1144 1.490 . S
C1140 H1130 0.930 . S
C1140 C1139 1.400 . S
C1140 C1143 1.386 . S
H1141 C1157 0.930 . S
H1142 C1158 0.931 . S
C1143 H1131 0.929 . S
C1143 C1137 1.390 . S
C1143 C1140 1.386 . S
C1144 C1139 1.490 . S
C1144 C1146 1.395 . S
C1144 C1147 1.403 . S
H1145 C1151 0.924 1_556 S
C1146 H1132 0.930 . S
C1146 C1144 1.395 . S
C1146 C1149 1.403 . S
C1147 C1144 1.403 . S
C1147 C1148 1.524 1_554 S
C1147 C1151 1.400 . S
C1148 H1133 0.960 . S
C1148 H1134 0.960 . S
C1148 H1135 0.960 1_556 S
C1148 C1147 1.524 1_556 S
C1149 C1146 1.403 . S
C1149 C1150 1.392 . S
C1149 C1153 1.495 . S
C1150 C1149 1.392 . S
C1150 C1151 1.385 . S
C1150 C1152 1.478 . S
C1151 H1145 0.924 1_554 S
C1151 C1147 1.400 . S
C1151 C1150 1.385 . S
C1152 C1150 1.478 . S
C1152 C1154 1.381 1_554 S
C1152 C1158 1.383 . S
C1153 C1149 1.495 . S
C1153 H1159 0.959 . S
C1153 H1160 0.961 . S
C1153 H1161 0.960 . S
C1154 C1152 1.381 1_556 S
C1154 C1155 1.394 . S
C1154 H1162 0.930 . S
C1155 C1154 1.394 . S
C1155 C1156 1.383 1_556 S
C1155 H1163 0.929 . S
C1156 C1155 1.383 1_554 S
C1156 C1157 1.377 . S
C1157 H1141 0.930 . S
C1157 C1156 1.377 . S
C1157 C1158 1.379 . S
C1158 H1142 0.931 . S
C1158 C1152 1.383 . S
C1158 C1157 1.379 . S
H1159 C1153 0.959 . S
H1160 C1153 0.961 . S
H1161 C1153 0.960 . S
H1162 C1154 0.930 . S
H1163 C1155 0.929 . S
H1164 C1172 0.929 . S
H1165 C1174 0.930 . S
H1166 C1176 0.930 . S
H1167 C1179 0.929 . S
H1168 C1182 0.930 . S
H1169 C1184 0.960 . S
H1170 C1184 0.960 . S
H1171 C1184 0.960 . S
C1172 H1164 0.929 . S
C1172 C1173 1.377 . S
C1172 C1174 1.384 . S
C1173 C1172 1.377 . S
C1173 C1179 1.390 1_455 S
C1174 H1165 0.930 . S
C1174 C1172 1.384 . S
C1174 C1175 1.372 . S
C1175 C1174 1.372 . S
C1175 C1176 1.400 1_455 S
C1175 C1180 1.490 . S
C1176 H1166 0.930 . S
C1176 C1175 1.400 1_655 S
C1176 C1179 1.386 . S
H1177 C1193 0.930 . S
H1178 C1194 0.931 . S
C1179 H1167 0.929 . S
C1179 C1173 1.390 1_655 S
C1179 C1176 1.386 . S
C1180 C1175 1.490 . S
C1180 C1182 1.395 . S
C1180 C1183 1.403 1_455 S
H1181 C1187 0.930 . S
C1182 H1168 0.930 . S
C1182 C1180 1.395 . S
C1182 C1185 1.403 . S
C1183 C1180 1.403 1_655 S
C1183 C1184 1.524 . S
C1183 C1187 1.400 . S
C1184 H1169 0.960 . S
C1184 H1170 0.960 . S
C1184 H1171 0.960 . S
C1184 C1183 1.524 . S
C1185 C1182 1.403 . S
C1185 C1186 1.392 . S
C1185 C1189 1.495 . S
C1186 C1185 1.392 . S
C1186 C1187 1.385 1_455 S
C1186 C1188 1.478 . S
C1187 H1181 0.930 . S
C1187 C1183 1.400 . S
C1187 C1186 1.385 1_655 S
C1188 C1186 1.478 . S
C1188 C1190 1.381 . S
C1188 C1194 1.383 1_455 S
C1189 C1185 1.495 . S
C1189 H1195 0.959 . S
C1189 H1196 0.961 . S
C1189 H1197 0.960 . S
C1190 C1188 1.381 . S
C1190 C1191 1.394 . S
C1190 H1198 0.930 . S
C1191 C1190 1.394 . S
C1191 C1192 1.383 . S
C1191 H1199 0.929 . S
C1192 C1191 1.383 . S
C1192 C1193 1.377 1_455 S
C1193 H1177 0.930 . S
C1193 C1192 1.377 1_655 S
C1193 C1194 1.379 . S
C1194 H1178 0.931 . S
C1194 C1188 1.383 1_655 S
C1194 C1193 1.379 . S
H1195 C1189 0.959 . S
H1196 C1189 0.961 . S
H1197 C1189 0.960 . S
H1198 C1190 0.930 . S
H1199 C1191 0.929 . S
H1200 C1208 0.929 . S
H1201 C1210 0.930 . S
H1202 C1212 0.930 . S
H1203 C1215 0.929 . S
H1204 C1218 0.930 . S
H1205 C1220 0.960 . S
H1206 C1220 0.960 . S
H1207 C1220 0.960 . S
C1208 H1200 0.929 . S
C1208 C1209 1.374 1_565 S
C1208 C1210 1.384 . S
C1209 C1208 1.374 1_545 S
C1209 C1215 1.393 . S
C1210 H1201 0.930 . S
C1210 C1208 1.384 . S
C1210 C1211 1.384 . S
C1211 C1210 1.384 . S
C1211 C1212 1.388 1_565 S
C1211 C1216 1.491 . S
C1212 H1202 0.930 . S
C1212 C1211 1.388 1_545 S
C1212 C1215 1.386 . S
H1213 C1229 0.930 . S
H1214 C1230 0.931 . S
C1215 H1203 0.929 . S
C1215 C1209 1.393 . S
C1215 C1212 1.386 . S
C1216 C1211 1.491 . S
C1216 C1218 1.395 . S
C1216 C1219 1.403 1_565 S
H1217 C1223 0.930 . S
C1218 H1204 0.930 . S
C1218 C1216 1.395 . S
C1218 C1221 1.403 . S
C1219 C1216 1.403 1_545 S
C1219 C1220 1.524 . S
C1219 C1223 1.400 . S
C1220 H1205 0.960 . S
C1220 H1206 0.960 . S
C1220 H1207 0.960 . S
C1220 C1219 1.524 . S
C1221 C1218 1.403 . S
C1221 C1222 1.392 . S
C1221 C1225 1.495 . S
C1222 C1221 1.392 . S
C1222 C1223 1.385 1_565 S
C1222 C1224 1.478 . S
C1223 H1217 0.930 . S
C1223 C1219 1.400 . S
C1223 C1222 1.385 1_545 S
C1224 C1222 1.478 . S
C1224 C1226 1.381 . S
C1224 C1230 1.383 1_565 S
C1225 C1221 1.495 . S
C1225 H1231 0.959 . S
C1225 H1232 0.961 . S
C1225 H1233 0.960 . S
C1226 C1224 1.381 . S
C1226 C1227 1.394 . S
C1226 H1234 0.930 . S
C1227 C1226 1.394 . S
C1227 C1228 1.383 . S
C1227 H1235 0.929 . S
C1228 C1227 1.383 . S
C1228 C1229 1.377 1_565 S
C1229 H1213 0.930 . S
C1229 C1228 1.377 1_545 S
C1229 C1230 1.379 . S
C1230 H1214 0.931 . S
C1230 C1224 1.383 1_545 S
C1230 C1229 1.379 . S
H1231 C1225 0.959 . S
H1232 C1225 0.961 . S
H1233 C1225 0.960 . S
H1234 C1226 0.930 . S
H1235 C1227 0.929 . S
H1236 C1244 0.929 . S
H1237 C1246 0.930 . S
H1238 C1248 0.930 . S
H1239 C1251 0.929 . S
H1240 C1254 0.930 . S
H1241 C1256 0.960 . S
H1242 C1256 0.960 . S
H1243 C1256 0.960 . S
C1244 H1236 0.929 . S
C1244 C1245 1.377 . S
C1244 C1246 1.384 . S
C1245 C1244 1.377 . S
C1245 C1251 1.390 1_455 S
C1246 H1237 0.930 . S
C1246 C1244 1.384 . S
C1246 C1247 1.372 . S
C1247 C1246 1.372 . S
C1247 C1248 1.400 1_455 S
C1247 C1252 1.490 . S
C1248 H1238 0.930 . S
C1248 C1247 1.400 1_655 S
C1248 C1251 1.386 . S
H1249 C1265 0.930 . S
H1250 C1266 0.931 . S
C1251 H1239 0.929 . S
C1251 C1245 1.390 1_655 S
C1251 C1248 1.386 . S
C1252 C1247 1.490 . S
C1252 C1254 1.395 . S
C1252 C1255 1.403 1_455 S
H1253 C1259 0.930 . S
C1254 H1240 0.930 . S
C1254 C1252 1.395 . S
C1254 C1257 1.403 . S
C1255 C1252 1.403 1_655 S
C1255 C1256 1.524 . S
C1255 C1259 1.400 . S
C1256 H1241 0.960 . S
C1256 H1242 0.960 . S
C1256 H1243 0.960 . S
C1256 C1255 1.524 . S
C1257 C1254 1.403 . S
C1257 C1258 1.392 . S
C1257 C1261 1.495 . S
C1258 C1257 1.392 . S
C1258 C1259 1.385 1_455 S
C1258 C1260 1.478 . S
C1259 H1253 0.930 . S
C1259 C1255 1.400 . S
C1259 C1258 1.385 1_655 S
C1260 C1258 1.478 . S
C1260 C1262 1.381 . S
C1260 C1266 1.383 1_455 S
C1261 C1257 1.495 . S
C1261 H1267 0.959 . S
C1261 H1268 0.961 . S
C1261 H1269 0.960 . S
C1262 C1260 1.381 . S
C1262 C1263 1.394 . S
C1262 H1270 0.930 . S
C1263 C1262 1.394 . S
C1263 C1264 1.383 . S
C1263 H1271 0.929 . S
C1264 C1263 1.383 . S
C1264 C1265 1.377 1_455 S
C1265 H1249 0.930 . S
C1265 C1264 1.377 1_655 S
C1265 C1266 1.379 . S
C1266 H1250 0.931 . S
C1266 C1260 1.383 1_655 S
C1266 C1265 1.379 . S
H1267 C1261 0.959 . S
H1268 C1261 0.961 . S
H1269 C1261 0.960 . S
H1270 C1262 0.930 . S
H1271 C1263 0.929 . S
H1272 C1280 0.929 . S
H1273 C1282 0.930 . S
H1274 C1284 0.930 . S
H1275 C1287 0.929 . S
H1276 C1290 0.930 . S
H1277 C1292 0.960 . S
H1278 C1292 0.960 . S
H1279 C1292 0.960 . S
C1280 H1272 0.929 . S
C1280 C1281 1.381 . S
C1280 C1282 1.384 . S
C1281 C1280 1.381 . S
C1281 C1287 1.386 1_565 S
C1282 H1273 0.930 . S
C1282 C1280 1.384 . S
C1282 C1283 1.386 . S
C1283 C1282 1.386 . S
C1283 C1284 1.386 1_565 S
C1283 C1288 1.490 . S
C1284 H1274 0.930 . S
C1284 C1283 1.386 1_545 S
C1284 C1287 1.386 . S
H1285 C1301 0.930 . S
H1286 C1302 0.931 . S
C1287 H1275 0.929 . S
C1287 C1281 1.386 1_545 S
C1287 C1284 1.386 . S
C1288 C1283 1.490 . S
C1288 C1290 1.393 1_565 S
C1288 C1291 1.404 . S
H1289 C1295 0.930 . S
C1290 H1276 0.930 . S
C1290 C1288 1.393 1_545 S
C1290 C1293 1.403 . S
C1291 C1288 1.404 . S
C1291 C1292 1.524 . S
C1291 C1295 1.400 . S
C1292 H1277 0.960 . S
C1292 H1278 0.960 . S
C1292 H1279 0.960 . S
C1292 C1291 1.524 . S
C1293 C1290 1.403 . S
C1293 C1294 1.392 . S
C1293 C1297 1.495 . S
C1294 C1293 1.392 . S
C1294 C1295 1.385 1_545 S
C1294 C1296 1.478 . S
C1295 H1289 0.930 . S
C1295 C1291 1.400 . S
C1295 C1294 1.385 1_565 S
C1296 C1294 1.478 . S
C1296 C1298 1.381 1_545 S
C1296 C1302 1.383 . S
C1297 C1293 1.495 . S
C1297 H1303 0.959 . S
C1297 H1304 0.961 . S
C1297 H1305 0.960 . S
C1298 C1296 1.381 1_565 S
C1298 C1299 1.394 . S
C1298 H1306 0.930 . S
C1299 C1298 1.394 . S
C1299 C1300 1.383 1_565 S
C1299 H1307 0.929 . S
C1300 C1299 1.383 1_545 S
C1300 C1301 1.377 . S
C1301 H1285 0.930 . S
C1301 C1300 1.377 . S
C1301 C1302 1.379 . S
C1302 H1286 0.931 . S
C1302 C1296 1.383 . S
C1302 C1301 1.379 . S
H1303 C1297 0.959 . S
H1304 C1297 0.961 . S
H1305 C1297 0.960 . S
H1306 C1298 0.930 . S
H1307 C1299 0.929 . S
H1308 C1316 0.929 . S
H1309 C1318 0.930 . S
H1310 C1320 0.930 . S
H1311 C1323 0.929 . S
H1312 C1326 0.930 . S
H1313 C1328 0.960 . S
H1314 C1328 0.960 . S
H1315 C1328 0.960 1_455 S
C1316 H1308 0.929 . S
C1316 C1317 1.377 1_655 S
C1316 C1318 1.384 . S
C1317 C1316 1.377 1_455 S
C1317 C1323 1.390 . S
C1318 H1309 0.930 . S
C1318 C1316 1.384 . S
C1318 C1319 1.372 1_655 S
C1319 C1318 1.372 1_455 S
C1319 C1320 1.400 . S
C1319 C1324 1.490 . S
C1320 H1310 0.930 . S
C1320 C1319 1.400 . S
C1320 C1323 1.386 . S
H1321 C1337 0.930 . S
H1322 C1338 0.931 . S
C1323 H1311 0.929 . S
C1323 C1317 1.390 . S
C1323 C1320 1.386 . S
C1324 C1319 1.490 . S
C1324 C1326 1.395 . S
C1324 C1327 1.403 1_455 S
H1325 C1331 0.930 . S
C1326 H1312 0.930 . S
C1326 C1324 1.395 . S
C1326 C1329 1.403 . S
C1327 C1324 1.403 1_655 S
C1327 C1328 1.524 . S
C1327 C1331 1.400 . S
C1328 H1313 0.960 . S
C1328 H1314 0.960 . S
C1328 H1315 0.960 1_655 S
C1328 C1327 1.524 . S
C1329 C1326 1.403 . S
C1329 C1330 1.392 . S
C1329 C1333 1.495 . S
C1330 C1329 1.392 . S
C1330 C1331 1.385 1_455 S
C1330 C1332 1.478 . S
C1331 H1325 0.930 . S
C1331 C1327 1.400 . S
C1331 C1330 1.385 1_655 S
C1332 C1330 1.478 . S
C1332 C1334 1.381 1_455 S
C1332 C1338 1.383 . S
C1333 C1329 1.495 . S
C1333 H1339 0.959 . S
C1333 H1340 0.961 . S
C1333 H1341 0.960 . S
C1334 C1332 1.381 1_655 S
C1334 C1335 1.394 . S
C1334 H1342 0.930 . S
C1335 C1334 1.394 . S
C1335 C1336 1.383 1_655 S
C1335 H1343 0.929 . S
C1336 C1335 1.383 1_455 S
C1336 C1337 1.377 . S
C1337 H1321 0.930 . S
C1337 C1336 1.377 . S
C1337 C1338 1.379 . S
C1338 H1322 0.931 . S
C1338 C1332 1.383 . S
C1338 C1337 1.379 . S
H1339 C1333 0.959 . S
H1340 C1333 0.961 . S
H1341 C1333 0.960 . S
H1342 C1334 0.930 . S
H1343 C1335 0.929 . S
H1344 C1352 0.929 . S
H1345 C1354 0.930 . S
H1346 C1356 0.930 . S
H1347 C1359 0.929 . S
H1348 C1362 0.930 . S
H1349 C1364 0.960 . S
H1350 C1364 0.960 . S
H1351 C1364 0.960 . S
C1352 H1344 0.929 . S
C1352 C1353 1.339 1_565 S
C1352 C1354 1.384 . S
C1353 C1352 1.339 1_545 S
C1353 C1359 1.428 . S
C1354 H1345 0.930 . S
C1354 C1352 1.384 . S
C1354 C1355 1.379 . S
C1355 C1354 1.379 . S
C1355 C1356 1.392 1_565 S
C1355 C1360 1.490 . S
C1356 H1346 0.930 . S
C1356 C1355 1.392 1_545 S
C1356 C1359 1.386 . S
H1357 C1373 0.930 . S
H1358 C1374 0.931 . S
C1359 H1347 0.929 . S
C1359 C1353 1.428 . S
C1359 C1356 1.386 . S
C1360 C1355 1.490 . S
C1360 C1362 1.404 . S
C1360 C1363 1.395 1_565 S
H1361 C1367 0.930 . S
C1362 H1348 0.930 . S
C1362 C1360 1.404 . S
C1362 C1365 1.403 . S
C1363 C1360 1.395 1_545 S
C1363 C1364 1.524 . S
C1363 C1367 1.400 . S
C1364 H1349 0.960 . S
C1364 H1350 0.960 . S
C1364 H1351 0.960 . S
C1364 C1363 1.524 . S
C1365 C1362 1.403 . S
C1365 C1366 1.392 . S
C1365 C1369 1.495 . S
C1366 C1365 1.392 . S
C1366 C1367 1.385 1_565 S
C1366 C1368 1.479 . S
C1367 H1361 0.930 . S
C1367 C1363 1.400 . S
C1367 C1366 1.385 1_545 S
C1368 C1366 1.479 . S
C1368 C1370 1.421 . S
C1368 C1374 1.343 1_565 S
C1369 C1365 1.495 . S
C1369 H1375 0.959 . S
C1369 H1376 0.961 . S
C1369 H1377 0.960 . S
C1370 C1368 1.421 . S
C1370 C1371 1.394 . S
C1370 H1378 0.930 . S
C1371 C1370 1.394 . S
C1371 C1372 1.375 1_565 S
C1371 H1379 0.929 . S
C1372 C1371 1.375 1_545 S
C1372 C1373 1.385 . S
C1373 H1357 0.930 . S
C1373 C1372 1.385 . S
C1373 C1374 1.379 . S
C1374 H1358 0.931 . S
C1374 C1368 1.343 1_545 S
C1374 C1373 1.379 . S
H1375 C1369 0.959 . S
H1376 C1369 0.961 . S
H1377 C1369 0.960 . S
H1378 C1370 0.930 . S
H1379 C1371 0.929 . S
H1380 C1388 0.929 . S
H1381 C1390 0.930 . S
H1382 C1392 0.930 . S
H1383 C1395 0.929 . S
H1384 C1398 0.930 . S
H1385 C1400 0.960 . S
H1386 C1400 0.960 . S
H1387 C1400 0.960 . S
C1388 H1380 0.929 . S
C1388 C1389 1.377 1_655 S
C1388 C1390 1.384 . S
C1389 C1388 1.377 1_455 S
C1389 C1395 1.390 . S
C1390 H1381 0.930 . S
C1390 C1388 1.384 . S
C1390 C1391 1.372 1_655 S
C1391 C1390 1.372 1_455 S
C1391 C1392 1.400 . S
C1391 C1396 1.490 . S
C1392 H1382 0.930 . S
C1392 C1391 1.400 . S
C1392 C1395 1.386 . S
H1393 C1409 0.930 . S
H1394 C1410 0.931 . S
C1395 H1383 0.929 . S
C1395 C1389 1.390 . S
C1395 C1392 1.386 . S
C1396 C1391 1.490 . S
C1396 C1398 1.395 1_455 S
C1396 C1399 1.403 . S
H1397 C1403 0.930 . S
C1398 H1384 0.930 . S
C1398 C1396 1.395 1_655 S
C1398 C1401 1.403 . S
C1399 C1396 1.403 . S
C1399 C1400 1.524 . S
C1399 C1403 1.400 . S
C1400 H1385 0.960 . S
C1400 H1386 0.960 . S
C1400 H1387 0.960 . S
C1400 C1399 1.524 . S
C1401 C1398 1.403 . S
C1401 C1402 1.359 1_655 S
C1401 C1405 1.495 . S
C1402 C1401 1.359 1_455 S
C1402 C1403 1.421 . S
C1402 C1404 1.479 . S
C1403 H1397 0.930 . S
C1403 C1399 1.400 . S
C1403 C1402 1.421 . S
C1404 C1402 1.479 . S
C1404 C1406 1.381 1_455 S
C1404 C1410 1.383 . S
C1405 C1401 1.495 . S
C1405 H1411 0.959 . S
C1405 H1412 0.961 . S
C1405 H1413 0.960 . S
C1406 C1404 1.381 1_655 S
C1406 C1407 1.394 . S
C1406 H1414 0.930 . S
C1407 C1406 1.394 . S
C1407 C1408 1.383 1_655 S
C1407 H1415 0.929 . S
C1408 C1407 1.383 1_455 S
C1408 C1409 1.377 . S
C1409 H1393 0.930 . S
C1409 C1408 1.377 . S
C1409 C1410 1.379 . S
C1410 H1394 0.931 . S
C1410 C1404 1.383 . S
C1410 C1409 1.379 . S
H1411 C1405 0.959 . S
H1412 C1405 0.961 . S
H1413 C1405 0.960 . S
H1414 C1406 0.930 . S
H1415 C1407 0.929 . S
H1416 C1424 0.929 . S
H1417 C1426 0.930 . S
H1418 C1428 0.930 . S
H1419 C1431 0.929 . S
H1420 C1434 0.930 . S
H1421 C1436 0.960 . S
H1422 C1436 0.960 . S
H1423 C1436 0.960 . S
C1424 H1416 0.929 . S
C1424 C1425 1.377 1_565 S
C1424 C1426 1.384 . S
C1425 C1424 1.377 1_545 S
C1425 C1431 1.390 . S
C1426 H1417 0.930 . S
C1426 C1424 1.384 . S
C1426 C1427 1.372 1_565 S
C1427 C1426 1.372 1_545 S
C1427 C1428 1.400 . S
C1427 C1432 1.490 . S
C1428 H1418 0.930 . S
C1428 C1427 1.400 . S
C1428 C1431 1.386 . S
H1429 C1445 0.928 1_545 S
H1430 C1446 0.931 . S
C1431 H1419 0.929 . S
C1431 C1425 1.390 . S
C1431 C1428 1.386 . S
C1432 C1427 1.490 . S
C1432 C1434 1.388 1_545 S
C1432 C1435 1.409 . S
H1433 C1439 0.930 . S
C1434 H1420 0.930 . S
C1434 C1432 1.388 1_565 S
C1434 C1437 1.403 . S
C1435 C1432 1.409 . S
C1435 C1436 1.524 . S
C1435 C1439 1.400 . S
C1436 H1421 0.960 . S
C1436 H1422 0.960 . S
C1436 H1423 0.960 . S
C1436 C1435 1.524 . S
C1437 C1434 1.403 . S
C1437 C1438 1.392 . S
C1437 C1441 1.495 . S
C1438 C1437 1.392 . S
C1438 C1439 1.385 1_565 S
C1438 C1440 1.478 . S
C1439 H1433 0.930 . S
C1439 C1435 1.400 . S
C1439 C1438 1.385 1_545 S
C1440 C1438 1.478 . S
C1440 C1442 1.381 . S
C1440 C1446 1.383 . S
C1441 C1437 1.495 . S
C1441 H1447 0.959 . S
C1441 H1448 0.961 . S
C1441 H1449 0.960 . S
C1442 C1440 1.381 . S
C1442 C1443 1.394 . S
C1442 H1450 0.930 . S
C1443 C1442 1.394 . S
C1443 C1444 1.387 . S
C1443 H1451 0.929 . S
C1444 C1443 1.387 . S
C1444 C1445 1.377 . S
C1445 H1429 0.928 1_565 S
C1445 C1444 1.377 . S
C1445 C1446 1.383 . S
C1446 H1430 0.931 . S
C1446 C1440 1.383 . S
C1446 C1445 1.383 . S
H1447 C1441 0.959 . S
H1448 C1441 0.961 . S
H1449 C1441 0.960 . S
H1450 C1442 0.930 . S
H1451 C1443 0.929 . S
H1452 C1460 0.929 . S
H1453 C1462 0.930 . S
H1454 C1464 0.930 . S
H1455 C1467 0.929 . S
H1456 C1470 0.930 . S
H1457 C1472 0.960 . S
H1458 C1472 0.960 . S
H1459 C1472 0.960 1_455 S
C1460 H1452 0.929 . S
C1460 C1461 1.377 1_655 S
C1460 C1462 1.384 . S
C1461 C1460 1.377 1_455 S
C1461 C1467 1.390 . S
C1462 H1453 0.930 . S
C1462 C1460 1.384 . S
C1462 C1463 1.372 1_655 S
C1463 C1462 1.372 1_455 S
C1463 C1464 1.400 . S
C1463 C1468 1.490 . S
C1464 H1454 0.930 . S
C1464 C1463 1.400 . S
C1464 C1467 1.386 . S
H1465 C1481 0.930 . S
H1466 C1482 0.931 . S
C1467 H1455 0.929 . S
C1467 C1461 1.390 . S
C1467 C1464 1.386 . S
C1468 C1463 1.490 . S
C1468 C1470 1.395 . S
C1468 C1471 1.403 1_455 S
H1469 C1475 0.930 . S
C1470 H1456 0.930 . S
C1470 C1468 1.395 . S
C1470 C1473 1.403 . S
C1471 C1468 1.403 1_655 S
C1471 C1472 1.524 . S
C1471 C1475 1.400 . S
C1472 H1457 0.960 . S
C1472 H1458 0.960 . S
C1472 H1459 0.960 1_655 S
C1472 C1471 1.524 . S
C1473 C1470 1.403 . S
C1473 C1474 1.392 . S
C1473 C1477 1.495 . S
C1474 C1473 1.392 . S
C1474 C1475 1.385 1_455 S
C1474 C1476 1.478 . S
C1475 H1469 0.930 . S
C1475 C1471 1.400 . S
C1475 C1474 1.385 1_655 S
C1476 C1474 1.478 . S
C1476 C1478 1.381 1_455 S
C1476 C1482 1.383 . S
C1477 C1473 1.495 . S
C1477 H1483 0.959 . S
C1477 H1484 0.961 . S
C1477 H1485 0.960 . S
C1478 C1476 1.381 1_655 S
C1478 C1479 1.394 . S
C1478 H1486 0.930 . S
C1479 C1478 1.394 . S
C1479 C1480 1.383 1_655 S
C1479 H1487 0.929 . S
C1480 C1479 1.383 1_455 S
C1480 C1481 1.377 . S
C1481 H1465 0.930 . S
C1481 C1480 1.377 . S
C1481 C1482 1.379 . S
C1482 H1466 0.931 . S
C1482 C1476 1.383 . S
C1482 C1481 1.379 . S
H1483 C1477 0.959 . S
H1484 C1477 0.961 . S
H1485 C1477 0.960 . S
H1486 C1478 0.930 . S
H1487 C1479 0.929 . S
H1488 C1496 0.929 . S
H1489 C1498 0.930 . S
H1490 C1500 0.930 . S
H1491 C1503 0.929 . S
H1492 C1506 0.930 . S
H1493 C1508 0.960 . S
H1494 C1508 0.960 . S
H1495 C1508 0.960 . S
C1496 H1488 0.929 . S
C1496 C1497 1.377 . S
C1496 C1498 1.384 . S
C1497 C1496 1.377 . S
C1497 C1503 1.390 1_545 S
C1498 H1489 0.930 . S
C1498 C1496 1.384 . S
C1498 C1499 1.372 . S
C1499 C1498 1.372 . S
C1499 C1500 1.400 1_545 S
C1499 C1504 1.490 . S
C1500 H1490 0.930 . S
C1500 C1499 1.400 1_565 S
C1500 C1503 1.386 . S
H1501 C1517 0.930 . S
H1502 C1518 0.931 . S
C1503 H1491 0.929 . S
C1503 C1497 1.390 1_565 S
C1503 C1500 1.386 . S
C1504 C1499 1.490 . S
C1504 C1506 1.395 1_545 S
C1504 C1507 1.403 . S
H1505 C1511 0.930 . S
C1506 H1492 0.930 . S
C1506 C1504 1.395 1_565 S
C1506 C1509 1.403 . S
C1507 C1504 1.403 . S
C1507 C1508 1.524 . S
C1507 C1511 1.400 . S
C1508 H1493 0.960 . S
C1508 H1494 0.960 . S
C1508 H1495 0.960 . S
C1508 C1507 1.524 . S
C1509 C1506 1.403 . S
C1509 C1510 1.392 . S
C1509 C1513 1.495 . S
C1510 C1509 1.392 . S
C1510 C1511 1.385 1_565 S
C1510 C1512 1.478 . S
C1511 H1505 0.930 . S
C1511 C1507 1.400 . S
C1511 C1510 1.385 1_545 S
C1512 C1510 1.478 . S
C1512 C1514 1.381 1_565 S
C1512 C1518 1.383 . S
C1513 C1509 1.495 . S
C1513 H1519 0.959 . S
C1513 H1520 0.961 . S
C1513 H1521 0.960 . S
C1514 C1512 1.381 1_545 S
C1514 C1515 1.394 . S
C1514 H1522 0.930 . S
C1515 C1514 1.394 . S
C1515 C1516 1.374 1_545 S
C1515 H1523 0.929 . S
C1516 C1515 1.374 1_565 S
C1516 C1517 1.386 . S
C1517 H1501 0.930 . S
C1517 C1516 1.386 . S
C1517 C1518 1.379 . S
C1518 H1502 0.931 . S
C1518 C1512 1.383 . S
C1518 C1517 1.379 . S
H1519 C1513 0.959 . S
H1520 C1513 0.961 . S
H1521 C1513 0.960 . S
H1522 C1514 0.930 . S
H1523 C1515 0.929 . S
H1524 C1532 0.929 . S
H1525 C1534 0.930 . S
H1526 C1536 0.930 . S
H1527 C1539 0.929 . S
H1528 C1542 0.930 . S
H1529 C1544 0.960 . S
H1530 C1544 0.960 . S
H1531 C1544 0.960 . S
C1532 H1524 0.929 . S
C1532 C1533 1.377 . S
C1532 C1534 1.384 . S
C1533 C1532 1.377 . S
C1533 C1539 1.390 1_455 S
C1534 H1525 0.930 . S
C1534 C1532 1.384 . S
C1534 C1535 1.372 . S
C1535 C1534 1.372 . S
C1535 C1536 1.400 1_455 S
C1535 C1540 1.490 . S
C1536 H1526 0.930 . S
C1536 C1535 1.400 1_655 S
C1536 C1539 1.386 . S
H1537 C1553 0.930 . S
H1538 C1554 0.925 1_655 S
C1539 H1527 0.929 . S
C1539 C1533 1.390 1_655 S
C1539 C1536 1.386 . S
C1540 C1535 1.490 . S
C1540 C1542 1.395 . S
C1540 C1543 1.403 1_455 S
H1541 C1547 0.930 . S
C1542 H1528 0.930 . S
C1542 C1540 1.395 . S
C1542 C1545 1.403 . S
C1543 C1540 1.403 1_655 S
C1543 C1544 1.524 . S
C1543 C1547 1.400 . S
C1544 H1529 0.960 . S
C1544 H1530 0.960 . S
C1544 H1531 0.960 . S
C1544 C1543 1.524 . S
C1545 C1542 1.403 . S
C1545 C1546 1.392 . S
C1545 C1549 1.495 . S
C1546 C1545 1.392 . S
C1546 C1547 1.385 1_455 S
C1546 C1548 1.478 . S
C1547 H1541 0.930 . S
C1547 C1543 1.400 . S
C1547 C1546 1.385 1_655 S
C1548 C1546 1.478 . S
C1548 C1550 1.381 . S
C1548 C1554 1.392 . S
C1549 C1545 1.495 . S
C1549 H1555 0.959 . S
C1549 H1556 0.961 . S
C1549 H1557 0.960 . S
C1550 C1548 1.381 . S
C1550 C1551 1.394 . S
C1550 H1558 0.930 . S
C1551 C1550 1.394 . S
C1551 C1552 1.383 . S
C1551 H1559 0.929 . S
C1552 C1551 1.383 . S
C1552 C1553 1.377 1_455 S
C1553 H1537 0.930 . S
C1553 C1552 1.377 1_655 S
C1553 C1554 1.377 1_655 S
C1554 H1538 0.925 1_455 S
C1554 C1548 1.392 . S
C1554 C1553 1.377 1_455 S
H1555 C1549 0.959 . S
H1556 C1549 0.961 . S
H1557 C1549 0.960 . S
H1558 C1550 0.930 . S
H1559 C1551 0.929 . S
H1560 C1568 0.929 . S
H1561 C1570 0.930 . S
H1562 C1572 0.930 . S
H1563 C1575 0.929 . S
H1564 C1578 0.930 . S
H1565 C1580 0.960 . S
H1566 C1580 0.960 . S
H1567 C1580 0.960 . S
C1568 H1560 0.929 . S
C1568 C1569 1.377 . S
C1568 C1570 1.384 . S
C1569 C1568 1.377 . S
C1569 C1575 1.390 1_545 S
C1570 H1561 0.930 . S
C1570 C1568 1.384 . S
C1570 C1571 1.372 . S
C1571 C1570 1.372 . S
C1571 C1572 1.400 1_545 S
C1571 C1576 1.490 . S
C1572 H1562 0.930 . S
C1572 C1571 1.400 1_565 S
C1572 C1575 1.386 . S
H1573 C1589 0.930 . S
H1574 C1590 0.931 . S
C1575 H1563 0.929 . S
C1575 C1569 1.390 1_565 S
C1575 C1572 1.386 . S
C1576 C1571 1.490 . S
C1576 C1578 1.395 1_545 S
C1576 C1579 1.403 . S
H1577 C1583 0.930 . S
C1578 H1564 0.930 . S
C1578 C1576 1.395 1_565 S
C1578 C1581 1.403 . S
C1579 C1576 1.403 . S
C1579 C1580 1.524 . S
C1579 C1583 1.400 . S
C1580 H1565 0.960 . S
C1580 H1566 0.960 . S
C1580 H1567 0.960 . S
C1580 C1579 1.524 . S
C1581 C1578 1.403 . S
C1581 C1582 1.412 . S
C1581 C1585 1.495 . S
C1582 C1581 1.412 . S
C1582 C1583 1.364 1_565 S
C1582 C1584 1.479 . S
C1583 H1577 0.930 . S
C1583 C1579 1.400 . S
C1583 C1582 1.364 1_545 S
C1584 C1582 1.479 . S
C1584 C1586 1.381 1_565 S
C1584 C1590 1.383 . S
C1585 C1581 1.495 . S
C1585 H1591 0.959 . S
C1585 H1592 0.961 . S
C1585 H1593 0.960 . S
C1586 C1584 1.381 1_545 S
C1586 C1587 1.394 . S
C1586 H1594 0.930 . S
C1587 C1586 1.394 . S
C1587 C1588 1.377 1_545 S
C1587 H1595 0.929 . S
C1588 C1587 1.377 1_565 S
C1588 C1589 1.383 . S
C1589 H1573 0.930 . S
C1589 C1588 1.383 . S
C1589 C1590 1.379 . S
C1590 H1574 0.931 . S
C1590 C1584 1.383 . S
C1590 C1589 1.379 . S
H1591 C1585 0.959 . S
H1592 C1585 0.961 . S
H1593 C1585 0.960 . S
H1594 C1586 0.930 . S
H1595 C1587 0.929 . S
H1596 C1604 0.929 . S
H1597 C1606 0.930 . S
H1598 C1608 0.930 . S
H1599 C1611 0.929 . S
H1600 C1614 0.930 . S
H1601 C1616 0.960 . S
H1602 C1616 0.960 . S
H1603 C1616 0.960 . S
C1604 H1596 0.929 . S
C1604 C1605 1.377 1_655 S
C1604 C1606 1.384 . S
C1605 C1604 1.377 1_455 S
C1605 C1611 1.390 . S
C1606 H1597 0.930 . S
C1606 C1604 1.384 . S
C1606 C1607 1.372 1_655 S
C1607 C1606 1.372 1_455 S
C1607 C1608 1.400 . S
C1607 C1612 1.490 . S
C1608 H1598 0.930 . S
C1608 C1607 1.400 . S
C1608 C1611 1.386 . S
H1609 C1625 0.930 . S
H1610 C1626 0.931 . S
C1611 H1599 0.929 . S
C1611 C1605 1.390 . S
C1611 C1608 1.386 . S
C1612 C1607 1.490 . S
C1612 C1614 1.395 1_455 S
C1612 C1615 1.403 . S
H1613 C1619 0.930 . S
C1614 H1600 0.930 . S
C1614 C1612 1.395 1_655 S
C1614 C1617 1.403 . S
C1615 C1612 1.403 . S
C1615 C1616 1.524 . S
C1615 C1619 1.400 . S
C1616 H1601 0.960 . S
C1616 H1602 0.960 . S
C1616 H1603 0.960 . S
C1616 C1615 1.524 . S
C1617 C1614 1.403 . S
C1617 C1618 1.392 1_655 S
C1617 C1621 1.495 . S
C1618 C1617 1.392 1_455 S
C1618 C1619 1.385 . S
C1618 C1620 1.478 . S
C1619 H1613 0.930 . S
C1619 C1615 1.400 . S
C1619 C1618 1.385 . S
C1620 C1618 1.478 . S
C1620 C1622 1.371 1_455 S
C1620 C1626 1.393 . S
C1621 C1617 1.495 . S
C1621 H1627 0.959 . S
C1621 H1628 0.961 . S
C1621 H1629 0.960 . S
C1622 C1620 1.371 1_655 S
C1622 C1623 1.394 . S
C1622 H1630 0.930 . S
C1623 C1622 1.394 . S
C1623 C1624 1.383 1_655 S
C1623 H1631 0.929 . S
C1624 C1623 1.383 1_455 S
C1624 C1625 1.377 . S
C1625 H1609 0.930 . S
C1625 C1624 1.377 . S
C1625 C1626 1.379 . S
C1626 H1610 0.931 . S
C1626 C1620 1.393 . S
C1626 C1625 1.379 . S
H1627 C1621 0.959 . S
H1628 C1621 0.961 . S
H1629 C1621 0.960 . S
H1630 C1622 0.930 . S
H1631 C1623 0.929 . S
H1632 C1640 0.929 . S
H1633 C1642 0.930 . S
H1634 C1644 0.930 . S
H1635 C1647 0.929 . S
H1636 C1650 0.930 . S
H1637 C1652 0.960 . S
H1638 C1652 0.960 . S
H1639 C1652 0.960 1_565 S
C1640 H1632 0.929 . S
C1640 C1641 1.389 . S
C1640 C1642 1.384 . S
C1641 C1640 1.389 . S
C1641 C1647 1.378 1_545 S
C1642 H1633 0.930 . S
C1642 C1640 1.384 . S
C1642 C1643 1.372 . S
C1643 C1642 1.372 . S
C1643 C1644 1.400 1_545 S
C1643 C1648 1.490 . S
C1644 H1634 0.930 . S
C1644 C1643 1.400 1_565 S
C1644 C1647 1.386 . S
H1645 C1661 0.930 . S
H1646 C1662 0.931 . S
C1647 H1635 0.929 . S
C1647 C1641 1.378 1_565 S
C1647 C1644 1.386 . S
C1648 C1643 1.490 . S
C1648 C1650 1.395 . S
C1648 C1651 1.403 . S
H1649 C1655 0.930 . S
C1650 H1636 0.930 . S
C1650 C1648 1.395 . S
C1650 C1653 1.403 . S
C1651 C1648 1.403 . S
C1651 C1652 1.524 . S
C1651 C1655 1.401 . S
C1652 H1637 0.960 . S
C1652 H1638 0.960 . S
C1652 H1639 0.960 1_545 S
C1652 C1651 1.524 . S
C1653 C1650 1.403 . S
C1653 C1654 1.392 . S
C1653 C1657 1.495 . S
C1654 C1653 1.392 . S
C1654 C1655 1.386 . S
C1654 C1656 1.478 . S
C1655 H1649 0.930 . S
C1655 C1651 1.401 . S
C1655 C1654 1.386 . S
C1656 C1654 1.478 . S
C1656 C1658 1.401 . S
C1656 C1662 1.363 1_545 S
C1657 C1653 1.495 . S
C1657 H1663 0.959 . S
C1657 H1664 0.961 1_545 S
C1657 H1665 0.960 . S
C1658 C1656 1.401 . S
C1658 C1659 1.394 . S
C1658 H1666 0.930 . S
C1659 C1658 1.394 . S
C1659 C1660 1.394 . S
C1659 H1667 0.929 . S
C1660 C1659 1.394 . S
C1660 C1661 1.366 1_545 S
C1661 H1645 0.930 . S
C1661 C1660 1.366 1_565 S
C1661 C1662 1.379 . S
C1662 H1646 0.931 . S
C1662 C1656 1.363 1_565 S
C1662 C1661 1.379 . S
H1663 C1657 0.959 . S
H1664 C1657 0.961 1_565 S
H1665 C1657 0.960 . S
H1666 C1658 0.930 . S
H1667 C1659 0.929 . S
H1668 C1676 0.929 . S
H1669 C1678 0.930 . S
H1670 C1680 0.930 . S
H1671 C1683 0.929 . S
H1672 C1686 0.930 . S
H1673 C1688 0.960 . S
H1674 C1688 0.960 . S
H1675 C1688 0.960 1_655 S
C1676 H1668 0.929 . S
C1676 C1677 1.377 . S
C1676 C1678 1.384 . S
C1677 C1676 1.377 . S
C1677 C1683 1.390 1_455 S
C1678 H1669 0.930 . S
C1678 C1676 1.384 . S
C1678 C1679 1.372 . S
C1679 C1678 1.372 . S
C1679 C1680 1.400 1_455 S
C1679 C1684 1.490 . S
C1680 H1670 0.930 . S
C1680 C1679 1.400 1_655 S
C1680 C1683 1.386 . S
H1681 C1697 0.930 . S
H1682 C1698 0.931 . S
C1683 H1671 0.929 . S
C1683 C1677 1.390 1_655 S
C1683 C1680 1.386 . S
C1684 C1679 1.490 . S
C1684 C1686 1.395 . S
C1684 C1687 1.403 . S
H1685 C1691 0.930 . S
C1686 H1672 0.930 . S
C1686 C1684 1.395 . S
C1686 C1689 1.403 . S
C1687 C1684 1.403 . S
C1687 C1688 1.524 . S
C1687 C1691 1.400 . S
C1688 H1673 0.960 . S
C1688 H1674 0.960 . S
C1688 H1675 0.960 1_455 S
C1688 C1687 1.524 . S
C1689 C1686 1.403 . S
C1689 C1690 1.392 . S
C1689 C1693 1.495 . S
C1690 C1689 1.392 . S
C1690 C1691 1.385 . S
C1690 C1692 1.478 . S
C1691 H1685 0.930 . S
C1691 C1687 1.400 . S
C1691 C1690 1.385 . S
C1692 C1690 1.478 . S
C1692 C1694 1.381 . S
C1692 C1698 1.383 1_455 S
C1693 C1689 1.495 . S
C1693 H1699 0.959 . S
C1693 H1700 0.961 1_455 S
C1693 H1701 0.960 . S
C1694 C1692 1.381 . S
C1694 C1695 1.394 . S
C1694 H1702 0.930 . S
C1695 C1694 1.394 . S
C1695 C1696 1.383 . S
C1695 H1703 0.929 . S
C1696 C1695 1.383 . S
C1696 C1697 1.377 1_455 S
C1697 H1681 0.930 . S
C1697 C1696 1.377 1_655 S
C1697 C1698 1.379 . S
C1698 H1682 0.931 . S
C1698 C1692 1.383 1_655 S
C1698 C1697 1.379 . S
H1699 C1693 0.959 . S
H1700 C1693 0.961 1_655 S
H1701 C1693 0.960 . S
H1702 C1694 0.930 . S
H1703 C1695 0.929 . S
H1704 C1712 0.929 . S
H1705 C1714 0.930 . S
H1706 C1716 0.930 . S
H1707 C1719 0.929 . S
H1708 C1722 0.930 . S
H1709 C1724 0.960 . S
H1710 C1724 0.960 . S
H1711 C1724 0.960 . S
C1712 H1704 0.929 . S
C1712 C1713 1.378 1_565 S
C1712 C1714 1.384 . S
C1713 C1712 1.378 1_545 S
C1713 C1719 1.389 . S
C1714 H1705 0.930 . S
C1714 C1712 1.384 . S
C1714 C1715 1.386 . S
C1715 C1714 1.386 . S
C1715 C1716 1.386 1_565 S
C1715 C1720 1.491 . S
C1716 H1706 0.930 . S
C1716 C1715 1.386 1_545 S
C1716 C1719 1.386 . S
H1717 C1733 0.930 . S
H1718 C1734 0.931 . S
C1719 H1707 0.929 . S
C1719 C1713 1.389 . S
C1719 C1716 1.386 . S
C1720 C1715 1.491 . S
C1720 C1722 1.395 . S
C1720 C1723 1.403 1_565 S
H1721 C1727 0.930 . S
C1722 H1708 0.930 . S
C1722 C1720 1.395 . S
C1722 C1725 1.403 . S
C1723 C1720 1.403 1_545 S
C1723 C1724 1.524 . S
C1723 C1727 1.400 . S
C1724 H1709 0.960 . S
C1724 H1710 0.960 . S
C1724 H1711 0.960 . S
C1724 C1723 1.524 . S
C1725 C1722 1.403 . S
C1725 C1726 1.392 . S
C1725 C1729 1.495 . S
C1726 C1725 1.392 . S
C1726 C1727 1.385 1_565 S
C1726 C1728 1.478 . S
C1727 H1721 0.930 . S
C1727 C1723 1.400 . S
C1727 C1726 1.385 1_545 S
C1728 C1726 1.478 . S
C1728 C1730 1.381 . S
C1728 C1734 1.383 1_565 S
C1729 C1725 1.495 . S
C1729 H1735 0.959 . S
C1729 H1736 0.961 . S
C1729 H1737 0.960 . S
C1730 C1728 1.381 . S
C1730 C1731 1.394 . S
C1730 H1738 0.930 . S
C1731 C1730 1.394 . S
C1731 C1732 1.383 . S
C1731 H1739 0.929 . S
C1732 C1731 1.383 . S
C1732 C1733 1.377 1_565 S
C1733 H1717 0.930 . S
C1733 C1732 1.377 1_545 S
C1733 C1734 1.379 . S
C1734 H1718 0.931 . S
C1734 C1728 1.383 1_545 S
C1734 C1733 1.379 . S
H1735 C1729 0.959 . S
H1736 C1729 0.961 . S
H1737 C1729 0.960 . S
H1738 C1730 0.930 . S
H1739 C1731 0.929 . S
H1740 C1748 0.929 . S
H1741 C1750 0.930 . S
H1742 C1752 0.930 . S
H1743 C1755 0.929 . S
H1744 C1758 0.930 . S
H1745 C1760 0.960 . S
H1746 C1760 0.960 . S
H1747 C1760 0.991 . S
C1748 H1740 0.929 . S
C1748 C1749 1.377 . S
C1748 C1750 1.384 . S
C1749 C1748 1.377 . S
C1749 C1755 1.390 1_545 S
C1750 H1741 0.930 . S
C1750 C1748 1.384 . S
C1750 C1751 1.372 . S
C1751 C1750 1.372 . S
C1751 C1752 1.400 1_545 S
C1751 C1756 1.490 . S
C1752 H1742 0.930 . S
C1752 C1751 1.400 1_565 S
C1752 C1755 1.386 . S
H1753 C1769 0.930 . S
H1754 C1770 0.931 . S
C1755 H1743 0.929 . S
C1755 C1749 1.390 1_565 S
C1755 C1752 1.386 . S
C1756 C1751 1.490 . S
C1756 C1758 1.395 1_545 S
C1756 C1759 1.403 . S
H1757 C1763 0.930 . S
C1758 H1744 0.930 . S
C1758 C1756 1.395 1_565 S
C1758 C1761 1.403 . S
C1759 C1756 1.403 . S
C1759 C1760 1.524 . S
C1759 C1763 1.400 . S
C1760 H1745 0.960 . S
C1760 H1746 0.960 . S
C1760 H1747 0.991 . S
C1760 C1759 1.524 . S
C1761 C1758 1.403 . S
C1761 C1762 1.388 1_565 S
C1761 C1765 1.495 . S
C1762 C1761 1.388 1_545 S
C1762 C1763 1.391 . S
C1762 C1764 1.477 1_545 S
C1763 H1757 0.930 . S
C1763 C1759 1.400 . S
C1763 C1762 1.391 . S
C1764 C1762 1.477 1_565 S
C1764 C1766 1.383 1_565 S
C1764 C1770 1.381 . S
C1765 C1761 1.495 . S
C1765 H1771 0.959 . S
C1765 H1772 0.961 . S
C1765 H1773 0.960 1_565 S
C1766 C1764 1.383 1_545 S
C1766 C1767 1.394 . S
C1766 H1774 0.930 . S
C1767 C1766 1.394 . S
C1767 C1768 1.392 . S
C1767 H1775 0.929 . S
C1768 C1767 1.392 . S
C1768 C1769 1.369 1_545 S
C1769 H1753 0.930 . S
C1769 C1768 1.369 1_565 S
C1769 C1770 1.379 . S
C1770 H1754 0.931 . S
C1770 C1764 1.381 . S
C1770 C1769 1.379 . S
H1771 C1765 0.959 . S
H1772 C1765 0.961 . S
H1773 C1765 0.960 1_545 S
H1774 C1766 0.930 . S
H1775 C1767 0.929 . S
H1776 C1784 0.929 . S
H1777 C1786 0.930 . S
H1778 C1788 0.930 . S
H1779 C1791 0.929 . S
H1780 C1794 0.930 . S
H1781 C1796 0.960 . S
H1782 C1796 0.960 . S
H1783 C1796 0.972 . S
C1784 H1776 0.929 . S
C1784 C1785 1.377 1_655 S
C1784 C1786 1.384 . S
C1785 C1784 1.377 1_455 S
C1785 C1791 1.390 . S
C1786 H1777 0.930 . S
C1786 C1784 1.384 . S
C1786 C1787 1.372 1_655 S
C1787 C1786 1.372 1_455 S
C1787 C1788 1.400 . S
C1787 C1792 1.490 . S
C1788 H1778 0.930 . S
C1788 C1787 1.400 . S
C1788 C1791 1.386 . S
H1789 C1805 0.930 . S
H1790 C1806 0.931 . S
C1791 H1779 0.929 . S
C1791 C1785 1.390 . S
C1791 C1788 1.386 . S
C1792 C1787 1.490 . S
C1792 C1794 1.395 . S
C1792 C1795 1.389 1_455 S
H1793 C1799 0.918 1_655 S
C1794 H1780 0.930 . S
C1794 C1792 1.395 . S
C1794 C1797 1.403 . S
C1795 C1792 1.389 1_655 S
C1795 C1796 1.542 . S
C1795 C1799 1.396 1_655 S
C1796 H1781 0.960 . S
C1796 H1782 0.960 . S
C1796 H1783 0.972 . S
C1796 C1795 1.542 . S
C1797 C1794 1.403 . S
C1797 C1798 1.392 . S
C1797 C1801 1.495 . S
C1798 C1797 1.392 . S
C1798 C1799 1.403 . S
C1798 C1800 1.478 . S
C1799 H1793 0.918 1_455 S
C1799 C1795 1.396 1_455 S
C1799 C1798 1.403 . S
C1800 C1798 1.478 . S
C1800 C1802 1.381 1_455 S
C1800 C1806 1.383 . S
C1801 C1797 1.495 . S
C1801 H1807 0.959 . S
C1801 H1808 0.961 . S
C1801 H1809 0.960 . S
C1802 C1800 1.381 1_655 S
C1802 C1803 1.394 . S
C1802 H1810 0.930 . S
C1803 C1802 1.394 . S
C1803 C1804 1.383 1_655 S
C1803 H1811 0.929 . S
C1804 C1803 1.383 1_455 S
C1804 C1805 1.377 . S
C1805 H1789 0.930 . S
C1805 C1804 1.377 . S
C1805 C1806 1.379 . S
C1806 H1790 0.931 . S
C1806 C1800 1.383 . S
C1806 C1805 1.379 . S
H1807 C1801 0.959 . S
H1808 C1801 0.961 . S
H1809 C1801 0.960 . S
H1810 C1802 0.930 . S
H1811 C1803 0.929 . S
H1812 C1820 0.929 . S
H1813 C1822 0.930 . S
H1814 C1824 0.930 . S
H1815 C1827 0.929 . S
H1816 C1830 0.930 . S
H1817 C1832 0.960 . S
H1818 C1832 0.960 . S
H1819 C1832 0.960 . S
C1820 H1812 0.929 . S
C1820 C1821 1.361 1_565 S
C1820 C1822 1.384 . S
C1821 C1820 1.361 1_545 S
C1821 C1827 1.406 . S
C1822 H1813 0.930 . S
C1822 C1820 1.384 . S
C1822 C1823 1.369 1_565 S
C1823 C1822 1.369 1_545 S
C1823 C1824 1.403 . S
C1823 C1828 1.490 . S
C1824 H1814 0.930 . S
C1824 C1823 1.403 . S
C1824 C1827 1.386 . S
H1825 C1841 0.930 . S
H1826 C1842 0.931 . S
C1827 H1815 0.929 . S
C1827 C1821 1.406 . S
C1827 C1824 1.386 . S
C1828 C1823 1.490 . S
C1828 C1830 1.410 . S
C1828 C1831 1.389 1_545 S
H1829 C1835 0.930 . S
C1830 H1816 0.930 . S
C1830 C1828 1.410 . S
C1830 C1833 1.403 . S
C1831 C1828 1.389 1_565 S
C1831 C1832 1.524 . S
C1831 C1835 1.400 . S
C1832 H1817 0.960 . S
C1832 H1818 0.960 . S
C1832 H1819 0.960 . S
C1832 C1831 1.524 . S
C1833 C1830 1.403 . S
C1833 C1834 1.392 . S
C1833 C1837 1.495 . S
C1834 C1833 1.392 . S
C1834 C1835 1.385 1_545 S
C1834 C1836 1.478 . S
C1835 H1829 0.930 . S
C1835 C1831 1.400 . S
C1835 C1834 1.385 1_565 S
C1836 C1834 1.478 . S
C1836 C1838 1.381 1_545 S
C1836 C1842 1.383 . S
C1837 C1833 1.495 . S
C1837 H1843 0.959 . S
C1837 H1844 0.961 . S
C1837 H1845 0.960 . S
C1838 C1836 1.381 1_565 S
C1838 C1839 1.394 . S
C1838 H1846 0.930 . S
C1839 C1838 1.394 . S
C1839 C1840 1.383 1_565 S
C1839 H1847 0.929 . S
C1840 C1839 1.383 1_545 S
C1840 C1841 1.377 . S
C1841 H1825 0.930 . S
C1841 C1840 1.377 . S
C1841 C1842 1.379 . S
C1842 H1826 0.931 . S
C1842 C1836 1.383 . S
C1842 C1841 1.379 . S
H1843 C1837 0.959 . S
H1844 C1837 0.961 . S
H1845 C1837 0.960 . S
H1846 C1838 0.930 . S
H1847 C1839 0.929 . S
H1848 C1856 0.929 . S
H1849 C1858 0.930 . S
H1850 C1860 0.930 . S
H1851 C1863 0.929 . S
H1852 C1866 0.930 . S
H1853 C1868 0.960 . S
H1854 C1868 0.960 . S
H1855 C1868 0.960 1_655 S
C1856 H1848 0.929 . S
C1856 C1857 1.377 . S
C1856 C1858 1.384 . S
C1857 C1856 1.377 . S
C1857 C1863 1.390 1_455 S
C1858 H1849 0.930 . S
C1858 C1856 1.384 . S
C1858 C1859 1.372 . S
C1859 C1858 1.372 . S
C1859 C1860 1.400 1_455 S
C1859 C1864 1.490 . S
C1860 H1850 0.930 . S
C1860 C1859 1.400 1_655 S
C1860 C1863 1.386 . S
H1861 C1877 0.930 . S
H1862 C1878 0.931 . S
C1863 H1851 0.929 . S
C1863 C1857 1.390 1_655 S
C1863 C1860 1.386 . S
C1864 C1859 1.490 . S
C1864 C1866 1.395 . S
C1864 C1867 1.403 . S
H1865 C1871 0.930 . S
C1866 H1852 0.930 . S
C1866 C1864 1.395 . S
C1866 C1869 1.403 . S
C1867 C1864 1.403 . S
C1867 C1868 1.524 . S
C1867 C1871 1.400 . S
C1868 H1853 0.960 . S
C1868 H1854 0.960 . S
C1868 H1855 0.960 1_455 S
C1868 C1867 1.524 . S
C1869 C1866 1.403 . S
C1869 C1870 1.392 . S
C1869 C1873 1.495 . S
C1870 C1869 1.392 . S
C1870 C1871 1.385 . S
C1870 C1872 1.478 . S
C1871 H1865 0.930 . S
C1871 C1867 1.400 . S
C1871 C1870 1.385 . S
C1872 C1870 1.478 . S
C1872 C1874 1.381 . S
C1872 C1878 1.383 1_455 S
C1873 C1869 1.495 . S
C1873 H1879 0.959 . S
C1873 H1880 0.961 . S
C1873 H1881 0.960 . S
C1874 C1872 1.381 . S
C1874 C1875 1.394 . S
C1874 H1882 0.930 . S
C1875 C1874 1.394 . S
C1875 C1876 1.383 . S
C1875 H1883 0.929 . S
C1876 C1875 1.383 . S
C1876 C1877 1.377 1_455 S
C1877 H1861 0.930 . S
C1877 C1876 1.377 1_655 S
C1877 C1878 1.379 . S
C1878 H1862 0.931 . S
C1878 C1872 1.383 1_655 S
C1878 C1877 1.379 . S
H1879 C1873 0.959 . S
H1880 C1873 0.961 . S
H1881 C1873 0.960 . S
H1882 C1874 0.930 . S
H1883 C1875 0.929 . S
H1884 C1892 0.929 . S
H1885 C1894 0.930 . S
H1886 C1896 0.930 . S
H1887 C1899 0.929 . S
H1888 C1902 0.930 . S
H1889 C1904 0.960 . S
H1890 C1904 0.960 . S
H1891 C1904 0.960 1_565 S
C1892 H1884 0.929 . S
C1892 C1893 1.392 . S
C1892 C1894 1.384 . S
C1893 C1892 1.392 . S
C1893 C1899 1.376 1_545 S
C1894 H1885 0.930 . S
C1894 C1892 1.384 . S
C1894 C1895 1.372 . S
C1895 C1894 1.372 . S
C1895 C1896 1.400 1_545 S
C1895 C1900 1.490 . S
C1896 H1886 0.930 . S
C1896 C1895 1.400 1_565 S
C1896 C1899 1.386 . S
H1897 C1913 0.930 . S
H1898 C1914 0.931 . S
C1899 H1887 0.929 . S
C1899 C1893 1.376 1_565 S
C1899 C1896 1.386 . S
C1900 C1895 1.490 . S
C1900 C1902 1.395 1_545 S
C1900 C1903 1.403 . S
H1901 C1907 0.930 . S
C1902 H1888 0.930 . S
C1902 C1900 1.395 1_565 S
C1902 C1905 1.403 . S
C1903 C1900 1.403 . S
C1903 C1904 1.524 . S
C1903 C1907 1.400 . S
C1904 H1889 0.960 . S
C1904 H1890 0.960 . S
C1904 H1891 0.960 1_545 S
C1904 C1903 1.524 . S
C1905 C1902 1.403 . S
C1905 C1906 1.392 1_565 S
C1905 C1909 1.495 . S
C1906 C1905 1.392 1_545 S
C1906 C1907 1.385 . S
C1906 C1908 1.477 1_545 S
C1907 H1901 0.930 . S
C1907 C1903 1.400 . S
C1907 C1906 1.385 . S
C1908 C1906 1.477 1_565 S
C1908 C1910 1.364 1_565 S
C1908 C1914 1.399 . S
C1909 C1905 1.495 . S
C1909 H1915 0.959 . S
C1909 H1916 0.961 . S
C1909 H1917 0.960 1_565 S
C1910 C1908 1.364 1_545 S
C1910 C1911 1.394 . S
C1910 H1918 0.930 . S
C1911 C1910 1.394 . S
C1911 C1912 1.385 1_545 S
C1911 H1919 0.929 . S
C1912 C1911 1.385 1_565 S
C1912 C1913 1.376 . S
C1913 H1897 0.930 . S
C1913 C1912 1.376 . S
C1913 C1914 1.379 . S
C1914 H1898 0.931 . S
C1914 C1908 1.399 . S
C1914 C1913 1.379 . S
H1915 C1909 0.959 . S
H1916 C1909 0.961 . S
H1917 C1909 0.960 1_545 S
H1918 C1910 0.930 . S
H1919 C1911 0.929 . S
H1920 C1928 0.929 . S
H1921 C1930 0.930 . S
H1922 C1932 0.930 . S
H1923 C1935 0.929 . S
H1924 C1938 0.930 . S
H1925 C1940 0.960 . S
H1926 C1940 0.960 . S
H1927 C1940 0.960 . S
C1928 H1920 0.929 . S
C1928 C1929 1.377 1_655 S
C1928 C1930 1.384 . S
C1929 C1928 1.377 1_455 S
C1929 C1935 1.390 . S
C1930 H1921 0.930 . S
C1930 C1928 1.384 . S
C1930 C1931 1.372 1_655 S
C1931 C1930 1.372 1_455 S
C1931 C1932 1.400 . S
C1931 C1936 1.490 . S
C1932 H1922 0.930 . S
C1932 C1931 1.400 . S
C1932 C1935 1.386 . S
H1933 C1949 0.930 . S
H1934 C1950 0.931 . S
C1935 H1923 0.929 . S
C1935 C1929 1.390 . S
C1935 C1932 1.386 . S
C1936 C1931 1.490 . S
C1936 C1938 1.395 1_455 S
C1936 C1939 1.403 . S
H1937 C1943 0.930 . S
C1938 H1924 0.930 . S
C1938 C1936 1.395 1_655 S
C1938 C1941 1.403 . S
C1939 C1936 1.403 . S
C1939 C1940 1.524 . S
C1939 C1943 1.400 . S
C1940 H1925 0.960 . S
C1940 H1926 0.960 . S
C1940 H1927 0.960 . S
C1940 C1939 1.524 . S
C1941 C1938 1.403 . S
C1941 C1942 1.392 1_655 S
C1941 C1945 1.495 . S
C1942 C1941 1.392 1_455 S
C1942 C1943 1.385 . S
C1942 C1944 1.478 . S
C1943 H1937 0.930 . S
C1943 C1939 1.400 . S
C1943 C1942 1.385 . S
C1944 C1942 1.478 . S
C1944 C1946 1.381 1_455 S
C1944 C1950 1.383 . S
C1945 C1941 1.495 . S
C1945 H1951 0.959 . S
C1945 H1952 0.997 . S
C1945 H1953 0.960 . S
C1946 C1944 1.381 1_655 S
C1946 C1947 1.394 . S
C1946 H1954 0.930 . S
C1947 C1946 1.394 . S
C1947 C1948 1.383 1_655 S
C1947 H1955 0.929 . S
C1948 C1947 1.383 1_455 S
C1948 C1949 1.377 . S
C1949 H1933 0.930 . S
C1949 C1948 1.377 . S
C1949 C1950 1.379 . S
C1950 H1934 0.931 . S
C1950 C1944 1.383 . S
C1950 C1949 1.379 . S
H1951 C1945 0.959 . S
H1952 C1945 0.997 . S
H1953 C1945 0.960 . S
H1954 C1946 0.930 . S
H1955 C1947 0.929 . S
H1956 C1964 0.929 . S
H1957 C1966 0.930 . S
H1958 C1968 0.930 . S
H1959 C1971 0.929 . S
H1960 C1974 0.930 . S
H1961 C1976 0.960 . S
H1962 C1976 0.960 1_565 S
H1963 C1976 0.960 . S
C1964 H1956 0.929 . S
C1964 C1965 1.385 . S
C1964 C1966 1.384 . S
C1965 C1964 1.385 . S
C1965 C1971 1.383 1_565 S
C1966 H1957 0.930 . S
C1966 C1964 1.384 . S
C1966 C1967 1.372 . S
C1967 C1966 1.372 . S
C1967 C1968 1.400 1_565 S
C1967 C1972 1.490 . S
C1968 H1958 0.930 . S
C1968 C1967 1.400 1_545 S
C1968 C1971 1.386 . S
H1969 C1985 0.930 . S
H1970 C1986 0.931 . S
C1971 H1959 0.929 . S
C1971 C1965 1.383 1_545 S
C1971 C1968 1.386 . S
C1972 C1967 1.490 . S
C1972 C1974 1.395 . S
C1972 C1975 1.403 1_565 S
H1973 C1979 0.930 . S
C1974 H1960 0.930 . S
C1974 C1972 1.395 . S
C1974 C1977 1.403 . S
C1975 C1972 1.403 1_545 S
C1975 C1976 1.524 . S
C1975 C1979 1.400 . S
C1976 H1961 0.960 . S
C1976 H1962 0.960 1_545 S
C1976 H1963 0.960 . S
C1976 C1975 1.524 . S
C1977 C1974 1.403 . S
C1977 C1978 1.392 . S
C1977 C1981 1.495 . S
C1978 C1977 1.392 . S
C1978 C1979 1.385 1_565 S
C1978 C1980 1.478 . S
C1979 H1973 0.930 . S
C1979 C1975 1.400 . S
C1979 C1978 1.385 1_545 S
C1980 C1978 1.478 . S
C1980 C1982 1.381 . S
C1980 C1986 1.383 1_565 S
C1981 C1977 1.495 . S
C1981 H1987 0.959 . S
C1981 H1988 0.961 . S
C1981 H1989 0.960 . S
C1982 C1980 1.381 . S
C1982 C1983 1.394 . S
C1982 H1990 0.930 . S
C1983 C1982 1.394 . S
C1983 C1984 1.383 . S
C1983 H1991 0.929 . S
C1984 C1983 1.383 . S
C1984 C1985 1.377 1_565 S
C1985 H1969 0.930 . S
C1985 C1984 1.377 1_545 S
C1985 C1986 1.379 . S
C1986 H1970 0.931 . S
C1986 C1980 1.383 1_545 S
C1986 C1985 1.379 . S
H1987 C1981 0.959 . S
H1988 C1981 0.961 . S
H1989 C1981 0.960 . S
H1990 C1982 0.930 . S
H1991 C1983 0.929 . S
H1992 C2000 0.929 . S
H1993 C2002 0.930 . S
H1994 C2004 0.930 . S
H1995 C2007 0.929 . S
H1996 C2010 0.930 . S
H1997 C2012 0.960 . S
H1998 C2012 0.960 . S
H1999 C2012 0.960 . S
C2000 H1992 0.929 . S
C2000 C2001 1.377 1_655 S
C2000 C2002 1.384 . S
C2001 C2000 1.377 1_455 S
C2001 C2007 1.390 . S
C2002 H1993 0.930 . S
C2002 C2000 1.384 . S
C2002 C2003 1.372 1_655 S
C2003 C2002 1.372 1_455 S
C2003 C2004 1.400 . S
C2003 C2008 1.490 . S
C2004 H1994 0.930 . S
C2004 C2003 1.400 . S
C2004 C2007 1.386 . S
H2005 C2021 0.930 . S
H2006 C2022 0.931 . S
C2007 H1995 0.929 . S
C2007 C2001 1.390 . S
C2007 C2004 1.386 . S
C2008 C2003 1.490 . S
C2008 C2010 1.395 1_455 S
C2008 C2011 1.403 . S
H2009 C2015 0.930 . S
C2010 H1996 0.930 . S
C2010 C2008 1.395 1_655 S
C2010 C2013 1.403 . S
C2011 C2008 1.403 . S
C2011 C2012 1.524 . S
C2011 C2015 1.400 . S
C2012 H1997 0.960 . S
C2012 H1998 0.960 . S
C2012 H1999 0.960 . S
C2012 C2011 1.524 . S
C2013 C2010 1.403 . S
C2013 C2014 1.392 1_655 S
C2013 C2017 1.495 . S
C2014 C2013 1.392 1_455 S
C2014 C2015 1.385 . S
C2014 C2016 1.478 . S
C2015 H2009 0.930 . S
C2015 C2011 1.400 . S
C2015 C2014 1.385 . S
C2016 C2014 1.478 . S
C2016 C2018 1.381 1_455 S
C2016 C2022 1.383 . S
C2017 C2013 1.495 . S
C2017 H2023 0.959 . S
C2017 H2024 0.961 . S
C2017 H2025 0.960 . S
C2018 C2016 1.381 1_655 S
C2018 C2019 1.394 . S
C2018 H2026 0.930 . S
C2019 C2018 1.394 . S
C2019 C2020 1.383 1_655 S
C2019 H2027 0.929 . S
C2020 C2019 1.383 1_455 S
C2020 C2021 1.377 . S
C2021 H2005 0.930 . S
C2021 C2020 1.377 . S
C2021 C2022 1.379 . S
C2022 H2006 0.931 . S
C2022 C2016 1.383 . S
C2022 C2021 1.379 . S
H2023 C2017 0.959 . S
H2024 C2017 0.961 . S
H2025 C2017 0.960 . S
H2026 C2018 0.930 . S
H2027 C2019 0.929 . S
H2028 C2036 0.929 . S
H2029 C2038 0.930 . S
H2030 C2040 0.930 . S
H2031 C2043 0.929 . S
H2032 C2046 0.930 . S
H2033 C2048 0.960 . S
H2034 C2048 0.960 1_556 S
H2035 C2048 0.960 . S
C2036 H2028 0.929 . S
C2036 C2037 1.377 1_556 S
C2036 C2038 1.384 . S
C2037 C2036 1.377 1_554 S
C2037 C2043 1.390 . S
C2038 H2029 0.930 . S
C2038 C2036 1.384 . S
C2038 C2039 1.372 1_556 S
C2039 C2038 1.372 1_554 S
C2039 C2040 1.400 . S
C2039 C2044 1.490 . S
C2040 H2030 0.930 . S
C2040 C2039 1.400 . S
C2040 C2043 1.386 . S
H2041 C2057 0.930 . S
H2042 C2058 0.931 . S
C2043 H2031 0.929 . S
C2043 C2037 1.390 . S
C2043 C2040 1.386 . S
C2044 C2039 1.490 . S
C2044 C2046 1.395 . S
C2044 C2047 1.403 . S
H2045 C2051 0.930 . S
C2046 H2032 0.930 . S
C2046 C2044 1.395 . S
C2046 C2049 1.403 . S
C2047 C2044 1.403 . S
C2047 C2048 1.524 . S
C2047 C2051 1.400 . S
C2048 H2033 0.960 . S
C2048 H2034 0.960 1_554 S
C2048 H2035 0.960 . S
C2048 C2047 1.524 . S
C2049 C2046 1.403 . S
C2049 C2050 1.392 . S
C2049 C2053 1.495 . S
C2050 C2049 1.392 . S
C2050 C2051 1.385 . S
C2050 C2052 1.478 . S
C2051 H2045 0.930 . S
C2051 C2047 1.400 . S
C2051 C2050 1.385 . S
C2052 C2050 1.478 . S
C2052 C2054 1.381 1_554 S
C2052 C2058 1.383 . S
C2053 C2049 1.495 . S
C2053 H2059 0.959 . S
C2053 H2060 0.961 . S
C2053 H2061 0.960 1_554 S
C2054 C2052 1.381 1_556 S
C2054 C2055 1.394 . S
C2054 H2062 0.930 . S
C2055 C2054 1.394 . S
C2055 C2056 1.383 1_556 S
C2055 H2063 0.929 . S
C2056 C2055 1.383 1_554 S
C2056 C2057 1.377 . S
C2057 H2041 0.930 . S
C2057 C2056 1.377 . S
C2057 C2058 1.379 . S
C2058 H2042 0.931 . S
C2058 C2052 1.383 . S
C2058 C2057 1.379 . S
H2059 C2053 0.959 . S
H2060 C2053 0.961 . S
H2061 C2053 0.960 1_556 S
H2062 C2054 0.930 . S
H2063 C2055 0.929 . S
H2064 C2072 0.929 . S
H2065 C2074 0.930 . S
H2066 C2076 0.930 . S
H2067 C2079 0.929 . S
H2068 C2082 0.930 . S
H2069 C2084 0.960 . S
H2070 C2084 0.960 . S
H2071 C2084 0.960 . S
C2072 H2064 0.929 . S
C2072 C2073 1.377 . S
C2072 C2074 1.384 . S
C2073 C2072 1.377 . S
C2073 C2079 1.390 1_554 S
C2074 H2065 0.930 . S
C2074 C2072 1.384 . S
C2074 C2075 1.372 . S
C2075 C2074 1.372 . S
C2075 C2076 1.400 1_554 S
C2075 C2080 1.490 . S
C2076 H2066 0.930 . S
C2076 C2075 1.400 1_556 S
C2076 C2079 1.386 . S
H2077 C2093 0.930 . S
H2078 C2094 0.931 . S
C2079 H2067 0.929 . S
C2079 C2073 1.390 1_556 S
C2079 C2076 1.386 . S
C2080 C2075 1.490 . S
C2080 C2082 1.395 . S
C2080 C2083 1.403 . S
H2081 C2087 0.930 . S
C2082 H2068 0.930 . S
C2082 C2080 1.395 . S
C2082 C2085 1.403 . S
C2083 C2080 1.403 . S
C2083 C2084 1.524 . S
C2083 C2087 1.400 . S
C2084 H2069 0.960 . S
C2084 H2070 0.960 . S
C2084 H2071 0.960 . S
C2084 C2083 1.524 . S
C2085 C2082 1.403 . S
C2085 C2086 1.392 . S
C2085 C2089 1.487 1_554 S
C2086 C2085 1.392 . S
C2086 C2087 1.385 . S
C2086 C2088 1.478 . S
C2087 H2081 0.930 . S
C2087 C2083 1.400 . S
C2087 C2086 1.385 . S
C2088 C2086 1.478 . S
C2088 C2090 1.381 . S
C2088 C2094 1.383 1_554 S
C2089 C2085 1.487 1_556 S
C2089 H2095 0.965 . S
C2089 H2096 0.987 . S
C2089 H2097 0.936 1_556 S
C2090 C2088 1.381 . S
C2090 C2091 1.394 . S
C2090 H2098 0.930 . S
C2091 C2090 1.394 . S
C2091 C2092 1.383 . S
C2091 H2099 0.929 . S
C2092 C2091 1.383 . S
C2092 C2093 1.377 1_554 S
C2093 H2077 0.930 . S
C2093 C2092 1.377 1_556 S
C2093 C2094 1.379 . S
C2094 H2078 0.931 . S
C2094 C2088 1.383 1_556 S
C2094 C2093 1.379 . S
H2095 C2089 0.965 . S
H2096 C2089 0.987 . S
H2097 C2089 0.936 1_554 S
H2098 C2090 0.930 . S
H2099 C2091 0.929 . S
H2100 C2108 0.929 . S
H2101 C2110 0.930 . S
H2102 C2112 0.930 . S
H2103 C2115 0.929 . S
H2104 C2118 0.930 . S
H2105 C2120 0.960 . S
H2106 C2120 0.960 . S
H2107 C2120 0.958 1_554 S
C2108 H2100 0.929 . S
C2108 C2109 1.377 1_556 S
C2108 C2110 1.384 . S
C2109 C2108 1.377 1_554 S
C2109 C2115 1.390 . S
C2110 H2101 0.930 . S
C2110 C2108 1.384 . S
C2110 C2111 1.372 1_556 S
C2111 C2110 1.372 1_554 S
C2111 C2112 1.400 . S
C2111 C2116 1.490 . S
C2112 H2102 0.930 . S
C2112 C2111 1.400 . S
C2112 C2115 1.386 . S
H2113 C2129 0.930 . S
H2114 C2130 0.931 . S
C2115 H2103 0.929 . S
C2115 C2109 1.390 . S
C2115 C2112 1.386 . S
C2116 C2111 1.490 . S
C2116 C2118 1.395 . S
C2116 C2119 1.403 1_554 S
H2117 C2123 0.933 . S
C2118 H2104 0.930 . S
C2118 C2116 1.395 . S
C2118 C2121 1.403 . S
C2119 C2116 1.403 1_556 S
C2119 C2120 1.524 . S
C2119 C2123 1.400 . S
C2120 H2105 0.960 . S
C2120 H2106 0.960 . S
C2120 H2107 0.958 1_556 S
C2120 C2119 1.524 . S
C2121 C2118 1.403 . S
C2121 C2122 1.392 . S
C2121 C2125 1.495 . S
C2122 C2121 1.392 . S
C2122 C2123 1.382 1_554 S
C2122 C2124 1.478 . S
C2123 H2117 0.933 . S
C2123 C2119 1.400 . S
C2123 C2122 1.382 1_556 S
C2124 C2122 1.478 . S
C2124 C2126 1.381 1_554 S
C2124 C2130 1.383 . S
C2125 C2121 1.495 . S
C2125 H2131 0.959 . S
C2125 H2132 0.961 . S
C2125 H2133 0.960 . S
C2126 C2124 1.381 1_556 S
C2126 C2127 1.394 . S
C2126 H2134 0.930 . S
C2127 C2126 1.394 . S
C2127 C2128 1.383 1_556 S
C2127 H2135 0.929 . S
C2128 C2127 1.383 1_554 S
C2128 C2129 1.377 . S
C2129 H2113 0.930 . S
C2129 C2128 1.377 . S
C2129 C2130 1.379 . S
C2130 H2114 0.931 . S
C2130 C2124 1.383 . S
C2130 C2129 1.379 . S
H2131 C2125 0.959 . S
H2132 C2125 0.961 . S
H2133 C2125 0.960 . S
H2134 C2126 0.930 . S
H2135 C2127 0.929 . S
H2136 C2144 0.929 . S
H2137 C2146 0.930 . S
H2138 C2148 0.930 . S
H2139 C2151 0.929 . S
H2140 C2154 0.930 . S
H2141 C2156 0.960 . S
H2142 C2156 0.960 1_556 S
H2143 C2156 0.960 . S
C2144 H2136 0.929 . S
C2144 C2145 1.377 1_556 S
C2144 C2146 1.384 . S
C2145 C2144 1.377 1_554 S
C2145 C2151 1.390 . S
C2146 H2137 0.930 . S
C2146 C2144 1.384 . S
C2146 C2147 1.372 1_556 S
C2147 C2146 1.372 1_554 S
C2147 C2148 1.400 . S
C2147 C2152 1.490 . S
C2148 H2138 0.930 . S
C2148 C2147 1.400 . S
C2148 C2151 1.386 . S
H2149 C2165 0.930 . S
H2150 C2166 0.931 . S
C2151 H2139 0.929 . S
C2151 C2145 1.390 . S
C2151 C2148 1.386 . S
C2152 C2147 1.490 . S
C2152 C2154 1.395 . S
C2152 C2155 1.403 . S
H2153 C2159 0.930 . S
C2154 H2140 0.930 . S
C2154 C2152 1.395 . S
C2154 C2157 1.403 . S
C2155 C2152 1.403 . S
C2155 C2156 1.524 . S
C2155 C2159 1.400 . S
C2156 H2141 0.960 . S
C2156 H2142 0.960 1_554 S
C2156 H2143 0.960 . S
C2156 C2155 1.524 . S
C2157 C2154 1.403 . S
C2157 C2158 1.392 . S
C2157 C2161 1.495 . S
C2158 C2157 1.392 . S
C2158 C2159 1.385 . S
C2158 C2160 1.478 . S
C2159 H2153 0.930 . S
C2159 C2155 1.400 . S
C2159 C2158 1.385 . S
C2160 C2158 1.478 . S
C2160 C2162 1.381 1_554 S
C2160 C2166 1.383 . S
C2161 C2157 1.495 . S
C2161 H2167 0.959 . S
C2161 H2168 0.961 . S
C2161 H2169 0.941 1_554 S
C2162 C2160 1.381 1_556 S
C2162 C2163 1.394 . S
C2162 H2170 0.930 . S
C2163 C2162 1.394 . S
C2163 C2164 1.383 1_556 S
C2163 H2171 0.929 . S
C2164 C2163 1.383 1_554 S
C2164 C2165 1.377 . S
C2165 H2149 0.930 . S
C2165 C2164 1.377 . S
C2165 C2166 1.379 . S
C2166 H2150 0.931 . S
C2166 C2160 1.383 . S
C2166 C2165 1.379 . S
H2167 C2161 0.959 . S
H2168 C2161 0.961 . S
H2169 C2161 0.941 1_556 S
H2170 C2162 0.930 . S
H2171 C2163 0.929 . S
H2172 C2180 0.929 . S
H2173 C2182 0.930 . S
H2174 C2184 0.930 . S
H2175 C2187 0.929 . S
H2176 C2190 0.930 . S
H2177 C2192 0.960 . S
H2178 C2192 0.960 . S
H2179 C2192 0.960 . S
C2180 H2172 0.929 . S
C2180 C2181 1.377 . S
C2180 C2182 1.384 . S
C2181 C2180 1.377 . S
C2181 C2187 1.390 1_554 S
C2182 H2173 0.930 . S
C2182 C2180 1.384 . S
C2182 C2183 1.372 . S
C2183 C2182 1.372 . S
C2183 C2184 1.400 1_554 S
C2183 C2188 1.490 . S
C2184 H2174 0.930 . S
C2184 C2183 1.400 1_556 S
C2184 C2187 1.386 . S
H2185 C2201 0.930 . S
H2186 C2202 0.931 . S
C2187 H2175 0.929 . S
C2187 C2181 1.390 1_556 S
C2187 C2184 1.386 . S
C2188 C2183 1.490 . S
C2188 C2190 1.395 . S
C2188 C2191 1.403 1_554 S
H2189 C2195 0.930 . S
C2190 H2176 0.930 . S
C2190 C2188 1.395 . S
C2190 C2193 1.403 . S
C2191 C2188 1.403 1_556 S
C2191 C2192 1.524 . S
C2191 C2195 1.400 . S
C2192 H2177 0.960 . S
C2192 H2178 0.960 . S
C2192 H2179 0.960 . S
C2192 C2191 1.524 . S
C2193 C2190 1.403 . S
C2193 C2194 1.392 . S
C2193 C2197 1.495 . S
C2194 C2193 1.392 . S
C2194 C2195 1.385 1_554 S
C2194 C2196 1.478 . S
C2195 H2189 0.930 . S
C2195 C2191 1.400 . S
C2195 C2194 1.385 1_556 S
C2196 C2194 1.478 . S
C2196 C2198 1.381 . S
C2196 C2202 1.383 1_554 S
C2197 C2193 1.495 . S
C2197 H2203 0.959 . S
C2197 H2204 0.961 . S
C2197 H2205 0.960 . S
C2198 C2196 1.381 . S
C2198 C2199 1.394 . S
C2198 H2206 0.930 . S
C2199 C2198 1.394 . S
C2199 C2200 1.383 . S
C2199 H2207 0.929 . S
C2200 C2199 1.383 . S
C2200 C2201 1.377 1_554 S
C2201 H2185 0.930 . S
C2201 C2200 1.377 1_556 S
C2201 C2202 1.379 . S
C2202 H2186 0.931 . S
C2202 C2196 1.383 1_556 S
C2202 C2201 1.379 . S
H2203 C2197 0.959 . S
H2204 C2197 0.961 . S
H2205 C2197 0.960 . S
H2206 C2198 0.930 . S
H2207 C2199 0.929 . S
H2208 C2216 0.929 . S
H2209 C2218 0.930 . S
H2210 C2220 0.930 . S
H2211 C2223 0.929 . S
H2212 C2226 0.930 . S
H2213 C2228 0.960 . S
H2214 C2228 0.960 . S
H2215 C2228 0.960 . S
C2216 H2208 0.929 . S
C2216 C2217 1.377 . S
C2216 C2218 1.384 . S
C2217 C2216 1.377 . S
C2217 C2223 1.390 . S
C2218 H2209 0.930 . S
C2218 C2216 1.384 . S
C2218 C2219 1.372 . S
C2219 C2218 1.372 . S
C2219 C2220 1.400 . S
C2219 C2224 1.490 . S
C2220 H2210 0.930 . S
C2220 C2219 1.400 . S
C2220 C2223 1.386 . S
H2221 C2237 0.930 . S
H2222 C2238 0.931 . S
C2223 H2211 0.929 . S
C2223 C2217 1.390 . S
C2223 C2220 1.386 . S
C2224 C2219 1.490 . S
C2224 C2226 1.395 . S
C2224 C2227 1.403 1_554 S
H2225 C2231 0.930 . S
C2226 H2212 0.930 . S
C2226 C2224 1.395 . S
C2226 C2229 1.403 . S
C2227 C2224 1.403 1_556 S
C2227 C2228 1.524 . S
C2227 C2231 1.400 . S
C2228 H2213 0.960 . S
C2228 H2214 0.960 . S
C2228 H2215 0.960 . S
C2228 C2227 1.524 . S
C2229 C2226 1.403 . S
C2229 C2230 1.392 . S
C2229 C2233 1.495 . S
C2230 C2229 1.392 . S
C2230 C2231 1.385 1_554 S
C2230 C2232 1.478 . S
C2231 H2225 0.930 . S
C2231 C2227 1.400 . S
C2231 C2230 1.385 1_556 S
C2232 C2230 1.478 . S
C2232 C2234 1.381 . S
C2232 C2238 1.383 . S
C2233 C2229 1.495 . S
C2233 H2239 0.959 . S
C2233 H2240 0.961 . S
C2233 H2241 0.960 . S
C2234 C2232 1.381 . S
C2234 C2235 1.394 . S
C2234 H2242 0.930 . S
C2235 C2234 1.394 . S
C2235 C2236 1.383 . S
C2235 H2243 0.929 . S
C2236 C2235 1.383 . S
C2236 C2237 1.377 . S
C2237 H2221 0.930 . S
C2237 C2236 1.377 . S
C2237 C2238 1.379 . S
C2238 H2222 0.931 . S
C2238 C2232 1.383 . S
C2238 C2237 1.379 . S
H2239 C2233 0.959 . S
H2240 C2233 0.961 . S
H2241 C2233 0.960 . S
H2242 C2234 0.930 . S
H2243 C2235 0.929 . S
H2244 C2252 0.929 . S
H2245 C2254 0.930 . S
H2246 C2256 0.930 . S
H2247 C2259 0.929 . S
H2248 C2262 0.930 . S
H2249 C2264 0.960 . S
H2250 C2264 0.960 . S
H2251 C2264 0.960 1_554 S
C2252 H2244 0.929 . S
C2252 C2253 1.377 1_556 S
C2252 C2254 1.384 . S
C2253 C2252 1.377 1_554 S
C2253 C2259 1.390 . S
C2254 H2245 0.930 . S
C2254 C2252 1.384 . S
C2254 C2255 1.372 1_556 S
C2255 C2254 1.372 1_554 S
C2255 C2256 1.400 . S
C2255 C2260 1.490 . S
C2256 H2246 0.930 . S
C2256 C2255 1.400 . S
C2256 C2259 1.386 . S
H2257 C2273 0.930 . S
H2258 C2274 0.931 . S
C2259 H2247 0.929 . S
C2259 C2253 1.390 . S
C2259 C2256 1.386 . S
C2260 C2255 1.490 . S
C2260 C2262 1.395 . S
C2260 C2263 1.404 . S
H2261 C2267 0.930 1_556 S
C2262 H2248 0.930 . S
C2262 C2260 1.395 . S
C2262 C2265 1.403 . S
C2263 C2260 1.404 . S
C2263 C2264 1.523 1_554 S
C2263 C2267 1.400 . S
C2264 H2249 0.960 . S
C2264 H2250 0.960 . S
C2264 H2251 0.960 1_556 S
C2264 C2263 1.523 1_556 S
C2265 C2262 1.403 . S
C2265 C2266 1.392 . S
C2265 C2269 1.495 . S
C2266 C2265 1.392 . S
C2266 C2267 1.385 . S
C2266 C2268 1.478 . S
C2267 H2261 0.930 1_554 S
C2267 C2263 1.400 . S
C2267 C2266 1.385 . S
C2268 C2266 1.478 . S
C2268 C2270 1.381 1_554 S
C2268 C2274 1.383 . S
C2269 C2265 1.495 . S
C2269 H2275 0.959 . S
C2269 H2276 0.961 . S
C2269 H2277 0.960 . S
C2270 C2268 1.381 1_556 S
C2270 C2271 1.394 . S
C2270 H2278 0.930 . S
C2271 C2270 1.394 . S
C2271 C2272 1.383 1_556 S
C2271 H2279 0.929 . S
C2272 C2271 1.383 1_554 S
C2272 C2273 1.377 . S
C2273 H2257 0.930 . S
C2273 C2272 1.377 . S
C2273 C2274 1.379 . S
C2274 H2258 0.931 . S
C2274 C2268 1.383 . S
C2274 C2273 1.379 . S
H2275 C2269 0.959 . S
H2276 C2269 0.961 . S
H2277 C2269 0.960 . S
H2278 C2270 0.930 . S
H2279 C2271 0.929 . S
H2280 C2288 0.929 . S
H2281 C2290 0.930 . S
H2282 C2292 0.930 . S
H2283 C2295 0.929 . S
H2284 C2298 0.930 . S
H2285 C2300 0.959 1_556 S
H2286 C2300 0.960 . S
H2287 C2300 0.960 1_556 S
C2288 H2280 0.929 . S
C2288 C2289 1.377 . S
C2288 C2290 1.384 . S
C2289 C2288 1.377 . S
C2289 C2295 1.390 1_554 S
C2290 H2281 0.930 . S
C2290 C2288 1.384 . S
C2290 C2291 1.372 . S
C2291 C2290 1.372 . S
C2291 C2292 1.400 1_554 S
C2291 C2296 1.490 . S
C2292 H2282 0.930 . S
C2292 C2291 1.400 1_556 S
C2292 C2295 1.386 . S
H2293 C2309 0.930 . S
H2294 C2310 0.931 . S
C2295 H2283 0.929 . S
C2295 C2289 1.390 1_556 S
C2295 C2292 1.386 . S
C2296 C2291 1.490 . S
C2296 C2298 1.395 . S
C2296 C2299 1.403 . S
H2297 C2303 0.930 . S
C2298 H2284 0.930 . S
C2298 C2296 1.395 . S
C2298 C2301 1.403 . S
C2299 C2296 1.403 . S
C2299 C2300 1.524 . S
C2299 C2303 1.400 . S
C2300 H2285 0.959 1_554 S
C2300 H2286 0.960 . S
C2300 H2287 0.960 1_554 S
C2300 C2299 1.524 . S
C2301 C2298 1.403 . S
C2301 C2302 1.392 . S
C2301 C2305 1.495 . S
C2302 C2301 1.392 . S
C2302 C2303 1.385 . S
C2302 C2304 1.478 . S
C2303 H2297 0.930 . S
C2303 C2299 1.400 . S
C2303 C2302 1.385 . S
C2304 C2302 1.478 . S
C2304 C2306 1.381 . S
C2304 C2310 1.383 1_554 S
C2305 C2301 1.495 . S
C2305 H2311 0.959 . S
C2305 H2312 0.961 . S
C2305 H2313 0.960 . S
C2306 C2304 1.381 . S
C2306 C2307 1.394 . S
C2306 H2314 0.930 . S
C2307 C2306 1.394 . S
C2307 C2308 1.383 . S
C2307 H2315 0.929 . S
C2308 C2307 1.383 . S
C2308 C2309 1.377 1_554 S
C2309 H2293 0.930 . S
C2309 C2308 1.377 1_556 S
C2309 C2310 1.379 . S
C2310 H2294 0.931 . S
C2310 C2304 1.383 1_556 S
C2310 C2309 1.379 . S
H2311 C2305 0.959 . S
H2312 C2305 0.961 . S
H2313 C2305 0.960 . S
H2314 C2306 0.930 . S
H2315 C2307 0.929 . S
H2316 C2324 0.929 . S
H2317 C2326 0.930 . S
H2318 C2328 0.930 . S
H2319 C2331 0.929 . S
H2320 C2334 0.930 . S
H2321 C2336 0.960 . S
H2322 C2336 0.960 . S
H2323 C2336 0.960 . S
C2324 H2316 0.929 . S
C2324 C2325 1.377 . S
C2324 C2326 1.384 . S
C2325 C2324 1.377 . S
C2325 C2331 1.390 . S
C2326 H2317 0.930 . S
C2326 C2324 1.384 . S
C2326 C2327 1.372 . S
C2327 C2326 1.372 . S
C2327 C2328 1.400 . S
C2327 C2332 1.490 . S
C2328 H2318 0.930 . S
C2328 C2327 1.400 . S
C2328 C2331 1.386 . S
H2329 C2345 0.930 . S
H2330 C2346 0.931 . S
C2331 H2319 0.929 . S
C2331 C2325 1.390 . S
C2331 C2328 1.386 . S
C2332 C2327 1.490 . S
C2332 C2334 1.395 . S
C2332 C2335 1.403 . S
H2333 C2339 0.930 . S
C2334 H2320 0.930 . S
C2334 C2332 1.395 . S
C2334 C2337 1.403 . S
C2335 C2332 1.403 . S
C2335 C2336 1.524 . S
C2335 C2339 1.400 . S
C2336 H2321 0.960 . S
C2336 H2322 0.960 . S
C2336 H2323 0.960 . S
C2336 C2335 1.524 . S
C2337 C2334 1.403 . S
C2337 C2338 1.392 . S
C2337 C2341 1.495 . S
C2338 C2337 1.392 . S
C2338 C2339 1.385 . S
C2338 C2340 1.478 . S
C2339 H2333 0.930 . S
C2339 C2335 1.400 . S
C2339 C2338 1.385 . S
C2340 C2338 1.478 . S
C2340 C2342 1.381 . S
C2340 C2346 1.383 . S
C2341 C2337 1.495 . S
C2341 H2347 0.959 . S
C2341 H2348 0.961 . S
C2341 H2349 0.960 . S
C2342 C2340 1.381 . S
C2342 C2343 1.394 . S
C2342 H2350 0.930 . S
C2343 C2342 1.394 . S
C2343 C2344 1.383 . S
C2343 H2351 0.929 . S
C2344 C2343 1.383 . S
C2344 C2345 1.377 . S
C2345 H2329 0.930 . S
C2345 C2344 1.377 . S
C2345 C2346 1.379 . S
C2346 H2330 0.931 . S
C2346 C2340 1.383 . S
C2346 C2345 1.379 . S
H2347 C2341 0.959 . S
H2348 C2341 0.961 . S
H2349 C2341 0.960 . S
H2350 C2342 0.930 . S
H2351 C2343 0.929 . S
H2352 C2360 0.929 . S
H2353 C2362 0.930 . S
H2354 C2364 0.930 . S
H2355 C2367 0.929 . S
H2356 C2370 0.930 . S
H2357 C2372 0.960 . S
H2358 C2372 0.960 . S
H2359 C2372 0.960 . S
C2360 H2352 0.929 . S
C2360 C2361 1.377 . S
C2360 C2362 1.384 . S
C2361 C2360 1.377 . S
C2361 C2367 1.390 . S
C2362 H2353 0.930 . S
C2362 C2360 1.384 . S
C2362 C2363 1.372 . S
C2363 C2362 1.372 . S
C2363 C2364 1.400 . S
C2363 C2368 1.490 . S
C2364 H2354 0.930 . S
C2364 C2363 1.400 . S
C2364 C2367 1.386 . S
H2365 C2381 0.930 . S
H2366 C2382 0.931 . S
C2367 H2355 0.929 . S
C2367 C2361 1.390 . S
C2367 C2364 1.386 . S
C2368 C2363 1.490 . S
C2368 C2370 1.395 . S
C2368 C2371 1.403 . S
H2369 C2375 0.930 . S
C2370 H2356 0.930 . S
C2370 C2368 1.395 . S
C2370 C2373 1.403 . S
C2371 C2368 1.403 . S
C2371 C2372 1.524 . S
C2371 C2375 1.400 . S
C2372 H2357 0.960 . S
C2372 H2358 0.960 . S
C2372 H2359 0.960 . S
C2372 C2371 1.524 . S
C2373 C2370 1.403 . S
C2373 C2374 1.392 . S
C2373 C2377 1.495 . S
C2374 C2373 1.392 . S
C2374 C2375 1.385 . S
C2374 C2376 1.478 . S
C2375 H2369 0.930 . S
C2375 C2371 1.400 . S
C2375 C2374 1.385 . S
C2376 C2374 1.478 . S
C2376 C2378 1.381 . S
C2376 C2382 1.383 . S
C2377 C2373 1.495 . S
C2377 H2383 0.959 . S
C2377 H2384 0.961 . S
C2377 H2385 0.960 . S
C2378 C2376 1.381 . S
C2378 C2379 1.394 . S
C2378 H2386 0.930 . S
C2379 C2378 1.394 . S
C2379 C2380 1.383 . S
C2379 H2387 0.929 . S
C2380 C2379 1.383 . S
C2380 C2381 1.377 . S
C2381 H2365 0.930 . S
C2381 C2380 1.377 . S
C2381 C2382 1.379 . S
C2382 H2366 0.931 . S
C2382 C2376 1.383 . S
C2382 C2381 1.379 . S
H2383 C2377 0.959 . S
H2384 C2377 0.961 . S
H2385 C2377 0.960 . S
H2386 C2378 0.930 . S
H2387 C2379 0.929 . S
H2388 C2396 0.929 . S
H2389 C2398 0.930 . S
H2390 C2400 0.930 . S
H2391 C2403 0.929 . S
H2392 C2406 0.930 . S
H2393 C2408 0.960 . S
H2394 C2408 0.960 . S
H2395 C2408 0.960 . S
C2396 H2388 0.929 . S
C2396 C2397 1.377 . S
C2396 C2398 1.384 . S
C2397 C2396 1.377 . S
C2397 C2403 1.390 . S
C2398 H2389 0.930 . S
C2398 C2396 1.384 . S
C2398 C2399 1.372 . S
C2399 C2398 1.372 . S
C2399 C2400 1.400 . S
C2399 C2404 1.490 . S
C2400 H2390 0.930 . S
C2400 C2399 1.400 . S
C2400 C2403 1.386 . S
H2401 C2417 0.930 . S
H2402 C2418 0.931 . S
C2403 H2391 0.929 . S
C2403 C2397 1.390 . S
C2403 C2400 1.386 . S
C2404 C2399 1.490 . S
C2404 C2406 1.395 . S
C2404 C2407 1.403 . S
H2405 C2411 0.930 . S
C2406 H2392 0.930 . S
C2406 C2404 1.395 . S
C2406 C2409 1.403 . S
C2407 C2404 1.403 . S
C2407 C2408 1.524 . S
C2407 C2411 1.400 . S
C2408 H2393 0.960 . S
C2408 H2394 0.960 . S
C2408 H2395 0.960 . S
C2408 C2407 1.524 . S
C2409 C2406 1.403 . S
C2409 C2410 1.392 . S
C2409 C2413 1.495 . S
C2410 C2409 1.392 . S
C2410 C2411 1.385 . S
C2410 C2412 1.478 . S
C2411 H2405 0.930 . S
C2411 C2407 1.400 . S
C2411 C2410 1.385 . S
C2412 C2410 1.478 . S
C2412 C2414 1.381 . S
C2412 C2418 1.383 . S
C2413 C2409 1.495 . S
C2413 H2419 0.959 . S
C2413 H2420 0.961 . S
C2413 H2421 0.960 . S
C2414 C2412 1.381 . S
C2414 C2415 1.394 . S
C2414 H2422 0.930 . S
C2415 C2414 1.394 . S
C2415 C2416 1.383 . S
C2415 H2423 0.929 . S
C2416 C2415 1.383 . S
C2416 C2417 1.377 . S
C2417 H2401 0.930 . S
C2417 C2416 1.377 . S
C2417 C2418 1.379 . S
C2418 H2402 0.931 . S
C2418 C2412 1.383 . S
C2418 C2417 1.379 . S
H2419 C2413 0.959 . S
H2420 C2413 0.961 . S
H2421 C2413 0.960 . S
H2422 C2414 0.930 . S
H2423 C2415 0.929 . S
H2424 C2432 0.929 . S
H2425 C2434 0.930 . S
H2426 C2436 0.930 . S
H2427 C2439 0.929 . S
H2428 C2442 0.930 . S
H2429 C2444 0.960 . S
H2430 C2444 0.960 . S
H2431 C2444 0.960 . S
C2432 H2424 0.929 . S
C2432 C2433 1.377 . S
C2432 C2434 1.384 . S
C2433 C2432 1.377 . S
C2433 C2439 1.390 . S
C2434 H2425 0.930 . S
C2434 C2432 1.384 . S
C2434 C2435 1.372 . S
C2435 C2434 1.372 . S
C2435 C2436 1.400 . S
C2435 C2440 1.490 . S
C2436 H2426 0.930 . S
C2436 C2435 1.400 . S
C2436 C2439 1.386 . S
H2437 C2453 0.930 . S
H2438 C2454 0.931 . S
C2439 H2427 0.929 . S
C2439 C2433 1.390 . S
C2439 C2436 1.386 . S
C2440 C2435 1.490 . S
C2440 C2442 1.395 . S
C2440 C2443 1.403 . S
H2441 C2447 0.930 . S
C2442 H2428 0.930 . S
C2442 C2440 1.395 . S
C2442 C2445 1.403 . S
C2443 C2440 1.403 . S
C2443 C2444 1.524 . S
C2443 C2447 1.400 . S
C2444 H2429 0.960 . S
C2444 H2430 0.960 . S
C2444 H2431 0.960 . S
C2444 C2443 1.524 . S
C2445 C2442 1.403 . S
C2445 C2446 1.392 . S
C2445 C2449 1.495 . S
C2446 C2445 1.392 . S
C2446 C2447 1.385 . S
C2446 C2448 1.478 . S
C2447 H2441 0.930 . S
C2447 C2443 1.400 . S
C2447 C2446 1.385 . S
C2448 C2446 1.478 . S
C2448 C2450 1.381 . S
C2448 C2454 1.383 . S
C2449 C2445 1.495 . S
C2449 H2455 0.959 . S
C2449 H2456 0.961 . S
C2449 H2457 0.960 . S
C2450 C2448 1.381 . S
C2450 C2451 1.394 . S
C2450 H2458 0.930 . S
C2451 C2450 1.394 . S
C2451 C2452 1.383 . S
C2451 H2459 0.929 . S
C2452 C2451 1.383 . S
C2452 C2453 1.377 . S
C2453 H2437 0.930 . S
C2453 C2452 1.377 . S
C2453 C2454 1.379 . S
C2454 H2438 0.931 . S
C2454 C2448 1.383 . S
C2454 C2453 1.379 . S
H2455 C2449 0.959 . S
H2456 C2449 0.961 . S
H2457 C2449 0.960 . S
H2458 C2450 0.930 . S
H2459 C2451 0.929 . S
H2460 C2468 0.929 . S
H2461 C2470 0.930 . S
H2462 C2472 0.930 . S
H2463 C2475 0.929 . S
H2464 C2478 0.930 . S
H2465 C2480 0.960 . S
H2466 C2480 0.960 . S
H2467 C2480 0.960 . S
C2468 H2460 0.929 . S
C2468 C2469 1.377 . S
C2468 C2470 1.384 . S
C2469 C2468 1.377 . S
C2469 C2475 1.390 . S
C2470 H2461 0.930 . S
C2470 C2468 1.384 . S
C2470 C2471 1.372 . S
C2471 C2470 1.372 . S
C2471 C2472 1.400 . S
C2471 C2476 1.490 . S
C2472 H2462 0.930 . S
C2472 C2471 1.400 . S
C2472 C2475 1.386 . S
H2473 C2489 0.930 . S
H2474 C2490 0.931 . S
C2475 H2463 0.929 . S
C2475 C2469 1.390 . S
C2475 C2472 1.386 . S
C2476 C2471 1.490 . S
C2476 C2478 1.395 . S
C2476 C2479 1.403 . S
H2477 C2483 0.930 . S
C2478 H2464 0.930 . S
C2478 C2476 1.395 . S
C2478 C2481 1.403 . S
C2479 C2476 1.403 . S
C2479 C2480 1.524 . S
C2479 C2483 1.400 . S
C2480 H2465 0.960 . S
C2480 H2466 0.960 . S
C2480 H2467 0.960 . S
C2480 C2479 1.524 . S
C2481 C2478 1.403 . S
C2481 C2482 1.392 . S
C2481 C2485 1.495 . S
C2482 C2481 1.392 . S
C2482 C2483 1.385 . S
C2482 C2484 1.478 . S
C2483 H2477 0.930 . S
C2483 C2479 1.400 . S
C2483 C2482 1.385 . S
C2484 C2482 1.478 . S
C2484 C2486 1.381 . S
C2484 C2490 1.383 . S
C2485 C2481 1.495 . S
C2485 H2491 0.959 . S
C2485 H2492 0.961 . S
C2485 H2493 0.960 . S
C2486 C2484 1.381 . S
C2486 C2487 1.394 . S
C2486 H2494 0.930 . S
C2487 C2486 1.394 . S
C2487 C2488 1.383 . S
C2487 H2495 0.929 . S
C2488 C2487 1.383 . S
C2488 C2489 1.377 . S
C2489 H2473 0.930 . S
C2489 C2488 1.377 . S
C2489 C2490 1.379 . S
C2490 H2474 0.931 . S
C2490 C2484 1.383 . S
C2490 C2489 1.379 . S
H2491 C2485 0.959 . S
H2492 C2485 0.961 . S
H2493 C2485 0.960 . S
H2494 C2486 0.930 . S
H2495 C2487 0.929 . S
H2496 C2504 0.929 . S
H2497 C2506 0.930 . S
H2498 C2508 0.930 . S
H2499 C2511 0.929 . S
H2500 C2514 0.930 . S
H2501 C2516 0.960 . S
H2502 C2516 0.960 . S
H2503 C2516 0.960 . S
C2504 H2496 0.929 . S
C2504 C2505 1.377 . S
C2504 C2506 1.384 . S
C2505 C2504 1.377 . S
C2505 C2511 1.390 . S
C2506 H2497 0.930 . S
C2506 C2504 1.384 . S
C2506 C2507 1.372 . S
C2507 C2506 1.372 . S
C2507 C2508 1.400 . S
C2507 C2512 1.490 . S
C2508 H2498 0.930 . S
C2508 C2507 1.400 . S
C2508 C2511 1.386 . S
H2509 C2525 0.930 . S
H2510 C2526 0.931 . S
C2511 H2499 0.929 . S
C2511 C2505 1.390 . S
C2511 C2508 1.386 . S
C2512 C2507 1.490 . S
C2512 C2514 1.395 . S
C2512 C2515 1.403 . S
H2513 C2519 0.930 . S
C2514 H2500 0.930 . S
C2514 C2512 1.395 . S
C2514 C2517 1.403 . S
C2515 C2512 1.403 . S
C2515 C2516 1.524 . S
C2515 C2519 1.400 . S
C2516 H2501 0.960 . S
C2516 H2502 0.960 . S
C2516 H2503 0.960 . S
C2516 C2515 1.524 . S
C2517 C2514 1.403 . S
C2517 C2518 1.392 . S
C2517 C2521 1.495 . S
C2518 C2517 1.392 . S
C2518 C2519 1.385 . S
C2518 C2520 1.478 . S
C2519 H2513 0.930 . S
C2519 C2515 1.400 . S
C2519 C2518 1.385 . S
C2520 C2518 1.478 . S
C2520 C2522 1.381 . S
C2520 C2526 1.383 . S
C2521 C2517 1.495 . S
C2521 H2527 0.959 . S
C2521 H2528 0.961 . S
C2521 H2529 0.960 . S
C2522 C2520 1.381 . S
C2522 C2523 1.394 . S
C2522 H2530 0.930 . S
C2523 C2522 1.394 . S
C2523 C2524 1.383 . S
C2523 H2531 0.929 . S
C2524 C2523 1.383 . S
C2524 C2525 1.377 . S
C2525 H2509 0.930 . S
C2525 C2524 1.377 . S
C2525 C2526 1.379 . S
C2526 H2510 0.931 . S
C2526 C2520 1.383 . S
C2526 C2525 1.379 . S
H2527 C2521 0.959 . S
H2528 C2521 0.961 . S
H2529 C2521 0.960 . S
H2530 C2522 0.930 . S
H2531 C2523 0.929 . S
H2532 C2540 0.929 . S
H2533 C2542 0.930 . S
H2534 C2544 0.930 . S
H2535 C2547 0.929 . S
H2536 C2550 0.930 . S
H2537 C2552 0.960 . S
H2538 C2552 0.960 . S
H2539 C2552 0.960 . S
C2540 H2532 0.929 . S
C2540 C2541 1.377 . S
C2540 C2542 1.384 . S
C2541 C2540 1.377 . S
C2541 C2547 1.390 . S
C2542 H2533 0.930 . S
C2542 C2540 1.384 . S
C2542 C2543 1.372 . S
C2543 C2542 1.372 . S
C2543 C2544 1.400 . S
C2543 C2548 1.490 . S
C2544 H2534 0.930 . S
C2544 C2543 1.400 . S
C2544 C2547 1.386 . S
H2545 C2561 0.930 . S
H2546 C2562 0.931 . S
C2547 H2535 0.929 . S
C2547 C2541 1.390 . S
C2547 C2544 1.386 . S
C2548 C2543 1.490 . S
C2548 C2550 1.395 . S
C2548 C2551 1.403 . S
H2549 C2555 0.930 . S
C2550 H2536 0.930 . S
C2550 C2548 1.395 . S
C2550 C2553 1.403 . S
C2551 C2548 1.403 . S
C2551 C2552 1.524 . S
C2551 C2555 1.400 . S
C2552 H2537 0.960 . S
C2552 H2538 0.960 . S
C2552 H2539 0.960 . S
C2552 C2551 1.524 . S
C2553 C2550 1.403 . S
C2553 C2554 1.392 . S
C2553 C2557 1.495 . S
C2554 C2553 1.392 . S
C2554 C2555 1.385 . S
C2554 C2556 1.478 . S
C2555 H2549 0.930 . S
C2555 C2551 1.400 . S
C2555 C2554 1.385 . S
C2556 C2554 1.478 . S
C2556 C2558 1.381 . S
C2556 C2562 1.383 . S
C2557 C2553 1.495 . S
C2557 H2563 0.959 . S
C2557 H2564 0.961 . S
C2557 H2565 0.960 . S
C2558 C2556 1.381 . S
C2558 C2559 1.394 . S
C2558 H2566 0.930 . S
C2559 C2558 1.394 . S
C2559 C2560 1.383 . S
C2559 H2567 0.929 . S
C2560 C2559 1.383 . S
C2560 C2561 1.377 . S
C2561 H2545 0.930 . S
C2561 C2560 1.377 . S
C2561 C2562 1.379 . S
C2562 H2546 0.931 . S
C2562 C2556 1.383 . S
C2562 C2561 1.379 . S
H2563 C2557 0.959 . S
H2564 C2557 0.961 . S
H2565 C2557 0.960 . S
H2566 C2558 0.930 . S
H2567 C2559 0.929 . S
H2568 C2576 0.929 . S
H2569 C2578 0.930 . S
H2570 C2580 0.930 . S
H2571 C2583 0.929 . S
H2572 C2586 0.930 . S
H2573 C2588 0.960 . S
H2574 C2588 0.960 . S
H2575 C2588 0.960 . S
C2576 H2568 0.929 . S
C2576 C2577 1.377 . S
C2576 C2578 1.384 . S
C2577 C2576 1.377 . S
C2577 C2583 1.390 . S
C2578 H2569 0.930 . S
C2578 C2576 1.384 . S
C2578 C2579 1.372 . S
C2579 C2578 1.372 . S
C2579 C2580 1.400 . S
C2579 C2584 1.490 . S
C2580 H2570 0.930 . S
C2580 C2579 1.400 . S
C2580 C2583 1.386 . S
H2581 C2597 0.930 . S
H2582 C2598 0.931 . S
C2583 H2571 0.929 . S
C2583 C2577 1.390 . S
C2583 C2580 1.386 . S
C2584 C2579 1.490 . S
C2584 C2586 1.395 . S
C2584 C2587 1.403 . S
H2585 C2591 0.930 . S
C2586 H2572 0.930 . S
C2586 C2584 1.395 . S
C2586 C2589 1.403 . S
C2587 C2584 1.403 . S
C2587 C2588 1.524 . S
C2587 C2591 1.400 . S
C2588 H2573 0.960 . S
C2588 H2574 0.960 . S
C2588 H2575 0.960 . S
C2588 C2587 1.524 . S
C2589 C2586 1.403 . S
C2589 C2590 1.392 . S
C2589 C2593 1.495 . S
C2590 C2589 1.392 . S
C2590 C2591 1.385 . S
C2590 C2592 1.478 . S
C2591 H2585 0.930 . S
C2591 C2587 1.400 . S
C2591 C2590 1.385 . S
C2592 C2590 1.478 . S
C2592 C2594 1.381 . S
C2592 C2598 1.383 . S
C2593 C2589 1.495 . S
C2593 H2599 0.959 . S
C2593 H2600 0.961 . S
C2593 H2601 0.960 . S
C2594 C2592 1.381 . S
C2594 C2595 1.394 . S
C2594 H2602 0.930 . S
C2595 C2594 1.394 . S
C2595 C2596 1.383 . S
C2595 H2603 0.929 . S
C2596 C2595 1.383 . S
C2596 C2597 1.377 . S
C2597 H2581 0.930 . S
C2597 C2596 1.377 . S
C2597 C2598 1.379 . S
C2598 H2582 0.931 . S
C2598 C2592 1.383 . S
C2598 C2597 1.379 . S
H2599 C2593 0.959 . S
H2600 C2593 0.961 . S
H2601 C2593 0.960 . S
H2602 C2594 0.930 . S
H2603 C2595 0.929 . S
H2604 C2612 0.929 . S
H2605 C2614 0.930 . S
H2606 C2616 0.930 . S
H2607 C2619 0.929 . S
H2608 C2622 0.930 . S
H2609 C2624 0.960 . S
H2610 C2624 0.960 . S
H2611 C2624 0.960 . S
C2612 H2604 0.929 . S
C2612 C2613 1.377 . S
C2612 C2614 1.384 . S
C2613 C2612 1.377 . S
C2613 C2619 1.390 . S
C2614 H2605 0.930 . S
C2614 C2612 1.384 . S
C2614 C2615 1.372 . S
C2615 C2614 1.372 . S
C2615 C2616 1.400 . S
C2615 C2620 1.490 . S
C2616 H2606 0.930 . S
C2616 C2615 1.400 . S
C2616 C2619 1.386 . S
H2617 C2633 0.930 . S
H2618 C2634 0.931 . S
C2619 H2607 0.929 . S
C2619 C2613 1.390 . S
C2619 C2616 1.386 . S
C2620 C2615 1.490 . S
C2620 C2622 1.395 . S
C2620 C2623 1.403 . S
H2621 C2627 0.930 . S
C2622 H2608 0.930 . S
C2622 C2620 1.395 . S
C2622 C2625 1.403 . S
C2623 C2620 1.403 . S
C2623 C2624 1.524 . S
C2623 C2627 1.400 . S
C2624 H2609 0.960 . S
C2624 H2610 0.960 . S
C2624 H2611 0.960 . S
C2624 C2623 1.524 . S
C2625 C2622 1.403 . S
C2625 C2626 1.392 . S
C2625 C2629 1.495 . S
C2626 C2625 1.392 . S
C2626 C2627 1.385 . S
C2626 C2628 1.478 . S
C2627 H2621 0.930 . S
C2627 C2623 1.400 . S
C2627 C2626 1.385 . S
C2628 C2626 1.478 . S
C2628 C2630 1.381 . S
C2628 C2634 1.383 . S
C2629 C2625 1.495 . S
C2629 H2635 0.959 . S
C2629 H2636 0.961 . S
C2629 H2637 0.960 . S
C2630 C2628 1.381 . S
C2630 C2631 1.394 . S
C2630 H2638 0.930 . S
C2631 C2630 1.394 . S
C2631 C2632 1.383 . S
C2631 H2639 0.929 . S
C2632 C2631 1.383 . S
C2632 C2633 1.377 . S
C2633 H2617 0.930 . S
C2633 C2632 1.377 . S
C2633 C2634 1.379 . S
C2634 H2618 0.931 . S
C2634 C2628 1.383 . S
C2634 C2633 1.379 . S
H2635 C2629 0.959 . S
H2636 C2629 0.961 . S
H2637 C2629 0.960 . S
H2638 C2630 0.930 . S
H2639 C2631 0.929 . S
H2640 C2648 0.929 . S
H2641 C2650 0.930 . S
H2642 C2652 0.930 . S
H2643 C2655 0.929 . S
H2644 C2658 0.930 . S
H2645 C2660 0.960 . S
H2646 C2660 0.960 . S
H2647 C2660 0.960 . S
C2648 H2640 0.929 . S
C2648 C2649 1.377 . S
C2648 C2650 1.384 . S
C2649 C2648 1.377 . S
C2649 C2655 1.390 . S
C2650 H2641 0.930 . S
C2650 C2648 1.384 . S
C2650 C2651 1.372 . S
C2651 C2650 1.372 . S
C2651 C2652 1.400 . S
C2651 C2656 1.490 . S
C2652 H2642 0.930 . S
C2652 C2651 1.400 . S
C2652 C2655 1.386 . S
H2653 C2669 0.930 . S
H2654 C2670 0.931 . S
C2655 H2643 0.929 . S
C2655 C2649 1.390 . S
C2655 C2652 1.386 . S
C2656 C2651 1.490 . S
C2656 C2658 1.395 . S
C2656 C2659 1.403 . S
H2657 C2663 0.930 . S
C2658 H2644 0.930 . S
C2658 C2656 1.395 . S
C2658 C2661 1.403 . S
C2659 C2656 1.403 . S
C2659 C2660 1.524 . S
C2659 C2663 1.400 . S
C2660 H2645 0.960 . S
C2660 H2646 0.960 . S
C2660 H2647 0.960 . S
C2660 C2659 1.524 . S
C2661 C2658 1.403 . S
C2661 C2662 1.392 . S
C2661 C2665 1.495 . S
C2662 C2661 1.392 . S
C2662 C2663 1.385 . S
C2662 C2664 1.478 . S
C2663 H2657 0.930 . S
C2663 C2659 1.400 . S
C2663 C2662 1.385 . S
C2664 C2662 1.478 . S
C2664 C2666 1.381 . S
C2664 C2670 1.383 . S
C2665 C2661 1.495 . S
C2665 H2671 0.959 . S
C2665 H2672 0.961 . S
C2665 H2673 0.960 . S
C2666 C2664 1.381 . S
C2666 C2667 1.394 . S
C2666 H2674 0.930 . S
C2667 C2666 1.394 . S
C2667 C2668 1.383 . S
C2667 H2675 0.929 . S
C2668 C2667 1.383 . S
C2668 C2669 1.377 . S
C2669 H2653 0.930 . S
C2669 C2668 1.377 . S
C2669 C2670 1.379 . S
C2670 H2654 0.931 . S
C2670 C2664 1.383 . S
C2670 C2669 1.379 . S
H2671 C2665 0.959 . S
H2672 C2665 0.961 . S
H2673 C2665 0.960 . S
H2674 C2666 0.930 . S
H2675 C2667 0.929 . S
H2676 C2684 0.929 . S
H2677 C2686 0.930 . S
H2678 C2688 0.930 . S
H2679 C2691 0.929 . S
H2680 C2694 0.930 . S
H2681 C2696 0.960 . S
H2682 C2696 0.960 . S
H2683 C2696 0.960 . S
C2684 H2676 0.929 . S
C2684 C2685 1.377 . S
C2684 C2686 1.384 . S
C2685 C2684 1.377 . S
C2685 C2691 1.390 . S
C2686 H2677 0.930 . S
C2686 C2684 1.384 . S
C2686 C2687 1.372 . S
C2687 C2686 1.372 . S
C2687 C2688 1.400 . S
C2687 C2692 1.490 . S
C2688 H2678 0.930 . S
C2688 C2687 1.400 . S
C2688 C2691 1.386 . S
H2689 C2705 0.930 . S
H2690 C2706 0.931 . S
C2691 H2679 0.929 . S
C2691 C2685 1.390 . S
C2691 C2688 1.386 . S
C2692 C2687 1.490 . S
C2692 C2694 1.395 . S
C2692 C2695 1.403 . S
H2693 C2699 0.930 . S
C2694 H2680 0.930 . S
C2694 C2692 1.395 . S
C2694 C2697 1.403 . S
C2695 C2692 1.403 . S
C2695 C2696 1.524 . S
C2695 C2699 1.400 . S
C2696 H2681 0.960 . S
C2696 H2682 0.960 . S
C2696 H2683 0.960 . S
C2696 C2695 1.524 . S
C2697 C2694 1.403 . S
C2697 C2698 1.392 . S
C2697 C2701 1.495 . S
C2698 C2697 1.392 . S
C2698 C2699 1.385 . S
C2698 C2700 1.478 . S
C2699 H2693 0.930 . S
C2699 C2695 1.400 . S
C2699 C2698 1.385 . S
C2700 C2698 1.478 . S
C2700 C2702 1.381 . S
C2700 C2706 1.383 . S
C2701 C2697 1.495 . S
C2701 H2707 0.959 . S
C2701 H2708 0.961 . S
C2701 H2709 0.960 . S
C2702 C2700 1.381 . S
C2702 C2703 1.394 . S
C2702 H2710 0.930 . S
C2703 C2702 1.394 . S
C2703 C2704 1.383 . S
C2703 H2711 0.929 . S
C2704 C2703 1.383 . S
C2704 C2705 1.377 . S
C2705 H2689 0.930 . S
C2705 C2704 1.377 . S
C2705 C2706 1.379 . S
C2706 H2690 0.931 . S
C2706 C2700 1.383 . S
C2706 C2705 1.379 . S
H2707 C2701 0.959 . S
H2708 C2701 0.961 . S
H2709 C2701 0.960 . S
H2710 C2702 0.930 . S
H2711 C2703 0.929 . S
H2712 C2720 0.929 . S
H2713 C2722 0.930 . S
H2714 C2724 0.930 . S
H2715 C2727 0.929 . S
H2716 C2730 0.930 . S
H2717 C2732 0.960 . S
H2718 C2732 0.960 . S
H2719 C2732 0.960 . S
C2720 H2712 0.929 . S
C2720 C2721 1.377 . S
C2720 C2722 1.384 . S
C2721 C2720 1.377 . S
C2721 C2727 1.390 . S
C2722 H2713 0.930 . S
C2722 C2720 1.384 . S
C2722 C2723 1.372 . S
C2723 C2722 1.372 . S
C2723 C2724 1.400 . S
C2723 C2728 1.490 . S
C2724 H2714 0.930 . S
C2724 C2723 1.400 . S
C2724 C2727 1.386 . S
H2725 C2741 0.930 . S
H2726 C2742 0.931 . S
C2727 H2715 0.929 . S
C2727 C2721 1.390 . S
C2727 C2724 1.386 . S
C2728 C2723 1.490 . S
C2728 C2730 1.395 . S
C2728 C2731 1.403 . S
H2729 C2735 0.930 . S
C2730 H2716 0.930 . S
C2730 C2728 1.395 . S
C2730 C2733 1.403 . S
C2731 C2728 1.403 . S
C2731 C2732 1.524 . S
C2731 C2735 1.400 . S
C2732 H2717 0.960 . S
C2732 H2718 0.960 . S
C2732 H2719 0.960 . S
C2732 C2731 1.524 . S
C2733 C2730 1.403 . S
C2733 C2734 1.392 . S
C2733 C2737 1.495 . S
C2734 C2733 1.392 . S
C2734 C2735 1.385 . S
C2734 C2736 1.478 . S
C2735 H2729 0.930 . S
C2735 C2731 1.400 . S
C2735 C2734 1.385 . S
C2736 C2734 1.478 . S
C2736 C2738 1.381 . S
C2736 C2742 1.383 . S
C2737 C2733 1.495 . S
C2737 H2743 0.959 . S
C2737 H2744 0.961 . S
C2737 H2745 0.960 . S
C2738 C2736 1.381 . S
C2738 C2739 1.394 . S
C2738 H2746 0.930 . S
C2739 C2738 1.394 . S
C2739 C2740 1.383 . S
C2739 H2747 0.929 . S
C2740 C2739 1.383 . S
C2740 C2741 1.377 . S
C2741 H2725 0.930 . S
C2741 C2740 1.377 . S
C2741 C2742 1.379 . S
C2742 H2726 0.931 . S
C2742 C2736 1.383 . S
C2742 C2741 1.379 . S
H2743 C2737 0.959 . S
H2744 C2737 0.961 . S
H2745 C2737 0.960 . S
H2746 C2738 0.930 . S
H2747 C2739 0.929 . S
H2748 C2756 0.929 . S
H2749 C2758 0.930 . S
H2750 C2760 0.930 . S
H2751 C2763 0.929 . S
H2752 C2766 0.930 . S
H2753 C2768 0.960 . S
H2754 C2768 0.960 . S
H2755 C2768 0.960 . S
C2756 H2748 0.929 . S
C2756 C2757 1.377 . S
C2756 C2758 1.384 . S
C2757 C2756 1.377 . S
C2757 C2763 1.390 . S
C2758 H2749 0.930 . S
C2758 C2756 1.384 . S
C2758 C2759 1.372 . S
C2759 C2758 1.372 . S
C2759 C2760 1.400 . S
C2759 C2764 1.490 . S
C2760 H2750 0.930 . S
C2760 C2759 1.400 . S
C2760 C2763 1.386 . S
H2761 C2777 0.930 . S
H2762 C2778 0.931 . S
C2763 H2751 0.929 . S
C2763 C2757 1.390 . S
C2763 C2760 1.386 . S
C2764 C2759 1.490 . S
C2764 C2766 1.395 . S
C2764 C2767 1.403 . S
H2765 C2771 0.930 . S
C2766 H2752 0.930 . S
C2766 C2764 1.395 . S
C2766 C2769 1.403 . S
C2767 C2764 1.403 . S
C2767 C2768 1.524 . S
C2767 C2771 1.400 . S
C2768 H2753 0.960 . S
C2768 H2754 0.960 . S
C2768 H2755 0.960 . S
C2768 C2767 1.524 . S
C2769 C2766 1.403 . S
C2769 C2770 1.392 . S
C2769 C2773 1.495 . S
C2770 C2769 1.392 . S
C2770 C2771 1.385 . S
C2770 C2772 1.478 . S
C2771 H2765 0.930 . S
C2771 C2767 1.400 . S
C2771 C2770 1.385 . S
C2772 C2770 1.478 . S
C2772 C2774 1.381 . S
C2772 C2778 1.383 . S
C2773 C2769 1.495 . S
C2773 H2779 0.959 . S
C2773 H2780 0.961 . S
C2773 H2781 0.960 . S
C2774 C2772 1.381 . S
C2774 C2775 1.394 . S
C2774 H2782 0.930 . S
C2775 C2774 1.394 . S
C2775 C2776 1.383 . S
C2775 H2783 0.929 . S
C2776 C2775 1.383 . S
C2776 C2777 1.377 . S
C2777 H2761 0.930 . S
C2777 C2776 1.377 . S
C2777 C2778 1.379 . S
C2778 H2762 0.931 . S
C2778 C2772 1.383 . S
C2778 C2777 1.379 . S
H2779 C2773 0.959 . S
H2780 C2773 0.961 . S
H2781 C2773 0.960 . S
H2782 C2774 0.930 . S
H2783 C2775 0.929 . S
H2784 C2792 0.929 . S
H2785 C2794 0.930 . S
H2786 C2796 0.930 . S
H2787 C2799 0.929 . S
H2788 C2802 0.930 . S
H2789 C2804 0.960 . S
H2790 C2804 0.960 . S
H2791 C2804 0.960 . S
C2792 H2784 0.929 . S
C2792 C2793 1.377 . S
C2792 C2794 1.384 . S
C2793 C2792 1.377 . S
C2793 C2799 1.390 . S
C2794 H2785 0.930 . S
C2794 C2792 1.384 . S
C2794 C2795 1.372 . S
C2795 C2794 1.372 . S
C2795 C2796 1.400 . S
C2795 C2800 1.490 . S
C2796 H2786 0.930 . S
C2796 C2795 1.400 . S
C2796 C2799 1.386 . S
H2797 C2813 0.930 . S
H2798 C2814 0.931 . S
C2799 H2787 0.929 . S
C2799 C2793 1.390 . S
C2799 C2796 1.386 . S
C2800 C2795 1.490 . S
C2800 C2802 1.395 . S
C2800 C2803 1.403 . S
H2801 C2807 0.930 . S
C2802 H2788 0.930 . S
C2802 C2800 1.395 . S
C2802 C2805 1.403 . S
C2803 C2800 1.403 . S
C2803 C2804 1.524 . S
C2803 C2807 1.400 . S
C2804 H2789 0.960 . S
C2804 H2790 0.960 . S
C2804 H2791 0.960 . S
C2804 C2803 1.524 . S
C2805 C2802 1.403 . S
C2805 C2806 1.392 . S
C2805 C2809 1.495 . S
C2806 C2805 1.392 . S
C2806 C2807 1.385 . S
C2806 C2808 1.478 . S
C2807 H2801 0.930 . S
C2807 C2803 1.400 . S
C2807 C2806 1.385 . S
C2808 C2806 1.478 . S
C2808 C2810 1.381 . S
C2808 C2814 1.383 . S
C2809 C2805 1.495 . S
C2809 H2815 0.959 . S
C2809 H2816 0.961 . S
C2809 H2817 0.960 . S
C2810 C2808 1.381 . S
C2810 C2811 1.394 . S
C2810 H2818 0.930 . S
C2811 C2810 1.394 . S
C2811 C2812 1.383 . S
C2811 H2819 0.929 . S
C2812 C2811 1.383 . S
C2812 C2813 1.377 . S
C2813 H2797 0.930 . S
C2813 C2812 1.377 . S
C2813 C2814 1.379 . S
C2814 H2798 0.931 . S
C2814 C2808 1.383 . S
C2814 C2813 1.379 . S
H2815 C2809 0.959 . S
H2816 C2809 0.961 . S
H2817 C2809 0.960 . S
H2818 C2810 0.930 . S
H2819 C2811 0.929 . S
H2820 C2828 0.929 . S
H2821 C2830 0.930 . S
H2822 C2832 0.930 . S
H2823 C2835 0.929 . S
H2824 C2838 0.930 . S
H2825 C2840 0.960 . S
H2826 C2840 0.960 . S
H2827 C2840 0.960 . S
C2828 H2820 0.929 . S
C2828 C2829 1.377 . S
C2828 C2830 1.384 . S
C2829 C2828 1.377 . S
C2829 C2835 1.390 . S
C2830 H2821 0.930 . S
C2830 C2828 1.384 . S
C2830 C2831 1.372 . S
C2831 C2830 1.372 . S
C2831 C2832 1.400 . S
C2831 C2836 1.490 . S
C2832 H2822 0.930 . S
C2832 C2831 1.400 . S
C2832 C2835 1.386 . S
H2833 C2849 0.930 . S
H2834 C2850 0.931 . S
C2835 H2823 0.929 . S
C2835 C2829 1.390 . S
C2835 C2832 1.386 . S
C2836 C2831 1.490 . S
C2836 C2838 1.395 . S
C2836 C2839 1.403 . S
H2837 C2843 0.930 . S
C2838 H2824 0.930 . S
C2838 C2836 1.395 . S
C2838 C2841 1.403 . S
C2839 C2836 1.403 . S
C2839 C2840 1.524 . S
C2839 C2843 1.400 . S
C2840 H2825 0.960 . S
C2840 H2826 0.960 . S
C2840 H2827 0.960 . S
C2840 C2839 1.524 . S
C2841 C2838 1.403 . S
C2841 C2842 1.392 . S
C2841 C2845 1.495 . S
C2842 C2841 1.392 . S
C2842 C2843 1.385 . S
C2842 C2844 1.478 . S
C2843 H2837 0.930 . S
C2843 C2839 1.400 . S
C2843 C2842 1.385 . S
C2844 C2842 1.478 . S
C2844 C2846 1.381 . S
C2844 C2850 1.383 . S
C2845 C2841 1.495 . S
C2845 H2851 0.959 . S
C2845 H2852 0.961 . S
C2845 H2853 0.960 . S
C2846 C2844 1.381 . S
C2846 C2847 1.394 . S
C2846 H2854 0.930 . S
C2847 C2846 1.394 . S
C2847 C2848 1.383 . S
C2847 H2855 0.929 . S
C2848 C2847 1.383 . S
C2848 C2849 1.377 . S
C2849 H2833 0.930 . S
C2849 C2848 1.377 . S
C2849 C2850 1.379 . S
C2850 H2834 0.931 . S
C2850 C2844 1.383 . S
C2850 C2849 1.379 . S
H2851 C2845 0.959 . S
H2852 C2845 0.961 . S
H2853 C2845 0.960 . S
H2854 C2846 0.930 . S
H2855 C2847 0.929 . S
H2856 C2864 0.929 . S
H2857 C2866 0.930 . S
H2858 C2868 0.930 . S
H2859 C2871 0.929 . S
H2860 C2874 0.930 . S
H2861 C2876 0.960 . S
H2862 C2876 0.960 . S
H2863 C2876 0.960 . S
C2864 H2856 0.929 . S
C2864 C2865 1.377 . S
C2864 C2866 1.384 . S
C2865 C2864 1.377 . S
C2865 C2871 1.390 . S
C2866 H2857 0.930 . S
C2866 C2864 1.384 . S
C2866 C2867 1.372 . S
C2867 C2866 1.372 . S
C2867 C2868 1.400 . S
C2867 C2872 1.490 . S
C2868 H2858 0.930 . S
C2868 C2867 1.400 . S
C2868 C2871 1.386 . S
H2869 C2885 0.930 . S
H2870 C2886 0.931 . S
C2871 H2859 0.929 . S
C2871 C2865 1.390 . S
C2871 C2868 1.386 . S
C2872 C2867 1.490 . S
C2872 C2874 1.395 . S
C2872 C2875 1.403 . S
H2873 C2879 0.930 . S
C2874 H2860 0.930 . S
C2874 C2872 1.395 . S
C2874 C2877 1.403 . S
C2875 C2872 1.403 . S
C2875 C2876 1.524 . S
C2875 C2879 1.400 . S
C2876 H2861 0.960 . S
C2876 H2862 0.960 . S
C2876 H2863 0.960 . S
C2876 C2875 1.524 . S
C2877 C2874 1.403 . S
C2877 C2878 1.392 . S
C2877 C2881 1.495 . S
C2878 C2877 1.392 . S
C2878 C2879 1.385 . S
C2878 C2880 1.478 . S
C2879 H2873 0.930 . S
C2879 C2875 1.400 . S
C2879 C2878 1.385 . S
C2880 C2878 1.478 . S
C2880 C2882 1.381 . S
C2880 C2886 1.383 . S
C2881 C2877 1.495 . S
C2881 H2887 0.959 . S
C2881 H2888 0.961 . S
C2881 H2889 0.960 . S
C2882 C2880 1.381 . S
C2882 C2883 1.394 . S
C2882 H2890 0.930 . S
C2883 C2882 1.394 . S
C2883 C2884 1.383 . S
C2883 H2891 0.929 . S
C2884 C2883 1.383 . S
C2884 C2885 1.377 . S
C2885 H2869 0.930 . S
C2885 C2884 1.377 . S
C2885 C2886 1.379 . S
C2886 H2870 0.931 . S
C2886 C2880 1.383 . S
C2886 C2885 1.379 . S
H2887 C2881 0.959 . S
H2888 C2881 0.961 . S
H2889 C2881 0.960 . S
H2890 C2882 0.930 . S
H2891 C2883 0.929 . S
H2892 C2900 0.929 . S
H2893 C2902 0.930 . S
H2894 C2904 0.930 . S
H2895 C2907 0.929 . S
H2896 C2910 0.930 . S
H2897 C2912 0.960 . S
H2898 C2912 0.960 . S
H2899 C2912 0.960 . S
C2900 H2892 0.929 . S
C2900 C2901 1.377 . S
C2900 C2902 1.384 . S
C2901 C2900 1.377 . S
C2901 C2907 1.390 . S
C2902 H2893 0.930 . S
C2902 C2900 1.384 . S
C2902 C2903 1.372 . S
C2903 C2902 1.372 . S
C2903 C2904 1.400 . S
C2903 C2908 1.490 . S
C2904 H2894 0.930 . S
C2904 C2903 1.400 . S
C2904 C2907 1.386 . S
H2905 C2921 0.930 . S
H2906 C2922 0.931 . S
C2907 H2895 0.929 . S
C2907 C2901 1.390 . S
C2907 C2904 1.386 . S
C2908 C2903 1.490 . S
C2908 C2910 1.395 . S
C2908 C2911 1.403 . S
H2909 C2915 0.930 . S
C2910 H2896 0.930 . S
C2910 C2908 1.395 . S
C2910 C2913 1.403 . S
C2911 C2908 1.403 . S
C2911 C2912 1.524 . S
C2911 C2915 1.400 . S
C2912 H2897 0.960 . S
C2912 H2898 0.960 . S
C2912 H2899 0.960 . S
C2912 C2911 1.524 . S
C2913 C2910 1.403 . S
C2913 C2914 1.392 . S
C2913 C2917 1.495 . S
C2914 C2913 1.392 . S
C2914 C2915 1.385 . S
C2914 C2916 1.478 . S
C2915 H2909 0.930 . S
C2915 C2911 1.400 . S
C2915 C2914 1.385 . S
C2916 C2914 1.478 . S
C2916 C2918 1.381 . S
C2916 C2922 1.383 . S
C2917 C2913 1.495 . S
C2917 H2923 0.959 . S
C2917 H2924 0.961 . S
C2917 H2925 0.960 . S
C2918 C2916 1.381 . S
C2918 C2919 1.394 . S
C2918 H2926 0.930 . S
C2919 C2918 1.394 . S
C2919 C2920 1.383 . S
C2919 H2927 0.929 . S
C2920 C2919 1.383 . S
C2920 C2921 1.377 . S
C2921 H2905 0.930 . S
C2921 C2920 1.377 . S
C2921 C2922 1.379 . S
C2922 H2906 0.931 . S
C2922 C2916 1.383 . S
C2922 C2921 1.379 . S
H2923 C2917 0.959 . S
H2924 C2917 0.961 . S
H2925 C2917 0.960 . S
H2926 C2918 0.930 . S
H2927 C2919 0.929 . S
H2928 C2936 0.929 . S
H2929 C2938 0.930 . S
H2930 C2940 0.930 . S
H2931 C2943 0.929 . S
H2932 C2946 0.930 . S
H2933 C2948 0.960 . S
H2934 C2948 0.960 . S
H2935 C2948 0.960 . S
C2936 H2928 0.929 . S
C2936 C2937 1.377 . S
C2936 C2938 1.384 . S
C2937 C2936 1.377 . S
C2937 C2943 1.390 . S
C2938 H2929 0.930 . S
C2938 C2936 1.384 . S
C2938 C2939 1.372 . S
C2939 C2938 1.372 . S
C2939 C2940 1.400 . S
C2939 C2944 1.490 . S
C2940 H2930 0.930 . S
C2940 C2939 1.400 . S
C2940 C2943 1.386 . S
H2941 C2957 0.930 . S
H2942 C2958 0.931 . S
C2943 H2931 0.929 . S
C2943 C2937 1.390 . S
C2943 C2940 1.386 . S
C2944 C2939 1.490 . S
C2944 C2946 1.395 . S
C2944 C2947 1.403 . S
H2945 C2951 0.930 . S
C2946 H2932 0.930 . S
C2946 C2944 1.395 . S
C2946 C2949 1.403 . S
C2947 C2944 1.403 . S
C2947 C2948 1.524 . S
C2947 C2951 1.400 . S
C2948 H2933 0.960 . S
C2948 H2934 0.960 . S
C2948 H2935 0.960 . S
C2948 C2947 1.524 . S
C2949 C2946 1.403 . S
C2949 C2950 1.392 . S
C2949 C2953 1.495 . S
C2950 C2949 1.392 . S
C2950 C2951 1.385 . S
C2950 C2952 1.478 . S
C2951 H2945 0.930 . S
C2951 C2947 1.400 . S
C2951 C2950 1.385 . S
C2952 C2950 1.478 . S
C2952 C2954 1.381 . S
C2952 C2958 1.383 . S
C2953 C2949 1.495 . S
C2953 H2959 0.959 . S
C2953 H2960 0.961 . S
C2953 H2961 0.960 . S
C2954 C2952 1.381 . S
C2954 C2955 1.394 . S
C2954 H2962 0.930 . S
C2955 C2954 1.394 . S
C2955 C2956 1.383 . S
C2955 H2963 0.929 . S
C2956 C2955 1.383 . S
C2956 C2957 1.377 . S
C2957 H2941 0.930 . S
C2957 C2956 1.377 . S
C2957 C2958 1.379 . S
C2958 H2942 0.931 . S
C2958 C2952 1.383 . S
C2958 C2957 1.379 . S
H2959 C2953 0.959 . S
H2960 C2953 0.961 . S
H2961 C2953 0.960 . S
H2962 C2954 0.930 . S
H2963 C2955 0.929 . S
H2964 C2972 0.929 . S
H2965 C2974 0.930 . S
H2966 C2976 0.930 . S
H2967 C2979 0.929 . S
H2968 C2982 0.930 . S
H2969 C2984 0.960 . S
H2970 C2984 0.960 . S
H2971 C2984 0.960 . S
C2972 H2964 0.929 . S
C2972 C2973 1.377 . S
C2972 C2974 1.384 . S
C2973 C2972 1.377 . S
C2973 C2979 1.390 . S
C2974 H2965 0.930 . S
C2974 C2972 1.384 . S
C2974 C2975 1.372 . S
C2975 C2974 1.372 . S
C2975 C2976 1.400 . S
C2975 C2980 1.490 . S
C2976 H2966 0.930 . S
C2976 C2975 1.400 . S
C2976 C2979 1.386 . S
H2977 C2993 0.930 . S
H2978 C2994 0.931 . S
C2979 H2967 0.929 . S
C2979 C2973 1.390 . S
C2979 C2976 1.386 . S
C2980 C2975 1.490 . S
C2980 C2982 1.395 . S
C2980 C2983 1.403 . S
H2981 C2987 0.930 . S
C2982 H2968 0.930 . S
C2982 C2980 1.395 . S
C2982 C2985 1.403 . S
C2983 C2980 1.403 . S
C2983 C2984 1.524 . S
C2983 C2987 1.400 . S
C2984 H2969 0.960 . S
C2984 H2970 0.960 . S
C2984 H2971 0.960 . S
C2984 C2983 1.524 . S
C2985 C2982 1.403 . S
C2985 C2986 1.392 . S
C2985 C2989 1.495 . S
C2986 C2985 1.392 . S
C2986 C2987 1.385 . S
C2986 C2988 1.478 . S
C2987 H2981 0.930 . S
C2987 C2983 1.400 . S
C2987 C2986 1.385 . S
C2988 C2986 1.478 . S
C2988 C2990 1.381 . S
C2988 C2994 1.383 . S
C2989 C2985 1.495 . S
C2989 H2995 0.959 . S
C2989 H2996 0.961 . S
C2989 H2997 0.960 . S
C2990 C2988 1.381 . S
C2990 C2991 1.394 . S
C2990 H2998 0.930 . S
C2991 C2990 1.394 . S
C2991 C2992 1.383 . S
C2991 H2999 0.929 . S
C2992 C2991 1.383 . S
C2992 C2993 1.377 . S
C2993 H2977 0.930 . S
C2993 C2992 1.377 . S
C2993 C2994 1.379 . S
C2994 H2978 0.931 . S
C2994 C2988 1.383 . S
C2994 C2993 1.379 . S
H2995 C2989 0.959 . S
H2996 C2989 0.961 . S
H2997 C2989 0.960 . S
H2998 C2990 0.930 . S
H2999 C2991 0.929 . S
H3000 C3008 0.929 . S
H3001 C3010 0.930 . S
H3002 C3012 0.930 . S
H3003 C3015 0.929 . S
H3004 C3018 0.930 . S
H3005 C3020 0.960 . S
H3006 C3020 0.960 . S
H3007 C3020 0.960 . S
C3008 H3000 0.929 . S
C3008 C3009 1.377 . S
C3008 C3010 1.384 . S
C3009 C3008 1.377 . S
C3009 C3015 1.390 . S
C3010 H3001 0.930 . S
C3010 C3008 1.384 . S
C3010 C3011 1.372 . S
C3011 C3010 1.372 . S
C3011 C3012 1.400 . S
C3011 C3016 1.490 . S
C3012 H3002 0.930 . S
C3012 C3011 1.400 . S
C3012 C3015 1.386 . S
H3013 C3029 0.930 . S
H3014 C3030 0.931 . S
C3015 H3003 0.929 . S
C3015 C3009 1.390 . S
C3015 C3012 1.386 . S
C3016 C3011 1.490 . S
C3016 C3018 1.395 . S
C3016 C3019 1.403 . S
H3017 C3023 0.930 . S
C3018 H3004 0.930 . S
C3018 C3016 1.395 . S
C3018 C3021 1.403 . S
C3019 C3016 1.403 . S
C3019 C3020 1.524 . S
C3019 C3023 1.400 . S
C3020 H3005 0.960 . S
C3020 H3006 0.960 . S
C3020 H3007 0.960 . S
C3020 C3019 1.524 . S
C3021 C3018 1.403 . S
C3021 C3022 1.392 . S
C3021 C3025 1.495 . S
C3022 C3021 1.392 . S
C3022 C3023 1.385 . S
C3022 C3024 1.478 . S
C3023 H3017 0.930 . S
C3023 C3019 1.400 . S
C3023 C3022 1.385 . S
C3024 C3022 1.478 . S
C3024 C3026 1.381 . S
C3024 C3030 1.383 . S
C3025 C3021 1.495 . S
C3025 H3031 0.959 . S
C3025 H3032 0.961 . S
C3025 H3033 0.960 . S
C3026 C3024 1.381 . S
C3026 C3027 1.394 . S
C3026 H3034 0.930 . S
C3027 C3026 1.394 . S
C3027 C3028 1.383 . S
C3027 H3035 0.929 . S
C3028 C3027 1.383 . S
C3028 C3029 1.377 . S
C3029 H3013 0.930 . S
C3029 C3028 1.377 . S
C3029 C3030 1.379 . S
C3030 H3014 0.931 . S
C3030 C3024 1.383 . S
C3030 C3029 1.379 . S
H3031 C3025 0.959 . S
H3032 C3025 0.961 . S
H3033 C3025 0.960 . S
H3034 C3026 0.930 . S
H3035 C3027 0.929 . S
H3036 C3044 0.929 . S
H3037 C3046 0.930 . S
H3038 C3048 0.930 . S
H3039 C3051 0.929 . S
H3040 C3054 0.930 . S
H3041 C3056 0.960 . S
H3042 C3056 0.960 . S
H3043 C3056 0.960 . S
C3044 H3036 0.929 . S
C3044 C3045 1.377 . S
C3044 C3046 1.384 . S
C3045 C3044 1.377 . S
C3045 C3051 1.390 . S
C3046 H3037 0.930 . S
C3046 C3044 1.384 . S
C3046 C3047 1.372 . S
C3047 C3046 1.372 . S
C3047 C3048 1.400 . S
C3047 C3052 1.490 . S
C3048 H3038 0.930 . S
C3048 C3047 1.400 . S
C3048 C3051 1.386 . S
H3049 C3065 0.930 . S
H3050 C3066 0.931 . S
C3051 H3039 0.929 . S
C3051 C3045 1.390 . S
C3051 C3048 1.386 . S
C3052 C3047 1.490 . S
C3052 C3054 1.395 . S
C3052 C3055 1.403 . S
H3053 C3059 0.930 . S
C3054 H3040 0.930 . S
C3054 C3052 1.395 . S
C3054 C3057 1.403 . S
C3055 C3052 1.403 . S
C3055 C3056 1.524 . S
C3055 C3059 1.400 . S
C3056 H3041 0.960 . S
C3056 H3042 0.960 . S
C3056 H3043 0.960 . S
C3056 C3055 1.524 . S
C3057 C3054 1.403 . S
C3057 C3058 1.392 . S
C3057 C3061 1.495 . S
C3058 C3057 1.392 . S
C3058 C3059 1.385 . S
C3058 C3060 1.478 . S
C3059 H3053 0.930 . S
C3059 C3055 1.400 . S
C3059 C3058 1.385 . S
C3060 C3058 1.478 . S
C3060 C3062 1.381 . S
C3060 C3066 1.383 . S
C3061 C3057 1.495 . S
C3061 H3067 0.959 . S
C3061 H3068 0.961 . S
C3061 H3069 0.960 . S
C3062 C3060 1.381 . S
C3062 C3063 1.394 . S
C3062 H3070 0.930 . S
C3063 C3062 1.394 . S
C3063 C3064 1.383 . S
C3063 H3071 0.929 . S
C3064 C3063 1.383 . S
C3064 C3065 1.377 . S
C3065 H3049 0.930 . S
C3065 C3064 1.377 . S
C3065 C3066 1.379 . S
C3066 H3050 0.931 . S
C3066 C3060 1.383 . S
C3066 C3065 1.379 . S
H3067 C3061 0.959 . S
H3068 C3061 0.961 . S
H3069 C3061 0.960 . S
H3070 C3062 0.930 . S
H3071 C3063 0.929 . S
H3072 C3080 0.929 . S
H3073 C3082 0.930 . S
H3074 C3084 0.930 . S
H3075 C3087 0.929 . S
H3076 C3090 0.930 . S
H3077 C3092 0.960 . S
H3078 C3092 0.960 . S
H3079 C3092 0.960 . S
C3080 H3072 0.929 . S
C3080 C3081 1.377 . S
C3080 C3082 1.384 . S
C3081 C3080 1.377 . S
C3081 C3087 1.390 . S
C3082 H3073 0.930 . S
C3082 C3080 1.384 . S
C3082 C3083 1.372 . S
C3083 C3082 1.372 . S
C3083 C3084 1.400 . S
C3083 C3088 1.490 . S
C3084 H3074 0.930 . S
C3084 C3083 1.400 . S
C3084 C3087 1.386 . S
H3085 C3101 0.930 . S
H3086 C3102 0.931 . S
C3087 H3075 0.929 . S
C3087 C3081 1.390 . S
C3087 C3084 1.386 . S
C3088 C3083 1.490 . S
C3088 C3090 1.395 . S
C3088 C3091 1.403 . S
H3089 C3095 0.930 . S
C3090 H3076 0.930 . S
C3090 C3088 1.395 . S
C3090 C3093 1.403 . S
C3091 C3088 1.403 . S
C3091 C3092 1.524 . S
C3091 C3095 1.400 . S
C3092 H3077 0.960 . S
C3092 H3078 0.960 . S
C3092 H3079 0.960 . S
C3092 C3091 1.524 . S
C3093 C3090 1.403 . S
C3093 C3094 1.392 . S
C3093 C3097 1.495 . S
C3094 C3093 1.392 . S
C3094 C3095 1.385 . S
C3094 C3096 1.478 . S
C3095 H3089 0.930 . S
C3095 C3091 1.400 . S
C3095 C3094 1.385 . S
C3096 C3094 1.478 . S
C3096 C3098 1.381 . S
C3096 C3102 1.383 . S
C3097 C3093 1.495 . S
C3097 H3103 0.959 . S
C3097 H3104 0.961 . S
C3097 H3105 0.960 . S
C3098 C3096 1.381 . S
C3098 C3099 1.394 . S
C3098 H3106 0.930 . S
C3099 C3098 1.394 . S
C3099 C3100 1.383 . S
C3099 H3107 0.929 . S
C3100 C3099 1.383 . S
C3100 C3101 1.377 . S
C3101 H3085 0.930 . S
C3101 C3100 1.377 . S
C3101 C3102 1.379 . S
C3102 H3086 0.931 . S
C3102 C3096 1.383 . S
C3102 C3101 1.379 . S
H3103 C3097 0.959 . S
H3104 C3097 0.961 . S
H3105 C3097 0.960 . S
H3106 C3098 0.930 . S
H3107 C3099 0.929 . S
H3108 C3116 0.929 . S
H3109 C3118 0.930 . S
H3110 C3120 0.930 . S
H3111 C3123 0.929 . S
H3112 C3126 0.930 . S
H3113 C3128 0.960 . S
H3114 C3128 0.960 . S
H3115 C3128 0.960 . S
C3116 H3108 0.929 . S
C3116 C3117 1.377 . S
C3116 C3118 1.384 . S
C3117 C3116 1.377 . S
C3117 C3123 1.390 . S
C3118 H3109 0.930 . S
C3118 C3116 1.384 . S
C3118 C3119 1.372 . S
C3119 C3118 1.372 . S
C3119 C3120 1.400 . S
C3119 C3124 1.490 . S
C3120 H3110 0.930 . S
C3120 C3119 1.400 . S
C3120 C3123 1.386 . S
H3121 C3137 0.930 . S
H3122 C3138 0.931 . S
C3123 H3111 0.929 . S
C3123 C3117 1.390 . S
C3123 C3120 1.386 . S
C3124 C3119 1.490 . S
C3124 C3126 1.395 . S
C3124 C3127 1.403 . S
H3125 C3131 0.930 . S
C3126 H3112 0.930 . S
C3126 C3124 1.395 . S
C3126 C3129 1.403 . S
C3127 C3124 1.403 . S
C3127 C3128 1.524 . S
C3127 C3131 1.400 . S
C3128 H3113 0.960 . S
C3128 H3114 0.960 . S
C3128 H3115 0.960 . S
C3128 C3127 1.524 . S
C3129 C3126 1.403 . S
C3129 C3130 1.392 . S
C3129 C3133 1.495 . S
C3130 C3129 1.392 . S
C3130 C3131 1.385 . S
C3130 C3132 1.478 . S
C3131 H3125 0.930 . S
C3131 C3127 1.400 . S
C3131 C3130 1.385 . S
C3132 C3130 1.478 . S
C3132 C3134 1.381 . S
C3132 C3138 1.383 . S
C3133 C3129 1.495 . S
C3133 H3139 0.959 . S
C3133 H3140 0.961 . S
C3133 H3141 0.960 . S
C3134 C3132 1.381 . S
C3134 C3135 1.394 . S
C3134 H3142 0.930 . S
C3135 C3134 1.394 . S
C3135 C3136 1.383 . S
C3135 H3143 0.929 . S
C3136 C3135 1.383 . S
C3136 C3137 1.377 . S
C3137 H3121 0.930 . S
C3137 C3136 1.377 . S
C3137 C3138 1.379 . S
C3138 H3122 0.931 . S
C3138 C3132 1.383 . S
C3138 C3137 1.379 . S
H3139 C3133 0.959 . S
H3140 C3133 0.961 . S
H3141 C3133 0.960 . S
H3142 C3134 0.930 . S
H3143 C3135 0.929 . S
H3144 C3152 0.929 . S
H3145 C3154 0.930 . S
H3146 C3156 0.930 . S
H3147 C3159 0.929 . S
H3148 C3162 0.930 . S
H3149 C3164 0.960 . S
H3150 C3164 0.960 . S
H3151 C3164 0.960 . S
C3152 H3144 0.929 . S
C3152 C3153 1.377 . S
C3152 C3154 1.384 . S
C3153 C3152 1.377 . S
C3153 C3159 1.390 . S
C3154 H3145 0.930 . S
C3154 C3152 1.384 . S
C3154 C3155 1.372 . S
C3155 C3154 1.372 . S
C3155 C3156 1.400 . S
C3155 C3160 1.490 . S
C3156 H3146 0.930 . S
C3156 C3155 1.400 . S
C3156 C3159 1.386 . S
H3157 C3173 0.930 . S
H3158 C3174 0.931 . S
C3159 H3147 0.929 . S
C3159 C3153 1.390 . S
C3159 C3156 1.386 . S
C3160 C3155 1.490 . S
C3160 C3162 1.395 . S
C3160 C3163 1.403 . S
H3161 C3167 0.930 . S
C3162 H3148 0.930 . S
C3162 C3160 1.395 . S
C3162 C3165 1.403 . S
C3163 C3160 1.403 . S
C3163 C3164 1.524 . S
C3163 C3167 1.400 . S
C3164 H3149 0.960 . S
C3164 H3150 0.960 . S
C3164 H3151 0.960 . S
C3164 C3163 1.524 . S
C3165 C3162 1.403 . S
C3165 C3166 1.392 . S
C3165 C3169 1.495 . S
C3166 C3165 1.392 . S
C3166 C3167 1.385 . S
C3166 C3168 1.478 . S
C3167 H3161 0.930 . S
C3167 C3163 1.400 . S
C3167 C3166 1.385 . S
C3168 C3166 1.478 . S
C3168 C3170 1.381 . S
C3168 C3174 1.383 . S
C3169 C3165 1.495 . S
C3169 H3175 0.959 . S
C3169 H3176 0.961 . S
C3169 H3177 0.960 . S
C3170 C3168 1.381 . S
C3170 C3171 1.394 . S
C3170 H3178 0.930 . S
C3171 C3170 1.394 . S
C3171 C3172 1.383 . S
C3171 H3179 0.929 . S
C3172 C3171 1.383 . S
C3172 C3173 1.377 . S
C3173 H3157 0.930 . S
C3173 C3172 1.377 . S
C3173 C3174 1.379 . S
C3174 H3158 0.931 . S
C3174 C3168 1.383 . S
C3174 C3173 1.379 . S
H3175 C3169 0.959 . S
H3176 C3169 0.961 . S
H3177 C3169 0.960 . S
H3178 C3170 0.930 . S
H3179 C3171 0.929 . S
C616 C294 1.429 . S
C597 C285 1.430 . S
C633 C261 1.316 . S
C652 C292 1.316 . S
C688 C293 1.316 . S
C669 C249 1.316 . S
C705 C273 1.429 . S
C724 C295 1.429 . S
C760 C339 1.493 . S
C741 C201 1.494 . S
C796 C399 1.410 . S
C777 C213 1.410 . S
C813 C225 1.486 . S
C832 C338 1.486 . S
C868 C398 1.287 . S
C849 C237 1.286 . S
C885 C153 1.370 . S
C904 C340 1.369 . S
C940 C396 1.395 . S
C921 C165 1.397 . S
C957 C177 1.373 . S
C976 C341 1.367 . S
C993 C189 1.517 . S
C1012 C397 1.515 . S
C1048 C447 1.427 . S
C1029 C141 1.431 . S
C1065 C117 1.316 . S
C1084 C446 1.316 . S
C1101 C105 1.318 . S
C1120 C448 1.315 . S
C1156 C449 1.427 . S
C1137 C129 1.431 . S
C1173 C57 1.495 . S
C1192 C490 1.489 . S
C1209 C69 1.410 . S
C1228 C549 1.404 1_565 S
C1245 C81 1.488 . S
C1264 C488 1.484 . S
C1281 C93 1.286 1_565 S
C1300 C548 1.284 . S
C1336 C489 1.370 . S
C1317 C9 1.370 . S
C1372 C546 1.394 . S
C1353 C21 1.399 . S
C1389 C33 1.371 . S
C1408 C491 1.371 . S
C1444 C547 1.512 1_565 S
C1425 C45 1.518 . S
C1480 C291 1.350 . S
C1461 C4 1.261 . S
C1497 C18 1.553 . S
C1516 C297 1.593 1_565 S
C1533 C30 1.677 . S
C1552 C289 1.715 . S
C1569 C42 1.722 . S
C1588 C296 1.756 1_565 S
C1605 C52 1.266 . S
C1624 C288 1.362 . S
C1660 C298 1.697 . S
C1641 C66 1.665 . S
C1677 C78 1.693 . S
C1696 C290 1.730 . S
C1732 C299 1.186 1_565 S
C1713 C88 1.112 1_545 S
C1768 C345 1.394 . S
C1749 C40 1.306 . S
C1785 C6 1.655 . S
C1804 C388 1.692 . S
C1840 C343 1.429 . S
C1821 C16 1.332 . S
C1876 C390 1.335 . S
C1857 C28 1.243 . S
C1893 C64 1.207 1_545 S
C1912 C344 1.294 1_565 S
C1948 C389 1.449 . S
C1929 C76 1.354 . S
C1984 C342 1.694 1_565 S
C1965 C90 1.656 1_565 S
C2020 C391 1.827 . S
C2001 C54 1.800 . S
C2056 C395 1.579 . S
C2037 C102 1.541 . S
C2073 C114 1.542 . S
C2092 C394 1.578 . S
C2128 C346 1.241 . S
C2109 C100 1.156 . S
C2164 C393 1.294 . S
C2145 C124 1.208 . S
C2181 C138 1.668 . S
C2200 C349 1.706 . S
C2217 C136 1.209 . S
C2236 C392 1.287 . S
C2272 C348 1.233 . S
C2253 C112 1.156 . S
C2308 C347 1.706 . S
C2289 C126 1.674 . S
C2344 C441 1.353 . S
C2325 C148 1.268 . S
C2380 C444 1.593 . S
C2361 C162 1.553 . S
C2397 C174 1.684 . S
C2416 C440 1.717 . S
C2452 C442 1.756 . S
C2433 C186 1.721 . S
C2488 C438 1.364 . S
C2469 C196 1.278 . S
C2505 C210 1.661 . S
C2524 C443 1.698 . S
C2541 C222 1.692 . S
C2560 C439 1.729 . S
C2596 C445 1.192 . S
C2577 C232 1.108 . S
C2632 C499 1.391 . S
C2613 C184 1.305 . S
C2649 C150 1.653 . S
C2668 C538 1.692 . S
C2704 C498 1.426 . S
C2685 C160 1.332 . S
C2740 C540 1.335 . S
C2721 C172 1.246 . S
C2776 C497 1.294 . S
C2757 C208 1.203 . S
C2793 C220 1.366 . S
C2812 C539 1.454 . S
C2848 C496 1.694 . S
C2829 C234 1.659 . S
C2884 C541 1.827 . S
C2865 C198 1.800 . S
C2920 C545 1.580 . S
C2901 C246 1.541 . S
C2937 C258 1.544 . S
C2956 C544 1.580 . S
C2992 C492 1.234 . S
C2973 C244 1.156 . S
C3009 C268 1.201 . S
C3028 C543 1.293 . S
C3064 C495 1.707 . S
C3045 C282 1.676 . S
C3100 C542 1.289 . S
C3081 C280 1.197 . S
C3136 C493 1.234 . S
C3117 C256 1.148 . S
C3153 C270 1.674 . S
C3172 C494 1.706 . S
