# Generated by pormake.
# Topology cml, (3,6)-cn, num edge types: 1
# Building blocks:
#     Node 0, Type 0, BuildingBlock: VETTIZ_charged_linker_0, # of connection points: 3
#     Node 1, Type 0, BuildingBlock: VETTIZ_charged_linker_0, # of connection points: 3
#     Node 2, Type 0, BuildingBlock: VETTIZ_charged_linker_0, # of connection points: 3
#     Node 3, Type 0, BuildingBlock: VETTIZ_charged_linker_0, # of connection points: 3
#     Node 4, Type 0, BuildingBlock: VETTIZ_charged_linker_0, # of connection points: 3
#     Node 5, Type 0, BuildingBlock: VETTIZ_charged_linker_0, # of connection points: 3
#     Node 6, Type 0, BuildingBlock: VETTIZ_charged_linker_0, # of connection points: 3
#     Node 7, Type 0, BuildingBlock: VETTIZ_charged_linker_0, # of connection points: 3
#     Node 8, Type 1, BuildingBlock: IZENUY_clean_sbu_0, # of connection points: 6
#     Node 9, Type 1, BuildingBlock: IZENUY_clean_sbu_0, # of connection points: 6
#     Node 10, Type 1, BuildingBlock: IZENUY_clean_sbu_0, # of connection points: 6
#     Node 11, Type 1, BuildingBlock: IZENUY_clean_sbu_0, # of connection points: 6
#     Edge 12, Type (0, 1), BuildingBlock: EZIPEK_clean_linker_0, # of connection points: 2
#     Edge 13, Type (0, 1), BuildingBlock: EZIPEK_clean_linker_0, # of connection points: 2
#     Edge 14, Type (0, 1), BuildingBlock: EZIPEK_clean_linker_0, # of connection points: 2
#     Edge 15, Type (0, 1), BuildingBlock: EZIPEK_clean_linker_0, # of connection points: 2
#     Edge 16, Type (0, 1), BuildingBlock: EZIPEK_clean_linker_0, # of connection points: 2
#     Edge 17, Type (0, 1), BuildingBlock: EZIPEK_clean_linker_0, # of connection points: 2
#     Edge 18, Type (0, 1), BuildingBlock: EZIPEK_clean_linker_0, # of connection points: 2
#     Edge 19, Type (0, 1), BuildingBlock: EZIPEK_clean_linker_0, # of connection points: 2
#     Edge 20, Type (0, 1), BuildingBlock: EZIPEK_clean_linker_0, # of connection points: 2
#     Edge 21, Type (0, 1), BuildingBlock: EZIPEK_clean_linker_0, # of connection points: 2
#     Edge 22, Type (0, 1), BuildingBlock: EZIPEK_clean_linker_0, # of connection points: 2
#     Edge 23, Type (0, 1), BuildingBlock: EZIPEK_clean_linker_0, # of connection points: 2
#     Edge 24, Type (0, 1), BuildingBlock: EZIPEK_clean_linker_0, # of connection points: 2
#     Edge 25, Type (0, 1), BuildingBlock: EZIPEK_clean_linker_0, # of connection points: 2
#     Edge 26, Type (0, 1), BuildingBlock: EZIPEK_clean_linker_0, # of connection points: 2
#     Edge 27, Type (0, 1), BuildingBlock: EZIPEK_clean_linker_0, # of connection points: 2
#     Edge 28, Type (0, 1), BuildingBlock: EZIPEK_clean_linker_0, # of connection points: 2
#     Edge 29, Type (0, 1), BuildingBlock: EZIPEK_clean_linker_0, # of connection points: 2
#     Edge 30, Type (0, 1), BuildingBlock: EZIPEK_clean_linker_0, # of connection points: 2
#     Edge 31, Type (0, 1), BuildingBlock: EZIPEK_clean_linker_0, # of connection points: 2
#     Edge 32, Type (0, 1), BuildingBlock: EZIPEK_clean_linker_0, # of connection points: 2
#     Edge 33, Type (0, 1), BuildingBlock: EZIPEK_clean_linker_0, # of connection points: 2
#     Edge 34, Type (0, 1), BuildingBlock: EZIPEK_clean_linker_0, # of connection points: 2
#     Edge 35, Type (0, 1), BuildingBlock: EZIPEK_clean_linker_0, # of connection points: 2
# Relax obj value: 0.059
# Max RMSD: 0.074
# Mean RMSD: 0.071
data_MOF--net-cml--node1-IZENUY_clean_sbu_0--node2-VETTIZ_charged_linker_0--edge1-EZIPEK_clean_linker_0
_symmetry_space_group_name_H-M    P1
_symmetry_Int_Tables_number       1
_symmetry_cell_setting            triclinic
loop_
_symmetry_equiv_pos_as_xyz
'x, y, z'
_cell_length_a     33.480708
_cell_length_b     38.928604
_cell_length_c     36.348348
_cell_angle_alpha  89.961199
_cell_angle_beta   89.978365
_cell_angle_gamma 89.907264
loop_
_atom_site_label
_atom_site_type_symbol
_atom_site_fract_x
_atom_site_fract_y
_atom_site_fract_z
_atom_type_partial_charge
C0 C 0.34748 0.34671 0.12159 0.0
C1 C 0.38295 0.36163 0.13512 0.0
C2 C 0.40556 0.38288 0.11159 0.0
C3 C 0.35518 0.37826 0.06434 0.0
C4 C 0.33495 0.35452 0.08556 0.0
C5 C 0.30084 0.33847 0.06448 0.0
H6 H 0.18281 0.33941 0.91208 0.0
C7 C 0.33282 0.38347 0.0299 0.0
C8 C 0.30152 0.3596 0.02911 0.0
H9 H 0.18805 0.26241 0.99742 0.0
H10 H 0.23965 0.29484 0.02903 0.0
H11 H 0.19079 0.40473 0.96477 0.0
H12 H 0.27957 0.34827 0.90371 0.0
H13 H 0.28644 0.39266 0.8962 0.0
H14 H 0.24036 0.37285 0.88249 0.0
H15 H 0.19776 0.4112 0.91632 0.0
H16 H 0.22661 0.4346 0.94999 0.0
C17 C 0.26166 0.34395 0.08615 0.0
C18 C 0.311 0.30008 0.05748 0.0
C19 C 0.36664 0.48612 0.9497 0.0
C20 C 0.3483 0.50081 0.91882 0.0
C21 C 0.31316 0.48607 0.90466 0.0
C22 C 0.29716 0.4562 0.92059 0.0
C23 C 0.31633 0.44128 0.95118 0.0
C24 C 0.35002 0.45672 0.96561 0.0
C25 C 0.36549 0.4385 0.99914 0.0
C26 C 0.33562 0.40933 1.00247 0.0
C27 C 0.30726 0.41077 0.97406 0.0
C28 C 0.36278 0.46392 0.03182 0.0
C29 C 0.40835 0.42525 0.991 0.0
C30 C 0.19535 0.3296 0.93748 0.0
C31 C 0.18179 0.29845 0.95238 0.0
C32 C 0.1985 0.28628 0.9855 0.0
C33 C 0.22839 0.30499 0.00365 0.0
C34 C 0.24215 0.33586 0.98816 0.0
C35 C 0.22584 0.3476 0.9555 0.0
C36 C 0.24531 0.38023 0.94244 0.0
C37 C 0.27709 0.38524 0.97174 0.0
C38 C 0.27455 0.35956 0.99888 0.0
C39 C 0.21364 0.40931 0.94307 0.0
C40 C 0.26382 0.37347 0.90408 0.0
H41 H 0.40974 0.40862 0.06054 0.0
H42 H 0.33012 0.32943 0.13858 0.0
H43 H 0.34319 0.29438 0.06213 0.0
H44 H 0.30541 0.2925 0.02854 0.0
H45 H 0.29369 0.28292 0.07597 0.0
H46 H 0.25821 0.37144 0.09388 0.0
H47 H 0.26159 0.32844 0.11181 0.0
H48 H 0.23499 0.33693 0.06996 0.0
H49 H 0.3936 0.49724 0.96105 0.0
H50 H 0.29874 0.49727 0.88082 0.0
H51 H 0.27072 0.44571 0.90832 0.0
H52 H 0.33288 0.47643 0.03255 0.0
H53 H 0.3856 0.48446 0.02917 0.0
H54 H 0.36664 0.45166 0.05887 0.0
H55 H 0.41399 0.42284 0.96093 0.0
H56 H 0.41349 0.39907 1.00203 0.0
H57 H 0.4313 0.4429 1.00231 0.0
H58 H 0.43349 0.39386 0.12096 0.0
C59 C 0.39169 0.39155 0.07659 0.0
C60 C 0.81251 0.68279 0.43293 0.0
C61 C 0.83068 0.71151 0.44926 0.0
C62 C 0.81948 0.72134 0.48507 0.0
C63 C 0.77109 0.6752 0.4872 0.0
C64 C 0.78296 0.66492 0.45245 0.0
C65 C 0.76054 0.63364 0.43952 0.0
H66 H 0.61737 0.51578 0.47429 0.0
C67 C 0.73788 0.65289 0.49894 0.0
C68 C 0.73123 0.62859 0.47097 0.0
H69 H 0.70001 0.51718 0.38304 0.0
H70 H 0.72566 0.57078 0.40376 0.0
H71 H 0.68054 0.54112 0.53919 0.0
H72 H 0.5925 0.58801 0.46939 0.0
H73 H 0.59708 0.61607 0.50711 0.0
H74 H 0.57952 0.57267 0.51426 0.0
H75 H 0.62821 0.53087 0.5379 0.0
H76 H 0.646 0.56544 0.5654 0.0
C77 C 0.79071 0.6036 0.43651 0.0
C78 C 0.73901 0.64241 0.40305 0.0
C79 C 0.6732 0.66773 0.62519 0.0
C80 C 0.6375 0.65457 0.64011 0.0
C81 C 0.61214 0.63485 0.61752 0.0
C82 C 0.62339 0.62603 0.58179 0.0
C83 C 0.66024 0.63726 0.56815 0.0
C84 C 0.68326 0.6596 0.58863 0.0
C85 C 0.71761 0.67366 0.56638 0.0
C86 C 0.71309 0.65346 0.53067 0.0
C87 C 0.68026 0.63132 0.53269 0.0
C88 C 0.75708 0.66471 0.58629 0.0
C89 C 0.71078 0.71277 0.56072 0.0
C90 C 0.64319 0.52555 0.45992 0.0
C91 C 0.66155 0.50722 0.43081 0.0
C92 C 0.68944 0.52609 0.40928 0.0
C93 C 0.70375 0.5584 0.42078 0.0
C94 C 0.68906 0.57312 0.45337 0.0
C95 C 0.65827 0.55708 0.47158 0.0
C96 C 0.64475 0.57637 0.50512 0.0
C97 C 0.6743 0.60589 0.50531 0.0
C98 C 0.6999 0.60421 0.47471 0.0
C99 C 0.64997 0.55237 0.53883 0.0
C100 C 0.60119 0.58884 0.49892 0.0
H101 H 0.78228 0.7121 0.53123 0.0
H102 H 0.821 0.67464 0.40553 0.0
H103 H 0.72552 0.66851 0.40443 0.0
H104 H 0.71405 0.62482 0.397 0.0
H105 H 0.76021 0.64199 0.37954 0.0
H106 H 0.81309 0.60473 0.45911 0.0
H107 H 0.80722 0.60463 0.41002 0.0
H108 H 0.7766 0.57817 0.43933 0.0
H109 H 0.6927 0.68377 0.64157 0.0
H110 H 0.58407 0.62517 0.62814 0.0
H111 H 0.60335 0.61022 0.56634 0.0
H112 H 0.75726 0.63724 0.59475 0.0
H113 H 0.76077 0.6806 0.61144 0.0
H114 H 0.78359 0.66834 0.56866 0.0
H115 H 0.67904 0.72019 0.56523 0.0
H116 H 0.71733 0.72102 0.53218 0.0
H117 H 0.72916 0.72817 0.58006 0.0
H118 H 0.83351 0.74327 0.49806 0.0
C119 C 0.78971 0.70338 0.50411 0.0
C120 C 0.67054 0.4838 0.93686 0.0
C121 C 0.64288 0.50634 0.95324 0.0
C122 C 0.63193 0.50153 0.99021 0.0
C123 C 0.67312 0.45047 0.99339 0.0
C124 C 0.68546 0.45609 0.95758 0.0
C125 C 0.71432 0.42879 0.94477 0.0
H126 H 0.81826 0.28241 0.98153 0.0
C127 C 0.69157 0.41824 0.00651 0.0
C128 C 0.71618 0.40548 0.97842 0.0
H129 H 0.82126 0.34388 0.88273 0.0
H130 H 0.77192 0.38266 0.90831 0.0
H131 H 0.81573 0.34498 0.03956 0.0
H132 H 0.72071 0.28583 0.99061 0.0
H133 H 0.70922 0.29201 0.0373 0.0
H134 H 0.75342 0.26814 0.02487 0.0
H135 H 0.8075 0.30055 0.0505 0.0
H136 H 0.78101 0.3343 0.07411 0.0
C137 C 0.75494 0.44629 0.9369 0.0
C138 C 0.69577 0.4103 0.91117 0.0
C139 C 0.65024 0.37113 0.13067 0.0
C140 C 0.66051 0.34157 0.15051 0.0
C141 C 0.68915 0.31875 0.13599 0.0
C142 C 0.70684 0.32522 0.10155 0.0
C143 C 0.69578 0.35484 0.08165 0.0
C144 C 0.66811 0.37725 0.09657 0.0
C145 C 0.65995 0.40755 0.0722 0.0
C146 C 0.68674 0.39951 0.0397 0.0
C147 C 0.70764 0.36862 0.04518 0.0
C148 C 0.67335 0.44053 0.09275 0.0
C149 C 0.61508 0.40674 0.06159 0.0
C150 C 0.80793 0.30416 0.96552 0.0
C151 C 0.82334 0.31033 0.93018 0.0
C152 C 0.8095 0.3388 0.90996 0.0
C153 C 0.78108 0.36129 0.92495 0.0
C154 C 0.76625 0.35521 0.96056 0.0
C155 C 0.77933 0.32679 0.98007 0.0
C156 C 0.75966 0.32411 0.01722 0.0
C157 C 0.73356 0.35607 0.01722 0.0
C158 C 0.73758 0.37425 0.98394 0.0
C159 C 0.7925 0.32583 0.04713 0.0
C160 C 0.73456 0.29073 0.01793 0.0
H161 H 0.63663 0.47118 0.03814 0.0
H162 H 0.67918 0.48703 0.90835 0.0
H163 H 0.66303 0.40691 0.91498 0.0
H164 H 0.70762 0.38411 0.90712 0.0
H165 H 0.70039 0.42535 0.88555 0.0
H166 H 0.76064 0.4674 0.95684 0.0
H167 H 0.75554 0.4576 0.90883 0.0
H168 H 0.78059 0.4287 0.9401 0.0
H169 H 0.62851 0.38913 0.14153 0.0
H170 H 0.69757 0.29596 0.15125 0.0
H171 H 0.72837 0.30694 0.09172 0.0
H172 H 0.69737 0.43493 0.11306 0.0
H173 H 0.6481 0.45238 0.10801 0.0
H174 H 0.68661 0.45988 0.07409 0.0
H175 H 0.60509 0.37993 0.05638 0.0
H176 H 0.60835 0.42072 0.03593 0.0
H177 H 0.59624 0.41736 0.08403 0.0
H178 H 0.61053 0.51865 1.00306 0.0
C179 C 0.64693 0.47381 0.01037 0.0
C180 C 0.19292 0.6786 0.43782 0.0
C181 C 0.17623 0.70833 0.45353 0.0
C182 C 0.18831 0.71876 0.4888 0.0
C183 C 0.23353 0.67024 0.49251 0.0
C184 C 0.22138 0.65983 0.4579 0.0
C185 C 0.24212 0.62727 0.44591 0.0
H186 H 0.37678 0.50134 0.48484 0.0
C187 C 0.26329 0.6453 0.50617 0.0
C188 C 0.2682 0.61972 0.47921 0.0
H189 H 0.31216 0.51591 0.38342 0.0
H190 H 0.27667 0.56454 0.40998 0.0
H191 H 0.40022 0.57418 0.49196 0.0
H192 H 0.30305 0.52034 0.54279 0.0
H193 H 0.3246 0.54647 0.57685 0.0
H194 H 0.35451 0.51386 0.55478 0.0
H195 H 0.40733 0.54864 0.53248 0.0
H196 H 0.39449 0.59364 0.53503 0.0
C197 C 0.26731 0.63543 0.41128 0.0
C198 C 0.21011 0.59922 0.43998 0.0
C199 C 0.33292 0.66631 0.62862 0.0
C200 C 0.36322 0.64825 0.64707 0.0
C201 C 0.37711 0.61689 0.63284 0.0
C202 C 0.36165 0.60383 0.60002 0.0
C203 C 0.33222 0.62252 0.58103 0.0
C204 C 0.31805 0.65304 0.59548 0.0
C205 C 0.28709 0.66941 0.57106 0.0
C206 C 0.28572 0.64399 0.53931 0.0
C207 C 0.31216 0.61666 0.54545 0.0
C208 C 0.3031 0.70495 0.55878 0.0
C209 C 0.24704 0.67072 0.59246 0.0
C210 C 0.35412 0.51448 0.46881 0.0
C211 C 0.34666 0.50476 0.43238 0.0
C212 C 0.31787 0.5229 0.41177 0.0
C213 C 0.29774 0.55125 0.42712 0.0
C214 C 0.30708 0.56179 0.46318 0.0
C215 C 0.33468 0.54318 0.48335 0.0
C216 C 0.34379 0.55932 0.51981 0.0
C217 C 0.31675 0.59051 0.51867 0.0
C218 C 0.29505 0.59194 0.48561 0.0
C219 C 0.38874 0.56934 0.52024 0.0
C220 C 0.33119 0.53376 0.55037 0.0
H221 H 0.22485 0.70918 0.53514 0.0
H222 H 0.18378 0.67014 0.41072 0.0
H223 H 0.18733 0.60013 0.46225 0.0
H224 H 0.22251 0.57296 0.44082 0.0
H225 H 0.19442 0.60296 0.41335 0.0
H226 H 0.28059 0.66156 0.41316 0.0
H227 H 0.24867 0.63458 0.38602 0.0
H228 H 0.29303 0.61796 0.40789 0.0
H229 H 0.32182 0.69047 0.63933 0.0
H230 H 0.40031 0.6027 0.64706 0.0
H231 H 0.37369 0.5799 0.59051 0.0
H232 H 0.33561 0.70352 0.55258 0.0
H233 H 0.29886 0.72444 0.58076 0.0
H234 H 0.28918 0.71448 0.53323 0.0
H235 H 0.24477 0.64916 0.61247 0.0
H236 H 0.22076 0.6676 0.57436 0.0
H237 H 0.24406 0.69505 0.60817 0.0
H238 H 0.17551 0.74158 0.50117 0.0
C239 C 0.21686 0.69989 0.50839 0.0
C240 C 0.83529 0.84684 0.12456 0.0
C241 C 0.8645 0.86591 0.14323 0.0
C242 C 0.8775 0.8974 0.12855 0.0
C243 C 0.83413 0.88978 0.07595 0.0
C244 C 0.82046 0.85933 0.09099 0.0
C245 C 0.79022 0.84206 0.06661 0.0
H246 H 0.68503 0.83964 0.90717 0.0
C247 C 0.81435 0.89473 0.04002 0.0
C248 C 0.78829 0.86705 0.03446 0.0
H249 H 0.68153 0.76653 0.99639 0.0
H250 H 0.73061 0.79951 0.02998 0.0
H251 H 0.68407 0.90576 0.95656 0.0
H252 H 0.78432 0.85182 0.90926 0.0
H253 H 0.78954 0.89616 0.9008 0.0
H254 H 0.74729 0.87368 0.88218 0.0
H255 H 0.69648 0.90971 0.9087 0.0
H256 H 0.71931 0.93671 0.94316 0.0
C257 C 0.75011 0.84029 0.08781 0.0
C258 C 0.80731 0.80666 0.05498 0.0
C259 C 0.85628 0.9942 0.95855 0.0
C260 C 0.84362 0.0057 0.92391 0.0
C261 C 0.81125 0.98934 0.90652 0.0
C262 C 0.793 0.9606 0.92277 0.0
C263 C 0.80704 0.94847 0.95692 0.0
C264 C 0.83743 0.96588 0.97463 0.0
C265 C 0.84725 0.95057 0.01148 0.0
C266 C 0.81865 0.9204 0.01255 0.0
C267 C 0.79557 0.91892 0.98032 0.0
C268 C 0.83752 0.97761 0.04155 0.0
C269 C 0.89145 0.93869 0.01065 0.0
C270 C 0.69539 0.83077 0.93377 0.0
C271 C 0.68004 0.80052 0.9493 0.0
C272 C 0.69343 0.78972 0.98409 0.0
C273 C 0.72173 0.80897 0.0035 0.0
C274 C 0.73672 0.83941 0.98793 0.0
C275 C 0.72363 0.84984 0.95359 0.0
C276 C 0.74248 0.88317 0.94177 0.0
C277 C 0.76898 0.89097 0.97465 0.0
C278 C 0.76551 0.86516 1.00154 0.0
C279 C 0.70905 0.91037 0.93697 0.0
C280 C 0.76712 0.87617 0.90652 0.0
H281 H 0.87403 0.93337 0.08507 0.0
H282 H 0.8252 0.82239 0.13531 0.0
H283 H 0.84014 0.80821 0.05045 0.0
H284 H 0.79512 0.79735 0.02861 0.0
H285 H 0.80191 0.78698 0.07654 0.0
H286 H 0.74607 0.86328 0.10561 0.0
H287 H 0.74891 0.81725 0.10582 0.0
H288 H 0.72384 0.84038 0.06944 0.0
H289 H 0.88075 0.0068 0.97259 0.0
H290 H 0.801 0.9982 0.87989 0.0
H291 H 0.76903 0.94868 0.90795 0.0
H292 H 0.81393 0.99583 0.03229 0.0
H293 H 0.8643 0.99302 0.04871 0.0
H294 H 0.82521 0.96589 0.06687 0.0
H295 H 0.89867 0.92633 0.98386 0.0
H296 H 0.89851 0.91916 0.03167 0.0
H297 H 0.912 0.96081 0.01424 0.0
H298 H 0.90022 0.91218 0.14264 0.0
C299 C 0.8624 0.9095 0.09509 0.0
C300 C 0.31902 0.17564 0.4346 0.0
C301 C 0.33777 0.20421 0.4505 0.0
C302 C 0.32871 0.21309 0.48718 0.0
C303 C 0.28072 0.16655 0.49066 0.0
C304 C 0.29095 0.1571 0.45517 0.0
C305 C 0.26853 0.12588 0.44242 0.0
H306 H 0.11832 0.0125 0.46835 0.0
C307 C 0.24822 0.1436 0.50326 0.0
C308 C 0.24101 0.11976 0.47496 0.0
H309 H 0.20586 0.01308 0.38123 0.0
H310 H 0.23834 0.06252 0.40865 0.0
H311 H 0.18503 0.02741 0.53547 0.0
H312 H 0.10226 0.08835 0.47297 0.0
H313 H 0.10745 0.10997 0.51508 0.0
H314 H 0.08703 0.06701 0.51435 0.0
H315 H 0.13164 0.023 0.53685 0.0
H316 H 0.15688 0.05328 0.56578 0.0
C317 C 0.29887 0.09609 0.43715 0.0
C318 C 0.24495 0.13542 0.40722 0.0
C319 C 0.18236 0.15895 0.6294 0.0
C320 C 0.14692 0.14529 0.64451 0.0
C321 C 0.12303 0.12367 0.62256 0.0
C322 C 0.1351 0.11402 0.58729 0.0
C323 C 0.17115 0.12661 0.57312 0.0
C324 C 0.19322 0.15001 0.59318 0.0
C325 C 0.22733 0.16441 0.57073 0.0
C326 C 0.22376 0.14355 0.53536 0.0
C327 C 0.19126 0.12092 0.53756 0.0
C328 C 0.26694 0.1569 0.59102 0.0
C329 C 0.2191 0.20314 0.56427 0.0
C330 C 0.14467 0.02329 0.45548 0.0
C331 C 0.15965 0.00938 0.42269 0.0
C332 C 0.19405 0.02366 0.40657 0.0
C333 C 0.21272 0.05227 0.4225 0.0
C334 C 0.19704 0.06637 0.45511 0.0
C335 C 0.16404 0.05143 0.4714 0.0
C336 C 0.15262 0.06875 0.50682 0.0
C337 C 0.18448 0.09642 0.50932 0.0
C338 C 0.20988 0.0953 0.47865 0.0
C339 C 0.15647 0.04187 0.53806 0.0
C340 C 0.1101 0.0842 0.50239 0.0
H341 H 0.2944 0.20245 0.53507 0.0
H342 H 0.32589 0.16814 0.4066 0.0
H343 H 0.22921 0.16037 0.41092 0.0
H344 H 0.22164 0.11653 0.40023 0.0
H345 H 0.26531 0.13795 0.38324 0.0
H346 H 0.32663 0.10024 0.45337 0.0
H347 H 0.30777 0.09341 0.40785 0.0
H348 H 0.2871 0.07121 0.44717 0.0
H349 H 0.20093 0.17617 0.64531 0.0
H350 H 0.0953 0.11338 0.63326 0.0
H351 H 0.11594 0.09688 0.57252 0.0
H352 H 0.26754 0.12989 0.60102 0.0
H353 H 0.27049 0.17403 0.61522 0.0
H354 H 0.29334 0.15979 0.5731 0.0
H355 H 0.18647 0.20849 0.56291 0.0
H356 H 0.23088 0.21245 0.53771 0.0
H357 H 0.23165 0.21897 0.58688 0.0
H358 H 0.34319 0.23492 0.49992 0.0
C359 C 0.30027 0.19441 0.50735 0.0
C360 C 0.1713 0.98637 0.94295 0.0
C361 C 0.14427 0.00893 0.96017 0.0
C362 C 0.1347 1.00411 0.99747 0.0
C363 C 0.17603 0.9531 0.99941 0.0
C364 C 0.18706 0.9587 0.96323 0.0
C365 C 0.21569 0.93154 0.94963 0.0
H366 H 0.31988 0.78464 0.9841 0.0
C367 C 0.19508 0.92098 0.01203 0.0
C368 C 0.21884 0.90829 0.98324 0.0
H369 H 0.32164 0.84599 0.88524 0.0
H370 H 0.27318 0.88529 0.9117 0.0
H371 H 0.32042 0.8468 0.04137 0.0
H372 H 0.22439 0.78782 0.99466 0.0
H373 H 0.21178 0.79546 0.04077 0.0
H374 H 0.25611 0.77097 0.03012 0.0
H375 H 0.31129 0.80276 0.05339 0.0
H376 H 0.28649 0.8375 0.07695 0.0
C377 C 0.25591 0.94919 0.94058 0.0
C378 C 0.19623 0.91291 0.9166 0.0
C379 C 0.15643 0.87179 0.13627 0.0
C380 C 0.16674 0.84143 0.15469 0.0
C381 C 0.19559 0.81934 0.1394 0.0
C382 C 0.21317 0.82704 0.10532 0.0
C383 C 0.20166 0.8571 0.08649 0.0
C384 C 0.17412 0.87908 0.10232 0.0
C385 C 0.16519 0.90967 0.07849 0.0
C386 C 0.1913 0.90216 0.04531 0.0
C387 C 0.21247 0.87135 0.05006 0.0
C388 C 0.17881 0.94247 0.09922 0.0
C389 C 0.1201 0.9088 0.06876 0.0
C390 C 0.30947 0.80646 0.96824 0.0
C391 C 0.32417 0.81244 0.9327 0.0
C392 C 0.31032 0.84105 0.91266 0.0
C393 C 0.28247 0.86383 0.92815 0.0
C394 C 0.26834 0.85787 0.96404 0.0
C395 C 0.28161 0.82935 0.98328 0.0
C396 C 0.26308 0.82674 0.02081 0.0
C397 C 0.23738 0.85884 0.02143 0.0
C398 C 0.24045 0.87706 0.98812 0.0
C399 C 0.29688 0.82827 0.04987 0.0
C400 C 0.23767 0.79348 0.02205 0.0
H401 H 0.14132 0.97382 0.0453 0.0
H402 H 0.17896 0.98963 0.91421 0.0
H403 H 0.16384 0.90865 0.9217 0.0
H404 H 0.20884 0.88712 0.9117 0.0
H405 H 0.19911 0.92834 0.89102 0.0
H406 H 0.26225 0.97022 0.96044 0.0
H407 H 0.25542 0.96062 0.91257 0.0
H408 H 0.28171 0.93164 0.94287 0.0
H409 H 0.13434 0.88912 0.14775 0.0
H410 H 0.20384 0.79588 0.15354 0.0
H411 H 0.23464 0.80908 0.09475 0.0
H412 H 0.20324 0.93675 0.11906 0.0
H413 H 0.1538 0.95407 0.11502 0.0
H414 H 0.19161 0.96205 0.08054 0.0
H415 H 0.11031 0.88206 0.06284 0.0
H416 H 0.11258 0.92352 0.04378 0.0
H417 H 0.1017 0.91858 0.09194 0.0
H418 H 0.11385 0.02127 0.01101 0.0
C419 C 0.15049 0.97643 0.01719 0.0
C420 C 0.69415 0.17771 0.43771 0.0
C421 C 0.67633 0.20637 0.45454 0.0
C422 C 0.68806 0.2159 0.49024 0.0
C423 C 0.73533 0.16867 0.49196 0.0
C424 C 0.72337 0.15912 0.457 0.0
C425 C 0.74522 0.12768 0.44356 0.0
H426 H 0.8821 1.00241 0.47619 0.0
C427 C 0.76625 0.14412 0.50444 0.0
C428 C 0.77184 0.11973 0.47635 0.0
H429 H 0.81694 0.02067 0.37568 0.0
H430 H 0.78165 0.06823 0.4044 0.0
H431 H 0.90535 0.07538 0.4864 0.0
H432 H 0.80871 0.01945 0.53552 0.0
H433 H 0.8313 0.04393 0.57047 0.0
H434 H 0.8604 0.01222 0.54614 0.0
H435 H 0.91281 0.04887 0.52614 0.0
H436 H 0.89928 0.09364 0.53005 0.0
C437 C 0.76981 0.13777 0.40911 0.0
C438 C 0.7142 0.09896 0.43675 0.0
C439 C 0.83713 0.16244 0.62702 0.0
C440 C 0.86808 0.14431 0.64456 0.0
C441 C 0.88246 0.11368 0.62897 0.0
C442 C 0.86689 0.10144 0.59579 0.0
C443 C 0.83681 0.12022 0.57777 0.0
C444 C 0.82207 0.14998 0.59353 0.0
C445 C 0.7902 0.16644 0.57011 0.0
C446 C 0.78913 0.14213 0.53734 0.0
C447 C 0.81647 0.11517 0.54212 0.0
C448 C 0.80476 0.20275 0.55907 0.0
C449 C 0.75045 0.16606 0.59199 0.0
C450 C 0.8595 0.01622 0.46074 0.0
C451 C 0.85169 0.00769 0.42397 0.0
C452 C 0.82295 0.02669 0.40424 0.0
C453 C 0.80285 0.05439 0.42089 0.0
C454 C 0.81216 0.06347 0.4574 0.0
C455 C 0.84008 0.04435 0.4766 0.0
C456 C 0.84914 0.0592 0.51376 0.0
C457 C 0.82158 0.09012 0.51416 0.0
C458 C 0.79965 0.09244 0.4813 0.0
C459 C 0.89392 0.06969 0.5145 0.0
C460 C 0.83711 0.03239 0.54324 0.0
H461 H 0.72527 0.20581 0.53613 0.0
H462 H 0.6854 0.16997 0.41026 0.0
H463 H 0.69162 0.09846 0.45921 0.0
H464 H 0.72753 0.07304 0.43642 0.0
H465 H 0.69809 0.1032 0.41041 0.0
H466 H 0.78091 0.16462 0.4113 0.0
H467 H 0.75143 0.13604 0.38374 0.0
H468 H 0.79699 0.12199 0.40567 0.0
H469 H 0.82562 0.18604 0.63875 0.0
H470 H 0.90615 0.09941 0.6424 0.0
H471 H 0.87932 0.07805 0.58524 0.0
H472 H 0.83699 0.20217 0.55157 0.0
H473 H 0.80109 0.22115 0.58218 0.0
H474 H 0.78935 0.21313 0.53466 0.0
H475 H 0.74907 0.14368 0.61101 0.0
H476 H 0.72402 0.16315 0.57405 0.0
H477 H 0.74704 0.18968 0.60884 0.0
H478 H 0.67446 0.23795 0.50346 0.0
C479 C 0.71748 0.19722 0.50905 0.0
Fe480 Fe 0.0065 0.80083 0.32192 0.0
Fe481 Fe 0.00598 0.84896 0.38919 0.0
O482 O 0.00746 0.84304 0.34077 0.0
Fe483 Fe 0.01036 0.87912 0.31101 0.0
O484 O 0.9644 0.86735 0.28801 0.0
O485 O 0.97979 0.81305 0.27944 0.0
O486 O 0.95825 0.79194 0.34249 0.0
C487 C 0.95126 0.79394 0.37653 0.0
C488 C 0.06307 0.83061 0.27841 0.0
O489 O 0.97334 0.81156 0.39771 0.0
C490 C 0.06105 0.90027 0.3651 0.0
O491 O 0.03315 0.78055 0.36041 0.0
O492 O 0.05106 0.82372 0.39557 0.0
O493 O 0.04144 0.8573 0.27644 0.0
O494 O 0.05489 0.80668 0.30044 0.0
C495 C 0.95724 0.90191 0.36737 0.0
O496 O 0.03828 0.88723 0.38924 0.0
O497 O 0.05645 0.89374 0.33151 0.0
C498 C 0.05594 0.79341 0.38439 0.0
O499 O 0.96095 0.87513 0.38665 0.0
O500 O 0.9802 0.90765 0.34041 0.0
C501 C 0.95903 0.83928 0.27157 0.0
Fe502 Fe 0.99794 0.16741 0.89337 0.0
Fe503 Fe 0.0073 0.12826 0.8205 0.0
O504 O 0.00446 0.16757 0.8449 0.0
Fe505 Fe 0.00872 0.20698 0.82021 0.0
O506 O 0.05281 0.21943 0.84621 0.0
O507 O 0.03027 0.20467 0.90112 0.0
O508 O 0.04221 0.14113 0.90113 0.0
C509 C 0.04904 0.11249 0.88635 0.0
C510 C 0.95102 0.22306 0.87496 0.0
O511 O 0.03098 0.10356 0.85749 0.0
C512 C 0.96072 0.17065 0.77385 0.0
O513 O 0.9649 0.12947 0.89366 0.0
O514 O 0.95786 0.1154 0.83529 0.0
O515 O 0.97606 0.23177 0.85073 0.0
O516 O 0.95326 0.19401 0.89035 0.0
C517 C 0.06383 0.16303 0.78272 0.0
O518 O 0.98344 0.14501 0.77855 0.0
O519 O 0.96458 0.19743 0.79299 0.0
C520 C 0.94717 0.11283 0.86843 0.0
O521 O 0.05728 0.13858 0.8045 0.0
O522 O 0.04192 0.18959 0.78404 0.0
C523 C 0.05538 0.22023 0.88099 0.0
Fe524 Fe 0.50847 0.30521 0.32308 0.0
Fe525 Fe 0.50413 0.34621 0.39564 0.0
O526 O 0.50832 0.3451 0.34704 0.0
Fe527 Fe 0.51216 0.38412 0.32195 0.0
O528 O 0.46602 0.37464 0.29775 0.0
O529 O 0.48228 0.32211 0.28207 0.0
O530 O 0.45991 0.29294 0.34168 0.0
C531 C 0.45142 0.29188 0.37555 0.0
C532 C 0.56386 0.33932 0.28208 0.0
O533 O 0.47129 0.30869 0.39899 0.0
C534 C 0.56166 0.39823 0.38041 0.0
O535 O 0.53493 0.28124 0.35927 0.0
O536 O 0.54854 0.32009 0.40141 0.0
O537 O 0.5426 0.36612 0.28437 0.0
O538 O 0.5572 0.31403 0.30286 0.0
C539 C 0.45751 0.40205 0.37794 0.0
O540 O 0.53688 0.38323 0.40106 0.0
O541 O 0.55816 0.39633 0.34569 0.0
C542 C 0.55512 0.29145 0.38653 0.0
O543 O 0.45931 0.37321 0.3939 0.0
O544 O 0.48246 0.41 0.35348 0.0
C545 C 0.46162 0.34905 0.27692 0.0
Fe546 Fe 0.49709 0.66639 0.89305 0.0
Fe547 Fe 0.50476 0.63023 0.81837 0.0
O548 O 0.5024 0.66851 0.84454 0.0
Fe549 Fe 0.50581 0.70879 0.82143 0.0
O550 O 0.55031 0.72057 0.84691 0.0
O551 O 0.52983 0.7032 0.90164 0.0
O552 O 0.54145 0.6398 0.89873 0.0
C553 C 0.54778 0.61171 0.88264 0.0
C554 C 0.44981 0.72275 0.87809 0.0
O555 O 0.529 0.60399 0.85378 0.0
C556 C 0.45699 0.67405 0.7747 0.0
O557 O 0.46395 0.62844 0.89217 0.0
O558 O 0.45556 0.61704 0.83328 0.0
O559 O 0.47398 0.73229 0.85352 0.0
O560 O 0.45243 0.69321 0.89232 0.0
C561 C 0.56031 0.66648 0.78133 0.0
O562 O 0.48025 0.64858 0.77758 0.0
O563 O 0.46104 0.70006 0.79492 0.0
C564 C 0.44568 0.61287 0.86643 0.0
O565 O 0.55442 0.64124 0.8022 0.0
O566 O 0.53819 0.69281 0.78399 0.0
C567 C 0.55388 0.72003 0.8816 0.0
C568 C 0.15835 0.2582 0.90263 0.0
C569 C 0.14944 0.27883 0.93375 0.0
C570 C 0.07856 0.26343 0.92872 0.0
C571 C 0.08775 0.24066 0.89907 0.0
N572 N 0.13815 0.21132 0.86309 0.0
N573 N 0.10241 0.2984 0.97934 0.0
C574 C 0.12811 0.23685 0.88726 0.0
C575 C 0.10995 0.28056 0.94765 0.0
N576 N 0.19582 0.25898 0.88768 0.0
N577 N 0.03971 0.27009 0.93794 0.0
H578 H 0.12376 0.3134 0.99263 0.0
H579 H 0.07572 0.29662 0.99393 0.0
H580 H 0.01542 0.2577 0.92627 0.0
H581 H 0.03106 0.28996 0.95537 0.0
H582 H 0.20285 0.24813 0.86231 0.0
H583 H 0.21944 0.27259 0.89934 0.0
H584 H 0.16749 0.20471 0.85675 0.0
H585 H 0.11755 0.19425 0.85194 0.0
C586 C 0.89907 0.71773 0.42118 0.0
C587 C 0.8609 0.73193 0.42875 0.0
C588 C 0.88224 0.7871 0.40279 0.0
C589 C 0.9194 0.77221 0.39283 0.0
N590 N 0.95996 0.7213 0.38551 0.0
N591 N 0.81311 0.77759 0.4197 0.0
C592 C 0.92678 0.73684 0.39976 0.0
C593 C 0.85158 0.76593 0.4175 0.0
N594 N 0.90955 0.68663 0.43582 0.0
N595 N 0.8764 0.8216 0.39869 0.0
H596 H 0.7897 0.76262 0.42974 0.0
H597 H 0.80366 0.80082 0.40844 0.0
H598 H 0.89775 0.83757 0.38693 0.0
H599 H 0.8518 0.83469 0.40927 0.0
H600 H 0.93848 0.67679 0.43477 0.0
H601 H 0.89026 0.67195 0.45195 0.0
H602 H 0.96477 0.69488 0.38646 0.0
H603 H 0.98105 0.73434 0.36979 0.0
C604 C 0.89552 0.30061 0.91503 0.0
C605 C 0.85571 0.28828 0.91486 0.0
C606 C 0.87777 0.2355 0.88374 0.0
C607 C 0.91798 0.24717 0.88536 0.0
N608 N 0.9624 0.29616 0.89082 0.0
N609 N 0.80836 0.2435 0.90158 0.0
C610 C 0.92616 0.28127 0.8975 0.0
C611 C 0.84664 0.25559 0.8998 0.0
N612 N 0.90451 0.3301 0.93375 0.0
N613 N 0.8691 0.20661 0.86393 0.0
H614 H 0.78454 0.25819 0.91138 0.0
H615 H 0.80033 0.21835 0.89545 0.0
H616 H 0.89085 0.19281 0.84969 0.0
H617 H 0.84032 0.19799 0.85849 0.0
H618 H 0.9336 0.338 0.93927 0.0
H619 H 0.88305 0.34517 0.9469 0.0
H620 H 0.96807 0.32215 0.89505 0.0
H621 H 0.98594 0.28401 0.87755 0.0
C622 C 0.15732 0.7561 0.41034 0.0
C623 C 0.1455 0.7287 0.43369 0.0
C624 C 0.07525 0.74539 0.42684 0.0
C625 C 0.08681 0.77146 0.40172 0.0
N626 N 0.1377 0.79876 0.36504 0.0
N627 N 0.09358 0.69347 0.45978 0.0
C628 C 0.12758 0.77605 0.3922 0.0
C629 C 0.1045 0.72217 0.44054 0.0
N630 N 0.19698 0.76354 0.40626 0.0
N631 N 0.03658 0.74379 0.43884 0.0
H632 H 0.11427 0.67624 0.47081 0.0
H633 H 0.06417 0.68518 0.46231 0.0
H634 H 0.01451 0.76073 0.42986 0.0
H635 H 0.02697 0.72772 0.45994 0.0
H636 H 0.20749 0.78556 0.39322 0.0
H637 H 0.21962 0.74871 0.41801 0.0
H638 H 0.16625 0.80066 0.35389 0.0
H639 H 0.11679 0.8142 0.35165 0.0
C640 C 0.60785 0.78685 0.94066 0.0
C641 C 0.64802 0.78095 0.93045 0.0
C642 C 0.62676 0.73603 0.88729 0.0
C643 C 0.58647 0.74028 0.8994 0.0
N644 N 0.54066 0.76523 0.94414 0.0
N645 N 0.69718 0.74791 0.89761 0.0
C646 C 0.57756 0.76427 0.92801 0.0
C647 C 0.65788 0.75509 0.90457 0.0
N648 N 0.59839 0.81479 0.9618 0.0
N649 N 0.6355 0.7133 0.85974 0.0
H650 H 0.7206 0.76203 0.90895 0.0
H651 H 0.7069 0.72677 0.88255 0.0
H652 H 0.6151 0.69559 0.84943 0.0
H653 H 0.6628 0.71261 0.84605 0.0
H654 H 0.5692 0.82312 0.96622 0.0
H655 H 0.61976 0.83168 0.97218 0.0
H656 H 0.53468 0.77884 0.96818 0.0
H657 H 0.51641 0.75058 0.93591 0.0
C658 C 0.35474 0.26004 0.41947 0.0
C659 C 0.36559 0.22578 0.42829 0.0
C660 C 0.42793 0.2328 0.39338 0.0
C661 C 0.41973 0.26842 0.38947 0.0
N662 N 0.37721 0.31687 0.40264 0.0
N663 N 0.41506 0.18064 0.42789 0.0
C664 C 0.3836 0.28227 0.40358 0.0
C665 C 0.40277 0.2123 0.41612 0.0
N666 N 0.31646 0.27109 0.42524 0.0
N667 N 0.45981 0.21852 0.37553 0.0
H668 H 0.39789 0.16512 0.4451 0.0
H669 H 0.44369 0.17105 0.42335 0.0
H670 H 0.47919 0.23274 0.3591 0.0
H671 H 0.465 0.19216 0.37441 0.0
H672 H 0.30578 0.29469 0.41591 0.0
H673 H 0.29418 0.25535 0.4361 0.0
H674 H 0.35379 0.32899 0.41637 0.0
H675 H 0.39718 0.33365 0.39022 0.0
C676 C 0.39624 0.80104 0.91888 0.0
C677 C 0.35599 0.78996 0.91733 0.0
C678 C 0.3769 0.73618 0.88756 0.0
C679 C 0.41747 0.74678 0.89005 0.0
N680 N 0.46441 0.79355 0.89883 0.0
N681 N 0.30735 0.74635 0.90358 0.0
C682 C 0.4268 0.78044 0.90296 0.0
C683 C 0.34613 0.75735 0.90252 0.0
N684 N 0.4056 0.83051 0.9375 0.0
N685 N 0.36762 0.70719 0.86813 0.0
H686 H 0.28382 0.76185 0.91247 0.0
H687 H 0.29854 0.72133 0.89774 0.0
H688 H 0.38913 0.69225 0.85496 0.0
H689 H 0.33867 0.69945 0.86197 0.0
H690 H 0.43465 0.83758 0.94427 0.0
H691 H 0.38419 0.84666 0.9492 0.0
H692 H 0.47142 0.81929 0.9031 0.0
H693 H 0.48839 0.77995 0.88807 0.0
C694 C 0.60446 0.21806 0.43918 0.0
C695 C 0.64535 0.22678 0.43498 0.0
C696 C 0.62696 0.27543 0.39542 0.0
C697 C 0.58604 0.26862 0.40249 0.0
N698 N 0.53533 0.23636 0.43439 0.0
N699 N 0.69616 0.26501 0.41204 0.0
C700 C 0.5746 0.24057 0.4251 0.0
C701 C 0.6568 0.2558 0.41381 0.0
N702 N 0.59427 0.18803 0.45631 0.0
N703 N 0.63719 0.3001 0.37032 0.0
H704 H 0.71899 0.25049 0.42391 0.0
H705 H 0.70612 0.28806 0.40081 0.0
H706 H 0.61611 0.31514 0.35663 0.0
H707 H 0.66618 0.30401 0.3609 0.0
H708 H 0.56537 0.17824 0.45677 0.0
H709 H 0.61531 0.17138 0.46777 0.0
H710 H 0.52533 0.21869 0.45381 0.0
H711 H 0.51274 0.25245 0.42473 0.0
C712 C 0.36285 0.56411 0.91604 0.0
C713 C 0.36751 0.5308 0.90086 0.0
C714 C 0.42195 0.55126 0.86167 0.0
C715 C 0.41668 0.58516 0.87592 0.0
N716 N 0.37625 0.62507 0.91047 0.0
N717 N 0.39446 0.49425 0.8535 0.0
C718 C 0.38531 0.59194 0.90128 0.0
C719 C 0.39452 0.52505 0.87157 0.0
N720 N 0.33766 0.56893 0.94519 0.0
N721 N 0.4549 0.54302 0.84119 0.0
H722 H 0.37609 0.4738 0.86094 0.0
H723 H 0.41 0.49003 0.82907 0.0
H724 H 0.47712 0.56034 0.83402 0.0
H725 H 0.46264 0.5179 0.8344 0.0
H726 H 0.33662 0.59149 0.96054 0.0
H727 H 0.31921 0.54955 0.95537 0.0
H728 H 0.35123 0.63202 0.9258 0.0
H729 H 0.39178 0.64604 0.89994 0.0
C730 C 0.65763 0.45122 0.39065 0.0
C731 C 0.64798 0.47044 0.42272 0.0
C732 C 0.58987 0.43464 0.43362 0.0
C733 C 0.59384 0.41993 0.39764 0.0
N734 N 0.64353 0.39992 0.3547 0.0
N735 N 0.62964 0.45466 0.48442 0.0
C736 C 0.63128 0.42417 0.37934 0.0
C737 C 0.6219 0.45405 0.44759 0.0
N738 N 0.69394 0.45519 0.3744 0.0
N739 N 0.55621 0.43187 0.4547 0.0
H740 H 0.65543 0.46621 0.49481 0.0
H741 H 0.61294 0.44057 0.50339 0.0
H742 H 0.52996 0.41964 0.44731 0.0
H743 H 0.55327 0.44519 0.47948 0.0
H744 H 0.70066 0.44639 0.34807 0.0
H745 H 0.71807 0.46523 0.38901 0.0
H746 H 0.67111 0.40009 0.34152 0.0
H747 H 0.62765 0.37722 0.35062 0.0
C748 C 0.6379 0.56537 0.92459 0.0
C749 C 0.62106 0.53253 0.9313 0.0
C750 C 0.55603 0.55297 0.91004 0.0
C751 C 0.57323 0.58508 0.90039 0.0
N752 N 0.63197 0.62019 0.89305 0.0
N753 N 0.56692 0.49265 0.92246 0.0
C754 C 0.61466 0.59087 0.90615 0.0
C755 C 0.58104 0.52558 0.9213 0.0
N756 N 0.67562 0.57244 0.93672 0.0
N757 N 0.51549 0.54925 0.91087 0.0
H758 H 0.58444 0.4718 0.93062 0.0
H759 H 0.53921 0.48559 0.91186 0.0
H760 H 0.49606 0.56945 0.90549 0.0
H761 H 0.50119 0.52748 0.92107 0.0
H762 H 0.68799 0.59696 0.93642 0.0
H763 H 0.69374 0.55401 0.94927 0.0
H764 H 0.66267 0.6244 0.89304 0.0
H765 H 0.61582 0.6393 0.8795 0.0
C766 C 0.41447 0.48781 0.4102 0.0
C767 C 0.37366 0.47919 0.41483 0.0
C768 C 0.38681 0.42259 0.38799 0.0
C769 C 0.4285 0.42884 0.39003 0.0
N770 N 0.48241 0.46771 0.40559 0.0
N771 N 0.32111 0.43703 0.41136 0.0
C772 C 0.44246 0.46162 0.40166 0.0
C773 C 0.35977 0.44618 0.4046 0.0
N774 N 0.42634 0.52134 0.41283 0.0
N775 N 0.3729 0.39554 0.36791 0.0
H776 H 0.30039 0.45377 0.42316 0.0
H777 H 0.31064 0.41204 0.40787 0.0
H778 H 0.39186 0.37981 0.35254 0.0
H779 H 0.34265 0.39134 0.36295 0.0
H780 H 0.45491 0.52969 0.40587 0.0
H781 H 0.40656 0.54145 0.4182 0.0
H782 H 0.49378 0.48941 0.41864 0.0
H783 H 0.50438 0.45011 0.39839 0.0
C784 C 0.86045 0.06837 0.91725 0.0
C785 C 0.8659 0.03393 0.90555 0.0
C786 C 0.92349 0.0511 0.8682 0.0
C787 C 0.91745 0.08599 0.87891 0.0
N788 N 0.87566 0.12861 0.90789 0.0
N789 N 0.89722 0.99326 0.86464 0.0
C790 C 0.88455 0.09482 0.9018 0.0
C791 C 0.89547 0.02566 0.8791 0.0
N792 N 0.83273 0.07564 0.94379 0.0
N793 N 0.95758 0.04149 0.85012 0.0
H794 H 0.87904 0.97316 0.87345 0.0
H795 H 0.9145 0.98691 0.8418 0.0
H796 H 0.97973 0.05848 0.84191 0.0
H797 H 0.96606 0.01601 0.84626 0.0
H798 H 0.83068 0.09927 0.95704 0.0
H799 H 0.81294 0.05732 0.95407 0.0
H800 H 0.84974 0.13701 0.92091 0.0
H801 H 0.89268 0.14857 0.89712 0.0
C802 C 0.11113 0.98787 0.37567 0.0
C803 C 0.13809 0.98062 0.40472 0.0
C804 C 0.1204 0.91951 0.40183 0.0
C805 C 0.0898 0.92744 0.37617 0.0
N806 N 0.05366 0.96989 0.34047 0.0
N807 N 0.16788 0.94037 0.44702 0.0
C808 C 0.0849 0.96171 0.3631 0.0
C809 C 0.14269 0.94661 0.41816 0.0
N810 N 0.11046 0.01989 0.36013 0.0
N811 N 0.12906 0.88593 0.40949 0.0
H812 H 0.18629 0.95921 0.45833 0.0
H813 H 0.169 0.91711 0.46111 0.0
H814 H 0.11391 0.86554 0.39727 0.0
H815 H 0.15347 0.8781 0.42513 0.0
H816 H 0.09542 0.02561 0.33581 0.0
H817 H 0.12734 0.04041 0.36991 0.0
H818 H 0.04514 0.99499 0.3344 0.0
H819 H 0.03392 0.95193 0.32978 0.0
C820 C 0.13946 0.06715 0.92904 0.0
C821 C 0.12192 0.03534 0.93891 0.0
C822 C 0.05651 0.05579 0.91849 0.0
C823 C 0.0743 0.08668 0.90564 0.0
N824 N 0.13357 0.12005 0.89391 0.0
N825 N 0.06765 0.99634 0.93707 0.0
C826 C 0.1161 0.09195 0.90964 0.0
C827 C 0.08135 0.02889 0.93156 0.0
N828 N 0.17796 0.07393 0.93907 0.0
N829 N 0.01591 0.05309 0.92051 0.0
H830 H 0.03913 0.98789 0.92998 0.0
H831 H 0.03913 0.98789 0.92998 0.0
H832 H 0.9969 0.07306 0.91319 0.0
H833 H 1.00112 0.03283 0.93329 0.0
H834 H 0.19125 0.09794 0.93621 0.0
H835 H 0.19586 0.05596 0.9526 0.0
H836 H 0.16433 0.1237 0.89259 0.0
H837 H 0.11728 0.13861 0.87966 0.0
C838 C 0.8616 0.94974 0.39343 0.0
C839 C 0.87739 0.98161 0.40552 0.0
C840 C 0.94519 0.96061 0.39427 0.0
C841 C 0.92954 0.92958 0.37971 0.0
N842 N 0.87259 0.89866 0.35663 0.0
N843 N 0.93327 0.02066 0.40718 0.0
C844 C 0.88758 0.9253 0.37668 0.0
C845 C 0.91892 0.98807 0.40262 0.0
N846 N 0.82224 0.94224 0.39909 0.0
N847 N 0.98493 0.96343 0.40197 0.0
H848 H 0.91479 0.04171 0.4124 0.0
H849 H 0.96284 0.02736 0.40185 0.0
H850 H 0.00497 0.94349 0.39767 0.0
H851 H 0.9972 0.98415 0.41612 0.0
H852 H 0.81016 0.91799 0.39432 0.0
H853 H 0.80236 0.95943 0.41133 0.0
H854 H 0.84234 0.89592 0.35061 0.0
H855 H 0.89102 0.88124 0.34299 0.0
C856 C 0.40576 0.38726 0.19459 0.0
C857 C 0.39641 0.35739 0.17411 0.0
C858 C 0.41861 0.32287 0.22669 0.0
C859 C 0.4368 0.35236 0.24275 0.0
N860 N 0.4562 0.41206 0.23295 0.0
N861 N 0.40064 0.29547 0.16937 0.0
C862 C 0.4325 0.38461 0.22455 0.0
C863 C 0.40443 0.32468 0.1898 0.0
N864 N 0.38975 0.41831 0.18514 0.0
N865 N 0.41366 0.29349 0.24669 0.0
H866 H 0.3923 0.29562 0.14177 0.0
H867 H 0.40978 0.27147 0.17897 0.0
H868 H 0.42047 0.29193 0.27461 0.0
H869 H 0.39801 0.27232 0.23669 0.0
H870 H 0.39388 0.44031 0.20106 0.0
H871 H 0.36882 0.42098 0.16404 0.0
H872 H 0.45506 0.43501 0.21816 0.0
H873 H 0.48088 0.41062 0.25026 0.0
C874 C 0.61829 0.62843 0.70009 0.0
C875 C 0.62676 0.65853 0.67973 0.0
C876 C 0.60511 0.69247 0.7328 0.0
C877 C 0.58699 0.66279 0.74851 0.0
N878 N 0.56888 0.60264 0.73878 0.0
N879 N 0.62363 0.72051 0.6759 0.0
C880 C 0.59192 0.63054 0.73036 0.0
C881 C 0.61935 0.69107 0.69592 0.0
N882 N 0.63427 0.59762 0.68975 0.0
N883 N 0.60939 0.72174 0.75308 0.0
H884 H 0.63268 0.72066 0.64848 0.0
H885 H 0.61468 0.74447 0.68572 0.0
H886 H 0.60177 0.72303 0.78087 0.0
H887 H 0.62499 0.74312 0.74351 0.0
H888 H 0.63095 0.57538 0.70548 0.0
H889 H 0.65438 0.59541 0.66791 0.0
H890 H 0.57035 0.57982 0.72383 0.0
H891 H 0.54437 0.6033 0.7563 0.0
C892 C 0.6505 0.35755 0.21625 0.0
C893 C 0.64099 0.33551 0.18668 0.0
C894 C 0.58643 0.31048 0.22306 0.0
C895 C 0.59237 0.33612 0.2506 0.0
N896 N 0.62661 0.3879 0.26963 0.0
N897 N 0.59784 0.29297 0.15979 0.0
C898 C 0.62359 0.36062 0.24623 0.0
C899 C 0.60878 0.31209 0.18969 0.0
N900 N 0.68548 0.37563 0.2156 0.0
N901 N 0.55867 0.28516 0.22797 0.0
H902 H 0.61382 0.29295 0.13516 0.0
H903 H 0.57146 0.27892 0.15837 0.0
H904 H 0.53855 0.28444 0.24973 0.0
H905 H 0.557 0.26346 0.2113 0.0
H906 H 0.69614 0.38951 0.23802 0.0
H907 H 0.70583 0.37384 0.19391 0.0
H908 H 0.64578 0.40854 0.2652 0.0
H909 H 0.60749 0.39164 0.29172 0.0
C910 C 0.36904 0.64888 0.71571 0.0
C911 C 0.3816 0.66183 0.68112 0.0
C912 C 0.43993 0.68887 0.70955 0.0
C913 C 0.4283 0.67466 0.74387 0.0
N914 N 0.37839 0.64803 0.78198 0.0
N915 N 0.42312 0.69996 0.64564 0.0
C916 C 0.39157 0.65695 0.74769 0.0
C917 C 0.41509 0.68393 0.6783 0.0
N918 N 0.33647 0.62779 0.71756 0.0
N919 N 0.47567 0.70559 0.70656 0.0
H920 H 0.40602 0.69621 0.62201 0.0
H921 H 0.44471 0.71893 0.64246 0.0
H922 H 0.49351 0.71129 0.72922 0.0
H923 H 0.48862 0.7126 0.68164 0.0
H924 H 0.3283 0.61406 0.74093 0.0
H925 H 0.3182 0.62287 0.69492 0.0
H926 H 0.35033 0.63772 0.78734 0.0
H927 H 0.39456 0.65347 0.80575 0.0
C928 C 0.86835 0.85602 0.21171 0.0
C929 C 0.88504 0.85191 0.17613 0.0
C930 C 0.94912 0.83525 0.20291 0.0
C931 C 0.93261 0.83912 0.23873 0.0
N932 N 0.8742 0.84364 0.27701 0.0
N933 N 0.93671 0.82814 0.1377 0.0
C934 C 0.89137 0.84651 0.24305 0.0
C935 C 0.92388 0.83818 0.17176 0.0
N936 N 0.83121 0.87014 0.21557 0.0
N937 N 0.98931 0.83124 0.19832 0.0
H938 H 0.91892 0.83016 0.11423 0.0
H939 H 0.96325 0.81473 0.13335 0.0
H940 H 0.00906 0.82968 0.2202 0.0
H941 H 1.00352 0.83244 0.17285 0.0
H942 H 0.81923 0.87742 0.24084 0.0
H943 H 0.81321 0.87642 0.19311 0.0
H944 H 0.84363 0.84604 0.28165 0.0
H945 H 0.89023 0.83534 0.29999 0.0
C946 C 0.12579 0.12199 0.70546 0.0
C947 C 0.13458 0.15111 0.68361 0.0
C948 C 0.11002 0.1873 0.73396 0.0
C949 C 0.09173 0.15821 0.75077 0.0
N950 N 0.07511 0.09743 0.74371 0.0
N951 N 0.13001 0.21276 0.67611 0.0
C952 C 0.09802 0.12521 0.7346 0.0
C953 C 0.12572 0.18429 0.69765 0.0
N954 N 0.14284 0.09097 0.6976 0.0
N955 N 0.11322 0.21755 0.7527 0.0
H956 H 0.13995 0.21174 0.64897 0.0
H957 H 0.12012 0.237 0.68428 0.0
H958 H 0.10481 0.22005 0.7802 0.0
H959 H 0.12882 0.23861 0.74237 0.0
H960 H 0.13924 0.06953 0.7145 0.0
H961 H 0.16399 0.088 0.67671 0.0
H962 H 0.0777 0.07392 0.73018 0.0
H963 H 0.04974 0.09865 0.76013 0.0
C964 C 0.15578 0.84999 0.22218 0.0
C965 C 0.14569 0.83252 0.18928 0.0
C966 C 0.09003 0.80407 0.22066 0.0
C967 C 0.09562 0.82626 0.25115 0.0
N968 N 0.13563 0.86765 0.28354 0.0
N969 N 0.10246 0.79403 0.15591 0.0
C970 C 0.12935 0.84823 0.25279 0.0
C971 C 0.11305 0.80933 0.18832 0.0
N972 N 0.19079 0.86795 0.224 0.0
N973 N 0.06259 0.77816 0.22243 0.0
H974 H 0.11882 0.79678 0.13167 0.0
H975 H 0.07592 0.78054 0.15229 0.0
H976 H 0.0444 0.77398 0.24524 0.0
H977 H 0.06012 0.75903 0.20256 0.0
H978 H 0.20177 0.87917 0.2479 0.0
H979 H 0.21064 0.86948 0.20192 0.0
H980 H 0.15641 0.88742 0.28521 0.0
H981 H 0.11922 0.86414 0.30762 0.0
C982 C 0.87402 0.14418 0.71339 0.0
C983 C 0.88677 0.15723 0.67889 0.0
C984 C 0.945 0.18409 0.70789 0.0
C985 C 0.93281 0.1703 0.74226 0.0
N986 N 0.88219 0.14394 0.77981 0.0
N987 N 0.92879 0.19529 0.64385 0.0
C988 C 0.89605 0.15252 0.74565 0.0
C989 C 0.92042 0.17919 0.6764 0.0
N990 N 0.8417 0.12279 0.71497 0.0
N991 N 0.98098 0.20044 0.70505 0.0
H992 H 0.91187 0.19165 0.62009 0.0
H993 H 0.95044 0.21425 0.64094 0.0
H994 H 0.99877 0.20602 0.72777 0.0
H995 H 0.99425 0.20708 0.68016 0.0
H996 H 0.83351 0.109 0.7383 0.0
H997 H 0.82384 0.11754 0.69214 0.0
H998 H 0.85399 0.13374 0.78478 0.0
H999 H 0.89783 0.14967 0.80381 0.0
loop_
_geom_bond_atom_site_label_1
_geom_bond_atom_site_label_2
_geom_bond_distance
_geom_bond_site_symmetry_2
_ccdc_geom_bond_type
C0 C1 1.391 . S
C0 C4 1.391 . S
C0 H42 0.948 . S
C1 C0 1.391 . S
C1 C2 1.391 . S
C2 C1 1.391 . S
C2 H58 0.947 . S
C2 C59 1.392 . S
C3 C4 1.391 . S
C3 C7 1.397 . S
C3 C59 1.419 . S
C4 C0 1.391 . S
C4 C3 1.391 . S
C4 C5 1.399 . S
C5 C4 1.399 . S
C5 C8 1.396 . S
C5 C17 1.453 . S
C5 C18 1.684 . S
H6 C30 0.948 . S
C7 C3 1.397 . S
C7 C8 1.394 . S
C7 C26 1.723 . S
C8 C5 1.396 . S
C8 C7 1.394 . S
C8 C38 1.744 . S
H9 C32 0.937 1_554 S
H10 C33 0.948 . S
H11 C39 0.982 . S
H12 C40 0.979 . S
H13 C40 0.980 . S
H14 C40 0.983 . S
H15 C39 0.979 . S
H16 C39 0.977 . S
C17 C5 1.453 . S
C17 H46 0.982 . S
C17 H47 0.979 . S
C17 H48 0.977 . S
C18 C5 1.684 . S
C18 H43 0.979 . S
C18 H44 0.980 . S
C18 H45 0.983 . S
C19 C20 1.391 . S
C19 C24 1.391 . S
C19 H49 0.948 . S
C20 C19 1.391 . S
C20 C21 1.391 . S
C21 C20 1.391 . S
C21 C22 1.392 . S
C21 H50 0.947 . S
C22 C21 1.392 . S
C22 C23 1.419 . S
C22 H51 0.948 . S
C23 C22 1.419 . S
C23 C24 1.391 . S
C23 C27 1.397 . S
C24 C19 1.391 . S
C24 C23 1.391 . S
C24 C25 1.399 1_556 S
C25 C24 1.399 1_554 S
C25 C26 1.396 . S
C25 C28 1.453 . S
C25 C29 1.684 . S
C26 C7 1.723 . S
C26 C25 1.396 . S
C26 C27 1.394 1_554 S
C27 C23 1.397 . S
C27 C26 1.394 1_556 S
C27 C37 1.723 . S
C28 C25 1.453 . S
C28 H52 0.982 . S
C28 H53 0.979 . S
C28 H54 0.977 . S
C29 C25 1.684 . S
C29 H55 0.979 . S
C29 H56 0.980 . S
C29 H57 0.983 . S
C30 H6 0.948 . S
C30 C31 1.391 . S
C30 C35 1.391 . S
C31 C30 1.391 . S
C31 C32 1.391 . S
C32 H9 0.937 1_556 S
C32 C31 1.391 . S
C32 C33 1.392 1_556 S
C33 H10 0.948 . S
C33 C32 1.392 1_554 S
C33 C34 1.419 1_554 S
C34 C33 1.419 1_556 S
C34 C35 1.391 . S
C34 C38 1.390 1_556 S
C35 C30 1.391 . S
C35 C34 1.391 . S
C35 C36 1.399 . S
C36 C35 1.399 . S
C36 C37 1.396 . S
C36 C39 1.453 . S
C36 C40 1.684 . S
C37 C27 1.723 . S
C37 C36 1.396 . S
C37 C38 1.377 1_556 S
C38 C8 1.744 . S
C38 C34 1.390 1_554 S
C38 C37 1.377 1_554 S
C39 H11 0.982 . S
C39 H15 0.979 . S
C39 H16 0.977 . S
C39 C36 1.453 . S
C40 H12 0.979 . S
C40 H13 0.980 . S
C40 H14 0.983 . S
C40 C36 1.684 . S
H41 C59 0.948 . S
H42 C0 0.948 . S
H43 C18 0.979 . S
H44 C18 0.980 . S
H45 C18 0.983 . S
H46 C17 0.982 . S
H47 C17 0.979 . S
H48 C17 0.977 . S
H49 C19 0.948 . S
H50 C21 0.947 . S
H51 C22 0.948 . S
H52 C28 0.982 . S
H53 C28 0.979 . S
H54 C28 0.977 . S
H55 C29 0.979 . S
H56 C29 0.980 . S
H57 C29 0.983 . S
H58 C2 0.947 . S
C59 C2 1.392 . S
C59 C3 1.419 . S
C59 H41 0.948 . S
C60 C61 1.391 . S
C60 C64 1.391 . S
C60 H102 0.948 . S
C61 C60 1.391 . S
C61 C62 1.391 . S
C62 C61 1.391 . S
C62 H118 0.947 . S
C62 C119 1.392 . S
C63 C64 1.391 . S
C63 C67 1.397 . S
C63 C119 1.419 . S
C64 C60 1.391 . S
C64 C63 1.391 . S
C64 C65 1.399 . S
C65 C64 1.399 . S
C65 C68 1.396 . S
C65 C77 1.453 . S
C65 C78 1.684 . S
H66 C90 0.948 . S
C67 C63 1.397 . S
C67 C68 1.394 . S
C67 C86 1.723 . S
C68 C65 1.396 . S
C68 C67 1.394 . S
C68 C98 1.723 . S
H69 C92 0.947 . S
H70 C93 0.948 . S
H71 C99 0.982 . S
H72 C100 0.979 . S
H73 C100 0.980 . S
H74 C100 0.983 . S
H75 C99 0.979 . S
H76 C99 0.977 . S
C77 C65 1.453 . S
C77 H106 0.982 . S
C77 H107 0.979 . S
C77 H108 0.977 . S
C78 C65 1.684 . S
C78 H103 0.979 . S
C78 H104 0.980 . S
C78 H105 0.983 . S
C79 C80 1.391 . S
C79 C84 1.391 . S
C79 H109 0.948 . S
C80 C79 1.391 . S
C80 C81 1.391 . S
C81 C80 1.391 . S
C81 C82 1.392 . S
C81 H110 0.947 . S
C82 C81 1.392 . S
C82 C83 1.419 . S
C82 H111 0.948 . S
C83 C82 1.419 . S
C83 C84 1.391 . S
C83 C87 1.397 . S
C84 C79 1.391 . S
C84 C83 1.391 . S
C84 C85 1.399 . S
C85 C84 1.399 . S
C85 C86 1.396 . S
C85 C88 1.453 . S
C85 C89 1.684 . S
C86 C67 1.723 . S
C86 C85 1.396 . S
C86 C87 1.394 . S
C87 C83 1.397 . S
C87 C86 1.394 . S
C87 C97 1.723 . S
C88 C85 1.453 . S
C88 H112 0.982 . S
C88 H113 0.979 . S
C88 H114 0.977 . S
C89 C85 1.684 . S
C89 H115 0.979 . S
C89 H116 0.980 . S
C89 H117 0.983 . S
C90 H66 0.948 . S
C90 C91 1.391 . S
C90 C95 1.391 . S
C91 C90 1.391 . S
C91 C92 1.391 . S
C92 H69 0.947 . S
C92 C91 1.391 . S
C92 C93 1.392 . S
C93 H70 0.948 . S
C93 C92 1.392 . S
C93 C94 1.419 . S
C94 C93 1.419 . S
C94 C95 1.391 . S
C94 C98 1.397 . S
C95 C90 1.391 . S
C95 C94 1.391 . S
C95 C96 1.399 . S
C96 C95 1.399 . S
C96 C97 1.396 . S
C96 C99 1.453 . S
C96 C100 1.684 . S
C97 C87 1.723 . S
C97 C96 1.396 . S
C97 C98 1.394 . S
C98 C68 1.723 . S
C98 C94 1.397 . S
C98 C97 1.394 . S
C99 H71 0.982 . S
C99 H75 0.979 . S
C99 H76 0.977 . S
C99 C96 1.453 . S
C100 H72 0.979 . S
C100 H73 0.980 . S
C100 H74 0.983 . S
C100 C96 1.684 . S
H101 C119 0.948 . S
H102 C60 0.948 . S
H103 C78 0.979 . S
H104 C78 0.980 . S
H105 C78 0.983 . S
H106 C77 0.982 . S
H107 C77 0.979 . S
H108 C77 0.977 . S
H109 C79 0.948 . S
H110 C81 0.947 . S
H111 C82 0.948 . S
H112 C88 0.982 . S
H113 C88 0.979 . S
H114 C88 0.977 . S
H115 C89 0.979 . S
H116 C89 0.980 . S
H117 C89 0.983 . S
H118 C62 0.947 . S
C119 C62 1.392 . S
C119 C63 1.419 . S
C119 H101 0.948 . S
C120 C121 1.391 . S
C120 C124 1.391 . S
C120 H162 0.948 . S
C121 C120 1.391 . S
C121 C122 1.391 . S
C122 C121 1.391 . S
C122 H178 0.947 . S
C122 C179 1.392 . S
C123 C124 1.391 . S
C123 C127 1.397 . S
C123 C179 1.419 . S
C124 C120 1.391 . S
C124 C123 1.391 . S
C124 C125 1.399 . S
C125 C124 1.399 . S
C125 C128 1.396 . S
C125 C137 1.453 . S
C125 C138 1.684 . S
H126 C150 0.948 . S
C127 C123 1.397 . S
C127 C128 1.394 . S
C127 C146 1.723 1_556 S
C128 C125 1.396 . S
C128 C127 1.394 . S
C128 C158 1.723 . S
H129 C152 0.947 . S
H130 C153 0.948 . S
H131 C159 0.982 . S
H132 C160 0.979 . S
H133 C160 0.980 . S
H134 C160 0.983 . S
H135 C159 0.979 . S
H136 C159 0.977 . S
C137 C125 1.453 . S
C137 H166 0.982 . S
C137 H167 0.979 . S
C137 H168 0.977 . S
C138 C125 1.684 . S
C138 H163 0.979 . S
C138 H164 0.980 . S
C138 H165 0.983 . S
C139 C140 1.391 . S
C139 C144 1.391 . S
C139 H169 0.948 . S
C140 C139 1.391 . S
C140 C141 1.391 . S
C141 C140 1.391 . S
C141 C142 1.392 . S
C141 H170 0.947 . S
C142 C141 1.392 . S
C142 C143 1.419 . S
C142 H171 0.948 . S
C143 C142 1.419 . S
C143 C144 1.391 . S
C143 C147 1.397 . S
C144 C139 1.391 . S
C144 C143 1.391 . S
C144 C145 1.399 . S
C145 C144 1.399 . S
C145 C146 1.396 . S
C145 C148 1.453 . S
C145 C149 1.684 . S
C146 C127 1.723 1_554 S
C146 C145 1.396 . S
C146 C147 1.394 . S
C147 C143 1.397 . S
C147 C146 1.394 . S
C147 C157 1.723 . S
C148 C145 1.453 . S
C148 H172 0.982 . S
C148 H173 0.979 . S
C148 H174 0.977 . S
C149 C145 1.684 . S
C149 H175 0.979 . S
C149 H176 0.980 . S
C149 H177 0.983 . S
C150 H126 0.948 . S
C150 C151 1.391 . S
C150 C155 1.391 . S
C151 C150 1.391 . S
C151 C152 1.391 . S
C152 H129 0.947 . S
C152 C151 1.391 . S
C152 C153 1.392 . S
C153 H130 0.948 . S
C153 C152 1.392 . S
C153 C154 1.419 . S
C154 C153 1.419 . S
C154 C155 1.391 . S
C154 C158 1.397 . S
C155 C150 1.391 . S
C155 C154 1.391 . S
C155 C156 1.399 1_556 S
C156 C155 1.399 1_554 S
C156 C157 1.396 . S
C156 C159 1.453 . S
C156 C160 1.684 . S
C157 C147 1.723 . S
C157 C156 1.396 . S
C157 C158 1.394 1_554 S
C158 C128 1.723 . S
C158 C154 1.397 . S
C158 C157 1.394 1_556 S
C159 H131 0.982 . S
C159 H135 0.979 . S
C159 H136 0.977 . S
C159 C156 1.453 . S
C160 H132 0.979 . S
C160 H133 0.980 . S
C160 H134 0.983 . S
C160 C156 1.684 . S
H161 C179 0.948 1_554 S
H162 C120 0.948 . S
H163 C138 0.979 . S
H164 C138 0.980 . S
H165 C138 0.983 . S
H166 C137 0.982 . S
H167 C137 0.979 . S
H168 C137 0.977 . S
H169 C139 0.948 . S
H170 C141 0.947 . S
H171 C142 0.948 . S
H172 C148 0.982 . S
H173 C148 0.979 . S
H174 C148 0.977 . S
H175 C149 0.979 . S
H176 C149 0.980 . S
H177 C149 0.983 . S
H178 C122 0.947 . S
C179 C122 1.392 . S
C179 C123 1.419 . S
C179 H161 0.948 1_556 S
C180 C181 1.391 . S
C180 C184 1.391 . S
C180 H222 0.948 . S
C181 C180 1.391 . S
C181 C182 1.391 . S
C182 C181 1.391 . S
C182 H238 0.947 . S
C182 C239 1.392 . S
C183 C184 1.391 . S
C183 C187 1.397 . S
C183 C239 1.419 . S
C184 C180 1.391 . S
C184 C183 1.391 . S
C184 C185 1.399 . S
C185 C184 1.399 . S
C185 C188 1.396 . S
C185 C197 1.453 . S
C185 C198 1.684 . S
H186 C210 0.948 . S
C187 C183 1.397 . S
C187 C188 1.394 . S
C187 C206 1.723 . S
C188 C185 1.396 . S
C188 C187 1.394 . S
C188 C218 1.723 . S
H189 C212 0.947 . S
H190 C213 0.948 . S
H191 C219 0.982 . S
H192 C220 0.979 . S
H193 C220 0.980 . S
H194 C220 0.983 . S
H195 C219 0.979 . S
H196 C219 0.977 . S
C197 C185 1.453 . S
C197 H226 0.982 . S
C197 H227 0.979 . S
C197 H228 0.977 . S
C198 C185 1.684 . S
C198 H223 0.979 . S
C198 H224 0.980 . S
C198 H225 0.983 . S
C199 C200 1.391 . S
C199 C204 1.391 . S
C199 H229 0.948 . S
C200 C199 1.391 . S
C200 C201 1.391 . S
C201 C200 1.391 . S
C201 C202 1.392 . S
C201 H230 0.947 . S
C202 C201 1.392 . S
C202 C203 1.419 . S
C202 H231 0.948 . S
C203 C202 1.419 . S
C203 C204 1.391 . S
C203 C207 1.397 . S
C204 C199 1.391 . S
C204 C203 1.391 . S
C204 C205 1.399 . S
C205 C204 1.399 . S
C205 C206 1.396 . S
C205 C208 1.453 . S
C205 C209 1.684 . S
C206 C187 1.723 . S
C206 C205 1.396 . S
C206 C207 1.394 . S
C207 C203 1.397 . S
C207 C206 1.394 . S
C207 C217 1.723 . S
C208 C205 1.453 . S
C208 H232 0.982 . S
C208 H233 0.979 . S
C208 H234 0.977 . S
C209 C205 1.684 . S
C209 H235 0.979 . S
C209 H236 0.980 . S
C209 H237 0.983 . S
C210 H186 0.948 . S
C210 C211 1.391 . S
C210 C215 1.391 . S
C211 C210 1.391 . S
C211 C212 1.391 . S
C212 H189 0.947 . S
C212 C211 1.391 . S
C212 C213 1.392 . S
C213 H190 0.948 . S
C213 C212 1.392 . S
C213 C214 1.419 . S
C214 C213 1.419 . S
C214 C215 1.391 . S
C214 C218 1.397 . S
C215 C210 1.391 . S
C215 C214 1.391 . S
C215 C216 1.399 . S
C216 C215 1.399 . S
C216 C217 1.396 . S
C216 C219 1.453 . S
C216 C220 1.684 . S
C217 C207 1.723 . S
C217 C216 1.396 . S
C217 C218 1.394 . S
C218 C188 1.723 . S
C218 C214 1.397 . S
C218 C217 1.394 . S
C219 H191 0.982 . S
C219 H195 0.979 . S
C219 H196 0.977 . S
C219 C216 1.453 . S
C220 H192 0.979 . S
C220 H193 0.980 . S
C220 H194 0.983 . S
C220 C216 1.684 . S
H221 C239 0.948 . S
H222 C180 0.948 . S
H223 C198 0.979 . S
H224 C198 0.980 . S
H225 C198 0.983 . S
H226 C197 0.982 . S
H227 C197 0.979 . S
H228 C197 0.977 . S
H229 C199 0.948 . S
H230 C201 0.947 . S
H231 C202 0.948 . S
H232 C208 0.982 . S
H233 C208 0.979 . S
H234 C208 0.977 . S
H235 C209 0.979 . S
H236 C209 0.980 . S
H237 C209 0.983 . S
H238 C182 0.947 . S
C239 C182 1.392 . S
C239 C183 1.419 . S
C239 H221 0.948 . S
C240 C241 1.391 . S
C240 C244 1.391 . S
C240 H282 0.948 . S
C241 C240 1.391 . S
C241 C242 1.391 . S
C242 C241 1.391 . S
C242 H298 0.947 . S
C242 C299 1.392 . S
C243 C244 1.391 . S
C243 C247 1.397 . S
C243 C299 1.419 . S
C244 C240 1.391 . S
C244 C243 1.391 . S
C244 C245 1.399 . S
C245 C244 1.399 . S
C245 C248 1.396 . S
C245 C257 1.453 . S
C245 C258 1.684 . S
H246 C270 0.948 . S
C247 C243 1.397 . S
C247 C248 1.394 . S
C247 C266 1.723 . S
C248 C245 1.396 . S
C248 C247 1.394 . S
C248 C278 1.744 . S
H249 C272 0.937 1_554 S
H250 C273 0.948 . S
H251 C279 0.982 . S
H252 C280 0.979 . S
H253 C280 0.980 . S
H254 C280 0.983 . S
H255 C279 0.979 . S
H256 C279 0.977 . S
C257 C245 1.453 . S
C257 H286 0.982 . S
C257 H287 0.979 . S
C257 H288 0.977 . S
C258 C245 1.684 . S
C258 H283 0.979 . S
C258 H284 0.980 . S
C258 H285 0.983 . S
C259 C260 1.391 1_565 S
C259 C264 1.391 . S
C259 H289 0.948 1_565 S
C260 C259 1.391 1_545 S
C260 C261 1.391 1_545 S
C261 C260 1.391 1_565 S
C261 C262 1.392 . S
C261 H290 0.947 . S
C262 C261 1.392 . S
C262 C263 1.419 . S
C262 H291 0.948 . S
C263 C262 1.419 . S
C263 C264 1.391 . S
C263 C267 1.397 . S
C264 C259 1.391 . S
C264 C263 1.391 . S
C264 C265 1.399 1_556 S
C265 C264 1.399 1_554 S
C265 C266 1.396 . S
C265 C268 1.453 . S
C265 C269 1.684 . S
C266 C247 1.723 . S
C266 C265 1.396 . S
C266 C267 1.394 1_554 S
C267 C263 1.397 . S
C267 C266 1.394 1_556 S
C267 C277 1.723 . S
C268 C265 1.453 . S
C268 H292 0.982 . S
C268 H293 0.979 . S
C268 H294 0.977 . S
C269 C265 1.684 . S
C269 H295 0.979 . S
C269 H296 0.980 . S
C269 H297 0.983 . S
C270 H246 0.948 . S
C270 C271 1.391 . S
C270 C275 1.391 . S
C271 C270 1.391 . S
C271 C272 1.391 . S
C272 H249 0.937 1_556 S
C272 C271 1.391 . S
C272 C273 1.392 1_556 S
C273 H250 0.948 . S
C273 C272 1.392 1_554 S
C273 C274 1.419 1_554 S
C274 C273 1.419 1_556 S
C274 C275 1.391 . S
C274 C278 1.390 1_556 S
C275 C270 1.391 . S
C275 C274 1.391 . S
C275 C276 1.399 . S
C276 C275 1.399 . S
C276 C277 1.396 . S
C276 C279 1.453 . S
C276 C280 1.684 . S
C277 C267 1.723 . S
C277 C276 1.396 . S
C277 C278 1.377 1_556 S
C278 C248 1.744 . S
C278 C274 1.390 1_554 S
C278 C277 1.377 1_554 S
C279 H251 0.982 . S
C279 H255 0.979 . S
C279 H256 0.977 . S
C279 C276 1.453 . S
C280 H252 0.979 . S
C280 H253 0.980 . S
C280 H254 0.983 . S
C280 C276 1.684 . S
H281 C299 0.948 . S
H282 C240 0.948 . S
H283 C258 0.979 . S
H284 C258 0.980 . S
H285 C258 0.983 . S
H286 C257 0.982 . S
H287 C257 0.979 . S
H288 C257 0.977 . S
H289 C259 0.948 1_545 S
H290 C261 0.947 . S
H291 C262 0.948 . S
H292 C268 0.982 . S
H293 C268 0.979 . S
H294 C268 0.977 . S
H295 C269 0.979 . S
H296 C269 0.980 . S
H297 C269 0.983 . S
H298 C242 0.947 . S
C299 C242 1.392 . S
C299 C243 1.419 . S
C299 H281 0.948 . S
C300 C301 1.391 . S
C300 C304 1.391 . S
C300 H342 0.948 . S
C301 C300 1.391 . S
C301 C302 1.391 . S
C302 C301 1.391 . S
C302 H358 0.947 . S
C302 C359 1.392 . S
C303 C304 1.391 . S
C303 C307 1.397 . S
C303 C359 1.419 . S
C304 C300 1.391 . S
C304 C303 1.391 . S
C304 C305 1.399 . S
C305 C304 1.399 . S
C305 C308 1.396 . S
C305 C317 1.453 . S
C305 C318 1.684 . S
H306 C330 0.948 1_565 S
C307 C303 1.397 . S
C307 C308 1.394 . S
C307 C326 1.723 . S
C308 C305 1.396 . S
C308 C307 1.394 . S
C308 C338 1.723 . S
H309 C332 0.947 . S
H310 C333 0.948 . S
H311 C339 0.982 . S
H312 C340 0.979 . S
H313 C340 0.980 . S
H314 C340 0.983 . S
H315 C339 0.979 . S
H316 C339 0.977 . S
C317 C305 1.453 . S
C317 H346 0.982 . S
C317 H347 0.979 . S
C317 H348 0.977 . S
C318 C305 1.684 . S
C318 H343 0.979 . S
C318 H344 0.980 . S
C318 H345 0.983 . S
C319 C320 1.391 . S
C319 C324 1.391 . S
C319 H349 0.948 . S
C320 C319 1.391 . S
C320 C321 1.391 . S
C321 C320 1.391 . S
C321 C322 1.392 . S
C321 H350 0.947 . S
C322 C321 1.392 . S
C322 C323 1.419 . S
C322 H351 0.948 . S
C323 C322 1.419 . S
C323 C324 1.391 . S
C323 C327 1.397 . S
C324 C319 1.391 . S
C324 C323 1.391 . S
C324 C325 1.399 . S
C325 C324 1.399 . S
C325 C326 1.396 . S
C325 C328 1.453 . S
C325 C329 1.684 . S
C326 C307 1.723 . S
C326 C325 1.396 . S
C326 C327 1.394 . S
C327 C323 1.397 . S
C327 C326 1.394 . S
C327 C337 1.723 . S
C328 C325 1.453 . S
C328 H352 0.982 . S
C328 H353 0.979 . S
C328 H354 0.977 . S
C329 C325 1.684 . S
C329 H355 0.979 . S
C329 H356 0.980 . S
C329 H357 0.983 . S
C330 H306 0.948 1_545 S
C330 C331 1.391 1_545 S
C330 C335 1.391 . S
C331 C330 1.391 1_565 S
C331 C332 1.391 1_565 S
C332 H309 0.947 . S
C332 C331 1.391 1_545 S
C332 C333 1.392 . S
C333 H310 0.948 . S
C333 C332 1.392 . S
C333 C334 1.419 . S
C334 C333 1.419 . S
C334 C335 1.391 . S
C334 C338 1.397 . S
C335 C330 1.391 . S
C335 C334 1.391 . S
C335 C336 1.399 . S
C336 C335 1.399 . S
C336 C337 1.396 . S
C336 C339 1.453 . S
C336 C340 1.684 . S
C337 C327 1.723 . S
C337 C336 1.396 . S
C337 C338 1.394 . S
C338 C308 1.723 . S
C338 C334 1.397 . S
C338 C337 1.394 . S
C339 H311 0.982 . S
C339 H315 0.979 . S
C339 H316 0.977 . S
C339 C336 1.453 . S
C340 H312 0.979 . S
C340 H313 0.980 . S
C340 H314 0.983 . S
C340 C336 1.684 . S
H341 C359 0.948 . S
H342 C300 0.948 . S
H343 C318 0.979 . S
H344 C318 0.980 . S
H345 C318 0.983 . S
H346 C317 0.982 . S
H347 C317 0.979 . S
H348 C317 0.977 . S
H349 C319 0.948 . S
H350 C321 0.947 . S
H351 C322 0.948 . S
H352 C328 0.982 . S
H353 C328 0.979 . S
H354 C328 0.977 . S
H355 C329 0.979 . S
H356 C329 0.980 . S
H357 C329 0.983 . S
H358 C302 0.947 . S
C359 C302 1.392 . S
C359 C303 1.419 . S
C359 H341 0.948 . S
C360 C361 1.391 1_565 S
C360 C364 1.391 . S
C360 H402 0.948 . S
C361 C360 1.391 1_545 S
C361 C362 1.391 . S
C362 C361 1.391 . S
C362 H418 0.947 . S
C362 C419 1.392 1_545 S
C363 C364 1.391 . S
C363 C367 1.397 . S
C363 C419 1.419 . S
C364 C360 1.391 . S
C364 C363 1.391 . S
C364 C365 1.399 . S
C365 C364 1.399 . S
C365 C368 1.396 . S
C365 C377 1.453 . S
C365 C378 1.684 . S
H366 C390 0.948 . S
C367 C363 1.397 . S
C367 C368 1.394 . S
C367 C386 1.723 1_556 S
C368 C365 1.396 . S
C368 C367 1.394 . S
C368 C398 1.723 . S
H369 C392 0.947 . S
H370 C393 0.948 . S
H371 C399 0.982 . S
H372 C400 0.979 . S
H373 C400 0.980 . S
H374 C400 0.983 . S
H375 C399 0.979 . S
H376 C399 0.977 . S
C377 C365 1.453 . S
C377 H406 0.982 . S
C377 H407 0.979 . S
C377 H408 0.977 . S
C378 C365 1.684 . S
C378 H403 0.979 . S
C378 H404 0.980 . S
C378 H405 0.983 . S
C379 C380 1.391 . S
C379 C384 1.391 . S
C379 H409 0.948 . S
C380 C379 1.391 . S
C380 C381 1.391 . S
C381 C380 1.391 . S
C381 C382 1.392 . S
C381 H410 0.947 . S
C382 C381 1.392 . S
C382 C383 1.419 . S
C382 H411 0.948 . S
C383 C382 1.419 . S
C383 C384 1.391 . S
C383 C387 1.397 . S
C384 C379 1.391 . S
C384 C383 1.391 . S
C384 C385 1.399 . S
C385 C384 1.399 . S
C385 C386 1.396 . S
C385 C388 1.453 . S
C385 C389 1.684 . S
C386 C367 1.723 1_554 S
C386 C385 1.396 . S
C386 C387 1.394 . S
C387 C383 1.397 . S
C387 C386 1.394 . S
C387 C397 1.723 . S
C388 C385 1.453 . S
C388 H412 0.982 . S
C388 H413 0.979 . S
C388 H414 0.977 . S
C389 C385 1.684 . S
C389 H415 0.979 . S
C389 H416 0.980 . S
C389 H417 0.983 . S
C390 H366 0.948 . S
C390 C391 1.391 . S
C390 C395 1.391 . S
C391 C390 1.391 . S
C391 C392 1.391 . S
C392 H369 0.947 . S
C392 C391 1.391 . S
C392 C393 1.392 . S
C393 H370 0.948 . S
C393 C392 1.392 . S
C393 C394 1.419 . S
C394 C393 1.419 . S
C394 C395 1.391 . S
C394 C398 1.397 . S
C395 C390 1.391 . S
C395 C394 1.391 . S
C395 C396 1.399 1_556 S
C396 C395 1.399 1_554 S
C396 C397 1.396 . S
C396 C399 1.453 . S
C396 C400 1.684 . S
C397 C387 1.723 . S
C397 C396 1.396 . S
C397 C398 1.394 1_554 S
C398 C368 1.723 . S
C398 C394 1.397 . S
C398 C397 1.394 1_556 S
C399 H371 0.982 . S
C399 H375 0.979 . S
C399 H376 0.977 . S
C399 C396 1.453 . S
C400 H372 0.979 . S
C400 H373 0.980 . S
C400 H374 0.983 . S
C400 C396 1.684 . S
H401 C419 0.948 1_554 S
H402 C360 0.948 . S
H403 C378 0.979 . S
H404 C378 0.980 . S
H405 C378 0.983 . S
H406 C377 0.982 . S
H407 C377 0.979 . S
H408 C377 0.977 . S
H409 C379 0.948 . S
H410 C381 0.947 . S
H411 C382 0.948 . S
H412 C388 0.982 . S
H413 C388 0.979 . S
H414 C388 0.977 . S
H415 C389 0.979 . S
H416 C389 0.980 . S
H417 C389 0.983 . S
H418 C362 0.947 . S
C419 C362 1.392 1_565 S
C419 C363 1.419 . S
C419 H401 0.948 1_556 S
C420 C421 1.391 . S
C420 C424 1.391 . S
C420 H462 0.948 . S
C421 C420 1.391 . S
C421 C422 1.391 . S
C422 C421 1.391 . S
C422 H478 0.947 . S
C422 C479 1.392 . S
C423 C424 1.391 . S
C423 C427 1.397 . S
C423 C479 1.419 . S
C424 C420 1.391 . S
C424 C423 1.391 . S
C424 C425 1.399 . S
C425 C424 1.399 . S
C425 C428 1.396 . S
C425 C437 1.453 . S
C425 C438 1.684 . S
H426 C450 0.948 . S
C427 C423 1.397 . S
C427 C428 1.394 . S
C427 C446 1.723 . S
C428 C425 1.396 . S
C428 C427 1.394 . S
C428 C458 1.723 . S
H429 C452 0.947 1_565 S
H430 C453 0.948 . S
H431 C459 0.982 . S
H432 C460 0.968 1_565 S
H433 C460 0.980 . S
H434 C460 0.983 1_565 S
H435 C459 0.979 . S
H436 C459 0.977 . S
C437 C425 1.453 . S
C437 H466 0.982 . S
C437 H467 0.979 . S
C437 H468 0.977 . S
C438 C425 1.684 . S
C438 H463 0.979 . S
C438 H464 0.980 . S
C438 H465 0.983 . S
C439 C440 1.391 . S
C439 C444 1.391 . S
C439 H469 0.948 . S
C440 C439 1.391 . S
C440 C441 1.391 . S
C441 C440 1.391 . S
C441 C442 1.392 . S
C441 H470 0.947 . S
C442 C441 1.392 . S
C442 C443 1.419 . S
C442 H471 0.948 . S
C443 C442 1.419 . S
C443 C444 1.391 . S
C443 C447 1.397 . S
C444 C439 1.391 . S
C444 C443 1.391 . S
C444 C445 1.399 . S
C445 C444 1.399 . S
C445 C446 1.396 . S
C445 C448 1.453 . S
C445 C449 1.684 . S
C446 C427 1.723 . S
C446 C445 1.396 . S
C446 C447 1.394 . S
C447 C443 1.397 . S
C447 C446 1.394 . S
C447 C457 1.723 . S
C448 C445 1.453 . S
C448 H472 0.982 . S
C448 H473 0.979 . S
C448 H474 0.977 . S
C449 C445 1.684 . S
C449 H475 0.979 . S
C449 H476 0.980 . S
C449 H477 0.983 . S
C450 H426 0.948 . S
C450 C451 1.391 . S
C450 C455 1.391 1_565 S
C451 C450 1.391 . S
C451 C452 1.391 1_565 S
C452 H429 0.947 1_545 S
C452 C451 1.391 1_545 S
C452 C453 1.392 . S
C453 H430 0.948 . S
C453 C452 1.392 . S
C453 C454 1.419 . S
C454 C453 1.419 . S
C454 C455 1.391 . S
C454 C458 1.397 . S
C455 C450 1.391 1_545 S
C455 C454 1.391 . S
C455 C456 1.399 . S
C456 C455 1.399 . S
C456 C457 1.396 . S
C456 C459 1.453 . S
C456 C460 1.684 . S
C457 C447 1.723 . S
C457 C456 1.396 . S
C457 C458 1.394 . S
C458 C428 1.723 . S
C458 C454 1.397 . S
C458 C457 1.394 . S
C459 H431 0.982 . S
C459 H435 0.979 . S
C459 H436 0.977 . S
C459 C456 1.453 . S
C460 H432 0.968 1_545 S
C460 H433 0.980 . S
C460 H434 0.983 1_545 S
C460 C456 1.684 . S
H461 C479 0.948 . S
H462 C420 0.948 . S
H463 C438 0.979 . S
H464 C438 0.980 . S
H465 C438 0.983 . S
H466 C437 0.982 . S
H467 C437 0.979 . S
H468 C437 0.977 . S
H469 C439 0.948 . S
H470 C441 0.947 . S
H471 C442 0.948 . S
H472 C448 0.982 . S
H473 C448 0.979 . S
H474 C448 0.977 . S
H475 C449 0.979 . S
H476 C449 0.980 . S
H477 C449 0.983 . S
H478 C422 0.947 . S
C479 C422 1.392 . S
C479 C423 1.419 . S
C479 H461 0.948 . S
Fe480 O482 1.918 . S
Fe480 O485 1.997 1_455 S
Fe480 O486 2.002 1_455 S
Fe480 O491 1.976 . S
Fe480 O494 1.996 . S
Fe481 O482 1.918 . S
Fe481 O489 1.997 1_455 S
Fe481 O492 1.996 . S
Fe481 O496 1.976 . S
Fe481 O499 2.002 1_455 S
O482 Fe480 1.918 . S
O482 Fe481 1.918 . S
O482 Fe483 1.918 . S
Fe483 O482 1.918 . S
Fe483 O484 2.002 1_455 S
Fe483 O493 1.976 . S
Fe483 O497 1.996 . S
Fe483 O500 1.997 1_455 S
O484 Fe483 2.002 1_655 S
O484 C501 1.295 . S
O485 Fe480 1.997 1_655 S
O485 C501 1.235 . S
O486 Fe480 2.002 1_655 S
O486 C487 1.295 . S
C487 O486 1.295 . S
C487 O489 1.235 . S
C488 O493 1.287 . S
C488 O494 1.255 . S
O489 Fe481 1.997 1_655 S
O489 C487 1.235 . S
C490 O496 1.287 . S
C490 O497 1.255 . S
O491 Fe480 1.976 . S
O491 C498 1.287 . S
O492 Fe481 1.996 . S
O492 C498 1.255 . S
O493 Fe483 1.976 . S
O493 C488 1.287 . S
O494 Fe480 1.996 . S
O494 C488 1.255 . S
C495 O499 1.295 . S
C495 O500 1.235 . S
O496 Fe481 1.976 . S
O496 C490 1.287 . S
O497 Fe483 1.996 . S
O497 C490 1.255 . S
C498 O491 1.287 . S
C498 O492 1.255 . S
O499 Fe481 2.002 1_655 S
O499 C495 1.295 . S
O500 Fe483 1.997 1_655 S
O500 C495 1.235 . S
C501 O484 1.295 . S
C501 O485 1.235 . S
Fe502 O504 1.918 . S
Fe502 O507 1.997 1_655 S
Fe502 O508 2.002 1_655 S
Fe502 O513 1.976 . S
Fe502 O516 1.996 . S
Fe503 O504 1.918 . S
Fe503 O511 1.997 1_655 S
Fe503 O514 1.996 . S
Fe503 O518 1.976 . S
Fe503 O521 2.002 1_655 S
O504 Fe502 1.918 . S
O504 Fe503 1.918 . S
O504 Fe505 1.918 . S
Fe505 O504 1.918 . S
Fe505 O506 2.002 1_655 S
Fe505 O515 1.976 . S
Fe505 O519 1.996 . S
Fe505 O522 1.997 1_655 S
O506 Fe505 2.002 1_455 S
O506 C523 1.295 . S
O507 Fe502 1.997 1_455 S
O507 C523 1.235 . S
O508 Fe502 2.002 1_455 S
O508 C509 1.295 . S
C509 O508 1.295 . S
C509 O511 1.235 . S
C510 O515 1.287 . S
C510 O516 1.255 . S
O511 Fe503 1.997 1_455 S
O511 C509 1.235 . S
C512 O518 1.287 . S
C512 O519 1.255 . S
O513 Fe502 1.976 . S
O513 C520 1.287 . S
O514 Fe503 1.996 . S
O514 C520 1.255 . S
O515 Fe505 1.976 . S
O515 C510 1.287 . S
O516 Fe502 1.996 . S
O516 C510 1.255 . S
C517 O521 1.295 . S
C517 O522 1.235 . S
O518 Fe503 1.976 . S
O518 C512 1.287 . S
O519 Fe505 1.996 . S
O519 C512 1.255 . S
C520 O513 1.287 . S
C520 O514 1.255 . S
O521 Fe503 2.002 1_455 S
O521 C517 1.295 . S
O522 Fe505 1.997 1_455 S
O522 C517 1.235 . S
C523 O506 1.295 . S
C523 O507 1.235 . S
Fe524 O526 1.918 . S
Fe524 O529 1.997 . S
Fe524 O530 2.002 . S
Fe524 O535 1.976 . S
Fe524 O538 1.996 . S
Fe525 O526 1.918 . S
Fe525 O533 1.997 . S
Fe525 O536 1.996 . S
Fe525 O540 1.976 . S
Fe525 O543 2.002 . S
O526 Fe524 1.918 . S
O526 Fe525 1.918 . S
O526 Fe527 1.918 . S
Fe527 O526 1.918 . S
Fe527 O528 2.002 . S
Fe527 O537 1.976 . S
Fe527 O541 1.996 . S
Fe527 O544 1.997 . S
O528 Fe527 2.002 . S
O528 C545 1.295 . S
O529 Fe524 1.997 . S
O529 C545 1.235 . S
O530 Fe524 2.002 . S
O530 C531 1.295 . S
C531 O530 1.295 . S
C531 O533 1.235 . S
C532 O537 1.287 . S
C532 O538 1.255 . S
O533 Fe525 1.997 . S
O533 C531 1.235 . S
C534 O540 1.287 . S
C534 O541 1.255 . S
O535 Fe524 1.976 . S
O535 C542 1.287 . S
O536 Fe525 1.996 . S
O536 C542 1.255 . S
O537 Fe527 1.976 . S
O537 C532 1.287 . S
O538 Fe524 1.996 . S
O538 C532 1.255 . S
C539 O543 1.295 . S
C539 O544 1.235 . S
O540 Fe525 1.976 . S
O540 C534 1.287 . S
O541 Fe527 1.996 . S
O541 C534 1.255 . S
C542 O535 1.287 . S
C542 O536 1.255 . S
O543 Fe525 2.002 . S
O543 C539 1.295 . S
O544 Fe527 1.997 . S
O544 C539 1.235 . S
C545 O528 1.295 . S
C545 O529 1.235 . S
Fe546 O548 1.918 . S
Fe546 O551 1.997 . S
Fe546 O552 2.002 . S
Fe546 O557 1.976 . S
Fe546 O560 1.996 . S
Fe547 O548 1.918 . S
Fe547 O555 1.997 . S
Fe547 O558 1.996 . S
Fe547 O562 1.976 . S
Fe547 O565 2.002 . S
O548 Fe546 1.918 . S
O548 Fe547 1.918 . S
O548 Fe549 1.918 . S
Fe549 O548 1.918 . S
Fe549 O550 2.002 . S
Fe549 O559 1.976 . S
Fe549 O563 1.996 . S
Fe549 O566 1.997 . S
O550 Fe549 2.002 . S
O550 C567 1.295 . S
O551 Fe546 1.997 . S
O551 C567 1.235 . S
O552 Fe546 2.002 . S
O552 C553 1.295 . S
C553 O552 1.295 . S
C553 O555 1.235 . S
C554 O559 1.287 . S
C554 O560 1.255 . S
O555 Fe547 1.997 . S
O555 C553 1.235 . S
C556 O562 1.287 . S
C556 O563 1.255 . S
O557 Fe546 1.976 . S
O557 C564 1.287 . S
O558 Fe547 1.996 . S
O558 C564 1.255 . S
O559 Fe549 1.976 . S
O559 C554 1.287 . S
O560 Fe546 1.996 . S
O560 C554 1.255 . S
C561 O565 1.295 . S
C561 O566 1.235 . S
O562 Fe547 1.976 . S
O562 C556 1.287 . S
O563 Fe549 1.996 . S
O563 C556 1.255 . S
C564 O557 1.287 . S
C564 O558 1.255 . S
O565 Fe547 2.002 . S
O565 C561 1.295 . S
O566 Fe549 1.997 . S
O566 C561 1.235 . S
C567 O550 1.295 . S
C567 O551 1.235 . S
C568 C569 1.363 . S
C568 C574 1.379 . S
C568 N576 1.356 . S
C569 C568 1.363 . S
C569 C575 1.363 . S
C570 C571 1.363 . S
C570 C575 1.379 . S
C570 N577 1.356 . S
C571 C570 1.363 . S
C571 C574 1.363 . S
N572 C574 1.356 . S
N572 H584 0.984 . S
N572 H585 0.985 . S
N573 C575 1.356 . S
N573 H578 0.984 . S
N573 H579 0.985 . S
C574 C568 1.379 . S
C574 C571 1.363 . S
C574 N572 1.356 . S
C575 C569 1.363 . S
C575 C570 1.379 . S
C575 N573 1.356 . S
N576 C568 1.356 . S
N576 H582 0.984 . S
N576 H583 0.984 . S
N577 C570 1.356 . S
N577 H580 0.984 . S
N577 H581 0.985 . S
H578 N573 0.984 . S
H579 N573 0.985 . S
H580 N577 0.984 . S
H581 N577 0.985 . S
H582 N576 0.984 . S
H583 N576 0.984 . S
H584 N572 0.984 . S
H585 N572 0.985 . S
C586 C587 1.363 . S
C586 C592 1.379 . S
C586 N594 1.356 . S
C587 C586 1.363 . S
C587 C593 1.363 . S
C588 C589 1.363 . S
C588 C593 1.379 . S
C588 N595 1.356 . S
C589 C588 1.363 . S
C589 C592 1.363 . S
N590 C592 1.356 . S
N590 H602 0.984 . S
N590 H603 0.985 . S
N591 C593 1.356 . S
N591 H596 0.984 . S
N591 H597 0.985 . S
C592 C586 1.379 . S
C592 C589 1.363 . S
C592 N590 1.356 . S
C593 C587 1.363 . S
C593 C588 1.379 . S
C593 N591 1.356 . S
N594 C586 1.356 . S
N594 H600 0.984 . S
N594 H601 0.984 . S
N595 C588 1.356 . S
N595 H598 0.984 . S
N595 H599 0.985 . S
H596 N591 0.984 . S
H597 N591 0.985 . S
H598 N595 0.984 . S
H599 N595 0.985 . S
H600 N594 0.984 . S
H601 N594 0.984 . S
H602 N590 0.984 . S
H603 N590 0.985 . S
C604 C605 1.363 . S
C604 C610 1.379 . S
C604 N612 1.356 . S
C605 C604 1.363 . S
C605 C611 1.363 . S
C606 C607 1.363 . S
C606 C611 1.379 . S
C606 N613 1.356 . S
C607 C606 1.363 . S
C607 C610 1.363 . S
N608 C610 1.356 . S
N608 H620 0.984 . S
N608 H621 0.985 . S
N609 C611 1.356 . S
N609 H614 0.984 . S
N609 H615 0.985 . S
C610 C604 1.379 . S
C610 C607 1.363 . S
C610 N608 1.356 . S
C611 C605 1.363 . S
C611 C606 1.379 . S
C611 N609 1.356 . S
N612 C604 1.356 . S
N612 H618 0.984 . S
N612 H619 0.984 . S
N613 C606 1.356 . S
N613 H616 0.984 . S
N613 H617 0.985 . S
H614 N609 0.984 . S
H615 N609 0.985 . S
H616 N613 0.984 . S
H617 N613 0.985 . S
H618 N612 0.984 . S
H619 N612 0.984 . S
H620 N608 0.984 . S
H621 N608 0.985 . S
C622 C623 1.363 . S
C622 C628 1.379 . S
C622 N630 1.356 . S
C623 C622 1.363 . S
C623 C629 1.363 . S
C624 C625 1.363 . S
C624 C629 1.379 . S
C624 N631 1.356 . S
C625 C624 1.363 . S
C625 C628 1.363 . S
N626 C628 1.356 . S
N626 H638 0.984 . S
N626 H639 0.985 . S
N627 C629 1.356 . S
N627 H632 0.984 . S
N627 H633 0.985 . S
C628 C622 1.379 . S
C628 C625 1.363 . S
C628 N626 1.356 . S
C629 C623 1.363 . S
C629 C624 1.379 . S
C629 N627 1.356 . S
N630 C622 1.356 . S
N630 H636 0.984 . S
N630 H637 0.984 . S
N631 C624 1.356 . S
N631 H634 0.984 . S
N631 H635 0.985 . S
H632 N627 0.984 . S
H633 N627 0.985 . S
H634 N631 0.984 . S
H635 N631 0.985 . S
H636 N630 0.984 . S
H637 N630 0.984 . S
H638 N626 0.984 . S
H639 N626 0.985 . S
C640 C641 1.363 . S
C640 C646 1.379 . S
C640 N648 1.356 . S
C641 C640 1.363 . S
C641 C647 1.363 . S
C642 C643 1.363 . S
C642 C647 1.379 . S
C642 N649 1.356 . S
C643 C642 1.363 . S
C643 C646 1.363 . S
N644 C646 1.356 . S
N644 H656 0.984 . S
N644 H657 0.985 . S
N645 C647 1.356 . S
N645 H650 0.984 . S
N645 H651 0.985 . S
C646 C640 1.379 . S
C646 C643 1.363 . S
C646 N644 1.356 . S
C647 C641 1.363 . S
C647 C642 1.379 . S
C647 N645 1.356 . S
N648 C640 1.356 . S
N648 H654 0.984 . S
N648 H655 0.984 . S
N649 C642 1.356 . S
N649 H652 0.984 . S
N649 H653 0.985 . S
H650 N645 0.984 . S
H651 N645 0.985 . S
H652 N649 0.984 . S
H653 N649 0.985 . S
H654 N648 0.984 . S
H655 N648 0.984 . S
H656 N644 0.984 . S
H657 N644 0.985 . S
C658 C659 1.363 . S
C658 C664 1.379 . S
C658 N666 1.356 . S
C659 C658 1.363 . S
C659 C665 1.363 . S
C660 C661 1.363 . S
C660 C665 1.379 . S
C660 N667 1.356 . S
C661 C660 1.363 . S
C661 C664 1.363 . S
N662 C664 1.356 . S
N662 H674 0.984 . S
N662 H675 0.985 . S
N663 C665 1.356 . S
N663 H668 0.984 . S
N663 H669 0.985 . S
C664 C658 1.379 . S
C664 C661 1.363 . S
C664 N662 1.356 . S
C665 C659 1.363 . S
C665 C660 1.379 . S
C665 N663 1.356 . S
N666 C658 1.356 . S
N666 H672 0.984 . S
N666 H673 0.984 . S
N667 C660 1.356 . S
N667 H670 0.984 . S
N667 H671 0.985 . S
H668 N663 0.984 . S
H669 N663 0.985 . S
H670 N667 0.984 . S
H671 N667 0.985 . S
H672 N666 0.984 . S
H673 N666 0.984 . S
H674 N662 0.984 . S
H675 N662 0.985 . S
C676 C677 1.363 . S
C676 C682 1.379 . S
C676 N684 1.356 . S
C677 C676 1.363 . S
C677 C683 1.363 . S
C678 C679 1.363 . S
C678 C683 1.379 . S
C678 N685 1.356 . S
C679 C678 1.363 . S
C679 C682 1.363 . S
N680 C682 1.356 . S
N680 H692 0.984 . S
N680 H693 0.985 . S
N681 C683 1.356 . S
N681 H686 0.984 . S
N681 H687 0.985 . S
C682 C676 1.379 . S
C682 C679 1.363 . S
C682 N680 1.356 . S
C683 C677 1.363 . S
C683 C678 1.379 . S
C683 N681 1.356 . S
N684 C676 1.356 . S
N684 H690 0.984 . S
N684 H691 0.984 . S
N685 C678 1.356 . S
N685 H688 0.984 . S
N685 H689 0.985 . S
H686 N681 0.984 . S
H687 N681 0.985 . S
H688 N685 0.984 . S
H689 N685 0.985 . S
H690 N684 0.984 . S
H691 N684 0.984 . S
H692 N680 0.984 . S
H693 N680 0.985 . S
C694 C695 1.363 . S
C694 C700 1.379 . S
C694 N702 1.356 . S
C695 C694 1.363 . S
C695 C701 1.363 . S
C696 C697 1.363 . S
C696 C701 1.379 . S
C696 N703 1.356 . S
C697 C696 1.363 . S
C697 C700 1.363 . S
N698 C700 1.356 . S
N698 H710 0.984 . S
N698 H711 0.985 . S
N699 C701 1.356 . S
N699 H704 0.984 . S
N699 H705 0.985 . S
C700 C694 1.379 . S
C700 C697 1.363 . S
C700 N698 1.356 . S
C701 C695 1.363 . S
C701 C696 1.379 . S
C701 N699 1.356 . S
N702 C694 1.356 . S
N702 H708 0.984 . S
N702 H709 0.984 . S
N703 C696 1.356 . S
N703 H706 0.984 . S
N703 H707 0.985 . S
H704 N699 0.984 . S
H705 N699 0.985 . S
H706 N703 0.984 . S
H707 N703 0.985 . S
H708 N702 0.984 . S
H709 N702 0.984 . S
H710 N698 0.984 . S
H711 N698 0.985 . S
C712 C713 1.363 . S
C712 C718 1.379 . S
C712 N720 1.356 . S
C713 C712 1.363 . S
C713 C719 1.363 . S
C714 C715 1.363 . S
C714 C719 1.379 . S
C714 N721 1.356 . S
C715 C714 1.363 . S
C715 C718 1.363 . S
N716 C718 1.356 . S
N716 H728 0.984 . S
N716 H729 0.985 . S
N717 C719 1.356 . S
N717 H722 0.984 . S
N717 H723 0.985 . S
C718 C712 1.379 . S
C718 C715 1.363 . S
C718 N716 1.356 . S
C719 C713 1.363 . S
C719 C714 1.379 . S
C719 N717 1.356 . S
N720 C712 1.356 . S
N720 H726 0.984 . S
N720 H727 0.984 . S
N721 C714 1.356 . S
N721 H724 0.984 . S
N721 H725 0.985 . S
H722 N717 0.984 . S
H723 N717 0.985 . S
H724 N721 0.984 . S
H725 N721 0.985 . S
H726 N720 0.984 . S
H727 N720 0.984 . S
H728 N716 0.984 . S
H729 N716 0.985 . S
C730 C731 1.363 . S
C730 C736 1.379 . S
C730 N738 1.356 . S
C731 C730 1.363 . S
C731 C737 1.363 . S
C732 C733 1.363 . S
C732 C737 1.379 . S
C732 N739 1.356 . S
C733 C732 1.363 . S
C733 C736 1.363 . S
N734 C736 1.356 . S
N734 H746 0.984 . S
N734 H747 0.985 . S
N735 C737 1.356 . S
N735 H740 0.984 . S
N735 H741 0.985 . S
C736 C730 1.379 . S
C736 C733 1.363 . S
C736 N734 1.356 . S
C737 C731 1.363 . S
C737 C732 1.379 . S
C737 N735 1.356 . S
N738 C730 1.356 . S
N738 H744 0.984 . S
N738 H745 0.984 . S
N739 C732 1.356 . S
N739 H742 0.984 . S
N739 H743 0.985 . S
H740 N735 0.984 . S
H741 N735 0.985 . S
H742 N739 0.984 . S
H743 N739 0.985 . S
H744 N738 0.984 . S
H745 N738 0.984 . S
H746 N734 0.984 . S
H747 N734 0.985 . S
C748 C749 1.363 . S
C748 C754 1.379 . S
C748 N756 1.356 . S
C749 C748 1.363 . S
C749 C755 1.363 . S
C750 C751 1.363 . S
C750 C755 1.379 . S
C750 N757 1.356 . S
C751 C750 1.363 . S
C751 C754 1.363 . S
N752 C754 1.356 . S
N752 H764 0.984 . S
N752 H765 0.985 . S
N753 C755 1.356 . S
N753 H758 0.984 . S
N753 H759 0.985 . S
C754 C748 1.379 . S
C754 C751 1.363 . S
C754 N752 1.356 . S
C755 C749 1.363 . S
C755 C750 1.379 . S
C755 N753 1.356 . S
N756 C748 1.356 . S
N756 H762 0.984 . S
N756 H763 0.984 . S
N757 C750 1.356 . S
N757 H760 0.984 . S
N757 H761 0.985 . S
H758 N753 0.984 . S
H759 N753 0.985 . S
H760 N757 0.984 . S
H761 N757 0.985 . S
H762 N756 0.984 . S
H763 N756 0.984 . S
H764 N752 0.984 . S
H765 N752 0.985 . S
C766 C767 1.363 . S
C766 C772 1.379 . S
C766 N774 1.356 . S
C767 C766 1.363 . S
C767 C773 1.363 . S
C768 C769 1.363 . S
C768 C773 1.379 . S
C768 N775 1.356 . S
C769 C768 1.363 . S
C769 C772 1.363 . S
N770 C772 1.356 . S
N770 H782 0.984 . S
N770 H783 0.985 . S
N771 C773 1.356 . S
N771 H776 0.984 . S
N771 H777 0.985 . S
C772 C766 1.379 . S
C772 C769 1.363 . S
C772 N770 1.356 . S
C773 C767 1.363 . S
C773 C768 1.379 . S
C773 N771 1.356 . S
N774 C766 1.356 . S
N774 H780 0.984 . S
N774 H781 0.984 . S
N775 C768 1.356 . S
N775 H778 0.984 . S
N775 H779 0.985 . S
H776 N771 0.984 . S
H777 N771 0.985 . S
H778 N775 0.984 . S
H779 N775 0.985 . S
H780 N774 0.984 . S
H781 N774 0.984 . S
H782 N770 0.984 . S
H783 N770 0.985 . S
C784 C785 1.363 . S
C784 C790 1.379 . S
C784 N792 1.356 . S
C785 C784 1.363 . S
C785 C791 1.363 . S
C786 C787 1.363 . S
C786 C791 1.379 . S
C786 N793 1.356 . S
C787 C786 1.363 . S
C787 C790 1.363 . S
N788 C790 1.356 . S
N788 H800 0.984 . S
N788 H801 0.985 . S
N789 C791 1.356 1_565 S
N789 H794 0.984 . S
N789 H795 0.985 . S
C790 C784 1.379 . S
C790 C787 1.363 . S
C790 N788 1.356 . S
C791 C785 1.363 . S
C791 C786 1.379 . S
C791 N789 1.356 1_545 S
N792 C784 1.356 . S
N792 H798 0.984 . S
N792 H799 0.984 . S
N793 C786 1.356 . S
N793 H796 0.984 . S
N793 H797 0.985 . S
H794 N789 0.984 . S
H795 N789 0.985 . S
H796 N793 0.984 . S
H797 N793 0.985 . S
H798 N792 0.984 . S
H799 N792 0.984 . S
H800 N788 0.984 . S
H801 N788 0.985 . S
C802 C803 1.363 . S
C802 C808 1.379 . S
C802 N810 1.356 . S
C803 C802 1.363 . S
C803 C809 1.363 . S
C804 C805 1.363 . S
C804 C809 1.379 . S
C804 N811 1.356 . S
C805 C804 1.363 . S
C805 C808 1.363 . S
N806 C808 1.356 . S
N806 H818 0.984 . S
N806 H819 0.985 . S
N807 C809 1.356 . S
N807 H812 0.984 . S
N807 H813 0.985 . S
C808 C802 1.379 . S
C808 C805 1.363 . S
C808 N806 1.356 . S
C809 C803 1.363 . S
C809 C804 1.379 . S
C809 N807 1.356 . S
N810 C802 1.356 . S
N810 H816 0.984 . S
N810 H817 0.984 . S
N811 C804 1.356 . S
N811 H814 0.984 . S
N811 H815 0.985 . S
H812 N807 0.984 . S
H813 N807 0.985 . S
H814 N811 0.984 . S
H815 N811 0.985 . S
H816 N810 0.984 . S
H817 N810 0.984 . S
H818 N806 0.984 . S
H819 N806 0.985 . S
C820 C821 1.363 . S
C820 C826 1.379 . S
C820 N828 1.356 . S
C821 C820 1.363 . S
C821 C827 1.363 . S
C822 C823 1.363 . S
C822 C827 1.379 . S
C822 N829 1.356 . S
C823 C822 1.363 . S
C823 C826 1.363 . S
N824 C826 1.356 . S
N824 H836 0.984 . S
N824 H837 0.985 . S
N825 C827 1.356 . S
N825 H830 0.984 . S
N825 H831 0.985 . S
C826 C820 1.379 . S
C826 C823 1.363 . S
C826 N824 1.356 . S
C827 C821 1.363 . S
C827 C822 1.379 . S
C827 N825 1.356 . S
N828 C820 1.356 . S
N828 H834 0.984 . S
N828 H835 0.984 . S
N829 C822 1.356 . S
N829 H832 0.984 . S
N829 H833 0.985 . S
H830 N825 0.984 . S
H831 N825 0.985 . S
H832 N829 0.984 . S
H833 N829 0.985 . S
H834 N828 0.984 . S
H835 N828 0.984 . S
H836 N824 0.984 . S
H837 N824 0.985 . S
C838 C839 1.363 . S
C838 C844 1.379 . S
C838 N846 1.356 . S
C839 C838 1.363 . S
C839 C845 1.363 . S
C840 C841 1.363 . S
C840 C845 1.379 . S
C840 N847 1.356 . S
C841 C840 1.363 . S
C841 C844 1.363 . S
N842 C844 1.356 . S
N842 H854 0.984 . S
N842 H855 0.985 . S
N843 C845 1.356 . S
N843 H848 0.984 . S
N843 H849 0.985 . S
C844 C838 1.379 . S
C844 C841 1.363 . S
C844 N842 1.356 . S
C845 C839 1.363 . S
C845 C840 1.379 . S
C845 N843 1.356 . S
N846 C838 1.356 . S
N846 H852 0.984 . S
N846 H853 0.984 . S
N847 C840 1.356 . S
N847 H850 0.984 . S
N847 H851 0.985 . S
H848 N843 0.984 . S
H849 N843 0.985 . S
H850 N847 0.984 . S
H851 N847 0.985 . S
H852 N846 0.984 . S
H853 N846 0.984 . S
H854 N842 0.984 . S
H855 N842 0.985 . S
C856 C857 1.363 . S
C856 C862 1.379 . S
C856 N864 1.356 . S
C857 C856 1.363 . S
C857 C863 1.363 . S
C858 C859 1.363 . S
C858 C863 1.379 . S
C858 N865 1.356 . S
C859 C858 1.363 . S
C859 C862 1.363 . S
N860 C862 1.356 . S
N860 H872 0.984 . S
N860 H873 0.985 . S
N861 C863 1.356 . S
N861 H866 0.984 . S
N861 H867 0.985 . S
C862 C856 1.379 . S
C862 C859 1.363 . S
C862 N860 1.356 . S
C863 C857 1.363 . S
C863 C858 1.379 . S
C863 N861 1.356 . S
N864 C856 1.356 . S
N864 H870 0.984 . S
N864 H871 0.984 . S
N865 C858 1.356 . S
N865 H868 0.984 . S
N865 H869 0.985 . S
H866 N861 0.984 . S
H867 N861 0.985 . S
H868 N865 0.984 . S
H869 N865 0.985 . S
H870 N864 0.984 . S
H871 N864 0.984 . S
H872 N860 0.984 . S
H873 N860 0.985 . S
C874 C875 1.363 . S
C874 C880 1.379 . S
C874 N882 1.356 . S
C875 C874 1.363 . S
C875 C881 1.363 . S
C876 C877 1.363 . S
C876 C881 1.379 . S
C876 N883 1.356 . S
C877 C876 1.363 . S
C877 C880 1.363 . S
N878 C880 1.356 . S
N878 H890 0.984 . S
N878 H891 0.985 . S
N879 C881 1.356 . S
N879 H884 0.984 . S
N879 H885 0.985 . S
C880 C874 1.379 . S
C880 C877 1.363 . S
C880 N878 1.356 . S
C881 C875 1.363 . S
C881 C876 1.379 . S
C881 N879 1.356 . S
N882 C874 1.356 . S
N882 H888 0.984 . S
N882 H889 0.984 . S
N883 C876 1.356 . S
N883 H886 0.984 . S
N883 H887 0.985 . S
H884 N879 0.984 . S
H885 N879 0.985 . S
H886 N883 0.984 . S
H887 N883 0.985 . S
H888 N882 0.984 . S
H889 N882 0.984 . S
H890 N878 0.984 . S
H891 N878 0.985 . S
C892 C893 1.363 . S
C892 C898 1.379 . S
C892 N900 1.356 . S
C893 C892 1.363 . S
C893 C899 1.363 . S
C894 C895 1.363 . S
C894 C899 1.379 . S
C894 N901 1.356 . S
C895 C894 1.363 . S
C895 C898 1.363 . S
N896 C898 1.356 . S
N896 H908 0.984 . S
N896 H909 0.985 . S
N897 C899 1.356 . S
N897 H902 0.984 . S
N897 H903 0.985 . S
C898 C892 1.379 . S
C898 C895 1.363 . S
C898 N896 1.356 . S
C899 C893 1.363 . S
C899 C894 1.379 . S
C899 N897 1.356 . S
N900 C892 1.356 . S
N900 H906 0.984 . S
N900 H907 0.984 . S
N901 C894 1.356 . S
N901 H904 0.984 . S
N901 H905 0.985 . S
H902 N897 0.984 . S
H903 N897 0.985 . S
H904 N901 0.984 . S
H905 N901 0.985 . S
H906 N900 0.984 . S
H907 N900 0.984 . S
H908 N896 0.984 . S
H909 N896 0.985 . S
C910 C911 1.363 . S
C910 C916 1.379 . S
C910 N918 1.356 . S
C911 C910 1.363 . S
C911 C917 1.363 . S
C912 C913 1.363 . S
C912 C917 1.379 . S
C912 N919 1.356 . S
C913 C912 1.363 . S
C913 C916 1.363 . S
N914 C916 1.356 . S
N914 H926 0.984 . S
N914 H927 0.985 . S
N915 C917 1.356 . S
N915 H920 0.984 . S
N915 H921 0.985 . S
C916 C910 1.379 . S
C916 C913 1.363 . S
C916 N914 1.356 . S
C917 C911 1.363 . S
C917 C912 1.379 . S
C917 N915 1.356 . S
N918 C910 1.356 . S
N918 H924 0.984 . S
N918 H925 0.984 . S
N919 C912 1.356 . S
N919 H922 0.984 . S
N919 H923 0.985 . S
H920 N915 0.984 . S
H921 N915 0.985 . S
H922 N919 0.984 . S
H923 N919 0.985 . S
H924 N918 0.984 . S
H925 N918 0.984 . S
H926 N914 0.984 . S
H927 N914 0.985 . S
C928 C929 1.363 . S
C928 C934 1.379 . S
C928 N936 1.356 . S
C929 C928 1.363 . S
C929 C935 1.363 . S
C930 C931 1.363 . S
C930 C935 1.379 . S
C930 N937 1.356 . S
C931 C930 1.363 . S
C931 C934 1.363 . S
N932 C934 1.356 . S
N932 H944 0.984 . S
N932 H945 0.985 . S
N933 C935 1.356 . S
N933 H938 0.984 . S
N933 H939 0.985 . S
C934 C928 1.379 . S
C934 C931 1.363 . S
C934 N932 1.356 . S
C935 C929 1.363 . S
C935 C930 1.379 . S
C935 N933 1.356 . S
N936 C928 1.356 . S
N936 H942 0.984 . S
N936 H943 0.984 . S
N937 C930 1.356 . S
N937 H940 0.984 . S
N937 H941 0.985 . S
H938 N933 0.984 . S
H939 N933 0.985 . S
H940 N937 0.984 . S
H941 N937 0.985 . S
H942 N936 0.984 . S
H943 N936 0.984 . S
H944 N932 0.984 . S
H945 N932 0.985 . S
C946 C947 1.363 . S
C946 C952 1.379 . S
C946 N954 1.356 . S
C947 C946 1.363 . S
C947 C953 1.363 . S
C948 C949 1.363 . S
C948 C953 1.379 . S
C948 N955 1.356 . S
C949 C948 1.363 . S
C949 C952 1.363 . S
N950 C952 1.356 . S
N950 H962 0.984 . S
N950 H963 0.985 . S
N951 C953 1.356 . S
N951 H956 0.984 . S
N951 H957 0.985 . S
C952 C946 1.379 . S
C952 C949 1.363 . S
C952 N950 1.356 . S
C953 C947 1.363 . S
C953 C948 1.379 . S
C953 N951 1.356 . S
N954 C946 1.356 . S
N954 H960 0.984 . S
N954 H961 0.984 . S
N955 C948 1.356 . S
N955 H958 0.984 . S
N955 H959 0.985 . S
H956 N951 0.984 . S
H957 N951 0.985 . S
H958 N955 0.984 . S
H959 N955 0.985 . S
H960 N954 0.984 . S
H961 N954 0.984 . S
H962 N950 0.984 . S
H963 N950 0.985 . S
C964 C965 1.363 . S
C964 C970 1.379 . S
C964 N972 1.356 . S
C965 C964 1.363 . S
C965 C971 1.363 . S
C966 C967 1.363 . S
C966 C971 1.379 . S
C966 N973 1.356 . S
C967 C966 1.363 . S
C967 C970 1.363 . S
N968 C970 1.356 . S
N968 H980 0.984 . S
N968 H981 0.985 . S
N969 C971 1.356 . S
N969 H974 0.984 . S
N969 H975 0.985 . S
C970 C964 1.379 . S
C970 C967 1.363 . S
C970 N968 1.356 . S
C971 C965 1.363 . S
C971 C966 1.379 . S
C971 N969 1.356 . S
N972 C964 1.356 . S
N972 H978 0.984 . S
N972 H979 0.984 . S
N973 C966 1.356 . S
N973 H976 0.984 . S
N973 H977 0.985 . S
H974 N969 0.984 . S
H975 N969 0.985 . S
H976 N973 0.984 . S
H977 N973 0.985 . S
H978 N972 0.984 . S
H979 N972 0.984 . S
H980 N968 0.984 . S
H981 N968 0.985 . S
C982 C983 1.363 . S
C982 C988 1.379 . S
C982 N990 1.356 . S
C983 C982 1.363 . S
C983 C989 1.363 . S
C984 C985 1.363 . S
C984 C989 1.379 . S
C984 N991 1.356 . S
C985 C984 1.363 . S
C985 C988 1.363 . S
N986 C988 1.356 . S
N986 H998 0.984 . S
N986 H999 0.985 . S
N987 C989 1.356 . S
N987 H992 0.984 . S
N987 H993 0.985 . S
C988 C982 1.379 . S
C988 C985 1.363 . S
C988 N986 1.356 . S
C989 C983 1.363 . S
C989 C984 1.379 . S
C989 N987 1.356 . S
N990 C982 1.356 . S
N990 H996 0.984 . S
N990 H997 0.984 . S
N991 C984 1.356 . S
N991 H994 0.984 . S
N991 H995 0.985 . S
H992 N987 0.984 . S
H993 N987 0.985 . S
H994 N991 0.984 . S
H995 N991 0.985 . S
H996 N990 0.984 . S
H997 N990 0.984 . S
H998 N986 0.984 . S
H999 N986 0.985 . S
C569 C31 1.537 . S
C571 C523 1.553 . S
C589 C487 1.553 . S
C587 C61 1.537 . S
C607 C510 1.549 . S
C605 C151 1.491 . S
C625 C498 1.549 . S
C623 C181 1.563 . S
C643 C567 1.553 . S
C641 C271 1.537 . S
C661 C531 1.553 . S
C659 C301 1.537 . S
C677 C391 1.491 . S
C679 C554 1.550 . S
C697 C542 1.550 . S
C695 C421 1.563 . S
C713 C20 1.535 . S
C715 C564 1.578 . S
C733 C534 1.578 . S
C731 C91 1.535 . S
C749 C121 1.477 . S
C751 C553 1.608 . S
C767 C211 1.606 . S
C769 C539 1.608 . S
C787 C520 1.578 . S
C785 C260 1.534 . S
C803 C331 1.534 . S
C805 C490 1.578 . S
C823 C509 1.608 . S
C821 C361 1.477 . S
C841 C495 1.608 . S
C839 C451 1.606 . S
C859 C545 1.589 . S
C857 C1 1.469 . S
C877 C561 1.589 . S
C875 C80 1.469 . S
C893 C140 1.509 . S
C895 C532 1.568 . S
C913 C556 1.568 . S
C911 C200 1.505 . S
C931 C501 1.589 . S
C929 C241 1.469 . S
C947 C320 1.469 . S
C949 C517 1.589 . S
C965 C380 1.509 . S
C967 C488 1.568 . S
C983 C440 1.505 . S
C985 C512 1.568 . S
