# Generated by pormake.
# Topology sqc, (4,8)-cn, num edge types: 1
# Building blocks:
#     Node 0, Type 0, BuildingBlock: NAWXER_clean_linker_0, # of connection points: 4
#     Node 1, Type 0, BuildingBlock: NAWXER_clean_linker_0, # of connection points: 4
#     Node 2, Type 0, BuildingBlock: NAWXER_clean_linker_0, # of connection points: 4
#     Node 3, Type 0, BuildingBlock: NAWXER_clean_linker_0, # of connection points: 4
#     Node 4, Type 0, BuildingBlock: NAWXER_clean_linker_0, # of connection points: 4
#     Node 5, Type 0, BuildingBlock: NAWXER_clean_linker_0, # of connection points: 4
#     Node 6, Type 0, BuildingBlock: NAWXER_clean_linker_0, # of connection points: 4
#     Node 7, Type 0, BuildingBlock: NAWXER_clean_linker_0, # of connection points: 4
#     Node 8, Type 1, BuildingBlock: VETTIZ_charged_sbu_0, # of connection points: 8
#     Node 9, Type 1, BuildingBlock: VETTIZ_charged_sbu_0, # of connection points: 8
#     Node 10, Type 1, BuildingBlock: VETTIZ_charged_sbu_0, # of connection points: 8
#     Node 11, Type 1, BuildingBlock: VETTIZ_charged_sbu_0, # of connection points: 8
#     Edge 12, Type (0, 1), BuildingBlock: MIFKUJ_clean_linker_0, # of connection points: 2
#     Edge 13, Type (0, 1), BuildingBlock: MIFKUJ_clean_linker_0, # of connection points: 2
#     Edge 14, Type (0, 1), BuildingBlock: MIFKUJ_clean_linker_0, # of connection points: 2
#     Edge 15, Type (0, 1), BuildingBlock: MIFKUJ_clean_linker_0, # of connection points: 2
#     Edge 16, Type (0, 1), BuildingBlock: MIFKUJ_clean_linker_0, # of connection points: 2
#     Edge 17, Type (0, 1), BuildingBlock: MIFKUJ_clean_linker_0, # of connection points: 2
#     Edge 18, Type (0, 1), BuildingBlock: MIFKUJ_clean_linker_0, # of connection points: 2
#     Edge 19, Type (0, 1), BuildingBlock: MIFKUJ_clean_linker_0, # of connection points: 2
#     Edge 20, Type (0, 1), BuildingBlock: MIFKUJ_clean_linker_0, # of connection points: 2
#     Edge 21, Type (0, 1), BuildingBlock: MIFKUJ_clean_linker_0, # of connection points: 2
#     Edge 22, Type (0, 1), BuildingBlock: MIFKUJ_clean_linker_0, # of connection points: 2
#     Edge 23, Type (0, 1), BuildingBlock: MIFKUJ_clean_linker_0, # of connection points: 2
#     Edge 24, Type (0, 1), BuildingBlock: MIFKUJ_clean_linker_0, # of connection points: 2
#     Edge 25, Type (0, 1), BuildingBlock: MIFKUJ_clean_linker_0, # of connection points: 2
#     Edge 26, Type (0, 1), BuildingBlock: MIFKUJ_clean_linker_0, # of connection points: 2
#     Edge 27, Type (0, 1), BuildingBlock: MIFKUJ_clean_linker_0, # of connection points: 2
#     Edge 28, Type (0, 1), BuildingBlock: MIFKUJ_clean_linker_0, # of connection points: 2
#     Edge 29, Type (0, 1), BuildingBlock: MIFKUJ_clean_linker_0, # of connection points: 2
#     Edge 30, Type (0, 1), BuildingBlock: MIFKUJ_clean_linker_0, # of connection points: 2
#     Edge 31, Type (0, 1), BuildingBlock: MIFKUJ_clean_linker_0, # of connection points: 2
#     Edge 32, Type (0, 1), BuildingBlock: MIFKUJ_clean_linker_0, # of connection points: 2
#     Edge 33, Type (0, 1), BuildingBlock: MIFKUJ_clean_linker_0, # of connection points: 2
#     Edge 34, Type (0, 1), BuildingBlock: MIFKUJ_clean_linker_0, # of connection points: 2
#     Edge 35, Type (0, 1), BuildingBlock: MIFKUJ_clean_linker_0, # of connection points: 2
#     Edge 36, Type (0, 1), BuildingBlock: MIFKUJ_clean_linker_0, # of connection points: 2
#     Edge 37, Type (0, 1), BuildingBlock: MIFKUJ_clean_linker_0, # of connection points: 2
#     Edge 38, Type (0, 1), BuildingBlock: MIFKUJ_clean_linker_0, # of connection points: 2
#     Edge 39, Type (0, 1), BuildingBlock: MIFKUJ_clean_linker_0, # of connection points: 2
#     Edge 40, Type (0, 1), BuildingBlock: MIFKUJ_clean_linker_0, # of connection points: 2
#     Edge 41, Type (0, 1), BuildingBlock: MIFKUJ_clean_linker_0, # of connection points: 2
#     Edge 42, Type (0, 1), BuildingBlock: MIFKUJ_clean_linker_0, # of connection points: 2
#     Edge 43, Type (0, 1), BuildingBlock: MIFKUJ_clean_linker_0, # of connection points: 2
# Relax obj value: 0.124
# Max RMSD: 0.266
# Mean RMSD: 0.155
data_MOF--net-sqc--node1-VETTIZ_charged_sbu_0--node2-NAWXER_clean_linker_0--edge1-MIFKUJ_clean_linker_0
_symmetry_space_group_name_H-M    P1
_symmetry_Int_Tables_number       1
_symmetry_cell_setting            triclinic
loop_
_symmetry_equiv_pos_as_xyz
'x, y, z'
_cell_length_a     34.81268
_cell_length_b     34.793521
_cell_length_c     103.42304
_cell_angle_alpha  89.802912
_cell_angle_beta   89.76272
_cell_angle_gamma 90.0176
loop_
_atom_site_label
_atom_site_type_symbol
_atom_site_fract_x
_atom_site_fract_y
_atom_site_fract_z
_atom_type_partial_charge
C0 C 0.11809 0.95816 0.49965 0.0
C1 C 0.1239 0.91866 0.49751 0.0
C2 C 0.08534 0.97119 0.50622 0.0
C3 C 0.0576 0.94502 0.51077 0.0
C4 C 0.09615 0.89252 0.50211 0.0
C5 C 0.06317 0.90561 0.50855 0.0
C6 C 0.02198 0.95858 0.51728 0.0
C7 C 0.11712 0.98844 0.54566 0.0
C8 C 0.1205 0.0282 0.5478 0.0
C9 C 0.08586 0.97377 0.53877 0.0
C10 C 0.05749 0.99867 0.53399 0.0
C11 C 0.09235 0.05298 0.5428 0.0
C12 C 0.06103 0.03832 0.53606 0.0
C13 C 0.02218 0.98387 0.52792 0.0
C14 C 0.85728 0.9829 0.54611 0.0
C15 C 0.85589 0.0204 0.55116 0.0
C16 C 0.88846 0.97099 0.5385 0.0
C17 C 0.91857 0.99657 0.53554 0.0
C18 C 0.88601 0.04589 0.54819 0.0
C19 C 0.91694 0.0341 0.5405 0.0
C20 C 0.9535 0.98391 0.52836 0.0
C21 C 0.85748 0.96957 0.49999 0.0
C22 C 0.85319 0.9328 0.49463 0.0
C23 C 0.88963 0.97843 0.50746 0.0
C24 C 0.91766 0.95035 0.51005 0.0
C25 C 0.88142 0.90486 0.49704 0.0
C26 C 0.91332 0.91355 0.50468 0.0
C27 C 0.95313 0.96004 0.51728 0.0
H28 H 0.13895 0.97903 0.49627 0.0
H29 H 0.0814 1.0018 0.50755 0.0
H30 H 0.09951 0.86198 0.50048 0.0
H31 H 0.04202 0.8849 0.51184 0.0
H32 H 0.1385 0.96873 0.54938 0.0
H33 H 0.08328 0.94299 0.53751 0.0
H34 H 0.09392 0.08368 0.54444 0.0
H35 H 0.03923 0.05797 0.53257 0.0
H36 H 0.83479 0.96239 0.54837 0.0
H37 H 0.88942 0.9415 0.5352 0.0
H38 H 0.88564 0.0751 0.55178 0.0
H39 H 0.93982 0.05439 0.53848 0.0
H40 H 0.83654 0.99188 0.49807 0.0
H41 H 0.89294 0.00756 0.51093 0.0
H42 H 0.87878 0.87626 0.49303 0.0
H43 H 0.93475 0.89154 0.50635 0.0
N44 N 0.98741 0.94783 0.51234 0.0
N45 N 0.98807 0.99521 0.53305 0.0
C46 C 0.27275 0.61793 0.7458 0.0
C47 C 0.26275 0.61692 0.73261 0.0
C48 C 0.26451 0.6502 0.75336 0.0
C49 C 0.24496 0.68184 0.74805 0.0
C50 C 0.2433 0.64874 0.72733 0.0
C51 C 0.23452 0.68068 0.73495 0.0
C52 C 0.23845 0.71769 0.75556 0.0
C53 C 0.17855 0.62447 0.77827 0.0
C54 C 0.19341 0.61856 0.79077 0.0
C55 C 0.18895 0.65694 0.77104 0.0
C56 C 0.21478 0.68401 0.77608 0.0
C57 C 0.21871 0.64613 0.79586 0.0
C58 C 0.22909 0.67857 0.78862 0.0
C59 C 0.22602 0.71871 0.76859 0.0
C60 C 0.19767 0.88803 0.77813 0.0
C61 C 0.20595 0.88811 0.79142 0.0
C62 C 0.20622 0.8558 0.77053 0.0
C63 C 0.22441 0.82348 0.77599 0.0
C64 C 0.2239 0.85584 0.79688 0.0
C65 C 0.23314 0.82401 0.78926 0.0
C66 C 0.23109 0.78755 0.76849 0.0
C67 C 0.29524 0.87751 0.74455 0.0
C68 C 0.2852 0.87892 0.73139 0.0
C69 C 0.281 0.84823 0.75259 0.0
C70 C 0.2557 0.8204 0.74768 0.0
C71 C 0.25968 0.85129 0.72655 0.0
C72 C 0.24511 0.82244 0.7346 0.0
C73 C 0.24364 0.78642 0.75543 0.0
H74 H 0.28735 0.59394 0.7503 0.0
H75 H 0.2743 0.65063 0.76328 0.0
H76 H 0.23579 0.6496 0.71719 0.0
H77 H 0.22 0.70489 0.73053 0.0
H78 H 0.15838 0.60429 0.77415 0.0
H79 H 0.17657 0.66103 0.76155 0.0
H80 H 0.23098 0.64239 0.80539 0.0
H81 H 0.24881 0.6992 0.79276 0.0
H82 H 0.18324 0.91231 0.77372 0.0
H83 H 0.19748 0.85585 0.7605 0.0
H84 H 0.23064 0.85516 0.8071 0.0
H85 H 0.24675 0.79947 0.79381 0.0
H86 H 0.31521 0.89822 0.7485 0.0
H87 H 0.29076 0.84669 0.76251 0.0
H88 H 0.2511 0.85188 0.7165 0.0
H89 H 0.22594 0.80119 0.73052 0.0
N90 N 0.24653 0.75159 0.74958 0.0
N91 N 0.22307 0.75351 0.77449 0.0
C92 C 0.37449 0.00438 0.99354 0.0
C93 C 0.37104 0.03889 0.98655 0.0
C94 C 0.40623 0.998 1.00154 0.0
C95 C 0.43466 0.02645 1.00299 0.0
C96 C 0.39937 0.0673 0.988 0.0
C97 C 0.43077 0.06115 0.99613 0.0
C98 C 0.47038 0.01912 0.01046 0.0
C99 C 0.37652 0.00692 0.04058 0.0
C100 C 0.37128 0.96895 0.04494 0.0
C101 C 0.40861 0.01677 0.03305 0.0
C102 C 0.43629 0.98893 0.02987 0.0
C103 C 0.39893 0.94112 0.0417 0.0
C104 C 0.43136 0.95114 0.03438 0.0
C105 C 0.47131 0.99946 0.02244 0.0
C106 C 0.63818 0.01052 0.03846 0.0
C107 C 0.64129 0.97429 0.04441 0.0
C108 C 0.60555 0.02001 0.03123 0.0
C109 C 0.57596 0.99296 0.02946 0.0
C110 C 0.61149 0.94754 0.04282 0.0
C111 C 0.57927 0.95674 0.03541 0.0
C112 C 0.54011 1.00257 0.02235 0.0
C113 C 0.63533 0.02501 0.99289 0.0
C114 C 0.63709 0.06346 0.98858 0.0
C115 C 0.60394 0.01181 1.0002 0.0
C116 C 0.57375 0.03684 1.00344 0.0
C117 C 0.60674 0.08833 0.99189 0.0
C118 C 0.57539 0.07509 0.99912 0.0
C119 C 0.53912 0.02324 0.01053 0.0
H120 H 0.35336 0.98177 0.99245 0.0
H121 H 0.40908 0.97028 0.00621 0.0
H122 H 0.39731 0.0943 0.98281 0.0
H123 H 0.45234 0.08346 0.99693 0.0
H124 H 0.3556 0.0289 0.04291 0.0
H125 H 0.41211 0.04627 0.02987 0.0
H126 H 0.39578 0.91172 0.04502 0.0
H127 H 0.45251 0.92928 0.03215 0.0
H128 H 0.66051 0.03186 0.03969 0.0
H129 H 0.60322 0.04875 0.02729 0.0
H130 H 0.61325 0.91931 0.04723 0.0
H131 H 0.5568 0.93545 0.03435 0.0
H132 H 0.6578 0.00482 0.99037 0.0
H133 H 0.60294 0.9819 1.00313 0.0
H134 H 0.60726 0.11824 0.98897 0.0
H135 H 0.55237 0.0949 1.00143 0.0
N136 N 0.50432 0.03055 0.00511 0.0
N137 N 0.50608 0.99161 0.02779 0.0
C138 C 0.28261 0.13994 0.23257 0.0
C139 C 0.24581 0.13699 0.22712 0.0
C140 C 0.29241 0.17167 0.24019 0.0
C141 C 0.26518 0.20052 0.24288 0.0
C142 C 0.21895 0.16626 0.22954 0.0
C143 C 0.22851 0.19758 0.23734 0.0
C144 C 0.27485 0.23489 0.25081 0.0
C145 C 0.29461 0.13315 0.27691 0.0
C146 C 0.33288 0.12878 0.28097 0.0
C147 C 0.28263 0.16707 0.27086 0.0
C148 C 0.30879 0.19712 0.26859 0.0
C149 C 0.35887 0.15914 0.27882 0.0
C150 C 0.34687 0.19302 0.27275 0.0
C151 C 0.29635 0.23349 0.2624 0.0
C152 C 0.28066 0.39484 0.28333 0.0
C153 C 0.31842 0.40132 0.28764 0.0
C154 C 0.2719 0.36263 0.27579 0.0
C155 C 0.30078 0.3364 0.27223 0.0
C156 C 0.34704 0.37448 0.28429 0.0
C157 C 0.33827 0.34238 0.27674 0.0
C158 C 0.29206 0.30196 0.26426 0.0
C159 C 0.26549 0.40487 0.23906 0.0
C160 C 0.22736 0.40632 0.2346 0.0
C161 C 0.27972 0.37162 0.24501 0.0
C162 C 0.2559 0.33938 0.24682 0.0
C163 C 0.20392 0.37369 0.23624 0.0
C164 C 0.21805 0.34068 0.24225 0.0
C165 C 0.27039 0.30333 0.25273 0.0
H166 H 0.30409 0.11812 0.23069 0.0
H167 H 0.32144 0.17379 0.24383 0.0
H168 H 0.1903 0.16469 0.22552 0.0
H169 H 0.20703 0.21951 0.2391 0.0
H170 H 0.27366 0.11069 0.27866 0.0
H171 H 0.25279 0.16998 0.26809 0.0
H172 H 0.38859 0.15663 0.28176 0.0
H173 H 0.36748 0.21594 0.2712 0.0
H174 H 0.25788 0.41485 0.28567 0.0
H175 H 0.24248 0.3582 0.27278 0.0
H176 H 0.37624 0.37797 0.28766 0.0
H177 H 0.36095 0.3223 0.27432 0.0
H178 H 0.28434 0.42945 0.23799 0.0
H179 H 0.30942 0.37102 0.24807 0.0
H180 H 0.17474 0.37333 0.23265 0.0
H181 H 0.19928 0.31601 0.24334 0.0
N182 N 0.2626 0.26979 0.24654 0.0
N183 N 0.30437 0.26706 0.26857 0.0
C184 C 0.7635 0.12683 0.24071 0.0
C185 C 0.74602 0.12289 0.22852 0.0
C186 C 0.757 0.15951 0.24824 0.0
C187 C 0.73281 0.18889 0.24377 0.0
C188 C 0.72144 0.15225 0.22417 0.0
C189 C 0.71518 0.18502 0.23167 0.0
C190 C 0.72826 0.22509 0.25109 0.0
C191 C 0.67313 0.13152 0.27537 0.0
C192 C 0.68887 0.12716 0.28781 0.0
C193 C 0.68235 0.16355 0.26768 0.0
C194 C 0.70792 0.19178 0.27218 0.0
C195 C 0.7142 0.15566 0.29231 0.0
C196 C 0.72341 0.1876 0.28462 0.0
C197 C 0.7176 0.2265 0.26432 0.0
C198 C 0.68946 0.39612 0.2713 0.0
C199 C 0.70237 0.40121 0.28404 0.0
C200 C 0.6966 0.36185 0.26472 0.0
C201 C 0.71738 0.332 0.27064 0.0
C202 C 0.72298 0.37121 0.28999 0.0
C203 C 0.7302 0.33688 0.28338 0.0
C204 C 0.72371 0.29505 0.26381 0.0
C205 C 0.79743 0.37868 0.24125 0.0
C206 C 0.77924 0.39218 0.22994 0.0
C207 C 0.78291 0.34703 0.24808 0.0
C208 C 0.75036 0.32742 0.24365 0.0
C209 C 0.74635 0.37231 0.22561 0.0
C210 C 0.73251 0.33995 0.23227 0.0
C211 C 0.73575 0.29332 0.25077 0.0
H212 H 0.78326 0.10527 0.24427 0.0
H213 H 0.77176 0.16232 0.25739 0.0
H214 H 0.70713 0.15004 0.21493 0.0
H215 H 0.69661 0.2075 0.228 0.0
H216 H 0.65297 0.11061 0.27166 0.0
H217 H 0.66895 0.16651 0.2583 0.0
H218 H 0.72729 0.15317 0.30175 0.0
H219 H 0.74303 0.20897 0.28837 0.0
H220 H 0.67372 0.41864 0.26638 0.0
H221 H 0.68514 0.35848 0.25508 0.0
H222 H 0.73282 0.3739 0.29987 0.0
H223 H 0.74581 0.31411 0.28822 0.0
H224 H 0.82335 0.39206 0.24481 0.0
H225 H 0.79752 0.33743 0.25674 0.0
H226 H 0.73081 0.38188 0.21716 0.0
H227 H 0.70732 0.32519 0.22869 0.0
N228 N 0.73709 0.25852 0.24487 0.0
N229 N 0.71562 0.26156 0.27013 0.0
C230 C 0.72558 0.8956 0.74171 0.0
C231 C 0.73766 0.89674 0.72868 0.0
C232 C 0.73233 0.86319 0.74941 0.0
C233 C 0.75268 0.83154 0.74448 0.0
C234 C 0.75812 0.86504 0.72379 0.0
C235 C 0.76563 0.83303 0.73159 0.0
C236 C 0.75721 0.79522 0.75199 0.0
C237 C 0.81202 0.88045 0.78007 0.0
C238 C 0.79148 0.88408 0.79177 0.0
C239 C 0.80199 0.85223 0.77108 0.0
C240 C 0.77135 0.82714 0.77367 0.0
C241 C 0.75978 0.85984 0.79401 0.0
C242 C 0.75014 0.83141 0.78512 0.0
C243 C 0.76413 0.79343 0.76543 0.0
C244 C 0.806 0.63098 0.77632 0.0
C245 C 0.79089 0.62839 0.78895 0.0
C246 C 0.79507 0.66104 0.76805 0.0
C247 C 0.76866 0.68892 0.77224 0.0
C248 C 0.76325 0.65546 0.79287 0.0
C249 C 0.75249 0.68545 0.78464 0.0
C250 C 0.76215 0.72474 0.76475 0.0
C251 C 0.70899 0.63416 0.73916 0.0
C252 C 0.72063 0.63454 0.72613 0.0
C253 C 0.72112 0.66303 0.7476 0.0
C254 C 0.74584 0.69235 0.74323 0.0
C255 C 0.74581 0.66341 0.72182 0.0
C256 C 0.75831 0.69193 0.73028 0.0
C257 C 0.75458 0.72632 0.75134 0.0
H258 H 0.71025 0.9195 0.74596 0.0
H259 H 0.72032 0.86263 0.75907 0.0
H260 H 0.7673 0.8642 0.71378 0.0
H261 H 0.78091 0.80892 0.72741 0.0
H262 H 0.83687 0.89826 0.77808 0.0
H263 H 0.81917 0.84889 0.7624 0.0
H264 H 0.74277 0.86232 0.80276 0.0
H265 H 0.72645 0.81221 0.78731 0.0
H266 H 0.82762 0.61087 0.77302 0.0
H267 H 0.80874 0.66355 0.75866 0.0
H268 H 0.75042 0.65393 0.80241 0.0
H269 H 0.73219 0.70668 0.78813 0.0
H270 H 0.68917 0.61248 0.74268 0.0
H271 H 0.70969 0.66329 0.75735 0.0
H272 H 0.75551 0.66417 0.71186 0.0
H273 H 0.77709 0.71432 0.72661 0.0
N274 N 0.75266 0.76149 0.74556 0.0
N275 N 0.7663 0.7584 0.7712 0.0
C276 C 0.63485 0.50193 0.98321 0.0
C277 C 0.63658 0.46189 0.98152 0.0
C278 C 0.60324 0.51879 0.98938 0.0
C279 C 0.57267 0.49589 0.99383 0.0
C280 C 0.60619 0.43903 0.98615 0.0
C281 C 0.57432 0.45594 0.99211 0.0
C282 C 0.53786 0.51347 0.99953 0.0
C283 C 0.62836 0.53172 0.03076 0.0
C284 C 0.63304 0.57023 0.03458 0.0
C285 C 0.59899 0.52146 0.02221 0.0
C286 C 0.57411 0.54961 0.01723 0.0
C287 C 0.60903 0.59841 0.02916 0.0
C288 C 0.57983 0.58818 0.02065 0.0
C289 C 0.53888 0.53914 0.01007 0.0
C290 C 0.37643 0.54805 0.02752 0.0
C291 C 0.37703 0.58547 0.03264 0.0
C292 C 0.40573 0.53557 0.01924 0.0
C293 C 0.436 0.56038 0.01583 0.0
C294 C 0.40659 0.61063 0.02881 0.0
C295 C 0.43584 0.59814 0.02056 0.0
C296 C 0.47064 0.54577 0.00909 0.0
C297 C 0.37838 0.53747 0.97897 0.0
C298 C 0.37007 0.50009 0.97463 0.0
C299 C 0.41018 0.54433 0.98686 0.0
C300 C 0.43432 0.51398 0.99065 0.0
C301 C 0.39419 0.46974 0.97853 0.0
C302 C 0.4261 0.47668 0.98636 0.0
C303 C 0.46969 0.52135 0.99821 0.0
H304 H 0.65796 0.52017 0.97976 0.0
H305 H 0.60228 0.54974 0.99041 0.0
H306 H 0.60666 0.40814 0.98487 0.0
H307 H 0.55088 0.43781 0.99538 0.0
H308 H 0.64618 0.5093 0.03486 0.0
H309 H 0.59458 0.49136 0.02003 0.0
H310 H 0.61233 0.6284 0.03172 0.0
H311 H 0.56092 0.6104 0.01699 0.0
H312 H 0.35436 0.52778 0.0304 0.0
H313 H 0.40572 0.50594 0.01607 0.0
H314 H 0.40756 0.63982 0.0324 0.0
H315 H 0.45899 0.61774 0.01815 0.0
H316 H 0.36093 0.56165 0.97599 0.0
H317 H 0.41648 0.57359 0.9897 0.0
H318 H 0.3884 0.4405 0.97557 0.0
H319 H 0.44439 0.45282 0.98908 0.0
N320 N 0.50332 0.50575 0.99397 0.0
N321 N 0.5052 0.55396 0.01444 0.0
C322 C 0.88735 0.50869 0.54334 0.0
C323 C 0.88557 0.46829 0.54401 0.0
C324 C 0.91784 0.52699 0.53692 0.0
C325 C 0.94698 0.50512 0.53109 0.0
C326 C 0.91454 0.44663 0.53798 0.0
C327 C 0.94505 0.46487 0.53169 0.0
C328 C 0.98149 0.52328 0.5254 0.0
C329 C 0.88085 0.55736 0.50021 0.0
C330 C 0.87836 0.59684 0.49734 0.0
C331 C 0.91397 0.542 0.50592 0.0
C332 C 0.94496 0.56596 0.50926 0.0
C333 C 0.90969 0.62059 0.50038 0.0
C334 C 0.94251 0.60535 0.50627 0.0
C335 C 0.98086 0.55059 0.51521 0.0
C336 C 0.14435 0.54455 0.49696 0.0
C337 C 0.14934 0.58245 0.49247 0.0
C338 C 0.11256 0.53468 0.50457 0.0
C339 C 0.0851 0.56251 0.50798 0.0
C340 C 0.12188 0.61031 0.49595 0.0
C341 C 0.08998 0.60037 0.50354 0.0
C342 C 0.04979 0.55146 0.51518 0.0
C343 C 0.14457 0.53378 0.54433 0.0
C344 C 0.14798 0.49654 0.54956 0.0
C345 C 0.11348 0.54342 0.53638 0.0
C346 C 0.08539 0.51588 0.5333 0.0
C347 C 0.12002 0.46898 0.54638 0.0
C348 C 0.0891 0.47857 0.5384 0.0
C349 C 0.05012 0.52651 0.526 0.0
H350 H 0.8653 0.52612 0.54784 0.0
H351 H 0.91913 0.55809 0.53676 0.0
H352 H 0.91426 0.41553 0.53847 0.0
H353 H 0.96752 0.44749 0.52739 0.0
H354 H 0.85753 0.53816 0.49774 0.0
H355 H 0.91546 0.51127 0.50749 0.0
H356 H 0.90867 0.65111 0.49831 0.0
H357 H 0.96603 0.62452 0.50856 0.0
H358 H 0.16436 0.52213 0.49425 0.0
H359 H 0.10889 0.50496 0.50748 0.0
H360 H 0.12497 0.63986 0.49279 0.0
H361 H 0.06904 0.62228 0.50592 0.0
H362 H 0.16526 0.55586 0.54672 0.0
H363 H 0.11082 0.5728 0.53302 0.0
H364 H 0.12201 0.4399 0.55008 0.0
H365 H 0.0678 0.45679 0.53629 0.0
N366 N 0.01596 0.51286 0.53044 0.0
N367 N 0.01521 0.56318 0.51043 0.0
Fe368 Fe 1.00186 0.78899 0.16892 0.0
O369 O 0.00418 0.78891 0.14988 0.0
Fe370 Fe 0.95803 0.76405 0.13978 0.0
Fe371 Fe 0.04744 0.76495 0.13997 0.0
O372 O 1.00025 0.78866 0.14991 0.0
O373 O 1.00129 0.73936 0.13013 0.0
O374 O 0.00523 0.73951 0.13012 0.0
Fe375 Fe 0.00386 0.73767 0.11118 0.0
C376 C 0.07874 0.8228 0.1604 0.0
O377 O 0.04416 0.74807 0.17125 0.0
O378 O 0.04882 0.7183 0.15233 0.0
O379 O 0.95864 0.7 0.11385 0.0
O380 O 0.91953 0.73407 0.12778 0.0
O381 O 0.95569 0.71763 0.15205 0.0
O382 O 0.96103 0.74618 0.17122 0.0
O383 O 0.08711 0.73544 0.1282 0.0
O384 O 0.04941 0.70061 0.11412 0.0
C385 C 0.95058 0.71801 0.16422 0.0
O386 O 0.96215 0.77918 0.10855 0.0
O387 O 0.95705 0.81011 0.12733 0.0
O388 O 0.04628 0.82762 0.16643 0.0
O389 O 0.08579 0.7964 0.15174 0.0
C390 C 0.05295 0.71876 0.16454 0.0
C391 C 0.08214 0.70874 0.11952 0.0
C392 C 0.05609 0.80822 0.11522 0.0
O393 O 0.04923 0.81112 0.1273 0.0
O394 O 0.04539 0.77908 0.10876 0.0
C395 C 0.92553 0.70731 0.11917 0.0
O396 O 0.91834 0.79443 0.15136 0.0
O397 O 0.95608 0.82574 0.16644 0.0
C398 C 0.95105 0.80783 0.11523 0.0
C399 C 0.92403 0.82007 0.16034 0.0
Fe400 Fe 0.50357 0.76076 0.40486 0.0
O401 O 0.53031 0.73204 0.39086 0.0
Fe402 Fe 0.4791 0.8469 0.3905 0.0
Fe403 Fe 0.53251 0.67585 0.39105 0.0
O404 O 0.48031 0.79044 0.39036 0.0
O405 O 0.48063 0.79054 0.38906 0.0
O406 O 0.53079 0.73223 0.38958 0.0
Fe407 Fe 0.50734 0.76157 0.37489 0.0
C408 C 0.56348 0.70469 0.41656 0.0
O409 O 0.45819 0.72388 0.40438 0.0
O410 O 0.49062 0.66921 0.40544 0.0
O411 O 0.47904 0.79762 0.3616 0.0
O412 O 0.44456 0.84043 0.37432 0.0
O413 O 0.43865 0.83713 0.40474 0.0
O414 O 0.47048 0.79417 0.41788 0.0
O415 O 0.49077 0.66725 0.37738 0.0
O416 O 0.46157 0.7236 0.37362 0.0
C417 C 0.44273 0.81849 0.41556 0.0
O418 O 0.5533 0.79958 0.3745 0.0
O419 O 0.52287 0.8555 0.37749 0.0
O420 O 0.53379 0.72689 0.41852 0.0
O421 O 0.57038 0.68633 0.40588 0.0
C422 C 0.46015 0.68871 0.40744 0.0
C423 C 0.46299 0.68697 0.37289 0.0
C424 C 0.5644 0.69953 0.36449 0.0
O425 O 0.5701 0.68286 0.37561 0.0
O426 O 0.53873 0.72605 0.36217 0.0
C427 C 0.45332 0.82449 0.3633 0.0
O428 O 0.51855 0.85299 0.40557 0.0
O429 O 0.54902 0.79719 0.40551 0.0
C430 C 0.55137 0.83612 0.37339 0.0
C431 C 0.54748 0.83229 0.40853 0.0
Fe432 Fe 0.50216 0.25871 0.67149 0.0
O433 O 0.50244 0.25097 0.65298 0.0
Fe434 Fe 0.45085 0.25872 0.64192 0.0
Fe435 Fe 0.54607 0.25554 0.64047 0.0
O436 O 0.49719 0.26559 0.65296 0.0
O437 O 0.49383 0.24967 0.62942 0.0
O438 O 0.50031 0.26446 0.62925 0.0
Fe439 Fe 0.49509 0.25642 0.61079 0.0
C440 C 0.55294 0.32344 0.65993 0.0
O441 O 0.54975 0.22329 0.67088 0.0
O442 O 0.58729 0.23725 0.65351 0.0
O443 O 0.44396 0.22568 0.61152 0.0
O444 O 0.4086 0.24288 0.62917 0.0
O445 O 0.44833 0.20314 0.65029 0.0
O446 O 0.46571 0.21209 0.6714 0.0
O447 O 0.54498 0.19963 0.63282 0.0
O448 O 0.52841 0.20706 0.61153 0.0
C449 C 0.44968 0.19256 0.66231 0.0
O450 O 0.46239 0.3059 0.61197 0.0
O451 O 0.44831 0.31398 0.63349 0.0
O452 O 0.53847 0.30513 0.66968 0.0
O453 O 0.55187 0.31168 0.64805 0.0
C454 C 0.58115 0.22018 0.66438 0.0
C455 C 0.54483 0.18857 0.62087 0.0
C456 C 0.57934 0.28502 0.61522 0.0
O457 O 0.58546 0.26844 0.62615 0.0
O458 O 0.54608 0.28733 0.60987 0.0
C459 C 0.41257 0.22647 0.61813 0.0
O460 O 0.41281 0.27753 0.65603 0.0
O461 O 0.4544 0.29395 0.67196 0.0
C462 C 0.44779 0.32499 0.6215 0.0
C463 C 0.4214 0.29581 0.66644 0.0
Fe464 Fe 0.03503 0.25565 0.91849 0.0
O465 O 0.03233 0.25123 0.89953 0.0
Fe466 Fe 0.00607 0.2966 0.88925 0.0
Fe467 Fe 0.00551 0.20749 0.89098 0.0
O468 O 0.03196 0.25521 0.89951 0.0
O469 O 0.9804 0.25254 0.88043 0.0
O470 O 0.98056 0.24879 0.88048 0.0
Fe471 Fe 0.97665 0.24742 0.86161 0.0
C472 C 0.06532 0.17742 0.91092 0.0
O473 O 0.99414 0.21381 0.92218 0.0
O474 O 0.96055 0.21105 0.904 0.0
O475 O 0.94029 0.29389 0.86379 0.0
O476 O 0.97496 0.3342 0.87709 0.0
O477 O 0.96112 0.29899 0.90209 0.0
O478 O 0.99259 0.29672 0.92081 0.0
O479 O 0.97287 0.16719 0.88068 0.0
O480 O 0.93863 0.20319 0.86585 0.0
C481 C 0.9624 0.30354 0.91427 0.0
O482 O 0.01868 0.28796 0.8578 0.0
O483 O 0.05071 0.29658 0.87622 0.0
O484 O 0.07257 0.21069 0.91601 0.0
O485 O 0.03676 0.16985 0.90317 0.0
C486 C 0.96298 0.20744 0.9162 0.0
C487 C 0.94527 0.1717 0.87231 0.0
C488 C 0.04657 0.19444 0.86583 0.0
O489 O 0.05006 0.20137 0.87786 0.0
O490 O 0.01714 0.20484 0.85945 0.0
C491 C 0.94853 0.32759 0.86844 0.0
O492 O 0.03771 0.33737 0.89993 0.0
O493 O 0.07206 0.30039 0.91451 0.0
C494 C 0.04756 0.30056 0.86404 0.0
C495 C 0.06589 0.3318 0.90802 0.0
H496 H 0.17162 0.85825 0.50335 0.0
H497 H 0.22743 0.83537 0.49098 0.0
H498 H 0.20917 0.92478 0.46271 0.0
H499 H 0.15352 0.94773 0.47499 0.0
H500 H 0.22115 0.85198 0.45175 0.0
H501 H 0.27897 0.93428 0.48404 0.0
H502 H 0.29251 0.95501 0.50634 0.0
H503 H 0.34231 0.84488 0.51476 0.0
H504 H 0.32858 0.82332 0.49254 0.0
H505 H 0.38766 0.8743 0.41572 0.0
H506 H 0.33599 0.88381 0.4312 0.0
H507 H 0.37741 0.78881 0.45406 0.0
H508 H 0.42991 0.77871 0.4384 0.0
H509 H 0.35386 0.85355 0.46911 0.0
H510 H 0.30249 0.77233 0.43682 0.0
H511 H 0.28967 0.74995 0.41467 0.0
H512 H 0.22732 0.85372 0.40663 0.0
H513 H 0.24025 0.87704 0.42869 0.0
C514 C 0.17949 0.87297 0.49448 0.0
C515 C 0.15818 0.90489 0.49017 0.0
C516 C 0.2115 0.85999 0.48746 0.0
C517 C 0.22259 0.87844 0.47594 0.0
C518 C 0.20118 0.9101 0.47157 0.0
C519 C 0.16953 0.92336 0.47865 0.0
C520 C 0.25622 0.86477 0.46828 0.0
C521 C 0.25017 0.85254 0.45553 0.0
C522 C 0.29396 0.86403 0.47335 0.0
C523 C 0.30233 0.87703 0.48668 0.0
C524 C 0.29249 0.91437 0.49068 0.0
C525 C 0.30026 0.92629 0.5033 0.0
C526 C 0.31814 0.90123 0.51197 0.0
C527 C 0.32839 0.86423 0.50804 0.0
C528 C 0.32065 0.85216 0.49543 0.0
C529 C 0.38616 0.85531 0.42403 0.0
C530 C 0.41305 0.82549 0.42572 0.0
C531 C 0.35641 0.86086 0.4329 0.0
C532 C 0.35247 0.83674 0.44371 0.0
C533 C 0.37988 0.8077 0.44576 0.0
C534 C 0.40985 0.802 0.4368 0.0
C535 C 0.31881 0.84183 0.45248 0.0
C536 C 0.32478 0.8524 0.4654 0.0
C537 C 0.28084 0.84059 0.44764 0.0
C538 C 0.27254 0.82655 0.4344 0.0
C539 C 0.28625 0.79051 0.43031 0.0
C540 C 0.27894 0.77763 0.41777 0.0
C541 C 0.25774 0.80042 0.40924 0.0
C542 C 0.24373 0.8361 0.41325 0.0
C543 C 0.25099 0.84915 0.42578 0.0
H544 H 0.25212 0.79041 0.39953 0.0
H545 H 0.32414 0.91052 0.52174 0.0
H546 H 0.31703 0.86791 0.7075 0.0
H547 H 0.34347 0.91656 0.69276 0.0
H548 H 0.31746 0.00495 0.72058 0.0
H549 H 0.29107 0.95637 0.73539 0.0
H550 H 0.29371 0.02297 0.69527 0.0
H551 H 0.40614 0.97535 0.71742 0.0
H552 H 0.45316 0.92691 0.72462 0.0
H553 H 0.4789 0.899 0.68512 0.0
H554 H 0.43152 0.94686 0.67767 0.0
H555 H 0.41413 0.18 0.68514 0.0
H556 H 0.38326 0.12152 0.69287 0.0
H557 H 0.40977 0.06525 0.65685 0.0
H558 H 0.44043 0.12481 0.6488 0.0
H559 H 0.43082 0.02463 0.68193 0.0
H560 H 0.32517 0.07823 0.65966 0.0
H561 H 0.28129 0.12947 0.65247 0.0
H562 H 0.24396 0.14689 0.69164 0.0
H563 H 0.28827 0.09625 0.69912 0.0
C564 C 0.31688 0.89775 0.71046 0.0
C565 C 0.30192 0.90839 0.72259 0.0
C566 C 0.33215 0.92544 0.70205 0.0
C567 C 0.33246 0.96433 0.70558 0.0
C568 C 0.31744 0.97507 0.71767 0.0
C569 C 0.30261 0.94732 0.72615 0.0
C570 C 0.34822 0.99401 0.69668 0.0
C571 C 0.3237 0.02337 0.69237 0.0
C572 C 0.38704 0.9937 0.69251 0.0
C573 C 0.41479 0.96424 0.69699 0.0
C574 C 0.4214 0.95849 0.71027 0.0
C575 C 0.44822 0.93123 0.71439 0.0
C576 C 0.46886 0.90975 0.70533 0.0
C577 C 0.46276 0.91553 0.69212 0.0
C578 C 0.43592 0.94271 0.68795 0.0
C579 C 0.41342 0.15528 0.67881 0.0
C580 C 0.42998 0.15686 0.66639 0.0
C581 C 0.39558 0.12195 0.68323 0.0
C582 C 0.39422 0.08919 0.67543 0.0
C583 C 0.41057 0.09039 0.66298 0.0
C584 C 0.42789 0.12431 0.6584 0.0
C585 C 0.3765 0.05385 0.68078 0.0
C586 C 0.4006 0.02357 0.68452 0.0
C587 C 0.33729 0.05316 0.68438 0.0
C588 C 0.31028 0.08353 0.67997 0.0
C589 C 0.30786 0.09318 0.66677 0.0
C590 C 0.28284 0.1221 0.66263 0.0
C591 C 0.25983 0.14143 0.67159 0.0
C592 C 0.26179 0.13186 0.68471 0.0
C593 C 0.28684 0.10302 0.6889 0.0
H594 H 0.24046 0.16379 0.66836 0.0
H595 H 0.48972 0.88876 0.70855 0.0
H596 H 0.3751 0.06438 0.96164 0.0
H597 H 0.32212 0.07728 0.94683 0.0
H598 H 0.24099 0.04063 0.97603 0.0
H599 H 0.29424 0.02661 0.99079 0.0
H600 H 0.21781 0.01689 0.95296 0.0
H601 H 0.26047 0.13695 0.97043 0.0
H602 H 0.30742 0.18735 0.97591 0.0
H603 H 0.33435 0.20264 0.93567 0.0
H604 H 0.28792 0.15192 0.92996 0.0
H605 H 0.05632 0.12818 0.931 0.0
H606 H 0.10803 0.09265 0.94175 0.0
H607 H 0.1861 0.12485 0.91105 0.0
H608 H 0.1344 0.16072 0.90043 0.0
H609 H 0.2113 0.14793 0.93407 0.0
H610 H 0.16264 0.03007 0.91681 0.0
H611 H 0.11337 0.98123 0.9121 0.0
H612 H 0.09445 0.96382 0.95275 0.0
H613 H 0.14324 0.01297 0.95772 0.0
C614 C 0.34596 0.05905 0.96489 0.0
C615 C 0.33874 0.04499 0.97743 0.0
C616 C 0.31568 0.0664 0.95642 0.0
C617 C 0.27743 0.06069 0.96038 0.0
C618 C 0.27021 0.04537 0.97275 0.0
C619 C 0.30061 0.03746 0.98119 0.0
C620 C 0.24512 0.07238 0.95183 0.0
C621 C 0.21617 0.04564 0.94892 0.0
C622 C 0.24319 0.10973 0.94638 0.0
C623 C 0.27101 0.14037 0.94978 0.0
C624 C 0.2766 0.15087 0.96276 0.0
C625 C 0.3031 0.17952 0.96591 0.0
C626 C 0.32393 0.19812 0.95615 0.0
C627 C 0.31824 0.18817 0.94322 0.0
C628 C 0.29182 0.15949 0.94002 0.0
C629 C 0.0841 0.12605 0.92629 0.0
C630 C 0.09144 0.14645 0.91482 0.0
C631 C 0.11368 0.10591 0.93245 0.0
C632 C 0.15103 0.10605 0.92722 0.0
C633 C 0.15755 0.12428 0.91526 0.0
C634 C 0.128 0.14443 0.90913 0.0
C635 C 0.18408 0.09237 0.93506 0.0
C636 C 0.2131 0.11897 0.93796 0.0
C637 C 0.18567 0.05513 0.94059 0.0
C638 C 0.1564 0.02546 0.93763 0.0
C639 C 0.14776 0.01606 0.92475 0.0
C640 C 0.11995 0.98827 0.92203 0.0
C641 C 0.10073 0.96949 0.93212 0.0
C642 C 0.10935 0.9784 0.94495 0.0
C643 C 0.13711 0.00619 0.94772 0.0
H644 H 0.07921 0.94799 0.93 0.0
H645 H 0.34443 0.22029 0.9586 0.0
H646 H 0.21164 0.13847 0.20342 0.0
H647 H 0.19175 0.0839 0.1902 0.0
H648 H 0.23527 0.00568 0.21912 0.0
H649 H 0.2565 0.06043 0.23214 0.0
H650 H 0.25008 0.97712 0.19657 0.0
H651 H 0.13698 0.02843 0.21622 0.0
H652 H 0.08956 0.07792 0.22225 0.0
H653 H 0.06522 0.09861 0.18216 0.0
H654 H 0.11292 0.04958 0.17588 0.0
H655 H 0.12692 0.81744 0.1808 0.0
H656 H 0.16505 0.8698 0.19008 0.0
H657 H 0.13438 0.94279 0.15793 0.0
H658 H 0.09611 0.89039 0.14874 0.0
H659 H 0.11536 0.97391 0.18122 0.0
H660 H 0.2275 0.91443 0.16251 0.0
H661 H 0.2726 0.86115 0.15832 0.0
H662 H 0.29501 0.85081 0.19894 0.0
H663 H 0.24979 0.90368 0.20344 0.0
C664 C 0.21702 0.10962 0.20693 0.0
C665 C 0.2353 0.1037 0.21886 0.0
C666 C 0.20556 0.07839 0.19939 0.0
C667 C 0.21119 0.04048 0.20375 0.0
C668 C 0.23047 0.03454 0.21552 0.0
C669 C 0.24255 0.06584 0.22297 0.0
C670 C 0.19599 0.00723 0.19624 0.0
C671 C 0.22051 0.97629 0.19332 0.0
C672 C 0.15749 0.00607 0.19184 0.0
C673 C 0.12884 0.03564 0.19558 0.0
C674 C 0.12174 0.04376 0.20869 0.0
C675 C 0.09478 0.07169 0.21215 0.0
C676 C 0.07447 0.09148 0.2026 0.0
C677 C 0.08103 0.08331 0.18955 0.0
C678 C 0.10801 0.05544 0.18603 0.0
C679 C 0.12969 0.84421 0.1755 0.0
C680 C 0.10939 0.84981 0.16395 0.0
C681 C 0.15135 0.87415 0.1808 0.0
C682 C 0.15273 0.91027 0.17468 0.0
C683 C 0.1339 0.91516 0.16279 0.0
C684 C 0.11239 0.88516 0.15747 0.0
C685 C 0.16948 0.94401 0.18146 0.0
C686 C 0.14507 0.97496 0.18433 0.0
C687 C 0.20773 0.94464 0.18604 0.0
C688 C 0.235 0.91287 0.18332 0.0
C689 C 0.2418 0.90061 0.17057 0.0
C690 C 0.26743 0.87052 0.16813 0.0
C691 C 0.28654 0.85257 0.17835 0.0
C692 C 0.28017 0.86472 0.19103 0.0
C693 C 0.25459 0.89479 0.19353 0.0
H694 H 0.30635 0.82929 0.17643 0.0
H695 H 0.05359 0.11308 0.2053 0.0
H696 H 0.16509 0.09053 0.5422 0.0
H697 H 0.21479 0.11946 0.55566 0.0
H698 H 0.19761 0.0311 0.58447 0.0
H699 H 0.14736 1.00213 0.57105 0.0
H700 H 0.20057 0.1054 0.59489 0.0
H701 H 0.27503 0.02641 0.56654 0.0
H702 H 0.29572 1.00027 0.5455 0.0
H703 H 0.33078 0.11292 0.53314 0.0
H704 H 0.30976 0.13985 0.55403 0.0
H705 H 0.36606 0.17315 0.6296 0.0
H706 H 0.31649 0.13431 0.61903 0.0
H707 H 0.33452 0.19787 0.58355 0.0
H708 H 0.38561 0.23461 0.59388 0.0
H709 H 0.33235 0.1274 0.57803 0.0
H710 H 0.25175 0.20779 0.60533 0.0
H711 H 0.23078 0.2346 0.62625 0.0
H712 H 0.20697 0.12091 0.64045 0.0
H713 H 0.22818 0.0934 0.61965 0.0
C714 C 0.17195 0.07722 0.55139 0.0
C715 C 0.15243 0.04405 0.55558 0.0
C716 C 0.20043 0.09366 0.55904 0.0
C717 C 0.20996 0.07729 0.57103 0.0
C718 C 0.19065 0.0441 0.57524 0.0
C719 C 0.16228 0.02743 0.56753 0.0
C720 C 0.2399 0.09536 0.57913 0.0
C721 C 0.2296 0.10978 0.59132 0.0
C722 C 0.27753 0.10137 0.57437 0.0
C723 C 0.29056 0.08519 0.56183 0.0
C724 C 0.2869 0.04566 0.5593 0.0
C725 C 0.29873 0.03069 0.54741 0.0
C726 C 0.31449 0.05493 0.53798 0.0
C727 C 0.31855 0.09418 0.54044 0.0
C728 C 0.30673 0.1093 0.55232 0.0
C729 C 0.35888 0.17899 0.6196 0.0
C730 C 0.37934 0.20675 0.6125 0.0
C731 C 0.33053 0.15692 0.61356 0.0
C732 C 0.32141 0.16328 0.60048 0.0
C733 C 0.34112 0.19212 0.5936 0.0
C734 C 0.37011 0.21329 0.5995 0.0
C735 C 0.29277 0.13906 0.59363 0.0
C736 C 0.30341 0.12308 0.58168 0.0
C737 C 0.25541 0.13192 0.59859 0.0
C738 C 0.24187 0.14853 0.61098 0.0
C739 C 0.24217 0.18851 0.61293 0.0
C740 C 0.23024 0.20383 0.62477 0.0
C741 C 0.21764 0.17946 0.63469 0.0
C742 C 0.21674 0.13974 0.63276 0.0
C743 C 0.22868 0.12428 0.62095 0.0
H744 H 0.20853 0.19135 0.64386 0.0
H745 H 0.32361 0.04329 0.52877 0.0
H746 H 0.22153 0.96461 0.78788 0.0
H747 H 0.20154 0.01852 0.8017 0.0
H748 H 0.14308 0.93937 0.8272 0.0
H749 H 0.16375 0.88544 0.81363 0.0
H750 H 0.09874 0.00719 0.81792 0.0
H751 H 0.21772 0.97069 0.83846 0.0
H752 H 0.28713 0.95669 0.83887 0.0
H753 H 0.31169 0.0712 0.8256 0.0
H754 H 0.24234 0.08569 0.82493 0.0
H755 H 0.09503 0.14008 0.87627 0.0
H756 H 0.13037 0.09027 0.86434 0.0
H757 H 0.09681 0.14264 0.82828 0.0
H758 H 0.06133 0.19193 0.84003 0.0
H759 H 0.18838 0.08617 0.84399 0.0
H760 H 0.06114 0.07153 0.80949 0.0
H761 H 0.99282 0.09031 0.80887 0.0
H762 H 0.98532 0.07833 0.85012 0.0
H763 H 0.05316 0.05861 0.85096 0.0
C764 C 0.20453 0.95881 0.79646 0.0
C765 C 0.19425 0.9209 0.79972 0.0
C766 C 0.19328 0.98952 0.80436 0.0
C767 C 0.17097 0.98286 0.81549 0.0
C768 C 0.1604 0.94507 0.81868 0.0
C769 C 0.1723 0.91434 0.81095 0.0
C770 C 0.15759 0.01535 0.82361 0.0
C771 C 0.11835 0.0244 0.82362 0.0
C772 C 0.18316 0.03775 0.83107 0.0
C773 C 0.22483 0.02913 0.83151 0.0
C774 C 0.2379 0.99276 0.83551 0.0
C775 C 0.27724 0.98476 0.83582 0.0
C776 C 0.30381 0.013 0.83223 0.0
C777 C 0.29108 0.04933 0.82836 0.0
C778 C 0.25177 0.05746 0.82802 0.0
C779 C 0.0961 0.14156 0.86581 0.0
C780 C 0.07486 0.16958 0.85909 0.0
C781 C 0.11632 0.11309 0.859 0.0
C782 C 0.11564 0.11238 0.84541 0.0
C783 C 0.09728 0.14232 0.83875 0.0
C784 C 0.07695 0.17045 0.8455 0.0
C785 C 0.12962 0.07821 0.83817 0.0
C786 C 0.16883 0.06888 0.8383 0.0
C787 C 0.10406 0.05548 0.83079 0.0
C788 C 0.06235 0.06403 0.83029 0.0
C789 C 0.04476 0.07247 0.81841 0.0
C790 C 0.00613 0.08341 0.81803 0.0
C791 C 0.9848 0.08584 0.82947 0.0
C792 C 1.00185 0.07664 0.84128 0.0
C793 C 0.04037 0.0655 0.84171 0.0
H794 H 0.95501 0.09469 0.82918 0.0
H795 H 0.33425 0.00676 0.83248 0.0
H796 H 0.3216 0.90943 0.04111 0.0
H797 H 0.26518 0.89193 0.05415 0.0
H798 H 0.28796 0.98635 0.07988 0.0
H799 H 0.34413 0.00446 0.06671 0.0
H800 H 0.27147 0.90916 0.09203 0.0
H801 H 0.22017 1.00134 0.06172 0.0
H802 H 0.2097 0.02835 0.03995 0.0
H803 H 0.15445 0.92383 0.02824 0.0
H804 H 0.16514 0.89595 0.04989 0.0
H805 H 0.09791 0.86798 0.12572 0.0
H806 H 0.14753 0.90648 0.11483 0.0
H807 H 0.12361 0.84824 0.07898 0.0
H808 H 0.07331 0.81144 0.08953 0.0
H809 H 0.14061 0.91703 0.07336 0.0
H810 H 0.1995 0.82034 0.10071 0.0
H811 H 0.21027 0.78783 0.12162 0.0
H812 H 0.25177 0.89346 0.13781 0.0
H813 H 0.24103 0.92656 0.11701 0.0
C814 C 0.3146 0.9264 0.04956 0.0
C815 C 0.33717 0.95834 0.05288 0.0
C816 C 0.28237 0.91645 0.05697 0.0
C817 C 0.2724 0.93789 0.06796 0.0
C818 C 0.29519 0.96945 0.07144 0.0
C819 C 0.32707 0.97987 0.06388 0.0
C820 C 0.23788 0.92731 0.07568 0.0
C821 C 0.24275 0.91152 0.08807 0.0
C822 C 0.20057 0.92961 0.07039 0.0
C823 C 0.19374 0.94646 0.0574 0.0
C824 C 0.20607 0.984 0.05448 0.0
C825 C 0.20004 0.99949 0.04216 0.0
C826 C 0.18149 0.97779 0.03271 0.0
C827 C 0.16883 0.94059 0.03557 0.0
C828 C 0.17484 0.92495 0.04786 0.0
C829 C 0.10269 0.86404 0.11546 0.0
C830 C 0.08188 0.83619 0.10858 0.0
C831 C 0.13136 0.8858 0.10925 0.0
C832 C 0.14018 0.8796 0.09611 0.0
C833 C 0.11774 0.85352 0.08911 0.0
C834 C 0.08894 0.83226 0.09523 0.0
C835 C 0.17403 0.898 0.08968 0.0
C836 C 0.16917 0.91519 0.07747 0.0
C837 C 0.21146 0.89614 0.09502 0.0
C838 C 0.21919 0.87597 0.10737 0.0
C839 C 0.21091 0.83659 0.10875 0.0
C840 C 0.21698 0.81806 0.12058 0.0
C841 C 0.23161 0.83857 0.13106 0.0
C842 C 0.24043 0.87758 0.12971 0.0
C843 C 0.23443 0.89623 0.11789 0.0
H844 H 0.23614 0.8242 0.14023 0.0
H845 H 0.17685 0.98983 0.02318 0.0
H846 H 0.31435 0.05409 0.27528 0.0
H847 H 0.33212 0.99599 0.2873 0.0
H848 H 0.39797 0.06475 0.31383 0.0
H849 H 0.37952 0.1229 0.30212 0.0
H850 H 0.40083 0.9618 0.29329 0.0
H851 H 0.3849 0.02987 0.34404 0.0
H852 H 0.34753 0.08097 0.35477 0.0
H853 H 0.25779 0.06845 0.32673 0.0
H854 H 0.29435 0.01693 0.31595 0.0
H855 H 0.49187 0.84959 0.34212 0.0
H856 H 0.46843 0.89485 0.32589 0.0
H857 H 0.35434 0.88686 0.34228 0.0
H858 H 0.37865 0.84372 0.3591 0.0
H859 H 0.36958 0.95608 0.34009 0.0
H860 H 0.38272 0.85226 0.31 0.0
H861 H 0.4158 0.79901 0.29889 0.0
H862 H 0.50199 0.87719 0.28488 0.0
H863 H 0.46969 0.93087 0.29602 0.0
C864 C 0.3325 0.05683 0.2837 0.0
C865 C 0.3453 0.09318 0.28779 0.0
C866 C 0.34292 0.02358 0.29048 0.0
C867 C 0.36606 0.02609 0.30153 0.0
C868 C 0.37976 0.06219 0.30541 0.0
C869 C 0.36941 0.09539 0.29864 0.0
C870 C 0.37471 0.99129 0.30933 0.0
C871 C 0.39392 0.96034 0.30352 0.0
C872 C 0.365 0.98914 0.3226 0.0
C873 C 0.34256 0.01979 0.32912 0.0
C874 C 0.35712 0.03792 0.3402 0.0
C875 C 0.33609 0.06697 0.34628 0.0
C876 C 0.30037 0.07803 0.34141 0.0
C877 C 0.28553 0.05996 0.33047 0.0
C878 C 0.30642 0.03086 0.32436 0.0
C879 C 0.46154 0.85659 0.34197 0.0
C880 C 0.43692 0.84303 0.35176 0.0
C881 C 0.44807 0.88248 0.33266 0.0
C882 C 0.40941 0.89429 0.33272 0.0
C883 C 0.38431 0.87851 0.34203 0.0
C884 C 0.39805 0.85358 0.35157 0.0
C885 C 0.39614 0.92615 0.32414 0.0
C886 C 0.37622 0.95694 0.32984 0.0
C887 C 0.40456 0.92767 0.31072 0.0
C888 C 0.42388 0.89553 0.30391 0.0
C889 C 0.40884 0.85806 0.3046 0.0
C890 C 0.42744 0.82781 0.29829 0.0
C891 C 0.46101 0.83471 0.2912 0.0
C892 C 0.47599 0.87191 0.29038 0.0
C893 C 0.45751 0.90226 0.29667 0.0
H894 H 0.47538 0.81125 0.28633 0.0
H895 H 0.28415 0.10054 0.34613 0.0
H896 H 0.77891 0.00713 0.54791 0.0
H897 H 0.72569 0.02946 0.5615 0.0
H898 H 0.8061 0.08458 0.58705 0.0
H899 H 0.85952 0.06191 0.5736 0.0
H900 H 0.74855 0.04754 0.60063 0.0
H901 H 0.75949 0.1385 0.56627 0.0
H902 H 0.76404 0.16157 0.54376 0.0
H903 H 0.65351 0.11279 0.53555 0.0
H904 H 0.64848 0.08907 0.558 0.0
H905 H 0.61547 0.17618 0.63076 0.0
H906 H 0.66789 0.14119 0.62061 0.0
H907 H 0.58981 0.09853 0.59167 0.0
H908 H 0.53761 0.13568 0.60149 0.0
H909 H 0.64792 0.12841 0.5804 0.0
H910 H 0.63789 0.03983 0.61677 0.0
H911 H 0.63488 0.02511 0.64011 0.0
H912 H 0.74587 0.07636 0.64542 0.0
H913 H 0.74943 0.09167 0.62213 0.0
C914 C 0.7853 0.02365 0.5565 0.0
C915 C 0.82347 0.03291 0.55962 0.0
C916 C 0.75484 0.03658 0.56422 0.0
C917 C 0.76188 0.05893 0.57526 0.0
C918 C 0.79997 0.06739 0.57859 0.0
C919 C 0.83044 0.05471 0.57082 0.0
C920 C 0.72937 0.07452 0.58303 0.0
C921 C 0.72656 0.06533 0.59624 0.0
C922 C 0.70072 0.09779 0.57733 0.0
C923 C 0.70381 0.11162 0.56378 0.0
C924 C 0.73631 0.13238 0.55964 0.0
C925 C 0.73894 0.14566 0.54689 0.0
C926 C 0.70914 0.13854 0.53821 0.0
C927 C 0.67661 0.11822 0.54227 0.0
C928 C 0.67383 0.10488 0.55501 0.0
C929 C 0.60911 0.15803 0.62257 0.0
C930 C 0.5723 0.15824 0.61704 0.0
C931 C 0.63926 0.13803 0.6167 0.0
C932 C 0.633 0.11673 0.60539 0.0
C933 C 0.59552 0.11476 0.60037 0.0
C934 C 0.56556 0.13564 0.60606 0.0
C935 C 0.66595 0.10027 0.59797 0.0
C936 C 0.66929 0.10988 0.5848 0.0
C937 C 0.69524 0.07787 0.6038 0.0
C938 C 0.69384 0.06703 0.6177 0.0
C939 C 0.66166 0.04795 0.62291 0.0
C940 C 0.65985 0.03953 0.63614 0.0
C941 C 0.69015 0.04983 0.64425 0.0
C942 C 0.72245 0.06834 0.63913 0.0
C943 C 0.72442 0.0768 0.62591 0.0
H944 H 0.6886 0.04349 0.65449 0.0
H945 H 0.71122 0.14886 0.52835 0.0
H946 H 0.67901 0.05158 0.28067 0.0
H947 H 0.66273 0.99665 0.29451 0.0
H948 H 0.65933 0.07119 0.32772 0.0
H949 H 0.67528 0.12612 0.31398 0.0
H950 H 0.69708 0.00779 0.33355 0.0
H951 H 0.57677 0.0367 0.31316 0.0
H952 H 0.53103 0.04697 0.29533 0.0
H953 H 0.55174 0.93241 0.28168 0.0
H954 H 0.5979 0.92156 0.29936 0.0
H955 H 0.57975 0.90699 0.37829 0.0
H956 H 0.61254 0.94966 0.36307 0.0
H957 H 0.61794 0.85803 0.33514 0.0
H958 H 0.58494 0.81495 0.35049 0.0
H959 H 0.58509 0.92341 0.32526 0.0
H960 H 0.7001 0.89327 0.34806 0.0
H961 H 0.74088 0.88393 0.36725 0.0
H962 H 0.72634 1.00257 0.37744 0.0
H963 H 0.68501 0.01253 0.35841 0.0
C964 C 0.67442 0.05639 0.2909 0.0
C965 C 0.67856 0.09344 0.29617 0.0
C966 C 0.66516 0.02486 0.29882 0.0
C967 C 0.65955 0.02965 0.31219 0.0
C968 C 0.66371 0.06658 0.31746 0.0
C969 C 0.67298 0.09804 0.30957 0.0
C970 C 0.64972 0.99638 0.32077 0.0
C971 C 0.67242 0.98952 0.33176 0.0
C972 C 0.61817 0.97171 0.31832 0.0
C973 C 0.59125 0.97854 0.30747 0.0
C974 C 0.57193 0.01386 0.30626 0.0
C975 C 0.54581 0.01973 0.29621 0.0
C976 C 0.53856 0.99039 0.28736 0.0
C977 C 0.55742 0.95512 0.28853 0.0
C978 C 0.58356 0.9491 0.29857 0.0
C979 C 0.5891 0.89554 0.36906 0.0
C980 C 0.58009 0.85755 0.36562 0.0
C981 C 0.60783 0.92 0.36035 0.0
C982 C 0.61783 0.90714 0.34793 0.0
C983 C 0.61061 0.86857 0.34467 0.0
C984 C 0.59219 0.84384 0.3535 0.0
C985 C 0.63212 0.93523 0.33809 0.0
C986 C 0.61018 0.94122 0.3269 0.0
C987 C 0.66408 0.95935 0.34043 0.0
C988 C 0.68924 0.95358 0.35183 0.0
C989 C 0.70538 0.91732 0.35443 0.0
C990 C 0.72864 0.91192 0.36528 0.0
C991 C 0.73615 0.94262 0.37357 0.0
C992 C 0.7205 0.97882 0.37101 0.0
C993 C 0.6972 0.98437 0.36018 0.0
H994 H 0.75413 0.93838 0.38196 0.0
H995 H 0.51825 0.99495 0.27961 0.0
H996 H 0.71718 0.98183 0.03799 0.0
H997 H 0.77304 0.96113 0.05066 0.0
H998 H 0.6978 0.92392 0.08147 0.0
H999 H 0.6419 0.94403 0.06878 0.0
H1000 H 0.76674 0.96597 0.08964 0.0
H1001 H 0.72641 0.86024 0.06264 0.0
H1002 H 0.71005 0.83055 0.04179 0.0
H1003 H 0.82403 0.85287 0.02764 0.0
H1004 H 0.84065 0.88411 0.04825 0.0
H1005 H 0.88599 0.83874 0.12543 0.0
H1006 H 0.83619 0.87419 0.11389 0.0
H1007 H 0.90712 0.87511 0.07952 0.0
H1008 H 0.95582 0.83732 0.09087 0.0
H1009 H 0.84144 0.85547 0.07278 0.0
H1010 H 0.88463 0.95867 0.09935 0.0
H1011 H 0.90259 0.99051 0.11971 0.0
H1012 H 0.78771 0.97625 0.13412 0.0
H1013 H 0.76916 0.94343 0.11399 0.0
C1014 C 0.71266 0.96963 0.04752 0.0
C1015 C 0.67526 0.9643 0.05238 0.0
C1016 C 0.74451 0.9578 0.05474 0.0
C1017 C 0.7395 0.94096 0.06699 0.0
C1018 C 0.70226 0.93695 0.07206 0.0
C1019 C 0.6704 0.94817 0.06477 0.0
C1020 C 0.7728 0.92521 0.07418 0.0
C1021 C 0.78306 0.94168 0.08604 0.0
C1022 C 0.79452 0.89413 0.06929 0.0
C1023 C 0.78462 0.87499 0.05694 0.0
C1024 C 0.74786 0.85924 0.05504 0.0
C1025 C 0.73857 0.84203 0.04327 0.0
C1026 C 0.766 0.8397 0.0334 0.0
C1027 C 0.80278 0.85471 0.03528 0.0
C1028 C 0.81213 0.87228 0.04699 0.0
C1029 C 0.89129 0.84739 0.1155 0.0
C1030 C 0.92482 0.83561 0.10905 0.0
C1031 C 0.86279 0.86776 0.10889 0.0
C1032 C 0.86783 0.87791 0.0958 0.0
C1033 C 0.9023 0.8676 0.08957 0.0
C1034 C 0.93028 0.84627 0.09607 0.0
C1035 C 0.83614 0.89636 0.08833 0.0
C1036 C 0.82579 0.88017 0.0764 0.0
C1037 C 0.81478 0.92807 0.0931 0.0
C1038 C 0.8256 0.94829 0.10518 0.0
C1039 C 0.86324 0.96205 0.1069 0.0
C1040 C 0.87353 0.98022 0.11842 0.0
C1041 C 0.84634 0.98517 0.12824 0.0
C1042 C 0.80875 0.97213 0.12654 0.0
C1043 C 0.79832 0.95378 0.11507 0.0
H1044 H 0.85434 0.99922 0.13715 0.0
H1045 H 0.75876 0.82627 0.02431 0.0
H1046 H 0.82068 0.95696 0.78859 0.0
H1047 H 0.84402 1.00038 0.80538 0.0
H1048 H 0.81372 0.91723 0.83469 0.0
H1049 H 0.79158 0.8731 0.81803 0.0
H1050 H 0.79095 0.99242 0.84093 0.0
H1051 H 0.90478 0.92406 0.82749 0.0
H1052 H 0.95222 0.89919 0.81182 0.0
H1053 H 0.97639 0.01418 0.79894 0.0
H1054 H 0.92842 0.03957 0.81433 0.0
H1055 H 0.96168 0.09588 0.877 0.0
H1056 H 0.93028 0.04002 0.86741 0.0
H1057 H 0.84541 0.114 0.85008 0.0
H1058 H 0.8766 0.17001 0.85953 0.0
H1059 H 0.92701 0.03465 0.84065 0.0
H1060 H 0.76357 0.06236 0.84662 0.0
H1061 H 0.71744 0.08249 0.86347 0.0
H1062 H 0.79439 0.04293 0.89299 0.0
H1063 H 0.84117 0.02307 0.87634 0.0
C1064 C 0.81923 0.94773 0.79859 0.0
C1065 C 0.80419 0.91147 0.80192 0.0
C1066 C 0.8324 0.97266 0.80817 0.0
C1067 C 0.83066 0.96188 0.82125 0.0
C1068 C 0.81507 0.92612 0.82465 0.0
C1069 C 0.80223 0.90104 0.81509 0.0
C1070 C 0.84584 0.98766 0.83137 0.0
C1071 C 0.82067 1.0018 0.84087 0.0
C1072 C 0.88481 0.999 0.83147 0.0
C1073 C 0.91308 0.9837 0.82205 0.0
C1074 C 0.92002 0.94399 0.82124 0.0
C1075 C 0.94699 0.9298 0.81241 0.0
C1076 C 0.96733 0.95509 0.80439 0.0
C1077 C 0.96066 0.99462 0.80516 0.0
C1078 C 0.93363 0.00892 0.81394 0.0
C1079 C 0.93573 0.10026 0.87145 0.0
C1080 C 0.92209 0.13754 0.86883 0.0
C1081 C 0.91784 0.06825 0.86597 0.0
C1082 C 0.88567 0.07293 0.858 0.0
C1083 C 0.87013 0.10975 0.85625 0.0
C1084 C 0.8882 0.14178 0.86159 0.0
C1085 C 0.87187 0.04076 0.84992 0.0
C1086 C 0.8973 0.02539 0.84074 0.0
C1087 C 0.83327 0.02821 0.85018 0.0
C1088 C 0.80592 0.04146 0.86024 0.0
C1089 C 0.77068 0.05809 0.85671 0.0
C1090 C 0.74446 0.06953 0.86623 0.0
C1091 C 0.75302 0.06407 0.8793 0.0
C1092 C 0.7879 0.04735 0.88287 0.0
C1093 C 0.81439 0.03627 0.87341 0.0
H1094 H 0.73265 0.07281 0.88665 0.0
H1095 H 0.98825 0.94405 0.79759 0.0
H1096 H 0.85415 0.89878 0.47088 0.0
H1097 H 0.79942 0.88684 0.45658 0.0
H1098 H 0.72268 0.93498 0.48506 0.0
H1099 H 0.77738 0.94748 0.49935 0.0
H1100 H 0.70028 0.8605 0.47365 0.0
H1101 H 0.73849 0.98909 0.46222 0.0
H1102 H 0.78445 0.03943 0.45559 0.0
H1103 H 0.80878 0.97805 0.42055 0.0
H1104 H 0.76341 0.927 0.42707 0.0
H1105 H 0.55669 0.90559 0.41819 0.0
H1106 H 0.60637 0.92752 0.43331 0.0
H1107 H 0.65809 0.81494 0.43269 0.0
H1108 H 0.60932 0.79291 0.41773 0.0
H1109 H 0.68775 0.9284 0.43157 0.0
H1110 H 0.68488 0.79372 0.46499 0.0
H1111 H 0.6399 0.74224 0.47138 0.0
H1112 H 0.54421 0.81548 0.46265 0.0
H1113 H 0.58851 0.86786 0.45663 0.0
C1114 C 0.82558 0.90661 0.47411 0.0
C1115 C 0.81996 0.92413 0.48621 0.0
C1116 C 0.79445 0.9 0.46592 0.0
C1117 C 0.75718 0.91034 0.46976 0.0
C1118 C 0.75132 0.92699 0.48194 0.0
C1119 C 0.78251 0.9342 0.49005 0.0
C1120 C 0.7243 0.90357 0.46104 0.0
C1121 C 0.69736 0.87535 0.46446 0.0
C1122 C 0.72053 0.92337 0.44915 0.0
C1123 C 0.74783 0.95402 0.4452 0.0
C1124 C 0.75393 0.98612 0.45316 0.0
C1125 C 0.77982 0.01483 0.44941 0.0
C1126 C 0.79961 0.01189 0.43768 0.0
C1127 C 0.79348 0.98027 0.42965 0.0
C1128 C 0.76766 0.95145 0.43337 0.0
C1129 C 0.57884 0.88566 0.4212 0.0
C1130 C 0.57874 0.84745 0.4168 0.0
C1131 C 0.60719 0.89822 0.42981 0.0
C1132 C 0.63551 0.87265 0.43424 0.0
C1133 C 0.63619 0.83498 0.42953 0.0
C1134 C 0.6082 0.82252 0.42092 0.0
C1135 C 0.66406 0.88463 0.44403 0.0
C1136 C 0.69034 0.91372 0.4408 0.0
C1137 C 0.66729 0.86544 0.4561 0.0
C1138 C 0.64015 0.83456 0.46012 0.0
C1139 C 0.65424 0.79892 0.46447 0.0
C1140 C 0.62886 0.76958 0.46805 0.0
C1141 C 0.58924 0.77545 0.4673 0.0
C1142 C 0.57492 0.81087 0.46314 0.0
C1143 C 0.60018 0.84044 0.45966 0.0
H1144 H 0.56965 0.7526 0.46999 0.0
H1145 H 0.81962 0.03416 0.43479 0.0
H1146 H 0.7558 0.04774 0.23594 0.0
H1147 H 0.77669 0.99385 0.22257 0.0
H1148 H 0.77619 0.06693 0.18883 0.0
H1149 H 0.75639 0.12139 0.20217 0.0
H1150 H 0.74692 0.99016 0.18438 0.0
H1151 H 0.85712 0.05464 0.2019 0.0
H1152 H 0.89633 0.08324 0.21918 0.0
H1153 H 0.90167 0.97405 0.23857 0.0
H1154 H 0.86195 0.94492 0.22149 0.0
H1155 H 0.8846 0.87617 0.14734 0.0
H1156 H 0.84309 0.92518 0.15733 0.0
H1157 H 0.85099 0.86561 0.19391 0.0
H1158 H 0.89273 0.81747 0.18402 0.0
H1159 H 0.87503 0.93797 0.19577 0.0
H1160 H 0.76704 0.87224 0.17766 0.0
H1161 H 0.72796 0.8437 0.16035 0.0
H1162 H 0.71817 0.95401 0.14194 0.0
H1163 H 0.75794 0.98313 0.159 0.0
C1164 C 0.76011 0.05245 0.22568 0.0
C1165 C 0.75482 0.08911 0.22019 0.0
C1166 C 0.77171 0.02151 0.21803 0.0
C1167 C 0.77816 0.0265 0.20473 0.0
C1168 C 0.77113 0.06246 0.19907 0.0
C1169 C 0.75976 0.09355 0.20673 0.0
C1170 C 0.79562 0.9951 0.19704 0.0
C1171 C 0.7751 0.9789 0.18674 0.0
C1172 C 0.83219 0.98032 0.20023 0.0
C1173 C 0.85622 0.9977 0.21049 0.0
C1174 C 0.86636 0.0368 0.20991 0.0
C1175 C 0.88873 0.0531 0.21965 0.0
C1176 C 0.90139 0.0305 0.22998 0.0
C1177 C 0.89178 0.99153 0.23057 0.0
C1178 C 0.86936 0.97511 0.22085 0.0
C1179 C 0.87618 0.87298 0.15738 0.0
C1180 C 0.89149 0.84318 0.16495 0.0
C1181 C 0.85263 0.90097 0.1631 0.0
C1182 C 0.84415 0.89916 0.17641 0.0
C1183 C 0.85731 0.8677 0.18366 0.0
C1184 C 0.88093 0.84012 0.17801 0.0
C1185 C 0.82605 0.93202 0.18324 0.0
C1186 C 0.84675 0.94892 0.19336 0.0
C1187 C 0.78975 0.94725 0.17983 0.0
C1188 C 0.76594 0.92979 0.16953 0.0
C1189 C 0.75697 0.89036 0.16984 0.0
C1190 C 0.73463 0.87408 0.16008 0.0
C1191 C 0.72074 0.897 0.15002 0.0
C1192 C 0.72904 0.93628 0.14972 0.0
C1193 C 0.7515 0.95268 0.15943 0.0
H1194 H 0.70343 0.88435 0.14248 0.0
H1195 H 0.91872 0.04316 0.23752 0.0
H1196 H 0.71361 0.04485 0.99084 0.0
H1197 H 0.76762 0.06955 0.97816 0.0
H1198 H 0.69019 0.14032 0.956 0.0
H1199 H 0.63581 0.11431 0.96818 0.0
H1200 H 0.74233 0.11133 0.94044 0.0
H1201 H 0.74568 0.17772 0.98084 0.0
H1202 H 0.74664 0.18415 0.00457 0.0
H1203 H 0.85286 0.12163 0.00614 0.0
H1204 H 0.85227 0.11438 0.98242 0.0
H1205 H 0.88821 0.22816 0.91269 0.0
H1206 H 0.83226 0.20707 0.92531 0.0
H1207 H 0.90541 0.13562 0.94884 0.0
H1208 H 0.96164 0.15856 0.93678 0.0
H1209 H 0.8538 0.16726 0.96347 0.0
H1210 H 0.84825 0.10086 0.92219 0.0
H1211 H 0.84889 0.10234 0.89833 0.0
H1212 H 0.74598 0.17032 0.89836 0.0
H1213 H 0.74516 0.16991 0.92222 0.0
C1214 C 0.70791 0.06525 0.98315 0.0
C1215 C 0.6702 0.07775 0.98065 0.0
C1216 C 0.73896 0.07972 0.97599 0.0
C1217 C 0.73318 0.10741 0.96625 0.0
C1218 C 0.69552 0.11921 0.9635 0.0
C1219 C 0.66443 0.10457 0.9706 0.0
C1220 C 0.76639 0.12449 0.95909 0.0
C1221 C 0.76652 0.12384 0.94549 0.0
C1222 C 0.7982 0.14075 0.9656 0.0
C1223 C 0.79873 0.14519 0.97987 0.0
C1224 C 0.7691 0.16511 0.98625 0.0
C1225 C 0.7696 0.16893 0.9997 0.0
C1226 C 0.79974 0.15322 0.00686 0.0
C1227 C 0.8295 0.13374 1.00059 0.0
C1228 C 0.82912 0.12979 0.98714 0.0
C1229 C 0.89222 0.20786 0.92054 0.0
C1230 C 0.92908 0.19447 0.92365 0.0
C1231 C 0.86025 0.19577 0.92772 0.0
C1232 C 0.86431 0.16889 0.93781 0.0
C1233 C 0.90136 0.15616 0.94107 0.0
C1234 C 0.93346 0.16911 0.93414 0.0
C1235 C 0.8301 0.15342 0.94485 0.0
C1236 C 0.82971 0.15452 0.95842 0.0
C1237 C 0.79796 0.13787 0.93831 0.0
C1238 C 0.79676 0.13551 0.92399 0.0
C1239 C 0.8257 0.11603 0.9171 0.0
C1240 C 0.82622 0.11687 0.90359 0.0
C1241 C 0.79762 0.1366 0.89684 0.0
C1242 C 0.76817 0.15513 0.9036 0.0
C1243 C 0.76764 0.15458 0.91712 0.0
H1244 H 0.7982 0.13739 0.88638 0.0
H1245 H 0.80007 0.15621 0.01728 0.0
H1246 H 0.67251 0.94136 0.72952 0.0
H1247 H 0.65515 0.99463 0.7156 0.0
H1248 H 0.75923 0.97888 0.69346 0.0
H1249 H 0.7788 0.92757 0.70818 0.0
H1250 H 0.74824 0.05041 0.69512 0.0
H1251 H 0.66653 0.94976 0.6822 0.0
H1252 H 0.62087 0.89581 0.68401 0.0
H1253 H 0.53623 0.97108 0.70047 0.0
H1254 H 0.58157 0.02538 0.69897 0.0
H1255 H 0.64217 0.18581 0.65159 0.0
H1256 H 0.67823 0.12893 0.65893 0.0
H1257 H 0.61939 0.13347 0.69565 0.0
H1258 H 0.58379 0.18958 0.68856 0.0
H1259 H 0.61331 0.06092 0.68034 0.0
H1260 H 0.70617 0.15804 0.69597 0.0
H1261 H 0.75254 0.2103 0.69176 0.0
H1262 H 0.8163 0.13682 0.66622 0.0
H1263 H 0.77001 0.08426 0.67019 0.0
C1264 C 0.69231 0.9495 0.72189 0.0
C1265 C 0.72722 0.92978 0.72008 0.0
C1266 C 0.68184 0.97965 0.7137 0.0
C1267 C 0.70524 0.99021 0.70317 0.0
C1268 C 0.74037 0.97107 0.7014 0.0
C1269 C 0.75133 0.94134 0.70978 0.0
C1270 C 0.69313 0.02193 0.69434 0.0
C1271 C 0.71891 0.05217 0.69168 0.0
C1272 C 0.65508 0.0243 0.68954 0.0
C1273 C 0.62762 0.99166 0.69053 0.0
C1274 C 0.63829 0.95478 0.68629 0.0
C1275 C 0.61244 0.92413 0.68725 0.0
C1276 C 0.5757 0.93 0.69236 0.0
C1277 C 0.5647 0.96657 0.69651 0.0
C1278 C 0.59047 0.99731 0.6956 0.0
C1279 C 0.63746 0.17506 0.66129 0.0
C1280 C 0.60938 0.19177 0.66935 0.0
C1281 C 0.65803 0.14257 0.66546 0.0
C1282 C 0.65084 0.12673 0.67774 0.0
C1283 C 0.62491 0.14499 0.68607 0.0
C1284 C 0.60462 0.17721 0.68197 0.0
C1285 C 0.6677 0.08971 0.68193 0.0
C1286 C 0.6428 0.0584 0.68359 0.0
C1287 C 0.70659 0.086 0.68549 0.0
C1288 C 0.73449 0.11743 0.68327 0.0
C1289 C 0.72993 0.15316 0.68939 0.0
C1290 C 0.75622 0.18279 0.68707 0.0
C1291 C 0.78729 0.17692 0.6787 0.0
C1292 C 0.7922 0.14135 0.67268 0.0
C1293 C 0.76598 0.11163 0.67498 0.0
H1294 H 0.80761 0.1999 0.67691 0.0
H1295 H 0.55574 0.90623 0.6931 0.0
H1296 H 0.68002 0.40082 0.98937 0.0
H1297 H 0.7343 0.37118 0.97791 0.0
H1298 H 0.72094 0.45239 0.94667 0.0
H1299 H 0.66703 0.48248 0.95817 0.0
H1300 H 0.72986 0.37115 0.93916 0.0
H1301 H 0.78866 0.4695 0.96566 0.0
H1302 H 0.8016 0.5024 0.98627 0.0
H1303 H 0.84822 0.39815 1.00205 0.0
H1304 H 0.835 0.36446 0.98158 0.0
H1305 H 0.90399 0.34726 0.90453 0.0
H1306 H 0.84724 0.37083 0.91601 0.0
H1307 H 0.88449 0.31255 0.95069 0.0
H1308 H 0.94212 0.29036 0.93938 0.0
H1309 H 0.86169 0.37938 0.95698 0.0
H1310 H 0.80649 0.28015 0.93119 0.0
H1311 H 0.79159 0.24391 0.91134 0.0
H1312 H 0.73691 0.3434 0.89514 0.0
H1313 H 0.75166 0.38039 0.9148 0.0
C1314 C 0.68868 0.41226 0.98005 0.0
C1315 C 0.6695 0.44402 0.97467 0.0
C1316 C 0.71963 0.39538 0.97354 0.0
C1317 C 0.73154 0.40964 0.96146 0.0
C1318 C 0.71209 0.44096 0.95597 0.0
C1319 C 0.68156 0.45827 0.96258 0.0
C1320 C 0.76488 0.39241 0.95466 0.0
C1321 C 0.75881 0.37319 0.94295 0.0
C1322 C 0.80229 0.39407 0.95987 0.0
C1323 C 0.81045 0.41437 0.97214 0.0
C1324 C 0.80134 0.4535 0.97356 0.0
C1325 C 0.80879 0.47231 0.98521 0.0
C1326 C 0.82561 0.45235 0.99547 0.0
C1327 C 0.83513 0.41356 0.9941 0.0
C1328 C 0.82769 0.3946 0.98247 0.0
C1329 C 0.9 0.33943 0.9146 0.0
C1330 C 0.92763 0.31725 0.92109 0.0
C1331 C 0.86737 0.35267 0.92114 0.0
C1332 C 0.86116 0.34308 0.93421 0.0
C1333 C 0.88859 0.32048 0.94064 0.0
C1334 C 0.92157 0.30787 0.93417 0.0
C1335 C 0.82702 0.35801 0.94132 0.0
C1336 C 0.83284 0.3769 0.95314 0.0
C1337 C 0.78926 0.35538 0.9363 0.0
C1338 C 0.78047 0.33316 0.92444 0.0
C1339 C 0.79153 0.2944 0.92336 0.0
C1340 C 0.78307 0.27369 0.91216 0.0
C1341 C 0.76346 0.29137 0.90199 0.0
C1342 C 0.75214 0.32976 0.90302 0.0
C1343 C 0.76046 0.35059 0.9142 0.0
H1344 H 0.75696 0.27527 0.89334 0.0
H1345 H 0.83137 0.46697 0.00448 0.0
H1346 H 0.81876 0.45477 0.2396 0.0
H1347 H 0.84583 0.50873 0.22784 0.0
H1348 H 0.79861 0.46499 0.1923 0.0
H1349 H 0.77525 0.40842 0.20373 0.0
H1350 H 0.86191 0.49184 0.1865 0.0
H1351 H 0.75939 0.5457 0.21088 0.0
H1352 H 0.71963 0.56116 0.22997 0.0
H1353 H 0.81525 0.61898 0.24735 0.0
H1354 H 0.85576 0.60344 0.22846 0.0
H1355 H 0.8977 0.66973 0.15344 0.0
H1356 H 0.86336 0.61658 0.16394 0.0
H1357 H 0.92414 0.63873 0.19942 0.0
H1358 H 0.95723 0.6929 0.18914 0.0
H1359 H 0.84985 0.62369 0.20407 0.0
H1360 H 0.94791 0.57279 0.17528 0.0
H1361 H 0.97645 0.56289 0.15375 0.0
H1362 H 0.87623 0.50067 0.14189 0.0
H1363 H 0.84601 0.51217 0.16307 0.0
C1364 C 0.81465 0.45588 0.22924 0.0
C1365 C 0.79455 0.42658 0.22274 0.0
C1366 C 0.82958 0.48754 0.22252 0.0
C1367 C 0.8236 0.49184 0.20916 0.0
C1368 C 0.80358 0.46275 0.20261 0.0
C1369 C 0.78959 0.43047 0.20926 0.0
C1370 C 0.83882 0.52619 0.20201 0.0
C1371 C 0.85866 0.52071 0.19027 0.0
C1372 C 0.83484 0.56412 0.20683 0.0
C1373 C 0.8107 0.57311 0.21829 0.0
C1374 C 0.77203 0.56144 0.21882 0.0
C1375 C 0.74935 0.57026 0.2296 0.0
C1376 C 0.76493 0.59099 0.23987 0.0
C1377 C 0.80324 0.60291 0.23939 0.0
C1378 C 0.82606 0.59412 0.22865 0.0
C1379 C 0.90374 0.66321 0.16348 0.0
C1380 C 0.93041 0.68528 0.17045 0.0
C1381 C 0.88403 0.63287 0.16948 0.0
C1382 C 0.89155 0.62318 0.18243 0.0
C1383 C 0.91783 0.64556 0.18943 0.0
C1384 C 0.93689 0.67641 0.18352 0.0
C1385 C 0.87311 0.58918 0.1887 0.0
C1386 C 0.85279 0.59478 0.20029 0.0
C1387 C 0.87538 0.55163 0.18344 0.0
C1388 C 0.89446 0.54368 0.17082 0.0
C1389 C 0.93169 0.55734 0.16807 0.0
C1390 C 0.94808 0.5517 0.15585 0.0
C1391 C 0.92813 0.53125 0.14643 0.0
C1392 C 0.89161 0.51667 0.14916 0.0
C1393 C 0.87473 0.52297 0.16125 0.0
H1394 H 0.941 0.52662 0.13702 0.0
H1395 H 0.7473 0.59798 0.24817 0.0
H1396 H 0.87531 0.64568 0.47657 0.0
H1397 H 0.81845 0.67027 0.46553 0.0
H1398 H 0.74577 0.61019 0.49283 0.0
H1399 H 0.80279 0.58441 0.50358 0.0
H1400 H 0.71736 0.59938 0.47123 0.0
H1401 H 0.75809 0.71297 0.49156 0.0
H1402 H 0.79812 0.76727 0.4987 0.0
H1403 H 0.81352 0.80338 0.45929 0.0
H1404 H 0.77438 0.74877 0.45186 0.0
H1405 H 0.55228 0.69422 0.44272 0.0
H1406 H 0.60217 0.68128 0.45904 0.0
H1407 H 0.68989 0.69476 0.42982 0.0
H1408 H 0.64049 0.70621 0.41353 0.0
H1409 H 0.70454 0.73272 0.45479 0.0
H1410 H 0.66721 0.6098 0.43601 0.0
H1411 H 0.61943 0.56014 0.43056 0.0
H1412 H 0.58954 0.54833 0.47071 0.0
H1413 H 0.63682 0.59838 0.47636 0.0
C1414 C 0.84719 0.63805 0.4803 0.0
C1415 C 0.84358 0.61306 0.49095 0.0
C1416 C 0.81457 0.65236 0.47402 0.0
C1417 C 0.77745 0.64276 0.47841 0.0
C1418 C 0.77389 0.61815 0.48919 0.0
C1419 C 0.80653 0.60333 0.49533 0.0
C1420 C 0.7426 0.65613 0.47123 0.0
C1421 C 0.71434 0.62888 0.46797 0.0
C1422 C 0.73817 0.69458 0.46679 0.0
C1423 C 0.76358 0.72635 0.47114 0.0
C1424 C 0.77051 0.73207 0.48439 0.0
C1425 C 0.79297 0.76302 0.48849 0.0
C1426 C 0.80844 0.7887 0.47945 0.0
C1427 C 0.80161 0.7834 0.46628 0.0
C1428 C 0.77933 0.75241 0.46212 0.0
C1429 C 0.58224 0.6947 0.43986 0.0
C1430 C 0.59259 0.70073 0.42686 0.0
C1431 C 0.61064 0.68727 0.44915 0.0
C1432 C 0.64971 0.68692 0.44561 0.0
C1433 C 0.65998 0.69489 0.43276 0.0
C1434 C 0.63172 0.70122 0.42346 0.0
C1435 C 0.68015 0.67613 0.45497 0.0
C1436 C 0.70757 0.70367 0.45846 0.0
C1437 C 0.68322 0.63845 0.45997 0.0
C1438 C 0.65518 0.60811 0.45658 0.0
C1439 C 0.65021 0.59684 0.44365 0.0
C1440 C 0.62327 0.56858 0.44053 0.0
C1441 C 0.60137 0.55117 0.45028 0.0
C1442 C 0.60647 0.5619 0.46317 0.0
C1443 C 0.63334 0.59018 0.46633 0.0
H1444 H 0.58053 0.5293 0.44784 0.0
H1445 H 0.82561 0.81278 0.48266 0.0
H1446 H 0.69011 0.64777 0.70224 0.0
H1447 H 0.66404 0.60038 0.68712 0.0
H1448 H 0.69053 0.50949 0.7141 0.0
H1449 H 0.71649 0.55672 0.72927 0.0
H1450 H 0.71365 0.49368 0.68868 0.0
H1451 H 0.60237 0.53957 0.71192 0.0
H1452 H 0.55552 0.58726 0.7198 0.0
H1453 H 0.5275 0.61768 0.68069 0.0
H1454 H 0.57475 0.57059 0.67257 0.0
H1455 H 0.59405 0.33669 0.68143 0.0
H1456 H 0.62642 0.39544 0.68783 0.0
H1457 H 0.59187 0.45015 0.65225 0.0
H1458 H 0.55936 0.39029 0.64558 0.0
H1459 H 0.57575 0.49204 0.67673 0.0
H1460 H 0.67991 0.43584 0.6539 0.0
H1461 H 0.72313 0.38362 0.64701 0.0
H1462 H 0.76222 0.36954 0.68606 0.0
H1463 H 0.71878 0.42126 0.69324 0.0
C1464 C 0.69056 0.61763 0.7049 0.0
C1465 C 0.70536 0.60583 0.71691 0.0
C1466 C 0.6755 0.59068 0.69629 0.0
C1467 C 0.67532 0.5515 0.69951 0.0
C1468 C 0.69048 0.53963 0.71144 0.0
C1469 C 0.70508 0.56658 0.72011 0.0
C1470 C 0.65926 0.52261 0.69054 0.0
C1471 C 0.68353 0.49334 0.68604 0.0
C1472 C 0.6202 0.52296 0.68677 0.0
C1473 C 0.59263 0.55206 0.69164 0.0
C1474 C 0.58668 0.55685 0.705 0.0
C1475 C 0.55994 0.58367 0.70951 0.0
C1476 C 0.53871 0.60564 0.70075 0.0
C1477 C 0.54412 0.60077 0.68746 0.0
C1478 C 0.57089 0.57405 0.6829 0.0
C1479 C 0.59337 0.36111 0.6749 0.0
C1480 C 0.57392 0.35907 0.66304 0.0
C1481 C 0.61211 0.39458 0.67855 0.0
C1482 C 0.61167 0.42698 0.6705 0.0
C1483 C 0.59257 0.42525 0.65856 0.0
C1484 C 0.5742 0.39118 0.65476 0.0
C1485 C 0.62994 0.46266 0.67518 0.0
C1486 C 0.60615 0.49315 0.67898 0.0
C1487 C 0.66938 0.46335 0.67838 0.0
C1488 C 0.69594 0.43241 0.67412 0.0
C1489 C 0.69753 0.42146 0.66104 0.0
C1490 C 0.72211 0.39195 0.65708 0.0
C1491 C 0.74539 0.37325 0.6661 0.0
C1492 C 0.74419 0.38407 0.67909 0.0
C1493 C 0.71964 0.41355 0.68311 0.0
H1494 H 0.76438 0.3504 0.66301 0.0
H1495 H 0.51795 0.62631 0.70426 0.0
H1496 H 0.62228 0.61898 0.05489 0.0
H1497 H 0.66876 0.63829 0.07123 0.0
H1498 H 0.75405 0.56487 0.05373 0.0
H1499 H 0.70746 0.5453 0.03729 0.0
H1500 H 0.75558 0.55943 0.07983 0.0
H1501 H 0.75464 0.66101 0.04839 0.0
H1502 H 0.72468 0.71033 0.03455 0.0
H1503 H 0.6832 0.76942 0.0682 0.0
H1504 H 0.71232 0.72001 0.08226 0.0
H1505 H 0.92615 0.6441 0.10354 0.0
H1506 H 0.87254 0.61686 0.09171 0.0
H1507 H 0.79488 0.69532 0.11068 0.0
H1508 H 0.8488 0.72362 0.12241 0.0
H1509 H 0.78603 0.69776 0.08516 0.0
H1510 H 0.79297 0.59705 0.11672 0.0
H1511 H 0.82414 0.54698 0.12994 0.0
H1512 H 0.8571 0.48638 0.09554 0.0
H1513 H 0.82669 0.53638 0.0821 0.0
C1514 C 0.65102 0.60714 0.05444 0.0
C1515 C 0.66135 0.58099 0.04468 0.0
C1516 C 0.67752 0.61812 0.06382 0.0
C1517 C 0.71506 0.60347 0.0636 0.0
C1518 C 0.72523 0.57657 0.05408 0.0
C1519 C 0.69862 0.56542 0.04469 0.0
C1520 C 0.74385 0.61688 0.07314 0.0
C1521 C 0.76255 0.58964 0.08093 0.0
C1522 C 0.75224 0.6564 0.07478 0.0
C1523 C 0.7352 0.68649 0.06637 0.0
C1524 C 0.73886 0.68434 0.05284 0.0
C1525 C 0.72206 0.71232 0.04496 0.0
C1526 C 0.70183 0.74282 0.05049 0.0
C1527 C 0.69871 0.74564 0.06393 0.0
C1528 C 0.71536 0.71766 0.07186 0.0
C1529 C 0.89764 0.65528 0.1054 0.0
C1530 C 0.89195 0.68638 0.11387 0.0
C1531 C 0.86688 0.6394 0.09866 0.0
C1532 C 0.82959 0.65388 0.10033 0.0
C1533 C 0.82343 0.68369 0.10924 0.0
C1534 C 0.85429 0.69969 0.116 0.0
C1535 C 0.79798 0.64031 0.09187 0.0
C1536 C 0.77879 0.66757 0.08422 0.0
C1537 C 0.78943 0.6008 0.0903 0.0
C1538 C 0.80772 0.57064 0.09839 0.0
C1539 C 0.80712 0.57321 0.11197 0.0
C1540 C 0.82463 0.5448 0.1195 0.0
C1541 C 0.84262 0.51354 0.11358 0.0
C1542 C 0.84315 0.51061 0.10011 0.0
C1543 C 0.82574 0.53896 0.09253 0.0
H1544 H 0.85608 0.49149 0.1194 0.0
H1545 H 0.68855 0.76422 0.04436 0.0
H1546 H 0.63503 0.44185 0.28398 0.0
H1547 H 0.61977 0.50045 0.29582 0.0
H1548 H 0.73334 0.50067 0.31232 0.0
H1549 H 0.74903 0.44202 0.30038 0.0
H1550 H 0.67965 0.51267 0.33042 0.0
H1551 H 0.70898 0.56502 0.28909 0.0
H1552 H 0.70551 0.57079 0.26538 0.0
H1553 H 0.58576 0.59927 0.26804 0.0
H1554 H 0.58823 0.59272 0.29178 0.0
H1555 H 0.64066 0.68312 0.36336 0.0
H1556 H 0.67285 0.64193 0.34754 0.0
H1557 H 0.56742 0.63373 0.32589 0.0
H1558 H 0.53595 0.67686 0.3413 0.0
H1559 H 0.6252 0.62947 0.30982 0.0
H1560 H 0.595 0.56853 0.35074 0.0
H1561 H 0.59774 0.56067 0.37446 0.0
H1562 H 0.72019 0.5471 0.3723 0.0
H1563 H 0.71806 0.55555 0.3486 0.0
C1564 C 0.65703 0.45463 0.28996 0.0
C1565 C 0.69336 0.43726 0.29117 0.0
C1566 C 0.64823 0.48819 0.29674 0.0
C1567 C 0.67557 0.50531 0.30483 0.0
C1568 C 0.71182 0.48803 0.30611 0.0
C1569 C 0.72067 0.4544 0.29932 0.0
C1570 C 0.66553 0.54019 0.31239 0.0
C1571 C 0.6685 0.53852 0.32589 0.0
C1572 C 0.65032 0.57368 0.3065 0.0
C1573 C 0.64874 0.57809 0.29223 0.0
C1574 C 0.68182 0.57223 0.28462 0.0
C1575 C 0.68004 0.57568 0.27117 0.0
C1576 C 0.64545 0.58541 0.2652 0.0
C1577 C 0.61254 0.59173 0.27268 0.0
C1578 C 0.61411 0.58814 0.28614 0.0
C1579 C 0.62484 0.67354 0.35496 0.0
C1580 C 0.58589 0.68307 0.35352 0.0
C1581 C 0.64309 0.6497 0.346 0.0
C1582 C 0.62226 0.6336 0.33573 0.0
C1583 C 0.58413 0.64555 0.33375 0.0
C1584 C 0.56615 0.67032 0.34253 0.0
C1585 C 0.63871 0.60169 0.32788 0.0
C1586 C 0.63689 0.60384 0.31433 0.0
C1587 C 0.65499 0.56851 0.33372 0.0
C1588 C 0.65632 0.56309 0.34794 0.0
C1589 C 0.62244 0.56407 0.35536 0.0
C1590 C 0.62391 0.55951 0.36878 0.0
C1591 C 0.65913 0.55345 0.37488 0.0
C1592 C 0.69293 0.55187 0.36757 0.0
C1593 C 0.69159 0.55656 0.35414 0.0
H1594 H 0.66024 0.54992 0.38528 0.0
H1595 H 0.64416 0.58809 0.25478 0.0
H1596 H 0.84373 0.40545 0.53672 0.0
H1597 H 0.79334 0.37237 0.54904 0.0
H1598 H 0.80794 0.45264 0.58035 0.0
H1599 H 0.85789 0.4861 0.568 0.0
H1600 H 0.79059 0.33499 0.57139 0.0
H1601 H 0.72291 0.47094 0.59444 0.0
H1602 H 0.71469 0.53985 0.58944 0.0
H1603 H 0.7226 0.51575 0.54882 0.0
H1604 H 0.73033 0.44669 0.55357 0.0
H1605 H 0.65635 0.28204 0.62123 0.0
H1606 H 0.70978 0.3111 0.60917 0.0
H1607 H 0.63004 0.35624 0.58116 0.0
H1608 H 0.57677 0.32798 0.5931 0.0
H1609 H 0.67973 0.40975 0.58807 0.0
H1610 H 0.68426 0.27911 0.57393 0.0
H1611 H 0.68735 0.20867 0.57663 0.0
H1612 H 0.7969 0.21909 0.5952 0.0
H1613 H 0.79429 0.28964 0.59274 0.0
C1614 C 0.8362 0.41597 0.54625 0.0
C1615 C 0.85448 0.44861 0.55135 0.0
C1616 C 0.80752 0.39697 0.55329 0.0
C1617 C 0.7966 0.41017 0.56558 0.0
C1618 C 0.81538 0.4423 0.5708 0.0
C1619 C 0.8438 0.46152 0.56371 0.0
C1620 C 0.76473 0.39116 0.57277 0.0
C1621 C 0.76641 0.35133 0.57508 0.0
C1622 C 0.73273 0.41228 0.57735 0.0
C1623 C 0.72762 0.45372 0.57438 0.0
C1624 C 0.72276 0.48035 0.58444 0.0
C1625 C 0.7182 0.51943 0.58165 0.0
C1626 C 0.71826 0.53218 0.56882 0.0
C1627 C 0.72271 0.50586 0.55875 0.0
C1628 C 0.72722 0.46675 0.56149 0.0
C1629 C 0.65018 0.29823 0.61252 0.0
C1630 C 0.61217 0.30265 0.60817 0.0
C1631 C 0.68078 0.31462 0.6056 0.0
C1632 C 0.67387 0.33564 0.59422 0.0
C1633 C 0.63602 0.3402 0.58992 0.0
C1634 C 0.60557 0.32387 0.59678 0.0
C1635 C 0.70575 0.35371 0.58684 0.0
C1636 C 0.70406 0.39341 0.58449 0.0
C1637 C 0.73701 0.33221 0.5819 0.0
C1638 C 0.73888 0.28973 0.58328 0.0
C1639 C 0.70888 0.26641 0.57868 0.0
C1640 C 0.71057 0.22646 0.58014 0.0
C1641 C 0.74221 0.20944 0.58613 0.0
C1642 C 0.77236 0.23233 0.59059 0.0
C1643 C 0.77082 0.2723 0.58915 0.0
H1644 H 0.7434 0.17853 0.5873 0.0
H1645 H 0.71477 0.56245 0.56668 0.0
H1646 H 0.80822 0.55259 0.78431 0.0
H1647 H 0.83255 0.5049 0.79965 0.0
H1648 H 0.82961 0.58941 0.83005 0.0
H1649 H 0.80667 0.63758 0.81469 0.0
H1650 H 0.89415 0.54914 0.83138 0.0
H1651 H 0.76094 0.51938 0.82836 0.0
H1652 H 0.69976 0.50499 0.81746 0.0
H1653 H 0.74918 0.40324 0.80093 0.0
H1654 H 0.81086 0.41731 0.81158 0.0
H1655 H 0.93639 0.40063 0.87809 0.0
H1656 H 0.90635 0.45516 0.86686 0.0
H1657 H 0.89028 0.38439 0.8331 0.0
H1658 H 0.91801 0.33006 0.84437 0.0
H1659 H 0.8299 0.4227 0.83619 0.0
H1660 H 0.96687 0.4599 0.83744 0.0
H1661 H 0.02727 0.47732 0.84855 0.0
H1662 H 0.96842 0.56625 0.86929 0.0
H1663 H 0.90785 0.54948 0.85835 0.0
C1664 C 0.81297 0.56112 0.79423 0.0
C1665 C 0.80515 0.59889 0.79826 0.0
C1666 C 0.82656 0.53371 0.80304 0.0
C1667 C 0.83241 0.54339 0.81607 0.0
C1668 C 0.82514 0.58117 0.82008 0.0
C1669 C 0.81161 0.60859 0.81129 0.0
C1670 C 0.84635 0.51411 0.82548 0.0
C1671 C 0.87987 0.52162 0.83255 0.0
C1672 C 0.82773 0.47826 0.82707 0.0
C1673 C 0.79062 0.46958 0.82069 0.0
C1674 C 0.75885 0.49408 0.82232 0.0
C1675 C 0.72407 0.48596 0.8162 0.0
C1676 C 0.72061 0.45327 0.80849 0.0
C1677 C 0.75191 0.42857 0.8069 0.0
C1678 C 0.78678 0.43658 0.81299 0.0
C1679 C 0.92611 0.39679 0.86831 0.0
C1680 C 0.92926 0.36086 0.8622 0.0
C1681 C 0.90927 0.42807 0.86183 0.0
C1682 C 0.89636 0.42423 0.84901 0.0
C1683 C 0.89959 0.38828 0.84299 0.0
C1684 C 0.9155 0.35705 0.8495 0.0
C1685 C 0.87891 0.45683 0.84166 0.0
C1686 C 0.84431 0.45016 0.83505 0.0
C1687 C 0.89648 0.49348 0.84057 0.0
C1688 C 0.93283 0.50311 0.84721 0.0
C1689 C 0.96684 0.48293 0.84445 0.0
C1690 C 1.00105 0.49271 0.85068 0.0
C1691 C 1.00158 0.52263 0.85965 0.0
C1692 C 0.96795 0.543 0.86237 0.0
C1693 C 0.93371 0.53344 0.85614 0.0
H1694 H 0.02809 0.53012 0.86446 0.0
H1695 H 0.69365 0.44703 0.80375 0.0
H1696 H 0.38943 0.62706 0.05464 0.0
H1697 H 0.34246 0.64642 0.07096 0.0
H1698 H 0.2529 0.58936 0.04964 0.0
H1699 H 0.29957 0.57093 0.03302 0.0
H1700 H 0.23022 0.65912 0.05754 0.0
H1701 H 0.29142 0.54942 0.07701 0.0
H1702 H 0.34615 0.51093 0.0848 0.0
H1703 H 0.37656 0.60069 0.11125 0.0
H1704 H 0.32228 0.63998 0.10349 0.0
H1705 H 0.08417 0.64705 0.10326 0.0
H1706 H 0.13867 0.6247 0.09053 0.0
H1707 H 0.2129 0.70452 0.11012 0.0
H1708 H 0.15823 0.72771 0.12291 0.0
H1709 H 0.24569 0.62624 0.10399 0.0
H1710 H 0.18546 0.7361 0.08441 0.0
H1711 H 0.13007 0.7742 0.07701 0.0
H1712 H 0.09817 0.68399 0.05095 0.0
H1713 H 0.15317 0.64502 0.05834 0.0
C1714 C 0.35966 0.61899 0.05333 0.0
C1715 C 0.34823 0.59755 0.04248 0.0
C1716 C 0.33293 0.6297 0.06276 0.0
C1717 C 0.29425 0.61894 0.06161 0.0
C1718 C 0.28265 0.59783 0.05075 0.0
C1719 C 0.30938 0.58712 0.0413 0.0
C1720 C 0.26569 0.63033 0.07158 0.0
C1721 C 0.23349 0.65152 0.06766 0.0
C1722 C 0.27044 0.62142 0.08487 0.0
C1723 C 0.30303 0.5978 0.08957 0.0
C1724 C 0.30996 0.56109 0.08441 0.0
C1725 C 0.34087 0.5391 0.08884 0.0
C1726 C 0.36488 0.5534 0.09849 0.0
C1727 C 0.35797 0.58968 0.10376 0.0
C1728 C 0.32712 0.61181 0.09936 0.0
C1729 C 0.11213 0.65949 0.10509 0.0
C1730 C 0.11659 0.68967 0.11399 0.0
C1731 C 0.14328 0.64656 0.0978 0.0
C1732 C 0.17957 0.66333 0.09929 0.0
C1733 C 0.18501 0.69127 0.10886 0.0
C1734 C 0.1537 0.70446 0.11615 0.0
C1735 C 0.2103 0.65444 0.08984 0.0
C1736 C 0.24275 0.63389 0.09386 0.0
C1737 C 0.20597 0.66398 0.07663 0.0
C1738 C 0.1732 0.6875 0.07201 0.0
C1739 C 0.16646 0.72425 0.07717 0.0
C1740 C 0.13516 0.74603 0.07297 0.0
C1741 C 0.11053 0.7315 0.06355 0.0
C1742 C 0.11725 0.69519 0.05826 0.0
C1743 C 0.14851 0.67325 0.06244 0.0
H1744 H 0.08629 0.74842 0.06031 0.0
H1745 H 0.38879 0.53633 0.1019 0.0
H1746 H 0.17713 0.61405 0.81672 0.0
H1747 H 0.15899 0.55717 0.82928 0.0
H1748 H 0.16615 0.48783 0.79487 0.0
H1749 H 0.18467 0.54451 0.78226 0.0
H1750 H 0.10109 0.47342 0.80838 0.0
H1751 H 0.2363 0.48398 0.81821 0.0
H1752 H 0.29472 0.51677 0.82588 0.0
H1753 H 0.24211 0.53408 0.86304 0.0
H1754 H 0.18314 0.50202 0.8555 0.0
H1755 H 0.07203 0.29625 0.839 0.0
H1756 H 0.10529 0.34642 0.82664 0.0
H1757 H 0.11297 0.41576 0.86108 0.0
H1758 H 0.08198 0.36469 0.87358 0.0
H1759 H 0.17214 0.42965 0.84721 0.0
H1760 H 0.03814 0.41826 0.83832 0.0
H1761 H 0.9781 0.38784 0.83122 0.0
H1762 H 0.02432 0.37505 0.79294 0.0
H1763 H 0.08507 0.40487 0.79987 0.0
C1764 C 0.17533 0.58663 0.81184 0.0
C1765 C 0.18246 0.5839 0.79846 0.0
C1766 C 0.1649 0.55411 0.81904 0.0
C1767 C 0.1616 0.51811 0.81305 0.0
C1768 C 0.16851 0.5153 0.7997 0.0
C1769 C 0.17893 0.54779 0.79249 0.0
C1770 C 0.14988 0.48354 0.8206 0.0
C1771 C 0.11696 0.46339 0.81675 0.0
C1772 C 0.16985 0.47131 0.83178 0.0
C1773 C 0.20522 0.49084 0.83626 0.0
C1774 C 0.23708 0.49507 0.82798 0.0
C1775 C 0.27031 0.5135 0.8323 0.0
C1776 C 0.2721 0.52758 0.84493 0.0
C1777 C 0.24067 0.52325 0.85325 0.0
C1778 C 0.20736 0.50495 0.84896 0.0
C1779 C 0.08181 0.32179 0.84397 0.0
C1780 C 0.07422 0.32674 0.85721 0.0
C1781 C 0.10051 0.3506 0.83689 0.0
C1782 C 0.11047 0.38552 0.84281 0.0
C1783 C 0.10532 0.38929 0.85623 0.0
C1784 C 0.08762 0.36002 0.86339 0.0
C1785 C 0.12341 0.41911 0.83494 0.0
C1786 C 0.15637 0.43932 0.83878 0.0
C1787 C 0.10305 0.43176 0.82384 0.0
C1788 C 0.06637 0.41378 0.81965 0.0
C1789 C 0.03561 0.409 0.82839 0.0
C1790 C 1.00143 0.39174 0.8244 0.0
C1791 C 0.99735 0.37955 0.81163 0.0
C1792 C 0.02751 0.38452 0.80283 0.0
C1793 C 0.06186 0.40158 0.80679 0.0
H1794 H 0.97082 0.36624 0.80856 0.0
H1795 H 0.29787 0.54178 0.84826 0.0
H1796 H 0.22403 0.51661 0.54744 0.0
H1797 H 0.27695 0.49814 0.56168 0.0
H1798 H 0.19792 0.43504 0.58595 0.0
H1799 H 0.14473 0.45406 0.57192 0.0
H1800 H 0.25167 0.4744 0.60043 0.0
H1801 H 0.25013 0.38806 0.56412 0.0
H1802 H 0.25041 0.37095 0.541 0.0
H1803 H 0.35918 0.42743 0.536 0.0
H1804 H 0.35927 0.44534 0.55907 0.0
H1805 H 0.37662 0.34001 0.63078 0.0
H1806 H 0.32777 0.37929 0.62039 0.0
H1807 H 0.41268 0.4223 0.59342 0.0
H1808 H 0.46102 0.38058 0.60332 0.0
H1809 H 0.35704 0.39872 0.58057 0.0
H1810 H 0.3612 0.48001 0.61806 0.0
H1811 H 0.36105 0.49256 0.64152 0.0
H1812 H 0.24819 0.44366 0.64485 0.0
H1813 H 0.24778 0.43046 0.62142 0.0
C1814 C 0.2178 0.49923 0.5559 0.0
C1815 C 0.18014 0.48653 0.55846 0.0
C1816 C 0.24812 0.48855 0.56401 0.0
C1817 C 0.24149 0.46493 0.57485 0.0
C1818 C 0.20377 0.45326 0.57766 0.0
C1819 C 0.17345 0.4638 0.56953 0.0
C1820 C 0.27409 0.45044 0.58277 0.0
C1821 C 0.27474 0.45777 0.59613 0.0
C1822 C 0.30446 0.42921 0.57715 0.0
C1823 C 0.30448 0.41843 0.56328 0.0
C1824 C 0.27394 0.39711 0.55807 0.0
C1825 C 0.27407 0.38722 0.54498 0.0
C1826 C 0.30474 0.3982 0.53703 0.0
C1827 C 0.33541 0.41901 0.54216 0.0
C1828 C 0.33539 0.42903 0.55524 0.0
C1829 C 0.38519 0.35901 0.62297 0.0
C1830 C 0.42269 0.35752 0.61793 0.0
C1831 C 0.35712 0.38159 0.61699 0.0
C1832 C 0.36628 0.40424 0.6061 0.0
C1833 C 0.40464 0.40503 0.60174 0.0
C1834 C 0.43242 0.38152 0.60748 0.0
C1835 C 0.33536 0.42304 0.59833 0.0
C1836 C 0.33468 0.41614 0.58494 0.0
C1837 C 0.30508 0.44462 0.60398 0.0
C1838 C 0.30456 0.45407 0.61797 0.0
C1839 C 0.33635 0.4719 0.62379 0.0
C1840 C 0.33637 0.47911 0.63709 0.0
C1841 C 0.30466 0.46884 0.64467 0.0
C1842 C 0.27273 0.45162 0.63896 0.0
C1843 C 0.27254 0.44437 0.62566 0.0
H1844 H 0.30483 0.47423 0.65498 0.0
H1845 H 0.30479 0.3905 0.5269 0.0
H1846 H 0.27578 0.434 0.3072 0.0
H1847 H 0.29314 0.48841 0.32092 0.0
H1848 H 0.40027 0.50044 0.30022 0.0
H1849 H 0.38296 0.44649 0.28637 0.0
H1850 H 0.41215 0.50063 0.32552 0.0
H1851 H 0.32775 0.56564 0.29639 0.0
H1852 H 0.2675 0.57677 0.2845 0.0
H1853 H 0.20638 0.58956 0.32038 0.0
H1854 H 0.26619 0.57797 0.33249 0.0
H1855 H 0.43045 0.70709 0.34975 0.0
H1856 H 0.39725 0.6634 0.33487 0.0
H1857 H 0.39753 0.57487 0.36416 0.0
H1858 H 0.4316 0.61785 0.37882 0.0
H1859 H 0.33237 0.61654 0.33332 0.0
H1860 H 0.42871 0.49205 0.35062 0.0
H1861 H 0.48982 0.48306 0.36223 0.0
H1862 H 0.52988 0.59232 0.34822 0.0
H1863 H 0.46965 0.60138 0.3362 0.0
C1864 C 0.30276 0.44858 0.30541 0.0
C1865 C 0.32803 0.4356 0.29569 0.0
C1866 C 0.31267 0.47974 0.31329 0.0
C1867 C 0.34797 0.49873 0.31159 0.0
C1868 C 0.37295 0.48621 0.30177 0.0
C1869 C 0.36307 0.45515 0.29389 0.0
C1870 C 0.35996 0.53017 0.32047 0.0
C1871 C 0.39464 0.52594 0.32719 0.0
C1872 C 0.33739 0.56349 0.32261 0.0
C1873 C 0.3014 0.57058 0.31535 0.0
C1874 C 0.30141 0.57052 0.30175 0.0
C1875 C 0.26734 0.57697 0.29497 0.0
C1876 C 0.23311 0.58377 0.30168 0.0
C1877 C 0.2329 0.58424 0.31519 0.0
C1878 C 0.26689 0.57777 0.32202 0.0
C1879 C 0.42223 0.67875 0.35313 0.0
C1880 C 0.43387 0.66568 0.36538 0.0
C1881 C 0.40334 0.65376 0.34462 0.0
C1882 C 0.39568 0.61554 0.34829 0.0
C1883 C 0.40379 0.60395 0.36101 0.0
C1884 C 0.42313 0.62857 0.3694 0.0
C1885 C 0.38409 0.58643 0.33851 0.0
C1886 C 0.3497 0.59114 0.33163 0.0
C1887 C 0.40712 0.55362 0.33606 0.0
C1888 C 0.44447 0.54754 0.34262 0.0
C1889 C 0.45075 0.51395 0.3499 0.0
C1890 C 0.48526 0.50882 0.35655 0.0
C1891 C 0.51371 0.53709 0.35598 0.0
C1892 C 0.50791 0.57037 0.34864 0.0
C1893 C 0.47361 0.57549 0.34188 0.0
H1894 H 0.5402 0.53315 0.36124 0.0
H1895 H 0.20677 0.58876 0.29641 0.0
H1896 H 0.29842 0.53343 0.97524 0.0
H1897 H 0.24375 0.52011 0.96119 0.0
H1898 H 0.31106 0.43598 0.94058 0.0
H1899 H 0.36636 0.45054 0.95411 0.0
H1900 H 0.26811 0.47475 0.92404 0.0
H1901 H 0.24684 0.41096 0.9651 0.0
H1902 H 0.23925 0.40758 0.9888 0.0
H1903 H 0.14352 0.48516 0.98683 0.0
H1904 H 0.15087 0.48935 0.96311 0.0
H1905 H 0.1426 0.32703 0.90555 0.0
H1906 H 0.19033 0.37204 0.91378 0.0
H1907 H 0.09993 0.45035 0.92476 0.0
H1908 H 0.05178 0.40512 0.91627 0.0
H1909 H 0.14796 0.42937 0.94505 0.0
H1910 H 0.16241 0.47885 0.90254 0.0
H1911 H 0.1698 0.47533 0.87886 0.0
H1912 H 0.27875 0.41921 0.88334 0.0
H1913 H 0.27172 0.42164 0.90705 0.0
C1914 C 0.30184 0.51254 0.96758 0.0
C1915 C 0.33681 0.49278 0.96592 0.0
C1916 C 0.2704 0.50473 0.95962 0.0
C1917 C 0.27305 0.47665 0.94992 0.0
C1918 C 0.30821 0.45772 0.948 0.0
C1919 C 0.33971 0.4657 0.95588 0.0
C1920 C 0.2389 0.46534 0.94219 0.0
C1921 C 0.24184 0.4648 0.92863 0.0
C1922 C 0.20415 0.45334 0.94813 0.0
C1923 C 0.19972 0.45087 0.96237 0.0
C1924 C 0.22437 0.42754 0.96974 0.0
C1925 C 0.22008 0.42543 0.98317 0.0
C1926 C 0.19101 0.44626 0.98933 0.0
C1927 C 0.16609 0.46913 0.98205 0.0
C1928 C 0.1703 0.47138 0.96862 0.0
C1929 C 0.13304 0.35444 0.90933 0.0
C1930 C 0.09371 0.36286 0.91024 0.0
C1931 C 0.16029 0.38016 0.91401 0.0
C1932 C 0.14873 0.41464 0.91984 0.0
C1933 C 0.10943 0.424 0.92022 0.0
C1934 C 0.08204 0.39837 0.91531 0.0
C1935 C 0.17755 0.43777 0.92694 0.0
C1936 C 0.17375 0.44039 0.94042 0.0
C1937 C 0.21162 0.45112 0.92091 0.0
C1938 C 0.21643 0.45029 0.90662 0.0
C1939 C 0.18786 0.46555 0.89849 0.0
C1940 C 0.192 0.46377 0.88505 0.0
C1941 C 0.2247 0.44702 0.8796 0.0
C1942 C 0.25343 0.43218 0.88758 0.0
C1943 C 0.2494 0.4338 0.90103 0.0
H1944 H 0.22779 0.44549 0.8692 0.0
H1945 H 0.18772 0.44458 0.99972 0.0
H1946 H 0.32802 0.57271 0.73406 0.0
H1947 H 0.34678 0.51921 0.72041 0.0
H1948 H 0.24385 0.53357 0.69782 0.0
H1949 H 0.22324 0.58543 0.71211 0.0
H1950 H 0.25538 0.46167 0.7003 0.0
H1951 H 0.33553 0.56346 0.68677 0.0
H1952 H 0.38061 0.61793 0.68809 0.0
H1953 H 0.46651 0.54391 0.70438 0.0
H1954 H 0.42171 0.48908 0.70339 0.0
H1955 H 0.36032 0.33245 0.65463 0.0
H1956 H 0.32449 0.38805 0.66314 0.0
H1957 H 0.38569 0.37853 0.69915 0.0
H1958 H 0.4208 0.32335 0.69094 0.0
H1959 H 0.39009 0.45338 0.68477 0.0
H1960 H 0.29981 0.35442 0.70067 0.0
H1961 H 0.25406 0.30151 0.69688 0.0
H1962 H 0.18704 0.37483 0.67226 0.0
H1963 H 0.23271 0.42804 0.67579 0.0
C1964 C 0.30886 0.56422 0.72636 0.0
C1965 C 0.27401 0.58372 0.72426 0.0
C1966 C 0.32006 0.53392 0.71836 0.0
C1967 C 0.29729 0.52282 0.70783 0.0
C1968 C 0.26219 0.54174 0.70579 0.0
C1969 C 0.25062 0.57175 0.71392 0.0
C1970 C 0.31003 0.49096 0.6992 0.0
C1971 C 0.28467 0.46036 0.69671 0.0
C1972 C 0.34808 0.48912 0.69427 0.0
C1973 C 0.37507 0.52216 0.69508 0.0
C1974 C 0.36389 0.55884 0.69075 0.0
C1975 C 0.38943 0.58978 0.69142 0.0
C1976 C 0.42637 0.5844 0.69634 0.0
C1977 C 0.43786 0.54804 0.70059 0.0
C1978 C 0.4124 0.51701 0.69997 0.0
C1979 C 0.36534 0.34163 0.66447 0.0
C1980 C 0.39377 0.32372 0.67204 0.0
C1981 C 0.34503 0.37347 0.66928 0.0
C1982 C 0.35292 0.38756 0.68171 0.0
C1983 C 0.37951 0.36829 0.68949 0.0
C1984 C 0.39951 0.33665 0.68477 0.0
C1985 C 0.33607 0.42388 0.68654 0.0
C1986 C 0.36067 0.45535 0.68821 0.0
C1987 C 0.29728 0.42688 0.6904 0.0
C1988 C 0.2698 0.39503 0.6884 0.0
C1989 C 0.27547 0.35914 0.69438 0.0
C1990 C 0.24953 0.32913 0.69229 0.0
C1991 C 0.21771 0.33477 0.68431 0.0
C1992 C 0.21171 0.37048 0.67843 0.0
C1993 C 0.23758 0.40058 0.68048 0.0
H1994 H 0.19767 0.3115 0.68271 0.0
H1995 H 0.4461 0.60838 0.69682 0.0
H1996 H 0.1496 0.63071 0.47143 0.0
H1997 H 0.20306 0.64568 0.45694 0.0
H1998 H 0.27679 0.57052 0.47892 0.0
H1999 H 0.22386 0.55677 0.49384 0.0
H2000 H 0.31431 0.63403 0.47263 0.0
H2001 H 0.23825 0.54265 0.44966 0.0
H2002 H 0.17937 0.51533 0.44022 0.0
H2003 H 0.16742 0.61464 0.4158 0.0
H2004 H 0.22597 0.64281 0.42522 0.0
H2005 H 0.46067 0.62653 0.42387 0.0
H2006 H 0.4082 0.60487 0.43806 0.0
H2007 H 0.33419 0.69228 0.42219 0.0
H2008 H 0.38628 0.71428 0.40811 0.0
H2009 H 0.29851 0.6188 0.42525 0.0
H2010 H 0.37311 0.71107 0.44939 0.0
H2011 H 0.43307 0.73692 0.45858 0.0
H2012 H 0.44867 0.63315 0.4805 0.0
H2013 H 0.38901 0.60647 0.47134 0.0
C2014 C 0.17729 0.61777 0.47332 0.0
C2015 C 0.18229 0.59242 0.48382 0.0
C2016 C 0.20777 0.62598 0.46491 0.0
C2017 C 0.24383 0.60869 0.46668 0.0
C2018 C 0.24919 0.58402 0.47729 0.0
C2019 C 0.21876 0.57593 0.48576 0.0
C2020 C 0.27589 0.61641 0.45746 0.0
C2021 C 0.31097 0.63008 0.4623 0.0
C2022 C 0.27153 0.61184 0.44393 0.0
C2023 C 0.23631 0.59499 0.43824 0.0
C2024 C 0.2229 0.5588 0.44235 0.0
C2025 C 0.18961 0.54314 0.43699 0.0
C2026 C 0.16961 0.56328 0.42744 0.0
C2027 C 0.18291 0.59909 0.42321 0.0
C2028 C 0.21617 0.6149 0.42855 0.0
C2029 C 0.43304 0.6407 0.42326 0.0
C2030 C 0.42766 0.67216 0.41489 0.0
C2031 C 0.4032 0.62846 0.43142 0.0
C2032 C 0.36744 0.64717 0.43121 0.0
C2033 C 0.36154 0.67746 0.42248 0.0
C2034 C 0.3914 0.69002 0.41447 0.0
C2035 C 0.33656 0.63646 0.44045 0.0
C2036 C 0.30177 0.62237 0.43561 0.0
C2037 C 0.34123 0.64043 0.45396 0.0
C2038 C 0.37684 0.65661 0.45958 0.0
C2039 C 0.38949 0.69365 0.45609 0.0
C2040 C 0.42337 0.70848 0.4613 0.0
C2041 C 0.44472 0.68665 0.47007 0.0
C2042 C 0.43213 0.65 0.47369 0.0
C2043 C 0.39827 0.63502 0.4685 0.0
H2044 H 0.47096 0.69817 0.47408 0.0
H2045 H 0.14385 0.5511 0.4233 0.0
H2046 H 0.2644 0.45425 0.21738 0.0
H2047 H 0.2372 0.50878 0.2055 0.0
H2048 H 0.12836 0.49105 0.22464 0.0
H2049 H 0.15545 0.43748 0.23684 0.0
H2050 H 0.12248 0.49523 0.19793 0.0
H2051 H 0.18058 0.56499 0.23292 0.0
H2052 H 0.23393 0.58509 0.24697 0.0
H2053 H 0.29461 0.63018 0.21402 0.0
H2054 H 0.24181 0.60983 0.19974 0.0
H2055 H 0.06199 0.70821 0.19054 0.0
H2056 H 0.09225 0.65446 0.20167 0.0
H2057 H 0.11343 0.59894 0.16513 0.0
H2058 H 0.08262 0.65264 0.15382 0.0
H2059 H 0.16626 0.63074 0.19956 0.0
H2060 H 0.11291 0.52139 0.16678 0.0
H2061 H 0.05763 0.49137 0.15581 0.0
H2062 H 0.98441 0.52156 0.18772 0.0
H2063 H 0.03905 0.55282 0.19862 0.0
C2064 C 0.2349 0.4624 0.21926 0.0
C2065 C 0.21203 0.44118 0.228 0.0
C2066 C 0.21938 0.49348 0.21242 0.0
C2067 C 0.18075 0.5038 0.21416 0.0
C2068 C 0.15817 0.48332 0.22308 0.0
C2069 C 0.17368 0.45255 0.22999 0.0
C2070 C 0.16302 0.53464 0.20627 0.0
C2071 C 0.13224 0.52485 0.19825 0.0
C2072 C 0.17572 0.57321 0.20667 0.0
C2073 C 0.20745 0.58547 0.21524 0.0
C2074 C 0.20546 0.57885 0.22865 0.0
C2075 C 0.23557 0.59036 0.23666 0.0
C2076 C 0.2677 0.60879 0.23138 0.0
C2077 C 0.26974 0.61583 0.21809 0.0
C2078 C 0.23972 0.60434 0.21003 0.0
C2079 C 0.07283 0.68454 0.18481 0.0
C2080 C 0.07 0.68497 0.17124 0.0
C2081 C 0.09014 0.65375 0.19123 0.0
C2082 C 0.10492 0.6225 0.18427 0.0
C2083 C 0.10164 0.62239 0.17073 0.0
C2084 C 0.08425 0.65329 0.16427 0.0
C2085 C 0.12545 0.59133 0.19126 0.0
C2086 C 0.15689 0.60104 0.19911 0.0
C2087 C 0.11337 0.55261 0.19078 0.0
C2088 C 0.07967 0.54 0.18334 0.0
C2089 C 0.08475 0.52244 0.17126 0.0
C2090 C 0.05361 0.50512 0.16508 0.0
C2091 C 0.01755 0.50457 0.17106 0.0
C2092 C 0.01229 0.52227 0.18305 0.0
C2093 C 0.0432 0.54015 0.18917 0.0
H2094 H 0.99373 0.49022 0.16643 0.0
H2095 H 0.29097 0.6177 0.2376 0.0
loop_
_geom_bond_atom_site_label_1
_geom_bond_atom_site_label_2
_geom_bond_distance
_geom_bond_site_symmetry_2
_ccdc_geom_bond_type
C0 C1 1.388 . S
C0 C2 1.383 1_565 S
C0 H28 0.928 1_565 S
C1 C0 1.388 . S
C1 C4 1.382 . S
C2 C0 1.383 1_545 S
C2 C3 1.381 1_545 S
C2 H29 0.930 . S
C3 C2 1.381 1_565 S
C3 C5 1.381 . S
C3 C6 1.487 1_565 S
C4 C1 1.382 . S
C4 C5 1.387 . S
C4 H30 0.930 . S
C5 C3 1.381 . S
C5 C4 1.387 . S
C5 H31 0.931 . S
C6 C3 1.487 1_545 S
C6 C13 1.399 . S
C6 N44 1.343 1_545 S
C7 C8 1.384 . S
C7 C9 1.384 . S
C7 H32 0.931 . S
C8 C7 1.384 . S
C8 C11 1.382 . S
C9 C7 1.384 . S
C9 C10 1.381 . S
C9 H33 0.930 1_545 S
C10 C9 1.381 . S
C10 C12 1.381 . S
C10 C13 1.487 . S
C11 C8 1.382 . S
C11 C12 1.387 . S
C11 H34 0.930 . S
C12 C10 1.381 . S
C12 C11 1.387 . S
C12 H35 0.931 . S
C13 C6 1.399 . S
C13 C10 1.487 . S
C13 N45 1.343 . S
C14 C15 1.384 . S
C14 C16 1.384 . S
C14 H36 0.931 . S
C15 C14 1.384 . S
C15 C18 1.382 . S
C16 C14 1.384 . S
C16 C17 1.381 . S
C16 H37 0.930 1_545 S
C17 C16 1.381 . S
C17 C19 1.381 . S
C17 C20 1.487 . S
C18 C15 1.382 . S
C18 C19 1.387 . S
C18 H38 0.930 . S
C19 C17 1.381 . S
C19 C18 1.387 . S
C19 H39 0.931 . S
C20 C17 1.487 . S
C20 C27 1.399 . S
C20 N45 1.343 1_655 S
C21 C22 1.388 . S
C21 C23 1.383 1_565 S
C21 H40 0.928 1_565 S
C22 C21 1.388 . S
C22 C25 1.382 . S
C23 C21 1.383 1_545 S
C23 C24 1.381 1_545 S
C23 H41 0.930 . S
C24 C23 1.381 1_565 S
C24 C26 1.381 . S
C24 C27 1.487 1_565 S
C25 C22 1.382 . S
C25 C26 1.387 . S
C25 H42 0.930 . S
C26 C24 1.381 . S
C26 C25 1.387 . S
C26 H43 0.931 . S
C27 C20 1.399 . S
C27 C24 1.487 1_545 S
C27 N44 1.343 1_645 S
H28 C0 0.928 1_545 S
H29 C2 0.930 . S
H30 C4 0.930 . S
H31 C5 0.931 . S
H32 C7 0.931 . S
H33 C9 0.930 1_565 S
H34 C11 0.930 . S
H35 C12 0.931 . S
H36 C14 0.931 . S
H37 C16 0.930 1_565 S
H38 C18 0.930 . S
H39 C19 0.931 . S
H40 C21 0.928 1_545 S
H41 C23 0.930 . S
H42 C25 0.930 . S
H43 C26 0.931 . S
N44 C6 1.343 1_565 S
N44 C27 1.343 1_465 S
N45 C13 1.343 . S
N45 C20 1.343 1_455 S
C46 C47 1.384 . S
C46 C48 1.384 . S
C46 H74 0.931 . S
C47 C46 1.384 . S
C47 C50 1.382 . S
C48 C46 1.384 . S
C48 C49 1.381 . S
C48 H75 0.930 . S
C49 C48 1.381 . S
C49 C51 1.381 . S
C49 C52 1.487 . S
C50 C47 1.382 . S
C50 C51 1.387 . S
C50 H76 0.930 . S
C51 C49 1.381 . S
C51 C50 1.387 . S
C51 H77 0.931 . S
C52 C49 1.487 . S
C52 C59 1.399 . S
C52 N90 1.343 . S
C53 C54 1.384 . S
C53 C55 1.384 . S
C53 H78 0.931 . S
C54 C53 1.384 . S
C54 C57 1.382 . S
C55 C53 1.384 . S
C55 C56 1.381 . S
C55 H79 0.930 . S
C56 C55 1.381 . S
C56 C58 1.381 . S
C56 C59 1.487 . S
C57 C54 1.382 . S
C57 C58 1.387 . S
C57 H80 0.930 . S
C58 C56 1.381 . S
C58 C57 1.387 . S
C58 H81 0.931 . S
C59 C52 1.399 . S
C59 C56 1.487 . S
C59 N91 1.343 . S
C60 C61 1.384 . S
C60 C62 1.384 . S
C60 H82 0.931 . S
C61 C60 1.384 . S
C61 C64 1.382 . S
C62 C60 1.384 . S
C62 C63 1.381 . S
C62 H83 0.930 . S
C63 C62 1.381 . S
C63 C65 1.381 . S
C63 C66 1.487 . S
C64 C61 1.382 . S
C64 C65 1.387 . S
C64 H84 0.930 . S
C65 C63 1.381 . S
C65 C64 1.387 . S
C65 H85 0.931 . S
C66 C63 1.487 . S
C66 C73 1.399 . S
C66 N91 1.343 . S
C67 C68 1.384 . S
C67 C69 1.384 . S
C67 H86 0.931 . S
C68 C67 1.384 . S
C68 C71 1.382 . S
C69 C67 1.384 . S
C69 C70 1.381 . S
C69 H87 0.930 . S
C70 C69 1.381 . S
C70 C72 1.381 . S
C70 C73 1.487 . S
C71 C68 1.382 . S
C71 C72 1.387 . S
C71 H88 0.930 . S
C72 C70 1.381 . S
C72 C71 1.387 . S
C72 H89 0.931 . S
C73 C66 1.399 . S
C73 C70 1.487 . S
C73 N90 1.343 . S
H74 C46 0.931 . S
H75 C48 0.930 . S
H76 C50 0.930 . S
H77 C51 0.931 . S
H78 C53 0.931 . S
H79 C55 0.930 . S
H80 C57 0.930 . S
H81 C58 0.931 . S
H82 C60 0.931 . S
H83 C62 0.930 . S
H84 C64 0.930 . S
H85 C65 0.931 . S
H86 C67 0.931 . S
H87 C69 0.930 . S
H88 C71 0.930 . S
H89 C72 0.931 . S
N90 C52 1.343 . S
N90 C73 1.343 . S
N91 C59 1.343 . S
N91 C66 1.343 . S
C92 C93 1.384 . S
C92 C94 1.384 . S
C92 H120 0.931 1_545 S
C93 C92 1.384 . S
C93 C96 1.382 . S
C94 C92 1.384 . S
C94 C95 1.381 . S
C94 H121 0.930 1_545 S
C95 C94 1.381 . S
C95 C97 1.381 . S
C95 C98 1.487 1_556 S
C96 C93 1.382 . S
C96 C97 1.387 . S
C96 H122 0.930 . S
C97 C95 1.381 . S
C97 C96 1.387 . S
C97 H123 0.931 . S
C98 C95 1.487 1_554 S
C98 C105 1.399 1_545 S
C98 N136 1.317 1_554 S
C99 C100 1.384 . S
C99 C101 1.384 . S
C99 H124 0.931 1_565 S
C100 C99 1.384 . S
C100 C103 1.382 . S
C101 C99 1.384 . S
C101 C102 1.381 . S
C101 H125 0.930 1_565 S
C102 C101 1.381 . S
C102 C104 1.381 . S
C102 C105 1.487 . S
C103 C100 1.382 . S
C103 C104 1.387 . S
C103 H126 0.930 . S
C104 C102 1.381 . S
C104 C103 1.387 . S
C104 H127 0.931 . S
C105 C98 1.399 1_565 S
C105 C102 1.487 . S
C105 N137 1.343 . S
C106 C107 1.384 . S
C106 C108 1.384 . S
C106 H128 0.931 1_565 S
C107 C106 1.384 . S
C107 C110 1.382 . S
C108 C106 1.384 . S
C108 C109 1.381 . S
C108 H129 0.930 1_565 S
C109 C108 1.381 . S
C109 C111 1.381 . S
C109 C112 1.487 . S
C110 C107 1.382 . S
C110 C111 1.387 . S
C110 H130 0.930 . S
C111 C109 1.381 . S
C111 C110 1.387 . S
C111 H131 0.931 . S
C112 C109 1.487 . S
C112 C119 1.399 1_565 S
C112 N137 1.343 . S
C113 C114 1.384 . S
C113 C115 1.384 . S
C113 H132 0.931 1_545 S
C114 C113 1.384 . S
C114 C117 1.382 . S
C115 C113 1.384 . S
C115 C116 1.381 . S
C115 H133 0.930 1_545 S
C116 C115 1.381 . S
C116 C118 1.381 . S
C116 C119 1.487 1_556 S
C117 C114 1.382 . S
C117 C118 1.387 . S
C117 H134 0.930 . S
C118 C116 1.381 . S
C118 C117 1.387 . S
C118 H135 0.931 . S
C119 C112 1.399 1_545 S
C119 C116 1.487 1_554 S
C119 N136 1.317 1_554 S
H120 C92 0.931 1_565 S
H121 C94 0.930 1_565 S
H122 C96 0.930 . S
H123 C97 0.931 . S
H124 C99 0.931 1_545 S
H125 C101 0.930 1_545 S
H126 C103 0.930 . S
H127 C104 0.931 . S
H128 C106 0.931 1_545 S
H129 C108 0.930 1_545 S
H130 C110 0.930 . S
H131 C111 0.931 . S
H132 C113 0.931 1_565 S
H133 C115 0.930 1_565 S
H134 C117 0.930 . S
H135 C118 0.931 . S
N136 C98 1.317 1_556 S
N136 C119 1.317 1_556 S
N137 C105 1.343 . S
N137 C112 1.343 . S
C138 C139 1.384 . S
C138 C140 1.384 . S
C138 H166 0.931 . S
C139 C138 1.384 . S
C139 C142 1.382 . S
C140 C138 1.384 . S
C140 C141 1.381 . S
C140 H167 0.930 . S
C141 C140 1.381 . S
C141 C143 1.381 . S
C141 C144 1.487 . S
C142 C139 1.382 . S
C142 C143 1.387 . S
C142 H168 0.930 . S
C143 C141 1.381 . S
C143 C142 1.387 . S
C143 H169 0.931 . S
C144 C141 1.487 . S
C144 C151 1.399 . S
C144 N182 1.343 . S
C145 C146 1.384 . S
C145 C147 1.384 . S
C145 H170 0.931 . S
C146 C145 1.384 . S
C146 C149 1.382 . S
C147 C145 1.384 . S
C147 C148 1.381 . S
C147 H171 0.930 . S
C148 C147 1.381 . S
C148 C150 1.381 . S
C148 C151 1.487 . S
C149 C146 1.382 . S
C149 C150 1.387 . S
C149 H172 0.930 . S
C150 C148 1.381 . S
C150 C149 1.387 . S
C150 H173 0.931 . S
C151 C144 1.399 . S
C151 C148 1.487 . S
C151 N183 1.343 . S
C152 C153 1.384 . S
C152 C154 1.384 . S
C152 H174 0.931 . S
C153 C152 1.384 . S
C153 C156 1.382 . S
C154 C152 1.384 . S
C154 C155 1.381 . S
C154 H175 0.930 . S
C155 C154 1.381 . S
C155 C157 1.381 . S
C155 C158 1.487 . S
C156 C153 1.382 . S
C156 C157 1.387 . S
C156 H176 0.930 . S
C157 C155 1.381 . S
C157 C156 1.387 . S
C157 H177 0.931 . S
C158 C155 1.487 . S
C158 C165 1.399 . S
C158 N183 1.343 . S
C159 C160 1.384 . S
C159 C161 1.384 . S
C159 H178 0.931 . S
C160 C159 1.384 . S
C160 C163 1.382 . S
C161 C159 1.384 . S
C161 C162 1.381 . S
C161 H179 0.930 . S
C162 C161 1.381 . S
C162 C164 1.381 . S
C162 C165 1.487 . S
C163 C160 1.382 . S
C163 C164 1.387 . S
C163 H180 0.930 . S
C164 C162 1.381 . S
C164 C163 1.387 . S
C164 H181 0.931 . S
C165 C158 1.399 . S
C165 C162 1.487 . S
C165 N182 1.343 . S
H166 C138 0.931 . S
H167 C140 0.930 . S
H168 C142 0.930 . S
H169 C143 0.931 . S
H170 C145 0.931 . S
H171 C147 0.930 . S
H172 C149 0.930 . S
H173 C150 0.931 . S
H174 C152 0.931 . S
H175 C154 0.930 . S
H176 C156 0.930 . S
H177 C157 0.931 . S
H178 C159 0.931 . S
H179 C161 0.930 . S
H180 C163 0.930 . S
H181 C164 0.931 . S
N182 C144 1.343 . S
N182 C165 1.343 . S
N183 C151 1.343 . S
N183 C158 1.343 . S
C184 C185 1.384 . S
C184 C186 1.384 . S
C184 H212 0.931 . S
C185 C184 1.384 . S
C185 C188 1.382 . S
C186 C184 1.384 . S
C186 C187 1.381 . S
C186 H213 0.930 . S
C187 C186 1.381 . S
C187 C189 1.381 . S
C187 C190 1.487 . S
C188 C185 1.382 . S
C188 C189 1.387 . S
C188 H214 0.930 . S
C189 C187 1.381 . S
C189 C188 1.387 . S
C189 H215 0.931 . S
C190 C187 1.487 . S
C190 C197 1.399 . S
C190 N228 1.343 . S
C191 C192 1.384 . S
C191 C193 1.384 . S
C191 H216 0.931 . S
C192 C191 1.384 . S
C192 C195 1.382 . S
C193 C191 1.384 . S
C193 C194 1.381 . S
C193 H217 0.930 . S
C194 C193 1.381 . S
C194 C196 1.381 . S
C194 C197 1.487 . S
C195 C192 1.382 . S
C195 C196 1.387 . S
C195 H218 0.930 . S
C196 C194 1.381 . S
C196 C195 1.387 . S
C196 H219 0.931 . S
C197 C190 1.399 . S
C197 C194 1.487 . S
C197 N229 1.343 . S
C198 C199 1.384 . S
C198 C200 1.384 . S
C198 H220 0.931 . S
C199 C198 1.384 . S
C199 C202 1.382 . S
C200 C198 1.384 . S
C200 C201 1.381 . S
C200 H221 0.930 . S
C201 C200 1.381 . S
C201 C203 1.381 . S
C201 C204 1.487 . S
C202 C199 1.382 . S
C202 C203 1.387 . S
C202 H222 0.930 . S
C203 C201 1.381 . S
C203 C202 1.387 . S
C203 H223 0.931 . S
C204 C201 1.487 . S
C204 C211 1.399 . S
C204 N229 1.343 . S
C205 C206 1.384 . S
C205 C207 1.384 . S
C205 H224 0.931 . S
C206 C205 1.384 . S
C206 C209 1.382 . S
C207 C205 1.384 . S
C207 C208 1.381 . S
C207 H225 0.930 . S
C208 C207 1.381 . S
C208 C210 1.381 . S
C208 C211 1.487 . S
C209 C206 1.382 . S
C209 C210 1.387 . S
C209 H226 0.930 . S
C210 C208 1.381 . S
C210 C209 1.387 . S
C210 H227 0.931 . S
C211 C204 1.399 . S
C211 C208 1.487 . S
C211 N228 1.343 . S
H212 C184 0.931 . S
H213 C186 0.930 . S
H214 C188 0.930 . S
H215 C189 0.931 . S
H216 C191 0.931 . S
H217 C193 0.930 . S
H218 C195 0.930 . S
H219 C196 0.931 . S
H220 C198 0.931 . S
H221 C200 0.930 . S
H222 C202 0.930 . S
H223 C203 0.931 . S
H224 C205 0.931 . S
H225 C207 0.930 . S
H226 C209 0.930 . S
H227 C210 0.931 . S
N228 C190 1.343 . S
N228 C211 1.343 . S
N229 C197 1.343 . S
N229 C204 1.343 . S
C230 C231 1.384 . S
C230 C232 1.384 . S
C230 H258 0.931 . S
C231 C230 1.384 . S
C231 C234 1.382 . S
C232 C230 1.384 . S
C232 C233 1.381 . S
C232 H259 0.930 . S
C233 C232 1.381 . S
C233 C235 1.381 . S
C233 C236 1.487 . S
C234 C231 1.382 . S
C234 C235 1.387 . S
C234 H260 0.930 . S
C235 C233 1.381 . S
C235 C234 1.387 . S
C235 H261 0.931 . S
C236 C233 1.487 . S
C236 C243 1.399 . S
C236 N274 1.343 . S
C237 C238 1.384 . S
C237 C239 1.384 . S
C237 H262 0.931 . S
C238 C237 1.384 . S
C238 C241 1.382 . S
C239 C237 1.384 . S
C239 C240 1.381 . S
C239 H263 0.930 . S
C240 C239 1.381 . S
C240 C242 1.381 . S
C240 C243 1.487 . S
C241 C238 1.382 . S
C241 C242 1.387 . S
C241 H264 0.930 . S
C242 C240 1.381 . S
C242 C241 1.387 . S
C242 H265 0.931 . S
C243 C236 1.399 . S
C243 C240 1.487 . S
C243 N275 1.343 . S
C244 C245 1.384 . S
C244 C246 1.384 . S
C244 H266 0.931 . S
C245 C244 1.384 . S
C245 C248 1.382 . S
C246 C244 1.384 . S
C246 C247 1.381 . S
C246 H267 0.930 . S
C247 C246 1.381 . S
C247 C249 1.381 . S
C247 C250 1.487 . S
C248 C245 1.382 . S
C248 C249 1.387 . S
C248 H268 0.930 . S
C249 C247 1.381 . S
C249 C248 1.387 . S
C249 H269 0.931 . S
C250 C247 1.487 . S
C250 C257 1.399 . S
C250 N275 1.343 . S
C251 C252 1.384 . S
C251 C253 1.384 . S
C251 H270 0.931 . S
C252 C251 1.384 . S
C252 C255 1.382 . S
C253 C251 1.384 . S
C253 C254 1.381 . S
C253 H271 0.930 . S
C254 C253 1.381 . S
C254 C256 1.381 . S
C254 C257 1.487 . S
C255 C252 1.382 . S
C255 C256 1.387 . S
C255 H272 0.930 . S
C256 C254 1.381 . S
C256 C255 1.387 . S
C256 H273 0.931 . S
C257 C250 1.399 . S
C257 C254 1.487 . S
C257 N274 1.343 . S
H258 C230 0.931 . S
H259 C232 0.930 . S
H260 C234 0.930 . S
H261 C235 0.931 . S
H262 C237 0.931 . S
H263 C239 0.930 . S
H264 C241 0.930 . S
H265 C242 0.931 . S
H266 C244 0.931 . S
H267 C246 0.930 . S
H268 C248 0.930 . S
H269 C249 0.931 . S
H270 C251 0.931 . S
H271 C253 0.930 . S
H272 C255 0.930 . S
H273 C256 0.931 . S
N274 C236 1.343 . S
N274 C257 1.343 . S
N275 C243 1.343 . S
N275 C250 1.343 . S
C276 C277 1.384 . S
C276 C278 1.384 . S
C276 H304 0.931 . S
C277 C276 1.384 . S
C277 C280 1.382 . S
C278 C276 1.384 . S
C278 C279 1.381 . S
C278 H305 0.930 . S
C279 C278 1.381 . S
C279 C281 1.381 . S
C279 C282 1.487 1_556 S
C280 C277 1.382 . S
C280 C281 1.387 . S
C280 H306 0.930 . S
C281 C279 1.381 . S
C281 C280 1.387 . S
C281 H307 0.931 . S
C282 C279 1.487 1_554 S
C282 C289 1.399 . S
C282 N320 1.316 1_554 S
C283 C284 1.384 . S
C283 C285 1.384 . S
C283 H308 0.931 . S
C284 C283 1.384 . S
C284 C287 1.382 . S
C285 C283 1.384 . S
C285 C286 1.381 . S
C285 H309 0.930 . S
C286 C285 1.381 . S
C286 C288 1.381 . S
C286 C289 1.487 . S
C287 C284 1.382 . S
C287 C288 1.387 . S
C287 H310 0.930 . S
C288 C286 1.381 . S
C288 C287 1.387 . S
C288 H311 0.931 . S
C289 C282 1.399 . S
C289 C286 1.487 . S
C289 N321 1.343 . S
C290 C291 1.384 . S
C290 C292 1.384 . S
C290 H312 0.931 . S
C291 C290 1.384 . S
C291 C294 1.382 . S
C292 C290 1.384 . S
C292 C293 1.381 . S
C292 H313 0.930 . S
C293 C292 1.381 . S
C293 C295 1.381 . S
C293 C296 1.487 . S
C294 C291 1.382 . S
C294 C295 1.387 . S
C294 H314 0.930 . S
C295 C293 1.381 . S
C295 C294 1.387 . S
C295 H315 0.931 . S
C296 C293 1.487 . S
C296 C303 1.399 . S
C296 N321 1.343 . S
C297 C298 1.384 . S
C297 C299 1.384 . S
C297 H316 0.931 . S
C298 C297 1.384 . S
C298 C301 1.382 . S
C299 C297 1.384 . S
C299 C300 1.381 . S
C299 H317 0.930 . S
C300 C299 1.381 . S
C300 C302 1.381 . S
C300 C303 1.487 1_556 S
C301 C298 1.382 . S
C301 C302 1.387 . S
C301 H318 0.930 . S
C302 C300 1.381 . S
C302 C301 1.387 . S
C302 H319 0.931 . S
C303 C296 1.399 . S
C303 C300 1.487 1_554 S
C303 N320 1.316 1_554 S
H304 C276 0.931 . S
H305 C278 0.930 . S
H306 C280 0.930 . S
H307 C281 0.931 . S
H308 C283 0.931 . S
H309 C285 0.930 . S
H310 C287 0.930 . S
H311 C288 0.931 . S
H312 C290 0.931 . S
H313 C292 0.930 . S
H314 C294 0.930 . S
H315 C295 0.931 . S
H316 C297 0.931 . S
H317 C299 0.930 . S
H318 C301 0.930 . S
H319 C302 0.931 . S
N320 C282 1.316 1_556 S
N320 C303 1.316 1_556 S
N321 C289 1.343 . S
N321 C296 1.343 . S
C322 C323 1.384 . S
C322 C324 1.384 . S
C322 H350 0.931 . S
C323 C322 1.384 . S
C323 C326 1.382 . S
C324 C322 1.384 . S
C324 C325 1.381 . S
C324 H351 0.930 . S
C325 C324 1.381 . S
C325 C327 1.381 . S
C325 C328 1.487 . S
C326 C323 1.382 . S
C326 C327 1.387 . S
C326 H352 0.930 . S
C327 C325 1.381 . S
C327 C326 1.387 . S
C327 H353 0.931 . S
C328 C325 1.487 . S
C328 C335 1.399 . S
C328 N366 1.343 1_655 S
C329 C330 1.384 . S
C329 C331 1.384 . S
C329 H354 0.931 . S
C330 C329 1.384 . S
C330 C333 1.382 . S
C331 C329 1.384 . S
C331 C332 1.381 . S
C331 H355 0.930 . S
C332 C331 1.381 . S
C332 C334 1.381 . S
C332 C335 1.487 . S
C333 C330 1.382 . S
C333 C334 1.387 . S
C333 H356 0.930 . S
C334 C332 1.381 . S
C334 C333 1.387 . S
C334 H357 0.931 . S
C335 C328 1.399 . S
C335 C332 1.487 . S
C335 N367 1.343 1_655 S
C336 C337 1.384 . S
C336 C338 1.384 . S
C336 H358 0.931 . S
C337 C336 1.384 . S
C337 C340 1.382 . S
C338 C336 1.384 . S
C338 C339 1.381 . S
C338 H359 0.930 . S
C339 C338 1.381 . S
C339 C341 1.381 . S
C339 C342 1.487 . S
C340 C337 1.382 . S
C340 C341 1.387 . S
C340 H360 0.930 . S
C341 C339 1.381 . S
C341 C340 1.387 . S
C341 H361 0.931 . S
C342 C339 1.487 . S
C342 C349 1.399 . S
C342 N367 1.343 . S
C343 C344 1.384 . S
C343 C345 1.384 . S
C343 H362 0.931 . S
C344 C343 1.384 . S
C344 C347 1.382 . S
C345 C343 1.384 . S
C345 C346 1.381 . S
C345 H363 0.930 . S
C346 C345 1.381 . S
C346 C348 1.381 . S
C346 C349 1.487 . S
C347 C344 1.382 . S
C347 C348 1.387 . S
C347 H364 0.930 . S
C348 C346 1.381 . S
C348 C347 1.387 . S
C348 H365 0.931 . S
C349 C342 1.399 . S
C349 C346 1.487 . S
C349 N366 1.343 . S
H350 C322 0.931 . S
H351 C324 0.930 . S
H352 C326 0.930 . S
H353 C327 0.931 . S
H354 C329 0.931 . S
H355 C331 0.930 . S
H356 C333 0.930 . S
H357 C334 0.931 . S
H358 C336 0.931 . S
H359 C338 0.930 . S
H360 C340 0.930 . S
H361 C341 0.931 . S
H362 C343 0.931 . S
H363 C345 0.930 . S
H364 C347 0.930 . S
H365 C348 0.931 . S
N366 C328 1.343 1_455 S
N366 C349 1.343 . S
N367 C335 1.343 1_455 S
N367 C342 1.343 . S
Fe368 O369 1.886 . S
Fe368 O372 1.715 1_455 S
Fe368 O377 2.077 . S
Fe368 O382 1.935 1_455 S
Fe368 O388 2.077 . S
Fe368 O397 1.935 1_455 S
O369 Fe368 1.886 . S
O369 Fe371 1.715 . S
Fe370 O372 1.886 . S
Fe370 O373 1.715 . S
Fe370 O380 1.935 . S
Fe370 O381 2.077 . S
Fe370 O387 1.935 . S
Fe370 O396 2.077 . S
Fe371 O369 1.715 . S
Fe371 O374 1.886 . S
Fe371 O378 1.935 . S
Fe371 O383 2.077 . S
Fe371 O389 1.935 . S
Fe371 O393 2.077 . S
O372 Fe368 1.715 1_655 S
O372 Fe370 1.886 . S
O373 Fe370 1.715 . S
O373 Fe375 1.904 . S
O374 Fe371 1.886 . S
O374 Fe375 1.696 1_455 S
Fe375 O373 1.904 . S
Fe375 O374 1.696 1_655 S
Fe375 O379 2.094 . S
Fe375 O384 1.921 1_655 S
Fe375 O386 2.094 . S
Fe375 O394 1.921 1_655 S
C376 O388 1.381 . S
C376 O389 1.421 . S
O377 Fe368 2.077 . S
O377 C390 1.381 . S
O378 Fe371 1.935 . S
O378 C390 1.421 . S
O379 Fe375 2.094 . S
O379 C395 1.381 . S
O380 Fe370 1.935 . S
O380 C395 1.421 . S
O381 Fe370 2.077 . S
O381 C385 1.381 . S
O382 Fe368 1.935 1_655 S
O382 C385 1.421 . S
O383 Fe371 2.077 . S
O383 C391 1.381 . S
O384 Fe375 1.921 1_455 S
O384 C391 1.421 . S
C385 O381 1.381 . S
C385 O382 1.421 . S
O386 Fe375 2.094 . S
O386 C398 1.381 . S
O387 Fe370 1.935 . S
O387 C398 1.421 . S
O388 Fe368 2.077 . S
O388 C376 1.381 . S
O389 Fe371 1.935 . S
O389 C376 1.421 . S
C390 O377 1.381 . S
C390 O378 1.421 . S
C391 O383 1.381 . S
C391 O384 1.421 . S
C392 O393 1.381 . S
C392 O394 1.421 . S
O393 Fe371 2.077 . S
O393 C392 1.381 . S
O394 Fe375 1.921 1_455 S
O394 C392 1.421 . S
C395 O379 1.381 . S
C395 O380 1.421 . S
O396 Fe370 2.077 . S
O396 C399 1.381 . S
O397 Fe368 1.935 1_655 S
O397 C399 1.421 . S
C398 O386 1.381 . S
C398 O387 1.421 . S
C399 O396 1.381 . S
C399 O397 1.421 . S
Fe400 O401 1.886 . S
Fe400 O404 1.715 . S
Fe400 O409 2.077 . S
Fe400 O414 1.935 . S
Fe400 O420 2.077 . S
Fe400 O429 1.935 . S
O401 Fe400 1.886 . S
O401 Fe403 1.715 . S
Fe402 O404 1.886 . S
Fe402 O405 1.715 . S
Fe402 O412 1.935 . S
Fe402 O413 2.077 . S
Fe402 O419 1.935 . S
Fe402 O428 2.077 . S
Fe403 O401 1.715 . S
Fe403 O406 1.886 . S
Fe403 O410 1.935 . S
Fe403 O415 2.077 . S
Fe403 O421 1.935 . S
Fe403 O425 2.077 . S
O404 Fe400 1.715 . S
O404 Fe402 1.886 . S
O405 Fe402 1.715 . S
O405 Fe407 1.886 . S
O406 Fe403 1.886 . S
O406 Fe407 1.715 . S
Fe407 O405 1.886 . S
Fe407 O406 1.715 . S
Fe407 O411 2.077 . S
Fe407 O416 1.935 . S
Fe407 O418 2.077 . S
Fe407 O426 1.935 . S
C408 O420 1.381 . S
C408 O421 1.421 . S
O409 Fe400 2.077 . S
O409 C422 1.381 . S
O410 Fe403 1.935 . S
O410 C422 1.421 . S
O411 Fe407 2.077 . S
O411 C427 1.381 . S
O412 Fe402 1.935 . S
O412 C427 1.421 . S
O413 Fe402 2.077 . S
O413 C417 1.381 . S
O414 Fe400 1.935 . S
O414 C417 1.421 . S
O415 Fe403 2.077 . S
O415 C423 1.381 . S
O416 Fe407 1.935 . S
O416 C423 1.421 . S
C417 O413 1.381 . S
C417 O414 1.421 . S
O418 Fe407 2.077 . S
O418 C430 1.381 . S
O419 Fe402 1.935 . S
O419 C430 1.421 . S
O420 Fe400 2.077 . S
O420 C408 1.381 . S
O421 Fe403 1.935 . S
O421 C408 1.421 . S
C422 O409 1.381 . S
C422 O410 1.421 . S
C423 O415 1.381 . S
C423 O416 1.421 . S
C424 O425 1.381 . S
C424 O426 1.421 . S
O425 Fe403 2.077 . S
O425 C424 1.381 . S
O426 Fe407 1.935 . S
O426 C424 1.421 . S
C427 O411 1.381 . S
C427 O412 1.421 . S
O428 Fe402 2.077 . S
O428 C431 1.381 . S
O429 Fe400 1.935 . S
O429 C431 1.421 . S
C430 O418 1.381 . S
C430 O419 1.421 . S
C431 O428 1.381 . S
C431 O429 1.421 . S
Fe432 O433 1.886 . S
Fe432 O436 1.715 . S
Fe432 O441 2.077 . S
Fe432 O446 1.935 . S
Fe432 O452 2.077 . S
Fe432 O461 1.935 . S
O433 Fe432 1.886 . S
O433 Fe435 1.715 . S
Fe434 O436 1.886 . S
Fe434 O437 1.715 . S
Fe434 O444 1.935 . S
Fe434 O445 2.077 . S
Fe434 O451 1.935 . S
Fe434 O460 2.077 . S
Fe435 O433 1.715 . S
Fe435 O438 1.886 . S
Fe435 O442 1.935 . S
Fe435 O447 2.077 . S
Fe435 O453 1.935 . S
Fe435 O457 2.077 . S
O436 Fe432 1.715 . S
O436 Fe434 1.886 . S
O437 Fe434 1.715 . S
O437 Fe439 1.886 . S
O438 Fe435 1.886 . S
O438 Fe439 1.715 . S
Fe439 O437 1.886 . S
Fe439 O438 1.715 . S
Fe439 O443 2.077 . S
Fe439 O448 1.935 . S
Fe439 O450 2.077 . S
Fe439 O458 1.935 . S
C440 O452 1.381 . S
C440 O453 1.421 . S
O441 Fe432 2.077 . S
O441 C454 1.381 . S
O442 Fe435 1.935 . S
O442 C454 1.421 . S
O443 Fe439 2.077 . S
O443 C459 1.381 . S
O444 Fe434 1.935 . S
O444 C459 1.421 . S
O445 Fe434 2.077 . S
O445 C449 1.381 . S
O446 Fe432 1.935 . S
O446 C449 1.421 . S
O447 Fe435 2.077 . S
O447 C455 1.381 . S
O448 Fe439 1.935 . S
O448 C455 1.421 . S
C449 O445 1.381 . S
C449 O446 1.421 . S
O450 Fe439 2.077 . S
O450 C462 1.381 . S
O451 Fe434 1.935 . S
O451 C462 1.421 . S
O452 Fe432 2.077 . S
O452 C440 1.381 . S
O453 Fe435 1.935 . S
O453 C440 1.421 . S
C454 O441 1.381 . S
C454 O442 1.421 . S
C455 O447 1.381 . S
C455 O448 1.421 . S
C456 O457 1.381 . S
C456 O458 1.421 . S
O457 Fe435 2.077 . S
O457 C456 1.381 . S
O458 Fe439 1.935 . S
O458 C456 1.421 . S
C459 O443 1.381 . S
C459 O444 1.421 . S
O460 Fe434 2.077 . S
O460 C463 1.381 . S
O461 Fe432 1.935 . S
O461 C463 1.421 . S
C462 O450 1.381 . S
C462 O451 1.421 . S
C463 O460 1.381 . S
C463 O461 1.421 . S
Fe464 O465 1.886 . S
Fe464 O468 1.715 . S
Fe464 O473 2.077 1_455 S
Fe464 O478 1.935 1_455 S
Fe464 O484 2.077 . S
Fe464 O493 1.935 . S
O465 Fe464 1.886 . S
O465 Fe467 1.715 . S
Fe466 O468 1.886 . S
Fe466 O469 1.715 . S
Fe466 O476 1.935 1_455 S
Fe466 O477 2.077 1_455 S
Fe466 O483 1.935 . S
Fe466 O492 2.077 . S
Fe467 O465 1.715 . S
Fe467 O470 1.886 . S
Fe467 O474 1.935 1_455 S
Fe467 O479 2.077 1_455 S
Fe467 O485 1.935 . S
Fe467 O489 2.077 . S
O468 Fe464 1.715 . S
O468 Fe466 1.886 . S
O469 Fe466 1.715 . S
O469 Fe471 1.886 . S
O470 Fe467 1.886 . S
O470 Fe471 1.715 . S
Fe471 O469 1.886 . S
Fe471 O470 1.715 . S
Fe471 O475 2.077 1_455 S
Fe471 O480 1.935 1_455 S
Fe471 O482 2.077 . S
Fe471 O490 1.935 . S
C472 O484 1.381 . S
C472 O485 1.421 . S
O473 Fe464 2.077 1_655 S
O473 C486 1.381 . S
O474 Fe467 1.935 1_655 S
O474 C486 1.421 . S
O475 Fe471 2.077 1_655 S
O475 C491 1.381 . S
O476 Fe466 1.935 1_655 S
O476 C491 1.421 . S
O477 Fe466 2.077 1_655 S
O477 C481 1.381 . S
O478 Fe464 1.935 1_655 S
O478 C481 1.421 . S
O479 Fe467 2.077 1_655 S
O479 C487 1.381 . S
O480 Fe471 1.935 1_655 S
O480 C487 1.421 . S
C481 O477 1.381 . S
C481 O478 1.421 . S
O482 Fe471 2.077 . S
O482 C494 1.381 . S
O483 Fe466 1.935 . S
O483 C494 1.421 . S
O484 Fe464 2.077 . S
O484 C472 1.381 . S
O485 Fe467 1.935 . S
O485 C472 1.421 . S
C486 O473 1.381 . S
C486 O474 1.421 . S
C487 O479 1.381 . S
C487 O480 1.421 . S
C488 O489 1.381 . S
C488 O490 1.421 . S
O489 Fe467 2.077 . S
O489 C488 1.381 . S
O490 Fe471 1.935 . S
O490 C488 1.421 . S
C491 O475 1.381 . S
C491 O476 1.421 . S
O492 Fe466 2.077 . S
O492 C495 1.381 . S
O493 Fe464 1.935 . S
O493 C495 1.421 . S
C494 O482 1.381 . S
C494 O483 1.421 . S
C495 O492 1.381 . S
C495 O493 1.421 . S
H496 C514 0.951 . S
H497 C516 0.951 . S
H498 C518 0.950 . S
H499 C519 0.950 . S
H500 C521 0.950 . S
H501 C524 0.950 . S
H502 C525 0.950 . S
H503 C527 0.950 . S
H504 C528 0.950 . S
H505 C529 0.951 . S
H506 C531 0.951 . S
H507 C533 0.950 . S
H508 C534 0.950 . S
H509 C536 0.950 . S
H510 C539 0.950 . S
H511 C540 0.950 . S
H512 C542 0.950 . S
H513 C543 0.950 . S
C514 H496 0.951 . S
C514 C515 1.366 . S
C514 C516 1.388 . S
C515 C514 1.366 . S
C515 C519 1.385 . S
C516 H497 0.951 . S
C516 C514 1.388 . S
C516 C517 1.366 . S
C517 C516 1.366 . S
C517 C518 1.414 . S
C517 C520 1.499 . S
C518 H498 0.950 . S
C518 C517 1.414 . S
C518 C519 1.374 . S
C519 H499 0.950 . S
C519 C515 1.385 . S
C519 C518 1.374 . S
C520 C517 1.499 . S
C520 C521 1.373 . S
C520 C522 1.389 . S
C521 H500 0.950 . S
C521 C520 1.373 . S
C521 C537 1.377 . S
C522 C520 1.389 . S
C522 C523 1.524 . S
C522 C536 1.377 . S
C523 C522 1.524 . S
C523 C524 1.397 . S
C523 C528 1.363 . S
C524 H501 0.950 . S
C524 C523 1.397 . S
C524 C525 1.334 . S
C525 H502 0.950 . S
C525 C524 1.334 . S
C525 C526 1.287 . S
C526 C525 1.287 . S
C526 C527 1.524 . S
C526 H545 0.913 . S
C527 H503 0.950 . S
C527 C526 1.524 . S
C527 C528 1.415 . S
C528 H504 0.950 . S
C528 C523 1.363 . S
C528 C527 1.415 . S
C529 H505 0.951 . S
C529 C530 1.366 . S
C529 C531 1.388 . S
C530 C529 1.366 . S
C530 C534 1.385 . S
C531 H506 0.951 . S
C531 C529 1.388 . S
C531 C532 1.366 . S
C532 C531 1.366 . S
C532 C533 1.414 . S
C532 C535 1.499 . S
C533 H507 0.950 . S
C533 C532 1.414 . S
C533 C534 1.374 . S
C534 H508 0.950 . S
C534 C530 1.385 . S
C534 C533 1.374 . S
C535 C532 1.499 . S
C535 C536 1.373 . S
C535 C537 1.389 . S
C536 H509 0.950 . S
C536 C522 1.377 . S
C536 C535 1.373 . S
C537 C521 1.377 . S
C537 C535 1.389 . S
C537 C538 1.524 . S
C538 C537 1.524 . S
C538 C539 1.397 . S
C538 C543 1.363 . S
C539 H510 0.950 . S
C539 C538 1.397 . S
C539 C540 1.334 . S
C540 H511 0.950 . S
C540 C539 1.334 . S
C540 C541 1.287 . S
C541 C540 1.287 . S
C541 C542 1.524 . S
C541 H544 0.999 . S
C542 H512 0.950 . S
C542 C541 1.524 . S
C542 C543 1.415 . S
C543 H513 0.950 . S
C543 C538 1.363 . S
C543 C542 1.415 . S
H544 C541 0.999 . S
H545 C526 0.913 . S
H546 C564 0.951 . S
H547 C566 0.951 . S
H548 C568 0.950 1_545 S
H549 C569 0.950 . S
H550 C571 0.950 . S
H551 C574 0.950 . S
H552 C575 0.950 . S
H553 C577 0.950 . S
H554 C578 0.950 . S
H555 C579 0.951 . S
H556 C581 0.951 . S
H557 C583 0.950 . S
H558 C584 0.950 . S
H559 C586 0.950 . S
H560 C589 0.950 . S
H561 C590 0.950 . S
H562 C592 0.950 . S
H563 C593 0.950 . S
C564 H546 0.951 . S
C564 C565 1.366 . S
C564 C566 1.388 . S
C565 C564 1.366 . S
C565 C569 1.385 . S
C566 H547 0.951 . S
C566 C564 1.388 . S
C566 C567 1.366 . S
C567 C566 1.366 . S
C567 C568 1.414 . S
C567 C570 1.499 1_565 S
C568 H548 0.950 1_565 S
C568 C567 1.414 . S
C568 C569 1.374 . S
C569 H549 0.950 . S
C569 C565 1.385 . S
C569 C568 1.374 . S
C570 C567 1.499 1_545 S
C570 C571 1.373 . S
C570 C572 1.389 . S
C571 H550 0.950 . S
C571 C570 1.373 . S
C571 C587 1.377 . S
C572 C570 1.389 . S
C572 C573 1.524 1_545 S
C572 C586 1.377 . S
C573 C572 1.524 1_565 S
C573 C574 1.397 . S
C573 C578 1.363 . S
C574 H551 0.950 . S
C574 C573 1.397 . S
C574 C575 1.334 . S
C575 H552 0.950 . S
C575 C574 1.334 . S
C575 C576 1.287 . S
C576 C575 1.287 . S
C576 C577 1.524 . S
C576 H595 0.913 . S
C577 H553 0.950 . S
C577 C576 1.524 . S
C577 C578 1.415 . S
C578 H554 0.950 . S
C578 C573 1.363 . S
C578 C577 1.415 . S
C579 H555 0.951 . S
C579 C580 1.366 . S
C579 C581 1.388 . S
C580 C579 1.366 . S
C580 C584 1.385 . S
C581 H556 0.951 . S
C581 C579 1.388 . S
C581 C582 1.366 . S
C582 C581 1.366 . S
C582 C583 1.414 . S
C582 C585 1.499 . S
C583 H557 0.950 . S
C583 C582 1.414 . S
C583 C584 1.374 . S
C584 H558 0.950 . S
C584 C580 1.385 . S
C584 C583 1.374 . S
C585 C582 1.499 . S
C585 C586 1.373 . S
C585 C587 1.389 . S
C586 H559 0.950 . S
C586 C572 1.377 . S
C586 C585 1.373 . S
C587 C571 1.377 . S
C587 C585 1.389 . S
C587 C588 1.524 . S
C588 C587 1.524 . S
C588 C589 1.397 . S
C588 C593 1.363 . S
C589 H560 0.950 . S
C589 C588 1.397 . S
C589 C590 1.334 . S
C590 H561 0.950 . S
C590 C589 1.334 . S
C590 C591 1.287 . S
C591 C590 1.287 . S
C591 C592 1.524 . S
C591 H594 0.999 . S
C592 H562 0.950 . S
C592 C591 1.524 . S
C592 C593 1.415 . S
C593 H563 0.950 . S
C593 C588 1.363 . S
C593 C592 1.415 . S
H594 C591 0.999 . S
H595 C576 0.913 . S
H596 C614 0.951 . S
H597 C616 0.951 . S
H598 C618 0.950 . S
H599 C619 0.950 . S
H600 C621 0.950 . S
H601 C624 0.950 . S
H602 C625 0.950 . S
H603 C627 0.950 . S
H604 C628 0.950 . S
H605 C629 0.951 . S
H606 C631 0.951 . S
H607 C633 0.950 . S
H608 C634 0.950 . S
H609 C636 0.950 . S
H610 C639 0.950 . S
H611 C640 0.950 . S
H612 C642 0.950 . S
H613 C643 0.950 . S
C614 H596 0.951 . S
C614 C615 1.366 . S
C614 C616 1.388 . S
C615 C614 1.366 . S
C615 C619 1.385 . S
C616 H597 0.951 . S
C616 C614 1.388 . S
C616 C617 1.366 . S
C617 C616 1.366 . S
C617 C618 1.414 . S
C617 C620 1.499 . S
C618 H598 0.950 . S
C618 C617 1.414 . S
C618 C619 1.374 . S
C619 H599 0.950 . S
C619 C615 1.385 . S
C619 C618 1.374 . S
C620 C617 1.499 . S
C620 C621 1.373 . S
C620 C622 1.389 . S
C621 H600 0.950 . S
C621 C620 1.373 . S
C621 C637 1.377 . S
C622 C620 1.389 . S
C622 C623 1.524 . S
C622 C636 1.377 . S
C623 C622 1.524 . S
C623 C624 1.397 . S
C623 C628 1.363 . S
C624 H601 0.950 . S
C624 C623 1.397 . S
C624 C625 1.334 . S
C625 H602 0.950 . S
C625 C624 1.334 . S
C625 C626 1.287 . S
C626 C625 1.287 . S
C626 C627 1.524 . S
C626 H645 0.913 . S
C627 H603 0.950 . S
C627 C626 1.524 . S
C627 C628 1.415 . S
C628 H604 0.950 . S
C628 C623 1.363 . S
C628 C627 1.415 . S
C629 H605 0.951 . S
C629 C630 1.366 . S
C629 C631 1.388 . S
C630 C629 1.366 . S
C630 C634 1.385 . S
C631 H606 0.951 . S
C631 C629 1.388 . S
C631 C632 1.366 . S
C632 C631 1.366 . S
C632 C633 1.414 . S
C632 C635 1.499 . S
C633 H607 0.950 . S
C633 C632 1.414 . S
C633 C634 1.374 . S
C634 H608 0.950 . S
C634 C630 1.385 . S
C634 C633 1.374 . S
C635 C632 1.499 . S
C635 C636 1.373 . S
C635 C637 1.389 . S
C636 H609 0.950 . S
C636 C622 1.377 . S
C636 C635 1.373 . S
C637 C621 1.377 . S
C637 C635 1.389 . S
C637 C638 1.524 . S
C638 C637 1.524 . S
C638 C639 1.397 . S
C638 C643 1.363 . S
C639 H610 0.950 . S
C639 C638 1.397 . S
C639 C640 1.334 . S
C640 H611 0.950 . S
C640 C639 1.334 . S
C640 C641 1.287 . S
C641 C640 1.287 . S
C641 C642 1.524 . S
C641 H644 0.999 . S
C642 H612 0.950 . S
C642 C641 1.524 . S
C642 C643 1.415 . S
C643 H613 0.950 . S
C643 C638 1.363 . S
C643 C642 1.415 . S
H644 C641 0.999 . S
H645 C626 0.913 . S
H646 C664 0.951 . S
H647 C666 0.951 . S
H648 C668 0.950 . S
H649 C669 0.950 . S
H650 C671 0.950 . S
H651 C674 0.950 . S
H652 C675 0.950 . S
H653 C677 0.950 . S
H654 C678 0.950 . S
H655 C679 0.951 . S
H656 C681 0.951 . S
H657 C683 0.950 . S
H658 C684 0.950 . S
H659 C686 0.950 . S
H660 C689 0.950 . S
H661 C690 0.950 . S
H662 C692 0.950 . S
H663 C693 0.950 . S
C664 H646 0.951 . S
C664 C665 1.366 . S
C664 C666 1.388 . S
C665 C664 1.366 . S
C665 C669 1.385 . S
C666 H647 0.951 . S
C666 C664 1.388 . S
C666 C667 1.366 . S
C667 C666 1.366 . S
C667 C668 1.414 . S
C667 C670 1.499 . S
C668 H648 0.950 . S
C668 C667 1.414 . S
C668 C669 1.374 . S
C669 H649 0.950 . S
C669 C665 1.385 . S
C669 C668 1.374 . S
C670 C667 1.499 . S
C670 C671 1.373 1_545 S
C670 C672 1.389 . S
C671 H650 0.950 . S
C671 C670 1.373 1_565 S
C671 C687 1.377 . S
C672 C670 1.389 . S
C672 C673 1.524 . S
C672 C686 1.377 1_545 S
C673 C672 1.524 . S
C673 C674 1.397 . S
C673 C678 1.363 . S
C674 H651 0.950 . S
C674 C673 1.397 . S
C674 C675 1.334 . S
C675 H652 0.950 . S
C675 C674 1.334 . S
C675 C676 1.287 . S
C676 C675 1.287 . S
C676 C677 1.524 . S
C676 H695 0.913 . S
C677 H653 0.950 . S
C677 C676 1.524 . S
C677 C678 1.415 . S
C678 H654 0.950 . S
C678 C673 1.363 . S
C678 C677 1.415 . S
C679 H655 0.951 . S
C679 C680 1.366 . S
C679 C681 1.388 . S
C680 C679 1.366 . S
C680 C684 1.385 . S
C681 H656 0.951 . S
C681 C679 1.388 . S
C681 C682 1.366 . S
C682 C681 1.366 . S
C682 C683 1.414 . S
C682 C685 1.499 . S
C683 H657 0.950 . S
C683 C682 1.414 . S
C683 C684 1.374 . S
C684 H658 0.950 . S
C684 C680 1.385 . S
C684 C683 1.374 . S
C685 C682 1.499 . S
C685 C686 1.373 . S
C685 C687 1.389 . S
C686 H659 0.950 . S
C686 C672 1.377 1_565 S
C686 C685 1.373 . S
C687 C671 1.377 . S
C687 C685 1.389 . S
C687 C688 1.524 . S
C688 C687 1.524 . S
C688 C689 1.397 . S
C688 C693 1.363 . S
C689 H660 0.950 . S
C689 C688 1.397 . S
C689 C690 1.334 . S
C690 H661 0.950 . S
C690 C689 1.334 . S
C690 C691 1.287 . S
C691 C690 1.287 . S
C691 C692 1.524 . S
C691 H694 0.999 . S
C692 H662 0.950 . S
C692 C691 1.524 . S
C692 C693 1.415 . S
C693 H663 0.950 . S
C693 C688 1.363 . S
C693 C692 1.415 . S
H694 C691 0.999 . S
H695 C676 0.913 . S
H696 C714 0.951 . S
H697 C716 0.951 . S
H698 C718 0.950 . S
H699 C719 0.950 . S
H700 C721 0.950 . S
H701 C724 0.950 . S
H702 C725 0.950 . S
H703 C727 0.950 . S
H704 C728 0.950 . S
H705 C729 0.951 . S
H706 C731 0.951 . S
H707 C733 0.950 . S
H708 C734 0.950 . S
H709 C736 0.950 . S
H710 C739 0.950 . S
H711 C740 0.950 . S
H712 C742 0.950 . S
H713 C743 0.950 . S
C714 H696 0.951 . S
C714 C715 1.366 . S
C714 C716 1.388 . S
C715 C714 1.366 . S
C715 C719 1.385 . S
C716 H697 0.951 . S
C716 C714 1.388 . S
C716 C717 1.366 . S
C717 C716 1.366 . S
C717 C718 1.414 . S
C717 C720 1.499 . S
C718 H698 0.950 . S
C718 C717 1.414 . S
C718 C719 1.374 . S
C719 H699 0.950 . S
C719 C715 1.385 . S
C719 C718 1.374 . S
C720 C717 1.499 . S
C720 C721 1.373 . S
C720 C722 1.389 . S
C721 H700 0.950 . S
C721 C720 1.373 . S
C721 C737 1.377 . S
C722 C720 1.389 . S
C722 C723 1.524 . S
C722 C736 1.377 . S
C723 C722 1.524 . S
C723 C724 1.397 . S
C723 C728 1.363 . S
C724 H701 0.950 . S
C724 C723 1.397 . S
C724 C725 1.334 . S
C725 H702 0.950 . S
C725 C724 1.334 . S
C725 C726 1.287 . S
C726 C725 1.287 . S
C726 C727 1.524 . S
C726 H745 0.913 . S
C727 H703 0.950 . S
C727 C726 1.524 . S
C727 C728 1.415 . S
C728 H704 0.950 . S
C728 C723 1.363 . S
C728 C727 1.415 . S
C729 H705 0.951 . S
C729 C730 1.366 . S
C729 C731 1.388 . S
C730 C729 1.366 . S
C730 C734 1.385 . S
C731 H706 0.951 . S
C731 C729 1.388 . S
C731 C732 1.366 . S
C732 C731 1.366 . S
C732 C733 1.414 . S
C732 C735 1.499 . S
C733 H707 0.950 . S
C733 C732 1.414 . S
C733 C734 1.374 . S
C734 H708 0.950 . S
C734 C730 1.385 . S
C734 C733 1.374 . S
C735 C732 1.499 . S
C735 C736 1.373 . S
C735 C737 1.389 . S
C736 H709 0.950 . S
C736 C722 1.377 . S
C736 C735 1.373 . S
C737 C721 1.377 . S
C737 C735 1.389 . S
C737 C738 1.524 . S
C738 C737 1.524 . S
C738 C739 1.397 . S
C738 C743 1.363 . S
C739 H710 0.950 . S
C739 C738 1.397 . S
C739 C740 1.334 . S
C740 H711 0.950 . S
C740 C739 1.334 . S
C740 C741 1.287 . S
C741 C740 1.287 . S
C741 C742 1.524 . S
C741 H744 0.999 . S
C742 H712 0.950 . S
C742 C741 1.524 . S
C742 C743 1.415 . S
C743 H713 0.950 . S
C743 C738 1.363 . S
C743 C742 1.415 . S
H744 C741 0.999 . S
H745 C726 0.913 . S
H746 C764 0.951 . S
H747 C766 0.951 1_545 S
H748 C768 0.950 . S
H749 C769 0.950 . S
H750 C771 0.950 . S
H751 C774 0.950 . S
H752 C775 0.950 . S
H753 C777 0.950 . S
H754 C778 0.950 . S
H755 C779 0.951 . S
H756 C781 0.951 . S
H757 C783 0.950 . S
H758 C784 0.950 . S
H759 C786 0.950 . S
H760 C789 0.950 . S
H761 C790 0.950 . S
H762 C792 0.950 . S
H763 C793 0.950 . S
C764 H746 0.951 . S
C764 C765 1.366 . S
C764 C766 1.388 . S
C765 C764 1.366 . S
C765 C769 1.385 . S
C766 H747 0.951 1_565 S
C766 C764 1.388 . S
C766 C767 1.366 . S
C767 C766 1.366 . S
C767 C768 1.414 . S
C767 C770 1.499 1_565 S
C768 H748 0.950 . S
C768 C767 1.414 . S
C768 C769 1.374 . S
C769 H749 0.950 . S
C769 C765 1.385 . S
C769 C768 1.374 . S
C770 C767 1.499 1_545 S
C770 C771 1.373 . S
C770 C772 1.389 . S
C771 H750 0.950 . S
C771 C770 1.373 . S
C771 C787 1.377 . S
C772 C770 1.389 . S
C772 C773 1.524 . S
C772 C786 1.377 . S
C773 C772 1.524 . S
C773 C774 1.397 1_545 S
C773 C778 1.363 . S
C774 H751 0.950 . S
C774 C773 1.397 1_565 S
C774 C775 1.334 . S
C775 H752 0.950 . S
C775 C774 1.334 . S
C775 C776 1.287 . S
C776 C775 1.287 . S
C776 C777 1.524 1_565 S
C776 H795 0.913 . S
C777 H753 0.950 . S
C777 C776 1.524 1_545 S
C777 C778 1.415 . S
C778 H754 0.950 . S
C778 C773 1.363 . S
C778 C777 1.415 . S
C779 H755 0.951 . S
C779 C780 1.366 . S
C779 C781 1.388 . S
C780 C779 1.366 . S
C780 C784 1.385 . S
C781 H756 0.951 . S
C781 C779 1.388 . S
C781 C782 1.366 . S
C782 C781 1.366 . S
C782 C783 1.414 . S
C782 C785 1.499 . S
C783 H757 0.950 . S
C783 C782 1.414 . S
C783 C784 1.374 . S
C784 H758 0.950 . S
C784 C780 1.385 . S
C784 C783 1.374 . S
C785 C782 1.499 . S
C785 C786 1.373 . S
C785 C787 1.389 . S
C786 H759 0.950 . S
C786 C772 1.377 . S
C786 C785 1.373 . S
C787 C771 1.377 . S
C787 C785 1.389 . S
C787 C788 1.524 . S
C788 C787 1.524 . S
C788 C789 1.397 . S
C788 C793 1.363 . S
C789 H760 0.950 . S
C789 C788 1.397 . S
C789 C790 1.334 . S
C790 H761 0.950 . S
C790 C789 1.334 . S
C790 C791 1.287 1_455 S
C791 C790 1.287 1_655 S
C791 C792 1.524 . S
C791 H794 0.999 . S
C792 H762 0.950 . S
C792 C791 1.524 . S
C792 C793 1.415 1_655 S
C793 H763 0.950 . S
C793 C788 1.363 . S
C793 C792 1.415 1_455 S
H794 C791 0.999 . S
H795 C776 0.913 . S
H796 C814 0.951 . S
H797 C816 0.951 . S
H798 C818 0.950 . S
H799 C819 0.950 . S
H800 C821 0.950 . S
H801 C824 0.950 . S
H802 C825 0.950 1_545 S
H803 C827 0.950 . S
H804 C828 0.950 . S
H805 C829 0.951 . S
H806 C831 0.951 . S
H807 C833 0.950 . S
H808 C834 0.950 . S
H809 C836 0.950 . S
H810 C839 0.950 . S
H811 C840 0.950 . S
H812 C842 0.950 . S
H813 C843 0.950 . S
C814 H796 0.951 . S
C814 C815 1.366 . S
C814 C816 1.388 . S
C815 C814 1.366 . S
C815 C819 1.385 . S
C816 H797 0.951 . S
C816 C814 1.388 . S
C816 C817 1.366 . S
C817 C816 1.366 . S
C817 C818 1.414 . S
C817 C820 1.499 . S
C818 H798 0.950 . S
C818 C817 1.414 . S
C818 C819 1.374 . S
C819 H799 0.950 . S
C819 C815 1.385 . S
C819 C818 1.374 . S
C820 C817 1.499 . S
C820 C821 1.373 . S
C820 C822 1.389 . S
C821 H800 0.950 . S
C821 C820 1.373 . S
C821 C837 1.377 . S
C822 C820 1.389 . S
C822 C823 1.524 . S
C822 C836 1.377 . S
C823 C822 1.524 . S
C823 C824 1.397 . S
C823 C828 1.363 . S
C824 H801 0.950 . S
C824 C823 1.397 . S
C824 C825 1.334 . S
C825 H802 0.950 1_565 S
C825 C824 1.334 . S
C825 C826 1.287 . S
C826 C825 1.287 . S
C826 C827 1.524 . S
C826 H845 0.913 . S
C827 H803 0.950 . S
C827 C826 1.524 . S
C827 C828 1.415 . S
C828 H804 0.950 . S
C828 C823 1.363 . S
C828 C827 1.415 . S
C829 H805 0.951 . S
C829 C830 1.366 . S
C829 C831 1.388 . S
C830 C829 1.366 . S
C830 C834 1.385 . S
C831 H806 0.951 . S
C831 C829 1.388 . S
C831 C832 1.366 . S
C832 C831 1.366 . S
C832 C833 1.414 . S
C832 C835 1.499 . S
C833 H807 0.950 . S
C833 C832 1.414 . S
C833 C834 1.374 . S
C834 H808 0.950 . S
C834 C830 1.385 . S
C834 C833 1.374 . S
C835 C832 1.499 . S
C835 C836 1.373 . S
C835 C837 1.389 . S
C836 H809 0.950 . S
C836 C822 1.377 . S
C836 C835 1.373 . S
C837 C821 1.377 . S
C837 C835 1.389 . S
C837 C838 1.524 . S
C838 C837 1.524 . S
C838 C839 1.397 . S
C838 C843 1.363 . S
C839 H810 0.950 . S
C839 C838 1.397 . S
C839 C840 1.334 . S
C840 H811 0.950 . S
C840 C839 1.334 . S
C840 C841 1.287 . S
C841 C840 1.287 . S
C841 C842 1.524 . S
C841 H844 0.999 . S
C842 H812 0.950 . S
C842 C841 1.524 . S
C842 C843 1.415 . S
C843 H813 0.950 . S
C843 C838 1.363 . S
C843 C842 1.415 . S
H844 C841 0.999 . S
H845 C826 0.913 . S
H846 C864 0.951 . S
H847 C866 0.951 . S
H848 C868 0.950 . S
H849 C869 0.950 . S
H850 C871 0.950 . S
H851 C874 0.950 . S
H852 C875 0.950 . S
H853 C877 0.950 . S
H854 C878 0.951 1_565 S
H855 C879 0.951 . S
H856 C881 0.951 . S
H857 C883 0.950 . S
H858 C884 0.950 . S
H859 C886 0.950 . S
H860 C889 0.950 . S
H861 C890 0.950 . S
H862 C892 0.950 . S
H863 C893 0.950 . S
C864 H846 0.951 . S
C864 C865 1.366 . S
C864 C866 1.388 . S
C865 C864 1.366 . S
C865 C869 1.385 . S
C866 H847 0.951 . S
C866 C864 1.388 . S
C866 C867 1.366 . S
C867 C866 1.366 . S
C867 C868 1.414 . S
C867 C870 1.499 . S
C868 H848 0.950 . S
C868 C867 1.414 . S
C868 C869 1.374 . S
C869 H849 0.950 . S
C869 C865 1.385 . S
C869 C868 1.374 . S
C870 C867 1.499 . S
C870 C871 1.373 1_545 S
C870 C872 1.389 1_545 S
C871 H850 0.950 . S
C871 C870 1.373 1_565 S
C871 C887 1.377 . S
C872 C870 1.389 1_565 S
C872 C873 1.524 1_565 S
C872 C886 1.377 . S
C873 C872 1.524 1_545 S
C873 C874 1.397 . S
C873 C878 1.363 . S
C874 H851 0.950 . S
C874 C873 1.397 . S
C874 C875 1.334 . S
C875 H852 0.950 . S
C875 C874 1.334 . S
C875 C876 1.287 . S
C876 C875 1.287 . S
C876 C877 1.524 . S
C876 H895 0.913 . S
C877 H853 0.950 . S
C877 C876 1.524 . S
C877 C878 1.415 . S
C878 H854 0.951 1_545 S
C878 C873 1.363 . S
C878 C877 1.415 . S
C879 H855 0.951 . S
C879 C880 1.366 . S
C879 C881 1.388 . S
C880 C879 1.366 . S
C880 C884 1.385 . S
C881 H856 0.951 . S
C881 C879 1.388 . S
C881 C882 1.366 . S
C882 C881 1.366 . S
C882 C883 1.414 . S
C882 C885 1.499 . S
C883 H857 0.950 . S
C883 C882 1.414 . S
C883 C884 1.374 . S
C884 H858 0.950 . S
C884 C880 1.385 . S
C884 C883 1.374 . S
C885 C882 1.499 . S
C885 C886 1.373 . S
C885 C887 1.389 . S
C886 H859 0.950 . S
C886 C872 1.377 . S
C886 C885 1.373 . S
C887 C871 1.377 . S
C887 C885 1.389 . S
C887 C888 1.524 . S
C888 C887 1.524 . S
C888 C889 1.397 . S
C888 C893 1.363 . S
C889 H860 0.950 . S
C889 C888 1.397 . S
C889 C890 1.334 . S
C890 H861 0.950 . S
C890 C889 1.334 . S
C890 C891 1.287 . S
C891 C890 1.287 . S
C891 C892 1.524 . S
C891 H894 0.999 . S
C892 H862 0.950 . S
C892 C891 1.524 . S
C892 C893 1.415 . S
C893 H863 0.950 . S
C893 C888 1.363 . S
C893 C892 1.415 . S
H894 C891 0.999 . S
H895 C876 0.913 . S
H896 C914 0.951 . S
H897 C916 0.951 . S
H898 C918 0.950 . S
H899 C919 0.950 . S
H900 C921 0.950 . S
H901 C924 0.950 . S
H902 C925 0.950 . S
H903 C927 0.950 . S
H904 C928 0.950 . S
H905 C929 0.951 . S
H906 C931 0.951 . S
H907 C933 0.950 . S
H908 C934 0.950 . S
H909 C936 0.950 . S
H910 C939 0.950 . S
H911 C940 0.950 . S
H912 C942 0.950 . S
H913 C943 0.950 . S
C914 H896 0.951 . S
C914 C915 1.366 . S
C914 C916 1.388 . S
C915 C914 1.366 . S
C915 C919 1.385 . S
C916 H897 0.951 . S
C916 C914 1.388 . S
C916 C917 1.366 . S
C917 C916 1.366 . S
C917 C918 1.414 . S
C917 C920 1.499 . S
C918 H898 0.950 . S
C918 C917 1.414 . S
C918 C919 1.374 . S
C919 H899 0.950 . S
C919 C915 1.385 . S
C919 C918 1.374 . S
C920 C917 1.499 . S
C920 C921 1.373 . S
C920 C922 1.389 . S
C921 H900 0.950 . S
C921 C920 1.373 . S
C921 C937 1.377 . S
C922 C920 1.389 . S
C922 C923 1.524 . S
C922 C936 1.377 . S
C923 C922 1.524 . S
C923 C924 1.397 . S
C923 C928 1.363 . S
C924 H901 0.950 . S
C924 C923 1.397 . S
C924 C925 1.334 . S
C925 H902 0.950 . S
C925 C924 1.334 . S
C925 C926 1.287 . S
C926 C925 1.287 . S
C926 C927 1.524 . S
C926 H945 0.913 . S
C927 H903 0.950 . S
C927 C926 1.524 . S
C927 C928 1.415 . S
C928 H904 0.950 . S
C928 C923 1.363 . S
C928 C927 1.415 . S
C929 H905 0.951 . S
C929 C930 1.366 . S
C929 C931 1.388 . S
C930 C929 1.366 . S
C930 C934 1.385 . S
C931 H906 0.951 . S
C931 C929 1.388 . S
C931 C932 1.366 . S
C932 C931 1.366 . S
C932 C933 1.414 . S
C932 C935 1.499 . S
C933 H907 0.950 . S
C933 C932 1.414 . S
C933 C934 1.374 . S
C934 H908 0.950 . S
C934 C930 1.385 . S
C934 C933 1.374 . S
C935 C932 1.499 . S
C935 C936 1.373 . S
C935 C937 1.389 . S
C936 H909 0.950 . S
C936 C922 1.377 . S
C936 C935 1.373 . S
C937 C921 1.377 . S
C937 C935 1.389 . S
C937 C938 1.524 . S
C938 C937 1.524 . S
C938 C939 1.397 . S
C938 C943 1.363 . S
C939 H910 0.950 . S
C939 C938 1.397 . S
C939 C940 1.334 . S
C940 H911 0.950 . S
C940 C939 1.334 . S
C940 C941 1.287 . S
C941 C940 1.287 . S
C941 C942 1.524 . S
C941 H944 0.999 . S
C942 H912 0.950 . S
C942 C941 1.524 . S
C942 C943 1.415 . S
C943 H913 0.950 . S
C943 C938 1.363 . S
C943 C942 1.415 . S
H944 C941 0.999 . S
H945 C926 0.913 . S
H946 C964 0.951 . S
H947 C966 0.951 . S
H948 C968 0.950 . S
H949 C969 0.950 . S
H950 C971 0.950 1_545 S
H951 C974 0.950 . S
H952 C975 0.950 . S
H953 C977 0.950 . S
H954 C978 0.950 . S
H955 C979 0.951 . S
H956 C981 0.951 . S
H957 C983 0.950 . S
H958 C984 0.950 . S
H959 C986 0.950 . S
H960 C989 0.950 . S
H961 C990 0.950 . S
H962 C992 0.950 . S
H963 C993 0.978 . S
C964 H946 0.951 . S
C964 C965 1.366 . S
C964 C966 1.388 . S
C965 C964 1.366 . S
C965 C969 1.385 . S
C966 H947 0.951 . S
C966 C964 1.388 . S
C966 C967 1.366 . S
C967 C966 1.366 . S
C967 C968 1.414 . S
C967 C970 1.499 . S
C968 H948 0.950 . S
C968 C967 1.414 . S
C968 C969 1.374 . S
C969 H949 0.950 . S
C969 C965 1.385 . S
C969 C968 1.374 . S
C970 C967 1.499 . S
C970 C971 1.373 1_545 S
C970 C972 1.389 1_545 S
C971 H950 0.950 1_565 S
C971 C970 1.373 1_565 S
C971 C987 1.377 . S
C972 C970 1.389 1_565 S
C972 C973 1.524 . S
C972 C986 1.377 . S
C973 C972 1.524 . S
C973 C974 1.397 1_565 S
C973 C978 1.363 . S
C974 H951 0.950 . S
C974 C973 1.397 1_545 S
C974 C975 1.334 . S
C975 H952 0.950 . S
C975 C974 1.334 . S
C975 C976 1.287 . S
C976 C975 1.287 . S
C976 C977 1.524 1_545 S
C976 H995 0.913 . S
C977 H953 0.950 . S
C977 C976 1.524 1_565 S
C977 C978 1.415 . S
C978 H954 0.950 . S
C978 C973 1.363 . S
C978 C977 1.415 . S
C979 H955 0.951 . S
C979 C980 1.366 . S
C979 C981 1.388 . S
C980 C979 1.366 . S
C980 C984 1.385 . S
C981 H956 0.951 . S
C981 C979 1.388 . S
C981 C982 1.366 . S
C982 C981 1.366 . S
C982 C983 1.414 . S
C982 C985 1.499 . S
C983 H957 0.950 . S
C983 C982 1.414 . S
C983 C984 1.374 . S
C984 H958 0.950 . S
C984 C980 1.385 . S
C984 C983 1.374 . S
C985 C982 1.499 . S
C985 C986 1.373 . S
C985 C987 1.389 . S
C986 H959 0.950 . S
C986 C972 1.377 . S
C986 C985 1.373 . S
C987 C971 1.377 . S
C987 C985 1.389 . S
C987 C988 1.524 . S
C988 C987 1.524 . S
C988 C989 1.397 . S
C988 C993 1.363 . S
C989 H960 0.950 . S
C989 C988 1.397 . S
C989 C990 1.334 . S
C990 H961 0.950 . S
C990 C989 1.334 . S
C990 C991 1.287 . S
C991 C990 1.287 . S
C991 C992 1.524 . S
C991 H994 0.999 . S
C992 H962 0.950 . S
C992 C991 1.524 . S
C992 C993 1.415 . S
C993 H963 0.978 . S
C993 C988 1.363 . S
C993 C992 1.415 . S
H994 C991 0.999 . S
H995 C976 0.913 . S
H996 C1014 0.951 . S
H997 C1016 0.951 . S
H998 C1018 0.950 . S
H999 C1019 0.950 . S
H1000 C1021 0.950 . S
H1001 C1024 0.950 . S
H1002 C1025 0.950 . S
H1003 C1027 0.950 . S
H1004 C1028 0.950 . S
H1005 C1029 0.951 . S
H1006 C1031 0.951 . S
H1007 C1033 0.950 . S
H1008 C1034 0.950 . S
H1009 C1036 0.950 . S
H1010 C1039 0.950 . S
H1011 C1040 0.950 . S
H1012 C1042 0.950 . S
H1013 C1043 0.950 . S
C1014 H996 0.951 . S
C1014 C1015 1.366 . S
C1014 C1016 1.388 . S
C1015 C1014 1.366 . S
C1015 C1019 1.385 . S
C1016 H997 0.951 . S
C1016 C1014 1.388 . S
C1016 C1017 1.366 . S
C1017 C1016 1.366 . S
C1017 C1018 1.414 . S
C1017 C1020 1.499 . S
C1018 H998 0.950 . S
C1018 C1017 1.414 . S
C1018 C1019 1.374 . S
C1019 H999 0.950 . S
C1019 C1015 1.385 . S
C1019 C1018 1.374 . S
C1020 C1017 1.499 . S
C1020 C1021 1.373 . S
C1020 C1022 1.389 . S
C1021 H1000 0.950 . S
C1021 C1020 1.373 . S
C1021 C1037 1.377 . S
C1022 C1020 1.389 . S
C1022 C1023 1.524 . S
C1022 C1036 1.377 . S
C1023 C1022 1.524 . S
C1023 C1024 1.397 . S
C1023 C1028 1.363 . S
C1024 H1001 0.950 . S
C1024 C1023 1.397 . S
C1024 C1025 1.334 . S
C1025 H1002 0.950 . S
C1025 C1024 1.334 . S
C1025 C1026 1.287 . S
C1026 C1025 1.287 . S
C1026 C1027 1.524 . S
C1026 H1045 0.913 . S
C1027 H1003 0.950 . S
C1027 C1026 1.524 . S
C1027 C1028 1.415 . S
C1028 H1004 0.950 . S
C1028 C1023 1.363 . S
C1028 C1027 1.415 . S
C1029 H1005 0.951 . S
C1029 C1030 1.366 . S
C1029 C1031 1.388 . S
C1030 C1029 1.366 . S
C1030 C1034 1.385 . S
C1031 H1006 0.951 . S
C1031 C1029 1.388 . S
C1031 C1032 1.366 . S
C1032 C1031 1.366 . S
C1032 C1033 1.414 . S
C1032 C1035 1.499 . S
C1033 H1007 0.950 . S
C1033 C1032 1.414 . S
C1033 C1034 1.374 . S
C1034 H1008 0.950 . S
C1034 C1030 1.385 . S
C1034 C1033 1.374 . S
C1035 C1032 1.499 . S
C1035 C1036 1.373 . S
C1035 C1037 1.389 . S
C1036 H1009 0.950 . S
C1036 C1022 1.377 . S
C1036 C1035 1.373 . S
C1037 C1021 1.377 . S
C1037 C1035 1.389 . S
C1037 C1038 1.524 . S
C1038 C1037 1.524 . S
C1038 C1039 1.397 . S
C1038 C1043 1.363 . S
C1039 H1010 0.950 . S
C1039 C1038 1.397 . S
C1039 C1040 1.334 . S
C1040 H1011 0.950 . S
C1040 C1039 1.334 . S
C1040 C1041 1.287 . S
C1041 C1040 1.287 . S
C1041 C1042 1.524 . S
C1041 H1044 0.999 . S
C1042 H1012 0.950 . S
C1042 C1041 1.524 . S
C1042 C1043 1.415 . S
C1043 H1013 0.950 . S
C1043 C1038 1.363 . S
C1043 C1042 1.415 . S
H1044 C1041 0.999 . S
H1045 C1026 0.913 . S
H1046 C1064 0.951 . S
H1047 C1066 0.951 1_545 S
H1048 C1068 0.950 . S
H1049 C1069 0.950 . S
H1050 C1071 0.950 . S
H1051 C1074 0.950 . S
H1052 C1075 0.950 . S
H1053 C1077 0.950 . S
H1054 C1078 0.950 . S
H1055 C1079 0.951 . S
H1056 C1081 0.951 . S
H1057 C1083 0.950 . S
H1058 C1084 0.950 . S
H1059 C1086 0.950 . S
H1060 C1089 0.950 . S
H1061 C1090 0.950 . S
H1062 C1092 0.950 . S
H1063 C1093 0.950 . S
C1064 H1046 0.951 . S
C1064 C1065 1.366 . S
C1064 C1066 1.388 . S
C1065 C1064 1.366 . S
C1065 C1069 1.385 . S
C1066 H1047 0.951 1_565 S
C1066 C1064 1.388 . S
C1066 C1067 1.366 . S
C1067 C1066 1.366 . S
C1067 C1068 1.414 . S
C1067 C1070 1.499 1_565 S
C1068 H1048 0.950 . S
C1068 C1067 1.414 . S
C1068 C1069 1.374 . S
C1069 H1049 0.950 . S
C1069 C1065 1.385 . S
C1069 C1068 1.374 . S
C1070 C1067 1.499 1_545 S
C1070 C1071 1.373 . S
C1070 C1072 1.389 . S
C1071 H1050 0.950 . S
C1071 C1070 1.373 . S
C1071 C1087 1.377 . S
C1072 C1070 1.389 . S
C1072 C1073 1.524 . S
C1072 C1086 1.377 . S
C1073 C1072 1.524 . S
C1073 C1074 1.397 1_545 S
C1073 C1078 1.363 . S
C1074 H1051 0.950 . S
C1074 C1073 1.397 1_565 S
C1074 C1075 1.334 . S
C1075 H1052 0.950 . S
C1075 C1074 1.334 . S
C1075 C1076 1.287 . S
C1076 C1075 1.287 . S
C1076 C1077 1.524 1_565 S
C1076 H1095 0.913 . S
C1077 H1053 0.950 . S
C1077 C1076 1.524 1_545 S
C1077 C1078 1.415 . S
C1078 H1054 0.950 . S
C1078 C1073 1.363 . S
C1078 C1077 1.415 . S
C1079 H1055 0.951 . S
C1079 C1080 1.366 . S
C1079 C1081 1.388 . S
C1080 C1079 1.366 . S
C1080 C1084 1.385 . S
C1081 H1056 0.951 . S
C1081 C1079 1.388 . S
C1081 C1082 1.366 . S
C1082 C1081 1.366 . S
C1082 C1083 1.414 . S
C1082 C1085 1.499 . S
C1083 H1057 0.950 . S
C1083 C1082 1.414 . S
C1083 C1084 1.374 . S
C1084 H1058 0.950 . S
C1084 C1080 1.385 . S
C1084 C1083 1.374 . S
C1085 C1082 1.499 . S
C1085 C1086 1.373 . S
C1085 C1087 1.389 . S
C1086 H1059 0.950 . S
C1086 C1072 1.377 . S
C1086 C1085 1.373 . S
C1087 C1071 1.377 . S
C1087 C1085 1.389 . S
C1087 C1088 1.524 . S
C1088 C1087 1.524 . S
C1088 C1089 1.397 . S
C1088 C1093 1.363 . S
C1089 H1060 0.950 . S
C1089 C1088 1.397 . S
C1089 C1090 1.334 . S
C1090 H1061 0.950 . S
C1090 C1089 1.334 . S
C1090 C1091 1.287 . S
C1091 C1090 1.287 . S
C1091 C1092 1.524 . S
C1091 H1094 0.999 . S
C1092 H1062 0.950 . S
C1092 C1091 1.524 . S
C1092 C1093 1.415 . S
C1093 H1063 0.950 . S
C1093 C1088 1.363 . S
C1093 C1092 1.415 . S
H1094 C1091 0.999 . S
H1095 C1076 0.913 . S
H1096 C1114 0.951 . S
H1097 C1116 0.951 . S
H1098 C1118 0.950 . S
H1099 C1119 0.950 . S
H1100 C1121 0.950 . S
H1101 C1124 0.950 . S
H1102 C1125 0.950 . S
H1103 C1127 0.950 . S
H1104 C1128 0.950 . S
H1105 C1129 0.951 . S
H1106 C1131 0.951 . S
H1107 C1133 0.950 . S
H1108 C1134 0.950 . S
H1109 C1136 0.950 . S
H1110 C1139 0.950 . S
H1111 C1140 0.950 . S
H1112 C1142 0.950 . S
H1113 C1143 0.950 . S
C1114 H1096 0.951 . S
C1114 C1115 1.366 . S
C1114 C1116 1.388 . S
C1115 C1114 1.366 . S
C1115 C1119 1.385 . S
C1116 H1097 0.951 . S
C1116 C1114 1.388 . S
C1116 C1117 1.366 . S
C1117 C1116 1.366 . S
C1117 C1118 1.414 . S
C1117 C1120 1.499 . S
C1118 H1098 0.950 . S
C1118 C1117 1.414 . S
C1118 C1119 1.374 . S
C1119 H1099 0.950 . S
C1119 C1115 1.385 . S
C1119 C1118 1.374 . S
C1120 C1117 1.499 . S
C1120 C1121 1.373 . S
C1120 C1122 1.389 . S
C1121 H1100 0.950 . S
C1121 C1120 1.373 . S
C1121 C1137 1.377 . S
C1122 C1120 1.389 . S
C1122 C1123 1.524 . S
C1122 C1136 1.377 . S
C1123 C1122 1.524 . S
C1123 C1124 1.397 . S
C1123 C1128 1.363 . S
C1124 H1101 0.950 . S
C1124 C1123 1.397 . S
C1124 C1125 1.334 1_565 S
C1125 H1102 0.950 . S
C1125 C1124 1.334 1_545 S
C1125 C1126 1.287 . S
C1126 C1125 1.287 . S
C1126 C1127 1.524 . S
C1126 H1145 0.913 . S
C1127 H1103 0.950 . S
C1127 C1126 1.524 . S
C1127 C1128 1.415 1_545 S
C1128 H1104 0.950 . S
C1128 C1123 1.363 . S
C1128 C1127 1.415 1_565 S
C1129 H1105 0.951 . S
C1129 C1130 1.366 . S
C1129 C1131 1.388 . S
C1130 C1129 1.366 . S
C1130 C1134 1.385 . S
C1131 H1106 0.951 . S
C1131 C1129 1.388 . S
C1131 C1132 1.366 . S
C1132 C1131 1.366 . S
C1132 C1133 1.414 . S
C1132 C1135 1.499 . S
C1133 H1107 0.950 . S
C1133 C1132 1.414 . S
C1133 C1134 1.374 . S
C1134 H1108 0.950 . S
C1134 C1130 1.385 . S
C1134 C1133 1.374 . S
C1135 C1132 1.499 . S
C1135 C1136 1.373 . S
C1135 C1137 1.389 . S
C1136 H1109 0.950 . S
C1136 C1122 1.377 . S
C1136 C1135 1.373 . S
C1137 C1121 1.377 . S
C1137 C1135 1.389 . S
C1137 C1138 1.524 . S
C1138 C1137 1.524 . S
C1138 C1139 1.397 . S
C1138 C1143 1.363 . S
C1139 H1110 0.950 . S
C1139 C1138 1.397 . S
C1139 C1140 1.334 . S
C1140 H1111 0.950 . S
C1140 C1139 1.334 . S
C1140 C1141 1.287 . S
C1141 C1140 1.287 . S
C1141 C1142 1.524 . S
C1141 H1144 0.999 . S
C1142 H1112 0.950 . S
C1142 C1141 1.524 . S
C1142 C1143 1.415 . S
C1143 H1113 0.950 . S
C1143 C1138 1.363 . S
C1143 C1142 1.415 . S
H1144 C1141 0.999 . S
H1145 C1126 0.913 . S
H1146 C1164 0.951 . S
H1147 C1166 0.951 . S
H1148 C1168 0.950 . S
H1149 C1169 0.950 . S
H1150 C1171 0.950 . S
H1151 C1174 0.950 . S
H1152 C1175 0.950 . S
H1153 C1177 0.950 1_565 S
H1154 C1178 0.950 . S
H1155 C1179 0.951 . S
H1156 C1181 0.951 . S
H1157 C1183 0.950 . S
H1158 C1184 0.950 . S
H1159 C1186 0.950 . S
H1160 C1189 0.950 . S
H1161 C1190 0.950 . S
H1162 C1192 0.950 . S
H1163 C1193 0.950 . S
C1164 H1146 0.951 . S
C1164 C1165 1.366 . S
C1164 C1166 1.388 . S
C1165 C1164 1.366 . S
C1165 C1169 1.385 . S
C1166 H1147 0.951 . S
C1166 C1164 1.388 . S
C1166 C1167 1.366 . S
C1167 C1166 1.366 . S
C1167 C1168 1.414 . S
C1167 C1170 1.499 . S
C1168 H1148 0.950 . S
C1168 C1167 1.414 . S
C1168 C1169 1.374 . S
C1169 H1149 0.950 . S
C1169 C1165 1.385 . S
C1169 C1168 1.374 . S
C1170 C1167 1.499 . S
C1170 C1171 1.373 1_545 S
C1170 C1172 1.389 1_545 S
C1171 H1150 0.950 . S
C1171 C1170 1.373 1_565 S
C1171 C1187 1.377 . S
C1172 C1170 1.389 1_565 S
C1172 C1173 1.524 1_565 S
C1172 C1186 1.377 . S
C1173 C1172 1.524 1_545 S
C1173 C1174 1.397 . S
C1173 C1178 1.363 1_545 S
C1174 H1151 0.950 . S
C1174 C1173 1.397 . S
C1174 C1175 1.334 . S
C1175 H1152 0.950 . S
C1175 C1174 1.334 . S
C1175 C1176 1.287 . S
C1176 C1175 1.287 . S
C1176 C1177 1.524 . S
C1176 H1195 0.913 . S
C1177 H1153 0.950 1_545 S
C1177 C1176 1.524 . S
C1177 C1178 1.415 1_545 S
C1178 H1154 0.950 . S
C1178 C1173 1.363 1_565 S
C1178 C1177 1.415 1_565 S
C1179 H1155 0.951 . S
C1179 C1180 1.366 . S
C1179 C1181 1.388 . S
C1180 C1179 1.366 . S
C1180 C1184 1.385 . S
C1181 H1156 0.951 . S
C1181 C1179 1.388 . S
C1181 C1182 1.366 . S
C1182 C1181 1.366 . S
C1182 C1183 1.414 . S
C1182 C1185 1.499 . S
C1183 H1157 0.950 . S
C1183 C1182 1.414 . S
C1183 C1184 1.374 . S
C1184 H1158 0.950 . S
C1184 C1180 1.385 . S
C1184 C1183 1.374 . S
C1185 C1182 1.499 . S
C1185 C1186 1.373 . S
C1185 C1187 1.389 . S
C1186 H1159 0.950 . S
C1186 C1172 1.377 . S
C1186 C1185 1.373 . S
C1187 C1171 1.377 . S
C1187 C1185 1.389 . S
C1187 C1188 1.524 . S
C1188 C1187 1.524 . S
C1188 C1189 1.397 . S
C1188 C1193 1.363 . S
C1189 H1160 0.950 . S
C1189 C1188 1.397 . S
C1189 C1190 1.334 . S
C1190 H1161 0.950 . S
C1190 C1189 1.334 . S
C1190 C1191 1.287 . S
C1191 C1190 1.287 . S
C1191 C1192 1.524 . S
C1191 H1194 0.999 . S
C1192 H1162 0.950 . S
C1192 C1191 1.524 . S
C1192 C1193 1.415 . S
C1193 H1163 0.950 . S
C1193 C1188 1.363 . S
C1193 C1192 1.415 . S
H1194 C1191 0.999 . S
H1195 C1176 0.913 . S
H1196 C1214 0.951 . S
H1197 C1216 0.951 . S
H1198 C1218 0.950 . S
H1199 C1219 0.950 . S
H1200 C1221 0.950 . S
H1201 C1224 0.950 . S
H1202 C1225 0.950 . S
H1203 C1227 0.950 . S
H1204 C1228 0.950 . S
H1205 C1229 0.951 . S
H1206 C1231 0.951 . S
H1207 C1233 0.950 . S
H1208 C1234 0.950 . S
H1209 C1236 0.950 . S
H1210 C1239 0.950 . S
H1211 C1240 0.950 . S
H1212 C1242 0.950 . S
H1213 C1243 0.950 . S
C1214 H1196 0.951 . S
C1214 C1215 1.366 . S
C1214 C1216 1.388 . S
C1215 C1214 1.366 . S
C1215 C1219 1.385 . S
C1216 H1197 0.951 . S
C1216 C1214 1.388 . S
C1216 C1217 1.366 . S
C1217 C1216 1.366 . S
C1217 C1218 1.414 . S
C1217 C1220 1.499 . S
C1218 H1198 0.950 . S
C1218 C1217 1.414 . S
C1218 C1219 1.374 . S
C1219 H1199 0.950 . S
C1219 C1215 1.385 . S
C1219 C1218 1.374 . S
C1220 C1217 1.499 . S
C1220 C1221 1.373 . S
C1220 C1222 1.389 . S
C1221 H1200 0.950 . S
C1221 C1220 1.373 . S
C1221 C1237 1.377 . S
C1222 C1220 1.389 . S
C1222 C1223 1.524 . S
C1222 C1236 1.377 . S
C1223 C1222 1.524 . S
C1223 C1224 1.397 . S
C1223 C1228 1.363 . S
C1224 H1201 0.950 . S
C1224 C1223 1.397 . S
C1224 C1225 1.334 . S
C1225 H1202 0.950 . S
C1225 C1224 1.334 . S
C1225 C1226 1.287 . S
C1226 C1225 1.287 . S
C1226 C1227 1.524 . S
C1226 H1245 0.913 1_556 S
C1227 H1203 0.950 . S
C1227 C1226 1.524 . S
C1227 C1228 1.415 . S
C1228 H1204 0.950 . S
C1228 C1223 1.363 . S
C1228 C1227 1.415 . S
C1229 H1205 0.951 . S
C1229 C1230 1.366 . S
C1229 C1231 1.388 . S
C1230 C1229 1.366 . S
C1230 C1234 1.385 . S
C1231 H1206 0.951 . S
C1231 C1229 1.388 . S
C1231 C1232 1.366 . S
C1232 C1231 1.366 . S
C1232 C1233 1.414 . S
C1232 C1235 1.499 . S
C1233 H1207 0.950 . S
C1233 C1232 1.414 . S
C1233 C1234 1.374 . S
C1234 H1208 0.950 . S
C1234 C1230 1.385 . S
C1234 C1233 1.374 . S
C1235 C1232 1.499 . S
C1235 C1236 1.373 . S
C1235 C1237 1.389 . S
C1236 H1209 0.950 . S
C1236 C1222 1.377 . S
C1236 C1235 1.373 . S
C1237 C1221 1.377 . S
C1237 C1235 1.389 . S
C1237 C1238 1.524 . S
C1238 C1237 1.524 . S
C1238 C1239 1.397 . S
C1238 C1243 1.363 . S
C1239 H1210 0.950 . S
C1239 C1238 1.397 . S
C1239 C1240 1.334 . S
C1240 H1211 0.950 . S
C1240 C1239 1.334 . S
C1240 C1241 1.287 . S
C1241 C1240 1.287 . S
C1241 C1242 1.524 . S
C1241 H1244 0.999 . S
C1242 H1212 0.950 . S
C1242 C1241 1.524 . S
C1242 C1243 1.415 . S
C1243 H1213 0.950 . S
C1243 C1238 1.363 . S
C1243 C1242 1.415 . S
H1244 C1241 0.999 . S
H1245 C1226 0.913 1_554 S
H1246 C1264 0.951 . S
H1247 C1266 0.951 . S
H1248 C1268 0.950 . S
H1249 C1269 0.950 . S
H1250 C1271 0.950 . S
H1251 C1274 0.950 . S
H1252 C1275 0.950 . S
H1253 C1277 0.950 . S
H1254 C1278 0.950 . S
H1255 C1279 0.951 . S
H1256 C1281 0.951 . S
H1257 C1283 0.950 . S
H1258 C1284 0.950 . S
H1259 C1286 0.950 . S
H1260 C1289 0.950 . S
H1261 C1290 0.950 . S
H1262 C1292 0.950 . S
H1263 C1293 0.950 . S
C1264 H1246 0.951 . S
C1264 C1265 1.366 . S
C1264 C1266 1.388 . S
C1265 C1264 1.366 . S
C1265 C1269 1.385 . S
C1266 H1247 0.951 . S
C1266 C1264 1.388 . S
C1266 C1267 1.366 . S
C1267 C1266 1.366 . S
C1267 C1268 1.414 . S
C1267 C1270 1.499 1_565 S
C1268 H1248 0.950 . S
C1268 C1267 1.414 . S
C1268 C1269 1.374 . S
C1269 H1249 0.950 . S
C1269 C1265 1.385 . S
C1269 C1268 1.374 . S
C1270 C1267 1.499 1_545 S
C1270 C1271 1.373 . S
C1270 C1272 1.389 . S
C1271 H1250 0.950 . S
C1271 C1270 1.373 . S
C1271 C1287 1.377 . S
C1272 C1270 1.389 . S
C1272 C1273 1.524 1_545 S
C1272 C1286 1.377 . S
C1273 C1272 1.524 1_565 S
C1273 C1274 1.397 . S
C1273 C1278 1.363 1_565 S
C1274 H1251 0.950 . S
C1274 C1273 1.397 . S
C1274 C1275 1.334 . S
C1275 H1252 0.950 . S
C1275 C1274 1.334 . S
C1275 C1276 1.287 . S
C1276 C1275 1.287 . S
C1276 C1277 1.524 . S
C1276 H1295 0.913 . S
C1277 H1253 0.950 . S
C1277 C1276 1.524 . S
C1277 C1278 1.415 1_565 S
C1278 H1254 0.950 . S
C1278 C1273 1.363 1_545 S
C1278 C1277 1.415 1_545 S
C1279 H1255 0.951 . S
C1279 C1280 1.366 . S
C1279 C1281 1.388 . S
C1280 C1279 1.366 . S
C1280 C1284 1.385 . S
C1281 H1256 0.951 . S
C1281 C1279 1.388 . S
C1281 C1282 1.366 . S
C1282 C1281 1.366 . S
C1282 C1283 1.414 . S
C1282 C1285 1.499 . S
C1283 H1257 0.950 . S
C1283 C1282 1.414 . S
C1283 C1284 1.374 . S
C1284 H1258 0.950 . S
C1284 C1280 1.385 . S
C1284 C1283 1.374 . S
C1285 C1282 1.499 . S
C1285 C1286 1.373 . S
C1285 C1287 1.389 . S
C1286 H1259 0.950 . S
C1286 C1272 1.377 . S
C1286 C1285 1.373 . S
C1287 C1271 1.377 . S
C1287 C1285 1.389 . S
C1287 C1288 1.524 . S
C1288 C1287 1.524 . S
C1288 C1289 1.397 . S
C1288 C1293 1.363 . S
C1289 H1260 0.950 . S
C1289 C1288 1.397 . S
C1289 C1290 1.334 . S
C1290 H1261 0.950 . S
C1290 C1289 1.334 . S
C1290 C1291 1.287 . S
C1291 C1290 1.287 . S
C1291 C1292 1.524 . S
C1291 H1294 0.999 . S
C1292 H1262 0.950 . S
C1292 C1291 1.524 . S
C1292 C1293 1.415 . S
C1293 H1263 0.950 . S
C1293 C1288 1.363 . S
C1293 C1292 1.415 . S
H1294 C1291 0.999 . S
H1295 C1276 0.913 . S
H1296 C1314 0.951 . S
H1297 C1316 0.951 . S
H1298 C1318 0.950 . S
H1299 C1319 0.950 . S
H1300 C1321 0.950 . S
H1301 C1324 0.950 . S
H1302 C1325 0.950 . S
H1303 C1327 0.950 . S
H1304 C1328 0.950 . S
H1305 C1329 0.951 . S
H1306 C1331 0.951 . S
H1307 C1333 0.950 . S
H1308 C1334 0.950 . S
H1309 C1336 0.950 . S
H1310 C1339 0.950 . S
H1311 C1340 0.950 . S
H1312 C1342 0.950 . S
H1313 C1343 0.950 . S
C1314 H1296 0.951 . S
C1314 C1315 1.366 . S
C1314 C1316 1.388 . S
C1315 C1314 1.366 . S
C1315 C1319 1.385 . S
C1316 H1297 0.951 . S
C1316 C1314 1.388 . S
C1316 C1317 1.366 . S
C1317 C1316 1.366 . S
C1317 C1318 1.414 . S
C1317 C1320 1.499 . S
C1318 H1298 0.950 . S
C1318 C1317 1.414 . S
C1318 C1319 1.374 . S
C1319 H1299 0.950 . S
C1319 C1315 1.385 . S
C1319 C1318 1.374 . S
C1320 C1317 1.499 . S
C1320 C1321 1.373 . S
C1320 C1322 1.389 . S
C1321 H1300 0.950 . S
C1321 C1320 1.373 . S
C1321 C1337 1.377 . S
C1322 C1320 1.389 . S
C1322 C1323 1.524 . S
C1322 C1336 1.377 . S
C1323 C1322 1.524 . S
C1323 C1324 1.397 . S
C1323 C1328 1.363 . S
C1324 H1301 0.950 . S
C1324 C1323 1.397 . S
C1324 C1325 1.334 . S
C1325 H1302 0.950 . S
C1325 C1324 1.334 . S
C1325 C1326 1.287 . S
C1326 C1325 1.287 . S
C1326 C1327 1.524 . S
C1326 H1345 0.913 . S
C1327 H1303 0.950 . S
C1327 C1326 1.524 . S
C1327 C1328 1.415 . S
C1328 H1304 0.950 . S
C1328 C1323 1.363 . S
C1328 C1327 1.415 . S
C1329 H1305 0.951 . S
C1329 C1330 1.366 . S
C1329 C1331 1.388 . S
C1330 C1329 1.366 . S
C1330 C1334 1.385 . S
C1331 H1306 0.951 . S
C1331 C1329 1.388 . S
C1331 C1332 1.366 . S
C1332 C1331 1.366 . S
C1332 C1333 1.414 . S
C1332 C1335 1.499 . S
C1333 H1307 0.950 . S
C1333 C1332 1.414 . S
C1333 C1334 1.374 . S
C1334 H1308 0.950 . S
C1334 C1330 1.385 . S
C1334 C1333 1.374 . S
C1335 C1332 1.499 . S
C1335 C1336 1.373 . S
C1335 C1337 1.389 . S
C1336 H1309 0.950 . S
C1336 C1322 1.377 . S
C1336 C1335 1.373 . S
C1337 C1321 1.377 . S
C1337 C1335 1.389 . S
C1337 C1338 1.524 . S
C1338 C1337 1.524 . S
C1338 C1339 1.397 . S
C1338 C1343 1.363 . S
C1339 H1310 0.950 . S
C1339 C1338 1.397 . S
C1339 C1340 1.334 . S
C1340 H1311 0.950 . S
C1340 C1339 1.334 . S
C1340 C1341 1.287 . S
C1341 C1340 1.287 . S
C1341 C1342 1.524 . S
C1341 H1344 0.999 . S
C1342 H1312 0.950 . S
C1342 C1341 1.524 . S
C1342 C1343 1.415 . S
C1343 H1313 0.950 . S
C1343 C1338 1.363 . S
C1343 C1342 1.415 . S
H1344 C1341 0.999 . S
H1345 C1326 0.913 . S
H1346 C1364 0.951 . S
H1347 C1366 0.951 . S
H1348 C1368 0.950 . S
H1349 C1369 0.950 . S
H1350 C1371 0.950 . S
H1351 C1374 0.950 . S
H1352 C1375 0.950 . S
H1353 C1377 0.950 . S
H1354 C1378 0.950 . S
H1355 C1379 0.951 . S
H1356 C1381 0.951 . S
H1357 C1383 0.950 . S
H1358 C1384 0.950 . S
H1359 C1386 0.950 . S
H1360 C1389 0.950 . S
H1361 C1390 0.950 1_455 S
H1362 C1392 0.950 . S
H1363 C1393 0.950 . S
C1364 H1346 0.951 . S
C1364 C1365 1.366 . S
C1364 C1366 1.388 . S
C1365 C1364 1.366 . S
C1365 C1369 1.385 . S
C1366 H1347 0.951 . S
C1366 C1364 1.388 . S
C1366 C1367 1.366 . S
C1367 C1366 1.366 . S
C1367 C1368 1.414 . S
C1367 C1370 1.499 . S
C1368 H1348 0.950 . S
C1368 C1367 1.414 . S
C1368 C1369 1.374 . S
C1369 H1349 0.950 . S
C1369 C1365 1.385 . S
C1369 C1368 1.374 . S
C1370 C1367 1.499 . S
C1370 C1371 1.373 . S
C1370 C1372 1.389 . S
C1371 H1350 0.950 . S
C1371 C1370 1.373 . S
C1371 C1387 1.377 . S
C1372 C1370 1.389 . S
C1372 C1373 1.524 . S
C1372 C1386 1.377 . S
C1373 C1372 1.524 . S
C1373 C1374 1.397 . S
C1373 C1378 1.363 . S
C1374 H1351 0.950 . S
C1374 C1373 1.397 . S
C1374 C1375 1.334 . S
C1375 H1352 0.950 . S
C1375 C1374 1.334 . S
C1375 C1376 1.287 . S
C1376 C1375 1.287 . S
C1376 C1377 1.524 . S
C1376 H1395 0.913 . S
C1377 H1353 0.950 . S
C1377 C1376 1.524 . S
C1377 C1378 1.415 . S
C1378 H1354 0.950 . S
C1378 C1373 1.363 . S
C1378 C1377 1.415 . S
C1379 H1355 0.951 . S
C1379 C1380 1.366 . S
C1379 C1381 1.388 . S
C1380 C1379 1.366 . S
C1380 C1384 1.385 . S
C1381 H1356 0.951 . S
C1381 C1379 1.388 . S
C1381 C1382 1.366 . S
C1382 C1381 1.366 . S
C1382 C1383 1.414 . S
C1382 C1385 1.499 . S
C1383 H1357 0.950 . S
C1383 C1382 1.414 . S
C1383 C1384 1.374 . S
C1384 H1358 0.950 . S
C1384 C1380 1.385 . S
C1384 C1383 1.374 . S
C1385 C1382 1.499 . S
C1385 C1386 1.373 . S
C1385 C1387 1.389 . S
C1386 H1359 0.950 . S
C1386 C1372 1.377 . S
C1386 C1385 1.373 . S
C1387 C1371 1.377 . S
C1387 C1385 1.389 . S
C1387 C1388 1.524 . S
C1388 C1387 1.524 . S
C1388 C1389 1.397 . S
C1388 C1393 1.363 . S
C1389 H1360 0.950 . S
C1389 C1388 1.397 . S
C1389 C1390 1.334 . S
C1390 H1361 0.950 1_655 S
C1390 C1389 1.334 . S
C1390 C1391 1.287 . S
C1391 C1390 1.287 . S
C1391 C1392 1.524 . S
C1391 H1394 0.999 . S
C1392 H1362 0.950 . S
C1392 C1391 1.524 . S
C1392 C1393 1.415 . S
C1393 H1363 0.950 . S
C1393 C1388 1.363 . S
C1393 C1392 1.415 . S
H1394 C1391 0.999 . S
H1395 C1376 0.913 . S
H1396 C1414 0.951 . S
H1397 C1416 0.951 . S
H1398 C1418 0.950 . S
H1399 C1419 0.950 . S
H1400 C1421 0.950 . S
H1401 C1424 0.950 . S
H1402 C1425 0.950 . S
H1403 C1427 0.950 . S
H1404 C1428 0.950 . S
H1405 C1429 0.951 . S
H1406 C1431 0.951 . S
H1407 C1433 0.950 . S
H1408 C1434 0.950 . S
H1409 C1436 0.950 . S
H1410 C1439 0.950 . S
H1411 C1440 0.950 . S
H1412 C1442 0.950 . S
H1413 C1443 0.950 . S
C1414 H1396 0.951 . S
C1414 C1415 1.366 . S
C1414 C1416 1.388 . S
C1415 C1414 1.366 . S
C1415 C1419 1.385 . S
C1416 H1397 0.951 . S
C1416 C1414 1.388 . S
C1416 C1417 1.366 . S
C1417 C1416 1.366 . S
C1417 C1418 1.414 . S
C1417 C1420 1.499 . S
C1418 H1398 0.950 . S
C1418 C1417 1.414 . S
C1418 C1419 1.374 . S
C1419 H1399 0.950 . S
C1419 C1415 1.385 . S
C1419 C1418 1.374 . S
C1420 C1417 1.499 . S
C1420 C1421 1.373 . S
C1420 C1422 1.389 . S
C1421 H1400 0.950 . S
C1421 C1420 1.373 . S
C1421 C1437 1.377 . S
C1422 C1420 1.389 . S
C1422 C1423 1.524 . S
C1422 C1436 1.377 . S
C1423 C1422 1.524 . S
C1423 C1424 1.397 . S
C1423 C1428 1.363 . S
C1424 H1401 0.950 . S
C1424 C1423 1.397 . S
C1424 C1425 1.334 . S
C1425 H1402 0.950 . S
C1425 C1424 1.334 . S
C1425 C1426 1.287 . S
C1426 C1425 1.287 . S
C1426 C1427 1.524 . S
C1426 H1445 0.913 . S
C1427 H1403 0.950 . S
C1427 C1426 1.524 . S
C1427 C1428 1.415 . S
C1428 H1404 0.950 . S
C1428 C1423 1.363 . S
C1428 C1427 1.415 . S
C1429 H1405 0.951 . S
C1429 C1430 1.366 . S
C1429 C1431 1.388 . S
C1430 C1429 1.366 . S
C1430 C1434 1.385 . S
C1431 H1406 0.951 . S
C1431 C1429 1.388 . S
C1431 C1432 1.366 . S
C1432 C1431 1.366 . S
C1432 C1433 1.414 . S
C1432 C1435 1.499 . S
C1433 H1407 0.950 . S
C1433 C1432 1.414 . S
C1433 C1434 1.374 . S
C1434 H1408 0.950 . S
C1434 C1430 1.385 . S
C1434 C1433 1.374 . S
C1435 C1432 1.499 . S
C1435 C1436 1.373 . S
C1435 C1437 1.389 . S
C1436 H1409 0.950 . S
C1436 C1422 1.377 . S
C1436 C1435 1.373 . S
C1437 C1421 1.377 . S
C1437 C1435 1.389 . S
C1437 C1438 1.524 . S
C1438 C1437 1.524 . S
C1438 C1439 1.397 . S
C1438 C1443 1.363 . S
C1439 H1410 0.950 . S
C1439 C1438 1.397 . S
C1439 C1440 1.334 . S
C1440 H1411 0.950 . S
C1440 C1439 1.334 . S
C1440 C1441 1.287 . S
C1441 C1440 1.287 . S
C1441 C1442 1.524 . S
C1441 H1444 0.999 . S
C1442 H1412 0.950 . S
C1442 C1441 1.524 . S
C1442 C1443 1.415 . S
C1443 H1413 0.950 . S
C1443 C1438 1.363 . S
C1443 C1442 1.415 . S
H1444 C1441 0.999 . S
H1445 C1426 0.913 . S
H1446 C1464 0.951 . S
H1447 C1466 0.951 . S
H1448 C1468 0.950 . S
H1449 C1469 0.950 . S
H1450 C1471 0.950 . S
H1451 C1474 0.950 . S
H1452 C1475 0.950 . S
H1453 C1477 0.950 . S
H1454 C1478 0.950 . S
H1455 C1479 0.951 . S
H1456 C1481 0.951 . S
H1457 C1483 0.950 . S
H1458 C1484 0.950 . S
H1459 C1486 0.950 . S
H1460 C1489 0.950 . S
H1461 C1490 0.950 . S
H1462 C1492 0.950 . S
H1463 C1493 0.950 . S
C1464 H1446 0.951 . S
C1464 C1465 1.366 . S
C1464 C1466 1.388 . S
C1465 C1464 1.366 . S
C1465 C1469 1.385 . S
C1466 H1447 0.951 . S
C1466 C1464 1.388 . S
C1466 C1467 1.366 . S
C1467 C1466 1.366 . S
C1467 C1468 1.414 . S
C1467 C1470 1.499 . S
C1468 H1448 0.950 . S
C1468 C1467 1.414 . S
C1468 C1469 1.374 . S
C1469 H1449 0.950 . S
C1469 C1465 1.385 . S
C1469 C1468 1.374 . S
C1470 C1467 1.499 . S
C1470 C1471 1.373 . S
C1470 C1472 1.389 . S
C1471 H1450 0.950 . S
C1471 C1470 1.373 . S
C1471 C1487 1.377 . S
C1472 C1470 1.389 . S
C1472 C1473 1.524 . S
C1472 C1486 1.377 . S
C1473 C1472 1.524 . S
C1473 C1474 1.397 . S
C1473 C1478 1.363 . S
C1474 H1451 0.950 . S
C1474 C1473 1.397 . S
C1474 C1475 1.334 . S
C1475 H1452 0.950 . S
C1475 C1474 1.334 . S
C1475 C1476 1.287 . S
C1476 C1475 1.287 . S
C1476 C1477 1.524 . S
C1476 H1495 0.913 . S
C1477 H1453 0.950 . S
C1477 C1476 1.524 . S
C1477 C1478 1.415 . S
C1478 H1454 0.950 . S
C1478 C1473 1.363 . S
C1478 C1477 1.415 . S
C1479 H1455 0.951 . S
C1479 C1480 1.366 . S
C1479 C1481 1.388 . S
C1480 C1479 1.366 . S
C1480 C1484 1.385 . S
C1481 H1456 0.951 . S
C1481 C1479 1.388 . S
C1481 C1482 1.366 . S
C1482 C1481 1.366 . S
C1482 C1483 1.414 . S
C1482 C1485 1.499 . S
C1483 H1457 0.950 . S
C1483 C1482 1.414 . S
C1483 C1484 1.374 . S
C1484 H1458 0.950 . S
C1484 C1480 1.385 . S
C1484 C1483 1.374 . S
C1485 C1482 1.499 . S
C1485 C1486 1.373 . S
C1485 C1487 1.389 . S
C1486 H1459 0.950 . S
C1486 C1472 1.377 . S
C1486 C1485 1.373 . S
C1487 C1471 1.377 . S
C1487 C1485 1.389 . S
C1487 C1488 1.524 . S
C1488 C1487 1.524 . S
C1488 C1489 1.397 . S
C1488 C1493 1.363 . S
C1489 H1460 0.950 . S
C1489 C1488 1.397 . S
C1489 C1490 1.334 . S
C1490 H1461 0.950 . S
C1490 C1489 1.334 . S
C1490 C1491 1.287 . S
C1491 C1490 1.287 . S
C1491 C1492 1.524 . S
C1491 H1494 0.999 . S
C1492 H1462 0.950 . S
C1492 C1491 1.524 . S
C1492 C1493 1.415 . S
C1493 H1463 0.950 . S
C1493 C1488 1.363 . S
C1493 C1492 1.415 . S
H1494 C1491 0.999 . S
H1495 C1476 0.913 . S
H1496 C1514 0.951 . S
H1497 C1516 0.951 . S
H1498 C1518 0.950 . S
H1499 C1519 0.950 . S
H1500 C1521 0.950 . S
H1501 C1524 0.950 . S
H1502 C1525 0.950 . S
H1503 C1527 0.950 . S
H1504 C1528 0.950 . S
H1505 C1529 0.951 . S
H1506 C1531 0.951 . S
H1507 C1533 0.950 . S
H1508 C1534 0.950 . S
H1509 C1536 0.950 . S
H1510 C1539 0.950 . S
H1511 C1540 0.950 . S
H1512 C1542 0.950 . S
H1513 C1543 0.950 . S
C1514 H1496 0.951 . S
C1514 C1515 1.366 . S
C1514 C1516 1.388 . S
C1515 C1514 1.366 . S
C1515 C1519 1.385 . S
C1516 H1497 0.951 . S
C1516 C1514 1.388 . S
C1516 C1517 1.366 . S
C1517 C1516 1.366 . S
C1517 C1518 1.414 . S
C1517 C1520 1.499 . S
C1518 H1498 0.950 . S
C1518 C1517 1.414 . S
C1518 C1519 1.374 . S
C1519 H1499 0.950 . S
C1519 C1515 1.385 . S
C1519 C1518 1.374 . S
C1520 C1517 1.499 . S
C1520 C1521 1.373 . S
C1520 C1522 1.389 . S
C1521 H1500 0.950 . S
C1521 C1520 1.373 . S
C1521 C1537 1.377 . S
C1522 C1520 1.389 . S
C1522 C1523 1.524 . S
C1522 C1536 1.377 . S
C1523 C1522 1.524 . S
C1523 C1524 1.397 . S
C1523 C1528 1.363 . S
C1524 H1501 0.950 . S
C1524 C1523 1.397 . S
C1524 C1525 1.334 . S
C1525 H1502 0.950 . S
C1525 C1524 1.334 . S
C1525 C1526 1.287 . S
C1526 C1525 1.287 . S
C1526 C1527 1.524 . S
C1526 H1545 0.913 . S
C1527 H1503 0.950 . S
C1527 C1526 1.524 . S
C1527 C1528 1.415 . S
C1528 H1504 0.950 . S
C1528 C1523 1.363 . S
C1528 C1527 1.415 . S
C1529 H1505 0.951 . S
C1529 C1530 1.366 . S
C1529 C1531 1.388 . S
C1530 C1529 1.366 . S
C1530 C1534 1.385 . S
C1531 H1506 0.951 . S
C1531 C1529 1.388 . S
C1531 C1532 1.366 . S
C1532 C1531 1.366 . S
C1532 C1533 1.414 . S
C1532 C1535 1.499 . S
C1533 H1507 0.950 . S
C1533 C1532 1.414 . S
C1533 C1534 1.374 . S
C1534 H1508 0.950 . S
C1534 C1530 1.385 . S
C1534 C1533 1.374 . S
C1535 C1532 1.499 . S
C1535 C1536 1.373 . S
C1535 C1537 1.389 . S
C1536 H1509 0.950 . S
C1536 C1522 1.377 . S
C1536 C1535 1.373 . S
C1537 C1521 1.377 . S
C1537 C1535 1.389 . S
C1537 C1538 1.524 . S
C1538 C1537 1.524 . S
C1538 C1539 1.397 . S
C1538 C1543 1.363 . S
C1539 H1510 0.950 . S
C1539 C1538 1.397 . S
C1539 C1540 1.334 . S
C1540 H1511 0.950 . S
C1540 C1539 1.334 . S
C1540 C1541 1.287 . S
C1541 C1540 1.287 . S
C1541 C1542 1.524 . S
C1541 H1544 0.999 . S
C1542 H1512 0.950 . S
C1542 C1541 1.524 . S
C1542 C1543 1.415 . S
C1543 H1513 0.950 . S
C1543 C1538 1.363 . S
C1543 C1542 1.415 . S
H1544 C1541 0.999 . S
H1545 C1526 0.913 . S
H1546 C1564 0.951 . S
H1547 C1566 0.951 . S
H1548 C1568 0.950 . S
H1549 C1569 0.950 . S
H1550 C1571 0.950 . S
H1551 C1574 0.950 . S
H1552 C1575 0.950 . S
H1553 C1577 0.950 . S
H1554 C1578 0.950 . S
H1555 C1579 0.951 . S
H1556 C1581 0.951 . S
H1557 C1583 0.950 . S
H1558 C1584 0.950 . S
H1559 C1586 0.950 . S
H1560 C1589 0.950 . S
H1561 C1590 0.950 . S
H1562 C1592 0.950 . S
H1563 C1593 0.950 . S
C1564 H1546 0.951 . S
C1564 C1565 1.366 . S
C1564 C1566 1.388 . S
C1565 C1564 1.366 . S
C1565 C1569 1.385 . S
C1566 H1547 0.951 . S
C1566 C1564 1.388 . S
C1566 C1567 1.366 . S
C1567 C1566 1.366 . S
C1567 C1568 1.414 . S
C1567 C1570 1.499 . S
C1568 H1548 0.950 . S
C1568 C1567 1.414 . S
C1568 C1569 1.374 . S
C1569 H1549 0.950 . S
C1569 C1565 1.385 . S
C1569 C1568 1.374 . S
C1570 C1567 1.499 . S
C1570 C1571 1.373 . S
C1570 C1572 1.389 . S
C1571 H1550 0.950 . S
C1571 C1570 1.373 . S
C1571 C1587 1.377 . S
C1572 C1570 1.389 . S
C1572 C1573 1.524 . S
C1572 C1586 1.377 . S
C1573 C1572 1.524 . S
C1573 C1574 1.397 . S
C1573 C1578 1.363 . S
C1574 H1551 0.950 . S
C1574 C1573 1.397 . S
C1574 C1575 1.334 . S
C1575 H1552 0.950 . S
C1575 C1574 1.334 . S
C1575 C1576 1.287 . S
C1576 C1575 1.287 . S
C1576 C1577 1.524 . S
C1576 H1595 0.913 . S
C1577 H1553 0.950 . S
C1577 C1576 1.524 . S
C1577 C1578 1.415 . S
C1578 H1554 0.950 . S
C1578 C1573 1.363 . S
C1578 C1577 1.415 . S
C1579 H1555 0.951 . S
C1579 C1580 1.366 . S
C1579 C1581 1.388 . S
C1580 C1579 1.366 . S
C1580 C1584 1.385 . S
C1581 H1556 0.951 . S
C1581 C1579 1.388 . S
C1581 C1582 1.366 . S
C1582 C1581 1.366 . S
C1582 C1583 1.414 . S
C1582 C1585 1.499 . S
C1583 H1557 0.950 . S
C1583 C1582 1.414 . S
C1583 C1584 1.374 . S
C1584 H1558 0.950 . S
C1584 C1580 1.385 . S
C1584 C1583 1.374 . S
C1585 C1582 1.499 . S
C1585 C1586 1.373 . S
C1585 C1587 1.389 . S
C1586 H1559 0.950 . S
C1586 C1572 1.377 . S
C1586 C1585 1.373 . S
C1587 C1571 1.377 . S
C1587 C1585 1.389 . S
C1587 C1588 1.524 . S
C1588 C1587 1.524 . S
C1588 C1589 1.397 . S
C1588 C1593 1.363 . S
C1589 H1560 0.950 . S
C1589 C1588 1.397 . S
C1589 C1590 1.334 . S
C1590 H1561 0.950 . S
C1590 C1589 1.334 . S
C1590 C1591 1.287 . S
C1591 C1590 1.287 . S
C1591 C1592 1.524 . S
C1591 H1594 0.999 . S
C1592 H1562 0.950 . S
C1592 C1591 1.524 . S
C1592 C1593 1.415 . S
C1593 H1563 0.950 . S
C1593 C1588 1.363 . S
C1593 C1592 1.415 . S
H1594 C1591 0.999 . S
H1595 C1576 0.913 . S
H1596 C1614 0.951 . S
H1597 C1616 0.951 . S
H1598 C1618 0.950 . S
H1599 C1619 0.950 . S
H1600 C1621 0.950 . S
H1601 C1624 0.950 . S
H1602 C1625 0.950 . S
H1603 C1627 0.950 . S
H1604 C1628 0.950 . S
H1605 C1629 0.951 . S
H1606 C1631 0.951 . S
H1607 C1633 0.950 . S
H1608 C1634 0.950 . S
H1609 C1636 0.950 . S
H1610 C1639 0.950 . S
H1611 C1640 0.950 . S
H1612 C1642 0.950 . S
H1613 C1643 0.950 . S
C1614 H1596 0.951 . S
C1614 C1615 1.366 . S
C1614 C1616 1.388 . S
C1615 C1614 1.366 . S
C1615 C1619 1.385 . S
C1616 H1597 0.951 . S
C1616 C1614 1.388 . S
C1616 C1617 1.366 . S
C1617 C1616 1.366 . S
C1617 C1618 1.414 . S
C1617 C1620 1.499 . S
C1618 H1598 0.950 . S
C1618 C1617 1.414 . S
C1618 C1619 1.374 . S
C1619 H1599 0.950 . S
C1619 C1615 1.385 . S
C1619 C1618 1.374 . S
C1620 C1617 1.499 . S
C1620 C1621 1.373 . S
C1620 C1622 1.389 . S
C1621 H1600 0.950 . S
C1621 C1620 1.373 . S
C1621 C1637 1.377 . S
C1622 C1620 1.389 . S
C1622 C1623 1.524 . S
C1622 C1636 1.377 . S
C1623 C1622 1.524 . S
C1623 C1624 1.397 . S
C1623 C1628 1.363 . S
C1624 H1601 0.950 . S
C1624 C1623 1.397 . S
C1624 C1625 1.334 . S
C1625 H1602 0.950 . S
C1625 C1624 1.334 . S
C1625 C1626 1.287 . S
C1626 C1625 1.287 . S
C1626 C1627 1.524 . S
C1626 H1645 0.913 . S
C1627 H1603 0.950 . S
C1627 C1626 1.524 . S
C1627 C1628 1.415 . S
C1628 H1604 0.950 . S
C1628 C1623 1.363 . S
C1628 C1627 1.415 . S
C1629 H1605 0.951 . S
C1629 C1630 1.366 . S
C1629 C1631 1.388 . S
C1630 C1629 1.366 . S
C1630 C1634 1.385 . S
C1631 H1606 0.951 . S
C1631 C1629 1.388 . S
C1631 C1632 1.366 . S
C1632 C1631 1.366 . S
C1632 C1633 1.414 . S
C1632 C1635 1.499 . S
C1633 H1607 0.950 . S
C1633 C1632 1.414 . S
C1633 C1634 1.374 . S
C1634 H1608 0.950 . S
C1634 C1630 1.385 . S
C1634 C1633 1.374 . S
C1635 C1632 1.499 . S
C1635 C1636 1.373 . S
C1635 C1637 1.389 . S
C1636 H1609 0.950 . S
C1636 C1622 1.377 . S
C1636 C1635 1.373 . S
C1637 C1621 1.377 . S
C1637 C1635 1.389 . S
C1637 C1638 1.524 . S
C1638 C1637 1.524 . S
C1638 C1639 1.397 . S
C1638 C1643 1.363 . S
C1639 H1610 0.950 . S
C1639 C1638 1.397 . S
C1639 C1640 1.334 . S
C1640 H1611 0.950 . S
C1640 C1639 1.334 . S
C1640 C1641 1.287 . S
C1641 C1640 1.287 . S
C1641 C1642 1.524 . S
C1641 H1644 0.999 . S
C1642 H1612 0.950 . S
C1642 C1641 1.524 . S
C1642 C1643 1.415 . S
C1643 H1613 0.950 . S
C1643 C1638 1.363 . S
C1643 C1642 1.415 . S
H1644 C1641 0.999 . S
H1645 C1626 0.913 . S
H1646 C1664 0.951 . S
H1647 C1666 0.951 . S
H1648 C1668 0.950 . S
H1649 C1669 0.950 . S
H1650 C1671 0.950 . S
H1651 C1674 0.950 . S
H1652 C1675 0.950 . S
H1653 C1677 0.950 . S
H1654 C1678 0.950 . S
H1655 C1679 0.951 . S
H1656 C1681 0.951 . S
H1657 C1683 0.950 . S
H1658 C1684 0.950 . S
H1659 C1686 0.950 . S
H1660 C1689 0.950 . S
H1661 C1690 0.950 1_455 S
H1662 C1692 0.950 . S
H1663 C1693 0.950 . S
C1664 H1646 0.951 . S
C1664 C1665 1.366 . S
C1664 C1666 1.388 . S
C1665 C1664 1.366 . S
C1665 C1669 1.385 . S
C1666 H1647 0.951 . S
C1666 C1664 1.388 . S
C1666 C1667 1.366 . S
C1667 C1666 1.366 . S
C1667 C1668 1.414 . S
C1667 C1670 1.499 . S
C1668 H1648 0.950 . S
C1668 C1667 1.414 . S
C1668 C1669 1.374 . S
C1669 H1649 0.950 . S
C1669 C1665 1.385 . S
C1669 C1668 1.374 . S
C1670 C1667 1.499 . S
C1670 C1671 1.373 . S
C1670 C1672 1.389 . S
C1671 H1650 0.950 . S
C1671 C1670 1.373 . S
C1671 C1687 1.377 . S
C1672 C1670 1.389 . S
C1672 C1673 1.524 . S
C1672 C1686 1.377 . S
C1673 C1672 1.524 . S
C1673 C1674 1.397 . S
C1673 C1678 1.363 . S
C1674 H1651 0.950 . S
C1674 C1673 1.397 . S
C1674 C1675 1.334 . S
C1675 H1652 0.950 . S
C1675 C1674 1.334 . S
C1675 C1676 1.287 . S
C1676 C1675 1.287 . S
C1676 C1677 1.524 . S
C1676 H1695 0.913 . S
C1677 H1653 0.950 . S
C1677 C1676 1.524 . S
C1677 C1678 1.415 . S
C1678 H1654 0.950 . S
C1678 C1673 1.363 . S
C1678 C1677 1.415 . S
C1679 H1655 0.951 . S
C1679 C1680 1.366 . S
C1679 C1681 1.388 . S
C1680 C1679 1.366 . S
C1680 C1684 1.385 . S
C1681 H1656 0.951 . S
C1681 C1679 1.388 . S
C1681 C1682 1.366 . S
C1682 C1681 1.366 . S
C1682 C1683 1.414 . S
C1682 C1685 1.499 . S
C1683 H1657 0.950 . S
C1683 C1682 1.414 . S
C1683 C1684 1.374 . S
C1684 H1658 0.950 . S
C1684 C1680 1.385 . S
C1684 C1683 1.374 . S
C1685 C1682 1.499 . S
C1685 C1686 1.373 . S
C1685 C1687 1.389 . S
C1686 H1659 0.950 . S
C1686 C1672 1.377 . S
C1686 C1685 1.373 . S
C1687 C1671 1.377 . S
C1687 C1685 1.389 . S
C1687 C1688 1.524 . S
C1688 C1687 1.524 . S
C1688 C1689 1.397 . S
C1688 C1693 1.363 . S
C1689 H1660 0.950 . S
C1689 C1688 1.397 . S
C1689 C1690 1.334 . S
C1690 H1661 0.950 1_655 S
C1690 C1689 1.334 . S
C1690 C1691 1.287 . S
C1691 C1690 1.287 . S
C1691 C1692 1.524 . S
C1691 H1694 0.999 1_655 S
C1692 H1662 0.950 . S
C1692 C1691 1.524 . S
C1692 C1693 1.415 . S
C1693 H1663 0.950 . S
C1693 C1688 1.363 . S
C1693 C1692 1.415 . S
H1694 C1691 0.999 1_455 S
H1695 C1676 0.913 . S
H1696 C1714 0.951 . S
H1697 C1716 0.951 . S
H1698 C1718 0.950 . S
H1699 C1719 0.950 . S
H1700 C1721 0.950 . S
H1701 C1724 0.950 . S
H1702 C1725 0.950 . S
H1703 C1727 0.950 . S
H1704 C1728 0.950 . S
H1705 C1729 0.951 . S
H1706 C1731 0.951 . S
H1707 C1733 0.950 . S
H1708 C1734 0.950 . S
H1709 C1736 0.950 . S
H1710 C1739 0.950 . S
H1711 C1740 0.950 . S
H1712 C1742 0.950 . S
H1713 C1743 0.950 . S
C1714 H1696 0.951 . S
C1714 C1715 1.366 . S
C1714 C1716 1.388 . S
C1715 C1714 1.366 . S
C1715 C1719 1.385 . S
C1716 H1697 0.951 . S
C1716 C1714 1.388 . S
C1716 C1717 1.366 . S
C1717 C1716 1.366 . S
C1717 C1718 1.414 . S
C1717 C1720 1.499 . S
C1718 H1698 0.950 . S
C1718 C1717 1.414 . S
C1718 C1719 1.374 . S
C1719 H1699 0.950 . S
C1719 C1715 1.385 . S
C1719 C1718 1.374 . S
C1720 C1717 1.499 . S
C1720 C1721 1.373 . S
C1720 C1722 1.389 . S
C1721 H1700 0.950 . S
C1721 C1720 1.373 . S
C1721 C1737 1.377 . S
C1722 C1720 1.389 . S
C1722 C1723 1.524 . S
C1722 C1736 1.377 . S
C1723 C1722 1.524 . S
C1723 C1724 1.397 . S
C1723 C1728 1.363 . S
C1724 H1701 0.950 . S
C1724 C1723 1.397 . S
C1724 C1725 1.334 . S
C1725 H1702 0.950 . S
C1725 C1724 1.334 . S
C1725 C1726 1.287 . S
C1726 C1725 1.287 . S
C1726 C1727 1.524 . S
C1726 H1745 0.913 . S
C1727 H1703 0.950 . S
C1727 C1726 1.524 . S
C1727 C1728 1.415 . S
C1728 H1704 0.950 . S
C1728 C1723 1.363 . S
C1728 C1727 1.415 . S
C1729 H1705 0.951 . S
C1729 C1730 1.366 . S
C1729 C1731 1.388 . S
C1730 C1729 1.366 . S
C1730 C1734 1.385 . S
C1731 H1706 0.951 . S
C1731 C1729 1.388 . S
C1731 C1732 1.366 . S
C1732 C1731 1.366 . S
C1732 C1733 1.414 . S
C1732 C1735 1.499 . S
C1733 H1707 0.950 . S
C1733 C1732 1.414 . S
C1733 C1734 1.374 . S
C1734 H1708 0.950 . S
C1734 C1730 1.385 . S
C1734 C1733 1.374 . S
C1735 C1732 1.499 . S
C1735 C1736 1.373 . S
C1735 C1737 1.389 . S
C1736 H1709 0.950 . S
C1736 C1722 1.377 . S
C1736 C1735 1.373 . S
C1737 C1721 1.377 . S
C1737 C1735 1.389 . S
C1737 C1738 1.524 . S
C1738 C1737 1.524 . S
C1738 C1739 1.397 . S
C1738 C1743 1.363 . S
C1739 H1710 0.950 . S
C1739 C1738 1.397 . S
C1739 C1740 1.334 . S
C1740 H1711 0.950 . S
C1740 C1739 1.334 . S
C1740 C1741 1.287 . S
C1741 C1740 1.287 . S
C1741 C1742 1.524 . S
C1741 H1744 0.999 . S
C1742 H1712 0.950 . S
C1742 C1741 1.524 . S
C1742 C1743 1.415 . S
C1743 H1713 0.950 . S
C1743 C1738 1.363 . S
C1743 C1742 1.415 . S
H1744 C1741 0.999 . S
H1745 C1726 0.913 . S
H1746 C1764 0.951 . S
H1747 C1766 0.951 . S
H1748 C1768 0.950 . S
H1749 C1769 0.950 . S
H1750 C1771 0.950 . S
H1751 C1774 0.950 . S
H1752 C1775 0.950 . S
H1753 C1777 0.950 . S
H1754 C1778 0.950 . S
H1755 C1779 0.951 . S
H1756 C1781 0.951 . S
H1757 C1783 0.950 . S
H1758 C1784 0.950 . S
H1759 C1786 0.950 . S
H1760 C1789 0.950 . S
H1761 C1790 0.950 . S
H1762 C1792 0.950 . S
H1763 C1793 0.950 . S
C1764 H1746 0.951 . S
C1764 C1765 1.366 . S
C1764 C1766 1.388 . S
C1765 C1764 1.366 . S
C1765 C1769 1.385 . S
C1766 H1747 0.951 . S
C1766 C1764 1.388 . S
C1766 C1767 1.366 . S
C1767 C1766 1.366 . S
C1767 C1768 1.414 . S
C1767 C1770 1.499 . S
C1768 H1748 0.950 . S
C1768 C1767 1.414 . S
C1768 C1769 1.374 . S
C1769 H1749 0.950 . S
C1769 C1765 1.385 . S
C1769 C1768 1.374 . S
C1770 C1767 1.499 . S
C1770 C1771 1.373 . S
C1770 C1772 1.389 . S
C1771 H1750 0.950 . S
C1771 C1770 1.373 . S
C1771 C1787 1.377 . S
C1772 C1770 1.389 . S
C1772 C1773 1.524 . S
C1772 C1786 1.377 . S
C1773 C1772 1.524 . S
C1773 C1774 1.397 . S
C1773 C1778 1.363 . S
C1774 H1751 0.950 . S
C1774 C1773 1.397 . S
C1774 C1775 1.334 . S
C1775 H1752 0.950 . S
C1775 C1774 1.334 . S
C1775 C1776 1.287 . S
C1776 C1775 1.287 . S
C1776 C1777 1.524 . S
C1776 H1795 0.913 . S
C1777 H1753 0.950 . S
C1777 C1776 1.524 . S
C1777 C1778 1.415 . S
C1778 H1754 0.950 . S
C1778 C1773 1.363 . S
C1778 C1777 1.415 . S
C1779 H1755 0.951 . S
C1779 C1780 1.366 . S
C1779 C1781 1.388 . S
C1780 C1779 1.366 . S
C1780 C1784 1.385 . S
C1781 H1756 0.951 . S
C1781 C1779 1.388 . S
C1781 C1782 1.366 . S
C1782 C1781 1.366 . S
C1782 C1783 1.414 . S
C1782 C1785 1.499 . S
C1783 H1757 0.950 . S
C1783 C1782 1.414 . S
C1783 C1784 1.374 . S
C1784 H1758 0.950 . S
C1784 C1780 1.385 . S
C1784 C1783 1.374 . S
C1785 C1782 1.499 . S
C1785 C1786 1.373 . S
C1785 C1787 1.389 . S
C1786 H1759 0.950 . S
C1786 C1772 1.377 . S
C1786 C1785 1.373 . S
C1787 C1771 1.377 . S
C1787 C1785 1.389 . S
C1787 C1788 1.524 . S
C1788 C1787 1.524 . S
C1788 C1789 1.397 . S
C1788 C1793 1.363 . S
C1789 H1760 0.950 . S
C1789 C1788 1.397 . S
C1789 C1790 1.334 . S
C1790 H1761 0.950 . S
C1790 C1789 1.334 . S
C1790 C1791 1.287 . S
C1791 C1790 1.287 . S
C1791 C1792 1.524 . S
C1791 H1794 0.999 . S
C1792 H1762 0.950 . S
C1792 C1791 1.524 . S
C1792 C1793 1.415 . S
C1793 H1763 0.950 . S
C1793 C1788 1.363 . S
C1793 C1792 1.415 . S
H1794 C1791 0.999 . S
H1795 C1776 0.913 . S
H1796 C1814 0.951 . S
H1797 C1816 0.951 . S
H1798 C1818 0.950 . S
H1799 C1819 0.950 . S
H1800 C1821 0.950 . S
H1801 C1824 0.950 . S
H1802 C1825 0.950 . S
H1803 C1827 0.950 . S
H1804 C1828 0.950 . S
H1805 C1829 0.951 . S
H1806 C1831 0.951 . S
H1807 C1833 0.950 . S
H1808 C1834 0.950 . S
H1809 C1836 0.950 . S
H1810 C1839 0.950 . S
H1811 C1840 0.950 . S
H1812 C1842 0.950 . S
H1813 C1843 0.950 . S
C1814 H1796 0.951 . S
C1814 C1815 1.366 . S
C1814 C1816 1.388 . S
C1815 C1814 1.366 . S
C1815 C1819 1.385 . S
C1816 H1797 0.951 . S
C1816 C1814 1.388 . S
C1816 C1817 1.366 . S
C1817 C1816 1.366 . S
C1817 C1818 1.414 . S
C1817 C1820 1.499 . S
C1818 H1798 0.950 . S
C1818 C1817 1.414 . S
C1818 C1819 1.374 . S
C1819 H1799 0.950 . S
C1819 C1815 1.385 . S
C1819 C1818 1.374 . S
C1820 C1817 1.499 . S
C1820 C1821 1.373 . S
C1820 C1822 1.389 . S
C1821 H1800 0.950 . S
C1821 C1820 1.373 . S
C1821 C1837 1.377 . S
C1822 C1820 1.389 . S
C1822 C1823 1.524 . S
C1822 C1836 1.377 . S
C1823 C1822 1.524 . S
C1823 C1824 1.397 . S
C1823 C1828 1.363 . S
C1824 H1801 0.950 . S
C1824 C1823 1.397 . S
C1824 C1825 1.334 . S
C1825 H1802 0.950 . S
C1825 C1824 1.334 . S
C1825 C1826 1.287 . S
C1826 C1825 1.287 . S
C1826 C1827 1.524 . S
C1826 H1845 0.913 . S
C1827 H1803 0.950 . S
C1827 C1826 1.524 . S
C1827 C1828 1.415 . S
C1828 H1804 0.950 . S
C1828 C1823 1.363 . S
C1828 C1827 1.415 . S
C1829 H1805 0.951 . S
C1829 C1830 1.366 . S
C1829 C1831 1.388 . S
C1830 C1829 1.366 . S
C1830 C1834 1.385 . S
C1831 H1806 0.951 . S
C1831 C1829 1.388 . S
C1831 C1832 1.366 . S
C1832 C1831 1.366 . S
C1832 C1833 1.414 . S
C1832 C1835 1.499 . S
C1833 H1807 0.950 . S
C1833 C1832 1.414 . S
C1833 C1834 1.374 . S
C1834 H1808 0.950 . S
C1834 C1830 1.385 . S
C1834 C1833 1.374 . S
C1835 C1832 1.499 . S
C1835 C1836 1.373 . S
C1835 C1837 1.389 . S
C1836 H1809 0.950 . S
C1836 C1822 1.377 . S
C1836 C1835 1.373 . S
C1837 C1821 1.377 . S
C1837 C1835 1.389 . S
C1837 C1838 1.524 . S
C1838 C1837 1.524 . S
C1838 C1839 1.397 . S
C1838 C1843 1.363 . S
C1839 H1810 0.950 . S
C1839 C1838 1.397 . S
C1839 C1840 1.334 . S
C1840 H1811 0.950 . S
C1840 C1839 1.334 . S
C1840 C1841 1.287 . S
C1841 C1840 1.287 . S
C1841 C1842 1.524 . S
C1841 H1844 0.999 . S
C1842 H1812 0.950 . S
C1842 C1841 1.524 . S
C1842 C1843 1.415 . S
C1843 H1813 0.950 . S
C1843 C1838 1.363 . S
C1843 C1842 1.415 . S
H1844 C1841 0.999 . S
H1845 C1826 0.913 . S
H1846 C1864 0.951 . S
H1847 C1866 0.951 . S
H1848 C1868 0.950 . S
H1849 C1869 0.950 . S
H1850 C1871 0.950 . S
H1851 C1874 0.950 . S
H1852 C1875 0.950 . S
H1853 C1877 0.950 . S
H1854 C1878 0.950 . S
H1855 C1879 0.951 . S
H1856 C1881 0.951 . S
H1857 C1883 0.950 . S
H1858 C1884 0.950 . S
H1859 C1886 0.950 . S
H1860 C1889 0.950 . S
H1861 C1890 0.950 . S
H1862 C1892 0.950 . S
H1863 C1893 0.950 . S
C1864 H1846 0.951 . S
C1864 C1865 1.366 . S
C1864 C1866 1.388 . S
C1865 C1864 1.366 . S
C1865 C1869 1.385 . S
C1866 H1847 0.951 . S
C1866 C1864 1.388 . S
C1866 C1867 1.366 . S
C1867 C1866 1.366 . S
C1867 C1868 1.414 . S
C1867 C1870 1.499 . S
C1868 H1848 0.950 . S
C1868 C1867 1.414 . S
C1868 C1869 1.374 . S
C1869 H1849 0.950 . S
C1869 C1865 1.385 . S
C1869 C1868 1.374 . S
C1870 C1867 1.499 . S
C1870 C1871 1.373 . S
C1870 C1872 1.389 . S
C1871 H1850 0.950 . S
C1871 C1870 1.373 . S
C1871 C1887 1.377 . S
C1872 C1870 1.389 . S
C1872 C1873 1.524 . S
C1872 C1886 1.377 . S
C1873 C1872 1.524 . S
C1873 C1874 1.397 . S
C1873 C1878 1.363 . S
C1874 H1851 0.950 . S
C1874 C1873 1.397 . S
C1874 C1875 1.334 . S
C1875 H1852 0.950 . S
C1875 C1874 1.334 . S
C1875 C1876 1.287 . S
C1876 C1875 1.287 . S
C1876 C1877 1.524 . S
C1876 H1895 0.913 . S
C1877 H1853 0.950 . S
C1877 C1876 1.524 . S
C1877 C1878 1.415 . S
C1878 H1854 0.950 . S
C1878 C1873 1.363 . S
C1878 C1877 1.415 . S
C1879 H1855 0.951 . S
C1879 C1880 1.366 . S
C1879 C1881 1.388 . S
C1880 C1879 1.366 . S
C1880 C1884 1.385 . S
C1881 H1856 0.951 . S
C1881 C1879 1.388 . S
C1881 C1882 1.366 . S
C1882 C1881 1.366 . S
C1882 C1883 1.414 . S
C1882 C1885 1.499 . S
C1883 H1857 0.950 . S
C1883 C1882 1.414 . S
C1883 C1884 1.374 . S
C1884 H1858 0.950 . S
C1884 C1880 1.385 . S
C1884 C1883 1.374 . S
C1885 C1882 1.499 . S
C1885 C1886 1.373 . S
C1885 C1887 1.389 . S
C1886 H1859 0.950 . S
C1886 C1872 1.377 . S
C1886 C1885 1.373 . S
C1887 C1871 1.377 . S
C1887 C1885 1.389 . S
C1887 C1888 1.524 . S
C1888 C1887 1.524 . S
C1888 C1889 1.397 . S
C1888 C1893 1.363 . S
C1889 H1860 0.950 . S
C1889 C1888 1.397 . S
C1889 C1890 1.334 . S
C1890 H1861 0.950 . S
C1890 C1889 1.334 . S
C1890 C1891 1.287 . S
C1891 C1890 1.287 . S
C1891 C1892 1.524 . S
C1891 H1894 0.999 . S
C1892 H1862 0.950 . S
C1892 C1891 1.524 . S
C1892 C1893 1.415 . S
C1893 H1863 0.950 . S
C1893 C1888 1.363 . S
C1893 C1892 1.415 . S
H1894 C1891 0.999 . S
H1895 C1876 0.913 . S
H1896 C1914 0.951 . S
H1897 C1916 0.951 . S
H1898 C1918 0.950 . S
H1899 C1919 0.950 . S
H1900 C1921 0.950 . S
H1901 C1924 0.950 . S
H1902 C1925 0.950 . S
H1903 C1927 0.950 . S
H1904 C1928 0.950 . S
H1905 C1929 0.951 . S
H1906 C1931 0.951 . S
H1907 C1933 0.950 . S
H1908 C1934 0.950 . S
H1909 C1936 0.950 . S
H1910 C1939 0.950 . S
H1911 C1940 0.950 . S
H1912 C1942 0.950 . S
H1913 C1943 0.950 . S
C1914 H1896 0.951 . S
C1914 C1915 1.366 . S
C1914 C1916 1.388 . S
C1915 C1914 1.366 . S
C1915 C1919 1.385 . S
C1916 H1897 0.951 . S
C1916 C1914 1.388 . S
C1916 C1917 1.366 . S
C1917 C1916 1.366 . S
C1917 C1918 1.414 . S
C1917 C1920 1.499 . S
C1918 H1898 0.950 . S
C1918 C1917 1.414 . S
C1918 C1919 1.374 . S
C1919 H1899 0.950 . S
C1919 C1915 1.385 . S
C1919 C1918 1.374 . S
C1920 C1917 1.499 . S
C1920 C1921 1.373 . S
C1920 C1922 1.389 . S
C1921 H1900 0.950 . S
C1921 C1920 1.373 . S
C1921 C1937 1.377 . S
C1922 C1920 1.389 . S
C1922 C1923 1.524 . S
C1922 C1936 1.377 . S
C1923 C1922 1.524 . S
C1923 C1924 1.397 . S
C1923 C1928 1.363 . S
C1924 H1901 0.950 . S
C1924 C1923 1.397 . S
C1924 C1925 1.334 . S
C1925 H1902 0.950 . S
C1925 C1924 1.334 . S
C1925 C1926 1.287 . S
C1926 C1925 1.287 . S
C1926 C1927 1.524 . S
C1926 H1945 0.913 1_556 S
C1927 H1903 0.950 . S
C1927 C1926 1.524 . S
C1927 C1928 1.415 . S
C1928 H1904 0.950 . S
C1928 C1923 1.363 . S
C1928 C1927 1.415 . S
C1929 H1905 0.951 . S
C1929 C1930 1.366 . S
C1929 C1931 1.388 . S
C1930 C1929 1.366 . S
C1930 C1934 1.385 . S
C1931 H1906 0.951 . S
C1931 C1929 1.388 . S
C1931 C1932 1.366 . S
C1932 C1931 1.366 . S
C1932 C1933 1.414 . S
C1932 C1935 1.499 . S
C1933 H1907 0.950 . S
C1933 C1932 1.414 . S
C1933 C1934 1.374 . S
C1934 H1908 0.950 . S
C1934 C1930 1.385 . S
C1934 C1933 1.374 . S
C1935 C1932 1.499 . S
C1935 C1936 1.373 . S
C1935 C1937 1.389 . S
C1936 H1909 0.950 . S
C1936 C1922 1.377 . S
C1936 C1935 1.373 . S
C1937 C1921 1.377 . S
C1937 C1935 1.389 . S
C1937 C1938 1.524 . S
C1938 C1937 1.524 . S
C1938 C1939 1.397 . S
C1938 C1943 1.363 . S
C1939 H1910 0.950 . S
C1939 C1938 1.397 . S
C1939 C1940 1.334 . S
C1940 H1911 0.950 . S
C1940 C1939 1.334 . S
C1940 C1941 1.287 . S
C1941 C1940 1.287 . S
C1941 C1942 1.524 . S
C1941 H1944 0.999 . S
C1942 H1912 0.950 . S
C1942 C1941 1.524 . S
C1942 C1943 1.415 . S
C1943 H1913 0.950 . S
C1943 C1938 1.363 . S
C1943 C1942 1.415 . S
H1944 C1941 0.999 . S
H1945 C1926 0.913 1_554 S
H1946 C1964 0.951 . S
H1947 C1966 0.951 . S
H1948 C1968 0.950 . S
H1949 C1969 0.950 . S
H1950 C1971 0.950 . S
H1951 C1974 0.950 . S
H1952 C1975 0.950 . S
H1953 C1977 0.950 . S
H1954 C1978 0.950 . S
H1955 C1979 0.951 . S
H1956 C1981 0.951 . S
H1957 C1983 0.950 . S
H1958 C1984 0.950 . S
H1959 C1986 0.950 . S
H1960 C1989 0.950 . S
H1961 C1990 0.950 . S
H1962 C1992 0.950 . S
H1963 C1993 0.950 . S
C1964 H1946 0.951 . S
C1964 C1965 1.366 . S
C1964 C1966 1.388 . S
C1965 C1964 1.366 . S
C1965 C1969 1.385 . S
C1966 H1947 0.951 . S
C1966 C1964 1.388 . S
C1966 C1967 1.366 . S
C1967 C1966 1.366 . S
C1967 C1968 1.414 . S
C1967 C1970 1.499 . S
C1968 H1948 0.950 . S
C1968 C1967 1.414 . S
C1968 C1969 1.374 . S
C1969 H1949 0.950 . S
C1969 C1965 1.385 . S
C1969 C1968 1.374 . S
C1970 C1967 1.499 . S
C1970 C1971 1.373 . S
C1970 C1972 1.389 . S
C1971 H1950 0.950 . S
C1971 C1970 1.373 . S
C1971 C1987 1.377 . S
C1972 C1970 1.389 . S
C1972 C1973 1.524 . S
C1972 C1986 1.377 . S
C1973 C1972 1.524 . S
C1973 C1974 1.397 . S
C1973 C1978 1.363 . S
C1974 H1951 0.950 . S
C1974 C1973 1.397 . S
C1974 C1975 1.334 . S
C1975 H1952 0.950 . S
C1975 C1974 1.334 . S
C1975 C1976 1.287 . S
C1976 C1975 1.287 . S
C1976 C1977 1.524 . S
C1976 H1995 0.913 . S
C1977 H1953 0.950 . S
C1977 C1976 1.524 . S
C1977 C1978 1.415 . S
C1978 H1954 0.950 . S
C1978 C1973 1.363 . S
C1978 C1977 1.415 . S
C1979 H1955 0.951 . S
C1979 C1980 1.366 . S
C1979 C1981 1.388 . S
C1980 C1979 1.366 . S
C1980 C1984 1.385 . S
C1981 H1956 0.951 . S
C1981 C1979 1.388 . S
C1981 C1982 1.366 . S
C1982 C1981 1.366 . S
C1982 C1983 1.414 . S
C1982 C1985 1.499 . S
C1983 H1957 0.950 . S
C1983 C1982 1.414 . S
C1983 C1984 1.374 . S
C1984 H1958 0.950 . S
C1984 C1980 1.385 . S
C1984 C1983 1.374 . S
C1985 C1982 1.499 . S
C1985 C1986 1.373 . S
C1985 C1987 1.389 . S
C1986 H1959 0.950 . S
C1986 C1972 1.377 . S
C1986 C1985 1.373 . S
C1987 C1971 1.377 . S
C1987 C1985 1.389 . S
C1987 C1988 1.524 . S
C1988 C1987 1.524 . S
C1988 C1989 1.397 . S
C1988 C1993 1.363 . S
C1989 H1960 0.950 . S
C1989 C1988 1.397 . S
C1989 C1990 1.334 . S
C1990 H1961 0.950 . S
C1990 C1989 1.334 . S
C1990 C1991 1.287 . S
C1991 C1990 1.287 . S
C1991 C1992 1.524 . S
C1991 H1994 0.999 . S
C1992 H1962 0.950 . S
C1992 C1991 1.524 . S
C1992 C1993 1.415 . S
C1993 H1963 0.950 . S
C1993 C1988 1.363 . S
C1993 C1992 1.415 . S
H1994 C1991 0.999 . S
H1995 C1976 0.913 . S
H1996 C2014 0.951 . S
H1997 C2016 0.951 . S
H1998 C2018 0.950 . S
H1999 C2019 0.950 . S
H2000 C2021 0.950 . S
H2001 C2024 0.950 . S
H2002 C2025 0.950 . S
H2003 C2027 0.950 . S
H2004 C2028 0.950 . S
H2005 C2029 0.951 . S
H2006 C2031 0.951 . S
H2007 C2033 0.950 . S
H2008 C2034 0.950 . S
H2009 C2036 0.950 . S
H2010 C2039 0.950 . S
H2011 C2040 0.950 . S
H2012 C2042 0.950 . S
H2013 C2043 0.950 . S
C2014 H1996 0.951 . S
C2014 C2015 1.366 . S
C2014 C2016 1.388 . S
C2015 C2014 1.366 . S
C2015 C2019 1.385 . S
C2016 H1997 0.951 . S
C2016 C2014 1.388 . S
C2016 C2017 1.366 . S
C2017 C2016 1.366 . S
C2017 C2018 1.414 . S
C2017 C2020 1.499 . S
C2018 H1998 0.950 . S
C2018 C2017 1.414 . S
C2018 C2019 1.374 . S
C2019 H1999 0.950 . S
C2019 C2015 1.385 . S
C2019 C2018 1.374 . S
C2020 C2017 1.499 . S
C2020 C2021 1.373 . S
C2020 C2022 1.389 . S
C2021 H2000 0.950 . S
C2021 C2020 1.373 . S
C2021 C2037 1.377 . S
C2022 C2020 1.389 . S
C2022 C2023 1.524 . S
C2022 C2036 1.377 . S
C2023 C2022 1.524 . S
C2023 C2024 1.397 . S
C2023 C2028 1.363 . S
C2024 H2001 0.950 . S
C2024 C2023 1.397 . S
C2024 C2025 1.334 . S
C2025 H2002 0.950 . S
C2025 C2024 1.334 . S
C2025 C2026 1.287 . S
C2026 C2025 1.287 . S
C2026 C2027 1.524 . S
C2026 H2045 0.913 . S
C2027 H2003 0.950 . S
C2027 C2026 1.524 . S
C2027 C2028 1.415 . S
C2028 H2004 0.950 . S
C2028 C2023 1.363 . S
C2028 C2027 1.415 . S
C2029 H2005 0.951 . S
C2029 C2030 1.366 . S
C2029 C2031 1.388 . S
C2030 C2029 1.366 . S
C2030 C2034 1.385 . S
C2031 H2006 0.951 . S
C2031 C2029 1.388 . S
C2031 C2032 1.366 . S
C2032 C2031 1.366 . S
C2032 C2033 1.414 . S
C2032 C2035 1.499 . S
C2033 H2007 0.950 . S
C2033 C2032 1.414 . S
C2033 C2034 1.374 . S
C2034 H2008 0.950 . S
C2034 C2030 1.385 . S
C2034 C2033 1.374 . S
C2035 C2032 1.499 . S
C2035 C2036 1.373 . S
C2035 C2037 1.389 . S
C2036 H2009 0.950 . S
C2036 C2022 1.377 . S
C2036 C2035 1.373 . S
C2037 C2021 1.377 . S
C2037 C2035 1.389 . S
C2037 C2038 1.524 . S
C2038 C2037 1.524 . S
C2038 C2039 1.397 . S
C2038 C2043 1.363 . S
C2039 H2010 0.950 . S
C2039 C2038 1.397 . S
C2039 C2040 1.334 . S
C2040 H2011 0.950 . S
C2040 C2039 1.334 . S
C2040 C2041 1.287 . S
C2041 C2040 1.287 . S
C2041 C2042 1.524 . S
C2041 H2044 0.999 . S
C2042 H2012 0.950 . S
C2042 C2041 1.524 . S
C2042 C2043 1.415 . S
C2043 H2013 0.950 . S
C2043 C2038 1.363 . S
C2043 C2042 1.415 . S
H2044 C2041 0.999 . S
H2045 C2026 0.913 . S
H2046 C2064 0.951 . S
H2047 C2066 0.951 . S
H2048 C2068 0.950 . S
H2049 C2069 0.950 . S
H2050 C2071 0.950 . S
H2051 C2074 0.950 . S
H2052 C2075 0.950 . S
H2053 C2077 0.950 . S
H2054 C2078 0.950 . S
H2055 C2079 0.951 . S
H2056 C2081 0.951 . S
H2057 C2083 0.950 . S
H2058 C2084 0.950 . S
H2059 C2086 0.950 . S
H2060 C2089 0.950 . S
H2061 C2090 0.950 . S
H2062 C2092 0.949 1_655 S
H2063 C2093 0.950 . S
C2064 H2046 0.951 . S
C2064 C2065 1.366 . S
C2064 C2066 1.388 . S
C2065 C2064 1.366 . S
C2065 C2069 1.385 . S
C2066 H2047 0.951 . S
C2066 C2064 1.388 . S
C2066 C2067 1.366 . S
C2067 C2066 1.366 . S
C2067 C2068 1.414 . S
C2067 C2070 1.499 . S
C2068 H2048 0.950 . S
C2068 C2067 1.414 . S
C2068 C2069 1.374 . S
C2069 H2049 0.950 . S
C2069 C2065 1.385 . S
C2069 C2068 1.374 . S
C2070 C2067 1.499 . S
C2070 C2071 1.373 . S
C2070 C2072 1.389 . S
C2071 H2050 0.950 . S
C2071 C2070 1.373 . S
C2071 C2087 1.377 . S
C2072 C2070 1.389 . S
C2072 C2073 1.524 . S
C2072 C2086 1.377 . S
C2073 C2072 1.524 . S
C2073 C2074 1.397 . S
C2073 C2078 1.363 . S
C2074 H2051 0.950 . S
C2074 C2073 1.397 . S
C2074 C2075 1.334 . S
C2075 H2052 0.950 . S
C2075 C2074 1.334 . S
C2075 C2076 1.287 . S
C2076 C2075 1.287 . S
C2076 C2077 1.524 . S
C2076 H2095 0.913 . S
C2077 H2053 0.950 . S
C2077 C2076 1.524 . S
C2077 C2078 1.415 . S
C2078 H2054 0.950 . S
C2078 C2073 1.363 . S
C2078 C2077 1.415 . S
C2079 H2055 0.951 . S
C2079 C2080 1.366 . S
C2079 C2081 1.388 . S
C2080 C2079 1.366 . S
C2080 C2084 1.385 . S
C2081 H2056 0.951 . S
C2081 C2079 1.388 . S
C2081 C2082 1.366 . S
C2082 C2081 1.366 . S
C2082 C2083 1.414 . S
C2082 C2085 1.499 . S
C2083 H2057 0.950 . S
C2083 C2082 1.414 . S
C2083 C2084 1.374 . S
C2084 H2058 0.950 . S
C2084 C2080 1.385 . S
C2084 C2083 1.374 . S
C2085 C2082 1.499 . S
C2085 C2086 1.373 . S
C2085 C2087 1.389 . S
C2086 H2059 0.950 . S
C2086 C2072 1.377 . S
C2086 C2085 1.373 . S
C2087 C2071 1.377 . S
C2087 C2085 1.389 . S
C2087 C2088 1.524 . S
C2088 C2087 1.524 . S
C2088 C2089 1.397 . S
C2088 C2093 1.363 . S
C2089 H2060 0.950 . S
C2089 C2088 1.397 . S
C2089 C2090 1.334 . S
C2090 H2061 0.950 . S
C2090 C2089 1.334 . S
C2090 C2091 1.287 . S
C2091 C2090 1.287 . S
C2091 C2092 1.524 . S
C2091 H2094 0.999 1_455 S
C2092 H2062 0.949 1_455 S
C2092 C2091 1.524 . S
C2092 C2093 1.416 . S
C2093 H2063 0.950 . S
C2093 C2088 1.363 . S
C2093 C2092 1.416 . S
H2094 C2091 0.999 1_655 S
H2095 C2076 0.913 . S
C530 C417 1.473 . S
C515 C1 1.493 . S
C565 C68 1.495 . S
C580 C449 1.474 . S
C615 C93 1.496 . S
C630 C472 1.482 . S
C680 C376 1.485 . S
C665 C139 1.495 . S
C730 C459 1.328 . S
C715 C8 1.450 . S
C780 C488 1.338 . S
C765 C61 1.449 . S
C830 C392 1.337 . S
C815 C100 1.450 . S
C880 C427 1.327 . S
C865 C146 1.452 . S
C915 C15 1.452 . S
C930 C455 1.338 . S
C965 C192 1.449 . S
C980 C430 1.326 . S
C1015 C107 1.452 . S
C1030 C398 1.329 . S
C1080 C487 1.336 . S
C1065 C238 1.451 . S
C1130 C431 1.473 . S
C1115 C22 1.498 . S
C1165 C185 1.494 . S
C1180 C399 1.475 . S
C1215 C114 1.496 . S
C1230 C486 1.488 . S
C1280 C454 1.485 . S
C1265 C231 1.495 . S
C1315 C277 1.496 . S
C1330 C481 1.476 . S
C1365 C206 1.495 . S
C1380 C385 1.475 . S
C1415 C330 1.496 . S
C1430 C408 1.488 . S
C1465 C252 1.494 . S
C1480 C440 1.485 . S
C1530 C395 1.326 . S
C1515 C284 1.455 . S
C1565 C199 1.450 . S
C1580 C424 1.337 . S
C1615 C323 1.452 . S
C1630 C456 1.340 . S
C1680 C491 1.328 . S
C1665 C245 1.451 . S
C1715 C291 1.452 . S
C1730 C391 1.335 . S
C1765 C54 1.449 . S
C1780 C494 1.325 . S
C1815 C344 1.452 . S
C1830 C462 1.325 . S
C1880 C423 1.338 . S
C1865 C153 1.453 . S
C1930 C495 1.473 . S
C1915 C298 1.493 . S
C1980 C463 1.474 . S
C1965 C47 1.494 . S
C2030 C422 1.485 . S
C2015 C337 1.493 . S
C2080 C390 1.485 . S
C2065 C160 1.495 . S
