# Generated by pormake.
# Topology ssb, (4,4)-cn, num edge types: 1
# Building blocks:
#     Node 0, Type 0, BuildingBlock: KUFVIS_clean_linker_0, # of connection points: 4
#     Node 1, Type 0, BuildingBlock: KUFVIS_clean_linker_0, # of connection points: 4
#     Node 2, Type 0, BuildingBlock: KUFVIS_clean_linker_0, # of connection points: 4
#     Node 3, Type 0, BuildingBlock: KUFVIS_clean_linker_0, # of connection points: 4
#     Node 4, Type 0, BuildingBlock: KUFVIS_clean_linker_0, # of connection points: 4
#     Node 5, Type 0, BuildingBlock: KUFVIS_clean_linker_0, # of connection points: 4
#     Node 6, Type 0, BuildingBlock: KUFVIS_clean_linker_0, # of connection points: 4
#     Node 7, Type 0, BuildingBlock: KUFVIS_clean_linker_0, # of connection points: 4
#     Node 8, Type 1, BuildingBlock: NAWXER_clean_sbu_0, # of connection points: 4
#     Node 9, Type 1, BuildingBlock: NAWXER_clean_sbu_0, # of connection points: 4
#     Node 10, Type 1, BuildingBlock: NAWXER_clean_sbu_0, # of connection points: 4
#     Node 11, Type 1, BuildingBlock: NAWXER_clean_sbu_0, # of connection points: 4
#     Node 12, Type 1, BuildingBlock: NAWXER_clean_sbu_0, # of connection points: 4
#     Node 13, Type 1, BuildingBlock: NAWXER_clean_sbu_0, # of connection points: 4
#     Node 14, Type 1, BuildingBlock: NAWXER_clean_sbu_0, # of connection points: 4
#     Node 15, Type 1, BuildingBlock: NAWXER_clean_sbu_0, # of connection points: 4
#     Edge 16, Type (0, 1), BuildingBlock: XIVTED_clean_linker_0, # of connection points: 2
#     Edge 17, Type (0, 1), BuildingBlock: XIVTED_clean_linker_0, # of connection points: 2
#     Edge 18, Type (0, 1), BuildingBlock: XIVTED_clean_linker_0, # of connection points: 2
#     Edge 19, Type (0, 1), BuildingBlock: XIVTED_clean_linker_0, # of connection points: 2
#     Edge 20, Type (0, 1), BuildingBlock: XIVTED_clean_linker_0, # of connection points: 2
#     Edge 21, Type (0, 1), BuildingBlock: XIVTED_clean_linker_0, # of connection points: 2
#     Edge 22, Type (0, 1), BuildingBlock: XIVTED_clean_linker_0, # of connection points: 2
#     Edge 23, Type (0, 1), BuildingBlock: XIVTED_clean_linker_0, # of connection points: 2
#     Edge 24, Type (0, 1), BuildingBlock: XIVTED_clean_linker_0, # of connection points: 2
#     Edge 25, Type (0, 1), BuildingBlock: XIVTED_clean_linker_0, # of connection points: 2
#     Edge 26, Type (0, 1), BuildingBlock: XIVTED_clean_linker_0, # of connection points: 2
#     Edge 27, Type (0, 1), BuildingBlock: XIVTED_clean_linker_0, # of connection points: 2
#     Edge 28, Type (0, 1), BuildingBlock: XIVTED_clean_linker_0, # of connection points: 2
#     Edge 29, Type (0, 1), BuildingBlock: XIVTED_clean_linker_0, # of connection points: 2
#     Edge 30, Type (0, 1), BuildingBlock: XIVTED_clean_linker_0, # of connection points: 2
#     Edge 31, Type (0, 1), BuildingBlock: XIVTED_clean_linker_0, # of connection points: 2
#     Edge 32, Type (0, 1), BuildingBlock: XIVTED_clean_linker_0, # of connection points: 2
#     Edge 33, Type (0, 1), BuildingBlock: XIVTED_clean_linker_0, # of connection points: 2
#     Edge 34, Type (0, 1), BuildingBlock: XIVTED_clean_linker_0, # of connection points: 2
#     Edge 35, Type (0, 1), BuildingBlock: XIVTED_clean_linker_0, # of connection points: 2
#     Edge 36, Type (0, 1), BuildingBlock: XIVTED_clean_linker_0, # of connection points: 2
#     Edge 37, Type (0, 1), BuildingBlock: XIVTED_clean_linker_0, # of connection points: 2
#     Edge 38, Type (0, 1), BuildingBlock: XIVTED_clean_linker_0, # of connection points: 2
#     Edge 39, Type (0, 1), BuildingBlock: XIVTED_clean_linker_0, # of connection points: 2
#     Edge 40, Type (0, 1), BuildingBlock: XIVTED_clean_linker_0, # of connection points: 2
#     Edge 41, Type (0, 1), BuildingBlock: XIVTED_clean_linker_0, # of connection points: 2
#     Edge 42, Type (0, 1), BuildingBlock: XIVTED_clean_linker_0, # of connection points: 2
#     Edge 43, Type (0, 1), BuildingBlock: XIVTED_clean_linker_0, # of connection points: 2
#     Edge 44, Type (0, 1), BuildingBlock: XIVTED_clean_linker_0, # of connection points: 2
#     Edge 45, Type (0, 1), BuildingBlock: XIVTED_clean_linker_0, # of connection points: 2
#     Edge 46, Type (0, 1), BuildingBlock: XIVTED_clean_linker_0, # of connection points: 2
#     Edge 47, Type (0, 1), BuildingBlock: XIVTED_clean_linker_0, # of connection points: 2
# Relax obj value: 0.000
# Max RMSD: 0.051
# Mean RMSD: 0.025
data_MOF--net-ssb--node1-NAWXER_clean_sbu_0--node2-KUFVIS_clean_linker_0--edge1-XIVTED_clean_linker_0
_symmetry_space_group_name_H-M    P1
_symmetry_Int_Tables_number       1
_symmetry_cell_setting            triclinic
loop_
_symmetry_equiv_pos_as_xyz
'x, y, z'
_cell_length_a     46.367944
_cell_length_b     46.267011
_cell_length_c     38.770108
_cell_angle_alpha  90.094644
_cell_angle_beta   90.041474
_cell_angle_gamma 90.225723
loop_
_atom_site_label
_atom_site_type_symbol
_atom_site_fract_x
_atom_site_fract_y
_atom_site_fract_z
_atom_type_partial_charge
H0 H 0.23058 0.23191 0.39988 0.0
H1 H 0.30965 0.24236 0.34396 0.0
H2 H 0.23517 0.29548 0.32071 0.0
H3 H 0.26575 0.3255 0.29912 0.0
H4 H 0.33443 0.32436 0.22586 0.0
H5 H 0.32177 0.25071 0.29037 0.0
C6 C 0.24319 0.24286 0.38028 0.0
C7 C 0.23055 0.26546 0.36188 0.0
C8 C 0.27162 0.23419 0.37375 0.0
C9 C 0.28743 0.24853 0.34782 0.0
C10 C 0.2749 0.27105 0.32796 0.0
C11 C 0.24615 0.27914 0.33558 0.0
C12 C 0.29156 0.286 0.29954 0.0
C13 C 0.28354 0.31392 0.28768 0.0
C14 C 0.29875 0.32765 0.26093 0.0
C15 C 0.32288 0.31409 0.2469 0.0
C16 C 0.3315 0.28677 0.25797 0.0
C17 C 0.31545 0.27241 0.28348 0.0
H18 H 0.72655 0.26984 0.15041 0.0
H19 H 0.79791 0.26815 0.22054 0.0
H20 H 0.73981 0.19476 0.21271 0.0
H21 H 0.74797 0.1929 0.26946 0.0
H22 H 0.82379 0.18068 0.33029 0.0
H23 H 0.82838 0.23509 0.24131 0.0
C24 C 0.73926 0.25841 0.16948 0.0
C25 C 0.73036 0.23094 0.1803 0.0
C26 C 0.76405 0.27149 0.1832 0.0
C27 C 0.77988 0.25698 0.20873 0.0
C28 C 0.77128 0.22926 0.22041 0.0
C29 C 0.74684 0.2161 0.20491 0.0
C30 C 0.78636 0.21505 0.25025 0.0
C31 C 0.77083 0.19668 0.27296 0.0
C32 C 0.78432 0.18439 0.30178 0.0
C33 C 0.81348 0.18998 0.30777 0.0
C34 C 0.82925 0.20853 0.28654 0.0
C35 C 0.81578 0.22096 0.25768 0.0
H36 H 0.77875 0.78217 0.38597 0.0
H37 H 0.77166 0.70933 0.3191 0.0
H38 H 0.70026 0.76948 0.33066 0.0
H39 H 0.6833 0.75328 0.28425 0.0
H40 H 0.67215 0.67794 0.22267 0.0
H41 H 0.74387 0.6818 0.29134 0.0
C42 C 0.76608 0.76954 0.3678 0.0
C43 C 0.73852 0.77891 0.35868 0.0
C44 C 0.77758 0.74413 0.35416 0.0
C45 C 0.76135 0.72798 0.33025 0.0
C46 C 0.73311 0.73664 0.32028 0.0
C47 C 0.72179 0.76201 0.33604 0.0
C48 C 0.71598 0.71996 0.29316 0.0
C49 C 0.6907 0.73185 0.27797 0.0
C50 C 0.67435 0.71621 0.25373 0.0
C51 C 0.6839 0.68916 0.2429 0.0
C52 C 0.70928 0.6772 0.25577 0.0
C53 C 0.72494 0.69226 0.28125 0.0
H54 H 0.19103 0.82148 0.33725 0.0
H55 H 0.26299 0.81071 0.26937 0.0
H56 H 0.18206 0.76588 0.24981 0.0
H57 H 0.21138 0.7334 0.22651 0.0
H58 H 0.26769 0.73718 0.13947 0.0
H59 H 0.26666 0.80793 0.21141 0.0
C60 C 0.20021 0.81194 0.31415 0.0
C61 C 0.1836 0.79278 0.29467 0.0
C62 C 0.22866 0.81846 0.30524 0.0
C63 C 0.2407 0.80597 0.27548 0.0
C64 C 0.22429 0.78658 0.25482 0.0
C65 C 0.19554 0.78019 0.265 0.0
C66 C 0.23703 0.77277 0.2231 0.0
C67 C 0.2272 0.74538 0.21174 0.0
C68 C 0.23751 0.73307 0.18106 0.0
C69 C 0.25899 0.74746 0.16233 0.0
C70 C 0.27029 0.77409 0.17363 0.0
C71 C 0.25885 0.78681 0.20371 0.0
H72 H 0.32541 0.67686 0.82809 0.0
H73 H 0.25179 0.68566 0.76311 0.0
H74 H 0.32606 0.74287 0.75176 0.0
H75 H 0.2996 0.76997 0.72199 0.0
H76 H 0.2385 0.76746 0.63967 0.0
H77 H 0.23904 0.69856 0.71287 0.0
C78 C 0.31487 0.68762 0.80667 0.0
C79 C 0.32815 0.7114 0.79134 0.0
C80 C 0.28777 0.67804 0.79598 0.0
C81 C 0.27322 0.693 0.76968 0.0
C82 C 0.28654 0.71666 0.75229 0.0
C83 C 0.31434 0.7255 0.76394 0.0
C84 C 0.27218 0.73146 0.7218 0.0
C85 C 0.28257 0.75829 0.70903 0.0
C86 C 0.27126 0.77074 0.67887 0.0
C87 C 0.24804 0.7573 0.66212 0.0
C88 C 0.23578 0.73193 0.67539 0.0
C89 C 0.24824 0.71882 0.70451 0.0
H90 H 0.27798 0.27747 0.89038 0.0
H91 H 0.27131 0.20441 0.82386 0.0
H92 H 0.19989 0.26457 0.83381 0.0
H93 H 0.18474 0.24823 0.78537 0.0
H94 H 0.17445 0.1707 0.72695 0.0
H95 H 0.2423 0.17524 0.80078 0.0
C96 C 0.26543 0.26469 0.87225 0.0
C97 C 0.23797 0.27411 0.86259 0.0
C98 C 0.27692 0.23907 0.85907 0.0
C99 C 0.26086 0.22297 0.83504 0.0
C100 C 0.23271 0.23154 0.82479 0.0
C101 C 0.22133 0.25712 0.83988 0.0
C102 C 0.2159 0.21437 0.79796 0.0
C103 C 0.19168 0.22635 0.78057 0.0
C104 C 0.17604 0.2101 0.75613 0.0
C105 C 0.18543 0.18243 0.74739 0.0
C106 C 0.20979 0.1704 0.76269 0.0
C107 C 0.22441 0.18593 0.78851 0.0
H108 H 0.68016 0.32933 0.82401 0.0
H109 H 0.74463 0.32511 0.74551 0.0
H110 H 0.68526 0.2534 0.76206 0.0
H111 H 0.69246 0.24286 0.7091 0.0
H112 H 0.76372 0.22719 0.64217 0.0
H113 H 0.77096 0.29367 0.71865 0.0
C114 C 0.68995 0.31784 0.8026 0.0
C115 C 0.67931 0.2907 0.79343 0.0
C116 C 0.71384 0.32986 0.78605 0.0
C117 C 0.72687 0.31476 0.7587 0.0
C118 C 0.71652 0.28706 0.74845 0.0
C119 C 0.69312 0.27497 0.76731 0.0
C120 C 0.7297 0.27084 0.71842 0.0
C121 C 0.7143 0.24823 0.70177 0.0
C122 C 0.72659 0.23222 0.67477 0.0
C123 C 0.75418 0.23954 0.66302 0.0
C124 C 0.76995 0.26202 0.67845 0.0
C125 C 0.7578 0.2774 0.70618 0.0
H126 H 0.7318 0.72734 0.89317 0.0
H127 H 0.80221 0.73455 0.82315 0.0
H128 H 0.74113 0.80504 0.8351 0.0
H129 H 0.7546 0.81982 0.78629 0.0
H130 H 0.8279 0.83168 0.7218 0.0
H131 H 0.82892 0.76309 0.79509 0.0
C132 C 0.74365 0.74 0.87434 0.0
C133 C 0.73335 0.76719 0.86472 0.0
C134 C 0.76889 0.72881 0.86004 0.0
C135 C 0.78384 0.74478 0.83497 0.0
C136 C 0.77426 0.77257 0.82454 0.0
C137 C 0.74921 0.78379 0.84097 0.0
C138 C 0.78954 0.78918 0.79604 0.0
C139 C 0.77616 0.81315 0.77972 0.0
C140 C 0.79046 0.82909 0.75409 0.0
C141 C 0.81764 0.82027 0.74295 0.0
C142 C 0.83104 0.79605 0.75704 0.0
C143 C 0.81734 0.78096 0.78395 0.0
C144 C 0.95828 0.28682 0.55556 0.0
C145 C 0.04361 0.29114 0.47952 0.0
O146 O 0.96981 0.30988 0.54401 0.0
Zn147 Zn 0.00146 0.29123 0.51814 0.0
O148 O 0.96911 0.26236 0.54735 0.0
Zn149 Zn 0.00341 0.24478 0.51825 0.0
O150 O 0.02578 0.22542 0.55331 0.0
O151 O 0.02739 0.27289 0.55861 0.0
O152 O 0.03521 0.26574 0.48795 0.0
O153 O 0.03078 0.31314 0.49193 0.0
O154 O 0.97846 0.26985 0.47682 0.0
O155 O 0.98351 0.22272 0.48309 0.0
C156 C 0.03482 0.24774 0.56923 0.0
C157 C 0.97351 0.24401 0.46619 0.0
C158 C 0.68477 0.04616 0.56357 0.0
C159 C 0.69859 0.96099 0.4891 0.0
O160 O 0.71118 0.03956 0.55863 0.0
Zn161 Zn 0.73563 0.00837 0.53111 0.0
O162 O 0.6649 0.03098 0.54983 0.0
Zn163 Zn 0.69028 0.00296 0.52689 0.0
O164 O 0.71029 0.98015 0.56948 0.0
O165 O 0.75686 0.99002 0.56713 0.0
O166 O 0.67452 0.97099 0.49934 0.0
O167 O 0.72205 0.97311 0.49916 0.0
O168 O 0.75645 0.0325 0.49967 0.0
O169 O 0.70987 0.0302 0.48796 0.0
C170 C 0.73588 0.97724 0.5817 0.0
C171 C 0.73519 0.03987 0.48101 0.0
C172 C 0.97679 0.75602 0.57656 0.0
C173 C 0.0354 0.7577 0.47158 0.0
O174 O 0.98743 0.77771 0.56095 0.0
Zn175 Zn 0.00642 0.75721 0.52429 0.0
O176 O 0.98118 0.73052 0.56453 0.0
Zn177 Zn 0.00376 0.71138 0.52113 0.0
O178 O 0.03384 0.68805 0.54306 0.0
O179 O 0.03971 0.73492 0.55136 0.0
O180 O 0.02807 0.73198 0.48043 0.0
O181 O 0.02759 0.77896 0.49014 0.0
O182 O 0.97134 0.74087 0.49412 0.0
O183 O 0.97213 0.69324 0.49505 0.0
C184 C 0.04799 0.70889 0.55635 0.0
C185 C 0.96055 0.71657 0.48468 0.0
C186 C 0.26189 0.02789 0.58473 0.0
C187 C 0.26523 0.97057 0.47883 0.0
O188 O 0.28776 0.02429 0.57361 0.0
Zn189 Zn 0.30883 0.0029 0.53034 0.0
O190 O 0.2408 0.01731 0.56785 0.0
Zn191 Zn 0.26295 1.00019 0.53148 0.0
O192 O 0.28446 0.96712 0.55943 0.0
O193 O 0.3315 0.97268 0.55349 0.0
O194 O 0.24325 0.97846 0.4959 0.0
O195 O 0.29039 0.97853 0.48873 0.0
O196 O 0.32727 0.03528 0.50604 0.0
O197 O 0.27975 0.03768 0.50611 0.0
C198 C 0.31015 0.95872 0.5658 0.0
C199 C 0.30427 0.04862 0.49803 0.0
C200 C 0.45515 0.80759 0.05204 0.0
C201 C 0.5461 0.80065 0.98632 0.0
O202 O 0.47119 0.8288 0.04351 0.0
Zn203 Zn 0.50187 0.80604 1.02111 0.0
O204 O 0.46335 0.78176 0.04567 0.0
Zn205 Zn 0.49905 0.75994 0.02342 0.0
O206 O 0.51661 0.74004 0.06181 0.0
O207 O 0.52361 0.78711 0.06434 0.0
O208 O 0.53478 0.77647 0.9951 0.0
O209 O 0.5345 0.82414 0.99633 0.0
O210 O 0.47871 0.78507 0.97903 0.0
O211 O 0.48019 0.73789 0.98795 0.0
C212 C 0.52753 0.76185 0.07697 0.0
C213 C 0.47227 0.75919 0.96954 0.0
C214 C 0.20447 0.54388 0.06753 0.0
C215 C 0.20823 0.45775 0.99244 0.0
O216 O 0.23 0.53558 0.05995 0.0
Zn217 Zn 0.25068 0.50301 0.03003 0.0
O218 O 0.18279 0.53026 0.05542 0.0
Zn219 Zn 0.20462 0.50067 0.03028 0.0
O220 O 0.22581 0.47742 0.0714 0.0
O221 O 0.27276 0.48305 0.06476 0.0
O222 O 0.18544 0.46913 1.00462 0.0
O223 O 0.23283 0.46858 1.00032 0.0
O224 O 0.27033 0.52523 0.99494 0.0
O225 O 0.22298 0.52652 0.98952 0.0
C226 C 0.25169 0.47249 0.08159 0.0
C227 C 0.24811 0.53409 0.97894 0.0
C228 C 0.53655 0.24249 0.97574 0.0
C229 C 0.47266 0.24017 0.07569 0.0
O230 O 0.52717 0.26377 0.99318 0.0
Zn231 Zn 0.50449 0.24206 0.02563 0.0
O232 O 0.52917 0.21668 0.98411 0.0
Zn233 Zn 0.50284 0.19577 1.02256 0.0
O234 O 0.4722 0.17771 0.99419 0.0
O235 O 0.47139 0.22535 0.99359 0.0
O236 O 0.47805 0.21479 0.06396 0.0
O237 O 0.48352 0.26216 0.06088 0.0
O238 O 0.53608 0.22043 0.05526 0.0
O239 O 0.53223 0.17326 0.0478 0.0
C240 C 0.46104 0.20113 0.98337 0.0
C241 C 0.54478 0.19482 0.06183 0.0
C242 C 0.74941 0.53306 0.07299 0.0
C243 C 0.75079 0.47159 0.96994 0.0
O244 O 0.77509 0.52661 0.06339 0.0
Zn245 Zn 0.79552 0.50174 0.02311 0.0
O246 O 0.72801 0.52359 0.05576 0.0
Zn247 Zn 0.74926 0.50207 1.02156 0.0
O248 O 0.76743 0.46861 0.05172 0.0
O249 O 0.81489 0.47093 0.04951 0.0
O250 O 0.72887 0.48118 0.98595 0.0
O251 O 0.77617 0.47748 0.98127 0.0
O252 O 0.8169 0.53199 0.99778 0.0
O253 O 0.76964 0.53472 0.99195 0.0
C254 C 0.79206 0.45875 0.0607 0.0
C255 C 0.79489 0.54408 0.98453 0.0
H256 H 0.21175 0.31812 0.38518 0.0
H257 H 0.05509 0.25437 0.42749 0.0
H258 H 0.18212 0.23235 0.35968 0.0
H259 H 0.08699 0.33253 0.47504 0.0
H260 H 0.0982 0.25217 0.39211 0.0
H261 H 0.16352 0.32925 0.40841 0.0
C262 C 0.19487 0.30191 0.38382 0.0
C263 C 0.20076 0.27427 0.37064 0.0
C264 C 0.09584 0.27 0.41002 0.0
C265 C 0.14599 0.28669 0.39704 0.0
C266 C 0.07116 0.2713 0.43024 0.0
C267 C 0.06768 0.29343 0.45463 0.0
C268 C 0.11765 0.29079 0.41431 0.0
C269 C 0.08895 0.31505 0.45662 0.0
C270 C 0.16751 0.30818 0.39724 0.0
C271 C 0.17841 0.25386 0.36974 0.0
N272 N 0.11336 0.31296 0.43705 0.0
N273 N 0.15212 0.26045 0.38287 0.0
H274 H 0.78264 0.19257 0.37094 0.0
H275 H 0.70218 0.0473 0.42283 0.0
H276 H 0.75097 0.1357 0.29112 0.0
H277 H 0.77703 0.08093 0.47582 0.0
H278 H 0.70875 0.08447 0.37796 0.0
H279 H 0.76729 0.15764 0.41436 0.0
C280 C 0.77191 0.1729 0.36264 0.0
C281 C 0.76853 0.16668 0.32743 0.0
C282 C 0.72364 0.08354 0.39947 0.0
C283 C 0.75094 0.12671 0.37697 0.0
C284 C 0.71996 0.06246 0.42499 0.0
C285 C 0.73922 0.06101 0.45293 0.0
C286 C 0.74617 0.10367 0.40267 0.0
C287 C 0.76186 0.08111 0.45458 0.0
C288 C 0.76333 0.15297 0.38737 0.0
C289 C 0.75406 0.14115 0.31804 0.0
N290 N 0.76453 0.10176 0.42999 0.0
N291 N 0.74601 0.12178 0.34276 0.0
H292 H 0.82662 0.77604 0.3495 0.0
H293 H 0.92171 0.67241 0.46993 0.0
H294 H 0.79524 0.69336 0.38441 0.0
H295 H 0.94184 0.76116 0.44536 0.0
H296 H 0.87876 0.67559 0.43251 0.0
H297 H 0.87293 0.76635 0.37683 0.0
C298 C 0.82973 0.75559 0.36253 0.0
C299 C 0.80709 0.73556 0.36492 0.0
C300 C 0.89276 0.69423 0.43525 0.0
C301 C 0.85999 0.72442 0.39712 0.0
C302 C 0.91725 0.69242 0.45654 0.0
C303 C 0.93526 0.71664 0.46112 0.0
C304 C 0.88657 0.72031 0.41818 0.0
C305 C 0.92847 0.74202 0.44308 0.0
C306 C 0.85612 0.75008 0.37834 0.0
C307 C 0.81226 0.70931 0.38197 0.0
N308 N 0.90479 0.74315 0.42259 0.0
N309 N 0.8381 0.70461 0.39787 0.0
H310 H 0.23758 0.81163 0.3737 0.0
H311 H 0.30005 0.96492 0.42203 0.0
H312 H 0.25454 0.87061 0.29012 0.0
H313 H 0.22457 0.92857 0.47068 0.0
H314 H 0.29718 0.92693 0.37738 0.0
H315 H 0.2493 0.84996 0.41493 0.0
C316 C 0.24471 0.83244 0.36406 0.0
C317 C 0.24482 0.83814 0.32852 0.0
C318 C 0.28126 0.92754 0.39779 0.0
C319 C 0.2581 0.88193 0.37549 0.0
C320 C 0.2828 0.94909 0.42315 0.0
C321 C 0.26237 0.94992 0.44991 0.0
C322 C 0.25979 0.90623 0.40014 0.0
C323 C 0.24055 0.92889 0.45033 0.0
C324 C 0.25108 0.85429 0.38755 0.0
C325 C 0.25426 0.86543 0.31734 0.0
N326 N 0.24009 0.90766 0.42611 0.0
N327 N 0.26027 0.8866 0.34086 0.0
H328 H 0.18464 0.72216 0.70797 0.0
H329 H 0.09549 0.67665 0.53957 0.0
H330 H 0.22491 0.71702 0.60801 0.0
H331 H 0.06071 0.73161 0.61901 0.0
H332 H 0.14217 0.67658 0.57027 0.0
H333 H 0.13797 0.71055 0.68114 0.0
C334 C 0.18373 0.71793 0.6805 0.0
C335 C 0.20858 0.7206 0.66012 0.0
C336 C 0.12409 0.68818 0.58119 0.0
C337 C 0.15549 0.70714 0.62942 0.0
C338 C 0.0975 0.68802 0.56391 0.0
C339 C 0.07434 0.7041 0.57695 0.0
C340 C 0.12713 0.70391 0.61204 0.0
C341 C 0.0781 0.71894 0.60821 0.0
C342 C 0.15714 0.7115 0.66522 0.0
C343 C 0.20619 0.71525 0.62454 0.0
N344 N 0.10396 0.71844 0.62475 0.0
N345 N 0.18008 0.70878 0.61027 0.0
H346 H 0.18024 0.12012 0.75078 0.0
H347 H 0.30075 0.06009 0.62209 0.0
H348 H 0.26445 0.15889 0.74009 0.0
H349 H 0.21132 0.03382 0.62052 0.0
H350 H 0.29101 0.08973 0.67311 0.0
H351 H 0.19509 0.08095 0.71242 0.0
C352 C 0.20213 0.11995 0.741 0.0
C353 C 0.22105 0.14293 0.74827 0.0
C354 C 0.2736 0.07728 0.66175 0.0
C355 C 0.23804 0.09849 0.7038 0.0
C356 C 0.27911 0.06036 0.63259 0.0
C357 C 0.25673 0.04467 0.61672 0.0
C358 C 0.24554 0.07839 0.6753 0.0
C359 C 0.22917 0.04578 0.63161 0.0
C360 C 0.21053 0.09773 0.7189 0.0
C361 C 0.24921 0.14158 0.73515 0.0
N362 N 0.22435 0.06244 0.65992 0.0
N363 N 0.25673 0.11999 0.71305 0.0
H364 H 0.81381 0.2238 0.67112 0.0
H365 H 0.91928 0.33109 0.56863 0.0
H366 H 0.79356 0.31387 0.65736 0.0
H367 H 0.93828 0.24246 0.59442 0.0
H368 H 0.87458 0.3274 0.60294 0.0
H369 H 0.86091 0.23213 0.64527 0.0
C370 C 0.81944 0.24544 0.66278 0.0
C371 C 0.79972 0.26812 0.66614 0.0
C372 C 0.88875 0.30892 0.60121 0.0
C373 C 0.8538 0.27797 0.63596 0.0
C374 C 0.91425 0.31103 0.5817 0.0
C375 C 0.93243 0.28696 0.57824 0.0
C376 C 0.88157 0.28259 0.61733 0.0
C377 C 0.92484 0.26151 0.5958 0.0
C378 C 0.84639 0.25026 0.648 0.0
C379 C 0.80824 0.29582 0.65522 0.0
N380 N 0.90008 0.26001 0.61427 0.0
N381 N 0.83457 0.29995 0.64022 0.0
H382 H 0.73701 0.83341 0.72373 0.0
H383 H 0.78422 0.9751 0.62177 0.0
H384 H 0.8144 0.8822 0.74503 0.0
H385 H 0.69956 0.93705 0.61089 0.0
H386 H 0.79395 0.94249 0.66956 0.0
H387 H 0.72052 0.87261 0.68588 0.0
C388 C 0.75016 0.85268 0.72108 0.0
C389 C 0.77721 0.85452 0.73716 0.0
C390 C 0.77312 0.94135 0.65697 0.0
C391 C 0.7589 0.89899 0.69363 0.0
C392 C 0.7676 0.95993 0.62953 0.0
C393 C 0.74113 0.95865 0.61209 0.0
C394 C 0.75219 0.92096 0.66692 0.0
C395 C 0.72031 0.93871 0.62356 0.0
C396 C 0.74087 0.87493 0.69932 0.0
C397 C 0.79357 0.87981 0.7327 0.0
N398 N 0.7264 0.92039 0.65002 0.0
N399 N 0.78434 0.90084 0.71106 0.0
H400 H 0.84379 0.74208 0.73212 0.0
H401 H 0.96981 0.80555 0.61435 0.0
H402 H 0.87955 0.8277 0.7435 0.0
H403 H 0.94366 0.71596 0.61099 0.0
H404 H 0.93914 0.81264 0.66471 0.0
H405 H 0.88308 0.73005 0.69222 0.0
C406 C 0.8604 0.75804 0.72704 0.0
C407 C 0.85831 0.78599 0.74089 0.0
C408 C 0.94023 0.79134 0.65318 0.0
C409 C 0.90279 0.77273 0.69463 0.0
C410 C 0.95768 0.78731 0.62426 0.0
C411 C 0.95917 0.76017 0.60816 0.0
C412 C 0.92378 0.76817 0.66608 0.0
C413 C 0.9431 0.7373 0.62245 0.0
C414 C 0.88265 0.75129 0.70397 0.0
C415 C 0.88021 0.80598 0.73308 0.0
N416 N 0.92587 0.74188 0.65036 0.0
N417 N 0.90124 0.79911 0.71015 0.0
H418 H 0.27876 0.82206 0.71311 0.0
H419 H 0.33864 0.90887 0.54904 0.0
H420 H 0.29026 0.78226 0.61349 0.0
H421 H 0.28772 0.94843 0.62896 0.0
H422 H 0.33405 0.86209 0.57901 0.0
H423 H 0.29466 0.86843 0.68866 0.0
C424 C 0.28502 0.82303 0.68622 0.0
C425 C 0.28303 0.7984 0.6652 0.0
C426 C 0.32443 0.88119 0.59029 0.0
C427 C 0.30151 0.85113 0.63724 0.0
C428 C 0.32734 0.90784 0.57345 0.0
C429 C 0.31372 0.93243 0.58681 0.0
C430 C 0.30822 0.87938 0.62087 0.0
C431 C 0.29867 0.92992 0.61804 0.0
C432 C 0.29399 0.84945 0.67229 0.0
C433 C 0.29125 0.80085 0.63045 0.0
N434 N 0.29629 0.90389 0.63401 0.0
N435 N 0.30014 0.82674 0.61754 0.0
H436 H 0.12331 0.185 0.7497 0.0
H437 H 0.06884 0.28942 0.59919 0.0
H438 H 0.17168 0.26021 0.7183 0.0
H439 H 0.04354 0.19999 0.60953 0.0
H440 H 0.10017 0.28424 0.64983 0.0
H441 H 0.08641 0.19653 0.70694 0.0
C442 C 0.12576 0.20438 0.73431 0.0
C443 C 0.15066 0.22157 0.73731 0.0
C444 C 0.08765 0.26584 0.64104 0.0
C445 C 0.10872 0.23465 0.6879 0.0
C446 C 0.06976 0.26873 0.61218 0.0
C447 C 0.05365 0.24502 0.59996 0.0
C448 C 0.08906 0.23919 0.65816 0.0
C449 C 0.05572 0.21877 0.61782 0.0
C450 C 0.10485 0.21079 0.70971 0.0
C451 C 0.15276 0.24648 0.71684 0.0
N452 N 0.07302 0.2166 0.64602 0.0
N453 N 0.13219 0.25212 0.69262 0.0
H454 H 0.70472 0.18574 0.70946 0.0
H455 H 0.66357 0.09675 0.53876 0.0
H456 H 0.71521 0.21993 0.60687 0.0
H457 H 0.69521 0.0565 0.63134 0.0
H458 H 0.66708 0.14418 0.56738 0.0
H459 H 0.68626 0.14043 0.68451 0.0
C460 C 0.70254 0.1839 0.68172 0.0
C461 C 0.71161 0.2065 0.66014 0.0
C462 C 0.67249 0.12486 0.58169 0.0
C463 C 0.69039 0.15498 0.63154 0.0
C464 C 0.67013 0.09785 0.56556 0.0
C465 C 0.67868 0.0728 0.58302 0.0
C466 C 0.6832 0.12666 0.61555 0.0
C467 C 0.68801 0.07536 0.61729 0.0
C468 C 0.69218 0.15805 0.66753 0.0
C469 C 0.70862 0.20292 0.62434 0.0
N470 N 0.6901 0.10183 0.63246 0.0
N471 N 0.69832 0.17762 0.61114 0.0
H472 H 0.84909 0.26237 0.30307 0.0
H473 H 0.96326 0.19311 0.43158 0.0
H474 H 0.87465 0.173 0.29977 0.0
H475 H 0.94576 0.2846 0.4271 0.0
H476 H 0.93469 0.18629 0.37915 0.0
H477 H 0.8894 0.27256 0.34224 0.0
C478 C 0.86394 0.24516 0.30946 0.0
C479 C 0.85853 0.2168 0.29836 0.0
C480 C 0.93728 0.20791 0.38947 0.0
C481 C 0.90388 0.22793 0.34418 0.0
C482 C 0.95346 0.21178 0.41957 0.0
C483 C 0.95668 0.23941 0.43406 0.0
C484 C 0.92397 0.2318 0.3738 0.0
C485 C 0.9437 0.26284 0.41707 0.0
C486 C 0.88669 0.25085 0.33226 0.0
C487 C 0.8781 0.19515 0.30791 0.0
N488 N 0.92773 0.25847 0.38808 0.0
N489 N 0.89954 0.20103 0.3308 0.0
H490 H 0.76691 0.83009 0.35525 0.0
H491 H 0.65749 0.91878 0.47536 0.0
H492 H 0.68765 0.79243 0.39236 0.0
H493 H 0.74417 0.94523 0.44961 0.0
H494 H 0.66391 0.87527 0.43931 0.0
H495 H 0.75431 0.87553 0.38294 0.0
C496 C 0.74668 0.83151 0.36913 0.0
C497 C 0.72849 0.80736 0.37192 0.0
C498 C 0.68137 0.89077 0.44148 0.0
C499 C 0.71386 0.85954 0.40417 0.0
C500 C 0.6777 0.91561 0.46192 0.0
C501 C 0.70042 0.93558 0.46576 0.0
C502 C 0.70779 0.88619 0.42452 0.0
C503 C 0.72615 0.93036 0.44781 0.0
C504 C 0.73948 0.85748 0.38501 0.0
C505 C 0.7023 0.81056 0.38971 0.0
N506 N 0.72909 0.90629 0.42814 0.0
N507 N 0.69587 0.83613 0.40556 0.0
H508 H 0.16296 0.73915 0.31148 0.0
H509 H 0.04888 0.80896 0.4399 0.0
H510 H 0.13954 0.82917 0.31057 0.0
H511 H 0.06163 0.71688 0.4311 0.0
H512 H 0.07915 0.81604 0.38907 0.0
H513 H 0.12214 0.72926 0.35006 0.0
C514 C 0.14858 0.75662 0.31842 0.0
C515 C 0.15464 0.78502 0.30806 0.0
C516 C 0.07516 0.79424 0.39805 0.0
C517 C 0.10865 0.77417 0.35296 0.0
C518 C 0.05798 0.79021 0.42724 0.0
C519 C 0.0529 0.76231 0.44004 0.0
C520 C 0.08769 0.77024 0.38164 0.0
C521 C 0.06508 0.73881 0.42229 0.0
C522 C 0.12551 0.75108 0.34078 0.0
C523 C 0.13564 0.80699 0.3182 0.0
N524 N 0.08212 0.74332 0.39423 0.0
N525 N 0.11383 0.80121 0.34053 0.0
H526 H 0.26649 0.22435 0.44305 0.0
H527 H 0.34232 0.06962 0.44898 0.0
H528 H 0.30473 0.18817 0.35127 0.0
H529 H 0.26739 0.09288 0.50854 0.0
H530 H 0.33956 0.11684 0.41928 0.0
H531 H 0.27869 0.18044 0.4744 0.0
C532 C 0.27767 0.20725 0.42949 0.0
C533 C 0.28392 0.20976 0.39416 0.0
C534 C 0.32393 0.11152 0.43904 0.0
C535 C 0.29842 0.15937 0.43033 0.0
C536 C 0.32556 0.08475 0.45605 0.0
C537 C 0.30494 0.07732 0.48109 0.0
C538 C 0.30206 0.13112 0.44799 0.0
C539 C 0.28357 0.0976 0.48919 0.0
C540 C 0.28467 0.1822 0.44747 0.0
C541 C 0.29932 0.18714 0.3784 0.0
N542 N 0.28279 0.12352 0.47288 0.0
N543 N 0.30582 0.16271 0.39651 0.0
H544 H 0.71838 0.81878 0.89641 0.0
H545 H 0.56086 0.75822 0.94198 0.0
H546 H 0.68326 0.73696 0.86317 0.0
H547 H 0.59034 0.84111 0.97932 0.0
H548 H 0.60475 0.75336 0.90882 0.0
H549 H 0.67137 0.83058 0.92279 0.0
C550 C 0.70071 0.80351 0.89433 0.0
C551 C 0.70478 0.77669 0.87799 0.0
C552 C 0.60182 0.77276 0.92406 0.0
C553 C 0.65127 0.78993 0.90789 0.0
C554 C 0.57663 0.77555 0.94314 0.0
C555 C 0.57199 0.79998 0.96383 0.0
C556 C 0.6231 0.79439 0.92571 0.0
C557 C 0.5931 0.82188 0.96375 0.0
C558 C 0.67398 0.81018 0.90946 0.0
C559 C 0.68124 0.75766 0.876 0.0
N560 N 0.61798 0.81844 0.94527 0.0
N561 N 0.65572 0.76458 0.89085 0.0
H562 H 0.31173 0.62492 0.80043 0.0
H563 H 0.20677 0.56837 0.94953 0.0
H564 H 0.23747 0.6734 0.83327 0.0
H565 H 0.29575 0.543 0.93852 0.0
H566 H 0.21221 0.60038 0.8995 0.0
H567 H 0.2995 0.58713 0.84192 0.0
C568 C 0.29235 0.62717 0.81581 0.0
C569 C 0.27562 0.65231 0.8136 0.0
C570 C 0.23044 0.58767 0.90799 0.0
C571 C 0.26182 0.60944 0.86166 0.0
C572 C 0.2274 0.56939 0.93649 0.0
C573 C 0.25092 0.55309 0.94836 0.0
C574 C 0.25705 0.58927 0.89088 0.0
C575 C 0.27712 0.55531 0.93048 0.0
C576 C 0.28557 0.60578 0.83972 0.0
C577 C 0.2508 0.65426 0.83413 0.0
N578 N 0.27944 0.57299 0.90264 0.0
N579 N 0.24479 0.63322 0.85769 0.0
H580 H 0.32628 0.27104 0.85858 0.0
H581 H 0.41851 0.15973 0.97169 0.0
H582 H 0.29392 0.18658 0.88538 0.0
H583 H 0.44711 0.2444 0.93977 0.0
H584 H 0.37486 0.16582 0.93596 0.0
H585 H 0.37279 0.25852 0.88353 0.0
C586 C 0.32912 0.24971 0.86954 0.0
C587 C 0.30619 0.22992 0.87021 0.0
C588 C 0.39091 0.18286 0.93657 0.0
C589 C 0.3595 0.21535 0.89944 0.0
C590 C 0.41584 0.17934 0.95683 0.0
C591 C 0.43629 0.20174 0.95909 0.0
C592 C 0.38669 0.20886 0.91841 0.0
C593 C 0.43174 0.22672 0.93933 0.0
C594 C 0.35571 0.2425 0.88383 0.0
C595 C 0.31113 0.20243 0.88438 0.0
N596 N 0.4075 0.22962 0.92013 0.0
N597 N 0.33717 0.19605 0.89888 0.0
H598 H 0.76723 0.34006 0.8135 0.0
H599 H 0.70206 0.46408 0.93085 0.0
H600 H 0.68561 0.38092 0.79347 0.0
H601 H 0.79174 0.43984 0.93589 0.0
H602 H 0.69677 0.43505 0.87855 0.0
H603 H 0.77897 0.3788 0.85459 0.0
C604 C 0.75232 0.35783 0.81673 0.0
C605 C 0.7254 0.35732 0.80024 0.0
C606 C 0.71769 0.43624 0.8909 0.0
C607 C 0.73805 0.40093 0.84803 0.0
C608 C 0.72065 0.45265 0.92097 0.0
C609 C 0.74731 0.45422 0.93799 0.0
C610 C 0.74145 0.42089 0.8779 0.0
C611 C 0.77074 0.43915 0.92371 0.0
C612 C 0.75881 0.37972 0.84053 0.0
C613 C 0.70657 0.38055 0.8058 0.0
N614 N 0.7672 0.42288 0.89472 0.0
N615 N 0.71299 0.40107 0.8297 0.0
H616 H 0.71853 0.18026 0.14513 0.0
H617 H 0.55298 0.22487 0.12043 0.0
H618 H 0.67826 0.2561 0.18769 0.0
H619 H 0.59253 0.15914 0.05759 0.0
H620 H 0.59697 0.22863 0.1543 0.0
H621 H 0.67147 0.16538 0.12074 0.0
C622 C 0.6997 0.1935 0.14969 0.0
C623 C 0.70218 0.21954 0.16813 0.0
C624 C 0.59612 0.21309 0.1334 0.0
C625 C 0.64867 0.20271 0.14082 0.0
C626 C 0.5709 0.21083 0.11416 0.0
C627 C 0.56922 0.19182 0.08606 0.0
C628 C 0.62028 0.19658 0.12427 0.0
C629 C 0.59299 0.174 0.07917 0.0
C630 C 0.67297 0.18509 0.13574 0.0
C631 C 0.67728 0.23602 0.17333 0.0
N632 N 0.61784 0.17713 0.09784 0.0
N633 N 0.65171 0.22738 0.15972 0.0
H634 H 0.7627 0.66664 0.22829 0.0
H635 H 0.69916 0.54232 0.10845 0.0
H636 H 0.67945 0.62709 0.24419 0.0
H637 H 0.78957 0.56486 0.10881 0.0
H638 H 0.69222 0.57273 0.15931 0.0
H639 H 0.77463 0.62802 0.18728 0.0
C640 C 0.74731 0.64933 0.22399 0.0
C641 C 0.71995 0.6502 0.23938 0.0
C642 C 0.71365 0.57089 0.14844 0.0
C643 C 0.733 0.60658 0.19177 0.0
C644 C 0.71757 0.55366 0.11922 0.0
C645 C 0.74495 0.55116 0.10415 0.0
C646 C 0.73717 0.58612 0.16256 0.0
C647 C 0.76806 0.5662 0.11949 0.0
C648 C 0.75397 0.62747 0.20028 0.0
C649 C 0.70066 0.62741 0.23254 0.0
N650 N 0.7636 0.58325 0.14763 0.0
N651 N 0.70734 0.60686 0.20883 0.0
H652 H 0.27744 0.77797 0.10355 0.0
H653 H 0.4398 0.83841 0.11019 0.0
H654 H 0.3191 0.80095 0.19936 0.0
H655 H 0.40526 0.78443 0.02936 0.0
H656 H 0.39248 0.83657 0.1395 0.0
H657 H 0.32081 0.79256 0.07242 0.0
C658 C 0.29564 0.78628 0.11809 0.0
C659 C 0.29474 0.78761 0.15428 0.0
C660 C 0.39522 0.82558 0.11505 0.0
C661 C 0.3446 0.80473 0.11852 0.0
C662 C 0.42206 0.82684 0.09824 0.0
C663 C 0.42626 0.81159 0.06735 0.0
C664 C 0.37252 0.80941 0.10038 0.0
C665 C 0.40283 0.79647 0.05316 0.0
C666 C 0.32039 0.79469 0.10024 0.0
C667 C 0.31879 0.79943 0.17151 0.0
N668 N 0.37706 0.79575 0.06973 0.0
N669 N 0.34288 0.80724 0.15352 0.0
H670 H 0.33067 0.37592 0.24667 0.0
H671 H 0.21214 0.44106 0.11863 0.0
H672 H 0.24476 0.34091 0.23698 0.0
H673 H 0.30267 0.46301 0.1157 0.0
H674 H 0.2212 0.41026 0.16872 0.0
H675 H 0.31773 0.41472 0.20695 0.0
C676 C 0.30885 0.37681 0.23674 0.0
C677 C 0.28883 0.35501 0.24484 0.0
C678 C 0.23903 0.42196 0.15723 0.0
C679 C 0.27397 0.39912 0.19884 0.0
C680 C 0.23391 0.43955 0.12859 0.0
C681 C 0.25674 0.4545 0.11267 0.0
C682 C 0.26716 0.41942 0.17028 0.0
C683 C 0.28445 0.45173 0.12687 0.0
C684 C 0.30152 0.39884 0.21387 0.0
C685 C 0.2608 0.35731 0.23146 0.0
N686 N 0.28887 0.4345 0.15475 0.0
N687 N 0.2543 0.37873 0.2087 0.0
H688 H 0.38534 0.30933 0.25305 0.0
H689 H 0.43601 0.20042 0.10482 0.0
H690 H 0.33445 0.2355 0.22238 0.0
H691 H 0.46742 0.28779 0.117 0.0
H692 H 0.40488 0.20732 0.15531 0.0
H693 H 0.42278 0.29491 0.2123 0.0
C694 C 0.38246 0.28962 0.23828 0.0
C695 C 0.35678 0.27365 0.24081 0.0
C696 C 0.41873 0.22486 0.14698 0.0
C697 C 0.39919 0.25736 0.19359 0.0
C698 C 0.43649 0.22099 0.1182 0.0
C699 C 0.45417 0.24368 0.1065 0.0
C700 C 0.41902 0.25145 0.16445 0.0
C701 C 0.45394 0.26982 0.12486 0.0
C702 C 0.40367 0.28155 0.21482 0.0
C703 C 0.35402 0.24829 0.22118 0.0
N704 N 0.43666 0.27296 0.15288 0.0
N705 N 0.37485 0.24109 0.19795 0.0
H706 H 0.72996 0.31895 0.18434 0.0
H707 H 0.83534 0.4182 0.07081 0.0
H708 H 0.8154 0.29131 0.15618 0.0
H709 H 0.74978 0.44161 0.10413 0.0
H710 H 0.8317 0.3738 0.10584 0.0
H711 H 0.73994 0.36622 0.15954 0.0
C712 C 0.75098 0.32302 0.17311 0.0
C713 C 0.77179 0.30119 0.17201 0.0
C714 C 0.81391 0.38888 0.10565 0.0
C715 C 0.78344 0.35537 0.14288 0.0
C716 C 0.81602 0.41422 0.08577 0.0
C717 C 0.79268 0.43345 0.08415 0.0
C718 C 0.78837 0.38303 0.12408 0.0
C719 C 0.76815 0.42724 0.10405 0.0
C720 C 0.75673 0.35003 0.15888 0.0
C721 C 0.7988 0.30766 0.15746 0.0
N722 N 0.76663 0.40265 0.12289 0.0
N723 N 0.80377 0.3341 0.14301 0.0
H724 H 0.62197 0.69004 0.24788 0.0
H725 H 0.56281 0.80192 0.10786 0.0
H726 H 0.66721 0.76839 0.22102 0.0
H727 H 0.53363 0.71358 0.11722 0.0
H728 H 0.59495 0.79456 0.1572 0.0
H729 H 0.58271 0.70374 0.20927 0.0
C730 C 0.6233 0.71047 0.23434 0.0
C731 C 0.64797 0.72799 0.23733 0.0
C732 C 0.58133 0.7769 0.1486 0.0
C733 C 0.6033 0.74362 0.19268 0.0
C734 C 0.56294 0.78105 0.12047 0.0
C735 C 0.54564 0.75823 0.10818 0.0
C736 C 0.58223 0.74982 0.16481 0.0
C737 C 0.54674 0.7317 0.12558 0.0
C738 C 0.60099 0.71819 0.21215 0.0
C739 C 0.64854 0.75432 0.21945 0.0
N740 N 0.56476 0.72822 0.15292 0.0
N741 N 0.62668 0.76119 0.19747 0.0
H742 H 0.23727 0.68113 0.21477 0.0
H743 H 0.16958 0.59092 0.05741 0.0
H744 H 0.21303 0.72085 0.11862 0.0
H745 H 0.23357 0.55618 0.12635 0.0
H746 H 0.17263 0.63743 0.08843 0.0
H747 H 0.22338 0.63375 0.19094 0.0
C748 C 0.22857 0.67988 0.18887 0.0
C749 C 0.22644 0.70479 0.1685 0.0
C750 C 0.18555 0.61939 0.09708 0.0
C751 C 0.21023 0.651 0.14134 0.0
C752 C 0.18362 0.59287 0.07965 0.0
C753 C 0.20134 0.56981 0.08945 0.0
C754 C 0.20487 0.6225 0.12484 0.0
C755 C 0.21958 0.57352 0.11803 0.0
C756 C 0.22077 0.65292 0.17527 0.0
C757 C 0.21519 0.70205 0.135 0.0
N758 N 0.2209 0.59935 0.13472 0.0
N759 N 0.2075 0.67564 0.12243 0.0
H760 H 0.37673 0.68009 0.80381 0.0
H761 H 0.44331 0.79928 0.93084 0.0
H762 H 0.34169 0.76581 0.81427 0.0
H763 H 0.4625 0.70815 0.9355 0.0
H764 H 0.41315 0.79033 0.88001 0.0
H765 H 0.41626 0.69361 0.84237 0.0
C766 C 0.37781 0.70202 0.81361 0.0
C767 C 0.3558 0.72179 0.80621 0.0
C768 C 0.42417 0.77237 0.89202 0.0
C769 C 0.40064 0.73727 0.85087 0.0
C770 C 0.44139 0.77742 0.92103 0.0
C771 C 0.45524 0.75436 0.93769 0.0
C772 C 0.42099 0.74409 0.87936 0.0
C773 C 0.452 0.72653 0.92375 0.0
C774 C 0.40023 0.70966 0.83582 0.0
C775 C 0.35827 0.74996 0.81936 0.0
N776 N 0.43516 0.72218 0.8955 0.0
N777 N 0.38006 0.75676 0.84155 0.0
H778 H 0.26483 0.32541 0.85338 0.0
H779 H 0.16603 0.41537 0.985 0.0
H780 H 0.18951 0.2879 0.90078 0.0
H781 H 0.24908 0.44226 0.94624 0.0
H782 H 0.16911 0.37149 0.94878 0.0
H783 H 0.25379 0.3715 0.88059 0.0
C784 C 0.24571 0.32707 0.8693 0.0
C785 C 0.22819 0.30283 0.87508 0.0
C786 C 0.18648 0.3872 0.9481 0.0
C787 C 0.21553 0.35563 0.9071 0.0
C788 C 0.18468 0.41224 0.96864 0.0
C789 C 0.20746 0.43238 0.96892 0.0
C790 C 0.21104 0.38261 0.9275 0.0
C791 C 0.23115 0.42722 0.94728 0.0
C792 C 0.23942 0.35338 0.88499 0.0
C793 C 0.20353 0.30617 0.89573 0.0
N794 N 0.2323 0.40297 0.92767 0.0
N795 N 0.19808 0.33205 0.91142 0.0
H796 H 0.62843 0.31784 0.80497 0.0
H797 H 0.57002 0.2028 0.94197 0.0
H798 H 0.67316 0.2383 0.82624 0.0
H799 H 0.54643 0.29295 0.94095 0.0
H800 H 0.60189 0.21142 0.89256 0.0
H801 H 0.59124 0.30415 0.8464 0.0
C802 C 0.63012 0.29722 0.81802 0.0
C803 C 0.65405 0.27932 0.81257 0.0
C804 C 0.58963 0.22923 0.90313 0.0
C805 C 0.6117 0.26363 0.86027 0.0
C806 C 0.57144 0.22437 0.93128 0.0
C807 C 0.55566 0.24726 0.94574 0.0
C808 C 0.5917 0.25707 0.88905 0.0
C809 C 0.55835 0.27474 0.93085 0.0
C810 C 0.60899 0.28951 0.84178 0.0
C811 C 0.65504 0.25269 0.82977 0.0
N812 N 0.57597 0.27885 0.90331 0.0
N813 N 0.63428 0.24575 0.85324 0.0
H814 H 0.82011 0.71292 0.89023 0.0
H815 H 0.75899 0.55471 0.93145 0.0
H816 H 0.73871 0.67867 0.85506 0.0
H817 H 0.83527 0.5885 0.98109 0.0
H818 H 0.75707 0.59733 0.8952 0.0
H819 H 0.83138 0.6655 0.91589 0.0
C820 C 0.80494 0.69522 0.88733 0.0
C821 C 0.7784 0.69959 0.87072 0.0
C822 C 0.77442 0.59554 0.91378 0.0
C823 C 0.79096 0.64571 0.89989 0.0
C824 C 0.77554 0.57112 0.93454 0.0
C825 C 0.79709 0.56825 0.95968 0.0
C826 C 0.79478 0.61775 0.91829 0.0
C827 C 0.81824 0.58997 0.96208 0.0
C828 C 0.81127 0.6683 0.90211 0.0
C829 C 0.75932 0.67618 0.86784 0.0
N830 N 0.81632 0.61412 0.94196 0.0
N831 N 0.76591 0.6504 0.8824 0.0
loop_
_geom_bond_atom_site_label_1
_geom_bond_atom_site_label_2
_geom_bond_distance
_geom_bond_site_symmetry_2
_ccdc_geom_bond_type
H0 C6 0.930 . S
H1 C9 0.931 . S
H2 C11 0.931 . S
H3 C13 0.930 . S
H4 C15 0.930 . S
H5 C17 0.931 . S
C6 H0 0.930 . S
C6 C7 1.380 . S
C6 C8 1.394 . S
C7 C6 1.380 . S
C7 C11 1.382 . S
C8 C6 1.394 . S
C8 C9 1.400 . S
C9 H1 0.931 . S
C9 C8 1.400 . S
C9 C10 1.375 . S
C10 C9 1.375 . S
C10 C11 1.415 . S
C10 C12 1.501 . S
C11 H2 0.931 . S
C11 C7 1.382 . S
C11 C10 1.415 . S
C12 C10 1.501 . S
C12 C13 1.384 . S
C12 C17 1.408 . S
C13 H3 0.930 . S
C13 C12 1.384 . S
C13 C14 1.389 . S
C14 C13 1.389 . S
C14 C15 1.405 . S
C15 H4 0.930 . S
C15 C14 1.405 . S
C15 C16 1.364 . S
C16 C15 1.364 . S
C16 C17 1.400 . S
C17 H5 0.931 . S
C17 C12 1.408 . S
C17 C16 1.400 . S
H18 C24 0.930 . S
H19 C27 0.931 . S
H20 C29 0.931 . S
H21 C31 0.930 . S
H22 C33 0.930 . S
H23 C35 0.931 . S
C24 H18 0.930 . S
C24 C25 1.380 . S
C24 C26 1.394 . S
C25 C24 1.380 . S
C25 C29 1.382 . S
C26 C24 1.394 . S
C26 C27 1.400 . S
C27 H19 0.931 . S
C27 C26 1.400 . S
C27 C28 1.375 . S
C28 C27 1.375 . S
C28 C29 1.415 . S
C28 C30 1.501 . S
C29 H20 0.931 . S
C29 C25 1.382 . S
C29 C28 1.415 . S
C30 C28 1.501 . S
C30 C31 1.384 . S
C30 C35 1.408 . S
C31 H21 0.930 . S
C31 C30 1.384 . S
C31 C32 1.389 . S
C32 C31 1.389 . S
C32 C33 1.405 . S
C33 H22 0.930 . S
C33 C32 1.405 . S
C33 C34 1.364 . S
C34 C33 1.364 . S
C34 C35 1.400 . S
C35 H23 0.931 . S
C35 C30 1.408 . S
C35 C34 1.400 . S
H36 C42 0.930 . S
H37 C45 0.931 . S
H38 C47 0.931 . S
H39 C49 0.930 . S
H40 C51 0.930 . S
H41 C53 0.931 . S
C42 H36 0.930 . S
C42 C43 1.380 . S
C42 C44 1.394 . S
C43 C42 1.380 . S
C43 C47 1.382 . S
C44 C42 1.394 . S
C44 C45 1.400 . S
C45 H37 0.931 . S
C45 C44 1.400 . S
C45 C46 1.375 . S
C46 C45 1.375 . S
C46 C47 1.415 . S
C46 C48 1.501 . S
C47 H38 0.931 . S
C47 C43 1.382 . S
C47 C46 1.415 . S
C48 C46 1.501 . S
C48 C49 1.384 . S
C48 C53 1.408 . S
C49 H39 0.930 . S
C49 C48 1.384 . S
C49 C50 1.389 . S
C50 C49 1.389 . S
C50 C51 1.405 . S
C51 H40 0.930 . S
C51 C50 1.405 . S
C51 C52 1.364 . S
C52 C51 1.364 . S
C52 C53 1.400 . S
C53 H41 0.931 . S
C53 C48 1.408 . S
C53 C52 1.400 . S
H54 C60 0.930 . S
H55 C63 0.931 . S
H56 C65 0.931 . S
H57 C67 0.930 . S
H58 C69 0.930 . S
H59 C71 0.931 . S
C60 H54 0.930 . S
C60 C61 1.380 . S
C60 C62 1.394 . S
C61 C60 1.380 . S
C61 C65 1.382 . S
C62 C60 1.394 . S
C62 C63 1.400 . S
C63 H55 0.931 . S
C63 C62 1.400 . S
C63 C64 1.375 . S
C64 C63 1.375 . S
C64 C65 1.415 . S
C64 C66 1.501 . S
C65 H56 0.931 . S
C65 C61 1.382 . S
C65 C64 1.415 . S
C66 C64 1.501 . S
C66 C67 1.384 . S
C66 C71 1.408 . S
C67 H57 0.930 . S
C67 C66 1.384 . S
C67 C68 1.389 . S
C68 C67 1.389 . S
C68 C69 1.405 . S
C69 H58 0.930 . S
C69 C68 1.405 . S
C69 C70 1.364 . S
C70 C69 1.364 . S
C70 C71 1.400 . S
C71 H59 0.931 . S
C71 C66 1.408 . S
C71 C70 1.400 . S
H72 C78 0.930 . S
H73 C81 0.931 . S
H74 C83 0.931 . S
H75 C85 0.930 . S
H76 C87 0.930 . S
H77 C89 0.931 . S
C78 H72 0.930 . S
C78 C79 1.380 . S
C78 C80 1.394 . S
C79 C78 1.380 . S
C79 C83 1.382 . S
C80 C78 1.394 . S
C80 C81 1.400 . S
C81 H73 0.931 . S
C81 C80 1.400 . S
C81 C82 1.375 . S
C82 C81 1.375 . S
C82 C83 1.415 . S
C82 C84 1.501 . S
C83 H74 0.931 . S
C83 C79 1.382 . S
C83 C82 1.415 . S
C84 C82 1.501 . S
C84 C85 1.384 . S
C84 C89 1.408 . S
C85 H75 0.930 . S
C85 C84 1.384 . S
C85 C86 1.389 . S
C86 C85 1.389 . S
C86 C87 1.405 . S
C87 H76 0.930 . S
C87 C86 1.405 . S
C87 C88 1.364 . S
C88 C87 1.364 . S
C88 C89 1.400 . S
C89 H77 0.931 . S
C89 C84 1.408 . S
C89 C88 1.400 . S
H90 C96 0.930 . S
H91 C99 0.931 . S
H92 C101 0.931 . S
H93 C103 0.930 . S
H94 C105 0.930 . S
H95 C107 0.931 . S
C96 H90 0.930 . S
C96 C97 1.380 . S
C96 C98 1.394 . S
C97 C96 1.380 . S
C97 C101 1.382 . S
C98 C96 1.394 . S
C98 C99 1.400 . S
C99 H91 0.931 . S
C99 C98 1.400 . S
C99 C100 1.375 . S
C100 C99 1.375 . S
C100 C101 1.415 . S
C100 C102 1.501 . S
C101 H92 0.931 . S
C101 C97 1.382 . S
C101 C100 1.415 . S
C102 C100 1.501 . S
C102 C103 1.384 . S
C102 C107 1.408 . S
C103 H93 0.930 . S
C103 C102 1.384 . S
C103 C104 1.389 . S
C104 C103 1.389 . S
C104 C105 1.405 . S
C105 H94 0.930 . S
C105 C104 1.405 . S
C105 C106 1.364 . S
C106 C105 1.364 . S
C106 C107 1.400 . S
C107 H95 0.931 . S
C107 C102 1.408 . S
C107 C106 1.400 . S
H108 C114 0.930 . S
H109 C117 0.931 . S
H110 C119 0.931 . S
H111 C121 0.930 . S
H112 C123 0.930 . S
H113 C125 0.931 . S
C114 H108 0.930 . S
C114 C115 1.380 . S
C114 C116 1.394 . S
C115 C114 1.380 . S
C115 C119 1.382 . S
C116 C114 1.394 . S
C116 C117 1.400 . S
C117 H109 0.931 . S
C117 C116 1.400 . S
C117 C118 1.375 . S
C118 C117 1.375 . S
C118 C119 1.415 . S
C118 C120 1.501 . S
C119 H110 0.931 . S
C119 C115 1.382 . S
C119 C118 1.415 . S
C120 C118 1.501 . S
C120 C121 1.384 . S
C120 C125 1.408 . S
C121 H111 0.930 . S
C121 C120 1.384 . S
C121 C122 1.389 . S
C122 C121 1.389 . S
C122 C123 1.405 . S
C123 H112 0.930 . S
C123 C122 1.405 . S
C123 C124 1.364 . S
C124 C123 1.364 . S
C124 C125 1.400 . S
C125 H113 0.931 . S
C125 C120 1.408 . S
C125 C124 1.400 . S
H126 C132 0.930 . S
H127 C135 0.931 . S
H128 C137 0.931 . S
H129 C139 0.930 . S
H130 C141 0.930 . S
H131 C143 0.931 . S
C132 H126 0.930 . S
C132 C133 1.380 . S
C132 C134 1.394 . S
C133 C132 1.380 . S
C133 C137 1.382 . S
C134 C132 1.394 . S
C134 C135 1.400 . S
C135 H127 0.931 . S
C135 C134 1.400 . S
C135 C136 1.375 . S
C136 C135 1.375 . S
C136 C137 1.415 . S
C136 C138 1.501 . S
C137 H128 0.931 . S
C137 C133 1.382 . S
C137 C136 1.415 . S
C138 C136 1.501 . S
C138 C139 1.384 . S
C138 C143 1.408 . S
C139 H129 0.930 . S
C139 C138 1.384 . S
C139 C140 1.389 . S
C140 C139 1.389 . S
C140 C141 1.405 . S
C141 H130 0.930 . S
C141 C140 1.405 . S
C141 C142 1.364 . S
C142 C141 1.364 . S
C142 C143 1.400 . S
C143 H131 0.931 . S
C143 C138 1.408 . S
C143 C142 1.400 . S
C144 O146 1.247 . S
C144 O148 1.258 . S
C145 O152 1.247 . S
C145 O153 1.258 . S
O146 C144 1.247 . S
O146 Zn147 2.028 1_655 S
Zn147 O146 2.028 1_455 S
Zn147 O151 2.035 . S
Zn147 O153 2.035 . S
Zn147 O154 2.028 1_455 S
O148 C144 1.258 . S
O148 Zn149 2.035 1_655 S
Zn149 O148 2.035 1_455 S
Zn149 O150 2.028 . S
Zn149 O152 2.028 . S
Zn149 O155 2.035 1_455 S
O150 Zn149 2.028 . S
O150 C156 1.247 . S
O151 Zn147 2.035 . S
O151 C156 1.258 . S
O152 C145 1.247 . S
O152 Zn149 2.028 . S
O153 C145 1.258 . S
O153 Zn147 2.035 . S
O154 Zn147 2.028 1_655 S
O154 C157 1.247 . S
O155 Zn149 2.035 1_655 S
O155 C157 1.258 . S
C156 O150 1.247 . S
C156 O151 1.258 . S
C157 O154 1.247 . S
C157 O155 1.258 . S
C158 O160 1.247 . S
C158 O162 1.258 . S
C159 O166 1.247 . S
C159 O167 1.258 . S
O160 C158 1.247 . S
O160 Zn161 2.028 . S
Zn161 O160 2.028 . S
Zn161 O165 2.035 1_545 S
Zn161 O167 2.035 1_545 S
Zn161 O168 2.028 . S
O162 C158 1.258 . S
O162 Zn163 2.056 . S
Zn163 O162 2.056 . S
Zn163 O164 2.007 1_545 S
Zn163 O166 2.007 1_545 S
Zn163 O169 2.056 . S
O164 Zn163 2.007 1_565 S
O164 C170 1.247 . S
O165 Zn161 2.035 1_565 S
O165 C170 1.258 . S
O166 C159 1.247 . S
O166 Zn163 2.007 1_565 S
O167 C159 1.258 . S
O167 Zn161 2.035 1_565 S
O168 Zn161 2.028 . S
O168 C171 1.247 . S
O169 Zn163 2.056 . S
O169 C171 1.258 . S
C170 O164 1.247 . S
C170 O165 1.258 . S
C171 O168 1.247 . S
C171 O169 1.258 . S
C172 O174 1.247 . S
C172 O176 1.258 . S
C173 O180 1.247 . S
C173 O181 1.258 . S
O174 C172 1.247 . S
O174 Zn175 2.028 1_655 S
Zn175 O174 2.028 1_455 S
Zn175 O179 2.035 . S
Zn175 O181 2.035 . S
Zn175 O182 2.028 1_455 S
O176 C172 1.258 . S
O176 Zn177 2.035 1_655 S
Zn177 O176 2.035 1_455 S
Zn177 O178 2.028 . S
Zn177 O180 2.028 . S
Zn177 O183 2.035 1_455 S
O178 Zn177 2.028 . S
O178 C184 1.247 . S
O179 Zn175 2.035 . S
O179 C184 1.258 . S
O180 C173 1.247 . S
O180 Zn177 2.028 . S
O181 C173 1.258 . S
O181 Zn175 2.035 . S
O182 Zn175 2.028 1_655 S
O182 C185 1.247 . S
O183 Zn177 2.035 1_655 S
O183 C185 1.258 . S
C184 O178 1.247 . S
C184 O179 1.258 . S
C185 O182 1.247 . S
C185 O183 1.258 . S
C186 O188 1.247 . S
C186 O190 1.258 . S
C187 O194 1.247 . S
C187 O195 1.258 . S
O188 C186 1.247 . S
O188 Zn189 2.051 . S
Zn189 O188 2.051 . S
Zn189 O193 2.012 1_545 S
Zn189 O195 2.012 1_545 S
Zn189 O196 2.051 . S
O190 C186 1.258 . S
O190 Zn191 2.044 . S
Zn191 O190 2.044 . S
Zn191 O192 2.019 1_545 S
Zn191 O194 2.019 1_545 S
Zn191 O197 2.044 . S
O192 Zn191 2.019 1_565 S
O192 C198 1.247 . S
O193 Zn189 2.012 1_565 S
O193 C198 1.258 . S
O194 C187 1.247 . S
O194 Zn191 2.019 1_565 S
O195 C187 1.258 . S
O195 Zn189 2.012 1_565 S
O196 Zn189 2.051 . S
O196 C199 1.247 . S
O197 Zn191 2.044 . S
O197 C199 1.258 . S
C198 O192 1.247 . S
C198 O193 1.258 . S
C199 O196 1.247 . S
C199 O197 1.258 . S
C200 O202 1.247 . S
C200 O204 1.258 . S
C201 O208 1.247 . S
C201 O209 1.258 . S
O202 C200 1.247 . S
O202 Zn203 2.028 . S
Zn203 O202 2.028 . S
Zn203 O207 2.035 . S
Zn203 O209 2.035 1_554 S
Zn203 O210 2.028 1_554 S
O204 C200 1.258 . S
O204 Zn205 2.035 . S
Zn205 O204 2.035 . S
Zn205 O206 2.028 . S
Zn205 O208 2.028 1_554 S
Zn205 O211 2.035 1_554 S
O206 Zn205 2.028 . S
O206 C212 1.247 . S
O207 Zn203 2.035 . S
O207 C212 1.258 . S
O208 C201 1.247 . S
O208 Zn205 2.028 1_556 S
O209 C201 1.258 . S
O209 Zn203 2.035 1_556 S
O210 Zn203 2.028 1_556 S
O210 C213 1.247 . S
O211 Zn205 2.035 1_556 S
O211 C213 1.258 . S
C212 O206 1.247 . S
C212 O207 1.258 . S
C213 O210 1.247 . S
C213 O211 1.258 . S
C214 O216 1.247 . S
C214 O218 1.258 . S
C215 O222 1.247 . S
C215 O223 1.258 . S
O216 C214 1.247 . S
O216 Zn217 2.046 . S
Zn217 O216 2.046 . S
Zn217 O221 2.053 . S
Zn217 O223 2.017 1_554 S
Zn217 O224 2.010 1_554 S
O218 C214 1.258 . S
O218 Zn219 2.056 . S
Zn219 O218 2.056 . S
Zn219 O220 2.049 . S
Zn219 O222 2.007 1_554 S
Zn219 O225 2.015 1_554 S
O220 Zn219 2.049 . S
O220 C226 1.247 . S
O221 Zn217 2.053 . S
O221 C226 1.258 . S
O222 C215 1.247 . S
O222 Zn219 2.007 1_556 S
O223 C215 1.258 . S
O223 Zn217 2.017 1_556 S
O224 Zn217 2.010 1_556 S
O224 C227 1.247 . S
O225 Zn219 2.015 1_556 S
O225 C227 1.258 . S
C226 O220 1.247 . S
C226 O221 1.258 . S
C227 O224 1.247 . S
C227 O225 1.258 . S
C228 O230 1.247 . S
C228 O232 1.258 . S
C229 O236 1.247 . S
C229 O237 1.258 . S
O230 C228 1.247 . S
O230 Zn231 2.007 1_556 S
Zn231 O230 2.007 1_554 S
Zn231 O235 2.014 1_554 S
Zn231 O237 2.056 . S
Zn231 O238 2.049 . S
O232 C228 1.258 . S
O232 Zn233 2.014 1_556 S
Zn233 O232 2.014 1_554 S
Zn233 O234 2.006 1_554 S
Zn233 O236 2.050 . S
Zn233 O239 2.057 . S
O234 Zn233 2.006 1_556 S
O234 C240 1.247 . S
O235 Zn231 2.014 1_556 S
O235 C240 1.258 . S
O236 C229 1.247 . S
O236 Zn233 2.050 . S
O237 C229 1.258 . S
O237 Zn231 2.056 . S
O238 Zn231 2.049 . S
O238 C241 1.247 . S
O239 Zn233 2.057 . S
O239 C241 1.258 . S
C240 O234 1.247 . S
C240 O235 1.258 . S
C241 O238 1.247 . S
C241 O239 1.258 . S
C242 O244 1.247 . S
C242 O246 1.258 . S
C243 O250 1.247 . S
C243 O251 1.258 . S
O244 C242 1.247 . S
O244 Zn245 2.037 . S
Zn245 O244 2.037 . S
Zn245 O249 2.044 . S
Zn245 O251 2.027 1_554 S
Zn245 O252 2.019 1_554 S
O246 C242 1.258 . S
O246 Zn247 2.046 . S
Zn247 O246 2.046 . S
Zn247 O248 2.039 . S
Zn247 O250 2.017 1_554 S
Zn247 O253 2.024 1_554 S
O248 Zn247 2.039 . S
O248 C254 1.247 . S
O249 Zn245 2.044 . S
O249 C254 1.258 . S
O250 C243 1.247 . S
O250 Zn247 2.017 1_556 S
O251 C243 1.258 . S
O251 Zn245 2.027 1_556 S
O252 Zn245 2.019 1_556 S
O252 C255 1.247 . S
O253 Zn247 2.024 1_556 S
O253 C255 1.258 . S
C254 O248 1.247 . S
C254 O249 1.258 . S
C255 O252 1.247 . S
C255 O253 1.258 . S
H256 C262 0.930 . S
H257 C266 0.930 . S
H258 C271 0.929 . S
H259 C269 0.929 . S
H260 C264 0.929 . S
H261 C270 0.929 . S
C262 H256 0.930 . S
C262 C263 1.367 . S
C262 C270 1.378 . S
C263 C262 1.367 . S
C263 C271 1.433 . S
C264 H260 0.929 . S
C264 C266 1.378 . S
C264 C268 1.350 . S
C265 C268 1.463 . S
C265 C270 1.350 . S
C265 N273 1.427 . S
C266 H257 0.930 . S
C266 C264 1.378 . S
C266 C267 1.367 . S
C267 C266 1.367 . S
C267 C269 1.433 . S
C268 C264 1.350 . S
C268 C265 1.463 . S
C268 N272 1.427 . S
C269 H259 0.929 . S
C269 C267 1.433 . S
C269 N272 1.384 . S
C270 H261 0.929 . S
C270 C262 1.378 . S
C270 C265 1.350 . S
C271 H258 0.929 . S
C271 C263 1.433 . S
C271 N273 1.384 . S
N272 C268 1.427 . S
N272 C269 1.384 . S
N273 C265 1.427 . S
N273 C271 1.384 . S
H274 C280 0.930 . S
H275 C284 0.930 . S
H276 C289 0.929 . S
H277 C287 0.929 . S
H278 C282 0.929 . S
H279 C288 0.929 . S
C280 H274 0.930 . S
C280 C281 1.367 . S
C280 C288 1.378 . S
C281 C280 1.367 . S
C281 C289 1.433 . S
C282 H278 0.929 . S
C282 C284 1.378 . S
C282 C286 1.350 . S
C283 C286 1.463 . S
C283 C288 1.350 . S
C283 N291 1.427 . S
C284 H275 0.930 . S
C284 C282 1.378 . S
C284 C285 1.367 . S
C285 C284 1.367 . S
C285 C287 1.433 . S
C286 C282 1.350 . S
C286 C283 1.463 . S
C286 N290 1.427 . S
C287 H277 0.929 . S
C287 C285 1.433 . S
C287 N290 1.384 . S
C288 H279 0.929 . S
C288 C280 1.378 . S
C288 C283 1.350 . S
C289 H276 0.929 . S
C289 C281 1.433 . S
C289 N291 1.384 . S
N290 C286 1.427 . S
N290 C287 1.384 . S
N291 C283 1.427 . S
N291 C289 1.384 . S
H292 C298 0.930 . S
H293 C302 0.930 . S
H294 C307 0.929 . S
H295 C305 0.929 . S
H296 C300 0.929 . S
H297 C306 0.929 . S
C298 H292 0.930 . S
C298 C299 1.367 . S
C298 C306 1.378 . S
C299 C298 1.367 . S
C299 C307 1.433 . S
C300 H296 0.929 . S
C300 C302 1.378 . S
C300 C304 1.350 . S
C301 C304 1.463 . S
C301 C306 1.350 . S
C301 N309 1.427 . S
C302 H293 0.930 . S
C302 C300 1.378 . S
C302 C303 1.367 . S
C303 C302 1.367 . S
C303 C305 1.433 . S
C304 C300 1.350 . S
C304 C301 1.463 . S
C304 N308 1.427 . S
C305 H295 0.929 . S
C305 C303 1.433 . S
C305 N308 1.384 . S
C306 H297 0.929 . S
C306 C298 1.378 . S
C306 C301 1.350 . S
C307 H294 0.929 . S
C307 C299 1.433 . S
C307 N309 1.384 . S
N308 C304 1.427 . S
N308 C305 1.384 . S
N309 C301 1.427 . S
N309 C307 1.384 . S
H310 C316 0.930 . S
H311 C320 0.930 . S
H312 C325 0.929 . S
H313 C323 0.929 . S
H314 C318 0.929 . S
H315 C324 0.929 . S
C316 H310 0.930 . S
C316 C317 1.367 . S
C316 C324 1.378 . S
C317 C316 1.367 . S
C317 C325 1.433 . S
C318 H314 0.929 . S
C318 C320 1.378 . S
C318 C322 1.350 . S
C319 C322 1.463 . S
C319 C324 1.350 . S
C319 N327 1.427 . S
C320 H311 0.930 . S
C320 C318 1.378 . S
C320 C321 1.367 . S
C321 C320 1.367 . S
C321 C323 1.433 . S
C322 C318 1.350 . S
C322 C319 1.463 . S
C322 N326 1.427 . S
C323 H313 0.929 . S
C323 C321 1.433 . S
C323 N326 1.384 . S
C324 H315 0.929 . S
C324 C316 1.378 . S
C324 C319 1.350 . S
C325 H312 0.929 . S
C325 C317 1.433 . S
C325 N327 1.384 . S
N326 C322 1.427 . S
N326 C323 1.384 . S
N327 C319 1.427 . S
N327 C325 1.384 . S
H328 C334 0.930 . S
H329 C338 0.930 . S
H330 C343 0.929 . S
H331 C341 0.929 . S
H332 C336 0.929 . S
H333 C342 0.929 . S
C334 H328 0.930 . S
C334 C335 1.367 . S
C334 C342 1.378 . S
C335 C334 1.367 . S
C335 C343 1.433 . S
C336 H332 0.929 . S
C336 C338 1.378 . S
C336 C340 1.350 . S
C337 C340 1.463 . S
C337 C342 1.350 . S
C337 N345 1.427 . S
C338 H329 0.930 . S
C338 C336 1.378 . S
C338 C339 1.367 . S
C339 C338 1.367 . S
C339 C341 1.433 . S
C340 C336 1.350 . S
C340 C337 1.463 . S
C340 N344 1.427 . S
C341 H331 0.929 . S
C341 C339 1.433 . S
C341 N344 1.384 . S
C342 H333 0.929 . S
C342 C334 1.378 . S
C342 C337 1.350 . S
C343 H330 0.929 . S
C343 C335 1.433 . S
C343 N345 1.384 . S
N344 C340 1.427 . S
N344 C341 1.384 . S
N345 C337 1.427 . S
N345 C343 1.384 . S
H346 C352 0.930 . S
H347 C356 0.930 . S
H348 C361 0.929 . S
H349 C359 0.929 . S
H350 C354 0.929 . S
H351 C360 0.929 . S
C352 H346 0.930 . S
C352 C353 1.367 . S
C352 C360 1.378 . S
C353 C352 1.367 . S
C353 C361 1.433 . S
C354 H350 0.929 . S
C354 C356 1.378 . S
C354 C358 1.350 . S
C355 C358 1.463 . S
C355 C360 1.350 . S
C355 N363 1.427 . S
C356 H347 0.930 . S
C356 C354 1.378 . S
C356 C357 1.367 . S
C357 C356 1.367 . S
C357 C359 1.433 . S
C358 C354 1.350 . S
C358 C355 1.463 . S
C358 N362 1.427 . S
C359 H349 0.929 . S
C359 C357 1.433 . S
C359 N362 1.384 . S
C360 H351 0.929 . S
C360 C352 1.378 . S
C360 C355 1.350 . S
C361 H348 0.929 . S
C361 C353 1.433 . S
C361 N363 1.384 . S
N362 C358 1.427 . S
N362 C359 1.384 . S
N363 C355 1.427 . S
N363 C361 1.384 . S
H364 C370 0.930 . S
H365 C374 0.930 . S
H366 C379 0.929 . S
H367 C377 0.929 . S
H368 C372 0.929 . S
H369 C378 0.929 . S
C370 H364 0.930 . S
C370 C371 1.367 . S
C370 C378 1.378 . S
C371 C370 1.367 . S
C371 C379 1.433 . S
C372 H368 0.929 . S
C372 C374 1.378 . S
C372 C376 1.350 . S
C373 C376 1.463 . S
C373 C378 1.350 . S
C373 N381 1.427 . S
C374 H365 0.930 . S
C374 C372 1.378 . S
C374 C375 1.367 . S
C375 C374 1.367 . S
C375 C377 1.433 . S
C376 C372 1.350 . S
C376 C373 1.463 . S
C376 N380 1.427 . S
C377 H367 0.929 . S
C377 C375 1.433 . S
C377 N380 1.384 . S
C378 H369 0.929 . S
C378 C370 1.378 . S
C378 C373 1.350 . S
C379 H366 0.929 . S
C379 C371 1.433 . S
C379 N381 1.384 . S
N380 C376 1.427 . S
N380 C377 1.384 . S
N381 C373 1.427 . S
N381 C379 1.384 . S
H382 C388 0.930 . S
H383 C392 0.930 . S
H384 C397 0.929 . S
H385 C395 0.929 . S
H386 C390 0.929 . S
H387 C396 0.929 . S
C388 H382 0.930 . S
C388 C389 1.367 . S
C388 C396 1.378 . S
C389 C388 1.367 . S
C389 C397 1.433 . S
C390 H386 0.929 . S
C390 C392 1.378 . S
C390 C394 1.350 . S
C391 C394 1.463 . S
C391 C396 1.350 . S
C391 N399 1.427 . S
C392 H383 0.930 . S
C392 C390 1.378 . S
C392 C393 1.367 . S
C393 C392 1.367 . S
C393 C395 1.433 . S
C394 C390 1.350 . S
C394 C391 1.463 . S
C394 N398 1.427 . S
C395 H385 0.929 . S
C395 C393 1.433 . S
C395 N398 1.384 . S
C396 H387 0.929 . S
C396 C388 1.378 . S
C396 C391 1.350 . S
C397 H384 0.929 . S
C397 C389 1.433 . S
C397 N399 1.384 . S
N398 C394 1.427 . S
N398 C395 1.384 . S
N399 C391 1.427 . S
N399 C397 1.384 . S
H400 C406 0.930 . S
H401 C410 0.930 . S
H402 C415 0.929 . S
H403 C413 0.929 . S
H404 C408 0.929 . S
H405 C414 0.929 . S
C406 H400 0.930 . S
C406 C407 1.367 . S
C406 C414 1.378 . S
C407 C406 1.367 . S
C407 C415 1.433 . S
C408 H404 0.929 . S
C408 C410 1.378 . S
C408 C412 1.350 . S
C409 C412 1.463 . S
C409 C414 1.350 . S
C409 N417 1.427 . S
C410 H401 0.930 . S
C410 C408 1.378 . S
C410 C411 1.367 . S
C411 C410 1.367 . S
C411 C413 1.433 . S
C412 C408 1.350 . S
C412 C409 1.463 . S
C412 N416 1.427 . S
C413 H403 0.929 . S
C413 C411 1.433 . S
C413 N416 1.384 . S
C414 H405 0.929 . S
C414 C406 1.378 . S
C414 C409 1.350 . S
C415 H402 0.929 . S
C415 C407 1.433 . S
C415 N417 1.384 . S
N416 C412 1.427 . S
N416 C413 1.384 . S
N417 C409 1.427 . S
N417 C415 1.384 . S
H418 C424 0.930 . S
H419 C428 0.930 . S
H420 C433 0.929 . S
H421 C431 0.929 . S
H422 C426 0.929 . S
H423 C432 0.929 . S
C424 H418 0.930 . S
C424 C425 1.367 . S
C424 C432 1.378 . S
C425 C424 1.367 . S
C425 C433 1.433 . S
C426 H422 0.929 . S
C426 C428 1.378 . S
C426 C430 1.350 . S
C427 C430 1.463 . S
C427 C432 1.350 . S
C427 N435 1.427 . S
C428 H419 0.930 . S
C428 C426 1.378 . S
C428 C429 1.367 . S
C429 C428 1.367 . S
C429 C431 1.433 . S
C430 C426 1.350 . S
C430 C427 1.463 . S
C430 N434 1.427 . S
C431 H421 0.929 . S
C431 C429 1.433 . S
C431 N434 1.384 . S
C432 H423 0.929 . S
C432 C424 1.378 . S
C432 C427 1.350 . S
C433 H420 0.929 . S
C433 C425 1.433 . S
C433 N435 1.384 . S
N434 C430 1.427 . S
N434 C431 1.384 . S
N435 C427 1.427 . S
N435 C433 1.384 . S
H436 C442 0.930 . S
H437 C446 0.930 . S
H438 C451 0.929 . S
H439 C449 0.929 . S
H440 C444 0.929 . S
H441 C450 0.929 . S
C442 H436 0.930 . S
C442 C443 1.367 . S
C442 C450 1.378 . S
C443 C442 1.367 . S
C443 C451 1.433 . S
C444 H440 0.929 . S
C444 C446 1.378 . S
C444 C448 1.350 . S
C445 C448 1.463 . S
C445 C450 1.350 . S
C445 N453 1.427 . S
C446 H437 0.930 . S
C446 C444 1.378 . S
C446 C447 1.367 . S
C447 C446 1.367 . S
C447 C449 1.433 . S
C448 C444 1.350 . S
C448 C445 1.463 . S
C448 N452 1.427 . S
C449 H439 0.929 . S
C449 C447 1.433 . S
C449 N452 1.384 . S
C450 H441 0.929 . S
C450 C442 1.378 . S
C450 C445 1.350 . S
C451 H438 0.929 . S
C451 C443 1.433 . S
C451 N453 1.384 . S
N452 C448 1.427 . S
N452 C449 1.384 . S
N453 C445 1.427 . S
N453 C451 1.384 . S
H454 C460 0.930 . S
H455 C464 0.930 . S
H456 C469 0.929 . S
H457 C467 0.929 . S
H458 C462 0.929 . S
H459 C468 0.929 . S
C460 H454 0.930 . S
C460 C461 1.367 . S
C460 C468 1.378 . S
C461 C460 1.367 . S
C461 C469 1.433 . S
C462 H458 0.929 . S
C462 C464 1.378 . S
C462 C466 1.350 . S
C463 C466 1.463 . S
C463 C468 1.350 . S
C463 N471 1.427 . S
C464 H455 0.930 . S
C464 C462 1.378 . S
C464 C465 1.367 . S
C465 C464 1.367 . S
C465 C467 1.433 . S
C466 C462 1.350 . S
C466 C463 1.463 . S
C466 N470 1.427 . S
C467 H457 0.929 . S
C467 C465 1.433 . S
C467 N470 1.384 . S
C468 H459 0.929 . S
C468 C460 1.378 . S
C468 C463 1.350 . S
C469 H456 0.929 . S
C469 C461 1.433 . S
C469 N471 1.384 . S
N470 C466 1.427 . S
N470 C467 1.384 . S
N471 C463 1.427 . S
N471 C469 1.384 . S
H472 C478 0.930 . S
H473 C482 0.930 . S
H474 C487 0.929 . S
H475 C485 0.929 . S
H476 C480 0.929 . S
H477 C486 0.929 . S
C478 H472 0.930 . S
C478 C479 1.367 . S
C478 C486 1.378 . S
C479 C478 1.367 . S
C479 C487 1.433 . S
C480 H476 0.929 . S
C480 C482 1.378 . S
C480 C484 1.350 . S
C481 C484 1.463 . S
C481 C486 1.350 . S
C481 N489 1.427 . S
C482 H473 0.930 . S
C482 C480 1.378 . S
C482 C483 1.367 . S
C483 C482 1.367 . S
C483 C485 1.433 . S
C484 C480 1.350 . S
C484 C481 1.463 . S
C484 N488 1.427 . S
C485 H475 0.929 . S
C485 C483 1.433 . S
C485 N488 1.384 . S
C486 H477 0.929 . S
C486 C478 1.378 . S
C486 C481 1.350 . S
C487 H474 0.929 . S
C487 C479 1.433 . S
C487 N489 1.384 . S
N488 C484 1.427 . S
N488 C485 1.384 . S
N489 C481 1.427 . S
N489 C487 1.384 . S
H490 C496 0.930 . S
H491 C500 0.930 . S
H492 C505 0.929 . S
H493 C503 0.929 . S
H494 C498 0.929 . S
H495 C504 0.929 . S
C496 H490 0.930 . S
C496 C497 1.367 . S
C496 C504 1.378 . S
C497 C496 1.367 . S
C497 C505 1.433 . S
C498 H494 0.929 . S
C498 C500 1.378 . S
C498 C502 1.350 . S
C499 C502 1.463 . S
C499 C504 1.350 . S
C499 N507 1.427 . S
C500 H491 0.930 . S
C500 C498 1.378 . S
C500 C501 1.367 . S
C501 C500 1.367 . S
C501 C503 1.433 . S
C502 C498 1.350 . S
C502 C499 1.463 . S
C502 N506 1.427 . S
C503 H493 0.929 . S
C503 C501 1.433 . S
C503 N506 1.384 . S
C504 H495 0.929 . S
C504 C496 1.378 . S
C504 C499 1.350 . S
C505 H492 0.929 . S
C505 C497 1.433 . S
C505 N507 1.384 . S
N506 C502 1.427 . S
N506 C503 1.384 . S
N507 C499 1.427 . S
N507 C505 1.384 . S
H508 C514 0.930 . S
H509 C518 0.930 . S
H510 C523 0.929 . S
H511 C521 0.929 . S
H512 C516 0.929 . S
H513 C522 0.929 . S
C514 H508 0.930 . S
C514 C515 1.367 . S
C514 C522 1.378 . S
C515 C514 1.367 . S
C515 C523 1.433 . S
C516 H512 0.929 . S
C516 C518 1.378 . S
C516 C520 1.350 . S
C517 C520 1.463 . S
C517 C522 1.350 . S
C517 N525 1.427 . S
C518 H509 0.930 . S
C518 C516 1.378 . S
C518 C519 1.367 . S
C519 C518 1.367 . S
C519 C521 1.433 . S
C520 C516 1.350 . S
C520 C517 1.463 . S
C520 N524 1.427 . S
C521 H511 0.929 . S
C521 C519 1.433 . S
C521 N524 1.384 . S
C522 H513 0.929 . S
C522 C514 1.378 . S
C522 C517 1.350 . S
C523 H510 0.929 . S
C523 C515 1.433 . S
C523 N525 1.384 . S
N524 C520 1.427 . S
N524 C521 1.384 . S
N525 C517 1.427 . S
N525 C523 1.384 . S
H526 C532 0.930 . S
H527 C536 0.930 . S
H528 C541 0.929 . S
H529 C539 0.929 . S
H530 C534 0.929 . S
H531 C540 0.929 . S
C532 H526 0.930 . S
C532 C533 1.367 . S
C532 C540 1.378 . S
C533 C532 1.367 . S
C533 C541 1.433 . S
C534 H530 0.929 . S
C534 C536 1.378 . S
C534 C538 1.350 . S
C535 C538 1.463 . S
C535 C540 1.350 . S
C535 N543 1.427 . S
C536 H527 0.930 . S
C536 C534 1.378 . S
C536 C537 1.367 . S
C537 C536 1.367 . S
C537 C539 1.433 . S
C538 C534 1.350 . S
C538 C535 1.463 . S
C538 N542 1.427 . S
C539 H529 0.929 . S
C539 C537 1.433 . S
C539 N542 1.384 . S
C540 H531 0.929 . S
C540 C532 1.378 . S
C540 C535 1.350 . S
C541 H528 0.929 . S
C541 C533 1.433 . S
C541 N543 1.384 . S
N542 C538 1.427 . S
N542 C539 1.384 . S
N543 C535 1.427 . S
N543 C541 1.384 . S
H544 C550 0.930 . S
H545 C554 0.930 . S
H546 C559 0.929 . S
H547 C557 0.929 . S
H548 C552 0.929 . S
H549 C558 0.929 . S
C550 H544 0.930 . S
C550 C551 1.367 . S
C550 C558 1.378 . S
C551 C550 1.367 . S
C551 C559 1.433 . S
C552 H548 0.929 . S
C552 C554 1.378 . S
C552 C556 1.350 . S
C553 C556 1.463 . S
C553 C558 1.350 . S
C553 N561 1.427 . S
C554 H545 0.930 . S
C554 C552 1.378 . S
C554 C555 1.367 . S
C555 C554 1.367 . S
C555 C557 1.433 . S
C556 C552 1.350 . S
C556 C553 1.463 . S
C556 N560 1.427 . S
C557 H547 0.929 . S
C557 C555 1.433 . S
C557 N560 1.384 . S
C558 H549 0.929 . S
C558 C550 1.378 . S
C558 C553 1.350 . S
C559 H546 0.929 . S
C559 C551 1.433 . S
C559 N561 1.384 . S
N560 C556 1.427 . S
N560 C557 1.384 . S
N561 C553 1.427 . S
N561 C559 1.384 . S
H562 C568 0.930 . S
H563 C572 0.930 . S
H564 C577 0.929 . S
H565 C575 0.929 . S
H566 C570 0.929 . S
H567 C576 0.929 . S
C568 H562 0.930 . S
C568 C569 1.367 . S
C568 C576 1.378 . S
C569 C568 1.367 . S
C569 C577 1.433 . S
C570 H566 0.929 . S
C570 C572 1.378 . S
C570 C574 1.350 . S
C571 C574 1.463 . S
C571 C576 1.350 . S
C571 N579 1.427 . S
C572 H563 0.930 . S
C572 C570 1.378 . S
C572 C573 1.367 . S
C573 C572 1.367 . S
C573 C575 1.433 . S
C574 C570 1.350 . S
C574 C571 1.463 . S
C574 N578 1.427 . S
C575 H565 0.929 . S
C575 C573 1.433 . S
C575 N578 1.384 . S
C576 H567 0.929 . S
C576 C568 1.378 . S
C576 C571 1.350 . S
C577 H564 0.929 . S
C577 C569 1.433 . S
C577 N579 1.384 . S
N578 C574 1.427 . S
N578 C575 1.384 . S
N579 C571 1.427 . S
N579 C577 1.384 . S
H580 C586 0.930 . S
H581 C590 0.930 . S
H582 C595 0.929 . S
H583 C593 0.929 . S
H584 C588 0.929 . S
H585 C594 0.929 . S
C586 H580 0.930 . S
C586 C587 1.367 . S
C586 C594 1.378 . S
C587 C586 1.367 . S
C587 C595 1.433 . S
C588 H584 0.929 . S
C588 C590 1.378 . S
C588 C592 1.350 . S
C589 C592 1.463 . S
C589 C594 1.350 . S
C589 N597 1.427 . S
C590 H581 0.930 . S
C590 C588 1.378 . S
C590 C591 1.367 . S
C591 C590 1.367 . S
C591 C593 1.433 . S
C592 C588 1.350 . S
C592 C589 1.463 . S
C592 N596 1.427 . S
C593 H583 0.929 . S
C593 C591 1.433 . S
C593 N596 1.384 . S
C594 H585 0.929 . S
C594 C586 1.378 . S
C594 C589 1.350 . S
C595 H582 0.929 . S
C595 C587 1.433 . S
C595 N597 1.384 . S
N596 C592 1.427 . S
N596 C593 1.384 . S
N597 C589 1.427 . S
N597 C595 1.384 . S
H598 C604 0.930 . S
H599 C608 0.930 . S
H600 C613 0.929 . S
H601 C611 0.929 . S
H602 C606 0.929 . S
H603 C612 0.929 . S
C604 H598 0.930 . S
C604 C605 1.367 . S
C604 C612 1.378 . S
C605 C604 1.367 . S
C605 C613 1.433 . S
C606 H602 0.929 . S
C606 C608 1.378 . S
C606 C610 1.350 . S
C607 C610 1.463 . S
C607 C612 1.350 . S
C607 N615 1.427 . S
C608 H599 0.930 . S
C608 C606 1.378 . S
C608 C609 1.367 . S
C609 C608 1.367 . S
C609 C611 1.433 . S
C610 C606 1.350 . S
C610 C607 1.463 . S
C610 N614 1.427 . S
C611 H601 0.929 . S
C611 C609 1.433 . S
C611 N614 1.384 . S
C612 H603 0.929 . S
C612 C604 1.378 . S
C612 C607 1.350 . S
C613 H600 0.929 . S
C613 C605 1.433 . S
C613 N615 1.384 . S
N614 C610 1.427 . S
N614 C611 1.384 . S
N615 C607 1.427 . S
N615 C613 1.384 . S
H616 C622 0.930 . S
H617 C626 0.930 . S
H618 C631 0.929 . S
H619 C629 0.929 . S
H620 C624 0.929 . S
H621 C630 0.929 . S
C622 H616 0.930 . S
C622 C623 1.367 . S
C622 C630 1.378 . S
C623 C622 1.367 . S
C623 C631 1.433 . S
C624 H620 0.929 . S
C624 C626 1.378 . S
C624 C628 1.350 . S
C625 C628 1.463 . S
C625 C630 1.350 . S
C625 N633 1.427 . S
C626 H617 0.930 . S
C626 C624 1.378 . S
C626 C627 1.367 . S
C627 C626 1.367 . S
C627 C629 1.433 . S
C628 C624 1.350 . S
C628 C625 1.463 . S
C628 N632 1.427 . S
C629 H619 0.929 . S
C629 C627 1.433 . S
C629 N632 1.384 . S
C630 H621 0.929 . S
C630 C622 1.378 . S
C630 C625 1.350 . S
C631 H618 0.929 . S
C631 C623 1.433 . S
C631 N633 1.384 . S
N632 C628 1.427 . S
N632 C629 1.384 . S
N633 C625 1.427 . S
N633 C631 1.384 . S
H634 C640 0.930 . S
H635 C644 0.930 . S
H636 C649 0.929 . S
H637 C647 0.929 . S
H638 C642 0.929 . S
H639 C648 0.929 . S
C640 H634 0.930 . S
C640 C641 1.367 . S
C640 C648 1.378 . S
C641 C640 1.367 . S
C641 C649 1.433 . S
C642 H638 0.929 . S
C642 C644 1.378 . S
C642 C646 1.350 . S
C643 C646 1.463 . S
C643 C648 1.350 . S
C643 N651 1.427 . S
C644 H635 0.930 . S
C644 C642 1.378 . S
C644 C645 1.367 . S
C645 C644 1.367 . S
C645 C647 1.433 . S
C646 C642 1.350 . S
C646 C643 1.463 . S
C646 N650 1.427 . S
C647 H637 0.929 . S
C647 C645 1.433 . S
C647 N650 1.384 . S
C648 H639 0.929 . S
C648 C640 1.378 . S
C648 C643 1.350 . S
C649 H636 0.929 . S
C649 C641 1.433 . S
C649 N651 1.384 . S
N650 C646 1.427 . S
N650 C647 1.384 . S
N651 C643 1.427 . S
N651 C649 1.384 . S
H652 C658 0.930 . S
H653 C662 0.930 . S
H654 C667 0.929 . S
H655 C665 0.929 . S
H656 C660 0.929 . S
H657 C666 0.929 . S
C658 H652 0.930 . S
C658 C659 1.367 . S
C658 C666 1.378 . S
C659 C658 1.367 . S
C659 C667 1.433 . S
C660 H656 0.929 . S
C660 C662 1.378 . S
C660 C664 1.350 . S
C661 C664 1.463 . S
C661 C666 1.350 . S
C661 N669 1.427 . S
C662 H653 0.930 . S
C662 C660 1.378 . S
C662 C663 1.367 . S
C663 C662 1.367 . S
C663 C665 1.433 . S
C664 C660 1.350 . S
C664 C661 1.463 . S
C664 N668 1.427 . S
C665 H655 0.929 . S
C665 C663 1.433 . S
C665 N668 1.384 . S
C666 H657 0.929 . S
C666 C658 1.378 . S
C666 C661 1.350 . S
C667 H654 0.929 . S
C667 C659 1.433 . S
C667 N669 1.384 . S
N668 C664 1.427 . S
N668 C665 1.384 . S
N669 C661 1.427 . S
N669 C667 1.384 . S
H670 C676 0.930 . S
H671 C680 0.930 . S
H672 C685 0.929 . S
H673 C683 0.929 . S
H674 C678 0.929 . S
H675 C684 0.929 . S
C676 H670 0.930 . S
C676 C677 1.367 . S
C676 C684 1.378 . S
C677 C676 1.367 . S
C677 C685 1.433 . S
C678 H674 0.929 . S
C678 C680 1.378 . S
C678 C682 1.350 . S
C679 C682 1.463 . S
C679 C684 1.350 . S
C679 N687 1.427 . S
C680 H671 0.930 . S
C680 C678 1.378 . S
C680 C681 1.367 . S
C681 C680 1.367 . S
C681 C683 1.433 . S
C682 C678 1.350 . S
C682 C679 1.463 . S
C682 N686 1.427 . S
C683 H673 0.929 . S
C683 C681 1.433 . S
C683 N686 1.384 . S
C684 H675 0.929 . S
C684 C676 1.378 . S
C684 C679 1.350 . S
C685 H672 0.929 . S
C685 C677 1.433 . S
C685 N687 1.384 . S
N686 C682 1.427 . S
N686 C683 1.384 . S
N687 C679 1.427 . S
N687 C685 1.384 . S
H688 C694 0.930 . S
H689 C698 0.930 . S
H690 C703 0.929 . S
H691 C701 0.929 . S
H692 C696 0.929 . S
H693 C702 0.929 . S
C694 H688 0.930 . S
C694 C695 1.367 . S
C694 C702 1.378 . S
C695 C694 1.367 . S
C695 C703 1.433 . S
C696 H692 0.929 . S
C696 C698 1.378 . S
C696 C700 1.350 . S
C697 C700 1.463 . S
C697 C702 1.350 . S
C697 N705 1.427 . S
C698 H689 0.930 . S
C698 C696 1.378 . S
C698 C699 1.367 . S
C699 C698 1.367 . S
C699 C701 1.433 . S
C700 C696 1.350 . S
C700 C697 1.463 . S
C700 N704 1.427 . S
C701 H691 0.929 . S
C701 C699 1.433 . S
C701 N704 1.384 . S
C702 H693 0.929 . S
C702 C694 1.378 . S
C702 C697 1.350 . S
C703 H690 0.929 . S
C703 C695 1.433 . S
C703 N705 1.384 . S
N704 C700 1.427 . S
N704 C701 1.384 . S
N705 C697 1.427 . S
N705 C703 1.384 . S
H706 C712 0.930 . S
H707 C716 0.930 . S
H708 C721 0.929 . S
H709 C719 0.929 . S
H710 C714 0.929 . S
H711 C720 0.929 . S
C712 H706 0.930 . S
C712 C713 1.367 . S
C712 C720 1.378 . S
C713 C712 1.367 . S
C713 C721 1.433 . S
C714 H710 0.929 . S
C714 C716 1.378 . S
C714 C718 1.350 . S
C715 C718 1.463 . S
C715 C720 1.350 . S
C715 N723 1.427 . S
C716 H707 0.930 . S
C716 C714 1.378 . S
C716 C717 1.367 . S
C717 C716 1.367 . S
C717 C719 1.433 . S
C718 C714 1.350 . S
C718 C715 1.463 . S
C718 N722 1.427 . S
C719 H709 0.929 . S
C719 C717 1.433 . S
C719 N722 1.384 . S
C720 H711 0.929 . S
C720 C712 1.378 . S
C720 C715 1.350 . S
C721 H708 0.929 . S
C721 C713 1.433 . S
C721 N723 1.384 . S
N722 C718 1.427 . S
N722 C719 1.384 . S
N723 C715 1.427 . S
N723 C721 1.384 . S
H724 C730 0.930 . S
H725 C734 0.930 . S
H726 C739 0.929 . S
H727 C737 0.929 . S
H728 C732 0.929 . S
H729 C738 0.929 . S
C730 H724 0.930 . S
C730 C731 1.367 . S
C730 C738 1.378 . S
C731 C730 1.367 . S
C731 C739 1.433 . S
C732 H728 0.929 . S
C732 C734 1.378 . S
C732 C736 1.350 . S
C733 C736 1.463 . S
C733 C738 1.350 . S
C733 N741 1.427 . S
C734 H725 0.930 . S
C734 C732 1.378 . S
C734 C735 1.367 . S
C735 C734 1.367 . S
C735 C737 1.433 . S
C736 C732 1.350 . S
C736 C733 1.463 . S
C736 N740 1.427 . S
C737 H727 0.929 . S
C737 C735 1.433 . S
C737 N740 1.384 . S
C738 H729 0.929 . S
C738 C730 1.378 . S
C738 C733 1.350 . S
C739 H726 0.929 . S
C739 C731 1.433 . S
C739 N741 1.384 . S
N740 C736 1.427 . S
N740 C737 1.384 . S
N741 C733 1.427 . S
N741 C739 1.384 . S
H742 C748 0.930 . S
H743 C752 0.930 . S
H744 C757 0.929 . S
H745 C755 0.929 . S
H746 C750 0.929 . S
H747 C756 0.929 . S
C748 H742 0.930 . S
C748 C749 1.367 . S
C748 C756 1.378 . S
C749 C748 1.367 . S
C749 C757 1.433 . S
C750 H746 0.929 . S
C750 C752 1.378 . S
C750 C754 1.350 . S
C751 C754 1.463 . S
C751 C756 1.350 . S
C751 N759 1.427 . S
C752 H743 0.930 . S
C752 C750 1.378 . S
C752 C753 1.367 . S
C753 C752 1.367 . S
C753 C755 1.433 . S
C754 C750 1.350 . S
C754 C751 1.463 . S
C754 N758 1.427 . S
C755 H745 0.929 . S
C755 C753 1.433 . S
C755 N758 1.384 . S
C756 H747 0.929 . S
C756 C748 1.378 . S
C756 C751 1.350 . S
C757 H744 0.929 . S
C757 C749 1.433 . S
C757 N759 1.384 . S
N758 C754 1.427 . S
N758 C755 1.384 . S
N759 C751 1.427 . S
N759 C757 1.384 . S
H760 C766 0.930 . S
H761 C770 0.930 . S
H762 C775 0.929 . S
H763 C773 0.929 . S
H764 C768 0.929 . S
H765 C774 0.929 . S
C766 H760 0.930 . S
C766 C767 1.367 . S
C766 C774 1.378 . S
C767 C766 1.367 . S
C767 C775 1.433 . S
C768 H764 0.929 . S
C768 C770 1.378 . S
C768 C772 1.350 . S
C769 C772 1.463 . S
C769 C774 1.350 . S
C769 N777 1.427 . S
C770 H761 0.930 . S
C770 C768 1.378 . S
C770 C771 1.367 . S
C771 C770 1.367 . S
C771 C773 1.433 . S
C772 C768 1.350 . S
C772 C769 1.463 . S
C772 N776 1.427 . S
C773 H763 0.929 . S
C773 C771 1.433 . S
C773 N776 1.384 . S
C774 H765 0.929 . S
C774 C766 1.378 . S
C774 C769 1.350 . S
C775 H762 0.929 . S
C775 C767 1.433 . S
C775 N777 1.384 . S
N776 C772 1.427 . S
N776 C773 1.384 . S
N777 C769 1.427 . S
N777 C775 1.384 . S
H778 C784 0.930 . S
H779 C788 0.930 . S
H780 C793 0.929 . S
H781 C791 0.929 . S
H782 C786 0.929 . S
H783 C792 0.929 . S
C784 H778 0.930 . S
C784 C785 1.367 . S
C784 C792 1.378 . S
C785 C784 1.367 . S
C785 C793 1.433 . S
C786 H782 0.929 . S
C786 C788 1.378 . S
C786 C790 1.350 . S
C787 C790 1.463 . S
C787 C792 1.350 . S
C787 N795 1.427 . S
C788 H779 0.930 . S
C788 C786 1.378 . S
C788 C789 1.367 . S
C789 C788 1.367 . S
C789 C791 1.433 . S
C790 C786 1.350 . S
C790 C787 1.463 . S
C790 N794 1.427 . S
C791 H781 0.929 . S
C791 C789 1.433 . S
C791 N794 1.384 . S
C792 H783 0.929 . S
C792 C784 1.378 . S
C792 C787 1.350 . S
C793 H780 0.929 . S
C793 C785 1.433 . S
C793 N795 1.384 . S
N794 C790 1.427 . S
N794 C791 1.384 . S
N795 C787 1.427 . S
N795 C793 1.384 . S
H796 C802 0.930 . S
H797 C806 0.930 . S
H798 C811 0.929 . S
H799 C809 0.929 . S
H800 C804 0.929 . S
H801 C810 0.929 . S
C802 H796 0.930 . S
C802 C803 1.367 . S
C802 C810 1.378 . S
C803 C802 1.367 . S
C803 C811 1.433 . S
C804 H800 0.929 . S
C804 C806 1.378 . S
C804 C808 1.350 . S
C805 C808 1.463 . S
C805 C810 1.350 . S
C805 N813 1.427 . S
C806 H797 0.930 . S
C806 C804 1.378 . S
C806 C807 1.367 . S
C807 C806 1.367 . S
C807 C809 1.433 . S
C808 C804 1.350 . S
C808 C805 1.463 . S
C808 N812 1.427 . S
C809 H799 0.929 . S
C809 C807 1.433 . S
C809 N812 1.384 . S
C810 H801 0.929 . S
C810 C802 1.378 . S
C810 C805 1.350 . S
C811 H798 0.929 . S
C811 C803 1.433 . S
C811 N813 1.384 . S
N812 C808 1.427 . S
N812 C809 1.384 . S
N813 C805 1.427 . S
N813 C811 1.384 . S
H814 C820 0.930 . S
H815 C824 0.930 . S
H816 C829 0.929 . S
H817 C827 0.929 . S
H818 C822 0.929 . S
H819 C828 0.929 . S
C820 H814 0.930 . S
C820 C821 1.367 . S
C820 C828 1.378 . S
C821 C820 1.367 . S
C821 C829 1.433 . S
C822 H818 0.929 . S
C822 C824 1.378 . S
C822 C826 1.350 . S
C823 C826 1.463 . S
C823 C828 1.350 . S
C823 N831 1.427 . S
C824 H815 0.930 . S
C824 C822 1.378 . S
C824 C825 1.367 . S
C825 C824 1.367 . S
C825 C827 1.433 . S
C826 C822 1.350 . S
C826 C823 1.463 . S
C826 N830 1.427 . S
C827 H817 0.929 . S
C827 C825 1.433 . S
C827 N830 1.384 . S
C828 H819 0.929 . S
C828 C820 1.378 . S
C828 C823 1.350 . S
C829 H816 0.929 . S
C829 C821 1.433 . S
C829 N831 1.384 . S
N830 C826 1.427 . S
N830 C827 1.384 . S
N831 C823 1.427 . S
N831 C829 1.384 . S
C267 C145 1.506 . S
C263 C7 1.452 . S
C285 C171 1.505 . S
C281 C32 1.445 . S
C303 C185 1.501 . S
C299 C44 1.441 . S
C321 C187 1.500 . S
C317 C62 1.441 . S
C335 C88 1.452 . S
C339 C184 1.507 . S
C357 C186 1.502 . S
C353 C106 1.435 . S
C375 C144 1.504 . S
C371 C124 1.437 . S
C393 C170 1.507 . S
C389 C140 1.456 . S
C411 C172 1.503 . S
C407 C142 1.443 . S
C429 C198 1.504 . S
C425 C86 1.455 . S
C447 C156 1.505 . S
C443 C104 1.446 . S
C465 C158 1.506 . S
C461 C122 1.458 . S
C483 C157 1.503 . S
C479 C34 1.443 . S
C501 C159 1.503 . S
C497 C43 1.438 . S
C519 C173 1.501 . S
C515 C61 1.444 . S
C537 C199 1.497 . S
C533 C8 1.439 . S
C555 C201 1.506 . S
C551 C133 1.454 . S
C569 C80 1.452 . S
C573 C227 1.505 . S
C587 C98 1.441 . S
C591 C240 1.500 . S
C605 C116 1.454 . S
C609 C243 1.503 . S
C623 C25 1.452 . S
C627 C241 1.506 . S
C641 C52 1.450 . S
C645 C242 1.505 . S
C659 C70 1.439 . S
C663 C200 1.502 . S
C681 C226 1.507 . S
C677 C14 1.452 . S
C699 C229 1.504 . S
C695 C16 1.449 . S
C713 C26 1.440 . S
C717 C254 1.499 . S
C731 C50 1.453 . S
C735 C212 1.504 . S
C749 C68 1.458 . S
C753 C214 1.506 . S
C771 C213 1.504 . S
C767 C79 1.448 . S
C789 C215 1.503 . S
C785 C97 1.440 . S
C803 C115 1.448 . S
C807 C228 1.505 . S
C825 C255 1.501 . S
C821 C134 1.454 . S
