# Generated by pormake.
# Topology pyr, (3,6)-cn, num edge types: 1
# Building blocks:
#     Node 0, Type 0, BuildingBlock: ESEHIV_clean_linker_0, # of connection points: 3
#     Node 1, Type 0, BuildingBlock: ESEHIV_clean_linker_0, # of connection points: 3
#     Node 2, Type 0, BuildingBlock: ESEHIV_clean_linker_0, # of connection points: 3
#     Node 3, Type 0, BuildingBlock: ESEHIV_clean_linker_0, # of connection points: 3
#     Node 4, Type 0, BuildingBlock: ESEHIV_clean_linker_0, # of connection points: 3
#     Node 5, Type 0, BuildingBlock: ESEHIV_clean_linker_0, # of connection points: 3
#     Node 6, Type 0, BuildingBlock: ESEHIV_clean_linker_0, # of connection points: 3
#     Node 7, Type 0, BuildingBlock: ESEHIV_clean_linker_0, # of connection points: 3
#     Node 8, Type 1, BuildingBlock: JUFBIX_clean_sbu_0, # of connection points: 6
#     Node 9, Type 1, BuildingBlock: JUFBIX_clean_sbu_0, # of connection points: 6
#     Node 10, Type 1, BuildingBlock: JUFBIX_clean_sbu_0, # of connection points: 6
#     Node 11, Type 1, BuildingBlock: JUFBIX_clean_sbu_0, # of connection points: 6
#     Edge 12, Type (0, 1), BuildingBlock: KIFKEQ_clean_linker_1, # of connection points: 2
#     Edge 13, Type (0, 1), BuildingBlock: KIFKEQ_clean_linker_1, # of connection points: 2
#     Edge 14, Type (0, 1), BuildingBlock: KIFKEQ_clean_linker_1, # of connection points: 2
#     Edge 15, Type (0, 1), BuildingBlock: KIFKEQ_clean_linker_1, # of connection points: 2
#     Edge 16, Type (0, 1), BuildingBlock: KIFKEQ_clean_linker_1, # of connection points: 2
#     Edge 17, Type (0, 1), BuildingBlock: KIFKEQ_clean_linker_1, # of connection points: 2
#     Edge 18, Type (0, 1), BuildingBlock: KIFKEQ_clean_linker_1, # of connection points: 2
#     Edge 19, Type (0, 1), BuildingBlock: KIFKEQ_clean_linker_1, # of connection points: 2
#     Edge 20, Type (0, 1), BuildingBlock: KIFKEQ_clean_linker_1, # of connection points: 2
#     Edge 21, Type (0, 1), BuildingBlock: KIFKEQ_clean_linker_1, # of connection points: 2
#     Edge 22, Type (0, 1), BuildingBlock: KIFKEQ_clean_linker_1, # of connection points: 2
#     Edge 23, Type (0, 1), BuildingBlock: KIFKEQ_clean_linker_1, # of connection points: 2
#     Edge 24, Type (0, 1), BuildingBlock: KIFKEQ_clean_linker_1, # of connection points: 2
#     Edge 25, Type (0, 1), BuildingBlock: KIFKEQ_clean_linker_1, # of connection points: 2
#     Edge 26, Type (0, 1), BuildingBlock: KIFKEQ_clean_linker_1, # of connection points: 2
#     Edge 27, Type (0, 1), BuildingBlock: KIFKEQ_clean_linker_1, # of connection points: 2
#     Edge 28, Type (0, 1), BuildingBlock: KIFKEQ_clean_linker_1, # of connection points: 2
#     Edge 29, Type (0, 1), BuildingBlock: KIFKEQ_clean_linker_1, # of connection points: 2
#     Edge 30, Type (0, 1), BuildingBlock: KIFKEQ_clean_linker_1, # of connection points: 2
#     Edge 31, Type (0, 1), BuildingBlock: KIFKEQ_clean_linker_1, # of connection points: 2
#     Edge 32, Type (0, 1), BuildingBlock: KIFKEQ_clean_linker_1, # of connection points: 2
#     Edge 33, Type (0, 1), BuildingBlock: KIFKEQ_clean_linker_1, # of connection points: 2
#     Edge 34, Type (0, 1), BuildingBlock: KIFKEQ_clean_linker_1, # of connection points: 2
#     Edge 35, Type (0, 1), BuildingBlock: KIFKEQ_clean_linker_1, # of connection points: 2
# Relax obj value: 0.065
# Max RMSD: 0.101
# Mean RMSD: 0.035
data_MOF--net-pry--node1-JUFBIX_clean_sbu_0--node2-ESEHIV_clean_linker_0--edge1-KIFKEQ_clean_linker_1
_symmetry_space_group_name_H-M    P1
_symmetry_Int_Tables_number       1
_symmetry_cell_setting            triclinic
loop_
_symmetry_equiv_pos_as_xyz
'x, y, z'
_cell_length_a     35.916494
_cell_length_b     34.06964
_cell_length_c     35.968977
_cell_angle_alpha  82.89136
_cell_angle_beta   89.537142
_cell_angle_gamma 91.581804
loop_
_atom_site_label
_atom_site_type_symbol
_atom_site_fract_x
_atom_site_fract_y
_atom_site_fract_z
_atom_type_partial_charge
H0 H 0.1522 0.20549 0.20909 0.0
H1 H 0.23422 0.11543 0.21269 0.0
H2 H 0.23781 0.21399 0.12466 0.0
C3 C 0.17656 0.19332 0.19739 0.0
C4 C 0.1927 0.2133 0.1644 0.0
C5 C 0.19103 0.15793 0.21525 0.0
C6 C 0.22331 0.14306 0.19974 0.0
C7 C 0.24074 0.16281 0.16684 0.0
C8 C 0.22478 0.19788 0.14942 0.0
H9 H 0.3682 0.87993 0.69979 0.0
H10 H 0.47294 0.82919 0.67764 0.0
H11 H 0.37288 0.79242 0.62417 0.0
C12 C 0.38401 0.85917 0.68593 0.0
C13 C 0.36608 0.83644 0.66126 0.0
C14 C 0.42229 0.8563 0.69237 0.0
C15 C 0.44326 0.83122 0.67287 0.0
C16 C 0.42566 0.80823 0.64784 0.0
C17 C 0.387 0.8109 0.64243 0.0
H18 H 0.73631 0.33686 0.91214 0.0
H19 H 0.74028 0.43051 0.81997 0.0
H20 H 0.65028 0.34382 0.82924 0.0
C21 C 0.72453 0.35104 0.88643 0.0
C22 C 0.69082 0.33621 0.87328 0.0
C23 C 0.74256 0.38505 0.86751 0.0
C24 C 0.72663 0.40426 0.83468 0.0
C25 C 0.69304 0.38962 0.82092 0.0
C26 C 0.67557 0.35567 0.84039 0.0
H27 H 0.93968 0.667 0.49492 0.0
H28 H 1.00742 0.65972 0.39702 0.0
H29 H 0.92149 0.57136 0.42971 0.0
C30 C 0.94838 0.65079 0.47238 0.0
C31 C 0.92763 0.61708 0.46541 0.0
C32 C 0.9778 0.66593 0.44831 0.0
C33 C 0.9864 0.64673 0.41696 0.0
C34 C 0.96597 0.61267 0.4098 0.0
C35 C 0.93791 0.5971 0.43534 0.0
H36 H 0.81153 0.91872 0.82555 0.0
H37 H 0.90052 0.83597 0.8354 0.0
H38 H 0.81741 0.83135 0.92252 0.0
C39 C 0.82564 0.89428 0.84103 0.0
C40 C 0.81064 0.87699 0.87594 0.0
C41 C 0.8578 0.87919 0.82554 0.0
C42 C 0.87542 0.84732 0.84644 0.0
C43 C 0.86128 0.82962 0.88132 0.0
C44 C 0.82847 0.84438 0.89554 0.0
H45 H 0.56292 0.16102 0.39396 0.0
H46 H 0.63334 0.06457 0.43106 0.0
H47 H 0.62487 0.16192 0.49571 0.0
C48 C 0.58071 0.14615 0.41516 0.0
C49 C 0.59092 0.16489 0.44633 0.0
C50 C 0.59568 0.10965 0.40992 0.0
C51 C 0.6203 0.09168 0.4364 0.0
C52 C 0.63137 0.11049 0.46721 0.0
C53 C 0.61563 0.14657 0.47262 0.0
H54 H 0.32091 0.70686 0.13334 0.0
H55 H 0.31704 0.6059 0.2188 0.0
H56 H 0.40688 0.69234 0.21556 0.0
C57 C 0.33291 0.68958 0.15737 0.0
C58 C 0.36612 0.7035 0.17222 0.0
C59 C 0.31469 0.6543 0.17367 0.0
C60 C 0.33013 0.63339 0.20608 0.0
C61 C 0.3635 0.64691 0.22126 0.0
C62 C 0.38113 0.68193 0.20409 0.0
H63 H 0.0375 0.36246 0.65058 0.0
H64 H 0.11604 0.35203 0.56152 0.0
H65 H 0.1337 0.44106 0.63432 0.0
C66 C 0.06226 0.37314 0.63463 0.0
C67 C 0.08356 0.40499 0.64548 0.0
C68 C 0.07345 0.3542 0.60394 0.0
C69 C 0.10612 0.36762 0.58403 0.0
C70 C 0.12771 0.39915 0.5947 0.0
C71 C 0.11589 0.41813 0.6249 0.0
Co72 Co 0.99526 0.0194 0.504 0.0
C73 C 0.02336 0.94467 0.49927 0.0
Co74 Co 0.04842 0.00889 0.53238 0.0
C75 C 0.91861 0.03724 0.49691 0.0
C76 C 0.93981 0.01683 0.44715 0.0
N77 N 0.95002 0.02601 0.48107 0.0
N78 N 0.88893 0.03487 0.47459 0.0
C79 C 0.90215 0.02223 0.44308 0.0
H80 H 0.91728 0.04527 0.52507 0.0
H81 H 0.95829 1.00569 0.42725 0.0
C82 C 1.02001 0.08346 0.53729 0.0
N83 N 0.09343 1.00224 0.55584 0.0
C84 C 0.10717 0.96835 0.57288 0.0
C85 C 0.1199 0.03031 0.55957 0.0
N86 N 0.1411 0.97419 0.58716 0.0
C87 C 0.14924 0.01312 0.579 0.0
C88 C 0.05616 0.04124 0.45685 0.0
O89 O 0.99433 0.07204 0.51672 0.0
O90 O 0.0459 0.06006 0.54749 0.0
O91 O 0.07391 0.03068 0.48675 0.0
O92 O 1.02073 0.03842 0.4578 0.0
O93 O 0.05045 0.95745 0.51723 0.0
H94 H 0.11824 0.06118 0.54839 0.0
H95 H 0.09266 0.93989 0.57475 0.0
O96 O 0.99609 0.96697 0.49116 0.0
O97 O 0.97006 1.00018 0.55064 0.0
O98 O 0.02321 0.98716 0.57794 0.0
C99 C 0.98784 0.98704 0.57977 0.0
H100 H 0.88577 0.01678 0.41902 0.0
H101 H 0.1751 0.02778 0.58545 0.0
Co102 Co 0.51344 0.01956 0.99923 0.0
C103 C 0.50016 0.95417 0.05227 0.0
Co104 Co 0.54507 0.02227 0.05089 0.0
C105 C 0.49982 0.01566 0.92114 0.0
C106 C 0.4492 0.01573 0.95294 0.0
N107 N 0.48657 0.01786 0.95599 0.0
N108 N 0.47224 0.01176 0.89657 0.0
C109 C 0.44032 0.01207 0.91647 0.0
H110 H 0.52916 0.01548 0.91413 0.0
H111 H 0.42963 0.01492 0.97605 0.0
C112 C 0.55831 0.08755 0.99788 0.0
N113 N 0.57201 0.02411 0.0941 0.0
C114 C 0.55868 0.02457 0.12919 0.0
C115 C 0.60941 0.02626 0.0973 0.0
N116 N 0.58623 0.02688 0.15405 0.0
C117 C 0.61823 0.02776 0.13422 0.0
C118 C 0.58384 0.98635 0.99634 0.0
O119 O 0.53527 0.06934 0.97895 0.0
O120 O 0.56625 0.07231 0.03081 0.0
O121 O 0.58582 0.9966 0.0291 0.0
O122 O 0.55391 0.99274 0.97823 0.0
O123 O 0.52382 0.97195 0.07089 0.0
H124 H 0.62905 0.0276 0.0742 0.0
H125 H 0.52933 0.02353 0.13645 0.0
O126 O 0.49161 0.96987 1.01965 0.0
O127 O 0.47326 0.04598 0.02045 0.0
O128 O 0.5039 0.04823 0.07231 0.0
C129 C 0.47442 0.05533 0.05354 0.0
H130 H 0.41261 1.0071 0.90605 0.0
H131 H 0.6459 0.03094 0.14539 0.0
Co132 Co 0.55456 0.51951 0.50517 0.0
C133 C 0.49378 0.52981 0.457 0.0
Co134 Co 0.50178 0.49353 0.53001 0.0
C135 C 0.63335 0.53638 0.4932 0.0
C136 C 0.5994 0.58218 0.46657 0.0
N137 N 0.59761 0.54542 0.48556 0.0
N138 N 0.65709 0.56644 0.48046 0.0
C139 C 0.63596 0.59528 0.46365 0.0
H140 H 0.6416 0.50967 0.51027 0.0
H141 H 0.57548 0.59943 0.45776 0.0
C142 C 0.56258 0.48387 0.57834 0.0
N143 N 0.45904 0.4674 0.54994 0.0
C144 C 0.42306 0.47694 0.54459 0.0
C145 C 0.45777 0.43053 0.56873 0.0
N146 N 0.39966 0.44709 0.55871 0.0
C147 C 0.42128 0.41787 0.57391 0.0
C148 C 0.54408 0.44326 0.49172 0.0
O149 O 0.58005 0.50227 0.55035 0.0
O150 O 0.52782 0.47675 0.57554 0.0
O151 O 0.51489 0.44749 0.51062 0.0
O152 O 0.56745 0.47211 0.48516 0.0
O153 O 0.47622 0.5105 0.48455 0.0
H154 H 0.48191 0.41314 0.57639 0.0
H155 H 0.41425 0.50412 0.52871 0.0
O156 O 0.52851 0.53693 0.46006 0.0
O157 O 0.54138 0.56627 0.52546 0.0
O158 O 0.48856 0.53992 0.54913 0.0
C159 C 0.51131 0.56927 0.54358 0.0
H160 H 0.64613 0.62437 0.45171 0.0
H161 H 0.41133 0.38904 0.58678 0.0
Co162 Co 0.04193 0.52153 0.99586 0.0
C163 C 0.97112 0.48604 0.9934 0.0
Co164 Co 1.0101 0.52021 0.0487 0.0
C165 C 0.06437 0.49801 0.92517 0.0
C166 C 0.08963 0.5535 0.9345 0.0
N167 N 0.06781 0.52338 0.95099 0.0
N168 N 0.08247 0.51143 0.89283 0.0
C169 C 0.09871 0.54623 0.89881 0.0
H170 H 0.0477 0.47089 0.92962 0.0
H171 H 0.09668 0.58009 0.94682 0.0
C172 C 0.08123 0.55548 0.05078 0.0
N173 N 0.98313 0.51965 0.09307 0.0
C174 C 0.9955 0.52458 0.12765 0.0
C175 C 0.94567 0.52019 0.09601 0.0
N176 N 0.96726 0.52889 0.15165 0.0
C177 C 0.93587 0.52576 0.13188 0.0
C178 C 0.0548 0.45443 0.04642 0.0
O179 O 0.08298 0.54721 1.01731 0.0
O180 O 0.0512 0.54731 0.06946 0.0
O181 O 0.03165 0.47047 0.06656 0.0
O182 O 0.06271 0.47142 1.0136 0.0
O183 O 0.96943 0.49323 0.02719 0.0
H184 H 0.92658 0.51891 0.07309 0.0
H185 H 0.02464 0.52756 0.13454 0.0
O186 O 1.00076 0.49558 0.97464 0.0
O187 O 1.02092 0.57185 0.97851 0.0
O188 O 0.98878 0.56975 0.03067 0.0
C189 C 0.99726 0.58739 0.99836 0.0
H190 H 0.11416 0.56627 0.8782 0.0
H191 H 0.90785 0.52886 0.1422 0.0
H192 H 0.22206 0.1164 0.27811 0.0
H193 H 0.11586 0.15132 0.23136 0.0
H194 H 0.19047 0.08553 0.335 0.0
H195 H 0.08484 0.12389 0.28891 0.0
H196 H 0.03032 0.04593 0.38507 0.0
H197 H 0.06333 0.06955 0.32697 0.0
H198 H 0.16086 0.09617 0.39008 0.0
H199 H 0.12822 0.0702 0.44799 0.0
C200 C 0.19202 0.11756 0.2798 0.0
C201 C 0.17183 0.13698 0.24986 0.0
C202 C 0.17379 0.10033 0.31289 0.0
C203 C 0.13478 0.1022 0.31729 0.0
C204 C 0.1147 0.12104 0.287 0.0
C205 C 0.13278 0.13765 0.25387 0.0
C206 C 0.05885 0.05678 0.38652 0.0
C207 C 0.07649 0.05625 0.42131 0.0
C208 C 0.07789 0.07069 0.35304 0.0
C209 C 0.11504 0.08537 0.35322 0.0
C210 C 0.13264 0.08466 0.38824 0.0
C211 C 0.11376 0.07002 0.42169 0.0
H212 H 0.4852 0.90463 0.68504 0.0
H213 H 0.39703 0.8599 0.7626 0.0
H214 H 0.50628 0.95028 0.72932 0.0
H215 H 0.41743 0.9056 0.80574 0.0
H216 H 0.42461 0.02733 0.83954 0.0
H217 H 0.42084 0.99253 0.7842 0.0
H218 H 0.52333 0.93452 0.8147 0.0
H219 H 0.527 0.96874 0.87047 0.0
C220 C 0.47084 0.90413 0.7117 0.0
C221 C 0.43922 0.87931 0.72034 0.0
C222 C 0.4827 0.93026 0.7367 0.0
C223 C 0.46282 0.93165 0.77021 0.0
C224 C 0.43263 0.90533 0.77962 0.0
C225 C 0.42106 0.87926 0.75503 0.0
C226 C 0.44686 0.00802 0.83387 0.0
C227 C 0.47558 1.00007 0.85969 0.0
C228 C 0.44488 0.98846 0.80215 0.0
C229 C 0.47175 0.96094 0.79568 0.0
C230 C 0.50258 0.956 0.81917 0.0
C231 C 0.50456 0.97557 0.85105 0.0
H232 H 0.62096 0.41121 0.81124 0.0
H233 H 0.72565 0.41065 0.75182 0.0
H234 H 0.5903 0.43596 0.75325 0.0
H235 H 0.69486 0.43411 0.69315 0.0
H236 H 0.63337 0.5051 0.59745 0.0
H237 H 0.66547 0.48609 0.65611 0.0
H238 H 0.56936 0.41421 0.69765 0.0
H239 H 0.53688 0.43456 0.63963 0.0
C240 C 0.63743 0.41649 0.78565 0.0
C241 C 0.67569 0.40886 0.78607 0.0
C242 C 0.61979 0.43035 0.75224 0.0
C243 C 0.6398 0.43654 0.71808 0.0
C244 C 0.67844 0.43009 0.71878 0.0
C245 C 0.6962 0.41662 0.75241 0.0
C246 C 0.61908 0.48526 0.61916 0.0
C247 C 0.58244 0.47147 0.61382 0.0
C248 C 0.63761 0.47415 0.65283 0.0
C249 C 0.62015 0.44865 0.68201 0.0
C250 C 0.58359 0.43457 0.67636 0.0
C251 C 0.56495 0.44599 0.64286 0.0
H252 H 0.90929 0.58878 0.36726 0.0
H253 H 0.02929 0.60308 0.36798 0.0
H254 H 0.91251 0.56633 0.3064 0.0
H255 H 0.03224 0.58271 0.30494 0.0
H256 H 1.01912 0.50759 0.20424 0.0
H257 H 0.02173 0.52664 0.26786 0.0
H258 H 0.92492 0.59781 0.24456 0.0
H259 H 0.92202 0.57821 0.18211 0.0
C260 C 0.93655 0.58663 0.35471 0.0
C261 C 0.96912 0.5973 0.37295 0.0
C262 C 0.93829 0.57442 0.3193 0.0
C263 C 0.97257 0.57327 0.30051 0.0
C264 C 1.0054 0.58317 0.31877 0.0
C265 C 1.00368 0.59516 0.35468 0.0
C266 C 0.99855 0.52734 0.21293 0.0
C267 C 0.9699 0.54075 0.18858 0.0
C268 C 1.0001 0.53836 0.24919 0.0
C269 C 0.97315 0.56319 0.26149 0.0
C270 C 0.94546 0.57768 0.23645 0.0
C271 C 0.94373 0.56642 0.20061 0.0
H272 H 0.29904 0.12365 0.20377 0.0
H273 H 0.26181 0.16567 0.0924 0.0
H274 H 0.35448 0.09784 0.17716 0.0
H275 H 0.31829 0.14257 0.06608 0.0
H276 H 0.40454 0.06331 0.02418 0.0
H277 H 0.34922 0.08785 0.05172 0.0
H278 H 0.41283 0.11177 0.14831 0.0
H279 H 0.46802 0.08538 0.12116 0.0
C280 C 0.30249 0.12749 0.1736 0.0
C281 C 0.27537 0.14695 0.1505 0.0
C282 C 0.33486 0.11314 0.15824 0.0
C283 C 0.34147 0.11791 0.1192 0.0
C284 C 0.3144 0.13753 0.09617 0.0
C285 C 0.28195 0.15152 0.11148 0.0
C286 C 0.40688 0.07391 0.05126 0.0
C287 C 0.44104 0.07238 0.07026 0.0
C288 C 0.37496 0.08835 0.06711 0.0
C289 C 0.37601 0.10226 0.10245 0.0
C290 C 0.41035 0.10093 0.12138 0.0
C291 C 0.44229 0.08606 0.10562 0.0
H292 H 0.31038 0.84192 0.71238 0.0
H293 H 0.3312 0.84262 0.59378 0.0
H294 H 0.24771 0.86552 0.69909 0.0
H295 H 0.26839 0.86537 0.58069 0.0
H296 H 0.14945 0.90085 0.56785 0.0
H297 H 0.19756 0.8544 0.59044 0.0
H298 H 0.23576 0.93508 0.66662 0.0
H299 H 0.18787 0.98126 0.64397 0.0
C300 C 0.30126 0.84629 0.68356 0.0
C301 C 0.3259 0.84139 0.65402 0.0
C302 C 0.26542 0.85952 0.67604 0.0
C303 C 0.25355 0.86765 0.63891 0.0
C304 C 0.27684 0.85904 0.60961 0.0
C305 C 0.31282 0.84608 0.6171 0.0
C306 C 0.16759 0.90803 0.59009 0.0
C307 C 0.16542 0.94464 0.60403 0.0
C308 C 0.19507 0.88161 0.60286 0.0
C309 C 0.22022 0.89123 0.63021 0.0
C310 C 0.21641 0.92674 0.64581 0.0
C311 C 0.18938 0.95333 0.63264 0.0
H312 H 0.80631 0.3454 0.88513 0.0
H313 H 0.75725 0.45945 0.88577 0.0
H314 H 0.86226 0.36938 0.91495 0.0
H315 H 0.8129 0.4832 0.91643 0.0
H316 H 0.89792 0.48607 1.01512 0.0
H317 H 0.84345 0.46267 0.98278 0.0
H318 H 0.91531 0.4247 0.89827 0.0
H319 H 0.96985 0.44896 0.93004 0.0
C320 C 0.80764 0.37566 0.89149 0.0
C321 C 0.77752 0.40062 0.88303 0.0
C322 C 0.83964 0.38938 0.90847 0.0
C323 C 0.84187 0.42809 0.91818 0.0
C324 C 0.81184 0.45315 0.90948 0.0
C325 C 0.78017 0.43969 0.89171 0.0
C326 C 0.90215 0.47252 0.98978 0.0
C327 C 0.93827 0.46928 0.97524 0.0
C328 C 0.87093 0.45942 0.97111 0.0
C329 C 0.87512 0.44201 0.93792 0.0
C330 C 0.91125 0.43792 0.92383 0.0
C331 C 0.94244 0.45182 0.94203 0.0
H332 H 0.89732 0.54502 0.4953 0.0
H333 H 0.87328 0.66903 0.47265 0.0
H334 H 0.83142 0.52962 0.5094 0.0
H335 H 0.80793 0.654 0.48483 0.0
H336 H 0.69076 0.62455 0.51268 0.0
H337 H 0.75738 0.63373 0.52252 0.0
H338 H 0.77746 0.52596 0.47406 0.0
H339 H 0.71035 0.51593 0.46698 0.0
C340 C 0.87803 0.56901 0.49419 0.0
C341 C 0.8904 0.6082 0.48298 0.0
C342 C 0.84022 0.56023 0.5018 0.0
C343 C 0.81399 0.59042 0.49772 0.0
C344 C 0.82703 0.62986 0.48893 0.0
C345 C 0.86474 0.63862 0.48192 0.0
C346 C 0.70965 0.60274 0.50468 0.0
C347 C 0.69592 0.56991 0.48859 0.0
C348 C 0.74779 0.60796 0.51011 0.0
C349 C 0.77317 0.58103 0.49848 0.0
C350 C 0.75899 0.54716 0.48383 0.0
C351 C 0.72063 0.54148 0.47935 0.0
H352 H 0.16682 0.27608 0.19695 0.0
H353 H 0.17864 0.23362 0.08947 0.0
H354 H 0.13398 0.33321 0.16773 0.0
H355 H 0.14507 0.29058 0.06006 0.0
H356 H 0.11152 0.4171 1.01442 0.0
H357 H 0.14614 0.36021 0.04184 0.0
H358 H 0.07616 0.3513 0.14097 0.0
H359 H 0.04241 0.40882 0.114 0.0
C360 C 0.16228 0.27886 0.16702 0.0
C361 C 0.17525 0.24999 0.14567 0.0
C362 C 0.14318 0.31163 0.1502 0.0
C363 C 0.13621 0.31659 0.11143 0.0
C364 C 0.15005 0.28819 0.08989 0.0
C365 C 0.16938 0.25542 0.10675 0.0
C366 C 0.10337 0.40288 0.042 0.0
C367 C 0.07412 0.41777 0.06195 0.0
C368 C 0.12321 0.37003 0.05774 0.0
C369 C 0.11435 0.35099 0.0939 0.0
C370 C 0.08451 0.36547 0.11344 0.0
C371 C 0.06481 0.39838 0.09778 0.0
H372 H 0.61566 0.32296 0.88468 0.0
H373 H 0.72156 0.26852 0.90837 0.0
H374 H 0.58346 0.26371 0.91544 0.0
H375 H 0.68916 0.20958 0.94 0.0
H376 H 0.61718 0.1272 0.02551 0.0
H377 H 0.64912 0.18782 0.99679 0.0
H378 H 0.57355 0.19343 0.90366 0.0
H379 H 0.54156 0.13289 0.93229 0.0
C380 C 0.63213 0.29833 0.89625 0.0
C381 C 0.6713 0.30054 0.89369 0.0
C382 C 0.61361 0.26439 0.914 0.0
C383 C 0.63374 0.2319 0.93003 0.0
C384 C 0.67287 0.2343 0.92824 0.0
C385 C 0.69144 0.26815 0.91017 0.0
C386 C 0.60723 0.14147 0.999 0.0
C387 C 0.57676 0.12521 0.98122 0.0
C388 C 0.62571 0.17605 0.98245 0.0
C389 C 0.61389 0.1954 0.94795 0.0
C390 C 0.58311 0.17943 0.93043 0.0
C391 C 0.56488 0.14464 0.94678 0.0
H392 H 1.00381 0.69149 0.51262 0.0
H393 H 0.98891 0.72936 0.39475 0.0
H394 H 1.02072 0.75941 0.52238 0.0
H395 H 1.00645 0.79704 0.40437 0.0
H396 H 0.97548 0.91307 0.45187 0.0
H397 H 0.97196 0.84529 0.43704 0.0
H398 H 0.0665 0.81636 0.50764 0.0
H399 H 0.07005 0.88448 0.5227 0.0
C400 C 1.00497 0.7142 0.48869 0.0
C401 C 0.9949 0.70515 0.45298 0.0
C402 C 1.01485 0.75302 0.49422 0.0
C403 C 1.01455 0.7836 0.46419 0.0
C404 C 1.00651 0.77413 0.42811 0.0
C405 C 0.99688 0.73529 0.42253 0.0
C406 C 0.99573 0.89239 0.46404 0.0
C407 C 0.02291 0.90409 0.48862 0.0
C408 C 0.9939 0.85361 0.45528 0.0
C409 C 1.01903 0.82552 0.4711 0.0
C410 C 0.04667 0.83734 0.49518 0.0
C411 C 0.04874 0.87634 0.50369 0.0
H412 H 0.47983 0.75881 0.67706 0.0
H413 H 0.41853 0.79253 0.57562 0.0
H414 H 0.50592 0.70373 0.64882 0.0
H415 H 0.44338 0.73639 0.54841 0.0
H416 H 0.44298 0.59511 0.55973 0.0
H417 H 0.42825 0.65798 0.58172 0.0
H418 H 0.54522 0.69052 0.58148 0.0
H419 H 0.5602 0.62785 0.55844 0.0
C420 C 0.47265 0.75512 0.64849 0.0
C421 C 0.44663 0.77957 0.62877 0.0
C422 C 0.48748 0.72357 0.63248 0.0
C423 C 0.47614 0.71595 0.59681 0.0
C424 C 0.45211 0.74175 0.57616 0.0
C425 C 0.43779 0.77358 0.59184 0.0
C426 C 0.46554 0.61566 0.56433 0.0
C427 C 0.50267 0.60678 0.55743 0.0
C428 C 0.45711 0.65158 0.57664 0.0
C429 C 0.4857 0.67876 0.58291 0.0
C430 C 0.52288 0.66981 0.57661 0.0
C431 C 0.53132 0.63417 0.56347 0.0
H432 H 0.8602 0.95708 0.7917 0.0
H433 H 0.89099 0.83943 0.77245 0.0
H434 H 0.8898 0.9838 0.73188 0.0
H435 H 0.922 0.86652 0.71423 0.0
H436 H 1.01349 0.93838 0.63991 0.0
H437 H 0.98019 0.91335 0.69804 0.0
H438 H 0.88334 0.97768 0.65912 0.0
H439 H 0.91635 1.00209 0.60044 0.0
C440 C 0.87294 0.9368 0.77485 0.0
C441 C 0.87354 0.89599 0.78771 0.0
C442 C 0.89011 0.95222 0.74058 0.0
C443 C 0.90877 0.92735 0.71856 0.0
C444 C 0.90856 0.8866 0.73086 0.0
C445 C 0.89087 0.87113 0.76456 0.0
C446 C 0.9851 0.94721 0.64368 0.0
C447 C 0.96761 0.97215 0.61537 0.0
C448 C 0.96597 0.93276 0.67696 0.0
C449 C 0.92909 0.94352 0.68324 0.0
C450 C 0.91177 0.96901 0.65525 0.0
C451 C 0.93064 0.9828 0.62155 0.0
H452 H 0.65037 0.09047 0.36419 0.0
H453 H 0.53073 0.09366 0.37445 0.0
H454 H 0.64446 0.06581 0.30412 0.0
H455 H 0.5244 0.06735 0.31425 0.0
H456 H 0.53546 0.07054 0.18462 0.0
H457 H 0.5345 0.08683 0.24879 0.0
H458 H 0.62699 0.00995 0.27528 0.0
H459 H 0.62874 0.99538 0.21059 0.0
C460 C 0.62271 0.08506 0.35378 0.0
C461 C 0.59097 0.09346 0.37401 0.0
C462 C 0.61926 0.07069 0.31942 0.0
C463 C 0.58393 0.06398 0.30453 0.0
C464 C 0.55203 0.07238 0.32485 0.0
C465 C 0.55556 0.08728 0.35925 0.0
C466 C 0.55512 0.05674 0.20446 0.0
C467 C 0.58249 0.03214 0.19281 0.0
C468 C 0.55452 0.06591 0.24123 0.0
C469 C 0.58102 0.05016 0.26709 0.0
C470 C 0.60684 0.02348 0.25583 0.0
C471 C 0.60782 0.01494 0.21894 0.0
H472 H 0.43536 0.62391 0.22875 0.0
H473 H 0.33101 0.62017 0.28935 0.0
H474 H 0.46583 0.59298 0.28462 0.0
H475 H 0.36168 0.59054 0.34612 0.0
H476 H 0.42266 0.51091 0.43639 0.0
H477 H 0.39047 0.5354 0.37898 0.0
H478 H 0.48746 0.60829 0.34213 0.0
H479 H 0.51991 0.58254 0.39856 0.0
C480 C 0.41895 0.61646 0.25417 0.0
C481 C 0.38084 0.62468 0.25471 0.0
C482 C 0.43648 0.59898 0.28641 0.0
C483 C 0.41654 0.58969 0.32039 0.0
C484 C 0.37803 0.59685 0.32056 0.0
C485 C 0.36037 0.61392 0.28804 0.0
C486 C 0.43713 0.53202 0.41589 0.0
C487 C 0.47398 0.54455 0.42205 0.0
C488 C 0.41856 0.54632 0.38299 0.0
C489 C 0.43622 0.57383 0.3555 0.0
C490 C 0.47304 0.58649 0.36199 0.0
C491 C 0.49169 0.5719 0.39462 0.0
H492 H 0.0626 0.36463 0.71329 0.0
H493 H 0.08712 0.48256 0.65799 0.0
H494 H 0.0596 0.3905 0.7735 0.0
H495 H 0.08465 0.50825 0.71832 0.0
H496 H 0.13131 0.52475 0.83447 0.0
H497 H 0.12646 0.50006 0.77397 0.0
H498 H 0.02484 0.43571 0.81069 0.0
H499 H 0.02912 0.46093 0.87098 0.0
C500 C 0.06641 0.3962 0.71383 0.0
C501 C 0.07534 0.42153 0.68088 0.0
C502 C 0.06489 0.41096 0.74837 0.0
C503 C 0.07247 0.45127 0.75063 0.0
C504 C 0.07945 0.4769 0.71748 0.0
C505 C 0.08074 0.46222 0.68296 0.0
C506 C 0.10776 0.50562 0.82965 0.0
C507 C 0.08064 0.49498 0.85776 0.0
C508 C 0.10495 0.49152 0.79493 0.0
C509 C 0.07508 0.46624 0.78753 0.0
C510 C 0.04828 0.45498 0.81572 0.0
C511 C 0.05092 0.46931 0.85039 0.0
H512 H 0.74635 0.83671 0.90141 0.0
H513 H 0.79784 0.9535 0.88782 0.0
H514 H 0.69114 0.86265 0.92967 0.0
H515 H 0.74308 0.97923 0.91708 0.0
H516 H 0.65742 0.9919 1.01531 0.0
H517 H 0.71143 0.96615 0.98517 0.0
H518 H 0.63878 0.91523 0.90797 0.0
H519 H 0.58468 0.94207 0.93733 0.0
C520 C 0.74588 0.86792 0.9045 0.0
C521 C 0.77652 0.89304 0.89227 0.0
C522 C 0.7142 0.8828 0.92056 0.0
C523 C 0.71269 0.92301 0.92575 0.0
C524 C 0.7434 0.94809 0.91367 0.0
C525 C 0.77468 0.93341 0.89672 0.0
C526 C 0.65286 0.97513 0.99198 0.0
C527 C 0.61656 0.96901 0.97889 0.0
C528 C 0.6839 0.96057 0.97456 0.0
C529 C 0.67949 0.93864 0.94412 0.0
C530 C 0.64316 0.93187 0.93143 0.0
C531 C 0.61216 0.9473 0.94825 0.0
H532 H 0.69074 0.15577 0.48448 0.0
H533 H 0.64917 0.03463 0.49447 0.0
H534 H 0.75297 0.13308 0.49801 0.0
H535 H 0.71209 0.01174 0.50801 0.0
H536 H 0.82714 1.0011 0.44817 0.0
H537 H 0.76281 0.01564 0.46113 0.0
H538 H 0.79983 0.09761 0.53664 0.0
H539 H 0.8644 0.08414 0.52251 0.0
C540 C 0.69453 0.12428 0.49132 0.0
C541 C 0.66516 0.09693 0.48775 0.0
C542 C 0.73039 0.11123 0.49898 0.0
C543 C 0.73752 0.07062 0.50318 0.0
C544 C 0.70743 0.04325 0.50402 0.0
C545 C 0.67147 0.05632 0.49643 0.0
C546 C 0.82159 0.02225 0.46748 0.0
C547 C 0.85087 0.04189 0.48385 0.0
C548 C 0.78469 0.03 0.47553 0.0
C549 C 0.77627 0.05762 0.50012 0.0
C550 C 0.80551 0.07623 0.51755 0.0
C551 C 0.84246 0.06843 0.50951 0.0
H552 H 0.25256 0.61555 0.20828 0.0
H553 H 0.29808 0.65881 0.09883 0.0
H554 H 0.19673 0.59165 0.17908 0.0
H555 H 0.24147 0.63791 0.07003 0.0
H556 H 0.15277 0.56137 0.02393 0.0
H557 H 0.20833 0.58351 0.05418 0.0
H558 H 0.14128 0.6096 0.14795 0.0
H559 H 0.08574 0.58547 0.1182 0.0
C560 C 0.25077 0.62008 0.17803 0.0
C561 C 0.28011 0.63938 0.15612 0.0
C562 C 0.21835 0.60687 0.16122 0.0
C563 C 0.21416 0.61278 0.12199 0.0
C564 C 0.24354 0.63211 0.1002 0.0
C565 C 0.27602 0.64484 0.11692 0.0
C566 C 0.14978 0.57204 0.05091 0.0
C567 C 0.11466 0.57176 0.06849 0.0
C568 C 0.18179 0.585 0.06832 0.0
C569 C 0.17968 0.59868 0.10367 0.0
C570 C 0.14436 0.59878 0.12108 0.0
C571 C 0.11234 0.58529 0.10382 0.0
H572 H 0.18203 0.34701 0.58765 0.0
H573 H 0.15898 0.4714 0.56784 0.0
H574 H 0.24711 0.36151 0.57225 0.0
H575 H 0.22429 0.48628 0.55039 0.0
H576 H 0.34979 0.49842 0.57846 0.0
H577 H 0.28199 0.48901 0.57977 0.0
H578 H 0.29334 0.38133 0.52863 0.0
H579 H 0.36092 0.38992 0.53003 0.0
C580 C 0.19078 0.37743 0.57869 0.0
C581 C 0.16555 0.40808 0.57881 0.0
C582 C 0.2282 0.38586 0.56971 0.0
C583 C 0.24126 0.42518 0.56006 0.0
C584 C 0.21547 0.45573 0.55835 0.0
C585 C 0.17803 0.44727 0.56798 0.0
C586 C 0.33741 0.4731 0.56723 0.0
C587 C 0.36008 0.44454 0.55471 0.0
C588 C 0.29864 0.46772 0.56766 0.0
C589 C 0.28197 0.43402 0.55479 0.0
C590 C 0.30503 0.40697 0.53986 0.0
C591 C 0.34368 0.4119 0.54036 0.0
H592 H 0.83128 0.76145 0.92123 0.0
H593 H 0.93671 0.82052 0.88918 0.0
H594 H 0.86429 0.70424 0.95108 0.0
H595 H 0.96946 0.76331 0.91836 0.0
H596 H 1.01263 0.63614 0.93311 0.0
H597 H 0.97977 0.69493 0.90719 0.0
H598 H 0.90576 0.68135 1.00337 0.0
H599 H 0.9385 0.62237 0.02925 0.0
C600 C 0.86145 0.76252 0.92088 0.0
C601 C 0.88117 0.79564 0.90228 0.0
C602 C 0.88042 0.72961 0.93796 0.0
C603 C 0.91963 0.72885 0.9368 0.0
C604 C 0.93929 0.76239 0.91914 0.0
C605 C 0.9204 0.79529 0.90232 0.0
C606 C 0.98949 0.64577 0.94888 0.0
C607 C 0.97837 0.62444 0.98336 0.0
C608 C 0.97069 0.67965 0.93407 0.0
C609 C 0.94002 0.69304 0.95314 0.0
C610 C 0.92897 0.67177 0.9877 0.0
C611 C 0.94798 0.63806 1.00268 0.0
H612 H 0.39603 0.76451 0.20623 0.0
H613 H 0.38015 0.72573 0.09755 0.0
H614 H 0.42851 0.82435 0.17698 0.0
H615 H 0.4134 0.7851 0.06818 0.0
H616 H 0.44152 0.91439 0.02442 0.0
H617 H 0.40897 0.85448 0.05319 0.0
H618 H 0.48483 0.84803 0.14629 0.0
H619 H 0.51652 0.90876 0.11807 0.0
C620 C 0.39977 0.76864 0.17607 0.0
C621 C 0.38548 0.74036 0.15423 0.0
C622 C 0.41855 0.80292 0.15925 0.0
C623 C 0.42383 0.8097 0.12011 0.0
C624 C 0.40943 0.78134 0.0983 0.0
C625 C 0.39039 0.7472 0.11512 0.0
C626 C 0.45136 0.90011 0.05097 0.0
C627 C 0.48164 0.91646 0.06893 0.0
C628 C 0.43277 0.86555 0.06743 0.0
C629 C 0.4441 0.84623 0.1022 0.0
C630 C 0.47479 0.86236 0.11986 0.0
C631 C 0.49321 0.89709 0.10352 0.0
H632 H 0.05034 0.29088 0.65342 0.0
H633 H 0.05443 0.33367 0.53526 0.0
H634 H 0.02954 0.22575 0.63898 0.0
H635 H 0.03425 0.26819 0.52079 0.0
H636 H 0.97901 0.14723 0.50967 0.0
H637 H 0.98342 0.21442 0.52743 0.0
H638 H 0.06654 0.17669 0.60929 0.0
H639 H 0.06229 0.11013 0.59171 0.0
C640 C 0.04584 0.28667 0.62442 0.0
C641 C 0.05427 0.31728 0.59543 0.0
C642 C 0.03428 0.24928 0.61615 0.0
C643 C 0.03071 0.2418 0.57876 0.0
C644 C 0.03661 0.27313 0.54987 0.0
C645 C 0.04841 0.31049 0.55813 0.0
C646 C 0.99793 0.1533 0.5317 0.0
C647 C 1.02046 0.12348 0.54914 0.0
C648 C 1.00049 0.1917 0.54177 0.0
C649 C 0.02518 0.20071 0.56985 0.0
C650 C 0.04685 0.17054 0.58795 0.0
C651 C 0.04464 0.13246 0.57762 0.0
H652 H 0.55998 0.19351 0.50621 0.0
H653 H 0.59986 0.22863 0.39311 0.0
H654 H 0.54857 0.26262 0.51315 0.0
H655 H 0.58849 0.29804 0.40006 0.0
H656 H 0.60608 0.41713 0.45733 0.0
H657 H 0.61585 0.3496 0.44244 0.0
H658 H 0.50484 0.31477 0.48283 0.0
H659 H 0.49493 0.38113 0.49749 0.0
C660 C 0.56584 0.21606 0.48276 0.0
C661 C 0.58034 0.20593 0.44905 0.0
C662 C 0.55938 0.25547 0.48667 0.0
C663 C 0.56774 0.28548 0.45709 0.0
C664 C 0.58205 0.27538 0.42326 0.0
C665 C 0.58806 0.23579 0.41917 0.0
C666 C 0.58373 0.39509 0.46256 0.0
C667 C 0.55 0.40433 0.47904 0.0
C668 C 0.58924 0.35663 0.45397 0.0
C669 C 0.56118 0.32709 0.462 0.0
C670 C 0.52708 0.33687 0.47697 0.0
C671 C 0.52151 0.375 0.48529 0.0
loop_
_geom_bond_atom_site_label_1
_geom_bond_atom_site_label_2
_geom_bond_distance
_geom_bond_site_symmetry_2
_ccdc_geom_bond_type
H0 C3 0.931 . S
H1 C6 0.928 . S
H2 C8 0.930 . S
C3 H0 0.931 . S
C3 C4 1.413 . S
C3 C5 1.360 . S
C4 C3 1.413 . S
C4 C8 1.429 . S
C5 C3 1.360 . S
C5 C6 1.372 . S
C6 H1 0.928 . S
C6 C5 1.372 . S
C6 C7 1.404 . S
C7 C6 1.404 . S
C7 C8 1.391 . S
C8 H2 0.930 . S
C8 C4 1.429 . S
C8 C7 1.391 . S
H9 C12 0.931 . S
H10 C15 0.928 . S
H11 C17 0.930 . S
C12 H9 0.931 . S
C12 C13 1.413 . S
C12 C14 1.360 . S
C13 C12 1.413 . S
C13 C17 1.429 . S
C14 C12 1.360 . S
C14 C15 1.372 . S
C15 H10 0.928 . S
C15 C14 1.372 . S
C15 C16 1.404 . S
C16 C15 1.404 . S
C16 C17 1.391 . S
C17 H11 0.930 . S
C17 C13 1.429 . S
C17 C16 1.391 . S
H18 C21 0.931 . S
H19 C24 0.928 . S
H20 C26 0.930 . S
C21 H18 0.931 . S
C21 C22 1.413 . S
C21 C23 1.360 . S
C22 C21 1.413 . S
C22 C26 1.429 . S
C23 C21 1.360 . S
C23 C24 1.372 . S
C24 H19 0.928 . S
C24 C23 1.372 . S
C24 C25 1.404 . S
C25 C24 1.404 . S
C25 C26 1.391 . S
C26 H20 0.930 . S
C26 C22 1.429 . S
C26 C25 1.391 . S
H27 C30 0.931 . S
H28 C33 0.928 . S
H29 C35 0.930 . S
C30 H27 0.931 . S
C30 C31 1.413 . S
C30 C32 1.360 . S
C31 C30 1.413 . S
C31 C35 1.429 . S
C32 C30 1.360 . S
C32 C33 1.372 . S
C33 H28 0.928 . S
C33 C32 1.372 . S
C33 C34 1.404 . S
C34 C33 1.404 . S
C34 C35 1.391 . S
C35 H29 0.930 . S
C35 C31 1.429 . S
C35 C34 1.391 . S
H36 C39 0.931 . S
H37 C42 0.928 . S
H38 C44 0.930 . S
C39 H36 0.931 . S
C39 C40 1.413 . S
C39 C41 1.360 . S
C40 C39 1.413 . S
C40 C44 1.429 . S
C41 C39 1.360 . S
C41 C42 1.372 . S
C42 H37 0.928 . S
C42 C41 1.372 . S
C42 C43 1.404 . S
C43 C42 1.404 . S
C43 C44 1.391 . S
C44 H38 0.930 . S
C44 C40 1.429 . S
C44 C43 1.391 . S
H45 C48 0.931 . S
H46 C51 0.928 . S
H47 C53 0.930 . S
C48 H45 0.931 . S
C48 C49 1.413 . S
C48 C50 1.360 . S
C49 C48 1.413 . S
C49 C53 1.429 . S
C50 C48 1.360 . S
C50 C51 1.372 . S
C51 H46 0.928 . S
C51 C50 1.372 . S
C51 C52 1.404 . S
C52 C51 1.404 . S
C52 C53 1.391 . S
C53 H47 0.930 . S
C53 C49 1.429 . S
C53 C52 1.391 . S
H54 C57 0.931 . S
H55 C60 0.928 . S
H56 C62 0.930 . S
C57 H54 0.931 . S
C57 C58 1.413 . S
C57 C59 1.360 . S
C58 C57 1.413 . S
C58 C62 1.429 . S
C59 C57 1.360 . S
C59 C60 1.372 . S
C60 H55 0.928 . S
C60 C59 1.372 . S
C60 C61 1.404 . S
C61 C60 1.404 . S
C61 C62 1.391 . S
C62 H56 0.930 . S
C62 C58 1.429 . S
C62 C61 1.391 . S
H63 C66 0.931 . S
H64 C69 0.928 . S
H65 C71 0.930 . S
C66 H63 0.931 . S
C66 C67 1.413 . S
C66 C68 1.360 . S
C67 C66 1.413 . S
C67 C71 1.429 . S
C68 C66 1.360 . S
C68 C69 1.372 . S
C69 H64 0.928 . S
C69 C68 1.372 . S
C69 C70 1.404 . S
C70 C69 1.404 . S
C70 C71 1.391 . S
C71 H65 0.930 . S
C71 C67 1.429 . S
C71 C70 1.391 . S
Co72 N77 2.057 . S
Co72 O89 2.021 . S
Co72 O92 2.062 . S
Co72 O96 2.117 1_545 S
Co72 O97 2.020 1_545 S
C73 O93 1.259 1_655 S
C73 O96 1.258 . S
Co74 N83 2.057 . S
Co74 O90 2.117 1_565 S
Co74 O91 2.020 1_565 S
Co74 O93 2.021 . S
Co74 O98 2.062 . S
C75 N77 1.316 . S
C75 N78 1.347 . S
C75 H80 0.931 . S
C76 N77 1.375 1_565 S
C76 C79 1.350 1_565 S
C76 H81 0.930 . S
N77 Co72 2.057 . S
N77 C75 1.316 . S
N77 C76 1.375 1_545 S
N78 C75 1.347 . S
N78 C79 1.373 . S
C79 C76 1.350 1_545 S
C79 N78 1.373 . S
C79 H100 0.931 . S
H80 C75 0.931 . S
H81 C76 0.930 . S
C82 O89 1.259 1_455 S
C82 O90 1.258 . S
N83 Co74 2.057 . S
N83 C84 1.316 . S
N83 C85 1.375 1_565 S
C84 N83 1.316 . S
C84 N86 1.347 . S
C84 H95 0.931 . S
C85 N83 1.375 1_545 S
C85 C87 1.350 1_545 S
C85 H94 0.930 . S
N86 C84 1.347 . S
N86 C87 1.373 . S
C87 C85 1.350 1_565 S
C87 N86 1.373 . S
C87 H101 0.931 1_565 S
C88 O91 1.256 . S
C88 O92 1.255 1_455 S
O89 Co72 2.021 . S
O89 C82 1.259 1_655 S
O90 Co74 2.117 1_545 S
O90 C82 1.258 . S
O91 Co74 2.020 1_545 S
O91 C88 1.256 . S
O92 Co72 2.062 . S
O92 C88 1.255 1_655 S
O93 C73 1.259 1_455 S
O93 Co74 2.021 . S
H94 C85 0.930 . S
H95 C84 0.931 . S
O96 Co72 2.117 1_565 S
O96 C73 1.258 . S
O97 Co72 2.020 1_565 S
O97 C99 1.256 . S
O98 Co74 2.062 . S
O98 C99 1.255 1_455 S
C99 O97 1.256 . S
C99 O98 1.255 1_655 S
H100 C79 0.931 . S
H101 C87 0.931 1_545 S
Co102 N107 2.057 . S
Co102 O119 2.021 1_565 S
Co102 O122 2.062 . S
Co102 O126 2.117 1_556 S
Co102 O127 2.020 1_565 S
C103 O123 1.259 . S
C103 O126 1.258 . S
Co104 N113 2.057 . S
Co104 O120 2.117 . S
Co104 O121 2.020 1_545 S
Co104 O123 2.021 1_545 S
Co104 O128 2.062 . S
C105 N107 1.316 . S
C105 N108 1.347 . S
C105 H110 0.931 1_565 S
C106 N107 1.375 . S
C106 C109 1.350 . S
C106 H111 0.930 . S
N107 Co102 2.057 . S
N107 C105 1.316 . S
N107 C106 1.375 . S
N108 C105 1.347 . S
N108 C109 1.373 . S
C109 C106 1.350 . S
C109 N108 1.373 . S
C109 H130 0.931 . S
H110 C105 0.931 1_545 S
H111 C106 0.930 . S
C112 O119 1.259 . S
C112 O120 1.258 1_556 S
N113 Co104 2.057 . S
N113 C114 1.316 . S
N113 C115 1.375 . S
C114 N113 1.316 . S
C114 N116 1.347 . S
C114 H125 0.904 1_545 S
C115 N113 1.375 . S
C115 C117 1.350 . S
C115 H124 0.930 . S
N116 C114 1.347 . S
N116 C117 1.373 . S
C117 C115 1.350 . S
C117 N116 1.373 . S
C117 H131 0.931 . S
C118 O121 1.256 1_556 S
C118 O122 1.255 . S
O119 Co102 2.021 1_545 S
O119 C112 1.259 . S
O120 Co104 2.117 . S
O120 C112 1.258 1_554 S
O121 Co104 2.020 1_565 S
O121 C118 1.256 1_554 S
O122 Co102 2.062 . S
O122 C118 1.255 . S
O123 C103 1.259 . S
O123 Co104 2.021 1_565 S
H124 C115 0.930 . S
H125 C114 0.904 1_565 S
O126 Co102 2.117 1_554 S
O126 C103 1.258 . S
O127 Co102 2.020 1_545 S
O127 C129 1.256 1_556 S
O128 Co104 2.062 . S
O128 C129 1.255 . S
C129 O127 1.256 1_554 S
C129 O128 1.255 . S
H130 C109 0.931 . S
H131 C117 0.931 . S
Co132 N137 2.057 . S
Co132 O149 2.021 . S
Co132 O152 2.062 . S
Co132 O156 2.117 . S
Co132 O157 2.020 . S
C133 O153 1.259 . S
C133 O156 1.258 . S
Co134 N143 2.057 . S
Co134 O150 2.117 . S
Co134 O151 2.020 . S
Co134 O153 2.021 . S
Co134 O158 2.062 . S
C135 N137 1.316 . S
C135 N138 1.347 . S
C135 H140 0.931 . S
C136 N137 1.375 . S
C136 C139 1.350 . S
C136 H141 0.930 . S
N137 Co132 2.057 . S
N137 C135 1.316 . S
N137 C136 1.375 . S
N138 C135 1.347 . S
N138 C139 1.373 . S
C139 C136 1.350 . S
C139 N138 1.373 . S
C139 H160 0.931 . S
H140 C135 0.931 . S
H141 C136 0.930 . S
C142 O149 1.259 . S
C142 O150 1.258 . S
N143 Co134 2.057 . S
N143 C144 1.316 . S
N143 C145 1.375 . S
C144 N143 1.316 . S
C144 N146 1.347 . S
C144 H155 0.931 . S
C145 N143 1.375 . S
C145 C147 1.350 . S
C145 H154 0.930 . S
N146 C144 1.347 . S
N146 C147 1.373 . S
C147 C145 1.350 . S
C147 N146 1.373 . S
C147 H161 0.931 . S
C148 O151 1.256 . S
C148 O152 1.255 . S
O149 Co132 2.021 . S
O149 C142 1.259 . S
O150 Co134 2.117 . S
O150 C142 1.258 . S
O151 Co134 2.020 . S
O151 C148 1.256 . S
O152 Co132 2.062 . S
O152 C148 1.255 . S
O153 C133 1.259 . S
O153 Co134 2.021 . S
H154 C145 0.930 . S
H155 C144 0.931 . S
O156 Co132 2.117 . S
O156 C133 1.258 . S
O157 Co132 2.020 . S
O157 C159 1.256 . S
O158 Co134 2.062 . S
O158 C159 1.255 . S
C159 O157 1.256 . S
C159 O158 1.255 . S
H160 C139 0.931 . S
H161 C147 0.931 . S
Co162 N167 2.057 . S
Co162 O179 2.021 . S
Co162 O182 2.062 . S
Co162 O186 2.117 1_455 S
Co162 O187 2.020 1_455 S
C163 O183 1.259 1_556 S
C163 O186 1.258 . S
Co164 N173 2.057 . S
Co164 O180 2.117 1_655 S
Co164 O181 2.020 1_655 S
Co164 O183 2.021 . S
Co164 O188 2.062 . S
C165 N167 1.316 . S
C165 N168 1.347 . S
C165 H170 0.931 . S
C166 N167 1.375 1_655 S
C166 C169 1.350 1_655 S
C166 H171 0.930 . S
N167 Co162 2.057 . S
N167 C165 1.316 . S
N167 C166 1.375 1_455 S
N168 C165 1.347 . S
N168 C169 1.373 . S
C169 C166 1.350 1_455 S
C169 N168 1.373 . S
C169 H190 0.931 1_455 S
H170 C165 0.931 . S
H171 C166 0.930 . S
C172 O179 1.259 1_554 S
C172 O180 1.258 . S
N173 Co164 2.057 . S
N173 C174 1.316 . S
N173 C175 1.375 1_655 S
C174 N173 1.316 . S
C174 N176 1.347 . S
C174 H185 0.931 . S
C175 N173 1.375 1_455 S
C175 C177 1.350 1_455 S
C175 H184 0.930 . S
N176 C174 1.347 . S
N176 C177 1.373 . S
C177 C175 1.350 1_655 S
C177 N176 1.373 . S
C177 H191 0.931 1_655 S
C178 O181 1.256 . S
C178 O182 1.255 1_554 S
O179 Co162 2.021 . S
O179 C172 1.259 1_556 S
O180 Co164 2.117 1_455 S
O180 C172 1.258 . S
O181 Co164 2.020 1_455 S
O181 C178 1.256 . S
O182 Co162 2.062 . S
O182 C178 1.255 1_556 S
O183 C163 1.259 1_554 S
O183 Co164 2.021 . S
H184 C175 0.930 . S
H185 C174 0.931 . S
O186 Co162 2.117 1_655 S
O186 C163 1.258 . S
O187 Co162 2.020 1_655 S
O187 C189 1.256 . S
O188 Co164 2.062 . S
O188 C189 1.255 1_554 S
C189 O187 1.256 . S
C189 O188 1.255 1_556 S
H190 C169 0.931 1_655 S
H191 C177 0.931 1_455 S
H192 C200 0.950 . S
H193 C205 0.950 . S
H194 C202 0.950 . S
H195 C204 0.950 . S
H196 C206 0.950 1_565 S
H197 C208 0.950 . S
H198 C210 0.950 . S
H199 C211 0.950 . S
C200 H192 0.950 . S
C200 C201 1.386 . S
C200 C202 1.391 . S
C201 C200 1.386 . S
C201 C205 1.393 . S
C202 H194 0.950 . S
C202 C200 1.391 . S
C202 C203 1.400 . S
C203 C202 1.400 . S
C203 C204 1.398 . S
C203 C209 1.491 . S
C204 H195 0.950 . S
C204 C203 1.398 . S
C204 C205 1.391 . S
C205 H193 0.950 . S
C205 C201 1.393 . S
C205 C204 1.391 . S
C206 H196 0.950 1_545 S
C206 C207 1.386 . S
C206 C208 1.391 . S
C207 C206 1.386 . S
C207 C211 1.393 . S
C208 H197 0.950 . S
C208 C206 1.391 . S
C208 C209 1.400 . S
C209 C203 1.491 . S
C209 C208 1.400 . S
C209 C210 1.398 . S
C210 H198 0.950 . S
C210 C209 1.398 . S
C210 C211 1.391 . S
C211 H199 0.950 . S
C211 C207 1.393 . S
C211 C210 1.391 . S
H212 C220 0.950 . S
H213 C225 0.950 . S
H214 C222 0.950 . S
H215 C224 0.950 . S
H216 C226 0.950 . S
H217 C228 0.950 . S
H218 C230 0.950 . S
H219 C231 0.950 . S
C220 H212 0.950 . S
C220 C221 1.386 . S
C220 C222 1.391 . S
C221 C220 1.386 . S
C221 C225 1.393 . S
C222 H214 0.950 . S
C222 C220 1.391 . S
C222 C223 1.400 . S
C223 C222 1.400 . S
C223 C224 1.398 . S
C223 C229 1.491 . S
C224 H215 0.950 . S
C224 C223 1.398 . S
C224 C225 1.391 . S
C225 H213 0.950 . S
C225 C221 1.393 . S
C225 C224 1.391 . S
C226 H216 0.950 . S
C226 C227 1.386 . S
C226 C228 1.391 . S
C227 C226 1.386 . S
C227 C231 1.393 . S
C228 H217 0.950 . S
C228 C226 1.391 . S
C228 C229 1.400 . S
C229 C223 1.491 . S
C229 C228 1.400 . S
C229 C230 1.398 . S
C230 H218 0.950 . S
C230 C229 1.398 . S
C230 C231 1.391 . S
C231 H219 0.950 . S
C231 C227 1.393 . S
C231 C230 1.391 . S
H232 C240 0.950 . S
H233 C245 0.950 . S
H234 C242 0.950 . S
H235 C244 0.950 . S
H236 C246 0.950 . S
H237 C248 0.950 . S
H238 C250 0.950 . S
H239 C251 0.950 . S
C240 H232 0.950 . S
C240 C241 1.386 . S
C240 C242 1.391 . S
C241 C240 1.386 . S
C241 C245 1.393 . S
C242 H234 0.950 . S
C242 C240 1.391 . S
C242 C243 1.400 . S
C243 C242 1.400 . S
C243 C244 1.398 . S
C243 C249 1.491 . S
C244 H235 0.950 . S
C244 C243 1.398 . S
C244 C245 1.391 . S
C245 H233 0.950 . S
C245 C241 1.393 . S
C245 C244 1.391 . S
C246 H236 0.950 . S
C246 C247 1.386 . S
C246 C248 1.391 . S
C247 C246 1.386 . S
C247 C251 1.393 . S
C248 H237 0.950 . S
C248 C246 1.391 . S
C248 C249 1.400 . S
C249 C243 1.491 . S
C249 C248 1.400 . S
C249 C250 1.398 . S
C250 H238 0.950 . S
C250 C249 1.398 . S
C250 C251 1.391 . S
C251 H239 0.950 . S
C251 C247 1.393 . S
C251 C250 1.391 . S
H252 C260 0.950 . S
H253 C265 0.950 . S
H254 C262 0.950 . S
H255 C264 0.950 . S
H256 C266 0.950 . S
H257 C268 0.950 . S
H258 C270 0.950 . S
H259 C271 0.950 . S
C260 H252 0.950 . S
C260 C261 1.386 . S
C260 C262 1.391 . S
C261 C260 1.386 . S
C261 C265 1.393 . S
C262 H254 0.950 . S
C262 C260 1.391 . S
C262 C263 1.400 . S
C263 C262 1.400 . S
C263 C264 1.398 . S
C263 C269 1.491 . S
C264 H255 0.950 . S
C264 C263 1.398 . S
C264 C265 1.391 . S
C265 H253 0.950 . S
C265 C261 1.393 . S
C265 C264 1.391 . S
C266 H256 0.950 . S
C266 C267 1.386 . S
C266 C268 1.391 . S
C267 C266 1.386 . S
C267 C271 1.393 . S
C268 H257 0.950 . S
C268 C266 1.391 . S
C268 C269 1.400 . S
C269 C263 1.491 . S
C269 C268 1.400 . S
C269 C270 1.398 . S
C270 H258 0.950 . S
C270 C269 1.398 . S
C270 C271 1.391 . S
C271 H259 0.950 . S
C271 C267 1.393 . S
C271 C270 1.391 . S
H272 C280 0.950 . S
H273 C285 0.950 . S
H274 C282 0.950 . S
H275 C284 0.950 . S
H276 C286 0.950 1_556 S
H277 C288 0.950 . S
H278 C290 0.950 . S
H279 C291 0.950 . S
C280 H272 0.950 . S
C280 C281 1.386 . S
C280 C282 1.391 . S
C281 C280 1.386 . S
C281 C285 1.393 . S
C282 H274 0.950 . S
C282 C280 1.391 . S
C282 C283 1.400 . S
C283 C282 1.400 . S
C283 C284 1.398 . S
C283 C289 1.491 . S
C284 H275 0.950 . S
C284 C283 1.398 . S
C284 C285 1.391 . S
C285 H273 0.950 . S
C285 C281 1.393 . S
C285 C284 1.391 . S
C286 H276 0.950 1_554 S
C286 C287 1.386 . S
C286 C288 1.391 . S
C287 C286 1.386 . S
C287 C291 1.393 . S
C288 H277 0.950 . S
C288 C286 1.391 . S
C288 C289 1.400 . S
C289 C283 1.491 . S
C289 C288 1.400 . S
C289 C290 1.398 . S
C290 H278 0.950 . S
C290 C289 1.398 . S
C290 C291 1.391 . S
C291 H279 0.950 . S
C291 C287 1.393 . S
C291 C290 1.391 . S
H292 C300 0.950 . S
H293 C305 0.950 . S
H294 C302 0.950 . S
H295 C304 0.950 . S
H296 C306 0.950 . S
H297 C308 0.950 . S
H298 C310 0.950 . S
H299 C311 0.950 . S
C300 H292 0.950 . S
C300 C301 1.386 . S
C300 C302 1.391 . S
C301 C300 1.386 . S
C301 C305 1.393 . S
C302 H294 0.950 . S
C302 C300 1.391 . S
C302 C303 1.400 . S
C303 C302 1.400 . S
C303 C304 1.398 . S
C303 C309 1.491 . S
C304 H295 0.950 . S
C304 C303 1.398 . S
C304 C305 1.391 . S
C305 H293 0.950 . S
C305 C301 1.393 . S
C305 C304 1.391 . S
C306 H296 0.950 . S
C306 C307 1.386 . S
C306 C308 1.391 . S
C307 C306 1.386 . S
C307 C311 1.393 . S
C308 H297 0.950 . S
C308 C306 1.391 . S
C308 C309 1.400 . S
C309 C303 1.491 . S
C309 C308 1.400 . S
C309 C310 1.398 . S
C310 H298 0.950 . S
C310 C309 1.398 . S
C310 C311 1.391 . S
C311 H299 0.950 . S
C311 C307 1.393 . S
C311 C310 1.391 . S
H312 C320 0.950 . S
H313 C325 0.950 . S
H314 C322 0.950 . S
H315 C324 0.950 . S
H316 C326 0.950 . S
H317 C328 0.950 . S
H318 C330 0.950 . S
H319 C331 0.950 . S
C320 H312 0.950 . S
C320 C321 1.386 . S
C320 C322 1.391 . S
C321 C320 1.386 . S
C321 C325 1.393 . S
C322 H314 0.950 . S
C322 C320 1.391 . S
C322 C323 1.400 . S
C323 C322 1.400 . S
C323 C324 1.398 . S
C323 C329 1.491 . S
C324 H315 0.950 . S
C324 C323 1.398 . S
C324 C325 1.391 . S
C325 H313 0.950 . S
C325 C321 1.393 . S
C325 C324 1.391 . S
C326 H316 0.950 . S
C326 C327 1.386 . S
C326 C328 1.391 . S
C327 C326 1.386 . S
C327 C331 1.393 . S
C328 H317 0.950 . S
C328 C326 1.391 . S
C328 C329 1.400 . S
C329 C323 1.491 . S
C329 C328 1.400 . S
C329 C330 1.398 . S
C330 H318 0.950 . S
C330 C329 1.398 . S
C330 C331 1.391 . S
C331 H319 0.950 . S
C331 C327 1.393 . S
C331 C330 1.391 . S
H332 C340 0.950 . S
H333 C345 0.950 . S
H334 C342 0.950 . S
H335 C344 0.950 . S
H336 C346 0.950 . S
H337 C348 0.950 . S
H338 C350 0.950 . S
H339 C351 0.950 . S
C340 H332 0.950 . S
C340 C341 1.386 . S
C340 C342 1.391 . S
C341 C340 1.386 . S
C341 C345 1.393 . S
C342 H334 0.950 . S
C342 C340 1.391 . S
C342 C343 1.400 . S
C343 C342 1.400 . S
C343 C344 1.398 . S
C343 C349 1.491 . S
C344 H335 0.950 . S
C344 C343 1.398 . S
C344 C345 1.391 . S
C345 H333 0.950 . S
C345 C341 1.393 . S
C345 C344 1.391 . S
C346 H336 0.950 . S
C346 C347 1.386 . S
C346 C348 1.391 . S
C347 C346 1.386 . S
C347 C351 1.393 . S
C348 H337 0.950 . S
C348 C346 1.391 . S
C348 C349 1.400 . S
C349 C343 1.491 . S
C349 C348 1.400 . S
C349 C350 1.398 . S
C350 H338 0.950 . S
C350 C349 1.398 . S
C350 C351 1.391 . S
C351 H339 0.950 . S
C351 C347 1.393 . S
C351 C350 1.391 . S
H352 C360 0.950 . S
H353 C365 0.950 . S
H354 C362 0.950 . S
H355 C364 0.950 . S
H356 C366 0.950 1_655 S
H357 C368 0.950 . S
H358 C370 0.950 . S
H359 C371 0.950 . S
C360 H352 0.950 . S
C360 C361 1.386 . S
C360 C362 1.391 . S
C361 C360 1.386 . S
C361 C365 1.393 . S
C362 H354 0.950 . S
C362 C360 1.391 . S
C362 C363 1.400 . S
C363 C362 1.400 . S
C363 C364 1.398 . S
C363 C369 1.491 . S
C364 H355 0.950 . S
C364 C363 1.398 . S
C364 C365 1.391 . S
C365 H353 0.950 . S
C365 C361 1.393 . S
C365 C364 1.391 . S
C366 H356 0.950 1_455 S
C366 C367 1.386 . S
C366 C368 1.391 . S
C367 C366 1.386 . S
C367 C371 1.393 . S
C368 H357 0.950 . S
C368 C366 1.391 . S
C368 C369 1.400 . S
C369 C363 1.491 . S
C369 C368 1.400 . S
C369 C370 1.398 . S
C370 H358 0.950 . S
C370 C369 1.398 . S
C370 C371 1.391 . S
C371 H359 0.950 . S
C371 C367 1.393 . S
C371 C370 1.391 . S
H372 C380 0.950 . S
H373 C385 0.950 . S
H374 C382 0.950 . S
H375 C384 0.950 . S
H376 C386 0.950 . S
H377 C388 0.950 . S
H378 C390 0.950 . S
H379 C391 0.950 . S
C380 H372 0.950 . S
C380 C381 1.386 . S
C380 C382 1.391 . S
C381 C380 1.386 . S
C381 C385 1.393 . S
C382 H374 0.950 . S
C382 C380 1.391 . S
C382 C383 1.400 . S
C383 C382 1.400 . S
C383 C384 1.398 . S
C383 C389 1.491 . S
C384 H375 0.950 . S
C384 C383 1.398 . S
C384 C385 1.391 . S
C385 H373 0.950 . S
C385 C381 1.393 . S
C385 C384 1.391 . S
C386 H376 0.950 . S
C386 C387 1.386 . S
C386 C388 1.391 . S
C387 C386 1.386 . S
C387 C391 1.393 . S
C388 H377 0.950 . S
C388 C386 1.391 . S
C388 C389 1.400 . S
C389 C383 1.491 . S
C389 C388 1.400 . S
C389 C390 1.398 . S
C390 H378 0.950 . S
C390 C389 1.398 . S
C390 C391 1.391 . S
C391 H379 0.950 . S
C391 C387 1.393 . S
C391 C390 1.391 . S
H392 C400 0.950 . S
H393 C405 0.950 . S
H394 C402 0.950 . S
H395 C404 0.950 . S
H396 C406 0.950 . S
H397 C408 0.950 . S
H398 C410 0.950 . S
H399 C411 0.950 . S
C400 H392 0.950 . S
C400 C401 1.386 . S
C400 C402 1.391 . S
C401 C400 1.386 . S
C401 C405 1.393 . S
C402 H394 0.950 . S
C402 C400 1.391 . S
C402 C403 1.400 . S
C403 C402 1.400 . S
C403 C404 1.398 . S
C403 C409 1.491 . S
C404 H395 0.950 . S
C404 C403 1.398 . S
C404 C405 1.391 . S
C405 H393 0.950 . S
C405 C401 1.393 . S
C405 C404 1.391 . S
C406 H396 0.950 . S
C406 C407 1.386 . S
C406 C408 1.391 . S
C407 C406 1.386 . S
C407 C411 1.393 . S
C408 H397 0.950 . S
C408 C406 1.391 . S
C408 C409 1.400 . S
C409 C403 1.491 . S
C409 C408 1.400 . S
C409 C410 1.398 . S
C410 H398 0.950 . S
C410 C409 1.398 . S
C410 C411 1.391 . S
C411 H399 0.950 . S
C411 C407 1.393 . S
C411 C410 1.391 . S
H412 C420 0.950 . S
H413 C425 0.950 . S
H414 C422 0.950 . S
H415 C424 0.950 . S
H416 C426 0.950 . S
H417 C428 0.950 . S
H418 C430 0.950 . S
H419 C431 0.950 . S
C420 H412 0.950 . S
C420 C421 1.386 . S
C420 C422 1.391 . S
C421 C420 1.386 . S
C421 C425 1.393 . S
C422 H414 0.950 . S
C422 C420 1.391 . S
C422 C423 1.400 . S
C423 C422 1.400 . S
C423 C424 1.398 . S
C423 C429 1.491 . S
C424 H415 0.950 . S
C424 C423 1.398 . S
C424 C425 1.391 . S
C425 H413 0.950 . S
C425 C421 1.393 . S
C425 C424 1.391 . S
C426 H416 0.950 . S
C426 C427 1.386 . S
C426 C428 1.391 . S
C427 C426 1.386 . S
C427 C431 1.393 . S
C428 H417 0.950 . S
C428 C426 1.391 . S
C428 C429 1.400 . S
C429 C423 1.491 . S
C429 C428 1.400 . S
C429 C430 1.398 . S
C430 H418 0.950 . S
C430 C429 1.398 . S
C430 C431 1.391 . S
C431 H419 0.950 . S
C431 C427 1.393 . S
C431 C430 1.391 . S
H432 C440 0.950 . S
H433 C445 0.950 . S
H434 C442 0.950 . S
H435 C444 0.950 . S
H436 C446 0.950 . S
H437 C448 0.950 . S
H438 C450 0.950 . S
H439 C451 0.950 1_545 S
C440 H432 0.950 . S
C440 C441 1.386 . S
C440 C442 1.391 . S
C441 C440 1.386 . S
C441 C445 1.393 . S
C442 H434 0.950 . S
C442 C440 1.391 . S
C442 C443 1.400 . S
C443 C442 1.400 . S
C443 C444 1.398 . S
C443 C449 1.491 . S
C444 H435 0.950 . S
C444 C443 1.398 . S
C444 C445 1.391 . S
C445 H433 0.950 . S
C445 C441 1.393 . S
C445 C444 1.391 . S
C446 H436 0.950 . S
C446 C447 1.386 . S
C446 C448 1.391 . S
C447 C446 1.386 . S
C447 C451 1.393 . S
C448 H437 0.950 . S
C448 C446 1.391 . S
C448 C449 1.400 . S
C449 C443 1.491 . S
C449 C448 1.400 . S
C449 C450 1.398 . S
C450 H438 0.950 . S
C450 C449 1.398 . S
C450 C451 1.391 . S
C451 H439 0.950 1_565 S
C451 C447 1.393 . S
C451 C450 1.391 . S
H452 C460 0.950 . S
H453 C465 0.950 . S
H454 C462 0.950 . S
H455 C464 0.950 . S
H456 C466 0.950 . S
H457 C468 0.950 . S
H458 C470 0.950 . S
H459 C471 0.950 . S
C460 H452 0.950 . S
C460 C461 1.386 . S
C460 C462 1.391 . S
C461 C460 1.386 . S
C461 C465 1.393 . S
C462 H454 0.950 . S
C462 C460 1.391 . S
C462 C463 1.400 . S
C463 C462 1.400 . S
C463 C464 1.398 . S
C463 C469 1.491 . S
C464 H455 0.950 . S
C464 C463 1.398 . S
C464 C465 1.391 . S
C465 H453 0.950 . S
C465 C461 1.393 . S
C465 C464 1.391 . S
C466 H456 0.950 . S
C466 C467 1.386 . S
C466 C468 1.391 . S
C467 C466 1.386 . S
C467 C471 1.393 . S
C468 H457 0.950 . S
C468 C466 1.391 . S
C468 C469 1.400 . S
C469 C463 1.491 . S
C469 C468 1.400 . S
C469 C470 1.398 . S
C470 H458 0.950 . S
C470 C469 1.398 . S
C470 C471 1.391 . S
C471 H459 0.950 . S
C471 C467 1.393 . S
C471 C470 1.391 . S
H472 C480 0.950 . S
H473 C485 0.950 . S
H474 C482 0.950 . S
H475 C484 0.950 . S
H476 C486 0.950 . S
H477 C488 0.950 . S
H478 C490 0.950 . S
H479 C491 0.950 . S
C480 H472 0.950 . S
C480 C481 1.386 . S
C480 C482 1.391 . S
C481 C480 1.386 . S
C481 C485 1.393 . S
C482 H474 0.950 . S
C482 C480 1.391 . S
C482 C483 1.400 . S
C483 C482 1.400 . S
C483 C484 1.398 . S
C483 C489 1.491 . S
C484 H475 0.950 . S
C484 C483 1.398 . S
C484 C485 1.391 . S
C485 H473 0.950 . S
C485 C481 1.393 . S
C485 C484 1.391 . S
C486 H476 0.950 . S
C486 C487 1.386 . S
C486 C488 1.391 . S
C487 C486 1.386 . S
C487 C491 1.393 . S
C488 H477 0.950 . S
C488 C486 1.391 . S
C488 C489 1.400 . S
C489 C483 1.491 . S
C489 C488 1.400 . S
C489 C490 1.398 . S
C490 H478 0.950 . S
C490 C489 1.398 . S
C490 C491 1.391 . S
C491 H479 0.950 . S
C491 C487 1.393 . S
C491 C490 1.391 . S
H492 C500 0.950 . S
H493 C505 0.950 . S
H494 C502 0.950 . S
H495 C504 0.950 . S
H496 C506 0.950 . S
H497 C508 0.950 . S
H498 C510 0.950 . S
H499 C511 0.950 . S
C500 H492 0.950 . S
C500 C501 1.386 . S
C500 C502 1.391 . S
C501 C500 1.386 . S
C501 C505 1.393 . S
C502 H494 0.950 . S
C502 C500 1.391 . S
C502 C503 1.400 . S
C503 C502 1.400 . S
C503 C504 1.398 . S
C503 C509 1.491 . S
C504 H495 0.950 . S
C504 C503 1.398 . S
C504 C505 1.391 . S
C505 H493 0.950 . S
C505 C501 1.393 . S
C505 C504 1.391 . S
C506 H496 0.950 . S
C506 C507 1.386 . S
C506 C508 1.391 . S
C507 C506 1.386 . S
C507 C511 1.393 . S
C508 H497 0.950 . S
C508 C506 1.391 . S
C508 C509 1.400 . S
C509 C503 1.491 . S
C509 C508 1.400 . S
C509 C510 1.398 . S
C510 H498 0.950 . S
C510 C509 1.398 . S
C510 C511 1.391 . S
C511 H499 0.950 . S
C511 C507 1.393 . S
C511 C510 1.391 . S
H512 C520 0.950 . S
H513 C525 0.950 . S
H514 C522 0.950 . S
H515 C524 0.950 . S
H516 C526 0.950 1_545 S
H517 C528 0.950 . S
H518 C530 0.950 . S
H519 C531 0.950 . S
C520 H512 0.950 . S
C520 C521 1.386 . S
C520 C522 1.391 . S
C521 C520 1.386 . S
C521 C525 1.393 . S
C522 H514 0.950 . S
C522 C520 1.391 . S
C522 C523 1.400 . S
C523 C522 1.400 . S
C523 C524 1.398 . S
C523 C529 1.491 . S
C524 H515 0.950 . S
C524 C523 1.398 . S
C524 C525 1.391 . S
C525 H513 0.950 . S
C525 C521 1.393 . S
C525 C524 1.391 . S
C526 H516 0.950 1_565 S
C526 C527 1.386 . S
C526 C528 1.391 . S
C527 C526 1.386 . S
C527 C531 1.393 . S
C528 H517 0.950 . S
C528 C526 1.391 . S
C528 C529 1.400 . S
C529 C523 1.491 . S
C529 C528 1.400 . S
C529 C530 1.398 . S
C530 H518 0.950 . S
C530 C529 1.398 . S
C530 C531 1.391 . S
C531 H519 0.950 . S
C531 C527 1.393 . S
C531 C530 1.391 . S
H532 C540 0.950 . S
H533 C545 0.950 . S
H534 C542 0.950 . S
H535 C544 0.950 . S
H536 C546 0.950 . S
H537 C548 0.950 . S
H538 C550 0.950 . S
H539 C551 0.950 . S
C540 H532 0.950 . S
C540 C541 1.386 . S
C540 C542 1.391 . S
C541 C540 1.386 . S
C541 C545 1.393 . S
C542 H534 0.950 . S
C542 C540 1.391 . S
C542 C543 1.400 . S
C543 C542 1.400 . S
C543 C544 1.398 . S
C543 C549 1.491 . S
C544 H535 0.950 . S
C544 C543 1.398 . S
C544 C545 1.391 . S
C545 H533 0.950 . S
C545 C541 1.393 . S
C545 C544 1.391 . S
C546 H536 0.950 . S
C546 C547 1.386 . S
C546 C548 1.391 . S
C547 C546 1.386 . S
C547 C551 1.393 . S
C548 H537 0.950 . S
C548 C546 1.391 . S
C548 C549 1.400 . S
C549 C543 1.491 . S
C549 C548 1.400 . S
C549 C550 1.398 . S
C550 H538 0.950 . S
C550 C549 1.398 . S
C550 C551 1.391 . S
C551 H539 0.950 . S
C551 C547 1.393 . S
C551 C550 1.391 . S
H552 C560 0.950 . S
H553 C565 0.950 . S
H554 C562 0.950 . S
H555 C564 0.950 . S
H556 C566 0.950 1_556 S
H557 C568 0.950 . S
H558 C570 0.950 . S
H559 C571 0.950 . S
C560 H552 0.950 . S
C560 C561 1.386 . S
C560 C562 1.391 . S
C561 C560 1.386 . S
C561 C565 1.393 . S
C562 H554 0.950 . S
C562 C560 1.391 . S
C562 C563 1.400 . S
C563 C562 1.400 . S
C563 C564 1.398 . S
C563 C569 1.491 . S
C564 H555 0.950 . S
C564 C563 1.398 . S
C564 C565 1.391 . S
C565 H553 0.950 . S
C565 C561 1.393 . S
C565 C564 1.391 . S
C566 H556 0.950 1_554 S
C566 C567 1.386 . S
C566 C568 1.391 . S
C567 C566 1.386 . S
C567 C571 1.393 . S
C568 H557 0.950 . S
C568 C566 1.391 . S
C568 C569 1.400 . S
C569 C563 1.491 . S
C569 C568 1.400 . S
C569 C570 1.398 . S
C570 H558 0.950 . S
C570 C569 1.398 . S
C570 C571 1.391 . S
C571 H559 0.950 . S
C571 C567 1.393 . S
C571 C570 1.391 . S
H572 C580 0.950 . S
H573 C585 0.950 . S
H574 C582 0.950 . S
H575 C584 0.950 . S
H576 C586 0.950 . S
H577 C588 0.950 . S
H578 C590 0.950 . S
H579 C591 0.950 . S
C580 H572 0.950 . S
C580 C581 1.386 . S
C580 C582 1.391 . S
C581 C580 1.386 . S
C581 C585 1.393 . S
C582 H574 0.950 . S
C582 C580 1.391 . S
C582 C583 1.400 . S
C583 C582 1.400 . S
C583 C584 1.398 . S
C583 C589 1.491 . S
C584 H575 0.950 . S
C584 C583 1.398 . S
C584 C585 1.391 . S
C585 H573 0.950 . S
C585 C581 1.393 . S
C585 C584 1.391 . S
C586 H576 0.950 . S
C586 C587 1.386 . S
C586 C588 1.391 . S
C587 C586 1.386 . S
C587 C591 1.393 . S
C588 H577 0.950 . S
C588 C586 1.391 . S
C588 C589 1.400 . S
C589 C583 1.491 . S
C589 C588 1.400 . S
C589 C590 1.398 . S
C590 H578 0.950 . S
C590 C589 1.398 . S
C590 C591 1.391 . S
C591 H579 0.950 . S
C591 C587 1.393 . S
C591 C590 1.391 . S
H592 C600 0.950 . S
H593 C605 0.950 . S
H594 C602 0.950 . S
H595 C604 0.950 . S
H596 C606 0.950 1_455 S
H597 C608 0.950 . S
H598 C610 0.950 . S
H599 C611 0.950 1_554 S
C600 H592 0.950 . S
C600 C601 1.386 . S
C600 C602 1.391 . S
C601 C600 1.386 . S
C601 C605 1.393 . S
C602 H594 0.950 . S
C602 C600 1.391 . S
C602 C603 1.400 . S
C603 C602 1.400 . S
C603 C604 1.398 . S
C603 C609 1.491 . S
C604 H595 0.950 . S
C604 C603 1.398 . S
C604 C605 1.391 . S
C605 H593 0.950 . S
C605 C601 1.393 . S
C605 C604 1.391 . S
C606 H596 0.950 1_655 S
C606 C607 1.386 . S
C606 C608 1.391 . S
C607 C606 1.386 . S
C607 C611 1.393 . S
C608 H597 0.950 . S
C608 C606 1.391 . S
C608 C609 1.400 . S
C609 C603 1.491 . S
C609 C608 1.400 . S
C609 C610 1.398 . S
C610 H598 0.950 . S
C610 C609 1.398 . S
C610 C611 1.391 . S
C611 H599 0.950 1_556 S
C611 C607 1.393 . S
C611 C610 1.391 . S
H612 C620 0.950 . S
H613 C625 0.950 . S
H614 C622 0.950 . S
H615 C624 0.950 . S
H616 C626 0.961 . S
H617 C628 0.950 . S
H618 C630 0.950 . S
H619 C631 0.950 . S
C620 H612 0.950 . S
C620 C621 1.386 . S
C620 C622 1.391 . S
C621 C620 1.386 . S
C621 C625 1.393 . S
C622 H614 0.950 . S
C622 C620 1.391 . S
C622 C623 1.400 . S
C623 C622 1.400 . S
C623 C624 1.398 . S
C623 C629 1.491 . S
C624 H615 0.950 . S
C624 C623 1.398 . S
C624 C625 1.391 . S
C625 H613 0.950 . S
C625 C621 1.393 . S
C625 C624 1.391 . S
C626 H616 0.961 . S
C626 C627 1.386 . S
C626 C628 1.391 . S
C627 C626 1.386 . S
C627 C631 1.393 . S
C628 H617 0.950 . S
C628 C626 1.391 . S
C628 C629 1.400 . S
C629 C623 1.491 . S
C629 C628 1.400 . S
C629 C630 1.398 . S
C630 H618 0.950 . S
C630 C629 1.398 . S
C630 C631 1.391 . S
C631 H619 0.950 . S
C631 C627 1.393 . S
C631 C630 1.391 . S
H632 C640 0.950 . S
H633 C645 0.950 . S
H634 C642 0.950 . S
H635 C644 0.950 . S
H636 C646 0.950 . S
H637 C648 0.950 . S
H638 C650 0.950 . S
H639 C651 0.950 . S
C640 H632 0.950 . S
C640 C641 1.386 . S
C640 C642 1.391 . S
C641 C640 1.386 . S
C641 C645 1.393 . S
C642 H634 0.950 . S
C642 C640 1.391 . S
C642 C643 1.400 . S
C643 C642 1.400 . S
C643 C644 1.398 . S
C643 C649 1.491 . S
C644 H635 0.950 . S
C644 C643 1.398 . S
C644 C645 1.391 . S
C645 H633 0.950 . S
C645 C641 1.393 . S
C645 C644 1.391 . S
C646 H636 0.950 . S
C646 C647 1.386 . S
C646 C648 1.391 . S
C647 C646 1.386 . S
C647 C651 1.393 . S
C648 H637 0.950 . S
C648 C646 1.391 . S
C648 C649 1.400 . S
C649 C643 1.491 . S
C649 C648 1.400 . S
C649 C650 1.398 . S
C650 H638 0.950 . S
C650 C649 1.398 . S
C650 C651 1.391 . S
C651 H639 0.950 . S
C651 C647 1.393 . S
C651 C650 1.391 . S
H652 C660 0.950 . S
H653 C665 0.950 . S
H654 C662 0.950 . S
H655 C664 0.950 . S
H656 C666 0.950 . S
H657 C668 0.950 . S
H658 C670 0.950 . S
H659 C671 0.950 . S
C660 H652 0.950 . S
C660 C661 1.386 . S
C660 C662 1.391 . S
C661 C660 1.386 . S
C661 C665 1.393 . S
C662 H654 0.950 . S
C662 C660 1.391 . S
C662 C663 1.400 . S
C663 C662 1.400 . S
C663 C664 1.398 . S
C663 C669 1.491 . S
C664 H655 0.950 . S
C664 C663 1.398 . S
C664 C665 1.391 . S
C665 H653 0.950 . S
C665 C661 1.393 . S
C665 C664 1.391 . S
C666 H656 0.950 . S
C666 C667 1.386 . S
C666 C668 1.391 . S
C667 C666 1.386 . S
C667 C671 1.393 . S
C668 H657 0.950 . S
C668 C666 1.391 . S
C668 C669 1.400 . S
C669 C663 1.491 . S
C669 C668 1.400 . S
C669 C670 1.398 . S
C670 H658 0.950 . S
C670 C669 1.398 . S
C670 C671 1.391 . S
C671 H659 0.950 . S
C671 C667 1.393 . S
C671 C670 1.391 . S
C201 C5 2.099 . S
C207 C88 2.108 . S
C221 C14 1.091 . S
C227 N108 1.057 . S
C247 C142 1.958 . S
C241 C25 1.956 . S
C261 C34 1.225 . S
C267 N176 1.183 . S
C287 C129 2.254 . S
C281 C7 2.243 . S
C307 N86 1.120 . S
C301 C13 1.140 . S
C327 C163 1.988 . S
C321 C23 1.981 . S
C347 N138 0.959 . S
C341 C31 0.990 . S
C361 C4 1.766 . S
C367 C178 1.774 . S
C387 C112 1.673 . S
C381 C22 1.659 . S
C401 C32 1.368 . S
C407 C73 1.384 . S
C421 C16 1.357 . S
C427 C159 1.370 . S
C447 C99 2.095 . S
C441 C41 2.086 . S
C461 C50 1.099 . S
C467 N116 1.059 . S
C481 C61 1.941 . S
C487 C133 1.948 . S
C501 C67 1.230 . S
C507 N168 1.178 . S
C521 C40 2.257 . S
C527 C118 2.267 . S
C547 N78 1.070 . S
C541 C52 1.110 . S
C567 C172 1.990 . S
C561 C59 1.978 . S
C587 N146 0.957 . S
C581 C70 0.986 . S
C601 C43 1.756 . S
C607 C189 1.773 . S
C627 C103 1.681 . S
C621 C58 1.672 . S
C647 C82 1.373 . S
C641 C68 1.360 . S
C661 C49 1.367 . S
C667 C148 1.380 . S
