# Generated by pormake.
# Topology nom, (4,4)-cn, num edge types: 1
# Building blocks:
#     Node 0, Type 0, BuildingBlock: AZAVOO_clean_linker_0, # of connection points: 4
#     Node 1, Type 0, BuildingBlock: AZAVOO_clean_linker_0, # of connection points: 4
#     Node 2, Type 0, BuildingBlock: AZAVOO_clean_linker_0, # of connection points: 4
#     Node 3, Type 0, BuildingBlock: AZAVOO_clean_linker_0, # of connection points: 4
#     Node 4, Type 0, BuildingBlock: AZAVOO_clean_linker_0, # of connection points: 4
#     Node 5, Type 0, BuildingBlock: AZAVOO_clean_linker_0, # of connection points: 4
#     Node 6, Type 1, BuildingBlock: TATPOV_clean_sbu_0, # of connection points: 4
#     Node 7, Type 1, BuildingBlock: TATPOV_clean_sbu_0, # of connection points: 4
#     Node 8, Type 1, BuildingBlock: TATPOV_clean_sbu_0, # of connection points: 4
#     Node 9, Type 1, BuildingBlock: TATPOV_clean_sbu_0, # of connection points: 4
#     Node 10, Type 1, BuildingBlock: TATPOV_clean_sbu_0, # of connection points: 4
#     Node 11, Type 1, BuildingBlock: TATPOV_clean_sbu_0, # of connection points: 4
#     Edge 12, Type (0, 1), BuildingBlock: OJICUG_clean_linker_0, # of connection points: 2
#     Edge 13, Type (0, 1), BuildingBlock: OJICUG_clean_linker_0, # of connection points: 2
#     Edge 14, Type (0, 1), BuildingBlock: OJICUG_clean_linker_0, # of connection points: 2
#     Edge 15, Type (0, 1), BuildingBlock: OJICUG_clean_linker_0, # of connection points: 2
#     Edge 16, Type (0, 1), BuildingBlock: OJICUG_clean_linker_0, # of connection points: 2
#     Edge 17, Type (0, 1), BuildingBlock: OJICUG_clean_linker_0, # of connection points: 2
#     Edge 18, Type (0, 1), BuildingBlock: OJICUG_clean_linker_0, # of connection points: 2
#     Edge 19, Type (0, 1), BuildingBlock: OJICUG_clean_linker_0, # of connection points: 2
#     Edge 20, Type (0, 1), BuildingBlock: OJICUG_clean_linker_0, # of connection points: 2
#     Edge 21, Type (0, 1), BuildingBlock: OJICUG_clean_linker_0, # of connection points: 2
#     Edge 22, Type (0, 1), BuildingBlock: OJICUG_clean_linker_0, # of connection points: 2
#     Edge 23, Type (0, 1), BuildingBlock: OJICUG_clean_linker_0, # of connection points: 2
#     Edge 24, Type (0, 1), BuildingBlock: OJICUG_clean_linker_0, # of connection points: 2
#     Edge 25, Type (0, 1), BuildingBlock: OJICUG_clean_linker_0, # of connection points: 2
#     Edge 26, Type (0, 1), BuildingBlock: OJICUG_clean_linker_0, # of connection points: 2
#     Edge 27, Type (0, 1), BuildingBlock: OJICUG_clean_linker_0, # of connection points: 2
#     Edge 28, Type (0, 1), BuildingBlock: OJICUG_clean_linker_0, # of connection points: 2
#     Edge 29, Type (0, 1), BuildingBlock: OJICUG_clean_linker_0, # of connection points: 2
#     Edge 30, Type (0, 1), BuildingBlock: OJICUG_clean_linker_0, # of connection points: 2
#     Edge 31, Type (0, 1), BuildingBlock: OJICUG_clean_linker_0, # of connection points: 2
#     Edge 32, Type (0, 1), BuildingBlock: OJICUG_clean_linker_0, # of connection points: 2
#     Edge 33, Type (0, 1), BuildingBlock: OJICUG_clean_linker_0, # of connection points: 2
#     Edge 34, Type (0, 1), BuildingBlock: OJICUG_clean_linker_0, # of connection points: 2
#     Edge 35, Type (0, 1), BuildingBlock: OJICUG_clean_linker_0, # of connection points: 2
# Relax obj value: 0.172
# Max RMSD: 0.230
# Mean RMSD: 0.171
data_MOF--net-nom--node1-TATPOV_clean_sbu_0--node2-AZAVOO_clean_linker_0--edge1-OJICUG_clean_linker_0
_symmetry_space_group_name_H-M    P1
_symmetry_Int_Tables_number       1
_symmetry_cell_setting            triclinic
loop_
_symmetry_equiv_pos_as_xyz
'x, y, z'
_cell_length_a     36.768034
_cell_length_b     38.494586
_cell_length_c     45.470942
_cell_angle_alpha  90.759092
_cell_angle_beta   90.218073
_cell_angle_gamma 121.10394
loop_
_atom_site_label
_atom_site_type_symbol
_atom_site_fract_x
_atom_site_fract_y
_atom_site_fract_z
_atom_type_partial_charge
H0 H 0.0855 0.37348 0.11885 0.0
H1 H 0.33986 0.6722 0.35928 0.0
H2 H 0.00559 0.37757 0.26233 0.0
H3 H 0.95511 0.34601 0.22113 0.0
H4 H 0.94018 0.44988 0.21822 0.0
H5 H 0.99242 0.48246 0.25813 0.0
H6 H 0.10216 0.41119 0.24509 0.0
H7 H 0.09951 0.38782 0.19433 0.0
H8 H 0.05691 0.4675 0.16494 0.0
H9 H 0.05982 0.49063 0.21568 0.0
H10 H 0.19216 0.48432 0.28409 0.0
H11 H 0.2636 0.53544 0.26808 0.0
H12 H 0.20975 0.59419 0.21911 0.0
H13 H 0.13978 0.54388 0.23516 0.0
H14 H 0.16472 0.48814 0.34977 0.0
H15 H 0.23465 0.53421 0.37209 0.0
H16 H 0.24604 0.63203 0.31942 0.0
H17 H 0.17589 0.58591 0.29779 0.0
H18 H 0.0744 0.45813 0.37412 0.0
H19 H 0.09666 0.48986 0.42324 0.0
H20 H 0.131 0.60576 0.3867 0.0
H21 H 0.10948 0.57409 0.33782 0.0
H22 H 0.96863 0.41132 0.32624 0.0
H23 H 0.90805 0.41621 0.34336 0.0
H24 H 0.98278 0.54649 0.33335 0.0
H25 H 0.0404 0.5406 0.31384 0.0
O26 O 0.08669 0.38338 0.13872 0.0
O27 O 0.06375 0.42407 0.12492 0.0
O28 O 0.30358 0.60284 0.37906 0.0
O29 O 0.31183 0.65349 0.35128 0.0
C30 C 0.04387 0.45678 0.27955 0.0
C31 C 0.08186 0.46591 0.265 0.0
C32 C 0.12159 0.49134 0.27877 0.0
C33 C 0.12356 0.50545 0.30788 0.0
C34 C 0.08598 0.49666 0.3224 0.0
C35 C 0.04618 0.4742 0.30769 0.0
C36 C 0.00286 0.43242 0.26327 0.0
C37 C 0.9901 0.39282 0.25365 0.0
C38 C 0.96147 0.37486 0.2301 0.0
C39 C 0.94403 0.39566 0.2167 0.0
C40 C 0.953 0.43319 0.22853 0.0
C41 C 0.98255 0.45166 0.25152 0.0
C42 C 0.08062 0.45214 0.23409 0.0
C43 C 0.09226 0.42351 0.22763 0.0
C44 C 0.0907 0.41023 0.19864 0.0
C45 C 0.07776 0.42562 0.17559 0.0
C46 C 0.06681 0.45487 0.18216 0.0
C47 C 0.06825 0.46799 0.21114 0.0
C48 C 0.16086 0.51068 0.26105 0.0
C49 C 0.19584 0.50721 0.26877 0.0
C50 C 0.23661 0.53661 0.2598 0.0
C51 C 0.24259 0.56945 0.24281 0.0
C52 C 0.20665 0.56935 0.23197 0.0
C53 C 0.16623 0.54032 0.24109 0.0
C54 C 0.16549 0.53364 0.32203 0.0
C55 C 0.18234 0.51958 0.34324 0.0
C56 C 0.22227 0.54593 0.35588 0.0
C57 C 0.24603 0.58678 0.34742 0.0
C58 C 0.22869 0.60079 0.32639 0.0
C59 C 0.18867 0.5745 0.31395 0.0
C60 C 0.08963 0.51364 0.35251 0.0
C61 C 0.08546 0.49009 0.37694 0.0
C62 C 0.09862 0.50831 0.40483 0.0
C63 C 0.1157 0.55028 0.40869 0.0
C64 C 0.11753 0.57331 0.38443 0.0
C65 C 0.10496 0.5552 0.35654 0.0
C66 C 0.00932 0.47572 0.31934 0.0
C67 C 0.97157 0.44077 0.3277 0.0
C68 C 0.93714 0.44373 0.33769 0.0
C69 C 0.94017 0.48177 0.33967 0.0
C70 C 0.97847 0.51652 0.33157 0.0
C71 C 0.01209 0.51338 0.321 0.0
C72 C 0.07562 0.41111 0.14486 0.0
C73 C 0.28882 0.61471 0.36029 0.0
H74 H 0.63309 0.09616 0.3165 0.0
H75 H 0.55993 0.29161 0.58603 0.0
H76 H 0.56756 0.0064 0.46482 0.0
H77 H 0.55302 0.95179 0.42973 0.0
H78 H 0.42368 0.92467 0.42012 0.0
H79 H 0.43826 0.97789 0.45607 0.0
H80 H 0.6153 0.10258 0.44395 0.0
H81 H 0.63549 0.10566 0.39238 0.0
H82 H 0.50328 0.04762 0.36618 0.0
H83 H 0.48363 0.04523 0.41778 0.0
H84 H 0.62426 0.1742 0.49069 0.0
H85 H 0.65284 0.2411 0.46878 0.0
H86 H 0.53857 0.19482 0.41606 0.0
H87 H 0.50973 0.12825 0.43858 0.0
H88 H 0.59735 0.14323 0.55394 0.0
H89 H 0.61393 0.20365 0.58311 0.0
H90 H 0.51572 0.21109 0.53614 0.0
H91 H 0.49896 0.1502 0.50751 0.0
H92 H 0.55544 0.05305 0.56958 0.0
H93 H 0.5574 0.07101 0.62167 0.0
H94 H 0.4593 0.09872 0.60519 0.0
H95 H 0.45698 0.07983 0.55343 0.0
H96 H 0.52278 0.97548 0.52897 0.0
H97 H 0.47425 0.90804 0.54872 0.0
H98 H 0.36981 0.92854 0.53809 0.0
H99 H 0.41884 0.99611 0.51982 0.0
O100 O 0.62444 0.09484 0.33673 0.0
O101 O 0.556 0.06468 0.32445 0.0
O102 O 0.60368 0.2621 0.59863 0.0
O103 O 0.55409 0.26771 0.57478 0.0
C104 C 0.51462 0.03313 0.48 0.0
C105 C 0.53597 0.07111 0.46592 0.0
C106 C 0.5457 0.10684 0.48162 0.0
C107 C 0.53585 0.10473 0.51179 0.0
C108 C 0.51448 0.06671 0.52582 0.0
C109 C 0.50266 0.03076 0.50972 0.0
C110 C 0.5039 0.99592 0.46294 0.0
C111 C 0.53581 0.98777 0.45567 0.0
C112 C 0.52753 0.95686 0.43537 0.0
C113 C 0.48726 0.9339 0.42177 0.0
C114 C 0.45486 0.94107 0.43038 0.0
C115 C 0.46308 0.97163 0.4509 0.0
C116 C 0.54803 0.07344 0.43457 0.0
C117 C 0.5908 0.09066 0.42701 0.0
C118 C 0.60221 0.09231 0.39755 0.0
C119 C 0.57098 0.07676 0.37515 0.0
C120 C 0.52811 0.05976 0.38287 0.0
C121 C 0.51679 0.05824 0.41232 0.0
C122 C 0.56485 0.14635 0.46632 0.0
C123 C 0.60547 0.17848 0.47435 0.0
C124 C 0.62166 0.21663 0.46189 0.0
C125 C 0.5978 0.22318 0.44084 0.0
C126 C 0.55775 0.19058 0.43208 0.0
C127 C 0.54131 0.15257 0.44487 0.0
C128 C 0.54692 0.14234 0.52867 0.0
C129 C 0.57943 0.15794 0.55003 0.0
C130 C 0.58886 0.19247 0.56662 0.0
C131 C 0.56612 0.21221 0.56195 0.0
C132 C 0.53383 0.19665 0.5403 0.0
C133 C 0.52428 0.16197 0.52385 0.0
C134 C 0.5063 0.06547 0.55779 0.0
C135 C 0.5332 0.06142 0.57752 0.0
C136 C 0.53465 0.07218 0.60715 0.0
C137 C 0.50908 0.08701 0.61742 0.0
C138 C 0.47927 0.08725 0.59805 0.0
C139 C 0.47784 0.07645 0.56846 0.0
C140 C 0.4743 0.99066 0.52308 0.0
C141 C 0.48947 0.96539 0.53131 0.0
C142 C 0.46156 0.92675 0.54238 0.0
C143 C 0.41787 0.91254 0.54511 0.0
C144 C 0.40319 0.93845 0.53703 0.0
C145 C 0.43114 0.9771 0.52633 0.0
C146 C 0.58317 0.07832 0.3439 0.0
C147 C 0.57589 0.24881 0.5796 0.0
H148 H 0.5443 0.56512 0.83544 0.0
H149 H 0.65631 0.42724 0.53767 0.0
H150 H 0.58429 0.65691 0.68516 0.0
H151 H 0.55345 0.66828 0.72886 0.0
H152 H 0.43065 0.56604 0.7036 0.0
H153 H 0.46232 0.55407 0.66044 0.0
H154 H 0.60914 0.60917 0.71592 0.0
H155 H 0.59403 0.59998 0.76859 0.0
H156 H 0.47338 0.4911 0.74896 0.0
H157 H 0.48853 0.50123 0.69634 0.0
H158 H 0.63787 0.54917 0.69398 0.0
H159 H 0.63793 0.49437 0.72135 0.0
H160 H 0.51868 0.40723 0.67939 0.0
H161 H 0.51877 0.46179 0.65265 0.0
H162 H 0.66983 0.57533 0.6239 0.0
H163 H 0.70474 0.54477 0.59755 0.0
H164 H 0.58188 0.44512 0.56919 0.0
H165 H 0.54749 0.47613 0.59554 0.0
H166 H 0.64964 0.63427 0.5924 0.0
H167 H 0.68877 0.62962 0.55112 0.0
H168 H 0.57345 0.52483 0.51752 0.0
H169 H 0.53508 0.52873 0.55987 0.0
H170 H 0.56472 0.66589 0.62095 0.0
H171 H 0.51452 0.68361 0.60071 0.0
H172 H 0.43604 0.56103 0.56692 0.0
H173 H 0.48564 0.54344 0.58768 0.0
O174 O 0.54996 0.5679 0.81456 0.0
O175 O 0.49103 0.50929 0.80356 0.0
O176 O 0.7057 0.4909 0.56457 0.0
O177 O 0.64334 0.43947 0.54888 0.0
C178 C 0.54703 0.58607 0.65424 0.0
C179 C 0.55876 0.56217 0.67051 0.0
C180 C 0.57591 0.5415 0.65605 0.0
C181 C 0.58542 0.54781 0.62606 0.0
C182 C 0.57454 0.57235 0.6098 0.0
C183 C 0.55271 0.58935 0.62345 0.0
C184 C 0.52565 0.60422 0.67009 0.0
C185 C 0.55027 0.63843 0.68818 0.0
C186 C 0.53253 0.64482 0.71324 0.0
C187 C 0.48993 0.61716 0.72015 0.0
C188 C 0.46386 0.58717 0.69917 0.0
C189 C 0.48174 0.58057 0.6743 0.0
C190 C 0.54982 0.55599 0.70244 0.0
C191 C 0.57946 0.58342 0.7231 0.0
C192 C 0.57074 0.57807 0.75313 0.0
C193 C 0.53248 0.54482 0.76299 0.0
C194 C 0.50317 0.517 0.74212 0.0
C195 C 0.5117 0.52269 0.71209 0.0
C196 C 0.57838 0.50918 0.67137 0.0
C197 C 0.61204 0.51814 0.69069 0.0
C198 C 0.61201 0.48696 0.70621 0.0
C199 C 0.57807 0.44668 0.7027 0.0
C200 C 0.54485 0.43805 0.68294 0.0
C201 C 0.54503 0.46903 0.66744 0.0
C202 C 0.60625 0.52797 0.61147 0.0
C203 C 0.65058 0.54676 0.61214 0.0
C204 C 0.67039 0.52928 0.59703 0.0
C205 C 0.64608 0.49253 0.58119 0.0
C206 C 0.60154 0.47343 0.58113 0.0
C207 C 0.58181 0.491 0.59619 0.0
C208 C 0.58959 0.58175 0.57923 0.0
C209 C 0.6323 0.61171 0.57526 0.0
C210 C 0.65479 0.60867 0.55172 0.0
C211 C 0.63457 0.57594 0.53155 0.0
C212 C 0.59028 0.54959 0.53326 0.0
C213 C 0.56793 0.55241 0.55703 0.0
C214 C 0.52907 0.60345 0.60561 0.0
C215 C 0.53731 0.64324 0.60845 0.0
C216 C 0.50858 0.65327 0.59689 0.0
C217 C 0.47104 0.62355 0.58251 0.0
C218 C 0.46434 0.58443 0.57821 0.0
C219 C 0.49303 0.57451 0.58967 0.0
C220 C 0.52314 0.53941 0.79488 0.0
C221 C 0.66699 0.47434 0.56448 0.0
H222 H 0.97419 0.3426 0.99374 0.0
H223 H 0.29266 0.54064 0.73645 0.0
H224 H 0.95303 0.433 0.83326 0.0
H225 H 0.90486 0.41794 0.87363 0.0
H226 H 0.88069 0.2955 0.87552 0.0
H227 H 0.92931 0.3111 0.83436 0.0
H228 H 0.00569 0.42664 0.88221 0.0
H229 H 0.99152 0.40078 0.93225 0.0
H230 H 0.00755 0.30171 0.9043 0.0
H231 H 0.02111 0.32768 0.85414 0.0
H232 H 0.08894 0.46626 0.86987 0.0
H233 H 0.15082 0.48699 0.90122 0.0
H234 H 0.18154 0.41059 0.84935 0.0
H235 H 0.11663 0.38662 0.82034 0.0
H236 H 0.11596 0.51347 0.79899 0.0
H237 H 0.18879 0.55923 0.7827 0.0
H238 H 0.19509 0.45583 0.75154 0.0
H239 H 0.12216 0.41052 0.76775 0.0
H240 H 0.02692 0.48916 0.76198 0.0
H241 H 0.0595 0.53453 0.72103 0.0
H242 H 0.10528 0.45787 0.68837 0.0
H243 H 0.06765 0.41033 0.72726 0.0
H244 H 0.95573 0.44771 0.78006 0.0
H245 H 0.88308 0.42191 0.7625 0.0
H246 H 0.87232 0.30819 0.73782 0.0
H247 H 0.94507 0.33432 0.75535 0.0
O248 O 0.98039 0.35252 0.97385 0.0
O249 O 0.98964 0.30252 0.95856 0.0
O250 O 0.25882 0.57542 0.75922 0.0
O251 O 0.26383 0.52327 0.74308 0.0
C252 C 0.9864 0.38828 0.81636 0.0
C253 C 0.02087 0.39365 0.83382 0.0
C254 C 0.06235 0.41505 0.82277 0.0
C255 C 0.06964 0.43138 0.79431 0.0
C256 C 0.03511 0.42517 0.77631 0.0
C257 C 0.99329 0.40299 0.7873 0.0
C258 C 0.94484 0.37325 0.83083 0.0
C259 C 0.93529 0.40212 0.84097 0.0
C260 C 0.90783 0.39344 0.86444 0.0
C261 C 0.8896 0.35572 0.87835 0.0
C262 C 0.89492 0.3251 0.86565 0.0
C263 C 0.92222 0.33376 0.84187 0.0
C264 C 0.01392 0.37874 0.86451 0.0
C265 C 0.00596 0.39927 0.88692 0.0
C266 C 0.99804 0.38451 0.91551 0.0
C267 C -0.00172 0.3491 0.92227 0.0
C268 C 0.007 0.32899 0.89982 0.0
C269 C 0.01482 0.34376 0.87118 0.0
C270 C 0.0987 0.42537 0.84263 0.0
C271 C 0.10843 0.45316 0.86587 0.0
C272 C 0.14413 0.4653 0.88355 0.0
C273 C 0.1719 0.45123 0.87751 0.0
C274 C 0.16087 0.42189 0.85495 0.0
C275 C 0.12421 0.40868 0.83791 0.0
C276 C 0.11399 0.45878 0.78464 0.0
C277 C 0.13322 0.50083 0.78868 0.0
C278 C 0.17476 0.52685 0.77935 0.0
C279 C 0.1978 0.51117 0.76585 0.0
C280 C 0.17831 0.46892 0.76189 0.0
C281 C 0.13673 0.44295 0.7712 0.0
C282 C 0.04446 0.4461 0.7476 0.0
C283 C 0.04195 0.48104 0.74504 0.0
C284 C 0.06206 0.50781 0.72196 0.0
C285 C 0.08668 0.50114 0.70149 0.0
C286 C 0.08668 0.46455 0.70319 0.0
C287 C 0.06512 0.43705 0.72562 0.0
C288 C 0.95581 0.393 0.76879 0.0
C289 C 0.9384 0.41791 0.76971 0.0
C290 C 0.8967 0.40293 0.76001 0.0
C291 C 0.87187 0.36285 0.74915 0.0
C292 C 0.89073 0.33926 0.74589 0.0
C293 C 0.93233 0.35418 0.7558 0.0
C294 C 0.98925 0.33321 0.95261 0.0
C295 C 0.24195 0.53867 0.75589 0.0
H296 H 0.40634 0.99296 0.79626 0.0
H297 H 0.3905 0.71988 0.03392 0.0
H298 H 0.44075 0.04352 0.95156 0.0
H299 H 0.46585 0.10326 0.92165 0.0
H300 H 0.59544 0.13274 0.93519 0.0
H301 H 0.56932 0.07105 0.96384 0.0
H302 H 0.39294 0.95462 0.92129 0.0
H303 H 0.38559 0.96492 0.8691 0.0
H304 H 0.5218 0.02409 0.85976 0.0
H305 H 0.52861 0.01305 0.91182 0.0
H306 H 0.36969 0.87164 0.95871 0.0
H307 H 0.34904 0.80776 0.93252 0.0
H308 H 0.47384 0.86343 0.8944 0.0
H309 H 0.49468 0.92634 0.92128 0.0
H310 H 0.3859 0.89085 0.02892 0.0
H311 H 0.35624 0.82178 0.04689 0.0
H312 H 0.45333 0.81223 0.00057 0.0
H313 H 0.4831 0.88151 0.98323 0.0
H314 H 0.44335 0.9878 0.0589 0.0
H315 H 0.4441 0.97205 0.11066 0.0
H316 H 0.51505 0.91418 0.08866 0.0
H317 H 0.51698 0.93304 0.03753 0.0
H318 H 0.48104 0.06906 0.01802 0.0
H319 H 0.53441 0.13378 0.04079 0.0
H320 H 0.61842 0.08738 0.05185 0.0
H321 H 0.56633 0.02418 0.02734 0.0
O322 O 0.40993 0.98895 0.81679 0.0
O323 O 0.48014 0.01945 0.81324 0.0
O324 O 0.35324 0.75417 0.05146 0.0
O325 O 0.40183 0.7474 0.0274 0.0
C326 C 0.48644 0.01168 0.97157 0.0
C327 C 0.46564 0.97769 0.95224 0.0
C328 C 0.45001 0.93836 0.96299 0.0
C329 C 0.4538 0.93273 0.99328 0.0
C330 C 0.475 0.96676 0.01259 0.0
C331 C 0.49213 0.00633 0.0016 0.0
C332 C 0.50313 0.05277 0.95956 0.0
C333 C 0.47463 0.0634 0.9486 0.0
C334 C 0.48922 0.09789 0.93166 0.0
C335 C 0.5328 0.12285 0.92569 0.0
C336 C 0.56164 0.11383 0.93885 0.0
C337 C 0.54687 0.07888 0.95551 0.0
C338 C 0.4613 0.98334 0.92037 0.0
C339 C 0.4211 0.96965 0.90789 0.0
C340 C 0.41703 0.97566 0.8781 0.0
C341 C 0.45312 0.99546 0.86027 0.0
C342 C 0.49336 0.00884 0.87286 0.0
C343 C 0.49736 0.00269 0.90261 0.0
C344 C 0.43381 0.9034 0.94214 0.0
C345 C 0.39212 0.87026 0.9441 0.0
C346 C 0.38038 0.83397 0.92914 0.0
C347 C 0.40995 0.83082 0.91158 0.0
C348 C 0.45032 0.86524 0.90752 0.0
C349 C 0.46227 0.90117 0.92288 0.0
C350 C 0.43648 0.89109 0.00466 0.0
C351 C 0.40081 0.87383 0.02282 0.0
C352 C 0.3839 0.83437 0.03298 0.0
C353 C 0.40235 0.81143 0.02508 0.0
C354 C 0.4383 0.82899 0.00703 0.0
C355 C 0.45531 0.86852 0.99703 0.0
C356 C 0.47929 0.96078 0.04436 0.0
C357 C 0.45979 0.97248 0.06544 0.0
C358 C 0.45991 0.96304 0.09497 0.0
C359 C 0.47891 0.94108 0.10389 0.0
C360 C 0.50034 0.93133 0.08282 0.0
C361 C 0.50094 0.94153 0.05342 0.0
C362 C 0.52009 0.04218 0.02058 0.0
C363 C 0.51081 0.07281 0.02571 0.0
C364 C 0.54117 0.1096 0.03898 0.0
C365 C 0.58097 0.11597 0.04765 0.0
C366 C 0.5885 0.0838 0.04476 0.0
C367 C 0.55855 0.04746 0.03106 0.0
C368 C 0.44873 0.00207 0.82869 0.0
C369 C 0.38422 0.76932 0.03551 0.0
H370 H 0.58873 0.54788 0.94588 0.0
H371 H 0.72335 0.4735 0.26549 0.0
H372 H 0.52992 0.5848 0.11479 0.0
H373 H 0.50429 0.60427 0.07207 0.0
H374 H 0.63367 0.68701 0.04641 0.0
H375 H 0.65925 0.66896 0.09011 0.0
H376 H 0.56035 0.53145 0.0727 0.0
H377 H 0.55996 0.52876 0.01888 0.0
H378 H 0.69344 0.62123 0.01929 0.0
H379 H 0.69318 0.62399 0.07307 0.0
H380 H 0.60549 0.47665 0.11298 0.0
H381 H 0.64414 0.44469 0.09531 0.0
H382 H 0.75776 0.56338 0.08815 0.0
H383 H 0.71973 0.5942 0.1086 0.0
H384 H 0.58705 0.47304 0.16792 0.0
H385 H 0.60657 0.43604 0.2016 0.0
H386 H 0.72604 0.54659 0.22049 0.0
H387 H 0.70625 0.58305 0.18649 0.0
H388 H 0.5521 0.51149 0.20033 0.0
H389 H 0.5584 0.49436 0.25105 0.0
H390 H 0.67199 0.61239 0.26295 0.0
H391 H 0.66545 0.62894 0.21245 0.0
H392 H 0.53328 0.57816 0.18514 0.0
H393 H 0.51546 0.62213 0.21295 0.0
H394 H 0.63333 0.72723 0.18617 0.0
H395 H 0.65063 0.68296 0.15819 0.0
O396 O 0.58978 0.54893 0.96716 0.0
O397 O 0.6589 0.59496 0.96857 0.0
O398 O 0.65512 0.43036 0.23917 0.0
O399 O 0.71561 0.487 0.25114 0.0
C400 C 0.61065 0.60252 0.12347 0.0
C401 C 0.62618 0.57978 0.10934 0.0
C402 C 0.63824 0.55681 0.12611 0.0
C403 C 0.63171 0.55386 0.15664 0.0
C404 C 0.61429 0.57494 0.17061 0.0
C405 C 0.6055 0.60076 0.15429 0.0
C406 C 0.59638 0.6249 0.10515 0.0
C407 C 0.55274 0.60881 0.10092 0.0
C408 C 0.53816 0.61986 0.07648 0.0
C409 C 0.56714 0.64667 0.05591 0.0
C410 C 0.61085 0.66622 0.06202 0.0
C411 C 0.6254 0.65592 0.08688 0.0
C412 C 0.62688 0.57754 0.07673 0.0
C413 C 0.58952 0.55088 0.06109 0.0
C414 C 0.58939 0.54945 0.03037 0.0
C415 C 0.62673 0.57463 0.01478 0.0
C416 C 0.6642 0.60124 0.03062 0.0
C417 C 0.66422 0.60271 0.06134 0.0
C418 C 0.65991 0.53764 0.11208 0.0
C419 C 0.63875 0.49555 0.10758 0.0
C420 C 0.66087 0.47745 0.09714 0.0
C421 C 0.70435 0.50134 0.09042 0.0
C422 C 0.7247 0.5438 0.09376 0.0
C423 C 0.70287 0.56164 0.10498 0.0
C424 C 0.64542 0.53057 0.17461 0.0
C425 C 0.61775 0.48898 0.17893 0.0
C426 C 0.62887 0.46802 0.19833 0.0
C427 C 0.66785 0.48841 0.21381 0.0
C428 C 0.6958 0.52998 0.20894 0.0
C429 C 0.6847 0.55084 0.18944 0.0
C430 C 0.60855 0.57132 0.2028 0.0
C431 C 0.57717 0.53425 0.21442 0.0
C432 C 0.58108 0.52433 0.24321 0.0
C433 C 0.61605 0.55172 0.26076 0.0
C434 C 0.64453 0.59068 0.25005 0.0
C435 C 0.64079 0.60038 0.22121 0.0
C436 C 0.59323 0.62736 0.16966 0.0
C437 C 0.55516 0.61068 0.18525 0.0
C438 C 0.54524 0.63584 0.2013 0.0
C439 C 0.5732 0.6782 0.20201 0.0
C440 C 0.611 0.69481 0.18592 0.0
C441 C 0.62091 0.66959 0.16992 0.0
C442 C 0.6263 0.57352 0.98213 0.0
C443 C 0.67904 0.46668 0.23536 0.0
Zn444 Zn 0.76762 0.55173 0.39521 0.0
Zn445 Zn 0.71372 0.47332 0.40059 0.0
O446 O 0.77069 0.47797 0.38964 0.0
O447 O 0.81449 0.54302 0.38214 0.0
O448 O 0.67839 0.41453 0.41197 0.0
O449 O 0.76091 0.56656 0.43641 0.0
O450 O 0.70909 0.50276 0.43728 0.0
C451 C 0.80701 0.50703 0.38208 0.0
C452 C 0.69285 0.51724 0.35636 0.0
O453 O 0.68385 0.48269 0.3659 0.0
O454 O 0.7255 0.5494 0.36579 0.0
C455 C 0.6663 0.38444 0.39443 0.0
O456 O 0.67446 0.39093 0.36627 0.0
C457 C 0.72868 0.53827 0.44888 0.0
Zn458 Zn 0.20305 0.68103 0.57234 0.0
Zn459 Zn 0.25856 0.65467 0.56766 0.0
O460 O 0.29493 0.71754 0.56879 0.0
O461 O 0.25102 0.73983 0.57437 0.0
O462 O 0.30311 0.63851 0.56852 0.0
O463 O 0.17842 0.64837 0.60938 0.0
O464 O 0.2199 0.62339 0.60246 0.0
C465 C 0.28849 0.74696 0.57141 0.0
C466 C 0.19462 0.63373 0.51844 0.0
O467 O 0.22569 0.63194 0.52912 0.0
O468 O 0.18006 0.65279 0.53222 0.0
C469 C 0.33971 0.66002 0.55729 0.0
O470 O 0.34861 0.69299 0.54317 0.0
C471 C 0.19037 0.6241 0.61657 0.0
Zn472 Zn 0.51943 0.22132 0.76981 0.0
Zn473 Zn 0.60409 0.25211 0.76411 0.0
O474 O 0.59605 0.29991 0.75546 0.0
O475 O 0.5274 0.27543 0.75944 0.0
O476 O 0.66778 0.27858 0.76196 0.0
O477 O 0.5237 0.20929 0.81222 0.0
O478 O 0.59123 0.22973 0.80603 0.0
C479 C 0.56435 0.30477 0.7542 0.0
C480 C 0.54127 0.18165 0.72425 0.0
O481 O 0.57931 0.2078 0.73198 0.0
O482 O 0.51032 0.18065 0.73727 0.0
C483 C 0.68874 0.28015 0.73931 0.0
O484 O 0.66842 0.26222 0.71472 0.0
C485 C 0.55849 0.21477 0.82221 0.0
Zn486 Zn 0.43289 0.5551 0.89893 0.0
Zn487 Zn 0.42637 0.6229 0.90002 0.0
O488 O 0.36703 0.57534 0.90465 0.0
O489 O 0.36972 0.51975 0.90779 0.0
O490 O 0.41679 0.66933 0.90329 0.0
O491 O 0.47703 0.5819 0.93193 0.0
O492 O 0.46619 0.63306 0.93441 0.0
C493 C 0.34844 0.53719 0.90786 0.0
C494 C 0.45372 0.60021 0.84402 0.0
O495 O 0.4489 0.62584 0.85874 0.0
O496 O 0.44845 0.56839 0.85602 0.0
C497 C 0.40951 0.6858 0.88186 0.0
O498 O 0.40941 0.6733 0.85482 0.0
C499 C 0.48424 0.61478 0.944 0.0
Zn500 Zn 0.87504 0.41981 0.05067 0.0
Zn501 Zn 0.80297 0.34815 0.0557 0.0
O502 O 0.77964 0.38577 0.05813 0.0
O503 O 0.83943 0.44514 0.05975 0.0
O504 O 0.75237 0.29216 0.05764 0.0
O505 O 0.88098 0.40638 0.00845 0.0
O506 O 0.82503 0.34547 0.0148 0.0
C507 C 0.79922 0.42423 0.06082 0.0
C508 C 0.87591 0.37624 0.1006 0.0
O509 O 0.83736 0.35268 0.09272 0.0
O510 O 0.90075 0.40587 0.08476 0.0
C511 C 0.71776 0.28026 0.07106 0.0
O512 O 0.71253 0.30641 0.08651 0.0
C513 C 0.85499 0.37097 -0.00122 0.0
Zn514 Zn 0.39397 0.8128 0.26247 0.0
Zn515 Zn 0.46509 0.80977 0.25735 0.0
O516 O 0.41544 0.75074 0.25347 0.0
O517 O 0.35716 0.75358 0.25218 0.0
O518 O 0.51308 0.80024 0.24928 0.0
O519 O 0.41344 0.85293 0.22963 0.0
O520 O 0.46943 0.847 0.22377 0.0
C521 C 0.37538 0.73338 0.25055 0.0
C522 C 0.44858 0.8402 0.31468 0.0
O523 O 0.47438 0.83568 0.29874 0.0
O524 O 0.41241 0.83097 0.30465 0.0
C525 C 0.51301 0.77132 0.26252 0.0
O526 O 0.4866 0.75404 0.28434 0.0
C527 C 0.4469 0.86171 0.21583 0.0
C528 C 0.31022 0.62272 0.26709 0.0
C529 C 0.28466 0.60752 0.24149 0.0
H530 H 0.35987 0.67527 0.2898 0.0
C531 C 0.29509 0.63291 0.21706 0.0
H532 H 0.30291 0.60432 0.28648 0.0
C533 C 0.32678 0.67379 0.21945 0.0
C534 C 0.3495 0.68947 0.24588 0.0
H535 H 0.27662 0.62197 0.19685 0.0
H536 H 0.33204 0.69361 0.20119 0.0
C537 C 0.34262 0.66344 0.26918 0.0
C538 C 0.61269 0.26978 0.39841 0.0
C539 C 0.61415 0.26425 0.42879 0.0
H540 H 0.62822 0.31214 0.36364 0.0
C541 C 0.63138 0.2983 0.44778 0.0
H542 H 0.59966 0.24405 0.38328 0.0
C543 C 0.64727 0.33712 0.43664 0.0
C544 C 0.64676 0.34288 0.40619 0.0
H545 H 0.63238 0.29488 0.47133 0.0
H546 H 0.66065 0.36271 0.45191 0.0
C547 C 0.62911 0.30875 0.38719 0.0
C548 C 0.44736 0.66871 0.56091 0.0
C549 C 0.43729 0.63214 0.57428 0.0
H550 H 0.42441 0.70595 0.54465 0.0
C551 C 0.39463 0.6042 0.58099 0.0
H552 H 0.47989 0.69071 0.55534 0.0
C553 C 0.36288 0.61292 0.57499 0.0
C554 C 0.37297 0.6497 0.56198 0.0
H555 H 0.38587 0.576 0.59169 0.0
H556 H 0.33049 0.59101 0.58094 0.0
C557 C 0.41551 0.67729 0.55466 0.0
C558 C 0.80392 0.31862 0.72063 0.0
C559 C 0.82531 0.34397 0.74505 0.0
H560 H 0.74387 0.27878 0.69945 0.0
C561 C 0.80151 0.34884 0.76706 0.0
H562 H 0.82151 0.3143 0.70336 0.0
C563 C 0.75729 0.32828 0.76503 0.0
C564 C 0.73575 0.30256 0.74081 0.0
H565 H 0.81701 0.36757 0.78642 0.0
H566 H 0.73997 0.33235 0.78262 0.0
C567 C 0.75954 0.29834 0.71841 0.0
C568 C 0.3901 0.76031 0.92272 0.0
C569 C 0.40203 0.79076 0.90185 0.0
H570 H 0.38338 0.70323 0.93268 0.0
C571 C 0.4124 0.78467 0.8733 0.0
H572 H 0.38261 0.76455 0.94502 0.0
C573 C 0.41267 0.74936 0.86616 0.0
C574 C 0.40345 0.72018 0.88768 0.0
H575 H 0.42184 0.80788 0.85691 0.0
H576 H 0.42224 0.74594 0.84433 0.0
C577 C 0.39105 0.72545 0.91575 0.0
C578 C 0.77173 0.49969 0.09032 0.0
C579 C 0.72896 0.48214 0.08147 0.0
H580 H 0.82744 0.49547 0.09029 0.0
C581 C 0.70984 0.44562 0.06491 0.0
H582 H 0.7874 0.52711 0.10375 0.0
C583 C 0.73266 0.42677 0.05802 0.0
C584 C 0.7753 0.44454 0.06692 0.0
H585 H 0.67726 0.43152 0.05723 0.0
H586 H 0.71702 0.39842 0.04559 0.0
C587 C 0.79474 0.48139 0.0828 0.0
C588 C 0.39238 0.83778 0.5469 0.0
C589 C 0.38719 0.8704 0.555 0.0
H590 H 0.36568 0.77341 0.54607 0.0
C591 C 0.35093 0.86196 0.5711 0.0
H592 H 0.41949 0.84278 0.53423 0.0
C593 C 0.31963 0.822 0.57735 0.0
C594 C 0.32408 0.78941 0.56818 0.0
H595 H 0.34624 0.88621 0.57848 0.0
H596 H 0.29151 0.8166 0.58891 0.0
C597 C 0.36135 0.79782 0.5536 0.0
C598 C 0.61226 0.40888 0.72084 0.0
C599 C 0.57668 0.41326 0.71931 0.0
H600 H 0.63637 0.37094 0.73317 0.0
C601 C 0.53846 0.38375 0.73199 0.0
H602 H 0.64208 0.43119 0.71117 0.0
C603 C 0.53509 0.34936 0.74443 0.0
C604 C 0.56991 0.34371 0.74452 0.0
H605 H 0.51077 0.3868 0.73163 0.0
H606 H 0.50475 0.32663 0.7532 0.0
C607 C 0.60891 0.37434 0.73334 0.0
C608 C 0.23594 0.44994 0.89616 0.0
C609 C 0.21462 0.47112 0.89174 0.0
H610 H 0.29544 0.45424 0.90508 0.0
C611 C 0.2365 0.51311 0.89772 0.0
H612 H 0.2198 0.41743 0.8925 0.0
C613 C 0.27926 0.53385 0.9056 0.0
C614 C 0.30158 0.51337 0.90716 0.0
H615 H 0.22167 0.5308 0.89431 0.0
H616 H 0.29543 0.56652 0.90845 0.0
C617 C 0.27917 0.47093 0.90369 0.0
C618 C 0.657 0.17109 0.04496 0.0
C619 C 0.61628 0.15713 0.05619 0.0
H620 H 0.72063 0.22034 0.04105 0.0
C621 C 0.60947 0.18364 0.07367 0.0
H622 H 0.66325 0.1519 0.03087 0.0
C623 C 0.64264 0.22354 0.07928 0.0
C624 C 0.68306 0.23754 0.0674 0.0
H625 H 0.57848 0.17368 0.08276 0.0
H626 H 0.6364 0.24355 0.09239 0.0
C627 C 0.68993 0.21064 0.05058 0.0
C628 C 0.54367 0.69311 0.24692 0.0
C629 C 0.56246 0.70482 0.21914 0.0
H630 H 0.51417 0.70538 0.28272 0.0
C631 C 0.56928 0.74129 0.20737 0.0
H632 H 0.53883 0.66565 0.2569 0.0
C633 C 0.55553 0.76435 0.22233 0.0
C634 C 0.53459 0.7514 0.24935 0.0
H635 H 0.58355 0.75113 0.18598 0.0
H636 H 0.55961 0.79134 0.21203 0.0
C637 C 0.52992 0.71613 0.26186 0.0
C638 C 0.89811 0.51642 0.33798 0.0
C639 C 0.90396 0.48594 0.34971 0.0
H640 H 0.86377 0.5473 0.33949 0.0
C641 C 0.87593 0.46093 0.3716 0.0
H642 H 0.91774 0.53533 0.32033 0.0
C643 C 0.84371 0.46707 0.38192 0.0
C644 C 0.83962 0.49888 0.37102 0.0
H645 H 0.87947 0.43731 0.38132 0.0
H646 H 0.82283 0.44774 0.39896 0.0
C647 C 0.8669 0.5232 0.34882 0.0
C648 C 0.16348 0.56311 0.45199 0.0
C649 C 0.13464 0.57067 0.4373 0.0
H650 H 0.20551 0.5775 0.48887 0.0
C651 C 0.1258 0.59925 0.44935 0.0
H652 H 0.17137 0.54168 0.44291 0.0
C653 C 0.14526 0.61973 0.47571 0.0
C654 C 0.17442 0.61245 0.49032 0.0
H655 H 0.10368 0.60562 0.43845 0.0
H656 H 0.13764 0.64147 0.48451 0.0
C657 C 0.18334 0.58394 0.47813 0.0
C658 C 0.55893 0.13407 0.65657 0.0
C659 C 0.51703 0.10693 0.64686 0.0
H660 H 0.59948 0.17881 0.6886 0.0
C661 C 0.48323 0.1023 0.6641 0.0
H662 H 0.58571 0.13886 0.64357 0.0
C663 C 0.49113 0.12551 0.68983 0.0
C664 C 0.53302 0.15393 0.69885 0.0
H665 H 0.45063 0.08138 0.65732 0.0
H666 H 0.46431 0.12194 0.70218 0.0
C667 C 0.56684 0.15725 0.6823 0.0
C668 C 0.4557 0.57507 0.76399 0.0
C669 C 0.47613 0.61351 0.75112 0.0
H670 H 0.43358 0.54101 0.80329 0.0
C671 C 0.48807 0.64791 0.76904 0.0
H672 H 0.4466 0.54795 0.75099 0.0
C673 C 0.48044 0.64384 0.79933 0.0
C674 C 0.46167 0.60542 0.81217 0.0
H675 H 0.50391 0.67792 0.75972 0.0
H676 H 0.49014 0.67075 0.81276 0.0
C677 C 0.44887 0.57111 0.79412 0.0
C678 C 0.88428 0.33432 0.93083 0.0
C679 C 0.87238 0.3517 0.90848 0.0
H680 H 0.88799 0.32694 0.97731 0.0
C681 C 0.85015 0.37112 0.91628 0.0
H682 H 0.90189 0.31959 0.92574 0.0
C683 C 0.84308 0.37593 0.9458 0.0
C684 C 0.85737 0.36076 0.96798 0.0
H685 H 0.84001 0.38432 0.89965 0.0
H686 H 0.82774 0.39272 0.95139 0.0
C687 C 0.87676 0.3388 0.96038 0.0
C688 C 0.43446 0.91159 0.14874 0.0
C689 C 0.47318 0.92526 0.13429 0.0
H690 H 0.39614 0.88145 0.18579 0.0
C691 C 0.50469 0.92067 0.14821 0.0
H692 H 0.40905 0.91379 0.1386 0.0
C693 C 0.49681 0.90109 0.17519 0.0
C694 C 0.4575 0.88625 0.18899 0.0
H695 H 0.53521 0.93152 0.13805 0.0
H696 H 0.52121 0.89695 0.18494 0.0
C697 C 0.42687 0.89265 0.17582 0.0
C698 C 0.64426 0.56516 0.31225 0.0
C699 C 0.62684 0.53834 0.28809 0.0
H700 H 0.67862 0.57909 0.35286 0.0
C701 C 0.62591 0.50127 0.28856 0.0
H702 H 0.64477 0.59355 0.31272 0.0
C703 C 0.64508 0.49275 0.31177 0.0
C704 C 0.66569 0.52139 0.33457 0.0
H705 H 0.61297 0.48012 0.27009 0.0
H706 H 0.64623 0.4652 0.31089 0.0
C707 C 0.66367 0.55687 0.33516 0.0
C708 C 0.43948 0.87058 0.39207 0.0
C709 C 0.47983 0.90537 0.39683 0.0
H710 H 0.39807 0.82271 0.36218 0.0
C711 C 0.51165 0.91483 0.37585 0.0
H712 H 0.41454 0.8616 0.40804 0.0
C713 C 0.50245 0.89164 0.34991 0.0
C714 C 0.46112 0.85911 0.34425 0.0
H715 H 0.54298 0.94157 0.37852 0.0
H716 H 0.52684 0.90091 0.33345 0.0
C717 C 0.4301 0.84805 0.36591 0.0
C718 C 0.69668 0.5978 0.49789 0.0
C719 C 0.66013 0.5666 0.51124 0.0
H720 H 0.74776 0.61339 0.46834 0.0
C721 C 0.64917 0.52614 0.50623 0.0
H722 H 0.70609 0.62927 0.50123 0.0
C723 C 0.67307 0.517 0.48739 0.0
C724 C 0.70866 0.5481 0.47318 0.0
H725 H 0.622 0.50136 0.51683 0.0
H726 H 0.66292 0.48545 0.48332 0.0
C727 C 0.72077 0.58866 0.47917 0.0
C728 C 0.12956 0.5745 0.68569 0.0
C729 C 0.11392 0.53299 0.67969 0.0
H730 H 0.16542 0.63568 0.67032 0.0
C731 C 0.12566 0.52256 0.65299 0.0
H732 H 0.12283 0.58449 0.7062 0.0
C733 C 0.15217 0.55247 0.63322 0.0
C734 C 0.16648 0.59345 0.63907 0.0
H735 H 0.11388 0.49124 0.64687 0.0
H736 H 0.16013 0.54335 0.61275 0.0
C737 C 0.15475 0.6042 0.66536 0.0
C738 C 0.57766 0.15955 0.88224 0.0
C739 C 0.54677 0.1544 0.90282 0.0
H740 H 0.60615 0.18355 0.84065 0.0
C741 C 0.52514 0.1753 0.8987 0.0
H742 H 0.59471 0.1437 0.88444 0.0
C743 C 0.53087 0.19714 0.87313 0.0
C744 C 0.55923 0.19947 0.85158 0.0
H745 H 0.50206 0.17306 0.91448 0.0
H746 H 0.5118 0.21077 0.86965 0.0
C747 C 0.58411 0.18223 0.85699 0.0
C748 C 0.51969 0.65557 0.02126 0.0
C749 C 0.55185 0.64686 0.02596 0.0
H750 H 0.47373 0.65321 0.9909 0.0
C751 C 0.56479 0.63174 0.00255 0.0
H752 H 0.50906 0.6669 0.03914 0.0
C753 C 0.54384 0.62267 0.97539 0.0
C754 C 0.51043 0.62972 0.97099 0.0
H755 H 0.58928 0.62449 0.00584 0.0
H756 H 0.55286 0.60899 0.95814 0.0
C757 C 0.49958 0.64768 0.99375 0.0
C758 C 0.94821 0.38582 0.1631 0.0
C759 C 0.92342 0.38257 0.1875 0.0
H760 H 0.95258 0.38682 0.11607 0.0
C761 C 0.88123 0.3723 0.18313 0.0
H762 H 0.98091 0.39391 0.16606 0.0
C763 C 0.86454 0.36683 0.15459 0.0
C764 C 0.89038 0.37302 0.13012 0.0
H765 H 0.8618 0.37003 0.20171 0.0
H766 H 0.83243 0.36057 0.15164 0.0
C767 C 0.93206 0.38176 0.1346 0.0
loop_
_geom_bond_atom_site_label_1
_geom_bond_atom_site_label_2
_geom_bond_distance
_geom_bond_site_symmetry_2
_ccdc_geom_bond_type
H0 O26 0.856 . S
H1 O29 0.854 . S
H2 C37 0.930 1_455 S
H3 C38 0.930 . S
H4 C40 0.930 . S
H5 C41 0.930 . S
H6 C43 0.931 . S
H7 C44 0.930 . S
H8 C46 0.930 . S
H9 C47 0.929 . S
H10 C49 0.930 . S
H11 C50 0.931 . S
H12 C52 0.930 . S
H13 C53 0.929 . S
H14 C55 0.931 . S
H15 C56 0.930 . S
H16 C58 0.930 . S
H17 C59 0.932 . S
H18 C61 0.930 . S
H19 C62 0.929 . S
H20 C64 0.931 . S
H21 C65 0.930 . S
H22 C67 0.929 . S
H23 C68 0.931 . S
H24 C70 0.930 . S
H25 C71 0.929 . S
O26 H0 0.856 . S
O26 C72 1.300 . S
O27 C72 1.209 . S
O28 C73 1.199 . S
O29 H1 0.854 . S
O29 C73 1.297 . S
C30 C31 1.404 . S
C30 C35 1.397 . S
C30 C36 1.492 . S
C31 C30 1.404 . S
C31 C32 1.396 . S
C31 C42 1.492 . S
C32 C31 1.396 . S
C32 C33 1.397 . S
C32 C48 1.509 . S
C33 C32 1.397 . S
C33 C34 1.412 . S
C33 C54 1.485 . S
C34 C33 1.412 . S
C34 C35 1.388 . S
C34 C60 1.490 . S
C35 C30 1.397 . S
C35 C34 1.388 . S
C35 C66 1.519 1_455 S
C36 C30 1.492 . S
C36 C37 1.363 1_455 S
C36 C41 1.390 1_455 S
C37 H2 0.930 1_655 S
C37 C36 1.363 1_655 S
C37 C38 1.372 . S
C38 H3 0.930 . S
C38 C37 1.372 . S
C38 C39 1.383 . S
C39 C38 1.383 . S
C39 C40 1.395 . S
C40 H4 0.930 . S
C40 C39 1.395 . S
C40 C41 1.362 . S
C41 H5 0.930 . S
C41 C36 1.390 1_655 S
C41 C40 1.362 . S
C42 C31 1.492 . S
C42 C43 1.377 . S
C42 C47 1.397 . S
C43 H6 0.931 . S
C43 C42 1.377 . S
C43 C44 1.376 . S
C44 H7 0.930 . S
C44 C43 1.376 . S
C44 C45 1.376 . S
C45 C44 1.376 . S
C45 C46 1.378 . S
C45 C72 1.486 . S
C46 H8 0.930 . S
C46 C45 1.378 . S
C46 C47 1.376 . S
C47 H9 0.929 . S
C47 C42 1.397 . S
C47 C46 1.376 . S
C48 C32 1.509 . S
C48 C49 1.391 . S
C48 C53 1.386 . S
C49 H10 0.930 . S
C49 C48 1.391 . S
C49 C50 1.375 . S
C50 H11 0.931 . S
C50 C49 1.375 . S
C50 C51 1.375 . S
C51 C50 1.375 . S
C51 C52 1.361 . S
C52 H12 0.930 . S
C52 C51 1.361 . S
C52 C53 1.399 . S
C53 H13 0.929 . S
C53 C48 1.386 . S
C53 C52 1.399 . S
C54 C33 1.485 . S
C54 C55 1.394 . S
C54 C59 1.360 . S
C55 H14 0.931 . S
C55 C54 1.394 . S
C55 C56 1.372 . S
C56 H15 0.930 . S
C56 C55 1.372 . S
C56 C57 1.397 . S
C57 C56 1.397 . S
C57 C58 1.390 . S
C57 C73 1.476 . S
C58 H16 0.930 . S
C58 C57 1.390 . S
C58 C59 1.366 . S
C59 H17 0.932 . S
C59 C54 1.360 . S
C59 C58 1.366 . S
C60 C34 1.490 . S
C60 C61 1.380 . S
C60 C65 1.386 . S
C61 H18 0.930 . S
C61 C60 1.380 . S
C61 C62 1.381 . S
C62 H19 0.929 . S
C62 C61 1.381 . S
C62 C63 1.371 . S
C63 C62 1.371 . S
C63 C64 1.380 . S
C64 H20 0.931 . S
C64 C63 1.380 . S
C64 C65 1.387 . S
C65 H21 0.930 . S
C65 C60 1.386 . S
C65 C64 1.387 . S
C66 C35 1.519 1_655 S
C66 C67 1.377 . S
C66 C71 1.361 . S
C67 H22 0.929 . S
C67 C66 1.377 . S
C67 C68 1.386 . S
C68 H23 0.931 . S
C68 C67 1.386 . S
C68 C69 1.363 . S
C69 C68 1.363 . S
C69 C70 1.385 . S
C70 H24 0.930 . S
C70 C69 1.385 . S
C70 C71 1.396 . S
C71 H25 0.929 . S
C71 C66 1.361 . S
C71 C70 1.396 . S
C72 O26 1.300 . S
C72 O27 1.209 . S
C72 C45 1.486 . S
C73 O28 1.199 . S
C73 O29 1.297 . S
C73 C57 1.476 . S
H74 O100 0.856 . S
H75 O103 0.854 . S
H76 C111 0.930 1_545 S
H77 C112 0.930 . S
H78 C114 0.930 . S
H79 C115 0.930 . S
H80 C117 0.931 . S
H81 C118 0.930 . S
H82 C120 0.930 . S
H83 C121 0.929 . S
H84 C123 0.930 . S
H85 C124 0.931 . S
H86 C126 0.930 . S
H87 C127 0.929 . S
H88 C129 0.931 . S
H89 C130 0.930 . S
H90 C132 0.930 . S
H91 C133 0.932 . S
H92 C135 0.930 . S
H93 C136 0.929 . S
H94 C138 0.931 . S
H95 C139 0.930 . S
H96 C141 0.929 . S
H97 C142 0.931 . S
H98 C144 0.930 . S
H99 C145 0.929 . S
O100 H74 0.856 . S
O100 C146 1.300 . S
O101 C146 1.209 . S
O102 C147 1.199 . S
O103 H75 0.854 . S
O103 C147 1.297 . S
C104 C105 1.404 . S
C104 C109 1.397 . S
C104 C110 1.492 1_545 S
C105 C104 1.404 . S
C105 C106 1.396 . S
C105 C116 1.492 . S
C106 C105 1.396 . S
C106 C107 1.397 . S
C106 C122 1.509 . S
C107 C106 1.397 . S
C107 C108 1.412 . S
C107 C128 1.485 . S
C108 C107 1.412 . S
C108 C109 1.388 . S
C108 C134 1.490 . S
C109 C104 1.397 . S
C109 C108 1.388 . S
C109 C140 1.519 1_545 S
C110 C104 1.492 1_565 S
C110 C111 1.363 . S
C110 C115 1.390 . S
C111 H76 0.930 1_565 S
C111 C110 1.363 . S
C111 C112 1.372 . S
C112 H77 0.930 . S
C112 C111 1.372 . S
C112 C113 1.383 . S
C113 C112 1.383 . S
C113 C114 1.395 . S
C114 H78 0.930 . S
C114 C113 1.395 . S
C114 C115 1.362 . S
C115 H79 0.930 . S
C115 C110 1.390 . S
C115 C114 1.362 . S
C116 C105 1.492 . S
C116 C117 1.377 . S
C116 C121 1.397 . S
C117 H80 0.931 . S
C117 C116 1.377 . S
C117 C118 1.376 . S
C118 H81 0.930 . S
C118 C117 1.376 . S
C118 C119 1.376 . S
C119 C118 1.376 . S
C119 C120 1.378 . S
C119 C146 1.486 . S
C120 H82 0.930 . S
C120 C119 1.378 . S
C120 C121 1.376 . S
C121 H83 0.929 . S
C121 C116 1.397 . S
C121 C120 1.376 . S
C122 C106 1.509 . S
C122 C123 1.391 . S
C122 C127 1.386 . S
C123 H84 0.930 . S
C123 C122 1.391 . S
C123 C124 1.375 . S
C124 H85 0.931 . S
C124 C123 1.375 . S
C124 C125 1.375 . S
C125 C124 1.375 . S
C125 C126 1.361 . S
C126 H86 0.930 . S
C126 C125 1.361 . S
C126 C127 1.399 . S
C127 H87 0.929 . S
C127 C122 1.386 . S
C127 C126 1.399 . S
C128 C107 1.485 . S
C128 C129 1.394 . S
C128 C133 1.360 . S
C129 H88 0.931 . S
C129 C128 1.394 . S
C129 C130 1.372 . S
C130 H89 0.930 . S
C130 C129 1.372 . S
C130 C131 1.397 . S
C131 C130 1.397 . S
C131 C132 1.390 . S
C131 C147 1.476 . S
C132 H90 0.930 . S
C132 C131 1.390 . S
C132 C133 1.366 . S
C133 H91 0.932 . S
C133 C128 1.360 . S
C133 C132 1.366 . S
C134 C108 1.490 . S
C134 C135 1.380 . S
C134 C139 1.386 . S
C135 H92 0.930 . S
C135 C134 1.380 . S
C135 C136 1.381 . S
C136 H93 0.929 . S
C136 C135 1.381 . S
C136 C137 1.371 . S
C137 C136 1.371 . S
C137 C138 1.380 . S
C138 H94 0.931 . S
C138 C137 1.380 . S
C138 C139 1.387 . S
C139 H95 0.930 . S
C139 C134 1.386 . S
C139 C138 1.387 . S
C140 C109 1.519 1_565 S
C140 C141 1.377 . S
C140 C145 1.361 . S
C141 H96 0.929 . S
C141 C140 1.377 . S
C141 C142 1.386 . S
C142 H97 0.931 . S
C142 C141 1.386 . S
C142 C143 1.363 . S
C143 C142 1.363 . S
C143 C144 1.385 . S
C144 H98 0.930 . S
C144 C143 1.385 . S
C144 C145 1.396 . S
C145 H99 0.929 . S
C145 C140 1.361 . S
C145 C144 1.396 . S
C146 O100 1.300 . S
C146 O101 1.209 . S
C146 C119 1.486 . S
C147 O102 1.199 . S
C147 O103 1.297 . S
C147 C131 1.476 . S
H148 O174 0.856 . S
H149 O177 0.854 . S
H150 C185 0.930 . S
H151 C186 0.930 . S
H152 C188 0.930 . S
H153 C189 0.930 . S
H154 C191 0.931 . S
H155 C192 0.930 . S
H156 C194 0.930 . S
H157 C195 0.929 . S
H158 C197 0.930 . S
H159 C198 0.931 . S
H160 C200 0.930 . S
H161 C201 0.929 . S
H162 C203 0.931 . S
H163 C204 0.930 . S
H164 C206 0.930 . S
H165 C207 0.932 . S
H166 C209 0.930 . S
H167 C210 0.929 . S
H168 C212 0.931 . S
H169 C213 0.930 . S
H170 C215 0.929 . S
H171 C216 0.931 . S
H172 C218 0.930 . S
H173 C219 0.929 . S
O174 H148 0.856 . S
O174 C220 1.300 . S
O175 C220 1.209 . S
O176 C221 1.199 . S
O177 H149 0.854 . S
O177 C221 1.297 . S
C178 C179 1.404 . S
C178 C183 1.397 . S
C178 C184 1.492 . S
C179 C178 1.404 . S
C179 C180 1.396 . S
C179 C190 1.492 . S
C180 C179 1.396 . S
C180 C181 1.397 . S
C180 C196 1.509 . S
C181 C180 1.397 . S
C181 C182 1.412 . S
C181 C202 1.485 . S
C182 C181 1.412 . S
C182 C183 1.388 . S
C182 C208 1.490 . S
C183 C178 1.397 . S
C183 C182 1.388 . S
C183 C214 1.519 . S
C184 C178 1.492 . S
C184 C185 1.363 . S
C184 C189 1.390 . S
C185 H150 0.930 . S
C185 C184 1.363 . S
C185 C186 1.372 . S
C186 H151 0.930 . S
C186 C185 1.372 . S
C186 C187 1.383 . S
C187 C186 1.383 . S
C187 C188 1.395 . S
C188 H152 0.930 . S
C188 C187 1.395 . S
C188 C189 1.362 . S
C189 H153 0.930 . S
C189 C184 1.390 . S
C189 C188 1.362 . S
C190 C179 1.492 . S
C190 C191 1.377 . S
C190 C195 1.397 . S
C191 H154 0.931 . S
C191 C190 1.377 . S
C191 C192 1.376 . S
C192 H155 0.930 . S
C192 C191 1.376 . S
C192 C193 1.376 . S
C193 C192 1.376 . S
C193 C194 1.378 . S
C193 C220 1.486 . S
C194 H156 0.930 . S
C194 C193 1.378 . S
C194 C195 1.376 . S
C195 H157 0.929 . S
C195 C190 1.397 . S
C195 C194 1.376 . S
C196 C180 1.509 . S
C196 C197 1.391 . S
C196 C201 1.386 . S
C197 H158 0.930 . S
C197 C196 1.391 . S
C197 C198 1.375 . S
C198 H159 0.931 . S
C198 C197 1.375 . S
C198 C199 1.375 . S
C199 C198 1.375 . S
C199 C200 1.361 . S
C200 H160 0.930 . S
C200 C199 1.361 . S
C200 C201 1.399 . S
C201 H161 0.929 . S
C201 C196 1.386 . S
C201 C200 1.399 . S
C202 C181 1.485 . S
C202 C203 1.394 . S
C202 C207 1.360 . S
C203 H162 0.931 . S
C203 C202 1.394 . S
C203 C204 1.372 . S
C204 H163 0.930 . S
C204 C203 1.372 . S
C204 C205 1.397 . S
C205 C204 1.397 . S
C205 C206 1.390 . S
C205 C221 1.476 . S
C206 H164 0.930 . S
C206 C205 1.390 . S
C206 C207 1.366 . S
C207 H165 0.932 . S
C207 C202 1.360 . S
C207 C206 1.366 . S
C208 C182 1.490 . S
C208 C209 1.380 . S
C208 C213 1.386 . S
C209 H166 0.930 . S
C209 C208 1.380 . S
C209 C210 1.381 . S
C210 H167 0.929 . S
C210 C209 1.381 . S
C210 C211 1.371 . S
C211 C210 1.371 . S
C211 C212 1.380 . S
C212 H168 0.931 . S
C212 C211 1.380 . S
C212 C213 1.387 . S
C213 H169 0.930 . S
C213 C208 1.386 . S
C213 C212 1.387 . S
C214 C183 1.519 . S
C214 C215 1.377 . S
C214 C219 1.361 . S
C215 H170 0.929 . S
C215 C214 1.377 . S
C215 C216 1.386 . S
C216 H171 0.931 . S
C216 C215 1.386 . S
C216 C217 1.363 . S
C217 C216 1.363 . S
C217 C218 1.385 . S
C218 H172 0.930 . S
C218 C217 1.385 . S
C218 C219 1.396 . S
C219 H173 0.929 . S
C219 C214 1.361 . S
C219 C218 1.396 . S
C220 O174 1.300 . S
C220 O175 1.209 . S
C220 C193 1.486 . S
C221 O176 1.199 . S
C221 O177 1.297 . S
C221 C205 1.476 . S
H222 O248 0.856 1_554 S
H223 O251 0.854 . S
H224 C259 0.930 1_455 S
H225 C260 0.930 . S
H226 C262 0.930 . S
H227 C263 0.930 . S
H228 C265 0.931 . S
H229 C266 0.930 . S
H230 C268 0.930 . S
H231 C269 0.929 . S
H232 C271 0.930 . S
H233 C272 0.931 . S
H234 C274 0.930 . S
H235 C275 0.929 . S
H236 C277 0.931 . S
H237 C278 0.930 . S
H238 C280 0.930 . S
H239 C281 0.932 . S
H240 C283 0.930 . S
H241 C284 0.929 . S
H242 C286 0.931 . S
H243 C287 0.930 . S
H244 C289 0.929 . S
H245 C290 0.931 . S
H246 C292 0.930 . S
H247 C293 0.929 . S
O248 H222 0.856 1_556 S
O248 C294 1.300 . S
O249 C294 1.209 . S
O250 C295 1.199 . S
O251 H223 0.854 . S
O251 C295 1.297 . S
C252 C253 1.404 . S
C252 C257 1.397 . S
C252 C258 1.496 . S
C253 C252 1.404 . S
C253 C254 1.396 . S
C253 C264 1.492 . S
C254 C253 1.396 . S
C254 C255 1.397 . S
C254 C270 1.509 . S
C255 C254 1.397 . S
C255 C256 1.412 . S
C255 C276 1.485 . S
C256 C255 1.412 . S
C256 C257 1.388 . S
C256 C282 1.490 . S
C257 C252 1.397 . S
C257 C256 1.388 . S
C257 C288 1.519 1_455 S
C258 C252 1.496 . S
C258 C259 1.360 1_455 S
C258 C263 1.389 1_455 S
C259 H224 0.930 1_655 S
C259 C258 1.360 1_655 S
C259 C260 1.372 . S
C260 H225 0.930 . S
C260 C259 1.372 . S
C260 C261 1.383 . S
C261 C260 1.383 . S
C261 C262 1.395 . S
C262 H226 0.930 . S
C262 C261 1.395 . S
C262 C263 1.362 . S
C263 H227 0.930 . S
C263 C258 1.389 1_655 S
C263 C262 1.362 . S
C264 C253 1.492 . S
C264 C265 1.377 . S
C264 C269 1.397 . S
C265 H228 0.931 . S
C265 C264 1.377 . S
C265 C266 1.376 . S
C266 H229 0.930 . S
C266 C265 1.376 . S
C266 C267 1.376 . S
C267 C266 1.376 . S
C267 C268 1.378 . S
C267 C294 1.486 . S
C268 H230 0.930 . S
C268 C267 1.378 . S
C268 C269 1.376 . S
C269 H231 0.929 . S
C269 C264 1.397 . S
C269 C268 1.376 . S
C270 C254 1.509 . S
C270 C271 1.391 . S
C270 C275 1.386 . S
C271 H232 0.930 . S
C271 C270 1.391 . S
C271 C272 1.375 . S
C272 H233 0.931 . S
C272 C271 1.375 . S
C272 C273 1.375 . S
C273 C272 1.375 . S
C273 C274 1.361 . S
C274 H234 0.930 . S
C274 C273 1.361 . S
C274 C275 1.399 . S
C275 H235 0.929 . S
C275 C270 1.386 . S
C275 C274 1.399 . S
C276 C255 1.485 . S
C276 C277 1.394 . S
C276 C281 1.360 . S
C277 H236 0.931 . S
C277 C276 1.394 . S
C277 C278 1.372 . S
C278 H237 0.930 . S
C278 C277 1.372 . S
C278 C279 1.397 . S
C279 C278 1.397 . S
C279 C280 1.390 . S
C279 C295 1.476 . S
C280 H238 0.930 . S
C280 C279 1.390 . S
C280 C281 1.366 . S
C281 H239 0.932 . S
C281 C276 1.360 . S
C281 C280 1.366 . S
C282 C256 1.490 . S
C282 C283 1.380 . S
C282 C287 1.386 . S
C283 H240 0.930 . S
C283 C282 1.380 . S
C283 C284 1.381 . S
C284 H241 0.929 . S
C284 C283 1.381 . S
C284 C285 1.371 . S
C285 C284 1.371 . S
C285 C286 1.380 . S
C286 H242 0.931 . S
C286 C285 1.380 . S
C286 C287 1.387 . S
C287 H243 0.930 . S
C287 C282 1.386 . S
C287 C286 1.387 . S
C288 C257 1.519 1_655 S
C288 C289 1.377 . S
C288 C293 1.361 . S
C289 H244 0.929 . S
C289 C288 1.377 . S
C289 C290 1.386 . S
C290 H245 0.931 . S
C290 C289 1.386 . S
C290 C291 1.363 . S
C291 C290 1.363 . S
C291 C292 1.385 . S
C292 H246 0.930 . S
C292 C291 1.385 . S
C292 C293 1.396 . S
C293 H247 0.929 . S
C293 C288 1.361 . S
C293 C292 1.396 . S
C294 O248 1.300 . S
C294 O249 1.209 . S
C294 C267 1.486 . S
C295 O250 1.199 . S
C295 O251 1.297 . S
C295 C279 1.476 . S
H296 O322 0.856 . S
H297 O325 0.854 . S
H298 C333 0.930 . S
H299 C334 0.930 . S
H300 C336 0.930 . S
H301 C337 0.930 . S
H302 C339 0.931 . S
H303 C340 0.930 . S
H304 C342 0.930 . S
H305 C343 0.929 . S
H306 C345 0.930 . S
H307 C346 0.931 . S
H308 C348 0.930 . S
H309 C349 0.929 . S
H310 C351 0.931 . S
H311 C352 0.930 . S
H312 C354 0.930 . S
H313 C355 0.932 . S
H314 C357 0.945 . S
H315 C358 0.929 . S
H316 C360 0.931 . S
H317 C361 0.930 . S
H318 C363 0.929 1_556 S
H319 C364 0.931 . S
H320 C366 0.930 . S
H321 C367 0.929 . S
O322 H296 0.856 . S
O322 C368 1.300 . S
O323 C368 1.209 . S
O324 C369 1.199 . S
O325 H297 0.854 . S
O325 C369 1.297 . S
C326 C327 1.404 1_545 S
C326 C331 1.397 . S
C326 C332 1.492 . S
C327 C326 1.404 1_565 S
C327 C328 1.396 . S
C327 C338 1.492 . S
C328 C327 1.396 . S
C328 C329 1.397 . S
C328 C344 1.509 . S
C329 C328 1.397 . S
C329 C330 1.412 1_556 S
C329 C350 1.485 1_556 S
C330 C329 1.412 1_554 S
C330 C331 1.388 1_564 S
C330 C356 1.490 . S
C331 C326 1.397 . S
C331 C330 1.388 1_546 S
C331 C362 1.519 1_556 S
C332 C326 1.492 . S
C332 C333 1.363 . S
C332 C337 1.390 . S
C333 H298 0.930 . S
C333 C332 1.363 . S
C333 C334 1.372 . S
C334 H299 0.930 . S
C334 C333 1.372 . S
C334 C335 1.383 . S
C335 C334 1.383 . S
C335 C336 1.395 . S
C336 H300 0.930 . S
C336 C335 1.395 . S
C336 C337 1.362 . S
C337 H301 0.930 . S
C337 C332 1.390 . S
C337 C336 1.362 . S
C338 C327 1.492 . S
C338 C339 1.377 . S
C338 C343 1.397 . S
C339 H302 0.931 . S
C339 C338 1.377 . S
C339 C340 1.376 . S
C340 H303 0.930 . S
C340 C339 1.376 . S
C340 C341 1.376 . S
C341 C340 1.376 . S
C341 C342 1.378 . S
C341 C368 1.486 . S
C342 H304 0.930 . S
C342 C341 1.378 . S
C342 C343 1.376 . S
C343 H305 0.929 . S
C343 C338 1.397 . S
C343 C342 1.376 . S
C344 C328 1.509 . S
C344 C345 1.391 . S
C344 C349 1.386 . S
C345 H306 0.930 . S
C345 C344 1.391 . S
C345 C346 1.375 . S
C346 H307 0.931 . S
C346 C345 1.375 . S
C346 C347 1.375 . S
C347 C346 1.375 . S
C347 C348 1.361 . S
C348 H308 0.930 . S
C348 C347 1.361 . S
C348 C349 1.399 . S
C349 H309 0.929 . S
C349 C344 1.386 . S
C349 C348 1.399 . S
C350 C329 1.485 1_554 S
C350 C351 1.394 . S
C350 C355 1.360 . S
C351 H310 0.931 . S
C351 C350 1.394 . S
C351 C352 1.372 . S
C352 H311 0.930 . S
C352 C351 1.372 . S
C352 C353 1.397 . S
C353 C352 1.397 . S
C353 C354 1.390 . S
C353 C369 1.476 . S
C354 H312 0.930 . S
C354 C353 1.390 . S
C354 C355 1.366 . S
C355 H313 0.932 . S
C355 C350 1.360 . S
C355 C354 1.366 . S
C356 C330 1.490 . S
C356 C357 1.380 . S
C356 C361 1.386 . S
C357 H314 0.945 . S
C357 C356 1.380 . S
C357 C358 1.381 1_565 S
C358 H315 0.929 . S
C358 C357 1.381 1_545 S
C358 C359 1.372 1_545 S
C359 C358 1.372 1_565 S
C359 C360 1.380 . S
C360 H316 0.931 . S
C360 C359 1.380 . S
C360 C361 1.387 . S
C361 H317 0.930 . S
C361 C356 1.386 . S
C361 C360 1.387 . S
C362 C331 1.519 1_554 S
C362 C363 1.377 . S
C362 C367 1.361 . S
C363 H318 0.929 1_554 S
C363 C362 1.377 . S
C363 C364 1.386 . S
C364 H319 0.931 . S
C364 C363 1.386 . S
C364 C365 1.363 . S
C365 C364 1.363 . S
C365 C366 1.385 . S
C366 H320 0.930 . S
C366 C365 1.385 . S
C366 C367 1.396 . S
C367 H321 0.929 . S
C367 C362 1.361 . S
C367 C366 1.396 . S
C368 O322 1.300 . S
C368 O323 1.209 . S
C368 C341 1.486 . S
C369 O324 1.199 . S
C369 O325 1.297 . S
C369 C353 1.476 . S
H370 O396 0.856 . S
H371 O399 0.854 . S
H372 C407 0.930 . S
H373 C408 0.930 . S
H374 C410 0.930 . S
H375 C411 0.930 . S
H376 C413 0.931 . S
H377 C414 0.930 . S
H378 C416 0.930 . S
H379 C417 0.929 . S
H380 C419 0.930 . S
H381 C420 0.931 . S
H382 C422 0.930 . S
H383 C423 0.929 . S
H384 C425 0.931 . S
H385 C426 0.930 . S
H386 C428 0.930 . S
H387 C429 0.932 . S
H388 C431 0.930 . S
H389 C432 0.929 . S
H390 C434 0.931 . S
H391 C435 0.930 . S
H392 C437 0.929 . S
H393 C438 0.931 . S
H394 C440 0.930 . S
H395 C441 0.929 . S
O396 H370 0.856 . S
O396 C442 1.300 . S
O397 C442 1.209 . S
O398 C443 1.199 . S
O399 H371 0.854 . S
O399 C443 1.297 . S
C400 C401 1.404 . S
C400 C405 1.397 . S
C400 C406 1.492 . S
C401 C400 1.404 . S
C401 C402 1.396 . S
C401 C412 1.492 . S
C402 C401 1.396 . S
C402 C403 1.397 . S
C402 C418 1.509 . S
C403 C402 1.397 . S
C403 C404 1.412 . S
C403 C424 1.485 . S
C404 C403 1.412 . S
C404 C405 1.388 . S
C404 C430 1.490 . S
C405 C400 1.397 . S
C405 C404 1.388 . S
C405 C436 1.519 . S
C406 C400 1.492 . S
C406 C407 1.363 . S
C406 C411 1.390 . S
C407 H372 0.930 . S
C407 C406 1.363 . S
C407 C408 1.372 . S
C408 H373 0.930 . S
C408 C407 1.372 . S
C408 C409 1.383 . S
C409 C408 1.383 . S
C409 C410 1.395 . S
C410 H374 0.930 . S
C410 C409 1.395 . S
C410 C411 1.362 . S
C411 H375 0.930 . S
C411 C406 1.390 . S
C411 C410 1.362 . S
C412 C401 1.492 . S
C412 C413 1.377 . S
C412 C417 1.397 . S
C413 H376 0.931 . S
C413 C412 1.377 . S
C413 C414 1.376 . S
C414 H377 0.930 . S
C414 C413 1.376 . S
C414 C415 1.376 . S
C415 C414 1.376 . S
C415 C416 1.378 . S
C415 C442 1.486 1_554 S
C416 H378 0.930 . S
C416 C415 1.378 . S
C416 C417 1.376 . S
C417 H379 0.929 . S
C417 C412 1.397 . S
C417 C416 1.376 . S
C418 C402 1.509 . S
C418 C419 1.391 . S
C418 C423 1.386 . S
C419 H380 0.930 . S
C419 C418 1.391 . S
C419 C420 1.375 . S
C420 H381 0.931 . S
C420 C419 1.375 . S
C420 C421 1.375 . S
C421 C420 1.375 . S
C421 C422 1.361 . S
C422 H382 0.930 . S
C422 C421 1.361 . S
C422 C423 1.399 . S
C423 H383 0.929 . S
C423 C418 1.386 . S
C423 C422 1.399 . S
C424 C403 1.485 . S
C424 C425 1.394 . S
C424 C429 1.360 . S
C425 H384 0.931 . S
C425 C424 1.394 . S
C425 C426 1.372 . S
C426 H385 0.930 . S
C426 C425 1.372 . S
C426 C427 1.397 . S
C427 C426 1.397 . S
C427 C428 1.390 . S
C427 C443 1.476 . S
C428 H386 0.930 . S
C428 C427 1.390 . S
C428 C429 1.366 . S
C429 H387 0.932 . S
C429 C424 1.360 . S
C429 C428 1.366 . S
C430 C404 1.490 . S
C430 C431 1.380 . S
C430 C435 1.386 . S
C431 H388 0.930 . S
C431 C430 1.380 . S
C431 C432 1.381 . S
C432 H389 0.929 . S
C432 C431 1.381 . S
C432 C433 1.371 . S
C433 C432 1.371 . S
C433 C434 1.380 . S
C434 H390 0.931 . S
C434 C433 1.380 . S
C434 C435 1.387 . S
C435 H391 0.930 . S
C435 C430 1.386 . S
C435 C434 1.387 . S
C436 C405 1.519 . S
C436 C437 1.377 . S
C436 C441 1.361 . S
C437 H392 0.929 . S
C437 C436 1.377 . S
C437 C438 1.386 . S
C438 H393 0.931 . S
C438 C437 1.386 . S
C438 C439 1.363 . S
C439 C438 1.363 . S
C439 C440 1.385 . S
C440 H394 0.930 . S
C440 C439 1.385 . S
C440 C441 1.396 . S
C441 H395 0.929 . S
C441 C436 1.361 . S
C441 C440 1.396 . S
C442 O396 1.300 . S
C442 O397 1.209 . S
C442 C415 1.486 1_556 S
C443 O398 1.199 . S
C443 O399 1.297 . S
C443 C427 1.476 . S
Zn444 O447 2.031 . S
Zn444 O449 2.049 . S
Zn444 O454 2.067 . S
Zn445 O446 1.962 . S
Zn445 O448 1.986 . S
Zn445 O450 1.996 . S
Zn445 O453 1.943 . S
O446 Zn445 1.962 . S
O446 C451 1.254 . S
O447 Zn444 2.031 . S
O447 C451 1.269 . S
O448 Zn445 1.986 . S
O448 C455 1.262 . S
O449 Zn444 2.049 . S
O449 C457 1.260 . S
O450 Zn445 1.996 . S
O450 C457 1.257 . S
C451 O446 1.254 . S
C451 O447 1.269 . S
C452 O453 1.249 . S
C452 O454 1.270 . S
O453 Zn445 1.943 . S
O453 C452 1.249 . S
O454 Zn444 2.067 . S
O454 C452 1.270 . S
C455 O448 1.262 . S
C455 O456 1.232 . S
O456 C455 1.232 . S
C457 O449 1.260 . S
C457 O450 1.257 . S
Zn458 O461 2.031 . S
Zn458 O463 2.049 . S
Zn458 O468 2.067 . S
Zn459 O460 1.962 . S
Zn459 O462 1.986 . S
Zn459 O464 1.996 . S
Zn459 O467 1.943 . S
O460 Zn459 1.962 . S
O460 C465 1.254 . S
O461 Zn458 2.031 . S
O461 C465 1.269 . S
O462 Zn459 1.986 . S
O462 C469 1.262 . S
O463 Zn458 2.049 . S
O463 C471 1.260 . S
O464 Zn459 1.996 . S
O464 C471 1.257 . S
C465 O460 1.254 . S
C465 O461 1.269 . S
C466 O467 1.249 . S
C466 O468 1.270 . S
O467 Zn459 1.943 . S
O467 C466 1.249 . S
O468 Zn458 2.067 . S
O468 C466 1.270 . S
C469 O462 1.262 . S
C469 O470 1.232 . S
O470 C469 1.232 . S
C471 O463 1.260 . S
C471 O464 1.257 . S
Zn472 O475 2.031 . S
Zn472 O477 2.049 . S
Zn472 O482 2.067 . S
Zn473 O474 1.962 . S
Zn473 O476 1.986 . S
Zn473 O478 1.996 . S
Zn473 O481 1.943 . S
O474 Zn473 1.962 . S
O474 C479 1.254 . S
O475 Zn472 2.031 . S
O475 C479 1.269 . S
O476 Zn473 1.986 . S
O476 C483 1.262 . S
O477 Zn472 2.049 . S
O477 C485 1.260 . S
O478 Zn473 1.996 . S
O478 C485 1.257 . S
C479 O474 1.254 . S
C479 O475 1.269 . S
C480 O481 1.249 . S
C480 O482 1.270 . S
O481 Zn473 1.943 . S
O481 C480 1.249 . S
O482 Zn472 2.067 . S
O482 C480 1.270 . S
C483 O476 1.262 . S
C483 O484 1.232 . S
O484 C483 1.232 . S
C485 O477 1.260 . S
C485 O478 1.257 . S
Zn486 O489 2.031 . S
Zn486 O491 2.049 . S
Zn486 O496 2.067 . S
Zn487 O488 1.962 . S
Zn487 O490 1.986 . S
Zn487 O492 1.996 . S
Zn487 O495 1.943 . S
O488 Zn487 1.962 . S
O488 C493 1.254 . S
O489 Zn486 2.031 . S
O489 C493 1.269 . S
O490 Zn487 1.986 . S
O490 C497 1.262 . S
O491 Zn486 2.049 . S
O491 C499 1.260 . S
O492 Zn487 1.996 . S
O492 C499 1.257 . S
C493 O488 1.254 . S
C493 O489 1.269 . S
C494 O495 1.249 . S
C494 O496 1.270 . S
O495 Zn487 1.943 . S
O495 C494 1.249 . S
O496 Zn486 2.067 . S
O496 C494 1.270 . S
C497 O490 1.262 . S
C497 O498 1.232 . S
O498 C497 1.232 . S
C499 O491 1.260 . S
C499 O492 1.257 . S
Zn500 O503 2.031 . S
Zn500 O505 2.049 . S
Zn500 O510 2.067 . S
Zn501 O502 1.962 . S
Zn501 O504 1.986 . S
Zn501 O506 1.996 . S
Zn501 O509 1.943 . S
O502 Zn501 1.962 . S
O502 C507 1.254 . S
O503 Zn500 2.031 . S
O503 C507 1.269 . S
O504 Zn501 1.986 . S
O504 C511 1.262 . S
O505 Zn500 2.049 . S
O505 C513 1.260 . S
O506 Zn501 1.996 . S
O506 C513 1.257 . S
C507 O502 1.254 . S
C507 O503 1.269 . S
C508 O509 1.249 . S
C508 O510 1.270 . S
O509 Zn501 1.943 . S
O509 C508 1.249 . S
O510 Zn500 2.067 . S
O510 C508 1.270 . S
C511 O504 1.262 . S
C511 O512 1.232 . S
O512 C511 1.232 . S
C513 O505 1.260 . S
C513 O506 1.257 . S
Zn514 O517 2.031 . S
Zn514 O519 2.049 . S
Zn514 O524 2.067 . S
Zn515 O516 1.962 . S
Zn515 O518 1.986 . S
Zn515 O520 1.996 . S
Zn515 O523 1.943 . S
O516 Zn515 1.962 . S
O516 C521 1.254 . S
O517 Zn514 2.031 . S
O517 C521 1.269 . S
O518 Zn515 1.986 . S
O518 C525 1.262 . S
O519 Zn514 2.049 . S
O519 C527 1.260 . S
O520 Zn515 1.996 . S
O520 C527 1.257 . S
C521 O516 1.254 . S
C521 O517 1.269 . S
C522 O523 1.249 . S
C522 O524 1.270 . S
O523 Zn515 1.943 . S
O523 C522 1.249 . S
O524 Zn514 2.067 . S
O524 C522 1.270 . S
C525 O518 1.262 . S
C525 O526 1.232 . S
O526 C525 1.232 . S
C527 O519 1.260 . S
C527 O520 1.257 . S
C528 C529 1.387 . S
C528 H532 0.950 . S
C528 C537 1.390 . S
C529 C528 1.387 . S
C529 C531 1.387 . S
H530 C537 0.950 . S
C531 C529 1.387 . S
C531 C533 1.390 . S
C531 H535 0.950 . S
H532 C528 0.950 . S
C533 C531 1.390 . S
C533 C534 1.387 . S
C533 H536 0.950 . S
C534 C533 1.387 . S
C534 C537 1.387 . S
H535 C531 0.950 . S
H536 C533 0.950 . S
C537 C528 1.390 . S
C537 H530 0.950 . S
C537 C534 1.387 . S
C538 C539 1.387 . S
C538 H542 0.950 . S
C538 C547 1.390 . S
C539 C538 1.387 . S
C539 C541 1.387 . S
H540 C547 0.950 . S
C541 C539 1.387 . S
C541 C543 1.390 . S
C541 H545 0.950 . S
H542 C538 0.950 . S
C543 C541 1.390 . S
C543 C544 1.387 . S
C543 H546 0.950 . S
C544 C543 1.387 . S
C544 C547 1.387 . S
H545 C541 0.950 . S
H546 C543 0.950 . S
C547 C538 1.390 . S
C547 H540 0.950 . S
C547 C544 1.387 . S
C548 C549 1.387 . S
C548 H552 0.950 . S
C548 C557 1.390 . S
C549 C548 1.387 . S
C549 C551 1.387 . S
H550 C557 0.950 . S
C551 C549 1.387 . S
C551 C553 1.390 . S
C551 H555 0.950 . S
H552 C548 0.950 . S
C553 C551 1.390 . S
C553 C554 1.387 . S
C553 H556 0.950 . S
C554 C553 1.387 . S
C554 C557 1.387 . S
H555 C551 0.950 . S
H556 C553 0.950 . S
C557 C548 1.390 . S
C557 H550 0.950 . S
C557 C554 1.387 . S
C558 C559 1.387 . S
C558 H562 0.950 . S
C558 C567 1.390 . S
C559 C558 1.387 . S
C559 C561 1.387 . S
H560 C567 0.950 . S
C561 C559 1.387 . S
C561 C563 1.390 . S
C561 H565 0.950 . S
H562 C558 0.950 . S
C563 C561 1.390 . S
C563 C564 1.387 . S
C563 H566 0.950 . S
C564 C563 1.387 . S
C564 C567 1.387 . S
H565 C561 0.950 . S
H566 C563 0.950 . S
C567 C558 1.390 . S
C567 H560 0.950 . S
C567 C564 1.387 . S
C568 C569 1.387 . S
C568 H572 0.950 . S
C568 C577 1.390 . S
C569 C568 1.387 . S
C569 C571 1.387 . S
H570 C577 0.950 . S
C571 C569 1.387 . S
C571 C573 1.390 . S
C571 H575 0.950 . S
H572 C568 0.950 . S
C573 C571 1.390 . S
C573 C574 1.387 . S
C573 H576 0.950 . S
C574 C573 1.387 . S
C574 C577 1.387 . S
H575 C571 0.950 . S
H576 C573 0.950 . S
C577 C568 1.390 . S
C577 H570 0.950 . S
C577 C574 1.387 . S
C578 C579 1.387 . S
C578 H582 0.950 . S
C578 C587 1.390 . S
C579 C578 1.387 . S
C579 C581 1.387 . S
H580 C587 0.950 . S
C581 C579 1.387 . S
C581 C583 1.390 . S
C581 H585 0.950 . S
H582 C578 0.950 . S
C583 C581 1.390 . S
C583 C584 1.387 . S
C583 H586 0.950 . S
C584 C583 1.387 . S
C584 C587 1.387 . S
H585 C581 0.950 . S
H586 C583 0.950 . S
C587 C578 1.390 . S
C587 H580 0.950 . S
C587 C584 1.387 . S
C588 C589 1.387 . S
C588 H592 0.950 . S
C588 C597 1.390 . S
C589 C588 1.387 . S
C589 C591 1.387 . S
H590 C597 0.950 . S
C591 C589 1.387 . S
C591 C593 1.390 . S
C591 H595 0.950 . S
H592 C588 0.950 . S
C593 C591 1.390 . S
C593 C594 1.387 . S
C593 H596 0.950 . S
C594 C593 1.387 . S
C594 C597 1.387 . S
H595 C591 0.950 . S
H596 C593 0.950 . S
C597 C588 1.390 . S
C597 H590 0.950 . S
C597 C594 1.387 . S
C598 C599 1.387 . S
C598 H602 0.950 . S
C598 C607 1.390 . S
C599 C598 1.387 . S
C599 C601 1.387 . S
H600 C607 0.950 . S
C601 C599 1.387 . S
C601 C603 1.390 . S
C601 H605 0.950 . S
H602 C598 0.950 . S
C603 C601 1.390 . S
C603 C604 1.387 . S
C603 H606 0.950 . S
C604 C603 1.387 . S
C604 C607 1.387 . S
H605 C601 0.950 . S
H606 C603 0.950 . S
C607 C598 1.390 . S
C607 H600 0.950 . S
C607 C604 1.387 . S
C608 C609 1.387 . S
C608 H612 0.950 . S
C608 C617 1.390 . S
C609 C608 1.387 . S
C609 C611 1.387 . S
H610 C617 0.950 . S
C611 C609 1.387 . S
C611 C613 1.390 . S
C611 H615 0.950 . S
H612 C608 0.950 . S
C613 C611 1.390 . S
C613 C614 1.387 . S
C613 H616 0.950 . S
C614 C613 1.387 . S
C614 C617 1.387 . S
H615 C611 0.950 . S
H616 C613 0.950 . S
C617 C608 1.390 . S
C617 H610 0.950 . S
C617 C614 1.387 . S
C618 C619 1.387 . S
C618 H622 0.950 1_554 S
C618 C627 1.390 . S
C619 C618 1.387 . S
C619 C621 1.387 . S
H620 C627 0.950 . S
C621 C619 1.387 . S
C621 C623 1.390 . S
C621 H625 0.950 . S
H622 C618 0.950 1_556 S
C623 C621 1.390 . S
C623 C624 1.387 . S
C623 H626 0.950 . S
C624 C623 1.387 . S
C624 C627 1.387 . S
H625 C621 0.950 . S
H626 C623 0.950 . S
C627 C618 1.390 . S
C627 H620 0.950 . S
C627 C624 1.387 . S
C628 C629 1.387 . S
C628 H632 0.950 . S
C628 C637 1.390 . S
C629 C628 1.387 . S
C629 C631 1.387 . S
H630 C637 0.950 . S
C631 C629 1.387 . S
C631 C633 1.390 . S
C631 H635 0.950 . S
H632 C628 0.950 . S
C633 C631 1.390 . S
C633 C634 1.387 . S
C633 H636 0.950 . S
C634 C633 1.387 . S
C634 C637 1.387 . S
H635 C631 0.950 . S
H636 C633 0.950 . S
C637 C628 1.390 . S
C637 H630 0.950 . S
C637 C634 1.387 . S
C638 C639 1.387 . S
C638 H642 0.950 . S
C638 C647 1.390 . S
C639 C638 1.387 . S
C639 C641 1.387 . S
H640 C647 0.950 . S
C641 C639 1.387 . S
C641 C643 1.390 . S
C641 H645 0.950 . S
H642 C638 0.950 . S
C643 C641 1.390 . S
C643 C644 1.387 . S
C643 H646 0.950 . S
C644 C643 1.387 . S
C644 C647 1.387 . S
H645 C641 0.950 . S
H646 C643 0.950 . S
C647 C638 1.390 . S
C647 H640 0.950 . S
C647 C644 1.387 . S
C648 C649 1.387 . S
C648 H652 0.950 . S
C648 C657 1.390 . S
C649 C648 1.387 . S
C649 C651 1.387 . S
H650 C657 0.950 . S
C651 C649 1.387 . S
C651 C653 1.390 . S
C651 H655 0.950 . S
H652 C648 0.950 . S
C653 C651 1.390 . S
C653 C654 1.387 . S
C653 H656 0.950 . S
C654 C653 1.387 . S
C654 C657 1.387 . S
H655 C651 0.950 . S
H656 C653 0.950 . S
C657 C648 1.390 . S
C657 H650 0.950 . S
C657 C654 1.387 . S
C658 C659 1.387 . S
C658 H662 0.950 . S
C658 C667 1.390 . S
C659 C658 1.387 . S
C659 C661 1.387 . S
H660 C667 0.950 . S
C661 C659 1.387 . S
C661 C663 1.390 . S
C661 H665 0.950 . S
H662 C658 0.950 . S
C663 C661 1.390 . S
C663 C664 1.387 . S
C663 H666 0.950 . S
C664 C663 1.387 . S
C664 C667 1.387 . S
H665 C661 0.950 . S
H666 C663 0.950 . S
C667 C658 1.390 . S
C667 H660 0.950 . S
C667 C664 1.387 . S
C668 C669 1.387 . S
C668 H672 0.950 . S
C668 C677 1.390 . S
C669 C668 1.387 . S
C669 C671 1.387 . S
H670 C677 0.950 . S
C671 C669 1.387 . S
C671 C673 1.390 . S
C671 H675 0.950 . S
H672 C668 0.950 . S
C673 C671 1.390 . S
C673 C674 1.387 . S
C673 H676 0.950 . S
C674 C673 1.387 . S
C674 C677 1.387 . S
H675 C671 0.950 . S
H676 C673 0.950 . S
C677 C668 1.390 . S
C677 H670 0.950 . S
C677 C674 1.387 . S
C678 C679 1.387 . S
C678 H682 0.950 . S
C678 C687 1.390 . S
C679 C678 1.387 . S
C679 C681 1.387 . S
H680 C687 0.950 . S
C681 C679 1.387 . S
C681 C683 1.390 . S
C681 H685 0.950 . S
H682 C678 0.950 . S
C683 C681 1.390 . S
C683 C684 1.387 . S
C683 H686 0.950 . S
C684 C683 1.387 . S
C684 C687 1.387 . S
H685 C681 0.950 . S
H686 C683 0.950 . S
C687 C678 1.390 . S
C687 H680 0.950 . S
C687 C684 1.387 . S
C688 C689 1.387 . S
C688 H692 0.950 . S
C688 C697 1.390 . S
C689 C688 1.387 . S
C689 C691 1.387 . S
H690 C697 0.950 . S
C691 C689 1.387 . S
C691 C693 1.390 . S
C691 H695 0.950 1_565 S
H692 C688 0.950 . S
C693 C691 1.390 . S
C693 C694 1.387 . S
C693 H696 0.950 . S
C694 C693 1.387 . S
C694 C697 1.387 . S
H695 C691 0.950 1_545 S
H696 C693 0.950 . S
C697 C688 1.390 . S
C697 H690 0.950 . S
C697 C694 1.387 . S
C698 C699 1.387 . S
C698 H702 0.950 . S
C698 C707 1.390 . S
C699 C698 1.387 . S
C699 C701 1.387 . S
H700 C707 0.950 . S
C701 C699 1.387 . S
C701 C703 1.390 . S
C701 H705 0.950 . S
H702 C698 0.950 . S
C703 C701 1.390 . S
C703 C704 1.387 . S
C703 H706 0.950 . S
C704 C703 1.387 . S
C704 C707 1.387 . S
H705 C701 0.950 . S
H706 C703 0.950 . S
C707 C698 1.390 . S
C707 H700 0.950 . S
C707 C704 1.387 . S
C708 C709 1.387 . S
C708 H712 0.950 . S
C708 C717 1.390 . S
C709 C708 1.387 . S
C709 C711 1.387 . S
H710 C717 0.950 . S
C711 C709 1.387 . S
C711 C713 1.390 . S
C711 H715 0.950 . S
H712 C708 0.950 . S
C713 C711 1.390 . S
C713 C714 1.387 . S
C713 H716 0.950 . S
C714 C713 1.387 . S
C714 C717 1.387 . S
H715 C711 0.950 . S
H716 C713 0.950 . S
C717 C708 1.390 . S
C717 H710 0.950 . S
C717 C714 1.387 . S
C718 C719 1.387 . S
C718 H722 0.950 . S
C718 C727 1.390 . S
C719 C718 1.387 . S
C719 C721 1.387 . S
H720 C727 0.950 . S
C721 C719 1.387 . S
C721 C723 1.390 . S
C721 H725 0.950 . S
H722 C718 0.950 . S
C723 C721 1.390 . S
C723 C724 1.387 . S
C723 H726 0.950 . S
C724 C723 1.387 . S
C724 C727 1.387 . S
H725 C721 0.950 . S
H726 C723 0.950 . S
C727 C718 1.390 . S
C727 H720 0.950 . S
C727 C724 1.387 . S
C728 C729 1.387 . S
C728 H732 0.950 . S
C728 C737 1.390 . S
C729 C728 1.387 . S
C729 C731 1.387 . S
H730 C737 0.950 . S
C731 C729 1.387 . S
C731 C733 1.390 . S
C731 H735 0.950 . S
H732 C728 0.950 . S
C733 C731 1.390 . S
C733 C734 1.387 . S
C733 H736 0.950 . S
C734 C733 1.387 . S
C734 C737 1.387 . S
H735 C731 0.950 . S
H736 C733 0.950 . S
C737 C728 1.390 . S
C737 H730 0.950 . S
C737 C734 1.387 . S
C738 C739 1.387 . S
C738 H742 0.950 . S
C738 C747 1.390 . S
C739 C738 1.387 . S
C739 C741 1.387 . S
H740 C747 0.950 . S
C741 C739 1.387 . S
C741 C743 1.390 . S
C741 H745 0.950 . S
H742 C738 0.950 . S
C743 C741 1.390 . S
C743 C744 1.387 . S
C743 H746 0.950 . S
C744 C743 1.387 . S
C744 C747 1.387 . S
H745 C741 0.950 . S
H746 C743 0.950 . S
C747 C738 1.390 . S
C747 H740 0.950 . S
C747 C744 1.387 . S
C748 C749 1.387 . S
C748 H752 0.950 . S
C748 C757 1.390 1_554 S
C749 C748 1.387 . S
C749 C751 1.387 . S
H750 C757 0.950 . S
C751 C749 1.387 . S
C751 C753 1.390 1_554 S
C751 H755 0.950 . S
H752 C748 0.950 . S
C753 C751 1.390 1_556 S
C753 C754 1.387 . S
C753 H756 0.950 . S
C754 C753 1.387 . S
C754 C757 1.387 . S
H755 C751 0.950 . S
H756 C753 0.950 . S
C757 C748 1.390 1_556 S
C757 H750 0.950 . S
C757 C754 1.387 . S
C758 C759 1.387 . S
C758 H762 0.950 . S
C758 C767 1.390 . S
C759 C758 1.387 . S
C759 C761 1.387 . S
H760 C767 0.950 . S
C761 C759 1.387 . S
C761 C763 1.390 . S
C761 H765 0.950 . S
H762 C758 0.950 . S
C763 C761 1.390 . S
C763 C764 1.387 . S
C763 H766 0.950 . S
C764 C763 1.387 . S
C764 C767 1.387 . S
H765 C761 0.950 . S
H766 C763 0.950 . S
C767 C758 1.390 . S
C767 H760 0.950 . S
C767 C764 1.387 . S
C534 C521 1.426 . S
C529 C51 1.376 . S
C539 C125 1.458 . S
C544 C455 1.428 . S
C549 C217 2.347 . S
C554 C469 2.340 . S
C559 C291 1.497 . S
C564 C483 1.457 . S
C574 C497 1.106 . S
C569 C347 1.118 . S
C579 C421 0.945 . S
C584 C507 0.951 . S
C589 C143 2.268 . S
C594 C465 2.281 . S
C599 C199 1.626 . S
C604 C479 1.668 . S
C609 C273 0.700 . S
C614 C493 0.698 . S
C624 C511 1.641 . S
C619 C365 1.657 . S
C634 C525 1.812 . S
C629 C439 1.892 . S
C644 C451 2.363 . S
C639 C69 2.317 . S
C649 C63 1.519 . S
C654 C466 1.593 . S
C659 C137 1.708 . S
C664 C480 1.758 . S
C674 C494 1.522 . S
C669 C187 1.412 . S
C679 C261 1.518 . S
C684 C513 1.568 1_556 S
C694 C527 1.489 . S
C689 C359 1.486 . S
C704 C452 1.227 . S
C699 C433 1.179 . S
C714 C522 1.703 . S
C709 C113 1.707 . S
C719 C211 1.312 . S
C724 C457 1.375 . S
C734 C471 1.676 . S
C729 C285 1.553 . S
C739 C335 1.400 . S
C744 C485 1.418 . S
C749 C409 1.380 . S
C754 C499 1.462 . S
C759 C39 1.667 . S
C764 C508 1.688 . S
